# Generated by pormake.
# Topology ctn, (3,4)-cn, num edge types: 1
# Building blocks:
#     Node 0, Type 0, BuildingBlock: ESEHIV_clean_linker_0, # of connection points: 3
#     Node 1, Type 0, BuildingBlock: ESEHIV_clean_linker_0, # of connection points: 3
#     Node 2, Type 0, BuildingBlock: ESEHIV_clean_linker_0, # of connection points: 3
#     Node 3, Type 0, BuildingBlock: ESEHIV_clean_linker_0, # of connection points: 3
#     Node 4, Type 0, BuildingBlock: ESEHIV_clean_linker_0, # of connection points: 3
#     Node 5, Type 0, BuildingBlock: ESEHIV_clean_linker_0, # of connection points: 3
#     Node 6, Type 0, BuildingBlock: ESEHIV_clean_linker_0, # of connection points: 3
#     Node 7, Type 0, BuildingBlock: ESEHIV_clean_linker_0, # of connection points: 3
#     Node 8, Type 0, BuildingBlock: ESEHIV_clean_linker_0, # of connection points: 3
#     Node 9, Type 0, BuildingBlock: ESEHIV_clean_linker_0, # of connection points: 3
#     Node 10, Type 0, BuildingBlock: ESEHIV_clean_linker_0, # of connection points: 3
#     Node 11, Type 0, BuildingBlock: ESEHIV_clean_linker_0, # of connection points: 3
#     Node 12, Type 0, BuildingBlock: ESEHIV_clean_linker_0, # of connection points: 3
#     Node 13, Type 0, BuildingBlock: ESEHIV_clean_linker_0, # of connection points: 3
#     Node 14, Type 0, BuildingBlock: ESEHIV_clean_linker_0, # of connection points: 3
#     Node 15, Type 0, BuildingBlock: ESEHIV_clean_linker_0, # of connection points: 3
#     Node 16, Type 1, BuildingBlock: NAHDIM_clean_sbu_0, # of connection points: 4
#     Node 17, Type 1, BuildingBlock: NAHDIM_clean_sbu_0, # of connection points: 4
#     Node 18, Type 1, BuildingBlock: NAHDIM_clean_sbu_0, # of connection points: 4
#     Node 19, Type 1, BuildingBlock: NAHDIM_clean_sbu_0, # of connection points: 4
#     Node 20, Type 1, BuildingBlock: NAHDIM_clean_sbu_0, # of connection points: 4
#     Node 21, Type 1, BuildingBlock: NAHDIM_clean_sbu_0, # of connection points: 4
#     Node 22, Type 1, BuildingBlock: NAHDIM_clean_sbu_0, # of connection points: 4
#     Node 23, Type 1, BuildingBlock: NAHDIM_clean_sbu_0, # of connection points: 4
#     Node 24, Type 1, BuildingBlock: NAHDIM_clean_sbu_0, # of connection points: 4
#     Node 25, Type 1, BuildingBlock: NAHDIM_clean_sbu_0, # of connection points: 4
#     Node 26, Type 1, BuildingBlock: NAHDIM_clean_sbu_0, # of connection points: 4
#     Node 27, Type 1, BuildingBlock: NAHDIM_clean_sbu_0, # of connection points: 4
#     Edge 28, Type (0, 1), BuildingBlock: XUDNAN_clean_linker_2, # of connection points: 2
#     Edge 29, Type (0, 1), BuildingBlock: XUDNAN_clean_linker_2, # of connection points: 2
#     Edge 30, Type (0, 1), BuildingBlock: XUDNAN_clean_linker_2, # of connection points: 2
#     Edge 31, Type (0, 1), BuildingBlock: XUDNAN_clean_linker_2, # of connection points: 2
#     Edge 32, Type (0, 1), BuildingBlock: XUDNAN_clean_linker_2, # of connection points: 2
#     Edge 33, Type (0, 1), BuildingBlock: XUDNAN_clean_linker_2, # of connection points: 2
#     Edge 34, Type (0, 1), BuildingBlock: XUDNAN_clean_linker_2, # of connection points: 2
#     Edge 35, Type (0, 1), BuildingBlock: XUDNAN_clean_linker_2, # of connection points: 2
#     Edge 36, Type (0, 1), BuildingBlock: XUDNAN_clean_linker_2, # of connection points: 2
#     Edge 37, Type (0, 1), BuildingBlock: XUDNAN_clean_linker_2, # of connection points: 2
#     Edge 38, Type (0, 1), BuildingBlock: XUDNAN_clean_linker_2, # of connection points: 2
#     Edge 39, Type (0, 1), BuildingBlock: XUDNAN_clean_linker_2, # of connection points: 2
#     Edge 40, Type (0, 1), BuildingBlock: XUDNAN_clean_linker_2, # of connection points: 2
#     Edge 41, Type (0, 1), BuildingBlock: XUDNAN_clean_linker_2, # of connection points: 2
#     Edge 42, Type (0, 1), BuildingBlock: XUDNAN_clean_linker_2, # of connection points: 2
#     Edge 43, Type (0, 1), BuildingBlock: XUDNAN_clean_linker_2, # of connection points: 2
#     Edge 44, Type (0, 1), BuildingBlock: XUDNAN_clean_linker_2, # of connection points: 2
#     Edge 45, Type (0, 1), BuildingBlock: XUDNAN_clean_linker_2, # of connection points: 2
#     Edge 46, Type (0, 1), BuildingBlock: XUDNAN_clean_linker_2, # of connection points: 2
#     Edge 47, Type (0, 1), BuildingBlock: XUDNAN_clean_linker_2, # of connection points: 2
#     Edge 48, Type (0, 1), BuildingBlock: XUDNAN_clean_linker_2, # of connection points: 2
#     Edge 49, Type (0, 1), BuildingBlock: XUDNAN_clean_linker_2, # of connection points: 2
#     Edge 50, Type (0, 1), BuildingBlock: XUDNAN_clean_linker_2, # of connection points: 2
#     Edge 51, Type (0, 1), BuildingBlock: XUDNAN_clean_linker_2, # of connection points: 2
#     Edge 52, Type (0, 1), BuildingBlock: XUDNAN_clean_linker_2, # of connection points: 2
#     Edge 53, Type (0, 1), BuildingBlock: XUDNAN_clean_linker_2, # of connection points: 2
#     Edge 54, Type (0, 1), BuildingBlock: XUDNAN_clean_linker_2, # of connection points: 2
#     Edge 55, Type (0, 1), BuildingBlock: XUDNAN_clean_linker_2, # of connection points: 2
#     Edge 56, Type (0, 1), BuildingBlock: XUDNAN_clean_linker_2, # of connection points: 2
#     Edge 57, Type (0, 1), BuildingBlock: XUDNAN_clean_linker_2, # of connection points: 2
#     Edge 58, Type (0, 1), BuildingBlock: XUDNAN_clean_linker_2, # of connection points: 2
#     Edge 59, Type (0, 1), BuildingBlock: XUDNAN_clean_linker_2, # of connection points: 2
#     Edge 60, Type (0, 1), BuildingBlock: XUDNAN_clean_linker_2, # of connection points: 2
#     Edge 61, Type (0, 1), BuildingBlock: XUDNAN_clean_linker_2, # of connection points: 2
#     Edge 62, Type (0, 1), BuildingBlock: XUDNAN_clean_linker_2, # of connection points: 2
#     Edge 63, Type (0, 1), BuildingBlock: XUDNAN_clean_linker_2, # of connection points: 2
#     Edge 64, Type (0, 1), BuildingBlock: XUDNAN_clean_linker_2, # of connection points: 2
#     Edge 65, Type (0, 1), BuildingBlock: XUDNAN_clean_linker_2, # of connection points: 2
#     Edge 66, Type (0, 1), BuildingBlock: XUDNAN_clean_linker_2, # of connection points: 2
#     Edge 67, Type (0, 1), BuildingBlock: XUDNAN_clean_linker_2, # of connection points: 2
#     Edge 68, Type (0, 1), BuildingBlock: XUDNAN_clean_linker_2, # of connection points: 2
#     Edge 69, Type (0, 1), BuildingBlock: XUDNAN_clean_linker_2, # of connection points: 2
#     Edge 70, Type (0, 1), BuildingBlock: XUDNAN_clean_linker_2, # of connection points: 2
#     Edge 71, Type (0, 1), BuildingBlock: XUDNAN_clean_linker_2, # of connection points: 2
#     Edge 72, Type (0, 1), BuildingBlock: XUDNAN_clean_linker_2, # of connection points: 2
#     Edge 73, Type (0, 1), BuildingBlock: XUDNAN_clean_linker_2, # of connection points: 2
#     Edge 74, Type (0, 1), BuildingBlock: XUDNAN_clean_linker_2, # of connection points: 2
#     Edge 75, Type (0, 1), BuildingBlock: XUDNAN_clean_linker_2, # of connection points: 2
# Relax obj value: 0.002
# Max RMSD: 0.033
# Mean RMSD: 0.017
data_MOF--net-ctn--node1-NAHDIM_clean_sbu_0--node2-ESEHIV_clean_linker_0--edge1-XUDNAN_clean_linker_2
_symmetry_space_group_name_H-M    P1
_symmetry_Int_Tables_number       1
_symmetry_cell_setting            triclinic
loop_
_symmetry_equiv_pos_as_xyz
'x, y, z'
_cell_length_a     51.558316
_cell_length_b     51.869545
_cell_length_c     51.245502
_cell_angle_alpha  91.169269
_cell_angle_beta   90.110419
_cell_angle_gamma 92.31864
loop_
_atom_site_label
_atom_site_type_symbol
_atom_site_fract_x
_atom_site_fract_y
_atom_site_fract_z
_atom_type_partial_charge
H0 H 0.02638 0.07639 0.05039 0.0
H1 H 0.06459 0.00413 0.05069 0.0
H2 H 0.08714 0.06247 0.99548 0.0
C3 C 0.04094 0.0638 0.04269 0.0
C4 C 0.0564 0.07209 0.02176 0.0
C5 C 0.04357 0.03922 0.05316 0.0
C6 C 0.06233 0.02305 0.04261 0.0
C7 C 0.07821 0.03116 0.02175 0.0
C8 C 0.07484 0.05569 0.01125 0.0
H9 H 0.2929 0.68825 0.25445 0.0
H10 H 0.32314 0.75828 0.22042 0.0
H11 H 0.25661 0.7176 0.18621 0.0
C12 C 0.29212 0.70262 0.23945 0.0
C13 C 0.27261 0.7003 0.22027 0.0
C14 C 0.31041 0.72346 0.23976 0.0
C15 C 0.30916 0.7421 0.2203 0.0
C16 C 0.28982 0.74017 0.20085 0.0
C17 C 0.27167 0.71915 0.20099 0.0
H18 H 0.95424 0.5037 0.08383 0.0
H19 H 0.98136 0.42923 0.06179 0.0
H20 H 0.91903 0.46094 0.01889 0.0
C21 C 0.95311 0.48684 0.071 0.0
C22 C 0.93442 0.48507 0.05084 0.0
C23 C 0.9698 0.46665 0.07541 0.0
C24 C 0.96836 0.44483 0.05879 0.0
C25 C 0.9504 0.44291 0.03821 0.0
C26 C 0.93355 0.46307 0.03419 0.0
H27 H 0.66672 0.76725 0.21249 0.0
H28 H 0.73974 0.80181 0.18795 0.0
H29 H 0.70647 0.82457 0.26132 0.0
C30 C 0.68322 0.78046 0.21612 0.0
C31 C 0.68419 0.79561 0.23916 0.0
C32 C 0.7032 0.78252 0.19754 0.0
C33 C 0.72439 0.79991 0.20229 0.0
C34 C 0.72572 0.81512 0.22529 0.0
C35 C 0.70561 0.81275 0.24363 0.0
H36 H 0.00519 0.93549 0.44673 0.0
H37 H 0.05257 0.00506 0.44016 0.0
H38 H 0.0702 0.94981 0.49844 0.0
C39 C 0.02168 0.9476 0.45319 0.0
C40 C 0.03729 0.93957 0.47378 0.0
C41 C 0.02686 0.97136 0.44118 0.0
C42 C 0.04791 0.9872 0.45005 0.0
C43 C 0.06366 0.97969 0.47076 0.0
C44 C 0.0581 0.95586 0.48258 0.0
H45 H 0.20324 0.75352 0.79863 0.0
H46 H 0.25826 0.69898 0.8242 0.0
H47 H 0.21585 0.68466 0.75281 0.0
C48 C 0.21331 0.73578 0.79548 0.0
C49 C 0.20766 0.72028 0.77319 0.0
C50 C 0.23148 0.72819 0.81404 0.0
C51 C 0.24436 0.70508 0.8099 0.0
C52 C 0.23881 0.68937 0.78784 0.0
C53 C 0.22048 0.69707 0.7696 0.0
H54 H 0.92766 0.54764 0.50911 0.0
H55 H 0.9957 0.58211 0.4736 0.0
H56 H 0.95642 0.51649 0.43667 0.0
C57 C 0.94197 0.54779 0.49367 0.0
C58 C 0.93954 0.52958 0.47297 0.0
C59 C 0.96226 0.56675 0.49421 0.0
C60 C 0.98034 0.56722 0.47374 0.0
C61 C 0.97834 0.54925 0.45289 0.0
C62 C 0.95811 0.53026 0.45283 0.0
H63 H 0.75392 0.80968 0.81997 0.0
H64 H 0.80109 0.83527 0.75574 0.0
H65 H 0.82802 0.77672 0.80651 0.0
C66 C 0.77148 0.80842 0.80848 0.0
C67 C 0.79043 0.7912 0.81568 0.0
C68 C 0.7752 0.82442 0.78695 0.0
C69 C 0.79824 0.82309 0.77252 0.0
C70 C 0.81733 0.80572 0.77922 0.0
C71 C 0.81314 0.78964 0.80072 0.0
H72 H 0.24181 0.29834 0.32298 0.0
H73 H 0.30059 0.32505 0.26893 0.0
H74 H 0.30625 0.2514 0.30501 0.0
C75 C 0.25996 0.29583 0.31279 0.0
C76 C 0.27339 0.27317 0.31637 0.0
C77 C 0.26924 0.31448 0.2951 0.0
C78 C 0.29272 0.31043 0.28184 0.0
C79 C 0.30634 0.28782 0.28534 0.0
C80 C 0.29632 0.26922 0.3025 0.0
H81 H 0.45795 0.02143 0.56335 0.0
H82 H 0.49443 0.95479 0.53198 0.0
H83 H 0.41703 0.97198 0.50742 0.0
C84 C 0.45694 0.00428 0.55088 0.0
C85 C 0.43467 0.99854 0.53576 0.0
C86 C 0.47827 0.9884 0.54987 0.0
C87 C 0.47754 0.96652 0.53329 0.0
C88 C 0.45572 0.96078 0.51731 0.0
C89 C 0.43422 0.9767 0.51904 0.0
H90 H 0.16612 0.27922 0.71276 0.0
H91 H 0.23751 0.31807 0.6899 0.0
H92 H 0.20156 0.3382 0.76283 0.0
C93 C 0.18196 0.29303 0.71713 0.0
C94 C 0.18154 0.308 0.74025 0.0
C95 C 0.2022 0.29639 0.69905 0.0
C96 C 0.2224 0.3148 0.70427 0.0
C97 C 0.22193 0.33039 0.72701 0.0
C98 C 0.2017 0.32651 0.74505 0.0
H99 H 0.79611 0.1824 0.72853 0.0
H100 H 0.82554 0.25438 0.69777 0.0
H101 H 0.76754 0.20866 0.65528 0.0
C102 C 0.79577 0.19709 0.71381 0.0
C103 C 0.77936 0.19325 0.69205 0.0
C104 C 0.81269 0.21898 0.71605 0.0
C105 C 0.81289 0.23722 0.6961 0.0
C106 C 0.79671 0.23367 0.67408 0.0
C107 C 0.77988 0.21169 0.6723 0.0
H108 H 0.53209 0.5837 0.57056 0.0
H109 H 0.55583 0.50521 0.56728 0.0
H110 H 0.5767 0.55721 0.50535 0.0
C111 C 0.54215 0.5684 0.5606 0.0
C112 C 0.55413 0.57324 0.53655 0.0
C113 C 0.54246 0.5439 0.57166 0.0
C114 C 0.55535 0.52408 0.55862 0.0
C115 C 0.56794 0.52868 0.53468 0.0
C116 C 0.56681 0.55326 0.52358 0.0
H117 H 0.50727 0.44459 0.97731 0.0
H118 H 0.55515 0.51267 0.9622 0.0
H119 H 0.57197 0.46524 0.02744 0.0
C120 C 0.52404 0.45713 0.98199 0.0
C121 C 0.53888 0.45252 0.00431 0.0
C122 C 0.52976 0.47888 0.96671 0.0
C123 C 0.55093 0.49567 0.97365 0.0
C124 C 0.56616 0.49106 0.99569 0.0
C125 C 0.56013 0.46924 0.01061 0.0
H126 H 0.68531 0.23946 0.29423 0.0
H127 H 0.75959 0.20498 0.30167 0.0
H128 H 0.70091 0.16974 0.25133 0.0
C129 C 0.69842 0.22432 0.28922 0.0
C130 C 0.69026 0.20449 0.27164 0.0
C131 C 0.72344 0.22461 0.30029 0.0
C132 C 0.74026 0.20489 0.29331 0.0
C133 C 0.73243 0.18518 0.27545 0.0
C134 C 0.70729 0.18504 0.2649 0.0
H135 H 0.44012 0.04917 0.98741 0.0
H136 H 0.49341 0.09128 0.93818 0.0
H137 H 0.46636 0.01449 0.91559 0.0
C138 C 0.45175 0.05019 0.96983 0.0
C139 C 0.45164 0.02899 0.95226 0.0
C140 C 0.46661 0.07281 0.96473 0.0
C141 C 0.48152 0.07403 0.94187 0.0
C142 C 0.48168 0.05311 0.92401 0.0
C143 C 0.46683 0.03053 0.92949 0.0
C144 C 0.22435 0.91882 0.9867 0.0
O145 O 0.23741 0.91523 0.96505 0.0
O146 O 0.2567 0.8563 0.97928 0.0
Zn147 Zn 0.26284 0.88522 0.00614 0.0
O148 O 0.29481 0.90694 0.99669 0.0
C149 C 0.26836 0.8454 0.04496 0.0
O150 O 0.26463 0.82987 0.02463 0.0
O151 O 0.23159 0.90789 0.00733 0.0
C152 C 0.31629 0.89641 0.99242 0.0
O153 O 0.31735 0.87124 0.99414 0.0
C154 C 0.26229 0.85738 0.95514 0.0
O155 O 0.27281 0.87875 0.94584 0.0
O156 O 0.26832 0.8697 0.04184 0.0
C157 C 0.15682 0.4636 0.2882 0.0
O158 O 0.14591 0.46802 0.31092 0.0
O159 O 0.10545 0.51166 0.30005 0.0
Zn160 Zn 0.1248 0.50494 0.26628 0.0
O161 O 0.14298 0.53812 0.25458 0.0
C162 C 0.09025 0.50721 0.22112 0.0
O163 O 0.0986 0.53144 0.22025 0.0
O164 O 0.15072 0.47684 0.26867 0.0
C165 C 0.16743 0.54243 0.25487 0.0
O166 O 0.18253 0.52448 0.26313 0.0
C167 C 0.09502 0.53343 0.30192 0.0
O168 O 0.09795 0.54962 0.28267 0.0
O169 O 0.09858 0.49294 0.23893 0.0
C170 C 0.80103 0.60713 0.00441 0.0
O171 O 0.79231 0.60185 0.98072 0.0
O172 O 0.76447 0.66781 0.97879 0.0
Zn173 Zn 0.75839 0.64325 0.00837 0.0
O174 O 0.72818 0.61778 0.00198 0.0
C175 C 0.72657 0.67565 0.03914 0.0
O176 O 0.71107 0.67102 0.01905 0.0
O177 O 0.79011 0.62408 0.01837 0.0
C178 C 0.7207 0.60652 0.02262 0.0
O179 O 0.73368 0.61143 0.04437 0.0
C180 C 0.76928 0.66396 0.95474 0.0
O181 O 0.77126 0.64029 0.94558 0.0
O182 O 0.7487 0.6657 0.03925 0.0
C183 C 0.8557 0.0459 0.25785 0.0
O184 O 0.86236 0.03839 0.28117 0.0
O185 O 0.91056 0.00959 0.27367 0.0
Zn186 Zn 0.88809 0.00437 0.24161 0.0
O187 O 0.8661 0.97173 0.24583 0.0
C188 C 0.92643 0.01933 0.20339 0.0
O189 O 0.92741 0.04067 0.21768 0.0
O190 O 0.86456 0.03432 0.23786 0.0
C191 C 0.85267 0.96156 0.22722 0.0
O192 O 0.85307 0.97262 0.20437 0.0
C193 C 0.92225 0.9905 0.28254 0.0
O194 O 0.91982 0.9681 0.27014 0.0
O195 O 0.91082 1.00095 0.2098 0.0
C196 C 0.29068 0.1142 0.509 0.0
O197 O 0.27989 0.10898 0.48616 0.0
O198 O 0.24843 0.16495 0.48132 0.0
Zn199 Zn 0.24632 0.14606 0.51555 0.0
O200 O 0.21993 0.11621 0.51332 0.0
C201 C 0.22044 0.1879 0.54113 0.0
O202 O 0.20901 0.18906 0.51828 0.0
O203 O 0.28036 0.13039 0.52434 0.0
C204 C 0.19611 0.11745 0.5072 0.0
O205 O 0.18672 0.13992 0.50192 0.0
C206 C 0.24193 0.15396 0.45974 0.0
O207 O 0.23411 0.12954 0.45952 0.0
O208 O 0.2372 0.17099 0.54463 0.0
C209 C 0.34691 0.53766 0.77719 0.0
O210 O 0.34111 0.51489 0.78684 0.0
O211 O 0.40972 0.50894 0.80021 0.0
Zn212 Zn 0.3923 0.51095 0.76498 0.0
O213 O 0.36779 0.4802 0.7571 0.0
C214 C 0.42198 0.50599 0.71532 0.0
O215 O 0.40445 0.48822 0.70797 0.0
O216 O 0.36906 0.54168 0.76677 0.0
C217 C 0.36885 0.45639 0.75092 0.0
O218 O 0.39145 0.44591 0.74794 0.0
C219 C 0.42226 0.49018 0.80863 0.0
O220 O 0.4239 0.46917 0.79408 0.0
O221 O 0.42003 0.51706 0.73757 0.0
C222 C 0.69671 0.40427 0.47872 0.0
O223 O 0.7054 0.39954 0.45509 0.0
O224 O 0.73774 0.35238 0.45948 0.0
Zn225 Zn 0.74184 0.37635 0.49147 0.0
O226 O 0.77063 0.40292 0.48372 0.0
C227 C 0.77451 0.34776 0.52494 0.0
O228 O 0.79145 0.35404 0.50681 0.0
O229 O 0.70886 0.39562 0.49811 0.0
C230 C 0.78556 0.41462 0.50026 0.0
O231 O 0.78232 0.41037 0.52525 0.0
C232 C 0.75746 0.34957 0.44492 0.0
O233 O 0.77938 0.36192 0.45125 0.0
O234 O 0.75139 0.3552 0.52286 0.0
C235 C 0.66921 0.9729 0.75037 0.0
O236 O 0.68397 0.99412 0.75181 0.0
O237 O 0.60523 0.01727 0.76883 0.0
Zn238 Zn 0.62827 0.00816 0.73823 0.0
O239 O 0.6556 0.03669 0.73206 0.0
C240 C 0.60187 0.02376 0.69206 0.0
O241 O 0.61144 0.04639 0.70011 0.0
O242 O 0.64521 0.97437 0.74506 0.0
C243 C 0.66853 0.03576 0.71096 0.0
O244 O 0.66453 0.01591 0.69491 0.0
C245 C 0.59721 0.04001 0.77168 0.0
O246 O 0.60471 0.05764 0.75495 0.0
O247 O 0.60604 0.004 0.70552 0.0
C248 C 0.01665 0.22903 0.92767 0.0
O249 O 0.02122 0.25343 0.93416 0.0
O250 O 0.95921 0.2423 0.86465 0.0
Zn251 Zn 0.99003 0.25364 0.88724 0.0
O252 O 0.97777 0.27952 0.91397 0.0
C253 C 0.03453 0.25652 0.85275 0.0
O254 O 0.03163 0.23124 0.85287 0.0
O255 O 0.00357 0.2235 0.90709 0.0
C256 C 0.97577 0.30351 0.91019 0.0
O257 O 0.9817 0.31288 0.88724 0.0
C258 C 0.95677 0.24871 0.84096 0.0
O259 O 0.97543 0.26261 0.82996 0.0
O260 O 0.01895 0.27 0.8659 0.0
C261 C 0.52363 0.73238 0.44195 0.0
O262 O 0.52944 0.75664 0.44814 0.0
O263 O 0.46707 0.74415 0.37759 0.0
Zn264 Zn 0.49907 0.756 0.39832 0.0
O265 O 0.48965 0.78736 0.42001 0.0
C266 C 0.54207 0.75282 0.36088 0.0
O267 O 0.53787 0.72771 0.36192 0.0
O268 O 0.51063 0.7272 0.42125 0.0
C269 C 0.48055 0.80577 0.40727 0.0
O270 O 0.47786 0.80296 0.38186 0.0
C271 C 0.46425 0.74767 0.35326 0.0
O272 O 0.48337 0.75864 0.34007 0.0
O273 O 0.52811 0.76761 0.37445 0.0
C274 C 0.01149 0.78591 0.58201 0.0
O275 O 0.0039 0.76221 0.57539 0.0
O276 O 0.98551 0.77955 0.66082 0.0
Zn277 Zn 0.01077 0.76534 0.63461 0.0
O278 O 0.99539 0.73185 0.61922 0.0
C279 C 0.05039 0.76021 0.67546 0.0
O280 O 0.0317 0.76575 0.69177 0.0
O281 O 0.01573 0.7916 0.60596 0.0
C282 C 0.00929 0.71398 0.61034 0.0
O283 O 0.03469 0.71697 0.61159 0.0
C284 C 0.96976 0.76495 0.67337 0.0
O285 O 0.97063 0.73982 0.67005 0.0
O286 O 0.04567 0.75917 0.65108 0.0
C287 C 0.50526 0.29105 0.09792 0.0
O288 O 0.50244 0.27164 0.08117 0.0
O289 O 0.46975 0.252 0.16321 0.0
Zn290 Zn 0.49854 0.25086 0.13671 0.0
O291 O 0.48912 0.22589 0.10687 0.0
C292 C 0.52824 0.22392 0.17389 0.0
O293 O 0.50505 0.21378 0.17879 0.0
O294 O 0.50454 0.28668 0.12228 0.0
C295 C 0.48794 0.20137 0.10755 0.0
O296 O 0.49284 0.1899 0.12952 0.0
C297 C 0.44858 0.26338 0.16044 0.0
O298 O 0.44388 0.2748 0.13838 0.0
O299 O 0.53082 0.24041 0.15593 0.0
H300 H 0.24173 0.78046 0.8192 0.0
H301 H 0.23125 0.71067 0.86385 0.0
H302 H 0.23795 0.73611 0.90478 0.0
H303 H 0.29248 0.80991 0.85993 0.0
H304 H 0.28132 0.84217 0.85658 0.0
H305 H 0.27544 0.8185 0.83081 0.0
H306 H 0.22614 0.82618 0.83313 0.0
H307 H 0.23186 0.84986 0.85892 0.0
H308 H 0.20946 0.82281 0.86384 0.0
H309 H 0.24434 0.76922 0.94081 0.0
H310 H 0.25247 0.80747 0.96956 0.0
H311 H 0.2605 0.85568 0.90153 0.0
C312 C 0.2408 0.77061 0.83763 0.0
C313 C 0.236 0.74362 0.83843 0.0
C314 C 0.23515 0.7313 0.86284 0.0
C315 C 0.2388 0.7456 0.88617 0.0
C316 C 0.24349 0.77217 0.88473 0.0
C317 C 0.24471 0.78455 0.86111 0.0
C318 C 0.2505 0.81326 0.86502 0.0
C319 C 0.27648 0.82143 0.85233 0.0
C320 C 0.22816 0.82895 0.85462 0.0
C321 C 0.25219 0.81508 0.89454 0.0
C322 C 0.24791 0.79117 0.90551 0.0
C323 C 0.24788 0.78803 0.93244 0.0
C324 C 0.25245 0.80988 0.94861 0.0
C325 C 0.25724 0.83454 0.9378 0.0
C326 C 0.25712 0.83706 0.91038 0.0
H327 H 0.00413 0.51072 0.42698 0.0
H328 H 0.99287 0.59322 0.42762 0.0
H329 H 0.02261 0.59799 0.3903 0.0
H330 H 0.07244 0.5144 0.40988 0.0
H331 H 0.07051 0.48602 0.38897 0.0
H332 H 0.04861 0.48889 0.41613 0.0
H333 H 0.00931 0.48175 0.38488 0.0
H334 H 0.03108 0.47877 0.35764 0.0
H335 H 0.00631 0.50232 0.35719 0.0
H336 H 0.05211 0.59399 0.35238 0.0
H337 H 0.08024 0.5815 0.31587 0.0
H338 H 0.07353 0.50156 0.33944 0.0
C339 C 0.00793 0.52975 0.4192 0.0
C340 C 0.99634 0.55165 0.43036 0.0
C341 C 0.00186 0.57625 0.4197 0.0
C342 C 0.01863 0.57915 0.39842 0.0
C343 C 0.02984 0.55727 0.38799 0.0
C344 C 0.02481 0.53304 0.39797 0.0
C345 C 0.03936 0.51274 0.38284 0.0
C346 C 0.05889 0.49975 0.40051 0.0
C347 C 0.02038 0.49271 0.36987 0.0
C348 C 0.05313 0.52937 0.36268 0.0
C349 C 0.04728 0.55498 0.36609 0.0
C350 C 0.05696 0.57402 0.34957 0.0
C351 C 0.0729 0.5667 0.32885 0.0
C352 C 0.07918 0.54058 0.32483 0.0
C353 C 0.0693 0.52172 0.34217 0.0
H354 H 0.79689 0.7392 0.82172 0.0
H355 H 0.77609 0.80885 0.86367 0.0
H356 H 0.76923 0.78386 0.9037 0.0
H357 H 0.7499 0.69692 0.85237 0.0
H358 H 0.7708 0.66994 0.85356 0.0
H359 H 0.77501 0.69335 0.82828 0.0
H360 H 0.82315 0.70131 0.84181 0.0
H361 H 0.81911 0.67788 0.86712 0.0
H362 H 0.83098 0.71024 0.87518 0.0
H363 H 0.7644 0.75184 0.93884 0.0
H364 H 0.76072 0.71425 0.96727 0.0
H365 H 0.78381 0.66453 0.90284 0.0
C366 C 0.7911 0.74914 0.83943 0.0
C367 C 0.78694 0.77593 0.83965 0.0
C368 C 0.7791 0.7883 0.86305 0.0
C369 C 0.77529 0.7743 0.88589 0.0
C370 C 0.77932 0.74793 0.885 0.0
C371 C 0.78698 0.73539 0.86242 0.0
C372 C 0.78925 0.70671 0.86675 0.0
C373 C 0.77009 0.6908 0.8492 0.0
C374 C 0.81729 0.69856 0.86246 0.0
C375 C 0.78162 0.70515 0.89526 0.0
C376 C 0.77613 0.72921 0.90536 0.0
C377 C 0.76865 0.73287 0.93119 0.0
C378 C 0.76664 0.71135 0.94719 0.0
C379 C 0.77195 0.68637 0.93733 0.0
C380 C 0.77957 0.68332 0.91097 0.0
H381 H 0.00846 0.94159 0.39969 0.0
H382 H 0.00869 0.01943 0.43247 0.0
H383 H 0.98248 0.03307 0.39515 0.0
H384 H 0.01351 0.95918 0.33266 0.0
H385 H 0.99222 0.93303 0.32095 0.0
H386 H 0.01098 0.92944 0.35024 0.0
H387 H 0.96892 0.91804 0.37589 0.0
H388 H 0.95003 0.92149 0.34666 0.0
H389 H 0.94263 0.93993 0.3757 0.0
H390 H 0.95603 0.0381 0.35424 0.0
H391 H 0.93113 0.03409 0.31301 0.0
H392 H 0.94807 0.95283 0.30738 0.0
C393 C 0.00279 0.96145 0.39918 0.0
C394 C 0.01063 0.97945 0.41901 0.0
C395 C 0.00314 0.00536 0.41736 0.0
C396 C 0.98817 0.01327 0.3963 0.0
C397 C 0.98085 0.99503 0.37706 0.0
C398 C 0.98788 0.96966 0.37833 0.0
C399 C 0.97756 0.95388 0.3551 0.0
C400 C 0.9999 0.94326 0.33877 0.0
C401 C 0.95866 0.93205 0.36387 0.0
C402 C 0.96356 0.97432 0.34059 0.0
C403 C 0.96569 0.99794 0.35355 0.0
C404 C 0.95424 0.01971 0.34392 0.0
C405 C 0.94016 0.01723 0.32047 0.0
C406 C 0.93765 0.99316 0.30693 0.0
C407 C 0.94963 0.97152 0.3172 0.0
H408 H 0.23853 0.26523 0.6773 0.0
H409 H 0.16265 0.29564 0.66398 0.0
H410 H 0.1595 0.27189 0.62169 0.0
H411 H 0.26062 0.26601 0.61021 0.0
H412 H 0.27679 0.23594 0.61226 0.0
H413 H 0.27358 0.25617 0.64098 0.0
H414 H 0.25111 0.21798 0.66512 0.0
H415 H 0.25423 0.19766 0.63647 0.0
H416 H 0.22275 0.20175 0.65087 0.0
H417 H 0.16478 0.24552 0.58082 0.0
H418 H 0.17692 0.21595 0.54495 0.0
H419 H 0.24838 0.20049 0.58567 0.0
C420 C 0.22138 0.26694 0.66532 0.0
C421 C 0.20083 0.28224 0.6737 0.0
C422 C 0.17851 0.28389 0.65781 0.0
C423 C 0.1766 0.27057 0.63378 0.0
C424 C 0.19709 0.25549 0.62609 0.0
C425 C 0.21897 0.2534 0.64142 0.0
C426 C 0.23772 0.23505 0.62897 0.0
C427 C 0.26371 0.24914 0.62273 0.0
C428 C 0.24167 0.21173 0.6464 0.0
C429 C 0.22295 0.22721 0.60426 0.0
C430 C 0.19969 0.23945 0.60289 0.0
C431 C 0.18289 0.23572 0.58171 0.0
C432 C 0.18998 0.21893 0.56141 0.0
C433 C 0.21351 0.20583 0.56258 0.0
C434 C 0.23016 0.21007 0.58434 0.0
H435 H 0.50502 0.50678 0.58325 0.0
H436 H 0.54988 0.57181 0.61675 0.0
H437 H 0.52553 0.56746 0.65804 0.0
H438 H 0.44508 0.52353 0.61043 0.0
H439 H 0.43356 0.49091 0.61638 0.0
H440 H 0.45623 0.49725 0.5904 0.0
H441 H 0.48783 0.4652 0.61003 0.0
H442 H 0.46517 0.45862 0.63602 0.0
H443 H 0.49806 0.46937 0.64356 0.0
H444 H 0.49494 0.5578 0.69453 0.0
H445 H 0.45963 0.54387 0.72401 0.0
H446 H 0.43337 0.48564 0.66669 0.0
C447 C 0.51002 0.51968 0.59953 0.0
C448 C 0.52943 0.5395 0.59701 0.0
C449 C 0.5351 0.55649 0.61841 0.0
C450 C 0.52143 0.55412 0.64191 0.0
C451 C 0.50206 0.53473 0.64364 0.0
C452 C 0.49632 0.51777 0.62308 0.0
C453 C 0.47344 0.49973 0.62957 0.0
C454 C 0.45074 0.50307 0.61057 0.0
C455 C 0.48162 0.47156 0.62981 0.0
C456 C 0.46702 0.50945 0.65682 0.0
C457 C 0.48395 0.52948 0.66461 0.0
C458 C 0.48165 0.54203 0.68872 0.0
C459 C 0.46147 0.53397 0.70533 0.0
C460 C 0.44366 0.51364 0.69772 0.0
C461 C 0.44665 0.50119 0.67314 0.0
H462 H 0.75654 0.25439 0.64693 0.0
H463 H 0.84059 0.25474 0.65198 0.0
H464 H 0.84383 0.28475 0.61527 0.0
H465 H 0.75235 0.25558 0.57721 0.0
H466 H 0.72539 0.27663 0.57668 0.0
H467 H 0.72957 0.25571 0.60386 0.0
H468 H 0.72944 0.29513 0.63571 0.0
H469 H 0.72525 0.3162 0.60862 0.0
H470 H 0.7521 0.32198 0.63084 0.0
H471 H 0.83815 0.313 0.57697 0.0
H472 H 0.82397 0.3391 0.54032 0.0
H473 H 0.74346 0.32153 0.56027 0.0
C474 C 0.77561 0.2608 0.64028 0.0
C475 C 0.79834 0.25229 0.65239 0.0
C476 C 0.82293 0.26126 0.64325 0.0
C477 C 0.82497 0.2782 0.62233 0.0
C478 C 0.80223 0.28615 0.6108 0.0
C479 C 0.778 0.2779 0.6195 0.0
C480 C 0.75666 0.28937 0.60354 0.0
C481 C 0.74001 0.26805 0.58949 0.0
C482 C 0.73988 0.3067 0.62071 0.0
C483 C 0.7727 0.30513 0.58434 0.0
C484 C 0.79894 0.30292 0.58889 0.0
C485 C 0.81766 0.31502 0.57331 0.0
C486 C 0.80939 0.32976 0.55248 0.0
C487 C 0.78261 0.33245 0.54745 0.0
C488 C 0.76406 0.32004 0.56375 0.0
H489 H 0.50094 0.9606 0.58805 0.0
H490 H 0.50685 0.0333 0.54786 0.0
H491 H 0.54182 0.04877 0.57801 0.0
H492 H 0.50761 0.98694 0.65081 0.0
H493 H 0.52654 0.96172 0.6639 0.0
H494 H 0.50465 0.95468 0.63706 0.0
H495 H 0.54237 0.9371 0.6095 0.0
H496 H 0.56438 0.94384 0.63639 0.0
H497 H 0.57133 0.95712 0.60481 0.0
H498 H 0.5722 0.05816 0.61474 0.0
H499 H 0.59764 0.0607 0.65545 0.0
H500 H 0.57237 0.98201 0.67279 0.0
C501 C 0.51023 0.97944 0.58523 0.0
C502 C 0.50155 0.99575 0.56559 0.0
C503 C 0.51347 0.02057 0.56276 0.0
C504 C 0.53331 0.02947 0.57974 0.0
C505 C 0.54097 0.01328 0.59943 0.0
C506 C 0.53 0.98872 0.60221 0.0
C507 C 0.54045 0.97612 0.62632 0.0
C508 C 0.5185 0.96949 0.64566 0.0
C509 C 0.55553 0.95212 0.6188 0.0
C510 C 0.55847 0.99769 0.63695 0.0
C511 C 0.55858 0.01883 0.62096 0.0
C512 C 0.57257 0.04163 0.62725 0.0
C513 C 0.58685 0.04291 0.65053 0.0
C514 C 0.58706 0.02154 0.6673 0.0
C515 C 0.5728 0.99857 0.66025 0.0
H516 H 0.86357 0.23743 0.71623 0.0
H517 H 0.80278 0.20775 0.76737 0.0
H518 H 0.83324 0.21118 0.80459 0.0
H519 H 0.9163 0.20636 0.74565 0.0
H520 H 0.93909 0.23332 0.74201 0.0
H521 H 0.91258 0.22841 0.71928 0.0
H522 H 0.89761 0.27465 0.72941 0.0
H523 H 0.92419 0.27977 0.75203 0.0
H524 H 0.89138 0.2843 0.76273 0.0
H525 H 0.87062 0.21707 0.83615 0.0
H526 H 0.91148 0.22712 0.86014 0.0
H527 H 0.94725 0.25462 0.78872 0.0
C528 C 0.85648 0.23198 0.73529 0.0
C529 C 0.83072 0.2222 0.73876 0.0
C530 C 0.8225 0.21489 0.76405 0.0
C531 C 0.83962 0.21689 0.78537 0.0
C532 C 0.8649 0.22639 0.78118 0.0
C533 C 0.87325 0.234 0.75682 0.0
C534 C 0.90133 0.24379 0.75759 0.0
C535 C 0.91832 0.22696 0.7401 0.0
C536 C 0.90376 0.27232 0.75 0.0
C537 C 0.90749 0.24046 0.78621 0.0
C538 C 0.88626 0.23026 0.79944 0.0
C539 C 0.88734 0.22517 0.82601 0.0
C540 C 0.91068 0.23087 0.83945 0.0
C541 C 0.93258 0.24172 0.82635 0.0
C542 C 0.93086 0.24644 0.79934 0.0
H543 H 0.47465 0.91202 0.52276 0.0
H544 H 0.43777 0.96098 0.4671 0.0
H545 H 0.43873 0.92609 0.43387 0.0
H546 H 0.518 0.88326 0.47715 0.0
H547 H 0.51576 0.85178 0.49142 0.0
H548 H 0.51113 0.88015 0.51145 0.0
H549 H 0.46621 0.86138 0.52588 0.0
H550 H 0.47069 0.83294 0.50588 0.0
H551 H 0.44236 0.85166 0.50146 0.0
H552 H 0.44498 0.88697 0.40616 0.0
H553 H 0.45595 0.84559 0.38549 0.0
H554 H 0.48925 0.82145 0.45854 0.0
C555 C 0.46678 0.91539 0.50359 0.0
C556 C 0.45589 0.93922 0.49767 0.0
C557 C 0.44571 0.94277 0.47233 0.0
C558 C 0.44631 0.92311 0.45323 0.0
C559 C 0.45718 0.89995 0.45969 0.0
C560 C 0.46722 0.89592 0.48421 0.0
C561 C 0.47827 0.86931 0.48577 0.0
C562 C 0.50752 0.87125 0.4918 0.0
C563 C 0.4635 0.85285 0.50594 0.0
C564 C 0.47306 0.85916 0.4582 0.0
C565 C 0.46084 0.87719 0.44356 0.0
C566 C 0.45446 0.87263 0.41743 0.0
C567 C 0.46082 0.84904 0.40586 0.0
C568 C 0.47343 0.83021 0.42037 0.0
C569 C 0.47948 0.83536 0.44696 0.0
H570 H 0.15654 0.2633 0.75666 0.0
H571 H 0.15599 0.34674 0.76509 0.0
H572 H 0.11879 0.34261 0.79512 0.0
H573 H 0.08724 0.25233 0.75641 0.0
H574 H 0.08808 0.223 0.77461 0.0
H575 H 0.1151 0.23248 0.75424 0.0
H576 H 0.1462 0.23046 0.79386 0.0
H577 H 0.11928 0.22097 0.81437 0.0
H578 H 0.1396 0.24892 0.82313 0.0
H579 H 0.08118 0.32952 0.82363 0.0
H580 H 0.04606 0.30833 0.84905 0.0
H581 H 0.07071 0.2334 0.82174 0.0
C582 C 0.14853 0.28071 0.76474 0.0
C583 C 0.15932 0.30535 0.75863 0.0
C584 C 0.14839 0.32764 0.76982 0.0
C585 C 0.12713 0.32551 0.78677 0.0
C586 C 0.11698 0.30095 0.79235 0.0
C587 C 0.12731 0.27894 0.78172 0.0
C588 C 0.11266 0.25487 0.79082 0.0
C589 C 0.10002 0.23979 0.76764 0.0
C590 C 0.1305 0.2378 0.80648 0.0
C591 C 0.09242 0.2668 0.80817 0.0
C592 C 0.09526 0.29341 0.80878 0.0
C593 C 0.07878 0.30869 0.82335 0.0
C594 C 0.05888 0.29647 0.83772 0.0
C595 C 0.05561 0.2692 0.83744 0.0
C596 C 0.07268 0.25427 0.82242 0.0
H597 H 0.53874 0.58678 0.48749 0.0
H598 H 0.56812 0.61874 0.56112 0.0
H599 H 0.56526 0.66281 0.54417 0.0
H600 H 0.57045 0.63459 0.44512 0.0
H601 H 0.54302 0.63549 0.42334 0.0
H602 H 0.54917 0.6064 0.44057 0.0
H603 H 0.50269 0.60629 0.45969 0.0
H604 H 0.49643 0.63541 0.44262 0.0
H605 H 0.49225 0.63434 0.4775 0.0
H606 H 0.55803 0.70325 0.51989 0.0
H607 H 0.54573 0.73769 0.49038 0.0
H608 H 0.51953 0.67979 0.43273 0.0
C609 C 0.54494 0.60309 0.49982 0.0
C610 C 0.55379 0.59945 0.52555 0.0
C611 C 0.56126 0.6212 0.54137 0.0
C612 C 0.55978 0.64626 0.53188 0.0
C613 C 0.55064 0.64925 0.50657 0.0
C614 C 0.54328 0.62831 0.49074 0.0
C615 C 0.53286 0.637 0.46479 0.0
C616 C 0.5499 0.62782 0.44212 0.0
C617 C 0.50437 0.62771 0.46094 0.0
C618 C 0.53531 0.66607 0.46862 0.0
C619 C 0.54585 0.67268 0.49276 0.0
C620 C 0.54982 0.69832 0.5009 0.0
C621 C 0.54276 0.71776 0.48397 0.0
C622 C 0.53161 0.7115 0.45923 0.0
C623 C 0.52796 0.68524 0.45151 0.0
H624 H 0.84255 0.76288 0.76216 0.0
H625 H 0.84747 0.8466 0.76208 0.0
H626 H 0.88784 0.8453 0.7363 0.0
H627 H 0.91181 0.75353 0.76794 0.0
H628 H 0.91092 0.72543 0.74662 0.0
H629 H 0.88281 0.73297 0.76572 0.0
H630 H 0.85485 0.73273 0.72363 0.0
H631 H 0.88284 0.72518 0.70442 0.0
H632 H 0.86472 0.75315 0.69708 0.0
H633 H 0.9272 0.83491 0.70986 0.0
H634 H 0.96214 0.81616 0.68365 0.0
H635 H 0.93162 0.73917 0.70108 0.0
C636 C 0.85229 0.78093 0.75697 0.0
C637 C 0.84185 0.80485 0.7641 0.0
C638 C 0.85496 0.82805 0.75657 0.0
C639 C 0.87799 0.82752 0.74209 0.0
C640 C 0.88768 0.80363 0.73529 0.0
C641 C 0.87525 0.78075 0.74244 0.0
C642 C 0.88934 0.75766 0.73198 0.0
C643 C 0.89931 0.74145 0.7544 0.0
C644 C 0.87189 0.74122 0.71316 0.0
C645 C 0.91153 0.77113 0.71767 0.0
C646 C 0.9103 0.79764 0.71994 0.0
C647 C 0.92842 0.81417 0.70801 0.0
C648 C 0.94821 0.80332 0.69316 0.0
C649 C 0.94968 0.77618 0.6903 0.0
C650 C 0.93114 0.75998 0.70295 0.0
H651 H 0.03895 0.92718 0.52581 0.0
H652 H 0.02443 0.89379 0.4485 0.0
H653 H 0.01616 0.85108 0.46783 0.0
H654 H 0.07266 0.87337 0.55106 0.0
H655 H 0.05905 0.87637 0.5833 0.0
H656 H 0.06344 0.90446 0.56344 0.0
H657 H 0.01467 0.91373 0.56847 0.0
H658 H 0.01012 0.88567 0.58833 0.0
H659 H 0.99055 0.88899 0.55951 0.0
H660 H 0.0097 0.81202 0.49536 0.0
H661 H 0.0052 0.77916 0.5293 0.0
H662 H 0.02471 0.83764 0.58879 0.0
C663 C 0.03421 0.91086 0.51291 0.0
C664 C 0.03223 0.9139 0.48561 0.0
C665 C 0.02566 0.89206 0.46949 0.0
C666 C 0.0211 0.86768 0.48026 0.0
C667 C 0.02323 0.86538 0.5072 0.0
C668 C 0.02963 0.88635 0.52333 0.0
C669 C 0.03065 0.87859 0.55166 0.0
C670 C 0.05808 0.88349 0.56303 0.0
C671 C 0.01028 0.89258 0.56795 0.0
C672 C 0.02382 0.84998 0.54892 0.0
C673 C 0.01962 0.84278 0.5231 0.0
C674 C 0.01296 0.81741 0.51565 0.0
C675 C 0.01045 0.79887 0.53511 0.0
C676 C 0.01461 0.80577 0.56174 0.0
C677 C 0.02144 0.83171 0.56862 0.0
H678 H 0.15906 0.73787 0.78333 0.0
H679 H 0.21095 0.71872 0.7199 0.0
H680 H 0.17682 0.72818 0.68797 0.0
H681 H 0.1019 0.70962 0.75473 0.0
H682 H 0.08083 0.73411 0.76665 0.0
H683 H 0.1098 0.72736 0.78451 0.0
H684 H 0.12524 0.77543 0.78225 0.0
H685 H 0.09623 0.78237 0.7645 0.0
H686 H 0.12766 0.79063 0.75098 0.0
H687 H 0.13657 0.73805 0.66305 0.0
H688 H 0.09304 0.74774 0.64677 0.0
H689 H 0.06721 0.76044 0.72646 0.0
C690 C 0.16339 0.73613 0.76271 0.0
C691 C 0.18769 0.72763 0.75407 0.0
C692 C 0.19241 0.72505 0.72693 0.0
C693 C 0.17319 0.73048 0.70867 0.0
C694 C 0.14934 0.73848 0.71784 0.0
C695 C 0.14438 0.74136 0.74421 0.0
C696 C 0.11678 0.74931 0.74891 0.0
C697 C 0.10143 0.72888 0.76463 0.0
C698 C 0.11647 0.77603 0.76246 0.0
C699 C 0.10693 0.75022 0.72108 0.0
C700 C 0.12607 0.74402 0.70346 0.0
C701 C 0.12147 0.74307 0.67666 0.0
C702 C 0.09665 0.74859 0.6676 0.0
C703 C 0.07667 0.7549 0.6853 0.0
C704 C 0.08204 0.75577 0.71239 0.0
H705 H 0.00596 0.58794 0.51863 0.0
H706 H 0.92205 0.59231 0.51669 0.0
H707 H 0.92478 0.62815 0.54906 0.0
H708 H 0.01522 0.60498 0.58783 0.0
H709 H 0.04457 0.624 0.58192 0.0
H710 H 0.03581 0.59687 0.56074 0.0
H711 H 0.03827 0.62662 0.52071 0.0
H712 H 0.047 0.65381 0.54174 0.0
H713 H 0.01925 0.65502 0.52042 0.0
H714 H 0.93683 0.66572 0.57903 0.0
H715 H 0.9573 0.70225 0.60413 0.0
H716 H 0.03342 0.67418 0.58547 0.0
C717 C 0.98811 0.5963 0.52509 0.0
C718 C 0.96376 0.5871 0.51517 0.0
C719 C 0.9409 0.59857 0.52434 0.0
C720 C 0.94226 0.61908 0.54263 0.0
C721 C 0.9666 0.62792 0.55163 0.0
C722 C 0.98912 0.61686 0.54321 0.0
C723 C 0.01293 0.63093 0.55472 0.0
C724 C 0.02802 0.61313 0.57235 0.0
C725 C 0.03038 0.64227 0.53311 0.0
C726 C 1.00031 0.65197 0.57051 0.0
C727 C 0.97357 0.64975 0.56867 0.0
C728 C 0.95774 0.66752 0.5808 0.0
C729 C 0.96957 0.68824 0.59499 0.0
C730 C 0.99698 0.69109 0.59684 0.0
C731 C 0.01243 0.67248 0.58462 0.0
H732 H 0.74674 0.84992 0.19085 0.0
H733 H 0.75368 0.82367 0.27031 0.0
H734 H 0.78814 0.85729 0.27896 0.0
H735 H 0.81581 0.86594 0.1808 0.0
H736 H 0.80949 0.89399 0.16197 0.0
H737 H 0.7865 0.86687 0.16166 0.0
H738 H 0.75017 0.89704 0.17631 0.0
H739 H 0.77304 0.9242 0.1768 0.0
H740 H 0.75454 0.91655 0.20563 0.0
H741 H 0.82037 0.89488 0.27952 0.0
H742 H 0.84822 0.93382 0.27201 0.0
H743 H 0.82025 0.9356 0.19209 0.0
C744 C 0.75586 0.85094 0.20991 0.0
C745 C 0.74761 0.83416 0.22991 0.0
C746 C 0.75962 0.83646 0.25478 0.0
C747 C 0.77927 0.8554 0.25983 0.0
C748 C 0.7867 0.87186 0.2398 0.0
C749 C 0.77543 0.8698 0.21531 0.0
C750 C 0.78622 0.89057 0.19752 0.0
C751 C 0.80035 0.87862 0.1741 0.0
C752 C 0.76471 0.90813 0.18855 0.0
C753 C 0.80511 0.90483 0.21593 0.0
C754 C 0.80518 0.89364 0.24016 0.0
C755 C 0.8206 0.90373 0.26057 0.0
C756 C 0.83632 0.92589 0.25611 0.0
C757 C 0.83646 0.93779 0.23145 0.0
C758 C 0.82068 0.92695 0.21113 0.0
H759 H 0.76387 0.1575 0.3069 0.0
H760 H 0.74186 0.16708 0.22602 0.0
H761 H 0.77156 0.13306 0.21257 0.0
H762 H 0.83172 0.14604 0.29509 0.0
H763 H 0.83355 0.12226 0.32011 0.0
H764 H 0.81093 0.14771 0.32327 0.0
H765 H 0.77313 0.11372 0.3283 0.0
H766 H 0.79561 0.08818 0.32514 0.0
H767 H 0.76804 0.08885 0.30352 0.0
H768 H 0.80359 0.09793 0.20795 0.0
H769 H 0.83472 0.06335 0.21261 0.0
H770 H 0.83553 0.07643 0.29659 0.0
C771 C 0.7655 0.15259 0.28634 0.0
C772 C 0.75056 0.16492 0.26749 0.0
C773 C 0.75293 0.15769 0.24081 0.0
C774 C 0.76985 0.13851 0.23297 0.0
C775 C 0.78422 0.12668 0.25205 0.0
C776 C 0.78218 0.13338 0.27819 0.0
C777 C 0.79934 0.11726 0.29483 0.0
C778 C 0.82012 0.13434 0.30917 0.0
C779 C 0.78305 0.10104 0.31408 0.0
C780 C 0.81132 0.10042 0.27397 0.0
C781 C 0.80244 0.10624 0.24942 0.0
C782 C 0.81069 0.0932 0.22708 0.0
C783 C 0.8284 0.0736 0.22993 0.0
C784 C 0.83757 0.06712 0.25495 0.0
C785 C 0.8289 0.08086 0.27718 0.0
H786 H 0.40065 0.02634 0.96753 0.0
H787 H 0.46537 0.9786 0.94829 0.0
H788 H 0.43785 0.93943 0.95656 0.0
H789 H 0.3744 0.98767 0.01951 0.0
H790 H 0.34109 0.99282 0.01102 0.0
H791 H 0.36598 0.01697 0.00378 0.0
H792 H 0.35219 0.01521 0.9551 0.0
H793 H 0.32728 0.99103 0.96217 0.0
H794 H 0.35124 0.98472 0.93753 0.0
H795 H 0.40332 0.90555 0.96744 0.0
H796 H 0.36411 0.87935 0.97893 0.0
H797 H 0.32172 0.94933 0.99039 0.0
C798 C 0.40909 0.00764 0.96527 0.0
C799 C 0.43518 0.00547 0.95737 0.0
C800 C 0.44538 0.98066 0.95418 0.0
C801 C 0.42994 0.95834 0.95893 0.0
C802 C 0.40428 0.96117 0.96668 0.0
C803 C 0.39389 0.98519 0.96972 0.0
C804 C 0.36564 0.98292 0.97775 0.0
C805 C 0.36155 0.99586 0.00461 0.0
C806 C 0.34805 0.99413 0.95689 0.0
C807 C 0.36178 0.95386 0.97895 0.0
C808 C 0.38432 0.94167 0.97254 0.0
C809 C 0.38555 0.91489 0.97243 0.0
C810 C 0.36316 0.90017 0.97901 0.0
C811 C 0.33979 0.91224 0.98554 0.0
C812 C 0.33922 0.93948 0.98545 0.0
H813 H 0.24102 0.34424 0.32944 0.0
H814 H 0.26237 0.33677 0.24773 0.0
H815 H 0.23746 0.37483 0.23782 0.0
H816 H 0.17537 0.36204 0.31749 0.0
H817 H 0.17456 0.38444 0.34481 0.0
H818 H 0.19511 0.35721 0.34592 0.0
H819 H 0.23497 0.38805 0.35529 0.0
H820 H 0.21455 0.41539 0.35414 0.0
H821 H 0.24255 0.41391 0.33323 0.0
H822 H 0.21004 0.41311 0.23631 0.0
H823 H 0.18046 0.44869 0.24303 0.0
H824 H 0.17508 0.43093 0.32539 0.0
C825 C 0.24039 0.35052 0.30944 0.0
C826 C 0.25403 0.33758 0.28945 0.0
C827 C 0.25271 0.34662 0.26356 0.0
C828 C 0.23843 0.36816 0.25766 0.0
C829 C 0.22536 0.38045 0.27779 0.0
C830 C 0.22605 0.37195 0.30314 0.0
C831 C 0.20963 0.38838 0.32094 0.0
C832 C 0.18734 0.37204 0.33299 0.0
C833 C 0.22643 0.40225 0.34215 0.0
C834 C 0.19953 0.40731 0.30155 0.0
C835 C 0.209 0.40242 0.27682 0.0
C836 C 0.20247 0.41715 0.25558 0.0
C837 C 0.18563 0.43736 0.25963 0.0
C838 C 0.17535 0.44266 0.28474 0.0
C839 C 0.18257 0.42742 0.30597 0.0
H840 H 0.06685 0.03269 0.4754 0.0
H841 H 0.11209 0.96467 0.48507 0.0
H842 H 0.15015 0.9925 0.49773 0.0
H843 H 0.11721 0.07073 0.44587 0.0
H844 H 0.10817 0.10056 0.46133 0.0
H845 H 0.08392 0.07525 0.455 0.0
H846 H 0.07136 0.07561 0.50395 0.0
H847 H 0.09559 0.10094 0.51044 0.0
H848 H 0.09604 0.07137 0.52828 0.0
H849 H 0.1838 0.02772 0.50752 0.0
H850 H 0.21082 0.06778 0.51317 0.0
H851 H 0.14405 0.11287 0.49551 0.0
C852 C 0.08475 0.02359 0.48015 0.0
C853 C 0.08636 0.99642 0.47936 0.0
C854 C 0.11015 0.98537 0.486 0.0
C855 C 0.13195 1.00103 0.49306 0.0
C856 C 0.12971 0.02771 0.49336 0.0
C857 C 0.10673 0.03891 0.48706 0.0
C858 C 0.10973 0.06809 0.48789 0.0
C859 C 0.10445 0.07931 0.46092 0.0
C860 C 0.09213 0.07968 0.50889 0.0
C861 C 0.1381 0.07155 0.49536 0.0
C862 C 0.14921 0.04802 0.49861 0.0
C863 C 0.1753 0.04626 0.50514 0.0
C864 C 0.19048 0.06915 0.5083 0.0
C865 C 0.17957 0.09351 0.5048 0.0
C866 C 0.15298 0.0946 0.49837 0.0
H867 H 0.74859 0.17035 0.72944 0.0
H868 H 0.77311 0.16166 0.64889 0.0
H869 H 0.74745 0.12048 0.64508 0.0
H870 H 0.75089 0.10383 0.74586 0.0
H871 H 0.72246 0.10402 0.76627 0.0
H872 H 0.74218 0.13317 0.76252 0.0
H873 H 0.70191 0.15703 0.74703 0.0
H874 H 0.68204 0.12799 0.75085 0.0
H875 H 0.68298 0.14391 0.71991 0.0
H876 H 0.72072 0.07949 0.65055 0.0
H877 H 0.69249 0.04265 0.66399 0.0
H878 H 0.68468 0.07816 0.74091 0.0
C879 C 0.74851 0.15978 0.711 0.0
C880 C 0.7628 0.16922 0.68942 0.0
C881 C 0.76205 0.15495 0.66555 0.0
C882 C 0.74769 0.13147 0.66326 0.0
C883 C 0.73405 0.12259 0.68497 0.0
C884 C 0.73414 0.13639 0.70832 0.0
C885 C 0.71773 0.12257 0.72864 0.0
C886 C 0.73431 0.11547 0.75221 0.0
C887 C 0.6948 0.13885 0.7371 0.0
C888 C 0.70855 0.09874 0.71311 0.0
C889 C 0.71829 0.09911 0.68801 0.0
C890 C 0.71287 0.07905 0.67011 0.0
C891 C 0.69687 0.05815 0.67799 0.0
C892 C 0.68632 0.0575 0.7035 0.0
C893 C 0.69237 0.0781 0.72126 0.0
H894 H 0.40394 0.01408 0.49531 0.0
H895 H 0.41495 0.02254 0.57916 0.0
H896 H 0.38046 0.05404 0.58106 0.0
H897 H 0.39109 0.07953 0.48268 0.0
H898 H 0.36632 0.07203 0.45853 0.0
H899 H 0.39193 0.05003 0.46353 0.0
H900 H 0.35795 0.01302 0.47214 0.0
H901 H 0.33222 0.03483 0.46687 0.0
H902 H 0.3336 0.01738 0.49687 0.0
H903 H 0.34591 0.08572 0.57378 0.0
H904 H 0.31087 0.11269 0.55836 0.0
H905 H 0.32072 0.08211 0.47963 0.0
C906 C 0.39886 0.02222 0.51415 0.0
C907 C 0.41242 0.01596 0.53705 0.0
C908 C 0.40528 0.02738 0.56124 0.0
C909 C 0.38561 0.04522 0.56257 0.0
C910 C 0.37302 0.0513 0.53958 0.0
C911 C 0.3791 0.03992 0.51588 0.0
C912 C 0.3623 0.04961 0.49415 0.0
C913 C 0.37891 0.06363 0.47351 0.0
C914 C 0.34552 0.02739 0.48179 0.0
C915 C 0.3459 0.06826 0.50936 0.0
C916 C 0.35255 0.06908 0.5355 0.0
C917 C 0.3404 0.08515 0.55338 0.0
C918 C 0.3206 0.10048 0.5444 0.0
C919 C 0.31299 0.09949 0.5178 0.0
C920 C 0.32602 0.08326 0.50009 0.0
H921 H 0.60235 0.49667 0.5573 0.0
H922 H 0.56846 0.51508 0.48273 0.0
H923 H 0.59602 0.48341 0.46073 0.0
H924 H 0.66636 0.49066 0.53466 0.0
H925 H 0.67375 0.46421 0.55532 0.0
H926 H 0.65001 0.48682 0.56549 0.0
H927 H 0.61584 0.44929 0.5708 0.0
H928 H 0.63953 0.42652 0.56072 0.0
H929 H 0.60896 0.42736 0.54369 0.0
H930 H 0.62886 0.45163 0.44657 0.0
H931 H 0.66487 0.42216 0.44105 0.0
H932 H 0.67752 0.42408 0.52488 0.0
C933 C 0.60034 0.49364 0.53641 0.0
C934 C 0.58316 0.50829 0.52173 0.0
C935 C 0.58158 0.5042 0.49434 0.0
C936 C 0.59705 0.48616 0.4817 0.0
C937 C 0.61402 0.47231 0.49671 0.0
C938 C 0.61573 0.47577 0.52347 0.0
C939 C 0.63647 0.45934 0.53485 0.0
C940 C 0.65791 0.47627 0.54837 0.0
C941 C 0.62448 0.43944 0.55363 0.0
C942 C 0.64642 0.44636 0.51026 0.0
C943 C 0.63307 0.45401 0.48851 0.0
C944 C 0.63931 0.44536 0.46348 0.0
C945 C 0.65986 0.42863 0.46055 0.0
C946 C 0.67403 0.42069 0.48251 0.0
C947 C 0.66696 0.42956 0.50771 0.0
H948 H 0.69673 0.24509 0.3419 0.0
H949 H 0.77023 0.25126 0.30087 0.0
H950 H 0.78618 0.28439 0.33285 0.0
H951 H 0.69346 0.31361 0.3594 0.0
H952 H 0.67948 0.3075 0.391 0.0
H953 H 0.67336 0.28487 0.36434 0.0
H954 H 0.69078 0.24819 0.3922 0.0
H955 H 0.69705 0.2707 0.41889 0.0
H956 H 0.72288 0.25175 0.40615 0.0
H957 H 0.79483 0.31548 0.36966 0.0
H958 H 0.79575 0.34334 0.40907 0.0
H959 H 0.71652 0.31787 0.42674 0.0
C960 C 0.71604 0.25369 0.33947 0.0
C961 C 0.73229 0.24551 0.31891 0.0
C962 C 0.75757 0.25697 0.31662 0.0
C963 C 0.76675 0.2759 0.3346 0.0
C964 C 0.75041 0.28327 0.35479 0.0
C965 C 0.72557 0.27264 0.35733 0.0
C966 C 0.71231 0.28363 0.38129 0.0
C967 C 0.68822 0.29828 0.37354 0.0
C968 C 0.70535 0.26229 0.40078 0.0
C969 C 0.73369 0.30194 0.39189 0.0
C970 C 0.75543 0.30141 0.37619 0.0
C971 C 0.77789 0.31617 0.38205 0.0
C972 C 0.7782 0.33192 0.40456 0.0
C973 C 0.75621 0.33287 0.42106 0.0
C974 C 0.73361 0.31767 0.41451 0.0
H975 H 0.51204 0.01671 0.90044 0.0
H976 H 0.48575 0.09458 0.89196 0.0
H977 H 0.51242 0.0995 0.85238 0.0
H978 H 0.57732 0.02938 0.87961 0.0
H979 H 0.57989 0.99911 0.86209 0.0
H980 H 0.55837 0.00134 0.88962 0.0
H981 H 0.51983 0.98414 0.86084 0.0
H982 H 0.54126 0.98172 0.83324 0.0
H983 H 0.51255 1.00028 0.83104 0.0
H984 H 0.54258 0.0966 0.81453 0.0
H985 H 0.57341 0.08558 0.77976 0.0
H986 H 0.57973 0.00918 0.8118 0.0
C987 C 0.51167 0.03468 0.89009 0.0
C988 C 0.49693 0.05534 0.89947 0.0
C989 C 0.49721 0.07864 0.88545 0.0
C990 C 0.51219 0.08158 0.86285 0.0
C991 C 0.52673 0.06101 0.85436 0.0
C992 C 0.52653 0.03796 0.86741 0.0
C993 C 0.54413 0.01899 0.85413 0.0
C994 C 0.56624 0.01179 0.87246 0.0
C995 C 0.5285 0.99486 0.84422 0.0
C996 C 0.5543 0.03506 0.83166 0.0
C997 C 0.54401 0.05924 0.83223 0.0
C998 C 0.5507 0.07769 0.81379 0.0
C999 C 0.5683 0.07124 0.79414 0.0
C1000 C 0.57901 0.04651 0.79297 0.0
C1001 C 0.57185 0.02823 0.81208 0.0
H1002 H 0.2686 0.27627 0.36945 0.0
H1003 H 0.25728 0.22429 0.30281 0.0
H1004 H 0.24529 0.18859 0.33234 0.0
H1005 H 0.29907 0.23192 0.409 0.0
H1006 H 0.28482 0.24256 0.43924 0.0
H1007 H 0.28937 0.26477 0.41296 0.0
H1008 H 0.24043 0.27427 0.41391 0.0
H1009 H 0.23575 0.25222 0.44039 0.0
H1010 H 0.21665 0.2479 0.41101 0.0
H1011 H 0.23731 0.15817 0.36892 0.0
H1012 H 0.23435 0.1346 0.41018 0.0
H1013 H 0.25252 0.20592 0.45349 0.0
C1014 C 0.26293 0.25749 0.3612 0.0
C1015 C 0.2634 0.25292 0.33397 0.0
C1016 C 0.25669 0.22804 0.32367 0.0
C1017 C 0.24988 0.20773 0.34026 0.0
C1018 C 0.25008 0.21265 0.3671 0.0
C1019 C 0.25641 0.2369 0.37755 0.0
C1020 C 0.25699 0.2365 0.40712 0.0
C1021 C 0.28418 0.2444 0.41769 0.0
C1022 C 0.23621 0.25375 0.41879 0.0
C1023 C 0.25039 0.2082 0.41162 0.0
C1024 C 0.24621 0.19487 0.38827 0.0
C1025 C 0.24038 0.16842 0.38734 0.0
C1026 C 0.23878 0.15519 0.41091 0.0
C1027 C 0.24323 0.16837 0.43509 0.0
C1028 C 0.24903 0.19527 0.43534 0.0
H1029 H 0.51155 0.44664 0.92683 0.0
H1030 H 0.50909 0.52528 0.95695 0.0
H1031 H 0.48041 0.53622 0.92052 0.0
H1032 H 0.51359 0.46292 0.85905 0.0
H1033 H 0.49348 0.43546 0.84837 0.0
H1034 H 0.51319 0.43354 0.87727 0.0
H1035 H 0.47237 0.42038 0.90406 0.0
H1036 H 0.45251 0.42231 0.87524 0.0
H1037 H 0.44487 0.44078 0.90419 0.0
H1038 H 0.45204 0.53871 0.8812 0.0
H1039 H 0.42738 0.53329 0.8401 0.0
H1040 H 0.4488 0.45322 0.83448 0.0
C1041 C 0.50482 0.4661 0.92578 0.0
C1042 C 0.51257 0.48516 0.94465 0.0
C1043 C 0.50361 0.51049 0.94253 0.0
C1044 C 0.4872 0.51684 0.92202 0.0
C1045 C 0.47998 0.49767 0.9037 0.0
C1046 C 0.48858 0.47285 0.90525 0.0
C1047 C 0.4785 0.45614 0.88249 0.0
C1048 C 0.50103 0.44645 0.86581 0.0
C1049 C 0.46102 0.43357 0.89207 0.0
C1050 C 0.46295 0.47548 0.86791 0.0
C1051 C 0.46393 0.49924 0.88063 0.0
C1052 C 0.45114 0.5202 0.87103 0.0
C1053 C 0.43713 0.51689 0.84766 0.0
C1054 C 0.43615 0.49284 0.83398 0.0
C1055 C 0.44917 0.47185 0.84442 0.0
H1056 H 0.74178 0.75568 0.17371 0.0
H1057 H 0.66096 0.77452 0.16556 0.0
H1058 H 0.65812 0.74902 0.12436 0.0
H1059 H 0.75809 0.75915 0.10559 0.0
H1060 H 0.77935 0.73243 0.1063 0.0
H1061 H 0.77495 0.752 0.13527 0.0
H1062 H 0.76103 0.71116 0.16086 0.0
H1063 H 0.76536 0.69146 0.13197 0.0
H1064 H 0.73463 0.69041 0.1487 0.0
H1065 H 0.66426 0.72222 0.08374 0.0
H1066 H 0.67861 0.69502 0.04689 0.0
H1067 H 0.75543 0.69328 0.08156 0.0
C1068 C 0.72353 0.75454 0.16317 0.0
C1069 C 0.70156 0.76704 0.17286 0.0
C1070 C 0.67794 0.76484 0.15866 0.0
C1071 C 0.67618 0.75052 0.13518 0.0
C1072 C 0.69819 0.73845 0.12619 0.0
C1073 C 0.7214 0.74022 0.13976 0.0
C1074 C 0.74211 0.72525 0.12589 0.0
C1075 C 0.76497 0.74329 0.11778 0.0
C1076 C 0.75131 0.70326 0.14287 0.0
C1077 C 0.72693 0.71486 0.10234 0.0
C1078 C 0.70166 0.72276 0.10288 0.0
C1079 C 0.68398 0.71585 0.08312 0.0
C1080 C 0.69234 0.70042 0.06225 0.0
C1081 C 0.71813 0.69197 0.06132 0.0
C1082 C 0.73558 0.69933 0.08172 0.0
H1083 H 0.02888 0.06715 0.09641 0.0
H1084 H 0.01918 0.99163 0.0588 0.0
H1085 H 0.98911 0.9778 0.09381 0.0
H1086 H 0.02639 0.04539 0.16313 0.0
H1087 H 0.00858 0.07256 0.17461 0.0
H1088 H 0.03021 0.076 0.14723 0.0
H1089 H 0.99255 0.09217 0.11914 0.0
H1090 H 0.97079 0.08874 0.14639 0.0
H1091 H 0.96302 0.07256 0.11574 0.0
H1092 H 0.95853 0.97292 0.132 0.0
H1093 H 0.93067 0.977 0.17092 0.0
H1094 H 0.96021 0.05592 0.18314 0.0
C1095 C 0.02043 0.0477 0.0955 0.0
C1096 C 0.02642 0.03046 0.07484 0.0
C1097 C 0.01516 0.00507 0.07459 0.0
C1098 C 0.99795 0.99709 0.09431 0.0
C1099 C 0.99224 0.01469 0.11419 0.0
C1100 C 0.00324 0.03943 0.11498 0.0
C1101 C 0.99358 0.05477 0.13821 0.0
C1102 C 0.01603 0.06263 0.1569 0.0
C1103 C 0.97912 0.07845 0.12933 0.0
C1104 C 0.9752 0.03488 0.15024 0.0
C1105 C 0.97473 0.01187 0.13614 0.0
C1106 C 0.95884 0.99081 0.14326 0.0
C1107 C 0.94305 0.99334 0.16538 0.0
C1108 C 0.94326 0.01676 0.18014 0.0
C1109 C 0.95964 0.03772 0.17237 0.0
H1110 H 0.28029 0.73326 0.14829 0.0
H1111 H 0.29546 0.79274 0.20779 0.0
H1112 H 0.29211 0.82622 0.17448 0.0
H1113 H 0.3158 0.76438 0.09658 0.0
H1114 H 0.29282 0.75389 0.07162 0.0
H1115 H 0.29683 0.7347 0.10013 0.0
H1116 H 0.24758 0.73642 0.10966 0.0
H1117 H 0.24341 0.75562 0.08119 0.0
H1118 H 0.23287 0.76728 0.11263 0.0
H1119 H 0.2862 0.85334 0.13452 0.0
H1120 H 0.27897 0.87175 0.0911 0.0
H1121 H 0.26737 0.79438 0.05807 0.0
C1122 C 0.28277 0.75333 0.15437 0.0
C1123 C 0.2882 0.76034 0.18069 0.0
C1124 C 0.29165 0.78684 0.18771 0.0
C1125 C 0.28962 0.80602 0.16895 0.0
C1126 C 0.28416 0.79842 0.14322 0.0
C1127 C 0.28084 0.77269 0.13592 0.0
C1128 C 0.27507 0.76961 0.10701 0.0
C1129 C 0.29641 0.75477 0.09302 0.0
C1130 C 0.24813 0.75646 0.10236 0.0
C1131 C 0.27558 0.79761 0.09917 0.0
C1132 C 0.28083 0.81396 0.12031 0.0
C1133 C 0.28212 0.84071 0.11783 0.0
C1134 C 0.27796 0.85099 0.09308 0.0
C1135 C 0.27262 0.83456 0.07113 0.0
C1136 C 0.27145 0.80752 0.07439 0.0
H1137 H 1.00022 0.508 0.09394 0.0
H1138 H 0.97947 0.42768 0.10883 0.0
H1139 H 0.00831 0.42925 0.14731 0.0
H1140 H 0.06736 0.50618 0.1134 0.0
H1141 H 0.06812 0.53792 0.12845 0.0
H1142 H 0.0463 0.53033 0.10164 0.0
H1143 H 0.00743 0.54404 0.12999 0.0
H1144 H 0.02912 0.55164 0.1569 0.0
H1145 H 0.00189 0.52922 0.16111 0.0
H1146 H 0.03867 0.43962 0.18456 0.0
H1147 H 0.06906 0.45799 0.21788 0.0
H1148 H 0.06956 0.53184 0.17935 0.0
C1149 C 1.00167 0.49076 0.10534 0.0
C1150 C 0.98768 0.46766 0.09824 0.0
C1151 C 0.99033 0.44547 0.11358 0.0
C1152 C 0.00652 0.44621 0.13559 0.0
C1153 C 0.01993 0.46929 0.14208 0.0
C1154 C 0.01773 0.49116 0.12742 0.0
C1155 C 0.03415 0.51356 0.13879 0.0
C1156 C 0.05523 0.52252 0.11941 0.0
C1157 C 0.01713 0.53593 0.1472 0.0
C1158 C 0.04584 0.50086 0.16217 0.0
C1159 C 0.03738 0.47532 0.16368 0.0
C1160 C 0.04546 0.45959 0.18358 0.0
C1161 C 0.06272 0.47023 0.20243 0.0
C1162 C 0.07172 0.49636 0.20127 0.0
C1163 C 0.06305 0.51181 0.18084 0.0
H1164 H 0.36218 0.73831 0.23534 0.0
H1165 H 0.30393 0.71411 0.29186 0.0
H1166 H 0.33717 0.71631 0.32654 0.0
H1167 H 0.41495 0.70419 0.26189 0.0
H1168 H 0.43903 0.7295 0.2558 0.0
H1169 H 0.41076 0.72573 0.23516 0.0
H1170 H 0.39963 0.77323 0.2449 0.0
H1171 H 0.42796 0.77721 0.26543 0.0
H1172 H 0.39645 0.78424 0.27829 0.0
H1173 H 0.37664 0.72082 0.35511 0.0
H1174 H 0.41936 0.72931 0.37604 0.0
H1175 H 0.4518 0.75187 0.30135 0.0
C1176 C 0.35635 0.7337 0.25505 0.0
C1177 C 0.33043 0.72579 0.26077 0.0
C1178 C 0.32372 0.71971 0.28682 0.0
C1179 C 0.34244 0.72103 0.30672 0.0
C1180 C 0.36781 0.72862 0.30035 0.0
C1181 C 0.37478 0.73503 0.27521 0.0
C1182 C 0.40335 0.74294 0.2737 0.0
C1183 C 0.41787 0.72449 0.25556 0.0
C1184 C 0.40706 0.77108 0.26507 0.0
C1185 C 0.41132 0.74001 0.30194 0.0
C1186 C 0.39054 0.73161 0.31694 0.0
C1187 C 0.39307 0.72745 0.34358 0.0
C1188 C 0.41744 0.73227 0.35528 0.0
C1189 C 0.43897 0.74127 0.34038 0.0
C1190 C 0.43577 0.74501 0.31331 0.0
H1191 H 0.95594 0.43818 0.98509 0.0
H1192 H 0.94226 0.39397 0.05495 0.0
H1193 H 0.94395 0.35343 0.02894 0.0
H1194 H 0.91969 0.39373 0.9391 0.0
H1195 H 0.94307 0.39855 0.91337 0.0
H1196 H 0.93774 0.4241 0.93688 0.0
H1197 H 0.98683 0.42648 0.94802 0.0
H1198 H 0.99228 0.40086 0.9247 0.0
H1199 H 0.00228 0.39776 0.95818 0.0
H1200 H 0.95046 0.31803 0.99647 0.0
H1201 H 0.96166 0.28958 0.95948 0.0
H1202 H 0.9722 0.35641 0.91029 0.0
C1203 C 0.95268 0.41992 0.99468 0.0
C1204 C 0.94873 0.41903 0.02191 0.0
C1205 C 0.9452 0.3949 0.03406 0.0
C1206 C 0.94607 0.37184 0.01946 0.0
C1207 C 0.95057 0.37327 0.99273 0.0
C1208 C 0.95378 0.39664 0.98038 0.0
C1209 C 0.96029 0.39265 0.95176 0.0
C1210 C 0.93892 0.40286 0.93425 0.0
C1211 C 0.98701 0.40518 0.9453 0.0
C1212 C 0.96071 0.36344 0.95013 0.0
C1213 C 0.95478 0.35269 0.97394 0.0
C1214 C 0.95489 0.32618 0.97765 0.0
C1215 C 0.96135 0.31018 0.95649 0.0
C1216 C 0.96777 0.32071 0.93192 0.0
C1217 C 0.96721 0.34772 0.92874 0.0
H1218 H 0.65794 0.75223 0.25714 0.0
H1219 H 0.66129 0.83586 0.26411 0.0
H1220 H 0.62556 0.83386 0.29604 0.0
H1221 H 0.58813 0.7441 0.26117 0.0
H1222 H 0.58897 0.7151 0.27989 0.0
H1223 H 0.61495 0.72306 0.25764 0.0
H1224 H 0.64831 0.7205 0.29528 0.0
H1225 H 0.62245 0.71258 0.31766 0.0
H1226 H 0.64436 0.73984 0.32452 0.0
H1227 H 0.58955 0.82297 0.32695 0.0
H1228 H 0.55553 0.80392 0.35516 0.0
H1229 H 0.57511 0.72723 0.32806 0.0
C1230 C 0.65103 0.77012 0.26525 0.0
C1231 C 0.66251 0.79421 0.25822 0.0
C1232 C 0.65308 0.81717 0.26949 0.0
C1233 C 0.63269 0.81625 0.28753 0.0
C1234 C 0.62189 0.79222 0.29409 0.0
C1235 C 0.63069 0.76956 0.28333 0.0
C1236 C 0.61572 0.74627 0.29386 0.0
C1237 C 0.60107 0.73125 0.27182 0.0
C1238 C 0.63379 0.72877 0.30871 0.0
C1239 C 0.59714 0.75941 0.31222 0.0
C1240 C 0.60105 0.78591 0.31201 0.0
C1241 C 0.58629 0.80224 0.3273 0.0
C1242 C 0.567 0.7912 0.34327 0.0
C1243 C 0.56262 0.76405 0.34388 0.0
C1244 C 0.57796 0.74802 0.32809 0.0
H1245 H 0.04397 0.08513 0.97181 0.0
H1246 H 0.06168 0.11765 0.04867 0.0
H1247 H 0.0554 0.16151 0.03225 0.0
H1248 H 0.07367 0.13723 0.93374 0.0
H1249 H 0.04842 0.13576 0.90932 0.0
H1250 H 0.05615 0.10712 0.92658 0.0
H1251 H 0.00815 0.10123 0.94093 0.0
H1252 H 1.00029 0.12984 0.92377 0.0
H1253 H 0.99289 0.12728 0.958 0.0
H1254 H 0.04685 0.20143 0.00784 0.0
H1255 H 0.03384 0.23509 0.97781 0.0
H1256 H 0.01908 0.17678 0.91699 0.0
C1257 C 0.04683 0.10159 0.98499 0.0
C1258 C 0.05353 0.09823 0.01141 0.0
C1259 C 0.05662 0.12 0.02835 0.0
C1260 C 0.05317 0.14491 0.01918 0.0
C1261 C 0.04635 0.14763 0.99309 0.0
C1262 C 0.04301 0.12659 0.97624 0.0
C1263 C 0.03416 0.13482 0.94952 0.0
C1264 C 0.05431 0.12835 0.92855 0.0
C1265 C 0.00727 0.12256 0.94266 0.0
C1266 C 0.03294 0.16373 0.95403 0.0
C1267 C 0.04038 0.17068 0.97921 0.0
C1268 C 0.04096 0.19624 0.98808 0.0
C1269 C 0.03357 0.21524 0.97082 0.0
C1270 C 0.02537 0.20859 0.94506 0.0
C1271 C 0.02515 0.18245 0.93659 0.0
H1272 H 0.31733 0.2982 0.2339 0.0
H1273 H 0.35063 0.26708 0.30391 0.0
H1274 H 0.39027 0.25722 0.27943 0.0
H1275 H 0.34257 0.25276 0.18866 0.0
H1276 H 0.34915 0.27591 0.16351 0.0
H1277 H 0.32341 0.28096 0.18653 0.0
H1278 H 0.34408 0.3258 0.19937 0.0
H1279 H 0.3698 0.32097 0.17625 0.0
H1280 H 0.37746 0.32831 0.20999 0.0
H1281 H 0.42566 0.24956 0.2473 0.0
H1282 H 0.45551 0.24632 0.20999 0.0
H1283 H 0.39998 0.28363 0.16097 0.0
C1284 C 0.33309 0.28965 0.2442 0.0
C1285 C 0.33076 0.28328 0.27083 0.0
C1286 C 0.35175 0.27176 0.28343 0.0
C1287 C 0.37441 0.2662 0.26974 0.0
C1288 C 0.37591 0.27242 0.24346 0.0
C1289 C 0.35593 0.28406 0.23084 0.0
C1290 C 0.36251 0.28865 0.20245 0.0
C1291 C 0.34327 0.27367 0.18422 0.0
C1292 C 0.36353 0.31766 0.19669 0.0
C1293 C 0.38927 0.27764 0.20108 0.0
C1294 C 0.39656 0.26833 0.22495 0.0
C1295 C 0.42024 0.25689 0.22852 0.0
C1296 C 0.43703 0.25509 0.20716 0.0
C1297 C 0.43014 0.26476 0.18252 0.0
C1298 C 0.40587 0.27612 0.17953 0.0
H1299 H 0.52731 0.40131 0.99213 0.0
H1300 H 0.5342 0.45613 0.0571 0.0
H1301 H 0.52506 0.42102 0.08791 0.0
H1302 H 0.47491 0.36052 0.0199 0.0
H1303 H 0.48783 0.33102 0.00723 0.0
H1304 H 0.49343 0.36072 0.9901 0.0
H1305 H 0.54301 0.35453 0.992 0.0
H1306 H 0.53757 0.32492 0.00926 0.0
H1307 H 0.55843 0.35036 0.02315 0.0
H1308 H 0.51722 0.38007 0.11182 0.0
H1309 H 0.51052 0.33561 0.12739 0.0
H1310 H 0.50873 0.30696 0.04713 0.0
C1311 C 0.52648 0.4059 0.01282 0.0
C1312 C 0.53156 0.43138 0.02227 0.0
C1313 C 0.53064 0.43666 0.0495 0.0
C1314 C 0.52536 0.4169 0.06713 0.0
C1315 C 0.52095 0.39191 0.05728 0.0
C1316 C 0.52134 0.3863 0.03078 0.0
C1317 C 0.51687 0.3576 0.02551 0.0
C1318 C 0.49176 0.35215 0.00976 0.0
C1319 C 0.54037 0.34619 0.01167 0.0
C1320 C 0.51418 0.348 0.05317 0.0
C1321 C 0.51649 0.36815 0.07116 0.0
C1322 C 0.51523 0.36411 0.09793 0.0
C1323 C 0.51147 0.33877 0.10659 0.0
C1324 C 0.50908 0.31776 0.08852 0.0
C1325 C 0.51041 0.32257 0.06146 0.0
H1326 H 0.66836 0.24091 0.24152 0.0
H1327 H 0.65335 0.1659 0.27538 0.0
H1328 H 0.61006 0.16297 0.25432 0.0
H1329 H 0.6025 0.26349 0.24581 0.0
H1330 H 0.6041 0.27922 0.21479 0.0
H1331 H 0.63321 0.27605 0.23376 0.0
H1332 H 0.65471 0.25323 0.1944 0.0
H1333 H 0.62561 0.25617 0.17537 0.0
H1334 H 0.63883 0.2249 0.17973 0.0
H1335 H 0.56873 0.16815 0.2298 0.0
H1336 H 0.53219 0.18035 0.2021 0.0
H1337 H 0.57478 0.25098 0.18177 0.0
C1338 C 0.65572 0.22409 0.24471 0.0
C1339 C 0.66388 0.20371 0.26021 0.0
C1340 C 0.64723 0.1817 0.26362 0.0
C1341 C 0.62269 0.17989 0.25177 0.0
C1342 C 0.61527 0.20015 0.23633 0.0
C1343 C 0.63129 0.22179 0.23264 0.0
C1344 C 0.61899 0.24027 0.21417 0.0
C1345 C 0.61443 0.26629 0.22796 0.0
C1346 C 0.63552 0.24384 0.18945 0.0
C1347 C 0.59357 0.22565 0.20809 0.0
C1348 C 0.59177 0.20266 0.22128 0.0
C1349 C 0.56993 0.18605 0.2193 0.0
C1350 C 0.54928 0.19316 0.20353 0.0
C1351 C 0.55071 0.21652 0.18967 0.0
C1352 C 0.57326 0.23286 0.19189 0.0
H1353 H 0.47262 0.0734 0.01807 0.0
H1354 H 0.46082 0.12321 0.95247 0.0
H1355 H 0.46313 0.16132 0.9822 0.0
H1356 H 0.43545 0.11018 0.06586 0.0
H1357 H 0.45767 0.10462 0.09216 0.0
H1358 H 0.4535 0.08112 0.06595 0.0
H1359 H 0.50302 0.08384 0.05728 0.0
H1360 H 0.50733 0.10739 0.08338 0.0
H1361 H 0.51881 0.11475 0.05107 0.0
H1362 H 0.4685 0.19404 0.01855 0.0
H1363 H 0.47694 0.2194 0.0591 0.0
H1364 H 0.48559 0.14847 0.10133 0.0
C1365 C 0.4701 0.09231 0.01007 0.0
C1366 C 0.46651 0.0954 0.98298 0.0
C1367 C 0.46377 0.12047 0.97314 0.0
C1368 C 0.46493 0.14219 0.98988 0.0
C1369 C 0.46885 0.13854 0.01643 0.0
C1370 C 0.47137 0.11425 0.02651 0.0
C1371 C 0.47656 0.11581 0.05564 0.0
C1372 C 0.45447 0.10212 0.07079 0.0
C1373 C 0.503 0.1048 0.06222 0.0
C1374 C 0.47682 0.14478 0.06028 0.0
C1375 C 0.47217 0.15749 0.03742 0.0
C1376 C 0.47202 0.18431 0.03661 0.0
C1377 C 0.47687 0.19855 0.05978 0.0
C1378 C 0.48191 0.18597 0.08345 0.0
C1379 C 0.48171 0.15869 0.08361 0.0
H1380 H 0.27542 0.33089 0.72228 0.0
H1381 H 0.21116 0.37974 0.7403 0.0
H1382 H 0.24183 0.41684 0.74753 0.0
H1383 H 0.31946 0.35925 0.7704 0.0
H1384 H 0.34791 0.35706 0.75021 0.0
H1385 H 0.32099 0.33417 0.74564 0.0
H1386 H 0.31822 0.34608 0.6969 0.0
H1387 H 0.34515 0.369 0.70131 0.0
H1388 H 0.31485 0.37932 0.68832 0.0
H1389 H 0.27853 0.44842 0.75294 0.0
H1390 H 0.31986 0.47321 0.75742 0.0
H1391 H 0.36168 0.40463 0.73676 0.0
C1392 C 0.2679 0.34946 0.7276 0.0
C1393 C 0.24092 0.35242 0.73093 0.0
C1394 C 0.23176 0.37696 0.73804 0.0
C1395 C 0.249 0.39818 0.74204 0.0
C1396 C 0.27542 0.39462 0.73887 0.0
C1397 C 0.28494 0.37095 0.73189 0.0
C1398 C 0.3144 0.37254 0.73042 0.0
C1399 C 0.32639 0.3547 0.75036 0.0
C1400 C 0.3237 0.36637 0.70258 0.0
C1401 C 0.31982 0.40077 0.73774 0.0
C1402 C 0.29695 0.41305 0.74237 0.0
C1403 C 0.29661 0.43905 0.74941 0.0
C1404 C 0.32029 0.45297 0.75193 0.0
C1405 C 0.34417 0.44092 0.74756 0.0
C1406 C 0.34383 0.41442 0.74028 0.0
H1407 H 0.29074 0.67936 0.78753 0.0
H1408 H 0.21392 0.64252 0.78115 0.0
H1409 H 0.23343 0.59987 0.77708 0.0
H1410 H 0.32122 0.63703 0.7401 0.0
H1411 H 0.35152 0.63681 0.75769 0.0
H1412 H 0.33158 0.66448 0.76021 0.0
H1413 H 0.33098 0.66074 0.81054 0.0
H1414 H 0.3509 0.63305 0.80818 0.0
H1415 H 0.32017 0.63072 0.82486 0.0
H1416 H 0.26083 0.5614 0.77637 0.0
H1417 H 0.29471 0.52916 0.7756 0.0
H1418 H 0.35433 0.59063 0.77932 0.0
C1419 C 0.27813 0.66225 0.78523 0.0
C1420 C 0.25086 0.66408 0.78467 0.0
C1421 C 0.23486 0.64142 0.78146 0.0
C1422 C 0.24575 0.61717 0.77922 0.0
C1423 C 0.27269 0.61597 0.77988 0.0
C1424 C 0.28872 0.63787 0.78249 0.0
C1425 C 0.31709 0.63111 0.78217 0.0
C1426 C 0.33118 0.64307 0.75864 0.0
C1427 C 0.33057 0.6394 0.80798 0.0
C1428 C 0.31445 0.60196 0.77932 0.0
C1429 C 0.28863 0.59369 0.77826 0.0
C1430 C 0.28112 0.56762 0.77688 0.0
C1431 C 0.3005 0.54947 0.77656 0.0
C1432 C 0.32709 0.55744 0.77722 0.0
C1433 C 0.33414 0.58405 0.77842 0.0
H1434 H 0.91579 0.50318 0.51324 0.0
H1435 H 0.91085 0.51464 0.42968 0.0
H1436 H 0.8716 0.48594 0.42756 0.0
H1437 H 0.89292 0.43624 0.51277 0.0
H1438 H 0.87463 0.43965 0.5425 0.0
H1439 H 0.90322 0.45998 0.53723 0.0
H1440 H 0.87625 0.50056 0.54469 0.0
H1441 H 0.84756 0.48036 0.54987 0.0
H1442 H 0.84761 0.50464 0.5252 0.0
H1443 H 0.83211 0.45709 0.4346 0.0
H1444 H 0.79545 0.42961 0.45024 0.0
H1445 H 0.825 0.43815 0.52951 0.0
C1446 C 0.90648 0.4997 0.49447 0.0
C1447 C 0.91664 0.5111 0.47159 0.0
C1448 C 0.90388 0.50577 0.44742 0.0
C1449 C 0.8814 0.48964 0.44603 0.0
C1450 C 0.87179 0.47902 0.46899 0.0
C1451 C 0.88392 0.48377 0.49275 0.0
C1452 C 0.86924 0.47042 0.5146 0.0
C1453 C 0.886 0.45038 0.52753 0.0
C1454 C 0.8596 0.49018 0.53477 0.0
C1455 C 0.84686 0.45755 0.49941 0.0
C1456 C 0.84877 0.46269 0.47312 0.0
C1457 C 0.83042 0.45291 0.45514 0.0
C1458 C 0.80964 0.43733 0.46425 0.0
C1459 C 0.80726 0.43174 0.49113 0.0
C1460 C 0.82616 0.44212 0.50888 0.0
H1461 H 0.78242 0.87579 0.77635 0.0
H1462 H 0.72283 0.81476 0.78242 0.0
H1463 H 0.68919 0.84588 0.77271 0.0
H1464 H 0.74649 0.92492 0.80726 0.0
H1465 H 0.75872 0.95032 0.78657 0.0
H1466 H 0.77817 0.92301 0.79267 0.0
H1467 H 0.78191 0.91403 0.74291 0.0
H1468 H 0.76255 0.9414 0.73664 0.0
H1469 H 0.75281 0.91 0.72345 0.0
H1470 H 0.66206 0.88382 0.76293 0.0
H1471 H 0.64328 0.926 0.75484 0.0
H1472 H 0.72063 0.9624 0.75613 0.0
C1473 C 0.76232 0.86894 0.77527 0.0
C1474 C 0.75518 0.84288 0.78001 0.0
C1475 C 0.72865 0.8347 0.77895 0.0
C1476 C 0.70945 0.85219 0.77335 0.0
C1477 C 0.71711 0.87781 0.76899 0.0
C1478 C 0.74289 0.88618 0.76993 0.0
C1479 C 0.74587 0.91492 0.76545 0.0
C1480 C 0.75803 0.92912 0.78942 0.0
C1481 C 0.76172 0.9204 0.74063 0.0
C1482 C 0.71773 0.92143 0.76193 0.0
C1483 C 0.70145 0.89973 0.76388 0.0
C1484 C 0.67462 0.90095 0.76135 0.0
C1485 C 0.66413 0.92499 0.75675 0.0
C1486 C 0.68045 0.94753 0.75491 0.0
C1487 C 0.7076 0.94558 0.75752 0.0
H1488 H 0.60285 0.5166 0.96521 0.0
H1489 H 0.57766 0.50756 0.04548 0.0
H1490 H 0.61427 0.53594 0.06049 0.0
H1491 H 0.67091 0.51744 0.97746 0.0
H1492 H 0.67916 0.54193 0.95409 0.0
H1493 H 0.65066 0.52115 0.94917 0.0
H1494 H 0.62226 0.56108 0.94635 0.0
H1495 H 0.65071 0.58199 0.95111 0.0
H1496 H 0.62327 0.5848 0.97259 0.0
H1497 H 0.65418 0.56325 0.06732 0.0
H1498 H 0.69418 0.59061 0.06553 0.0
H1499 H 0.69326 0.58439 0.98086 0.0
C1500 C 0.60487 0.52085 0.98591 0.0
C1501 C 0.58755 0.50949 0.00418 0.0
C1502 C 0.59099 0.51547 0.03112 0.0
C1503 C 0.61163 0.53174 0.03987 0.0
C1504 C 0.62858 0.54219 0.02145 0.0
C1505 C 0.62536 0.53728 0.99502 0.0
C1506 C 0.64655 0.55112 0.97949 0.0
C1507 C 0.66278 0.53175 0.96415 0.0
C1508 C 0.635 0.57093 0.96131 0.0
C1509 C 0.66225 0.56431 0.00139 0.0
C1510 C 0.65149 0.55875 0.0254 0.0
C1511 C 0.66272 0.56794 0.04865 0.0
C1512 C 0.68553 0.58339 0.0474 0.0
C1513 C 0.69685 0.58969 0.02306 0.0
C1514 C 0.68497 0.58003 0.99974 0.0
H1515 H 0.28008 0.64949 0.23158 0.0
H1516 H 0.22013 0.70213 0.21153 0.0
H1517 H 0.18692 0.66685 0.21587 0.0
H1518 H 0.25094 0.59198 0.19955 0.0
H1519 H 0.2608 0.57094 0.22499 0.0
H1520 H 0.28 0.59981 0.21818 0.0
H1521 H 0.27616 0.61474 0.26654 0.0
H1522 H 0.25691 0.58599 0.27349 0.0
H1523 H 0.24445 0.61726 0.28093 0.0
H1524 H 0.15995 0.62643 0.225 0.0
H1525 H 0.14136 0.58395 0.23782 0.0
H1526 H 0.21892 0.55815 0.25309 0.0
C1527 C 0.25998 0.65364 0.22802 0.0
C1528 C 0.25278 0.67864 0.22112 0.0
C1529 C 0.22624 0.68309 0.2164 0.0
C1530 C 0.20719 0.66319 0.21898 0.0
C1531 C 0.21497 0.63893 0.22625 0.0
C1532 C 0.24074 0.63407 0.23062 0.0
C1533 C 0.2439 0.60662 0.23926 0.0
C1534 C 0.25985 0.59144 0.2193 0.0
C1535 C 0.25607 0.60614 0.26668 0.0
C1536 C 0.21582 0.59688 0.23947 0.0
C1537 C 0.19945 0.61576 0.23173 0.0
C1538 C 0.1726 0.61146 0.23093 0.0
C1539 C 0.16223 0.58726 0.23829 0.0
C1540 C 0.17866 0.56767 0.24646 0.0
C1541 C 0.20582 0.57265 0.24689 0.0
H1542 H 0.91203 0.5035 0.00595 0.0
H1543 H 0.91158 0.51229 0.09052 0.0
H1544 H 0.87988 0.5461 0.08722 0.0
H1545 H 0.90352 0.57036 0.99054 0.0
H1546 H 0.88174 0.563 0.96362 0.0
H1547 H 0.90599 0.54055 0.97217 0.0
H1548 H 0.87026 0.5044 0.97694 0.0
H1549 H 0.84592 0.52669 0.9683 0.0
H1550 H 0.84327 0.50955 0.99849 0.0
H1551 H 0.8481 0.57866 0.07533 0.0
H1552 H 0.81547 0.60573 0.05561 0.0
H1553 H 0.83355 0.57404 0.97897 0.0
C1554 C 0.90526 0.51244 0.02382 0.0
C1555 C 0.91493 0.50544 0.04848 0.0
C1556 C 0.90536 0.51777 0.0713 0.0
C1557 C 0.88711 0.53692 0.06969 0.0
C1558 C 0.87819 0.54341 0.04515 0.0
C1559 C 0.88668 0.5314 0.02262 0.0
C1560 C 0.87285 0.54116 0.99883 0.0
C1561 C 0.89218 0.55457 0.98019 0.0
C1562 C 0.85714 0.51914 0.98482 0.0
C1563 C 0.85519 0.5604 0.01161 0.0
C1564 C 0.85888 0.56157 0.03831 0.0
C1565 C 0.84498 0.57791 0.05444 0.0
C1566 C 0.82652 0.59327 0.04302 0.0
C1567 C 0.82188 0.592 0.01574 0.0
C1568 C 0.83659 0.57542 0.99987 0.0
H1569 H 0.11126 1.00123 0.04923 0.0
H1570 H 0.09148 0.02297 0.9705 0.0
H1571 H 0.12631 0.99628 0.95312 0.0
H1572 H 0.17972 0.00145 0.04049 0.0
H1573 H 0.18436 0.97379 0.06046 0.0
H1574 H 0.15755 0.99421 0.06676 0.0
H1575 H 0.12541 0.95465 0.0623 0.0
H1576 H 0.15214 0.93408 0.05608 0.0
H1577 H 0.12571 0.93474 0.03306 0.0
H1578 H 0.16391 0.96818 0.94435 0.0
H1579 H 0.20129 0.94001 0.94463 0.0
H1580 H 0.19603 0.93548 0.02899 0.0
C1581 C 0.11398 1.00011 0.0283 0.0
C1582 C 0.0986 0.01428 0.01124 0.0
C1583 C 0.10319 0.0126 0.984 0.0
C1584 C 0.12283 0.99736 0.97392 0.0
C1585 C 0.1377 0.9838 0.9913 0.0
C1586 C 0.13346 0.98493 0.01789 0.0
C1587 C 0.15243 0.96872 0.03234 0.0
C1588 C 0.16953 0.98555 0.05112 0.0
C1589 C 0.13806 0.94674 0.04679 0.0
C1590 C 0.16809 0.9584 0.0097 0.0
C1591 C 0.15926 0.96737 0.98621 0.0
C1592 C 0.17093 0.96094 0.96261 0.0
C1593 C 0.1922 0.94495 0.96299 0.0
C1594 C 0.20161 0.93546 0.98682 0.0
C1595 C 0.18925 0.94228 0.01045 0.0
loop_
_geom_bond_atom_site_label_1
_geom_bond_atom_site_label_2
_geom_bond_distance
_geom_bond_site_symmetry_2
_ccdc_geom_bond_type
H0 C3 0.931 . S
H1 C6 0.928 . S
H2 C8 0.930 . S
C3 H0 0.931 . S
C3 C4 1.413 . S
C3 C5 1.360 . S
C4 C3 1.413 . S
C4 C8 1.429 . S
C5 C3 1.360 . S
C5 C6 1.372 . S
C6 H1 0.928 . S
C6 C5 1.372 . S
C6 C7 1.404 . S
C7 C6 1.404 . S
C7 C8 1.391 . S
C8 H2 0.930 . S
C8 C4 1.429 . S
C8 C7 1.391 . S
H9 C12 0.931 . S
H10 C15 0.928 . S
H11 C17 0.930 . S
C12 H9 0.931 . S
C12 C13 1.413 . S
C12 C14 1.360 . S
C13 C12 1.413 . S
C13 C17 1.429 . S
C14 C12 1.360 . S
C14 C15 1.372 . S
C15 H10 0.928 . S
C15 C14 1.372 . S
C15 C16 1.404 . S
C16 C15 1.404 . S
C16 C17 1.391 . S
C17 H11 0.930 . S
C17 C13 1.429 . S
C17 C16 1.391 . S
H18 C21 0.931 . S
H19 C24 0.928 1_455 S
H20 C26 0.924 1_556 S
C21 H18 0.931 . S
C21 C22 1.413 . S
C21 C23 1.360 . S
C22 C21 1.413 . S
C22 C26 1.429 . S
C23 C21 1.360 . S
C23 C24 1.372 . S
C24 H19 0.928 1_655 S
C24 C23 1.372 . S
C24 C25 1.404 . S
C25 C24 1.404 . S
C25 C26 1.391 . S
C26 H20 0.924 1_554 S
C26 C22 1.429 . S
C26 C25 1.391 . S
H27 C30 0.931 . S
H28 C33 0.928 . S
H29 C35 0.930 . S
C30 H27 0.931 . S
C30 C31 1.413 . S
C30 C32 1.360 . S
C31 C30 1.413 . S
C31 C35 1.429 . S
C32 C30 1.360 . S
C32 C33 1.372 . S
C33 H28 0.928 . S
C33 C32 1.372 . S
C33 C34 1.404 . S
C34 C33 1.404 . S
C34 C35 1.391 . S
C35 H29 0.930 . S
C35 C31 1.429 . S
C35 C34 1.391 . S
H36 C39 0.931 . S
H37 C42 0.928 1_545 S
H38 C44 0.930 . S
C39 H36 0.931 . S
C39 C40 1.413 . S
C39 C41 1.360 . S
C40 C39 1.413 . S
C40 C44 1.429 . S
C41 C39 1.360 . S
C41 C42 1.372 . S
C42 H37 0.928 1_565 S
C42 C41 1.372 . S
C42 C43 1.404 . S
C43 C42 1.404 . S
C43 C44 1.391 . S
C44 H38 0.930 . S
C44 C40 1.429 . S
C44 C43 1.391 . S
H45 C48 0.931 . S
H46 C51 0.928 . S
H47 C53 0.930 . S
C48 H45 0.931 . S
C48 C49 1.413 . S
C48 C50 1.360 . S
C49 C48 1.413 . S
C49 C53 1.429 . S
C50 C48 1.360 . S
C50 C51 1.372 . S
C51 H46 0.928 . S
C51 C50 1.372 . S
C51 C52 1.404 . S
C52 C51 1.404 . S
C52 C53 1.391 . S
C53 H47 0.930 . S
C53 C49 1.429 . S
C53 C52 1.391 . S
H54 C57 0.931 . S
H55 C60 0.943 . S
H56 C62 0.930 . S
C57 H54 0.931 . S
C57 C58 1.413 . S
C57 C59 1.360 . S
C58 C57 1.413 . S
C58 C62 1.429 . S
C59 C57 1.360 . S
C59 C60 1.372 . S
C60 H55 0.943 . S
C60 C59 1.372 . S
C60 C61 1.404 . S
C61 C60 1.404 . S
C61 C62 1.391 . S
C62 H56 0.930 . S
C62 C58 1.429 . S
C62 C61 1.391 . S
H63 C66 0.931 . S
H64 C69 0.928 . S
H65 C71 0.930 . S
C66 H63 0.931 . S
C66 C67 1.413 . S
C66 C68 1.360 . S
C67 C66 1.413 . S
C67 C71 1.429 . S
C68 C66 1.360 . S
C68 C69 1.372 . S
C69 H64 0.928 . S
C69 C68 1.372 . S
C69 C70 1.404 . S
C70 C69 1.404 . S
C70 C71 1.391 . S
C71 H65 0.930 . S
C71 C67 1.429 . S
C71 C70 1.391 . S
H72 C75 0.931 . S
H73 C78 0.928 . S
H74 C80 0.930 . S
C75 H72 0.931 . S
C75 C76 1.413 . S
C75 C77 1.360 . S
C76 C75 1.413 . S
C76 C80 1.429 . S
C77 C75 1.360 . S
C77 C78 1.372 . S
C78 H73 0.928 . S
C78 C77 1.372 . S
C78 C79 1.404 . S
C79 C78 1.404 . S
C79 C80 1.391 . S
C80 H74 0.930 . S
C80 C76 1.429 . S
C80 C79 1.391 . S
H81 C84 0.931 1_545 S
H82 C87 0.928 . S
H83 C89 0.930 . S
C84 H81 0.931 1_565 S
C84 C85 1.413 . S
C84 C86 1.360 . S
C85 C84 1.413 . S
C85 C89 1.429 . S
C86 C84 1.360 . S
C86 C87 1.372 . S
C87 H82 0.928 . S
C87 C86 1.372 . S
C87 C88 1.404 . S
C88 C87 1.404 . S
C88 C89 1.391 . S
C89 H83 0.930 . S
C89 C85 1.429 . S
C89 C88 1.391 . S
H90 C93 0.931 . S
H91 C96 0.928 . S
H92 C98 0.930 . S
C93 H90 0.931 . S
C93 C94 1.413 . S
C93 C95 1.360 . S
C94 C93 1.413 . S
C94 C98 1.429 . S
C95 C93 1.360 . S
C95 C96 1.372 . S
C96 H91 0.928 . S
C96 C95 1.372 . S
C96 C97 1.404 . S
C97 C96 1.404 . S
C97 C98 1.391 . S
C98 H92 0.930 . S
C98 C94 1.429 . S
C98 C97 1.391 . S
H99 C102 0.931 . S
H100 C105 0.928 . S
H101 C107 0.930 . S
C102 H99 0.931 . S
C102 C103 1.413 . S
C102 C104 1.360 . S
C103 C102 1.413 . S
C103 C107 1.429 . S
C104 C102 1.360 . S
C104 C105 1.372 . S
C105 H100 0.928 . S
C105 C104 1.372 . S
C105 C106 1.404 . S
C106 C105 1.404 . S
C106 C107 1.391 . S
C107 H101 0.930 . S
C107 C103 1.429 . S
C107 C106 1.391 . S
H108 C111 0.931 . S
H109 C114 0.928 . S
H110 C116 0.930 . S
C111 H108 0.931 . S
C111 C112 1.413 . S
C111 C113 1.360 . S
C112 C111 1.413 . S
C112 C116 1.429 . S
C113 C111 1.360 . S
C113 C114 1.372 . S
C114 H109 0.928 . S
C114 C113 1.372 . S
C114 C115 1.404 . S
C115 C114 1.404 . S
C115 C116 1.391 . S
C116 H110 0.930 . S
C116 C112 1.429 . S
C116 C115 1.391 . S
H117 C120 0.931 . S
H118 C123 0.928 . S
H119 C125 0.930 . S
C120 H117 0.931 . S
C120 C121 1.413 . S
C120 C122 1.360 . S
C121 C120 1.413 . S
C121 C125 1.429 . S
C122 C120 1.360 . S
C122 C123 1.372 . S
C123 H118 0.928 . S
C123 C122 1.372 . S
C123 C124 1.404 . S
C124 C123 1.404 . S
C124 C125 1.391 . S
C125 H119 0.930 . S
C125 C121 1.429 . S
C125 C124 1.391 . S
H126 C129 0.931 . S
H127 C132 0.928 . S
H128 C134 0.930 . S
C129 H126 0.931 . S
C129 C130 1.413 . S
C129 C131 1.360 . S
C130 C129 1.413 . S
C130 C134 1.429 . S
C131 C129 1.360 . S
C131 C132 1.372 . S
C132 H127 0.928 . S
C132 C131 1.372 . S
C132 C133 1.404 . S
C133 C132 1.404 . S
C133 C134 1.391 . S
C134 H128 0.930 . S
C134 C130 1.429 . S
C134 C133 1.391 . S
H135 C138 0.909 1_554 S
H136 C141 0.928 . S
H137 C143 0.930 . S
C138 H135 0.909 1_556 S
C138 C139 1.413 . S
C138 C140 1.360 . S
C139 C138 1.413 . S
C139 C143 1.429 . S
C140 C138 1.360 . S
C140 C141 1.372 . S
C141 H136 0.928 . S
C141 C140 1.372 . S
C141 C142 1.404 . S
C142 C141 1.404 . S
C142 C143 1.391 . S
C143 H137 0.930 . S
C143 C139 1.429 . S
C143 C142 1.391 . S
C144 O145 1.160 1_554 S
C144 O151 1.185 . S
O145 C144 1.160 1_556 S
O146 Zn147 1.899 1_556 S
O146 C154 1.284 . S
Zn147 O146 1.899 1_554 S
Zn147 O148 2.032 . S
Zn147 O151 2.086 . S
Zn147 O156 1.977 . S
O148 Zn147 2.032 . S
O148 C152 1.278 . S
C149 O150 1.203 . S
C149 O156 1.267 . S
O150 C149 1.203 . S
O151 C144 1.185 . S
O151 Zn147 2.086 . S
C152 O148 1.278 . S
C152 O153 1.211 . S
O153 C152 1.211 . S
C154 O146 1.284 . S
C154 O155 1.273 . S
O155 C154 1.273 . S
O156 Zn147 1.977 . S
O156 C149 1.267 . S
C157 O158 1.160 . S
C157 O164 1.185 . S
O158 C157 1.160 . S
O159 Zn160 1.899 . S
O159 C167 1.284 . S
Zn160 O159 1.899 . S
Zn160 O161 2.032 . S
Zn160 O164 2.086 . S
Zn160 O169 1.977 . S
O161 Zn160 2.032 . S
O161 C165 1.278 . S
C162 O163 1.203 . S
C162 O169 1.267 . S
O163 C162 1.203 . S
O164 C157 1.185 . S
O164 Zn160 2.086 . S
C165 O161 1.278 . S
C165 O166 1.211 . S
O166 C165 1.211 . S
C167 O159 1.284 . S
C167 O168 1.273 . S
O168 C167 1.273 . S
O169 Zn160 1.977 . S
O169 C162 1.267 . S
C170 O171 1.160 1_554 S
C170 O177 1.185 . S
O171 C170 1.160 1_556 S
O172 Zn173 1.899 1_556 S
O172 C180 1.284 . S
Zn173 O172 1.899 1_554 S
Zn173 O174 2.032 1_554 S
Zn173 O177 2.086 . S
Zn173 O182 1.977 . S
O174 Zn173 2.032 1_556 S
O174 C178 1.278 . S
C175 O176 1.203 . S
C175 O182 1.267 . S
O176 C175 1.203 . S
O177 C170 1.185 . S
O177 Zn173 2.086 . S
C178 O174 1.278 . S
C178 O179 1.211 1_556 S
O179 C178 1.211 1_554 S
C180 O172 1.284 . S
C180 O181 1.273 . S
O181 C180 1.273 . S
O182 Zn173 1.977 . S
O182 C175 1.267 . S
C183 O184 1.160 . S
C183 O190 1.185 . S
O184 C183 1.160 . S
O185 Zn186 1.899 . S
O185 C193 1.284 . S
Zn186 O185 1.899 . S
Zn186 O187 2.032 1_545 S
Zn186 O190 2.086 . S
Zn186 O195 1.977 . S
O187 Zn186 2.032 1_565 S
O187 C191 1.278 . S
C188 O189 1.203 . S
C188 O195 1.267 . S
O189 C188 1.203 . S
O190 C183 1.185 . S
O190 Zn186 2.086 . S
C191 O187 1.278 . S
C191 O192 1.211 . S
O192 C191 1.211 . S
C193 O185 1.284 . S
C193 O194 1.273 1_545 S
O194 C193 1.273 1_565 S
O195 Zn186 1.977 . S
O195 C188 1.267 . S
C196 O197 1.160 . S
C196 O203 1.185 . S
O197 C196 1.160 . S
O198 Zn199 1.899 . S
O198 C206 1.284 . S
Zn199 O198 1.899 . S
Zn199 O200 2.032 . S
Zn199 O203 2.086 . S
Zn199 O208 1.977 . S
O200 Zn199 2.032 . S
O200 C204 1.278 . S
C201 O202 1.203 . S
C201 O208 1.267 . S
O202 C201 1.203 . S
O203 C196 1.185 . S
O203 Zn199 2.086 . S
C204 O200 1.278 . S
C204 O205 1.211 . S
O205 C204 1.211 . S
C206 O198 1.284 . S
C206 O207 1.273 . S
O207 C206 1.273 . S
O208 Zn199 1.977 . S
O208 C201 1.267 . S
C209 O210 1.160 . S
C209 O216 1.185 . S
O210 C209 1.160 . S
O211 Zn212 1.899 . S
O211 C219 1.284 . S
Zn212 O211 1.899 . S
Zn212 O213 2.032 . S
Zn212 O216 2.086 . S
Zn212 O221 1.977 . S
O213 Zn212 2.032 . S
O213 C217 1.278 . S
C214 O215 1.203 . S
C214 O221 1.267 . S
O215 C214 1.203 . S
O216 C209 1.185 . S
O216 Zn212 2.086 . S
C217 O213 1.278 . S
C217 O218 1.211 . S
O218 C217 1.211 . S
C219 O211 1.284 . S
C219 O220 1.273 . S
O220 C219 1.273 . S
O221 Zn212 1.977 . S
O221 C214 1.267 . S
C222 O223 1.160 . S
C222 O229 1.185 . S
O223 C222 1.160 . S
O224 Zn225 1.899 . S
O224 C232 1.284 . S
Zn225 O224 1.899 . S
Zn225 O226 2.032 . S
Zn225 O229 2.086 . S
Zn225 O234 1.977 . S
O226 Zn225 2.032 . S
O226 C230 1.278 . S
C227 O228 1.203 . S
C227 O234 1.267 . S
O228 C227 1.203 . S
O229 C222 1.185 . S
O229 Zn225 2.086 . S
C230 O226 1.278 . S
C230 O231 1.211 . S
O231 C230 1.211 . S
C232 O224 1.284 . S
C232 O233 1.273 . S
O233 C232 1.273 . S
O234 Zn225 1.977 . S
O234 C227 1.267 . S
C235 O236 1.160 . S
C235 O242 1.185 . S
O236 C235 1.160 . S
O237 Zn238 1.899 . S
O237 C245 1.284 1_565 S
Zn238 O237 1.899 . S
Zn238 O239 2.032 1_565 S
Zn238 O242 2.086 . S
Zn238 O247 1.977 . S
O239 Zn238 2.032 1_545 S
O239 C243 1.278 . S
C240 O241 1.203 1_565 S
C240 O247 1.267 . S
O241 C240 1.203 1_545 S
O242 C235 1.185 . S
O242 Zn238 2.086 . S
C243 O239 1.278 . S
C243 O244 1.211 . S
O244 C243 1.211 . S
C245 O237 1.284 1_545 S
C245 O246 1.273 . S
O246 C245 1.273 . S
O247 Zn238 1.977 . S
O247 C240 1.267 . S
C248 O249 1.160 1_455 S
C248 O255 1.185 . S
O249 C248 1.160 1_655 S
O250 Zn251 1.899 1_655 S
O250 C258 1.284 . S
Zn251 O250 1.899 1_455 S
Zn251 O252 2.032 1_455 S
Zn251 O255 2.086 . S
Zn251 O260 1.977 . S
O252 Zn251 2.032 1_655 S
O252 C256 1.276 1_655 S
C253 O254 1.203 . S
C253 O260 1.267 . S
O254 C253 1.203 . S
O255 C248 1.185 . S
O255 Zn251 2.086 . S
C256 O252 1.276 1_455 S
C256 O257 1.219 . S
O257 C256 1.219 . S
C258 O250 1.284 . S
C258 O259 1.273 . S
O259 C258 1.273 . S
O260 Zn251 1.977 . S
O260 C253 1.267 . S
C261 O262 1.160 . S
C261 O268 1.185 . S
O262 C261 1.160 . S
O263 Zn264 1.899 . S
O263 C271 1.284 . S
Zn264 O263 1.899 . S
Zn264 O265 2.032 . S
Zn264 O268 2.086 . S
Zn264 O273 1.977 . S
O265 Zn264 2.032 . S
O265 C269 1.278 . S
C266 O267 1.203 . S
C266 O273 1.267 . S
O267 C266 1.203 . S
O268 C261 1.185 . S
O268 Zn264 2.086 . S
C269 O265 1.278 . S
C269 O270 1.211 . S
O270 C269 1.211 . S
C271 O263 1.284 . S
C271 O272 1.273 . S
O272 C271 1.273 . S
O273 Zn264 1.977 . S
O273 C266 1.267 . S
C274 O275 1.160 1_455 S
C274 O281 1.185 . S
O275 C274 1.160 1_655 S
O276 Zn277 1.899 1_655 S
O276 C284 1.284 . S
Zn277 O276 1.899 1_455 S
Zn277 O278 2.032 1_455 S
Zn277 O281 2.086 . S
Zn277 O286 1.977 . S
O278 Zn277 2.032 1_655 S
O278 C282 1.280 . S
C279 O280 1.203 . S
C279 O286 1.267 . S
O280 C279 1.203 . S
O281 C274 1.185 . S
O281 Zn277 2.086 . S
C282 O278 1.280 . S
C282 O283 1.205 1_655 S
O283 C282 1.205 1_455 S
C284 O276 1.284 . S
C284 O285 1.273 . S
O285 C284 1.273 . S
O286 Zn277 1.977 . S
O286 C279 1.267 . S
C287 O288 1.160 . S
C287 O294 1.185 . S
O288 C287 1.160 . S
O289 Zn290 1.899 . S
O289 C297 1.284 . S
Zn290 O289 1.899 . S
Zn290 O291 2.032 . S
Zn290 O294 2.086 . S
Zn290 O299 1.977 . S
O291 Zn290 2.032 . S
O291 C295 1.278 . S
C292 O293 1.203 . S
C292 O299 1.267 . S
O293 C292 1.203 . S
O294 C287 1.185 . S
O294 Zn290 2.086 . S
C295 O291 1.278 . S
C295 O296 1.211 . S
O296 C295 1.211 . S
C297 O289 1.284 . S
C297 O298 1.273 . S
O298 C297 1.273 . S
O299 Zn290 1.977 . S
O299 C292 1.267 . S
H300 C312 0.930 . S
H301 C314 0.930 . S
H302 C315 0.930 . S
H303 C319 0.959 . S
H304 C319 0.959 . S
H305 C319 0.961 . S
H306 C320 0.960 . S
H307 C320 0.961 . S
H308 C320 0.959 . S
H309 C323 0.929 . S
H310 C324 0.931 . S
H311 C326 0.930 . S
C312 H300 0.930 . S
C312 C313 1.399 . S
C312 C317 1.399 . S
C313 C312 1.399 . S
C313 C314 1.376 . S
C314 H301 0.930 . S
C314 C313 1.376 . S
C314 C315 1.388 . S
C315 H302 0.930 . S
C315 C314 1.388 . S
C315 C316 1.390 . S
C316 C315 1.390 . S
C316 C317 1.394 . S
C316 C322 1.465 . S
C317 C312 1.399 . S
C317 C316 1.394 . S
C317 C318 1.516 . S
C318 C317 1.516 . S
C318 C319 1.502 . S
C318 C320 1.561 . S
C318 C321 1.526 . S
C319 H303 0.959 . S
C319 H304 0.959 . S
C319 H305 0.961 . S
C319 C318 1.502 . S
C320 H306 0.960 . S
C320 H307 0.961 . S
C320 H308 0.959 . S
C320 C318 1.561 . S
C321 C318 1.526 . S
C321 C322 1.396 . S
C321 C326 1.390 . S
C322 C316 1.465 . S
C322 C321 1.396 . S
C322 C323 1.399 . S
C323 H309 0.929 . S
C323 C322 1.399 . S
C323 C324 1.385 . S
C324 H310 0.931 . S
C324 C323 1.385 . S
C324 C325 1.389 . S
C325 C324 1.389 . S
C325 C326 1.387 . S
C326 H311 0.930 . S
C326 C321 1.390 . S
C326 C325 1.387 . S
H327 C339 0.930 . S
H328 C341 0.930 . S
H329 C342 0.930 . S
H330 C346 0.959 . S
H331 C346 0.959 . S
H332 C346 0.961 . S
H333 C347 0.960 . S
H334 C347 0.961 . S
H335 C347 0.959 . S
H336 C350 0.929 . S
H337 C351 0.931 . S
H338 C353 0.930 . S
C339 H327 0.930 . S
C339 C340 1.388 1_455 S
C339 C344 1.399 . S
C340 C339 1.388 1_655 S
C340 C341 1.380 . S
C341 H328 0.930 . S
C341 C340 1.380 . S
C341 C342 1.388 1_655 S
C342 H329 0.930 . S
C342 C341 1.388 1_455 S
C342 C343 1.390 . S
C343 C342 1.390 . S
C343 C344 1.394 . S
C343 C349 1.465 . S
C344 C339 1.399 . S
C344 C343 1.394 . S
C344 C345 1.516 . S
C345 C344 1.516 . S
C345 C346 1.502 . S
C345 C347 1.561 . S
C345 C348 1.526 . S
C346 H330 0.959 . S
C346 H331 0.959 . S
C346 H332 0.961 . S
C346 C345 1.502 . S
C347 H333 0.960 . S
C347 H334 0.961 . S
C347 H335 0.959 . S
C347 C345 1.561 . S
C348 C345 1.526 . S
C348 C349 1.396 . S
C348 C353 1.390 . S
C349 C343 1.465 . S
C349 C348 1.396 . S
C349 C350 1.399 . S
C350 H336 0.929 . S
C350 C349 1.399 . S
C350 C351 1.385 . S
C351 H337 0.931 . S
C351 C350 1.385 . S
C351 C352 1.389 . S
C352 C351 1.389 . S
C352 C353 1.387 . S
C353 H338 0.930 . S
C353 C348 1.390 . S
C353 C352 1.387 . S
H354 C366 0.930 . S
H355 C368 0.930 . S
H356 C369 0.930 . S
H357 C373 0.959 . S
H358 C373 0.959 . S
H359 C373 0.961 . S
H360 C374 0.960 . S
H361 C374 0.961 . S
H362 C374 0.959 . S
H363 C377 0.929 . S
H364 C378 0.931 . S
H365 C380 0.930 . S
C366 H354 0.930 . S
C366 C367 1.399 . S
C366 C371 1.399 . S
C367 C366 1.399 . S
C367 C368 1.376 . S
C368 H355 0.930 . S
C368 C367 1.376 . S
C368 C369 1.388 . S
C369 H356 0.930 . S
C369 C368 1.388 . S
C369 C370 1.390 . S
C370 C369 1.390 . S
C370 C371 1.394 . S
C370 C376 1.465 . S
C371 C366 1.399 . S
C371 C370 1.394 . S
C371 C372 1.516 . S
C372 C371 1.516 . S
C372 C373 1.502 . S
C372 C374 1.561 . S
C372 C375 1.526 . S
C373 H357 0.959 . S
C373 H358 0.959 . S
C373 H359 0.961 . S
C373 C372 1.502 . S
C374 H360 0.960 . S
C374 H361 0.961 . S
C374 H362 0.959 . S
C374 C372 1.561 . S
C375 C372 1.526 . S
C375 C376 1.396 . S
C375 C380 1.390 . S
C376 C370 1.465 . S
C376 C375 1.396 . S
C376 C377 1.399 . S
C377 H363 0.929 . S
C377 C376 1.399 . S
C377 C378 1.385 . S
C378 H364 0.931 . S
C378 C377 1.385 . S
C378 C379 1.389 . S
C379 C378 1.389 . S
C379 C380 1.387 . S
C380 H365 0.930 . S
C380 C375 1.390 . S
C380 C379 1.387 . S
H381 C393 0.930 . S
H382 C395 0.930 1_455 S
H383 C396 0.930 . S
H384 C400 0.959 . S
H385 C400 0.959 . S
H386 C400 0.961 . S
H387 C401 0.960 . S
H388 C401 0.961 . S
H389 C401 0.959 . S
H390 C404 0.929 . S
H391 C405 0.931 . S
H392 C407 0.930 . S
C393 H381 0.930 . S
C393 C394 1.399 1_655 S
C393 C398 1.399 . S
C394 C393 1.399 1_455 S
C394 C395 1.376 1_465 S
C395 H382 0.930 1_655 S
C395 C394 1.376 1_645 S
C395 C396 1.388 . S
C396 H383 0.930 . S
C396 C395 1.388 . S
C396 C397 1.390 . S
C397 C396 1.390 . S
C397 C398 1.394 1_545 S
C397 C403 1.465 . S
C398 C393 1.399 . S
C398 C397 1.394 1_565 S
C398 C399 1.516 . S
C399 C398 1.516 . S
C399 C400 1.502 . S
C399 C401 1.561 . S
C399 C402 1.526 . S
C400 H384 0.959 . S
C400 H385 0.959 . S
C400 H386 0.961 . S
C400 C399 1.502 . S
C401 H387 0.960 . S
C401 H388 0.961 . S
C401 H389 0.959 . S
C401 C399 1.561 . S
C402 C399 1.526 . S
C402 C403 1.396 1_565 S
C402 C407 1.390 . S
C403 C397 1.465 . S
C403 C402 1.396 1_545 S
C403 C404 1.399 . S
C404 H390 0.929 . S
C404 C403 1.399 . S
C404 C405 1.385 . S
C405 H391 0.931 . S
C405 C404 1.385 . S
C405 C406 1.389 . S
C406 C405 1.389 . S
C406 C407 1.387 1_545 S
C407 H392 0.930 . S
C407 C402 1.390 . S
C407 C406 1.387 1_565 S
H408 C420 0.930 . S
H409 C422 0.930 . S
H410 C423 0.930 . S
H411 C427 0.959 . S
H412 C427 0.959 . S
H413 C427 0.961 . S
H414 C428 0.960 . S
H415 C428 0.961 . S
H416 C428 0.959 . S
H417 C431 0.929 . S
H418 C432 0.931 . S
H419 C434 0.930 . S
C420 H408 0.930 . S
C420 C421 1.399 . S
C420 C425 1.399 . S
C421 C420 1.399 . S
C421 C422 1.376 . S
C422 H409 0.930 . S
C422 C421 1.376 . S
C422 C423 1.388 . S
C423 H410 0.930 . S
C423 C422 1.388 . S
C423 C424 1.390 . S
C424 C423 1.390 . S
C424 C425 1.394 . S
C424 C430 1.465 . S
C425 C420 1.399 . S
C425 C424 1.394 . S
C425 C426 1.516 . S
C426 C425 1.516 . S
C426 C427 1.502 . S
C426 C428 1.561 . S
C426 C429 1.526 . S
C427 H411 0.959 . S
C427 H412 0.959 . S
C427 H413 0.961 . S
C427 C426 1.502 . S
C428 H414 0.960 . S
C428 H415 0.961 . S
C428 H416 0.959 . S
C428 C426 1.561 . S
C429 C426 1.526 . S
C429 C430 1.396 . S
C429 C434 1.390 . S
C430 C424 1.465 . S
C430 C429 1.396 . S
C430 C431 1.399 . S
C431 H417 0.929 . S
C431 C430 1.399 . S
C431 C432 1.385 . S
C432 H418 0.931 . S
C432 C431 1.385 . S
C432 C433 1.389 . S
C433 C432 1.389 . S
C433 C434 1.387 . S
C434 H419 0.930 . S
C434 C429 1.390 . S
C434 C433 1.387 . S
H435 C447 0.930 . S
H436 C449 0.930 . S
H437 C450 0.930 . S
H438 C454 0.959 . S
H439 C454 0.959 . S
H440 C454 0.961 . S
H441 C455 0.960 . S
H442 C455 0.961 . S
H443 C455 0.959 . S
H444 C458 0.929 . S
H445 C459 0.931 . S
H446 C461 0.930 . S
C447 H435 0.930 . S
C447 C448 1.399 . S
C447 C452 1.399 . S
C448 C447 1.399 . S
C448 C449 1.376 . S
C449 H436 0.930 . S
C449 C448 1.376 . S
C449 C450 1.388 . S
C450 H437 0.930 . S
C450 C449 1.388 . S
C450 C451 1.390 . S
C451 C450 1.390 . S
C451 C452 1.394 . S
C451 C457 1.465 . S
C452 C447 1.399 . S
C452 C451 1.394 . S
C452 C453 1.516 . S
C453 C452 1.516 . S
C453 C454 1.502 . S
C453 C455 1.561 . S
C453 C456 1.526 . S
C454 H438 0.959 . S
C454 H439 0.959 . S
C454 H440 0.961 . S
C454 C453 1.502 . S
C455 H441 0.960 . S
C455 H442 0.961 . S
C455 H443 0.959 . S
C455 C453 1.561 . S
C456 C453 1.526 . S
C456 C457 1.396 . S
C456 C461 1.390 . S
C457 C451 1.465 . S
C457 C456 1.396 . S
C457 C458 1.399 . S
C458 H444 0.929 . S
C458 C457 1.399 . S
C458 C459 1.385 . S
C459 H445 0.931 . S
C459 C458 1.385 . S
C459 C460 1.389 . S
C460 C459 1.389 . S
C460 C461 1.387 . S
C461 H446 0.930 . S
C461 C456 1.390 . S
C461 C460 1.387 . S
H462 C474 0.930 . S
H463 C476 0.930 . S
H464 C477 0.930 . S
H465 C481 0.959 . S
H466 C481 0.959 . S
H467 C481 0.961 . S
H468 C482 0.960 . S
H469 C482 0.961 . S
H470 C482 0.959 . S
H471 C485 0.929 . S
H472 C486 0.931 . S
H473 C488 0.930 . S
C474 H462 0.930 . S
C474 C475 1.399 . S
C474 C479 1.399 . S
C475 C474 1.399 . S
C475 C476 1.376 . S
C476 H463 0.930 . S
C476 C475 1.376 . S
C476 C477 1.388 . S
C477 H464 0.930 . S
C477 C476 1.388 . S
C477 C478 1.390 . S
C478 C477 1.390 . S
C478 C479 1.394 . S
C478 C484 1.465 . S
C479 C474 1.399 . S
C479 C478 1.394 . S
C479 C480 1.516 . S
C480 C479 1.516 . S
C480 C481 1.502 . S
C480 C482 1.561 . S
C480 C483 1.526 . S
C481 H465 0.959 . S
C481 H466 0.959 . S
C481 H467 0.961 . S
C481 C480 1.502 . S
C482 H468 0.960 . S
C482 H469 0.961 . S
C482 H470 0.959 . S
C482 C480 1.561 . S
C483 C480 1.526 . S
C483 C484 1.396 . S
C483 C488 1.390 . S
C484 C478 1.465 . S
C484 C483 1.396 . S
C484 C485 1.399 . S
C485 H471 0.929 . S
C485 C484 1.399 . S
C485 C486 1.385 . S
C486 H472 0.931 . S
C486 C485 1.385 . S
C486 C487 1.389 . S
C487 C486 1.389 . S
C487 C488 1.387 . S
C488 H473 0.930 . S
C488 C483 1.390 . S
C488 C487 1.387 . S
H489 C501 0.930 . S
H490 C503 0.930 . S
H491 C504 0.930 . S
H492 C508 0.959 . S
H493 C508 0.959 . S
H494 C508 0.961 . S
H495 C509 0.960 . S
H496 C509 0.961 . S
H497 C509 0.959 . S
H498 C512 0.929 . S
H499 C513 0.931 . S
H500 C515 0.930 . S
C501 H489 0.930 . S
C501 C502 1.399 . S
C501 C506 1.399 . S
C502 C501 1.399 . S
C502 C503 1.376 1_565 S
C503 H490 0.930 . S
C503 C502 1.376 1_545 S
C503 C504 1.388 . S
C504 H491 0.930 . S
C504 C503 1.388 . S
C504 C505 1.390 1_545 S
C505 C504 1.390 1_565 S
C505 C506 1.394 . S
C505 C511 1.465 . S
C506 C501 1.399 . S
C506 C505 1.394 . S
C506 C507 1.516 . S
C507 C506 1.516 . S
C507 C508 1.502 . S
C507 C509 1.561 . S
C507 C510 1.526 . S
C508 H492 0.959 . S
C508 H493 0.959 . S
C508 H494 0.961 . S
C508 C507 1.502 . S
C509 H495 0.960 . S
C509 H496 0.961 . S
C509 H497 0.959 . S
C509 C507 1.561 . S
C510 C507 1.526 . S
C510 C511 1.396 . S
C510 C515 1.390 . S
C511 C505 1.465 . S
C511 C510 1.396 . S
C511 C512 1.399 1_565 S
C512 H498 0.929 . S
C512 C511 1.399 1_545 S
C512 C513 1.385 . S
C513 H499 0.931 . S
C513 C512 1.385 . S
C513 C514 1.389 1_545 S
C514 C513 1.389 1_565 S
C514 C515 1.387 . S
C515 H500 0.930 . S
C515 C510 1.390 . S
C515 C514 1.387 . S
H516 C528 0.930 . S
H517 C530 0.930 . S
H518 C531 0.930 . S
H519 C535 0.959 . S
H520 C535 0.959 . S
H521 C535 0.961 . S
H522 C536 0.960 . S
H523 C536 0.961 . S
H524 C536 0.959 . S
H525 C539 0.929 . S
H526 C540 0.931 . S
H527 C542 0.930 . S
C528 H516 0.930 . S
C528 C529 1.399 . S
C528 C533 1.399 . S
C529 C528 1.399 . S
C529 C530 1.376 . S
C530 H517 0.930 . S
C530 C529 1.376 . S
C530 C531 1.388 . S
C531 H518 0.930 . S
C531 C530 1.388 . S
C531 C532 1.390 . S
C532 C531 1.390 . S
C532 C533 1.394 . S
C532 C538 1.465 . S
C533 C528 1.399 . S
C533 C532 1.394 . S
C533 C534 1.516 . S
C534 C533 1.516 . S
C534 C535 1.502 . S
C534 C536 1.561 . S
C534 C537 1.526 . S
C535 H519 0.959 . S
C535 H520 0.959 . S
C535 H521 0.961 . S
C535 C534 1.502 . S
C536 H522 0.960 . S
C536 H523 0.961 . S
C536 H524 0.959 . S
C536 C534 1.561 . S
C537 C534 1.526 . S
C537 C538 1.396 . S
C537 C542 1.390 . S
C538 C532 1.465 . S
C538 C537 1.396 . S
C538 C539 1.399 . S
C539 H525 0.929 . S
C539 C538 1.399 . S
C539 C540 1.385 . S
C540 H526 0.931 . S
C540 C539 1.385 . S
C540 C541 1.389 . S
C541 C540 1.389 . S
C541 C542 1.387 . S
C542 H527 0.930 . S
C542 C537 1.390 . S
C542 C541 1.387 . S
H543 C555 0.930 . S
H544 C557 0.930 . S
H545 C558 0.930 . S
H546 C562 0.959 . S
H547 C562 0.959 . S
H548 C562 0.961 . S
H549 C563 0.960 . S
H550 C563 0.961 . S
H551 C563 0.959 . S
H552 C566 0.929 . S
H553 C567 0.931 . S
H554 C569 0.930 . S
C555 H543 0.930 . S
C555 C556 1.399 . S
C555 C560 1.399 . S
C556 C555 1.399 . S
C556 C557 1.376 . S
C557 H544 0.930 . S
C557 C556 1.376 . S
C557 C558 1.388 . S
C558 H545 0.930 . S
C558 C557 1.388 . S
C558 C559 1.390 . S
C559 C558 1.390 . S
C559 C560 1.394 . S
C559 C565 1.465 . S
C560 C555 1.399 . S
C560 C559 1.394 . S
C560 C561 1.516 . S
C561 C560 1.516 . S
C561 C562 1.502 . S
C561 C563 1.561 . S
C561 C564 1.526 . S
C562 H546 0.959 . S
C562 H547 0.959 . S
C562 H548 0.961 . S
C562 C561 1.502 . S
C563 H549 0.960 . S
C563 H550 0.961 . S
C563 H551 0.959 . S
C563 C561 1.561 . S
C564 C561 1.526 . S
C564 C565 1.396 . S
C564 C569 1.390 . S
C565 C559 1.465 . S
C565 C564 1.396 . S
C565 C566 1.399 . S
C566 H552 0.929 . S
C566 C565 1.399 . S
C566 C567 1.385 . S
C567 H553 0.931 . S
C567 C566 1.385 . S
C567 C568 1.389 . S
C568 C567 1.389 . S
C568 C569 1.387 . S
C569 H554 0.930 . S
C569 C564 1.390 . S
C569 C568 1.387 . S
H570 C582 0.930 . S
H571 C584 0.930 . S
H572 C585 0.930 . S
H573 C589 0.959 . S
H574 C589 0.959 . S
H575 C589 0.961 . S
H576 C590 0.960 . S
H577 C590 0.961 . S
H578 C590 0.959 . S
H579 C593 0.929 . S
H580 C594 0.931 . S
H581 C596 0.930 . S
C582 H570 0.930 . S
C582 C583 1.399 . S
C582 C587 1.399 . S
C583 C582 1.399 . S
C583 C584 1.376 . S
C584 H571 0.930 . S
C584 C583 1.376 . S
C584 C585 1.388 . S
C585 H572 0.930 . S
C585 C584 1.388 . S
C585 C586 1.390 . S
C586 C585 1.390 . S
C586 C587 1.394 . S
C586 C592 1.465 . S
C587 C582 1.399 . S
C587 C586 1.394 . S
C587 C588 1.516 . S
C588 C587 1.516 . S
C588 C589 1.502 . S
C588 C590 1.561 . S
C588 C591 1.526 . S
C589 H573 0.959 . S
C589 H574 0.959 . S
C589 H575 0.961 . S
C589 C588 1.502 . S
C590 H576 0.960 . S
C590 H577 0.961 . S
C590 H578 0.959 . S
C590 C588 1.561 . S
C591 C588 1.526 . S
C591 C592 1.396 . S
C591 C596 1.390 . S
C592 C586 1.465 . S
C592 C591 1.396 . S
C592 C593 1.399 . S
C593 H579 0.929 . S
C593 C592 1.399 . S
C593 C594 1.385 . S
C594 H580 0.931 . S
C594 C593 1.385 . S
C594 C595 1.389 . S
C595 C594 1.389 . S
C595 C596 1.387 . S
C596 H581 0.930 . S
C596 C591 1.390 . S
C596 C595 1.387 . S
H597 C609 0.930 . S
H598 C611 0.930 . S
H599 C612 0.930 . S
H600 C616 0.959 . S
H601 C616 0.959 . S
H602 C616 0.961 . S
H603 C617 0.960 . S
H604 C617 0.961 . S
H605 C617 0.959 . S
H606 C620 0.929 . S
H607 C621 0.931 . S
H608 C623 0.930 . S
C609 H597 0.930 . S
C609 C610 1.399 . S
C609 C614 1.399 . S
C610 C609 1.399 . S
C610 C611 1.376 . S
C611 H598 0.930 . S
C611 C610 1.376 . S
C611 C612 1.388 . S
C612 H599 0.930 . S
C612 C611 1.388 . S
C612 C613 1.390 . S
C613 C612 1.390 . S
C613 C614 1.394 . S
C613 C619 1.465 . S
C614 C609 1.399 . S
C614 C613 1.394 . S
C614 C615 1.516 . S
C615 C614 1.516 . S
C615 C616 1.502 . S
C615 C617 1.561 . S
C615 C618 1.526 . S
C616 H600 0.959 . S
C616 H601 0.959 . S
C616 H602 0.961 . S
C616 C615 1.502 . S
C617 H603 0.960 . S
C617 H604 0.961 . S
C617 H605 0.959 . S
C617 C615 1.561 . S
C618 C615 1.526 . S
C618 C619 1.396 . S
C618 C623 1.390 . S
C619 C613 1.465 . S
C619 C618 1.396 . S
C619 C620 1.399 . S
C620 H606 0.929 . S
C620 C619 1.399 . S
C620 C621 1.385 . S
C621 H607 0.931 . S
C621 C620 1.385 . S
C621 C622 1.389 . S
C622 C621 1.389 . S
C622 C623 1.387 . S
C623 H608 0.930 . S
C623 C618 1.390 . S
C623 C622 1.387 . S
H624 C636 0.930 . S
H625 C638 0.930 . S
H626 C639 0.930 . S
H627 C643 0.959 . S
H628 C643 0.959 . S
H629 C643 0.961 . S
H630 C644 0.960 . S
H631 C644 0.961 . S
H632 C644 0.959 . S
H633 C647 0.929 . S
H634 C648 0.931 . S
H635 C650 0.930 . S
C636 H624 0.930 . S
C636 C637 1.399 . S
C636 C641 1.399 . S
C637 C636 1.399 . S
C637 C638 1.376 . S
C638 H625 0.930 . S
C638 C637 1.376 . S
C638 C639 1.388 . S
C639 H626 0.930 . S
C639 C638 1.388 . S
C639 C640 1.390 . S
C640 C639 1.390 . S
C640 C641 1.394 . S
C640 C646 1.465 . S
C641 C636 1.399 . S
C641 C640 1.394 . S
C641 C642 1.516 . S
C642 C641 1.516 . S
C642 C643 1.502 . S
C642 C644 1.561 . S
C642 C645 1.526 . S
C643 H627 0.959 . S
C643 H628 0.959 . S
C643 H629 0.961 . S
C643 C642 1.502 . S
C644 H630 0.960 . S
C644 H631 0.961 . S
C644 H632 0.959 . S
C644 C642 1.561 . S
C645 C642 1.526 . S
C645 C646 1.396 . S
C645 C650 1.390 . S
C646 C640 1.465 . S
C646 C645 1.396 . S
C646 C647 1.399 . S
C647 H633 0.929 . S
C647 C646 1.399 . S
C647 C648 1.385 . S
C648 H634 0.931 . S
C648 C647 1.385 . S
C648 C649 1.389 . S
C649 C648 1.389 . S
C649 C650 1.387 . S
C650 H635 0.930 . S
C650 C645 1.390 . S
C650 C649 1.387 . S
H651 C663 0.930 . S
H652 C665 0.930 . S
H653 C666 0.930 . S
H654 C670 0.959 . S
H655 C670 0.959 . S
H656 C670 0.961 . S
H657 C671 0.960 . S
H658 C671 0.961 . S
H659 C671 0.959 . S
H660 C674 0.929 . S
H661 C675 0.931 . S
H662 C677 0.930 . S
C663 H651 0.930 . S
C663 C664 1.399 . S
C663 C668 1.399 . S
C664 C663 1.399 . S
C664 C665 1.376 . S
C665 H652 0.930 . S
C665 C664 1.376 . S
C665 C666 1.388 . S
C666 H653 0.930 . S
C666 C665 1.388 . S
C666 C667 1.390 . S
C667 C666 1.390 . S
C667 C668 1.394 . S
C667 C673 1.465 . S
C668 C663 1.399 . S
C668 C667 1.394 . S
C668 C669 1.516 . S
C669 C668 1.516 . S
C669 C670 1.502 . S
C669 C671 1.561 1_455 S
C669 C672 1.526 . S
C670 H654 0.959 . S
C670 H655 0.959 . S
C670 H656 0.961 . S
C670 C669 1.502 . S
C671 H657 0.960 . S
C671 H658 0.961 . S
C671 H659 0.959 . S
C671 C669 1.561 1_655 S
C672 C669 1.526 . S
C672 C673 1.396 . S
C672 C677 1.390 . S
C673 C667 1.465 . S
C673 C672 1.396 . S
C673 C674 1.399 . S
C674 H660 0.929 . S
C674 C673 1.399 . S
C674 C675 1.385 . S
C675 H661 0.931 . S
C675 C674 1.385 . S
C675 C676 1.389 . S
C676 C675 1.389 . S
C676 C677 1.387 . S
C677 H662 0.930 . S
C677 C672 1.390 . S
C677 C676 1.387 . S
H678 C690 0.930 . S
H679 C692 0.930 . S
H680 C693 0.930 . S
H681 C697 0.959 . S
H682 C697 0.959 . S
H683 C697 0.961 . S
H684 C698 0.960 . S
H685 C698 0.961 . S
H686 C698 0.959 . S
H687 C701 0.929 . S
H688 C702 0.931 . S
H689 C704 0.930 . S
C690 H678 0.930 . S
C690 C691 1.399 . S
C690 C695 1.399 . S
C691 C690 1.399 . S
C691 C692 1.376 . S
C692 H679 0.930 . S
C692 C691 1.376 . S
C692 C693 1.388 . S
C693 H680 0.930 . S
C693 C692 1.388 . S
C693 C694 1.390 . S
C694 C693 1.390 . S
C694 C695 1.394 . S
C694 C700 1.465 . S
C695 C690 1.399 . S
C695 C694 1.394 . S
C695 C696 1.516 . S
C696 C695 1.516 . S
C696 C697 1.502 . S
C696 C698 1.561 . S
C696 C699 1.526 . S
C697 H681 0.959 . S
C697 H682 0.959 . S
C697 H683 0.961 . S
C697 C696 1.502 . S
C698 H684 0.960 . S
C698 H685 0.961 . S
C698 H686 0.959 . S
C698 C696 1.561 . S
C699 C696 1.526 . S
C699 C700 1.396 . S
C699 C704 1.390 . S
C700 C694 1.465 . S
C700 C699 1.396 . S
C700 C701 1.399 . S
C701 H687 0.929 . S
C701 C700 1.399 . S
C701 C702 1.385 . S
C702 H688 0.931 . S
C702 C701 1.385 . S
C702 C703 1.389 . S
C703 C702 1.389 . S
C703 C704 1.387 . S
C704 H689 0.930 . S
C704 C699 1.390 . S
C704 C703 1.387 . S
H705 C717 0.930 . S
H706 C719 0.930 . S
H707 C720 0.930 . S
H708 C724 0.959 . S
H709 C724 0.959 . S
H710 C724 0.961 . S
H711 C725 0.960 . S
H712 C725 0.961 . S
H713 C725 0.959 . S
H714 C728 0.929 . S
H715 C729 0.931 . S
H716 C731 0.930 . S
C717 H705 0.930 . S
C717 C718 1.399 . S
C717 C722 1.399 . S
C718 C717 1.399 . S
C718 C719 1.376 . S
C719 H706 0.930 . S
C719 C718 1.376 . S
C719 C720 1.388 . S
C720 H707 0.930 . S
C720 C719 1.388 . S
C720 C721 1.390 . S
C721 C720 1.390 . S
C721 C722 1.394 . S
C721 C727 1.465 . S
C722 C717 1.399 . S
C722 C721 1.394 . S
C722 C723 1.516 . S
C723 C722 1.516 . S
C723 C724 1.502 . S
C723 C725 1.561 1_655 S
C723 C726 1.526 . S
C724 H708 0.959 . S
C724 H709 0.959 . S
C724 H710 0.961 . S
C724 C723 1.502 . S
C725 H711 0.960 . S
C725 H712 0.961 . S
C725 H713 0.959 . S
C725 C723 1.561 1_455 S
C726 C723 1.526 . S
C726 C727 1.396 . S
C726 C731 1.390 . S
C727 C721 1.465 . S
C727 C726 1.396 . S
C727 C728 1.399 . S
C728 H714 0.929 . S
C728 C727 1.399 . S
C728 C729 1.385 . S
C729 H715 0.931 . S
C729 C728 1.385 . S
C729 C730 1.389 . S
C730 C729 1.389 . S
C730 C731 1.387 . S
C731 H716 0.930 . S
C731 C726 1.390 . S
C731 C730 1.387 . S
H732 C744 0.930 . S
H733 C746 0.930 . S
H734 C747 0.930 . S
H735 C751 0.959 . S
H736 C751 0.959 . S
H737 C751 0.961 . S
H738 C752 0.960 . S
H739 C752 0.961 . S
H740 C752 0.959 . S
H741 C755 0.929 . S
H742 C756 0.931 . S
H743 C758 0.930 . S
C744 H732 0.930 . S
C744 C745 1.399 . S
C744 C749 1.399 . S
C745 C744 1.399 . S
C745 C746 1.376 . S
C746 H733 0.930 . S
C746 C745 1.376 . S
C746 C747 1.388 . S
C747 H734 0.930 . S
C747 C746 1.388 . S
C747 C748 1.390 . S
C748 C747 1.390 . S
C748 C749 1.394 . S
C748 C754 1.465 . S
C749 C744 1.399 . S
C749 C748 1.394 . S
C749 C750 1.516 . S
C750 C749 1.516 . S
C750 C751 1.502 . S
C750 C752 1.561 . S
C750 C753 1.526 . S
C751 H735 0.959 . S
C751 H736 0.959 . S
C751 H737 0.961 . S
C751 C750 1.502 . S
C752 H738 0.960 . S
C752 H739 0.961 . S
C752 H740 0.959 . S
C752 C750 1.561 . S
C753 C750 1.526 . S
C753 C754 1.396 . S
C753 C758 1.390 . S
C754 C748 1.465 . S
C754 C753 1.396 . S
C754 C755 1.399 . S
C755 H741 0.929 . S
C755 C754 1.399 . S
C755 C756 1.385 . S
C756 H742 0.931 . S
C756 C755 1.385 . S
C756 C757 1.389 . S
C757 C756 1.389 . S
C757 C758 1.387 . S
C758 H743 0.930 . S
C758 C753 1.390 . S
C758 C757 1.387 . S
H759 C771 0.930 . S
H760 C773 0.930 . S
H761 C774 0.930 . S
H762 C778 0.959 . S
H763 C778 0.959 . S
H764 C778 0.961 . S
H765 C779 0.960 . S
H766 C779 0.961 . S
H767 C779 0.959 . S
H768 C782 0.929 . S
H769 C783 0.931 . S
H770 C785 0.930 . S
C771 H759 0.930 . S
C771 C772 1.399 . S
C771 C776 1.399 . S
C772 C771 1.399 . S
C772 C773 1.376 . S
C773 H760 0.930 . S
C773 C772 1.376 . S
C773 C774 1.388 . S
C774 H761 0.930 . S
C774 C773 1.388 . S
C774 C775 1.390 . S
C775 C774 1.390 . S
C775 C776 1.394 . S
C775 C781 1.465 . S
C776 C771 1.399 . S
C776 C775 1.394 . S
C776 C777 1.516 . S
C777 C776 1.516 . S
C777 C778 1.502 . S
C777 C779 1.561 . S
C777 C780 1.526 . S
C778 H762 0.959 . S
C778 H763 0.959 . S
C778 H764 0.961 . S
C778 C777 1.502 . S
C779 H765 0.960 . S
C779 H766 0.961 . S
C779 H767 0.959 . S
C779 C777 1.561 . S
C780 C777 1.526 . S
C780 C781 1.396 . S
C780 C785 1.390 . S
C781 C775 1.465 . S
C781 C780 1.396 . S
C781 C782 1.399 . S
C782 H768 0.929 . S
C782 C781 1.399 . S
C782 C783 1.385 . S
C783 H769 0.931 . S
C783 C782 1.385 . S
C783 C784 1.389 . S
C784 C783 1.389 . S
C784 C785 1.387 . S
C785 H770 0.930 . S
C785 C780 1.390 . S
C785 C784 1.387 . S
H786 C798 0.930 1_545 S
H787 C800 0.930 1_545 S
H788 C801 0.930 . S
H789 C805 0.959 . S
H790 C805 0.959 . S
H791 C805 0.961 . S
H792 C806 0.960 . S
H793 C806 0.961 . S
H794 C806 0.959 . S
H795 C809 0.929 . S
H796 C810 0.931 . S
H797 C812 0.930 . S
C798 H786 0.930 1_565 S
C798 C799 1.399 1_565 S
C798 C803 1.399 . S
C799 C798 1.399 1_545 S
C799 C800 1.376 1_546 S
C800 H787 0.930 1_565 S
C800 C799 1.376 1_564 S
C800 C801 1.388 . S
C801 H788 0.930 . S
C801 C800 1.388 . S
C801 C802 1.390 1_554 S
C802 C801 1.390 1_556 S
C802 C803 1.394 . S
C802 C808 1.465 1_556 S
C803 C798 1.399 . S
C803 C802 1.394 . S
C803 C804 1.516 . S
C804 C803 1.516 . S
C804 C805 1.502 . S
C804 C806 1.561 . S
C804 C807 1.526 . S
C805 H789 0.959 . S
C805 H790 0.959 . S
C805 H791 0.961 . S
C805 C804 1.502 . S
C806 H792 0.960 . S
C806 H793 0.961 . S
C806 H794 0.959 . S
C806 C804 1.561 . S
C807 C804 1.526 . S
C807 C808 1.396 1_556 S
C807 C812 1.390 . S
C808 C802 1.465 1_554 S
C808 C807 1.396 1_554 S
C808 C809 1.399 . S
C809 H795 0.929 . S
C809 C808 1.399 . S
C809 C810 1.385 . S
C810 H796 0.931 . S
C810 C809 1.385 . S
C810 C811 1.387 1_554 S
C811 C810 1.387 1_556 S
C811 C812 1.389 . S
C812 H797 0.930 . S
C812 C807 1.390 . S
C812 C811 1.389 . S
H813 C825 0.930 . S
H814 C827 0.930 . S
H815 C828 0.930 . S
H816 C832 0.959 . S
H817 C832 0.959 . S
H818 C832 0.961 . S
H819 C833 0.960 . S
H820 C833 0.961 . S
H821 C833 0.959 . S
H822 C836 0.929 . S
H823 C837 0.931 . S
H824 C839 0.930 . S
C825 H813 0.930 . S
C825 C826 1.399 . S
C825 C830 1.399 . S
C826 C825 1.399 . S
C826 C827 1.376 . S
C827 H814 0.930 . S
C827 C826 1.376 . S
C827 C828 1.388 . S
C828 H815 0.930 . S
C828 C827 1.388 . S
C828 C829 1.390 . S
C829 C828 1.390 . S
C829 C830 1.394 . S
C829 C835 1.465 . S
C830 C825 1.399 . S
C830 C829 1.394 . S
C830 C831 1.516 . S
C831 C830 1.516 . S
C831 C832 1.502 . S
C831 C833 1.561 . S
C831 C834 1.526 . S
C832 H816 0.959 . S
C832 H817 0.959 . S
C832 H818 0.961 . S
C832 C831 1.502 . S
C833 H819 0.960 . S
C833 H820 0.961 . S
C833 H821 0.959 . S
C833 C831 1.561 . S
C834 C831 1.526 . S
C834 C835 1.396 . S
C834 C839 1.390 . S
C835 C829 1.465 . S
C835 C834 1.396 . S
C835 C836 1.399 . S
C836 H822 0.929 . S
C836 C835 1.399 . S
C836 C837 1.385 . S
C837 H823 0.931 . S
C837 C836 1.385 . S
C837 C838 1.389 . S
C838 C837 1.389 . S
C838 C839 1.387 . S
C839 H824 0.930 . S
C839 C834 1.390 . S
C839 C838 1.387 . S
H840 C852 0.930 . S
H841 C854 0.930 . S
H842 C855 0.930 1_565 S
H843 C859 0.959 . S
H844 C859 0.959 . S
H845 C859 0.961 . S
H846 C860 0.960 . S
H847 C860 0.961 . S
H848 C860 0.959 . S
H849 C863 0.929 . S
H850 C864 0.931 . S
H851 C866 0.930 . S
C852 H840 0.930 . S
C852 C853 1.399 . S
C852 C857 1.399 . S
C853 C852 1.399 . S
C853 C854 1.376 1_545 S
C854 H841 0.930 . S
C854 C853 1.376 1_565 S
C854 C855 1.388 1_565 S
C855 H842 0.930 1_545 S
C855 C854 1.388 1_545 S
C855 C856 1.390 . S
C856 C855 1.390 . S
C856 C857 1.394 . S
C856 C862 1.465 . S
C857 C852 1.399 . S
C857 C856 1.394 . S
C857 C858 1.516 . S
C858 C857 1.516 . S
C858 C859 1.502 . S
C858 C860 1.561 . S
C858 C861 1.526 . S
C859 H843 0.959 . S
C859 H844 0.959 . S
C859 H845 0.961 . S
C859 C858 1.502 . S
C860 H846 0.960 . S
C860 H847 0.961 . S
C860 H848 0.959 . S
C860 C858 1.561 . S
C861 C858 1.526 . S
C861 C862 1.396 . S
C861 C866 1.390 . S
C862 C856 1.465 . S
C862 C861 1.396 . S
C862 C863 1.399 . S
C863 H849 0.929 . S
C863 C862 1.399 . S
C863 C864 1.385 . S
C864 H850 0.931 . S
C864 C863 1.385 . S
C864 C865 1.389 . S
C865 C864 1.389 . S
C865 C866 1.387 . S
C866 H851 0.930 . S
C866 C861 1.390 . S
C866 C865 1.387 . S
H867 C879 0.930 . S
H868 C881 0.930 . S
H869 C882 0.930 . S
H870 C886 0.959 . S
H871 C886 0.959 . S
H872 C886 0.961 . S
H873 C887 0.960 . S
H874 C887 0.961 . S
H875 C887 0.959 . S
H876 C890 0.929 . S
H877 C891 0.931 . S
H878 C893 0.930 . S
C879 H867 0.930 . S
C879 C880 1.399 . S
C879 C884 1.399 . S
C880 C879 1.399 . S
C880 C881 1.376 . S
C881 H868 0.930 . S
C881 C880 1.376 . S
C881 C882 1.388 . S
C882 H869 0.930 . S
C882 C881 1.388 . S
C882 C883 1.390 . S
C883 C882 1.390 . S
C883 C884 1.394 . S
C883 C889 1.465 . S
C884 C879 1.399 . S
C884 C883 1.394 . S
C884 C885 1.516 . S
C885 C884 1.516 . S
C885 C886 1.502 . S
C885 C887 1.561 . S
C885 C888 1.526 . S
C886 H870 0.959 . S
C886 H871 0.959 . S
C886 H872 0.961 . S
C886 C885 1.502 . S
C887 H873 0.960 . S
C887 H874 0.961 . S
C887 H875 0.959 . S
C887 C885 1.561 . S
C888 C885 1.526 . S
C888 C889 1.396 . S
C888 C893 1.390 . S
C889 C883 1.465 . S
C889 C888 1.396 . S
C889 C890 1.399 . S
C890 H876 0.929 . S
C890 C889 1.399 . S
C890 C891 1.385 . S
C891 H877 0.931 . S
C891 C890 1.385 . S
C891 C892 1.389 . S
C892 C891 1.389 . S
C892 C893 1.387 . S
C893 H878 0.930 . S
C893 C888 1.390 . S
C893 C892 1.387 . S
H894 C906 0.930 . S
H895 C908 0.930 . S
H896 C909 0.930 . S
H897 C913 0.959 . S
H898 C913 0.959 . S
H899 C913 0.961 . S
H900 C914 0.960 . S
H901 C914 0.961 . S
H902 C914 0.959 . S
H903 C917 0.929 . S
H904 C918 0.931 . S
H905 C920 0.930 . S
C906 H894 0.930 . S
C906 C907 1.399 1_545 S
C906 C911 1.399 . S
C907 C906 1.399 1_565 S
C907 C908 1.376 . S
C908 H895 0.930 . S
C908 C907 1.376 . S
C908 C909 1.388 1_565 S
C909 H896 0.930 . S
C909 C908 1.388 1_545 S
C909 C910 1.390 . S
C910 C909 1.390 . S
C910 C911 1.394 . S
C910 C916 1.465 . S
C911 C906 1.399 . S
C911 C910 1.394 . S
C911 C912 1.516 . S
C912 C911 1.516 . S
C912 C913 1.502 . S
C912 C914 1.561 . S
C912 C915 1.526 . S
C913 H897 0.959 . S
C913 H898 0.959 . S
C913 H899 0.961 . S
C913 C912 1.502 . S
C914 H900 0.960 . S
C914 H901 0.961 . S
C914 H902 0.959 . S
C914 C912 1.561 . S
C915 C912 1.526 . S
C915 C916 1.396 . S
C915 C920 1.390 . S
C916 C910 1.465 . S
C916 C915 1.396 . S
C916 C917 1.399 . S
C917 H903 0.929 . S
C917 C916 1.399 . S
C917 C918 1.385 . S
C918 H904 0.931 . S
C918 C917 1.385 . S
C918 C919 1.389 . S
C919 C918 1.389 . S
C919 C920 1.387 . S
C920 H905 0.930 . S
C920 C915 1.390 . S
C920 C919 1.387 . S
H921 C933 0.930 . S
H922 C935 0.930 . S
H923 C936 0.930 . S
H924 C940 0.959 . S
H925 C940 0.959 . S
H926 C940 0.961 . S
H927 C941 0.960 . S
H928 C941 0.961 . S
H929 C941 0.959 . S
H930 C944 0.929 . S
H931 C945 0.931 . S
H932 C947 0.930 . S
C933 H921 0.930 . S
C933 C934 1.399 . S
C933 C938 1.399 . S
C934 C933 1.399 . S
C934 C935 1.376 . S
C935 H922 0.930 . S
C935 C934 1.376 . S
C935 C936 1.388 . S
C936 H923 0.930 . S
C936 C935 1.388 . S
C936 C937 1.390 . S
C937 C936 1.390 . S
C937 C938 1.394 . S
C937 C943 1.465 . S
C938 C933 1.399 . S
C938 C937 1.394 . S
C938 C939 1.516 . S
C939 C938 1.516 . S
C939 C940 1.502 . S
C939 C941 1.561 . S
C939 C942 1.526 . S
C940 H924 0.959 . S
C940 H925 0.959 . S
C940 H926 0.961 . S
C940 C939 1.502 . S
C941 H927 0.960 . S
C941 H928 0.961 . S
C941 H929 0.959 . S
C941 C939 1.561 . S
C942 C939 1.526 . S
C942 C943 1.396 . S
C942 C947 1.390 . S
C943 C937 1.465 . S
C943 C942 1.396 . S
C943 C944 1.399 . S
C944 H930 0.929 . S
C944 C943 1.399 . S
C944 C945 1.385 . S
C945 H931 0.931 . S
C945 C944 1.385 . S
C945 C946 1.389 . S
C946 C945 1.389 . S
C946 C947 1.387 . S
C947 H932 0.930 . S
C947 C942 1.390 . S
C947 C946 1.387 . S
H948 C960 0.930 . S
H949 C962 0.930 . S
H950 C963 0.930 . S
H951 C967 0.959 . S
H952 C967 0.959 . S
H953 C967 0.961 . S
H954 C968 0.960 . S
H955 C968 0.961 . S
H956 C968 0.959 . S
H957 C971 0.929 . S
H958 C972 0.931 . S
H959 C974 0.930 . S
C960 H948 0.930 . S
C960 C961 1.399 . S
C960 C965 1.399 . S
C961 C960 1.399 . S
C961 C962 1.376 . S
C962 H949 0.930 . S
C962 C961 1.376 . S
C962 C963 1.388 . S
C963 H950 0.930 . S
C963 C962 1.388 . S
C963 C964 1.390 . S
C964 C963 1.390 . S
C964 C965 1.394 . S
C964 C970 1.465 . S
C965 C960 1.399 . S
C965 C964 1.394 . S
C965 C966 1.516 . S
C966 C965 1.516 . S
C966 C967 1.502 . S
C966 C968 1.561 . S
C966 C969 1.526 . S
C967 H951 0.959 . S
C967 H952 0.959 . S
C967 H953 0.961 . S
C967 C966 1.502 . S
C968 H954 0.960 . S
C968 H955 0.961 . S
C968 H956 0.959 . S
C968 C966 1.561 . S
C969 C966 1.526 . S
C969 C970 1.396 . S
C969 C974 1.390 . S
C970 C964 1.465 . S
C970 C969 1.396 . S
C970 C971 1.399 . S
C971 H957 0.929 . S
C971 C970 1.399 . S
C971 C972 1.385 . S
C972 H958 0.931 . S
C972 C971 1.385 . S
C972 C973 1.389 . S
C973 C972 1.389 . S
C973 C974 1.387 . S
C974 H959 0.930 . S
C974 C969 1.390 . S
C974 C973 1.387 . S
H975 C987 0.930 1_565 S
H976 C989 0.930 . S
H977 C990 0.930 . S
H978 C994 0.959 . S
H979 C994 0.959 . S
H980 C994 0.961 . S
H981 C995 0.960 . S
H982 C995 0.961 . S
H983 C995 0.959 . S
H984 C998 0.929 . S
H985 C999 0.931 . S
H986 C1001 0.930 . S
C987 H975 0.930 1_545 S
C987 C988 1.399 . S
C987 C992 1.399 . S
C988 C987 1.399 . S
C988 C989 1.376 . S
C989 H976 0.930 . S
C989 C988 1.376 . S
C989 C990 1.388 . S
C990 H977 0.930 . S
C990 C989 1.388 . S
C990 C991 1.390 . S
C991 C990 1.390 . S
C991 C992 1.394 . S
C991 C997 1.465 . S
C992 C987 1.399 . S
C992 C991 1.394 . S
C992 C993 1.516 1_545 S
C993 C992 1.516 1_565 S
C993 C994 1.502 . S
C993 C995 1.561 . S
C993 C996 1.526 1_565 S
C994 H978 0.959 . S
C994 H979 0.959 . S
C994 H980 0.961 . S
C994 C993 1.502 . S
C995 H981 0.960 . S
C995 H982 0.961 . S
C995 H983 0.959 . S
C995 C993 1.561 . S
C996 C993 1.526 1_545 S
C996 C997 1.396 . S
C996 C1001 1.390 1_545 S
C997 C991 1.465 . S
C997 C996 1.396 . S
C997 C998 1.399 . S
C998 H984 0.929 . S
C998 C997 1.399 . S
C998 C999 1.385 . S
C999 H985 0.931 . S
C999 C998 1.385 . S
C999 C1000 1.389 . S
C1000 C999 1.389 . S
C1000 C1001 1.387 1_545 S
C1001 H986 0.930 . S
C1001 C996 1.390 1_565 S
C1001 C1000 1.387 1_565 S
H1002 C1014 0.930 . S
H1003 C1016 0.930 . S
H1004 C1017 0.930 . S
H1005 C1021 0.959 . S
H1006 C1021 0.959 . S
H1007 C1021 0.961 . S
H1008 C1022 0.960 . S
H1009 C1022 0.961 . S
H1010 C1022 0.959 . S
H1011 C1025 0.929 . S
H1012 C1026 0.931 . S
H1013 C1028 0.930 . S
C1014 H1002 0.930 . S
C1014 C1015 1.399 . S
C1014 C1019 1.399 . S
C1015 C1014 1.399 . S
C1015 C1016 1.376 . S
C1016 H1003 0.930 . S
C1016 C1015 1.376 . S
C1016 C1017 1.388 . S
C1017 H1004 0.930 . S
C1017 C1016 1.388 . S
C1017 C1018 1.390 . S
C1018 C1017 1.390 . S
C1018 C1019 1.394 . S
C1018 C1024 1.465 . S
C1019 C1014 1.399 . S
C1019 C1018 1.394 . S
C1019 C1020 1.516 . S
C1020 C1019 1.516 . S
C1020 C1021 1.502 . S
C1020 C1022 1.561 . S
C1020 C1023 1.526 . S
C1021 H1005 0.959 . S
C1021 H1006 0.959 . S
C1021 H1007 0.961 . S
C1021 C1020 1.502 . S
C1022 H1008 0.960 . S
C1022 H1009 0.961 . S
C1022 H1010 0.959 . S
C1022 C1020 1.561 . S
C1023 C1020 1.526 . S
C1023 C1024 1.396 . S
C1023 C1028 1.390 . S
C1024 C1018 1.465 . S
C1024 C1023 1.396 . S
C1024 C1025 1.399 . S
C1025 H1011 0.929 . S
C1025 C1024 1.399 . S
C1025 C1026 1.385 . S
C1026 H1012 0.931 . S
C1026 C1025 1.385 . S
C1026 C1027 1.389 . S
C1027 C1026 1.389 . S
C1027 C1028 1.387 . S
C1028 H1013 0.930 . S
C1028 C1023 1.390 . S
C1028 C1027 1.387 . S
H1029 C1041 0.930 . S
H1030 C1043 0.930 . S
H1031 C1044 0.930 . S
H1032 C1048 0.959 . S
H1033 C1048 0.959 . S
H1034 C1048 0.961 . S
H1035 C1049 0.960 . S
H1036 C1049 0.961 . S
H1037 C1049 0.959 . S
H1038 C1052 0.929 . S
H1039 C1053 0.931 . S
H1040 C1055 0.930 . S
C1041 H1029 0.930 . S
C1041 C1042 1.399 . S
C1041 C1046 1.399 . S
C1042 C1041 1.399 . S
C1042 C1043 1.376 . S
C1043 H1030 0.930 . S
C1043 C1042 1.376 . S
C1043 C1044 1.388 . S
C1044 H1031 0.930 . S
C1044 C1043 1.388 . S
C1044 C1045 1.390 . S
C1045 C1044 1.390 . S
C1045 C1046 1.394 . S
C1045 C1051 1.465 . S
C1046 C1041 1.399 . S
C1046 C1045 1.394 . S
C1046 C1047 1.516 . S
C1047 C1046 1.516 . S
C1047 C1048 1.502 . S
C1047 C1049 1.561 . S
C1047 C1050 1.526 . S
C1048 H1032 0.959 . S
C1048 H1033 0.959 . S
C1048 H1034 0.961 . S
C1048 C1047 1.502 . S
C1049 H1035 0.960 . S
C1049 H1036 0.961 . S
C1049 H1037 0.959 . S
C1049 C1047 1.561 . S
C1050 C1047 1.526 . S
C1050 C1051 1.396 . S
C1050 C1055 1.390 . S
C1051 C1045 1.465 . S
C1051 C1050 1.396 . S
C1051 C1052 1.399 . S
C1052 H1038 0.929 . S
C1052 C1051 1.399 . S
C1052 C1053 1.385 . S
C1053 H1039 0.931 . S
C1053 C1052 1.385 . S
C1053 C1054 1.389 . S
C1054 C1053 1.389 . S
C1054 C1055 1.387 . S
C1055 H1040 0.930 . S
C1055 C1050 1.390 . S
C1055 C1054 1.387 . S
H1056 C1068 0.930 . S
H1057 C1070 0.930 . S
H1058 C1071 0.930 . S
H1059 C1075 0.959 . S
H1060 C1075 0.959 . S
H1061 C1075 0.961 . S
H1062 C1076 0.960 . S
H1063 C1076 0.961 . S
H1064 C1076 0.959 . S
H1065 C1079 0.929 . S
H1066 C1080 0.931 . S
H1067 C1082 0.930 . S
C1068 H1056 0.930 . S
C1068 C1069 1.399 . S
C1068 C1073 1.399 . S
C1069 C1068 1.399 . S
C1069 C1070 1.376 . S
C1070 H1057 0.930 . S
C1070 C1069 1.376 . S
C1070 C1071 1.388 . S
C1071 H1058 0.930 . S
C1071 C1070 1.388 . S
C1071 C1072 1.390 . S
C1072 C1071 1.390 . S
C1072 C1073 1.394 . S
C1072 C1078 1.465 . S
C1073 C1068 1.399 . S
C1073 C1072 1.394 . S
C1073 C1074 1.516 . S
C1074 C1073 1.516 . S
C1074 C1075 1.502 . S
C1074 C1076 1.561 . S
C1074 C1077 1.526 . S
C1075 H1059 0.959 . S
C1075 H1060 0.959 . S
C1075 H1061 0.961 . S
C1075 C1074 1.502 . S
C1076 H1062 0.960 . S
C1076 H1063 0.961 . S
C1076 H1064 0.959 . S
C1076 C1074 1.561 . S
C1077 C1074 1.526 . S
C1077 C1078 1.396 . S
C1077 C1082 1.390 . S
C1078 C1072 1.465 . S
C1078 C1077 1.396 . S
C1078 C1079 1.399 . S
C1079 H1065 0.929 . S
C1079 C1078 1.399 . S
C1079 C1080 1.385 . S
C1080 H1066 0.931 . S
C1080 C1079 1.385 . S
C1080 C1081 1.389 . S
C1081 C1080 1.389 . S
C1081 C1082 1.387 . S
C1082 H1067 0.930 . S
C1082 C1077 1.390 . S
C1082 C1081 1.387 . S
H1083 C1095 0.912 1_455 S
H1084 C1097 0.930 . S
H1085 C1098 0.930 1_565 S
H1086 C1102 0.959 1_455 S
H1087 C1102 0.959 . S
H1088 C1102 0.961 1_455 S
H1089 C1103 0.960 . S
H1090 C1103 0.961 . S
H1091 C1103 0.959 . S
H1092 C1106 0.929 . S
H1093 C1107 0.931 . S
H1094 C1109 0.930 . S
C1095 H1083 0.912 1_655 S
C1095 C1096 1.392 1_655 S
C1095 C1100 1.425 . S
C1096 C1095 1.392 1_455 S
C1096 C1097 1.376 1_455 S
C1097 H1084 0.930 . S
C1097 C1096 1.376 1_655 S
C1097 C1098 1.388 . S
C1098 H1085 0.930 1_545 S
C1098 C1097 1.388 . S
C1098 C1099 1.390 . S
C1099 C1098 1.390 . S
C1099 C1100 1.394 . S
C1099 C1105 1.465 . S
C1100 C1095 1.425 . S
C1100 C1099 1.394 . S
C1100 C1101 1.516 . S
C1101 C1100 1.516 . S
C1101 C1102 1.502 . S
C1101 C1103 1.561 . S
C1101 C1104 1.526 . S
C1102 H1086 0.959 1_655 S
C1102 H1087 0.959 . S
C1102 H1088 0.961 1_655 S
C1102 C1101 1.502 . S
C1103 H1089 0.960 . S
C1103 H1090 0.961 . S
C1103 H1091 0.959 . S
C1103 C1101 1.561 . S
C1104 C1101 1.526 . S
C1104 C1105 1.396 . S
C1104 C1109 1.390 . S
C1105 C1099 1.465 . S
C1105 C1104 1.396 . S
C1105 C1106 1.399 1_545 S
C1106 H1092 0.929 . S
C1106 C1105 1.399 1_565 S
C1106 C1107 1.385 . S
C1107 H1093 0.931 . S
C1107 C1106 1.385 . S
C1107 C1108 1.389 1_565 S
C1108 C1107 1.389 1_545 S
C1108 C1109 1.387 . S
C1109 H1094 0.930 . S
C1109 C1104 1.390 . S
C1109 C1108 1.387 . S
H1110 C1122 0.930 . S
H1111 C1124 0.930 . S
H1112 C1125 0.930 . S
H1113 C1129 0.959 . S
H1114 C1129 0.959 . S
H1115 C1129 0.961 . S
H1116 C1130 0.960 . S
H1117 C1130 0.961 . S
H1118 C1130 0.959 . S
H1119 C1133 0.929 . S
H1120 C1134 0.931 . S
H1121 C1136 0.930 . S
C1122 H1110 0.930 . S
C1122 C1123 1.399 . S
C1122 C1127 1.399 . S
C1123 C1122 1.399 . S
C1123 C1124 1.376 . S
C1124 H1111 0.930 . S
C1124 C1123 1.376 . S
C1124 C1125 1.388 . S
C1125 H1112 0.930 . S
C1125 C1124 1.388 . S
C1125 C1126 1.390 . S
C1126 C1125 1.390 . S
C1126 C1127 1.394 . S
C1126 C1132 1.465 . S
C1127 C1122 1.399 . S
C1127 C1126 1.394 . S
C1127 C1128 1.516 . S
C1128 C1127 1.516 . S
C1128 C1129 1.502 . S
C1128 C1130 1.561 . S
C1128 C1131 1.526 . S
C1129 H1113 0.959 . S
C1129 H1114 0.959 . S
C1129 H1115 0.961 . S
C1129 C1128 1.502 . S
C1130 H1116 0.960 . S
C1130 H1117 0.961 . S
C1130 H1118 0.959 . S
C1130 C1128 1.561 . S
C1131 C1128 1.526 . S
C1131 C1132 1.396 . S
C1131 C1136 1.390 . S
C1132 C1126 1.465 . S
C1132 C1131 1.396 . S
C1132 C1133 1.399 . S
C1133 H1119 0.929 . S
C1133 C1132 1.399 . S
C1133 C1134 1.385 . S
C1134 H1120 0.931 . S
C1134 C1133 1.385 . S
C1134 C1135 1.389 . S
C1135 C1134 1.389 . S
C1135 C1136 1.387 . S
C1136 H1121 0.930 . S
C1136 C1131 1.390 . S
C1136 C1135 1.387 . S
H1137 C1149 0.930 . S
H1138 C1151 0.930 . S
H1139 C1152 0.930 . S
H1140 C1156 0.959 . S
H1141 C1156 0.959 . S
H1142 C1156 0.961 . S
H1143 C1157 0.960 . S
H1144 C1157 0.961 . S
H1145 C1157 0.959 . S
H1146 C1160 0.929 . S
H1147 C1161 0.931 . S
H1148 C1163 0.930 . S
C1149 H1137 0.930 . S
C1149 C1150 1.399 1_455 S
C1149 C1154 1.399 . S
C1150 C1149 1.399 1_655 S
C1150 C1151 1.376 . S
C1151 H1138 0.930 . S
C1151 C1150 1.376 . S
C1151 C1152 1.388 1_655 S
C1152 H1139 0.930 . S
C1152 C1151 1.388 1_455 S
C1152 C1153 1.390 . S
C1153 C1152 1.390 . S
C1153 C1154 1.394 . S
C1153 C1159 1.465 . S
C1154 C1149 1.399 . S
C1154 C1153 1.394 . S
C1154 C1155 1.516 . S
C1155 C1154 1.516 . S
C1155 C1156 1.502 . S
C1155 C1157 1.561 . S
C1155 C1158 1.526 . S
C1156 H1140 0.959 . S
C1156 H1141 0.959 . S
C1156 H1142 0.961 . S
C1156 C1155 1.502 . S
C1157 H1143 0.960 . S
C1157 H1144 0.961 . S
C1157 H1145 0.959 . S
C1157 C1155 1.561 . S
C1158 C1155 1.526 . S
C1158 C1159 1.396 . S
C1158 C1163 1.390 . S
C1159 C1153 1.465 . S
C1159 C1158 1.396 . S
C1159 C1160 1.399 . S
C1160 H1146 0.929 . S
C1160 C1159 1.399 . S
C1160 C1161 1.385 . S
C1161 H1147 0.931 . S
C1161 C1160 1.385 . S
C1161 C1162 1.389 . S
C1162 C1161 1.389 . S
C1162 C1163 1.387 . S
C1163 H1148 0.930 . S
C1163 C1158 1.390 . S
C1163 C1162 1.387 . S
H1164 C1176 0.930 . S
H1165 C1178 0.930 . S
H1166 C1179 0.930 . S
H1167 C1183 0.959 . S
H1168 C1183 0.959 . S
H1169 C1183 0.961 . S
H1170 C1184 0.960 . S
H1171 C1184 0.961 . S
H1172 C1184 0.959 . S
H1173 C1187 0.929 . S
H1174 C1188 0.931 . S
H1175 C1190 0.930 . S
C1176 H1164 0.930 . S
C1176 C1177 1.399 . S
C1176 C1181 1.399 . S
C1177 C1176 1.399 . S
C1177 C1178 1.376 . S
C1178 H1165 0.930 . S
C1178 C1177 1.376 . S
C1178 C1179 1.388 . S
C1179 H1166 0.930 . S
C1179 C1178 1.388 . S
C1179 C1180 1.390 . S
C1180 C1179 1.390 . S
C1180 C1181 1.394 . S
C1180 C1186 1.465 . S
C1181 C1176 1.399 . S
C1181 C1180 1.394 . S
C1181 C1182 1.516 . S
C1182 C1181 1.516 . S
C1182 C1183 1.502 . S
C1182 C1184 1.561 . S
C1182 C1185 1.526 . S
C1183 H1167 0.959 . S
C1183 H1168 0.959 . S
C1183 H1169 0.961 . S
C1183 C1182 1.502 . S
C1184 H1170 0.960 . S
C1184 H1171 0.961 . S
C1184 H1172 0.959 . S
C1184 C1182 1.561 . S
C1185 C1182 1.526 . S
C1185 C1186 1.396 . S
C1185 C1190 1.390 . S
C1186 C1180 1.465 . S
C1186 C1185 1.396 . S
C1186 C1187 1.399 . S
C1187 H1173 0.929 . S
C1187 C1186 1.399 . S
C1187 C1188 1.385 . S
C1188 H1174 0.931 . S
C1188 C1187 1.385 . S
C1188 C1189 1.389 . S
C1189 C1188 1.389 . S
C1189 C1190 1.387 . S
C1190 H1175 0.930 . S
C1190 C1185 1.390 . S
C1190 C1189 1.387 . S
H1191 C1203 0.930 . S
H1192 C1205 0.930 1_455 S
H1193 C1206 0.930 1_554 S
H1194 C1210 0.959 . S
H1195 C1210 0.959 . S
H1196 C1210 0.961 . S
H1197 C1211 0.960 . S
H1198 C1211 0.961 . S
H1199 C1211 0.959 . S
H1200 C1214 0.929 . S
H1201 C1215 0.931 . S
H1202 C1217 0.930 . S
C1203 H1191 0.930 . S
C1203 C1204 1.368 1_556 S
C1203 C1208 1.399 . S
C1204 C1203 1.368 1_554 S
C1204 C1205 1.390 . S
C1205 H1192 0.930 1_655 S
C1205 C1204 1.390 . S
C1205 C1206 1.388 1_654 S
C1206 H1193 0.930 1_556 S
C1206 C1205 1.388 1_456 S
C1206 C1207 1.390 1_455 S
C1207 C1206 1.390 1_655 S
C1207 C1208 1.394 . S
C1207 C1213 1.465 . S
C1208 C1203 1.399 . S
C1208 C1207 1.394 . S
C1208 C1209 1.516 . S
C1209 C1208 1.516 . S
C1209 C1210 1.502 . S
C1209 C1211 1.561 . S
C1209 C1212 1.526 . S
C1210 H1194 0.959 . S
C1210 H1195 0.959 . S
C1210 H1196 0.961 . S
C1210 C1209 1.502 . S
C1211 H1197 0.960 . S
C1211 H1198 0.961 . S
C1211 H1199 0.959 . S
C1211 C1209 1.561 . S
C1212 C1209 1.526 . S
C1212 C1213 1.396 . S
C1212 C1217 1.390 . S
C1213 C1207 1.465 . S
C1213 C1212 1.396 . S
C1213 C1214 1.399 1_655 S
C1214 H1200 0.929 . S
C1214 C1213 1.399 1_455 S
C1214 C1215 1.385 . S
C1215 H1201 0.931 . S
C1215 C1214 1.385 . S
C1215 C1216 1.389 1_455 S
C1216 C1215 1.389 1_655 S
C1216 C1217 1.387 . S
C1217 H1202 0.930 . S
C1217 C1212 1.390 . S
C1217 C1216 1.387 . S
H1218 C1230 0.930 . S
H1219 C1232 0.930 . S
H1220 C1233 0.930 . S
H1221 C1237 0.959 . S
H1222 C1237 0.959 . S
H1223 C1237 0.961 . S
H1224 C1238 0.960 . S
H1225 C1238 0.961 . S
H1226 C1238 0.959 . S
H1227 C1241 0.929 . S
H1228 C1242 0.931 . S
H1229 C1244 0.930 . S
C1230 H1218 0.930 . S
C1230 C1231 1.399 . S
C1230 C1235 1.399 . S
C1231 C1230 1.399 . S
C1231 C1232 1.376 . S
C1232 H1219 0.930 . S
C1232 C1231 1.376 . S
C1232 C1233 1.388 . S
C1233 H1220 0.930 . S
C1233 C1232 1.388 . S
C1233 C1234 1.390 . S
C1234 C1233 1.390 . S
C1234 C1235 1.394 . S
C1234 C1240 1.465 . S
C1235 C1230 1.399 . S
C1235 C1234 1.394 . S
C1235 C1236 1.516 . S
C1236 C1235 1.516 . S
C1236 C1237 1.502 . S
C1236 C1238 1.561 . S
C1236 C1239 1.526 . S
C1237 H1221 0.959 . S
C1237 H1222 0.959 . S
C1237 H1223 0.961 . S
C1237 C1236 1.502 . S
C1238 H1224 0.960 . S
C1238 H1225 0.961 . S
C1238 H1226 0.959 . S
C1238 C1236 1.561 . S
C1239 C1236 1.526 . S
C1239 C1240 1.396 . S
C1239 C1244 1.390 . S
C1240 C1234 1.465 . S
C1240 C1239 1.396 . S
C1240 C1241 1.399 . S
C1241 H1227 0.929 . S
C1241 C1240 1.399 . S
C1241 C1242 1.385 . S
C1242 H1228 0.931 . S
C1242 C1241 1.385 . S
C1242 C1243 1.389 . S
C1243 C1242 1.389 . S
C1243 C1244 1.387 . S
C1244 H1229 0.930 . S
C1244 C1239 1.390 . S
C1244 C1243 1.387 . S
H1245 C1257 0.930 . S
H1246 C1259 0.930 . S
H1247 C1260 0.930 . S
H1248 C1264 0.959 . S
H1249 C1264 0.959 . S
H1250 C1264 0.961 . S
H1251 C1265 0.959 1_455 S
H1252 C1265 0.961 . S
H1253 C1265 0.959 . S
H1254 C1268 0.929 . S
H1255 C1269 0.931 . S
H1256 C1271 0.930 . S
C1257 H1245 0.930 . S
C1257 C1258 1.399 1_556 S
C1257 C1262 1.399 . S
C1258 C1257 1.399 1_554 S
C1258 C1259 1.376 . S
C1259 H1246 0.930 . S
C1259 C1258 1.376 . S
C1259 C1260 1.388 . S
C1260 H1247 0.930 . S
C1260 C1259 1.388 . S
C1260 C1261 1.390 1_554 S
C1261 C1260 1.390 1_556 S
C1261 C1262 1.394 . S
C1261 C1267 1.465 . S
C1262 C1257 1.399 . S
C1262 C1261 1.394 . S
C1262 C1263 1.516 . S
C1263 C1262 1.516 . S
C1263 C1264 1.502 . S
C1263 C1265 1.561 1_455 S
C1263 C1266 1.526 . S
C1264 H1248 0.959 . S
C1264 H1249 0.959 . S
C1264 H1250 0.961 . S
C1264 C1263 1.502 . S
C1265 H1251 0.959 1_655 S
C1265 H1252 0.961 . S
C1265 H1253 0.959 . S
C1265 C1263 1.561 1_655 S
C1266 C1263 1.526 . S
C1266 C1267 1.396 . S
C1266 C1271 1.390 . S
C1267 C1261 1.465 . S
C1267 C1266 1.396 . S
C1267 C1268 1.399 . S
C1268 H1254 0.929 . S
C1268 C1267 1.399 . S
C1268 C1269 1.385 . S
C1269 H1255 0.931 . S
C1269 C1268 1.385 . S
C1269 C1270 1.389 . S
C1270 C1269 1.389 . S
C1270 C1271 1.387 . S
C1271 H1256 0.930 . S
C1271 C1266 1.390 . S
C1271 C1270 1.387 . S
H1272 C1284 0.930 . S
H1273 C1286 0.930 . S
H1274 C1287 0.930 . S
H1275 C1291 0.959 . S
H1276 C1291 0.959 . S
H1277 C1291 0.961 . S
H1278 C1292 0.960 . S
H1279 C1292 0.961 . S
H1280 C1292 0.959 . S
H1281 C1295 0.929 . S
H1282 C1296 0.931 . S
H1283 C1298 0.930 . S
C1284 H1272 0.930 . S
C1284 C1285 1.399 . S
C1284 C1289 1.399 . S
C1285 C1284 1.399 . S
C1285 C1286 1.376 . S
C1286 H1273 0.930 . S
C1286 C1285 1.376 . S
C1286 C1287 1.388 . S
C1287 H1274 0.930 . S
C1287 C1286 1.388 . S
C1287 C1288 1.390 . S
C1288 C1287 1.390 . S
C1288 C1289 1.394 . S
C1288 C1294 1.465 . S
C1289 C1284 1.399 . S
C1289 C1288 1.394 . S
C1289 C1290 1.516 . S
C1290 C1289 1.516 . S
C1290 C1291 1.502 . S
C1290 C1292 1.561 . S
C1290 C1293 1.526 . S
C1291 H1275 0.959 . S
C1291 H1276 0.959 . S
C1291 H1277 0.961 . S
C1291 C1290 1.502 . S
C1292 H1278 0.960 . S
C1292 H1279 0.961 . S
C1292 H1280 0.959 . S
C1292 C1290 1.561 . S
C1293 C1290 1.526 . S
C1293 C1294 1.396 . S
C1293 C1298 1.390 . S
C1294 C1288 1.465 . S
C1294 C1293 1.396 . S
C1294 C1295 1.399 . S
C1295 H1281 0.929 . S
C1295 C1294 1.399 . S
C1295 C1296 1.385 . S
C1296 H1282 0.931 . S
C1296 C1295 1.385 . S
C1296 C1297 1.389 . S
C1297 C1296 1.389 . S
C1297 C1298 1.387 . S
C1298 H1283 0.930 . S
C1298 C1293 1.390 . S
C1298 C1297 1.387 . S
H1299 C1311 0.930 . S
H1300 C1313 0.930 . S
H1301 C1314 0.930 . S
H1302 C1318 0.959 . S
H1303 C1318 0.959 . S
H1304 C1318 0.961 1_556 S
H1305 C1319 0.960 . S
H1306 C1319 0.961 . S
H1307 C1319 0.959 . S
H1308 C1322 0.929 . S
H1309 C1323 0.931 . S
H1310 C1325 0.930 . S
C1311 H1299 0.930 . S
C1311 C1312 1.399 . S
C1311 C1316 1.399 1_556 S
C1312 C1311 1.399 . S
C1312 C1313 1.376 1_556 S
C1313 H1300 0.930 . S
C1313 C1312 1.376 1_554 S
C1313 C1314 1.388 . S
C1314 H1301 0.930 . S
C1314 C1313 1.388 . S
C1314 C1315 1.390 . S
C1315 C1314 1.390 . S
C1315 C1316 1.394 . S
C1315 C1321 1.465 . S
C1316 C1311 1.399 1_554 S
C1316 C1315 1.394 . S
C1316 C1317 1.516 . S
C1317 C1316 1.516 . S
C1317 C1318 1.502 . S
C1317 C1319 1.561 1_554 S
C1317 C1320 1.526 . S
C1318 H1302 0.959 . S
C1318 H1303 0.959 . S
C1318 H1304 0.961 1_554 S
C1318 C1317 1.502 . S
C1319 H1305 0.960 . S
C1319 H1306 0.961 . S
C1319 H1307 0.959 . S
C1319 C1317 1.561 1_556 S
C1320 C1317 1.526 . S
C1320 C1321 1.396 . S
C1320 C1325 1.390 . S
C1321 C1315 1.465 . S
C1321 C1320 1.396 . S
C1321 C1322 1.399 . S
C1322 H1308 0.929 . S
C1322 C1321 1.399 . S
C1322 C1323 1.385 . S
C1323 H1309 0.931 . S
C1323 C1322 1.385 . S
C1323 C1324 1.389 . S
C1324 C1323 1.389 . S
C1324 C1325 1.387 . S
C1325 H1310 0.930 . S
C1325 C1320 1.390 . S
C1325 C1324 1.387 . S
H1326 C1338 0.930 . S
H1327 C1340 0.930 . S
H1328 C1341 0.930 . S
H1329 C1345 0.959 . S
H1330 C1345 0.959 . S
H1331 C1345 0.961 . S
H1332 C1346 0.960 . S
H1333 C1346 0.961 . S
H1334 C1346 0.959 . S
H1335 C1349 0.929 . S
H1336 C1350 0.931 . S
H1337 C1352 0.930 . S
C1338 H1326 0.930 . S
C1338 C1339 1.399 . S
C1338 C1343 1.399 . S
C1339 C1338 1.399 . S
C1339 C1340 1.376 . S
C1340 H1327 0.930 . S
C1340 C1339 1.376 . S
C1340 C1341 1.388 . S
C1341 H1328 0.930 . S
C1341 C1340 1.388 . S
C1341 C1342 1.390 . S
C1342 C1341 1.390 . S
C1342 C1343 1.394 . S
C1342 C1348 1.465 . S
C1343 C1338 1.399 . S
C1343 C1342 1.394 . S
C1343 C1344 1.516 . S
C1344 C1343 1.516 . S
C1344 C1345 1.502 . S
C1344 C1346 1.561 . S
C1344 C1347 1.526 . S
C1345 H1329 0.959 . S
C1345 H1330 0.959 . S
C1345 H1331 0.961 . S
C1345 C1344 1.502 . S
C1346 H1332 0.960 . S
C1346 H1333 0.961 . S
C1346 H1334 0.959 . S
C1346 C1344 1.561 . S
C1347 C1344 1.526 . S
C1347 C1348 1.396 . S
C1347 C1352 1.390 . S
C1348 C1342 1.465 . S
C1348 C1347 1.396 . S
C1348 C1349 1.399 . S
C1349 H1335 0.929 . S
C1349 C1348 1.399 . S
C1349 C1350 1.385 . S
C1350 H1336 0.931 . S
C1350 C1349 1.385 . S
C1350 C1351 1.389 . S
C1351 C1350 1.389 . S
C1351 C1352 1.387 . S
C1352 H1337 0.930 . S
C1352 C1347 1.390 . S
C1352 C1351 1.387 . S
H1353 C1365 0.930 . S
H1354 C1367 0.930 . S
H1355 C1368 0.930 . S
H1356 C1372 0.959 . S
H1357 C1372 0.959 . S
H1358 C1372 0.961 . S
H1359 C1373 0.960 . S
H1360 C1373 0.961 . S
H1361 C1373 0.959 . S
H1362 C1376 0.929 . S
H1363 C1377 0.931 . S
H1364 C1379 0.930 . S
C1365 H1353 0.930 . S
C1365 C1366 1.399 1_554 S
C1365 C1370 1.399 . S
C1366 C1365 1.399 1_556 S
C1366 C1367 1.376 . S
C1367 H1354 0.930 . S
C1367 C1366 1.376 . S
C1367 C1368 1.388 . S
C1368 H1355 0.930 . S
C1368 C1367 1.388 . S
C1368 C1369 1.390 1_556 S
C1369 C1368 1.390 1_554 S
C1369 C1370 1.394 . S
C1369 C1375 1.465 . S
C1370 C1365 1.399 . S
C1370 C1369 1.394 . S
C1370 C1371 1.516 . S
C1371 C1370 1.516 . S
C1371 C1372 1.502 . S
C1371 C1373 1.561 . S
C1371 C1374 1.526 . S
C1372 H1356 0.959 . S
C1372 H1357 0.959 . S
C1372 H1358 0.961 . S
C1372 C1371 1.502 . S
C1373 H1359 0.960 . S
C1373 H1360 0.961 . S
C1373 H1361 0.959 . S
C1373 C1371 1.561 . S
C1374 C1371 1.526 . S
C1374 C1375 1.396 . S
C1374 C1379 1.390 . S
C1375 C1369 1.465 . S
C1375 C1374 1.396 . S
C1375 C1376 1.399 . S
C1376 H1362 0.929 . S
C1376 C1375 1.399 . S
C1376 C1377 1.385 . S
C1377 H1363 0.931 . S
C1377 C1376 1.385 . S
C1377 C1378 1.389 . S
C1378 C1377 1.389 . S
C1378 C1379 1.387 . S
C1379 H1364 0.930 . S
C1379 C1374 1.390 . S
C1379 C1378 1.387 . S
H1380 C1392 0.930 . S
H1381 C1394 0.930 . S
H1382 C1395 0.930 . S
H1383 C1399 0.959 . S
H1384 C1399 0.959 . S
H1385 C1399 0.961 . S
H1386 C1400 0.960 . S
H1387 C1400 0.961 . S
H1388 C1400 0.959 . S
H1389 C1403 0.929 . S
H1390 C1404 0.931 . S
H1391 C1406 0.930 . S
C1392 H1380 0.930 . S
C1392 C1393 1.399 . S
C1392 C1397 1.399 . S
C1393 C1392 1.399 . S
C1393 C1394 1.376 . S
C1394 H1381 0.930 . S
C1394 C1393 1.376 . S
C1394 C1395 1.388 . S
C1395 H1382 0.930 . S
C1395 C1394 1.388 . S
C1395 C1396 1.390 . S
C1396 C1395 1.390 . S
C1396 C1397 1.394 . S
C1396 C1402 1.465 . S
C1397 C1392 1.399 . S
C1397 C1396 1.394 . S
C1397 C1398 1.516 . S
C1398 C1397 1.516 . S
C1398 C1399 1.502 . S
C1398 C1400 1.561 . S
C1398 C1401 1.526 . S
C1399 H1383 0.959 . S
C1399 H1384 0.959 . S
C1399 H1385 0.961 . S
C1399 C1398 1.502 . S
C1400 H1386 0.960 . S
C1400 H1387 0.961 . S
C1400 H1388 0.959 . S
C1400 C1398 1.561 . S
C1401 C1398 1.526 . S
C1401 C1402 1.396 . S
C1401 C1406 1.390 . S
C1402 C1396 1.465 . S
C1402 C1401 1.396 . S
C1402 C1403 1.399 . S
C1403 H1389 0.929 . S
C1403 C1402 1.399 . S
C1403 C1404 1.385 . S
C1404 H1390 0.931 . S
C1404 C1403 1.385 . S
C1404 C1405 1.389 . S
C1405 C1404 1.389 . S
C1405 C1406 1.387 . S
C1406 H1391 0.930 . S
C1406 C1401 1.390 . S
C1406 C1405 1.387 . S
H1407 C1419 0.930 . S
H1408 C1421 0.930 . S
H1409 C1422 0.930 . S
H1410 C1426 0.959 . S
H1411 C1426 0.959 . S
H1412 C1426 0.961 . S
H1413 C1427 0.960 . S
H1414 C1427 0.961 . S
H1415 C1427 0.959 . S
H1416 C1430 0.929 . S
H1417 C1431 0.931 . S
H1418 C1433 0.930 . S
C1419 H1407 0.930 . S
C1419 C1420 1.399 . S
C1419 C1424 1.399 . S
C1420 C1419 1.399 . S
C1420 C1421 1.376 . S
C1421 H1408 0.930 . S
C1421 C1420 1.376 . S
C1421 C1422 1.388 . S
C1422 H1409 0.930 . S
C1422 C1421 1.388 . S
C1422 C1423 1.390 . S
C1423 C1422 1.390 . S
C1423 C1424 1.394 . S
C1423 C1429 1.465 . S
C1424 C1419 1.399 . S
C1424 C1423 1.394 . S
C1424 C1425 1.516 . S
C1425 C1424 1.516 . S
C1425 C1426 1.502 . S
C1425 C1427 1.561 . S
C1425 C1428 1.526 . S
C1426 H1410 0.959 . S
C1426 H1411 0.959 . S
C1426 H1412 0.961 . S
C1426 C1425 1.502 . S
C1427 H1413 0.960 . S
C1427 H1414 0.961 . S
C1427 H1415 0.959 . S
C1427 C1425 1.561 . S
C1428 C1425 1.526 . S
C1428 C1429 1.396 . S
C1428 C1433 1.390 . S
C1429 C1423 1.465 . S
C1429 C1428 1.396 . S
C1429 C1430 1.399 . S
C1430 H1416 0.929 . S
C1430 C1429 1.399 . S
C1430 C1431 1.385 . S
C1431 H1417 0.931 . S
C1431 C1430 1.385 . S
C1431 C1432 1.389 . S
C1432 C1431 1.389 . S
C1432 C1433 1.387 . S
C1433 H1418 0.930 . S
C1433 C1428 1.390 . S
C1433 C1432 1.387 . S
H1434 C1446 0.930 . S
H1435 C1448 0.930 . S
H1436 C1449 0.930 . S
H1437 C1453 0.959 . S
H1438 C1453 0.959 . S
H1439 C1453 0.961 . S
H1440 C1454 0.960 . S
H1441 C1454 0.961 . S
H1442 C1454 0.959 . S
H1443 C1457 0.929 . S
H1444 C1458 0.931 . S
H1445 C1460 0.930 . S
C1446 H1434 0.930 . S
C1446 C1447 1.399 . S
C1446 C1451 1.399 . S
C1447 C1446 1.399 . S
C1447 C1448 1.376 . S
C1448 H1435 0.930 . S
C1448 C1447 1.376 . S
C1448 C1449 1.388 . S
C1449 H1436 0.930 . S
C1449 C1448 1.388 . S
C1449 C1450 1.390 . S
C1450 C1449 1.390 . S
C1450 C1451 1.394 . S
C1450 C1456 1.465 . S
C1451 C1446 1.399 . S
C1451 C1450 1.394 . S
C1451 C1452 1.516 . S
C1452 C1451 1.516 . S
C1452 C1453 1.502 . S
C1452 C1454 1.561 . S
C1452 C1455 1.526 . S
C1453 H1437 0.959 . S
C1453 H1438 0.959 . S
C1453 H1439 0.961 . S
C1453 C1452 1.502 . S
C1454 H1440 0.960 . S
C1454 H1441 0.961 . S
C1454 H1442 0.959 . S
C1454 C1452 1.561 . S
C1455 C1452 1.526 . S
C1455 C1456 1.396 . S
C1455 C1460 1.390 . S
C1456 C1450 1.465 . S
C1456 C1455 1.396 . S
C1456 C1457 1.399 . S
C1457 H1443 0.929 . S
C1457 C1456 1.399 . S
C1457 C1458 1.385 . S
C1458 H1444 0.931 . S
C1458 C1457 1.385 . S
C1458 C1459 1.389 . S
C1459 C1458 1.389 . S
C1459 C1460 1.387 . S
C1460 H1445 0.930 . S
C1460 C1455 1.390 . S
C1460 C1459 1.387 . S
H1461 C1473 0.930 . S
H1462 C1475 0.930 . S
H1463 C1476 0.930 . S
H1464 C1480 0.959 . S
H1465 C1480 0.959 . S
H1466 C1480 0.961 . S
H1467 C1481 0.960 . S
H1468 C1481 0.961 . S
H1469 C1481 0.959 . S
H1470 C1484 0.929 . S
H1471 C1485 0.931 . S
H1472 C1487 0.930 . S
C1473 H1461 0.930 . S
C1473 C1474 1.399 . S
C1473 C1478 1.399 . S
C1474 C1473 1.399 . S
C1474 C1475 1.376 . S
C1475 H1462 0.930 . S
C1475 C1474 1.376 . S
C1475 C1476 1.388 . S
C1476 H1463 0.930 . S
C1476 C1475 1.388 . S
C1476 C1477 1.390 . S
C1477 C1476 1.390 . S
C1477 C1478 1.394 . S
C1477 C1483 1.465 . S
C1478 C1473 1.399 . S
C1478 C1477 1.394 . S
C1478 C1479 1.516 . S
C1479 C1478 1.516 . S
C1479 C1480 1.502 . S
C1479 C1481 1.561 . S
C1479 C1482 1.526 . S
C1480 H1464 0.959 . S
C1480 H1465 0.959 . S
C1480 H1466 0.961 . S
C1480 C1479 1.502 . S
C1481 H1467 0.960 . S
C1481 H1468 0.961 . S
C1481 H1469 0.959 . S
C1481 C1479 1.561 . S
C1482 C1479 1.526 . S
C1482 C1483 1.396 . S
C1482 C1487 1.390 . S
C1483 C1477 1.465 . S
C1483 C1482 1.396 . S
C1483 C1484 1.399 . S
C1484 H1470 0.929 . S
C1484 C1483 1.399 . S
C1484 C1485 1.385 . S
C1485 H1471 0.931 . S
C1485 C1484 1.385 . S
C1485 C1486 1.389 . S
C1486 C1485 1.389 . S
C1486 C1487 1.387 . S
C1487 H1472 0.930 . S
C1487 C1482 1.390 . S
C1487 C1486 1.387 . S
H1488 C1500 0.930 . S
H1489 C1502 0.930 1_554 S
H1490 C1503 0.940 . S
H1491 C1507 0.959 . S
H1492 C1507 0.959 . S
H1493 C1507 0.961 . S
H1494 C1508 0.960 . S
H1495 C1508 0.961 . S
H1496 C1508 0.959 . S
H1497 C1511 0.929 . S
H1498 C1512 0.931 . S
H1499 C1514 0.930 . S
C1500 H1488 0.930 . S
C1500 C1501 1.399 . S
C1500 C1505 1.399 . S
C1501 C1500 1.399 . S
C1501 C1502 1.376 . S
C1502 H1489 0.930 1_556 S
C1502 C1501 1.376 . S
C1502 C1503 1.385 1_556 S
C1503 H1490 0.940 . S
C1503 C1502 1.385 1_554 S
C1503 C1504 1.383 1_554 S
C1504 C1503 1.383 1_556 S
C1504 C1505 1.394 . S
C1504 C1510 1.465 . S
C1505 C1500 1.399 . S
C1505 C1504 1.394 . S
C1505 C1506 1.516 . S
C1506 C1505 1.516 . S
C1506 C1507 1.502 . S
C1506 C1508 1.561 . S
C1506 C1509 1.526 . S
C1507 H1491 0.959 . S
C1507 H1492 0.959 . S
C1507 H1493 0.961 . S
C1507 C1506 1.502 . S
C1508 H1494 0.960 . S
C1508 H1495 0.961 . S
C1508 H1496 0.959 . S
C1508 C1506 1.561 . S
C1509 C1506 1.526 . S
C1509 C1510 1.396 . S
C1509 C1514 1.390 . S
C1510 C1504 1.465 . S
C1510 C1509 1.396 . S
C1510 C1511 1.399 1_556 S
C1511 H1497 0.929 . S
C1511 C1510 1.399 1_554 S
C1511 C1512 1.385 . S
C1512 H1498 0.931 . S
C1512 C1511 1.385 . S
C1512 C1513 1.389 1_554 S
C1513 C1512 1.389 1_556 S
C1513 C1514 1.387 . S
C1514 H1499 0.930 . S
C1514 C1509 1.390 . S
C1514 C1513 1.387 . S
H1515 C1527 0.930 . S
H1516 C1529 0.930 . S
H1517 C1530 0.930 . S
H1518 C1534 0.959 . S
H1519 C1534 0.959 . S
H1520 C1534 0.961 . S
H1521 C1535 0.960 . S
H1522 C1535 0.961 . S
H1523 C1535 0.959 . S
H1524 C1538 0.929 . S
H1525 C1539 0.931 . S
H1526 C1541 0.930 . S
C1527 H1515 0.930 . S
C1527 C1528 1.399 . S
C1527 C1532 1.399 . S
C1528 C1527 1.399 . S
C1528 C1529 1.376 . S
C1529 H1516 0.930 . S
C1529 C1528 1.376 . S
C1529 C1530 1.388 . S
C1530 H1517 0.930 . S
C1530 C1529 1.388 . S
C1530 C1531 1.390 . S
C1531 C1530 1.390 . S
C1531 C1532 1.394 . S
C1531 C1537 1.465 . S
C1532 C1527 1.399 . S
C1532 C1531 1.394 . S
C1532 C1533 1.516 . S
C1533 C1532 1.516 . S
C1533 C1534 1.502 . S
C1533 C1535 1.561 . S
C1533 C1536 1.526 . S
C1534 H1518 0.959 . S
C1534 H1519 0.959 . S
C1534 H1520 0.961 . S
C1534 C1533 1.502 . S
C1535 H1521 0.960 . S
C1535 H1522 0.961 . S
C1535 H1523 0.959 . S
C1535 C1533 1.561 . S
C1536 C1533 1.526 . S
C1536 C1537 1.396 . S
C1536 C1541 1.390 . S
C1537 C1531 1.465 . S
C1537 C1536 1.396 . S
C1537 C1538 1.399 . S
C1538 H1524 0.929 . S
C1538 C1537 1.399 . S
C1538 C1539 1.385 . S
C1539 H1525 0.931 . S
C1539 C1538 1.385 . S
C1539 C1540 1.389 . S
C1540 C1539 1.389 . S
C1540 C1541 1.387 . S
C1541 H1526 0.930 . S
C1541 C1536 1.390 . S
C1541 C1540 1.387 . S
H1542 C1554 0.930 1_556 S
H1543 C1556 0.930 . S
H1544 C1557 0.930 . S
H1545 C1561 0.959 . S
H1546 C1561 0.959 . S
H1547 C1561 0.961 . S
H1548 C1562 0.960 . S
H1549 C1562 0.961 . S
H1550 C1562 0.959 . S
H1551 C1565 0.929 . S
H1552 C1566 0.931 . S
H1553 C1568 0.930 . S
C1554 H1542 0.930 1_554 S
C1554 C1555 1.399 . S
C1554 C1559 1.399 . S
C1555 C1554 1.399 . S
C1555 C1556 1.376 . S
C1556 H1543 0.930 . S
C1556 C1555 1.376 . S
C1556 C1557 1.388 . S
C1557 H1544 0.930 . S
C1557 C1556 1.388 . S
C1557 C1558 1.390 . S
C1558 C1557 1.390 . S
C1558 C1559 1.394 . S
C1558 C1564 1.465 . S
C1559 C1554 1.399 . S
C1559 C1558 1.394 . S
C1559 C1560 1.516 1_554 S
C1560 C1559 1.516 1_556 S
C1560 C1561 1.502 . S
C1560 C1562 1.561 . S
C1560 C1563 1.526 1_556 S
C1561 H1545 0.959 . S
C1561 H1546 0.959 . S
C1561 H1547 0.961 . S
C1561 C1560 1.502 . S
C1562 H1548 0.960 . S
C1562 H1549 0.961 . S
C1562 H1550 0.959 . S
C1562 C1560 1.561 . S
C1563 C1560 1.526 1_554 S
C1563 C1564 1.396 . S
C1563 C1568 1.390 1_554 S
C1564 C1558 1.465 . S
C1564 C1563 1.396 . S
C1564 C1565 1.399 . S
C1565 H1551 0.929 . S
C1565 C1564 1.399 . S
C1565 C1566 1.385 . S
C1566 H1552 0.931 . S
C1566 C1565 1.385 . S
C1566 C1567 1.389 . S
C1567 C1566 1.389 . S
C1567 C1568 1.387 1_554 S
C1568 H1553 0.930 . S
C1568 C1563 1.390 1_556 S
C1568 C1567 1.387 1_556 S
H1569 C1581 0.931 . S
H1570 C1583 0.930 1_556 S
H1571 C1584 0.930 . S
H1572 C1588 0.959 . S
H1573 C1588 0.959 . S
H1574 C1588 0.961 . S
H1575 C1589 0.960 . S
H1576 C1589 0.961 . S
H1577 C1589 0.959 . S
H1578 C1592 0.929 . S
H1579 C1593 0.931 . S
H1580 C1595 0.930 . S
C1581 H1569 0.931 . S
C1581 C1582 1.403 . S
C1581 C1586 1.393 1_545 S
C1582 C1581 1.403 . S
C1582 C1583 1.376 . S
C1583 H1570 0.930 1_554 S
C1583 C1582 1.376 . S
C1583 C1584 1.388 1_544 S
C1584 H1571 0.930 . S
C1584 C1583 1.388 1_566 S
C1584 C1585 1.390 1_556 S
C1585 C1584 1.390 1_554 S
C1585 C1586 1.394 . S
C1585 C1591 1.465 . S
C1586 C1581 1.393 1_565 S
C1586 C1585 1.394 . S
C1586 C1587 1.516 . S
C1587 C1586 1.516 . S
C1587 C1588 1.502 . S
C1587 C1589 1.561 . S
C1587 C1590 1.526 . S
C1588 H1572 0.959 . S
C1588 H1573 0.959 . S
C1588 H1574 0.961 . S
C1588 C1587 1.502 . S
C1589 H1575 0.960 . S
C1589 H1576 0.961 . S
C1589 H1577 0.959 . S
C1589 C1587 1.561 . S
C1590 C1587 1.526 . S
C1590 C1591 1.396 . S
C1590 C1595 1.390 . S
C1591 C1585 1.465 . S
C1591 C1590 1.396 . S
C1591 C1592 1.399 1_554 S
C1592 H1578 0.929 . S
C1592 C1591 1.399 1_556 S
C1592 C1593 1.385 . S
C1593 H1579 0.931 . S
C1593 C1592 1.385 . S
C1593 C1594 1.389 1_556 S
C1594 C1593 1.389 1_554 S
C1594 C1595 1.387 . S
C1595 H1580 0.930 . S
C1595 C1590 1.390 . S
C1595 C1594 1.387 . S
C325 C154 1.441 . S
C313 C50 1.438 . S
C352 C167 1.559 . S
C340 C61 1.585 . S
C367 C67 1.467 . S
C379 C180 1.457 . S
C406 C193 1.519 . S
C394 C41 1.517 . S
C433 C201 1.432 . S
C421 C95 1.487 . S
C460 C214 1.416 . S
C448 C113 1.434 . S
C475 C106 1.504 . S
C487 C227 1.461 . S
C514 C240 1.488 . S
C502 C86 1.513 . S
C529 C104 1.440 . S
C541 C258 1.431 . S
C568 C269 1.477 . S
C556 C88 1.532 . S
C583 C94 1.465 . S
C595 C253 1.451 . S
C622 C261 1.453 . S
C610 C112 1.471 . S
C637 C70 1.490 . S
C649 C284 1.497 . S
C664 C40 1.510 . S
C676 C274 1.494 . S
C691 C49 1.502 . S
C703 C279 1.494 . S
C718 C59 1.555 . S
C730 C282 1.549 . S
C745 C34 1.435 . S
C757 C191 1.429 . S
C772 C133 1.429 . S
C784 C183 1.433 . S
C811 C152 1.510 1_556 S
C799 C139 1.560 . S
C838 C157 1.519 . S
C826 C77 1.516 . S
C853 C43 1.516 1_545 S
C865 C204 1.507 . S
C892 C243 1.472 . S
C880 C103 1.524 . S
C919 C196 1.513 . S
C907 C85 1.511 . S
C946 C222 1.404 . S
C934 C115 1.465 . S
C973 C232 1.417 . S
C961 C131 1.432 . S
C988 C142 1.576 . S
C1000 C245 1.554 . S
C1015 C76 1.465 . S
C1027 C206 1.437 . S
C1054 C219 1.517 . S
C1042 C122 1.518 . S
C1069 C32 1.487 . S
C1081 C175 1.431 . S
C1108 C188 1.417 . S
C1096 C5 1.442 . S
C1135 C149 1.506 . S
C1123 C16 1.503 . S
C1162 C162 1.495 . S
C1150 C23 1.510 . S
C1177 C14 1.440 . S
C1189 C271 1.432 . S
C1204 C25 1.548 . S
C1216 C256 1.495 1_655 S
C1231 C31 1.464 . S
C1243 C266 1.455 . S
C1258 C4 1.471 . S
C1270 C248 1.460 . S
C1297 C297 1.478 . S
C1285 C79 1.493 . S
C1324 C287 1.486 . S
C1312 C121 1.505 . S
C1351 C292 1.476 . S
C1339 C130 1.504 . S
C1366 C140 1.557 . S
C1378 C295 1.538 . S
C1393 C97 1.447 . S
C1405 C217 1.423 . S
C1432 C209 1.409 . S
C1420 C52 1.430 . S
C1459 C230 1.545 . S
C1447 C58 1.555 . S
C1486 C235 1.496 . S
C1474 C68 1.517 . S
C1501 C124 1.520 . S
C1513 C178 1.463 . S
C1540 C165 1.519 . S
C1528 C13 1.526 . S
C1555 C22 1.512 . S
C1567 C170 1.512 . S
C1594 C144 1.407 . S
C1582 C7 1.465 . S
