# Generated by pormake.
# Topology llj, (12,3)-cn, num edge types: 1
# Building blocks:
#     Node 0, Type 0, BuildingBlock: QEWDON_clean_sbu_0, # of connection points: 12
#     Node 1, Type 0, BuildingBlock: QEWDON_clean_sbu_0, # of connection points: 12
#     Node 2, Type 1, BuildingBlock: BELTOD_clean_linker_0, # of connection points: 3
#     Node 3, Type 1, BuildingBlock: BELTOD_clean_linker_0, # of connection points: 3
#     Node 4, Type 1, BuildingBlock: BELTOD_clean_linker_0, # of connection points: 3
#     Node 5, Type 1, BuildingBlock: BELTOD_clean_linker_0, # of connection points: 3
#     Node 6, Type 1, BuildingBlock: BELTOD_clean_linker_0, # of connection points: 3
#     Node 7, Type 1, BuildingBlock: BELTOD_clean_linker_0, # of connection points: 3
#     Node 8, Type 1, BuildingBlock: BELTOD_clean_linker_0, # of connection points: 3
#     Node 9, Type 1, BuildingBlock: BELTOD_clean_linker_0, # of connection points: 3
#     Edge 10, Type (0, 1), BuildingBlock: OJICUG_clean_linker_0, # of connection points: 2
#     Edge 11, Type (0, 1), BuildingBlock: OJICUG_clean_linker_0, # of connection points: 2
#     Edge 12, Type (0, 1), BuildingBlock: OJICUG_clean_linker_0, # of connection points: 2
#     Edge 13, Type (0, 1), BuildingBlock: OJICUG_clean_linker_0, # of connection points: 2
#     Edge 14, Type (0, 1), BuildingBlock: OJICUG_clean_linker_0, # of connection points: 2
#     Edge 15, Type (0, 1), BuildingBlock: OJICUG_clean_linker_0, # of connection points: 2
#     Edge 16, Type (0, 1), BuildingBlock: OJICUG_clean_linker_0, # of connection points: 2
#     Edge 17, Type (0, 1), BuildingBlock: OJICUG_clean_linker_0, # of connection points: 2
#     Edge 18, Type (0, 1), BuildingBlock: OJICUG_clean_linker_0, # of connection points: 2
#     Edge 19, Type (0, 1), BuildingBlock: OJICUG_clean_linker_0, # of connection points: 2
#     Edge 20, Type (0, 1), BuildingBlock: OJICUG_clean_linker_0, # of connection points: 2
#     Edge 21, Type (0, 1), BuildingBlock: OJICUG_clean_linker_0, # of connection points: 2
#     Edge 22, Type (0, 1), BuildingBlock: OJICUG_clean_linker_0, # of connection points: 2
#     Edge 23, Type (0, 1), BuildingBlock: OJICUG_clean_linker_0, # of connection points: 2
#     Edge 24, Type (0, 1), BuildingBlock: OJICUG_clean_linker_0, # of connection points: 2
#     Edge 25, Type (0, 1), BuildingBlock: OJICUG_clean_linker_0, # of connection points: 2
#     Edge 26, Type (0, 1), BuildingBlock: OJICUG_clean_linker_0, # of connection points: 2
#     Edge 27, Type (0, 1), BuildingBlock: OJICUG_clean_linker_0, # of connection points: 2
#     Edge 28, Type (0, 1), BuildingBlock: OJICUG_clean_linker_0, # of connection points: 2
#     Edge 29, Type (0, 1), BuildingBlock: OJICUG_clean_linker_0, # of connection points: 2
#     Edge 30, Type (0, 1), BuildingBlock: OJICUG_clean_linker_0, # of connection points: 2
#     Edge 31, Type (0, 1), BuildingBlock: OJICUG_clean_linker_0, # of connection points: 2
#     Edge 32, Type (0, 1), BuildingBlock: OJICUG_clean_linker_0, # of connection points: 2
#     Edge 33, Type (0, 1), BuildingBlock: OJICUG_clean_linker_0, # of connection points: 2
# Relax obj value: 0.009
# Max RMSD: 0.049
# Mean RMSD: 0.045
data_MOF--net-llj--node1-QEWDON_clean_sbu_0--node2-BELTOD_clean_linker_0--edge1-OJICUG_clean_linker_0
_symmetry_space_group_name_H-M    P1
_symmetry_Int_Tables_number       1
_symmetry_cell_setting            triclinic
loop_
_symmetry_equiv_pos_as_xyz
'x, y, z'
_cell_length_a     33.291415
_cell_length_b     33.237925
_cell_length_c     22.83609
_cell_angle_alpha  89.765756
_cell_angle_beta   90.230492
_cell_angle_gamma 90.107187
loop_
_atom_site_label
_atom_site_type_symbol
_atom_site_fract_x
_atom_site_fract_y
_atom_site_fract_z
_atom_type_partial_charge
Zn0 Zn 0.92073 0.06678 0.94375 0.0
Zn1 Zn 0.92091 0.06997 0.08224 0.0
O2 O 0.9572 0.0614 0.01423 0.0
H3 H 0.97953 0.04294 0.01462 0.0
C4 C 0.87155 0.99996 0.87006 0.0
O5 O 0.85687 0.012 0.92035 0.0
Zn6 Zn 0.06066 0.93047 0.06646 0.0
Zn7 Zn 0.0629 0.92846 0.92869 0.0
O8 O 0.02431 0.93221 -0.00298 0.0
H9 H 0.9988 0.94598 -0.00441 0.0
Zn10 Zn 0.89721 0.93419 0.94456 0.0
O11 O 0.91416 0.96609 0.01419 0.0
Zn12 Zn 0.91252 0.92892 0.08278 0.0
H13 H 0.93394 0.98705 0.00943 0.0
Zn14 Zn 0.06453 0.08976 0.92943 0.0
O15 O 0.05584 0.04839 0.99367 0.0
H16 H 0.04761 0.02077 0.98812 0.0
Zn17 Zn 0.06074 0.07892 0.06797 0.0
C18 C 0.07762 0.03263 0.83488 0.0
O19 O 0.04606 0.01509 0.8582 0.0
O20 O 0.87374 0.10513 0.95989 0.0
O21 O 0.87557 0.10721 0.05733 0.0
O22 O 0.11596 0.90026 0.9503 0.0
O23 O 0.11171 0.89859 0.04735 0.0
O24 O 0.86615 0.88299 0.96529 0.0
O25 O 0.87751 0.87895 0.06152 0.0
C26 C 0.98966 0.09662 0.14624 0.0
O27 O 0.09214 0.14171 0.95826 0.0
O28 O 0.09317 0.12968 0.05399 0.0
O29 O 0.03827 0.91014 0.85029 0.0
C30 C 0.86037 0.11828 0.00842 0.0
O31 O 0.95059 0.07184 0.86478 0.0
C32 C 0.99333 0.90243 0.13785 0.0
O33 O 0.88902 0.96608 0.8676 0.0
C34 C 0.12996 0.8897 1e-05 0.0
O35 O 0.09043 0.06542 0.85628 0.0
C36 C 0.89211 0.99791 0.15105 0.0
O37 O 0.95186 0.09311 0.15143 0.0
O38 O 0.00479 0.08969 0.09628 0.0
C39 C 0.86155 0.8652 0.01441 0.0
O40 O 0.03145 0.90406 0.13371 0.0
O41 O 0.97205 0.91727 0.09665 0.0
C42 C 0.08707 0.00713 0.12944 0.0
O43 O 0.89099 0.95965 0.15404 0.0
O44 O 0.90302 0.0139 0.10315 0.0
C45 C 0.10252 0.15147 0.01006 0.0
O46 O 0.08737 0.04531 0.12946 0.0
O47 O 0.07237 0.98876 0.08552 0.0
C48 C 0.00119 0.91459 0.83881 0.0
O49 O 0.97811 0.93294 0.87679 0.0
C50 C 0.97577 0.10047 0.86118 0.0
O51 O 0.97994 0.12488 0.90594 0.0
Zn52 Zn 0.4143 0.57583 0.44196 0.0
Zn53 Zn 0.41563 0.57422 0.58176 0.0
O54 O 0.45028 0.56771 0.51161 0.0
H55 H 0.47257 0.54936 0.50917 0.0
C56 C 0.36039 0.5136 0.3832 0.0
O57 O 0.34096 0.52575 0.42986 0.0
Zn58 Zn 0.56607 0.42015 0.57439 0.0
Zn59 Zn 0.57278 0.42966 0.44071 0.0
O60 O 0.5313 0.41862 0.50362 0.0
H61 H 0.50259 0.42205 0.50043 0.0
Zn62 Zn 0.38364 0.45268 0.46673 0.0
O63 O 0.42844 0.46632 0.52199 0.0
Zn64 Zn 0.42153 0.42998 0.59086 0.0
H65 H 0.45329 0.47928 0.51102 0.0
Zn66 Zn 0.55161 0.56782 0.43494 0.0
O67 O 0.54601 0.5304 0.50487 0.0
H68 H 0.53191 0.50497 0.50438 0.0
Zn69 Zn 0.55474 0.56662 0.57272 0.0
C70 C 0.59495 0.5126 0.36752 0.0
O71 O 0.61088 0.50877 0.42 0.0
O72 O 0.36692 0.61245 0.4621 0.0
O73 O 0.36801 0.61011 0.55972 0.0
O74 O 0.62669 0.40188 0.45967 0.0
O75 O 0.61949 0.39252 0.55551 0.0
O76 O 0.35578 0.39899 0.48393 0.0
O77 O 0.38337 0.38245 0.56985 0.0
C78 C 0.48554 0.59709 0.64558 0.0
O79 O 0.58767 0.61705 0.45242 0.0
O80 O 0.5913 0.61244 0.54935 0.0
O81 O 0.55094 0.4221 0.35705 0.0
C82 C 0.3528 0.62288 0.51159 0.0
O83 O 0.44487 0.58303 0.36382 0.0
C84 C 0.49956 0.39404 0.64625 0.0
O85 O 0.38077 0.48142 0.38628 0.0
C86 C 0.6396 0.38809 0.50839 0.0
O87 O 0.56647 0.53745 0.36001 0.0
C88 C 0.39603 0.50104 0.6536 0.0
O89 O 0.44755 0.59863 0.64942 0.0
O90 O 0.50028 0.5849 0.59768 0.0
C91 C 0.35944 0.37481 0.52713 0.0
O92 O 0.53753 0.39213 0.64052 0.0
O93 O 0.47932 0.41286 0.60748 0.0
C94 C 0.58238 0.49837 0.64001 0.0
O95 O 0.3999 0.46309 0.65935 0.0
O96 O 0.40254 0.51667 0.60364 0.0
C97 C 0.6013 0.62937 0.50139 0.0
O98 O 0.57921 0.5364 0.63951 0.0
O99 O 0.5723 0.47893 0.59437 0.0
C100 C 0.51605 0.43472 0.34395 0.0
O101 O 0.4955 0.45483 0.38313 0.0
C102 C 0.4762 0.60489 0.36568 0.0
O103 O 0.48564 0.62282 0.41504 0.0
P104 P 0.38041 0.26579 0.02182 0.0
H105 H 0.44869 0.25702 0.10041 0.0
H106 H 0.48063 0.30254 0.16978 0.0
H107 H 0.39103 0.39287 0.13094 0.0
H108 H 0.35871 0.34655 0.06182 0.0
H109 H 0.32423 0.24284 0.93115 0.0
H110 H 0.25273 0.22901 0.93158 0.0
H111 H 0.24618 0.2682 0.11176 0.0
H112 H 0.31867 0.28049 0.11139 0.0
H113 H 0.44558 0.2416 0.94444 0.0
H114 H 0.35454 0.33363 0.95007 0.0
O115 O 0.39756 0.21908 0.0316 0.0
H116 H 0.47192 0.27067 0.85397 0.0
H117 H 0.38129 0.36355 0.8603 0.0
C118 C 0.4008 0.29809 0.07721 0.0
C119 C 0.43555 0.28638 0.10737 0.0
C120 C 0.45413 0.31269 0.14638 0.0
C121 C 0.43851 0.35144 0.15548 0.0
C122 C 0.40357 0.36311 0.12512 0.0
C123 C 0.38503 0.33668 0.08586 0.0
C124 C 0.32659 0.26333 0.02085 0.0
C125 C 0.30726 0.24944 0.97032 0.0
C126 C 0.26613 0.24184 0.97055 0.0
C127 C 0.24342 0.24775 0.02163 0.0
C128 C 0.26275 0.26315 0.07176 0.0
C129 C 0.30415 0.27047 0.07152 0.0
C130 C 0.39786 0.28522 0.95324 0.0
C131 C 0.43107 0.26788 0.92588 0.0
C132 C 0.44627 0.28471 0.87448 0.0
C133 C 0.42868 0.31943 0.85011 0.0
C134 C 0.3951 0.33649 0.87756 0.0
C135 C 0.37993 0.31956 0.92893 0.0
P136 P 0.73795 0.39963 0.00381 0.0
H137 H 0.76493 0.43188 0.11569 0.0
H138 H 0.72891 0.45348 0.20289 0.0
H139 H 0.61669 0.41664 0.12339 0.0
H140 H 0.65302 0.39586 0.03565 0.0
H141 H 0.78866 0.35309 0.92738 0.0
H142 H 0.80838 0.28244 0.92653 0.0
H143 H 0.73182 0.25958 0.07554 0.0
H144 H 0.71271 0.33053 0.07662 0.0
H145 H 0.72106 0.47674 0.94996 0.0
H146 H 0.68701 0.35283 0.92332 0.0
O147 O 0.78085 0.4256 0.00077 0.0
H148 H 0.67944 0.49686 0.86668 0.0
H149 H 0.64496 0.37277 0.84005 0.0
C150 C 0.71148 0.4132 0.06896 0.0
C151 C 0.73259 0.42846 0.11708 0.0
C152 C 0.71198 0.4404 0.1671 0.0
C153 C 0.66992 0.43688 0.1699 0.0
C154 C 0.64901 0.42029 0.12213 0.0
C155 C 0.66971 0.40839 0.07207 0.0
C156 C 0.74987 0.34707 0.00257 0.0
C157 C 0.77601 0.33278 0.95966 0.0
C158 C 0.78686 0.29231 0.95886 0.0
C159 C 0.77159 0.26541 0.00098 0.0
C160 C 0.74433 0.27968 0.0429 0.0
C161 C 0.73343 0.32025 0.04355 0.0
C162 C 0.70784 0.4133 0.9417 0.0
C163 C 0.70474 0.45387 0.92592 0.0
C164 C 0.68061 0.46533 0.87875 0.0
C165 C 0.65897 0.43631 0.84685 0.0
C166 C 0.66171 0.39565 0.8634 0.0
C167 C 0.68578 0.38425 0.91086 0.0
P168 P 0.67151 0.61528 0.01151 0.0
H169 H 0.68126 0.58216 0.8939 0.0
H170 H 0.63711 0.58034 0.80793 0.0
H171 H 0.5476 0.64775 0.90238 0.0
H172 H 0.5918 0.64939 0.98807 0.0
H173 H 0.74525 0.63188 0.07638 0.0
H174 H 0.79057 0.69002 0.07957 0.0
H175 H 0.7139 0.75244 0.95614 0.0
H176 H 0.66928 0.69416 0.95261 0.0
H177 H 0.62646 0.5505 0.0666 0.0
H178 H 0.64544 0.67739 0.09434 0.0
O179 O 0.6996 0.57375 0.01093 0.0
H180 H 0.57966 0.54868 0.14873 0.0
H181 H 0.59867 0.67585 0.17633 0.0
C182 C 0.63956 0.61531 0.94762 0.0
C183 C 0.65217 0.59658 0.89604 0.0
C184 C 0.62699 0.59576 0.84687 0.0
C185 C 0.58878 0.61377 0.84851 0.0
C186 C 0.57659 0.63311 0.90007 0.0
C187 C 0.60189 0.63412 0.94904 0.0
C188 C 0.70446 0.65835 0.01324 0.0
C189 C 0.73841 0.65805 0.04979 0.0
C190 C 0.76407 0.69143 0.05197 0.0
C191 C 0.7561 0.72578 0.0177 0.0
C192 C 0.7214 0.72619 0.98218 0.0
C193 C 0.69577 0.69285 0.98016 0.0
C194 C 0.64014 0.61382 0.07536 0.0
C195 C 0.62095 0.57784 0.09095 0.0
C196 C 0.59398 0.57691 0.13761 0.0
C197 C 0.58568 0.61201 0.16953 0.0
C198 C 0.60497 0.64809 0.15349 0.0
C199 C 0.63178 0.64902 0.10657 0.0
P200 P 0.37351 0.69321 0.00996 0.0
H201 H 0.39608 0.70427 0.88773 0.0
H202 H 0.39921 0.65826 0.80428 0.0
H203 H 0.35375 0.56203 0.91322 0.0
H204 H 0.35063 0.60798 -0.00382 0.0
H205 H 0.35614 0.76514 0.07719 0.0
H206 H 0.30028 0.813 0.07591 0.0
H207 H 0.24413 0.74564 0.93625 0.0
H208 H 0.3001 0.6982 0.93757 0.0
H209 H 0.43452 0.6503 0.07726 0.0
H210 H 0.30689 0.67101 0.08746 0.0
O211 O 0.41642 0.71922 0.00962 0.0
H212 H 0.4312 0.6077 0.16483 0.0
H213 H 0.30327 0.62835 0.1746 0.0
C214 C 0.37372 0.65949 0.94833 0.0
C215 C 0.3867 0.67329 0.89353 0.0
C216 C 0.38829 0.64704 0.84589 0.0
C217 C 0.3769 0.60648 0.85235 0.0
C218 C 0.36325 0.59295 0.90716 0.0
C219 C 0.36138 0.61931 0.95462 0.0
C220 C 0.33258 0.72856 0.00688 0.0
C221 C 0.33188 0.7609 0.04606 0.0
C222 C 0.29981 0.78803 0.04558 0.0
C223 C 0.26784 0.78327 0.00577 0.0
C224 C 0.26861 0.75056 0.96679 0.0
C225 C 0.30059 0.72333 0.96756 0.0
C226 C 0.37117 0.66457 0.07683 0.0
C227 C 0.40589 0.64604 0.09879 0.0
C228 C 0.40387 0.62141 0.14844 0.0
C229 C 0.36698 0.6148 0.17672 0.0
C230 C 0.33222 0.6334 0.15435 0.0
C231 C 0.33427 0.65785 0.10456 0.0
P232 P 0.88356 0.74679 0.49747 0.0
H233 H 0.94471 0.73283 0.58723 0.0
H234 H 0.97221 0.77535 0.66455 0.0
H235 H 0.88951 0.86992 0.61597 0.0
H236 H 0.86198 0.82702 0.53841 0.0
H237 H 0.83086 0.71186 0.41064 0.0
H238 H 0.75992 0.69413 0.41097 0.0
H239 H 0.74744 0.74875 0.58161 0.0
H240 H 0.81902 0.76422 0.58215 0.0
H241 H 0.95657 0.74167 0.42857 0.0
H242 H 0.84669 0.81018 0.42634 0.0
O243 O 0.90494 0.70143 0.49999 0.0
H244 H 0.98115 0.78015 0.34471 0.0
H245 H 0.87137 0.84945 0.34301 0.0
C246 C 0.90088 0.77659 0.55786 0.0
C247 C 0.93217 0.76252 0.59353 0.0
C248 C 0.94813 0.78699 0.63732 0.0
C249 C 0.93308 0.82598 0.64602 0.0
C250 C 0.90144 0.83988 0.61046 0.0
C251 C 0.88571 0.81544 0.5663 0.0
C252 C 0.83012 0.73955 0.49606 0.0
C253 C 0.81266 0.72047 0.44775 0.0
C254 C 0.77191 0.71074 0.44781 0.0
C255 C 0.74774 0.72008 0.49631 0.0
C256 C 0.76519 0.74068 0.54382 0.0
C257 C 0.80615 0.74992 0.54397 0.0
C258 C 0.89951 0.7725 0.43254 0.0
C259 C 0.93757 0.76472 0.40952 0.0
C260 C 0.95174 0.78705 0.36208 0.0
C261 C 0.9282 0.8179 0.33738 0.0
C262 C 0.88995 0.82554 0.36062 0.0
C263 C 0.87582 0.80313 0.40815 0.0
P264 P 0.23946 0.90666 0.49504 0.0
H265 H 0.26221 0.93256 0.61225 0.0
H266 H 0.22363 0.96016 0.69355 0.0
H267 H 0.11443 0.94699 0.59219 0.0
H268 H 0.153 0.91805 0.51221 0.0
H269 H 0.28541 0.85434 0.42051 0.0
H270 H 0.30183 0.78298 0.42516 0.0
H271 H 0.23064 0.77064 0.58214 0.0
H272 H 0.21446 0.84247 0.57731 0.0
H273 H 0.22621 0.98312 0.43755 0.0
H274 H 0.19276 0.85916 0.4096 0.0
O275 O 0.28359 0.93054 0.49494 0.0
H276 H 0.18642 0.00309 0.35221 0.0
H277 H 0.15313 0.87897 0.3237 0.0
C278 C 0.21055 0.92417 0.55593 0.0
C279 C 0.22995 0.93546 0.60778 0.0
C280 C 0.20788 0.95142 0.654 0.0
C281 C 0.16602 0.95626 0.649 0.0
C282 C 0.14657 0.94346 0.59758 0.0
C283 C 0.16866 0.92725 0.55158 0.0
C284 C 0.24899 0.85362 0.49862 0.0
C285 C 0.27309 0.83619 0.45565 0.0
C286 C 0.28208 0.79532 0.45808 0.0
C287 C 0.26724 0.77112 0.50382 0.0
C288 C 0.24254 0.7886 0.54652 0.0
C289 C 0.23333 0.82963 0.54377 0.0
C290 C 0.21317 0.91968 0.42897 0.0
C291 C 0.21076 0.96017 0.41249 0.0
C292 C 0.18773 0.97154 0.36415 0.0
C293 C 0.16668 0.9425 0.33153 0.0
C294 C 0.16939 0.90182 0.34784 0.0
C295 C 0.19216 0.89052 0.39673 0.0
P296 P 0.17574 0.11986 0.51326 0.0
H297 H 0.1728 0.16709 0.4023 0.0
H298 H 0.12716 0.16538 0.31912 0.0
H299 H 0.06803 0.06114 0.39345 0.0
H300 H 0.11182 0.06512 0.47861 0.0
H301 H 0.25965 0.13111 0.5491 0.0
H302 H 0.3033 0.19027 0.55526 0.0
H303 H 0.20493 0.26534 0.49757 0.0
H304 H 0.16166 0.20619 0.49099 0.0
H305 H 0.14333 0.05231 0.58068 0.0
H306 H 0.13244 0.18165 0.57995 0.0
O307 O 0.20485 0.07903 0.51367 0.0
H308 H 0.09345 0.04813 0.65858 0.0
H309 H 0.08361 0.17768 0.65854 0.0
C310 C 0.14462 0.11747 0.44838 0.0
C311 C 0.14938 0.14456 0.40172 0.0
C312 C 0.12354 0.14304 0.35331 0.0
C313 C 0.09322 0.11349 0.34964 0.0
C314 C 0.08992 0.08523 0.39542 0.0
C315 C 0.11527 0.0873 0.44418 0.0
C316 C 0.20762 0.16395 0.51796 0.0
C317 C 0.2475 0.16026 0.53744 0.0
C318 C 0.27238 0.19418 0.54151 0.0
C319 C 0.25775 0.2325 0.5263 0.0
C320 C 0.2174 0.23618 0.50848 0.0
C321 C 0.19258 0.20231 0.50472 0.0
C322 C 0.14252 0.11737 0.5753 0.0
C323 C 0.1308 0.07987 0.5979 0.0
C324 C 0.10208 0.07747 0.64225 0.0
C325 C 0.08506 0.1126 0.66555 0.0
C326 C 0.09678 0.15008 0.64251 0.0
C327 C 0.12493 0.1524 0.59747 0.0
P328 P 0.88155 0.19001 0.50823 0.0
H329 H 0.9087 0.19796 0.38742 0.0
H330 H 0.90873 0.15163 0.30428 0.0
H331 H 0.84991 0.06148 0.41052 0.0
H332 H 0.84987 0.10785 0.49331 0.0
H333 H 0.86258 0.25724 0.5841 0.0
H334 H 0.80786 0.30638 0.58487 0.0
H335 H 0.75685 0.25081 0.43077 0.0
H336 H 0.81168 0.20208 0.43008 0.0
H337 H 0.94297 0.14508 0.57161 0.0
H338 H 0.81626 0.16888 0.58881 0.0
O339 O 0.92493 0.21521 0.5064 0.0
H340 H 0.94041 0.10073 0.65738 0.0
H341 H 0.81342 0.12453 0.67428 0.0
C342 C 0.87992 0.15618 0.44677 0.0
C343 C 0.89579 0.16825 0.39276 0.0
C344 C 0.89561 0.14183 0.34527 0.0
C345 C 0.87946 0.10286 0.35105 0.0
C346 C 0.86304 0.0911 0.40506 0.0
C347 C 0.86294 0.11768 0.45237 0.0
C348 C 0.8413 0.22618 0.50695 0.0
C349 C 0.83965 0.2558 0.55038 0.0
C350 C 0.80827 0.28371 0.55095 0.0
C351 C 0.77804 0.28259 0.5078 0.0
C352 C 0.77997 0.25286 0.46414 0.0
C353 C 0.81126 0.22482 0.46384 0.0
C354 C 0.88005 0.16095 0.57476 0.0
C355 C 0.91474 0.1412 0.59439 0.0
C356 C 0.91315 0.1156 0.64301 0.0
C357 C 0.8767 0.10922 0.67257 0.0
C358 C 0.84204 0.12934 0.65293 0.0
C359 C 0.84364 0.15475 0.60412 0.0
C360 C 0.14222 0.20964 0.97108 0.0
C361 C 0.13162 0.18463 0.0183 0.0
H362 H 0.18527 0.25091 0.93596 0.0
C363 C 0.15365 0.18732 0.07079 0.0
H364 H 0.12537 0.20886 0.93041 0.0
C365 C 0.18842 0.21073 0.07357 0.0
C366 C 0.20151 0.23239 0.02417 0.0
H367 H 0.14608 0.16875 0.10828 0.0
H368 H 0.20666 0.20901 0.11285 0.0
C369 C 0.17669 0.23354 0.97417 0.0
C370 C 0.82024 0.17093 0.05968 0.0
C371 C 0.83042 0.15105 0.00759 0.0
H372 H 0.79379 0.22294 0.09832 0.0
C373 C 0.81569 0.16606 0.95403 0.0
H374 H 0.83086 0.16003 0.10174 0.0
C375 C 0.79419 0.20204 0.95218 0.0
C376 C 0.78699 0.22367 0.0038 0.0
H377 H 0.82251 0.15121 0.91313 0.0
H378 H 0.78468 0.21382 0.91006 0.0
C379 C 0.79878 0.20694 0.05778 0.0
C380 C 0.81895 0.81363 0.964 0.0
C381 C 0.83599 0.82848 0.01614 0.0
H382 H 0.78114 0.76967 0.92363 0.0
C383 C 0.82735 0.80855 0.0691 0.0
H384 H 0.82505 0.8279 0.92224 0.0
C385 C 0.80173 0.77497 0.0698 0.0
C386 C 0.78416 0.76073 0.01762 0.0
H387 H 0.83992 0.81914 0.11006 0.0
H388 H 0.79503 0.76068 0.11134 0.0
C389 C 0.79345 0.78028 0.96475 0.0
C390 C 0.18483 0.85162 0.94989 0.0
C391 C 0.16682 0.86462 0.00214 0.0
H392 H 0.23078 0.81618 0.91013 0.0
C393 C 0.18333 0.85182 0.05586 0.0
H394 H 0.1731 0.86093 0.90766 0.0
C395 C 0.2165 0.82594 0.05716 0.0
C396 C 0.23375 0.81216 0.0048 0.0
H397 H 0.17027 0.86124 0.09695 0.0
H398 H 0.22796 0.8159 0.09918 0.0
C399 C 0.21778 0.82568 0.95122 0.0
C400 C 0.65565 0.66655 0.55398 0.0
C401 C 0.63369 0.65987 0.50222 0.0
H402 H 0.7091 0.69002 0.59255 0.0
C403 C 0.64639 0.67856 0.45016 0.0
H404 H 0.64664 0.65279 0.59498 0.0
C405 C 0.68208 0.70073 0.449 0.0
C406 C 0.70599 0.70427 0.4997 0.0
H407 H 0.62982 0.67448 0.40967 0.0
H408 H 0.69179 0.71362 0.40778 0.0
C409 C 0.69151 0.68825 0.55266 0.0
C410 C 0.31552 0.67699 0.56445 0.0
C411 C 0.32236 0.6552 0.5128 0.0
H412 H 0.29271 0.7312 0.602 0.0
C413 C 0.30457 0.66854 0.46029 0.0
H414 H 0.32863 0.66743 0.60571 0.0
C415 C 0.28382 0.70491 0.45831 0.0
C416 C 0.2805 0.72871 0.50873 0.0
H417 H 0.3087 0.65215 0.41986 0.0
H418 H 0.27222 0.71547 0.41661 0.0
C419 C 0.29482 0.71352 0.5624 0.0
C420 C 0.33647 0.30954 0.57354 0.0
C421 C 0.33446 0.33765 0.52737 0.0
H422 H 0.31367 0.25431 0.60971 0.0
C423 C 0.30754 0.33037 0.48089 0.0
H424 H 0.35681 0.31416 0.61004 0.0
C425 C 0.28298 0.29632 0.48077 0.0
C426 C 0.28459 0.2684 0.52702 0.0
H427 H 0.30518 0.35111 0.44434 0.0
H428 H 0.26289 0.29168 0.44397 0.0
C429 C 0.31186 0.27518 0.57325 0.0
C430 C 0.69176 0.3472 0.56179 0.0
C431 C 0.67709 0.36395 0.50925 0.0
H432 H 0.73487 0.3082 0.60248 0.0
C433 C 0.69722 0.35531 0.45672 0.0
H434 H 0.67704 0.35321 0.60305 0.0
C435 C 0.73031 0.32949 0.45644 0.0
C436 C 0.74426 0.31183 0.50869 0.0
H437 H 0.68694 0.36778 0.41541 0.0
H438 H 0.74489 0.32319 0.41517 0.0
C439 C 0.72502 0.3215 0.56151 0.0
C440 C 0.00057 0.09478 0.25495 0.0
C441 C 0.01512 0.10356 0.19863 0.0
H442 H 0.01327 0.09179 0.34673 0.0
C443 C 0.05445 0.11805 0.19295 0.0
H444 H 0.97013 0.08404 0.26106 0.0
C445 C 0.07965 0.12152 0.24167 0.0
C446 C 0.06574 0.11148 0.29793 0.0
H447 H 0.06594 0.12645 0.15076 0.0
H448 H 0.11034 0.13115 0.23473 0.0
C449 C 0.02554 0.09879 0.30404 0.0
C450 C 0.89505 0.00892 0.25961 0.0
C451 C 0.88537 0.02308 0.20327 0.0
H452 H 0.90123 0.02335 0.35072 0.0
C453 C 0.87114 0.06255 0.19665 0.0
H454 H 0.90605 0.97855 0.26598 0.0
C455 C 0.86872 0.08821 0.2447 0.0
C456 C 0.87989 0.07471 0.30076 0.0
H457 H 0.86219 0.07372 0.15413 0.0
H458 H 0.85817 0.1187 0.23796 0.0
C459 C 0.89233 0.03455 0.30799 0.0
C460 C 0.99965 0.8754 0.23947 0.0
C461 C 0.97529 0.88391 0.19053 0.0
H462 H 0.0037 0.84857 0.32449 0.0
C463 C 0.93472 0.87245 0.19172 0.0
H464 H 0.031 0.88419 0.24039 0.0
C465 C 0.91909 0.85174 0.23987 0.0
C466 C 0.94384 0.8421 0.28786 0.0
H467 H 0.91531 0.87821 0.15489 0.0
H468 H 0.888 0.84212 0.23864 0.0
C469 C 0.98409 0.8548 0.28759 0.0
C470 C 0.12553 0.9511 0.17721 0.0
C471 C 0.10227 0.98604 0.18166 0.0
H472 H 0.1646 0.90973 0.22175 0.0
C473 C 0.09717 0.00403 0.23663 0.0
H474 H 0.13066 0.93739 0.13521 0.0
C475 C 0.11678 0.98876 0.28578 0.0
C476 C 0.14192 0.95513 0.28091 0.0
H477 H 0.07891 0.03074 0.24129 0.0
H478 H 0.11312 0.00391 0.32733 0.0
C479 C 0.14518 0.93559 0.22664 0.0
C480 C 0.13739 0.02815 0.76981 0.0
C481 C 0.09943 0.01359 0.78628 0.0
H482 H 0.18787 0.02175 0.71323 0.0
C483 C 0.08317 0.98028 0.7569 0.0
H484 H 0.15064 0.05398 0.79132 0.0
C485 C 0.10478 0.96144 0.71247 0.0
C486 C 0.14301 0.97572 0.69649 0.0
H487 H 0.05375 0.96877 0.76812 0.0
H488 H 0.09173 0.93545 0.69114 0.0
C489 C 0.15895 0.0094 0.72546 0.0
C490 C 0.99927 0.07756 0.76254 0.0
C491 C 0.00193 0.10479 0.80935 0.0
H492 H 0.02316 0.05882 0.68013 0.0
C493 C 0.03121 0.13525 0.80754 0.0
H494 H 0.97717 0.05364 0.76275 0.0
C495 C 0.05784 0.13791 0.76066 0.0
C496 C 0.05571 0.11031 0.71428 0.0
H497 H 0.03424 0.15657 0.84303 0.0
H498 H 0.08079 0.16103 0.76153 0.0
C499 C 0.0259 0.08028 0.71549 0.0
C500 C 0.89198 0.01662 0.76739 0.0
C501 C 0.87108 0.02701 0.8185 0.0
H502 H 0.91007 0.03447 0.68127 0.0
C503 C 0.85151 0.06439 0.82094 0.0
H504 H 0.90751 0.98811 0.76416 0.0
C505 C 0.85322 0.09104 0.77354 0.0
C506 C 0.87461 0.08089 0.72279 0.0
H507 H 0.8352 0.07332 0.85969 0.0
H508 H 0.83838 0.1199 0.777 0.0
C509 C 0.89377 0.04332 0.72009 0.0
C510 C 0.94196 0.89423 0.77769 0.0
C511 C 0.98377 0.89556 0.78615 0.0
H512 H 0.89308 0.87102 0.72666 0.0
C513 C 0.00881 0.87615 0.74575 0.0
H514 H 0.92188 0.90863 0.80816 0.0
C515 C 0.99231 0.85439 0.69939 0.0
C516 C 0.95047 0.85181 0.69226 0.0
H517 H 0.04118 0.87691 0.75065 0.0
H518 H 0.0123 0.83916 0.66947 0.0
C519 C 0.92545 0.87266 0.73104 0.0
C520 C 0.49571 0.59879 0.75428 0.0
C521 C 0.51115 0.60435 0.69763 0.0
H522 H 0.50822 0.59684 0.84637 0.0
C523 C 0.55157 0.61545 0.69133 0.0
H524 H 0.46459 0.59042 0.7606 0.0
C525 C 0.57666 0.61895 0.74024 0.0
C526 C 0.56164 0.61197 0.79679 0.0
H527 H 0.56389 0.62132 0.64858 0.0
H528 H 0.60784 0.62714 0.7338 0.0
C529 C 0.5207 0.60252 0.80338 0.0
C530 C 0.37037 0.56437 0.6986 0.0
C531 C 0.38887 0.52672 0.70525 0.0
H532 H 0.35218 0.61917 0.73966 0.0
C533 C 0.40127 0.51435 0.76137 0.0
H534 H 0.35923 0.574 0.65635 0.0
C535 C 0.39671 0.53994 0.80942 0.0
C536 C 0.3797 0.57836 0.80219 0.0
H537 H 0.41549 0.48537 0.76787 0.0
H538 H 0.40761 0.53014 0.85189 0.0
C539 C 0.36616 0.5901 0.74637 0.0
C540 C 0.50515 0.36048 0.74359 0.0
C541 C 0.48067 0.37549 0.69821 0.0
H542 H 0.50792 0.33165 0.82721 0.0
C543 C 0.4388 0.37213 0.70331 0.0
H544 H 0.53758 0.36287 0.74147 0.0
C545 C 0.42176 0.35387 0.75254 0.0
C546 C 0.44635 0.33866 0.7976 0.0
H547 H 0.41915 0.38315 0.66925 0.0
H548 H 0.38938 0.35118 0.75495 0.0
C549 C 0.4882 0.34234 0.7927 0.0
C550 C 0.61776 0.44211 0.6923 0.0
C551 C 0.59681 0.47861 0.69395 0.0
H552 H 0.65434 0.40006 0.7396 0.0
C553 C 0.5929 0.49876 0.74761 0.0
H554 H 0.62158 0.4263 0.65163 0.0
C555 C 0.61153 0.48395 0.79789 0.0
C556 C 0.63462 0.44872 0.79556 0.0
H557 H 0.57633 0.52669 0.75043 0.0
H558 H 0.60874 0.50068 0.83829 0.0
C559 C 0.63656 0.42722 0.74274 0.0
C560 C 0.59501 0.49423 0.26141 0.0
C561 C 0.61169 0.4902 0.31771 0.0
H562 H 0.60033 0.48015 0.17045 0.0
C563 C 0.64549 0.46553 0.32581 0.0
H564 H 0.56864 0.51261 0.25397 0.0
C565 C 0.66353 0.44693 0.27807 0.0
C566 C 0.64804 0.45251 0.22132 0.0
H567 H 0.6587 0.46133 0.36882 0.0
H568 H 0.69002 0.4287 0.28546 0.0
C569 C 0.61298 0.47544 0.21367 0.0
C570 C 0.53822 0.63152 0.31753 0.0
C571 C 0.50316 0.60799 0.31453 0.0
H572 H 0.59209 0.65054 0.27485 0.0
C573 C 0.49505 0.5863 0.26314 0.0
H574 H 0.54542 0.64854 0.35652 0.0
C575 C 0.52156 0.58791 0.21591 0.0
C576 C 0.55695 0.611 0.21918 0.0
H577 H 0.46843 0.56775 0.25954 0.0
H578 H 0.51421 0.57112 0.17674 0.0
C579 C 0.56487 0.63288 0.2705 0.0
C580 C 0.33959 0.57503 0.32722 0.0
C581 C 0.36075 0.53852 0.32938 0.0
H582 H 0.3255 0.62802 0.27778 0.0
C583 C 0.38345 0.5269 0.28051 0.0
H584 H 0.32181 0.58485 0.36407 0.0
C585 C 0.38533 0.55156 0.23088 0.0
C586 C 0.36462 0.58835 0.22909 0.0
H587 H 0.40011 0.49896 0.28072 0.0
H588 H 0.40295 0.54175 0.19382 0.0
C589 C 0.34154 0.5997 0.27766 0.0
C590 C 0.45442 0.42087 0.28444 0.0
C591 C 0.49647 0.4203 0.2899 0.0
H592 H 0.40297 0.39913 0.23769 0.0
C593 C 0.51935 0.40143 0.24642 0.0
H594 H 0.43602 0.43515 0.31732 0.0
C595 C 0.50045 0.38089 0.20083 0.0
C596 C 0.45832 0.37875 0.19789 0.0
H597 H 0.55186 0.40105 0.24896 0.0
H598 H 0.51884 0.36549 0.16898 0.0
C599 C 0.43548 0.40022 0.23882 0.0
loop_
_geom_bond_atom_site_label_1
_geom_bond_atom_site_label_2
_geom_bond_distance
_geom_bond_site_symmetry_2
_ccdc_geom_bond_type
Zn0 O2 1.933 1_556 S
Zn0 O20 1.985 . S
Zn0 O31 1.955 . S
Zn1 O2 1.911 . S
Zn1 O21 1.970 . S
Zn1 O37 1.945 . S
Zn1 O44 1.981 . S
O2 Zn0 1.933 1_554 S
O2 Zn1 1.911 . S
O2 H3 0.841 1_655 S
H3 O2 0.841 1_455 S
C4 O5 1.246 . S
C4 O33 1.276 1_545 S
O5 C4 1.246 . S
Zn6 O8 1.911 . S
Zn6 O23 1.970 . S
Zn6 O40 1.945 . S
Zn6 O47 1.981 . S
Zn7 O8 1.933 1_556 S
Zn7 O22 1.985 . S
Zn7 O29 1.955 . S
O8 Zn6 1.911 . S
O8 Zn7 1.933 1_554 S
O8 H9 0.841 1_455 S
H9 O8 0.841 1_655 S
Zn10 O11 1.933 1_556 S
Zn10 O24 1.985 . S
Zn10 O33 1.955 . S
O11 Zn10 1.933 1_554 S
O11 Zn12 1.911 . S
O11 H13 0.841 1_565 S
Zn12 O11 1.911 . S
Zn12 O25 1.970 . S
Zn12 O41 1.981 . S
Zn12 O43 1.945 . S
H13 O11 0.841 1_545 S
Zn14 O15 1.933 1_556 S
Zn14 O27 1.985 . S
Zn14 O35 1.955 . S
O15 Zn14 1.933 1_554 S
O15 H16 0.841 1_545 S
O15 Zn17 1.911 . S
H16 O15 0.841 1_565 S
Zn17 O15 1.911 . S
Zn17 O28 1.970 . S
Zn17 O38 1.981 . S
Zn17 O46 1.945 . S
C18 O19 1.246 . S
C18 O35 1.276 1_565 S
O19 C18 1.246 . S
O20 Zn0 1.985 . S
O20 C30 1.245 1_556 S
O21 Zn1 1.970 . S
O21 C30 1.263 . S
O22 Zn7 1.985 . S
O22 C34 1.245 1_556 S
O23 Zn6 1.970 . S
O23 C34 1.263 . S
O24 Zn10 1.985 . S
O24 C39 1.245 1_556 S
O25 Zn12 1.970 . S
O25 C39 1.263 . S
C26 O37 1.262 1_455 S
C26 O38 1.245 . S
O27 Zn14 1.985 . S
O27 C45 1.245 1_556 S
O28 Zn17 1.970 . S
O28 C45 1.263 . S
O29 Zn7 1.955 . S
O29 C48 1.276 1_455 S
C30 O20 1.245 1_554 S
C30 O21 1.263 . S
O31 Zn0 1.955 . S
O31 C50 1.276 1_655 S
C32 O40 1.262 1_655 S
C32 O41 1.245 . S
O33 C4 1.276 1_565 S
O33 Zn10 1.955 . S
C34 O22 1.245 1_554 S
C34 O23 1.263 . S
O35 Zn14 1.955 . S
O35 C18 1.276 1_545 S
C36 O43 1.262 1_545 S
C36 O44 1.245 . S
O37 Zn1 1.945 . S
O37 C26 1.262 1_655 S
O38 Zn17 1.981 . S
O38 C26 1.245 . S
C39 O24 1.245 1_554 S
C39 O25 1.263 . S
O40 Zn6 1.945 . S
O40 C32 1.262 1_455 S
O41 Zn12 1.981 . S
O41 C32 1.245 . S
C42 O46 1.262 1_565 S
C42 O47 1.245 . S
O43 Zn12 1.945 . S
O43 C36 1.262 1_565 S
O44 Zn1 1.981 . S
O44 C36 1.245 . S
C45 O27 1.245 1_554 S
C45 O28 1.263 . S
O46 Zn17 1.945 . S
O46 C42 1.262 1_545 S
O47 Zn6 1.981 . S
O47 C42 1.245 . S
C48 O29 1.276 1_655 S
C48 O49 1.246 . S
O49 C48 1.246 . S
C50 O31 1.276 1_455 S
C50 O51 1.246 . S
O51 C50 1.246 . S
Zn52 O54 1.933 . S
Zn52 O72 1.985 . S
Zn52 O83 1.955 . S
Zn53 O54 1.911 . S
Zn53 O73 1.970 . S
Zn53 O89 1.945 . S
Zn53 O96 1.981 . S
O54 Zn52 1.933 . S
O54 Zn53 1.911 . S
O54 H55 0.841 . S
H55 O54 0.841 . S
C56 O57 1.246 . S
C56 O85 1.276 . S
O57 C56 1.246 . S
Zn58 O60 1.911 . S
Zn58 O75 1.970 . S
Zn58 O92 1.945 . S
Zn58 O99 1.981 . S
Zn59 O60 1.933 . S
Zn59 O74 1.985 . S
Zn59 O81 1.955 . S
O60 Zn58 1.911 . S
O60 Zn59 1.933 . S
O60 H61 0.841 . S
H61 O60 0.841 . S
Zn62 O63 1.933 . S
Zn62 O76 1.985 . S
Zn62 O85 1.955 . S
O63 Zn62 1.933 . S
O63 Zn64 1.911 . S
O63 H65 0.841 . S
Zn64 O63 1.911 . S
Zn64 O77 1.970 . S
Zn64 O93 1.981 . S
Zn64 O95 1.945 . S
H65 O63 0.841 . S
Zn66 O67 1.933 . S
Zn66 O79 1.985 . S
Zn66 O87 1.955 . S
O67 Zn66 1.933 . S
O67 H68 0.841 . S
O67 Zn69 1.911 . S
H68 O67 0.841 . S
Zn69 O67 1.911 . S
Zn69 O80 1.970 . S
Zn69 O90 1.981 . S
Zn69 O98 1.945 . S
C70 O71 1.246 . S
C70 O87 1.276 . S
O71 C70 1.246 . S
O72 Zn52 1.985 . S
O72 C82 1.245 . S
O73 Zn53 1.970 . S
O73 C82 1.263 . S
O74 Zn59 1.985 . S
O74 C86 1.245 . S
O75 Zn58 1.970 . S
O75 C86 1.263 . S
O76 Zn62 1.985 . S
O76 C91 1.245 . S
O77 Zn64 1.970 . S
O77 C91 1.263 . S
C78 O89 1.262 . S
C78 O90 1.245 . S
O79 Zn66 1.985 . S
O79 C97 1.245 . S
O80 Zn69 1.970 . S
O80 C97 1.263 . S
O81 Zn59 1.955 . S
O81 C100 1.276 . S
C82 O72 1.245 . S
C82 O73 1.263 . S
O83 Zn52 1.955 . S
O83 C102 1.276 . S
C84 O92 1.262 . S
C84 O93 1.245 . S
O85 C56 1.276 . S
O85 Zn62 1.955 . S
C86 O74 1.245 . S
C86 O75 1.263 . S
O87 Zn66 1.955 . S
O87 C70 1.276 . S
C88 O95 1.262 . S
C88 O96 1.245 . S
O89 Zn53 1.945 . S
O89 C78 1.262 . S
O90 Zn69 1.981 . S
O90 C78 1.245 . S
C91 O76 1.245 . S
C91 O77 1.263 . S
O92 Zn58 1.945 . S
O92 C84 1.262 . S
O93 Zn64 1.981 . S
O93 C84 1.245 . S
C94 O98 1.262 . S
C94 O99 1.245 . S
O95 Zn64 1.945 . S
O95 C88 1.262 . S
O96 Zn53 1.981 . S
O96 C88 1.245 . S
C97 O79 1.245 . S
C97 O80 1.263 . S
O98 Zn69 1.945 . S
O98 C94 1.262 . S
O99 Zn58 1.981 . S
O99 C94 1.245 . S
C100 O81 1.276 . S
C100 O101 1.246 . S
O101 C100 1.246 . S
C102 O83 1.276 . S
C102 O103 1.246 . S
O103 C102 1.246 . S
P104 O115 1.490 . S
P104 C118 1.812 . S
P104 C124 1.803 . S
P104 C130 1.819 1_554 S
H105 C119 0.941 . S
H106 C120 0.939 . S
H107 C122 0.940 . S
H108 C123 0.940 . S
H109 C125 0.939 . S
H110 C126 0.942 . S
H111 C128 0.940 . S
H112 C129 0.939 . S
H113 C131 0.941 . S
H114 C135 0.939 . S
O115 P104 1.490 . S
H116 C132 0.939 . S
H117 C134 0.940 . S
C118 P104 1.812 . S
C118 C119 1.389 . S
C118 C123 1.391 . S
C119 H105 0.941 . S
C119 C118 1.389 . S
C119 C120 1.397 . S
C120 H106 0.939 . S
C120 C119 1.397 . S
C120 C121 1.378 . S
C121 C120 1.378 . S
C121 C122 1.378 . S
C122 H107 0.940 . S
C122 C121 1.378 . S
C122 C123 1.396 . S
C123 H108 0.940 . S
C123 C118 1.391 . S
C123 C122 1.396 . S
C124 P104 1.803 . S
C124 C125 1.378 1_554 S
C124 C129 1.400 . S
C125 H109 0.939 . S
C125 C124 1.378 1_556 S
C125 C126 1.361 . S
C126 H110 0.942 . S
C126 C125 1.361 . S
C126 C127 1.369 1_556 S
C127 C126 1.369 1_554 S
C127 C128 1.404 . S
C128 H111 0.940 . S
C128 C127 1.404 . S
C128 C129 1.389 . S
C129 H112 0.939 . S
C129 C124 1.400 . S
C129 C128 1.389 . S
C130 P104 1.819 1_556 S
C130 C131 1.391 . S
C130 C135 1.391 . S
C131 H113 0.941 . S
C131 C130 1.391 . S
C131 C132 1.396 . S
C132 H116 0.939 . S
C132 C131 1.396 . S
C132 C133 1.397 . S
C133 C132 1.397 . S
C133 C134 1.385 . S
C134 H117 0.940 . S
C134 C133 1.385 . S
C134 C135 1.388 . S
C135 H114 0.939 . S
C135 C130 1.391 . S
C135 C134 1.388 . S
P136 O147 1.490 . S
P136 C150 1.812 . S
P136 C156 1.803 . S
P136 C162 1.819 1_554 S
H137 C151 0.941 . S
H138 C152 0.939 . S
H139 C154 0.940 . S
H140 C155 0.940 . S
H141 C157 0.939 . S
H142 C158 0.942 . S
H143 C160 0.940 . S
H144 C161 0.939 . S
H145 C163 0.941 . S
H146 C167 0.939 . S
O147 P136 1.490 . S
H148 C164 0.939 . S
H149 C166 0.940 . S
C150 P136 1.812 . S
C150 C151 1.389 . S
C150 C155 1.391 . S
C151 H137 0.941 . S
C151 C150 1.389 . S
C151 C152 1.397 . S
C152 H138 0.939 . S
C152 C151 1.397 . S
C152 C153 1.378 . S
C153 C152 1.378 . S
C153 C154 1.378 . S
C154 H139 0.940 . S
C154 C153 1.378 . S
C154 C155 1.396 . S
C155 H140 0.940 . S
C155 C150 1.391 . S
C155 C154 1.396 . S
C156 P136 1.803 . S
C156 C157 1.378 1_554 S
C156 C161 1.400 . S
C157 H141 0.939 . S
C157 C156 1.378 1_556 S
C157 C158 1.361 . S
C158 H142 0.942 . S
C158 C157 1.361 . S
C158 C159 1.369 1_556 S
C159 C158 1.369 1_554 S
C159 C160 1.404 . S
C160 H143 0.940 . S
C160 C159 1.404 . S
C160 C161 1.389 . S
C161 H144 0.939 . S
C161 C156 1.400 . S
C161 C160 1.389 . S
C162 P136 1.819 1_556 S
C162 C163 1.391 . S
C162 C167 1.391 . S
C163 H145 0.941 . S
C163 C162 1.391 . S
C163 C164 1.396 . S
C164 H148 0.939 . S
C164 C163 1.396 . S
C164 C165 1.397 . S
C165 C164 1.397 . S
C165 C166 1.385 . S
C166 H149 0.940 . S
C166 C165 1.385 . S
C166 C167 1.388 . S
C167 H146 0.939 . S
C167 C162 1.391 . S
C167 C166 1.388 . S
P168 O179 1.490 . S
P168 C182 1.812 1_554 S
P168 C188 1.803 . S
P168 C194 1.819 . S
H169 C183 0.941 . S
H170 C184 0.939 . S
H171 C186 0.940 . S
H172 C187 0.940 . S
H173 C189 0.939 . S
H174 C190 0.942 . S
H175 C192 0.940 . S
H176 C193 0.939 . S
H177 C195 0.941 . S
H178 C199 0.939 . S
O179 P168 1.490 . S
H180 C196 0.939 . S
H181 C198 0.940 . S
C182 P168 1.812 1_556 S
C182 C183 1.389 . S
C182 C187 1.391 . S
C183 H169 0.941 . S
C183 C182 1.389 . S
C183 C184 1.397 . S
C184 H170 0.939 . S
C184 C183 1.397 . S
C184 C185 1.378 . S
C185 C184 1.378 . S
C185 C186 1.378 . S
C186 H171 0.940 . S
C186 C185 1.378 . S
C186 C187 1.396 . S
C187 H172 0.940 . S
C187 C182 1.391 . S
C187 C186 1.396 . S
C188 P168 1.803 . S
C188 C189 1.378 . S
C188 C193 1.400 1_554 S
C189 H173 0.939 . S
C189 C188 1.378 . S
C189 C190 1.361 . S
C190 H174 0.942 . S
C190 C189 1.361 . S
C190 C191 1.369 . S
C191 C190 1.369 . S
C191 C192 1.404 1_554 S
C192 H175 0.940 . S
C192 C191 1.404 1_556 S
C192 C193 1.389 . S
C193 H176 0.939 . S
C193 C188 1.400 1_556 S
C193 C192 1.389 . S
C194 P168 1.819 . S
C194 C195 1.391 . S
C194 C199 1.391 . S
C195 H177 0.941 . S
C195 C194 1.391 . S
C195 C196 1.396 . S
C196 H180 0.939 . S
C196 C195 1.396 . S
C196 C197 1.397 . S
C197 C196 1.397 . S
C197 C198 1.385 . S
C198 H181 0.940 . S
C198 C197 1.385 . S
C198 C199 1.388 . S
C199 H178 0.939 . S
C199 C194 1.391 . S
C199 C198 1.388 . S
P200 O211 1.490 . S
P200 C214 1.812 1_554 S
P200 C220 1.803 . S
P200 C226 1.819 . S
H201 C215 0.941 . S
H202 C216 0.939 . S
H203 C218 0.940 . S
H204 C219 0.940 . S
H205 C221 0.939 . S
H206 C222 0.942 . S
H207 C224 0.940 . S
H208 C225 0.939 . S
H209 C227 0.941 . S
H210 C231 0.939 . S
O211 P200 1.490 . S
H212 C228 0.939 . S
H213 C230 0.940 . S
C214 P200 1.812 1_556 S
C214 C215 1.389 . S
C214 C219 1.391 . S
C215 H201 0.941 . S
C215 C214 1.389 . S
C215 C216 1.397 . S
C216 H202 0.939 . S
C216 C215 1.397 . S
C216 C217 1.378 . S
C217 C216 1.378 . S
C217 C218 1.378 . S
C218 H203 0.940 . S
C218 C217 1.378 . S
C218 C219 1.396 . S
C219 H204 0.940 . S
C219 C214 1.391 . S
C219 C218 1.396 . S
C220 P200 1.803 . S
C220 C221 1.378 . S
C220 C225 1.400 1_554 S
C221 H205 0.939 . S
C221 C220 1.378 . S
C221 C222 1.361 . S
C222 H206 0.942 . S
C222 C221 1.361 . S
C222 C223 1.369 . S
C223 C222 1.369 . S
C223 C224 1.404 1_554 S
C224 H207 0.940 . S
C224 C223 1.404 1_556 S
C224 C225 1.389 . S
C225 H208 0.939 . S
C225 C220 1.400 1_556 S
C225 C224 1.389 . S
C226 P200 1.819 . S
C226 C227 1.391 . S
C226 C231 1.391 . S
C227 H209 0.941 . S
C227 C226 1.391 . S
C227 C228 1.396 . S
C228 H212 0.939 . S
C228 C227 1.396 . S
C228 C229 1.397 . S
C229 C228 1.397 . S
C229 C230 1.385 . S
C230 H213 0.940 . S
C230 C229 1.385 . S
C230 C231 1.388 . S
C231 H210 0.939 . S
C231 C226 1.391 . S
C231 C230 1.388 . S
P232 O243 1.490 . S
P232 C246 1.812 . S
P232 C252 1.803 . S
P232 C258 1.819 . S
H233 C247 0.941 . S
H234 C248 0.939 . S
H235 C250 0.940 . S
H236 C251 0.940 . S
H237 C253 0.939 . S
H238 C254 0.942 . S
H239 C256 0.940 . S
H240 C257 0.939 . S
H241 C259 0.941 . S
H242 C263 0.939 . S
O243 P232 1.490 . S
H244 C260 0.939 1_455 S
H245 C262 0.940 . S
C246 P232 1.812 . S
C246 C247 1.389 . S
C246 C251 1.391 . S
C247 H233 0.941 . S
C247 C246 1.389 . S
C247 C248 1.397 . S
C248 H234 0.939 . S
C248 C247 1.397 . S
C248 C249 1.378 . S
C249 C248 1.378 . S
C249 C250 1.378 . S
C250 H235 0.940 . S
C250 C249 1.378 . S
C250 C251 1.396 . S
C251 H236 0.940 . S
C251 C246 1.391 . S
C251 C250 1.396 . S
C252 P232 1.803 . S
C252 C253 1.378 . S
C252 C257 1.400 . S
C253 H237 0.939 . S
C253 C252 1.378 . S
C253 C254 1.361 . S
C254 H238 0.942 . S
C254 C253 1.361 . S
C254 C255 1.369 . S
C255 C254 1.369 . S
C255 C256 1.404 . S
C256 H239 0.940 . S
C256 C255 1.404 . S
C256 C257 1.389 . S
C257 H240 0.939 . S
C257 C252 1.400 . S
C257 C256 1.389 . S
C258 P232 1.819 . S
C258 C259 1.391 . S
C258 C263 1.391 . S
C259 H241 0.941 . S
C259 C258 1.391 . S
C259 C260 1.396 . S
C260 H244 0.939 1_655 S
C260 C259 1.396 . S
C260 C261 1.397 . S
C261 C260 1.397 . S
C261 C262 1.385 . S
C262 H245 0.940 . S
C262 C261 1.385 . S
C262 C263 1.388 . S
C263 H242 0.939 . S
C263 C258 1.391 . S
C263 C262 1.388 . S
P264 O275 1.490 . S
P264 C278 1.812 . S
P264 C284 1.803 . S
P264 C290 1.819 . S
H265 C279 0.941 . S
H266 C280 0.939 . S
H267 C282 0.940 . S
H268 C283 0.940 . S
H269 C285 0.939 . S
H270 C286 0.942 . S
H271 C288 0.940 . S
H272 C289 0.939 . S
H273 C291 0.941 . S
H274 C295 0.939 . S
O275 P264 1.490 . S
H276 C292 0.939 1_545 S
H277 C294 0.940 . S
C278 P264 1.812 . S
C278 C279 1.389 . S
C278 C283 1.391 . S
C279 H265 0.941 . S
C279 C278 1.389 . S
C279 C280 1.397 . S
C280 H266 0.939 . S
C280 C279 1.397 . S
C280 C281 1.378 . S
C281 C280 1.378 . S
C281 C282 1.378 . S
C282 H267 0.940 . S
C282 C281 1.378 . S
C282 C283 1.396 . S
C283 H268 0.940 . S
C283 C278 1.391 . S
C283 C282 1.396 . S
C284 P264 1.803 . S
C284 C285 1.378 . S
C284 C289 1.400 . S
C285 H269 0.939 . S
C285 C284 1.378 . S
C285 C286 1.361 . S
C286 H270 0.942 . S
C286 C285 1.361 . S
C286 C287 1.369 . S
C287 C286 1.369 . S
C287 C288 1.404 . S
C288 H271 0.940 . S
C288 C287 1.404 . S
C288 C289 1.389 . S
C289 H272 0.939 . S
C289 C284 1.400 . S
C289 C288 1.389 . S
C290 P264 1.819 . S
C290 C291 1.391 . S
C290 C295 1.391 . S
C291 H273 0.941 . S
C291 C290 1.391 . S
C291 C292 1.396 . S
C292 H276 0.939 1_565 S
C292 C291 1.396 . S
C292 C293 1.397 . S
C293 C292 1.397 . S
C293 C294 1.385 . S
C294 H277 0.940 . S
C294 C293 1.385 . S
C294 C295 1.388 . S
C295 H274 0.939 . S
C295 C290 1.391 . S
C295 C294 1.388 . S
P296 O307 1.490 . S
P296 C310 1.812 . S
P296 C316 1.803 . S
P296 C322 1.819 . S
H297 C311 0.941 . S
H298 C312 0.939 . S
H299 C314 0.940 . S
H300 C315 0.940 . S
H301 C317 0.939 . S
H302 C318 0.942 . S
H303 C320 0.940 . S
H304 C321 0.939 . S
H305 C323 0.941 . S
H306 C327 0.939 . S
O307 P296 1.490 . S
H308 C324 0.939 . S
H309 C326 0.940 . S
C310 P296 1.812 . S
C310 C311 1.389 . S
C310 C315 1.391 . S
C311 H297 0.941 . S
C311 C310 1.389 . S
C311 C312 1.397 . S
C312 H298 0.939 . S
C312 C311 1.397 . S
C312 C313 1.378 . S
C313 C312 1.378 . S
C313 C314 1.378 . S
C314 H299 0.940 . S
C314 C313 1.378 . S
C314 C315 1.396 . S
C315 H300 0.940 . S
C315 C310 1.391 . S
C315 C314 1.396 . S
C316 P296 1.803 . S
C316 C317 1.378 . S
C316 C321 1.400 . S
C317 H301 0.939 . S
C317 C316 1.378 . S
C317 C318 1.361 . S
C318 H302 0.942 . S
C318 C317 1.361 . S
C318 C319 1.369 . S
C319 C318 1.369 . S
C319 C320 1.404 . S
C320 H303 0.940 . S
C320 C319 1.404 . S
C320 C321 1.389 . S
C321 H304 0.939 . S
C321 C316 1.400 . S
C321 C320 1.389 . S
C322 P296 1.819 . S
C322 C323 1.391 . S
C322 C327 1.391 . S
C323 H305 0.941 . S
C323 C322 1.391 . S
C323 C324 1.396 . S
C324 H308 0.939 . S
C324 C323 1.396 . S
C324 C325 1.397 . S
C325 C324 1.397 . S
C325 C326 1.385 . S
C326 H309 0.940 . S
C326 C325 1.385 . S
C326 C327 1.388 . S
C327 H306 0.939 . S
C327 C322 1.391 . S
C327 C326 1.388 . S
P328 O339 1.490 . S
P328 C342 1.812 . S
P328 C348 1.803 . S
P328 C354 1.819 . S
H329 C343 0.941 . S
H330 C344 0.939 . S
H331 C346 0.940 . S
H332 C347 0.940 . S
H333 C349 0.939 . S
H334 C350 0.942 . S
H335 C352 0.940 . S
H336 C353 0.939 . S
H337 C355 0.941 . S
H338 C359 0.939 . S
O339 P328 1.490 . S
H340 C356 0.939 . S
H341 C358 0.940 . S
C342 P328 1.812 . S
C342 C343 1.389 . S
C342 C347 1.391 . S
C343 H329 0.941 . S
C343 C342 1.389 . S
C343 C344 1.397 . S
C344 H330 0.939 . S
C344 C343 1.397 . S
C344 C345 1.378 . S
C345 C344 1.378 . S
C345 C346 1.378 . S
C346 H331 0.940 . S
C346 C345 1.378 . S
C346 C347 1.396 . S
C347 H332 0.940 . S
C347 C342 1.391 . S
C347 C346 1.396 . S
C348 P328 1.803 . S
C348 C349 1.378 . S
C348 C353 1.400 . S
C349 H333 0.939 . S
C349 C348 1.378 . S
C349 C350 1.361 . S
C350 H334 0.942 . S
C350 C349 1.361 . S
C350 C351 1.369 . S
C351 C350 1.369 . S
C351 C352 1.404 . S
C352 H335 0.940 . S
C352 C351 1.404 . S
C352 C353 1.389 . S
C353 H336 0.939 . S
C353 C348 1.400 . S
C353 C352 1.389 . S
C354 P328 1.819 . S
C354 C355 1.391 . S
C354 C359 1.391 . S
C355 H337 0.941 . S
C355 C354 1.391 . S
C355 C356 1.396 . S
C356 H340 0.939 . S
C356 C355 1.396 . S
C356 C357 1.397 . S
C357 C356 1.397 . S
C357 C358 1.385 . S
C358 H341 0.940 . S
C358 C357 1.385 . S
C358 C359 1.388 . S
C359 H338 0.939 . S
C359 C354 1.391 . S
C359 C358 1.388 . S
C360 C361 1.387 1_556 S
C360 H364 0.950 . S
C360 C369 1.390 . S
C361 C360 1.387 1_554 S
C361 C363 1.387 . S
H362 C369 0.950 . S
C363 C361 1.387 . S
C363 C365 1.390 . S
C363 H367 0.950 . S
H364 C360 0.950 . S
C365 C363 1.390 . S
C365 C366 1.387 . S
C365 H368 0.950 . S
C366 C365 1.387 . S
C366 C369 1.387 1_554 S
H367 C363 0.950 . S
H368 C365 0.950 . S
C369 C360 1.390 . S
C369 H362 0.950 . S
C369 C366 1.387 1_556 S
C370 C371 1.387 . S
C370 H374 0.950 . S
C370 C379 1.390 . S
C371 C370 1.387 . S
C371 C373 1.387 1_554 S
H372 C379 0.950 . S
C373 C371 1.387 1_556 S
C373 C375 1.390 . S
C373 H377 0.950 . S
H374 C370 0.950 . S
C375 C373 1.390 . S
C375 C376 1.387 1_556 S
C375 H378 0.950 . S
C376 C375 1.387 1_554 S
C376 C379 1.387 . S
H377 C373 0.950 . S
H378 C375 0.950 . S
C379 C370 1.390 . S
C379 H372 0.950 . S
C379 C376 1.387 . S
C380 C381 1.387 1_556 S
C380 H384 0.950 . S
C380 C389 1.390 . S
C381 C380 1.387 1_554 S
C381 C383 1.387 . S
H382 C389 0.950 . S
C383 C381 1.387 . S
C383 C385 1.390 . S
C383 H387 0.950 . S
H384 C380 0.950 . S
C385 C383 1.390 . S
C385 C386 1.387 . S
C385 H388 0.950 . S
C386 C385 1.387 . S
C386 C389 1.387 1_554 S
H387 C383 0.950 . S
H388 C385 0.950 . S
C389 C380 1.390 . S
C389 H382 0.950 . S
C389 C386 1.387 1_556 S
C390 C391 1.387 1_556 S
C390 H394 0.950 . S
C390 C399 1.390 . S
C391 C390 1.387 1_554 S
C391 C393 1.387 . S
H392 C399 0.950 . S
C393 C391 1.387 . S
C393 C395 1.390 . S
C393 H397 0.950 . S
H394 C390 0.950 . S
C395 C393 1.390 . S
C395 C396 1.387 . S
C395 H398 0.950 . S
C396 C395 1.387 . S
C396 C399 1.387 1_554 S
H397 C393 0.950 . S
H398 C395 0.950 . S
C399 C390 1.390 . S
C399 H392 0.950 . S
C399 C396 1.387 1_556 S
C400 C401 1.387 . S
C400 H404 0.950 . S
C400 C409 1.390 . S
C401 C400 1.387 . S
C401 C403 1.387 . S
H402 C409 0.950 . S
C403 C401 1.387 . S
C403 C405 1.390 . S
C403 H407 0.950 . S
H404 C400 0.950 . S
C405 C403 1.390 . S
C405 C406 1.387 . S
C405 H408 0.950 . S
C406 C405 1.387 . S
C406 C409 1.387 . S
H407 C403 0.950 . S
H408 C405 0.950 . S
C409 C400 1.390 . S
C409 H402 0.950 . S
C409 C406 1.387 . S
C410 C411 1.387 . S
C410 H414 0.950 . S
C410 C419 1.390 . S
C411 C410 1.387 . S
C411 C413 1.387 . S
H412 C419 0.950 . S
C413 C411 1.387 . S
C413 C415 1.390 . S
C413 H417 0.950 . S
H414 C410 0.950 . S
C415 C413 1.390 . S
C415 C416 1.387 . S
C415 H418 0.950 . S
C416 C415 1.387 . S
C416 C419 1.387 . S
H417 C413 0.950 . S
H418 C415 0.950 . S
C419 C410 1.390 . S
C419 H412 0.950 . S
C419 C416 1.387 . S
C420 C421 1.387 . S
C420 H424 0.950 . S
C420 C429 1.390 . S
C421 C420 1.387 . S
C421 C423 1.387 . S
H422 C429 0.950 . S
C423 C421 1.387 . S
C423 C425 1.390 . S
C423 H427 0.950 . S
H424 C420 0.950 . S
C425 C423 1.390 . S
C425 C426 1.387 . S
C425 H428 0.950 . S
C426 C425 1.387 . S
C426 C429 1.387 . S
H427 C423 0.950 . S
H428 C425 0.950 . S
C429 C420 1.390 . S
C429 H422 0.950 . S
C429 C426 1.387 . S
C430 C431 1.387 . S
C430 H434 0.950 . S
C430 C439 1.390 . S
C431 C430 1.387 . S
C431 C433 1.387 . S
H432 C439 0.950 . S
C433 C431 1.387 . S
C433 C435 1.390 . S
C433 H437 0.950 . S
H434 C430 0.950 . S
C435 C433 1.390 . S
C435 C436 1.387 . S
C435 H438 0.950 . S
C436 C435 1.387 . S
C436 C439 1.387 . S
H437 C433 0.950 . S
H438 C435 0.950 . S
C439 C430 1.390 . S
C439 H432 0.950 . S
C439 C436 1.387 . S
C440 C441 1.387 . S
C440 H444 0.950 1_455 S
C440 C449 1.390 . S
C441 C440 1.387 . S
C441 C443 1.387 . S
H442 C449 0.950 1_655 S
C443 C441 1.387 . S
C443 C445 1.390 . S
C443 H447 0.950 . S
H444 C440 0.950 1_655 S
C445 C443 1.390 . S
C445 C446 1.387 . S
C445 H448 0.950 . S
C446 C445 1.387 . S
C446 C449 1.387 . S
H447 C443 0.950 . S
H448 C445 0.950 . S
C449 C440 1.390 . S
C449 H442 0.950 1_455 S
C449 C446 1.387 . S
C450 C451 1.387 . S
C450 H454 0.950 1_545 S
C450 C459 1.390 . S
C451 C450 1.387 . S
C451 C453 1.387 . S
H452 C459 0.950 1_565 S
C453 C451 1.387 . S
C453 C455 1.390 . S
C453 H457 0.950 . S
H454 C450 0.950 1_565 S
C455 C453 1.390 . S
C455 C456 1.387 . S
C455 H458 0.950 . S
C456 C455 1.387 . S
C456 C459 1.387 . S
H457 C453 0.950 . S
H458 C455 0.950 . S
C459 C450 1.390 . S
C459 H452 0.950 1_545 S
C459 C456 1.387 . S
C460 C461 1.387 . S
C460 H464 0.950 . S
C460 C469 1.390 . S
C461 C460 1.387 . S
C461 C463 1.387 . S
H462 C469 0.950 . S
C463 C461 1.387 . S
C463 C465 1.390 . S
C463 H467 0.950 . S
H464 C460 0.950 . S
C465 C463 1.390 . S
C465 C466 1.387 . S
C465 H468 0.950 . S
C466 C465 1.387 . S
C466 C469 1.387 . S
H467 C463 0.950 . S
H468 C465 0.950 . S
C469 C460 1.390 . S
C469 H462 0.950 . S
C469 C466 1.387 . S
C470 C471 1.387 . S
C470 H474 0.950 . S
C470 C479 1.390 . S
C471 C470 1.387 . S
C471 C473 1.387 . S
H472 C479 0.950 . S
C473 C471 1.387 . S
C473 C475 1.390 . S
C473 H477 0.950 1_565 S
H474 C470 0.950 . S
C475 C473 1.390 . S
C475 C476 1.387 . S
C475 H478 0.950 1_565 S
C476 C475 1.387 . S
C476 C479 1.387 . S
H477 C473 0.950 1_545 S
H478 C475 0.950 1_545 S
C479 C470 1.390 . S
C479 H472 0.950 . S
C479 C476 1.387 . S
C480 C481 1.387 . S
C480 H484 0.950 1_565 S
C480 C489 1.390 . S
C481 C480 1.387 . S
C481 C483 1.387 . S
H482 C489 0.950 1_545 S
C483 C481 1.387 . S
C483 C485 1.390 . S
C483 H487 0.950 . S
H484 C480 0.950 1_545 S
C485 C483 1.390 . S
C485 C486 1.387 . S
C485 H488 0.950 . S
C486 C485 1.387 . S
C486 C489 1.387 . S
H487 C483 0.950 . S
H488 C485 0.950 . S
C489 C480 1.390 . S
C489 H482 0.950 1_565 S
C489 C486 1.387 . S
C490 C491 1.387 . S
C490 H494 0.950 1_455 S
C490 C499 1.390 . S
C491 C490 1.387 . S
C491 C493 1.387 . S
H492 C499 0.950 1_655 S
C493 C491 1.387 . S
C493 C495 1.390 . S
C493 H497 0.950 . S
H494 C490 0.950 1_655 S
C495 C493 1.390 . S
C495 C496 1.387 . S
C495 H498 0.950 . S
C496 C495 1.387 . S
C496 C499 1.387 . S
H497 C493 0.950 . S
H498 C495 0.950 . S
C499 C490 1.390 . S
C499 H492 0.950 1_455 S
C499 C496 1.387 . S
C500 C501 1.387 . S
C500 H504 0.950 1_545 S
C500 C509 1.390 . S
C501 C500 1.387 . S
C501 C503 1.387 . S
H502 C509 0.950 1_565 S
C503 C501 1.387 . S
C503 C505 1.390 . S
C503 H507 0.950 . S
H504 C500 0.950 1_565 S
C505 C503 1.390 . S
C505 C506 1.387 . S
C505 H508 0.950 . S
C506 C505 1.387 . S
C506 C509 1.387 . S
H507 C503 0.950 . S
H508 C505 0.950 . S
C509 C500 1.390 . S
C509 H502 0.950 1_545 S
C509 C506 1.387 . S
C510 C511 1.387 . S
C510 H514 0.950 . S
C510 C519 1.390 . S
C511 C510 1.387 . S
C511 C513 1.387 . S
H512 C519 0.950 . S
C513 C511 1.387 . S
C513 C515 1.390 . S
C513 H517 0.950 1_655 S
H514 C510 0.950 . S
C515 C513 1.390 . S
C515 C516 1.387 . S
C515 H518 0.950 . S
C516 C515 1.387 . S
C516 C519 1.387 . S
H517 C513 0.950 1_455 S
H518 C515 0.950 . S
C519 C510 1.390 . S
C519 H512 0.950 . S
C519 C516 1.387 . S
C520 C521 1.387 . S
C520 H524 0.950 . S
C520 C529 1.390 . S
C521 C520 1.387 . S
C521 C523 1.387 . S
H522 C529 0.950 . S
C523 C521 1.387 . S
C523 C525 1.390 . S
C523 H527 0.950 . S
H524 C520 0.950 . S
C525 C523 1.390 . S
C525 C526 1.387 . S
C525 H528 0.950 . S
C526 C525 1.387 . S
C526 C529 1.387 . S
H527 C523 0.950 . S
H528 C525 0.950 . S
C529 C520 1.390 . S
C529 H522 0.950 . S
C529 C526 1.387 . S
C530 C531 1.387 . S
C530 H534 0.950 . S
C530 C539 1.390 . S
C531 C530 1.387 . S
C531 C533 1.387 . S
H532 C539 0.950 . S
C533 C531 1.387 . S
C533 C535 1.390 . S
C533 H537 0.950 . S
H534 C530 0.950 . S
C535 C533 1.390 . S
C535 C536 1.387 . S
C535 H538 0.950 . S
C536 C535 1.387 . S
C536 C539 1.387 . S
H537 C533 0.950 . S
H538 C535 0.950 . S
C539 C530 1.390 . S
C539 H532 0.950 . S
C539 C536 1.387 . S
C540 C541 1.387 . S
C540 H544 0.950 . S
C540 C549 1.390 . S
C541 C540 1.387 . S
C541 C543 1.387 . S
H542 C549 0.950 . S
C543 C541 1.387 . S
C543 C545 1.390 . S
C543 H547 0.950 . S
H544 C540 0.950 . S
C545 C543 1.390 . S
C545 C546 1.387 . S
C545 H548 0.950 . S
C546 C545 1.387 . S
C546 C549 1.387 . S
H547 C543 0.950 . S
H548 C545 0.950 . S
C549 C540 1.390 . S
C549 H542 0.950 . S
C549 C546 1.387 . S
C550 C551 1.387 . S
C550 H554 0.950 . S
C550 C559 1.390 . S
C551 C550 1.387 . S
C551 C553 1.387 . S
H552 C559 0.950 . S
C553 C551 1.387 . S
C553 C555 1.390 . S
C553 H557 0.950 . S
H554 C550 0.950 . S
C555 C553 1.390 . S
C555 C556 1.387 . S
C555 H558 0.950 . S
C556 C555 1.387 . S
C556 C559 1.387 . S
H557 C553 0.950 . S
H558 C555 0.950 . S
C559 C550 1.390 . S
C559 H552 0.950 . S
C559 C556 1.387 . S
C560 C561 1.387 . S
C560 H564 0.950 . S
C560 C569 1.390 . S
C561 C560 1.387 . S
C561 C563 1.387 . S
H562 C569 0.950 . S
C563 C561 1.387 . S
C563 C565 1.390 . S
C563 H567 0.950 . S
H564 C560 0.950 . S
C565 C563 1.390 . S
C565 C566 1.387 . S
C565 H568 0.950 . S
C566 C565 1.387 . S
C566 C569 1.387 . S
H567 C563 0.950 . S
H568 C565 0.950 . S
C569 C560 1.390 . S
C569 H562 0.950 . S
C569 C566 1.387 . S
C570 C571 1.387 . S
C570 H574 0.950 . S
C570 C579 1.390 . S
C571 C570 1.387 . S
C571 C573 1.387 . S
H572 C579 0.950 . S
C573 C571 1.387 . S
C573 C575 1.390 . S
C573 H577 0.950 . S
H574 C570 0.950 . S
C575 C573 1.390 . S
C575 C576 1.387 . S
C575 H578 0.950 . S
C576 C575 1.387 . S
C576 C579 1.387 . S
H577 C573 0.950 . S
H578 C575 0.950 . S
C579 C570 1.390 . S
C579 H572 0.950 . S
C579 C576 1.387 . S
C580 C581 1.387 . S
C580 H584 0.950 . S
C580 C589 1.390 . S
C581 C580 1.387 . S
C581 C583 1.387 . S
H582 C589 0.950 . S
C583 C581 1.387 . S
C583 C585 1.390 . S
C583 H587 0.950 . S
H584 C580 0.950 . S
C585 C583 1.390 . S
C585 C586 1.387 . S
C585 H588 0.950 . S
C586 C585 1.387 . S
C586 C589 1.387 . S
H587 C583 0.950 . S
H588 C585 0.950 . S
C589 C580 1.390 . S
C589 H582 0.950 . S
C589 C586 1.387 . S
C590 C591 1.387 . S
C590 H594 0.950 . S
C590 C599 1.390 . S
C591 C590 1.387 . S
C591 C593 1.387 . S
H592 C599 0.950 . S
C593 C591 1.387 . S
C593 C595 1.390 . S
C593 H597 0.950 . S
H594 C590 0.950 . S
C595 C593 1.390 . S
C595 C596 1.387 . S
C595 H598 0.950 . S
C596 C595 1.387 . S
C596 C599 1.387 . S
H597 C593 0.950 . S
H598 C595 0.950 . S
C599 C590 1.390 . S
C599 H592 0.950 . S
C599 C596 1.387 . S
C361 C45 1.593 . S
C366 C127 1.645 . S
C371 C30 1.596 . S
C376 C159 1.645 . S
C381 C39 1.593 . S
C386 C191 1.515 . S
C396 C223 1.514 . S
C391 C34 1.593 . S
C401 C97 1.596 . S
C406 C255 1.646 . S
C416 C287 1.645 . S
C411 C82 1.596 . S
C426 C319 1.519 . S
C421 C91 1.596 . S
C436 C351 1.519 . S
C431 C86 1.596 . S
C446 C313 1.453 . S
C441 C26 1.472 . S
C456 C345 1.452 . S
C451 C36 1.472 . S
C466 C261 1.579 . S
C461 C32 1.481 . S
C476 C293 1.581 . S
C471 C42 1.484 . S
C481 C18 1.535 . S
C486 C281 1.658 . S
C496 C325 1.518 . S
C491 C50 1.545 . S
C501 C4 1.545 . S
C506 C357 1.519 . S
C511 C48 1.533 . S
C516 C249 1.661 . S
C526 C185 1.452 . S
C521 C78 1.471 . S
C531 C88 1.475 . S
C536 C217 1.454 . S
C546 C133 1.579 . S
C541 C84 1.481 . S
C556 C165 1.581 . S
C551 C94 1.484 . S
C566 C153 1.658 . S
C561 C70 1.535 . S
C576 C197 1.514 . S
C571 C102 1.541 . S
C581 C56 1.541 . S
C586 C229 1.515 . S
C591 C100 1.532 . S
C596 C121 1.661 . S
