# Generated by pormake.
# Topology anh, (6,3)-cn, num edge types: 1
# Building blocks:
#     Node 0, Type 0, BuildingBlock: GEDQOX_clean_sbu_0, # of connection points: 6
#     Node 1, Type 0, BuildingBlock: GEDQOX_clean_sbu_0, # of connection points: 6
#     Node 2, Type 0, BuildingBlock: GEDQOX_clean_sbu_0, # of connection points: 6
#     Node 3, Type 1, BuildingBlock: PAMTOO_clean_linker_0, # of connection points: 3
#     Node 4, Type 1, BuildingBlock: PAMTOO_clean_linker_0, # of connection points: 3
#     Node 5, Type 1, BuildingBlock: PAMTOO_clean_linker_0, # of connection points: 3
#     Node 6, Type 1, BuildingBlock: PAMTOO_clean_linker_0, # of connection points: 3
#     Node 7, Type 1, BuildingBlock: PAMTOO_clean_linker_0, # of connection points: 3
#     Node 8, Type 1, BuildingBlock: PAMTOO_clean_linker_0, # of connection points: 3
#     Edge 9, Type (0, 1), BuildingBlock: OJICUG_clean_linker_0, # of connection points: 2
#     Edge 10, Type (0, 1), BuildingBlock: OJICUG_clean_linker_0, # of connection points: 2
#     Edge 11, Type (0, 1), BuildingBlock: OJICUG_clean_linker_0, # of connection points: 2
#     Edge 12, Type (0, 1), BuildingBlock: OJICUG_clean_linker_0, # of connection points: 2
#     Edge 13, Type (0, 1), BuildingBlock: OJICUG_clean_linker_0, # of connection points: 2
#     Edge 14, Type (0, 1), BuildingBlock: OJICUG_clean_linker_0, # of connection points: 2
#     Edge 15, Type (0, 1), BuildingBlock: OJICUG_clean_linker_0, # of connection points: 2
#     Edge 16, Type (0, 1), BuildingBlock: OJICUG_clean_linker_0, # of connection points: 2
#     Edge 17, Type (0, 1), BuildingBlock: OJICUG_clean_linker_0, # of connection points: 2
#     Edge 18, Type (0, 1), BuildingBlock: OJICUG_clean_linker_0, # of connection points: 2
#     Edge 19, Type (0, 1), BuildingBlock: OJICUG_clean_linker_0, # of connection points: 2
#     Edge 20, Type (0, 1), BuildingBlock: OJICUG_clean_linker_0, # of connection points: 2
#     Edge 21, Type (0, 1), BuildingBlock: OJICUG_clean_linker_0, # of connection points: 2
#     Edge 22, Type (0, 1), BuildingBlock: OJICUG_clean_linker_0, # of connection points: 2
#     Edge 23, Type (0, 1), BuildingBlock: OJICUG_clean_linker_0, # of connection points: 2
#     Edge 24, Type (0, 1), BuildingBlock: OJICUG_clean_linker_0, # of connection points: 2
#     Edge 25, Type (0, 1), BuildingBlock: OJICUG_clean_linker_0, # of connection points: 2
#     Edge 26, Type (0, 1), BuildingBlock: OJICUG_clean_linker_0, # of connection points: 2
# Relax obj value: 0.225
# Max RMSD: 0.216
# Mean RMSD: 0.136
data_MOF--net-anh--node1-GEDQOX_clean_sbu_0--node2-PAMTOO_clean_linker_0--edge1-OJICUG_clean_linker_0
_symmetry_space_group_name_H-M    P1
_symmetry_Int_Tables_number       1
_symmetry_cell_setting            triclinic
loop_
_symmetry_equiv_pos_as_xyz
'x, y, z'
_cell_length_a     21.517528
_cell_length_b     21.14132
_cell_length_c     36.062412
_cell_angle_alpha  88.360628
_cell_angle_beta   93.677319
_cell_angle_gamma 92.306462
loop_
_atom_site_label
_atom_site_type_symbol
_atom_site_fract_x
_atom_site_fract_y
_atom_site_fract_z
_atom_type_partial_charge
Nd0 Nd 0.18626 0.63392 0.14546 0.0
Nd1 Nd 0.1733 0.48956 0.14273 0.0
C2 C 0.21569 0.75566 0.13535 0.0
C3 C 0.27185 0.79739 0.14063 0.0
C4 C 0.33036 0.77789 0.13125 0.0
C5 C 0.38314 0.81816 0.1363 0.0
C6 C 0.37847 0.87858 0.15097 0.0
C7 C 0.31986 0.89774 0.16056 0.0
C8 C 0.26703 0.8575 0.15536 0.0
C9 C 0.17364 0.57537 0.21332 0.0
C10 C 0.31449 0.54877 0.14414 0.0
C11 C 1.14579 0.36746 0.15401 0.0
C12 C 1.09351 0.32726 0.16667 0.0
C13 C 1.04044 0.35399 0.17938 0.0
C14 C 0.99123 0.31506 0.19153 0.0
C15 C 0.99432 0.24864 0.19128 0.0
C16 C 1.04799 0.22229 0.17869 0.0
C17 C 1.09703 0.26128 0.16647 0.0
C18 C 0.18616 0.55262 0.07586 0.0
C19 C 1.04604 0.57271 0.13812 0.0
O20 O 0.21607 0.71406 0.10924 0.0
O21 O 0.19164 0.73261 0.1655 0.0
O22 O 0.14873 0.62856 0.20327 0.0
O23 O 0.20631 0.55583 0.18841 0.0
O24 O 0.28917 0.60507 0.14064 0.0
O25 O 0.2799 0.49633 0.14863 0.0
O26 O 0.1748 0.40336 0.17906 0.0
O27 O 1.13688 0.39666 0.12174 0.0
O28 O 0.2128 0.49952 0.08429 0.0
O29 O 0.15295 0.56766 0.1013 0.0
O30 O 1.07202 0.51971 0.15053 0.0
O31 O 1.08116 0.62284 0.12877 0.0
H32 H 0.33536 0.73156 0.11999 0.0
H33 H 0.42773 0.80169 0.12911 0.0
H34 H 0.31465 0.94424 0.17156 0.0
H35 H 0.2223 0.8734 0.16274 0.0
H36 H 1.03705 0.40489 0.17987 0.0
H37 H 0.95037 0.33703 0.20055 0.0
H38 H 1.05242 0.17146 0.1786 0.0
H39 H 1.13787 0.23986 0.15697 0.0
Nd40 Nd 0.6116 0.99206 0.50343 0.0
Nd41 Nd 0.75885 1.00011 0.48786 0.0
C42 C 0.50021 0.9603 0.52639 0.0
C43 C 0.45515 0.90676 0.51892 0.0
C44 C 0.43399 0.8691 0.54857 0.0
C45 C 0.39383 0.81635 0.54185 0.0
C46 C 0.37374 0.80025 0.50527 0.0
C47 C 0.39459 0.83858 0.47566 0.0
C48 C 0.43502 0.89099 0.48237 0.0
C49 C 0.64101 1.00267 0.43061 0.0
C50 C 0.69171 0.86027 0.5003 0.0
C51 C 0.8608 1.02155 0.45183 0.0
C52 C 0.90934 0.07212 0.44884 0.0
C53 C 0.93041 0.08823 0.41371 0.0
C54 C 0.97056 0.14092 0.40895 0.0
C55 C 0.99065 0.1784 0.43932 0.0
C56 C 0.97128 0.16095 0.47482 0.0
C57 C 0.93045 0.10843 0.47951 0.0
C58 C 0.74082 1.01139 0.56271 0.0
C59 C 0.68121 0.12939 0.49981 0.0
O60 O 0.55197 0.94633 0.54534 0.0
O61 O 0.50917 1.00086 0.49892 0.0
O62 O 0.592 1.02667 0.44299 0.0
O63 O 0.66963 0.97058 0.4558 0.0
O64 O 0.63962 0.88833 0.50669 0.0
O65 O 0.74278 0.89184 0.49026 0.0
O66 O 0.80525 0.03683 0.43844 0.0
O67 O 0.86001 0.98807 0.48306 0.0
O68 O 0.79591 1.01306 0.54974 0.0
O69 O 0.70101 1.0059 0.53597 0.0
O70 O 0.72594 0.1026 0.48286 0.0
O71 O 0.63679 0.0958 0.51616 0.0
H72 H 0.44925 0.88 0.57697 0.0
H73 H 0.37948 0.78754 0.56534 0.0
H74 H 0.37937 0.8284 0.44718 0.0
H75 H 0.45076 0.91883 0.45885 0.0
H76 H 0.91424 0.06108 0.38969 0.0
H77 H 0.98521 0.15297 0.38136 0.0
H78 H 0.98568 0.18935 0.49861 0.0
H79 H 0.91401 0.09735 0.5068 0.0
Nd80 Nd 0.60169 0.48825 0.81296 0.0
Nd81 Nd 0.73551 0.47902 0.82252 0.0
C82 C 0.48059 0.49568 0.8007 0.0
C83 C 0.44472 0.55179 0.80792 0.0
C84 C 0.46089 0.61114 0.79174 0.0
C85 C 0.44173 0.66686 0.8066 0.0
C86 C 0.40624 0.66437 0.83796 0.0
C87 C 0.3854 0.60507 0.85203 0.0
C88 C 0.40434 0.54924 0.83705 0.0
C89 C 0.64846 0.51232 0.88426 0.0
C90 C 0.67861 0.62057 0.80565 0.0
C91 C 0.85663 0.4855 0.8401 0.0
C92 C 0.91065 0.52513 0.83031 0.0
C93 C 0.97012 0.50649 0.84266 0.0
C94 C 1.02191 0.54638 0.83699 0.0
C95 C 1.01507 0.60581 0.8188 0.0
C96 C 0.95545 0.62256 0.8044 0.0
C97 C 0.90349 0.5824 0.81014 0.0
C98 C 0.6905 0.46646 0.74954 0.0
C99 C 0.65869 0.34869 0.82285 0.0
O100 O 0.5189 0.50167 0.77393 0.0
O101 O 0.50582 0.46783 0.83048 0.0
O102 O 0.60793 0.54625 0.86572 0.0
O103 O 0.66413 0.46702 0.86519 0.0
O104 O 0.62535 0.59064 0.79648 0.0
O105 O 0.72698 0.58887 0.81955 0.0
O106 O 0.83111 0.45012 0.81382 0.0
O107 O 0.8158 0.51243 0.85919 0.0
O108 O 0.73229 0.43117 0.76582 0.0
O109 O 0.67442 0.50676 0.77165 0.0
O110 O 0.70656 0.37815 0.84024 0.0
O111 O 0.61537 0.38179 0.80451 0.0
H112 H 0.49216 0.61506 0.76935 0.0
H113 H 0.45849 0.71186 0.79518 0.0
H114 H 0.35691 0.60191 0.87577 0.0
H115 H 0.39125 0.50424 0.85005 0.0
H116 H 0.97626 0.46219 0.8581 0.0
H117 H 1.0667 0.53224 0.84918 0.0
H118 H 0.94867 0.66776 0.79013 0.0
H119 H 0.85762 0.59699 0.80003 0.0
H120 H 0.7998 0.09593 0.29413 0.0
H121 H 0.62884 0.9974 0.25752 0.0
H122 H 0.74888 0.07725 0.17694 0.0
H123 H 0.61131 0.06726 0.14363 0.0
C124 C 0.59753 0.04683 0.17077 0.0
O125 O 0.64568 1.01206 0.18671 0.0
H126 H 0.5875 0.08726 0.18838 0.0
C127 C 0.76814 0.07886 0.27171 0.0
C128 C 0.78194 0.09107 0.23439 0.0
C129 C 0.71284 0.04534 0.28019 0.0
C130 C 0.67167 1.02319 0.25132 0.0
C131 C 0.68535 1.03417 0.21431 0.0
C132 C 0.74006 0.06795 0.20587 0.0
H133 H 0.68127 0.61751 0.59437 0.0
H134 H 0.71306 0.42036 0.57696 0.0
H135 H 0.71556 0.55431 0.48572 0.0
H136 H 0.66955 0.41612 0.45726 0.0
C137 C 0.66959 0.40336 0.48736 0.0
O138 O 0.72001 0.43409 0.50568 0.0
H139 H 0.62461 0.41892 0.49711 0.0
C140 C 0.69154 0.57941 0.57656 0.0
C141 C 0.69941 0.5935 0.53881 0.0
C142 C 0.69734 0.51734 0.59133 0.0
C143 C 0.70808 0.46872 0.56689 0.0
C144 C 0.7133 0.48197 0.52894 0.0
C145 C 0.71065 0.54444 0.51507 0.0
H146 H 0.18601 0.65726 0.91811 0.0
H147 H 0.2855 0.80103 0.98254 0.0
H148 H 0.22864 0.83944 0.86776 0.0
H149 H 0.38647 0.8927 0.94542 0.0
C150 C 0.35817 0.88864 0.91865 0.0
O151 O 0.2955 0.88197 0.92594 0.0
H152 H 0.36571 0.93372 0.90268 0.0
C153 C 0.20865 0.70402 0.91976 0.0
C154 C 0.20491 0.74559 0.88881 0.0
C155 C 0.23614 0.724 0.95376 0.0
C156 C 0.26309 0.78536 0.95645 0.0
C157 C 0.26234 0.82612 0.925 0.0
C158 C 0.23108 0.80705 0.8916 0.0
H159 H 1.12706 0.39834 0.35152 0.0
H160 H 0.23427 0.56315 0.38829 0.0
H161 H 0.16539 0.42932 0.46879 0.0
H162 H 0.18043 0.56684 0.49942 0.0
C163 C 0.20297 0.58442 0.47401 0.0
O164 O 0.2317 0.53449 0.45912 0.0
H165 H 0.16613 0.60339 0.45409 0.0
C166 C 0.14839 0.42615 0.37406 0.0
C167 C 1.14151 0.40623 0.41123 0.0
C168 C 0.1809 0.48297 0.36558 0.0
C169 C 0.20902 0.51913 0.39449 0.0
C170 C 0.2041 0.49919 0.43155 0.0
C171 C 0.17026 0.44308 0.43993 0.0
H172 H 0.70034 0.86816 0.71093 0.0
H173 H 0.71161 0.06636 0.73601 0.0
H174 H 0.69834 0.92653 0.82432 0.0
H175 H 0.6405 0.05452 0.84711 0.0
C176 C 0.64844 0.07274 0.81854 0.0
O177 O 0.70324 0.04896 0.80755 0.0
H178 H 0.60777 0.05584 0.80024 0.0
C179 C 0.7013 0.90543 0.73104 0.0
C180 C 0.69907 0.88938 0.76904 0.0
C181 C 0.70683 0.96902 0.71887 0.0
C182 C 0.70825 1.01706 0.74502 0.0
C183 C 0.70422 1.00188 0.78289 0.0
C184 C 0.70102 0.93803 0.79498 0.0
H185 H 0.80571 0.54642 0.03991 0.0
H186 H 0.6084 0.54921 0.05364 0.0
H187 H 0.73819 0.57439 0.14808 0.0
H188 H 0.60192 0.52217 0.17207 0.0
C189 C 0.58541 0.52331 0.14225 0.0
O190 O 0.61816 0.57161 0.12415 0.0
H191 H 0.59534 0.47668 0.13071 0.0
C192 C 0.76727 0.54994 0.05768 0.0
C193 C 0.77992 0.56029 0.09588 0.0
C194 C 0.70568 0.54562 0.04207 0.0
C195 C 0.65616 0.55188 0.06518 0.0
C196 C 0.66734 0.56192 0.10326 0.0
C197 C 0.7294 0.56559 0.11873 0.0
C198 C 0.42436 0.59778 0.14271 0.0
C199 C 0.38364 0.54376 0.14247 0.0
H200 H 0.51936 0.63428 0.14291 0.0
C201 C 0.4098 0.48403 0.14062 0.0
H202 H 0.40625 0.64458 0.14437 0.0
C203 C 0.47434 0.47833 0.13931 0.0
C204 C 0.51511 0.53206 0.13959 0.0
H205 H 0.38042 0.44121 0.14035 0.0
H206 H 0.4926 0.4314 0.13862 0.0
C207 C 0.4893 0.59197 0.14165 0.0
C208 C 1.0827 0.25161 0.45612 0.0
C209 C 1.02885 0.23732 0.4333 0.0
H210 H 0.16147 0.31538 0.46662 0.0
C211 C 1.01135 0.27973 0.4042 0.0
H212 H 1.09726 0.21958 0.47871 0.0
C213 C 1.04732 0.33476 0.3976 0.0
C214 C 1.1023 0.34851 0.41963 0.0
H215 H 0.96933 0.27061 0.38666 0.0
H216 H 1.03163 0.36676 0.37527 0.0
C217 C 1.11927 0.30654 0.44924 0.0
C218 C 0.6381 0.71921 0.77448 0.0
C219 C 0.68395 0.69003 0.79796 0.0
H220 H 0.60738 0.80467 0.74702 0.0
C221 C 0.73397 0.7278 0.81329 0.0
H222 H 0.5989 0.69182 0.76211 0.0
C223 C 0.738 0.79323 0.80507 0.0
C224 C 0.69281 0.82161 0.78081 0.0
H225 H 0.76992 0.70687 0.83155 0.0
H226 H 0.77727 0.8213 0.8168 0.0
C227 C 0.64281 0.78395 0.76577 0.0
C228 C 0.94969 0.61884 0.10622 0.0
C229 C 0.97669 0.57342 0.13092 0.0
H230 H 0.8668 0.64989 0.07581 0.0
C231 C 0.93703 0.52631 0.14636 0.0
H232 H 0.97847 0.65561 0.09357 0.0
C233 C 0.87252 0.52385 0.13662 0.0
C234 C 0.84631 0.5677 0.11068 0.0
H235 H 0.95598 0.49055 0.16549 0.0
H236 H 0.84355 0.48609 0.14816 0.0
C237 C 0.8856 0.61558 0.09597 0.0
C238 C 0.33844 0.70587 0.46713 0.0
C239 C 0.33135 0.74379 0.49794 0.0
H240 H 0.30377 0.62648 0.43533 0.0
C241 C 0.28281 0.72785 0.52127 0.0
H242 H 0.37563 0.71614 0.44875 0.0
C243 C 0.24235 0.67561 0.5139 0.0
C244 C 0.24967 0.63781 0.4832 0.0
H245 H 0.27509 0.75657 0.54481 0.0
H246 H 0.20474 0.66517 0.53197 0.0
C247 C 0.29771 0.65393 0.45964 0.0
C248 C 0.60902 0.24612 0.79996 0.0
C249 C 0.65572 0.2783 0.82201 0.0
H250 H 0.57061 0.15653 0.78122 0.0
C251 C 0.70077 0.24255 0.84233 0.0
H252 H 0.57375 0.27201 0.78381 0.0
C253 C 0.69893 0.17633 0.84075 0.0
C254 C 0.65236 0.14435 0.81862 0.0
H255 H 0.73749 0.26567 0.85957 0.0
H256 H 0.73371 0.14994 0.857 0.0
C257 C 0.60739 0.17994 0.79828 0.0
C258 C 0.74347 0.7554 0.49803 0.0
C259 C 0.69216 0.79051 0.50633 0.0
H260 H 0.78553 0.66465 0.50137 0.0
C261 C 0.64151 0.75872 0.5226 0.0
H262 H 0.78311 0.77829 0.48541 0.0
C263 C 0.64324 0.69434 0.53189 0.0
C264 C 0.69523 0.65981 0.52477 0.0
H265 H 0.60098 0.78384 0.52933 0.0
H266 H 0.60432 0.67168 0.54538 0.0
C267 C 0.74478 0.69041 0.50697 0.0
C268 C 1.12948 0.63381 0.82112 0.0
C269 C 1.06776 0.65331 0.82148 0.0
H270 H 0.22379 0.64986 0.8426 0.0
C271 C 1.05728 0.71448 0.83353 0.0
H272 H 1.13923 0.58773 0.81099 0.0
C273 C 1.10604 0.75062 0.8507 0.0
C274 C 0.16538 0.72571 0.85616 0.0
H275 H 1.01048 0.73127 0.8341 0.0
H276 H 1.09543 0.79383 0.86405 0.0
C277 C 0.17802 0.66957 0.83878 0.0
C278 C 0.47778 0.92785 0.12845 0.0
C279 C 0.43448 0.92161 0.15606 0.0
H280 H 0.56303 0.97263 0.11151 0.0
C281 C 0.44509 0.95673 0.18856 0.0
H282 H 0.47074 0.90173 0.10303 0.0
C283 C 0.49771 0.99737 0.19324 0.0
C284 C 0.5402 1.00431 0.16533 0.0
H285 H 0.41318 0.9521 0.2106 0.0
H286 H 0.50531 1.02342 0.21868 0.0
C287 C 0.53025 0.96869 0.13311 0.0
C288 C 0.63446 0.23122 0.51653 0.0
C289 C 0.68008 0.19956 0.4988 0.0
H290 H 0.59575 0.32047 0.52712 0.0
C291 C 0.72381 0.23566 0.47882 0.0
H292 H 0.60031 0.20504 0.53231 0.0
C293 C 0.72087 0.30151 0.47575 0.0
C294 C 0.6743 0.33277 0.4926 0.0
H295 H 0.75983 0.21309 0.46491 0.0
H296 H 0.75438 0.32808 0.45968 0.0
C297 C 0.63177 0.29725 0.51357 0.0
C298 C 0.37839 0.77862 0.83876 0.0
C299 C 0.39643 0.72294 0.85806 0.0
H300 H 0.35285 0.87515 0.84296 0.0
C301 C 0.40761 0.72395 0.89687 0.0
H302 H 0.36943 0.7791 0.80886 0.0
C303 C 0.39946 0.779 0.91611 0.0
C304 C 0.37955 0.83403 0.89699 0.0
H305 H 0.42268 0.68209 0.9124 0.0
H306 H 0.40625 0.77795 0.94615 0.0
C307 C 0.36964 0.83363 0.85812 0.0
C308 C 0.92329 0.15174 0.18411 0.0
C309 C 0.94145 0.20699 0.20344 0.0
H310 H 0.85999 0.07138 0.17911 0.0
C311 C 0.90815 0.22242 0.23407 0.0
H312 H 0.94739 0.13863 0.16018 0.0
C313 C 0.85735 0.18414 0.24466 0.0
C314 C 0.83856 0.12952 0.22487 0.0
H315 H 0.92132 0.26414 0.24991 0.0
H316 H 0.83185 0.19828 0.2678 0.0
C317 C 0.87265 0.11349 0.19472 0.0
C318 C 0.24667 0.58277 0.02028 0.0
C319 C 0.20044 0.59584 0.04446 0.0
H320 H 0.29478 0.61424 0.97218 0.0
C321 C 0.16847 0.65241 0.0393 0.0
H322 H 0.27184 0.53942 0.02362 0.0
C323 C 0.18314 0.69576 0.01106 0.0
C324 C 0.22891 0.68264 0.98682 0.0
H325 H 1.13197 0.66333 0.05717 0.0
H326 H 0.15718 0.7386 0.00731 0.0
C327 C 0.26034 0.62569 -0.00869 0.0
C328 C 0.62585 0.05271 0.36746 0.0
C329 C 0.66028 1.01304 0.39225 0.0
H330 H 0.61575 0.09365 0.3124 0.0
C331 C 0.71259 0.98401 0.37993 0.0
H332 H 0.58514 0.0755 0.37608 0.0
C333 C 0.73099 0.99583 0.34372 0.0
C334 C 0.69621 1.03531 0.31906 0.0
H335 H 0.7392 0.95219 0.39823 0.0
H336 H 0.77149 0.97315 0.33471 0.0
C337 C 0.64335 0.06331 0.33112 0.0
C338 C 0.67035 0.43208 0.68413 0.0
C339 C 0.68913 0.47931 0.70934 0.0
H340 H 0.65481 0.40766 0.62712 0.0
C341 C 0.70983 0.53881 0.69602 0.0
H342 H 0.65427 0.38579 0.69405 0.0
C343 C 0.71302 0.55073 0.65796 0.0
C344 C 0.6935 0.50403 0.63212 0.0
H345 H 0.72555 0.57558 0.71518 0.0
H346 H 0.73222 0.59634 0.64907 0.0
C347 C 0.67148 0.44461 0.64582 0.0
C348 C 0.67649 0.97084 0.61417 0.0
C349 C 0.7287 1.006 0.60248 0.0
H350 H 0.62896 0.93095 0.66041 0.0
C351 C 0.77204 1.03166 0.62927 0.0
H352 H 0.64324 0.94949 0.59408 0.0
C353 C 0.76359 1.02177 0.66719 0.0
C354 C 0.71247 0.9847 0.67889 0.0
H355 H 0.81289 0.05865 0.62088 0.0
H356 H 0.79819 0.04111 0.68736 0.0
C357 C 0.66871 0.95975 0.65205 0.0
C358 C 0.63544 0.56668 0.9435 0.0
C359 C 0.66514 0.52071 0.92435 0.0
H360 H 0.62509 0.6106 -0.00466 0.0
C361 C 0.70956 0.48349 0.94395 0.0
H362 H 0.60121 0.59639 0.92917 0.0
C363 C 0.7235 0.49191 0.98212 0.0
C364 C 0.69276 0.53721 0.00138 0.0
H365 H 0.7333 0.44786 0.92985 0.0
H366 H 0.75744 0.46222 -0.00328 0.0
C367 C 0.64886 0.57465 0.98151 0.0
C368 C 0.15498 0.58805 0.28008 0.0
C369 C 0.17618 0.55096 0.2521 0.0
H370 H 1.14116 0.59578 0.33805 0.0
C371 C 0.20036 0.49157 0.26175 0.0
H372 H 1.13631 0.63414 0.2735 0.0
C373 C 0.20216 0.46922 0.29873 0.0
C374 C 0.18132 0.50669 0.32664 0.0
H375 H 0.21749 0.46233 0.24078 0.0
H376 H 0.22021 0.42295 0.3056 0.0
C377 C 0.1581 0.56639 0.31703 0.0
loop_
_geom_bond_atom_site_label_1
_geom_bond_atom_site_label_2
_geom_bond_distance
_geom_bond_site_symmetry_2
_ccdc_geom_bond_type
Nd0 C2 2.836 . S
Nd0 O20 2.500 . S
Nd0 O21 2.492 . S
Nd0 O22 2.487 . S
Nd0 O23 2.682 1_455 S
Nd0 O24 2.410 . S
Nd0 O29 2.414 . S
Nd0 O31 2.424 1_455 S
Nd1 C11 2.836 . S
Nd1 O23 2.414 . S
Nd1 O25 2.424 1_655 S
Nd1 O26 2.500 . S
Nd1 O27 2.492 . S
Nd1 O28 2.487 . S
Nd1 O29 2.682 1_655 S
Nd1 O30 2.410 . S
C2 Nd0 2.836 . S
C2 C3 1.498 . S
C2 O20 1.258 . S
C2 O21 1.239 . S
C3 C2 1.498 . S
C3 C4 1.366 . S
C3 C8 1.407 . S
C4 C3 1.366 . S
C4 C5 1.392 . S
C4 H32 0.930 . S
C5 C4 1.392 . S
C5 C6 1.398 . S
C5 H33 0.929 . S
C6 C5 1.398 . S
C6 C7 1.352 . S
C7 C6 1.352 . S
C7 C8 1.384 . S
C7 H34 0.930 . S
C8 C3 1.407 . S
C8 C7 1.384 . S
C8 H35 0.929 . S
C9 O22 1.241 . S
C9 O23 1.273 1_455 S
C10 O24 1.251 . S
C10 O25 1.268 . S
C11 Nd1 2.836 . S
C11 C12 1.498 . S
C11 O26 1.258 . S
C11 O27 1.239 . S
C12 C11 1.498 . S
C12 C13 1.366 . S
C12 C17 1.407 . S
C13 C12 1.366 . S
C13 C14 1.392 . S
C13 H36 0.930 . S
C14 C13 1.392 . S
C14 C15 1.398 . S
C14 H37 0.929 . S
C15 C14 1.398 . S
C15 C16 1.352 . S
C16 C15 1.352 . S
C16 C17 1.384 . S
C16 H38 0.930 . S
C17 C12 1.407 . S
C17 C16 1.384 . S
C17 H39 0.929 . S
C18 O28 1.241 1_455 S
C18 O29 1.273 . S
C19 O30 1.251 . S
C19 O31 1.268 . S
O20 Nd0 2.500 . S
O20 C2 1.258 . S
O21 Nd0 2.492 . S
O21 C2 1.239 . S
O22 Nd0 2.487 . S
O22 C9 1.241 . S
O23 Nd0 2.682 1_655 S
O23 Nd1 2.414 . S
O23 C9 1.273 1_655 S
O24 Nd0 2.410 . S
O24 C10 1.251 . S
O25 Nd1 2.424 1_455 S
O25 C10 1.268 . S
O26 Nd1 2.500 . S
O26 C11 1.258 . S
O27 Nd1 2.492 . S
O27 C11 1.239 . S
O28 Nd1 2.487 . S
O28 C18 1.241 1_655 S
O29 Nd0 2.414 . S
O29 Nd1 2.682 1_455 S
O29 C18 1.273 . S
O30 Nd1 2.410 . S
O30 C19 1.251 . S
O31 Nd0 2.424 1_655 S
O31 C19 1.268 . S
H32 C4 0.930 . S
H33 C5 0.929 . S
H34 C7 0.930 . S
H35 C8 0.929 . S
H36 C13 0.930 . S
H37 C14 0.929 . S
H38 C16 0.930 . S
H39 C17 0.929 . S
Nd40 C42 2.836 . S
Nd40 O60 2.500 . S
Nd40 O61 2.492 . S
Nd40 O62 2.487 . S
Nd40 O63 2.682 1_565 S
Nd40 O64 2.410 . S
Nd40 O69 2.414 . S
Nd40 O71 2.424 1_565 S
Nd41 C51 2.836 . S
Nd41 O63 2.414 . S
Nd41 O65 2.424 1_545 S
Nd41 O66 2.500 . S
Nd41 O67 2.492 . S
Nd41 O68 2.487 . S
Nd41 O69 2.682 1_545 S
Nd41 O70 2.410 . S
C42 Nd40 2.836 . S
C42 C43 1.498 . S
C42 O60 1.258 . S
C42 O61 1.239 . S
C43 C42 1.498 . S
C43 C44 1.366 . S
C43 C48 1.407 . S
C44 C43 1.366 . S
C44 C45 1.392 . S
C44 H72 0.930 . S
C45 C44 1.392 . S
C45 C46 1.398 . S
C45 H73 0.929 . S
C46 C45 1.398 . S
C46 C47 1.352 . S
C47 C46 1.352 . S
C47 C48 1.384 . S
C47 H74 0.930 . S
C48 C43 1.407 . S
C48 C47 1.384 . S
C48 H75 0.929 . S
C49 O62 1.241 1_545 S
C49 O63 1.273 . S
C50 O64 1.251 . S
C50 O65 1.268 . S
C51 Nd41 2.836 . S
C51 C52 1.498 . S
C51 O66 1.258 . S
C51 O67 1.239 . S
C52 C51 1.498 . S
C52 C53 1.366 . S
C52 C57 1.407 . S
C53 C52 1.366 . S
C53 C54 1.392 . S
C53 H76 0.930 . S
C54 C53 1.392 . S
C54 C55 1.398 . S
C54 H77 0.929 . S
C55 C54 1.398 . S
C55 C56 1.352 . S
C56 C55 1.352 . S
C56 C57 1.384 . S
C56 H78 0.930 . S
C57 C52 1.407 . S
C57 C56 1.384 . S
C57 H79 0.929 . S
C58 O68 1.241 . S
C58 O69 1.273 1_545 S
C59 O70 1.251 . S
C59 O71 1.268 . S
O60 Nd40 2.500 . S
O60 C42 1.258 . S
O61 Nd40 2.492 . S
O61 C42 1.239 . S
O62 Nd40 2.487 . S
O62 C49 1.241 1_565 S
O63 Nd40 2.682 1_545 S
O63 Nd41 2.414 . S
O63 C49 1.273 . S
O64 Nd40 2.410 . S
O64 C50 1.251 . S
O65 Nd41 2.424 1_565 S
O65 C50 1.268 . S
O66 Nd41 2.500 . S
O66 C51 1.258 . S
O67 Nd41 2.492 . S
O67 C51 1.239 . S
O68 Nd41 2.487 . S
O68 C58 1.241 . S
O69 Nd40 2.414 . S
O69 Nd41 2.682 1_565 S
O69 C58 1.273 1_565 S
O70 Nd41 2.410 . S
O70 C59 1.251 . S
O71 Nd40 2.424 1_545 S
O71 C59 1.268 . S
H72 C44 0.930 . S
H73 C45 0.929 . S
H74 C47 0.930 . S
H75 C48 0.929 . S
H76 C53 0.930 . S
H77 C54 0.929 . S
H78 C56 0.930 . S
H79 C57 0.929 . S
Nd80 C82 2.836 . S
Nd80 O100 2.500 . S
Nd80 O101 2.492 . S
Nd80 O102 2.487 . S
Nd80 O103 2.682 . S
Nd80 O104 2.410 . S
Nd80 O109 2.414 . S
Nd80 O111 2.424 . S
Nd81 C91 2.836 . S
Nd81 O103 2.414 . S
Nd81 O105 2.424 . S
Nd81 O106 2.500 . S
Nd81 O107 2.492 . S
Nd81 O108 2.487 . S
Nd81 O109 2.682 . S
Nd81 O110 2.410 . S
C82 Nd80 2.836 . S
C82 C83 1.498 . S
C82 O100 1.258 . S
C82 O101 1.239 . S
C83 C82 1.498 . S
C83 C84 1.366 . S
C83 C88 1.407 . S
C84 C83 1.366 . S
C84 C85 1.392 . S
C84 H112 0.930 . S
C85 C84 1.392 . S
C85 C86 1.398 . S
C85 H113 0.929 . S
C86 C85 1.398 . S
C86 C87 1.352 . S
C87 C86 1.352 . S
C87 C88 1.384 . S
C87 H114 0.930 . S
C88 C83 1.407 . S
C88 C87 1.384 . S
C88 H115 0.929 . S
C89 O102 1.241 . S
C89 O103 1.273 . S
C90 O104 1.251 . S
C90 O105 1.268 . S
C91 Nd81 2.836 . S
C91 C92 1.498 . S
C91 O106 1.258 . S
C91 O107 1.239 . S
C92 C91 1.498 . S
C92 C93 1.366 . S
C92 C97 1.407 . S
C93 C92 1.366 . S
C93 C94 1.392 . S
C93 H116 0.930 . S
C94 C93 1.392 . S
C94 C95 1.398 . S
C94 H117 0.929 . S
C95 C94 1.398 . S
C95 C96 1.352 . S
C96 C95 1.352 . S
C96 C97 1.384 . S
C96 H118 0.930 . S
C97 C92 1.407 . S
C97 C96 1.384 . S
C97 H119 0.929 . S
C98 O108 1.241 . S
C98 O109 1.273 . S
C99 O110 1.251 . S
C99 O111 1.268 . S
O100 Nd80 2.500 . S
O100 C82 1.258 . S
O101 Nd80 2.492 . S
O101 C82 1.239 . S
O102 Nd80 2.487 . S
O102 C89 1.241 . S
O103 Nd80 2.682 . S
O103 Nd81 2.414 . S
O103 C89 1.273 . S
O104 Nd80 2.410 . S
O104 C90 1.251 . S
O105 Nd81 2.424 . S
O105 C90 1.268 . S
O106 Nd81 2.500 . S
O106 C91 1.258 . S
O107 Nd81 2.492 . S
O107 C91 1.239 . S
O108 Nd81 2.487 . S
O108 C98 1.241 . S
O109 Nd80 2.414 . S
O109 Nd81 2.682 . S
O109 C98 1.273 . S
O110 Nd81 2.410 . S
O110 C99 1.251 . S
O111 Nd80 2.424 . S
O111 C99 1.268 . S
H112 C84 0.930 . S
H113 C85 0.929 . S
H114 C87 0.930 . S
H115 C88 0.929 . S
H116 C93 0.930 . S
H117 C94 0.929 . S
H118 C96 0.930 . S
H119 C97 0.929 . S
H120 C127 0.929 . S
H121 C130 0.930 . S
H122 C132 0.929 . S
H123 C124 0.969 . S
C124 H123 0.969 . S
C124 O125 1.550 . S
C124 H126 0.973 . S
O125 C124 1.550 . S
O125 C131 1.405 1_565 S
H126 C124 0.973 . S
C127 H120 0.929 . S
C127 C128 1.400 . S
C127 C129 1.364 . S
C128 C127 1.400 . S
C128 C132 1.377 . S
C129 C127 1.364 . S
C129 C130 1.374 1_545 S
C130 H121 0.930 . S
C130 C129 1.374 1_565 S
C130 C131 1.382 1_565 S
C131 O125 1.405 1_545 S
C131 C130 1.382 1_545 S
C131 C132 1.400 . S
C132 H122 0.929 . S
C132 C128 1.377 . S
C132 C131 1.400 . S
H133 C140 0.929 . S
H134 C143 0.930 . S
H135 C145 0.929 . S
H136 C137 0.969 . S
C137 H136 0.969 . S
C137 O138 1.550 . S
C137 H139 0.973 . S
O138 C137 1.550 . S
O138 C144 1.412 . S
H139 C137 0.973 . S
C140 H133 0.929 . S
C140 C141 1.400 . S
C140 C142 1.364 . S
C141 C140 1.400 . S
C141 C145 1.377 . S
C142 C140 1.364 . S
C142 C143 1.374 . S
C143 H134 0.930 . S
C143 C142 1.374 . S
C143 C144 1.383 . S
C144 O138 1.412 . S
C144 C143 1.383 . S
C144 C145 1.394 . S
C145 H135 0.929 . S
C145 C141 1.377 . S
C145 C144 1.394 . S
H146 C153 0.929 . S
H147 C156 0.930 . S
H148 C158 0.929 . S
H149 C150 0.969 . S
C150 H149 0.969 . S
C150 O151 1.550 . S
C150 H152 0.973 . S
O151 C150 1.550 . S
O151 C157 1.412 . S
H152 C150 0.973 . S
C153 H146 0.929 . S
C153 C154 1.400 . S
C153 C155 1.364 1_655 S
C154 C153 1.400 . S
C154 C158 1.377 1_655 S
C155 C153 1.364 1_455 S
C155 C156 1.374 . S
C156 H147 0.930 . S
C156 C155 1.374 . S
C156 C157 1.383 . S
C157 O151 1.412 . S
C157 C156 1.383 . S
C157 C158 1.394 . S
C158 H148 0.929 . S
C158 C154 1.377 1_455 S
C158 C157 1.394 . S
H159 C166 0.929 . S
H160 C169 0.930 . S
H161 C171 0.929 . S
H162 C163 0.969 . S
C163 H162 0.969 . S
C163 O164 1.550 . S
C163 H165 0.973 . S
O164 C163 1.550 . S
O164 C170 1.412 . S
H165 C163 0.973 . S
C166 H159 0.929 . S
C166 C167 1.400 . S
C166 C168 1.364 1_655 S
C167 C166 1.400 . S
C167 C171 1.377 1_655 S
C168 C166 1.364 1_455 S
C168 C169 1.374 . S
C169 H160 0.930 . S
C169 C168 1.374 . S
C169 C170 1.383 . S
C170 O164 1.412 . S
C170 C169 1.383 . S
C170 C171 1.394 . S
C171 H161 0.929 . S
C171 C167 1.377 1_455 S
C171 C170 1.394 . S
H172 C179 0.929 . S
H173 C182 0.930 . S
H174 C184 0.929 . S
H175 C176 0.969 . S
C176 H175 0.969 . S
C176 O177 1.550 . S
C176 H178 0.973 . S
O177 C176 1.550 . S
O177 C183 1.412 . S
H178 C176 0.973 . S
C179 H172 0.929 . S
C179 C180 1.400 . S
C179 C181 1.364 . S
C180 C179 1.400 . S
C180 C184 1.377 . S
C181 C179 1.364 . S
C181 C182 1.374 1_565 S
C182 H173 0.930 . S
C182 C181 1.374 1_545 S
C182 C183 1.383 . S
C183 O177 1.412 . S
C183 C182 1.383 . S
C183 C184 1.394 1_545 S
C184 H174 0.929 . S
C184 C180 1.377 . S
C184 C183 1.394 1_565 S
H185 C192 0.929 . S
H186 C195 0.930 . S
H187 C197 0.929 . S
H188 C189 0.969 . S
C189 H188 0.969 . S
C189 O190 1.550 . S
C189 H191 0.973 . S
O190 C189 1.550 . S
O190 C196 1.412 . S
H191 C189 0.973 . S
C192 H185 0.929 . S
C192 C193 1.400 . S
C192 C194 1.364 . S
C193 C192 1.400 . S
C193 C197 1.377 . S
C194 C192 1.364 . S
C194 C195 1.374 . S
C195 H186 0.930 . S
C195 C194 1.374 . S
C195 C196 1.383 . S
C196 O190 1.412 . S
C196 C195 1.383 . S
C196 C197 1.394 . S
C197 H187 0.929 . S
C197 C193 1.377 . S
C197 C196 1.394 . S
C198 C199 1.387 . S
C198 H202 0.950 . S
C198 C207 1.390 . S
C199 C198 1.387 . S
C199 C201 1.387 . S
H200 C207 0.950 . S
C201 C199 1.387 . S
C201 C203 1.390 . S
C201 H205 0.950 . S
H202 C198 0.950 . S
C203 C201 1.390 . S
C203 C204 1.387 . S
C203 H206 0.950 . S
C204 C203 1.387 . S
C204 C207 1.387 . S
H205 C201 0.950 . S
H206 C203 0.950 . S
C207 C198 1.390 . S
C207 H200 0.950 . S
C207 C204 1.387 . S
C208 C209 1.387 . S
C208 H212 0.950 . S
C208 C217 1.390 . S
C209 C208 1.387 . S
C209 C211 1.387 . S
H210 C217 0.950 . S
C211 C209 1.387 . S
C211 C213 1.390 . S
C211 H215 0.950 . S
H212 C208 0.950 . S
C213 C211 1.390 . S
C213 C214 1.387 . S
C213 H216 0.950 . S
C214 C213 1.387 . S
C214 C217 1.387 . S
H215 C211 0.950 . S
H216 C213 0.950 . S
C217 C208 1.390 . S
C217 H210 0.950 . S
C217 C214 1.387 . S
C218 C219 1.387 . S
C218 H222 0.950 . S
C218 C227 1.390 . S
C219 C218 1.387 . S
C219 C221 1.387 . S
H220 C227 0.950 . S
C221 C219 1.387 . S
C221 C223 1.390 . S
C221 H225 0.950 . S
H222 C218 0.950 . S
C223 C221 1.390 . S
C223 C224 1.387 . S
C223 H226 0.950 . S
C224 C223 1.387 . S
C224 C227 1.387 . S
H225 C221 0.950 . S
H226 C223 0.950 . S
C227 C218 1.390 . S
C227 H220 0.950 . S
C227 C224 1.387 . S
C228 C229 1.387 . S
C228 H232 0.950 . S
C228 C237 1.390 . S
C229 C228 1.387 . S
C229 C231 1.387 . S
H230 C237 0.950 . S
C231 C229 1.387 . S
C231 C233 1.390 . S
C231 H235 0.950 . S
H232 C228 0.950 . S
C233 C231 1.390 . S
C233 C234 1.387 . S
C233 H236 0.950 . S
C234 C233 1.387 . S
C234 C237 1.387 . S
H235 C231 0.950 . S
H236 C233 0.950 . S
C237 C228 1.390 . S
C237 H230 0.950 . S
C237 C234 1.387 . S
C238 C239 1.387 . S
C238 H242 0.950 . S
C238 C247 1.390 . S
C239 C238 1.387 . S
C239 C241 1.387 . S
H240 C247 0.950 . S
C241 C239 1.387 . S
C241 C243 1.390 . S
C241 H245 0.950 . S
H242 C238 0.950 . S
C243 C241 1.390 . S
C243 C244 1.387 . S
C243 H246 0.950 . S
C244 C243 1.387 . S
C244 C247 1.387 . S
H245 C241 0.950 . S
H246 C243 0.950 . S
C247 C238 1.390 . S
C247 H240 0.950 . S
C247 C244 1.387 . S
C248 C249 1.387 . S
C248 H252 0.950 . S
C248 C257 1.390 . S
C249 C248 1.387 . S
C249 C251 1.387 . S
H250 C257 0.950 . S
C251 C249 1.387 . S
C251 C253 1.390 . S
C251 H255 0.950 . S
H252 C248 0.950 . S
C253 C251 1.390 . S
C253 C254 1.387 . S
C253 H256 0.950 . S
C254 C253 1.387 . S
C254 C257 1.387 . S
H255 C251 0.950 . S
H256 C253 0.950 . S
C257 C248 1.390 . S
C257 H250 0.950 . S
C257 C254 1.387 . S
C258 C259 1.387 . S
C258 H262 0.950 . S
C258 C267 1.390 . S
C259 C258 1.387 . S
C259 C261 1.387 . S
H260 C267 0.950 . S
C261 C259 1.387 . S
C261 C263 1.390 . S
C261 H265 0.950 . S
H262 C258 0.950 . S
C263 C261 1.390 . S
C263 C264 1.387 . S
C263 H266 0.950 . S
C264 C263 1.387 . S
C264 C267 1.387 . S
H265 C261 0.950 . S
H266 C263 0.950 . S
C267 C258 1.390 . S
C267 H260 0.950 . S
C267 C264 1.387 . S
C268 C269 1.387 . S
C268 H272 0.950 . S
C268 C277 1.390 . S
C269 C268 1.387 . S
C269 C271 1.387 . S
H270 C277 0.950 . S
C271 C269 1.387 . S
C271 C273 1.390 . S
C271 H275 0.950 . S
H272 C268 0.950 . S
C273 C271 1.390 . S
C273 C274 1.387 . S
C273 H276 0.950 . S
C274 C273 1.387 . S
C274 C277 1.387 . S
H275 C271 0.950 . S
H276 C273 0.950 . S
C277 C268 1.390 . S
C277 H270 0.950 . S
C277 C274 1.387 . S
C278 C279 1.387 . S
C278 H282 0.950 . S
C278 C287 1.390 . S
C279 C278 1.387 . S
C279 C281 1.387 . S
H280 C287 0.950 . S
C281 C279 1.387 . S
C281 C283 1.390 . S
C281 H285 0.950 . S
H282 C278 0.950 . S
C283 C281 1.390 . S
C283 C284 1.387 . S
C283 H286 0.950 . S
C284 C283 1.387 . S
C284 C287 1.387 . S
H285 C281 0.950 . S
H286 C283 0.950 . S
C287 C278 1.390 . S
C287 H280 0.950 . S
C287 C284 1.387 . S
C288 C289 1.387 . S
C288 H292 0.950 . S
C288 C297 1.390 . S
C289 C288 1.387 . S
C289 C291 1.387 . S
H290 C297 0.950 . S
C291 C289 1.387 . S
C291 C293 1.390 . S
C291 H295 0.950 . S
H292 C288 0.950 . S
C293 C291 1.390 . S
C293 C294 1.387 . S
C293 H296 0.950 . S
C294 C293 1.387 . S
C294 C297 1.387 . S
H295 C291 0.950 . S
H296 C293 0.950 . S
C297 C288 1.390 . S
C297 H290 0.950 . S
C297 C294 1.387 . S
C298 C299 1.387 . S
C298 H302 0.950 . S
C298 C307 1.390 . S
C299 C298 1.387 . S
C299 C301 1.387 . S
H300 C307 0.950 . S
C301 C299 1.387 . S
C301 C303 1.390 . S
C301 H305 0.950 . S
H302 C298 0.950 . S
C303 C301 1.390 . S
C303 C304 1.387 . S
C303 H306 0.950 . S
C304 C303 1.387 . S
C304 C307 1.387 . S
H305 C301 0.950 . S
H306 C303 0.950 . S
C307 C298 1.390 . S
C307 H300 0.950 . S
C307 C304 1.387 . S
C308 C309 1.387 . S
C308 H312 0.950 . S
C308 C317 1.390 . S
C309 C308 1.387 . S
C309 C311 1.387 . S
H310 C317 0.950 . S
C311 C309 1.387 . S
C311 C313 1.390 . S
C311 H315 0.950 . S
H312 C308 0.950 . S
C313 C311 1.390 . S
C313 C314 1.387 . S
C313 H316 0.950 . S
C314 C313 1.387 . S
C314 C317 1.387 . S
H315 C311 0.950 . S
H316 C313 0.950 . S
C317 C308 1.390 . S
C317 H310 0.950 . S
C317 C314 1.387 . S
C318 C319 1.387 1_655 S
C318 H322 0.950 . S
C318 C327 1.390 1_654 S
C319 C318 1.387 1_455 S
C319 C321 1.387 . S
H320 C327 0.950 1_655 S
C321 C319 1.387 . S
C321 C323 1.387 . S
C321 H325 0.950 . S
H322 C318 0.950 . S
C323 C321 1.387 . S
C323 C324 1.389 1_554 S
C323 H326 0.951 1_554 S
C324 C323 1.389 1_556 S
C324 C327 1.387 . S
H325 C321 0.950 . S
H326 C323 0.951 1_556 S
C327 C318 1.390 1_456 S
C327 H320 0.950 1_455 S
C327 C324 1.387 . S
C328 C329 1.387 . S
C328 H332 0.950 . S
C328 C337 1.390 . S
C329 C328 1.387 . S
C329 C331 1.387 1_545 S
H330 C337 0.950 . S
C331 C329 1.387 1_565 S
C331 C333 1.390 . S
C331 H335 0.950 . S
H332 C328 0.950 . S
C333 C331 1.390 . S
C333 C334 1.387 1_565 S
C333 H336 0.950 . S
C334 C333 1.387 1_545 S
C334 C337 1.387 . S
H335 C331 0.950 . S
H336 C333 0.950 . S
C337 C328 1.390 . S
C337 H330 0.950 . S
C337 C334 1.387 . S
C338 C339 1.387 . S
C338 H342 0.950 . S
C338 C347 1.390 . S
C339 C338 1.387 . S
C339 C341 1.387 . S
H340 C347 0.950 . S
C341 C339 1.387 . S
C341 C343 1.390 . S
C341 H345 0.950 . S
H342 C338 0.950 . S
C343 C341 1.390 . S
C343 C344 1.387 . S
C343 H346 0.950 . S
C344 C343 1.387 . S
C344 C347 1.387 . S
H345 C341 0.950 . S
H346 C343 0.950 . S
C347 C338 1.390 . S
C347 H340 0.950 . S
C347 C344 1.387 . S
C348 C349 1.387 . S
C348 H352 0.950 . S
C348 C357 1.390 . S
C349 C348 1.387 . S
C349 C351 1.387 1_565 S
H350 C357 0.950 . S
C351 C349 1.387 1_545 S
C351 C353 1.390 . S
C351 H355 0.950 . S
H352 C348 0.950 . S
C353 C351 1.390 . S
C353 C354 1.387 1_545 S
C353 H356 0.950 . S
C354 C353 1.387 1_565 S
C354 C357 1.387 . S
H355 C351 0.950 . S
H356 C353 0.950 . S
C357 C348 1.390 . S
C357 H350 0.950 . S
C357 C354 1.387 . S
C358 C359 1.387 . S
C358 H362 0.950 . S
C358 C367 1.390 1_556 S
C359 C358 1.387 . S
C359 C361 1.387 . S
H360 C367 0.950 . S
C361 C359 1.387 . S
C361 C363 1.390 . S
C361 H365 0.950 . S
H362 C358 0.950 . S
C363 C361 1.390 . S
C363 C364 1.387 1_556 S
C363 H366 0.950 1_556 S
C364 C363 1.387 1_554 S
C364 C367 1.387 . S
H365 C361 0.950 . S
H366 C363 0.950 1_554 S
C367 C358 1.390 1_554 S
C367 H360 0.950 . S
C367 C364 1.387 . S
C368 C369 1.387 1_655 S
C368 H372 0.950 . S
C368 C377 1.390 . S
C369 C368 1.387 1_455 S
C369 C371 1.387 . S
H370 C377 0.950 . S
C371 C369 1.387 . S
C371 C373 1.390 . S
C371 H375 0.950 . S
H372 C368 0.950 . S
C373 C371 1.390 . S
C373 C374 1.387 . S
C373 H376 0.950 . S
C374 C373 1.387 . S
C374 C377 1.387 1_455 S
H375 C371 0.950 . S
H376 C373 0.950 . S
C377 C368 1.390 . S
C377 H370 0.950 . S
C377 C374 1.387 1_655 S
C199 C10 3.168 . S
C204 C189 2.942 . S
C209 C55 1.173 . S
C214 C167 1.184 . S
C219 C90 1.886 . S
C224 C180 1.880 . S
C229 C19 3.024 . S
C234 C193 3.006 . S
C244 C163 1.467 . S
C239 C46 1.424 . S
C254 C176 1.930 . S
C249 C99 2.068 . S
C259 C50 1.884 . S
C264 C141 1.852 . S
C269 C95 0.734 . S
C274 C154 0.729 . S
C279 C6 1.359 . S
C284 C124 1.335 . S
C294 C137 1.869 . S
C289 C59 2.042 . S
C304 C150 1.018 . S
C299 C86 0.875 . S
C309 C15 1.305 . S
C314 C128 1.330 . S
C324 C155 1.172 . S
C319 C18 1.159 . S
C329 C49 1.454 . S
C334 C129 1.534 . S
C339 C98 1.427 . S
C344 C142 1.458 . S
C354 C181 1.478 . S
C349 C58 1.447 1_565 S
C364 C194 1.781 . S
C359 C89 1.688 . S
C369 C9 1.482 . S
C374 C168 1.568 . S
