# Generated by pormake.
# Topology eea, (3,6)-cn, num edge types: 1
# Building blocks:
#     Node 0, Type 0, BuildingBlock: CUQRIR_clean_linker_1, # of connection points: 3
#     Node 1, Type 0, BuildingBlock: CUQRIR_clean_linker_1, # of connection points: 3
#     Node 2, Type 0, BuildingBlock: CUQRIR_clean_linker_1, # of connection points: 3
#     Node 3, Type 0, BuildingBlock: CUQRIR_clean_linker_1, # of connection points: 3
#     Node 4, Type 0, BuildingBlock: CUQRIR_clean_linker_1, # of connection points: 3
#     Node 5, Type 0, BuildingBlock: CUQRIR_clean_linker_1, # of connection points: 3
#     Node 6, Type 0, BuildingBlock: CUQRIR_clean_linker_1, # of connection points: 3
#     Node 7, Type 0, BuildingBlock: CUQRIR_clean_linker_1, # of connection points: 3
#     Node 8, Type 0, BuildingBlock: CUQRIR_clean_linker_1, # of connection points: 3
#     Node 9, Type 0, BuildingBlock: CUQRIR_clean_linker_1, # of connection points: 3
#     Node 10, Type 0, BuildingBlock: CUQRIR_clean_linker_1, # of connection points: 3
#     Node 11, Type 0, BuildingBlock: CUQRIR_clean_linker_1, # of connection points: 3
#     Node 12, Type 0, BuildingBlock: CUQRIR_clean_linker_1, # of connection points: 3
#     Node 13, Type 0, BuildingBlock: CUQRIR_clean_linker_1, # of connection points: 3
#     Node 14, Type 0, BuildingBlock: CUQRIR_clean_linker_1, # of connection points: 3
#     Node 15, Type 0, BuildingBlock: CUQRIR_clean_linker_1, # of connection points: 3
#     Node 16, Type 0, BuildingBlock: CUQRIR_clean_linker_1, # of connection points: 3
#     Node 17, Type 0, BuildingBlock: CUQRIR_clean_linker_1, # of connection points: 3
#     Node 18, Type 1, BuildingBlock: KUMJIN_clean_sbu_0, # of connection points: 6
#     Node 19, Type 1, BuildingBlock: KUMJIN_clean_sbu_0, # of connection points: 6
#     Node 20, Type 1, BuildingBlock: KUMJIN_clean_sbu_0, # of connection points: 6
#     Node 21, Type 1, BuildingBlock: KUMJIN_clean_sbu_0, # of connection points: 6
#     Node 22, Type 1, BuildingBlock: KUMJIN_clean_sbu_0, # of connection points: 6
#     Node 23, Type 1, BuildingBlock: KUMJIN_clean_sbu_0, # of connection points: 6
#     Node 24, Type 1, BuildingBlock: KUMJIN_clean_sbu_0, # of connection points: 6
#     Node 25, Type 1, BuildingBlock: KUMJIN_clean_sbu_0, # of connection points: 6
#     Node 26, Type 1, BuildingBlock: KUMJIN_clean_sbu_0, # of connection points: 6
#     Edge 27, Type (0, 1), BuildingBlock: KIFKEQ_clean_linker_1, # of connection points: 2
#     Edge 28, Type (0, 1), BuildingBlock: KIFKEQ_clean_linker_1, # of connection points: 2
#     Edge 29, Type (0, 1), BuildingBlock: KIFKEQ_clean_linker_1, # of connection points: 2
#     Edge 30, Type (0, 1), BuildingBlock: KIFKEQ_clean_linker_1, # of connection points: 2
#     Edge 31, Type (0, 1), BuildingBlock: KIFKEQ_clean_linker_1, # of connection points: 2
#     Edge 32, Type (0, 1), BuildingBlock: KIFKEQ_clean_linker_1, # of connection points: 2
#     Edge 33, Type (0, 1), BuildingBlock: KIFKEQ_clean_linker_1, # of connection points: 2
#     Edge 34, Type (0, 1), BuildingBlock: KIFKEQ_clean_linker_1, # of connection points: 2
#     Edge 35, Type (0, 1), BuildingBlock: KIFKEQ_clean_linker_1, # of connection points: 2
#     Edge 36, Type (0, 1), BuildingBlock: KIFKEQ_clean_linker_1, # of connection points: 2
#     Edge 37, Type (0, 1), BuildingBlock: KIFKEQ_clean_linker_1, # of connection points: 2
#     Edge 38, Type (0, 1), BuildingBlock: KIFKEQ_clean_linker_1, # of connection points: 2
#     Edge 39, Type (0, 1), BuildingBlock: KIFKEQ_clean_linker_1, # of connection points: 2
#     Edge 40, Type (0, 1), BuildingBlock: KIFKEQ_clean_linker_1, # of connection points: 2
#     Edge 41, Type (0, 1), BuildingBlock: KIFKEQ_clean_linker_1, # of connection points: 2
#     Edge 42, Type (0, 1), BuildingBlock: KIFKEQ_clean_linker_1, # of connection points: 2
#     Edge 43, Type (0, 1), BuildingBlock: KIFKEQ_clean_linker_1, # of connection points: 2
#     Edge 44, Type (0, 1), BuildingBlock: KIFKEQ_clean_linker_1, # of connection points: 2
#     Edge 45, Type (0, 1), BuildingBlock: KIFKEQ_clean_linker_1, # of connection points: 2
#     Edge 46, Type (0, 1), BuildingBlock: KIFKEQ_clean_linker_1, # of connection points: 2
#     Edge 47, Type (0, 1), BuildingBlock: KIFKEQ_clean_linker_1, # of connection points: 2
#     Edge 48, Type (0, 1), BuildingBlock: KIFKEQ_clean_linker_1, # of connection points: 2
#     Edge 49, Type (0, 1), BuildingBlock: KIFKEQ_clean_linker_1, # of connection points: 2
#     Edge 50, Type (0, 1), BuildingBlock: KIFKEQ_clean_linker_1, # of connection points: 2
#     Edge 51, Type (0, 1), BuildingBlock: KIFKEQ_clean_linker_1, # of connection points: 2
#     Edge 52, Type (0, 1), BuildingBlock: KIFKEQ_clean_linker_1, # of connection points: 2
#     Edge 53, Type (0, 1), BuildingBlock: KIFKEQ_clean_linker_1, # of connection points: 2
#     Edge 54, Type (0, 1), BuildingBlock: KIFKEQ_clean_linker_1, # of connection points: 2
#     Edge 55, Type (0, 1), BuildingBlock: KIFKEQ_clean_linker_1, # of connection points: 2
#     Edge 56, Type (0, 1), BuildingBlock: KIFKEQ_clean_linker_1, # of connection points: 2
#     Edge 57, Type (0, 1), BuildingBlock: KIFKEQ_clean_linker_1, # of connection points: 2
#     Edge 58, Type (0, 1), BuildingBlock: KIFKEQ_clean_linker_1, # of connection points: 2
#     Edge 59, Type (0, 1), BuildingBlock: KIFKEQ_clean_linker_1, # of connection points: 2
#     Edge 60, Type (0, 1), BuildingBlock: KIFKEQ_clean_linker_1, # of connection points: 2
#     Edge 61, Type (0, 1), BuildingBlock: KIFKEQ_clean_linker_1, # of connection points: 2
#     Edge 62, Type (0, 1), BuildingBlock: KIFKEQ_clean_linker_1, # of connection points: 2
#     Edge 63, Type (0, 1), BuildingBlock: KIFKEQ_clean_linker_1, # of connection points: 2
#     Edge 64, Type (0, 1), BuildingBlock: KIFKEQ_clean_linker_1, # of connection points: 2
#     Edge 65, Type (0, 1), BuildingBlock: KIFKEQ_clean_linker_1, # of connection points: 2
#     Edge 66, Type (0, 1), BuildingBlock: KIFKEQ_clean_linker_1, # of connection points: 2
#     Edge 67, Type (0, 1), BuildingBlock: KIFKEQ_clean_linker_1, # of connection points: 2
#     Edge 68, Type (0, 1), BuildingBlock: KIFKEQ_clean_linker_1, # of connection points: 2
#     Edge 69, Type (0, 1), BuildingBlock: KIFKEQ_clean_linker_1, # of connection points: 2
#     Edge 70, Type (0, 1), BuildingBlock: KIFKEQ_clean_linker_1, # of connection points: 2
#     Edge 71, Type (0, 1), BuildingBlock: KIFKEQ_clean_linker_1, # of connection points: 2
#     Edge 72, Type (0, 1), BuildingBlock: KIFKEQ_clean_linker_1, # of connection points: 2
#     Edge 73, Type (0, 1), BuildingBlock: KIFKEQ_clean_linker_1, # of connection points: 2
#     Edge 74, Type (0, 1), BuildingBlock: KIFKEQ_clean_linker_1, # of connection points: 2
#     Edge 75, Type (0, 1), BuildingBlock: KIFKEQ_clean_linker_1, # of connection points: 2
#     Edge 76, Type (0, 1), BuildingBlock: KIFKEQ_clean_linker_1, # of connection points: 2
#     Edge 77, Type (0, 1), BuildingBlock: KIFKEQ_clean_linker_1, # of connection points: 2
#     Edge 78, Type (0, 1), BuildingBlock: KIFKEQ_clean_linker_1, # of connection points: 2
#     Edge 79, Type (0, 1), BuildingBlock: KIFKEQ_clean_linker_1, # of connection points: 2
#     Edge 80, Type (0, 1), BuildingBlock: KIFKEQ_clean_linker_1, # of connection points: 2
# Relax obj value: 0.040
# Max RMSD: 0.205
# Mean RMSD: 0.146
data_MOF--net-eea--node1-KUMJIN_clean_sbu_0--node2-CUQRIR_clean_linker_1--edge1-KIFKEQ_clean_linker_1
_symmetry_space_group_name_H-M    P1
_symmetry_Int_Tables_number       1
_symmetry_cell_setting            triclinic
loop_
_symmetry_equiv_pos_as_xyz
'x, y, z'
_cell_length_a     48.884948
_cell_length_b     52.09346
_cell_length_c     64.287978
_cell_angle_alpha  83.210818
_cell_angle_beta   90.054183
_cell_angle_gamma 118.89212
loop_
_atom_site_label
_atom_site_type_symbol
_atom_site_fract_x
_atom_site_fract_y
_atom_site_fract_z
_atom_type_partial_charge
C0 C 0.21216 0.10621 0.41517 0.0
N1 N 0.22367 0.12919 0.4266 0.0
N2 N 0.22123 0.08613 0.42247 0.0
C3 C 0.19424 0.10452 0.39588 0.0
C4 C 0.23871 0.0978 0.43872 0.0
N5 N 0.24038 0.12398 0.44111 0.0
C6 C 0.25291 0.08297 0.45295 0.0
H7 H 0.16891 0.09372 0.40064 0.0
H8 H 0.19788 0.09131 0.38496 0.0
H9 H 0.20147 0.12697 0.38756 0.0
H10 H 0.27721 0.09068 0.44681 0.0
H11 H 0.23938 0.05856 0.45359 0.0
H12 H 0.25385 0.08883 0.46907 0.0
C13 C 0.90916 0.12149 0.41445 0.0
N14 N 0.92231 0.14301 0.42711 0.0
N15 N 0.88143 0.09876 0.42332 0.0
C16 C 0.92407 0.12228 0.39378 0.0
C17 C 0.87837 0.10746 0.4419 0.0
N18 N 0.90321 0.13404 0.44432 0.0
C19 C 0.84987 0.09118 0.45701 0.0
H20 H 0.91648 0.13344 0.38115 0.0
H21 H 0.91691 0.09958 0.39037 0.0
H22 H 0.94998 0.13499 0.39371 0.0
H23 H 0.85344 0.07601 0.46892 0.0
H24 H 0.82858 0.078 0.44876 0.0
H25 H 0.84607 0.10679 0.46534 0.0
C26 C 0.9176 0.83603 0.41237 0.0
N27 N 0.93181 0.82602 0.42653 0.0
N28 N 0.89567 0.83991 0.42214 0.0
C29 C 0.92275 0.83903 0.38891 0.0
C30 C 0.89781 0.83259 0.4428 0.0
N31 N 0.91989 0.82415 0.44551 0.0
C32 C 0.87564 0.83011 0.46013 0.0
H33 H 0.92066 0.85802 0.38102 0.0
H34 H 0.90462 0.81864 0.38317 0.0
H35 H 0.94622 0.84229 0.38439 0.0
H36 H 0.86196 0.84127 0.45478 0.0
H37 H 0.88891 0.84025 0.47363 0.0
H38 H 0.85936 0.8064 0.46565 0.0
C39 C 0.09429 0.19001 0.64697 0.0
N40 N 0.11859 0.20232 0.63233 0.0
N41 N 0.07038 0.19375 0.63976 0.0
C42 C 0.095 0.17695 0.66907 0.0
C43 C 0.08098 0.20911 0.62041 0.0
N44 N 0.11051 0.21465 0.61591 0.0
C45 C 0.06301 0.22015 0.60653 0.0
H46 H 0.07613 0.17512 0.6797 0.0
H47 H 0.118 0.19052 0.67545 0.0
H48 H 0.09165 0.15435 0.66889 0.0
H49 H 0.0664 0.24128 0.61122 0.0
H50 H 0.0376 0.20406 0.60842 0.0
H51 H 0.07116 0.22397 0.58979 0.0
C52 C 0.79804 0.91222 0.64297 0.0
N53 N 0.78823 0.88995 0.63098 0.0
N54 N 0.78731 0.93122 0.63616 0.0
C55 C 0.81877 0.91564 0.66095 0.0
C56 C 0.77053 0.91955 0.61965 0.0
N57 N 0.77087 0.89441 0.61659 0.0
C58 C 0.75405 0.93289 0.60634 0.0
H59 H 0.8214 0.93336 0.67004 0.0
H60 H 0.8424 0.92121 0.65471 0.0
H61 H 0.80927 0.89437 0.67154 0.0
H62 H 0.77024 0.94804 0.59291 0.0
H63 H 0.74699 0.94575 0.61549 0.0
H64 H 0.73301 0.91559 0.59996 0.0
C65 C 0.11246 0.91883 0.6462 0.0
N66 N 0.10017 0.89582 0.63472 0.0
N67 N 0.14143 0.94004 0.63803 0.0
C68 C 0.097 0.91973 0.66608 0.0
C69 C 0.14612 0.92903 0.62109 0.0
N70 N 0.12131 0.90227 0.61915 0.0
C71 C 0.17454 0.94487 0.60594 0.0
H72 H 0.08187 0.92979 0.66203 0.0
H73 H 0.11469 0.93331 0.67664 0.0
H74 H 0.08205 0.89708 0.67442 0.0
H75 H 0.19197 0.93798 0.61109 0.0
H76 H 0.18535 0.9692 0.60547 0.0
H77 H 0.16846 0.93906 0.58989 0.0
C78 C 0.88048 0.44025 0.74829 0.0
N79 N 0.89045 0.46285 0.76007 0.0
N80 N 0.88309 0.41727 0.7585 0.0
C81 C 0.86833 0.44051 0.72679 0.0
C82 C 0.89457 0.42648 0.777 0.0
N83 N 0.8987 0.45393 0.77807 0.0
C84 C 0.90295 0.40922 0.79377 0.0
H85 H 0.85196 0.41784 0.72349 0.0
H86 H 0.88832 0.45037 0.71486 0.0
H87 H 0.85618 0.45388 0.72519 0.0
H88 H 0.9287 0.42093 0.795 0.0
H89 H 0.89525 0.38639 0.79045 0.0
H90 H 0.89194 0.40805 0.80918 0.0
C91 C 0.5779 0.4554 0.74839 0.0
N92 N 0.59055 0.47689 0.7611 0.0
N93 N 0.54938 0.43321 0.75654 0.0
C94 C 0.59373 0.45588 0.7282 0.0
C95 C 0.5453 0.4422 0.77473 0.0
N96 N 0.57024 0.46848 0.77758 0.0
C97 C 0.516 0.42633 0.78912 0.0
H98 H 0.58622 0.43307 0.72486 0.0
H99 H 0.61957 0.468 0.72877 0.0
H100 H 0.58725 0.46747 0.71518 0.0
H101 H 0.49517 0.41363 0.78034 0.0
H102 H 0.51218 0.44214 0.79718 0.0
H103 H 0.51849 0.41076 0.8013 0.0
C104 C 0.58051 0.16623 0.74859 0.0
N105 N 0.59342 0.1536 0.76192 0.0
N106 N 0.55281 0.16117 0.75701 0.0
C107 C 0.59327 0.18082 0.72648 0.0
C108 C 0.54899 0.14474 0.77573 0.0
N109 N 0.57364 0.14003 0.77876 0.0
C110 C 0.51945 0.13025 0.78983 0.0
H111 H 0.57525 0.18231 0.71673 0.0
H112 H 0.60286 0.16852 0.7189 0.0
H113 H 0.61255 0.20366 0.72696 0.0
H114 H 0.50336 0.10835 0.78503 0.0
H115 H 0.50751 0.14381 0.78846 0.0
H116 H 0.52455 0.12681 0.80643 0.0
C117 C 0.76226 0.52548 0.9798 0.0
N118 N 0.78724 0.5401 0.96585 0.0
N119 N 0.73775 0.52813 0.97251 0.0
C120 C 0.76281 0.51134 1.00147 0.0
C121 C 0.74883 0.54517 0.95368 0.0
N122 N 0.77914 0.55273 0.94969 0.0
C123 C 0.73058 0.55614 0.94005 0.0
H124 H 0.73877 0.49496 1.00797 0.0
H125 H 0.77339 0.52878 0.0119 0.0
H126 H 0.7774 0.50037 1.00117 0.0
H127 H 0.73193 0.57591 0.9459 0.0
H128 H 0.70557 0.539 0.94082 0.0
H129 H 0.74008 0.56221 0.92347 0.0
C130 C 0.46069 0.24278 0.97625 0.0
N131 N 0.45135 0.22113 0.96371 0.0
N132 N 0.45013 0.26199 0.96978 0.0
C133 C 0.47796 0.24382 0.9958 0.0
C134 C 0.43391 0.25114 0.95288 0.0
N135 N 0.43438 0.22623 0.94931 0.0
C136 C 0.41914 0.26583 0.93909 0.0
H137 H 0.47273 0.2554 1.0073 0.0
H138 H 0.50349 0.25599 0.99152 0.0
H139 H 0.47162 0.22118 1.00327 0.0
H140 H 0.41978 0.26179 0.92258 0.0
H141 H 0.4312 0.29003 0.93964 0.0
H142 H 0.39427 0.25636 0.94471 0.0
C143 C 0.77555 0.24989 0.98039 0.0
N144 N 0.76334 0.22721 0.96862 0.0
N145 N 0.80418 0.27163 0.97204 0.0
C146 C 0.76027 0.25008 1.00058 0.0
C147 C 0.8087 0.26128 0.95468 0.0
N148 N 0.78412 0.23441 0.95266 0.0
C149 C 0.83687 0.27771 0.93935 0.0
H150 H 0.74519 0.26032 0.99702 0.0
H151 H 0.7781 0.26322 0.01124 0.0
H152 H 0.74532 0.22723 1.00859 0.0
H153 H 0.85463 0.27109 0.94411 0.0
H154 H 0.84734 0.30197 0.93915 0.0
H155 H 0.83062 0.27219 0.92326 0.0
C156 C 0.54677 0.77286 0.08185 0.0
N157 N 0.55804 0.79575 0.09338 0.0
N158 N 0.55602 0.75285 0.08905 0.0
C159 C 0.52882 0.77117 0.06258 0.0
C160 C 0.57332 0.76447 0.10539 0.0
N161 N 0.57474 0.79052 0.1079 0.0
C162 C 0.58751 0.74965 0.11964 0.0
H163 H 0.50346 0.76008 0.06734 0.0
H164 H 0.53269 0.7582 0.05156 0.0
H165 H 0.5358 0.79363 0.05439 0.0
H166 H 0.61185 0.75741 0.11355 0.0
H167 H 0.57403 0.72524 0.12025 0.0
H168 H 0.58837 0.75544 0.13578 0.0
C169 C 0.24106 0.78775 0.08121 0.0
N170 N 0.25417 0.80918 0.09394 0.0
N171 N 0.21337 0.76493 0.09007 0.0
C172 C 0.25606 0.78866 0.06055 0.0
C173 C 0.21029 0.77349 0.10869 0.0
N174 N 0.2351 0.80006 0.11117 0.0
C175 C 0.18176 0.75713 0.12378 0.0
H176 H 0.24852 0.79987 0.04793 0.0
H177 H 0.24894 0.76598 0.05707 0.0
H178 H 0.28196 0.80137 0.06054 0.0
H179 H 0.18531 0.74192 0.13565 0.0
H180 H 0.16049 0.744 0.11549 0.0
H181 H 0.17791 0.77268 0.13215 0.0
C182 C 0.24402 0.49447 0.07716 0.0
N183 N 0.25874 0.4845 0.09092 0.0
N184 N 0.22116 0.4966 0.0873 0.0
C185 C 0.24981 0.49919 0.05365 0.0
C186 C 0.2231 0.48814 0.10777 0.0
N187 N 0.24606 0.48078 0.11002 0.0
C188 C 0.20032 0.48395 0.1253 0.0
H189 H 0.27378 0.50379 0.04909 0.0
H190 H 0.24678 0.51793 0.04638 0.0
H191 H 0.23262 0.47897 0.04726 0.0
H192 H 0.18467 0.45994 0.1302 0.0
H193 H 0.18601 0.49463 0.12046 0.0
H194 H 0.21314 0.49358 0.13907 0.0
C195 C 0.43237 0.86876 0.31616 0.0
N196 N 0.45737 0.87959 0.30223 0.0
N197 N 0.40987 0.87383 0.30775 0.0
C198 C 0.43082 0.85533 0.33853 0.0
C199 C 0.42199 0.88839 0.28838 0.0
N200 N 0.45093 0.89195 0.28499 0.0
C201 C 0.40697 0.90184 0.27369 0.0
H202 H 0.41284 0.85603 0.34856 0.0
H203 H 0.45391 0.86696 0.3453 0.0
H204 H 0.42455 0.8318 0.33876 0.0
H205 H 0.41467 0.9247 0.27699 0.0
H206 H 0.38107 0.889 0.27599 0.0
H207 H 0.41422 0.90295 0.25711 0.0
C208 C 0.12916 0.57772 0.31016 0.0
N209 N 0.11957 0.55546 0.29814 0.0
N210 N 0.12375 0.59959 0.30109 0.0
C211 C 0.14666 0.57955 0.32971 0.0
C212 C 0.11086 0.58998 0.28296 0.0
N213 N 0.10864 0.56342 0.28104 0.0
C214 C 0.09864 0.60562 0.26766 0.0
H215 H 0.12968 0.56919 0.34358 0.0
H216 H 0.16289 0.60293 0.33169 0.0
H217 H 0.16029 0.56768 0.32913 0.0
H218 H 0.11772 0.62088 0.25573 0.0
H219 H 0.09062 0.61869 0.27576 0.0
H220 H 0.07895 0.58966 0.25939 0.0
C221 C 0.44512 0.5837 0.31313 0.0
N222 N 0.43291 0.56067 0.30167 0.0
N223 N 0.47433 0.6047 0.3052 0.0
C224 C 0.42937 0.5848 0.3328 0.0
C225 C 0.47924 0.59353 0.28843 0.0
N226 N 0.45435 0.56688 0.28638 0.0
C227 C 0.50793 0.60916 0.2735 0.0
H228 H 0.41445 0.59501 0.32849 0.0
H229 H 0.44689 0.59834 0.34347 0.0
H230 H 0.41418 0.56221 0.34114 0.0
H231 H 0.52513 0.60209 0.27889 0.0
H232 H 0.51891 0.63351 0.27297 0.0
H233 H 0.50209 0.60334 0.25742 0.0
Eu234 Eu 0.49764 0.99592 1.00605 0.0
C235 C 0.56536 0.09987 0.05841 0.0
C236 C 0.62028 0.11445 0.05328 0.0
C237 C 0.60499 0.15095 0.05973 0.0
C238 C 0.58843 0.09271 0.0543 0.0
C239 C 0.57338 0.12891 0.06167 0.0
C240 C 0.6284 0.14373 0.05553 0.0
C241 C 0.51864 0.11157 0.07048 0.0
N242 N 0.53513 0.07797 0.0605 0.0
C243 C 0.51189 0.08308 0.06722 0.0
C244 C 0.54948 0.13468 0.06744 0.0
Eu245 Eu 0.52531 0.03059 0.05392 0.0
N246 N 0.57978 0.06418 0.05229 0.0
C247 C 0.60186 0.05548 0.05069 0.0
C248 C 0.64302 0.10595 0.05049 0.0
C249 C 0.63375 0.07626 0.04948 0.0
H250 H 0.48799 0.06526 0.06947 0.0
H251 H 0.65115 0.06936 0.04767 0.0
H252 H 0.65273 0.1608 0.05454 0.0
H253 H 0.50007 0.11569 0.07532 0.0
H254 H 0.59507 0.03265 0.04978 0.0
H255 H 0.37112 0.95395 0.011 0.0
H256 H 0.66773 0.122 0.04952 0.0
H257 H 0.53743 0.9632 0.99103 0.0
H258 H 0.42675 0.99184 1.00933 0.0
H259 H 0.52712 0.91344 0.98475 0.0
H260 H 0.61161 0.17346 0.06197 0.0
H261 H 0.35636 0.90174 1.00909 0.0
H262 H 0.3732 0.86423 1.00397 0.0
H263 H 0.55468 0.15671 0.07007 0.0
H264 H 0.4156 0.85322 0.99667 0.0
N265 N 0.44355 0.96137 1.00708 0.0
C266 C 0.42074 0.9692 1.00841 0.0
C267 C 0.38088 0.91829 1.00834 0.0
C268 C 0.40438 0.91072 1.00573 0.0
C269 C 0.38912 0.94775 1.00937 0.0
C270 C 0.43594 0.93309 1.00499 0.0
H271 H 0.47299 0.8715 0.98914 0.0
N272 N 0.48976 0.94923 0.99935 0.0
C273 C 0.50798 0.91688 0.98939 0.0
C274 C 0.45975 0.92685 1.00092 0.0
C275 C 0.51374 0.945 0.9929 0.0
C276 C 0.4774 0.89325 0.99193 0.0
C277 C 0.45275 0.89814 0.99746 0.0
O278 O 0.52154 1.00894 0.97493 0.0
O279 O 0.53563 0.03371 0.0198 0.0
O280 O 0.51634 0.06217 0.03116 0.0
O281 O 0.48142 0.02992 1.00957 0.0
O282 O 0.55026 0.01471 0.99935 0.0
O283 O 0.47695 1.00788 0.97906 0.0
O284 O 0.50582 0.02201 0.08612 0.0
O285 O 0.48669 0.99354 0.04011 0.0
O286 O 0.50407 0.96336 0.02908 0.0
O287 O 0.54003 0.99527 0.05028 0.0
O288 O 0.47304 0.01242 0.06129 0.0
O289 O 0.54409 0.01367 0.07948 0.0
C290 C 0.55966 0.03602 1.0106 0.0
C291 C 0.48945 0.99746 0.94659 0.0
C292 C 0.49778 1.00059 0.90878 0.0
C293 C 0.50547 0.01357 0.9274 0.0
C294 C 0.47383 0.97104 0.90971 0.0
C295 C 0.46556 0.96808 0.94725 0.0
C296 C 0.45786 0.95495 0.92886 0.0
C297 C 0.49528 0.05584 0.01683 0.0
C298 C 0.49907 1.0115 0.96573 0.0
C299 C 0.42143 0.87549 0.99908 0.0
C300 C 0.3973 0.88176 1.00324 0.0
C301 C 0.46298 0.99178 0.04944 0.0
C302 C 0.54111 0.02779 0.1125 0.0
C303 C 0.53385 1.00993 0.13195 0.0
C304 C 0.5471 0.02243 0.15008 0.0
C305 C 0.56806 0.05292 0.14852 0.0
C306 C 0.56233 0.05815 0.11112 0.0
C307 C 0.57579 0.07062 0.12906 0.0
C308 C 0.52502 0.96911 0.04335 0.0
C309 C 0.52593 0.01444 0.09396 0.0
H310 H 0.52363 0.03641 0.92697 0.0
H311 H 0.46753 0.96035 0.89567 0.0
H312 H 0.45294 0.95532 0.96191 0.0
H313 H 0.43948 0.93223 0.92945 0.0
H314 H 0.51723 0.98649 0.13309 0.0
H315 H 0.57843 0.06298 0.16234 0.0
H316 H 0.56833 0.0722 0.09629 0.0
H317 H 0.59204 0.09409 0.12791 0.0
Eu318 Eu 0.0265 0.53429 0.99983 0.0
C319 C 0.91211 0.48013 0.06604 0.0
C320 C 0.89678 0.5181 0.06406 0.0
C321 C 0.85765 0.46643 0.07344 0.0
C322 C 0.91992 0.5096 0.0621 0.0
C323 C 0.88105 0.45826 0.07232 0.0
C324 C 0.86549 0.4963 0.06926 0.0
C325 C 0.89915 0.42236 0.0778 0.0
N326 N 0.93528 0.47303 0.06493 0.0
C327 C 0.9296 0.44487 0.07152 0.0
C328 C 0.87467 0.429 0.07791 0.0
Eu329 Eu 0.98595 0.51199 0.05345 0.0
N330 N 0.9504 0.53008 0.05731 0.0
C331 C 0.95972 0.55956 0.05583 0.0
C332 C 0.90594 0.54828 0.06127 0.0
C333 C 0.93762 0.5691 0.05745 0.0
H334 H 0.94851 0.43971 0.07132 0.0
H335 H 0.94503 0.59251 0.05568 0.0
H336 H 0.84734 0.50238 0.07065 0.0
H337 H 0.89458 0.39993 0.08251 0.0
H338 H 0.98411 0.57587 0.05277 0.0
H339 H 0.06849 0.455 0.99495 0.0
H340 H 0.88888 0.55573 0.06256 0.0
H341 H 0.06317 0.60647 0.9816 0.0
H342 H 0.0291 0.47108 0.99864 0.0
H343 H 0.1168 0.6466 0.97019 0.0
H344 H 0.83357 0.44992 0.07802 0.0
H345 H 0.12469 0.49213 0.9893 0.0
H346 H 0.16602 0.5457 0.98256 0.0
H347 H 0.85111 0.41155 0.08284 0.0
H348 H 0.17923 0.59804 0.97563 0.0
N349 N 0.0626 0.51688 0.99559 0.0
C350 C 0.05348 0.48756 0.99605 0.0
C351 C 0.10747 0.49934 0.99089 0.0
C352 C 0.11644 0.52944 0.989 0.0
C353 C 0.07577 0.47832 0.99399 0.0
C354 C 0.09308 0.53761 0.99124 0.0
H355 H 0.16088 0.63581 0.97036 0.0
N356 N 0.07706 0.57367 0.98848 0.0
C357 C 0.1126 0.62435 0.97518 0.0
C358 C 0.10057 0.56698 0.98753 0.0
C359 C 0.0823 0.60162 0.98161 0.0
C360 C 0.13743 0.61818 0.97537 0.0
C361 C 0.13152 0.58911 0.98123 0.0
O362 O 0.01437 0.55186 0.97084 0.0
O363 O 0.98701 0.52927 0.01995 0.0
O364 O 0.95412 0.4775 0.03335 0.0
O365 O 0.98876 0.48481 1.00524 0.0
O366 O 0.00852 0.56709 0.99848 0.0
O367 O 0.01268 0.50945 0.97296 0.0
O368 O 0.99855 0.49422 0.08212 0.0
O369 O 0.02501 0.51705 0.03313 0.0
O370 O 0.05861 0.56849 0.02018 0.0
O371 O 0.02415 0.56109 0.04845 0.0
O372 O 0.0049 0.47969 0.05499 0.0
O373 O 0.99888 0.53597 0.08077 0.0
C374 C 0.98577 0.55215 0.01258 0.0
C375 C 0.02484 0.53797 0.93943 0.0
C376 C 0.02025 0.53681 0.90153 0.0
C377 C 0.00631 0.52875 0.92219 0.0
C378 C 0.05303 0.55452 0.89857 0.0
C379 C 0.05743 0.55511 0.936 0.0
C380 C 0.07138 0.56342 0.91568 0.0
C381 C 0.96149 0.46899 0.01654 0.0
C382 C 0.01001 0.52994 0.96087 0.0
C383 C 0.15522 0.58132 0.98016 0.0
C384 C 0.14769 0.55152 0.98409 0.0
C385 C 0.02698 0.49462 0.04043 0.0
C386 C 0.98847 0.50698 0.11411 0.0
C387 C 0.00771 0.51185 0.13119 0.0
C388 C 0.99445 0.50239 0.15203 0.0
C389 C 0.96166 0.48816 0.15541 0.0
C390 C 0.9559 0.49296 0.11794 0.0
C391 C 0.94262 0.4836 0.13849 0.0
C392 C 0.05154 0.57669 0.03731 0.0
C393 C 1.00254 0.51572 0.09243 0.0
H394 H 0.98117 0.51503 0.92494 0.0
H395 H 0.06459 0.56176 0.88297 0.0
H396 H 0.07212 0.5622 0.94898 0.0
H397 H 0.09655 0.57692 0.91317 0.0
H398 H 0.0329 0.52255 0.12822 0.0
H399 H 0.9507 0.48099 0.17119 0.0
H400 H 0.94074 0.48916 0.10508 0.0
H401 H 0.91744 0.47279 0.14132 0.0
Eu402 Eu 0.50524 0.49185 0.061 0.0
C403 C 0.45481 0.55126 0.99233 0.0
C404 C 0.39956 0.51598 0.9928 0.0
C405 C 0.41751 0.56855 0.98372 0.0
C406 C 0.4307 0.52237 0.99571 0.0
C407 C 0.44861 0.57463 0.98577 0.0
C408 C 0.39301 0.53928 0.98727 0.0
C409 C 0.50448 0.60785 0.98197 0.0
N410 N 0.48456 0.55634 0.99435 0.0
C411 C 0.50942 0.58391 0.98848 0.0
C412 C 0.47392 0.60327 0.98089 0.0
Eu413 Eu 0.49102 0.51498 1.00627 0.0
N414 N 0.43789 0.50039 1.0008 0.0
C415 C 0.41537 0.47146 1.00168 0.0
C416 C 0.37606 0.48634 0.99497 0.0
C417 C 0.38409 0.46398 0.99912 0.0
H418 H 0.53306 0.58749 0.98942 0.0
H419 H 0.36619 0.44099 1.00042 0.0
H420 H 0.3692 0.53483 0.98516 0.0
H421 H 0.52421 0.62979 0.97783 0.0
H422 H 0.42126 0.45399 1.00499 0.0
H423 H 0.62907 0.56931 0.06769 0.0
H424 H 0.35182 0.4805 0.99295 0.0
H425 H 0.4658 0.4192 0.0777 0.0
H426 H 0.57374 0.55438 0.06261 0.0
H427 H 0.47666 0.37813 0.08912 0.0
H428 H 0.41222 0.58624 0.9789 0.0
H429 H 0.64553 0.5313 0.07528 0.0
H430 H 0.63036 0.47745 0.08279 0.0
H431 H 0.47015 0.62183 0.97579 0.0
H432 H 0.58886 0.42535 0.08862 0.0
N433 N 0.55877 0.50824 0.06684 0.0
C434 C 0.5804 0.53748 0.06604 0.0
C435 C 0.62112 0.52458 0.07311 0.0
C436 C 0.59856 0.49463 0.0751 0.0
C437 C 0.6119 0.54609 0.06888 0.0
C438 C 0.56712 0.48709 0.07201 0.0
H439 H 0.53142 0.38812 0.09134 0.0
N440 N 0.51388 0.45175 0.07302 0.0
C441 C 0.49582 0.40044 0.08513 0.0
C442 C 0.54393 0.45787 0.07513 0.0
C443 C 0.48974 0.4237 0.07873 0.0
C444 C 0.52676 0.40616 0.0863 0.0
C445 C 0.55128 0.43523 0.08163 0.0
O446 O 0.4746 0.4743 0.08983 0.0
O447 O 0.4725 0.49779 0.0396 0.0
O448 O 0.49406 0.54915 0.0263 0.0
O449 O 0.52067 0.54157 0.05463 0.0
O450 O 0.45327 0.46033 0.06154 0.0
O451 O 0.51486 0.51785 0.08714 0.0
O452 O 0.52307 0.53078 0.97822 0.0
O453 O 0.52297 0.50826 0.02778 0.0
O454 O 0.50128 0.45738 0.04082 0.0
O455 O 0.47501 0.46528 0.01233 0.0
O456 O 0.54369 0.54514 1.00555 0.0
O457 O 0.47873 0.49095 0.97888 0.0
C458 C 0.44714 0.47534 0.0467 0.0
C459 C 0.49866 0.4907 0.12114 0.0
C460 C 0.49628 0.49419 0.1588 0.0
C461 C 0.48882 0.49992 0.1381 0.0
C462 C 0.51313 0.47865 0.16214 0.0
C463 C 0.51564 0.47552 0.12503 0.0
C464 C 0.52267 0.46943 0.1454 0.0
C465 C 0.51009 0.55753 0.04314 0.0
C466 C 0.49154 0.49711 0.09942 0.0
C467 C 0.58268 0.44245 0.08385 0.0
C468 C 0.6063 0.47211 0.08056 0.0
C469 C 0.54886 0.5297 0.02065 0.0
C470 C 0.50072 0.51978 0.94565 0.0
C471 C 0.51337 0.51324 0.92851 0.0
C472 C 0.51076 0.52354 0.90755 0.0
C473 C 0.49582 0.54091 0.90435 0.0
C474 C 0.48546 0.53656 0.94175 0.0
C475 C 0.48319 0.54714 0.92125 0.0
C476 C 0.48545 0.44922 0.02382 0.0
C477 C 0.50426 0.50999 0.96759 0.0
H478 H 0.47599 0.51196 0.13513 0.0
H479 H 0.51881 0.47341 0.1778 0.0
H480 H 0.52348 0.46835 0.11231 0.0
H481 H 0.53566 0.45756 0.14824 0.0
H482 H 0.52483 0.49995 0.93152 0.0
H483 H 0.49409 0.55005 0.8887 0.0
H484 H 0.4755 0.5417 0.95455 0.0
H485 H 0.47169 0.56041 0.91845 0.0
Eu486 Eu 0.16571 0.33067 0.33773 0.0
C487 C 0.23458 0.43138 0.3941 0.0
C488 C 0.28926 0.44573 0.38808 0.0
C489 C 0.27477 0.48151 0.39765 0.0
C490 C 0.25728 0.42443 0.38863 0.0
C491 C 0.24305 0.4598 0.39914 0.0
C492 C 0.29784 0.47449 0.39211 0.0
C493 C 0.18846 0.44239 0.4085 0.0
N494 N 0.20424 0.40984 0.39558 0.0
C495 C 0.18126 0.41457 0.40332 0.0
C496 C 0.21946 0.46525 0.40612 0.0
Eu497 Eu 0.19342 0.36339 0.38631 0.0
N498 N 0.24815 0.39638 0.38494 0.0
C499 C 0.26996 0.38756 0.3823 0.0
C500 C 0.31166 0.43725 0.38404 0.0
C501 C 0.30195 0.40792 0.38146 0.0
H502 H 0.15723 0.39699 0.40501 0.0
H503 H 0.31908 0.40096 0.37876 0.0
H504 H 0.32227 0.49123 0.39152 0.0
H505 H 0.1701 0.44622 0.41422 0.0
H506 H 0.26297 0.36503 0.38025 0.0
H507 H 0.03917 0.28835 0.34305 0.0
H508 H 0.33645 0.45296 0.38339 0.0
H509 H 0.20581 0.29869 0.32178 0.0
H510 H 0.09478 0.32632 0.34163 0.0
H511 H 0.19565 0.24931 0.31462 0.0
H512 H 0.28174 0.50356 0.40126 0.0
H513 H 0.0246 0.23643 0.34009 0.0
H514 H 0.04161 0.19935 0.334 0.0
H515 H 0.225 0.48678 0.41017 0.0
H516 H 0.08412 0.18874 0.32614 0.0
N517 N 0.1117 0.29613 0.3385 0.0
C518 C 0.08882 0.30379 0.34027 0.0
C519 C 0.04909 0.25302 0.33946 0.0
C520 C 0.07267 0.24565 0.33644 0.0
C521 C 0.05722 0.28231 0.34108 0.0
C522 C 0.10419 0.26804 0.33588 0.0
H523 H 0.14156 0.20731 0.31857 0.0
N524 N 0.15809 0.2844 0.33021 0.0
C525 C 0.17647 0.25255 0.31947 0.0
C526 C 0.12809 0.26201 0.33153 0.0
C527 C 0.18214 0.28045 0.32349 0.0
C528 C 0.1459 0.22888 0.32175 0.0
C529 C 0.12118 0.23352 0.32755 0.0
O530 O 0.19039 0.34583 0.3068 0.0
O531 O 0.2036 0.36825 0.35192 0.0
O532 O 0.18273 0.39529 0.36506 0.0
O533 O 0.14962 0.36441 0.34192 0.0
O534 O 0.21826 0.3495 0.33115 0.0
O535 O 0.14448 0.34201 0.31074 0.0
O536 O 0.1771 0.35574 0.41937 0.0
O537 O 0.15447 0.32749 0.37186 0.0
O538 O 0.17182 0.29737 0.36015 0.0
O539 O 0.20872 0.32912 0.38087 0.0
O540 O 0.14123 0.34533 0.39401 0.0
O541 O 0.20827 0.34002 0.40987 0.0
C542 C 0.22759 0.37067 0.34253 0.0
C543 C 0.15953 0.33446 0.27789 0.0
C544 C 0.17036 0.33997 0.24009 0.0
C545 C 0.17567 0.35204 0.2591 0.0
C546 C 0.14842 0.30983 0.24027 0.0
C547 C 0.1376 0.30456 0.27776 0.0
C548 C 0.13212 0.29235 0.25899 0.0
C549 C 0.16244 0.38957 0.35018 0.0
C550 C 0.16751 0.34748 0.29752 0.0
C551 C 0.08989 0.21085 0.32895 0.0
C552 C 0.06568 0.21689 0.33342 0.0
C553 C 0.13087 0.32546 0.38154 0.0
C554 C 0.2119 0.35271 0.44399 0.0
C555 C 0.19968 0.3355 0.46355 0.0
C556 C 0.21751 0.34249 0.48124 0.0
C557 C 0.24773 0.36708 0.47917 0.0
C558 C 0.24198 0.37743 0.44218 0.0
C559 C 0.25976 0.38457 0.45973 0.0
C560 C 0.19317 0.30294 0.37409 0.0
C561 C 0.19378 0.3432 0.42552 0.0
H562 H 0.19223 0.37524 0.25935 0.0
H563 H 0.14401 0.29968 0.226 0.0
H564 H 0.12494 0.29067 0.2921 0.0
H565 H 0.11532 0.2692 0.25897 0.0
H566 H 0.17656 0.31621 0.46491 0.0
H567 H 0.26181 0.37296 0.49262 0.0
H568 H 0.25191 0.39091 0.42723 0.0
H569 H 0.283 0.40359 0.45822 0.0
Eu570 Eu 0.69685 0.86747 0.33277 0.0
C571 C 0.58236 0.81035 0.39831 0.0
C572 C 0.56572 0.84735 0.39689 0.0
C573 C 0.52737 0.79521 0.40505 0.0
C574 C 0.58945 0.83965 0.39477 0.0
C575 C 0.55139 0.78783 0.40405 0.0
C576 C 0.53453 0.82494 0.40146 0.0
C577 C 0.57076 0.75287 0.40941 0.0
N578 N 0.60615 0.80404 0.39745 0.0
C579 C 0.6011 0.77601 0.40371 0.0
C580 C 0.54571 0.75872 0.40928 0.0
Eu581 Eu 0.65655 0.84403 0.38664 0.0
N582 N 0.61987 0.86073 0.39071 0.0
C583 C 0.62852 0.88993 0.39031 0.0
C584 C 0.57423 0.87735 0.3952 0.0
C585 C 0.60584 0.8987 0.39232 0.0
H586 H 0.62045 0.77145 0.40365 0.0
H587 H 0.61275 0.92193 0.39148 0.0
H588 H 0.51592 0.8304 0.40292 0.0
H589 H 0.5667 0.73055 0.41384 0.0
H590 H 0.65284 0.90664 0.3879 0.0
H591 H 0.74098 0.78979 0.32774 0.0
H592 H 0.55672 0.8842 0.39673 0.0
H593 H 0.73222 0.93946 0.31431 0.0
H594 H 0.70086 0.80495 0.33141 0.0
H595 H 0.78551 0.98027 0.30284 0.0
H596 H 0.50336 0.7782 0.4092 0.0
H597 H 0.79694 0.82762 0.32209 0.0
H598 H 0.83755 0.88146 0.31535 0.0
H599 H 0.52224 0.74079 0.41378 0.0
H600 H 0.84973 0.93353 0.3084 0.0
N601 N 0.73369 0.85094 0.32837 0.0
C602 C 0.72512 0.82174 0.32883 0.0
C603 C 0.7794 0.83443 0.32367 0.0
C604 C 0.7878 0.8644 0.32179 0.0
C605 C 0.74783 0.81302 0.32677 0.0
C606 C 0.76404 0.87203 0.32404 0.0
H607 H 0.83032 0.97053 0.30307 0.0
N608 N 0.74704 0.90734 0.32123 0.0
C609 C 0.78178 0.95818 0.30786 0.0
C610 C 0.77095 0.90123 0.32032 0.0
C611 C 0.75168 0.93507 0.3143 0.0
C612 C 0.80703 0.95261 0.30809 0.0
C613 C 0.80172 0.92375 0.314 0.0
O614 O 0.68524 0.88512 0.30355 0.0
O615 O 0.65769 0.86173 0.35338 0.0
O616 O 0.62492 0.81034 0.36603 0.0
O617 O 0.65999 0.81766 0.33824 0.0
O618 O 0.67722 0.8991 0.33168 0.0
O619 O 0.68135 0.84178 0.30643 0.0
O620 O 0.66842 0.82585 0.41548 0.0
O621 O 0.69583 0.85021 0.36603 0.0
O622 O 0.72813 0.90229 0.35302 0.0
O623 O 0.69395 0.89343 0.38192 0.0
O624 O 0.67691 0.81284 0.38785 0.0
O625 O 0.66951 0.86799 0.41395 0.0
C626 C 0.65523 0.88397 0.34624 0.0
C627 C 0.69458 0.8694 0.27264 0.0
C628 C 0.69044 0.86652 0.23492 0.0
C629 C 0.67614 0.86062 0.25528 0.0
C630 C 0.72334 0.88179 0.23226 0.0
C631 C 0.7273 0.88431 0.26953 0.0
C632 C 0.74155 0.8906 0.24944 0.0
C633 C 0.63257 0.80181 0.34935 0.0
C634 C 0.67969 0.86256 0.29397 0.0
C635 C 0.82584 0.9165 0.31294 0.0
C636 C 0.8189 0.88686 0.31689 0.0
C637 C 0.69872 0.82826 0.37321 0.0
C638 C 0.65793 0.83888 0.44727 0.0
C639 C 0.67658 0.84338 0.46465 0.0
C640 C 0.6627 0.83444 0.48535 0.0
C641 C 0.62989 0.82113 0.48822 0.0
C642 C 0.62535 0.82567 0.45062 0.0
C643 C 0.61146 0.81685 0.47099 0.0
C644 C 0.72096 0.90984 0.37044 0.0
C645 C 0.67255 0.84745 0.42574 0.0
H646 H 0.65084 0.84871 0.25768 0.0
H647 H 0.73506 0.88705 0.21682 0.0
H648 H 0.74186 0.89104 0.2826 0.0
H649 H 0.76684 0.90225 0.24718 0.0
H650 H 0.70177 0.85343 0.46204 0.0
H651 H 0.61844 0.81444 0.50384 0.0
H652 H 0.61065 0.82217 0.4375 0.0
H653 H 0.58628 0.80672 0.47345 0.0
Eu654 Eu 0.17106 0.82608 0.39351 0.0
C655 C 0.11777 0.88329 0.3252 0.0
C656 C 0.06305 0.84645 0.32581 0.0
C657 C 0.07884 0.89859 0.31683 0.0
C658 C 0.09456 0.85403 0.32857 0.0
C659 C 0.11031 0.90587 0.31877 0.0
C660 C 0.05524 0.86893 0.3204 0.0
C661 C 0.16578 0.94073 0.31484 0.0
N662 N 0.14791 0.88952 0.32711 0.0
C663 C 0.17198 0.91754 0.32123 0.0
C664 C 0.13479 0.93494 0.31388 0.0
Eu665 Eu 0.15652 0.84938 0.33884 0.0
N666 N 0.10296 0.83288 0.33358 0.0
C667 C 0.08136 0.80363 0.33453 0.0
C668 C 0.04048 0.81648 0.32804 0.0
C669 C 0.04976 0.79498 0.33211 0.0
H670 H 0.19594 0.92206 0.32206 0.0
H671 H 0.03258 0.77174 0.33344 0.0
H672 H 0.03112 0.86356 0.31839 0.0
H673 H 0.18487 0.96302 0.31069 0.0
H674 H 0.08824 0.78682 0.33776 0.0
H675 H 0.29424 0.9042 0.4015 0.0
H676 H 0.016 0.80972 0.32612 0.0
H677 H 0.13182 0.75353 0.4103 0.0
H678 H 0.23897 0.88885 0.39572 0.0
H679 H 0.14276 0.71283 0.42276 0.0
H680 H 0.07259 0.91565 0.31211 0.0
H681 H 0.31103 0.86649 0.40962 0.0
H682 H 0.29617 0.81274 0.41746 0.0
H683 H 0.13004 0.95292 0.30887 0.0
H684 H 0.25489 0.76055 0.4233 0.0
N685 N 0.22447 0.84282 0.39989 0.0
C686 C 0.24582 0.87209 0.39932 0.0
C687 C 0.28667 0.85959 0.40708 0.0
C688 C 0.26432 0.82958 0.40894 0.0
C689 C 0.27727 0.88093 0.40256 0.0
C690 C 0.23296 0.82182 0.40535 0.0
H691 H 0.19752 0.72312 0.42573 0.0
N692 N 0.17987 0.78622 0.40587 0.0
C693 C 0.16189 0.73512 0.41865 0.0
C694 C 0.2099 0.79255 0.40841 0.0
C695 C 0.15577 0.75819 0.41162 0.0
C696 C 0.19283 0.74101 0.42025 0.0
C697 C 0.2173 0.77009 0.41544 0.0
O698 O 0.13984 0.80846 0.42209 0.0
O699 O 0.13803 0.83125 0.37204 0.0
O700 O 0.15899 0.88312 0.35906 0.0
O701 O 0.18559 0.87554 0.38743 0.0
O702 O 0.11937 0.79358 0.39364 0.0
O703 O 0.18015 0.85192 0.41972 0.0
O704 O 0.18895 0.86611 0.31092 0.0
O705 O 0.18911 0.84378 0.36036 0.0
O706 O 0.16914 0.79257 0.37307 0.0
O707 O 0.14289 0.80027 0.34447 0.0
O708 O 0.20862 0.88119 0.33838 0.0
O709 O 0.14518 0.82582 0.31122 0.0
C710 C 0.11285 0.80849 0.37894 0.0
C711 C 0.16328 0.8246 0.45366 0.0
C712 C 0.161 0.8285 0.49127 0.0
C713 C 0.15385 0.83437 0.47049 0.0
C714 C 0.17707 0.81225 0.49481 0.0
C715 C 0.1795 0.80872 0.45777 0.0
C716 C 0.1862 0.80249 0.47821 0.0
C717 C 0.17479 0.89135 0.37602 0.0
C718 C 0.1566 0.83117 0.43182 0.0
C719 C 0.24867 0.77752 0.41813 0.0
C720 C 0.27216 0.80723 0.41483 0.0
C721 C 0.21447 0.86616 0.3534 0.0
C722 C 0.16731 0.85508 0.27816 0.0
C723 C 0.17973 0.84818 0.2611 0.0
C724 C 0.17735 0.85848 0.24009 0.0
C725 C 0.16281 0.8762 0.23676 0.0
C726 C 0.15243 0.87218 0.27413 0.0
C727 C 0.15036 0.88276 0.25358 0.0
C728 C 0.15414 0.78472 0.35571 0.0
C729 C 0.1707 0.84529 0.30012 0.0
H730 H 0.14161 0.84694 0.46738 0.0
H731 H 0.18248 0.80689 0.51053 0.0
H732 H 0.18702 0.80112 0.44518 0.0
H733 H 0.1986 0.79008 0.4812 0.0
H734 H 0.19086 0.83461 0.26422 0.0
H735 H 0.16127 0.88537 0.22107 0.0
H736 H 0.14262 0.87759 0.28687 0.0
H737 H 0.13917 0.89628 0.25067 0.0
Eu738 Eu 0.83391 0.66617 0.6737 0.0
C739 C 0.90354 0.76771 0.7278 0.0
C740 C 0.95815 0.78145 0.72213 0.0
C741 C 0.94402 0.81828 0.72979 0.0
C742 C 0.92612 0.76019 0.72306 0.0
C743 C 0.91224 0.79671 0.73159 0.0
C744 C 0.96694 0.81066 0.72508 0.0
C745 C 0.85765 0.78035 0.74017 0.0
N746 N 0.8731 0.74633 0.72958 0.0
C747 C 0.85023 0.75189 0.73637 0.0
C748 C 0.88877 0.80296 0.73755 0.0
Eu749 Eu 0.86216 0.69903 0.7221 0.0
N750 N 0.91685 0.73177 0.72028 0.0
C751 C 0.93847 0.72262 0.71813 0.0
C752 C 0.9804 0.77254 0.71872 0.0
C753 C 0.9705 0.74291 0.717 0.0
H754 H 0.82613 0.73445 0.73828 0.0
H755 H 0.98751 0.73568 0.71474 0.0
H756 H 0.99142 0.82736 0.72419 0.0
H757 H 0.83939 0.78484 0.7451 0.0
H758 H 0.93123 0.69983 0.71672 0.0
H759 H 0.70689 0.62049 0.68068 0.0
H760 H 0.00522 0.78821 0.71781 0.0
H761 H 0.87519 0.6374 0.65432 0.0
H762 H 0.76207 0.65937 0.67941 0.0
H763 H 0.86631 0.58967 0.64449 0.0
H764 H 0.95116 0.84075 0.73247 0.0
H765 H 0.6937 0.56951 0.67571 0.0
H766 H 0.71207 0.53426 0.66718 0.0
H767 H 0.89449 0.82498 0.74057 0.0
H768 H 0.75542 0.5259 0.65718 0.0
N769 N 0.78019 0.63056 0.67455 0.0
C770 C 0.75674 0.63725 0.67723 0.0
C771 C 0.71802 0.58649 0.6752 0.0
C772 C 0.74214 0.58022 0.67112 0.0
C773 C 0.72537 0.61525 0.67795 0.0
C774 C 0.77342 0.60309 0.67075 0.0
H775 H 0.81291 0.54657 0.64825 0.0
N776 N 0.82745 0.62125 0.66402 0.0
C777 C 0.84686 0.59175 0.65043 0.0
C778 C 0.79778 0.59831 0.66523 0.0
C779 C 0.85181 0.61875 0.65601 0.0
C780 C 0.81669 0.56745 0.65262 0.0
C781 C 0.79161 0.57064 0.6598 0.0
O782 O 0.85858 0.68497 0.64288 0.0
O783 O 0.87221 0.70343 0.68783 0.0
O784 O 0.85295 0.73104 0.69992 0.0
O785 O 0.81644 0.69856 0.67932 0.0
O786 O 0.88637 0.68481 0.66674 0.0
O787 O 0.81125 0.67742 0.64757 0.0
O788 O 0.84593 0.69304 0.75497 0.0
O789 O 0.82326 0.66245 0.70808 0.0
O790 O 0.84203 0.633 0.69486 0.0
O791 O 0.87631 0.66367 0.71757 0.0
O792 O 0.81001 0.68057 0.73012 0.0
O793 O 0.87859 0.67832 0.74658 0.0
C794 C 0.89607 0.70574 0.67835 0.0
C795 C 0.82817 0.67443 0.61379 0.0
C796 C 0.84079 0.68405 0.57604 0.0
C797 C 0.84485 0.69391 0.5958 0.0
C798 C 0.8198 0.65415 0.57457 0.0
C799 C 0.80715 0.64471 0.61213 0.0
C800 C 0.80304 0.63466 0.59254 0.0
C801 C 0.83106 0.72467 0.6862 0.0
C802 C 0.83486 0.68553 0.63413 0.0
C803 C 0.76061 0.54741 0.66108 0.0
C804 C 0.73593 0.55217 0.66677 0.0
C805 C 0.79972 0.66027 0.71797 0.0
C806 C 0.88165 0.69324 0.78002 0.0
C807 C 0.8697 0.67733 0.8 0.0
C808 C 0.88745 0.68614 0.81756 0.0
C809 C 0.91725 0.71129 0.81497 0.0
C810 C 0.91133 0.71852 0.77767 0.0
C811 C 0.92898 0.72751 0.79511 0.0
C812 C 0.86239 0.63825 0.70955 0.0
C813 C 0.86365 0.6819 0.76179 0.0
H814 H 0.8615 0.71673 0.59729 0.0
H815 H 0.816 0.64597 0.55952 0.0
H816 H 0.79418 0.62932 0.62589 0.0
H817 H 0.78684 0.6117 0.59128 0.0
H818 H 0.84692 0.65758 0.80179 0.0
H819 H 0.93128 0.7185 0.82832 0.0
H820 H 0.92109 0.731 0.76242 0.0
H821 H 0.95193 0.74694 0.79318 0.0
Eu822 Eu 0.36373 0.20287 0.66517 0.0
C823 C 0.24819 0.14898 0.72955 0.0
C824 C 0.23253 0.18675 0.72657 0.0
C825 C 0.19337 0.13501 0.73551 0.0
C826 C 0.25587 0.17838 0.72523 0.0
C827 C 0.21699 0.12701 0.7353 0.0
C828 C 0.20113 0.16484 0.73114 0.0
C829 C 0.23533 0.09142 0.74222 0.0
N830 N 0.2716 0.1421 0.72947 0.0
C831 C 0.26592 0.11405 0.73649 0.0
C832 C 0.21067 0.09785 0.74134 0.0
Eu833 Eu 0.32248 0.18115 0.71857 0.0
N834 N 0.28647 0.19897 0.72119 0.0
C835 C 0.29566 0.22838 0.71999 0.0
C836 C 0.24163 0.21691 0.72411 0.0
C837 C 0.27339 0.2378 0.72125 0.0
H838 H 0.28496 0.10904 0.73702 0.0
H839 H 0.28074 0.26118 0.71983 0.0
H840 H 0.18282 0.17081 0.732 0.0
H841 H 0.23078 0.06907 0.74728 0.0
H842 H 0.32011 0.24474 0.71758 0.0
H843 H 0.40646 0.12367 0.66267 0.0
H844 H 0.22444 0.22427 0.72505 0.0
H845 H 0.39998 0.27474 0.64638 0.0
H846 H 0.36686 0.13956 0.66573 0.0
H847 H 0.45341 0.31489 0.63447 0.0
H848 H 0.16919 0.11842 0.73966 0.0
H849 H 0.46244 0.16098 0.65583 0.0
H850 H 0.50337 0.21454 0.64766 0.0
H851 H 0.187 0.08031 0.74586 0.0
H852 H 0.51622 0.26672 0.63993 0.0
N853 N 0.40002 0.18553 0.66132 0.0
C854 C 0.39113 0.15614 0.66267 0.0
C855 C 0.44513 0.16812 0.65718 0.0
C856 C 0.45384 0.1982 0.65444 0.0
C857 C 0.41355 0.147 0.66097 0.0
C858 C 0.43039 0.20628 0.6565 0.0
H859 H 0.49761 0.30429 0.63448 0.0
N860 N 0.41414 0.24217 0.65341 0.0
C861 C 0.44936 0.29272 0.63961 0.0
C862 C 0.4377 0.23558 0.65243 0.0
C863 C 0.41918 0.26999 0.64632 0.0
C864 C 0.47427 0.28667 0.63971 0.0
C865 C 0.46853 0.25771 0.64582 0.0
O866 O 0.35265 0.22021 0.6356 0.0
O867 O 0.32436 0.19801 0.68505 0.0
O868 O 0.29113 0.14664 0.69833 0.0
O869 O 0.32657 0.15321 0.67102 0.0
O870 O 0.34453 0.23494 0.66312 0.0
O871 O 0.34819 0.17661 0.63913 0.0
O872 O 0.3335 0.16331 0.74795 0.0
O873 O 0.36209 0.18632 0.69875 0.0
O874 O 0.39517 0.23792 0.6852 0.0
O875 O 0.36059 0.23027 0.7135 0.0
O876 O 0.34169 0.14911 0.72084 0.0
O877 O 0.33532 0.20582 0.7455 0.0
C878 C 0.32193 0.22006 0.67732 0.0
C879 C 0.36174 0.20356 0.6051 0.0
C880 C 0.35753 0.20036 0.56743 0.0
C881 C 0.34328 0.19494 0.58774 0.0
C882 C 0.39043 0.215 0.56481 0.0
C883 C 0.39444 0.21785 0.60203 0.0
C884 C 0.40867 0.22366 0.58199 0.0
C885 C 0.29902 0.13762 0.68201 0.0
C886 C 0.34684 0.1973 0.62635 0.0
C887 C 0.4923 0.25 0.64473 0.0
C888 C 0.48498 0.22029 0.6491 0.0
C889 C 0.36406 0.16403 0.70647 0.0
C890 C 0.32294 0.17751 0.77917 0.0
C891 C 0.34099 0.18024 0.79675 0.0
C892 C 0.32683 0.17226 0.81734 0.0
C893 C 0.29435 0.16168 0.81989 0.0
C894 C 0.29068 0.1669 0.78221 0.0
C895 C 0.27653 0.15904 0.80247 0.0
C896 C 0.38792 0.24604 0.70231 0.0
C897 C 0.33784 0.18534 0.75777 0.0
H898 H 0.31798 0.18352 0.59011 0.0
H899 H 0.40212 0.2199 0.5494 0.0
H900 H 0.40901 0.22448 0.61511 0.0
H901 H 0.43394 0.23483 0.57977 0.0
H902 H 0.36589 0.1882 0.79435 0.0
H903 H 0.2827 0.15589 0.83539 0.0
H904 H 0.27647 0.16475 0.76893 0.0
H905 H 0.25161 0.15097 0.80469 0.0
Eu906 Eu 0.83782 0.15916 0.72764 0.0
C907 C 0.79253 0.22228 0.65868 0.0
C908 C 0.73723 0.18771 0.65813 0.0
C909 C 0.7561 0.24056 0.64985 0.0
C910 C 0.76808 0.19353 0.66156 0.0
C911 C 0.78696 0.24609 0.65231 0.0
C912 C 0.73128 0.21141 0.65277 0.0
C913 C 0.84297 0.27867 0.64947 0.0
N914 N 0.82205 0.22681 0.66099 0.0
C915 C 0.84731 0.25431 0.65573 0.0
C916 C 0.81264 0.27461 0.64801 0.0
Eu917 Eu 0.82741 0.18473 0.67253 0.0
N918 N 0.77472 0.17116 0.66644 0.0
C919 C 0.75203 0.14244 0.66657 0.0
C920 C 0.7135 0.15824 0.65944 0.0
C921 C 0.72105 0.13553 0.66331 0.0
H922 H 0.87076 0.25749 0.65695 0.0
H923 H 0.70299 0.11268 0.6639 0.0
H924 H 0.70769 0.2074 0.65026 0.0
H925 H 0.86299 0.30054 0.64579 0.0
H926 H 0.75759 0.12472 0.66967 0.0
H927 H 0.96156 0.23288 0.7377 0.0
H928 H 0.68949 0.15282 0.65692 0.0
H929 H 0.79526 0.08668 0.74386 0.0
H930 H 0.90714 0.22 0.73093 0.0
H931 H 0.80336 0.04429 0.75662 0.0
H932 H 0.75129 0.25858 0.64516 0.0
H933 H 0.97563 0.19334 0.74631 0.0
H934 H 0.95808 0.13897 0.75405 0.0
H935 H 0.80935 0.29349 0.64308 0.0
H936 H 0.91497 0.08755 0.75924 0.0
N937 N 0.89045 0.17356 0.73502 0.0
C938 C 0.9128 0.20247 0.73472 0.0
C939 C 0.95164 0.18753 0.74333 0.0
C940 C 0.92824 0.15791 0.74488 0.0
C941 C 0.94377 0.2099 0.73853 0.0
C942 C 0.89742 0.15157 0.74072 0.0
H943 H 0.8571 0.05206 0.76064 0.0
N944 N 0.84388 0.11777 0.74028 0.0
C945 C 0.82327 0.0662 0.75284 0.0
C946 C 0.87335 0.12272 0.7434 0.0
C947 C 0.81876 0.09021 0.74565 0.0
C948 C 0.85365 0.07067 0.75503 0.0
C949 C 0.87914 0.09928 0.75063 0.0
O950 O 0.80541 0.14207 0.75561 0.0
O951 O 0.80716 0.16661 0.70528 0.0
O952 O 0.82949 0.21798 0.69307 0.0
O953 O 0.85474 0.20922 0.7218 0.0
O954 O 0.78567 0.12887 0.72645 0.0
O955 O 0.84691 0.18461 0.75407 0.0
O956 O 0.86042 0.20103 0.64495 0.0
O957 O 0.85777 0.17669 0.69483 0.0
O958 O 0.83442 0.12497 0.70736 0.0
O959 O 0.81121 0.13497 0.67777 0.0
O960 O 0.87986 0.21435 0.67328 0.0
O961 O 0.81584 0.1617 0.64465 0.0
C962 C 0.78093 0.14487 0.71155 0.0
C963 C 0.82791 0.15677 0.78769 0.0
C964 C 0.82451 0.16002 0.82533 0.0
C965 C 0.81862 0.16684 0.8044 0.0
C966 C 0.83919 0.14254 0.82914 0.0
C967 C 0.84276 0.13968 0.79207 0.0
C968 C 0.84821 0.13252 0.81265 0.0
C969 C 0.84482 0.22569 0.71026 0.0
C970 C 0.8225 0.16427 0.76571 0.0
C971 C 0.90997 0.10529 0.75391 0.0
C972 C 0.93451 0.13457 0.75099 0.0
C973 C 0.88401 0.19825 0.68843 0.0
C974 C 0.83928 0.19127 0.61187 0.0
C975 C 0.85099 0.18374 0.59479 0.0
C976 C 0.84923 0.1946 0.5738 0.0
C977 C 0.83608 0.2135 0.5705 0.0
C978 C 0.82579 0.20958 0.60787 0.0
C979 C 0.82437 0.22071 0.58734 0.0
C980 C 0.82035 0.11806 0.68958 0.0
C981 C 0.84185 0.18077 0.63385 0.0
H982 H 0.80746 0.18036 0.80108 0.0
H983 H 0.84357 0.1364 0.84498 0.0
H984 H 0.85017 0.13184 0.77959 0.0
H985 H 0.85954 0.11916 0.81585 0.0
H986 H 0.86106 0.16926 0.59787 0.0
H987 H 0.83507 0.22308 0.55483 0.0
H988 H 0.81655 0.21551 0.62062 0.0
H989 H 0.81424 0.23514 0.58446 0.0
H990 H 0.31068 0.82092 0.10771 0.0
H991 H 0.26369 0.85831 0.06886 0.0
H992 H 0.36148 0.86484 0.09618 0.0
H993 H 0.31415 0.9024 0.05726 0.0
H994 H 0.44813 0.93309 0.05232 0.0
H995 H 0.39743 0.88933 0.06368 0.0
H996 H 0.35724 0.94583 0.07068 0.0
H997 H 0.40783 0.98937 0.0593 0.0
C998 C 0.31132 0.8389 0.097 0.0
C999 C 0.28337 0.83662 0.08947 0.0
C1000 C 0.34035 0.86387 0.09015 0.0
C1001 C 0.34208 0.88729 0.0757 0.0
C1002 C 0.31384 0.88506 0.06853 0.0
C1003 C 0.28492 0.85993 0.0752 0.0
C1004 C 0.42834 0.9361 0.05599 0.0
C1005 C 0.43186 0.96472 0.05447 0.0
C1006 C 0.39933 0.91102 0.06276 0.0
C1007 C 0.37306 0.91391 0.06816 0.0
C1008 C 0.3767 0.94261 0.06647 0.0
C1009 C 0.40574 0.96761 0.05997 0.0
H1010 H 0.16222 0.45214 0.09284 0.0
H1011 H 0.22027 0.54004 0.06051 0.0
H1012 H 0.11615 0.45141 0.07827 0.0
H1013 H 0.17488 0.5383 0.04347 0.0
H1014 H 0.08392 0.54226 0.04226 0.0
H1015 H 0.13201 0.5425 0.05074 0.0
H1016 H 0.08598 0.44751 0.05077 0.0
H1017 H 0.03685 0.44745 0.04395 0.0
C1018 C 0.16494 0.4712 0.08235 0.0
C1019 C 0.19442 0.49632 0.07798 0.0
C1020 C 0.1387 0.47059 0.07355 0.0
C1021 C 0.14156 0.49477 0.05953 0.0
C1022 C 0.17151 0.5195 0.05453 0.0
C1023 C 0.19761 0.52046 0.064 0.0
C1024 C 0.08424 0.52154 0.04368 0.0
C1025 C 0.0569 0.49486 0.04224 0.0
C1026 C 0.112 0.52162 0.04845 0.0
C1027 C 0.11312 0.49499 0.05162 0.0
C1028 C 0.08591 0.46839 0.04907 0.0
C1029 C 0.05783 0.46827 0.04496 0.0
H1030 H 0.49932 0.70816 0.08198 0.0
H1031 H 0.5979 0.7361 0.07843 0.0
H1032 H 0.48802 0.66107 0.07028 0.0
H1033 H 0.58691 0.68906 0.06695 0.0
H1034 H 0.552 0.58912 0.07098 0.0
H1035 H 0.56289 0.63655 0.08132 0.0
H1036 H 0.49466 0.63952 0.03985 0.0
H1037 H 0.48333 0.59183 0.02976 0.0
C1038 C 0.51855 0.70427 0.07848 0.0
C1039 C 0.54945 0.72566 0.08119 0.0
C1040 C 0.51216 0.67733 0.07179 0.0
C1041 C 0.53654 0.67112 0.06778 0.0
C1042 C 0.5675 0.69282 0.07022 0.0
C1043 C 0.57385 0.71978 0.07677 0.0
C1044 C 0.5393 0.59984 0.06403 0.0
C1045 C 0.51694 0.58663 0.04937 0.0
C1046 C 0.5457 0.62719 0.06987 0.0
C1047 C 0.52976 0.64201 0.06137 0.0
C1048 C 0.50725 0.6287 0.04683 0.0
C1049 C 0.50097 0.60143 0.04088 0.0
H1050 H 0.79246 0.31476 0.98199 0.0
H1051 H 0.86486 0.29045 0.97984 0.0
H1052 H 0.82999 0.36239 0.99291 0.0
H1053 H 0.9025 0.33778 0.99074 0.0
H1054 H 0.96975 0.43723 0.98814 0.0
H1055 H 0.93144 0.38968 0.97808 0.0
H1056 H 0.8614 0.38661 0.02071 0.0
H1057 H 0.89943 0.4345 0.03029 0.0
C1058 C 0.81635 0.31951 0.98411 0.0
C1059 C 0.82574 0.29893 0.97994 0.0
C1060 C 0.83796 0.34683 0.99036 0.0
C1061 C 0.8696 0.35433 0.99259 0.0
C1062 C 0.87866 0.3333 0.98881 0.0
C1063 C 0.85705 0.30604 0.98263 0.0
C1064 C 0.94619 0.42649 0.99538 0.0
C1065 C 0.93798 0.43982 1.01024 0.0
C1066 C 0.92415 0.39897 0.98971 0.0
C1067 C 0.89312 0.38391 0.99862 0.0
C1068 C 0.88487 0.39743 0.01333 0.0
C1069 C 0.90691 0.4249 0.01903 0.0
H1070 H 0.73891 0.55845 1.00353 0.0
H1071 H 0.67774 0.48953 0.96822 0.0
H1072 H 0.69348 0.55689 0.02111 0.0
H1073 H 0.63213 0.48795 0.98536 0.0
H1074 H 0.55504 0.48018 0.02527 0.0
H1075 H 0.6022 0.47709 0.01928 0.0
H1076 H 0.65542 0.57245 1.00642 0.0
H1077 H 0.6079 0.57549 0.01327 0.0
C1078 C 0.71554 0.54255 0.99999 0.0
C1079 C 0.71127 0.52406 0.98473 0.0
C1080 C 0.68974 0.54176 1.00985 0.0
C1081 C 0.65941 0.52238 1.00452 0.0
C1082 C 0.65526 0.50283 0.98996 0.0
C1083 C 0.68111 0.50374 0.98009 0.0
C1084 C 0.57687 0.50052 0.02192 0.0
C1085 C 0.57797 0.52812 0.0201 0.0
C1086 C 0.60386 0.49871 0.01828 0.0
C1087 C 0.63234 0.52449 0.0123 0.0
C1088 C 0.63377 0.55223 0.01129 0.0
C1089 C 0.60667 0.55401 0.01502 0.0
H1090 H 0.50734 0.22322 0.96386 0.0
H1091 H 0.40817 0.16319 0.97091 0.0
H1092 H 0.51765 0.18239 0.97523 0.0
H1093 H 0.41805 0.122 0.98274 0.0
H1094 H 0.44932 0.05091 0.99023 0.0
H1095 H 0.43856 0.08995 0.97462 0.0
H1096 H 0.51317 0.1528 1.00777 0.0
H1097 H 0.52455 0.11422 0.02273 0.0
C1098 C 0.48778 0.20105 0.96756 0.0
C1099 C 0.45702 0.19623 0.96654 0.0
C1100 C 0.49358 0.17769 0.97431 0.0
C1101 C 0.4687 0.14885 0.98034 0.0
C1102 C 0.43783 0.14381 0.97818 0.0
C1103 C 0.43208 0.16729 0.97134 0.0
C1104 C 0.46343 0.07306 0.99421 0.0
C1105 C 0.4877 0.07925 1.00792 0.0
C1106 C 0.45714 0.09546 0.9853 0.0
C1107 C 0.47506 0.12469 0.98977 0.0
C1108 C 0.49917 0.13075 1.0036 0.0
C1109 C 0.50545 0.10842 0.01248 0.0
H1110 H 0.75659 0.17351 0.98268 0.0
H1111 H 0.70473 0.21903 0.96553 0.0
H1112 H 0.70778 0.12763 0.99338 0.0
H1113 H 0.65546 0.17305 0.97484 0.0
H1114 H 0.57148 0.09346 1.01038 0.0
H1115 H 0.62041 0.13903 1.00058 0.0
H1116 H 0.66371 0.08795 0.98456 0.0
H1117 H 0.61518 0.04248 0.99597 0.0
C1118 C 0.73451 0.17338 0.98083 0.0
C1119 C 0.73429 0.19961 0.97317 0.0
C1120 C 0.70635 0.14703 0.98686 0.0
C1121 C 0.67704 0.14605 0.98508 0.0
C1122 C 0.67716 0.17256 0.97698 0.0
C1123 C 0.70539 0.19898 0.97134 0.0
C1124 C 0.59165 0.09198 1.00519 0.0
C1125 C 0.58964 0.06421 1.00469 0.0
C1126 C 0.61981 0.11829 0.99912 0.0
C1127 C 0.64671 0.11776 0.99171 0.0
C1128 C 0.64418 0.08977 0.99065 0.0
C1129 C 0.61614 0.06349 0.99704 0.0
H1130 H 0.81406 0.50832 0.95709 0.0
H1131 H 0.82857 0.58449 0.98522 0.0
H1132 H 0.86321 0.51308 0.9701 0.0
H1133 H 0.87756 0.58928 0.99887 0.0
H1134 H 0.92673 0.50506 0.01663 0.0
H1135 H 0.87932 0.50486 1.00527 0.0
H1136 H 0.93109 0.59973 0.9881 0.0
H1137 H 0.97862 0.59998 1.00038 0.0
C1138 C 0.82837 0.52643 0.96572 0.0
C1139 C 0.81833 0.54628 0.97008 0.0
C1140 C 0.85606 0.52896 0.97343 0.0
C1141 C 0.87386 0.55127 0.9858 0.0
C1142 C 0.86435 0.57197 0.98934 0.0
C1143 C 0.83662 0.5694 0.98153 0.0
C1144 C 0.92786 0.52597 0.01107 0.0
C1145 C 0.95623 0.55259 1.00958 0.0
C1146 C 0.9008 0.52581 1.00423 0.0
C1147 C 0.90173 0.5522 0.99538 0.0
C1148 C 0.92975 0.57907 0.99486 0.0
C1149 C 0.95686 0.57922 1.00185 0.0
H1150 H 0.50518 0.30729 0.97854 0.0
H1151 H 0.40569 0.2751 0.98127 0.0
H1152 H 0.51337 0.35198 0.99271 0.0
H1153 H 0.41359 0.31977 0.99525 0.0
H1154 H 0.44455 0.41862 0.99529 0.0
H1155 H 0.43592 0.37288 0.98311 0.0
H1156 H 0.50375 0.36919 0.02467 0.0
H1157 H 0.51283 0.41528 0.03664 0.0
C1158 C 0.48508 0.30974 0.98238 0.0
C1159 C 0.45484 0.28787 0.97876 0.0
C1160 C 0.4897 0.33527 0.9905 0.0
C1161 C 0.46414 0.33956 0.99506 0.0
C1162 C 0.43384 0.31742 0.99162 0.0
C1163 C 0.42926 0.29185 0.98364 0.0
C1164 C 0.45759 0.40806 1.00192 0.0
C1165 C 0.47928 0.42065 0.01706 0.0
C1166 C 0.45248 0.38168 0.99501 0.0
C1167 C 0.46909 0.36727 1.00292 0.0
C1168 C 0.49073 0.3798 0.01811 0.0
C1169 C 0.4957 0.40611 0.02513 0.0
H1170 H 0.18585 0.70888 0.11043 0.0
H1171 H 0.19152 0.75953 0.05094 0.0
H1172 H 0.14623 0.66375 0.09766 0.0
H1173 H 0.15327 0.71401 0.03768 0.0
H1174 H 0.11077 0.61607 0.01953 0.0
H1175 H 0.14988 0.66195 0.03136 0.0
H1176 H 0.08806 0.64596 0.08488 0.0
H1177 H 0.0481 0.60079 0.0725 0.0
C1178 C 0.17868 0.71037 0.09461 0.0
C1179 C 0.19176 0.73793 0.08179 0.0
C1180 C 0.15606 0.6845 0.08727 0.0
C1181 C 0.14648 0.68529 0.06668 0.0
C1182 C 0.16024 0.71265 0.05359 0.0
C1183 C 0.18233 0.73869 0.06113 0.0
C1184 C 0.10503 0.62256 0.0335 0.0
C1185 C 0.07572 0.60478 0.04466 0.0
C1186 C 0.12766 0.64885 0.04038 0.0
C1187 C 0.12207 0.6577 0.05902 0.0
C1188 C 0.09311 0.63975 0.07046 0.0
C1189 C 0.07015 0.61383 0.06329 0.0
H1190 H 0.31689 0.51185 0.10336 0.0
H1191 H 0.25588 0.44449 0.06688 0.0
H1192 H 0.36182 0.50847 0.08993 0.0
H1193 H 0.30069 0.44102 0.05312 0.0
H1194 H 0.38994 0.42739 0.05498 0.0
H1195 H 0.34172 0.42701 0.06576 0.0
H1196 H 0.38925 0.52249 0.05362 0.0
H1197 H 0.43731 0.52283 0.04326 0.0
C1198 C 0.31326 0.49599 0.09274 0.0
C1199 C 0.28348 0.47861 0.0859 0.0
C1200 C 0.33878 0.49429 0.08484 0.0
C1201 C 0.33466 0.47494 0.07015 0.0
C1202 C 0.30442 0.45622 0.06432 0.0
C1203 C 0.27894 0.4581 0.07215 0.0
C1204 C 0.3897 0.44818 0.05414 0.0
C1205 C 0.41712 0.47509 0.04818 0.0
C1206 C 0.36224 0.44797 0.06031 0.0
C1207 C 0.36208 0.47474 0.06086 0.0
C1208 C 0.38903 0.50158 0.05369 0.0
C1209 C 0.41639 0.50176 0.04747 0.0
H1210 H 0.60352 0.85293 0.08567 0.0
H1211 H 0.50358 0.7968 0.09283 0.0
H1212 H 0.59649 0.89611 0.07503 0.0
H1213 H 0.49613 0.83962 0.08267 0.0
H1214 H 0.4927 0.91107 0.03729 0.0
H1215 H 0.50173 0.87076 0.05105 0.0
H1216 H 0.579 0.93009 0.08431 0.0
H1217 H 0.57061 0.97121 0.06971 0.0
C1218 C 0.58007 0.85005 0.0854 0.0
C1219 C 0.55406 0.82164 0.08992 0.0
C1220 C 0.57596 0.87471 0.0793 0.0
C1221 C 0.54571 0.87142 0.07764 0.0
C1222 C 0.51978 0.84303 0.08322 0.0
C1223 C 0.52394 0.81848 0.0892 0.0
C1224 C 0.5119 0.91582 0.04732 0.0
C1225 C 0.53114 0.94466 0.05213 0.0
C1226 C 0.51681 0.89242 0.05553 0.0
C1227 C 0.54094 0.89691 0.06902 0.0
C1228 C 0.56031 0.92577 0.07387 0.0
C1229 C 0.55541 0.94936 0.06557 0.0
H1230 H 0.97948 0.15357 0.43873 0.0
H1231 H 0.93118 0.19319 0.40384 0.0
H1232 H 0.03004 0.19744 0.42675 0.0
H1233 H 0.98142 0.23716 0.39168 0.0
H1234 H 0.0761 0.32315 0.3923 0.0
H1235 H 0.02564 0.27969 0.40393 0.0
H1236 H 0.0648 0.223 0.39453 0.0
H1237 H 0.11545 0.26673 0.38308 0.0
C1238 C 0.97981 0.17204 0.4288 0.0
C1239 C 0.95155 0.1704 0.42256 0.0
C1240 C 0.00871 0.19698 0.42166 0.0
C1241 C 0.01004 0.22101 0.40813 0.0
C1242 C 0.98149 0.21938 0.40224 0.0
C1243 C 0.95267 0.19431 0.40924 0.0
C1244 C 0.07379 0.30137 0.39247 0.0
C1245 C 0.09964 0.29844 0.38633 0.0
C1246 C 0.04481 0.27639 0.39911 0.0
C1247 C 0.04091 0.24763 0.40026 0.0
C1248 C 0.06687 0.24471 0.39409 0.0
C1249 C 0.09586 0.26978 0.38723 0.0
H1250 H 0.83725 0.79489 0.42888 0.0
H1251 H 0.89361 0.88115 0.39368 0.0
H1252 H 0.7907 0.79161 0.41326 0.0
H1253 H 0.84768 0.87684 0.37587 0.0
H1254 H 0.75462 0.87741 0.37428 0.0
H1255 H 0.80366 0.87997 0.38294 0.0
H1256 H 0.76124 0.78493 0.38464 0.0
H1257 H 0.71106 0.78253 0.37735 0.0
C1258 C 0.83947 0.81308 0.41762 0.0
C1259 C 0.86857 0.83851 0.4127 0.0
C1260 C 0.813 0.81096 0.40823 0.0
C1261 C 0.81529 0.8339 0.39315 0.0
C1262 C 0.84485 0.85898 0.3877 0.0
C1263 C 0.8712 0.86144 0.39767 0.0
C1264 C 0.75591 0.85716 0.37603 0.0
C1265 C 0.72926 0.82979 0.37496 0.0
C1266 C 0.78422 0.8586 0.38092 0.0
C1267 C 0.78655 0.83264 0.38467 0.0
C1268 C 0.76012 0.80532 0.38242 0.0
C1269 C 0.73149 0.80386 0.37808 0.0
H1270 H 0.26293 0.06937 0.41156 0.0
H1271 H 0.16438 0.04155 0.41572 0.0
H1272 H 0.25168 0.0224 0.39986 0.0
H1273 H 0.15281 0.99448 0.40383 0.0
H1274 H 0.14791 0.9256 0.36279 0.0
H1275 H 0.15932 0.97325 0.37305 0.0
H1276 H 0.22747 0.96991 0.41444 0.0
H1277 H 0.21655 0.92261 0.40394 0.0
C1278 C 0.23884 0.05307 0.40999 0.0
C1279 C 0.2145 0.05893 0.41464 0.0
C1280 C 0.23234 0.02618 0.40332 0.0
C1281 C 0.20131 1.00454 0.401 0.0
C1282 C 0.17699 1.01073 0.40525 0.0
C1283 C 0.18353 0.03761 0.41205 0.0
C1284 C 0.16555 0.93512 0.37393 0.0
C1285 C 0.18152 0.9203 0.38235 0.0
C1286 C 0.17187 0.96235 0.37997 0.0
C1287 C 0.19441 0.97551 0.39452 0.0
C1288 C 0.21029 0.96064 0.40298 0.0
C1289 C 0.20386 0.93336 0.39704 0.0
H1290 H 0.53436 0.62244 0.31431 0.0
H1291 H 0.46356 0.64906 0.31347 0.0
H1292 H 0.57235 0.66986 0.32495 0.0
H1293 H 0.50142 0.69673 0.32415 0.0
H1294 H 0.5701 0.7685 0.36202 0.0
H1295 H 0.53186 0.72074 0.35243 0.0
H1296 H 0.60262 0.72172 0.31168 0.0
H1297 H 0.64117 0.76923 0.32177 0.0
C1298 C 0.52698 0.63855 0.31639 0.0
C1299 C 0.49601 0.63207 0.31295 0.0
C1300 C 0.54878 0.66584 0.32241 0.0
C1301 C 0.54025 0.68751 0.32529 0.0
C1302 C 0.50895 0.68066 0.3223 0.0
C1303 C 0.48716 0.65333 0.31619 0.0
C1304 C 0.5777 0.75847 0.35117 0.0
C1305 C 0.60903 0.77277 0.34293 0.0
C1306 C 0.55554 0.73108 0.34546 0.0
C1307 C 0.56393 0.71703 0.33128 0.0
C1308 C 0.59523 0.73148 0.32289 0.0
C1309 C 0.6174 0.75895 0.32857 0.0
H1310 H 0.35074 0.83391 0.3031 0.0
H1311 H 0.40887 0.90729 0.33585 0.0
H1312 H 0.30379 0.83084 0.31933 0.0
H1313 H 0.36209 0.90414 0.35273 0.0
H1314 H 0.22479 0.81905 0.35874 0.0
H1315 H 0.27404 0.81959 0.35279 0.0
H1316 H 0.3211 0.915 0.33907 0.0
H1317 H 0.27166 0.91439 0.34609 0.0
C1318 C 0.35314 0.84897 0.31411 0.0
C1319 C 0.38275 0.87076 0.31842 0.0
C1320 C 0.32655 0.84716 0.32353 0.0
C1321 C 0.32942 0.8672 0.33738 0.0
C1322 C 0.35931 0.88857 0.34205 0.0
C1323 C 0.38586 0.89036 0.33255 0.0
C1324 C 0.24577 0.84017 0.35521 0.0
C1325 C 0.24465 0.86674 0.35317 0.0
C1326 C 0.27392 0.84046 0.35158 0.0
C1327 C 0.30124 0.86729 0.34528 0.0
C1328 C 0.30041 0.89401 0.34415 0.0
C1329 C 0.2722 0.8937 0.34799 0.0
H1330 H 0.14416 0.53095 0.27424 0.0
H1331 H 0.09704 0.51828 0.33424 0.0
H1332 H 0.1524 0.48854 0.2859 0.0
H1333 H 0.10662 0.47711 0.34625 0.0
H1334 H 0.17827 0.44241 0.3645 0.0
H1335 H 0.1642 0.47987 0.35076 0.0
H1336 H 0.11584 0.42817 0.30182 0.0
H1337 H 0.12859 0.38981 0.31607 0.0
C1338 C 0.13505 0.51874 0.28972 0.0
C1339 C 0.12024 0.52801 0.30343 0.0
C1340 C 0.13995 0.49468 0.29645 0.0
C1341 C 0.13054 0.4799 0.31708 0.0
C1342 C 0.11448 0.48838 0.33038 0.0
C1343 C 0.10903 0.51189 0.32353 0.0
C1344 C 0.16417 0.43861 0.35109 0.0
C1345 C 0.15407 0.41264 0.34178 0.0
C1346 C 0.15627 0.46022 0.34312 0.0
C1347 C 0.13884 0.45682 0.32528 0.0
C1348 C 0.12931 0.43131 0.31559 0.0
C1349 C 0.13654 0.40931 0.32387 0.0
H1350 H 0.37469 0.55415 0.30091 0.0
H1351 H 0.42492 0.50591 0.31329 0.0
H1352 H 0.32499 0.50861 0.31012 0.0
H1353 H 0.37578 0.46044 0.32388 0.0
H1354 H 0.28203 0.37701 0.32604 0.0
H1355 H 0.33075 0.42229 0.31497 0.0
H1356 H 0.29022 0.47347 0.3355 0.0
H1357 H 0.24084 0.42807 0.34492 0.0
C1358 C 0.37491 0.53361 0.30567 0.0
C1359 C 0.40349 0.53339 0.30617 0.0
C1360 C 0.34644 0.50742 0.31124 0.0
C1361 C 0.34574 0.48026 0.31794 0.0
C1362 C 0.37473 0.48038 0.31843 0.0
C1363 C 0.4031 0.5065 0.31244 0.0
C1364 C 0.28361 0.398 0.32816 0.0
C1365 C 0.25772 0.39878 0.33689 0.0
C1366 C 0.3118 0.42416 0.32198 0.0
C1367 C 0.31519 0.45212 0.3244 0.0
C1368 C 0.28893 0.45276 0.33297 0.0
C1369 C 0.26054 0.42655 0.33879 0.0
H1370 H 0.46385 0.83239 0.31576 0.0
H1371 H 0.51561 0.92693 0.29891 0.0
H1372 H 0.50988 0.83279 0.32986 0.0
H1373 H 0.56324 0.92723 0.30922 0.0
H1374 H 0.64086 0.92818 0.34551 0.0
H1375 H 0.59198 0.92642 0.33567 0.0
H1376 H 0.5554 0.83488 0.32561 0.0
H1377 H 0.60234 0.83618 0.33802 0.0
C1378 C 0.48554 0.85316 0.31445 0.0
C1379 C 0.48624 0.87956 0.30617 0.0
C1380 C 0.51223 0.85347 0.32225 0.0
C1381 C 0.54082 0.88012 0.3209 0.0
C1382 C 0.54174 0.90632 0.31129 0.0
C1383 C 0.51456 0.90611 0.30453 0.0
C1384 C 0.62171 0.90756 0.34181 0.0
C1385 C 0.62478 0.88212 0.34313 0.0
C1386 C 0.59388 0.90657 0.3357 0.0
C1387 C 0.56939 0.88058 0.32942 0.0
C1388 C 0.57288 0.85515 0.33082 0.0
C1389 C 0.60002 0.85581 0.33794 0.0
H1390 H 0.10735 0.60407 0.3401 0.0
H1391 H 0.15249 0.65544 0.28054 0.0
H1392 H 0.11592 0.64915 0.35388 0.0
H1393 H 0.15966 0.70033 0.29392 0.0
H1394 H 0.12678 0.76204 0.32014 0.0
H1395 H 0.12069 0.7176 0.30711 0.0
H1396 H 0.16504 0.69998 0.36076 0.0
H1397 H 0.17241 0.74512 0.37349 0.0
C1398 C 0.11929 0.62505 0.33003 0.0
C1399 C 0.12924 0.62627 0.30925 0.0
C1400 C 0.12407 0.65077 0.33786 0.0
C1401 C 0.13833 0.67818 0.32493 0.0
C1402 C 0.14832 0.67944 0.30416 0.0
C1403 C 0.14411 0.65379 0.29648 0.0
C1404 C 0.13528 0.7488 0.32925 0.0
C1405 C 0.14969 0.75709 0.34814 0.0
C1406 C 0.13186 0.72336 0.32169 0.0
C1407 C 0.14229 0.70531 0.33296 0.0
C1408 C 0.15648 0.71335 0.35187 0.0
C1409 C 0.16052 0.73916 0.35923 0.0
H1410 H 0.85946 0.09322 0.38424 0.0
H1411 H 0.85395 0.04275 0.44378 0.0
H1412 H 0.82138 0.04763 0.371 0.0
H1413 H 0.81457 0.99751 0.43101 0.0
H1414 H 0.7174 0.93301 0.40613 0.0
H1415 H 0.75685 0.97837 0.41857 0.0
H1416 H 0.81804 0.99656 0.36417 0.0
H1417 H 0.77945 0.95059 0.35221 0.0
C1418 C 0.85033 0.0724 0.39445 0.0
C1419 C 0.85978 0.07172 0.41511 0.0
C1420 C 0.82834 0.0463 0.38692 0.0
C1421 C 0.81471 0.01894 0.40001 0.0
C1422 C 0.82427 0.01824 0.42061 0.0
C1423 C 0.84677 0.04419 0.42795 0.0
C1424 C 0.7392 0.94659 0.39673 0.0
C1425 C 0.74474 0.93811 0.37783 0.0
C1426 C 0.76188 0.97262 0.40394 0.0
C1427 C 0.79053 0.99124 0.3923 0.0
C1428 C 0.79606 0.98296 0.37338 0.0
C1429 C 0.77372 0.95659 0.36643 0.0
H1430 H 0.99041 0.85113 0.4382 0.0
H1431 H 0.9246 0.78283 0.40425 0.0
H1432 H 0.03296 0.84443 0.42444 0.0
H1433 H 0.96705 0.77609 0.39011 0.0
H1434 H 0.05572 0.76079 0.3891 0.0
H1435 H 0.00866 0.76139 0.40152 0.0
H1436 H 0.05646 0.85663 0.3869 0.0
H1437 H 0.10323 0.85606 0.37506 0.0
C1438 C 0.98519 0.83427 0.42813 0.0
C1439 C 0.95483 0.81773 0.42194 0.0
C1440 C 0.00934 0.83066 0.42006 0.0
C1441 C 1.00321 0.81027 0.40583 0.0
C1442 C 0.97229 0.79209 0.40093 0.0
C1443 C 0.94818 0.79585 0.40896 0.0
C1444 C 0.05572 0.7817 0.38807 0.0
C1445 C 0.08295 0.80834 0.38106 0.0
C1446 C 0.02896 0.78205 0.39519 0.0
C1447 C 0.02939 0.80911 0.39557 0.0
C1448 C 0.05589 0.83554 0.38718 0.0
C1449 C 0.08252 0.83517 0.38009 0.0
H1450 H 0.16964 0.13098 0.42593 0.0
H1451 H 0.26973 0.18597 0.41828 0.0
H1452 H 0.1629 0.174 0.4148 0.0
H1453 H 0.26341 0.22932 0.40673 0.0
H1454 H 0.23857 0.30504 0.40045 0.0
H1455 H 0.24634 0.26385 0.41563 0.0
H1456 H 0.16923 0.20439 0.38231 0.0
H1457 H 0.16083 0.24493 0.36787 0.0
C1458 C 0.19018 0.15247 0.42203 0.0
C1459 C 0.22014 0.15528 0.42286 0.0
C1460 C 0.18642 0.1771 0.41549 0.0
C1461 C 0.21261 0.20517 0.40949 0.0
C1462 C 0.24271 0.20815 0.41131 0.0
C1463 C 0.24641 0.18341 0.41795 0.0
C1464 C 0.22329 0.28316 0.39638 0.0
C1465 C 0.19917 0.27846 0.38279 0.0
C1466 C 0.22783 0.25955 0.40502 0.0
C1467 C 0.20828 0.23066 0.40036 0.0
C1468 C 0.18441 0.22614 0.38663 0.0
C1469 C 0.17985 0.24961 0.37806 0.0
H1470 H 0.64786 0.48468 0.76974 0.0
H1471 H 0.59985 0.52961 0.74207 0.0
H1472 H 0.69855 0.52881 0.7588 0.0
H1473 H 0.6502 0.57373 0.73062 0.0
H1474 H 0.74551 0.6575 0.73082 0.0
H1475 H 0.69521 0.61387 0.74216 0.0
H1476 H 0.73328 0.55773 0.72846 0.0
H1477 H 0.78397 0.6017 0.71766 0.0
C1478 C 0.64832 0.50431 0.76158 0.0
C1479 C 0.62009 0.50407 0.75709 0.0
C1480 C 0.6773 0.52948 0.75499 0.0
C1481 C 0.6788 0.5551 0.74367 0.0
C1482 C 0.65027 0.55478 0.73952 0.0
C1483 C 0.62135 0.52957 0.7461 0.0
C1484 C 0.74303 0.63582 0.73006 0.0
C1485 C 0.7686 0.63315 0.72292 0.0
C1486 C 0.71407 0.61069 0.7365 0.0
C1487 C 0.70981 0.58197 0.73628 0.0
C1488 C 0.73555 0.57934 0.72914 0.0
C1489 C 0.76458 0.60457 0.72264 0.0
H1490 H 0.53317 0.2001 0.76133 0.0
H1491 H 0.51846 0.1273 0.72877 0.0
H1492 H 0.48877 0.20175 0.74478 0.0
H1493 H 0.47432 0.12898 0.71166 0.0
H1494 H 0.3724 0.11647 0.71623 0.0
H1495 H 0.42131 0.11698 0.72513 0.0
H1496 H 0.47118 0.21231 0.71053 0.0
H1497 H 0.42244 0.21176 0.70257 0.0
C1498 C 0.52055 0.18488 0.75029 0.0
C1499 C 0.5287 0.16369 0.74608 0.0
C1500 C 0.49545 0.18584 0.74074 0.0
C1501 C 0.47828 0.16551 0.7269 0.0
C1502 C 0.48709 0.14473 0.72236 0.0
C1503 C 0.51219 0.14381 0.73196 0.0
C1504 C 0.394 0.13738 0.71462 0.0
C1505 C 0.39384 0.164 0.70847 0.0
C1506 C 0.42192 0.13771 0.71954 0.0
C1507 C 0.4499 0.16474 0.71857 0.0
C1508 C 0.44985 0.19123 0.7116 0.0
C1509 C 0.42198 0.19088 0.70682 0.0
H1510 H 0.92656 0.4019 0.74969 0.0
H1511 H 0.82766 0.37203 0.75055 0.0
H1512 H 0.91777 0.35563 0.73772 0.0
H1513 H 0.81843 0.32561 0.7386 0.0
H1514 H 0.81808 0.25986 0.69684 0.0
H1515 H 0.82782 0.30654 0.70786 0.0
H1516 H 0.89425 0.30264 0.75067 0.0
H1517 H 0.885 0.25614 0.73932 0.0
C1518 C 0.90295 0.38532 0.74721 0.0
C1519 C 0.87779 0.39043 0.75081 0.0
C1520 C 0.89783 0.3588 0.7405 0.0
C1521 C 0.86737 0.33683 0.73717 0.0
C1522 C 0.84222 0.34216 0.74071 0.0
C1523 C 0.84739 0.36863 0.74755 0.0
C1524 C 0.83503 0.26904 0.70844 0.0
C1525 C 0.85097 0.25427 0.71702 0.0
C1526 C 0.84036 0.29572 0.71494 0.0
C1527 C 0.86184 0.30844 0.73017 0.0
C1528 C 0.87783 0.2937 0.73873 0.0
C1529 C 0.87237 0.2669 0.7323 0.0
H1530 H 0.13031 0.98406 0.64665 0.0
H1531 H 0.20171 0.95825 0.64668 0.0
H1532 H 0.16799 0.03177 0.65734 0.0
H1533 H 0.23951 1.00566 0.65741 0.0
H1534 H 0.30784 0.10495 0.65463 0.0
H1535 H 0.2695 0.05739 0.64458 0.0
H1536 H 0.19851 0.05612 0.68527 0.0
H1537 H 0.23655 0.10402 0.69478 0.0
C1538 C 0.15401 0.98851 0.6492 0.0
C1539 C 0.16308 0.96747 0.64572 0.0
C1540 C 0.17571 0.01587 0.65533 0.0
C1541 C 0.20712 0.02295 0.65814 0.0
C1542 C 0.21586 1.00149 0.65502 0.0
C1543 C 0.19416 0.9742 0.64895 0.0
C1544 C 0.28406 0.09459 0.66144 0.0
C1545 C 0.27559 0.10841 0.67575 0.0
C1546 C 0.26201 0.06708 0.65578 0.0
C1547 C 0.23069 0.05252 0.66415 0.0
C1548 C 0.2222 0.06654 0.67831 0.0
C1549 C 0.24425 0.094 0.68399 0.0
H1550 H 0.01003 0.15465 0.63749 0.0
H1551 H 0.07355 0.22764 0.66873 0.0
H1552 H 0.96544 0.15408 0.65523 0.0
H1553 H 0.02921 0.2269 0.68717 0.0
H1554 H 0.94297 0.24392 0.68128 0.0
H1555 H 0.99027 0.24073 0.67435 0.0
H1556 H 0.93721 0.14546 0.6887 0.0
H1557 H 0.89009 0.14869 0.69444 0.0
C1558 C 0.01414 0.17005 0.64859 0.0
C1559 C 0.04461 0.19115 0.65194 0.0
C1560 C 0.98889 0.16967 0.65887 0.0
C1561 C 0.99396 0.19046 0.67262 0.0
C1562 C 0.0247 0.21081 0.67656 0.0
C1563 C 0.0499 0.2112 0.66618 0.0
C1564 C 0.94174 0.22243 0.68336 0.0
C1565 C 0.91305 0.19661 0.68856 0.0
C1566 C 0.96874 0.22057 0.67959 0.0
C1567 C 0.96726 0.19278 0.68086 0.0
C1568 C 0.93889 0.16711 0.68735 0.0
C1569 C 0.91193 0.16899 0.69087 0.0
H1570 H 0.84368 0.89068 0.62924 0.0
H1571 H 0.74456 0.8328 0.64131 0.0
H1572 H 0.85355 0.84985 0.64179 0.0
H1573 H 0.75403 0.7916 0.65399 0.0
H1574 H 0.78358 0.71921 0.66102 0.0
H1575 H 0.7729 0.75817 0.64521 0.0
H1576 H 0.85047 0.82216 0.67569 0.0
H1577 H 0.86158 0.78347 0.69112 0.0
C1578 C 0.82401 0.869 0.63437 0.0
C1579 C 0.79342 0.86479 0.63446 0.0
C1580 C 0.82959 0.84566 0.64171 0.0
C1581 C 0.80463 0.81747 0.64929 0.0
C1582 C 0.77383 0.81293 0.64823 0.0
C1583 C 0.76831 0.8364 0.6409 0.0
C1584 C 0.79833 0.74157 0.66442 0.0
C1585 C 0.82339 0.74807 0.67748 0.0
C1586 C 0.79211 0.76392 0.65538 0.0
C1587 C 0.8109 0.79342 0.65902 0.0
C1588 C 0.83578 0.79983 0.67223 0.0
C1589 C 0.84194 0.7775 0.68132 0.0
H1590 H 0.09294 0.84156 0.64729 0.0
H1591 H 0.0417 0.88857 0.6336 0.0
H1592 H 0.04414 0.79604 0.65862 0.0
H1593 H 0.99234 0.84293 0.64351 0.0
H1594 H 0.909 0.76332 0.67953 0.0
H1595 H 0.9581 0.80866 0.66942 0.0
H1596 H 0.99914 0.75701 0.6506 0.0
H1597 H 0.95066 0.71182 0.66239 0.0
C1598 C 0.07097 0.84183 0.6463 0.0
C1599 C 0.07096 0.86841 0.63945 0.0
C1600 C 0.0428 0.81569 0.65271 0.0
C1601 C 0.01364 0.81522 0.6521 0.0
C1602 C 0.01394 0.84204 0.64477 0.0
C1603 C 0.04221 0.86827 0.63877 0.0
C1604 C 0.92876 0.76168 0.67368 0.0
C1605 C 0.92615 0.73382 0.67248 0.0
C1606 C 0.95699 0.78786 0.66743 0.0
C1607 C 0.9833 0.78709 0.65909 0.0
C1608 C 0.98014 0.75902 0.6574 0.0
C1609 C 0.9521 0.73289 0.66401 0.0
H1610 H 0.13031 0.15798 0.6445 0.0
H1611 H 0.17463 0.25252 0.62781 0.0
H1612 H 0.17834 0.16227 0.65767 0.0
H1613 H 0.22463 0.25696 0.63761 0.0
H1614 H 0.3042 0.26237 0.67549 0.0
H1615 H 0.25472 0.25802 0.6641 0.0
H1616 H 0.22541 0.16834 0.65228 0.0
H1617 H 0.27252 0.17198 0.66611 0.0
C1618 C 0.15085 0.17965 0.64311 0.0
C1619 C 0.14883 0.20487 0.6354 0.0
C1620 C 0.17873 0.18223 0.65033 0.0
C1621 C 0.20591 0.21008 0.64889 0.0
C1622 C 0.20423 0.2352 0.63969 0.0
C1623 C 0.17578 0.23266 0.63342 0.0
C1624 C 0.28642 0.24152 0.67111 0.0
C1625 C 0.29135 0.21709 0.6726 0.0
C1626 C 0.2583 0.2391 0.66411 0.0
C1627 C 0.23551 0.21271 0.65718 0.0
C1628 C 0.24131 0.18864 0.65821 0.0
C1629 C 0.26856 0.19066 0.66618 0.0
H1630 H 0.81303 0.98619 0.61474 0.0
H1631 H 0.77284 0.93625 0.67548 0.0
H1632 H 0.82032 0.03133 0.62783 0.0
H1633 H 0.78105 0.98153 0.68893 0.0
H1634 H 0.83701 0.07744 0.70762 0.0
H1635 H 0.82837 0.03181 0.69517 0.0
H1636 H 0.78446 0.0501 0.64149 0.0
H1637 H 0.79204 0.09525 0.65422 0.0
C1638 C 0.8059 0.98501 0.63092 0.0
C1639 C 0.79266 0.95791 0.64418 0.0
C1640 C 0.81 1.01074 0.63841 0.0
C1641 C 0.80131 1.00997 0.65942 0.0
C1642 C 0.78827 0.98286 0.67273 0.0
C1643 C 0.78367 0.95703 0.66511 0.0
C1644 C 0.82492 0.07154 0.69341 0.0
C1645 C 0.81476 0.08995 0.68219 0.0
C1646 C 0.82013 0.0454 0.68622 0.0
C1647 C 0.80571 0.03735 0.66737 0.0
C1648 C 0.79581 0.05582 0.65602 0.0
C1649 C 0.80008 0.08167 0.6634 0.0
H1650 H 0.52963 0.42825 0.71688 0.0
H1651 H 0.52002 0.37719 0.77693 0.0
H1652 H 0.49138 0.38312 0.70319 0.0
H1653 H 0.4806 0.33243 0.76366 0.0
H1654 H 0.38439 0.26961 0.73774 0.0
H1655 H 0.42421 0.31453 0.75039 0.0
H1656 H 0.48598 0.33165 0.69655 0.0
H1657 H 0.44686 0.2861 0.68432 0.0
C1658 C 0.51958 0.40738 0.72709 0.0
C1659 C 0.52788 0.40639 0.74803 0.0
C1660 C 0.49751 0.38155 0.7193 0.0
C1661 C 0.48269 0.35418 0.73238 0.0
C1662 C 0.49121 0.35318 0.75325 0.0
C1663 C 0.51374 0.37884 0.76087 0.0
C1664 C 0.40638 0.28286 0.7285 0.0
C1665 C 0.41195 0.27417 0.7097 0.0
C1666 C 0.42929 0.30863 0.73584 0.0
C1667 C 0.45825 0.32681 0.72444 0.0
C1668 C 0.46379 0.31837 0.70559 0.0
C1669 C 0.44117 0.29224 0.69849 0.0
H1670 H 0.60057 0.10512 0.76227 0.0
H1671 H 0.64951 0.20028 0.7502 0.0
H1672 H 0.64648 0.10401 0.74956 0.0
H1673 H 0.69361 0.19955 0.73398 0.0
H1674 H 0.78008 0.19309 0.72174 0.0
H1675 H 0.73594 0.19529 0.73578 0.0
H1676 H 0.6745 0.10652 0.72145 0.0
H1677 H 0.72014 0.10351 0.7099 0.0
C1678 C 0.6214 0.12585 0.75718 0.0
C1679 C 0.62172 0.15282 0.75743 0.0
C1680 C 0.64753 0.12528 0.74908 0.0
C1681 C 0.674 0.15163 0.74011 0.0
C1682 C 0.67429 0.17867 0.74093 0.0
C1683 C 0.6488 0.17921 0.75001 0.0
C1684 C 0.75704 0.17437 0.7211 0.0
C1685 C 0.75331 0.14834 0.71435 0.0
C1686 C 0.73141 0.17553 0.72922 0.0
C1687 C 0.70112 0.15099 0.73009 0.0
C1688 C 0.69735 0.12557 0.7219 0.0
C1689 C 0.72334 0.12396 0.71475 0.0
H1690 H 0.86759 0.4892 0.78333 0.0
H1691 H 0.91595 0.50055 0.72409 0.0
H1692 H 0.86434 0.53442 0.77209 0.0
H1693 H 0.91102 0.54457 0.71239 0.0
H1694 H 0.84146 0.58434 0.69586 0.0
H1695 H 0.85271 0.54486 0.70885 0.0
H1696 H 0.90828 0.59615 0.75595 0.0
H1697 H 0.89854 0.63681 0.74222 0.0
C1698 C 0.87789 0.50159 0.76806 0.0
C1699 C 0.89155 0.4911 0.75444 0.0
C1700 C 0.87593 0.52733 0.76161 0.0
C1701 C 0.88719 0.54274 0.74132 0.0
C1702 C 0.90192 0.53291 0.72804 0.0
C1703 C 0.9045 0.50764 0.73466 0.0
C1704 C 0.85669 0.58773 0.70863 0.0
C1705 C 0.86958 0.61423 0.71761 0.0
C1706 C 0.86293 0.56492 0.71617 0.0
C1707 C 0.88145 0.56755 0.73332 0.0
C1708 C 0.89395 0.59365 0.74267 0.0
C1709 C 0.88838 0.61691 0.73474 0.0
H1710 H 0.45989 0.87422 0.24934 0.0
H1711 H 0.4871 0.95052 0.28087 0.0
H1712 H 0.48684 0.90638 0.21665 0.0
H1713 H 0.51641 0.98302 0.24907 0.0
H1714 H 0.52295 0.03157 0.1845 0.0
H1715 H 0.50378 0.99977 0.21789 0.0
H1716 H 0.53203 0.94015 0.19586 0.0
H1717 H 0.54949 0.9715 0.16187 0.0
C1718 C 0.47288 0.89795 0.24933 0.0
C1719 C 0.47224 0.91015 0.26745 0.0
C1720 C 0.48835 0.91644 0.23071 0.0
C1721 C 0.50365 0.94747 0.23005 0.0
C1722 C 0.5043 0.95935 0.24873 0.0
C1723 C 0.48813 0.94088 0.26706 0.0
C1724 C 0.52526 1.01178 0.18694 0.0
C1725 C 0.53767 1.00392 0.17075 0.0
C1726 C 0.51452 0.99358 0.20615 0.0
C1727 C 0.51655 0.96736 0.20979 0.0
C1728 C 0.52966 0.95989 0.1936 0.0
C1729 C 0.53983 0.97787 0.17419 0.0
H1730 H 0.13737 0.57383 0.24315 0.0
H1731 H 0.0504 0.51834 0.2796 0.0
H1732 H 0.11218 0.55545 0.21113 0.0
H1733 H 0.02433 0.50051 0.24769 0.0
H1734 H 0.98608 0.464 0.18758 0.0
H1735 H 0.01614 0.47399 0.21877 0.0
H1736 H 0.07749 0.56337 0.18935 0.0
H1737 H 0.04784 0.55301 0.15807 0.0
C1738 C 0.11297 0.55694 0.24425 0.0
C1739 C 0.09584 0.54701 0.26371 0.0
C1740 C 0.09833 0.54678 0.22593 0.0
C1741 C 0.06598 0.52679 0.22662 0.0
C1742 C 0.04929 0.51562 0.24642 0.0
C1743 C 0.06412 0.52564 0.26477 0.0
C1744 C 0.00612 0.48574 0.18776 0.0
C1745 C 0.01444 0.50776 0.17034 0.0
C1746 C 0.02335 0.49151 0.20569 0.0
C1747 C 0.04928 0.51956 0.20679 0.0
C1748 C 0.05807 0.54132 0.18908 0.0
C1749 C 0.04098 0.53545 0.17109 0.0
H1750 H 0.42497 0.56432 0.25062 0.0
H1751 H 0.48038 0.53216 0.28477 0.0
H1752 H 0.43256 0.54538 0.21913 0.0
H1753 H 0.48735 0.51221 0.25382 0.0
H1754 H 0.53262 0.52059 0.19027 0.0
H1755 H 0.51791 0.53412 0.22157 0.0
H1756 H 0.42469 0.50457 0.20054 0.0
H1757 H 0.43979 0.49126 0.16879 0.0
C1758 C 0.43774 0.5521 0.25151 0.0
C1759 C 0.45179 0.54926 0.27005 0.0
C1760 C 0.44227 0.54137 0.2335 0.0
C1761 C 0.46108 0.52766 0.23371 0.0
C1762 C 0.47337 0.52324 0.25282 0.0
C1763 C 0.469 0.53415 0.27069 0.0
C1764 C 0.50891 0.51682 0.19231 0.0
C1765 C 0.48731 0.5045 0.17707 0.0
C1766 C 0.50036 0.52443 0.21039 0.0
C1767 C 0.46984 0.5199 0.21395 0.0
C1768 C 0.4484 0.5084 0.1984 0.0
C1769 C 0.45706 0.50083 0.18016 0.0
H1770 H 0.87456 0.44589 0.81732 0.0
H1771 H 0.95675 0.50038 0.77592 0.0
H1772 H 0.90335 0.46878 0.84724 0.0
H1773 H 0.98589 0.52373 0.80566 0.0
H1774 H 0.03494 0.51942 0.86654 0.0
H1775 H 0.00478 0.5041 0.83598 0.0
H1776 H 0.93134 0.51491 0.8639 0.0
H1777 H 0.96195 0.53102 0.8945 0.0
C1778 C 0.89864 0.4634 0.81467 0.0
C1779 C 0.91362 0.47152 0.79452 0.0
C1780 C 0.91513 0.47652 0.83171 0.0
C1781 C 0.94704 0.49785 0.82889 0.0
C1782 C 0.96146 0.50707 0.80841 0.0
C1783 C 0.94484 0.49405 0.79137 0.0
C1784 C 0.01261 0.51907 0.86611 0.0
C1785 C 1.00108 0.52672 0.88304 0.0
C1786 C 0.9953 0.51027 0.84852 0.0
C1787 C 0.96578 0.50857 0.84736 0.0
C1788 C 0.95397 0.5159 0.86433 0.0
C1789 C 0.97146 0.52497 0.88193 0.0
H1790 H 0.58302 0.45431 0.8165 0.0
H1791 H 0.56081 0.51503 0.77913 0.0
H1792 H 0.57234 0.46991 0.84868 0.0
H1793 H 0.55003 0.53093 0.81116 0.0
H1794 H 0.48492 0.5118 0.86956 0.0
H1795 H 0.50605 0.50399 0.83827 0.0
H1796 H 0.58543 0.51017 0.8713 0.0
H1797 H 0.56466 0.51899 0.9028 0.0
C1798 C 0.57714 0.47196 0.81525 0.0
C1799 C 0.5733 0.48392 0.79541 0.0
C1800 C 0.57078 0.48077 0.83364 0.0
C1801 C 0.55991 0.50143 0.83259 0.0
C1802 C 0.55797 0.5147 0.8126 0.0
C1803 C 0.56463 0.50604 0.79423 0.0
C1804 C 0.50717 0.51204 0.87022 0.0
C1805 C 0.5232 0.51656 0.88884 0.0
C1806 C 0.51934 0.50755 0.85215 0.0
C1807 C 0.54778 0.50697 0.85204 0.0
C1808 C 0.5635 0.51057 0.87077 0.0
C1809 C 0.55145 0.51543 0.88891 0.0
H1810 H 0.59977 0.15118 0.81565 0.0
H1811 H 0.54562 0.08164 0.77883 0.0
H1812 H 0.58581 0.11458 0.84705 0.0
H1813 H 0.53257 0.04468 0.8097 0.0
H1814 H 0.47148 1.00215 0.8716 0.0
H1815 H 0.49665 0.03409 0.83896 0.0
H1816 H 0.58584 0.07162 0.86706 0.0
H1817 H 0.56041 0.03948 0.89997 0.0
C1818 C 0.58621 0.12786 0.81419 0.0
C1819 C 0.57414 0.11893 0.79499 0.0
C1820 C 0.57808 0.10689 0.83209 0.0
C1821 C 0.55766 0.07671 0.83093 0.0
C1822 C 0.54786 0.06776 0.81122 0.0
C1823 C 0.5557 0.08873 0.79349 0.0
C1824 C 0.49656 0.01673 0.87072 0.0
C1825 C 0.5139 0.01831 0.88839 0.0
C1826 C 0.51108 0.03504 0.85196 0.0
C1827 C 0.54335 0.05535 0.85035 0.0
C1828 C 0.56091 0.0564 0.86785 0.0
C1829 C 0.54634 0.03805 0.88669 0.0
H1830 H 0.12579 0.27141 0.60503 0.0
H1831 H 0.14135 0.20199 0.58749 0.0
H1832 H 0.15449 0.30318 0.5727 0.0
H1833 H 0.17094 0.23411 0.55505 0.0
H1834 H 0.24415 0.31756 0.50818 0.0
H1835 H 0.22139 0.28663 0.54215 0.0
H1836 H 0.13855 0.29558 0.53427 0.0
H1837 H 0.16104 0.3261 0.50045 0.0
C1838 C 0.13562 0.26315 0.5942 0.0
C1839 C 0.13088 0.23421 0.59827 0.0
C1840 C 0.15204 0.28125 0.57582 0.0
C1841 C 0.16445 0.27086 0.56132 0.0
C1842 C 0.1615 0.24253 0.56602 0.0
C1843 C 0.14467 0.22424 0.58443 0.0
C1844 C 0.22113 0.31292 0.51383 0.0
C1845 C 0.2043 0.32418 0.50181 0.0
C1846 C 0.2081 0.29515 0.53311 0.0
C1847 C 0.17836 0.28893 0.54077 0.0
C1848 C 0.16166 0.3003 0.52875 0.0
C1849 C 0.17441 0.31759 0.5094 0.0
H1850 H 0.71118 0.85346 0.61342 0.0
H1851 H 0.80171 0.90097 0.58015 0.0
H1852 H 0.68691 0.83568 0.58105 0.0
H1853 H 0.77798 0.88289 0.54756 0.0
H1854 H 0.71777 0.88367 0.4915 0.0
H1855 H 0.74604 0.89359 0.52345 0.0
H1856 H 0.67961 0.80618 0.55354 0.0
H1857 H 0.65123 0.79645 0.52166 0.0
C1858 C 0.72592 0.85906 0.59922 0.0
C1859 C 0.7582 0.87815 0.59917 0.0
C1860 C 0.71213 0.84903 0.58063 0.0
C1861 C 0.7304 0.85803 0.56152 0.0
C1862 C 0.76308 0.87585 0.56185 0.0
C1863 C 0.7768 0.88584 0.5805 0.0
C1864 C 0.70952 0.86638 0.5048 0.0
C1865 C 0.682 0.83939 0.50403 0.0
C1866 C 0.72578 0.87203 0.52317 0.0
C1867 C 0.71506 0.85077 0.54125 0.0
C1868 C 0.68827 0.82331 0.54014 0.0
C1869 C 0.67198 0.81772 0.52181 0.0
H1870 H 0.09218 0.90049 0.58336 0.0
H1871 H 0.14661 0.86697 0.6173 0.0
H1872 H 0.09932 0.88154 0.55175 0.0
H1873 H 0.15314 0.84702 0.58622 0.0
H1874 H 0.19777 0.8547 0.52262 0.0
H1875 H 0.18368 0.86866 0.55394 0.0
H1876 H 0.09066 0.84065 0.53299 0.0
H1877 H 0.10515 0.8269 0.50121 0.0
C1878 C 0.10464 0.88799 0.58418 0.0
C1879 C 0.11852 0.88474 0.6027 0.0
C1880 C 0.10891 0.87725 0.56609 0.0
C1881 C 0.12731 0.86313 0.5662 0.0
C1882 C 0.13948 0.85837 0.58529 0.0
C1883 C 0.13534 0.86927 0.60324 0.0
C1884 C 0.17424 0.85139 0.52467 0.0
C1885 C 0.15251 0.83933 0.50945 0.0
C1886 C 0.16604 0.85924 0.54277 0.0
C1887 C 0.13574 0.85523 0.54638 0.0
C1888 C 0.1142 0.84407 0.53082 0.0
C1889 C 0.12251 0.83625 0.51256 0.0
H1890 H 0.63653 0.82463 0.10953 0.0
H1891 H 0.54809 0.79444 0.14314 0.0
H1892 H 0.66414 0.84593 0.14011 0.0
H1893 H 0.57526 0.81461 0.17433 0.0
H1894 H 0.63797 0.87036 0.22374 0.0
H1895 H 0.60955 0.85628 0.19193 0.0
H1896 H 0.67188 0.82512 0.17288 0.0
H1897 H 0.70025 0.83956 0.2042 0.0
C1898 C 0.62316 0.82326 0.12344 0.0
C1899 C 0.59041 0.80831 0.12409 0.0
C1900 C 0.6388 0.83498 0.14107 0.0
C1901 C 0.62196 0.83148 0.15994 0.0
C1902 C 0.58905 0.81789 0.16012 0.0
C1903 C 0.57344 0.80642 0.14231 0.0
C1904 C 0.64539 0.86034 0.21276 0.0
C1905 C 0.67159 0.85639 0.21639 0.0
C1906 C 0.62915 0.85231 0.19451 0.0
C1907 C 0.6387 0.84003 0.17956 0.0
C1908 C 0.66437 0.83537 0.18361 0.0
C1909 C 0.6806 0.8435 0.20169 0.0
H1910 H 0.22754 0.84777 0.11218 0.0
H1911 H 0.24682 0.78558 0.15036 0.0
H1912 H 0.21724 0.86458 0.14392 0.0
H1913 H 0.23668 0.80212 0.18223 0.0
H1914 H 0.23055 0.85269 0.23574 0.0
H1915 H 0.25098 0.84303 0.20448 0.0
H1916 H 0.17271 0.8386 0.17089 0.0
H1917 H 0.15184 0.84718 0.20194 0.0
C1918 C 0.23081 0.83861 0.12739 0.0
C1919 C 0.23843 0.81577 0.12889 0.0
C1920 C 0.22444 0.84781 0.14559 0.0
C1921 C 0.22572 0.83444 0.16571 0.0
C1922 C 0.23564 0.81307 0.16708 0.0
C1923 C 0.24167 0.8037 0.14887 0.0
C1924 C 0.21749 0.84935 0.22177 0.0
C1925 C 0.18963 0.85115 0.22149 0.0
C1926 C 0.22936 0.84401 0.20378 0.0
C1927 C 0.21386 0.84063 0.18497 0.0
C1928 C 0.18583 0.84196 0.18484 0.0
C1929 C 0.17382 0.8469 0.20278 0.0
H1930 H 0.22872 0.42355 0.11067 0.0
H1931 H 0.26332 0.49412 0.14885 0.0
H1932 H 0.21599 0.38736 0.14208 0.0
H1933 H 0.25012 0.45808 0.18053 0.0
H1934 H 0.23163 0.38427 0.23362 0.0
H1935 H 0.25743 0.41813 0.20145 0.0
H1936 H 0.17301 0.37232 0.16926 0.0
H1937 H 0.147 0.33905 0.20134 0.0
C1938 C 0.23462 0.43127 0.12581 0.0
C1939 C 0.24687 0.46137 0.12755 0.0
C1940 C 0.227 0.41065 0.14377 0.0
C1941 C 0.23155 0.41985 0.16377 0.0
C1942 C 0.24642 0.45032 0.16533 0.0
C1943 C 0.25396 0.47093 0.1473 0.0
C1944 C 0.21855 0.38144 0.21968 0.0
C1945 C 0.18711 0.35901 0.22014 0.0
C1946 C 0.23342 0.40074 0.20125 0.0
C1947 C 0.21731 0.3978 0.18283 0.0
C1948 C 0.18627 0.37481 0.1831 0.0
C1949 C 0.17133 0.35571 0.20153 0.0
H1950 H 0.79133 0.60907 0.94068 0.0
H1951 H 0.8144 0.54492 0.92164 0.0
H1952 H 0.82105 0.64372 0.90954 0.0
H1953 H 0.84496 0.57983 0.89056 0.0
H1954 H 0.91548 0.66368 0.8452 0.0
H1955 H 0.89306 0.6328 0.87919 0.0
H1956 H 0.80859 0.63877 0.87066 0.0
H1957 H 0.83081 0.66928 0.83677 0.0
C1958 C 0.8031 0.60263 0.92983 0.0
C1959 C 0.80021 0.57432 0.9331 0.0
C1960 C 0.82009 0.62236 0.91213 0.0
C1961 C 0.83491 0.61423 0.89758 0.0
C1962 C 0.83377 0.5866 0.9016 0.0
C1963 C 0.8164 0.5667 0.91926 0.0
C1964 C 0.89224 0.65853 0.85076 0.0
C1965 C 0.87479 0.66877 0.83848 0.0
C1966 C 0.87942 0.6408 0.87006 0.0
C1967 C 0.84922 0.63359 0.8775 0.0
C1968 C 0.83206 0.6443 0.86535 0.0
C1969 C 0.84464 0.66156 0.84596 0.0
H1970 H 0.37317 0.19247 0.94491 0.0
H1971 H 0.46438 0.22542 0.9145 0.0
H1972 H 0.34878 0.17537 0.91246 0.0
H1973 H 0.44031 0.20829 0.88169 0.0
H1974 H 0.38529 0.21739 0.82354 0.0
H1975 H 0.41292 0.22493 0.85584 0.0
H1976 H 0.33828 0.1419 0.88642 0.0
H1977 H 0.31078 0.13427 0.85417 0.0
C1978 C 0.38783 0.19497 0.93137 0.0
C1979 C 0.42048 0.20976 0.93215 0.0
C1980 C 0.37399 0.18533 0.91274 0.0
C1981 C 0.39256 0.1906 0.89433 0.0
C1982 C 0.42531 0.20412 0.89548 0.0
C1983 C 0.43911 0.21353 0.91426 0.0
C1984 C 0.37505 0.20044 0.83701 0.0
C1985 C 0.34554 0.17541 0.83625 0.0
C1986 C 0.39094 0.20475 0.85557 0.0
C1987 C 0.37773 0.18415 0.87386 0.0
C1988 C 0.34891 0.15849 0.87279 0.0
C1989 C 0.33309 0.15416 0.85426 0.0
H1990 H 0.80623 0.19647 0.9515 0.0
H1991 H 0.75839 0.23592 0.91585 0.0
H1992 H 0.81299 0.17648 0.92047 0.0
H1993 H 0.76572 0.21686 0.88436 0.0
H1994 H 0.76989 0.16139 0.83396 0.0
H1995 H 0.7552 0.17549 0.86548 0.0
H1996 H 0.84581 0.19792 0.8889 0.0
H1997 H 0.86016 0.18371 0.8578 0.0
C1998 C 0.79642 0.20008 0.93705 0.0
C1999 C 0.78139 0.21721 0.93601 0.0
C2000 C 0.80069 0.18914 0.91916 0.0
C2001 C 0.79042 0.19546 0.89968 0.0
C2002 C 0.7738 0.21133 0.89902 0.0
C2003 C 0.76942 0.22215 0.91702 0.0
C2004 C 0.78671 0.1696 0.84579 0.0
C2005 C 0.81607 0.17105 0.84343 0.0
C2006 C 0.77827 0.17761 0.8639 0.0
C2007 C 0.79904 0.18731 0.88005 0.0
C2008 C 0.82874 0.18966 0.87723 0.0
C2009 C 0.83708 0.18165 0.85926 0.0
H2010 H 0.30229 0.15755 0.44243 0.0
H2011 H 0.21436 0.12891 0.47622 0.0
H2012 H 0.33039 0.17912 0.4728 0.0
H2013 H 0.242 0.14938 0.5072 0.0
H2014 H 0.30574 0.20532 0.55611 0.0
H2015 H 0.27706 0.19128 0.5244 0.0
H2016 H 0.33783 0.15823 0.50568 0.0
H2017 H 0.36645 0.17261 0.53692 0.0
C2018 C 0.28915 0.15659 0.45633 0.0
C2019 C 0.2564 0.14198 0.45711 0.0
C2020 C 0.30506 0.16847 0.47383 0.0
C2021 C 0.28848 0.16547 0.49269 0.0
C2022 C 0.25559 0.15226 0.49298 0.0
C2023 C 0.23971 0.14062 0.4753 0.0
C2024 C 0.31277 0.1949 0.54523 0.0
C2025 C 0.3386 0.19038 0.54892 0.0
C2026 C 0.29639 0.18689 0.52704 0.0
C2027 C 0.30542 0.17408 0.51221 0.0
C2028 C 0.33074 0.16889 0.51632 0.0
C2029 C 0.34711 0.17699 0.53434 0.0
H2030 H 0.91456 0.11895 0.48346 0.0
H2031 H 0.89667 0.18231 0.44557 0.0
H2032 H 0.90514 0.13573 0.51544 0.0
H2033 H 0.88719 0.19942 0.47742 0.0
H2034 H 0.82341 0.18424 0.53567 0.0
H2035 H 0.84319 0.17486 0.5045 0.0
H2036 H 0.92033 0.17615 0.5379 0.0
H2037 H 0.90094 0.1865 0.5693 0.0
C2038 C 0.90985 0.13736 0.48205 0.0
C2039 C 0.90681 0.1497 0.46212 0.0
C2040 C 0.90424 0.14686 0.50033 0.0
C2041 C 0.89497 0.16869 0.49909 0.0
C2042 C 0.89386 0.18229 0.47901 0.0
C2043 C 0.89977 0.17291 0.46074 0.0
C2044 C 0.84491 0.18306 0.53644 0.0
C2045 C 0.86072 0.18665 0.55514 0.0
C2046 C 0.8563 0.17767 0.51843 0.0
C2047 C 0.88372 0.17525 0.51846 0.0
C2048 C 0.89918 0.17796 0.53726 0.0
C2049 C 0.88791 0.18371 0.55534 0.0
H2050 H 0.94024 0.84014 0.48325 0.0
H2051 H 0.89839 0.76591 0.44853 0.0
H2052 H 0.92766 0.8063 0.51608 0.0
H2053 H 0.88502 0.73184 0.48106 0.0
H2054 H 0.87091 0.67602 0.54352 0.0
H2055 H 0.89894 0.71114 0.51222 0.0
H2056 H 0.87748 0.77478 0.53474 0.0
H2057 H 0.84994 0.73998 0.56587 0.0
C2058 C 0.92919 0.81654 0.48272 0.0
C2059 C 0.92019 0.80538 0.46363 0.0
C2060 C 0.92167 0.79717 0.5014 0.0
C2061 C 0.9048 0.76634 0.50122 0.0
C2062 C 0.8982 0.75539 0.4818 0.0
C2063 C 0.90587 0.7748 0.46317 0.0
C2064 C 0.87226 0.69754 0.54172 0.0
C2065 C 0.8582 0.70524 0.55712 0.0
C2066 C 0.8884 0.71769 0.52387 0.0
C2067 C 0.8907 0.74588 0.52105 0.0
C2068 C 0.87691 0.75359 0.53662 0.0
C2069 C 0.86091 0.73355 0.55443 0.0
loop_
_geom_bond_atom_site_label_1
_geom_bond_atom_site_label_2
_geom_bond_distance
_geom_bond_site_symmetry_2
_ccdc_geom_bond_type
C0 N1 1.317 . S
C0 N2 1.348 . S
C0 C3 1.485 . S
N1 C0 1.317 . S
N1 N5 1.370 . S
N2 C0 1.348 . S
N2 C4 1.346 . S
C3 C0 1.485 . S
C3 H7 0.960 . S
C3 H8 0.961 . S
C3 H9 0.960 . S
C4 N2 1.346 . S
C4 N5 1.307 . S
C4 C6 1.486 . S
N5 N1 1.370 . S
N5 C4 1.307 . S
C6 C4 1.486 . S
C6 H10 0.960 . S
C6 H11 0.960 . S
C6 H12 0.959 . S
H7 C3 0.960 . S
H8 C3 0.961 . S
H9 C3 0.960 . S
H10 C6 0.960 . S
H11 C6 0.960 . S
H12 C6 0.959 . S
C13 N14 1.317 . S
C13 N15 1.348 . S
C13 C16 1.485 . S
N14 C13 1.317 . S
N14 N18 1.370 . S
N15 C13 1.348 . S
N15 C17 1.346 . S
C16 C13 1.485 . S
C16 H20 0.960 . S
C16 H21 0.961 . S
C16 H22 0.960 . S
C17 N15 1.346 . S
C17 N18 1.307 . S
C17 C19 1.486 . S
N18 N14 1.370 . S
N18 C17 1.307 . S
C19 C17 1.486 . S
C19 H23 0.960 . S
C19 H24 0.960 . S
C19 H25 0.959 . S
H20 C16 0.960 . S
H21 C16 0.961 . S
H22 C16 0.960 . S
H23 C19 0.960 . S
H24 C19 0.960 . S
H25 C19 0.959 . S
C26 N27 1.317 . S
C26 N28 1.348 . S
C26 C29 1.485 . S
N27 C26 1.317 . S
N27 N31 1.370 . S
N28 C26 1.348 . S
N28 C30 1.346 . S
C29 C26 1.485 . S
C29 H33 0.960 . S
C29 H34 0.961 . S
C29 H35 0.960 . S
C30 N28 1.346 . S
C30 N31 1.307 . S
C30 C32 1.486 . S
N31 N27 1.370 . S
N31 C30 1.307 . S
C32 C30 1.486 . S
C32 H36 0.960 . S
C32 H37 0.960 . S
C32 H38 0.959 . S
H33 C29 0.960 . S
H34 C29 0.961 . S
H35 C29 0.960 . S
H36 C32 0.960 . S
H37 C32 0.960 . S
H38 C32 0.959 . S
C39 N40 1.317 . S
C39 N41 1.348 . S
C39 C42 1.485 . S
N40 C39 1.317 . S
N40 N44 1.370 . S
N41 C39 1.348 . S
N41 C43 1.346 . S
C42 C39 1.485 . S
C42 H46 0.960 . S
C42 H47 0.961 . S
C42 H48 0.960 . S
C43 N41 1.346 . S
C43 N44 1.307 . S
C43 C45 1.486 . S
N44 N40 1.370 . S
N44 C43 1.307 . S
C45 C43 1.486 . S
C45 H49 0.960 . S
C45 H50 0.960 . S
C45 H51 0.959 . S
H46 C42 0.960 . S
H47 C42 0.961 . S
H48 C42 0.960 . S
H49 C45 0.960 . S
H50 C45 0.960 . S
H51 C45 0.959 . S
C52 N53 1.317 . S
C52 N54 1.348 . S
C52 C55 1.485 . S
N53 C52 1.317 . S
N53 N57 1.370 . S
N54 C52 1.348 . S
N54 C56 1.346 . S
C55 C52 1.485 . S
C55 H59 0.960 . S
C55 H60 0.961 . S
C55 H61 0.960 . S
C56 N54 1.346 . S
C56 N57 1.307 . S
C56 C58 1.486 . S
N57 N53 1.370 . S
N57 C56 1.307 . S
C58 C56 1.486 . S
C58 H62 0.960 . S
C58 H63 0.960 . S
C58 H64 0.959 . S
H59 C55 0.960 . S
H60 C55 0.961 . S
H61 C55 0.960 . S
H62 C58 0.960 . S
H63 C58 0.960 . S
H64 C58 0.959 . S
C65 N66 1.317 . S
C65 N67 1.348 . S
C65 C68 1.485 . S
N66 C65 1.317 . S
N66 N70 1.370 . S
N67 C65 1.348 . S
N67 C69 1.346 . S
C68 C65 1.485 . S
C68 H72 0.960 . S
C68 H73 0.961 . S
C68 H74 0.960 . S
C69 N67 1.346 . S
C69 N70 1.307 . S
C69 C71 1.486 . S
N70 N66 1.370 . S
N70 C69 1.307 . S
C71 C69 1.486 . S
C71 H75 0.960 . S
C71 H76 0.960 . S
C71 H77 0.959 . S
H72 C68 0.960 . S
H73 C68 0.961 . S
H74 C68 0.960 . S
H75 C71 0.960 . S
H76 C71 0.960 . S
H77 C71 0.959 . S
C78 N79 1.317 . S
C78 N80 1.348 . S
C78 C81 1.485 . S
N79 C78 1.317 . S
N79 N83 1.370 . S
N80 C78 1.348 . S
N80 C82 1.346 . S
C81 C78 1.485 . S
C81 H85 0.960 . S
C81 H86 0.961 . S
C81 H87 0.960 . S
C82 N80 1.346 . S
C82 N83 1.307 . S
C82 C84 1.486 . S
N83 N79 1.370 . S
N83 C82 1.307 . S
C84 C82 1.486 . S
C84 H88 0.960 . S
C84 H89 0.960 . S
C84 H90 0.959 . S
H85 C81 0.960 . S
H86 C81 0.961 . S
H87 C81 0.960 . S
H88 C84 0.960 . S
H89 C84 0.960 . S
H90 C84 0.959 . S
C91 N92 1.317 . S
C91 N93 1.348 . S
C91 C94 1.485 . S
N92 C91 1.317 . S
N92 N96 1.370 . S
N93 C91 1.348 . S
N93 C95 1.346 . S
C94 C91 1.485 . S
C94 H98 0.960 . S
C94 H99 0.961 . S
C94 H100 0.960 . S
C95 N93 1.346 . S
C95 N96 1.307 . S
C95 C97 1.486 . S
N96 N92 1.370 . S
N96 C95 1.307 . S
C97 C95 1.486 . S
C97 H101 0.960 . S
C97 H102 0.960 . S
C97 H103 0.959 . S
H98 C94 0.960 . S
H99 C94 0.961 . S
H100 C94 0.960 . S
H101 C97 0.960 . S
H102 C97 0.960 . S
H103 C97 0.959 . S
C104 N105 1.317 . S
C104 N106 1.348 . S
C104 C107 1.485 . S
N105 C104 1.317 . S
N105 N109 1.370 . S
N106 C104 1.348 . S
N106 C108 1.346 . S
C107 C104 1.485 . S
C107 H111 0.960 . S
C107 H112 0.961 . S
C107 H113 0.960 . S
C108 N106 1.346 . S
C108 N109 1.307 . S
C108 C110 1.486 . S
N109 N105 1.370 . S
N109 C108 1.307 . S
C110 C108 1.486 . S
C110 H114 0.960 . S
C110 H115 0.960 . S
C110 H116 0.959 . S
H111 C107 0.960 . S
H112 C107 0.961 . S
H113 C107 0.960 . S
H114 C110 0.960 . S
H115 C110 0.960 . S
H116 C110 0.959 . S
C117 N118 1.317 . S
C117 N119 1.348 . S
C117 C120 1.485 . S
N118 C117 1.317 . S
N118 N122 1.370 . S
N119 C117 1.348 . S
N119 C121 1.346 . S
C120 C117 1.485 . S
C120 H124 0.960 . S
C120 H125 0.934 1_556 S
C120 H126 0.960 . S
C121 N119 1.346 . S
C121 N122 1.307 . S
C121 C123 1.486 . S
N122 N118 1.370 . S
N122 C121 1.307 . S
C123 C121 1.486 . S
C123 H127 0.960 . S
C123 H128 0.960 . S
C123 H129 0.959 . S
H124 C120 0.960 . S
H125 C120 0.934 1_554 S
H126 C120 0.960 . S
H127 C123 0.960 . S
H128 C123 0.960 . S
H129 C123 0.959 . S
C130 N131 1.317 . S
C130 N132 1.348 . S
C130 C133 1.473 1_556 S
N131 C130 1.317 . S
N131 N135 1.370 . S
N132 C130 1.348 . S
N132 C134 1.346 . S
C133 C130 1.473 1_554 S
C133 H137 0.969 . S
C133 H138 0.966 . S
C133 H139 0.957 1_554 S
C134 N132 1.346 . S
C134 N135 1.307 . S
C134 C136 1.486 . S
N135 N131 1.370 . S
N135 C134 1.307 . S
C136 C134 1.486 . S
C136 H140 0.960 . S
C136 H141 0.960 . S
C136 H142 0.959 . S
H137 C133 0.969 . S
H138 C133 0.966 . S
H139 C133 0.957 1_556 S
H140 C136 0.960 . S
H141 C136 0.960 . S
H142 C136 0.959 . S
C143 N144 1.317 . S
C143 N145 1.348 . S
C143 C146 1.485 1_556 S
N144 C143 1.317 . S
N144 N148 1.370 . S
N145 C143 1.348 . S
N145 C147 1.346 . S
C146 C143 1.485 1_554 S
C146 H150 0.960 . S
C146 H151 0.961 . S
C146 H152 0.960 . S
C147 N145 1.346 . S
C147 N148 1.307 . S
C147 C149 1.486 . S
N148 N144 1.370 . S
N148 C147 1.307 . S
C149 C147 1.486 . S
C149 H153 0.960 . S
C149 H154 0.960 . S
C149 H155 0.959 . S
H150 C146 0.960 . S
H151 C146 0.961 . S
H152 C146 0.960 . S
H153 C149 0.960 . S
H154 C149 0.960 . S
H155 C149 0.959 . S
C156 N157 1.317 . S
C156 N158 1.348 . S
C156 C159 1.485 . S
N157 C156 1.317 . S
N157 N161 1.370 . S
N158 C156 1.348 . S
N158 C160 1.346 . S
C159 C156 1.485 . S
C159 H163 0.960 . S
C159 H164 0.961 . S
C159 H165 0.960 . S
C160 N158 1.346 . S
C160 N161 1.307 . S
C160 C162 1.486 . S
N161 N157 1.370 . S
N161 C160 1.307 . S
C162 C160 1.486 . S
C162 H166 0.960 . S
C162 H167 0.960 . S
C162 H168 0.959 . S
H163 C159 0.960 . S
H164 C159 0.961 . S
H165 C159 0.960 . S
H166 C162 0.960 . S
H167 C162 0.960 . S
H168 C162 0.959 . S
C169 N170 1.317 . S
C169 N171 1.348 . S
C169 C172 1.485 . S
N170 C169 1.317 . S
N170 N174 1.370 . S
N171 C169 1.348 . S
N171 C173 1.346 . S
C172 C169 1.485 . S
C172 H176 0.960 . S
C172 H177 0.961 . S
C172 H178 0.960 . S
C173 N171 1.346 . S
C173 N174 1.307 . S
C173 C175 1.486 . S
N174 N170 1.370 . S
N174 C173 1.307 . S
C175 C173 1.486 . S
C175 H179 0.960 . S
C175 H180 0.960 . S
C175 H181 0.959 . S
H176 C172 0.960 . S
H177 C172 0.961 . S
H178 C172 0.960 . S
H179 C175 0.960 . S
H180 C175 0.960 . S
H181 C175 0.959 . S
C182 N183 1.317 . S
C182 N184 1.348 . S
C182 C185 1.485 . S
N183 C182 1.317 . S
N183 N187 1.370 . S
N184 C182 1.348 . S
N184 C186 1.346 . S
C185 C182 1.485 . S
C185 H189 0.960 . S
C185 H190 0.961 . S
C185 H191 0.960 . S
C186 N184 1.346 . S
C186 N187 1.307 . S
C186 C188 1.486 . S
N187 N183 1.370 . S
N187 C186 1.307 . S
C188 C186 1.486 . S
C188 H192 0.960 . S
C188 H193 0.960 . S
C188 H194 0.959 . S
H189 C185 0.960 . S
H190 C185 0.961 . S
H191 C185 0.960 . S
H192 C188 0.960 . S
H193 C188 0.960 . S
H194 C188 0.959 . S
C195 N196 1.317 . S
C195 N197 1.348 . S
C195 C198 1.485 . S
N196 C195 1.317 . S
N196 N200 1.370 . S
N197 C195 1.348 . S
N197 C199 1.346 . S
C198 C195 1.485 . S
C198 H202 0.960 . S
C198 H203 0.961 . S
C198 H204 0.960 . S
C199 N197 1.346 . S
C199 N200 1.307 . S
C199 C201 1.486 . S
N200 N196 1.370 . S
N200 C199 1.307 . S
C201 C199 1.486 . S
C201 H205 0.960 . S
C201 H206 0.960 . S
C201 H207 0.959 . S
H202 C198 0.960 . S
H203 C198 0.961 . S
H204 C198 0.960 . S
H205 C201 0.960 . S
H206 C201 0.960 . S
H207 C201 0.959 . S
C208 N209 1.317 . S
C208 N210 1.348 . S
C208 C211 1.485 . S
N209 C208 1.317 . S
N209 N213 1.370 . S
N210 C208 1.348 . S
N210 C212 1.346 . S
C211 C208 1.485 . S
C211 H215 0.960 . S
C211 H216 0.961 . S
C211 H217 0.960 . S
C212 N210 1.346 . S
C212 N213 1.307 . S
C212 C214 1.486 . S
N213 N209 1.370 . S
N213 C212 1.307 . S
C214 C212 1.486 . S
C214 H218 0.960 . S
C214 H219 0.960 . S
C214 H220 0.959 . S
H215 C211 0.960 . S
H216 C211 0.961 . S
H217 C211 0.960 . S
H218 C214 0.960 . S
H219 C214 0.960 . S
H220 C214 0.959 . S
C221 N222 1.317 . S
C221 N223 1.348 . S
C221 C224 1.485 . S
N222 C221 1.317 . S
N222 N226 1.370 . S
N223 C221 1.348 . S
N223 C225 1.346 . S
C224 C221 1.485 . S
C224 H228 0.960 . S
C224 H229 0.961 . S
C224 H230 0.960 . S
C225 N223 1.346 . S
C225 N226 1.307 . S
C225 C227 1.486 . S
N226 N222 1.370 . S
N226 C225 1.307 . S
C227 C225 1.486 . S
C227 H231 0.960 . S
C227 H232 0.960 . S
C227 H233 0.959 . S
H228 C224 0.960 . S
H229 C224 0.961 . S
H230 C224 0.960 . S
H231 C227 0.960 . S
H232 C227 0.960 . S
H233 C227 0.959 . S
Eu234 N265 2.657 . S
Eu234 N272 2.609 . S
Eu234 O278 2.558 . S
Eu234 O279 2.612 1_566 S
Eu234 O281 2.339 1_565 S
Eu234 O282 2.563 1_565 S
Eu234 O283 2.419 1_565 S
Eu234 O285 2.380 1_556 S
Eu234 O286 2.432 1_556 S
Eu234 C298 2.848 1_565 S
C235 C238 1.429 . S
C235 C239 1.411 . S
C235 N242 1.377 . S
C236 C238 1.420 . S
C236 C240 1.423 . S
C236 C248 1.392 . S
C237 C239 1.420 . S
C237 C240 1.351 . S
C237 H260 0.931 . S
C238 C235 1.429 . S
C238 C236 1.420 . S
C238 N246 1.362 . S
C239 C235 1.411 . S
C239 C237 1.420 . S
C239 C244 1.395 . S
C240 C236 1.423 . S
C240 C237 1.351 . S
C240 H252 0.930 . S
C241 C243 1.400 . S
C241 C244 1.386 . S
C241 H253 0.930 . S
N242 C235 1.377 . S
N242 C243 1.321 . S
N242 Eu245 2.609 . S
C243 C241 1.400 . S
C243 N242 1.321 . S
C243 H250 0.930 . S
C244 C239 1.395 . S
C244 C241 1.386 . S
C244 H263 0.930 . S
Eu245 N242 2.609 . S
Eu245 N246 2.657 . S
Eu245 O279 2.380 . S
Eu245 O280 2.432 . S
Eu245 O284 2.558 . S
Eu245 O285 2.612 1_545 S
Eu245 O287 2.339 1_545 S
Eu245 O288 2.563 1_545 S
Eu245 O289 2.419 1_545 S
Eu245 C309 2.848 1_545 S
N246 C238 1.362 . S
N246 Eu245 2.657 . S
N246 C247 1.334 . S
C247 N246 1.334 . S
C247 C249 1.413 . S
C247 H254 0.929 . S
C248 C236 1.392 . S
C248 C249 1.367 . S
C248 H256 0.930 . S
C249 C247 1.413 . S
C249 C248 1.367 . S
C249 H251 0.930 . S
H250 C243 0.930 . S
H251 C249 0.930 . S
H252 C240 0.930 . S
H253 C241 0.930 . S
H254 C247 0.929 . S
H255 C269 0.930 . S
H256 C248 0.930 . S
H257 C275 0.930 . S
H258 C266 0.929 1_545 S
H259 C273 0.930 . S
H260 C237 0.931 . S
H261 C267 0.930 . S
H262 C300 0.930 . S
H263 C244 0.930 . S
H264 C299 0.931 . S
N265 Eu234 2.657 . S
N265 C266 1.334 . S
N265 C270 1.362 . S
C266 H258 0.929 1_565 S
C266 N265 1.334 . S
C266 C269 1.413 . S
C267 H261 0.930 . S
C267 C268 1.392 . S
C267 C269 1.367 . S
C268 C267 1.392 . S
C268 C270 1.420 . S
C268 C300 1.423 . S
C269 H255 0.930 . S
C269 C266 1.413 . S
C269 C267 1.367 . S
C270 N265 1.362 . S
C270 C268 1.420 . S
C270 C274 1.429 . S
H271 C276 0.930 . S
N272 Eu234 2.609 . S
N272 C274 1.377 . S
N272 C275 1.321 . S
C273 H259 0.930 . S
C273 C275 1.400 . S
C273 C276 1.386 . S
C274 C270 1.429 . S
C274 N272 1.377 . S
C274 C277 1.411 . S
C275 H257 0.930 . S
C275 N272 1.321 . S
C275 C273 1.400 . S
C276 H271 0.930 . S
C276 C273 1.386 . S
C276 C277 1.395 . S
C277 C274 1.411 . S
C277 C276 1.395 . S
C277 C299 1.420 . S
O278 Eu234 2.558 . S
O278 C298 1.257 1_565 S
O279 Eu234 2.612 1_544 S
O279 Eu245 2.380 . S
O279 C290 1.276 . S
O280 Eu245 2.432 . S
O280 C297 1.264 . S
O281 Eu234 2.339 1_545 S
O281 C297 1.254 1_556 S
O282 Eu234 2.563 1_545 S
O282 C290 1.235 1_556 S
O283 Eu234 2.419 1_545 S
O283 C298 1.249 . S
O284 Eu245 2.558 . S
O284 C309 1.257 1_545 S
O285 Eu234 2.380 1_554 S
O285 Eu245 2.612 1_565 S
O285 C301 1.276 . S
O286 Eu234 2.432 1_554 S
O286 C308 1.264 . S
O287 Eu245 2.339 1_565 S
O287 C308 1.254 . S
O288 Eu245 2.563 1_565 S
O288 C301 1.235 . S
O289 Eu245 2.419 1_565 S
O289 C309 1.249 . S
C290 O279 1.276 . S
C290 O282 1.235 1_554 S
C291 C293 1.393 . S
C291 C295 1.395 . S
C291 C298 1.492 . S
C292 C293 1.392 . S
C292 C294 1.386 . S
C293 C291 1.393 . S
C293 C292 1.392 . S
C293 H310 0.930 . S
C294 C292 1.386 . S
C294 C296 1.395 . S
C294 H311 0.930 . S
C295 C291 1.395 . S
C295 C296 1.379 . S
C295 H312 0.930 1_545 S
C296 C294 1.395 . S
C296 C295 1.379 . S
C296 H313 0.930 . S
C297 O280 1.264 . S
C297 O281 1.254 1_554 S
C298 Eu234 2.848 1_545 S
C298 O278 1.257 1_545 S
C298 O283 1.249 . S
C298 C291 1.492 . S
C299 H264 0.931 . S
C299 C277 1.420 . S
C299 C300 1.351 . S
C300 H262 0.930 . S
C300 C268 1.423 . S
C300 C299 1.351 . S
C301 O285 1.276 . S
C301 O288 1.235 . S
C302 C303 1.393 . S
C302 C306 1.395 . S
C302 C309 1.492 . S
C303 C302 1.393 . S
C303 C304 1.392 . S
C303 H314 0.930 . S
C304 C303 1.392 . S
C304 C305 1.386 . S
C305 C304 1.386 . S
C305 C307 1.395 . S
C305 H315 0.930 . S
C306 C302 1.395 . S
C306 C307 1.379 . S
C306 H316 0.930 1_565 S
C307 C305 1.395 . S
C307 C306 1.379 . S
C307 H317 0.930 . S
C308 O286 1.264 . S
C308 O287 1.254 . S
C309 Eu245 2.848 1_565 S
C309 O284 1.257 1_565 S
C309 O289 1.249 . S
C309 C302 1.492 . S
H310 C293 0.930 . S
H311 C294 0.930 . S
H312 C295 0.930 1_565 S
H313 C296 0.930 . S
H314 C303 0.930 . S
H315 C305 0.930 . S
H316 C306 0.930 1_545 S
H317 C307 0.930 . S
Eu318 N349 2.657 . S
Eu318 N356 2.609 . S
Eu318 O362 2.558 . S
Eu318 O363 2.612 1_456 S
Eu318 O365 2.339 1_455 S
Eu318 O366 2.563 1_455 S
Eu318 O367 2.419 . S
Eu318 O369 2.380 1_556 S
Eu318 O370 2.432 . S
Eu318 C382 2.848 . S
C319 C322 1.429 . S
C319 C323 1.411 . S
C319 N326 1.377 . S
C320 C322 1.420 . S
C320 C324 1.423 . S
C320 C332 1.392 . S
C321 C323 1.420 . S
C321 C324 1.351 . S
C321 H344 0.931 . S
C322 C319 1.429 . S
C322 C320 1.420 . S
C322 N330 1.362 . S
C323 C319 1.411 . S
C323 C321 1.420 . S
C323 C328 1.395 . S
C324 C320 1.423 . S
C324 C321 1.351 . S
C324 H336 0.930 . S
C325 C327 1.400 . S
C325 C328 1.386 . S
C325 H337 0.930 . S
N326 C319 1.377 . S
N326 C327 1.321 . S
N326 Eu329 2.609 . S
C327 C325 1.400 . S
C327 N326 1.321 . S
C327 H334 0.930 . S
C328 C323 1.395 . S
C328 C325 1.386 . S
C328 H347 0.930 . S
Eu329 N326 2.609 . S
Eu329 N330 2.657 . S
Eu329 O363 2.380 . S
Eu329 O364 2.432 . S
Eu329 O368 2.558 . S
Eu329 O369 2.612 1_655 S
Eu329 O371 2.339 1_655 S
Eu329 O372 2.563 1_655 S
Eu329 O373 2.419 1_655 S
Eu329 C393 2.848 . S
N330 C322 1.362 . S
N330 Eu329 2.657 . S
N330 C331 1.334 . S
C331 N330 1.334 . S
C331 C333 1.413 . S
C331 H338 0.929 . S
C332 C320 1.392 . S
C332 C333 1.367 . S
C332 H340 0.930 . S
C333 C331 1.413 . S
C333 C332 1.367 . S
C333 H335 0.930 . S
H334 C327 0.930 . S
H335 C333 0.930 . S
H336 C324 0.930 . S
H337 C325 0.930 . S
H338 C331 0.929 . S
H339 C353 0.930 . S
H340 C332 0.930 . S
H341 C359 0.930 . S
H342 C350 0.929 . S
H343 C357 0.930 . S
H344 C321 0.931 . S
H345 C351 0.930 . S
H346 C384 0.930 . S
H347 C328 0.930 . S
H348 C383 0.931 . S
N349 Eu318 2.657 . S
N349 C350 1.334 . S
N349 C354 1.362 . S
C350 H342 0.929 . S
C350 N349 1.334 . S
C350 C353 1.413 . S
C351 H345 0.930 . S
C351 C352 1.392 . S
C351 C353 1.367 . S
C352 C351 1.392 . S
C352 C354 1.420 . S
C352 C384 1.423 . S
C353 H339 0.930 . S
C353 C350 1.413 . S
C353 C351 1.367 . S
C354 N349 1.362 . S
C354 C352 1.420 . S
C354 C358 1.429 . S
H355 C360 0.930 . S
N356 Eu318 2.609 . S
N356 C358 1.377 . S
N356 C359 1.321 . S
C357 H343 0.930 . S
C357 C359 1.400 . S
C357 C360 1.386 . S
C358 C354 1.429 . S
C358 N356 1.377 . S
C358 C361 1.411 . S
C359 H341 0.930 . S
C359 N356 1.321 . S
C359 C357 1.400 . S
C360 H355 0.930 . S
C360 C357 1.386 . S
C360 C361 1.395 . S
C361 C358 1.411 . S
C361 C360 1.395 . S
C361 C383 1.420 . S
O362 Eu318 2.558 . S
O362 C382 1.257 . S
O363 Eu318 2.612 1_654 S
O363 Eu329 2.380 . S
O363 C374 1.276 1_554 S
O364 Eu329 2.432 . S
O364 C381 1.264 . S
O365 Eu318 2.339 1_655 S
O365 C381 1.254 1_556 S
O366 Eu318 2.563 1_655 S
O366 C374 1.235 . S
O367 Eu318 2.419 . S
O367 C382 1.249 . S
O368 Eu329 2.558 . S
O368 C393 1.257 . S
O369 Eu318 2.380 1_554 S
O369 Eu329 2.612 1_455 S
O369 C385 1.276 . S
O370 Eu318 2.432 . S
O370 C392 1.264 1_556 S
O371 Eu329 2.339 1_455 S
O371 C392 1.254 . S
O372 Eu329 2.563 1_455 S
O372 C385 1.235 . S
O373 Eu329 2.419 1_455 S
O373 C393 1.249 1_455 S
C374 O363 1.276 1_556 S
C374 O366 1.235 . S
C375 C377 1.393 1_455 S
C375 C379 1.395 . S
C375 C382 1.492 . S
C376 C377 1.392 . S
C376 C378 1.386 1_655 S
C377 C375 1.393 1_655 S
C377 C376 1.392 . S
C377 H394 0.930 . S
C378 C376 1.386 1_455 S
C378 C380 1.395 . S
C378 H395 0.930 . S
C379 C375 1.395 . S
C379 C380 1.379 . S
C379 H396 0.930 . S
C380 C378 1.395 . S
C380 C379 1.379 . S
C380 H397 0.930 . S
C381 O364 1.264 . S
C381 O365 1.254 1_554 S
C382 Eu318 2.848 . S
C382 O362 1.257 . S
C382 O367 1.249 . S
C382 C375 1.492 . S
C383 H348 0.931 . S
C383 C361 1.420 . S
C383 C384 1.351 . S
C384 H346 0.930 . S
C384 C352 1.423 . S
C384 C383 1.351 . S
C385 O369 1.276 . S
C385 O372 1.235 . S
C386 C387 1.393 1_655 S
C386 C390 1.395 . S
C386 C393 1.492 . S
C387 C386 1.393 1_455 S
C387 C388 1.392 . S
C387 H398 0.930 . S
C388 C387 1.392 . S
C388 C389 1.386 . S
C389 C388 1.386 . S
C389 C391 1.395 1_455 S
C389 H399 0.930 . S
C390 C386 1.395 . S
C390 C391 1.379 . S
C390 H400 0.930 . S
C391 C389 1.395 1_655 S
C391 C390 1.379 . S
C391 H401 0.930 . S
C392 O370 1.264 1_554 S
C392 O371 1.254 . S
C393 Eu329 2.848 . S
C393 O368 1.257 . S
C393 O373 1.249 1_655 S
C393 C386 1.492 . S
H394 C377 0.930 . S
H395 C378 0.930 . S
H396 C379 0.930 . S
H397 C380 0.930 . S
H398 C387 0.930 . S
H399 C389 0.930 . S
H400 C390 0.930 . S
H401 C391 0.930 . S
Eu402 N433 2.657 . S
Eu402 N440 2.609 . S
Eu402 O446 2.558 . S
Eu402 O447 2.612 . S
Eu402 O449 2.339 . S
Eu402 O450 2.563 . S
Eu402 O451 2.419 . S
Eu402 O453 2.380 . S
Eu402 O454 2.432 . S
Eu402 C466 2.848 . S
C403 C406 1.429 . S
C403 C407 1.411 . S
C403 N410 1.377 . S
C404 C406 1.420 . S
C404 C408 1.423 . S
C404 C416 1.392 . S
C405 C407 1.420 . S
C405 C408 1.351 . S
C405 H428 0.931 . S
C406 C403 1.429 . S
C406 C404 1.420 . S
C406 N414 1.362 . S
C407 C403 1.411 . S
C407 C405 1.420 . S
C407 C412 1.395 . S
C408 C404 1.423 . S
C408 C405 1.351 . S
C408 H420 0.930 . S
C409 C411 1.400 . S
C409 C412 1.386 . S
C409 H421 0.930 . S
N410 C403 1.377 . S
N410 C411 1.321 . S
N410 Eu413 2.614 . S
C411 C409 1.400 . S
C411 N410 1.321 . S
C411 H418 0.930 . S
C412 C407 1.395 . S
C412 C409 1.386 . S
C412 H431 0.930 . S
Eu413 N410 2.614 . S
Eu413 N414 2.660 . S
Eu413 O447 2.360 1_556 S
Eu413 O448 2.420 1_556 S
Eu413 O452 2.577 . S
Eu413 O453 2.599 1_556 S
Eu413 O455 2.336 1_556 S
Eu413 O456 2.568 . S
Eu413 O457 2.440 . S
Eu413 C477 2.870 . S
N414 C406 1.362 . S
N414 Eu413 2.660 . S
N414 C415 1.334 1_556 S
C415 N414 1.334 1_554 S
C415 C417 1.418 . S
C415 H422 0.929 . S
C416 C404 1.392 . S
C416 C417 1.357 1_556 S
C416 H424 0.930 . S
C417 C415 1.418 . S
C417 C416 1.357 1_554 S
C417 H419 0.938 . S
H418 C411 0.930 . S
H419 C417 0.938 . S
H420 C408 0.930 . S
H421 C409 0.930 . S
H422 C415 0.929 . S
H423 C437 0.930 . S
H424 C416 0.930 . S
H425 C443 0.930 . S
H426 C434 0.929 . S
H427 C441 0.930 . S
H428 C405 0.931 . S
H429 C435 0.930 . S
H430 C468 0.930 . S
H431 C412 0.930 . S
H432 C467 0.931 . S
N433 Eu402 2.657 . S
N433 C434 1.334 . S
N433 C438 1.362 . S
C434 H426 0.929 . S
C434 N433 1.334 . S
C434 C437 1.413 . S
C435 H429 0.930 . S
C435 C436 1.392 . S
C435 C437 1.367 . S
C436 C435 1.392 . S
C436 C438 1.420 . S
C436 C468 1.423 . S
C437 H423 0.930 . S
C437 C434 1.413 . S
C437 C435 1.367 . S
C438 N433 1.362 . S
C438 C436 1.420 . S
C438 C442 1.429 . S
H439 C444 0.930 . S
N440 Eu402 2.609 . S
N440 C442 1.377 . S
N440 C443 1.321 . S
C441 H427 0.930 . S
C441 C443 1.400 . S
C441 C444 1.386 . S
C442 C438 1.429 . S
C442 N440 1.377 . S
C442 C445 1.411 . S
C443 H425 0.930 . S
C443 N440 1.321 . S
C443 C441 1.400 . S
C444 H439 0.930 . S
C444 C441 1.386 . S
C444 C445 1.395 . S
C445 C442 1.411 . S
C445 C444 1.395 . S
C445 C467 1.420 . S
O446 Eu402 2.558 . S
O446 C466 1.257 . S
O447 Eu402 2.612 . S
O447 Eu413 2.360 1_554 S
O447 C458 1.276 . S
O448 Eu413 2.420 1_554 S
O448 C465 1.264 . S
O449 Eu402 2.339 . S
O449 C465 1.254 . S
O450 Eu402 2.563 . S
O450 C458 1.235 . S
O451 Eu402 2.419 . S
O451 C466 1.249 . S
O452 Eu413 2.577 . S
O452 C477 1.257 . S
O453 Eu402 2.380 . S
O453 Eu413 2.599 1_554 S
O453 C469 1.276 . S
O454 Eu402 2.432 . S
O454 C476 1.264 . S
O455 Eu413 2.336 1_554 S
O455 C476 1.254 . S
O456 Eu413 2.568 . S
O456 C469 1.235 1_556 S
O457 Eu413 2.440 . S
O457 C477 1.249 . S
C458 O447 1.276 . S
C458 O450 1.235 . S
C459 C461 1.393 . S
C459 C463 1.395 . S
C459 C466 1.492 . S
C460 C461 1.392 . S
C460 C462 1.386 . S
C461 C459 1.393 . S
C461 C460 1.392 . S
C461 H478 0.930 . S
C462 C460 1.386 . S
C462 C464 1.395 . S
C462 H479 0.930 . S
C463 C459 1.395 . S
C463 C464 1.379 . S
C463 H480 0.930 . S
C464 C462 1.395 . S
C464 C463 1.379 . S
C464 H481 0.930 . S
C465 O448 1.264 . S
C465 O449 1.254 . S
C466 Eu402 2.848 . S
C466 O446 1.257 . S
C466 O451 1.249 . S
C466 C459 1.492 . S
C467 H432 0.931 . S
C467 C445 1.420 . S
C467 C468 1.351 . S
C468 H430 0.930 . S
C468 C436 1.423 . S
C468 C467 1.351 . S
C469 O453 1.276 . S
C469 O456 1.235 1_554 S
C470 C471 1.393 . S
C470 C474 1.395 . S
C470 C477 1.492 . S
C471 C470 1.393 . S
C471 C472 1.392 . S
C471 H482 0.930 . S
C472 C471 1.392 . S
C472 C473 1.386 . S
C473 C472 1.386 . S
C473 C475 1.395 . S
C473 H483 0.930 . S
C474 C470 1.395 . S
C474 C475 1.379 . S
C474 H484 0.930 . S
C475 C473 1.395 . S
C475 C474 1.379 . S
C475 H485 0.930 . S
C476 O454 1.264 . S
C476 O455 1.254 . S
C477 Eu413 2.870 . S
C477 O452 1.257 . S
C477 O457 1.249 . S
C477 C470 1.492 . S
H478 C461 0.930 . S
H479 C462 0.930 . S
H480 C463 0.930 . S
H481 C464 0.930 . S
H482 C471 0.930 . S
H483 C473 0.930 . S
H484 C474 0.930 . S
H485 C475 0.930 . S
Eu486 N517 2.657 . S
Eu486 N524 2.609 . S
Eu486 O530 2.558 . S
Eu486 O531 2.612 . S
Eu486 O533 2.339 . S
Eu486 O534 2.563 . S
Eu486 O535 2.419 . S
Eu486 O537 2.380 . S
Eu486 O538 2.432 . S
Eu486 C550 2.848 . S
C487 C490 1.429 . S
C487 C491 1.411 . S
C487 N494 1.377 . S
C488 C490 1.420 . S
C488 C492 1.423 . S
C488 C500 1.392 . S
C489 C491 1.420 . S
C489 C492 1.351 . S
C489 H512 0.931 . S
C490 C487 1.429 . S
C490 C488 1.420 . S
C490 N498 1.362 . S
C491 C487 1.411 . S
C491 C489 1.420 . S
C491 C496 1.395 . S
C492 C488 1.423 . S
C492 C489 1.351 . S
C492 H504 0.930 . S
C493 C495 1.400 . S
C493 C496 1.386 . S
C493 H505 0.930 . S
N494 C487 1.377 . S
N494 C495 1.321 . S
N494 Eu497 2.609 . S
C495 C493 1.400 . S
C495 N494 1.321 . S
C495 H502 0.930 . S
C496 C491 1.395 . S
C496 C493 1.386 . S
C496 H515 0.930 . S
Eu497 N494 2.609 . S
Eu497 N498 2.657 . S
Eu497 O531 2.380 . S
Eu497 O532 2.432 . S
Eu497 O536 2.558 . S
Eu497 O537 2.612 . S
Eu497 O539 2.339 . S
Eu497 O540 2.563 . S
Eu497 O541 2.419 . S
Eu497 C561 2.848 . S
N498 C490 1.362 . S
N498 Eu497 2.657 . S
N498 C499 1.334 . S
C499 N498 1.334 . S
C499 C501 1.413 . S
C499 H506 0.929 . S
C500 C488 1.392 . S
C500 C501 1.367 . S
C500 H508 0.930 . S
C501 C499 1.413 . S
C501 C500 1.367 . S
C501 H503 0.930 . S
H502 C495 0.930 . S
H503 C501 0.930 . S
H504 C492 0.930 . S
H505 C493 0.930 . S
H506 C499 0.929 . S
H507 C521 0.930 . S
H508 C500 0.930 . S
H509 C527 0.930 . S
H510 C518 0.929 . S
H511 C525 0.930 . S
H512 C489 0.931 . S
H513 C519 0.930 . S
H514 C552 0.930 . S
H515 C496 0.930 . S
H516 C551 0.931 . S
N517 Eu486 2.657 . S
N517 C518 1.334 . S
N517 C522 1.362 . S
C518 H510 0.929 . S
C518 N517 1.334 . S
C518 C521 1.413 . S
C519 H513 0.930 . S
C519 C520 1.392 . S
C519 C521 1.367 . S
C520 C519 1.392 . S
C520 C522 1.420 . S
C520 C552 1.423 . S
C521 H507 0.930 . S
C521 C518 1.413 . S
C521 C519 1.367 . S
C522 N517 1.362 . S
C522 C520 1.420 . S
C522 C526 1.429 . S
H523 C528 0.930 . S
N524 Eu486 2.609 . S
N524 C526 1.377 . S
N524 C527 1.321 . S
C525 H511 0.930 . S
C525 C527 1.400 . S
C525 C528 1.386 . S
C526 C522 1.429 . S
C526 N524 1.377 . S
C526 C529 1.411 . S
C527 H509 0.930 . S
C527 N524 1.321 . S
C527 C525 1.400 . S
C528 H523 0.930 . S
C528 C525 1.386 . S
C528 C529 1.395 . S
C529 C526 1.411 . S
C529 C528 1.395 . S
C529 C551 1.420 . S
O530 Eu486 2.558 . S
O530 C550 1.257 . S
O531 Eu486 2.612 . S
O531 Eu497 2.380 . S
O531 C542 1.276 . S
O532 Eu497 2.432 . S
O532 C549 1.264 . S
O533 Eu486 2.339 . S
O533 C549 1.254 . S
O534 Eu486 2.563 . S
O534 C542 1.235 . S
O535 Eu486 2.419 . S
O535 C550 1.249 . S
O536 Eu497 2.558 . S
O536 C561 1.257 . S
O537 Eu486 2.380 . S
O537 Eu497 2.612 . S
O537 C553 1.276 . S
O538 Eu486 2.432 . S
O538 C560 1.264 . S
O539 Eu497 2.339 . S
O539 C560 1.254 . S
O540 Eu497 2.563 . S
O540 C553 1.235 . S
O541 Eu497 2.419 . S
O541 C561 1.249 . S
C542 O531 1.276 . S
C542 O534 1.235 . S
C543 C545 1.393 . S
C543 C547 1.395 . S
C543 C550 1.492 . S
C544 C545 1.392 . S
C544 C546 1.386 . S
C545 C543 1.393 . S
C545 C544 1.392 . S
C545 H562 0.930 . S
C546 C544 1.386 . S
C546 C548 1.395 . S
C546 H563 0.930 . S
C547 C543 1.395 . S
C547 C548 1.379 . S
C547 H564 0.930 . S
C548 C546 1.395 . S
C548 C547 1.379 . S
C548 H565 0.930 . S
C549 O532 1.264 . S
C549 O533 1.254 . S
C550 Eu486 2.848 . S
C550 O530 1.257 . S
C550 O535 1.249 . S
C550 C543 1.492 . S
C551 H516 0.931 . S
C551 C529 1.420 . S
C551 C552 1.351 . S
C552 H514 0.930 . S
C552 C520 1.423 . S
C552 C551 1.351 . S
C553 O537 1.276 . S
C553 O540 1.235 . S
C554 C555 1.393 . S
C554 C558 1.395 . S
C554 C561 1.492 . S
C555 C554 1.393 . S
C555 C556 1.392 . S
C555 H566 0.930 . S
C556 C555 1.392 . S
C556 C557 1.386 . S
C557 C556 1.386 . S
C557 C559 1.395 . S
C557 H567 0.930 . S
C558 C554 1.395 . S
C558 C559 1.379 . S
C558 H568 0.930 . S
C559 C557 1.395 . S
C559 C558 1.379 . S
C559 H569 0.930 . S
C560 O538 1.264 . S
C560 O539 1.254 . S
C561 Eu497 2.848 . S
C561 O536 1.257 . S
C561 O541 1.249 . S
C561 C554 1.492 . S
H562 C545 0.930 . S
H563 C546 0.930 . S
H564 C547 0.930 . S
H565 C548 0.930 . S
H566 C555 0.930 . S
H567 C557 0.930 . S
H568 C558 0.930 . S
H569 C559 0.930 . S
Eu570 N601 2.657 . S
Eu570 N608 2.609 . S
Eu570 O614 2.558 . S
Eu570 O615 2.612 . S
Eu570 O617 2.339 . S
Eu570 O618 2.563 . S
Eu570 O619 2.419 . S
Eu570 O621 2.380 . S
Eu570 O622 2.432 . S
Eu570 C634 2.848 . S
C571 C574 1.429 . S
C571 C575 1.411 . S
C571 N578 1.377 . S
C572 C574 1.420 . S
C572 C576 1.423 . S
C572 C584 1.392 . S
C573 C575 1.420 . S
C573 C576 1.351 . S
C573 H596 0.931 . S
C574 C571 1.429 . S
C574 C572 1.420 . S
C574 N582 1.362 . S
C575 C571 1.411 . S
C575 C573 1.420 . S
C575 C580 1.395 . S
C576 C572 1.423 . S
C576 C573 1.351 . S
C576 H588 0.930 . S
C577 C579 1.400 . S
C577 C580 1.386 . S
C577 H589 0.930 . S
N578 C571 1.377 . S
N578 C579 1.321 . S
N578 Eu581 2.609 . S
C579 C577 1.400 . S
C579 N578 1.321 . S
C579 H586 0.930 . S
C580 C575 1.395 . S
C580 C577 1.386 . S
C580 H599 0.930 . S
Eu581 N578 2.609 . S
Eu581 N582 2.657 . S
Eu581 O615 2.380 . S
Eu581 O616 2.432 . S
Eu581 O620 2.558 . S
Eu581 O621 2.612 . S
Eu581 O623 2.339 . S
Eu581 O624 2.563 . S
Eu581 O625 2.419 . S
Eu581 C645 2.848 . S
N582 C574 1.362 . S
N582 Eu581 2.657 . S
N582 C583 1.334 . S
C583 N582 1.334 . S
C583 C585 1.413 . S
C583 H590 0.929 . S
C584 C572 1.392 . S
C584 C585 1.367 . S
C584 H592 0.930 . S
C585 C583 1.413 . S
C585 C584 1.367 . S
C585 H587 0.930 . S
H586 C579 0.930 . S
H587 C585 0.930 . S
H588 C576 0.930 . S
H589 C577 0.930 . S
H590 C583 0.929 . S
H591 C605 0.930 . S
H592 C584 0.930 . S
H593 C611 0.930 . S
H594 C602 0.929 . S
H595 C609 0.930 . S
H596 C573 0.931 . S
H597 C603 0.930 . S
H598 C636 0.930 . S
H599 C580 0.930 . S
H600 C635 0.931 . S
N601 Eu570 2.657 . S
N601 C602 1.334 . S
N601 C606 1.362 . S
C602 H594 0.929 . S
C602 N601 1.334 . S
C602 C605 1.413 . S
C603 H597 0.930 . S
C603 C604 1.392 . S
C603 C605 1.367 . S
C604 C603 1.392 . S
C604 C606 1.420 . S
C604 C636 1.423 . S
C605 H591 0.930 . S
C605 C602 1.413 . S
C605 C603 1.367 . S
C606 N601 1.362 . S
C606 C604 1.420 . S
C606 C610 1.429 . S
H607 C612 0.930 . S
N608 Eu570 2.609 . S
N608 C610 1.377 . S
N608 C611 1.321 . S
C609 H595 0.930 . S
C609 C611 1.400 . S
C609 C612 1.386 . S
C610 C606 1.429 . S
C610 N608 1.377 . S
C610 C613 1.411 . S
C611 H593 0.930 . S
C611 N608 1.321 . S
C611 C609 1.400 . S
C612 H607 0.930 . S
C612 C609 1.386 . S
C612 C613 1.395 . S
C613 C610 1.411 . S
C613 C612 1.395 . S
C613 C635 1.420 . S
O614 Eu570 2.558 . S
O614 C634 1.257 . S
O615 Eu570 2.612 . S
O615 Eu581 2.380 . S
O615 C626 1.276 . S
O616 Eu581 2.432 . S
O616 C633 1.264 . S
O617 Eu570 2.339 . S
O617 C633 1.254 . S
O618 Eu570 2.563 . S
O618 C626 1.235 . S
O619 Eu570 2.419 . S
O619 C634 1.249 . S
O620 Eu581 2.558 . S
O620 C645 1.257 . S
O621 Eu570 2.380 . S
O621 Eu581 2.612 . S
O621 C637 1.276 . S
O622 Eu570 2.432 . S
O622 C644 1.264 . S
O623 Eu581 2.339 . S
O623 C644 1.254 . S
O624 Eu581 2.563 . S
O624 C637 1.235 . S
O625 Eu581 2.419 . S
O625 C645 1.249 . S
C626 O615 1.276 . S
C626 O618 1.235 . S
C627 C629 1.393 . S
C627 C631 1.395 . S
C627 C634 1.492 . S
C628 C629 1.392 . S
C628 C630 1.386 . S
C629 C627 1.393 . S
C629 C628 1.392 . S
C629 H646 0.930 . S
C630 C628 1.386 . S
C630 C632 1.395 . S
C630 H647 0.930 . S
C631 C627 1.395 . S
C631 C632 1.379 . S
C631 H648 0.930 . S
C632 C630 1.395 . S
C632 C631 1.379 . S
C632 H649 0.930 . S
C633 O616 1.264 . S
C633 O617 1.254 . S
C634 Eu570 2.848 . S
C634 O614 1.257 . S
C634 O619 1.249 . S
C634 C627 1.492 . S
C635 H600 0.931 . S
C635 C613 1.420 . S
C635 C636 1.351 . S
C636 H598 0.930 . S
C636 C604 1.423 . S
C636 C635 1.351 . S
C637 O621 1.276 . S
C637 O624 1.235 . S
C638 C639 1.393 . S
C638 C642 1.395 . S
C638 C645 1.492 . S
C639 C638 1.393 . S
C639 C640 1.392 . S
C639 H650 0.930 . S
C640 C639 1.392 . S
C640 C641 1.386 . S
C641 C640 1.386 . S
C641 C643 1.395 . S
C641 H651 0.930 . S
C642 C638 1.395 . S
C642 C643 1.379 . S
C642 H652 0.930 . S
C643 C641 1.395 . S
C643 C642 1.379 . S
C643 H653 0.930 . S
C644 O622 1.264 . S
C644 O623 1.254 . S
C645 Eu581 2.848 . S
C645 O620 1.257 . S
C645 O625 1.249 . S
C645 C638 1.492 . S
H646 C629 0.930 . S
H647 C630 0.930 . S
H648 C631 0.930 . S
H649 C632 0.930 . S
H650 C639 0.930 . S
H651 C641 0.930 . S
H652 C642 0.930 . S
H653 C643 0.930 . S
Eu654 N685 2.657 . S
Eu654 N692 2.609 . S
Eu654 O698 2.558 . S
Eu654 O699 2.612 . S
Eu654 O701 2.339 . S
Eu654 O702 2.563 . S
Eu654 O703 2.419 . S
Eu654 O705 2.380 . S
Eu654 O706 2.432 . S
Eu654 C718 2.848 . S
C655 C658 1.429 . S
C655 C659 1.411 . S
C655 N662 1.377 . S
C656 C658 1.420 . S
C656 C660 1.423 . S
C656 C668 1.392 . S
C657 C659 1.420 . S
C657 C660 1.351 . S
C657 H680 0.931 . S
C658 C655 1.429 . S
C658 C656 1.420 . S
C658 N666 1.362 . S
C659 C655 1.411 . S
C659 C657 1.420 . S
C659 C664 1.395 . S
C660 C656 1.423 . S
C660 C657 1.351 . S
C660 H672 0.930 . S
C661 C663 1.400 . S
C661 C664 1.386 . S
C661 H673 0.930 . S
N662 C655 1.377 . S
N662 C663 1.321 . S
N662 Eu665 2.609 . S
C663 C661 1.400 . S
C663 N662 1.321 . S
C663 H670 0.930 . S
C664 C659 1.395 . S
C664 C661 1.386 . S
C664 H683 0.930 . S
Eu665 N662 2.609 . S
Eu665 N666 2.657 . S
Eu665 O699 2.380 . S
Eu665 O700 2.432 . S
Eu665 O704 2.558 . S
Eu665 O705 2.612 . S
Eu665 O707 2.339 . S
Eu665 O708 2.563 . S
Eu665 O709 2.419 . S
Eu665 C729 2.848 . S
N666 C658 1.362 . S
N666 Eu665 2.657 . S
N666 C667 1.334 . S
C667 N666 1.334 . S
C667 C669 1.413 . S
C667 H674 0.929 . S
C668 C656 1.392 . S
C668 C669 1.367 . S
C668 H676 0.930 . S
C669 C667 1.413 . S
C669 C668 1.367 . S
C669 H671 0.930 . S
H670 C663 0.930 . S
H671 C669 0.930 . S
H672 C660 0.930 . S
H673 C661 0.930 . S
H674 C667 0.929 . S
H675 C689 0.930 . S
H676 C668 0.930 . S
H677 C695 0.930 . S
H678 C686 0.929 . S
H679 C693 0.930 . S
H680 C657 0.931 . S
H681 C687 0.930 . S
H682 C720 0.930 . S
H683 C664 0.930 . S
H684 C719 0.931 . S
N685 Eu654 2.657 . S
N685 C686 1.334 . S
N685 C690 1.362 . S
C686 H678 0.929 . S
C686 N685 1.334 . S
C686 C689 1.413 . S
C687 H681 0.930 . S
C687 C688 1.392 . S
C687 C689 1.367 . S
C688 C687 1.392 . S
C688 C690 1.420 . S
C688 C720 1.423 . S
C689 H675 0.930 . S
C689 C686 1.413 . S
C689 C687 1.367 . S
C690 N685 1.362 . S
C690 C688 1.420 . S
C690 C694 1.429 . S
H691 C696 0.930 . S
N692 Eu654 2.609 . S
N692 C694 1.377 . S
N692 C695 1.321 . S
C693 H679 0.930 . S
C693 C695 1.400 . S
C693 C696 1.386 . S
C694 C690 1.429 . S
C694 N692 1.377 . S
C694 C697 1.411 . S
C695 H677 0.930 . S
C695 N692 1.321 . S
C695 C693 1.400 . S
C696 H691 0.930 . S
C696 C693 1.386 . S
C696 C697 1.395 . S
C697 C694 1.411 . S
C697 C696 1.395 . S
C697 C719 1.420 . S
O698 Eu654 2.558 . S
O698 C718 1.257 . S
O699 Eu654 2.612 . S
O699 Eu665 2.380 . S
O699 C710 1.276 . S
O700 Eu665 2.432 . S
O700 C717 1.264 . S
O701 Eu654 2.339 . S
O701 C717 1.254 . S
O702 Eu654 2.563 . S
O702 C710 1.235 . S
O703 Eu654 2.419 . S
O703 C718 1.249 . S
O704 Eu665 2.558 . S
O704 C729 1.257 . S
O705 Eu654 2.380 . S
O705 Eu665 2.612 . S
O705 C721 1.276 . S
O706 Eu654 2.432 . S
O706 C728 1.264 . S
O707 Eu665 2.339 . S
O707 C728 1.254 . S
O708 Eu665 2.563 . S
O708 C721 1.235 . S
O709 Eu665 2.419 . S
O709 C729 1.249 . S
C710 O699 1.276 . S
C710 O702 1.235 . S
C711 C713 1.393 . S
C711 C715 1.395 . S
C711 C718 1.492 . S
C712 C713 1.392 . S
C712 C714 1.386 . S
C713 C711 1.393 . S
C713 C712 1.392 . S
C713 H730 0.930 . S
C714 C712 1.386 . S
C714 C716 1.395 . S
C714 H731 0.930 . S
C715 C711 1.395 . S
C715 C716 1.379 . S
C715 H732 0.930 . S
C716 C714 1.395 . S
C716 C715 1.379 . S
C716 H733 0.930 . S
C717 O700 1.264 . S
C717 O701 1.254 . S
C718 Eu654 2.848 . S
C718 O698 1.257 . S
C718 O703 1.249 . S
C718 C711 1.492 . S
C719 H684 0.931 . S
C719 C697 1.420 . S
C719 C720 1.351 . S
C720 H682 0.930 . S
C720 C688 1.423 . S
C720 C719 1.351 . S
C721 O705 1.276 . S
C721 O708 1.235 . S
C722 C723 1.393 . S
C722 C726 1.395 . S
C722 C729 1.492 . S
C723 C722 1.393 . S
C723 C724 1.392 . S
C723 H734 0.930 . S
C724 C723 1.392 . S
C724 C725 1.386 . S
C725 C724 1.386 . S
C725 C727 1.395 . S
C725 H735 0.930 . S
C726 C722 1.395 . S
C726 C727 1.379 . S
C726 H736 0.930 . S
C727 C725 1.395 . S
C727 C726 1.379 . S
C727 H737 0.930 . S
C728 O706 1.264 . S
C728 O707 1.254 . S
C729 Eu665 2.848 . S
C729 O704 1.257 . S
C729 O709 1.249 . S
C729 C722 1.492 . S
H730 C713 0.930 . S
H731 C714 0.930 . S
H732 C715 0.930 . S
H733 C716 0.930 . S
H734 C723 0.930 . S
H735 C725 0.930 . S
H736 C726 0.930 . S
H737 C727 0.930 . S
Eu738 N769 2.657 . S
Eu738 N776 2.609 . S
Eu738 O782 2.558 . S
Eu738 O783 2.612 . S
Eu738 O785 2.339 . S
Eu738 O786 2.563 . S
Eu738 O787 2.419 . S
Eu738 O789 2.380 . S
Eu738 O790 2.432 . S
Eu738 C802 2.848 . S
C739 C742 1.429 . S
C739 C743 1.411 . S
C739 N746 1.377 . S
C740 C742 1.420 . S
C740 C744 1.423 . S
C740 C752 1.392 . S
C741 C743 1.420 . S
C741 C744 1.351 . S
C741 H764 0.931 . S
C742 C739 1.429 . S
C742 C740 1.420 . S
C742 N750 1.362 . S
C743 C739 1.411 . S
C743 C741 1.420 . S
C743 C748 1.395 . S
C744 C740 1.423 . S
C744 C741 1.351 . S
C744 H756 0.930 . S
C745 C747 1.400 . S
C745 C748 1.386 . S
C745 H757 0.930 . S
N746 C739 1.377 . S
N746 C747 1.321 . S
N746 Eu749 2.609 . S
C747 C745 1.400 . S
C747 N746 1.321 . S
C747 H754 0.930 . S
C748 C743 1.395 . S
C748 C745 1.386 . S
C748 H767 0.930 . S
Eu749 N746 2.609 . S
Eu749 N750 2.657 . S
Eu749 O783 2.380 . S
Eu749 O784 2.432 . S
Eu749 O788 2.558 . S
Eu749 O789 2.612 . S
Eu749 O791 2.339 . S
Eu749 O792 2.563 . S
Eu749 O793 2.419 . S
Eu749 C813 2.848 . S
N750 C742 1.362 . S
N750 Eu749 2.657 . S
N750 C751 1.334 . S
C751 N750 1.334 . S
C751 C753 1.413 . S
C751 H758 0.929 . S
C752 C740 1.392 . S
C752 C753 1.367 . S
C752 H760 0.930 1_655 S
C753 C751 1.413 . S
C753 C752 1.367 . S
C753 H755 0.930 . S
H754 C747 0.930 . S
H755 C753 0.930 . S
H756 C744 0.930 . S
H757 C745 0.930 . S
H758 C751 0.929 . S
H759 C773 0.930 . S
H760 C752 0.930 1_455 S
H761 C779 0.930 . S
H762 C770 0.929 . S
H763 C777 0.930 . S
H764 C741 0.931 . S
H765 C771 0.930 . S
H766 C804 0.930 . S
H767 C748 0.930 . S
H768 C803 0.931 . S
N769 Eu738 2.657 . S
N769 C770 1.334 . S
N769 C774 1.362 . S
C770 H762 0.929 . S
C770 N769 1.334 . S
C770 C773 1.413 . S
C771 H765 0.930 . S
C771 C772 1.392 . S
C771 C773 1.367 . S
C772 C771 1.392 . S
C772 C774 1.420 . S
C772 C804 1.423 . S
C773 H759 0.930 . S
C773 C770 1.413 . S
C773 C771 1.367 . S
C774 N769 1.362 . S
C774 C772 1.420 . S
C774 C778 1.429 . S
H775 C780 0.930 . S
N776 Eu738 2.609 . S
N776 C778 1.377 . S
N776 C779 1.321 . S
C777 H763 0.930 . S
C777 C779 1.400 . S
C777 C780 1.386 . S
C778 C774 1.429 . S
C778 N776 1.377 . S
C778 C781 1.411 . S
C779 H761 0.930 . S
C779 N776 1.321 . S
C779 C777 1.400 . S
C780 H775 0.930 . S
C780 C777 1.386 . S
C780 C781 1.395 . S
C781 C778 1.411 . S
C781 C780 1.395 . S
C781 C803 1.420 . S
O782 Eu738 2.558 . S
O782 C802 1.257 . S
O783 Eu738 2.612 . S
O783 Eu749 2.380 . S
O783 C794 1.276 . S
O784 Eu749 2.432 . S
O784 C801 1.264 . S
O785 Eu738 2.339 . S
O785 C801 1.254 . S
O786 Eu738 2.563 . S
O786 C794 1.235 . S
O787 Eu738 2.419 . S
O787 C802 1.249 . S
O788 Eu749 2.558 . S
O788 C813 1.257 . S
O789 Eu738 2.380 . S
O789 Eu749 2.612 . S
O789 C805 1.276 . S
O790 Eu738 2.432 . S
O790 C812 1.264 . S
O791 Eu749 2.339 . S
O791 C812 1.254 . S
O792 Eu749 2.563 . S
O792 C805 1.235 . S
O793 Eu749 2.419 . S
O793 C813 1.249 . S
C794 O783 1.276 . S
C794 O786 1.235 . S
C795 C797 1.393 . S
C795 C799 1.395 . S
C795 C802 1.492 . S
C796 C797 1.392 . S
C796 C798 1.386 . S
C797 C795 1.393 . S
C797 C796 1.392 . S
C797 H814 0.930 . S
C798 C796 1.386 . S
C798 C800 1.395 . S
C798 H815 0.930 . S
C799 C795 1.395 . S
C799 C800 1.379 . S
C799 H816 0.930 . S
C800 C798 1.395 . S
C800 C799 1.379 . S
C800 H817 0.930 . S
C801 O784 1.264 . S
C801 O785 1.254 . S
C802 Eu738 2.848 . S
C802 O782 1.257 . S
C802 O787 1.249 . S
C802 C795 1.492 . S
C803 H768 0.931 . S
C803 C781 1.420 . S
C803 C804 1.351 . S
C804 H766 0.930 . S
C804 C772 1.423 . S
C804 C803 1.351 . S
C805 O789 1.276 . S
C805 O792 1.235 . S
C806 C807 1.393 . S
C806 C810 1.395 . S
C806 C813 1.492 . S
C807 C806 1.393 . S
C807 C808 1.392 . S
C807 H818 0.930 . S
C808 C807 1.392 . S
C808 C809 1.386 . S
C809 C808 1.386 . S
C809 C811 1.395 . S
C809 H819 0.930 . S
C810 C806 1.395 . S
C810 C811 1.379 . S
C810 H820 0.930 . S
C811 C809 1.395 . S
C811 C810 1.379 . S
C811 H821 0.930 . S
C812 O790 1.264 . S
C812 O791 1.254 . S
C813 Eu749 2.848 . S
C813 O788 1.257 . S
C813 O793 1.249 . S
C813 C806 1.492 . S
H814 C797 0.930 . S
H815 C798 0.930 . S
H816 C799 0.930 . S
H817 C800 0.930 . S
H818 C807 0.930 . S
H819 C809 0.930 . S
H820 C810 0.930 . S
H821 C811 0.930 . S
Eu822 N853 2.657 . S
Eu822 N860 2.609 . S
Eu822 O866 2.558 . S
Eu822 O867 2.612 . S
Eu822 O869 2.339 . S
Eu822 O870 2.563 . S
Eu822 O871 2.419 . S
Eu822 O873 2.380 . S
Eu822 O874 2.432 . S
Eu822 C886 2.848 . S
C823 C826 1.429 . S
C823 C827 1.411 . S
C823 N830 1.377 . S
C824 C826 1.420 . S
C824 C828 1.423 . S
C824 C836 1.392 . S
C825 C827 1.420 . S
C825 C828 1.351 . S
C825 H848 0.931 . S
C826 C823 1.429 . S
C826 C824 1.420 . S
C826 N834 1.362 . S
C827 C823 1.411 . S
C827 C825 1.420 . S
C827 C832 1.395 . S
C828 C824 1.423 . S
C828 C825 1.351 . S
C828 H840 0.930 . S
C829 C831 1.400 . S
C829 C832 1.386 . S
C829 H841 0.930 . S
N830 C823 1.377 . S
N830 C831 1.321 . S
N830 Eu833 2.609 . S
C831 C829 1.400 . S
C831 N830 1.321 . S
C831 H838 0.930 . S
C832 C827 1.395 . S
C832 C829 1.386 . S
C832 H851 0.930 . S
Eu833 N830 2.609 . S
Eu833 N834 2.657 . S
Eu833 O867 2.380 . S
Eu833 O868 2.432 . S
Eu833 O872 2.558 . S
Eu833 O873 2.612 . S
Eu833 O875 2.339 . S
Eu833 O876 2.563 . S
Eu833 O877 2.419 . S
Eu833 C897 2.848 . S
N834 C826 1.362 . S
N834 Eu833 2.657 . S
N834 C835 1.334 . S
C835 N834 1.334 . S
C835 C837 1.413 . S
C835 H842 0.929 . S
C836 C824 1.392 . S
C836 C837 1.367 . S
C836 H844 0.930 . S
C837 C835 1.413 . S
C837 C836 1.367 . S
C837 H839 0.930 . S
H838 C831 0.930 . S
H839 C837 0.930 . S
H840 C828 0.930 . S
H841 C829 0.930 . S
H842 C835 0.929 . S
H843 C857 0.930 . S
H844 C836 0.930 . S
H845 C863 0.930 . S
H846 C854 0.929 . S
H847 C861 0.930 . S
H848 C825 0.931 . S
H849 C855 0.930 . S
H850 C888 0.930 . S
H851 C832 0.930 . S
H852 C887 0.931 . S
N853 Eu822 2.657 . S
N853 C854 1.334 . S
N853 C858 1.362 . S
C854 H846 0.929 . S
C854 N853 1.334 . S
C854 C857 1.413 . S
C855 H849 0.930 . S
C855 C856 1.392 . S
C855 C857 1.367 . S
C856 C855 1.392 . S
C856 C858 1.420 . S
C856 C888 1.423 . S
C857 H843 0.930 . S
C857 C854 1.413 . S
C857 C855 1.367 . S
C858 N853 1.362 . S
C858 C856 1.420 . S
C858 C862 1.429 . S
H859 C864 0.930 . S
N860 Eu822 2.609 . S
N860 C862 1.377 . S
N860 C863 1.321 . S
C861 H847 0.930 . S
C861 C863 1.400 . S
C861 C864 1.386 . S
C862 C858 1.429 . S
C862 N860 1.377 . S
C862 C865 1.411 . S
C863 H845 0.930 . S
C863 N860 1.321 . S
C863 C861 1.400 . S
C864 H859 0.930 . S
C864 C861 1.386 . S
C864 C865 1.395 . S
C865 C862 1.411 . S
C865 C864 1.395 . S
C865 C887 1.420 . S
O866 Eu822 2.558 . S
O866 C886 1.257 . S
O867 Eu822 2.612 . S
O867 Eu833 2.380 . S
O867 C878 1.276 . S
O868 Eu833 2.432 . S
O868 C885 1.264 . S
O869 Eu822 2.339 . S
O869 C885 1.254 . S
O870 Eu822 2.563 . S
O870 C878 1.235 . S
O871 Eu822 2.419 . S
O871 C886 1.249 . S
O872 Eu833 2.558 . S
O872 C897 1.257 . S
O873 Eu822 2.380 . S
O873 Eu833 2.612 . S
O873 C889 1.276 . S
O874 Eu822 2.432 . S
O874 C896 1.264 . S
O875 Eu833 2.339 . S
O875 C896 1.254 . S
O876 Eu833 2.563 . S
O876 C889 1.235 . S
O877 Eu833 2.419 . S
O877 C897 1.249 . S
C878 O867 1.276 . S
C878 O870 1.235 . S
C879 C881 1.393 . S
C879 C883 1.395 . S
C879 C886 1.492 . S
C880 C881 1.392 . S
C880 C882 1.386 . S
C881 C879 1.393 . S
C881 C880 1.392 . S
C881 H898 0.930 . S
C882 C880 1.386 . S
C882 C884 1.395 . S
C882 H899 0.930 . S
C883 C879 1.395 . S
C883 C884 1.379 . S
C883 H900 0.930 . S
C884 C882 1.395 . S
C884 C883 1.379 . S
C884 H901 0.930 . S
C885 O868 1.264 . S
C885 O869 1.254 . S
C886 Eu822 2.848 . S
C886 O866 1.257 . S
C886 O871 1.249 . S
C886 C879 1.492 . S
C887 H852 0.931 . S
C887 C865 1.420 . S
C887 C888 1.351 . S
C888 H850 0.930 . S
C888 C856 1.423 . S
C888 C887 1.351 . S
C889 O873 1.276 . S
C889 O876 1.235 . S
C890 C891 1.393 . S
C890 C894 1.395 . S
C890 C897 1.492 . S
C891 C890 1.393 . S
C891 C892 1.392 . S
C891 H902 0.930 . S
C892 C891 1.392 . S
C892 C893 1.386 . S
C893 C892 1.386 . S
C893 C895 1.395 . S
C893 H903 0.930 . S
C894 C890 1.395 . S
C894 C895 1.379 . S
C894 H904 0.930 . S
C895 C893 1.395 . S
C895 C894 1.379 . S
C895 H905 0.930 . S
C896 O874 1.264 . S
C896 O875 1.254 . S
C897 Eu833 2.848 . S
C897 O872 1.257 . S
C897 O877 1.249 . S
C897 C890 1.492 . S
H898 C881 0.930 . S
H899 C882 0.930 . S
H900 C883 0.930 . S
H901 C884 0.930 . S
H902 C891 0.930 . S
H903 C893 0.930 . S
H904 C894 0.930 . S
H905 C895 0.930 . S
Eu906 N937 2.657 . S
Eu906 N944 2.609 . S
Eu906 O950 2.558 . S
Eu906 O951 2.612 . S
Eu906 O953 2.339 . S
Eu906 O954 2.563 . S
Eu906 O955 2.419 . S
Eu906 O957 2.380 . S
Eu906 O958 2.432 . S
Eu906 C970 2.848 . S
C907 C910 1.429 . S
C907 C911 1.411 . S
C907 N914 1.377 . S
C908 C910 1.420 . S
C908 C912 1.423 . S
C908 C920 1.392 . S
C909 C911 1.420 . S
C909 C912 1.351 . S
C909 H932 0.931 . S
C910 C907 1.429 . S
C910 C908 1.420 . S
C910 N918 1.362 . S
C911 C907 1.411 . S
C911 C909 1.420 . S
C911 C916 1.395 . S
C912 C908 1.423 . S
C912 C909 1.351 . S
C912 H924 0.930 . S
C913 C915 1.400 . S
C913 C916 1.386 . S
C913 H925 0.930 . S
N914 C907 1.377 . S
N914 C915 1.321 . S
N914 Eu917 2.609 . S
C915 C913 1.400 . S
C915 N914 1.321 . S
C915 H922 0.930 . S
C916 C911 1.395 . S
C916 C913 1.386 . S
C916 H935 0.930 . S
Eu917 N914 2.609 . S
Eu917 N918 2.657 . S
Eu917 O951 2.380 . S
Eu917 O952 2.432 . S
Eu917 O956 2.558 . S
Eu917 O957 2.612 . S
Eu917 O959 2.339 . S
Eu917 O960 2.563 . S
Eu917 O961 2.419 . S
Eu917 C981 2.848 . S
N918 C910 1.362 . S
N918 Eu917 2.657 . S
N918 C919 1.334 . S
C919 N918 1.334 . S
C919 C921 1.413 . S
C919 H926 0.929 . S
C920 C908 1.392 . S
C920 C921 1.367 . S
C920 H928 0.930 . S
C921 C919 1.413 . S
C921 C920 1.367 . S
C921 H923 0.930 . S
H922 C915 0.930 . S
H923 C921 0.930 . S
H924 C912 0.930 . S
H925 C913 0.930 . S
H926 C919 0.929 . S
H927 C941 0.930 . S
H928 C920 0.930 . S
H929 C947 0.930 . S
H930 C938 0.929 . S
H931 C945 0.930 . S
H932 C909 0.931 . S
H933 C939 0.930 . S
H934 C972 0.930 . S
H935 C916 0.930 . S
H936 C971 0.931 . S
N937 Eu906 2.657 . S
N937 C938 1.334 . S
N937 C942 1.362 . S
C938 H930 0.929 . S
C938 N937 1.334 . S
C938 C941 1.413 . S
C939 H933 0.930 . S
C939 C940 1.392 . S
C939 C941 1.367 . S
C940 C939 1.392 . S
C940 C942 1.420 . S
C940 C972 1.423 . S
C941 H927 0.930 . S
C941 C938 1.413 . S
C941 C939 1.367 . S
C942 N937 1.362 . S
C942 C940 1.420 . S
C942 C946 1.429 . S
H943 C948 0.930 . S
N944 Eu906 2.609 . S
N944 C946 1.377 . S
N944 C947 1.321 . S
C945 H931 0.930 . S
C945 C947 1.400 . S
C945 C948 1.386 . S
C946 C942 1.429 . S
C946 N944 1.377 . S
C946 C949 1.411 . S
C947 H929 0.930 . S
C947 N944 1.321 . S
C947 C945 1.400 . S
C948 H943 0.930 . S
C948 C945 1.386 . S
C948 C949 1.395 . S
C949 C946 1.411 . S
C949 C948 1.395 . S
C949 C971 1.420 . S
O950 Eu906 2.558 . S
O950 C970 1.257 . S
O951 Eu906 2.612 . S
O951 Eu917 2.380 . S
O951 C962 1.276 . S
O952 Eu917 2.432 . S
O952 C969 1.264 . S
O953 Eu906 2.339 . S
O953 C969 1.254 . S
O954 Eu906 2.563 . S
O954 C962 1.235 . S
O955 Eu906 2.419 . S
O955 C970 1.249 . S
O956 Eu917 2.558 . S
O956 C981 1.257 . S
O957 Eu906 2.380 . S
O957 Eu917 2.612 . S
O957 C973 1.276 . S
O958 Eu906 2.432 . S
O958 C980 1.264 . S
O959 Eu917 2.339 . S
O959 C980 1.254 . S
O960 Eu917 2.563 . S
O960 C973 1.235 . S
O961 Eu917 2.419 . S
O961 C981 1.249 . S
C962 O951 1.276 . S
C962 O954 1.235 . S
C963 C965 1.393 . S
C963 C967 1.395 . S
C963 C970 1.492 . S
C964 C965 1.392 . S
C964 C966 1.386 . S
C965 C963 1.393 . S
C965 C964 1.392 . S
C965 H982 0.930 . S
C966 C964 1.386 . S
C966 C968 1.395 . S
C966 H983 0.930 . S
C967 C963 1.395 . S
C967 C968 1.379 . S
C967 H984 0.930 . S
C968 C966 1.395 . S
C968 C967 1.379 . S
C968 H985 0.930 . S
C969 O952 1.264 . S
C969 O953 1.254 . S
C970 Eu906 2.848 . S
C970 O950 1.257 . S
C970 O955 1.249 . S
C970 C963 1.492 . S
C971 H936 0.931 . S
C971 C949 1.420 . S
C971 C972 1.351 . S
C972 H934 0.930 . S
C972 C940 1.423 . S
C972 C971 1.351 . S
C973 O957 1.276 . S
C973 O960 1.235 . S
C974 C975 1.393 . S
C974 C978 1.395 . S
C974 C981 1.492 . S
C975 C974 1.393 . S
C975 C976 1.392 . S
C975 H986 0.930 . S
C976 C975 1.392 . S
C976 C977 1.386 . S
C977 C976 1.386 . S
C977 C979 1.395 . S
C977 H987 0.930 . S
C978 C974 1.395 . S
C978 C979 1.379 . S
C978 H988 0.930 . S
C979 C977 1.395 . S
C979 C978 1.379 . S
C979 H989 0.930 . S
C980 O958 1.264 . S
C980 O959 1.254 . S
C981 Eu917 2.848 . S
C981 O956 1.257 . S
C981 O961 1.249 . S
C981 C974 1.492 . S
H982 C965 0.930 . S
H983 C966 0.930 . S
H984 C967 0.930 . S
H985 C968 0.930 . S
H986 C975 0.930 . S
H987 C977 0.930 . S
H988 C978 0.930 . S
H989 C979 0.930 . S
H990 C998 0.950 . S
H991 C1003 0.950 . S
H992 C1000 0.950 . S
H993 C1002 0.950 . S
H994 C1004 0.950 . S
H995 C1006 0.950 . S
H996 C1008 0.950 . S
H997 C1009 0.950 . S
C998 H990 0.950 . S
C998 C999 1.386 . S
C998 C1000 1.391 . S
C999 C998 1.386 . S
C999 C1003 1.393 . S
C1000 H992 0.950 . S
C1000 C998 1.391 . S
C1000 C1001 1.400 . S
C1001 C1000 1.400 . S
C1001 C1002 1.398 . S
C1001 C1007 1.491 . S
C1002 H993 0.950 . S
C1002 C1001 1.398 . S
C1002 C1003 1.391 . S
C1003 H991 0.950 . S
C1003 C999 1.393 . S
C1003 C1002 1.391 . S
C1004 H994 0.950 . S
C1004 C1005 1.386 . S
C1004 C1006 1.391 . S
C1005 C1004 1.386 . S
C1005 C1009 1.393 . S
C1006 H995 0.950 . S
C1006 C1004 1.391 . S
C1006 C1007 1.400 . S
C1007 C1001 1.491 . S
C1007 C1006 1.400 . S
C1007 C1008 1.398 . S
C1008 H996 0.950 . S
C1008 C1007 1.398 . S
C1008 C1009 1.391 . S
C1009 H997 0.950 . S
C1009 C1005 1.393 . S
C1009 C1008 1.391 . S
H1010 C1018 0.950 . S
H1011 C1023 0.950 . S
H1012 C1020 0.950 . S
H1013 C1022 0.950 . S
H1014 C1024 0.950 . S
H1015 C1026 0.950 . S
H1016 C1028 0.950 . S
H1017 C1029 0.950 . S
C1018 H1010 0.950 . S
C1018 C1019 1.386 . S
C1018 C1020 1.391 . S
C1019 C1018 1.386 . S
C1019 C1023 1.393 . S
C1020 H1012 0.950 . S
C1020 C1018 1.391 . S
C1020 C1021 1.400 . S
C1021 C1020 1.400 . S
C1021 C1022 1.398 . S
C1021 C1027 1.491 . S
C1022 H1013 0.950 . S
C1022 C1021 1.398 . S
C1022 C1023 1.391 . S
C1023 H1011 0.950 . S
C1023 C1019 1.393 . S
C1023 C1022 1.391 . S
C1024 H1014 0.950 . S
C1024 C1025 1.386 . S
C1024 C1026 1.391 . S
C1025 C1024 1.386 . S
C1025 C1029 1.393 . S
C1026 H1015 0.950 . S
C1026 C1024 1.391 . S
C1026 C1027 1.400 . S
C1027 C1021 1.491 . S
C1027 C1026 1.400 . S
C1027 C1028 1.398 . S
C1028 H1016 0.950 . S
C1028 C1027 1.398 . S
C1028 C1029 1.391 . S
C1029 H1017 0.950 . S
C1029 C1025 1.393 . S
C1029 C1028 1.391 . S
H1030 C1038 0.950 . S
H1031 C1043 0.950 . S
H1032 C1040 0.950 . S
H1033 C1042 0.950 . S
H1034 C1044 0.950 . S
H1035 C1046 0.950 . S
H1036 C1048 0.950 . S
H1037 C1049 0.950 . S
C1038 H1030 0.950 . S
C1038 C1039 1.386 . S
C1038 C1040 1.391 . S
C1039 C1038 1.386 . S
C1039 C1043 1.393 . S
C1040 H1032 0.950 . S
C1040 C1038 1.391 . S
C1040 C1041 1.400 . S
C1041 C1040 1.400 . S
C1041 C1042 1.398 . S
C1041 C1047 1.491 . S
C1042 H1033 0.950 . S
C1042 C1041 1.398 . S
C1042 C1043 1.391 . S
C1043 H1031 0.950 . S
C1043 C1039 1.393 . S
C1043 C1042 1.391 . S
C1044 H1034 0.950 . S
C1044 C1045 1.386 . S
C1044 C1046 1.391 . S
C1045 C1044 1.386 . S
C1045 C1049 1.393 . S
C1046 H1035 0.950 . S
C1046 C1044 1.391 . S
C1046 C1047 1.400 . S
C1047 C1041 1.491 . S
C1047 C1046 1.400 . S
C1047 C1048 1.398 . S
C1048 H1036 0.950 . S
C1048 C1047 1.398 . S
C1048 C1049 1.391 . S
C1049 H1037 0.950 . S
C1049 C1045 1.393 . S
C1049 C1048 1.391 . S
H1050 C1058 0.950 . S
H1051 C1063 0.950 . S
H1052 C1060 0.950 1_554 S
H1053 C1062 0.950 . S
H1054 C1064 0.950 . S
H1055 C1066 0.950 . S
H1056 C1068 0.954 . S
H1057 C1069 0.950 . S
C1058 H1050 0.950 . S
C1058 C1059 1.386 . S
C1058 C1060 1.391 . S
C1059 C1058 1.386 . S
C1059 C1063 1.393 . S
C1060 H1052 0.950 1_556 S
C1060 C1058 1.391 . S
C1060 C1061 1.400 . S
C1061 C1060 1.400 . S
C1061 C1062 1.398 . S
C1061 C1067 1.491 . S
C1062 H1053 0.950 . S
C1062 C1061 1.398 . S
C1062 C1063 1.391 . S
C1063 H1051 0.950 . S
C1063 C1059 1.393 . S
C1063 C1062 1.391 . S
C1064 H1054 0.950 . S
C1064 C1065 1.386 . S
C1064 C1066 1.391 . S
C1065 C1064 1.386 . S
C1065 C1069 1.393 1_556 S
C1066 H1055 0.950 . S
C1066 C1064 1.391 . S
C1066 C1067 1.400 . S
C1067 C1061 1.491 . S
C1067 C1066 1.400 . S
C1067 C1068 1.389 1_556 S
C1068 H1056 0.954 . S
C1068 C1067 1.389 1_554 S
C1068 C1069 1.395 . S
C1069 H1057 0.950 . S
C1069 C1065 1.393 1_554 S
C1069 C1068 1.395 . S
H1070 C1078 0.950 . S
H1071 C1083 0.950 . S
H1072 C1080 0.950 . S
H1073 C1082 0.950 . S
H1074 C1084 0.959 . S
H1075 C1086 0.950 . S
H1076 C1088 0.950 . S
H1077 C1089 0.950 . S
C1078 H1070 0.950 . S
C1078 C1079 1.386 . S
C1078 C1080 1.391 . S
C1079 C1078 1.386 . S
C1079 C1083 1.393 . S
C1080 H1072 0.950 . S
C1080 C1078 1.391 . S
C1080 C1081 1.400 . S
C1081 C1080 1.400 . S
C1081 C1082 1.398 . S
C1081 C1087 1.491 . S
C1082 H1073 0.950 . S
C1082 C1081 1.398 . S
C1082 C1083 1.391 . S
C1083 H1071 0.950 . S
C1083 C1079 1.393 . S
C1083 C1082 1.391 . S
C1084 H1074 0.959 . S
C1084 C1085 1.363 1_556 S
C1084 C1086 1.405 . S
C1085 C1084 1.363 1_554 S
C1085 C1089 1.393 . S
C1086 H1075 0.950 . S
C1086 C1084 1.405 . S
C1086 C1087 1.400 . S
C1087 C1081 1.491 . S
C1087 C1086 1.400 . S
C1087 C1088 1.398 1_556 S
C1088 H1076 0.950 . S
C1088 C1087 1.398 1_554 S
C1088 C1089 1.391 . S
C1089 H1077 0.950 . S
C1089 C1085 1.393 . S
C1089 C1088 1.391 . S
H1090 C1098 0.950 . S
H1091 C1103 0.950 . S
H1092 C1100 0.950 1_554 S
H1093 C1102 0.950 . S
H1094 C1104 0.950 . S
H1095 C1106 0.950 . S
H1096 C1108 0.950 . S
H1097 C1109 0.950 . S
C1098 H1090 0.950 . S
C1098 C1099 1.386 . S
C1098 C1100 1.391 . S
C1099 C1098 1.386 . S
C1099 C1103 1.393 . S
C1100 H1092 0.950 1_556 S
C1100 C1098 1.391 . S
C1100 C1101 1.400 . S
C1101 C1100 1.400 . S
C1101 C1102 1.398 . S
C1101 C1107 1.491 . S
C1102 H1093 0.950 . S
C1102 C1101 1.398 . S
C1102 C1103 1.391 . S
C1103 H1091 0.950 . S
C1103 C1099 1.393 . S
C1103 C1102 1.391 . S
C1104 H1094 0.950 . S
C1104 C1105 1.386 1_556 S
C1104 C1106 1.391 . S
C1105 C1104 1.386 1_554 S
C1105 C1109 1.393 . S
C1106 H1095 0.950 . S
C1106 C1104 1.391 . S
C1106 C1107 1.400 . S
C1107 C1101 1.491 . S
C1107 C1106 1.400 . S
C1107 C1108 1.398 1_556 S
C1108 H1096 0.950 . S
C1108 C1107 1.398 1_554 S
C1108 C1109 1.391 . S
C1109 H1097 0.950 . S
C1109 C1105 1.393 . S
C1109 C1108 1.391 . S
H1110 C1118 0.950 . S
H1111 C1123 0.950 . S
H1112 C1120 0.950 . S
H1113 C1122 0.930 1_554 S
H1114 C1124 0.950 . S
H1115 C1126 0.950 . S
H1116 C1128 0.950 . S
H1117 C1129 0.950 . S
C1118 H1110 0.950 . S
C1118 C1119 1.386 . S
C1118 C1120 1.391 . S
C1119 C1118 1.386 . S
C1119 C1123 1.393 . S
C1120 H1112 0.950 . S
C1120 C1118 1.391 . S
C1120 C1121 1.400 . S
C1121 C1120 1.400 . S
C1121 C1122 1.398 . S
C1121 C1127 1.491 . S
C1122 H1113 0.930 1_556 S
C1122 C1121 1.398 . S
C1122 C1123 1.391 . S
C1123 H1111 0.950 . S
C1123 C1119 1.393 . S
C1123 C1122 1.391 . S
C1124 H1114 0.950 . S
C1124 C1125 1.386 . S
C1124 C1126 1.391 . S
C1125 C1124 1.386 . S
C1125 C1129 1.393 1_554 S
C1126 H1115 0.950 . S
C1126 C1124 1.391 . S
C1126 C1127 1.400 1_554 S
C1127 C1121 1.491 . S
C1127 C1126 1.400 1_556 S
C1127 C1128 1.398 . S
C1128 H1116 0.950 . S
C1128 C1127 1.398 . S
C1128 C1129 1.391 . S
C1129 H1117 0.950 . S
C1129 C1125 1.393 1_556 S
C1129 C1128 1.391 . S
H1130 C1138 0.950 . S
H1131 C1143 0.950 . S
H1132 C1140 0.950 . S
H1133 C1142 0.964 . S
H1134 C1144 0.950 . S
H1135 C1146 0.950 1_554 S
H1136 C1148 0.950 . S
H1137 C1149 0.950 . S
C1138 H1130 0.950 . S
C1138 C1139 1.386 . S
C1138 C1140 1.391 . S
C1139 C1138 1.386 . S
C1139 C1143 1.393 . S
C1140 H1132 0.950 . S
C1140 C1138 1.391 . S
C1140 C1141 1.400 . S
C1141 C1140 1.400 . S
C1141 C1142 1.398 . S
C1141 C1147 1.491 . S
C1142 H1133 0.964 . S
C1142 C1141 1.398 . S
C1142 C1143 1.391 . S
C1143 H1131 0.950 . S
C1143 C1139 1.393 . S
C1143 C1142 1.391 . S
C1144 H1134 0.950 . S
C1144 C1145 1.386 1_554 S
C1144 C1146 1.391 1_554 S
C1145 C1144 1.386 1_556 S
C1145 C1149 1.393 . S
C1146 H1135 0.950 1_556 S
C1146 C1144 1.391 1_556 S
C1146 C1147 1.400 . S
C1147 C1141 1.491 . S
C1147 C1146 1.400 . S
C1147 C1148 1.398 . S
C1148 H1136 0.950 . S
C1148 C1147 1.398 . S
C1148 C1149 1.391 . S
C1149 H1137 0.950 . S
C1149 C1145 1.393 . S
C1149 C1148 1.391 . S
H1150 C1158 0.950 . S
H1151 C1163 0.950 . S
H1152 C1160 0.950 1_554 S
H1153 C1162 0.950 . S
H1154 C1164 0.950 . S
H1155 C1166 0.977 . S
H1156 C1168 0.950 . S
H1157 C1169 0.950 . S
C1158 H1150 0.950 . S
C1158 C1159 1.386 . S
C1158 C1160 1.391 . S
C1159 C1158 1.386 . S
C1159 C1163 1.393 . S
C1160 H1152 0.950 1_556 S
C1160 C1158 1.391 . S
C1160 C1161 1.400 . S
C1161 C1160 1.400 . S
C1161 C1162 1.398 . S
C1161 C1167 1.491 1_556 S
C1162 H1153 0.950 . S
C1162 C1161 1.398 . S
C1162 C1163 1.391 . S
C1163 H1151 0.950 . S
C1163 C1159 1.393 . S
C1163 C1162 1.391 . S
C1164 H1154 0.950 . S
C1164 C1165 1.386 . S
C1164 C1166 1.370 1_554 S
C1165 C1164 1.386 . S
C1165 C1169 1.393 . S
C1166 H1155 0.977 . S
C1166 C1164 1.370 1_556 S
C1166 C1167 1.397 1_556 S
C1167 C1161 1.491 1_554 S
C1167 C1166 1.397 1_554 S
C1167 C1168 1.398 . S
C1168 H1156 0.950 . S
C1168 C1167 1.398 . S
C1168 C1169 1.391 . S
C1169 H1157 0.950 . S
C1169 C1165 1.393 . S
C1169 C1168 1.391 . S
H1170 C1178 0.950 . S
H1171 C1183 0.950 . S
H1172 C1180 0.950 . S
H1173 C1182 0.950 . S
H1174 C1184 0.950 1_556 S
H1175 C1186 0.950 . S
H1176 C1188 0.950 . S
H1177 C1189 0.950 . S
C1178 H1170 0.950 . S
C1178 C1179 1.386 . S
C1178 C1180 1.391 . S
C1179 C1178 1.386 . S
C1179 C1183 1.393 . S
C1180 H1172 0.950 . S
C1180 C1178 1.391 . S
C1180 C1181 1.400 . S
C1181 C1180 1.400 . S
C1181 C1182 1.398 . S
C1181 C1187 1.491 . S
C1182 H1173 0.950 . S
C1182 C1181 1.398 . S
C1182 C1183 1.391 . S
C1183 H1171 0.950 . S
C1183 C1179 1.393 . S
C1183 C1182 1.391 . S
C1184 H1174 0.950 1_554 S
C1184 C1185 1.386 . S
C1184 C1186 1.391 . S
C1185 C1184 1.386 . S
C1185 C1189 1.393 . S
C1186 H1175 0.950 . S
C1186 C1184 1.391 . S
C1186 C1187 1.400 . S
C1187 C1181 1.491 . S
C1187 C1186 1.400 . S
C1187 C1188 1.398 . S
C1188 H1176 0.950 . S
C1188 C1187 1.398 . S
C1188 C1189 1.391 . S
C1189 H1177 0.950 . S
C1189 C1185 1.393 . S
C1189 C1188 1.391 . S
H1190 C1198 0.950 . S
H1191 C1203 0.950 . S
H1192 C1200 0.950 . S
H1193 C1202 0.950 . S
H1194 C1204 0.950 . S
H1195 C1206 0.950 . S
H1196 C1208 0.950 . S
H1197 C1209 0.950 . S
C1198 H1190 0.950 . S
C1198 C1199 1.386 . S
C1198 C1200 1.391 . S
C1199 C1198 1.386 . S
C1199 C1203 1.393 . S
C1200 H1192 0.950 . S
C1200 C1198 1.391 . S
C1200 C1201 1.400 . S
C1201 C1200 1.400 . S
C1201 C1202 1.398 . S
C1201 C1207 1.491 . S
C1202 H1193 0.950 . S
C1202 C1201 1.398 . S
C1202 C1203 1.391 . S
C1203 H1191 0.950 . S
C1203 C1199 1.393 . S
C1203 C1202 1.391 . S
C1204 H1194 0.950 . S
C1204 C1205 1.386 . S
C1204 C1206 1.391 . S
C1205 C1204 1.386 . S
C1205 C1209 1.393 . S
C1206 H1195 0.950 . S
C1206 C1204 1.391 . S
C1206 C1207 1.400 . S
C1207 C1201 1.491 . S
C1207 C1206 1.400 . S
C1207 C1208 1.398 . S
C1208 H1196 0.950 . S
C1208 C1207 1.398 . S
C1208 C1209 1.391 . S
C1209 H1197 0.950 . S
C1209 C1205 1.393 . S
C1209 C1208 1.391 . S
H1210 C1218 0.950 . S
H1211 C1223 0.950 . S
H1212 C1220 0.950 . S
H1213 C1222 0.950 . S
H1214 C1224 0.950 . S
H1215 C1226 0.950 . S
H1216 C1228 0.950 . S
H1217 C1229 0.950 . S
C1218 H1210 0.950 . S
C1218 C1219 1.386 . S
C1218 C1220 1.391 . S
C1219 C1218 1.386 . S
C1219 C1223 1.393 . S
C1220 H1212 0.950 . S
C1220 C1218 1.391 . S
C1220 C1221 1.400 . S
C1221 C1220 1.400 . S
C1221 C1222 1.398 . S
C1221 C1227 1.491 . S
C1222 H1213 0.950 . S
C1222 C1221 1.398 . S
C1222 C1223 1.391 . S
C1223 H1211 0.950 . S
C1223 C1219 1.393 . S
C1223 C1222 1.391 . S
C1224 H1214 0.950 . S
C1224 C1225 1.386 . S
C1224 C1226 1.391 . S
C1225 C1224 1.386 . S
C1225 C1229 1.393 . S
C1226 H1215 0.950 . S
C1226 C1224 1.391 . S
C1226 C1227 1.400 . S
C1227 C1221 1.491 . S
C1227 C1226 1.400 . S
C1227 C1228 1.398 . S
C1228 H1216 0.950 . S
C1228 C1227 1.398 . S
C1228 C1229 1.391 . S
C1229 H1217 0.950 . S
C1229 C1225 1.393 . S
C1229 C1228 1.391 . S
H1230 C1238 0.950 . S
H1231 C1243 0.950 . S
H1232 C1240 0.950 1_455 S
H1233 C1242 0.950 . S
H1234 C1244 0.950 . S
H1235 C1246 0.950 . S
H1236 C1248 0.950 . S
H1237 C1249 0.950 . S
C1238 H1230 0.950 . S
C1238 C1239 1.386 . S
C1238 C1240 1.391 . S
C1239 C1238 1.386 . S
C1239 C1243 1.393 . S
C1240 H1232 0.950 1_655 S
C1240 C1238 1.391 . S
C1240 C1241 1.400 . S
C1241 C1240 1.400 . S
C1241 C1242 1.398 . S
C1241 C1247 1.491 1_655 S
C1242 H1233 0.950 . S
C1242 C1241 1.398 . S
C1242 C1243 1.391 . S
C1243 H1231 0.950 . S
C1243 C1239 1.393 . S
C1243 C1242 1.391 . S
C1244 H1234 0.950 . S
C1244 C1245 1.386 . S
C1244 C1246 1.391 . S
C1245 C1244 1.386 . S
C1245 C1249 1.393 . S
C1246 H1235 0.950 . S
C1246 C1244 1.391 . S
C1246 C1247 1.400 . S
C1247 C1241 1.491 1_455 S
C1247 C1246 1.400 . S
C1247 C1248 1.398 . S
C1248 H1236 0.950 . S
C1248 C1247 1.398 . S
C1248 C1249 1.391 . S
C1249 H1237 0.950 . S
C1249 C1245 1.393 . S
C1249 C1248 1.391 . S
H1250 C1258 0.950 . S
H1251 C1263 0.950 . S
H1252 C1260 0.950 . S
H1253 C1262 0.950 . S
H1254 C1264 0.950 . S
H1255 C1266 0.950 . S
H1256 C1268 0.950 . S
H1257 C1269 0.950 . S
C1258 H1250 0.950 . S
C1258 C1259 1.386 . S
C1258 C1260 1.391 . S
C1259 C1258 1.386 . S
C1259 C1263 1.393 . S
C1260 H1252 0.950 . S
C1260 C1258 1.391 . S
C1260 C1261 1.400 . S
C1261 C1260 1.400 . S
C1261 C1262 1.398 . S
C1261 C1267 1.491 . S
C1262 H1253 0.950 . S
C1262 C1261 1.398 . S
C1262 C1263 1.391 . S
C1263 H1251 0.950 . S
C1263 C1259 1.393 . S
C1263 C1262 1.391 . S
C1264 H1254 0.950 . S
C1264 C1265 1.386 . S
C1264 C1266 1.391 . S
C1265 C1264 1.386 . S
C1265 C1269 1.393 . S
C1266 H1255 0.950 . S
C1266 C1264 1.391 . S
C1266 C1267 1.400 . S
C1267 C1261 1.491 . S
C1267 C1266 1.400 . S
C1267 C1268 1.398 . S
C1268 H1256 0.950 . S
C1268 C1267 1.398 . S
C1268 C1269 1.391 . S
C1269 H1257 0.950 . S
C1269 C1265 1.393 . S
C1269 C1268 1.391 . S
H1270 C1278 0.950 . S
H1271 C1283 0.950 . S
H1272 C1280 0.950 1_565 S
H1273 C1282 0.950 . S
H1274 C1284 0.950 . S
H1275 C1286 0.950 . S
H1276 C1288 0.950 . S
H1277 C1289 0.950 . S
C1278 H1270 0.950 . S
C1278 C1279 1.386 . S
C1278 C1280 1.391 . S
C1279 C1278 1.386 . S
C1279 C1283 1.393 . S
C1280 H1272 0.950 1_545 S
C1280 C1278 1.391 . S
C1280 C1281 1.400 1_545 S
C1281 C1280 1.400 1_565 S
C1281 C1282 1.398 1_565 S
C1281 C1287 1.491 . S
C1282 H1273 0.950 . S
C1282 C1281 1.398 1_545 S
C1282 C1283 1.391 . S
C1283 H1271 0.950 . S
C1283 C1279 1.393 . S
C1283 C1282 1.391 . S
C1284 H1274 0.950 . S
C1284 C1285 1.386 . S
C1284 C1286 1.391 . S
C1285 C1284 1.386 . S
C1285 C1289 1.393 . S
C1286 H1275 0.950 . S
C1286 C1284 1.391 . S
C1286 C1287 1.400 . S
C1287 C1281 1.491 . S
C1287 C1286 1.400 . S
C1287 C1288 1.398 . S
C1288 H1276 0.950 . S
C1288 C1287 1.398 . S
C1288 C1289 1.391 . S
C1289 H1277 0.950 . S
C1289 C1285 1.393 . S
C1289 C1288 1.391 . S
H1290 C1298 0.950 . S
H1291 C1303 0.950 . S
H1292 C1300 0.950 . S
H1293 C1302 0.950 . S
H1294 C1304 0.950 . S
H1295 C1306 0.950 . S
H1296 C1308 0.950 . S
H1297 C1309 0.950 . S
C1298 H1290 0.950 . S
C1298 C1299 1.386 . S
C1298 C1300 1.391 . S
C1299 C1298 1.386 . S
C1299 C1303 1.393 . S
C1300 H1292 0.950 . S
C1300 C1298 1.391 . S
C1300 C1301 1.400 . S
C1301 C1300 1.400 . S
C1301 C1302 1.398 . S
C1301 C1307 1.491 . S
C1302 H1293 0.950 . S
C1302 C1301 1.398 . S
C1302 C1303 1.391 . S
C1303 H1291 0.950 . S
C1303 C1299 1.393 . S
C1303 C1302 1.391 . S
C1304 H1294 0.950 . S
C1304 C1305 1.386 . S
C1304 C1306 1.391 . S
C1305 C1304 1.386 . S
C1305 C1309 1.393 . S
C1306 H1295 0.950 . S
C1306 C1304 1.391 . S
C1306 C1307 1.400 . S
C1307 C1301 1.491 . S
C1307 C1306 1.400 . S
C1307 C1308 1.398 . S
C1308 H1296 0.950 . S
C1308 C1307 1.398 . S
C1308 C1309 1.391 . S
C1309 H1297 0.950 . S
C1309 C1305 1.393 . S
C1309 C1308 1.391 . S
H1310 C1318 0.950 . S
H1311 C1323 0.950 . S
H1312 C1320 0.950 . S
H1313 C1322 0.950 . S
H1314 C1324 0.950 . S
H1315 C1326 0.950 . S
H1316 C1328 0.950 . S
H1317 C1329 0.950 . S
C1318 H1310 0.950 . S
C1318 C1319 1.386 . S
C1318 C1320 1.391 . S
C1319 C1318 1.386 . S
C1319 C1323 1.393 . S
C1320 H1312 0.950 . S
C1320 C1318 1.391 . S
C1320 C1321 1.400 . S
C1321 C1320 1.400 . S
C1321 C1322 1.398 . S
C1321 C1327 1.491 . S
C1322 H1313 0.950 . S
C1322 C1321 1.398 . S
C1322 C1323 1.391 . S
C1323 H1311 0.950 . S
C1323 C1319 1.393 . S
C1323 C1322 1.391 . S
C1324 H1314 0.950 . S
C1324 C1325 1.386 . S
C1324 C1326 1.391 . S
C1325 C1324 1.386 . S
C1325 C1329 1.393 . S
C1326 H1315 0.950 . S
C1326 C1324 1.391 . S
C1326 C1327 1.400 . S
C1327 C1321 1.491 . S
C1327 C1326 1.400 . S
C1327 C1328 1.398 . S
C1328 H1316 0.950 . S
C1328 C1327 1.398 . S
C1328 C1329 1.391 . S
C1329 H1317 0.950 . S
C1329 C1325 1.393 . S
C1329 C1328 1.391 . S
H1330 C1338 0.950 . S
H1331 C1343 0.950 . S
H1332 C1340 0.950 . S
H1333 C1342 0.950 . S
H1334 C1344 0.950 . S
H1335 C1346 0.950 . S
H1336 C1348 0.950 . S
H1337 C1349 0.950 . S
C1338 H1330 0.950 . S
C1338 C1339 1.386 . S
C1338 C1340 1.391 . S
C1339 C1338 1.386 . S
C1339 C1343 1.393 . S
C1340 H1332 0.950 . S
C1340 C1338 1.391 . S
C1340 C1341 1.400 . S
C1341 C1340 1.400 . S
C1341 C1342 1.398 . S
C1341 C1347 1.491 . S
C1342 H1333 0.950 . S
C1342 C1341 1.398 . S
C1342 C1343 1.391 . S
C1343 H1331 0.950 . S
C1343 C1339 1.393 . S
C1343 C1342 1.391 . S
C1344 H1334 0.950 . S
C1344 C1345 1.386 . S
C1344 C1346 1.391 . S
C1345 C1344 1.386 . S
C1345 C1349 1.393 . S
C1346 H1335 0.950 . S
C1346 C1344 1.391 . S
C1346 C1347 1.400 . S
C1347 C1341 1.491 . S
C1347 C1346 1.400 . S
C1347 C1348 1.398 . S
C1348 H1336 0.950 . S
C1348 C1347 1.398 . S
C1348 C1349 1.391 . S
C1349 H1337 0.950 . S
C1349 C1345 1.393 . S
C1349 C1348 1.391 . S
H1350 C1358 0.950 . S
H1351 C1363 0.950 . S
H1352 C1360 0.950 . S
H1353 C1362 0.950 . S
H1354 C1364 0.950 . S
H1355 C1366 0.950 . S
H1356 C1368 0.950 . S
H1357 C1369 0.950 . S
C1358 H1350 0.950 . S
C1358 C1359 1.386 . S
C1358 C1360 1.391 . S
C1359 C1358 1.386 . S
C1359 C1363 1.393 . S
C1360 H1352 0.950 . S
C1360 C1358 1.391 . S
C1360 C1361 1.400 . S
C1361 C1360 1.400 . S
C1361 C1362 1.398 . S
C1361 C1367 1.491 . S
C1362 H1353 0.950 . S
C1362 C1361 1.398 . S
C1362 C1363 1.391 . S
C1363 H1351 0.950 . S
C1363 C1359 1.393 . S
C1363 C1362 1.391 . S
C1364 H1354 0.950 . S
C1364 C1365 1.386 . S
C1364 C1366 1.391 . S
C1365 C1364 1.386 . S
C1365 C1369 1.393 . S
C1366 H1355 0.950 . S
C1366 C1364 1.391 . S
C1366 C1367 1.400 . S
C1367 C1361 1.491 . S
C1367 C1366 1.400 . S
C1367 C1368 1.398 . S
C1368 H1356 0.950 . S
C1368 C1367 1.398 . S
C1368 C1369 1.391 . S
C1369 H1357 0.950 . S
C1369 C1365 1.393 . S
C1369 C1368 1.391 . S
H1370 C1378 0.950 . S
H1371 C1383 0.950 . S
H1372 C1380 0.950 . S
H1373 C1382 0.950 . S
H1374 C1384 0.950 . S
H1375 C1386 0.950 . S
H1376 C1388 0.950 . S
H1377 C1389 0.950 . S
C1378 H1370 0.950 . S
C1378 C1379 1.386 . S
C1378 C1380 1.391 . S
C1379 C1378 1.386 . S
C1379 C1383 1.393 . S
C1380 H1372 0.950 . S
C1380 C1378 1.391 . S
C1380 C1381 1.400 . S
C1381 C1380 1.400 . S
C1381 C1382 1.398 . S
C1381 C1387 1.491 . S
C1382 H1373 0.950 . S
C1382 C1381 1.398 . S
C1382 C1383 1.391 . S
C1383 H1371 0.950 . S
C1383 C1379 1.393 . S
C1383 C1382 1.391 . S
C1384 H1374 0.950 . S
C1384 C1385 1.386 . S
C1384 C1386 1.391 . S
C1385 C1384 1.386 . S
C1385 C1389 1.393 . S
C1386 H1375 0.950 . S
C1386 C1384 1.391 . S
C1386 C1387 1.400 . S
C1387 C1381 1.491 . S
C1387 C1386 1.400 . S
C1387 C1388 1.398 . S
C1388 H1376 0.950 . S
C1388 C1387 1.398 . S
C1388 C1389 1.391 . S
C1389 H1377 0.950 . S
C1389 C1385 1.393 . S
C1389 C1388 1.391 . S
H1390 C1398 0.950 . S
H1391 C1403 0.950 . S
H1392 C1400 0.950 . S
H1393 C1402 0.950 . S
H1394 C1404 0.950 . S
H1395 C1406 0.950 . S
H1396 C1408 0.950 . S
H1397 C1409 0.950 . S
C1398 H1390 0.950 . S
C1398 C1399 1.386 . S
C1398 C1400 1.391 . S
C1399 C1398 1.386 . S
C1399 C1403 1.393 . S
C1400 H1392 0.950 . S
C1400 C1398 1.391 . S
C1400 C1401 1.400 . S
C1401 C1400 1.400 . S
C1401 C1402 1.398 . S
C1401 C1407 1.491 . S
C1402 H1393 0.950 . S
C1402 C1401 1.398 . S
C1402 C1403 1.391 . S
C1403 H1391 0.950 . S
C1403 C1399 1.393 . S
C1403 C1402 1.391 . S
C1404 H1394 0.950 . S
C1404 C1405 1.386 . S
C1404 C1406 1.391 . S
C1405 C1404 1.386 . S
C1405 C1409 1.393 . S
C1406 H1395 0.950 . S
C1406 C1404 1.391 . S
C1406 C1407 1.400 . S
C1407 C1401 1.491 . S
C1407 C1406 1.400 . S
C1407 C1408 1.398 . S
C1408 H1396 0.950 . S
C1408 C1407 1.398 . S
C1408 C1409 1.391 . S
C1409 H1397 0.950 . S
C1409 C1405 1.393 . S
C1409 C1408 1.391 . S
H1410 C1418 0.950 . S
H1411 C1423 0.950 . S
H1412 C1420 0.950 . S
H1413 C1422 0.950 1_565 S
H1414 C1424 0.950 . S
H1415 C1426 0.950 . S
H1416 C1428 0.950 . S
H1417 C1429 0.950 . S
C1418 H1410 0.950 . S
C1418 C1419 1.386 . S
C1418 C1420 1.391 . S
C1419 C1418 1.386 . S
C1419 C1423 1.393 . S
C1420 H1412 0.950 . S
C1420 C1418 1.391 . S
C1420 C1421 1.400 . S
C1421 C1420 1.400 . S
C1421 C1422 1.398 . S
C1421 C1427 1.491 1_545 S
C1422 H1413 0.950 1_545 S
C1422 C1421 1.398 . S
C1422 C1423 1.391 . S
C1423 H1411 0.950 . S
C1423 C1419 1.393 . S
C1423 C1422 1.391 . S
C1424 H1414 0.950 . S
C1424 C1425 1.386 . S
C1424 C1426 1.391 . S
C1425 C1424 1.386 . S
C1425 C1429 1.393 . S
C1426 H1415 0.950 . S
C1426 C1424 1.391 . S
C1426 C1427 1.400 . S
C1427 C1421 1.491 1_565 S
C1427 C1426 1.400 . S
C1427 C1428 1.398 . S
C1428 H1416 0.950 . S
C1428 C1427 1.398 . S
C1428 C1429 1.391 . S
C1429 H1417 0.950 . S
C1429 C1425 1.393 . S
C1429 C1428 1.391 . S
H1430 C1438 0.950 . S
H1431 C1443 0.950 . S
H1432 C1440 0.950 . S
H1433 C1442 0.950 . S
H1434 C1444 0.950 . S
H1435 C1446 0.950 . S
H1436 C1448 0.950 . S
H1437 C1449 0.950 . S
C1438 H1430 0.950 . S
C1438 C1439 1.386 . S
C1438 C1440 1.391 1_655 S
C1439 C1438 1.386 . S
C1439 C1443 1.393 . S
C1440 H1432 0.950 . S
C1440 C1438 1.391 1_455 S
C1440 C1441 1.400 . S
C1441 C1440 1.400 . S
C1441 C1442 1.398 1_455 S
C1441 C1447 1.491 . S
C1442 H1433 0.950 . S
C1442 C1441 1.398 1_655 S
C1442 C1443 1.391 . S
C1443 H1431 0.950 . S
C1443 C1439 1.393 . S
C1443 C1442 1.391 . S
C1444 H1434 0.950 . S
C1444 C1445 1.386 . S
C1444 C1446 1.391 . S
C1445 C1444 1.386 . S
C1445 C1449 1.393 . S
C1446 H1435 0.950 . S
C1446 C1444 1.391 . S
C1446 C1447 1.400 . S
C1447 C1441 1.491 . S
C1447 C1446 1.400 . S
C1447 C1448 1.398 . S
C1448 H1436 0.950 . S
C1448 C1447 1.398 . S
C1448 C1449 1.391 . S
C1449 H1437 0.950 . S
C1449 C1445 1.393 . S
C1449 C1448 1.391 . S
H1450 C1458 0.950 . S
H1451 C1463 0.950 . S
H1452 C1460 0.950 . S
H1453 C1462 0.950 . S
H1454 C1464 0.950 . S
H1455 C1466 0.950 . S
H1456 C1468 0.950 . S
H1457 C1469 0.950 . S
C1458 H1450 0.950 . S
C1458 C1459 1.386 . S
C1458 C1460 1.391 . S
C1459 C1458 1.386 . S
C1459 C1463 1.393 . S
C1460 H1452 0.950 . S
C1460 C1458 1.391 . S
C1460 C1461 1.400 . S
C1461 C1460 1.400 . S
C1461 C1462 1.398 . S
C1461 C1467 1.491 . S
C1462 H1453 0.950 . S
C1462 C1461 1.398 . S
C1462 C1463 1.391 . S
C1463 H1451 0.950 . S
C1463 C1459 1.393 . S
C1463 C1462 1.391 . S
C1464 H1454 0.950 . S
C1464 C1465 1.386 . S
C1464 C1466 1.391 . S
C1465 C1464 1.386 . S
C1465 C1469 1.393 . S
C1466 H1455 0.950 . S
C1466 C1464 1.391 . S
C1466 C1467 1.400 . S
C1467 C1461 1.491 . S
C1467 C1466 1.400 . S
C1467 C1468 1.398 . S
C1468 H1456 0.950 . S
C1468 C1467 1.398 . S
C1468 C1469 1.391 . S
C1469 H1457 0.950 . S
C1469 C1465 1.393 . S
C1469 C1468 1.391 . S
H1470 C1478 0.950 . S
H1471 C1483 0.950 . S
H1472 C1480 0.950 . S
H1473 C1482 0.950 . S
H1474 C1484 0.950 . S
H1475 C1486 0.950 . S
H1476 C1488 0.950 . S
H1477 C1489 0.950 . S
C1478 H1470 0.950 . S
C1478 C1479 1.386 . S
C1478 C1480 1.391 . S
C1479 C1478 1.386 . S
C1479 C1483 1.393 . S
C1480 H1472 0.950 . S
C1480 C1478 1.391 . S
C1480 C1481 1.400 . S
C1481 C1480 1.400 . S
C1481 C1482 1.398 . S
C1481 C1487 1.491 . S
C1482 H1473 0.950 . S
C1482 C1481 1.398 . S
C1482 C1483 1.391 . S
C1483 H1471 0.950 . S
C1483 C1479 1.393 . S
C1483 C1482 1.391 . S
C1484 H1474 0.950 . S
C1484 C1485 1.386 . S
C1484 C1486 1.391 . S
C1485 C1484 1.386 . S
C1485 C1489 1.393 . S
C1486 H1475 0.950 . S
C1486 C1484 1.391 . S
C1486 C1487 1.400 . S
C1487 C1481 1.491 . S
C1487 C1486 1.400 . S
C1487 C1488 1.398 . S
C1488 H1476 0.950 . S
C1488 C1487 1.398 . S
C1488 C1489 1.391 . S
C1489 H1477 0.950 . S
C1489 C1485 1.393 . S
C1489 C1488 1.391 . S
H1490 C1498 0.950 . S
H1491 C1503 0.950 . S
H1492 C1500 0.950 . S
H1493 C1502 0.950 . S
H1494 C1504 0.950 . S
H1495 C1506 0.950 . S
H1496 C1508 0.950 . S
H1497 C1509 0.950 . S
C1498 H1490 0.950 . S
C1498 C1499 1.386 . S
C1498 C1500 1.391 . S
C1499 C1498 1.386 . S
C1499 C1503 1.393 . S
C1500 H1492 0.950 . S
C1500 C1498 1.391 . S
C1500 C1501 1.400 . S
C1501 C1500 1.400 . S
C1501 C1502 1.398 . S
C1501 C1507 1.491 . S
C1502 H1493 0.950 . S
C1502 C1501 1.398 . S
C1502 C1503 1.391 . S
C1503 H1491 0.950 . S
C1503 C1499 1.393 . S
C1503 C1502 1.391 . S
C1504 H1494 0.950 . S
C1504 C1505 1.386 . S
C1504 C1506 1.391 . S
C1505 C1504 1.386 . S
C1505 C1509 1.393 . S
C1506 H1495 0.950 . S
C1506 C1504 1.391 . S
C1506 C1507 1.400 . S
C1507 C1501 1.491 . S
C1507 C1506 1.400 . S
C1507 C1508 1.398 . S
C1508 H1496 0.950 . S
C1508 C1507 1.398 . S
C1508 C1509 1.391 . S
C1509 H1497 0.950 . S
C1509 C1505 1.393 . S
C1509 C1508 1.391 . S
H1510 C1518 0.950 . S
H1511 C1523 0.950 . S
H1512 C1520 0.950 . S
H1513 C1522 0.950 . S
H1514 C1524 0.950 . S
H1515 C1526 0.950 . S
H1516 C1528 0.950 . S
H1517 C1529 0.950 . S
C1518 H1510 0.950 . S
C1518 C1519 1.386 . S
C1518 C1520 1.391 . S
C1519 C1518 1.386 . S
C1519 C1523 1.393 . S
C1520 H1512 0.950 . S
C1520 C1518 1.391 . S
C1520 C1521 1.400 . S
C1521 C1520 1.400 . S
C1521 C1522 1.398 . S
C1521 C1527 1.491 . S
C1522 H1513 0.950 . S
C1522 C1521 1.398 . S
C1522 C1523 1.391 . S
C1523 H1511 0.950 . S
C1523 C1519 1.393 . S
C1523 C1522 1.391 . S
C1524 H1514 0.950 . S
C1524 C1525 1.386 . S
C1524 C1526 1.391 . S
C1525 C1524 1.386 . S
C1525 C1529 1.393 . S
C1526 H1515 0.950 . S
C1526 C1524 1.391 . S
C1526 C1527 1.400 . S
C1527 C1521 1.491 . S
C1527 C1526 1.400 . S
C1527 C1528 1.398 . S
C1528 H1516 0.950 . S
C1528 C1527 1.398 . S
C1528 C1529 1.391 . S
C1529 H1517 0.950 . S
C1529 C1525 1.393 . S
C1529 C1528 1.391 . S
H1530 C1538 0.950 . S
H1531 C1543 0.950 . S
H1532 C1540 0.950 . S
H1533 C1542 0.950 1_545 S
H1534 C1544 0.950 . S
H1535 C1546 0.950 . S
H1536 C1548 0.950 . S
H1537 C1549 0.950 . S
C1538 H1530 0.950 . S
C1538 C1539 1.386 . S
C1538 C1540 1.391 1_565 S
C1539 C1538 1.386 . S
C1539 C1543 1.393 . S
C1540 H1532 0.950 . S
C1540 C1538 1.391 1_545 S
C1540 C1541 1.400 . S
C1541 C1540 1.400 . S
C1541 C1542 1.398 1_545 S
C1541 C1547 1.491 . S
C1542 H1533 0.950 1_565 S
C1542 C1541 1.398 1_565 S
C1542 C1543 1.391 . S
C1543 H1531 0.950 . S
C1543 C1539 1.393 . S
C1543 C1542 1.391 . S
C1544 H1534 0.950 . S
C1544 C1545 1.386 . S
C1544 C1546 1.391 . S
C1545 C1544 1.386 . S
C1545 C1549 1.393 . S
C1546 H1535 0.950 . S
C1546 C1544 1.391 . S
C1546 C1547 1.400 . S
C1547 C1541 1.491 . S
C1547 C1546 1.400 . S
C1547 C1548 1.398 . S
C1548 H1536 0.950 . S
C1548 C1547 1.398 . S
C1548 C1549 1.391 . S
C1549 H1537 0.950 . S
C1549 C1545 1.393 . S
C1549 C1548 1.391 . S
H1550 C1558 0.950 . S
H1551 C1563 0.950 . S
H1552 C1560 0.950 . S
H1553 C1562 0.959 1_455 S
H1554 C1564 0.950 . S
H1555 C1566 0.950 . S
H1556 C1568 0.950 . S
H1557 C1569 0.950 . S
C1558 H1550 0.950 . S
C1558 C1559 1.386 1_655 S
C1558 C1560 1.391 . S
C1559 C1558 1.386 1_455 S
C1559 C1563 1.393 . S
C1560 H1552 0.950 . S
C1560 C1558 1.391 . S
C1560 C1561 1.400 . S
C1561 C1560 1.400 . S
C1561 C1562 1.415 . S
C1561 C1567 1.491 . S
C1562 H1553 0.959 1_655 S
C1562 C1561 1.415 . S
C1562 C1563 1.365 1_655 S
C1563 H1551 0.950 . S
C1563 C1559 1.393 . S
C1563 C1562 1.365 1_455 S
C1564 H1554 0.950 . S
C1564 C1565 1.386 . S
C1564 C1566 1.391 . S
C1565 C1564 1.386 . S
C1565 C1569 1.393 . S
C1566 H1555 0.950 . S
C1566 C1564 1.391 . S
C1566 C1567 1.400 . S
C1567 C1561 1.491 . S
C1567 C1566 1.400 . S
C1567 C1568 1.398 . S
C1568 H1556 0.950 . S
C1568 C1567 1.398 . S
C1568 C1569 1.391 . S
C1569 H1557 0.950 . S
C1569 C1565 1.393 . S
C1569 C1568 1.391 . S
H1570 C1578 0.950 . S
H1571 C1583 0.950 . S
H1572 C1580 0.950 . S
H1573 C1582 0.950 . S
H1574 C1584 0.950 . S
H1575 C1586 0.950 . S
H1576 C1588 0.950 . S
H1577 C1589 0.950 . S
C1578 H1570 0.950 . S
C1578 C1579 1.386 . S
C1578 C1580 1.391 . S
C1579 C1578 1.386 . S
C1579 C1583 1.393 . S
C1580 H1572 0.950 . S
C1580 C1578 1.391 . S
C1580 C1581 1.400 . S
C1581 C1580 1.400 . S
C1581 C1582 1.398 . S
C1581 C1587 1.491 . S
C1582 H1573 0.950 . S
C1582 C1581 1.398 . S
C1582 C1583 1.391 . S
C1583 H1571 0.950 . S
C1583 C1579 1.393 . S
C1583 C1582 1.391 . S
C1584 H1574 0.950 . S
C1584 C1585 1.386 . S
C1584 C1586 1.391 . S
C1585 C1584 1.386 . S
C1585 C1589 1.393 . S
C1586 H1575 0.950 . S
C1586 C1584 1.391 . S
C1586 C1587 1.400 . S
C1587 C1581 1.491 . S
C1587 C1586 1.400 . S
C1587 C1588 1.398 . S
C1588 H1576 0.950 . S
C1588 C1587 1.398 . S
C1588 C1589 1.391 . S
C1589 H1577 0.950 . S
C1589 C1585 1.393 . S
C1589 C1588 1.391 . S
H1590 C1598 0.950 . S
H1591 C1603 0.950 . S
H1592 C1600 0.950 . S
H1593 C1602 0.950 . S
H1594 C1604 0.950 . S
H1595 C1606 0.950 . S
H1596 C1608 0.950 1_455 S
H1597 C1609 0.950 . S
C1598 H1590 0.950 . S
C1598 C1599 1.386 . S
C1598 C1600 1.391 . S
C1599 C1598 1.386 . S
C1599 C1603 1.393 . S
C1600 H1592 0.950 . S
C1600 C1598 1.391 . S
C1600 C1601 1.400 . S
C1601 C1600 1.400 . S
C1601 C1602 1.398 . S
C1601 C1607 1.502 . S
C1602 H1593 0.950 . S
C1602 C1601 1.398 . S
C1602 C1603 1.391 . S
C1603 H1591 0.950 . S
C1603 C1599 1.393 . S
C1603 C1602 1.391 . S
C1604 H1594 0.950 . S
C1604 C1605 1.386 . S
C1604 C1606 1.391 . S
C1605 C1604 1.386 . S
C1605 C1609 1.393 . S
C1606 H1595 0.950 . S
C1606 C1604 1.391 . S
C1606 C1607 1.386 1_655 S
C1607 C1601 1.502 . S
C1607 C1606 1.386 1_455 S
C1607 C1608 1.400 1_455 S
C1608 H1596 0.950 1_655 S
C1608 C1607 1.400 1_655 S
C1608 C1609 1.391 . S
C1609 H1597 0.950 . S
C1609 C1605 1.393 . S
C1609 C1608 1.391 . S
H1610 C1618 0.950 . S
H1611 C1623 0.950 . S
H1612 C1620 0.950 . S
H1613 C1622 0.950 . S
H1614 C1624 0.950 . S
H1615 C1626 0.950 . S
H1616 C1628 0.950 . S
H1617 C1629 0.950 . S
C1618 H1610 0.950 . S
C1618 C1619 1.386 . S
C1618 C1620 1.391 . S
C1619 C1618 1.386 . S
C1619 C1623 1.393 . S
C1620 H1612 0.950 . S
C1620 C1618 1.391 . S
C1620 C1621 1.400 . S
C1621 C1620 1.400 . S
C1621 C1622 1.398 . S
C1621 C1627 1.491 . S
C1622 H1613 0.950 . S
C1622 C1621 1.398 . S
C1622 C1623 1.391 . S
C1623 H1611 0.950 . S
C1623 C1619 1.393 . S
C1623 C1622 1.391 . S
C1624 H1614 0.950 . S
C1624 C1625 1.386 . S
C1624 C1626 1.391 . S
C1625 C1624 1.386 . S
C1625 C1629 1.393 . S
C1626 H1615 0.950 . S
C1626 C1624 1.391 . S
C1626 C1627 1.400 . S
C1627 C1621 1.491 . S
C1627 C1626 1.400 . S
C1627 C1628 1.398 . S
C1628 H1616 0.950 . S
C1628 C1627 1.398 . S
C1628 C1629 1.391 . S
C1629 H1617 0.950 . S
C1629 C1625 1.393 . S
C1629 C1628 1.391 . S
H1630 C1638 0.950 . S
H1631 C1643 0.950 . S
H1632 C1640 0.950 1_545 S
H1633 C1642 0.950 . S
H1634 C1644 0.950 . S
H1635 C1646 0.950 . S
H1636 C1648 0.950 . S
H1637 C1649 0.950 . S
C1638 H1630 0.950 . S
C1638 C1639 1.386 . S
C1638 C1640 1.391 . S
C1639 C1638 1.386 . S
C1639 C1643 1.393 . S
C1640 H1632 0.950 1_565 S
C1640 C1638 1.391 . S
C1640 C1641 1.400 . S
C1641 C1640 1.400 . S
C1641 C1642 1.398 . S
C1641 C1647 1.491 1_565 S
C1642 H1633 0.950 . S
C1642 C1641 1.398 . S
C1642 C1643 1.391 . S
C1643 H1631 0.950 . S
C1643 C1639 1.393 . S
C1643 C1642 1.391 . S
C1644 H1634 0.950 . S
C1644 C1645 1.386 . S
C1644 C1646 1.391 . S
C1645 C1644 1.386 . S
C1645 C1649 1.393 . S
C1646 H1635 0.950 . S
C1646 C1644 1.391 . S
C1646 C1647 1.400 . S
C1647 C1641 1.491 1_545 S
C1647 C1646 1.400 . S
C1647 C1648 1.398 . S
C1648 H1636 0.950 . S
C1648 C1647 1.398 . S
C1648 C1649 1.391 . S
C1649 H1637 0.950 . S
C1649 C1645 1.393 . S
C1649 C1648 1.391 . S
H1650 C1658 0.950 . S
H1651 C1663 0.950 . S
H1652 C1660 0.950 . S
H1653 C1662 0.950 . S
H1654 C1664 0.950 . S
H1655 C1666 0.950 . S
H1656 C1668 0.950 . S
H1657 C1669 0.950 . S
C1658 H1650 0.950 . S
C1658 C1659 1.386 . S
C1658 C1660 1.391 . S
C1659 C1658 1.386 . S
C1659 C1663 1.393 . S
C1660 H1652 0.950 . S
C1660 C1658 1.391 . S
C1660 C1661 1.400 . S
C1661 C1660 1.400 . S
C1661 C1662 1.398 . S
C1661 C1667 1.491 . S
C1662 H1653 0.950 . S
C1662 C1661 1.398 . S
C1662 C1663 1.391 . S
C1663 H1651 0.950 . S
C1663 C1659 1.393 . S
C1663 C1662 1.391 . S
C1664 H1654 0.950 . S
C1664 C1665 1.386 . S
C1664 C1666 1.391 . S
C1665 C1664 1.386 . S
C1665 C1669 1.393 . S
C1666 H1655 0.950 . S
C1666 C1664 1.391 . S
C1666 C1667 1.400 . S
C1667 C1661 1.491 . S
C1667 C1666 1.400 . S
C1667 C1668 1.398 . S
C1668 H1656 0.950 . S
C1668 C1667 1.398 . S
C1668 C1669 1.391 . S
C1669 H1657 0.950 . S
C1669 C1665 1.393 . S
C1669 C1668 1.391 . S
H1670 C1678 0.950 . S
H1671 C1683 0.950 . S
H1672 C1680 0.950 . S
H1673 C1682 0.950 . S
H1674 C1684 0.950 . S
H1675 C1686 0.950 . S
H1676 C1688 0.950 . S
H1677 C1689 0.950 . S
C1678 H1670 0.950 . S
C1678 C1679 1.386 . S
C1678 C1680 1.391 . S
C1679 C1678 1.386 . S
C1679 C1683 1.393 . S
C1680 H1672 0.950 . S
C1680 C1678 1.391 . S
C1680 C1681 1.400 . S
C1681 C1680 1.400 . S
C1681 C1682 1.398 . S
C1681 C1687 1.491 . S
C1682 H1673 0.950 . S
C1682 C1681 1.398 . S
C1682 C1683 1.391 . S
C1683 H1671 0.950 . S
C1683 C1679 1.393 . S
C1683 C1682 1.391 . S
C1684 H1674 0.950 . S
C1684 C1685 1.386 . S
C1684 C1686 1.391 . S
C1685 C1684 1.386 . S
C1685 C1689 1.393 . S
C1686 H1675 0.950 . S
C1686 C1684 1.391 . S
C1686 C1687 1.400 . S
C1687 C1681 1.491 . S
C1687 C1686 1.400 . S
C1687 C1688 1.398 . S
C1688 H1676 0.950 . S
C1688 C1687 1.398 . S
C1688 C1689 1.391 . S
C1689 H1677 0.950 . S
C1689 C1685 1.393 . S
C1689 C1688 1.391 . S
H1690 C1698 0.950 . S
H1691 C1703 0.950 . S
H1692 C1700 0.950 . S
H1693 C1702 0.950 . S
H1694 C1704 0.950 . S
H1695 C1706 0.950 . S
H1696 C1708 0.950 . S
H1697 C1709 0.950 . S
C1698 H1690 0.950 . S
C1698 C1699 1.386 . S
C1698 C1700 1.391 . S
C1699 C1698 1.386 . S
C1699 C1703 1.393 . S
C1700 H1692 0.950 . S
C1700 C1698 1.391 . S
C1700 C1701 1.400 . S
C1701 C1700 1.400 . S
C1701 C1702 1.398 . S
C1701 C1707 1.491 . S
C1702 H1693 0.950 . S
C1702 C1701 1.398 . S
C1702 C1703 1.391 . S
C1703 H1691 0.950 . S
C1703 C1699 1.393 . S
C1703 C1702 1.391 . S
C1704 H1694 0.950 . S
C1704 C1705 1.386 . S
C1704 C1706 1.391 . S
C1705 C1704 1.386 . S
C1705 C1709 1.393 . S
C1706 H1695 0.950 . S
C1706 C1704 1.391 . S
C1706 C1707 1.400 . S
C1707 C1701 1.491 . S
C1707 C1706 1.400 . S
C1707 C1708 1.398 . S
C1708 H1696 0.950 . S
C1708 C1707 1.398 . S
C1708 C1709 1.391 . S
C1709 H1697 0.950 . S
C1709 C1705 1.393 . S
C1709 C1708 1.391 . S
H1710 C1718 0.950 . S
H1711 C1723 0.950 . S
H1712 C1720 0.950 . S
H1713 C1722 0.950 . S
H1714 C1724 0.950 . S
H1715 C1726 0.950 . S
H1716 C1728 0.950 . S
H1717 C1729 0.950 . S
C1718 H1710 0.950 . S
C1718 C1719 1.386 . S
C1718 C1720 1.391 . S
C1719 C1718 1.386 . S
C1719 C1723 1.393 . S
C1720 H1712 0.950 . S
C1720 C1718 1.391 . S
C1720 C1721 1.400 . S
C1721 C1720 1.400 . S
C1721 C1722 1.398 . S
C1721 C1727 1.491 . S
C1722 H1713 0.950 . S
C1722 C1721 1.398 . S
C1722 C1723 1.391 . S
C1723 H1711 0.950 . S
C1723 C1719 1.393 . S
C1723 C1722 1.391 . S
C1724 H1714 0.950 . S
C1724 C1725 1.386 . S
C1724 C1726 1.391 . S
C1725 C1724 1.386 . S
C1725 C1729 1.393 . S
C1726 H1715 0.950 . S
C1726 C1724 1.391 . S
C1726 C1727 1.400 . S
C1727 C1721 1.491 . S
C1727 C1726 1.400 . S
C1727 C1728 1.398 . S
C1728 H1716 0.950 . S
C1728 C1727 1.398 . S
C1728 C1729 1.391 . S
C1729 H1717 0.950 . S
C1729 C1725 1.393 . S
C1729 C1728 1.391 . S
H1730 C1738 0.950 . S
H1731 C1743 0.950 . S
H1732 C1740 0.950 . S
H1733 C1742 0.950 . S
H1734 C1744 0.950 . S
H1735 C1746 0.950 . S
H1736 C1748 0.950 . S
H1737 C1749 0.950 . S
C1738 H1730 0.950 . S
C1738 C1739 1.386 . S
C1738 C1740 1.391 . S
C1739 C1738 1.386 . S
C1739 C1743 1.393 . S
C1740 H1732 0.950 . S
C1740 C1738 1.391 . S
C1740 C1741 1.400 . S
C1741 C1740 1.400 . S
C1741 C1742 1.398 . S
C1741 C1747 1.491 . S
C1742 H1733 0.950 . S
C1742 C1741 1.398 . S
C1742 C1743 1.391 . S
C1743 H1731 0.950 . S
C1743 C1739 1.393 . S
C1743 C1742 1.391 . S
C1744 H1734 0.950 . S
C1744 C1745 1.386 . S
C1744 C1746 1.391 . S
C1745 C1744 1.386 . S
C1745 C1749 1.393 . S
C1746 H1735 0.950 . S
C1746 C1744 1.391 . S
C1746 C1747 1.400 . S
C1747 C1741 1.491 . S
C1747 C1746 1.400 . S
C1747 C1748 1.398 . S
C1748 H1736 0.950 . S
C1748 C1747 1.398 . S
C1748 C1749 1.391 . S
C1749 H1737 0.950 . S
C1749 C1745 1.393 . S
C1749 C1748 1.391 . S
H1750 C1758 0.950 . S
H1751 C1763 0.950 . S
H1752 C1760 0.950 . S
H1753 C1762 0.950 . S
H1754 C1764 0.950 . S
H1755 C1766 0.950 . S
H1756 C1768 0.950 . S
H1757 C1769 0.950 . S
C1758 H1750 0.950 . S
C1758 C1759 1.386 . S
C1758 C1760 1.391 . S
C1759 C1758 1.386 . S
C1759 C1763 1.393 . S
C1760 H1752 0.950 . S
C1760 C1758 1.391 . S
C1760 C1761 1.400 . S
C1761 C1760 1.400 . S
C1761 C1762 1.398 . S
C1761 C1767 1.491 . S
C1762 H1753 0.950 . S
C1762 C1761 1.398 . S
C1762 C1763 1.391 . S
C1763 H1751 0.950 . S
C1763 C1759 1.393 . S
C1763 C1762 1.391 . S
C1764 H1754 0.950 . S
C1764 C1765 1.386 . S
C1764 C1766 1.391 . S
C1765 C1764 1.386 . S
C1765 C1769 1.393 . S
C1766 H1755 0.950 . S
C1766 C1764 1.391 . S
C1766 C1767 1.400 . S
C1767 C1761 1.491 . S
C1767 C1766 1.400 . S
C1767 C1768 1.398 . S
C1768 H1756 0.950 . S
C1768 C1767 1.398 . S
C1768 C1769 1.391 . S
C1769 H1757 0.950 . S
C1769 C1765 1.393 . S
C1769 C1768 1.391 . S
H1770 C1778 0.950 . S
H1771 C1783 0.950 . S
H1772 C1780 0.950 . S
H1773 C1782 0.950 . S
H1774 C1784 0.950 1_455 S
H1775 C1786 0.927 1_455 S
H1776 C1788 0.950 . S
H1777 C1789 0.950 . S
C1778 H1770 0.950 . S
C1778 C1779 1.386 . S
C1778 C1780 1.391 . S
C1779 C1778 1.386 . S
C1779 C1783 1.393 . S
C1780 H1772 0.950 . S
C1780 C1778 1.391 . S
C1780 C1781 1.400 . S
C1781 C1780 1.400 . S
C1781 C1782 1.398 . S
C1781 C1787 1.491 . S
C1782 H1773 0.950 . S
C1782 C1781 1.398 . S
C1782 C1783 1.391 . S
C1783 H1771 0.950 . S
C1783 C1779 1.393 . S
C1783 C1782 1.391 . S
C1784 H1774 0.950 1_655 S
C1784 C1785 1.386 . S
C1784 C1786 1.391 . S
C1785 C1784 1.386 . S
C1785 C1789 1.393 . S
C1786 H1775 0.927 1_655 S
C1786 C1784 1.391 . S
C1786 C1787 1.400 . S
C1787 C1781 1.491 . S
C1787 C1786 1.400 . S
C1787 C1788 1.398 . S
C1788 H1776 0.950 . S
C1788 C1787 1.398 . S
C1788 C1789 1.391 . S
C1789 H1777 0.950 . S
C1789 C1785 1.393 . S
C1789 C1788 1.391 . S
H1790 C1798 0.950 . S
H1791 C1803 0.950 . S
H1792 C1800 0.950 . S
H1793 C1802 0.950 . S
H1794 C1804 0.950 . S
H1795 C1806 0.950 . S
H1796 C1808 0.950 . S
H1797 C1809 0.950 . S
C1798 H1790 0.950 . S
C1798 C1799 1.386 . S
C1798 C1800 1.391 . S
C1799 C1798 1.386 . S
C1799 C1803 1.393 . S
C1800 H1792 0.950 . S
C1800 C1798 1.391 . S
C1800 C1801 1.400 . S
C1801 C1800 1.400 . S
C1801 C1802 1.398 . S
C1801 C1807 1.491 . S
C1802 H1793 0.950 . S
C1802 C1801 1.398 . S
C1802 C1803 1.391 . S
C1803 H1791 0.950 . S
C1803 C1799 1.393 . S
C1803 C1802 1.391 . S
C1804 H1794 0.950 . S
C1804 C1805 1.386 . S
C1804 C1806 1.391 . S
C1805 C1804 1.386 . S
C1805 C1809 1.393 . S
C1806 H1795 0.950 . S
C1806 C1804 1.391 . S
C1806 C1807 1.400 . S
C1807 C1801 1.491 . S
C1807 C1806 1.400 . S
C1807 C1808 1.398 . S
C1808 H1796 0.950 . S
C1808 C1807 1.398 . S
C1808 C1809 1.391 . S
C1809 H1797 0.950 . S
C1809 C1805 1.393 . S
C1809 C1808 1.391 . S
H1810 C1818 0.950 . S
H1811 C1823 0.950 . S
H1812 C1820 0.950 . S
H1813 C1822 0.950 . S
H1814 C1824 0.950 . S
H1815 C1826 0.950 . S
H1816 C1828 0.950 . S
H1817 C1829 0.950 . S
C1818 H1810 0.950 . S
C1818 C1819 1.386 . S
C1818 C1820 1.391 . S
C1819 C1818 1.386 . S
C1819 C1823 1.393 . S
C1820 H1812 0.950 . S
C1820 C1818 1.391 . S
C1820 C1821 1.400 . S
C1821 C1820 1.400 . S
C1821 C1822 1.398 . S
C1821 C1827 1.491 . S
C1822 H1813 0.950 . S
C1822 C1821 1.398 . S
C1822 C1823 1.391 . S
C1823 H1811 0.950 . S
C1823 C1819 1.393 . S
C1823 C1822 1.391 . S
C1824 H1814 0.950 . S
C1824 C1825 1.386 . S
C1824 C1826 1.391 . S
C1825 C1824 1.386 . S
C1825 C1829 1.393 . S
C1826 H1815 0.950 . S
C1826 C1824 1.391 . S
C1826 C1827 1.400 . S
C1827 C1821 1.491 . S
C1827 C1826 1.400 . S
C1827 C1828 1.398 . S
C1828 H1816 0.950 . S
C1828 C1827 1.398 . S
C1828 C1829 1.391 . S
C1829 H1817 0.950 . S
C1829 C1825 1.393 . S
C1829 C1828 1.391 . S
H1830 C1838 0.950 . S
H1831 C1843 0.950 . S
H1832 C1840 0.950 . S
H1833 C1842 0.950 . S
H1834 C1844 0.950 . S
H1835 C1846 0.950 . S
H1836 C1848 0.950 . S
H1837 C1849 0.950 . S
C1838 H1830 0.950 . S
C1838 C1839 1.386 . S
C1838 C1840 1.391 . S
C1839 C1838 1.386 . S
C1839 C1843 1.393 . S
C1840 H1832 0.950 . S
C1840 C1838 1.391 . S
C1840 C1841 1.400 . S
C1841 C1840 1.400 . S
C1841 C1842 1.398 . S
C1841 C1847 1.491 . S
C1842 H1833 0.950 . S
C1842 C1841 1.398 . S
C1842 C1843 1.391 . S
C1843 H1831 0.950 . S
C1843 C1839 1.393 . S
C1843 C1842 1.391 . S
C1844 H1834 0.950 . S
C1844 C1845 1.386 . S
C1844 C1846 1.391 . S
C1845 C1844 1.386 . S
C1845 C1849 1.393 . S
C1846 H1835 0.950 . S
C1846 C1844 1.391 . S
C1846 C1847 1.400 . S
C1847 C1841 1.491 . S
C1847 C1846 1.400 . S
C1847 C1848 1.398 . S
C1848 H1836 0.950 . S
C1848 C1847 1.398 . S
C1848 C1849 1.391 . S
C1849 H1837 0.950 . S
C1849 C1845 1.393 . S
C1849 C1848 1.391 . S
H1850 C1858 0.950 . S
H1851 C1863 0.950 . S
H1852 C1860 0.950 . S
H1853 C1862 0.950 . S
H1854 C1864 0.950 . S
H1855 C1866 0.950 . S
H1856 C1868 0.950 . S
H1857 C1869 0.950 . S
C1858 H1850 0.950 . S
C1858 C1859 1.386 . S
C1858 C1860 1.391 . S
C1859 C1858 1.386 . S
C1859 C1863 1.393 . S
C1860 H1852 0.950 . S
C1860 C1858 1.391 . S
C1860 C1861 1.400 . S
C1861 C1860 1.400 . S
C1861 C1862 1.398 . S
C1861 C1867 1.491 . S
C1862 H1853 0.950 . S
C1862 C1861 1.398 . S
C1862 C1863 1.391 . S
C1863 H1851 0.950 . S
C1863 C1859 1.393 . S
C1863 C1862 1.391 . S
C1864 H1854 0.950 . S
C1864 C1865 1.386 . S
C1864 C1866 1.391 . S
C1865 C1864 1.386 . S
C1865 C1869 1.393 . S
C1866 H1855 0.950 . S
C1866 C1864 1.391 . S
C1866 C1867 1.400 . S
C1867 C1861 1.491 . S
C1867 C1866 1.400 . S
C1867 C1868 1.398 . S
C1868 H1856 0.950 . S
C1868 C1867 1.398 . S
C1868 C1869 1.391 . S
C1869 H1857 0.950 . S
C1869 C1865 1.393 . S
C1869 C1868 1.391 . S
H1870 C1878 0.950 . S
H1871 C1883 0.950 . S
H1872 C1880 0.950 . S
H1873 C1882 0.950 . S
H1874 C1884 0.950 . S
H1875 C1886 0.950 . S
H1876 C1888 0.950 . S
H1877 C1889 0.950 . S
C1878 H1870 0.950 . S
C1878 C1879 1.386 . S
C1878 C1880 1.391 . S
C1879 C1878 1.386 . S
C1879 C1883 1.393 . S
C1880 H1872 0.950 . S
C1880 C1878 1.391 . S
C1880 C1881 1.400 . S
C1881 C1880 1.400 . S
C1881 C1882 1.398 . S
C1881 C1887 1.491 . S
C1882 H1873 0.950 . S
C1882 C1881 1.398 . S
C1882 C1883 1.391 . S
C1883 H1871 0.950 . S
C1883 C1879 1.393 . S
C1883 C1882 1.391 . S
C1884 H1874 0.950 . S
C1884 C1885 1.386 . S
C1884 C1886 1.391 . S
C1885 C1884 1.386 . S
C1885 C1889 1.393 . S
C1886 H1875 0.950 . S
C1886 C1884 1.391 . S
C1886 C1887 1.400 . S
C1887 C1881 1.491 . S
C1887 C1886 1.400 . S
C1887 C1888 1.398 . S
C1888 H1876 0.950 . S
C1888 C1887 1.398 . S
C1888 C1889 1.391 . S
C1889 H1877 0.950 . S
C1889 C1885 1.393 . S
C1889 C1888 1.391 . S
H1890 C1898 0.950 . S
H1891 C1903 0.950 . S
H1892 C1900 0.950 . S
H1893 C1902 0.950 . S
H1894 C1904 0.950 . S
H1895 C1906 0.950 . S
H1896 C1908 0.950 . S
H1897 C1909 0.950 . S
C1898 H1890 0.950 . S
C1898 C1899 1.386 . S
C1898 C1900 1.391 . S
C1899 C1898 1.386 . S
C1899 C1903 1.393 . S
C1900 H1892 0.950 . S
C1900 C1898 1.391 . S
C1900 C1901 1.400 . S
C1901 C1900 1.400 . S
C1901 C1902 1.398 . S
C1901 C1907 1.491 . S
C1902 H1893 0.950 . S
C1902 C1901 1.398 . S
C1902 C1903 1.391 . S
C1903 H1891 0.950 . S
C1903 C1899 1.393 . S
C1903 C1902 1.391 . S
C1904 H1894 0.950 . S
C1904 C1905 1.386 . S
C1904 C1906 1.391 . S
C1905 C1904 1.386 . S
C1905 C1909 1.393 . S
C1906 H1895 0.950 . S
C1906 C1904 1.391 . S
C1906 C1907 1.400 . S
C1907 C1901 1.491 . S
C1907 C1906 1.400 . S
C1907 C1908 1.398 . S
C1908 H1896 0.950 . S
C1908 C1907 1.398 . S
C1908 C1909 1.391 . S
C1909 H1897 0.950 . S
C1909 C1905 1.393 . S
C1909 C1908 1.391 . S
H1910 C1918 0.950 . S
H1911 C1923 0.950 . S
H1912 C1920 0.950 . S
H1913 C1922 0.950 . S
H1914 C1924 0.950 . S
H1915 C1926 0.950 . S
H1916 C1928 0.950 . S
H1917 C1929 0.950 . S
C1918 H1910 0.950 . S
C1918 C1919 1.386 . S
C1918 C1920 1.391 . S
C1919 C1918 1.386 . S
C1919 C1923 1.393 . S
C1920 H1912 0.950 . S
C1920 C1918 1.391 . S
C1920 C1921 1.400 . S
C1921 C1920 1.400 . S
C1921 C1922 1.398 . S
C1921 C1927 1.491 . S
C1922 H1913 0.950 . S
C1922 C1921 1.398 . S
C1922 C1923 1.391 . S
C1923 H1911 0.950 . S
C1923 C1919 1.393 . S
C1923 C1922 1.391 . S
C1924 H1914 0.950 . S
C1924 C1925 1.386 . S
C1924 C1926 1.391 . S
C1925 C1924 1.386 . S
C1925 C1929 1.393 . S
C1926 H1915 0.950 . S
C1926 C1924 1.391 . S
C1926 C1927 1.400 . S
C1927 C1921 1.491 . S
C1927 C1926 1.400 . S
C1927 C1928 1.398 . S
C1928 H1916 0.950 . S
C1928 C1927 1.398 . S
C1928 C1929 1.391 . S
C1929 H1917 0.950 . S
C1929 C1925 1.393 . S
C1929 C1928 1.391 . S
H1930 C1938 0.950 . S
H1931 C1943 0.950 . S
H1932 C1940 0.950 . S
H1933 C1942 0.950 . S
H1934 C1944 0.950 . S
H1935 C1946 0.950 . S
H1936 C1948 0.950 . S
H1937 C1949 0.950 . S
C1938 H1930 0.950 . S
C1938 C1939 1.386 . S
C1938 C1940 1.391 . S
C1939 C1938 1.386 . S
C1939 C1943 1.393 . S
C1940 H1932 0.950 . S
C1940 C1938 1.391 . S
C1940 C1941 1.400 . S
C1941 C1940 1.400 . S
C1941 C1942 1.398 . S
C1941 C1947 1.491 . S
C1942 H1933 0.950 . S
C1942 C1941 1.398 . S
C1942 C1943 1.391 . S
C1943 H1931 0.950 . S
C1943 C1939 1.393 . S
C1943 C1942 1.391 . S
C1944 H1934 0.950 . S
C1944 C1945 1.386 . S
C1944 C1946 1.391 . S
C1945 C1944 1.386 . S
C1945 C1949 1.393 . S
C1946 H1935 0.950 . S
C1946 C1944 1.391 . S
C1946 C1947 1.400 . S
C1947 C1941 1.491 . S
C1947 C1946 1.400 . S
C1947 C1948 1.398 . S
C1948 H1936 0.950 . S
C1948 C1947 1.398 . S
C1948 C1949 1.391 . S
C1949 H1937 0.950 . S
C1949 C1945 1.393 . S
C1949 C1948 1.391 . S
H1950 C1958 0.950 . S
H1951 C1963 0.950 . S
H1952 C1960 0.950 . S
H1953 C1962 0.950 . S
H1954 C1964 0.950 . S
H1955 C1966 0.950 . S
H1956 C1968 0.950 . S
H1957 C1969 0.950 . S
C1958 H1950 0.950 . S
C1958 C1959 1.386 . S
C1958 C1960 1.391 . S
C1959 C1958 1.386 . S
C1959 C1963 1.393 . S
C1960 H1952 0.950 . S
C1960 C1958 1.391 . S
C1960 C1961 1.400 . S
C1961 C1960 1.400 . S
C1961 C1962 1.398 . S
C1961 C1967 1.491 . S
C1962 H1953 0.950 . S
C1962 C1961 1.398 . S
C1962 C1963 1.391 . S
C1963 H1951 0.950 . S
C1963 C1959 1.393 . S
C1963 C1962 1.391 . S
C1964 H1954 0.950 . S
C1964 C1965 1.386 . S
C1964 C1966 1.391 . S
C1965 C1964 1.386 . S
C1965 C1969 1.393 . S
C1966 H1955 0.950 . S
C1966 C1964 1.391 . S
C1966 C1967 1.400 . S
C1967 C1961 1.491 . S
C1967 C1966 1.400 . S
C1967 C1968 1.398 . S
C1968 H1956 0.950 . S
C1968 C1967 1.398 . S
C1968 C1969 1.391 . S
C1969 H1957 0.950 . S
C1969 C1965 1.393 . S
C1969 C1968 1.391 . S
H1970 C1978 0.950 . S
H1971 C1983 0.950 . S
H1972 C1980 0.950 . S
H1973 C1982 0.950 . S
H1974 C1984 0.950 . S
H1975 C1986 0.950 . S
H1976 C1988 0.950 . S
H1977 C1989 0.950 . S
C1978 H1970 0.950 . S
C1978 C1979 1.386 . S
C1978 C1980 1.391 . S
C1979 C1978 1.386 . S
C1979 C1983 1.393 . S
C1980 H1972 0.950 . S
C1980 C1978 1.391 . S
C1980 C1981 1.400 . S
C1981 C1980 1.400 . S
C1981 C1982 1.398 . S
C1981 C1987 1.491 . S
C1982 H1973 0.950 . S
C1982 C1981 1.398 . S
C1982 C1983 1.391 . S
C1983 H1971 0.950 . S
C1983 C1979 1.393 . S
C1983 C1982 1.391 . S
C1984 H1974 0.950 . S
C1984 C1985 1.386 . S
C1984 C1986 1.391 . S
C1985 C1984 1.386 . S
C1985 C1989 1.393 . S
C1986 H1975 0.950 . S
C1986 C1984 1.391 . S
C1986 C1987 1.400 . S
C1987 C1981 1.491 . S
C1987 C1986 1.400 . S
C1987 C1988 1.398 . S
C1988 H1976 0.950 . S
C1988 C1987 1.398 . S
C1988 C1989 1.391 . S
C1989 H1977 0.950 . S
C1989 C1985 1.393 . S
C1989 C1988 1.391 . S
H1990 C1998 0.950 . S
H1991 C2003 0.950 . S
H1992 C2000 0.950 . S
H1993 C2002 0.950 . S
H1994 C2004 0.950 . S
H1995 C2006 0.950 . S
H1996 C2008 0.950 . S
H1997 C2009 0.950 . S
C1998 H1990 0.950 . S
C1998 C1999 1.386 . S
C1998 C2000 1.391 . S
C1999 C1998 1.386 . S
C1999 C2003 1.393 . S
C2000 H1992 0.950 . S
C2000 C1998 1.391 . S
C2000 C2001 1.400 . S
C2001 C2000 1.400 . S
C2001 C2002 1.398 . S
C2001 C2007 1.491 . S
C2002 H1993 0.950 . S
C2002 C2001 1.398 . S
C2002 C2003 1.391 . S
C2003 H1991 0.950 . S
C2003 C1999 1.393 . S
C2003 C2002 1.391 . S
C2004 H1994 0.950 . S
C2004 C2005 1.386 . S
C2004 C2006 1.391 . S
C2005 C2004 1.386 . S
C2005 C2009 1.393 . S
C2006 H1995 0.950 . S
C2006 C2004 1.391 . S
C2006 C2007 1.400 . S
C2007 C2001 1.491 . S
C2007 C2006 1.400 . S
C2007 C2008 1.398 . S
C2008 H1996 0.950 . S
C2008 C2007 1.398 . S
C2008 C2009 1.391 . S
C2009 H1997 0.950 . S
C2009 C2005 1.393 . S
C2009 C2008 1.391 . S
H2010 C2018 0.950 . S
H2011 C2023 0.950 . S
H2012 C2020 0.950 . S
H2013 C2022 0.950 . S
H2014 C2024 0.950 . S
H2015 C2026 0.950 . S
H2016 C2028 0.950 . S
H2017 C2029 0.950 . S
C2018 H2010 0.950 . S
C2018 C2019 1.386 . S
C2018 C2020 1.391 . S
C2019 C2018 1.386 . S
C2019 C2023 1.393 . S
C2020 H2012 0.950 . S
C2020 C2018 1.391 . S
C2020 C2021 1.400 . S
C2021 C2020 1.400 . S
C2021 C2022 1.398 . S
C2021 C2027 1.491 . S
C2022 H2013 0.950 . S
C2022 C2021 1.398 . S
C2022 C2023 1.391 . S
C2023 H2011 0.950 . S
C2023 C2019 1.393 . S
C2023 C2022 1.391 . S
C2024 H2014 0.950 . S
C2024 C2025 1.386 . S
C2024 C2026 1.391 . S
C2025 C2024 1.386 . S
C2025 C2029 1.393 . S
C2026 H2015 0.950 . S
C2026 C2024 1.391 . S
C2026 C2027 1.400 . S
C2027 C2021 1.491 . S
C2027 C2026 1.400 . S
C2027 C2028 1.398 . S
C2028 H2016 0.950 . S
C2028 C2027 1.398 . S
C2028 C2029 1.391 . S
C2029 H2017 0.950 . S
C2029 C2025 1.393 . S
C2029 C2028 1.391 . S
H2030 C2038 0.950 . S
H2031 C2043 0.950 . S
H2032 C2040 0.950 . S
H2033 C2042 0.950 . S
H2034 C2044 0.950 . S
H2035 C2046 0.950 . S
H2036 C2048 0.950 . S
H2037 C2049 0.950 . S
C2038 H2030 0.950 . S
C2038 C2039 1.386 . S
C2038 C2040 1.391 . S
C2039 C2038 1.386 . S
C2039 C2043 1.393 . S
C2040 H2032 0.950 . S
C2040 C2038 1.391 . S
C2040 C2041 1.400 . S
C2041 C2040 1.400 . S
C2041 C2042 1.398 . S
C2041 C2047 1.491 . S
C2042 H2033 0.950 . S
C2042 C2041 1.398 . S
C2042 C2043 1.391 . S
C2043 H2031 0.950 . S
C2043 C2039 1.393 . S
C2043 C2042 1.391 . S
C2044 H2034 0.950 . S
C2044 C2045 1.386 . S
C2044 C2046 1.391 . S
C2045 C2044 1.386 . S
C2045 C2049 1.393 . S
C2046 H2035 0.950 . S
C2046 C2044 1.391 . S
C2046 C2047 1.400 . S
C2047 C2041 1.491 . S
C2047 C2046 1.400 . S
C2047 C2048 1.398 . S
C2048 H2036 0.950 . S
C2048 C2047 1.398 . S
C2048 C2049 1.391 . S
C2049 H2037 0.950 . S
C2049 C2045 1.393 . S
C2049 C2048 1.391 . S
H2050 C2058 0.950 . S
H2051 C2063 0.950 . S
H2052 C2060 0.950 . S
H2053 C2062 0.950 . S
H2054 C2064 0.950 . S
H2055 C2066 0.950 . S
H2056 C2068 0.950 . S
H2057 C2069 0.950 . S
C2058 H2050 0.950 . S
C2058 C2059 1.386 . S
C2058 C2060 1.391 . S
C2059 C2058 1.386 . S
C2059 C2063 1.393 . S
C2060 H2052 0.950 . S
C2060 C2058 1.391 . S
C2060 C2061 1.400 . S
C2061 C2060 1.400 . S
C2061 C2062 1.398 . S
C2061 C2067 1.491 . S
C2062 H2053 0.950 . S
C2062 C2061 1.398 . S
C2062 C2063 1.391 . S
C2063 H2051 0.950 . S
C2063 C2059 1.393 . S
C2063 C2062 1.391 . S
C2064 H2054 0.950 . S
C2064 C2065 1.386 . S
C2064 C2066 1.391 . S
C2065 C2064 1.386 . S
C2065 C2069 1.393 . S
C2066 H2055 0.950 . S
C2066 C2064 1.391 . S
C2066 C2067 1.400 . S
C2067 C2061 1.491 . S
C2067 C2066 1.400 . S
C2067 C2068 1.398 . S
C2068 H2056 0.950 . S
C2068 C2067 1.398 . S
C2068 C2069 1.391 . S
C2069 H2057 0.950 . S
C2069 C2065 1.393 . S
C2069 C2068 1.391 . S
C999 N170 1.978 . S
C1005 C301 1.908 . S
C1019 N184 0.943 . S
C1025 C385 0.951 . S
C1039 N158 1.563 . S
C1045 C465 1.537 . S
C1059 N145 1.537 . S
C1065 C381 1.516 1_556 S
C1085 C469 0.907 . S
C1079 N119 0.895 . S
C1099 N131 1.942 . S
C1105 C297 1.908 . S
C1125 C290 1.573 . S
C1119 N144 1.646 . S
C1145 C374 1.346 . S
C1139 N118 1.356 . S
C1159 N132 1.430 . S
C1165 C476 1.425 . S
C1179 N171 1.421 . S
C1185 C392 1.417 . S
C1199 N183 1.323 . S
C1205 C458 1.303 . S
C1225 C308 1.573 . S
C1219 N157 1.601 . S
C1245 C553 1.902 . S
C1239 N14 1.981 . S
C1259 N28 0.942 . S
C1265 C637 0.945 . S
C1279 N2 1.556 . S
C1285 C717 1.523 . S
C1299 N223 1.531 . S
C1305 C633 1.498 . S
C1319 N197 0.913 . S
C1325 C721 0.872 . S
C1339 N209 1.931 . S
C1345 C549 1.890 . S
C1359 N222 1.649 . S
C1365 C542 1.592 . S
C1379 N196 1.358 . S
C1385 C626 1.350 . S
C1405 C728 1.424 . S
C1399 N210 1.435 . S
C1419 N15 1.414 . S
C1425 C644 1.404 . S
C1445 C710 1.308 . S
C1439 N27 1.318 . S
C1459 N1 1.602 . S
C1465 C560 1.560 . S
C1485 C805 1.907 . S
C1479 N92 1.985 . S
C1499 N106 0.943 . S
C1505 C889 0.937 . S
C1525 C969 1.524 . S
C1519 N80 1.555 . S
C1545 C885 1.514 . S
C1539 N67 1.537 . S
C1565 C973 0.860 . S
C1559 N41 0.905 . S
C1579 N53 1.941 . S
C1585 C801 1.907 . S
C1599 N66 1.643 . S
C1605 C794 1.572 . S
C1619 N40 1.357 . S
C1625 C878 1.348 . S
C1645 C980 1.433 . S
C1639 N54 1.436 . S
C1659 N93 1.415 . S
C1665 C896 1.404 . S
C1679 N105 1.319 . S
C1685 C962 1.288 . S
C1699 N79 1.604 . S
C1705 C812 1.571 . S
C1719 N200 1.243 . S
C1725 C304 1.121 . S
C1745 C388 1.589 . S
C1739 N213 1.783 . S
C1759 N226 1.497 . S
C1765 C460 1.360 . S
C1779 N83 1.528 . S
C1785 C376 1.400 . S
C1799 N96 1.767 . S
C1805 C472 1.608 . S
C1825 C292 1.153 . S
C1819 N109 1.261 . S
C1839 N44 1.244 . S
C1845 C556 1.152 . S
C1859 N57 1.786 . S
C1865 C640 1.619 . S
C1879 N70 1.494 . S
C1885 C712 1.374 . S
C1899 N161 1.536 . S
C1905 C628 1.422 . S
C1925 C724 1.573 . S
C1919 N174 1.755 . S
C1939 N187 1.272 . S
C1945 C544 1.184 . S
C1959 N122 1.242 . S
C1965 C808 1.155 . S
C1979 N135 1.785 . S
C1985 C892 1.617 . S
C2005 C964 1.397 . S
C1999 N148 1.504 . S
C2019 N5 1.537 . S
C2025 C880 1.418 . S
C2039 N18 1.769 . S
C2045 C976 1.608 . S
C2059 N31 1.257 . S
C2065 C796 1.188 . S
