# Generated by pormake.
# Topology pyr, (3,6)-cn, num edge types: 1
# Building blocks:
#     Node 0, Type 0, BuildingBlock: ESEHIV_clean_linker_0, # of connection points: 3
#     Node 1, Type 0, BuildingBlock: ESEHIV_clean_linker_0, # of connection points: 3
#     Node 2, Type 0, BuildingBlock: ESEHIV_clean_linker_0, # of connection points: 3
#     Node 3, Type 0, BuildingBlock: ESEHIV_clean_linker_0, # of connection points: 3
#     Node 4, Type 0, BuildingBlock: ESEHIV_clean_linker_0, # of connection points: 3
#     Node 5, Type 0, BuildingBlock: ESEHIV_clean_linker_0, # of connection points: 3
#     Node 6, Type 0, BuildingBlock: ESEHIV_clean_linker_0, # of connection points: 3
#     Node 7, Type 0, BuildingBlock: ESEHIV_clean_linker_0, # of connection points: 3
#     Node 8, Type 1, BuildingBlock: FUNLAD_clean_sbu_0, # of connection points: 6
#     Node 9, Type 1, BuildingBlock: FUNLAD_clean_sbu_0, # of connection points: 6
#     Node 10, Type 1, BuildingBlock: FUNLAD_clean_sbu_0, # of connection points: 6
#     Node 11, Type 1, BuildingBlock: FUNLAD_clean_sbu_0, # of connection points: 6
#     Edge 12, Type (0, 1), BuildingBlock: AJUNOK_clean_linker_0, # of connection points: 2
#     Edge 13, Type (0, 1), BuildingBlock: AJUNOK_clean_linker_0, # of connection points: 2
#     Edge 14, Type (0, 1), BuildingBlock: AJUNOK_clean_linker_0, # of connection points: 2
#     Edge 15, Type (0, 1), BuildingBlock: AJUNOK_clean_linker_0, # of connection points: 2
#     Edge 16, Type (0, 1), BuildingBlock: AJUNOK_clean_linker_0, # of connection points: 2
#     Edge 17, Type (0, 1), BuildingBlock: AJUNOK_clean_linker_0, # of connection points: 2
#     Edge 18, Type (0, 1), BuildingBlock: AJUNOK_clean_linker_0, # of connection points: 2
#     Edge 19, Type (0, 1), BuildingBlock: AJUNOK_clean_linker_0, # of connection points: 2
#     Edge 20, Type (0, 1), BuildingBlock: AJUNOK_clean_linker_0, # of connection points: 2
#     Edge 21, Type (0, 1), BuildingBlock: AJUNOK_clean_linker_0, # of connection points: 2
#     Edge 22, Type (0, 1), BuildingBlock: AJUNOK_clean_linker_0, # of connection points: 2
#     Edge 23, Type (0, 1), BuildingBlock: AJUNOK_clean_linker_0, # of connection points: 2
#     Edge 24, Type (0, 1), BuildingBlock: AJUNOK_clean_linker_0, # of connection points: 2
#     Edge 25, Type (0, 1), BuildingBlock: AJUNOK_clean_linker_0, # of connection points: 2
#     Edge 26, Type (0, 1), BuildingBlock: AJUNOK_clean_linker_0, # of connection points: 2
#     Edge 27, Type (0, 1), BuildingBlock: AJUNOK_clean_linker_0, # of connection points: 2
#     Edge 28, Type (0, 1), BuildingBlock: AJUNOK_clean_linker_0, # of connection points: 2
#     Edge 29, Type (0, 1), BuildingBlock: AJUNOK_clean_linker_0, # of connection points: 2
#     Edge 30, Type (0, 1), BuildingBlock: AJUNOK_clean_linker_0, # of connection points: 2
#     Edge 31, Type (0, 1), BuildingBlock: AJUNOK_clean_linker_0, # of connection points: 2
#     Edge 32, Type (0, 1), BuildingBlock: AJUNOK_clean_linker_0, # of connection points: 2
#     Edge 33, Type (0, 1), BuildingBlock: AJUNOK_clean_linker_0, # of connection points: 2
#     Edge 34, Type (0, 1), BuildingBlock: AJUNOK_clean_linker_0, # of connection points: 2
#     Edge 35, Type (0, 1), BuildingBlock: AJUNOK_clean_linker_0, # of connection points: 2
# Relax obj value: 0.158
# Max RMSD: 0.088
# Mean RMSD: 0.048
data_MOF--net-pry--node1-FUNLAD_clean_sbu_0--node2-ESEHIV_clean_linker_0--edge1-AJUNOK_clean_linker_0
_symmetry_space_group_name_H-M    P1
_symmetry_Int_Tables_number       1
_symmetry_cell_setting            triclinic
loop_
_symmetry_equiv_pos_as_xyz
'x, y, z'
_cell_length_a     23.972462
_cell_length_b     26.10641
_cell_length_c     25.956015
_cell_angle_alpha  90.303976
_cell_angle_beta   90.061214
_cell_angle_gamma 81.176515
loop_
_atom_site_label
_atom_site_type_symbol
_atom_site_fract_x
_atom_site_fract_y
_atom_site_fract_z
_atom_type_partial_charge
H0 H 0.0572 0.23556 0.24845 0.0
H1 H 0.19449 0.10769 0.24289 0.0
H2 H 0.18567 0.2304 0.13204 0.0
C3 C 0.09598 0.21649 0.23107 0.0
C4 C 0.11704 0.23814 0.18607 0.0
C5 C 0.12412 0.16923 0.25265 0.0
C6 C 0.17348 0.1442 0.22781 0.0
C7 C 0.19631 0.16592 0.18431 0.0
C8 C 0.16764 0.2127 0.16445 0.0
H9 H 0.32983 0.96863 0.74593 0.0
H10 H 0.47389 0.84677 0.74995 0.0
H11 H 0.35143 0.85113 0.62814 0.0
C12 C 0.35444 0.93428 0.72923 0.0
C13 C 0.33415 0.91203 0.68459 0.0
C14 C 0.40485 0.91135 0.75382 0.0
C15 C 0.43509 0.86493 0.73205 0.0
C16 C 0.41607 0.84276 0.68628 0.0
C17 C 0.3662 0.86748 0.66313 0.0
H18 H 0.67355 0.45419 0.08405 0.0
H19 H 0.63665 0.55826 0.95745 0.0
H20 H 0.51039 0.47279 1.01243 0.0
C21 C 0.64244 0.47592 0.05892 0.0
C22 C 0.58955 0.45968 0.05276 0.0
C23 C 0.65882 0.51342 1.02597 0.0
C24 C 0.62168 0.53443 0.98694 0.0
C25 C 0.56905 0.51786 0.98101 0.0
C26 C 0.55038 0.48653 1.01872 0.0
H27 H 0.86295 0.63316 0.57806 0.0
H28 H 1.00928 0.60028 0.48263 0.0
H29 H 0.88406 0.49948 0.48006 0.0
C30 C 0.89049 0.60566 0.55448 0.0
C31 C 0.87093 0.56103 0.53605 0.0
C32 C 0.94119 0.61916 0.53581 0.0
C33 C 0.97364 0.58644 0.50076 0.0
C34 C 0.95122 0.54549 0.47777 0.0
C35 C 0.90274 0.52983 0.49914 0.0
H36 H 0.83569 0.97328 0.84294 0.0
H37 H 0.97052 0.84303 0.8331 0.0
H38 H 0.84319 0.84762 0.9501 0.0
C39 C 0.85679 0.93643 0.85723 0.0
C40 C 0.83493 0.91474 0.90129 0.0
C41 C 0.90502 0.91076 0.83092 0.0
C42 C 0.93238 0.86253 0.85122 0.0
C43 C 0.91129 0.84025 0.8958 0.0
C44 C 0.86177 0.86626 0.91865 0.0
H45 H 0.55905 0.23402 0.33499 0.0
H46 H 0.7027 0.1121 0.3382 0.0
H47 H 0.68252 0.2291 0.45635 0.0
C48 C 0.59773 0.21564 0.35296 0.0
C49 C 0.61738 0.23778 0.39858 0.0
C50 C 0.62723 0.16872 0.33155 0.0
C51 C 0.678 0.14599 0.35559 0.0
C52 C 0.69819 0.16735 0.40073 0.0
C53 C 0.66718 0.21266 0.42164 0.0
H54 H 0.35385 0.62879 1.00324 0.0
H55 H 0.38231 0.50867 0.11624 0.0
H56 H 0.50553 0.6086 0.09273 0.0
C57 C 0.38289 0.60455 1.02829 0.0
C58 C 0.43398 0.62105 0.04244 0.0
C59 C 0.36462 0.56286 0.05401 0.0
C60 C 0.3989 0.53695 0.09252 0.0
C61 C 0.4486 0.55492 0.10795 0.0
C62 C 0.46905 0.59268 0.07866 0.0
H63 H 0.02386 0.47362 0.58954 0.0
H64 H 0.17612 0.45027 0.50109 0.0
H65 H 0.14392 0.57803 0.60646 0.0
C66 C 0.05984 0.48945 0.57447 0.0
C67 C 0.07922 0.52959 0.60158 0.0
C68 C 0.0956 0.45937 0.53967 0.0
C69 C 0.14637 0.47574 0.52467 0.0
C70 C 0.1633 0.51968 0.54771 0.0
C71 C 0.12805 0.54788 0.58444 0.0
C72 C 0.05772 0.07056 0.44568 0.0
N73 N 0.03183 0.14977 0.5839 0.0
C74 C 0.08503 0.15846 0.57248 0.0
C75 C 0.09691 0.20844 0.56725 0.0
C76 C 0.05398 0.25058 0.57416 0.0
C77 C 0.99991 0.24121 0.58847 0.0
C78 C 0.98962 0.18998 0.59317 0.0
Zn79 Zn 0.01749 0.07748 0.56218 0.0
C80 C 0.90898 0.08046 0.50534 0.0
N81 N 1.00234 0.93068 0.50009 0.0
C82 C 0.04505 0.89185 0.48789 0.0
C83 C 0.94996 0.92033 0.51215 0.0
C84 C 0.93943 0.86972 0.51475 0.0
C85 C 0.98298 0.82882 0.50466 0.0
C86 C 0.03619 0.84008 0.49005 0.0
Zn87 Zn 0.01559 1.00277 0.52255 0.0
O88 O 0.05003 0.09705 0.48708 0.0
C89 C 0.12361 0.99878 0.57982 0.0
O90 O 0.04862 1.02357 0.44717 0.0
H91 H 0.91722 0.95089 0.52462 0.0
H92 H 0.11755 0.12691 0.56198 0.0
H93 H 0.08678 0.90068 0.47984 0.0
O94 O 0.10037 0.04468 0.59028 0.0
O95 O 0.09821 0.97157 0.54962 0.0
H96 H 0.94722 0.18253 0.60057 0.0
O97 O 0.98335 0.98304 0.5977 0.0
O98 O 0.98365 0.05683 0.6375 0.0
O99 O 0.93285 0.03467 0.4954 0.0
O100 O 0.93443 0.1088 0.5344 0.0
C101 C 0.97485 1.00969 0.63897 0.0
H102 H 0.13863 0.21384 0.55453 0.0
H103 H 0.96568 0.27299 0.59407 0.0
H104 H 0.89834 0.86266 0.52769 0.0
H105 H 0.07083 0.80926 0.4821 0.0
C106 C 0.6231 1.00106 1.00436 0.0
N107 N 0.52827 0.15061 1.00429 0.0
C108 C 0.58097 0.15915 1.01785 0.0
C109 C 0.59188 0.2089 1.0274 0.0
C110 C 0.54854 0.25104 1.02249 0.0
C111 C 0.49552 0.24197 1.00441 0.0
C112 C 0.48603 0.1909 0.9959 0.0
Zn113 Zn 0.51431 0.07776 1.02304 0.0
C114 C 0.47361 1.01166 0.94581 0.0
N115 N 0.5025 0.93012 0.08172 0.0
C116 C 0.5442 0.88963 0.09117 0.0
C117 C 0.44926 0.92196 0.06959 0.0
C118 C 0.43671 0.87219 0.06418 0.0
C119 C 0.47896 0.82971 0.07172 0.0
C120 C 0.53319 0.83857 0.08638 0.0
Zn121 Zn 0.51694 1.00276 0.06256 0.0
O122 O 0.59709 0.04584 0.99362 0.0
C123 C 0.55749 0.06809 0.14029 0.0
O124 O 0.60017 0.97261 1.03495 0.0
H125 H 0.4172 0.9538 0.05905 0.0
H126 H 0.61357 0.12727 1.02701 0.0
H127 H 0.58666 0.89671 0.09913 0.0
O128 O 0.54715 0.0958 0.10005 0.0
O129 O 0.55044 1.02065 0.13737 0.0
H130 H 0.44409 0.18346 0.9863 0.0
O131 O 0.43464 0.03492 0.09223 0.0
O132 O 0.43091 0.10785 0.05037 0.0
O133 O 0.4839 0.985 0.98662 0.0
O134 O 0.48082 0.05916 0.94756 0.0
C135 C 0.40844 0.0796 0.08145 0.0
H136 H 0.6332 0.21385 0.0417 0.0
H137 H 0.46133 0.27367 0.99864 0.0
H138 H 0.39493 0.86715 0.05116 0.0
H139 H 0.56691 0.8065 0.09246 0.0
C140 C 0.54063 0.4368 0.50519 0.0
N141 N 0.53053 0.50146 0.65748 0.0
C142 C 0.49555 0.47352 0.68256 0.0
C143 C 0.49307 0.4745 0.73643 0.0
C144 C 0.52697 0.50446 0.76409 0.0
C145 C 0.56427 0.53077 0.73724 0.0
C146 C 0.56521 0.52897 0.68391 0.0
Zn147 Zn 0.5213 0.52024 0.58173 0.0
C148 C 0.63212 0.54483 0.53952 0.0
N149 N 0.50326 0.57669 0.43044 0.0
C150 C 0.46887 0.54652 0.40725 0.0
C151 C 0.53323 0.60687 0.40218 0.0
C152 C 0.52895 0.60696 0.3482 0.0
C153 C 0.49358 0.57569 0.32434 0.0
C154 C 0.46325 0.54567 0.3545 0.0
Zn155 Zn 0.51411 0.55908 0.50641 0.0
O156 O 0.53816 0.4399 0.55428 0.0
C157 C 0.40303 0.53467 0.54811 0.0
O158 O 0.5328 0.47889 0.48001 0.0
H159 H 0.56172 0.62927 0.42118 0.0
H160 H 0.46742 0.45285 0.66091 0.0
H161 H 0.44789 0.52016 0.42914 0.0
O162 O 0.4334 0.51602 0.58565 0.0
O163 O 0.4262 0.55518 0.51143 0.0
H164 H 0.59113 0.55272 0.66385 0.0
O165 O 0.49632 0.63904 0.53359 0.0
O166 O 0.50387 0.60065 0.60838 0.0
O167 O 0.60118 0.56434 0.50261 0.0
O168 O 0.60959 0.52379 0.57646 0.0
C169 C 0.49489 0.64252 0.58271 0.0
H170 H 0.46368 0.45369 0.75608 0.0
H171 H 0.59168 0.55361 0.75731 0.0
H172 H 0.55291 0.63065 0.32551 0.0
H173 H 0.4364 0.52043 0.33722 0.0
C174 C 0.98719 0.64064 1.00106 0.0
N175 N 0.98996 0.57338 0.15286 0.0
C176 C 0.02226 0.59923 0.18389 0.0
C177 C 0.01868 0.59502 0.23766 0.0
C178 C 0.98169 0.56386 0.25887 0.0
C179 C 0.94795 0.53932 0.226 0.0
C180 C 0.95291 0.54432 0.17332 0.0
Zn181 Zn 1.00593 0.55709 0.0766 0.0
C182 C 0.89822 0.52998 1.027 0.0
N183 N 0.03233 0.50129 0.92505 0.0
C184 C 0.06646 0.53258 0.90372 0.0
C185 C 1.00246 0.47224 0.89496 0.0
C186 C 1.00603 0.47495 0.84107 0.0
C187 C 0.04049 0.5079 0.81901 0.0
C188 C 0.07129 0.53627 0.85101 0.0
Zn189 Zn 0.01726 0.51809 1.00093 0.0
O190 O 0.98805 0.63753 0.05021 0.0
C191 C 0.12518 0.54565 0.04879 0.0
O192 O 0.99719 0.59858 0.97543 0.0
H193 H 0.97404 0.449 0.91249 0.0
H194 H 0.05278 0.62076 0.16714 0.0
H195 H 0.08702 0.55826 0.92719 0.0
O196 O 0.09314 0.56356 0.08578 0.0
O197 O 0.10387 0.52491 1.01083 0.0
H198 H 0.93011 0.52096 0.14922 0.0
O199 O 0.0367 0.4376 1.02784 0.0
O200 O 0.0246 0.47695 0.10224 0.0
O201 O 0.93148 0.51039 0.9917 0.0
O202 O 0.91843 0.55158 0.06512 0.0
C203 C 0.03624 0.4348 0.07702 0.0
H204 H 0.04501 0.61497 0.26221 0.0
H205 H 0.91965 0.51429 0.24087 0.0
H206 H 0.98192 0.45225 0.8171 0.0
H207 H 0.09752 0.56274 0.83532 0.0
C208 C 0.10167 0.09154 0.30441 0.0
C209 C 0.10379 0.14541 0.30139 0.0
C210 C 0.08686 0.0677 0.35044 0.0
C211 C 0.07409 0.0962 0.39645 0.0
H212 H 0.11155 0.06733 0.27064 0.0
H213 H 0.08584 1.02638 0.34994 0.0
S214 S 0.07435 0.23846 0.41035 0.0
N215 N 0.09208 0.22622 0.34957 0.0
N216 N 0.06477 0.18238 0.43518 0.0
C217 C 0.07599 0.15023 0.39389 0.0
C218 C 0.09052 0.17446 0.34688 0.0
C219 C 0.42461 0.99006 0.80603 0.0
C220 C 0.42424 0.93594 0.80267 0.0
C221 C 0.44047 1.01423 0.85175 0.0
C222 C 0.45605 0.98575 0.89699 0.0
H223 H 0.41283 1.01413 0.77272 0.0
H224 H 0.44022 0.05574 0.85159 0.0
S225 S 0.46016 0.84298 0.90989 0.0
N226 N 0.43985 0.85499 0.84979 0.0
N227 N 0.46914 0.89944 0.93483 0.0
C228 C 0.45549 0.93152 0.89415 0.0
C229 C 0.43987 0.90698 0.84748 0.0
C230 C 0.53386 0.56014 0.89838 0.0
C231 C 0.54596 0.51532 0.92837 0.0
C232 C 0.52361 0.55648 0.84544 0.0
C233 C 0.52562 0.50791 0.82087 0.0
H234 H 0.53488 0.59793 0.91548 0.0
H235 H 0.51674 0.59177 0.8231 0.0
S236 S 0.55463 0.37899 0.88249 0.0
N237 N 0.55808 0.42078 0.92981 0.0
N238 N 0.5387 0.41447 0.83059 0.0
C239 C 0.53484 0.46303 0.85086 0.0
C240 C 0.54523 0.46661 0.90457 0.0
C241 C 0.91465 0.55439 0.38892 0.0
C242 C 0.9609 0.53881 0.4217 0.0
C243 C 0.92231 0.563 0.33673 0.0
C244 C 0.97649 0.55627 0.31487 0.0
H245 H 0.87218 0.56322 0.40418 0.0
H246 H 0.88543 0.57627 0.31342 0.0
S247 S 0.11118 0.51155 0.38265 0.0
N248 N 0.06258 0.51446 0.42811 0.0
N249 N 0.07704 0.52951 0.32877 0.0
C250 C 0.02313 0.53893 0.34648 0.0
C251 C 0.01529 0.53031 0.40011 0.0
C252 C 0.25599 0.14193 0.10466 0.0
C253 C 0.25034 0.14082 0.15892 0.0
C254 C 0.3071 0.12248 0.0798 0.0
C255 C 0.35439 0.09952 0.10788 0.0
H256 H 0.22058 0.15822 0.08091 0.0
H257 H 0.30941 0.12489 1.03822 0.0
S258 S 0.36438 0.08797 0.25001 0.0
N259 N 0.29905 0.11665 0.23964 0.0
N260 N 0.3934 0.07729 0.19253 0.0
C261 C 0.34953 0.09715 0.16177 0.0
C262 C 0.29802 0.11826 0.18733 0.0
C263 C 0.26545 0.9877 0.65014 0.0
C264 C 0.27903 0.93417 0.65989 0.0
C265 C 0.21547 1.00831 0.62396 0.0
C266 C 0.17731 0.9762 0.60586 0.0
H267 H 0.29415 1.01379 0.66199 0.0
H268 H 0.20699 0.04971 0.61732 0.0
S269 S 0.18936 0.83438 0.6268 0.0
N270 N 0.24683 0.85034 0.65357 0.0
N271 N 0.15469 0.88865 0.6031 0.0
C272 C 0.18977 0.92284 0.61634 0.0
C273 C 0.24001 0.90201 0.64364 0.0
C274 C 0.74484 0.53793 0.06826 0.0
C275 C 0.71895 0.52044 1.02442 0.0
C276 C 0.80261 0.54164 0.06836 0.0
C277 C 0.83683 0.52719 1.02486 0.0
H278 H 0.72027 0.54856 0.10276 0.0
H279 H 0.82067 0.55519 0.10321 0.0
S280 S 0.78894 0.47694 0.90093 0.0
N281 N 0.7315 0.48726 0.93686 0.0
N282 N 0.83991 0.49421 0.9368 0.0
C283 C 0.81117 0.50949 0.98076 0.0
C284 C 0.75231 0.5061 0.98061 0.0
C285 C 0.77166 0.58981 0.51006 0.0
C286 C 0.81036 0.55729 0.54062 0.0
C287 C 0.71428 0.58517 0.50974 0.0
C288 C 0.69334 0.5481 0.54037 0.0
H289 H 0.78616 0.61849 0.48546 0.0
H290 H 0.68613 0.61107 0.48544 0.0
S291 S 0.77842 0.45327 0.62679 0.0
N292 N 0.82491 0.48648 0.60147 0.0
N293 N 0.71659 0.47797 0.60213 0.0
C294 C 0.73186 0.51549 0.57147 0.0
C295 C 0.79055 0.51995 0.5712 0.0
C296 C 0.08461 0.28988 0.10572 0.0
C297 C 0.08868 0.28744 0.16017 0.0
C298 C 0.0665 0.33678 0.07933 0.0
C299 C 0.05129 0.38409 0.10586 0.0
H300 H 0.09687 0.25509 0.08295 0.0
H301 H 0.06561 0.336 1.03763 0.0
S302 S 0.0517 0.39951 0.24883 0.0
N303 N 0.07398 0.3371 0.23954 0.0
N304 N 0.03944 0.42457 0.1909 0.0
C305 C 0.05321 0.38195 0.16052 0.0
C306 C 0.07176 0.33404 0.18733 0.0
C307 C 0.62377 0.36779 1.03427 0.0
C308 C 0.58458 0.40452 0.06032 0.0
C309 C 0.61148 0.3186 1.02246 0.0
C310 C 0.55992 0.30353 1.03703 0.0
H311 H 0.66223 0.37853 1.01862 0.0
H312 H 0.64178 0.29301 0.99961 0.0
S313 S 0.44678 0.38276 0.11317 0.0
N314 N 0.49457 0.4213 0.10471 0.0
N315 N 0.47215 0.32733 0.08464 0.0
C316 C 0.52196 0.33855 0.06644 0.0
C317 C 0.53432 0.3892 0.07789 0.0
C318 C 0.99726 0.69062 0.55404 0.0
C319 C 0.94836 0.67413 0.53432 0.0
C320 C 1.00893 0.74067 0.54372 0.0
C321 C 0.97259 0.77505 0.51253 0.0
H322 H 0.02696 0.66438 0.57665 0.0
H323 H 0.04637 0.75263 0.56037 0.0
S324 S 0.84269 0.74754 0.44717 0.0
N325 N 0.86548 0.69442 0.47989 0.0
N326 N 0.88802 0.78764 0.45947 0.0
C327 C 0.92426 0.75834 0.4919 0.0
C328 C 0.91201 0.70806 0.50304 0.0
C329 C 0.45207 0.78881 0.60795 0.0
C330 C 0.44508 0.79278 0.66205 0.0
C331 C 0.46947 0.74083 0.58288 0.0
C332 C 0.48087 0.69405 0.6105 0.0
H333 H 0.44244 0.82317 0.58441 0.0
H334 H 0.47265 0.7404 0.54126 0.0
S335 S 0.47189 0.6828 0.75322 0.0
N336 N 0.45304 0.74531 0.74242 0.0
N337 N 0.48629 0.65573 0.69618 0.0
C338 C 0.47622 0.69772 0.66492 0.0
C339 C 0.45842 0.74671 0.69037 0.0
C340 C 0.92797 0.98869 0.77953 0.0
C341 C 0.9254 0.93486 0.78225 0.0
C342 C 0.94386 1.01255 0.73384 0.0
C343 C 0.95744 0.98412 0.68791 0.0
H344 H 0.9178 1.01285 0.81329 0.0
H345 H 0.94518 0.05382 0.73458 0.0
S346 S 0.9563 0.84206 0.67317 0.0
N347 N 0.93736 0.85425 0.73368 0.0
N348 N 0.96686 0.89808 0.64889 0.0
C349 C 0.95502 0.93017 0.69016 0.0
C350 C 0.93929 0.90593 0.73676 0.0
C351 C 0.591 0.17118 0.23867 0.0
C352 C 0.60658 0.14289 0.28396 0.0
C353 C 0.57591 0.14671 0.19289 0.0
C354 C 0.57494 0.0926 0.18989 0.0
H355 H 0.59172 0.21256 0.23815 0.0
H356 H 0.56488 0.17074 0.1594 0.0
S357 S 0.60845 1.00093 0.2986 0.0
N358 N 0.61745 0.05757 0.32315 0.0
N359 N 0.58923 1.01215 0.2381 0.0
C360 C 0.58931 0.06408 0.23529 0.0
C361 C 0.60501 0.08894 0.28178 0.0
C362 C 0.4191 0.57385 0.19774 0.0
C363 C 0.46256 0.55422 0.16333 0.0
C364 C 0.43047 0.58331 0.24912 0.0
C365 C 0.48574 0.57348 0.26833 0.0
H366 H 0.37593 0.58377 0.18456 0.0
H367 H 0.39554 0.59792 0.27433 0.0
S368 S 0.61479 0.52296 0.19456 0.0
N369 N 0.56327 0.5268 0.15173 0.0
N370 N 0.58464 0.54309 0.24982 0.0
C371 C 0.52989 0.55432 0.23469 0.0
C372 C 0.51828 0.54498 0.18183 0.0
C373 C 0.11144 0.51656 0.69139 0.0
C374 C 0.06646 0.5324 0.65733 0.0
C375 C 0.10194 0.50707 0.74297 0.0
C376 C 0.04705 0.5131 0.76301 0.0
H377 H 0.15453 0.50889 0.67774 0.0
H378 H 0.13806 0.49456 0.76747 0.0
S379 S 0.91441 0.55435 0.69089 0.0
N380 N 0.96476 0.55352 0.64729 0.0
N381 N 0.94672 0.53685 0.74578 0.0
C382 C 1.00136 0.5292 0.72995 0.0
C383 C 1.01112 0.53869 0.67681 0.0
C384 C 0.73551 0.96522 0.9008 0.0
C385 C 0.78272 0.94099 0.92877 0.0
C386 C 0.68457 0.98562 0.92566 0.0
C387 C 0.6782 0.98164 0.97937 0.0
H388 H 0.7372 0.96714 0.85918 0.0
H389 H 0.64923 1.00316 0.90242 0.0
S390 S 0.78996 0.92873 0.07161 0.0
N391 N 0.82088 0.92062 1.0147 0.0
N392 N 0.7242 0.95558 0.06021 0.0
C393 C 0.72509 0.95901 1.00801 0.0
C394 C 0.77747 0.93965 0.98307 0.0
C395 C 0.79004 0.1756 0.44566 0.0
C396 C 0.75219 0.14358 0.42649 0.0
C397 C 0.83959 0.15507 0.47215 0.0
C398 C 0.85423 0.10143 0.4801 0.0
H399 H 0.78159 0.21711 0.43982 0.0
H400 H 0.86726 0.1815 0.48552 0.0
S401 S 0.76924 1.00045 0.43984 0.0
N402 N 0.73225 0.05524 0.41962 0.0
N403 N 0.82616 1.01658 0.46753 0.0
C404 C 0.81703 0.06882 0.46112 0.0
C405 C 0.76606 0.08983 0.43474 0.0
C406 C 0.271 0.56335 0.09638 0.0
C407 C 0.30432 0.55627 0.05147 0.0
C408 C 0.21322 0.56001 0.09519 0.0
C409 C 0.18652 0.54903 0.04908 0.0
H410 H 0.28956 0.57249 0.1327 0.0
H411 H 0.18941 0.56596 0.13074 0.0
S412 S 0.25543 0.52785 0.92065 0.0
N413 N 0.30683 0.5386 0.95973 0.0
N414 N 0.19843 0.5314 0.95697 0.0
C415 C 0.21962 0.54173 1.00381 0.0
C416 C 0.27839 0.54573 1.0051 0.0
C417 C 0.25591 0.51821 0.59171 0.0
C418 C 0.22364 0.52596 0.54629 0.0
C419 C 0.3137 0.52115 0.5919 0.0
C420 C 0.34158 0.53227 0.54666 0.0
H421 H 0.23653 0.50881 0.62735 0.0
H422 H 0.33662 0.51466 0.62786 0.0
S423 S 0.27584 0.55478 0.4172 0.0
N424 N 0.22335 0.54423 0.45489 0.0
N425 N 0.33207 0.55058 0.45469 0.0
C426 C 0.30962 0.54019 0.50081 0.0
C427 C 0.2507 0.53664 0.50072 0.0
C428 C 0.94368 0.78655 0.97476 0.0
C429 C 0.93864 0.78995 0.92043 0.0
C430 C 0.96041 0.73894 1.00026 0.0
C431 C 0.97317 0.69183 0.97294 0.0
H432 H 0.93319 0.82117 0.99815 0.0
H433 H 0.96218 0.73908 0.04196 0.0
S434 S 0.96963 0.67878 0.82985 0.0
N435 N 0.94996 0.74142 0.84022 0.0
N436 N 0.9819 0.65251 0.88728 0.0
C437 C 0.97033 0.69485 0.91835 0.0
C438 C 0.95321 0.74352 0.89243 0.0
C439 C 0.48822 0.69223 1.01948 0.0
C440 C 0.43922 0.6765 1.03971 0.0
C441 C 0.50111 0.74196 1.02994 0.0
C442 C 0.46595 0.77691 0.0618 0.0
H443 H 0.51773 0.66521 0.99726 0.0
H444 H 0.53903 0.75293 1.01346 0.0
S445 S 0.33531 0.75233 0.12746 0.0
N446 N 0.35663 0.69888 0.09424 0.0
N447 N 0.3816 0.79135 0.11508 0.0
C448 C 0.4169 0.76144 0.08211 0.0
C449 C 0.40331 0.71151 0.07071 0.0
C450 C 0.04235 0.3866 0.51916 0.0
C451 C 0.09092 0.40373 0.53895 0.0
C452 C 0.03033 0.33695 0.53078 0.0
C453 C 0.06594 0.30347 0.56336 0.0
H454 H 0.01259 0.41246 0.49622 0.0
H455 H 0.99278 0.32484 0.51452 0.0
S456 S 0.1957 0.33219 0.6282 0.0
N457 N 0.17354 0.38437 0.59388 0.0
N458 N 0.15024 0.29201 0.61681 0.0
C459 C 0.11453 0.32039 0.58329 0.0
C460 C 0.12721 0.37026 0.57076 0.0
C461 C 0.58204 0.29075 0.47767 0.0
C462 C 0.58865 0.28755 0.42347 0.0
C463 C 0.56528 0.3384 0.50355 0.0
C464 C 0.55412 0.38562 0.47668 0.0
H465 H 0.59156 0.25601 0.50068 0.0
H466 H 0.56243 0.33822 0.54519 0.0
S467 S 0.56149 0.39898 0.33398 0.0
N468 N 0.5801 0.33624 0.34381 0.0
N469 N 0.548 0.4252 0.39152 0.0
C470 C 0.5582 0.38273 0.42215 0.0
C471 C 0.57536 0.33407 0.39588 0.0
loop_
_geom_bond_atom_site_label_1
_geom_bond_atom_site_label_2
_geom_bond_distance
_geom_bond_site_symmetry_2
_ccdc_geom_bond_type
H0 C3 0.931 . S
H1 C6 0.928 . S
H2 C8 0.930 . S
C3 H0 0.931 . S
C3 C4 1.413 . S
C3 C5 1.360 . S
C4 C3 1.413 . S
C4 C8 1.429 . S
C5 C3 1.360 . S
C5 C6 1.372 . S
C6 H1 0.928 . S
C6 C5 1.372 . S
C6 C7 1.404 . S
C7 C6 1.404 . S
C7 C8 1.391 . S
C8 H2 0.930 . S
C8 C4 1.429 . S
C8 C7 1.391 . S
H9 C12 0.931 . S
H10 C15 0.928 . S
H11 C17 0.930 . S
C12 H9 0.931 . S
C12 C13 1.413 . S
C12 C14 1.360 . S
C13 C12 1.413 . S
C13 C17 1.429 . S
C14 C12 1.360 . S
C14 C15 1.372 . S
C15 H10 0.928 . S
C15 C14 1.372 . S
C15 C16 1.404 . S
C16 C15 1.404 . S
C16 C17 1.391 . S
C17 H11 0.930 . S
C17 C13 1.429 . S
C17 C16 1.391 . S
H18 C21 0.931 . S
H19 C24 0.928 . S
H20 C26 0.930 . S
C21 H18 0.931 . S
C21 C22 1.413 . S
C21 C23 1.360 . S
C22 C21 1.413 . S
C22 C26 1.429 . S
C23 C21 1.360 . S
C23 C24 1.372 . S
C24 H19 0.928 . S
C24 C23 1.372 . S
C24 C25 1.404 . S
C25 C24 1.404 . S
C25 C26 1.391 . S
C26 H20 0.930 . S
C26 C22 1.429 . S
C26 C25 1.391 . S
H27 C30 0.931 . S
H28 C33 0.928 . S
H29 C35 0.930 . S
C30 H27 0.931 . S
C30 C31 1.413 . S
C30 C32 1.360 . S
C31 C30 1.413 . S
C31 C35 1.429 . S
C32 C30 1.360 . S
C32 C33 1.372 . S
C33 H28 0.928 . S
C33 C32 1.372 . S
C33 C34 1.404 . S
C34 C33 1.404 . S
C34 C35 1.391 . S
C35 H29 0.930 . S
C35 C31 1.429 . S
C35 C34 1.391 . S
H36 C39 0.931 . S
H37 C42 0.928 . S
H38 C44 0.930 . S
C39 H36 0.931 . S
C39 C40 1.413 . S
C39 C41 1.360 . S
C40 C39 1.413 . S
C40 C44 1.429 . S
C41 C39 1.360 . S
C41 C42 1.372 . S
C42 H37 0.928 . S
C42 C41 1.372 . S
C42 C43 1.404 . S
C43 C42 1.404 . S
C43 C44 1.391 . S
C44 H38 0.930 . S
C44 C40 1.429 . S
C44 C43 1.391 . S
H45 C48 0.931 . S
H46 C51 0.928 . S
H47 C53 0.930 . S
C48 H45 0.931 . S
C48 C49 1.413 . S
C48 C50 1.360 . S
C49 C48 1.413 . S
C49 C53 1.429 . S
C50 C48 1.360 . S
C50 C51 1.372 . S
C51 H46 0.928 . S
C51 C50 1.372 . S
C51 C52 1.404 . S
C52 C51 1.404 . S
C52 C53 1.391 . S
C53 H47 0.930 . S
C53 C49 1.429 . S
C53 C52 1.391 . S
H54 C57 0.931 . S
H55 C60 0.928 . S
H56 C62 0.930 . S
C57 H54 0.931 . S
C57 C58 1.413 . S
C57 C59 1.360 . S
C58 C57 1.413 . S
C58 C62 1.429 . S
C59 C57 1.360 . S
C59 C60 1.372 . S
C60 H55 0.928 . S
C60 C59 1.372 . S
C60 C61 1.404 . S
C61 C60 1.404 . S
C61 C62 1.391 . S
C62 H56 0.930 . S
C62 C58 1.429 . S
C62 C61 1.391 . S
H63 C66 0.931 . S
H64 C69 0.928 . S
H65 C71 0.930 . S
C66 H63 0.931 . S
C66 C67 1.413 . S
C66 C68 1.360 . S
C67 C66 1.413 . S
C67 C71 1.429 . S
C68 C66 1.360 . S
C68 C69 1.372 . S
C69 H64 0.928 . S
C69 C68 1.372 . S
C69 C70 1.404 . S
C70 C69 1.404 . S
C70 C71 1.391 . S
C71 H65 0.930 . S
C71 C67 1.429 . S
C71 C70 1.391 . S
C72 O88 1.251 . S
C72 O90 1.254 1_545 S
N73 C74 1.333 . S
N73 C78 1.307 . S
N73 Zn79 2.020 . S
C74 N73 1.333 . S
C74 C75 1.379 . S
C74 H92 0.952 . S
C75 C74 1.379 . S
C75 C76 1.390 . S
C75 H102 0.949 . S
C76 C75 1.390 . S
C76 C77 1.357 . S
C77 C76 1.357 . S
C77 C78 1.370 . S
C77 H103 0.950 . S
C78 N73 1.307 . S
C78 C77 1.370 . S
C78 H96 0.948 1_455 S
Zn79 N73 2.020 . S
Zn79 O88 2.039 . S
Zn79 O94 2.034 . S
Zn79 O98 2.025 1_455 S
Zn79 O100 2.024 1_455 S
C80 O99 1.246 1_545 S
C80 O100 1.249 . S
N81 C82 1.307 . S
N81 C83 1.333 . S
N81 Zn87 2.020 . S
C82 N81 1.307 . S
C82 C86 1.370 . S
C82 H93 0.948 1_655 S
C83 N81 1.333 . S
C83 C84 1.379 . S
C83 H91 0.952 . S
C84 C83 1.379 . S
C84 C85 1.390 . S
C84 H104 0.949 . S
C85 C84 1.390 . S
C85 C86 1.357 . S
C86 C82 1.370 . S
C86 C85 1.357 . S
C86 H105 0.950 1_655 S
Zn87 N81 2.020 . S
Zn87 O90 2.025 1_655 S
Zn87 O95 2.024 1_655 S
Zn87 O97 2.039 . S
Zn87 O99 2.034 . S
O88 C72 1.251 . S
O88 Zn79 2.039 . S
C89 O94 1.246 1_565 S
C89 O95 1.249 . S
O90 C72 1.254 1_565 S
O90 Zn87 2.025 1_455 S
H91 C83 0.952 . S
H92 C74 0.952 . S
H93 C82 0.948 1_455 S
O94 Zn79 2.034 . S
O94 C89 1.246 1_545 S
O95 Zn87 2.024 1_455 S
O95 C89 1.249 . S
H96 C78 0.948 1_655 S
O97 Zn87 2.039 . S
O97 C101 1.251 . S
O98 Zn79 2.025 1_655 S
O98 C101 1.254 1_545 S
O99 C80 1.246 1_565 S
O99 Zn87 2.034 . S
O100 Zn79 2.024 1_655 S
O100 C80 1.249 . S
C101 O97 1.251 . S
C101 O98 1.254 1_565 S
H102 C75 0.949 . S
H103 C77 0.950 . S
H104 C84 0.949 . S
H105 C86 0.950 1_455 S
C106 O122 1.251 1_565 S
C106 O124 1.254 . S
N107 C108 1.333 . S
N107 C112 1.307 . S
N107 Zn113 2.020 . S
C108 N107 1.333 . S
C108 C109 1.379 . S
C108 H126 0.952 . S
C109 C108 1.379 . S
C109 C110 1.390 . S
C109 H136 0.949 . S
C110 C109 1.390 . S
C110 C111 1.357 . S
C111 C110 1.357 . S
C111 C112 1.370 . S
C111 H137 0.950 . S
C112 N107 1.307 . S
C112 C111 1.370 . S
C112 H130 0.948 . S
Zn113 N107 2.020 . S
Zn113 O122 2.039 . S
Zn113 O128 2.034 1_556 S
Zn113 O132 2.025 1_556 S
Zn113 O134 2.024 . S
C114 O133 1.246 . S
C114 O134 1.249 1_565 S
N115 C116 1.307 . S
N115 C117 1.333 . S
N115 Zn121 2.020 . S
C116 N115 1.307 . S
C116 C120 1.370 . S
C116 H127 0.948 . S
C117 N115 1.333 . S
C117 C118 1.379 . S
C117 H125 0.952 . S
C118 C117 1.379 . S
C118 C119 1.390 . S
C118 H138 0.949 . S
C119 C118 1.390 . S
C119 C120 1.357 . S
C120 C116 1.370 . S
C120 C119 1.357 . S
C120 H139 0.950 . S
Zn121 N115 2.020 . S
Zn121 O124 2.025 1_554 S
Zn121 O129 2.024 . S
Zn121 O131 2.039 . S
Zn121 O133 2.034 1_554 S
O122 C106 1.251 1_545 S
O122 Zn113 2.039 . S
C123 O128 1.246 . S
C123 O129 1.249 1_545 S
O124 C106 1.254 . S
O124 Zn121 2.025 1_556 S
H125 C117 0.952 . S
H126 C108 0.952 . S
H127 C116 0.948 . S
O128 Zn113 2.034 1_554 S
O128 C123 1.246 . S
O129 Zn121 2.024 . S
O129 C123 1.249 1_565 S
H130 C112 0.948 . S
O131 Zn121 2.039 . S
O131 C135 1.251 1_565 S
O132 Zn113 2.025 1_554 S
O132 C135 1.254 . S
O133 C114 1.246 . S
O133 Zn121 2.034 1_556 S
O134 Zn113 2.024 . S
O134 C114 1.249 1_545 S
C135 O131 1.251 1_545 S
C135 O132 1.254 . S
H136 C109 0.949 . S
H137 C111 0.950 . S
H138 C118 0.949 . S
H139 C120 0.950 . S
C140 O156 1.251 . S
C140 O158 1.254 . S
N141 C142 1.333 . S
N141 C146 1.307 . S
N141 Zn147 2.020 . S
C142 N141 1.333 . S
C142 C143 1.379 . S
C142 H160 0.952 . S
C143 C142 1.379 . S
C143 C144 1.390 . S
C143 H170 0.949 . S
C144 C143 1.390 . S
C144 C145 1.357 . S
C145 C144 1.357 . S
C145 C146 1.370 . S
C145 H171 0.950 . S
C146 N141 1.307 . S
C146 C145 1.370 . S
C146 H164 0.948 . S
Zn147 N141 2.020 . S
Zn147 O156 2.039 . S
Zn147 O162 2.034 . S
Zn147 O166 2.025 . S
Zn147 O168 2.024 . S
C148 O167 1.246 . S
C148 O168 1.249 . S
N149 C150 1.307 . S
N149 C151 1.333 . S
N149 Zn155 2.020 . S
C150 N149 1.307 . S
C150 C154 1.370 . S
C150 H161 0.948 . S
C151 N149 1.333 . S
C151 C152 1.379 . S
C151 H159 0.952 . S
C152 C151 1.379 . S
C152 C153 1.390 . S
C152 H172 0.949 . S
C153 C152 1.390 . S
C153 C154 1.357 . S
C154 C150 1.370 . S
C154 C153 1.357 . S
C154 H173 0.950 . S
Zn155 N149 2.020 . S
Zn155 O158 2.025 . S
Zn155 O163 2.024 . S
Zn155 O165 2.039 . S
Zn155 O167 2.034 . S
O156 C140 1.251 . S
O156 Zn147 2.039 . S
C157 O162 1.246 . S
C157 O163 1.249 . S
O158 C140 1.254 . S
O158 Zn155 2.025 . S
H159 C151 0.952 . S
H160 C142 0.952 . S
H161 C150 0.948 . S
O162 Zn147 2.034 . S
O162 C157 1.246 . S
O163 Zn155 2.024 . S
O163 C157 1.249 . S
H164 C146 0.948 . S
O165 Zn155 2.039 . S
O165 C169 1.251 . S
O166 Zn147 2.025 . S
O166 C169 1.254 . S
O167 C148 1.246 . S
O167 Zn155 2.034 . S
O168 Zn147 2.024 . S
O168 C148 1.249 . S
C169 O165 1.251 . S
C169 O166 1.254 . S
H170 C143 0.949 . S
H171 C145 0.950 . S
H172 C152 0.949 . S
H173 C154 0.950 . S
C174 O190 1.251 1_556 S
C174 O192 1.254 . S
N175 C176 1.333 . S
N175 C180 1.307 . S
N175 Zn181 2.020 . S
C176 N175 1.333 . S
C176 C177 1.379 . S
C176 H194 0.952 . S
C177 C176 1.379 . S
C177 C178 1.390 . S
C177 H204 0.949 . S
C178 C177 1.390 . S
C178 C179 1.357 . S
C179 C178 1.357 . S
C179 C180 1.370 . S
C179 H205 0.950 . S
C180 N175 1.307 . S
C180 C179 1.370 . S
C180 H198 0.948 . S
Zn181 N175 2.020 . S
Zn181 O190 2.039 . S
Zn181 O196 2.034 1_655 S
Zn181 O200 2.025 1_655 S
Zn181 O202 2.024 . S
C182 O201 1.246 . S
C182 O202 1.249 1_556 S
N183 C184 1.307 . S
N183 C185 1.333 . S
N183 Zn189 2.020 . S
C184 N183 1.307 . S
C184 C188 1.370 . S
C184 H195 0.948 . S
C185 N183 1.333 . S
C185 C186 1.379 . S
C185 H193 0.952 . S
C186 C185 1.379 . S
C186 C187 1.390 . S
C186 H206 0.949 . S
C187 C186 1.390 . S
C187 C188 1.357 . S
C188 C184 1.370 . S
C188 C187 1.357 . S
C188 H207 0.950 . S
Zn189 N183 2.020 . S
Zn189 O192 2.025 1_455 S
Zn189 O197 2.024 . S
Zn189 O199 2.039 . S
Zn189 O201 2.034 1_455 S
O190 C174 1.251 1_554 S
O190 Zn181 2.039 . S
C191 O196 1.246 . S
C191 O197 1.249 1_554 S
O192 C174 1.254 . S
O192 Zn189 2.025 1_655 S
H193 C185 0.952 . S
H194 C176 0.952 . S
H195 C184 0.948 . S
O196 Zn181 2.034 1_455 S
O196 C191 1.246 . S
O197 Zn189 2.024 . S
O197 C191 1.249 1_556 S
H198 C180 0.948 . S
O199 Zn189 2.039 . S
O199 C203 1.251 1_556 S
O200 Zn181 2.025 1_455 S
O200 C203 1.254 . S
O201 C182 1.246 . S
O201 Zn189 2.034 1_655 S
O202 Zn181 2.024 . S
O202 C182 1.249 1_554 S
C203 O199 1.251 1_554 S
C203 O200 1.254 . S
H204 C177 0.949 . S
H205 C179 0.950 . S
H206 C186 0.949 . S
H207 C188 0.950 . S
C208 C209 1.369 . S
C208 C210 1.419 . S
C208 H212 0.930 . S
C209 C208 1.369 . S
C209 C218 1.429 . S
C210 C208 1.419 . S
C210 C211 1.363 . S
C210 H213 0.929 1_545 S
C211 C210 1.363 . S
C211 C217 1.428 . S
H212 C208 0.930 . S
H213 C210 0.929 1_565 S
S214 N215 1.613 . S
S214 N216 1.610 . S
N215 S214 1.613 . S
N215 C218 1.350 . S
N216 S214 1.610 . S
N216 C217 1.351 . S
C217 C211 1.428 . S
C217 N216 1.351 . S
C217 C218 1.434 . S
C218 C209 1.429 . S
C218 N215 1.350 . S
C218 C217 1.434 . S
C219 C220 1.369 . S
C219 C221 1.419 . S
C219 H223 0.930 . S
C220 C219 1.369 . S
C220 C229 1.429 . S
C221 C219 1.419 . S
C221 C222 1.363 . S
C221 H224 0.929 1_565 S
C222 C221 1.363 . S
C222 C228 1.428 . S
H223 C219 0.930 . S
H224 C221 0.929 1_545 S
S225 N226 1.613 . S
S225 N227 1.610 . S
N226 S225 1.613 . S
N226 C229 1.350 . S
N227 S225 1.610 . S
N227 C228 1.351 . S
C228 C222 1.428 . S
C228 N227 1.351 . S
C228 C229 1.434 . S
C229 C220 1.429 . S
C229 N226 1.350 . S
C229 C228 1.434 . S
C230 C231 1.369 . S
C230 C232 1.419 . S
C230 H234 0.930 . S
C231 C230 1.369 . S
C231 C240 1.429 . S
C232 C230 1.419 . S
C232 C233 1.363 . S
C232 H235 0.929 . S
C233 C232 1.363 . S
C233 C239 1.428 . S
H234 C230 0.930 . S
H235 C232 0.929 . S
S236 N237 1.613 . S
S236 N238 1.610 . S
N237 S236 1.613 . S
N237 C240 1.350 . S
N238 S236 1.610 . S
N238 C239 1.351 . S
C239 C233 1.428 . S
C239 N238 1.351 . S
C239 C240 1.434 . S
C240 C231 1.429 . S
C240 N237 1.350 . S
C240 C239 1.434 . S
C241 C242 1.369 . S
C241 C243 1.419 . S
C241 H245 0.930 . S
C242 C241 1.369 . S
C242 C251 1.429 . S
C243 C241 1.419 . S
C243 C244 1.363 . S
C243 H246 0.929 . S
C244 C243 1.363 . S
C244 C250 1.428 . S
H245 C241 0.930 . S
H246 C243 0.929 . S
S247 N248 1.613 1_455 S
S247 N249 1.610 1_455 S
N248 S247 1.613 1_655 S
N248 C251 1.350 . S
N249 S247 1.610 1_655 S
N249 C250 1.351 . S
C250 C244 1.428 . S
C250 N249 1.351 . S
C250 C251 1.434 . S
C251 C242 1.429 . S
C251 N248 1.350 . S
C251 C250 1.434 . S
C252 C253 1.369 . S
C252 C254 1.419 . S
C252 H256 0.930 . S
C253 C252 1.369 . S
C253 C262 1.429 . S
C254 C252 1.419 . S
C254 C255 1.363 . S
C254 H257 0.929 1_554 S
C255 C254 1.363 . S
C255 C261 1.428 . S
H256 C252 0.930 . S
H257 C254 0.929 1_556 S
S258 N259 1.613 . S
S258 N260 1.610 . S
N259 S258 1.613 . S
N259 C262 1.350 . S
N260 S258 1.610 . S
N260 C261 1.351 . S
C261 C255 1.428 . S
C261 N260 1.351 . S
C261 C262 1.434 . S
C262 C253 1.429 . S
C262 N259 1.350 . S
C262 C261 1.434 . S
C263 C264 1.369 . S
C263 C265 1.419 . S
C263 H267 0.930 . S
C264 C263 1.369 . S
C264 C273 1.429 . S
C265 C263 1.419 . S
C265 C266 1.363 . S
C265 H268 0.921 1_565 S
C266 C265 1.363 . S
C266 C272 1.428 . S
H267 C263 0.930 . S
H268 C265 0.921 1_545 S
S269 N270 1.613 . S
S269 N271 1.610 . S
N270 S269 1.613 . S
N270 C273 1.350 . S
N271 S269 1.610 . S
N271 C272 1.351 . S
C272 C266 1.428 . S
C272 N271 1.351 . S
C272 C273 1.434 . S
C273 C264 1.429 . S
C273 N270 1.350 . S
C273 C272 1.434 . S
C274 C275 1.369 . S
C274 C276 1.419 . S
C274 H278 0.930 1_556 S
C275 C274 1.369 . S
C275 C284 1.429 . S
C276 C274 1.419 . S
C276 C277 1.364 . S
C276 H279 0.928 1_556 S
C277 C276 1.364 . S
C277 C283 1.428 . S
H278 C274 0.930 1_554 S
H279 C276 0.928 1_554 S
S280 N281 1.613 . S
S280 N282 1.610 . S
N281 S280 1.613 . S
N281 C284 1.350 . S
N282 S280 1.610 . S
N282 C283 1.351 . S
C283 C277 1.428 . S
C283 N282 1.351 . S
C283 C284 1.434 . S
C284 C275 1.429 . S
C284 N281 1.350 . S
C284 C283 1.434 . S
C285 C286 1.369 . S
C285 C287 1.419 . S
C285 H289 0.930 . S
C286 C285 1.369 . S
C286 C295 1.429 . S
C287 C285 1.419 . S
C287 C288 1.363 . S
C287 H290 0.929 . S
C288 C287 1.363 . S
C288 C294 1.428 . S
H289 C285 0.930 . S
H290 C287 0.929 . S
S291 N292 1.613 . S
S291 N293 1.610 . S
N292 S291 1.613 . S
N292 C295 1.350 . S
N293 S291 1.610 . S
N293 C294 1.351 . S
C294 C288 1.428 . S
C294 N293 1.351 . S
C294 C295 1.434 . S
C295 C286 1.429 . S
C295 N292 1.350 . S
C295 C294 1.434 . S
C296 C297 1.369 . S
C296 C298 1.419 . S
C296 H300 0.930 . S
C297 C296 1.369 . S
C297 C306 1.429 . S
C298 C296 1.419 . S
C298 C299 1.363 . S
C298 H301 0.929 1_455 S
C299 C298 1.363 . S
C299 C305 1.428 . S
H300 C296 0.930 . S
H301 C298 0.929 1_655 S
S302 N303 1.613 . S
S302 N304 1.610 . S
N303 S302 1.613 . S
N303 C306 1.350 . S
N304 S302 1.610 . S
N304 C305 1.351 . S
C305 C299 1.428 . S
C305 N304 1.351 . S
C305 C306 1.434 . S
C306 C297 1.429 . S
C306 N303 1.350 . S
C306 C305 1.434 . S
C307 C308 1.369 . S
C307 C309 1.419 . S
C307 H311 0.930 . S
C308 C307 1.369 . S
C308 C317 1.429 . S
C309 C307 1.419 . S
C309 C310 1.363 . S
C309 H312 0.929 . S
C310 C309 1.363 . S
C310 C316 1.428 . S
H311 C307 0.930 . S
H312 C309 0.929 . S
S313 N314 1.613 . S
S313 N315 1.610 . S
N314 S313 1.613 . S
N314 C317 1.350 1_554 S
N315 S313 1.610 . S
N315 C316 1.351 1_554 S
C316 C310 1.428 . S
C316 N315 1.351 1_556 S
C316 C317 1.434 . S
C317 C308 1.429 . S
C317 N314 1.350 1_556 S
C317 C316 1.434 . S
C318 C319 1.369 . S
C318 C320 1.419 . S
C318 H322 0.930 . S
C319 C318 1.369 . S
C319 C328 1.429 . S
C320 C318 1.419 . S
C320 C321 1.363 . S
C320 H323 0.929 . S
C321 C320 1.363 . S
C321 C327 1.428 . S
H322 C318 0.930 . S
H323 C320 0.929 . S
S324 N325 1.613 . S
S324 N326 1.610 . S
N325 S324 1.613 . S
N325 C328 1.350 . S
N326 S324 1.610 . S
N326 C327 1.351 . S
C327 C321 1.428 . S
C327 N326 1.351 . S
C327 C328 1.434 . S
C328 C319 1.429 . S
C328 N325 1.350 . S
C328 C327 1.434 . S
C329 C330 1.369 . S
C329 C331 1.419 . S
C329 H333 0.930 . S
C330 C329 1.369 . S
C330 C339 1.429 . S
C331 C329 1.419 . S
C331 C332 1.363 . S
C331 H334 0.929 . S
C332 C331 1.363 . S
C332 C338 1.428 . S
H333 C329 0.930 . S
H334 C331 0.929 . S
S335 N336 1.613 . S
S335 N337 1.610 . S
N336 S335 1.613 . S
N336 C339 1.350 . S
N337 S335 1.610 . S
N337 C338 1.351 . S
C338 C332 1.428 . S
C338 N337 1.351 . S
C338 C339 1.434 . S
C339 C330 1.429 . S
C339 N336 1.350 . S
C339 C338 1.434 . S
C340 C341 1.369 . S
C340 C342 1.419 . S
C340 H344 0.930 . S
C341 C340 1.369 . S
C341 C350 1.429 . S
C342 C340 1.419 . S
C342 C343 1.363 . S
C342 H345 0.929 1_565 S
C343 C342 1.363 . S
C343 C349 1.428 . S
H344 C340 0.930 . S
H345 C342 0.929 1_545 S
S346 N347 1.613 . S
S346 N348 1.610 . S
N347 S346 1.613 . S
N347 C350 1.350 . S
N348 S346 1.610 . S
N348 C349 1.351 . S
C349 C343 1.428 . S
C349 N348 1.351 . S
C349 C350 1.434 . S
C350 C341 1.429 . S
C350 N347 1.350 . S
C350 C349 1.434 . S
C351 C352 1.369 . S
C351 C353 1.419 . S
C351 H355 0.930 . S
C352 C351 1.369 . S
C352 C361 1.429 . S
C353 C351 1.419 . S
C353 C354 1.363 . S
C353 H356 0.929 . S
C354 C353 1.363 . S
C354 C360 1.428 . S
H355 C351 0.930 . S
H356 C353 0.929 . S
S357 N358 1.613 1_565 S
S357 N359 1.610 . S
N358 S357 1.613 1_545 S
N358 C361 1.350 . S
N359 S357 1.610 . S
N359 C360 1.351 1_565 S
C360 C354 1.428 . S
C360 N359 1.351 1_545 S
C360 C361 1.434 . S
C361 C352 1.429 . S
C361 N358 1.350 . S
C361 C360 1.434 . S
C362 C363 1.369 . S
C362 C364 1.419 . S
C362 H366 0.930 . S
C363 C362 1.369 . S
C363 C372 1.429 . S
C364 C362 1.419 . S
C364 C365 1.363 . S
C364 H367 0.929 . S
C365 C364 1.363 . S
C365 C371 1.428 . S
H366 C362 0.930 . S
H367 C364 0.929 . S
S368 N369 1.613 . S
S368 N370 1.610 . S
N369 S368 1.613 . S
N369 C372 1.350 . S
N370 S368 1.610 . S
N370 C371 1.351 . S
C371 C365 1.428 . S
C371 N370 1.351 . S
C371 C372 1.434 . S
C372 C363 1.429 . S
C372 N369 1.350 . S
C372 C371 1.434 . S
C373 C374 1.369 . S
C373 C375 1.419 . S
C373 H377 0.930 . S
C374 C373 1.369 . S
C374 C383 1.429 . S
C375 C373 1.419 . S
C375 C376 1.363 . S
C375 H378 0.929 . S
C376 C375 1.363 . S
C376 C382 1.428 . S
H377 C373 0.930 . S
H378 C375 0.929 . S
S379 N380 1.613 . S
S379 N381 1.610 . S
N380 S379 1.613 . S
N380 C383 1.350 . S
N381 S379 1.610 . S
N381 C382 1.351 . S
C382 C376 1.428 . S
C382 N381 1.351 . S
C382 C383 1.434 . S
C383 C374 1.429 . S
C383 N380 1.350 . S
C383 C382 1.434 . S
C384 C385 1.369 . S
C384 C386 1.419 . S
C384 H388 0.930 . S
C385 C384 1.369 . S
C385 C394 1.429 . S
C386 C384 1.419 . S
C386 C387 1.363 . S
C386 H389 0.929 . S
C387 C386 1.363 . S
C387 C393 1.428 . S
H388 C384 0.930 . S
H389 C386 0.929 . S
S390 N391 1.613 1_554 S
S390 N392 1.610 . S
N391 S390 1.613 1_556 S
N391 C394 1.350 . S
N392 S390 1.610 . S
N392 C393 1.351 1_554 S
C393 C387 1.428 . S
C393 N392 1.351 1_556 S
C393 C394 1.434 . S
C394 C385 1.429 . S
C394 N391 1.350 . S
C394 C393 1.434 . S
C395 C396 1.369 . S
C395 C397 1.419 . S
C395 H399 0.930 . S
C396 C395 1.369 . S
C396 C405 1.429 . S
C397 C395 1.419 . S
C397 C398 1.363 . S
C397 H400 0.929 . S
C398 C397 1.363 . S
C398 C404 1.428 . S
H399 C395 0.930 . S
H400 C397 0.929 . S
S401 N402 1.613 1_565 S
S401 N403 1.610 1_565 S
N402 S401 1.613 1_545 S
N402 C405 1.350 . S
N403 S401 1.610 1_545 S
N403 C404 1.351 . S
C404 C398 1.428 . S
C404 N403 1.351 . S
C404 C405 1.434 . S
C405 C396 1.429 . S
C405 N402 1.350 . S
C405 C404 1.434 . S
C406 C407 1.369 . S
C406 C408 1.419 . S
C406 H410 0.930 . S
C407 C406 1.369 . S
C407 C416 1.429 . S
C408 C406 1.419 . S
C408 C409 1.363 . S
C408 H411 0.929 . S
C409 C408 1.363 . S
C409 C415 1.428 . S
H410 C406 0.930 . S
H411 C408 0.929 . S
S412 N413 1.613 . S
S412 N414 1.610 . S
N413 S412 1.613 . S
N413 C416 1.350 1_556 S
N414 S412 1.610 . S
N414 C415 1.351 1_556 S
C415 C409 1.428 . S
C415 N414 1.351 1_554 S
C415 C416 1.434 . S
C416 C407 1.429 . S
C416 N413 1.350 1_554 S
C416 C415 1.434 . S
C417 C418 1.369 . S
C417 C419 1.419 . S
C417 H421 0.930 . S
C418 C417 1.369 . S
C418 C427 1.429 . S
C419 C417 1.419 . S
C419 C420 1.363 . S
C419 H422 0.929 . S
C420 C419 1.363 . S
C420 C426 1.428 . S
H421 C417 0.930 . S
H422 C419 0.929 . S
S423 N424 1.613 . S
S423 N425 1.610 . S
N424 S423 1.613 . S
N424 C427 1.350 . S
N425 S423 1.610 . S
N425 C426 1.351 . S
C426 C420 1.428 . S
C426 N425 1.351 . S
C426 C427 1.434 . S
C427 C418 1.429 . S
C427 N424 1.350 . S
C427 C426 1.434 . S
C428 C429 1.369 . S
C428 C430 1.419 . S
C428 H432 0.930 . S
C429 C428 1.369 . S
C429 C438 1.429 . S
C430 C428 1.419 . S
C430 C431 1.363 . S
C430 H433 0.929 . S
C431 C430 1.363 . S
C431 C437 1.428 . S
H432 C428 0.930 . S
H433 C430 0.929 . S
S434 N435 1.613 . S
S434 N436 1.610 . S
N435 S434 1.613 . S
N435 C438 1.350 1_455 S
N436 S434 1.610 . S
N436 C437 1.351 1_455 S
C437 C431 1.428 . S
C437 N436 1.351 1_655 S
C437 C438 1.434 . S
C438 C429 1.429 . S
C438 N435 1.350 1_655 S
C438 C437 1.434 . S
C439 C440 1.369 . S
C439 C441 1.419 . S
C439 H443 0.930 . S
C440 C439 1.369 . S
C440 C449 1.429 . S
C441 C439 1.419 . S
C441 C442 1.363 . S
C441 H444 0.929 . S
C442 C441 1.363 . S
C442 C448 1.428 . S
H443 C439 0.930 . S
H444 C441 0.929 . S
S445 N446 1.613 . S
S445 N447 1.610 . S
N446 S445 1.613 . S
N446 C449 1.350 . S
N447 S445 1.610 . S
N447 C448 1.351 . S
C448 C442 1.428 . S
C448 N447 1.351 . S
C448 C449 1.434 . S
C449 C440 1.429 . S
C449 N446 1.350 . S
C449 C448 1.434 . S
C450 C451 1.369 . S
C450 C452 1.419 . S
C450 H454 0.930 . S
C451 C450 1.369 . S
C451 C460 1.429 . S
C452 C450 1.419 . S
C452 C453 1.363 . S
C452 H455 0.929 . S
C453 C452 1.363 . S
C453 C459 1.428 . S
H454 C450 0.930 . S
H455 C452 0.929 . S
S456 N457 1.613 . S
S456 N458 1.610 . S
N457 S456 1.613 . S
N457 C460 1.350 . S
N458 S456 1.610 . S
N458 C459 1.351 . S
C459 C453 1.428 . S
C459 N458 1.351 . S
C459 C460 1.434 . S
C460 C451 1.429 . S
C460 N457 1.350 . S
C460 C459 1.434 . S
C461 C462 1.369 . S
C461 C463 1.419 . S
C461 H465 0.930 . S
C462 C461 1.369 . S
C462 C471 1.429 . S
C463 C461 1.419 . S
C463 C464 1.363 . S
C463 H466 0.929 . S
C464 C463 1.363 . S
C464 C470 1.428 . S
H465 C461 0.930 . S
H466 C463 0.929 . S
S467 N468 1.613 . S
S467 N469 1.610 . S
N468 S467 1.613 . S
N468 C471 1.350 . S
N469 S467 1.610 . S
N469 C470 1.351 . S
C470 C464 1.428 . S
C470 N469 1.351 . S
C470 C471 1.434 . S
C471 C462 1.429 . S
C471 N468 1.350 . S
C471 C470 1.434 . S
C209 C5 2.294 . S
C211 C72 2.306 . S
C220 C14 2.268 . S
C222 C114 2.275 . S
C233 C144 1.007 . S
C231 C25 0.995 . S
C242 C34 1.023 . S
C244 C178 1.038 . S
C255 C135 1.800 . S
C253 C7 1.783 . S
C266 C89 1.816 . S
C264 C13 1.802 . S
C277 C182 1.263 . S
C275 C23 1.242 . S
C288 C148 1.301 . S
C286 C31 1.277 . S
C297 C4 2.167 . S
C299 C203 2.180 . S
C310 C110 1.148 . S
C308 C22 1.144 . S
C319 C32 1.125 . S
C321 C85 1.153 . S
C330 C16 2.147 . S
C332 C169 2.154 . S
C343 C101 2.296 . S
C341 C41 2.285 . S
C352 C50 2.273 . S
C354 C123 2.282 . S
C363 C61 1.001 . S
C365 C153 0.998 . S
C374 C67 1.045 . S
C376 C187 1.041 . S
C385 C40 1.797 . S
C387 C106 1.812 . S
C398 C80 1.801 . S
C396 C52 1.793 . S
C409 C191 1.267 . S
C407 C59 1.250 . S
C420 C157 1.294 . S
C418 C70 1.274 . S
C429 C43 2.168 . S
C431 C174 2.177 . S
C442 C119 1.154 . S
C440 C58 1.143 . S
C453 C76 1.151 . S
C451 C68 1.124 . S
C462 C49 2.154 . S
C464 C140 2.163 . S
