# Generated by pormake.
# Topology zzz, (3,6)-cn, num edge types: 1
# Building blocks:
#     Node 0, Type 0, BuildingBlock: BETDAH_clean_linker_0, # of connection points: 3
#     Node 1, Type 0, BuildingBlock: BETDAH_clean_linker_0, # of connection points: 3
#     Node 2, Type 0, BuildingBlock: BETDAH_clean_linker_0, # of connection points: 3
#     Node 3, Type 0, BuildingBlock: BETDAH_clean_linker_0, # of connection points: 3
#     Node 4, Type 0, BuildingBlock: BETDAH_clean_linker_0, # of connection points: 3
#     Node 5, Type 0, BuildingBlock: BETDAH_clean_linker_0, # of connection points: 3
#     Node 6, Type 0, BuildingBlock: BETDAH_clean_linker_0, # of connection points: 3
#     Node 7, Type 0, BuildingBlock: BETDAH_clean_linker_0, # of connection points: 3
#     Node 8, Type 1, BuildingBlock: KUMBOL_clean_sbu_1, # of connection points: 6
#     Node 9, Type 1, BuildingBlock: KUMBOL_clean_sbu_1, # of connection points: 6
#     Node 10, Type 1, BuildingBlock: KUMBOL_clean_sbu_1, # of connection points: 6
#     Node 11, Type 1, BuildingBlock: KUMBOL_clean_sbu_1, # of connection points: 6
#     Edge 12, Type (0, 1), BuildingBlock: EZIPEK_clean_linker_0, # of connection points: 2
#     Edge 13, Type (0, 1), BuildingBlock: EZIPEK_clean_linker_0, # of connection points: 2
#     Edge 14, Type (0, 1), BuildingBlock: EZIPEK_clean_linker_0, # of connection points: 2
#     Edge 15, Type (0, 1), BuildingBlock: EZIPEK_clean_linker_0, # of connection points: 2
#     Edge 16, Type (0, 1), BuildingBlock: EZIPEK_clean_linker_0, # of connection points: 2
#     Edge 17, Type (0, 1), BuildingBlock: EZIPEK_clean_linker_0, # of connection points: 2
#     Edge 18, Type (0, 1), BuildingBlock: EZIPEK_clean_linker_0, # of connection points: 2
#     Edge 19, Type (0, 1), BuildingBlock: EZIPEK_clean_linker_0, # of connection points: 2
#     Edge 20, Type (0, 1), BuildingBlock: EZIPEK_clean_linker_0, # of connection points: 2
#     Edge 21, Type (0, 1), BuildingBlock: EZIPEK_clean_linker_0, # of connection points: 2
#     Edge 22, Type (0, 1), BuildingBlock: EZIPEK_clean_linker_0, # of connection points: 2
#     Edge 23, Type (0, 1), BuildingBlock: EZIPEK_clean_linker_0, # of connection points: 2
#     Edge 24, Type (0, 1), BuildingBlock: EZIPEK_clean_linker_0, # of connection points: 2
#     Edge 25, Type (0, 1), BuildingBlock: EZIPEK_clean_linker_0, # of connection points: 2
#     Edge 26, Type (0, 1), BuildingBlock: EZIPEK_clean_linker_0, # of connection points: 2
#     Edge 27, Type (0, 1), BuildingBlock: EZIPEK_clean_linker_0, # of connection points: 2
#     Edge 28, Type (0, 1), BuildingBlock: EZIPEK_clean_linker_0, # of connection points: 2
#     Edge 29, Type (0, 1), BuildingBlock: EZIPEK_clean_linker_0, # of connection points: 2
#     Edge 30, Type (0, 1), BuildingBlock: EZIPEK_clean_linker_0, # of connection points: 2
#     Edge 31, Type (0, 1), BuildingBlock: EZIPEK_clean_linker_0, # of connection points: 2
#     Edge 32, Type (0, 1), BuildingBlock: EZIPEK_clean_linker_0, # of connection points: 2
#     Edge 33, Type (0, 1), BuildingBlock: EZIPEK_clean_linker_0, # of connection points: 2
#     Edge 34, Type (0, 1), BuildingBlock: EZIPEK_clean_linker_0, # of connection points: 2
#     Edge 35, Type (0, 1), BuildingBlock: EZIPEK_clean_linker_0, # of connection points: 2
# Relax obj value: 0.244
# Max RMSD: 0.127
# Mean RMSD: 0.086
data_MOF--net-zzz--node1-KUMBOL_clean_sbu_1--node2-BETDAH_clean_linker_0--edge1-EZIPEK_clean_linker_0
_symmetry_space_group_name_H-M    P1
_symmetry_Int_Tables_number       1
_symmetry_cell_setting            triclinic
loop_
_symmetry_equiv_pos_as_xyz
'x, y, z'
_cell_length_a     36.721797
_cell_length_b     36.978984
_cell_length_c     11.748494
_cell_angle_alpha  89.950167
_cell_angle_beta   90.091203
_cell_angle_gamma 90.366898
loop_
_atom_site_label
_atom_site_type_symbol
_atom_site_fract_x
_atom_site_fract_y
_atom_site_fract_z
_atom_type_partial_charge
H0 H 0.8511 0.51963 0.30114 0.0
H1 H 0.74149 0.52935 0.18706 0.0
H2 H 0.76826 0.55536 0.53643 0.0
C3 C 0.82344 0.52774 0.32024 0.0
C4 C 0.81443 0.53896 0.43127 0.0
C5 C 0.79681 0.52318 0.23602 0.0
C6 C 0.76109 0.5333 0.25503 0.0
C7 C 0.74991 0.54518 0.36187 0.0
C8 C 0.77675 0.54764 0.45173 0.0
N9 N 0.71175 0.55248 0.37924 0.0
C10 C 0.68431 0.54861 0.29416 0.0
H11 H 0.05927 0.85004 0.36156 0.0
H12 H 0.03369 0.75203 0.18564 0.0
H13 H 0.97824 0.77762 0.49982 0.0
C14 C 0.04462 0.82444 0.36038 0.0
C15 C 1.01804 0.81794 0.44325 0.0
C16 C 0.04908 0.80151 0.26644 0.0
C17 C 0.03038 0.76871 0.26055 0.0
C18 C 1.00629 0.75832 0.34705 0.0
C19 C 0.99901 0.78383 0.4374 0.0
N20 N 0.9882 0.72356 0.33996 0.0
C21 C 0.99383 0.69705 0.25386 0.0
H22 H 0.70447 0.96366 0.37072 0.0
H23 H 0.80853 0.97379 0.20296 0.0
H24 H 0.78015 0.045 0.47819 0.0
C25 C 0.73099 0.97619 0.36153 0.0
C26 C 0.73856 1.00524 0.43397 0.0
C27 C 0.7548 0.96586 0.27224 0.0
C28 C 0.78956 0.98204 0.26764 0.0
C29 C 0.79945 1.01034 0.34084 0.0
C30 C 0.77345 0.02233 0.42363 0.0
N31 N 0.83445 0.02794 0.32886 0.0
C32 C 0.86124 0.02155 0.24393 0.0
H33 H 0.58261 0.70814 0.32371 0.0
H34 H 0.56382 0.81337 0.17864 0.0
H35 H 0.50664 0.78018 0.48053 0.0
C36 C 0.56943 0.7342 0.3252 0.0
C37 C 0.54458 0.74024 0.41406 0.0
C38 C 0.57477 0.75935 0.23445 0.0
C39 C 0.55883 0.79346 0.24362 0.0
C40 C 0.53413 0.80172 0.32964 0.0
C41 C 0.52662 0.77469 0.41526 0.0
N42 N 0.51562 0.83615 0.32561 0.0
C43 C 0.51935 0.86271 0.23794 0.0
H44 H 0.19354 0.49976 0.19299 0.0
H45 H 0.30366 0.49236 0.31391 0.0
H46 H 0.28178 0.52929 0.97317 0.0
C47 C 0.22241 0.50148 0.17802 0.0
C48 C 0.23346 0.5131 0.06952 0.0
C49 C 0.24726 0.49472 0.26824 0.0
C50 C 0.2845 0.49845 0.24741 0.0
C51 C 0.29772 0.51188 0.14445 0.0
C52 C 0.272 0.5188 0.05363 0.0
N53 N 0.33632 0.51967 0.13494 0.0
C54 C 0.36237 0.51825 0.22548 0.0
H55 H 0.06096 0.20994 0.15741 0.0
H56 H 0.06562 0.31902 0.27934 0.0
H57 H 0.0234 0.29668 0.9448 0.0
C58 C 0.05711 0.23854 0.14357 0.0
C59 C 0.04285 0.24917 0.03704 0.0
C60 C 0.06602 0.26338 0.23152 0.0
C61 C 0.05879 0.29985 0.21378 0.0
C62 C 0.04163 0.3122 0.11514 0.0
C63 C 0.03487 0.28696 0.02395 0.0
N64 N 0.03076 0.34961 0.10999 0.0
C65 C 0.03161 0.37358 0.20471 0.0
H66 H 0.35588 0.08718 0.15736 0.0
H67 H 0.25165 0.07526 0.31912 0.0
H68 H 0.26724 0.03761 0.97673 0.0
C69 C 0.32723 0.08013 0.1537 0.0
C70 C 0.31469 0.06332 0.05386 0.0
C71 C 0.30506 0.08402 0.25145 0.0
C72 C 0.26853 0.07304 0.24507 0.0
C73 C 0.25401 0.05696 0.14711 0.0
C74 C 0.27748 0.05174 0.05095 0.0
N75 N 0.21678 0.04425 0.14681 0.0
C76 C 0.19208 0.04467 0.23995 0.0
H77 H 0.54834 0.36239 0.19855 0.0
H78 H 0.53632 0.25646 0.33945 0.0
H79 H 0.48586 0.28164 0.01599 0.0
C80 C 0.53669 0.33544 0.19113 0.0
C81 C 0.51628 0.32629 0.09416 0.0
C82 C 0.54404 0.31009 0.27652 0.0
C83 C 0.52994 0.27517 0.27133 0.0
C84 C 0.50816 0.26424 0.18035 0.0
C85 C 0.50165 0.28993 0.08942 0.0
N86 N 0.49357 0.22778 0.18011 0.0
C87 C 0.49919 0.20101 0.26614 0.0
C88 C 0.11525 0.07527 0.96215 0.0
C89 C 0.0963 0.07712 0.15948 0.0
C90 C 0.09293 0.06228 0.04976 0.0
C91 C 0.12362 0.10298 0.18127 0.0
C92 C 0.14345 0.10032 0.98543 0.0
C93 C 0.14779 0.11373 0.09592 0.0
N94 N 0.10855 0.06452 0.85368 0.0
C95 C 0.13181 0.07365 0.7681 0.0
C96 C 0.16595 0.11183 0.89624 0.0
C97 C 0.1604 0.098 0.78715 0.0
Gd98 Gd 0.98142 0.04697 0.64387 0.0
Gd99 Gd 0.06465 0.01943 0.83575 0.0
N100 N 0.06581 0.03802 0.02578 0.0
C101 C 0.07023 0.06775 0.24111 0.0
C102 C 0.04389 0.02494 0.11044 0.0
C103 C 0.04498 0.0405 0.21831 0.0
H104 H 0.02522 1.00282 0.09619 0.0
H105 H 0.02627 0.0317 0.28362 0.0
H106 H 0.97722 1.01064 0.38754 0.0
H107 H 0.12927 0.06076 0.68705 0.0
H108 H 0.94137 0.96448 0.28233 0.0
H109 H 0.0691 0.08141 0.32192 0.0
H110 H 0.12562 0.11583 0.26304 0.0
H111 H 0.92136 0.08374 0.82781 0.0
H112 H 0.18796 0.13091 0.91107 0.0
H113 H 0.17848 0.10551 0.7183 0.0
H114 H 0.84568 0.93238 0.5421 0.0
H115 H 0.16876 0.13354 0.11526 0.0
H116 H 0.83022 1.01179 0.85944 0.0
H117 H 0.86295 0.0673 0.91863 0.0
N118 N 0.92342 0.03611 0.72606 0.0
C119 C 0.90447 1.00715 0.68639 0.0
C120 C 0.90768 0.05896 0.80306 0.0
C121 C 0.85613 0.01849 0.82079 0.0
C122 C 0.87446 0.04993 0.85407 0.0
C123 C 0.87031 0.99747 0.73258 0.0
H124 H 0.82419 0.96081 0.71889 0.0
N125 N 0.94782 1.00364 0.5409 0.0
C126 C 0.91692 0.99055 0.58908 0.0
C127 C 0.9051 0.95392 0.42278 0.0
C128 C 0.89509 0.96465 0.53256 0.0
C129 C 0.95495 0.99682 0.4291 0.0
C130 C 0.93453 0.97099 0.36945 0.0
O131 O 0.05455 0.08296 0.81567 0.0
O132 O 0.99462 0.0927 0.76788 0.0
O133 O 0.99012 0.07872 0.49222 0.0
O134 O 0.93805 0.08091 0.57729 0.0
O135 O 1.00909 1.00106 0.90397 0.0
O136 O 0.97964 0.04998 0.83704 0.0
O137 O 0.99738 0.9875 0.61973 0.0
O138 O 0.03698 0.96835 0.7615 0.0
O139 O 0.09527 0.98746 0.95575 0.0
O140 O 0.11609 0.99507 0.78467 0.0
O141 O 0.03929 0.05403 0.56268 0.0
O142 O 0.07569 1.01249 0.65114 0.0
C143 C 0.02593 0.1054 0.8061 0.0
C144 C 0.98037 0.02215 0.90619 0.0
C145 C 0.95814 0.13345 0.48332 0.0
C146 C 0.99301 0.18871 0.46133 0.0
C147 C 0.92938 0.18659 0.4042 0.0
C148 C 0.92747 0.15032 0.43669 0.0
C149 C 0.96228 0.2055 0.41357 0.0
C150 C 0.98985 0.15362 0.50375 0.0
C151 C 0.95841 0.0942 0.49747 0.0
C152 C 0.86255 0.95266 0.58327 0.0
C153 C 0.85028 0.96891 0.68381 0.0
H154 H 0.88897 0.93432 0.37587 0.0
C155 C 1.01579 0.96153 0.6719 0.0
C156 C 0.06967 0.03453 0.56715 0.0
C157 C 0.14186 0.94812 0.89649 0.0
C158 C 0.13715 0.88828 0.9775 0.0
C159 C 0.1953 0.92004 0.97793 0.0
C160 C 0.17888 0.94962 0.92535 0.0
C161 C 0.17414 0.89012 1.00889 0.0
C162 C 0.1225 0.91584 0.90944 0.0
C163 C 0.12219 0.98212 0.88566 0.0
H164 H 0.90589 0.19952 0.36658 0.0
H165 H 0.90256 0.13518 0.42204 0.0
H166 H 0.96408 0.23279 0.3803 0.0
H167 H 1.01337 0.14096 0.5427 0.0
H168 H 0.22359 0.92163 1.00355 0.0
H169 H 0.19433 0.97448 0.91499 0.0
H170 H 0.18615 0.86946 0.06221 0.0
H171 H 0.09391 0.915 0.88593 0.0
C172 C 0.50846 0.91251 0.72459 0.0
C173 C 0.44575 0.89639 0.7673 0.0
C174 C 0.47186 0.92197 0.73009 0.0
C175 C 0.45715 0.86253 0.80713 0.0
C176 C 0.5195 0.87741 0.75555 0.0
C177 C 0.49391 0.8531 0.80129 0.0
N178 N 0.53281 0.93665 0.68081 0.0
C179 C 0.5673 0.92611 0.6534 0.0
C180 C 0.55555 0.86727 0.73481 0.0
C181 C 0.57937 0.89153 0.68194 0.0
Gd182 Gd 0.54211 0.07009 0.85853 0.0
Gd183 Gd 0.51007 0.99459 0.64315 0.0
N184 N 0.46148 0.95507 0.69129 0.0
C185 C 0.40882 0.90509 0.75982 0.0
C186 C 0.42533 0.96191 0.67242 0.0
C187 C 0.39856 0.93764 0.70959 0.0
H188 H 0.41697 0.98678 0.63223 0.0
H189 H 0.37003 0.94397 0.69903 0.0
H190 H 0.59996 0.12484 0.71674 0.0
H191 H 0.58562 0.94431 0.60995 0.0
H192 H 0.60098 0.18764 0.64307 0.0
H193 H 0.38801 0.88622 0.78802 0.0
H194 H 0.43757 0.84292 0.83869 0.0
H195 H 0.49002 0.07225 0.09368 0.0
H196 H 0.56479 0.84024 0.75374 0.0
H197 H 0.60691 0.88347 0.66193 0.0
H198 H 0.49479 0.24166 0.80869 0.0
H199 H 0.50194 0.8265 0.82896 0.0
H200 H 0.43111 0.17199 0.09131 0.0
H201 H 0.44183 0.11129 0.17263 0.0
N202 N 0.50259 0.10856 0.95903 0.0
C203 C 0.49904 0.14262 0.91797 0.0
C204 C 0.4848 0.09839 0.05614 0.0
C205 C 0.45162 0.15465 0.05442 0.0
C206 C 0.45787 0.12059 0.10183 0.0
C207 C 0.47328 0.1666 0.96379 0.0
H208 H 0.45096 0.22064 0.95333 0.0
N209 N 0.54929 0.1309 0.8012 0.0
C210 C 0.52338 0.15427 0.8364 0.0
C211 C 0.55066 0.20216 0.72497 0.0
C212 C 0.52301 0.19043 0.79839 0.0
C213 C 0.57807 0.143 0.73784 0.0
C214 C 0.57877 0.17852 0.69653 0.0
O215 O 0.54325 0.97944 0.79942 0.0
O216 O 0.51945 1.01616 0.93166 0.0
O217 O 0.5713 0.04356 0.99356 0.0
O218 O 0.57864 0.10113 0.96816 0.0
O219 O 0.46193 0.01793 0.74511 0.0
O220 O 0.47991 0.06587 0.8593 0.0
O221 O 0.54498 0.08176 0.66786 0.0
O222 O 0.49372 0.05367 0.60792 0.0
O223 O 0.4951 0.95572 0.51282 0.0
O224 O 0.51276 1.00898 0.46359 0.0
O225 O 0.59019 0.04975 0.74964 0.0
O226 O 0.57071 1.00806 0.61321 0.0
C227 C 0.52965 0.98332 0.90181 0.0
C228 C 0.45453 0.04421 0.81785 0.0
C229 C 0.62954 0.06769 0.03264 0.0
C230 C 0.6806 0.02671 0.05242 0.0
C231 C 0.68756 0.09018 0.10246 0.0
C232 C 0.65107 0.09612 0.07506 0.0
C233 C 0.70207 0.05547 0.09379 0.0
C234 C 0.64534 0.0337 0.01442 0.0
C235 C 0.59 0.07232 0.02047 0.0
C236 C 0.49591 0.21391 0.83813 0.0
C237 C 0.47096 0.20195 0.92048 0.0
H238 H 0.55132 0.2297 0.6934 0.0
C239 C 0.5167 0.08104 0.59965 0.0
C240 C 0.59666 0.02773 0.66268 0.0
C241 C 0.45923 0.98499 0.3825 0.0
C242 C 0.40134 1.01671 0.38673 0.0
C243 C 0.40673 0.95892 0.28855 0.0
C244 C 0.4436 0.95752 0.3166 0.0
C245 C 0.38579 0.98854 0.32208 0.0
C246 C 0.43742 1.01343 0.42136 0.0
C247 C 0.49512 0.97987 0.43342 0.0
H248 H 0.70408 0.11207 0.13588 0.0
H249 H 0.63946 0.12258 0.08956 0.0
H250 H 0.72968 0.05082 0.12276 0.0
H251 H 0.62949 1.01176 0.97919 0.0
H252 H 0.39437 0.93706 0.24068 0.0
H253 H 0.45937 0.93412 0.29308 0.0
H254 H 0.35728 0.98929 0.29874 0.0
H255 H 0.44772 0.03193 0.48418 0.0
C256 C 0.41063 0.49964 0.90466 0.0
C257 C 0.42151 0.46088 0.06771 0.0
C258 C 0.43313 0.48813 0.99161 0.0
C259 C 0.38707 0.44482 0.05308 0.0
C260 C 0.37542 0.48455 0.89236 0.0
C261 C 0.36406 0.45664 0.96561 0.0
N262 N 0.42247 0.52676 0.83557 0.0
C263 C 0.39898 0.54211 0.75927 0.0
C264 C 0.35228 0.49869 0.80905 0.0
C265 C 0.36397 0.52799 0.74351 0.0
Gd266 Gd 0.56366 0.52125 0.67062 0.0
Gd267 Gd 0.4826 0.54843 0.86655 0.0
N268 N 0.46654 0.50368 1.00196 0.0
C269 C 0.44482 0.45072 0.15639 0.0
C270 C 0.48819 0.49567 0.09324 0.0
C271 C 0.47807 0.46867 0.17044 0.0
H272 H 0.51454 0.50814 0.09929 0.0
H273 H 0.49612 0.46138 0.23956 0.0
H274 H 0.52606 0.51083 0.40673 0.0
H275 H 0.40677 0.56593 0.71197 0.0
H276 H 0.52516 0.54565 0.22981 0.0
H277 H 0.43723 0.42943 0.21527 0.0
H278 H 0.37777 0.42363 0.10997 0.0
H279 H 0.63095 0.55766 0.82545 0.0
H280 H 0.32497 0.48802 0.79735 0.0
H281 H 0.3459 0.54022 0.68207 0.0
H282 H 0.62473 0.62816 0.26743 0.0
H283 H 0.33722 0.4446 0.95699 0.0
H284 H 0.68298 0.63986 0.62765 0.0
H285 H 0.67727 0.60593 0.80837 0.0
N286 N 0.60736 0.56768 0.66405 0.0
C287 C 0.6117 0.58397 0.56149 0.0
C288 C 0.63165 0.57401 0.74994 0.0
C289 C 0.66182 0.61951 0.63675 0.0
C290 C 0.65857 0.60062 0.73897 0.0
C291 C 0.63875 0.61079 0.54584 0.0
H292 H 0.66377 0.64725 0.42442 0.0
N293 N 0.56423 0.5464 0.48791 0.0
C294 C 0.58904 0.57358 0.47213 0.0
C295 C 0.56906 0.58027 0.27827 0.0
C296 C 0.5927 0.59052 0.36577 0.0
C297 C 0.54355 0.5342 0.39904 0.0
C298 C 0.54413 0.55251 0.29569 0.0
O299 O 0.49944 0.48814 0.87748 0.0
O300 O 0.53498 0.46926 0.72777 0.0
O301 O 0.59166 0.48584 0.55069 0.0
O302 O 0.61654 0.50013 0.71086 0.0
O303 O 0.54027 0.5597 0.93759 0.0
O304 O 0.57341 0.51403 0.86055 0.0
O305 O 0.55589 0.58234 0.70885 0.0
O306 O 0.49506 0.5907 0.72419 0.0
O307 O 0.49042 0.58273 1.01317 0.0
O308 O 0.43925 0.58429 0.92301 0.0
O309 O 0.50597 0.509 0.59322 0.0
O310 O 0.46919 0.55075 0.6784 0.0
C311 C 0.51628 0.46217 0.82111 0.0
C312 C 0.56873 0.53798 0.94129 0.0
C313 C 0.63292 0.44412 0.63847 0.0
C314 C 0.63061 0.37976 0.60098 0.0
C315 C 0.67325 0.40305 0.73995 0.0
C316 C 0.66097 0.43811 0.71812 0.0
C317 C 0.65798 0.37373 0.68178 0.0
C318 C 0.61814 0.41477 0.57967 0.0
C319 C 0.61923 0.48094 0.6193 0.0
C320 C 0.61999 0.61672 0.34979 0.0
C321 C 0.64273 0.62713 0.43928 0.0
H322 H 0.5699 0.59301 0.19602 0.0
C323 C 0.52708 0.60235 0.68675 0.0
C324 C 0.47508 0.5279 0.59507 0.0
C325 C 0.46166 0.63905 0.99853 0.0
C326 C 0.50019 0.69263 1.00206 0.0
C327 C 0.4362 0.69678 0.05289 0.0
C328 C 0.43207 0.65957 0.03604 0.0
C329 C 0.47033 0.71316 0.03867 0.0
C330 C 0.4947 0.65636 0.97269 0.0
C331 C 0.4596 0.5994 0.99984 0.0
H332 H 0.69455 0.39864 0.8021 0.0
H333 H 0.67312 0.46048 0.76434 0.0
H334 H 0.66752 0.34661 0.69892 0.0
H335 H 0.59673 0.4189 0.51733 0.0
H336 H 0.41347 0.71256 0.08313 0.0
H337 H 0.40625 0.64667 0.05555 0.0
H338 H 0.4738 0.74134 0.06164 0.0
H339 H 0.51764 0.64055 0.94436 0.0
C340 C 0.0811 0.44036 0.91034 0.0
C341 C 0.11205 0.46337 0.07793 0.0
C342 C 0.0831 0.46477 0.99953 0.0
C343 C 0.13948 0.43747 0.06441 0.0
C344 C 0.10733 0.41276 0.90094 0.0
C345 C 0.13705 0.41211 0.9763 0.0
N346 N 0.05202 0.44178 0.83865 0.0
C347 C 0.04463 0.41289 0.7695 0.0
C348 C 0.10199 0.38564 0.81969 0.0
C349 C 0.06993 0.38513 0.75607 0.0
Gd350 Gd 0.03456 0.56213 0.62823 0.0
Gd351 Gd 1.01258 0.49171 0.86458 0.0
N352 N 0.05653 0.48996 1.00992 0.0
C353 C 0.11255 0.48811 0.16763 0.0
C354 C 0.05578 0.51273 0.10154 0.0
C355 C 0.08422 0.51265 0.1804 0.0
H356 H 0.03424 0.53225 0.11011 0.0
H357 H 0.08466 0.53193 0.24962 0.0
H358 H 0.04276 0.50625 0.39197 0.0
H359 H 0.01903 0.41061 0.72556 0.0
H360 H 1.00204 0.48326 0.2425 0.0
H361 H 0.13462 0.48844 0.2274 0.0
H362 H 0.16227 0.43634 0.1229 0.0
H363 H 1.00278 0.64282 0.70362 0.0
H364 H 0.12141 0.36392 0.80998 0.0
H365 H 0.06434 0.36307 0.69804 0.0
H366 H 0.90214 0.56564 0.24445 0.0
H367 H 0.15776 0.3915 0.9691 0.0
H368 H 0.90903 0.66632 0.50001 0.0
H369 H 0.95212 0.68349 0.65318 0.0
N370 N 0.98816 0.60294 0.58117 0.0
C371 C 0.96638 0.59424 0.49167 0.0
C372 C 0.98412 0.6351 0.63664 0.0
C373 C 0.9314 0.64856 0.52112 0.0
C374 C 0.95558 0.65827 0.60793 0.0
C375 C 0.93668 0.61627 0.46147 0.0
H376 H 0.8897 0.62139 0.35092 0.0
N377 N 1.0043 0.54394 0.45745 0.0
C378 C 0.97396 0.56321 0.43044 0.0
C379 C 0.96079 0.52297 0.27349 0.0
C380 C 0.9513 0.55308 0.33837 0.0
C381 C 1.01611 0.51796 0.38364 0.0
C382 C 0.99363 0.50565 0.29532 0.0
O383 O 0.06461 0.52626 0.88109 0.0
O384 O 0.08542 0.53325 0.70229 0.0
O385 O 0.05612 0.59022 0.48102 0.0
O386 O 0.07351 0.60613 0.64903 0.0
O387 O 1.00149 0.54906 0.93131 0.0
O388 O 0.02801 0.58916 0.80326 0.0
O389 O 0.97612 0.56039 0.69801 0.0
O390 O 0.96717 0.50082 0.73051 0.0
O391 O 0.96561 0.49216 0.97637 0.0
O392 O 0.996 0.44293 0.95384 0.0
O393 O 0.05039 0.5027 0.58869 0.0
O394 O 1.00548 0.47252 0.68163 0.0
C395 C 0.0926 0.5285 0.8117 0.0
C396 C 1.01263 0.58219 0.90316 0.0
C397 C 0.11541 0.6112 0.49881 0.0
C398 C 0.16964 0.57601 0.46714 0.0
C399 C 0.1576 0.62886 0.35032 0.0
C400 C 0.125 0.63424 0.40877 0.0
C401 C 0.17948 0.5993 0.37756 0.0
C402 C 0.1393 0.58398 0.5332 0.0
C403 C 0.07797 0.61063 0.54009 0.0
C404 C 0.9203 0.57359 0.31284 0.0
C405 C 0.91322 0.60533 0.37344 0.0
H406 H 0.9438 0.51389 0.20349 0.0
C407 C 0.9543 0.53208 0.69367 0.0
C408 C 0.02922 0.47361 0.59838 0.0
C409 C 0.93228 0.43906 0.94207 0.0
C410 C 0.86674 0.44192 0.92148 0.0
C411 C 0.90123 0.40293 0.79761 0.0
C412 C 0.9334 0.4138 0.85231 0.0
C413 C 0.86783 0.41736 0.83097 0.0
C414 C 0.89879 0.45206 0.97777 0.0
C415 C 0.96538 0.45701 0.98512 0.0
H416 H 0.16489 0.64637 0.27997 0.0
H417 H 0.10666 0.65533 0.38094 0.0
H418 H 0.20339 0.59389 0.32664 0.0
H419 H 0.13249 0.56645 0.60348 0.0
H420 H 0.90235 0.38397 0.72757 0.0
H421 H 0.95905 0.40336 0.82185 0.0
H422 H 0.8431 0.40955 0.7868 0.0
H423 H 0.89775 0.47172 0.04634 0.0
C424 C 0.15447 0.07064 0.4029 0.0
C425 C 0.16249 0.04171 0.32714 0.0
C426 C 0.11277 1.00655 0.41794 0.0
C427 C 0.10048 0.03763 0.47949 0.0
N428 N 0.1088 0.10139 0.51641 0.0
N429 N 0.14477 0.98359 0.25243 0.0
C430 C 0.12127 0.07023 0.46813 0.0
C431 C 0.14023 1.0102 0.33172 0.0
N432 N 0.17779 0.09943 0.40986 0.0
N433 N 0.09955 0.97297 0.44392 0.0
H434 H 0.16492 0.98458 0.18996 0.0
H435 H 0.12665 0.962 0.24323 0.0
H436 H 0.08101 0.96813 0.50882 0.0
H437 H 0.11011 0.94928 0.40964 0.0
H438 H 0.17598 0.11917 0.47279 0.0
H439 H 0.19988 0.10267 0.35539 0.0
H440 H 0.12017 0.12675 0.50011 0.0
H441 H 0.08542 0.10236 0.56639 0.0
C442 C 0.52599 0.14035 0.32472 0.0
C443 C 0.50406 0.17088 0.3513 0.0
C444 C 0.48801 0.14121 0.53545 0.0
C445 C 0.51132 0.11141 0.5117 0.0
N446 N 0.55436 0.08384 0.38504 0.0
N447 N 0.4686 0.20263 0.49036 0.0
C448 C 0.53081 0.11146 0.40647 0.0
C449 C 0.48631 0.17182 0.45909 0.0
N450 N 0.54203 0.13881 0.21992 0.0
N451 N 0.46661 0.13988 0.63033 0.0
H452 H 0.46636 0.22502 0.43672 0.0
H453 H 0.45867 0.20722 0.57197 0.0
H454 H 0.46794 0.11882 0.68916 0.0
H455 H 0.44595 0.15821 0.64736 0.0
H456 H 0.55559 0.11636 0.18875 0.0
H457 H 0.54011 0.15963 0.16024 0.0
H458 H 0.57243 0.08322 0.31706 0.0
H459 H 0.55742 0.06192 0.43987 0.0
C460 C 0.4025 0.48852 0.37843 0.0
C461 C 0.39108 0.51979 0.3174 0.0
C462 C 0.42906 0.5565 0.44851 0.0
C463 C 0.44579 0.52501 0.49881 0.0
N464 N 0.44661 0.45961 0.50366 0.0
N465 N 0.40122 0.58295 0.28064 0.0
C466 C 0.43218 0.49062 0.46017 0.0
C467 C 0.40695 0.55336 0.34798 0.0
N468 N 0.38408 0.45678 0.36156 0.0
N469 N 0.43169 0.58974 0.49842 0.0
H470 H 0.38494 0.58219 0.20777 0.0
H471 H 0.41556 0.60716 0.2913 0.0
H472 H 0.44623 0.5955 0.57163 0.0
H473 H 0.41622 0.61173 0.47167 0.0
H474 H 0.38788 0.43379 0.41131 0.0
H475 H 0.36293 0.45432 0.30261 0.0
H476 H 0.44164 0.43417 0.46878 0.0
H477 H 0.46477 0.45926 0.57176 0.0
C478 C 0.06423 0.40623 0.36467 0.0
C479 C 0.03134 0.3972 0.30811 0.0
C480 C 0.99818 0.4246 0.46815 0.0
C481 C 0.03034 0.44259 0.50879 0.0
N482 N 0.09512 0.43732 0.52273 0.0
N483 N 0.96597 0.40051 0.30459 0.0
C484 C 0.06403 0.42975 0.46371 0.0
C485 C 0.99812 0.40743 0.35907 0.0
N486 N 0.09489 0.39064 0.32291 0.0
N487 N 0.96908 0.41902 0.53798 0.0
H488 H 0.96462 0.38759 0.22572 0.0
H489 H 0.94118 0.4104 0.33415 0.0
H490 H 0.96809 0.42725 0.62223 0.0
H491 H 0.9472 0.40238 0.51519 0.0
H492 H 0.1207 0.39267 0.35906 0.0
H493 H 0.1207 0.39267 0.35906 0.0
H494 H 0.12096 0.42866 0.5009 0.0
H495 H 0.09437 0.45024 0.6013 0.0
C496 C 0.91934 0.04849 0.16329 0.0
C497 C 0.89271 0.02042 0.16276 0.0
C498 C 0.92742 0.98991 1.00864 0.0
C499 C 0.95227 0.01971 1.00205 0.0
N500 N 0.97053 0.07847 0.07113 0.0
N501 N 0.86959 0.96611 0.08514 0.0
C502 C 0.94775 0.04923 0.07914 0.0
C503 C 0.89666 0.99138 0.08535 0.0
N504 N 0.91811 0.07411 0.24691 0.0
N505 N 0.93306 0.96054 0.94046 0.0
H506 H 0.86758 0.94457 0.02834 0.0
H507 H 0.86758 0.94457 0.02834 0.0
H508 H 0.95393 0.95953 0.88052 0.0
H509 H 0.91869 0.93633 0.94659 0.0
H510 H 0.93852 0.09324 0.26051 0.0
H511 H 0.89776 0.07469 0.30873 0.0
H512 H 0.96609 0.10305 0.11165 0.0
H513 H 0.99351 0.07872 0.01956 0.0
C514 C 0.49034 0.90508 0.09354 0.0
C515 C 0.52214 0.89153 0.14764 0.0
C516 C 0.55902 0.93333 0.02663 0.0
C517 C 0.52703 0.95078 0.98487 0.0
N518 N 0.46168 0.95045 0.97392 0.0
N519 N 0.58726 0.89199 0.16266 0.0
C520 C 0.49258 0.93578 0.01765 0.0
C521 C 0.55659 0.90534 0.11243 0.0
N522 N 0.45792 0.88758 0.11156 0.0
N523 N 0.59197 0.9433 0.98303 0.0
H524 H 0.58658 0.87238 0.22646 0.0
H525 H 0.61338 0.90104 0.14469 0.0
H526 H 0.5948 0.96486 0.92726 0.0
H527 H 0.61601 0.9291 0.9953 0.0
H528 H 0.43411 0.89285 0.06667 0.0
H529 H 0.45534 0.86561 0.1668 0.0
H530 H 0.46238 0.97019 0.91095 0.0
H531 H 0.4355 0.94416 1.00155 0.0
C532 C 0.65076 0.57297 0.12391 0.0
C533 C 0.65527 0.54511 0.20499 0.0
C534 C 0.60477 0.51146 0.11078 0.0
C535 C 0.59778 0.54104 0.03551 0.0
N536 N 0.61128 0.60299 0.98688 0.0
N537 N 0.6347 0.48687 0.27508 0.0
C538 C 0.62015 0.5727 0.04676 0.0
C539 C 0.63183 0.51437 0.19856 0.0
N540 N 0.6769 0.59925 0.12159 0.0
N541 N 0.58494 0.48026 0.1015 0.0
H542 H 0.65339 0.48665 0.34216 0.0
H543 H 0.65339 0.48665 0.34216 0.0
H544 H 0.56488 0.47644 0.03987 0.0
H545 H 0.58901 0.45807 0.1549 0.0
H546 H 0.67841 0.61979 0.06094 0.0
H547 H 0.67841 0.61979 0.06094 0.0
H548 H 0.62428 0.62785 0.99523 0.0
H549 H 0.58916 0.60371 0.93199 0.0
C550 C 0.03275 0.66164 0.11548 0.0
C551 C 0.99825 0.66828 0.1649 0.0
C552 C 0.97283 0.61841 0.04554 0.0
C553 C 1.00712 0.61349 0.98904 0.0
N554 N 0.06617 0.64155 0.95109 0.0
N555 N 0.93384 0.65681 0.16215 0.0
C556 C 0.03596 0.63837 0.01804 0.0
C557 C 0.96788 0.64768 0.12557 0.0
N558 N 0.06313 0.67691 0.16313 0.0
N559 N 0.94439 0.59565 0.02154 0.0
H560 H 0.92937 0.67704 0.2223 0.0
H561 H 0.90991 0.64631 0.12757 0.0
H562 H 0.94491 0.57644 0.95706 0.0
H563 H 0.92031 0.5949 0.06796 0.0
H564 H 0.08948 0.66983 0.13942 0.0
H565 H 0.06205 0.69369 0.23435 0.0
H566 H 0.08549 0.66203 0.96213 0.0
H567 H 0.07074 0.62661 0.87797 0.0
C568 C 0.0868 0.21418 0.35525 0.0
C569 C 0.0786 0.25083 0.3472 0.0
C570 C 0.03293 0.24284 0.49355 0.0
C571 C 0.02908 0.20668 0.45405 0.0
N572 N 0.05584 0.15712 0.34511 0.0
N573 N 0.07003 0.29778 0.4846 0.0
C574 C 0.05807 0.19107 0.38964 0.0
C575 C 0.06013 0.26491 0.44231 0.0
N576 N 0.11836 0.20182 0.30999 0.0
N577 N 1.00997 0.25591 0.57456 0.0
H578 H 0.09198 0.31209 0.44982 0.0
H579 H 0.05883 0.30896 0.55781 0.0
H580 H 0.99122 0.23918 0.61615 0.0
H581 H 1.00939 0.28297 0.59896 0.0
H582 H 0.12632 0.17495 0.31758 0.0
H583 H 0.13737 0.21975 0.27475 0.0
H584 H 0.07453 0.14808 0.28568 0.0
H585 H 0.03399 0.13951 0.35552 0.0
C586 C 0.35707 0.10762 0.36323 0.0
C587 C 0.32194 0.09239 0.36535 0.0
C588 C 0.34372 0.04091 0.46995 0.0
C589 C 0.37854 0.04799 0.42212 0.0
N590 N 0.42188 0.0961 0.3756 0.0
N591 N 0.28455 0.06684 0.51211 0.0
C592 C 0.38687 0.08433 0.38796 0.0
C593 C 0.3159 0.06639 0.45066 0.0
N594 N 0.36126 0.14132 0.31805 0.0
N595 N 0.33721 1.00971 0.5284 0.0
H596 H 0.26549 0.08737 0.50047 0.0
H597 H 0.27962 0.04944 0.58028 0.0
H598 H 0.35796 0.99145 0.54636 0.0
H599 H 0.31133 1.00193 0.55567 0.0
H600 H 0.38622 0.15384 0.30266 0.0
H601 H 0.33843 0.1565 0.29547 0.0
H602 H 0.42878 0.1231 0.36289 0.0
H603 H 0.44451 0.07968 0.38269 0.0
C604 C 0.60647 0.32287 0.34872 0.0
C605 C 0.56862 0.31978 0.37054 0.0
C606 C 0.578 0.33971 0.56583 0.0
C607 C 0.61382 0.35012 0.53603 0.0
N608 N 0.6637 0.35087 0.40337 0.0
N609 N 0.51752 0.32433 0.49883 0.0
C610 C 0.62885 0.3407 0.42946 0.0
C611 C 0.55416 0.32716 0.47973 0.0
N612 N 0.62074 0.30876 0.25107 0.0
N613 N 0.5669 0.34291 0.67609 0.0
H614 H 0.49911 0.31521 0.4374 0.0
H615 H 0.50493 0.3331 0.57308 0.0
H616 H 0.58451 0.35228 0.7392 0.0
H617 H 0.54203 0.33332 0.7065 0.0
H618 H 0.64857 0.30742 0.23487 0.0
H619 H 0.60485 0.29543 0.19031 0.0
H620 H 0.67476 0.34902 0.32207 0.0
H621 H 0.6812 0.36269 0.4629 0.0
C622 C 0.24886 0.51385 0.4707 0.0
C623 C 0.23406 0.49016 0.38861 0.0
C624 C 0.17369 0.50834 0.44351 0.0
C625 C 0.18932 0.54159 0.48219 0.0
N626 N 0.24152 0.57173 0.56405 0.0
N627 N 0.18428 0.45019 0.35572 0.0
C628 C 0.22693 0.54275 0.50834 0.0
C629 C 0.1972 0.4814 0.40175 0.0
N630 N 0.28221 0.50724 0.51629 0.0
N631 N 0.13719 0.50245 0.43701 0.0
H632 H 0.20192 0.4312 0.3203 0.0
H633 H 0.15661 0.44435 0.35173 0.0
H634 H 0.11747 0.5208 0.46285 0.0
H635 H 0.11747 0.5208 0.46285 0.0
H636 H 0.29308 0.52254 0.58262 0.0
H637 H 0.29641 0.48372 0.49625 0.0
H638 H 0.26949 0.57529 0.57522 0.0
H639 H 0.22523 0.5924 0.59606 0.0
C640 C 0.1014 0.80353 0.12556 0.0
C641 C 0.0675 0.8165 0.16502 0.0
C642 C 0.07905 0.87487 0.08278 0.0
C643 C 0.11212 0.86221 0.03446 0.0
N644 N 0.148 0.81021 0.98101 0.0
N645 N 1.01787 0.85728 0.13019 0.0
C646 C 0.12122 0.825 0.04607 0.0
C647 C 0.054 0.84944 0.12332 0.0
N648 N 0.1153 0.77199 0.16665 0.0
N649 N 0.07301 0.9107 0.10306 0.0
H650 H 0.99887 0.83797 0.15695 0.0
H651 H 1.00706 0.88111 0.09693 0.0
H652 H 0.09324 0.93037 0.0952 0.0
H653 H 0.04967 0.91985 0.14433 0.0
H654 H 0.14161 0.76337 0.14819 0.0
H655 H 0.10128 0.75573 0.22463 0.0
H656 H 0.15375 0.78264 0.98152 0.0
H657 H 0.16159 0.8249 0.91802 0.0
C658 C 0.70345 0.93595 0.1774 0.0
C659 C 0.74072 0.94395 0.17239 0.0
C660 C 0.72918 0.98192 1.00908 0.0
C661 C 0.69475 0.98924 0.05889 0.0
N662 N 0.6465 0.96795 0.18631 0.0
N663 N 0.78352 0.9441 0.01927 0.0
C664 C 0.67986 0.96351 0.13768 0.0
C665 C 0.75185 0.9563 0.0644 0.0
N666 N 0.69195 0.90726 0.24045 0.0
N667 N 0.74035 1.00071 0.91554 0.0
H668 H 0.79909 0.92509 0.06332 0.0
H669 H 0.79274 0.95112 0.93838 0.0
H670 H 0.72306 0.01874 0.87385 0.0
H671 H 0.76617 0.99822 0.88018 0.0
H672 H 0.66461 0.90058 0.25129 0.0
H673 H 0.71081 0.88962 0.27692 0.0
H674 H 0.63754 0.95211 0.25427 0.0
H675 H 0.62857 0.98838 0.16384 0.0
C676 C 0.57446 0.76271 0.02209 0.0
C677 C 0.59057 0.74782 0.12097 0.0
C678 C 0.56416 0.69068 0.08446 0.0
C679 C 0.53768 0.70759 0.01345 0.0
N680 N 0.52913 0.75378 0.87146 0.0
N681 N 0.62695 0.6957 0.14892 0.0
C682 C 0.54652 0.74204 0.96683 0.0
C683 C 0.59569 0.71084 0.11128 0.0
N684 N 0.58517 0.79608 0.98646 0.0
N685 N 0.55686 0.6602 0.14484 0.0
H686 H 0.64838 0.71171 0.17943 0.0
H687 H 0.6318 0.66829 0.13821 0.0
H688 H 0.53238 0.64599 0.14245 0.0
H689 H 0.57379 0.65297 0.21162 0.0
H690 H 0.57289 0.80989 0.91987 0.0
H691 H 0.60646 0.80971 0.02759 0.0
H692 H 0.53689 0.77694 0.82738 0.0
H693 H 0.50917 0.73806 0.83135 0.0
C694 C 0.80069 0.46329 0.13997 0.0
C695 C 0.80469 0.50152 0.13419 0.0
C696 C 0.82985 0.49641 0.94296 0.0
C697 C 0.83299 0.45878 0.96101 0.0
N698 N 0.81383 0.40507 0.05969 0.0
N699 N 0.81871 0.55539 0.02687 0.0
C700 C 0.81504 0.44188 0.05247 0.0
C701 C 0.81717 0.51851 0.03321 0.0
N702 N 0.78491 0.44633 0.23051 0.0
N703 N 0.84075 0.5105 0.84111 0.0
H704 H 0.80894 0.57203 0.09154 0.0
H705 H 0.83052 0.5696 0.95984 0.0
H706 H 0.85031 0.49388 0.77596 0.0
H707 H 0.83777 0.53749 0.81816 0.0
H708 H 0.77368 0.45966 0.30026 0.0
H709 H 0.77368 0.45966 0.30026 0.0
H710 H 0.80181 0.39148 0.12807 0.0
H711 H 0.82394 0.38855 0.99522 0.0
C712 C 1.0044 0.20839 0.89387 0.0
C713 C 0.0382 0.21873 0.94651 0.0
C714 C 0.05628 0.15603 0.92388 0.0
C715 C 0.02807 0.1458 0.84913 0.0
N716 N 0.97236 0.16874 0.76119 0.0
N717 N 0.10128 0.20131 0.96481 0.0
C718 C 1.00127 0.17405 0.83206 0.0
C719 C 0.06625 0.19278 0.93759 0.0
N720 N 0.97458 0.22962 0.90854 0.0
N721 N 0.06273 0.13446 0.01365 0.0
H722 H 0.10972 0.22801 0.97806 0.0
H723 H 0.12146 0.18152 0.96633 0.0
H724 H 0.0464 0.11176 0.02749 0.0
H725 H 0.07722 0.14439 0.08334 0.0
H726 H 0.94844 0.22164 0.8842 0.0
H727 H 0.97554 0.25387 0.95337 0.0
H728 H 0.95501 0.1896 0.73711 0.0
H729 H 0.9669 0.14463 0.71973 0.0
C730 C 0.36967 0.02675 1.00391 0.0
C731 C 0.34415 0.05267 0.96803 0.0
C732 C 0.38774 0.0678 0.81201 0.0
C733 C 0.41583 0.0473 0.86599 0.0
N734 N 0.43304 0.01806 0.04152 0.0
N735 N 0.33 0.09988 0.83486 0.0
C736 C 0.40662 0.02958 0.96931 0.0
C737 C 0.35343 0.07377 0.87036 0.0
N738 N 0.35875 0.999 0.07182 0.0
N739 N 0.39371 0.08155 0.70596 0.0
H740 H 0.30473 0.1036 0.87361 0.0
H741 H 0.33639 0.11855 0.77139 0.0
H742 H 0.41794 0.0771 0.66207 0.0
H743 H 0.37365 0.09451 0.65856 0.0
H744 H 0.37566 0.97696 0.08648 0.0
H745 H 0.33182 0.99611 0.09905 0.0
H746 H 0.42712 1.00814 0.12242 0.0
H747 H 0.46057 0.02168 0.02495 0.0
C748 C 0.48157 0.37377 0.97059 0.0
C749 C 0.51444 0.3556 1.00002 0.0
C750 C 0.54881 0.40533 0.90241 0.0
C751 C 0.51586 0.42342 0.87175 0.0
N752 N 0.45112 0.41752 0.8479 0.0
N753 N 0.57872 0.35017 0.96682 0.0
C754 C 0.48235 0.40535 0.89748 0.0
C755 C 0.54774 0.37026 0.95659 0.0
N756 N 0.44954 0.36201 0.0166 0.0
N757 N 0.58149 0.42218 0.88469 0.0
H758 H 0.57854 0.32405 1.00054 0.0
H759 H 0.60375 0.3575 0.93205 0.0
H760 H 0.58403 0.44693 0.84369 0.0
H761 H 0.60601 0.4131 0.91839 0.0
H762 H 0.42522 0.37614 1.00909 0.0
H763 H 0.44782 0.33924 0.0687 0.0
H764 H 0.4263 0.40384 0.85322 0.0
H765 H 0.45095 0.4395 0.79213 0.0
C766 C 0.17749 0.55016 1.00949 0.0
C767 C 0.20248 0.52207 0.98331 0.0
C768 C 0.16013 0.50461 0.82427 0.0
C769 C 0.13225 0.52881 0.86271 0.0
N770 N 0.11593 0.57324 1.00453 0.0
N771 N 0.21503 0.47006 0.86833 0.0
C772 C 0.1416 0.55117 0.95862 0.0
C773 C 0.19314 0.49888 0.89053 0.0
N774 N 0.18846 0.57675 0.08278 0.0
N775 N 0.1554 0.48685 0.7238 0.0
H776 H 0.23946 0.46581 0.91164 0.0
H777 H 0.20785 0.44925 0.81286 0.0
H778 H 0.1325 0.49046 0.67344 0.0
H779 H 0.17564 0.47165 0.68493 0.0
H780 H 0.1737 0.60026 0.09722 0.0
H781 H 0.21435 0.57713 0.11957 0.0
H782 H 0.11897 0.58612 0.08281 0.0
H783 H 0.09035 0.57661 0.96902 0.0
C784 C 0.99761 0.88278 0.45856 0.0
C785 C 1.00828 0.85101 0.5169 0.0
C786 C 1.01667 0.89025 0.68817 0.0
C787 C 1.01335 0.92272 0.62124 0.0
N788 N 1.0143 0.94463 0.4261 0.0
N789 N 0.03203 0.82592 0.69023 0.0
C790 C 1.00729 0.91756 0.50191 0.0
C791 C 0.01896 0.85515 0.63295 0.0
N792 N 0.97918 0.87977 0.35823 0.0
N793 N 1.01626 0.8923 0.8041 0.0
H794 H 0.03278 0.80024 0.65351 0.0
H795 H 0.04398 0.82779 0.77057 0.0
H796 H 1.01196 0.91636 0.84787 0.0
H797 H 1.01598 0.86951 0.85633 0.0
H798 H 0.96946 0.90216 0.31384 0.0
H799 H 0.97027 0.85474 0.32761 0.0
H800 H 1.01371 0.94051 0.33824 0.0
H801 H 0.02444 0.96985 0.44936 0.0
C802 C 0.69609 0.99467 0.60362 0.0
C803 C 0.70722 0.01735 0.51173 0.0
C804 C 0.64935 0.05144 0.53608 0.0
C805 C 0.63582 0.02545 0.61569 0.0
N806 N 0.64739 0.97185 0.72544 0.0
N807 N 0.69263 0.06652 0.3861 0.0
C808 C 0.65975 0.9971 0.64991 0.0
C809 C 0.68345 0.04577 0.47794 0.0
N810 N 0.72073 0.97084 0.64727 0.0
N811 N 0.62989 0.08216 0.51711 0.0
H812 H 0.71766 0.06437 0.345 0.0
H813 H 0.67476 0.0844 0.34698 0.0
H814 H 0.60514 0.08704 0.5569 0.0
H815 H 0.6396 0.10407 0.47019 0.0
H816 H 0.71629 0.95535 0.71997 0.0
H817 H 0.74725 0.969 0.61601 0.0
H818 H 0.66124 0.9483 0.74626 0.0
H819 H 0.62176 0.97352 0.76233 0.0
C820 C 0.51503 0.67807 0.45252 0.0
C821 C 0.53609 0.70777 0.49414 0.0
C822 C 0.55082 0.66944 0.66477 0.0
C823 C 0.5308 0.63908 0.62044 0.0
N824 N 0.50383 0.61344 0.45248 0.0
N825 N 0.57734 0.72997 0.63653 0.0
C826 C 0.51541 0.6434 0.50935 0.0
C827 C 0.55481 0.70284 0.59975 0.0
N828 N 0.49416 0.68295 0.35737 0.0
N829 N 0.56619 0.66636 0.7699 0.0
H830 H 0.57947 0.75471 0.5942 0.0
H831 H 0.59499 0.72786 0.70545 0.0
H832 H 0.56442 0.64265 0.81676 0.0
H833 H 0.57933 0.68721 0.81297 0.0
H834 H 0.47514 0.66401 0.32866 0.0
H835 H 0.49338 0.70739 0.313 0.0
H836 H 0.49664 0.61337 0.36668 0.0
H837 H 0.50445 0.58792 0.48928 0.0
C838 C 0.85888 0.56745 0.58269 0.0
C839 C 0.8452 0.53682 0.52142 0.0
C840 C 0.90356 0.50651 0.56357 0.0
C841 C 0.91615 0.53461 0.63627 0.0
N842 N 0.90016 0.59064 0.72876 0.0
N843 N 0.85359 0.47258 0.48883 0.0
C844 C 0.89202 0.56472 0.65022 0.0
C845 C 0.86682 0.505 0.52561 0.0
N846 N 0.84158 0.5998 0.5722 0.0
N847 N 0.92747 0.48258 0.51939 0.0
H848 H 0.82657 0.46838 0.46416 0.0
H849 H 0.82657 0.46838 0.46416 0.0
H850 H 0.95542 0.48639 0.52767 0.0
H851 H 0.91935 0.46294 0.46061 0.0
H852 H 0.85236 0.62397 0.60339 0.0
H853 H 0.81786 0.60287 0.52448 0.0
H854 H 0.88216 0.6111 0.75104 0.0
H855 H 0.92361 0.58994 0.77834 0.0
loop_
_geom_bond_atom_site_label_1
_geom_bond_atom_site_label_2
_geom_bond_distance
_geom_bond_site_symmetry_2
_ccdc_geom_bond_type
H0 C3 0.929 . S
H1 C6 0.929 . S
H2 C8 0.930 . S
C3 H0 0.929 . S
C3 C4 1.398 . S
C3 C5 1.396 . S
C4 C3 1.398 . S
C4 C8 1.407 . S
C5 C3 1.396 . S
C5 C6 1.394 . S
C6 H1 0.929 . S
C6 C5 1.394 . S
C6 C7 1.382 . S
C7 C6 1.382 . S
C7 C8 1.392 . S
C7 N9 1.420 . S
C8 H2 0.930 . S
C8 C4 1.407 . S
C8 C7 1.392 . S
N9 C7 1.420 . S
N9 C10 1.244 . S
C10 N9 1.244 . S
H11 C14 0.929 . S
H12 C17 0.929 . S
H13 C19 0.930 . S
C14 H11 0.929 . S
C14 C15 1.398 . S
C14 C16 1.396 . S
C15 C14 1.398 . S
C15 C19 1.407 . S
C16 C14 1.396 . S
C16 C17 1.394 . S
C17 H12 0.929 . S
C17 C16 1.394 . S
C17 C18 1.382 . S
C18 C17 1.382 . S
C18 C19 1.392 . S
C18 N20 1.419 1_655 S
C19 H13 0.930 . S
C19 C15 1.407 . S
C19 C18 1.392 . S
N20 C18 1.419 1_455 S
N20 C21 1.241 1_455 S
C21 N20 1.241 1_655 S
H22 C25 0.929 . S
H23 C28 0.929 . S
H24 C30 0.934 . S
C25 H22 0.929 . S
C25 C26 1.398 . S
C25 C27 1.396 . S
C26 C25 1.398 . S
C26 C30 1.407 . S
C27 C25 1.396 . S
C27 C28 1.394 . S
C28 H23 0.929 . S
C28 C27 1.394 . S
C28 C29 1.382 . S
C29 C28 1.382 . S
C29 C30 1.392 . S
C29 N31 1.420 1_565 S
C30 H24 0.934 . S
C30 C26 1.407 . S
C30 C29 1.392 . S
N31 C29 1.420 1_545 S
N31 C32 1.244 1_545 S
C32 N31 1.244 1_565 S
H33 C36 0.929 . S
H34 C39 0.929 . S
H35 C41 0.930 . S
C36 H33 0.929 . S
C36 C37 1.398 . S
C36 C38 1.396 . S
C37 C36 1.398 . S
C37 C41 1.407 . S
C38 C36 1.396 . S
C38 C39 1.394 . S
C39 H34 0.929 . S
C39 C38 1.394 . S
C39 C40 1.382 . S
C40 C39 1.382 . S
C40 C41 1.392 . S
C40 N42 1.420 . S
C41 H35 0.930 . S
C41 C37 1.407 . S
C41 C40 1.392 . S
N42 C40 1.420 . S
N42 C43 1.244 . S
C43 N42 1.244 . S
H44 C47 0.929 . S
H45 C50 0.929 . S
H46 C52 0.930 . S
C47 H44 0.929 . S
C47 C48 1.398 1_554 S
C47 C49 1.396 . S
C48 C47 1.398 1_556 S
C48 C52 1.407 . S
C49 C47 1.396 . S
C49 C50 1.394 . S
C50 H45 0.929 . S
C50 C49 1.394 . S
C50 C51 1.382 . S
C51 C50 1.382 . S
C51 C52 1.392 1_554 S
C51 N53 1.420 . S
C52 H46 0.930 . S
C52 C48 1.407 . S
C52 C51 1.392 1_556 S
N53 C51 1.420 . S
N53 C54 1.244 . S
C54 N53 1.244 . S
H55 C58 0.929 . S
H56 C61 0.929 . S
H57 C63 0.930 . S
C58 H55 0.929 . S
C58 C59 1.398 1_554 S
C58 C60 1.396 . S
C59 C58 1.398 1_556 S
C59 C63 1.407 . S
C60 C58 1.396 . S
C60 C61 1.394 . S
C61 H56 0.929 . S
C61 C60 1.394 . S
C61 C62 1.382 . S
C62 C61 1.382 . S
C62 C63 1.392 1_554 S
C62 N64 1.420 . S
C63 H57 0.930 . S
C63 C59 1.407 . S
C63 C62 1.392 1_556 S
N64 C62 1.420 . S
N64 C65 1.244 . S
C65 N64 1.244 . S
H66 C69 0.929 . S
H67 C72 0.929 . S
H68 C74 0.930 . S
C69 H66 0.929 . S
C69 C70 1.398 1_554 S
C69 C71 1.396 . S
C70 C69 1.398 1_556 S
C70 C74 1.407 . S
C71 C69 1.396 . S
C71 C72 1.394 . S
C72 H67 0.929 . S
C72 C71 1.394 . S
C72 C73 1.382 . S
C73 C72 1.382 . S
C73 C74 1.392 1_554 S
C73 N75 1.420 . S
C74 H68 0.930 . S
C74 C70 1.407 . S
C74 C73 1.392 1_556 S
N75 C73 1.420 . S
N75 C76 1.244 . S
C76 N75 1.244 . S
H77 C80 0.929 . S
H78 C83 0.929 . S
H79 C85 0.930 . S
C80 H77 0.929 . S
C80 C81 1.398 1_554 S
C80 C82 1.396 . S
C81 C80 1.398 1_556 S
C81 C85 1.407 . S
C82 C80 1.396 . S
C82 C83 1.394 . S
C83 H78 0.929 . S
C83 C82 1.394 . S
C83 C84 1.382 . S
C84 C83 1.382 . S
C84 C85 1.392 1_554 S
C84 N86 1.420 . S
C85 H79 0.930 . S
C85 C81 1.407 . S
C85 C84 1.392 1_556 S
N86 C84 1.420 . S
N86 C87 1.244 . S
C87 N86 1.244 . S
C88 C90 1.422 . S
C88 C92 1.415 . S
C88 N94 1.369 1_554 S
C89 C90 1.421 . S
C89 C91 1.417 . S
C89 C101 1.422 . S
C90 C88 1.422 . S
C90 C89 1.421 . S
C90 N100 1.359 . S
C91 C89 1.417 . S
C91 C93 1.329 . S
C91 H110 0.930 . S
C92 C88 1.415 . S
C92 C93 1.437 . S
C92 C96 1.413 1_554 S
C93 C91 1.329 . S
C93 C92 1.437 . S
C93 H115 0.929 . S
N94 C88 1.369 1_556 S
N94 C95 1.338 . S
N94 Gd99 2.622 1_545 S
C95 N94 1.338 . S
C95 C97 1.378 . S
C95 H107 0.929 1_545 S
C96 C92 1.413 1_556 S
C96 C97 1.348 . S
C96 H112 0.931 . S
C97 C95 1.378 . S
C97 C96 1.348 . S
C97 H113 0.930 . S
Gd98 N118 2.622 . S
Gd98 N125 2.570 . S
Gd98 O132 2.353 1_655 S
Gd98 O133 2.468 . S
Gd98 O134 2.427 . S
Gd98 O136 2.388 . S
Gd98 O137 2.386 1_545 S
Gd98 O141 2.307 1_655 S
Gd98 C151 2.805 . S
Gd99 N94 2.622 1_565 S
Gd99 N100 2.570 1_566 S
Gd99 O131 2.386 1_565 S
Gd99 O135 2.307 1_465 S
Gd99 O138 2.353 . S
Gd99 O139 2.468 . S
Gd99 O140 2.427 . S
Gd99 O142 2.388 . S
Gd99 C163 2.805 . S
N100 C90 1.359 . S
N100 Gd99 2.570 1_544 S
N100 C102 1.343 . S
C101 C89 1.422 . S
C101 C103 1.321 . S
C101 H109 0.931 . S
C102 N100 1.343 . S
C102 C103 1.390 . S
C102 H104 0.958 . S
C103 C101 1.321 . S
C103 C102 1.390 . S
C103 H105 0.930 . S
H104 C102 0.958 . S
H105 C103 0.930 . S
H106 C129 0.931 1_455 S
H107 C95 0.929 1_565 S
H108 C130 0.930 1_455 S
H109 C101 0.931 . S
H110 C91 0.930 . S
H111 C120 0.929 . S
H112 C96 0.931 . S
H113 C97 0.930 . S
H114 C152 0.930 . S
H115 C93 0.929 . S
H116 C121 0.931 . S
H117 C122 0.930 . S
N118 Gd98 2.622 . S
N118 C119 1.369 1_545 S
N118 C120 1.338 . S
C119 N118 1.369 1_565 S
C119 C123 1.415 . S
C119 C126 1.422 . S
C120 H111 0.929 . S
C120 N118 1.338 . S
C120 C122 1.378 . S
C121 H116 0.931 . S
C121 C122 1.348 1_565 S
C121 C123 1.413 . S
C122 H117 0.930 . S
C122 C120 1.378 . S
C122 C121 1.348 1_545 S
C123 C119 1.415 . S
C123 C121 1.413 . S
C123 C153 1.437 . S
H124 C153 0.929 . S
N125 Gd98 2.570 . S
N125 C126 1.359 1_545 S
N125 C129 1.343 . S
C126 C119 1.422 . S
C126 N125 1.359 1_565 S
C126 C128 1.421 . S
C127 C128 1.422 . S
C127 C130 1.321 . S
C127 H154 0.931 . S
C128 C126 1.421 . S
C128 C127 1.422 . S
C128 C152 1.417 . S
C129 H106 0.931 1_655 S
C129 N125 1.343 . S
C129 C130 1.390 1_545 S
C130 H108 0.930 1_655 S
C130 C127 1.321 . S
C130 C129 1.390 1_565 S
O131 Gd99 2.386 1_545 S
O131 C143 1.265 . S
O132 Gd98 2.353 1_455 S
O132 C143 1.242 . S
O133 Gd98 2.468 . S
O133 C151 1.263 . S
O134 Gd98 2.427 . S
O134 C151 1.252 . S
O135 Gd99 2.307 1_645 S
O135 C144 1.261 . S
O136 Gd98 2.388 . S
O136 C144 1.252 . S
O137 Gd98 2.386 1_565 S
O137 C155 1.265 . S
O138 Gd99 2.353 . S
O138 C155 1.242 1_455 S
O139 Gd99 2.468 . S
O139 C163 1.263 . S
O140 Gd99 2.427 . S
O140 C163 1.252 . S
O141 Gd98 2.307 1_455 S
O141 C156 1.261 . S
O142 Gd99 2.388 . S
O142 C156 1.252 1_565 S
C143 O131 1.265 . S
C143 O132 1.242 . S
C144 O135 1.261 . S
C144 O136 1.252 . S
C145 C148 1.394 . S
C145 C150 1.370 . S
C145 C151 1.500 . S
C146 C149 1.383 . S
C146 C150 1.395 . S
C147 C148 1.396 . S
C147 C149 1.365 . S
C147 H164 0.929 . S
C148 C145 1.394 . S
C148 C147 1.396 . S
C148 H165 0.930 . S
C149 C146 1.383 . S
C149 C147 1.365 . S
C149 H166 0.931 . S
C150 C145 1.370 . S
C150 C146 1.395 . S
C150 H167 0.930 1_655 S
C151 Gd98 2.805 . S
C151 O133 1.263 . S
C151 O134 1.252 . S
C151 C145 1.500 . S
C152 H114 0.930 . S
C152 C128 1.417 . S
C152 C153 1.329 . S
C153 C123 1.437 . S
C153 H124 0.929 . S
C153 C152 1.329 . S
H154 C127 0.931 . S
C155 O137 1.265 . S
C155 O138 1.242 1_655 S
C156 O141 1.261 . S
C156 O142 1.252 1_545 S
C157 C160 1.394 . S
C157 C162 1.370 . S
C157 C163 1.500 1_554 S
C158 C161 1.383 . S
C158 C162 1.395 . S
C159 C160 1.396 . S
C159 C161 1.365 . S
C159 H168 0.929 . S
C160 C157 1.394 . S
C160 C159 1.396 . S
C160 H169 0.930 1_554 S
C161 C158 1.383 . S
C161 C159 1.365 . S
C161 H170 0.931 . S
C162 C157 1.370 . S
C162 C158 1.395 . S
C162 H171 0.930 . S
C163 Gd99 2.805 . S
C163 O139 1.263 . S
C163 O140 1.252 . S
C163 C157 1.500 1_556 S
H164 C147 0.929 . S
H165 C148 0.930 . S
H166 C149 0.931 . S
H167 C150 0.930 1_455 S
H168 C159 0.929 . S
H169 C160 0.930 1_556 S
H170 C161 0.931 . S
H171 C162 0.930 . S
C172 C174 1.422 . S
C172 C176 1.415 . S
C172 N178 1.369 . S
C173 C174 1.421 . S
C173 C175 1.417 . S
C173 C185 1.422 . S
C174 C172 1.422 . S
C174 C173 1.421 . S
C174 N184 1.359 . S
C175 C173 1.417 . S
C175 C177 1.329 . S
C175 H194 0.930 . S
C176 C172 1.415 . S
C176 C177 1.437 . S
C176 C180 1.413 . S
C177 C175 1.329 . S
C177 C176 1.437 . S
C177 H199 0.929 . S
N178 C172 1.369 . S
N178 C179 1.338 . S
N178 Gd183 2.622 . S
C179 N178 1.338 . S
C179 C181 1.378 . S
C179 H191 0.929 . S
C180 C176 1.413 . S
C180 C181 1.348 . S
C180 H196 0.931 . S
C181 C179 1.378 . S
C181 C180 1.348 . S
C181 H197 0.930 . S
Gd182 N202 2.622 . S
Gd182 N209 2.570 . S
Gd182 O216 2.353 1_545 S
Gd182 O217 2.468 . S
Gd182 O218 2.427 1_556 S
Gd182 O220 2.388 . S
Gd182 O221 2.386 . S
Gd182 O225 2.307 . S
Gd182 C235 2.805 1_556 S
Gd183 N178 2.622 . S
Gd183 N184 2.570 . S
Gd183 O215 2.386 . S
Gd183 O219 2.307 1_565 S
Gd183 O222 2.353 1_565 S
Gd183 O223 2.468 . S
Gd183 O224 2.427 . S
Gd183 O226 2.388 . S
Gd183 C247 2.805 . S
N184 C174 1.359 . S
N184 Gd183 2.570 . S
N184 C186 1.343 . S
C185 C173 1.422 . S
C185 C187 1.321 . S
C185 H193 0.931 . S
C186 N184 1.343 . S
C186 C187 1.390 . S
C186 H188 0.931 . S
C187 C185 1.321 . S
C187 C186 1.390 . S
C187 H189 0.930 . S
H188 C186 0.931 . S
H189 C187 0.930 . S
H190 C213 0.931 . S
H191 C179 0.929 . S
H192 C214 0.930 . S
H193 C185 0.931 . S
H194 C175 0.930 . S
H195 C204 0.930 1_554 S
H196 C180 0.931 . S
H197 C181 0.930 . S
H198 C236 0.930 . S
H199 C177 0.929 . S
H200 C205 0.931 1_554 S
H201 C206 0.930 . S
N202 Gd182 2.622 . S
N202 C203 1.369 . S
N202 C204 1.337 . S
C203 N202 1.369 . S
C203 C207 1.415 . S
C203 C210 1.422 . S
C204 H195 0.930 1_556 S
C204 N202 1.337 . S
C204 C206 1.378 1_556 S
C205 H200 0.931 1_556 S
C205 C206 1.348 1_556 S
C205 C207 1.413 . S
C206 H201 0.930 . S
C206 C204 1.378 1_554 S
C206 C205 1.348 1_554 S
C207 C203 1.415 . S
C207 C205 1.413 . S
C207 C237 1.437 . S
H208 C237 0.929 . S
N209 Gd182 2.570 . S
N209 C210 1.359 . S
N209 C213 1.343 . S
C210 C203 1.422 . S
C210 N209 1.359 . S
C210 C212 1.421 . S
C211 C212 1.422 . S
C211 C214 1.321 . S
C211 H238 0.931 . S
C212 C210 1.421 . S
C212 C211 1.422 . S
C212 C236 1.417 . S
C213 H190 0.931 . S
C213 N209 1.343 . S
C213 C214 1.390 . S
C214 H192 0.930 . S
C214 C211 1.321 . S
C214 C213 1.390 . S
O215 Gd183 2.386 . S
O215 C227 1.265 . S
O216 Gd182 2.353 1_565 S
O216 C227 1.242 . S
O217 Gd182 2.468 . S
O217 C235 1.263 1_556 S
O218 Gd182 2.427 1_554 S
O218 C235 1.252 . S
O219 Gd183 2.307 1_545 S
O219 C228 1.261 . S
O220 Gd182 2.388 . S
O220 C228 1.252 . S
O221 Gd182 2.386 . S
O221 C239 1.265 . S
O222 Gd183 2.353 1_545 S
O222 C239 1.242 . S
O223 Gd183 2.468 . S
O223 C247 1.263 . S
O224 Gd183 2.427 . S
O224 C247 1.252 . S
O225 Gd182 2.307 . S
O225 C240 1.262 . S
O226 Gd183 2.388 . S
O226 C240 1.251 1_565 S
C227 O215 1.265 . S
C227 O216 1.242 . S
C228 O219 1.261 . S
C228 O220 1.252 . S
C229 C232 1.394 . S
C229 C234 1.370 . S
C229 C235 1.500 . S
C230 C233 1.383 . S
C230 C234 1.395 . S
C231 C232 1.396 . S
C231 C233 1.365 . S
C231 H248 0.929 . S
C232 C229 1.394 . S
C232 C231 1.396 . S
C232 H249 0.930 . S
C233 C230 1.383 . S
C233 C231 1.365 . S
C233 H250 0.931 . S
C234 C229 1.370 . S
C234 C230 1.395 . S
C234 H251 0.930 . S
C235 Gd182 2.805 1_554 S
C235 O217 1.263 1_554 S
C235 O218 1.252 . S
C235 C229 1.500 . S
C236 H198 0.930 . S
C236 C212 1.417 . S
C236 C237 1.329 . S
C237 C207 1.437 . S
C237 H208 0.929 . S
C237 C236 1.329 . S
H238 C211 0.931 . S
C239 O221 1.265 . S
C239 O222 1.242 . S
C240 O225 1.262 . S
C240 O226 1.251 1_545 S
C241 C244 1.394 . S
C241 C246 1.370 . S
C241 C247 1.500 . S
C242 C245 1.383 . S
C242 C246 1.395 . S
C243 C244 1.396 . S
C243 C245 1.365 . S
C243 H252 0.929 . S
C244 C241 1.394 . S
C244 C243 1.396 . S
C244 H253 0.930 . S
C245 C242 1.383 . S
C245 C243 1.365 . S
C245 H254 0.931 . S
C246 C241 1.370 . S
C246 C242 1.395 . S
C246 H255 0.930 1_565 S
C247 Gd183 2.805 . S
C247 O223 1.263 . S
C247 O224 1.252 . S
C247 C241 1.500 . S
H248 C231 0.929 . S
H249 C232 0.930 . S
H250 C233 0.931 . S
H251 C234 0.930 . S
H252 C243 0.929 . S
H253 C244 0.930 . S
H254 C245 0.931 . S
H255 C246 0.930 1_545 S
C256 C258 1.422 . S
C256 C260 1.415 . S
C256 N262 1.369 1_554 S
C257 C258 1.421 . S
C257 C259 1.417 . S
C257 C269 1.422 . S
C258 C256 1.422 . S
C258 C257 1.421 . S
C258 N268 1.359 . S
C259 C257 1.417 . S
C259 C261 1.329 . S
C259 H278 0.930 . S
C260 C256 1.415 . S
C260 C261 1.437 . S
C260 C264 1.413 1_554 S
C261 C259 1.329 . S
C261 C260 1.437 . S
C261 H283 0.929 . S
N262 C256 1.369 1_556 S
N262 C263 1.338 . S
N262 Gd267 2.622 . S
C263 N262 1.338 . S
C263 C265 1.378 . S
C263 H275 0.929 . S
C264 C260 1.413 1_556 S
C264 C265 1.348 . S
C264 H280 0.931 . S
C265 C263 1.378 . S
C265 C264 1.348 . S
C265 H281 0.930 . S
Gd266 N286 2.622 . S
Gd266 N293 2.570 . S
Gd266 O300 2.353 . S
Gd266 O301 2.468 . S
Gd266 O302 2.427 . S
Gd266 O304 2.388 . S
Gd266 O305 2.386 . S
Gd266 O309 2.307 . S
Gd266 C319 2.805 . S
Gd267 N262 2.622 . S
Gd267 N268 2.570 1_556 S
Gd267 O299 2.386 . S
Gd267 O303 2.307 . S
Gd267 O306 2.353 . S
Gd267 O307 2.468 . S
Gd267 O308 2.427 . S
Gd267 O310 2.388 . S
Gd267 C331 2.805 . S
N268 C258 1.359 . S
N268 Gd267 2.570 1_554 S
N268 C270 1.343 . S
C269 C257 1.422 . S
C269 C271 1.321 . S
C269 H277 0.931 . S
C270 N268 1.343 . S
C270 C271 1.390 . S
C270 H272 0.931 . S
C271 C269 1.321 . S
C271 C270 1.390 . S
C271 H273 0.930 . S
H272 C270 0.931 . S
H273 C271 0.930 . S
H274 C297 0.931 . S
H275 C263 0.929 . S
H276 C298 0.930 . S
H277 C269 0.931 . S
H278 C259 0.930 . S
H279 C288 0.929 . S
H280 C264 0.931 . S
H281 C265 0.930 . S
H282 C320 0.930 . S
H283 C261 0.929 . S
H284 C289 0.931 . S
H285 C290 0.930 . S
N286 Gd266 2.622 . S
N286 C287 1.369 . S
N286 C288 1.338 . S
C287 N286 1.369 . S
C287 C291 1.415 . S
C287 C294 1.422 . S
C288 H279 0.929 . S
C288 N286 1.338 . S
C288 C290 1.378 . S
C289 H284 0.931 . S
C289 C290 1.348 . S
C289 C291 1.413 . S
C290 H285 0.930 . S
C290 C288 1.378 . S
C290 C289 1.348 . S
C291 C287 1.415 . S
C291 C289 1.413 . S
C291 C321 1.437 . S
H292 C321 0.929 . S
N293 Gd266 2.570 . S
N293 C294 1.359 . S
N293 C297 1.343 . S
C294 C287 1.422 . S
C294 N293 1.359 . S
C294 C296 1.421 . S
C295 C296 1.422 . S
C295 C298 1.321 . S
C295 H322 0.931 . S
C296 C294 1.421 . S
C296 C295 1.422 . S
C296 C320 1.417 . S
C297 H274 0.931 . S
C297 N293 1.343 . S
C297 C298 1.390 . S
C298 H276 0.930 . S
C298 C295 1.321 . S
C298 C297 1.390 . S
O299 Gd267 2.386 . S
O299 C311 1.265 . S
O300 Gd266 2.353 . S
O300 C311 1.242 . S
O301 Gd266 2.468 . S
O301 C319 1.263 . S
O302 Gd266 2.427 . S
O302 C319 1.252 . S
O303 Gd267 2.307 . S
O303 C312 1.261 . S
O304 Gd266 2.388 . S
O304 C312 1.252 . S
O305 Gd266 2.386 . S
O305 C323 1.265 . S
O306 Gd267 2.353 . S
O306 C323 1.242 . S
O307 Gd267 2.468 . S
O307 C331 1.263 . S
O308 Gd267 2.427 . S
O308 C331 1.252 . S
O309 Gd266 2.307 . S
O309 C324 1.261 . S
O310 Gd267 2.388 . S
O310 C324 1.252 . S
C311 O299 1.265 . S
C311 O300 1.242 . S
C312 O303 1.261 . S
C312 O304 1.252 . S
C313 C316 1.394 . S
C313 C318 1.370 . S
C313 C319 1.500 . S
C314 C317 1.383 . S
C314 C318 1.395 . S
C315 C316 1.396 . S
C315 C317 1.365 . S
C315 H332 0.929 . S
C316 C313 1.394 . S
C316 C315 1.396 . S
C316 H333 0.930 . S
C317 C314 1.383 . S
C317 C315 1.365 . S
C317 H334 0.931 . S
C318 C313 1.370 . S
C318 C314 1.395 . S
C318 H335 0.930 . S
C319 Gd266 2.805 . S
C319 O301 1.263 . S
C319 O302 1.252 . S
C319 C313 1.500 . S
C320 H282 0.930 . S
C320 C296 1.417 . S
C320 C321 1.329 . S
C321 C291 1.437 . S
C321 H292 0.929 . S
C321 C320 1.329 . S
H322 C295 0.931 . S
C323 O305 1.265 . S
C323 O306 1.242 . S
C324 O309 1.261 . S
C324 O310 1.252 . S
C325 C328 1.394 . S
C325 C330 1.370 . S
C325 C331 1.500 1_554 S
C326 C329 1.383 . S
C326 C330 1.395 . S
C327 C328 1.396 . S
C327 C329 1.365 . S
C327 H336 0.929 . S
C328 C325 1.394 . S
C328 C327 1.396 . S
C328 H337 0.930 1_554 S
C329 C326 1.383 . S
C329 C327 1.365 . S
C329 H338 0.931 . S
C330 C325 1.370 . S
C330 C326 1.395 . S
C330 H339 0.930 . S
C331 Gd267 2.805 . S
C331 O307 1.263 . S
C331 O308 1.252 . S
C331 C325 1.500 1_556 S
H332 C315 0.929 . S
H333 C316 0.930 . S
H334 C317 0.931 . S
H335 C318 0.930 . S
H336 C327 0.929 . S
H337 C328 0.930 1_556 S
H338 C329 0.931 . S
H339 C330 0.930 . S
C340 C342 1.422 . S
C340 C344 1.415 . S
C340 N346 1.369 1_554 S
C341 C342 1.421 . S
C341 C343 1.417 . S
C341 C353 1.422 . S
C342 C340 1.422 . S
C342 C341 1.421 . S
C342 N352 1.359 . S
C343 C341 1.417 . S
C343 C345 1.329 . S
C343 H362 0.930 . S
C344 C340 1.415 . S
C344 C345 1.437 . S
C344 C348 1.413 1_554 S
C345 C343 1.329 . S
C345 C344 1.437 . S
C345 H367 0.929 . S
N346 C340 1.369 1_556 S
N346 C347 1.339 . S
N346 Gd351 2.622 1_455 S
C347 N346 1.339 . S
C347 C349 1.384 . S
C347 H359 0.921 1_455 S
C348 C344 1.413 1_556 S
C348 C349 1.348 . S
C348 H364 0.931 . S
C349 C347 1.384 . S
C349 C348 1.348 . S
C349 H365 0.930 . S
Gd350 N370 2.622 . S
Gd350 N377 2.570 . S
Gd350 O384 2.353 . S
Gd350 O385 2.468 . S
Gd350 O386 2.427 . S
Gd350 O388 2.388 . S
Gd350 O389 2.386 1_455 S
Gd350 O393 2.307 . S
Gd350 C403 2.805 . S
Gd351 N346 2.622 1_655 S
Gd351 N352 2.570 1_656 S
Gd351 O383 2.386 1_655 S
Gd351 O387 2.307 1_655 S
Gd351 O390 2.353 . S
Gd351 O391 2.468 . S
Gd351 O392 2.427 . S
Gd351 O394 2.388 . S
Gd351 C415 2.805 . S
N352 C342 1.359 . S
N352 Gd351 2.570 1_454 S
N352 C354 1.343 . S
C353 C341 1.422 . S
C353 C355 1.321 . S
C353 H361 0.931 . S
C354 N352 1.343 . S
C354 C355 1.390 . S
C354 H356 0.931 . S
C355 C353 1.321 . S
C355 C354 1.390 . S
C355 H357 0.930 . S
H356 C354 0.931 . S
H357 C355 0.930 . S
H358 C381 0.931 . S
H359 C347 0.921 1_655 S
H360 C382 0.930 . S
H361 C353 0.931 . S
H362 C343 0.930 . S
H363 C372 0.929 . S
H364 C348 0.931 . S
H365 C349 0.930 . S
H366 C404 0.930 . S
H367 C345 0.929 . S
H368 C373 0.931 . S
H369 C374 0.930 . S
N370 Gd350 2.622 . S
N370 C371 1.369 1_455 S
N370 C372 1.338 . S
C371 N370 1.369 1_655 S
C371 C375 1.415 . S
C371 C378 1.422 . S
C372 H363 0.929 . S
C372 N370 1.338 . S
C372 C374 1.378 . S
C373 H368 0.931 . S
C373 C374 1.348 1_655 S
C373 C375 1.413 . S
C374 H369 0.930 . S
C374 C372 1.378 . S
C374 C373 1.348 1_455 S
C375 C371 1.415 . S
C375 C373 1.413 . S
C375 C405 1.437 . S
H376 C405 0.929 . S
N377 Gd350 2.570 . S
N377 C378 1.359 1_455 S
N377 C381 1.343 . S
C378 C371 1.422 . S
C378 N377 1.359 1_655 S
C378 C380 1.421 . S
C379 C380 1.422 . S
C379 C382 1.321 . S
C379 H406 0.931 . S
C380 C378 1.421 . S
C380 C379 1.422 . S
C380 C404 1.417 . S
C381 H358 0.931 . S
C381 N377 1.343 . S
C381 C382 1.390 1_455 S
C382 H360 0.930 . S
C382 C379 1.321 . S
C382 C381 1.390 1_655 S
O383 Gd351 2.386 1_455 S
O383 C395 1.265 . S
O384 Gd350 2.353 . S
O384 C395 1.242 . S
O385 Gd350 2.468 . S
O385 C403 1.263 . S
O386 Gd350 2.427 . S
O386 C403 1.252 . S
O387 Gd351 2.307 1_455 S
O387 C396 1.261 . S
O388 Gd350 2.388 . S
O388 C396 1.252 . S
O389 Gd350 2.386 1_655 S
O389 C407 1.265 . S
O390 Gd351 2.353 . S
O390 C407 1.242 . S
O391 Gd351 2.468 . S
O391 C415 1.263 . S
O392 Gd351 2.427 . S
O392 C415 1.252 . S
O393 Gd350 2.307 . S
O393 C408 1.261 . S
O394 Gd351 2.388 . S
O394 C408 1.252 1_655 S
C395 O383 1.265 . S
C395 O384 1.242 . S
C396 O387 1.261 . S
C396 O388 1.252 . S
C397 C400 1.394 . S
C397 C402 1.370 . S
C397 C403 1.500 . S
C398 C401 1.383 . S
C398 C402 1.395 . S
C399 C400 1.396 . S
C399 C401 1.365 . S
C399 H416 0.929 . S
C400 C397 1.394 . S
C400 C399 1.396 . S
C400 H417 0.930 . S
C401 C398 1.383 . S
C401 C399 1.365 . S
C401 H418 0.931 . S
C402 C397 1.370 . S
C402 C398 1.395 . S
C402 H419 0.930 . S
C403 Gd350 2.805 . S
C403 O385 1.263 . S
C403 O386 1.252 . S
C403 C397 1.500 . S
C404 H366 0.930 . S
C404 C380 1.417 . S
C404 C405 1.329 . S
C405 C375 1.437 . S
C405 H376 0.929 . S
C405 C404 1.329 . S
H406 C379 0.931 . S
C407 O389 1.265 . S
C407 O390 1.242 . S
C408 O393 1.261 . S
C408 O394 1.252 1_455 S
C409 C412 1.394 . S
C409 C414 1.370 . S
C409 C415 1.500 1_554 S
C410 C413 1.383 . S
C410 C414 1.395 . S
C411 C412 1.396 . S
C411 C413 1.365 . S
C411 H420 0.929 . S
C412 C409 1.394 . S
C412 C411 1.396 . S
C412 H421 0.930 1_554 S
C413 C410 1.383 . S
C413 C411 1.365 . S
C413 H422 0.931 . S
C414 C409 1.370 . S
C414 C410 1.395 . S
C414 H423 0.930 . S
C415 Gd351 2.805 . S
C415 O391 1.263 . S
C415 O392 1.252 . S
C415 C409 1.500 1_556 S
H416 C399 0.929 . S
H417 C400 0.930 . S
H418 C401 0.931 . S
H419 C402 0.930 . S
H420 C411 0.929 . S
H421 C412 0.930 1_556 S
H422 C413 0.931 . S
H423 C414 0.930 . S
C424 C425 1.363 . S
C424 C430 1.379 . S
C424 N432 1.356 . S
C425 C424 1.363 . S
C425 C431 1.363 . S
C426 C427 1.363 . S
C426 C431 1.379 . S
C426 N433 1.356 1_545 S
C427 C426 1.363 . S
C427 C430 1.363 . S
N428 C430 1.356 . S
N428 H440 0.984 . S
N428 H441 0.985 . S
N429 C431 1.356 1_565 S
N429 H434 0.992 . S
N429 H435 0.985 . S
C430 C424 1.379 . S
C430 C427 1.363 . S
C430 N428 1.356 . S
C431 C425 1.363 . S
C431 C426 1.379 . S
C431 N429 1.356 1_545 S
N432 C424 1.356 . S
N432 H438 0.984 . S
N432 H439 0.984 . S
N433 C426 1.356 1_565 S
N433 H436 0.984 . S
N433 H437 0.985 . S
H434 N429 0.992 . S
H435 N429 0.985 . S
H436 N433 0.984 . S
H437 N433 0.985 . S
H438 N432 0.984 . S
H439 N432 0.984 . S
H440 N428 0.984 . S
H441 N428 0.985 . S
C442 C443 1.363 . S
C442 C448 1.379 . S
C442 N450 1.356 . S
C443 C442 1.363 . S
C443 C449 1.363 . S
C444 C445 1.363 . S
C444 C449 1.379 . S
C444 N451 1.356 . S
C445 C444 1.363 . S
C445 C448 1.363 . S
N446 C448 1.356 . S
N446 H458 0.984 . S
N446 H459 0.985 . S
N447 C449 1.356 . S
N447 H452 0.984 . S
N447 H453 0.985 . S
C448 C442 1.379 . S
C448 C445 1.363 . S
C448 N446 1.356 . S
C449 C443 1.363 . S
C449 C444 1.379 . S
C449 N447 1.356 . S
N450 C442 1.356 . S
N450 H456 0.984 . S
N450 H457 0.984 . S
N451 C444 1.356 . S
N451 H454 0.984 . S
N451 H455 0.985 . S
H452 N447 0.984 . S
H453 N447 0.985 . S
H454 N451 0.984 . S
H455 N451 0.985 . S
H456 N450 0.984 . S
H457 N450 0.984 . S
H458 N446 0.984 . S
H459 N446 0.985 . S
C460 C461 1.363 . S
C460 C466 1.379 . S
C460 N468 1.356 . S
C461 C460 1.363 . S
C461 C467 1.363 . S
C462 C463 1.363 . S
C462 C467 1.379 . S
C462 N469 1.356 . S
C463 C462 1.363 . S
C463 C466 1.363 . S
N464 C466 1.356 . S
N464 H476 0.984 . S
N464 H477 0.985 . S
N465 C467 1.356 . S
N465 H470 0.984 . S
N465 H471 0.985 . S
C466 C460 1.379 . S
C466 C463 1.363 . S
C466 N464 1.356 . S
C467 C461 1.363 . S
C467 C462 1.379 . S
C467 N465 1.356 . S
N468 C460 1.356 . S
N468 H474 0.984 . S
N468 H475 0.984 . S
N469 C462 1.356 . S
N469 H472 0.984 . S
N469 H473 0.985 . S
H470 N465 0.984 . S
H471 N465 0.985 . S
H472 N469 0.984 . S
H473 N469 0.985 . S
H474 N468 0.984 . S
H475 N468 0.984 . S
H476 N464 0.984 . S
H477 N464 0.985 . S
C478 C479 1.363 . S
C478 C484 1.379 . S
C478 N486 1.356 . S
C479 C478 1.363 . S
C479 C485 1.363 . S
C480 C481 1.363 . S
C480 C485 1.379 . S
C480 N487 1.356 1_455 S
C481 C480 1.363 . S
C481 C484 1.363 . S
N482 C484 1.356 . S
N482 H494 0.984 . S
N482 H495 0.985 . S
N483 C485 1.356 1_655 S
N483 H488 0.984 1_655 S
N483 H489 0.985 . S
C484 C478 1.379 . S
C484 C481 1.363 . S
C484 N482 1.356 . S
C485 C479 1.363 . S
C485 C480 1.379 . S
C485 N483 1.356 1_455 S
N486 C478 1.356 . S
N486 H492 0.984 . S
N486 H493 0.984 . S
N487 C480 1.356 1_655 S
N487 H490 0.984 . S
N487 H491 0.985 . S
H488 N483 0.984 1_455 S
H489 N483 0.985 . S
H490 N487 0.984 . S
H491 N487 0.985 . S
H492 N486 0.984 . S
H493 N486 0.984 . S
H494 N482 0.984 . S
H495 N482 0.985 . S
C496 C497 1.363 1_545 S
C496 C502 1.379 . S
C496 N504 1.356 . S
C497 C496 1.363 1_565 S
C497 C503 1.363 . S
C498 C499 1.388 . S
C498 C503 1.379 . S
C498 N505 1.362 . S
C499 C498 1.388 . S
C499 C502 1.341 1_565 S
N500 C502 1.356 1_556 S
N500 H512 0.984 1_556 S
N500 H513 0.985 . S
N501 C503 1.356 . S
N501 H506 0.984 . S
N501 H507 0.985 . S
C502 C496 1.379 . S
C502 C499 1.341 1_545 S
C502 N500 1.356 1_554 S
C503 C497 1.363 . S
C503 C498 1.379 . S
C503 N501 1.356 . S
N504 C496 1.356 . S
N504 H510 0.984 . S
N504 H511 0.984 . S
N505 C498 1.362 . S
N505 H508 0.977 1_554 S
N505 H509 0.987 . S
H506 N501 0.984 . S
H507 N501 0.985 . S
H508 N505 0.977 1_556 S
H509 N505 0.987 . S
H510 N504 0.984 . S
H511 N504 0.984 . S
H512 N500 0.984 1_554 S
H513 N500 0.985 . S
C514 C515 1.363 . S
C514 C520 1.379 . S
C514 N522 1.356 . S
C515 C514 1.363 . S
C515 C521 1.363 . S
C516 C517 1.363 . S
C516 C521 1.379 . S
C516 N523 1.356 1_554 S
C517 C516 1.363 . S
C517 C520 1.363 . S
N518 C520 1.356 . S
N518 H530 0.984 . S
N518 H531 0.985 1_554 S
N519 C521 1.356 . S
N519 H524 0.984 . S
N519 H525 0.985 . S
C520 C514 1.379 . S
C520 C517 1.363 . S
C520 N518 1.356 . S
C521 C515 1.363 . S
C521 C516 1.379 . S
C521 N519 1.356 . S
N522 C514 1.356 . S
N522 H528 0.984 . S
N522 H529 0.984 . S
N523 C516 1.356 1_556 S
N523 H526 0.984 . S
N523 H527 0.985 . S
H524 N519 0.984 . S
H525 N519 0.985 . S
H526 N523 0.984 . S
H527 N523 0.985 . S
H528 N522 0.984 . S
H529 N522 0.984 . S
H530 N518 0.984 . S
H531 N518 0.985 1_556 S
C532 C533 1.363 . S
C532 C538 1.379 . S
C532 N540 1.356 . S
C533 C532 1.363 . S
C533 C539 1.363 . S
C534 C535 1.363 . S
C534 C539 1.379 . S
C534 N541 1.356 1_554 S
C535 C534 1.363 . S
C535 C538 1.363 . S
N536 C538 1.356 . S
N536 H548 0.984 . S
N536 H549 0.985 1_554 S
N537 C539 1.356 . S
N537 H542 0.984 . S
N537 H543 0.985 . S
C538 C532 1.379 . S
C538 C535 1.363 . S
C538 N536 1.356 . S
C539 C533 1.363 . S
C539 C534 1.379 . S
C539 N537 1.356 . S
N540 C532 1.356 . S
N540 H546 0.984 . S
N540 H547 0.984 . S
N541 C534 1.356 1_556 S
N541 H544 0.984 . S
N541 H545 0.985 . S
H542 N537 0.984 . S
H543 N537 0.985 . S
H544 N541 0.984 . S
H545 N541 0.985 . S
H546 N540 0.984 . S
H547 N540 0.984 . S
H548 N536 0.984 . S
H549 N536 0.985 1_556 S
C550 C551 1.363 1_455 S
C550 C556 1.379 . S
C550 N558 1.356 . S
C551 C550 1.363 1_655 S
C551 C557 1.363 . S
C552 C553 1.363 . S
C552 C557 1.379 . S
C552 N559 1.356 1_554 S
C553 C552 1.363 . S
C553 C556 1.363 1_655 S
N554 C556 1.356 . S
N554 H566 0.984 . S
N554 H567 0.985 1_554 S
N555 C557 1.356 . S
N555 H560 0.984 . S
N555 H561 0.985 . S
C556 C550 1.379 . S
C556 C553 1.363 1_455 S
C556 N554 1.356 . S
C557 C551 1.363 . S
C557 C552 1.379 . S
C557 N555 1.356 . S
N558 C550 1.356 . S
N558 H564 0.984 . S
N558 H565 0.984 . S
N559 C552 1.356 1_556 S
N559 H562 0.984 . S
N559 H563 0.985 . S
H560 N555 0.984 . S
H561 N555 0.985 . S
H562 N559 0.984 . S
H563 N559 0.985 . S
H564 N558 0.984 . S
H565 N558 0.984 . S
H566 N554 0.984 . S
H567 N554 0.985 1_556 S
C568 C569 1.363 . S
C568 C574 1.379 . S
C568 N576 1.356 . S
C569 C568 1.363 . S
C569 C575 1.363 . S
C570 C571 1.363 . S
C570 C575 1.379 1_655 S
C570 N577 1.356 . S
C571 C570 1.363 . S
C571 C574 1.363 1_655 S
N572 C574 1.356 . S
N572 H584 0.984 . S
N572 H585 0.985 . S
N573 C575 1.353 1_655 S
N573 H578 0.965 1_655 S
N573 H579 1.007 . S
C574 C568 1.379 . S
C574 C571 1.363 1_455 S
C574 N572 1.356 . S
C575 C569 1.363 . S
C575 C570 1.379 1_455 S
C575 N573 1.353 1_455 S
N576 C568 1.356 . S
N576 H582 0.984 . S
N576 H583 0.984 . S
N577 C570 1.356 . S
N577 H580 0.984 . S
N577 H581 0.985 . S
H578 N573 0.965 1_455 S
H579 N573 1.007 . S
H580 N577 0.984 . S
H581 N577 0.985 . S
H582 N576 0.984 . S
H583 N576 0.984 . S
H584 N572 0.984 . S
H585 N572 0.985 . S
C586 C587 1.363 . S
C586 C592 1.379 . S
C586 N594 1.356 . S
C587 C586 1.363 . S
C587 C593 1.363 . S
C588 C589 1.351 1_565 S
C588 C593 1.379 1_565 S
C588 N595 1.356 . S
C589 C588 1.351 1_545 S
C589 C592 1.391 . S
N590 C592 1.356 . S
N590 H602 0.984 . S
N590 H603 0.985 . S
N591 C593 1.356 1_565 S
N591 H596 0.984 1_565 S
N591 H597 0.985 . S
C592 C586 1.379 . S
C592 C589 1.391 . S
C592 N590 1.356 . S
C593 C587 1.363 . S
C593 C588 1.379 1_545 S
C593 N591 1.356 1_545 S
N594 C586 1.356 . S
N594 H600 0.984 . S
N594 H601 0.984 . S
N595 C588 1.356 . S
N595 H598 0.984 . S
N595 H599 0.985 . S
H596 N591 0.984 1_545 S
H597 N591 0.985 . S
H598 N595 0.984 . S
H599 N595 0.985 . S
H600 N594 0.984 . S
H601 N594 0.984 . S
H602 N590 0.984 . S
H603 N590 0.985 . S
C604 C605 1.363 . S
C604 C610 1.379 . S
C604 N612 1.356 . S
C605 C604 1.363 . S
C605 C611 1.363 . S
C606 C607 1.363 . S
C606 C611 1.379 . S
C606 N613 1.356 . S
C607 C606 1.363 . S
C607 C610 1.363 . S
N608 C610 1.356 . S
N608 H620 0.984 . S
N608 H621 0.985 . S
N609 C611 1.356 . S
N609 H614 0.984 . S
N609 H615 0.985 . S
C610 C604 1.379 . S
C610 C607 1.363 . S
C610 N608 1.356 . S
C611 C605 1.363 . S
C611 C606 1.379 . S
C611 N609 1.356 . S
N612 C604 1.356 . S
N612 H618 0.984 1_554 S
N612 H619 0.984 . S
N613 C606 1.356 . S
N613 H616 0.984 . S
N613 H617 0.985 . S
H614 N609 0.984 . S
H615 N609 0.985 . S
H616 N613 0.984 . S
H617 N613 0.985 . S
H618 N612 0.984 1_556 S
H619 N612 0.984 . S
H620 N608 0.984 . S
H621 N608 0.985 . S
C622 C623 1.363 . S
C622 C628 1.379 . S
C622 N630 1.356 . S
C623 C622 1.363 . S
C623 C629 1.363 . S
C624 C625 1.363 . S
C624 C629 1.379 . S
C624 N631 1.356 . S
C625 C624 1.363 . S
C625 C628 1.363 . S
N626 C628 1.356 . S
N626 H638 0.984 . S
N626 H639 0.985 . S
N627 C629 1.356 . S
N627 H632 0.984 . S
N627 H633 0.985 1_554 S
C628 C622 1.379 . S
C628 C625 1.363 . S
C628 N626 1.356 . S
C629 C623 1.363 . S
C629 C624 1.379 . S
C629 N627 1.356 . S
N630 C622 1.356 . S
N630 H636 0.984 . S
N630 H637 0.984 . S
N631 C624 1.356 . S
N631 H634 0.984 . S
N631 H635 0.985 . S
H632 N627 0.984 . S
H633 N627 0.985 1_556 S
H634 N631 0.984 . S
H635 N631 0.985 . S
H636 N630 0.984 . S
H637 N630 0.984 . S
H638 N626 0.984 . S
H639 N626 0.985 . S
C640 C641 1.363 1_455 S
C640 C646 1.379 . S
C640 N648 1.356 . S
C641 C640 1.363 1_655 S
C641 C647 1.363 . S
C642 C643 1.363 1_655 S
C642 C647 1.379 . S
C642 N649 1.356 . S
C643 C642 1.363 1_455 S
C643 C646 1.363 . S
N644 C646 1.356 . S
N644 H656 0.984 . S
N644 H657 0.985 . S
N645 C647 1.356 . S
N645 H650 0.984 . S
N645 H651 0.985 . S
C646 C640 1.379 . S
C646 C643 1.363 . S
C646 N644 1.356 . S
C647 C641 1.363 . S
C647 C642 1.379 . S
C647 N645 1.356 . S
N648 C640 1.356 . S
N648 H654 0.984 . S
N648 H655 0.984 1_455 S
N649 C642 1.356 . S
N649 H652 0.983 1_655 S
N649 H653 0.986 . S
H650 N645 0.984 . S
H651 N645 0.985 . S
H652 N649 0.983 1_455 S
H653 N649 0.986 . S
H654 N648 0.984 . S
H655 N648 0.984 1_655 S
H656 N644 0.984 . S
H657 N644 0.985 . S
C658 C659 1.363 . S
C658 C664 1.379 1_565 S
C658 N666 1.356 . S
C659 C658 1.363 . S
C659 C665 1.363 1_565 S
C660 C661 1.363 . S
C660 C665 1.379 . S
C660 N667 1.356 . S
C661 C660 1.363 . S
C661 C664 1.363 . S
N662 C664 1.356 . S
N662 H674 0.984 . S
N662 H675 0.985 . S
N663 C665 1.356 1_565 S
N663 H668 0.984 . S
N663 H669 0.985 1_565 S
C664 C658 1.379 1_545 S
C664 C661 1.363 . S
C664 N662 1.356 . S
C665 C659 1.363 1_545 S
C665 C660 1.379 . S
C665 N663 1.356 1_545 S
N666 C658 1.356 . S
N666 H672 0.984 . S
N666 H673 0.984 . S
N667 C660 1.356 . S
N667 H670 0.984 . S
N667 H671 0.985 . S
H668 N663 0.984 . S
H669 N663 0.985 1_545 S
H670 N667 0.984 . S
H671 N667 0.985 . S
H672 N666 0.984 . S
H673 N666 0.984 . S
H674 N662 0.984 . S
H675 N662 0.985 . S
C676 C677 1.363 . S
C676 C682 1.379 . S
C676 N684 1.356 . S
C677 C676 1.363 . S
C677 C683 1.363 . S
C678 C679 1.363 . S
C678 C683 1.379 . S
C678 N685 1.356 . S
C679 C678 1.363 . S
C679 C682 1.363 . S
N680 C682 1.356 . S
N680 H692 0.984 . S
N680 H693 0.985 . S
N681 C683 1.356 . S
N681 H686 0.984 . S
N681 H687 0.985 . S
C682 C676 1.379 . S
C682 C679 1.363 . S
C682 N680 1.356 . S
C683 C677 1.363 . S
C683 C678 1.379 . S
C683 N681 1.356 . S
N684 C676 1.356 . S
N684 H690 0.984 . S
N684 H691 0.984 . S
N685 C678 1.356 . S
N685 H688 0.984 . S
N685 H689 0.985 . S
H686 N681 0.984 . S
H687 N681 0.985 . S
H688 N685 0.984 . S
H689 N685 0.985 . S
H690 N684 0.984 . S
H691 N684 0.984 . S
H692 N680 0.984 . S
H693 N680 0.985 . S
C694 C695 1.363 . S
C694 C700 1.379 . S
C694 N702 1.356 . S
C695 C694 1.363 . S
C695 C701 1.363 . S
C696 C697 1.363 . S
C696 C701 1.379 . S
C696 N703 1.356 . S
C697 C696 1.363 . S
C697 C700 1.363 . S
N698 C700 1.356 . S
N698 H710 0.984 . S
N698 H711 0.985 . S
N699 C701 1.356 . S
N699 H704 0.984 . S
N699 H705 0.985 . S
C700 C694 1.379 . S
C700 C697 1.363 . S
C700 N698 1.356 . S
C701 C695 1.363 . S
C701 C696 1.379 . S
C701 N699 1.356 . S
N702 C694 1.356 . S
N702 H708 0.984 . S
N702 H709 0.984 . S
N703 C696 1.356 . S
N703 H706 0.984 . S
N703 H707 0.985 1_554 S
H704 N699 0.984 . S
H705 N699 0.985 . S
H706 N703 0.984 . S
H707 N703 0.985 1_556 S
H708 N702 0.984 . S
H709 N702 0.984 . S
H710 N698 0.984 . S
H711 N698 0.985 . S
C712 C713 1.363 . S
C712 C718 1.379 . S
C712 N720 1.357 . S
C713 C712 1.363 . S
C713 C719 1.363 . S
C714 C715 1.363 . S
C714 C719 1.379 . S
C714 N721 1.356 . S
C715 C714 1.363 . S
C715 C718 1.363 . S
N716 C718 1.356 1_655 S
N716 H728 0.984 . S
N716 H729 0.984 1_655 S
N717 C719 1.356 1_554 S
N717 H722 0.984 1_554 S
N717 H723 0.985 . S
C718 C712 1.379 . S
C718 C715 1.363 . S
C718 N716 1.356 1_455 S
C719 C713 1.363 . S
C719 C714 1.379 . S
C719 N717 1.356 1_556 S
N720 C712 1.357 . S
N720 H726 0.983 1_455 S
N720 H727 0.985 . S
N721 C714 1.356 . S
N721 H724 0.984 . S
N721 H725 0.985 1_556 S
H722 N717 0.984 1_556 S
H723 N717 0.985 . S
H724 N721 0.984 . S
H725 N721 0.985 1_554 S
H726 N720 0.983 1_655 S
H727 N720 0.985 . S
H728 N716 0.984 . S
H729 N716 0.984 1_455 S
C730 C731 1.363 . S
C730 C736 1.379 . S
C730 N738 1.356 1_556 S
C731 C730 1.363 . S
C731 C737 1.363 . S
C732 C733 1.363 . S
C732 C737 1.379 . S
C732 N739 1.356 . S
C733 C732 1.363 . S
C733 C736 1.363 . S
N734 C736 1.356 1_554 S
N734 H746 0.984 1_545 S
N734 H747 0.985 1_554 S
N735 C737 1.356 . S
N735 H740 0.984 . S
N735 H741 0.985 . S
C736 C730 1.379 . S
C736 C733 1.363 . S
C736 N734 1.356 1_556 S
C737 C731 1.363 . S
C737 C732 1.379 . S
C737 N735 1.356 . S
N738 C730 1.356 1_554 S
N738 H744 0.984 . S
N738 H745 0.984 1_554 S
N739 C732 1.356 . S
N739 H742 0.984 . S
N739 H743 0.985 . S
H740 N735 0.984 . S
H741 N735 0.985 . S
H742 N739 0.984 . S
H743 N739 0.985 . S
H744 N738 0.984 . S
H745 N738 0.984 1_556 S
H746 N734 0.984 1_565 S
H747 N734 0.985 1_556 S
C748 C749 1.363 . S
C748 C754 1.379 . S
C748 N756 1.356 . S
C749 C748 1.363 . S
C749 C755 1.363 . S
C750 C751 1.363 . S
C750 C755 1.379 . S
C750 N757 1.356 . S
C751 C750 1.363 . S
C751 C754 1.363 . S
N752 C754 1.356 . S
N752 H764 0.984 1_556 S
N752 H765 0.985 . S
N753 C755 1.356 . S
N753 H758 0.984 . S
N753 H759 0.985 . S
C754 C748 1.379 . S
C754 C751 1.363 . S
C754 N752 1.356 . S
C755 C749 1.363 . S
C755 C750 1.379 . S
C755 N753 1.356 . S
N756 C748 1.356 . S
N756 H762 0.984 1_556 S
N756 H763 0.984 . S
N757 C750 1.356 . S
N757 H760 0.984 . S
N757 H761 0.985 . S
H758 N753 0.984 . S
H759 N753 0.985 . S
H760 N757 0.984 . S
H761 N757 0.985 . S
H762 N756 0.984 1_554 S
H763 N756 0.984 . S
H764 N752 0.984 1_554 S
H765 N752 0.985 . S
C766 C767 1.363 . S
C766 C772 1.379 . S
C766 N774 1.356 1_556 S
C767 C766 1.363 . S
C767 C773 1.363 . S
C768 C769 1.363 . S
C768 C773 1.379 . S
C768 N775 1.356 . S
C769 C768 1.363 . S
C769 C772 1.363 . S
N770 C772 1.356 1_554 S
N770 H782 0.984 . S
N770 H783 0.985 1_554 S
N771 C773 1.356 . S
N771 H776 0.984 . S
N771 H777 0.985 . S
C772 C766 1.379 . S
C772 C769 1.363 . S
C772 N770 1.356 1_556 S
C773 C767 1.363 . S
C773 C768 1.379 . S
C773 N771 1.356 . S
N774 C766 1.356 1_554 S
N774 H780 0.984 . S
N774 H781 0.984 . S
N775 C768 1.356 . S
N775 H778 0.984 . S
N775 H779 0.985 . S
H776 N771 0.984 . S
H777 N771 0.985 . S
H778 N775 0.984 . S
H779 N775 0.985 . S
H780 N774 0.984 . S
H781 N774 0.984 . S
H782 N770 0.984 . S
H783 N770 0.985 1_556 S
C784 C785 1.363 . S
C784 C790 1.379 . S
C784 N792 1.356 . S
C785 C784 1.363 . S
C785 C791 1.363 . S
C786 C787 1.363 . S
C786 C791 1.379 . S
C786 N793 1.356 . S
C787 C786 1.363 . S
C787 C790 1.363 . S
N788 C790 1.356 . S
N788 H800 0.984 . S
N788 H801 0.985 . S
N789 C791 1.356 . S
N789 H794 0.984 . S
N789 H795 0.985 . S
C790 C784 1.379 . S
C790 C787 1.363 . S
C790 N788 1.356 . S
C791 C785 1.363 . S
C791 C786 1.379 . S
C791 N789 1.356 . S
N792 C784 1.356 . S
N792 H798 0.984 . S
N792 H799 0.984 . S
N793 C786 1.356 . S
N793 H796 0.984 . S
N793 H797 0.985 . S
H794 N789 0.984 . S
H795 N789 0.985 . S
H796 N793 0.984 . S
H797 N793 0.985 . S
H798 N792 0.984 . S
H799 N792 0.984 . S
H800 N788 0.984 . S
H801 N788 0.985 . S
C802 C803 1.363 . S
C802 C808 1.379 . S
C802 N810 1.356 . S
C803 C802 1.363 . S
C803 C809 1.363 1_565 S
C804 C805 1.363 1_545 S
C804 C809 1.379 . S
C804 N811 1.356 . S
C805 C804 1.363 1_565 S
C805 C808 1.363 . S
N806 C808 1.356 . S
N806 H818 0.984 . S
N806 H819 0.985 . S
N807 C809 1.356 . S
N807 H812 0.984 . S
N807 H813 0.985 . S
C808 C802 1.379 . S
C808 C805 1.363 . S
C808 N806 1.356 . S
C809 C803 1.363 1_545 S
C809 C804 1.379 . S
C809 N807 1.356 . S
N810 C802 1.356 . S
N810 H816 0.984 . S
N810 H817 0.984 . S
N811 C804 1.356 . S
N811 H814 0.984 . S
N811 H815 0.985 . S
H812 N807 0.984 . S
H813 N807 0.985 . S
H814 N811 0.984 . S
H815 N811 0.985 . S
H816 N810 0.984 . S
H817 N810 0.984 . S
H818 N806 0.984 . S
H819 N806 0.985 . S
C820 C821 1.363 . S
C820 C826 1.379 . S
C820 N828 1.356 . S
C821 C820 1.363 . S
C821 C827 1.363 . S
C822 C823 1.363 . S
C822 C827 1.379 . S
C822 N829 1.356 . S
C823 C822 1.363 . S
C823 C826 1.363 . S
N824 C826 1.356 . S
N824 H836 0.984 . S
N824 H837 0.985 . S
N825 C827 1.356 . S
N825 H830 0.984 . S
N825 H831 0.985 . S
C826 C820 1.379 . S
C826 C823 1.363 . S
C826 N824 1.356 . S
C827 C821 1.363 . S
C827 C822 1.379 . S
C827 N825 1.356 . S
N828 C820 1.356 . S
N828 H834 0.984 . S
N828 H835 0.984 . S
N829 C822 1.356 . S
N829 H832 0.984 . S
N829 H833 0.985 . S
H830 N825 0.984 . S
H831 N825 0.985 . S
H832 N829 0.984 . S
H833 N829 0.985 . S
H834 N828 0.984 . S
H835 N828 0.984 . S
H836 N824 0.984 . S
H837 N824 0.985 . S
C838 C839 1.363 . S
C838 C844 1.379 . S
C838 N846 1.356 . S
C839 C838 1.363 . S
C839 C845 1.363 . S
C840 C841 1.363 . S
C840 C845 1.379 . S
C840 N847 1.356 . S
C841 C840 1.363 . S
C841 C844 1.363 . S
N842 C844 1.356 . S
N842 H854 0.984 . S
N842 H855 0.985 . S
N843 C845 1.356 . S
N843 H848 0.984 . S
N843 H849 0.985 . S
C844 C838 1.379 . S
C844 C841 1.363 . S
C844 N842 1.356 . S
C845 C839 1.363 . S
C845 C840 1.379 . S
C845 N843 1.356 . S
N846 C838 1.356 . S
N846 H852 0.984 . S
N846 H853 0.984 . S
N847 C840 1.356 . S
N847 H850 0.984 . S
N847 H851 0.985 . S
H848 N843 0.984 . S
H849 N843 0.985 . S
H850 N847 0.984 . S
H851 N847 0.985 . S
H852 N846 0.984 . S
H853 N846 0.984 . S
H854 N842 0.984 . S
H855 N842 0.985 . S
C425 C76 1.972 . S
C427 C156 2.180 . S
C445 C239 2.186 . S
C443 C87 1.973 . S
C463 C324 2.180 . S
C461 C54 1.970 . S
C481 C408 2.166 . S
C479 C65 1.960 . S
C499 C144 2.174 1_564 S
C497 C32 1.977 . S
C515 C43 1.977 . S
C517 C227 2.186 1_554 S
C533 C10 1.974 . S
C535 C312 2.180 1_554 S
C551 C21 1.965 . S
C553 C396 2.167 1_654 S
C571 C146 0.767 . S
C569 C60 0.766 . S
C589 C242 0.745 1_545 S
C587 C71 0.753 . S
C607 C314 0.775 . S
C605 C82 0.773 . S
C623 C49 0.754 . S
C625 C398 0.754 . S
C641 C16 0.765 . S
C643 C158 0.767 . S
C661 C230 0.753 . S
C659 C27 0.753 . S
C679 C326 0.775 . S
C677 C38 0.772 . S
C695 C5 0.754 . S
C697 C410 0.754 . S
C713 C59 2.025 . S
C715 C143 2.293 . S
C731 C70 2.030 . S
C733 C228 2.338 . S
C751 C311 2.310 . S
C749 C81 2.039 . S
C769 C395 2.313 . S
C767 C48 2.044 . S
C785 C15 2.023 . S
C787 C155 2.293 . S
C805 C240 2.338 1_565 S
C803 C26 2.027 . S
C823 C323 2.309 . S
C821 C37 2.036 . S
C839 C4 2.042 . S
C841 C407 2.313 . S
