# Generated by pormake.
# Topology zzz, (3,6)-cn, num edge types: 1
# Building blocks:
#     Node 0, Type 0, BuildingBlock: ESEHIV_clean_linker_0, # of connection points: 3
#     Node 1, Type 0, BuildingBlock: ESEHIV_clean_linker_0, # of connection points: 3
#     Node 2, Type 0, BuildingBlock: ESEHIV_clean_linker_0, # of connection points: 3
#     Node 3, Type 0, BuildingBlock: ESEHIV_clean_linker_0, # of connection points: 3
#     Node 4, Type 0, BuildingBlock: ESEHIV_clean_linker_0, # of connection points: 3
#     Node 5, Type 0, BuildingBlock: ESEHIV_clean_linker_0, # of connection points: 3
#     Node 6, Type 0, BuildingBlock: ESEHIV_clean_linker_0, # of connection points: 3
#     Node 7, Type 0, BuildingBlock: ESEHIV_clean_linker_0, # of connection points: 3
#     Node 8, Type 1, BuildingBlock: INOVEN_clean_sbu_0, # of connection points: 6
#     Node 9, Type 1, BuildingBlock: INOVEN_clean_sbu_0, # of connection points: 6
#     Node 10, Type 1, BuildingBlock: INOVEN_clean_sbu_0, # of connection points: 6
#     Node 11, Type 1, BuildingBlock: INOVEN_clean_sbu_0, # of connection points: 6
#     Edge 12, Type (0, 1), BuildingBlock: EZIPEK_clean_linker_0, # of connection points: 2
#     Edge 13, Type (0, 1), BuildingBlock: EZIPEK_clean_linker_0, # of connection points: 2
#     Edge 14, Type (0, 1), BuildingBlock: EZIPEK_clean_linker_0, # of connection points: 2
#     Edge 15, Type (0, 1), BuildingBlock: EZIPEK_clean_linker_0, # of connection points: 2
#     Edge 16, Type (0, 1), BuildingBlock: EZIPEK_clean_linker_0, # of connection points: 2
#     Edge 17, Type (0, 1), BuildingBlock: EZIPEK_clean_linker_0, # of connection points: 2
#     Edge 18, Type (0, 1), BuildingBlock: EZIPEK_clean_linker_0, # of connection points: 2
#     Edge 19, Type (0, 1), BuildingBlock: EZIPEK_clean_linker_0, # of connection points: 2
#     Edge 20, Type (0, 1), BuildingBlock: EZIPEK_clean_linker_0, # of connection points: 2
#     Edge 21, Type (0, 1), BuildingBlock: EZIPEK_clean_linker_0, # of connection points: 2
#     Edge 22, Type (0, 1), BuildingBlock: EZIPEK_clean_linker_0, # of connection points: 2
#     Edge 23, Type (0, 1), BuildingBlock: EZIPEK_clean_linker_0, # of connection points: 2
#     Edge 24, Type (0, 1), BuildingBlock: EZIPEK_clean_linker_0, # of connection points: 2
#     Edge 25, Type (0, 1), BuildingBlock: EZIPEK_clean_linker_0, # of connection points: 2
#     Edge 26, Type (0, 1), BuildingBlock: EZIPEK_clean_linker_0, # of connection points: 2
#     Edge 27, Type (0, 1), BuildingBlock: EZIPEK_clean_linker_0, # of connection points: 2
#     Edge 28, Type (0, 1), BuildingBlock: EZIPEK_clean_linker_0, # of connection points: 2
#     Edge 29, Type (0, 1), BuildingBlock: EZIPEK_clean_linker_0, # of connection points: 2
#     Edge 30, Type (0, 1), BuildingBlock: EZIPEK_clean_linker_0, # of connection points: 2
#     Edge 31, Type (0, 1), BuildingBlock: EZIPEK_clean_linker_0, # of connection points: 2
#     Edge 32, Type (0, 1), BuildingBlock: EZIPEK_clean_linker_0, # of connection points: 2
#     Edge 33, Type (0, 1), BuildingBlock: EZIPEK_clean_linker_0, # of connection points: 2
#     Edge 34, Type (0, 1), BuildingBlock: EZIPEK_clean_linker_0, # of connection points: 2
#     Edge 35, Type (0, 1), BuildingBlock: EZIPEK_clean_linker_0, # of connection points: 2
# Relax obj value: 0.608
# Max RMSD: 0.266
# Mean RMSD: 0.250
data_MOF--net-zzz--node1-INOVEN_clean_sbu_0--node2-ESEHIV_clean_linker_0--edge1-EZIPEK_clean_linker_0
_symmetry_space_group_name_H-M    P1
_symmetry_Int_Tables_number       1
_symmetry_cell_setting            triclinic
loop_
_symmetry_equiv_pos_as_xyz
'x, y, z'
_cell_length_a     31.932917
_cell_length_b     32.126528
_cell_length_c     10.505058
_cell_angle_alpha  89.412968
_cell_angle_beta   89.921325
_cell_angle_gamma 90.180133
loop_
_atom_site_label
_atom_site_type_symbol
_atom_site_fract_x
_atom_site_fract_y
_atom_site_fract_z
_atom_type_partial_charge
H0 H 0.82077 0.60132 0.41654 0.0
H1 H 0.71305 0.60073 0.17528 0.0
H2 H 0.73382 0.49974 0.44179 0.0
C3 C 0.79224 0.58688 0.38473 0.0
C4 C 0.78196 0.54819 0.43868 0.0
C5 C 0.76956 0.60513 0.28459 0.0
C6 C 0.73141 0.58686 0.25111 0.0
C7 C 0.71801 0.54902 0.30586 0.0
C8 C 0.7435 0.52928 0.40063 0.0
H9 H 0.10462 0.83413 0.21937 0.0
H10 H 0.10014 0.71149 0.06439 0.0
H11 H 1.00354 0.75055 0.3231 0.0
C12 C 0.08873 0.80439 0.21119 0.0
C13 C 0.05266 0.79636 0.28538 0.0
C14 C 0.10627 0.77368 0.1331 0.0
C15 C 0.08614 0.73541 0.12283 0.0
C16 C 0.04789 0.7275 0.18315 0.0
C17 C 0.03168 0.75748 0.26924 0.0
H18 H 0.72269 0.07625 0.26957 0.0
H19 H 0.84686 0.06457 0.11977 0.0
H20 H 0.79322 0.96433 0.34361 0.0
C21 C 0.75148 0.05859 0.26232 0.0
C22 C 0.7549 1.02022 0.32779 0.0
C23 C 0.78396 0.07386 0.18399 0.0
C24 C 0.82158 0.05207 0.17804 0.0
C25 C 0.82454 1.01153 0.22687 0.0
C26 C 0.79131 0.99561 0.30477 0.0
H27 H 0.43995 0.71384 0.32393 0.0
H28 H 0.55295 0.78196 0.40644 0.0
H29 H 0.45727 0.83713 0.1714 0.0
C30 C 0.45869 0.74196 0.31563 0.0
C31 C 0.44457 0.77482 0.23694 0.0
C32 C 0.49588 0.74512 0.3871 0.0
C33 C 0.52239 0.7801 0.36238 0.0
C34 C 0.50935 0.81209 0.27652 0.0
C35 C 0.46858 0.81105 0.22786 0.0
H36 H 0.25088 0.58204 0.08782 0.0
H37 H 0.32017 0.57168 0.43294 0.0
H38 H 0.29944 0.46304 0.2082 0.0
C39 C 0.26822 0.56301 0.15483 0.0
C40 C 0.26774 0.5194 0.14355 0.0
C41 C 0.28218 0.5816 0.26648 0.0
C42 C 0.30856 0.55821 0.34588 0.0
C43 C 0.31906 0.51671 0.3183 0.0
C44 C 0.29637 0.49632 0.22027 0.0
H45 H 0.94081 0.20047 0.32932 0.0
H46 H 0.95975 0.31867 0.50327 0.0
H47 H 0.04808 0.276 0.22285 0.0
C48 C 0.95957 0.22851 0.33788 0.0
C49 C 0.99547 0.23402 0.26073 0.0
C50 C 0.9466 0.25932 0.42295 0.0
C51 C 0.97019 0.29522 0.43665 0.0
C52 C 1.0077 0.30085 0.37068 0.0
C53 C 1.01995 0.27088 0.27857 0.0
H54 H 0.33244 0.94583 0.37517 0.0
H55 H 0.20966 0.96742 0.51955 0.0
H56 H 0.25262 0.03674 0.18971 0.0
C57 C 0.30324 0.96284 0.36755 0.0
C58 C 0.29753 0.99202 0.26806 0.0
C59 C 0.2708 0.95283 0.45205 0.0
C60 C 0.2338 0.97503 0.45006 0.0
C61 C 0.22707 1.00633 0.35965 0.0
C62 C 0.25841 1.01397 0.26424 0.0
H63 H 0.58823 0.32559 0.29309 0.0
H64 H 0.49702 0.23067 0.20576 0.0
H65 H 0.58951 0.21089 0.50079 0.0
C66 C 0.57408 0.29539 0.31236 0.0
C67 C 0.59294 0.26896 0.40124 0.0
C68 C 0.53969 0.28236 0.23997 0.0
C69 C 0.52254 0.24195 0.26386 0.0
C70 C 0.53937 0.21615 0.36276 0.0
C71 C 0.5748 0.23051 0.42918 0.0
Gd72 Gd 0.05524 1.00389 0.83841 0.0
Gd73 Gd 0.98823 0.02838 0.69249 0.0
C74 C 1.02363 0.94096 0.61479 0.0
C75 C 0.11413 0.96808 0.969 0.0
C76 C 0.14421 0.93488 0.94054 0.0
C77 C 0.18351 0.93328 0.9994 0.0
C78 C 0.13306 0.90355 0.85624 0.0
C79 C 0.19475 0.86353 0.91531 0.0
C80 C 0.15903 0.86964 0.83777 0.0
C81 C 0.20796 0.89726 0.99074 0.0
C82 C 0.08154 0.04603 0.62199 0.0
C83 C 1.01928 0.09078 0.91886 0.0
C84 C 0.93189 0.06427 0.55319 0.0
C85 C 0.90027 0.09632 0.57083 0.0
C86 C 0.89054 0.11014 0.69291 0.0
C87 C 0.88228 0.11562 0.46481 0.0
C88 C 0.85335 0.16938 0.60183 0.0
C89 C 0.85841 0.15146 0.47999 0.0
C90 C 0.86758 0.14648 0.70864 0.0
C91 C 0.96071 0.98327 0.90003 0.0
O92 O 0.04095 0.94352 0.72918 0.0
O93 O 1.00507 0.97416 0.56768 0.0
O94 O 0.11949 1.00283 0.90626 0.0
O95 O 0.07474 0.9568 0.9746 0.0
O96 O 0.09334 0.05382 0.73708 0.0
O97 O 0.05361 1.01821 0.62961 0.0
O98 O 1.00071 0.08823 0.80625 0.0
O99 O 0.03912 0.05801 0.9637 0.0
O100 O 0.92559 0.02961 0.61596 0.0
O101 O 0.97082 0.07691 0.55793 0.0
O102 O 0.94941 0.97803 0.78327 0.0
O103 O 0.98867 1.01156 0.90055 0.0
H104 H 0.1943 0.95883 0.057 0.0
H105 H 0.10306 0.90405 0.8096 0.0
H106 H 0.14793 0.84627 0.77249 0.0
H107 H 0.23562 0.89487 0.04948 0.0
H108 H 0.90266 0.09398 0.77544 0.0
H109 H 0.88867 0.10442 0.36975 0.0
H110 H 0.84745 0.16678 0.39423 0.0
H111 H 0.86307 0.15785 0.80425 0.0
Gd112 Gd 0.53906 0.0327 0.86171 0.0
Gd113 Gd 0.5117 0.96917 0.71984 0.0
C114 C 0.60281 0.99592 0.64395 0.0
C115 C 0.57907 0.089 0.9875 0.0
C116 C 0.61412 0.11624 0.95088 0.0
C117 C 0.62003 0.15496 1.00778 0.0
C118 C 0.64308 0.10282 0.86091 0.0
C119 C 0.69084 0.15846 0.91991 0.0
C120 C 0.6803 0.12414 0.84262 0.0
C121 C 0.65837 0.17586 0.99382 0.0
C122 C 0.50362 0.06461 0.64536 0.0
C123 C 0.44769 1.00369 0.93604 0.0
C124 C 0.47354 0.91413 0.5852 0.0
C125 C 0.43867 0.88552 0.6043 0.0
C126 C 0.42658 0.87311 0.72712 0.0
C127 C 0.41425 0.87466 0.49997 0.0
C128 C 0.35936 0.85054 0.64445 0.0
C129 C 0.37498 0.857 0.51947 0.0
C130 C 0.38733 0.85517 0.74692 0.0
C131 C 0.55257 0.93925 0.93128 0.0
O132 O 0.60004 1.01331 0.7577 0.0
O133 O 0.56864 0.97928 0.59713 0.0
O134 O 0.54397 0.09622 0.92888 0.0
O135 O 0.5877 0.04927 0.99543 0.0
O136 O 0.49329 0.07454 0.75982 0.0
O137 O 0.5276 0.0333 0.65154 0.0
O138 O 0.45057 0.98499 0.82474 0.0
O139 O 0.48142 1.02143 0.98304 0.0
O140 O 0.50694 0.90632 0.65218 0.0
O141 O 0.46395 0.95368 0.58153 0.0
O142 O 0.55905 0.92818 0.81527 0.0
O143 O 0.52573 0.96827 0.92928 0.0
H144 H 0.59586 0.16795 0.06714 0.0
H145 H 0.63858 0.07428 0.81012 0.0
H146 H 0.70209 0.10997 0.7777 0.0
H147 H 0.66328 0.20375 0.04831 0.0
H148 H 0.44609 0.88004 0.80849 0.0
H149 H 0.4239 0.88314 0.40411 0.0
H150 H 0.35549 0.85315 0.43621 0.0
H151 H 0.37781 0.84855 0.84364 0.0
Gd152 Gd 0.48725 0.52141 0.90446 0.0
Gd153 Gd 0.54786 0.50253 0.72688 0.0
C154 C 0.51521 0.59413 0.70345 0.0
C155 C 0.43867 0.55581 0.06947 0.0
C156 C 0.41643 0.59596 0.06222 0.0
C157 C 0.37248 0.59787 0.06809 0.0
C158 C 0.43913 0.63261 0.03975 0.0
C159 C 0.37466 0.67307 0.03368 0.0
C160 C 0.41873 0.6703 0.02491 0.0
C161 C 0.35172 0.63621 0.05478 0.0
C162 C 0.45088 0.49203 0.68716 0.0
C163 C 0.51756 0.42794 0.91782 0.0
C164 C 0.59775 0.4776 0.54846 0.0
C165 C 0.63382 0.45025 0.53287 0.0
C166 C 0.65964 0.43985 0.63594 0.0
C167 C 0.63904 0.43009 0.41704 0.0
C168 C 0.68624 0.38051 0.51924 0.0
C169 C 0.66532 0.39576 0.40953 0.0
C170 C 0.68605 0.40538 0.62891 0.0
C171 C 0.5832 0.52779 0.95387 0.0
O172 O 0.50366 0.58653 0.82257 0.0
O173 O 0.5279 0.56272 0.635 0.0
O174 O 0.42576 0.52728 0.99162 0.0
O175 O 0.4795 0.55767 0.07536 0.0
O176 O 0.44239 0.47937 0.80168 0.0
O177 O 0.48074 0.51814 0.69192 0.0
O178 O 0.53116 0.43683 0.80118 0.0
O179 O 0.5032 0.45851 0.98836 0.0
O180 O 0.60385 0.51142 0.61337 0.0
O181 O 0.5625 0.45897 0.57744 0.0
O182 O 0.59514 0.53954 0.84173 0.0
O183 O 0.55281 0.50316 0.94059 0.0
H184 H 0.35438 0.56969 0.0825 0.0
H185 H 0.47297 0.63242 0.03236 0.0
H186 H 0.4384 0.69721 1.00915 0.0
H187 H 0.31794 0.63713 0.0616 0.0
H188 H 0.65726 0.45651 0.72437 0.0
H189 H 0.62013 0.43863 0.33526 0.0
H190 H 0.66504 0.37875 0.32114 0.0
H191 H 0.70322 0.39634 0.71318 0.0
Gd192 Gd 1.00938 0.48148 0.88437 0.0
Gd193 Gd 0.03785 0.53564 0.69899 0.0
C194 C 0.94293 0.51751 0.67982 0.0
C195 C 0.96429 0.45611 0.07119 0.0
C196 C 0.94167 0.48682 0.1482 0.0
C197 C 0.89842 0.48297 0.16662 0.0
C198 C 0.96069 0.52581 0.16613 0.0
C199 C 0.89287 0.55855 0.18135 0.0
C200 C 0.93648 0.56139 0.1792 0.0
C201 C 0.87424 0.51863 0.18585 0.0
C202 C 0.03867 0.43768 0.68016 0.0
C203 C 0.10651 0.49739 0.89607 0.0
C204 C 0.08081 0.58088 0.54382 0.0
C205 C 0.11774 0.60791 0.56518 0.0
C206 C 0.11354 0.6514 0.57374 0.0
C207 C 0.15801 0.59068 0.56938 0.0
C208 C 0.1887 0.65957 0.54723 0.0
C209 C 0.19316 0.61636 0.56717 0.0
C210 C 0.14888 0.67718 0.56398 0.0
C211 C 1.01243 0.57807 0.91265 0.0
O212 O 0.9497 0.51144 0.80274 0.0
O213 O 0.97566 0.52233 0.60496 0.0
O214 O 0.95123 0.45406 0.95394 0.0
O215 O 1.00509 0.45746 0.07801 0.0
O216 O 0.04187 0.42613 0.79834 0.0
O217 O 1.01663 0.47035 0.67551 0.0
O218 O 0.09962 0.51104 0.77907 0.0
O219 O 0.07413 0.48736 0.96768 0.0
O220 O 0.04536 0.59328 0.59192 0.0
O221 O 0.08644 0.54075 0.55609 0.0
O222 O 1.00242 0.58738 0.7969 0.0
O223 O 0.03417 0.54539 0.90889 0.0
H224 H 0.88292 0.45329 0.15332 0.0
H225 H 0.99406 0.52961 0.15493 0.0
H226 H 0.95185 0.59121 0.17755 0.0
H227 H 0.84048 0.51542 0.19015 0.0
H228 H 0.08283 0.66561 0.57534 0.0
H229 H 0.16262 0.5573 0.56745 0.0
H230 H 0.22347 0.60161 0.55852 0.0
H231 H 0.14446 0.7104 0.55204 0.0
C232 C 0.14793 1.00615 0.35544 0.0
C233 C 0.18594 0.02871 0.37391 0.0
C234 C 0.14815 0.07558 0.51941 0.0
C235 C 0.11227 0.04933 0.51205 0.0
N236 N 0.07221 1.0072 0.36854 0.0
N237 N 0.21955 0.09089 0.44787 0.0
C238 C 0.11017 1.02049 0.41145 0.0
C239 C 0.18485 0.06597 0.44597 0.0
N240 N 0.14849 0.96881 0.29482 0.0
N241 N 0.14684 0.10936 0.59713 0.0
H242 H 0.24622 0.08425 0.39454 0.0
H243 H 0.22147 0.11905 0.49531 0.0
H244 H 0.11901 0.11904 0.63968 0.0
H245 H 0.17238 0.12827 0.61747 0.0
H246 H 0.12261 0.949 0.29111 0.0
H247 H 0.17593 0.95604 0.25894 0.0
H248 H 0.06883 0.98782 0.29019 0.0
H249 H 0.0444 1.0206 0.40012 0.0
C250 C 0.55501 0.14101 0.4084 0.0
C251 C 0.52425 0.17265 0.39703 0.0
C252 C 0.47566 0.1256 0.5135 0.0
C253 C 0.50965 0.09935 0.54891 0.0
N254 N 0.58522 0.09514 0.56292 0.0
N255 N 0.45435 0.19538 0.45053 0.0
C256 C 0.5503 0.10982 0.50323 0.0
C257 C 0.48389 0.16479 0.45079 0.0
N258 N 0.59088 0.14311 0.33805 0.0
N259 N 0.43566 0.11352 0.54154 0.0
H260 H 0.45901 0.22433 0.40741 0.0
H261 H 0.42631 0.19296 0.50094 0.0
H262 H 0.42888 0.08539 0.58784 0.0
H263 H 0.40941 0.1295 0.50856 0.0
H264 H 0.61272 0.11901 0.33695 0.0
H265 H 0.59693 0.1676 0.27501 0.0
H266 H 0.61549 0.1042 0.53719 0.0
H267 H 0.58378 0.08024 0.65081 0.0
C268 C 0.342 0.49933 0.53891 0.0
C269 C 0.34996 0.49592 0.40715 0.0
C270 C 0.42392 0.48048 0.46006 0.0
C271 C 0.41687 0.49342 0.58758 0.0
N272 N 0.36958 0.52783 0.73162 0.0
N273 N 0.39928 0.48085 0.24041 0.0
C274 C 0.37586 0.50569 0.62332 0.0
C275 C 0.39116 0.48524 0.36699 0.0
N276 N 0.30173 0.49905 0.5823 0.0
N277 N 0.4616 0.46353 0.42837 0.0
H278 H 0.37596 0.48301 0.17141 0.0
H279 H 0.42917 0.47639 0.20355 0.0
H280 H 0.48583 0.46035 0.49406 0.0
H281 H 0.46773 0.44988 0.34088 0.0
H282 H 0.29452 0.49845 0.67911 0.0
H283 H 0.27631 0.49482 0.52123 0.0
H284 H 0.34067 0.54065 0.75491 0.0
H285 H 0.39434 0.53928 0.78514 0.0
C286 C 0.06133 0.33578 0.50853 0.0
C287 C 0.03193 0.33902 0.40741 0.0
C288 C 1.02383 0.41362 0.45404 0.0
C289 C 0.04489 0.40777 0.57127 0.0
N290 N 0.09999 0.37037 0.67751 0.0
N291 N 0.98505 0.38137 0.28359 0.0
C292 C 0.06884 0.3709 0.58853 0.0
C293 C 1.01423 0.37845 0.37779 0.0
N294 N 0.07937 0.29811 0.53385 0.0
N295 N 1.015 0.45287 0.41192 0.0
H296 H 0.97939 0.3572 0.22011 0.0
H297 H 0.96442 0.40631 0.27683 0.0
H298 H 0.02712 0.47924 0.45569 0.0
H299 H 1.00122 0.45904 0.32436 0.0
H300 H 0.09679 0.29154 0.61518 0.0
H301 H 0.07567 0.27272 0.47377 0.0
H302 H 0.12065 0.34574 0.69063 0.0
H303 H 0.10817 0.39681 0.72884 0.0
C304 C 0.90117 0.99301 0.2182 0.0
C305 C 0.85998 0.98621 0.1732 0.0
C306 C 0.89055 0.95572 0.98053 0.0
C307 C 0.92984 0.97478 1.00783 0.0
N308 N 0.97518 1.00211 0.1703 0.0
N309 N 0.8153 0.95811 1.0106 0.0
C310 C 0.93613 0.99009 0.13294 0.0
C311 C 0.85467 0.9659 0.05501 0.0
N312 N 0.90671 1.00098 0.34386 0.0
N313 N 0.88781 0.92675 0.8868 0.0
H314 H 0.78849 0.96361 0.06464 0.0
H315 H 0.80942 0.94832 0.91802 0.0
H316 H 0.91429 0.91535 0.84062 0.0
H317 H 0.86053 0.90999 0.86825 0.0
H318 H 0.93604 1.00014 0.3868 0.0
H319 H 0.88131 1.00305 0.40628 0.0
H320 H 0.9808 1.01916 0.25238 0.0
H321 H 1.00199 0.99468 0.11867 0.0
C322 C 0.55606 0.834 0.09415 0.0
C323 C 0.53832 0.84314 0.21439 0.0
C324 C 0.54501 0.91799 0.16643 0.0
C325 C 0.55793 0.90859 0.04043 0.0
N326 N 0.59883 0.85958 0.91964 0.0
N327 N 0.53521 0.89207 0.38267 0.0
C328 C 0.57096 0.86715 1.01512 0.0
C329 C 0.53877 0.88476 0.25617 0.0
N330 N 0.5572 0.79386 0.053 0.0
N331 N 0.53859 0.95831 0.20054 0.0
H332 H 0.53214 0.86751 0.44796 0.0
H333 H 0.54077 0.92122 0.42179 0.0
H334 H 0.54793 0.98335 0.14319 0.0
H335 H 0.52402 0.96666 0.28533 0.0
H336 H 0.56503 0.78603 0.95992 0.0
H337 H 0.54824 0.7687 0.11058 0.0
H338 H 0.61107 0.83013 0.90235 0.0
H339 H 0.61433 0.88358 0.87112 0.0
C340 C 0.64071 0.55278 0.26613 0.0
C341 C 0.67875 0.53085 0.24878 0.0
C342 C 0.64716 0.49673 0.06266 0.0
C343 C 0.61337 0.52551 0.06413 0.0
N344 N 0.5783 0.58197 0.16829 0.0
N345 N 0.7184 0.48127 0.12821 0.0
C346 C 0.60983 0.55336 0.16757 0.0
C347 C 0.68169 0.50192 0.14783 0.0
N348 N 0.63463 0.57369 0.37681 0.0
N349 N 0.64608 0.46423 0.98031 0.0
H350 H 0.74367 0.48325 0.19055 0.0
H351 H 0.72451 0.46392 0.04708 0.0
H352 H 0.62126 0.4598 0.91772 0.0
H353 H 0.6675 0.43984 0.98243 0.0
H354 H 0.60599 0.58671 0.40139 0.0
H355 H 0.65698 0.57372 0.44932 0.0
H356 H 0.57638 0.60599 0.23384 0.0
H357 H 0.55564 0.58353 0.09709 0.0
C358 C 0.05069 0.64951 0.18485 0.0
C359 C 0.02807 0.68614 0.15323 0.0
C360 C 0.98502 0.64486 1.00735 0.0
C361 C 1.01383 0.61117 1.01537 0.0
N362 N 0.06955 0.57833 0.13609 0.0
N363 N 0.97305 0.71878 0.03224 0.0
C364 C 0.0451 0.61231 0.11251 0.0
C365 C 0.99455 0.68368 0.06544 0.0
N366 N 0.07808 0.65102 0.28422 0.0
N367 N 0.94704 0.63864 0.95142 0.0
H368 H 0.9782 0.7474 0.07549 0.0
H369 H 0.9518 0.71985 0.95706 0.0
H370 H 0.93744 0.609 0.92437 0.0
H371 H 0.92319 0.66069 0.95082 0.0
H372 H 0.09566 0.62598 0.31641 0.0
H373 H 0.08141 0.6776 0.33958 0.0
H374 H 0.09698 0.57876 0.18909 0.0
H375 H 0.06172 0.54862 0.10718 0.0
C376 C 0.90834 0.24954 0.63246 0.0
C377 C 0.90751 0.25438 0.49715 0.0
C378 C 0.83345 0.23596 0.50206 0.0
C379 C 0.84227 0.21459 0.61597 0.0
N380 N 0.86362 0.24022 0.81872 0.0
N381 N 0.86452 0.26555 0.30978 0.0
C382 C 0.87105 0.23581 0.69235 0.0
C383 C 0.8681 0.25288 0.43349 0.0
N384 N 0.94418 0.25433 0.70123 0.0
N385 N 0.79347 0.23701 0.45869 0.0
H386 H 0.88934 0.2796 0.26073 0.0
H387 H 0.83728 0.26158 0.25673 0.0
H388 H 0.76935 0.2229 0.51103 0.0
H389 H 0.7846 0.25383 0.37808 0.0
H390 H 0.94546 0.24765 0.79852 0.0
H391 H 0.97288 0.26222 0.6603 0.0
H392 H 0.88292 0.25816 0.87666 0.0
H393 H 0.83621 0.22835 0.85998 0.0
C394 C 0.27014 0.87585 0.49203 0.0
C395 C 0.27479 0.91698 0.53893 0.0
C396 C 0.30102 0.88777 0.73585 0.0
C397 C 0.31315 0.85245 0.66712 0.0
N398 N 0.28686 0.80285 0.51999 0.0
N399 N 0.28719 0.96162 0.71922 0.0
C400 C 0.28784 0.84261 0.56245 0.0
C401 C 0.28687 0.92292 0.66688 0.0
N402 N 0.25158 0.86804 0.37853 0.0
N403 N 0.30444 0.88775 0.86414 0.0
H404 H 0.27638 0.98793 0.6706 0.0
H405 H 0.29998 0.96761 0.80846 0.0
H406 H 0.31418 0.86112 0.91286 0.0
H407 H 0.29357 0.91224 0.91884 0.0
H408 H 0.23788 0.89101 0.32134 0.0
H409 H 0.23788 0.89101 0.32134 0.0
H410 H 0.27048 0.79427 0.43855 0.0
H411 H 0.30199 0.77913 0.57068 0.0
C412 C 0.6686 0.28807 0.37135 0.0
C413 C 0.63413 0.28086 0.45524 0.0
C414 C 0.67406 0.31346 0.62331 0.0
C415 C 0.69673 0.33515 0.52874 0.0
N416 N 0.73527 0.32446 0.3381 0.0
N417 N 0.60643 0.28347 0.66971 0.0
C418 C 0.70175 0.31443 0.41256 0.0
C419 C 0.63801 0.29123 0.58545 0.0
N420 N 0.6675 0.2728 0.25092 0.0
N421 N 0.68667 0.31482 0.74669 0.0
H422 H 0.57887 0.26801 0.64587 0.0
H423 H 0.6067 0.29551 0.76101 0.0
H424 H 0.71438 0.32994 0.77199 0.0
H425 H 0.67236 0.29706 0.81814 0.0
H426 H 0.6878 0.28252 0.17911 0.0
H427 H 0.64507 0.25102 0.22323 0.0
H428 H 0.74178 0.31048 0.25138 0.0
H429 H 0.75767 0.34577 0.3697 0.0
C430 C 0.22146 0.63365 0.27773 0.0
C431 C 0.2637 0.62227 0.30942 0.0
C432 C 0.26129 0.67395 0.47934 0.0
C433 C 0.21826 0.67888 0.45434 0.0
N434 N 0.17142 0.68941 0.27873 0.0
N435 N 0.32778 0.64999 0.40516 0.0
C436 C 0.20562 0.67055 0.32931 0.0
C437 C 0.28533 0.64845 0.39763 0.0
N438 N 0.19333 0.60645 0.22654 0.0
N439 N 0.27834 0.69148 0.58437 0.0
H440 H 0.34744 0.63474 0.34143 0.0
H441 H 0.34744 0.63474 0.34143 0.0
H442 H 0.26021 0.7097 0.64504 0.0
H443 H 0.30982 0.68748 0.60823 0.0
H444 H 0.1627 0.61506 0.20495 0.0
H445 H 0.19723 0.57431 0.22924 0.0
H446 H 0.16146 0.68331 0.18615 0.0
H447 H 0.15529 0.71226 0.32799 0.0
C448 C 0.18284 0.79431 0.13683 0.0
C449 C 0.14701 0.78088 0.06656 0.0
C450 C 0.18959 0.78876 0.87463 0.0
C451 C 0.21139 0.82018 0.93873 0.0
N452 N 0.25598 0.81588 0.12057 0.0
N453 N 0.11934 0.76164 0.85765 0.0
C454 C 0.21759 0.81041 0.06774 0.0
C455 C 0.15167 0.77484 0.93205 0.0
N456 N 0.18332 0.79264 0.26631 0.0
N457 N 0.20087 0.77893 0.75397 0.0
H458 H 0.08918 0.75639 0.89188 0.0
H459 H 0.12163 0.76009 0.75881 0.0
H460 H 0.22707 0.79287 0.71176 0.0
H461 H 0.18619 0.75543 0.7027 0.0
H462 H 0.20765 0.80439 0.32072 0.0
H463 H 0.15887 0.78005 0.31925 0.0
H464 H 0.26362 0.8053 0.21153 0.0
H465 H 0.28078 0.82777 0.06694 0.0
C466 C 0.78059 0.10809 0.96336 0.0
C467 C 0.77691 0.11088 0.09952 0.0
C468 C 0.7461 0.17978 0.07053 0.0
C469 C 0.73628 0.16838 0.94566 0.0
N470 N 0.77043 0.1447 0.75972 0.0
N471 N 0.76436 0.15499 0.28134 0.0
C472 C 0.76528 0.14186 0.88817 0.0
C473 C 0.7631 0.14903 0.15316 0.0
N474 N 0.79376 0.07245 0.90611 0.0
N475 N 0.74001 0.21977 0.10642 0.0
H476 H 0.77887 0.13405 0.34356 0.0
H477 H 0.74929 0.17976 0.32491 0.0
H478 H 0.72884 0.24178 0.04093 0.0
H479 H 0.74913 0.23108 0.19465 0.0
H480 H 0.79572 0.06904 0.808 0.0
H481 H 0.79946 0.04475 0.9547 0.0
H482 H 0.78753 0.12374 0.70604 0.0
H483 H 0.75655 0.169 0.70815 0.0
C484 C 0.40539 0.76989 1.02444 0.0
C485 C 0.40529 0.7693 0.16139 0.0
C486 C 0.3412 0.72786 0.15471 0.0
C487 C 0.354 0.71485 0.0343 0.0
N488 N 0.36773 0.74719 0.83447 0.0
N489 N 0.36374 0.75891 0.35202 0.0
C490 C 0.37436 0.74565 0.96202 0.0
C491 C 0.36922 0.75303 0.22496 0.0
N492 N 0.4374 0.78699 0.95513 0.0
N493 N 0.30237 0.71749 0.19726 0.0
H494 H 0.38337 0.77846 0.40371 0.0
H495 H 0.34086 0.74322 0.4047 0.0
H496 H 0.28237 0.69934 0.14184 0.0
H497 H 0.28947 0.73 0.27956 0.0
H498 H 0.44015 0.78311 0.85713 0.0
H499 H 0.46263 0.80274 0.99391 0.0
H500 H 0.38074 0.76996 0.7753 0.0
H501 H 0.34646 0.72683 0.79195 0.0
C502 C 0.79758 0.61658 0.07594 0.0
C503 C 0.79131 0.63496 0.19469 0.0
C504 C 0.86523 0.63097 0.23966 0.0
C505 C 0.86608 0.59578 0.15704 0.0
N506 N 0.83918 0.56571 0.96307 0.0
N507 N 0.8234 0.69046 0.30826 0.0
C508 C 0.83467 0.59289 0.06075 0.0
C509 C 0.82741 0.65447 0.24275 0.0
N510 N 0.7668 0.61881 0.98691 0.0
N511 N 0.89568 0.63769 0.3281 0.0
H512 H 0.79414 0.70462 0.31726 0.0
H513 H 0.84897 0.70692 0.34364 0.0
H514 H 0.92144 0.61845 0.3406 0.0
H515 H 0.89346 0.66078 0.39666 0.0
H516 H 0.76843 0.60452 0.8988 0.0
H517 H 0.74022 0.63697 1.00238 0.0
H518 H 0.81459 0.55732 0.9037 0.0
H519 H 0.86751 0.55061 0.94581 0.0
C520 C 0.97186 0.18677 0.08116 0.0
C521 C 1.00486 0.20086 0.16147 0.0
C522 C 0.04994 0.14696 0.06472 0.0
C523 C 1.01489 0.12927 1.00056 0.0
N524 N 0.93962 0.12617 0.9881 0.0
N525 N 0.07378 0.18676 0.2462 0.0
C526 C 0.97503 0.1476 1.01938 0.0
C527 C 0.04367 0.17901 0.15738 0.0
N528 N 0.93726 0.21088 0.0628 0.0
N529 N 0.08944 0.13392 0.0358 0.0
H530 H 0.06998 0.20829 0.31869 0.0
H531 H 0.10071 0.16874 0.25558 0.0
H532 H 0.09545 0.11167 0.96661 0.0
H533 H 0.11627 0.14831 0.07101 0.0
H534 H 0.9134 0.20266 1.0003 0.0
H535 H 0.93482 0.24093 0.09879 0.0
H536 H 0.90962 0.13663 1.01018 0.0
H537 H 0.94053 0.09547 0.95707 0.0
C538 C 0.3523 0.03569 0.14176 0.0
C539 C 0.33291 0.99654 0.16964 0.0
C540 C 0.39123 0.96213 0.05379 0.0
C541 C 0.40761 1.00135 1.014 0.0
N542 N 0.39903 0.07574 1.00392 0.0
N543 N 0.33127 0.92254 0.13032 0.0
C544 C 0.38663 0.03816 0.05307 0.0
C545 C 0.35163 0.95986 0.11821 0.0
N546 N 0.34023 0.0703 0.20649 0.0
N547 N 0.41443 0.92698 0.03521 0.0
H548 H 0.30052 0.92009 0.16306 0.0
H549 H 0.34278 0.89457 0.09598 0.0
H550 H 0.44386 0.92748 0.99212 0.0
H551 H 0.40681 0.89798 0.07389 0.0
H552 H 0.35622 0.09857 0.20065 0.0
H553 H 0.31703 0.06983 0.27622 0.0
H554 H 0.38235 0.10315 1.01772 0.0
H555 H 0.42382 0.07884 0.93971 0.0
C556 C 0.55857 0.32102 0.03923 0.0
C557 C 0.52729 0.31089 0.13096 0.0
C558 C 0.48505 0.36951 0.04974 0.0
C559 C 0.5195 0.38432 0.97501 0.0
N560 N 0.59055 0.37322 0.90109 0.0
N561 N 0.46159 0.32744 0.22993 0.0
C562 C 0.55657 0.3595 0.96896 0.0
C563 C 0.49046 0.33531 0.13667 0.0
N564 N 0.59103 0.29386 1.0238 0.0
N565 N 0.44663 0.38753 0.03521 0.0
H566 H 0.46395 0.30219 0.29261 0.0
H567 H 0.43685 0.34739 0.2501 0.0
H568 H 0.44097 0.41114 0.9686 0.0
H569 H 0.41953 0.37606 0.07847 0.0
H570 H 0.61723 0.29927 0.96776 0.0
H571 H 0.59082 0.26417 0.06517 0.0
H572 H 0.61999 0.35959 0.90539 0.0
H573 H 0.5906 0.39972 0.84395 0.0
C574 C 0.20074 0.47456 0.11601 0.0
C575 C 0.2325 0.50126 0.06352 0.0
C576 C 0.18104 0.52618 0.90801 0.0
C577 C 0.15066 0.49656 0.94936 0.0
N578 N 0.13912 0.43297 0.0699 0.0
N579 N 0.25476 0.53964 0.87709 0.0
C580 C 0.1629 0.46751 0.04571 0.0
C581 C 0.22337 0.52152 0.9462 0.0
N582 N 0.20449 0.45818 0.23577 0.0
N583 N 0.16937 0.56187 0.84663 0.0
H584 H 0.28604 0.53703 0.90467 0.0
H585 H 0.2495 0.55375 0.78858 0.0
H586 H 0.1382 0.57035 0.83351 0.0
H587 H 0.19065 0.58584 0.82746 0.0
H588 H 0.17995 0.44249 0.28124 0.0
H589 H 0.23016 0.46312 0.2943 0.0
H590 H 0.1485 0.4096 0.13322 0.0
H591 H 0.113 0.42524 1.01549 0.0
C592 C 0.07132 0.84258 0.47091 0.0
C593 C 0.04038 0.82873 0.38352 0.0
C594 C 0.99481 0.88528 0.46268 0.0
C595 C 0.02875 0.90238 0.53402 0.0
N596 N 0.10372 0.90189 0.56623 0.0
N597 N 0.97392 0.84273 0.28298 0.0
C598 C 0.06818 0.88235 0.52664 0.0
C599 C 1.00226 0.8516 0.37602 0.0
N600 N 0.10459 0.81837 0.50309 0.0
N601 N 0.95523 0.9002 0.47969 0.0
H602 H 0.97823 0.81879 0.21811 0.0
H603 H 0.94794 0.86131 0.26392 0.0
H604 H 0.9482 0.92351 0.54453 0.0
H605 H 0.92889 0.88657 0.4389 0.0
H606 H 0.10751 0.78742 0.47522 0.0
H607 H 0.10751 0.78742 0.47522 0.0
H608 H 0.13318 0.88808 0.55836 0.0
H609 H 0.10408 0.93289 0.59497 0.0
C610 C 0.67753 1.00333 0.35234 0.0
C611 C 0.71773 1.00622 0.40941 0.0
C612 C 0.68338 0.99417 0.61903 0.0
C613 C 0.64277 0.99861 0.56343 0.0
N614 N 0.60386 1.01796 0.37328 0.0
N615 N 0.75798 1.00931 0.60297 0.0
C616 C 0.64054 1.00571 0.42885 0.0
C617 C 0.72041 1.00282 0.54454 0.0
N618 N 0.67451 0.9982 0.22373 0.0
N619 N 0.68697 0.98004 0.74159 0.0
H620 H 0.78552 1.01551 0.55274 0.0
H621 H 0.76115 1.01151 0.70131 0.0
H622 H 0.66125 0.9712 0.79679 0.0
H623 H 0.71557 0.97262 0.78349 0.0
H624 H 0.64624 0.99198 0.17804 0.0
H625 H 0.70081 0.99554 0.16525 0.0
H626 H 0.60204 0.0278 0.27859 0.0
H627 H 0.57646 0.02368 0.42359 0.0
C628 C 0.54184 0.68608 0.48035 0.0
C629 C 0.50503 0.71095 0.48523 0.0
C630 C 0.47516 0.66079 0.64211 0.0
C631 C 0.51262 0.63689 0.64134 0.0
N632 N 0.58618 0.63617 0.59046 0.0
N633 N 0.43995 0.72517 0.59416 0.0
C634 C 0.54734 0.65251 0.56988 0.0
C635 C 0.47325 0.69948 0.57482 0.0
N636 N 0.5704 0.69219 0.38511 0.0
N637 N 0.43988 0.64731 0.70291 0.0
H638 H 0.4387 0.75545 0.5575 0.0
H639 H 0.41491 0.71671 0.65272 0.0
H640 H 0.43702 0.6187 0.74998 0.0
H641 H 0.43702 0.6187 0.74998 0.0
H642 H 0.59553 0.6722 0.36998 0.0
H643 H 0.56681 0.71456 0.31359 0.0
H644 H 0.61332 0.64915 0.55139 0.0
H645 H 0.59166 0.61248 0.65703 0.0
C646 C 0.83135 0.55859 0.62176 0.0
C647 C 0.8151 0.53068 0.52931 0.0
C648 C 0.88052 0.48984 0.55132 0.0
C649 C 0.89877 0.52136 0.62847 0.0
N650 N 0.89377 0.59099 0.70744 0.0
N651 N 0.82493 0.46682 0.41314 0.0
C652 C 0.87453 0.55697 0.65698 0.0
C653 C 0.83969 0.49531 0.49744 0.0
N654 N 0.80571 0.58876 0.66842 0.0
N655 N 0.90187 0.45445 0.5237 0.0
H656 H 0.7956 0.46901 0.3708 0.0
H657 H 0.84229 0.44088 0.38602 0.0
H658 H 0.93178 0.44769 0.55799 0.0
H659 H 0.93178 0.44769 0.55799 0.0
H660 H 0.81514 0.61068 0.73472 0.0
H661 H 0.7738 0.58967 0.64676 0.0
H662 H 0.87916 0.61955 0.72037 0.0
H663 H 0.92599 0.59214 0.7213 0.0
loop_
_geom_bond_atom_site_label_1
_geom_bond_atom_site_label_2
_geom_bond_distance
_geom_bond_site_symmetry_2
_ccdc_geom_bond_type
H0 C3 0.931 . S
H1 C6 0.928 . S
H2 C8 0.930 . S
C3 H0 0.931 . S
C3 C4 1.413 . S
C3 C5 1.360 . S
C4 C3 1.413 . S
C4 C8 1.429 . S
C5 C3 1.360 . S
C5 C6 1.372 . S
C6 H1 0.928 . S
C6 C5 1.372 . S
C6 C7 1.404 . S
C7 C6 1.404 . S
C7 C8 1.391 . S
C8 H2 0.930 . S
C8 C4 1.429 . S
C8 C7 1.391 . S
H9 C12 0.931 . S
H10 C15 0.928 . S
H11 C17 0.930 . S
C12 H9 0.931 . S
C12 C13 1.413 . S
C12 C14 1.360 . S
C13 C12 1.413 . S
C13 C17 1.429 1_655 S
C14 C12 1.360 . S
C14 C15 1.372 . S
C15 H10 0.928 . S
C15 C14 1.372 . S
C15 C16 1.404 . S
C16 C15 1.404 . S
C16 C17 1.390 1_655 S
C17 H11 0.930 . S
C17 C13 1.429 1_455 S
C17 C16 1.390 1_455 S
H18 C21 0.931 . S
H19 C24 0.928 . S
H20 C26 0.930 . S
C21 H18 0.931 . S
C21 C22 1.413 . S
C21 C23 1.360 . S
C22 C21 1.413 . S
C22 C26 1.429 1_565 S
C23 C21 1.360 . S
C23 C24 1.372 . S
C24 H19 0.928 . S
C24 C23 1.372 . S
C24 C25 1.404 . S
C25 C24 1.404 . S
C25 C26 1.390 1_565 S
C26 H20 0.930 . S
C26 C22 1.429 1_545 S
C26 C25 1.390 1_545 S
H27 C30 0.931 . S
H28 C33 0.928 . S
H29 C35 0.930 . S
C30 H27 0.931 . S
C30 C31 1.413 . S
C30 C32 1.360 . S
C31 C30 1.413 . S
C31 C35 1.429 . S
C32 C30 1.360 . S
C32 C33 1.372 . S
C33 H28 0.928 . S
C33 C32 1.372 . S
C33 C34 1.404 . S
C34 C33 1.404 . S
C34 C35 1.391 . S
C35 H29 0.930 . S
C35 C31 1.429 . S
C35 C34 1.391 . S
H36 C39 0.931 1_556 S
H37 C42 0.928 . S
H38 C44 0.930 . S
C39 H36 0.931 1_554 S
C39 C40 1.413 1_554 S
C39 C41 1.360 . S
C40 C39 1.413 1_556 S
C40 C44 1.429 . S
C41 C39 1.360 . S
C41 C42 1.372 . S
C42 H37 0.928 . S
C42 C41 1.372 . S
C42 C43 1.404 . S
C43 C42 1.404 . S
C43 C44 1.391 1_554 S
C44 H38 0.930 . S
C44 C40 1.429 . S
C44 C43 1.391 1_556 S
H45 C48 0.931 1_556 S
H46 C51 0.928 . S
H47 C53 0.930 . S
C48 H45 0.931 1_554 S
C48 C49 1.413 1_554 S
C48 C50 1.360 . S
C49 C48 1.413 1_556 S
C49 C53 1.429 1_655 S
C50 C48 1.360 . S
C50 C51 1.372 . S
C51 H46 0.928 . S
C51 C50 1.372 . S
C51 C52 1.404 . S
C52 C51 1.404 . S
C52 C53 1.391 1_654 S
C53 H47 0.930 . S
C53 C49 1.429 1_455 S
C53 C52 1.391 1_456 S
H54 C57 0.931 1_556 S
H55 C60 0.928 . S
H56 C62 0.930 . S
C57 H54 0.931 1_554 S
C57 C58 1.413 1_554 S
C57 C59 1.360 . S
C58 C57 1.413 1_556 S
C58 C62 1.429 1_565 S
C59 C57 1.360 . S
C59 C60 1.372 . S
C60 H55 0.928 . S
C60 C59 1.372 . S
C60 C61 1.404 . S
C61 C60 1.404 . S
C61 C62 1.391 1_564 S
C62 H56 0.930 . S
C62 C58 1.429 1_545 S
C62 C61 1.391 1_546 S
H63 C66 0.931 . S
H64 C69 0.928 . S
H65 C71 0.930 . S
C66 H63 0.931 . S
C66 C67 1.413 1_556 S
C66 C68 1.360 . S
C67 C66 1.413 1_554 S
C67 C71 1.429 . S
C68 C66 1.360 . S
C68 C69 1.372 . S
C69 H64 0.928 . S
C69 C68 1.372 . S
C69 C70 1.404 1_556 S
C70 C69 1.404 1_554 S
C70 C71 1.391 . S
C71 H65 0.930 . S
C71 C67 1.429 . S
C71 C70 1.391 . S
Gd72 C75 2.818 1_556 S
Gd72 O92 2.377 . S
Gd72 O94 2.448 . S
Gd72 O95 2.506 1_556 S
Gd72 O96 2.435 . S
Gd72 O97 2.717 1_565 S
Gd72 O99 2.395 1_565 S
Gd72 O103 2.327 1_455 S
Gd73 C84 2.818 . S
Gd73 O93 2.395 1_545 S
Gd73 O97 2.327 1_655 S
Gd73 O98 2.377 . S
Gd73 O100 2.448 . S
Gd73 O101 2.506 . S
Gd73 O102 2.435 . S
Gd73 O103 2.717 1_545 S
C74 O92 1.240 1_655 S
C74 O93 1.240 . S
C75 Gd72 2.818 1_554 S
C75 C76 1.510 . S
C75 O94 1.249 1_554 S
C75 O95 1.252 . S
C76 C75 1.510 . S
C76 C77 1.404 . S
C76 C78 1.352 . S
C77 C76 1.404 . S
C77 C81 1.389 . S
C77 H104 0.930 . S
C78 C76 1.352 . S
C78 C80 1.374 . S
C78 H105 0.931 . S
C79 C80 1.359 . S
C79 C81 1.364 . S
C80 C78 1.374 . S
C80 C79 1.359 . S
C80 H106 0.931 . S
C81 C77 1.389 . S
C81 C79 1.364 . S
C81 H107 0.931 . S
C82 O96 1.256 . S
C82 O97 1.257 1_565 S
C83 O98 1.240 1_455 S
C83 O99 1.240 . S
C84 Gd73 2.818 . S
C84 C85 1.510 . S
C84 O100 1.249 . S
C84 O101 1.252 . S
C85 C84 1.510 . S
C85 C86 1.404 . S
C85 C87 1.352 . S
C86 C85 1.404 . S
C86 C90 1.389 . S
C86 H108 0.930 . S
C87 C85 1.352 . S
C87 C89 1.374 . S
C87 H109 0.931 . S
C88 C89 1.359 . S
C88 C90 1.364 . S
C89 C87 1.374 . S
C89 C88 1.359 . S
C89 H110 0.931 . S
C90 C86 1.389 . S
C90 C88 1.364 . S
C90 H111 0.931 . S
C91 O102 1.256 . S
C91 O103 1.257 1_545 S
O92 Gd72 2.377 . S
O92 C74 1.240 1_455 S
O93 Gd73 2.395 1_565 S
O93 C74 1.240 . S
O94 Gd72 2.448 . S
O94 C75 1.249 1_556 S
O95 Gd72 2.506 1_554 S
O95 C75 1.252 . S
O96 Gd72 2.435 . S
O96 C82 1.256 . S
O97 Gd72 2.717 1_545 S
O97 Gd73 2.327 1_455 S
O97 C82 1.257 1_545 S
O98 Gd73 2.377 . S
O98 C83 1.240 1_655 S
O99 Gd72 2.395 1_545 S
O99 C83 1.240 . S
O100 Gd73 2.448 . S
O100 C84 1.249 . S
O101 Gd73 2.506 . S
O101 C84 1.252 . S
O102 Gd73 2.435 . S
O102 C91 1.256 . S
O103 Gd72 2.327 1_655 S
O103 Gd73 2.717 1_565 S
O103 C91 1.257 1_565 S
H104 C77 0.930 . S
H105 C78 0.931 . S
H106 C80 0.931 . S
H107 C81 0.931 . S
H108 C86 0.930 . S
H109 C87 0.931 . S
H110 C89 0.931 . S
H111 C90 0.931 . S
Gd112 C115 2.818 1_556 S
Gd112 O132 2.377 . S
Gd112 O134 2.448 . S
Gd112 O135 2.506 1_556 S
Gd112 O136 2.435 . S
Gd112 O137 2.717 . S
Gd112 O139 2.395 . S
Gd112 O143 2.327 1_545 S
Gd113 C124 2.818 . S
Gd113 O133 2.395 . S
Gd113 O137 2.327 1_565 S
Gd113 O138 2.377 . S
Gd113 O140 2.448 . S
Gd113 O141 2.506 . S
Gd113 O142 2.435 . S
Gd113 O143 2.717 . S
C114 O132 1.240 1_565 S
C114 O133 1.240 . S
C115 Gd112 2.818 1_554 S
C115 C116 1.510 . S
C115 O134 1.249 1_554 S
C115 O135 1.252 . S
C116 C115 1.510 . S
C116 C117 1.404 . S
C116 C118 1.352 . S
C117 C116 1.404 . S
C117 C121 1.389 . S
C117 H144 0.930 . S
C118 C116 1.352 . S
C118 C120 1.374 . S
C118 H145 0.927 1_545 S
C119 C120 1.359 . S
C119 C121 1.364 . S
C120 C118 1.374 . S
C120 C119 1.359 . S
C120 H146 0.931 . S
C121 C117 1.389 . S
C121 C119 1.364 . S
C121 H147 0.931 . S
C122 O136 1.256 . S
C122 O137 1.257 . S
C123 O138 1.240 1_545 S
C123 O139 1.240 . S
C124 Gd113 2.818 . S
C124 C125 1.510 . S
C124 O140 1.249 . S
C124 O141 1.252 . S
C125 C124 1.510 . S
C125 C126 1.404 . S
C125 C127 1.352 . S
C126 C125 1.404 . S
C126 C130 1.389 . S
C126 H148 0.930 . S
C127 C125 1.352 . S
C127 C129 1.374 . S
C127 H149 0.920 1_565 S
C128 C129 1.359 . S
C128 C130 1.364 . S
C129 C127 1.374 . S
C129 C128 1.359 . S
C129 H150 0.931 . S
C130 C126 1.389 . S
C130 C128 1.364 . S
C130 H151 0.931 . S
C131 O142 1.256 . S
C131 O143 1.257 . S
O132 Gd112 2.377 . S
O132 C114 1.240 1_545 S
O133 Gd113 2.395 . S
O133 C114 1.240 . S
O134 Gd112 2.448 . S
O134 C115 1.249 1_556 S
O135 Gd112 2.506 1_554 S
O135 C115 1.252 . S
O136 Gd112 2.435 . S
O136 C122 1.256 . S
O137 Gd112 2.717 . S
O137 Gd113 2.327 1_545 S
O137 C122 1.257 . S
O138 Gd113 2.377 . S
O138 C123 1.240 1_565 S
O139 Gd112 2.395 . S
O139 C123 1.240 . S
O140 Gd113 2.448 . S
O140 C124 1.249 . S
O141 Gd113 2.506 . S
O141 C124 1.252 . S
O142 Gd113 2.435 . S
O142 C131 1.256 . S
O143 Gd112 2.327 1_565 S
O143 Gd113 2.717 . S
O143 C131 1.257 . S
H144 C117 0.930 . S
H145 C118 0.927 1_565 S
H146 C120 0.931 . S
H147 C121 0.931 . S
H148 C126 0.930 . S
H149 C127 0.920 1_545 S
H150 C129 0.931 . S
H151 C130 0.931 . S
Gd152 C155 2.818 1_556 S
Gd152 O172 2.377 . S
Gd152 O174 2.448 . S
Gd152 O175 2.506 1_556 S
Gd152 O176 2.435 . S
Gd152 O177 2.717 . S
Gd152 O179 2.395 . S
Gd152 O183 2.327 . S
Gd153 C164 2.818 . S
Gd153 O173 2.395 . S
Gd153 O177 2.327 . S
Gd153 O178 2.377 . S
Gd153 O180 2.448 . S
Gd153 O181 2.506 . S
Gd153 O182 2.435 . S
Gd153 O183 2.717 . S
C154 O172 1.240 . S
C154 O173 1.240 . S
C155 Gd152 2.818 1_554 S
C155 C156 1.510 . S
C155 O174 1.249 1_554 S
C155 O175 1.252 . S
C156 C155 1.510 . S
C156 C157 1.404 . S
C156 C158 1.352 . S
C157 C156 1.404 . S
C157 C161 1.389 . S
C157 H184 0.930 . S
C158 C156 1.352 . S
C158 C160 1.374 . S
C158 H185 0.931 . S
C159 C160 1.359 . S
C159 C161 1.364 . S
C160 C158 1.374 . S
C160 C159 1.359 . S
C160 H186 0.931 . S
C161 C157 1.389 . S
C161 C159 1.364 . S
C161 H187 0.931 . S
C162 O176 1.256 . S
C162 O177 1.257 . S
C163 O178 1.240 . S
C163 O179 1.240 . S
C164 Gd153 2.818 . S
C164 C165 1.510 . S
C164 O180 1.249 . S
C164 O181 1.252 . S
C165 C164 1.510 . S
C165 C166 1.404 . S
C165 C167 1.352 . S
C166 C165 1.404 . S
C166 C170 1.389 . S
C166 H188 0.930 . S
C167 C165 1.352 . S
C167 C169 1.374 . S
C167 H189 0.931 . S
C168 C169 1.359 . S
C168 C170 1.364 . S
C169 C167 1.374 . S
C169 C168 1.359 . S
C169 H190 0.931 . S
C170 C166 1.389 . S
C170 C168 1.364 . S
C170 H191 0.931 . S
C171 O182 1.256 . S
C171 O183 1.257 . S
O172 Gd152 2.377 . S
O172 C154 1.240 . S
O173 Gd153 2.395 . S
O173 C154 1.240 . S
O174 Gd152 2.448 . S
O174 C155 1.249 1_556 S
O175 Gd152 2.506 1_554 S
O175 C155 1.252 . S
O176 Gd152 2.435 . S
O176 C162 1.256 . S
O177 Gd152 2.717 . S
O177 Gd153 2.327 . S
O177 C162 1.257 . S
O178 Gd153 2.377 . S
O178 C163 1.240 . S
O179 Gd152 2.395 . S
O179 C163 1.240 . S
O180 Gd153 2.448 . S
O180 C164 1.249 . S
O181 Gd153 2.506 . S
O181 C164 1.252 . S
O182 Gd153 2.435 . S
O182 C171 1.256 . S
O183 Gd152 2.327 . S
O183 Gd153 2.717 . S
O183 C171 1.257 . S
H184 C157 0.930 . S
H185 C158 0.931 . S
H186 C160 0.931 . S
H187 C161 0.931 . S
H188 C166 0.930 . S
H189 C167 0.931 . S
H190 C169 0.931 . S
H191 C170 0.931 . S
Gd192 C195 2.818 1_556 S
Gd192 O212 2.377 . S
Gd192 O214 2.448 . S
Gd192 O215 2.506 1_556 S
Gd192 O216 2.435 . S
Gd192 O217 2.717 1_655 S
Gd192 O219 2.395 1_655 S
Gd192 O223 2.327 . S
Gd193 C204 2.818 . S
Gd193 O213 2.395 1_455 S
Gd193 O217 2.327 . S
Gd193 O218 2.377 . S
Gd193 O220 2.448 . S
Gd193 O221 2.506 . S
Gd193 O222 2.435 . S
Gd193 O223 2.717 1_455 S
C194 O212 1.240 . S
C194 O213 1.240 . S
C195 Gd192 2.818 1_554 S
C195 C196 1.510 . S
C195 O214 1.249 1_554 S
C195 O215 1.252 . S
C196 C195 1.510 . S
C196 C197 1.404 . S
C196 C198 1.352 . S
C197 C196 1.404 . S
C197 C201 1.389 . S
C197 H224 0.930 . S
C198 C196 1.352 . S
C198 C200 1.374 . S
C198 H225 0.931 . S
C199 C200 1.359 . S
C199 C201 1.364 . S
C200 C198 1.374 . S
C200 C199 1.359 . S
C200 H226 0.931 . S
C201 C197 1.389 . S
C201 C199 1.364 . S
C201 H227 0.931 . S
C202 O216 1.262 . S
C202 O217 1.254 1_655 S
C203 O218 1.240 . S
C203 O219 1.240 . S
C204 Gd193 2.818 . S
C204 C205 1.510 . S
C204 O220 1.249 . S
C204 O221 1.252 . S
C205 C204 1.510 . S
C205 C206 1.404 . S
C205 C207 1.352 . S
C206 C205 1.404 . S
C206 C210 1.389 . S
C206 H228 0.930 . S
C207 C205 1.352 . S
C207 C209 1.374 . S
C207 H229 0.931 . S
C208 C209 1.359 . S
C208 C210 1.364 . S
C209 C207 1.374 . S
C209 C208 1.359 . S
C209 H230 0.931 . S
C210 C206 1.389 . S
C210 C208 1.364 . S
C210 H231 0.931 . S
C211 O222 1.265 . S
C211 O223 1.253 1_455 S
O212 Gd192 2.377 . S
O212 C194 1.240 . S
O213 Gd193 2.395 1_655 S
O213 C194 1.240 . S
O214 Gd192 2.448 . S
O214 C195 1.249 1_556 S
O215 Gd192 2.506 1_554 S
O215 C195 1.252 . S
O216 Gd192 2.435 . S
O216 C202 1.262 . S
O217 Gd192 2.717 1_455 S
O217 Gd193 2.327 . S
O217 C202 1.254 1_455 S
O218 Gd193 2.377 . S
O218 C203 1.240 . S
O219 Gd192 2.395 1_455 S
O219 C203 1.240 . S
O220 Gd193 2.448 . S
O220 C204 1.249 . S
O221 Gd193 2.506 . S
O221 C204 1.252 . S
O222 Gd193 2.435 . S
O222 C211 1.265 . S
O223 Gd192 2.327 . S
O223 Gd193 2.717 1_655 S
O223 C211 1.253 1_655 S
H224 C197 0.930 . S
H225 C198 0.931 . S
H226 C200 0.931 . S
H227 C201 0.931 . S
H228 C206 0.930 . S
H229 C207 0.931 . S
H230 C209 0.931 . S
H231 C210 0.931 . S
C232 C233 1.352 1_565 S
C232 C238 1.379 . S
C232 N240 1.356 . S
C233 C232 1.352 1_545 S
C233 C239 1.375 . S
C234 C235 1.363 . S
C234 C239 1.379 . S
C234 N241 1.356 . S
C235 C234 1.363 . S
C235 C238 1.363 1_545 S
N236 C238 1.356 . S
N236 H248 0.984 . S
N236 H249 0.985 . S
N237 C239 1.356 . S
N237 H242 0.984 . S
N237 H243 0.985 . S
C238 C232 1.379 . S
C238 C235 1.363 1_565 S
C238 N236 1.356 . S
C239 C233 1.375 . S
C239 C234 1.379 . S
C239 N237 1.356 . S
N240 C232 1.356 . S
N240 H246 0.984 . S
N240 H247 0.984 . S
N241 C234 1.356 . S
N241 H244 0.984 . S
N241 H245 0.985 . S
H242 N237 0.984 . S
H243 N237 0.985 . S
H244 N241 0.984 . S
H245 N241 0.985 . S
H246 N240 0.984 . S
H247 N240 0.984 . S
H248 N236 0.984 . S
H249 N236 0.985 . S
C250 C251 1.363 . S
C250 C256 1.379 . S
C250 N258 1.356 . S
C251 C250 1.363 . S
C251 C257 1.363 . S
C252 C253 1.363 . S
C252 C257 1.379 . S
C252 N259 1.356 . S
C253 C252 1.363 . S
C253 C256 1.363 . S
N254 C256 1.356 . S
N254 H266 0.984 . S
N254 H267 0.985 . S
N255 C257 1.356 . S
N255 H260 0.984 . S
N255 H261 0.985 . S
C256 C250 1.379 . S
C256 C253 1.363 . S
C256 N254 1.356 . S
C257 C251 1.363 . S
C257 C252 1.379 . S
C257 N255 1.356 . S
N258 C250 1.356 . S
N258 H264 0.984 . S
N258 H265 0.984 . S
N259 C252 1.356 . S
N259 H262 0.984 . S
N259 H263 0.985 . S
H260 N255 0.984 . S
H261 N255 0.985 . S
H262 N259 0.984 . S
H263 N259 0.985 . S
H264 N258 0.984 . S
H265 N258 0.984 . S
H266 N254 0.984 . S
H267 N254 0.985 . S
C268 C269 1.363 . S
C268 C274 1.379 . S
C268 N276 1.356 . S
C269 C268 1.363 . S
C269 C275 1.363 . S
C270 C271 1.363 . S
C270 C275 1.379 . S
C270 N277 1.356 . S
C271 C270 1.363 . S
C271 C274 1.363 . S
N272 C274 1.356 . S
N272 H284 0.984 . S
N272 H285 0.985 . S
N273 C275 1.356 . S
N273 H278 0.984 . S
N273 H279 0.985 . S
C274 C268 1.379 . S
C274 C271 1.363 . S
C274 N272 1.356 . S
C275 C269 1.363 . S
C275 C270 1.379 . S
C275 N273 1.356 . S
N276 C268 1.356 . S
N276 H282 0.984 . S
N276 H283 0.984 . S
N277 C270 1.356 . S
N277 H280 0.984 . S
N277 H281 0.985 . S
H278 N273 0.984 . S
H279 N273 0.985 . S
H280 N277 0.984 . S
H281 N277 0.985 . S
H282 N276 0.984 . S
H283 N276 0.984 . S
H284 N272 0.984 . S
H285 N272 0.985 . S
C286 C287 1.363 . S
C286 C292 1.379 . S
C286 N294 1.356 . S
C287 C286 1.363 . S
C287 C293 1.363 1_455 S
C288 C289 1.363 1_655 S
C288 C293 1.379 . S
C288 N295 1.356 . S
C289 C288 1.363 1_455 S
C289 C292 1.363 . S
N290 C292 1.356 . S
N290 H302 0.984 . S
N290 H303 0.985 . S
N291 C293 1.356 . S
N291 H296 0.984 . S
N291 H297 0.985 . S
C292 C286 1.379 . S
C292 C289 1.363 . S
C292 N290 1.356 . S
C293 C287 1.363 1_655 S
C293 C288 1.379 . S
C293 N291 1.356 . S
N294 C286 1.356 . S
N294 H300 0.984 . S
N294 H301 0.984 . S
N295 C288 1.356 . S
N295 H298 0.984 . S
N295 H299 0.985 . S
H296 N291 0.984 . S
H297 N291 0.985 . S
H298 N295 0.984 . S
H299 N295 0.985 . S
H300 N294 0.984 . S
H301 N294 0.984 . S
H302 N290 0.984 . S
H303 N290 0.985 . S
C304 C305 1.356 1_545 S
C304 C310 1.379 . S
C304 N312 1.356 . S
C305 C304 1.356 1_565 S
C305 C311 1.370 . S
C306 C307 1.363 . S
C306 C311 1.379 . S
C306 N313 1.356 . S
C307 C306 1.363 . S
C307 C310 1.363 1_565 S
N308 C310 1.356 . S
N308 H320 0.984 . S
N308 H321 0.985 1_554 S
N309 C311 1.356 . S
N309 H314 0.984 . S
N309 H315 0.985 . S
C310 C304 1.379 . S
C310 C307 1.363 1_545 S
C310 N308 1.356 . S
C311 C305 1.370 . S
C311 C306 1.379 . S
C311 N309 1.356 . S
N312 C304 1.356 . S
N312 H318 0.984 . S
N312 H319 0.984 . S
N313 C306 1.356 . S
N313 H316 0.984 . S
N313 H317 0.985 . S
H314 N309 0.984 . S
H315 N309 0.985 . S
H316 N313 0.984 . S
H317 N313 0.985 . S
H318 N312 0.984 . S
H319 N312 0.984 . S
H320 N308 0.984 . S
H321 N308 0.985 1_556 S
C322 C323 1.363 . S
C322 C328 1.379 . S
C322 N330 1.356 . S
C323 C322 1.363 . S
C323 C329 1.363 . S
C324 C325 1.363 . S
C324 C329 1.379 . S
C324 N331 1.356 . S
C325 C324 1.363 . S
C325 C328 1.363 . S
N326 C328 1.356 . S
N326 H338 0.984 . S
N326 H339 0.985 1_554 S
N327 C329 1.356 . S
N327 H332 0.984 . S
N327 H333 0.985 . S
C328 C322 1.379 . S
C328 C325 1.363 . S
C328 N326 1.356 . S
C329 C323 1.363 . S
C329 C324 1.379 . S
C329 N327 1.356 . S
N330 C322 1.356 . S
N330 H336 0.984 . S
N330 H337 0.984 . S
N331 C324 1.356 . S
N331 H334 0.984 . S
N331 H335 0.985 . S
H332 N327 0.984 . S
H333 N327 0.985 . S
H334 N331 0.984 . S
H335 N331 0.985 . S
H336 N330 0.984 . S
H337 N330 0.984 . S
H338 N326 0.984 . S
H339 N326 0.985 1_556 S
C340 C341 1.363 . S
C340 C346 1.379 . S
C340 N348 1.356 . S
C341 C340 1.363 . S
C341 C347 1.363 . S
C342 C343 1.363 . S
C342 C347 1.379 . S
C342 N349 1.356 . S
C343 C342 1.363 . S
C343 C346 1.363 . S
N344 C346 1.356 . S
N344 H356 0.984 . S
N344 H357 0.985 . S
N345 C347 1.356 . S
N345 H350 0.984 . S
N345 H351 0.985 . S
C346 C340 1.379 . S
C346 C343 1.363 . S
C346 N344 1.356 . S
C347 C341 1.363 . S
C347 C342 1.379 . S
C347 N345 1.356 . S
N348 C340 1.356 . S
N348 H354 0.984 . S
N348 H355 0.984 . S
N349 C342 1.356 . S
N349 H352 0.984 1_554 S
N349 H353 0.985 . S
H350 N345 0.984 . S
H351 N345 0.985 . S
H352 N349 0.984 1_556 S
H353 N349 0.985 . S
H354 N348 0.984 . S
H355 N348 0.984 . S
H356 N344 0.984 . S
H357 N344 0.985 . S
C358 C359 1.363 1_455 S
C358 C364 1.379 . S
C358 N366 1.356 . S
C359 C358 1.363 1_655 S
C359 C365 1.363 . S
C360 C361 1.363 . S
C360 C365 1.379 . S
C360 N367 1.356 . S
C361 C360 1.363 . S
C361 C364 1.363 1_655 S
N362 C364 1.356 . S
N362 H374 0.984 . S
N362 H375 0.985 . S
N363 C365 1.356 . S
N363 H368 0.984 . S
N363 H369 0.985 . S
C364 C358 1.379 . S
C364 C361 1.363 1_455 S
C364 N362 1.356 . S
C365 C359 1.363 . S
C365 C360 1.379 . S
C365 N363 1.356 . S
N366 C358 1.356 . S
N366 H372 0.984 . S
N366 H373 0.984 . S
N367 C360 1.356 . S
N367 H370 0.984 1_554 S
N367 H371 0.985 . S
H368 N363 0.984 . S
H369 N363 0.985 . S
H370 N367 0.984 1_556 S
H371 N367 0.985 . S
H372 N366 0.984 . S
H373 N366 0.984 . S
H374 N362 0.984 . S
H375 N362 0.985 . S
C376 C377 1.363 . S
C376 C382 1.379 . S
C376 N384 1.356 1_655 S
C377 C376 1.363 . S
C377 C383 1.363 . S
C378 C379 1.363 . S
C378 C383 1.379 . S
C378 N385 1.356 . S
C379 C378 1.363 . S
C379 C382 1.363 . S
N380 C382 1.356 . S
N380 H392 0.984 . S
N380 H393 0.985 . S
N381 C383 1.356 . S
N381 H386 0.984 . S
N381 H387 0.985 1_554 S
C382 C376 1.379 . S
C382 C379 1.363 . S
C382 N380 1.356 . S
C383 C377 1.363 . S
C383 C378 1.379 . S
C383 N381 1.356 . S
N384 C376 1.356 1_455 S
N384 H390 0.984 . S
N384 H391 0.984 . S
N385 C378 1.356 . S
N385 H388 0.984 . S
N385 H389 0.985 . S
H386 N381 0.984 . S
H387 N381 0.985 1_556 S
H388 N385 0.984 . S
H389 N385 0.985 . S
H390 N384 0.984 . S
H391 N384 0.984 . S
H392 N380 0.984 . S
H393 N380 0.985 . S
C394 C395 1.363 . S
C394 C400 1.379 . S
C394 N402 1.356 . S
C395 C394 1.363 . S
C395 C401 1.363 1_565 S
C396 C397 1.363 . S
C396 C401 1.379 1_565 S
C396 N403 1.356 . S
C397 C396 1.363 . S
C397 C400 1.363 . S
N398 C400 1.356 . S
N398 H410 0.984 . S
N398 H411 0.985 . S
N399 C401 1.356 . S
N399 H404 0.984 . S
N399 H405 0.985 . S
C400 C394 1.379 . S
C400 C397 1.363 . S
C400 N398 1.356 . S
C401 C395 1.363 1_545 S
C401 C396 1.379 1_545 S
C401 N399 1.356 . S
N402 C394 1.356 . S
N402 H408 0.984 . S
N402 H409 0.984 . S
N403 C396 1.356 . S
N403 H406 0.984 . S
N403 H407 0.985 . S
H404 N399 0.984 . S
H405 N399 0.985 . S
H406 N403 0.984 . S
H407 N403 0.985 . S
H408 N402 0.984 . S
H409 N402 0.984 . S
H410 N398 0.984 . S
H411 N398 0.985 . S
C412 C413 1.363 . S
C412 C418 1.379 . S
C412 N420 1.356 . S
C413 C412 1.363 . S
C413 C419 1.363 . S
C414 C415 1.363 . S
C414 C419 1.379 . S
C414 N421 1.356 . S
C415 C414 1.363 . S
C415 C418 1.363 . S
N416 C418 1.356 . S
N416 H428 0.984 . S
N416 H429 0.985 . S
N417 C419 1.356 . S
N417 H422 0.984 . S
N417 H423 0.985 . S
C418 C412 1.379 . S
C418 C415 1.363 . S
C418 N416 1.356 . S
C419 C413 1.363 . S
C419 C414 1.379 . S
C419 N417 1.356 . S
N420 C412 1.356 . S
N420 H426 0.984 1_554 S
N420 H427 0.984 . S
N421 C414 1.356 . S
N421 H424 0.984 . S
N421 H425 0.985 . S
H422 N417 0.984 . S
H423 N417 0.985 . S
H424 N421 0.984 . S
H425 N421 0.985 . S
H426 N420 0.984 1_556 S
H427 N420 0.984 . S
H428 N416 0.984 . S
H429 N416 0.985 . S
C430 C431 1.363 . S
C430 C436 1.379 . S
C430 N438 1.356 . S
C431 C430 1.363 . S
C431 C437 1.363 . S
C432 C433 1.363 . S
C432 C437 1.379 . S
C432 N439 1.356 . S
C433 C432 1.363 . S
C433 C436 1.363 . S
N434 C436 1.356 . S
N434 H446 0.984 . S
N434 H447 0.985 . S
N435 C437 1.356 . S
N435 H440 0.984 . S
N435 H441 0.985 . S
C436 C430 1.379 . S
C436 C433 1.363 . S
C436 N434 1.356 . S
C437 C431 1.363 . S
C437 C432 1.379 . S
C437 N435 1.356 . S
N438 C430 1.356 . S
N438 H444 0.984 . S
N438 H445 0.984 . S
N439 C432 1.356 . S
N439 H442 0.984 . S
N439 H443 0.985 . S
H440 N435 0.984 . S
H441 N435 0.985 . S
H442 N439 0.984 . S
H443 N439 0.985 . S
H444 N438 0.984 . S
H445 N438 0.984 . S
H446 N434 0.984 . S
H447 N434 0.985 . S
C448 C449 1.363 . S
C448 C454 1.379 . S
C448 N456 1.356 1_455 S
C449 C448 1.363 . S
C449 C455 1.363 . S
C450 C451 1.363 . S
C450 C455 1.379 . S
C450 N457 1.356 . S
C451 C450 1.363 . S
C451 C454 1.363 . S
N452 C454 1.356 . S
N452 H464 0.984 . S
N452 H465 0.985 . S
N453 C455 1.356 . S
N453 H458 0.984 1_455 S
N453 H459 0.985 . S
C454 C448 1.379 . S
C454 C451 1.363 . S
C454 N452 1.356 . S
C455 C449 1.363 . S
C455 C450 1.379 . S
C455 N453 1.356 . S
N456 C448 1.356 1_655 S
N456 H462 0.984 . S
N456 H463 0.984 . S
N457 C450 1.356 . S
N457 H460 0.984 . S
N457 H461 0.985 . S
H458 N453 0.984 1_655 S
H459 N453 0.985 . S
H460 N457 0.984 . S
H461 N457 0.985 . S
H462 N456 0.984 . S
H463 N456 0.984 . S
H464 N452 0.984 . S
H465 N452 0.985 . S
C466 C467 1.363 . S
C466 C472 1.379 . S
C466 N474 1.356 1_545 S
C467 C466 1.363 . S
C467 C473 1.363 . S
C468 C469 1.363 . S
C468 C473 1.379 . S
C468 N475 1.356 . S
C469 C468 1.363 . S
C469 C472 1.363 . S
N470 C472 1.356 . S
N470 H482 0.984 . S
N470 H483 0.985 . S
N471 C473 1.356 . S
N471 H476 0.984 1_545 S
N471 H477 0.985 . S
C472 C466 1.379 . S
C472 C469 1.363 . S
C472 N470 1.356 . S
C473 C467 1.363 . S
C473 C468 1.379 . S
C473 N471 1.356 . S
N474 C466 1.356 1_565 S
N474 H480 0.985 1_565 S
N474 H481 0.984 . S
N475 C468 1.356 . S
N475 H478 0.984 . S
N475 H479 0.985 . S
H476 N471 0.984 1_565 S
H477 N471 0.985 . S
H478 N475 0.984 . S
H479 N475 0.985 . S
H480 N474 0.985 1_545 S
H481 N474 0.984 . S
H482 N470 0.984 . S
H483 N470 0.985 . S
C484 C485 1.363 . S
C484 C490 1.379 . S
C484 N492 1.356 . S
C485 C484 1.363 . S
C485 C491 1.363 . S
C486 C487 1.363 . S
C486 C491 1.379 . S
C486 N493 1.356 . S
C487 C486 1.363 . S
C487 C490 1.363 . S
N488 C490 1.356 . S
N488 H500 0.984 . S
N488 H501 0.985 . S
N489 C491 1.356 . S
N489 H494 0.984 . S
N489 H495 0.985 . S
C490 C484 1.379 . S
C490 C487 1.363 . S
C490 N488 1.356 . S
C491 C485 1.363 . S
C491 C486 1.379 . S
C491 N489 1.356 . S
N492 C484 1.356 . S
N492 H498 0.984 . S
N492 H499 0.984 . S
N493 C486 1.356 . S
N493 H496 0.984 . S
N493 H497 0.985 . S
H494 N489 0.984 . S
H495 N489 0.985 . S
H496 N493 0.984 . S
H497 N493 0.985 . S
H498 N492 0.984 . S
H499 N492 0.984 . S
H500 N488 0.984 . S
H501 N488 0.985 . S
C502 C503 1.363 . S
C502 C508 1.379 . S
C502 N510 1.356 . S
C503 C502 1.363 . S
C503 C509 1.363 . S
C504 C505 1.363 . S
C504 C509 1.379 . S
C504 N511 1.356 . S
C505 C504 1.363 . S
C505 C508 1.363 . S
N506 C508 1.356 . S
N506 H518 0.984 . S
N506 H519 0.985 . S
N507 C509 1.356 . S
N507 H512 0.984 . S
N507 H513 0.985 . S
C508 C502 1.379 . S
C508 C505 1.363 . S
C508 N506 1.356 . S
C509 C503 1.363 . S
C509 C504 1.379 . S
C509 N507 1.356 . S
N510 C502 1.356 . S
N510 H516 0.984 . S
N510 H517 0.984 . S
N511 C504 1.356 . S
N511 H514 0.984 . S
N511 H515 0.985 . S
H512 N507 0.984 . S
H513 N507 0.985 . S
H514 N511 0.984 . S
H515 N511 0.985 . S
H516 N510 0.984 . S
H517 N510 0.984 . S
H518 N506 0.984 . S
H519 N506 0.985 . S
C520 C521 1.363 1_655 S
C520 C526 1.379 . S
C520 N528 1.356 . S
C521 C520 1.363 1_455 S
C521 C527 1.363 . S
C522 C523 1.363 . S
C522 C527 1.379 . S
C522 N529 1.356 . S
C523 C522 1.363 . S
C523 C526 1.363 1_455 S
N524 C526 1.356 . S
N524 H536 0.984 . S
N524 H537 0.985 . S
N525 C527 1.356 . S
N525 H530 0.984 . S
N525 H531 0.985 1_556 S
C526 C520 1.379 . S
C526 C523 1.363 1_655 S
C526 N524 1.356 . S
C527 C521 1.363 . S
C527 C522 1.379 . S
C527 N525 1.356 . S
N528 C520 1.356 . S
N528 H534 0.984 . S
N528 H535 0.984 . S
N529 C522 1.356 . S
N529 H532 0.984 . S
N529 H533 0.985 1_556 S
H530 N525 0.984 . S
H531 N525 0.985 1_554 S
H532 N529 0.984 . S
H533 N529 0.985 1_554 S
H534 N528 0.984 . S
H535 N528 0.984 . S
H536 N524 0.984 . S
H537 N524 0.985 . S
C538 C539 1.363 . S
C538 C544 1.379 . S
C538 N546 1.356 . S
C539 C538 1.363 . S
C539 C545 1.363 1_545 S
C540 C541 1.363 1_565 S
C540 C545 1.379 . S
C540 N547 1.356 . S
C541 C540 1.363 1_545 S
C541 C544 1.363 . S
N542 C544 1.356 . S
N542 H554 0.984 . S
N542 H555 0.985 . S
N543 C545 1.356 . S
N543 H548 0.984 . S
N543 H549 0.985 . S
C544 C538 1.379 . S
C544 C541 1.363 . S
C544 N542 1.356 . S
C545 C539 1.363 1_565 S
C545 C540 1.379 . S
C545 N543 1.356 . S
N546 C538 1.356 . S
N546 H552 0.984 . S
N546 H553 0.984 . S
N547 C540 1.356 . S
N547 H550 0.984 . S
N547 H551 0.985 . S
H548 N543 0.984 . S
H549 N543 0.985 . S
H550 N547 0.984 . S
H551 N547 0.985 . S
H552 N546 0.984 . S
H553 N546 0.984 . S
H554 N542 0.984 . S
H555 N542 0.985 . S
C556 C557 1.363 . S
C556 C562 1.379 . S
C556 N564 1.356 . S
C557 C556 1.363 . S
C557 C563 1.363 . S
C558 C559 1.363 . S
C558 C563 1.379 . S
C558 N565 1.356 . S
C559 C558 1.363 . S
C559 C562 1.363 . S
N560 C562 1.356 . S
N560 H572 0.984 . S
N560 H573 0.985 . S
N561 C563 1.356 . S
N561 H566 0.984 . S
N561 H567 0.985 1_556 S
C562 C556 1.379 . S
C562 C559 1.363 . S
C562 N560 1.356 . S
C563 C557 1.363 . S
C563 C558 1.379 . S
C563 N561 1.356 . S
N564 C556 1.356 . S
N564 H570 0.984 . S
N564 H571 0.984 . S
N565 C558 1.356 . S
N565 H568 0.984 . S
N565 H569 0.985 1_556 S
H566 N561 0.984 . S
H567 N561 0.985 1_554 S
H568 N565 0.984 . S
H569 N565 0.985 1_554 S
H570 N564 0.984 . S
H571 N564 0.984 . S
H572 N560 0.984 . S
H573 N560 0.985 . S
C574 C575 1.363 . S
C574 C580 1.379 . S
C574 N582 1.356 . S
C575 C574 1.363 . S
C575 C581 1.363 . S
C576 C577 1.363 . S
C576 C581 1.379 . S
C576 N583 1.356 . S
C577 C576 1.363 . S
C577 C580 1.363 . S
N578 C580 1.356 . S
N578 H590 0.984 1_556 S
N578 H591 0.985 . S
N579 C581 1.356 . S
N579 H584 0.984 . S
N579 H585 0.985 . S
C580 C574 1.379 . S
C580 C577 1.363 . S
C580 N578 1.356 . S
C581 C575 1.363 . S
C581 C576 1.379 . S
C581 N579 1.356 . S
N582 C574 1.356 . S
N582 H588 0.984 1_556 S
N582 H589 0.984 . S
N583 C576 1.356 . S
N583 H586 0.984 . S
N583 H587 0.985 . S
H584 N579 0.984 . S
H585 N579 0.985 . S
H586 N583 0.984 . S
H587 N583 0.985 . S
H588 N582 0.984 1_554 S
H589 N582 0.984 . S
H590 N578 0.984 1_554 S
H591 N578 0.985 . S
C592 C593 1.363 1_455 S
C592 C598 1.379 . S
C592 N600 1.356 . S
C593 C592 1.363 1_655 S
C593 C599 1.363 . S
C594 C595 1.363 . S
C594 C599 1.379 . S
C594 N601 1.356 . S
C595 C594 1.363 . S
C595 C598 1.363 1_655 S
N596 C598 1.356 . S
N596 H608 0.984 . S
N596 H609 0.985 . S
N597 C599 1.356 . S
N597 H602 0.984 . S
N597 H603 0.985 . S
C598 C592 1.379 . S
C598 C595 1.363 1_455 S
C598 N596 1.356 . S
C599 C593 1.363 . S
C599 C594 1.379 . S
C599 N597 1.356 . S
N600 C592 1.356 . S
N600 H606 0.984 . S
N600 H607 0.984 . S
N601 C594 1.356 . S
N601 H604 0.984 . S
N601 H605 0.985 . S
H602 N597 0.984 . S
H603 N597 0.985 . S
H604 N601 0.984 . S
H605 N601 0.985 . S
H606 N600 0.984 . S
H607 N600 0.984 . S
H608 N596 0.984 . S
H609 N596 0.985 . S
C610 C611 1.363 . S
C610 C616 1.379 . S
C610 N618 1.356 . S
C611 C610 1.363 . S
C611 C617 1.363 1_565 S
C612 C613 1.363 . S
C612 C617 1.379 1_565 S
C612 N619 1.356 1_565 S
C613 C612 1.363 . S
C613 C616 1.363 . S
N614 C616 1.356 . S
N614 H626 0.984 . S
N614 H627 0.985 . S
N615 C617 1.356 . S
N615 H620 0.984 . S
N615 H621 0.985 . S
C616 C610 1.379 . S
C616 C613 1.363 . S
C616 N614 1.356 . S
C617 C611 1.363 1_545 S
C617 C612 1.379 1_545 S
C617 N615 1.356 . S
N618 C610 1.356 . S
N618 H624 0.984 . S
N618 H625 0.984 . S
N619 C612 1.356 1_545 S
N619 H622 0.984 1_545 S
N619 H623 0.985 . S
H620 N615 0.984 . S
H621 N615 0.985 . S
H622 N619 0.984 1_565 S
H623 N619 0.985 . S
H624 N618 0.984 . S
H625 N618 0.984 . S
H626 N614 0.984 . S
H627 N614 0.985 . S
C628 C629 1.363 . S
C628 C634 1.379 . S
C628 N636 1.356 . S
C629 C628 1.363 . S
C629 C635 1.363 . S
C630 C631 1.363 . S
C630 C635 1.379 . S
C630 N637 1.356 . S
C631 C630 1.363 . S
C631 C634 1.363 . S
N632 C634 1.356 . S
N632 H644 0.984 . S
N632 H645 0.985 . S
N633 C635 1.356 . S
N633 H638 0.984 . S
N633 H639 0.985 . S
C634 C628 1.379 . S
C634 C631 1.363 . S
C634 N632 1.356 . S
C635 C629 1.363 . S
C635 C630 1.379 . S
C635 N633 1.356 . S
N636 C628 1.356 . S
N636 H642 0.984 . S
N636 H643 0.984 . S
N637 C630 1.356 . S
N637 H640 0.984 . S
N637 H641 0.985 . S
H638 N633 0.984 . S
H639 N633 0.985 . S
H640 N637 0.984 . S
H641 N637 0.985 . S
H642 N636 0.984 . S
H643 N636 0.984 . S
H644 N632 0.984 . S
H645 N632 0.985 . S
C646 C647 1.363 . S
C646 C652 1.379 . S
C646 N654 1.356 . S
C647 C646 1.363 . S
C647 C653 1.363 . S
C648 C649 1.363 . S
C648 C653 1.379 . S
C648 N655 1.356 . S
C649 C648 1.363 . S
C649 C652 1.363 . S
N650 C652 1.356 . S
N650 H662 0.984 . S
N650 H663 0.985 . S
N651 C653 1.356 . S
N651 H656 0.984 . S
N651 H657 0.985 . S
C652 C646 1.379 . S
C652 C649 1.363 . S
C652 N650 1.356 . S
C653 C647 1.363 . S
C653 C648 1.379 . S
C653 N651 1.356 . S
N654 C646 1.356 . S
N654 H660 0.984 . S
N654 H661 0.984 . S
N655 C648 1.356 . S
N655 H658 0.984 . S
N655 H659 0.985 . S
H656 N651 0.984 . S
H657 N651 0.985 . S
H658 N655 0.984 . S
H659 N655 0.985 . S
H660 N654 0.984 . S
H661 N654 0.984 . S
H662 N650 0.984 . S
H663 N650 0.985 . S
C233 C61 1.996 1_545 S
C235 C82 2.259 1_545 S
C253 C122 2.275 . S
C251 C70 2.031 . S
C271 C162 2.282 . S
C269 C43 2.027 . S
C289 C202 2.270 1_455 S
C287 C52 2.011 1_455 S
C307 C91 2.260 1_564 S
C305 C25 1.999 . S
C323 C34 2.035 . S
C325 C131 2.277 1_554 S
C341 C7 2.025 . S
C343 C171 2.282 1_554 S
C359 C16 2.011 . S
C361 C211 2.270 1_654 S
C379 C88 0.886 . S
C377 C50 0.938 . S
C397 C128 0.879 . S
C395 C59 0.925 . S
C415 C168 0.868 . S
C413 C67 0.916 . S
C431 C41 0.924 . S
C433 C208 0.872 . S
C449 C14 0.942 1_455 S
C451 C79 0.889 . S
C469 C119 0.879 . S
C467 C23 0.927 1_545 S
C487 C159 0.868 . S
C485 C31 0.913 . S
C503 C5 0.932 . S
C505 C199 0.877 . S
C521 C49 2.276 1_455 S
C523 C83 2.592 . S
C539 C58 2.240 1_545 S
C541 C123 2.556 . S
C559 C163 2.547 . S
C557 C68 2.227 . S
C577 C203 2.583 . S
C575 C40 2.262 . S
C593 C13 2.275 . S
C595 C74 2.599 . S
C613 C114 2.556 . S
C611 C22 2.238 . S
C631 C154 2.547 . S
C629 C32 2.234 . S
C647 C4 2.262 . S
C649 C194 2.586 . S
