# Generated by pormake.
# Topology ftw, (4,12)-cn, num edge types: 1
# Building blocks:
#     Node 0, Type 0, BuildingBlock: NAHDIM_clean_linker_0, # of connection points: 4
#     Node 1, Type 0, BuildingBlock: NAHDIM_clean_linker_0, # of connection points: 4
#     Node 2, Type 0, BuildingBlock: NAHDIM_clean_linker_0, # of connection points: 4
#     Node 3, Type 1, BuildingBlock: EZIPEK_clean_sbu_0, # of connection points: 12
#     Edge 4, Type (0, 1), BuildingBlock: UVAHIK_clean_linker_0, # of connection points: 2
#     Edge 5, Type (0, 1), BuildingBlock: UVAHIK_clean_linker_0, # of connection points: 2
#     Edge 6, Type (0, 1), BuildingBlock: UVAHIK_clean_linker_0, # of connection points: 2
#     Edge 7, Type (0, 1), BuildingBlock: UVAHIK_clean_linker_0, # of connection points: 2
#     Edge 8, Type (0, 1), BuildingBlock: UVAHIK_clean_linker_0, # of connection points: 2
#     Edge 9, Type (0, 1), BuildingBlock: UVAHIK_clean_linker_0, # of connection points: 2
#     Edge 10, Type (0, 1), BuildingBlock: UVAHIK_clean_linker_0, # of connection points: 2
#     Edge 11, Type (0, 1), BuildingBlock: UVAHIK_clean_linker_0, # of connection points: 2
#     Edge 12, Type (0, 1), BuildingBlock: UVAHIK_clean_linker_0, # of connection points: 2
#     Edge 13, Type (0, 1), BuildingBlock: UVAHIK_clean_linker_0, # of connection points: 2
#     Edge 14, Type (0, 1), BuildingBlock: UVAHIK_clean_linker_0, # of connection points: 2
#     Edge 15, Type (0, 1), BuildingBlock: UVAHIK_clean_linker_0, # of connection points: 2
# Relax obj value: 0.006
# Max RMSD: 0.061
# Mean RMSD: 0.047
data_MOF--net-ftw--node1-EZIPEK_clean_sbu_0--node2-NAHDIM_clean_linker_0--edge1-UVAHIK_clean_linker_0
_symmetry_space_group_name_H-M    P1
_symmetry_Int_Tables_number       1
_symmetry_cell_setting            triclinic
loop_
_symmetry_equiv_pos_as_xyz
'x, y, z'
_cell_length_a     39.349982
_cell_length_b     38.72957
_cell_length_c     38.103484
_cell_angle_alpha  90.367505
_cell_angle_beta   89.594765
_cell_angle_gamma 89.645979
loop_
_atom_site_label
_atom_site_type_symbol
_atom_site_fract_x
_atom_site_fract_y
_atom_site_fract_z
_atom_type_partial_charge
C0 C 0.11713 0.67907 0.3599 0.0
C1 C 0.08767 0.66814 0.33622 0.0
C2 C 0.04991 0.63287 0.37322 0.0
C3 C 0.01764 0.63164 0.38862 0.0
C4 C 0.00675 0.60244 0.40704 0.0
C5 C 0.02904 0.5739 0.41059 0.0
C6 C 0.06175 0.57481 0.39502 0.0
C7 C 0.07184 0.60422 0.37634 0.0
C8 C 0.9715 0.60218 0.4229 0.0
C9 C 0.08619 0.54487 0.39856 0.0
C10 C 0.89505 0.34958 0.35533 0.0
C11 C 0.92638 0.36105 0.33439 0.0
C12 C 0.96218 0.396 0.37359 0.0
C13 C 0.99434 0.39748 0.3887 0.0
C14 C 0.00513 0.42699 0.40683 0.0
C15 C 0.98269 0.45547 0.41073 0.0
C16 C 0.95 0.45422 0.39558 0.0
C17 C 0.94011 0.42457 0.37694 0.0
C18 C 0.04047 0.4276 0.42199 0.0
C19 C 0.92536 0.48403 0.39956 0.0
C20 C 0.94947 0.3997 0.63182 0.0
C21 C 0.9835 0.39746 0.62067 0.0
C22 C 0.99955 0.42593 0.60523 0.0
C23 C 0.98106 0.45705 0.60071 0.0
C24 C 0.94735 0.45983 0.61362 0.0
C25 C 0.93213 0.43114 0.6294 0.0
C26 C 0.03591 0.4225 0.59283 0.0
C27 C 0.92703 0.49272 0.60959 0.0
C28 C 0.12789 0.69863 0.62233 0.0
C29 C 0.09318 0.68493 0.63365 0.0
C30 C 0.078 0.62391 0.63026 0.0
C31 C 0.09395 0.59195 0.62537 0.0
C32 C 0.07669 0.56422 0.60994 0.0
C33 C 0.04233 0.5685 0.60007 0.0
C34 C 0.02534 0.60012 0.60725 0.0
C35 C 0.04345 0.62765 0.62211 0.0
C36 C 0.09551 0.53076 0.60305 0.0
C37 C 0.98836 0.60511 0.59829 0.0
C38 C 0.01828 0.54346 0.43129 0.0
C39 C 0.00535 0.51492 0.41328 0.0
C40 C 0.99333 0.48613 0.4314 0.0
C41 C 0.99309 0.48618 0.46851 0.0
C42 C 0.97917 0.45863 0.48757 0.0
C43 C 0.97966 0.4586 0.52406 0.0
C44 C 0.99456 0.48587 0.54294 0.0
C45 C 0.99591 0.48568 0.58004 0.0
C46 C 0.01119 0.51305 0.59798 0.0
C47 C 0.02515 0.54089 0.57978 0.0
C48 C 0.02364 0.54174 0.54268 0.0
C49 C 0.03721 0.56945 0.52354 0.0
C50 C 0.03528 0.57022 0.48711 0.0
C51 C 0.02031 0.54298 0.46833 0.0
C52 C 0.00721 0.51444 0.48701 0.0
C53 C 0.00841 0.51405 0.52425 0.0
C54 C 0.90279 0.32266 0.62576 0.0
C55 C 0.93726 0.33792 0.6354 0.0
O56 O 0.05869 0.66226 0.35611 0.0
O57 O 0.09674 0.65051 0.64279 0.0
O58 O 0.93254 0.37221 0.64505 0.0
O59 O 0.95355 0.36636 0.35664 0.0
H60 H 0.09514 0.64417 0.32178 0.0
H61 H 0.12368 0.6581 0.3784 0.0
H62 H 0.11023 0.70243 0.37552 0.0
H63 H 0.14004 0.68467 0.34375 0.0
H64 H 0.00088 0.65379 0.38609 0.0
H65 H 0.09697 0.60463 0.36474 0.0
H66 H 0.95788 0.57847 0.41466 0.0
H67 H 0.95624 0.6251 0.41517 0.0
H68 H 0.97333 0.60183 0.45195 0.0
H69 H 0.11133 0.55019 0.38638 0.0
H70 H 0.07532 0.52158 0.38586 0.0
H71 H 0.08992 0.53885 0.42674 0.0
H72 H 0.92005 0.38537 0.32038 0.0
H73 H 0.87357 0.34442 0.3373 0.0
H74 H 0.88699 0.37012 0.37409 0.0
H75 H 0.90062 0.32584 0.37052 0.0
H76 H 0.01117 0.37534 0.38599 0.0
H77 H 0.915 0.4238 0.36564 0.0
H78 H 0.0388 0.42684 0.45106 0.0
H79 H 0.05355 0.45187 0.41467 0.0
H80 H 0.05617 0.40531 0.41287 0.0
H81 H 0.90009 0.4782 0.38823 0.0
H82 H 0.93583 0.5071 0.38625 0.0
H83 H 0.92202 0.4907 0.42778 0.0
H84 H 0.95364 0.33576 0.61151 0.0
H85 H 0.9975 0.37355 0.62391 0.0
H86 H 0.90608 0.43272 0.63874 0.0
H87 H 0.03672 0.42279 0.56371 0.0
H88 H 0.048 0.39819 0.60195 0.0
H89 H 0.05103 0.44475 0.60235 0.0
H90 H 0.90111 0.49072 0.62113 0.0
H91 H 0.92476 0.49908 0.58132 0.0
H92 H 0.94046 0.51441 0.62254 0.0
H93 H 0.07607 0.68767 0.61063 0.0
H94 H 0.12578 0.72606 0.61418 0.0
H95 H 0.13771 0.6833 0.59965 0.0
H96 H 0.14639 0.69664 0.64415 0.0
H97 H 0.12047 0.58922 0.63241 0.0
H98 H 0.03066 0.65203 0.62724 0.0
H99 H 0.09504 0.52454 0.57456 0.0
H100 H 0.08264 0.5094 0.61706 0.0
H101 H 0.12239 0.53182 0.61171 0.0
H102 H 0.9777 0.62932 0.6098 0.0
H103 H 0.97322 0.58291 0.60782 0.0
H104 H 0.98559 0.60618 0.56934 0.0
H105 H 0.00482 0.51501 0.38482 0.0
H106 H 0.96758 0.43683 0.47447 0.0
H107 H 0.96843 0.43673 0.53722 0.0
H108 H 0.01236 0.5126 0.62641 0.0
H109 H 0.04934 0.59102 0.53646 0.0
H110 H 0.04599 0.59231 0.47385 0.0
H111 H 0.90577 0.29531 0.61722 0.0
H112 H 0.89153 0.33746 0.60379 0.0
H113 H 0.88503 0.32392 0.64856 0.0
C114 C 0.61511 0.04671 0.73409 0.0
C115 C 0.63772 0.02897 0.70646 0.0
C116 C 0.61275 0.03726 0.6491 0.0
C117 C 0.61072 0.00321 0.63661 0.0
C118 C 0.58658 0.99404 0.61136 0.0
C119 C 0.56406 0.01951 0.59841 0.0
C120 C 0.56702 0.05417 0.60994 0.0
C121 C 0.59172 0.06268 0.63491 0.0
C122 C 0.58475 0.95704 0.59894 0.0
C123 C 0.54362 0.08199 0.59643 0.0
C124 C 0.30954 0.90181 0.60547 0.0
C125 C 0.3282 0.93406 0.61805 0.0
C126 C 0.3899 0.94108 0.61247 0.0
C127 C 0.39055 0.97651 0.60486 0.0
C128 C 0.41999 0.99174 0.59093 0.0
C129 C 0.44918 0.97106 0.58445 0.0
C130 C 0.44887 0.93563 0.59328 0.0
C131 C 0.41929 0.92123 0.60757 0.0
C132 C 0.41982 0.02978 0.5827 0.0
C133 C 0.47962 0.91286 0.58709 0.0
C134 C 0.40954 0.96052 0.35649 0.0
C135 C 0.40961 0.9941 0.37046 0.0
C136 C 0.43744 0.00607 0.3898 0.0
C137 C 0.46549 0.98377 0.39554 0.0
C138 C 0.46602 0.95042 0.38011 0.0
C139 C 0.43814 0.93943 0.3603 0.0
C140 C 0.43655 0.04224 0.40476 0.0
C141 C 0.49562 0.92608 0.38533 0.0
C142 C 0.72548 0.0682 0.39746 0.0
C143 C 0.70724 0.04455 0.37146 0.0
C144 C 0.64527 0.04695 0.37857 0.0
C145 C 0.61993 0.07148 0.38576 0.0
C146 C 0.5888 0.06188 0.40093 0.0
C147 C 0.58287 0.02677 0.40872 0.0
C148 C 0.60791 0.00162 0.40028 0.0
C149 C 0.63874 0.01192 0.38498 0.0
C150 C 0.56243 0.08925 0.4091 0.0
C151 C 0.60208 0.96384 0.40756 0.0
C152 C 0.53654 0.00954 0.574 0.0
C153 C 0.50637 0.99697 0.58858 0.0
C154 C 0.47969 0.98604 0.56731 0.0
C155 C 0.48285 0.98809 0.53038 0.0
C156 C 0.45656 0.97715 0.50821 0.0
C157 C 0.45988 0.9792 0.47194 0.0
C158 C 0.48965 0.9922 0.45636 0.0
C159 C 0.49318 0.99446 0.41947 0.0
C160 C 0.52355 0.0064 0.40481 0.0
C161 C 0.55069 0.01625 0.42607 0.0
C162 C 0.54735 0.01494 0.46304 0.0
C163 C 0.57397 0.0251 0.48522 0.0
C164 C 0.57047 0.0235 0.52156 0.0
C165 C 0.54028 0.01154 0.53712 0.0
C166 C 0.51322 0.00097 0.51527 0.0
C167 C 0.51669 0.00284 0.4782 0.0
C168 C 0.33699 0.91525 0.36296 0.0
C169 C 0.34887 0.9506 0.35031 0.0
O170 O 0.63474 0.04618 0.67481 0.0
O171 O 0.67519 0.05799 0.36472 0.0
O172 O 0.38237 0.9479 0.33901 0.0
O173 O 0.36168 0.92513 0.62487 0.0
H174 H 0.62879 0.00185 0.70395 0.0
H175 H 0.58813 0.04564 0.72578 0.0
H176 H 0.6223 0.07423 0.73744 0.0
H177 H 0.61738 0.0334 0.75972 0.0
H178 H 0.62802 0.98382 0.64659 0.0
H179 H 0.59393 0.08901 0.64438 0.0
H180 H 0.56051 0.94557 0.60806 0.0
H181 H 0.60612 0.9411 0.60895 0.0
H182 H 0.58503 0.95593 0.56981 0.0
H183 H 0.54904 0.10766 0.60823 0.0
H184 H 0.51682 0.07516 0.60232 0.0
H185 H 0.54625 0.08384 0.56748 0.0
H186 H 0.32678 0.95314 0.59635 0.0
H187 H 0.28273 0.90819 0.59904 0.0
H188 H 0.30989 0.88154 0.62598 0.0
H189 H 0.3221 0.89136 0.58142 0.0
H190 H 0.36827 0.99234 0.60998 0.0
H191 H 0.41865 0.89404 0.61411 0.0
H192 H 0.44184 0.0425 0.59533 0.0
H193 H 0.39607 0.04284 0.5917 0.0
H194 H 0.4225 0.03335 0.55393 0.0
H195 H 0.47467 0.88544 0.59369 0.0
H196 H 0.50097 0.92221 0.6034 0.0
H197 H 0.48778 0.91431 0.55918 0.0
H198 H 0.34649 0.96874 0.373 0.0
H199 H 0.38796 0.01093 0.36623 0.0
H200 H 0.43799 0.91377 0.34876 0.0
H201 H 0.43338 0.04103 0.43369 0.0
H202 H 0.41534 0.05784 0.39392 0.0
H203 H 0.46091 0.05554 0.39922 0.0
H204 H 0.49116 0.90026 0.37341 0.0
H205 H 0.50054 0.92284 0.41379 0.0
H206 H 0.51881 0.93721 0.37328 0.0
H207 H 0.70572 0.01886 0.38415 0.0
H208 H 0.75149 0.05822 0.40267 0.0
H209 H 0.71118 0.06907 0.4227 0.0
H210 H 0.72727 0.09491 0.38719 0.0
H211 H 0.62492 0.09836 0.38005 0.0
H212 H 0.65733 0.99244 0.37767 0.0
H213 H 0.55731 0.08996 0.43779 0.0
H214 H 0.53821 0.08276 0.39589 0.0
H215 H 0.57057 0.11532 0.40059 0.0
H216 H 0.62421 0.94748 0.39981 0.0
H217 H 0.5794 0.95486 0.39302 0.0
H218 H 0.59688 0.96015 0.43596 0.0
H219 H 0.50383 0.99516 0.61689 0.0
H220 H 0.43306 0.96689 0.51862 0.0
H221 H 0.43877 0.97033 0.45628 0.0
H222 H 0.52625 0.00762 0.37648 0.0
H223 H 0.59781 0.03447 0.47474 0.0
H224 H 0.59179 0.03167 0.53733 0.0
H225 H 0.33877 0.89584 0.3414 0.0
H226 H 0.31026 0.91679 0.3725 0.0
H227 H 0.3532 0.9065 0.38498 0.0
C228 C 0.68316 0.65922 0.91506 0.0
C229 C 0.67036 0.68713 0.94082 0.0
C230 C 0.63009 0.65596 0.97889 0.0
C231 C 0.6249 0.64324 0.01271 0.0
C232 C 0.59539 0.62497 0.02147 0.0
C233 C 0.57059 0.6189 0.99547 0.0
C234 C 0.57524 0.63231 0.96135 0.0
C235 C 0.60482 0.65088 0.95342 0.0
C236 C 0.59102 0.61155 0.05831 0.0
C237 C 0.54923 0.62632 0.93307 0.0
C238 C 0.31026 0.63343 0.10127 0.0
C239 C 0.32905 0.64744 0.06917 0.0
C240 C 0.39095 0.64222 0.06389 0.0
C241 C 0.39349 0.63441 0.02792 0.0
C242 C 0.4234 0.61979 0.01381 0.0
C243 C 0.45111 0.61274 0.0362 0.0
C244 C 0.44902 0.62196 0.07216 0.0
C245 C 0.41904 0.637 0.0854 0.0
C246 C 0.42524 0.61128 0.97515 0.0
C247 C 0.47818 0.61519 0.09676 0.0
C248 C 0.40161 0.3863 0.0443 0.0
C249 C 0.40505 0.39991 0.01046 0.0
C250 C 0.43365 0.41946 0.00127 0.0
C251 C 0.45905 0.42577 0.02663 0.0
C252 C 0.45596 0.41126 0.06051 0.0
C253 C 0.42744 0.39121 0.0687 0.0
C254 C 0.4367 0.43345 0.96451 0.0
C255 C 0.48257 0.41714 0.0882 0.0
C256 C 0.72093 0.40955 0.0333 0.0
C257 C 0.69946 0.37749 0.02534 0.0
C258 C 0.64627 0.39992 0.0004 0.0
C259 C 0.62667 0.4021 0.97001 0.0
C260 C 0.59465 0.41838 0.97045 0.0
C261 C 0.58207 0.43287 0.00214 0.0
C262 C 0.60164 0.43066 0.03305 0.0
C263 C 0.6335 0.41433 0.03187 0.0
C264 C 0.57442 0.4205 0.93706 0.0
C265 C 0.58903 0.44591 0.06738 0.0
C266 C 0.54067 0.59707 0.00349 0.0
C267 C 0.51032 0.61333 0.01372 0.0
C268 C 0.48162 0.59409 0.02267 0.0
C269 C 0.48288 0.55759 0.02085 0.0
C270 C 0.45448 0.53741 0.02965 0.0
C271 C 0.45614 0.50153 0.0283 0.0
C272 C 0.48638 0.48437 0.01853 0.0
C273 C 0.48861 0.44787 0.01789 0.0
C274 C 0.51975 0.43174 0.0105 0.0
C275 C 0.54881 0.45109 0.00331 0.0
C276 C 0.54657 0.48747 0.00164 0.0
C277 C 0.57494 0.50754 0.99268 0.0
C278 C 0.57288 0.5434 0.99249 0.0
C279 C 0.54256 0.5606 0.002 0.0
C280 C 0.51352 0.54083 0.01064 0.0
C281 C 0.51539 0.5042 0.0099 0.0
C282 C 0.32654 0.39393 0.08238 0.0
C283 C 0.34056 0.37753 0.0486 0.0
O284 O 0.6599 0.67238 0.9721 0.0
O285 O 0.67721 0.38405 0.99808 0.0
O286 O 0.37406 0.36763 0.05386 0.0
O287 O 0.3621 0.65516 0.07874 0.0
H288 H 0.64871 0.70118 0.9287 0.0
H289 H 0.66235 0.64139 0.90791 0.0
H290 H 0.70395 0.64371 0.92683 0.0
H291 H 0.6927 0.67133 0.89056 0.0
H292 H 0.64435 0.64743 0.03227 0.0
H293 H 0.60807 0.66079 0.92717 0.0
H294 H 0.56571 0.61924 0.06892 0.0
H295 H 0.61096 0.62125 0.07628 0.0
H296 H 0.59216 0.5829 0.0579 0.0
H297 H 0.5567 0.63811 0.90768 0.0
H298 H 0.52435 0.63736 0.9415 0.0
H299 H 0.54568 0.59816 0.92899 0.0
H300 H 0.32867 0.6267 0.0488 0.0
H301 H 0.28381 0.62632 0.09435 0.0
H302 H 0.30955 0.65301 0.12274 0.0
H303 H 0.32346 0.60995 0.11095 0.0
H304 H 0.37226 0.63984 0.01084 0.0
H305 H 0.41698 0.64377 0.11299 0.0
H306 H 0.4488 0.62212 0.9635 0.0
H307 H 0.40296 0.62145 0.96066 0.0
H308 H 0.42635 0.58283 0.97154 0.0
H309 H 0.47201 0.6227 0.12427 0.0
H310 H 0.50078 0.62993 0.08803 0.0
H311 H 0.48512 0.58736 0.09605 0.0
H312 H 0.33878 0.39725 0.02755 0.0
H313 H 0.38565 0.39487 0.99111 0.0
H314 H 0.42472 0.38002 0.09455 0.0
H315 H 0.43414 0.462 0.96527 0.0
H316 H 0.41691 0.42295 0.94682 0.0
H317 H 0.46214 0.42715 0.95332 0.0
H318 H 0.47434 0.40775 0.11439 0.0
H319 H 0.48862 0.44505 0.09032 0.0
H320 H 0.50627 0.40327 0.08052 0.0
H321 H 0.68499 0.37083 0.04952 0.0
H322 H 0.74006 0.40358 0.05373 0.0
H323 H 0.70459 0.43095 0.04326 0.0
H324 H 0.73422 0.41874 0.00934 0.0
H325 H 0.63662 0.39102 0.94583 0.0
H326 H 0.64816 0.41331 0.0557 0.0
H327 H 0.5691 0.44797 0.93082 0.0
H328 H 0.54959 0.40752 0.94078 0.0
H329 H 0.58791 0.4083 0.91442 0.0
H330 H 0.60619 0.43992 0.08958 0.0
H331 H 0.56332 0.43594 0.07364 0.0
H332 H 0.58692 0.47439 0.06499 0.0
H333 H 0.50924 0.6413 0.01543 0.0
H334 H 0.4306 0.54911 0.03772 0.0
H335 H 0.43349 0.48742 0.03546 0.0
H336 H 0.52168 0.4038 0.0116 0.0
H337 H 0.59907 0.49572 0.98563 0.0
H338 H 0.59555 0.55745 0.9853 0.0
H339 H 0.32767 0.37528 0.1044 0.0
H340 H 0.34184 0.41693 0.08943 0.0
H341 H 0.29977 0.40238 0.07872 0.0
C342 C 0.02216 0.09854 0.90787 0.0
C343 C 0.0194 0.10084 0.07772 0.0
C344 C 0.02361 0.93097 0.90907 0.0
C345 C 0.02552 0.93319 0.07908 0.0
C346 C 0.10468 0.93117 0.99501 0.0
C347 C 0.10601 0.09861 0.99336 0.0
C348 C 0.93983 0.93349 0.99233 0.0
C349 C 0.9416 0.10049 0.99254 0.0
C350 C 0.94116 0.01825 0.08003 0.0
C351 C 0.10581 0.01562 0.07782 0.0
C352 C 0.94016 0.01866 0.90992 0.0
C353 C 0.10522 0.01236 0.90759 0.0
Eu354 Eu 0.0237 0.08096 0.99291 0.0
O355 O 0.05388 0.04677 0.02453 0.0
O356 O 0.99324 0.0461 0.96276 0.0
Eu357 Eu 0.08744 0.01515 0.9929 0.0
Eu358 Eu 0.95893 0.0167 0.9947 0.0
O359 O 0.05371 0.04584 0.96133 0.0
O360 O 0.99353 0.04723 0.02485 0.0
Eu361 Eu 0.02278 0.01501 0.9269 0.0
Eu362 Eu 0.02339 0.01682 0.06017 0.0
O363 O 0.05276 0.98457 0.96236 0.0
O364 O 0.05278 0.98557 0.02429 0.0
O365 O 0.99255 0.98562 0.02595 0.0
O366 O 0.99241 0.98521 0.96281 0.0
Eu367 Eu 0.02241 0.95059 0.99398 0.0
O368 O 0.02287 0.10929 0.9412 0.0
O369 O 0.02039 0.11064 0.0442 0.0
O370 O 0.02388 0.92104 0.94255 0.0
O371 O 0.02416 0.92244 0.04577 0.0
O372 O 0.11535 0.96384 0.99483 0.0
O373 O 0.11637 0.0657 0.99351 0.0
O374 O 0.93001 0.96652 0.99257 0.0
O375 O 0.9309 0.06798 0.99531 0.0
O376 O 0.97356 0.01789 0.09018 0.0
O377 O 0.07358 0.01755 0.08888 0.0
O378 O 0.97225 0.01641 0.89834 0.0
O379 O 0.0729 0.01375 0.89718 0.0
O380 O 0.97198 0.92225 0.99349 0.0
O381 O 0.07231 0.92108 0.99416 0.0
O382 O 0.97395 0.11046 0.99066 0.0
O383 O 0.07374 0.10936 0.99292 0.0
O384 O 0.02104 0.06826 0.08894 0.0
O385 O 0.02508 0.96612 0.08979 0.0
O386 O 0.02243 0.06562 0.8972 0.0
O387 O 0.02256 0.96361 0.89799 0.0
O388 O 0.11569 0.01242 0.94087 0.0
O389 O 0.11604 0.01417 0.04434 0.0
O390 O 0.9304 0.01918 0.94353 0.0
O391 O 0.93054 0.01747 0.0468 0.0
C392 C 0.94948 0.3017 0.31853 0.0
C393 C 0.93644 0.33373 0.30763 0.0
C394 C 0.95927 0.27663 0.29389 0.0
C395 C 0.94838 0.25146 0.2006 0.0
H396 H 0.02886 0.1957 0.21713 0.0
C397 C 0.00581 0.16219 0.09417 0.0
C398 C 0.01404 0.12835 0.10449 0.0
C399 C 0.99775 0.18749 0.11917 0.0
C400 C 0.0062 0.21092 0.21231 0.0
H401 H 0.92342 0.36458 0.26239 0.0
H402 H 0.94121 0.32117 0.21927 0.0
H403 H 0.01161 0.23944 0.26018 0.0
H404 H 0.02124 0.09502 0.14949 0.0
H405 H 0.00733 0.1394 0.1931 0.0
H406 H 0.94327 0.22316 0.15253 0.0
C407 C 0.94331 0.31512 0.24688 0.0
C408 C 0.99622 0.23592 0.237 0.0
C409 C 0.93331 0.34011 0.27155 0.0
C410 C 0.01501 0.12076 0.14054 0.0
C411 C 0.00717 0.1462 0.16557 0.0
C412 C 0.9585 0.22667 0.17583 0.0
C413 C 0.95644 0.28307 0.25774 0.0
C414 C 0.96716 0.25649 0.23147 0.0
C415 C 0.99793 0.17967 0.1551 0.0
C416 C 0.9875 0.20614 0.18142 0.0
H417 H 0.95216 0.2961 0.34619 0.0
H418 H 0.96875 0.25206 0.30322 0.0
H419 H 0.92552 0.26635 0.19576 0.0
H420 H 0.00476 0.16909 0.06669 0.0
H421 H 0.99117 0.2132 0.11035 0.0
C422 C 0.73103 0.06988 0.31525 0.0
C423 C 0.72731 0.04135 0.33755 0.0
C424 C 0.75152 0.06754 0.2852 0.0
C425 C 0.79184 0.00589 0.22328 0.0
H426 H 0.85709 0.07918 0.20874 0.0
C427 C 0.88067 0.01321 0.10107 0.0
C428 C 0.91495 0.02048 0.10811 0.0
C429 C 0.85606 0.01588 0.12767 0.0
C430 C 0.83902 0.05851 0.21248 0.0
H431 H 0.74153 0.98783 0.34544 0.0
H432 H 0.77713 0.98364 0.29276 0.0
H433 H 0.81651 0.08337 0.25735 0.0
H434 H 0.95009 0.03656 0.1487 0.0
H435 H 0.9072 0.04129 0.19481 0.0
H436 H 0.81478 0.98083 0.17862 0.0
C437 C 0.76408 0.00776 0.29847 0.0
C438 C 0.81558 0.06107 0.24009 0.0
C439 C 0.74383 0.01019 0.32868 0.0
C440 C 0.92399 0.03056 0.14231 0.0
C441 C 0.89937 0.03357 0.16873 0.0
C442 C 0.81511 0.0035 0.19541 0.0
C443 C 0.76851 0.03654 0.27666 0.0
C444 C 0.79198 0.03462 0.24602 0.0
C445 C 0.86516 0.0263 0.16171 0.0
C446 C 0.83921 0.02959 0.19001 0.0
H447 H 0.71851 0.09418 0.32143 0.0
H448 H 0.7542 0.09005 0.26869 0.0
H449 H 0.77378 0.98523 0.22708 0.0
H450 H 0.87281 0.00533 0.07505 0.0
H451 H 0.82983 0.0103 0.12149 0.0
C452 C 0.06618 0.72798 0.3207 0.0
C453 C 0.08006 0.69612 0.30978 0.0
C454 C 0.05966 0.754 0.29636 0.0
C455 C 0.08247 0.78158 0.20615 0.0
H456 H 0.00209 0.83945 0.21577 0.0
C457 C 0.03805 0.87217 0.09639 0.0
C458 C 0.02921 0.90616 0.10621 0.0
C459 C 0.04352 0.84698 0.12179 0.0
C460 C 0.02478 0.82366 0.21295 0.0
H461 H 0.0978 0.66648 0.26478 0.0
H462 H 0.08559 0.71143 0.22212 0.0
H463 H 0.013 0.79435 0.25882 0.0
H464 H 0.01845 0.93999 0.15061 0.0
H465 H 0.02777 0.8957 0.19499 0.0
H466 H 0.09387 0.81054 0.15993 0.0
C467 C 0.08038 0.71668 0.24959 0.0
C468 C 0.03111 0.79787 0.23764 0.0
C469 C 0.08713 0.69078 0.27397 0.0
C470 C 0.02529 0.91412 0.14209 0.0
C471 C 0.03046 0.88874 0.16753 0.0
C472 C 0.07598 0.80713 0.18135 0.0
C473 C 0.0667 0.74869 0.26047 0.0
C474 C 0.06001 0.77642 0.23448 0.0
C475 C 0.04003 0.85503 0.15761 0.0
C476 C 0.04702 0.82835 0.18442 0.0
H477 H 0.06054 0.73281 0.34817 0.0
H478 H 0.04958 0.77846 0.30579 0.0
H479 H 0.10535 0.7661 0.20326 0.0
H480 H 0.04143 0.86503 0.06905 0.0
H481 H 0.05048 0.8211 0.11336 0.0
C482 C 0.29742 0.98313 0.32867 0.0
C483 C 0.32639 0.96306 0.32087 0.0
C484 C 0.27469 0.99221 0.30223 0.0
C485 C 0.26587 0.00057 0.20651 0.0
H486 H 0.17017 0.98559 0.22546 0.0
C487 C 0.16496 0.00099 0.09704 0.0
C488 C 0.13237 0.01396 0.1051 0.0
C489 C 0.18935 0.99747 0.12328 0.0
C490 C 0.1967 0.99053 0.21985 0.0
H491 H 0.35391 0.93615 0.27936 0.0
H492 H 0.31444 0.95247 0.233 0.0
H493 H 0.21157 0.97523 0.2714 0.0
H494 H 0.10029 0.03464 0.14686 0.0
H495 H 0.14304 0.02935 0.19236 0.0
H496 H 0.25104 0.01606 0.15499 0.0
C497 C 0.30964 0.96165 0.2595 0.0
C498 C 0.22044 0.98449 0.2462 0.0
C499 C 0.33223 0.95232 0.28601 0.0
C500 C 0.12502 0.02418 0.13981 0.0
C501 C 0.14951 0.02098 0.16596 0.0
C502 C 0.24208 0.00692 0.18019 0.0
C503 C 0.28044 0.98135 0.26742 0.0
C504 C 0.25528 0.98922 0.23975 0.0
C505 C 0.18184 0.00713 0.15815 0.0
C506 C 0.20719 0.00174 0.18646 0.0
H507 H 0.29204 0.99127 0.3554 0.0
H508 H 0.25248 0.00755 0.30906 0.0
H509 H 0.29255 0.00477 0.20093 0.0
H510 H 0.17139 0.9926 0.07063 0.0
H511 H 0.21378 0.98624 0.11636 0.0
C512 C 0.06077 0.73638 0.65769 0.0
C513 C 0.07946 0.70611 0.66417 0.0
C514 C 0.05124 0.75842 0.68527 0.0
C515 C 0.07613 0.78111 0.77594 0.0
H516 H 0.99185 0.83356 0.77564 0.0
C517 C 0.03623 0.86985 0.89111 0.0
C518 C 0.02574 0.90339 0.882 0.0
C519 C 0.04014 0.84425 0.8654 0.0
C520 C 0.01554 0.81916 0.77594 0.0
H521 H 0.10293 0.67521 0.70471 0.0
H522 H 0.0852 0.71286 0.75301 0.0
H523 H 0.00283 0.79064 0.72961 0.0
H524 H 0.01013 0.93594 0.83876 0.0
H525 H 0.01682 0.89105 0.79392 0.0
H526 H 0.08871 0.80954 0.82235 0.0
C527 C 0.07825 0.71991 0.72656 0.0
C528 C 0.0219 0.79463 0.74956 0.0
C529 C 0.08806 0.69807 0.69892 0.0
C530 C 0.01841 0.91045 0.84668 0.0
C531 C 0.02201 0.8847 0.82101 0.0
C532 C 0.06962 0.80535 0.80244 0.0
C533 C 0.06023 0.75069 0.72004 0.0
C534 C 0.05242 0.77549 0.74906 0.0
C535 C 0.03334 0.85148 0.83006 0.0
C536 C 0.03939 0.82481 0.80258 0.0
H537 H 0.05441 0.74351 0.63108 0.0
H538 H 0.03793 0.78214 0.67912 0.0
H539 H 0.10022 0.76745 0.77606 0.0
H540 H 0.04219 0.86346 0.91802 0.0
H541 H 0.04863 0.81877 0.87316 0.0
C542 C 0.2828 0.97084 0.64704 0.0
C543 C 0.31085 0.94858 0.65058 0.0
C544 C 0.26384 0.98126 0.67644 0.0
C545 C 0.24458 0.95398 0.76743 0.0
H546 H 0.19994 0.04343 0.773 0.0
C547 C 0.16423 0.99668 0.88765 0.0
C548 C 0.13165 0.00952 0.87983 0.0
C549 C 0.1885 0.99198 0.86106 0.0
C550 C 0.21223 0.01834 0.77171 0.0
H551 H 0.34103 0.91974 0.68787 0.0
H552 H 0.30896 0.93906 0.73932 0.0
H553 H 0.23904 0.03082 0.72448 0.0
H554 H 0.09947 0.02857 0.83806 0.0
H555 H 0.14204 0.02063 0.79177 0.0
H556 H 0.21783 0.94168 0.8148 0.0
C557 C 0.30118 0.94811 0.71375 0.0
C558 C 0.23454 0.01102 0.74387 0.0
C559 C 0.31989 0.93736 0.68429 0.0
C560 C 0.12425 0.01845 0.84498 0.0
C561 C 0.14868 0.01415 0.81848 0.0
C562 C 0.2226 0.96146 0.79544 0.0
C563 C 0.27252 0.9697 0.71017 0.0
C564 C 0.25067 0.97856 0.7411 0.0
C565 C 0.18089 0.00043 0.82618 0.0
C566 C 0.20588 0.99353 0.79764 0.0
H567 H 0.2749 0.97931 0.6213 0.0
H568 H 0.24162 0.99734 0.67246 0.0
H569 H 0.25594 0.92848 0.76591 0.0
H570 H 0.17077 0.98944 0.91418 0.0
H571 H 0.21322 0.98157 0.86775 0.0
C572 C 0.97187 0.28753 0.65736 0.0
C573 C 0.95288 0.31749 0.66501 0.0
C574 C 0.98311 0.26607 0.68431 0.0
C575 C 0.96281 0.24436 0.77654 0.0
H576 H 0.04773 0.19317 0.77108 0.0
C577 C 0.00931 0.15928 0.88987 0.0
C578 C 0.01936 0.1255 0.8806 0.0
C579 C 0.00417 0.18418 0.8641 0.0
C580 C 0.0239 0.20723 0.77283 0.0
H581 H 0.93072 0.34847 0.70702 0.0
H582 H 0.95149 0.31193 0.75409 0.0
H583 H 0.0339 0.23499 0.72551 0.0
H584 H 0.03308 0.09182 0.83693 0.0
H585 H 0.0243 0.13556 0.79191 0.0
H586 H 0.95296 0.21676 0.82395 0.0
C587 C 0.95732 0.30462 0.72723 0.0
C588 C 0.01589 0.23112 0.74671 0.0
C589 C 0.94577 0.32585 0.70027 0.0
C590 C 0.02519 0.11753 0.84498 0.0
C591 C 0.02038 0.14261 0.8192 0.0
C592 C 0.97098 0.2208 0.80277 0.0
C593 C 0.97559 0.27409 0.71959 0.0
C594 C 0.98512 0.24984 0.74812 0.0
C595 C 0.00928 0.17602 0.82849 0.0
C596 C 0.00148 0.20184 0.80109 0.0
H597 H 0.97712 0.28016 0.63038 0.0
H598 H 0.99658 0.24252 0.67732 0.0
H599 H 0.93855 0.25764 0.77817 0.0
H600 H 0.0045 0.16637 0.91701 0.0
H601 H 0.99593 0.20983 0.87202 0.0
C602 C 0.69366 0.05918 0.7179 0.0
C603 C 0.67434 0.02877 0.71828 0.0
C604 C 0.72623 0.05965 0.73231 0.0
C605 C 0.7964 0.00344 0.76385 0.0
H606 H 0.81325 0.07943 0.82803 0.0
C607 C 0.91887 0.01392 0.84788 0.0
C608 C 0.9128 0.02154 0.88354 0.0
C609 C 0.8926 0.01667 0.8234 0.0
C610 C 0.80896 0.0581 0.8101 0.0
H611 H 0.67407 0.97503 0.73366 0.0
H612 H 0.73083 0.97581 0.75889 0.0
H613 H 0.76243 0.08013 0.7919 0.0
H614 H 0.87439 0.03857 0.92122 0.0
H615 H 0.82901 0.04321 0.87876 0.0
H616 H 0.84239 0.98083 0.78323 0.0
C617 C 0.72113 0.99913 0.74692 0.0
C618 C 0.78003 0.05867 0.78912 0.0
C619 C 0.68855 0.9987 0.73262 0.0
C620 C 0.88005 0.03228 0.89405 0.0
C621 C 0.85402 0.0353 0.86963 0.0
C622 C 0.82547 0.00296 0.78476 0.0
C623 C 0.74012 0.02975 0.74747 0.0
C624 C 0.773 0.03098 0.76634 0.0
C625 C 0.85994 0.02751 0.83407 0.0
C626 C 0.83158 0.0299 0.80873 0.0
H627 H 0.68318 0.0828 0.70727 0.0
H628 H 0.74034 0.08358 0.73213 0.0
H629 H 0.79185 0.98191 0.74626 0.0
H630 H 0.94378 0.00555 0.8389 0.0
H631 H 0.89789 0.01059 0.79611 0.0
C632 C 0.3259 0.31372 0.05223 0.0
C633 C 0.31929 0.34667 0.0384 0.0
C634 C 0.30446 0.28604 0.04464 0.0
C635 C 0.21649 0.26767 0.02177 0.0
H636 H 0.25045 0.17722 0.99417 0.0
C637 C 0.12478 0.15935 0.9834 0.0
C638 C 0.13233 0.12571 0.99464 0.0
C639 C 0.14876 0.18557 0.98642 0.0
C640 C 0.24055 0.20219 0.00227 0.0
H641 H 0.28465 0.37659 0.00663 0.0
H642 H 0.24703 0.32826 0.99352 0.0
H643 H 0.29036 0.22433 0.00414 0.0
H644 H 0.17123 0.09308 0.01744 0.0
H645 H 0.21282 0.13909 0.02367 0.0
H646 H 0.16689 0.24571 0.02101 0.0
C647 C 0.26903 0.32381 0.00986 0.0
C648 C 0.26342 0.22917 0.00785 0.0
C649 C 0.29064 0.35137 0.01714 0.0
C650 C 0.1647 0.1187 0.00833 0.0
C651 C 0.1886 0.14509 0.01178 0.0
C652 C 0.19368 0.24069 0.01658 0.0
C653 C 0.2756 0.29092 0.0237 0.0
C654 C 0.25157 0.2622 0.01752 0.0
C655 C 0.18078 0.17898 0.00123 0.0
C656 C 0.20535 0.20761 0.00661 0.0
H657 H 0.34733 0.30947 0.06939 0.0
H658 H 0.30984 0.26107 0.05606 0.0
H659 H 0.20668 0.29271 0.02981 0.0
H660 H 0.10024 0.16551 0.97227 0.0
H661 H 0.1421 0.2111 0.9772 0.0
C662 C 0.3189 0.71238 0.0682 0.0
C663 C 0.31089 0.67921 0.05566 0.0
C664 C 0.29967 0.74106 0.05814 0.0
C665 C 0.23384 0.7702 0.99449 0.0
H666 H 0.21494 0.83908 0.06644 0.0
C667 C 0.12355 0.86957 0.98784 0.0
C668 C 0.13093 0.90379 0.99756 0.0
C669 C 0.14778 0.84341 0.99202 0.0
C670 C 0.22031 0.82027 0.04595 0.0
H671 H 0.27612 0.65004 0.02345 0.0
H672 H 0.24188 0.69984 0.00662 0.0
H673 H 0.25307 0.79115 0.07915 0.0
H674 H 0.16968 0.93738 0.01899 0.0
H675 H 0.21176 0.89153 0.02666 0.0
H676 H 0.19984 0.79894 0.96184 0.0
C677 C 0.26374 0.70401 0.02318 0.0
C678 C 0.24231 0.79282 0.05315 0.0
C679 C 0.28324 0.6754 0.0329 0.0
C680 C 0.16322 0.91134 0.01108 0.0
C681 C 0.18726 0.88508 0.01569 0.0
C682 C 0.2115 0.79747 0.98746 0.0
C683 C 0.27148 0.7372 0.03596 0.0
C684 C 0.24927 0.7673 0.02757 0.0
C685 C 0.17969 0.85083 0.00644 0.0
C686 C 0.20443 0.82268 0.01318 0.0
H687 H 0.3397 0.71614 0.08626 0.0
H688 H 0.30673 0.76624 0.06811 0.0
H689 H 0.23901 0.75141 0.97394 0.0
H690 H 0.09897 0.86292 0.97719 0.0
H691 H 0.14119 0.81717 0.98491 0.0
C692 C 0.74494 0.34856 0.98738 0.0
C693 C 0.7219 0.34692 0.01572 0.0
C694 C 0.76728 0.32113 0.98037 0.0
C695 C 0.78101 0.22869 0.99271 0.0
H696 H 0.87698 0.25067 0.9938 0.0
C697 C 0.88365 0.12318 0.00755 0.0
C698 C 0.9154 0.12787 0.99133 0.0
C699 C 0.85919 0.14948 0.00713 0.0
C700 C 0.85034 0.244 0.99265 0.0
H701 H 0.70264 0.31428 0.05732 0.0
H702 H 0.74112 0.26606 0.04446 0.0
H703 H 0.83499 0.29701 0.99732 0.0
H704 H 0.9461 0.16318 0.96084 0.0
H705 H 0.90308 0.20851 0.95886 0.0
H706 H 0.79604 0.17578 0.98748 0.0
C707 C 0.74225 0.28885 0.02815 0.0
C708 C 0.82631 0.27062 0.99481 0.0
C709 C 0.72037 0.31649 0.03558 0.0
C710 C 0.92199 0.15904 0.97402 0.0
C711 C 0.89733 0.1851 0.97303 0.0
C712 C 0.80501 0.20205 0.98992 0.0
C713 C 0.76632 0.2912 0.00095 0.0
C714 C 0.79148 0.26316 0.99541 0.0
C715 C 0.86571 0.18084 0.98991 0.0
C716 C 0.84004 0.20929 0.99046 0.0
H717 H 0.74616 0.37134 0.97111 0.0
H718 H 0.78542 0.32333 0.959 0.0
H719 H 0.75423 0.22236 0.99284 0.0
H720 H 0.87796 0.0995 0.02131 0.0
H721 H 0.83548 0.14541 0.02102 0.0
C722 C 0.72764 0.7024 0.96672 0.0
C723 C 0.69844 0.71265 0.94833 0.0
C724 C 0.75418 0.72559 0.97233 0.0
C725 C 0.78893 0.80823 0.93896 0.0
H726 H 0.83988 0.80732 0.02573 0.0
C727 C 0.88016 0.9172 0.9776 0.0
C728 C 0.91263 0.90737 0.98929 0.0
C729 C 0.85469 0.89268 0.97323 0.0
C730 C 0.82603 0.80763 0.00126 0.0
H731 H 0.67392 0.7554 0.92203 0.0
H732 H 0.71957 0.79622 0.93281 0.0
H733 H 0.79356 0.76645 0.01736 0.0
H734 H 0.94348 0.86401 0.00622 0.0
H735 H 0.89856 0.82114 0.99898 0.0
H736 H 0.82093 0.84998 0.92331 0.0
C737 C 0.72248 0.77002 0.94211 0.0
C738 C 0.79954 0.78418 0.99638 0.0
C739 C 0.69613 0.74673 0.93619 0.0
C740 C 0.91881 0.87244 0.99708 0.0
C741 C 0.89308 0.84792 0.99311 0.0
C742 C 0.81511 0.83187 0.94403 0.0
C743 C 0.75202 0.75968 0.95995 0.0
C744 C 0.78053 0.78428 0.9652 0.0
C745 C 0.8609 0.8578 0.98079 0.0
C746 C 0.83383 0.83191 0.97526 0.0
H747 H 0.73009 0.67626 0.97635 0.0
H748 H 0.77665 0.71653 0.98577 0.0
H749 H 0.77547 0.80859 0.91428 0.0
H750 H 0.87448 0.94381 0.97118 0.0
H751 H 0.83001 0.90106 0.96404 0.0
loop_
_geom_bond_atom_site_label_1
_geom_bond_atom_site_label_2
_geom_bond_distance
_geom_bond_site_symmetry_2
_ccdc_geom_bond_type
C0 C1 1.560 . S
C0 H61 0.959 . S
C0 H62 0.959 . S
C0 H63 0.960 . S
C1 C0 1.560 . S
C1 O56 1.426 . S
C1 H60 0.980 . S
C2 C3 1.407 . S
C2 C7 1.418 . S
C2 O56 1.334 . S
C3 C2 1.407 . S
C3 C4 1.360 1_455 S
C3 H64 0.929 1_455 S
C4 C3 1.360 1_655 S
C4 C5 1.401 1_655 S
C4 C8 1.527 . S
C5 C4 1.401 1_455 S
C5 C6 1.405 . S
C5 C38 1.587 . S
C6 C5 1.405 . S
C6 C7 1.332 . S
C6 C9 1.496 . S
C7 C2 1.418 . S
C7 C6 1.332 . S
C7 H65 0.929 . S
C8 C4 1.527 . S
C8 H66 0.959 . S
C8 H67 0.961 . S
C8 H68 0.961 . S
C9 C6 1.496 . S
C9 H69 0.960 . S
C9 H70 0.960 . S
C9 H71 0.961 . S
C10 C11 1.513 1_655 S
C10 H73 0.961 1_655 S
C10 H74 0.960 . S
C10 H75 0.959 . S
C11 C10 1.513 1_455 S
C11 O59 1.456 1_455 S
C11 H72 0.987 . S
C12 C13 1.349 1_655 S
C12 C17 1.367 . S
C12 O59 1.408 . S
C13 C12 1.349 1_455 S
C13 C14 1.407 . S
C13 H76 0.930 . S
C14 C13 1.407 . S
C14 C15 1.449 1_455 S
C14 C18 1.535 . S
C15 C14 1.449 1_655 S
C15 C16 1.384 . S
C15 C40 1.553 . S
C16 C15 1.384 . S
C16 C17 1.364 . S
C16 C19 1.450 . S
C17 C12 1.367 . S
C17 C16 1.364 . S
C17 H77 0.931 . S
C18 C14 1.535 . S
C18 H78 0.959 . S
C18 H79 0.961 . S
C18 H80 0.959 . S
C19 C16 1.450 . S
C19 H81 0.960 . S
C19 H82 0.960 . S
C19 H83 0.960 . S
C20 C21 1.309 1_655 S
C20 C25 1.304 . S
C20 O58 1.435 . S
C21 C20 1.309 1_455 S
C21 C22 1.476 . S
C21 H85 0.930 . S
C22 C21 1.476 . S
C22 C23 1.400 1_455 S
C22 C26 1.567 . S
C23 C22 1.400 1_655 S
C23 C24 1.373 . S
C23 C45 1.432 . S
C24 C23 1.373 . S
C24 C25 1.339 . S
C24 C27 1.530 . S
C25 C20 1.304 . S
C25 C24 1.339 . S
C25 H86 0.930 . S
C26 C22 1.567 . S
C26 H87 0.961 . S
C26 H88 0.960 . S
C26 H89 0.958 . S
C27 C24 1.530 . S
C27 H90 0.961 . S
C27 H91 0.960 . S
C27 H92 0.960 . S
C28 C29 1.530 . S
C28 H94 0.961 . S
C28 H95 0.961 . S
C28 H96 0.959 . S
C29 C28 1.530 . S
C29 O57 1.412 . S
C29 H93 0.980 . S
C30 C31 1.288 . S
C30 C35 1.377 . S
C30 O57 1.393 . S
C31 C30 1.288 . S
C31 C32 1.369 . S
C31 H97 0.932 . S
C32 C31 1.369 . S
C32 C33 1.398 . S
C32 C36 1.527 . S
C33 C32 1.398 . S
C33 C34 1.380 1_455 S
C33 C47 1.497 . S
C34 C33 1.380 1_655 S
C34 C35 1.383 1_655 S
C34 C37 1.603 . S
C35 C30 1.377 . S
C35 C34 1.383 1_455 S
C35 H98 0.929 1_455 S
C36 C32 1.527 . S
C36 H99 0.961 . S
C36 H100 0.959 . S
C36 H101 0.959 . S
C37 C34 1.603 . S
C37 H102 0.960 . S
C37 H103 0.962 . S
C37 H104 0.961 . S
C38 C5 1.587 . S
C38 C39 1.360 1_455 S
C38 C51 1.412 . S
C39 C38 1.360 1_655 S
C39 C40 1.365 . S
C39 H105 0.929 . S
C40 C15 1.553 . S
C40 C39 1.365 . S
C40 C41 1.404 . S
C41 C40 1.404 . S
C41 C42 1.395 . S
C41 C52 1.451 . S
C42 C41 1.395 . S
C42 C43 1.322 . S
C42 H106 0.930 . S
C43 C42 1.322 . S
C43 C44 1.459 . S
C43 H107 0.929 . S
C44 C43 1.459 . S
C44 C45 1.445 . S
C44 C53 1.396 . S
C45 C23 1.432 . S
C45 C44 1.445 . S
C45 C46 1.371 1_655 S
C46 C45 1.371 1_455 S
C46 C47 1.438 . S
C46 H108 0.930 . S
C47 C33 1.497 . S
C47 C46 1.438 . S
C47 C48 1.360 . S
C48 C47 1.360 . S
C48 C49 1.401 . S
C48 C53 1.444 1_455 S
C49 C48 1.401 . S
C49 C50 1.347 . S
C49 H109 0.929 . S
C50 C49 1.347 . S
C50 C51 1.455 . S
C50 H110 0.930 . S
C51 C38 1.412 . S
C51 C50 1.455 . S
C51 C52 1.331 1_455 S
C52 C41 1.451 . S
C52 C51 1.331 1_655 S
C52 C53 1.497 . S
C53 C44 1.396 . S
C53 C48 1.444 1_655 S
C53 C52 1.497 . S
C54 C55 1.582 1_655 S
C54 H111 0.962 1_655 S
C54 H112 0.959 . S
C54 H113 0.958 . S
C55 C54 1.582 1_455 S
C55 O58 1.458 1_455 S
C55 H84 0.980 . S
O56 C1 1.426 . S
O56 C2 1.334 . S
O57 C29 1.412 . S
O57 C30 1.393 . S
O58 C20 1.435 . S
O58 C55 1.458 1_655 S
O59 C11 1.456 1_655 S
O59 C12 1.408 . S
H60 C1 0.980 . S
H61 C0 0.959 . S
H62 C0 0.959 . S
H63 C0 0.960 . S
H64 C3 0.929 1_655 S
H65 C7 0.929 . S
H66 C8 0.959 . S
H67 C8 0.961 . S
H68 C8 0.961 . S
H69 C9 0.960 . S
H70 C9 0.960 . S
H71 C9 0.961 . S
H72 C11 0.987 . S
H73 C10 0.961 1_455 S
H74 C10 0.960 . S
H75 C10 0.959 . S
H76 C13 0.930 . S
H77 C17 0.931 . S
H78 C18 0.959 . S
H79 C18 0.961 . S
H80 C18 0.959 . S
H81 C19 0.960 . S
H82 C19 0.960 . S
H83 C19 0.960 . S
H84 C55 0.980 . S
H85 C21 0.930 . S
H86 C25 0.930 . S
H87 C26 0.961 . S
H88 C26 0.960 . S
H89 C26 0.958 . S
H90 C27 0.961 . S
H91 C27 0.960 . S
H92 C27 0.960 . S
H93 C29 0.980 . S
H94 C28 0.961 . S
H95 C28 0.961 . S
H96 C28 0.959 . S
H97 C31 0.932 . S
H98 C35 0.929 1_655 S
H99 C36 0.961 . S
H100 C36 0.959 . S
H101 C36 0.959 . S
H102 C37 0.960 . S
H103 C37 0.962 . S
H104 C37 0.961 . S
H105 C39 0.929 . S
H106 C42 0.930 . S
H107 C43 0.929 . S
H108 C46 0.930 . S
H109 C49 0.929 . S
H110 C50 0.930 . S
H111 C54 0.962 1_455 S
H112 C54 0.959 . S
H113 C54 0.958 . S
C114 C115 1.560 . S
C114 H175 0.959 . S
C114 H176 0.959 . S
C114 H177 0.960 . S
C115 C114 1.560 . S
C115 O170 1.426 . S
C115 H174 0.980 . S
C116 C117 1.375 1_545 S
C116 C121 1.418 . S
C116 O170 1.334 . S
C117 C116 1.375 1_565 S
C117 C118 1.371 . S
C117 H178 0.950 . S
C118 C117 1.371 . S
C118 C119 1.401 1_565 S
C118 C122 1.527 . S
C119 C118 1.401 1_545 S
C119 C120 1.405 . S
C119 C152 1.587 1_545 S
C120 C119 1.405 . S
C120 C121 1.332 . S
C120 C123 1.496 . S
C121 C116 1.418 . S
C121 C120 1.332 . S
C121 H179 0.929 . S
C122 C118 1.527 . S
C122 H180 0.959 . S
C122 H181 0.961 . S
C122 H182 0.961 . S
C123 C120 1.496 . S
C123 H183 0.960 . S
C123 H184 0.960 . S
C123 H185 0.961 . S
C124 C125 1.517 . S
C124 H187 0.961 1_565 S
C124 H188 0.960 . S
C124 H189 0.959 . S
C125 C124 1.517 . S
C125 O173 1.468 . S
C125 H186 0.980 1_565 S
C126 C127 1.349 1_565 S
C126 C131 1.367 . S
C126 O173 1.408 . S
C127 C126 1.349 1_545 S
C127 C128 1.407 . S
C127 H190 0.930 . S
C128 C127 1.407 . S
C128 C129 1.449 1_545 S
C128 C132 1.535 . S
C129 C128 1.449 1_565 S
C129 C130 1.384 . S
C129 C154 1.553 . S
C130 C129 1.384 . S
C130 C131 1.364 . S
C130 C133 1.450 . S
C131 C126 1.367 . S
C131 C130 1.364 . S
C131 H191 0.931 . S
C132 C128 1.535 . S
C132 H192 0.959 . S
C132 H193 0.961 . S
C132 H194 0.959 . S
C133 C130 1.450 . S
C133 H195 0.960 . S
C133 H196 0.960 . S
C133 H197 0.960 . S
C134 C135 1.309 1_565 S
C134 C139 1.304 . S
C134 O172 1.435 . S
C135 C134 1.309 1_545 S
C135 C136 1.476 . S
C135 H199 0.930 . S
C136 C135 1.476 . S
C136 C137 1.400 1_545 S
C136 C140 1.567 . S
C137 C136 1.400 1_565 S
C137 C138 1.373 . S
C137 C159 1.432 . S
C138 C137 1.373 . S
C138 C139 1.339 . S
C138 C141 1.530 . S
C139 C134 1.304 . S
C139 C138 1.339 . S
C139 H200 0.930 . S
C140 C136 1.567 . S
C140 H201 0.961 . S
C140 H202 0.960 . S
C140 H203 0.958 . S
C141 C138 1.530 . S
C141 H204 0.961 . S
C141 H205 0.960 . S
C141 H206 0.960 . S
C142 C143 1.530 . S
C142 H208 0.961 . S
C142 H209 0.961 . S
C142 H210 0.959 . S
C143 C142 1.530 . S
C143 O171 1.412 . S
C143 H207 0.980 . S
C144 C145 1.288 . S
C144 C149 1.356 1_545 S
C144 O171 1.393 . S
C145 C144 1.288 . S
C145 C146 1.369 . S
C145 H211 0.932 . S
C146 C145 1.369 . S
C146 C147 1.398 . S
C146 C150 1.527 . S
C147 C146 1.398 . S
C147 C148 1.380 1_545 S
C147 C161 1.497 . S
C148 C147 1.380 1_565 S
C148 C149 1.389 . S
C148 C151 1.603 . S
C149 C144 1.356 1_565 S
C149 C148 1.389 . S
C149 H212 0.943 . S
C150 C146 1.527 . S
C150 H213 0.961 . S
C150 H214 0.959 . S
C150 H215 0.959 . S
C151 C148 1.603 . S
C151 H216 0.960 . S
C151 H217 0.962 . S
C151 H218 0.961 . S
C152 C119 1.587 1_565 S
C152 C153 1.360 . S
C152 C165 1.412 . S
C153 C152 1.360 . S
C153 C154 1.365 . S
C153 H219 0.929 . S
C154 C129 1.553 . S
C154 C153 1.365 . S
C154 C155 1.404 . S
C155 C154 1.404 . S
C155 C156 1.395 . S
C155 C166 1.451 . S
C156 C155 1.395 . S
C156 C157 1.322 . S
C156 H220 0.930 . S
C157 C156 1.322 . S
C157 C158 1.459 . S
C157 H221 0.929 . S
C158 C157 1.459 . S
C158 C159 1.445 . S
C158 C167 1.395 . S
C159 C137 1.432 . S
C159 C158 1.445 . S
C159 C160 1.370 1_565 S
C160 C159 1.370 1_545 S
C160 C161 1.438 . S
C160 H222 0.930 . S
C161 C147 1.497 . S
C161 C160 1.438 . S
C161 C162 1.360 . S
C162 C161 1.360 . S
C162 C163 1.401 . S
C162 C167 1.446 1_545 S
C163 C162 1.401 . S
C163 C164 1.347 . S
C163 H223 0.929 . S
C164 C163 1.347 . S
C164 C165 1.455 1_545 S
C164 H224 0.930 . S
C165 C152 1.412 . S
C165 C164 1.455 1_565 S
C165 C166 1.331 . S
C166 C155 1.451 . S
C166 C165 1.331 . S
C166 C167 1.497 . S
C167 C158 1.395 . S
C167 C162 1.446 1_565 S
C167 C166 1.497 . S
C168 C169 1.582 1_565 S
C168 H225 0.962 1_565 S
C168 H226 0.959 . S
C168 H227 0.958 . S
C169 C168 1.582 1_545 S
C169 O172 1.458 1_545 S
C169 H198 0.980 . S
O170 C115 1.426 . S
O170 C116 1.334 . S
O171 C143 1.412 . S
O171 C144 1.393 . S
O172 C134 1.435 . S
O172 C169 1.458 1_565 S
O173 C125 1.468 . S
O173 C126 1.408 . S
H174 C115 0.980 . S
H175 C114 0.959 . S
H176 C114 0.959 . S
H177 C114 0.960 . S
H178 C117 0.950 . S
H179 C121 0.929 . S
H180 C122 0.959 . S
H181 C122 0.961 . S
H182 C122 0.961 . S
H183 C123 0.960 . S
H184 C123 0.960 . S
H185 C123 0.961 . S
H186 C125 0.980 1_545 S
H187 C124 0.961 1_545 S
H188 C124 0.960 . S
H189 C124 0.959 . S
H190 C127 0.930 . S
H191 C131 0.931 . S
H192 C132 0.959 . S
H193 C132 0.961 . S
H194 C132 0.959 . S
H195 C133 0.960 . S
H196 C133 0.960 . S
H197 C133 0.960 . S
H198 C169 0.980 . S
H199 C135 0.930 . S
H200 C139 0.930 . S
H201 C140 0.961 . S
H202 C140 0.960 . S
H203 C140 0.958 . S
H204 C141 0.961 . S
H205 C141 0.960 . S
H206 C141 0.960 . S
H207 C143 0.980 . S
H208 C142 0.961 . S
H209 C142 0.961 . S
H210 C142 0.959 . S
H211 C145 0.932 . S
H212 C149 0.943 . S
H213 C150 0.961 . S
H214 C150 0.959 . S
H215 C150 0.959 . S
H216 C151 0.960 . S
H217 C151 0.962 . S
H218 C151 0.961 . S
H219 C153 0.929 . S
H220 C156 0.930 . S
H221 C157 0.929 . S
H222 C160 0.930 . S
H223 C163 0.929 . S
H224 C164 0.930 . S
H225 C168 0.962 1_545 S
H226 C168 0.959 . S
H227 C168 0.958 . S
C228 C229 1.560 . S
C228 H289 0.959 . S
C228 H290 0.959 . S
C228 H291 0.960 . S
C229 C228 1.560 . S
C229 O284 1.426 . S
C229 H288 0.980 . S
C230 C231 1.407 1_556 S
C230 C235 1.418 . S
C230 O284 1.334 . S
C231 C230 1.407 1_554 S
C231 C232 1.360 . S
C231 H292 0.929 . S
C232 C231 1.360 . S
C232 C233 1.401 . S
C232 C236 1.527 . S
C233 C232 1.401 . S
C233 C234 1.405 1_554 S
C233 C266 1.587 . S
C234 C233 1.405 1_556 S
C234 C235 1.332 . S
C234 C237 1.496 . S
C235 C230 1.418 . S
C235 C234 1.332 . S
C235 H293 0.929 . S
C236 C232 1.527 . S
C236 H294 0.959 . S
C236 H295 0.961 . S
C236 H296 0.961 . S
C237 C234 1.496 . S
C237 H297 0.960 . S
C237 H298 0.960 . S
C237 H299 0.961 . S
C238 C239 1.517 . S
C238 H301 0.961 . S
C238 H302 0.960 . S
C238 H303 0.959 . S
C239 C238 1.517 . S
C239 O287 1.468 . S
C239 H300 0.980 . S
C240 C241 1.349 . S
C240 C245 1.367 . S
C240 O287 1.408 . S
C241 C240 1.349 . S
C241 C242 1.407 . S
C241 H304 0.930 1_554 S
C242 C241 1.407 . S
C242 C243 1.449 . S
C242 C246 1.535 1_554 S
C243 C242 1.449 . S
C243 C244 1.384 . S
C243 C268 1.553 . S
C244 C243 1.384 . S
C244 C245 1.364 . S
C244 C247 1.450 . S
C245 C240 1.367 . S
C245 C244 1.364 . S
C245 H305 0.931 . S
C246 C242 1.535 1_556 S
C246 H306 0.959 . S
C246 H307 0.961 . S
C246 H308 0.959 . S
C247 C244 1.450 . S
C247 H309 0.960 . S
C247 H310 0.960 . S
C247 H311 0.960 . S
C248 C249 1.289 1_554 S
C248 C253 1.304 . S
C248 O286 1.435 . S
C249 C248 1.289 1_556 S
C249 C250 1.479 . S
C249 H313 0.945 . S
C250 C249 1.479 . S
C250 C251 1.400 1_556 S
C250 C254 1.567 . S
C251 C250 1.400 1_554 S
C251 C252 1.373 . S
C251 C273 1.432 . S
C252 C251 1.373 . S
C252 C253 1.339 . S
C252 C255 1.530 . S
C253 C248 1.304 . S
C253 C252 1.339 . S
C253 H314 0.930 . S
C254 C250 1.567 . S
C254 H315 0.961 . S
C254 H316 0.960 . S
C254 H317 0.958 . S
C255 C252 1.530 . S
C255 H318 0.961 . S
C255 H319 0.960 . S
C255 H320 0.960 . S
C256 C257 1.530 . S
C256 H322 0.961 . S
C256 H323 0.961 . S
C256 H324 0.959 . S
C257 C256 1.530 . S
C257 O285 1.412 . S
C257 H321 0.980 1_556 S
C258 C259 1.288 . S
C258 C263 1.377 1_556 S
C258 O285 1.393 . S
C259 C258 1.288 . S
C259 C260 1.369 . S
C259 H325 0.932 . S
C260 C259 1.369 . S
C260 C261 1.425 . S
C260 C264 1.527 . S
C261 C260 1.425 . S
C261 C262 1.360 1_556 S
C261 C275 1.492 1_556 S
C262 C261 1.360 1_554 S
C262 C263 1.383 . S
C262 C265 1.603 . S
C263 C258 1.377 1_554 S
C263 C262 1.383 . S
C263 H326 0.929 . S
C264 C260 1.527 . S
C264 H327 0.961 . S
C264 H328 0.959 . S
C264 H329 0.959 . S
C265 C262 1.603 . S
C265 H330 0.960 . S
C265 H331 0.962 . S
C265 H332 0.961 . S
C266 C233 1.587 . S
C266 C267 1.360 . S
C266 C279 1.412 . S
C267 C266 1.360 . S
C267 C268 1.365 . S
C267 H333 0.929 . S
C268 C243 1.553 . S
C268 C267 1.365 . S
C268 C269 1.404 . S
C269 C268 1.404 . S
C269 C270 1.395 . S
C269 C280 1.451 . S
C270 C269 1.395 . S
C270 C271 1.322 . S
C270 H334 0.930 . S
C271 C270 1.322 . S
C271 C272 1.459 . S
C271 H335 0.929 . S
C272 C271 1.459 . S
C272 C273 1.445 . S
C272 C281 1.395 . S
C273 C251 1.432 . S
C273 C272 1.445 . S
C273 C274 1.370 . S
C274 C273 1.370 . S
C274 C275 1.438 . S
C274 H336 0.930 . S
C275 C261 1.492 1_554 S
C275 C274 1.438 . S
C275 C276 1.360 . S
C276 C275 1.360 . S
C276 C277 1.401 . S
C276 C281 1.446 . S
C277 C276 1.401 . S
C277 C278 1.347 . S
C277 H337 0.929 . S
C278 C277 1.347 . S
C278 C279 1.455 . S
C278 H338 0.930 . S
C279 C266 1.412 . S
C279 C278 1.455 . S
C279 C280 1.331 . S
C280 C269 1.451 . S
C280 C279 1.331 . S
C280 C281 1.497 . S
C281 C272 1.395 . S
C281 C276 1.446 . S
C281 C280 1.497 . S
C282 C283 1.582 . S
C282 H339 0.962 . S
C282 H340 0.959 . S
C282 H341 0.958 . S
C283 C282 1.582 . S
C283 O286 1.458 . S
C283 H312 0.980 . S
O284 C229 1.426 . S
O284 C230 1.334 . S
O285 C257 1.412 . S
O285 C258 1.393 . S
O286 C248 1.435 . S
O286 C283 1.458 . S
O287 C239 1.468 . S
O287 C240 1.408 . S
H288 C229 0.980 . S
H289 C228 0.959 . S
H290 C228 0.959 . S
H291 C228 0.960 . S
H292 C231 0.929 . S
H293 C235 0.929 . S
H294 C236 0.959 . S
H295 C236 0.961 . S
H296 C236 0.961 . S
H297 C237 0.960 . S
H298 C237 0.960 . S
H299 C237 0.961 . S
H300 C239 0.980 . S
H301 C238 0.961 . S
H302 C238 0.960 . S
H303 C238 0.959 . S
H304 C241 0.930 1_556 S
H305 C245 0.931 . S
H306 C246 0.959 . S
H307 C246 0.961 . S
H308 C246 0.959 . S
H309 C247 0.960 . S
H310 C247 0.960 . S
H311 C247 0.960 . S
H312 C283 0.980 . S
H313 C249 0.945 . S
H314 C253 0.930 . S
H315 C254 0.961 . S
H316 C254 0.960 . S
H317 C254 0.958 . S
H318 C255 0.961 . S
H319 C255 0.960 . S
H320 C255 0.960 . S
H321 C257 0.980 1_554 S
H322 C256 0.961 . S
H323 C256 0.961 . S
H324 C256 0.959 . S
H325 C259 0.932 . S
H326 C263 0.929 . S
H327 C264 0.961 . S
H328 C264 0.959 . S
H329 C264 0.959 . S
H330 C265 0.960 . S
H331 C265 0.962 . S
H332 C265 0.961 . S
H333 C267 0.929 . S
H334 C270 0.930 . S
H335 C271 0.929 . S
H336 C274 0.930 . S
H337 C277 0.929 . S
H338 C278 0.930 . S
H339 C282 0.962 . S
H340 C282 0.959 . S
H341 C282 0.958 . S
C342 O368 1.283 . S
C342 O386 1.283 . S
C343 O369 1.283 . S
C343 O384 1.283 . S
C344 O370 1.283 . S
C344 O387 1.283 . S
C345 O371 1.283 . S
C345 O385 1.283 . S
C346 O372 1.283 . S
C346 O381 1.283 . S
C347 O373 1.283 1_554 S
C347 O383 1.283 . S
C348 O374 1.283 . S
C348 O380 1.283 1_554 S
C349 O375 1.283 . S
C349 O382 1.283 . S
C350 O376 1.283 . S
C350 O391 1.283 . S
C351 O377 1.283 . S
C351 O389 1.283 . S
C352 O378 1.283 . S
C352 O390 1.283 . S
C353 O379 1.283 . S
C353 O388 1.283 . S
Eu354 O355 2.375 . S
Eu354 O356 2.365 1_454 S
Eu354 O359 2.365 1_554 S
Eu354 O360 2.375 1_455 S
Eu354 O368 2.354 1_554 S
Eu354 O369 2.372 . S
Eu354 O382 2.363 1_455 S
Eu354 O383 2.363 . S
O355 Eu354 2.375 . S
O355 Eu357 2.369 1_554 S
O355 Eu362 2.370 . S
O356 Eu354 2.365 1_656 S
O356 Eu358 2.365 1_556 S
O356 Eu361 2.370 1_655 S
Eu357 O355 2.369 1_556 S
Eu357 O359 2.371 . S
Eu357 O363 2.371 1_545 S
Eu357 O364 2.369 1_546 S
Eu357 O372 2.363 1_545 S
Eu357 O373 2.363 . S
Eu357 O388 2.364 . S
Eu357 O389 2.361 1_556 S
Eu358 O356 2.365 1_554 S
Eu358 O360 2.375 . S
Eu358 O365 2.375 1_545 S
Eu358 O366 2.365 1_544 S
Eu358 O374 2.363 1_545 S
Eu358 O375 2.363 . S
Eu358 O390 2.355 1_554 S
Eu358 O391 2.371 . S
O359 Eu354 2.365 1_556 S
O359 Eu357 2.371 . S
O359 Eu361 2.370 . S
O360 Eu354 2.375 1_655 S
O360 Eu358 2.375 . S
O360 Eu362 2.370 1_655 S
Eu361 O356 2.370 1_455 S
Eu361 O359 2.370 . S
Eu361 O363 2.370 1_545 S
Eu361 O366 2.370 1_445 S
Eu361 O378 2.363 1_455 S
Eu361 O379 2.363 . S
Eu361 O386 2.363 . S
Eu361 O387 2.363 1_545 S
Eu362 O355 2.370 . S
Eu362 O360 2.370 1_455 S
Eu362 O364 2.370 1_545 S
Eu362 O365 2.370 1_445 S
Eu362 O376 2.363 1_455 S
Eu362 O377 2.363 . S
Eu362 O384 2.363 . S
Eu362 O385 2.363 1_545 S
O363 Eu357 2.371 1_565 S
O363 Eu361 2.370 1_565 S
O363 Eu367 2.371 . S
O364 Eu357 2.369 1_564 S
O364 Eu362 2.370 1_565 S
O364 Eu367 2.369 1_554 S
O365 Eu358 2.375 1_565 S
O365 Eu362 2.370 1_665 S
O365 Eu367 2.369 1_654 S
O366 Eu358 2.365 1_566 S
O366 Eu361 2.370 1_665 S
O366 Eu367 2.371 1_655 S
Eu367 O363 2.371 . S
Eu367 O364 2.369 1_556 S
Eu367 O365 2.369 1_456 S
Eu367 O366 2.371 1_455 S
Eu367 O370 2.365 . S
Eu367 O371 2.361 1_556 S
Eu367 O380 2.363 1_455 S
Eu367 O381 2.363 . S
O368 C342 1.283 . S
O368 Eu354 2.354 1_556 S
O369 C343 1.283 . S
O369 Eu354 2.372 . S
O370 C344 1.283 . S
O370 Eu367 2.365 . S
O371 C345 1.283 . S
O371 Eu367 2.361 1_554 S
O372 C346 1.283 . S
O372 Eu357 2.363 1_565 S
O373 C347 1.283 1_556 S
O373 Eu357 2.363 . S
O374 C348 1.283 . S
O374 Eu358 2.363 1_565 S
O375 C349 1.283 . S
O375 Eu358 2.363 . S
O376 C350 1.283 . S
O376 Eu362 2.363 1_655 S
O377 C351 1.283 . S
O377 Eu362 2.363 . S
O378 C352 1.283 . S
O378 Eu361 2.363 1_655 S
O379 C353 1.283 . S
O379 Eu361 2.363 . S
O380 C348 1.283 1_556 S
O380 Eu367 2.363 1_655 S
O381 C346 1.283 . S
O381 Eu367 2.363 . S
O382 C349 1.283 . S
O382 Eu354 2.363 1_655 S
O383 C347 1.283 . S
O383 Eu354 2.363 . S
O384 C343 1.283 . S
O384 Eu362 2.363 . S
O385 C345 1.283 . S
O385 Eu362 2.363 1_565 S
O386 C342 1.283 . S
O386 Eu361 2.363 . S
O387 C344 1.283 . S
O387 Eu361 2.363 1_565 S
O388 C353 1.283 . S
O388 Eu357 2.364 . S
O389 C351 1.283 . S
O389 Eu357 2.361 1_554 S
O390 C352 1.283 . S
O390 Eu358 2.355 1_556 S
O391 C350 1.283 . S
O391 Eu358 2.371 . S
C392 C393 1.349 . S
C392 C394 1.327 . S
C392 H417 0.950 . S
C393 C392 1.349 . S
C393 C409 1.349 . S
C394 C392 1.327 . S
C394 C413 1.429 . S
C394 H418 0.950 . S
C395 C412 1.574 . S
C395 C414 1.368 . S
C395 H419 0.949 . S
H396 C400 0.949 . S
C397 C398 1.349 . S
C397 C399 1.327 . S
C397 H420 0.950 . S
C398 C397 1.349 . S
C398 C410 1.349 . S
C399 C397 1.327 . S
C399 C415 1.429 . S
C399 H421 0.950 . S
C400 H396 0.949 . S
C400 C408 1.574 . S
C400 C416 1.368 . S
H401 C409 0.950 . S
H402 C407 0.950 . S
H403 C408 0.949 . S
H404 C410 0.950 . S
H405 C411 0.950 . S
H406 C412 0.949 . S
C407 H402 0.950 . S
C407 C409 1.327 . S
C407 C413 1.429 . S
C408 C400 1.574 . S
C408 H403 0.949 . S
C408 C414 1.368 . S
C409 C393 1.349 . S
C409 H401 0.950 . S
C409 C407 1.327 . S
C410 C398 1.349 . S
C410 H404 0.950 . S
C410 C411 1.327 . S
C411 H405 0.950 . S
C411 C410 1.327 . S
C411 C415 1.429 . S
C412 C395 1.574 . S
C412 H406 0.949 . S
C412 C416 1.368 . S
C413 C394 1.429 . S
C413 C407 1.429 . S
C413 C414 1.523 . S
C414 C395 1.368 . S
C414 C408 1.368 . S
C414 C413 1.523 . S
C415 C399 1.429 . S
C415 C411 1.429 . S
C415 C416 1.523 . S
C416 C400 1.368 . S
C416 C412 1.368 . S
C416 C415 1.523 . S
H417 C392 0.950 . S
H418 C394 0.950 . S
H419 C395 0.949 . S
H420 C397 0.950 . S
H421 C399 0.950 . S
C422 C423 1.349 . S
C422 C424 1.327 . S
C422 H447 0.950 . S
C423 C422 1.349 . S
C423 C439 1.349 1_545 S
C424 C422 1.327 . S
C424 C443 1.429 . S
C424 H448 0.950 . S
C425 C442 1.574 . S
C425 C444 1.368 1_565 S
C425 H449 0.949 . S
H426 C430 0.949 . S
C427 C428 1.349 1_565 S
C427 C429 1.327 . S
C427 H450 0.950 . S
C428 C427 1.349 1_545 S
C428 C440 1.349 . S
C429 C427 1.327 . S
C429 C445 1.429 1_565 S
C429 H451 0.950 . S
C430 H426 0.949 . S
C430 C438 1.574 . S
C430 C446 1.368 . S
H431 C439 0.950 . S
H432 C437 0.950 . S
H433 C438 0.949 . S
H434 C440 0.950 . S
H435 C441 0.950 . S
H436 C442 0.949 . S
C437 H432 0.950 . S
C437 C439 1.327 . S
C437 C443 1.429 1_565 S
C438 C430 1.574 . S
C438 H433 0.949 . S
C438 C444 1.368 . S
C439 C423 1.349 1_565 S
C439 H431 0.950 . S
C439 C437 1.327 . S
C440 C428 1.349 . S
C440 H434 0.950 . S
C440 C441 1.327 . S
C441 H435 0.950 . S
C441 C440 1.327 . S
C441 C445 1.429 . S
C442 C425 1.574 . S
C442 H436 0.949 . S
C442 C446 1.368 1_565 S
C443 C424 1.429 . S
C443 C437 1.429 1_545 S
C443 C444 1.523 . S
C444 C425 1.368 1_545 S
C444 C438 1.368 . S
C444 C443 1.523 . S
C445 C429 1.429 1_545 S
C445 C441 1.429 . S
C445 C446 1.523 . S
C446 C430 1.368 . S
C446 C442 1.368 1_545 S
C446 C445 1.523 . S
H447 C422 0.950 . S
H448 C424 0.950 . S
H449 C425 0.949 . S
H450 C427 0.950 . S
H451 C429 0.950 . S
C452 C453 1.349 . S
C452 C454 1.327 . S
C452 H477 0.950 . S
C453 C452 1.349 . S
C453 C469 1.349 . S
C454 C452 1.327 . S
C454 C473 1.429 . S
C454 H478 0.950 . S
C455 C472 1.574 . S
C455 C474 1.368 . S
C455 H479 0.949 . S
H456 C460 0.949 . S
C457 C458 1.349 . S
C457 C459 1.327 . S
C457 H480 0.950 . S
C458 C457 1.349 . S
C458 C470 1.349 . S
C459 C457 1.327 . S
C459 C475 1.429 . S
C459 H481 0.950 . S
C460 H456 0.949 . S
C460 C468 1.574 . S
C460 C476 1.368 . S
H461 C469 0.950 . S
H462 C467 0.950 . S
H463 C468 0.949 . S
H464 C470 0.950 . S
H465 C471 0.950 . S
H466 C472 0.949 . S
C467 H462 0.950 . S
C467 C469 1.327 . S
C467 C473 1.429 . S
C468 C460 1.574 . S
C468 H463 0.949 . S
C468 C474 1.368 . S
C469 C453 1.349 . S
C469 H461 0.950 . S
C469 C467 1.327 . S
C470 C458 1.349 . S
C470 H464 0.950 . S
C470 C471 1.327 . S
C471 H465 0.950 . S
C471 C470 1.327 . S
C471 C475 1.429 . S
C472 C455 1.574 . S
C472 H466 0.949 . S
C472 C476 1.368 . S
C473 C454 1.429 . S
C473 C467 1.429 . S
C473 C474 1.523 . S
C474 C455 1.368 . S
C474 C468 1.368 . S
C474 C473 1.523 . S
C475 C459 1.429 . S
C475 C471 1.429 . S
C475 C476 1.523 . S
C476 C460 1.368 . S
C476 C472 1.368 . S
C476 C475 1.523 . S
H477 C452 0.950 . S
H478 C454 0.950 . S
H479 C455 0.949 . S
H480 C457 0.950 . S
H481 C459 0.950 . S
C482 C483 1.349 1_565 S
C482 C484 1.327 . S
C482 H507 0.950 . S
C483 C482 1.349 1_545 S
C483 C499 1.349 . S
C484 C482 1.327 . S
C484 C503 1.429 1_565 S
C484 H508 0.950 . S
C485 C502 1.574 . S
C485 C504 1.368 . S
C485 H509 0.949 . S
H486 C490 0.949 . S
C487 C488 1.349 . S
C487 C489 1.327 . S
C487 H510 0.950 . S
C488 C487 1.349 . S
C488 C500 1.349 1_545 S
C489 C487 1.327 . S
C489 C505 1.429 . S
C489 H511 0.950 . S
C490 H486 0.949 . S
C490 C498 1.574 . S
C490 C506 1.368 1_565 S
H491 C499 0.950 . S
H492 C497 0.950 . S
H493 C498 0.949 . S
H494 C500 0.950 . S
H495 C501 0.950 . S
H496 C502 0.949 . S
C497 H492 0.950 . S
C497 C499 1.327 . S
C497 C503 1.429 . S
C498 C490 1.574 . S
C498 H493 0.949 . S
C498 C504 1.368 1_565 S
C499 C483 1.349 . S
C499 H491 0.950 . S
C499 C497 1.327 . S
C500 C488 1.349 1_565 S
C500 H494 0.950 . S
C500 C501 1.327 . S
C501 H495 0.950 . S
C501 C500 1.327 . S
C501 C505 1.429 1_565 S
C502 C485 1.574 . S
C502 H496 0.949 . S
C502 C506 1.368 . S
C503 C484 1.429 1_545 S
C503 C497 1.429 . S
C503 C504 1.523 . S
C504 C485 1.368 . S
C504 C498 1.368 1_545 S
C504 C503 1.523 . S
C505 C489 1.429 . S
C505 C501 1.429 1_545 S
C505 C506 1.523 . S
C506 C490 1.368 1_545 S
C506 C502 1.368 . S
C506 C505 1.523 . S
H507 C482 0.950 . S
H508 C484 0.950 . S
H509 C485 0.949 . S
H510 C487 0.950 . S
H511 C489 0.950 . S
C512 C513 1.349 1_655 S
C512 C514 1.327 . S
C512 H537 0.950 . S
C513 C512 1.349 1_455 S
C513 C529 1.349 . S
C514 C512 1.327 . S
C514 C533 1.429 1_655 S
C514 H538 0.950 . S
C515 C532 1.574 . S
C515 C534 1.368 . S
C515 H539 0.949 . S
H516 C520 0.949 . S
C517 C518 1.349 . S
C517 C519 1.327 . S
C517 H540 0.950 . S
C518 C517 1.349 . S
C518 C530 1.349 1_455 S
C519 C517 1.327 . S
C519 C535 1.429 . S
C519 H541 0.950 . S
C520 H516 0.949 . S
C520 C528 1.574 . S
C520 C536 1.368 1_655 S
H521 C529 0.950 . S
H522 C527 0.950 . S
H523 C528 0.949 . S
H524 C530 0.950 . S
H525 C531 0.950 . S
H526 C532 0.949 . S
C527 H522 0.950 . S
C527 C529 1.327 . S
C527 C533 1.429 . S
C528 C520 1.574 . S
C528 H523 0.949 . S
C528 C534 1.368 1_655 S
C529 C513 1.349 . S
C529 H521 0.950 . S
C529 C527 1.327 . S
C530 C518 1.349 1_655 S
C530 H524 0.950 . S
C530 C531 1.327 . S
C531 H525 0.950 . S
C531 C530 1.327 . S
C531 C535 1.429 1_655 S
C532 C515 1.574 . S
C532 H526 0.949 . S
C532 C536 1.368 . S
C533 C514 1.429 1_455 S
C533 C527 1.429 . S
C533 C534 1.523 . S
C534 C515 1.368 . S
C534 C528 1.368 1_455 S
C534 C533 1.523 . S
C535 C519 1.429 . S
C535 C531 1.429 1_455 S
C535 C536 1.523 . S
C536 C520 1.368 1_455 S
C536 C532 1.368 . S
C536 C535 1.523 . S
H537 C512 0.950 . S
H538 C514 0.950 . S
H539 C515 0.949 . S
H540 C517 0.950 . S
H541 C519 0.950 . S
C542 C543 1.349 . S
C542 C544 1.327 . S
C542 H567 0.950 . S
C543 C542 1.349 . S
C543 C559 1.349 1_545 S
C544 C542 1.327 . S
C544 C563 1.429 . S
C544 H568 0.950 . S
C545 C562 1.574 . S
C545 C564 1.368 1_565 S
C545 H569 0.949 . S
H546 C550 0.949 . S
C547 C548 1.349 1_565 S
C547 C549 1.327 . S
C547 H570 0.950 . S
C548 C547 1.349 1_545 S
C548 C560 1.349 . S
C549 C547 1.327 . S
C549 C565 1.429 1_565 S
C549 H571 0.950 . S
C550 H546 0.949 . S
C550 C558 1.574 . S
C550 C566 1.368 . S
H551 C559 0.950 . S
H552 C557 0.950 . S
H553 C558 0.949 . S
H554 C560 0.950 . S
H555 C561 0.950 . S
H556 C562 0.949 . S
C557 H552 0.950 . S
C557 C559 1.327 . S
C557 C563 1.429 1_565 S
C558 C550 1.574 . S
C558 H553 0.949 . S
C558 C564 1.368 . S
C559 C543 1.349 1_565 S
C559 H551 0.950 . S
C559 C557 1.327 . S
C560 C548 1.349 . S
C560 H554 0.950 . S
C560 C561 1.327 . S
C561 H555 0.950 . S
C561 C560 1.327 . S
C561 C565 1.429 . S
C562 C545 1.574 . S
C562 H556 0.949 . S
C562 C566 1.368 1_565 S
C563 C544 1.429 . S
C563 C557 1.429 1_545 S
C563 C564 1.523 . S
C564 C545 1.368 1_545 S
C564 C558 1.368 . S
C564 C563 1.523 . S
C565 C549 1.429 1_545 S
C565 C561 1.429 . S
C565 C566 1.523 . S
C566 C550 1.368 . S
C566 C562 1.368 1_545 S
C566 C565 1.523 . S
H567 C542 0.950 . S
H568 C544 0.950 . S
H569 C545 0.949 . S
H570 C547 0.950 . S
H571 C549 0.950 . S
C572 C573 1.349 . S
C572 C574 1.327 . S
C572 H597 0.950 . S
C573 C572 1.349 . S
C573 C589 1.349 1_455 S
C574 C572 1.327 . S
C574 C593 1.429 . S
C574 H598 0.950 . S
C575 C592 1.574 . S
C575 C594 1.368 1_655 S
C575 H599 0.949 . S
H576 C580 0.949 . S
C577 C578 1.349 1_655 S
C577 C579 1.327 . S
C577 H600 0.950 . S
C578 C577 1.349 1_455 S
C578 C590 1.349 . S
C579 C577 1.327 . S
C579 C595 1.429 1_655 S
C579 H601 0.950 . S
C580 H576 0.949 . S
C580 C588 1.574 . S
C580 C596 1.368 . S
H581 C589 0.950 . S
H582 C587 0.950 . S
H583 C588 0.949 . S
H584 C590 0.950 . S
H585 C591 0.950 . S
H586 C592 0.949 . S
C587 H582 0.950 . S
C587 C589 1.327 . S
C587 C593 1.429 1_655 S
C588 C580 1.574 . S
C588 H583 0.949 . S
C588 C594 1.368 . S
C589 C573 1.349 1_655 S
C589 H581 0.950 . S
C589 C587 1.327 . S
C590 C578 1.349 . S
C590 H584 0.950 . S
C590 C591 1.327 . S
C591 H585 0.950 . S
C591 C590 1.327 . S
C591 C595 1.429 . S
C592 C575 1.574 . S
C592 H586 0.949 . S
C592 C596 1.368 1_655 S
C593 C574 1.429 . S
C593 C587 1.429 1_455 S
C593 C594 1.523 . S
C594 C575 1.368 1_455 S
C594 C588 1.368 . S
C594 C593 1.523 . S
C595 C579 1.429 1_455 S
C595 C591 1.429 . S
C595 C596 1.523 . S
C596 C580 1.368 . S
C596 C592 1.368 1_455 S
C596 C595 1.523 . S
H597 C572 0.950 . S
H598 C574 0.950 . S
H599 C575 0.949 . S
H600 C577 0.950 . S
H601 C579 0.950 . S
C602 C603 1.349 . S
C602 C604 1.327 . S
C602 H627 0.950 . S
C603 C602 1.349 . S
C603 C619 1.349 1_545 S
C604 C602 1.327 . S
C604 C623 1.429 . S
C604 H628 0.950 . S
C605 C622 1.574 . S
C605 C624 1.368 1_565 S
C605 H629 0.949 . S
H606 C610 0.949 . S
C607 C608 1.349 1_565 S
C607 C609 1.327 . S
C607 H630 0.950 . S
C608 C607 1.349 1_545 S
C608 C620 1.349 . S
C609 C607 1.327 . S
C609 C625 1.429 1_565 S
C609 H631 0.950 . S
C610 H606 0.949 . S
C610 C618 1.574 . S
C610 C626 1.368 . S
H611 C619 0.950 . S
H612 C617 0.950 . S
H613 C618 0.949 . S
H614 C620 0.950 . S
H615 C621 0.950 . S
H616 C622 0.949 . S
C617 H612 0.950 . S
C617 C619 1.327 . S
C617 C623 1.429 1_565 S
C618 C610 1.574 . S
C618 H613 0.949 . S
C618 C624 1.368 . S
C619 C603 1.349 1_565 S
C619 H611 0.950 . S
C619 C617 1.327 . S
C620 C608 1.349 . S
C620 H614 0.950 . S
C620 C621 1.327 . S
C621 H615 0.950 . S
C621 C620 1.327 . S
C621 C625 1.429 . S
C622 C605 1.574 . S
C622 H616 0.949 . S
C622 C626 1.368 1_565 S
C623 C604 1.429 . S
C623 C617 1.429 1_545 S
C623 C624 1.523 . S
C624 C605 1.368 1_545 S
C624 C618 1.368 . S
C624 C623 1.523 . S
C625 C609 1.429 1_545 S
C625 C621 1.429 . S
C625 C626 1.523 . S
C626 C610 1.368 . S
C626 C622 1.368 1_545 S
C626 C625 1.523 . S
H627 C602 0.950 . S
H628 C604 0.950 . S
H629 C605 0.949 . S
H630 C607 0.950 . S
H631 C609 0.950 . S
C632 C633 1.349 . S
C632 C634 1.327 . S
C632 H657 0.950 . S
C633 C632 1.349 . S
C633 C649 1.349 1_556 S
C634 C632 1.327 . S
C634 C653 1.429 . S
C634 H658 0.950 . S
C635 C652 1.574 . S
C635 C654 1.368 1_554 S
C635 H659 0.949 . S
H636 C640 0.949 . S
C637 C638 1.342 1_554 S
C637 C639 1.327 . S
C637 H660 0.950 . S
C638 C637 1.342 1_556 S
C638 C650 1.356 . S
C639 C637 1.327 . S
C639 C655 1.429 1_554 S
C639 H661 0.950 . S
C640 H636 0.949 . S
C640 C648 1.574 . S
C640 C656 1.368 . S
H641 C649 0.950 . S
H642 C647 0.950 . S
H643 C648 0.949 . S
H644 C650 0.950 . S
H645 C651 0.950 . S
H646 C652 0.949 . S
C647 H642 0.950 . S
C647 C649 1.327 . S
C647 C653 1.429 1_554 S
C648 C640 1.574 . S
C648 H643 0.949 . S
C648 C654 1.368 . S
C649 C633 1.349 1_554 S
C649 H641 0.950 . S
C649 C647 1.327 . S
C650 C638 1.356 . S
C650 H644 0.950 . S
C650 C651 1.327 . S
C651 H645 0.950 . S
C651 C650 1.327 . S
C651 C655 1.429 . S
C652 C635 1.574 . S
C652 H646 0.949 . S
C652 C656 1.368 1_554 S
C653 C634 1.429 . S
C653 C647 1.429 1_556 S
C653 C654 1.523 . S
C654 C635 1.368 1_556 S
C654 C648 1.368 . S
C654 C653 1.523 . S
C655 C639 1.429 1_556 S
C655 C651 1.429 . S
C655 C656 1.523 . S
C656 C640 1.368 . S
C656 C652 1.368 1_556 S
C656 C655 1.523 . S
H657 C632 0.950 . S
H658 C634 0.950 . S
H659 C635 0.949 . S
H660 C637 0.950 . S
H661 C639 0.950 . S
C662 C663 1.349 . S
C662 C664 1.327 . S
C662 H687 0.950 . S
C663 C662 1.349 . S
C663 C679 1.349 1_554 S
C664 C662 1.327 . S
C664 C683 1.429 . S
C664 H688 0.950 . S
C665 C682 1.574 . S
C665 C684 1.368 1_556 S
C665 H689 0.949 . S
H666 C670 0.949 . S
C667 C668 1.348 . S
C667 C669 1.327 . S
C667 H690 0.950 . S
C668 C667 1.348 . S
C668 C680 1.350 1_556 S
C669 C667 1.327 . S
C669 C685 1.429 1_556 S
C669 H691 0.950 . S
C670 H666 0.949 . S
C670 C678 1.574 . S
C670 C686 1.368 . S
H671 C679 0.950 . S
H672 C677 0.950 . S
H673 C678 0.949 . S
H674 C680 0.950 . S
H675 C681 0.950 . S
H676 C682 0.949 . S
C677 H672 0.950 . S
C677 C679 1.327 . S
C677 C683 1.429 1_556 S
C678 C670 1.574 . S
C678 H673 0.949 . S
C678 C684 1.368 . S
C679 C663 1.349 1_556 S
C679 H671 0.950 . S
C679 C677 1.327 . S
C680 C668 1.350 1_554 S
C680 H674 0.950 . S
C680 C681 1.327 . S
C681 H675 0.950 . S
C681 C680 1.327 . S
C681 C685 1.429 . S
C682 C665 1.574 . S
C682 H676 0.949 . S
C682 C686 1.368 1_556 S
C683 C664 1.429 . S
C683 C677 1.429 1_554 S
C683 C684 1.523 . S
C684 C665 1.368 1_554 S
C684 C678 1.368 . S
C684 C683 1.523 . S
C685 C669 1.429 1_554 S
C685 C681 1.429 . S
C685 C686 1.523 . S
C686 C670 1.368 . S
C686 C682 1.368 1_554 S
C686 C685 1.523 . S
H687 C662 0.950 . S
H688 C664 0.950 . S
H689 C665 0.949 . S
H690 C667 0.950 . S
H691 C669 0.950 . S
C692 C693 1.349 1_556 S
C692 C694 1.327 . S
C692 H717 0.950 . S
C693 C692 1.349 1_554 S
C693 C709 1.349 . S
C694 C692 1.327 . S
C694 C713 1.429 1_556 S
C694 H718 0.950 . S
C695 C712 1.574 . S
C695 C714 1.368 . S
C695 H719 0.949 . S
H696 C700 0.949 . S
C697 C698 1.349 . S
C697 C699 1.327 . S
C697 H720 0.950 . S
C698 C697 1.349 . S
C698 C710 1.349 1_554 S
C699 C697 1.327 . S
C699 C715 1.429 . S
C699 H721 0.950 . S
C700 H696 0.949 . S
C700 C708 1.574 . S
C700 C716 1.368 1_556 S
H701 C709 0.950 . S
H702 C707 0.950 . S
H703 C708 0.949 . S
H704 C710 0.950 . S
H705 C711 0.950 . S
H706 C712 0.949 . S
C707 H702 0.950 . S
C707 C709 1.327 . S
C707 C713 1.429 . S
C708 C700 1.574 . S
C708 H703 0.949 . S
C708 C714 1.368 1_556 S
C709 C693 1.349 . S
C709 H701 0.950 . S
C709 C707 1.327 . S
C710 C698 1.349 1_556 S
C710 H704 0.950 . S
C710 C711 1.327 . S
C711 H705 0.950 . S
C711 C710 1.327 . S
C711 C715 1.429 1_556 S
C712 C695 1.574 . S
C712 H706 0.949 . S
C712 C716 1.368 . S
C713 C694 1.429 1_554 S
C713 C707 1.429 . S
C713 C714 1.523 . S
C714 C695 1.368 . S
C714 C708 1.368 1_554 S
C714 C713 1.523 . S
C715 C699 1.429 . S
C715 C711 1.429 1_554 S
C715 C716 1.523 . S
C716 C700 1.368 1_554 S
C716 C712 1.368 . S
C716 C715 1.523 . S
H717 C692 0.950 . S
H718 C694 0.950 . S
H719 C695 0.949 . S
H720 C697 0.950 . S
H721 C699 0.950 . S
C722 C723 1.349 1_554 S
C722 C724 1.327 . S
C722 H747 0.950 . S
C723 C722 1.349 1_556 S
C723 C739 1.349 . S
C724 C722 1.327 . S
C724 C743 1.429 1_554 S
C724 H748 0.950 . S
C725 C742 1.574 . S
C725 C744 1.368 . S
C725 H749 0.949 . S
H726 C730 0.949 . S
C727 C728 1.353 . S
C727 C729 1.327 . S
C727 H750 0.950 . S
C728 C727 1.353 . S
C728 C740 1.345 1_556 S
C729 C727 1.327 . S
C729 C745 1.429 . S
C729 H751 0.950 . S
C730 H726 0.949 . S
C730 C738 1.574 . S
C730 C746 1.368 1_554 S
H731 C739 0.950 . S
H732 C737 0.950 . S
H733 C738 0.949 . S
H734 C740 0.950 . S
H735 C741 0.950 . S
H736 C742 0.949 . S
C737 H732 0.950 . S
C737 C739 1.327 . S
C737 C743 1.429 . S
C738 C730 1.574 . S
C738 H733 0.949 . S
C738 C744 1.368 1_554 S
C739 C723 1.349 . S
C739 H731 0.950 . S
C739 C737 1.327 . S
C740 C728 1.345 1_554 S
C740 H734 0.950 . S
C740 C741 1.327 . S
C741 H735 0.950 . S
C741 C740 1.327 . S
C741 C745 1.429 1_554 S
C742 C725 1.574 . S
C742 H736 0.949 . S
C742 C746 1.368 . S
C743 C724 1.429 1_556 S
C743 C737 1.429 . S
C743 C744 1.523 . S
C744 C725 1.368 . S
C744 C738 1.368 1_556 S
C744 C743 1.523 . S
C745 C729 1.429 . S
C745 C741 1.429 1_556 S
C745 C746 1.523 . S
C746 C730 1.368 1_556 S
C746 C742 1.368 . S
C746 C745 1.523 . S
H747 C722 0.950 . S
H748 C724 0.950 . S
H749 C725 0.949 . S
H750 C727 0.950 . S
H751 C729 0.950 . S
C398 C343 1.484 . S
C393 C11 0.868 . S
C428 C350 1.475 . S
C423 C143 1.204 . S
C458 C345 1.240 . S
C453 C1 0.958 . S
C488 C351 1.618 . S
C483 C169 1.213 . S
C513 C29 1.120 . S
C518 C344 1.362 . S
C548 C353 1.592 . S
C543 C125 0.935 1_545 S
C573 C55 1.136 . S
C578 C342 1.510 . S
C603 C115 1.038 . S
C608 C352 1.352 . S
C633 C283 1.314 1_556 S
C638 C347 1.734 1_556 S
C663 C239 1.009 . S
C668 C346 1.710 . S
C698 C349 1.586 . S
C693 C257 1.304 1_554 S
C728 C348 1.464 1_556 S
C723 C229 1.113 . S
