# Generated by pormake.
# Topology zzz, (3,6)-cn, num edge types: 1
# Building blocks:
#     Node 0, Type 0, BuildingBlock: PAMTOO_clean_linker_0, # of connection points: 3
#     Node 1, Type 0, BuildingBlock: PAMTOO_clean_linker_0, # of connection points: 3
#     Node 2, Type 0, BuildingBlock: PAMTOO_clean_linker_0, # of connection points: 3
#     Node 3, Type 0, BuildingBlock: PAMTOO_clean_linker_0, # of connection points: 3
#     Node 4, Type 0, BuildingBlock: PAMTOO_clean_linker_0, # of connection points: 3
#     Node 5, Type 0, BuildingBlock: PAMTOO_clean_linker_0, # of connection points: 3
#     Node 6, Type 0, BuildingBlock: PAMTOO_clean_linker_0, # of connection points: 3
#     Node 7, Type 0, BuildingBlock: PAMTOO_clean_linker_0, # of connection points: 3
#     Node 8, Type 1, BuildingBlock: BETDEL_clean_sbu_0, # of connection points: 6
#     Node 9, Type 1, BuildingBlock: BETDEL_clean_sbu_0, # of connection points: 6
#     Node 10, Type 1, BuildingBlock: BETDEL_clean_sbu_0, # of connection points: 6
#     Node 11, Type 1, BuildingBlock: BETDEL_clean_sbu_0, # of connection points: 6
#     Edge 12, Type (0, 1), BuildingBlock: CIFDUS_clean_linker_0, # of connection points: 2
#     Edge 13, Type (0, 1), BuildingBlock: CIFDUS_clean_linker_0, # of connection points: 2
#     Edge 14, Type (0, 1), BuildingBlock: CIFDUS_clean_linker_0, # of connection points: 2
#     Edge 15, Type (0, 1), BuildingBlock: CIFDUS_clean_linker_0, # of connection points: 2
#     Edge 16, Type (0, 1), BuildingBlock: CIFDUS_clean_linker_0, # of connection points: 2
#     Edge 17, Type (0, 1), BuildingBlock: CIFDUS_clean_linker_0, # of connection points: 2
#     Edge 18, Type (0, 1), BuildingBlock: CIFDUS_clean_linker_0, # of connection points: 2
#     Edge 19, Type (0, 1), BuildingBlock: CIFDUS_clean_linker_0, # of connection points: 2
#     Edge 20, Type (0, 1), BuildingBlock: CIFDUS_clean_linker_0, # of connection points: 2
#     Edge 21, Type (0, 1), BuildingBlock: CIFDUS_clean_linker_0, # of connection points: 2
#     Edge 22, Type (0, 1), BuildingBlock: CIFDUS_clean_linker_0, # of connection points: 2
#     Edge 23, Type (0, 1), BuildingBlock: CIFDUS_clean_linker_0, # of connection points: 2
#     Edge 24, Type (0, 1), BuildingBlock: CIFDUS_clean_linker_0, # of connection points: 2
#     Edge 25, Type (0, 1), BuildingBlock: CIFDUS_clean_linker_0, # of connection points: 2
#     Edge 26, Type (0, 1), BuildingBlock: CIFDUS_clean_linker_0, # of connection points: 2
#     Edge 27, Type (0, 1), BuildingBlock: CIFDUS_clean_linker_0, # of connection points: 2
#     Edge 28, Type (0, 1), BuildingBlock: CIFDUS_clean_linker_0, # of connection points: 2
#     Edge 29, Type (0, 1), BuildingBlock: CIFDUS_clean_linker_0, # of connection points: 2
#     Edge 30, Type (0, 1), BuildingBlock: CIFDUS_clean_linker_0, # of connection points: 2
#     Edge 31, Type (0, 1), BuildingBlock: CIFDUS_clean_linker_0, # of connection points: 2
#     Edge 32, Type (0, 1), BuildingBlock: CIFDUS_clean_linker_0, # of connection points: 2
#     Edge 33, Type (0, 1), BuildingBlock: CIFDUS_clean_linker_0, # of connection points: 2
#     Edge 34, Type (0, 1), BuildingBlock: CIFDUS_clean_linker_0, # of connection points: 2
#     Edge 35, Type (0, 1), BuildingBlock: CIFDUS_clean_linker_0, # of connection points: 2
# Relax obj value: 0.159
# Max RMSD: 0.178
# Mean RMSD: 0.116
data_MOF--net-zzz--node1-BETDEL_clean_sbu_0--node2-PAMTOO_clean_linker_0--edge1-CIFDUS_clean_linker_0
_symmetry_space_group_name_H-M    P1
_symmetry_Int_Tables_number       1
_symmetry_cell_setting            triclinic
loop_
_symmetry_equiv_pos_as_xyz
'x, y, z'
_cell_length_a     42.377968
_cell_length_b     43.391259
_cell_length_c     13.178808
_cell_angle_alpha  91.154388
_cell_angle_beta   88.456537
_cell_angle_gamma 94.629705
loop_
_atom_site_label
_atom_site_type_symbol
_atom_site_fract_x
_atom_site_fract_y
_atom_site_fract_z
_atom_type_partial_charge
H0 H 0.83528 0.47636 0.13561 0.0
H1 H 0.75515 0.49563 0.96274 0.0
H2 H 0.77314 0.54368 0.24631 0.0
H3 H 0.69193 0.53436 0.17531 0.0
C4 C 0.70212 0.52302 0.10701 0.0
O5 O 0.73331 0.53494 0.09348 0.0
H6 H 0.70083 0.4977 0.12082 0.0
C7 C 0.81318 0.48723 0.13047 0.0
C8 C 0.80673 0.51051 0.20106 0.0
C9 C 0.79562 0.48256 0.04245 0.0
C10 C 0.76809 0.49797 0.03265 0.0
C11 C 0.75875 0.51863 0.10895 0.0
C12 C 0.7785 0.52543 0.19285 0.0
H13 H 0.0563 0.85146 0.15733 0.0
H14 H 0.04388 0.78578 0.91179 0.0
H15 H 0.99058 0.7714 0.19047 0.0
H16 H 1.01423 0.70749 0.10584 0.0
C17 C 0.02414 0.71798 0.03435 0.0
O18 O 1.00892 0.74447 0.01758 0.0
H19 H 0.04997 0.72377 0.04422 0.0
C20 C 0.04714 0.82871 0.13032 0.0
C21 C 1.02254 0.81299 0.18575 0.0
C22 C 0.05221 0.8211 0.02806 0.0
C23 C 0.03999 0.79218 -0.00925 0.0
C24 C 1.02009 0.77272 0.0533 0.0
C25 C 1.00947 0.78419 0.14839 0.0
H26 H 0.70343 0.06994 0.20311 0.0
H27 H 0.76429 0.04216 0.95679 0.0
H28 H 0.77074 1.00333 0.2508 0.0
H29 H 0.84143 0.02148 0.14637 0.0
C30 C 0.83021 0.02835 0.07591 0.0
O31 O 0.8004 1.01257 0.07069 0.0
H32 H 0.82821 0.05379 0.08073 0.0
C33 C 0.72231 0.05662 0.1738 0.0
C34 C 0.73417 0.03512 0.23718 0.0
C35 C 0.72962 0.05637 0.06938 0.0
C36 C 0.75677 0.04195 0.03587 0.0
C37 C 0.77354 0.02523 0.10383 0.0
C38 C 0.76065 0.01971 0.20265 0.0
H39 H 0.51248 0.68364 0.15728 0.0
H40 H 0.49872 0.76155 0.97023 0.0
H41 H 0.56578 0.77008 0.21116 0.0
H42 H 0.53524 0.83197 0.16608 0.0
C43 C 0.52625 0.82417 0.09056 0.0
O44 O 0.54159 0.79866 0.05808 0.0
H45 H 0.50033 0.81797 0.10002 0.0
C46 C 0.51669 0.70796 0.1399 0.0
C47 C 0.53938 0.72548 0.19587 0.0
C48 C 0.5015 0.72027 0.05855 0.0
C49 C 0.50959 0.75138 0.03358 0.0
C50 C 0.53258 0.76948 0.08859 0.0
C51 C 0.54756 0.75647 0.17018 0.0
H52 H 0.2133 0.53946 0.03556 0.0
H53 H 0.30615 0.54551 0.16037 0.0
H54 H 0.28978 0.50148 0.86759 0.0
H55 H 0.35727 0.48108 0.97366 0.0
C56 C 0.34605 0.49286 0.03921 0.0
O57 O 0.3332 0.51898 0.00456 0.0
H58 H 0.32706 0.47618 0.07068 0.0
C59 C 0.23816 0.53521 0.0283 0.0
C60 C 0.24853 0.51877 0.94338 0.0
C61 C 0.25844 0.54494 0.10659 0.0
C62 C 0.29035 0.53875 0.09911 0.0
C63 C 0.3019 0.52355 0.01229 0.0
C64 C 0.28097 0.51359 0.9338 0.0
H65 H 0.02363 0.19757 0.97323 0.0
H66 H 0.99626 0.27659 0.14735 0.0
H67 H 0.06073 0.28844 0.88945 0.0
H68 H 0.07554 0.34048 0.03492 0.0
C69 C 0.05748 0.33148 0.09187 0.0
O70 O 0.0319 0.31713 0.04121 0.0
H71 H 0.06877 0.3144 0.13826 0.0
C72 C 0.02399 0.22239 0.98554 0.0
C73 C 0.0434 0.24132 0.92164 0.0
C74 C 1.00615 0.23443 0.06569 0.0
C75 C 1.00916 0.26662 0.08444 0.0
C76 C 0.02892 0.28619 0.02137 0.0
C77 C 0.04564 0.27349 0.93838 0.0
H78 H 0.33276 0.97792 0.88219 0.0
H79 H 0.26647 0.99493 0.12461 0.0
H80 H 0.25899 0.03774 0.83542 0.0
H81 H 0.20996 0.06304 0.00148 0.0
C82 C 0.21934 0.04743 0.05716 0.0
O83 O 0.22739 0.02076 0.00664 0.0
H84 H 0.2406 0.06009 0.09079 0.0
C85 C 0.31254 0.98936 0.91132 0.0
C86 C 0.29909 1.01023 0.8494 0.0
C87 C 0.30406 0.98697 0.01436 0.0
C88 C 0.27515 0.99818 0.04733 0.0
C89 C 0.25744 1.01436 0.97995 0.0
C90 C 0.27076 0.02252 0.88345 0.0
H91 H 0.55322 0.34749 -4e-05 0.0
H92 H 0.56169 0.26847 0.18508 0.0
H93 H 0.4947 0.26369 0.94382 0.0
H94 H 0.47465 0.21828 0.11529 0.0
C95 C 0.49746 0.22258 0.15485 0.0
O96 O 0.52099 0.23163 0.0843 0.0
H97 H 0.49433 0.24129 0.21255 0.0
C98 C 0.54737 0.3231 0.01459 0.0
C99 C 0.52281 0.3073 0.96153 0.0
C100 C 0.56093 0.30974 0.09663 0.0
C101 C 0.55202 0.27879 0.11978 0.0
C102 C 0.52904 0.26167 0.06208 0.0
C103 C 0.51378 0.27622 0.9842 0.0
Dy104 Dy 0.0397 0.02114 0.6426 0.0
C105 C 0.97211 0.07832 0.33437 0.0
C106 C 0.04556 0.98779 0.81238 0.0
Dy107 Dy 0.9989 0.04106 0.46644 0.0
O108 O 0.06931 0.99934 0.75682 0.0
O109 O 1.01936 0.99661 0.77869 0.0
O110 O 0.08706 0.01979 0.56241 0.0
O111 O 0.04775 0.03118 0.48289 0.0
C112 C 0.07698 0.02699 0.47417 0.0
C113 C 0.96651 0.02415 0.63802 0.0
O114 O 1.0023 0.9916 0.41496 0.0
O115 O 1.02032 0.97665 0.57019 0.0
O116 O 0.96822 0.07875 0.43199 0.0
O117 O 0.99014 0.05643 0.30708 0.0
O118 O 0.95585 0.01856 0.54737 0.0
O119 O 0.99328 0.03929 0.63122 0.0
O120 O 0.04608 0.07176 0.67548 0.0
O121 O 0.02707 0.08481 0.51866 0.0
C122 C 1.01024 0.96998 0.47748 0.0
C123 C 0.0405 0.09252 0.60682 0.0
Dy124 Dy 0.5011 0.98456 0.45672 0.0
C125 C 0.57533 0.05343 0.74767 0.0
C126 C 0.45777 0.96056 0.32109 0.0
Dy127 Dy 0.53233 0.02583 0.61787 0.0
O128 O 0.48701 0.96988 0.29892 0.0
O129 O 0.45276 0.96325 0.418 0.0
O130 O 0.54563 0.96139 0.42433 0.0
O131 O 0.54869 1.00821 0.47029 0.0
C132 C 0.56462 0.98516 0.45052 0.0
C133 C 0.46851 0.02348 0.62232 0.0
O134 O 0.52993 0.06207 0.50112 0.0
O135 O 0.49476 0.03248 0.40057 0.0
O136 O 0.54611 0.04466 0.77198 0.0
O137 O 0.58083 0.04727 0.65268 0.0
O138 O 0.48624 0.04801 0.64958 0.0
O139 O 0.48578 1.0016 0.60373 0.0
O140 O 0.50192 0.94889 0.5757 0.0
O141 O 0.53656 0.9779 0.68052 0.0
C142 C 0.51063 0.05922 0.42367 0.0
C143 C 0.52014 0.95144 0.65612 0.0
Dy144 Dy 0.49768 0.52802 0.66223 0.0
C145 C 0.56491 0.47005 0.3572 0.0
C146 C 0.4652 0.5635 0.7961 0.0
Dy147 Dy 0.54192 0.50831 0.50541 0.0
O148 O 0.46147 0.56157 0.69913 0.0
O149 O 0.48634 0.54508 0.82127 0.0
O150 O 0.45799 0.49966 0.59053 0.0
O151 O 0.49334 0.52228 0.49667 0.0
C152 C 0.46818 0.50428 0.49798 0.0
C153 C 0.57169 0.5282 0.6755 0.0
O154 O 0.54416 0.55697 0.45414 0.0
O155 O 0.5233 0.57275 0.60828 0.0
O156 O 0.57908 0.4788 0.44009 0.0
O157 O 0.53977 0.48512 0.35204 0.0
O158 O 0.58364 0.53217 0.58418 0.0
O159 O 0.54524 0.51248 0.67116 0.0
O160 O 0.49815 0.47961 0.71943 0.0
O161 O 0.52046 0.46345 0.56826 0.0
C162 C 0.53667 0.57919 0.51822 0.0
C163 C 0.50735 0.4572 0.65837 0.0
Dy164 Dy 1.0086 0.50428 0.64859 0.0
C165 C 0.1007 0.55077 0.37584 0.0
C166 C 0.9571 0.49585 0.77546 0.0
Dy167 Dy 0.04861 0.53547 0.49491 0.0
O168 O 0.96973 0.47377 0.7249 0.0
O169 O 0.97426 0.52163 0.7628 0.0
O170 O 0.02667 0.45888 0.6117 0.0
O171 O 1.02163 0.48996 0.49186 0.0
C172 C 0.03127 0.46404 0.51535 0.0
C173 C 0.02823 0.57447 0.64018 0.0
O174 O 1.00458 0.53167 0.40311 0.0
O175 O 0.97316 0.52268 0.54579 0.0
O176 O 0.07755 0.56832 0.39112 0.0
O177 O 0.09415 0.52445 0.41908 0.0
O178 O 0.03208 0.5816 0.54541 0.0
O179 O 0.03739 0.54793 0.65285 0.0
O180 O 0.05338 0.50264 0.7347 0.0
O181 O 0.08455 0.51628 0.59399 0.0
C182 C 0.97623 0.52936 0.44859 0.0
C183 C 0.08158 0.50634 0.68823 0.0
H184 H 0.15513 0.05554 0.06273 0.0
H185 H 0.22883 0.02214 0.24014 0.0
H186 H 0.19117 1.0121 0.38177 0.0
H187 H 0.13816 1.0147 0.4579 0.0
H188 H 0.06359 0.04825 0.28478 0.0
H189 H 0.10055 0.05638 0.1387 0.0
C190 C 0.16281 0.04592 0.13234 0.0
C191 C 0.19488 0.03974 0.14122 0.0
C192 C 0.14091 0.04043 0.2142 0.0
C193 C 0.20442 0.02711 0.23156 0.0
C194 C 0.18289 0.02147 0.3126 0.0
C195 C 0.12987 0.02374 0.38814 0.0
C196 C 0.09814 0.03103 0.38252 0.0
C197 C 0.15122 0.02835 0.30523 0.0
C198 C 0.08785 0.04251 0.29124 0.0
C199 C 0.10904 0.04718 0.20783 0.0
H200 H 0.4716 0.16301 0.1302 0.0
H201 H 0.54149 0.21816 0.30073 0.0
H202 H 0.5524 0.17273 0.39792 0.0
H203 H 0.54045 0.11764 0.43872 0.0
H204 H 0.47015 0.0628 0.26708 0.0
H205 H 0.46103 0.10762 0.16672 0.0
C206 C 0.48933 0.16498 0.18831 0.0
C207 C 0.50556 0.19391 0.20903 0.0
C208 C 0.49525 0.13882 0.24425 0.0
C209 C 0.52863 0.19613 0.28396 0.0
C210 C 0.53478 0.17019 0.33961 0.0
C211 C 0.52316 0.11543 0.3793 0.0
C212 C 0.50593 0.08673 0.36136 0.0
C213 C 0.51796 0.14145 0.3213 0.0
C214 C 0.48376 0.08446 0.28332 0.0
C215 C 0.47849 0.11016 0.22556 0.0
H216 H 0.35974 0.45837 0.19947 0.0
H217 H 0.38996 0.5438 0.05199 0.0
H218 H 0.43204 0.55407 0.17562 0.0
H219 H 0.45997 0.53885 0.32868 0.0
H220 H 0.42792 0.45375 0.47597 0.0
H221 H 0.38754 0.44293 0.34868 0.0
C222 C 0.37537 0.47938 0.1949 0.0
C223 C 0.37107 0.50069 0.11836 0.0
C224 C 0.39965 0.48493 0.26538 0.0
C225 C 0.39217 0.52739 0.1117 0.0
C226 C 0.41644 0.53312 0.18184 0.0
C227 C 0.44445 0.51774 0.33158 0.0
C228 C 0.44709 0.49696 0.41121 0.0
C229 C 0.42047 0.51204 0.2592 0.0
C230 C 0.42644 0.46999 0.4152 0.0
C231 C 0.40321 0.46387 0.34272 0.0
H232 H 0.07031 0.34254 0.29126 0.0
H233 H 0.02518 0.38142 0.04025 0.0
H234 H 1.01418 0.42693 0.14556 0.0
H235 H 1.01764 0.45582 0.31159 0.0
H236 H 0.06307 0.41527 0.55976 0.0
H237 H 0.074 0.37072 0.45329 0.0
C238 C 0.05774 0.3608 0.25987 0.0
C239 C 0.04801 0.3583 0.15868 0.0
C240 C 0.05187 0.38689 0.3204 0.0
C241 C 0.03234 0.38253 0.1186 0.0
C242 C 0.02628 0.40865 0.17863 0.0
C243 C 0.03018 0.43733 0.34166 0.0
C244 C 0.03955 0.43891 0.44365 0.0
C245 C 0.03605 0.4112 0.27986 0.0
C246 C 0.05552 0.41462 0.48178 0.0
C247 C 0.06174 0.38904 0.421 0.0
H248 H 0.89409 0.03929 0.06165 0.0
H249 H 0.81456 1.00505 0.88304 0.0
H250 H 0.84993 0.99894 0.73533 0.0
H251 H 0.90341 1.00533 0.65427 0.0
H252 H 0.98226 0.04265 0.83096 0.0
H253 H 0.94752 0.04503 0.98147 0.0
C254 C 0.88458 0.03005 -0.00932 0.0
C255 C 0.85175 0.02194 0.98465 0.0
C256 C 0.90504 0.02716 0.90531 0.0
C257 C 0.83971 1.01084 0.89114 0.0
C258 C 0.85998 1.00748 0.80625 0.0
C259 C 0.91306 1.01372 0.72597 0.0
C260 C 0.9456 0.0235 0.73114 0.0
C261 C 0.89267 1.01579 0.81212 0.0
C262 C 0.95752 0.03461 0.82465 0.0
C263 C 0.93756 0.03618 0.91084 0.0
H264 H 0.50121 0.82678 0.90247 0.0
H265 H 0.5624 0.87951 0.10908 0.0
H266 H 0.56705 0.92299 -0.00759 0.0
H267 H 0.55155 0.94705 0.8347 0.0
H268 H 0.48992 0.89391 0.62883 0.0
H269 H 0.48776 0.84991 0.74123 0.0
C270 C 0.51576 0.84774 0.92122 0.0
C271 C 0.53126 0.85 0.01446 0.0
C272 C 0.51813 0.87274 0.85396 0.0
C273 C 0.55013 0.87723 0.03795 0.0
C274 C 0.55273 0.90213 0.9713 0.0
C275 C 0.53781 0.9258 0.81392 0.0
C276 C 0.52083 0.92411 0.72304 0.0
C277 C 0.53649 0.90034 0.87954 0.0
C278 C 0.5032 0.89619 0.69801 0.0
C279 C 0.50189 0.87086 0.76247 0.0
H280 H 0.63799 0.51708 0.09729 0.0
H281 H 0.72131 0.53948 0.90958 0.0
H282 H 0.68829 0.54494 0.76321 0.0
H283 H 0.63569 0.54153 0.68583 0.0
H284 H 0.55239 0.51715 0.87141 0.0
H285 H 0.58521 0.5147 0.02065 0.0
C286 C 0.64885 0.52349 0.02447 0.0
C287 C 0.68211 0.52832 0.01553 0.0
C288 C 0.62965 0.52625 0.93981 0.0
C289 C 0.69586 0.53601 0.91993 0.0
C290 C 0.67693 0.53909 0.83571 0.0
C291 C 0.62467 0.536 0.75914 0.0
C292 C 0.59155 0.52956 0.76728 0.0
C293 C 0.6438 0.53408 0.84448 0.0
C294 C 0.57777 0.52223 0.86289 0.0
C295 C 0.59656 0.52073 0.94827 0.0
H296 H 1.02022 0.65522 0.04404 0.0
H297 H 1.02233 0.72874 0.82843 0.0
H298 H 1.02195 0.69087 0.68793 0.0
H299 H 0.02361 0.63674 0.62612 0.0
H300 H 0.02402 0.56366 0.84303 0.0
H301 H 1.0205 0.60123 0.98275 0.0
C302 C 1.02 0.66288 0.96624 0.0
C303 C 1.02037 0.69473 0.94696 0.0
C304 C 1.02042 0.64098 0.88591 0.0
C305 C 1.02117 0.70437 0.8456 0.0
C306 C 1.02117 0.68269 0.76518 0.0
C307 C 1.02267 0.62904 0.70398 0.0
C308 C 0.02408 0.59738 0.724 0.0
C309 C 1.02112 0.65093 0.78434 0.0
C310 C 1.02296 0.58783 0.82538 0.0
C311 C 1.021 0.60934 0.90543 0.0
H312 H 0.97244 0.18093 0.00896 0.0
H313 H 0.9975 0.23703 0.2736 0.0
H314 H 0.98127 0.19336 0.38242 0.0
H315 H 0.97156 0.1372 0.39891 0.0
H316 H 0.96091 0.0791 0.13101 0.0
H317 H 0.96076 0.12515 0.02578 0.0
C318 C 0.97437 0.18372 0.09059 0.0
C319 C 0.98734 0.21203 0.13255 0.0
C320 C 0.96832 0.15775 0.15152 0.0
C321 C 0.98792 0.2156 0.2387 0.0
C322 C 0.9791 0.19044 0.30095 0.0
C323 C 0.96864 0.13464 0.31764 0.0
C324 C 0.96634 0.10495 0.2721 0.0
C325 C 0.97109 0.16106 0.25768 0.0
C326 C 0.96277 0.1018 0.16701 0.0
C327 C 0.96276 0.12809 0.10729 0.0
H328 H 0.36815 0.99332 -0.01158 0.0
H329 H 0.29549 0.95927 0.20435 0.0
H330 H 0.33702 0.94556 0.31776 0.0
H331 H 0.39455 0.94559 0.3559 0.0
H332 H 0.46404 0.97263 0.12172 0.0
H333 H 0.42216 0.98392 0.00936 0.0
C334 C 0.36053 0.98117 0.05691 0.0
C335 C 0.3281 0.9765 0.0849 0.0
C336 C 0.38404 0.97155 0.11767 0.0
C337 C 0.32001 0.96322 0.17964 0.0
C338 C 0.34379 0.95506 0.2442 0.0
C339 C 0.40034 0.95306 0.27911 0.0
C340 C 0.43232 0.95862 0.24721 0.0
C341 C 0.37595 0.9593 0.21393 0.0
C342 C 0.43967 0.96823 0.14791 0.0
C343 C 0.41575 0.97501 0.08404 0.0
H344 H 0.53217 0.32985 0.26113 0.0
H345 H 0.61981 0.34114 0.08899 0.0
H346 H 0.63093 0.39307 0.16381 0.0
H347 H 0.61021 0.43871 0.25441 0.0
H348 H 0.51676 0.42827 0.39376 0.0
H349 H 0.51287 0.37321 0.35472 0.0
C350 C 0.55443 0.34317 0.24408 0.0
C351 C 0.57542 0.33169 0.17167 0.0
C352 C 0.55874 0.3739 0.278 0.0
C353 C 0.60373 0.34938 0.14679 0.0
C354 C 0.60961 0.37934 0.18751 0.0
C355 C 0.5891 0.42421 0.27551 0.0
C356 C 0.5636 0.43741 0.32516 0.0
C357 C 0.58638 0.39249 0.24867 0.0
C358 C 0.53641 0.41859 0.35353 0.0
C359 C 0.53427 0.38705 0.33228 0.0
H360 H 0.22298 0.59386 0.12599 0.0
H361 H 0.25838 0.52047 0.29428 0.0
H362 H 0.21136 0.51859 0.40585 0.0
H363 H 0.15509 0.5276 0.42216 0.0
H364 H 0.11718 0.59741 0.2433 0.0
H365 H 0.16982 0.61029 0.16587 0.0
C366 C 0.221 0.57861 0.19054 0.0
C367 C 0.24342 0.55668 0.20042 0.0
C368 C 0.19263 0.57572 0.24781 0.0
C369 C 0.24121 0.53733 0.28472 0.0
C370 C 0.21391 0.53568 0.3467 0.0
C371 C 0.15845 0.54581 0.36675 0.0
C372 C 0.13235 0.56083 0.33507 0.0
C373 C 0.18853 0.55293 0.32313 0.0
C374 C 0.13697 0.58511 0.26641 0.0
C375 C 0.16702 0.59257 0.22294 0.0
H376 H 1.00876 0.85925 -0.00265 0.0
H377 H 0.10582 0.84443 0.92085 0.0
H378 H 0.11375 0.89713 0.85229 0.0
H379 H 0.09258 0.94827 0.82257 0.0
H380 H 0.99759 0.96314 0.92894 0.0
H381 H 0.98988 0.90996 0.98471 0.0
C382 C 0.03152 0.86742 0.96362 0.0
C383 C 0.05648 0.84804 0.96144 0.0
C384 C 0.03656 0.89811 0.9347 0.0
C385 C 0.0861 0.85882 0.92043 0.0
C386 C 0.09073 0.88908 0.88362 0.0
C387 C 0.07059 0.94003 0.8606 0.0
C388 C 0.0456 0.9595 0.87153 0.0
C389 C 0.06626 0.9092 0.89281 0.0
C390 C 1.01713 0.94858 0.92007 0.0
C391 C 1.01251 0.91807 0.95045 0.0
H392 H 0.66567 0.05585 0.10535 0.0
H393 H 0.7368 0.0748 0.86761 0.0
H394 H 0.69463 0.07839 0.74644 0.0
H395 H 0.6375 0.07041 0.70672 0.0
H396 H 0.56863 0.05556 0.95197 0.0
H397 H 0.61088 0.05842 0.07409 0.0
C398 C 0.67284 0.06249 0.02899 0.0
C399 C 0.7051 0.06506 -0.0026 0.0
C400 C 0.64875 0.06539 0.96086 0.0
C401 C 0.71247 0.07203 0.89508 0.0
C402 C 0.6883 0.07432 0.82554 0.0
C403 C 0.63182 0.06857 0.78724 0.0
C404 C 0.60014 0.06227 0.82067 0.0
C405 C 0.65634 0.0701 0.85729 0.0
C406 C 0.59287 0.06018 0.92472 0.0
C407 C 0.61701 0.06163 -0.00561 0.0
H408 H 0.46239 0.6701 0.11769 0.0
H409 H 0.49463 0.72111 0.851 0.0
H410 H 0.47686 0.67716 0.7438 0.0
H411 H 0.46535 0.62112 0.72876 0.0
H412 H 0.44972 0.56691 -0.00186 0.0
H413 H 0.44866 0.61444 0.10224 0.0
C414 C 0.46567 0.67171 0.03604 0.0
C415 C 0.48124 0.69862 -0.00661 0.0
C416 C 0.45906 0.64518 0.97568 0.0
C417 C 0.48316 0.70083 0.88699 0.0
C418 C 0.47346 0.6754 0.82538 0.0
C419 C 0.46096 0.61979 0.81003 0.0
C420 C 0.4575 0.5908 0.85649 0.0
C421 C 0.46342 0.64696 0.86936 0.0
C422 C 0.45224 0.58913 0.96159 0.0
C423 C 0.45183 0.61625 0.02063 0.0
H424 H 0.81743 0.51888 0.89461 0.0
H425 H 0.81705 0.42549 -0.00167 0.0
H426 H 0.86847 0.4201 0.91252 0.0
H427 H 0.91834 0.4464 0.84133 0.0
H428 H 0.92041 0.54333 0.77162 0.0
H429 H 0.8643 0.54346 0.81355 0.0
C430 C 0.82789 0.49683 0.8939 0.0
C431 C 0.81368 0.47265 0.95229 0.0
C432 C 0.85876 0.49529 0.85553 0.0
C433 C 0.82754 0.44428 0.95254 0.0
C434 C 0.85732 0.44157 0.90606 0.0
C435 C 0.90633 0.46742 0.83572 0.0
C436 C 0.92351 0.49497 0.80621 0.0
C437 C 0.87405 0.46765 0.86349 0.0
C438 C 0.90783 0.52205 0.7973 0.0
C439 C 0.87564 0.52208 0.81977 0.0
H440 H 0.02483 0.23042 0.72938 0.0
H441 H 0.09734 0.21266 0.93769 0.0
H442 H 0.10554 0.16372 0.84981 0.0
H443 H 0.08292 0.12104 0.73959 0.0
H444 H 1.01051 0.13951 0.53031 0.0
H445 H 1.01147 0.1928 0.59181 0.0
C446 C 0.04377 0.21674 0.7514 0.0
C447 C 0.06043 0.2251 0.83982 0.0
C448 C 0.04738 0.18798 0.70289 0.0
C449 C 0.08454 0.20689 0.86889 0.0
C450 C 0.08865 0.17848 0.82015 0.0
C451 C 0.06786 0.13693 0.70609 0.0
C452 C 0.04614 0.12601 0.63211 0.0
C453 C 0.06871 0.1679 0.74135 0.0
C454 C 0.02724 0.1471 0.58801 0.0
C455 C 0.02772 0.1777 0.62327 0.0
H456 H 0.32517 0.97761 0.6955 0.0
H457 H 0.32228 0.06996 0.81842 0.0
H458 H 0.37516 0.08401 0.74581 0.0
H459 H 0.42676 0.06636 0.68182 0.0
H460 H 0.43107 0.97058 0.59304 0.0
H461 H 0.37417 0.96139 0.61854 0.0
C462 C 0.33558 1.00123 0.70235 0.0
C463 C 0.31984 0.02253 0.76352 0.0
C464 C 0.36723 1.0081 0.66993 0.0
C465 C 0.33363 0.05305 0.77157 0.0
C466 C 0.36436 0.06085 0.73235 0.0
C467 C 0.41511 0.04364 0.66667 0.0
C468 C 0.43331 0.01933 0.63334 0.0
C469 C 0.38219 0.03798 0.68736 0.0
C470 C 0.41778 0.98995 0.61535 0.0
C471 C 0.3851 0.98457 0.63096 0.0
H472 H 0.53741 0.3225 0.76781 0.0
H473 H 0.47137 0.33767 0.0136 0.0
H474 H 0.45841 0.38607 0.93817 0.0
H475 H 0.47327 0.42845 0.81721 0.0
H476 H 0.5402 0.41193 0.57292 0.0
H477 H 0.5451 0.36017 0.63176 0.0
C478 C 0.51896 0.33561 0.80171 0.0
C479 C 0.50499 0.32634 0.89499 0.0
C480 C 0.51251 0.3639 0.75971 0.0
C481 C 0.48182 0.344 0.94023 0.0
C482 C 0.47494 0.37205 0.89821 0.0
C483 C 0.48853 0.41334 0.7762 0.0
C484 C 0.50654 0.42449 0.6913 0.0
C485 C 0.49135 0.38302 0.81052 0.0
C486 C 0.52594 0.4043 0.63844 0.0
C487 C 0.52891 0.37449 0.67213 0.0
H488 H 0.19276 0.48606 0.98324 0.0
H489 H 0.24819 0.52914 0.73821 0.0
H490 H 0.20103 0.52626 0.63294 0.0
H491 H 0.14283 0.51903 0.62173 0.0
H492 H 0.08701 0.48093 0.87532 0.0
H493 H 0.13544 0.47506 0.96727 0.0
C494 C 0.19467 0.49414 0.90574 0.0
C495 C 0.22395 0.50799 0.86875 0.0
C496 C 0.16715 0.49424 0.84871 0.0
C497 C 0.22612 0.51817 0.76822 0.0
C498 C 0.19899 0.51702 0.70884 0.0
C499 C 0.14115 0.50914 0.69676 0.0
C500 C 0.11107 0.50074 0.74191 0.0
C501 C 0.16915 0.50638 0.75007 0.0
C502 C 0.10962 0.48789 0.83904 0.0
C503 C 0.13737 0.48442 0.89152 0.0
H504 H 0.0438 0.83425 0.36785 0.0
H505 H 0.96715 0.83859 0.16271 0.0
H506 H 0.95538 0.88889 0.23509 0.0
H507 H 0.97295 0.93572 0.33857 0.0
H508 H 0.05002 0.92977 0.54325 0.0
H509 H 0.05559 0.87673 0.48925 0.0
C510 C 0.02342 0.84544 0.34307 0.0
C511 C 1.00616 0.83248 0.261 0.0
C512 C 1.01764 0.87492 0.38232 0.0
C513 C 0.98032 0.84768 0.22757 0.0
C514 C 0.97411 0.8769 0.26722 0.0
C515 C 0.99075 0.92268 0.37162 0.0
C516 C 1.01125 0.93705 0.44398 0.0
C517 C 0.99366 0.89149 0.34125 0.0
C518 C 0.03389 0.91954 0.48723 0.0
C519 C 0.03714 0.88902 0.45661 0.0
H520 H 0.70176 0.97922 0.25621 0.0
H521 H 0.71528 0.06874 0.40235 0.0
H522 H 0.66333 0.0607 0.48747 0.0
H523 H 0.61013 0.03238 0.49266 0.0
H524 H 0.59739 0.94208 0.35027 0.0
H525 H 0.65243 0.94649 0.28982 0.0
C526 C 0.69408 0.99626 0.31091 0.0
C527 C 0.71255 0.02451 0.32299 0.0
C528 C 0.66357 0.99191 0.35672 0.0
C529 C 0.70179 0.04664 0.39265 0.0
C530 C 0.6717 0.04231 0.43959 0.0
C531 C 0.61956 1.01335 0.45087 0.0
C532 C 0.59931 0.9871 0.42542 0.0
C533 C 0.65169 1.01574 0.41781 0.0
C534 C 0.61216 0.96272 0.37037 0.0
C535 C 0.64378 0.96516 0.33585 0.0
H536 H 0.51836 0.71475 0.38772 0.0
H537 H 0.59239 0.69495 0.17232 0.0
H538 H 0.60031 0.64707 0.25974 0.0
H539 H 0.5783 0.60604 0.37604 0.0
H540 H 0.50413 0.62654 0.59149 0.0
H541 H 0.50408 0.6786 0.52616 0.0
C542 C 0.53746 0.70083 0.36369 0.0
C543 C 0.55498 0.70852 0.27436 0.0
C544 C 0.54093 0.6727 0.41206 0.0
C545 C 0.57908 0.68985 0.24215 0.0
C546 C 0.58306 0.66205 0.29079 0.0
C547 C 0.56254 0.6221 0.40973 0.0
C548 C 0.5408 0.6121 0.48731 0.0
C549 C 0.56284 0.65239 0.37222 0.0
C550 C 0.52094 0.63343 0.53133 0.0
C551 C 0.52087 0.66332 0.4939 0.0
H552 H 0.86495 0.53301 0.1401 0.0
H553 H 0.80855 0.51157 0.41011 0.0
H554 H 0.85646 0.51803 0.51241 0.0
H555 H 0.91486 0.52364 0.52055 0.0
H556 H 0.97105 0.54167 0.24655 0.0
H557 H 0.92268 0.54235 0.14991 0.0
C558 C 0.86308 0.53045 0.22186 0.0
C559 C 0.83323 0.52188 0.26775 0.0
C560 C 0.89077 0.5329 0.27878 0.0
C561 C 0.83111 0.51849 0.37337 0.0
C562 C 0.85858 0.52179 0.43138 0.0
C563 C 0.91665 0.52802 0.4398 0.0
C564 C 0.94682 0.53233 0.39086 0.0
C565 C 0.88864 0.52798 0.3843 0.0
C566 C 0.94838 0.5381 0.28628 0.0
C567 C 0.92067 0.53853 0.23093 0.0
loop_
_geom_bond_atom_site_label_1
_geom_bond_atom_site_label_2
_geom_bond_distance
_geom_bond_site_symmetry_2
_ccdc_geom_bond_type
H0 C7 0.929 . S
H1 C10 0.930 1_556 S
H2 C12 0.929 . S
H3 C4 0.969 1_556 S
C4 H3 0.969 1_554 S
C4 O5 1.550 . S
C4 H6 0.973 1_554 S
O5 C4 1.550 . S
O5 C11 1.412 . S
H6 C4 0.973 1_556 S
C7 H0 0.929 . S
C7 C8 1.400 . S
C7 C9 1.364 . S
C8 C7 1.400 . S
C8 C12 1.377 . S
C9 C7 1.364 . S
C9 C10 1.374 . S
C10 H1 0.930 1_554 S
C10 C9 1.374 . S
C10 C11 1.383 . S
C11 O5 1.412 . S
C11 C10 1.383 . S
C11 C12 1.394 . S
C12 H2 0.929 . S
C12 C8 1.377 . S
C12 C11 1.394 . S
H13 C20 0.928 1_655 S
H14 C23 0.931 . S
H15 C25 0.930 1_655 S
H16 C17 0.969 . S
C17 H16 0.969 . S
C17 O18 1.550 1_456 S
C17 H19 0.973 1_455 S
O18 C17 1.550 1_654 S
O18 C24 1.407 1_655 S
H19 C17 0.973 1_655 S
C20 H13 0.928 1_455 S
C20 C21 1.398 . S
C20 C22 1.366 . S
C21 C20 1.398 . S
C21 C25 1.378 . S
C22 C20 1.366 . S
C22 C23 1.375 1_454 S
C23 H14 0.931 . S
C23 C22 1.375 1_656 S
C23 C24 1.379 1_656 S
C24 O18 1.407 1_455 S
C24 C23 1.379 1_454 S
C24 C25 1.394 . S
C25 H15 0.930 1_455 S
C25 C21 1.378 . S
C25 C24 1.394 . S
H26 C33 0.929 . S
H27 C36 0.930 . S
H28 C38 0.929 . S
H29 C30 0.969 . S
C30 H29 0.969 . S
C30 O31 1.550 1_556 S
C30 H32 0.973 . S
O31 C30 1.550 1_554 S
O31 C37 1.412 . S
H32 C30 0.973 . S
C33 H26 0.929 . S
C33 C34 1.400 . S
C33 C35 1.364 1_554 S
C34 C33 1.400 . S
C34 C38 1.377 . S
C35 C33 1.364 1_556 S
C35 C36 1.374 . S
C36 H27 0.930 . S
C36 C35 1.374 . S
C36 C37 1.383 1_556 S
C37 O31 1.412 . S
C37 C36 1.383 1_554 S
C37 C38 1.394 . S
C38 H28 0.929 . S
C38 C34 1.377 . S
C38 C37 1.394 . S
H39 C46 0.929 . S
H40 C49 0.930 1_556 S
H41 C51 0.929 . S
H42 C43 0.969 . S
C43 H42 0.969 . S
C43 O44 1.550 . S
C43 H45 0.973 1_554 S
O44 C43 1.550 . S
O44 C50 1.412 . S
H45 C43 0.973 1_556 S
C46 H39 0.929 . S
C46 C47 1.400 . S
C46 C48 1.364 . S
C47 C46 1.400 . S
C47 C51 1.377 . S
C48 C46 1.364 . S
C48 C49 1.374 . S
C49 H40 0.930 1_554 S
C49 C48 1.374 . S
C49 C50 1.383 . S
C50 O44 1.412 . S
C50 C49 1.383 . S
C50 C51 1.394 . S
C51 H41 0.929 . S
C51 C47 1.377 . S
C51 C50 1.394 . S
H52 C59 0.929 . S
H53 C62 0.930 . S
H54 C64 0.929 . S
H55 C56 0.969 . S
C56 H55 0.969 . S
C56 O57 1.550 . S
C56 H58 0.973 . S
O57 C56 1.550 . S
O57 C63 1.412 . S
H58 C56 0.973 . S
C59 H52 0.929 . S
C59 C60 1.400 1_554 S
C59 C61 1.364 . S
C60 C59 1.400 1_556 S
C60 C64 1.377 . S
C61 C59 1.364 . S
C61 C62 1.374 . S
C62 H53 0.930 . S
C62 C61 1.374 . S
C62 C63 1.383 . S
C63 O57 1.412 . S
C63 C62 1.383 . S
C63 C64 1.394 1_554 S
C64 H54 0.929 . S
C64 C60 1.377 . S
C64 C63 1.394 1_556 S
H65 C72 0.929 1_655 S
H66 C75 0.929 . S
H67 C77 0.927 1_655 S
H68 C69 0.969 . S
C69 H68 0.969 . S
C69 O70 1.550 1_455 S
C69 H71 0.973 1_455 S
O70 C69 1.550 1_655 S
O70 C76 1.399 1_655 S
H71 C69 0.973 1_655 S
C72 H65 0.929 1_455 S
C72 C73 1.401 1_554 S
C72 C74 1.364 . S
C73 C72 1.401 1_556 S
C73 C77 1.376 . S
C74 C72 1.364 . S
C74 C75 1.373 1_455 S
C75 H66 0.929 . S
C75 C74 1.373 1_655 S
C75 C76 1.385 1_655 S
C76 O70 1.399 1_455 S
C76 C75 1.385 1_455 S
C76 C77 1.394 1_554 S
C77 H67 0.927 1_455 S
C77 C73 1.376 . S
C77 C76 1.394 1_556 S
H78 C85 0.929 . S
H79 C88 0.930 . S
H80 C90 0.929 . S
H81 C82 0.969 . S
C82 H81 0.969 . S
C82 O83 1.550 . S
C82 H84 0.973 . S
O83 C82 1.550 . S
O83 C89 1.412 . S
H84 C82 0.973 . S
C85 H78 0.929 . S
C85 C86 1.400 1_554 S
C85 C87 1.364 . S
C86 C85 1.400 1_556 S
C86 C90 1.377 . S
C87 C85 1.364 . S
C87 C88 1.374 . S
C88 H79 0.930 . S
C88 C87 1.374 . S
C88 C89 1.383 . S
C89 O83 1.412 . S
C89 C88 1.383 . S
C89 C90 1.394 1_554 S
C90 H80 0.929 . S
C90 C86 1.377 . S
C90 C89 1.394 1_556 S
H91 C98 0.929 . S
H92 C101 0.930 . S
H93 C103 0.929 . S
H94 C95 0.969 . S
C95 H94 0.969 . S
C95 O96 1.550 . S
C95 H97 0.973 . S
O96 C95 1.550 . S
O96 C102 1.412 . S
H97 C95 0.973 . S
C98 H91 0.929 . S
C98 C99 1.400 . S
C98 C100 1.364 1_556 S
C99 C98 1.400 . S
C99 C103 1.377 . S
C100 C98 1.364 1_554 S
C100 C101 1.374 . S
C101 H92 0.930 . S
C101 C100 1.374 . S
C101 C102 1.383 . S
C102 O96 1.412 . S
C102 C101 1.383 . S
C102 C103 1.394 1_554 S
C103 H93 0.929 . S
C103 C99 1.377 . S
C103 C102 1.394 1_556 S
Dy104 O108 2.398 . S
Dy104 O109 2.491 1_455 S
Dy104 O110 2.403 . S
Dy104 O111 2.664 1_565 S
Dy104 O115 2.326 . S
Dy104 O119 2.310 1_455 S
Dy104 O120 2.351 1_565 S
C105 O116 1.185 . S
C105 O117 1.355 1_655 S
C106 O108 1.185 . S
C106 O109 1.355 1_455 S
Dy107 O111 2.310 1_655 S
Dy107 O114 2.351 1_545 S
Dy107 O116 2.398 . S
Dy107 O117 2.491 1_655 S
Dy107 O118 2.403 . S
Dy107 O119 2.664 1_545 S
Dy107 O121 2.326 . S
O108 Dy104 2.398 . S
O108 C106 1.185 . S
O109 Dy104 2.491 1_655 S
O109 C106 1.355 1_655 S
O110 Dy104 2.403 . S
O110 C112 1.254 1_565 S
O111 Dy104 2.664 1_545 S
O111 Dy107 2.310 1_455 S
O111 C112 1.268 . S
C112 O110 1.254 1_545 S
C112 O111 1.268 . S
C113 O118 1.254 1_565 S
C113 O119 1.268 . S
O114 Dy107 2.351 1_565 S
O114 C122 1.249 . S
O115 Dy104 2.326 . S
O115 C122 1.267 1_455 S
O116 C105 1.185 . S
O116 Dy107 2.398 . S
O117 C105 1.355 1_455 S
O117 Dy107 2.491 1_455 S
O118 Dy107 2.403 . S
O118 C113 1.254 1_545 S
O119 Dy104 2.310 1_655 S
O119 Dy107 2.664 1_565 S
O119 C113 1.268 . S
O120 Dy104 2.351 1_545 S
O120 C123 1.249 . S
O121 Dy107 2.326 . S
O121 C123 1.267 1_655 S
C122 O114 1.249 . S
C122 O115 1.267 1_655 S
C123 O120 1.249 . S
C123 O121 1.267 1_455 S
Dy124 O128 2.398 . S
Dy124 O129 2.491 1_565 S
Dy124 O130 2.403 . S
Dy124 O131 2.664 . S
Dy124 O135 2.326 1_565 S
Dy124 O139 2.310 1_565 S
Dy124 O140 2.351 . S
C125 O136 1.185 . S
C125 O137 1.355 1_545 S
C126 O128 1.185 1_545 S
C126 O129 1.355 . S
Dy127 O131 2.310 1_545 S
Dy127 O134 2.351 . S
Dy127 O136 2.398 . S
Dy127 O137 2.491 1_545 S
Dy127 O138 2.403 . S
Dy127 O139 2.664 . S
Dy127 O141 2.326 1_545 S
O128 Dy124 2.398 . S
O128 C126 1.185 1_565 S
O129 Dy124 2.491 1_545 S
O129 C126 1.355 . S
O130 Dy124 2.403 . S
O130 C132 1.254 . S
O131 Dy124 2.664 . S
O131 Dy127 2.310 1_565 S
O131 C132 1.268 . S
C132 O130 1.254 . S
C132 O131 1.268 . S
C133 O138 1.254 . S
C133 O139 1.268 . S
O134 Dy127 2.351 . S
O134 C142 1.249 . S
O135 Dy124 2.326 1_545 S
O135 C142 1.267 . S
O136 C125 1.185 . S
O136 Dy127 2.398 . S
O137 C125 1.355 1_565 S
O137 Dy127 2.491 1_565 S
O138 Dy127 2.403 . S
O138 C133 1.254 . S
O139 Dy124 2.310 1_545 S
O139 Dy127 2.664 . S
O139 C133 1.268 . S
O140 Dy124 2.351 . S
O140 C143 1.249 . S
O141 Dy127 2.326 1_565 S
O141 C143 1.267 . S
C142 O134 1.249 . S
C142 O135 1.267 . S
C143 O140 1.249 . S
C143 O141 1.267 . S
Dy144 O148 2.398 . S
Dy144 O149 2.491 . S
Dy144 O150 2.403 . S
Dy144 O151 2.664 . S
Dy144 O155 2.326 . S
Dy144 O159 2.310 . S
Dy144 O160 2.351 . S
C145 O156 1.185 . S
C145 O157 1.355 . S
C146 O148 1.185 . S
C146 O149 1.355 . S
Dy147 O151 2.310 . S
Dy147 O154 2.351 . S
Dy147 O156 2.398 . S
Dy147 O157 2.491 . S
Dy147 O158 2.403 . S
Dy147 O159 2.664 . S
Dy147 O161 2.326 . S
O148 Dy144 2.398 . S
O148 C146 1.185 . S
O149 Dy144 2.491 . S
O149 C146 1.355 . S
O150 Dy144 2.403 . S
O150 C152 1.254 . S
O151 Dy144 2.664 . S
O151 Dy147 2.310 . S
O151 C152 1.268 . S
C152 O150 1.254 . S
C152 O151 1.268 . S
C153 O158 1.254 . S
C153 O159 1.268 . S
O154 Dy147 2.351 . S
O154 C162 1.249 . S
O155 Dy144 2.326 . S
O155 C162 1.267 . S
O156 C145 1.185 . S
O156 Dy147 2.398 . S
O157 C145 1.355 . S
O157 Dy147 2.491 . S
O158 Dy147 2.403 . S
O158 C153 1.254 . S
O159 Dy144 2.310 . S
O159 Dy147 2.664 . S
O159 C153 1.268 . S
O160 Dy144 2.351 . S
O160 C163 1.249 . S
O161 Dy147 2.326 . S
O161 C163 1.267 . S
C162 O154 1.249 . S
C162 O155 1.267 . S
C163 O160 1.249 . S
C163 O161 1.267 . S
Dy164 O168 2.398 . S
Dy164 O169 2.491 . S
Dy164 O170 2.403 . S
Dy164 O171 2.664 1_655 S
Dy164 O175 2.326 . S
Dy164 O179 2.310 . S
Dy164 O180 2.351 1_655 S
C165 O176 1.185 . S
C165 O177 1.355 . S
C166 O168 1.185 . S
C166 O169 1.355 . S
Dy167 O171 2.310 . S
Dy167 O174 2.351 1_455 S
Dy167 O176 2.398 . S
Dy167 O177 2.491 . S
Dy167 O178 2.403 . S
Dy167 O179 2.664 1_455 S
Dy167 O181 2.326 . S
O168 Dy164 2.398 . S
O168 C166 1.185 . S
O169 Dy164 2.491 . S
O169 C166 1.355 . S
O170 Dy164 2.403 . S
O170 C172 1.254 . S
O171 Dy164 2.664 1_455 S
O171 Dy167 2.310 . S
O171 C172 1.268 1_455 S
C172 O170 1.254 . S
C172 O171 1.268 1_655 S
C173 O178 1.254 . S
C173 O179 1.268 1_455 S
O174 Dy167 2.351 1_655 S
O174 C182 1.249 . S
O175 Dy164 2.326 . S
O175 C182 1.267 . S
O176 C165 1.185 . S
O176 Dy167 2.398 . S
O177 C165 1.355 . S
O177 Dy167 2.491 . S
O178 Dy167 2.403 . S
O178 C173 1.254 . S
O179 Dy164 2.310 . S
O179 Dy167 2.664 1_655 S
O179 C173 1.268 1_655 S
O180 Dy164 2.351 1_455 S
O180 C183 1.249 . S
O181 Dy167 2.326 . S
O181 C183 1.267 . S
C182 O174 1.249 . S
C182 O175 1.267 . S
C183 O180 1.249 . S
C183 O181 1.267 . S
H184 C190 0.930 . S
H185 C193 0.930 . S
H186 C194 0.930 . S
H187 C195 0.930 . S
H188 C198 0.930 . S
H189 C199 0.930 . S
C190 H184 0.930 . S
C190 C191 1.355 . S
C190 C192 1.415 . S
C191 C190 1.355 . S
C191 C193 1.419 . S
C192 C190 1.415 . S
C192 C197 1.425 . S
C192 C199 1.409 . S
C193 H185 0.930 . S
C193 C191 1.419 . S
C193 C194 1.362 . S
C194 H186 0.930 . S
C194 C193 1.362 . S
C194 C197 1.409 . S
C195 H187 0.930 . S
C195 C196 1.355 . S
C195 C197 1.415 . S
C196 C195 1.355 . S
C196 C198 1.419 . S
C197 C192 1.425 . S
C197 C194 1.409 . S
C197 C195 1.415 . S
C198 H188 0.930 . S
C198 C196 1.419 . S
C198 C199 1.362 . S
C199 H189 0.930 . S
C199 C192 1.409 . S
C199 C198 1.362 . S
H200 C206 0.930 . S
H201 C209 0.930 . S
H202 C210 0.930 . S
H203 C211 0.930 . S
H204 C214 0.930 . S
H205 C215 0.930 . S
C206 H200 0.930 . S
C206 C207 1.355 . S
C206 C208 1.415 . S
C207 C206 1.355 . S
C207 C209 1.419 . S
C208 C206 1.415 . S
C208 C213 1.425 . S
C208 C215 1.409 . S
C209 H201 0.930 . S
C209 C207 1.419 . S
C209 C210 1.362 . S
C210 H202 0.930 . S
C210 C209 1.362 . S
C210 C213 1.409 . S
C211 H203 0.930 . S
C211 C212 1.355 . S
C211 C213 1.415 . S
C212 C211 1.355 . S
C212 C214 1.419 . S
C213 C208 1.425 . S
C213 C210 1.409 . S
C213 C211 1.415 . S
C214 H204 0.930 . S
C214 C212 1.419 . S
C214 C215 1.362 . S
C215 H205 0.930 . S
C215 C208 1.409 . S
C215 C214 1.362 . S
H216 C222 0.930 . S
H217 C225 0.930 . S
H218 C226 0.930 . S
H219 C227 0.930 . S
H220 C230 0.930 . S
H221 C231 0.930 . S
C222 H216 0.930 . S
C222 C223 1.355 . S
C222 C224 1.415 . S
C223 C222 1.355 . S
C223 C225 1.419 . S
C224 C222 1.415 . S
C224 C229 1.425 . S
C224 C231 1.409 . S
C225 H217 0.930 . S
C225 C223 1.419 . S
C225 C226 1.362 . S
C226 H218 0.930 . S
C226 C225 1.362 . S
C226 C229 1.409 . S
C227 H219 0.930 . S
C227 C228 1.355 . S
C227 C229 1.415 . S
C228 C227 1.355 . S
C228 C230 1.419 . S
C229 C224 1.425 . S
C229 C226 1.409 . S
C229 C227 1.415 . S
C230 H220 0.930 . S
C230 C228 1.419 . S
C230 C231 1.362 . S
C231 H221 0.930 . S
C231 C224 1.409 . S
C231 C230 1.362 . S
H232 C238 0.930 . S
H233 C241 0.930 . S
H234 C242 0.930 . S
H235 C243 0.930 . S
H236 C246 0.930 . S
H237 C247 0.930 . S
C238 H232 0.930 . S
C238 C239 1.355 1_455 S
C238 C240 1.415 . S
C239 C238 1.355 1_655 S
C239 C241 1.419 . S
C240 C238 1.415 . S
C240 C245 1.425 1_455 S
C240 C247 1.409 . S
C241 H233 0.930 . S
C241 C239 1.419 . S
C241 C242 1.362 . S
C242 H234 0.930 . S
C242 C241 1.362 . S
C242 C245 1.409 . S
C243 H235 0.930 . S
C243 C244 1.348 1_655 S
C243 C245 1.415 . S
C244 C243 1.348 1_455 S
C244 C246 1.429 . S
C245 C240 1.425 1_655 S
C245 C242 1.409 . S
C245 C243 1.415 . S
C246 H236 0.930 . S
C246 C244 1.429 . S
C246 C247 1.362 . S
C247 H237 0.930 . S
C247 C240 1.409 . S
C247 C246 1.362 . S
H248 C254 0.930 1_554 S
H249 C257 0.930 . S
H250 C258 0.930 . S
H251 C259 0.930 . S
H252 C262 0.930 1_545 S
H253 C263 0.930 . S
C254 H248 0.930 1_556 S
C254 C255 1.355 . S
C254 C256 1.415 . S
C255 C254 1.355 . S
C255 C257 1.419 . S
C256 C254 1.415 . S
C256 C261 1.425 . S
C256 C263 1.409 . S
C257 H249 0.930 . S
C257 C255 1.419 . S
C257 C258 1.362 . S
C258 H250 0.930 . S
C258 C257 1.362 . S
C258 C261 1.409 . S
C259 H251 0.930 . S
C259 C260 1.355 . S
C259 C261 1.415 . S
C260 C259 1.355 . S
C260 C262 1.419 . S
C261 C256 1.425 . S
C261 C258 1.409 . S
C261 C259 1.415 . S
C262 H252 0.930 1_565 S
C262 C260 1.419 . S
C262 C263 1.362 . S
C263 H253 0.930 . S
C263 C256 1.409 . S
C263 C262 1.362 . S
H264 C270 0.930 . S
H265 C273 0.930 . S
H266 C274 0.932 . S
H267 C275 0.930 . S
H268 C278 0.930 . S
H269 C279 0.930 . S
C270 H264 0.930 . S
C270 C271 1.355 1_556 S
C270 C272 1.415 . S
C271 C270 1.355 1_554 S
C271 C273 1.419 . S
C272 C270 1.415 . S
C272 C277 1.425 . S
C272 C279 1.409 . S
C273 H265 0.930 . S
C273 C271 1.419 . S
C273 C274 1.364 . S
C274 H266 0.932 . S
C274 C273 1.364 . S
C274 C277 1.406 1_554 S
C275 H267 0.930 . S
C275 C276 1.355 . S
C275 C277 1.415 . S
C276 C275 1.355 . S
C276 C278 1.419 . S
C277 C272 1.425 . S
C277 C274 1.406 1_556 S
C277 C275 1.415 . S
C278 H268 0.930 . S
C278 C276 1.419 . S
C278 C279 1.362 . S
C279 H269 0.930 . S
C279 C272 1.409 . S
C279 C278 1.362 . S
H280 C286 0.930 1_554 S
H281 C289 0.930 . S
H282 C290 0.930 . S
H283 C291 0.930 . S
H284 C294 0.930 . S
H285 C295 0.930 . S
C286 H280 0.930 1_556 S
C286 C287 1.355 . S
C286 C288 1.415 . S
C287 C286 1.355 . S
C287 C289 1.419 . S
C288 C286 1.415 . S
C288 C293 1.425 . S
C288 C295 1.409 . S
C289 H281 0.930 . S
C289 C287 1.419 . S
C289 C290 1.362 . S
C290 H282 0.930 . S
C290 C289 1.362 . S
C290 C293 1.409 . S
C291 H283 0.930 . S
C291 C292 1.355 . S
C291 C293 1.415 . S
C292 C291 1.355 . S
C292 C294 1.419 . S
C293 C288 1.425 . S
C293 C290 1.409 . S
C293 C291 1.415 . S
C294 H284 0.930 . S
C294 C292 1.419 . S
C294 C295 1.362 . S
C295 H285 0.930 . S
C295 C288 1.409 . S
C295 C294 1.362 . S
H296 C302 0.930 1_554 S
H297 C305 0.930 . S
H298 C306 0.930 . S
H299 C307 0.930 . S
H300 C310 0.930 . S
H301 C311 0.930 . S
C302 H296 0.930 1_556 S
C302 C303 1.355 1_655 S
C302 C304 1.415 . S
C303 C302 1.355 1_455 S
C303 C305 1.419 . S
C304 C302 1.415 . S
C304 C309 1.425 1_655 S
C304 C311 1.409 . S
C305 H297 0.930 . S
C305 C303 1.419 . S
C305 C306 1.362 . S
C306 H298 0.930 . S
C306 C305 1.362 . S
C306 C309 1.409 . S
C307 H299 0.930 . S
C307 C308 1.355 1_455 S
C307 C309 1.415 . S
C308 C307 1.355 1_655 S
C308 C310 1.419 . S
C309 C304 1.425 1_455 S
C309 C306 1.409 . S
C309 C307 1.415 . S
C310 H300 0.930 . S
C310 C308 1.419 . S
C310 C311 1.362 . S
C311 H301 0.930 . S
C311 C304 1.409 . S
C311 C310 1.362 . S
H312 C318 0.930 . S
H313 C321 0.930 . S
H314 C322 0.930 . S
H315 C323 0.930 . S
H316 C326 0.930 . S
H317 C327 0.930 . S
C318 H312 0.930 . S
C318 C319 1.355 1_655 S
C318 C320 1.415 . S
C319 C318 1.355 1_455 S
C319 C321 1.419 . S
C320 C318 1.415 . S
C320 C325 1.425 1_655 S
C320 C327 1.409 . S
C321 H313 0.930 . S
C321 C319 1.419 . S
C321 C322 1.362 . S
C322 H314 0.930 . S
C322 C321 1.362 . S
C322 C325 1.409 . S
C323 H315 0.930 . S
C323 C324 1.355 1_455 S
C323 C325 1.415 . S
C324 C323 1.355 1_655 S
C324 C326 1.419 . S
C325 C320 1.425 1_455 S
C325 C322 1.409 . S
C325 C323 1.415 . S
C326 H316 0.930 . S
C326 C324 1.419 . S
C326 C327 1.362 . S
C327 H317 0.930 . S
C327 C320 1.409 . S
C327 C326 1.362 . S
H328 C334 0.930 . S
H329 C337 0.930 . S
H330 C338 0.930 1_565 S
H331 C339 0.930 1_565 S
H332 C342 0.930 . S
H333 C343 0.930 . S
C334 H328 0.930 . S
C334 C335 1.355 . S
C334 C336 1.415 . S
C335 C334 1.355 . S
C335 C337 1.419 . S
C336 C334 1.415 . S
C336 C341 1.425 . S
C336 C343 1.409 . S
C337 H329 0.930 . S
C337 C335 1.419 . S
C337 C338 1.362 . S
C338 H330 0.930 1_545 S
C338 C337 1.362 . S
C338 C341 1.409 . S
C339 H331 0.930 1_545 S
C339 C340 1.355 . S
C339 C341 1.415 . S
C340 C339 1.355 . S
C340 C342 1.419 . S
C341 C336 1.425 . S
C341 C338 1.409 . S
C341 C339 1.415 . S
C342 H332 0.930 . S
C342 C340 1.419 . S
C342 C343 1.362 . S
C343 H333 0.930 . S
C343 C336 1.409 . S
C343 C342 1.362 . S
H344 C350 0.930 . S
H345 C353 0.930 . S
H346 C354 0.930 . S
H347 C355 0.930 . S
H348 C358 0.930 . S
H349 C359 0.930 . S
C350 H344 0.930 . S
C350 C351 1.355 . S
C350 C352 1.415 . S
C351 C350 1.355 . S
C351 C353 1.419 . S
C352 C350 1.415 . S
C352 C357 1.425 . S
C352 C359 1.409 . S
C353 H345 0.930 . S
C353 C351 1.419 . S
C353 C354 1.362 . S
C354 H346 0.930 . S
C354 C353 1.362 . S
C354 C357 1.409 . S
C355 H347 0.930 . S
C355 C356 1.355 . S
C355 C357 1.415 . S
C356 C355 1.355 . S
C356 C358 1.419 . S
C357 C352 1.425 . S
C357 C354 1.409 . S
C357 C355 1.415 . S
C358 H348 0.930 . S
C358 C356 1.419 . S
C358 C359 1.362 . S
C359 H349 0.930 . S
C359 C352 1.409 . S
C359 C358 1.362 . S
H360 C366 0.930 . S
H361 C369 0.930 . S
H362 C370 0.930 . S
H363 C371 0.930 . S
H364 C374 0.930 . S
H365 C375 0.930 . S
C366 H360 0.930 . S
C366 C367 1.355 . S
C366 C368 1.415 . S
C367 C366 1.355 . S
C367 C369 1.419 . S
C368 C366 1.415 . S
C368 C373 1.425 . S
C368 C375 1.409 . S
C369 H361 0.930 . S
C369 C367 1.419 . S
C369 C370 1.362 . S
C370 H362 0.930 . S
C370 C369 1.362 . S
C370 C373 1.409 . S
C371 H363 0.930 . S
C371 C372 1.355 . S
C371 C373 1.415 . S
C372 C371 1.355 . S
C372 C374 1.419 . S
C373 C368 1.425 . S
C373 C370 1.409 . S
C373 C371 1.415 . S
C374 H364 0.930 . S
C374 C372 1.419 . S
C374 C375 1.362 . S
C375 H365 0.930 . S
C375 C368 1.409 . S
C375 C374 1.362 . S
H376 C382 0.930 . S
H377 C385 0.930 . S
H378 C386 0.930 . S
H379 C387 0.930 . S
H380 C390 0.930 . S
H381 C391 0.930 . S
C382 H376 0.930 . S
C382 C383 1.355 1_655 S
C382 C384 1.415 . S
C383 C382 1.355 1_455 S
C383 C385 1.419 . S
C384 C382 1.415 . S
C384 C389 1.425 1_655 S
C384 C391 1.409 . S
C385 H377 0.930 . S
C385 C383 1.419 . S
C385 C386 1.362 . S
C386 H378 0.930 . S
C386 C385 1.362 . S
C386 C389 1.409 . S
C387 H379 0.930 . S
C387 C388 1.355 . S
C387 C389 1.415 . S
C388 C387 1.355 . S
C388 C390 1.419 1_455 S
C389 C384 1.425 1_455 S
C389 C386 1.409 . S
C389 C387 1.415 . S
C390 H380 0.930 . S
C390 C388 1.419 1_655 S
C390 C391 1.362 . S
C391 H381 0.930 . S
C391 C384 1.409 . S
C391 C390 1.362 . S
H392 C398 0.930 . S
H393 C401 0.928 1_545 S
H394 C402 0.930 . S
H395 C403 0.930 . S
H396 C406 0.930 . S
H397 C407 0.930 . S
C398 H392 0.930 . S
C398 C399 1.355 . S
C398 C400 1.415 . S
C399 C398 1.355 . S
C399 C401 1.419 . S
C400 C398 1.415 . S
C400 C405 1.425 . S
C400 C407 1.409 . S
C401 H393 0.928 1_565 S
C401 C399 1.419 . S
C401 C402 1.362 1_565 S
C402 H394 0.930 . S
C402 C401 1.362 1_545 S
C402 C405 1.409 1_545 S
C403 H395 0.930 . S
C403 C404 1.355 1_545 S
C403 C405 1.415 1_545 S
C404 C403 1.355 1_565 S
C404 C406 1.419 . S
C405 C400 1.425 . S
C405 C402 1.409 1_565 S
C405 C403 1.415 1_565 S
C406 H396 0.930 . S
C406 C404 1.419 . S
C406 C407 1.362 . S
C407 H397 0.930 . S
C407 C400 1.409 . S
C407 C406 1.362 . S
H408 C414 0.930 . S
H409 C417 0.930 . S
H410 C418 0.930 . S
H411 C419 0.930 . S
H412 C422 0.930 . S
H413 C423 0.930 . S
C414 H408 0.930 . S
C414 C415 1.355 1_556 S
C414 C416 1.415 . S
C415 C414 1.355 1_554 S
C415 C417 1.419 . S
C416 C414 1.415 . S
C416 C421 1.425 . S
C416 C423 1.409 . S
C417 H409 0.930 . S
C417 C415 1.419 . S
C417 C418 1.362 . S
C418 H410 0.930 . S
C418 C417 1.362 . S
C418 C421 1.409 1_554 S
C419 H411 0.930 . S
C419 C420 1.355 . S
C419 C421 1.415 . S
C420 C419 1.355 . S
C420 C422 1.419 . S
C421 C416 1.425 . S
C421 C418 1.409 1_556 S
C421 C419 1.415 . S
C422 H412 0.930 . S
C422 C420 1.419 . S
C422 C423 1.362 . S
C423 H413 0.930 . S
C423 C416 1.409 . S
C423 C422 1.362 . S
H424 C430 0.930 1_554 S
H425 C433 0.930 . S
H426 C434 0.930 . S
H427 C435 0.930 . S
H428 C438 0.930 . S
H429 C439 0.930 . S
C430 H424 0.930 1_556 S
C430 C431 1.355 . S
C430 C432 1.415 . S
C431 C430 1.355 . S
C431 C433 1.419 . S
C432 C430 1.415 . S
C432 C437 1.425 . S
C432 C439 1.409 . S
C433 H425 0.930 . S
C433 C431 1.419 . S
C433 C434 1.362 . S
C434 H426 0.930 . S
C434 C433 1.362 . S
C434 C437 1.409 . S
C435 H427 0.930 . S
C435 C436 1.355 . S
C435 C437 1.415 . S
C436 C435 1.355 . S
C436 C438 1.419 . S
C437 C432 1.425 . S
C437 C434 1.409 . S
C437 C435 1.415 . S
C438 H428 0.930 . S
C438 C436 1.419 . S
C438 C439 1.362 . S
C439 H429 0.930 . S
C439 C432 1.409 . S
C439 C438 1.362 . S
H440 C446 0.930 . S
H441 C449 0.930 . S
H442 C450 0.930 . S
H443 C451 0.930 . S
H444 C454 0.930 . S
H445 C455 0.930 . S
C446 H440 0.930 . S
C446 C447 1.355 1_655 S
C446 C448 1.415 . S
C447 C446 1.355 1_455 S
C447 C449 1.419 . S
C448 C446 1.415 . S
C448 C453 1.425 1_655 S
C448 C455 1.409 . S
C449 H441 0.930 . S
C449 C447 1.419 . S
C449 C450 1.362 . S
C450 H442 0.930 . S
C450 C449 1.362 . S
C450 C453 1.409 . S
C451 H443 0.930 . S
C451 C452 1.355 . S
C451 C453 1.415 . S
C452 C451 1.355 . S
C452 C454 1.419 1_455 S
C453 C448 1.425 1_455 S
C453 C450 1.409 . S
C453 C451 1.415 . S
C454 H444 0.930 . S
C454 C452 1.419 1_655 S
C454 C455 1.362 . S
C455 H445 0.930 . S
C455 C448 1.409 . S
C455 C454 1.362 . S
H456 C462 0.930 . S
H457 C465 0.930 . S
H458 C466 0.930 . S
H459 C467 0.930 . S
H460 C470 0.930 . S
H461 C471 0.930 . S
C462 H456 0.930 . S
C462 C463 1.355 . S
C462 C464 1.415 . S
C463 C462 1.355 . S
C463 C465 1.419 . S
C464 C462 1.415 . S
C464 C469 1.425 . S
C464 C471 1.409 1_545 S
C465 H457 0.930 . S
C465 C463 1.419 . S
C465 C466 1.362 . S
C466 H458 0.930 . S
C466 C465 1.362 . S
C466 C469 1.409 . S
C467 H459 0.930 . S
C467 C468 1.355 . S
C467 C469 1.415 . S
C468 C467 1.355 . S
C468 C470 1.419 1_545 S
C469 C464 1.425 . S
C469 C466 1.409 . S
C469 C467 1.415 . S
C470 H460 0.930 . S
C470 C468 1.419 1_565 S
C470 C471 1.362 . S
C471 H461 0.930 . S
C471 C464 1.409 1_565 S
C471 C470 1.362 . S
H472 C478 0.930 . S
H473 C481 0.930 . S
H474 C482 0.930 . S
H475 C483 0.930 . S
H476 C486 0.930 . S
H477 C487 0.930 . S
C478 H472 0.930 . S
C478 C479 1.355 . S
C478 C480 1.415 . S
C479 C478 1.355 . S
C479 C481 1.419 . S
C480 C478 1.415 . S
C480 C485 1.425 . S
C480 C487 1.409 . S
C481 H473 0.930 . S
C481 C479 1.419 . S
C481 C482 1.362 . S
C482 H474 0.930 . S
C482 C481 1.362 . S
C482 C485 1.409 . S
C483 H475 0.930 . S
C483 C484 1.355 . S
C483 C485 1.415 . S
C484 C483 1.355 . S
C484 C486 1.419 . S
C485 C480 1.425 . S
C485 C482 1.409 . S
C485 C483 1.415 . S
C486 H476 0.930 . S
C486 C484 1.419 . S
C486 C487 1.362 . S
C487 H477 0.930 . S
C487 C480 1.409 . S
C487 C486 1.362 . S
H488 C494 0.930 . S
H489 C497 0.930 . S
H490 C498 0.930 . S
H491 C499 0.930 . S
H492 C502 0.930 . S
H493 C503 0.930 . S
C494 H488 0.930 . S
C494 C495 1.355 . S
C494 C496 1.415 . S
C495 C494 1.355 . S
C495 C497 1.419 . S
C496 C494 1.415 . S
C496 C501 1.425 . S
C496 C503 1.409 . S
C497 H489 0.930 . S
C497 C495 1.419 . S
C497 C498 1.362 . S
C498 H490 0.930 . S
C498 C497 1.362 . S
C498 C501 1.409 . S
C499 H491 0.930 . S
C499 C500 1.355 . S
C499 C501 1.415 . S
C500 C499 1.355 . S
C500 C502 1.419 . S
C501 C496 1.425 . S
C501 C498 1.409 . S
C501 C499 1.415 . S
C502 H492 0.930 . S
C502 C500 1.419 . S
C502 C503 1.362 . S
C503 H493 0.930 . S
C503 C496 1.409 . S
C503 C502 1.362 . S
H504 C510 0.930 . S
H505 C513 0.930 . S
H506 C514 0.930 . S
H507 C515 0.930 . S
H508 C518 0.930 . S
H509 C519 0.930 . S
C510 H504 0.930 . S
C510 C511 1.355 1_455 S
C510 C512 1.415 . S
C511 C510 1.355 1_655 S
C511 C513 1.419 . S
C512 C510 1.415 . S
C512 C517 1.425 1_455 S
C512 C519 1.409 . S
C513 H505 0.930 . S
C513 C511 1.419 . S
C513 C514 1.362 . S
C514 H506 0.930 . S
C514 C513 1.362 . S
C514 C517 1.409 . S
C515 H507 0.930 . S
C515 C516 1.355 . S
C515 C517 1.415 . S
C516 C515 1.355 . S
C516 C518 1.419 1_655 S
C517 C512 1.425 1_655 S
C517 C514 1.409 . S
C517 C515 1.415 . S
C518 H508 0.930 . S
C518 C516 1.419 1_455 S
C518 C519 1.362 . S
C519 H509 0.930 . S
C519 C512 1.409 . S
C519 C518 1.362 . S
H520 C526 0.930 . S
H521 C529 0.930 1_545 S
H522 C530 0.930 . S
H523 C531 0.930 1_545 S
H524 C534 0.930 . S
H525 C535 0.930 . S
C526 H520 0.930 . S
C526 C527 1.355 . S
C526 C528 1.415 . S
C527 C526 1.355 . S
C527 C529 1.419 . S
C528 C526 1.415 . S
C528 C533 1.425 . S
C528 C535 1.409 . S
C529 H521 0.930 1_565 S
C529 C527 1.419 . S
C529 C530 1.362 1_565 S
C530 H522 0.930 . S
C530 C529 1.362 1_545 S
C530 C533 1.409 1_545 S
C531 H523 0.930 1_565 S
C531 C532 1.355 . S
C531 C533 1.415 . S
C532 C531 1.355 . S
C532 C534 1.419 . S
C533 C528 1.425 . S
C533 C530 1.409 1_565 S
C533 C531 1.415 . S
C534 H524 0.930 . S
C534 C532 1.419 . S
C534 C535 1.362 . S
C535 H525 0.930 . S
C535 C528 1.409 . S
C535 C534 1.362 . S
H536 C542 0.930 . S
H537 C545 0.930 . S
H538 C546 0.930 . S
H539 C547 0.930 . S
H540 C550 0.930 . S
H541 C551 0.930 . S
C542 H536 0.930 . S
C542 C543 1.355 . S
C542 C544 1.415 . S
C543 C542 1.355 . S
C543 C545 1.419 . S
C544 C542 1.415 . S
C544 C549 1.425 . S
C544 C551 1.409 . S
C545 H537 0.930 . S
C545 C543 1.419 . S
C545 C546 1.362 . S
C546 H538 0.930 . S
C546 C545 1.362 . S
C546 C549 1.409 . S
C547 H539 0.930 . S
C547 C548 1.355 . S
C547 C549 1.415 . S
C548 C547 1.355 . S
C548 C550 1.419 . S
C549 C544 1.425 . S
C549 C546 1.409 . S
C549 C547 1.415 . S
C550 H540 0.930 . S
C550 C548 1.419 . S
C550 C551 1.362 . S
C551 H541 0.930 . S
C551 C544 1.409 . S
C551 C550 1.362 . S
H552 C558 0.930 . S
H553 C561 0.930 . S
H554 C562 0.930 . S
H555 C563 0.930 . S
H556 C566 0.930 . S
H557 C567 0.930 . S
C558 H552 0.930 . S
C558 C559 1.355 . S
C558 C560 1.415 . S
C559 C558 1.355 . S
C559 C561 1.419 . S
C560 C558 1.415 . S
C560 C565 1.425 . S
C560 C567 1.409 . S
C561 H553 0.930 . S
C561 C559 1.419 . S
C561 C562 1.362 . S
C562 H554 0.930 . S
C562 C561 1.362 . S
C562 C565 1.409 . S
C563 H555 0.930 . S
C563 C564 1.355 . S
C563 C565 1.415 . S
C564 C563 1.355 . S
C564 C566 1.419 . S
C565 C560 1.425 . S
C565 C562 1.409 . S
C565 C563 1.415 . S
C566 H556 0.930 . S
C566 C564 1.419 . S
C566 C567 1.362 . S
C567 H557 0.930 . S
C567 C560 1.409 . S
C567 C566 1.362 . S
C191 C82 1.523 . S
C196 C112 1.711 . S
C212 C142 1.789 . S
C207 C95 1.625 . S
C228 C152 1.581 . S
C223 C56 1.407 . S
C244 C172 1.440 1_455 S
C239 C69 1.352 1_655 S
C260 C113 1.713 . S
C255 C30 1.472 . S
C271 C43 1.637 . S
C276 C143 1.802 . S
C287 C4 1.323 1_556 S
C292 C153 1.579 . S
C303 C17 1.233 . S
C308 C173 1.458 1_655 S
C324 C105 0.956 . S
C319 C74 0.926 . S
C340 C126 0.755 . S
C335 C87 0.748 . S
C356 C145 1.079 . S
C351 C100 1.025 . S
C367 C61 0.826 . S
C372 C165 0.874 . S
C383 C22 0.912 1_556 S
C388 C106 0.924 . S
C404 C125 0.750 1_565 S
C399 C35 0.734 . S
C420 C146 1.104 . S
C415 C48 1.026 . S
C431 C9 0.881 1_556 S
C436 C166 0.813 . S
C447 C73 1.501 . S
C452 C123 1.594 . S
C463 C86 1.398 . S
C468 C133 1.553 . S
C484 C163 1.796 . S
C479 C99 1.638 . S
C500 C183 1.784 . S
C495 C60 1.721 . S
C511 C21 1.539 1_655 S
C516 C122 1.592 . S
C532 C132 1.531 . S
C527 C34 1.383 . S
C548 C162 1.782 . S
C543 C47 1.667 . S
C559 C8 1.727 . S
C564 C182 1.800 . S
