# Generated by pormake.
# Topology nom, (4,4)-cn, num edge types: 1
# Building blocks:
#     Node 0, Type 0, BuildingBlock: GIZVER_clean_linker_0, # of connection points: 4
#     Node 1, Type 0, BuildingBlock: GIZVER_clean_linker_0, # of connection points: 4
#     Node 2, Type 0, BuildingBlock: GIZVER_clean_linker_0, # of connection points: 4
#     Node 3, Type 0, BuildingBlock: GIZVER_clean_linker_0, # of connection points: 4
#     Node 4, Type 0, BuildingBlock: GIZVER_clean_linker_0, # of connection points: 4
#     Node 5, Type 0, BuildingBlock: GIZVER_clean_linker_0, # of connection points: 4
#     Node 6, Type 1, BuildingBlock: QUQFOY_clean_sbu_3, # of connection points: 4
#     Node 7, Type 1, BuildingBlock: QUQFOY_clean_sbu_3, # of connection points: 4
#     Node 8, Type 1, BuildingBlock: QUQFOY_clean_sbu_3, # of connection points: 4
#     Node 9, Type 1, BuildingBlock: QUQFOY_clean_sbu_3, # of connection points: 4
#     Node 10, Type 1, BuildingBlock: QUQFOY_clean_sbu_3, # of connection points: 4
#     Node 11, Type 1, BuildingBlock: QUQFOY_clean_sbu_3, # of connection points: 4
#     Edge 12, Type (0, 1), BuildingBlock: MIFKUJ_clean_linker_0, # of connection points: 2
#     Edge 13, Type (0, 1), BuildingBlock: MIFKUJ_clean_linker_0, # of connection points: 2
#     Edge 14, Type (0, 1), BuildingBlock: MIFKUJ_clean_linker_0, # of connection points: 2
#     Edge 15, Type (0, 1), BuildingBlock: MIFKUJ_clean_linker_0, # of connection points: 2
#     Edge 16, Type (0, 1), BuildingBlock: MIFKUJ_clean_linker_0, # of connection points: 2
#     Edge 17, Type (0, 1), BuildingBlock: MIFKUJ_clean_linker_0, # of connection points: 2
#     Edge 18, Type (0, 1), BuildingBlock: MIFKUJ_clean_linker_0, # of connection points: 2
#     Edge 19, Type (0, 1), BuildingBlock: MIFKUJ_clean_linker_0, # of connection points: 2
#     Edge 20, Type (0, 1), BuildingBlock: MIFKUJ_clean_linker_0, # of connection points: 2
#     Edge 21, Type (0, 1), BuildingBlock: MIFKUJ_clean_linker_0, # of connection points: 2
#     Edge 22, Type (0, 1), BuildingBlock: MIFKUJ_clean_linker_0, # of connection points: 2
#     Edge 23, Type (0, 1), BuildingBlock: MIFKUJ_clean_linker_0, # of connection points: 2
#     Edge 24, Type (0, 1), BuildingBlock: MIFKUJ_clean_linker_0, # of connection points: 2
#     Edge 25, Type (0, 1), BuildingBlock: MIFKUJ_clean_linker_0, # of connection points: 2
#     Edge 26, Type (0, 1), BuildingBlock: MIFKUJ_clean_linker_0, # of connection points: 2
#     Edge 27, Type (0, 1), BuildingBlock: MIFKUJ_clean_linker_0, # of connection points: 2
#     Edge 28, Type (0, 1), BuildingBlock: MIFKUJ_clean_linker_0, # of connection points: 2
#     Edge 29, Type (0, 1), BuildingBlock: MIFKUJ_clean_linker_0, # of connection points: 2
#     Edge 30, Type (0, 1), BuildingBlock: MIFKUJ_clean_linker_0, # of connection points: 2
#     Edge 31, Type (0, 1), BuildingBlock: MIFKUJ_clean_linker_0, # of connection points: 2
#     Edge 32, Type (0, 1), BuildingBlock: MIFKUJ_clean_linker_0, # of connection points: 2
#     Edge 33, Type (0, 1), BuildingBlock: MIFKUJ_clean_linker_0, # of connection points: 2
#     Edge 34, Type (0, 1), BuildingBlock: MIFKUJ_clean_linker_0, # of connection points: 2
#     Edge 35, Type (0, 1), BuildingBlock: MIFKUJ_clean_linker_0, # of connection points: 2
# Relax obj value: 0.004
# Max RMSD: 0.067
# Mean RMSD: 0.046
data_MOF--net-nom--node1-QUQFOY_clean_sbu_3--node2-GIZVER_clean_linker_0--edge1-MIFKUJ_clean_linker_0
_symmetry_space_group_name_H-M    P1
_symmetry_Int_Tables_number       1
_symmetry_cell_setting            triclinic
loop_
_symmetry_equiv_pos_as_xyz
'x, y, z'
_cell_length_a     60.492265
_cell_length_b     61.850093
_cell_length_c     59.774683
_cell_angle_alpha  89.967635
_cell_angle_beta   89.998172
_cell_angle_gamma 119.97788
loop_
_atom_site_label
_atom_site_type_symbol
_atom_site_fract_x
_atom_site_fract_y
_atom_site_fract_z
_atom_type_partial_charge
H0 H 0.95829 0.53067 0.34444 0.0
H1 H 0.98766 0.53032 0.27891 0.0
H2 H 0.91219 0.47302 0.2976 0.0
H3 H 0.99596 0.5668 0.33177 0.0
H4 H 0.00218 0.57008 0.30249 0.0
H5 H 0.01494 0.54688 0.3559 0.0
H6 H 0.08835 0.56094 0.33325 0.0
H7 H 0.03726 0.56702 0.28721 0.0
C8 C 0.95633 0.52154 0.3285 0.0
C9 C 0.9331 0.50019 0.32302 0.0
C10 C 0.97621 0.53242 0.31267 0.0
C11 C 0.97283 0.52139 0.29144 0.0
C12 C 0.94982 0.49978 0.28592 0.0
C13 C 0.93038 0.48909 0.30201 0.0
C14 C -0.00078 0.55771 0.31707 0.0
C15 C 0.02306 0.55619 0.32094 0.0
C16 C 0.02851 0.55094 0.34247 0.0
C17 C 0.05197 0.55234 0.34696 0.0
C18 C 0.06964 0.55834 0.32953 0.0
C19 C 0.06464 0.56373 0.30795 0.0
C20 C 0.04112 0.56235 0.30368 0.0
H21 H 0.43867 0.96486 0.50801 0.0
H22 H 0.45684 0.98688 0.43907 0.0
H23 H 0.44986 0.91793 0.46194 0.0
H24 H 0.42988 0.99589 0.49196 0.0
H25 H 0.43406 0.00258 0.4628 0.0
H26 H 0.46438 0.01982 0.5185 0.0
H27 H 0.52459 0.09056 0.49547 0.0
H28 H 0.47502 0.03578 0.44773 0.0
C29 C 0.44392 0.96168 0.49151 0.0
C30 C 0.44493 0.93981 0.4873 0.0
C31 C 0.44843 0.97886 0.47418 0.0
C32 C 0.45422 0.97412 0.45258 0.0
C33 C 0.45511 0.95227 0.44809 0.0
C34 C 0.45082 0.93554 0.46563 0.0
C35 C 0.44348 0.00022 0.47785 0.0
C36 C 0.46769 0.02449 0.48252 0.0
C37 C 0.47534 0.03193 0.50479 0.0
C38 C 0.49578 0.05583 0.50936 0.0
C39 C 0.50937 0.07178 0.4917 0.0
C40 C 0.50222 0.06474 0.46943 0.0
C41 C 0.48129 0.04101 0.46486 0.0
H42 H 0.44117 0.47735 0.63181 0.0
H43 H 0.45553 0.48293 0.70256 0.0
H44 H 0.45762 0.54431 0.66689 0.0
H45 H 0.42776 0.4399 0.65555 0.0
H46 H 0.43625 0.44291 0.68437 0.0
H47 H 0.46005 0.44789 0.62585 0.0
H48 H 0.51988 0.43398 0.64601 0.0
H49 H 0.47623 0.44614 0.69599 0.0
C50 C 0.44667 0.48835 0.64701 0.0
C51 C 0.44935 0.51227 0.64691 0.0
C52 C 0.44967 0.47799 0.66698 0.0
C53 C 0.45499 0.49165 0.68701 0.0
C54 C 0.45744 0.5155 0.68725 0.0
C55 C 0.4558 0.52598 0.6669 0.0
C56 C 0.44346 0.45111 0.66754 0.0
C57 C 0.46626 0.44847 0.66158 0.0
C58 C 0.47172 0.44661 0.63897 0.0
C59 C 0.49088 0.44111 0.6334 0.0
C60 C 0.50544 0.43877 0.6504 0.0
C61 C 0.50044 0.44066 0.67296 0.0
C62 C 0.48076 0.44549 0.67855 0.0
H63 H 0.97295 0.44639 0.78272 0.0
H64 H 0.99431 0.46415 0.85187 0.0
H65 H 0.92116 0.45069 0.82919 0.0
H66 H 0.00838 0.44337 0.79752 0.0
H67 H 0.01365 0.44512 0.82696 0.0
H68 H 0.02575 0.48325 0.77497 0.0
H69 H 0.09814 0.54133 0.79912 0.0
H70 H 0.04808 0.48203 0.84315 0.0
C71 C 0.96887 0.45051 0.79933 0.0
C72 C 0.94523 0.44884 0.80369 0.0
C73 C 0.98681 0.45633 0.81663 0.0
C74 C 0.98095 0.46058 0.83837 0.0
C75 C 0.95739 0.45894 0.84294 0.0
C76 C 0.93994 0.45348 0.82544 0.0
C77 C 0.01063 0.45483 0.81261 0.0
C78 C 0.03388 0.48033 0.80963 0.0
C79 C 0.03911 0.49208 0.78861 0.0
C80 C 0.06219 0.51431 0.78477 0.0
C81 C 0.07965 0.52508 0.8024 0.0
C82 C 0.07486 0.51364 0.82348 0.0
C83 C 0.05173 0.49134 0.82708 0.0
H84 H 0.57315 0.0471 0.01003 0.0
H85 H 0.557 0.02735 0.94045 0.0
H86 H 0.56684 0.09719 0.96421 0.0
H87 H 0.57883 0.01391 -0.00554 0.0
H88 H 0.57638 0.00849 0.96503 0.0
H89 H 0.53914 0.99565 0.01814 0.0
H90 H 0.47795 0.92615 0.99376 0.0
H91 H 0.53794 0.97481 0.94911 0.0
C92 C 0.56907 0.05117 0.9934 0.0
C93 C 0.56941 0.07371 0.98937 0.0
C94 C 0.56435 0.03424 0.9758 0.0
C95 C 0.55998 0.04008 0.95409 0.0
C96 C 0.56058 0.0627 0.94978 0.0
C97 C 0.56494 0.07912 0.9676 0.0
C98 C 0.56666 0.01132 0.97961 0.0
C99 C 0.54089 0.98832 0.98302 0.0
C100 C 0.52958 0.98294 0.00438 0.0
C101 C 0.50663 0.96065 0.00823 0.0
C102 C 0.49484 0.94404 0.99046 0.0
C103 C 0.50591 0.9488 0.96912 0.0
C104 C 0.52893 0.97116 0.96541 0.0
H105 H 0.57198 0.53347 0.13454 0.0
H106 H 0.54932 0.53255 0.20299 0.0
H107 H 0.56121 0.47393 0.17838 0.0
H108 H 0.57728 0.57141 0.15189 0.0
H109 H 0.5708 0.57189 0.18095 0.0
H110 H 0.54027 0.5514 0.12444 0.0
H111 H 0.47791 0.56253 0.14198 0.0
H112 H 0.53167 0.56942 0.19238 0.0
C113 C 0.56631 0.52421 0.15063 0.0
C114 C 0.5663 0.50171 0.15407 0.0
C115 C 0.56003 0.53535 0.16821 0.0
C116 C 0.55348 0.52367 0.18928 0.0
C117 C 0.55346 0.50123 0.19294 0.0
C118 C 0.55962 0.49036 0.1752 0.0
C119 C 0.5631 0.56095 0.16527 0.0
C120 C 0.53814 0.55947 0.1593 0.0
C121 C 0.52938 0.55465 0.13706 0.0
C122 C 0.50736 0.55531 0.13086 0.0
C123 C 0.49396 0.56046 0.14711 0.0
C124 C 0.50256 0.56575 0.16929 0.0
C125 C 0.52459 0.56494 0.17538 0.0
C126 C 0.68931 0.41283 0.42223 0.0
O127 O 0.68468 0.4281 0.43249 0.0
Cd128 Cd 0.64314 0.42243 0.43893 0.0
O129 O 0.67106 0.39187 0.41552 0.0
Cd130 Cd 0.62317 0.36769 0.41787 0.0
C131 C 0.61876 0.40996 0.38507 0.0
O132 O 0.61772 0.38197 0.45455 0.0
O133 O 0.584 0.36354 0.4341 0.0
O134 O 0.62557 0.3306 0.42794 0.0
C135 C 0.59398 0.37383 0.45256 0.0
O136 O 0.62649 0.42421 0.40213 0.0
C137 C 0.60932 0.3162 0.41369 0.0
O138 O 0.61716 0.3886 0.38548 0.0
O139 O 0.59977 0.32583 0.40092 0.0
C140 C 0.29048 0.59383 0.55644 0.0
O141 O 0.26965 0.57668 0.54834 0.0
Cd142 Cd 0.23257 0.57971 0.54058 0.0
O143 O 0.29329 0.61528 0.56081 0.0
Cd144 Cd 0.26765 0.63698 0.55727 0.0
C145 C 0.22136 0.59657 0.59257 0.0
O146 O 0.24702 0.61832 0.52171 0.0
O147 O 0.23258 0.63927 0.53877 0.0
O148 O 0.30694 0.67441 0.54567 0.0
C149 C 0.23152 0.62644 0.52189 0.0
O150 O 0.21468 0.5807 0.57678 0.0
C151 C 0.30435 0.68935 0.5585 0.0
O152 O 0.241 0.61823 0.59067 0.0
O153 O 0.28499 0.67988 0.5713 0.0
C154 C 0.69759 0.2857 0.71959 0.0
O155 O 0.6942 0.26604 0.70983 0.0
Cd156 Cd 0.65348 0.23026 0.7021 0.0
O157 O 0.67851 0.28787 0.7255 0.0
Cd158 Cd 0.63076 0.26316 0.7231 0.0
C159 C 0.6278 0.21673 0.75537 0.0
O160 O 0.6267 0.2443 0.68619 0.0
O161 O 0.59273 0.22831 0.70647 0.0
O162 O 0.63121 0.30166 0.71306 0.0
C163 C 0.60312 0.22852 0.68802 0.0
O164 O 0.63628 0.21086 0.73829 0.0
C165 C 0.61478 0.29957 0.7274 0.0
O166 O 0.62543 0.2361 0.75523 0.0
O167 O 0.60591 0.28064 0.74019 0.0
C168 C 0.32238 0.59768 0.91352 0.0
O169 O 0.32649 0.58122 0.92211 0.0
Cd170 Cd 0.36675 0.58695 0.93485 0.0
O171 O 0.34069 0.61995 0.91053 0.0
Cd172 Cd 0.3879 0.64418 0.91691 0.0
C173 C 0.40019 0.60537 0.88541 0.0
O174 O 0.38704 0.62607 0.95327 0.0
O175 O 0.42441 0.64994 0.93975 0.0
O176 O 0.38343 0.68062 0.92528 0.0
C177 C 0.41095 0.63593 0.95557 0.0
O178 O 0.39147 0.59001 0.90166 0.0
C179 C 0.40207 0.69579 0.91322 0.0
O180 O 0.39904 0.62543 0.88552 0.0
O181 O 0.41368 0.68683 0.90232 0.0
C182 C 0.72625 0.41831 0.06066 0.0
O183 O 0.74632 0.43489 0.05101 0.0
Cd184 Cd 0.78201 0.43078 0.0399 0.0
O185 O 0.7234 0.39682 0.06492 0.0
Cd186 Cd 0.74765 0.3741 0.05904 0.0
C187 C 0.79746 0.41546 0.09085 0.0
O188 O 0.76518 0.39129 0.02223 0.0
O189 O 0.78041 0.3703 0.03798 0.0
O190 O 0.70683 0.33693 0.05036 0.0
C191 C 0.78035 0.38279 0.02122 0.0
O192 O 0.80301 0.43059 0.07455 0.0
C193 C 0.71037 0.32209 0.06252 0.0
O194 O 0.77734 0.39401 0.09046 0.0
O195 O 0.73098 0.33152 0.07367 0.0
C196 C 0.31121 0.72889 0.2219 0.0
O197 O 0.31398 0.7487 0.21291 0.0
Cd198 Cd 0.3538 0.78427 0.20274 0.0
O199 O 0.33059 0.72649 0.22603 0.0
Cd200 Cd 0.37816 0.75118 0.22091 0.0
C201 C 0.38432 0.79878 0.25388 0.0
O202 O 0.37758 0.76837 0.18429 0.0
O203 O 0.41456 0.78338 0.19948 0.0
O204 O 0.3758 0.71147 0.21206 0.0
C205 C 0.4014 0.78318 0.18293 0.0
O206 O 0.37411 0.80427 0.23786 0.0
C207 C 0.39431 0.71486 0.22445 0.0
O208 O 0.3869 0.77955 0.25283 0.0
O209 O 0.4051 0.73498 0.23566 0.0
H210 H 0.0802 0.60503 0.28166 0.0
H211 H 0.12051 0.62769 0.26133 0.0
H212 H 0.13794 0.56979 0.27726 0.0
H213 H 0.0975 0.54694 0.29751 0.0
H214 H 0.17532 0.61485 0.29052 0.0
H215 H 0.12811 0.58036 0.22331 0.0
H216 H 0.09347 0.56935 0.19609 0.0
H217 H 0.11798 0.64696 0.18675 0.0
H218 H 0.15257 0.65844 0.21416 0.0
H219 H 0.29633 0.68147 0.23677 0.0
H220 H 0.25313 0.64848 0.24643 0.0
H221 H 0.22404 0.6976 0.2301 0.0
H222 H 0.26685 0.7303 0.21991 0.0
H223 H 0.1926 0.65261 0.21478 0.0
H224 H 0.23538 0.68679 0.28493 0.0
H225 H 0.26925 0.69881 0.31318 0.0
H226 H 0.25214 0.6227 0.31788 0.0
H227 H 0.21835 0.61028 0.28943 0.0
C228 C 0.09215 0.59666 0.28014 0.0
C229 C 0.08573 0.57426 0.2913 0.0
C230 C 0.11528 0.60969 0.26857 0.0
C231 C 0.13232 0.60049 0.26784 0.0
C232 C 0.12516 0.57731 0.27771 0.0
C233 C 0.10204 0.56427 0.28924 0.0
C234 C 0.15864 0.61633 0.25911 0.0
C235 C 0.17913 0.62266 0.27376 0.0
C236 C 0.16357 0.62707 0.23749 0.0
C237 C 0.14283 0.62025 0.22093 0.0
C238 C 0.126 0.59508 0.21559 0.0
C239 C 0.10639 0.58875 0.20009 0.0
C240 C 0.10349 0.60744 0.18973 0.0
C241 C 0.12024 0.6325 0.1948 0.0
C242 C 0.13988 0.63893 0.21029 0.0
C243 C 0.28073 0.68522 0.2352 0.0
C244 C 0.28512 0.7086 0.22767 0.0
C245 C 0.25603 0.66636 0.24076 0.0
C246 C 0.23532 0.67063 0.23922 0.0
C247 C 0.23965 0.69381 0.23138 0.0
C248 C 0.26423 0.71256 0.22566 0.0
C249 C 0.20921 0.65134 0.2463 0.0
C250 C 0.18879 0.64445 0.23139 0.0
C251 C 0.20425 0.64023 0.26778 0.0
C252 C 0.22456 0.64767 0.28486 0.0
C253 C 0.23898 0.67266 0.29186 0.0
C254 C 0.25814 0.67954 0.30793 0.0
C255 C 0.2629 0.66154 0.31727 0.0
C256 C 0.24847 0.63662 0.3106 0.0
C257 C 0.22931 0.62965 0.29451 0.0
H258 H 0.27773 0.6669 0.32971 0.0
H259 H 0.0883 0.6025 0.17774 0.0
H260 H 0.55303 0.09353 0.46115 0.0
H261 H 0.57356 0.13435 0.44286 0.0
H262 H 0.50009 0.12178 0.42122 0.0
H263 H 0.47939 0.08084 0.43962 0.0
H264 H 0.54517 0.15375 0.39094 0.0
H265 H 0.5145 0.1468 0.46753 0.0
H266 H 0.51005 0.13217 0.50652 0.0
H267 H 0.59158 0.17088 0.51365 0.0
H268 H 0.59648 0.18573 0.4746 0.0
H269 H 0.56748 0.27881 0.3926 0.0
H270 H 0.55153 0.23391 0.39483 0.0
H271 H 0.61674 0.24787 0.43485 0.0
H272 H 0.63223 0.29264 0.43334 0.0
H273 H 0.57634 0.21407 0.45395 0.0
H274 H 0.60741 0.22592 0.37876 0.0
H275 H 0.61228 0.23973 0.33946 0.0
H276 H 0.53192 0.19176 0.32872 0.0
H277 H 0.5265 0.17791 0.36805 0.0
C278 C 0.54137 0.09901 0.45164 0.0
C279 C 0.51463 0.08418 0.45196 0.0
C280 C 0.55311 0.12233 0.44123 0.0
C281 C 0.53828 0.13118 0.431 0.0
C282 C 0.51184 0.11522 0.42899 0.0
C283 C 0.50004 0.0918 0.43945 0.0
C284 C 0.54966 0.15827 0.42661 0.0
C285 C 0.55185 0.16703 0.40463 0.0
C286 C 0.5587 0.17551 0.44451 0.0
C287 C 0.55584 0.16717 0.46814 0.0
C288 C 0.53147 0.15209 0.4774 0.0
C289 C 0.52887 0.14377 0.4995 0.0
C290 C 0.55052 0.15045 0.51253 0.0
C291 C 0.57482 0.16566 0.50352 0.0
C292 C 0.57752 0.1741 0.48143 0.0
C293 C 0.57858 0.27231 0.40162 0.0
C294 C 0.60105 0.28926 0.41289 0.0
C295 C 0.56951 0.2466 0.40278 0.0
C296 C 0.583 0.23739 0.41488 0.0
C297 C 0.60592 0.25444 0.42547 0.0
C298 C 0.61479 0.28006 0.42457 0.0
C299 C 0.57231 0.21005 0.41808 0.0
C300 C 0.57 0.20107 0.44004 0.0
C301 C 0.56333 0.19277 0.40008 0.0
C302 C 0.56652 0.20105 0.37642 0.0
C303 C 0.59074 0.21846 0.36807 0.0
C304 C 0.59361 0.22627 0.34578 0.0
C305 C 0.57242 0.21667 0.33162 0.0
C306 C 0.54832 0.1992 0.33971 0.0
C307 C 0.54534 0.19134 0.362 0.0
H308 H 0.57468 0.22274 0.31436 0.0
H309 H 0.54846 0.14391 0.52962 0.0
H310 H 0.47225 0.55968 0.62957 0.0
H311 H 0.45142 0.57717 0.60671 0.0
H312 H 0.38642 0.50358 0.59783 0.0
H313 H 0.40674 0.48602 0.62115 0.0
H314 H 0.3983 0.53729 0.55946 0.0
H315 H 0.38197 0.5325 0.63972 0.0
H316 H 0.39553 0.54005 0.6792 0.0
H317 H 0.43994 0.6188 0.66637 0.0
H318 H 0.42654 0.61164 0.62675 0.0
H319 H 0.28906 0.54923 0.55204 0.0
H320 H 0.32247 0.53958 0.56061 0.0
H321 H 0.37298 0.61627 0.57935 0.0
H322 H 0.33921 0.62606 0.57124 0.0
H323 H 0.37439 0.58631 0.6096 0.0
H324 H 0.38226 0.59107 0.53043 0.0
H325 H 0.36787 0.58276 0.49119 0.0
H326 H 0.34009 0.50454 0.5009 0.0
H327 H 0.35398 0.51231 0.5403 0.0
C328 C 0.45382 0.54712 0.62223 0.0
C329 C 0.44097 0.52151 0.62752 0.0
C330 C 0.44199 0.55714 0.60914 0.0
C331 C 0.41724 0.5417 0.60092 0.0
C332 C 0.40555 0.5158 0.60404 0.0
C333 C 0.41728 0.50577 0.61731 0.0
C334 C 0.40203 0.55271 0.59238 0.0
C335 C 0.39299 0.54799 0.57033 0.0
C336 C 0.39563 0.56711 0.6065 0.0
C337 C 0.40349 0.57153 0.63029 0.0
C338 C 0.39474 0.55141 0.64531 0.0
C339 C 0.40237 0.55561 0.66771 0.0
C340 C 0.41873 0.57988 0.67527 0.0
C341 C 0.42732 0.60001 0.66047 0.0
C342 C 0.41966 0.5959 0.63806 0.0
C343 C 0.30731 0.56417 0.55782 0.0
C344 C 0.3114 0.58846 0.56096 0.0
C345 C 0.32652 0.55863 0.56255 0.0
C346 C 0.35046 0.57727 0.57025 0.0
C347 C 0.35472 0.6016 0.57329 0.0
C348 C 0.33539 0.60716 0.56866 0.0
C349 C 0.37022 0.57076 0.57655 0.0
C350 C 0.38007 0.57617 0.59837 0.0
C351 C 0.37735 0.55706 0.56212 0.0
C352 C 0.36903 0.55227 0.53839 0.0
C353 C 0.37293 0.57207 0.52425 0.0
C354 C 0.36488 0.56746 0.50197 0.0
C355 C 0.35304 0.54314 0.49357 0.0
C356 C 0.34926 0.52338 0.50743 0.0
C357 C 0.35725 0.52788 0.52973 0.0
H358 H 0.34682 0.53961 0.47631 0.0
H359 H 0.42467 0.58309 0.69261 0.0
H360 H 0.93007 0.40842 0.7763 0.0
H361 H 0.88971 0.38608 0.75597 0.0
H362 H 0.8718 0.44315 0.77384 0.0
H363 H 0.9123 0.46575 0.79398 0.0
H364 H 0.83507 0.39711 0.78712 0.0
H365 H 0.88097 0.43431 0.71974 0.0
H366 H 0.91519 0.44646 0.69182 0.0
H367 H 0.89104 0.36932 0.68001 0.0
H368 H 0.85689 0.35669 0.7081 0.0
H369 H 0.71325 0.33278 0.73564 0.0
H370 H 0.7568 0.36537 0.74466 0.0
H371 H 0.78506 0.31675 0.72411 0.0
H372 H 0.74183 0.28445 0.71449 0.0
H373 H 0.81663 0.36232 0.71026 0.0
H374 H 0.77517 0.32513 0.78002 0.0
H375 H 0.74181 0.31163 0.809 0.0
H376 H 0.7587 0.38733 0.81743 0.0
H377 H 0.79196 0.40123 0.78828 0.0
C378 C 0.91801 0.41672 0.77518 0.0
C379 C 0.92429 0.43876 0.78689 0.0
C380 C 0.89486 0.40385 0.76362 0.0
C381 C 0.87766 0.41287 0.7635 0.0
C382 C 0.88472 0.43578 0.77383 0.0
C383 C 0.90786 0.44867 0.78531 0.0
C384 C 0.85123 0.39701 0.75503 0.0
C385 C 0.831 0.38994 0.77015 0.0
C386 C 0.84599 0.38705 0.73312 0.0
C387 C 0.86648 0.39457 0.71617 0.0
C388 C 0.88308 0.41993 0.71133 0.0
C389 C 0.90244 0.42691 0.69544 0.0
C390 C 0.90532 0.40867 0.68418 0.0
C391 C 0.8888 0.38342 0.68875 0.0
C392 C 0.86941 0.37635 0.70464 0.0
C393 C 0.72875 0.32907 0.73295 0.0
C394 C 0.72398 0.30591 0.72448 0.0
C395 C 0.75365 0.34771 0.73816 0.0
C396 C 0.77422 0.34342 0.73535 0.0
C397 C 0.76955 0.32054 0.7264 0.0
C398 C 0.74475 0.30202 0.721 0.0
C399 C 0.8005 0.36229 0.74242 0.0
C400 C 0.82069 0.36981 0.72711 0.0
C401 C 0.80581 0.37249 0.76427 0.0
C402 C 0.78582 0.36417 0.78179 0.0
C403 C 0.77162 0.33886 0.78793 0.0
C404 C 0.75276 0.33115 0.80441 0.0
C405 C 0.74809 0.3486 0.815 0.0
C406 C 0.76231 0.37382 0.80918 0.0
C407 C 0.78117 0.38163 0.79269 0.0
H408 H 0.73349 0.3426 0.82776 0.0
H409 H 0.92032 0.41411 0.67189 0.0
H410 H 0.53073 0.93016 0.94445 0.0
H411 H 0.51101 0.88894 0.92673 0.0
H412 H 0.43639 0.87894 0.93984 0.0
H413 H 0.45594 0.92028 0.95706 0.0
H414 H 0.44751 0.84417 0.96119 0.0
H415 H 0.45149 0.87895 0.88842 0.0
H416 H 0.47274 0.90728 0.85663 0.0
H417 H 0.52204 0.8765 0.84832 0.0
H418 H 0.50132 0.84822 0.88028 0.0
H419 H 0.37627 0.71885 0.92793 0.0
H420 H 0.39216 0.76367 0.93064 0.0
H421 H 0.46393 0.77874 0.90188 0.0
H422 H 0.4477 0.7339 0.89826 0.0
H423 H 0.45348 0.81173 0.88695 0.0
H424 H 0.45427 0.78023 0.95968 0.0
H425 H 0.43778 0.75396 0.99342 0.0
H426 H 0.38525 0.78051 0.00435 0.0
H427 H 0.4011 0.8066 0.97041 0.0
C428 C 0.51017 0.91968 0.94261 0.0
C429 C 0.49486 0.92831 0.95238 0.0
C430 C 0.49892 0.89606 0.93259 0.0
C431 C 0.47225 0.88081 0.93223 0.0
C432 C 0.45701 0.89038 0.94007 0.0
C433 C 0.4682 0.914 0.94987 0.0
C434 C 0.46039 0.8538 0.9272 0.0
C435 C 0.44832 0.83698 0.94484 0.0
C436 C 0.46254 0.84466 0.90613 0.0
C437 C 0.475 0.86162 0.88689 0.0
C438 C 0.46702 0.87838 0.87996 0.0
C439 C 0.47893 0.89439 0.86187 0.0
C440 C 0.49877 0.89373 0.8505 0.0
C441 C 0.50669 0.87701 0.85716 0.0
C442 C 0.49484 0.86096 0.87524 0.0
C443 C 0.39534 0.73172 0.92196 0.0
C444 C 0.41081 0.72284 0.91305 0.0
C445 C 0.40447 0.75736 0.92363 0.0
C446 C 0.4295 0.77469 0.91695 0.0
C447 C 0.4446 0.76582 0.90722 0.0
C448 C 0.43532 0.74016 0.90521 0.0
C449 C 0.44026 0.80191 0.92096 0.0
C450 C 0.45234 0.8188 0.90325 0.0
C451 C 0.43868 0.81129 0.94218 0.0
C452 C 0.42864 0.79512 0.9623 0.0
C453 C 0.43899 0.78024 0.96911 0.0
C454 C 0.42979 0.76542 0.9883 0.0
C455 C 0.41042 0.7655 0.00097 0.0
C456 C 0.4002 0.7804 -0.00552 0.0
C457 C 0.40926 0.7952 0.97525 0.0
H458 H 0.40338 0.75407 0.01586 0.0
H459 H 0.50797 0.90614 0.8365 0.0
H460 H 0.60869 0.52716 0.12769 0.0
H461 H 0.63028 0.50946 0.10625 0.0
H462 H 0.56932 0.4352 0.12151 0.0
H463 H 0.54733 0.45275 0.14257 0.0
H464 H 0.61623 0.44302 0.13439 0.0
H465 H 0.57859 0.45482 0.06865 0.0
H466 H 0.56704 0.47804 0.04207 0.0
H467 H 0.64636 0.52977 0.03 0.0
H468 H 0.65841 0.50707 0.05677 0.0
H469 H 0.67838 0.38689 0.07764 0.0
H470 H 0.6462 0.39773 0.08891 0.0
H471 H 0.69713 0.4744 0.07024 0.0
H472 H 0.72897 0.46366 0.05846 0.0
H473 H 0.65085 0.46135 0.05718 0.0
H474 H 0.68875 0.45363 0.12536 0.0
H475 H 0.70162 0.43264 0.15327 0.0
H476 H 0.62331 0.37578 0.16215 0.0
H477 H 0.61002 0.39624 0.13403 0.0
C478 C 0.59939 0.50709 0.1258 0.0
C479 C 0.57639 0.49136 0.137 0.0
C480 C 0.61183 0.49698 0.11361 0.0
C481 C 0.60146 0.471 0.1124 0.0
C482 C 0.57771 0.45529 0.12234 0.0
C483 C 0.5652 0.46536 0.13438 0.0
C484 C 0.61671 0.46039 0.10301 0.0
C485 C 0.62336 0.44656 0.11734 0.0
C486 C 0.62658 0.46564 0.08101 0.0
C487 C 0.6194 0.47934 0.06487 0.0
C488 C 0.59358 0.47127 0.06048 0.0
C489 C 0.58694 0.48431 0.04534 0.0
C490 C 0.60595 0.5054 0.03439 0.0
C491 C 0.63165 0.51345 0.03851 0.0
C492 C 0.6384 0.50047 0.05364 0.0
C493 C 0.68269 0.40604 0.07588 0.0
C494 C 0.70633 0.42441 0.06723 0.0
C495 C 0.66429 0.41223 0.08238 0.0
C496 C 0.66932 0.43696 0.08066 0.0
C497 C 0.69274 0.45519 0.07169 0.0
C498 C 0.711 0.449 0.06504 0.0
C499 C 0.65063 0.4442 0.08865 0.0
C500 C 0.64341 0.45748 0.07412 0.0
C501 C 0.64044 0.43871 0.11059 0.0
C502 C 0.64843 0.42627 0.12736 0.0
C503 C 0.67431 0.43651 0.13309 0.0
C504 C 0.68167 0.42474 0.14898 0.0
C505 C 0.66331 0.40283 0.15941 0.0
C506 C 0.63753 0.3927 0.15401 0.0
C507 C 0.63007 0.40437 0.13809 0.0
H508 H 0.66905 0.39376 0.17172 0.0
H509 H 0.60076 0.51547 0.02268 0.0
H510 H 0.40316 0.92137 0.51492 0.0
H511 H 0.38329 0.8813 0.5347 0.0
H512 H 0.44629 0.87105 0.5161 0.0
H513 H 0.46665 0.91136 0.49693 0.0
H514 H 0.39644 0.83419 0.49974 0.0
H515 H 0.4389 0.87548 0.56793 0.0
H516 H 0.45084 0.90636 0.59823 0.0
H517 H 0.37194 0.8753 0.61603 0.0
H518 H 0.35948 0.84444 0.5856 0.0
H519 H 0.35183 0.71359 0.53983 0.0
H520 H 0.37931 0.75849 0.53446 0.0
H521 H 0.32417 0.77168 0.56838 0.0
H522 H 0.29703 0.72673 0.5746 0.0
H523 H 0.37034 0.80794 0.5783 0.0
H524 H 0.32641 0.76969 0.51065 0.0
H525 H 0.31139 0.73968 0.47939 0.0
H526 H 0.38886 0.76622 0.45907 0.0
H527 H 0.40436 0.79617 0.49042 0.0
C528 C 0.41332 0.91111 0.51585 0.0
C529 C 0.43635 0.9194 0.50411 0.0
C530 C 0.40185 0.88813 0.52706 0.0
C531 C 0.41323 0.87315 0.52665 0.0
C532 C 0.43717 0.88231 0.5165 0.0
C533 C 0.44874 0.90532 0.50554 0.0
C534 C 0.39864 0.84665 0.5337 0.0
C535 C 0.39113 0.82842 0.51698 0.0
C536 C 0.39078 0.83927 0.55602 0.0
C537 C 0.39824 0.85781 0.57432 0.0
C538 C 0.42407 0.87539 0.57815 0.0
C539 C 0.43094 0.89285 0.59539 0.0
C540 C 0.41216 0.89284 0.60901 0.0
C541 C 0.38647 0.87531 0.60545 0.0
C542 C 0.37949 0.85781 0.58822 0.0
C543 C 0.34571 0.72607 0.54641 0.0
C544 C 0.32214 0.71661 0.55742 0.0
C545 C 0.36139 0.75174 0.54326 0.0
C546 C 0.35355 0.76848 0.55053 0.0
C547 C 0.3306 0.75917 0.56252 0.0
C548 C 0.31507 0.73346 0.56601 0.0
C549 C 0.36852 0.79538 0.54435 0.0
C550 C 0.37585 0.81368 0.56109 0.0
C551 C 0.37579 0.80298 0.5219 0.0
C552 C 0.36655 0.78498 0.50303 0.0
C553 C 0.34025 0.76899 0.49962 0.0
C554 C 0.33165 0.75201 0.48187 0.0
C555 C 0.34916 0.751 0.46729 0.0
C556 C 0.37532 0.767 0.47041 0.0
C557 C 0.38402 0.78399 0.48815 0.0
H558 H 0.34246 0.73785 0.45356 0.0
H559 H 0.41752 0.90637 0.62235 0.0
H560 H 0.55164 0.46163 0.67858 0.0
H561 H 0.5733 0.44173 0.69641 0.0
H562 H 0.5013 0.38362 0.72203 0.0
H563 H 0.4795 0.40358 0.70418 0.0
H564 H 0.54741 0.39671 0.75043 0.0
H565 H 0.5136 0.36966 0.6754 0.0
H566 H 0.50673 0.3772 0.6362 0.0
H567 H 0.58774 0.42011 0.62585 0.0
H568 H 0.59505 0.41257 0.66504 0.0
H569 H 0.57287 0.29504 0.74934 0.0
H570 H 0.55556 0.3233 0.7473 0.0
H571 H 0.61898 0.37361 0.70576 0.0
H572 H 0.63586 0.34511 0.70716 0.0
H573 H 0.57705 0.36547 0.68733 0.0
H574 H 0.6108 0.38711 0.76169 0.0
H575 H 0.61714 0.3794 0.80101 0.0
H576 H 0.53692 0.34759 0.81355 0.0
H577 H 0.53004 0.3548 0.77421 0.0
C578 C 0.54061 0.44523 0.68886 0.0
C579 C 0.51392 0.43404 0.68992 0.0
C580 C 0.55298 0.43385 0.69898 0.0
C581 C 0.53883 0.41103 0.71024 0.0
C582 C 0.51254 0.40126 0.71346 0.0
C583 C 0.50012 0.41272 0.70333 0.0
C584 C 0.55059 0.3954 0.71469 0.0
C585 C 0.55375 0.38965 0.73673 0.0
C586 C 0.5591 0.38651 0.69677 0.0
C587 C 0.55485 0.39074 0.67313 0.0
C588 C 0.52993 0.38079 0.66477 0.0
C589 C 0.52596 0.38506 0.64256 0.0
C590 C 0.54678 0.39932 0.62856 0.0
C591 C 0.57163 0.40912 0.63672 0.0
C592 C 0.5757 0.40477 0.6589 0.0
C593 C 0.58329 0.3123 0.74002 0.0
C594 C 0.60565 0.31777 0.72829 0.0
C595 C 0.57344 0.32852 0.73897 0.0
C596 C 0.58602 0.35073 0.72648 0.0
C597 C 0.60886 0.35659 0.71545 0.0
C598 C 0.61852 0.34027 0.71628 0.0
C599 C 0.57444 0.36685 0.72325 0.0
C600 C 0.57105 0.37259 0.70124 0.0
C601 C 0.56579 0.37564 0.74128 0.0
C602 C 0.56988 0.37128 0.76494 0.0
C603 C 0.59448 0.37828 0.77278 0.0
C604 C 0.59817 0.37404 0.79509 0.0
C605 C 0.57743 0.36295 0.80975 0.0
C606 C 0.55296 0.35615 0.80216 0.0
C607 C 0.54916 0.36033 0.77987 0.0
H608 H 0.58034 0.35968 0.82702 0.0
H609 H 0.54366 0.40267 0.61139 0.0
H610 H 0.09174 0.48721 0.84769 0.0
H611 H 0.13189 0.504 0.86827 0.0
H612 H 0.14651 0.57885 0.85659 0.0
H613 H 0.10626 0.56213 0.83606 0.0
H614 H 0.18545 0.57321 0.84257 0.0
H615 H 0.13575 0.55469 0.90938 0.0
H616 H 0.10076 0.52863 0.93537 0.0
H617 H 0.12893 0.47746 0.9412 0.0
H618 H 0.1639 0.50302 0.915 0.0
H619 H 0.30449 0.62848 0.89962 0.0
H620 H 0.26081 0.61652 0.88888 0.0
H621 H 0.23697 0.53922 0.90149 0.0
H622 H 0.28029 0.55103 0.91277 0.0
H623 H 0.20235 0.54916 0.91706 0.0
H624 H 0.2485 0.56422 0.8478 0.0
H625 H 0.28289 0.58863 0.82072 0.0
H626 H 0.26062 0.64453 0.81848 0.0
H627 H 0.22628 0.62058 0.84578 0.0
C628 C 0.10304 0.5072 0.85019 0.0
C629 C 0.09588 0.52336 0.84018 0.0
C630 C 0.12607 0.5168 0.8619 0.0
C631 C 0.14227 0.54271 0.86393 0.0
C632 C 0.13438 0.55881 0.85514 0.0
C633 C 0.11137 0.54923 0.84346 0.0
C634 C 0.16849 0.55298 0.87301 0.0
C635 C 0.18914 0.56838 0.85907 0.0
C636 C 0.17331 0.54608 0.89424 0.0
C637 C 0.15235 0.53069 0.91008 0.0
C638 C 0.13438 0.53778 0.91606 0.0
C639 C 0.11456 0.52311 0.93086 0.0
C640 C 0.11259 0.50138 0.93989 0.0
C641 C 0.13047 0.49429 0.93418 0.0
C642 C 0.15032 0.50888 0.91938 0.0
C643 C 0.28995 0.60893 0.90012 0.0
C644 C 0.29596 0.59071 0.90696 0.0
C645 C 0.26497 0.60211 0.89393 0.0
C646 C 0.24561 0.57692 0.89413 0.0
C647 C 0.25153 0.55877 0.90124 0.0
C648 C 0.27639 0.56558 0.90759 0.0
C649 C 0.21927 0.56925 0.88655 0.0
C650 C 0.19863 0.55427 0.9007 0.0
C651 C 0.21439 0.57633 0.86541 0.0
C652 C 0.23503 0.59076 0.84902 0.0
C653 C 0.25108 0.58182 0.84167 0.0
C654 C 0.27053 0.59555 0.82626 0.0
C655 C 0.27399 0.61815 0.81794 0.0
C656 C 0.25795 0.62704 0.82498 0.0
C657 C 0.23849 0.61339 0.8404 0.0
H658 H 0.28905 0.62875 0.80601 0.0
H659 H 0.09724 0.49005 0.95135 0.0
H660 H 0.61074 0.09146 0.01725 0.0
H661 H 0.63015 0.13096 0.0379 0.0
H662 H 0.56664 0.14083 0.02017 0.0
H663 H 0.54708 0.10131 -0.00023 0.0
H664 H 0.61305 0.17862 0.00506 0.0
H665 H 0.57721 0.13455 0.0737 0.0
H666 H 0.56842 0.10295 0.10277 0.0
H667 H 0.6487 0.13579 0.11554 0.0
H668 H 0.65801 0.16739 0.08631 0.0
H669 H 0.66079 0.29817 0.04865 0.0
H670 H 0.6325 0.2533 0.04382 0.0
H671 H 0.69095 0.23965 0.06986 0.0
H672 H 0.71896 0.28454 0.07562 0.0
H673 H 0.64583 0.203 0.08241 0.0
H674 H 0.68284 0.24339 0.01289 0.0
H675 H 0.69416 0.2743 0.98263 0.0
H676 H 0.61472 0.24726 0.9699 0.0
H677 H 0.60294 0.21639 0.0003 0.0
C678 C 0.60044 0.10155 0.01854 0.0
C679 C 0.57753 0.09345 0.00671 0.0
C680 C 0.61159 0.12417 0.03027 0.0
C681 C 0.59993 0.13893 0.0304 0.0
C682 C 0.57602 0.1298 0.02018 0.0
C683 C 0.56486 0.10723 0.00855 0.0
C684 C 0.6142 0.16526 0.03807 0.0
C685 C 0.61975 0.18393 0.02211 0.0
C686 C 0.62388 0.17216 0.06004 0.0
C687 C 0.61832 0.15321 0.07766 0.0
C688 C 0.59301 0.1349 0.08256 0.0
C689 C 0.58793 0.11702 0.0991 0.0
C690 C 0.60799 0.11732 0.11095 0.0
C691 C 0.63318 0.13556 0.10633 0.0
C692 C 0.63837 0.15348 0.08979 0.0
C693 C 0.66747 0.28558 0.05368 0.0
C694 C 0.6922 0.29489 0.06226 0.0
C695 C 0.65131 0.25993 0.05084 0.0
C696 C 0.65981 0.24309 0.05593 0.0
C697 C 0.68399 0.25224 0.0657 0.0
C698 C 0.70001 0.27792 0.06893 0.0
C699 C 0.64432 0.21634 0.04944 0.0
C700 C 0.63881 0.19765 0.06546 0.0
C701 C 0.63501 0.20927 0.02735 0.0
C702 C 0.64202 0.22777 0.00902 0.0
C703 C 0.6678 0.24416 0.00374 0.0
C704 C 0.67429 0.26166 0.98655 0.0
C705 C 0.65517 0.26279 0.97439 0.0
C706 C 0.62951 0.24639 0.97936 0.0
C707 C 0.62291 0.22888 -0.00345 0.0
H708 H 0.66023 0.27634 0.96109 0.0
H709 H 0.60402 0.10346 0.12375 0.0
H710 H 0.52569 0.60731 0.19584 0.0
H711 H 0.50539 0.62918 0.21259 0.0
H712 H 0.43152 0.5691 0.19278 0.0
H713 H 0.45162 0.54696 0.17639 0.0
H714 H 0.44397 0.61549 0.17483 0.0
H715 H 0.4441 0.5801 0.24643 0.0
H716 H 0.46362 0.5704 0.27825 0.0
H717 H 0.51306 0.64866 0.29042 0.0
H718 H 0.49408 0.65884 0.25845 0.0
H719 H 0.36973 0.66686 0.20926 0.0
H720 H 0.38658 0.63838 0.20647 0.0
H721 H 0.45721 0.69385 0.23657 0.0
H722 H 0.44002 0.72211 0.24019 0.0
H723 H 0.44653 0.64929 0.25062 0.0
H724 H 0.45057 0.68569 0.17912 0.0
H725 H 0.43453 0.69772 0.14623 0.0
H726 H 0.38176 0.62054 0.13236 0.0
H727 H 0.39726 0.60807 0.16537 0.0
C728 C 0.50506 0.59828 0.19589 0.0
C729 C 0.49025 0.57551 0.18462 0.0
C730 C 0.49348 0.61087 0.20537 0.0
C731 C 0.46697 0.60084 0.20374 0.0
C732 C 0.45202 0.57721 0.1941 0.0
C733 C 0.46352 0.56458 0.18477 0.0
C734 C 0.45524 0.61632 0.20912 0.0
C735 C 0.44408 0.62248 0.1915 0.0
C736 C 0.45644 0.62631 0.23064 0.0
C737 C 0.46783 0.62023 0.2499 0.0
C738 C 0.4593 0.59525 0.25576 0.0
C739 C 0.47023 0.58966 0.27385 0.0
C740 C 0.48961 0.6089 0.28631 0.0
C741 C 0.49806 0.63377 0.28074 0.0
C742 C 0.4872 0.63946 0.26265 0.0
C743 C 0.38875 0.6729 0.21552 0.0
C744 C 0.40366 0.69683 0.22473 0.0
C745 C 0.39841 0.65663 0.21385 0.0
C746 C 0.42341 0.66416 0.22083 0.0
C747 C 0.43792 0.68763 0.23097 0.0
C748 C 0.4281 0.7038 0.23298 0.0
C749 C 0.43483 0.64811 0.21636 0.0
C750 C 0.44617 0.64208 0.23401 0.0
C751 C 0.43428 0.63854 0.19472 0.0
C752 C 0.42488 0.64597 0.17486 0.0
C753 C 0.43541 0.6713 0.16916 0.0
C754 C 0.42643 0.67819 0.15048 0.0
C755 C 0.40709 0.65991 0.13725 0.0
C756 C 0.39672 0.63469 0.14264 0.0
C757 C 0.40559 0.62769 0.16133 0.0
H758 H 0.40018 0.66528 0.12278 0.0
H759 H 0.49805 0.60454 0.30032 0.0
H760 H 0.88615 0.49104 0.31051 0.0
H761 H 0.84804 0.47631 0.33346 0.0
H762 H 0.88997 0.47533 0.39143 0.0
H763 H 0.9286 0.49002 0.36822 0.0
H764 H 0.84031 0.43181 0.38678 0.0
H765 H 0.8783 0.52038 0.38878 0.0
H766 H 0.89888 0.56286 0.37294 0.0
H767 H 0.83217 0.54308 0.3334 0.0
H768 H 0.81132 0.50035 0.34875 0.0
H769 H 0.73239 0.4532 0.43836 0.0
H770 H 0.77657 0.46737 0.42816 0.0
H771 H 0.75163 0.40385 0.3845 0.0
H772 H 0.70726 0.38921 0.39499 0.0
H773 H 0.79734 0.48227 0.38907 0.0
H774 H 0.79885 0.38957 0.37829 0.0
H775 H 0.77939 0.34782 0.3956 0.0
H776 H 0.7691 0.37757 0.45708 0.0
H777 H 0.78881 0.41956 0.44026 0.0
C778 C 0.88727 0.48748 0.3281 0.0
C779 C 0.91029 0.49145 0.33755 0.0
C780 C 0.8655 0.47921 0.34122 0.0
C781 C 0.86621 0.47482 0.36414 0.0
C782 C 0.88908 0.47859 0.37374 0.0
C783 C 0.91109 0.4871 0.36055 0.0
C784 C 0.84288 0.46668 0.37775 0.0
C785 C 0.83095 0.44286 0.38751 0.0
C786 C 0.83096 0.48133 0.37897 0.0
C787 C 0.8433 0.50711 0.36984 0.0
C788 C 0.86808 0.52504 0.3766 0.0
C789 C 0.87978 0.54917 0.36772 0.0
C790 C 0.86685 0.55566 0.35215 0.0
C791 C 0.84216 0.53803 0.34546 0.0
C792 C 0.83038 0.51386 0.35428 0.0
C793 C 0.73626 0.44203 0.42678 0.0
C794 C 0.71622 0.42012 0.41738 0.0
C795 C 0.76158 0.45019 0.42097 0.0
C796 C 0.7675 0.43667 0.40563 0.0
C797 C 0.74761 0.41441 0.39665 0.0
C798 C 0.72221 0.40613 0.40257 0.0
C799 C 0.7942 0.44699 0.39766 0.0
C800 C 0.80675 0.47125 0.38878 0.0
C801 C 0.80676 0.43284 0.39758 0.0
C802 C 0.79514 0.40769 0.40793 0.0
C803 C 0.79255 0.38724 0.39554 0.0
C804 C 0.78145 0.36352 0.40526 0.0
C805 C 0.77295 0.36003 0.4274 0.0
C806 C 0.77561 0.38028 0.4399 0.0
C807 C 0.78671 0.40404 0.43027 0.0
H808 H 0.76435 0.34165 0.43489 0.0
H809 H 0.87595 0.57435 0.34529 0.0
H810 H 0.07682 0.52855 0.36222 0.0
H811 H 0.10069 0.53709 0.39708 0.0
H812 H 0.0701 0.5833 0.41915 0.0
H813 H 0.04694 0.57557 0.38386 0.0
H814 H 0.11989 0.60852 0.42023 0.0
H815 H 0.05732 0.52898 0.44744 0.0
H816 H 0.0281 0.48348 0.44671 0.0
H817 H 0.0918 0.47149 0.43962 0.0
H818 H 0.12141 0.51694 0.43998 0.0
H819 H 0.19427 0.63905 0.51986 0.0
H820 H 0.15798 0.62282 0.49419 0.0
H821 H 0.1844 0.57763 0.46168 0.0
H822 H 0.22063 0.59359 0.48744 0.0
H823 H 0.13279 0.55139 0.46974 0.0
H824 H 0.19414 0.6309 0.4378 0.0
H825 H 0.22333 0.67645 0.43818 0.0
H826 H 0.16083 0.68803 0.45425 0.0
H827 H 0.13131 0.64251 0.45425 0.0
C828 C 0.07467 0.54001 0.37476 0.0
C829 C 0.06024 0.55161 0.3702 0.0
C830 C 0.08819 0.54475 0.39478 0.0
C831 C 0.08725 0.5609 0.41076 0.0
C832 C 0.07115 0.57083 0.40703 0.0
C833 C 0.05771 0.56619 0.38693 0.0
C834 C 0.10575 0.57012 0.42958 0.0
C835 C 0.12224 0.596 0.43142 0.0
C836 C 0.10933 0.55382 0.4438 0.0
C837 C 0.09159 0.52642 0.44359 0.0
C838 C 0.0651 0.51666 0.44555 0.0
C839 C 0.04846 0.49086 0.44524 0.0
C840 C 0.05808 0.4746 0.44308 0.0
C841 C 0.08438 0.48411 0.44129 0.0
C842 C 0.1011 0.50989 0.44158 0.0
C843 C 0.19243 0.62575 0.50718 0.0
C844 C 0.21037 0.61768 0.5056 0.0
C845 C 0.17167 0.61648 0.49255 0.0
C846 C 0.16856 0.59909 0.476 0.0
C847 C 0.18642 0.59098 0.4744 0.0
C848 C 0.2072 0.60026 0.48901 0.0
C849 C 0.14692 0.58963 0.46008 0.0
C850 C 0.13 0.56381 0.45877 0.0
C851 C 0.14287 0.60594 0.44633 0.0
C852 C 0.16058 0.6333 0.44628 0.0
C853 C 0.18667 0.64316 0.4416 0.0
C854 C 0.20326 0.66897 0.44171 0.0
C855 C 0.19396 0.68512 0.44631 0.0
C856 C 0.16802 0.67549 0.45074 0.0
C857 C 0.15135 0.6497 0.45067 0.0
H858 H 0.20683 0.70509 0.44638 0.0
H859 H 0.04517 0.45464 0.44284 0.0
H860 H 0.51768 0.04489 0.54447 0.0
H861 H 0.53238 0.06816 0.57992 0.0
H862 H 0.50151 0.11474 0.55946 0.0
H863 H 0.48624 0.09106 0.52478 0.0
H864 H 0.56671 0.11507 0.58535 0.0
H865 H 0.48494 0.1374 0.60195 0.0
H866 H 0.43802 0.11605 0.59927 0.0
H867 H 0.43393 0.0449 0.60456 0.0
H868 H 0.48079 0.06581 0.60761 0.0
H869 H 0.61572 0.22798 0.64424 0.0
H870 H 0.59457 0.19364 0.61753 0.0
H871 H 0.54044 0.14844 0.66846 0.0
H872 H 0.56066 0.18316 0.69475 0.0
H873 H 0.51615 0.14046 0.63261 0.0
H874 H 0.5926 0.14063 0.6512 0.0
H875 H 0.63886 0.15832 0.65682 0.0
H876 H 0.65217 0.17713 0.58708 0.0
H877 H 0.60602 0.15987 0.58109 0.0
C878 C 0.51346 0.05963 0.54802 0.0
C879 C 0.50082 0.06626 0.53216 0.0
C880 C 0.522 0.07302 0.56809 0.0
C881 C 0.51788 0.0931 0.57247 0.0
C882 C 0.50447 0.09905 0.55678 0.0
C883 C 0.49588 0.08564 0.53692 0.0
C884 C 0.52922 0.1093 0.59238 0.0
C885 C 0.55562 0.12043 0.59585 0.0
C886 C 0.5147 0.11592 0.60642 0.0
C887 C 0.48643 0.10321 0.60487 0.0
C888 C 0.47403 0.11721 0.60268 0.0
C889 C 0.44744 0.10517 0.60106 0.0
C890 C 0.43301 0.07913 0.6017 0.0
C891 C 0.44514 0.06507 0.604 0.0
C892 C 0.47172 0.077 0.60565 0.0
C893 C 0.59921 0.21075 0.64965 0.0
C894 C 0.58985 0.20824 0.67155 0.0
C895 C 0.58727 0.19103 0.63446 0.0
C896 C 0.5662 0.16815 0.64108 0.0
C897 C 0.55666 0.16581 0.6629 0.0
C898 C 0.56825 0.18569 0.67793 0.0
C899 C 0.55383 0.14686 0.62516 0.0
C900 C 0.52723 0.13484 0.62239 0.0
C901 C 0.56808 0.13885 0.61226 0.0
C902 C 0.59585 0.1491 0.61574 0.0
C903 C 0.6054 0.14867 0.63709 0.0
C904 C 0.63161 0.15861 0.64034 0.0
C905 C 0.64844 0.16888 0.62233 0.0
C906 C 0.63911 0.16918 0.60102 0.0
C907 C 0.61292 0.15929 0.59768 0.0
H908 H 0.66873 0.17657 0.62488 0.0
H909 H 0.41243 0.06986 0.60042 0.0
H910 H 0.48129 0.51627 0.72705 0.0
H911 H 0.47886 0.53451 0.76281 0.0
H912 H 0.43327 0.56184 0.73173 0.0
H913 H 0.43416 0.54265 0.69672 0.0
H914 H 0.47398 0.59738 0.76087 0.0
H915 H 0.4031 0.51118 0.75803 0.0
H916 H 0.38558 0.46575 0.75469 0.0
H917 H 0.42912 0.46694 0.8119 0.0
H918 H 0.44718 0.51248 0.81536 0.0
H919 H 0.40353 0.62042 0.84186 0.0
H920 H 0.42024 0.60817 0.81005 0.0
H921 H 0.44093 0.56592 0.8543 0.0
H922 H 0.42297 0.57701 0.88585 0.0
H923 H 0.42016 0.53928 0.82072 0.0
H924 H 0.48637 0.6236 0.82808 0.0
H925 H 0.50594 0.66923 0.83188 0.0
H926 H 0.47569 0.67298 0.76792 0.0
H927 H 0.45563 0.62732 0.76387 0.0
C928 C 0.47074 0.52614 0.72782 0.0
C929 C 0.45816 0.52813 0.70876 0.0
C930 C 0.46956 0.53672 0.74821 0.0
C931 C 0.45607 0.54968 0.74978 0.0
C932 C 0.44413 0.55226 0.73076 0.0
C933 C 0.44486 0.54136 0.71062 0.0
C934 C 0.45246 0.55906 0.77143 0.0
C935 C 0.46227 0.58479 0.77406 0.0
C936 C 0.43776 0.5426 0.78875 0.0
C937 C 0.42671 0.51524 0.78678 0.0
C938 C 0.4091 0.50178 0.76977 0.0
C939 C 0.39904 0.47601 0.76788 0.0
C940 C 0.4063 0.46348 0.78302 0.0
C941 C 0.42356 0.47668 0.80014 0.0
C942 C 0.4337 0.50246 0.80208 0.0
C943 C 0.41183 0.60868 0.84478 0.0
C944 C 0.41185 0.59958 0.86629 0.0
C945 C 0.42159 0.60183 0.82661 0.0
C946 C 0.43226 0.58637 0.82973 0.0
C947 C 0.43278 0.57779 0.85137 0.0
C948 C 0.42252 0.58416 0.86941 0.0
C949 C 0.44136 0.57786 0.8103 0.0
C950 C 0.43244 0.55218 0.80796 0.0
C951 C 0.45727 0.59449 0.79343 0.0
C952 C 0.46934 0.62199 0.79576 0.0
C953 C 0.48374 0.63413 0.8149 0.0
C954 C 0.49494 0.66001 0.81708 0.0
C955 C 0.49202 0.67399 0.80017 0.0
C956 C 0.47793 0.66212 0.78102 0.0
C957 C 0.46667 0.63624 0.77875 0.0
H958 H 0.50071 0.69402 0.8019 0.0
H959 H 0.39849 0.44353 0.78153 0.0
H960 H 0.93267 0.48251 0.85893 0.0
H961 H 0.90844 0.47308 0.8937 0.0
H962 H 0.93797 0.42548 0.91427 0.0
H963 H 0.96157 0.4342 0.87909 0.0
H964 H 0.8879 0.4008 0.91499 0.0
H965 H 0.95159 0.47916 0.94368 0.0
H966 H 0.98135 0.52457 0.94381 0.0
H967 H 0.91838 0.53788 0.93819 0.0
H968 H 0.88824 0.49253 0.9377 0.0
H969 H 0.81646 0.36898 0.01636 0.0
H970 H 0.85146 0.385 0.98935 0.0
H971 H 0.82491 0.43169 0.96008 0.0
H972 H 0.78994 0.41593 0.98722 0.0
H973 H 0.87669 0.45717 0.96684 0.0
H974 H 0.81396 0.37905 0.93417 0.0
H975 H 0.78415 0.33363 0.93367 0.0
H976 H 0.84612 0.32027 0.94672 0.0
H977 H 0.87626 0.36565 0.94759 0.0
C978 C 0.93451 0.47055 0.87114 0.0
C979 C 0.94881 0.45891 0.8662 0.0
C980 C 0.92077 0.46528 0.89109 0.0
C981 C 0.92132 0.44851 0.90661 0.0
C982 C 0.93722 0.43843 0.90251 0.0
C983 C 0.95091 0.44363 0.88249 0.0
C984 C 0.90274 0.43898 0.92537 0.0
C985 C 0.88588 0.41313 0.92667 0.0
C986 C 0.89959 0.45508 0.94019 0.0
C987 C 0.91765 0.4824 0.94049 0.0
C988 C 0.94408 0.49175 0.94229 0.0
C989 C 0.96102 0.51749 0.94247 0.0
C990 C 0.95176 0.5341 0.94097 0.0
C991 C 0.92553 0.525 0.93934 0.0
C992 C 0.9085 0.49927 0.93915 0.0
C993 C 0.81796 0.38254 0.00409 0.0
C994 C 0.80039 0.39114 0.00387 0.0
C995 C 0.83797 0.39168 0.98867 0.0
C996 C 0.84073 0.40948 0.97268 0.0
C997 C 0.82316 0.41802 0.97234 0.0
C998 C 0.80309 0.40886 0.98774 0.0
C999 C 0.86188 0.41913 0.95622 0.0
C1000 C 0.87907 0.44493 0.95534 0.0
C1001 C 0.8654 0.40302 0.94176 0.0
C1002 C 0.84731 0.37574 0.9412 0.0
C1003 C 0.82119 0.36643 0.93712 0.0
C1004 C 0.80425 0.34069 0.93673 0.0
C1005 C 0.81322 0.32407 0.94023 0.0
C1006 C 0.83919 0.33316 0.94405 0.0
C1007 C 0.85621 0.35889 0.94448 0.0
H1008 H 0.80008 0.30416 0.93991 0.0
H1009 H 0.96491 0.55402 0.9411 0.0
H1010 H 0.4574 0.9405 0.02242 0.0
H1011 H 0.43902 0.91454 0.05569 0.0
H1012 H 0.51447 0.93445 0.07854 0.0
H1013 H 0.53294 0.96023 0.04515 0.0
H1014 H 0.44638 0.87421 0.06065 0.0
H1015 H 0.5107 0.92505 0.13654 0.0
H1016 H 0.53543 0.9677 0.15176 0.0
H1017 H 0.48568 0.98824 0.11852 0.0
H1018 H 0.46043 0.94563 0.10337 0.0
H1019 H 0.4516 0.81807 0.17679 0.0
H1020 H 0.4697 0.85134 0.14877 0.0
H1021 H 0.39458 0.82533 0.12137 0.0
H1022 H 0.37643 0.79177 0.14905 0.0
H1023 H 0.46237 0.8895 0.14202 0.0
H1024 H 0.39898 0.83722 0.06494 0.0
H1025 H 0.3776 0.7952 0.04808 0.0
H1026 H 0.42923 0.77782 0.08223 0.0
H1027 H 0.45122 0.81985 0.09897 0.0
C1028 C 0.4701 0.94 0.03493 0.0
C1029 C 0.49656 0.95214 0.03112 0.0
C1030 C 0.45959 0.92512 0.05387 0.0
C1031 C 0.47537 0.92238 0.06943 0.0
C1032 C 0.50197 0.93644 0.06679 0.0
C1033 C 0.51252 0.95128 0.04776 0.0
C1034 C 0.46397 0.90216 0.0863 0.0
C1035 C 0.44941 0.87756 0.0785 0.0
C1036 C 0.46894 0.90655 0.10943 0.0
C1037 C 0.48383 0.93219 0.11863 0.0
C1038 C 0.50498 0.93864 0.13254 0.0
C1039 C 0.5191 0.96282 0.14115 0.0
C1040 C 0.51218 0.98069 0.13605 0.0
C1041 C 0.49108 0.97441 0.12238 0.0
C1042 C 0.47689 0.95025 0.11374 0.0
C1043 C 0.43897 0.81929 0.16465 0.0
C1044 C 0.41259 0.80226 0.16509 0.0
C1045 C 0.44933 0.83839 0.14872 0.0
C1046 C 0.43354 0.84078 0.1329 0.0
C1047 C 0.40721 0.82366 0.1332 0.0
C1048 C 0.39685 0.8045 0.14906 0.0
C1049 C 0.4445 0.86148 0.11638 0.0
C1050 C 0.45911 0.88613 0.12419 0.0
C1051 C 0.4399 0.85714 0.09315 0.0
C1052 C 0.42652 0.8316 0.08347 0.0
C1053 C 0.40577 0.82443 0.06886 0.0
C1054 C 0.39357 0.80062 0.05929 0.0
C1055 C 0.40198 0.78381 0.06416 0.0
C1056 C 0.42265 0.79081 0.07856 0.0
C1057 C 0.43496 0.81462 0.08813 0.0
H1058 H 0.39252 0.7654 0.05672 0.0
H1059 H 0.52314 -0.0006 0.14272 0.0
H1060 H 0.57559 0.52632 0.2316 0.0
H1061 H 0.58041 0.5082 0.26635 0.0
H1062 H 0.53158 0.43426 0.24021 0.0
H1063 H 0.52628 0.45223 0.20554 0.0
H1064 H 0.54846 0.47234 0.29923 0.0
H1065 H 0.56489 0.40254 0.24902 0.0
H1066 H 0.57581 0.39682 0.21051 0.0
H1067 H 0.61732 0.47625 0.20093 0.0
H1068 H 0.60712 0.48244 0.23951 0.0
H1069 H 0.59155 0.38175 0.349 0.0
H1070 H 0.57493 0.39484 0.31761 0.0
H1071 H 0.61094 0.46963 0.34425 0.0
H1072 H 0.627 0.45662 0.37582 0.0
H1073 H 0.59628 0.42778 0.28501 0.0
H1074 H 0.57546 0.49643 0.33478 0.0
H1075 H 0.56301 0.5012 0.37296 0.0
H1076 H 0.52817 0.42217 0.38356 0.0
H1077 H 0.54007 0.41688 0.34535 0.0
C1078 C 0.56505 0.50623 0.23358 0.0
C1079 C 0.55084 0.49068 0.21573 0.0
C1080 C 0.56793 0.4959 0.25342 0.0
C1081 C 0.55677 0.46993 0.2556 0.0
C1082 C 0.54063 0.45436 0.23867 0.0
C1083 C 0.53765 0.46465 0.2189 0.0
C1084 C 0.56458 0.45937 0.27416 0.0
C1085 C 0.55904 0.46273 0.29621 0.0
C1086 C 0.57788 0.44634 0.27005 0.0
C1087 C 0.58494 0.44291 0.24707 0.0
C1088 C 0.57647 0.41877 0.23873 0.0
C1089 C 0.58254 0.41546 0.21689 0.0
C1090 C 0.59716 0.43616 0.20325 0.0
C1091 C 0.60592 0.46023 0.21148 0.0
C1092 C 0.6 0.46365 0.23334 0.0
C1093 C 0.59602 0.40101 0.34811 0.0
C1094 C 0.61042 0.41808 0.36503 0.0
C1095 C 0.58649 0.40846 0.33017 0.0
C1096 C 0.59122 0.43309 0.32882 0.0
C1097 C 0.60644 0.45036 0.34523 0.0
C1098 C 0.61576 0.44291 0.36322 0.0
C1099 C 0.58038 0.44089 0.31028 0.0
C1100 C 0.58543 0.4371 0.28816 0.0
C1101 C 0.56647 0.45337 0.31434 0.0
C1102 C 0.55887 0.45631 0.33725 0.0
C1103 C 0.56503 0.48006 0.34522 0.0
C1104 C 0.55809 0.48286 0.36688 0.0
C1105 C 0.54488 0.46201 0.3807 0.0
C1106 C 0.53848 0.43831 0.37287 0.0
C1107 C 0.54535 0.43541 0.35122 0.0
H1108 H 0.53955 0.46422 0.39747 0.0
H1109 H 0.60177 0.43355 0.18632 0.0
H1110 H 0.43014 0.95555 0.41128 0.0
H1111 H 0.42334 0.93329 0.37598 0.0
H1112 H 0.47411 0.90727 0.39738 0.0
H1113 H 0.48185 0.93037 0.43244 0.0
H1114 H 0.47656 0.91406 0.35224 0.0
H1115 H 0.4121 0.87231 0.40778 0.0
H1116 H 0.38025 0.86818 0.43574 0.0
H1117 H 0.33736 0.87963 0.38451 0.0
H1118 H 0.36923 0.88425 0.35628 0.0
H1119 H 0.41709 0.80094 0.28679 0.0
H1120 H 0.43349 0.83002 0.31847 0.0
H1121 H 0.38907 0.86326 0.29714 0.0
H1122 H 0.37276 0.83456 0.26554 0.0
H1123 H 0.38461 0.85212 0.3427 0.0
H1124 H 0.45079 0.89292 0.2869 0.0
H1125 H 0.48312 0.89554 0.26022 0.0
H1126 H 0.52286 0.88292 0.3136 0.0
H1127 H 0.49053 0.87988 0.34057 0.0
C1128 C 0.44068 0.94595 0.40815 0.0
C1129 C 0.45625 0.94442 0.42481 0.0
C1130 C 0.43655 0.933 0.38804 0.0
C1131 C 0.44766 0.91807 0.38435 0.0
C1132 C 0.46514 0.91846 0.39999 0.0
C1133 C 0.46943 0.93156 0.42005 0.0
C1134 C 0.43874 0.89989 0.36564 0.0
C1135 C 0.4565 0.90038 0.35024 0.0
C1136 C 0.41256 0.88194 0.3631 0.0
C1137 C 0.39318 0.87887 0.37996 0.0
C1138 C 0.39597 0.87412 0.4025 0.0
C1139 C 0.37791 0.87167 0.41839 0.0
C1140 C 0.35682 0.8737 0.41191 0.0
C1141 C 0.35373 0.8781 0.38951 0.0
C1142 C 0.37178 0.88063 0.37355 0.0
C1143 C 0.41075 0.81438 0.28892 0.0
C1144 C 0.39364 0.81545 0.27362 0.0
C1145 C 0.42025 0.83106 0.30693 0.0
C1146 C 0.41262 0.8489 0.31001 0.0
C1147 C 0.39523 0.84968 0.29501 0.0
C1148 C 0.38597 0.83326 0.27693 0.0
C1149 C 0.42233 0.86661 0.32902 0.0
C1150 C 0.40467 0.86586 0.34463 0.0
C1151 C 0.44861 0.88398 0.33189 0.0
C1152 C 0.46809 0.8859 0.31571 0.0
C1153 C 0.46629 0.89048 0.29292 0.0
C1154 C 0.48465 0.89209 0.27775 0.0
C1155 C 0.50499 0.88932 0.2852 0.0
C1156 C 0.50706 0.88502 0.30785 0.0
C1157 C 0.48874 0.88337 0.32308 0.0
H1158 H 0.51919 0.89058 0.27343 0.0
H1159 H 0.34286 0.8718 0.42424 0.0
H1160 H 0.50402 0.47027 0.59563 0.0
H1161 H 0.51576 0.46058 0.55902 0.0
H1162 H 0.49816 0.38811 0.58385 0.0
H1163 H 0.48556 0.3974 0.61964 0.0
H1164 H 0.55346 0.45304 0.55011 0.0
H1165 H 0.48107 0.34571 0.54485 0.0
H1166 H 0.43555 0.31677 0.55265 0.0
H1167 H 0.41961 0.37673 0.54553 0.0
H1168 H 0.46496 0.40598 0.53736 0.0
H1169 H 0.60865 0.39214 0.49483 0.0
H1170 H 0.58659 0.40541 0.52085 0.0
H1171 H 0.52634 0.38532 0.47257 0.0
H1172 H 0.54784 0.37111 0.44685 0.0
H1173 H 0.50601 0.37162 0.51106 0.0
H1174 H 0.57287 0.4476 0.48261 0.0
H1175 H 0.61685 0.47869 0.47182 0.0
H1176 H 0.64058 0.4856 0.5404 0.0
H1177 H 0.59681 0.45427 0.55157 0.0
C1178 C 0.50205 0.45208 0.59288 0.0
C1179 C 0.49413 0.43459 0.61034 0.0
C1180 C 0.5089 0.4466 0.57211 0.0
C1181 C 0.50769 0.42353 0.56858 0.0
C1182 C 0.4988 0.40582 0.58588 0.0
C1183 C 0.49187 0.41121 0.60643 0.0
C1184 C 0.51778 0.41845 0.54779 0.0
C1185 C 0.54298 0.43537 0.5414 0.0
C1186 C 0.50391 0.39568 0.53598 0.0
C1187 C 0.47649 0.37808 0.54059 0.0
C1188 C 0.46784 0.3527 0.54479 0.0
C1189 C 0.44206 0.33624 0.54932 0.0
C1190 C 0.42471 0.34491 0.54962 0.0
C1191 C 0.43309 0.37005 0.54535 0.0
C1192 C 0.45884 0.38658 0.5408 0.0
C1193 C 0.59064 0.39044 0.48982 0.0
C1194 C 0.58001 0.38063 0.46879 0.0
C1195 C 0.57814 0.39824 0.50462 0.0
C1196 C 0.55505 0.39691 0.4985 0.0
C1197 C 0.54417 0.38666 0.47766 0.0
C1198 C 0.55649 0.37852 0.46297 0.0
C1199 C 0.54206 0.40573 0.51409 0.0
C1200 C 0.51634 0.3895 0.51948 0.0
C1201 C 0.55519 0.42947 0.52448 0.0
C1202 C 0.58156 0.44846 0.5179 0.0
C1203 C 0.58749 0.45563 0.49537 0.0
C1204 C 0.61239 0.47331 0.4892 0.0
C1205 C 0.63151 0.48409 0.50541 0.0
C1206 C 0.62575 0.47724 0.52786 0.0
C1207 C 0.60089 0.45954 0.53413 0.0
H1208 H 0.65077 0.49777 0.5006 0.0
H1209 H 0.40476 0.33214 0.55315 0.0
H1210 H 0.05827 0.48786 0.74706 0.0
H1211 H 0.08229 0.5044 0.71244 0.0
H1212 H 0.11063 0.5795 0.73626 0.0
H1213 H 0.08609 0.56305 0.77086 0.0
H1214 H 0.10393 0.57505 0.68916 0.0
H1215 H 0.14456 0.55471 0.74754 0.0
H1216 H 0.14705 0.52778 0.77667 0.0
H1217 H 0.13725 0.47372 0.72682 0.0
H1218 H 0.13419 0.50014 0.69742 0.0
H1219 H 0.21997 0.62777 0.62452 0.0
H1220 H 0.19069 0.61605 0.65647 0.0
H1221 H 0.15703 0.53848 0.63822 0.0
H1222 H 0.18595 0.54993 0.60636 0.0
H1223 H 0.16772 0.54708 0.68364 0.0
H1224 H 0.12693 0.56875 0.62515 0.0
H1225 H 0.12465 0.59663 0.59689 0.0
H1226 H 0.13664 0.65018 0.64799 0.0
H1227 H 0.13936 0.62275 0.67653 0.0
C1228 C 0.06871 0.50788 0.74458 0.0
C1229 C 0.07056 0.52417 0.7618 0.0
C1230 C 0.08261 0.51731 0.72485 0.0
C1231 C 0.09865 0.54314 0.72206 0.0
C1232 C 0.09848 0.55951 0.73818 0.0
C1233 C 0.08456 0.55008 0.75795 0.0
C1234 C 0.11812 0.55267 0.7041 0.0
C1235 C 0.11806 0.56918 0.68804 0.0
C1236 C 0.13658 0.54504 0.70275 0.0
C1237 C 0.1389 0.52929 0.72031 0.0
C1238 C 0.14275 0.537 0.74281 0.0
C1239 C 0.14428 0.52183 0.75937 0.0
C1240 C 0.14226 0.49902 0.7536 0.0
C1241 C 0.13878 0.49138 0.73126 0.0
C1242 C 0.13715 0.50644 0.71464 0.0
C1243 C 0.20647 0.60821 0.62744 0.0
C1244 C 0.20524 0.58978 0.61288 0.0
C1245 C 0.18967 0.60158 0.6456 0.0
C1246 C 0.17157 0.57643 0.64954 0.0
C1247 C 0.17082 0.558 0.63541 0.0
C1248 C 0.18735 0.5646 0.61719 0.0
C1249 C 0.15324 0.56904 0.66833 0.0
C1250 C 0.15363 0.55301 0.68471 0.0
C1251 C 0.13535 0.57738 0.67005 0.0
C1252 C 0.13365 0.59383 0.65293 0.0
C1253 C 0.12931 0.58657 0.63033 0.0
C1254 C 0.12789 0.60227 0.61427 0.0
C1255 C 0.13058 0.6252 0.62062 0.0
C1256 C 0.13461 0.63244 0.64308 0.0
C1257 C 0.13608 0.61682 0.6592 0.0
H1258 H 0.12946 0.63732 0.60816 0.0
H1259 H 0.14344 0.4873 0.76644 0.0
H1260 H 0.53643 0.08728 0.93447 0.0
H1261 H 0.54436 0.10989 0.89925 0.0
H1262 H 0.59143 0.0798 0.87707 0.0
H1263 H 0.58468 0.05821 0.9128 0.0
H1264 H 0.61644 0.12794 0.87302 0.0
H1265 H 0.53269 0.06444 0.85187 0.0
H1266 H 0.48626 0.03664 0.85593 0.0
H1267 H 0.4757 0.10023 0.85956 0.0
H1268 H 0.52212 0.12844 0.85583 0.0
H1269 H 0.6372 0.17871 0.76376 0.0
H1270 H 0.6225 0.14991 0.79537 0.0
H1271 H 0.58522 0.18764 0.82336 0.0
H1272 H 0.5999 0.21673 0.79164 0.0
H1273 H 0.55455 0.13497 0.82345 0.0
H1274 H 0.63872 0.19803 0.84597 0.0
H1275 H 0.68517 0.22546 0.84149 0.0
H1276 H 0.69449 0.16136 0.83469 0.0
H1277 H 0.64802 0.13353 0.83882 0.0
C1278 C 0.54815 0.08516 0.92194 0.0
C1279 C 0.56017 0.07118 0.92657 0.0
C1280 C 0.55249 0.09793 0.9017 0.0
C1281 C 0.56853 0.0966 0.88545 0.0
C1282 C 0.57906 0.0812 0.88938 0.0
C1283 C 0.57493 0.06861 0.90974 0.0
C1284 C 0.57657 0.11335 0.86562 0.0
C1285 C 0.60283 0.12905 0.86194 0.0
C1286 C 0.55889 0.11548 0.85155 0.0
C1287 C 0.53094 0.09856 0.85376 0.0
C1288 C 0.5205 0.07251 0.85372 0.0
C1289 C 0.49417 0.05667 0.85592 0.0
C1290 C 0.47805 0.06666 0.85806 0.0
C1291 C 0.48821 0.09252 0.85793 0.0
C1292 C 0.51453 0.10844 0.85574 0.0
C1293 C 0.62596 0.18101 0.77665 0.0
C1294 C 0.61981 0.20011 0.7752 0.0
C1295 C 0.61759 0.16452 0.79472 0.0
C1296 C 0.60286 0.16671 0.81171 0.0
C1297 C 0.59656 0.18565 0.81036 0.0
C1298 C 0.60511 0.20234 0.79232 0.0
C1299 C 0.59427 0.14924 0.83093 0.0
C1300 C 0.56801 0.13358 0.83451 0.0
C1301 C 0.6119 0.14701 0.84488 0.0
C1302 C 0.63986 0.1637 0.84248 0.0
C1303 C 0.65065 0.18978 0.84333 0.0
C1304 C 0.67698 0.2054 0.84089 0.0
C1305 C 0.69276 0.19516 0.83775 0.0
C1306 C 0.68224 0.16927 0.8371 0.0
C1307 C 0.65591 0.15356 0.8395 0.0
H1308 H 0.71315 0.20728 0.83587 0.0
H1309 H 0.45767 0.05437 0.85976 0.0
H1310 H 0.5382 0.58374 0.09699 0.0
H1311 H 0.52406 0.59369 0.06211 0.0
H1312 H 0.44635 0.53771 0.07688 0.0
H1313 H 0.46044 0.5276 0.11175 0.0
H1314 H 0.4573 0.54443 0.03012 0.0
H1315 H 0.46468 0.59156 0.09655 0.0
H1316 H 0.48722 0.61671 0.12965 0.0
H1317 H 0.54435 0.6729 0.08719 0.0
H1318 H 0.52237 0.64777 0.05383 0.0
H1319 H 0.38594 0.59645 0.98408 0.0
H1320 H 0.40484 0.57995 0.01038 0.0
H1321 H 0.48011 0.63897 0.99236 0.0
H1322 H 0.46136 0.65554 0.96588 0.0
H1323 H 0.47263 0.63073 0.03869 0.0
H1324 H 0.46054 0.58372 0.97138 0.0
H1325 H 0.43586 0.5575 0.93948 0.0
H1326 H 0.38486 0.50025 0.9847 0.0
H1327 H 0.40899 0.52631 0.01691 0.0
C1328 C 0.5183 0.57274 0.09228 0.0
C1329 C 0.50034 0.55508 0.10712 0.0
C1330 C 0.51021 0.57856 0.07243 0.0
C1331 C 0.48411 0.56675 0.0672 0.0
C1332 C 0.46655 0.54707 0.08068 0.0
C1333 C 0.4746 0.54134 0.10058 0.0
C1334 C 0.47474 0.57771 0.05025 0.0
C1335 C 0.46056 0.56325 0.03197 0.0
C1336 C 0.47906 0.60229 0.05275 0.0
C1337 C 0.49206 0.61766 0.07272 0.0
C1338 C 0.48216 0.60919 0.09428 0.0
C1339 C 0.49482 0.62344 0.11309 0.0
C1340 C 0.51724 0.64636 0.11053 0.0
C1341 C 0.52701 0.65511 0.08915 0.0
C1342 C 0.51446 0.64087 0.07028 0.0
C1343 C 0.4065 0.60605 0.98585 0.0
C1344 C 0.42219 0.62727 0.97288 0.0
C1345 C 0.41727 0.5965 0.00076 0.0
C1346 C 0.44386 0.60807 0.00306 0.0
C1347 C 0.45954 0.62972 0.99071 0.0
C1348 C 0.4488 0.63915 0.97562 0.0
C1349 C 0.45528 0.59754 0.0184 0.0
C1350 C 0.46968 0.61205 0.03657 0.0
C1351 C 0.45085 0.57291 0.01591 0.0
C1352 C 0.43646 0.55707 -0.00343 0.0
C1353 C 0.44395 0.56562 0.97453 0.0
C1354 C 0.43007 0.55078 0.95639 0.0
C1355 C 0.40877 0.52725 0.96006 0.0
C1356 C 0.40135 0.51849 0.98189 0.0
C1357 C 0.41513 0.53328 9e-05 0.0
H1358 H 0.39805 0.51578 0.946 0.0
H1359 H 0.52703 0.65738 0.1251 0.0
H1360 H 0.9259 0.4514 0.27122 0.0
H1361 H 0.90516 0.4364 0.23498 0.0
H1362 H 0.93882 0.51236 0.21153 0.0
H1363 H 0.95891 0.52748 0.24796 0.0
H1364 H 0.88845 0.4889 0.20834 0.0
H1365 H 0.95348 0.47052 0.18745 0.0
H1366 H 0.98169 0.45265 0.19156 0.0
H1367 H 0.91643 0.37885 0.19412 0.0
H1368 H 0.88779 0.39629 0.19034 0.0
H1369 H 0.83785 0.46169 0.09943 0.0
H1370 H 0.86753 0.47455 0.13073 0.0
H1371 H 0.8274 0.39976 0.15734 0.0
H1372 H 0.79736 0.38654 0.12586 0.0
H1373 H 0.88166 0.42204 0.15809 0.0
H1374 H 0.81698 0.4407 0.18091 0.0
H1375 H 0.78869 0.45848 0.17688 0.0
H1376 H 0.8539 0.53201 0.17104 0.0
H1377 H 0.88261 0.51461 0.1747 0.0
C1378 C 0.92943 0.46486 0.25812 0.0
C1379 C 0.9438 0.49062 0.26252 0.0
C1380 C 0.91768 0.45626 0.23736 0.0
C1381 C 0.9203 0.47327 0.22057 0.0
C1382 C 0.93647 0.49892 0.22429 0.0
C1383 C 0.94817 0.50753 0.24507 0.0
C1384 C 0.90342 0.46461 0.20065 0.0
C1385 C 0.88739 0.47464 0.1971 0.0
C1386 C 0.90131 0.44532 0.1865 0.0
C1387 C 0.91847 0.43475 0.18882 0.0
C1388 C 0.94512 0.45049 0.18909 0.0
C1389 C 0.9612 0.44044 0.19132 0.0
C1390 C 0.95085 0.41464 0.19316 0.0
C1391 C 0.92441 0.39883 0.19272 0.0
C1392 C 0.90825 0.4088 0.19051 0.0
C1393 C 0.83524 0.44788 0.11188 0.0
C1394 C 0.8151 0.42308 0.11019 0.0
C1395 C 0.85226 0.45531 0.12977 0.0
C1396 C 0.84957 0.43813 0.14636 0.0
C1397 C 0.82978 0.41326 0.14464 0.0
C1398 C 0.81255 0.40581 0.12676 0.0
C1399 C 0.86707 0.44659 0.16579 0.0
C1400 C 0.88299 0.43643 0.1693 0.0
C1401 C 0.86915 0.46577 0.18 0.0
C1402 C 0.85194 0.47631 0.17784 0.0
C1403 C 0.82529 0.46063 0.17856 0.0
C1404 C 0.80918 0.47065 0.17639 0.0
C1405 C 0.81949 0.49635 0.17364 0.0
C1406 C 0.84594 0.5121 0.17313 0.0
C1407 C 0.86214 0.50217 0.17527 0.0
H1408 H 0.80698 0.50408 0.17197 0.0
H1409 H 0.96333 0.40689 0.19487 0.0
loop_
_geom_bond_atom_site_label_1
_geom_bond_atom_site_label_2
_geom_bond_distance
_geom_bond_site_symmetry_2
_ccdc_geom_bond_type
H0 C8 0.930 . S
H1 C11 0.930 . S
H2 C13 0.930 . S
H3 C14 0.970 . S
H4 C14 0.970 . S
H5 C16 0.930 . S
H6 C18 0.930 . S
H7 C20 0.930 . S
C8 H0 0.930 . S
C8 C9 1.382 . S
C8 C10 1.426 . S
C9 C8 1.382 . S
C9 C13 1.389 . S
C10 C8 1.426 . S
C10 C11 1.375 . S
C10 C14 1.532 1_655 S
C11 H1 0.930 . S
C11 C10 1.375 . S
C11 C12 1.416 . S
C12 C11 1.416 . S
C12 C13 1.371 . S
C13 H2 0.930 . S
C13 C9 1.389 . S
C13 C12 1.371 . S
C14 H3 0.970 . S
C14 H4 0.970 . S
C14 C10 1.532 1_455 S
C14 C15 1.499 . S
C15 C14 1.499 . S
C15 C16 1.370 . S
C15 C20 1.415 . S
C16 H5 0.930 . S
C16 C15 1.370 . S
C16 C17 1.407 . S
C17 C16 1.407 . S
C17 C18 1.365 . S
C18 H6 0.930 . S
C18 C17 1.365 . S
C18 C19 1.393 . S
C19 C18 1.393 . S
C19 C20 1.387 . S
C20 H7 0.930 . S
C20 C15 1.415 . S
C20 C19 1.387 . S
H21 C29 0.930 . S
H22 C32 0.930 . S
H23 C34 0.930 . S
H24 C35 0.970 . S
H25 C35 0.970 . S
H26 C37 0.930 . S
H27 C39 0.930 . S
H28 C41 0.930 . S
C29 H21 0.930 . S
C29 C30 1.382 . S
C29 C31 1.426 . S
C30 C29 1.382 . S
C30 C34 1.389 . S
C31 C29 1.426 . S
C31 C32 1.375 . S
C31 C35 1.532 1_565 S
C32 H22 0.930 . S
C32 C31 1.375 . S
C32 C33 1.416 . S
C33 C32 1.416 . S
C33 C34 1.371 . S
C34 H23 0.930 . S
C34 C30 1.389 . S
C34 C33 1.371 . S
C35 H24 0.970 . S
C35 H25 0.970 . S
C35 C31 1.532 1_545 S
C35 C36 1.499 . S
C36 C35 1.499 . S
C36 C37 1.370 . S
C36 C41 1.415 . S
C37 H26 0.930 . S
C37 C36 1.370 . S
C37 C38 1.407 . S
C38 C37 1.407 . S
C38 C39 1.365 . S
C39 H27 0.930 . S
C39 C38 1.365 . S
C39 C40 1.393 . S
C40 C39 1.393 . S
C40 C41 1.387 . S
C41 H28 0.930 . S
C41 C36 1.415 . S
C41 C40 1.387 . S
H42 C50 0.930 . S
H43 C53 0.930 . S
H44 C55 0.930 . S
H45 C56 0.970 . S
H46 C56 0.970 . S
H47 C58 0.930 . S
H48 C60 0.930 . S
H49 C62 0.930 . S
C50 H42 0.930 . S
C50 C51 1.382 . S
C50 C52 1.426 . S
C51 C50 1.382 . S
C51 C55 1.389 . S
C52 C50 1.426 . S
C52 C53 1.375 . S
C52 C56 1.532 . S
C53 H43 0.930 . S
C53 C52 1.375 . S
C53 C54 1.416 . S
C54 C53 1.416 . S
C54 C55 1.371 . S
C55 H44 0.930 . S
C55 C51 1.389 . S
C55 C54 1.371 . S
C56 H45 0.970 . S
C56 H46 0.970 . S
C56 C52 1.532 . S
C56 C57 1.499 . S
C57 C56 1.499 . S
C57 C58 1.370 . S
C57 C62 1.415 . S
C58 H47 0.930 . S
C58 C57 1.370 . S
C58 C59 1.407 . S
C59 C58 1.407 . S
C59 C60 1.365 . S
C60 H48 0.930 . S
C60 C59 1.365 . S
C60 C61 1.393 . S
C61 C60 1.393 . S
C61 C62 1.387 . S
C62 H49 0.930 . S
C62 C57 1.415 . S
C62 C61 1.387 . S
H63 C71 0.930 . S
H64 C74 0.930 . S
H65 C76 0.930 . S
H66 C77 0.970 . S
H67 C77 0.970 . S
H68 C79 0.930 . S
H69 C81 0.930 . S
H70 C83 0.930 . S
C71 H63 0.930 . S
C71 C72 1.382 . S
C71 C73 1.426 . S
C72 C71 1.382 . S
C72 C76 1.389 . S
C73 C71 1.426 . S
C73 C74 1.375 . S
C73 C77 1.532 1_655 S
C74 H64 0.930 . S
C74 C73 1.375 . S
C74 C75 1.416 . S
C75 C74 1.416 . S
C75 C76 1.371 . S
C76 H65 0.930 . S
C76 C72 1.389 . S
C76 C75 1.371 . S
C77 H66 0.970 . S
C77 H67 0.970 . S
C77 C73 1.532 1_455 S
C77 C78 1.499 . S
C78 C77 1.499 . S
C78 C79 1.370 . S
C78 C83 1.415 . S
C79 H68 0.930 . S
C79 C78 1.370 . S
C79 C80 1.407 . S
C80 C79 1.407 . S
C80 C81 1.365 . S
C81 H69 0.930 . S
C81 C80 1.365 . S
C81 C82 1.393 . S
C82 C81 1.393 . S
C82 C83 1.387 . S
C83 H70 0.930 . S
C83 C78 1.415 . S
C83 C82 1.387 . S
H84 C92 0.930 . S
H85 C95 0.930 . S
H86 C97 0.930 . S
H87 C98 0.970 1_554 S
H88 C98 0.970 . S
H89 C100 0.930 . S
H90 C102 0.930 . S
H91 C104 0.930 . S
C92 H84 0.930 . S
C92 C93 1.382 1_554 S
C92 C94 1.426 1_554 S
C93 C92 1.382 1_556 S
C93 C97 1.389 . S
C94 C92 1.426 1_556 S
C94 C95 1.375 . S
C94 C98 1.532 . S
C95 H85 0.930 . S
C95 C94 1.375 . S
C95 C96 1.416 . S
C96 C95 1.416 . S
C96 C97 1.371 . S
C97 H86 0.930 . S
C97 C93 1.389 . S
C97 C96 1.371 . S
C98 H87 0.970 1_556 S
C98 H88 0.970 . S
C98 C94 1.532 . S
C98 C99 1.499 1_545 S
C99 C98 1.499 1_565 S
C99 C100 1.370 1_556 S
C99 C104 1.415 . S
C100 H89 0.930 . S
C100 C99 1.370 1_554 S
C100 C101 1.407 . S
C101 C100 1.407 . S
C101 C102 1.365 . S
C102 H90 0.930 . S
C102 C101 1.365 . S
C102 C103 1.393 1_554 S
C103 C102 1.393 1_556 S
C103 C104 1.387 . S
C104 H91 0.930 . S
C104 C99 1.415 . S
C104 C103 1.387 . S
H105 C113 0.930 . S
H106 C116 0.930 . S
H107 C118 0.930 . S
H108 C119 0.970 . S
H109 C119 0.970 . S
H110 C121 0.930 . S
H111 C123 0.930 . S
H112 C125 0.930 . S
C113 H105 0.930 . S
C113 C114 1.382 . S
C113 C115 1.426 . S
C114 C113 1.382 . S
C114 C118 1.389 . S
C115 C113 1.426 . S
C115 C116 1.375 . S
C115 C119 1.532 . S
C116 H106 0.930 . S
C116 C115 1.375 . S
C116 C117 1.416 . S
C117 C116 1.416 . S
C117 C118 1.371 . S
C118 H107 0.930 . S
C118 C114 1.389 . S
C118 C117 1.371 . S
C119 H108 0.970 . S
C119 H109 0.970 . S
C119 C115 1.532 . S
C119 C120 1.499 . S
C120 C119 1.499 . S
C120 C121 1.370 . S
C120 C125 1.415 . S
C121 H110 0.930 . S
C121 C120 1.370 . S
C121 C122 1.407 . S
C122 C121 1.407 . S
C122 C123 1.365 . S
C123 H111 0.930 . S
C123 C122 1.365 . S
C123 C124 1.393 . S
C124 C123 1.393 . S
C124 C125 1.387 . S
C125 H112 0.930 . S
C125 C120 1.415 . S
C125 C124 1.387 . S
C126 O127 1.306 . S
C126 O129 1.160 . S
O127 C126 1.306 . S
O127 Cd128 2.228 . S
Cd128 O127 2.228 . S
Cd128 O132 2.273 . S
Cd128 O136 2.277 . S
O129 C126 1.160 . S
O129 Cd130 2.203 . S
Cd130 O129 2.203 . S
Cd130 O132 2.411 . S
Cd130 O133 2.333 . S
Cd130 O134 2.352 . S
Cd130 O138 2.277 . S
Cd130 O139 2.356 . S
C131 O136 1.209 . S
C131 O138 1.226 . S
O132 Cd128 2.273 . S
O132 Cd130 2.411 . S
O132 C135 1.320 . S
O133 Cd130 2.333 . S
O133 C135 1.214 . S
O134 Cd130 2.352 . S
O134 C137 1.258 . S
C135 O132 1.320 . S
C135 O133 1.214 . S
O136 Cd128 2.277 . S
O136 C131 1.209 . S
C137 O134 1.258 . S
C137 O139 1.282 . S
O138 Cd130 2.277 . S
O138 C131 1.226 . S
O139 Cd130 2.356 . S
O139 C137 1.282 . S
C140 O141 1.306 . S
C140 O143 1.160 . S
O141 C140 1.306 . S
O141 Cd142 2.228 . S
Cd142 O141 2.228 . S
Cd142 O146 2.273 . S
Cd142 O150 2.277 . S
O143 C140 1.160 . S
O143 Cd144 2.203 . S
Cd144 O143 2.203 . S
Cd144 O146 2.411 . S
Cd144 O147 2.333 . S
Cd144 O148 2.352 . S
Cd144 O152 2.277 . S
Cd144 O153 2.356 . S
C145 O150 1.209 . S
C145 O152 1.226 . S
O146 Cd142 2.273 . S
O146 Cd144 2.411 . S
O146 C149 1.320 . S
O147 Cd144 2.333 . S
O147 C149 1.214 . S
O148 Cd144 2.352 . S
O148 C151 1.258 . S
C149 O146 1.320 . S
C149 O147 1.214 . S
O150 Cd142 2.277 . S
O150 C145 1.209 . S
C151 O148 1.258 . S
C151 O153 1.282 . S
O152 Cd144 2.277 . S
O152 C145 1.226 . S
O153 Cd144 2.356 . S
O153 C151 1.282 . S
C154 O155 1.306 . S
C154 O157 1.160 . S
O155 C154 1.306 . S
O155 Cd156 2.228 . S
Cd156 O155 2.228 . S
Cd156 O160 2.273 . S
Cd156 O164 2.277 . S
O157 C154 1.160 . S
O157 Cd158 2.203 . S
Cd158 O157 2.203 . S
Cd158 O160 2.411 . S
Cd158 O161 2.333 . S
Cd158 O162 2.352 . S
Cd158 O166 2.277 . S
Cd158 O167 2.356 . S
C159 O164 1.209 . S
C159 O166 1.226 . S
O160 Cd156 2.273 . S
O160 Cd158 2.411 . S
O160 C163 1.320 . S
O161 Cd158 2.333 . S
O161 C163 1.214 . S
O162 Cd158 2.352 . S
O162 C165 1.258 . S
C163 O160 1.320 . S
C163 O161 1.214 . S
O164 Cd156 2.277 . S
O164 C159 1.209 . S
C165 O162 1.258 . S
C165 O167 1.282 . S
O166 Cd158 2.277 . S
O166 C159 1.226 . S
O167 Cd158 2.356 . S
O167 C165 1.282 . S
C168 O169 1.306 . S
C168 O171 1.160 . S
O169 C168 1.306 . S
O169 Cd170 2.228 . S
Cd170 O169 2.228 . S
Cd170 O174 2.273 . S
Cd170 O178 2.277 . S
O171 C168 1.160 . S
O171 Cd172 2.203 . S
Cd172 O171 2.203 . S
Cd172 O174 2.411 . S
Cd172 O175 2.333 . S
Cd172 O176 2.352 . S
Cd172 O180 2.277 . S
Cd172 O181 2.356 . S
C173 O178 1.209 . S
C173 O180 1.226 . S
O174 Cd170 2.273 . S
O174 Cd172 2.411 . S
O174 C177 1.320 . S
O175 Cd172 2.333 . S
O175 C177 1.214 . S
O176 Cd172 2.352 . S
O176 C179 1.258 . S
C177 O174 1.320 . S
C177 O175 1.214 . S
O178 Cd170 2.277 . S
O178 C173 1.209 . S
C179 O176 1.258 . S
C179 O181 1.282 . S
O180 Cd172 2.277 . S
O180 C173 1.226 . S
O181 Cd172 2.356 . S
O181 C179 1.282 . S
C182 O183 1.306 . S
C182 O185 1.160 . S
O183 C182 1.306 . S
O183 Cd184 2.228 . S
Cd184 O183 2.228 . S
Cd184 O188 2.273 . S
Cd184 O192 2.277 . S
O185 C182 1.160 . S
O185 Cd186 2.203 . S
Cd186 O185 2.203 . S
Cd186 O188 2.411 . S
Cd186 O189 2.333 . S
Cd186 O190 2.352 . S
Cd186 O194 2.277 . S
Cd186 O195 2.356 . S
C187 O192 1.209 . S
C187 O194 1.226 . S
O188 Cd184 2.273 . S
O188 Cd186 2.411 . S
O188 C191 1.320 . S
O189 Cd186 2.333 . S
O189 C191 1.214 . S
O190 Cd186 2.352 . S
O190 C193 1.258 . S
C191 O188 1.320 . S
C191 O189 1.214 . S
O192 Cd184 2.277 . S
O192 C187 1.209 . S
C193 O190 1.258 . S
C193 O195 1.282 . S
O194 Cd186 2.277 . S
O194 C187 1.226 . S
O195 Cd186 2.356 . S
O195 C193 1.282 . S
C196 O197 1.306 . S
C196 O199 1.160 . S
O197 C196 1.306 . S
O197 Cd198 2.228 . S
Cd198 O197 2.228 . S
Cd198 O202 2.273 . S
Cd198 O206 2.277 . S
O199 C196 1.160 . S
O199 Cd200 2.203 . S
Cd200 O199 2.203 . S
Cd200 O202 2.411 . S
Cd200 O203 2.333 . S
Cd200 O204 2.352 . S
Cd200 O208 2.277 . S
Cd200 O209 2.356 . S
C201 O206 1.209 . S
C201 O208 1.226 . S
O202 Cd198 2.273 . S
O202 Cd200 2.411 . S
O202 C205 1.320 . S
O203 Cd200 2.333 . S
O203 C205 1.214 . S
O204 Cd200 2.352 . S
O204 C207 1.258 . S
C205 O202 1.320 . S
C205 O203 1.214 . S
O206 Cd198 2.277 . S
O206 C201 1.209 . S
C207 O204 1.258 . S
C207 O209 1.282 . S
O208 Cd200 2.277 . S
O208 C201 1.226 . S
O209 Cd200 2.356 . S
O209 C207 1.282 . S
H210 C228 0.951 . S
H211 C230 0.951 . S
H212 C232 0.950 . S
H213 C233 0.950 . S
H214 C235 0.950 . S
H215 C238 0.950 . S
H216 C239 0.950 . S
H217 C241 0.950 . S
H218 C242 0.950 . S
H219 C243 0.951 . S
H220 C245 0.951 . S
H221 C247 0.950 . S
H222 C248 0.950 . S
H223 C250 0.950 . S
H224 C253 0.950 . S
H225 C254 0.950 . S
H226 C256 0.950 . S
H227 C257 0.950 . S
C228 H210 0.951 . S
C228 C229 1.366 . S
C228 C230 1.388 . S
C229 C228 1.366 . S
C229 C233 1.385 . S
C230 H211 0.951 . S
C230 C228 1.388 . S
C230 C231 1.366 . S
C231 C230 1.366 . S
C231 C232 1.414 . S
C231 C234 1.499 . S
C232 H212 0.950 . S
C232 C231 1.414 . S
C232 C233 1.374 . S
C233 H213 0.950 . S
C233 C229 1.385 . S
C233 C232 1.374 . S
C234 C231 1.499 . S
C234 C235 1.373 . S
C234 C236 1.389 . S
C235 H214 0.950 . S
C235 C234 1.373 . S
C235 C251 1.377 . S
C236 C234 1.389 . S
C236 C237 1.524 . S
C236 C250 1.377 . S
C237 C236 1.524 . S
C237 C238 1.397 . S
C237 C242 1.363 . S
C238 H215 0.950 . S
C238 C237 1.397 . S
C238 C239 1.334 . S
C239 H216 0.950 . S
C239 C238 1.334 . S
C239 C240 1.287 . S
C240 C239 1.287 . S
C240 C241 1.524 . S
C240 H259 0.913 . S
C241 H217 0.950 . S
C241 C240 1.524 . S
C241 C242 1.415 . S
C242 H218 0.950 . S
C242 C237 1.363 . S
C242 C241 1.415 . S
C243 H219 0.951 . S
C243 C244 1.366 . S
C243 C245 1.388 . S
C244 C243 1.366 . S
C244 C248 1.385 . S
C245 H220 0.951 . S
C245 C243 1.388 . S
C245 C246 1.366 . S
C246 C245 1.366 . S
C246 C247 1.414 . S
C246 C249 1.499 . S
C247 H221 0.950 . S
C247 C246 1.414 . S
C247 C248 1.374 . S
C248 H222 0.950 . S
C248 C244 1.385 . S
C248 C247 1.374 . S
C249 C246 1.499 . S
C249 C250 1.373 . S
C249 C251 1.389 . S
C250 H223 0.950 . S
C250 C236 1.377 . S
C250 C249 1.373 . S
C251 C235 1.377 . S
C251 C249 1.389 . S
C251 C252 1.524 . S
C252 C251 1.524 . S
C252 C253 1.397 . S
C252 C257 1.363 . S
C253 H224 0.950 . S
C253 C252 1.397 . S
C253 C254 1.334 . S
C254 H225 0.950 . S
C254 C253 1.334 . S
C254 C255 1.287 . S
C255 C254 1.287 . S
C255 C256 1.524 . S
C255 H258 0.999 . S
C256 H226 0.950 . S
C256 C255 1.524 . S
C256 C257 1.415 . S
C257 H227 0.950 . S
C257 C252 1.363 . S
C257 C256 1.415 . S
H258 C255 0.999 . S
H259 C240 0.913 . S
H260 C278 0.951 . S
H261 C280 0.951 . S
H262 C282 0.950 . S
H263 C283 0.950 . S
H264 C285 0.950 . S
H265 C288 0.950 . S
H266 C289 0.950 . S
H267 C291 0.950 . S
H268 C292 0.950 . S
H269 C293 0.951 . S
H270 C295 0.951 . S
H271 C297 0.950 . S
H272 C298 0.950 . S
H273 C300 0.950 . S
H274 C303 0.950 . S
H275 C304 0.950 . S
H276 C306 0.950 . S
H277 C307 0.950 . S
C278 H260 0.951 . S
C278 C279 1.366 . S
C278 C280 1.388 . S
C279 C278 1.366 . S
C279 C283 1.385 . S
C280 H261 0.951 . S
C280 C278 1.388 . S
C280 C281 1.366 . S
C281 C280 1.366 . S
C281 C282 1.414 . S
C281 C284 1.499 . S
C282 H262 0.950 . S
C282 C281 1.414 . S
C282 C283 1.374 . S
C283 H263 0.950 . S
C283 C279 1.385 . S
C283 C282 1.374 . S
C284 C281 1.499 . S
C284 C285 1.373 . S
C284 C286 1.389 . S
C285 H264 0.950 . S
C285 C284 1.373 . S
C285 C301 1.377 . S
C286 C284 1.389 . S
C286 C287 1.524 . S
C286 C300 1.377 . S
C287 C286 1.524 . S
C287 C288 1.397 . S
C287 C292 1.363 . S
C288 H265 0.950 . S
C288 C287 1.397 . S
C288 C289 1.334 . S
C289 H266 0.950 . S
C289 C288 1.334 . S
C289 C290 1.287 . S
C290 C289 1.287 . S
C290 C291 1.524 . S
C290 H309 0.913 . S
C291 H267 0.950 . S
C291 C290 1.524 . S
C291 C292 1.415 . S
C292 H268 0.950 . S
C292 C287 1.363 . S
C292 C291 1.415 . S
C293 H269 0.951 . S
C293 C294 1.366 . S
C293 C295 1.388 . S
C294 C293 1.366 . S
C294 C298 1.385 . S
C295 H270 0.951 . S
C295 C293 1.388 . S
C295 C296 1.366 . S
C296 C295 1.366 . S
C296 C297 1.414 . S
C296 C299 1.499 . S
C297 H271 0.950 . S
C297 C296 1.414 . S
C297 C298 1.374 . S
C298 H272 0.950 . S
C298 C294 1.385 . S
C298 C297 1.374 . S
C299 C296 1.499 . S
C299 C300 1.373 . S
C299 C301 1.389 . S
C300 H273 0.950 . S
C300 C286 1.377 . S
C300 C299 1.373 . S
C301 C285 1.377 . S
C301 C299 1.389 . S
C301 C302 1.524 . S
C302 C301 1.524 . S
C302 C303 1.397 . S
C302 C307 1.363 . S
C303 H274 0.950 . S
C303 C302 1.397 . S
C303 C304 1.334 . S
C304 H275 0.950 . S
C304 C303 1.334 . S
C304 C305 1.287 . S
C305 C304 1.287 . S
C305 C306 1.524 . S
C305 H308 0.999 . S
C306 H276 0.950 . S
C306 C305 1.524 . S
C306 C307 1.415 . S
C307 H277 0.950 . S
C307 C302 1.363 . S
C307 C306 1.415 . S
H308 C305 0.999 . S
H309 C290 0.913 . S
H310 C328 0.951 . S
H311 C330 0.951 . S
H312 C332 0.950 . S
H313 C333 0.950 . S
H314 C335 0.950 . S
H315 C338 0.950 . S
H316 C339 0.950 . S
H317 C341 0.950 . S
H318 C342 0.950 . S
H319 C343 0.951 . S
H320 C345 0.951 . S
H321 C347 0.950 . S
H322 C348 0.950 . S
H323 C350 0.950 . S
H324 C353 0.950 . S
H325 C354 0.950 . S
H326 C356 0.950 . S
H327 C357 0.950 . S
C328 H310 0.951 . S
C328 C329 1.366 . S
C328 C330 1.388 . S
C329 C328 1.366 . S
C329 C333 1.385 . S
C330 H311 0.951 . S
C330 C328 1.388 . S
C330 C331 1.366 . S
C331 C330 1.366 . S
C331 C332 1.414 . S
C331 C334 1.499 . S
C332 H312 0.950 . S
C332 C331 1.414 . S
C332 C333 1.374 . S
C333 H313 0.950 . S
C333 C329 1.385 . S
C333 C332 1.374 . S
C334 C331 1.499 . S
C334 C335 1.373 . S
C334 C336 1.389 . S
C335 H314 0.950 . S
C335 C334 1.373 . S
C335 C351 1.377 . S
C336 C334 1.389 . S
C336 C337 1.524 . S
C336 C350 1.377 . S
C337 C336 1.524 . S
C337 C338 1.397 . S
C337 C342 1.363 . S
C338 H315 0.950 . S
C338 C337 1.397 . S
C338 C339 1.334 . S
C339 H316 0.950 . S
C339 C338 1.334 . S
C339 C340 1.287 . S
C340 C339 1.287 . S
C340 C341 1.524 . S
C340 H359 0.913 . S
C341 H317 0.950 . S
C341 C340 1.524 . S
C341 C342 1.415 . S
C342 H318 0.950 . S
C342 C337 1.363 . S
C342 C341 1.415 . S
C343 H319 0.951 . S
C343 C344 1.366 . S
C343 C345 1.388 . S
C344 C343 1.366 . S
C344 C348 1.385 . S
C345 H320 0.951 . S
C345 C343 1.388 . S
C345 C346 1.366 . S
C346 C345 1.366 . S
C346 C347 1.414 . S
C346 C349 1.499 . S
C347 H321 0.950 . S
C347 C346 1.414 . S
C347 C348 1.374 . S
C348 H322 0.950 . S
C348 C344 1.385 . S
C348 C347 1.374 . S
C349 C346 1.499 . S
C349 C350 1.373 . S
C349 C351 1.389 . S
C350 H323 0.950 . S
C350 C336 1.377 . S
C350 C349 1.373 . S
C351 C335 1.377 . S
C351 C349 1.389 . S
C351 C352 1.524 . S
C352 C351 1.524 . S
C352 C353 1.397 . S
C352 C357 1.363 . S
C353 H324 0.950 . S
C353 C352 1.397 . S
C353 C354 1.334 . S
C354 H325 0.950 . S
C354 C353 1.334 . S
C354 C355 1.287 . S
C355 C354 1.287 . S
C355 C356 1.524 . S
C355 H358 0.999 . S
C356 H326 0.950 . S
C356 C355 1.524 . S
C356 C357 1.415 . S
C357 H327 0.950 . S
C357 C352 1.363 . S
C357 C356 1.415 . S
H358 C355 0.999 . S
H359 C340 0.913 . S
H360 C378 0.951 . S
H361 C380 0.951 . S
H362 C382 0.950 . S
H363 C383 0.950 . S
H364 C385 0.950 . S
H365 C388 0.950 . S
H366 C389 0.950 . S
H367 C391 0.950 . S
H368 C392 0.950 . S
H369 C393 0.951 . S
H370 C395 0.951 . S
H371 C397 0.950 . S
H372 C398 0.950 . S
H373 C400 0.950 . S
H374 C403 0.950 . S
H375 C404 0.950 . S
H376 C406 0.950 . S
H377 C407 0.950 . S
C378 H360 0.951 . S
C378 C379 1.366 . S
C378 C380 1.388 . S
C379 C378 1.366 . S
C379 C383 1.385 . S
C380 H361 0.951 . S
C380 C378 1.388 . S
C380 C381 1.366 . S
C381 C380 1.366 . S
C381 C382 1.414 . S
C381 C384 1.499 . S
C382 H362 0.950 . S
C382 C381 1.414 . S
C382 C383 1.374 . S
C383 H363 0.950 . S
C383 C379 1.385 . S
C383 C382 1.374 . S
C384 C381 1.499 . S
C384 C385 1.373 . S
C384 C386 1.389 . S
C385 H364 0.950 . S
C385 C384 1.373 . S
C385 C401 1.377 . S
C386 C384 1.389 . S
C386 C387 1.524 . S
C386 C400 1.377 . S
C387 C386 1.524 . S
C387 C388 1.397 . S
C387 C392 1.363 . S
C388 H365 0.950 . S
C388 C387 1.397 . S
C388 C389 1.334 . S
C389 H366 0.950 . S
C389 C388 1.334 . S
C389 C390 1.287 . S
C390 C389 1.287 . S
C390 C391 1.524 . S
C390 H409 0.913 . S
C391 H367 0.950 . S
C391 C390 1.524 . S
C391 C392 1.415 . S
C392 H368 0.950 . S
C392 C387 1.363 . S
C392 C391 1.415 . S
C393 H369 0.951 . S
C393 C394 1.366 . S
C393 C395 1.388 . S
C394 C393 1.366 . S
C394 C398 1.385 . S
C395 H370 0.951 . S
C395 C393 1.388 . S
C395 C396 1.366 . S
C396 C395 1.366 . S
C396 C397 1.414 . S
C396 C399 1.499 . S
C397 H371 0.950 . S
C397 C396 1.414 . S
C397 C398 1.374 . S
C398 H372 0.950 . S
C398 C394 1.385 . S
C398 C397 1.374 . S
C399 C396 1.499 . S
C399 C400 1.373 . S
C399 C401 1.389 . S
C400 H373 0.950 . S
C400 C386 1.377 . S
C400 C399 1.373 . S
C401 C385 1.377 . S
C401 C399 1.389 . S
C401 C402 1.524 . S
C402 C401 1.524 . S
C402 C403 1.397 . S
C402 C407 1.363 . S
C403 H374 0.950 . S
C403 C402 1.397 . S
C403 C404 1.334 . S
C404 H375 0.950 . S
C404 C403 1.334 . S
C404 C405 1.287 . S
C405 C404 1.287 . S
C405 C406 1.524 . S
C405 H408 0.999 . S
C406 H376 0.950 . S
C406 C405 1.524 . S
C406 C407 1.415 . S
C407 H377 0.950 . S
C407 C402 1.363 . S
C407 C406 1.415 . S
H408 C405 0.999 . S
H409 C390 0.913 . S
H410 C428 0.951 . S
H411 C430 0.951 . S
H412 C432 0.950 . S
H413 C433 0.950 . S
H414 C435 0.950 . S
H415 C438 0.950 . S
H416 C439 0.950 . S
H417 C441 0.950 . S
H418 C442 0.950 . S
H419 C443 0.951 . S
H420 C445 0.951 . S
H421 C447 0.950 . S
H422 C448 0.950 . S
H423 C450 0.950 . S
H424 C453 0.950 . S
H425 C454 0.950 . S
H426 C456 0.943 1_554 S
H427 C457 0.950 . S
C428 H410 0.951 . S
C428 C429 1.366 . S
C428 C430 1.388 . S
C429 C428 1.366 . S
C429 C433 1.385 . S
C430 H411 0.951 . S
C430 C428 1.388 . S
C430 C431 1.366 . S
C431 C430 1.366 . S
C431 C432 1.414 . S
C431 C434 1.499 . S
C432 H412 0.950 . S
C432 C431 1.414 . S
C432 C433 1.374 . S
C433 H413 0.950 . S
C433 C429 1.385 . S
C433 C432 1.374 . S
C434 C431 1.499 . S
C434 C435 1.373 . S
C434 C436 1.389 . S
C435 H414 0.950 . S
C435 C434 1.373 . S
C435 C451 1.377 . S
C436 C434 1.389 . S
C436 C437 1.524 . S
C436 C450 1.377 . S
C437 C436 1.524 . S
C437 C438 1.397 . S
C437 C442 1.363 . S
C438 H415 0.950 . S
C438 C437 1.397 . S
C438 C439 1.334 . S
C439 H416 0.950 . S
C439 C438 1.334 . S
C439 C440 1.287 . S
C440 C439 1.287 . S
C440 C441 1.524 . S
C440 H459 0.913 . S
C441 H417 0.950 . S
C441 C440 1.524 . S
C441 C442 1.415 . S
C442 H418 0.950 . S
C442 C437 1.363 . S
C442 C441 1.415 . S
C443 H419 0.951 . S
C443 C444 1.366 . S
C443 C445 1.388 . S
C444 C443 1.366 . S
C444 C448 1.385 . S
C445 H420 0.951 . S
C445 C443 1.388 . S
C445 C446 1.366 . S
C446 C445 1.366 . S
C446 C447 1.414 . S
C446 C449 1.499 . S
C447 H421 0.950 . S
C447 C446 1.414 . S
C447 C448 1.374 . S
C448 H422 0.950 . S
C448 C444 1.385 . S
C448 C447 1.374 . S
C449 C446 1.499 . S
C449 C450 1.373 . S
C449 C451 1.389 . S
C450 H423 0.950 . S
C450 C436 1.377 . S
C450 C449 1.373 . S
C451 C435 1.377 . S
C451 C449 1.389 . S
C451 C452 1.524 . S
C452 C451 1.524 . S
C452 C453 1.397 . S
C452 C457 1.363 . S
C453 H424 0.950 . S
C453 C452 1.397 . S
C453 C454 1.334 1_556 S
C454 H425 0.950 . S
C454 C453 1.334 1_554 S
C454 C455 1.287 . S
C455 C454 1.287 . S
C455 C456 1.524 1_554 S
C455 H458 0.999 . S
C456 H426 0.943 1_556 S
C456 C455 1.524 1_556 S
C456 C457 1.415 . S
C457 H427 0.950 . S
C457 C452 1.363 . S
C457 C456 1.415 . S
H458 C455 0.999 . S
H459 C440 0.913 . S
H460 C478 0.951 . S
H461 C480 0.951 . S
H462 C482 0.950 . S
H463 C483 0.950 . S
H464 C485 0.950 . S
H465 C488 0.950 . S
H466 C489 0.950 . S
H467 C491 0.950 . S
H468 C492 0.950 . S
H469 C493 0.951 . S
H470 C495 0.951 . S
H471 C497 0.950 . S
H472 C498 0.950 . S
H473 C500 0.950 . S
H474 C503 0.950 . S
H475 C504 0.950 . S
H476 C506 0.950 . S
H477 C507 0.950 . S
C478 H460 0.951 . S
C478 C479 1.366 . S
C478 C480 1.388 . S
C479 C478 1.366 . S
C479 C483 1.385 . S
C480 H461 0.951 . S
C480 C478 1.388 . S
C480 C481 1.366 . S
C481 C480 1.366 . S
C481 C482 1.414 . S
C481 C484 1.499 . S
C482 H462 0.950 . S
C482 C481 1.414 . S
C482 C483 1.374 . S
C483 H463 0.950 . S
C483 C479 1.385 . S
C483 C482 1.374 . S
C484 C481 1.499 . S
C484 C485 1.373 . S
C484 C486 1.389 . S
C485 H464 0.950 . S
C485 C484 1.373 . S
C485 C501 1.377 . S
C486 C484 1.389 . S
C486 C487 1.524 . S
C486 C500 1.377 . S
C487 C486 1.524 . S
C487 C488 1.397 . S
C487 C492 1.363 . S
C488 H465 0.950 . S
C488 C487 1.397 . S
C488 C489 1.334 . S
C489 H466 0.950 . S
C489 C488 1.334 . S
C489 C490 1.287 . S
C490 C489 1.287 . S
C490 C491 1.524 . S
C490 H509 0.913 . S
C491 H467 0.950 . S
C491 C490 1.524 . S
C491 C492 1.415 . S
C492 H468 0.950 . S
C492 C487 1.363 . S
C492 C491 1.415 . S
C493 H469 0.951 . S
C493 C494 1.366 . S
C493 C495 1.388 . S
C494 C493 1.366 . S
C494 C498 1.385 . S
C495 H470 0.951 . S
C495 C493 1.388 . S
C495 C496 1.366 . S
C496 C495 1.366 . S
C496 C497 1.414 . S
C496 C499 1.499 . S
C497 H471 0.950 . S
C497 C496 1.414 . S
C497 C498 1.374 . S
C498 H472 0.950 . S
C498 C494 1.385 . S
C498 C497 1.374 . S
C499 C496 1.499 . S
C499 C500 1.373 . S
C499 C501 1.389 . S
C500 H473 0.950 . S
C500 C486 1.377 . S
C500 C499 1.373 . S
C501 C485 1.377 . S
C501 C499 1.389 . S
C501 C502 1.524 . S
C502 C501 1.524 . S
C502 C503 1.397 . S
C502 C507 1.363 . S
C503 H474 0.950 . S
C503 C502 1.397 . S
C503 C504 1.334 . S
C504 H475 0.950 . S
C504 C503 1.334 . S
C504 C505 1.287 . S
C505 C504 1.287 . S
C505 C506 1.524 . S
C505 H508 0.999 . S
C506 H476 0.950 . S
C506 C505 1.524 . S
C506 C507 1.415 . S
C507 H477 0.950 . S
C507 C502 1.363 . S
C507 C506 1.415 . S
H508 C505 0.999 . S
H509 C490 0.913 . S
H510 C528 0.951 . S
H511 C530 0.951 . S
H512 C532 0.950 . S
H513 C533 0.950 . S
H514 C535 0.950 . S
H515 C538 0.950 . S
H516 C539 0.950 . S
H517 C541 0.950 . S
H518 C542 0.950 . S
H519 C543 0.951 . S
H520 C545 0.951 . S
H521 C547 0.950 . S
H522 C548 0.950 . S
H523 C550 0.950 . S
H524 C553 0.950 . S
H525 C554 0.950 . S
H526 C556 0.950 . S
H527 C557 0.950 . S
C528 H510 0.951 . S
C528 C529 1.366 . S
C528 C530 1.388 . S
C529 C528 1.366 . S
C529 C533 1.385 . S
C530 H511 0.951 . S
C530 C528 1.388 . S
C530 C531 1.366 . S
C531 C530 1.366 . S
C531 C532 1.414 . S
C531 C534 1.499 . S
C532 H512 0.950 . S
C532 C531 1.414 . S
C532 C533 1.374 . S
C533 H513 0.950 . S
C533 C529 1.385 . S
C533 C532 1.374 . S
C534 C531 1.499 . S
C534 C535 1.373 . S
C534 C536 1.389 . S
C535 H514 0.950 . S
C535 C534 1.373 . S
C535 C551 1.377 . S
C536 C534 1.389 . S
C536 C537 1.524 . S
C536 C550 1.377 . S
C537 C536 1.524 . S
C537 C538 1.397 . S
C537 C542 1.363 . S
C538 H515 0.950 . S
C538 C537 1.397 . S
C538 C539 1.334 . S
C539 H516 0.950 . S
C539 C538 1.334 . S
C539 C540 1.287 . S
C540 C539 1.287 . S
C540 C541 1.524 . S
C540 H559 0.913 . S
C541 H517 0.950 . S
C541 C540 1.524 . S
C541 C542 1.415 . S
C542 H518 0.950 . S
C542 C537 1.363 . S
C542 C541 1.415 . S
C543 H519 0.951 . S
C543 C544 1.366 . S
C543 C545 1.388 . S
C544 C543 1.366 . S
C544 C548 1.385 . S
C545 H520 0.951 . S
C545 C543 1.388 . S
C545 C546 1.366 . S
C546 C545 1.366 . S
C546 C547 1.414 . S
C546 C549 1.499 . S
C547 H521 0.950 . S
C547 C546 1.414 . S
C547 C548 1.374 . S
C548 H522 0.950 . S
C548 C544 1.385 . S
C548 C547 1.374 . S
C549 C546 1.499 . S
C549 C550 1.373 . S
C549 C551 1.389 . S
C550 H523 0.950 . S
C550 C536 1.377 . S
C550 C549 1.373 . S
C551 C535 1.377 . S
C551 C549 1.389 . S
C551 C552 1.524 . S
C552 C551 1.524 . S
C552 C553 1.397 . S
C552 C557 1.363 . S
C553 H524 0.950 . S
C553 C552 1.397 . S
C553 C554 1.334 . S
C554 H525 0.950 . S
C554 C553 1.334 . S
C554 C555 1.287 . S
C555 C554 1.287 . S
C555 C556 1.524 . S
C555 H558 0.999 . S
C556 H526 0.950 . S
C556 C555 1.524 . S
C556 C557 1.415 . S
C557 H527 0.950 . S
C557 C552 1.363 . S
C557 C556 1.415 . S
H558 C555 0.999 . S
H559 C540 0.913 . S
H560 C578 0.951 . S
H561 C580 0.951 . S
H562 C582 0.950 . S
H563 C583 0.950 . S
H564 C585 0.950 . S
H565 C588 0.950 . S
H566 C589 0.950 . S
H567 C591 0.950 . S
H568 C592 0.950 . S
H569 C593 0.951 . S
H570 C595 0.951 . S
H571 C597 0.950 . S
H572 C598 0.950 . S
H573 C600 0.950 . S
H574 C603 0.950 . S
H575 C604 0.950 . S
H576 C606 0.950 . S
H577 C607 0.950 . S
C578 H560 0.951 . S
C578 C579 1.366 . S
C578 C580 1.388 . S
C579 C578 1.366 . S
C579 C583 1.385 . S
C580 H561 0.951 . S
C580 C578 1.388 . S
C580 C581 1.366 . S
C581 C580 1.366 . S
C581 C582 1.414 . S
C581 C584 1.499 . S
C582 H562 0.950 . S
C582 C581 1.414 . S
C582 C583 1.374 . S
C583 H563 0.950 . S
C583 C579 1.385 . S
C583 C582 1.374 . S
C584 C581 1.499 . S
C584 C585 1.373 . S
C584 C586 1.389 . S
C585 H564 0.950 . S
C585 C584 1.373 . S
C585 C601 1.377 . S
C586 C584 1.389 . S
C586 C587 1.524 . S
C586 C600 1.377 . S
C587 C586 1.524 . S
C587 C588 1.397 . S
C587 C592 1.363 . S
C588 H565 0.950 . S
C588 C587 1.397 . S
C588 C589 1.334 . S
C589 H566 0.950 . S
C589 C588 1.334 . S
C589 C590 1.287 . S
C590 C589 1.287 . S
C590 C591 1.524 . S
C590 H609 0.913 . S
C591 H567 0.950 . S
C591 C590 1.524 . S
C591 C592 1.415 . S
C592 H568 0.950 . S
C592 C587 1.363 . S
C592 C591 1.415 . S
C593 H569 0.951 . S
C593 C594 1.366 . S
C593 C595 1.388 . S
C594 C593 1.366 . S
C594 C598 1.385 . S
C595 H570 0.951 . S
C595 C593 1.388 . S
C595 C596 1.366 . S
C596 C595 1.366 . S
C596 C597 1.414 . S
C596 C599 1.499 . S
C597 H571 0.950 . S
C597 C596 1.414 . S
C597 C598 1.374 . S
C598 H572 0.950 . S
C598 C594 1.385 . S
C598 C597 1.374 . S
C599 C596 1.499 . S
C599 C600 1.373 . S
C599 C601 1.389 . S
C600 H573 0.950 . S
C600 C586 1.377 . S
C600 C599 1.373 . S
C601 C585 1.377 . S
C601 C599 1.389 . S
C601 C602 1.524 . S
C602 C601 1.524 . S
C602 C603 1.397 . S
C602 C607 1.363 . S
C603 H574 0.950 . S
C603 C602 1.397 . S
C603 C604 1.334 . S
C604 H575 0.950 . S
C604 C603 1.334 . S
C604 C605 1.287 . S
C605 C604 1.287 . S
C605 C606 1.524 . S
C605 H608 0.999 . S
C606 H576 0.950 . S
C606 C605 1.524 . S
C606 C607 1.415 . S
C607 H577 0.950 . S
C607 C602 1.363 . S
C607 C606 1.415 . S
H608 C605 0.999 . S
H609 C590 0.913 . S
H610 C628 0.951 . S
H611 C630 0.951 . S
H612 C632 0.950 . S
H613 C633 0.950 . S
H614 C635 0.950 . S
H615 C638 0.950 . S
H616 C639 0.950 . S
H617 C641 0.950 . S
H618 C642 0.950 . S
H619 C643 0.951 . S
H620 C645 0.951 . S
H621 C647 0.950 . S
H622 C648 0.950 . S
H623 C650 0.950 . S
H624 C653 0.950 . S
H625 C654 0.950 . S
H626 C656 0.950 . S
H627 C657 0.950 . S
C628 H610 0.951 . S
C628 C629 1.366 . S
C628 C630 1.388 . S
C629 C628 1.366 . S
C629 C633 1.385 . S
C630 H611 0.951 . S
C630 C628 1.388 . S
C630 C631 1.366 . S
C631 C630 1.366 . S
C631 C632 1.414 . S
C631 C634 1.499 . S
C632 H612 0.950 . S
C632 C631 1.414 . S
C632 C633 1.374 . S
C633 H613 0.950 . S
C633 C629 1.385 . S
C633 C632 1.374 . S
C634 C631 1.499 . S
C634 C635 1.373 . S
C634 C636 1.389 . S
C635 H614 0.950 . S
C635 C634 1.373 . S
C635 C651 1.377 . S
C636 C634 1.389 . S
C636 C637 1.524 . S
C636 C650 1.377 . S
C637 C636 1.524 . S
C637 C638 1.397 . S
C637 C642 1.363 . S
C638 H615 0.950 . S
C638 C637 1.397 . S
C638 C639 1.334 . S
C639 H616 0.950 . S
C639 C638 1.334 . S
C639 C640 1.287 . S
C640 C639 1.287 . S
C640 C641 1.524 . S
C640 H659 0.913 . S
C641 H617 0.950 . S
C641 C640 1.524 . S
C641 C642 1.415 . S
C642 H618 0.950 . S
C642 C637 1.363 . S
C642 C641 1.415 . S
C643 H619 0.951 . S
C643 C644 1.366 . S
C643 C645 1.388 . S
C644 C643 1.366 . S
C644 C648 1.385 . S
C645 H620 0.951 . S
C645 C643 1.388 . S
C645 C646 1.366 . S
C646 C645 1.366 . S
C646 C647 1.414 . S
C646 C649 1.499 . S
C647 H621 0.950 . S
C647 C646 1.414 . S
C647 C648 1.374 . S
C648 H622 0.950 . S
C648 C644 1.385 . S
C648 C647 1.374 . S
C649 C646 1.499 . S
C649 C650 1.373 . S
C649 C651 1.389 . S
C650 H623 0.950 . S
C650 C636 1.377 . S
C650 C649 1.373 . S
C651 C635 1.377 . S
C651 C649 1.389 . S
C651 C652 1.524 . S
C652 C651 1.524 . S
C652 C653 1.397 . S
C652 C657 1.363 . S
C653 H624 0.950 . S
C653 C652 1.397 . S
C653 C654 1.334 . S
C654 H625 0.950 . S
C654 C653 1.334 . S
C654 C655 1.287 . S
C655 C654 1.287 . S
C655 C656 1.524 . S
C655 H658 0.999 . S
C656 H626 0.950 . S
C656 C655 1.524 . S
C656 C657 1.415 . S
C657 H627 0.950 . S
C657 C652 1.363 . S
C657 C656 1.415 . S
H658 C655 0.999 . S
H659 C640 0.913 . S
H660 C678 0.951 . S
H661 C680 0.951 . S
H662 C682 0.950 . S
H663 C683 0.950 . S
H664 C685 0.911 1_556 S
H665 C688 0.950 . S
H666 C689 0.950 . S
H667 C691 0.950 . S
H668 C692 0.950 . S
H669 C693 0.951 . S
H670 C695 0.951 . S
H671 C697 0.950 . S
H672 C698 0.950 . S
H673 C700 0.950 . S
H674 C703 0.950 . S
H675 C704 0.950 . S
H676 C706 0.950 . S
H677 C707 0.950 . S
C678 H660 0.951 . S
C678 C679 1.366 . S
C678 C680 1.388 . S
C679 C678 1.366 . S
C679 C683 1.385 . S
C680 H661 0.951 . S
C680 C678 1.388 . S
C680 C681 1.366 . S
C681 C680 1.366 . S
C681 C682 1.414 . S
C681 C684 1.499 . S
C682 H662 0.950 . S
C682 C681 1.414 . S
C682 C683 1.374 . S
C683 H663 0.950 . S
C683 C679 1.385 . S
C683 C682 1.374 . S
C684 C681 1.499 . S
C684 C685 1.373 . S
C684 C686 1.389 . S
C685 H664 0.911 1_554 S
C685 C684 1.373 . S
C685 C701 1.377 . S
C686 C684 1.389 . S
C686 C687 1.524 . S
C686 C700 1.377 . S
C687 C686 1.524 . S
C687 C688 1.397 . S
C687 C692 1.363 . S
C688 H665 0.950 . S
C688 C687 1.397 . S
C688 C689 1.334 . S
C689 H666 0.950 . S
C689 C688 1.334 . S
C689 C690 1.287 . S
C690 C689 1.287 . S
C690 C691 1.524 . S
C690 H709 0.913 . S
C691 H667 0.950 . S
C691 C690 1.524 . S
C691 C692 1.415 . S
C692 H668 0.950 . S
C692 C687 1.363 . S
C692 C691 1.415 . S
C693 H669 0.951 . S
C693 C694 1.366 . S
C693 C695 1.388 . S
C694 C693 1.366 . S
C694 C698 1.385 . S
C695 H670 0.951 . S
C695 C693 1.388 . S
C695 C696 1.366 . S
C696 C695 1.366 . S
C696 C697 1.414 . S
C696 C699 1.499 . S
C697 H671 0.950 . S
C697 C696 1.414 . S
C697 C698 1.374 . S
C698 H672 0.950 . S
C698 C694 1.385 . S
C698 C697 1.374 . S
C699 C696 1.499 . S
C699 C700 1.373 . S
C699 C701 1.389 . S
C700 H673 0.950 . S
C700 C686 1.377 . S
C700 C699 1.373 . S
C701 C685 1.377 . S
C701 C699 1.389 . S
C701 C702 1.524 1_554 S
C702 C701 1.524 1_556 S
C702 C703 1.397 . S
C702 C707 1.363 . S
C703 H674 0.950 . S
C703 C702 1.397 . S
C703 C704 1.334 . S
C704 H675 0.950 . S
C704 C703 1.334 . S
C704 C705 1.287 . S
C705 C704 1.287 . S
C705 C706 1.524 . S
C705 H708 0.999 . S
C706 H676 0.950 . S
C706 C705 1.524 . S
C706 C707 1.415 . S
C707 H677 0.950 . S
C707 C702 1.363 . S
C707 C706 1.415 . S
H708 C705 0.999 . S
H709 C690 0.913 . S
H710 C728 0.951 . S
H711 C730 0.951 . S
H712 C732 0.950 . S
H713 C733 0.950 . S
H714 C735 0.950 . S
H715 C738 0.950 . S
H716 C739 0.950 . S
H717 C741 0.950 . S
H718 C742 0.950 . S
H719 C743 0.951 . S
H720 C745 0.951 . S
H721 C747 0.950 . S
H722 C748 0.950 . S
H723 C750 0.950 . S
H724 C753 0.950 . S
H725 C754 0.950 . S
H726 C756 0.950 . S
H727 C757 0.950 . S
C728 H710 0.951 . S
C728 C729 1.366 . S
C728 C730 1.388 . S
C729 C728 1.366 . S
C729 C733 1.385 . S
C730 H711 0.951 . S
C730 C728 1.388 . S
C730 C731 1.366 . S
C731 C730 1.366 . S
C731 C732 1.414 . S
C731 C734 1.499 . S
C732 H712 0.950 . S
C732 C731 1.414 . S
C732 C733 1.374 . S
C733 H713 0.950 . S
C733 C729 1.385 . S
C733 C732 1.374 . S
C734 C731 1.499 . S
C734 C735 1.373 . S
C734 C736 1.389 . S
C735 H714 0.950 . S
C735 C734 1.373 . S
C735 C751 1.377 . S
C736 C734 1.389 . S
C736 C737 1.524 . S
C736 C750 1.377 . S
C737 C736 1.524 . S
C737 C738 1.397 . S
C737 C742 1.363 . S
C738 H715 0.950 . S
C738 C737 1.397 . S
C738 C739 1.334 . S
C739 H716 0.950 . S
C739 C738 1.334 . S
C739 C740 1.287 . S
C740 C739 1.287 . S
C740 C741 1.524 . S
C740 H759 0.913 . S
C741 H717 0.950 . S
C741 C740 1.524 . S
C741 C742 1.415 . S
C742 H718 0.950 . S
C742 C737 1.363 . S
C742 C741 1.415 . S
C743 H719 0.951 . S
C743 C744 1.366 . S
C743 C745 1.388 . S
C744 C743 1.366 . S
C744 C748 1.385 . S
C745 H720 0.951 . S
C745 C743 1.388 . S
C745 C746 1.366 . S
C746 C745 1.366 . S
C746 C747 1.414 . S
C746 C749 1.499 . S
C747 H721 0.950 . S
C747 C746 1.414 . S
C747 C748 1.374 . S
C748 H722 0.950 . S
C748 C744 1.385 . S
C748 C747 1.374 . S
C749 C746 1.499 . S
C749 C750 1.373 . S
C749 C751 1.389 . S
C750 H723 0.950 . S
C750 C736 1.377 . S
C750 C749 1.373 . S
C751 C735 1.377 . S
C751 C749 1.389 . S
C751 C752 1.524 . S
C752 C751 1.524 . S
C752 C753 1.397 . S
C752 C757 1.363 . S
C753 H724 0.950 . S
C753 C752 1.397 . S
C753 C754 1.334 . S
C754 H725 0.950 . S
C754 C753 1.334 . S
C754 C755 1.287 . S
C755 C754 1.287 . S
C755 C756 1.524 . S
C755 H758 0.999 . S
C756 H726 0.950 . S
C756 C755 1.524 . S
C756 C757 1.415 . S
C757 H727 0.950 . S
C757 C752 1.363 . S
C757 C756 1.415 . S
H758 C755 0.999 . S
H759 C740 0.913 . S
H760 C778 0.951 . S
H761 C780 0.951 . S
H762 C782 0.950 . S
H763 C783 0.950 . S
H764 C785 0.950 . S
H765 C788 0.950 . S
H766 C789 0.950 . S
H767 C791 0.950 . S
H768 C792 0.950 . S
H769 C793 0.951 . S
H770 C795 0.951 . S
H771 C797 0.950 . S
H772 C798 0.950 . S
H773 C800 0.950 . S
H774 C803 0.950 . S
H775 C804 0.950 . S
H776 C806 0.950 . S
H777 C807 0.950 . S
C778 H760 0.951 . S
C778 C779 1.366 . S
C778 C780 1.388 . S
C779 C778 1.366 . S
C779 C783 1.385 . S
C780 H761 0.951 . S
C780 C778 1.388 . S
C780 C781 1.366 . S
C781 C780 1.366 . S
C781 C782 1.414 . S
C781 C784 1.499 . S
C782 H762 0.950 . S
C782 C781 1.414 . S
C782 C783 1.374 . S
C783 H763 0.950 . S
C783 C779 1.385 . S
C783 C782 1.374 . S
C784 C781 1.499 . S
C784 C785 1.373 . S
C784 C786 1.389 . S
C785 H764 0.950 . S
C785 C784 1.373 . S
C785 C801 1.377 . S
C786 C784 1.389 . S
C786 C787 1.524 . S
C786 C800 1.377 . S
C787 C786 1.524 . S
C787 C788 1.397 . S
C787 C792 1.363 . S
C788 H765 0.950 . S
C788 C787 1.397 . S
C788 C789 1.334 . S
C789 H766 0.950 . S
C789 C788 1.334 . S
C789 C790 1.287 . S
C790 C789 1.287 . S
C790 C791 1.524 . S
C790 H809 0.913 . S
C791 H767 0.950 . S
C791 C790 1.524 . S
C791 C792 1.415 . S
C792 H768 0.950 . S
C792 C787 1.363 . S
C792 C791 1.415 . S
C793 H769 0.951 . S
C793 C794 1.366 . S
C793 C795 1.388 . S
C794 C793 1.366 . S
C794 C798 1.385 . S
C795 H770 0.951 . S
C795 C793 1.388 . S
C795 C796 1.366 . S
C796 C795 1.366 . S
C796 C797 1.414 . S
C796 C799 1.499 . S
C797 H771 0.950 . S
C797 C796 1.414 . S
C797 C798 1.374 . S
C798 H772 0.950 . S
C798 C794 1.385 . S
C798 C797 1.374 . S
C799 C796 1.499 . S
C799 C800 1.373 . S
C799 C801 1.389 . S
C800 H773 0.950 . S
C800 C786 1.377 . S
C800 C799 1.373 . S
C801 C785 1.377 . S
C801 C799 1.389 . S
C801 C802 1.524 . S
C802 C801 1.524 . S
C802 C803 1.397 . S
C802 C807 1.363 . S
C803 H774 0.950 . S
C803 C802 1.397 . S
C803 C804 1.334 . S
C804 H775 0.950 . S
C804 C803 1.334 . S
C804 C805 1.287 . S
C805 C804 1.287 . S
C805 C806 1.524 . S
C805 H808 0.999 . S
C806 H776 0.950 . S
C806 C805 1.524 . S
C806 C807 1.415 . S
C807 H777 0.950 . S
C807 C802 1.363 . S
C807 C806 1.415 . S
H808 C805 0.999 . S
H809 C790 0.913 . S
H810 C828 0.951 . S
H811 C830 0.951 . S
H812 C832 0.950 . S
H813 C833 0.950 . S
H814 C835 0.950 . S
H815 C838 0.950 . S
H816 C839 0.950 . S
H817 C841 0.950 . S
H818 C842 0.950 . S
H819 C843 0.951 . S
H820 C845 0.951 . S
H821 C847 0.950 . S
H822 C848 0.950 . S
H823 C850 0.950 . S
H824 C853 0.950 . S
H825 C854 0.950 . S
H826 C856 0.950 . S
H827 C857 0.950 . S
C828 H810 0.951 . S
C828 C829 1.366 . S
C828 C830 1.388 . S
C829 C828 1.366 . S
C829 C833 1.385 . S
C830 H811 0.951 . S
C830 C828 1.388 . S
C830 C831 1.366 . S
C831 C830 1.366 . S
C831 C832 1.414 . S
C831 C834 1.499 . S
C832 H812 0.950 . S
C832 C831 1.414 . S
C832 C833 1.374 . S
C833 H813 0.950 . S
C833 C829 1.385 . S
C833 C832 1.374 . S
C834 C831 1.499 . S
C834 C835 1.373 . S
C834 C836 1.389 . S
C835 H814 0.950 . S
C835 C834 1.373 . S
C835 C851 1.377 . S
C836 C834 1.389 . S
C836 C837 1.524 . S
C836 C850 1.377 . S
C837 C836 1.524 . S
C837 C838 1.397 . S
C837 C842 1.363 . S
C838 H815 0.950 . S
C838 C837 1.397 . S
C838 C839 1.334 . S
C839 H816 0.950 . S
C839 C838 1.334 . S
C839 C840 1.287 . S
C840 C839 1.287 . S
C840 C841 1.524 . S
C840 H859 0.913 . S
C841 H817 0.950 . S
C841 C840 1.524 . S
C841 C842 1.415 . S
C842 H818 0.950 . S
C842 C837 1.363 . S
C842 C841 1.415 . S
C843 H819 0.951 . S
C843 C844 1.366 . S
C843 C845 1.388 . S
C844 C843 1.366 . S
C844 C848 1.385 . S
C845 H820 0.951 . S
C845 C843 1.388 . S
C845 C846 1.366 . S
C846 C845 1.366 . S
C846 C847 1.414 . S
C846 C849 1.499 . S
C847 H821 0.950 . S
C847 C846 1.414 . S
C847 C848 1.374 . S
C848 H822 0.950 . S
C848 C844 1.385 . S
C848 C847 1.374 . S
C849 C846 1.499 . S
C849 C850 1.373 . S
C849 C851 1.389 . S
C850 H823 0.950 . S
C850 C836 1.377 . S
C850 C849 1.373 . S
C851 C835 1.377 . S
C851 C849 1.389 . S
C851 C852 1.524 . S
C852 C851 1.524 . S
C852 C853 1.397 . S
C852 C857 1.363 . S
C853 H824 0.950 . S
C853 C852 1.397 . S
C853 C854 1.334 . S
C854 H825 0.950 . S
C854 C853 1.334 . S
C854 C855 1.287 . S
C855 C854 1.287 . S
C855 C856 1.524 . S
C855 H858 0.999 . S
C856 H826 0.950 . S
C856 C855 1.524 . S
C856 C857 1.415 . S
C857 H827 0.950 . S
C857 C852 1.363 . S
C857 C856 1.415 . S
H858 C855 0.999 . S
H859 C840 0.913 . S
H860 C878 0.951 . S
H861 C880 0.951 . S
H862 C882 0.950 . S
H863 C883 0.950 . S
H864 C885 0.950 . S
H865 C888 0.950 . S
H866 C889 0.950 . S
H867 C891 0.950 . S
H868 C892 0.950 . S
H869 C893 0.951 . S
H870 C895 0.951 . S
H871 C897 0.950 . S
H872 C898 0.950 . S
H873 C900 0.950 . S
H874 C903 0.950 . S
H875 C904 0.950 . S
H876 C906 0.950 . S
H877 C907 0.950 . S
C878 H860 0.951 . S
C878 C879 1.366 . S
C878 C880 1.388 . S
C879 C878 1.366 . S
C879 C883 1.385 . S
C880 H861 0.951 . S
C880 C878 1.388 . S
C880 C881 1.366 . S
C881 C880 1.366 . S
C881 C882 1.414 . S
C881 C884 1.499 . S
C882 H862 0.950 . S
C882 C881 1.414 . S
C882 C883 1.374 . S
C883 H863 0.950 . S
C883 C879 1.385 . S
C883 C882 1.374 . S
C884 C881 1.499 . S
C884 C885 1.373 . S
C884 C886 1.389 . S
C885 H864 0.950 . S
C885 C884 1.373 . S
C885 C901 1.377 . S
C886 C884 1.389 . S
C886 C887 1.524 . S
C886 C900 1.377 . S
C887 C886 1.524 . S
C887 C888 1.397 . S
C887 C892 1.363 . S
C888 H865 0.950 . S
C888 C887 1.397 . S
C888 C889 1.334 . S
C889 H866 0.950 . S
C889 C888 1.334 . S
C889 C890 1.287 . S
C890 C889 1.287 . S
C890 C891 1.524 . S
C890 H909 0.913 . S
C891 H867 0.950 . S
C891 C890 1.524 . S
C891 C892 1.415 . S
C892 H868 0.950 . S
C892 C887 1.363 . S
C892 C891 1.415 . S
C893 H869 0.951 . S
C893 C894 1.366 . S
C893 C895 1.388 . S
C894 C893 1.366 . S
C894 C898 1.385 . S
C895 H870 0.951 . S
C895 C893 1.388 . S
C895 C896 1.366 . S
C896 C895 1.366 . S
C896 C897 1.414 . S
C896 C899 1.499 . S
C897 H871 0.950 . S
C897 C896 1.414 . S
C897 C898 1.374 . S
C898 H872 0.950 . S
C898 C894 1.385 . S
C898 C897 1.374 . S
C899 C896 1.499 . S
C899 C900 1.373 . S
C899 C901 1.389 . S
C900 H873 0.950 . S
C900 C886 1.377 . S
C900 C899 1.373 . S
C901 C885 1.377 . S
C901 C899 1.389 . S
C901 C902 1.524 . S
C902 C901 1.524 . S
C902 C903 1.397 . S
C902 C907 1.363 . S
C903 H874 0.950 . S
C903 C902 1.397 . S
C903 C904 1.334 . S
C904 H875 0.950 . S
C904 C903 1.334 . S
C904 C905 1.287 . S
C905 C904 1.287 . S
C905 C906 1.524 . S
C905 H908 0.999 . S
C906 H876 0.950 . S
C906 C905 1.524 . S
C906 C907 1.415 . S
C907 H877 0.950 . S
C907 C902 1.363 . S
C907 C906 1.415 . S
H908 C905 0.999 . S
H909 C890 0.913 . S
H910 C928 0.951 . S
H911 C930 0.951 . S
H912 C932 0.950 . S
H913 C933 0.950 . S
H914 C935 0.950 . S
H915 C938 0.950 . S
H916 C939 0.950 . S
H917 C941 0.950 . S
H918 C942 0.950 . S
H919 C943 0.951 . S
H920 C945 0.951 . S
H921 C947 0.950 . S
H922 C948 0.950 . S
H923 C950 0.950 . S
H924 C953 0.950 . S
H925 C954 0.950 . S
H926 C956 0.950 . S
H927 C957 0.950 . S
C928 H910 0.951 . S
C928 C929 1.366 . S
C928 C930 1.388 . S
C929 C928 1.366 . S
C929 C933 1.385 . S
C930 H911 0.951 . S
C930 C928 1.388 . S
C930 C931 1.366 . S
C931 C930 1.366 . S
C931 C932 1.414 . S
C931 C934 1.499 . S
C932 H912 0.950 . S
C932 C931 1.414 . S
C932 C933 1.374 . S
C933 H913 0.950 . S
C933 C929 1.385 . S
C933 C932 1.374 . S
C934 C931 1.499 . S
C934 C935 1.373 . S
C934 C936 1.389 . S
C935 H914 0.950 . S
C935 C934 1.373 . S
C935 C951 1.377 . S
C936 C934 1.389 . S
C936 C937 1.524 . S
C936 C950 1.377 . S
C937 C936 1.524 . S
C937 C938 1.397 . S
C937 C942 1.363 . S
C938 H915 0.950 . S
C938 C937 1.397 . S
C938 C939 1.334 . S
C939 H916 0.950 . S
C939 C938 1.334 . S
C939 C940 1.287 . S
C940 C939 1.287 . S
C940 C941 1.524 . S
C940 H959 0.913 . S
C941 H917 0.950 . S
C941 C940 1.524 . S
C941 C942 1.415 . S
C942 H918 0.950 . S
C942 C937 1.363 . S
C942 C941 1.415 . S
C943 H919 0.951 . S
C943 C944 1.366 . S
C943 C945 1.388 . S
C944 C943 1.366 . S
C944 C948 1.385 . S
C945 H920 0.951 . S
C945 C943 1.388 . S
C945 C946 1.366 . S
C946 C945 1.366 . S
C946 C947 1.414 . S
C946 C949 1.499 . S
C947 H921 0.950 . S
C947 C946 1.414 . S
C947 C948 1.374 . S
C948 H922 0.950 . S
C948 C944 1.385 . S
C948 C947 1.374 . S
C949 C946 1.499 . S
C949 C950 1.373 . S
C949 C951 1.389 . S
C950 H923 0.950 . S
C950 C936 1.377 . S
C950 C949 1.373 . S
C951 C935 1.377 . S
C951 C949 1.389 . S
C951 C952 1.524 . S
C952 C951 1.524 . S
C952 C953 1.397 . S
C952 C957 1.363 . S
C953 H924 0.950 . S
C953 C952 1.397 . S
C953 C954 1.334 . S
C954 H925 0.950 . S
C954 C953 1.334 . S
C954 C955 1.287 . S
C955 C954 1.287 . S
C955 C956 1.524 . S
C955 H958 0.999 . S
C956 H926 0.950 . S
C956 C955 1.524 . S
C956 C957 1.415 . S
C957 H927 0.950 . S
C957 C952 1.363 . S
C957 C956 1.415 . S
H958 C955 0.999 . S
H959 C940 0.913 . S
H960 C978 0.951 . S
H961 C980 0.951 . S
H962 C982 0.950 . S
H963 C983 0.950 . S
H964 C985 0.950 . S
H965 C988 0.950 . S
H966 C989 0.950 . S
H967 C991 0.950 . S
H968 C992 0.950 . S
H969 C993 0.951 . S
H970 C995 0.951 . S
H971 C997 0.950 . S
H972 C998 0.946 1_556 S
H973 C1000 0.950 . S
H974 C1003 0.950 . S
H975 C1004 0.950 . S
H976 C1006 0.950 . S
H977 C1007 0.950 . S
C978 H960 0.951 . S
C978 C979 1.366 . S
C978 C980 1.388 . S
C979 C978 1.366 . S
C979 C983 1.385 . S
C980 H961 0.951 . S
C980 C978 1.388 . S
C980 C981 1.366 . S
C981 C980 1.366 . S
C981 C982 1.414 . S
C981 C984 1.499 . S
C982 H962 0.950 . S
C982 C981 1.414 . S
C982 C983 1.374 . S
C983 H963 0.950 . S
C983 C979 1.385 . S
C983 C982 1.374 . S
C984 C981 1.499 . S
C984 C985 1.373 . S
C984 C986 1.389 . S
C985 H964 0.950 . S
C985 C984 1.373 . S
C985 C1001 1.377 . S
C986 C984 1.389 . S
C986 C987 1.524 . S
C986 C1000 1.377 . S
C987 C986 1.524 . S
C987 C988 1.397 . S
C987 C992 1.363 . S
C988 H965 0.950 . S
C988 C987 1.397 . S
C988 C989 1.334 . S
C989 H966 0.950 . S
C989 C988 1.334 . S
C989 C990 1.287 . S
C990 C989 1.287 . S
C990 C991 1.524 . S
C990 H1009 0.913 . S
C991 H967 0.950 . S
C991 C990 1.524 . S
C991 C992 1.415 . S
C992 H968 0.950 . S
C992 C987 1.363 . S
C992 C991 1.415 . S
C993 H969 0.951 . S
C993 C994 1.366 . S
C993 C995 1.388 . S
C994 C993 1.366 . S
C994 C998 1.385 . S
C995 H970 0.951 . S
C995 C993 1.388 . S
C995 C996 1.366 1_554 S
C996 C995 1.366 1_556 S
C996 C997 1.414 . S
C996 C999 1.499 . S
C997 H971 0.950 . S
C997 C996 1.414 . S
C997 C998 1.374 1_556 S
C998 H972 0.946 1_554 S
C998 C994 1.385 . S
C998 C997 1.374 1_554 S
C999 C996 1.499 . S
C999 C1000 1.373 . S
C999 C1001 1.389 . S
C1000 H973 0.950 . S
C1000 C986 1.377 . S
C1000 C999 1.373 . S
C1001 C985 1.377 . S
C1001 C999 1.389 . S
C1001 C1002 1.524 . S
C1002 C1001 1.524 . S
C1002 C1003 1.397 . S
C1002 C1007 1.363 . S
C1003 H974 0.950 . S
C1003 C1002 1.397 . S
C1003 C1004 1.334 . S
C1004 H975 0.950 . S
C1004 C1003 1.334 . S
C1004 C1005 1.287 . S
C1005 C1004 1.287 . S
C1005 C1006 1.524 . S
C1005 H1008 0.999 . S
C1006 H976 0.950 . S
C1006 C1005 1.524 . S
C1006 C1007 1.415 . S
C1007 H977 0.950 . S
C1007 C1002 1.363 . S
C1007 C1006 1.415 . S
H1008 C1005 0.999 . S
H1009 C990 0.913 . S
H1010 C1028 0.951 . S
H1011 C1030 0.951 . S
H1012 C1032 0.950 . S
H1013 C1033 0.950 . S
H1014 C1035 0.950 . S
H1015 C1038 0.950 . S
H1016 C1039 0.950 . S
H1017 C1041 0.950 . S
H1018 C1042 0.950 . S
H1019 C1043 0.951 . S
H1020 C1045 0.951 . S
H1021 C1047 0.950 . S
H1022 C1048 0.950 . S
H1023 C1050 0.950 . S
H1024 C1053 0.950 . S
H1025 C1054 0.950 . S
H1026 C1056 0.950 . S
H1027 C1057 0.950 . S
C1028 H1010 0.951 . S
C1028 C1029 1.366 . S
C1028 C1030 1.388 . S
C1029 C1028 1.366 . S
C1029 C1033 1.385 . S
C1030 H1011 0.951 . S
C1030 C1028 1.388 . S
C1030 C1031 1.366 . S
C1031 C1030 1.366 . S
C1031 C1032 1.414 . S
C1031 C1034 1.499 . S
C1032 H1012 0.950 . S
C1032 C1031 1.414 . S
C1032 C1033 1.374 . S
C1033 H1013 0.950 . S
C1033 C1029 1.385 . S
C1033 C1032 1.374 . S
C1034 C1031 1.499 . S
C1034 C1035 1.373 . S
C1034 C1036 1.389 . S
C1035 H1014 0.950 . S
C1035 C1034 1.373 . S
C1035 C1051 1.377 . S
C1036 C1034 1.389 . S
C1036 C1037 1.524 . S
C1036 C1050 1.377 . S
C1037 C1036 1.524 . S
C1037 C1038 1.397 . S
C1037 C1042 1.363 . S
C1038 H1015 0.950 . S
C1038 C1037 1.397 . S
C1038 C1039 1.334 . S
C1039 H1016 0.950 . S
C1039 C1038 1.334 . S
C1039 C1040 1.287 . S
C1040 C1039 1.287 . S
C1040 C1041 1.524 . S
C1040 H1059 0.913 . S
C1041 H1017 0.950 . S
C1041 C1040 1.524 . S
C1041 C1042 1.415 . S
C1042 H1018 0.950 . S
C1042 C1037 1.363 . S
C1042 C1041 1.415 . S
C1043 H1019 0.951 . S
C1043 C1044 1.366 . S
C1043 C1045 1.388 . S
C1044 C1043 1.366 . S
C1044 C1048 1.385 . S
C1045 H1020 0.951 . S
C1045 C1043 1.388 . S
C1045 C1046 1.366 . S
C1046 C1045 1.366 . S
C1046 C1047 1.414 . S
C1046 C1049 1.499 . S
C1047 H1021 0.950 . S
C1047 C1046 1.414 . S
C1047 C1048 1.374 . S
C1048 H1022 0.950 . S
C1048 C1044 1.385 . S
C1048 C1047 1.374 . S
C1049 C1046 1.499 . S
C1049 C1050 1.373 . S
C1049 C1051 1.389 . S
C1050 H1023 0.950 . S
C1050 C1036 1.377 . S
C1050 C1049 1.373 . S
C1051 C1035 1.377 . S
C1051 C1049 1.389 . S
C1051 C1052 1.524 . S
C1052 C1051 1.524 . S
C1052 C1053 1.397 . S
C1052 C1057 1.363 . S
C1053 H1024 0.950 . S
C1053 C1052 1.397 . S
C1053 C1054 1.334 . S
C1054 H1025 0.950 . S
C1054 C1053 1.334 . S
C1054 C1055 1.287 . S
C1055 C1054 1.287 . S
C1055 C1056 1.524 . S
C1055 H1058 0.999 . S
C1056 H1026 0.950 . S
C1056 C1055 1.524 . S
C1056 C1057 1.415 . S
C1057 H1027 0.950 . S
C1057 C1052 1.363 . S
C1057 C1056 1.415 . S
H1058 C1055 0.999 . S
H1059 C1040 0.913 . S
H1060 C1078 0.951 . S
H1061 C1080 0.951 . S
H1062 C1082 0.950 . S
H1063 C1083 0.950 . S
H1064 C1085 0.950 . S
H1065 C1088 0.950 . S
H1066 C1089 0.950 . S
H1067 C1091 0.950 . S
H1068 C1092 0.950 . S
H1069 C1093 0.951 . S
H1070 C1095 0.951 . S
H1071 C1097 0.950 . S
H1072 C1098 0.950 . S
H1073 C1100 0.950 . S
H1074 C1103 0.950 . S
H1075 C1104 0.950 . S
H1076 C1106 0.950 . S
H1077 C1107 0.950 . S
C1078 H1060 0.951 . S
C1078 C1079 1.366 . S
C1078 C1080 1.388 . S
C1079 C1078 1.366 . S
C1079 C1083 1.385 . S
C1080 H1061 0.951 . S
C1080 C1078 1.388 . S
C1080 C1081 1.366 . S
C1081 C1080 1.366 . S
C1081 C1082 1.414 . S
C1081 C1084 1.499 . S
C1082 H1062 0.950 . S
C1082 C1081 1.414 . S
C1082 C1083 1.374 . S
C1083 H1063 0.950 . S
C1083 C1079 1.385 . S
C1083 C1082 1.374 . S
C1084 C1081 1.499 . S
C1084 C1085 1.373 . S
C1084 C1086 1.389 . S
C1085 H1064 0.950 . S
C1085 C1084 1.373 . S
C1085 C1101 1.377 . S
C1086 C1084 1.389 . S
C1086 C1087 1.524 . S
C1086 C1100 1.377 . S
C1087 C1086 1.524 . S
C1087 C1088 1.397 . S
C1087 C1092 1.363 . S
C1088 H1065 0.950 . S
C1088 C1087 1.397 . S
C1088 C1089 1.334 . S
C1089 H1066 0.950 . S
C1089 C1088 1.334 . S
C1089 C1090 1.287 . S
C1090 C1089 1.287 . S
C1090 C1091 1.524 . S
C1090 H1109 0.913 . S
C1091 H1067 0.950 . S
C1091 C1090 1.524 . S
C1091 C1092 1.415 . S
C1092 H1068 0.950 . S
C1092 C1087 1.363 . S
C1092 C1091 1.415 . S
C1093 H1069 0.951 . S
C1093 C1094 1.366 . S
C1093 C1095 1.388 . S
C1094 C1093 1.366 . S
C1094 C1098 1.385 . S
C1095 H1070 0.951 . S
C1095 C1093 1.388 . S
C1095 C1096 1.366 . S
C1096 C1095 1.366 . S
C1096 C1097 1.414 . S
C1096 C1099 1.499 . S
C1097 H1071 0.950 . S
C1097 C1096 1.414 . S
C1097 C1098 1.374 . S
C1098 H1072 0.950 . S
C1098 C1094 1.385 . S
C1098 C1097 1.374 . S
C1099 C1096 1.499 . S
C1099 C1100 1.373 . S
C1099 C1101 1.389 . S
C1100 H1073 0.950 . S
C1100 C1086 1.377 . S
C1100 C1099 1.373 . S
C1101 C1085 1.377 . S
C1101 C1099 1.389 . S
C1101 C1102 1.524 . S
C1102 C1101 1.524 . S
C1102 C1103 1.397 . S
C1102 C1107 1.363 . S
C1103 H1074 0.950 . S
C1103 C1102 1.397 . S
C1103 C1104 1.334 . S
C1104 H1075 0.950 . S
C1104 C1103 1.334 . S
C1104 C1105 1.287 . S
C1105 C1104 1.287 . S
C1105 C1106 1.524 . S
C1105 H1108 0.999 . S
C1106 H1076 0.950 . S
C1106 C1105 1.524 . S
C1106 C1107 1.415 . S
C1107 H1077 0.950 . S
C1107 C1102 1.363 . S
C1107 C1106 1.415 . S
H1108 C1105 0.999 . S
H1109 C1090 0.913 . S
H1110 C1128 0.951 . S
H1111 C1130 0.951 . S
H1112 C1132 0.950 . S
H1113 C1133 0.950 . S
H1114 C1135 0.950 . S
H1115 C1138 0.950 . S
H1116 C1139 0.950 . S
H1117 C1141 0.950 . S
H1118 C1142 0.950 . S
H1119 C1143 0.951 . S
H1120 C1145 0.951 . S
H1121 C1147 0.950 . S
H1122 C1148 0.950 . S
H1123 C1150 0.950 . S
H1124 C1153 0.950 . S
H1125 C1154 0.950 . S
H1126 C1156 0.950 . S
H1127 C1157 0.950 . S
C1128 H1110 0.951 . S
C1128 C1129 1.366 . S
C1128 C1130 1.388 . S
C1129 C1128 1.366 . S
C1129 C1133 1.385 . S
C1130 H1111 0.951 . S
C1130 C1128 1.388 . S
C1130 C1131 1.366 . S
C1131 C1130 1.366 . S
C1131 C1132 1.414 . S
C1131 C1134 1.499 . S
C1132 H1112 0.950 . S
C1132 C1131 1.414 . S
C1132 C1133 1.374 . S
C1133 H1113 0.950 . S
C1133 C1129 1.385 . S
C1133 C1132 1.374 . S
C1134 C1131 1.499 . S
C1134 C1135 1.373 . S
C1134 C1136 1.389 . S
C1135 H1114 0.950 . S
C1135 C1134 1.373 . S
C1135 C1151 1.377 . S
C1136 C1134 1.389 . S
C1136 C1137 1.524 . S
C1136 C1150 1.377 . S
C1137 C1136 1.524 . S
C1137 C1138 1.397 . S
C1137 C1142 1.363 . S
C1138 H1115 0.950 . S
C1138 C1137 1.397 . S
C1138 C1139 1.334 . S
C1139 H1116 0.950 . S
C1139 C1138 1.334 . S
C1139 C1140 1.287 . S
C1140 C1139 1.287 . S
C1140 C1141 1.524 . S
C1140 H1159 0.913 . S
C1141 H1117 0.950 . S
C1141 C1140 1.524 . S
C1141 C1142 1.415 . S
C1142 H1118 0.950 . S
C1142 C1137 1.363 . S
C1142 C1141 1.415 . S
C1143 H1119 0.951 . S
C1143 C1144 1.366 . S
C1143 C1145 1.388 . S
C1144 C1143 1.366 . S
C1144 C1148 1.385 . S
C1145 H1120 0.951 . S
C1145 C1143 1.388 . S
C1145 C1146 1.366 . S
C1146 C1145 1.366 . S
C1146 C1147 1.414 . S
C1146 C1149 1.499 . S
C1147 H1121 0.950 . S
C1147 C1146 1.414 . S
C1147 C1148 1.374 . S
C1148 H1122 0.950 . S
C1148 C1144 1.385 . S
C1148 C1147 1.374 . S
C1149 C1146 1.499 . S
C1149 C1150 1.373 . S
C1149 C1151 1.389 . S
C1150 H1123 0.950 . S
C1150 C1136 1.377 . S
C1150 C1149 1.373 . S
C1151 C1135 1.377 . S
C1151 C1149 1.389 . S
C1151 C1152 1.524 . S
C1152 C1151 1.524 . S
C1152 C1153 1.397 . S
C1152 C1157 1.363 . S
C1153 H1124 0.950 . S
C1153 C1152 1.397 . S
C1153 C1154 1.334 . S
C1154 H1125 0.950 . S
C1154 C1153 1.334 . S
C1154 C1155 1.287 . S
C1155 C1154 1.287 . S
C1155 C1156 1.524 . S
C1155 H1158 0.999 . S
C1156 H1126 0.950 . S
C1156 C1155 1.524 . S
C1156 C1157 1.415 . S
C1157 H1127 0.950 . S
C1157 C1152 1.363 . S
C1157 C1156 1.415 . S
H1158 C1155 0.999 . S
H1159 C1140 0.913 . S
H1160 C1178 0.951 . S
H1161 C1180 0.951 . S
H1162 C1182 0.950 . S
H1163 C1183 0.950 . S
H1164 C1185 0.950 . S
H1165 C1188 0.950 . S
H1166 C1189 0.950 . S
H1167 C1191 0.950 . S
H1168 C1192 0.950 . S
H1169 C1193 0.951 . S
H1170 C1195 0.951 . S
H1171 C1197 0.950 . S
H1172 C1198 0.950 . S
H1173 C1200 0.950 . S
H1174 C1203 0.950 . S
H1175 C1204 0.950 . S
H1176 C1206 0.950 . S
H1177 C1207 0.950 . S
C1178 H1160 0.951 . S
C1178 C1179 1.366 . S
C1178 C1180 1.388 . S
C1179 C1178 1.366 . S
C1179 C1183 1.385 . S
C1180 H1161 0.951 . S
C1180 C1178 1.388 . S
C1180 C1181 1.366 . S
C1181 C1180 1.366 . S
C1181 C1182 1.414 . S
C1181 C1184 1.499 . S
C1182 H1162 0.950 . S
C1182 C1181 1.414 . S
C1182 C1183 1.374 . S
C1183 H1163 0.950 . S
C1183 C1179 1.385 . S
C1183 C1182 1.374 . S
C1184 C1181 1.499 . S
C1184 C1185 1.373 . S
C1184 C1186 1.389 . S
C1185 H1164 0.950 . S
C1185 C1184 1.373 . S
C1185 C1201 1.377 . S
C1186 C1184 1.389 . S
C1186 C1187 1.524 . S
C1186 C1200 1.377 . S
C1187 C1186 1.524 . S
C1187 C1188 1.397 . S
C1187 C1192 1.363 . S
C1188 H1165 0.950 . S
C1188 C1187 1.397 . S
C1188 C1189 1.334 . S
C1189 H1166 0.950 . S
C1189 C1188 1.334 . S
C1189 C1190 1.287 . S
C1190 C1189 1.287 . S
C1190 C1191 1.524 . S
C1190 H1209 0.913 . S
C1191 H1167 0.950 . S
C1191 C1190 1.524 . S
C1191 C1192 1.415 . S
C1192 H1168 0.950 . S
C1192 C1187 1.363 . S
C1192 C1191 1.415 . S
C1193 H1169 0.951 . S
C1193 C1194 1.366 . S
C1193 C1195 1.388 . S
C1194 C1193 1.366 . S
C1194 C1198 1.385 . S
C1195 H1170 0.951 . S
C1195 C1193 1.388 . S
C1195 C1196 1.366 . S
C1196 C1195 1.366 . S
C1196 C1197 1.414 . S
C1196 C1199 1.499 . S
C1197 H1171 0.950 . S
C1197 C1196 1.414 . S
C1197 C1198 1.374 . S
C1198 H1172 0.950 . S
C1198 C1194 1.385 . S
C1198 C1197 1.374 . S
C1199 C1196 1.499 . S
C1199 C1200 1.373 . S
C1199 C1201 1.389 . S
C1200 H1173 0.950 . S
C1200 C1186 1.377 . S
C1200 C1199 1.373 . S
C1201 C1185 1.377 . S
C1201 C1199 1.389 . S
C1201 C1202 1.524 . S
C1202 C1201 1.524 . S
C1202 C1203 1.397 . S
C1202 C1207 1.363 . S
C1203 H1174 0.950 . S
C1203 C1202 1.397 . S
C1203 C1204 1.334 . S
C1204 H1175 0.950 . S
C1204 C1203 1.334 . S
C1204 C1205 1.287 . S
C1205 C1204 1.287 . S
C1205 C1206 1.524 . S
C1205 H1208 0.999 . S
C1206 H1176 0.950 . S
C1206 C1205 1.524 . S
C1206 C1207 1.415 . S
C1207 H1177 0.950 . S
C1207 C1202 1.363 . S
C1207 C1206 1.415 . S
H1208 C1205 0.999 . S
H1209 C1190 0.913 . S
H1210 C1228 0.951 . S
H1211 C1230 0.951 . S
H1212 C1232 0.950 . S
H1213 C1233 0.950 . S
H1214 C1235 0.950 . S
H1215 C1238 0.950 . S
H1216 C1239 0.950 . S
H1217 C1241 0.950 . S
H1218 C1242 0.950 . S
H1219 C1243 0.951 . S
H1220 C1245 0.951 . S
H1221 C1247 0.950 . S
H1222 C1248 0.950 . S
H1223 C1250 0.950 . S
H1224 C1253 0.950 . S
H1225 C1254 0.950 . S
H1226 C1256 0.950 . S
H1227 C1257 0.950 . S
C1228 H1210 0.951 . S
C1228 C1229 1.366 . S
C1228 C1230 1.388 . S
C1229 C1228 1.366 . S
C1229 C1233 1.385 . S
C1230 H1211 0.951 . S
C1230 C1228 1.388 . S
C1230 C1231 1.366 . S
C1231 C1230 1.366 . S
C1231 C1232 1.414 . S
C1231 C1234 1.499 . S
C1232 H1212 0.950 . S
C1232 C1231 1.414 . S
C1232 C1233 1.374 . S
C1233 H1213 0.950 . S
C1233 C1229 1.385 . S
C1233 C1232 1.374 . S
C1234 C1231 1.499 . S
C1234 C1235 1.373 . S
C1234 C1236 1.389 . S
C1235 H1214 0.950 . S
C1235 C1234 1.373 . S
C1235 C1251 1.377 . S
C1236 C1234 1.389 . S
C1236 C1237 1.524 . S
C1236 C1250 1.377 . S
C1237 C1236 1.524 . S
C1237 C1238 1.397 . S
C1237 C1242 1.363 . S
C1238 H1215 0.950 . S
C1238 C1237 1.397 . S
C1238 C1239 1.334 . S
C1239 H1216 0.950 . S
C1239 C1238 1.334 . S
C1239 C1240 1.287 . S
C1240 C1239 1.287 . S
C1240 C1241 1.524 . S
C1240 H1259 0.913 . S
C1241 H1217 0.950 . S
C1241 C1240 1.524 . S
C1241 C1242 1.415 . S
C1242 H1218 0.950 . S
C1242 C1237 1.363 . S
C1242 C1241 1.415 . S
C1243 H1219 0.951 . S
C1243 C1244 1.366 . S
C1243 C1245 1.388 . S
C1244 C1243 1.366 . S
C1244 C1248 1.385 . S
C1245 H1220 0.951 . S
C1245 C1243 1.388 . S
C1245 C1246 1.366 . S
C1246 C1245 1.366 . S
C1246 C1247 1.414 . S
C1246 C1249 1.499 . S
C1247 H1221 0.950 . S
C1247 C1246 1.414 . S
C1247 C1248 1.374 . S
C1248 H1222 0.950 . S
C1248 C1244 1.385 . S
C1248 C1247 1.374 . S
C1249 C1246 1.499 . S
C1249 C1250 1.373 . S
C1249 C1251 1.389 . S
C1250 H1223 0.950 . S
C1250 C1236 1.377 . S
C1250 C1249 1.373 . S
C1251 C1235 1.377 . S
C1251 C1249 1.389 . S
C1251 C1252 1.524 . S
C1252 C1251 1.524 . S
C1252 C1253 1.397 . S
C1252 C1257 1.363 . S
C1253 H1224 0.950 . S
C1253 C1252 1.397 . S
C1253 C1254 1.334 . S
C1254 H1225 0.950 . S
C1254 C1253 1.334 . S
C1254 C1255 1.287 . S
C1255 C1254 1.287 . S
C1255 C1256 1.524 . S
C1255 H1258 0.999 . S
C1256 H1226 0.950 . S
C1256 C1255 1.524 . S
C1256 C1257 1.415 . S
C1257 H1227 0.950 . S
C1257 C1252 1.363 . S
C1257 C1256 1.415 . S
H1258 C1255 0.999 . S
H1259 C1240 0.913 . S
H1260 C1278 0.951 . S
H1261 C1280 0.951 . S
H1262 C1282 0.950 . S
H1263 C1283 0.950 . S
H1264 C1285 0.950 . S
H1265 C1288 0.950 . S
H1266 C1289 0.950 . S
H1267 C1291 0.950 . S
H1268 C1292 0.950 . S
H1269 C1293 0.951 . S
H1270 C1295 0.951 . S
H1271 C1297 0.950 . S
H1272 C1298 0.950 . S
H1273 C1300 0.950 . S
H1274 C1303 0.950 . S
H1275 C1304 0.950 . S
H1276 C1306 0.950 . S
H1277 C1307 0.950 . S
C1278 H1260 0.951 . S
C1278 C1279 1.366 . S
C1278 C1280 1.388 . S
C1279 C1278 1.366 . S
C1279 C1283 1.385 . S
C1280 H1261 0.951 . S
C1280 C1278 1.388 . S
C1280 C1281 1.366 . S
C1281 C1280 1.366 . S
C1281 C1282 1.414 . S
C1281 C1284 1.499 . S
C1282 H1262 0.950 . S
C1282 C1281 1.414 . S
C1282 C1283 1.374 . S
C1283 H1263 0.950 . S
C1283 C1279 1.385 . S
C1283 C1282 1.374 . S
C1284 C1281 1.499 . S
C1284 C1285 1.373 . S
C1284 C1286 1.389 . S
C1285 H1264 0.950 . S
C1285 C1284 1.373 . S
C1285 C1301 1.377 . S
C1286 C1284 1.389 . S
C1286 C1287 1.524 . S
C1286 C1300 1.377 . S
C1287 C1286 1.524 . S
C1287 C1288 1.397 . S
C1287 C1292 1.363 . S
C1288 H1265 0.950 . S
C1288 C1287 1.397 . S
C1288 C1289 1.334 . S
C1289 H1266 0.950 . S
C1289 C1288 1.334 . S
C1289 C1290 1.287 . S
C1290 C1289 1.287 . S
C1290 C1291 1.524 . S
C1290 H1309 0.913 . S
C1291 H1267 0.950 . S
C1291 C1290 1.524 . S
C1291 C1292 1.415 . S
C1292 H1268 0.950 . S
C1292 C1287 1.363 . S
C1292 C1291 1.415 . S
C1293 H1269 0.951 . S
C1293 C1294 1.366 . S
C1293 C1295 1.388 . S
C1294 C1293 1.366 . S
C1294 C1298 1.385 . S
C1295 H1270 0.951 . S
C1295 C1293 1.388 . S
C1295 C1296 1.366 . S
C1296 C1295 1.366 . S
C1296 C1297 1.414 . S
C1296 C1299 1.499 . S
C1297 H1271 0.950 . S
C1297 C1296 1.414 . S
C1297 C1298 1.374 . S
C1298 H1272 0.950 . S
C1298 C1294 1.385 . S
C1298 C1297 1.374 . S
C1299 C1296 1.499 . S
C1299 C1300 1.373 . S
C1299 C1301 1.389 . S
C1300 H1273 0.950 . S
C1300 C1286 1.377 . S
C1300 C1299 1.373 . S
C1301 C1285 1.377 . S
C1301 C1299 1.389 . S
C1301 C1302 1.524 . S
C1302 C1301 1.524 . S
C1302 C1303 1.397 . S
C1302 C1307 1.363 . S
C1303 H1274 0.950 . S
C1303 C1302 1.397 . S
C1303 C1304 1.334 . S
C1304 H1275 0.950 . S
C1304 C1303 1.334 . S
C1304 C1305 1.287 . S
C1305 C1304 1.287 . S
C1305 C1306 1.524 . S
C1305 H1308 0.999 . S
C1306 H1276 0.950 . S
C1306 C1305 1.524 . S
C1306 C1307 1.415 . S
C1307 H1277 0.950 . S
C1307 C1302 1.363 . S
C1307 C1306 1.415 . S
H1308 C1305 0.999 . S
H1309 C1290 0.913 . S
H1310 C1328 0.951 . S
H1311 C1330 0.951 . S
H1312 C1332 0.950 . S
H1313 C1333 0.950 . S
H1314 C1335 0.950 . S
H1315 C1338 0.950 . S
H1316 C1339 0.950 . S
H1317 C1341 0.950 . S
H1318 C1342 0.950 . S
H1319 C1343 0.951 . S
H1320 C1345 0.933 1_554 S
H1321 C1347 0.950 . S
H1322 C1348 0.950 . S
H1323 C1350 0.950 . S
H1324 C1353 0.950 . S
H1325 C1354 0.950 . S
H1326 C1356 0.939 1_554 S
H1327 C1357 0.950 . S
C1328 H1310 0.951 . S
C1328 C1329 1.366 . S
C1328 C1330 1.388 . S
C1329 C1328 1.366 . S
C1329 C1333 1.385 . S
C1330 H1311 0.951 . S
C1330 C1328 1.388 . S
C1330 C1331 1.366 . S
C1331 C1330 1.366 . S
C1331 C1332 1.414 . S
C1331 C1334 1.499 . S
C1332 H1312 0.950 . S
C1332 C1331 1.414 . S
C1332 C1333 1.374 . S
C1333 H1313 0.950 . S
C1333 C1329 1.385 . S
C1333 C1332 1.374 . S
C1334 C1331 1.499 . S
C1334 C1335 1.373 . S
C1334 C1336 1.389 . S
C1335 H1314 0.950 . S
C1335 C1334 1.373 . S
C1335 C1351 1.377 . S
C1336 C1334 1.389 . S
C1336 C1337 1.524 . S
C1336 C1350 1.377 . S
C1337 C1336 1.524 . S
C1337 C1338 1.397 . S
C1337 C1342 1.363 . S
C1338 H1315 0.950 . S
C1338 C1337 1.397 . S
C1338 C1339 1.334 . S
C1339 H1316 0.950 . S
C1339 C1338 1.334 . S
C1339 C1340 1.287 . S
C1340 C1339 1.287 . S
C1340 C1341 1.524 . S
C1340 H1359 0.913 . S
C1341 H1317 0.950 . S
C1341 C1340 1.524 . S
C1341 C1342 1.415 . S
C1342 H1318 0.950 . S
C1342 C1337 1.363 . S
C1342 C1341 1.415 . S
C1343 H1319 0.951 . S
C1343 C1344 1.366 . S
C1343 C1345 1.388 . S
C1344 C1343 1.366 . S
C1344 C1348 1.385 . S
C1345 H1320 0.933 1_556 S
C1345 C1343 1.388 . S
C1345 C1346 1.366 . S
C1346 C1345 1.366 . S
C1346 C1347 1.414 . S
C1346 C1349 1.499 1_556 S
C1347 H1321 0.950 . S
C1347 C1346 1.414 . S
C1347 C1348 1.374 . S
C1348 H1322 0.950 . S
C1348 C1344 1.385 . S
C1348 C1347 1.374 . S
C1349 C1346 1.499 1_554 S
C1349 C1350 1.373 . S
C1349 C1351 1.389 . S
C1350 H1323 0.950 . S
C1350 C1336 1.377 . S
C1350 C1349 1.373 . S
C1351 C1335 1.377 . S
C1351 C1349 1.389 . S
C1351 C1352 1.530 . S
C1352 C1351 1.530 . S
C1352 C1353 1.387 1_554 S
C1352 C1357 1.367 . S
C1353 H1324 0.950 . S
C1353 C1352 1.387 1_556 S
C1353 C1354 1.334 . S
C1354 H1325 0.950 . S
C1354 C1353 1.334 . S
C1354 C1355 1.287 . S
C1355 C1354 1.287 . S
C1355 C1356 1.524 . S
C1355 H1358 0.999 . S
C1356 H1326 0.939 1_556 S
C1356 C1355 1.524 . S
C1356 C1357 1.415 1_556 S
C1357 H1327 0.950 . S
C1357 C1352 1.367 . S
C1357 C1356 1.415 1_554 S
H1358 C1355 0.999 . S
H1359 C1340 0.913 . S
H1360 C1378 0.951 . S
H1361 C1380 0.951 . S
H1362 C1382 0.950 . S
H1363 C1383 0.950 . S
H1364 C1385 0.950 . S
H1365 C1388 0.950 . S
H1366 C1389 0.950 . S
H1367 C1391 0.950 . S
H1368 C1392 0.950 . S
H1369 C1393 0.951 . S
H1370 C1395 0.951 . S
H1371 C1397 0.950 . S
H1372 C1398 0.950 . S
H1373 C1400 0.950 . S
H1374 C1403 0.950 . S
H1375 C1404 0.950 . S
H1376 C1406 0.950 . S
H1377 C1407 0.950 . S
C1378 H1360 0.951 . S
C1378 C1379 1.366 . S
C1378 C1380 1.388 . S
C1379 C1378 1.366 . S
C1379 C1383 1.385 . S
C1380 H1361 0.951 . S
C1380 C1378 1.388 . S
C1380 C1381 1.366 . S
C1381 C1380 1.366 . S
C1381 C1382 1.414 . S
C1381 C1384 1.499 . S
C1382 H1362 0.950 . S
C1382 C1381 1.414 . S
C1382 C1383 1.374 . S
C1383 H1363 0.950 . S
C1383 C1379 1.385 . S
C1383 C1382 1.374 . S
C1384 C1381 1.499 . S
C1384 C1385 1.373 . S
C1384 C1386 1.389 . S
C1385 H1364 0.950 . S
C1385 C1384 1.373 . S
C1385 C1401 1.377 . S
C1386 C1384 1.389 . S
C1386 C1387 1.524 . S
C1386 C1400 1.377 . S
C1387 C1386 1.524 . S
C1387 C1388 1.397 . S
C1387 C1392 1.363 . S
C1388 H1365 0.950 . S
C1388 C1387 1.397 . S
C1388 C1389 1.334 . S
C1389 H1366 0.950 . S
C1389 C1388 1.334 . S
C1389 C1390 1.287 . S
C1390 C1389 1.287 . S
C1390 C1391 1.524 . S
C1390 H1409 0.913 . S
C1391 H1367 0.950 . S
C1391 C1390 1.524 . S
C1391 C1392 1.415 . S
C1392 H1368 0.950 . S
C1392 C1387 1.363 . S
C1392 C1391 1.415 . S
C1393 H1369 0.951 . S
C1393 C1394 1.366 . S
C1393 C1395 1.388 . S
C1394 C1393 1.366 . S
C1394 C1398 1.385 . S
C1395 H1370 0.951 . S
C1395 C1393 1.388 . S
C1395 C1396 1.366 . S
C1396 C1395 1.366 . S
C1396 C1397 1.414 . S
C1396 C1399 1.499 . S
C1397 H1371 0.950 . S
C1397 C1396 1.414 . S
C1397 C1398 1.374 . S
C1398 H1372 0.950 . S
C1398 C1394 1.385 . S
C1398 C1397 1.374 . S
C1399 C1396 1.499 . S
C1399 C1400 1.373 . S
C1399 C1401 1.389 . S
C1400 H1373 0.950 . S
C1400 C1386 1.377 . S
C1400 C1399 1.373 . S
C1401 C1385 1.377 . S
C1401 C1399 1.389 . S
C1401 C1402 1.524 . S
C1402 C1401 1.524 . S
C1402 C1403 1.397 . S
C1402 C1407 1.363 . S
C1403 H1374 0.950 . S
C1403 C1402 1.397 . S
C1403 C1404 1.334 . S
C1404 H1375 0.950 . S
C1404 C1403 1.334 . S
C1404 C1405 1.287 . S
C1405 C1404 1.287 . S
C1405 C1406 1.524 . S
C1405 H1408 0.999 . S
C1406 H1376 0.950 . S
C1406 C1405 1.524 . S
C1406 C1407 1.415 . S
C1407 H1377 0.950 . S
C1407 C1402 1.363 . S
C1407 C1406 1.415 . S
H1408 C1405 0.999 . S
H1409 C1390 0.913 . S
C244 C196 1.618 . S
C229 C19 1.535 . S
C279 C40 1.523 . S
C294 C137 1.615 . S
C329 C51 1.508 . S
C344 C140 1.612 . S
C379 C72 1.524 . S
C394 C154 1.623 . S
C444 C179 1.613 . S
C429 C103 1.521 . S
C479 C114 1.500 . S
C494 C182 1.604 . S
C529 C30 1.489 . S
C544 C151 1.597 . S
C579 C61 1.517 . S
C594 C165 1.603 . S
C629 C82 1.503 . S
C644 C168 1.585 . S
C694 C193 1.589 . S
C679 C93 1.482 1_554 S
C744 C207 1.600 . S
C729 C124 1.513 . S
C794 C126 1.590 . S
C779 C9 1.493 . S
C829 C17 1.428 . S
C844 C149 1.509 . S
C879 C38 1.434 . S
C894 C163 1.522 . S
C944 C173 1.521 . S
C929 C54 1.428 . S
C979 C75 1.422 . S
C994 C191 1.509 . S
C1044 C205 1.521 . S
C1029 C101 1.432 . S
C1094 C131 1.523 . S
C1079 C117 1.430 . S
C1144 C201 1.550 . S
C1129 C33 1.450 . S
C1179 C59 1.444 . S
C1194 C135 1.532 . S
C1244 C145 1.541 . S
C1229 C80 1.454 . S
C1279 C96 1.449 . S
C1294 C159 1.551 . S
C1329 C122 1.443 . S
C1344 C177 1.530 . S
C1379 C12 1.446 . S
C1394 C187 1.540 . S
