# Generated by pormake.
# Topology rtl, (3,6)-cn, num edge types: 1
# Building blocks:
#     Node 0, Type 0, BuildingBlock: BETDIP_clean_linker_0, # of connection points: 3
#     Node 1, Type 0, BuildingBlock: BETDIP_clean_linker_0, # of connection points: 3
#     Node 2, Type 0, BuildingBlock: BETDIP_clean_linker_0, # of connection points: 3
#     Node 3, Type 0, BuildingBlock: BETDIP_clean_linker_0, # of connection points: 3
#     Node 4, Type 1, BuildingBlock: LEVNOQ01_clean_sbu_1, # of connection points: 6
#     Node 5, Type 1, BuildingBlock: LEVNOQ01_clean_sbu_1, # of connection points: 6
#     Edge 6, Type (0, 1), BuildingBlock: KIFKEQ_clean_linker_1, # of connection points: 2
#     Edge 7, Type (0, 1), BuildingBlock: KIFKEQ_clean_linker_1, # of connection points: 2
#     Edge 8, Type (0, 1), BuildingBlock: KIFKEQ_clean_linker_1, # of connection points: 2
#     Edge 9, Type (0, 1), BuildingBlock: KIFKEQ_clean_linker_1, # of connection points: 2
#     Edge 10, Type (0, 1), BuildingBlock: KIFKEQ_clean_linker_1, # of connection points: 2
#     Edge 11, Type (0, 1), BuildingBlock: KIFKEQ_clean_linker_1, # of connection points: 2
#     Edge 12, Type (0, 1), BuildingBlock: KIFKEQ_clean_linker_1, # of connection points: 2
#     Edge 13, Type (0, 1), BuildingBlock: KIFKEQ_clean_linker_1, # of connection points: 2
#     Edge 14, Type (0, 1), BuildingBlock: KIFKEQ_clean_linker_1, # of connection points: 2
#     Edge 15, Type (0, 1), BuildingBlock: KIFKEQ_clean_linker_1, # of connection points: 2
#     Edge 16, Type (0, 1), BuildingBlock: KIFKEQ_clean_linker_1, # of connection points: 2
#     Edge 17, Type (0, 1), BuildingBlock: KIFKEQ_clean_linker_1, # of connection points: 2
# Relax obj value: 0.017
# Max RMSD: 0.117
# Mean RMSD: 0.089
data_MOF--net-rtl--node1-LEVNOQ01_clean_sbu_1--node2-BETDIP_clean_linker_0--edge1-KIFKEQ_clean_linker_1
_symmetry_space_group_name_H-M    P1
_symmetry_Int_Tables_number       1
_symmetry_cell_setting            triclinic
loop_
_symmetry_equiv_pos_as_xyz
'x, y, z'
_cell_length_a     36.511987
_cell_length_b     36.210301
_cell_length_c     22.844304
_cell_angle_alpha  90.771877
_cell_angle_beta   98.803531
_cell_angle_gamma 89.855019
loop_
_atom_site_label
_atom_site_type_symbol
_atom_site_fract_x
_atom_site_fract_y
_atom_site_fract_z
_atom_type_partial_charge
H0 H 0.20752 0.84828 0.9863 0.0
H1 H 0.22906 0.84645 0.17676 0.0
H2 H 0.15664 0.92872 0.08896 0.0
H3 H 0.27736 0.81107 0.16454 0.0
C4 C 0.27211 0.7982 0.12091 0.0
C5 C 0.20368 0.86031 0.02862 0.0
C6 C 0.1796 0.89054 0.03077 0.0
C7 C 0.22239 0.84465 0.08071 0.0
C8 C 0.21618 0.85895 0.13602 0.0
C9 C 0.19255 0.88942 0.13901 0.0
C10 C 0.17489 0.90529 0.08638 0.0
N11 N 0.24602 0.81383 0.07511 0.0
H12 H 0.69735 0.72235 0.68109 0.0
H13 H 0.69223 0.72663 0.49147 0.0
H14 H 0.62766 0.64672 0.56749 0.0
H15 H 0.75628 0.73563 0.52738 0.0
C16 C 0.75396 0.75767 0.55943 0.0
C17 C 0.68594 0.71231 0.63719 0.0
C18 C 0.66118 0.68236 0.63048 0.0
C19 C 0.69797 0.72787 0.58745 0.0
C20 C 0.68351 0.71459 0.53024 0.0
C21 C 0.65846 0.68503 0.52314 0.0
C22 C 0.64739 0.6693 0.57327 0.0
N23 N 0.72592 0.75553 0.59604 0.0
H24 H 0.79203 0.20967 0.88432 0.0
H25 H 0.80772 0.21677 0.07476 0.0
H26 H 0.85352 0.1256 0.98889 0.0
H27 H 0.79619 0.27678 0.05676 0.0
C28 C 0.77533 0.27743 0.01744 0.0
C29 C 0.803 0.19801 0.92684 0.0
C30 C 0.82428 0.16543 0.92975 0.0
C31 C 0.79687 0.21684 0.97859 0.0
C32 C 0.81215 0.20273 0.03436 0.0
C33 C 0.8336 0.17032 0.03813 0.0
C34 C 0.83847 0.15149 0.98576 0.0
N35 N 0.77507 0.24967 0.9727 0.0
H36 H 0.29876 0.32343 0.38416 0.0
H37 H 0.31215 0.31014 0.57242 0.0
H38 H 0.38389 0.38392 0.49578 0.0
H39 H 0.29776 0.24769 0.53724 0.0
C40 C 0.27391 0.25434 0.50445 0.0
C41 C 0.31304 0.33065 0.42797 0.0
C42 C 0.34217 0.35618 0.4345 0.0
C43 C 0.30346 0.31273 0.47723 0.0
C44 C 0.32148 0.32235 0.53433 0.0
C45 C 0.35019 0.34879 0.54217 0.0
C46 C 0.36096 0.36466 0.4914 0.0
N47 N 0.27501 0.28569 0.46806 0.0
O48 O 0.95486 0.10002 0.58104 0.0
Mg49 Mg 0.00928 0.07947 0.59865 0.0
O50 O 0.95284 0.04047 0.58795 0.0
Mg51 Mg 0.00037 0.02185 0.53193 0.0
O52 O 0.03887 0.07544 0.53007 0.0
O53 O 0.04317 0.12265 0.59595 0.0
O54 O 0.04752 0.00154 0.47636 0.0
O55 O 0.96426 0.04604 0.44807 0.0
Mg56 Mg 0.98439 0.96341 0.45632 0.0
O57 O 0.96316 0.96803 0.53395 0.0
O58 O 0.038 0.94239 0.46175 0.0
O59 O 0.96268 0.99889 0.38598 0.0
O60 O 0.9494 0.92222 0.46639 0.0
C61 C 0.04038 0.01387 0.66775 0.0
C62 C 0.93761 0.07183 0.59296 0.0
C63 C 0.05297 0.10714 0.54968 0.0
C64 C 0.05888 0.9699 0.4614 0.0
C65 C 0.95518 0.03233 0.39622 0.0
C66 C 0.94601 0.93731 0.5167 0.0
O67 O 0.0281 0.04623 0.67455 0.0
O68 O 0.03629 0.99914 0.61619 0.0
O69 O 0.53402 0.51077 0.17641 0.0
Mg70 Mg 0.52715 0.47165 0.10579 0.0
O71 O 0.52737 0.55556 0.11204 0.0
Mg72 Mg 0.49961 0.51977 0.03163 0.0
O73 O 0.55171 0.47818 0.03247 0.0
O74 O 0.57458 0.4431 0.11047 0.0
O75 O 0.47675 0.47778 0.95135 0.0
O76 O 0.53391 0.55331 0.97405 0.0
Mg77 Mg 0.45188 0.53857 0.95309 0.0
O78 O 0.45234 0.56788 0.0305 0.0
O79 O 0.41814 0.49117 0.93897 0.0
O80 O 0.49167 0.54874 0.89541 0.0
O81 O 0.41857 0.58258 0.94314 0.0
C82 C 0.45699 0.45463 0.10257 0.0
C83 C 0.53579 0.54478 0.16522 0.0
C84 C 0.57625 0.45489 0.05806 0.0
C85 C 0.44351 0.46933 0.92965 0.0
C86 C 0.52418 0.55763 0.91879 0.0
C87 C 0.42821 0.58916 -0.00114 0.0
O88 O 0.48391 0.43374 0.09774 0.0
O89 O 0.45965 0.48864 0.08977 0.0
H90 H 0.20663 0.26427 0.43427 0.0
H91 H 0.26809 0.18818 0.55618 0.0
H92 H 0.15182 0.22503 0.42829 0.0
H93 H 0.2132 0.14883 0.55006 0.0
H94 H 0.11173 0.07584 0.50575 0.0
H95 H 0.16607 0.10884 0.48107 0.0
H96 H 0.11276 0.21297 0.50812 0.0
H97 H 0.05932 0.18025 0.53342 0.0
C98 C 0.20859 0.23891 0.45914 0.0
C99 C 0.24149 0.22937 0.49622 0.0
C100 C 0.17723 0.21644 0.45561 0.0
C101 C 0.17827 0.18388 0.48864 0.0
C102 C 0.21172 0.1735 0.5235 0.0
C103 C 0.24299 0.19616 0.52747 0.0
C104 C 0.11138 0.10574 0.50466 0.0
C105 C 0.08159 0.12561 0.5217 0.0
C106 C 0.14247 0.12458 0.49104 0.0
C107 C 0.14366 0.16345 0.493 0.0
C108 C 0.11256 0.18306 0.50574 0.0
C109 C 0.08202 0.16434 0.52044 0.0
H110 H 0.26632 0.75668 0.01879 0.0
H111 H 0.33023 0.76755 0.19349 0.0
H112 H 0.30615 0.70643 -0.00414 0.0
H113 H 0.37105 0.71727 0.16996 0.0
H114 H 0.41219 0.59944 0.11263 0.0
H115 H 0.37479 0.64977 0.14681 0.0
H116 H 0.36893 0.70167 0.97645 0.0
H117 H 0.40491 0.65172 0.9425 0.0
C118 C 0.28898 0.74841 0.05234 0.0
C119 C 0.29541 0.76639 0.10776 0.0
C120 C 0.312 0.71963 0.03911 0.0
C121 C 0.34225 0.70816 0.08073 0.0
C122 C 0.34801 0.72536 0.13694 0.0
C123 C 0.32478 0.75424 0.15029 0.0
C124 C 0.40324 0.62195 0.08306 0.0
C125 C 0.41093 0.62135 0.02462 0.0
C126 C 0.38183 0.65071 0.1025 0.0
C127 C 0.36805 0.67929 0.0638 0.0
C128 C 0.37795 0.67956 0.0068 0.0
C129 C 0.39885 0.65097 0.98745 0.0
H130 H 0.81796 0.75634 0.51525 0.0
H131 H 0.75589 0.82314 0.62352 0.0
H132 H 0.86648 0.80286 0.52516 0.0
H133 H 0.80484 0.87041 0.63327 0.0
H134 H 0.8767 0.95711 0.53471 0.0
H135 H 0.82998 0.91423 0.56068 0.0
H136 H 0.91466 0.83105 0.60169 0.0
H137 H 0.9608 0.87362 0.57449 0.0
C138 C 0.81492 0.78093 0.54165 0.0
C139 C 0.78331 0.78612 0.56867 0.0
C140 C 0.84285 0.80746 0.54781 0.0
C141 C 0.83972 0.84011 0.58069 0.0
C142 C 0.80804 0.84542 0.60795 0.0
C143 C 0.78014 0.81842 0.60243 0.0
C144 C 0.88543 0.93026 0.55208 0.0
C145 C 0.92217 0.91852 0.55304 0.0
C146 C 0.85874 0.90566 0.56668 0.0
C147 C 0.8686 0.86906 0.58206 0.0
C148 C 0.90618 0.85889 0.58904 0.0
C149 C 0.93266 0.88331 0.57417 0.0
H150 H 0.76871 0.33134 0.09778 0.0
H151 H 0.7205 0.2927 0.92352 0.0
H152 H 0.72235 0.37994 0.09314 0.0
H153 H 0.67448 0.34224 0.91773 0.0
H154 H 0.56992 0.39737 0.98083 0.0
H155 H 0.62065 0.35753 0.96064 0.0
H156 H 0.69958 0.43616 0.05053 0.0
H157 H 0.64842 0.47492 0.07267 0.0
C158 C 0.74844 0.33365 0.05806 0.0
C159 C 0.7481 0.30811 0.01131 0.0
C160 C 0.72202 0.3618 0.05501 0.0
C161 C 0.69461 0.36534 0.00483 0.0
C162 C 0.6949 0.34022 0.95727 0.0
C163 C 0.72134 0.31186 0.9605 0.0
C164 C 0.59819 0.40675 0.9939 0.0
C165 C 0.60544 0.4393 0.02754 0.0
C166 C 0.62736 0.38386 0.98264 0.0
C167 C 0.66435 0.39318 0.00497 0.0
C168 C 0.67146 0.42761 0.0339 0.0
C169 C 0.64226 0.45021 0.0457 0.0
H170 H 0.19665 0.9604 0.18187 0.0
H171 H 0.16762 0.84979 0.22498 0.0
H172 H 0.17509 0.98408 0.27128 0.0
H173 H 0.14415 0.87313 0.31219 0.0
H174 H 0.10969 0.91475 0.47453 0.0
H175 H 0.15225 0.89814 0.40612 0.0
H176 H 0.12002 0.99665 0.30582 0.0
H177 H 0.07969 0.01422 0.3771 0.0
C178 C 0.18587 0.94117 0.2109 0.0
C179 C 0.18379 0.90329 0.19668 0.0
C180 C 0.17322 0.9547 0.26195 0.0
C181 C 0.1575 0.93074 0.29934 0.0
C182 C 0.15671 0.89259 0.28572 0.0
C183 C 0.16999 0.87905 0.23536 0.0
C184 C 0.11293 0.93346 0.43905 0.0
C185 C 0.09148 0.9657 0.43095 0.0
C186 C 0.13685 0.92369 0.39914 0.0
C187 C 0.13892 0.94534 0.34898 0.0
C188 C 0.11955 0.9792 0.34378 0.0
C189 C 0.09634 0.98944 0.38475 0.0
H190 H 0.63967 0.71368 0.73014 0.0
H191 H 0.65717 0.60836 0.64769 0.0
H192 H 0.61177 0.68191 0.80674 0.0
H193 H 0.62877 0.57701 0.72306 0.0
H194 H 0.52058 0.55123 0.79955 0.0
H195 H 0.55996 0.58076 0.73703 0.0
H196 H 0.62432 0.63148 0.89134 0.0
H197 H 0.58497 0.6013 0.95467 0.0
C198 C 0.63826 0.6838 0.72908 0.0
C199 C 0.64985 0.66356 0.68225 0.0
C200 C 0.62232 0.66566 0.77281 0.0
C201 C 0.61766 0.62711 0.77009 0.0
C202 C 0.63149 0.60681 0.72553 0.0
C203 C 0.64759 0.62479 0.68234 0.0
C204 C 0.54328 0.56843 0.82031 0.0
C205 C 0.5497 0.57397 0.88197 0.0
C206 C 0.56593 0.58518 0.78454 0.0
C207 C 0.59519 0.6083 0.80947 0.0
C208 C 0.60186 0.61382 0.87116 0.0
C209 C 0.57952 0.59642 0.90725 0.0
H210 H 0.80536 0.16356 0.14287 0.0
H211 H 0.90434 0.14506 0.06439 0.0
H212 H 0.83496 0.13333 0.23371 0.0
H213 H 0.93327 0.11456 0.15396 0.0
H214 H 0.94596 0.01586 0.27839 0.0
H215 H 0.91681 0.05308 0.19648 0.0
H216 H 0.89264 0.138 0.31936 0.0
H217 H 0.92232 0.10059 0.4024 0.0
C218 C 0.83353 0.15357 0.14529 0.0
C219 C 0.85222 0.15603 0.09599 0.0
C220 C 0.85042 0.13628 0.19719 0.0
C221 C 0.88615 0.12109 0.2004 0.0
C222 C 0.90542 0.12534 0.15227 0.0
C223 C 0.88877 0.14272 0.10091 0.0
C224 C 0.93444 0.04241 0.28828 0.0
C225 C 0.93662 0.05527 0.34703 0.0
C226 C 0.91788 0.06382 0.24122 0.0
C227 C 0.9027 0.09854 0.25154 0.0
C228 C 0.90409 0.11129 0.31024 0.0
C229 C 0.92121 0.08997 0.35761 0.0
H230 H 0.37736 0.41752 0.57825 0.0
H231 H 0.36318 0.30794 0.64506 0.0
H232 H 0.40546 0.43773 0.67666 0.0
H233 H 0.38899 0.32968 0.74479 0.0
H234 H 0.37921 0.43082 0.89977 0.0
H235 H 0.3605 0.3946 0.80873 0.0
H236 H 0.46915 0.40929 0.76064 0.0
H237 H 0.48842 0.44451 0.85254 0.0
C238 C 0.38063 0.39744 0.61333 0.0
C239 C 0.36804 0.36082 0.60284 0.0
C240 C 0.39655 0.40926 0.66991 0.0
C241 C 0.39954 0.38513 0.71782 0.0
C242 C 0.38701 0.34867 0.7082 0.0
C243 C 0.37186 0.33646 0.65112 0.0
C244 C 0.39948 0.4252 0.87076 0.0
C245 C 0.43523 0.44051 0.88311 0.0
C246 C 0.38878 0.40449 0.81886 0.0
C247 C 0.41342 0.3994 0.77799 0.0
C248 C 0.44981 0.4128 0.79184 0.0
C249 C 0.46081 0.43277 0.84445 0.0
H250 H 0.62118 0.71905 0.42482 0.0
H251 H 0.6645 0.61384 0.4895 0.0
H252 H 0.58992 0.68854 0.33386 0.0
H253 H 0.63433 0.58362 0.39917 0.0
H254 H 0.53823 0.53361 0.28268 0.0
H255 H 0.569 0.5709 0.36447 0.0
H256 H 0.59782 0.65149 0.2415 0.0
H257 H 0.56601 0.61404 0.15857 0.0
C258 C 0.62463 0.68959 0.41887 0.0
C259 C 0.64473 0.66861 0.46421 0.0
C260 C 0.60678 0.67215 0.36703 0.0
C261 C 0.60896 0.63356 0.36002 0.0
C262 C 0.63121 0.61322 0.40394 0.0
C263 C 0.6487 0.6305 0.45547 0.0
C264 C 0.55079 0.55943 0.27285 0.0
C265 C 0.55012 0.57061 0.21408 0.0
C266 C 0.56867 0.58071 0.3198 0.0
C267 C 0.5867 0.61367 0.30939 0.0
C268 C 0.58432 0.62611 0.25083 0.0
C269 C 0.56611 0.60472 0.20345 0.0
H270 H 0.78151 0.15874 0.81893 0.0
H271 H 0.88904 0.13044 0.91566 0.0
H272 H 0.79921 0.13007 0.72947 0.0
H273 H 0.90522 0.10024 0.82802 0.0
H274 H 0.91856 0.02639 0.6778 0.0
H275 H 0.88291 0.04433 0.75598 0.0
H276 H 0.85343 0.14717 0.66764 0.0
H277 H 0.8895 0.12959 0.58994 0.0
C278 C 0.80867 0.14626 0.82152 0.0
C279 C 0.83363 0.14677 0.87513 0.0
C280 C 0.81857 0.12953 0.77042 0.0
C281 C 0.85325 0.11232 0.77228 0.0
C282 C 0.87789 0.11238 0.82575 0.0
C283 C 0.86843 0.1297 0.87619 0.0
C284 C 0.90331 0.05217 0.67382 0.0
C285 C 0.90718 0.07683 0.62822 0.0
C286 C 0.88311 0.06252 0.71875 0.0
C287 C 0.86588 0.09732 0.7181 0.0
C288 C 0.86637 0.12017 0.66911 0.0
C289 C 0.88707 0.11012 0.62473 0.0
H290 H 0.41152 0.35666 0.40577 0.0
H291 H 0.2996 0.3926 0.34411 0.0
H292 H 0.43136 0.38136 0.31662 0.0
H293 H 0.31981 0.4181 0.25485 0.0
H294 H 0.40949 0.49521 0.16082 0.0
H295 H 0.37554 0.47207 0.23774 0.0
H296 H 0.40748 0.3607 0.1992 0.0
H297 H 0.44061 0.38327 0.12216 0.0
C298 C 0.39129 0.37019 0.37336 0.0
C299 C 0.35409 0.37273 0.3816 0.0
C300 C 0.40256 0.38411 0.32236 0.0
C301 C 0.37698 0.40137 0.27906 0.0
C302 C 0.33992 0.40485 0.28776 0.0
C303 C 0.32844 0.39021 0.33846 0.0
C304 C 0.40809 0.4657 0.1673 0.0
C305 C 0.42824 0.44111 0.13614 0.0
C306 C 0.3888 0.45253 0.21137 0.0
C307 C 0.38963 0.41476 0.22474 0.0
C308 C 0.40691 0.39 0.19002 0.0
C309 C 0.42579 0.40299 0.1459 0.0
H310 H 0.20354 0.90178 0.92379 0.0
H311 H 0.10751 0.91429 0.01189 0.0
H312 H 0.16914 0.9293 0.83468 0.0
H313 H 0.07364 0.94236 0.9235 0.0
H314 H 0.04424 0.03275 0.7846 0.0
H315 H 0.07742 0.00121 0.87023 0.0
H316 H 0.1142 0.91809 0.75498 0.0
H317 H 0.08092 0.94979 0.66873 0.0
C318 C 0.17506 0.91007 0.92409 0.0
C319 C 0.15852 0.90617 0.97544 0.0
C320 C 0.15536 0.92586 0.873 0.0
C321 C 0.11877 0.9383 0.87221 0.0
C322 C 0.10202 0.9337 0.92305 0.0
C323 C 0.12155 0.91772 0.97384 0.0
C324 C 0.0593 0.00771 0.77735 0.0
C325 C 0.05989 0.99383 0.71972 0.0
C326 C 0.07817 0.98951 0.82654 0.0
C327 C 0.09839 0.95711 0.81944 0.0
C328 C 0.09908 0.94316 0.76185 0.0
C329 C 0.07984 0.9612 0.71251 0.0
loop_
_geom_bond_atom_site_label_1
_geom_bond_atom_site_label_2
_geom_bond_distance
_geom_bond_site_symmetry_2
_ccdc_geom_bond_type
H0 C5 0.930 1_556 S
H1 C8 0.930 . S
H2 C10 0.930 . S
H3 C4 1.016 . S
C4 H3 1.016 . S
C4 N11 1.286 . S
C5 H0 0.930 1_554 S
C5 C6 1.397 . S
C5 C7 1.361 . S
C6 C5 1.397 . S
C6 C10 1.390 . S
C7 C5 1.361 . S
C7 C8 1.393 . S
C7 N11 1.413 . S
C8 H1 0.930 . S
C8 C7 1.393 . S
C8 C9 1.399 . S
C9 C8 1.399 . S
C9 C10 1.381 . S
C10 H2 0.930 . S
C10 C6 1.390 . S
C10 C9 1.381 . S
N11 C4 1.286 . S
N11 C7 1.413 . S
H12 C17 0.930 . S
H13 C20 0.930 . S
H14 C22 0.930 . S
H15 C16 1.016 . S
C16 H15 1.016 . S
C16 N23 1.286 . S
C17 H12 0.930 . S
C17 C18 1.397 . S
C17 C19 1.361 . S
C18 C17 1.397 . S
C18 C22 1.390 . S
C19 C17 1.361 . S
C19 C20 1.393 . S
C19 N23 1.413 . S
C20 H13 0.930 . S
C20 C19 1.393 . S
C20 C21 1.399 . S
C21 C20 1.399 . S
C21 C22 1.381 . S
C22 H14 0.930 . S
C22 C18 1.390 . S
C22 C21 1.381 . S
N23 C16 1.286 . S
N23 C19 1.413 . S
H24 C29 0.930 . S
H25 C32 0.930 . S
H26 C34 0.930 . S
H27 C28 1.016 . S
C28 H27 1.016 . S
C28 N35 1.286 1_554 S
C29 H24 0.930 . S
C29 C30 1.397 . S
C29 C31 1.361 . S
C30 C29 1.397 . S
C30 C34 1.390 1_556 S
C31 C29 1.361 . S
C31 C32 1.393 1_556 S
C31 N35 1.413 . S
C32 H25 0.930 . S
C32 C31 1.393 1_554 S
C32 C33 1.399 . S
C33 C32 1.399 . S
C33 C34 1.381 . S
C34 H26 0.930 . S
C34 C30 1.390 1_554 S
C34 C33 1.381 . S
N35 C28 1.286 1_556 S
N35 C31 1.413 . S
H36 C41 0.930 . S
H37 C44 0.930 . S
H38 C46 0.930 . S
H39 C40 1.016 . S
C40 H39 1.016 . S
C40 N47 1.286 . S
C41 H36 0.930 . S
C41 C42 1.397 . S
C41 C43 1.361 . S
C42 C41 1.397 . S
C42 C46 1.390 . S
C43 C41 1.361 . S
C43 C44 1.393 . S
C43 N47 1.413 . S
C44 H37 0.930 . S
C44 C43 1.393 . S
C44 C45 1.399 . S
C45 C44 1.399 . S
C45 C46 1.381 . S
C46 H38 0.930 . S
C46 C42 1.390 . S
C46 C45 1.381 . S
N47 C40 1.286 . S
N47 C43 1.413 . S
O48 Mg49 1.990 . S
O48 C62 1.253 1_455 S
Mg49 O48 1.990 . S
Mg49 O52 2.180 . S
Mg49 O53 2.117 . S
Mg49 O67 2.030 . S
O50 Mg51 2.072 1_655 S
O50 C62 1.260 . S
Mg51 O50 2.072 1_455 S
Mg51 O52 2.099 . S
Mg51 O54 2.079 1_545 S
Mg51 O55 2.072 1_455 S
Mg51 O57 2.099 1_445 S
Mg51 O68 2.079 1_545 S
O52 Mg49 2.180 . S
O52 Mg51 2.099 . S
O52 C63 1.279 . S
O53 Mg49 2.117 . S
O53 C63 1.250 . S
O54 Mg51 2.079 1_565 S
O54 C64 1.264 . S
O55 Mg51 2.072 1_655 S
O55 C65 1.260 . S
Mg56 O57 2.180 . S
Mg56 O58 2.030 1_655 S
Mg56 O59 1.990 1_565 S
Mg56 O60 2.117 . S
O57 Mg51 2.099 1_665 S
O57 Mg56 2.180 . S
O57 C66 1.279 . S
O58 Mg56 2.030 1_455 S
O58 C64 1.248 . S
O59 Mg56 1.990 1_545 S
O59 C65 1.253 . S
O60 Mg56 2.117 . S
O60 C66 1.250 . S
C61 O67 1.248 1_565 S
C61 O68 1.264 . S
C62 O48 1.253 1_655 S
C62 O50 1.260 . S
C63 O52 1.279 . S
C63 O53 1.250 . S
C64 O54 1.264 . S
C64 O58 1.248 . S
C65 O55 1.260 . S
C65 O59 1.253 . S
C66 O57 1.279 . S
C66 O60 1.250 . S
O67 Mg49 2.030 . S
O67 C61 1.248 1_545 S
O68 Mg51 2.079 1_565 S
O68 C61 1.264 . S
O69 Mg70 1.990 . S
O69 C83 1.253 . S
Mg70 O69 1.990 . S
Mg70 O73 2.180 . S
Mg70 O74 2.117 . S
Mg70 O88 2.030 . S
O71 Mg72 2.072 . S
O71 C83 1.260 . S
Mg72 O71 2.072 . S
Mg72 O73 2.099 . S
Mg72 O75 2.079 1_554 S
Mg72 O76 2.072 1_554 S
Mg72 O78 2.099 . S
Mg72 O89 2.079 . S
O73 Mg70 2.180 . S
O73 Mg72 2.099 . S
O73 C84 1.279 . S
O74 Mg70 2.117 . S
O74 C84 1.250 . S
O75 Mg72 2.079 1_556 S
O75 C85 1.264 . S
O76 Mg72 2.072 1_556 S
O76 C86 1.260 . S
Mg77 O78 2.180 1_556 S
Mg77 O79 2.030 . S
Mg77 O80 1.990 . S
Mg77 O81 2.117 . S
O78 Mg72 2.099 . S
O78 Mg77 2.180 1_554 S
O78 C87 1.279 . S
O79 Mg77 2.030 . S
O79 C85 1.248 . S
O80 Mg77 1.990 . S
O80 C86 1.253 . S
O81 Mg77 2.117 . S
O81 C87 1.250 1_556 S
C82 O88 1.248 . S
C82 O89 1.264 . S
C83 O69 1.253 . S
C83 O71 1.260 . S
C84 O73 1.279 . S
C84 O74 1.250 . S
C85 O75 1.264 . S
C85 O79 1.248 . S
C86 O76 1.260 . S
C86 O80 1.253 . S
C87 O78 1.279 . S
C87 O81 1.250 1_554 S
O88 Mg70 2.030 . S
O88 C82 1.248 . S
O89 Mg72 2.079 . S
O89 C82 1.264 . S
H90 C98 0.950 . S
H91 C103 0.950 . S
H92 C100 0.950 . S
H93 C102 0.950 . S
H94 C104 0.950 . S
H95 C106 0.950 . S
H96 C108 0.950 . S
H97 C109 0.950 . S
C98 H90 0.950 . S
C98 C99 1.386 . S
C98 C100 1.391 . S
C99 C98 1.386 . S
C99 C103 1.393 . S
C100 H92 0.950 . S
C100 C98 1.391 . S
C100 C101 1.400 . S
C101 C100 1.400 . S
C101 C102 1.398 . S
C101 C107 1.491 . S
C102 H93 0.950 . S
C102 C101 1.398 . S
C102 C103 1.391 . S
C103 H91 0.950 . S
C103 C99 1.393 . S
C103 C102 1.391 . S
C104 H94 0.950 . S
C104 C105 1.386 . S
C104 C106 1.391 . S
C105 C104 1.386 . S
C105 C109 1.393 . S
C106 H95 0.950 . S
C106 C104 1.391 . S
C106 C107 1.400 . S
C107 C101 1.491 . S
C107 C106 1.400 . S
C107 C108 1.398 . S
C108 H96 0.950 . S
C108 C107 1.398 . S
C108 C109 1.391 . S
C109 H97 0.950 . S
C109 C105 1.393 . S
C109 C108 1.391 . S
H110 C118 0.950 . S
H111 C123 0.950 . S
H112 C120 0.950 . S
H113 C122 0.950 . S
H114 C124 0.950 . S
H115 C126 0.950 . S
H116 C128 0.950 1_556 S
H117 C129 0.950 1_556 S
C118 H110 0.950 . S
C118 C119 1.386 . S
C118 C120 1.391 . S
C119 C118 1.386 . S
C119 C123 1.393 . S
C120 H112 0.950 . S
C120 C118 1.391 . S
C120 C121 1.400 . S
C121 C120 1.400 . S
C121 C122 1.398 . S
C121 C127 1.491 . S
C122 H113 0.950 . S
C122 C121 1.398 . S
C122 C123 1.391 . S
C123 H111 0.950 . S
C123 C119 1.393 . S
C123 C122 1.391 . S
C124 H114 0.950 . S
C124 C125 1.386 . S
C124 C126 1.391 . S
C125 C124 1.386 . S
C125 C129 1.393 . S
C126 H115 0.950 . S
C126 C124 1.391 . S
C126 C127 1.400 . S
C127 C121 1.491 . S
C127 C126 1.400 . S
C127 C128 1.398 . S
C128 H116 0.950 1_554 S
C128 C127 1.398 . S
C128 C129 1.391 . S
C129 H117 0.950 1_554 S
C129 C125 1.393 . S
C129 C128 1.391 . S
H130 C138 0.950 . S
H131 C143 0.950 . S
H132 C140 0.950 . S
H133 C142 0.950 . S
H134 C144 0.950 . S
H135 C146 0.950 . S
H136 C148 0.950 . S
H137 C149 0.950 . S
C138 H130 0.950 . S
C138 C139 1.386 . S
C138 C140 1.391 . S
C139 C138 1.386 . S
C139 C143 1.393 . S
C140 H132 0.950 . S
C140 C138 1.391 . S
C140 C141 1.400 . S
C141 C140 1.400 . S
C141 C142 1.398 . S
C141 C147 1.491 . S
C142 H133 0.950 . S
C142 C141 1.398 . S
C142 C143 1.391 . S
C143 H131 0.950 . S
C143 C139 1.393 . S
C143 C142 1.391 . S
C144 H134 0.950 . S
C144 C145 1.386 . S
C144 C146 1.391 . S
C145 C144 1.386 . S
C145 C149 1.393 . S
C146 H135 0.950 . S
C146 C144 1.391 . S
C146 C147 1.400 . S
C147 C141 1.491 . S
C147 C146 1.400 . S
C147 C148 1.398 . S
C148 H136 0.950 . S
C148 C147 1.398 . S
C148 C149 1.391 . S
C149 H137 0.950 . S
C149 C145 1.393 . S
C149 C148 1.391 . S
H150 C158 0.950 . S
H151 C163 0.950 . S
H152 C160 0.950 . S
H153 C162 0.950 . S
H154 C164 0.950 . S
H155 C166 0.950 . S
H156 C168 0.950 . S
H157 C169 0.950 . S
C158 H150 0.950 . S
C158 C159 1.386 . S
C158 C160 1.391 . S
C159 C158 1.386 . S
C159 C163 1.393 1_554 S
C160 H152 0.950 . S
C160 C158 1.391 . S
C160 C161 1.400 . S
C161 C160 1.400 . S
C161 C162 1.398 1_554 S
C161 C167 1.491 . S
C162 H153 0.950 . S
C162 C161 1.398 1_556 S
C162 C163 1.391 . S
C163 H151 0.950 . S
C163 C159 1.393 1_556 S
C163 C162 1.391 . S
C164 H154 0.950 . S
C164 C165 1.386 1_556 S
C164 C166 1.391 . S
C165 C164 1.386 1_554 S
C165 C169 1.393 . S
C166 H155 0.950 . S
C166 C164 1.391 . S
C166 C167 1.400 1_556 S
C167 C161 1.491 . S
C167 C166 1.400 1_554 S
C167 C168 1.398 . S
C168 H156 0.950 . S
C168 C167 1.398 . S
C168 C169 1.391 . S
C169 H157 0.950 . S
C169 C165 1.393 . S
C169 C168 1.391 . S
H170 C178 0.950 . S
H171 C183 0.950 . S
H172 C180 0.950 . S
H173 C182 0.950 . S
H174 C184 0.950 . S
H175 C186 0.950 . S
H176 C188 0.950 . S
H177 C189 0.950 . S
C178 H170 0.950 . S
C178 C179 1.386 . S
C178 C180 1.391 . S
C179 C178 1.386 . S
C179 C183 1.393 . S
C180 H172 0.950 . S
C180 C178 1.391 . S
C180 C181 1.400 . S
C181 C180 1.400 . S
C181 C182 1.398 . S
C181 C187 1.491 . S
C182 H173 0.950 . S
C182 C181 1.398 . S
C182 C183 1.391 . S
C183 H171 0.950 . S
C183 C179 1.393 . S
C183 C182 1.391 . S
C184 H174 0.950 . S
C184 C185 1.386 . S
C184 C186 1.391 . S
C185 C184 1.386 . S
C185 C189 1.393 . S
C186 H175 0.950 . S
C186 C184 1.391 . S
C186 C187 1.400 . S
C187 C181 1.491 . S
C187 C186 1.400 . S
C187 C188 1.398 . S
C188 H176 0.950 . S
C188 C187 1.398 . S
C188 C189 1.391 . S
C189 H177 0.950 . S
C189 C185 1.393 . S
C189 C188 1.391 . S
H190 C198 0.950 . S
H191 C203 0.950 . S
H192 C200 0.950 . S
H193 C202 0.950 . S
H194 C204 0.950 . S
H195 C206 0.950 . S
H196 C208 0.950 . S
H197 C209 0.950 . S
C198 H190 0.950 . S
C198 C199 1.386 . S
C198 C200 1.391 . S
C199 C198 1.386 . S
C199 C203 1.393 . S
C200 H192 0.950 . S
C200 C198 1.391 . S
C200 C201 1.400 . S
C201 C200 1.400 . S
C201 C202 1.398 . S
C201 C207 1.491 . S
C202 H193 0.950 . S
C202 C201 1.398 . S
C202 C203 1.391 . S
C203 H191 0.950 . S
C203 C199 1.393 . S
C203 C202 1.391 . S
C204 H194 0.950 . S
C204 C205 1.386 . S
C204 C206 1.391 . S
C205 C204 1.386 . S
C205 C209 1.393 . S
C206 H195 0.950 . S
C206 C204 1.391 . S
C206 C207 1.400 . S
C207 C201 1.491 . S
C207 C206 1.400 . S
C207 C208 1.398 . S
C208 H196 0.950 . S
C208 C207 1.398 . S
C208 C209 1.391 . S
C209 H197 0.950 . S
C209 C205 1.393 . S
C209 C208 1.391 . S
H210 C218 0.950 . S
H211 C223 0.950 . S
H212 C220 0.950 . S
H213 C222 0.950 . S
H214 C224 0.950 1_455 S
H215 C226 0.950 . S
H216 C228 0.950 . S
H217 C229 0.950 . S
C218 H210 0.950 . S
C218 C219 1.386 . S
C218 C220 1.391 . S
C219 C218 1.386 . S
C219 C223 1.393 . S
C220 H212 0.950 . S
C220 C218 1.391 . S
C220 C221 1.400 . S
C221 C220 1.400 . S
C221 C222 1.398 . S
C221 C227 1.491 . S
C222 H213 0.950 . S
C222 C221 1.398 . S
C222 C223 1.391 . S
C223 H211 0.950 . S
C223 C219 1.393 . S
C223 C222 1.391 . S
C224 H214 0.950 1_655 S
C224 C225 1.386 . S
C224 C226 1.391 . S
C225 C224 1.386 . S
C225 C229 1.393 . S
C226 H215 0.950 . S
C226 C224 1.391 . S
C226 C227 1.400 . S
C227 C221 1.491 . S
C227 C226 1.400 . S
C227 C228 1.398 . S
C228 H216 0.950 . S
C228 C227 1.398 . S
C228 C229 1.391 . S
C229 H217 0.950 . S
C229 C225 1.393 . S
C229 C228 1.391 . S
H230 C238 0.950 . S
H231 C243 0.950 . S
H232 C240 0.950 . S
H233 C242 0.950 . S
H234 C244 0.950 . S
H235 C246 0.950 . S
H236 C248 0.950 . S
H237 C249 0.950 . S
C238 H230 0.950 . S
C238 C239 1.386 . S
C238 C240 1.391 . S
C239 C238 1.386 . S
C239 C243 1.393 . S
C240 H232 0.950 . S
C240 C238 1.391 . S
C240 C241 1.400 . S
C241 C240 1.400 . S
C241 C242 1.398 . S
C241 C247 1.491 . S
C242 H233 0.950 . S
C242 C241 1.398 . S
C242 C243 1.391 . S
C243 H231 0.950 . S
C243 C239 1.393 . S
C243 C242 1.391 . S
C244 H234 0.950 . S
C244 C245 1.386 . S
C244 C246 1.391 . S
C245 C244 1.386 . S
C245 C249 1.393 . S
C246 H235 0.950 . S
C246 C244 1.391 . S
C246 C247 1.400 . S
C247 C241 1.491 . S
C247 C246 1.400 . S
C247 C248 1.398 . S
C248 H236 0.950 . S
C248 C247 1.398 . S
C248 C249 1.391 . S
C249 H237 0.950 . S
C249 C245 1.393 . S
C249 C248 1.391 . S
H250 C258 0.950 . S
H251 C263 0.950 . S
H252 C260 0.950 . S
H253 C262 0.950 . S
H254 C264 0.950 . S
H255 C266 0.950 . S
H256 C268 0.950 . S
H257 C269 0.950 . S
C258 H250 0.950 . S
C258 C259 1.386 . S
C258 C260 1.391 . S
C259 C258 1.386 . S
C259 C263 1.393 . S
C260 H252 0.950 . S
C260 C258 1.391 . S
C260 C261 1.400 . S
C261 C260 1.400 . S
C261 C262 1.398 . S
C261 C267 1.491 . S
C262 H253 0.950 . S
C262 C261 1.398 . S
C262 C263 1.391 . S
C263 H251 0.950 . S
C263 C259 1.393 . S
C263 C262 1.391 . S
C264 H254 0.950 . S
C264 C265 1.386 . S
C264 C266 1.391 . S
C265 C264 1.386 . S
C265 C269 1.393 . S
C266 H255 0.950 . S
C266 C264 1.391 . S
C266 C267 1.400 . S
C267 C261 1.491 . S
C267 C266 1.400 . S
C267 C268 1.398 . S
C268 H256 0.950 . S
C268 C267 1.398 . S
C268 C269 1.391 . S
C269 H257 0.950 . S
C269 C265 1.393 . S
C269 C268 1.391 . S
H270 C278 0.950 . S
H271 C283 0.950 . S
H272 C280 0.950 . S
H273 C282 0.950 . S
H274 C284 0.950 . S
H275 C286 0.950 . S
H276 C288 0.950 . S
H277 C289 0.950 . S
C278 H270 0.950 . S
C278 C279 1.386 . S
C278 C280 1.391 . S
C279 C278 1.386 . S
C279 C283 1.393 . S
C280 H272 0.950 . S
C280 C278 1.391 . S
C280 C281 1.400 . S
C281 C280 1.400 . S
C281 C282 1.398 . S
C281 C287 1.491 . S
C282 H273 0.950 . S
C282 C281 1.398 . S
C282 C283 1.391 . S
C283 H271 0.950 . S
C283 C279 1.393 . S
C283 C282 1.391 . S
C284 H274 0.950 . S
C284 C285 1.386 . S
C284 C286 1.391 . S
C285 C284 1.386 . S
C285 C289 1.393 . S
C286 H275 0.950 . S
C286 C284 1.391 . S
C286 C287 1.400 . S
C287 C281 1.491 . S
C287 C286 1.400 . S
C287 C288 1.398 . S
C288 H276 0.950 . S
C288 C287 1.398 . S
C288 C289 1.391 . S
C289 H277 0.950 . S
C289 C285 1.393 . S
C289 C288 1.391 . S
H290 C298 0.950 . S
H291 C303 0.950 . S
H292 C300 0.950 . S
H293 C302 0.950 . S
H294 C304 0.950 . S
H295 C306 0.950 . S
H296 C308 0.950 . S
H297 C309 0.950 . S
C298 H290 0.950 . S
C298 C299 1.386 . S
C298 C300 1.391 . S
C299 C298 1.386 . S
C299 C303 1.393 . S
C300 H292 0.950 . S
C300 C298 1.391 . S
C300 C301 1.400 . S
C301 C300 1.400 . S
C301 C302 1.398 . S
C301 C307 1.491 . S
C302 H293 0.950 . S
C302 C301 1.398 . S
C302 C303 1.391 . S
C303 H291 0.950 . S
C303 C299 1.393 . S
C303 C302 1.391 . S
C304 H294 0.950 . S
C304 C305 1.386 . S
C304 C306 1.391 . S
C305 C304 1.386 . S
C305 C309 1.393 . S
C306 H295 0.950 . S
C306 C304 1.391 . S
C306 C307 1.400 . S
C307 C301 1.491 . S
C307 C306 1.400 . S
C307 C308 1.398 . S
C308 H296 0.950 . S
C308 C307 1.398 . S
C308 C309 1.391 . S
C309 H297 0.950 . S
C309 C305 1.393 . S
C309 C308 1.391 . S
H310 C318 0.950 . S
H311 C323 0.950 . S
H312 C320 0.950 . S
H313 C322 0.950 . S
H314 C324 0.950 . S
H315 C326 0.950 . S
H316 C328 0.950 . S
H317 C329 0.950 . S
C318 H310 0.950 . S
C318 C319 1.386 . S
C318 C320 1.391 . S
C319 C318 1.386 . S
C319 C323 1.393 . S
C320 H312 0.950 . S
C320 C318 1.391 . S
C320 C321 1.400 . S
C321 C320 1.400 . S
C321 C322 1.398 . S
C321 C327 1.491 . S
C322 H313 0.950 . S
C322 C321 1.398 . S
C322 C323 1.391 . S
C323 H311 0.950 . S
C323 C319 1.393 . S
C323 C322 1.391 . S
C324 H314 0.950 . S
C324 C325 1.386 . S
C324 C326 1.391 . S
C325 C324 1.386 . S
C325 C329 1.393 . S
C326 H315 0.950 . S
C326 C324 1.391 . S
C326 C327 1.400 . S
C327 C321 1.491 . S
C327 C326 1.400 . S
C327 C328 1.398 . S
C328 H316 0.950 . S
C328 C327 1.398 . S
C328 C329 1.391 . S
C329 H317 0.950 . S
C329 C325 1.393 . S
C329 C328 1.391 . S
C105 C63 1.241 . S
C99 C40 1.452 . S
C119 C4 1.479 . S
C125 C87 1.272 . S
C139 C16 1.587 . S
C145 C66 1.420 . S
C159 C28 1.596 . S
C165 C84 1.372 . S
C185 C64 1.501 . S
C179 C9 1.500 . S
C205 C86 1.548 . S
C199 C18 1.605 . S
C219 C33 1.587 . S
C225 C65 1.554 . S
C239 C45 1.511 . S
C245 C85 1.472 . S
C265 C83 1.495 . S
C259 C21 1.529 . S
C285 C62 1.492 . S
C279 C30 1.543 . S
C305 C82 1.413 . S
C299 C42 1.461 . S
C319 C6 1.456 1_556 S
C325 C61 1.392 . S
