# Generated by pormake.
# Topology hwx, (6,3)-cn, num edge types: 1
# Building blocks:
#     Node 0, Type 0, BuildingBlock: OJICUG_clean_sbu_0, # of connection points: 6
#     Node 1, Type 0, BuildingBlock: OJICUG_clean_sbu_0, # of connection points: 6
#     Node 2, Type 0, BuildingBlock: OJICUG_clean_sbu_0, # of connection points: 6
#     Node 3, Type 0, BuildingBlock: OJICUG_clean_sbu_0, # of connection points: 6
#     Node 4, Type 1, BuildingBlock: ESEHIV_clean_linker_0, # of connection points: 3
#     Node 5, Type 1, BuildingBlock: ESEHIV_clean_linker_0, # of connection points: 3
#     Node 6, Type 1, BuildingBlock: ESEHIV_clean_linker_0, # of connection points: 3
#     Node 7, Type 1, BuildingBlock: ESEHIV_clean_linker_0, # of connection points: 3
#     Node 8, Type 1, BuildingBlock: ESEHIV_clean_linker_0, # of connection points: 3
#     Node 9, Type 1, BuildingBlock: ESEHIV_clean_linker_0, # of connection points: 3
#     Node 10, Type 1, BuildingBlock: ESEHIV_clean_linker_0, # of connection points: 3
#     Node 11, Type 1, BuildingBlock: ESEHIV_clean_linker_0, # of connection points: 3
#     Edge 12, Type (0, 1), BuildingBlock: UVAHIK_clean_linker_0, # of connection points: 2
#     Edge 13, Type (0, 1), BuildingBlock: UVAHIK_clean_linker_0, # of connection points: 2
#     Edge 14, Type (0, 1), BuildingBlock: UVAHIK_clean_linker_0, # of connection points: 2
#     Edge 15, Type (0, 1), BuildingBlock: UVAHIK_clean_linker_0, # of connection points: 2
#     Edge 16, Type (0, 1), BuildingBlock: UVAHIK_clean_linker_0, # of connection points: 2
#     Edge 17, Type (0, 1), BuildingBlock: UVAHIK_clean_linker_0, # of connection points: 2
#     Edge 18, Type (0, 1), BuildingBlock: UVAHIK_clean_linker_0, # of connection points: 2
#     Edge 19, Type (0, 1), BuildingBlock: UVAHIK_clean_linker_0, # of connection points: 2
#     Edge 20, Type (0, 1), BuildingBlock: UVAHIK_clean_linker_0, # of connection points: 2
#     Edge 21, Type (0, 1), BuildingBlock: UVAHIK_clean_linker_0, # of connection points: 2
#     Edge 22, Type (0, 1), BuildingBlock: UVAHIK_clean_linker_0, # of connection points: 2
#     Edge 23, Type (0, 1), BuildingBlock: UVAHIK_clean_linker_0, # of connection points: 2
#     Edge 24, Type (0, 1), BuildingBlock: UVAHIK_clean_linker_0, # of connection points: 2
#     Edge 25, Type (0, 1), BuildingBlock: UVAHIK_clean_linker_0, # of connection points: 2
#     Edge 26, Type (0, 1), BuildingBlock: UVAHIK_clean_linker_0, # of connection points: 2
#     Edge 27, Type (0, 1), BuildingBlock: UVAHIK_clean_linker_0, # of connection points: 2
#     Edge 28, Type (0, 1), BuildingBlock: UVAHIK_clean_linker_0, # of connection points: 2
#     Edge 29, Type (0, 1), BuildingBlock: UVAHIK_clean_linker_0, # of connection points: 2
#     Edge 30, Type (0, 1), BuildingBlock: UVAHIK_clean_linker_0, # of connection points: 2
#     Edge 31, Type (0, 1), BuildingBlock: UVAHIK_clean_linker_0, # of connection points: 2
#     Edge 32, Type (0, 1), BuildingBlock: UVAHIK_clean_linker_0, # of connection points: 2
#     Edge 33, Type (0, 1), BuildingBlock: UVAHIK_clean_linker_0, # of connection points: 2
#     Edge 34, Type (0, 1), BuildingBlock: UVAHIK_clean_linker_0, # of connection points: 2
#     Edge 35, Type (0, 1), BuildingBlock: UVAHIK_clean_linker_0, # of connection points: 2
# Relax obj value: 0.076
# Max RMSD: 0.101
# Mean RMSD: 0.093
data_MOF--net-hwx--node1-OJICUG_clean_sbu_0--node2-ESEHIV_clean_linker_0--edge1-UVAHIK_clean_linker_0
_symmetry_space_group_name_H-M    P1
_symmetry_Int_Tables_number       1
_symmetry_cell_setting            triclinic
loop_
_symmetry_equiv_pos_as_xyz
'x, y, z'
_cell_length_a     61.701165
_cell_length_b     61.587127
_cell_length_c     27.776982
_cell_angle_alpha  89.98896
_cell_angle_beta   90.122404
_cell_angle_gamma 89.970447
loop_
_atom_site_label
_atom_site_type_symbol
_atom_site_fract_x
_atom_site_fract_y
_atom_site_fract_z
_atom_type_partial_charge
Sc0 Sc 0.21199 0.21472 0.0559 0.0
Sc1 Sc 0.18236 0.17515 0.99167 0.0
Sc2 Sc 0.21272 0.21514 0.93007 0.0
O3 O 0.20233 0.20161 0.9925 0.0
C4 C 0.20445 0.25734 0.9927 0.0
C5 C 0.16269 0.20403 0.07683 0.0
C6 C 0.16305 0.20432 0.90712 0.0
C7 C 0.21399 0.16372 0.07824 0.0
C8 C 0.25538 0.2165 0.99522 0.0
C9 C 0.21507 0.16471 0.90541 0.0
O10 O 0.20756 0.24768 0.03248 0.0
O11 O 0.16178 0.18802 0.04791 0.0
O12 O 0.18096 0.21381 0.899 0.0
O13 O 0.21782 0.18354 0.08747 0.0
O14 O 0.24574 0.21788 0.95483 0.0
O15 O 0.20059 0.15905 0.93546 0.0
O16 O 0.24539 0.21469 0.03494 0.0
O17 O 0.20193 0.15769 0.04351 0.0
O18 O 0.22132 0.18423 0.90061 0.0
O19 O 0.17944 0.21577 0.0821 0.0
O20 O 0.20506 0.24763 0.95246 0.0
O21 O 0.16073 0.19009 0.93994 0.0
Sc22 Sc 0.27759 0.71473 0.44163 0.0
Sc23 Sc 0.30939 0.67685 0.50626 0.0
Sc24 Sc 0.27697 0.71536 0.56745 0.0
O25 O 0.28804 0.70226 0.50513 0.0
C26 C 0.28379 0.75773 0.50423 0.0
C27 C 0.32761 0.70648 0.42078 0.0
C28 C 0.32682 0.70662 0.59196 0.0
C29 C 0.27816 0.6638 0.41945 0.0
C30 C 0.23428 0.71506 0.50273 0.0
C31 C 0.27667 0.66474 0.59138 0.0
O32 O 0.2813 0.7479 0.46443 0.0
O33 O 0.32985 0.69133 0.45163 0.0
O34 O 0.30857 0.7156 0.59892 0.0
O35 O 0.27257 0.68328 0.41127 0.0
O36 O 0.2439 0.71655 0.54306 0.0
O37 O 0.2913 0.65961 0.56114 0.0
O38 O 0.24428 0.7139 0.46296 0.0
O39 O 0.29129 0.65857 0.4529 0.0
O40 O 0.26992 0.68407 0.59679 0.0
O41 O 0.30983 0.71644 0.41413 0.0
O42 O 0.28313 0.74809 0.5446 0.0
O43 O 0.32989 0.69235 0.55954 0.0
Sc44 Sc 0.77468 0.77906 0.93968 0.0
Sc45 Sc 0.80979 0.81707 0.9937 0.0
Sc46 Sc 0.78093 0.77927 0.06446 0.0
O47 O 0.78853 0.79188 -0.00074 0.0
C48 C 0.73523 0.77952 0.01408 0.0
C49 C 0.77274 0.82957 0.91753 0.0
C50 C 0.78411 0.82995 0.08819 0.0
C51 C 0.82282 0.78845 0.90311 0.0
C52 C 0.7838 0.73659 -0.00059 0.0
C53 C 0.83169 0.78607 0.07293 0.0
O54 O 0.74332 0.7765 0.97259 0.0
O55 O 0.78944 0.8343 0.94253 0.0
O56 O 0.77966 0.8104 0.09856 0.0
O57 O 0.8041 0.78012 0.89939 0.0
O58 O 0.7814 0.74614 0.03957 0.0
O59 O 0.83233 0.80226 0.0443 0.0
O60 O 0.78323 0.74652 0.95943 0.0
O61 O 0.82791 0.80159 0.93658 0.0
O62 O 0.8144 0.77566 0.08205 0.0
O63 O 0.76518 0.81044 0.91457 0.0
O64 O 0.74673 0.78223 0.05156 0.0
O65 O 0.79391 0.83542 0.04986 0.0
Sc66 Sc 0.71819 0.27903 0.56115 0.0
Sc67 Sc 0.68041 0.31209 0.49982 0.0
Sc68 Sc 0.71617 0.27797 0.43508 0.0
O69 O 0.70486 0.28971 0.49866 0.0
C70 C 0.7598 0.28438 0.49455 0.0
C71 C 0.71184 0.32954 0.58258 0.0
C72 C 0.70886 0.32811 0.41078 0.0
C73 C 0.66803 0.28108 0.58786 0.0
C74 C 0.7165 0.23538 0.49985 0.0
C75 C 0.66512 0.27963 0.41663 0.0
O76 O 0.75069 0.28318 0.5354 0.0
O77 O 0.69691 0.33248 0.55162 0.0
O78 O 0.7173 0.3096 0.40356 0.0
O79 O 0.68722 0.27409 0.5935 0.0
O80 O 0.71645 0.24489 0.45933 0.0
O81 O 0.6613 0.2942 0.44798 0.0
O82 O 0.71703 0.24551 0.53963 0.0
O83 O 0.66295 0.29504 0.55595 0.0
O84 O 0.68402 0.27232 0.4084 0.0
O85 O 0.72065 0.31118 0.58975 0.0
O86 O 0.74954 0.2825 0.45508 0.0
O87 O 0.69514 0.33165 0.44402 0.0
H88 H 0.20698 0.55076 0.00568 0.0
H89 H 0.19672 0.49153 0.92767 0.0
H90 H 0.19386 0.49185 0.08285 0.0
C91 C 0.20284 0.53364 0.00555 0.0
C92 C 0.20054 0.52258 0.04937 0.0
C93 C 0.20136 0.52255 0.9616 0.0
C94 C 0.19727 0.50016 0.96164 0.0
C95 C 0.19447 0.48885 0.00521 0.0
C96 C 0.19605 0.50027 0.04895 0.0
H97 H 0.94238 0.7301 0.4769 0.0
H98 H 0.00444 0.71656 0.4146 0.0
H99 H -0.00394 0.71295 0.56831 0.0
C100 C 0.95907 0.72495 0.48124 0.0
C101 C 0.96766 0.72181 0.52758 0.0
C102 C 0.97228 0.72293 0.4405 0.0
C103 C 0.99416 0.71747 0.44614 0.0
C104 C 0.00292 0.71378 0.49214 0.0
C105 C 0.98949 0.71583 0.53266 0.0
H106 H 0.76769 0.44525 0.98993 0.0
H107 H 0.78358 0.50125 0.07512 0.0
H108 H 0.78541 0.50481 0.92025 0.0
C109 C 0.77293 0.46202 0.99231 0.0
C110 C 0.77684 0.47377 0.94999 0.0
C111 C 0.775 0.47192 0.03757 0.0
C112 C 0.78187 0.4936 0.04021 0.0
C113 C 0.7857 0.50569 0.99812 0.0
C114 C 0.78306 0.49561 0.95308 0.0
H115 H 0.04636 0.25594 0.50313 0.0
H116 H 0.98867 0.28031 0.57031 0.0
H117 H 0.99413 0.27949 0.41538 0.0
C118 C 0.03043 0.26331 0.50022 0.0
C119 C 0.02143 0.26707 0.45471 0.0
C120 C 0.01883 0.26852 0.54195 0.0
C121 C -0.00212 0.27715 0.53789 0.0
C122 C 0.9887 0.28121 0.49231 0.0
C123 C 0.00087 0.27652 0.45083 0.0
H124 H 0.70261 0.93995 0.50827 0.0
H125 H 0.69786 0.00201 0.57701 0.0
H126 H 0.70286 -0.00181 0.42271 0.0
C127 C 0.70154 0.95746 0.50542 0.0
C128 C 0.70326 0.96751 0.46014 0.0
C129 C 0.69977 0.96984 0.54755 0.0
C130 C 0.69863 0.99249 0.54424 0.0
C131 C 0.69931 0.00288 0.49923 0.0
C132 C 0.70162 0.99025 0.45735 0.0
H133 H 0.55026 0.21811 0.00755 0.0
H134 H 0.4888 0.21045 0.07766 0.0
H135 H 0.49272 0.2088 0.92289 0.0
C136 C 0.53301 0.21488 0.00547 0.0
C137 C 0.52292 0.21345 0.96027 0.0
C138 C 0.52081 0.21369 0.04797 0.0
C139 C 0.4983 0.21083 0.04491 0.0
C140 C 0.48794 0.20915 -7e-05 0.0
C141 C 0.50045 0.21027 0.9578 0.0
H142 H 0.28769 0.05173 0.49095 0.0
H143 H 0.2998 0.99256 0.414 0.0
H144 H 0.29578 0.99215 0.56899 0.0
C145 C 0.29142 0.03452 0.49115 0.0
C146 C 0.29228 0.02336 0.53511 0.0
C147 C 0.29375 0.02345 0.44735 0.0
C148 C 0.29761 0.00102 0.44784 0.0
C149 C 0.29847 0.98949 0.49155 0.0
C150 C 0.29573 0.00085 0.53508 0.0
H151 H 0.44426 0.76081 0.00428 0.0
H152 H 0.50189 0.78025 0.92923 0.0
H153 H 0.50248 0.77414 0.08374 0.0
C154 C 0.46101 0.76613 0.00493 0.0
C155 C 0.47201 0.76757 0.04904 0.0
C156 C 0.47186 0.77026 0.96154 0.0
C157 C 0.49368 0.77658 0.96271 0.0
C158 C 0.5049 0.77816 0.00664 0.0
C159 C 0.49392 0.7735 0.04966 0.0
C160 C 0.13978 0.23081 0.12043 0.0
C161 C 0.14367 0.20922 0.10661 0.0
C162 C 0.12299 0.23575 0.15206 0.0
C163 C 0.09612 0.21374 0.25421 0.0
H164 H 0.05401 0.25978 0.23581 0.0
C165 C 0.03769 0.23749 0.40592 0.0
C166 C 0.03287 0.25958 0.41133 0.0
C167 C 0.04852 0.23013 0.36505 0.0
C168 C 0.06582 0.24705 0.24179 0.0
H169 H 0.13277 0.17593 0.11376 0.0
H170 H 0.10368 0.18457 0.17078 0.0
H171 H 0.07748 0.24906 0.1692 0.0
H172 H 0.03524 0.29141 0.37893 0.0
H173 H 0.05525 0.27887 0.30838 0.0
H174 H 0.08575 0.2125 0.32728 0.0
C175 C 0.11351 0.1976 0.15639 0.0
C176 C 0.07906 0.2408 0.20348 0.0
C177 C 0.13005 0.1927 0.12381 0.0
C178 C 0.03885 0.27427 0.37523 0.0
C179 C 0.0501 0.267 0.33471 0.0
C180 C 0.08321 0.22025 0.29275 0.0
C181 C 0.11006 0.21914 0.17114 0.0
C182 C 0.09442 0.22423 0.20959 0.0
C183 C 0.05517 0.24482 0.32918 0.0
C184 C 0.06801 0.23714 0.28722 0.0
H185 H 0.14997 0.24386 0.10737 0.0
H186 H 0.12071 0.25245 0.16327 0.0
H187 H 0.10813 0.20115 0.25991 0.0
H188 H 0.03289 0.22587 0.4332 0.0
H189 H 0.05162 0.2129 0.36164 0.0
C190 C 0.24896 0.65283 0.65112 0.0
C191 C 0.26709 0.64779 0.62261 0.0
C192 C 0.24053 0.63765 0.68312 0.0
C193 C 0.23881 0.57976 0.71527 0.0
H194 H 0.22665 0.60259 0.84252 0.0
C195 C 0.22057 0.5262 0.88262 0.0
C196 C 0.20559 0.53432 0.91612 0.0
C197 C 0.22662 0.53868 0.8428 0.0
C198 C 0.2296 0.59599 0.80699 0.0
H199 H 0.29 0.6224 0.60404 0.0
H200 H 0.27525 0.59579 0.66075 0.0
H201 H 0.24032 0.62667 0.78048 0.0
H202 H 0.18409 0.56109 0.93275 0.0
H203 H 0.19431 0.58273 0.86288 0.0
H204 H 0.2281 0.54896 0.74226 0.0
C205 C 0.2676 0.61157 0.65789 0.0
C206 C 0.23752 0.60979 0.77146 0.0
C207 C 0.27608 0.62683 0.62562 0.0
C208 C 0.19592 0.55461 0.90781 0.0
C209 C 0.20184 0.567 0.86794 0.0
C210 C 0.2308 0.56588 0.75097 0.0
C211 C 0.25001 0.61704 0.68764 0.0
C212 C 0.24206 0.6019 0.72514 0.0
C213 C 0.21772 0.55946 0.83574 0.0
C214 C 0.22597 0.57391 0.79715 0.0
H215 H 0.24135 0.66866 0.64928 0.0
H216 H 0.22668 0.64217 0.70482 0.0
H217 H 0.24208 0.57328 0.67977 0.0
H218 H 0.22839 0.51066 0.88843 0.0
H219 H 0.23899 0.53248 0.81887 0.0
C220 C 0.85173 0.75899 0.12264 0.0
C221 C 0.85173 0.7788 0.09749 0.0
C222 C 0.86985 0.75238 0.14862 0.0
C223 C 0.91629 0.77464 0.21288 0.0
H224 H 0.92915 0.71347 0.23074 0.0
C225 C 0.97371 0.74298 0.36228 0.0
C226 C 0.96344 0.72776 0.39225 0.0
C227 C 0.96451 0.74863 0.31801 0.0
C228 C 0.92586 0.73062 0.22579 0.0
H229 H 0.87122 0.80681 0.07836 0.0
H230 H 0.90315 0.79513 0.12416 0.0
H231 H 0.90553 0.72481 0.16475 0.0
H232 H 0.9361 0.70598 0.39922 0.0
H233 H 0.92013 0.71563 0.32146 0.0
H234 H 0.93622 0.78029 0.27486 0.0
C235 C 0.8889 0.78487 0.12386 0.0
C236 C 0.91233 0.73712 0.18818 0.0
C237 C 0.87066 0.79151 0.09757 0.0
C238 C 0.94424 0.7178 0.3767 0.0
C239 C 0.93524 0.72318 0.33217 0.0
C240 C 0.93003 0.76813 0.25023 0.0
C241 C 0.88856 0.76533 0.15014 0.0
C242 C 0.90663 0.75909 0.18262 0.0
C243 C 0.94513 0.73886 0.30275 0.0
C244 C 0.93421 0.746 0.2581 0.0
H245 H 0.83754 0.74865 0.12316 0.0
H246 H 0.86883 0.73745 0.16911 0.0
H247 H 0.91211 0.79166 0.20982 0.0
H248 H 0.98847 0.75097 0.37377 0.0
H249 H 0.97239 0.76078 0.29592 0.0
C250 C 0.71021 0.36883 0.60757 0.0
C251 C 0.71973 0.34814 0.61151 0.0
C252 C 0.7178 0.3861 0.63572 0.0
C253 C 0.76476 0.40319 0.71053 0.0
H254 H 0.72234 0.43724 0.78037 0.0
C255 C 0.78188 0.4428 0.89308 0.0
C256 C 0.77322 0.46342 0.90263 0.0
C257 C 0.77706 0.4322 0.85001 0.0
C258 C 0.7344 0.42817 0.76045 0.0
H259 H 0.74494 0.32956 0.64767 0.0
H260 H 0.75775 0.35935 0.69673 0.0
H261 H 0.71029 0.4122 0.71775 0.0
H262 H 0.75312 0.48938 0.8745 0.0
H263 H 0.74453 0.4707 0.799 0.0
H264 H 0.78876 0.41844 0.75484 0.0
C265 C 0.74469 0.36241 0.6715 0.0
C266 C 0.72751 0.41385 0.72454 0.0
C267 C 0.73714 0.34522 0.64362 0.0
C268 C 0.76011 0.47353 0.86779 0.0
C269 C 0.75509 0.46282 0.82485 0.0
C270 C 0.77162 0.4174 0.74655 0.0
C271 C 0.7351 0.38303 0.66805 0.0
C272 C 0.74257 0.40071 0.70028 0.0
C273 C 0.76332 0.44195 0.81584 0.0
C274 C 0.75645 0.42955 0.7728 0.0
H275 H 0.69684 0.37166 0.58307 0.0
H276 H 0.71014 0.40186 0.63214 0.0
H277 H 0.7768 0.39363 0.69169 0.0
H278 H 0.79212 0.43473 0.9193 0.0
H279 H 0.78343 0.41602 0.84427 0.0
C280 C 0.62596 0.27966 0.39126 0.0
C281 C 0.6469 0.27076 0.38792 0.0
C282 C 0.60912 0.27169 0.36246 0.0
C283 C 0.5933 0.22492 0.28593 0.0
H284 H 0.55944 0.26766 0.21609 0.0
C285 C 0.55149 0.20709 0.10532 0.0
C286 C 0.53151 0.21703 0.09522 0.0
C287 C 0.56256 0.2118 0.14792 0.0
C288 C 0.56843 0.25547 0.23596 0.0
H289 H 0.66634 0.24602 0.35262 0.0
H290 H 0.63718 0.23243 0.30237 0.0
H291 H 0.58431 0.27949 0.27899 0.0
H292 H 0.50714 0.23925 0.12241 0.0
H293 H 0.52638 0.24727 0.19719 0.0
H294 H 0.57791 0.20096 0.24172 0.0
C295 C 0.63367 0.24539 0.32752 0.0
C296 C 0.58268 0.26227 0.27203 0.0
C297 C 0.65046 0.25337 0.35608 0.0
C298 C 0.52244 0.2312 0.12938 0.0
C299 C 0.53354 0.23595 0.17196 0.0
C300 C 0.57906 0.21813 0.24984 0.0
C301 C 0.61287 0.25459 0.33001 0.0
C302 C 0.59566 0.24711 0.29655 0.0
C303 C 0.5539 0.22659 0.18128 0.0
C304 C 0.56686 0.23338 0.22369 0.0
H305 H 0.62261 0.29299 0.41555 0.0
H306 H 0.5932 0.27898 0.36541 0.0
H307 H 0.60282 0.21283 0.30483 0.0
H308 H 0.55876 0.19596 0.07983 0.0
H309 H 0.57831 0.20448 0.1538 0.0
C310 C 0.21657 0.12697 0.87064 0.0
C311 C 0.22502 0.14814 0.87372 0.0
C312 C 0.22538 0.11198 0.83821 0.0
C313 C 0.25582 0.11079 0.7248 0.0
H314 H 0.26533 0.04995 0.75405 0.0
C315 C 0.29776 0.0554 0.589 0.0
C316 C 0.28796 0.03519 0.58049 0.0
C317 C 0.29178 0.06785 0.62874 0.0
C318 C 0.26262 0.06688 0.74533 0.0
H319 H 0.25009 0.16973 0.84684 0.0
H320 H 0.26539 0.14366 0.79107 0.0
H321 H 0.25115 0.07422 0.81637 0.0
H322 H 0.26481 0.01178 0.60777 0.0
H323 H 0.25418 0.03367 0.67716 0.0
H324 H 0.26693 0.10362 0.65387 0.0
C325 C 0.25169 0.13877 0.81283 0.0
C326 C 0.25449 0.08074 0.78094 0.0
C327 C 0.24291 0.1537 0.84498 0.0
C328 C 0.27277 0.02723 0.61372 0.0
C329 C 0.26669 0.03976 0.65343 0.0
C330 C 0.26389 0.09701 0.68936 0.0
C331 C 0.24279 0.11789 0.80837 0.0
C332 C 0.25114 0.10287 0.77104 0.0
C333 C 0.27574 0.06045 0.66066 0.0
C334 C 0.2675 0.07493 0.69921 0.0
H335 H 0.20283 0.12214 0.89235 0.0
H336 H 0.21812 0.09602 0.8354 0.0
H337 H 0.25295 0.12766 0.7157 0.0
H338 H 0.30976 0.06176 0.56431 0.0
H339 H 0.29941 0.08352 0.63392 0.0
C340 C 0.36609 0.70171 0.39234 0.0
C341 C 0.34634 0.71312 0.39099 0.0
C342 C 0.38335 0.70802 0.36282 0.0
C343 C 0.40292 0.75426 0.28898 0.0
H344 H 0.43122 0.70995 0.21241 0.0
C345 C 0.44052 0.77129 0.10469 0.0
C346 C 0.46079 0.76211 0.09437 0.0
C347 C 0.42973 0.76587 0.14707 0.0
C348 C 0.42372 0.72246 0.23412 0.0
H349 H 0.32947 0.74039 0.35814 0.0
H350 H 0.35917 0.75102 0.3068 0.0
H351 H 0.40672 0.69924 0.27721 0.0
H352 H 0.48569 0.74003 0.11975 0.0
H353 H 0.46658 0.7303 0.1939 0.0
H354 H 0.4191 0.77746 0.24439 0.0
C355 C 0.36154 0.73743 0.33099 0.0
C356 C 0.40975 0.71635 0.27128 0.0
C357 C 0.34438 0.73114 0.36019 0.0
C358 C 0.47013 0.74745 0.12717 0.0
C359 C 0.45919 0.7418 0.16933 0.0
C360 C 0.41671 0.76035 0.25168 0.0
C361 C 0.38118 0.72594 0.33176 0.0
C362 C 0.3987 0.7322 0.29809 0.0
C363 C 0.43889 0.75098 0.1796 0.0
C364 C 0.42674 0.74451 0.22308 0.0
H365 H 0.36815 0.68779 0.41574 0.0
H366 H 0.39835 0.69891 0.36427 0.0
H367 H 0.39499 0.76685 0.30974 0.0
H368 H 0.43306 0.7827 0.08 0.0
H369 H 0.41396 0.77297 0.15389 0.0
C370 C 0.77132 0.86719 0.88217 0.0
C371 C 0.76172 0.84674 0.88933 0.0
C372 C 0.76149 0.88248 0.85187 0.0
C373 C 0.72552 0.88399 0.74739 0.0
H374 H 0.72295 0.946 0.77066 0.0
C375 C 0.68943 0.94041 0.60518 0.0
C376 C 0.7016 0.95908 0.59499 0.0
C377 C 0.69349 0.92847 0.64697 0.0
C378 C 0.72365 0.92873 0.7636 0.0
H379 H 0.73351 0.82693 0.87279 0.0
H380 H 0.71653 0.85351 0.82044 0.0
H381 H 0.73693 0.9218 0.83342 0.0
H382 H 0.72691 0.98045 0.62111 0.0
H383 H 0.73434 0.95941 0.69354 0.0
H384 H 0.71307 0.89069 0.67733 0.0
C385 C 0.73183 0.85757 0.83738 0.0
C386 C 0.73164 0.91491 0.7995 0.0
C387 C 0.7416 0.84235 0.86746 0.0
C388 C 0.71715 0.96621 0.62842 0.0
C389 C 0.72136 0.95416 0.66997 0.0
C390 C 0.71769 0.89774 0.71156 0.0
C391 C 0.7419 0.87757 0.8283 0.0
C392 C 0.73273 0.89241 0.79159 0.0
C393 C 0.71 0.93481 0.67904 0.0
C394 C 0.71675 0.92028 0.71904 0.0
H395 H 0.78675 0.87112 0.89864 0.0
H396 H 0.76966 0.89776 0.84532 0.0
H397 H 0.72656 0.86676 0.73988 0.0
H398 H 0.67719 0.93473 0.58016 0.0
H399 H 0.6841 0.91391 0.65343 0.0
C400 C 0.83305 0.76839 0.82853 0.0
C401 C 0.83913 0.78216 0.86664 0.0
C402 C 0.84803 0.76216 0.79386 0.0
C403 C 0.90597 0.75564 0.77043 0.0
H404 H 0.88701 0.7556 0.63716 0.0
C405 C 0.96281 0.73887 0.60864 0.0
C406 C 0.95427 0.72649 0.57054 0.0
C407 C 0.94965 0.74517 0.64699 0.0
C408 C 0.89246 0.75526 0.67425 0.0
H409 H 0.86594 0.79997 0.8983 0.0
H410 H 0.89228 0.78903 0.83698 0.0
H411 H 0.86268 0.76872 0.69949 0.0
H412 H 0.9256 0.71007 0.54389 0.0
H413 H 0.90259 0.721 0.611 0.0
H414 H 0.9358 0.74207 0.7449 0.0
C415 C 0.87581 0.78308 0.83446 0.0
C416 C 0.87856 0.76285 0.70991 0.0
C417 C 0.86071 0.78942 0.86935 0.0
C418 C 0.93252 0.71989 0.5724 0.0
C419 C 0.91937 0.72618 0.61074 0.0
C420 C 0.91993 0.74801 0.73461 0.0
C421 C 0.86951 0.7695 0.79622 0.0
C422 C 0.88505 0.76287 0.75842 0.0
C423 C 0.92768 0.73925 0.64793 0.0
C424 C 0.91319 0.74752 0.68623 0.0
H425 H 0.81663 0.76233 0.82526 0.0
H426 H 0.84279 0.75137 0.76532 0.0
H427 H 0.9113 0.75531 0.8076 0.0
H428 H 0.97946 0.74445 0.60789 0.0
H429 H 0.95646 0.7554 0.6749 0.0
C430 C 0.7325 0.34273 0.34559 0.0
C431 C 0.71584 0.34618 0.37923 0.0
C432 C 0.73933 0.35942 0.31548 0.0
C433 C 0.72099 0.40971 0.25943 0.0
H434 H 0.78181 0.4147 0.22605 0.0
C435 C 0.78103 0.46154 0.12409 0.0
C436 C 0.76858 0.46009 0.08179 0.0
C437 C 0.7746 0.45059 0.16577 0.0
C438 C 0.76481 0.4138 0.23545 0.0
H439 H 0.69345 0.37009 0.40779 0.0
H440 H 0.70545 0.39941 0.35462 0.0
H441 H 0.77092 0.39067 0.29126 0.0
H442 H 0.73935 0.44653 0.05038 0.0
H443 H 0.72852 0.42696 0.12241 0.0
H444 H 0.71487 0.43272 0.20328 0.0
C445 C 0.7131 0.38363 0.35174 0.0
C446 C 0.75855 0.39986 0.27248 0.0
C447 C 0.70627 0.36687 0.3822 0.0
C448 C 0.74949 0.44767 0.08216 0.0
C449 C 0.74308 0.43675 0.12371 0.0
C450 C 0.72725 0.42368 0.22238 0.0
C451 C 0.72972 0.38004 0.31809 0.0
C452 C 0.73652 0.3972 0.28393 0.0
C453 C 0.75557 0.43804 0.16597 0.0
C454 C 0.74918 0.42543 0.20914 0.0
H455 H 0.74032 0.32706 0.34221 0.0
H456 H 0.75187 0.356 0.28933 0.0
H457 H 0.70389 0.40795 0.26732 0.0
H458 H 0.79586 0.47094 0.12483 0.0
H459 H 0.7845 0.45199 0.19786 0.0
C460 C 0.12368 0.20114 0.8834 0.0
C461 C 0.14409 0.21103 0.87785 0.0
C462 C 0.10591 0.20818 0.85604 0.0
C463 C 0.08702 0.25501 0.78345 0.0
H464 H 0.05335 0.21262 0.71225 0.0
C465 C 0.04936 0.27224 0.60003 0.0
C466 C 0.02858 0.26433 0.58962 0.0
C467 C 0.05938 0.26714 0.64358 0.0
C468 C 0.06229 0.22464 0.73267 0.0
H469 H 0.16169 0.23609 0.83904 0.0
H470 H 0.13105 0.24801 0.79161 0.0
H471 H 0.07875 0.20039 0.7743 0.0
H472 H 0.00171 0.24522 0.61641 0.0
H473 H 0.01954 0.23588 0.69282 0.0
H474 H 0.07146 0.27915 0.74007 0.0
C475 C 0.12861 0.23509 0.81752 0.0
C476 C 0.07681 0.21765 0.76817 0.0
C477 C 0.14628 0.22805 0.84447 0.0
C478 C 0.01773 0.25159 0.62391 0.0
C479 C 0.02792 0.24618 0.66733 0.0
C480 C 0.07264 0.26195 0.74789 0.0
C481 C 0.10822 0.22534 0.82306 0.0
C482 C 0.08992 0.23274 0.79255 0.0
C483 C 0.04891 0.2538 0.67733 0.0
C484 C 0.06074 0.24679 0.72099 0.0
H485 H 0.12142 0.18802 0.90885 0.0
H486 H 0.09035 0.20036 0.86097 0.0
H487 H 0.09656 0.26703 0.80248 0.0
H488 H 0.05797 0.28216 0.57414 0.0
H489 H 0.07568 0.273 0.65009 0.0
C490 C 0.27689 0.62553 0.38698 0.0
C491 C 0.26866 0.64683 0.38805 0.0
C492 C 0.2684 0.61026 0.35459 0.0
C493 C 0.24004 0.60855 0.23841 0.0
H494 H 0.22653 0.54876 0.27005 0.0
C495 C 0.19596 0.55498 0.10269 0.0
C496 C 0.20461 0.53418 0.09521 0.0
C497 C 0.20227 0.56723 0.14255 0.0
C498 C 0.23038 0.56539 0.26069 0.0
H499 H 0.24419 0.66834 0.35788 0.0
H500 H 0.22953 0.6419 0.30228 0.0
H501 H 0.24137 0.57285 0.33222 0.0
H502 H 0.22587 0.50945 0.12462 0.0
H503 H 0.23707 0.53096 0.19422 0.0
H504 H 0.22938 0.6013 0.16713 0.0
C505 C 0.24284 0.63708 0.32547 0.0
C506 C 0.23889 0.57912 0.29619 0.0
C507 C 0.25126 0.65224 0.35751 0.0
C508 C 0.21882 0.5254 0.12973 0.0
C509 C 0.22523 0.53771 0.16956 0.0
C510 C 0.23161 0.5949 0.20313 0.0
C511 C 0.25157 0.61609 0.32286 0.0
C512 C 0.24356 0.60092 0.28544 0.0
C513 C 0.2175 0.559 0.17561 0.0
C514 C 0.22644 0.57324 0.21389 0.0
H515 H 0.29022 0.62082 0.4102 0.0
H516 H 0.27544 0.59416 0.35327 0.0
H517 H 0.24395 0.62514 0.22875 0.0
H518 H 0.18473 0.562 0.07699 0.0
H519 H 0.19563 0.5834 0.14683 0.0
C520 C 0.3661 0.70517 0.61716 0.0
C521 C 0.34513 0.71378 0.62267 0.0
C522 C 0.38316 0.71253 0.64628 0.0
C523 C 0.39858 0.75839 0.72582 0.0
H524 H 0.43513 0.71621 0.7904 0.0
C525 C 0.43962 0.77444 0.90752 0.0
C526 C 0.46074 0.76666 0.91498 0.0
C527 C 0.42856 0.76963 0.86498 0.0
C528 C 0.42532 0.72823 0.77198 0.0
H529 H 0.32573 0.73687 0.66332 0.0
H530 H 0.35512 0.74926 0.71381 0.0
H531 H 0.4102 0.70422 0.72739 0.0
H532 H 0.48703 0.74806 0.88369 0.0
H533 H 0.4676 0.73958 0.80918 0.0
H534 H 0.41302 0.78223 0.77182 0.0
C535 C 0.35858 0.73717 0.68657 0.0
C536 C 0.41108 0.72137 0.73587 0.0
C537 C 0.34164 0.72985 0.65778 0.0
C538 C 0.4708 0.7544 0.87865 0.0
C539 C 0.45966 0.74942 0.83625 0.0
C540 C 0.4127 0.76521 0.76201 0.0
C541 C 0.37954 0.72869 0.68113 0.0
C542 C 0.39708 0.73629 0.71351 0.0
C543 C 0.43836 0.7568 0.82925 0.0
C544 C 0.42576 0.75011 0.78637 0.0
H545 H 0.36936 0.69282 0.59039 0.0
H546 H 0.39919 0.70572 0.64129 0.0
H547 H 0.38832 0.77034 0.70845 0.0
H548 H 0.43156 0.78401 0.93487 0.0
H549 H 0.41206 0.77533 0.86076 0.0
C550 C 0.77461 0.84149 0.17109 0.0
C551 C 0.77672 0.84676 0.12219 0.0
C552 C 0.76529 0.85611 0.2031 0.0
C553 C 0.7494 0.91345 0.22056 0.0
H554 H 0.7137 0.8876 0.32013 0.0
C555 C 0.70083 0.96002 0.37074 0.0
C556 C 0.70876 0.95443 0.41674 0.0
C557 C 0.70709 0.94815 0.33007 0.0
C558 C 0.72346 0.89501 0.29222 0.0
H559 H 0.77142 0.87177 0.06855 0.0
H560 H 0.75455 0.8974 0.1247 0.0
H561 H 0.72881 0.86471 0.25707 0.0
H562 H 0.73002 0.93218 0.45526 0.0
H563 H 0.73978 0.91097 0.38496 0.0
H564 H 0.74377 0.94385 0.25644 0.0
C565 C 0.76039 0.88199 0.1383 0.0
C566 C 0.73232 0.88194 0.2564 0.0
C567 C 0.77006 0.86736 0.10618 0.0
C568 C 0.72296 0.93662 0.42093 0.0
C569 C 0.72879 0.92457 0.38061 0.0
C570 C 0.74022 0.92662 0.25619 0.0
C571 C 0.75747 0.87628 0.18694 0.0
C572 C 0.74602 0.89085 0.22111 0.0
C573 C 0.72101 0.93028 0.33494 0.0
C574 C 0.72771 0.91734 0.29296 0.0
H575 H 0.77992 0.82585 0.18459 0.0
H576 H 0.76402 0.85145 0.24059 0.0
H577 H 0.7599 0.92082 0.19398 0.0
H578 H 0.68972 0.97347 0.3661 0.0
H579 H 0.70088 0.95272 0.295 0.0
C580 C 0.63021 0.28144 0.62197 0.0
C581 C 0.65118 0.2725 0.62064 0.0
C582 C 0.61495 0.27378 0.65515 0.0
C583 C 0.61265 0.24649 0.77245 0.0
H584 H 0.55235 0.23558 0.74136 0.0
C585 C 0.55615 0.20742 0.91041 0.0
C586 C 0.53568 0.21706 0.9159 0.0
C587 C 0.56913 0.21266 0.87102 0.0
C588 C 0.56912 0.23871 0.7506 0.0
H589 H 0.67216 0.24777 0.65166 0.0
H590 H 0.64568 0.23453 0.70877 0.0
H591 H 0.57702 0.24838 0.67852 0.0
H592 H 0.51249 0.23927 0.88386 0.0
H593 H 0.53524 0.24856 0.81522 0.0
H594 H 0.60492 0.23718 0.84438 0.0
C595 C 0.64113 0.24772 0.68498 0.0
C596 C 0.58319 0.24606 0.71469 0.0
C597 C 0.6563 0.25532 0.65205 0.0
C598 C 0.52811 0.2314 0.88027 0.0
C599 C 0.54113 0.23672 0.84095 0.0
C600 C 0.59864 0.23923 0.80821 0.0
C601 C 0.62044 0.25709 0.68751 0.0
C602 C 0.60514 0.24987 0.72527 0.0
C603 C 0.56198 0.22775 0.83646 0.0
C604 C 0.57675 0.23512 0.79771 0.0
H605 H 0.62572 0.29464 0.59817 0.0
H606 H 0.59911 0.28134 0.65646 0.0
H607 H 0.62939 0.24972 0.78192 0.0
H608 H 0.56225 0.19607 0.93701 0.0
H609 H 0.58494 0.20513 0.86803 0.0
C610 C 0.21742 0.12552 0.11 0.0
C611 C 0.22434 0.14728 0.10965 0.0
C612 C 0.2267 0.11062 0.14214 0.0
C613 C 0.25528 0.10979 0.25842 0.0
H614 H 0.26987 0.05034 0.22586 0.0
C615 C 0.29905 0.0559 0.39441 0.0
C616 C 0.29019 0.03516 0.40141 0.0
C617 C 0.29312 0.06828 0.35443 0.0
C618 C 0.26576 0.06688 0.23545 0.0
H619 H 0.24729 0.17008 0.14082 0.0
H620 H 0.26344 0.14421 0.1959 0.0
H621 H 0.25473 0.07439 0.16403 0.0
H622 H 0.26896 0.01067 0.37097 0.0
H623 H 0.25849 0.03236 0.30115 0.0
H624 H 0.26599 0.10243 0.32965 0.0
C625 C 0.2505 0.13874 0.17243 0.0
C626 C 0.25706 0.0806 0.20014 0.0
C627 C 0.24124 0.15357 0.14069 0.0
C628 C 0.2762 0.02655 0.36626 0.0
C629 C 0.27019 0.03897 0.32629 0.0
C630 C 0.26395 0.09615 0.2935 0.0
C631 C 0.24307 0.11723 0.17428 0.0
C632 C 0.25187 0.10225 0.21128 0.0
C633 C 0.2781 0.06021 0.32074 0.0
C634 C 0.26941 0.07459 0.28244 0.0
H635 H 0.2045 0.12015 0.08641 0.0
H636 H 0.22061 0.09413 0.14288 0.0
H637 H 0.25098 0.12623 0.26846 0.0
H638 H 0.31013 0.06279 0.42058 0.0
H639 H 0.29985 0.08442 0.35056 0.0
C640 C 0.20482 0.29323 0.03462 0.0
C641 C 0.19993 0.2809 0.99348 0.0
C642 C 0.20088 0.31552 0.03536 0.0
C643 C 0.19244 0.36236 0.9543 0.0
H644 H 0.17637 0.39093 0.07347 0.0
C645 C 0.17842 0.45501 0.96903 0.0
C646 C 0.19105 0.46497 0.00504 0.0
C647 C 0.17635 0.43244 0.96736 0.0
C648 C 0.1808 0.38311 0.03996 0.0
H649 H 0.18654 0.28218 0.92125 0.0
H650 H 0.17912 0.32104 0.92298 0.0
H651 H 0.17814 0.35138 0.07043 0.0
H652 H 0.21128 0.45884 0.06773 0.0
H653 H 0.20701 0.41959 0.06559 0.0
H654 H 0.195 0.39424 0.924 0.0
C655 C 0.18651 0.31358 0.95427 0.0
C656 C 0.18195 0.3605 0.03822 0.0
C657 C 0.1907 0.29129 0.95332 0.0
C658 C 0.20106 0.45183 0.04007 0.0
C659 C 0.19871 0.42933 0.0388 0.0
C660 C 0.19099 0.38497 0.95591 0.0
C661 C 0.19168 0.32599 0.9952 0.0
C662 C 0.18829 0.34987 0.99568 0.0
C663 C 0.18657 0.41943 0.00212 0.0
C664 C 0.18562 0.39553 -0.00098 0.0
H665 H 0.21207 0.28575 0.06606 0.0
H666 H 0.2055 0.32461 0.06713 0.0
H667 H 0.19764 0.35477 0.92112 0.0
H668 H 0.17017 0.46464 0.94199 0.0
H669 H 0.16678 0.42513 0.93892 0.0
C670 C 0.19968 0.70466 0.46223 0.0
C671 C 0.21044 0.7136 0.50219 0.0
C672 C 0.17722 0.7023 0.46242 0.0
C673 C 0.1299 0.70127 0.54445 0.0
H674 H 0.09788 0.71283 0.42689 0.0
C675 C 0.03826 0.71932 0.53493 0.0
C676 C 0.02638 0.7093 0.49781 0.0
C677 C 0.06069 0.71684 0.53756 0.0
C678 C 0.10667 0.70926 0.45977 0.0
H679 H 0.20612 0.72737 0.57339 0.0
H680 H 0.1668 0.724 0.57303 0.0
H681 H 0.13724 0.71544 0.42674 0.0
H682 H 0.0286 0.68786 0.436 0.0
H683 H 0.06797 0.68409 0.43992 0.0
H684 H 0.09903 0.696 0.57773 0.0
C685 C 0.17576 0.71823 0.54209 0.0
C686 C 0.1292 0.71072 0.45974 0.0
C687 C 0.19827 0.72034 0.54216 0.0
C688 C 0.03734 0.69613 0.46444 0.0
C689 C 0.05981 0.69388 0.46676 0.0
C690 C 0.10732 0.70008 0.54459 0.0
C691 C 0.165 0.70908 0.50231 0.0
C692 C 0.14108 0.70687 0.50214 0.0
C693 C 0.07167 0.70451 0.50286 0.0
C694 C 0.09555 0.70418 0.50229 0.0
H695 H 0.20865 0.69905 0.43112 0.0
H696 H 0.1695 0.69484 0.43153 0.0
H697 H 0.13858 0.69779 0.57749 0.0
H698 H 0.03039 0.72984 0.56077 0.0
H699 H 0.06955 0.72539 0.56542 0.0
C700 C 0.78219 0.70036 0.03968 0.0
C701 C 0.78771 0.71295 -0.00059 0.0
C702 C 0.78582 0.67801 0.03972 0.0
C703 C 0.79472 0.63189 0.95697 0.0
H704 H 0.80834 0.60179 0.07596 0.0
C705 C 0.80522 0.53882 0.96778 0.0
C706 C 0.79099 0.52918 0.00105 0.0
C707 C 0.80869 0.56123 0.9682 0.0
C708 C 0.80466 0.61005 0.04248 0.0
H709 H 0.80195 0.71213 0.92808 0.0
H710 H 0.80887 0.6732 0.92865 0.0
H711 H 0.80743 0.6414 0.07478 0.0
H712 H 0.76954 0.53567 0.06135 0.0
H713 H 0.77627 0.57453 0.063 0.0
H714 H 0.792 0.60039 0.92487 0.0
C715 C 0.80118 0.68047 0.95973 0.0
C716 C 0.80397 0.63269 0.0418 0.0
C717 C 0.79726 0.7028 0.95943 0.0
C718 C 0.78096 0.54238 0.03583 0.0
C719 C 0.78472 0.56468 0.03672 0.0
C720 C 0.79574 0.60926 0.95754 0.0
C721 C 0.79537 0.66778 -0.00024 0.0
C722 C 0.79844 0.64387 -0.00068 0.0
C723 C 0.7983 0.57433 0.00243 0.0
C724 C 0.80021 0.59817 0.00054 0.0
H725 H 0.77469 0.7077 0.07094 0.0
H726 H 0.7807 0.66871 0.07076 0.0
H727 H 0.79013 0.63989 0.92378 0.0
H728 H 0.81352 0.5291 0.94107 0.0
H729 H 0.81933 0.56837 0.94158 0.0
C730 C 0.79546 0.28357 0.45199 0.0
C731 C 0.78328 0.28878 0.49302 0.0
C732 C 0.81771 0.28758 0.4509 0.0
C733 C 0.86422 0.29644 0.53246 0.0
H734 H 0.89371 0.30994 0.41297 0.0
C735 C 0.95704 0.30328 0.52168 0.0
C736 C 0.96588 0.28866 0.48809 0.0
C737 C 0.93496 0.30824 0.52074 0.0
C738 C 0.88562 0.30634 0.44661 0.0
H739 H 0.78463 0.30309 0.56434 0.0
H740 H 0.8233 0.31067 0.56193 0.0
H741 H 0.85414 0.30938 0.41502 0.0
H742 H 0.9584 0.26839 0.4262 0.0
H743 H 0.92017 0.27761 0.42383 0.0
H744 H 0.89576 0.29327 0.56382 0.0
C745 C 0.81585 0.30288 0.53113 0.0
C746 C 0.86301 0.30584 0.44777 0.0
C747 C 0.79367 0.29856 0.53249 0.0
C748 C 0.95233 0.28001 0.4521 0.0
C749 C 0.93037 0.28524 0.45075 0.0
C750 C 0.8868 0.29725 0.53141 0.0
C751 C 0.8282 0.29721 0.49054 0.0
C752 C 0.85206 0.30029 0.49042 0.0
C753 C 0.9214 0.29896 0.48572 0.0
C754 C 0.89767 0.30165 0.48822 0.0
H755 H 0.78789 0.27597 0.42106 0.0
H756 H 0.82675 0.28262 0.41939 0.0
H757 H 0.8564 0.29181 0.56577 0.0
H758 H 0.96709 0.31056 0.5493 0.0
H759 H 0.92837 0.31899 0.5479 0.0
C760 C 0.70613 0.20071 0.54039 0.0
C761 C 0.71508 0.21149 0.50059 0.0
C762 C 0.70361 0.1782 0.53988 0.0
C763 C 0.7022 0.13125 0.45574 0.0
H764 H 0.70954 0.09798 0.57322 0.0
C765 C 0.71247 0.03799 0.4637 0.0
C766 C 0.69906 0.02697 0.49654 0.0
C767 C 0.7131 0.06063 0.46302 0.0
C768 C 0.70728 0.10715 0.54029 0.0
H769 H 0.72906 0.20718 0.42968 0.0
H770 H 0.72559 0.16784 0.42957 0.0
H771 H 0.71433 0.13726 0.57501 0.0
H772 H 0.67531 0.03124 0.55338 0.0
H773 H 0.67715 0.07085 0.55326 0.0
H774 H 0.69601 0.10082 0.42091 0.0
C775 C 0.71976 0.17676 0.46053 0.0
C776 C 0.70993 0.12964 0.54126 0.0
C777 C 0.72192 0.1993 0.46071 0.0
C778 C 0.68611 0.03917 0.52823 0.0
C779 C 0.68705 0.06181 0.52808 0.0
C780 C 0.69993 0.10872 0.45467 0.0
C781 C 0.71034 0.16593 0.49987 0.0
C782 C 0.70743 0.14199 0.49897 0.0
C783 C 0.70064 0.07267 0.49566 0.0
C784 C 0.70244 0.09653 0.49693 0.0
H785 H 0.7005 0.20974 0.57143 0.0
H786 H 0.69596 0.17049 0.57048 0.0
H787 H 0.69967 0.14024 0.4227 0.0
H788 H 0.723 0.02918 0.43945 0.0
H789 H 0.72387 0.06873 0.43803 0.0
C790 C 0.29126 0.22331 0.95618 0.0
C791 C 0.27929 0.21596 0.9959 0.0
C792 C 0.31385 0.22196 0.9563 0.0
C793 C 0.36088 0.21452 0.03813 0.0
H794 H 0.39076 0.20026 0.91953 0.0
C795 C 0.45228 0.19527 0.03076 0.0
C796 C 0.46397 0.20759 0.99699 0.0
C797 C 0.42966 0.19508 0.02985 0.0
C798 C 0.38258 0.20429 0.95282 0.0
H799 H 0.28157 0.20123 0.06674 0.0
H800 H 0.32082 0.19831 0.06639 0.0
H801 H 0.35128 0.2026 0.91996 0.0
H802 H 0.46094 0.22921 0.93551 0.0
H803 H 0.42151 0.22826 0.93317 0.0
H804 H 0.39228 0.21579 0.071 0.0
C805 C 0.31288 0.20567 0.03565 0.0
C806 C 0.36001 0.20579 0.95308 0.0
C807 C 0.29035 0.20728 0.03579 0.0
C808 C 0.45252 0.21921 0.9615 0.0
C809 C 0.42993 0.21877 0.96022 0.0
C810 C 0.38342 0.21274 0.03797 0.0
C811 C 0.32492 0.21296 0.99589 0.0
C812 C 0.3489 0.21107 0.99568 0.0
C813 C 0.41833 0.20695 0.99478 0.0
C814 C 0.39444 0.20776 0.99526 0.0
H815 H 0.2832 0.23019 0.92502 0.0
H816 H 0.32262 0.22811 0.92546 0.0
H817 H 0.35291 0.219 0.07138 0.0
H818 H 0.46059 0.18584 0.05804 0.0
H819 H 0.42101 0.18567 0.05657 0.0
C820 C 0.28306 0.7936 0.46212 0.0
C821 C 0.28792 0.78135 0.5034 0.0
C822 C 0.28694 0.81591 0.46124 0.0
C823 C 0.29567 0.86291 0.54191 0.0
H824 H 0.31281 0.89101 0.42293 0.0
C825 C 0.31295 0.95498 0.52795 0.0
C826 C 0.30095 0.96549 0.49163 0.0
C827 C 0.31409 0.93233 0.5295 0.0
C828 C 0.30806 0.88332 0.45637 0.0
H829 H 0.30112 0.78279 0.5758 0.0
H830 H 0.30843 0.82163 0.57381 0.0
H831 H 0.30996 0.85152 0.42597 0.0
H832 H 0.28086 0.9603 0.42833 0.0
H833 H 0.2835 0.92091 0.43032 0.0
H834 H 0.29393 0.89485 0.57219 0.0
C835 C 0.3011 0.81412 0.54252 0.0
C836 C 0.30629 0.86075 0.45811 0.0
C837 C 0.29697 0.79183 0.54362 0.0
C838 C 0.29062 0.95283 0.45623 0.0
C839 C 0.29204 0.93025 0.45742 0.0
C840 C 0.29773 0.88547 0.5403 0.0
C841 C 0.29603 0.82645 0.50139 0.0
C842 C 0.29965 0.85029 0.50063 0.0
C843 C 0.30355 0.91981 0.49437 0.0
C844 C 0.30355 0.89587 0.49729 0.0
H845 H 0.27595 0.78603 0.43064 0.0
H846 H 0.28241 0.82494 0.4293 0.0
H847 H 0.29023 0.85547 0.57507 0.0
H848 H 0.32141 0.96422 0.5553 0.0
H849 H 0.3232 0.9246 0.55815 0.0
C850 C 0.69838 0.77457 0.97893 0.0
C851 C 0.71143 0.78113 0.01777 0.0
C852 C 0.67605 0.77762 0.98024 0.0
C853 C 0.63016 0.78651 0.06167 0.0
H854 H 0.60154 0.80323 0.94274 0.0
C855 C 0.53718 0.79624 0.0447 0.0
C856 C 0.52834 0.78346 0.00753 0.0
C857 C 0.5595 0.79977 0.04734 0.0
C858 C 0.60935 0.79867 0.97622 0.0
H859 H 0.71122 0.79569 0.08894 0.0
H860 H 0.67201 0.80119 0.091 0.0
H861 H 0.641 0.80192 0.94614 0.0
H862 H 0.53606 0.76462 0.94372 0.0
H863 H 0.57482 0.77135 0.94766 0.0
H864 H 0.59833 0.78302 0.09138 0.0
C865 C 0.67915 0.79353 0.05972 0.0
C866 C 0.63189 0.79779 0.97815 0.0
C867 C 0.70158 0.79036 0.05853 0.0
C868 C 0.54222 0.77489 0.97227 0.0
C869 C 0.56444 0.77867 0.97457 0.0
C870 C 0.60756 0.78757 0.05982 0.0
C871 C 0.66622 0.78745 0.02025 0.0
C872 C 0.6425 0.79103 0.02042 0.0
C873 C 0.57329 0.79087 0.01246 0.0
C874 C 0.59701 0.79305 0.01666 0.0
H875 H 0.70541 0.7672 0.94718 0.0
H876 H 0.66646 0.77222 0.9498 0.0
H877 H 0.63787 0.78116 0.09466 0.0
H878 H 0.52688 0.80339 0.07196 0.0
H879 H 0.56601 0.80935 0.07671 0.0
loop_
_geom_bond_atom_site_label_1
_geom_bond_atom_site_label_2
_geom_bond_distance
_geom_bond_site_symmetry_2
_ccdc_geom_bond_type
Sc0 O3 2.031 . S
Sc0 O10 2.105 . S
Sc0 O13 2.105 . S
Sc0 O16 2.105 . S
Sc0 O19 2.105 . S
Sc1 O3 2.025 . S
Sc1 O11 2.110 . S
Sc1 O15 2.100 1_554 S
Sc1 O17 2.110 . S
Sc1 O21 2.100 1_554 S
Sc2 O3 2.019 1_556 S
Sc2 O12 2.105 . S
Sc2 O14 2.105 . S
Sc2 O18 2.105 . S
Sc2 O20 2.105 . S
O3 Sc0 2.031 . S
O3 Sc1 2.025 . S
O3 Sc2 2.019 1_554 S
C4 O10 1.273 . S
C4 O20 1.263 1_554 S
C5 O11 1.268 . S
C5 O19 1.268 . S
C6 O12 1.268 . S
C6 O21 1.268 . S
C7 O13 1.268 . S
C7 O17 1.268 . S
C8 O14 1.261 1_554 S
C8 O16 1.275 . S
C9 O15 1.268 . S
C9 O18 1.268 . S
O10 Sc0 2.105 . S
O10 C4 1.273 . S
O11 Sc1 2.110 . S
O11 C5 1.268 . S
O12 Sc2 2.105 . S
O12 C6 1.268 . S
O13 Sc0 2.105 . S
O13 C7 1.268 . S
O14 Sc2 2.105 . S
O14 C8 1.261 1_556 S
O15 Sc1 2.100 1_556 S
O15 C9 1.268 . S
O16 Sc0 2.105 . S
O16 C8 1.275 . S
O17 Sc1 2.110 . S
O17 C7 1.268 . S
O18 Sc2 2.105 . S
O18 C9 1.268 . S
O19 Sc0 2.105 . S
O19 C5 1.268 . S
O20 Sc2 2.105 . S
O20 C4 1.263 1_556 S
O21 Sc1 2.100 1_556 S
O21 C6 1.268 . S
Sc22 O25 2.025 . S
Sc22 O32 2.105 . S
Sc22 O35 2.105 . S
Sc22 O38 2.105 . S
Sc22 O41 2.105 . S
Sc23 O25 2.025 . S
Sc23 O33 2.105 . S
Sc23 O37 2.105 . S
Sc23 O39 2.105 . S
Sc23 O43 2.105 . S
Sc24 O25 2.025 . S
Sc24 O34 2.105 . S
Sc24 O36 2.105 . S
Sc24 O40 2.105 . S
Sc24 O42 2.105 . S
O25 Sc22 2.025 . S
O25 Sc23 2.025 . S
O25 Sc24 2.025 . S
C26 O32 1.268 . S
C26 O42 1.268 . S
C27 O33 1.268 . S
C27 O41 1.268 . S
C28 O34 1.268 . S
C28 O43 1.268 . S
C29 O35 1.268 . S
C29 O39 1.268 . S
C30 O36 1.268 . S
C30 O38 1.268 . S
C31 O37 1.268 . S
C31 O40 1.268 . S
O32 Sc22 2.105 . S
O32 C26 1.268 . S
O33 Sc23 2.105 . S
O33 C27 1.268 . S
O34 Sc24 2.105 . S
O34 C28 1.268 . S
O35 Sc22 2.105 . S
O35 C29 1.268 . S
O36 Sc24 2.105 . S
O36 C30 1.268 . S
O37 Sc23 2.105 . S
O37 C31 1.268 . S
O38 Sc22 2.105 . S
O38 C30 1.268 . S
O39 Sc23 2.105 . S
O39 C29 1.268 . S
O40 Sc24 2.105 . S
O40 C31 1.268 . S
O41 Sc22 2.105 . S
O41 C27 1.268 . S
O42 Sc24 2.105 . S
O42 C26 1.268 . S
O43 Sc23 2.105 . S
O43 C28 1.268 . S
Sc44 O47 2.019 1_556 S
Sc44 O54 2.105 . S
Sc44 O57 2.105 . S
Sc44 O60 2.105 . S
Sc44 O63 2.105 . S
Sc45 O47 2.025 . S
Sc45 O55 2.100 1_554 S
Sc45 O59 2.110 . S
Sc45 O61 2.100 1_554 S
Sc45 O65 2.110 . S
Sc46 O47 2.031 . S
Sc46 O56 2.105 . S
Sc46 O58 2.105 . S
Sc46 O62 2.105 . S
Sc46 O64 2.105 . S
O47 Sc44 2.019 1_554 S
O47 Sc45 2.025 . S
O47 Sc46 2.031 . S
C48 O54 1.263 1_554 S
C48 O64 1.273 . S
C49 O55 1.268 . S
C49 O63 1.268 . S
C50 O56 1.268 . S
C50 O65 1.268 . S
C51 O57 1.268 . S
C51 O61 1.268 . S
C52 O58 1.275 . S
C52 O60 1.261 1_554 S
C53 O59 1.268 . S
C53 O62 1.268 . S
O54 Sc44 2.105 . S
O54 C48 1.263 1_556 S
O55 Sc45 2.100 1_556 S
O55 C49 1.268 . S
O56 Sc46 2.105 . S
O56 C50 1.268 . S
O57 Sc44 2.105 . S
O57 C51 1.268 . S
O58 Sc46 2.105 . S
O58 C52 1.275 . S
O59 Sc45 2.110 . S
O59 C53 1.268 . S
O60 Sc44 2.105 . S
O60 C52 1.261 1_556 S
O61 Sc45 2.100 1_556 S
O61 C51 1.268 . S
O62 Sc46 2.105 . S
O62 C53 1.268 . S
O63 Sc44 2.105 . S
O63 C49 1.268 . S
O64 Sc46 2.105 . S
O64 C48 1.273 . S
O65 Sc45 2.110 . S
O65 C50 1.268 . S
Sc66 O69 2.025 . S
Sc66 O76 2.105 . S
Sc66 O79 2.105 . S
Sc66 O82 2.105 . S
Sc66 O85 2.105 . S
Sc67 O69 2.025 . S
Sc67 O77 2.105 . S
Sc67 O81 2.105 . S
Sc67 O83 2.105 . S
Sc67 O87 2.105 . S
Sc68 O69 2.025 . S
Sc68 O78 2.105 . S
Sc68 O80 2.105 . S
Sc68 O84 2.105 . S
Sc68 O86 2.105 . S
O69 Sc66 2.025 . S
O69 Sc67 2.025 . S
O69 Sc68 2.025 . S
C70 O76 1.268 . S
C70 O86 1.268 . S
C71 O77 1.268 . S
C71 O85 1.268 . S
C72 O78 1.268 . S
C72 O87 1.268 . S
C73 O79 1.268 . S
C73 O83 1.268 . S
C74 O80 1.268 . S
C74 O82 1.268 . S
C75 O81 1.268 . S
C75 O84 1.268 . S
O76 Sc66 2.105 . S
O76 C70 1.268 . S
O77 Sc67 2.105 . S
O77 C71 1.268 . S
O78 Sc68 2.105 . S
O78 C72 1.268 . S
O79 Sc66 2.105 . S
O79 C73 1.268 . S
O80 Sc68 2.105 . S
O80 C74 1.268 . S
O81 Sc67 2.105 . S
O81 C75 1.268 . S
O82 Sc66 2.105 . S
O82 C74 1.268 . S
O83 Sc67 2.105 . S
O83 C73 1.268 . S
O84 Sc68 2.105 . S
O84 C75 1.268 . S
O85 Sc66 2.105 . S
O85 C71 1.268 . S
O86 Sc68 2.105 . S
O86 C70 1.268 . S
O87 Sc67 2.105 . S
O87 C72 1.268 . S
H88 C91 0.931 . S
H89 C94 0.928 . S
H90 C96 0.930 . S
C91 H88 0.931 . S
C91 C92 1.403 1_556 S
C91 C93 1.370 . S
C92 C91 1.403 1_554 S
C92 C96 1.429 . S
C93 C91 1.370 . S
C93 C94 1.372 . S
C94 H89 0.928 . S
C94 C93 1.372 . S
C94 C95 1.402 . S
C95 C94 1.402 . S
C95 C96 1.392 1_556 S
C96 H90 0.930 . S
C96 C92 1.429 . S
C96 C95 1.392 1_554 S
H97 C100 0.931 . S
H98 C103 0.928 . S
H99 C105 0.928 . S
C100 H97 0.931 . S
C100 C101 1.413 . S
C100 C102 1.360 . S
C101 C100 1.413 . S
C101 C105 1.429 . S
C102 C100 1.360 . S
C102 C103 1.372 . S
C103 H98 0.928 . S
C103 C102 1.372 . S
C103 C104 1.404 1_655 S
C104 C103 1.404 1_455 S
C104 C105 1.391 1_455 S
C105 H99 0.928 . S
C105 C101 1.429 . S
C105 C104 1.391 1_655 S
H106 C109 0.931 . S
H107 C112 0.928 . S
H108 C114 0.930 . S
C109 H106 0.931 . S
C109 C110 1.413 1_554 S
C109 C111 1.360 . S
C110 C109 1.413 1_556 S
C110 C114 1.429 . S
C111 C109 1.360 . S
C111 C112 1.372 . S
C112 H107 0.928 . S
C112 C111 1.372 . S
C112 C113 1.418 . S
C113 C112 1.418 . S
C113 C114 1.376 1_554 S
C114 H108 0.930 . S
C114 C110 1.429 . S
C114 C113 1.376 1_556 S
H115 C118 0.931 . S
H116 C121 0.928 . S
H117 C123 0.934 . S
C118 H115 0.931 . S
C118 C119 1.413 . S
C118 C120 1.360 . S
C119 C118 1.413 . S
C119 C123 1.429 . S
C120 C118 1.360 . S
C120 C121 1.372 . S
C121 H116 0.928 . S
C121 C120 1.372 . S
C121 C122 1.404 1_455 S
C122 C121 1.404 1_655 S
C122 C123 1.391 1_655 S
C123 H117 0.934 . S
C123 C119 1.429 . S
C123 C122 1.391 1_455 S
H124 C127 0.931 . S
H125 C130 0.928 . S
H126 C132 0.928 . S
C127 H124 0.931 . S
C127 C128 1.413 . S
C127 C129 1.360 . S
C128 C127 1.413 . S
C128 C132 1.429 . S
C129 C127 1.360 . S
C129 C130 1.372 . S
C130 H125 0.928 . S
C130 C129 1.372 . S
C130 C131 1.404 1_565 S
C131 C130 1.404 1_545 S
C131 C132 1.391 1_545 S
C132 H126 0.928 . S
C132 C128 1.429 . S
C132 C131 1.391 1_565 S
H133 C136 0.931 . S
H134 C139 0.928 . S
H135 C141 0.930 . S
C136 H133 0.931 . S
C136 C137 1.413 1_554 S
C136 C138 1.360 . S
C137 C136 1.413 1_556 S
C137 C141 1.429 . S
C138 C136 1.360 . S
C138 C139 1.372 . S
C139 H134 0.928 . S
C139 C138 1.372 . S
C139 C140 1.418 . S
C140 C139 1.418 . S
C140 C141 1.376 1_554 S
C141 H135 0.930 . S
C141 C137 1.429 . S
C141 C140 1.376 1_556 S
H142 C145 0.931 . S
H143 C148 0.928 . S
H144 C150 0.934 . S
C145 H142 0.931 . S
C145 C146 1.413 . S
C145 C147 1.360 . S
C146 C145 1.413 . S
C146 C150 1.429 . S
C147 C145 1.360 . S
C147 C148 1.372 . S
C148 H143 0.928 . S
C148 C147 1.372 . S
C148 C149 1.404 1_545 S
C149 C148 1.404 1_565 S
C149 C150 1.391 1_565 S
C150 H144 0.934 . S
C150 C146 1.429 . S
C150 C149 1.391 1_545 S
H151 C154 0.931 . S
H152 C157 0.928 . S
H153 C159 0.930 . S
C154 H151 0.931 . S
C154 C155 1.403 1_556 S
C154 C156 1.370 . S
C155 C154 1.403 1_554 S
C155 C159 1.429 . S
C156 C154 1.370 . S
C156 C157 1.372 . S
C157 H152 0.928 . S
C157 C156 1.372 . S
C157 C158 1.402 . S
C158 C157 1.402 . S
C158 C159 1.392 1_556 S
C159 H153 0.930 . S
C159 C155 1.429 . S
C159 C158 1.392 1_554 S
C160 C161 1.349 . S
C160 C162 1.327 . S
C160 H185 0.950 . S
C161 C160 1.349 . S
C161 C177 1.349 . S
C162 C160 1.327 . S
C162 C181 1.429 . S
C162 H186 0.950 . S
C163 C180 1.574 . S
C163 C182 1.368 . S
C163 H187 0.949 . S
H164 C168 0.949 . S
C165 C166 1.349 . S
C165 C167 1.327 . S
C165 H188 0.950 . S
C166 C165 1.349 . S
C166 C178 1.349 . S
C167 C165 1.327 . S
C167 C183 1.429 . S
C167 H189 0.950 . S
C168 H164 0.949 . S
C168 C176 1.574 . S
C168 C184 1.368 . S
H169 C177 0.950 . S
H170 C175 0.950 . S
H171 C176 0.949 . S
H172 C178 0.950 . S
H173 C179 0.950 . S
H174 C180 0.949 . S
C175 H170 0.950 . S
C175 C177 1.327 . S
C175 C181 1.429 . S
C176 C168 1.574 . S
C176 H171 0.949 . S
C176 C182 1.368 . S
C177 C161 1.349 . S
C177 H169 0.950 . S
C177 C175 1.327 . S
C178 C166 1.349 . S
C178 H172 0.950 . S
C178 C179 1.327 . S
C179 H173 0.950 . S
C179 C178 1.327 . S
C179 C183 1.429 . S
C180 C163 1.574 . S
C180 H174 0.949 . S
C180 C184 1.368 . S
C181 C162 1.429 . S
C181 C175 1.429 . S
C181 C182 1.523 . S
C182 C163 1.368 . S
C182 C176 1.368 . S
C182 C181 1.523 . S
C183 C167 1.429 . S
C183 C179 1.429 . S
C183 C184 1.523 . S
C184 C168 1.368 . S
C184 C180 1.368 . S
C184 C183 1.523 . S
H185 C160 0.950 . S
H186 C162 0.950 . S
H187 C163 0.949 . S
H188 C165 0.950 . S
H189 C167 0.950 . S
C190 C191 1.349 . S
C190 C192 1.327 . S
C190 H215 0.950 . S
C191 C190 1.349 . S
C191 C207 1.349 . S
C192 C190 1.327 . S
C192 C211 1.429 . S
C192 H216 0.950 . S
C193 C210 1.574 . S
C193 C212 1.368 . S
C193 H217 0.949 . S
H194 C198 0.949 . S
C195 C196 1.349 . S
C195 C197 1.327 . S
C195 H218 0.950 . S
C196 C195 1.349 . S
C196 C208 1.349 . S
C197 C195 1.327 . S
C197 C213 1.429 . S
C197 H219 0.950 . S
C198 H194 0.949 . S
C198 C206 1.574 . S
C198 C214 1.368 . S
H199 C207 0.950 . S
H200 C205 0.950 . S
H201 C206 0.949 . S
H202 C208 0.950 . S
H203 C209 0.950 . S
H204 C210 0.949 . S
C205 H200 0.950 . S
C205 C207 1.327 . S
C205 C211 1.429 . S
C206 C198 1.574 . S
C206 H201 0.949 . S
C206 C212 1.368 . S
C207 C191 1.349 . S
C207 H199 0.950 . S
C207 C205 1.327 . S
C208 C196 1.349 . S
C208 H202 0.950 . S
C208 C209 1.327 . S
C209 H203 0.950 . S
C209 C208 1.327 . S
C209 C213 1.429 . S
C210 C193 1.574 . S
C210 H204 0.949 . S
C210 C214 1.368 . S
C211 C192 1.429 . S
C211 C205 1.429 . S
C211 C212 1.523 . S
C212 C193 1.368 . S
C212 C206 1.368 . S
C212 C211 1.523 . S
C213 C197 1.429 . S
C213 C209 1.429 . S
C213 C214 1.523 . S
C214 C198 1.368 . S
C214 C210 1.368 . S
C214 C213 1.523 . S
H215 C190 0.950 . S
H216 C192 0.950 . S
H217 C193 0.949 . S
H218 C195 0.950 . S
H219 C197 0.950 . S
C220 C221 1.349 . S
C220 C222 1.327 . S
C220 H245 0.950 . S
C221 C220 1.349 . S
C221 C237 1.349 . S
C222 C220 1.327 . S
C222 C241 1.429 . S
C222 H246 0.950 . S
C223 C240 1.574 . S
C223 C242 1.368 . S
C223 H247 0.949 . S
H224 C228 0.949 . S
C225 C226 1.349 . S
C225 C227 1.327 . S
C225 H248 0.950 . S
C226 C225 1.349 . S
C226 C238 1.349 . S
C227 C225 1.327 . S
C227 C243 1.429 . S
C227 H249 0.950 . S
C228 H224 0.949 . S
C228 C236 1.574 . S
C228 C244 1.368 . S
H229 C237 0.950 . S
H230 C235 0.950 . S
H231 C236 0.949 . S
H232 C238 0.950 . S
H233 C239 0.950 . S
H234 C240 0.949 . S
C235 H230 0.950 . S
C235 C237 1.327 . S
C235 C241 1.429 . S
C236 C228 1.574 . S
C236 H231 0.949 . S
C236 C242 1.368 . S
C237 C221 1.349 . S
C237 H229 0.950 . S
C237 C235 1.327 . S
C238 C226 1.349 . S
C238 H232 0.950 . S
C238 C239 1.327 . S
C239 H233 0.950 . S
C239 C238 1.327 . S
C239 C243 1.429 . S
C240 C223 1.574 . S
C240 H234 0.949 . S
C240 C244 1.368 . S
C241 C222 1.429 . S
C241 C235 1.429 . S
C241 C242 1.523 . S
C242 C223 1.368 . S
C242 C236 1.368 . S
C242 C241 1.523 . S
C243 C227 1.429 . S
C243 C239 1.429 . S
C243 C244 1.523 . S
C244 C228 1.368 . S
C244 C240 1.368 . S
C244 C243 1.523 . S
H245 C220 0.950 . S
H246 C222 0.950 . S
H247 C223 0.949 . S
H248 C225 0.950 . S
H249 C227 0.950 . S
C250 C251 1.349 . S
C250 C252 1.327 . S
C250 H275 0.950 . S
C251 C250 1.349 . S
C251 C267 1.349 . S
C252 C250 1.327 . S
C252 C271 1.429 . S
C252 H276 0.950 . S
C253 C270 1.574 . S
C253 C272 1.368 . S
C253 H277 0.949 . S
H254 C258 0.949 . S
C255 C256 1.349 . S
C255 C257 1.327 . S
C255 H278 0.950 . S
C256 C255 1.349 . S
C256 C268 1.349 . S
C257 C255 1.327 . S
C257 C273 1.429 . S
C257 H279 0.950 . S
C258 H254 0.949 . S
C258 C266 1.574 . S
C258 C274 1.368 . S
H259 C267 0.950 . S
H260 C265 0.950 . S
H261 C266 0.949 . S
H262 C268 0.950 . S
H263 C269 0.950 . S
H264 C270 0.949 . S
C265 H260 0.950 . S
C265 C267 1.327 . S
C265 C271 1.429 . S
C266 C258 1.574 . S
C266 H261 0.949 . S
C266 C272 1.368 . S
C267 C251 1.349 . S
C267 H259 0.950 . S
C267 C265 1.327 . S
C268 C256 1.349 . S
C268 H262 0.950 . S
C268 C269 1.327 . S
C269 H263 0.950 . S
C269 C268 1.327 . S
C269 C273 1.429 . S
C270 C253 1.574 . S
C270 H264 0.949 . S
C270 C274 1.368 . S
C271 C252 1.429 . S
C271 C265 1.429 . S
C271 C272 1.523 . S
C272 C253 1.368 . S
C272 C266 1.368 . S
C272 C271 1.523 . S
C273 C257 1.429 . S
C273 C269 1.429 . S
C273 C274 1.523 . S
C274 C258 1.368 . S
C274 C270 1.368 . S
C274 C273 1.523 . S
H275 C250 0.950 . S
H276 C252 0.950 . S
H277 C253 0.949 . S
H278 C255 0.950 . S
H279 C257 0.950 . S
C280 C281 1.349 . S
C280 C282 1.327 . S
C280 H305 0.950 . S
C281 C280 1.349 . S
C281 C297 1.349 . S
C282 C280 1.327 . S
C282 C301 1.429 . S
C282 H306 0.950 . S
C283 C300 1.574 . S
C283 C302 1.368 . S
C283 H307 0.949 . S
H284 C288 0.949 . S
C285 C286 1.349 . S
C285 C287 1.327 . S
C285 H308 0.950 . S
C286 C285 1.349 . S
C286 C298 1.349 . S
C287 C285 1.327 . S
C287 C303 1.429 . S
C287 H309 0.950 . S
C288 H284 0.949 . S
C288 C296 1.574 . S
C288 C304 1.368 . S
H289 C297 0.950 . S
H290 C295 0.950 . S
H291 C296 0.949 . S
H292 C298 0.950 . S
H293 C299 0.950 . S
H294 C300 0.949 . S
C295 H290 0.950 . S
C295 C297 1.327 . S
C295 C301 1.429 . S
C296 C288 1.574 . S
C296 H291 0.949 . S
C296 C302 1.368 . S
C297 C281 1.349 . S
C297 H289 0.950 . S
C297 C295 1.327 . S
C298 C286 1.349 . S
C298 H292 0.950 . S
C298 C299 1.327 . S
C299 H293 0.950 . S
C299 C298 1.327 . S
C299 C303 1.429 . S
C300 C283 1.574 . S
C300 H294 0.949 . S
C300 C304 1.368 . S
C301 C282 1.429 . S
C301 C295 1.429 . S
C301 C302 1.523 . S
C302 C283 1.368 . S
C302 C296 1.368 . S
C302 C301 1.523 . S
C303 C287 1.429 . S
C303 C299 1.429 . S
C303 C304 1.523 . S
C304 C288 1.368 . S
C304 C300 1.368 . S
C304 C303 1.523 . S
H305 C280 0.950 . S
H306 C282 0.950 . S
H307 C283 0.949 . S
H308 C285 0.950 . S
H309 C287 0.950 . S
C310 C311 1.349 . S
C310 C312 1.327 . S
C310 H335 0.950 . S
C311 C310 1.349 . S
C311 C327 1.349 . S
C312 C310 1.327 . S
C312 C331 1.429 . S
C312 H336 0.950 . S
C313 C330 1.574 . S
C313 C332 1.368 . S
C313 H337 0.949 . S
H314 C318 0.949 . S
C315 C316 1.349 . S
C315 C317 1.327 . S
C315 H338 0.950 . S
C316 C315 1.349 . S
C316 C328 1.349 . S
C317 C315 1.327 . S
C317 C333 1.429 . S
C317 H339 0.950 . S
C318 H314 0.949 . S
C318 C326 1.574 . S
C318 C334 1.368 . S
H319 C327 0.950 . S
H320 C325 0.950 . S
H321 C326 0.949 . S
H322 C328 0.950 . S
H323 C329 0.950 . S
H324 C330 0.949 . S
C325 H320 0.950 . S
C325 C327 1.327 . S
C325 C331 1.429 . S
C326 C318 1.574 . S
C326 H321 0.949 . S
C326 C332 1.368 . S
C327 C311 1.349 . S
C327 H319 0.950 . S
C327 C325 1.327 . S
C328 C316 1.349 . S
C328 H322 0.950 . S
C328 C329 1.327 . S
C329 H323 0.950 . S
C329 C328 1.327 . S
C329 C333 1.429 . S
C330 C313 1.574 . S
C330 H324 0.949 . S
C330 C334 1.368 . S
C331 C312 1.429 . S
C331 C325 1.429 . S
C331 C332 1.523 . S
C332 C313 1.368 . S
C332 C326 1.368 . S
C332 C331 1.523 . S
C333 C317 1.429 . S
C333 C329 1.429 . S
C333 C334 1.523 . S
C334 C318 1.368 . S
C334 C330 1.368 . S
C334 C333 1.523 . S
H335 C310 0.950 . S
H336 C312 0.950 . S
H337 C313 0.949 . S
H338 C315 0.950 . S
H339 C317 0.950 . S
C340 C341 1.349 . S
C340 C342 1.327 . S
C340 H365 0.950 . S
C341 C340 1.349 . S
C341 C357 1.349 . S
C342 C340 1.327 . S
C342 C361 1.429 . S
C342 H366 0.950 . S
C343 C360 1.574 . S
C343 C362 1.368 . S
C343 H367 0.949 . S
H344 C348 0.949 . S
C345 C346 1.349 . S
C345 C347 1.327 . S
C345 H368 0.950 . S
C346 C345 1.349 . S
C346 C358 1.349 . S
C347 C345 1.327 . S
C347 C363 1.429 . S
C347 H369 0.950 . S
C348 H344 0.949 . S
C348 C356 1.574 . S
C348 C364 1.368 . S
H349 C357 0.950 . S
H350 C355 0.950 . S
H351 C356 0.949 . S
H352 C358 0.950 . S
H353 C359 0.950 . S
H354 C360 0.949 . S
C355 H350 0.950 . S
C355 C357 1.327 . S
C355 C361 1.429 . S
C356 C348 1.574 . S
C356 H351 0.949 . S
C356 C362 1.368 . S
C357 C341 1.349 . S
C357 H349 0.950 . S
C357 C355 1.327 . S
C358 C346 1.349 . S
C358 H352 0.950 . S
C358 C359 1.327 . S
C359 H353 0.950 . S
C359 C358 1.327 . S
C359 C363 1.429 . S
C360 C343 1.574 . S
C360 H354 0.949 . S
C360 C364 1.368 . S
C361 C342 1.429 . S
C361 C355 1.429 . S
C361 C362 1.523 . S
C362 C343 1.368 . S
C362 C356 1.368 . S
C362 C361 1.523 . S
C363 C347 1.429 . S
C363 C359 1.429 . S
C363 C364 1.523 . S
C364 C348 1.368 . S
C364 C360 1.368 . S
C364 C363 1.523 . S
H365 C340 0.950 . S
H366 C342 0.950 . S
H367 C343 0.949 . S
H368 C345 0.950 . S
H369 C347 0.950 . S
C370 C371 1.349 . S
C370 C372 1.327 . S
C370 H395 0.950 . S
C371 C370 1.349 . S
C371 C387 1.349 . S
C372 C370 1.327 . S
C372 C391 1.429 . S
C372 H396 0.950 . S
C373 C390 1.574 . S
C373 C392 1.368 . S
C373 H397 0.949 . S
H374 C378 0.949 . S
C375 C376 1.349 . S
C375 C377 1.327 . S
C375 H398 0.950 . S
C376 C375 1.349 . S
C376 C388 1.349 . S
C377 C375 1.327 . S
C377 C393 1.429 . S
C377 H399 0.950 . S
C378 H374 0.949 . S
C378 C386 1.574 . S
C378 C394 1.368 . S
H379 C387 0.950 . S
H380 C385 0.950 . S
H381 C386 0.949 . S
H382 C388 0.950 . S
H383 C389 0.950 . S
H384 C390 0.949 . S
C385 H380 0.950 . S
C385 C387 1.327 . S
C385 C391 1.429 . S
C386 C378 1.574 . S
C386 H381 0.949 . S
C386 C392 1.368 . S
C387 C371 1.349 . S
C387 H379 0.950 . S
C387 C385 1.327 . S
C388 C376 1.349 . S
C388 H382 0.950 . S
C388 C389 1.327 . S
C389 H383 0.950 . S
C389 C388 1.327 . S
C389 C393 1.429 . S
C390 C373 1.574 . S
C390 H384 0.949 . S
C390 C394 1.368 . S
C391 C372 1.429 . S
C391 C385 1.429 . S
C391 C392 1.523 . S
C392 C373 1.368 . S
C392 C386 1.368 . S
C392 C391 1.523 . S
C393 C377 1.429 . S
C393 C389 1.429 . S
C393 C394 1.523 . S
C394 C378 1.368 . S
C394 C390 1.368 . S
C394 C393 1.523 . S
H395 C370 0.950 . S
H396 C372 0.950 . S
H397 C373 0.949 . S
H398 C375 0.950 . S
H399 C377 0.950 . S
C400 C401 1.349 . S
C400 C402 1.327 . S
C400 H425 0.950 . S
C401 C400 1.349 . S
C401 C417 1.349 . S
C402 C400 1.327 . S
C402 C421 1.429 . S
C402 H426 0.950 . S
C403 C420 1.574 . S
C403 C422 1.368 . S
C403 H427 0.949 . S
H404 C408 0.949 . S
C405 C406 1.349 . S
C405 C407 1.327 . S
C405 H428 0.950 . S
C406 C405 1.349 . S
C406 C418 1.349 . S
C407 C405 1.327 . S
C407 C423 1.429 . S
C407 H429 0.950 . S
C408 H404 0.949 . S
C408 C416 1.574 . S
C408 C424 1.368 . S
H409 C417 0.950 . S
H410 C415 0.950 . S
H411 C416 0.949 . S
H412 C418 0.950 . S
H413 C419 0.950 . S
H414 C420 0.949 . S
C415 H410 0.950 . S
C415 C417 1.327 . S
C415 C421 1.429 . S
C416 C408 1.574 . S
C416 H411 0.949 . S
C416 C422 1.368 . S
C417 C401 1.349 . S
C417 H409 0.950 . S
C417 C415 1.327 . S
C418 C406 1.349 . S
C418 H412 0.950 . S
C418 C419 1.327 . S
C419 H413 0.950 . S
C419 C418 1.327 . S
C419 C423 1.429 . S
C420 C403 1.574 . S
C420 H414 0.949 . S
C420 C424 1.368 . S
C421 C402 1.429 . S
C421 C415 1.429 . S
C421 C422 1.523 . S
C422 C403 1.368 . S
C422 C416 1.368 . S
C422 C421 1.523 . S
C423 C407 1.429 . S
C423 C419 1.429 . S
C423 C424 1.523 . S
C424 C408 1.368 . S
C424 C420 1.368 . S
C424 C423 1.523 . S
H425 C400 0.950 . S
H426 C402 0.950 . S
H427 C403 0.949 . S
H428 C405 0.950 . S
H429 C407 0.950 . S
C430 C431 1.349 . S
C430 C432 1.327 . S
C430 H455 0.950 . S
C431 C430 1.349 . S
C431 C447 1.349 . S
C432 C430 1.327 . S
C432 C451 1.429 . S
C432 H456 0.950 . S
C433 C450 1.574 . S
C433 C452 1.368 . S
C433 H457 0.949 . S
H434 C438 0.949 . S
C435 C436 1.349 . S
C435 C437 1.327 . S
C435 H458 0.950 . S
C436 C435 1.349 . S
C436 C448 1.349 . S
C437 C435 1.327 . S
C437 C453 1.429 . S
C437 H459 0.950 . S
C438 H434 0.949 . S
C438 C446 1.574 . S
C438 C454 1.368 . S
H439 C447 0.950 . S
H440 C445 0.950 . S
H441 C446 0.949 . S
H442 C448 0.950 . S
H443 C449 0.950 . S
H444 C450 0.949 . S
C445 H440 0.950 . S
C445 C447 1.327 . S
C445 C451 1.429 . S
C446 C438 1.574 . S
C446 H441 0.949 . S
C446 C452 1.368 . S
C447 C431 1.349 . S
C447 H439 0.950 . S
C447 C445 1.327 . S
C448 C436 1.349 . S
C448 H442 0.950 . S
C448 C449 1.327 . S
C449 H443 0.950 . S
C449 C448 1.327 . S
C449 C453 1.429 . S
C450 C433 1.574 . S
C450 H444 0.949 . S
C450 C454 1.368 . S
C451 C432 1.429 . S
C451 C445 1.429 . S
C451 C452 1.523 . S
C452 C433 1.368 . S
C452 C446 1.368 . S
C452 C451 1.523 . S
C453 C437 1.429 . S
C453 C449 1.429 . S
C453 C454 1.523 . S
C454 C438 1.368 . S
C454 C450 1.368 . S
C454 C453 1.523 . S
H455 C430 0.950 . S
H456 C432 0.950 . S
H457 C433 0.949 . S
H458 C435 0.950 . S
H459 C437 0.950 . S
C460 C461 1.349 . S
C460 C462 1.327 . S
C460 H485 0.950 . S
C461 C460 1.349 . S
C461 C477 1.349 . S
C462 C460 1.327 . S
C462 C481 1.429 . S
C462 H486 0.950 . S
C463 C480 1.574 . S
C463 C482 1.368 . S
C463 H487 0.949 . S
H464 C468 0.949 . S
C465 C466 1.349 . S
C465 C467 1.327 . S
C465 H488 0.950 . S
C466 C465 1.349 . S
C466 C478 1.349 . S
C467 C465 1.327 . S
C467 C483 1.429 . S
C467 H489 0.950 . S
C468 H464 0.949 . S
C468 C476 1.574 . S
C468 C484 1.368 . S
H469 C477 0.950 . S
H470 C475 0.950 . S
H471 C476 0.949 . S
H472 C478 0.950 . S
H473 C479 0.950 . S
H474 C480 0.949 . S
C475 H470 0.950 . S
C475 C477 1.327 . S
C475 C481 1.429 . S
C476 C468 1.574 . S
C476 H471 0.949 . S
C476 C482 1.368 . S
C477 C461 1.349 . S
C477 H469 0.950 . S
C477 C475 1.327 . S
C478 C466 1.349 . S
C478 H472 0.950 . S
C478 C479 1.327 . S
C479 H473 0.950 . S
C479 C478 1.327 . S
C479 C483 1.429 . S
C480 C463 1.574 . S
C480 H474 0.949 . S
C480 C484 1.368 . S
C481 C462 1.429 . S
C481 C475 1.429 . S
C481 C482 1.523 . S
C482 C463 1.368 . S
C482 C476 1.368 . S
C482 C481 1.523 . S
C483 C467 1.429 . S
C483 C479 1.429 . S
C483 C484 1.523 . S
C484 C468 1.368 . S
C484 C480 1.368 . S
C484 C483 1.523 . S
H485 C460 0.950 . S
H486 C462 0.950 . S
H487 C463 0.949 . S
H488 C465 0.950 . S
H489 C467 0.950 . S
C490 C491 1.349 . S
C490 C492 1.327 . S
C490 H515 0.950 . S
C491 C490 1.349 . S
C491 C507 1.349 . S
C492 C490 1.327 . S
C492 C511 1.429 . S
C492 H516 0.950 . S
C493 C510 1.574 . S
C493 C512 1.368 . S
C493 H517 0.949 . S
H494 C498 0.949 . S
C495 C496 1.349 . S
C495 C497 1.327 . S
C495 H518 0.950 . S
C496 C495 1.349 . S
C496 C508 1.349 . S
C497 C495 1.327 . S
C497 C513 1.429 . S
C497 H519 0.950 . S
C498 H494 0.949 . S
C498 C506 1.574 . S
C498 C514 1.368 . S
H499 C507 0.950 . S
H500 C505 0.950 . S
H501 C506 0.949 . S
H502 C508 0.950 . S
H503 C509 0.950 . S
H504 C510 0.949 . S
C505 H500 0.950 . S
C505 C507 1.327 . S
C505 C511 1.429 . S
C506 C498 1.574 . S
C506 H501 0.949 . S
C506 C512 1.368 . S
C507 C491 1.349 . S
C507 H499 0.950 . S
C507 C505 1.327 . S
C508 C496 1.349 . S
C508 H502 0.950 . S
C508 C509 1.327 . S
C509 H503 0.950 . S
C509 C508 1.327 . S
C509 C513 1.429 . S
C510 C493 1.574 . S
C510 H504 0.949 . S
C510 C514 1.368 . S
C511 C492 1.429 . S
C511 C505 1.429 . S
C511 C512 1.523 . S
C512 C493 1.368 . S
C512 C506 1.368 . S
C512 C511 1.523 . S
C513 C497 1.429 . S
C513 C509 1.429 . S
C513 C514 1.523 . S
C514 C498 1.368 . S
C514 C510 1.368 . S
C514 C513 1.523 . S
H515 C490 0.950 . S
H516 C492 0.950 . S
H517 C493 0.949 . S
H518 C495 0.950 . S
H519 C497 0.950 . S
C520 C521 1.349 . S
C520 C522 1.327 . S
C520 H545 0.950 . S
C521 C520 1.349 . S
C521 C537 1.349 . S
C522 C520 1.327 . S
C522 C541 1.429 . S
C522 H546 0.950 . S
C523 C540 1.574 . S
C523 C542 1.368 . S
C523 H547 0.949 . S
H524 C528 0.949 . S
C525 C526 1.349 . S
C525 C527 1.327 . S
C525 H548 0.950 . S
C526 C525 1.349 . S
C526 C538 1.349 . S
C527 C525 1.327 . S
C527 C543 1.429 . S
C527 H549 0.950 . S
C528 H524 0.949 . S
C528 C536 1.574 . S
C528 C544 1.368 . S
H529 C537 0.950 . S
H530 C535 0.950 . S
H531 C536 0.949 . S
H532 C538 0.950 . S
H533 C539 0.950 . S
H534 C540 0.949 . S
C535 H530 0.950 . S
C535 C537 1.327 . S
C535 C541 1.429 . S
C536 C528 1.574 . S
C536 H531 0.949 . S
C536 C542 1.368 . S
C537 C521 1.349 . S
C537 H529 0.950 . S
C537 C535 1.327 . S
C538 C526 1.349 . S
C538 H532 0.950 . S
C538 C539 1.327 . S
C539 H533 0.950 . S
C539 C538 1.327 . S
C539 C543 1.429 . S
C540 C523 1.574 . S
C540 H534 0.949 . S
C540 C544 1.368 . S
C541 C522 1.429 . S
C541 C535 1.429 . S
C541 C542 1.523 . S
C542 C523 1.368 . S
C542 C536 1.368 . S
C542 C541 1.523 . S
C543 C527 1.429 . S
C543 C539 1.429 . S
C543 C544 1.523 . S
C544 C528 1.368 . S
C544 C540 1.368 . S
C544 C543 1.523 . S
H545 C520 0.950 . S
H546 C522 0.950 . S
H547 C523 0.949 . S
H548 C525 0.950 . S
H549 C527 0.950 . S
C550 C551 1.349 . S
C550 C552 1.327 . S
C550 H575 0.950 . S
C551 C550 1.349 . S
C551 C567 1.349 . S
C552 C550 1.327 . S
C552 C571 1.429 . S
C552 H576 0.950 . S
C553 C570 1.574 . S
C553 C572 1.368 . S
C553 H577 0.949 . S
H554 C558 0.949 . S
C555 C556 1.349 . S
C555 C557 1.327 . S
C555 H578 0.950 . S
C556 C555 1.349 . S
C556 C568 1.349 . S
C557 C555 1.327 . S
C557 C573 1.429 . S
C557 H579 0.950 . S
C558 H554 0.949 . S
C558 C566 1.574 . S
C558 C574 1.368 . S
H559 C567 0.950 . S
H560 C565 0.950 . S
H561 C566 0.949 . S
H562 C568 0.950 . S
H563 C569 0.950 . S
H564 C570 0.949 . S
C565 H560 0.950 . S
C565 C567 1.327 . S
C565 C571 1.429 . S
C566 C558 1.574 . S
C566 H561 0.949 . S
C566 C572 1.368 . S
C567 C551 1.349 . S
C567 H559 0.950 . S
C567 C565 1.327 . S
C568 C556 1.349 . S
C568 H562 0.950 . S
C568 C569 1.327 . S
C569 H563 0.950 . S
C569 C568 1.327 . S
C569 C573 1.429 . S
C570 C553 1.574 . S
C570 H564 0.949 . S
C570 C574 1.368 . S
C571 C552 1.429 . S
C571 C565 1.429 . S
C571 C572 1.523 . S
C572 C553 1.368 . S
C572 C566 1.368 . S
C572 C571 1.523 . S
C573 C557 1.429 . S
C573 C569 1.429 . S
C573 C574 1.523 . S
C574 C558 1.368 . S
C574 C570 1.368 . S
C574 C573 1.523 . S
H575 C550 0.950 . S
H576 C552 0.950 . S
H577 C553 0.949 . S
H578 C555 0.950 . S
H579 C557 0.950 . S
C580 C581 1.349 . S
C580 C582 1.327 . S
C580 H605 0.950 . S
C581 C580 1.349 . S
C581 C597 1.349 . S
C582 C580 1.327 . S
C582 C601 1.429 . S
C582 H606 0.950 . S
C583 C600 1.574 . S
C583 C602 1.368 . S
C583 H607 0.949 . S
H584 C588 0.949 . S
C585 C586 1.349 . S
C585 C587 1.327 . S
C585 H608 0.950 . S
C586 C585 1.349 . S
C586 C598 1.349 . S
C587 C585 1.327 . S
C587 C603 1.429 . S
C587 H609 0.950 . S
C588 H584 0.949 . S
C588 C596 1.574 . S
C588 C604 1.368 . S
H589 C597 0.950 . S
H590 C595 0.950 . S
H591 C596 0.949 . S
H592 C598 0.950 . S
H593 C599 0.950 . S
H594 C600 0.949 . S
C595 H590 0.950 . S
C595 C597 1.327 . S
C595 C601 1.429 . S
C596 C588 1.574 . S
C596 H591 0.949 . S
C596 C602 1.368 . S
C597 C581 1.349 . S
C597 H589 0.950 . S
C597 C595 1.327 . S
C598 C586 1.349 . S
C598 H592 0.950 . S
C598 C599 1.327 . S
C599 H593 0.950 . S
C599 C598 1.327 . S
C599 C603 1.429 . S
C600 C583 1.574 . S
C600 H594 0.949 . S
C600 C604 1.368 . S
C601 C582 1.429 . S
C601 C595 1.429 . S
C601 C602 1.523 . S
C602 C583 1.368 . S
C602 C596 1.368 . S
C602 C601 1.523 . S
C603 C587 1.429 . S
C603 C599 1.429 . S
C603 C604 1.523 . S
C604 C588 1.368 . S
C604 C600 1.368 . S
C604 C603 1.523 . S
H605 C580 0.950 . S
H606 C582 0.950 . S
H607 C583 0.949 . S
H608 C585 0.950 . S
H609 C587 0.950 . S
C610 C611 1.349 . S
C610 C612 1.327 . S
C610 H635 0.950 . S
C611 C610 1.349 . S
C611 C627 1.349 . S
C612 C610 1.327 . S
C612 C631 1.429 . S
C612 H636 0.950 . S
C613 C630 1.574 . S
C613 C632 1.368 . S
C613 H637 0.949 . S
H614 C618 0.949 . S
C615 C616 1.349 . S
C615 C617 1.327 . S
C615 H638 0.950 . S
C616 C615 1.349 . S
C616 C628 1.349 . S
C617 C615 1.327 . S
C617 C633 1.429 . S
C617 H639 0.950 . S
C618 H614 0.949 . S
C618 C626 1.574 . S
C618 C634 1.368 . S
H619 C627 0.950 . S
H620 C625 0.950 . S
H621 C626 0.949 . S
H622 C628 0.950 . S
H623 C629 0.950 . S
H624 C630 0.949 . S
C625 H620 0.950 . S
C625 C627 1.327 . S
C625 C631 1.429 . S
C626 C618 1.574 . S
C626 H621 0.949 . S
C626 C632 1.368 . S
C627 C611 1.349 . S
C627 H619 0.950 . S
C627 C625 1.327 . S
C628 C616 1.349 . S
C628 H622 0.950 . S
C628 C629 1.327 . S
C629 H623 0.950 . S
C629 C628 1.327 . S
C629 C633 1.429 . S
C630 C613 1.574 . S
C630 H624 0.949 . S
C630 C634 1.368 . S
C631 C612 1.429 . S
C631 C625 1.429 . S
C631 C632 1.523 . S
C632 C613 1.368 . S
C632 C626 1.368 . S
C632 C631 1.523 . S
C633 C617 1.429 . S
C633 C629 1.429 . S
C633 C634 1.523 . S
C634 C618 1.368 . S
C634 C630 1.368 . S
C634 C633 1.523 . S
H635 C610 0.950 . S
H636 C612 0.950 . S
H637 C613 0.949 . S
H638 C615 0.950 . S
H639 C617 0.950 . S
C640 C641 1.353 . S
C640 C642 1.327 . S
C640 H665 0.950 . S
C641 C640 1.353 . S
C641 C657 1.345 1_554 S
C642 C640 1.327 . S
C642 C661 1.433 . S
C642 H666 0.950 . S
C643 C660 1.574 . S
C643 C662 1.363 1_556 S
C643 H667 0.949 . S
H644 C648 0.949 . S
C645 C646 1.342 1_556 S
C645 C647 1.327 . S
C645 H668 0.950 . S
C646 C645 1.342 1_554 S
C646 C658 1.355 . S
C647 C645 1.327 . S
C647 C663 1.423 1_556 S
C647 H669 0.950 . S
C648 H644 0.949 . S
C648 C656 1.574 . S
C648 C664 1.374 . S
H649 C657 0.950 . S
H650 C655 0.950 . S
H651 C656 0.949 . S
H652 C658 0.950 . S
H653 C659 0.950 . S
H654 C660 0.949 . S
C655 H650 0.950 . S
C655 C657 1.327 . S
C655 C661 1.424 1_556 S
C656 C648 1.574 . S
C656 H651 0.949 . S
C656 C662 1.373 . S
C657 C641 1.345 1_556 S
C657 H649 0.950 . S
C657 C655 1.327 . S
C658 C646 1.355 . S
C658 H652 0.950 . S
C658 C659 1.327 . S
C659 H653 0.950 . S
C659 C658 1.327 . S
C659 C663 1.434 . S
C660 C643 1.574 . S
C660 H654 0.949 . S
C660 C664 1.362 1_556 S
C661 C642 1.433 . S
C661 C655 1.424 1_554 S
C661 C662 1.523 . S
C662 C643 1.363 1_554 S
C662 C656 1.373 . S
C662 C661 1.523 . S
C663 C647 1.423 1_554 S
C663 C659 1.434 . S
C663 C664 1.523 . S
C664 C648 1.374 . S
C664 C660 1.362 1_554 S
C664 C663 1.523 . S
H665 C640 0.950 . S
H666 C642 0.950 . S
H667 C643 0.949 . S
H668 C645 0.950 . S
H669 C647 0.950 . S
C670 C671 1.349 . S
C670 C672 1.327 . S
C670 H695 0.950 . S
C671 C670 1.349 . S
C671 C687 1.349 . S
C672 C670 1.327 . S
C672 C691 1.429 . S
C672 H696 0.950 . S
C673 C690 1.574 . S
C673 C692 1.368 . S
C673 H697 0.949 . S
H674 C678 0.949 . S
C675 C676 1.349 . S
C675 C677 1.327 . S
C675 H698 0.950 . S
C676 C675 1.349 . S
C676 C688 1.349 . S
C677 C675 1.327 . S
C677 C693 1.429 . S
C677 H699 0.950 . S
C678 H674 0.949 . S
C678 C686 1.574 . S
C678 C694 1.368 . S
H679 C687 0.950 . S
H680 C685 0.950 . S
H681 C686 0.949 . S
H682 C688 0.950 . S
H683 C689 0.950 . S
H684 C690 0.949 . S
C685 H680 0.950 . S
C685 C687 1.327 . S
C685 C691 1.429 . S
C686 C678 1.574 . S
C686 H681 0.949 . S
C686 C692 1.368 . S
C687 C671 1.349 . S
C687 H679 0.950 . S
C687 C685 1.327 . S
C688 C676 1.349 . S
C688 H682 0.950 . S
C688 C689 1.327 . S
C689 H683 0.950 . S
C689 C688 1.327 . S
C689 C693 1.429 . S
C690 C673 1.574 . S
C690 H684 0.949 . S
C690 C694 1.368 . S
C691 C672 1.429 . S
C691 C685 1.429 . S
C691 C692 1.523 . S
C692 C673 1.368 . S
C692 C686 1.368 . S
C692 C691 1.523 . S
C693 C677 1.429 . S
C693 C689 1.429 . S
C693 C694 1.523 . S
C694 C678 1.368 . S
C694 C690 1.368 . S
C694 C693 1.523 . S
H695 C670 0.950 . S
H696 C672 0.950 . S
H697 C673 0.949 . S
H698 C675 0.950 . S
H699 C677 0.950 . S
C700 C701 1.355 . S
C700 C702 1.327 . S
C700 H725 0.950 . S
C701 C700 1.355 . S
C701 C717 1.343 1_554 S
C702 C700 1.327 . S
C702 C721 1.434 . S
C702 H726 0.950 . S
C703 C720 1.574 . S
C703 C722 1.363 1_556 S
C703 H727 0.949 . S
H704 C708 0.949 . S
C705 C706 1.346 1_556 S
C705 C707 1.327 . S
C705 H728 0.950 . S
C706 C705 1.346 1_554 S
C706 C718 1.351 . S
C707 C705 1.327 . S
C707 C723 1.425 1_556 S
C707 H729 0.950 . S
C708 H704 0.949 . S
C708 C716 1.574 . S
C708 C724 1.372 . S
H709 C717 0.950 . S
H710 C715 0.950 . S
H711 C716 0.949 . S
H712 C718 0.950 . S
H713 C719 0.950 . S
H714 C720 0.949 . S
C715 H710 0.950 . S
C715 C717 1.327 . S
C715 C721 1.424 1_556 S
C716 C708 1.574 . S
C716 H711 0.949 . S
C716 C722 1.373 . S
C717 C701 1.343 1_556 S
C717 H709 0.950 . S
C717 C715 1.327 . S
C718 C706 1.351 . S
C718 H712 0.950 . S
C718 C719 1.327 . S
C719 H713 0.950 . S
C719 C718 1.327 . S
C719 C723 1.432 . S
C720 C703 1.574 . S
C720 H714 0.949 . S
C720 C724 1.364 1_556 S
C721 C702 1.434 . S
C721 C715 1.424 1_554 S
C721 C722 1.523 . S
C722 C703 1.363 1_554 S
C722 C716 1.373 . S
C722 C721 1.523 . S
C723 C707 1.425 1_554 S
C723 C719 1.432 . S
C723 C724 1.523 . S
C724 C708 1.372 . S
C724 C720 1.364 1_554 S
C724 C723 1.523 . S
H725 C700 0.950 . S
H726 C702 0.950 . S
H727 C703 0.949 . S
H728 C705 0.950 . S
H729 C707 0.950 . S
C730 C731 1.349 . S
C730 C732 1.327 . S
C730 H755 0.950 . S
C731 C730 1.349 . S
C731 C747 1.349 . S
C732 C730 1.327 . S
C732 C751 1.429 . S
C732 H756 0.950 . S
C733 C750 1.574 . S
C733 C752 1.368 . S
C733 H757 0.949 . S
H734 C738 0.949 . S
C735 C736 1.349 . S
C735 C737 1.327 . S
C735 H758 0.950 . S
C736 C735 1.349 . S
C736 C748 1.349 . S
C737 C735 1.327 . S
C737 C753 1.429 . S
C737 H759 0.950 . S
C738 H734 0.949 . S
C738 C746 1.574 . S
C738 C754 1.368 . S
H739 C747 0.950 . S
H740 C745 0.950 . S
H741 C746 0.949 . S
H742 C748 0.950 . S
H743 C749 0.950 . S
H744 C750 0.949 . S
C745 H740 0.950 . S
C745 C747 1.327 . S
C745 C751 1.429 . S
C746 C738 1.574 . S
C746 H741 0.949 . S
C746 C752 1.368 . S
C747 C731 1.349 . S
C747 H739 0.950 . S
C747 C745 1.327 . S
C748 C736 1.349 . S
C748 H742 0.950 . S
C748 C749 1.327 . S
C749 H743 0.950 . S
C749 C748 1.327 . S
C749 C753 1.429 . S
C750 C733 1.574 . S
C750 H744 0.949 . S
C750 C754 1.368 . S
C751 C732 1.429 . S
C751 C745 1.429 . S
C751 C752 1.523 . S
C752 C733 1.368 . S
C752 C746 1.368 . S
C752 C751 1.523 . S
C753 C737 1.429 . S
C753 C749 1.429 . S
C753 C754 1.523 . S
C754 C738 1.368 . S
C754 C750 1.368 . S
C754 C753 1.523 . S
H755 C730 0.950 . S
H756 C732 0.950 . S
H757 C733 0.949 . S
H758 C735 0.950 . S
H759 C737 0.950 . S
C760 C761 1.349 . S
C760 C762 1.327 . S
C760 H785 0.950 . S
C761 C760 1.349 . S
C761 C777 1.349 . S
C762 C760 1.327 . S
C762 C781 1.429 . S
C762 H786 0.950 . S
C763 C780 1.574 . S
C763 C782 1.368 . S
C763 H787 0.949 . S
H764 C768 0.949 . S
C765 C766 1.349 . S
C765 C767 1.327 . S
C765 H788 0.950 . S
C766 C765 1.349 . S
C766 C778 1.349 . S
C767 C765 1.327 . S
C767 C783 1.429 . S
C767 H789 0.950 . S
C768 H764 0.949 . S
C768 C776 1.574 . S
C768 C784 1.368 . S
H769 C777 0.950 . S
H770 C775 0.950 . S
H771 C776 0.949 . S
H772 C778 0.950 . S
H773 C779 0.950 . S
H774 C780 0.949 . S
C775 H770 0.950 . S
C775 C777 1.327 . S
C775 C781 1.429 . S
C776 C768 1.574 . S
C776 H771 0.949 . S
C776 C782 1.368 . S
C777 C761 1.349 . S
C777 H769 0.950 . S
C777 C775 1.327 . S
C778 C766 1.349 . S
C778 H772 0.950 . S
C778 C779 1.327 . S
C779 H773 0.950 . S
C779 C778 1.327 . S
C779 C783 1.429 . S
C780 C763 1.574 . S
C780 H774 0.949 . S
C780 C784 1.368 . S
C781 C762 1.429 . S
C781 C775 1.429 . S
C781 C782 1.523 . S
C782 C763 1.368 . S
C782 C776 1.368 . S
C782 C781 1.523 . S
C783 C767 1.429 . S
C783 C779 1.429 . S
C783 C784 1.523 . S
C784 C768 1.368 . S
C784 C780 1.368 . S
C784 C783 1.523 . S
H785 C760 0.950 . S
H786 C762 0.950 . S
H787 C763 0.949 . S
H788 C765 0.950 . S
H789 C767 0.950 . S
C790 C791 1.343 1_556 S
C790 C792 1.327 . S
C790 H815 0.950 . S
C791 C790 1.343 1_554 S
C791 C807 1.355 . S
C792 C790 1.327 . S
C792 C811 1.423 1_556 S
C792 H816 0.950 . S
C793 C810 1.574 . S
C793 C812 1.374 . S
C793 H817 0.949 . S
H794 C798 0.949 . S
C795 C796 1.352 . S
C795 C797 1.327 . S
C795 H818 0.950 . S
C796 C795 1.352 . S
C796 C808 1.346 1_554 S
C797 C795 1.327 . S
C797 C813 1.432 . S
C797 H819 0.950 . S
C798 H794 0.949 . S
C798 C806 1.574 . S
C798 C814 1.364 1_556 S
H799 C807 0.950 . S
H800 C805 0.950 . S
H801 C806 0.949 . S
H802 C808 0.950 . S
H803 C809 0.950 . S
H804 C810 0.949 . S
C805 H800 0.950 . S
C805 C807 1.327 . S
C805 C811 1.434 . S
C806 C798 1.574 . S
C806 H801 0.949 . S
C806 C812 1.363 1_556 S
C807 C791 1.355 . S
C807 H799 0.950 . S
C807 C805 1.327 . S
C808 C796 1.346 1_556 S
C808 H802 0.950 . S
C808 C809 1.327 . S
C809 H803 0.950 . S
C809 C808 1.327 . S
C809 C813 1.425 1_556 S
C810 C793 1.574 . S
C810 H804 0.949 . S
C810 C814 1.373 . S
C811 C792 1.423 1_554 S
C811 C805 1.434 . S
C811 C812 1.523 . S
C812 C793 1.374 . S
C812 C806 1.363 1_554 S
C812 C811 1.523 . S
C813 C797 1.432 . S
C813 C809 1.425 1_554 S
C813 C814 1.523 . S
C814 C798 1.364 1_554 S
C814 C810 1.373 . S
C814 C813 1.523 . S
H815 C790 0.950 . S
H816 C792 0.950 . S
H817 C793 0.949 . S
H818 C795 0.950 . S
H819 C797 0.950 . S
C820 C821 1.349 . S
C820 C822 1.327 . S
C820 H845 0.950 . S
C821 C820 1.349 . S
C821 C837 1.349 . S
C822 C820 1.327 . S
C822 C841 1.429 . S
C822 H846 0.950 . S
C823 C840 1.574 . S
C823 C842 1.368 . S
C823 H847 0.949 . S
H824 C828 0.949 . S
C825 C826 1.349 . S
C825 C827 1.327 . S
C825 H848 0.950 . S
C826 C825 1.349 . S
C826 C838 1.349 . S
C827 C825 1.327 . S
C827 C843 1.429 . S
C827 H849 0.950 . S
C828 H824 0.949 . S
C828 C836 1.574 . S
C828 C844 1.368 . S
H829 C837 0.950 . S
H830 C835 0.950 . S
H831 C836 0.949 . S
H832 C838 0.950 . S
H833 C839 0.950 . S
H834 C840 0.949 . S
C835 H830 0.950 . S
C835 C837 1.327 . S
C835 C841 1.429 . S
C836 C828 1.574 . S
C836 H831 0.949 . S
C836 C842 1.368 . S
C837 C821 1.349 . S
C837 H829 0.950 . S
C837 C835 1.327 . S
C838 C826 1.349 . S
C838 H832 0.950 . S
C838 C839 1.327 . S
C839 H833 0.950 . S
C839 C838 1.327 . S
C839 C843 1.429 . S
C840 C823 1.574 . S
C840 H834 0.949 . S
C840 C844 1.368 . S
C841 C822 1.429 . S
C841 C835 1.429 . S
C841 C842 1.523 . S
C842 C823 1.368 . S
C842 C836 1.368 . S
C842 C841 1.523 . S
C843 C827 1.429 . S
C843 C839 1.429 . S
C843 C844 1.523 . S
C844 C828 1.368 . S
C844 C840 1.368 . S
C844 C843 1.523 . S
H845 C820 0.950 . S
H846 C822 0.950 . S
H847 C823 0.949 . S
H848 C825 0.950 . S
H849 C827 0.950 . S
C850 C851 1.345 1_556 S
C850 C852 1.327 . S
C850 H875 0.950 . S
C851 C850 1.345 1_554 S
C851 C867 1.353 . S
C852 C850 1.327 . S
C852 C871 1.424 1_556 S
C852 H876 0.950 . S
C853 C870 1.574 . S
C853 C872 1.374 . S
C853 H877 0.949 . S
H854 C858 0.949 . S
C855 C856 1.356 . S
C855 C857 1.327 . S
C855 H878 0.950 . S
C856 C855 1.356 . S
C856 C868 1.342 1_554 S
C857 C855 1.327 . S
C857 C873 1.435 . S
C857 H879 0.950 . S
C858 H854 0.949 . S
C858 C866 1.574 . S
C858 C874 1.362 1_556 S
H859 C867 0.950 . S
H860 C865 0.950 . S
H861 C866 0.949 . S
H862 C868 0.950 . S
H863 C869 0.950 . S
H864 C870 0.949 . S
C865 H860 0.950 . S
C865 C867 1.327 . S
C865 C871 1.433 . S
C866 C858 1.574 . S
C866 H861 0.949 . S
C866 C872 1.363 1_556 S
C867 C851 1.353 . S
C867 H859 0.950 . S
C867 C865 1.327 . S
C868 C856 1.342 1_556 S
C868 H862 0.950 . S
C868 C869 1.327 . S
C869 H863 0.950 . S
C869 C868 1.327 . S
C869 C873 1.422 1_556 S
C870 C853 1.574 . S
C870 H864 0.949 . S
C870 C874 1.375 . S
C871 C852 1.424 1_554 S
C871 C865 1.433 . S
C871 C872 1.523 . S
C872 C853 1.374 . S
C872 C866 1.363 1_554 S
C872 C871 1.523 . S
C873 C857 1.435 . S
C873 C869 1.422 1_554 S
C873 C874 1.523 . S
C874 C858 1.362 1_554 S
C874 C870 1.375 . S
C874 C873 1.523 . S
H875 C850 0.950 . S
H876 C852 0.950 . S
H877 C853 0.949 . S
H878 C855 0.950 . S
H879 C857 0.950 . S
C161 C5 1.381 . S
C166 C119 1.402 . S
C191 C31 1.382 . S
C196 C93 1.405 . S
C226 C102 1.405 . S
C221 C53 1.382 . S
C251 C71 1.381 . S
C256 C110 1.402 . S
C286 C138 1.405 . S
C281 C75 1.382 . S
C316 C146 1.402 . S
C311 C9 1.381 . S
C346 C155 1.402 . S
C341 C27 1.381 . S
C376 C129 1.405 . S
C371 C49 1.382 . S
C401 C51 1.381 . S
C406 C101 1.404 . S
C431 C72 1.382 . S
C436 C111 1.402 . S
C461 C6 1.382 . S
C466 C120 1.402 . S
C496 C92 1.403 . S
C491 C29 1.381 . S
C521 C28 1.382 . S
C526 C156 1.402 . S
C556 C128 1.404 . S
C551 C50 1.381 . S
C586 C137 1.403 . S
C581 C73 1.381 . S
C611 C7 1.382 . S
C616 C147 1.402 . S
C646 C95 1.473 1_554 S
C641 C4 1.463 . S
C676 C104 1.473 . S
C671 C30 1.463 . S
C701 C52 1.463 . S
C706 C113 1.471 . S
C731 C70 1.463 . S
C736 C122 1.471 . S
C766 C131 1.473 . S
C761 C74 1.463 . S
C791 C8 1.463 . S
C796 C140 1.473 . S
C821 C26 1.463 . S
C826 C149 1.471 . S
C851 C48 1.463 . S
C856 C158 1.471 1_554 S
