# Generated by pormake.
# Topology pth, (4,4)-cn, num edge types: 1
# Building blocks:
#     Node 0, Type 0, BuildingBlock: NAHDIM_clean_sbu_0, # of connection points: 4
#     Node 1, Type 0, BuildingBlock: NAHDIM_clean_sbu_0, # of connection points: 4
#     Node 2, Type 0, BuildingBlock: NAHDIM_clean_sbu_0, # of connection points: 4
#     Node 3, Type 1, BuildingBlock: NAWXER_clean_linker_0, # of connection points: 4
#     Node 4, Type 1, BuildingBlock: NAWXER_clean_linker_0, # of connection points: 4
#     Node 5, Type 1, BuildingBlock: NAWXER_clean_linker_0, # of connection points: 4
#     Edge 6, Type (0, 1), BuildingBlock: TEMPAE_clean_linker_10, # of connection points: 2
#     Edge 7, Type (0, 1), BuildingBlock: TEMPAE_clean_linker_10, # of connection points: 2
#     Edge 8, Type (0, 1), BuildingBlock: TEMPAE_clean_linker_10, # of connection points: 2
#     Edge 9, Type (0, 1), BuildingBlock: TEMPAE_clean_linker_10, # of connection points: 2
#     Edge 10, Type (0, 1), BuildingBlock: TEMPAE_clean_linker_10, # of connection points: 2
#     Edge 11, Type (0, 1), BuildingBlock: TEMPAE_clean_linker_10, # of connection points: 2
#     Edge 12, Type (0, 1), BuildingBlock: TEMPAE_clean_linker_10, # of connection points: 2
#     Edge 13, Type (0, 1), BuildingBlock: TEMPAE_clean_linker_10, # of connection points: 2
#     Edge 14, Type (0, 1), BuildingBlock: TEMPAE_clean_linker_10, # of connection points: 2
#     Edge 15, Type (0, 1), BuildingBlock: TEMPAE_clean_linker_10, # of connection points: 2
#     Edge 16, Type (0, 1), BuildingBlock: TEMPAE_clean_linker_10, # of connection points: 2
#     Edge 17, Type (0, 1), BuildingBlock: TEMPAE_clean_linker_10, # of connection points: 2
# Relax obj value: 0.041
# Max RMSD: 0.165
# Mean RMSD: 0.084
data_MOF--net-pth--node1-NAHDIM_clean_sbu_0--node2-NAWXER_clean_linker_0--edge1-TEMPAE_clean_linker_10
_symmetry_space_group_name_H-M    P1
_symmetry_Int_Tables_number       1
_symmetry_cell_setting            triclinic
loop_
_symmetry_equiv_pos_as_xyz
'x, y, z'
_cell_length_a     29.258251
_cell_length_b     29.412033
_cell_length_c     65.192844
_cell_angle_alpha  91.898619
_cell_angle_beta   90.035435
_cell_angle_gamma 120.57274
loop_
_atom_site_label
_atom_site_type_symbol
_atom_site_fract_x
_atom_site_fract_y
_atom_site_fract_z
_atom_type_partial_charge
C0 C 0.04567 0.94284 0.05305 0.0
O1 O 0.03018 0.93122 0.0337 0.0
O2 O 0.02414 0.07808 0.06577 0.0
Zn3 Zn 0.03941 0.03525 0.04544 0.0
O4 O 0.97675 0.99135 0.02662 0.0
C5 C 0.09882 0.12452 0.02228 0.0
O6 O 0.05898 0.13042 0.02791 0.0
O7 O 0.05456 0.98665 0.06104 0.0
C8 C 0.94208 0.00281 0.02139 0.0
O9 O 0.94529 0.04637 0.02889 0.0
C10 C 0.98347 0.05885 0.07697 0.0
O11 O 0.94848 0.00803 0.0753 0.0
O12 O 0.10063 0.0848 0.02832 0.0
C13 C 0.01322 0.11753 0.35414 0.0
O14 O 0.96756 0.07783 0.35978 0.0
O15 O 0.02433 0.99307 0.35304 0.0
Zn16 Zn 0.04559 0.0541 0.37322 0.0
O17 O 0.98812 0.03524 0.39381 0.0
C18 C 0.10819 0.02635 0.39556 0.0
O19 O 0.06387 0.98083 0.39261 0.0
O20 O 0.05561 0.1175 0.35844 0.0
C21 C -0.00068 0.05429 0.41212 0.0
O22 O 0.04933 0.08469 0.41784 0.0
C23 C 0.02515 -0.00279 0.33368 0.0
O24 O 0.03849 0.043 0.32603 0.0
O25 O 0.11166 0.06735 0.38809 0.0
C26 C 0.06066 0.97265 0.67249 0.0
O27 O 0.01699 0.96596 0.66383 0.0
O28 O 0.99388 0.03778 0.6859 0.0
Zn29 Zn 0.02678 0.01254 0.70648 0.0
O30 O 0.07545 0.07145 0.72631 0.0
C31 C 0.92567 0.95179 0.72513 0.0
O32 O 0.91852 0.98801 0.71701 0.0
O33 O 0.07149 0.98962 0.69107 0.0
C34 C 0.05951 0.08546 0.7421 0.0
O35 O 0.00851 0.06154 0.74583 0.0
C36 C 0.98666 0.07663 0.68868 0.0
O37 O 0.0024 0.10469 0.70603 0.0
O38 O 0.96928 0.953 0.72229 0.0
C39 C 0.95256 0.35545 0.24766 0.0
C40 C -0.00338 0.37562 0.26119 0.0
C41 C 0.9473 0.3886 0.23423 0.0
C42 C 0.98645 0.44233 0.23386 0.0
C43 C 0.03493 0.42971 0.2612 0.0
C44 C 0.02977 0.46277 0.24769 0.0
C45 C 0.98269 0.47788 0.21934 0.0
C46 C 0.00033 0.3586 0.18014 0.0
C47 C 0.95554 0.32637 0.16748 0.0
C48 C 0.00581 0.40364 0.19035 0.0
C49 C 0.96649 0.4171 0.18817 0.0
C50 C 0.91607 0.33988 0.16548 0.0
C51 C 0.92174 0.38509 0.17562 0.0
C52 C 0.973 0.4659 0.19806 0.0
C53 C 0.04042 0.67713 0.16505 0.0
C54 C 0.0033 0.66348 0.14892 0.0
C55 C 0.03292 0.64036 0.17961 0.0
C56 C 0.98794 0.58935 0.17842 0.0
C57 C 0.95848 0.61227 0.14765 0.0
C58 C 0.95112 0.57538 0.1622 0.0
C59 C 0.98122 0.54966 0.19329 0.0
C60 C 0.95977 0.66946 0.22934 0.0
C61 C -0.00289 0.69659 0.24535 0.0
C62 C 0.95702 0.62554 0.21921 0.0
C63 C 0.99211 0.60836 0.22467 0.0
C64 C 0.0319 0.67906 0.25088 0.0
C65 C 0.02928 0.63529 0.24068 0.0
C66 C 0.98813 0.56052 0.2147 0.0
H67 H 0.92187 0.31412 0.24762 0.0
H68 H 0.91264 0.37224 0.22416 0.0
H69 H 0.06942 0.4463 0.27137 0.0
H70 H 0.06026 0.5042 0.24777 0.0
H71 H 0.03199 0.34998 0.18167 0.0
H72 H 0.04128 0.42855 0.1996 0.0
H73 H 0.88089 0.31564 0.15601 0.0
H74 H 0.89112 0.39505 0.17369 0.0
H75 H 0.07514 0.71638 0.16648 0.0
H76 H 0.06267 0.65163 0.19166 0.0
H77 H 0.92956 0.60052 0.13524 0.0
H78 H 0.91658 0.53598 0.16084 0.0
H79 H 0.93255 0.68209 0.22467 0.0
H80 H 0.92685 0.60453 0.20734 0.0
H81 H 0.06044 0.69847 0.2634 0.0
H82 H 0.05628 0.62236 0.24535 0.0
N83 N 0.98951 0.52459 0.22685 0.0
N84 N 0.97295 0.50235 0.18583 0.0
C85 C 0.72264 0.08378 0.51429 0.0
C86 C 0.71228 0.04097 0.50092 0.0
C87 C 0.68138 0.08404 0.52494 0.0
C88 C 0.62914 0.04149 0.52238 0.0
C89 C 0.65992 -0.00148 0.49836 0.0
C90 C 0.61863 -0.00099 0.50889 0.0
C91 C 0.58501 0.04143 0.53332 0.0
C92 C 0.6832 0.02077 0.58112 0.0
C93 C 0.71185 0.06662 0.59373 0.0
C94 C 0.64193 0.01465 0.56838 0.0
C95 C 0.62848 0.05411 0.56821 0.0
C96 C 0.69833 0.10608 0.59352 0.0
C97 C 0.65648 0.09957 0.581 0.0
C98 C 0.58494 0.04792 0.55484 0.0
C99 C 0.35741 0.97821 0.56988 0.0
C100 C 0.3629 0.01201 0.58665 0.0
C101 C 0.4016 0.98734 0.55858 0.0
C102 C 0.45208 0.03068 0.56373 0.0
C103 C 0.41348 0.05525 0.59182 0.0
C104 C 0.45771 0.06426 0.58054 0.0
C105 C 0.49946 0.03881 0.55255 0.0
C106 C 0.40596 0.0715 0.5072 0.0
C107 C 0.38648 0.0366 0.48992 0.0
C108 C 0.44266 0.07077 0.52067 0.0
C109 C 0.46014 0.0347 0.51725 0.0
C110 C 0.4044 0.00085 0.48643 0.0
C111 C 0.44111 0.00012 0.49992 0.0
C112 C 0.50089 0.03537 0.5309 0.0
H113 H 0.76268 0.11695 0.51654 0.0
H114 H 0.69018 0.11767 0.535 0.0
H115 H 0.65078 0.9654 0.48793 0.0
H116 H 0.57848 0.96602 0.50661 0.0
H117 H 0.69306 0.98989 0.58101 0.0
H118 H 0.62033 0.97904 0.55874 0.0
H119 H 0.71961 0.14153 0.60327 0.0
H120 H 0.64639 0.13027 0.5811 0.0
H121 H 0.3189 0.94472 0.56549 0.0
H122 H 0.39642 0.95995 0.54603 0.0
H123 H 0.41901 0.08152 0.60485 0.0
H124 H 0.49639 0.09747 0.58496 0.0
H125 H 0.39369 0.10017 0.51008 0.0
H126 H 0.45813 0.09914 0.53353 0.0
H127 H 0.38974 0.97314 0.47335 0.0
H128 H 0.45444 0.97232 0.49688 0.0
N129 N 0.5432 0.0358 0.52212 0.0
N130 N 0.54203 0.04596 0.5637 0.0
C131 C 0.369 0.37995 0.84411 0.0
C132 C 0.33383 0.38751 0.83193 0.0
C133 C 0.40955 0.42211 0.85562 0.0
C134 C 0.41581 0.47258 0.85509 0.0
C135 C 0.34039 0.43831 0.83151 0.0
C136 C 0.38138 0.48055 0.84282 0.0
C137 C 0.45891 0.51752 0.86691 0.0
C138 C 0.3395 0.41153 0.91233 0.0
C139 C 0.36039 0.39219 0.92681 0.0
C140 C 0.37325 0.45233 0.89973 0.0
C141 C 0.42843 0.47391 0.90118 0.0
C142 C 0.41564 0.41422 0.92835 0.0
C143 C 0.44932 0.45482 0.91569 0.0
C144 C 0.46504 0.51791 0.88837 0.0
C145 C 0.63295 0.7437 0.90843 0.0
C146 C 0.65672 0.73499 0.92541 0.0
C147 C 0.59635 0.70117 0.89583 0.0
C148 C 0.58383 0.64939 0.89977 0.0
C149 C 0.64405 0.68323 0.92932 0.0
C150 C 0.60789 0.64088 0.91666 0.0
C151 C 0.54274 0.60337 0.88751 0.0
C152 C 0.67133 0.69322 0.84251 0.0
C153 C 0.65591 0.70912 0.82502 0.0
C154 C 0.63329 0.65922 0.85609 0.0
C155 C 0.57922 0.64147 0.85267 0.0
C156 C 0.60189 0.69132 0.82158 0.0
C157 C 0.5639 0.65775 0.83527 0.0
C158 C 0.53809 0.60178 0.86587 0.0
H159 H 0.36586 0.34169 0.84448 0.0
H160 H 0.43643 0.41548 0.86475 0.0
H161 H 0.31363 0.44546 0.82256 0.0
H162 H 0.38576 0.51935 0.84223 0.0
H163 H 0.29713 0.39602 0.9111 0.0
H164 H 0.35624 0.46757 0.88914 0.0
H165 H 0.43282 0.39988 0.93928 0.0
H166 H 0.49181 0.47117 0.91716 0.0
H167 H 0.64165 0.7832 0.90523 0.0
H168 H 0.57705 0.70869 0.88331 0.0
H169 H 0.66231 0.67548 0.94216 0.0
H170 H 0.59864 0.60132 0.9201 0.0
H171 H 0.71265 0.70569 0.84533 0.0
H172 H 0.64611 0.64563 0.8689 0.0
H173 H 0.58901 0.70328 0.80827 0.0
H174 H 0.52242 0.64408 0.83216 0.0
N175 N 0.49575 0.55925 0.85646 0.0
N176 N 0.50648 0.56096 0.89784 0.0
C177 C 0.01638 0.14679 0.09465 0.0
C178 C 0.97577 0.094 0.09148 0.0
C179 C 0.00979 0.18129 0.10795 0.0
C180 C 0.96126 0.1627 0.11824 0.0
C181 C 0.92021 0.10936 0.11529 0.0
C182 C 0.92802 0.0755 0.10196 0.0
C183 C 0.05465 0.23788 0.11079 0.0
C184 C 0.86784 0.08836 0.12595 0.0
C185 C 0.96787 0.24806 0.16431 0.0
C186 C 0.95163 0.28062 0.15553 0.0
C187 C 0.9691 0.20788 0.15256 0.0
C188 C 0.95343 0.19996 0.13159 0.0
C189 C 0.93472 0.23107 0.12289 0.0
C190 C 0.93427 0.27118 0.13494 0.0
C191 C 0.98929 0.17545 0.16235 0.0
C192 C 0.91752 0.22367 0.10059 0.0
H193 H 0.05351 0.16137 0.08669 0.0
H194 H 0.89646 0.03476 0.09956 0.0
H195 H 0.04155 0.26506 0.10557 0.0
H196 H 0.06587 0.24758 0.1273 0.0
H197 H 0.09043 0.24561 0.10212 0.0
H198 H 0.84062 0.04547 0.12255 0.0
H199 H 0.87453 0.09509 0.1428 0.0
H200 H 0.84805 0.11001 0.12105 0.0
H201 H 0.98045 0.25455 0.18031 0.0
H202 H 0.92226 0.29652 0.12797 0.0
H203 H 0.02755 0.18456 0.15544 0.0
H204 H 0.96095 0.13267 0.15938 0.0
H205 H -0.00439 0.18344 0.1792 0.0
H206 H 0.95241 0.23559 0.09071 0.0
H207 H 0.89918 0.24746 0.09673 0.0
H208 H 0.88859 0.18144 0.09677 0.0
C209 C 0.90457 0.02591 0.41866 0.0
C210 C 0.95658 0.04646 0.42621 0.0
C211 C 0.86457 0.02268 0.43144 0.0
C212 C 0.8768 0.03985 0.4523 0.0
C213 C 0.92871 0.05875 0.46021 0.0
C214 C 0.96811 0.06212 0.44702 0.0
C215 C 0.80973 0.00265 0.42242 0.0
C216 C 0.94296 0.07674 0.48245 0.0
C217 C 0.79127 0.08606 0.47861 0.0
C218 C 0.75567 0.04122 0.48918 0.0
C219 C 0.83122 0.08626 0.46671 0.0
C220 C 0.83592 0.04065 0.46552 0.0
C221 C 0.80072 0.99559 0.47648 0.0
C222 C 0.76075 0.99631 0.48811 0.0
C223 C 0.86771 0.13488 0.45506 0.0
C224 C 0.805 0.94652 0.47577 0.0
H225 H 0.89538 0.01384 0.40258 0.0
H226 H 0.00816 0.07771 0.45298 0.0
H227 H 0.77958 0.96967 0.43141 0.0
H228 H 0.8002 0.03467 0.42329 0.0
H229 H 0.80614 0.98868 0.40614 0.0
H230 H 0.98399 0.0867 0.48652 0.0
H231 H 0.93956 0.11217 0.48565 0.0
H232 H 0.91486 0.04548 0.49259 0.0
H233 H 0.787 0.1206 0.47925 0.0
H234 H 0.73353 0.9618 0.49646 0.0
H235 H 0.86344 0.12483 0.43834 0.0
H236 H 0.90966 0.14948 0.45951 0.0
H237 H 0.85929 0.16735 0.45789 0.0
H238 H 0.79826 0.92983 0.4598 0.0
H239 H 0.77587 0.91562 0.48582 0.0
H240 H 0.84558 0.95661 0.48059 0.0
C241 C 0.89053 0.8723 0.74674 0.0
C242 C 0.88521 0.91316 0.73881 0.0
C243 C 0.8534 0.83709 0.76047 0.0
C244 C 0.81034 0.8433 0.76651 0.0
C245 C 0.8045 0.8841 0.75838 0.0
C246 C 0.84184 0.91835 0.74456 0.0
C247 C 0.8605 0.79363 0.76869 0.0
C248 C 0.75927 0.89216 0.76456 0.0
C249 C 0.6872 0.72973 0.78903 0.0
C250 C 0.69595 0.74302 0.81009 0.0
C251 C 0.72468 0.76142 0.77468 0.0
C252 C 0.77169 0.80775 0.78158 0.0
C253 C 0.78088 0.82118 0.80284 0.0
C254 C 0.74295 0.78845 0.81687 0.0
C255 C 0.71381 0.74558 0.75214 0.0
C256 C 0.83029 0.87062 0.81074 0.0
H257 H 0.92387 0.86798 0.74232 0.0
H258 H 0.83747 0.94989 0.73855 0.0
H259 H 0.86625 0.7988 0.78561 0.0
H260 H 0.82425 0.75466 0.76541 0.0
H261 H 0.89505 0.79304 0.76193 0.0
H262 H 0.76015 0.92551 0.75668 0.0
H263 H 0.7207 0.85572 0.76093 0.0
H264 H 0.76106 0.90014 0.78138 0.0
H265 H 0.65119 0.69416 0.7838 0.0
H266 H 0.74955 0.79891 0.83315 0.0
H267 H 0.74703 0.74237 0.74552 0.0
H268 H 0.71117 0.7764 0.74376 0.0
H269 H 0.67631 0.70727 0.74939 0.0
H270 H 0.86619 0.87032 0.80548 0.0
H271 H 0.83197 0.87476 0.82777 0.0
H272 H 0.83175 0.9059 0.80443 0.0
C273 C 0.03306 0.85304 0.05772 0.0
C274 C 0.04637 0.90294 0.06608 0.0
C275 C 0.02835 0.81313 0.07031 0.0
C276 C 0.03701 0.82341 0.09175 0.0
C277 C 0.05219 0.8742 0.1002 0.0
C278 C 0.05682 0.91339 0.08726 0.0
C279 C 0.01249 0.75951 0.06076 0.0
C280 C 0.06178 0.88664 0.123 0.0
C281 C 0.9693 0.70969 0.12768 0.0
C282 C 0.01139 0.70277 0.13354 0.0
C283 C 0.97693 0.74828 0.11381 0.0
C284 C 0.02783 0.78048 0.10554 0.0
C285 C 0.07022 0.77293 0.11106 0.0
C286 C 0.06151 0.73421 0.12505 0.0
C287 C 0.93083 0.7554 0.10837 0.0
C288 C 0.1249 0.80624 0.10242 0.0
H289 H 0.02507 0.84468 0.04137 0.0
H290 H 0.06723 0.95185 0.09386 0.0
H291 H 0.04098 0.74731 0.06551 0.0
H292 H 0.97286 0.72962 0.06628 0.0
H293 H 0.01076 0.75899 0.04373 0.0
H294 H 0.07571 0.92877 0.127 0.0
H295 H 0.02452 0.86161 0.13127 0.0
H296 H 0.09177 0.87736 0.12866 0.0
H297 H 0.93065 0.6858 0.13437 0.0
H298 H 0.09396 0.72843 0.12933 0.0
H299 H 0.92436 0.75178 0.09148 0.0
H300 H 0.93994 0.7956 0.11342 0.0
H301 H 0.89341 0.72598 0.11561 0.0
H302 H 0.12264 0.80374 0.0854 0.0
H303 H 0.15299 0.79385 0.10759 0.0
H304 H 0.1412 0.84832 0.10723 0.0
C305 C 0.14755 0.9835 0.41568 0.0
C306 C 0.15181 0.02967 0.40823 0.0
C307 C 0.18719 0.9857 0.42846 0.0
C308 C 0.23219 0.0353 0.43396 0.0
C309 C 0.23724 0.08204 0.42624 0.0
C310 C 0.19695 0.07868 0.41343 0.0
C311 C 0.18051 0.93496 0.43634 0.0
C312 C 0.28474 0.13562 0.43181 0.0
C313 C 0.30521 0.04199 0.48308 0.0
C314 C 0.34777 0.03769 0.47553 0.0
C315 C 0.26786 0.04229 0.46969 0.0
C316 C 0.27318 0.03808 0.44824 0.0
C317 C 0.31639 0.03437 0.4405 0.0
C318 C 0.35321 0.03423 0.45425 0.0
C319 C 0.22216 0.04614 0.47851 0.0
C320 C 0.32336 0.02991 0.41771 0.0
H321 H 0.1129 0.94544 0.41168 0.0
H322 H 0.2005 0.11452 0.40773 0.0
H323 H 0.21514 0.93111 0.43211 0.0
H324 H 0.1789 0.93566 0.45334 0.0
H325 H 0.14384 0.89951 0.43016 0.0
H326 H 0.28354 0.16798 0.42398 0.0
H327 H 0.28643 0.14344 0.44864 0.0
H328 H 0.3219 0.1364 0.42767 0.0
H329 H 0.30049 0.04409 0.49951 0.0
H330 H 0.3865 0.03172 0.44833 0.0
H331 H 0.18407 0.00979 0.47421 0.0
H332 H 0.22094 0.0799 0.47201 0.0
H333 H 0.22495 0.05131 0.49551 0.0
H334 H 0.28876 0.99332 0.41106 0.0
H335 H 0.36004 0.02901 0.41418 0.0
H336 H 0.32494 0.0637 0.40998 0.0
C337 C 0.08158 0.15495 0.7697 0.0
C338 C 0.09822 0.1288 0.75597 0.0
C339 C 0.1183 0.19703 0.78258 0.0
C340 C 0.17268 0.21256 0.78192 0.0
C341 C 0.18953 0.18568 0.76835 0.0
C342 C 0.15214 0.1444 0.7554 0.0
C343 C 0.09909 0.22542 0.79664 0.0
C344 C 0.24709 0.20061 0.76746 0.0
C345 C 0.27843 0.35105 0.79963 0.0
C346 C 0.29117 0.34284 0.81941 0.0
C347 C 0.239 0.30919 0.78748 0.0
C348 C 0.2123 0.25766 0.79512 0.0
C349 C 0.22467 0.24902 0.81506 0.0
C350 C 0.26364 0.29179 0.82704 0.0
C351 C 0.22647 0.31998 0.76634 0.0
C352 C 0.19733 0.19446 0.82363 0.0
H353 H 0.03996 0.14317 0.77012 0.0
H354 H 0.16513 0.12402 0.74492 0.0
H355 H 0.10988 0.22386 0.81281 0.0
H356 H 0.11885 0.26771 0.79286 0.0
H357 H 0.05541 0.20816 0.79542 0.0
H358 H 0.25334 0.17451 0.75657 0.0
H359 H 0.27174 0.24199 0.76269 0.0
H360 H 0.26162 0.19848 0.78292 0.0
H361 H 0.30001 0.3901 0.79344 0.0
H362 H 0.2725 0.2852 0.84242 0.0
H363 H 0.18332 0.30507 0.76466 0.0
H364 H 0.2366 0.29867 0.75453 0.0
H365 H 0.24864 0.36277 0.76315 0.0
H366 H 0.15377 0.17789 0.8237 0.0
H367 H 0.2112 0.1945 0.8395 0.0
H368 H 0.20477 0.16762 0.81369 0.0
C369 C 0.94708 0.06364 0.65357 0.0
C370 C 0.95394 0.08478 0.67368 0.0
C371 C 0.91128 0.06549 0.63981 0.0
C372 C 0.88096 0.08813 0.64649 0.0
C373 C 0.88922 0.11139 0.66652 0.0
C374 C 0.92605 0.10986 0.67984 0.0
C375 C 0.90433 0.04123 0.61842 0.0
C376 C 0.8571 0.13528 0.67426 0.0
C377 C 0.80548 0.11843 0.60705 0.0
C378 C 0.75515 0.07275 0.60735 0.0
C379 C 0.84707 0.12408 0.61968 0.0
C380 C 0.83757 0.08346 0.63311 0.0
C381 C 0.78651 0.0376 0.63365 0.0
C382 C 0.74601 0.03261 0.62061 0.0
C383 C 0.90126 0.17304 0.61845 0.0
C384 C 0.77462 0.99378 0.648 0.0
H385 H 0.96896 0.04463 0.64869 0.0
H386 H 0.93107 0.12606 0.69541 0.0
H387 H 0.86453 0.0051 0.61674 0.0
H388 H 0.90655 0.06908 0.60685 0.0
H389 H 0.9348 0.03034 0.61495 0.0
H390 H 0.87115 0.1553 0.68964 0.0
H391 H 0.85886 0.16431 0.66338 0.0
H392 H 0.81483 0.10378 0.6753 0.0
H393 H 0.81249 0.14926 0.59665 0.0
H394 H 0.70686 -0.00246 0.62094 0.0
H395 H 0.93084 0.16182 0.61387 0.0
H396 H 0.91398 0.19367 0.63374 0.0
H397 H 0.90198 0.20105 0.60725 0.0
H398 H 0.79991 0.97663 0.64435 0.0
H399 H 0.73237 0.96159 0.647 0.0
H400 H 0.78414 0.00979 0.66408 0.0
C401 C 0.85778 0.9766 0.00191 0.0
C402 C 0.89886 0.96716 0.00679 0.0
C403 C 0.81638 0.94231 0.98826 0.0
C404 C 0.81636 0.89782 0.97928 0.0
C405 C 0.85807 0.88853 0.98395 0.0
C406 C 0.89871 0.92322 -0.00233 0.0
C407 C 0.77235 0.95322 0.98366 0.0
C408 C 0.85951 0.84155 0.97463 0.0
C409 C 0.69027 0.77497 0.9605 0.0
C410 C 0.69463 0.77947 0.93916 0.0
C411 C 0.72837 0.81458 0.9738 0.0
C412 C 0.77198 0.85959 0.96551 0.0
C413 C 0.7754 0.86542 0.944 0.0
C414 C 0.73649 0.82525 0.93105 0.0
C415 C 0.7231 0.80716 -0.00334 0.0
C416 C 0.82145 0.91282 0.93463 0.0
H417 H 0.85766 0.01051 0.00889 0.0
H418 H 0.9304 0.91571 0.00127 0.0
H419 H 0.7686 0.95588 0.96687 0.0
H420 H 0.73395 0.92008 0.98876 0.0
H421 H 0.77911 0.99045 0.99138 0.0
H422 H 0.89566 0.84093 0.97937 0.0
H423 H 0.82412 0.80439 0.9793 0.0
H424 H 0.85814 0.84199 0.95763 0.0
H425 H 0.65737 0.73996 0.9668 0.0
H426 H 0.73999 0.82866 0.91454 0.0
H427 H 0.72701 0.84282 0.00471 0.0
H428 H 0.75553 0.80169 0.00253 0.0
H429 H 0.68451 0.77233 0.00068 0.0
H430 H 0.82733 0.94991 0.9421 0.0
H431 H 0.81559 0.91389 0.91785 0.0
H432 H 0.85843 0.91186 0.93722 0.0
C433 C 0.01094 0.90642 0.32823 0.0
C434 C 0.01545 0.95194 0.31998 0.0
C435 C 0.00568 0.86472 0.31544 0.0
C436 C 0.00444 0.86843 0.29389 0.0
C437 C 0.00731 0.91351 0.28545 0.0
C438 C 0.01301 0.95489 0.29861 0.0
C439 C 0.00296 0.81733 0.325 0.0
C440 C 0.00552 0.9185 0.26252 0.0
C441 C 0.04774 0.78671 0.26243 0.0
C442 C -0.00114 0.74205 0.2567 0.0
C443 C 0.05007 0.82863 0.27419 0.0
C444 C 0.00234 0.82597 0.28024 0.0
C445 C 0.95285 0.78172 0.27404 0.0
C446 C 0.95169 0.74017 0.26239 0.0
C447 C 0.10363 0.87523 0.28054 0.0
C448 C 0.90116 0.77765 0.28015 0.0
H449 H 0.01284 0.90383 0.34473 0.0
H450 H 0.01618 0.98983 0.29213 0.0
H451 H 0.96677 0.78056 0.31946 0.0
H452 H 0.03766 0.81406 0.32031 0.0
H453 H 0.00258 0.81975 0.34204 0.0
H454 H 0.00516 0.9547 0.25846 0.0
H455 H 0.04059 0.91964 0.25549 0.0
H456 H 0.96968 0.88354 0.25563 0.0
H457 H 0.08431 0.78879 0.25779 0.0
H458 H 0.91377 0.70551 0.25822 0.0
H459 H 0.10791 0.87831 0.29752 0.0
H460 H 0.10695 0.91243 0.2755 0.0
H461 H 0.13696 0.87196 0.27401 0.0
H462 H 0.89734 0.77541 0.29706 0.0
H463 H 0.86615 0.74233 0.27293 0.0
H464 H 0.90058 0.81346 0.27573 0.0
C465 C 0.09358 0.9597 0.63867 0.0
C466 C 0.10055 0.96814 0.66003 0.0
C467 C 0.13416 0.96241 0.62636 0.0
C468 C 0.18267 0.97354 0.63567 0.0
C469 C 0.18892 0.97939 0.65729 0.0
C470 C 0.1478 0.97669 0.66922 0.0
C471 C 0.12602 0.95581 0.60333 0.0
C472 C 0.23993 0.99085 0.66779 0.0
C473 C 0.27974 0.95051 0.6049 0.0
C474 C 0.31615 0.0018 0.5989 0.0
C475 C 0.23585 0.94054 0.61679 0.0
C476 C 0.22823 0.98288 0.62275 0.0
C477 C 0.26461 0.03465 0.61659 0.0
C478 C 0.30818 0.04349 0.60476 0.0
C479 C 0.19803 0.8849 0.62318 0.0
C480 C 0.25761 0.08078 0.62255 0.0
H481 H 0.05716 0.95293 0.63143 0.0
H482 H 0.15338 0.9829 0.68573 0.0
H483 H 0.15318 0.99385 0.59618 0.0
H484 H 0.13587 0.92629 0.59715 0.0
H485 H 0.0846 0.94311 0.59862 0.0
H486 H 0.23681 0.98988 0.68477 0.0
H487 H 0.2512 0.96173 0.66245 0.0
H488 H 0.27253 0.03052 0.6637 0.0
H489 H 0.28612 0.91827 0.60059 0.0
H490 H 0.33587 0.08306 0.59993 0.0
H491 H 0.15706 0.87213 0.61787 0.0
H492 H 0.19754 0.88359 0.64017 0.0
H493 H 0.209 0.85622 0.61692 0.0
H494 H 0.21843 0.0731 0.6169 0.0
H495 H 0.28908 0.11843 0.61627 0.0
H496 H 0.25831 0.08567 0.63951 0.0
C497 C 0.13853 0.20814 0.00339 0.0
C498 C 0.13971 0.16292 0.00869 0.0
C499 C 0.17589 0.24449 0.99011 0.0
C500 C 0.21531 0.23531 0.98185 0.0
C501 C 0.21703 0.18995 0.98721 0.0
C502 C 0.17921 0.15427 0.00063 0.0
C503 C 0.17296 0.2926 0.98483 0.0
C504 C 0.25852 0.17894 0.97863 0.0
C505 C 0.2777 0.30619 0.93306 0.0
C506 C 0.3247 0.35031 0.94071 0.0
C507 C 0.24244 0.26751 0.94621 0.0
C508 C 0.25445 0.27333 0.96752 0.0
C509 C 0.3024 0.31719 0.97527 0.0
C510 C 0.337 0.35516 0.96175 0.0
C511 C 0.19179 0.22107 0.93739 0.0
C512 C 0.31635 0.32488 -0.00208 0.0
H513 H 0.10824 0.21522 0.00959 0.0
H514 H 0.18029 0.11934 0.00463 0.0
H515 H 0.21098 0.32907 0.98907 0.0
H516 H 0.16682 0.29254 0.96803 0.0
H517 H 0.14027 0.29427 0.99279 0.0
H518 H 0.25471 0.14211 0.98445 0.0
H519 H 0.2551 0.17534 0.96163 0.0
H520 H 0.29882 0.2124 0.98269 0.0
H521 H 0.26846 0.302 0.91675 0.0
H522 H 0.37303 0.38952 0.96775 0.0
H523 H 0.15708 0.2223 0.94356 0.0
H524 H 0.1882 0.18347 0.94205 0.0
H525 H 0.18986 0.22079 0.92036 0.0
H526 H 0.28695 0.33086 0.00649 0.0
H527 H 0.35658 0.35941 0.00129 0.0
H528 H 0.31457 0.28906 0.00379 0.0
C529 C 0.06097 0.19635 0.33229 0.0
C530 C 0.01433 0.15938 0.34182 0.0
C531 C 0.06114 0.23396 0.31952 0.0
C532 C 0.01363 0.23467 0.31635 0.0
C533 C 0.96683 0.19835 0.32636 0.0
C534 C 0.96773 0.16108 0.33893 0.0
C535 C 0.11175 0.27208 0.30904 0.0
C536 C 0.91548 0.19813 0.32347 0.0
C537 C 0.01762 0.35588 0.29586 0.0
C538 C 0.00263 0.34028 0.27522 0.0
C539 C 0.0224 0.32231 0.30937 0.0
C540 C 0.01207 0.27208 0.30202 0.0
C541 C -0.00217 0.25649 0.28112 0.0
C542 C 0.99319 0.29077 0.26797 0.0
C543 C 0.03736 0.34011 0.33159 0.0
C544 C 0.98678 0.20331 0.2727 0.0
H545 H 0.0971 0.1952 0.33444 0.0
H546 H 0.93159 0.13286 0.34634 0.0
H547 H 0.10606 0.26537 0.29215 0.0
H548 H 0.12185 0.31335 0.31259 0.0
H549 H 0.14582 0.2678 0.31377 0.0
H550 H 0.88319 0.16874 0.33303 0.0
H551 H 0.92156 0.23783 0.32744 0.0
H552 H 0.90237 0.18887 0.30712 0.0
H553 H 0.0245 0.39395 0.30156 0.0
H554 H 0.9824 0.27893 0.25195 0.0
H555 H 0.07252 0.33754 0.3361 0.0
H556 H 0.00431 0.31358 0.34154 0.0
H557 H 0.04644 0.3813 0.33465 0.0
H558 H 0.02129 0.19842 0.2758 0.0
H559 H 0.97825 0.1981 0.2559 0.0
H560 H 0.95222 0.17136 0.28051 0.0
loop_
_geom_bond_atom_site_label_1
_geom_bond_atom_site_label_2
_geom_bond_distance
_geom_bond_site_symmetry_2
_ccdc_geom_bond_type
C0 O1 1.160 . S
C0 O7 1.185 . S
O1 C0 1.160 . S
O2 Zn3 1.899 . S
O2 C10 1.267 1_455 S
Zn3 O2 1.899 . S
Zn3 O4 2.032 1_445 S
Zn3 O7 2.086 1_545 S
Zn3 O12 1.977 . S
O4 Zn3 2.032 1_665 S
O4 C8 1.278 . S
C5 O6 1.203 . S
C5 O12 1.267 . S
O6 C5 1.203 . S
O7 C0 1.185 . S
O7 Zn3 2.086 1_565 S
C8 O4 1.278 . S
C8 O9 1.211 1_565 S
O9 C8 1.211 1_545 S
C10 O2 1.267 1_655 S
C10 O11 1.283 . S
O11 C10 1.283 . S
O12 Zn3 1.977 . S
O12 C5 1.267 . S
C13 O14 1.160 . S
C13 O20 1.185 . S
O14 C13 1.160 . S
O15 Zn16 1.899 . S
O15 C23 1.284 1_545 S
Zn16 O15 1.899 . S
Zn16 O17 2.032 1_455 S
Zn16 O20 2.086 . S
Zn16 O25 1.977 . S
O17 Zn16 2.032 1_655 S
O17 C21 1.278 . S
C18 O19 1.203 . S
C18 O25 1.267 . S
O19 C18 1.203 . S
O20 C13 1.185 . S
O20 Zn16 2.086 . S
C21 O17 1.278 . S
C21 O22 1.211 . S
O22 C21 1.211 . S
C23 O15 1.284 1_565 S
C23 O24 1.273 1_455 S
O24 C23 1.273 1_655 S
O25 Zn16 1.977 . S
O25 C18 1.267 . S
C26 O27 1.160 . S
C26 O33 1.185 1_545 S
O27 C26 1.160 . S
O28 Zn29 1.899 1_655 S
O28 C36 1.284 . S
Zn29 O28 1.899 1_455 S
Zn29 O30 2.032 . S
Zn29 O33 2.086 1_545 S
Zn29 O38 1.977 1_445 S
O30 Zn29 2.032 . S
O30 C34 1.278 . S
C31 O32 1.203 . S
C31 O38 1.267 . S
O32 C31 1.203 . S
O33 C26 1.185 1_565 S
O33 Zn29 2.086 1_565 S
C34 O30 1.278 . S
C34 O35 1.211 . S
O35 C34 1.211 . S
C36 O28 1.284 . S
C36 O37 1.273 . S
O37 C36 1.273 . S
O38 Zn29 1.977 1_665 S
O38 C31 1.267 . S
C39 C40 1.384 1_655 S
C39 C41 1.384 . S
C39 H67 0.931 . S
C40 C39 1.384 1_455 S
C40 C43 1.382 . S
C41 C39 1.384 . S
C41 C42 1.381 1_655 S
C41 H68 0.930 . S
C42 C41 1.381 1_455 S
C42 C44 1.381 . S
C42 C45 1.487 . S
C43 C40 1.382 . S
C43 C44 1.387 . S
C43 H69 0.930 . S
C44 C42 1.381 . S
C44 C43 1.387 . S
C44 H70 0.931 . S
C45 C42 1.487 . S
C45 C52 1.399 . S
C45 N83 1.343 . S
C46 C47 1.384 . S
C46 C48 1.384 . S
C46 H71 0.931 . S
C47 C46 1.384 . S
C47 C50 1.382 1_455 S
C48 C46 1.384 . S
C48 C49 1.381 . S
C48 H72 0.930 . S
C49 C48 1.381 . S
C49 C51 1.381 1_455 S
C49 C52 1.487 . S
C50 C47 1.382 1_655 S
C50 C51 1.387 . S
C50 H73 0.930 . S
C51 C49 1.381 1_655 S
C51 C50 1.387 . S
C51 H74 0.931 . S
C52 C45 1.399 . S
C52 C49 1.487 . S
C52 N84 1.343 . S
C53 C54 1.384 . S
C53 C55 1.384 . S
C53 H75 0.931 . S
C54 C53 1.384 . S
C54 C57 1.382 1_455 S
C55 C53 1.384 . S
C55 C56 1.381 . S
C55 H76 0.930 . S
C56 C55 1.381 . S
C56 C58 1.381 1_455 S
C56 C59 1.487 . S
C57 C54 1.382 1_655 S
C57 C58 1.387 . S
C57 H77 0.930 . S
C58 C56 1.381 1_655 S
C58 C57 1.387 . S
C58 H78 0.931 . S
C59 C56 1.487 . S
C59 C66 1.399 . S
C59 N84 1.343 . S
C60 C61 1.384 1_655 S
C60 C62 1.384 . S
C60 H79 0.931 . S
C61 C60 1.384 1_455 S
C61 C64 1.382 . S
C62 C60 1.384 . S
C62 C63 1.381 1_655 S
C62 H80 0.930 . S
C63 C62 1.381 1_455 S
C63 C65 1.381 . S
C63 C66 1.487 . S
C64 C61 1.382 . S
C64 C65 1.387 . S
C64 H81 0.930 . S
C65 C63 1.381 . S
C65 C64 1.387 . S
C65 H82 0.931 . S
C66 C59 1.399 . S
C66 C63 1.487 . S
C66 N83 1.343 . S
H67 C39 0.931 . S
H68 C41 0.930 . S
H69 C43 0.930 . S
H70 C44 0.931 . S
H71 C46 0.931 . S
H72 C48 0.930 . S
H73 C50 0.930 . S
H74 C51 0.931 . S
H75 C53 0.931 . S
H76 C55 0.930 . S
H77 C57 0.930 . S
H78 C58 0.931 . S
H79 C60 0.931 . S
H80 C62 0.930 . S
H81 C64 0.930 . S
H82 C65 0.931 . S
N83 C45 1.343 . S
N83 C66 1.343 . S
N84 C52 1.343 . S
N84 C59 1.343 . S
C85 C86 1.384 . S
C85 C87 1.384 . S
C85 H113 0.931 . S
C86 C85 1.384 . S
C86 C89 1.382 1_545 S
C87 C85 1.384 . S
C87 C88 1.381 . S
C87 H114 0.930 . S
C88 C87 1.381 . S
C88 C90 1.381 1_545 S
C88 C91 1.487 . S
C89 C86 1.382 1_565 S
C89 C90 1.387 . S
C89 H115 0.930 . S
C90 C88 1.381 1_565 S
C90 C89 1.387 . S
C90 H116 0.931 . S
C91 C88 1.487 . S
C91 C98 1.399 . S
C91 N129 1.343 . S
C92 C93 1.384 1_565 S
C92 C94 1.384 . S
C92 H117 0.931 . S
C93 C92 1.384 1_545 S
C93 C96 1.382 . S
C94 C92 1.384 . S
C94 C95 1.381 1_565 S
C94 H118 0.930 . S
C95 C94 1.381 1_545 S
C95 C97 1.381 . S
C95 C98 1.487 . S
C96 C93 1.382 . S
C96 C97 1.387 . S
C96 H119 0.930 . S
C97 C95 1.381 . S
C97 C96 1.387 . S
C97 H120 0.931 . S
C98 C91 1.399 . S
C98 C95 1.487 . S
C98 N130 1.343 . S
C99 C100 1.384 1_565 S
C99 C101 1.384 . S
C99 H121 0.931 . S
C100 C99 1.384 1_545 S
C100 C103 1.382 . S
C101 C99 1.384 . S
C101 C102 1.381 1_565 S
C101 H122 0.930 . S
C102 C101 1.381 1_545 S
C102 C104 1.381 . S
C102 C105 1.487 . S
C103 C100 1.382 . S
C103 C104 1.387 . S
C103 H123 0.930 . S
C104 C102 1.381 . S
C104 C103 1.387 . S
C104 H124 0.931 . S
C105 C102 1.487 . S
C105 C112 1.399 . S
C105 N130 1.343 . S
C106 C107 1.384 . S
C106 C108 1.384 . S
C106 H125 0.931 . S
C107 C106 1.384 . S
C107 C110 1.382 1_545 S
C108 C106 1.384 . S
C108 C109 1.381 . S
C108 H126 0.930 . S
C109 C108 1.381 . S
C109 C111 1.381 1_545 S
C109 C112 1.487 . S
C110 C107 1.382 1_565 S
C110 C111 1.387 . S
C110 H127 0.930 . S
C111 C109 1.381 1_565 S
C111 C110 1.387 . S
C111 H128 0.931 . S
C112 C105 1.399 . S
C112 C109 1.487 . S
C112 N129 1.343 . S
H113 C85 0.931 . S
H114 C87 0.930 . S
H115 C89 0.930 . S
H116 C90 0.931 . S
H117 C92 0.931 . S
H118 C94 0.930 . S
H119 C96 0.930 . S
H120 C97 0.931 . S
H121 C99 0.931 . S
H122 C101 0.930 . S
H123 C103 0.930 . S
H124 C104 0.931 . S
H125 C106 0.931 . S
H126 C108 0.930 . S
H127 C110 0.930 . S
H128 C111 0.931 . S
N129 C91 1.343 . S
N129 C112 1.343 . S
N130 C98 1.343 . S
N130 C105 1.343 . S
C131 C132 1.384 . S
C131 C133 1.384 . S
C131 H159 0.931 . S
C132 C131 1.384 . S
C132 C135 1.382 . S
C133 C131 1.384 . S
C133 C134 1.381 . S
C133 H160 0.930 . S
C134 C133 1.381 . S
C134 C136 1.381 . S
C134 C137 1.487 . S
C135 C132 1.382 . S
C135 C136 1.387 . S
C135 H161 0.930 . S
C136 C134 1.381 . S
C136 C135 1.387 . S
C136 H162 0.931 . S
C137 C134 1.487 . S
C137 C144 1.399 . S
C137 N175 1.343 . S
C138 C139 1.384 . S
C138 C140 1.384 . S
C138 H163 0.931 . S
C139 C138 1.384 . S
C139 C142 1.382 . S
C140 C138 1.384 . S
C140 C141 1.381 . S
C140 H164 0.930 . S
C141 C140 1.381 . S
C141 C143 1.381 . S
C141 C144 1.487 . S
C142 C139 1.382 . S
C142 C143 1.387 . S
C142 H165 0.930 . S
C143 C141 1.381 . S
C143 C142 1.387 . S
C143 H166 0.931 . S
C144 C137 1.399 . S
C144 C141 1.487 . S
C144 N176 1.343 . S
C145 C146 1.384 . S
C145 C147 1.384 . S
C145 H167 0.931 . S
C146 C145 1.384 . S
C146 C149 1.382 . S
C147 C145 1.384 . S
C147 C148 1.381 . S
C147 H168 0.930 . S
C148 C147 1.381 . S
C148 C150 1.381 . S
C148 C151 1.487 . S
C149 C146 1.382 . S
C149 C150 1.387 . S
C149 H169 0.930 . S
C150 C148 1.381 . S
C150 C149 1.387 . S
C150 H170 0.931 . S
C151 C148 1.487 . S
C151 C158 1.399 . S
C151 N176 1.343 . S
C152 C153 1.384 . S
C152 C154 1.384 . S
C152 H171 0.931 . S
C153 C152 1.384 . S
C153 C156 1.382 . S
C154 C152 1.384 . S
C154 C155 1.381 . S
C154 H172 0.930 . S
C155 C154 1.381 . S
C155 C157 1.381 . S
C155 C158 1.487 . S
C156 C153 1.382 . S
C156 C157 1.387 . S
C156 H173 0.930 . S
C157 C155 1.381 . S
C157 C156 1.387 . S
C157 H174 0.931 . S
C158 C151 1.399 . S
C158 C155 1.487 . S
C158 N175 1.343 . S
H159 C131 0.931 . S
H160 C133 0.930 . S
H161 C135 0.930 . S
H162 C136 0.931 . S
H163 C138 0.931 . S
H164 C140 0.930 . S
H165 C142 0.930 . S
H166 C143 0.931 . S
H167 C145 0.931 . S
H168 C147 0.930 . S
H169 C149 0.930 . S
H170 C150 0.931 . S
H171 C152 0.931 . S
H172 C154 0.930 . S
H173 C156 0.930 . S
H174 C157 0.931 . S
N175 C137 1.343 . S
N175 C158 1.343 . S
N176 C144 1.343 . S
N176 C151 1.343 . S
C177 C178 1.390 1_455 S
C177 C179 1.394 . S
C177 H193 0.931 . S
C178 C177 1.390 1_655 S
C178 C182 1.378 . S
C179 C177 1.394 . S
C179 C180 1.361 1_455 S
C179 C183 1.531 . S
C180 C179 1.361 1_655 S
C180 C181 1.413 . S
C180 C188 1.507 1_655 S
C181 C180 1.413 . S
C181 C182 1.392 . S
C181 C184 1.511 . S
C182 C178 1.378 . S
C182 C181 1.392 . S
C182 H194 0.929 . S
C183 C179 1.531 . S
C183 H195 0.960 . S
C183 H196 0.962 . S
C183 H197 0.960 . S
C184 C181 1.511 . S
C184 H198 0.961 . S
C184 H199 0.961 . S
C184 H200 0.961 . S
C185 C186 1.370 . S
C185 C187 1.363 . S
C185 H201 0.931 . S
C186 C185 1.370 . S
C186 C190 1.408 1_455 S
C187 C185 1.363 . S
C187 C188 1.370 . S
C187 C191 1.524 . S
C188 C180 1.507 1_455 S
C188 C187 1.370 . S
C188 C189 1.403 1_455 S
C189 C188 1.403 1_655 S
C189 C190 1.404 . S
C189 C192 1.539 . S
C190 C186 1.408 1_655 S
C190 C189 1.404 . S
C190 H202 0.930 . S
C191 C187 1.524 . S
C191 H203 0.956 . S
C191 H204 0.961 . S
C191 H205 0.961 . S
C192 C189 1.539 . S
C192 H206 0.958 . S
C192 H207 0.961 . S
C192 H208 0.960 . S
H193 C177 0.931 . S
H194 C182 0.929 . S
H195 C183 0.960 . S
H196 C183 0.962 . S
H197 C183 0.960 . S
H198 C184 0.961 . S
H199 C184 0.961 . S
H200 C184 0.961 . S
H201 C185 0.931 . S
H202 C190 0.930 . S
H203 C191 0.956 . S
H204 C191 0.961 . S
H205 C191 0.961 . S
H206 C192 0.958 . S
H207 C192 0.961 . S
H208 C192 0.960 . S
C209 C210 1.391 . S
C209 C211 1.394 . S
C209 H225 0.931 . S
C210 C209 1.391 . S
C210 C214 1.373 1_545 S
C211 C209 1.394 . S
C211 C212 1.369 . S
C211 C215 1.531 . S
C212 C211 1.369 . S
C212 C213 1.410 1_545 S
C212 C220 1.503 . S
C213 C212 1.410 1_565 S
C213 C214 1.390 . S
C213 C216 1.511 . S
C214 C210 1.373 1_565 S
C214 C213 1.390 . S
C214 H226 0.933 . S
C215 C211 1.531 . S
C215 H227 0.960 . S
C215 H228 0.962 . S
C215 H229 0.960 . S
C216 C213 1.511 . S
C216 H230 0.961 . S
C216 H231 0.961 . S
C216 H232 0.961 . S
C217 C218 1.370 . S
C217 C219 1.363 . S
C217 H233 0.931 . S
C218 C217 1.370 . S
C218 C222 1.408 1_545 S
C219 C217 1.363 . S
C219 C220 1.370 . S
C219 C223 1.524 . S
C220 C212 1.503 . S
C220 C219 1.370 . S
C220 C221 1.403 1_545 S
C221 C220 1.403 1_565 S
C221 C222 1.404 . S
C221 C224 1.539 . S
C222 C218 1.408 1_565 S
C222 C221 1.404 . S
C222 H234 0.930 . S
C223 C219 1.524 . S
C223 H235 0.956 . S
C223 H236 0.961 . S
C223 H237 0.961 . S
C224 C221 1.539 . S
C224 H238 0.958 . S
C224 H239 0.961 . S
C224 H240 0.960 . S
H225 C209 0.931 . S
H226 C214 0.933 . S
H227 C215 0.960 . S
H228 C215 0.962 . S
H229 C215 0.960 . S
H230 C216 0.961 . S
H231 C216 0.961 . S
H232 C216 0.961 . S
H233 C217 0.931 . S
H234 C222 0.930 . S
H235 C223 0.956 . S
H236 C223 0.961 . S
H237 C223 0.961 . S
H238 C224 0.958 . S
H239 C224 0.961 . S
H240 C224 0.960 . S
C241 C242 1.391 . S
C241 C243 1.394 . S
C241 H257 0.931 . S
C242 C241 1.391 . S
C242 C246 1.376 . S
C243 C241 1.394 . S
C243 C244 1.369 . S
C243 C247 1.531 . S
C244 C243 1.369 . S
C244 C245 1.410 . S
C244 C252 1.503 . S
C245 C244 1.410 . S
C245 C246 1.392 . S
C245 C248 1.511 . S
C246 C242 1.376 . S
C246 C245 1.392 . S
C246 H258 0.929 . S
C247 C243 1.531 . S
C247 H259 0.960 . S
C247 H260 0.962 . S
C247 H261 0.960 . S
C248 C245 1.511 . S
C248 H262 0.961 . S
C248 H263 0.961 . S
C248 H264 0.961 . S
C249 C250 1.370 . S
C249 C251 1.363 . S
C249 H265 0.931 . S
C250 C249 1.370 . S
C250 C254 1.408 . S
C251 C249 1.363 . S
C251 C252 1.370 . S
C251 C255 1.524 . S
C252 C244 1.503 . S
C252 C251 1.370 . S
C252 C253 1.403 . S
C253 C252 1.403 . S
C253 C254 1.404 . S
C253 C256 1.539 . S
C254 C250 1.408 . S
C254 C253 1.404 . S
C254 H266 0.930 . S
C255 C251 1.524 . S
C255 H267 0.956 . S
C255 H268 0.961 . S
C255 H269 0.961 . S
C256 C253 1.539 . S
C256 H270 0.958 . S
C256 H271 0.961 . S
C256 H272 0.960 . S
H257 C241 0.931 . S
H258 C246 0.929 . S
H259 C247 0.960 . S
H260 C247 0.962 . S
H261 C247 0.960 . S
H262 C248 0.961 . S
H263 C248 0.961 . S
H264 C248 0.961 . S
H265 C249 0.931 . S
H266 C254 0.930 . S
H267 C255 0.956 . S
H268 C255 0.961 . S
H269 C255 0.961 . S
H270 C256 0.958 . S
H271 C256 0.961 . S
H272 C256 0.960 . S
C273 C274 1.391 . S
C273 C275 1.394 . S
C273 H289 0.931 1_455 S
C274 C273 1.391 . S
C274 C278 1.376 . S
C275 C273 1.394 . S
C275 C276 1.369 . S
C275 C279 1.531 1_455 S
C276 C275 1.369 . S
C276 C277 1.410 . S
C276 C284 1.503 . S
C277 C276 1.410 . S
C277 C278 1.392 . S
C277 C280 1.511 . S
C278 C274 1.376 . S
C278 C277 1.392 . S
C278 H290 0.929 . S
C279 C275 1.531 1_655 S
C279 H291 0.960 . S
C279 H292 0.962 . S
C279 H293 0.960 . S
C280 C277 1.511 . S
C280 H294 0.961 . S
C280 H295 0.961 . S
C280 H296 0.961 . S
C281 C282 1.370 1_655 S
C281 C283 1.363 . S
C281 H297 0.931 . S
C282 C281 1.370 1_455 S
C282 C286 1.408 . S
C283 C281 1.363 . S
C283 C284 1.370 1_655 S
C283 C287 1.524 . S
C284 C276 1.503 . S
C284 C283 1.370 1_455 S
C284 C285 1.403 . S
C285 C284 1.403 . S
C285 C286 1.404 . S
C285 C288 1.539 . S
C286 C282 1.408 . S
C286 C285 1.404 . S
C286 H298 0.930 . S
C287 C283 1.524 . S
C287 H299 0.956 . S
C287 H300 0.961 . S
C287 H301 0.961 . S
C288 C285 1.539 . S
C288 H302 0.958 . S
C288 H303 0.961 . S
C288 H304 0.960 . S
H289 C273 0.931 1_655 S
H290 C278 0.929 . S
H291 C279 0.960 . S
H292 C279 0.962 . S
H293 C279 0.960 . S
H294 C280 0.961 . S
H295 C280 0.961 . S
H296 C280 0.961 . S
H297 C281 0.931 . S
H298 C286 0.930 . S
H299 C287 0.956 . S
H300 C287 0.961 . S
H301 C287 0.961 . S
H302 C288 0.958 . S
H303 C288 0.961 . S
H304 C288 0.960 . S
C305 C306 1.391 . S
C305 C307 1.394 . S
C305 H321 0.931 1_545 S
C306 C305 1.391 . S
C306 C310 1.376 . S
C307 C305 1.394 . S
C307 C308 1.369 . S
C307 C311 1.531 1_545 S
C308 C307 1.369 . S
C308 C309 1.410 . S
C308 C316 1.503 . S
C309 C308 1.410 . S
C309 C310 1.392 . S
C309 C312 1.511 . S
C310 C306 1.376 . S
C310 C309 1.392 . S
C310 H322 0.929 . S
C311 C307 1.531 1_565 S
C311 H323 0.960 . S
C311 H324 0.962 . S
C311 H325 0.960 . S
C312 C309 1.511 . S
C312 H326 0.961 . S
C312 H327 0.961 . S
C312 H328 0.961 . S
C313 C314 1.370 . S
C313 C315 1.363 . S
C313 H329 0.931 . S
C314 C313 1.370 . S
C314 C318 1.408 . S
C315 C313 1.363 . S
C315 C316 1.370 . S
C315 C319 1.524 . S
C316 C308 1.503 . S
C316 C315 1.370 . S
C316 C317 1.403 . S
C317 C316 1.403 . S
C317 C318 1.404 . S
C317 C320 1.539 . S
C318 C314 1.408 . S
C318 C317 1.404 . S
C318 H330 0.930 . S
C319 C315 1.524 . S
C319 H331 0.956 . S
C319 H332 0.961 . S
C319 H333 0.961 . S
C320 C317 1.539 . S
C320 H334 0.958 1_545 S
C320 H335 0.961 . S
C320 H336 0.960 . S
H321 C305 0.931 1_565 S
H322 C310 0.929 . S
H323 C311 0.960 . S
H324 C311 0.962 . S
H325 C311 0.960 . S
H326 C312 0.961 . S
H327 C312 0.961 . S
H328 C312 0.961 . S
H329 C313 0.931 . S
H330 C318 0.930 . S
H331 C319 0.956 . S
H332 C319 0.961 . S
H333 C319 0.961 . S
H334 C320 0.958 1_565 S
H335 C320 0.961 . S
H336 C320 0.960 . S
C337 C338 1.391 . S
C337 C339 1.394 . S
C337 H353 0.931 . S
C338 C337 1.391 . S
C338 C342 1.376 . S
C339 C337 1.394 . S
C339 C340 1.369 . S
C339 C343 1.531 . S
C340 C339 1.369 . S
C340 C341 1.410 . S
C340 C348 1.503 . S
C341 C340 1.410 . S
C341 C342 1.392 . S
C341 C344 1.511 . S
C342 C338 1.376 . S
C342 C341 1.392 . S
C342 H354 0.929 . S
C343 C339 1.531 . S
C343 H355 0.960 . S
C343 H356 0.962 . S
C343 H357 0.960 . S
C344 C341 1.511 . S
C344 H358 0.961 . S
C344 H359 0.961 . S
C344 H360 0.961 . S
C345 C346 1.370 . S
C345 C347 1.363 . S
C345 H361 0.931 . S
C346 C345 1.370 . S
C346 C350 1.408 . S
C347 C345 1.363 . S
C347 C348 1.370 . S
C347 C351 1.524 . S
C348 C340 1.503 . S
C348 C347 1.370 . S
C348 C349 1.403 . S
C349 C348 1.403 . S
C349 C350 1.404 . S
C349 C352 1.539 . S
C350 C346 1.408 . S
C350 C349 1.404 . S
C350 H362 0.930 . S
C351 C347 1.524 . S
C351 H363 0.956 . S
C351 H364 0.961 . S
C351 H365 0.961 . S
C352 C349 1.539 . S
C352 H366 0.958 . S
C352 H367 0.961 . S
C352 H368 0.960 . S
H353 C337 0.931 . S
H354 C342 0.929 . S
H355 C343 0.960 . S
H356 C343 0.962 . S
H357 C343 0.960 . S
H358 C344 0.961 . S
H359 C344 0.961 . S
H360 C344 0.961 . S
H361 C345 0.931 . S
H362 C350 0.930 . S
H363 C351 0.956 . S
H364 C351 0.961 . S
H365 C351 0.961 . S
H366 C352 0.958 . S
H367 C352 0.961 . S
H368 C352 0.960 . S
C369 C370 1.391 . S
C369 C371 1.394 . S
C369 H385 0.931 . S
C370 C369 1.391 . S
C370 C374 1.376 . S
C371 C369 1.394 . S
C371 C372 1.369 . S
C371 C375 1.531 . S
C372 C371 1.369 . S
C372 C373 1.410 . S
C372 C380 1.503 . S
C373 C372 1.410 . S
C373 C374 1.392 . S
C373 C376 1.511 . S
C374 C370 1.376 . S
C374 C373 1.392 . S
C374 H386 0.929 . S
C375 C371 1.531 . S
C375 H387 0.960 1_545 S
C375 H388 0.962 . S
C375 H389 0.960 . S
C376 C373 1.511 . S
C376 H390 0.961 . S
C376 H391 0.961 . S
C376 H392 0.961 1_545 S
C377 C378 1.370 . S
C377 C379 1.363 . S
C377 H393 0.931 . S
C378 C377 1.370 . S
C378 C382 1.408 1_545 S
C379 C377 1.363 . S
C379 C380 1.370 . S
C379 C383 1.524 . S
C380 C372 1.503 . S
C380 C379 1.370 . S
C380 C381 1.403 1_545 S
C381 C380 1.403 1_565 S
C381 C382 1.404 . S
C381 C384 1.539 . S
C382 C378 1.408 1_565 S
C382 C381 1.404 . S
C382 H394 0.930 . S
C383 C379 1.524 . S
C383 H395 0.956 . S
C383 H396 0.961 . S
C383 H397 0.961 . S
C384 C381 1.539 . S
C384 H398 0.958 . S
C384 H399 0.961 . S
C384 H400 0.960 . S
H385 C369 0.931 . S
H386 C374 0.929 . S
H387 C375 0.960 1_565 S
H388 C375 0.962 . S
H389 C375 0.960 . S
H390 C376 0.961 . S
H391 C376 0.961 . S
H392 C376 0.961 1_565 S
H393 C377 0.931 . S
H394 C382 0.930 . S
H395 C383 0.956 . S
H396 C383 0.961 . S
H397 C383 0.961 . S
H398 C384 0.958 . S
H399 C384 0.961 . S
H400 C384 0.960 . S
C401 C402 1.391 . S
C401 C403 1.394 1_554 S
C401 H417 0.931 . S
C402 C401 1.391 . S
C402 C406 1.376 1_554 S
C403 C401 1.394 1_556 S
C403 C404 1.369 . S
C403 C407 1.531 . S
C404 C403 1.369 . S
C404 C405 1.410 . S
C404 C412 1.503 . S
C405 C404 1.410 . S
C405 C406 1.392 . S
C405 C408 1.511 . S
C406 C402 1.376 1_556 S
C406 C405 1.392 . S
C406 H418 0.929 1_556 S
C407 C403 1.531 . S
C407 H419 0.960 . S
C407 H420 0.962 . S
C407 H421 0.960 . S
C408 C405 1.511 . S
C408 H422 0.961 . S
C408 H423 0.961 . S
C408 H424 0.961 . S
C409 C410 1.370 . S
C409 C411 1.363 . S
C409 H425 0.931 . S
C410 C409 1.370 . S
C410 C414 1.408 . S
C411 C409 1.363 . S
C411 C412 1.370 . S
C411 C415 1.524 . S
C412 C404 1.503 . S
C412 C411 1.370 . S
C412 C413 1.403 . S
C413 C412 1.403 . S
C413 C414 1.404 . S
C413 C416 1.539 . S
C414 C410 1.408 . S
C414 C413 1.404 . S
C414 H426 0.930 . S
C415 C411 1.524 . S
C415 H427 0.956 1_556 S
C415 H428 0.961 1_556 S
C415 H429 0.961 1_556 S
C416 C413 1.539 . S
C416 H430 0.958 . S
C416 H431 0.961 . S
C416 H432 0.960 . S
H417 C401 0.931 . S
H418 C406 0.929 1_554 S
H419 C407 0.960 . S
H420 C407 0.962 . S
H421 C407 0.960 . S
H422 C408 0.961 . S
H423 C408 0.961 . S
H424 C408 0.961 . S
H425 C409 0.931 . S
H426 C414 0.930 . S
H427 C415 0.956 1_554 S
H428 C415 0.961 1_554 S
H429 C415 0.961 1_554 S
H430 C416 0.958 . S
H431 C416 0.961 . S
H432 C416 0.960 . S
C433 C434 1.391 . S
C433 C435 1.394 . S
C433 H449 0.931 . S
C434 C433 1.391 . S
C434 C438 1.376 1_455 S
C435 C433 1.394 . S
C435 C436 1.369 . S
C435 C439 1.531 . S
C436 C435 1.369 . S
C436 C437 1.410 1_455 S
C436 C444 1.503 . S
C437 C436 1.410 1_655 S
C437 C438 1.392 . S
C437 C440 1.511 . S
C438 C434 1.376 1_655 S
C438 C437 1.392 . S
C438 H450 0.929 . S
C439 C435 1.531 . S
C439 H451 0.960 . S
C439 H452 0.962 . S
C439 H453 0.960 . S
C440 C437 1.511 . S
C440 H454 0.961 . S
C440 H455 0.961 . S
C440 H456 0.961 . S
C441 C442 1.370 . S
C441 C443 1.363 . S
C441 H457 0.931 . S
C442 C441 1.370 . S
C442 C446 1.408 1_455 S
C443 C441 1.363 . S
C443 C444 1.370 . S
C443 C447 1.524 . S
C444 C436 1.503 . S
C444 C443 1.370 . S
C444 C445 1.403 1_455 S
C445 C444 1.403 1_655 S
C445 C446 1.404 . S
C445 C448 1.539 . S
C446 C442 1.408 1_655 S
C446 C445 1.404 . S
C446 H458 0.930 . S
C447 C443 1.524 . S
C447 H459 0.956 . S
C447 H460 0.961 . S
C447 H461 0.961 . S
C448 C445 1.539 . S
C448 H462 0.958 . S
C448 H463 0.961 . S
C448 H464 0.960 . S
H449 C433 0.931 . S
H450 C438 0.929 . S
H451 C439 0.960 . S
H452 C439 0.962 . S
H453 C439 0.960 . S
H454 C440 0.961 . S
H455 C440 0.961 . S
H456 C440 0.961 . S
H457 C441 0.931 . S
H458 C446 0.930 . S
H459 C447 0.956 . S
H460 C447 0.961 . S
H461 C447 0.961 . S
H462 C448 0.958 . S
H463 C448 0.961 . S
H464 C448 0.960 . S
C465 C466 1.391 . S
C465 C467 1.394 . S
C465 H481 0.931 . S
C466 C465 1.391 . S
C466 C470 1.376 1_545 S
C467 C465 1.394 . S
C467 C468 1.369 . S
C467 C471 1.531 . S
C468 C467 1.369 . S
C468 C469 1.410 1_545 S
C468 C476 1.503 . S
C469 C468 1.410 1_565 S
C469 C470 1.392 . S
C469 C472 1.511 . S
C470 C466 1.376 1_565 S
C470 C469 1.392 . S
C470 H482 0.929 . S
C471 C467 1.531 . S
C471 H483 0.960 . S
C471 H484 0.962 . S
C471 H485 0.960 . S
C472 C469 1.511 . S
C472 H486 0.961 . S
C472 H487 0.961 . S
C472 H488 0.961 . S
C473 C474 1.370 1_565 S
C473 C475 1.363 . S
C473 H489 0.931 . S
C474 C473 1.370 1_545 S
C474 C478 1.408 . S
C475 C473 1.363 . S
C475 C476 1.370 1_565 S
C475 C479 1.524 . S
C476 C468 1.503 . S
C476 C475 1.370 1_545 S
C476 C477 1.403 . S
C477 C476 1.403 . S
C477 C478 1.404 . S
C477 C480 1.539 . S
C478 C474 1.408 . S
C478 C477 1.404 . S
C478 H490 0.930 . S
C479 C475 1.524 . S
C479 H491 0.956 . S
C479 H492 0.961 . S
C479 H493 0.961 . S
C480 C477 1.539 . S
C480 H494 0.958 . S
C480 H495 0.961 . S
C480 H496 0.960 . S
H481 C465 0.931 . S
H482 C470 0.929 . S
H483 C471 0.960 . S
H484 C471 0.962 . S
H485 C471 0.960 . S
H486 C472 0.961 . S
H487 C472 0.961 . S
H488 C472 0.961 . S
H489 C473 0.931 . S
H490 C478 0.930 . S
H491 C479 0.956 . S
H492 C479 0.961 . S
H493 C479 0.961 . S
H494 C480 0.958 . S
H495 C480 0.961 . S
H496 C480 0.960 . S
C497 C498 1.391 . S
C497 C499 1.381 1_554 S
C497 H513 0.931 . S
C498 C497 1.391 . S
C498 C502 1.376 1_554 S
C499 C497 1.381 1_556 S
C499 C500 1.383 . S
C499 C503 1.529 1_556 S
C500 C499 1.383 . S
C500 C501 1.410 . S
C500 C508 1.503 . S
C501 C500 1.410 . S
C501 C502 1.392 . S
C501 C504 1.511 . S
C502 C498 1.376 1_556 S
C502 C501 1.392 . S
C502 H514 0.929 . S
C503 C499 1.529 1_554 S
C503 H515 0.957 1_554 S
C503 H516 0.962 1_554 S
C503 H517 0.960 . S
C504 C501 1.511 . S
C504 H518 0.961 . S
C504 H519 0.961 . S
C504 H520 0.961 . S
C505 C506 1.370 . S
C505 C507 1.363 . S
C505 H521 0.931 . S
C506 C505 1.370 . S
C506 C510 1.408 . S
C507 C505 1.363 . S
C507 C508 1.370 . S
C507 C511 1.524 . S
C508 C500 1.503 . S
C508 C507 1.370 . S
C508 C509 1.403 . S
C509 C508 1.403 . S
C509 C510 1.404 . S
C509 C512 1.539 . S
C510 C506 1.408 . S
C510 C509 1.404 . S
C510 H522 0.930 . S
C511 C507 1.524 . S
C511 H523 0.956 . S
C511 H524 0.961 . S
C511 H525 0.961 . S
C512 C509 1.539 . S
C512 H526 0.958 1_556 S
C512 H527 0.961 . S
C512 H528 0.960 . S
H513 C497 0.931 . S
H514 C502 0.929 . S
H515 C503 0.957 1_556 S
H516 C503 0.962 1_556 S
H517 C503 0.960 . S
H518 C504 0.961 . S
H519 C504 0.961 . S
H520 C504 0.961 . S
H521 C505 0.931 . S
H522 C510 0.930 . S
H523 C511 0.956 . S
H524 C511 0.961 . S
H525 C511 0.961 . S
H526 C512 0.958 1_554 S
H527 C512 0.961 . S
H528 C512 0.960 . S
C529 C530 1.391 . S
C529 C531 1.394 . S
C529 H545 0.931 . S
C530 C529 1.391 . S
C530 C534 1.376 . S
C531 C529 1.394 . S
C531 C532 1.369 . S
C531 C535 1.531 . S
C532 C531 1.369 . S
C532 C533 1.410 1_455 S
C532 C540 1.503 . S
C533 C532 1.410 1_655 S
C533 C534 1.392 1_655 S
C533 C536 1.511 . S
C534 C530 1.376 . S
C534 C533 1.392 1_455 S
C534 H546 0.929 1_455 S
C535 C531 1.531 . S
C535 H547 0.960 . S
C535 H548 0.962 . S
C535 H549 0.960 . S
C536 C533 1.511 . S
C536 H550 0.961 . S
C536 H551 0.961 . S
C536 H552 0.961 . S
C537 C538 1.370 . S
C537 C539 1.363 . S
C537 H553 0.931 . S
C538 C537 1.370 . S
C538 C542 1.408 . S
C539 C537 1.363 . S
C539 C540 1.370 . S
C539 C543 1.524 . S
C540 C532 1.503 . S
C540 C539 1.370 . S
C540 C541 1.403 . S
C541 C540 1.403 . S
C541 C542 1.404 . S
C541 C544 1.539 . S
C542 C538 1.408 . S
C542 C541 1.404 . S
C542 H554 0.930 . S
C543 C539 1.524 . S
C543 H555 0.956 . S
C543 H556 0.961 1_455 S
C543 H557 0.961 . S
C544 C541 1.539 . S
C544 H558 0.958 . S
C544 H559 0.961 . S
C544 H560 0.960 . S
H545 C529 0.931 . S
H546 C534 0.929 1_655 S
H547 C535 0.960 . S
H548 C535 0.962 . S
H549 C535 0.960 . S
H550 C536 0.961 . S
H551 C536 0.961 . S
H552 C536 0.961 . S
H553 C537 0.931 . S
H554 C542 0.930 . S
H555 C543 0.956 . S
H556 C543 0.961 1_655 S
H557 C543 0.961 . S
H558 C544 0.958 . S
H559 C544 0.961 . S
H560 C544 0.960 . S
C186 C47 1.402 . S
C178 C10 1.398 . S
C210 C21 1.444 . S
C218 C86 1.456 . S
C242 C31 1.399 . S
C250 C153 1.446 . S
C274 C0 1.404 . S
C282 C54 1.422 . S
C314 C107 1.447 . S
C306 C18 1.364 . S
C338 C34 1.363 . S
C346 C132 1.419 . S
C378 C93 1.392 . S
C370 C36 1.388 . S
C402 C8 1.364 . S
C410 C146 1.419 . S
C442 C61 1.406 . S
C434 C23 1.396 . S
C474 C100 1.368 . S
C466 C26 1.325 . S
C506 C139 1.442 . S
C498 C5 1.390 . S
C530 C13 1.352 . S
C538 C40 1.422 . S
