# Generated by pormake.
# Topology pyr, (3,6)-cn, num edge types: 1
# Building blocks:
#     Node 0, Type 0, BuildingBlock: QEWDON_clean_linker_0, # of connection points: 3
#     Node 1, Type 0, BuildingBlock: QEWDON_clean_linker_0, # of connection points: 3
#     Node 2, Type 0, BuildingBlock: QEWDON_clean_linker_0, # of connection points: 3
#     Node 3, Type 0, BuildingBlock: QEWDON_clean_linker_0, # of connection points: 3
#     Node 4, Type 0, BuildingBlock: QEWDON_clean_linker_0, # of connection points: 3
#     Node 5, Type 0, BuildingBlock: QEWDON_clean_linker_0, # of connection points: 3
#     Node 6, Type 0, BuildingBlock: QEWDON_clean_linker_0, # of connection points: 3
#     Node 7, Type 0, BuildingBlock: QEWDON_clean_linker_0, # of connection points: 3
#     Node 8, Type 1, BuildingBlock: BETDEL_clean_sbu_0, # of connection points: 6
#     Node 9, Type 1, BuildingBlock: BETDEL_clean_sbu_0, # of connection points: 6
#     Node 10, Type 1, BuildingBlock: BETDEL_clean_sbu_0, # of connection points: 6
#     Node 11, Type 1, BuildingBlock: BETDEL_clean_sbu_0, # of connection points: 6
#     Edge 12, Type (0, 1), BuildingBlock: ZUJKAS_clean_linker_0, # of connection points: 2
#     Edge 13, Type (0, 1), BuildingBlock: ZUJKAS_clean_linker_0, # of connection points: 2
#     Edge 14, Type (0, 1), BuildingBlock: ZUJKAS_clean_linker_0, # of connection points: 2
#     Edge 15, Type (0, 1), BuildingBlock: ZUJKAS_clean_linker_0, # of connection points: 2
#     Edge 16, Type (0, 1), BuildingBlock: ZUJKAS_clean_linker_0, # of connection points: 2
#     Edge 17, Type (0, 1), BuildingBlock: ZUJKAS_clean_linker_0, # of connection points: 2
#     Edge 18, Type (0, 1), BuildingBlock: ZUJKAS_clean_linker_0, # of connection points: 2
#     Edge 19, Type (0, 1), BuildingBlock: ZUJKAS_clean_linker_0, # of connection points: 2
#     Edge 20, Type (0, 1), BuildingBlock: ZUJKAS_clean_linker_0, # of connection points: 2
#     Edge 21, Type (0, 1), BuildingBlock: ZUJKAS_clean_linker_0, # of connection points: 2
#     Edge 22, Type (0, 1), BuildingBlock: ZUJKAS_clean_linker_0, # of connection points: 2
#     Edge 23, Type (0, 1), BuildingBlock: ZUJKAS_clean_linker_0, # of connection points: 2
#     Edge 24, Type (0, 1), BuildingBlock: ZUJKAS_clean_linker_0, # of connection points: 2
#     Edge 25, Type (0, 1), BuildingBlock: ZUJKAS_clean_linker_0, # of connection points: 2
#     Edge 26, Type (0, 1), BuildingBlock: ZUJKAS_clean_linker_0, # of connection points: 2
#     Edge 27, Type (0, 1), BuildingBlock: ZUJKAS_clean_linker_0, # of connection points: 2
#     Edge 28, Type (0, 1), BuildingBlock: ZUJKAS_clean_linker_0, # of connection points: 2
#     Edge 29, Type (0, 1), BuildingBlock: ZUJKAS_clean_linker_0, # of connection points: 2
#     Edge 30, Type (0, 1), BuildingBlock: ZUJKAS_clean_linker_0, # of connection points: 2
#     Edge 31, Type (0, 1), BuildingBlock: ZUJKAS_clean_linker_0, # of connection points: 2
#     Edge 32, Type (0, 1), BuildingBlock: ZUJKAS_clean_linker_0, # of connection points: 2
#     Edge 33, Type (0, 1), BuildingBlock: ZUJKAS_clean_linker_0, # of connection points: 2
#     Edge 34, Type (0, 1), BuildingBlock: ZUJKAS_clean_linker_0, # of connection points: 2
#     Edge 35, Type (0, 1), BuildingBlock: ZUJKAS_clean_linker_0, # of connection points: 2
# Relax obj value: 0.117
# Max RMSD: 0.264
# Mean RMSD: 0.191
data_MOF--net-pyr--node1-BETDEL_clean_sbu_0--node2-QEWDON_clean_linker_0--edge1-ZUJKAS_clean_linker_0
_symmetry_space_group_name_H-M    P1
_symmetry_Int_Tables_number       1
_symmetry_cell_setting            triclinic
loop_
_symmetry_equiv_pos_as_xyz
'x, y, z'
_cell_length_a     47.172569
_cell_length_b     49.434854
_cell_length_c     48.367447
_cell_angle_alpha  91.88436
_cell_angle_beta   90.086264
_cell_angle_gamma 103.05537
loop_
_atom_site_label
_atom_site_type_symbol
_atom_site_fract_x
_atom_site_fract_y
_atom_site_fract_z
_atom_type_partial_charge
H0 H 0.25777 0.24204 0.17362 0.0
C1 C 0.24159 0.23161 0.18794 0.0
C2 C 0.24057 0.20392 0.19436 0.0
C3 C 0.22228 0.24623 0.20017 0.0
H4 H 0.21904 0.16951 0.21843 0.0
C5 C 0.21964 0.19077 0.21317 0.0
C6 C 0.20043 0.20521 0.22616 0.0
C7 C 0.20159 0.23287 0.21904 0.0
C8 C 0.22638 0.27641 0.19573 0.0
H9 H 0.18775 0.24467 0.22947 0.0
C10 C 0.20348 0.28794 0.18634 0.0
C11 C 0.20821 0.31679 0.1823 0.0
C12 C 0.25385 0.29391 0.20111 0.0
H13 H 0.27171 0.28553 0.20848 0.0
C14 C 0.25853 0.32237 0.19734 0.0
H15 H 0.18225 0.27456 0.18208 0.0
C16 C 0.23596 0.33376 0.188 0.0
H17 H 0.2404 0.35589 0.18472 0.0
H18 H 0.27979 0.33566 0.20154 0.0
H19 H 0.28584 0.8759 0.75458 0.0
C20 C 0.29937 0.86372 0.74425 0.0
C21 C 0.3262 0.862 0.75617 0.0
C22 C 0.28886 0.84794 0.72013 0.0
H23 H 0.36367 0.84396 0.7516 0.0
C24 C 0.34274 0.845 0.74298 0.0
C25 C 0.33252 0.82904 0.71895 0.0
C26 C 0.30563 0.83083 0.70758 0.0
C27 C 0.25861 0.84559 0.71022 0.0
H28 H 0.297 0.81789 0.6896 0.0
C29 C 0.24934 0.86817 0.69892 0.0
C30 C 0.22103 0.86419 0.68751 0.0
C31 C 0.23908 0.81957 0.71097 0.0
H32 H 0.24573 0.80201 0.71965 0.0
C33 C 0.21093 0.81584 0.70043 0.0
H34 H 0.26435 0.88825 0.69794 0.0
C35 C 0.202 0.83789 0.68861 0.0
H36 H 0.18009 0.83439 0.68025 0.0
H37 H 0.19607 0.79569 0.70112 0.0
H38 H 0.65921 0.4494 0.93614 0.0
C39 C 0.65261 0.42804 0.94239 0.0
C40 C 0.67327 0.41474 0.95337 0.0
C41 C 0.6231 0.41441 0.94091 0.0
H42 H 0.68015 0.37664 0.96976 0.0
C43 C 0.66421 0.38729 0.96199 0.0
C44 C 0.63484 0.3733 0.96025 0.0
C45 C 0.61436 0.38708 0.94983 0.0
C46 C 0.60111 0.42911 0.93128 0.0
H47 H 0.59152 0.37665 0.94888 0.0
C48 C 0.60308 0.44048 0.90491 0.0
C49 C 0.58164 0.45384 0.89552 0.0
C50 C 0.57779 0.43147 0.94847 0.0
H51 H 0.57596 0.4229 0.96889 0.0
C52 C 0.55685 0.44521 0.93957 0.0
H53 H 0.62073 0.43801 0.89143 0.0
C54 C 0.5587 0.45634 0.91332 0.0
H55 H 0.54219 0.46698 0.907 0.0
H56 H 0.53908 0.44719 0.95304 0.0
H57 H 0.85477 0.74621 0.34325 0.0
C58 C 0.84104 0.73445 0.35869 0.0
C59 C 0.84609 0.74154 0.38697 0.0
C60 C 0.81735 0.71315 0.35011 0.0
H61 H 0.83102 0.73169 0.4284 0.0
C62 C 0.82774 0.72616 0.40658 0.0
C63 C 0.80423 0.70451 0.39827 0.0
C64 C 0.79918 0.69817 0.36995 0.0
C65 C 0.80988 0.70819 0.32042 0.0
H66 H 0.78048 0.68218 0.36322 0.0
C67 C 0.82975 0.70082 0.30162 0.0
C68 C 0.82231 0.69583 0.27338 0.0
C69 C 0.78258 0.71088 0.31087 0.0
H70 H 0.76703 0.71668 0.32505 0.0
C71 C 0.77531 0.70656 0.28288 0.0
H72 H 0.85052 0.69812 0.30923 0.0
C73 C 0.79498 0.69912 0.26422 0.0
H74 H 0.78879 0.69605 0.24258 0.0
H75 H 0.75433 0.70895 0.27561 0.0
H76 H 0.83531 0.84398 0.93285 0.0
C77 C 0.84581 0.85803 0.91728 0.0
C78 C 0.87491 0.85896 0.91019 0.0
C79 C 0.82951 0.87401 0.90346 0.0
H80 H 0.90975 0.87677 0.88281 0.0
C81 C 0.88754 0.87628 0.88885 0.0
C82 C 0.87135 0.8921 0.87444 0.0
C83 C 0.84239 0.89113 0.88222 0.0
C84 C 0.79795 0.86968 0.90877 0.0
H85 H 0.82949 0.90285 0.87108 0.0
C86 C 0.78583 0.89077 0.9209 0.0
C87 C 0.75581 0.88544 0.92693 0.0
C88 C 0.77988 0.8436 0.9021 0.0
H89 H 0.78883 0.82718 0.89272 0.0
C90 C 0.75016 0.8385 0.90731 0.0
H91 H 0.79983 0.91078 0.92646 0.0
C92 C 0.73818 0.85917 0.91965 0.0
H93 H 0.71498 0.8546 0.9234 0.0
H94 H 0.73635 0.81838 0.9019 0.0
H95 H 0.74836 0.20691 0.46177 0.0
C96 C 0.7407 0.20484 0.44049 0.0
C97 C 0.75473 0.19119 0.42065 0.0
C98 C 0.71638 0.21527 0.43343 0.0
H99 H 0.75461 0.17748 0.37786 0.0
C100 C 0.74432 0.18847 0.3932 0.0
C101 C 0.71993 0.19874 0.38565 0.0
C102 C 0.70641 0.21258 0.40589 0.0
C103 C 0.69938 0.22547 0.45571 0.0
H104 H 0.68694 0.21958 0.40067 0.0
C105 C 0.69194 0.25156 0.4549 0.0
C106 C 0.67663 0.26087 0.47706 0.0
C107 C 0.69062 0.20855 0.47836 0.0
H108 H 0.69573 0.1883 0.4793 0.0
C109 C 0.6749 0.21734 0.49984 0.0
H110 H 0.69887 0.26485 0.43765 0.0
C111 C 0.66798 0.24324 0.49927 0.0
H112 H 0.65561 0.24942 0.51624 0.0
H113 H 0.66808 0.20402 0.51706 0.0
H114 H 0.43607 0.73456 0.20219 0.0
C115 C 0.41285 0.72565 0.20144 0.0
C116 C 0.39375 0.7412 0.1915 0.0
C117 C 0.40218 0.69857 0.21044 0.0
H118 H 0.34927 0.74057 0.18117 0.0
C119 C 0.36383 0.7292 0.19034 0.0
C120 C 0.35281 0.70198 0.19891 0.0
C121 C 0.37215 0.68691 0.20943 0.0
C122 C 0.42273 0.6818 0.2189 0.0
H123 H 0.36404 0.66578 0.21585 0.0
C124 C 0.4221 0.67159 0.24573 0.0
C125 C 0.44244 0.65635 0.25385 0.0
C126 C 0.44343 0.67631 0.2 0.0
H127 H 0.44417 0.68397 0.17922 0.0
C128 C 0.46311 0.66064 0.20767 0.0
H129 H 0.40651 0.67642 0.26046 0.0
C130 C 0.46268 0.65072 0.23437 0.0
H131 H 0.4782 0.63856 0.23975 0.0
H132 H 0.47884 0.65625 0.19291 0.0
H133 H 0.22836 0.40722 0.76102 0.0
C134 C 0.21358 0.39212 0.74795 0.0
C135 C 0.21758 0.39151 0.71913 0.0
C136 C 0.19193 0.37188 0.76015 0.0
H137 H 0.20186 0.37019 0.68042 0.0
C138 C 0.19901 0.37096 0.70265 0.0
C139 C 0.17698 0.35109 0.71466 0.0
C140 C 0.17348 0.35165 0.74339 0.0
C141 C 0.19032 0.36994 0.79049 0.0
H142 H 0.15709 0.3357 0.75282 0.0
C143 C 0.18297 0.39116 0.80704 0.0
C144 C 0.17992 0.3883 0.83583 0.0
C145 C 0.19535 0.34615 0.80287 0.0
H146 H 0.20109 0.32961 0.79038 0.0
C147 C 0.19313 0.34356 0.83144 0.0
H148 H 0.17848 0.40924 0.79737 0.0
C149 C 0.18537 0.36442 0.84786 0.0
H150 H 0.1836 0.36186 0.86999 0.0
H151 H 0.1972 0.32523 0.84087 0.0
Dy152 Dy 0.03156 0.06148 0.51453 0.0
C153 C 0.98794 0.01085 0.61969 0.0
C154 C 0.05088 0.08933 0.46786 0.0
Dy155 Dy 1.00121 0.03647 0.57054 0.0
O156 O 0.06567 0.09074 0.49079 0.0
O157 O 0.02535 0.07285 0.47051 0.0
O158 O 0.06275 0.03312 0.51725 0.0
O159 O 0.04513 0.04636 0.55344 0.0
C160 C 0.06035 0.03042 0.54383 0.0
C161 C 0.96539 0.06037 0.54046 0.0
O162 O 0.02333 0.0793 0.58521 0.0
O163 O 0.03482 0.09949 0.54224 0.0
O164 O 0.97417 0.0034 0.59642 0.0
O165 O 0.00935 0.03214 0.61605 0.0
O166 O 0.9584 0.04952 0.56431 0.0
O167 O 0.99058 0.05752 0.53513 0.0
O168 O 1.0025 0.02164 0.49967 0.0
O169 O 0.99911 0.99944 0.5417 0.0
C170 C 0.03295 0.1011 0.56967 0.0
C171 C 0.99595 0.99891 0.51436 0.0
Dy172 Dy 0.53257 0.0685 0.09217 0.0
C173 C 0.45377 0.00445 0.00611 0.0
C174 C 0.56264 0.09958 0.13508 0.0
Dy175 Dy 0.49083 0.03953 0.04179 0.0
O176 O 0.53911 0.08022 0.13734 0.0
O177 O 0.56976 0.1023 0.10912 0.0
O178 O 0.53547 0.02625 0.10504 0.0
O179 O 0.49738 0.03118 0.08528 0.0
C180 C 0.51046 0.0137 0.0945 0.0
C181 C 0.52024 0.09146 0.03022 0.0
O182 O 0.45936 0.05382 0.07026 0.0
O183 O 0.49283 0.08627 0.09705 0.0
O184 O 0.45217 0.02967 0.01306 0.0
O185 O 0.47533 0.99802 0.01928 0.0
O186 O 0.50238 0.07569 0.0128 0.0
O187 O 0.52085 0.07801 0.05155 0.0
O188 O 0.565 0.05776 0.06231 0.0
O189 O 0.53234 0.02531 0.03456 0.0
C190 C 0.46576 0.07507 0.08848 0.0
C191 C 0.55926 0.0375 0.04289 0.0
Dy192 Dy 0.52627 0.53299 0.5621 0.0
C193 C 0.48255 0.62509 0.6097 0.0
C194 C 0.55306 0.49299 0.54132 0.0
Dy195 Dy 0.51025 0.58582 0.58892 0.0
O196 O 0.5298 0.48842 0.55638 0.0
O197 O 0.56175 0.51948 0.53758 0.0
O198 O 0.47878 0.512 0.56047 0.0
O199 O 0.49498 0.54125 0.59242 0.0
C200 C 0.47225 0.52615 0.58174 0.0
C201 C 0.56423 0.59263 0.56906 0.0
O202 O 0.52564 0.56825 0.62645 0.0
O203 O 0.54966 0.53796 0.60339 0.0
O204 O 0.50793 0.6303 0.59809 0.0
O205 O 0.47233 0.5984 0.61003 0.0
O206 O 0.55781 0.60694 0.59026 0.0
O207 O 0.54139 0.57753 0.55862 0.0
O208 O 0.51009 0.54991 0.52451 0.0
O209 O 0.48777 0.58176 0.54727 0.0
C210 C 0.54345 0.55095 0.62635 0.0
C211 C 0.49309 0.56796 0.52449 0.0
Dy212 Dy 0.02433 0.54228 0.05542 0.0
C213 C 1.00389 0.64763 0.02028 0.0
C214 C 0.04221 0.49503 0.06788 0.0
Dy215 Dy 0.02057 0.60017 0.03414 0.0
O216 O 0.02468 0.50623 0.08268 0.0
O217 O 0.04966 0.50943 0.04601 0.0
O218 O 0.98794 0.54351 0.08478 0.0
O219 O 0.01665 0.58075 0.07407 0.0
C220 C 0.99361 0.5705 0.08678 0.0
C221 C 0.05132 0.57155 1.00323 0.0
O222 O 0.05902 0.61387 0.0624 0.0
O223 O 0.06777 0.56972 0.06733 0.0
O224 O 0.01861 0.63403 1.00466 0.0
O225 O 0.99855 0.63549 0.04374 0.0
O226 O 0.0577 0.59853 0.00553 0.0
O227 O 0.02802 0.56172 0.01566 0.0
O228 O 0.98569 0.52872 0.0276 0.0
O229 O 0.97658 0.57282 0.02345 0.0
C230 C 0.07564 0.5972 0.07059 0.0
C231 C 0.96869 0.54533 0.02017 0.0
H232 H 0.2128 0.17201 0.26666 0.0
H233 H 0.18209 0.15213 0.30473 0.0
H234 H 0.11402 0.1901 0.27655 0.0
H235 H 0.1444 0.20963 0.23771 0.0
H236 H 0.12836 0.19888 0.33463 0.0
H237 H 0.10846 0.08759 0.3017 0.0
H238 H 0.14608 0.10556 0.30135 0.0
H239 H 0.12065 0.11537 0.27813 0.0
C240 C 0.19106 0.17567 0.26805 0.0
C241 C 0.18103 0.19224 0.2488 0.0
C242 C 0.17356 0.16435 0.28997 0.0
C243 C 0.14564 0.16932 0.29328 0.0
C244 C 0.13548 0.1859 0.27429 0.0
H245 H 0.02463 0.08367 0.41693 0.0
H246 H 0.04498 0.10438 0.37376 0.0
C247 C 0.15294 0.19714 0.25218 0.0
C248 C 0.12773 0.15808 0.31729 0.0
H249 H 0.09736 0.09751 0.34856 0.0
C250 C 0.12129 0.17673 0.33755 0.0
C251 C 0.11826 0.12917 0.32094 0.0
C252 C 0.12344 0.1082 0.29928 0.0
C253 C 0.10666 0.16721 0.36191 0.0
C254 C 0.09849 0.13832 0.36617 0.0
C255 C 0.10386 0.11966 0.34538 0.0
C256 C 0.08544 0.12702 0.39251 0.0
C257 C 0.10022 0.18815 0.38297 0.0
C258 C 0.10147 0.13281 0.41733 0.0
C259 C 0.08997 0.12094 0.44192 0.0
C260 C 0.06222 0.10303 0.44214 0.0
C261 C 0.04603 0.09749 0.41737 0.0
C262 C 0.05763 0.10926 0.39272 0.0
H263 H 0.10069 0.20848 0.37361 0.0
H264 H 0.07861 0.18053 0.3925 0.0
H265 H 0.11697 0.19158 0.39964 0.0
H266 H 0.12317 0.14605 0.41757 0.0
H267 H 0.10298 0.12547 0.46068 0.0
H268 H 0.32328 0.91461 0.77491 0.0
H269 H 0.34199 0.93811 0.81898 0.0
H270 H 0.37074 0.86531 0.84261 0.0
H271 H 0.35166 0.84153 0.79923 0.0
H272 H 0.32894 0.91874 0.8769 0.0
H273 H 0.4449 0.93125 0.8473 0.0
H274 H 0.41565 0.92497 0.8221 0.0
H275 H 0.42225 0.89696 0.842 0.0
C276 C 0.33333 0.90352 0.7896 0.0
C277 C 0.33637 0.87632 0.78325 0.0
C278 C 0.34409 0.917 0.81472 0.0
C279 C 0.35815 0.90358 0.83383 0.0
C280 C 0.36045 0.87622 0.82792 0.0
H281 H 0.45637 0.95236 0.98692 0.0
H282 H 0.43089 0.92668 0.94646 0.0
C283 C 0.34965 0.86273 0.80299 0.0
C284 C 0.37089 0.91808 0.85987 0.0
H285 H 0.43563 0.94295 0.89363 0.0
C286 C 0.35226 0.9242 0.88057 0.0
C287 C 0.40129 0.92494 0.86464 0.0
C288 C 0.4223 0.91943 0.84281 0.0
C289 C 0.36325 0.93656 0.90618 0.0
C290 C 0.39373 0.94356 0.91093 0.0
C291 C 0.41229 0.93747 0.89011 0.0
C292 C 0.40704 0.95791 0.93696 0.0
C293 C 0.34204 0.9413 0.92813 0.0
C294 C 0.402 0.9839 0.94526 0.0
C295 C 0.41633 0.99843 0.96845 0.0
C296 C 0.4363 0.98746 0.98364 0.0
C297 C 0.44099 0.96125 0.97568 0.0
C298 C 0.42651 0.94663 0.95252 0.0
H299 H 0.32025 0.92727 0.92471 0.0
H300 H 0.34996 0.93803 0.94912 0.0
H301 H 0.3394 0.963 0.92738 0.0
H302 H 0.3877 0.99341 0.93327 0.0
H303 H 0.41248 0.01871 0.97393 0.0
H304 H 0.6293 0.48063 0.86647 0.0
H305 H 0.63014 0.4977 0.81941 0.0
H306 H 0.53691 0.46867 0.81346 0.0
H307 H 0.536 0.45053 0.85978 0.0
H308 H 0.56461 0.45506 0.76722 0.0
H309 H 0.60413 0.56701 0.79647 0.0
H310 H 0.62691 0.54468 0.80742 0.0
H311 H 0.59114 0.54104 0.82164 0.0
C312 C 0.60901 0.47769 0.85504 0.0
C313 C 0.58254 0.46442 0.86702 0.0
C314 C 0.6095 0.48774 0.82828 0.0
C315 C 0.58353 0.48486 0.81312 0.0
C316 C 0.55719 0.47129 0.82487 0.0
H317 H 0.52965 0.56741 0.67813 0.0
H318 H 0.54369 0.55183 0.72233 0.0
C319 C 0.55669 0.46116 0.85148 0.0
C320 C 0.58339 0.49569 0.7849 0.0
H321 H 0.59592 0.55552 0.749 0.0
C322 C 0.57168 0.47699 0.76315 0.0
C323 C 0.59244 0.52435 0.77975 0.0
C324 C 0.60415 0.54553 0.80254 0.0
C325 C 0.56798 0.48622 0.73654 0.0
C326 C 0.57692 0.51491 0.73139 0.0
C327 C 0.58933 0.53353 0.75297 0.0
C328 C 0.57103 0.52621 0.70449 0.0
C329 C 0.55325 0.46532 0.71457 0.0
C330 C 0.58244 0.51763 0.67976 0.0
C331 C 0.57424 0.52634 0.65431 0.0
C332 C 0.55474 0.54404 0.6532 0.0
C333 C 0.54461 0.55371 0.67814 0.0
C334 C 0.55265 0.54485 0.70349 0.0
H335 H 0.54204 0.44536 0.72353 0.0
H336 H 0.53705 0.47356 0.70272 0.0
H337 H 0.56983 0.46093 0.6999 0.0
H338 H 0.59719 0.50374 0.6801 0.0
H339 H 0.5827 0.51872 0.63553 0.0
H340 H 0.88194 0.71292 0.27112 0.0
H341 H 0.91481 0.6963 0.23888 0.0
H342 H 0.84138 0.64128 0.19854 0.0
H343 H 0.80849 0.65699 0.23101 0.0
H344 H 0.91848 0.63807 0.2298 0.0
H345 H 0.88891 0.68623 0.13496 0.0
H346 H 0.88202 0.69841 0.1694 0.0
H347 H 0.85858 0.66769 0.15434 0.0
C348 C 0.87278 0.69716 0.2555 0.0
C349 C 0.84251 0.68642 0.25359 0.0
C350 C 0.89158 0.68786 0.237 0.0
C351 C 0.88041 0.66793 0.21613 0.0
C352 C 0.85033 0.65712 0.21418 0.0
H353 H 0.94563 0.55032 0.11719 0.0
H354 H 0.92048 0.5763 0.14903 0.0
C355 C 0.83156 0.66622 0.23272 0.0
C356 C 0.90012 0.65731 0.19703 0.0
H357 H 0.91602 0.6512 0.12857 0.0
C358 C 0.91825 0.6412 0.20771 0.0
C359 C 0.89985 0.66164 0.16829 0.0
C360 C 0.8815 0.67963 0.15599 0.0
C361 C 0.93524 0.62827 0.19017 0.0
C362 C 0.93391 0.63155 0.16132 0.0
C363 C 0.91676 0.64863 0.15073 0.0
C364 C 0.94907 0.6162 0.14177 0.0
C365 C 0.95414 0.61081 0.20249 0.0
C366 C 0.97315 0.63021 0.12691 0.0
C367 C 0.98768 0.61539 0.10884 0.0
C368 C 0.97801 0.58645 0.10514 0.0
C369 C 0.95357 0.5726 0.1197 0.0
C370 C 0.93924 0.58737 0.13791 0.0
H371 H 0.95734 0.61493 0.22513 0.0
H372 H 0.94364 0.5885 0.19892 0.0
H373 H 0.97575 0.61478 0.19239 0.0
H374 H 0.98094 0.6525 0.12963 0.0
H375 H 0.00663 0.62652 0.09804 0.0
H376 H 0.23209 0.15069 0.17245 0.0
H377 H 0.26917 0.12697 0.15464 0.0
H378 H 0.33595 0.20071 0.17278 0.0
H379 H 0.29922 0.22444 0.19073 0.0
H380 H 0.31256 0.14679 0.1101 0.0
H381 H 0.36226 0.1353 0.21209 0.0
H382 H 0.32585 0.14082 0.20861 0.0
H383 H 0.35674 0.1693 0.20524 0.0
C384 C 0.2547 0.16179 0.17272 0.0
C385 C 0.26271 0.18946 0.18295 0.0
C386 C 0.2758 0.14826 0.16246 0.0
C387 C 0.3053 0.16203 0.16264 0.0
C388 C 0.31333 0.18965 0.17269 0.0
H389 H 0.46986 0.12313 0.1197 0.0
H390 H 0.43023 0.14329 0.13689 0.0
C391 C 0.29228 0.20324 0.18272 0.0
C392 C 0.3278 0.14773 0.15211 0.0
H393 H 0.38688 0.12389 0.17232 0.0
C394 C 0.32871 0.14156 0.12366 0.0
C395 C 0.3489 0.14113 0.16989 0.0
C396 C 0.34842 0.14674 0.20071 0.0
C397 C 0.3507 0.12963 0.11236 0.0
C398 C 0.3719 0.12302 0.13014 0.0
C399 C 0.3707 0.12894 0.15868 0.0
C400 C 0.39583 0.11047 0.11958 0.0
C401 C 0.35157 0.12517 0.08138 0.0
C402 C 0.38978 0.08506 0.10444 0.0
C403 C 0.41243 0.07355 0.09436 0.0
C404 C 0.44167 0.08701 0.09957 0.0
C405 C 0.44765 0.11216 0.11526 0.0
C406 C 0.42498 0.12375 0.12513 0.0
H407 H 0.33927 0.13834 0.07041 0.0
H408 H 0.37431 0.12982 0.0738 0.0
H409 H 0.34145 0.10314 0.07586 0.0
H410 H 0.3675 0.074 0.10051 0.0
H411 H 0.40697 0.05402 0.08261 0.0
H412 H 0.21885 0.91606 0.70831 0.0
H413 H 0.19474 0.94967 0.68689 0.0
H414 H 0.17569 0.89587 0.61409 0.0
H415 H 0.19934 0.86233 0.63536 0.0
H416 H 0.20149 0.96313 0.61093 0.0
H417 H 0.09912 0.92295 0.66851 0.0
H418 H 0.13401 0.92838 0.68578 0.0
H419 H 0.12381 0.9008 0.66024 0.0
C420 C 0.21002 0.91177 0.68753 0.0
C421 C 0.21087 0.88662 0.67349 0.0
C422 C 0.19615 0.93084 0.67541 0.0
C423 C 0.18331 0.9251 0.64899 0.0
C424 C 0.1854 0.90063 0.63449 0.0
H425 H 0.09233 0.99432 0.52515 0.0
H426 H 0.12269 0.97063 0.55217 0.0
C427 C 0.19891 0.88153 0.64665 0.0
C428 C 0.16623 0.9436 0.63677 0.0
H429 H 0.09751 0.955 0.63406 0.0
C430 C 0.17886 0.96165 0.61617 0.0
C431 C 0.13678 0.94166 0.64375 0.0
C432 C 0.12238 0.92243 0.66575 0.0
C433 C 0.1626 0.97752 0.60198 0.0
C434 C 0.13265 0.97458 0.60797 0.0
C435 C 0.12035 0.95716 0.62928 0.0
C436 C 0.11351 0.98854 0.59169 0.0
C437 C 0.1778 0.99737 0.5808 0.0
C438 C 0.09707 0.00553 0.60494 0.0
C439 C 0.07928 0.01876 0.58951 0.0
C440 C 0.07759 0.01521 0.56055 0.0
C441 C 0.09344 0.99767 0.54741 0.0
C442 C 0.11103 0.98432 0.56283 0.0
H443 H 0.20153 0.00398 0.58518 0.0
H444 H 0.17499 0.98682 0.56005 0.0
H445 H 0.16867 0.01617 0.58017 0.0
H446 H 0.09834 0.00889 0.6272 0.0
H447 H 0.06729 0.03216 0.60018 0.0
H448 H 0.70814 0.41508 0.99838 0.0
H449 H 0.75891 0.43951 1.00483 0.0
H450 H 0.75889 0.4733 0.92377 0.0
H451 H 0.70799 0.44831 0.91684 0.0
H452 H 0.80857 0.45054 0.93643 0.0
H453 H 0.7871 0.52454 0.01817 0.0
H454 H 0.77103 0.4888 0.02466 0.0
H455 H 0.75889 0.50489 0.99546 0.0
C456 C 0.71897 0.42752 0.9818 0.0
C457 C 0.7041 0.42975 0.95707 0.0
C458 C 0.74788 0.44166 0.98564 0.0
C459 C 0.76245 0.45844 0.96492 0.0
C460 C 0.74787 0.46055 0.94005 0.0
H461 H 0.92913 0.57252 0.99981 0.0
H462 H 0.87999 0.55227 0.98269 0.0
C463 C 0.71882 0.44643 0.9362 0.0
C464 C 0.793 0.47353 0.96941 0.0
H465 H 0.83641 0.52108 0.01286 0.0
C466 C 0.81472 0.4662 0.95292 0.0
C467 C 0.80082 0.49416 0.9907 0.0
C468 C 0.77824 0.5038 0.00812 0.0
C469 C 0.84428 0.47825 0.95793 0.0
C470 C 0.85216 0.49781 0.98019 0.0
C471 C 0.83033 0.50589 0.99595 0.0
C472 C 0.88287 0.50972 0.98812 0.0
C473 C 0.86678 0.46993 0.93939 0.0
C474 C 0.90083 0.49246 0.99678 0.0
C475 C 0.92901 0.50395 0.00657 0.0
C476 C 0.93962 0.53294 0.00812 0.0
C477 C 0.92169 0.55011 0.99898 0.0
C478 C 0.89357 0.5386 0.98914 0.0
H479 H 0.85726 0.46134 0.91905 0.0
H480 H 0.88519 0.48788 0.93584 0.0
H481 H 0.8755 0.45359 0.94939 0.0
H482 H 0.89276 0.47014 0.99674 0.0
H483 H 0.94217 0.49012 0.01355 0.0
H484 H 0.78035 0.64876 0.40084 0.0
H485 H 0.74274 0.62573 0.4327 0.0
H486 H 0.74362 0.70454 0.47394 0.0
H487 H 0.78083 0.72777 0.4421 0.0
H488 H 0.74293 0.63524 0.50154 0.0
H489 H 0.65724 0.66352 0.43614 0.0
H490 H 0.691 0.65834 0.42173 0.0
H491 H 0.69077 0.68893 0.44258 0.0
C492 C 0.77266 0.66112 0.41684 0.0
C493 C 0.7835 0.69007 0.41896 0.0
C494 C 0.7514 0.64793 0.43509 0.0
C495 C 0.74063 0.66352 0.45559 0.0
C496 C 0.75193 0.69223 0.4583 0.0
H497 H 0.61481 0.62774 0.58654 0.0
H498 H 0.65957 0.64221 0.55989 0.0
C499 C 0.77323 0.70542 0.44017 0.0
C500 C 0.71583 0.6503 0.47267 0.0
H501 H 0.64228 0.64146 0.47769 0.0
C502 C 0.72087 0.63643 0.49638 0.0
C503 C 0.68722 0.65187 0.46562 0.0
C504 C 0.68095 0.66635 0.44009 0.0
C505 C 0.69778 0.6243 0.51356 0.0
C506 C 0.66919 0.6264 0.5068 0.0
C507 C 0.66424 0.63991 0.4828 0.0
C508 C 0.64391 0.61515 0.52437 0.0
C509 C 0.70405 0.60917 0.53861 0.0
C510 C 0.62039 0.59515 0.51322 0.0
C511 C 0.59485 0.58705 0.52827 0.0
C512 C 0.59235 0.59892 0.55469 0.0
C513 C 0.61624 0.61824 0.56624 0.0
C514 C 0.64185 0.62636 0.55114 0.0
H515 H 0.72557 0.60362 0.53722 0.0
H516 H 0.70423 0.62277 0.55736 0.0
H517 H 0.68695 0.58993 0.54123 0.0
H518 H 0.62151 0.58641 0.49251 0.0
H519 H 0.57668 0.57228 0.51876 0.0
H520 H 0.17129 0.29883 0.13816 0.0
H521 H 0.1388 0.32437 0.11602 0.0
H522 H 0.16076 0.38933 0.17927 0.0
H523 H 0.19308 0.36406 0.20138 0.0
H524 H 0.09039 0.34674 0.13516 0.0
H525 H 0.1855 0.42892 0.10619 0.0
H526 H 0.189 0.39546 0.11774 0.0
H527 H 0.18408 0.42197 0.14244 0.0
C528 C 0.1687 0.31828 0.14762 0.0
C529 C 0.18503 0.32962 0.1713 0.0
C530 C 0.15025 0.3329 0.1349 0.0
C531 C 0.1479 0.35904 0.14566 0.0
C532 C 0.16277 0.3695 0.17026 0.0
H533 H 0.03147 0.46626 0.11524 0.0
H534 H 0.0553 0.43053 0.13145 0.0
C535 C 0.18119 0.35501 0.18289 0.0
C536 C 0.13121 0.37621 0.13066 0.0
H537 H 0.13891 0.43911 0.10088 0.0
C538 C 0.10097 0.36684 0.12744 0.0
C539 C 0.14512 0.40219 0.12012 0.0
C540 C 0.17775 0.41267 0.12151 0.0
C541 C 0.08413 0.38331 0.11494 0.0
C542 C 0.09789 0.40998 0.10578 0.0
C543 C 0.12827 0.4188 0.10807 0.0
C544 C 0.08132 0.42963 0.09473 0.0
C545 C 0.05179 0.37196 0.11158 0.0
C546 C 0.08816 0.44132 0.0688 0.0
C547 C 0.07473 0.46197 0.05961 0.0
C548 C 0.05432 0.47139 0.07626 0.0
C549 C 0.04698 0.45925 0.10189 0.0
C550 C 0.06045 0.43867 0.1111 0.0
H551 H 0.0462 0.34888 0.11134 0.0
H552 H 0.04044 0.37948 0.12931 0.0
H553 H 0.04348 0.37897 0.09222 0.0
H554 H 0.10433 0.43483 0.05588 0.0
H555 H 0.08087 0.47103 0.03978 0.0
H556 H 0.65081 0.35177 0.00766 0.0
H557 H 0.6361 0.30366 0.02243 0.0
H558 H 0.58315 0.28168 0.94881 0.0
H559 H 0.598 0.32958 0.93374 0.0
H560 H 0.57654 0.27186 0.03039 0.0
H561 H 0.63659 0.22473 0.95045 0.0
H562 H 0.64541 0.26145 0.95949 0.0
H563 H 0.61475 0.247 0.93734 0.0
C564 C 0.63622 0.3366 0.99454 0.0
C565 C 0.62562 0.34436 0.96949 0.0
C566 C 0.62776 0.30923 1.00305 0.0
C567 C 0.60888 0.28916 0.98652 0.0
C568 C 0.59808 0.29686 0.96164 0.0
H569 H 0.5183 0.12025 0.98403 0.0
H570 H 0.54236 0.16845 0.97593 0.0
C571 C 0.60635 0.32424 0.9532 0.0
C572 C 0.59984 0.26021 0.99542 0.0
H573 H 0.60112 0.19357 0.97598 0.0
C574 C 0.58216 0.2547 0.01878 0.0
C575 C 0.60739 0.23803 0.9802 0.0
C576 C 0.62729 0.243 0.9556 0.0
C577 C 0.57054 0.22732 0.02653 0.0
C578 C 0.57735 0.20505 0.01076 0.0
C579 C 0.59592 0.2107 0.988 0.0
C580 C 0.56359 0.17572 0.01606 0.0
C581 C 0.54999 0.22242 0.05068 0.0
C582 C 0.56783 0.16373 0.04122 0.0
C583 C 0.55391 0.13614 0.04595 0.0
C584 C 0.53584 0.1202 0.02548 0.0
C585 C 0.53211 0.13211 1.00017 0.0
C586 C 0.54587 0.1596 0.9955 0.0
H587 H 0.5424 0.2414 0.05697 0.0
H588 H 0.5307 0.20547 0.04556 0.0
H589 H 0.56134 0.21612 0.06865 0.0
H590 H 0.58183 0.17568 0.05717 0.0
H591 H 0.5571 0.12736 0.06558 0.0
H592 H 0.88231 0.74843 0.43244 0.0
H593 H 0.91207 0.79209 0.4516 0.0
H594 H 0.89084 0.83506 0.38103 0.0
H595 H 0.85983 0.79196 0.36247 0.0
H596 H 0.95907 0.83172 0.43373 0.0
H597 H 0.8611 0.87559 0.44518 0.0
H598 H 0.85882 0.83935 0.43676 0.0
H599 H 0.86709 0.86468 0.41035 0.0
C600 C 0.884 0.76717 0.42096 0.0
C601 C 0.86826 0.76673 0.39613 0.0
C602 C 0.90119 0.79205 0.43185 0.0
C603 C 0.90305 0.8169 0.41806 0.0
C604 C 0.88912 0.8162 0.39232 0.0
H605 H 0.97902 0.9898 0.46012 0.0
H606 H 0.95875 0.94529 0.43621 0.0
C607 C 0.87171 0.79141 0.38154 0.0
C608 C 0.91802 0.84374 0.43142 0.0
H609 H 0.90652 0.90606 0.45549 0.0
C610 C 0.94761 0.84797 0.43852 0.0
C611 C 0.90289 0.8648 0.4379 0.0
C612 C 0.87067 0.86086 0.43243 0.0
C613 C 0.9626 0.87296 0.45152 0.0
C614 C 0.94751 0.89405 0.45763 0.0
C615 C 0.91799 0.88984 0.45055 0.0
C616 C 0.96173 0.92063 0.47174 0.0
C617 C 0.99449 0.87685 0.45838 0.0
C618 C 0.96999 0.92139 0.49966 0.0
C619 C 0.98138 0.94681 0.51351 0.0
C620 C 0.98474 0.97188 0.4996 0.0
C621 C 0.9768 0.97092 0.47147 0.0
C622 C 0.96523 0.94552 0.45773 0.0
H623 H 1.00418 0.86085 0.44779 0.0
H624 H 0.00673 0.89775 0.45245 0.0
H625 H 0.99718 0.87535 0.48103 0.0
H626 H 0.96702 0.90237 0.5109 0.0
H627 H 0.98732 0.94679 0.53515 0.0
H628 H 0.34348 0.81896 0.66426 0.0
H629 H 0.36938 0.78502 0.64492 0.0
H630 H 0.38393 0.75956 0.72719 0.0
H631 H 0.35842 0.79356 0.74661 0.0
H632 H 0.43247 0.76559 0.69657 0.0
H633 H 0.33892 0.70187 0.63711 0.0
H634 H 0.3475 0.73777 0.6283 0.0
H635 H 0.33484 0.72828 0.66247 0.0
C636 C 0.3521 0.80604 0.6782 0.0
C637 C 0.34888 0.80899 0.70698 0.0
C638 C 0.36681 0.78656 0.66712 0.0
C639 C 0.37821 0.76936 0.68456 0.0
C640 C 0.37532 0.77254 0.7133 0.0
H641 H 0.43102 0.61674 0.63725 0.0
H642 H 0.40637 0.65207 0.65567 0.0
C643 C 0.36082 0.7921 0.72438 0.0
C644 C 0.39343 0.74822 0.67306 0.0
H645 H 0.38484 0.69092 0.62965 0.0
C646 C 0.42203 0.74925 0.68195 0.0
C647 C 0.37969 0.72662 0.6543 0.0
C648 C 0.34846 0.72331 0.64517 0.0
C649 C 0.43733 0.72947 0.67248 0.0
C650 C 0.42392 0.70838 0.65304 0.0
C651 C 0.39523 0.70721 0.64433 0.0
C652 C 0.43905 0.68705 0.64187 0.0
C653 C 0.46743 0.73097 0.68395 0.0
C654 C 0.46547 0.69488 0.62769 0.0
C655 C 0.47967 0.67473 0.61736 0.0
C656 C 0.46754 0.64635 0.62069 0.0
C657 C 0.4409 0.63848 0.63446 0.0
C658 C 0.42678 0.65864 0.64494 0.0
H659 H 0.4711 0.74296 0.70398 0.0
H660 H 0.47115 0.70988 0.68709 0.0
H661 H 0.48382 0.74161 0.66913 0.0
H662 H 0.47503 0.71658 0.62444 0.0
H663 H 0.50006 0.68138 0.60662 0.0
H664 H 0.92591 0.92557 0.86892 0.0
H665 H 0.94742 0.94849 0.82725 0.0
H666 H 0.86731 0.91555 0.7824 0.0
H667 H 0.84566 0.89296 0.82393 0.0
H668 H 0.95738 0.92568 0.77787 0.0
H669 H 0.8828 0.99576 0.76232 0.0
H670 H 0.88384 0.9778 0.79406 0.0
H671 H 0.86357 0.96022 0.76456 0.0
C672 C 0.91283 0.92343 0.85022 0.0
C673 C 0.88398 0.90766 0.84982 0.0
C674 C 0.92513 0.93655 0.82643 0.0
C675 C 0.90885 0.93418 0.80176 0.0
C676 C 0.88006 0.91842 0.80134 0.0
H677 H 0.93957 0.9709 0.63018 0.0
H678 H 0.92223 0.9528 0.67514 0.0
C679 C 0.8677 0.90547 0.82513 0.0
C680 C 0.92232 0.94697 0.77609 0.0
H681 H 0.91238 0.98876 0.7237 0.0
C682 C 0.94773 0.93974 0.76621 0.0
C683 C 0.90982 0.96542 0.76087 0.0
C684 C 0.88368 0.97549 0.77114 0.0
C685 C 0.96034 0.94967 0.74111 0.0
C686 C 0.94726 0.96735 0.72554 0.0
C687 C 0.92223 0.97502 0.73562 0.0
C688 C 0.95875 0.97755 0.69835 0.0
C689 C 0.98705 0.94059 0.73092 0.0
C690 C 0.98511 0.9974 0.69652 0.0
C691 C 0.99501 0.0079 0.67084 0.0
C692 C 0.97873 0.9986 0.64662 0.0
C693 C 0.95262 0.97837 0.64849 0.0
C694 C 0.94265 0.96807 0.67414 0.0
H695 H 0.99207 0.92372 0.74334 0.0
H696 H 0.98412 0.93328 0.70892 0.0
H697 H 0.00602 0.95857 0.73215 0.0
H698 H 0.99771 0.00517 0.71501 0.0
H699 H 0.01516 0.02355 0.66999 0.0
H700 H 0.71072 0.1498 0.35543 0.0
H701 H 0.68697 0.13885 0.31032 0.0
H702 H 0.67515 0.22266 0.30675 0.0
H703 H 0.69876 0.23373 0.35224 0.0
H704 H 0.62607 0.18581 0.29281 0.0
H705 H 0.71641 0.15828 0.23395 0.0
H706 H 0.70882 0.1385 0.26455 0.0
H707 H 0.72177 0.17568 0.26757 0.0
C708 C 0.70363 0.16611 0.34483 0.0
C709 C 0.70694 0.19275 0.35735 0.0
C710 C 0.69006 0.15981 0.31896 0.0
C711 C 0.67978 0.18006 0.30477 0.0
C712 C 0.68308 0.20672 0.31717 0.0
H713 H 0.61269 0.14061 0.13443 0.0
H714 H 0.64128 0.16384 0.17454 0.0
C715 C 0.69653 0.21301 0.34319 0.0
C716 C 0.66405 0.17278 0.27785 0.0
H717 H 0.66846 0.14187 0.21423 0.0
C718 C 0.63551 0.17654 0.27551 0.0
C719 C 0.67643 0.16116 0.25498 0.0
C720 C 0.70765 0.15845 0.25525 0.0
C721 C 0.61862 0.16782 0.25152 0.0
C722 C 0.6303 0.15435 0.22945 0.0
C723 C 0.6593 0.15182 0.23125 0.0
C724 C 0.61237 0.14147 0.20503 0.0
C725 C 0.58839 0.17313 0.25012 0.0
C726 C 0.58676 0.12106 0.20875 0.0
C727 C 0.57041 0.10798 0.18597 0.0
C728 C 0.57949 0.11472 0.1589 0.0
C729 C 0.60513 0.1351 0.15507 0.0
C730 C 0.62147 0.14833 0.17795 0.0
H731 H 0.58653 0.19129 0.26358 0.0
H732 H 0.58231 0.1769 0.22864 0.0
H733 H 0.57254 0.15472 0.25756 0.0
H734 H 0.57967 0.11481 0.22933 0.0
H735 H 0.55089 0.09217 0.18958 0.0
H736 H 0.49052 0.65757 0.28575 0.0
H737 H 0.49255 0.64136 0.33261 0.0
H738 H 0.39879 0.61931 0.33504 0.0
H739 H 0.39653 0.63458 0.28751 0.0
H740 H 0.47051 0.6597 0.38061 0.0
H741 H 0.42137 0.54788 0.35796 0.0
H742 H 0.43401 0.57204 0.33107 0.0
H743 H 0.39994 0.57171 0.34773 0.0
C744 C 0.47028 0.64891 0.29603 0.0
C745 C 0.44335 0.64706 0.28272 0.0
C746 C 0.4715 0.63987 0.32293 0.0
C747 C 0.44585 0.62879 0.33717 0.0
C748 C 0.41886 0.62734 0.32423 0.0
H749 H 0.45608 0.60239 0.51537 0.0
H750 H 0.44067 0.61642 0.47078 0.0
C751 C 0.41761 0.63635 0.29719 0.0
C752 C 0.44778 0.6191 0.36565 0.0
H753 H 0.43446 0.56109 0.40437 0.0
C754 C 0.46242 0.63819 0.3859 0.0
C755 C 0.43742 0.59096 0.37237 0.0
C756 C 0.4225 0.56934 0.35115 0.0
C757 C 0.46757 0.62983 0.41254 0.0
C758 C 0.45725 0.60169 0.41926 0.0
C759 C 0.44211 0.58268 0.39918 0.0
C760 C 0.46397 0.59125 0.44633 0.0
C761 C 0.48511 0.65097 0.43283 0.0
C762 C 0.48116 0.57155 0.44735 0.0
C763 C 0.48982 0.56329 0.47276 0.0
C764 C 0.48144 0.57459 0.49769 0.0
C765 C 0.46318 0.59346 0.49659 0.0
C766 C 0.45443 0.60162 0.47112 0.0
H767 H 0.49675 0.67 0.4225 0.0
H768 H 0.4703 0.65716 0.44839 0.0
H769 H 0.50134 0.64209 0.44393 0.0
H770 H 0.48866 0.56321 0.42844 0.0
H771 H 0.50378 0.54865 0.47277 0.0
H772 H 0.19775 0.44507 0.83464 0.0
H773 H 0.18073 0.47962 0.86388 0.0
H774 H 0.12185 0.41372 0.90485 0.0
H775 H 0.13881 0.37928 0.87599 0.0
H776 H 0.12599 0.48914 0.86906 0.0
H777 H 0.16331 0.45958 0.96989 0.0
H778 H 0.17562 0.4477 0.93733 0.0
H779 H 0.14109 0.43047 0.95121 0.0
C780 C 0.1812 0.43802 0.84992 0.0
C781 C 0.16985 0.40947 0.85327 0.0
C782 C 0.1716 0.45773 0.86665 0.0
C783 C 0.15053 0.44921 0.88697 0.0
C784 C 0.13878 0.42075 0.88992 0.0
H785 H 0.03662 0.51579 0.99215 0.0
H786 H 0.06337 0.48807 0.96393 0.0
C787 C 0.14845 0.40109 0.87337 0.0
C788 C 0.13978 0.46989 0.90444 0.0
H789 H 0.12732 0.48711 0.97157 0.0
C790 C 0.12669 0.48903 0.89147 0.0
C791 C 0.14085 0.46976 0.93369 0.0
C792 C 0.15626 0.45096 0.94884 0.0
C793 C 0.11341 0.50715 0.90701 0.0
C794 C 0.11339 0.5061 0.93615 0.0
C795 C 0.12726 0.48764 0.94916 0.0
C796 C 0.0978 0.52307 0.95346 0.0
C797 C 0.0985 0.52658 0.89224 0.0
C798 C 0.10858 0.55182 0.95704 0.0
C799 C 0.09351 0.56766 0.9734 0.0
C800 C 0.06748 0.5549 0.98631 0.0
C801 C 0.0568 0.52609 0.98267 0.0
C802 C 0.07197 0.51027 0.96652 0.0
H803 H 0.09755 0.52256 0.86948 0.0
H804 H 0.076 0.52451 0.90003 0.0
H805 H 0.11049 0.54835 0.89654 0.0
H806 H 0.12863 0.56196 0.94724 0.0
H807 H 0.10219 0.58984 0.9759 0.0
H808 H 0.76452 0.94127 0.91714 0.0
H809 H 0.73875 0.97466 0.93824 0.0
H810 H 0.69041 0.91036 0.98905 0.0
H811 H 0.71653 0.87741 0.96886 0.0
H812 H 0.68069 0.97205 0.93589 0.0
H813 H 0.71414 0.97329 0.04541 0.0
H814 H 0.73296 0.95922 0.01793 0.0
H815 H 0.70033 0.93844 0.03235 0.0
C816 C 0.74886 0.93447 0.93325 0.0
C817 C 0.74248 0.90664 0.9412 0.0
C818 C 0.73404 0.95351 0.94519 0.0
C819 C 0.71288 0.94515 0.96553 0.0
C820 C 0.70704 0.91754 0.97388 0.0
H821 H 0.55618 0.99464 1.00492 0.0
H822 H 0.59595 0.97633 0.98566 0.0
C823 C 0.72176 0.89859 0.96201 0.0
C824 C 0.69509 0.96433 0.97657 0.0
H825 H 0.66895 0.98707 0.03675 0.0
C826 C 0.67851 0.97574 0.95794 0.0
C827 C 0.69252 0.96961 0.00531 0.0
C828 C 0.7112 0.95973 0.02636 0.0
C829 C 0.65825 0.99083 0.9673 0.0
C830 C 0.65399 0.99413 0.99608 0.0
C831 C 0.67182 0.98419 0.01469 0.0
C832 C 0.63002 0.00626 0.00727 0.0
C833 C 0.6414 0.00283 0.9462 0.0
C834 C 0.63575 0.02881 0.02648 0.0
C835 C 0.61289 0.03927 0.03784 0.0
C836 C 0.58381 0.02724 0.03033 0.0
C837 C 0.57824 0.00465 0.01108 0.0
C838 C 0.60104 0.99422 0.99983 0.0
H839 H 0.65365 0.00682 0.92659 0.0
H840 H 0.62061 0.98773 0.94137 0.0
H841 H 0.63636 0.02256 0.95407 0.0
H842 H 0.65792 0.0383 0.03273 0.0
H843 H 0.61803 0.05662 0.05265 0.0
H844 H 0.8064 0.19133 0.39412 0.0
H845 H 0.84535 0.16896 0.40851 0.0
H846 H 0.79636 0.13929 0.48089 0.0
H847 H 0.75737 0.161 0.46652 0.0
H848 H 0.87848 0.17716 0.45984 0.0
H849 H 0.8153 0.0687 0.44452 0.0
H850 H 0.80459 0.09776 0.4292 0.0
H851 H 0.7967 0.09022 0.46487 0.0
C852 C 0.80388 0.17987 0.413 0.0
C853 C 0.77877 0.17803 0.42919 0.0
C854 C 0.8262 0.16722 0.42125 0.0
C855 C 0.82362 0.15218 0.44561 0.0
C856 C 0.79868 0.15047 0.46183 0.0
H857 H 0.91086 0.06518 0.55257 0.0
H858 H 0.87918 0.08794 0.52641 0.0
C859 C 0.77651 0.16317 0.45372 0.0
C860 C 0.84692 0.13841 0.45455 0.0
H861 H 0.85839 0.07543 0.47237 0.0
C862 C 0.87433 0.15487 0.46218 0.0
C863 C 0.8415 0.10932 0.45745 0.0
C864 C 0.81302 0.0904 0.44833 0.0
C865 C 0.89584 0.14316 0.47415 0.0
C866 C 0.8899 0.11419 0.47819 0.0
C867 C 0.86293 0.09764 0.4694 0.0
C868 C 0.91006 0.10087 0.49374 0.0
C869 C 0.92417 0.16203 0.48369 0.0
C870 C 0.93808 0.10043 0.48408 0.0
C871 C 0.9564 0.08736 0.49915 0.0
C872 C 0.94687 0.07447 0.52401 0.0
C873 C 0.91885 0.07494 0.5335 0.0
C874 C 0.90067 0.08791 0.51853 0.0
H875 H 0.92332 0.18431 0.48355 0.0
H876 H 0.92985 0.15702 0.50491 0.0
H877 H 0.94185 0.15889 0.46969 0.0
H878 H 0.94567 0.10993 0.46479 0.0
H879 H 0.97788 0.0873 0.49139 0.0
H880 H 0.3054 0.7245 0.20736 0.0
H881 H 0.25608 0.7063 0.18943 0.0
H882 H 0.28036 0.63124 0.16065 0.0
H883 H 0.33002 0.64976 0.17746 0.0
H884 H 0.25729 0.65673 0.11983 0.0
H885 H 0.18618 0.64716 0.21198 0.0
H886 H 0.21037 0.68068 0.2094 0.0
H887 H 0.22505 0.65065 0.21454 0.0
C888 C 0.30009 0.70392 0.19762 0.0
C889 C 0.32169 0.68867 0.19364 0.0
C890 C 0.27181 0.69343 0.18764 0.0
C891 C 0.26452 0.66736 0.17385 0.0
C892 C 0.28555 0.65139 0.17133 0.0
H893 H 0.11888 0.57082 0.08207 0.0
H894 H 0.16432 0.58952 0.10711 0.0
C895 C 0.31387 0.66191 0.18117 0.0
C896 C 0.23623 0.65818 0.15919 0.0
H897 H 0.16255 0.64311 0.16793 0.0
C898 C 0.2366 0.6536 0.1304 0.0
C899 C 0.20926 0.65447 0.17298 0.0
C900 C 0.20758 0.65825 0.20396 0.0
C901 C 0.21073 0.64535 0.11501 0.0
C902 C 0.18384 0.64141 0.1288 0.0
C903 C 0.18333 0.64634 0.1575 0.0
C904 C 0.15613 0.63052 0.11382 0.0
C905 C 0.21228 0.64096 0.08408 0.0
C906 C 0.13648 0.64746 0.10948 0.0
C907 C 0.11041 0.63689 0.09498 0.0
C908 C 0.10357 0.60912 0.08496 0.0
C909 C 0.1234 0.59228 0.08952 0.0
C910 C 0.14942 0.60291 0.10379 0.0
H911 H 0.23418 0.65039 0.07596 0.0
H912 H 0.20741 0.61834 0.07889 0.0
H913 H 0.19587 0.64996 0.0734 0.0
H914 H 0.1414 0.66886 0.11717 0.0
H915 H 0.09552 0.65032 0.09196 0.0
H916 H 0.25483 0.3785 0.68065 0.0
H917 H 0.29631 0.40959 0.65972 0.0
H918 H 0.27891 0.4788 0.70796 0.0
H919 H 0.23688 0.44772 0.72901 0.0
H920 H 0.29077 0.47943 0.63965 0.0
H921 H 0.37235 0.45409 0.71192 0.0
H922 H 0.34296 0.42614 0.69985 0.0
H923 H 0.3353 0.45329 0.72208 0.0
C924 C 0.25954 0.40039 0.68658 0.0
C925 C 0.24248 0.41072 0.70634 0.0
C926 C 0.2833 0.41805 0.6747 0.0
C927 C 0.29048 0.44635 0.68232 0.0
C928 C 0.27353 0.45694 0.70187 0.0
H929 H 0.4589 0.54577 0.63223 0.0
H930 H 0.41313 0.53177 0.65725 0.0
C931 C 0.24972 0.43919 0.71393 0.0
C932 C 0.31626 0.4644 0.67006 0.0
H933 H 0.39035 0.47785 0.67168 0.0
C934 C 0.31259 0.47954 0.64684 0.0
C935 C 0.34453 0.46451 0.67969 0.0
C936 C 0.34927 0.44879 0.70485 0.0
C937 C 0.33672 0.49394 0.63221 0.0
C938 C 0.36504 0.49273 0.64091 0.0
C939 C 0.36862 0.47867 0.66498 0.0
C940 C 0.3912 0.50405 0.62442 0.0
C941 C 0.33171 0.50995 0.60735 0.0
C942 C 0.39393 0.49328 0.59757 0.0
C943 C 0.42001 0.50126 0.58323 0.0
C944 C 0.44383 0.52001 0.59559 0.0
C945 C 0.4408 0.53142 0.62213 0.0
C946 C 0.41472 0.52341 0.63647 0.0
H947 H 0.31042 0.51598 0.60849 0.0
H948 H 0.34925 0.52899 0.60542 0.0
H949 H 0.33155 0.49667 0.58838 0.0
H950 H 0.37628 0.47784 0.58813 0.0
H951 H 0.42183 0.49211 0.56284 0.0
H952 H 0.87497 0.84603 0.965 0.0
H953 H 0.89909 0.81293 0.98645 0.0
H954 H 0.93563 0.79644 0.90775 0.0
H955 H 0.91127 0.82903 0.88602 0.0
H956 H 0.89116 0.75578 0.97162 0.0
H957 H 0.00643 0.81152 0.96062 0.0
H958 H 0.97654 0.82853 0.95751 0.0
H959 H 0.98542 0.80761 0.92915 0.0
C960 C 0.88818 0.8354 0.95223 0.0
C961 C 0.89122 0.84034 0.92376 0.0
C962 C 0.90204 0.81658 0.96457 0.0
C963 C 0.91947 0.80249 0.94879 0.0
C964 C 0.92282 0.80754 0.92046 0.0
H965 H 0.01069 0.67188 0.97031 0.0
H966 H 0.99025 0.71015 0.95477 0.0
C967 C 0.9089 0.82627 0.90808 0.0
C968 C 0.93287 0.78139 0.96156 0.0
H969 H 0.99797 0.76434 0.97353 0.0
C970 C 0.91452 0.75774 0.97232 0.0
C971 C 0.96334 0.78397 0.96234 0.0
C972 C 0.98415 0.80938 0.95202 0.0
C973 C 0.92575 0.73616 0.983 0.0
C974 C 0.95625 0.73859 0.98352 0.0
C975 C 0.97462 0.76247 0.97315 0.0
C976 C 0.96946 0.71608 0.99366 0.0
C977 C 0.90477 0.7105 0.99262 0.0
C978 C 0.96508 0.707 0.02089 0.0
C979 C 0.97665 0.68499 0.02977 0.0
C980 C 0.99303 0.67191 0.01166 0.0
C981 C 0.99811 0.68156 0.98471 0.0
C982 C 0.98646 0.70344 0.97582 0.0
H983 H 0.88242 0.70891 0.98442 0.0
H984 H 0.91201 0.6914 0.98614 0.0
H985 H 0.90376 0.71139 0.01554 0.0
H986 H 0.9526 0.71683 0.03523 0.0
H987 H 0.97254 0.67806 0.05071 0.0
H988 H 0.37173 0.78727 0.20048 0.0
H989 H 0.38831 0.83302 0.18066 0.0
H990 H 0.4576 0.80472 0.139 0.0
H991 H 0.44071 0.75869 0.15816 0.0
H992 H 0.44244 0.86944 0.18694 0.0
H993 H 0.41851 0.83823 0.0766 0.0
H994 H 0.40355 0.81632 0.10462 0.0
H995 H 0.44033 0.81827 0.09369 0.0
C996 C 0.39038 0.79075 0.18694 0.0
C997 C 0.40487 0.76937 0.1808 0.0
C998 C 0.39984 0.81687 0.1757 0.0
C999 C 0.42382 0.82204 0.15798 0.0
C1000 C 0.43867 0.80094 0.15219 0.0
H1001 H 0.53636 0.97578 0.11655 0.0
H1002 H 0.51332 0.92888 0.13024 0.0
C1003 C 0.42925 0.7748 0.16346 0.0
C1004 C 0.43398 0.84987 0.14642 0.0
H1005 H 0.4475 0.88392 0.08583 0.0
C1006 C 0.44334 0.87264 0.16485 0.0
C1007 C 0.43471 0.854 0.11759 0.0
C1008 C 0.42348 0.83047 0.09694 0.0
C1009 C 0.4544 0.89934 0.1552 0.0
C1010 C 0.45642 0.90325 0.12638 0.0
C1011 C 0.44612 0.88071 0.10791 0.0
C1012 C 0.4705 0.93045 0.11533 0.0
C1013 C 0.46404 0.92319 0.1759 0.0
C1014 C 0.45418 0.94636 0.10141 0.0
C1015 C 0.46734 0.97326 0.09348 0.0
C1016 C 0.49693 0.98439 0.09937 0.0
C1017 C 0.51344 0.96781 0.11201 0.0
C1018 C 0.50033 0.94106 0.1199 0.0
H1019 H 0.4547 0.91813 0.19668 0.0
H1020 H 0.48811 0.92793 0.17792 0.0
H1021 H 0.45763 0.94216 0.16893 0.0
H1022 H 0.43113 0.93834 0.09758 0.0
H1023 H 0.45421 0.98563 0.08363 0.0
H1024 H 0.11797 0.33746 0.70825 0.0
H1025 H 0.08891 0.29813 0.68091 0.0
H1026 H 0.1676 0.27316 0.65682 0.0
H1027 H 0.19655 0.31331 0.68273 0.0
H1028 H 0.13275 0.26723 0.61475 0.0
H1029 H 0.06894 0.22008 0.70424 0.0
H1030 H 0.0642 0.25426 0.69764 0.0
H1031 H 0.09933 0.24948 0.70821 0.0
C1032 C 0.12889 0.32357 0.6969 0.0
C1033 C 0.15935 0.32818 0.6975 0.0
C1034 C 0.11234 0.30102 0.68153 0.0
C1035 C 0.12599 0.28225 0.66733 0.0
C1036 C 0.15653 0.28727 0.66762 0.0
H1037 H 0.05637 0.11158 0.62133 0.0
H1038 H 0.07704 0.15676 0.64358 0.0
C1039 C 0.17306 0.31014 0.68241 0.0
C1040 C 0.1088 0.25718 0.65232 0.0
H1041 H 0.05605 0.19818 0.66048 0.0
C1042 C 0.11597 0.25212 0.62475 0.0
C1043 C 0.08707 0.23732 0.66546 0.0
C1044 C 0.0796 0.24037 0.69558 0.0
C1045 C 0.10269 0.22749 0.6102 0.0
C1046 C 0.08059 0.20787 0.62317 0.0
C1047 C 0.07284 0.2133 0.65048 0.0
C1048 C 0.0668 0.18063 0.60969 0.0
C1049 C 0.11361 0.22226 0.58162 0.0
C1050 C 0.05365 0.17891 0.5834 0.0
C1051 C 0.04246 0.15303 0.57034 0.0
C1052 C 0.04336 0.12845 0.58376 0.0
C1053 C 0.05529 0.13019 0.61054 0.0
C1054 C 0.0671 0.15602 0.62328 0.0
H1055 H 0.1357 0.2353 0.5781 0.0
H1056 H 0.11441 0.20012 0.57823 0.0
H1057 H 0.09875 0.22757 0.56594 0.0
H1058 H 0.05224 0.19756 0.57287 0.0
H1059 H 0.03299 0.15223 0.54983 0.0
H1060 H 0.6552 0.28717 0.43508 0.0
H1061 H 0.63861 0.33085 0.43869 0.0
H1062 H 0.66424 0.34031 0.52474 0.0
H1063 H 0.68172 0.29766 0.521 0.0
H1064 H 0.59557 0.34142 0.47025 0.0
H1065 H 0.69631 0.41761 0.50014 0.0
H1066 H 0.69664 0.38325 0.4865 0.0
H1067 H 0.69018 0.3889 0.52274 0.0
C1068 C 0.65796 0.29898 0.45454 0.0
C1069 C 0.66962 0.28882 0.47779 0.0
C1070 C 0.6483 0.32384 0.45664 0.0
C1071 C 0.65046 0.33914 0.48192 0.0
C1072 C 0.66289 0.32936 0.50485 0.0
H1073 H 0.53949 0.43787 0.55196 0.0
H1074 H 0.56337 0.40183 0.53439 0.0
C1075 C 0.67254 0.30469 0.50276 0.0
C1076 C 0.63757 0.36393 0.48532 0.0
H1077 H 0.65122 0.43007 0.51321 0.0
C1078 C 0.60788 0.36096 0.47921 0.0
C1079 C 0.65362 0.38969 0.49655 0.0
C1080 C 0.68602 0.39515 0.50156 0.0
C1081 C 0.59352 0.3824 0.48542 0.0
C1082 C 0.60905 0.40729 0.49881 0.0
C1083 C 0.63909 0.41085 0.50345 0.0
C1084 C 0.59436 0.42933 0.50916 0.0
C1085 C 0.56178 0.37806 0.47763 0.0
C1086 C 0.60441 0.45709 0.50169 0.0
C1087 C 0.59103 0.47786 0.51213 0.0
C1088 C 0.56737 0.47123 0.53023 0.0
C1089 C 0.55749 0.44354 0.53784 0.0
C1090 C 0.57099 0.42286 0.5276 0.0
H1091 H 0.55608 0.36312 0.45973 0.0
H1092 H 0.54825 0.36925 0.49534 0.0
H1093 H 0.55613 0.39789 0.47234 0.0
H1094 H 0.62255 0.46269 0.48771 0.0
H1095 H 0.59914 0.49907 0.50598 0.0
loop_
_geom_bond_atom_site_label_1
_geom_bond_atom_site_label_2
_geom_bond_distance
_geom_bond_site_symmetry_2
_ccdc_geom_bond_type
H0 C1 0.949 . S
C1 H0 0.949 . S
C1 C2 1.395 . S
C1 C3 1.391 . S
C2 C1 1.395 . S
C2 C5 1.390 . S
C3 C1 1.391 . S
C3 C7 1.387 . S
C3 C8 1.491 . S
H4 C5 0.950 . S
C5 C2 1.390 . S
C5 H4 0.950 . S
C5 C6 1.378 . S
C6 C5 1.378 . S
C6 C7 1.409 . S
C7 C3 1.387 . S
C7 C6 1.409 . S
C7 H9 0.951 . S
C8 C3 1.491 . S
C8 C10 1.382 . S
C8 C12 1.404 . S
H9 C7 0.951 . S
C10 C8 1.382 . S
C10 C11 1.390 . S
C10 H15 0.949 . S
C11 C10 1.390 . S
C11 C16 1.399 . S
C12 C8 1.404 . S
C12 H13 0.950 . S
C12 C14 1.375 . S
H13 C12 0.950 . S
C14 C12 1.375 . S
C14 C16 1.382 . S
C14 H18 0.950 . S
H15 C10 0.949 . S
C16 C11 1.399 . S
C16 C14 1.382 . S
C16 H17 0.952 . S
H17 C16 0.952 . S
H18 C14 0.950 . S
H19 C20 0.949 . S
C20 H19 0.949 . S
C20 C21 1.395 . S
C20 C22 1.391 . S
C21 C20 1.395 . S
C21 C24 1.390 . S
C22 C20 1.391 . S
C22 C26 1.387 . S
C22 C27 1.491 . S
H23 C24 0.950 . S
C24 C21 1.390 . S
C24 H23 0.950 . S
C24 C25 1.378 . S
C25 C24 1.378 . S
C25 C26 1.409 . S
C26 C22 1.387 . S
C26 C25 1.409 . S
C26 H28 0.951 . S
C27 C22 1.491 . S
C27 C29 1.382 . S
C27 C31 1.404 . S
H28 C26 0.951 . S
C29 C27 1.382 . S
C29 C30 1.390 . S
C29 H34 0.949 . S
C30 C29 1.390 . S
C30 C35 1.399 . S
C31 C27 1.404 . S
C31 H32 0.950 . S
C31 C33 1.375 . S
H32 C31 0.950 . S
C33 C31 1.375 . S
C33 C35 1.382 . S
C33 H37 0.950 . S
H34 C29 0.949 . S
C35 C30 1.399 . S
C35 C33 1.382 . S
C35 H36 0.952 . S
H36 C35 0.952 . S
H37 C33 0.950 . S
H38 C39 0.949 . S
C39 H38 0.949 . S
C39 C40 1.395 . S
C39 C41 1.391 . S
C40 C39 1.395 . S
C40 C43 1.390 . S
C41 C39 1.391 . S
C41 C45 1.387 . S
C41 C46 1.491 . S
H42 C43 0.950 . S
C43 C40 1.390 . S
C43 H42 0.950 . S
C43 C44 1.378 . S
C44 C43 1.378 . S
C44 C45 1.409 . S
C45 C41 1.387 . S
C45 C44 1.409 . S
C45 H47 0.951 . S
C46 C41 1.491 . S
C46 C48 1.382 . S
C46 C50 1.404 . S
H47 C45 0.951 . S
C48 C46 1.382 . S
C48 C49 1.390 . S
C48 H53 0.949 . S
C49 C48 1.390 . S
C49 C54 1.399 . S
C50 C46 1.404 . S
C50 H51 0.950 . S
C50 C52 1.375 . S
H51 C50 0.950 . S
C52 C50 1.375 . S
C52 C54 1.382 . S
C52 H56 0.950 . S
H53 C48 0.949 . S
C54 C49 1.399 . S
C54 C52 1.382 . S
C54 H55 0.952 . S
H55 C54 0.952 . S
H56 C52 0.950 . S
H57 C58 0.949 . S
C58 H57 0.949 . S
C58 C59 1.395 . S
C58 C60 1.391 . S
C59 C58 1.395 . S
C59 C62 1.390 . S
C60 C58 1.391 . S
C60 C64 1.387 . S
C60 C65 1.491 . S
H61 C62 0.950 . S
C62 C59 1.390 . S
C62 H61 0.950 . S
C62 C63 1.378 . S
C63 C62 1.378 . S
C63 C64 1.409 . S
C64 C60 1.387 . S
C64 C63 1.409 . S
C64 H66 0.951 . S
C65 C60 1.491 . S
C65 C67 1.382 . S
C65 C69 1.404 . S
H66 C64 0.951 . S
C67 C65 1.382 . S
C67 C68 1.390 . S
C67 H72 0.949 . S
C68 C67 1.390 . S
C68 C73 1.399 . S
C69 C65 1.404 . S
C69 H70 0.950 . S
C69 C71 1.375 . S
H70 C69 0.950 . S
C71 C69 1.375 . S
C71 C73 1.382 . S
C71 H75 0.950 . S
H72 C67 0.949 . S
C73 C68 1.399 . S
C73 C71 1.382 . S
C73 H74 0.952 . S
H74 C73 0.952 . S
H75 C71 0.950 . S
H76 C77 0.949 . S
C77 H76 0.949 . S
C77 C78 1.395 . S
C77 C79 1.391 . S
C78 C77 1.395 . S
C78 C81 1.390 . S
C79 C77 1.391 . S
C79 C83 1.387 . S
C79 C84 1.491 . S
H80 C81 0.950 . S
C81 C78 1.390 . S
C81 H80 0.950 . S
C81 C82 1.378 . S
C82 C81 1.378 . S
C82 C83 1.409 . S
C83 C79 1.387 . S
C83 C82 1.409 . S
C83 H85 0.951 . S
C84 C79 1.491 . S
C84 C86 1.382 . S
C84 C88 1.404 . S
H85 C83 0.951 . S
C86 C84 1.382 . S
C86 C87 1.390 . S
C86 H91 0.949 . S
C87 C86 1.390 . S
C87 C92 1.399 . S
C88 C84 1.404 . S
C88 H89 0.950 . S
C88 C90 1.375 . S
H89 C88 0.950 . S
C90 C88 1.375 . S
C90 C92 1.382 . S
C90 H94 0.950 . S
H91 C86 0.949 . S
C92 C87 1.399 . S
C92 C90 1.382 . S
C92 H93 0.952 . S
H93 C92 0.952 . S
H94 C90 0.950 . S
H95 C96 0.949 . S
C96 H95 0.949 . S
C96 C97 1.395 . S
C96 C98 1.391 . S
C97 C96 1.395 . S
C97 C100 1.390 . S
C98 C96 1.391 . S
C98 C102 1.387 . S
C98 C103 1.491 . S
H99 C100 0.950 . S
C100 C97 1.390 . S
C100 H99 0.950 . S
C100 C101 1.378 . S
C101 C100 1.378 . S
C101 C102 1.409 . S
C102 C98 1.387 . S
C102 C101 1.409 . S
C102 H104 0.951 . S
C103 C98 1.491 . S
C103 C105 1.382 . S
C103 C107 1.404 . S
H104 C102 0.951 . S
C105 C103 1.382 . S
C105 C106 1.390 . S
C105 H110 0.949 . S
C106 C105 1.390 . S
C106 C111 1.399 . S
C107 C103 1.404 . S
C107 H108 0.950 . S
C107 C109 1.375 . S
H108 C107 0.950 . S
C109 C107 1.375 . S
C109 C111 1.382 . S
C109 H113 0.950 . S
H110 C105 0.949 . S
C111 C106 1.399 . S
C111 C109 1.382 . S
C111 H112 0.952 . S
H112 C111 0.952 . S
H113 C109 0.950 . S
H114 C115 0.949 . S
C115 H114 0.949 . S
C115 C116 1.395 . S
C115 C117 1.391 . S
C116 C115 1.395 . S
C116 C119 1.390 . S
C117 C115 1.391 . S
C117 C121 1.387 . S
C117 C122 1.491 . S
H118 C119 0.950 . S
C119 C116 1.390 . S
C119 H118 0.950 . S
C119 C120 1.378 . S
C120 C119 1.378 . S
C120 C121 1.409 . S
C121 C117 1.387 . S
C121 C120 1.409 . S
C121 H123 0.951 . S
C122 C117 1.491 . S
C122 C124 1.382 . S
C122 C126 1.404 . S
H123 C121 0.951 . S
C124 C122 1.382 . S
C124 C125 1.390 . S
C124 H129 0.949 . S
C125 C124 1.390 . S
C125 C130 1.399 . S
C126 C122 1.404 . S
C126 H127 0.950 . S
C126 C128 1.375 . S
H127 C126 0.950 . S
C128 C126 1.375 . S
C128 C130 1.382 . S
C128 H132 0.950 . S
H129 C124 0.949 . S
C130 C125 1.399 . S
C130 C128 1.382 . S
C130 H131 0.952 . S
H131 C130 0.952 . S
H132 C128 0.950 . S
H133 C134 0.949 . S
C134 H133 0.949 . S
C134 C135 1.395 . S
C134 C136 1.391 . S
C135 C134 1.395 . S
C135 C138 1.390 . S
C136 C134 1.391 . S
C136 C140 1.387 . S
C136 C141 1.491 . S
H137 C138 0.950 . S
C138 C135 1.390 . S
C138 H137 0.950 . S
C138 C139 1.378 . S
C139 C138 1.378 . S
C139 C140 1.409 . S
C140 C136 1.387 . S
C140 C139 1.409 . S
C140 H142 0.951 . S
C141 C136 1.491 . S
C141 C143 1.382 . S
C141 C145 1.404 . S
H142 C140 0.951 . S
C143 C141 1.382 . S
C143 C144 1.390 . S
C143 H148 0.949 . S
C144 C143 1.390 . S
C144 C149 1.399 . S
C145 C141 1.404 . S
C145 H146 0.950 . S
C145 C147 1.375 . S
H146 C145 0.950 . S
C147 C145 1.375 . S
C147 C149 1.382 . S
C147 H151 0.950 . S
H148 C143 0.949 . S
C149 C144 1.399 . S
C149 C147 1.382 . S
C149 H150 0.952 . S
H150 C149 0.952 . S
H151 C147 0.950 . S
Dy152 O156 2.398 . S
Dy152 O157 2.491 . S
Dy152 O158 2.403 . S
Dy152 O159 2.664 . S
Dy152 O163 2.326 . S
Dy152 O167 2.310 1_455 S
Dy152 O168 2.352 1_545 S
C153 O164 1.185 . S
C153 O165 1.355 . S
C154 O156 1.185 . S
C154 O157 1.355 . S
Dy155 O159 2.310 1_655 S
Dy155 O162 2.351 1_655 S
Dy155 O164 2.398 1_545 S
Dy155 O165 2.491 1_545 S
Dy155 O166 2.403 . S
Dy155 O167 2.664 . S
Dy155 O169 2.326 1_545 S
O156 Dy152 2.398 . S
O156 C154 1.185 . S
O157 Dy152 2.491 . S
O157 C154 1.355 . S
O158 Dy152 2.403 . S
O158 C160 1.254 . S
O159 Dy152 2.664 . S
O159 Dy155 2.310 1_455 S
O159 C160 1.268 . S
C160 O158 1.254 . S
C160 O159 1.268 . S
C161 O166 1.254 . S
C161 O167 1.268 . S
O162 Dy155 2.351 1_455 S
O162 C170 1.249 . S
O163 Dy152 2.326 . S
O163 C170 1.267 . S
O164 C153 1.185 . S
O164 Dy155 2.398 1_565 S
O165 C153 1.355 . S
O165 Dy155 2.491 1_565 S
O166 Dy155 2.403 . S
O166 C161 1.254 . S
O167 Dy152 2.310 1_655 S
O167 Dy155 2.664 . S
O167 C161 1.268 . S
O168 Dy152 2.352 1_565 S
O168 C171 1.248 1_455 S
O169 Dy155 2.326 1_565 S
O169 C171 1.267 . S
C170 O162 1.249 . S
C170 O163 1.267 . S
C171 O168 1.248 1_655 S
C171 O169 1.267 . S
Dy172 O176 2.398 . S
Dy172 O177 2.491 . S
Dy172 O178 2.403 1_545 S
Dy172 O179 2.664 . S
Dy172 O183 2.326 . S
Dy172 O187 2.310 . S
Dy172 O188 2.351 . S
C173 O184 1.185 1_565 S
C173 O185 1.355 1_556 S
C174 O176 1.185 . S
C174 O177 1.355 . S
Dy175 O179 2.310 . S
Dy175 O182 2.351 . S
Dy175 O184 2.398 1_554 S
Dy175 O185 2.491 1_545 S
Dy175 O186 2.403 . S
Dy175 O187 2.664 . S
Dy175 O189 2.326 . S
O176 Dy172 2.398 . S
O176 C174 1.185 . S
O177 Dy172 2.491 . S
O177 C174 1.355 . S
O178 Dy172 2.403 1_565 S
O178 C180 1.254 . S
O179 Dy172 2.664 . S
O179 Dy175 2.310 . S
O179 C180 1.268 1_545 S
C180 O178 1.254 . S
C180 O179 1.268 1_565 S
C181 O186 1.254 . S
C181 O187 1.268 . S
O182 Dy175 2.351 . S
O182 C190 1.249 . S
O183 Dy172 2.326 . S
O183 C190 1.267 . S
O184 C173 1.185 1_545 S
O184 Dy175 2.398 1_556 S
O185 C173 1.355 1_554 S
O185 Dy175 2.491 1_565 S
O186 Dy175 2.403 . S
O186 C181 1.254 . S
O187 Dy172 2.310 . S
O187 Dy175 2.664 . S
O187 C181 1.268 . S
O188 Dy172 2.351 . S
O188 C191 1.249 . S
O189 Dy175 2.326 . S
O189 C191 1.267 . S
C190 O182 1.249 . S
C190 O183 1.267 . S
C191 O188 1.249 . S
C191 O189 1.267 . S
Dy192 O196 2.398 . S
Dy192 O197 2.491 . S
Dy192 O198 2.403 . S
Dy192 O199 2.664 . S
Dy192 O203 2.326 . S
Dy192 O207 2.310 . S
Dy192 O208 2.351 . S
C193 O204 1.185 . S
C193 O205 1.355 . S
C194 O196 1.185 . S
C194 O197 1.355 . S
Dy195 O199 2.310 . S
Dy195 O202 2.351 . S
Dy195 O204 2.398 . S
Dy195 O205 2.491 . S
Dy195 O206 2.403 . S
Dy195 O207 2.664 . S
Dy195 O209 2.326 . S
O196 Dy192 2.398 . S
O196 C194 1.185 . S
O197 Dy192 2.491 . S
O197 C194 1.355 . S
O198 Dy192 2.403 . S
O198 C200 1.254 . S
O199 Dy192 2.664 . S
O199 Dy195 2.310 . S
O199 C200 1.268 . S
C200 O198 1.254 . S
C200 O199 1.268 . S
C201 O206 1.254 . S
C201 O207 1.268 . S
O202 Dy195 2.351 . S
O202 C210 1.249 . S
O203 Dy192 2.326 . S
O203 C210 1.267 . S
O204 C193 1.185 . S
O204 Dy195 2.398 . S
O205 C193 1.355 . S
O205 Dy195 2.491 . S
O206 Dy195 2.403 . S
O206 C201 1.254 . S
O207 Dy192 2.310 . S
O207 Dy195 2.664 . S
O207 C201 1.268 . S
O208 Dy192 2.351 . S
O208 C211 1.249 . S
O209 Dy195 2.326 . S
O209 C211 1.267 . S
C210 O202 1.249 . S
C210 O203 1.267 . S
C211 O208 1.249 . S
C211 O209 1.267 . S
Dy212 O216 2.398 . S
Dy212 O217 2.491 . S
Dy212 O218 2.403 . S
Dy212 O219 2.664 . S
Dy212 O223 2.326 . S
Dy212 O227 2.310 . S
Dy212 O228 2.351 1_455 S
C213 O224 1.185 1_655 S
C213 O225 1.355 1_556 S
C214 O216 1.185 . S
C214 O217 1.355 . S
Dy215 O219 2.310 . S
Dy215 O222 2.351 . S
Dy215 O224 2.398 1_554 S
Dy215 O225 2.491 1_455 S
Dy215 O226 2.403 1_554 S
Dy215 O227 2.664 . S
Dy215 O229 2.326 1_454 S
O216 Dy212 2.398 . S
O216 C214 1.185 . S
O217 Dy212 2.491 . S
O217 C214 1.355 . S
O218 Dy212 2.403 . S
O218 C220 1.237 1_455 S
O219 Dy212 2.664 . S
O219 Dy215 2.310 . S
O219 C220 1.260 1_455 S
C220 O218 1.237 1_655 S
C220 O219 1.260 1_655 S
C221 O226 1.254 . S
C221 O227 1.268 1_556 S
O222 Dy215 2.351 . S
O222 C230 1.249 . S
O223 Dy212 2.326 . S
O223 C230 1.267 . S
O224 C213 1.185 1_455 S
O224 Dy215 2.398 1_556 S
O225 C213 1.355 1_554 S
O225 Dy215 2.491 1_655 S
O226 Dy215 2.403 1_556 S
O226 C221 1.254 . S
O227 Dy212 2.310 . S
O227 Dy215 2.664 . S
O227 C221 1.268 1_554 S
O228 Dy212 2.351 1_655 S
O228 C231 1.249 . S
O229 Dy215 2.326 1_656 S
O229 C231 1.267 1_556 S
C230 O222 1.249 . S
C230 O223 1.267 . S
C231 O228 1.249 . S
C231 O229 1.267 1_554 S
H232 C240 0.929 . S
H233 C242 0.930 . S
H234 C244 0.930 . S
H235 C247 0.929 . S
H236 C250 0.930 . S
H237 C252 0.960 . S
H238 C252 0.960 . S
H239 C252 0.960 . S
C240 H232 0.929 . S
C240 C241 1.377 . S
C240 C242 1.384 . S
C241 C240 1.377 . S
C241 C247 1.390 . S
C242 H233 0.930 . S
C242 C240 1.384 . S
C242 C243 1.372 . S
C243 C242 1.372 . S
C243 C244 1.400 . S
C243 C248 1.490 . S
C244 H234 0.930 . S
C244 C243 1.400 . S
C244 C247 1.386 . S
H245 C261 0.930 . S
H246 C262 0.931 . S
C247 H235 0.929 . S
C247 C241 1.390 . S
C247 C244 1.386 . S
C248 C243 1.490 . S
C248 C250 1.395 . S
C248 C251 1.403 . S
H249 C255 0.930 . S
C250 H236 0.930 . S
C250 C248 1.395 . S
C250 C253 1.403 . S
C251 C248 1.403 . S
C251 C252 1.524 . S
C251 C255 1.400 . S
C252 H237 0.960 . S
C252 H238 0.960 . S
C252 H239 0.960 . S
C252 C251 1.524 . S
C253 C250 1.403 . S
C253 C254 1.392 . S
C253 C257 1.495 . S
C254 C253 1.392 . S
C254 C255 1.385 . S
C254 C256 1.478 . S
C255 H249 0.930 . S
C255 C251 1.400 . S
C255 C254 1.385 . S
C256 C254 1.478 . S
C256 C258 1.381 . S
C256 C262 1.383 . S
C257 C253 1.495 . S
C257 H263 0.959 . S
C257 H264 0.961 . S
C257 H265 0.960 . S
C258 C256 1.381 . S
C258 C259 1.394 . S
C258 H266 0.930 . S
C259 C258 1.394 . S
C259 C260 1.383 . S
C259 H267 0.929 . S
C260 C259 1.383 . S
C260 C261 1.377 . S
C261 H245 0.930 . S
C261 C260 1.377 . S
C261 C262 1.379 . S
C262 H246 0.931 . S
C262 C256 1.383 . S
C262 C261 1.379 . S
H263 C257 0.959 . S
H264 C257 0.961 . S
H265 C257 0.960 . S
H266 C258 0.930 . S
H267 C259 0.929 . S
H268 C276 0.929 . S
H269 C278 0.930 . S
H270 C280 0.930 . S
H271 C283 0.929 . S
H272 C286 0.930 . S
H273 C288 0.960 . S
H274 C288 0.960 . S
H275 C288 0.960 . S
C276 H268 0.929 . S
C276 C277 1.377 . S
C276 C278 1.384 . S
C277 C276 1.377 . S
C277 C283 1.390 . S
C278 H269 0.930 . S
C278 C276 1.384 . S
C278 C279 1.372 . S
C279 C278 1.372 . S
C279 C280 1.400 . S
C279 C284 1.490 . S
C280 H270 0.930 . S
C280 C279 1.400 . S
C280 C283 1.386 . S
H281 C297 0.930 . S
H282 C298 0.931 . S
C283 H271 0.929 . S
C283 C277 1.390 . S
C283 C280 1.386 . S
C284 C279 1.490 . S
C284 C286 1.395 . S
C284 C287 1.403 . S
H285 C291 0.930 . S
C286 H272 0.930 . S
C286 C284 1.395 . S
C286 C289 1.403 . S
C287 C284 1.403 . S
C287 C288 1.524 . S
C287 C291 1.400 . S
C288 H273 0.960 . S
C288 H274 0.960 . S
C288 H275 0.960 . S
C288 C287 1.524 . S
C289 C286 1.403 . S
C289 C290 1.392 . S
C289 C293 1.495 . S
C290 C289 1.392 . S
C290 C291 1.385 . S
C290 C292 1.478 . S
C291 H285 0.930 . S
C291 C287 1.400 . S
C291 C290 1.385 . S
C292 C290 1.478 . S
C292 C294 1.381 . S
C292 C298 1.383 . S
C293 C289 1.495 . S
C293 H299 0.959 . S
C293 H300 0.961 . S
C293 H301 0.986 . S
C294 C292 1.381 . S
C294 C295 1.393 1_565 S
C294 H302 0.930 1_565 S
C295 C294 1.393 1_545 S
C295 C296 1.367 1_545 S
C295 H303 0.947 . S
C296 C295 1.367 1_565 S
C296 C297 1.377 . S
C297 H281 0.930 . S
C297 C296 1.377 . S
C297 C298 1.379 . S
C298 H282 0.931 . S
C298 C292 1.383 . S
C298 C297 1.379 . S
H299 C293 0.959 . S
H300 C293 0.961 . S
H301 C293 0.986 . S
H302 C294 0.930 1_545 S
H303 C295 0.947 . S
H304 C312 0.929 . S
H305 C314 0.930 . S
H306 C316 0.930 . S
H307 C319 0.929 . S
H308 C322 0.930 . S
H309 C324 0.960 . S
H310 C324 0.960 . S
H311 C324 0.960 . S
C312 H304 0.929 . S
C312 C313 1.377 . S
C312 C314 1.384 . S
C313 C312 1.377 . S
C313 C319 1.390 . S
C314 H305 0.930 . S
C314 C312 1.384 . S
C314 C315 1.372 . S
C315 C314 1.372 . S
C315 C316 1.400 . S
C315 C320 1.490 . S
C316 H306 0.930 . S
C316 C315 1.400 . S
C316 C319 1.386 . S
H317 C333 0.930 . S
H318 C334 0.931 . S
C319 H307 0.929 . S
C319 C313 1.390 . S
C319 C316 1.386 . S
C320 C315 1.490 . S
C320 C322 1.395 . S
C320 C323 1.403 . S
H321 C327 0.930 . S
C322 H308 0.930 . S
C322 C320 1.395 . S
C322 C325 1.403 . S
C323 C320 1.403 . S
C323 C324 1.524 . S
C323 C327 1.400 . S
C324 H309 0.960 . S
C324 H310 0.960 . S
C324 H311 0.960 . S
C324 C323 1.524 . S
C325 C322 1.403 . S
C325 C326 1.392 . S
C325 C329 1.495 . S
C326 C325 1.392 . S
C326 C327 1.385 . S
C326 C328 1.478 . S
C327 H321 0.930 . S
C327 C323 1.400 . S
C327 C326 1.385 . S
C328 C326 1.478 . S
C328 C330 1.381 . S
C328 C334 1.383 . S
C329 C325 1.495 . S
C329 H335 0.959 . S
C329 H336 0.961 . S
C329 H337 0.960 . S
C330 C328 1.381 . S
C330 C331 1.394 . S
C330 H338 0.930 . S
C331 C330 1.394 . S
C331 C332 1.383 . S
C331 H339 0.929 . S
C332 C331 1.383 . S
C332 C333 1.377 . S
C333 H317 0.930 . S
C333 C332 1.377 . S
C333 C334 1.379 . S
C334 H318 0.931 . S
C334 C328 1.383 . S
C334 C333 1.379 . S
H335 C329 0.959 . S
H336 C329 0.961 . S
H337 C329 0.960 . S
H338 C330 0.930 . S
H339 C331 0.929 . S
H340 C348 0.929 . S
H341 C350 0.930 . S
H342 C352 0.930 . S
H343 C355 0.929 . S
H344 C358 0.930 . S
H345 C360 0.960 . S
H346 C360 0.960 . S
H347 C360 0.960 . S
C348 H340 0.929 . S
C348 C349 1.377 . S
C348 C350 1.384 . S
C349 C348 1.377 . S
C349 C355 1.390 . S
C350 H341 0.930 . S
C350 C348 1.384 . S
C350 C351 1.372 . S
C351 C350 1.372 . S
C351 C352 1.400 . S
C351 C356 1.490 . S
C352 H342 0.930 . S
C352 C351 1.400 . S
C352 C355 1.386 . S
H353 C369 0.930 . S
H354 C370 0.931 . S
C355 H343 0.929 . S
C355 C349 1.390 . S
C355 C352 1.386 . S
C356 C351 1.490 . S
C356 C358 1.395 . S
C356 C359 1.403 . S
H357 C363 0.930 . S
C358 H344 0.930 . S
C358 C356 1.395 . S
C358 C361 1.403 . S
C359 C356 1.403 . S
C359 C360 1.524 . S
C359 C363 1.400 . S
C360 H345 0.960 . S
C360 H346 0.960 . S
C360 H347 0.960 . S
C360 C359 1.524 . S
C361 C358 1.403 . S
C361 C362 1.392 . S
C361 C365 1.495 . S
C362 C361 1.392 . S
C362 C363 1.385 . S
C362 C364 1.478 . S
C363 H357 0.930 . S
C363 C359 1.400 . S
C363 C362 1.385 . S
C364 C362 1.478 . S
C364 C366 1.381 . S
C364 C370 1.383 . S
C365 C361 1.495 . S
C365 H371 0.959 . S
C365 H372 0.961 . S
C365 H373 0.960 1_655 S
C366 C364 1.381 . S
C366 C367 1.394 1_655 S
C366 H374 0.930 1_655 S
C367 C366 1.394 1_455 S
C367 C368 1.383 1_455 S
C367 H375 0.929 . S
C368 C367 1.383 1_655 S
C368 C369 1.377 . S
C369 H353 0.930 . S
C369 C368 1.377 . S
C369 C370 1.379 . S
C370 H354 0.931 . S
C370 C364 1.383 . S
C370 C369 1.379 . S
H371 C365 0.959 . S
H372 C365 0.961 . S
H373 C365 0.960 1_455 S
H374 C366 0.930 1_455 S
H375 C367 0.929 . S
H376 C384 0.929 . S
H377 C386 0.930 . S
H378 C388 0.930 . S
H379 C391 0.929 . S
H380 C394 0.930 . S
H381 C396 0.960 . S
H382 C396 0.960 . S
H383 C396 0.960 . S
C384 H376 0.929 . S
C384 C385 1.377 . S
C384 C386 1.384 . S
C385 C384 1.377 . S
C385 C391 1.390 . S
C386 H377 0.930 . S
C386 C384 1.384 . S
C386 C387 1.372 . S
C387 C386 1.372 . S
C387 C388 1.400 . S
C387 C392 1.490 . S
C388 H378 0.930 . S
C388 C387 1.400 . S
C388 C391 1.386 . S
H389 C405 0.930 . S
H390 C406 0.931 . S
C391 H379 0.929 . S
C391 C385 1.390 . S
C391 C388 1.386 . S
C392 C387 1.490 . S
C392 C394 1.395 . S
C392 C395 1.403 . S
H393 C399 0.930 . S
C394 H380 0.930 . S
C394 C392 1.395 . S
C394 C397 1.403 . S
C395 C392 1.403 . S
C395 C396 1.524 . S
C395 C399 1.400 . S
C396 H381 0.960 . S
C396 H382 0.960 . S
C396 H383 0.960 . S
C396 C395 1.524 . S
C397 C394 1.403 . S
C397 C398 1.392 . S
C397 C401 1.495 . S
C398 C397 1.392 . S
C398 C399 1.385 . S
C398 C400 1.478 . S
C399 H393 0.930 . S
C399 C395 1.400 . S
C399 C398 1.385 . S
C400 C398 1.478 . S
C400 C402 1.381 . S
C400 C406 1.383 . S
C401 C397 1.495 . S
C401 H407 0.959 . S
C401 H408 0.961 . S
C401 H409 0.960 . S
C402 C400 1.381 . S
C402 C403 1.394 . S
C402 H410 0.930 . S
C403 C402 1.394 . S
C403 C404 1.383 . S
C403 H411 0.929 . S
C404 C403 1.383 . S
C404 C405 1.377 . S
C405 H389 0.930 . S
C405 C404 1.377 . S
C405 C406 1.379 . S
C406 H390 0.931 . S
C406 C400 1.383 . S
C406 C405 1.379 . S
H407 C401 0.959 . S
H408 C401 0.961 . S
H409 C401 0.960 . S
H410 C402 0.930 . S
H411 C403 0.929 . S
H412 C420 0.929 . S
H413 C422 0.930 . S
H414 C424 0.930 . S
H415 C427 0.929 . S
H416 C430 0.930 1_545 S
H417 C432 0.960 . S
H418 C432 0.960 . S
H419 C432 0.960 . S
C420 H412 0.929 . S
C420 C421 1.377 . S
C420 C422 1.384 . S
C421 C420 1.377 . S
C421 C427 1.390 . S
C422 H413 0.930 . S
C422 C420 1.384 . S
C422 C423 1.372 . S
C423 C422 1.372 . S
C423 C424 1.400 . S
C423 C428 1.490 . S
C424 H414 0.930 . S
C424 C423 1.400 . S
C424 C427 1.386 . S
H425 C441 0.930 . S
H426 C442 0.931 . S
C427 H415 0.929 . S
C427 C421 1.390 . S
C427 C424 1.386 . S
C428 C423 1.490 . S
C428 C430 1.395 . S
C428 C431 1.403 . S
H429 C435 0.930 . S
C430 H416 0.930 1_565 S
C430 C428 1.395 . S
C430 C433 1.403 1_565 S
C431 C428 1.403 . S
C431 C432 1.524 . S
C431 C435 1.400 . S
C432 H417 0.960 . S
C432 H418 0.960 . S
C432 H419 0.960 . S
C432 C431 1.524 . S
C433 C430 1.403 1_545 S
C433 C434 1.392 1_545 S
C433 C437 1.495 . S
C434 C433 1.392 1_565 S
C434 C435 1.385 . S
C434 C436 1.478 . S
C435 H429 0.930 . S
C435 C431 1.400 . S
C435 C434 1.385 . S
C436 C434 1.478 . S
C436 C438 1.381 1_565 S
C436 C442 1.383 . S
C437 C433 1.495 . S
C437 H443 0.959 . S
C437 H444 0.961 . S
C437 H445 0.960 . S
C438 C436 1.381 1_545 S
C438 C439 1.394 . S
C438 H446 0.930 . S
C439 C438 1.394 . S
C439 C440 1.383 . S
C439 H447 0.929 . S
C440 C439 1.383 . S
C440 C441 1.377 1_545 S
C441 H425 0.930 . S
C441 C440 1.377 1_565 S
C441 C442 1.379 . S
C442 H426 0.931 . S
C442 C436 1.383 . S
C442 C441 1.379 . S
H443 C437 0.959 . S
H444 C437 0.961 . S
H445 C437 0.960 . S
H446 C438 0.930 . S
H447 C439 0.929 . S
H448 C456 0.929 . S
H449 C458 0.930 . S
H450 C460 0.930 . S
H451 C463 0.929 . S
H452 C466 0.930 . S
H453 C468 0.960 . S
H454 C468 0.960 . S
H455 C468 0.960 . S
C456 H448 0.929 . S
C456 C457 1.377 . S
C456 C458 1.384 . S
C457 C456 1.377 . S
C457 C463 1.390 . S
C458 H449 0.930 . S
C458 C456 1.384 . S
C458 C459 1.372 . S
C459 C458 1.372 . S
C459 C460 1.400 . S
C459 C464 1.490 . S
C460 H450 0.930 . S
C460 C459 1.400 . S
C460 C463 1.386 . S
H461 C477 0.930 . S
H462 C478 0.931 . S
C463 H451 0.929 . S
C463 C457 1.390 . S
C463 C460 1.386 . S
C464 C459 1.490 . S
C464 C466 1.395 . S
C464 C467 1.403 . S
H465 C471 0.930 . S
C466 H452 0.930 . S
C466 C464 1.395 . S
C466 C469 1.403 . S
C467 C464 1.403 . S
C467 C468 1.524 . S
C467 C471 1.400 . S
C468 H453 0.960 . S
C468 H454 0.960 . S
C468 H455 0.960 . S
C468 C467 1.524 . S
C469 C466 1.403 . S
C469 C470 1.392 . S
C469 C473 1.495 . S
C470 C469 1.392 . S
C470 C471 1.385 . S
C470 C472 1.478 . S
C471 H465 0.930 . S
C471 C467 1.400 . S
C471 C470 1.385 . S
C472 C470 1.478 . S
C472 C474 1.381 1_556 S
C472 C478 1.383 . S
C473 C469 1.495 . S
C473 H479 0.959 . S
C473 H480 0.961 . S
C473 H481 0.960 . S
C474 C472 1.381 1_554 S
C474 C475 1.394 . S
C474 H482 0.930 . S
C475 C474 1.394 . S
C475 C476 1.383 1_554 S
C475 H483 0.929 . S
C476 C475 1.383 1_556 S
C476 C477 1.377 . S
C477 H461 0.930 . S
C477 C476 1.377 . S
C477 C478 1.379 . S
C478 H462 0.931 . S
C478 C472 1.383 . S
C478 C477 1.379 . S
H479 C473 0.959 . S
H480 C473 0.961 . S
H481 C473 0.960 . S
H482 C474 0.930 . S
H483 C475 0.929 . S
H484 C492 0.929 . S
H485 C494 0.930 . S
H486 C496 0.930 . S
H487 C499 0.929 . S
H488 C502 0.930 . S
H489 C504 0.960 . S
H490 C504 0.960 . S
H491 C504 0.960 . S
C492 H484 0.929 . S
C492 C493 1.377 . S
C492 C494 1.384 . S
C493 C492 1.377 . S
C493 C499 1.390 . S
C494 H485 0.930 . S
C494 C492 1.384 . S
C494 C495 1.372 . S
C495 C494 1.372 . S
C495 C496 1.400 . S
C495 C500 1.490 . S
C496 H486 0.930 . S
C496 C495 1.400 . S
C496 C499 1.386 . S
H497 C513 0.930 . S
H498 C514 0.931 . S
C499 H487 0.929 . S
C499 C493 1.390 . S
C499 C496 1.386 . S
C500 C495 1.490 . S
C500 C502 1.395 . S
C500 C503 1.403 . S
H501 C507 0.930 . S
C502 H488 0.930 . S
C502 C500 1.395 . S
C502 C505 1.403 . S
C503 C500 1.403 . S
C503 C504 1.524 . S
C503 C507 1.400 . S
C504 H489 0.960 . S
C504 H490 0.960 . S
C504 H491 0.960 . S
C504 C503 1.524 . S
C505 C502 1.403 . S
C505 C506 1.392 . S
C505 C509 1.495 . S
C506 C505 1.392 . S
C506 C507 1.385 . S
C506 C508 1.478 . S
C507 H501 0.930 . S
C507 C503 1.400 . S
C507 C506 1.385 . S
C508 C506 1.478 . S
C508 C510 1.381 . S
C508 C514 1.383 . S
C509 C505 1.495 . S
C509 H515 0.959 . S
C509 H516 0.961 . S
C509 H517 0.960 . S
C510 C508 1.381 . S
C510 C511 1.394 . S
C510 H518 0.930 . S
C511 C510 1.394 . S
C511 C512 1.383 . S
C511 H519 0.929 . S
C512 C511 1.383 . S
C512 C513 1.377 . S
C513 H497 0.930 . S
C513 C512 1.377 . S
C513 C514 1.379 . S
C514 H498 0.931 . S
C514 C508 1.383 . S
C514 C513 1.379 . S
H515 C509 0.959 . S
H516 C509 0.961 . S
H517 C509 0.960 . S
H518 C510 0.930 . S
H519 C511 0.929 . S
H520 C528 0.929 . S
H521 C530 0.930 . S
H522 C532 0.930 . S
H523 C535 0.929 . S
H524 C538 0.930 . S
H525 C540 0.960 . S
H526 C540 0.960 . S
H527 C540 0.960 . S
C528 H520 0.929 . S
C528 C529 1.377 . S
C528 C530 1.384 . S
C529 C528 1.377 . S
C529 C535 1.390 . S
C530 H521 0.930 . S
C530 C528 1.384 . S
C530 C531 1.372 . S
C531 C530 1.372 . S
C531 C532 1.400 . S
C531 C536 1.490 . S
C532 H522 0.930 . S
C532 C531 1.400 . S
C532 C535 1.386 . S
H533 C549 0.930 . S
H534 C550 0.931 . S
C535 H523 0.929 . S
C535 C529 1.390 . S
C535 C532 1.386 . S
C536 C531 1.490 . S
C536 C538 1.395 . S
C536 C539 1.403 . S
H537 C543 0.930 . S
C538 H524 0.930 . S
C538 C536 1.395 . S
C538 C541 1.403 . S
C539 C536 1.403 . S
C539 C540 1.524 . S
C539 C543 1.400 . S
C540 H525 0.960 . S
C540 H526 0.960 . S
C540 H527 0.960 . S
C540 C539 1.524 . S
C541 C538 1.403 . S
C541 C542 1.392 . S
C541 C545 1.495 . S
C542 C541 1.392 . S
C542 C543 1.385 . S
C542 C544 1.478 . S
C543 H537 0.930 . S
C543 C539 1.400 . S
C543 C542 1.385 . S
C544 C542 1.478 . S
C544 C546 1.381 . S
C544 C550 1.383 . S
C545 C541 1.495 . S
C545 H551 0.959 . S
C545 H552 0.961 . S
C545 H553 0.960 . S
C546 C544 1.381 . S
C546 C547 1.394 . S
C546 H554 0.930 . S
C547 C546 1.394 . S
C547 C548 1.383 . S
C547 H555 0.929 . S
C548 C547 1.383 . S
C548 C549 1.377 . S
C549 H533 0.930 . S
C549 C548 1.377 . S
C549 C550 1.379 . S
C550 H534 0.931 . S
C550 C544 1.383 . S
C550 C549 1.379 . S
H551 C545 0.959 . S
H552 C545 0.961 . S
H553 C545 0.960 . S
H554 C546 0.930 . S
H555 C547 0.929 . S
H556 C564 0.929 . S
H557 C566 0.930 . S
H558 C568 0.930 . S
H559 C571 0.929 . S
H560 C574 0.930 . S
H561 C576 0.960 . S
H562 C576 0.960 . S
H563 C576 0.960 . S
C564 H556 0.929 . S
C564 C565 1.377 . S
C564 C566 1.384 . S
C565 C564 1.377 . S
C565 C571 1.390 . S
C566 H557 0.930 . S
C566 C564 1.384 . S
C566 C567 1.372 . S
C567 C566 1.372 . S
C567 C568 1.400 . S
C567 C572 1.490 . S
C568 H558 0.930 . S
C568 C567 1.400 . S
C568 C571 1.386 . S
H569 C585 0.930 . S
H570 C586 0.931 1_556 S
C571 H559 0.929 . S
C571 C565 1.390 . S
C571 C568 1.386 . S
C572 C567 1.490 . S
C572 C574 1.395 1_556 S
C572 C575 1.403 . S
H573 C579 0.930 . S
C574 H560 0.930 . S
C574 C572 1.395 1_554 S
C574 C577 1.403 . S
C575 C572 1.403 . S
C575 C576 1.524 . S
C575 C579 1.400 . S
C576 H561 0.960 . S
C576 H562 0.960 . S
C576 H563 0.960 . S
C576 C575 1.524 . S
C577 C574 1.403 . S
C577 C578 1.392 . S
C577 C581 1.495 . S
C578 C577 1.392 . S
C578 C579 1.385 1_554 S
C578 C580 1.478 . S
C579 H573 0.930 . S
C579 C575 1.400 . S
C579 C578 1.385 1_556 S
C580 C578 1.478 . S
C580 C582 1.381 . S
C580 C586 1.383 . S
C581 C577 1.495 . S
C581 H587 0.959 . S
C581 H588 0.961 . S
C581 H589 0.960 . S
C582 C580 1.381 . S
C582 C583 1.394 . S
C582 H590 0.930 . S
C583 C582 1.394 . S
C583 C584 1.383 . S
C583 H591 0.929 . S
C584 C583 1.383 . S
C584 C585 1.377 . S
C585 H569 0.930 . S
C585 C584 1.377 . S
C585 C586 1.379 . S
C586 H570 0.931 1_554 S
C586 C580 1.383 . S
C586 C585 1.379 . S
H587 C581 0.959 . S
H588 C581 0.961 . S
H589 C581 0.960 . S
H590 C582 0.930 . S
H591 C583 0.929 . S
H592 C600 0.929 . S
H593 C602 0.930 . S
H594 C604 0.930 . S
H595 C607 0.929 . S
H596 C610 0.930 . S
H597 C612 0.960 . S
H598 C612 0.960 . S
H599 C612 0.960 . S
C600 H592 0.929 . S
C600 C601 1.377 . S
C600 C602 1.384 . S
C601 C600 1.377 . S
C601 C607 1.390 . S
C602 H593 0.930 . S
C602 C600 1.384 . S
C602 C603 1.372 . S
C603 C602 1.372 . S
C603 C604 1.400 . S
C603 C608 1.490 . S
C604 H594 0.930 . S
C604 C603 1.400 . S
C604 C607 1.386 . S
H605 C621 0.930 . S
H606 C622 0.931 . S
C607 H595 0.929 . S
C607 C601 1.390 . S
C607 C604 1.386 . S
C608 C603 1.490 . S
C608 C610 1.395 . S
C608 C611 1.403 . S
H609 C615 0.930 . S
C610 H596 0.930 . S
C610 C608 1.395 . S
C610 C613 1.403 . S
C611 C608 1.403 . S
C611 C612 1.524 . S
C611 C615 1.400 . S
C612 H597 0.960 . S
C612 H598 0.960 . S
C612 H599 0.960 . S
C612 C611 1.524 . S
C613 C610 1.403 . S
C613 C614 1.392 . S
C613 C617 1.495 . S
C614 C613 1.392 . S
C614 C615 1.385 . S
C614 C616 1.478 . S
C615 H609 0.930 . S
C615 C611 1.400 . S
C615 C614 1.385 . S
C616 C614 1.478 . S
C616 C618 1.381 . S
C616 C622 1.383 . S
C617 C613 1.495 . S
C617 H623 0.959 . S
C617 H624 0.961 . S
C617 H625 0.960 . S
C618 C616 1.381 . S
C618 C619 1.394 . S
C618 H626 0.930 . S
C619 C618 1.394 . S
C619 C620 1.383 . S
C619 H627 0.929 . S
C620 C619 1.383 . S
C620 C621 1.377 . S
C621 H605 0.930 . S
C621 C620 1.377 . S
C621 C622 1.379 . S
C622 H606 0.931 . S
C622 C616 1.383 . S
C622 C621 1.379 . S
H623 C617 0.959 . S
H624 C617 0.961 . S
H625 C617 0.960 . S
H626 C618 0.930 . S
H627 C619 0.929 . S
H628 C636 0.929 . S
H629 C638 0.930 . S
H630 C640 0.930 . S
H631 C643 0.929 . S
H632 C646 0.930 . S
H633 C648 0.960 . S
H634 C648 0.960 . S
H635 C648 0.960 . S
C636 H628 0.929 . S
C636 C637 1.377 . S
C636 C638 1.384 . S
C637 C636 1.377 . S
C637 C643 1.390 . S
C638 H629 0.930 . S
C638 C636 1.384 . S
C638 C639 1.372 . S
C639 C638 1.372 . S
C639 C640 1.400 . S
C639 C644 1.490 . S
C640 H630 0.930 . S
C640 C639 1.400 . S
C640 C643 1.386 . S
H641 C657 0.930 . S
H642 C658 0.931 . S
C643 H631 0.929 . S
C643 C637 1.390 . S
C643 C640 1.386 . S
C644 C639 1.490 . S
C644 C646 1.395 . S
C644 C647 1.403 . S
H645 C651 0.930 . S
C646 H632 0.930 . S
C646 C644 1.395 . S
C646 C649 1.403 . S
C647 C644 1.403 . S
C647 C648 1.524 . S
C647 C651 1.400 . S
C648 H633 0.960 . S
C648 H634 0.960 . S
C648 H635 0.960 . S
C648 C647 1.524 . S
C649 C646 1.403 . S
C649 C650 1.392 . S
C649 C653 1.495 . S
C650 C649 1.392 . S
C650 C651 1.385 . S
C650 C652 1.478 . S
C651 H645 0.930 . S
C651 C647 1.400 . S
C651 C650 1.385 . S
C652 C650 1.478 . S
C652 C654 1.381 . S
C652 C658 1.383 . S
C653 C649 1.495 . S
C653 H659 0.959 . S
C653 H660 0.961 . S
C653 H661 0.960 . S
C654 C652 1.381 . S
C654 C655 1.394 . S
C654 H662 0.930 . S
C655 C654 1.394 . S
C655 C656 1.383 . S
C655 H663 0.929 . S
C656 C655 1.383 . S
C656 C657 1.377 . S
C657 H641 0.930 . S
C657 C656 1.377 . S
C657 C658 1.379 . S
C658 H642 0.931 . S
C658 C652 1.383 . S
C658 C657 1.379 . S
H659 C653 0.959 . S
H660 C653 0.961 . S
H661 C653 0.960 . S
H662 C654 0.930 . S
H663 C655 0.929 . S
H664 C672 0.929 . S
H665 C674 0.930 . S
H666 C676 0.930 . S
H667 C679 0.929 . S
H668 C682 0.930 . S
H669 C684 0.960 . S
H670 C684 0.960 . S
H671 C684 0.960 . S
C672 H664 0.929 . S
C672 C673 1.377 . S
C672 C674 1.384 . S
C673 C672 1.377 . S
C673 C679 1.390 . S
C674 H665 0.930 . S
C674 C672 1.384 . S
C674 C675 1.372 . S
C675 C674 1.372 . S
C675 C676 1.400 . S
C675 C680 1.490 . S
C676 H666 0.930 . S
C676 C675 1.400 . S
C676 C679 1.386 . S
H677 C693 0.930 . S
H678 C694 0.931 . S
C679 H667 0.929 . S
C679 C673 1.390 . S
C679 C676 1.386 . S
C680 C675 1.490 . S
C680 C682 1.395 . S
C680 C683 1.403 . S
H681 C687 0.930 . S
C682 H668 0.930 . S
C682 C680 1.395 . S
C682 C685 1.403 . S
C683 C680 1.403 . S
C683 C684 1.524 . S
C683 C687 1.400 . S
C684 H669 0.960 . S
C684 H670 0.960 . S
C684 H671 0.960 . S
C684 C683 1.524 . S
C685 C682 1.403 . S
C685 C686 1.392 . S
C685 C689 1.495 . S
C686 C685 1.392 . S
C686 C687 1.385 . S
C686 C688 1.478 . S
C687 H681 0.930 . S
C687 C683 1.400 . S
C687 C686 1.385 . S
C688 C686 1.478 . S
C688 C690 1.381 . S
C688 C694 1.383 . S
C689 C685 1.495 . S
C689 H695 0.959 . S
C689 H696 0.961 . S
C689 H697 0.960 . S
C690 C688 1.381 . S
C690 C691 1.394 . S
C690 H698 0.930 . S
C691 C690 1.394 . S
C691 C692 1.383 . S
C691 H699 0.929 . S
C692 C691 1.383 . S
C692 C693 1.377 . S
C693 H677 0.930 . S
C693 C692 1.377 . S
C693 C694 1.379 . S
C694 H678 0.931 . S
C694 C688 1.383 . S
C694 C693 1.379 . S
H695 C689 0.959 . S
H696 C689 0.961 . S
H697 C689 0.960 . S
H698 C690 0.930 . S
H699 C691 0.929 . S
H700 C708 0.929 . S
H701 C710 0.930 . S
H702 C712 0.930 . S
H703 C715 0.929 . S
H704 C718 0.930 . S
H705 C720 0.960 . S
H706 C720 0.960 . S
H707 C720 0.960 . S
C708 H700 0.929 . S
C708 C709 1.377 . S
C708 C710 1.384 . S
C709 C708 1.377 . S
C709 C715 1.390 . S
C710 H701 0.930 . S
C710 C708 1.384 . S
C710 C711 1.372 . S
C711 C710 1.372 . S
C711 C712 1.400 . S
C711 C716 1.490 . S
C712 H702 0.930 . S
C712 C711 1.400 . S
C712 C715 1.386 . S
H713 C729 0.930 . S
H714 C730 0.931 . S
C715 H703 0.929 . S
C715 C709 1.390 . S
C715 C712 1.386 . S
C716 C711 1.490 . S
C716 C718 1.395 . S
C716 C719 1.403 . S
H717 C723 0.930 . S
C718 H704 0.930 . S
C718 C716 1.395 . S
C718 C721 1.403 . S
C719 C716 1.403 . S
C719 C720 1.524 . S
C719 C723 1.400 . S
C720 H705 0.960 . S
C720 H706 0.960 . S
C720 H707 0.960 . S
C720 C719 1.524 . S
C721 C718 1.403 . S
C721 C722 1.392 . S
C721 C725 1.495 . S
C722 C721 1.392 . S
C722 C723 1.385 . S
C722 C724 1.478 . S
C723 H717 0.930 . S
C723 C719 1.400 . S
C723 C722 1.385 . S
C724 C722 1.478 . S
C724 C726 1.381 . S
C724 C730 1.383 . S
C725 C721 1.495 . S
C725 H731 0.959 . S
C725 H732 0.961 . S
C725 H733 0.960 . S
C726 C724 1.381 . S
C726 C727 1.394 . S
C726 H734 0.930 . S
C727 C726 1.394 . S
C727 C728 1.383 . S
C727 H735 0.929 . S
C728 C727 1.383 . S
C728 C729 1.377 . S
C729 H713 0.930 . S
C729 C728 1.377 . S
C729 C730 1.379 . S
C730 H714 0.931 . S
C730 C724 1.383 . S
C730 C729 1.379 . S
H731 C725 0.959 . S
H732 C725 0.961 . S
H733 C725 0.960 . S
H734 C726 0.930 . S
H735 C727 0.929 . S
H736 C744 0.929 . S
H737 C746 0.930 . S
H738 C748 0.930 . S
H739 C751 0.929 . S
H740 C754 0.930 . S
H741 C756 0.960 . S
H742 C756 0.960 . S
H743 C756 0.960 . S
C744 H736 0.929 . S
C744 C745 1.377 . S
C744 C746 1.384 . S
C745 C744 1.377 . S
C745 C751 1.390 . S
C746 H737 0.930 . S
C746 C744 1.384 . S
C746 C747 1.372 . S
C747 C746 1.372 . S
C747 C748 1.400 . S
C747 C752 1.490 . S
C748 H738 0.930 . S
C748 C747 1.400 . S
C748 C751 1.386 . S
H749 C765 0.930 . S
H750 C766 0.931 . S
C751 H739 0.929 . S
C751 C745 1.390 . S
C751 C748 1.386 . S
C752 C747 1.490 . S
C752 C754 1.395 . S
C752 C755 1.403 . S
H753 C759 0.930 . S
C754 H740 0.930 . S
C754 C752 1.395 . S
C754 C757 1.403 . S
C755 C752 1.403 . S
C755 C756 1.524 . S
C755 C759 1.400 . S
C756 H741 0.960 . S
C756 H742 0.960 . S
C756 H743 0.960 . S
C756 C755 1.524 . S
C757 C754 1.403 . S
C757 C758 1.392 . S
C757 C761 1.495 . S
C758 C757 1.392 . S
C758 C759 1.385 . S
C758 C760 1.478 . S
C759 H753 0.930 . S
C759 C755 1.400 . S
C759 C758 1.385 . S
C760 C758 1.478 . S
C760 C762 1.381 . S
C760 C766 1.383 . S
C761 C757 1.495 . S
C761 H767 0.959 . S
C761 H768 0.961 . S
C761 H769 0.960 . S
C762 C760 1.381 . S
C762 C763 1.394 . S
C762 H770 0.930 . S
C763 C762 1.394 . S
C763 C764 1.383 . S
C763 H771 0.929 . S
C764 C763 1.383 . S
C764 C765 1.377 . S
C765 H749 0.930 . S
C765 C764 1.377 . S
C765 C766 1.379 . S
C766 H750 0.931 . S
C766 C760 1.383 . S
C766 C765 1.379 . S
H767 C761 0.959 . S
H768 C761 0.961 . S
H769 C761 0.960 . S
H770 C762 0.930 . S
H771 C763 0.929 . S
H772 C780 0.929 . S
H773 C782 0.930 . S
H774 C784 0.930 . S
H775 C787 0.929 . S
H776 C790 0.930 . S
H777 C792 0.960 . S
H778 C792 0.960 . S
H779 C792 0.960 . S
C780 H772 0.929 . S
C780 C781 1.377 . S
C780 C782 1.384 . S
C781 C780 1.377 . S
C781 C787 1.390 . S
C782 H773 0.930 . S
C782 C780 1.384 . S
C782 C783 1.372 . S
C783 C782 1.372 . S
C783 C784 1.400 . S
C783 C788 1.490 . S
C784 H774 0.930 . S
C784 C783 1.400 . S
C784 C787 1.386 . S
H785 C801 0.930 . S
H786 C802 0.931 . S
C787 H775 0.929 . S
C787 C781 1.390 . S
C787 C784 1.386 . S
C788 C783 1.490 . S
C788 C790 1.395 . S
C788 C791 1.403 . S
H789 C795 0.930 . S
C790 H776 0.930 . S
C790 C788 1.395 . S
C790 C793 1.403 . S
C791 C788 1.403 . S
C791 C792 1.524 . S
C791 C795 1.400 . S
C792 H777 0.960 . S
C792 H778 0.960 . S
C792 H779 0.960 . S
C792 C791 1.524 . S
C793 C790 1.403 . S
C793 C794 1.392 . S
C793 C797 1.495 . S
C794 C793 1.392 . S
C794 C795 1.385 . S
C794 C796 1.478 . S
C795 H789 0.930 . S
C795 C791 1.400 . S
C795 C794 1.385 . S
C796 C794 1.478 . S
C796 C798 1.381 . S
C796 C802 1.383 . S
C797 C793 1.495 . S
C797 H803 0.959 . S
C797 H804 0.961 . S
C797 H805 0.960 . S
C798 C796 1.381 . S
C798 C799 1.394 . S
C798 H806 0.930 . S
C799 C798 1.394 . S
C799 C800 1.383 . S
C799 H807 0.929 . S
C800 C799 1.383 . S
C800 C801 1.377 . S
C801 H785 0.930 . S
C801 C800 1.377 . S
C801 C802 1.379 . S
C802 H786 0.931 . S
C802 C796 1.383 . S
C802 C801 1.379 . S
H803 C797 0.959 . S
H804 C797 0.961 . S
H805 C797 0.960 . S
H806 C798 0.930 . S
H807 C799 0.929 . S
H808 C816 0.929 . S
H809 C818 0.930 . S
H810 C820 0.930 . S
H811 C823 0.929 . S
H812 C826 0.930 . S
H813 C828 0.960 1_554 S
H814 C828 0.960 . S
H815 C828 0.960 . S
C816 H808 0.929 . S
C816 C817 1.377 . S
C816 C818 1.384 . S
C817 C816 1.377 . S
C817 C823 1.390 . S
C818 H809 0.930 . S
C818 C816 1.384 . S
C818 C819 1.372 . S
C819 C818 1.372 . S
C819 C820 1.400 . S
C819 C824 1.490 . S
C820 H810 0.930 . S
C820 C819 1.400 . S
C820 C823 1.386 . S
H821 C837 0.930 . S
H822 C838 0.931 . S
C823 H811 0.929 . S
C823 C817 1.390 . S
C823 C820 1.386 . S
C824 C819 1.490 . S
C824 C826 1.395 . S
C824 C827 1.403 . S
H825 C831 0.930 1_554 S
C826 H812 0.930 . S
C826 C824 1.395 . S
C826 C829 1.403 . S
C827 C824 1.403 . S
C827 C828 1.524 . S
C827 C831 1.400 . S
C828 H813 0.960 1_556 S
C828 H814 0.960 . S
C828 H815 0.960 . S
C828 C827 1.524 . S
C829 C826 1.403 . S
C829 C830 1.392 . S
C829 C833 1.495 . S
C830 C829 1.392 . S
C830 C831 1.385 . S
C830 C832 1.478 . S
C831 H825 0.930 1_556 S
C831 C827 1.400 . S
C831 C830 1.385 . S
C832 C830 1.478 . S
C832 C834 1.381 1_556 S
C832 C838 1.383 . S
C833 C829 1.495 . S
C833 H839 0.959 . S
C833 H840 0.961 . S
C833 H841 0.960 . S
C834 C832 1.381 1_554 S
C834 C835 1.394 . S
C834 H842 0.930 . S
C835 C834 1.394 . S
C835 C836 1.383 . S
C835 H843 0.929 1_565 S
C836 C835 1.383 . S
C836 C837 1.377 . S
C837 H821 0.930 . S
C837 C836 1.377 . S
C837 C838 1.379 1_554 S
C838 H822 0.931 . S
C838 C832 1.383 . S
C838 C837 1.379 1_556 S
H839 C833 0.959 . S
H840 C833 0.961 . S
H841 C833 0.960 . S
H842 C834 0.930 . S
H843 C835 0.929 1_545 S
H844 C852 0.929 . S
H845 C854 0.930 . S
H846 C856 0.930 . S
H847 C859 0.929 . S
H848 C862 0.930 . S
H849 C864 0.960 . S
H850 C864 0.960 . S
H851 C864 0.960 . S
C852 H844 0.929 . S
C852 C853 1.377 . S
C852 C854 1.384 . S
C853 C852 1.377 . S
C853 C859 1.390 . S
C854 H845 0.930 . S
C854 C852 1.384 . S
C854 C855 1.372 . S
C855 C854 1.372 . S
C855 C856 1.400 . S
C855 C860 1.490 . S
C856 H846 0.930 . S
C856 C855 1.400 . S
C856 C859 1.386 . S
H857 C873 0.930 . S
H858 C874 0.931 . S
C859 H847 0.929 . S
C859 C853 1.390 . S
C859 C856 1.386 . S
C860 C855 1.490 . S
C860 C862 1.395 . S
C860 C863 1.403 . S
H861 C867 0.930 . S
C862 H848 0.930 . S
C862 C860 1.395 . S
C862 C865 1.403 . S
C863 C860 1.403 . S
C863 C864 1.524 . S
C863 C867 1.400 . S
C864 H849 0.960 . S
C864 H850 0.960 . S
C864 H851 0.960 . S
C864 C863 1.524 . S
C865 C862 1.403 . S
C865 C866 1.392 . S
C865 C869 1.495 . S
C866 C865 1.392 . S
C866 C867 1.385 . S
C866 C868 1.478 . S
C867 H861 0.930 . S
C867 C863 1.400 . S
C867 C866 1.385 . S
C868 C866 1.478 . S
C868 C870 1.381 . S
C868 C874 1.383 . S
C869 C865 1.495 . S
C869 H875 0.959 . S
C869 H876 0.961 . S
C869 H877 0.960 . S
C870 C868 1.381 . S
C870 C871 1.394 . S
C870 H878 0.930 . S
C871 C870 1.394 . S
C871 C872 1.383 . S
C871 H879 0.929 . S
C872 C871 1.383 . S
C872 C873 1.377 . S
C873 H857 0.930 . S
C873 C872 1.377 . S
C873 C874 1.379 . S
C874 H858 0.931 . S
C874 C868 1.383 . S
C874 C873 1.379 . S
H875 C869 0.959 . S
H876 C869 0.961 . S
H877 C869 0.960 . S
H878 C870 0.930 . S
H879 C871 0.929 . S
H880 C888 0.929 . S
H881 C890 0.930 . S
H882 C892 0.930 . S
H883 C895 0.929 . S
H884 C898 0.930 . S
H885 C900 0.960 . S
H886 C900 0.960 . S
H887 C900 0.960 . S
C888 H880 0.929 . S
C888 C889 1.377 . S
C888 C890 1.384 . S
C889 C888 1.377 . S
C889 C895 1.390 . S
C890 H881 0.930 . S
C890 C888 1.384 . S
C890 C891 1.372 . S
C891 C890 1.372 . S
C891 C892 1.400 . S
C891 C896 1.490 . S
C892 H882 0.930 . S
C892 C891 1.400 . S
C892 C895 1.386 . S
H893 C909 0.930 . S
H894 C910 0.931 . S
C895 H883 0.929 . S
C895 C889 1.390 . S
C895 C892 1.386 . S
C896 C891 1.490 . S
C896 C898 1.395 . S
C896 C899 1.403 . S
H897 C903 0.930 . S
C898 H884 0.930 . S
C898 C896 1.395 . S
C898 C901 1.403 . S
C899 C896 1.403 . S
C899 C900 1.524 . S
C899 C903 1.400 . S
C900 H885 0.960 . S
C900 H886 0.960 . S
C900 H887 0.960 . S
C900 C899 1.524 . S
C901 C898 1.403 . S
C901 C902 1.392 . S
C901 C905 1.495 . S
C902 C901 1.392 . S
C902 C903 1.385 . S
C902 C904 1.478 . S
C903 H897 0.930 . S
C903 C899 1.400 . S
C903 C902 1.385 . S
C904 C902 1.478 . S
C904 C906 1.381 . S
C904 C910 1.383 . S
C905 C901 1.495 . S
C905 H911 0.959 . S
C905 H912 0.961 . S
C905 H913 0.960 . S
C906 C904 1.381 . S
C906 C907 1.394 . S
C906 H914 0.930 . S
C907 C906 1.394 . S
C907 C908 1.383 . S
C907 H915 0.929 . S
C908 C907 1.383 . S
C908 C909 1.377 . S
C909 H893 0.930 . S
C909 C908 1.377 . S
C909 C910 1.379 . S
C910 H894 0.931 . S
C910 C904 1.383 . S
C910 C909 1.379 . S
H911 C905 0.959 . S
H912 C905 0.961 . S
H913 C905 0.960 . S
H914 C906 0.930 . S
H915 C907 0.929 . S
H916 C924 0.929 . S
H917 C926 0.930 . S
H918 C928 0.930 . S
H919 C931 0.929 . S
H920 C934 0.930 . S
H921 C936 0.960 . S
H922 C936 0.960 . S
H923 C936 0.960 . S
C924 H916 0.929 . S
C924 C925 1.377 . S
C924 C926 1.384 . S
C925 C924 1.377 . S
C925 C931 1.390 . S
C926 H917 0.930 . S
C926 C924 1.384 . S
C926 C927 1.372 . S
C927 C926 1.372 . S
C927 C928 1.400 . S
C927 C932 1.490 . S
C928 H918 0.930 . S
C928 C927 1.400 . S
C928 C931 1.386 . S
H929 C945 0.930 . S
H930 C946 0.931 . S
C931 H919 0.929 . S
C931 C925 1.390 . S
C931 C928 1.386 . S
C932 C927 1.490 . S
C932 C934 1.395 . S
C932 C935 1.403 . S
H933 C939 0.930 . S
C934 H920 0.930 . S
C934 C932 1.395 . S
C934 C937 1.403 . S
C935 C932 1.403 . S
C935 C936 1.524 . S
C935 C939 1.400 . S
C936 H921 0.960 . S
C936 H922 0.960 . S
C936 H923 0.960 . S
C936 C935 1.524 . S
C937 C934 1.403 . S
C937 C938 1.392 . S
C937 C941 1.495 . S
C938 C937 1.392 . S
C938 C939 1.385 . S
C938 C940 1.478 . S
C939 H933 0.930 . S
C939 C935 1.400 . S
C939 C938 1.385 . S
C940 C938 1.478 . S
C940 C942 1.381 . S
C940 C946 1.383 . S
C941 C937 1.495 . S
C941 H947 0.959 . S
C941 H948 0.961 . S
C941 H949 0.960 . S
C942 C940 1.381 . S
C942 C943 1.394 . S
C942 H950 0.930 . S
C943 C942 1.394 . S
C943 C944 1.383 . S
C943 H951 0.929 . S
C944 C943 1.383 . S
C944 C945 1.377 . S
C945 H929 0.930 . S
C945 C944 1.377 . S
C945 C946 1.379 . S
C946 H930 0.931 . S
C946 C940 1.383 . S
C946 C945 1.379 . S
H947 C941 0.959 . S
H948 C941 0.961 . S
H949 C941 0.960 . S
H950 C942 0.930 . S
H951 C943 0.929 . S
H952 C960 0.929 . S
H953 C962 0.930 . S
H954 C964 0.930 . S
H955 C967 0.929 . S
H956 C970 0.930 . S
H957 C972 0.960 . S
H958 C972 0.960 . S
H959 C972 0.960 . S
C960 H952 0.929 . S
C960 C961 1.377 . S
C960 C962 1.384 . S
C961 C960 1.377 . S
C961 C967 1.390 . S
C962 H953 0.930 . S
C962 C960 1.384 . S
C962 C963 1.372 . S
C963 C962 1.372 . S
C963 C964 1.400 . S
C963 C968 1.490 . S
C964 H954 0.930 . S
C964 C963 1.400 . S
C964 C967 1.386 . S
H965 C981 0.930 . S
H966 C982 0.931 . S
C967 H955 0.929 . S
C967 C961 1.390 . S
C967 C964 1.386 . S
C968 C963 1.490 . S
C968 C970 1.395 . S
C968 C971 1.403 . S
H969 C975 0.930 . S
C970 H956 0.930 . S
C970 C968 1.395 . S
C970 C973 1.403 . S
C971 C968 1.403 . S
C971 C972 1.524 . S
C971 C975 1.400 . S
C972 H957 0.960 . S
C972 H958 0.960 . S
C972 H959 0.960 . S
C972 C971 1.524 . S
C973 C970 1.403 . S
C973 C974 1.392 . S
C973 C977 1.495 . S
C974 C973 1.392 . S
C974 C975 1.385 . S
C974 C976 1.478 . S
C975 H969 0.930 . S
C975 C971 1.400 . S
C975 C974 1.385 . S
C976 C974 1.478 . S
C976 C978 1.381 . S
C976 C982 1.383 . S
C977 C973 1.495 . S
C977 H983 0.959 . S
C977 H984 0.961 . S
C977 H985 0.960 . S
C978 C976 1.381 . S
C978 C979 1.394 . S
C978 H986 0.930 . S
C979 C978 1.394 . S
C979 C980 1.383 . S
C979 H987 0.929 . S
C980 C979 1.383 . S
C980 C981 1.377 . S
C981 H965 0.930 . S
C981 C980 1.377 . S
C981 C982 1.379 . S
C982 H966 0.931 . S
C982 C976 1.383 . S
C982 C981 1.379 . S
H983 C977 0.959 . S
H984 C977 0.961 . S
H985 C977 0.960 . S
H986 C978 0.930 . S
H987 C979 0.929 . S
H988 C996 0.929 . S
H989 C998 0.930 . S
H990 C1000 0.930 . S
H991 C1003 0.929 . S
H992 C1006 0.930 . S
H993 C1008 0.960 . S
H994 C1008 0.960 . S
H995 C1008 0.960 . S
C996 H988 0.929 . S
C996 C997 1.377 . S
C996 C998 1.384 . S
C997 C996 1.377 . S
C997 C1003 1.390 . S
C998 H989 0.930 . S
C998 C996 1.384 . S
C998 C999 1.372 . S
C999 C998 1.372 . S
C999 C1000 1.400 . S
C999 C1004 1.490 . S
C1000 H990 0.930 . S
C1000 C999 1.400 . S
C1000 C1003 1.386 . S
H1001 C1017 0.930 . S
H1002 C1018 0.931 . S
C1003 H991 0.929 . S
C1003 C997 1.390 . S
C1003 C1000 1.386 . S
C1004 C999 1.490 . S
C1004 C1006 1.395 . S
C1004 C1007 1.403 . S
H1005 C1011 0.930 . S
C1006 H992 0.930 . S
C1006 C1004 1.395 . S
C1006 C1009 1.403 . S
C1007 C1004 1.403 . S
C1007 C1008 1.524 . S
C1007 C1011 1.400 . S
C1008 H993 0.960 . S
C1008 H994 0.960 . S
C1008 H995 0.960 . S
C1008 C1007 1.524 . S
C1009 C1006 1.403 . S
C1009 C1010 1.392 . S
C1009 C1013 1.495 . S
C1010 C1009 1.392 . S
C1010 C1011 1.385 . S
C1010 C1012 1.478 . S
C1011 H1005 0.930 . S
C1011 C1007 1.400 . S
C1011 C1010 1.385 . S
C1012 C1010 1.478 . S
C1012 C1014 1.381 . S
C1012 C1018 1.383 . S
C1013 C1009 1.495 . S
C1013 H1019 0.959 . S
C1013 H1020 0.961 . S
C1013 H1021 0.960 . S
C1014 C1012 1.381 . S
C1014 C1015 1.394 . S
C1014 H1022 0.930 . S
C1015 C1014 1.394 . S
C1015 C1016 1.383 . S
C1015 H1023 0.929 . S
C1016 C1015 1.383 . S
C1016 C1017 1.377 . S
C1017 H1001 0.930 . S
C1017 C1016 1.377 . S
C1017 C1018 1.379 . S
C1018 H1002 0.931 . S
C1018 C1012 1.383 . S
C1018 C1017 1.379 . S
H1019 C1013 0.959 . S
H1020 C1013 0.961 . S
H1021 C1013 0.960 . S
H1022 C1014 0.930 . S
H1023 C1015 0.929 . S
H1024 C1032 0.929 . S
H1025 C1034 0.930 . S
H1026 C1036 0.930 . S
H1027 C1039 0.929 . S
H1028 C1042 0.930 . S
H1029 C1044 0.960 . S
H1030 C1044 0.960 . S
H1031 C1044 0.960 . S
C1032 H1024 0.929 . S
C1032 C1033 1.377 . S
C1032 C1034 1.384 . S
C1033 C1032 1.377 . S
C1033 C1039 1.390 . S
C1034 H1025 0.930 . S
C1034 C1032 1.384 . S
C1034 C1035 1.372 . S
C1035 C1034 1.372 . S
C1035 C1036 1.400 . S
C1035 C1040 1.490 . S
C1036 H1026 0.930 . S
C1036 C1035 1.400 . S
C1036 C1039 1.386 . S
H1037 C1053 0.930 . S
H1038 C1054 0.931 . S
C1039 H1027 0.929 . S
C1039 C1033 1.390 . S
C1039 C1036 1.386 . S
C1040 C1035 1.490 . S
C1040 C1042 1.395 . S
C1040 C1043 1.403 . S
H1041 C1047 0.930 . S
C1042 H1028 0.930 . S
C1042 C1040 1.395 . S
C1042 C1045 1.403 . S
C1043 C1040 1.403 . S
C1043 C1044 1.524 . S
C1043 C1047 1.400 . S
C1044 H1029 0.960 . S
C1044 H1030 0.960 . S
C1044 H1031 0.960 . S
C1044 C1043 1.524 . S
C1045 C1042 1.403 . S
C1045 C1046 1.392 . S
C1045 C1049 1.495 . S
C1046 C1045 1.392 . S
C1046 C1047 1.385 . S
C1046 C1048 1.478 . S
C1047 H1041 0.930 . S
C1047 C1043 1.400 . S
C1047 C1046 1.385 . S
C1048 C1046 1.478 . S
C1048 C1050 1.381 . S
C1048 C1054 1.383 . S
C1049 C1045 1.495 . S
C1049 H1055 0.959 . S
C1049 H1056 0.961 . S
C1049 H1057 0.960 . S
C1050 C1048 1.381 . S
C1050 C1051 1.394 . S
C1050 H1058 0.930 . S
C1051 C1050 1.394 . S
C1051 C1052 1.383 . S
C1051 H1059 0.929 . S
C1052 C1051 1.383 . S
C1052 C1053 1.377 . S
C1053 H1037 0.930 . S
C1053 C1052 1.377 . S
C1053 C1054 1.379 . S
C1054 H1038 0.931 . S
C1054 C1048 1.383 . S
C1054 C1053 1.379 . S
H1055 C1049 0.959 . S
H1056 C1049 0.961 . S
H1057 C1049 0.960 . S
H1058 C1050 0.930 . S
H1059 C1051 0.929 . S
H1060 C1068 0.929 . S
H1061 C1070 0.930 . S
H1062 C1072 0.930 . S
H1063 C1075 0.929 . S
H1064 C1078 0.930 . S
H1065 C1080 0.960 . S
H1066 C1080 0.960 . S
H1067 C1080 0.960 . S
C1068 H1060 0.929 . S
C1068 C1069 1.377 . S
C1068 C1070 1.384 . S
C1069 C1068 1.377 . S
C1069 C1075 1.390 . S
C1070 H1061 0.930 . S
C1070 C1068 1.384 . S
C1070 C1071 1.372 . S
C1071 C1070 1.372 . S
C1071 C1072 1.400 . S
C1071 C1076 1.490 . S
C1072 H1062 0.930 . S
C1072 C1071 1.400 . S
C1072 C1075 1.386 . S
H1073 C1089 0.930 . S
H1074 C1090 0.931 . S
C1075 H1063 0.929 . S
C1075 C1069 1.390 . S
C1075 C1072 1.386 . S
C1076 C1071 1.490 . S
C1076 C1078 1.395 . S
C1076 C1079 1.403 . S
H1077 C1083 0.930 . S
C1078 H1064 0.930 . S
C1078 C1076 1.395 . S
C1078 C1081 1.403 . S
C1079 C1076 1.403 . S
C1079 C1080 1.524 . S
C1079 C1083 1.400 . S
C1080 H1065 0.960 . S
C1080 H1066 0.960 . S
C1080 H1067 0.960 . S
C1080 C1079 1.524 . S
C1081 C1078 1.403 . S
C1081 C1082 1.392 . S
C1081 C1085 1.495 . S
C1082 C1081 1.392 . S
C1082 C1083 1.385 . S
C1082 C1084 1.478 . S
C1083 H1077 0.930 . S
C1083 C1079 1.400 . S
C1083 C1082 1.385 . S
C1084 C1082 1.478 . S
C1084 C1086 1.381 . S
C1084 C1090 1.383 . S
C1085 C1081 1.495 . S
C1085 H1091 0.959 . S
C1085 H1092 0.961 . S
C1085 H1093 0.960 . S
C1086 C1084 1.381 . S
C1086 C1087 1.394 . S
C1086 H1094 0.930 . S
C1087 C1086 1.394 . S
C1087 C1088 1.383 . S
C1087 H1095 0.929 . S
C1088 C1087 1.383 . S
C1088 C1089 1.377 . S
C1089 H1073 0.930 . S
C1089 C1088 1.377 . S
C1089 C1090 1.379 . S
C1090 H1074 0.931 . S
C1090 C1084 1.383 . S
C1090 C1089 1.379 . S
H1091 C1085 0.959 . S
H1092 C1085 0.961 . S
H1093 C1085 0.960 . S
H1094 C1086 0.930 . S
H1095 C1087 0.929 . S
C241 C6 1.668 . S
C260 C154 1.655 . S
C277 C21 1.916 . S
C296 C173 1.868 . S
C332 C210 1.042 . S
C313 C49 1.006 . S
C349 C68 1.283 . S
C368 C220 1.323 . S
C404 C190 2.789 . S
C385 C2 2.750 . S
C440 C160 1.118 . S
C421 C30 1.080 . S
C476 C231 1.293 1_556 S
C457 C40 1.333 . S
C512 C201 1.109 . S
C493 C63 1.118 . S
C529 C11 1.642 . S
C548 C214 1.739 . S
C584 C181 1.893 . S
C565 C44 1.962 . S
C601 C59 1.408 . S
C620 C171 1.411 . S
C637 C25 1.459 . S
C656 C193 1.436 . S
C692 C153 1.916 . S
C673 C82 1.935 . S
C709 C101 1.641 . S
C728 C174 1.603 . S
C745 C125 1.449 . S
C764 C211 1.521 . S
C781 C144 1.021 . S
C800 C221 1.051 . S
C817 C87 1.603 . S
C836 C191 1.695 1_565 S
C872 C161 2.307 . S
C853 C97 2.357 . S
C908 C230 1.194 . S
C889 C120 1.201 . S
C944 C200 1.051 . S
C925 C135 1.118 . S
C961 C78 2.079 . S
C980 C213 2.122 . S
C1016 C180 1.277 . S
C997 C116 1.311 . S
C1052 C170 1.999 . S
C1033 C139 1.998 . S
C1069 C106 1.197 . S
C1088 C194 1.283 . S
