# Generated by pormake.
# Topology pyr, (3,6)-cn, num edge types: 1
# Building blocks:
#     Node 0, Type 0, BuildingBlock: VETTIZ_charged_linker_0, # of connection points: 3
#     Node 1, Type 0, BuildingBlock: VETTIZ_charged_linker_0, # of connection points: 3
#     Node 2, Type 0, BuildingBlock: VETTIZ_charged_linker_0, # of connection points: 3
#     Node 3, Type 0, BuildingBlock: VETTIZ_charged_linker_0, # of connection points: 3
#     Node 4, Type 0, BuildingBlock: VETTIZ_charged_linker_0, # of connection points: 3
#     Node 5, Type 0, BuildingBlock: VETTIZ_charged_linker_0, # of connection points: 3
#     Node 6, Type 0, BuildingBlock: VETTIZ_charged_linker_0, # of connection points: 3
#     Node 7, Type 0, BuildingBlock: VETTIZ_charged_linker_0, # of connection points: 3
#     Node 8, Type 1, BuildingBlock: LEVNOQ01_clean_sbu_1, # of connection points: 6
#     Node 9, Type 1, BuildingBlock: LEVNOQ01_clean_sbu_1, # of connection points: 6
#     Node 10, Type 1, BuildingBlock: LEVNOQ01_clean_sbu_1, # of connection points: 6
#     Node 11, Type 1, BuildingBlock: LEVNOQ01_clean_sbu_1, # of connection points: 6
#     Edge 12, Type (0, 1), BuildingBlock: TEMPAE_clean_linker_10, # of connection points: 2
#     Edge 13, Type (0, 1), BuildingBlock: TEMPAE_clean_linker_10, # of connection points: 2
#     Edge 14, Type (0, 1), BuildingBlock: TEMPAE_clean_linker_10, # of connection points: 2
#     Edge 15, Type (0, 1), BuildingBlock: TEMPAE_clean_linker_10, # of connection points: 2
#     Edge 16, Type (0, 1), BuildingBlock: TEMPAE_clean_linker_10, # of connection points: 2
#     Edge 17, Type (0, 1), BuildingBlock: TEMPAE_clean_linker_10, # of connection points: 2
#     Edge 18, Type (0, 1), BuildingBlock: TEMPAE_clean_linker_10, # of connection points: 2
#     Edge 19, Type (0, 1), BuildingBlock: TEMPAE_clean_linker_10, # of connection points: 2
#     Edge 20, Type (0, 1), BuildingBlock: TEMPAE_clean_linker_10, # of connection points: 2
#     Edge 21, Type (0, 1), BuildingBlock: TEMPAE_clean_linker_10, # of connection points: 2
#     Edge 22, Type (0, 1), BuildingBlock: TEMPAE_clean_linker_10, # of connection points: 2
#     Edge 23, Type (0, 1), BuildingBlock: TEMPAE_clean_linker_10, # of connection points: 2
#     Edge 24, Type (0, 1), BuildingBlock: TEMPAE_clean_linker_10, # of connection points: 2
#     Edge 25, Type (0, 1), BuildingBlock: TEMPAE_clean_linker_10, # of connection points: 2
#     Edge 26, Type (0, 1), BuildingBlock: TEMPAE_clean_linker_10, # of connection points: 2
#     Edge 27, Type (0, 1), BuildingBlock: TEMPAE_clean_linker_10, # of connection points: 2
#     Edge 28, Type (0, 1), BuildingBlock: TEMPAE_clean_linker_10, # of connection points: 2
#     Edge 29, Type (0, 1), BuildingBlock: TEMPAE_clean_linker_10, # of connection points: 2
#     Edge 30, Type (0, 1), BuildingBlock: TEMPAE_clean_linker_10, # of connection points: 2
#     Edge 31, Type (0, 1), BuildingBlock: TEMPAE_clean_linker_10, # of connection points: 2
#     Edge 32, Type (0, 1), BuildingBlock: TEMPAE_clean_linker_10, # of connection points: 2
#     Edge 33, Type (0, 1), BuildingBlock: TEMPAE_clean_linker_10, # of connection points: 2
#     Edge 34, Type (0, 1), BuildingBlock: TEMPAE_clean_linker_10, # of connection points: 2
#     Edge 35, Type (0, 1), BuildingBlock: TEMPAE_clean_linker_10, # of connection points: 2
# Relax obj value: 0.035
# Max RMSD: 0.111
# Mean RMSD: 0.047
data_MOF--net-pry--node1-LEVNOQ01_clean_sbu_1--node2-VETTIZ_charged_linker_0--edge1-TEMPAE_clean_linker_10
_symmetry_space_group_name_H-M    P1
_symmetry_Int_Tables_number       1
_symmetry_cell_setting            triclinic
loop_
_symmetry_equiv_pos_as_xyz
'x, y, z'
_cell_length_a     45.950406
_cell_length_b     44.332387
_cell_length_c     44.36867
_cell_angle_alpha  92.104797
_cell_angle_beta   91.290929
_cell_angle_gamma 94.017623
loop_
_atom_site_label
_atom_site_type_symbol
_atom_site_fract_x
_atom_site_fract_y
_atom_site_fract_z
_atom_type_partial_charge
C0 C 0.11635 0.09814 0.2278 0.0
C1 C 0.09247 0.10983 0.24229 0.0
C2 C 0.07702 0.1319 0.22808 0.0
C3 C 0.11 0.1313 0.18601 0.0
C4 C 0.12446 0.10887 0.1996 0.0
C5 C 0.14892 0.09836 0.1808 0.0
H6 H 0.23152 0.1111 0.05667 0.0
C7 C 0.12447 0.13795 0.15719 0.0
C8 C 0.14711 0.11848 0.15391 0.0
H9 H 0.24086 0.05193 0.13086 0.0
H10 H 0.19839 0.07093 0.15409 0.0
H11 H 0.21678 0.1704 0.10002 0.0
H12 H 0.16138 0.10305 0.04936 0.0
H13 H 0.14613 0.1381 0.04621 0.0
H14 H 0.18172 0.13296 0.03117 0.0
H15 H 0.2165 0.16661 0.05956 0.0
H16 H 0.19055 0.18835 0.07885 0.0
C17 C 0.17791 0.10484 0.19924 0.0
C18 C 0.14161 0.06458 0.17157 0.0
C19 C 0.09287 0.22482 0.09508 0.0
C20 C 0.10126 0.23631 0.06706 0.0
C21 C 0.12277 0.22155 0.05097 0.0
C22 C 0.13595 0.19665 0.06275 0.0
C23 C 0.12753 0.18592 0.09093 0.0
C24 C 0.10588 0.19965 0.10627 0.0
C25 C 0.09839 0.18423 0.13506 0.0
C26 C 0.11978 0.15961 0.13501 0.0
C27 C 0.13709 0.16084 0.10926 0.0
C28 C 0.10462 0.20746 0.16172 0.0
C29 C 0.06627 0.1709 0.13231 0.0
C30 C 0.22405 0.10212 0.07775 0.0
C31 C 0.2392 0.07983 0.09196 0.0
C32 C 0.22933 0.06897 0.11958 0.0
C33 C 0.20473 0.08013 0.13301 0.0
C34 C 0.19002 0.10282 0.11896 0.0
C35 C 0.1997 0.11349 0.09177 0.0
C36 C 0.18187 0.13844 0.08081 0.0
C37 C 0.15982 0.14077 0.10576 0.0
C38 C 0.16479 0.11982 0.12803 0.0
C39 C 0.20234 0.16757 0.07949 0.0
C40 C 0.16706 0.12788 0.05018 0.0
H41 H 0.07344 0.16004 0.19067 0.0
H42 H 0.12833 0.08085 0.23813 0.0
H43 H 0.11785 0.06009 0.16641 0.0
H44 H 0.15243 0.05745 0.15078 0.0
H45 H 0.14747 0.04968 0.19003 0.0
H46 H 0.17707 0.12528 0.21444 0.0
H47 H 0.18247 0.08557 0.21352 0.0
H48 H 0.19684 0.11001 0.18491 0.0
H49 H 0.07675 0.23538 0.10851 0.0
H50 H 0.12938 0.22904 0.02905 0.0
H51 H 0.15218 0.18662 0.04941 0.0
H52 H 0.12588 0.22055 0.15893 0.0
H53 H 0.08739 0.2238 0.16298 0.0
H54 H 0.10638 0.19683 0.18371 0.0
H55 H 0.05953 0.16549 0.10836 0.0
H56 H 0.06283 0.14913 0.14358 0.0
H57 H 0.05108 0.18709 0.14158 0.0
H58 H 0.05848 0.14104 0.23891 0.0
C59 C 0.08576 0.14285 0.20012 0.0
C60 C 0.27566 0.89735 0.56647 0.0
C61 C 0.26101 0.92213 0.57695 0.0
C62 C 0.2732 0.94085 0.60094 0.0
C63 C 0.31397 0.90927 0.60453 0.0
C64 C 0.30221 0.89158 0.58033 0.0
C65 C 0.32094 0.86646 0.57159 0.0
H66 H 0.43981 0.7892 0.59717 0.0
C67 C 0.34143 0.89662 0.61417 0.0
C68 C 0.3458 0.87184 0.59466 0.0
H69 H 0.3718 0.77139 0.52868 0.0
H70 H 0.34843 0.81561 0.54583 0.0
H71 H 0.44746 0.86163 0.59132 0.0
H72 H 0.39546 0.80627 0.65062 0.0
H73 H 0.41358 0.8364 0.67206 0.0
H74 H 0.43465 0.80954 0.65248 0.0
H75 H 0.46342 0.84403 0.62288 0.0
H76 H 0.44848 0.88054 0.62686 0.0
C77 C 0.33129 0.87151 0.53899 0.0
C78 C 0.30303 0.83598 0.5758 0.0
C79 C 0.39585 0.93896 0.70916 0.0
C80 C 0.42198 0.93201 0.7234 0.0
C81 C 0.43869 0.9099 0.71013 0.0
C82 C 0.42905 0.89419 0.68333 0.0
C83 C 0.4025 0.90083 0.66959 0.0
C84 C 0.38671 0.92338 0.68216 0.0
C85 C 0.35983 0.92846 0.66359 0.0
C86 C 0.36149 0.90449 0.63847 0.0
C87 C 0.38636 0.88814 0.64225 0.0
C88 C 0.36305 0.96094 0.65164 0.0
C89 C 0.33288 0.9222 0.68334 0.0
C90 C 0.42013 0.79526 0.58567 0.0
C91 C 0.40759 0.77705 0.56149 0.0
C92 C 0.38172 0.78516 0.54737 0.0
C93 C 0.3682 0.81082 0.55742 0.0
C94 C 0.38048 0.82843 0.58211 0.0
C95 C 0.40608 0.82068 0.59577 0.0
C96 C 0.41525 0.84161 0.62236 0.0
C97 C 0.39102 0.86326 0.62218 0.0
C98 C 0.37077 0.85525 0.59859 0.0
C99 C 0.44531 0.85776 0.61583 0.0
C100 C 0.41497 0.82265 0.651 0.0
H101 H 0.3077 0.94925 0.63338 0.0
H102 H 0.26662 0.88281 0.54791 0.0
H103 H 0.28817 0.83769 0.59516 0.0
H104 H 0.31675 0.81737 0.58135 0.0
H105 H 0.28935 0.82916 0.55539 0.0
H106 H 0.33442 0.89607 0.53461 0.0
H107 H 0.31505 0.86118 0.52204 0.0
H108 H 0.35277 0.8627 0.53469 0.0
H109 H 0.38284 0.95612 0.7189 0.0
H110 H 0.45888 0.9043 0.72095 0.0
H111 H 0.44249 0.87728 0.67451 0.0
H112 H 0.38639 0.96896 0.64958 0.0
H113 H 0.3529 0.97732 0.66699 0.0
H114 H 0.35358 0.96225 0.62862 0.0
H115 H 0.33499 0.90127 0.69608 0.0
H116 H 0.31228 0.91837 0.6701 0.0
H117 H 0.33066 0.94118 0.69999 0.0
H118 H 0.26193 0.96004 0.60923 0.0
C119 C 0.29963 0.9345 0.6149 0.0
C120 C 0.60259 0.28567 0.90656 0.0
C121 C 0.58062 0.26787 0.89053 0.0
C122 C 0.56437 0.28063 0.86765 0.0
C123 C 0.59481 0.32742 0.87416 0.0
C124 C 0.60921 0.31544 0.89815 0.0
C125 C 0.63288 0.33716 0.91186 0.0
H126 H 0.72494 0.46011 0.89641 0.0
C127 C 0.60951 0.35733 0.86857 0.0
C128 C 0.63147 0.36342 0.89097 0.0
H129 H 0.7221 0.39838 0.96965 0.0
H130 H 0.67711 0.37366 0.94886 0.0
H131 H 0.65419 0.46959 0.89439 0.0
H132 H 0.71082 0.41295 0.84616 0.0
H133 H 0.68447 0.42219 0.81963 0.0
H134 H 0.70816 0.45193 0.83779 0.0
H135 H 0.67911 0.48354 0.86673 0.0
H136 H 0.64259 0.46853 0.8563 0.0
C137 C 0.62448 0.34602 0.9445 0.0
C138 C 0.66219 0.32204 0.90965 0.0
C139 C 0.5898 0.40704 0.76956 0.0
C140 C 0.60493 0.43074 0.75504 0.0
C141 C 0.62746 0.44836 0.77062 0.0
C142 C 0.63548 0.44189 0.80015 0.0
C143 C 0.62125 0.41709 0.81393 0.0
C144 C 0.59854 0.40038 0.79885 0.0
C145 C 0.58745 0.37354 0.81616 0.0
C146 C 0.60742 0.37684 0.84403 0.0
C147 C 0.627 0.4025 0.84259 0.0
C148 C 0.55529 0.37759 0.82412 0.0
C149 C 0.59204 0.34457 0.79663 0.0
C150 C 0.71447 0.44141 0.90809 0.0
C151 C 0.7272 0.43089 0.93445 0.0
C152 C 0.71267 0.40688 0.94931 0.0
C153 C 0.68674 0.39239 0.93708 0.0
C154 C 0.67537 0.40186 0.9096 0.0
C155 C 0.68863 0.42667 0.89617 0.0
C156 C 0.6734 0.4337 0.86722 0.0
C157 C 0.64879 0.40897 0.8655 0.0
C158 C 0.65047 0.39 0.89 0.0
C159 C 0.6618 0.46557 0.87104 0.0
C160 C 0.69518 0.4303 0.84123 0.0
H161 H 0.55858 0.31896 0.84146 0.0
H162 H 0.61486 0.27628 0.92467 0.0
H163 H 0.6644 0.31151 0.88674 0.0
H164 H 0.68147 0.33805 0.91332 0.0
H165 H 0.66346 0.304 0.92626 0.0
H166 H 0.60054 0.3426 0.94769 0.0
H167 H 0.63537 0.33227 0.96126 0.0
H168 H 0.62987 0.37034 0.95021 0.0
H169 H 0.5725 0.3931 0.75781 0.0
H170 H 0.63903 0.46697 0.75977 0.0
H171 H 0.65305 0.4559 0.81073 0.0
H172 H 0.552 0.40175 0.82982 0.0
H173 H 0.54029 0.37025 0.80484 0.0
H174 H 0.54849 0.36525 0.84427 0.0
H175 H 0.61251 0.34733 0.78378 0.0
H176 H 0.5947 0.32442 0.80989 0.0
H177 H 0.57372 0.33953 0.78004 0.0
H178 H 0.54699 0.26717 0.85552 0.0
C179 C 0.57122 0.31051 0.85951 0.0
C180 C 0.93324 0.69323 0.42954 0.0
C181 C 0.92216 0.71158 0.45266 0.0
C182 C 0.89551 0.70168 0.46562 0.0
C183 C 0.89135 0.65704 0.43233 0.0
C184 C 0.91716 0.66667 0.41925 0.0
C185 C 0.92338 0.64739 0.3918 0.0
H186 H 0.87314 0.53958 0.28829 0.0
C187 C 0.8794 0.62932 0.41572 0.0
C188 C 0.89773 0.62371 0.39168 0.0
H189 H 0.94663 0.60513 0.28297 0.0
H190 H 0.94126 0.62072 0.33528 0.0
H191 H 0.89025 0.52023 0.35915 0.0
H192 H 0.83021 0.58116 0.3228 0.0
H193 H 0.8124 0.55679 0.34835 0.0
H194 H 0.82722 0.54097 0.31489 0.0
H195 H 0.85573 0.50654 0.34232 0.0
H196 H 0.8592 0.51898 0.38158 0.0
C197 C 0.95265 0.63303 0.39731 0.0
C198 C 0.92294 0.66744 0.36374 0.0
C199 C 0.78711 0.57461 0.45178 0.0
C200 C 0.77163 0.54703 0.44327 0.0
C201 C 0.78198 0.52939 0.41913 0.0
C202 C 0.80698 0.53939 0.4036 0.0
C203 C 0.82176 0.56734 0.41219 0.0
C204 C 0.81207 0.58399 0.43639 0.0
C205 C 0.83126 0.61217 0.44376 0.0
C206 C 0.8545 0.60949 0.42038 0.0
C207 C 0.84833 0.58381 0.40121 0.0
C208 C 0.84366 0.61021 0.47638 0.0
C209 C 0.81307 0.63981 0.43852 0.0
C210 C 0.88802 0.55716 0.2987 0.0
C211 C 0.9099 0.57172 0.28184 0.0
C212 C 0.92934 0.59416 0.29574 0.0
C213 C 0.92602 0.60333 0.32587 0.0
C214 C 0.90261 0.59038 0.3419 0.0
C215 C 0.88462 0.56698 0.32873 0.0
C216 C 0.86082 0.55621 0.3494 0.0
C217 C 0.8659 0.57897 0.3758 0.0
C218 C 0.89061 0.59869 0.3713 0.0
C219 C 0.86649 0.52372 0.35855 0.0
C220 C 0.83098 0.55874 0.33314 0.0
H221 H 0.86009 0.66866 0.46649 0.0
H222 H 0.95352 0.69969 0.4188 0.0
H223 H 0.91314 0.6893 0.36854 0.0
H224 H 0.90933 0.65662 0.34487 0.0
H225 H 0.94532 0.673 0.35566 0.0
H226 H 0.95343 0.62352 0.42015 0.0
H227 H 0.97134 0.65018 0.39588 0.0
H228 H 0.95586 0.61405 0.38117 0.0
H229 H 0.77971 0.58915 0.46975 0.0
H230 H 0.77076 0.50787 0.41222 0.0
H231 H 0.81372 0.52516 0.38534 0.0
H232 H 0.84733 0.58641 0.48167 0.0
H233 H 0.82835 0.61875 0.49317 0.0
H234 H 0.86524 0.62254 0.48004 0.0
H235 H 0.79699 0.63502 0.41952 0.0
H236 H 0.82651 0.66001 0.43184 0.0
H237 H 0.80072 0.6457 0.45888 0.0
H238 H 0.8855 0.71543 0.48259 0.0
C239 C 0.88033 0.67452 0.45586 0.0
C240 C 0.88879 0.78757 0.94059 0.0
C241 C 0.91434 0.77398 0.93227 0.0
C242 C 0.93073 0.78587 0.90845 0.0
C243 C 0.89539 0.82318 0.90038 0.0
C244 C 0.88001 0.81241 0.92468 0.0
C245 C 0.85424 0.83065 0.93134 0.0
H246 H 0.76885 0.94309 0.89267 0.0
C247 C 0.87989 0.84834 0.88788 0.0
C248 C 0.85598 0.8532 0.90629 0.0
H249 H 0.76126 0.88705 0.97022 0.0
H250 H 0.80331 0.8611 0.95478 0.0
H251 H 0.77995 0.89217 0.84696 0.0
H252 H 0.8405 0.95466 0.89645 0.0
H253 H 0.85164 0.9526 0.85875 0.0
H254 H 0.81619 0.9653 0.86705 0.0
H255 H 0.78863 0.92961 0.83437 0.0
H256 H 0.80958 0.89825 0.82322 0.0
C257 C 0.82619 0.80922 0.9283 0.0
C258 C 0.85937 0.84641 0.96295 0.0
C259 C 0.91048 0.89216 0.78769 0.0
C260 C 0.89827 0.91334 0.76906 0.0
C261 C 0.87391 0.92808 0.77936 0.0
C262 C 0.86179 0.92173 0.8073 0.0
C263 C 0.87383 0.90014 0.82531 0.0
C264 C 0.89786 0.88583 0.81553 0.0
C265 C 0.90717 0.86295 0.83747 0.0
C266 C 0.88424 0.86534 0.86154 0.0
C267 C 0.86499 0.88741 0.85436 0.0
C268 C 0.90502 0.83152 0.82084 0.0
C269 C 0.93813 0.87341 0.84998 0.0
C270 C 0.77646 0.92555 0.90661 0.0
C271 C 0.7616 0.91726 0.93277 0.0
C272 C 0.77202 0.89376 0.9498 0.0
C273 C 0.7966 0.87881 0.9409 0.0
C274 C 0.81107 0.88727 0.9146 0.0
C275 C 0.80094 0.91036 0.89801 0.0
C276 C 0.81857 0.91599 0.87038 0.0
C277 C 0.84142 0.89306 0.8735 0.0
C278 C 0.83693 0.87615 0.89937 0.0
C279 C 0.79829 0.9089 0.84216 0.0
C280 C 0.83241 0.94889 0.87298 0.0
H281 H 0.93464 0.81803 0.87429 0.0
H282 H 0.8761 0.77918 0.95919 0.0
H283 H 0.88303 0.85198 0.96783 0.0
H284 H 0.84946 0.86838 0.9649 0.0
H285 H 0.85093 0.83164 0.98095 0.0
H286 H 0.8269 0.79397 0.90788 0.0
H287 H 0.82383 0.79483 0.9482 0.0
H288 H 0.80622 0.82136 0.92551 0.0
H289 H 0.9294 0.88066 0.78077 0.0
H290 H 0.86367 0.94413 0.76549 0.0
H291 H 0.84321 0.93366 0.81358 0.0
H292 H 0.88474 0.82844 0.80655 0.0
H293 H 0.92385 0.82908 0.80589 0.0
H294 H 0.90381 0.81253 0.83619 0.0
H295 H 0.94132 0.89854 0.85155 0.0
H296 H 0.94204 0.86623 0.87324 0.0
H297 H 0.95524 0.86501 0.83518 0.0
H298 H 0.95053 0.77576 0.9018 0.0
C299 C 0.92139 0.81029 0.89244 0.0
C300 C 0.72864 0.11902 0.44522 0.0
C301 C 0.74418 0.09525 0.43337 0.0
C302 C 0.73365 0.07943 0.40676 0.0
C303 C 0.69281 0.11078 0.40414 0.0
C304 C 0.70297 0.12628 0.43031 0.0
C305 C 0.68347 0.15067 0.43973 0.0
H306 H 0.56549 0.22891 0.40988 0.0
C307 C 0.66582 0.12386 0.39406 0.0
C308 C 0.66001 0.14711 0.41487 0.0
H309 H 0.62614 0.24137 0.48604 0.0
H310 H 0.6521 0.19931 0.4676 0.0
H311 H 0.55724 0.15758 0.41192 0.0
H312 H 0.61391 0.21538 0.3594 0.0
H313 H 0.59703 0.18644 0.33539 0.0
H314 H 0.57486 0.2124 0.35481 0.0
H315 H 0.54406 0.17532 0.37909 0.0
H316 H 0.5598 0.13912 0.3765 0.0
C317 C 0.67114 0.14314 0.47102 0.0
C318 C 0.70146 0.18151 0.43898 0.0
C319 C 0.6153 0.08388 0.29631 0.0
C320 C 0.58985 0.09118 0.28097 0.0
C321 C 0.57292 0.11348 0.29372 0.0
C322 C 0.58158 0.12875 0.32105 0.0
C323 C 0.60738 0.12156 0.3359 0.0
C324 C 0.6235 0.09915 0.32369 0.0
C325 C 0.64983 0.0939 0.34292 0.0
C326 C 0.64707 0.11708 0.36852 0.0
C327 C 0.62236 0.13342 0.36419 0.0
C328 C 0.64645 0.06101 0.35385 0.0
C329 C 0.67736 0.1012 0.32417 0.0
C330 C 0.58408 0.2223 0.42286 0.0
C331 C 0.59378 0.23858 0.44946 0.0
C332 C 0.6184 0.22945 0.46533 0.0
C333 C 0.63343 0.20497 0.45461 0.0
C334 C 0.62381 0.18938 0.42767 0.0
C335 C 0.59932 0.1979 0.41245 0.0
C336 C 0.59212 0.17853 0.38435 0.0
C337 C 0.61643 0.15708 0.38514 0.0
C338 C 0.63507 0.16375 0.41042 0.0
C339 C 0.56167 0.16183 0.38783 0.0
C340 C 0.59437 0.1991 0.3569 0.0
H341 H 0.70144 0.07418 0.37192 0.0
H342 H 0.73617 0.1315 0.4657 0.0
H343 H 0.71574 0.18218 0.41906 0.0
H344 H 0.68781 0.20083 0.43673 0.0
H345 H 0.71572 0.18547 0.4595 0.0
H346 H 0.66807 0.11824 0.47354 0.0
H347 H 0.68615 0.15251 0.48955 0.0
H348 H 0.64926 0.15136 0.47441 0.0
H349 H 0.6286 0.06667 0.28716 0.0
H350 H 0.55337 0.1197 0.28208 0.0
H351 H 0.56803 0.1458 0.32937 0.0
H352 H 0.62306 0.05315 0.35588 0.0
H353 H 0.65632 0.04502 0.33787 0.0
H354 H 0.65601 0.05879 0.37669 0.0
H355 H 0.67436 0.12086 0.30981 0.0
H356 H 0.69703 0.1079 0.33823 0.0
H357 H 0.68192 0.08167 0.30903 0.0
H358 H 0.74552 0.06142 0.39686 0.0
C359 C 0.70811 0.08702 0.39215 0.0
C360 C 0.40587 0.61479 0.23893 0.0
C361 C 0.39207 0.58855 0.25041 0.0
C362 C 0.37115 0.57103 0.23242 0.0
C363 C 0.3762 0.60728 0.19304 0.0
C364 C 0.3975 0.62383 0.21035 0.0
C365 C 0.40794 0.65267 0.196 0.0
H366 H 0.38611 0.75418 0.08958 0.0
C367 C 0.37056 0.62426 0.16581 0.0
C368 C 0.38913 0.65088 0.16737 0.0
H369 H 0.44872 0.76275 0.16405 0.0
H370 H 0.43531 0.71109 0.17724 0.0
H371 H 0.3354 0.7232 0.12399 0.0
H372 H 0.40059 0.68701 0.06813 0.0
H373 H 0.36862 0.66362 0.0606 0.0
H374 H 0.36921 0.70335 0.0526 0.0
H375 H 0.33459 0.72521 0.08367 0.0
H376 H 0.31752 0.69344 0.10227 0.0
C377 C 0.40114 0.67952 0.2175 0.0
C378 C 0.44068 0.65109 0.18908 0.0
C379 C 0.28434 0.59051 0.0961 0.0
C380 C 0.27131 0.60457 0.07188 0.0
C381 C 0.28588 0.63004 0.05957 0.0
C382 C 0.31228 0.64253 0.07241 0.0
C383 C 0.32384 0.62981 0.09823 0.0
C384 C 0.31052 0.60361 0.10904 0.0
C385 C 0.3255 0.59397 0.13726 0.0
C386 C 0.34963 0.61907 0.14183 0.0
C387 C 0.3482 0.64014 0.11914 0.0
C388 C 0.30321 0.59411 0.16303 0.0
C389 C 0.33782 0.56287 0.13045 0.0
C390 C 0.39674 0.74501 0.10893 0.0
C391 C 0.41786 0.76266 0.12634 0.0
C392 C 0.43204 0.74961 0.15061 0.0
C393 C 0.42418 0.71971 0.15822 0.0
C394 C 0.40191 0.70284 0.14139 0.0
C395 C 0.3892 0.71536 0.11674 0.0
C396 C 0.36618 0.69432 0.10116 0.0
C397 C 0.36654 0.66724 0.12095 0.0
C398 C 0.38725 0.67241 0.14465 0.0
C399 C 0.33684 0.70966 0.10252 0.0
C400 C 0.37638 0.68672 0.06884 0.0
H401 H 0.34709 0.566 0.19106 0.0
H402 H 0.42196 0.62869 0.25243 0.0
H403 H 0.44537 0.6278 0.18137 0.0
H404 H 0.44772 0.66569 0.17056 0.0
H405 H 0.4546 0.65729 0.20947 0.0
H406 H 0.38027 0.67455 0.22918 0.0
H407 H 0.41863 0.6841 0.2351 0.0
H408 H 0.39799 0.70056 0.20574 0.0
H409 H 0.27336 0.57105 0.10612 0.0
H410 H 0.27622 0.64095 0.04072 0.0
H411 H 0.32187 0.66251 0.06263 0.0
H412 H 0.28871 0.61303 0.16081 0.0
H413 H 0.28912 0.57268 0.16257 0.0
H414 H 0.31347 0.59788 0.18567 0.0
H415 H 0.34517 0.56105 0.10676 0.0
H416 H 0.35739 0.55929 0.14445 0.0
H417 H 0.32103 0.54405 0.13354 0.0
H418 H 0.36069 0.55043 0.24078 0.0
C419 C 0.36337 0.58009 0.20362 0.0
C420 C 0.05658 0.30972 0.58178 0.0
C421 C 0.06526 0.29519 0.55517 0.0
C422 C 0.08747 0.30897 0.53809 0.0
C423 C 0.09433 0.34997 0.5757 0.0
C424 C 0.07143 0.33714 0.59164 0.0
C425 C 0.06687 0.35458 0.62072 0.0
H426 H 0.11809 0.46052 0.7257 0.0
C427 C 0.10755 0.37626 0.59371 0.0
C428 C 0.09143 0.37938 0.61996 0.0
H429 H 0.04014 0.40007 0.72772 0.0
H430 H 0.04812 0.38215 0.67693 0.0
H431 H 0.10659 0.48015 0.65369 0.0
H432 H 0.15821 0.41519 0.69602 0.0
H433 H 0.17888 0.43124 0.66714 0.0
H434 H 0.16853 0.45502 0.69834 0.0
H435 H 0.13811 0.491 0.67732 0.0
H436 H 0.14135 0.48189 0.63764 0.0
C437 C 0.0364 0.36748 0.61894 0.0
C438 C 0.07103 0.33315 0.64708 0.0
C439 C 0.20298 0.42687 0.56041 0.0
C440 C 0.2228 0.4492 0.57376 0.0
C441 C 0.21553 0.46394 0.60101 0.0
C442 C 0.18915 0.45597 0.61506 0.0
C443 C 0.17005 0.43272 0.60194 0.0
C444 C 0.17701 0.41894 0.57485 0.0
C445 C 0.15491 0.39398 0.56461 0.0
C446 C 0.13324 0.39518 0.58978 0.0
C447 C 0.14229 0.41766 0.6118 0.0
C448 C 0.14134 0.40233 0.53397 0.0
C449 C 0.17042 0.36395 0.5638 0.0
C450 C 0.10282 0.44338 0.71513 0.0
C451 C 0.07865 0.43141 0.73082 0.0
C452 C 0.05889 0.40965 0.7161 0.0
C453 C 0.06366 0.39912 0.68666 0.0
C454 C 0.08856 0.41026 0.67174 0.0
C455 C 0.10723 0.43264 0.68559 0.0
C456 C 0.13227 0.44209 0.66589 0.0
C457 C 0.12591 0.42104 0.63835 0.0
C458 C 0.10038 0.40231 0.6421 0.0
C459 C 0.12976 0.47561 0.65826 0.0
C460 C 0.1611 0.43584 0.68257 0.0
H461 H 0.1192 0.34544 0.53448 0.0
H462 H 0.03974 0.29915 0.59538 0.0
H463 H 0.08975 0.31905 0.64293 0.0
H464 H 0.07625 0.34516 0.66892 0.0
H465 H 0.05128 0.3176 0.6496 0.0
H466 H 0.02986 0.37163 0.59523 0.0
H467 H 0.01935 0.35157 0.62808 0.0
H468 H 0.03596 0.38979 0.63088 0.0
H469 H 0.20815 0.41479 0.53976 0.0
H470 H 0.23041 0.48143 0.61159 0.0
H471 H 0.18495 0.46774 0.6359 0.0
H472 H 0.141 0.42729 0.53227 0.0
H473 H 0.15396 0.39383 0.51477 0.0
H474 H 0.11822 0.39375 0.53098 0.0
H475 H 0.18702 0.36387 0.58246 0.0
H476 H 0.15558 0.34379 0.56724 0.0
H477 H 0.18182 0.36073 0.54224 0.0
H478 H 0.09449 0.29774 0.51768 0.0
C479 C 0.1019 0.33646 0.54807 0.0
O480 O 0.98243 0.01314 0.58365 0.0
Mg481 Mg 0.01616 0.02638 0.55619 0.0
O482 O 0.98134 0.97773 0.54808 0.0
Mg483 Mg -0.00051 0.00244 0.50373 0.0
O484 O 0.00924 0.05404 0.52151 0.0
O485 O 0.02591 0.06957 0.56812 0.0
O486 O 0.01859 0.02662 0.45876 0.0
O487 O 0.95301 0.01768 0.49701 0.0
Mg488 Mg 0.98403 0.98137 0.4525 0.0
O489 O 0.98696 0.95129 0.48632 0.0
O490 O 0.0214 0.98785 0.42748 0.0
O491 O 0.95117 0.01246 0.44791 0.0
O492 O 0.96382 0.94093 0.44144 0.0
C493 C 0.06298 0.98996 0.53562 0.0
C494 C 0.97446 0.98667 0.57454 0.0
C495 C 0.01734 0.07563 0.54133 0.0
C496 C 0.02827 0.01524 0.43428 0.0
C497 C 0.94045 0.02222 0.47201 0.0
C498 C 0.97267 0.93231 0.46726 0.0
O499 O 0.0545 0.00402 0.55869 0.0
O500 O 0.04683 0.98735 0.5118 0.0
O501 O 0.447 0.07397 0.01698 0.0
Mg502 Mg 0.49096 0.08895 0.01784 0.0
O503 O 0.45297 0.02492 0.01139 0.0
Mg504 Mg 0.50304 0.01772 0.00087 0.0
O505 O 0.51473 0.06605 0.98795 0.0
O506 O 0.5023 0.11173 0.97926 0.0
O507 O 0.55436 0.01264 0.98898 0.0
O508 O 0.48788 0.00707 0.95084 0.0
Mg509 Mg 0.52152 0.96656 0.98889 0.0
O510 O 0.4877 0.96834 0.01769 0.0
O511 O 0.56306 0.97002 0.00915 0.0
O512 O 0.51667 0.97075 0.94171 0.0
O513 O 0.50292 0.92557 0.99625 0.0
C514 C 0.52146 0.05558 0.06756 0.0
C515 C 0.4365 0.04684 0.01538 0.0
C516 C 0.51392 0.08777 0.96952 0.0
C517 C 0.57272 0.99421 0.99796 0.0
C518 C 0.4985 0.98853 0.93223 0.0
C519 C 0.48626 0.93891 0.01463 0.0
O520 O 0.51409 0.0808 0.05805 0.0
O521 O 0.51801 0.03106 0.05111 0.0
O522 O 0.47168 0.55837 0.5638 0.0
Mg523 Mg 0.46843 0.51135 0.57046 0.0
O524 O 0.48758 0.5562 0.51678 0.0
Mg525 Mg 0.49723 0.50625 0.50418 0.0
O526 O 0.50453 0.49513 0.55292 0.0
O527 O 0.49501 0.4925 0.60157 0.0
O528 O 0.50702 0.45649 0.49141 0.0
O529 O 0.54779 0.52055 0.50638 0.0
Mg530 Mg 0.52852 0.5053 0.44212 0.0
O531 O 0.48899 0.51756 0.45494 0.0
O532 O 0.52972 0.45825 0.44774 0.0
O533 O 0.56213 0.53434 0.46141 0.0
O534 O 0.50415 0.52034 0.4076 0.0
C535 C 0.42725 0.48409 0.52228 0.0
C536 C 0.47901 0.5712 0.53971 0.0
C537 C 0.51219 0.48765 0.5796 0.0
C538 C 0.51945 0.4434 0.46952 0.0
C539 C 0.56712 0.53248 0.48938 0.0
C540 C 0.48419 0.52399 0.42714 0.0
O541 O 0.432 0.48683 0.55051 0.0
O542 O 0.44685 0.49165 0.50342 0.0
O543 O 0.00821 0.44335 0.06229 0.0
Mg544 Mg 0.01245 0.4899 0.06611 0.0
O545 O 0.0164 0.45519 0.01571 0.0
Mg546 Mg -0.00042 0.50584 0.01025 0.0
O547 O 0.97887 0.51651 0.05801 0.0
O548 O 0.9928 0.50135 0.1038 0.0
O549 O 0.98263 0.55796 0.00701 0.0
O550 O 0.9538 0.48331 0.99806 0.0
Mg551 Mg 0.99266 0.52634 0.9666 0.0
O552 O 0.02004 0.49317 0.96098 0.0
O553 O 0.0128 0.5701 0.97218 0.0
O554 O 0.94612 0.52055 0.96893 0.0
O555 O -0.00039 0.51746 0.92317 0.0
C556 C 0.0626 0.52701 0.04575 0.0
C557 C 0.01606 0.43568 0.03635 0.0
C558 C 0.97586 0.51604 0.08712 0.0
C559 C 0.99467 0.57845 0.9909 0.0
C560 C 0.93618 0.49789 0.98287 0.0
C561 C 0.0176 0.49868 0.93241 0.0
O562 O 0.05451 0.51109 0.06748 0.0
O563 O 0.04574 0.52876 0.02276 0.0
C564 C 0.10248 0.10557 0.29749 0.0
C565 C 0.08387 0.09918 0.27229 0.0
C566 C 0.0949 0.0952 0.32605 0.0
C567 C 0.0684 0.07738 0.32929 0.0
C568 C 0.04948 0.07102 0.30378 0.0
C569 C 0.05731 0.08231 0.27564 0.0
C570 C 0.11547 0.10286 0.35265 0.0
C571 C 0.02135 0.05158 0.30602 0.0
C572 C 0.06117 0.02005 0.39072 0.0
C573 C 0.04288 0.03386 0.41116 0.0
C574 C 0.07063 0.03454 0.36474 0.0
C575 C 0.06136 0.06356 0.35874 0.0
C576 C 0.04409 0.07833 0.38007 0.0
C577 C 0.03518 0.06335 0.40619 0.0
C578 C 0.08927 0.01803 0.3429 0.0
C579 C 0.03372 0.10923 0.37451 0.0
H580 H 0.12295 0.11878 0.2948 0.0
H581 H 0.04303 0.07731 0.25604 0.0
H582 H 0.10364 0.11326 0.37145 0.0
H583 H 0.12411 0.08187 0.36098 0.0
H584 H 0.13416 0.11867 0.34684 0.0
H585 H 0.00859 0.04964 0.28438 0.0
H586 H 0.02619 0.02852 0.31264 0.0
H587 H 0.00765 0.0611 0.32378 0.0
H588 H 0.06722 0.99726 0.3945 0.0
H589 H 0.02075 0.07398 0.4217 0.0
H590 H 0.10888 0.03261 0.33738 0.0
H591 H 0.07673 0.01251 0.32151 0.0
H592 H 0.09646 0.99667 0.35198 0.0
H593 H 0.05223 0.125 0.36825 0.0
H594 H 0.02314 0.11897 0.39455 0.0
H595 H 0.01773 0.10757 0.3553 0.0
C596 C 0.45635 0.9661 0.75566 0.0
C597 C 0.43114 0.94647 0.75289 0.0
C598 C 0.46662 0.97776 0.78411 0.0
C599 C 0.45177 0.96873 0.81031 0.0
C600 C 0.42569 0.94968 0.80737 0.0
C601 C 0.41552 0.93903 0.77859 0.0
C602 C 0.49406 -0.0014 0.78624 0.0
C603 C 0.40951 0.939 0.8347 0.0
C604 C 0.49646 0.96121 0.88204 0.0
C605 C 0.48823 0.98558 0.90026 0.0
C606 C 0.48515 0.95596 0.85262 0.0
C607 C 0.46538 0.9758 0.84075 0.0
C608 C 0.45782 0.00119 0.85849 0.0
C609 C 0.46919 0.00568 0.88819 0.0
C610 C 0.49364 0.92847 0.8346 0.0
C611 C 0.43731 0.0232 0.84633 0.0
H612 H 0.46825 0.97189 0.73561 0.0
H613 H 0.39607 0.92372 0.77625 0.0
H614 H 0.49112 0.01827 0.80179 0.0
H615 H 0.51227 0.98636 0.79556 0.0
H616 H 0.50042 0.00703 0.76387 0.0
H617 H 0.38841 0.92628 0.8285 0.0
H618 H 0.42319 0.92404 0.84759 0.0
H619 H 0.40522 0.9585 0.84993 0.0
H620 H 0.51118 0.94554 0.89108 0.0
H621 H 0.46288 0.02468 0.90203 0.0
H622 H 0.50325 0.93536 0.81299 0.0
H623 H 0.47394 0.91318 0.82902 0.0
H624 H 0.50965 0.91555 0.84697 0.0
H625 H 0.44489 0.03133 0.82429 0.0
H626 H 0.43546 0.04305 0.86202 0.0
H627 H 0.41527 0.01166 0.84239 0.0
C628 C 0.56959 0.44321 0.71509 0.0
C629 C 0.59784 0.43654 0.72337 0.0
C630 C 0.56264 0.4496 0.68524 0.0
C631 C 0.5844 0.44848 0.66306 0.0
C632 C 0.61278 0.44078 0.67121 0.0
C633 C 0.61931 0.43534 0.7015 0.0
C634 C 0.53213 0.45819 0.67764 0.0
C635 C 0.63629 0.43867 0.64817 0.0
C636 C 0.54258 0.44589 0.59001 0.0
C637 C 0.54068 0.47692 0.58678 0.0
C638 C 0.56107 0.4355 0.61234 0.0
C639 C 0.57709 0.45688 0.63189 0.0
C640 C 0.57889 0.48787 0.62504 0.0
C641 C 0.56069 0.49752 0.60215 0.0
C642 C 0.55972 0.4021 0.61795 0.0
C643 C 0.59583 0.51149 0.64506 0.0
H644 H 0.55314 0.44413 0.73218 0.0
H645 H 0.64113 0.42984 0.70809 0.0
H646 H 0.53305 0.48107 0.66819 0.0
H647 H 0.52172 0.44207 0.66025 0.0
H648 H 0.51802 0.45829 0.69764 0.0
H649 H 0.65514 0.42695 0.65693 0.0
H650 H 0.62754 0.42649 0.62724 0.0
H651 H 0.64431 0.46174 0.642 0.0
H652 H 0.52702 0.43002 0.57796 0.0
H653 H 0.55901 0.52158 0.59949 0.0
H654 H 0.54297 0.39681 0.63498 0.0
H655 H 0.58095 0.39528 0.62683 0.0
H656 H 0.55356 0.38844 0.59698 0.0
H657 H 0.58288 0.51642 0.66525 0.0
H658 H 0.60025 0.53294 0.63324 0.0
H659 H 0.61685 0.50338 0.65295 0.0
C660 C 0.90068 0.58533 0.22895 0.0
C661 C 0.9115 0.56519 0.24928 0.0
C662 C 0.90432 0.58103 0.19782 0.0
C663 C 0.91971 0.55643 0.18715 0.0
C664 C 0.92973 0.53542 0.20773 0.0
C665 C 0.92527 0.53998 0.23866 0.0
C666 C 0.89262 0.6033 0.17651 0.0
C667 C 0.94647 0.50897 0.1973 0.0
C668 C 0.92764 0.5237 0.10855 0.0
C669 C 0.95606 0.53514 0.10292 0.0
C670 C 0.91343 0.5336 0.13445 0.0
C671 C 0.92869 0.55433 0.15527 0.0
C672 C 0.95593 0.56851 0.14754 0.0
C673 C 0.96906 0.55899 0.12108 0.0
C674 C 0.88368 0.51923 0.14116 0.0
C675 C 0.97333 0.5903 0.16917 0.0
H676 H 0.88988 0.60474 0.23752 0.0
H677 H 0.93353 0.52455 0.25467 0.0
H678 H 0.91095 0.61632 0.16599 0.0
H679 H 0.8795 0.59106 0.158 0.0
H680 H 0.87886 0.61952 0.18814 0.0
H681 H 0.95254 0.4947 0.2162 0.0
H682 H 0.93321 0.49456 0.18043 0.0
H683 H 0.96672 0.51732 0.18618 0.0
H684 H 0.91775 0.50502 0.09453 0.0
H685 H 0.99124 0.56745 0.11667 0.0
H686 H 0.87037 0.53551 0.15325 0.0
H687 H 0.88613 0.49978 0.15581 0.0
H688 H 0.87178 0.5107 0.12013 0.0
H689 H 0.95934 0.60704 0.17945 0.0
H690 H 0.99168 0.60266 0.15793 0.0
H691 H 0.98254 0.57747 0.18773 0.0
C692 C 0.29319 0.07759 0.09377 0.0
C693 C 0.26636 0.0692 0.07923 0.0
C694 C 0.31943 0.06873 0.08173 0.0
C695 C 0.31877 0.05042 0.05478 0.0
C696 C 0.29149 0.0408 0.04074 0.0
C697 C 0.26558 0.05067 0.05292 0.0
C698 C 0.34794 0.08012 0.09716 0.0
C699 C 0.28975 0.0207 0.01248 0.0
C700 C 0.38683 0.06443 0.00947 0.0
C701 C 0.40457 0.04212 0.01952 0.0
C702 C 0.35825 0.06616 0.01934 0.0
C703 C 0.34675 0.0448 0.03963 0.0
C704 C 0.3636 0.02054 0.0478 0.0
C705 C 0.39248 0.01951 0.03769 0.0
C706 C 0.34135 0.09249 0.01002 0.0
C707 C 0.35191 0.99691 0.06885 0.0
H708 H 0.29366 0.09186 0.11419 0.0
H709 H 0.24471 0.04392 0.04194 0.0
H710 H 0.36132 0.0609 0.10196 0.0
H711 H 0.36059 0.09517 0.082 0.0
H712 H 0.34465 0.09292 0.11867 0.0
H713 H 0.26694 0.01234 0.00638 0.0
H714 H 0.2989 0.0334 0.99339 0.0
H715 H 0.30299 0.00098 0.01547 0.0
H716 H 0.39601 0.08182 0.99518 0.0
H717 H 0.40611 0.0023 0.04565 0.0
H718 H 0.33884 0.10795 0.02989 0.0
H719 H 0.31915 0.08446 0.00161 0.0
H720 H 0.35239 0.10561 0.99216 0.0
H721 H 0.35239 0.00674 0.09223 0.0
H722 H 0.36507 0.97682 0.06851 0.0
H723 H 0.32888 0.98951 0.06279 0.0
C724 C 0.20783 0.90919 0.57082 0.0
C725 C 0.23239 0.92781 0.56384 0.0
C726 C 0.17984 0.9164 0.56171 0.0
C727 C 0.17664 0.94257 0.54491 0.0
C728 C 0.2017 0.96016 0.536 0.0
C729 C 0.22938 0.95275 0.54596 0.0
C730 C 0.15367 0.89741 0.57213 0.0
C731 C 0.19917 0.98799 0.51778 0.0
C732 C 0.10134 0.9581 0.5141 0.0
C733 C 0.092 0.97759 0.53696 0.0
C734 C 0.12897 0.94637 0.51618 0.0
C735 C 0.14747 0.95455 0.54157 0.0
C736 C 0.13814 0.97435 0.56451 0.0
C737 C 0.11061 0.98555 0.56193 0.0
C738 C 0.13833 0.92522 0.49138 0.0
C739 C 0.15721 0.98372 0.59198 0.0
H740 H 0.21046 0.88988 0.5847 0.0
H741 H 0.24862 0.96688 0.5405 0.0
H742 H 0.1427 0.91022 0.59002 0.0
H743 H 0.13758 0.89237 0.5533 0.0
H744 H 0.15985 0.87574 0.58139 0.0
H745 H 0.22049 0.99622 0.50869 0.0
H746 H 0.18326 0.9833 0.49873 0.0
H747 H 0.19105 0.00636 0.53228 0.0
H748 H 0.08703 0.95184 0.49479 0.0
H749 H 0.10372 0.00076 0.57965 0.0
H750 H 0.14262 0.90304 0.50073 0.0
H751 H 0.15901 0.93452 0.48178 0.0
H752 H 0.12159 0.92147 0.47292 0.0
H753 H 0.16269 0.96343 0.60427 0.0
H754 H 0.14655 -0.00077 0.60782 0.0
H755 H 0.17804 0.99526 0.58497 0.0
C756 C 0.77901 0.4459 0.92363 0.0
C757 C 0.75679 0.44293 0.94467 0.0
C758 C 0.80763 0.45549 0.93271 0.0
C759 C 0.81418 0.46252 0.9636 0.0
C760 C 0.79176 0.46015 0.98494 0.0
C761 C 0.76328 0.45012 0.97523 0.0
C762 C 0.83096 0.45761 0.90926 0.0
C763 C 0.7979 0.46804 0.01796 0.0
C764 C 0.8942 0.45902 0.98492 0.0
C765 C 0.90463 0.48908 0.98133 0.0
C766 C 0.8644 0.45021 0.98059 0.0
C767 C 0.84469 0.47215 0.97316 0.0
C768 C 0.85494 0.50287 0.9715 0.0
C769 C 0.88486 0.51089 0.97524 0.0
C770 C 0.85429 0.41718 0.98224 0.0
C771 C 0.83456 0.52706 0.96436 0.0
H772 H 0.77415 0.4399 0.90005 0.0
H773 H 0.74606 0.448 0.99148 0.0
H774 H 0.84113 0.48105 0.90915 0.0
H775 H 0.84845 0.44258 0.91491 0.0
H776 H 0.82223 0.45118 0.88619 0.0
H777 H 0.77778 0.46644 0.0314 0.0
H778 H 0.81348 0.45256 0.02725 0.0
H779 H 0.80828 0.49137 0.0208 0.0
H780 H 0.90948 0.44217 0.98975 0.0
H781 H 0.89284 0.53429 0.97303 0.0
H782 H 0.84742 0.40804 0.95936 0.0
H783 H 0.83507 0.41441 0.99682 0.0
H784 H 0.8717 0.40349 0.99109 0.0
H785 H 0.82735 0.52449 0.94032 0.0
H786 H 0.84516 0.5502 0.96841 0.0
H787 H 0.81475 0.52473 0.97817 0.0
C788 C 0.71967 0.5253 0.44173 0.0
C789 C 0.74394 0.53815 0.45852 0.0
C790 C 0.69207 0.5221 0.45459 0.0
C791 C 0.68852 0.53259 0.48476 0.0
C792 C 0.71326 0.54327 0.50254 0.0
C793 C 0.74074 0.54555 0.48931 0.0
C794 C 0.6663 0.50963 0.4351 0.0
C795 C 0.71048 0.55448 0.5348 0.0
C796 C 0.61424 0.56271 0.4894 0.0
C797 C 0.59774 0.53759 0.49963 0.0
C798 C 0.64462 0.56265 0.48763 0.0
C799 C 0.6586 0.5365 0.49564 0.0
C800 C 0.64238 0.51251 0.50923 0.0
C801 C 0.61198 0.51347 0.51133 0.0
C802 C 0.66119 0.58916 0.47388 0.0
C803 C 0.65635 0.48427 0.51823 0.0
H804 H 0.72175 0.51944 0.41799 0.0
H805 H 0.75954 0.55449 0.50282 0.0
H806 H 0.65274 0.49266 0.44739 0.0
H807 H 0.65238 0.52824 0.42957 0.0
H808 H 0.67317 0.49886 0.41365 0.0
H809 H 0.73196 0.55724 0.54696 0.0
H810 H 0.70087 0.57677 0.53507 0.0
H811 H 0.69566 0.53878 0.5472 0.0
H812 H 0.60313 0.5813 0.48031 0.0
H813 H 0.59913 0.49387 0.51896 0.0
H814 H 0.66665 0.58288 0.45033 0.0
H815 H 0.68199 0.59524 0.48656 0.0
H816 H 0.64825 0.60939 0.47348 0.0
H817 H 0.65754 0.46892 0.49804 0.0
H818 H 0.64336 0.47202 0.53537 0.0
H819 H 0.67889 0.48952 0.5273 0.0
C820 C 0.05935 0.27009 0.06214 0.0
C821 C 0.08807 0.26379 0.05516 0.0
C822 C 0.04777 0.29732 0.05416 0.0
C823 C 0.06485 0.31867 0.03785 0.0
C824 C 0.09302 0.31161 0.02878 0.0
C825 C 0.10443 0.28459 0.03789 0.0
C826 C 0.01781 0.30399 0.06477 0.0
C827 C 0.11182 0.33334 0.01086 0.0
C828 C 0.02506 0.38584 0.00935 0.0
C829 C 0.03079 0.407 0.03335 0.0
C830 C 0.03683 0.35718 0.00974 0.0
C831 C 0.0549 0.34989 0.0345 0.0
C832 C 0.06197 0.37203 0.05776 0.0
C833 C 0.04978 0.40007 0.05693 0.0
C834 C 0.02908 0.33433 0.98432 0.0
C835 C 0.08147 0.36573 0.08437 0.0
H836 H 0.04591 0.254 0.07448 0.0
H837 H 0.12668 0.28048 0.03238 0.0
H838 H 0.01982 0.32301 0.08185 0.0
H839 H 0.0042 0.31111 0.04571 0.0
H840 H 0.00633 0.28416 0.07504 0.0
H841 H 0.13029 0.32223 0.00049 0.0
H842 H 0.09874 0.34305 0.99276 0.0
H843 H 0.12091 0.35236 0.02594 0.0
H844 H 0.01047 0.39114 0.99106 0.0
H845 H 0.0547 0.4166 0.0753 0.0
H846 H 0.01424 0.31579 0.9926 0.0
H847 H 0.04894 0.32405 0.97621 0.0
H848 H 0.01808 0.34457 0.96504 0.0
H849 H 0.071 0.3472 0.09739 0.0
H850 H 0.08598 0.38591 0.09979 0.0
H851 H 0.10257 0.35814 0.07646 0.0
C852 C 0.59344 0.21459 0.8836 0.0
C853 C 0.57569 0.23561 0.89672 0.0
C854 C 0.58935 0.18372 0.88959 0.0
C855 C 0.56719 0.17397 0.90938 0.0
C856 C 0.54933 0.19541 0.92279 0.0
C857 C 0.55371 0.22601 0.91608 0.0
C858 C 0.60846 0.1616 0.87457 0.0
C859 C 0.5257 0.18611 0.94443 0.0
C860 C 0.52541 0.09962 0.9177 0.0
C861 C 0.5357 0.09274 0.94638 0.0
C862 C 0.53882 0.12379 0.90238 0.0
C863 C 0.56231 0.14158 0.91674 0.0
C864 C 0.57585 0.13106 0.94295 0.0
C865 C 0.56279 0.10587 0.95696 0.0
C866 C 0.52485 0.13314 0.87343 0.0
C867 C 0.60076 0.14925 0.95933 0.0
H868 H 0.61044 0.22239 0.86859 0.0
H869 H 0.54018 0.24255 0.92617 0.0
H870 H 0.61866 0.14768 0.8916 0.0
H871 H 0.59492 0.14585 0.8591 0.0
H872 H 0.62599 0.17313 0.86145 0.0
H873 H 0.51468 0.20577 0.95383 0.0
H874 H 0.50898 0.17029 0.93275 0.0
H875 H 0.5351 0.17406 0.96344 0.0
H876 H 0.50458 0.08919 0.90934 0.0
H877 H 0.57078 0.10039 0.97917 0.0
H878 H 0.54148 0.14294 0.85815 0.0
H879 H 0.50942 0.15068 0.87863 0.0
H880 H 0.51244 0.11365 0.86152 0.0
H881 H 0.61596 0.16032 0.9434 0.0
H882 H 0.61319 0.1349 0.97425 0.0
H883 H 0.59179 0.16731 0.97361 0.0
C884 C 0.95167 0.75925 0.43978 0.0
C885 C 0.93647 0.74216 0.46123 0.0
C886 C 0.9615 0.78951 0.44608 0.0
C887 C 0.95487 0.80358 0.47398 0.0
C888 C 0.94115 0.78622 0.4964 0.0
C889 C 0.93277 0.75555 0.49002 0.0
C890 C 0.97699 0.80704 0.42187 0.0
C891 C 0.93314 0.80053 0.5262 0.0
C892 C 0.98789 0.88406 0.48823 0.0
C893 C 0.96672 0.90032 0.47416 0.0
C894 C 0.98394 0.85239 0.4897 0.0
C895 C 0.95799 0.83711 0.47737 0.0
C896 C 0.93572 0.8539 0.46523 0.0
C897 C 0.94053 0.88525 0.46346 0.0
C898 C 0.00832 0.83524 0.50242 0.0
C899 C 0.90741 0.83862 0.45249 0.0
H900 H 0.95462 0.74977 0.41733 0.0
H901 H 0.92217 0.7425 0.50734 0.0
H902 H 0.96173 0.82212 0.41132 0.0
H903 H 0.99577 0.8215 0.43171 0.0
H904 H 0.98503 0.79185 0.4039 0.0
H905 H 0.92669 0.78332 0.54284 0.0
H906 H 0.95154 0.81557 0.53594 0.0
H907 H 0.9145 0.81471 0.52252 0.0
H908 H 0.00821 0.89581 0.49635 0.0
H909 H 0.92403 0.89797 0.45286 0.0
H910 H 0.01953 0.8241 0.4836 0.0
H911 H -0.00029 0.81721 0.51717 0.0
H912 H 0.02468 0.85039 0.51552 0.0
H913 H 0.91165 0.82566 0.43136 0.0
H914 H 0.89108 0.85515 0.4473 0.0
H915 H 0.89786 0.82236 0.4686 0.0
C916 C 0.40252 0.72137 0.55148 0.0
C917 C 0.42016 0.74846 0.55235 0.0
C918 C 0.41437 0.69361 0.54532 0.0
C919 C 0.4445 0.69306 0.53948 0.0
C920 C 0.46208 0.72055 0.53871 0.0
C921 C 0.44975 0.748 0.54557 0.0
C922 C 0.39493 0.66479 0.54669 0.0
C923 C 0.49408 0.72084 0.53174 0.0
C924 C 0.47614 0.62171 0.56496 0.0
C925 C 0.47529 0.6039 0.53816 0.0
C926 C 0.46771 0.65141 0.56528 0.0
C927 C 0.45804 0.66362 0.5381 0.0
C928 C 0.4588 0.64643 0.51059 0.0
C929 C 0.46753 0.61666 0.51093 0.0
C930 C 0.46741 0.66902 0.59508 0.0
C931 C 0.44867 0.65862 0.48113 0.0
H932 H 0.37965 0.72179 0.55688 0.0
H933 H 0.46324 0.76908 0.5459 0.0
H934 H 0.39683 0.65053 0.52586 0.0
H935 H 0.402 0.65155 0.56596 0.0
H936 H 0.37163 0.66924 0.54948 0.0
H937 H 0.50388 0.74411 0.52866 0.0
H938 H 0.50604 0.71078 0.55044 0.0
H939 H 0.49722 0.70684 0.51097 0.0
H940 H 0.48244 0.61199 0.58601 0.0
H941 H 0.46667 0.60288 0.49018 0.0
H942 H 0.44455 0.67267 0.60101 0.0
H943 H 0.47911 0.69161 0.5934 0.0
H944 H 0.47766 0.6571 0.61373 0.0
H945 H 0.42447 0.65652 0.47973 0.0
H946 H 0.45696 0.64588 0.46147 0.0
H947 H 0.45582 0.68293 0.47958 0.0
C948 C 0.91995 0.89659 0.71997 0.0
C949 C 0.91029 0.91986 0.73879 0.0
C950 C 0.93042 0.90247 0.69104 0.0
C951 C 0.93104 0.93228 0.68053 0.0
C952 C 0.92137 0.95583 0.69941 0.0
C953 C 0.91134 0.94939 0.72827 0.0
C954 C 0.9409 0.87686 0.67175 0.0
C955 C 0.92193 0.98803 0.68925 0.0
C956 C 0.98334 0.96241 0.62244 0.0
C957 C 0.96459 0.96549 0.59758 0.0
C958 C 0.97313 0.94957 0.64891 0.0
C959 C 0.94331 0.93959 0.6506 0.0
C960 C 0.92475 0.94046 0.62465 0.0
C961 C 0.93562 0.9536 0.59832 0.0
C962 C 0.99377 0.9492 0.67586 0.0
C963 C 0.89291 0.92972 0.62547 0.0
H964 H 0.91892 0.87363 0.72765 0.0
H965 H 0.90454 0.96767 0.74276 0.0
H966 H 0.92812 0.87447 0.65018 0.0
H967 H 0.96407 0.88192 0.66605 0.0
H968 H 0.93895 0.85494 0.68316 0.0
H969 H 0.91271 0.00353 0.7062 0.0
H970 H 0.94471 0.9965 0.68501 0.0
H971 H 0.90929 0.98891 0.66773 0.0
H972 H 0.00574 0.97186 0.62181 0.0
H973 H 0.92108 0.95636 0.57919 0.0
H974 H 0.99143 0.92708 0.68677 0.0
H975 H 0.98839 0.96685 0.69281 0.0
H976 H 0.01691 0.95371 0.66961 0.0
H977 H 0.8902 0.90751 0.6362 0.0
H978 H 0.88258 0.9276 0.60254 0.0
H979 H 0.88115 0.94608 0.63928 0.0
C980 C 0.55298 0.06595 0.24417 0.0
C981 C 0.58179 0.07699 0.25092 0.0
C982 C 0.54431 0.0562 0.21467 0.0
C983 C 0.56485 0.05811 0.19136 0.0
C984 C 0.59442 0.06726 0.19851 0.0
C985 C 0.60257 0.07648 0.22828 0.0
C986 C 0.51267 0.04616 0.20808 0.0
C987 C 0.61696 0.06988 0.17434 0.0
C988 C 0.54225 0.02884 0.11166 0.0
C989 C 0.53347 0.05537 0.0989 0.0
C990 C 0.55276 0.02918 0.14177 0.0
C991 C 0.5544 0.05662 0.15935 0.0
C992 C 0.54575 0.08339 0.14646 0.0
C993 C 0.53551 0.08243 0.11655 0.0
C994 C 0.5619 0.00025 0.15485 0.0
C995 C 0.54704 0.11318 0.16437 0.0
H996 H 0.53702 0.06585 0.2618 0.0
H997 H 0.62487 0.08507 0.23344 0.0
H998 H 0.50185 0.06449 0.19685 0.0
H999 H 0.51072 0.02592 0.19251 0.0
H1000 H 0.5008 0.04082 0.22899 0.0
H1001 H 0.63954 0.07241 0.18404 0.0
H1002 H 0.61491 0.04977 0.15862 0.0
H1003 H 0.61335 0.09 0.16094 0.0
H1004 H 0.54077 0.00784 0.09823 0.0
H1005 H 0.52882 0.10313 0.1071 0.0
H1006 H 0.54851 0.99464 0.17464 0.0
H1007 H 0.58498 0.00326 0.16295 0.0
H1008 H 0.55957 0.98087 0.13817 0.0
H1009 H 0.53293 0.11111 0.18426 0.0
H1010 H 0.53982 0.132 0.15081 0.0
H1011 H 0.56965 0.11928 0.17288 0.0
C1012 C 0.3766 0.57413 0.30182 0.0
C1013 C 0.39898 0.57998 0.28142 0.0
C1014 C 0.38302 0.56637 0.33149 0.0
C1015 C 0.41242 0.56385 0.34054 0.0
C1016 C 0.43509 0.57007 0.31999 0.0
C1017 C 0.42806 0.57833 0.29074 0.0
C1018 C 0.35849 0.56091 0.35312 0.0
C1019 C 0.4668 0.56737 0.32862 0.0
C1020 C 0.4496 0.56242 0.4163 0.0
C1021 C 0.45579 0.532 0.41598 0.0
C1022 C 0.43127 0.57288 0.39381 0.0
C1023 C 0.41997 0.55239 0.37046 0.0
C1024 C 0.42286 0.52099 0.37288 0.0
C1025 C 0.44064 0.51115 0.39596 0.0
C1026 C 0.42751 0.60634 0.39283 0.0
C1027 C 0.41148 0.49828 0.34847 0.0
H1028 H 0.35411 0.576 0.29462 0.0
H1029 H 0.44528 0.58288 0.27487 0.0
H1030 H 0.35836 0.53763 0.36148 0.0
H1031 H 0.36189 0.57671 0.37306 0.0
H1032 H 0.33681 0.56403 0.34256 0.0
H1033 H 0.48158 0.57221 0.30965 0.0
H1034 H 0.47335 0.58342 0.34773 0.0
H1035 H 0.47002 0.54421 0.33614 0.0
H1036 H 0.46152 0.5785 0.43186 0.0
H1037 H 0.44574 0.48761 0.39587 0.0
H1038 H 0.40635 0.61083 0.38196 0.0
H1039 H 0.44526 0.61721 0.37956 0.0
H1040 H 0.42882 0.61708 0.41589 0.0
H1041 H 0.38961 0.5034 0.33989 0.0
H1042 H 0.41017 0.47483 0.35663 0.0
H1043 H 0.42653 0.49924 0.32924 0.0
C1044 C 0.09756 0.442 0.78383 0.0
C1045 C 0.07427 0.44071 0.76271 0.0
C1046 C 0.09327 0.44938 0.81439 0.0
C1047 C 0.06508 0.45574 0.82389 0.0
C1048 C 0.04157 0.45469 0.80257 0.0
C1049 C 0.04645 0.44712 0.77227 0.0
C1050 C 0.1188 0.45029 0.8365 0.0
C1051 C 0.01127 0.462 0.81166 0.0
C1052 C 0.03743 0.4554 0.90372 0.0
C1053 C 0.03693 0.4865 0.90986 0.0
C1054 C 0.04906 0.44466 0.8766 0.0
C1055 C 0.06013 0.46567 0.85557 0.0
C1056 C 0.06215 0.49697 0.86331 0.0
C1057 C 0.05049 0.50696 0.89039 0.0
C1058 C 0.04712 0.41108 0.86929 0.0
C1059 C 0.07378 0.52021 0.84171 0.0
H1060 H 0.11903 0.43668 0.77654 0.0
H1061 H 0.0285 0.44649 0.75593 0.0
H1062 H 0.12174 0.4728 0.84836 0.0
H1063 H 0.1144 0.43335 0.85392 0.0
H1064 H 0.13948 0.44555 0.82534 0.0
H1065 H 0.99532 0.45962 0.79238 0.0
H1066 H 0.00343 0.4468 0.82952 0.0
H1067 H 0.01178 0.48555 0.82113 0.0
H1068 H 0.02678 0.43967 0.91882 0.0
H1069 H 0.05015 0.53107 0.8954 0.0
H1070 H 0.06753 0.40422 0.85898 0.0
H1071 H 0.02903 0.40534 0.85262 0.0
H1072 H 0.04292 0.39775 0.88966 0.0
H1073 H 0.0943 0.51344 0.83161 0.0
H1074 H 0.07797 0.54298 0.85293 0.0
H1075 H 0.05759 0.52192 0.82302 0.0
C1076 C 0.71058 0.91576 0.95236 0.0
C1077 C 0.73506 0.93264 0.94197 0.0
C1078 C 0.68531 0.92976 0.9608 0.0
C1079 C 0.68438 0.96156 0.95901 0.0
C1080 C 0.70901 0.97876 0.94858 0.0
C1081 C 0.73398 0.96412 0.9401 0.0
C1082 C 0.65948 0.91041 0.97148 0.0
C1083 C 0.70908 0.01268 0.9466 0.0
C1084 C 0.60781 0.98954 0.95675 0.0
C1085 C 0.60303 0.99516 0.98746 0.0
C1086 C 0.63468 0.9799 0.9469 0.0
C1087 C 0.65755 0.97652 0.96825 0.0
C1088 C 0.6535 0.98458 0.99902 0.0
C1089 C 0.62608 0.99318 0.00833 0.0
C1090 C 0.63766 0.97085 0.91405 0.0
C1091 C 0.67746 0.98211 0.02243 0.0
H1092 H 0.71098 0.89141 0.95344 0.0
H1093 H 0.75287 0.97743 0.93241 0.0
H1094 H 0.65435 0.91753 0.99488 0.0
H1095 H 0.63995 0.91353 0.95707 0.0
H1096 H 0.66346 0.88597 0.97101 0.0
H1097 H 0.72991 0.02282 0.93796 0.0
H1098 H 0.69092 0.01858 0.93153 0.0
H1099 H 0.70546 0.02306 0.96923 0.0
H1100 H 0.5897 0.99011 0.94072 0.0
H1101 H 0.6222 0.99685 0.03216 0.0
H1102 H 0.63848 0.94591 0.91167 0.0
H1103 H 0.65831 0.98113 0.90525 0.0
H1104 H 0.61914 0.97762 0.8999 0.0
H1105 H 0.6805 0.95791 0.02612 0.0
H1106 H 0.67239 0.9932 0.04437 0.0
H1107 H 0.69845 0.99253 0.01454 0.0
C1108 C 0.79386 0.10969 0.45595 0.0
C1109 C 0.77185 0.08721 0.44767 0.0
C1110 C 0.82184 0.1019 0.46468 0.0
C1111 C 0.82775 0.071 0.46496 0.0
C1112 C 0.80499 0.04829 0.45874 0.0
C1113 C 0.77728 0.0567 0.45029 0.0
C1114 C 0.84551 0.12672 0.47152 0.0
C1115 C 0.81037 0.01507 0.45891 0.0
C1116 C 0.90151 0.04591 0.44319 0.0
C1117 C 0.91297 0.03756 0.47096 0.0
C1118 C 0.87436 0.05824 0.44125 0.0
C1119 C 0.8582 0.06218 0.46772 0.0
C1120 C 0.87017 0.05507 0.49602 0.0
C1121 C 0.89752 0.04286 0.49733 0.0
C1122 C 0.86244 0.06582 0.41064 0.0
C1123 C 0.85358 0.05915 0.5247 0.0
H1124 H 0.78973 0.13332 0.45394 0.0
H1125 H 0.76008 0.03931 0.44451 0.0
H1126 H 0.85875 0.1216 0.49167 0.0
H1127 H 0.8604 0.12833 0.45222 0.0
H1128 H 0.83642 0.14907 0.47542 0.0
H1129 H 0.78978 0.00036 0.45663 0.0
H1130 H 0.82451 0.00934 0.43988 0.0
H1131 H 0.82196 0.0098 0.48006 0.0
H1132 H 0.91352 0.04224 0.42278 0.0
H1133 H 0.90636 0.0366 0.5189 0.0
H1134 H 0.85569 0.08936 0.41113 0.0
H1135 H 0.84278 0.05061 0.40465 0.0
H1136 H 0.87861 0.06338 0.39262 0.0
H1137 H 0.84533 0.08206 0.52628 0.0
H1138 H 0.86724 0.05586 0.54514 0.0
H1139 H 0.83435 0.04255 0.52447 0.0
C1140 C 0.21994 0.61664 0.06308 0.0
C1141 C 0.24098 0.59524 0.06227 0.0
C1142 C 0.19034 0.60786 0.05791 0.0
C1143 C 0.18176 0.57702 0.05133 0.0
C1144 C 0.20311 0.55553 0.0491 0.0
C1145 C 0.23254 0.56488 0.05496 0.0
C1146 C 0.16816 0.63127 0.06126 0.0
C1147 C 0.19471 0.52248 0.04186 0.0
C1148 C 0.10775 0.54503 0.07476 0.0
C1149 C 0.0921 0.54248 0.04716 0.0
C1150 C 0.13669 0.55709 0.07649 0.0
C1151 C 0.15039 0.56665 0.04992 0.0
C1152 C 0.13446 0.56518 0.02216 0.0
C1153 C 0.10534 0.5532 0.02112 0.0
C1154 C 0.15282 0.55876 0.10665 0.0
C1155 C 0.14848 0.5753 0.99344 0.0
H1156 H 0.22651 0.64006 0.06925 0.0
H1157 H 0.24891 0.54841 0.05436 0.0
H1158 H 0.15278 0.62984 0.04154 0.0
H1159 H 0.1551 0.6268 0.08156 0.0
H1160 H 0.17856 0.65465 0.06361 0.0
H1161 H 0.21405 0.50931 0.03789 0.0
H1162 H 0.1825 0.51259 0.06085 0.0
H1163 H 0.18009 0.5199 0.02154 0.0
H1164 H 0.0975 0.53715 0.09508 0.0
H1165 H 0.09328 0.55132 -0.00023 0.0
H1166 H 0.16254 0.58206 0.11166 0.0
H1167 H 0.17099 0.54355 0.10594 0.0
H1168 H 0.13842 0.5521 0.12542 0.0
H1169 H 0.15815 0.59888 0.9965 0.0
H1170 H 0.13269 0.5741 0.97403 0.0
H1171 H 0.1665 0.5608 0.98793 0.0
C1172 C 0.27709 0.45623 0.57832 0.0
C1173 C 0.25168 0.45542 0.5602 0.0
C1174 C 0.30472 0.46003 0.56568 0.0
C1175 C 0.307 0.46324 0.53412 0.0
C1176 C 0.28142 0.46251 0.51569 0.0
C1177 C 0.25402 0.45856 0.52896 0.0
C1178 C 0.3315 0.46054 0.58615 0.0
C1179 C 0.28303 0.46581 0.48203 0.0
C1180 C 0.37913 0.50326 0.51597 0.0
C1181 C 0.39658 0.47878 0.51275 0.0
C1182 C 0.34914 0.49859 0.52053 0.0
C1183 C 0.33632 0.46865 0.52106 0.0
C1184 C 0.35332 0.44395 0.51405 0.0
C1185 C 0.38355 0.4493 0.51055 0.0
C1186 C 0.33209 0.52554 0.52857 0.0
C1187 C 0.34025 0.41175 0.5134 0.0
H1188 H 0.27536 0.4532 0.60236 0.0
H1189 H 0.23437 0.45799 0.51491 0.0
H1190 H 0.34527 0.44205 0.57917 0.0
H1191 H 0.34482 0.48222 0.58426 0.0
H1192 H 0.32592 0.45783 0.61018 0.0
H1193 H 0.2611 0.46409 0.47078 0.0
H1194 H 0.29421 0.48801 0.4771 0.0
H1195 H 0.29614 0.44807 0.47204 0.0
H1196 H 0.38949 0.52602 0.51831 0.0
H1197 H 0.39723 0.43039 0.50858 0.0
H1198 H 0.32825 0.5262 0.55319 0.0
H1199 H 0.31047 0.52375 0.5168 0.0
H1200 H 0.34394 0.54721 0.52286 0.0
H1201 H 0.3377 0.40431 0.53686 0.0
H1202 H 0.35434 0.3961 0.50143 0.0
H1203 H 0.31829 0.40994 0.50227 0.0
C1204 C 0.95084 0.74768 0.96265 0.0
C1205 C 0.92369 0.74686 0.9475 0.0
C1206 C 0.96132 0.72133 0.97442 0.0
C1207 C 0.94468 0.69327 0.97007 0.0
C1208 C 0.91682 0.69259 0.95548 0.0
C1209 C 0.90652 0.71947 0.94473 0.0
C1210 C 0.99084 0.72331 0.99026 0.0
C1211 C 0.89874 0.66316 0.94933 0.0
C1212 C 0.98819 0.62394 0.96077 0.0
C1213 C 0.98313 0.60882 0.9877 0.0
C1214 C 0.97561 0.65106 0.95485 0.0
C1215 C 0.9581 0.66434 0.97678 0.0
C1216 C 0.95347 0.64978 0.00444 0.0
C1217 C 0.96564 0.62188 0.00939 0.0
C1218 C 0.98053 0.66509 0.92466 0.0
C1219 C 0.93562 0.66367 0.02871 0.0
H1220 H 0.9641 0.7689 0.96481 0.0
H1221 H 0.88566 0.71882 0.93272 0.0
H1222 H 0.98988 0.71057 0.01133 0.0
H1223 H 0.00688 0.7129 0.97553 0.0
H1224 H -0.00107 0.74709 0.9959 0.0
H1225 H 0.87649 0.66677 0.94049 0.0
H1226 H 0.90974 0.64908 0.93246 0.0
H1227 H 0.89679 0.65014 0.97014 0.0
H1228 H 0.0013 0.614 0.94354 0.0
H1229 H 0.96152 0.61036 0.03016 0.0
H1230 H 0.99177 0.68797 0.92794 0.0
H1231 H 0.95927 0.66775 0.91306 0.0
H1232 H 0.99386 0.6513 0.90962 0.0
H1233 H 0.94488 0.68695 0.03482 0.0
H1234 H 0.93492 0.65023 0.04936 0.0
H1235 H 0.91297 0.66553 0.02019 0.0
C1236 C 0.40269 0.81313 0.11172 0.0
C1237 C 0.42512 0.79433 0.11835 0.0
C1238 C 0.40876 0.84123 0.09894 0.0
C1239 C 0.43794 0.85054 0.09251 0.0
C1240 C 0.46087 0.8327 0.10138 0.0
C1241 C 0.45416 0.80476 0.11431 0.0
C1242 C 0.38376 0.85972 0.09016 0.0
C1243 C 0.4923 0.84187 0.09485 0.0
C1244 C 0.45671 0.89122 0.02181 0.0
C1245 C 0.46738 0.91971 0.03351 0.0
C1246 C 0.44505 0.86916 0.04067 0.0
C1247 C 0.44425 0.87579 0.07207 0.0
C1248 C 0.45261 0.9054 0.08368 0.0
C1249 C 0.46408 0.92722 0.06411 0.0
C1250 C 0.43586 0.83803 0.02723 0.0
C1251 C 0.4516 0.91336 0.11696 0.0
H1252 H 0.38021 0.80524 0.11537 0.0
H1253 H 0.4715 0.79022 0.11941 0.0
H1254 H 0.38927 0.88416 0.09529 0.0
H1255 H 0.37937 0.85679 0.0655 0.0
H1256 H 0.36347 0.85259 0.10192 0.0
H1257 H 0.50767 0.82754 0.10637 0.0
H1258 H 0.49563 0.83977 0.07018 0.0
H1259 H 0.49779 0.86585 0.10205 0.0
H1260 H 0.45895 0.88561 0.99801 0.0
H1261 H 0.47241 0.94929 0.07313 0.0
H1262 H 0.41398 0.83019 0.0351 0.0
H1263 H 0.45146 0.82167 0.03478 0.0
H1264 H 0.43522 0.83752 0.00217 0.0
H1265 H 0.43103 0.90379 0.12658 0.0
H1266 H 0.45354 0.93824 0.12156 0.0
H1267 H 0.46994 0.90343 0.12886 0.0
C1268 C 0.07156 0.2406 0.55741 0.0
C1269 C 0.05478 0.26369 0.54781 0.0
C1270 C 0.06229 0.21022 0.5514 0.0
C1271 C 0.03566 0.20288 0.53519 0.0
C1272 C 0.01892 0.22626 0.52486 0.0
C1273 C 0.02867 0.25661 0.53146 0.0
C1274 C 0.08057 0.186 0.56331 0.0
C1275 C 0.9905 0.21918 0.50752 0.0
C1276 C 0.02885 0.12016 0.50966 0.0
C1277 C 0.01557 0.10762 0.5348 0.0
C1278 C 0.03349 0.15176 0.50803 0.0
C1279 C 0.02438 0.17071 0.53198 0.0
C1280 C 0.0084 0.15794 0.55582 0.0
C1281 C 0.00434 0.12651 0.55697 0.0
C1282 C 0.05038 0.16464 0.48214 0.0
C1283 C 0.99813 0.17718 0.58176 0.0
H1284 H 0.09177 0.24643 0.57006 0.0
H1285 H 0.01592 0.27475 0.52404 0.0
H1286 H 0.06811 0.17282 0.58015 0.0
H1287 H 0.08572 0.16999 0.54471 0.0
H1288 H 0.10136 0.19559 0.5742 0.0
H1289 H 0.98117 0.23987 0.49921 0.0
H1290 H 0.99377 0.20354 0.48798 0.0
H1291 H 0.97437 0.20752 0.52216 0.0
H1292 H 0.03754 0.10539 0.49258 0.0
H1293 H 0.99378 0.11659 0.57626 0.0
H1294 H 0.07313 0.17131 0.48991 0.0
H1295 H 0.04071 0.18523 0.47412 0.0
H1296 H 0.05106 0.14794 0.46292 0.0
H1297 H 0.01718 0.18559 0.59629 0.0
H1298 H 0.98235 0.16427 0.59588 0.0
H1299 H 0.9877 0.19719 0.57341 0.0
C1300 C 0.5489 0.2668 0.45735 0.0
C1301 C 0.57936 0.26607 0.45943 0.0
C1302 C 0.5354 0.29381 0.463 0.0
C1303 C 0.55281 0.32067 0.47082 0.0
C1304 C 0.58338 0.31964 0.4748 0.0
C1305 C 0.59629 0.29237 0.46899 0.0
C1306 C 0.50272 0.29394 0.45878 0.0
C1307 C 0.60275 0.34781 0.48307 0.0
C1308 C 0.53154 0.3957 0.44298 0.0
C1309 C 0.52372 0.41063 0.46969 0.0
C1310 C 0.53971 0.36591 0.44293 0.0
C1311 C 0.54001 0.35051 0.47029 0.0
C1312 C 0.53054 0.36476 0.49707 0.0
C1313 C 0.52245 0.39477 0.49647 0.0
C1314 C 0.54953 0.35154 0.4138 0.0
C1315 C 0.53032 0.34891 0.52659 0.0
H1316 H 0.53564 0.2464 0.45052 0.0
H1317 H 0.61985 0.29209 0.4704 0.0
H1318 H 0.49327 0.30704 0.47749 0.0
H1319 H 0.49759 0.30508 0.43751 0.0
H1320 H 0.49196 0.27068 0.45758 0.0
H1321 H 0.62547 0.34257 0.48878 0.0
H1322 H 0.60332 0.36309 0.46379 0.0
H1323 H 0.59395 0.3603 0.50256 0.0
H1324 H 0.53216 0.40764 0.42209 0.0
H1325 H 0.51637 0.40617 0.51718 0.0
H1326 H 0.53749 0.32922 0.40923 0.0
H1327 H 0.57308 0.34762 0.41578 0.0
H1328 H 0.54619 0.36586 0.39416 0.0
H1329 H 0.51968 0.32571 0.52354 0.0
H1330 H 0.51885 0.36144 0.54434 0.0
H1331 H 0.55309 0.3467 0.53459 0.0
loop_
_geom_bond_atom_site_label_1
_geom_bond_atom_site_label_2
_geom_bond_distance
_geom_bond_site_symmetry_2
_ccdc_geom_bond_type
C0 C1 1.391 . S
C0 C4 1.391 . S
C0 H42 0.948 . S
C1 C0 1.391 . S
C1 C2 1.391 . S
C2 C1 1.391 . S
C2 H58 0.947 . S
C2 C59 1.392 . S
C3 C4 1.391 . S
C3 C7 1.397 . S
C3 C59 1.419 . S
C4 C0 1.391 . S
C4 C3 1.391 . S
C4 C5 1.399 . S
C5 C4 1.399 . S
C5 C8 1.396 . S
C5 C17 1.453 . S
C5 C18 1.684 . S
H6 C30 0.948 . S
C7 C3 1.397 . S
C7 C8 1.394 . S
C7 C26 1.723 . S
C8 C5 1.396 . S
C8 C7 1.394 . S
C8 C38 1.723 . S
H9 C32 0.947 . S
H10 C33 0.948 . S
H11 C39 0.982 . S
H12 C40 0.979 . S
H13 C40 0.980 . S
H14 C40 0.983 . S
H15 C39 0.979 . S
H16 C39 0.977 . S
C17 C5 1.453 . S
C17 H46 0.982 . S
C17 H47 0.979 . S
C17 H48 0.977 . S
C18 C5 1.684 . S
C18 H43 0.979 . S
C18 H44 0.980 . S
C18 H45 0.983 . S
C19 C20 1.391 . S
C19 C24 1.391 . S
C19 H49 0.948 . S
C20 C19 1.391 . S
C20 C21 1.391 . S
C21 C20 1.391 . S
C21 C22 1.392 . S
C21 H50 0.947 . S
C22 C21 1.392 . S
C22 C23 1.419 . S
C22 H51 0.948 . S
C23 C22 1.419 . S
C23 C24 1.391 . S
C23 C27 1.397 . S
C24 C19 1.391 . S
C24 C23 1.391 . S
C24 C25 1.399 . S
C25 C24 1.399 . S
C25 C26 1.396 . S
C25 C28 1.453 . S
C25 C29 1.684 . S
C26 C7 1.723 . S
C26 C25 1.396 . S
C26 C27 1.394 . S
C27 C23 1.397 . S
C27 C26 1.394 . S
C27 C37 1.723 . S
C28 C25 1.453 . S
C28 H52 0.982 . S
C28 H53 0.979 . S
C28 H54 0.977 . S
C29 C25 1.684 . S
C29 H55 0.979 . S
C29 H56 0.980 . S
C29 H57 0.983 . S
C30 H6 0.948 . S
C30 C31 1.391 . S
C30 C35 1.391 . S
C31 C30 1.391 . S
C31 C32 1.391 . S
C32 H9 0.947 . S
C32 C31 1.391 . S
C32 C33 1.392 . S
C33 H10 0.948 . S
C33 C32 1.392 . S
C33 C34 1.419 . S
C34 C33 1.419 . S
C34 C35 1.391 . S
C34 C38 1.397 . S
C35 C30 1.391 . S
C35 C34 1.391 . S
C35 C36 1.399 . S
C36 C35 1.399 . S
C36 C37 1.396 . S
C36 C39 1.453 . S
C36 C40 1.684 . S
C37 C27 1.723 . S
C37 C36 1.396 . S
C37 C38 1.394 . S
C38 C8 1.723 . S
C38 C34 1.397 . S
C38 C37 1.394 . S
C39 H11 0.982 . S
C39 H15 0.979 . S
C39 H16 0.977 . S
C39 C36 1.453 . S
C40 H12 0.979 . S
C40 H13 0.980 . S
C40 H14 0.983 . S
C40 C36 1.684 . S
H41 C59 0.948 . S
H42 C0 0.948 . S
H43 C18 0.979 . S
H44 C18 0.980 . S
H45 C18 0.983 . S
H46 C17 0.982 . S
H47 C17 0.979 . S
H48 C17 0.977 . S
H49 C19 0.948 . S
H50 C21 0.947 . S
H51 C22 0.948 . S
H52 C28 0.982 . S
H53 C28 0.979 . S
H54 C28 0.977 . S
H55 C29 0.979 . S
H56 C29 0.980 . S
H57 C29 0.983 . S
H58 C2 0.947 . S
C59 C2 1.392 . S
C59 C3 1.419 . S
C59 H41 0.948 . S
C60 C61 1.391 . S
C60 C64 1.391 . S
C60 H102 0.948 . S
C61 C60 1.391 . S
C61 C62 1.391 . S
C62 C61 1.391 . S
C62 H118 0.947 . S
C62 C119 1.392 . S
C63 C64 1.391 . S
C63 C67 1.397 . S
C63 C119 1.419 . S
C64 C60 1.391 . S
C64 C63 1.391 . S
C64 C65 1.399 . S
C65 C64 1.399 . S
C65 C68 1.396 . S
C65 C77 1.453 . S
C65 C78 1.684 . S
H66 C90 0.948 . S
C67 C63 1.397 . S
C67 C68 1.394 . S
C67 C86 1.723 . S
C68 C65 1.396 . S
C68 C67 1.394 . S
C68 C98 1.723 . S
H69 C92 0.947 . S
H70 C93 0.948 . S
H71 C99 0.982 . S
H72 C100 0.979 . S
H73 C100 0.980 . S
H74 C100 0.983 . S
H75 C99 0.979 . S
H76 C99 0.977 . S
C77 C65 1.453 . S
C77 H106 0.982 . S
C77 H107 0.979 . S
C77 H108 0.977 . S
C78 C65 1.684 . S
C78 H103 0.979 . S
C78 H104 0.980 . S
C78 H105 0.983 . S
C79 C80 1.391 . S
C79 C84 1.391 . S
C79 H109 0.948 . S
C80 C79 1.391 . S
C80 C81 1.391 . S
C81 C80 1.391 . S
C81 C82 1.392 . S
C81 H110 0.947 . S
C82 C81 1.392 . S
C82 C83 1.419 . S
C82 H111 0.948 . S
C83 C82 1.419 . S
C83 C84 1.391 . S
C83 C87 1.397 . S
C84 C79 1.391 . S
C84 C83 1.391 . S
C84 C85 1.399 . S
C85 C84 1.399 . S
C85 C86 1.396 . S
C85 C88 1.453 . S
C85 C89 1.684 . S
C86 C67 1.723 . S
C86 C85 1.396 . S
C86 C87 1.394 . S
C87 C83 1.397 . S
C87 C86 1.394 . S
C87 C97 1.723 . S
C88 C85 1.453 . S
C88 H112 0.982 . S
C88 H113 0.979 . S
C88 H114 0.977 . S
C89 C85 1.684 . S
C89 H115 0.979 . S
C89 H116 0.980 . S
C89 H117 0.983 . S
C90 H66 0.948 . S
C90 C91 1.391 . S
C90 C95 1.391 . S
C91 C90 1.391 . S
C91 C92 1.391 . S
C92 H69 0.947 . S
C92 C91 1.391 . S
C92 C93 1.392 . S
C93 H70 0.948 . S
C93 C92 1.392 . S
C93 C94 1.419 . S
C94 C93 1.419 . S
C94 C95 1.391 . S
C94 C98 1.397 . S
C95 C90 1.391 . S
C95 C94 1.391 . S
C95 C96 1.399 . S
C96 C95 1.399 . S
C96 C97 1.396 . S
C96 C99 1.453 . S
C96 C100 1.684 . S
C97 C87 1.723 . S
C97 C96 1.396 . S
C97 C98 1.394 . S
C98 C68 1.723 . S
C98 C94 1.397 . S
C98 C97 1.394 . S
C99 H71 0.982 . S
C99 H75 0.979 . S
C99 H76 0.977 . S
C99 C96 1.453 . S
C100 H72 0.979 . S
C100 H73 0.980 . S
C100 H74 0.983 . S
C100 C96 1.684 . S
H101 C119 0.948 . S
H102 C60 0.948 . S
H103 C78 0.979 . S
H104 C78 0.980 . S
H105 C78 0.983 . S
H106 C77 0.982 . S
H107 C77 0.979 . S
H108 C77 0.977 . S
H109 C79 0.948 . S
H110 C81 0.947 . S
H111 C82 0.948 . S
H112 C88 0.982 . S
H113 C88 0.979 . S
H114 C88 0.977 . S
H115 C89 0.979 . S
H116 C89 0.980 . S
H117 C89 0.983 . S
H118 C62 0.947 . S
C119 C62 1.392 . S
C119 C63 1.419 . S
C119 H101 0.948 . S
C120 C121 1.391 . S
C120 C124 1.391 . S
C120 H162 0.948 . S
C121 C120 1.391 . S
C121 C122 1.391 . S
C122 C121 1.391 . S
C122 H178 0.947 . S
C122 C179 1.392 . S
C123 C124 1.391 . S
C123 C127 1.397 . S
C123 C179 1.419 . S
C124 C120 1.391 . S
C124 C123 1.391 . S
C124 C125 1.399 . S
C125 C124 1.399 . S
C125 C128 1.396 . S
C125 C137 1.453 . S
C125 C138 1.684 . S
H126 C150 0.948 . S
C127 C123 1.397 . S
C127 C128 1.394 . S
C127 C146 1.723 . S
C128 C125 1.396 . S
C128 C127 1.394 . S
C128 C158 1.723 . S
H129 C152 0.947 . S
H130 C153 0.948 . S
H131 C159 0.982 . S
H132 C160 0.979 . S
H133 C160 0.980 . S
H134 C160 0.983 . S
H135 C159 0.979 . S
H136 C159 0.977 . S
C137 C125 1.453 . S
C137 H166 0.982 . S
C137 H167 0.979 . S
C137 H168 0.977 . S
C138 C125 1.684 . S
C138 H163 0.979 . S
C138 H164 0.980 . S
C138 H165 0.983 . S
C139 C140 1.391 . S
C139 C144 1.391 . S
C139 H169 0.948 . S
C140 C139 1.391 . S
C140 C141 1.391 . S
C141 C140 1.391 . S
C141 C142 1.392 . S
C141 H170 0.947 . S
C142 C141 1.392 . S
C142 C143 1.419 . S
C142 H171 0.948 . S
C143 C142 1.419 . S
C143 C144 1.391 . S
C143 C147 1.397 . S
C144 C139 1.391 . S
C144 C143 1.391 . S
C144 C145 1.399 . S
C145 C144 1.399 . S
C145 C146 1.396 . S
C145 C148 1.453 . S
C145 C149 1.684 . S
C146 C127 1.723 . S
C146 C145 1.396 . S
C146 C147 1.394 . S
C147 C143 1.397 . S
C147 C146 1.394 . S
C147 C157 1.723 . S
C148 C145 1.453 . S
C148 H172 0.982 . S
C148 H173 0.979 . S
C148 H174 0.977 . S
C149 C145 1.684 . S
C149 H175 0.979 . S
C149 H176 0.980 . S
C149 H177 0.983 . S
C150 H126 0.948 . S
C150 C151 1.391 . S
C150 C155 1.391 . S
C151 C150 1.391 . S
C151 C152 1.391 . S
C152 H129 0.947 . S
C152 C151 1.391 . S
C152 C153 1.392 . S
C153 H130 0.948 . S
C153 C152 1.392 . S
C153 C154 1.419 . S
C154 C153 1.419 . S
C154 C155 1.391 . S
C154 C158 1.397 . S
C155 C150 1.391 . S
C155 C154 1.391 . S
C155 C156 1.399 . S
C156 C155 1.399 . S
C156 C157 1.396 . S
C156 C159 1.453 . S
C156 C160 1.684 . S
C157 C147 1.723 . S
C157 C156 1.396 . S
C157 C158 1.394 . S
C158 C128 1.723 . S
C158 C154 1.397 . S
C158 C157 1.394 . S
C159 H131 0.982 . S
C159 H135 0.979 . S
C159 H136 0.977 . S
C159 C156 1.453 . S
C160 H132 0.979 . S
C160 H133 0.980 . S
C160 H134 0.983 . S
C160 C156 1.684 . S
H161 C179 0.948 . S
H162 C120 0.948 . S
H163 C138 0.979 . S
H164 C138 0.980 . S
H165 C138 0.983 . S
H166 C137 0.982 . S
H167 C137 0.979 . S
H168 C137 0.977 . S
H169 C139 0.948 . S
H170 C141 0.947 . S
H171 C142 0.948 . S
H172 C148 0.982 . S
H173 C148 0.979 . S
H174 C148 0.977 . S
H175 C149 0.979 . S
H176 C149 0.980 . S
H177 C149 0.983 . S
H178 C122 0.947 . S
C179 C122 1.392 . S
C179 C123 1.419 . S
C179 H161 0.948 . S
C180 C181 1.391 . S
C180 C184 1.391 . S
C180 H222 0.948 . S
C181 C180 1.391 . S
C181 C182 1.391 . S
C182 C181 1.391 . S
C182 H238 0.947 . S
C182 C239 1.392 . S
C183 C184 1.391 . S
C183 C187 1.397 . S
C183 C239 1.419 . S
C184 C180 1.391 . S
C184 C183 1.391 . S
C184 C185 1.399 . S
C185 C184 1.399 . S
C185 C188 1.396 . S
C185 C197 1.453 . S
C185 C198 1.684 . S
H186 C210 0.948 . S
C187 C183 1.397 . S
C187 C188 1.394 . S
C187 C206 1.723 . S
C188 C185 1.396 . S
C188 C187 1.394 . S
C188 C218 1.723 . S
H189 C212 0.947 . S
H190 C213 0.948 . S
H191 C219 0.982 . S
H192 C220 0.979 . S
H193 C220 0.980 . S
H194 C220 0.983 . S
H195 C219 0.979 . S
H196 C219 0.977 . S
C197 C185 1.453 . S
C197 H226 0.982 . S
C197 H227 0.979 . S
C197 H228 0.977 . S
C198 C185 1.684 . S
C198 H223 0.979 . S
C198 H224 0.980 . S
C198 H225 0.983 . S
C199 C200 1.391 . S
C199 C204 1.391 . S
C199 H229 0.948 . S
C200 C199 1.391 . S
C200 C201 1.391 . S
C201 C200 1.391 . S
C201 C202 1.392 . S
C201 H230 0.947 . S
C202 C201 1.392 . S
C202 C203 1.419 . S
C202 H231 0.948 . S
C203 C202 1.419 . S
C203 C204 1.391 . S
C203 C207 1.397 . S
C204 C199 1.391 . S
C204 C203 1.391 . S
C204 C205 1.399 . S
C205 C204 1.399 . S
C205 C206 1.396 . S
C205 C208 1.453 . S
C205 C209 1.684 . S
C206 C187 1.723 . S
C206 C205 1.396 . S
C206 C207 1.394 . S
C207 C203 1.397 . S
C207 C206 1.394 . S
C207 C217 1.723 . S
C208 C205 1.453 . S
C208 H232 0.982 . S
C208 H233 0.979 . S
C208 H234 0.977 . S
C209 C205 1.684 . S
C209 H235 0.979 . S
C209 H236 0.980 . S
C209 H237 0.983 . S
C210 H186 0.948 . S
C210 C211 1.391 . S
C210 C215 1.391 . S
C211 C210 1.391 . S
C211 C212 1.391 . S
C212 H189 0.947 . S
C212 C211 1.391 . S
C212 C213 1.392 . S
C213 H190 0.948 . S
C213 C212 1.392 . S
C213 C214 1.419 . S
C214 C213 1.419 . S
C214 C215 1.391 . S
C214 C218 1.397 . S
C215 C210 1.391 . S
C215 C214 1.391 . S
C215 C216 1.399 . S
C216 C215 1.399 . S
C216 C217 1.396 . S
C216 C219 1.453 . S
C216 C220 1.684 . S
C217 C207 1.723 . S
C217 C216 1.396 . S
C217 C218 1.394 . S
C218 C188 1.723 . S
C218 C214 1.397 . S
C218 C217 1.394 . S
C219 H191 0.982 . S
C219 H195 0.979 . S
C219 H196 0.977 . S
C219 C216 1.453 . S
C220 H192 0.979 . S
C220 H193 0.980 . S
C220 H194 0.983 . S
C220 C216 1.684 . S
H221 C239 0.948 . S
H222 C180 0.948 . S
H223 C198 0.979 . S
H224 C198 0.980 . S
H225 C198 0.983 . S
H226 C197 0.982 . S
H227 C197 0.979 . S
H228 C197 0.977 . S
H229 C199 0.948 . S
H230 C201 0.947 . S
H231 C202 0.948 . S
H232 C208 0.982 . S
H233 C208 0.979 . S
H234 C208 0.977 . S
H235 C209 0.979 . S
H236 C209 0.980 . S
H237 C209 0.983 . S
H238 C182 0.947 . S
C239 C182 1.392 . S
C239 C183 1.419 . S
C239 H221 0.948 . S
C240 C241 1.391 . S
C240 C244 1.391 . S
C240 H282 0.948 . S
C241 C240 1.391 . S
C241 C242 1.391 . S
C242 C241 1.391 . S
C242 H298 0.947 . S
C242 C299 1.392 . S
C243 C244 1.391 . S
C243 C247 1.397 . S
C243 C299 1.419 . S
C244 C240 1.391 . S
C244 C243 1.391 . S
C244 C245 1.399 . S
C245 C244 1.399 . S
C245 C248 1.396 . S
C245 C257 1.453 . S
C245 C258 1.684 . S
H246 C270 0.948 . S
C247 C243 1.397 . S
C247 C248 1.394 . S
C247 C266 1.723 . S
C248 C245 1.396 . S
C248 C247 1.394 . S
C248 C278 1.723 . S
H249 C272 0.947 . S
H250 C273 0.948 . S
H251 C279 0.982 . S
H252 C280 0.979 . S
H253 C280 0.980 . S
H254 C280 0.983 . S
H255 C279 0.979 . S
H256 C279 0.977 . S
C257 C245 1.453 . S
C257 H286 0.982 . S
C257 H287 0.979 . S
C257 H288 0.977 . S
C258 C245 1.684 . S
C258 H283 0.979 . S
C258 H284 0.980 . S
C258 H285 0.983 . S
C259 C260 1.391 . S
C259 C264 1.391 . S
C259 H289 0.948 . S
C260 C259 1.391 . S
C260 C261 1.391 . S
C261 C260 1.391 . S
C261 C262 1.392 . S
C261 H290 0.947 . S
C262 C261 1.392 . S
C262 C263 1.419 . S
C262 H291 0.948 . S
C263 C262 1.419 . S
C263 C264 1.391 . S
C263 C267 1.397 . S
C264 C259 1.391 . S
C264 C263 1.391 . S
C264 C265 1.399 . S
C265 C264 1.399 . S
C265 C266 1.396 . S
C265 C268 1.453 . S
C265 C269 1.684 . S
C266 C247 1.723 . S
C266 C265 1.396 . S
C266 C267 1.394 . S
C267 C263 1.397 . S
C267 C266 1.394 . S
C267 C277 1.723 . S
C268 C265 1.453 . S
C268 H292 0.982 . S
C268 H293 0.979 . S
C268 H294 0.977 . S
C269 C265 1.684 . S
C269 H295 0.979 . S
C269 H296 0.980 . S
C269 H297 0.983 . S
C270 H246 0.948 . S
C270 C271 1.391 . S
C270 C275 1.391 . S
C271 C270 1.391 . S
C271 C272 1.391 . S
C272 H249 0.947 . S
C272 C271 1.391 . S
C272 C273 1.392 . S
C273 H250 0.948 . S
C273 C272 1.392 . S
C273 C274 1.419 . S
C274 C273 1.419 . S
C274 C275 1.391 . S
C274 C278 1.397 . S
C275 C270 1.391 . S
C275 C274 1.391 . S
C275 C276 1.399 . S
C276 C275 1.399 . S
C276 C277 1.396 . S
C276 C279 1.453 . S
C276 C280 1.684 . S
C277 C267 1.723 . S
C277 C276 1.396 . S
C277 C278 1.394 . S
C278 C248 1.723 . S
C278 C274 1.397 . S
C278 C277 1.394 . S
C279 H251 0.982 . S
C279 H255 0.979 . S
C279 H256 0.977 . S
C279 C276 1.453 . S
C280 H252 0.979 . S
C280 H253 0.980 . S
C280 H254 0.983 . S
C280 C276 1.684 . S
H281 C299 0.948 . S
H282 C240 0.948 . S
H283 C258 0.979 . S
H284 C258 0.980 . S
H285 C258 0.983 . S
H286 C257 0.982 . S
H287 C257 0.979 . S
H288 C257 0.977 . S
H289 C259 0.948 . S
H290 C261 0.947 . S
H291 C262 0.948 . S
H292 C268 0.982 . S
H293 C268 0.979 . S
H294 C268 0.977 . S
H295 C269 0.979 . S
H296 C269 0.980 . S
H297 C269 0.983 . S
H298 C242 0.947 . S
C299 C242 1.392 . S
C299 C243 1.419 . S
C299 H281 0.948 . S
C300 C301 1.391 . S
C300 C304 1.391 . S
C300 H342 0.948 . S
C301 C300 1.391 . S
C301 C302 1.391 . S
C302 C301 1.391 . S
C302 H358 0.947 . S
C302 C359 1.392 . S
C303 C304 1.391 . S
C303 C307 1.397 . S
C303 C359 1.419 . S
C304 C300 1.391 . S
C304 C303 1.391 . S
C304 C305 1.399 . S
C305 C304 1.399 . S
C305 C308 1.396 . S
C305 C317 1.453 . S
C305 C318 1.684 . S
H306 C330 0.948 . S
C307 C303 1.397 . S
C307 C308 1.394 . S
C307 C326 1.723 . S
C308 C305 1.396 . S
C308 C307 1.394 . S
C308 C338 1.723 . S
H309 C332 0.947 . S
H310 C333 0.948 . S
H311 C339 0.982 . S
H312 C340 0.979 . S
H313 C340 0.980 . S
H314 C340 0.983 . S
H315 C339 0.979 . S
H316 C339 0.977 . S
C317 C305 1.453 . S
C317 H346 0.982 . S
C317 H347 0.979 . S
C317 H348 0.977 . S
C318 C305 1.684 . S
C318 H343 0.979 . S
C318 H344 0.980 . S
C318 H345 0.983 . S
C319 C320 1.391 . S
C319 C324 1.391 . S
C319 H349 0.948 . S
C320 C319 1.391 . S
C320 C321 1.391 . S
C321 C320 1.391 . S
C321 C322 1.392 . S
C321 H350 0.947 . S
C322 C321 1.392 . S
C322 C323 1.419 . S
C322 H351 0.948 . S
C323 C322 1.419 . S
C323 C324 1.391 . S
C323 C327 1.397 . S
C324 C319 1.391 . S
C324 C323 1.391 . S
C324 C325 1.399 . S
C325 C324 1.399 . S
C325 C326 1.396 . S
C325 C328 1.453 . S
C325 C329 1.684 . S
C326 C307 1.723 . S
C326 C325 1.396 . S
C326 C327 1.394 . S
C327 C323 1.397 . S
C327 C326 1.394 . S
C327 C337 1.723 . S
C328 C325 1.453 . S
C328 H352 0.982 . S
C328 H353 0.979 . S
C328 H354 0.977 . S
C329 C325 1.684 . S
C329 H355 0.979 . S
C329 H356 0.980 . S
C329 H357 0.983 . S
C330 H306 0.948 . S
C330 C331 1.391 . S
C330 C335 1.391 . S
C331 C330 1.391 . S
C331 C332 1.391 . S
C332 H309 0.947 . S
C332 C331 1.391 . S
C332 C333 1.392 . S
C333 H310 0.948 . S
C333 C332 1.392 . S
C333 C334 1.419 . S
C334 C333 1.419 . S
C334 C335 1.391 . S
C334 C338 1.397 . S
C335 C330 1.391 . S
C335 C334 1.391 . S
C335 C336 1.399 . S
C336 C335 1.399 . S
C336 C337 1.396 . S
C336 C339 1.453 . S
C336 C340 1.684 . S
C337 C327 1.723 . S
C337 C336 1.396 . S
C337 C338 1.394 . S
C338 C308 1.723 . S
C338 C334 1.397 . S
C338 C337 1.394 . S
C339 H311 0.982 . S
C339 H315 0.979 . S
C339 H316 0.977 . S
C339 C336 1.453 . S
C340 H312 0.979 . S
C340 H313 0.980 . S
C340 H314 0.983 . S
C340 C336 1.684 . S
H341 C359 0.948 . S
H342 C300 0.948 . S
H343 C318 0.979 . S
H344 C318 0.980 . S
H345 C318 0.983 . S
H346 C317 0.982 . S
H347 C317 0.979 . S
H348 C317 0.977 . S
H349 C319 0.948 . S
H350 C321 0.947 . S
H351 C322 0.948 . S
H352 C328 0.982 . S
H353 C328 0.979 . S
H354 C328 0.977 . S
H355 C329 0.979 . S
H356 C329 0.980 . S
H357 C329 0.983 . S
H358 C302 0.947 . S
C359 C302 1.392 . S
C359 C303 1.419 . S
C359 H341 0.948 . S
C360 C361 1.391 . S
C360 C364 1.391 . S
C360 H402 0.948 . S
C361 C360 1.391 . S
C361 C362 1.391 . S
C362 C361 1.391 . S
C362 H418 0.947 . S
C362 C419 1.392 . S
C363 C364 1.391 . S
C363 C367 1.397 . S
C363 C419 1.419 . S
C364 C360 1.391 . S
C364 C363 1.391 . S
C364 C365 1.399 . S
C365 C364 1.399 . S
C365 C368 1.396 . S
C365 C377 1.453 . S
C365 C378 1.684 . S
H366 C390 0.948 . S
C367 C363 1.397 . S
C367 C368 1.394 . S
C367 C386 1.723 . S
C368 C365 1.396 . S
C368 C367 1.394 . S
C368 C398 1.723 . S
H369 C392 0.947 . S
H370 C393 0.948 . S
H371 C399 0.982 . S
H372 C400 0.979 . S
H373 C400 0.980 . S
H374 C400 0.983 . S
H375 C399 0.979 . S
H376 C399 0.977 . S
C377 C365 1.453 . S
C377 H406 0.982 . S
C377 H407 0.979 . S
C377 H408 0.977 . S
C378 C365 1.684 . S
C378 H403 0.979 . S
C378 H404 0.980 . S
C378 H405 0.983 . S
C379 C380 1.391 . S
C379 C384 1.391 . S
C379 H409 0.948 . S
C380 C379 1.391 . S
C380 C381 1.391 . S
C381 C380 1.391 . S
C381 C382 1.392 . S
C381 H410 0.947 . S
C382 C381 1.392 . S
C382 C383 1.419 . S
C382 H411 0.948 . S
C383 C382 1.419 . S
C383 C384 1.391 . S
C383 C387 1.397 . S
C384 C379 1.391 . S
C384 C383 1.391 . S
C384 C385 1.399 . S
C385 C384 1.399 . S
C385 C386 1.396 . S
C385 C388 1.453 . S
C385 C389 1.684 . S
C386 C367 1.723 . S
C386 C385 1.396 . S
C386 C387 1.394 . S
C387 C383 1.397 . S
C387 C386 1.394 . S
C387 C397 1.723 . S
C388 C385 1.453 . S
C388 H412 0.982 . S
C388 H413 0.979 . S
C388 H414 0.977 . S
C389 C385 1.684 . S
C389 H415 0.979 . S
C389 H416 0.980 . S
C389 H417 0.983 . S
C390 H366 0.948 . S
C390 C391 1.391 . S
C390 C395 1.391 . S
C391 C390 1.391 . S
C391 C392 1.391 . S
C392 H369 0.947 . S
C392 C391 1.391 . S
C392 C393 1.392 . S
C393 H370 0.948 . S
C393 C392 1.392 . S
C393 C394 1.419 . S
C394 C393 1.419 . S
C394 C395 1.391 . S
C394 C398 1.397 . S
C395 C390 1.391 . S
C395 C394 1.391 . S
C395 C396 1.399 . S
C396 C395 1.399 . S
C396 C397 1.396 . S
C396 C399 1.453 . S
C396 C400 1.684 . S
C397 C387 1.723 . S
C397 C396 1.396 . S
C397 C398 1.394 . S
C398 C368 1.723 . S
C398 C394 1.397 . S
C398 C397 1.394 . S
C399 H371 0.982 . S
C399 H375 0.979 . S
C399 H376 0.977 . S
C399 C396 1.453 . S
C400 H372 0.979 . S
C400 H373 0.980 . S
C400 H374 0.983 . S
C400 C396 1.684 . S
H401 C419 0.948 . S
H402 C360 0.948 . S
H403 C378 0.979 . S
H404 C378 0.980 . S
H405 C378 0.983 . S
H406 C377 0.982 . S
H407 C377 0.979 . S
H408 C377 0.977 . S
H409 C379 0.948 . S
H410 C381 0.947 . S
H411 C382 0.948 . S
H412 C388 0.982 . S
H413 C388 0.979 . S
H414 C388 0.977 . S
H415 C389 0.979 . S
H416 C389 0.980 . S
H417 C389 0.983 . S
H418 C362 0.947 . S
C419 C362 1.392 . S
C419 C363 1.419 . S
C419 H401 0.948 . S
C420 C421 1.391 . S
C420 C424 1.391 . S
C420 H462 0.948 . S
C421 C420 1.391 . S
C421 C422 1.391 . S
C422 C421 1.391 . S
C422 H478 0.947 . S
C422 C479 1.392 . S
C423 C424 1.391 . S
C423 C427 1.397 . S
C423 C479 1.419 . S
C424 C420 1.391 . S
C424 C423 1.391 . S
C424 C425 1.399 . S
C425 C424 1.399 . S
C425 C428 1.396 . S
C425 C437 1.453 . S
C425 C438 1.684 . S
H426 C450 0.948 . S
C427 C423 1.397 . S
C427 C428 1.394 . S
C427 C446 1.723 . S
C428 C425 1.396 . S
C428 C427 1.394 . S
C428 C458 1.723 . S
H429 C452 0.947 . S
H430 C453 0.948 . S
H431 C459 0.982 . S
H432 C460 0.979 . S
H433 C460 0.980 . S
H434 C460 0.983 . S
H435 C459 0.979 . S
H436 C459 0.977 . S
C437 C425 1.453 . S
C437 H466 0.982 . S
C437 H467 0.979 . S
C437 H468 0.977 . S
C438 C425 1.684 . S
C438 H463 0.979 . S
C438 H464 0.980 . S
C438 H465 0.983 . S
C439 C440 1.391 . S
C439 C444 1.391 . S
C439 H469 0.948 . S
C440 C439 1.391 . S
C440 C441 1.391 . S
C441 C440 1.391 . S
C441 C442 1.392 . S
C441 H470 0.947 . S
C442 C441 1.392 . S
C442 C443 1.419 . S
C442 H471 0.948 . S
C443 C442 1.419 . S
C443 C444 1.391 . S
C443 C447 1.397 . S
C444 C439 1.391 . S
C444 C443 1.391 . S
C444 C445 1.399 . S
C445 C444 1.399 . S
C445 C446 1.396 . S
C445 C448 1.453 . S
C445 C449 1.684 . S
C446 C427 1.723 . S
C446 C445 1.396 . S
C446 C447 1.394 . S
C447 C443 1.397 . S
C447 C446 1.394 . S
C447 C457 1.723 . S
C448 C445 1.453 . S
C448 H472 0.982 . S
C448 H473 0.979 . S
C448 H474 0.977 . S
C449 C445 1.684 . S
C449 H475 0.979 . S
C449 H476 0.980 . S
C449 H477 0.983 . S
C450 H426 0.948 . S
C450 C451 1.391 . S
C450 C455 1.391 . S
C451 C450 1.391 . S
C451 C452 1.391 . S
C452 H429 0.947 . S
C452 C451 1.391 . S
C452 C453 1.392 . S
C453 H430 0.948 . S
C453 C452 1.392 . S
C453 C454 1.419 . S
C454 C453 1.419 . S
C454 C455 1.391 . S
C454 C458 1.397 . S
C455 C450 1.391 . S
C455 C454 1.391 . S
C455 C456 1.399 . S
C456 C455 1.399 . S
C456 C457 1.396 . S
C456 C459 1.453 . S
C456 C460 1.684 . S
C457 C447 1.723 . S
C457 C456 1.396 . S
C457 C458 1.394 . S
C458 C428 1.723 . S
C458 C454 1.397 . S
C458 C457 1.394 . S
C459 H431 0.982 . S
C459 H435 0.979 . S
C459 H436 0.977 . S
C459 C456 1.453 . S
C460 H432 0.979 . S
C460 H433 0.980 . S
C460 H434 0.983 . S
C460 C456 1.684 . S
H461 C479 0.948 . S
H462 C420 0.948 . S
H463 C438 0.979 . S
H464 C438 0.980 . S
H465 C438 0.983 . S
H466 C437 0.982 . S
H467 C437 0.979 . S
H468 C437 0.977 . S
H469 C439 0.948 . S
H470 C441 0.947 . S
H471 C442 0.948 . S
H472 C448 0.982 . S
H473 C448 0.979 . S
H474 C448 0.977 . S
H475 C449 0.979 . S
H476 C449 0.980 . S
H477 C449 0.983 . S
H478 C422 0.947 . S
C479 C422 1.392 . S
C479 C423 1.419 . S
C479 H461 0.948 . S
O480 Mg481 1.990 . S
O480 C494 1.253 1_445 S
Mg481 O480 1.990 . S
Mg481 O484 2.180 . S
Mg481 O485 2.117 . S
Mg481 O499 2.030 1_545 S
O482 Mg483 2.072 1_665 S
O482 C494 1.260 . S
Mg483 O482 2.072 1_445 S
Mg483 O484 2.099 . S
Mg483 O486 2.079 . S
Mg483 O487 2.072 1_455 S
Mg483 O489 2.099 1_445 S
Mg483 O500 2.079 1_545 S
O484 Mg481 2.180 . S
O484 Mg483 2.099 . S
O484 C495 1.279 . S
O485 Mg481 2.117 . S
O485 C495 1.250 . S
O486 Mg483 2.079 . S
O486 C496 1.264 . S
O487 Mg483 2.072 1_655 S
O487 C497 1.260 . S
Mg488 O489 2.180 . S
Mg488 O490 2.030 1_565 S
Mg488 O491 1.990 1_565 S
Mg488 O492 2.117 . S
O489 Mg483 2.099 1_665 S
O489 Mg488 2.180 . S
O489 C498 1.279 . S
O490 Mg488 2.030 1_545 S
O490 C496 1.248 1_655 S
O491 Mg488 1.990 1_545 S
O491 C497 1.253 . S
O492 Mg488 2.117 . S
O492 C498 1.250 . S
C493 O499 1.248 . S
C493 O500 1.264 . S
C494 O480 1.253 1_665 S
C494 O482 1.260 . S
C495 O484 1.279 . S
C495 O485 1.250 . S
C496 O486 1.264 . S
C496 O490 1.248 1_455 S
C497 O487 1.260 . S
C497 O491 1.253 . S
C498 O489 1.279 . S
C498 O492 1.250 . S
O499 Mg481 2.030 1_565 S
O499 C493 1.248 . S
O500 Mg483 2.079 1_565 S
O500 C493 1.264 . S
O501 Mg502 1.990 . S
O501 C515 1.253 . S
Mg502 O501 1.990 . S
Mg502 O505 2.170 1_554 S
Mg502 O506 2.117 1_554 S
Mg502 O520 2.030 . S
O503 Mg504 2.072 . S
O503 C515 1.260 . S
Mg504 O503 2.072 . S
Mg504 O505 2.096 1_554 S
Mg504 O507 2.090 1_554 S
Mg504 O508 2.072 1_554 S
Mg504 O510 2.099 1_545 S
Mg504 O521 2.079 . S
O505 Mg502 2.170 1_556 S
O505 Mg504 2.096 1_556 S
O505 C516 1.289 . S
O506 Mg502 2.117 1_556 S
O506 C516 1.250 . S
O507 Mg504 2.090 1_556 S
O507 C517 1.238 1_545 S
O508 Mg504 2.072 1_556 S
O508 C518 1.260 1_545 S
Mg509 O510 2.180 1_556 S
Mg509 O511 2.030 . S
Mg509 O512 1.990 . S
Mg509 O513 2.117 1_556 S
O510 Mg504 2.099 1_565 S
O510 Mg509 2.180 1_554 S
O510 C519 1.279 . S
O511 Mg509 2.030 . S
O511 C517 1.248 . S
O512 Mg509 1.990 . S
O512 C518 1.253 . S
O513 Mg509 2.117 1_554 S
O513 C519 1.250 . S
C514 O520 1.248 . S
C514 O521 1.264 . S
C515 O501 1.253 . S
C515 O503 1.260 . S
C516 O505 1.289 . S
C516 O506 1.250 . S
C517 O507 1.238 1_565 S
C517 O511 1.248 . S
C518 O508 1.260 1_565 S
C518 O512 1.253 . S
C519 O510 1.279 . S
C519 O513 1.250 . S
O520 Mg502 2.030 . S
O520 C514 1.248 . S
O521 Mg504 2.079 . S
O521 C514 1.264 . S
O522 Mg523 1.990 . S
O522 C536 1.253 . S
Mg523 O522 1.990 . S
Mg523 O526 2.180 . S
Mg523 O527 2.117 . S
Mg523 O541 2.030 . S
O524 Mg525 2.072 . S
O524 C536 1.260 . S
Mg525 O524 2.072 . S
Mg525 O526 2.099 . S
Mg525 O528 2.079 . S
Mg525 O529 2.072 . S
Mg525 O531 2.099 . S
Mg525 O542 2.079 . S
O526 Mg523 2.180 . S
O526 Mg525 2.099 . S
O526 C537 1.279 . S
O527 Mg523 2.117 . S
O527 C537 1.250 . S
O528 Mg525 2.079 . S
O528 C538 1.264 . S
O529 Mg525 2.072 . S
O529 C539 1.260 . S
Mg530 O531 2.180 . S
Mg530 O532 2.030 . S
Mg530 O533 1.990 . S
Mg530 O534 2.117 . S
O531 Mg525 2.099 . S
O531 Mg530 2.180 . S
O531 C540 1.279 . S
O532 Mg530 2.030 . S
O532 C538 1.248 . S
O533 Mg530 1.990 . S
O533 C539 1.253 . S
O534 Mg530 2.117 . S
O534 C540 1.250 . S
C535 O541 1.248 . S
C535 O542 1.264 . S
C536 O522 1.253 . S
C536 O524 1.260 . S
C537 O526 1.279 . S
C537 O527 1.250 . S
C538 O528 1.264 . S
C538 O532 1.248 . S
C539 O529 1.260 . S
C539 O533 1.253 . S
C540 O531 1.279 . S
C540 O534 1.250 . S
O541 Mg523 2.030 . S
O541 C535 1.248 . S
O542 Mg525 2.079 . S
O542 C535 1.264 . S
O543 Mg544 1.990 . S
O543 C557 1.253 . S
Mg544 O543 1.990 . S
Mg544 O547 2.180 1_455 S
Mg544 O548 2.117 1_455 S
Mg544 O562 2.030 . S
O545 Mg546 2.072 . S
O545 C557 1.260 . S
Mg546 O545 2.072 . S
Mg546 O547 2.099 1_455 S
Mg546 O549 2.079 1_454 S
Mg546 O550 2.072 1_455 S
Mg546 O552 2.099 1_554 S
Mg546 O563 2.079 . S
O547 Mg544 2.180 1_655 S
O547 Mg546 2.099 1_655 S
O547 C558 1.279 . S
O548 Mg544 2.117 1_655 S
O548 C558 1.250 . S
O549 Mg546 2.079 1_656 S
O549 C559 1.264 . S
O550 Mg546 2.072 1_655 S
O550 C560 1.260 1_554 S
Mg551 O552 2.180 1_655 S
Mg551 O553 2.030 . S
Mg551 O554 1.990 . S
Mg551 O555 2.117 . S
O552 Mg546 2.099 1_556 S
O552 Mg551 2.180 1_455 S
O552 C561 1.279 . S
O553 Mg551 2.030 . S
O553 C559 1.248 . S
O554 Mg551 1.990 . S
O554 C560 1.253 . S
O555 Mg551 2.117 . S
O555 C561 1.250 1_655 S
C556 O562 1.248 . S
C556 O563 1.264 . S
C557 O543 1.253 . S
C557 O545 1.260 . S
C558 O547 1.279 . S
C558 O548 1.250 . S
C559 O549 1.264 . S
C559 O553 1.248 . S
C560 O550 1.260 1_556 S
C560 O554 1.253 . S
C561 O552 1.279 . S
C561 O555 1.250 1_455 S
O562 Mg544 2.030 . S
O562 C556 1.248 . S
O563 Mg546 2.079 . S
O563 C556 1.264 . S
C564 C565 1.391 . S
C564 C566 1.394 . S
C564 H580 0.931 . S
C565 C564 1.391 . S
C565 C569 1.376 . S
C566 C564 1.394 . S
C566 C567 1.369 . S
C566 C570 1.531 . S
C567 C566 1.369 . S
C567 C568 1.410 . S
C567 C575 1.503 . S
C568 C567 1.410 . S
C568 C569 1.392 . S
C568 C571 1.511 . S
C569 C565 1.376 . S
C569 C568 1.392 . S
C569 H581 0.929 . S
C570 C566 1.531 . S
C570 H582 0.960 . S
C570 H583 0.962 . S
C570 H584 0.960 . S
C571 C568 1.511 . S
C571 H585 0.961 . S
C571 H586 0.961 . S
C571 H587 0.926 1_455 S
C572 C573 1.370 . S
C572 C574 1.363 . S
C572 H588 0.931 . S
C573 C572 1.370 . S
C573 C577 1.408 . S
C574 C572 1.363 . S
C574 C575 1.370 . S
C574 C578 1.524 . S
C575 C567 1.503 . S
C575 C574 1.370 . S
C575 C576 1.403 . S
C576 C575 1.403 . S
C576 C577 1.404 . S
C576 C579 1.539 . S
C577 C573 1.408 . S
C577 C576 1.404 . S
C577 H589 0.930 . S
C578 C574 1.524 . S
C578 H590 0.956 . S
C578 H591 0.961 . S
C578 H592 0.961 1_545 S
C579 C576 1.539 . S
C579 H593 0.958 . S
C579 H594 0.961 1_455 S
C579 H595 0.960 . S
H580 C564 0.931 . S
H581 C569 0.929 . S
H582 C570 0.960 . S
H583 C570 0.962 . S
H584 C570 0.960 . S
H585 C571 0.961 . S
H586 C571 0.961 . S
H587 C571 0.926 1_655 S
H588 C572 0.931 . S
H589 C577 0.930 . S
H590 C578 0.956 . S
H591 C578 0.961 . S
H592 C578 0.961 1_565 S
H593 C579 0.958 . S
H594 C579 0.961 1_655 S
H595 C579 0.960 . S
C596 C597 1.391 . S
C596 C598 1.394 . S
C596 H612 0.931 . S
C597 C596 1.391 . S
C597 C601 1.376 . S
C598 C596 1.394 . S
C598 C599 1.369 . S
C598 C602 1.531 . S
C599 C598 1.369 . S
C599 C600 1.410 . S
C599 C607 1.503 . S
C600 C599 1.410 . S
C600 C601 1.392 . S
C600 C603 1.511 . S
C601 C597 1.376 . S
C601 C600 1.392 . S
C601 H613 0.929 . S
C602 C598 1.531 . S
C602 H614 0.960 1_565 S
C602 H615 0.962 . S
C602 H616 0.960 1_565 S
C603 C600 1.511 . S
C603 H617 0.961 . S
C603 H618 0.961 . S
C603 H619 0.961 . S
C604 C605 1.370 . S
C604 C606 1.363 . S
C604 H620 0.931 . S
C605 C604 1.370 . S
C605 C609 1.408 1_565 S
C606 C604 1.363 . S
C606 C607 1.370 . S
C606 C610 1.524 . S
C607 C599 1.503 . S
C607 C606 1.370 . S
C607 C608 1.399 1_565 S
C608 C607 1.399 1_545 S
C608 C609 1.404 . S
C608 C611 1.542 . S
C609 C605 1.408 1_545 S
C609 C608 1.404 . S
C609 H621 0.930 . S
C610 C606 1.524 . S
C610 H622 0.956 . S
C610 H623 0.961 . S
C610 H624 0.961 . S
C611 C608 1.542 . S
C611 H625 0.958 . S
C611 H626 0.961 . S
C611 H627 0.960 . S
H612 C596 0.931 . S
H613 C601 0.929 . S
H614 C602 0.960 1_545 S
H615 C602 0.962 . S
H616 C602 0.960 1_545 S
H617 C603 0.961 . S
H618 C603 0.961 . S
H619 C603 0.961 . S
H620 C604 0.931 . S
H621 C609 0.930 . S
H622 C610 0.956 . S
H623 C610 0.961 . S
H624 C610 0.961 . S
H625 C611 0.958 . S
H626 C611 0.961 . S
H627 C611 0.960 . S
C628 C629 1.391 . S
C628 C630 1.394 . S
C628 H644 0.931 . S
C629 C628 1.391 . S
C629 C633 1.376 . S
C630 C628 1.394 . S
C630 C631 1.369 . S
C630 C634 1.531 . S
C631 C630 1.369 . S
C631 C632 1.410 . S
C631 C639 1.503 . S
C632 C631 1.410 . S
C632 C633 1.392 . S
C632 C635 1.511 . S
C633 C629 1.376 . S
C633 C632 1.392 . S
C633 H645 0.929 . S
C634 C630 1.531 . S
C634 H646 0.960 . S
C634 H647 0.962 . S
C634 H648 0.960 . S
C635 C632 1.511 . S
C635 H649 0.961 . S
C635 H650 0.961 . S
C635 H651 0.961 . S
C636 C637 1.370 . S
C636 C638 1.363 . S
C636 H652 0.931 . S
C637 C636 1.370 . S
C637 C641 1.408 . S
C638 C636 1.363 . S
C638 C639 1.370 . S
C638 C642 1.524 . S
C639 C631 1.503 . S
C639 C638 1.370 . S
C639 C640 1.403 . S
C640 C639 1.403 . S
C640 C641 1.404 . S
C640 C643 1.539 . S
C641 C637 1.408 . S
C641 C640 1.404 . S
C641 H653 0.930 . S
C642 C638 1.524 . S
C642 H654 0.956 . S
C642 H655 0.961 . S
C642 H656 0.961 . S
C643 C640 1.539 . S
C643 H657 0.958 . S
C643 H658 0.961 . S
C643 H659 0.960 . S
H644 C628 0.931 . S
H645 C633 0.929 . S
H646 C634 0.960 . S
H647 C634 0.962 . S
H648 C634 0.960 . S
H649 C635 0.961 . S
H650 C635 0.961 . S
H651 C635 0.961 . S
H652 C636 0.931 . S
H653 C641 0.930 . S
H654 C642 0.956 . S
H655 C642 0.961 . S
H656 C642 0.961 . S
H657 C643 0.958 . S
H658 C643 0.961 . S
H659 C643 0.960 . S
C660 C661 1.391 . S
C660 C662 1.394 . S
C660 H676 0.931 . S
C661 C660 1.391 . S
C661 C665 1.376 . S
C662 C660 1.394 . S
C662 C663 1.369 . S
C662 C666 1.531 . S
C663 C662 1.369 . S
C663 C664 1.410 . S
C663 C671 1.503 . S
C664 C663 1.410 . S
C664 C665 1.392 . S
C664 C667 1.511 . S
C665 C661 1.376 . S
C665 C664 1.392 . S
C665 H677 0.929 . S
C666 C662 1.531 . S
C666 H678 0.960 . S
C666 H679 0.962 . S
C666 H680 0.960 . S
C667 C664 1.511 . S
C667 H681 0.961 . S
C667 H682 0.961 . S
C667 H683 0.961 . S
C668 C669 1.370 . S
C668 C670 1.363 . S
C668 H684 0.931 . S
C669 C668 1.370 . S
C669 C673 1.408 . S
C670 C668 1.363 . S
C670 C671 1.370 . S
C670 C674 1.524 . S
C671 C663 1.503 . S
C671 C670 1.370 . S
C671 C672 1.403 . S
C672 C671 1.403 . S
C672 C673 1.404 . S
C672 C675 1.539 1_655 S
C673 C669 1.408 . S
C673 C672 1.404 . S
C673 H685 0.930 1_655 S
C674 C670 1.524 . S
C674 H686 0.956 . S
C674 H687 0.961 . S
C674 H688 0.961 . S
C675 C672 1.539 1_455 S
C675 H689 0.958 . S
C675 H690 0.961 . S
C675 H691 0.960 . S
H676 C660 0.931 . S
H677 C665 0.929 . S
H678 C666 0.960 . S
H679 C666 0.962 . S
H680 C666 0.960 . S
H681 C667 0.961 . S
H682 C667 0.961 . S
H683 C667 0.961 . S
H684 C668 0.931 . S
H685 C673 0.930 1_455 S
H686 C674 0.956 . S
H687 C674 0.961 . S
H688 C674 0.961 . S
H689 C675 0.958 . S
H690 C675 0.961 . S
H691 C675 0.960 . S
C692 C693 1.391 . S
C692 C694 1.394 . S
C692 H708 0.931 . S
C693 C692 1.391 . S
C693 C697 1.376 . S
C694 C692 1.394 . S
C694 C695 1.369 . S
C694 C698 1.531 . S
C695 C694 1.369 . S
C695 C696 1.410 . S
C695 C703 1.503 . S
C696 C695 1.410 . S
C696 C697 1.392 . S
C696 C699 1.511 . S
C697 C693 1.376 . S
C697 C696 1.392 . S
C697 H709 0.929 . S
C698 C694 1.531 . S
C698 H710 0.960 . S
C698 H711 0.962 . S
C698 H712 0.960 . S
C699 C696 1.511 . S
C699 H713 0.961 . S
C699 H714 0.961 . S
C699 H715 0.961 . S
C700 C701 1.370 . S
C700 C702 1.363 . S
C700 H716 0.931 . S
C701 C700 1.370 . S
C701 C705 1.408 . S
C702 C700 1.363 . S
C702 C703 1.370 . S
C702 C706 1.524 . S
C703 C695 1.503 . S
C703 C702 1.370 . S
C703 C704 1.403 . S
C704 C703 1.403 . S
C704 C705 1.404 . S
C704 C707 1.539 . S
C705 C701 1.408 . S
C705 C704 1.404 . S
C705 H717 0.930 . S
C706 C702 1.524 . S
C706 H718 0.956 . S
C706 H719 0.961 . S
C706 H720 0.961 . S
C707 C704 1.539 . S
C707 H721 0.958 . S
C707 H722 0.961 1_545 S
C707 H723 0.960 . S
H708 C692 0.931 . S
H709 C697 0.929 . S
H710 C698 0.960 . S
H711 C698 0.962 . S
H712 C698 0.960 . S
H713 C699 0.961 . S
H714 C699 0.961 . S
H715 C699 0.961 . S
H716 C700 0.931 . S
H717 C705 0.930 . S
H718 C706 0.956 . S
H719 C706 0.961 . S
H720 C706 0.961 . S
H721 C707 0.958 . S
H722 C707 0.961 1_565 S
H723 C707 0.960 . S
C724 C725 1.391 . S
C724 C726 1.394 . S
C724 H740 0.931 . S
C725 C724 1.391 . S
C725 C729 1.376 . S
C726 C724 1.394 . S
C726 C727 1.369 . S
C726 C730 1.531 . S
C727 C726 1.369 . S
C727 C728 1.410 . S
C727 C735 1.503 . S
C728 C727 1.410 . S
C728 C729 1.392 . S
C728 C731 1.511 . S
C729 C725 1.376 . S
C729 C728 1.392 . S
C729 H741 0.929 . S
C730 C726 1.531 . S
C730 H742 0.960 . S
C730 H743 0.962 . S
C730 H744 0.960 . S
C731 C728 1.511 . S
C731 H745 0.961 . S
C731 H746 0.961 . S
C731 H747 0.961 1_565 S
C732 C733 1.370 . S
C732 C734 1.363 . S
C732 H748 0.931 . S
C733 C732 1.370 . S
C733 C737 1.408 . S
C734 C732 1.363 . S
C734 C735 1.370 . S
C734 C738 1.524 . S
C735 C727 1.503 . S
C735 C734 1.370 . S
C735 C736 1.403 . S
C736 C735 1.403 . S
C736 C737 1.404 . S
C736 C739 1.539 . S
C737 C733 1.408 . S
C737 C736 1.404 . S
C737 H749 0.930 . S
C738 C734 1.524 . S
C738 H750 0.956 . S
C738 H751 0.961 . S
C738 H752 0.961 . S
C739 C736 1.539 . S
C739 H753 0.958 . S
C739 H754 0.961 1_565 S
C739 H755 0.960 . S
H740 C724 0.931 . S
H741 C729 0.929 . S
H742 C730 0.960 . S
H743 C730 0.962 . S
H744 C730 0.960 . S
H745 C731 0.961 . S
H746 C731 0.961 . S
H747 C731 0.961 1_545 S
H748 C732 0.931 . S
H749 C737 0.930 . S
H750 C738 0.956 . S
H751 C738 0.961 . S
H752 C738 0.961 . S
H753 C739 0.958 . S
H754 C739 0.961 1_545 S
H755 C739 0.960 . S
C756 C757 1.391 . S
C756 C758 1.394 . S
C756 H772 0.931 . S
C757 C756 1.391 . S
C757 C761 1.376 . S
C758 C756 1.394 . S
C758 C759 1.369 . S
C758 C762 1.531 . S
C759 C758 1.369 . S
C759 C760 1.410 . S
C759 C767 1.503 . S
C760 C759 1.410 . S
C760 C761 1.392 . S
C760 C763 1.511 . S
C761 C757 1.376 . S
C761 C760 1.392 . S
C761 H773 0.929 . S
C762 C758 1.531 . S
C762 H774 0.960 . S
C762 H775 0.962 . S
C762 H776 0.960 . S
C763 C760 1.511 . S
C763 H777 0.961 1_556 S
C763 H778 0.961 1_556 S
C763 H779 0.962 . S
C764 C765 1.370 . S
C764 C766 1.363 . S
C764 H780 0.931 . S
C765 C764 1.370 . S
C765 C769 1.408 . S
C766 C764 1.363 . S
C766 C767 1.370 . S
C766 C770 1.524 . S
C767 C759 1.503 . S
C767 C766 1.370 . S
C767 C768 1.403 . S
C768 C767 1.403 . S
C768 C769 1.404 . S
C768 C771 1.539 . S
C769 C765 1.408 . S
C769 C768 1.404 . S
C769 H781 0.930 . S
C770 C766 1.524 . S
C770 H782 0.956 . S
C770 H783 0.961 . S
C770 H784 0.961 . S
C771 C768 1.539 . S
C771 H785 0.958 . S
C771 H786 0.961 . S
C771 H787 0.960 . S
H772 C756 0.931 . S
H773 C761 0.929 . S
H774 C762 0.960 . S
H775 C762 0.962 . S
H776 C762 0.960 . S
H777 C763 0.961 1_554 S
H778 C763 0.961 1_554 S
H779 C763 0.962 . S
H780 C764 0.931 . S
H781 C769 0.930 . S
H782 C770 0.956 . S
H783 C770 0.961 . S
H784 C770 0.961 . S
H785 C771 0.958 . S
H786 C771 0.961 . S
H787 C771 0.960 . S
C788 C789 1.391 . S
C788 C790 1.394 . S
C788 H804 0.931 . S
C789 C788 1.391 . S
C789 C793 1.376 . S
C790 C788 1.394 . S
C790 C791 1.369 . S
C790 C794 1.531 . S
C791 C790 1.369 . S
C791 C792 1.410 . S
C791 C799 1.503 . S
C792 C791 1.410 . S
C792 C793 1.392 . S
C792 C795 1.511 . S
C793 C789 1.376 . S
C793 C792 1.392 . S
C793 H805 0.929 . S
C794 C790 1.531 . S
C794 H806 0.960 . S
C794 H807 0.962 . S
C794 H808 0.960 . S
C795 C792 1.511 . S
C795 H809 0.961 . S
C795 H810 0.961 . S
C795 H811 0.961 . S
C796 C797 1.370 . S
C796 C798 1.363 . S
C796 H812 0.931 . S
C797 C796 1.370 . S
C797 C801 1.408 . S
C798 C796 1.363 . S
C798 C799 1.370 . S
C798 C802 1.524 . S
C799 C791 1.503 . S
C799 C798 1.370 . S
C799 C800 1.403 . S
C800 C799 1.403 . S
C800 C801 1.404 . S
C800 C803 1.539 . S
C801 C797 1.408 . S
C801 C800 1.404 . S
C801 H813 0.930 . S
C802 C798 1.524 . S
C802 H814 0.956 . S
C802 H815 0.961 . S
C802 H816 0.961 . S
C803 C800 1.539 . S
C803 H817 0.958 . S
C803 H818 0.961 . S
C803 H819 0.960 . S
H804 C788 0.931 . S
H805 C793 0.929 . S
H806 C794 0.960 . S
H807 C794 0.962 . S
H808 C794 0.960 . S
H809 C795 0.961 . S
H810 C795 0.961 . S
H811 C795 0.961 . S
H812 C796 0.931 . S
H813 C801 0.930 . S
H814 C802 0.956 . S
H815 C802 0.961 . S
H816 C802 0.961 . S
H817 C803 0.958 . S
H818 C803 0.961 . S
H819 C803 0.960 . S
C820 C821 1.391 . S
C820 C822 1.394 . S
C820 H836 0.931 . S
C821 C820 1.391 . S
C821 C825 1.376 . S
C822 C820 1.394 . S
C822 C823 1.369 . S
C822 C826 1.531 . S
C823 C822 1.369 . S
C823 C824 1.410 . S
C823 C831 1.503 . S
C824 C823 1.410 . S
C824 C825 1.392 . S
C824 C827 1.511 . S
C825 C821 1.376 . S
C825 C824 1.392 . S
C825 H837 0.929 . S
C826 C822 1.531 . S
C826 H838 0.960 . S
C826 H839 0.962 . S
C826 H840 0.960 . S
C827 C824 1.511 . S
C827 H841 0.961 . S
C827 H842 0.961 . S
C827 H843 0.961 . S
C828 C829 1.370 . S
C828 C830 1.363 . S
C828 H844 0.931 . S
C829 C828 1.370 . S
C829 C833 1.408 . S
C830 C828 1.363 . S
C830 C831 1.370 . S
C830 C834 1.524 . S
C831 C823 1.503 . S
C831 C830 1.370 . S
C831 C832 1.403 . S
C832 C831 1.403 . S
C832 C833 1.404 . S
C832 C835 1.539 . S
C833 C829 1.408 . S
C833 C832 1.404 . S
C833 H845 0.930 . S
C834 C830 1.524 . S
C834 H846 0.956 . S
C834 H847 0.961 . S
C834 H848 0.961 1_554 S
C835 C832 1.539 . S
C835 H849 0.958 . S
C835 H850 0.961 . S
C835 H851 0.960 . S
H836 C820 0.931 . S
H837 C825 0.929 . S
H838 C826 0.960 . S
H839 C826 0.962 . S
H840 C826 0.960 . S
H841 C827 0.961 . S
H842 C827 0.961 . S
H843 C827 0.961 . S
H844 C828 0.931 . S
H845 C833 0.930 . S
H846 C834 0.956 . S
H847 C834 0.961 . S
H848 C834 0.961 1_556 S
H849 C835 0.958 . S
H850 C835 0.961 . S
H851 C835 0.960 . S
C852 C853 1.391 . S
C852 C854 1.394 . S
C852 H868 0.931 . S
C853 C852 1.391 . S
C853 C857 1.376 . S
C854 C852 1.394 . S
C854 C855 1.369 . S
C854 C858 1.531 . S
C855 C854 1.369 . S
C855 C856 1.410 . S
C855 C863 1.503 . S
C856 C855 1.410 . S
C856 C857 1.392 . S
C856 C859 1.511 . S
C857 C853 1.376 . S
C857 C856 1.392 . S
C857 H869 0.929 . S
C858 C854 1.531 . S
C858 H870 0.960 . S
C858 H871 0.962 . S
C858 H872 0.960 . S
C859 C856 1.511 . S
C859 H873 0.961 . S
C859 H874 0.961 . S
C859 H875 0.961 . S
C860 C861 1.370 . S
C860 C862 1.363 . S
C860 H876 0.931 . S
C861 C860 1.370 . S
C861 C865 1.408 . S
C862 C860 1.363 . S
C862 C863 1.370 . S
C862 C866 1.524 . S
C863 C855 1.503 . S
C863 C862 1.370 . S
C863 C864 1.403 . S
C864 C863 1.403 . S
C864 C865 1.404 . S
C864 C867 1.539 1_556 S
C865 C861 1.408 . S
C865 C864 1.404 . S
C865 H877 0.930 1_556 S
C866 C862 1.524 . S
C866 H878 0.956 . S
C866 H879 0.961 . S
C866 H880 0.961 . S
C867 C864 1.539 1_554 S
C867 H881 0.958 1_554 S
C867 H882 0.961 . S
C867 H883 0.960 . S
H868 C852 0.931 . S
H869 C857 0.929 . S
H870 C858 0.960 . S
H871 C858 0.962 . S
H872 C858 0.960 . S
H873 C859 0.961 . S
H874 C859 0.961 . S
H875 C859 0.961 . S
H876 C860 0.931 . S
H877 C865 0.930 1_554 S
H878 C866 0.956 . S
H879 C866 0.961 . S
H880 C866 0.961 . S
H881 C867 0.958 1_556 S
H882 C867 0.961 . S
H883 C867 0.960 . S
C884 C885 1.391 . S
C884 C886 1.394 . S
C884 H900 0.931 . S
C885 C884 1.391 . S
C885 C889 1.376 . S
C886 C884 1.394 . S
C886 C887 1.369 . S
C886 C890 1.531 . S
C887 C886 1.369 . S
C887 C888 1.410 . S
C887 C895 1.503 . S
C888 C887 1.410 . S
C888 C889 1.392 . S
C888 C891 1.511 . S
C889 C885 1.376 . S
C889 C888 1.392 . S
C889 H901 0.929 . S
C890 C886 1.531 . S
C890 H902 0.960 . S
C890 H903 0.962 1_655 S
C890 H904 0.960 . S
C891 C888 1.511 . S
C891 H905 0.961 . S
C891 H906 0.961 . S
C891 H907 0.961 . S
C892 C893 1.370 . S
C892 C894 1.363 . S
C892 H908 0.931 1_655 S
C893 C892 1.370 . S
C893 C897 1.408 . S
C894 C892 1.363 . S
C894 C895 1.370 . S
C894 C898 1.524 . S
C895 C887 1.503 . S
C895 C894 1.370 . S
C895 C896 1.403 . S
C896 C895 1.403 . S
C896 C897 1.404 . S
C896 C899 1.539 . S
C897 C893 1.408 . S
C897 C896 1.404 . S
C897 H909 0.930 . S
C898 C894 1.524 . S
C898 H910 0.956 1_655 S
C898 H911 0.961 . S
C898 H912 0.961 1_655 S
C899 C896 1.539 . S
C899 H913 0.958 . S
C899 H914 0.961 . S
C899 H915 0.960 . S
H900 C884 0.931 . S
H901 C889 0.929 . S
H902 C890 0.960 . S
H903 C890 0.962 1_455 S
H904 C890 0.960 . S
H905 C891 0.961 . S
H906 C891 0.961 . S
H907 C891 0.961 . S
H908 C892 0.931 1_455 S
H909 C897 0.930 . S
H910 C898 0.956 1_455 S
H911 C898 0.961 . S
H912 C898 0.961 1_455 S
H913 C899 0.958 . S
H914 C899 0.961 . S
H915 C899 0.960 . S
C916 C917 1.391 . S
C916 C918 1.394 . S
C916 H932 0.931 . S
C917 C916 1.391 . S
C917 C921 1.376 . S
C918 C916 1.394 . S
C918 C919 1.369 . S
C918 C922 1.531 . S
C919 C918 1.369 . S
C919 C920 1.410 . S
C919 C927 1.503 . S
C920 C919 1.410 . S
C920 C921 1.392 . S
C920 C923 1.511 . S
C921 C917 1.376 . S
C921 C920 1.392 . S
C921 H933 0.929 . S
C922 C918 1.531 . S
C922 H934 0.960 . S
C922 H935 0.962 . S
C922 H936 0.960 . S
C923 C920 1.511 . S
C923 H937 0.961 . S
C923 H938 0.961 . S
C923 H939 0.961 . S
C924 C925 1.370 . S
C924 C926 1.363 . S
C924 H940 0.931 . S
C925 C924 1.370 . S
C925 C929 1.408 . S
C926 C924 1.363 . S
C926 C927 1.370 . S
C926 C930 1.524 . S
C927 C919 1.503 . S
C927 C926 1.370 . S
C927 C928 1.403 . S
C928 C927 1.403 . S
C928 C929 1.404 . S
C928 C931 1.539 . S
C929 C925 1.408 . S
C929 C928 1.404 . S
C929 H941 0.930 . S
C930 C926 1.524 . S
C930 H942 0.956 . S
C930 H943 0.961 . S
C930 H944 0.961 . S
C931 C928 1.539 . S
C931 H945 0.958 . S
C931 H946 0.961 . S
C931 H947 0.960 . S
H932 C916 0.931 . S
H933 C921 0.929 . S
H934 C922 0.960 . S
H935 C922 0.962 . S
H936 C922 0.960 . S
H937 C923 0.961 . S
H938 C923 0.961 . S
H939 C923 0.961 . S
H940 C924 0.931 . S
H941 C929 0.930 . S
H942 C930 0.956 . S
H943 C930 0.961 . S
H944 C930 0.961 . S
H945 C931 0.958 . S
H946 C931 0.961 . S
H947 C931 0.960 . S
C948 C949 1.391 . S
C948 C950 1.394 . S
C948 H964 0.931 . S
C949 C948 1.391 . S
C949 C953 1.376 . S
C950 C948 1.394 . S
C950 C951 1.369 . S
C950 C954 1.531 . S
C951 C950 1.369 . S
C951 C952 1.410 . S
C951 C959 1.503 . S
C952 C951 1.410 . S
C952 C953 1.392 . S
C952 C955 1.511 . S
C953 C949 1.376 . S
C953 C952 1.392 . S
C953 H965 0.929 . S
C954 C950 1.531 . S
C954 H966 0.960 . S
C954 H967 0.962 . S
C954 H968 0.960 . S
C955 C952 1.511 . S
C955 H969 0.961 1_565 S
C955 H970 0.961 1_565 S
C955 H971 0.961 . S
C956 C957 1.370 . S
C956 C958 1.363 . S
C956 H972 0.931 1_655 S
C957 C956 1.370 . S
C957 C961 1.408 . S
C958 C956 1.363 . S
C958 C959 1.370 . S
C958 C962 1.545 . S
C959 C951 1.503 . S
C959 C958 1.370 . S
C959 C960 1.403 . S
C960 C959 1.403 . S
C960 C961 1.404 . S
C960 C963 1.539 . S
C961 C957 1.408 . S
C961 C960 1.404 . S
C961 H973 0.930 . S
C962 C958 1.545 . S
C962 H974 0.941 1_655 S
C962 H975 0.987 . S
C962 H976 0.930 1_655 S
C963 C960 1.539 . S
C963 H977 0.958 . S
C963 H978 0.961 . S
C963 H979 0.960 . S
H964 C948 0.931 . S
H965 C953 0.929 . S
H966 C954 0.960 . S
H967 C954 0.962 . S
H968 C954 0.960 . S
H969 C955 0.961 1_545 S
H970 C955 0.961 1_545 S
H971 C955 0.961 . S
H972 C956 0.931 1_455 S
H973 C961 0.930 . S
H974 C962 0.941 1_455 S
H975 C962 0.987 . S
H976 C962 0.930 1_455 S
H977 C963 0.958 . S
H978 C963 0.961 . S
H979 C963 0.960 . S
C980 C981 1.391 . S
C980 C982 1.394 . S
C980 H996 0.931 . S
C981 C980 1.391 . S
C981 C985 1.376 . S
C982 C980 1.394 . S
C982 C983 1.369 . S
C982 C986 1.531 . S
C983 C982 1.369 . S
C983 C984 1.410 . S
C983 C991 1.503 . S
C984 C983 1.410 . S
C984 C985 1.392 . S
C984 C987 1.511 . S
C985 C981 1.376 . S
C985 C984 1.392 . S
C985 H997 0.929 . S
C986 C982 1.531 . S
C986 H998 0.960 . S
C986 H999 0.962 . S
C986 H1000 0.960 . S
C987 C984 1.511 . S
C987 H1001 0.961 . S
C987 H1002 0.961 . S
C987 H1003 0.961 . S
C988 C989 1.370 . S
C988 C990 1.363 . S
C988 H1004 0.931 . S
C989 C988 1.370 . S
C989 C993 1.408 . S
C990 C988 1.363 . S
C990 C991 1.370 . S
C990 C994 1.524 . S
C991 C983 1.503 . S
C991 C990 1.370 . S
C991 C992 1.403 . S
C992 C991 1.403 . S
C992 C993 1.404 . S
C992 C995 1.539 . S
C993 C989 1.408 . S
C993 C992 1.404 . S
C993 H1005 0.930 . S
C994 C990 1.524 . S
C994 H1006 0.956 . S
C994 H1007 0.961 . S
C994 H1008 0.961 1_545 S
C995 C992 1.539 . S
C995 H1009 0.958 . S
C995 H1010 0.961 . S
C995 H1011 0.960 . S
H996 C980 0.931 . S
H997 C985 0.929 . S
H998 C986 0.960 . S
H999 C986 0.962 . S
H1000 C986 0.960 . S
H1001 C987 0.961 . S
H1002 C987 0.961 . S
H1003 C987 0.961 . S
H1004 C988 0.931 . S
H1005 C993 0.930 . S
H1006 C994 0.956 . S
H1007 C994 0.961 . S
H1008 C994 0.961 1_565 S
H1009 C995 0.958 . S
H1010 C995 0.961 . S
H1011 C995 0.960 . S
C1012 C1013 1.391 . S
C1012 C1014 1.394 . S
C1012 H1028 0.931 . S
C1013 C1012 1.391 . S
C1013 C1017 1.376 . S
C1014 C1012 1.394 . S
C1014 C1015 1.369 . S
C1014 C1018 1.531 . S
C1015 C1014 1.369 . S
C1015 C1016 1.410 . S
C1015 C1023 1.503 . S
C1016 C1015 1.410 . S
C1016 C1017 1.392 . S
C1016 C1019 1.511 . S
C1017 C1013 1.376 . S
C1017 C1016 1.392 . S
C1017 H1029 0.929 . S
C1018 C1014 1.531 . S
C1018 H1030 0.960 . S
C1018 H1031 0.962 . S
C1018 H1032 0.960 . S
C1019 C1016 1.511 . S
C1019 H1033 0.961 . S
C1019 H1034 0.961 . S
C1019 H1035 0.961 . S
C1020 C1021 1.370 . S
C1020 C1022 1.363 . S
C1020 H1036 0.931 . S
C1021 C1020 1.370 . S
C1021 C1025 1.408 . S
C1022 C1020 1.363 . S
C1022 C1023 1.370 . S
C1022 C1026 1.524 . S
C1023 C1015 1.503 . S
C1023 C1022 1.370 . S
C1023 C1024 1.403 . S
C1024 C1023 1.403 . S
C1024 C1025 1.404 . S
C1024 C1027 1.539 . S
C1025 C1021 1.408 . S
C1025 C1024 1.404 . S
C1025 H1037 0.930 . S
C1026 C1022 1.524 . S
C1026 H1038 0.956 . S
C1026 H1039 0.961 . S
C1026 H1040 0.961 . S
C1027 C1024 1.539 . S
C1027 H1041 0.958 . S
C1027 H1042 0.961 . S
C1027 H1043 0.960 . S
H1028 C1012 0.931 . S
H1029 C1017 0.929 . S
H1030 C1018 0.960 . S
H1031 C1018 0.962 . S
H1032 C1018 0.960 . S
H1033 C1019 0.961 . S
H1034 C1019 0.961 . S
H1035 C1019 0.961 . S
H1036 C1020 0.931 . S
H1037 C1025 0.930 . S
H1038 C1026 0.956 . S
H1039 C1026 0.961 . S
H1040 C1026 0.961 . S
H1041 C1027 0.958 . S
H1042 C1027 0.961 . S
H1043 C1027 0.960 . S
C1044 C1045 1.391 . S
C1044 C1046 1.394 . S
C1044 H1060 0.931 . S
C1045 C1044 1.391 . S
C1045 C1049 1.376 . S
C1046 C1044 1.394 . S
C1046 C1047 1.369 . S
C1046 C1050 1.531 . S
C1047 C1046 1.369 . S
C1047 C1048 1.410 . S
C1047 C1055 1.503 . S
C1048 C1047 1.410 . S
C1048 C1049 1.392 . S
C1048 C1051 1.511 1_455 S
C1049 C1045 1.376 . S
C1049 C1048 1.392 . S
C1049 H1061 0.929 . S
C1050 C1046 1.531 . S
C1050 H1062 0.960 . S
C1050 H1063 0.962 . S
C1050 H1064 0.960 . S
C1051 C1048 1.511 1_655 S
C1051 H1065 0.961 . S
C1051 H1066 0.961 . S
C1051 H1067 0.961 . S
C1052 C1053 1.370 . S
C1052 C1054 1.363 . S
C1052 H1068 0.931 . S
C1053 C1052 1.370 . S
C1053 C1057 1.408 . S
C1054 C1052 1.363 . S
C1054 C1055 1.370 . S
C1054 C1058 1.524 . S
C1055 C1047 1.503 . S
C1055 C1054 1.370 . S
C1055 C1056 1.403 . S
C1056 C1055 1.403 . S
C1056 C1057 1.404 . S
C1056 C1059 1.539 . S
C1057 C1053 1.408 . S
C1057 C1056 1.404 . S
C1057 H1069 0.930 . S
C1058 C1054 1.524 . S
C1058 H1070 0.956 . S
C1058 H1071 0.961 . S
C1058 H1072 0.961 . S
C1059 C1056 1.539 . S
C1059 H1073 0.958 . S
C1059 H1074 0.961 . S
C1059 H1075 0.960 . S
H1060 C1044 0.931 . S
H1061 C1049 0.929 . S
H1062 C1050 0.960 . S
H1063 C1050 0.962 . S
H1064 C1050 0.960 . S
H1065 C1051 0.961 . S
H1066 C1051 0.961 . S
H1067 C1051 0.961 . S
H1068 C1052 0.931 . S
H1069 C1057 0.930 . S
H1070 C1058 0.956 . S
H1071 C1058 0.961 . S
H1072 C1058 0.961 . S
H1073 C1059 0.958 . S
H1074 C1059 0.961 . S
H1075 C1059 0.960 . S
C1076 C1077 1.391 . S
C1076 C1078 1.394 . S
C1076 H1092 0.931 . S
C1077 C1076 1.391 . S
C1077 C1081 1.376 . S
C1078 C1076 1.394 . S
C1078 C1079 1.369 . S
C1078 C1082 1.531 . S
C1079 C1078 1.369 . S
C1079 C1080 1.410 . S
C1079 C1087 1.503 . S
C1080 C1079 1.410 . S
C1080 C1081 1.392 . S
C1080 C1083 1.511 1_565 S
C1081 C1077 1.376 . S
C1081 C1080 1.392 . S
C1081 H1093 0.929 . S
C1082 C1078 1.531 . S
C1082 H1094 0.960 . S
C1082 H1095 0.962 . S
C1082 H1096 0.960 . S
C1083 C1080 1.511 1_545 S
C1083 H1097 0.961 . S
C1083 H1098 0.961 . S
C1083 H1099 0.961 . S
C1084 C1085 1.370 . S
C1084 C1086 1.363 . S
C1084 H1100 0.931 . S
C1085 C1084 1.370 . S
C1085 C1089 1.408 . S
C1086 C1084 1.363 . S
C1086 C1087 1.370 . S
C1086 C1090 1.524 . S
C1087 C1079 1.503 . S
C1087 C1086 1.370 . S
C1087 C1088 1.403 . S
C1088 C1087 1.403 . S
C1088 C1089 1.404 . S
C1088 C1091 1.539 1_556 S
C1089 C1085 1.408 . S
C1089 C1088 1.404 . S
C1089 H1101 0.930 1_556 S
C1090 C1086 1.524 . S
C1090 H1102 0.956 . S
C1090 H1103 0.961 . S
C1090 H1104 0.961 . S
C1091 C1088 1.539 1_554 S
C1091 H1105 0.958 . S
C1091 H1106 0.951 1_565 S
C1091 H1107 0.960 . S
H1092 C1076 0.931 . S
H1093 C1081 0.929 . S
H1094 C1082 0.960 . S
H1095 C1082 0.962 . S
H1096 C1082 0.960 . S
H1097 C1083 0.961 . S
H1098 C1083 0.961 . S
H1099 C1083 0.961 . S
H1100 C1084 0.931 . S
H1101 C1089 0.930 1_554 S
H1102 C1090 0.956 . S
H1103 C1090 0.961 . S
H1104 C1090 0.961 . S
H1105 C1091 0.958 . S
H1106 C1091 0.951 1_545 S
H1107 C1091 0.960 . S
C1108 C1109 1.391 . S
C1108 C1110 1.394 . S
C1108 H1124 0.931 . S
C1109 C1108 1.391 . S
C1109 C1113 1.376 . S
C1110 C1108 1.394 . S
C1110 C1111 1.369 . S
C1110 C1114 1.531 . S
C1111 C1110 1.369 . S
C1111 C1112 1.410 . S
C1111 C1119 1.503 . S
C1112 C1111 1.410 . S
C1112 C1113 1.392 . S
C1112 C1115 1.511 . S
C1113 C1109 1.376 . S
C1113 C1112 1.392 . S
C1113 H1125 0.929 . S
C1114 C1110 1.531 . S
C1114 H1126 0.960 . S
C1114 H1127 0.962 . S
C1114 H1128 0.960 . S
C1115 C1112 1.511 . S
C1115 H1129 0.961 . S
C1115 H1130 0.961 . S
C1115 H1131 0.961 . S
C1116 C1117 1.370 . S
C1116 C1118 1.363 . S
C1116 H1132 0.931 . S
C1117 C1116 1.370 . S
C1117 C1121 1.408 . S
C1118 C1116 1.363 . S
C1118 C1119 1.370 . S
C1118 C1122 1.524 . S
C1119 C1111 1.503 . S
C1119 C1118 1.370 . S
C1119 C1120 1.403 . S
C1120 C1119 1.403 . S
C1120 C1121 1.404 . S
C1120 C1123 1.539 . S
C1121 C1117 1.408 . S
C1121 C1120 1.404 . S
C1121 H1133 0.930 . S
C1122 C1118 1.524 . S
C1122 H1134 0.956 . S
C1122 H1135 0.961 . S
C1122 H1136 0.961 . S
C1123 C1120 1.539 . S
C1123 H1137 0.958 . S
C1123 H1138 0.961 . S
C1123 H1139 0.960 . S
H1124 C1108 0.931 . S
H1125 C1113 0.929 . S
H1126 C1114 0.960 . S
H1127 C1114 0.962 . S
H1128 C1114 0.960 . S
H1129 C1115 0.961 . S
H1130 C1115 0.961 . S
H1131 C1115 0.961 . S
H1132 C1116 0.931 . S
H1133 C1121 0.930 . S
H1134 C1122 0.956 . S
H1135 C1122 0.961 . S
H1136 C1122 0.961 . S
H1137 C1123 0.958 . S
H1138 C1123 0.961 . S
H1139 C1123 0.960 . S
C1140 C1141 1.391 . S
C1140 C1142 1.394 . S
C1140 H1156 0.931 . S
C1141 C1140 1.391 . S
C1141 C1145 1.376 . S
C1142 C1140 1.394 . S
C1142 C1143 1.369 . S
C1142 C1146 1.531 . S
C1143 C1142 1.369 . S
C1143 C1144 1.410 . S
C1143 C1151 1.503 . S
C1144 C1143 1.410 . S
C1144 C1145 1.392 . S
C1144 C1147 1.511 . S
C1145 C1141 1.376 . S
C1145 C1144 1.392 . S
C1145 H1157 0.929 . S
C1146 C1142 1.531 . S
C1146 H1158 0.960 . S
C1146 H1159 0.962 . S
C1146 H1160 0.960 . S
C1147 C1144 1.511 . S
C1147 H1161 0.961 . S
C1147 H1162 0.961 . S
C1147 H1163 0.961 . S
C1148 C1149 1.370 . S
C1148 C1150 1.363 . S
C1148 H1164 0.931 . S
C1149 C1148 1.370 . S
C1149 C1153 1.408 . S
C1150 C1148 1.363 . S
C1150 C1151 1.370 . S
C1150 C1154 1.524 . S
C1151 C1143 1.503 . S
C1151 C1150 1.370 . S
C1151 C1152 1.403 . S
C1152 C1151 1.403 . S
C1152 C1153 1.404 . S
C1152 C1155 1.539 1_554 S
C1153 C1149 1.408 . S
C1153 C1152 1.404 . S
C1153 H1165 0.930 1_554 S
C1154 C1150 1.524 . S
C1154 H1166 0.956 . S
C1154 H1167 0.961 . S
C1154 H1168 0.961 . S
C1155 C1152 1.539 1_556 S
C1155 H1169 0.958 . S
C1155 H1170 0.961 . S
C1155 H1171 0.960 1_556 S
H1156 C1140 0.931 . S
H1157 C1145 0.929 . S
H1158 C1146 0.960 . S
H1159 C1146 0.962 . S
H1160 C1146 0.960 . S
H1161 C1147 0.961 . S
H1162 C1147 0.961 . S
H1163 C1147 0.961 . S
H1164 C1148 0.931 . S
H1165 C1153 0.930 1_556 S
H1166 C1154 0.956 . S
H1167 C1154 0.961 . S
H1168 C1154 0.961 . S
H1169 C1155 0.958 . S
H1170 C1155 0.961 . S
H1171 C1155 0.960 1_554 S
C1172 C1173 1.391 . S
C1172 C1174 1.394 . S
C1172 H1188 0.931 . S
C1173 C1172 1.391 . S
C1173 C1177 1.376 . S
C1174 C1172 1.394 . S
C1174 C1175 1.369 . S
C1174 C1178 1.531 . S
C1175 C1174 1.369 . S
C1175 C1176 1.410 . S
C1175 C1183 1.503 . S
C1176 C1175 1.410 . S
C1176 C1177 1.392 . S
C1176 C1179 1.511 . S
C1177 C1173 1.376 . S
C1177 C1176 1.392 . S
C1177 H1189 0.929 . S
C1178 C1174 1.531 . S
C1178 H1190 0.960 . S
C1178 H1191 0.962 . S
C1178 H1192 0.960 . S
C1179 C1176 1.511 . S
C1179 H1193 0.961 . S
C1179 H1194 0.961 . S
C1179 H1195 0.961 . S
C1180 C1181 1.370 . S
C1180 C1182 1.363 . S
C1180 H1196 0.931 . S
C1181 C1180 1.370 . S
C1181 C1185 1.408 . S
C1182 C1180 1.363 . S
C1182 C1183 1.370 . S
C1182 C1186 1.524 . S
C1183 C1175 1.503 . S
C1183 C1182 1.370 . S
C1183 C1184 1.403 . S
C1184 C1183 1.403 . S
C1184 C1185 1.404 . S
C1184 C1187 1.539 . S
C1185 C1181 1.408 . S
C1185 C1184 1.404 . S
C1185 H1197 0.930 . S
C1186 C1182 1.524 . S
C1186 H1198 0.956 . S
C1186 H1199 0.961 . S
C1186 H1200 0.961 . S
C1187 C1184 1.539 . S
C1187 H1201 0.958 . S
C1187 H1202 0.961 . S
C1187 H1203 0.960 . S
H1188 C1172 0.931 . S
H1189 C1177 0.929 . S
H1190 C1178 0.960 . S
H1191 C1178 0.962 . S
H1192 C1178 0.960 . S
H1193 C1179 0.961 . S
H1194 C1179 0.961 . S
H1195 C1179 0.961 . S
H1196 C1180 0.931 . S
H1197 C1185 0.930 . S
H1198 C1186 0.956 . S
H1199 C1186 0.961 . S
H1200 C1186 0.961 . S
H1201 C1187 0.958 . S
H1202 C1187 0.961 . S
H1203 C1187 0.960 . S
C1204 C1205 1.391 . S
C1204 C1206 1.394 . S
C1204 H1220 0.931 . S
C1205 C1204 1.391 . S
C1205 C1209 1.376 . S
C1206 C1204 1.394 . S
C1206 C1207 1.369 . S
C1206 C1210 1.531 . S
C1207 C1206 1.369 . S
C1207 C1208 1.410 . S
C1207 C1215 1.503 . S
C1208 C1207 1.410 . S
C1208 C1209 1.392 . S
C1208 C1211 1.511 . S
C1209 C1205 1.376 . S
C1209 C1208 1.392 . S
C1209 H1221 0.929 . S
C1210 C1206 1.531 . S
C1210 H1222 0.960 . S
C1210 H1223 0.962 1_655 S
C1210 H1224 0.960 . S
C1211 C1208 1.511 . S
C1211 H1225 0.961 . S
C1211 H1226 0.961 . S
C1211 H1227 0.961 . S
C1212 C1213 1.370 . S
C1212 C1214 1.363 . S
C1212 H1228 0.931 . S
C1213 C1212 1.370 . S
C1213 C1217 1.412 . S
C1214 C1212 1.363 . S
C1214 C1215 1.370 . S
C1214 C1218 1.524 . S
C1215 C1207 1.503 . S
C1215 C1214 1.370 . S
C1215 C1216 1.403 . S
C1216 C1215 1.403 . S
C1216 C1217 1.405 . S
C1216 C1219 1.539 1_556 S
C1217 C1213 1.412 . S
C1217 C1216 1.405 . S
C1217 H1229 0.925 1_556 S
C1218 C1214 1.524 . S
C1218 H1230 0.956 . S
C1218 H1231 0.961 . S
C1218 H1232 0.961 . S
C1219 C1216 1.539 1_554 S
C1219 H1233 0.958 . S
C1219 H1234 0.961 . S
C1219 H1235 0.960 . S
H1220 C1204 0.931 . S
H1221 C1209 0.929 . S
H1222 C1210 0.960 . S
H1223 C1210 0.962 1_455 S
H1224 C1210 0.960 . S
H1225 C1211 0.961 . S
H1226 C1211 0.961 . S
H1227 C1211 0.961 . S
H1228 C1212 0.931 . S
H1229 C1217 0.925 1_554 S
H1230 C1218 0.956 . S
H1231 C1218 0.961 . S
H1232 C1218 0.961 . S
H1233 C1219 0.958 . S
H1234 C1219 0.961 . S
H1235 C1219 0.960 . S
C1236 C1237 1.391 . S
C1236 C1238 1.394 . S
C1236 H1252 0.931 . S
C1237 C1236 1.391 . S
C1237 C1241 1.376 . S
C1238 C1236 1.394 . S
C1238 C1239 1.369 . S
C1238 C1242 1.531 . S
C1239 C1238 1.369 . S
C1239 C1240 1.410 . S
C1239 C1247 1.503 . S
C1240 C1239 1.410 . S
C1240 C1241 1.392 . S
C1240 C1243 1.511 . S
C1241 C1237 1.376 . S
C1241 C1240 1.392 . S
C1241 H1253 0.929 . S
C1242 C1238 1.531 . S
C1242 H1254 0.960 . S
C1242 H1255 0.962 . S
C1242 H1256 0.960 . S
C1243 C1240 1.511 . S
C1243 H1257 0.961 . S
C1243 H1258 0.961 . S
C1243 H1259 0.961 . S
C1244 C1245 1.370 . S
C1244 C1246 1.363 . S
C1244 H1260 0.931 . S
C1245 C1244 1.370 . S
C1245 C1249 1.408 . S
C1246 C1244 1.363 . S
C1246 C1247 1.370 . S
C1246 C1250 1.524 . S
C1247 C1239 1.503 . S
C1247 C1246 1.370 . S
C1247 C1248 1.403 . S
C1248 C1247 1.403 . S
C1248 C1249 1.404 . S
C1248 C1251 1.539 . S
C1249 C1245 1.408 . S
C1249 C1248 1.404 . S
C1249 H1261 0.930 . S
C1250 C1246 1.524 . S
C1250 H1262 0.956 . S
C1250 H1263 0.961 . S
C1250 H1264 0.961 1_554 S
C1251 C1248 1.539 . S
C1251 H1265 0.958 . S
C1251 H1266 0.961 . S
C1251 H1267 0.960 . S
H1252 C1236 0.931 . S
H1253 C1241 0.929 . S
H1254 C1242 0.960 . S
H1255 C1242 0.962 . S
H1256 C1242 0.960 . S
H1257 C1243 0.961 . S
H1258 C1243 0.961 . S
H1259 C1243 0.961 . S
H1260 C1244 0.931 . S
H1261 C1249 0.930 . S
H1262 C1250 0.956 . S
H1263 C1250 0.961 . S
H1264 C1250 0.961 1_556 S
H1265 C1251 0.958 . S
H1266 C1251 0.961 . S
H1267 C1251 0.960 . S
C1268 C1269 1.391 . S
C1268 C1270 1.394 . S
C1268 H1284 0.931 . S
C1269 C1268 1.391 . S
C1269 C1273 1.376 . S
C1270 C1268 1.394 . S
C1270 C1271 1.369 . S
C1270 C1274 1.531 . S
C1271 C1270 1.369 . S
C1271 C1272 1.410 . S
C1271 C1279 1.503 . S
C1272 C1271 1.410 . S
C1272 C1273 1.392 . S
C1272 C1275 1.511 1_455 S
C1273 C1269 1.376 . S
C1273 C1272 1.392 . S
C1273 H1285 0.929 . S
C1274 C1270 1.531 . S
C1274 H1286 0.960 . S
C1274 H1287 0.962 . S
C1274 H1288 0.960 . S
C1275 C1272 1.511 1_655 S
C1275 H1289 0.961 . S
C1275 H1290 0.961 . S
C1275 H1291 0.961 . S
C1276 C1277 1.370 . S
C1276 C1278 1.363 . S
C1276 H1292 0.931 . S
C1277 C1276 1.370 . S
C1277 C1281 1.408 . S
C1278 C1276 1.363 . S
C1278 C1279 1.370 . S
C1278 C1282 1.524 . S
C1279 C1271 1.503 . S
C1279 C1278 1.370 . S
C1279 C1280 1.403 . S
C1280 C1279 1.403 . S
C1280 C1281 1.404 . S
C1280 C1283 1.549 . S
C1281 C1277 1.408 . S
C1281 C1280 1.404 . S
C1281 H1293 0.930 1_455 S
C1282 C1278 1.524 . S
C1282 H1294 0.956 . S
C1282 H1295 0.961 . S
C1282 H1296 0.961 . S
C1283 C1280 1.549 . S
C1283 H1297 0.970 . S
C1283 H1298 0.945 1_455 S
C1283 H1299 0.956 1_455 S
H1284 C1268 0.931 . S
H1285 C1273 0.929 . S
H1286 C1274 0.960 . S
H1287 C1274 0.962 . S
H1288 C1274 0.960 . S
H1289 C1275 0.961 . S
H1290 C1275 0.961 . S
H1291 C1275 0.961 . S
H1292 C1276 0.931 . S
H1293 C1281 0.930 1_655 S
H1294 C1282 0.956 . S
H1295 C1282 0.961 . S
H1296 C1282 0.961 . S
H1297 C1283 0.970 . S
H1298 C1283 0.945 1_655 S
H1299 C1283 0.956 1_655 S
C1300 C1301 1.391 . S
C1300 C1302 1.394 . S
C1300 H1316 0.931 . S
C1301 C1300 1.391 . S
C1301 C1305 1.376 . S
C1302 C1300 1.394 . S
C1302 C1303 1.369 . S
C1302 C1306 1.531 . S
C1303 C1302 1.369 . S
C1303 C1304 1.410 . S
C1303 C1311 1.503 . S
C1304 C1303 1.410 . S
C1304 C1305 1.392 . S
C1304 C1307 1.511 . S
C1305 C1301 1.376 . S
C1305 C1304 1.392 . S
C1305 H1317 0.929 . S
C1306 C1302 1.531 . S
C1306 H1318 0.960 . S
C1306 H1319 0.962 . S
C1306 H1320 0.960 . S
C1307 C1304 1.511 . S
C1307 H1321 0.961 . S
C1307 H1322 0.961 . S
C1307 H1323 0.961 . S
C1308 C1309 1.370 . S
C1308 C1310 1.363 . S
C1308 H1324 0.931 . S
C1309 C1308 1.370 . S
C1309 C1313 1.408 . S
C1310 C1308 1.363 . S
C1310 C1311 1.370 . S
C1310 C1314 1.524 . S
C1311 C1303 1.503 . S
C1311 C1310 1.370 . S
C1311 C1312 1.403 . S
C1312 C1311 1.403 . S
C1312 C1313 1.404 . S
C1312 C1315 1.539 . S
C1313 C1309 1.408 . S
C1313 C1312 1.404 . S
C1313 H1325 0.930 . S
C1314 C1310 1.524 . S
C1314 H1326 0.956 . S
C1314 H1327 0.961 . S
C1314 H1328 0.961 . S
C1315 C1312 1.539 . S
C1315 H1329 0.958 . S
C1315 H1330 0.961 . S
C1315 H1331 0.960 . S
H1316 C1300 0.931 . S
H1317 C1305 0.929 . S
H1318 C1306 0.960 . S
H1319 C1306 0.962 . S
H1320 C1306 0.960 . S
H1321 C1307 0.961 . S
H1322 C1307 0.961 . S
H1323 C1307 0.961 . S
H1324 C1308 0.931 . S
H1325 C1313 0.930 . S
H1326 C1314 0.956 . S
H1327 C1314 0.961 . S
H1328 C1314 0.961 . S
H1329 C1315 0.958 . S
H1330 C1315 0.961 . S
H1331 C1315 0.960 . S
C565 C1 1.570 . S
C573 C496 1.561 . S
C597 C80 1.474 . S
C605 C518 1.454 . S
C637 C537 1.210 . S
C629 C140 1.401 . S
C661 C211 1.761 . S
C669 C558 1.480 . S
C701 C515 1.776 . S
C693 C31 1.774 . S
C733 C493 1.661 . S
C725 C61 1.635 . S
C765 C560 1.300 . S
C757 C151 1.351 . S
C797 C539 1.470 . S
C789 C200 1.490 . S
C821 C20 1.739 . S
C829 C557 1.695 . S
C861 C516 1.299 . S
C853 C121 1.591 . S
C885 C181 1.598 . S
C893 C498 1.509 . S
C917 C91 1.481 . S
C925 C536 1.518 . S
C957 C494 1.572 . S
C949 C260 1.618 . S
C981 C320 1.253 . S
C989 C514 1.274 . S
C1013 C361 1.497 . S
C1021 C540 1.246 . S
C1045 C451 1.714 . S
C1053 C561 1.395 . S
C1077 C271 1.736 . S
C1085 C517 1.722 . S
C1117 C497 1.727 . S
C1109 C301 1.755 . S
C1149 C556 1.221 . S
C1141 C380 1.212 . S
C1181 C535 1.547 . S
C1173 C440 1.545 . S
C1205 C241 1.564 . S
C1213 C559 1.536 . S
C1245 C519 1.285 . S
C1237 C391 1.503 . S
C1277 C495 1.346 . S
C1269 C421 1.461 . S
C1301 C331 1.448 . S
C1309 C538 1.447 . S
