# Generated by pormake.
# Topology csq, (4,8)-cn, num edge types: 1
# Building blocks:
#     Node 0, Type 0, BuildingBlock: MIFKUJ_clean_linker_1, # of connection points: 4
#     Node 1, Type 0, BuildingBlock: MIFKUJ_clean_linker_1, # of connection points: 4
#     Node 2, Type 0, BuildingBlock: MIFKUJ_clean_linker_1, # of connection points: 4
#     Node 3, Type 0, BuildingBlock: MIFKUJ_clean_linker_1, # of connection points: 4
#     Node 4, Type 0, BuildingBlock: MIFKUJ_clean_linker_1, # of connection points: 4
#     Node 5, Type 0, BuildingBlock: MIFKUJ_clean_linker_1, # of connection points: 4
#     Node 6, Type 1, BuildingBlock: TAGTUT_clean_sbu_3, # of connection points: 8
#     Node 7, Type 1, BuildingBlock: TAGTUT_clean_sbu_3, # of connection points: 8
#     Node 8, Type 1, BuildingBlock: TAGTUT_clean_sbu_3, # of connection points: 8
#     Edge 9, Type (0, 1), BuildingBlock: CIFDUS_clean_linker_0, # of connection points: 2
#     Edge 10, Type (0, 1), BuildingBlock: CIFDUS_clean_linker_0, # of connection points: 2
#     Edge 11, Type (0, 1), BuildingBlock: CIFDUS_clean_linker_0, # of connection points: 2
#     Edge 12, Type (0, 1), BuildingBlock: CIFDUS_clean_linker_0, # of connection points: 2
#     Edge 13, Type (0, 1), BuildingBlock: CIFDUS_clean_linker_0, # of connection points: 2
#     Edge 14, Type (0, 1), BuildingBlock: CIFDUS_clean_linker_0, # of connection points: 2
#     Edge 15, Type (0, 1), BuildingBlock: CIFDUS_clean_linker_0, # of connection points: 2
#     Edge 16, Type (0, 1), BuildingBlock: CIFDUS_clean_linker_0, # of connection points: 2
#     Edge 17, Type (0, 1), BuildingBlock: CIFDUS_clean_linker_0, # of connection points: 2
#     Edge 18, Type (0, 1), BuildingBlock: CIFDUS_clean_linker_0, # of connection points: 2
#     Edge 19, Type (0, 1), BuildingBlock: CIFDUS_clean_linker_0, # of connection points: 2
#     Edge 20, Type (0, 1), BuildingBlock: CIFDUS_clean_linker_0, # of connection points: 2
#     Edge 21, Type (0, 1), BuildingBlock: CIFDUS_clean_linker_0, # of connection points: 2
#     Edge 22, Type (0, 1), BuildingBlock: CIFDUS_clean_linker_0, # of connection points: 2
#     Edge 23, Type (0, 1), BuildingBlock: CIFDUS_clean_linker_0, # of connection points: 2
#     Edge 24, Type (0, 1), BuildingBlock: CIFDUS_clean_linker_0, # of connection points: 2
#     Edge 25, Type (0, 1), BuildingBlock: CIFDUS_clean_linker_0, # of connection points: 2
#     Edge 26, Type (0, 1), BuildingBlock: CIFDUS_clean_linker_0, # of connection points: 2
#     Edge 27, Type (0, 1), BuildingBlock: CIFDUS_clean_linker_0, # of connection points: 2
#     Edge 28, Type (0, 1), BuildingBlock: CIFDUS_clean_linker_0, # of connection points: 2
#     Edge 29, Type (0, 1), BuildingBlock: CIFDUS_clean_linker_0, # of connection points: 2
#     Edge 30, Type (0, 1), BuildingBlock: CIFDUS_clean_linker_0, # of connection points: 2
#     Edge 31, Type (0, 1), BuildingBlock: CIFDUS_clean_linker_0, # of connection points: 2
#     Edge 32, Type (0, 1), BuildingBlock: CIFDUS_clean_linker_0, # of connection points: 2
# Relax obj value: 0.028
# Max RMSD: 0.109
# Mean RMSD: 0.042
data_MOF--net-csq--node1-TAGTUT_clean_sbu_3--node2-MIFKUJ_clean_linker_1--edge1-CIFDUS_clean_linker_0
_symmetry_space_group_name_H-M    P1
_symmetry_Int_Tables_number       1
_symmetry_cell_setting            triclinic
loop_
_symmetry_equiv_pos_as_xyz
'x, y, z'
_cell_length_a     56.991089
_cell_length_b     56.306993
_cell_length_c     19.388997
_cell_angle_alpha  92.015851
_cell_angle_beta   92.749522
_cell_angle_gamma 119.9327
loop_
_atom_site_label
_atom_site_type_symbol
_atom_site_fract_x
_atom_site_fract_y
_atom_site_fract_z
_atom_type_partial_charge
H0 H 0.27867 0.47069 0.3157 0.0
H1 H 0.31835 0.4733 0.37573 0.0
H2 H 0.37042 0.5371 0.24651 0.0
H3 H 0.33043 0.53578 0.18961 0.0
H4 H 0.25653 0.49983 0.29095 0.0
H5 H 0.29979 0.46078 0.15631 0.0
H6 H 0.33494 0.45923 0.09129 0.0
H7 H 0.33328 0.51729 0.95454 0.0
H8 H 0.29887 0.51956 0.02085 0.0
H9 H 0.2198 0.50058 0.00684 0.0
H10 H 0.17876 0.48125 0.92885 0.0
H11 H 0.13653 0.41704 0.06695 0.0
H12 H 0.17809 0.43601 0.14437 0.0
H13 H 0.24845 0.47807 0.03804 0.0
H14 H 0.19802 0.51008 0.17322 0.0
H15 H 0.16026 0.5053 0.23867 0.0
H16 H 0.17276 0.45313 0.37589 0.0
H17 H 0.2097 0.4573 0.30947 0.0
C18 C 0.30154 0.50259 0.24712 0.0
C19 C 0.29862 0.48582 0.30152 0.0
C20 C 0.32134 0.48701 0.33498 0.0
C21 C 0.34744 0.50469 0.31403 0.0
C22 C 0.35056 0.52306 0.26328 0.0
C23 C 0.32773 0.52222 0.23054 0.0
C24 C 0.27708 0.49699 0.2034 0.0
C25 C 0.25469 0.49513 0.23553 0.0
C26 C 0.27483 0.49092 0.13115 0.0
C27 C 0.29689 0.49055 0.09395 0.0
C28 C 0.30742 0.47365 0.11331 0.0
C29 C 0.32751 0.47279 0.0763 0.0
C30 C 0.33683 0.48823 0.01822 0.0
C31 C 0.32641 0.50521 0.9992 0.0
C32 C 0.3067 0.50643 0.03682 0.0
C33 C 0.20194 0.46999 0.08192 0.0
C34 C 0.20175 0.4823 0.02039 0.0
C35 C 0.1784 0.4711 0.97556 0.0
C36 C 0.15467 0.44745 0.99155 0.0
C37 C 0.15465 0.43525 0.05351 0.0
C38 C 0.17824 0.44627 0.09805 0.0
C39 C 0.22769 0.48073 0.12546 0.0
C40 C 0.25035 0.48341 0.09317 0.0
C41 C 0.22985 0.48679 0.19778 0.0
C42 C 0.20662 0.48389 0.23605 0.0
C43 C 0.19241 0.49739 0.21699 0.0
C44 C 0.171 0.49486 0.25484 0.0
C45 C 0.16339 0.47875 0.31243 0.0
C46 C 0.17775 0.46535 0.33127 0.0
C47 C 0.19907 0.46791 0.29362 0.0
H48 H 0.79902 0.32317 0.10217 0.0
H49 H 0.82877 0.36283 0.03898 0.0
H50 H 0.85096 0.31199 0.91814 0.0
H51 H 0.8206 0.27237 0.98017 0.0
H52 H 0.76767 0.24696 0.98848 0.0
H53 H 0.79409 0.30398 0.26724 0.0
H54 H 0.83529 0.34078 0.33128 0.0
H55 H 0.88444 0.32157 0.20336 0.0
H56 H 0.84348 0.28513 0.13988 0.0
H57 H 0.7529 0.19731 0.25627 0.0
H58 H 0.71553 0.15847 0.3066 0.0
H59 H 0.65801 0.1668 0.17041 0.0
H60 H 0.69524 0.20674 0.12478 0.0
H61 H 0.77173 0.24958 0.24534 0.0
H62 H 0.74134 0.17359 0.08872 0.0
H63 H 0.70796 0.13127 0.02239 0.0
H64 H 0.68101 0.1776 0.90212 0.0
H65 H 0.71391 0.21974 0.97009 0.0
C66 C 0.80774 0.29489 0.04603 0.0
C67 C 0.81038 0.32065 0.06211 0.0
C68 C 0.82739 0.34329 0.02596 0.0
C69 C 0.84217 0.3406 0.97317 0.0
C70 C 0.83944 0.3147 0.95734 0.0
C71 C 0.82227 0.29205 0.99313 0.0
C72 C 0.78913 0.27076 0.08319 0.0
C73 C 0.76855 0.24758 0.04457 0.0
C74 C 0.79124 0.27084 0.15625 0.0
C75 C 0.81575 0.29223 0.19788 0.0
C76 C 0.81376 0.30762 0.25348 0.0
C77 C 0.83728 0.32852 0.29017 0.0
C78 C 0.86309 0.33422 0.27184 0.0
C79 C 0.86488 0.31802 0.21784 0.0
C80 C 0.84148 0.29723 0.18144 0.0
C81 C 0.72689 0.20467 0.18606 0.0
C82 C 0.7322 0.19107 0.23841 0.0
C83 C 0.71078 0.16856 0.26627 0.0
C84 C 0.68367 0.15912 0.24181 0.0
C85 C 0.67851 0.17349 0.19105 0.0
C86 C 0.69985 0.19623 0.16429 0.0
C87 C 0.74934 0.22649 0.15044 0.0
C88 C 0.77078 0.24909 0.18928 0.0
C89 C 0.74925 0.22505 0.0774 0.0
C90 C 0.72989 0.19973 0.03471 0.0
C91 C 0.72815 0.17458 0.04821 0.0
C92 C 0.70921 0.15046 0.01004 0.0
C93 C 0.69176 0.1511 0.95739 0.0
C94 C 0.69388 0.17641 0.94317 0.0
C95 C 0.71284 0.20053 0.98138 0.0
H96 H 0.52998 0.69347 0.0102 0.0
H97 H 0.5332 0.66194 0.92815 0.0
H98 H 0.47152 0.66283 0.79058 0.0
H99 H 0.46619 0.69179 0.8769 0.0
H100 H 0.49877 0.74023 0.9153 0.0
H101 H 0.53031 0.71351 0.17415 0.0
H102 H 0.52739 0.67505 0.23451 0.0
H103 H 0.45421 0.61935 0.10789 0.0
H104 H 0.45757 0.65819 0.04653 0.0
H105 H 0.47248 0.78675 0.08044 0.0
H106 H 0.47528 0.82079 0.16604 0.0
H107 H 0.53404 0.81079 0.29276 0.0
H108 H 0.53363 0.77958 0.20311 0.0
H109 H 0.49697 0.73278 0.16878 0.0
H110 H 0.46138 0.76262 0.93226 0.0
H111 H 0.46672 0.79949 0.86071 0.0
H112 H 0.55125 0.84753 0.93656 0.0
H113 H 0.54512 0.81084 0.01085 0.0
C114 C 0.49735 0.69451 0.95073 0.0
C115 C 0.51647 0.68614 0.9635 0.0
C116 C 0.51884 0.66867 0.91528 0.0
C117 C 0.50288 0.66001 0.85188 0.0
C118 C 0.48391 0.66867 0.83901 0.0
C119 C 0.48096 0.68544 0.88825 0.0
C120 C 0.49637 0.71497 0.99881 0.0
C121 C 0.49794 0.73833 0.97077 0.0
C122 C 0.49597 0.71289 0.07134 0.0
C123 C 0.49418 0.68883 0.10571 0.0
C124 C 0.51358 0.69304 0.15935 0.0
C125 C 0.51177 0.67097 0.19421 0.0
C126 C 0.49035 0.64404 0.17683 0.0
C127 C 0.47105 0.63976 0.12243 0.0
C128 C 0.47294 0.66195 0.08729 0.0
C129 C 0.50314 0.78079 0.1344 0.0
C130 C 0.48675 0.79268 0.1253 0.0
C131 C 0.48785 0.81168 0.17559 0.0
C132 C 0.50468 0.81852 0.2373 0.0
C133 C 0.52117 0.80663 0.24583 0.0
C134 C 0.5207 0.78839 0.19464 0.0
C135 C 0.50034 0.75849 0.08545 0.0
C136 C 0.49776 0.73461 0.11332 0.0
C137 C 0.50001 0.76011 0.01279 0.0
C138 C 0.50273 0.7842 0.97757 0.0
C139 C 0.48091 0.78136 0.9344 0.0
C140 C 0.48417 0.80234 0.89257 0.0
C141 C 0.50956 0.82648 0.89163 0.0
C142 C 0.53132 0.82944 0.93615 0.0
C143 C 0.52789 0.80852 0.97889 0.0
H144 H 0.8178 0.50725 0.17697 0.0
H145 H 0.86199 0.51831 0.23284 0.0
H146 H 0.89873 0.59868 0.15239 0.0
H147 H 0.85461 0.58738 0.09573 0.0
H148 H 0.78688 0.53732 0.18519 0.0
H149 H 0.82945 0.50565 0.02974 0.0
H150 H 0.86789 0.50997 0.96957 0.0
H151 H 0.86905 0.57535 0.85659 0.0
H152 H 0.83155 0.57191 0.91997 0.0
H153 H 0.75941 0.56898 0.93886 0.0
H154 H 0.72133 0.56459 0.86546 0.0
H155 H 0.66979 0.48356 0.93502 0.0
H156 H 0.7081 0.48851 0.01018 0.0
H157 H 0.78048 0.53256 0.9282 0.0
H158 H 0.74393 0.56909 0.10125 0.0
H159 H 0.70527 0.56494 0.16149 0.0
H160 H 0.69047 0.4872 0.23298 0.0
H161 H 0.72921 0.49154 0.17296 0.0
C162 C 0.83314 0.54652 0.1325 0.0
C163 C 0.83534 0.5273 0.17205 0.0
C164 C 0.86053 0.53352 0.2031 0.0
C165 C 0.88362 0.55921 0.196 0.0
C166 C 0.88116 0.57875 0.15827 0.0
C167 C 0.85608 0.57236 0.12629 0.0
C168 C 0.80739 0.53907 0.09321 0.0
C169 C 0.78527 0.53585 0.12904 0.0
C170 C 0.80551 0.53719 0.02008 0.0
C171 C 0.82787 0.53877 0.98029 0.0
C172 C 0.83819 0.52114 0.9926 0.0
C173 C 0.86 0.52341 0.95746 0.0
C174 C 0.87173 0.54311 0.90836 0.0
C175 C 0.8609 0.56031 0.89498 0.0
C176 C 0.83923 0.55816 0.93059 0.0
C177 C 0.73649 0.52903 0.97939 0.0
C178 C 0.73986 0.55036 0.93854 0.0
C179 C 0.71812 0.54774 0.89646 0.0
C180 C 0.69268 0.52354 0.8937 0.0
C181 C 0.68912 0.50247 0.93635 0.0
C182 C 0.71094 0.50522 0.979 0.0
C183 C 0.76022 0.53154 0.02006 0.0
C184 C 0.78198 0.53374 0.98435 0.0
C185 C 0.76167 0.53228 0.09307 0.0
C186 C 0.73929 0.53054 0.1325 0.0
C187 C 0.73243 0.55126 0.13032 0.0
C188 C 0.71047 0.54893 0.16493 0.0
C189 C 0.69484 0.52571 0.20167 0.0
C190 C 0.70204 0.5052 0.20455 0.0
C191 C 0.72421 0.50771 0.17069 0.0
H192 H 0.26421 0.86525 0.10748 0.0
H193 H 0.29782 0.905 0.05053 0.0
H194 H 0.30457 0.85064 0.90054 0.0
H195 H 0.27182 0.81094 0.95914 0.0
H196 H 0.22226 0.78668 0.99466 0.0
H197 H 0.26303 0.84611 0.26181 0.0
H198 H 0.30504 0.88326 0.32044 0.0
H199 H 0.35172 0.86698 0.17652 0.0
H200 H 0.30946 0.82954 0.11822 0.0
H201 H 0.23531 0.74218 0.25448 0.0
H202 H 0.20896 0.71222 0.34289 0.0
H203 H 0.13742 0.712 0.25733 0.0
H204 H 0.16411 0.74281 0.17062 0.0
H205 H 0.24706 0.79154 0.24559 0.0
H206 H 0.21079 0.71616 0.08301 0.0
H207 H 0.18112 0.67525 0.00657 0.0
H208 H 0.13818 0.71499 0.92837 0.0
H209 H 0.16808 0.75604 0.00472 0.0
C210 C 0.26603 0.83515 0.03861 0.0
C211 C 0.27272 0.86186 0.06192 0.0
C212 C 0.29175 0.88452 0.02927 0.0
C213 C 0.30379 0.88077 0.97157 0.0
C214 C 0.29538 0.854 0.9447 0.0
C215 C 0.2767 0.83133 0.97816 0.0
C216 C 0.25005 0.81159 0.08082 0.0
C217 C 0.22746 0.78777 0.04969 0.0
C218 C 0.25772 0.81233 0.15161 0.0
C219 C 0.28319 0.83525 0.18561 0.0
C220 C 0.2823 0.85061 0.24281 0.0
C221 C 0.30628 0.87192 0.2758 0.0
C222 C 0.33159 0.87807 0.25261 0.0
C223 C 0.33247 0.8626 0.19542 0.0
C224 C 0.30841 0.84137 0.16202 0.0
C225 C 0.20171 0.74475 0.20572 0.0
C226 C 0.21387 0.73546 0.25432 0.0
C227 C 0.19877 0.71827 0.3048 0.0
C228 C 0.17117 0.71001 0.30778 0.0
C229 C 0.15878 0.71845 0.25734 0.0
C230 C 0.17391 0.73568 0.20691 0.0
C231 C 0.21871 0.76658 0.16005 0.0
C232 C 0.24155 0.79029 0.19069 0.0
C233 C 0.21208 0.76498 0.08808 0.0
C234 C 0.19149 0.73904 0.04987 0.0
C235 C 0.19465 0.71587 0.05044 0.0
C236 C 0.17794 0.69268 0.00622 0.0
C237 C 0.1576 0.69215 0.96117 0.0
C238 C 0.15371 0.71491 0.96267 0.0
C239 C 0.17071 0.73829 0.00623 0.0
H240 H 0.51624 0.20172 0.15179 0.0
H241 H 0.53464 0.18134 0.07203 0.0
H242 H 0.4625 0.15142 0.93315 0.0
H243 H 0.44461 0.17201 0.01207 0.0
H244 H 0.47322 0.22804 0.0422 0.0
H245 H 0.48595 0.20437 0.33019 0.0
H246 H 0.48635 0.16899 0.39673 0.0
H247 H 0.44778 0.11065 0.21914 0.0
H248 H 0.44407 0.14521 0.15652 0.0
H249 H 0.4132 0.23346 0.2653 0.0
H250 H 0.41234 0.2656 0.35341 0.0
H251 H 0.49725 0.32213 0.332 0.0
H252 H 0.49786 0.29051 0.24307 0.0
H253 H 0.45205 0.21442 0.28721 0.0
H254 H 0.42816 0.2642 0.12867 0.0
H255 H 0.4309 0.30157 0.06152 0.0
H256 H 0.50451 0.31288 0.97971 0.0
H257 H 0.50299 0.27702 0.04982 0.0
C258 C 0.47905 0.18812 0.08769 0.0
C259 C 0.50431 0.19035 0.10462 0.0
C260 C 0.51486 0.17895 0.05891 0.0
C261 C 0.50029 0.16543 0.99571 0.0
C262 C 0.47458 0.16248 0.98044 0.0
C263 C 0.46412 0.17381 0.02588 0.0
C264 C 0.46982 0.20396 0.12869 0.0
C265 C 0.46878 0.2253 0.09611 0.0
C266 C 0.46378 0.19968 0.19868 0.0
C267 C 0.46524 0.17786 0.23744 0.0
C268 C 0.47713 0.18383 0.30573 0.0
C269 C 0.47779 0.16348 0.34371 0.0
C270 C 0.46728 0.13659 0.31398 0.0
C271 C 0.45566 0.13076 0.24516 0.0
C272 C 0.45415 0.15091 0.20808 0.0
C273 C 0.45549 0.25999 0.24726 0.0
C274 C 0.43144 0.25301 0.27898 0.0
C275 C 0.43102 0.27109 0.32946 0.0
C276 C 0.45487 0.29583 0.34996 0.0
C277 C 0.47879 0.30284 0.31763 0.0
C278 C 0.47905 0.28509 0.26631 0.0
C279 C 0.45732 0.23961 0.20196 0.0
C280 C 0.45679 0.21729 0.23355 0.0
C281 C 0.46348 0.2439 0.13209 0.0
C282 C 0.46543 0.26764 0.0951 0.0
C283 C 0.44527 0.27507 0.09775 0.0
C284 C 0.4466 0.29616 0.05864 0.0
C285 C 0.46768 0.30966 0.01483 0.0
C286 C 0.48784 0.30241 0.01228 0.0
C287 C 0.48691 0.2819 0.0525 0.0
C288 C 0.056 0.48729 0.54936 0.0
C289 C 0.03205 0.44568 0.79751 0.0
C290 C 0.95747 0.44431 0.7502 0.0
Mg291 Mg 0.0337 0.52296 0.47319 0.0
Mg292 Mg 0.01829 0.56347 0.56451 0.0
O293 O 0.01186 0.52769 0.54527 0.0
Mg294 Mg 0.01855 0.50847 0.62105 0.0
O295 O 0.02552 0.48753 0.69191 0.0
Mg296 Mg 0.00528 0.44966 0.64321 0.0
Mg297 Mg 0.01521 0.49011 0.78089 0.0
C298 C 0.98138 0.53247 0.68651 0.0
O299 O 0.04839 0.54831 0.68785 0.0
O300 O 0.01274 0.53929 0.39833 0.0
O301 O 0.03638 0.53459 0.7953 0.0
O302 O 0.06951 0.5668 0.49471 0.0
O303 O 0.00183 0.56554 0.46474 0.0
O304 O 0.06122 0.59261 0.56811 0.0
O305 O 0.98836 0.46755 0.56225 0.0
O306 O -0.00194 0.47924 0.45434 0.0
C307 C 0.98424 0.46144 0.49689 0.0
C308 C 0.00196 0.55449 0.40587 0.0
O309 O 0.98579 0.51226 0.67836 0.0
O310 O 0.02483 0.43723 0.73328 0.0
O311 O 0.99362 0.55444 0.65367 0.0
O312 O 0.96684 0.43534 0.70374 0.0
O313 O 0.03002 0.46545 0.82573 0.0
O314 O 0.97225 0.4676 0.78287 0.0
O315 O 0.0507 0.50673 0.55847 0.0
O316 O 0.04288 0.46475 0.57916 0.0
C317 C 0.07718 0.58939 0.52988 0.0
C318 C 0.0492 0.55332 0.75352 0.0
C319 C 0.50579 0.03883 0.51596 0.0
C320 C 0.58221 0.0249 0.42153 0.0
C321 C 0.53656 0.94365 0.49758 0.0
Mg322 Mg 0.47029 0.01335 0.64529 0.0
Mg323 Mg 0.49078 0.9911 0.77571 0.0
O324 O 0.48347 0.98839 0.67983 0.0
Mg325 Mg 0.51345 -0.00215 0.6179 0.0
O326 O 0.54151 0.00788 0.55033 0.0
Mg327 Mg 0.51719 0.99039 0.46338 0.0
Mg328 Mg 0.57044 0.00112 0.56634 0.0
C329 C 0.51874 0.95709 0.73026 0.0
O330 O 0.54832 0.02699 0.69747 0.0
O331 O 0.43429 0.99049 0.71503 0.0
O332 O 0.58385 0.02217 0.66954 0.0
O333 O 0.49431 0.04695 0.73361 0.0
O334 O 0.44988 0.9757 0.80294 0.0
O335 O 0.51386 0.03293 0.81171 0.0
O336 O 0.48103 0.96987 0.53245 0.0
O337 O 0.44928 0.98075 0.55619 0.0
C338 C 0.45777 0.96776 0.51874 0.0
C339 C 0.43092 0.97793 0.77102 0.0
O340 O 0.5191 0.96298 0.66636 0.0
O341 O 0.55661 0.01474 0.40653 0.0
O342 O 0.51063 0.96713 0.77775 0.0
O343 O 0.52328 0.95318 0.46552 0.0
O344 O 0.59195 0.02201 0.47951 0.0
O345 O 0.55524 0.95797 0.54504 0.0
O346 O 0.50679 0.03232 0.57832 0.0
O347 O 0.51018 0.02679 0.46526 0.0
C348 C 0.50985 0.05151 0.78825 0.0
C349 C 0.57293 0.03219 0.70898 0.0
C350 C 0.52782 0.54746 0.69233 0.0
C351 C 0.44772 0.47178 0.8178 0.0
C352 C 0.47744 0.41899 0.74924 0.0
Mg353 Mg 0.55319 0.54213 0.55199 0.0
Mg354 Mg 0.5163 0.49351 0.43193 0.0
O355 O 0.53064 0.50186 0.5247 0.0
Mg356 Mg 0.50535 0.49038 0.60082 0.0
O357 O 0.48186 0.48085 0.67966 0.0
Mg358 Mg 0.50881 0.48895 0.76029 0.0
Mg359 Mg 0.45023 0.44629 0.67367 0.0
C360 C 0.48099 0.43572 0.49677 0.0
O361 O 0.47006 0.487 0.53329 0.0
O362 O 0.58137 0.5429 0.46661 0.0
O363 O 0.43449 0.44929 0.571 0.0
O364 O 0.53029 0.55518 0.47418 0.0
O365 O 0.55505 0.50707 0.39005 0.0
O366 O 0.50136 0.52031 0.40085 0.0
O367 O 0.53857 0.49248 0.67617 0.0
O368 O 0.57358 0.52817 0.6325 0.0
C369 C 0.56408 0.50952 0.67607 0.0
C370 C 0.57825 0.52752 0.41209 0.0
O371 O 0.48866 0.44572 0.55978 0.0
O372 O 0.47383 0.4845 0.82881 0.0
O373 O 0.48748 0.45048 0.4442 0.0
O374 O 0.49456 0.4433 0.774 0.0
O375 O 0.43523 0.4564 0.76265 0.0
O376 O 0.45949 0.41463 0.7008 0.0
O377 O 0.52215 0.53536 0.63201 0.0
O378 O 0.52307 0.5341 0.74677 0.0
C379 C 0.5118 0.54521 0.42434 0.0
C380 C 0.44493 0.46822 0.52811 0.0
H381 H 0.15173 0.51856 0.35339 0.0
H382 H 0.12386 0.43212 0.36353 0.0
H383 H 0.08842 0.42726 0.43708 0.0
H384 H 0.06597 0.44752 0.50087 0.0
H385 H 0.09292 0.53373 0.49021 0.0
H386 H 0.12778 0.53859 0.41396 0.0
C387 C 0.13769 0.4986 0.37095 0.0
C388 C 0.14069 0.4758 0.35335 0.0
C389 C 0.1172 0.49589 0.41334 0.0
C390 C 0.1224 0.45013 0.37721 0.0
C391 C 0.10201 0.44728 0.41908 0.0
C392 C 0.07943 0.46741 0.48195 0.0
C393 C 0.07682 0.49024 0.50166 0.0
C394 C 0.0994 0.47005 0.43808 0.0
C395 C 0.09438 0.51578 0.47594 0.0
C396 C 0.11439 0.51859 0.43235 0.0
H397 H 0.683 0.11233 0.27773 0.0
H398 H 0.63279 0.14977 0.26566 0.0
H399 H 0.59543 0.10914 0.30899 0.0
H400 H 0.57816 0.06468 0.35947 0.0
H401 H 0.63007 0.02989 0.38621 0.0
H402 H 0.66567 0.06775 0.328 0.0
C403 C 0.66402 0.1118 0.28522 0.0
C404 C 0.66088 0.13424 0.26839 0.0
C405 C 0.64285 0.08873 0.31249 0.0
C406 C 0.6358 0.13275 0.27705 0.0
C407 C 0.6144 0.10955 0.30227 0.0
C408 C 0.59704 0.0651 0.3509 0.0
C409 C 0.60149 0.04447 0.37588 0.0
C410 C 0.6178 0.08758 0.32088 0.0
C411 C 0.62624 0.04551 0.36656 0.0
C412 C 0.6466 0.06721 0.33385 0.0
H413 H 0.50066 0.64336 0.31524 0.0
H414 H 0.47593 0.59206 0.12502 0.0
H415 H 0.47701 0.55545 0.1867 0.0
H416 H 0.48945 0.53977 0.29263 0.0
H417 H 0.51701 0.59273 0.48042 0.0
H418 H 0.51042 0.62681 0.42176 0.0
C419 C 0.49559 0.62422 0.28705 0.0
C420 C 0.4886 0.62073 0.21525 0.0
C421 C 0.49689 0.60352 0.32248 0.0
C422 C 0.48132 0.5954 0.18024 0.0
C423 C 0.4821 0.57447 0.21545 0.0
C424 C 0.4936 0.55859 0.32095 0.0
C425 C 0.50398 0.56379 0.39069 0.0
C426 C 0.49045 0.57852 0.28631 0.0
C427 C 0.50931 0.58832 0.42655 0.0
C428 C 0.50557 0.60786 0.39302 0.0
H429 H 0.90889 0.52972 0.18209 0.0
H430 H 0.91735 0.60322 0.28369 0.0
H431 H 0.95833 0.61092 0.35061 0.0
H432 H 0.98772 0.59328 0.39057 0.0
H433 H 0.97885 0.51921 0.29065 0.0
H434 H 0.94252 0.51562 0.21101 0.0
C435 C 0.91997 0.54755 0.21842 0.0
C436 C 0.91008 0.56565 0.22922 0.0
C437 C 0.94336 0.55173 0.25667 0.0
C438 C 0.92468 0.589 0.2751 0.0
C439 C 0.948 0.59335 0.31336 0.0
C440 C 0.9782 0.57665 0.35045 0.0
C441 C 0.98556 0.55626 0.34729 0.0
C442 C 0.95698 0.57437 0.30607 0.0
C443 C 0.97347 0.53512 0.2943 0.0
C444 C 0.95251 0.53289 0.24921 0.0
H445 H 0.37654 0.87574 0.29598 0.0
H446 H 0.343 0.92957 0.29337 0.0
H447 H 0.38128 0.96359 0.3699 0.0
H448 H 0.4211 0.97565 0.44692 0.0
H449 H 0.45494 0.92217 0.45353 0.0
H450 H 0.42005 0.89057 0.36438 0.0
C451 C 0.37797 0.89517 0.31111 0.0
C452 C 0.35683 0.90004 0.29009 0.0
C453 C 0.3999 0.91451 0.35598 0.0
C454 C 0.35881 0.92522 0.31006 0.0
C455 C 0.38068 0.94467 0.35362 0.0
C456 C 0.42099 0.95717 0.42849 0.0
C457 C 0.4401 0.95085 0.45765 0.0
C458 C 0.4008 0.93912 0.37855 0.0
C459 C 0.44024 0.92729 0.43209 0.0
C460 C 0.42023 0.9092 0.3815 0.0
H461 H 0.42571 0.32114 0.34078 0.0
H462 H 0.48518 0.315 0.47261 0.0
H463 H 0.49397 0.35595 0.54312 0.0
H464 H 0.49156 0.39833 0.55074 0.0
H465 H 0.43652 0.4072 0.4081 0.0
H466 H 0.4185 0.3602 0.35927 0.0
C467 C 0.43989 0.32836 0.38639 0.0
C468 C 0.45494 0.31551 0.40176 0.0
C469 C 0.44581 0.35262 0.42401 0.0
C470 C 0.47354 0.32492 0.46018 0.0
C471 C 0.47862 0.34832 0.50009 0.0
C472 C 0.475 0.38951 0.51059 0.0
C473 C 0.46549 0.40594 0.48214 0.0
C474 C 0.46593 0.36313 0.48021 0.0
C475 C 0.44421 0.39472 0.42989 0.0
C476 C 0.43404 0.36798 0.40186 0.0
H477 H 0.54113 0.88218 0.91656 0.0
H478 H 0.48601 0.82029 0.76 0.0
H479 H 0.48728 0.85587 0.68947 0.0
H480 H 0.49986 0.90448 0.67875 0.0
H481 H 0.55486 0.96566 0.83603 0.0
H482 H 0.55887 0.93068 0.89777 0.0
C483 C 0.52988 0.87636 0.86633 0.0
C484 C 0.51301 0.84841 0.84482 0.0
C485 C 0.53086 0.89695 0.82554 0.0
C486 C 0.49849 0.84154 0.77939 0.0
C487 C 0.4994 0.86192 0.73846 0.0
C488 C 0.51345 0.91017 0.72514 0.0
C489 C 0.5271 0.93752 0.75288 0.0
C490 C 0.51492 0.8897 0.76184 0.0
C491 C 0.54427 0.94467 0.81374 0.0
C492 C 0.54634 0.92465 0.84943 0.0
H493 H 0.63875 0.5016 0.91453 0.0
H494 H 0.69688 0.53743 0.76051 0.0
H495 H 0.66187 0.53543 0.67989 0.0
H496 H 0.61574 0.52551 0.6545 0.0
H497 H 0.55617 0.48824 0.80407 0.0
H498 H 0.59071 0.48822 0.8849 0.0
C499 C 0.64362 0.50864 0.86303 0.0
C500 C 0.67051 0.52017 0.84405 0.0
C501 C 0.62323 0.5072 0.81635 0.0
C502 C 0.67653 0.52918 0.7771 0.0
C503 C 0.6565 0.52789 0.73075 0.0
C504 C 0.61025 0.51738 0.70485 0.0
C505 C 0.58365 0.50733 0.72395 0.0
C506 C 0.62998 0.51737 0.75025 0.0
C507 C 0.57663 0.49623 0.78853 0.0
C508 C 0.59637 0.4963 0.83467 0.0
H509 H 0.10274 0.66355 0.9392 0.0
H510 H 0.17542 0.66707 0.87254 0.0
H511 H 0.14811 0.62607 0.79443 0.0
H512 H 0.10334 0.58715 0.75162 0.0
H513 H 0.03092 0.58167 0.82608 0.0
H514 H 0.0581 0.62572 0.89334 0.0
C515 C 0.11252 0.65546 0.90691 0.0
C516 C 0.14096 0.66812 0.91171 0.0
C517 C 0.09669 0.63159 0.86333 0.0
C518 C 0.15349 0.65738 0.87019 0.0
C519 C 0.13792 0.63405 0.82537 0.0
C520 C 0.09364 0.59603 0.78149 0.0
C521 C 0.06535 0.58162 0.78382 0.0
C522 C 0.10949 0.62072 0.82229 0.0
C523 C 0.05277 0.59274 0.82362 0.0
C524 C 0.06828 0.61777 0.86224 0.0
H525 H 0.52439 0.13545 0.02479 0.0
H526 H 0.49984 0.16803 0.85569 0.0
H527 H 0.50617 0.13849 0.77275 0.0
H528 H 0.5097 0.09742 0.75128 0.0
H529 H 0.53325 0.06407 0.9207 0.0
H530 H 0.53742 0.1007 1.00013 0.0
C531 C 0.5213 0.13673 0.96972 0.0
C532 C 0.51085 0.15316 0.94632 0.0
C533 C 0.52455 0.11939 0.92242 0.0
C534 C 0.50709 0.15481 0.87482 0.0
C535 C 0.51075 0.13801 0.82741 0.0
C536 C 0.51634 0.09851 0.80527 0.0
C537 C 0.52012 0.07752 0.83056 0.0
C538 C 0.51801 0.11917 0.85099 0.0
C539 C 0.52957 0.07966 0.90016 0.0
C540 C 0.53184 0.10052 0.9458 0.0
H541 H 0.38627 0.49339 0.05528 0.0
H542 H 0.32861 0.47503 0.88076 0.0
H543 H 0.35778 0.46811 0.80457 0.0
H544 H 0.39907 0.46707 0.78717 0.0
H545 H 0.45879 0.48732 0.95775 0.0
H546 H 0.42951 0.49389 0.03612 0.0
C547 C 0.38023 0.48786 1.00055 0.0
C548 C 0.35538 0.48474 0.97345 0.0
C549 C 0.39739 0.48428 0.9566 0.0
C550 C 0.34775 0.47778 0.9025 0.0
C551 C 0.36436 0.47372 0.85903 0.0
C552 C 0.40572 0.47274 0.84161 0.0
C553 C 0.43092 0.47632 0.86679 0.0
C554 C 0.38912 0.47687 0.88551 0.0
C555 C 0.43942 0.48432 0.93716 0.0
C556 C 0.42267 0.48803 0.98189 0.0
H557 H 0.85141 0.34263 0.8362 0.0
H558 H 0.87593 0.39318 0.02786 0.0
H559 H 0.9107 0.43167 0.97093 0.0
H560 H 0.93802 0.44888 0.8718 0.0
H561 H 0.91655 0.39699 0.68331 0.0
H562 H 0.87664 0.36123 0.7338 0.0
C563 C 0.86435 0.36206 0.86557 0.0
C564 C 0.86123 0.36482 0.93648 0.0
C565 C 0.88496 0.38387 0.83312 0.0
C566 C 0.8777 0.39043 0.97318 0.0
C567 C 0.89777 0.41244 0.94077 0.0
C568 C 0.92432 0.43 0.84112 0.0
C569 C 0.93046 0.42547 0.77421 0.0
C570 C 0.90209 0.40912 0.87139 0.0
C571 C 0.91244 0.40088 0.73521 0.0
C572 C 0.88969 0.38037 0.76417 0.0
H573 H 0.88004 0.502 0.85905 0.0
H574 H 0.91632 0.59027 0.87424 0.0
H575 H 0.95371 0.59474 0.8091 0.0
H576 H 0.97557 0.57366 0.74511 0.0
H577 H 0.93956 0.48549 0.73068 0.0
H578 H 0.90321 0.48102 0.80036 0.0
C579 C 0.8963 0.52226 0.84907 0.0
C580 C 0.89511 0.54573 0.87111 0.0
C581 C 0.91795 0.52474 0.8121 0.0
C582 C 0.9163 0.57178 0.85673 0.0
C583 C 0.93785 0.5744 0.81989 0.0
C584 C 0.95982 0.55346 0.7574 0.0
C585 C 0.96041 0.52995 0.73287 0.0
C586 C 0.93874 0.55102 0.79672 0.0
C587 C 0.93992 0.50396 0.74977 0.0
C588 C 0.91894 0.50137 0.78908 0.0
H589 H 0.31148 0.89523 0.83849 0.0
H590 H 0.34951 0.91854 0.04623 0.0
H591 H 0.39196 0.95305 0.00271 0.0
H592 H 0.41953 0.9727 0.90475 0.0
H593 H 0.38179 0.95075 0.69676 0.0
H594 H 0.3378 0.91988 0.74101 0.0
C595 C 0.32899 0.90825 0.87403 0.0
C596 C 0.32756 0.90436 0.94522 0.0
C597 C 0.35333 0.9281 0.84862 0.0
C598 C 0.35019 0.92137 0.99121 0.0
C599 C 0.37448 0.94094 0.96636 0.0
C600 C 0.40154 0.96148 0.86931 0.0
C601 C 0.40381 0.96362 0.79776 0.0
C602 C 0.37648 0.94392 0.89508 0.0
C603 C 0.38042 0.94937 0.75216 0.0
C604 C 0.35535 0.9316 0.77739 0.0
H605 H 0.46279 0.31018 0.87447 0.0
H606 H 0.47685 0.35932 0.06382 0.0
H607 H 0.48273 0.39793 0.99765 0.0
H608 H 0.48392 0.41764 0.88662 0.0
H609 H 0.46575 0.36792 0.69603 0.0
H610 H 0.46148 0.32948 0.76159 0.0
C611 C 0.46702 0.32936 0.90085 0.0
C612 C 0.46946 0.3321 0.97375 0.0
C613 C 0.46979 0.35127 0.86229 0.0
C614 C 0.47478 0.35685 0.00779 0.0
C615 C 0.47825 0.37889 0.96999 0.0
C616 C 0.47929 0.39846 0.85932 0.0
C617 C 0.47566 0.39572 0.78658 0.0
C618 C 0.47591 0.37636 0.89735 0.0
C619 C 0.46887 0.37054 0.75197 0.0
C620 C 0.46639 0.34861 0.78948 0.0
H621 H 0.10515 0.43586 0.0281 0.0
H622 H 0.1487 0.43667 0.85168 0.0
H623 H 0.11057 0.42981 0.77338 0.0
H624 H 0.06896 0.43247 0.7563 0.0
H625 H 0.02784 0.43625 0.93367 0.0
H626 H 0.06032 0.43153 0.01042 0.0
C627 C 0.10588 0.43365 0.97254 0.0
C628 C 0.12968 0.4371 0.94543 0.0
C629 C 0.08435 0.43074 0.92807 0.0
C630 C 0.13061 0.43445 0.87342 0.0
C631 C 0.10886 0.43056 0.82875 0.0
C632 C 0.06663 0.43126 0.8115 0.0
C633 C 0.04632 0.43491 0.83963 0.0
C634 C 0.08618 0.42997 0.85552 0.0
C635 C 0.04354 0.43366 0.91121 0.0
C636 C 0.06218 0.43114 0.95507 0.0
H637 H 0.63917 0.13494 0.92034 0.0
H638 H 0.69899 0.10981 0.90401 0.0
H639 H 0.66639 0.069 0.83148 0.0
H640 H 0.62207 0.04241 0.76561 0.0
H641 H 0.56378 0.06977 0.77581 0.0
H642 H 0.59429 0.10737 0.85866 0.0
C643 C 0.64508 0.12055 0.90075 0.0
C644 C 0.67151 0.12552 0.91691 0.0
C645 C 0.62641 0.0974 0.85837 0.0
C646 C 0.67871 0.10639 0.89252 0.0
C647 C 0.66013 0.08312 0.85078 0.0
C648 C 0.61592 0.05641 0.78657 0.0
C649 C 0.59038 0.05293 0.76528 0.0
C650 C 0.63407 0.07867 0.83241 0.0
C651 C 0.58283 0.07135 0.79288 0.0
C652 C 0.60052 0.09319 0.8395 0.0
H653 H 0.54863 0.65841 0.82381 0.0
H654 H 0.46261 0.619 0.76441 0.0
H655 H 0.46541 0.58449 0.69255 0.0
H656 H 0.48992 0.56054 0.66488 0.0
H657 H 0.57311 0.59433 0.7435 0.0
H658 H 0.574 0.63596 0.78961 0.0
C659 C 0.53042 0.64224 0.7955 0.0
C660 C 0.50536 0.64119 0.80092 0.0
C661 C 0.53174 0.62134 0.75773 0.0
C662 C 0.48226 0.62063 0.76133 0.0
C663 C 0.48375 0.60063 0.72051 0.0
C664 C 0.50847 0.57756 0.68993 0.0
C665 C 0.53153 0.57495 0.70032 0.0
C666 C 0.50808 0.60017 0.72066 0.0
C667 C 0.55534 0.59643 0.73437 0.0
C668 C 0.55569 0.61995 0.76129 0.0
H669 H 0.50494 0.14296 0.41901 0.0
H670 H 0.43218 0.08054 0.30137 0.0
H671 H 0.43676 0.045 0.35709 0.0
H672 H 0.46321 0.0313 0.43295 0.0
H673 H 0.53292 0.09306 0.55903 0.0
H674 H 0.52689 0.12924 0.50865 0.0
C675 C 0.48955 0.12172 0.40639 0.0
C676 C 0.46862 0.11485 0.35393 0.0
C677 C 0.49159 0.10114 0.44082 0.0
C678 C 0.44924 0.08685 0.33889 0.0
C679 C 0.45157 0.06632 0.37157 0.0
C680 C 0.47661 0.05269 0.45055 0.0
C681 C 0.49843 0.05969 0.49946 0.0
C682 C 0.47294 0.07322 0.42154 0.0
C683 C 0.51581 0.08732 0.52197 0.0
C684 C 0.51252 0.10795 0.49258 0.0
H685 H 0.34826 0.45822 0.3384 0.0
H686 H 0.39931 0.54648 0.35297 0.0
H687 H 0.43609 0.5424 0.41127 0.0
H688 H 0.4511 0.51403 0.47149 0.0
H689 H 0.3979 0.42618 0.46614 0.0
H690 H 0.36428 0.42981 0.39126 0.0
C691 C 0.36736 0.47662 0.35479 0.0
C692 C 0.37081 0.50264 0.34314 0.0
C693 C 0.38785 0.47416 0.39036 0.0
C694 C 0.39607 0.52621 0.36189 0.0
C695 C 0.41702 0.5239 0.39555 0.0
C696 C 0.43236 0.49564 0.45279 0.0
C697 C 0.42675 0.46989 0.47464 0.0
C698 C 0.41278 0.49802 0.41194 0.0
C699 C 0.40241 0.44623 0.45051 0.0
C700 C 0.38323 0.44831 0.40785 0.0
H701 H 0.8757 0.35002 0.41007 0.0
H702 H 0.90673 0.37181 0.20913 0.0
H703 H 0.94784 0.41149 0.26216 0.0
H704 H 0.97395 0.44117 0.36374 0.0
H705 H 0.94334 0.42123 0.56561 0.0
H706 H 0.90325 0.37947 0.51416 0.0
C707 C 0.89148 0.36352 0.37807 0.0
C708 C 0.88818 0.35792 0.30577 0.0
C709 C 0.91514 0.38654 0.40896 0.0
C710 C 0.9089 0.37541 0.26493 0.0
C711 C 0.93238 0.3982 0.29515 0.0
C712 C 0.95865 0.42765 0.39683 0.0
C713 C 0.9616 0.43446 0.46841 0.0
C714 C 0.93559 0.40407 0.3669 0.0
C715 C 0.94163 0.41648 0.51036 0.0
C716 C 0.91861 0.39269 0.48088 0.0
H717 H 0.54736 0.85452 0.3277 0.0
H718 H 0.46251 0.8259 0.27311 0.0
H719 H 0.46412 0.86026 0.35579 0.0
H720 H 0.49062 0.90099 0.43567 0.0
H721 H 0.57443 0.92763 0.49548 0.0
H722 H 0.57159 0.89006 0.42163 0.0
C723 C 0.52891 0.8551 0.33481 0.0
C724 C 0.50502 0.83785 0.29246 0.0
C725 C 0.52966 0.8743 0.38417 0.0
C726 C 0.48154 0.83948 0.30266 0.0
C727 C 0.48228 0.8589 0.35076 0.0
C728 C 0.50806 0.89814 0.43377 0.0
C729 C 0.53278 0.91717 0.47011 0.0
C730 C 0.50639 0.87681 0.39056 0.0
C731 C 0.55516 0.91315 0.46806 0.0
C732 C 0.55364 0.89191 0.42515 0.0
H733 H 0.69086 0.56312 0.28624 0.0
H734 H 0.64429 0.48069 0.19145 0.0
H735 H 0.60401 0.47448 0.24591 0.0
H736 H 0.58222 0.49204 0.32159 0.0
H737 H 0.62877 0.57378 0.42097 0.0
H738 H 0.6688 0.58076 0.36324 0.0
C739 C 0.67182 0.54388 0.27734 0.0
C740 C 0.67054 0.52236 0.23504 0.0
C741 C 0.64877 0.54034 0.30952 0.0
C742 C 0.64585 0.49743 0.22441 0.0
C743 C 0.62279 0.49392 0.25526 0.0
C744 C 0.60104 0.51151 0.33034 0.0
C745 C 0.60239 0.53241 0.37535 0.0
C746 C 0.62404 0.51518 0.29808 0.0
C747 C 0.62711 0.55733 0.38662 0.0
C748 C 0.65003 0.56134 0.35363 0.0
H749 H 0.17268 0.66639 0.35979 0.0
H750 H 0.13432 0.71545 0.38188 0.0
H751 H 0.10519 0.68494 0.46569 0.0
H752 H 0.08669 0.64118 0.52052 0.0
H753 H 0.12336 0.59084 0.49323 0.0
H754 H 0.15795 0.62567 0.4265 0.0
C755 C 0.15834 0.67074 0.38397 0.0
C756 C 0.15535 0.69288 0.36354 0.0
C757 C 0.14151 0.653 0.43181 0.0
C758 C 0.13654 0.69811 0.39523 0.0
C759 C 0.12003 0.68082 0.44366 0.0
C760 C 0.10287 0.63832 0.50221 0.0
C761 C 0.10249 0.6135 0.51167 0.0
C762 C 0.12181 0.65777 0.46085 0.0
C763 C 0.1233 0.60984 0.48664 0.0
C764 C 0.14287 0.62959 0.44778 0.0
loop_
_geom_bond_atom_site_label_1
_geom_bond_atom_site_label_2
_geom_bond_distance
_geom_bond_site_symmetry_2
_ccdc_geom_bond_type
H0 C19 0.949 . S
H1 C20 0.950 . S
H2 C22 0.950 . S
H3 C23 0.950 . S
H4 C25 0.950 . S
H5 C28 0.950 . S
H6 C29 0.950 . S
H7 C31 0.951 . S
H8 C32 0.949 . S
H9 C34 0.949 . S
H10 C35 0.950 . S
H11 C37 0.950 . S
H12 C38 0.950 . S
H13 C40 0.950 . S
H14 C43 0.950 . S
H15 C44 0.950 . S
H16 C46 0.951 . S
H17 C47 0.949 . S
C18 C19 1.376 . S
C18 C23 1.386 . S
C18 C24 1.483 . S
C19 H0 0.949 . S
C19 C18 1.376 . S
C19 C20 1.397 . S
C20 H1 0.950 . S
C20 C19 1.397 . S
C20 C21 1.391 . S
C21 C20 1.391 . S
C21 C22 1.405 . S
C22 H2 0.950 . S
C22 C21 1.405 . S
C22 C23 1.367 . S
C23 H3 0.950 . S
C23 C18 1.386 . S
C23 C22 1.367 . S
C24 C18 1.483 . S
C24 C25 1.382 . S
C24 C26 1.403 . S
C25 H4 0.950 . S
C25 C24 1.382 . S
C25 C41 1.411 . S
C26 C24 1.403 . S
C26 C27 1.489 . S
C26 C40 1.411 . S
C27 C26 1.489 . S
C27 C28 1.383 . S
C27 C32 1.382 . S
C28 H5 0.950 . S
C28 C27 1.383 . S
C28 C29 1.395 . S
C29 H6 0.950 . S
C29 C28 1.395 . S
C29 C30 1.288 . S
C30 C29 1.288 . S
C30 C31 1.392 . S
C31 H7 0.951 . S
C31 C30 1.392 . S
C31 C32 1.392 . S
C32 H8 0.949 . S
C32 C27 1.382 . S
C32 C31 1.392 . S
C33 C34 1.376 . S
C33 C38 1.386 . S
C33 C39 1.483 . S
C34 H9 0.949 . S
C34 C33 1.376 . S
C34 C35 1.397 . S
C35 H10 0.950 . S
C35 C34 1.397 . S
C35 C36 1.391 . S
C36 C35 1.391 . S
C36 C37 1.405 . S
C37 H11 0.950 . S
C37 C36 1.405 . S
C37 C38 1.367 . S
C38 H12 0.950 . S
C38 C33 1.386 . S
C38 C37 1.367 . S
C39 C33 1.483 . S
C39 C40 1.382 . S
C39 C41 1.403 . S
C40 H13 0.950 . S
C40 C26 1.411 . S
C40 C39 1.382 . S
C41 C25 1.411 . S
C41 C39 1.403 . S
C41 C42 1.489 . S
C42 C41 1.489 . S
C42 C43 1.383 . S
C42 C47 1.382 . S
C43 H14 0.950 . S
C43 C42 1.383 . S
C43 C44 1.395 . S
C44 H15 0.950 . S
C44 C43 1.395 . S
C44 C45 1.288 . S
C45 C44 1.288 . S
C45 C46 1.392 . S
C46 H16 0.951 . S
C46 C45 1.392 . S
C46 C47 1.392 . S
C47 H17 0.949 . S
C47 C42 1.382 . S
C47 C46 1.392 . S
H48 C67 0.949 . S
H49 C68 0.950 . S
H50 C70 0.950 . S
H51 C71 0.950 . S
H52 C73 0.950 1_556 S
H53 C76 0.950 . S
H54 C77 0.950 . S
H55 C79 0.951 . S
H56 C80 0.949 . S
H57 C82 0.949 . S
H58 C83 0.950 . S
H59 C85 0.950 . S
H60 C86 0.950 . S
H61 C88 0.950 . S
H62 C91 0.950 . S
H63 C92 0.950 . S
H64 C94 0.951 . S
H65 C95 0.949 . S
C66 C67 1.376 1_554 S
C66 C71 1.386 . S
C66 C72 1.483 . S
C67 H48 0.949 . S
C67 C66 1.376 1_556 S
C67 C68 1.397 . S
C68 H49 0.950 . S
C68 C67 1.397 . S
C68 C69 1.391 . S
C69 C68 1.391 . S
C69 C70 1.405 . S
C70 H50 0.950 . S
C70 C69 1.405 . S
C70 C71 1.367 1_556 S
C71 H51 0.950 . S
C71 C66 1.386 . S
C71 C70 1.367 1_554 S
C72 C66 1.483 . S
C72 C73 1.382 . S
C72 C74 1.403 . S
C73 H52 0.950 1_554 S
C73 C72 1.382 . S
C73 C89 1.411 . S
C74 C72 1.403 . S
C74 C75 1.489 . S
C74 C88 1.411 . S
C75 C74 1.489 . S
C75 C76 1.383 . S
C75 C80 1.382 . S
C76 H53 0.950 . S
C76 C75 1.383 . S
C76 C77 1.395 . S
C77 H54 0.950 . S
C77 C76 1.395 . S
C77 C78 1.288 . S
C78 C77 1.288 . S
C78 C79 1.392 . S
C79 H55 0.951 . S
C79 C78 1.392 . S
C79 C80 1.392 . S
C80 H56 0.949 . S
C80 C75 1.382 . S
C80 C79 1.392 . S
C81 C82 1.376 . S
C81 C86 1.386 . S
C81 C87 1.483 . S
C82 H57 0.949 . S
C82 C81 1.376 . S
C82 C83 1.397 . S
C83 H58 0.950 . S
C83 C82 1.397 . S
C83 C84 1.391 . S
C84 C83 1.391 . S
C84 C85 1.405 . S
C85 H59 0.950 . S
C85 C84 1.405 . S
C85 C86 1.367 . S
C86 H60 0.950 . S
C86 C81 1.386 . S
C86 C85 1.367 . S
C87 C81 1.483 . S
C87 C88 1.382 . S
C87 C89 1.403 . S
C88 H61 0.950 . S
C88 C74 1.411 . S
C88 C87 1.382 . S
C89 C73 1.411 . S
C89 C87 1.403 . S
C89 C90 1.489 . S
C90 C89 1.489 . S
C90 C91 1.383 . S
C90 C95 1.382 1_554 S
C91 H62 0.950 . S
C91 C90 1.383 . S
C91 C92 1.395 1_554 S
C92 H63 0.950 . S
C92 C91 1.395 1_556 S
C92 C93 1.288 . S
C93 C92 1.288 . S
C93 C94 1.392 . S
C94 H64 0.951 . S
C94 C93 1.392 . S
C94 C95 1.392 . S
C95 H65 0.949 . S
C95 C90 1.382 1_556 S
C95 C94 1.392 . S
H96 C115 0.949 . S
H97 C116 0.950 . S
H98 C118 0.950 . S
H99 C119 0.950 . S
H100 C121 0.950 . S
H101 C124 0.950 . S
H102 C125 0.950 . S
H103 C127 0.951 . S
H104 C128 0.949 . S
H105 C130 0.949 . S
H106 C131 0.950 . S
H107 C133 0.950 . S
H108 C134 0.950 . S
H109 C136 0.950 . S
H110 C139 0.950 . S
H111 C140 0.950 . S
H112 C142 0.951 . S
H113 C143 0.949 . S
C114 C115 1.376 . S
C114 C119 1.386 . S
C114 C120 1.483 1_556 S
C115 H96 0.949 . S
C115 C114 1.376 . S
C115 C116 1.397 . S
C116 H97 0.950 . S
C116 C115 1.397 . S
C116 C117 1.391 . S
C117 C116 1.391 . S
C117 C118 1.405 . S
C118 H98 0.950 . S
C118 C117 1.405 . S
C118 C119 1.367 . S
C119 H99 0.950 . S
C119 C114 1.386 . S
C119 C118 1.367 . S
C120 C114 1.483 1_554 S
C120 C121 1.382 1_554 S
C120 C122 1.403 . S
C121 H100 0.950 . S
C121 C120 1.382 1_556 S
C121 C137 1.411 1_556 S
C122 C120 1.403 . S
C122 C123 1.489 . S
C122 C136 1.411 . S
C123 C122 1.489 . S
C123 C124 1.383 . S
C123 C128 1.382 . S
C124 H101 0.950 . S
C124 C123 1.383 . S
C124 C125 1.395 . S
C125 H102 0.950 . S
C125 C124 1.395 . S
C125 C126 1.288 . S
C126 C125 1.288 . S
C126 C127 1.392 . S
C127 H103 0.951 . S
C127 C126 1.392 . S
C127 C128 1.392 . S
C128 H104 0.949 . S
C128 C123 1.382 . S
C128 C127 1.392 . S
C129 C130 1.376 . S
C129 C134 1.386 . S
C129 C135 1.483 . S
C130 H105 0.949 . S
C130 C129 1.376 . S
C130 C131 1.397 . S
C131 H106 0.950 . S
C131 C130 1.397 . S
C131 C132 1.391 . S
C132 C131 1.391 . S
C132 C133 1.405 . S
C133 H107 0.950 . S
C133 C132 1.405 . S
C133 C134 1.367 . S
C134 H108 0.950 . S
C134 C129 1.386 . S
C134 C133 1.367 . S
C135 C129 1.483 . S
C135 C136 1.382 . S
C135 C137 1.403 . S
C136 H109 0.950 . S
C136 C122 1.411 . S
C136 C135 1.382 . S
C137 C121 1.411 1_554 S
C137 C135 1.403 . S
C137 C138 1.489 1_554 S
C138 C137 1.489 1_556 S
C138 C139 1.383 . S
C138 C143 1.382 . S
C139 H110 0.950 . S
C139 C138 1.383 . S
C139 C140 1.395 . S
C140 H111 0.950 . S
C140 C139 1.395 . S
C140 C141 1.288 . S
C141 C140 1.288 . S
C141 C142 1.392 . S
C142 H112 0.951 . S
C142 C141 1.392 . S
C142 C143 1.392 . S
C143 H113 0.949 . S
C143 C138 1.382 . S
C143 C142 1.392 . S
H144 C163 0.949 . S
H145 C164 0.950 . S
H146 C166 0.950 . S
H147 C167 0.950 . S
H148 C169 0.950 . S
H149 C172 0.950 . S
H150 C173 0.950 . S
H151 C175 0.951 . S
H152 C176 0.949 . S
H153 C178 0.949 . S
H154 C179 0.950 . S
H155 C181 0.950 . S
H156 C182 0.950 . S
H157 C184 0.950 . S
H158 C187 0.950 . S
H159 C188 0.950 . S
H160 C190 0.951 . S
H161 C191 0.949 . S
C162 C163 1.376 . S
C162 C167 1.386 . S
C162 C168 1.483 . S
C163 H144 0.949 . S
C163 C162 1.376 . S
C163 C164 1.397 . S
C164 H145 0.950 . S
C164 C163 1.397 . S
C164 C165 1.391 . S
C165 C164 1.391 . S
C165 C166 1.405 . S
C166 H146 0.950 . S
C166 C165 1.405 . S
C166 C167 1.367 . S
C167 H147 0.950 . S
C167 C162 1.386 . S
C167 C166 1.367 . S
C168 C162 1.483 . S
C168 C169 1.382 . S
C168 C170 1.403 1_554 S
C169 H148 0.950 . S
C169 C168 1.382 . S
C169 C185 1.411 . S
C170 C168 1.403 1_556 S
C170 C171 1.489 . S
C170 C184 1.411 . S
C171 C170 1.489 . S
C171 C172 1.383 . S
C171 C176 1.382 . S
C172 H149 0.950 . S
C172 C171 1.383 . S
C172 C173 1.395 . S
C173 H150 0.950 . S
C173 C172 1.395 . S
C173 C174 1.288 . S
C174 C173 1.288 . S
C174 C175 1.392 . S
C175 H151 0.951 . S
C175 C174 1.392 . S
C175 C176 1.392 . S
C176 H152 0.949 . S
C176 C171 1.382 . S
C176 C175 1.392 . S
C177 C178 1.376 . S
C177 C182 1.386 . S
C177 C183 1.483 . S
C178 H153 0.949 . S
C178 C177 1.376 . S
C178 C179 1.397 . S
C179 H154 0.950 . S
C179 C178 1.397 . S
C179 C180 1.391 . S
C180 C179 1.391 . S
C180 C181 1.405 . S
C181 H155 0.950 . S
C181 C180 1.405 . S
C181 C182 1.367 . S
C182 H156 0.950 . S
C182 C177 1.386 . S
C182 C181 1.367 . S
C183 C177 1.483 . S
C183 C184 1.382 . S
C183 C185 1.403 1_556 S
C184 H157 0.950 . S
C184 C170 1.411 . S
C184 C183 1.382 . S
C185 C169 1.411 . S
C185 C183 1.403 1_554 S
C185 C186 1.489 . S
C186 C185 1.489 . S
C186 C187 1.383 . S
C186 C191 1.382 . S
C187 H158 0.950 . S
C187 C186 1.383 . S
C187 C188 1.395 . S
C188 H159 0.950 . S
C188 C187 1.395 . S
C188 C189 1.288 . S
C189 C188 1.288 . S
C189 C190 1.392 . S
C190 H160 0.951 . S
C190 C189 1.392 . S
C190 C191 1.392 . S
C191 H161 0.949 . S
C191 C186 1.382 . S
C191 C190 1.392 . S
H192 C211 0.949 . S
H193 C212 0.950 . S
H194 C214 0.950 . S
H195 C215 0.950 . S
H196 C217 0.940 1_556 S
H197 C220 0.950 . S
H198 C221 0.950 . S
H199 C223 0.951 . S
H200 C224 0.949 . S
H201 C226 0.949 . S
H202 C227 0.950 . S
H203 C229 0.950 . S
H204 C230 0.950 . S
H205 C232 0.950 . S
H206 C235 0.950 . S
H207 C236 0.950 . S
H208 C238 0.951 . S
H209 C239 0.949 . S
C210 C211 1.376 . S
C210 C215 1.386 . S
C210 C216 1.483 . S
C211 H192 0.949 . S
C211 C210 1.376 . S
C211 C212 1.397 1_554 S
C212 H193 0.950 . S
C212 C211 1.397 1_556 S
C212 C213 1.391 . S
C213 C212 1.391 . S
C213 C214 1.405 1_556 S
C214 H194 0.950 . S
C214 C213 1.405 1_554 S
C214 C215 1.367 . S
C215 H195 0.950 . S
C215 C210 1.386 . S
C215 C214 1.367 . S
C216 C210 1.483 . S
C216 C217 1.382 . S
C216 C218 1.403 . S
C217 H196 0.940 1_554 S
C217 C216 1.382 . S
C217 C233 1.411 . S
C218 C216 1.403 . S
C218 C219 1.489 . S
C218 C232 1.411 . S
C219 C218 1.489 . S
C219 C220 1.383 . S
C219 C224 1.382 . S
C220 H197 0.950 . S
C220 C219 1.383 . S
C220 C221 1.395 . S
C221 H198 0.950 . S
C221 C220 1.395 . S
C221 C222 1.288 . S
C222 C221 1.288 . S
C222 C223 1.392 . S
C223 H199 0.951 . S
C223 C222 1.392 . S
C223 C224 1.392 . S
C224 H200 0.949 . S
C224 C219 1.382 . S
C224 C223 1.392 . S
C225 C226 1.376 . S
C225 C230 1.386 . S
C225 C231 1.483 . S
C226 H201 0.949 . S
C226 C225 1.376 . S
C226 C227 1.397 . S
C227 H202 0.950 . S
C227 C226 1.397 . S
C227 C228 1.391 . S
C228 C227 1.391 . S
C228 C229 1.405 . S
C229 H203 0.950 . S
C229 C228 1.405 . S
C229 C230 1.367 . S
C230 H204 0.950 . S
C230 C225 1.386 . S
C230 C229 1.367 . S
C231 C225 1.483 . S
C231 C232 1.382 . S
C231 C233 1.403 . S
C232 H205 0.950 . S
C232 C218 1.411 . S
C232 C231 1.382 . S
C233 C217 1.411 . S
C233 C231 1.403 . S
C233 C234 1.489 . S
C234 C233 1.489 . S
C234 C235 1.383 . S
C234 C239 1.382 1_554 S
C235 H206 0.950 . S
C235 C234 1.383 . S
C235 C236 1.395 1_554 S
C236 H207 0.950 . S
C236 C235 1.395 1_556 S
C236 C237 1.288 . S
C237 C236 1.288 . S
C237 C238 1.392 . S
C238 H208 0.951 . S
C238 C237 1.392 . S
C238 C239 1.392 . S
C239 H209 0.949 . S
C239 C234 1.382 1_556 S
C239 C238 1.392 . S
H240 C259 0.949 . S
H241 C260 0.943 1_556 S
H242 C262 0.950 . S
H243 C263 0.950 . S
H244 C265 0.950 . S
H245 C268 0.950 . S
H246 C269 0.950 . S
H247 C271 0.951 . S
H248 C272 0.949 . S
H249 C274 0.949 . S
H250 C275 0.950 . S
H251 C277 0.950 . S
H252 C278 0.950 . S
H253 C280 0.950 . S
H254 C283 0.950 . S
H255 C284 0.950 . S
H256 C286 0.951 1_556 S
H257 C287 0.949 . S
C258 C259 1.376 . S
C258 C263 1.386 . S
C258 C264 1.483 . S
C259 H240 0.949 . S
C259 C258 1.376 . S
C259 C260 1.397 . S
C260 H241 0.943 1_554 S
C260 C259 1.397 . S
C260 C261 1.391 . S
C261 C260 1.391 . S
C261 C262 1.405 . S
C262 H242 0.950 . S
C262 C261 1.405 . S
C262 C263 1.367 . S
C263 H243 0.950 . S
C263 C258 1.386 . S
C263 C262 1.367 . S
C264 C258 1.483 . S
C264 C265 1.382 . S
C264 C266 1.403 . S
C265 H244 0.950 . S
C265 C264 1.382 . S
C265 C281 1.411 . S
C266 C264 1.403 . S
C266 C267 1.489 . S
C266 C280 1.411 . S
C267 C266 1.489 . S
C267 C268 1.383 . S
C267 C272 1.382 . S
C268 H245 0.950 . S
C268 C267 1.383 . S
C268 C269 1.395 . S
C269 H246 0.950 . S
C269 C268 1.395 . S
C269 C270 1.288 . S
C270 C269 1.288 . S
C270 C271 1.392 . S
C271 H247 0.951 . S
C271 C270 1.392 . S
C271 C272 1.392 . S
C272 H248 0.949 . S
C272 C267 1.382 . S
C272 C271 1.392 . S
C273 C274 1.376 . S
C273 C278 1.386 . S
C273 C279 1.483 . S
C274 H249 0.949 . S
C274 C273 1.376 . S
C274 C275 1.397 . S
C275 H250 0.950 . S
C275 C274 1.397 . S
C275 C276 1.391 . S
C276 C275 1.391 . S
C276 C277 1.405 . S
C277 H251 0.950 . S
C277 C276 1.405 . S
C277 C278 1.367 . S
C278 H252 0.950 . S
C278 C273 1.386 . S
C278 C277 1.367 . S
C279 C273 1.483 . S
C279 C280 1.382 . S
C279 C281 1.403 . S
C280 H253 0.950 . S
C280 C266 1.411 . S
C280 C279 1.382 . S
C281 C265 1.411 . S
C281 C279 1.403 . S
C281 C282 1.489 . S
C282 C281 1.489 . S
C282 C283 1.383 . S
C282 C287 1.382 . S
C283 H254 0.950 . S
C283 C282 1.383 . S
C283 C284 1.395 . S
C284 H255 0.950 . S
C284 C283 1.395 . S
C284 C285 1.288 . S
C285 C284 1.288 . S
C285 C286 1.392 . S
C286 H256 0.951 1_554 S
C286 C285 1.392 . S
C286 C287 1.392 . S
C287 H257 0.949 . S
C287 C282 1.382 . S
C287 C286 1.392 . S
C288 O315 1.312 . S
C288 O316 1.208 . S
C289 O310 1.331 . S
C289 O313 1.244 . S
C290 O312 1.264 . S
C290 O314 1.273 . S
Mg291 O293 1.927 1_455 S
Mg291 O300 2.081 1_455 S
Mg291 O302 2.023 . S
Mg291 O306 2.031 1_455 S
Mg291 O315 2.291 . S
Mg292 O293 1.977 1_455 S
Mg292 O303 1.938 1_455 S
Mg292 O304 1.960 . S
Mg292 O311 1.982 1_455 S
O293 Mg291 1.927 1_655 S
O293 Mg292 1.977 1_655 S
O293 Mg294 1.905 1_655 S
Mg294 O293 1.905 1_455 S
Mg294 O295 1.915 . S
Mg294 O299 2.013 . S
Mg294 O305 2.114 1_455 S
Mg294 O309 2.013 1_455 S
Mg294 O315 2.114 . S
O295 Mg294 1.915 . S
O295 Mg296 1.936 . S
O295 Mg297 1.963 . S
Mg296 O295 1.936 . S
Mg296 O305 2.291 1_455 S
Mg296 O310 2.081 . S
Mg296 O312 2.023 1_455 S
Mg296 O316 2.031 . S
Mg297 O295 1.963 . S
Mg297 O301 1.986 . S
Mg297 O313 1.942 . S
Mg297 O314 1.955 1_455 S
C298 O309 1.191 . S
C298 O311 1.307 . S
O299 Mg294 2.013 . S
O299 C318 1.191 . S
O300 Mg291 2.081 1_655 S
O300 C308 1.331 . S
O301 Mg297 1.986 . S
O301 C318 1.307 . S
O302 Mg291 2.023 . S
O302 C317 1.264 . S
O303 Mg292 1.938 1_655 S
O303 C308 1.244 . S
O304 Mg292 1.960 . S
O304 C317 1.273 . S
O305 Mg294 2.114 1_655 S
O305 Mg296 2.291 1_655 S
O305 C307 1.312 . S
O306 Mg291 2.031 1_655 S
O306 C307 1.208 . S
C307 O305 1.312 . S
C307 O306 1.208 . S
C308 O300 1.331 . S
C308 O303 1.244 . S
O309 Mg294 2.013 1_655 S
O309 C298 1.191 . S
O310 C289 1.331 . S
O310 Mg296 2.081 . S
O311 Mg292 1.982 1_655 S
O311 C298 1.307 . S
O312 C290 1.264 . S
O312 Mg296 2.023 1_655 S
O313 C289 1.244 . S
O313 Mg297 1.942 . S
O314 C290 1.273 . S
O314 Mg297 1.955 1_655 S
O315 C288 1.312 . S
O315 Mg291 2.291 . S
O315 Mg294 2.114 . S
O316 C288 1.208 . S
O316 Mg296 2.031 . S
C317 O302 1.264 . S
C317 O304 1.273 . S
C318 O299 1.191 . S
C318 O301 1.307 . S
C319 O346 1.312 . S
C319 O347 1.208 . S
C320 O341 1.331 . S
C320 O344 1.244 . S
C321 O343 1.264 . S
C321 O345 1.273 . S
Mg322 O324 1.936 1_545 S
Mg322 O331 2.081 1_545 S
Mg322 O333 2.023 . S
Mg322 O337 2.031 1_545 S
Mg322 O346 2.291 . S
Mg323 O324 1.963 . S
Mg323 O334 1.942 . S
Mg323 O335 1.955 1_565 S
Mg323 O342 1.986 . S
O324 Mg322 1.936 1_565 S
O324 Mg323 1.963 . S
O324 Mg325 1.915 1_565 S
Mg325 O324 1.915 1_545 S
Mg325 O326 1.915 . S
Mg325 O330 2.013 . S
Mg325 O336 2.114 1_545 S
Mg325 O340 2.013 1_545 S
Mg325 O346 2.114 . S
O326 Mg325 1.915 . S
O326 Mg327 1.936 . S
O326 Mg328 1.963 . S
Mg327 O326 1.936 . S
Mg327 O336 2.291 1_545 S
Mg327 O341 2.081 . S
Mg327 O343 2.023 1_545 S
Mg327 O347 2.031 . S
Mg328 O326 1.963 . S
Mg328 O332 1.986 . S
Mg328 O344 1.942 . S
Mg328 O345 1.955 1_545 S
C329 O340 1.191 . S
C329 O342 1.307 . S
O330 Mg325 2.013 . S
O330 C349 1.191 . S
O331 Mg322 2.081 1_565 S
O331 C339 1.331 . S
O332 Mg328 1.986 . S
O332 C349 1.307 . S
O333 Mg322 2.023 . S
O333 C348 1.264 . S
O334 Mg323 1.942 . S
O334 C339 1.244 . S
O335 Mg323 1.955 1_545 S
O335 C348 1.273 . S
O336 Mg325 2.114 1_565 S
O336 Mg327 2.291 1_565 S
O336 C338 1.312 . S
O337 Mg322 2.031 1_565 S
O337 C338 1.208 . S
C338 O336 1.312 . S
C338 O337 1.208 . S
C339 O331 1.331 . S
C339 O334 1.244 . S
O340 Mg325 2.013 1_565 S
O340 C329 1.191 . S
O341 C320 1.331 . S
O341 Mg327 2.081 . S
O342 Mg323 1.986 . S
O342 C329 1.307 . S
O343 C321 1.264 . S
O343 Mg327 2.023 1_565 S
O344 C320 1.244 . S
O344 Mg328 1.942 . S
O345 C321 1.273 . S
O345 Mg328 1.955 1_565 S
O346 C319 1.312 . S
O346 Mg322 2.291 . S
O346 Mg325 2.114 . S
O347 C319 1.208 . S
O347 Mg327 2.031 . S
C348 O333 1.264 . S
C348 O335 1.273 . S
C349 O330 1.191 . S
C349 O332 1.307 . S
C350 O377 1.312 . S
C350 O378 1.208 . S
C351 O372 1.331 . S
C351 O375 1.244 . S
C352 O374 1.264 . S
C352 O376 1.273 . S
Mg353 O355 1.936 . S
Mg353 O362 2.081 . S
Mg353 O364 2.023 . S
Mg353 O368 2.031 . S
Mg353 O377 2.291 . S
Mg354 O355 1.963 . S
Mg354 O365 1.942 . S
Mg354 O366 1.955 . S
Mg354 O373 1.986 . S
O355 Mg353 1.936 . S
O355 Mg354 1.963 . S
O355 Mg356 1.915 . S
Mg356 O355 1.915 . S
Mg356 O357 1.915 . S
Mg356 O361 2.013 . S
Mg356 O367 2.114 . S
Mg356 O371 2.013 . S
Mg356 O377 2.114 . S
O357 Mg356 1.915 . S
O357 Mg358 1.936 . S
O357 Mg359 1.963 . S
Mg358 O357 1.936 . S
Mg358 O367 2.291 . S
Mg358 O372 2.081 . S
Mg358 O374 2.023 . S
Mg358 O378 2.031 . S
Mg359 O357 1.963 . S
Mg359 O363 1.986 . S
Mg359 O375 1.942 . S
Mg359 O376 1.955 . S
C360 O371 1.191 . S
C360 O373 1.307 . S
O361 Mg356 2.013 . S
O361 C380 1.191 . S
O362 Mg353 2.081 . S
O362 C370 1.331 . S
O363 Mg359 1.986 . S
O363 C380 1.307 . S
O364 Mg353 2.023 . S
O364 C379 1.264 . S
O365 Mg354 1.942 . S
O365 C370 1.244 . S
O366 Mg354 1.955 . S
O366 C379 1.273 . S
O367 Mg356 2.114 . S
O367 Mg358 2.291 . S
O367 C369 1.312 . S
O368 Mg353 2.031 . S
O368 C369 1.208 . S
C369 O367 1.312 . S
C369 O368 1.208 . S
C370 O362 1.331 . S
C370 O365 1.244 . S
O371 Mg356 2.013 . S
O371 C360 1.191 . S
O372 C351 1.331 . S
O372 Mg358 2.081 . S
O373 Mg354 1.986 . S
O373 C360 1.307 . S
O374 C352 1.264 . S
O374 Mg358 2.023 . S
O375 C351 1.244 . S
O375 Mg359 1.942 . S
O376 C352 1.273 . S
O376 Mg359 1.955 . S
O377 C350 1.312 . S
O377 Mg353 2.291 . S
O377 Mg356 2.114 . S
O378 C350 1.208 . S
O378 Mg358 2.031 . S
C379 O364 1.264 . S
C379 O366 1.273 . S
C380 O361 1.191 . S
C380 O363 1.307 . S
H381 C387 0.930 . S
H382 C390 0.930 . S
H383 C391 0.930 . S
H384 C392 0.930 . S
H385 C395 0.930 . S
H386 C396 0.930 . S
C387 H381 0.930 . S
C387 C388 1.355 . S
C387 C389 1.415 . S
C388 C387 1.355 . S
C388 C390 1.419 . S
C389 C387 1.415 . S
C389 C394 1.425 . S
C389 C396 1.409 . S
C390 H382 0.930 . S
C390 C388 1.419 . S
C390 C391 1.362 . S
C391 H383 0.930 . S
C391 C390 1.362 . S
C391 C394 1.409 . S
C392 H384 0.930 . S
C392 C393 1.355 . S
C392 C394 1.415 . S
C393 C392 1.355 . S
C393 C395 1.419 . S
C394 C389 1.425 . S
C394 C391 1.409 . S
C394 C392 1.415 . S
C395 H385 0.930 . S
C395 C393 1.419 . S
C395 C396 1.362 . S
C396 H386 0.930 . S
C396 C389 1.409 . S
C396 C395 1.362 . S
H397 C403 0.930 . S
H398 C406 0.930 . S
H399 C407 0.930 . S
H400 C408 0.930 . S
H401 C411 0.930 . S
H402 C412 0.930 . S
C403 H397 0.930 . S
C403 C404 1.355 . S
C403 C405 1.415 . S
C404 C403 1.355 . S
C404 C406 1.419 . S
C405 C403 1.415 . S
C405 C410 1.425 . S
C405 C412 1.409 . S
C406 H398 0.930 . S
C406 C404 1.419 . S
C406 C407 1.362 . S
C407 H399 0.930 . S
C407 C406 1.362 . S
C407 C410 1.409 . S
C408 H400 0.930 . S
C408 C409 1.355 . S
C408 C410 1.415 . S
C409 C408 1.355 . S
C409 C411 1.419 . S
C410 C405 1.425 . S
C410 C407 1.409 . S
C410 C408 1.415 . S
C411 H401 0.930 . S
C411 C409 1.419 . S
C411 C412 1.362 . S
C412 H402 0.930 . S
C412 C405 1.409 . S
C412 C411 1.362 . S
H413 C419 0.930 . S
H414 C422 0.930 . S
H415 C423 0.930 . S
H416 C424 0.930 . S
H417 C427 0.930 . S
H418 C428 0.930 . S
C419 H413 0.930 . S
C419 C420 1.355 . S
C419 C421 1.415 . S
C420 C419 1.355 . S
C420 C422 1.419 . S
C421 C419 1.415 . S
C421 C426 1.425 . S
C421 C428 1.409 . S
C422 H414 0.930 . S
C422 C420 1.419 . S
C422 C423 1.362 . S
C423 H415 0.930 . S
C423 C422 1.362 . S
C423 C426 1.409 . S
C424 H416 0.930 . S
C424 C425 1.355 . S
C424 C426 1.415 . S
C425 C424 1.355 . S
C425 C427 1.419 . S
C426 C421 1.425 . S
C426 C423 1.409 . S
C426 C424 1.415 . S
C427 H417 0.930 . S
C427 C425 1.419 . S
C427 C428 1.362 . S
C428 H418 0.930 . S
C428 C421 1.409 . S
C428 C427 1.362 . S
H429 C435 0.930 . S
H430 C438 0.930 . S
H431 C439 0.930 . S
H432 C440 0.930 . S
H433 C443 0.930 . S
H434 C444 0.930 . S
C435 H429 0.930 . S
C435 C436 1.355 . S
C435 C437 1.415 . S
C436 C435 1.355 . S
C436 C438 1.419 . S
C437 C435 1.415 . S
C437 C442 1.425 . S
C437 C444 1.409 . S
C438 H430 0.930 . S
C438 C436 1.419 . S
C438 C439 1.362 . S
C439 H431 0.930 . S
C439 C438 1.362 . S
C439 C442 1.409 . S
C440 H432 0.930 . S
C440 C441 1.355 . S
C440 C442 1.415 . S
C441 C440 1.355 . S
C441 C443 1.419 . S
C442 C437 1.425 . S
C442 C439 1.409 . S
C442 C440 1.415 . S
C443 H433 0.930 . S
C443 C441 1.419 . S
C443 C444 1.362 . S
C444 H434 0.930 . S
C444 C437 1.409 . S
C444 C443 1.362 . S
H445 C451 0.930 . S
H446 C454 0.930 . S
H447 C455 0.930 . S
H448 C456 0.930 . S
H449 C459 0.930 . S
H450 C460 0.930 . S
C451 H445 0.930 . S
C451 C452 1.355 . S
C451 C453 1.415 . S
C452 C451 1.355 . S
C452 C454 1.419 . S
C453 C451 1.415 . S
C453 C458 1.425 . S
C453 C460 1.409 . S
C454 H446 0.930 . S
C454 C452 1.419 . S
C454 C455 1.362 . S
C455 H447 0.930 . S
C455 C454 1.362 . S
C455 C458 1.409 . S
C456 H448 0.930 . S
C456 C457 1.355 . S
C456 C458 1.415 . S
C457 C456 1.355 . S
C457 C459 1.419 . S
C458 C453 1.425 . S
C458 C455 1.409 . S
C458 C456 1.415 . S
C459 H449 0.930 . S
C459 C457 1.419 . S
C459 C460 1.362 . S
C460 H450 0.930 . S
C460 C453 1.409 . S
C460 C459 1.362 . S
H461 C467 0.930 . S
H462 C470 0.930 . S
H463 C471 0.930 . S
H464 C472 0.930 . S
H465 C475 0.930 . S
H466 C476 0.930 . S
C467 H461 0.930 . S
C467 C468 1.355 . S
C467 C469 1.415 . S
C468 C467 1.355 . S
C468 C470 1.419 . S
C469 C467 1.415 . S
C469 C474 1.425 . S
C469 C476 1.409 . S
C470 H462 0.930 . S
C470 C468 1.419 . S
C470 C471 1.362 . S
C471 H463 0.930 . S
C471 C470 1.362 . S
C471 C474 1.409 . S
C472 H464 0.930 . S
C472 C473 1.355 . S
C472 C474 1.415 . S
C473 C472 1.355 . S
C473 C475 1.419 . S
C474 C469 1.425 . S
C474 C471 1.409 . S
C474 C472 1.415 . S
C475 H465 0.930 . S
C475 C473 1.419 . S
C475 C476 1.362 . S
C476 H466 0.930 . S
C476 C469 1.409 . S
C476 C475 1.362 . S
H477 C483 0.930 . S
H478 C486 0.930 . S
H479 C487 0.930 . S
H480 C488 0.930 . S
H481 C491 0.930 . S
H482 C492 0.930 . S
C483 H477 0.930 . S
C483 C484 1.355 . S
C483 C485 1.415 . S
C484 C483 1.355 . S
C484 C486 1.419 . S
C485 C483 1.415 . S
C485 C490 1.425 . S
C485 C492 1.409 . S
C486 H478 0.930 . S
C486 C484 1.419 . S
C486 C487 1.362 . S
C487 H479 0.930 . S
C487 C486 1.362 . S
C487 C490 1.409 . S
C488 H480 0.930 . S
C488 C489 1.355 . S
C488 C490 1.415 . S
C489 C488 1.355 . S
C489 C491 1.419 . S
C490 C485 1.425 . S
C490 C487 1.409 . S
C490 C488 1.415 . S
C491 H481 0.930 . S
C491 C489 1.419 . S
C491 C492 1.362 . S
C492 H482 0.930 . S
C492 C485 1.409 . S
C492 C491 1.362 . S
H493 C499 0.930 . S
H494 C502 0.930 . S
H495 C503 0.930 . S
H496 C504 0.930 . S
H497 C507 0.930 . S
H498 C508 0.930 . S
C499 H493 0.930 . S
C499 C500 1.355 . S
C499 C501 1.415 . S
C500 C499 1.355 . S
C500 C502 1.419 . S
C501 C499 1.415 . S
C501 C506 1.425 . S
C501 C508 1.409 . S
C502 H494 0.930 . S
C502 C500 1.419 . S
C502 C503 1.362 . S
C503 H495 0.930 . S
C503 C502 1.362 . S
C503 C506 1.409 . S
C504 H496 0.930 . S
C504 C505 1.355 . S
C504 C506 1.415 . S
C505 C504 1.355 . S
C505 C507 1.419 . S
C506 C501 1.425 . S
C506 C503 1.409 . S
C506 C504 1.415 . S
C507 H497 0.930 . S
C507 C505 1.419 . S
C507 C508 1.362 . S
C508 H498 0.930 . S
C508 C501 1.409 . S
C508 C507 1.362 . S
H509 C515 0.930 . S
H510 C518 0.930 . S
H511 C519 0.930 . S
H512 C520 0.930 . S
H513 C523 0.930 . S
H514 C524 0.930 . S
C515 H509 0.930 . S
C515 C516 1.355 . S
C515 C517 1.415 . S
C516 C515 1.355 . S
C516 C518 1.419 . S
C517 C515 1.415 . S
C517 C522 1.425 . S
C517 C524 1.409 . S
C518 H510 0.930 . S
C518 C516 1.419 . S
C518 C519 1.362 . S
C519 H511 0.930 . S
C519 C518 1.362 . S
C519 C522 1.409 . S
C520 H512 0.930 . S
C520 C521 1.355 . S
C520 C522 1.415 . S
C521 C520 1.355 . S
C521 C523 1.419 . S
C522 C517 1.425 . S
C522 C519 1.409 . S
C522 C520 1.415 . S
C523 H513 0.930 . S
C523 C521 1.419 . S
C523 C524 1.362 . S
C524 H514 0.930 . S
C524 C517 1.409 . S
C524 C523 1.362 . S
H525 C531 0.930 1_554 S
H526 C534 0.930 . S
H527 C535 0.930 . S
H528 C536 0.930 . S
H529 C539 0.930 . S
H530 C540 0.930 . S
C531 H525 0.930 1_556 S
C531 C532 1.355 . S
C531 C533 1.415 . S
C532 C531 1.355 . S
C532 C534 1.419 . S
C533 C531 1.415 . S
C533 C538 1.425 . S
C533 C540 1.409 . S
C534 H526 0.930 . S
C534 C532 1.419 . S
C534 C535 1.362 . S
C535 H527 0.930 . S
C535 C534 1.362 . S
C535 C538 1.409 . S
C536 H528 0.930 . S
C536 C537 1.355 . S
C536 C538 1.415 . S
C537 C536 1.355 . S
C537 C539 1.419 . S
C538 C533 1.425 . S
C538 C535 1.409 . S
C538 C536 1.415 . S
C539 H529 0.930 . S
C539 C537 1.419 . S
C539 C540 1.362 . S
C540 H530 0.930 . S
C540 C533 1.409 . S
C540 C539 1.362 . S
H541 C547 0.930 1_554 S
H542 C550 0.930 . S
H543 C551 0.930 . S
H544 C552 0.930 . S
H545 C555 0.930 . S
H546 C556 0.930 . S
C547 H541 0.930 1_556 S
C547 C548 1.355 . S
C547 C549 1.415 . S
C548 C547 1.355 . S
C548 C550 1.419 . S
C549 C547 1.415 . S
C549 C554 1.425 . S
C549 C556 1.409 . S
C550 H542 0.930 . S
C550 C548 1.419 . S
C550 C551 1.362 . S
C551 H543 0.930 . S
C551 C550 1.362 . S
C551 C554 1.409 . S
C552 H544 0.930 . S
C552 C553 1.355 . S
C552 C554 1.415 . S
C553 C552 1.355 . S
C553 C555 1.419 . S
C554 C549 1.425 . S
C554 C551 1.409 . S
C554 C552 1.415 . S
C555 H545 0.930 . S
C555 C553 1.419 . S
C555 C556 1.362 . S
C556 H546 0.930 . S
C556 C549 1.409 . S
C556 C555 1.362 . S
H557 C563 0.930 . S
H558 C566 0.930 . S
H559 C567 0.930 . S
H560 C568 0.930 . S
H561 C571 0.930 . S
H562 C572 0.930 . S
C563 H557 0.930 . S
C563 C564 1.355 . S
C563 C565 1.415 . S
C564 C563 1.355 . S
C564 C566 1.419 . S
C565 C563 1.415 . S
C565 C570 1.425 . S
C565 C572 1.409 . S
C566 H558 0.930 . S
C566 C564 1.419 . S
C566 C567 1.362 . S
C567 H559 0.930 . S
C567 C566 1.362 . S
C567 C570 1.409 . S
C568 H560 0.930 . S
C568 C569 1.355 . S
C568 C570 1.415 . S
C569 C568 1.355 . S
C569 C571 1.419 . S
C570 C565 1.425 . S
C570 C567 1.409 . S
C570 C568 1.415 . S
C571 H561 0.930 . S
C571 C569 1.419 . S
C571 C572 1.362 . S
C572 H562 0.930 . S
C572 C565 1.409 . S
C572 C571 1.362 . S
H573 C579 0.930 . S
H574 C582 0.930 . S
H575 C583 0.930 . S
H576 C584 0.930 . S
H577 C587 0.930 . S
H578 C588 0.930 . S
C579 H573 0.930 . S
C579 C580 1.355 . S
C579 C581 1.415 . S
C580 C579 1.355 . S
C580 C582 1.419 . S
C581 C579 1.415 . S
C581 C586 1.425 . S
C581 C588 1.409 . S
C582 H574 0.930 . S
C582 C580 1.419 . S
C582 C583 1.362 . S
C583 H575 0.930 . S
C583 C582 1.362 . S
C583 C586 1.409 . S
C584 H576 0.930 . S
C584 C585 1.355 . S
C584 C586 1.415 . S
C585 C584 1.355 . S
C585 C587 1.419 . S
C586 C581 1.425 . S
C586 C583 1.409 . S
C586 C584 1.415 . S
C587 H577 0.930 . S
C587 C585 1.419 . S
C587 C588 1.362 . S
C588 H578 0.930 . S
C588 C581 1.409 . S
C588 C587 1.362 . S
H589 C595 0.930 . S
H590 C598 0.930 . S
H591 C599 0.930 . S
H592 C600 0.930 . S
H593 C603 0.930 . S
H594 C604 0.930 . S
C595 H589 0.930 . S
C595 C596 1.355 . S
C595 C597 1.415 . S
C596 C595 1.355 . S
C596 C598 1.419 . S
C597 C595 1.415 . S
C597 C602 1.425 . S
C597 C604 1.409 . S
C598 H590 0.930 . S
C598 C596 1.419 . S
C598 C599 1.362 . S
C599 H591 0.930 . S
C599 C598 1.362 . S
C599 C602 1.409 . S
C600 H592 0.930 . S
C600 C601 1.355 . S
C600 C602 1.415 . S
C601 C600 1.355 . S
C601 C603 1.419 . S
C602 C597 1.425 . S
C602 C599 1.409 . S
C602 C600 1.415 . S
C603 H593 0.930 . S
C603 C601 1.419 . S
C603 C604 1.362 . S
C604 H594 0.930 . S
C604 C597 1.409 . S
C604 C603 1.362 . S
H605 C611 0.930 . S
H606 C614 0.930 1_554 S
H607 C615 0.930 . S
H608 C616 0.930 . S
H609 C619 0.930 . S
H610 C620 0.930 . S
C611 H605 0.930 . S
C611 C612 1.355 . S
C611 C613 1.415 . S
C612 C611 1.355 . S
C612 C614 1.419 . S
C613 C611 1.415 . S
C613 C618 1.425 . S
C613 C620 1.409 . S
C614 H606 0.930 1_556 S
C614 C612 1.419 . S
C614 C615 1.362 . S
C615 H607 0.930 . S
C615 C614 1.362 . S
C615 C618 1.409 . S
C616 H608 0.930 . S
C616 C617 1.355 . S
C616 C618 1.415 . S
C617 C616 1.355 . S
C617 C619 1.419 . S
C618 C613 1.425 . S
C618 C615 1.409 . S
C618 C616 1.415 . S
C619 H609 0.930 . S
C619 C617 1.419 . S
C619 C620 1.362 . S
C620 H610 0.930 . S
C620 C613 1.409 . S
C620 C619 1.362 . S
H621 C627 0.930 1_554 S
H622 C630 0.930 . S
H623 C631 0.930 . S
H624 C632 0.930 . S
H625 C635 0.930 . S
H626 C636 0.930 . S
C627 H621 0.930 1_556 S
C627 C628 1.355 . S
C627 C629 1.415 . S
C628 C627 1.355 . S
C628 C630 1.419 . S
C629 C627 1.415 . S
C629 C634 1.425 . S
C629 C636 1.409 . S
C630 H622 0.930 . S
C630 C628 1.419 . S
C630 C631 1.362 . S
C631 H623 0.930 . S
C631 C630 1.362 . S
C631 C634 1.409 . S
C632 H624 0.930 . S
C632 C633 1.355 . S
C632 C634 1.415 . S
C633 C632 1.355 . S
C633 C635 1.419 . S
C634 C629 1.425 . S
C634 C631 1.409 . S
C634 C632 1.415 . S
C635 H625 0.930 . S
C635 C633 1.419 . S
C635 C636 1.362 . S
C636 H626 0.930 . S
C636 C629 1.409 . S
C636 C635 1.362 . S
H637 C643 0.930 . S
H638 C646 0.930 . S
H639 C647 0.930 . S
H640 C648 0.930 . S
H641 C651 0.930 . S
H642 C652 0.930 . S
C643 H637 0.930 . S
C643 C644 1.355 . S
C643 C645 1.415 . S
C644 C643 1.355 . S
C644 C646 1.419 . S
C645 C643 1.415 . S
C645 C650 1.425 . S
C645 C652 1.409 . S
C646 H638 0.930 . S
C646 C644 1.419 . S
C646 C647 1.362 . S
C647 H639 0.930 . S
C647 C646 1.362 . S
C647 C650 1.409 . S
C648 H640 0.930 . S
C648 C649 1.355 . S
C648 C650 1.415 . S
C649 C648 1.355 . S
C649 C651 1.419 . S
C650 C645 1.425 . S
C650 C647 1.409 . S
C650 C648 1.415 . S
C651 H641 0.930 . S
C651 C649 1.419 . S
C651 C652 1.362 . S
C652 H642 0.930 . S
C652 C645 1.409 . S
C652 C651 1.362 . S
H653 C659 0.930 . S
H654 C662 0.930 . S
H655 C663 0.930 . S
H656 C664 0.930 . S
H657 C667 0.930 . S
H658 C668 0.930 . S
C659 H653 0.930 . S
C659 C660 1.355 . S
C659 C661 1.415 . S
C660 C659 1.355 . S
C660 C662 1.419 . S
C661 C659 1.415 . S
C661 C666 1.425 . S
C661 C668 1.409 . S
C662 H654 0.930 . S
C662 C660 1.419 . S
C662 C663 1.362 . S
C663 H655 0.930 . S
C663 C662 1.362 . S
C663 C666 1.409 . S
C664 H656 0.930 . S
C664 C665 1.355 . S
C664 C666 1.415 . S
C665 C664 1.355 . S
C665 C667 1.419 . S
C666 C661 1.425 . S
C666 C663 1.409 . S
C666 C664 1.415 . S
C667 H657 0.930 . S
C667 C665 1.419 . S
C667 C668 1.362 . S
C668 H658 0.930 . S
C668 C661 1.409 . S
C668 C667 1.362 . S
H669 C675 0.930 . S
H670 C678 0.930 . S
H671 C679 0.930 . S
H672 C680 0.930 . S
H673 C683 0.930 . S
H674 C684 0.930 . S
C675 H669 0.930 . S
C675 C676 1.355 . S
C675 C677 1.415 . S
C676 C675 1.355 . S
C676 C678 1.419 . S
C677 C675 1.415 . S
C677 C682 1.425 . S
C677 C684 1.409 . S
C678 H670 0.930 . S
C678 C676 1.419 . S
C678 C679 1.362 . S
C679 H671 0.930 . S
C679 C678 1.362 . S
C679 C682 1.409 . S
C680 H672 0.930 . S
C680 C681 1.355 . S
C680 C682 1.415 . S
C681 C680 1.355 . S
C681 C683 1.419 . S
C682 C677 1.425 . S
C682 C679 1.409 . S
C682 C680 1.415 . S
C683 H673 0.930 . S
C683 C681 1.419 . S
C683 C684 1.362 . S
C684 H674 0.930 . S
C684 C677 1.409 . S
C684 C683 1.362 . S
H685 C691 0.930 . S
H686 C694 0.930 . S
H687 C695 0.930 . S
H688 C696 0.930 . S
H689 C699 0.930 . S
H690 C700 0.930 . S
C691 H685 0.930 . S
C691 C692 1.355 . S
C691 C693 1.415 . S
C692 C691 1.355 . S
C692 C694 1.419 . S
C693 C691 1.415 . S
C693 C698 1.425 . S
C693 C700 1.409 . S
C694 H686 0.930 . S
C694 C692 1.419 . S
C694 C695 1.362 . S
C695 H687 0.930 . S
C695 C694 1.362 . S
C695 C698 1.409 . S
C696 H688 0.930 . S
C696 C697 1.355 . S
C696 C698 1.415 . S
C697 C696 1.355 . S
C697 C699 1.419 . S
C698 C693 1.425 . S
C698 C695 1.409 . S
C698 C696 1.415 . S
C699 H689 0.930 . S
C699 C697 1.419 . S
C699 C700 1.362 . S
C700 H690 0.930 . S
C700 C693 1.409 . S
C700 C699 1.362 . S
H701 C707 0.930 . S
H702 C710 0.930 . S
H703 C711 0.930 . S
H704 C712 0.930 . S
H705 C715 0.930 . S
H706 C716 0.930 . S
C707 H701 0.930 . S
C707 C708 1.355 . S
C707 C709 1.415 . S
C708 C707 1.355 . S
C708 C710 1.419 . S
C709 C707 1.415 . S
C709 C714 1.425 . S
C709 C716 1.409 . S
C710 H702 0.930 . S
C710 C708 1.419 . S
C710 C711 1.362 . S
C711 H703 0.930 . S
C711 C710 1.362 . S
C711 C714 1.409 . S
C712 H704 0.930 . S
C712 C713 1.355 . S
C712 C714 1.415 . S
C713 C712 1.355 . S
C713 C715 1.419 . S
C714 C709 1.425 . S
C714 C711 1.409 . S
C714 C712 1.415 . S
C715 H705 0.930 . S
C715 C713 1.419 . S
C715 C716 1.362 . S
C716 H706 0.930 . S
C716 C709 1.409 . S
C716 C715 1.362 . S
H717 C723 0.930 . S
H718 C726 0.930 . S
H719 C727 0.930 . S
H720 C728 0.930 . S
H721 C731 0.930 . S
H722 C732 0.930 . S
C723 H717 0.930 . S
C723 C724 1.355 . S
C723 C725 1.415 . S
C724 C723 1.355 . S
C724 C726 1.419 . S
C725 C723 1.415 . S
C725 C730 1.425 . S
C725 C732 1.409 . S
C726 H718 0.930 . S
C726 C724 1.419 . S
C726 C727 1.362 . S
C727 H719 0.930 . S
C727 C726 1.362 . S
C727 C730 1.409 . S
C728 H720 0.930 . S
C728 C729 1.355 . S
C728 C730 1.415 . S
C729 C728 1.355 . S
C729 C731 1.419 . S
C730 C725 1.425 . S
C730 C727 1.409 . S
C730 C728 1.415 . S
C731 H721 0.930 . S
C731 C729 1.419 . S
C731 C732 1.362 . S
C732 H722 0.930 . S
C732 C725 1.409 . S
C732 C731 1.362 . S
H733 C739 0.930 . S
H734 C742 0.930 . S
H735 C743 0.930 . S
H736 C744 0.930 . S
H737 C747 0.930 . S
H738 C748 0.930 . S
C739 H733 0.930 . S
C739 C740 1.355 . S
C739 C741 1.415 . S
C740 C739 1.355 . S
C740 C742 1.419 . S
C741 C739 1.415 . S
C741 C746 1.425 . S
C741 C748 1.409 . S
C742 H734 0.930 . S
C742 C740 1.419 . S
C742 C743 1.362 . S
C743 H735 0.930 . S
C743 C742 1.362 . S
C743 C746 1.409 . S
C744 H736 0.930 . S
C744 C745 1.355 . S
C744 C746 1.415 . S
C745 C744 1.355 . S
C745 C747 1.419 . S
C746 C741 1.425 . S
C746 C743 1.409 . S
C746 C744 1.415 . S
C747 H737 0.930 . S
C747 C745 1.419 . S
C747 C748 1.362 . S
C748 H738 0.930 . S
C748 C741 1.409 . S
C748 C747 1.362 . S
H749 C755 0.930 . S
H750 C758 0.930 . S
H751 C759 0.930 . S
H752 C760 0.930 . S
H753 C763 0.930 . S
H754 C764 0.930 . S
C755 H749 0.930 . S
C755 C756 1.355 . S
C755 C757 1.415 . S
C756 C755 1.355 . S
C756 C758 1.419 . S
C757 C755 1.415 . S
C757 C762 1.425 . S
C757 C764 1.409 . S
C758 H750 0.930 . S
C758 C756 1.419 . S
C758 C759 1.362 . S
C759 H751 0.930 . S
C759 C758 1.362 . S
C759 C762 1.409 . S
C760 H752 0.930 . S
C760 C761 1.355 . S
C760 C762 1.415 . S
C761 C760 1.355 . S
C761 C763 1.419 . S
C762 C757 1.425 . S
C762 C759 1.409 . S
C762 C760 1.415 . S
C763 H753 0.930 . S
C763 C761 1.419 . S
C763 C764 1.362 . S
C764 H754 0.930 . S
C764 C757 1.409 . S
C764 C763 1.362 . S
C388 C45 1.849 . S
C393 C288 1.754 . S
C404 C84 1.565 . S
C409 C320 1.525 . S
C425 C379 1.851 . S
C420 C126 1.875 . S
C441 C308 1.404 . S
C436 C165 1.446 . S
C452 C222 1.659 . S
C457 C338 1.580 . S
C473 C360 1.280 . S
C468 C276 1.332 . S
C489 C329 1.731 . S
C484 C141 1.753 . S
C500 C180 1.411 . S
C505 C369 1.322 . S
C521 C318 1.593 . S
C516 C237 1.665 . S
C532 C261 1.547 1_556 S
C537 C348 1.506 . S
C548 C30 1.798 1_556 S
C553 C351 1.774 . S
C569 C290 1.599 . S
C564 C69 1.613 . S
C585 C298 1.686 . S
C580 C174 1.753 . S
C601 C339 1.557 . S
C596 C213 1.572 . S
C617 C352 1.916 . S
C612 C285 1.930 1_556 S
C633 C289 1.481 . S
C628 C36 1.511 1_556 S
C649 C349 1.613 . S
C644 C93 1.633 . S
C660 C117 1.305 . S
C665 C350 1.278 . S
C681 C319 1.652 . S
C676 C270 1.757 . S
C697 C380 1.299 . S
C692 C21 1.352 . S
C713 C307 1.615 . S
C708 C78 1.690 . S
C729 C321 1.510 . S
C724 C132 1.563 . S
C740 C189 1.800 . S
C745 C370 1.783 . S
C756 C228 1.665 . S
C761 C317 1.628 . S
