# Generated by pormake.
# Topology ctn, (3,4)-cn, num edge types: 1
# Building blocks:
#     Node 0, Type 0, BuildingBlock: QEWDON_clean_linker_0, # of connection points: 3
#     Node 1, Type 0, BuildingBlock: QEWDON_clean_linker_0, # of connection points: 3
#     Node 2, Type 0, BuildingBlock: QEWDON_clean_linker_0, # of connection points: 3
#     Node 3, Type 0, BuildingBlock: QEWDON_clean_linker_0, # of connection points: 3
#     Node 4, Type 0, BuildingBlock: QEWDON_clean_linker_0, # of connection points: 3
#     Node 5, Type 0, BuildingBlock: QEWDON_clean_linker_0, # of connection points: 3
#     Node 6, Type 0, BuildingBlock: QEWDON_clean_linker_0, # of connection points: 3
#     Node 7, Type 0, BuildingBlock: QEWDON_clean_linker_0, # of connection points: 3
#     Node 8, Type 0, BuildingBlock: QEWDON_clean_linker_0, # of connection points: 3
#     Node 9, Type 0, BuildingBlock: QEWDON_clean_linker_0, # of connection points: 3
#     Node 10, Type 0, BuildingBlock: QEWDON_clean_linker_0, # of connection points: 3
#     Node 11, Type 0, BuildingBlock: QEWDON_clean_linker_0, # of connection points: 3
#     Node 12, Type 0, BuildingBlock: QEWDON_clean_linker_0, # of connection points: 3
#     Node 13, Type 0, BuildingBlock: QEWDON_clean_linker_0, # of connection points: 3
#     Node 14, Type 0, BuildingBlock: QEWDON_clean_linker_0, # of connection points: 3
#     Node 15, Type 0, BuildingBlock: QEWDON_clean_linker_0, # of connection points: 3
#     Node 16, Type 1, BuildingBlock: UXUYUI_clean_sbu_0, # of connection points: 4
#     Node 17, Type 1, BuildingBlock: UXUYUI_clean_sbu_0, # of connection points: 4
#     Node 18, Type 1, BuildingBlock: UXUYUI_clean_sbu_0, # of connection points: 4
#     Node 19, Type 1, BuildingBlock: UXUYUI_clean_sbu_0, # of connection points: 4
#     Node 20, Type 1, BuildingBlock: UXUYUI_clean_sbu_0, # of connection points: 4
#     Node 21, Type 1, BuildingBlock: UXUYUI_clean_sbu_0, # of connection points: 4
#     Node 22, Type 1, BuildingBlock: UXUYUI_clean_sbu_0, # of connection points: 4
#     Node 23, Type 1, BuildingBlock: UXUYUI_clean_sbu_0, # of connection points: 4
#     Node 24, Type 1, BuildingBlock: UXUYUI_clean_sbu_0, # of connection points: 4
#     Node 25, Type 1, BuildingBlock: UXUYUI_clean_sbu_0, # of connection points: 4
#     Node 26, Type 1, BuildingBlock: UXUYUI_clean_sbu_0, # of connection points: 4
#     Node 27, Type 1, BuildingBlock: UXUYUI_clean_sbu_0, # of connection points: 4
#     Edge 28, Type (0, 1), None
#     Edge 29, Type (0, 1), None
#     Edge 30, Type (0, 1), None
#     Edge 31, Type (0, 1), None
#     Edge 32, Type (0, 1), None
#     Edge 33, Type (0, 1), None
#     Edge 34, Type (0, 1), None
#     Edge 35, Type (0, 1), None
#     Edge 36, Type (0, 1), None
#     Edge 37, Type (0, 1), None
#     Edge 38, Type (0, 1), None
#     Edge 39, Type (0, 1), None
#     Edge 40, Type (0, 1), None
#     Edge 41, Type (0, 1), None
#     Edge 42, Type (0, 1), None
#     Edge 43, Type (0, 1), None
#     Edge 44, Type (0, 1), None
#     Edge 45, Type (0, 1), None
#     Edge 46, Type (0, 1), None
#     Edge 47, Type (0, 1), None
#     Edge 48, Type (0, 1), None
#     Edge 49, Type (0, 1), None
#     Edge 50, Type (0, 1), None
#     Edge 51, Type (0, 1), None
#     Edge 52, Type (0, 1), None
#     Edge 53, Type (0, 1), None
#     Edge 54, Type (0, 1), None
#     Edge 55, Type (0, 1), None
#     Edge 56, Type (0, 1), None
#     Edge 57, Type (0, 1), None
#     Edge 58, Type (0, 1), None
#     Edge 59, Type (0, 1), None
#     Edge 60, Type (0, 1), None
#     Edge 61, Type (0, 1), None
#     Edge 62, Type (0, 1), None
#     Edge 63, Type (0, 1), None
#     Edge 64, Type (0, 1), None
#     Edge 65, Type (0, 1), None
#     Edge 66, Type (0, 1), None
#     Edge 67, Type (0, 1), None
#     Edge 68, Type (0, 1), None
#     Edge 69, Type (0, 1), None
#     Edge 70, Type (0, 1), None
#     Edge 71, Type (0, 1), None
#     Edge 72, Type (0, 1), None
#     Edge 73, Type (0, 1), None
#     Edge 74, Type (0, 1), None
#     Edge 75, Type (0, 1), None
# Relax obj value: 0.126
# Max RMSD: 0.278
# Mean RMSD: 0.158
data_MOF--net-ctn--node1-UXUYUI_clean_sbu_0--node2-QEWDON_clean_linker_0--edge1-none
_symmetry_space_group_name_H-M    P1
_symmetry_Int_Tables_number       1
_symmetry_cell_setting            triclinic
loop_
_symmetry_equiv_pos_as_xyz
'x, y, z'
_cell_length_a     35.489313
_cell_length_b     37.331115
_cell_length_c     39.713467
_cell_angle_alpha  99.262777
_cell_angle_beta   91.92467
_cell_angle_gamma 95.035873
loop_
_atom_site_label
_atom_site_type_symbol
_atom_site_fract_x
_atom_site_fract_y
_atom_site_fract_z
_atom_type_partial_charge
H0 H 0.15064 0.04981 0.07533 0.0
C1 C 0.13107 0.04513 0.0949 0.0
C2 C 0.1272 1.01101 0.10612 0.0
C3 C 0.11122 0.07391 0.10989 0.0
H4 H 0.09863 0.98008 0.14129 0.0
C5 C 0.10164 1.00594 0.13212 0.0
C6 C 0.08077 0.03477 0.14682 0.0
C7 C 0.08624 0.0684 0.13541 0.0
C8 C 0.11869 0.11124 0.10203 0.0
H9 H 0.0718 0.09124 0.14733 0.0
C10 C 0.10984 0.11954 0.06947 0.0
C11 C 0.11183 0.15625 0.06411 0.0
C12 C 0.13128 0.1395 0.12881 0.0
H13 H 0.13829 0.13363 0.15401 0.0
C14 C 0.13376 0.17557 0.12375 0.0
H15 H 0.10058 0.09748 0.04889 0.0
C16 C 0.12352 0.18399 0.09201 0.0
H17 H 0.12401 0.21254 0.08988 0.0
H18 H 0.14273 0.19721 0.14479 0.0
H19 H 0.39513 0.75042 0.28398 0.0
C20 C 0.37038 0.73071 0.28004 0.0
C21 C 0.37094 0.69823 0.29343 0.0
C22 C 0.33768 0.73884 0.26304 0.0
H23 H 0.33869 0.64887 0.30084 0.0
C24 C 0.33849 0.67342 0.28953 0.0
C25 C 0.30567 0.68059 0.27177 0.0
C26 C 0.3056 0.71339 0.25841 0.0
C27 C 0.33628 0.77556 0.25354 0.0
H28 H 0.28034 0.71962 0.24527 0.0
C29 C 0.32623 0.78031 0.21998 0.0
C30 C 0.32705 0.8157 0.21151 0.0
C31 C 0.34601 0.80639 0.27863 0.0
H32 H 0.35352 0.80341 0.30465 0.0
C33 C 0.34588 0.84131 0.27058 0.0
H34 H 0.31922 0.75664 0.2004 0.0
C35 C 0.33657 0.84601 0.23733 0.0
H36 H 0.3366 0.87352 0.23185 0.0
H37 H 0.35317 0.86486 0.29017 0.0
H38 H 0.06098 0.49581 0.0514 0.0
C39 C 0.03885 0.51393 0.05095 0.0
C40 C 0.02833 0.5348 0.08154 0.0
C41 C 0.02141 0.51655 1.01933 0.0
H42 H 0.98993 0.57417 0.10253 0.0
C43 C 0.99854 0.55756 0.07968 0.0
C44 C 0.97963 0.55887 0.0481 0.0
C45 C 0.99167 0.5386 1.01831 0.0
C46 C 0.03417 0.49693 0.98682 0.0
H47 H 0.97774 0.5401 0.99391 0.0
C48 C 0.03914 0.45951 0.98271 0.0
C49 C 0.04763 0.44034 0.95064 0.0
C50 C 0.03942 0.51551 0.959 0.0
H51 H 0.03631 0.54443 0.96162 0.0
C52 C 0.04825 0.49697 0.92741 0.0
H53 H 0.0356 0.44539 1.00432 0.0
C54 C 0.05182 0.45967 0.92305 0.0
H55 H 0.0571 0.44599 0.89774 0.0
H56 H 0.05167 0.51145 0.90602 0.0
H57 H 0.81812 0.84517 0.28469 0.0
C58 C 0.81388 0.83241 0.25813 0.0
C59 C 0.82896 0.85018 0.23242 0.0
C60 C 0.79447 0.79776 0.25015 0.0
H61 H 0.83997 0.84483 0.17902 0.0
C62 C 0.8261 0.83177 0.19828 0.0
C63 C 0.80612 0.79666 0.18953 0.0
C64 C 0.78883 0.78104 0.21603 0.0
C65 C 0.78382 0.77732 0.27778 0.0
H66 H 0.77204 0.75502 0.21088 0.0
C67 C 0.74579 0.76598 0.28221 0.0
C68 C 0.73612 0.74684 0.30899 0.0
C69 C 0.8123 0.7688 0.29974 0.0
H70 H 0.8418 0.77717 0.29653 0.0
C71 C 0.80299 0.74913 0.32576 0.0
H72 H 0.72386 0.77267 0.26525 0.0
C73 C 0.76519 0.73831 0.33051 0.0
H74 H 0.7587 0.72431 0.35177 0.0
H75 H 0.8251 0.7427 0.34264 0.0
H76 H 0.15024 0.99554 0.52228 0.0
C77 C 0.12816 1.00073 0.50465 0.0
C78 C 0.13232 0.03232 0.48934 0.0
C79 C 0.09646 0.97492 0.49616 0.0
H80 H 0.10761 0.06185 0.45333 0.0
C81 C 0.10425 0.03775 0.46533 0.0
C82 C 0.07319 1.01157 0.4552 0.0
C83 C 0.06928 0.98046 0.47131 0.0
C84 C 0.09679 0.93839 0.50653 0.0
H85 H 0.04657 0.95923 0.4629 0.0
C86 C 0.07901 0.92893 0.53581 0.0
C87 C 0.08158 0.89378 0.54456 0.0
C88 C 0.11608 0.91245 0.48609 0.0
H89 H 0.12973 0.91911 0.46358 0.0
C90 C 0.11809 0.87781 0.49434 0.0
H91 H 0.06414 0.9488 0.55184 0.0
C92 C 0.10114 0.86856 0.52326 0.0
H93 H 0.10321 0.84135 0.52896 0.0
H94 H 0.13301 0.85804 0.47828 0.0
H95 H 0.30139 0.67848 0.78477 0.0
C96 C 0.29762 0.69533 0.80913 0.0
C97 C 0.31736 0.68894 0.83845 0.0
C98 C 0.27436 0.72396 0.81025 0.0
H99 H 0.32963 0.70805 0.89226 0.0
C100 C 0.31347 0.7122 0.86984 0.0
C101 C 0.289 0.74074 0.87204 0.0
C102 C 0.2692 0.74562 0.84179 0.0
C103 C 0.25936 0.73347 0.77761 0.0
H104 H 0.25041 0.76699 0.8423 0.0
C105 C 0.2211 0.73996 0.77227 0.0
C106 C 0.20834 0.74897 0.74078 0.0
C107 C 0.28447 0.73638 0.75132 0.0
H108 H 0.31407 0.73214 0.75483 0.0
C109 C 0.27198 0.74514 0.72035 0.0
H110 H 0.20149 0.73795 0.79236 0.0
C111 C 0.23431 0.75126 0.71502 0.0
H112 H 0.22537 0.75735 0.69037 0.0
H113 H 0.29162 0.74711 0.7003 0.0
H114 H 0.97554 0.62601 0.49336 0.0
C115 C 0.96076 0.60227 0.50109 0.0
C116 C 0.95334 0.60184 0.53584 0.0
C117 C 0.94757 0.57266 0.47575 0.0
H118 H 0.926 0.56977 0.5707 0.0
C119 C 0.93315 0.57047 0.54451 0.0
C120 C 0.92086 0.54021 0.51936 0.0
C121 C 0.92833 0.54168 0.48515 0.0
C122 C 0.94709 0.57607 0.43911 0.0
H123 H 0.91712 0.51943 0.46535 0.0
C124 C 0.97974 0.57376 0.41983 0.0
C125 C 0.97712 0.57385 0.38414 0.0
C126 C 0.91213 0.5792 0.42283 0.0
H127 H 0.88674 0.58085 0.43722 0.0
C128 C 0.90936 0.57951 0.38788 0.0
H129 H 1.00669 0.57144 0.43253 0.0
C130 C 0.94133 0.57649 0.36863 0.0
H131 H 0.93763 0.57541 0.34131 0.0
H132 H 0.88213 0.58145 0.37552 0.0
H133 H 0.83798 0.84484 0.79773 0.0
C134 C 0.83605 0.82572 0.81558 0.0
C135 C 0.85962 0.79686 0.81253 0.0
C136 C 0.81214 0.8317 0.8431 0.0
H137 H 0.87618 0.75118 0.83536 0.0
C138 C 0.85806 0.77324 0.83718 0.0
C139 C 0.83394 0.77862 0.86472 0.0
C140 C 0.81097 0.80759 0.86701 0.0
C141 C 0.79133 0.86508 0.84968 0.0
H142 H 0.79223 0.81173 0.88802 0.0
C143 C 0.76947 0.87725 0.82391 0.0
C144 C 0.74851 0.90776 0.83233 0.0
C145 C 0.79303 0.88486 0.88313 0.0
H146 H 0.81021 0.87693 0.90326 0.0
C147 C 0.77282 0.91513 0.89118 0.0
H148 H 0.76785 0.86258 0.79797 0.0
C149 C 0.75051 0.92634 0.86611 0.0
H150 H 0.73497 0.94997 0.87304 0.0
H151 H 0.77437 0.92993 0.91705 0.0
H152 H 0.3362 0.34355 0.29785 0.0
C153 C 0.33473 0.32463 0.3159 0.0
C154 C 0.35911 0.29643 0.31323 0.0
C155 C 0.31051 0.33021 0.34323 0.0
H156 H 0.37689 0.25155 0.33659 0.0
C157 C 0.35813 0.27308 0.33811 0.0
C158 C 0.33372 0.27804 0.36546 0.0
C159 C 0.30988 0.30631 0.36733 0.0
C160 C 0.28861 0.36293 0.34936 0.0
H161 H 0.29085 0.31002 0.38815 0.0
C162 C 0.267 0.37461 0.32315 0.0
C163 C 0.24499 0.40444 0.33109 0.0
C164 C 0.28903 0.38257 0.3828 0.0
H165 H 0.30603 0.3751 0.40329 0.0
C166 C 0.26775 0.41215 0.39041 0.0
H167 H 0.26638 0.36008 0.29719 0.0
C168 C 0.24568 0.42284 0.36488 0.0
H169 H 0.22935 0.44597 0.37146 0.0
H170 H 0.26832 0.42684 0.41628 0.0
H171 H 0.55773 0.99304 0.55689 0.0
C172 C 0.5364 1.01191 0.55581 0.0
C173 C 0.52729 0.03493 0.58566 0.0
C174 C 0.5187 1.01334 0.52406 0.0
H175 H 0.49051 0.07634 0.60543 0.0
C176 C 0.49823 0.05835 0.58306 0.0
C177 C 0.47895 0.05849 0.55136 0.0
C178 C 0.49004 0.03639 0.52215 0.0
C179 C 0.53037 0.99149 0.49233 0.0
H180 H 0.47617 0.03708 0.49753 0.0
C181 C 0.53137 0.95354 0.48943 0.0
C182 C 0.53941 0.93295 0.45816 0.0
C183 C 0.5387 1.00858 0.46402 0.0
H184 H 0.53835 0.03782 0.46576 0.0
C185 C 0.54736 0.98811 0.43317 0.0
H186 H 0.52453 0.93995 0.51091 0.0
C187 C 0.54742 0.95039 0.43011 0.0
H188 H 0.55363 0.93474 0.40584 0.0
H189 H 0.55362 1.00146 0.41147 0.0
H190 H 0.31579 0.34284 0.78671 0.0
C191 C 0.31148 0.33043 0.76006 0.0
C192 C 0.32676 0.34846 0.73457 0.0
C193 C 0.29196 0.29585 0.7517 0.0
H194 H 0.33792 0.34365 0.68125 0.0
C195 C 0.32392 0.33039 0.70033 0.0
C196 C 0.30392 0.29534 0.6912 0.0
C197 C 0.28649 0.27944 0.71748 0.0
C198 C 0.28178 0.27473 0.77896 0.0
H199 H 0.26975 0.2534 0.71208 0.0
C200 C 0.24379 0.26524 0.78517 0.0
C201 C 0.23475 0.24458 0.81102 0.0
C202 C 0.31075 0.26321 0.79841 0.0
H203 H 0.3402 0.27016 0.79379 0.0
C204 C 0.30194 0.24223 0.82361 0.0
H205 H 0.22144 0.27425 0.77019 0.0
C206 C 0.26422 0.23297 0.82997 0.0
H207 H 0.25813 0.21762 0.85041 0.0
H208 H 0.32443 0.23342 0.83851 0.0
H209 H 0.89429 0.25814 0.78545 0.0
C210 C 0.86997 0.23793 0.78145 0.0
C211 C 0.87121 0.20561 0.79503 0.0
C212 C 0.83709 0.24526 0.76419 0.0
H213 H 0.83987 0.15569 0.80234 0.0
C214 C 0.83921 0.18018 0.79099 0.0
C215 C 0.80619 0.18664 0.77311 0.0
C216 C 0.80547 0.21927 0.75958 0.0
C217 C 0.83504 0.28166 0.7542 0.0
H218 H 0.78004 0.22494 0.74631 0.0
C219 C 0.82512 0.28568 0.72042 0.0
C220 C 0.82538 0.32077 0.71138 0.0
C221 C 0.84409 0.31291 0.77896 0.0
H222 H 0.8515 0.31048 0.80514 0.0
C223 C 0.84341 0.34755 0.77033 0.0
H224 H 0.81865 0.26168 0.7011 0.0
C225 C 0.83423 0.35153 0.73684 0.0
H226 H 0.83385 0.37882 0.73089 0.0
H227 H 0.85018 0.37144 0.78966 0.0
H228 H 0.64436 0.54775 0.57182 0.0
C229 C 0.62512 0.54316 0.59166 0.0
C230 C 0.62224 0.50941 0.60357 0.0
C231 C 0.60497 0.57179 0.60645 0.0
H232 H 0.59505 0.47888 0.6397 0.0
C233 C 0.59728 0.50447 0.63003 0.0
C234 C 0.57609 0.53315 0.64459 0.0
C235 C 0.58064 0.5665 0.6325 0.0
C236 C 0.61242 0.60898 0.59825 0.0
H237 H 0.56617 0.58933 0.64436 0.0
C238 C 0.60403 0.61697 0.56547 0.0
C239 C 0.60875 0.65333 0.5594 0.0
C240 C 0.6262 0.63728 0.62462 0.0
H241 H 0.63285 0.63165 0.64998 0.0
C242 C 0.63104 0.67308 0.61876 0.0
H243 H 0.59347 0.59512 0.54509 0.0
C244 C 0.62211 0.68116 0.5866 0.0
H245 H 0.62511 0.70948 0.58327 0.0
H246 H 0.64128 0.69476 0.63937 0.0
H247 H 0.65003 0.49579 0.02227 0.0
C248 C 0.62788 0.50087 1.00465 0.0
C249 C 0.63195 0.53236 0.98919 0.0
C250 C 0.5962 0.475 0.99633 0.0
H251 H 0.60711 0.56166 0.95307 0.0
C252 C 0.60382 0.53763 0.96517 0.0
C253 C 0.57278 0.51139 0.95518 0.0
C254 C 0.56896 0.48039 0.97145 0.0
C255 C 0.59661 0.43855 1.00686 0.0
H256 H 0.54627 0.45909 0.96316 0.0
C257 C 0.57869 0.42912 0.03609 0.0
C258 C 0.58134 0.39403 0.04499 0.0
C259 C 0.61612 0.41264 0.98661 0.0
H260 H 0.62987 0.41928 0.96414 0.0
C261 C 0.61819 0.37807 0.99498 0.0
H262 H 0.56366 0.44896 0.05199 0.0
C263 C 0.60111 0.36885 0.02385 0.0
H264 H 0.60323 0.34168 0.02965 0.0
H265 H 0.63327 0.35831 0.97906 0.0
H266 H 0.80229 0.17895 0.28417 0.0
C267 C 0.79837 0.19585 0.30847 0.0
C268 C 0.81816 0.18973 0.33786 0.0
C269 C 0.7748 0.22423 0.30944 0.0
H270 H 0.83021 0.20909 0.39167 0.0
C271 C 0.81403 0.21303 0.36919 0.0
C272 C 0.78925 0.24132 0.37124 0.0
C273 C 0.7694 0.2459 0.34092 0.0
C274 C 0.75955 0.23343 0.27676 0.0
H275 H 0.75034 0.26703 0.34132 0.0
C276 C 0.72129 0.24008 0.27168 0.0
C277 C 0.70828 0.24898 0.24023 0.0
C278 C 0.78439 0.23604 0.2502 0.0
H279 H 0.81398 0.23171 0.2535 0.0
C280 C 0.77163 0.24467 0.21926 0.0
H281 H 0.70188 0.2383 0.29195 0.0
C282 C 0.73396 0.25099 0.21421 0.0
H283 H 0.7248 0.25701 0.18961 0.0
H284 H 0.79106 0.24641 0.19902 0.0
H285 H 0.47575 0.12555 0.99504 0.0
C286 C 0.46127 0.10174 1.00292 0.0
C287 C 0.45394 0.10143 0.03769 0.0
C288 C 0.44834 0.07192 0.97771 0.0
H289 H 0.42721 0.06925 0.07279 0.0
C290 C 0.43424 0.0699 0.04656 0.0
C291 C 0.4223 0.0394 0.02155 0.0
C292 C 0.42957 0.04082 0.9873 0.0
C293 C 0.44788 0.07505 0.94101 0.0
H294 H 0.41861 1.01836 0.96759 0.0
C295 C 0.4809 0.07423 0.92218 0.0
C296 C 0.47852 0.0741 0.88646 0.0
C297 C 0.41276 0.07653 0.92426 0.0
H298 H 0.38709 0.07706 0.93831 0.0
C299 C 0.41022 0.07668 0.88928 0.0
H300 H 0.50797 0.07318 0.93523 0.0
C301 C 0.44261 0.07511 0.87046 0.0
H302 H 0.43917 0.07383 0.8431 0.0
H303 H 0.3829 0.07736 0.87655 0.0
Li304 Li 0.31192 0.90814 0.04184 0.0
Li305 Li 0.28645 0.86087 0.07204 0.0
Li306 Li 0.27631 0.84952 1.00977 0.0
Li307 Li 0.24149 0.89995 0.05115 0.0
C308 C 0.35183 0.83861 0.05019 0.0
N309 N 0.4041 0.80096 0.07973 0.0
C310 C 0.38756 0.85583 0.06171 0.0
C311 C 0.34271 0.80224 0.05366 0.0
C312 C 0.4136 0.83631 0.07656 0.0
C313 C 0.3695 0.78368 0.0687 0.0
C314 C 0.28652 0.92662 0.11782 0.0
C315 C 0.25795 0.93193 0.17243 0.0
N316 N 0.29024 0.95099 0.18744 0.0
C317 C 0.31933 0.9465 0.13374 0.0
C318 C 0.25549 0.91946 0.13725 0.0
C319 C 0.3207 0.95849 0.16898 0.0
C320 C 0.34324 0.98134 0.05432 0.0
N321 N 0.35007 0.94734 0.0391 0.0
C322 C 0.40598 0.9716 1.01545 0.0
C323 C 0.38104 0.94192 1.02036 0.0
C324 C 0.39909 1.00717 0.03013 0.0
C325 C 0.36761 1.01175 0.05035 0.0
H326 H 0.31807 0.98497 0.06862 0.0
H327 H 0.38554 0.9147 1.00808 0.0
C328 C 0.27794 0.81254 0.12443 0.0
N329 N 0.29869 0.84016 0.11283 0.0
C330 C 0.28745 0.8029 0.15613 0.0
C331 C 0.3407 0.84865 0.16248 0.0
C332 C 0.33024 0.85731 0.13085 0.0
C333 C 0.31862 0.82182 0.17602 0.0
H334 H 0.25357 0.79833 0.10976 0.0
H335 H 0.34695 0.87852 0.12098 0.0
C336 C 0.28035 0.92826 0.9875 0.0
N337 N 0.30849 0.9812 0.95126 0.0
C338 C 0.2657 0.96216 0.99154 0.0
C339 C 0.30911 0.92119 0.96483 0.0
C340 C 0.28035 0.98859 0.97303 0.0
C341 C 0.323 0.94833 0.94679 0.0
C342 C 0.21489 0.81873 0.0582 0.0
C343 C 0.21578 0.78187 0.0447 0.0
C344 C 0.1906 0.82888 0.08434 0.0
C345 C 0.19277 0.7557 0.05795 0.0
C346 C 0.16803 0.8019 0.09691 0.0
N347 N 0.1696 0.76617 0.08358 0.0
C348 C 0.28433 0.77905 0.96754 0.0
C349 C 0.27169 0.82571 0.93634 0.0
C350 C 0.28831 0.7547 0.93717 0.0
N351 N 0.27612 0.81396 0.96681 0.0
C352 C 0.27617 0.80255 0.90544 0.0
C353 C 0.28456 0.76618 0.90522 0.0
H354 H 0.28839 0.76995 0.99171 0.0
H355 H 0.26553 0.85347 0.93592 0.0
C356 C 0.21453 0.96612 0.07491 0.0
N357 N 0.20068 0.93079 0.06441 0.0
C358 C 0.19095 0.99225 0.08864 0.0
C359 C 0.13856 0.94558 0.08137 0.0
C360 C 0.16332 0.92012 0.06734 0.0
C361 C 0.15232 0.98236 0.09213 0.0
H362 H 0.24438 0.97396 0.07319 0.0
H363 H 0.15273 0.89186 0.05934 0.0
O364 O 0.3258 0.85744 0.03599 0.0
O365 O 0.28484 0.91427 0.08339 0.0
O366 O 0.26744 0.90253 1.0064 0.0
O367 O 0.23677 0.84474 0.04517 0.0
H368 H 0.39498 0.88406 0.05959 0.0
H369 H 0.31486 0.78881 0.04579 0.0
H370 H 0.44131 0.84933 0.08569 0.0
H371 H 0.36268 0.75563 0.07184 0.0
H372 H 0.23418 0.92645 0.18779 0.0
H373 H 0.34369 0.95216 0.1191 0.0
H374 H 0.22983 0.90438 0.12534 0.0
H375 H 0.34601 0.97367 0.18167 0.0
H376 H 0.4299 0.96689 0.99964 0.0
H377 H 0.36085 0.03867 0.0616 0.0
H378 H 0.26973 0.7819 0.16553 0.0
H379 H 0.36555 0.86337 0.17651 0.0
H380 H 0.24335 0.96806 1.00883 0.0
H381 H 0.3212 0.8953 0.96181 0.0
H382 H 0.26939 1.015 0.97602 0.0
H383 H 0.34552 0.94335 0.92944 0.0
H384 H 0.23402 0.77355 0.02424 0.0
H385 H 0.18923 0.85722 0.09489 0.0
H386 H 0.19331 0.72707 0.04783 0.0
H387 H 0.14925 0.80938 0.11724 0.0
H388 H 0.29421 0.72709 0.93891 0.0
H389 H 0.27388 0.81367 0.88202 0.0
H390 H 0.20315 0.02002 0.09702 0.0
H391 H 0.10898 0.93669 0.08344 0.0
Li392 Li 0.10581 0.54721 0.28394 0.0
Li393 Li 0.15384 0.50323 0.26113 0.0
Li394 Li 0.1647 0.56794 0.2592 0.0
Li395 Li 0.11567 0.53295 0.22039 0.0
C396 C 0.18312 0.56588 0.32331 0.0
N397 N 0.23457 0.61189 0.36744 0.0
C398 C 0.21988 0.55637 0.32825 0.0
C399 C 0.17237 0.59855 0.341 0.0
C400 C 0.24552 0.58007 0.35062 0.0
C401 C 0.19884 0.62151 0.36316 0.0
C402 C 0.0852 0.46464 0.23439 0.0
C403 C 0.09266 0.41542 0.18844 0.0
N404 N 0.06216 0.396 0.1987 0.0
C405 C 0.05395 0.44423 0.24449 0.0
C406 C 0.10479 0.45017 0.20617 0.0
C407 C 0.04274 0.40956 0.22611 0.0
C408 C 0.04178 0.57922 0.31045 0.0
N409 N 0.0685 0.55712 0.31719 0.0
C410 C 0.03906 0.54749 0.36891 0.0
C411 C 0.06796 0.54159 0.34594 0.0
C412 C 1.01064 0.56986 0.36234 0.0
C413 C 1.01306 0.58652 0.33298 0.0
H414 H 0.04237 0.59076 0.28719 0.0
H415 H 0.08944 0.52388 0.3506 0.0
C416 C 0.21643 0.46084 0.26577 0.0
N417 N 0.17909 0.46265 0.2721 0.0
C418 C 0.23812 0.43834 0.28203 0.0
C419 C 0.18206 0.4185 0.30937 0.0
C420 C 0.16142 0.44115 0.29249 0.0
C421 C 0.2212 0.41798 0.30522 0.0
H422 H 0.23014 0.47913 0.25044 0.0
H423 H 0.13202 0.4438 0.29784 0.0
C424 C 0.10773 0.61508 0.24547 0.0
N425 N 0.09672 0.68526 0.23606 0.0
C426 C 0.10793 0.62427 0.21271 0.0
C427 C 0.10137 0.64149 0.27339 0.0
C428 C 0.10248 0.65992 0.2085 0.0
C429 C 0.09602 0.67684 0.26812 0.0
C430 C 0.19223 0.5337 0.19584 0.0
C431 C 0.1919 0.56728 0.18459 0.0
C432 C 0.21464 0.50762 0.1799 0.0
C433 C 0.21399 0.57421 0.15749 0.0
C434 C 0.23632 0.51556 0.15285 0.0
N435 N 0.23555 0.54841 0.1423 0.0
C436 C 0.24134 0.59251 0.25879 0.0
C437 C 0.20326 0.64152 0.271 0.0
C438 C 0.27397 0.61668 0.26106 0.0
N439 N 0.20678 0.60515 0.26349 0.0
C440 C 0.23517 0.66672 0.27346 0.0
C441 C 0.27116 0.65439 0.26843 0.0
H442 H 0.24357 0.56346 0.25335 0.0
H443 H 0.17594 0.65119 0.27552 0.0
C444 C 0.05125 0.53618 0.1767 0.0
N445 N 0.08834 0.52945 0.17657 0.0
C446 C 0.03093 0.53775 0.1461 0.0
C447 C 0.08741 0.52586 0.11577 0.0
C448 C 0.10631 0.52373 0.14675 0.0
C449 C 0.04901 0.53291 0.11486 0.0
H450 H 0.03752 0.54088 0.20072 0.0
H451 H 0.1356 0.51817 0.14685 0.0
O452 O 0.158 0.54372 0.30064 0.0
O453 O 0.09659 0.49853 0.25224 0.0
O454 O 0.11221 0.5801 0.25004 0.0
O455 O 0.17118 0.52643 0.22259 0.0
H456 H 0.22862 0.53119 0.31463 0.0
H457 H 0.144 0.60624 0.33738 0.0
H458 H 0.27416 0.57323 0.35453 0.0
H459 H 0.19102 0.64702 0.37687 0.0
H460 H 0.10752 0.40388 0.16654 0.0
H461 H 0.03857 0.45507 0.26635 0.0
H462 H 0.12907 0.46554 0.19798 0.0
H463 H 1.0186 0.39343 0.23364 0.0
H464 H 0.03834 0.53362 0.39084 0.0
H465 H 0.99256 0.60466 0.32697 0.0
H466 H 0.26839 0.43945 0.27895 0.0
H467 H 0.16823 0.40378 0.32763 0.0
H468 H 0.11199 0.60409 0.19068 0.0
H469 H 0.10111 0.63491 0.29893 0.0
H470 H 0.10269 0.66741 0.1833 0.0
H471 H 0.09137 0.6976 0.28952 0.0
H472 H 0.17502 0.58786 0.19683 0.0
H473 H 0.21515 0.48146 0.18825 0.0
H474 H 0.21405 0.60011 0.14858 0.0
H475 H 0.25376 0.49561 0.14024 0.0
H476 H 0.3011 0.60594 0.25687 0.0
H477 H 0.23176 0.69552 0.27994 0.0
H478 H 1.00134 0.54261 0.14706 0.0
H479 H 0.10331 0.52272 0.09289 0.0
Li480 Li 0.77736 0.64133 1.00771 0.0
Li481 Li 0.81064 0.69972 0.0467 0.0
Li482 Li 0.81909 0.68729 0.98411 0.0
Li483 Li 0.84787 0.65057 0.02077 0.0
C484 C 0.75343 0.71576 0.98892 0.0
N485 N 0.72159 0.75899 0.94754 0.0
C486 C 0.7555 0.7535 0.99918 0.0
C487 C 0.73476 0.69993 0.95785 0.0
C488 C 0.7393 0.77492 0.97784 0.0
C489 C 0.71897 0.72226 0.93722 0.0
C490 C 0.82103 0.62653 0.07469 0.0
C491 C 0.86555 0.62028 0.12019 0.0
N492 N 0.85324 0.58429 0.11691 0.0
C493 C 0.80871 0.58954 0.0719 0.0
C494 C 0.8496 0.64209 0.09913 0.0
C495 C 0.82537 0.56863 0.09344 0.0
C496 C 0.73545 0.57051 0.99606 0.0
N497 N 0.73232 0.60705 1.00204 0.0
C498 C 0.66463 0.59622 1.00134 0.0
C499 C 0.69777 0.62016 1.00481 0.0
C500 C 0.66696 0.55832 0.99541 0.0
C501 C 0.70305 0.54558 0.99296 0.0
H502 H 0.76316 0.56066 0.99357 0.0
H503 H 0.69591 0.6493 1.00962 0.0
C504 C 0.81333 0.77004 0.09237 0.0
N505 N 0.80614 0.73315 0.0885 0.0
C506 C 0.81229 0.79163 0.12477 0.0
C507 C 0.79798 0.73671 0.14838 0.0
C508 C 0.79753 0.71663 0.11564 0.0
C509 C 0.80512 0.77505 0.15381 0.0
H510 H 0.8203 0.78274 0.07045 0.0
H511 H 0.79131 0.68743 0.11211 0.0
C512 C 0.8181 0.61396 0.94447 0.0
N513 N 0.81561 0.57475 0.87908 0.0
C514 C 0.85131 0.60245 0.93012 0.0
C515 C 0.78354 0.60503 0.92578 0.0
C516 C 0.84949 0.5828 0.89696 0.0
C517 C 0.78289 0.58531 0.8927 0.0
C518 C 0.89337 0.71295 1.01171 0.0
C519 C 0.90519 0.69454 0.981 0.0
C520 C 0.91788 0.7402 0.03152 0.0
C521 C 0.94149 0.70366 0.97059 0.0
C522 C 0.95399 0.74853 1.02026 0.0
N523 N 0.96495 0.73023 0.99029 0.0
C524 C 0.83251 0.7502 0.9526 0.0
C525 C 0.82439 0.69661 0.91131 0.0
C526 C 0.83583 0.77181 0.92688 0.0
N527 N 0.82609 0.71326 0.94463 0.0
C528 C 0.82825 0.71724 0.88471 0.0
C529 C 0.83336 0.75547 0.89229 0.0
H530 H 0.83438 0.76305 0.97911 0.0
H531 H 0.81955 0.66737 0.90505 0.0
C532 C 0.88615 0.58749 1.01837 0.0
N533 N 0.89015 0.62387 0.03034 0.0
C534 C 0.91446 0.56564 0.0253 0.0
C535 C 0.9504 0.61873 0.05767 0.0
C536 C 0.92133 0.63972 0.04994 0.0
C537 C 0.94735 0.58123 0.04486 0.0
H538 H 0.86079 0.57543 1.00346 0.0
H539 H 0.92354 0.6686 0.0598 0.0
O540 O 0.77019 0.69447 1.0089 0.0
O541 O 0.80576 0.64729 0.05322 0.0
O542 O 0.81929 0.63285 0.97703 0.0
O543 O 0.85808 0.70431 0.02257 0.0
H544 H 0.76984 0.76615 0.02316 0.0
H545 H 0.73277 0.67075 0.94963 0.0
H546 H 0.74095 0.8042 0.98532 0.0
H547 H 0.70469 0.71041 0.91298 0.0
H548 H 0.88789 0.63191 0.139 0.0
H549 H 0.78662 0.57704 0.05327 0.0
H550 H 0.85984 0.6706 0.10138 0.0
H551 H 0.81619 0.53993 0.09145 0.0
H552 H 0.63741 0.60724 1.00329 0.0
H553 H 0.70616 0.51664 0.98774 0.0
H554 H 0.81737 0.82088 0.12672 0.0
H555 H 0.79374 0.72143 0.16903 0.0
H556 H 0.87821 0.60851 0.94447 0.0
H557 H 0.7575 0.61321 0.93665 0.0
H558 H 0.87499 0.57386 0.88547 0.0
H559 H 0.75638 0.57836 0.87788 0.0
H560 H 0.8865 0.67353 0.96535 0.0
H561 H 0.9091 0.75467 0.0554 0.0
H562 H 0.951 0.68963 0.94686 0.0
H563 H 0.97331 0.76951 0.03536 0.0
H564 H 0.84012 0.80118 0.93402 0.0
H565 H 0.82601 0.70347 0.85845 0.0
H566 H 0.91092 0.53678 1.01505 0.0
H567 H 0.97542 0.63183 0.07255 0.0
Li568 Li 0.92426 0.0635 0.30578 0.0
Li569 Li 0.96923 0.02677 0.32965 0.0
Li570 Li 0.97532 0.03469 0.26934 0.0
Li571 Li 0.92269 0.99712 0.28581 0.0
C572 C 0.99371 0.10609 0.30259 0.0
N573 N 1.01856 0.172 0.28391 0.0
C574 C 0.02522 0.12708 0.31974 0.0
C575 C 0.97482 0.11859 0.27592 0.0
C576 C 0.03735 0.16034 0.30992 0.0
C577 C 0.98783 0.15199 0.26687 0.0
C578 C 0.90307 0.03815 0.36413 0.0
C579 C 0.86215 0.03901 0.41145 0.0
N580 N 0.88319 0.06923 0.4282 0.0
C581 C 0.92431 0.06921 0.38181 0.0
C582 C 0.87174 0.0229 0.37902 0.0
C583 C 0.91379 0.08452 0.41417 0.0
C584 C 0.85494 0.09741 0.30923 0.0
N585 N 0.89261 0.10447 0.31782 0.0
C586 C 0.88242 0.16558 0.34416 0.0
C587 C 0.90648 0.13768 0.33561 0.0
C588 C 0.84367 0.1594 0.33422 0.0
C589 C 0.83011 0.12451 0.31685 0.0
H590 H 0.84407 0.07059 0.29632 0.0
H591 H 0.93628 0.14272 0.34314 0.0
C592 C 0.03669 0.03316 0.3701 0.0
N593 N 0.99925 0.02183 0.37 0.0
C594 C 0.06112 0.03006 0.39762 0.0
C595 C 1.00815 1.00371 0.42485 0.0
C596 C 0.98471 1.00708 0.39658 0.0
C597 C 0.04704 1.01537 0.42577 0.0
H598 H 0.04768 0.04429 0.34848 0.0
H599 H 0.95495 0.99774 0.39586 0.0
C600 C 0.90156 0.02171 0.22754 0.0
N601 N 0.86316 0.99123 0.16653 0.0
C602 C 0.91808 0.99643 0.20406 0.0
C603 C 0.8656 0.03164 0.21988 0.0
C604 C 0.89819 0.98126 0.17341 0.0
C605 C 0.84663 1.01591 0.18892 0.0
C606 C 0.98252 0.95747 0.30001 0.0
C607 C 1.01163 0.93712 0.28718 0.0
C608 C 0.95885 0.94453 0.32375 0.0
C609 C 1.01672 0.90422 0.29845 0.0
C610 C 0.96487 0.91152 0.33439 0.0
N611 N 0.99345 0.89221 0.32163 0.0
C612 C 0.04182 0.019 0.23219 0.0
C613 C 0.99858 0.05094 0.20469 0.0
C614 C 0.06494 1.01664 0.20398 0.0
N615 N 1.00944 0.03614 0.23215 0.0
C616 C 0.02056 0.04894 0.17598 0.0
C617 C 0.0546 0.03203 0.17537 0.0
H618 H 0.04975 1.00708 0.25416 0.0
H619 H 0.97245 0.06383 0.20483 0.0
C620 C 0.85595 0.94681 0.27793 0.0
N621 N 0.89175 0.95288 0.2677 0.0
C622 C 0.83436 0.91382 0.26562 0.0
C623 C 0.88633 0.89446 0.23159 0.0
C624 C 0.90703 0.92763 0.2448 0.0
C625 C 0.84971 0.88696 0.24242 0.0
H626 H 0.84444 0.96732 0.29609 0.0
H627 H 0.93565 0.93301 0.23715 0.0
O628 O 0.9817 0.07345 0.31197 0.0
O629 O 0.91255 0.02271 0.33231 0.0
O630 O 0.92063 0.03686 0.25771 0.0
O631 O 0.97716 0.98969 0.28905 0.0
H632 H 0.04013 0.11775 0.34043 0.0
H633 H 0.95029 0.10288 0.26242 0.0
H634 H 0.06171 0.17688 0.32297 0.0
H635 H 0.97347 0.16202 0.24632 0.0
H636 H 0.83796 0.0275 0.4233 0.0
H637 H 0.94868 0.08139 0.37074 0.0
H638 H 0.85501 0.99886 0.36563 0.0
H639 H 0.92997 0.10856 0.42813 0.0
H640 H 0.89424 0.19206 0.35732 0.0
H641 H 0.80045 0.11836 0.30882 0.0
H642 H 0.09094 0.03851 0.39643 0.0
H643 H 0.99585 0.9923 0.44583 0.0
H644 H 0.94582 0.98829 0.20959 0.0
H645 H 0.85253 0.05144 0.23752 0.0
H646 H 0.91058 0.96152 0.15512 0.0
H647 H 0.81878 0.02337 0.18267 0.0
H648 H 0.03005 0.94657 0.26863 0.0
H649 H 0.93599 0.95965 0.33383 0.0
H650 H 0.03916 0.8882 0.28873 0.0
H651 H 0.94679 0.90122 0.35276 0.0
H652 H 0.09109 1.00384 0.20497 0.0
H653 H 1.0111 0.06092 0.15446 0.0
H654 H 0.80615 0.90909 0.27456 0.0
H655 H 0.8994 0.87433 0.21418 0.0
Li656 Li 0.31049 0.19967 0.54797 0.0
Li657 Li 0.27773 0.14127 0.50872 0.0
Li658 Li 0.34818 0.15078 0.52225 0.0
Li659 Li 0.3195 0.18743 0.48543 0.0
C660 C 0.32092 0.12661 0.57601 0.0
N661 N 0.35291 0.08465 0.61862 0.0
C662 C 0.30863 0.08962 0.57333 0.0
C663 C 0.34934 0.14232 0.60054 0.0
C664 C 0.32519 0.06886 0.59506 0.0
C665 C 0.36519 0.12064 0.6218 0.0
C666 C 0.25369 0.21581 0.49005 0.0
C667 C 0.21966 0.22279 0.43828 0.0
N668 N 0.22198 0.25944 0.44899 0.0
C669 C 0.25546 0.25349 0.5007 0.0
C670 C 0.23538 0.20025 0.45875 0.0
C671 C 0.23934 0.2751 0.47953 0.0
C672 C 0.31249 0.26967 0.5941 0.0
N673 N 0.30531 0.23276 0.58987 0.0
C674 C 0.29603 0.23572 0.64953 0.0
C675 C 0.29614 0.21595 0.6167 0.0
C676 C 0.30323 0.27407 0.65536 0.0
C677 C 0.31092 0.29096 0.62658 0.0
H678 H 0.31987 0.28261 0.57242 0.0
H679 H 0.2899 0.18674 0.61288 0.0
C680 C 0.23587 0.07039 0.49688 0.0
N681 N 0.23276 0.10694 0.50278 0.0
C682 C 0.20345 0.04548 0.49358 0.0
C683 C 0.16505 0.09615 0.50162 0.0
C684 C 0.1982 0.12007 0.50529 0.0
C685 C 0.16735 0.05825 0.49575 0.0
H686 H 0.2636 0.06053 0.49463 0.0
H687 H 0.19637 0.14921 0.51004 0.0
C688 C 0.39342 0.21332 0.51317 0.0
N689 N 0.4648 0.23081 0.49142 0.0
C690 C 0.40537 0.1945 0.4827 0.0
C691 C 0.41769 0.24107 0.53258 0.0
C692 C 0.44156 0.20374 0.47212 0.0
C693 C 0.45371 0.2495 0.52116 0.0
C694 C 0.31882 0.11383 0.44592 0.0
C695 C 0.35201 0.10188 0.43186 0.0
C696 C 0.28436 0.10507 0.42706 0.0
C697 C 0.35025 0.08194 0.39882 0.0
C698 C 0.28378 0.08506 0.39411 0.0
N699 N 0.31647 0.07405 0.38077 0.0
C700 C 0.38608 0.08769 0.5207 0.0
C701 C 0.42176 0.14003 0.55153 0.0
C702 C 0.4141 0.06571 0.52805 0.0
N703 N 0.39044 0.12416 0.53214 0.0
C704 C 0.4506 0.11893 0.55961 0.0
C705 C 0.44715 0.08128 0.5474 0.0
H706 H 0.36061 0.07562 0.50597 0.0
H707 H 0.42424 0.169 0.561 0.0
C708 C 0.33232 0.25029 0.45362 0.0
N709 N 0.32662 0.21329 0.44587 0.0
C710 C 0.33545 0.27172 0.42775 0.0
C711 C 0.32928 0.21688 0.3859 0.0
C712 C 0.32558 0.19643 0.41264 0.0
C713 C 0.33356 0.25515 0.39323 0.0
H714 H 0.33371 0.26332 0.48007 0.0
H715 H 0.32138 0.16715 0.40654 0.0
O716 O 0.30578 0.14723 0.55434 0.0
O717 O 0.27038 0.19435 0.50991 0.0
O718 O 0.35822 0.2046 0.52418 0.0
O719 O 0.31995 0.13302 0.47836 0.0
H720 H 0.28666 0.07702 0.55461 0.0
H721 H 0.35954 0.17082 0.60272 0.0
H722 H 0.31603 0.04016 0.59316 0.0
H723 H 0.38741 0.13238 0.64068 0.0
H724 H 0.20566 0.21114 0.41386 0.0
H725 H 0.26951 0.26594 0.52487 0.0
H726 H 0.23362 0.17114 0.45022 0.0
H727 H 0.24076 0.30434 0.48731 0.0
H728 H 0.29135 0.22021 0.66996 0.0
H729 H 0.31603 0.32023 0.62879 0.0
H730 H 0.20655 1.01654 0.48842 0.0
H731 H 0.13783 0.1072 0.5034 0.0
H732 H 0.38687 0.17309 0.46735 0.0
H733 H 0.40881 0.25586 0.55626 0.0
H734 H 0.45118 0.1894 0.44857 0.0
H735 H 0.47284 0.27088 0.53594 0.0
H736 H 0.37884 0.10784 0.44634 0.0
H737 H 0.25834 0.11361 0.4377 0.0
H738 H 0.37573 0.07266 0.38756 0.0
H739 H 0.25733 0.07823 0.37916 0.0
H740 H 0.41014 0.03674 0.51834 0.0
H741 H 0.47571 0.13202 0.57436 0.0
H742 H 0.33909 0.30113 0.4347 0.0
H743 H 0.32752 0.20293 0.3597 0.0
Li744 Li 0.46816 0.52575 0.82972 0.0
Li745 Li 0.42271 0.56216 0.80605 0.0
Li746 Li 0.42104 0.4956 0.7866 0.0
Li747 Li 0.47324 0.53317 0.76913 0.0
C748 C 0.40241 0.53738 0.8649 0.0
N749 N 0.38318 0.56901 0.92901 0.0
C750 C 0.42385 0.56849 0.88226 0.0
C751 C 0.37121 0.52236 0.88014 0.0
C752 C 0.41366 0.58408 0.91464 0.0
C753 C 0.36195 0.53874 0.91258 0.0
C754 C 0.49184 0.60473 0.80173 0.0
C755 C 0.48504 0.65024 0.76574 0.0
N756 N 0.51602 0.67039 0.7822 0.0
C757 C 0.52359 0.62588 0.81828 0.0
C758 C 0.47237 0.61697 0.77523 0.0
C759 C 0.53538 0.659 0.80804 0.0
C760 C 0.53597 0.53258 0.86999 0.0
N761 N 0.49857 0.52111 0.86997 0.0
C762 C 0.50771 0.5032 0.92488 0.0
C763 C 0.48418 0.50639 0.89661 0.0
C764 C 0.54656 0.515 0.92573 0.0
C765 C 0.56049 0.52966 0.89751 0.0
H766 H 0.54685 0.5437 0.84833 0.0
H767 H 0.45446 0.49692 0.89596 0.0
C768 C 0.35352 0.59639 0.80947 0.0
N769 N 0.3912 0.6032 0.81814 0.0
C770 C 0.32888 0.62366 0.81716 0.0
C771 C 0.38139 0.66434 0.84464 0.0
C772 C 0.40525 0.63631 0.83602 0.0
C773 C 0.34265 0.65843 0.83466 0.0
H774 H 0.34251 0.56966 0.79646 0.0
H775 H 0.43506 0.64115 0.84356 0.0
C776 C 0.48144 0.45636 0.80032 0.0
N777 N 0.49329 0.39151 0.82234 0.0
C778 C 0.51065 0.43619 0.78742 0.0
C779 C 0.45815 0.44345 0.82433 0.0
C780 C 0.51621 0.40349 0.7989 0.0
C781 C 0.46463 0.41065 0.83517 0.0
C782 C 0.39928 0.51964 0.72804 0.0
C783 C 0.41576 0.49413 0.70478 0.0
C784 C 0.36338 0.52962 0.7202 0.0
C785 C 0.39591 0.47876 0.67416 0.0
C786 C 0.34445 0.51369 0.68928 0.0
N787 N 0.36095 0.48878 0.6671 0.0
C788 C 0.35444 0.44504 0.78015 0.0
C789 C 0.40497 0.42583 0.7463 0.0
C790 C 0.3328 0.41197 0.76824 0.0
N791 N 0.38997 0.45117 0.7693 0.0
C792 C 0.3842 0.39259 0.73346 0.0
C793 C 0.34779 0.3851 0.74478 0.0
H794 H 0.34316 0.46561 0.79841 0.0
H795 H 0.43341 0.43121 0.73822 0.0
C796 C 0.53919 0.51761 0.73085 0.0
N797 N 0.50666 0.53457 0.73133 0.0
C798 C 0.56172 0.51532 0.70223 0.0
C799 C 0.5165 0.54732 0.67492 0.0
C800 C 0.49513 0.54928 0.70402 0.0
C801 C 0.55067 0.53058 0.67374 0.0
H802 H 0.54768 0.50576 0.7527 0.0
H803 H 0.46891 0.56204 0.70456 0.0
O804 O 0.41157 0.52168 0.83306 0.0
O805 O 0.48016 0.57223 0.81153 0.0
O806 O 0.47564 0.48839 0.78918 0.0
O807 O 0.4183 0.53499 0.75818 0.0
H808 H 0.44813 0.58049 0.87093 0.0
H809 H 0.35433 0.49829 0.86699 0.0
H810 H 0.42999 0.60816 0.92836 0.0
H811 H 0.33787 0.52741 0.92469 0.0
H812 H 0.47023 0.66006 0.74531 0.0
H813 H 0.53896 0.61675 0.83885 0.0
H814 H 0.44764 0.60113 0.76219 0.0
H815 H 0.55991 0.67565 0.82063 0.0
H816 H 0.4955 0.49182 0.94591 0.0
H817 H 0.59028 0.53822 0.89627 0.0
H818 H 0.29922 0.61771 0.80908 0.0
H819 H 0.39336 0.69073 0.85789 0.0
H820 H 0.5288 0.44563 0.76867 0.0
H821 H 0.43523 0.45846 0.83447 0.0
H822 H 0.53873 0.38761 0.78913 0.0
H823 H 0.44684 0.40038 0.85376 0.0
H824 H 0.44346 0.48597 0.71044 0.0
H825 H 0.35033 0.5496 0.73767 0.0
H826 H 0.40828 0.45884 0.65603 0.0
H827 H 0.31665 0.52118 0.68288 0.0
H828 H 0.30476 0.40725 0.77755 0.0
H829 H 0.39704 0.37247 0.71586 0.0
H830 H 0.58798 0.50264 0.70282 0.0
H831 H 0.50643 0.55915 0.65352 0.0
Li832 Li 0.80956 0.40961 0.53999 0.0
Li833 Li 0.78465 0.36262 0.57068 0.0
Li834 Li 0.77469 0.35043 0.5084 0.0
Li835 Li 0.73908 0.40068 0.54927 0.0
C836 C 0.85016 0.34059 0.54918 0.0
N837 N 0.90254 0.30347 0.57925 0.0
C838 C 0.88585 0.35799 0.56061 0.0
C839 C 0.84113 0.30431 0.55303 0.0
C840 C 0.91194 0.33875 0.57572 0.0
C841 C 0.86797 0.28603 0.56833 0.0
C842 C 0.78367 0.42858 0.61586 0.0
C843 C 0.75483 0.4336 0.67033 0.0
N844 N 0.78674 0.45335 0.6854 0.0
C845 C 0.81608 0.44915 0.63183 0.0
C846 C 0.7527 0.42092 0.6352 0.0
C847 C 0.81712 0.46133 0.66703 0.0
C848 C 0.84094 0.48292 0.55189 0.0
N849 N 0.84759 0.4488 0.53688 0.0
C850 C 0.90374 0.47254 0.51322 0.0
C851 C 0.87855 0.44307 0.5182 0.0
C852 C 0.89714 0.50821 0.52779 0.0
C853 C 0.86559 0.51312 0.54786 0.0
H854 H 0.81576 0.4868 0.56614 0.0
H855 H 0.88292 0.41574 0.5061 0.0
C856 C 0.7767 0.31526 0.62383 0.0
N857 N 0.79716 0.34276 0.61183 0.0
C858 C 0.78619 0.30642 0.65585 0.0
C859 C 0.83891 0.35274 0.66173 0.0
C860 C 0.82848 0.36056 0.62977 0.0
C861 C 0.81705 0.32607 0.67565 0.0
H862 H 0.75254 0.30053 0.60922 0.0
H863 H 0.84498 0.38168 0.61957 0.0
C864 C 0.77754 0.42902 0.48556 0.0
N865 N 0.8048 0.48223 0.44925 0.0
C866 C 0.76236 0.46266 0.48955 0.0
C867 C 0.80639 0.42234 0.4629 0.0
C868 C 0.77656 0.48923 0.471 0.0
C869 C 0.81983 0.44962 0.44483 0.0
C870 C 0.71376 0.31931 0.55697 0.0
C871 C 0.71546 0.28247 0.5438 0.0
C872 C 0.68915 0.32918 0.58291 0.0
C873 C 0.69291 0.25607 0.55717 0.0
C874 C 0.66706 0.30197 0.59561 0.0
N875 N 0.66941 0.26628 0.58261 0.0
C876 C 0.78392 0.27992 0.46661 0.0
C877 C 0.7706 0.32615 0.43512 0.0
C878 C 0.78834 0.25554 0.43635 0.0
N879 N 0.77513 0.31462 0.46568 0.0
C880 C 0.77554 0.30298 0.40433 0.0
C881 C 0.78446 0.2668 0.40432 0.0
H882 H 0.7881 0.27101 0.49085 0.0
H883 H 0.76401 0.35376 0.43454 0.0
C884 C 0.71068 0.46629 0.57282 0.0
N885 N 0.69756 0.43077 0.56232 0.0
C886 C 0.68651 0.4919 0.58647 0.0
C887 C 0.63502 0.44429 0.57915 0.0
C888 C 0.66036 0.41938 0.56519 0.0
C889 C 0.64802 0.48126 0.58988 0.0
H890 H 0.74041 0.47472 0.57115 0.0
H891 H 0.65036 0.39097 0.55718 0.0
O892 O 0.82406 0.35916 0.53474 0.0
O893 O 0.78234 0.41599 0.58147 0.0
O894 O 0.76505 0.40317 0.50447 0.0
O895 O 0.73517 0.34553 0.5438 0.0
H896 H 0.89319 0.38616 0.55821 0.0
H897 H 0.81331 0.29077 0.54526 0.0
H898 H 0.93962 0.3519 0.58478 0.0
H899 H 0.86123 0.25806 0.57175 0.0
H900 H 0.73111 0.42773 0.68563 0.0
H901 H 0.84039 0.45519 0.61726 0.0
H902 H 0.72736 0.40527 0.62324 0.0
H903 H 0.84212 0.47706 0.67976 0.0
H904 H 0.92771 0.46757 0.49751 0.0
H905 H 0.85905 0.54016 0.55902 0.0
H906 H 0.76868 0.2855 0.66555 0.0
H907 H 0.86352 0.36799 0.67571 0.0
H908 H 0.73993 0.46825 0.50683 0.0
H909 H 0.81889 0.39667 0.45991 0.0
H910 H 0.76518 0.51545 0.47395 0.0
H911 H 0.84242 0.44495 0.42749 0.0
H912 H 0.73395 0.27434 0.52349 0.0
H913 H 0.68718 0.35748 0.59324 0.0
H914 H 0.69407 0.22745 0.5473 0.0
H915 H 0.64804 0.30924 0.6158 0.0
H916 H 0.79466 0.22809 0.43825 0.0
H917 H 0.77315 0.31397 0.38085 0.0
H918 H 0.6981 0.51987 0.5948 0.0
H919 H 0.60558 0.43485 0.58116 0.0
Li920 Li 0.65649 1.00744 0.76405 0.0
Li921 Li 0.60838 0.0511 0.78723 0.0
Li922 Li 0.61759 0.03673 0.72372 0.0
Li923 Li 0.66679 0.07219 0.76194 0.0
C924 C 0.58767 0.96856 0.73778 0.0
N925 N 0.56408 0.90019 0.70179 0.0
C926 C 0.55553 0.94879 0.74712 0.0
C927 C 0.60785 0.95359 0.71016 0.0
C928 C 0.54406 0.91425 0.7286 0.0
C929 C 0.59545 0.91898 0.69228 0.0
C930 C 0.68646 0.07018 0.82573 0.0
C931 C 0.70299 0.12577 0.86545 0.0
N932 N 0.73887 0.1162 0.86886 0.0
C933 C 0.72338 0.06073 0.82978 0.0
C934 C 0.67603 0.1028 0.84382 0.0
C935 C 0.74951 0.08444 0.85166 0.0
C936 C 0.719 0.96455 0.76762 0.0
N937 N 0.68193 0.96685 0.77476 0.0
C938 C 0.68539 0.92276 0.81204 0.0
C939 C 0.66461 0.94564 0.79558 0.0
C940 C 0.72432 0.92169 0.80701 0.0
C941 C 0.74083 0.94181 0.78345 0.0
H942 H 0.73244 0.98256 0.75187 0.0
H943 H 0.63542 0.94865 0.80154 0.0
C944 C 0.54361 0.08173 0.8135 0.0
N945 N 0.57107 0.06052 0.8205 0.0
C946 C 0.51447 0.08813 0.83577 0.0
C947 C 0.54172 0.0501 0.87203 0.0
C948 C 0.57097 0.04509 0.84931 0.0
C949 C 0.51247 0.07144 0.86513 0.0
H950 H 0.54385 0.09314 0.79016 0.0
H951 H 0.593 0.02803 0.85413 0.0
C952 C 0.69297 0.03838 0.69791 0.0
N953 N 0.73337 0.05398 0.64295 0.0
C954 C 0.69111 0.07187 0.68678 0.0
C955 C 0.71544 1.01285 0.68116 0.0
C956 C 0.71173 0.07924 0.65895 0.0
C957 C 0.73563 0.02123 0.65339 0.0
C958 C 0.60858 0.1188 0.74924 0.0
C959 C 0.60746 0.12841 0.71665 0.0
C960 C 0.60252 0.14474 0.77763 0.0
C961 C 0.60103 0.16402 0.71306 0.0
C962 C 0.59615 0.18006 0.77298 0.0
N963 N 0.59558 0.18889 0.74106 0.0
C964 C 0.55264 0.04045 0.68093 0.0
C965 C 0.60652 0.02541 0.65017 0.0
C966 C 0.53165 0.04121 0.65049 0.0
N967 N 0.58945 0.03277 0.6803 0.0
C968 C 0.58693 0.02662 0.6193 0.0
C969 C 0.54875 0.03444 0.61889 0.0
H970 H 0.53966 0.04644 0.70521 0.0
H971 H 0.63559 0.01911 0.6499 0.0
C972 C 0.74317 0.09774 0.76045 0.0
N973 N 0.70844 0.10986 0.76567 0.0
C974 C 0.77545 0.12235 0.76245 0.0
C975 C 0.73593 0.17175 0.77541 0.0
C976 C 0.70441 0.14612 0.77328 0.0
C977 C 0.77208 0.15996 0.76996 0.0
H978 H 0.74581 0.06877 0.75485 0.0
H979 H 0.67698 0.15539 0.77815 0.0
O980 O 0.59924 1.00237 0.75572 0.0
O981 O 0.66085 0.04801 0.80355 0.0
O982 O 0.67332 0.03064 0.72531 0.0
O983 O 0.61406 0.08385 0.75322 0.0
H984 H 0.53966 0.96004 0.76849 0.0
H985 H 0.6328 0.96847 0.70257 0.0
H986 H 0.51924 0.89861 0.73554 0.0
H987 H 0.61076 0.90706 0.67083 0.0
H988 H 0.69541 0.15123 0.87945 0.0
H989 H 0.73187 0.03559 0.81586 0.0
H990 H 0.64753 0.11044 0.84089 0.0
H991 H 0.77828 0.07764 0.85487 0.0
H992 H 0.67189 0.90824 0.83061 0.0
H993 H 0.77096 0.94248 0.77968 0.0
H994 H 0.49327 0.10548 0.82953 0.0
H995 H 0.54133 0.03626 0.89398 0.0
H996 H 0.6742 0.09203 0.69968 0.0
H997 H 0.71715 0.98678 0.68945 0.0
H998 H 0.7106 0.10508 0.65011 0.0
H999 H 0.75309 1.00171 0.64013 0.0
H1000 H 0.61126 0.10857 0.69428 0.0
H1001 H 0.60322 0.1378 0.80305 0.0
H1002 H 0.60021 0.17183 0.68799 0.0
H1003 H 0.59171 0.20045 0.79474 0.0
H1004 H 0.50229 0.04683 0.65183 0.0
H1005 H 0.60209 0.02204 0.59604 0.0
H1006 H 0.80273 0.11204 0.75795 0.0
H1007 H 0.73212 0.20046 0.78197 0.0
Li1008 Li 0.08494 0.22924 0.87916 0.0
Li1009 Li 0.05241 0.2741 0.91633 0.0
Li1010 Li 0.06176 0.21177 0.9314 0.0
Li1011 Li 1.01636 0.21835 0.88513 0.0
C1012 C 0.13843 0.25606 0.92569 0.0
N1013 N 0.21623 0.26166 0.92126 0.0
C1014 C 0.15818 0.2897 0.92381 0.0
C1015 C 0.15833 0.22537 0.92581 0.0
C1016 C 0.19749 0.29194 0.92145 0.0
C1017 C 0.19763 0.22874 0.92345 0.0
C1018 C 0.02294 0.28137 0.85275 0.0
C1019 C 0.96669 0.31327 0.85292 0.0
N1020 N 0.97724 0.32572 0.82396 0.0
C1021 C 0.03325 0.2945 0.82302 0.0
C1022 C 0.98947 0.2909 0.86789 0.0
C1023 C 1.00977 0.31691 0.80886 0.0
C1024 C 0.14655 0.19962 0.84316 0.0
N1025 N 0.12573 0.2286 0.84952 0.0
C1026 C 0.17156 0.26611 0.82502 0.0
C1027 C 0.13687 0.26105 0.83986 0.0
C1028 C 0.19502 0.23753 0.82039 0.0
C1029 C 0.18164 0.20355 0.82857 0.0
H1030 H 0.13715 0.17428 0.85149 0.0
H1031 H 0.12003 0.2838 0.84598 0.0
C1032 C 0.03041 0.3394 0.95612 0.0
N1033 N 0.05236 0.32492 0.93104 0.0
C1034 C 0.02878 0.37713 0.96343 0.0
C1035 C 0.07444 0.38418 0.92061 0.0
C1036 C 0.0743 0.3464 0.9135 0.0
C1037 C 0.0507 0.40019 0.94527 0.0
H1038 H 1.01355 0.32168 0.96993 0.0
H1039 H 0.09128 0.33404 0.8935 0.0
C1040 C 0.0504 0.14727 0.88903 0.0
N1041 N 0.04025 0.07569 0.89939 0.0
C1042 C 1.0139 0.12974 0.88869 0.0
C1043 C 0.08175 0.12835 0.89446 0.0
C1044 C 1.00936 0.09355 0.89402 0.0
C1045 C 0.07602 0.09219 0.89971 0.0
C1046 C 0.98166 0.23076 0.94848 0.0
C1047 C 0.97364 0.19611 0.95698 0.0
C1048 C 0.95493 0.25622 0.95412 0.0
C1049 C 0.93915 0.18748 0.9711 0.0
C1050 C 0.92072 0.24655 0.96823 0.0
N1051 N 0.91361 0.21267 0.97639 0.0
C1052 C 0.10242 0.21065 0.99181 0.0
C1053 C 0.06127 0.15661 0.9776 0.0
C1054 C 0.11597 0.19924 0.02122 0.0
N1055 N 0.07566 0.18946 0.97044 0.0
C1056 C 0.07294 0.14473 1.00773 0.0
C1057 C 0.10051 0.16636 0.03038 0.0
H1058 H 0.1133 0.23684 0.98625 0.0
H1059 H 0.04021 0.13975 0.96047 0.0
C1060 C 0.97332 0.20526 0.82412 0.0
N1061 N 0.96982 0.20363 0.85787 0.0
C1062 C 0.94123 0.20419 0.80255 0.0
C1063 C 0.90226 0.1954 0.84978 0.0
C1064 C 0.93516 0.19742 0.87066 0.0
C1065 C 0.90519 0.20031 0.81565 0.0
H1066 H 1.00113 0.20983 0.81441 0.0
H1067 H 0.93264 0.1957 0.89727 0.0
O1068 O 0.09975 0.25297 0.92685 0.0
O1069 O 0.04543 0.25905 0.86671 0.0
O1070 O 0.05546 0.18259 0.88361 0.0
O1071 O 1.01553 0.23977 0.93497 0.0
H1072 H 0.14337 0.3138 0.92398 0.0
H1073 H 0.14349 0.1991 0.92715 0.0
H1074 H 0.21309 0.31775 0.9197 0.0
H1075 H 0.21332 0.20513 0.92315 0.0
H1076 H 0.94062 0.32069 0.8643 0.0
H1077 H 0.05902 0.2873 0.81091 0.0
H1078 H 0.98104 0.28085 0.89079 0.0
H1079 H 1.01737 0.32723 0.78582 0.0
H1080 H 0.18103 0.29284 0.81952 0.0
H1081 H 0.19886 0.1808 0.82516 0.0
H1082 H 1.00964 0.38782 0.98235 0.0
H1083 H 0.09271 0.40051 0.90651 0.0
H1084 H 0.98933 0.14393 0.88452 0.0
H1085 H 0.11019 0.14149 0.89485 0.0
H1086 H 0.98127 0.07969 0.89394 0.0
H1087 H 0.10001 0.07727 0.9041 0.0
H1088 H 0.99347 0.17591 0.95213 0.0
H1089 H 0.96027 0.2831 0.94751 0.0
H1090 H 0.9326 0.16067 0.97766 0.0
H1091 H 0.89979 0.26597 0.97265 0.0
H1092 H 0.1382 0.21658 0.03671 0.0
H1093 H 0.05962 0.11936 1.01343 0.0
H1094 H 0.94454 0.20783 0.77625 0.0
H1095 H 0.87485 0.19241 0.86074 0.0
Li1096 Li 0.58571 0.73199 0.37619 0.0
Li1097 Li 0.54949 0.76993 0.41413 0.0
Li1098 Li 0.56498 0.71198 0.42776 0.0
Li1099 Li 0.51602 0.7154 0.3806 0.0
C1100 C 0.63757 0.76452 0.41992 0.0
N1101 N 0.7131 0.7826 0.40938 0.0
C1102 C 0.64976 0.79933 0.41348 0.0
C1103 C 0.66397 0.73892 0.42092 0.0
C1104 C 0.688 0.80793 0.40822 0.0
C1105 C 0.70197 0.7486 0.41561 0.0
C1106 C 0.53114 0.7892 0.35392 0.0
C1107 C 0.48325 0.82261 0.33179 0.0
N1108 N 0.50863 0.85256 0.33489 0.0
C1109 C 0.55666 0.82046 0.35694 0.0
C1110 C 0.49402 0.79042 0.34136 0.0
C1111 C 0.54478 0.85216 0.3472 0.0
C1112 C 0.64859 0.70305 0.34303 0.0
N1113 N 0.62617 0.73097 0.34544 0.0
C1114 C 0.6705 0.76547 0.31647 0.0
C1115 C 0.63549 0.76087 0.33087 0.0
C1116 C 0.69597 0.73881 0.31683 0.0
C1117 C 0.68391 0.70644 0.3288 0.0
H1118 H 0.64041 0.67941 0.35453 0.0
H1119 H 0.61702 0.78236 0.33252 0.0
C1120 C 0.57049 0.83896 0.45514 0.0
N1121 N 0.54237 0.81906 0.43427 0.0
C1122 C 0.5691 0.87643 0.46521 0.0
C1123 C 0.50826 0.87148 0.43471 0.0
C1124 C 0.51063 0.83413 0.42561 0.0
C1125 C 0.53832 0.89303 0.4538 0.0
H1126 H 0.59472 0.82606 0.46283 0.0
H1127 H 0.488 0.81752 0.41009 0.0
C1128 C 0.55764 0.64861 0.38681 0.0
N1129 N 0.55427 0.57879 0.4021 0.0
C1130 C 0.52306 0.62707 0.38396 0.0
C1131 C 0.59053 0.63461 0.39735 0.0
C1132 C 0.52195 0.59183 0.3918 0.0
C1133 C 0.58822 0.59927 0.40501 0.0
C1134 C 0.49881 0.75208 0.45704 0.0
C1135 C 0.51908 0.76188 0.48845 0.0
C1136 C 0.46302 0.76411 0.45284 0.0
C1137 C 0.50316 0.78366 0.51519 0.0
C1138 C 0.44808 0.78585 0.48022 0.0
N1139 N 0.46829 0.7951 0.51056 0.0
C1140 C 0.61002 0.7041 0.48445 0.0
C1141 C 0.55663 0.66044 0.47563 0.0
C1142 C 0.62144 0.69143 0.51387 0.0
N1143 N 0.5783 0.68855 0.46579 0.0
C1144 C 0.56676 0.64715 0.50548 0.0
C1145 C 0.5993 0.6632 0.52538 0.0
H1146 H 0.62591 0.7274 0.47731 0.0
H1147 H 0.53094 0.64905 0.46092 0.0
C1148 C 0.47302 0.69477 0.32 0.0
N1149 N 0.47056 0.6973 0.35438 0.0
C1150 C 0.44028 0.6926 0.29904 0.0
C1151 C 0.40296 0.69125 0.34874 0.0
C1152 C 0.43654 0.69413 0.36891 0.0
C1153 C 0.40486 0.69217 0.31363 0.0
H1154 H 0.50052 0.69788 0.3093 0.0
H1155 H 0.43547 0.69628 0.39633 0.0
O1156 O 0.59999 0.75526 0.42441 0.0
O1157 O 0.54226 0.75779 0.3634 0.0
O1158 O 0.55923 0.68326 0.37947 0.0
O1159 O 0.51433 0.73144 0.43036 0.0
H1160 H 0.62996 0.81946 0.41213 0.0
H1161 H 0.65512 0.71153 0.42496 0.0
H1162 H 0.69769 0.83471 0.40305 0.0
H1163 H 0.72255 0.72894 0.41606 0.0
H1164 H 0.45461 0.82383 0.3221 0.0
H1165 H 0.58503 0.82071 0.36765 0.0
H1166 H 0.47341 0.76711 0.3395 0.0
H1167 H 0.56421 0.87655 0.34972 0.0
H1168 H 0.67856 0.79088 0.30759 0.0
H1169 H 0.70241 0.68488 0.32892 0.0
H1170 H 0.59261 0.89249 0.48019 0.0
H1171 H 0.48399 0.88363 0.42577 0.0
H1172 H 0.49733 0.63745 0.3759 0.0
H1173 H 0.61744 0.65103 0.40014 0.0
H1174 H 0.49537 0.57488 0.38977 0.0
H1175 H 0.61339 0.58818 0.41341 0.0
H1176 H 0.54698 0.75315 0.49202 0.0
H1177 H 0.4472 0.75727 0.42856 0.0
H1178 H 0.51858 0.79158 0.5396 0.0
H1179 H 0.4205 0.79553 0.47728 0.0
H1180 H 0.64696 0.70446 0.528 0.0
H1181 H 0.54848 0.62569 0.51359 0.0
H1182 H 0.44267 0.69344 0.27204 0.0
H1183 H 0.37602 0.69115 0.36079 0.0
Li1184 Li 1.01679 0.80608 0.65153 0.0
Li1185 Li 0.97877 0.77894 0.69909 0.0
Li1186 Li 0.0449 0.76767 0.69137 0.0
Li1187 Li 0.99537 0.73926 0.64766 0.0
C1188 C 0.05075 0.83587 0.72614 0.0
N1189 N 0.10595 0.87409 0.77209 0.0
C1190 C 0.05763 0.82473 0.75756 0.0
C1191 C 0.07172 0.86662 0.7182 0.0
C1192 C 0.08574 0.84434 0.7804 0.0
C1193 C 0.09954 0.88555 0.74176 0.0
C1194 C 0.93298 0.76946 0.62741 0.0
C1195 C 0.87273 0.73406 0.61314 0.0
N1196 N 0.87223 0.74435 0.58181 0.0
C1197 C 0.93169 0.77993 0.59517 0.0
C1198 C 0.90312 0.74657 0.63657 0.0
C1199 C 0.90081 0.76685 0.57244 0.0
C1200 C 0.07112 0.84621 0.62118 0.0
N1201 N 0.03295 0.84328 0.62412 0.0
C1202 C 0.02591 0.88088 0.58078 0.0
C1203 C 1.01033 0.86121 0.60535 0.0
C1204 C 0.06501 0.88195 0.57561 0.0
C1205 C 0.08771 0.86545 0.59721 0.0
H1206 H 0.08858 0.8317 0.63618 0.0
H1207 H 0.98003 0.85868 0.60799 0.0
C1208 C 0.9515 0.78439 0.76691 0.0
N1209 N 0.94096 0.787 0.73416 0.0
C1210 C 0.92528 0.7869 0.79261 0.0
C1211 C 0.87777 0.79691 0.75123 0.0
C1212 C 0.90487 0.79364 0.72613 0.0
C1213 C 0.88768 0.79307 0.78502 0.0
H1214 H 0.98032 0.77997 0.77322 0.0
H1215 H 0.89693 0.7963 0.7002 0.0
C1216 C 0.06776 0.73955 0.62359 0.0
N1217 N 0.1117 0.69039 0.58786 0.0
C1218 C 0.0751 0.70785 0.63615 0.0
C1219 C 0.0826 0.74622 0.59281 0.0
C1220 C 0.0974 0.68333 0.61772 0.0
C1221 C 0.10482 0.72104 0.57514 0.0
C1222 C 0.98105 0.71129 0.7155 0.0
C1223 C 0.99381 0.70961 0.74885 0.0
C1224 C 0.94653 0.69237 0.70256 0.0
C1225 C 0.97152 0.68949 0.76887 0.0
C1226 C 0.92507 0.67251 0.72335 0.0
N1227 N 0.93789 0.67153 0.75582 0.0
C1228 C 0.12274 0.78629 0.70457 0.0
C1229 C 0.1009 0.73538 0.72963 0.0
C1230 C 0.15993 0.78352 0.71566 0.0
N1231 N 0.09408 0.76238 0.71152 0.0
C1232 C 0.13792 0.7315 0.74117 0.0
C1233 C 0.16815 0.75537 0.7336 0.0
H1234 H 0.11678 0.80711 0.68964 0.0
H1235 H 0.07793 0.716 0.73403 0.0
C1236 C 0.97489 0.70051 0.5803 0.0
N1237 N 0.98212 0.6962 0.61319 0.0
C1238 C 0.96531 0.67025 0.55479 0.0
C1239 C 0.97372 0.63116 0.59669 0.0
C1240 C 0.98242 0.66227 0.62154 0.0
C1241 C 0.96444 0.63472 0.56267 0.0
H1242 H 0.97681 0.72751 0.57369 0.0
H1243 H 0.98993 0.65926 0.64747 0.0
O1244 O 0.02381 0.8167 0.70315 0.0
O1245 O 0.9631 0.78189 0.64996 0.0
O1246 O 0.04578 0.76376 0.64113 0.0
O1247 O 1.00228 0.73126 0.69564 0.0
H1248 H 0.0421 0.80069 0.76389 0.0
H1249 H 0.0666 0.87574 0.69409 0.0
H1250 H 0.09162 0.83581 0.80466 0.0
H1251 H 0.11607 0.90933 0.73591 0.0
H1252 H 0.8495 0.71624 0.6199 0.0
H1253 H 0.95466 0.79734 0.58749 0.0
H1254 H 0.90326 0.73868 0.66157 0.0
H1255 H 0.89965 0.77447 0.5473 0.0
H1256 H 1.00733 0.8929 0.56448 0.0
H1257 H 0.11795 0.86556 0.59417 0.0
H1258 H 0.9346 0.78463 0.81836 0.0
H1259 H 0.84921 0.8019 0.74414 0.0
H1260 H 0.06346 0.7021 0.65976 0.0
H1261 H 0.07697 0.77054 0.58265 0.0
H1262 H 0.10329 0.65866 0.62711 0.0
H1263 H 0.11656 0.72585 0.5513 0.0
H1264 H 0.02022 0.72439 0.75949 0.0
H1265 H 0.93647 0.69282 0.67668 0.0
H1266 H 0.9809 0.68829 0.79483 0.0
H1267 H 0.89826 0.65784 0.71365 0.0
H1268 H 0.18225 0.80272 0.70941 0.0
H1269 H 0.14302 0.70905 0.75438 0.0
H1270 H 0.95823 0.67494 0.52926 0.0
H1271 H 0.97471 0.60461 0.60413 0.0
Li1272 Li 0.51632 0.30658 0.15217 0.0
Li1273 Li 0.4785 0.27952 0.19991 0.0
Li1274 Li 0.54464 0.26834 0.19214 0.0
Li1275 Li 0.49501 0.23976 0.14863 0.0
C1276 C 0.55061 0.33661 0.22659 0.0
N1277 N 0.60616 0.37497 0.27208 0.0
C1278 C 0.55787 0.32553 0.25797 0.0
C1279 C 0.57139 0.36737 0.21845 0.0
C1280 C 0.58616 0.34522 0.28058 0.0
C1281 C 0.59939 0.38637 0.24178 0.0
C1282 C 0.4327 0.26943 0.12813 0.0
C1283 C 0.37317 0.23285 0.11359 0.0
N1284 N 0.37236 0.24334 0.08235 0.0
C1285 C 0.43111 0.28008 0.09598 0.0
C1286 C 0.40336 0.24584 0.13711 0.0
C1287 C 0.40044 0.26651 0.07316 0.0
C1288 C 0.57066 0.34657 0.12169 0.0
N1289 N 0.53249 0.34367 0.12459 0.0
C1290 C 0.52557 0.38119 0.08116 0.0
C1291 C 0.50992 0.36158 0.10575 0.0
C1292 C 0.56467 0.38223 0.07603 0.0
C1293 C 0.58732 0.36576 0.09771 0.0
H1294 H 0.58809 0.33209 0.13674 0.0
H1295 H 0.47962 0.35912 0.10837 0.0
C1296 C 0.45144 0.28587 0.26793 0.0
N1297 N 0.44065 0.28751 0.235 0.0
C1298 C 0.42518 0.28811 0.2936 0.0
C1299 C 0.3771 0.29597 0.25184 0.0
C1300 C 0.40424 0.29298 0.22677 0.0
C1301 C 0.38727 0.29304 0.2858 0.0
H1302 H 0.48048 0.28237 0.27439 0.0
H1303 H 0.39608 0.29487 0.20071 0.0
C1304 C 0.56707 0.24009 0.12402 0.0
N1305 N 0.61047 0.19094 0.08757 0.0
C1306 C 0.57488 0.20848 0.13652 0.0
C1307 C 0.58116 0.24667 0.09293 0.0
C1308 C 0.5969 0.18397 0.11772 0.0
C1309 C 0.60312 0.2215 0.07491 0.0
C1310 C 0.4814 0.21245 0.21718 0.0
C1311 C 0.4946 0.21191 0.25064 0.0
C1312 C 0.44696 0.19292 0.20488 0.0
C1313 C 0.47282 0.19228 0.27141 0.0
C1314 C 0.42602 0.17359 0.22642 0.0
N1315 N 0.43925 0.17371 0.25898 0.0
C1316 C 0.62256 0.28681 0.20487 0.0
C1317 C 0.6008 0.23593 0.23001 0.0
C1318 C 0.65983 0.28383 0.2156 0.0
N1319 N 0.59391 0.26301 0.21203 0.0
C1320 C 0.63788 0.23186 0.24122 0.0
C1321 C 0.6681 0.2556 0.23341 0.0
H1322 H 0.61653 0.30768 0.19002 0.0
H1323 H 0.57783 0.21661 0.23453 0.0
C1324 C 0.47446 0.20044 0.08147 0.0
N1325 N 0.48185 0.19649 0.11443 0.0
C1326 C 0.4651 0.16995 0.05618 0.0
C1327 C 0.47404 0.13138 0.09843 0.0
C1328 C 0.48248 0.16271 0.12307 0.0
C1329 C 0.46465 0.13456 0.06434 0.0
H1330 H 0.47609 0.22734 0.07464 0.0
H1331 H 0.4901 0.16 0.14906 0.0
O1332 O 0.52349 0.31738 0.20381 0.0
O1333 O 0.46264 0.28231 0.15076 0.0
O1334 O 0.54533 0.26428 0.14191 0.0
O1335 O 0.50212 0.23192 0.19658 0.0
H1336 H 0.54251 0.30148 0.26444 0.0
H1337 H 0.56596 0.37646 0.19437 0.0
H1338 H 0.59233 0.33673 0.3048 0.0
H1339 H 0.61577 0.41017 0.23578 0.0
H1340 H 0.35034 0.21448 0.1202 0.0
H1341 H 0.4537 0.29802 0.08843 0.0
H1342 H 0.40376 0.23775 0.16202 0.0
H1343 H 0.39905 0.27428 0.04808 0.0
H1344 H 0.50702 0.3932 0.0648 0.0
H1345 H 0.61756 0.36586 0.09472 0.0
H1346 H 0.43468 0.28656 0.31948 0.0
H1347 H 0.34828 0.3 0.24458 0.0
H1348 H 0.5638 0.20279 0.16036 0.0
H1349 H 0.57514 0.27092 0.08282 0.0
H1350 H 0.60314 0.15937 0.12707 0.0
H1351 H 0.61428 0.22624 0.05083 0.0
H1352 H 0.52095 0.22718 0.26079 0.0
H1353 H 0.43657 0.19249 0.17894 0.0
H1354 H 0.48253 0.19196 0.29746 0.0
H1355 H 0.39927 0.15845 0.21722 0.0
H1356 H 0.68214 0.30292 0.20917 0.0
H1357 H 0.64303 0.20935 0.25434 0.0
H1358 H 0.45788 0.17436 0.03058 0.0
H1359 H 0.47535 0.10496 0.1061 0.0
loop_
_geom_bond_atom_site_label_1
_geom_bond_atom_site_label_2
_geom_bond_distance
_geom_bond_site_symmetry_2
_ccdc_geom_bond_type
H0 C1 0.949 . S
C1 H0 0.949 . S
C1 C2 1.395 1_545 S
C1 C3 1.391 . S
C2 C1 1.395 1_565 S
C2 C5 1.390 . S
C3 C1 1.391 . S
C3 C7 1.387 . S
C3 C8 1.491 . S
H4 C5 0.950 . S
C5 C2 1.390 . S
C5 H4 0.950 . S
C5 C6 1.378 1_565 S
C6 C5 1.378 1_545 S
C6 C7 1.409 . S
C7 C3 1.387 . S
C7 C6 1.409 . S
C7 H9 0.951 . S
C8 C3 1.491 . S
C8 C10 1.407 . S
C8 C12 1.404 . S
H9 C7 0.951 . S
C10 C8 1.407 . S
C10 C11 1.375 1_554 S
C10 H15 0.939 1_554 S
C11 C10 1.375 1_556 S
C11 C16 1.399 1_556 S
C12 C8 1.404 . S
C12 H13 0.950 . S
C12 C14 1.375 . S
H13 C12 0.950 . S
C14 C12 1.375 . S
C14 C16 1.382 . S
C14 H18 0.950 . S
H15 C10 0.939 1_556 S
C16 C11 1.399 1_554 S
C16 C14 1.382 . S
C16 H17 0.952 1_554 S
H17 C16 0.952 1_556 S
H18 C14 0.950 . S
H19 C20 0.949 . S
C20 H19 0.949 . S
C20 C21 1.395 . S
C20 C22 1.391 . S
C21 C20 1.395 . S
C21 C24 1.390 . S
C22 C20 1.391 . S
C22 C26 1.387 . S
C22 C27 1.491 . S
H23 C24 0.950 . S
C24 C21 1.390 . S
C24 H23 0.950 . S
C24 C25 1.378 . S
C25 C24 1.378 . S
C25 C26 1.409 . S
C26 C22 1.387 . S
C26 C25 1.409 . S
C26 H28 0.951 . S
C27 C22 1.491 . S
C27 C29 1.382 . S
C27 C31 1.404 . S
H28 C26 0.951 . S
C29 C27 1.382 . S
C29 C30 1.390 . S
C29 H34 0.949 . S
C30 C29 1.390 . S
C30 C35 1.399 . S
C31 C27 1.404 . S
C31 H32 0.950 . S
C31 C33 1.375 . S
H32 C31 0.950 . S
C33 C31 1.375 . S
C33 C35 1.382 . S
C33 H37 0.950 . S
H34 C29 0.949 . S
C35 C30 1.399 . S
C35 C33 1.382 . S
C35 H36 0.952 . S
H36 C35 0.952 . S
H37 C33 0.950 . S
H38 C39 0.949 . S
C39 H38 0.949 . S
C39 C40 1.395 . S
C39 C41 1.391 1_455 S
C40 C39 1.395 . S
C40 C43 1.390 1_455 S
C41 C39 1.391 1_655 S
C41 C45 1.387 . S
C41 C46 1.486 1_654 S
H42 C43 0.950 . S
C43 C40 1.390 1_655 S
C43 H42 0.950 . S
C43 C44 1.378 . S
C44 C43 1.378 . S
C44 C45 1.409 . S
C45 C41 1.387 . S
C45 C44 1.409 . S
C45 H47 0.951 1_554 S
C46 C41 1.486 1_456 S
C46 C48 1.387 . S
C46 C50 1.404 . S
H47 C45 0.951 1_556 S
C48 C46 1.387 . S
C48 C49 1.390 . S
C48 H53 0.949 1_556 S
C49 C48 1.390 . S
C49 C54 1.399 . S
C50 C46 1.404 . S
C50 H51 0.950 1_455 S
C50 C52 1.375 . S
H51 C50 0.950 1_655 S
C52 C50 1.375 . S
C52 C54 1.382 . S
C52 H56 0.950 . S
H53 C48 0.949 1_554 S
C54 C49 1.399 . S
C54 C52 1.382 . S
C54 H55 0.952 . S
H55 C54 0.952 . S
H56 C52 0.950 . S
H57 C58 0.949 . S
C58 H57 0.949 . S
C58 C59 1.395 . S
C58 C60 1.391 . S
C59 C58 1.395 . S
C59 C62 1.390 . S
C60 C58 1.391 . S
C60 C64 1.387 . S
C60 C65 1.491 . S
H61 C62 0.950 . S
C62 C59 1.390 . S
C62 H61 0.950 . S
C62 C63 1.378 . S
C63 C62 1.378 . S
C63 C64 1.409 . S
C64 C60 1.387 . S
C64 C63 1.409 . S
C64 H66 0.951 . S
C65 C60 1.491 . S
C65 C67 1.382 . S
C65 C69 1.404 . S
H66 C64 0.951 . S
C67 C65 1.382 . S
C67 C68 1.390 . S
C67 H72 0.949 . S
C68 C67 1.390 . S
C68 C73 1.399 . S
C69 C65 1.404 . S
C69 H70 0.950 . S
C69 C71 1.375 . S
H70 C69 0.950 . S
C71 C69 1.375 . S
C71 C73 1.382 . S
C71 H75 0.950 . S
H72 C67 0.949 . S
C73 C68 1.399 . S
C73 C71 1.382 . S
C73 H74 0.952 . S
H74 C73 0.952 . S
H75 C71 0.950 . S
H76 C77 0.949 . S
C77 H76 0.949 . S
C77 C78 1.395 1_565 S
C77 C79 1.391 . S
C78 C77 1.395 1_545 S
C78 C81 1.390 . S
C79 C77 1.391 . S
C79 C83 1.387 . S
C79 C84 1.491 . S
H80 C81 0.950 . S
C81 C78 1.390 . S
C81 H80 0.950 . S
C81 C82 1.378 1_545 S
C82 C81 1.378 1_565 S
C82 C83 1.409 . S
C83 C79 1.387 . S
C83 C82 1.409 . S
C83 H85 0.951 . S
C84 C79 1.491 . S
C84 C86 1.382 . S
C84 C88 1.404 . S
H85 C83 0.951 . S
C86 C84 1.382 . S
C86 C87 1.390 . S
C86 H91 0.949 . S
C87 C86 1.390 . S
C87 C92 1.399 . S
C88 C84 1.404 . S
C88 H89 0.950 . S
C88 C90 1.375 . S
H89 C88 0.950 . S
C90 C88 1.375 . S
C90 C92 1.382 . S
C90 H94 0.950 . S
H91 C86 0.949 . S
C92 C87 1.399 . S
C92 C90 1.382 . S
C92 H93 0.952 . S
H93 C92 0.952 . S
H94 C90 0.950 . S
H95 C96 0.949 . S
C96 H95 0.949 . S
C96 C97 1.395 . S
C96 C98 1.391 . S
C97 C96 1.395 . S
C97 C100 1.390 . S
C98 C96 1.391 . S
C98 C102 1.387 . S
C98 C103 1.491 . S
H99 C100 0.950 . S
C100 C97 1.390 . S
C100 H99 0.950 . S
C100 C101 1.378 . S
C101 C100 1.378 . S
C101 C102 1.409 . S
C102 C98 1.387 . S
C102 C101 1.409 . S
C102 H104 0.951 . S
C103 C98 1.491 . S
C103 C105 1.382 . S
C103 C107 1.404 . S
H104 C102 0.951 . S
C105 C103 1.382 . S
C105 C106 1.390 . S
C105 H110 0.949 . S
C106 C105 1.390 . S
C106 C111 1.399 . S
C107 C103 1.404 . S
C107 H108 0.950 . S
C107 C109 1.375 . S
H108 C107 0.950 . S
C109 C107 1.375 . S
C109 C111 1.382 . S
C109 H113 0.950 . S
H110 C105 0.949 . S
C111 C106 1.399 . S
C111 C109 1.382 . S
C111 H112 0.952 . S
H112 C111 0.952 . S
H113 C109 0.950 . S
H114 C115 0.949 . S
C115 H114 0.949 . S
C115 C116 1.395 . S
C115 C117 1.391 . S
C116 C115 1.395 . S
C116 C119 1.390 . S
C117 C115 1.391 . S
C117 C121 1.387 . S
C117 C122 1.491 . S
H118 C119 0.950 . S
C119 C116 1.390 . S
C119 H118 0.950 . S
C119 C120 1.378 . S
C120 C119 1.378 . S
C120 C121 1.409 . S
C121 C117 1.387 . S
C121 C120 1.409 . S
C121 H123 0.951 . S
C122 C117 1.491 . S
C122 C124 1.382 1_655 S
C122 C126 1.404 . S
H123 C121 0.951 . S
C124 C122 1.382 1_455 S
C124 C125 1.390 . S
C124 H129 0.949 . S
C125 C124 1.390 . S
C125 C130 1.399 1_455 S
C126 C122 1.404 . S
C126 H127 0.950 . S
C126 C128 1.375 . S
H127 C126 0.950 . S
C128 C126 1.375 . S
C128 C130 1.382 . S
C128 H132 0.950 . S
H129 C124 0.949 . S
C130 C125 1.399 1_655 S
C130 C128 1.382 . S
C130 H131 0.958 . S
H131 C130 0.958 . S
H132 C128 0.950 . S
H133 C134 0.949 . S
C134 H133 0.949 . S
C134 C135 1.395 . S
C134 C136 1.391 . S
C135 C134 1.395 . S
C135 C138 1.390 . S
C136 C134 1.391 . S
C136 C140 1.387 . S
C136 C141 1.491 . S
H137 C138 0.950 . S
C138 C135 1.390 . S
C138 H137 0.950 . S
C138 C139 1.378 . S
C139 C138 1.378 . S
C139 C140 1.409 . S
C140 C136 1.387 . S
C140 C139 1.409 . S
C140 H142 0.951 . S
C141 C136 1.491 . S
C141 C143 1.382 . S
C141 C145 1.404 . S
H142 C140 0.951 . S
C143 C141 1.382 . S
C143 C144 1.390 . S
C143 H148 0.949 . S
C144 C143 1.390 . S
C144 C149 1.399 . S
C145 C141 1.404 . S
C145 H146 0.950 . S
C145 C147 1.375 . S
H146 C145 0.950 . S
C147 C145 1.375 . S
C147 C149 1.382 . S
C147 H151 0.950 . S
H148 C143 0.949 . S
C149 C144 1.399 . S
C149 C147 1.382 . S
C149 H150 0.952 . S
H150 C149 0.952 . S
H151 C147 0.950 . S
H152 C153 0.949 . S
C153 H152 0.949 . S
C153 C154 1.395 . S
C153 C155 1.391 . S
C154 C153 1.395 . S
C154 C157 1.390 . S
C155 C153 1.391 . S
C155 C159 1.387 . S
C155 C160 1.491 . S
H156 C157 0.950 . S
C157 C154 1.390 . S
C157 H156 0.950 . S
C157 C158 1.378 . S
C158 C157 1.378 . S
C158 C159 1.409 . S
C159 C155 1.387 . S
C159 C158 1.409 . S
C159 H161 0.951 . S
C160 C155 1.491 . S
C160 C162 1.382 . S
C160 C164 1.404 . S
H161 C159 0.951 . S
C162 C160 1.382 . S
C162 C163 1.390 . S
C162 H167 0.949 . S
C163 C162 1.390 . S
C163 C168 1.399 . S
C164 C160 1.404 . S
C164 H165 0.950 . S
C164 C166 1.375 . S
H165 C164 0.950 . S
C166 C164 1.375 . S
C166 C168 1.382 . S
C166 H170 0.950 . S
H167 C162 0.949 . S
C168 C163 1.399 . S
C168 C166 1.382 . S
C168 H169 0.952 . S
H169 C168 0.952 . S
H170 C166 0.950 . S
H171 C172 0.949 . S
C172 H171 0.949 . S
C172 C173 1.395 1_565 S
C172 C174 1.391 . S
C173 C172 1.395 1_545 S
C173 C176 1.390 . S
C174 C172 1.391 . S
C174 C178 1.387 1_565 S
C174 C179 1.491 . S
H175 C176 0.950 . S
C176 C173 1.390 . S
C176 H175 0.950 . S
C176 C177 1.378 . S
C177 C176 1.378 . S
C177 C178 1.409 . S
C178 C174 1.387 1_545 S
C178 C177 1.409 . S
C178 H180 0.951 . S
C179 C174 1.491 . S
C179 C181 1.382 . S
C179 C183 1.404 . S
H180 C178 0.951 . S
C181 C179 1.382 . S
C181 C182 1.390 . S
C181 H186 0.949 . S
C182 C181 1.390 . S
C182 C187 1.399 . S
C183 C179 1.404 . S
C183 H184 0.950 . S
C183 C185 1.375 . S
H184 C183 0.950 . S
C185 C183 1.375 . S
C185 C187 1.382 . S
C185 H189 0.950 . S
H186 C181 0.949 . S
C187 C182 1.399 . S
C187 C185 1.382 . S
C187 H188 0.952 . S
H188 C187 0.952 . S
H189 C185 0.950 . S
H190 C191 0.949 . S
C191 H190 0.949 . S
C191 C192 1.395 . S
C191 C193 1.391 . S
C192 C191 1.395 . S
C192 C195 1.390 . S
C193 C191 1.391 . S
C193 C197 1.387 . S
C193 C198 1.491 . S
H194 C195 0.950 . S
C195 C192 1.390 . S
C195 H194 0.950 . S
C195 C196 1.378 . S
C196 C195 1.378 . S
C196 C197 1.409 . S
C197 C193 1.387 . S
C197 C196 1.409 . S
C197 H199 0.951 . S
C198 C193 1.491 . S
C198 C200 1.382 . S
C198 C202 1.404 . S
H199 C197 0.951 . S
C200 C198 1.382 . S
C200 C201 1.390 . S
C200 H205 0.949 . S
C201 C200 1.390 . S
C201 C206 1.399 . S
C202 C198 1.404 . S
C202 H203 0.950 . S
C202 C204 1.375 . S
H203 C202 0.950 . S
C204 C202 1.375 . S
C204 C206 1.382 . S
C204 H208 0.950 . S
H205 C200 0.949 . S
C206 C201 1.399 . S
C206 C204 1.382 . S
C206 H207 0.952 . S
H207 C206 0.952 . S
H208 C204 0.950 . S
H209 C210 0.949 . S
C210 H209 0.949 . S
C210 C211 1.395 . S
C210 C212 1.391 . S
C211 C210 1.395 . S
C211 C214 1.390 . S
C212 C210 1.391 . S
C212 C216 1.387 . S
C212 C217 1.491 . S
H213 C214 0.950 . S
C214 C211 1.390 . S
C214 H213 0.950 . S
C214 C215 1.378 . S
C215 C214 1.378 . S
C215 C216 1.409 . S
C216 C212 1.387 . S
C216 C215 1.409 . S
C216 H218 0.951 . S
C217 C212 1.491 . S
C217 C219 1.382 . S
C217 C221 1.404 . S
H218 C216 0.951 . S
C219 C217 1.382 . S
C219 C220 1.390 . S
C219 H224 0.949 . S
C220 C219 1.390 . S
C220 C225 1.399 . S
C221 C217 1.404 . S
C221 H222 0.950 . S
C221 C223 1.375 . S
H222 C221 0.950 . S
C223 C221 1.375 . S
C223 C225 1.382 . S
C223 H227 0.950 . S
H224 C219 0.949 . S
C225 C220 1.399 . S
C225 C223 1.382 . S
C225 H226 0.952 . S
H226 C225 0.952 . S
H227 C223 0.950 . S
H228 C229 0.949 . S
C229 H228 0.949 . S
C229 C230 1.395 . S
C229 C231 1.391 . S
C230 C229 1.395 . S
C230 C233 1.390 . S
C231 C229 1.391 . S
C231 C235 1.387 . S
C231 C236 1.491 . S
H232 C233 0.950 . S
C233 C230 1.390 . S
C233 H232 0.950 . S
C233 C234 1.378 . S
C234 C233 1.378 . S
C234 C235 1.409 . S
C235 C231 1.387 . S
C235 C234 1.409 . S
C235 H237 0.951 . S
C236 C231 1.491 . S
C236 C238 1.382 . S
C236 C240 1.404 . S
H237 C235 0.951 . S
C238 C236 1.382 . S
C238 C239 1.390 . S
C238 H243 0.949 . S
C239 C238 1.390 . S
C239 C244 1.399 . S
C240 C236 1.404 . S
C240 H241 0.950 . S
C240 C242 1.375 . S
H241 C240 0.950 . S
C242 C240 1.375 . S
C242 C244 1.382 . S
C242 H246 0.950 . S
H243 C238 0.949 . S
C244 C239 1.399 . S
C244 C242 1.382 . S
C244 H245 0.952 . S
H245 C244 0.952 . S
H246 C242 0.950 . S
H247 C248 0.951 1_554 S
C248 H247 0.951 1_556 S
C248 C249 1.393 . S
C248 C250 1.390 . S
C249 C248 1.393 . S
C249 C252 1.390 . S
C250 C248 1.390 . S
C250 C254 1.387 . S
C250 C255 1.491 . S
H251 C252 0.950 . S
C252 C249 1.390 . S
C252 H251 0.950 . S
C252 C253 1.378 . S
C253 C252 1.378 . S
C253 C254 1.409 . S
C254 C250 1.387 . S
C254 C253 1.409 . S
C254 H256 0.951 . S
C255 C250 1.491 . S
C255 C257 1.382 1_556 S
C255 C259 1.404 . S
H256 C254 0.951 . S
C257 C255 1.382 1_554 S
C257 C258 1.390 . S
C257 H262 0.949 . S
C258 C257 1.390 . S
C258 C263 1.399 . S
C259 C255 1.404 . S
C259 H260 0.950 . S
C259 C261 1.375 . S
H260 C259 0.950 . S
C261 C259 1.375 . S
C261 C263 1.382 1_556 S
C261 H265 0.950 . S
H262 C257 0.949 . S
C263 C258 1.399 . S
C263 C261 1.382 1_554 S
C263 H264 0.952 . S
H264 C263 0.952 . S
H265 C261 0.950 . S
H266 C267 0.949 . S
C267 H266 0.949 . S
C267 C268 1.395 . S
C267 C269 1.391 . S
C268 C267 1.395 . S
C268 C271 1.390 . S
C269 C267 1.391 . S
C269 C273 1.387 . S
C269 C274 1.491 . S
H270 C271 0.950 . S
C271 C268 1.390 . S
C271 H270 0.950 . S
C271 C272 1.378 . S
C272 C271 1.378 . S
C272 C273 1.409 . S
C273 C269 1.387 . S
C273 C272 1.409 . S
C273 H275 0.951 . S
C274 C269 1.491 . S
C274 C276 1.382 . S
C274 C278 1.404 . S
H275 C273 0.951 . S
C276 C274 1.382 . S
C276 C277 1.390 . S
C276 H281 0.949 . S
C277 C276 1.390 . S
C277 C282 1.399 . S
C278 C274 1.404 . S
C278 H279 0.950 . S
C278 C280 1.375 . S
H279 C278 0.950 . S
C280 C278 1.375 . S
C280 C282 1.382 . S
C280 H284 0.950 . S
H281 C276 0.949 . S
C282 C277 1.399 . S
C282 C280 1.382 . S
C282 H283 0.952 . S
H283 C282 0.952 . S
H284 C280 0.950 . S
H285 C286 0.949 . S
C286 H285 0.949 . S
C286 C287 1.395 1_556 S
C286 C288 1.391 . S
C287 C286 1.395 1_554 S
C287 C290 1.390 . S
C288 C286 1.391 . S
C288 C292 1.387 . S
C288 C293 1.491 . S
H289 C290 0.950 . S
C290 C287 1.390 . S
C290 H289 0.950 . S
C290 C291 1.378 1_554 S
C291 C290 1.378 1_556 S
C291 C292 1.409 . S
C292 C288 1.387 . S
C292 C291 1.409 . S
C292 H294 0.951 1_545 S
C293 C288 1.491 . S
C293 C295 1.382 . S
C293 C297 1.404 . S
H294 C292 0.951 1_565 S
C295 C293 1.382 . S
C295 C296 1.390 . S
C295 H300 0.949 . S
C296 C295 1.390 . S
C296 C301 1.399 . S
C297 C293 1.404 . S
C297 H298 0.950 . S
C297 C299 1.375 . S
H298 C297 0.950 . S
C299 C297 1.375 . S
C299 C301 1.382 . S
C299 H303 0.950 . S
H300 C295 0.949 . S
C301 C296 1.399 . S
C301 C299 1.382 . S
C301 H302 0.952 . S
H302 C301 0.952 . S
H303 C299 0.950 . S
Li304 N321 1.990 . S
Li304 O364 1.956 . S
Li304 O365 1.970 . S
Li304 O366 1.961 . S
Li305 N329 1.990 . S
Li305 O364 1.970 . S
Li305 O365 1.956 . S
Li305 O367 1.961 . S
Li306 N351 1.990 1_554 S
Li306 O364 1.961 . S
Li306 O366 1.956 . S
Li306 O367 1.970 . S
Li307 N357 1.990 . S
Li307 O365 1.961 . S
Li307 O366 1.970 . S
Li307 O367 1.956 . S
C308 C310 1.348 . S
C308 C311 1.357 . S
C308 O364 1.325 . S
N309 C312 1.314 . S
N309 C313 1.279 1_554 S
C310 C308 1.348 . S
C310 C312 1.353 . S
C310 H368 0.929 . S
C311 C308 1.357 . S
C311 C313 1.358 1_554 S
C311 H369 0.929 1_554 S
C312 N309 1.314 . S
C312 C310 1.353 . S
C312 H370 0.930 . S
C313 N309 1.279 1_556 S
C313 C311 1.358 1_556 S
C313 H371 0.930 . S
C314 C317 1.348 . S
C314 C318 1.356 . S
C314 O365 1.325 . S
C315 N316 1.279 . S
C315 C318 1.358 . S
C315 H372 0.930 . S
N316 C315 1.279 . S
N316 C319 1.314 . S
C317 C314 1.348 . S
C317 C319 1.353 . S
C317 H373 0.929 . S
C318 C314 1.356 . S
C318 C315 1.358 . S
C318 H374 0.930 . S
C319 N316 1.314 . S
C319 C317 1.353 . S
C319 H375 0.930 1_565 S
C320 N321 1.314 . S
C320 C325 1.353 1_565 S
C320 H326 0.930 . S
N321 Li304 1.990 . S
N321 C320 1.314 . S
N321 C323 1.279 . S
C322 C323 1.358 . S
C322 C324 1.356 . S
C322 H376 0.930 . S
C323 N321 1.279 . S
C323 C322 1.358 . S
C323 H327 0.930 . S
C324 C322 1.356 . S
C324 C325 1.348 1_565 S
C325 C320 1.353 1_545 S
C325 C324 1.348 1_545 S
C325 H377 0.929 . S
H326 C320 0.930 . S
H327 C323 0.930 . S
C328 N329 1.314 . S
C328 C330 1.353 . S
C328 H334 0.930 . S
N329 Li305 1.990 . S
N329 C328 1.314 . S
N329 C332 1.279 . S
C330 C328 1.353 . S
C330 C333 1.348 . S
C330 H378 0.929 . S
C331 C332 1.358 . S
C331 C333 1.356 . S
C331 H379 0.930 . S
C332 N329 1.279 . S
C332 C331 1.358 . S
C332 H335 0.930 . S
C333 C330 1.348 . S
C333 C331 1.356 . S
H334 C328 0.930 . S
H335 C332 0.930 . S
C336 C338 1.348 . S
C336 C339 1.356 . S
C336 O366 1.325 1_556 S
N337 C340 1.314 . S
N337 C341 1.279 . S
C338 C336 1.348 . S
C338 C340 1.353 . S
C338 H380 0.929 . S
C339 C336 1.356 . S
C339 C341 1.358 . S
C339 H381 0.930 . S
C340 N337 1.314 . S
C340 C338 1.353 . S
C340 H382 0.930 . S
C341 N337 1.279 . S
C341 C339 1.358 . S
C341 H383 0.930 . S
C342 C343 1.348 . S
C342 C344 1.356 . S
C342 O367 1.325 . S
C343 C342 1.348 . S
C343 C345 1.353 . S
C343 H384 0.929 . S
C344 C342 1.356 . S
C344 C346 1.358 . S
C344 H385 0.930 . S
C345 C343 1.353 . S
C345 N347 1.314 . S
C345 H386 0.930 . S
C346 C344 1.358 . S
C346 N347 1.279 . S
C346 H387 0.930 . S
N347 C345 1.314 . S
N347 C346 1.279 . S
C348 C350 1.353 . S
C348 N351 1.314 . S
C348 H354 0.930 . S
C349 N351 1.279 . S
C349 C352 1.358 . S
C349 H355 0.930 . S
C350 C348 1.353 . S
C350 C353 1.348 . S
C350 H388 0.929 . S
N351 Li306 1.990 1_556 S
N351 C348 1.314 . S
N351 C349 1.279 . S
C352 C349 1.358 . S
C352 C353 1.356 . S
C352 H389 0.930 . S
C353 C350 1.348 . S
C353 C352 1.356 . S
H354 C348 0.930 . S
H355 C349 0.930 . S
C356 N357 1.314 . S
C356 C358 1.353 . S
C356 H362 0.930 . S
N357 Li307 1.990 . S
N357 C356 1.314 . S
N357 C360 1.279 . S
C358 C356 1.353 . S
C358 C361 1.348 . S
C358 H390 0.929 1_565 S
C359 C360 1.358 . S
C359 C361 1.356 . S
C359 H391 0.930 . S
C360 N357 1.279 . S
C360 C359 1.358 . S
C360 H363 0.930 . S
C361 C358 1.348 . S
C361 C359 1.356 . S
H362 C356 0.930 . S
H363 C360 0.930 . S
O364 Li304 1.956 . S
O364 Li305 1.970 . S
O364 Li306 1.961 . S
O364 C308 1.325 . S
O365 Li304 1.970 . S
O365 Li305 1.956 . S
O365 Li307 1.961 . S
O365 C314 1.325 . S
O366 Li304 1.961 . S
O366 Li306 1.956 . S
O366 Li307 1.970 . S
O366 C336 1.325 1_554 S
O367 Li305 1.961 . S
O367 Li306 1.970 . S
O367 Li307 1.956 . S
O367 C342 1.325 . S
H368 C310 0.929 . S
H369 C311 0.929 1_556 S
H370 C312 0.930 . S
H371 C313 0.930 . S
H372 C315 0.930 . S
H373 C317 0.929 . S
H374 C318 0.930 . S
H375 C319 0.930 1_545 S
H376 C322 0.930 . S
H377 C325 0.929 . S
H378 C330 0.929 . S
H379 C331 0.930 . S
H380 C338 0.929 . S
H381 C339 0.930 . S
H382 C340 0.930 . S
H383 C341 0.930 . S
H384 C343 0.929 . S
H385 C344 0.930 . S
H386 C345 0.930 . S
H387 C346 0.930 . S
H388 C350 0.929 . S
H389 C352 0.930 . S
H390 C358 0.929 1_545 S
H391 C359 0.930 . S
Li392 N409 1.990 . S
Li392 O452 1.956 . S
Li392 O453 1.970 . S
Li392 O454 1.961 . S
Li393 N417 1.990 . S
Li393 O452 1.970 . S
Li393 O453 1.956 . S
Li393 O455 1.961 . S
Li394 N439 1.990 . S
Li394 O452 1.961 . S
Li394 O454 1.956 . S
Li394 O455 1.970 . S
Li395 N445 1.990 . S
Li395 O453 1.961 . S
Li395 O454 1.970 . S
Li395 O455 1.956 . S
C396 C398 1.348 . S
C396 C399 1.356 . S
C396 O452 1.325 . S
N397 C400 1.314 . S
N397 C401 1.279 . S
C398 C396 1.348 . S
C398 C400 1.353 . S
C398 H456 0.929 . S
C399 C396 1.356 . S
C399 C401 1.358 . S
C399 H457 0.930 . S
C400 N397 1.314 . S
C400 C398 1.353 . S
C400 H458 0.930 . S
C401 N397 1.279 . S
C401 C399 1.358 . S
C401 H459 0.930 . S
C402 C405 1.348 . S
C402 C406 1.356 . S
C402 O453 1.325 . S
C403 N404 1.279 . S
C403 C406 1.358 . S
C403 H460 0.930 . S
N404 C403 1.279 . S
N404 C407 1.314 . S
C405 C402 1.348 . S
C405 C407 1.353 . S
C405 H461 0.929 . S
C406 C402 1.356 . S
C406 C403 1.358 . S
C406 H462 0.930 . S
C407 N404 1.314 . S
C407 C405 1.353 . S
C407 H463 0.930 . S
C408 N409 1.314 . S
C408 C413 1.353 . S
C408 H414 0.930 . S
N409 Li392 1.990 . S
N409 C408 1.314 . S
N409 C411 1.279 . S
C410 C411 1.358 . S
C410 C412 1.356 . S
C410 H464 0.930 . S
C411 N409 1.279 . S
C411 C410 1.358 . S
C411 H415 0.930 . S
C412 C410 1.356 . S
C412 C413 1.348 . S
C413 C408 1.353 . S
C413 C412 1.348 . S
C413 H465 0.929 1_455 S
H414 C408 0.930 . S
H415 C411 0.930 . S
C416 N417 1.314 . S
C416 C418 1.353 . S
C416 H422 0.930 . S
N417 Li393 1.990 . S
N417 C416 1.314 . S
N417 C420 1.279 . S
C418 C416 1.353 . S
C418 C421 1.348 . S
C418 H466 0.929 . S
C419 C420 1.358 . S
C419 C421 1.356 . S
C419 H467 0.930 . S
C420 N417 1.279 . S
C420 C419 1.358 . S
C420 H423 0.930 . S
C421 C418 1.348 . S
C421 C419 1.356 . S
H422 C416 0.930 . S
H423 C420 0.930 . S
C424 C426 1.348 . S
C424 C427 1.356 . S
C424 O454 1.325 . S
N425 C428 1.314 . S
N425 C429 1.279 . S
C426 C424 1.348 . S
C426 C428 1.353 . S
C426 H468 0.929 . S
C427 C424 1.356 . S
C427 C429 1.358 . S
C427 H469 0.930 . S
C428 N425 1.314 . S
C428 C426 1.353 . S
C428 H470 0.930 . S
C429 N425 1.279 . S
C429 C427 1.358 . S
C429 H471 0.930 . S
C430 C431 1.348 . S
C430 C432 1.356 . S
C430 O455 1.325 . S
C431 C430 1.348 . S
C431 C433 1.353 . S
C431 H472 0.929 . S
C432 C430 1.356 . S
C432 C434 1.358 . S
C432 H473 0.930 . S
C433 C431 1.353 . S
C433 N435 1.314 . S
C433 H474 0.930 . S
C434 C432 1.358 . S
C434 N435 1.279 . S
C434 H475 0.930 . S
N435 C433 1.314 . S
N435 C434 1.279 . S
C436 C438 1.353 . S
C436 N439 1.314 . S
C436 H442 0.930 . S
C437 N439 1.279 . S
C437 C440 1.358 . S
C437 H443 0.930 . S
C438 C436 1.353 . S
C438 C441 1.348 . S
C438 H476 0.929 . S
N439 Li394 1.990 . S
N439 C436 1.314 . S
N439 C437 1.279 . S
C440 C437 1.358 . S
C440 C441 1.356 . S
C440 H477 0.930 . S
C441 C438 1.348 . S
C441 C440 1.356 . S
H442 C436 0.930 . S
H443 C437 0.930 . S
C444 N445 1.314 . S
C444 C446 1.353 . S
C444 H450 0.930 . S
N445 Li395 1.990 . S
N445 C444 1.314 . S
N445 C448 1.279 . S
C446 C444 1.353 . S
C446 C449 1.348 . S
C446 H478 0.929 1_455 S
C447 C448 1.358 . S
C447 C449 1.356 . S
C447 H479 0.930 . S
C448 N445 1.279 . S
C448 C447 1.358 . S
C448 H451 0.930 . S
C449 C446 1.348 . S
C449 C447 1.356 . S
H450 C444 0.930 . S
H451 C448 0.930 . S
O452 Li392 1.956 . S
O452 Li393 1.970 . S
O452 Li394 1.961 . S
O452 C396 1.325 . S
O453 Li392 1.970 . S
O453 Li393 1.956 . S
O453 Li395 1.961 . S
O453 C402 1.325 . S
O454 Li392 1.961 . S
O454 Li394 1.956 . S
O454 Li395 1.970 . S
O454 C424 1.325 . S
O455 Li393 1.961 . S
O455 Li394 1.970 . S
O455 Li395 1.956 . S
O455 C430 1.325 . S
H456 C398 0.929 . S
H457 C399 0.930 . S
H458 C400 0.930 . S
H459 C401 0.930 . S
H460 C403 0.930 . S
H461 C405 0.929 . S
H462 C406 0.930 . S
H463 C407 0.930 . S
H464 C410 0.930 . S
H465 C413 0.929 1_655 S
H466 C418 0.929 . S
H467 C419 0.930 . S
H468 C426 0.929 . S
H469 C427 0.930 . S
H470 C428 0.930 . S
H471 C429 0.930 . S
H472 C431 0.929 . S
H473 C432 0.930 . S
H474 C433 0.930 . S
H475 C434 0.930 . S
H476 C438 0.929 . S
H477 C440 0.930 . S
H478 C446 0.929 1_655 S
H479 C447 0.930 . S
Li480 N497 1.990 . S
Li480 O540 1.956 1_556 S
Li480 O541 1.970 1_556 S
Li480 O542 1.961 . S
Li481 N505 1.990 . S
Li481 O540 1.970 . S
Li481 O541 1.956 . S
Li481 O543 1.961 . S
Li482 N527 1.990 . S
Li482 O540 1.961 1_556 S
Li482 O542 1.956 . S
Li482 O543 1.970 1_556 S
Li483 N533 1.990 . S
Li483 O541 1.961 . S
Li483 O542 1.970 1_554 S
Li483 O543 1.956 . S
C484 C486 1.346 . S
C484 C487 1.358 1_554 S
C484 O540 1.325 . S
N485 C488 1.314 1_556 S
N485 C489 1.279 . S
C486 C484 1.346 . S
C486 C488 1.353 . S
C486 H544 0.929 . S
C487 C484 1.358 1_556 S
C487 C489 1.358 . S
C487 H545 0.930 . S
C488 N485 1.314 1_554 S
C488 C486 1.353 . S
C488 H546 0.930 . S
C489 N485 1.279 . S
C489 C487 1.358 . S
C489 H547 0.930 . S
C490 C493 1.348 . S
C490 C494 1.356 . S
C490 O541 1.325 . S
C491 N492 1.279 . S
C491 C494 1.358 . S
C491 H548 0.930 . S
N492 C491 1.279 . S
N492 C495 1.314 . S
C493 C490 1.348 . S
C493 C495 1.353 . S
C493 H549 0.929 . S
C494 C490 1.356 . S
C494 C491 1.358 . S
C494 H550 0.930 . S
C495 N492 1.314 . S
C495 C493 1.353 . S
C495 H551 0.930 . S
C496 N497 1.314 . S
C496 C501 1.353 . S
C496 H502 0.930 . S
N497 Li480 1.990 . S
N497 C496 1.314 . S
N497 C499 1.279 . S
C498 C499 1.358 . S
C498 C500 1.356 . S
C498 H552 0.930 . S
C499 N497 1.279 . S
C499 C498 1.358 . S
C499 H503 0.926 1_556 S
C500 C498 1.356 . S
C500 C501 1.348 . S
C501 C496 1.353 . S
C501 C500 1.348 . S
C501 H553 0.929 . S
H502 C496 0.930 . S
H503 C499 0.926 1_554 S
C504 N505 1.314 . S
C504 C506 1.353 . S
C504 H510 0.930 . S
N505 Li481 1.990 . S
N505 C504 1.314 . S
N505 C508 1.279 . S
C506 C504 1.353 . S
C506 C509 1.348 . S
C506 H554 0.929 . S
C507 C508 1.358 . S
C507 C509 1.356 . S
C507 H555 0.930 . S
C508 N505 1.279 . S
C508 C507 1.358 . S
C508 H511 0.930 . S
C509 C506 1.348 . S
C509 C507 1.356 . S
H510 C504 0.930 . S
H511 C508 0.930 . S
C512 C514 1.348 . S
C512 C515 1.356 . S
C512 O542 1.325 . S
N513 C516 1.314 . S
N513 C517 1.279 . S
C514 C512 1.348 . S
C514 C516 1.353 . S
C514 H556 0.929 . S
C515 C512 1.356 . S
C515 C517 1.358 . S
C515 H557 0.930 . S
C516 N513 1.314 . S
C516 C514 1.353 . S
C516 H558 0.930 . S
C517 N513 1.279 . S
C517 C515 1.358 . S
C517 H559 0.930 . S
C518 C519 1.348 1_554 S
C518 C520 1.356 . S
C518 O543 1.325 . S
C519 C518 1.348 1_556 S
C519 C521 1.353 . S
C519 H560 0.929 . S
C520 C518 1.356 . S
C520 C522 1.358 . S
C520 H561 0.930 . S
C521 C519 1.353 . S
C521 N523 1.314 1_556 S
C521 H562 0.930 . S
C522 C520 1.358 . S
C522 N523 1.279 . S
C522 H563 0.930 . S
N523 C521 1.314 1_554 S
N523 C522 1.279 . S
C524 C526 1.353 . S
C524 N527 1.314 . S
C524 H530 0.930 . S
C525 N527 1.279 . S
C525 C528 1.358 . S
C525 H531 0.930 . S
C526 C524 1.353 . S
C526 C529 1.348 . S
C526 H564 0.929 . S
N527 Li482 1.990 . S
N527 C524 1.314 . S
N527 C525 1.279 . S
C528 C525 1.358 . S
C528 C529 1.356 . S
C528 H565 0.930 . S
C529 C526 1.348 . S
C529 C528 1.356 . S
H530 C524 0.930 . S
H531 C525 0.930 . S
C532 N533 1.314 . S
C532 C534 1.353 . S
C532 H538 0.930 . S
N533 Li483 1.990 . S
N533 C532 1.314 . S
N533 C536 1.279 . S
C534 C532 1.353 . S
C534 C537 1.348 . S
C534 H566 0.929 . S
C535 C536 1.358 . S
C535 C537 1.356 . S
C535 H567 0.930 . S
C536 N533 1.279 . S
C536 C535 1.358 . S
C536 H539 0.939 . S
C537 C534 1.348 . S
C537 C535 1.356 . S
H538 C532 0.930 . S
H539 C536 0.939 . S
O540 Li480 1.956 1_554 S
O540 Li481 1.970 . S
O540 Li482 1.961 1_554 S
O540 C484 1.325 . S
O541 Li480 1.970 1_554 S
O541 Li481 1.956 . S
O541 Li483 1.961 . S
O541 C490 1.325 . S
O542 Li480 1.961 . S
O542 Li482 1.956 . S
O542 Li483 1.970 1_556 S
O542 C512 1.325 . S
O543 Li481 1.961 . S
O543 Li482 1.970 1_554 S
O543 Li483 1.956 . S
O543 C518 1.325 . S
H544 C486 0.929 . S
H545 C487 0.930 . S
H546 C488 0.930 . S
H547 C489 0.930 . S
H548 C491 0.930 . S
H549 C493 0.929 . S
H550 C494 0.930 . S
H551 C495 0.930 . S
H552 C498 0.930 . S
H553 C501 0.929 . S
H554 C506 0.929 . S
H555 C507 0.930 . S
H556 C514 0.929 . S
H557 C515 0.930 . S
H558 C516 0.930 . S
H559 C517 0.930 . S
H560 C519 0.929 . S
H561 C520 0.930 . S
H562 C521 0.930 . S
H563 C522 0.930 . S
H564 C526 0.929 . S
H565 C528 0.930 . S
H566 C534 0.929 . S
H567 C535 0.930 . S
Li568 N585 1.990 . S
Li568 O628 1.956 . S
Li568 O629 1.970 . S
Li568 O630 1.961 . S
Li569 N593 1.990 1_655 S
Li569 O628 1.970 . S
Li569 O629 1.956 . S
Li569 O631 1.961 1_545 S
Li570 N615 1.990 . S
Li570 O628 1.961 . S
Li570 O630 1.956 . S
Li570 O631 1.970 1_545 S
Li571 N621 1.990 . S
Li571 O629 1.961 1_565 S
Li571 O630 1.970 1_565 S
Li571 O631 1.956 . S
C572 C574 1.348 1_655 S
C572 C575 1.356 . S
C572 O628 1.325 . S
N573 C576 1.314 . S
N573 C577 1.279 . S
C574 C572 1.348 1_455 S
C574 C576 1.353 . S
C574 H632 0.929 . S
C575 C572 1.356 . S
C575 C577 1.358 1_655 S
C575 H633 0.930 . S
C576 N573 1.314 . S
C576 C574 1.353 . S
C576 H634 0.930 . S
C577 N573 1.279 . S
C577 C575 1.358 1_455 S
C577 H635 0.930 . S
C578 C581 1.348 . S
C578 C582 1.356 1_545 S
C578 O629 1.325 . S
C579 N580 1.279 . S
C579 C582 1.358 . S
C579 H636 0.930 . S
N580 C579 1.279 . S
N580 C583 1.314 1_565 S
C581 C578 1.348 . S
C581 C583 1.353 . S
C581 H637 0.929 . S
C582 C578 1.356 1_565 S
C582 C579 1.358 . S
C582 H638 0.930 . S
C583 N580 1.314 1_545 S
C583 C581 1.353 . S
C583 H639 0.930 . S
C584 N585 1.314 . S
C584 C589 1.353 . S
C584 H590 0.930 . S
N585 Li568 1.990 . S
N585 C584 1.314 . S
N585 C587 1.279 . S
C586 C587 1.358 . S
C586 C588 1.356 . S
C586 H640 0.930 . S
C587 N585 1.279 . S
C587 C586 1.358 . S
C587 H591 0.930 . S
C588 C586 1.356 . S
C588 C589 1.348 . S
C589 C584 1.353 . S
C589 C588 1.348 . S
C589 H641 0.929 . S
H590 C584 0.930 . S
H591 C587 0.930 . S
C592 N593 1.314 . S
C592 C594 1.353 . S
C592 H598 0.930 . S
N593 Li569 1.990 1_455 S
N593 C592 1.314 . S
N593 C596 1.279 1_455 S
C594 C592 1.353 . S
C594 C597 1.348 . S
C594 H642 0.929 . S
C595 C596 1.358 1_455 S
C595 C597 1.356 . S
C595 H643 0.930 . S
C596 N593 1.279 1_655 S
C596 C595 1.358 1_655 S
C596 H599 0.930 . S
C597 C594 1.348 . S
C597 C595 1.356 . S
H598 C592 0.930 . S
H599 C596 0.930 . S
C600 C602 1.348 1_545 S
C600 C603 1.356 . S
C600 O630 1.325 . S
N601 C604 1.314 1_545 S
N601 C605 1.279 . S
C602 C600 1.348 1_565 S
C602 C604 1.353 . S
C602 H644 0.929 . S
C603 C600 1.356 . S
C603 C605 1.358 . S
C603 H645 0.930 . S
C604 N601 1.314 1_565 S
C604 C602 1.353 . S
C604 H646 0.930 . S
C605 N601 1.279 . S
C605 C603 1.358 . S
C605 H647 0.930 . S
C606 C607 1.348 1_655 S
C606 C608 1.356 . S
C606 O631 1.325 . S
C607 C606 1.348 1_455 S
C607 C609 1.353 . S
C607 H648 0.928 1_455 S
C608 C606 1.356 . S
C608 C610 1.358 1_655 S
C608 H649 0.930 . S
C609 C607 1.353 . S
C609 N611 1.314 . S
C609 H650 0.930 . S
C610 C608 1.358 1_455 S
C610 N611 1.279 . S
C610 H651 0.930 . S
N611 C609 1.314 . S
N611 C610 1.279 . S
C612 C614 1.353 . S
C612 N615 1.314 1_455 S
C612 H618 0.930 . S
C613 N615 1.279 . S
C613 C616 1.358 . S
C613 H619 0.930 . S
C614 C612 1.353 . S
C614 C617 1.348 . S
C614 H652 0.929 . S
N615 Li570 1.990 . S
N615 C612 1.314 1_655 S
N615 C613 1.279 . S
C616 C613 1.358 . S
C616 C617 1.356 1_655 S
C616 H653 0.930 . S
C617 C614 1.348 . S
C617 C616 1.356 1_455 S
H618 C612 0.930 . S
H619 C613 0.930 . S
C620 N621 1.314 . S
C620 C622 1.353 . S
C620 H626 0.930 . S
N621 Li571 1.990 . S
N621 C620 1.314 . S
N621 C624 1.279 . S
C622 C620 1.353 . S
C622 C625 1.348 . S
C622 H654 0.929 . S
C623 C624 1.358 . S
C623 C625 1.356 . S
C623 H655 0.930 . S
C624 N621 1.279 . S
C624 C623 1.358 . S
C624 H627 0.930 . S
C625 C622 1.348 . S
C625 C623 1.356 . S
H626 C620 0.930 . S
H627 C624 0.930 . S
O628 Li568 1.956 . S
O628 Li569 1.970 . S
O628 Li570 1.961 . S
O628 C572 1.325 . S
O629 Li568 1.970 . S
O629 Li569 1.956 . S
O629 Li571 1.961 1_545 S
O629 C578 1.325 . S
O630 Li568 1.961 . S
O630 Li570 1.956 . S
O630 Li571 1.970 1_545 S
O630 C600 1.325 . S
O631 Li569 1.961 1_565 S
O631 Li570 1.970 1_565 S
O631 Li571 1.956 . S
O631 C606 1.325 . S
H632 C574 0.929 . S
H633 C575 0.930 . S
H634 C576 0.930 . S
H635 C577 0.930 . S
H636 C579 0.930 . S
H637 C581 0.929 . S
H638 C582 0.930 . S
H639 C583 0.930 . S
H640 C586 0.930 . S
H641 C589 0.929 . S
H642 C594 0.929 . S
H643 C595 0.930 . S
H644 C602 0.929 . S
H645 C603 0.930 . S
H646 C604 0.930 . S
H647 C605 0.930 . S
H648 C607 0.928 1_655 S
H649 C608 0.930 . S
H650 C609 0.930 . S
H651 C610 0.930 . S
H652 C614 0.929 . S
H653 C616 0.930 . S
H654 C622 0.929 . S
H655 C623 0.930 . S
Li656 N673 1.990 . S
Li656 O716 1.956 . S
Li656 O717 1.970 . S
Li656 O718 1.961 . S
Li657 N681 1.990 . S
Li657 O716 1.970 . S
Li657 O717 1.956 . S
Li657 O719 1.961 . S
Li658 N703 1.990 . S
Li658 O716 1.961 . S
Li658 O718 1.956 . S
Li658 O719 1.970 . S
Li659 N709 1.990 . S
Li659 O717 1.961 . S
Li659 O718 1.970 . S
Li659 O719 1.956 . S
C660 C662 1.348 . S
C660 C663 1.356 . S
C660 O716 1.325 . S
N661 C664 1.314 . S
N661 C665 1.279 . S
C662 C660 1.348 . S
C662 C664 1.353 . S
C662 H720 0.929 . S
C663 C660 1.356 . S
C663 C665 1.358 . S
C663 H721 0.930 . S
C664 N661 1.314 . S
C664 C662 1.353 . S
C664 H722 0.930 . S
C665 N661 1.279 . S
C665 C663 1.358 . S
C665 H723 0.930 . S
C666 C669 1.348 . S
C666 C670 1.356 . S
C666 O717 1.325 . S
C667 N668 1.279 . S
C667 C670 1.358 . S
C667 H724 0.930 . S
N668 C667 1.279 . S
N668 C671 1.314 . S
C669 C666 1.348 . S
C669 C671 1.353 . S
C669 H725 0.929 . S
C670 C666 1.356 . S
C670 C667 1.358 . S
C670 H726 0.930 . S
C671 N668 1.314 . S
C671 C669 1.353 . S
C671 H727 0.930 . S
C672 N673 1.314 . S
C672 C677 1.353 . S
C672 H678 0.930 . S
N673 Li656 1.990 . S
N673 C672 1.314 . S
N673 C675 1.279 . S
C674 C675 1.358 . S
C674 C676 1.356 . S
C674 H728 0.930 . S
C675 N673 1.279 . S
C675 C674 1.358 . S
C675 H679 0.930 . S
C676 C674 1.356 . S
C676 C677 1.348 . S
C677 C672 1.353 . S
C677 C676 1.348 . S
C677 H729 0.929 . S
H678 C672 0.930 . S
H679 C675 0.930 . S
C680 N681 1.314 . S
C680 C682 1.353 . S
C680 H686 0.930 . S
N681 Li657 1.990 . S
N681 C680 1.314 . S
N681 C684 1.279 . S
C682 C680 1.353 . S
C682 C685 1.348 . S
C682 H730 0.929 . S
C683 C684 1.358 . S
C683 C685 1.356 . S
C683 H731 0.930 . S
C684 N681 1.279 . S
C684 C683 1.358 . S
C684 H687 0.930 . S
C685 C682 1.348 . S
C685 C683 1.356 . S
H686 C680 0.930 . S
H687 C684 0.930 . S
C688 C690 1.348 . S
C688 C691 1.356 . S
C688 O718 1.325 . S
N689 C692 1.314 . S
N689 C693 1.279 . S
C690 C688 1.348 . S
C690 C692 1.353 . S
C690 H732 0.929 . S
C691 C688 1.356 . S
C691 C693 1.358 . S
C691 H733 0.930 . S
C692 N689 1.314 . S
C692 C690 1.353 . S
C692 H734 0.930 . S
C693 N689 1.279 . S
C693 C691 1.358 . S
C693 H735 0.930 . S
C694 C695 1.348 . S
C694 C696 1.356 . S
C694 O719 1.325 . S
C695 C694 1.348 . S
C695 C697 1.353 . S
C695 H736 0.929 . S
C696 C694 1.356 . S
C696 C698 1.358 . S
C696 H737 0.930 . S
C697 C695 1.353 . S
C697 N699 1.314 . S
C697 H738 0.930 . S
C698 C696 1.358 . S
C698 N699 1.279 . S
C698 H739 0.930 . S
N699 C697 1.314 . S
N699 C698 1.279 . S
C700 C702 1.353 . S
C700 N703 1.314 . S
C700 H706 0.930 . S
C701 N703 1.279 . S
C701 C704 1.358 . S
C701 H707 0.930 . S
C702 C700 1.353 . S
C702 C705 1.348 . S
C702 H740 0.929 . S
N703 Li658 1.990 . S
N703 C700 1.314 . S
N703 C701 1.279 . S
C704 C701 1.358 . S
C704 C705 1.356 . S
C704 H741 0.930 . S
C705 C702 1.348 . S
C705 C704 1.356 . S
H706 C700 0.930 . S
H707 C701 0.930 . S
C708 N709 1.314 . S
C708 C710 1.353 . S
C708 H714 0.930 . S
N709 Li659 1.990 . S
N709 C708 1.314 . S
N709 C712 1.279 . S
C710 C708 1.353 . S
C710 C713 1.348 . S
C710 H742 0.929 . S
C711 C712 1.358 . S
C711 C713 1.356 . S
C711 H743 0.930 . S
C712 N709 1.279 . S
C712 C711 1.358 . S
C712 H715 0.930 . S
C713 C710 1.348 . S
C713 C711 1.356 . S
H714 C708 0.930 . S
H715 C712 0.930 . S
O716 Li656 1.956 . S
O716 Li657 1.970 . S
O716 Li658 1.961 . S
O716 C660 1.325 . S
O717 Li656 1.970 . S
O717 Li657 1.956 . S
O717 Li659 1.961 . S
O717 C666 1.325 . S
O718 Li656 1.961 . S
O718 Li658 1.956 . S
O718 Li659 1.970 . S
O718 C688 1.325 . S
O719 Li657 1.961 . S
O719 Li658 1.970 . S
O719 Li659 1.956 . S
O719 C694 1.325 . S
H720 C662 0.929 . S
H721 C663 0.930 . S
H722 C664 0.930 . S
H723 C665 0.930 . S
H724 C667 0.930 . S
H725 C669 0.929 . S
H726 C670 0.930 . S
H727 C671 0.930 . S
H728 C674 0.930 . S
H729 C677 0.929 . S
H730 C682 0.929 . S
H731 C683 0.930 . S
H732 C690 0.929 . S
H733 C691 0.930 . S
H734 C692 0.930 . S
H735 C693 0.930 . S
H736 C695 0.929 . S
H737 C696 0.930 . S
H738 C697 0.930 . S
H739 C698 0.930 . S
H740 C702 0.929 . S
H741 C704 0.930 . S
H742 C710 0.929 . S
H743 C711 0.930 . S
Li744 N761 1.990 . S
Li744 O804 1.956 . S
Li744 O805 1.970 . S
Li744 O806 1.961 . S
Li745 N769 1.990 . S
Li745 O804 1.970 . S
Li745 O805 1.956 . S
Li745 O807 1.961 . S
Li746 N791 1.990 . S
Li746 O804 1.961 . S
Li746 O806 1.956 . S
Li746 O807 1.970 . S
Li747 N797 1.990 . S
Li747 O805 1.961 . S
Li747 O806 1.970 . S
Li747 O807 1.956 . S
C748 C750 1.348 . S
C748 C751 1.356 . S
C748 O804 1.325 . S
N749 C752 1.314 . S
N749 C753 1.279 . S
C750 C748 1.348 . S
C750 C752 1.353 . S
C750 H808 0.929 . S
C751 C748 1.356 . S
C751 C753 1.358 . S
C751 H809 0.930 . S
C752 N749 1.314 . S
C752 C750 1.353 . S
C752 H810 0.930 . S
C753 N749 1.279 . S
C753 C751 1.358 . S
C753 H811 0.930 . S
C754 C757 1.348 . S
C754 C758 1.356 . S
C754 O805 1.325 . S
C755 N756 1.279 . S
C755 C758 1.358 . S
C755 H812 0.930 . S
N756 C755 1.279 . S
N756 C759 1.314 . S
C757 C754 1.348 . S
C757 C759 1.353 . S
C757 H813 0.929 . S
C758 C754 1.356 . S
C758 C755 1.358 . S
C758 H814 0.930 . S
C759 N756 1.314 . S
C759 C757 1.353 . S
C759 H815 0.930 . S
C760 N761 1.314 . S
C760 C765 1.353 . S
C760 H766 0.930 . S
N761 Li744 1.990 . S
N761 C760 1.314 . S
N761 C763 1.279 . S
C762 C763 1.358 . S
C762 C764 1.356 . S
C762 H816 0.930 . S
C763 N761 1.279 . S
C763 C762 1.358 . S
C763 H767 0.930 . S
C764 C762 1.356 . S
C764 C765 1.348 . S
C765 C760 1.353 . S
C765 C764 1.348 . S
C765 H817 0.929 . S
H766 C760 0.930 . S
H767 C763 0.930 . S
C768 N769 1.314 . S
C768 C770 1.353 . S
C768 H774 0.930 . S
N769 Li745 1.990 . S
N769 C768 1.314 . S
N769 C772 1.279 . S
C770 C768 1.353 . S
C770 C773 1.348 . S
C770 H818 0.929 . S
C771 C772 1.358 . S
C771 C773 1.356 . S
C771 H819 0.930 . S
C772 N769 1.279 . S
C772 C771 1.358 . S
C772 H775 0.930 . S
C773 C770 1.348 . S
C773 C771 1.356 . S
H774 C768 0.930 . S
H775 C772 0.930 . S
C776 C778 1.348 . S
C776 C779 1.356 . S
C776 O806 1.325 . S
N777 C780 1.314 . S
N777 C781 1.279 . S
C778 C776 1.348 . S
C778 C780 1.353 . S
C778 H820 0.929 . S
C779 C776 1.356 . S
C779 C781 1.358 . S
C779 H821 0.930 . S
C780 N777 1.314 . S
C780 C778 1.353 . S
C780 H822 0.930 . S
C781 N777 1.279 . S
C781 C779 1.358 . S
C781 H823 0.930 . S
C782 C783 1.348 . S
C782 C784 1.356 . S
C782 O807 1.325 . S
C783 C782 1.348 . S
C783 C785 1.353 . S
C783 H824 0.929 . S
C784 C782 1.356 . S
C784 C786 1.358 . S
C784 H825 0.930 . S
C785 C783 1.353 . S
C785 N787 1.314 . S
C785 H826 0.930 . S
C786 C784 1.358 . S
C786 N787 1.279 . S
C786 H827 0.930 . S
N787 C785 1.314 . S
N787 C786 1.279 . S
C788 C790 1.353 . S
C788 N791 1.314 . S
C788 H794 0.930 . S
C789 N791 1.279 . S
C789 C792 1.358 . S
C789 H795 0.930 . S
C790 C788 1.353 . S
C790 C793 1.348 . S
C790 H828 0.929 . S
N791 Li746 1.990 . S
N791 C788 1.314 . S
N791 C789 1.279 . S
C792 C789 1.358 . S
C792 C793 1.356 . S
C792 H829 0.930 . S
C793 C790 1.348 . S
C793 C792 1.356 . S
H794 C788 0.930 . S
H795 C789 0.930 . S
C796 N797 1.314 . S
C796 C798 1.353 . S
C796 H802 0.930 . S
N797 Li747 1.990 . S
N797 C796 1.314 . S
N797 C800 1.279 . S
C798 C796 1.353 . S
C798 C801 1.348 . S
C798 H830 0.929 . S
C799 C800 1.358 . S
C799 C801 1.356 . S
C799 H831 0.930 . S
C800 N797 1.279 . S
C800 C799 1.358 . S
C800 H803 0.930 . S
C801 C798 1.348 . S
C801 C799 1.356 . S
H802 C796 0.930 . S
H803 C800 0.930 . S
O804 Li744 1.956 . S
O804 Li745 1.970 . S
O804 Li746 1.961 . S
O804 C748 1.325 . S
O805 Li744 1.970 . S
O805 Li745 1.956 . S
O805 Li747 1.961 . S
O805 C754 1.325 . S
O806 Li744 1.961 . S
O806 Li746 1.956 . S
O806 Li747 1.970 . S
O806 C776 1.325 . S
O807 Li745 1.961 . S
O807 Li746 1.970 . S
O807 Li747 1.956 . S
O807 C782 1.325 . S
H808 C750 0.929 . S
H809 C751 0.930 . S
H810 C752 0.930 . S
H811 C753 0.930 . S
H812 C755 0.930 . S
H813 C757 0.929 . S
H814 C758 0.930 . S
H815 C759 0.930 . S
H816 C762 0.930 . S
H817 C765 0.929 . S
H818 C770 0.929 . S
H819 C771 0.930 . S
H820 C778 0.929 . S
H821 C779 0.930 . S
H822 C780 0.930 . S
H823 C781 0.930 . S
H824 C783 0.929 . S
H825 C784 0.930 . S
H826 C785 0.930 . S
H827 C786 0.930 . S
H828 C790 0.929 . S
H829 C792 0.930 . S
H830 C798 0.929 . S
H831 C799 0.930 . S
Li832 N849 1.990 . S
Li832 O892 1.956 . S
Li832 O893 1.970 . S
Li832 O894 1.961 . S
Li833 N857 1.990 . S
Li833 O892 1.970 . S
Li833 O893 1.956 . S
Li833 O895 1.961 . S
Li834 N879 1.990 . S
Li834 O892 1.961 . S
Li834 O894 1.956 . S
Li834 O895 1.970 . S
Li835 N885 1.990 . S
Li835 O893 1.961 . S
Li835 O894 1.970 . S
Li835 O895 1.956 . S
C836 C838 1.348 . S
C836 C839 1.356 . S
C836 O892 1.325 . S
N837 C840 1.314 . S
N837 C841 1.279 . S
C838 C836 1.348 . S
C838 C840 1.353 . S
C838 H896 0.929 . S
C839 C836 1.356 . S
C839 C841 1.358 . S
C839 H897 0.930 . S
C840 N837 1.314 . S
C840 C838 1.353 . S
C840 H898 0.930 . S
C841 N837 1.279 . S
C841 C839 1.358 . S
C841 H899 0.930 . S
C842 C845 1.348 . S
C842 C846 1.356 . S
C842 O893 1.325 . S
C843 N844 1.279 . S
C843 C846 1.358 . S
C843 H900 0.930 . S
N844 C843 1.279 . S
N844 C847 1.314 . S
C845 C842 1.348 . S
C845 C847 1.353 . S
C845 H901 0.929 . S
C846 C842 1.356 . S
C846 C843 1.358 . S
C846 H902 0.930 . S
C847 N844 1.314 . S
C847 C845 1.353 . S
C847 H903 0.930 . S
C848 N849 1.314 . S
C848 C853 1.353 . S
C848 H854 0.930 . S
N849 Li832 1.990 . S
N849 C848 1.314 . S
N849 C851 1.279 . S
C850 C851 1.358 . S
C850 C852 1.356 . S
C850 H904 0.930 . S
C851 N849 1.279 . S
C851 C850 1.358 . S
C851 H855 0.930 . S
C852 C850 1.356 . S
C852 C853 1.348 . S
C853 C848 1.353 . S
C853 C852 1.348 . S
C853 H905 0.929 . S
H854 C848 0.930 . S
H855 C851 0.930 . S
C856 N857 1.314 . S
C856 C858 1.353 . S
C856 H862 0.930 . S
N857 Li833 1.990 . S
N857 C856 1.314 . S
N857 C860 1.279 . S
C858 C856 1.353 . S
C858 C861 1.348 . S
C858 H906 0.929 . S
C859 C860 1.358 . S
C859 C861 1.356 . S
C859 H907 0.930 . S
C860 N857 1.279 . S
C860 C859 1.358 . S
C860 H863 0.930 . S
C861 C858 1.348 . S
C861 C859 1.356 . S
H862 C856 0.930 . S
H863 C860 0.930 . S
C864 C866 1.348 . S
C864 C867 1.356 . S
C864 O894 1.325 . S
N865 C868 1.314 . S
N865 C869 1.279 . S
C866 C864 1.348 . S
C866 C868 1.353 . S
C866 H908 0.929 . S
C867 C864 1.356 . S
C867 C869 1.358 . S
C867 H909 0.930 . S
C868 N865 1.314 . S
C868 C866 1.353 . S
C868 H910 0.930 . S
C869 N865 1.279 . S
C869 C867 1.358 . S
C869 H911 0.930 . S
C870 C871 1.348 . S
C870 C872 1.356 . S
C870 O895 1.325 . S
C871 C870 1.348 . S
C871 C873 1.353 . S
C871 H912 0.929 . S
C872 C870 1.356 . S
C872 C874 1.358 . S
C872 H913 0.930 . S
C873 C871 1.353 . S
C873 N875 1.314 . S
C873 H914 0.930 . S
C874 C872 1.358 . S
C874 N875 1.279 . S
C874 H915 0.930 . S
N875 C873 1.314 . S
N875 C874 1.279 . S
C876 C878 1.353 . S
C876 N879 1.314 . S
C876 H882 0.930 . S
C877 N879 1.279 . S
C877 C880 1.358 . S
C877 H883 0.930 . S
C878 C876 1.353 . S
C878 C881 1.348 . S
C878 H916 0.929 . S
N879 Li834 1.990 . S
N879 C876 1.314 . S
N879 C877 1.279 . S
C880 C877 1.358 . S
C880 C881 1.356 . S
C880 H917 0.930 . S
C881 C878 1.348 . S
C881 C880 1.356 . S
H882 C876 0.930 . S
H883 C877 0.930 . S
C884 N885 1.314 . S
C884 C886 1.353 . S
C884 H890 0.930 . S
N885 Li835 1.990 . S
N885 C884 1.314 . S
N885 C888 1.279 . S
C886 C884 1.353 . S
C886 C889 1.348 . S
C886 H918 0.929 . S
C887 C888 1.358 . S
C887 C889 1.356 . S
C887 H919 0.930 . S
C888 N885 1.279 . S
C888 C887 1.358 . S
C888 H891 0.930 . S
C889 C886 1.348 . S
C889 C887 1.356 . S
H890 C884 0.930 . S
H891 C888 0.930 . S
O892 Li832 1.956 . S
O892 Li833 1.970 . S
O892 Li834 1.961 . S
O892 C836 1.325 . S
O893 Li832 1.970 . S
O893 Li833 1.956 . S
O893 Li835 1.961 . S
O893 C842 1.325 . S
O894 Li832 1.961 . S
O894 Li834 1.956 . S
O894 Li835 1.970 . S
O894 C864 1.325 . S
O895 Li833 1.961 . S
O895 Li834 1.970 . S
O895 Li835 1.956 . S
O895 C870 1.325 . S
H896 C838 0.929 . S
H897 C839 0.930 . S
H898 C840 0.930 . S
H899 C841 0.930 . S
H900 C843 0.930 . S
H901 C845 0.929 . S
H902 C846 0.930 . S
H903 C847 0.930 . S
H904 C850 0.930 . S
H905 C853 0.929 . S
H906 C858 0.929 . S
H907 C859 0.930 . S
H908 C866 0.929 . S
H909 C867 0.930 . S
H910 C868 0.930 . S
H911 C869 0.930 . S
H912 C871 0.929 . S
H913 C872 0.930 . S
H914 C873 0.930 . S
H915 C874 0.930 . S
H916 C878 0.929 . S
H917 C880 0.930 . S
H918 C886 0.929 . S
H919 C887 0.930 . S
Li920 N937 1.990 . S
Li920 O980 1.956 . S
Li920 O981 1.970 1_565 S
Li920 O982 1.961 1_565 S
Li921 N945 1.990 . S
Li921 O980 1.970 1_545 S
Li921 O981 1.956 . S
Li921 O983 1.961 . S
Li922 N967 1.991 . S
Li922 O980 1.961 1_545 S
Li922 O982 1.956 . S
Li922 O983 1.970 . S
Li923 N973 1.990 . S
Li923 O981 1.961 . S
Li923 O982 1.970 . S
Li923 O983 1.956 . S
C924 C926 1.348 . S
C924 C927 1.356 . S
C924 O980 1.325 . S
N925 C928 1.314 . S
N925 C929 1.279 . S
C926 C924 1.348 . S
C926 C928 1.353 . S
C926 H984 0.929 . S
C927 C924 1.356 . S
C927 C929 1.358 . S
C927 H985 0.930 . S
C928 N925 1.314 . S
C928 C926 1.353 . S
C928 H986 0.930 . S
C929 N925 1.279 . S
C929 C927 1.358 . S
C929 H987 0.930 . S
C930 C933 1.348 . S
C930 C934 1.356 . S
C930 O981 1.325 . S
C931 N932 1.279 . S
C931 C934 1.358 . S
C931 H988 0.930 . S
N932 C931 1.279 . S
N932 C935 1.314 . S
C933 C930 1.348 . S
C933 C935 1.353 . S
C933 H989 0.929 1_545 S
C934 C930 1.356 . S
C934 C931 1.358 . S
C934 H990 0.930 . S
C935 N932 1.314 . S
C935 C933 1.353 . S
C935 H991 0.930 . S
C936 N937 1.314 . S
C936 C941 1.353 . S
C936 H942 0.930 . S
N937 Li920 1.990 . S
N937 C936 1.314 . S
N937 C939 1.279 . S
C938 C939 1.358 . S
C938 C940 1.356 . S
C938 H992 0.930 . S
C939 N937 1.279 . S
C939 C938 1.358 . S
C939 H943 0.930 . S
C940 C938 1.356 . S
C940 C941 1.348 . S
C941 C936 1.353 . S
C941 C940 1.348 . S
C941 H993 0.929 . S
H942 C936 0.930 . S
H943 C939 0.930 . S
C944 N945 1.314 . S
C944 C946 1.353 . S
C944 H950 0.930 . S
N945 Li921 1.990 . S
N945 C944 1.314 . S
N945 C948 1.279 . S
C946 C944 1.353 . S
C946 C949 1.348 . S
C946 H994 0.929 . S
C947 C948 1.358 . S
C947 C949 1.356 . S
C947 H995 0.930 . S
C948 N945 1.279 . S
C948 C947 1.358 . S
C948 H951 0.930 . S
C949 C946 1.348 . S
C949 C947 1.356 . S
H950 C944 0.930 . S
H951 C948 0.930 . S
C952 C954 1.348 . S
C952 C955 1.356 1_545 S
C952 O982 1.325 . S
N953 C956 1.314 . S
N953 C957 1.279 1_545 S
C954 C952 1.348 . S
C954 C956 1.353 . S
C954 H996 0.929 . S
C955 C952 1.356 1_565 S
C955 C957 1.358 . S
C955 H997 0.930 . S
C956 N953 1.314 . S
C956 C954 1.353 . S
C956 H998 0.930 . S
C957 N953 1.279 1_565 S
C957 C955 1.358 . S
C957 H999 0.930 . S
C958 C959 1.348 . S
C958 C960 1.356 . S
C958 O983 1.325 . S
C959 C958 1.348 . S
C959 C961 1.353 . S
C959 H1000 0.929 . S
C960 C958 1.356 . S
C960 C962 1.358 . S
C960 H1001 0.930 . S
C961 C959 1.353 . S
C961 N963 1.314 . S
C961 H1002 0.930 . S
C962 C960 1.358 . S
C962 N963 1.279 . S
C962 H1003 0.930 . S
N963 C961 1.314 . S
N963 C962 1.279 . S
C964 C966 1.353 . S
C964 N967 1.311 1_565 S
C964 H970 0.930 . S
C965 N967 1.283 . S
C965 C968 1.358 1_545 S
C965 H971 0.930 . S
C966 C964 1.353 . S
C966 C969 1.348 . S
C966 H1004 0.929 . S
N967 Li922 1.991 . S
N967 C964 1.311 1_545 S
N967 C965 1.283 . S
C968 C965 1.358 1_565 S
C968 C969 1.356 . S
C968 H1005 0.930 . S
C969 C966 1.348 . S
C969 C968 1.356 . S
H970 C964 0.930 . S
H971 C965 0.930 . S
C972 N973 1.314 . S
C972 C974 1.353 . S
C972 H978 0.930 . S
N973 Li923 1.990 . S
N973 C972 1.314 . S
N973 C976 1.279 . S
C974 C972 1.353 . S
C974 C977 1.348 . S
C974 H1006 0.929 . S
C975 C976 1.358 . S
C975 C977 1.356 . S
C975 H1007 0.930 . S
C976 N973 1.279 . S
C976 C975 1.358 . S
C976 H979 0.930 . S
C977 C974 1.348 . S
C977 C975 1.356 . S
H978 C972 0.930 . S
H979 C976 0.930 . S
O980 Li920 1.956 . S
O980 Li921 1.970 1_565 S
O980 Li922 1.961 1_565 S
O980 C924 1.325 . S
O981 Li920 1.970 1_545 S
O981 Li921 1.956 . S
O981 Li923 1.961 . S
O981 C930 1.325 . S
O982 Li920 1.961 1_545 S
O982 Li922 1.956 . S
O982 Li923 1.970 . S
O982 C952 1.325 . S
O983 Li921 1.961 . S
O983 Li922 1.970 . S
O983 Li923 1.956 . S
O983 C958 1.325 . S
H984 C926 0.929 . S
H985 C927 0.930 . S
H986 C928 0.930 . S
H987 C929 0.930 . S
H988 C931 0.930 . S
H989 C933 0.929 1_565 S
H990 C934 0.930 . S
H991 C935 0.930 . S
H992 C938 0.930 . S
H993 C941 0.929 . S
H994 C946 0.929 . S
H995 C947 0.930 . S
H996 C954 0.929 . S
H997 C955 0.930 . S
H998 C956 0.930 . S
H999 C957 0.930 . S
H1000 C959 0.929 . S
H1001 C960 0.930 . S
H1002 C961 0.930 . S
H1003 C962 0.930 . S
H1004 C966 0.929 . S
H1005 C968 0.930 . S
H1006 C974 0.929 . S
H1007 C975 0.930 . S
Li1008 N1025 1.990 . S
Li1008 O1068 1.956 . S
Li1008 O1069 1.970 . S
Li1008 O1070 1.961 . S
Li1009 N1033 1.990 1_455 S
Li1009 O1068 1.970 . S
Li1009 O1069 1.956 . S
Li1009 O1071 1.961 1_455 S
Li1010 N1055 1.990 . S
Li1010 O1068 1.961 . S
Li1010 O1070 1.956 . S
Li1010 O1071 1.970 1_455 S
Li1011 N1061 1.990 . S
Li1011 O1069 1.961 1_655 S
Li1011 O1070 1.970 1_655 S
Li1011 O1071 1.956 . S
C1012 C1014 1.348 . S
C1012 C1015 1.356 . S
C1012 O1068 1.325 . S
N1013 C1016 1.314 . S
N1013 C1017 1.279 . S
C1014 C1012 1.348 . S
C1014 C1016 1.353 . S
C1014 H1072 0.929 . S
C1015 C1012 1.356 . S
C1015 C1017 1.358 . S
C1015 H1073 0.930 . S
C1016 N1013 1.314 . S
C1016 C1014 1.353 . S
C1016 H1074 0.930 . S
C1017 N1013 1.279 . S
C1017 C1015 1.358 . S
C1017 H1075 0.930 . S
C1018 C1021 1.354 . S
C1018 C1022 1.349 1_455 S
C1018 O1069 1.326 . S
C1019 N1020 1.279 . S
C1019 C1022 1.358 . S
C1019 H1076 0.930 . S
N1020 C1019 1.279 . S
N1020 C1023 1.314 1_655 S
C1021 C1018 1.354 . S
C1021 C1023 1.353 . S
C1021 H1077 0.929 . S
C1022 C1018 1.349 1_655 S
C1022 C1019 1.358 . S
C1022 H1078 0.930 . S
C1023 N1020 1.314 1_455 S
C1023 C1021 1.353 . S
C1023 H1079 0.930 . S
C1024 N1025 1.314 . S
C1024 C1029 1.353 . S
C1024 H1030 0.930 . S
N1025 Li1008 1.990 . S
N1025 C1024 1.314 . S
N1025 C1027 1.279 . S
C1026 C1027 1.358 . S
C1026 C1028 1.356 . S
C1026 H1080 0.930 . S
C1027 N1025 1.279 . S
C1027 C1026 1.358 . S
C1027 H1031 0.930 . S
C1028 C1026 1.356 . S
C1028 C1029 1.348 . S
C1029 C1024 1.353 . S
C1029 C1028 1.348 . S
C1029 H1081 0.929 . S
H1030 C1024 0.930 . S
H1031 C1027 0.930 . S
C1032 N1033 1.314 . S
C1032 C1034 1.353 . S
C1032 H1038 0.930 . S
N1033 Li1009 1.990 1_655 S
N1033 C1032 1.314 . S
N1033 C1036 1.279 1_655 S
C1034 C1032 1.353 . S
C1034 C1037 1.352 . S
C1034 H1082 0.929 . S
C1035 C1036 1.358 . S
C1035 C1037 1.351 1_455 S
C1035 H1083 0.930 . S
C1036 N1033 1.279 1_455 S
C1036 C1035 1.358 . S
C1036 H1039 0.930 . S
C1037 C1034 1.352 . S
C1037 C1035 1.351 1_655 S
H1038 C1032 0.930 . S
H1039 C1036 0.930 . S
C1040 C1042 1.348 1_455 S
C1040 C1043 1.356 . S
C1040 O1070 1.325 . S
N1041 C1044 1.314 1_455 S
N1041 C1045 1.279 . S
C1042 C1040 1.348 1_655 S
C1042 C1044 1.353 . S
C1042 H1084 0.929 . S
C1043 C1040 1.356 . S
C1043 C1045 1.358 . S
C1043 H1085 0.930 . S
C1044 N1041 1.314 1_655 S
C1044 C1042 1.353 . S
C1044 H1086 0.930 . S
C1045 N1041 1.279 . S
C1045 C1043 1.358 . S
C1045 H1087 0.930 . S
C1046 C1047 1.348 . S
C1046 C1048 1.356 . S
C1046 O1071 1.325 . S
C1047 C1046 1.348 . S
C1047 C1049 1.353 . S
C1047 H1088 0.929 . S
C1048 C1046 1.356 . S
C1048 C1050 1.358 . S
C1048 H1089 0.930 . S
C1049 C1047 1.353 . S
C1049 N1051 1.314 . S
C1049 H1090 0.930 . S
C1050 C1048 1.358 . S
C1050 N1051 1.279 . S
C1050 H1091 0.930 . S
N1051 C1049 1.314 . S
N1051 C1050 1.279 . S
C1052 C1054 1.353 . S
C1052 N1055 1.314 . S
C1052 H1058 0.930 . S
C1053 N1055 1.279 . S
C1053 C1056 1.358 . S
C1053 H1059 0.926 1_455 S
C1054 C1052 1.353 . S
C1054 C1057 1.348 . S
C1054 H1092 0.929 . S
N1055 Li1010 1.990 . S
N1055 C1052 1.314 . S
N1055 C1053 1.279 . S
C1056 C1053 1.358 . S
C1056 C1057 1.356 . S
C1056 H1093 0.930 . S
C1057 C1054 1.348 . S
C1057 C1056 1.356 . S
H1058 C1052 0.930 . S
H1059 C1053 0.926 1_655 S
C1060 N1061 1.314 . S
C1060 C1062 1.353 . S
C1060 H1066 0.930 . S
N1061 Li1011 1.990 . S
N1061 C1060 1.314 . S
N1061 C1064 1.279 . S
C1062 C1060 1.353 . S
C1062 C1065 1.348 . S
C1062 H1094 0.929 . S
C1063 C1064 1.358 . S
C1063 C1065 1.356 . S
C1063 H1095 0.930 . S
C1064 N1061 1.279 . S
C1064 C1063 1.358 . S
C1064 H1067 0.930 . S
C1065 C1062 1.348 . S
C1065 C1063 1.356 . S
H1066 C1060 0.930 . S
H1067 C1064 0.930 . S
O1068 Li1008 1.956 . S
O1068 Li1009 1.970 . S
O1068 Li1010 1.961 . S
O1068 C1012 1.325 . S
O1069 Li1008 1.970 . S
O1069 Li1009 1.956 . S
O1069 Li1011 1.961 1_455 S
O1069 C1018 1.326 . S
O1070 Li1008 1.961 . S
O1070 Li1010 1.956 . S
O1070 Li1011 1.970 1_455 S
O1070 C1040 1.325 . S
O1071 Li1009 1.961 1_655 S
O1071 Li1010 1.970 1_655 S
O1071 Li1011 1.956 . S
O1071 C1046 1.325 . S
H1072 C1014 0.929 . S
H1073 C1015 0.930 . S
H1074 C1016 0.930 . S
H1075 C1017 0.930 . S
H1076 C1019 0.930 . S
H1077 C1021 0.929 . S
H1078 C1022 0.930 . S
H1079 C1023 0.930 . S
H1080 C1026 0.930 . S
H1081 C1029 0.929 . S
H1082 C1034 0.929 . S
H1083 C1035 0.930 . S
H1084 C1042 0.929 . S
H1085 C1043 0.930 . S
H1086 C1044 0.930 . S
H1087 C1045 0.930 . S
H1088 C1047 0.929 . S
H1089 C1048 0.930 . S
H1090 C1049 0.930 . S
H1091 C1050 0.930 . S
H1092 C1054 0.929 . S
H1093 C1056 0.930 . S
H1094 C1062 0.929 . S
H1095 C1063 0.930 . S
Li1096 N1113 1.990 . S
Li1096 O1156 1.956 . S
Li1096 O1157 1.970 . S
Li1096 O1158 1.961 . S
Li1097 N1121 1.990 . S
Li1097 O1156 1.970 . S
Li1097 O1157 1.956 . S
Li1097 O1159 1.961 . S
Li1098 N1143 1.990 . S
Li1098 O1156 1.961 . S
Li1098 O1158 1.956 . S
Li1098 O1159 1.970 . S
Li1099 N1149 1.990 . S
Li1099 O1157 1.961 . S
Li1099 O1158 1.970 . S
Li1099 O1159 1.956 . S
C1100 C1102 1.348 . S
C1100 C1103 1.356 . S
C1100 O1156 1.325 . S
N1101 C1104 1.314 . S
N1101 C1105 1.279 . S
C1102 C1100 1.348 . S
C1102 C1104 1.353 . S
C1102 H1160 0.929 . S
C1103 C1100 1.356 . S
C1103 C1105 1.358 . S
C1103 H1161 0.930 . S
C1104 N1101 1.314 . S
C1104 C1102 1.353 . S
C1104 H1162 0.930 . S
C1105 N1101 1.279 . S
C1105 C1103 1.358 . S
C1105 H1163 0.930 . S
C1106 C1109 1.348 . S
C1106 C1110 1.356 . S
C1106 O1157 1.325 . S
C1107 N1108 1.279 . S
C1107 C1110 1.358 . S
C1107 H1164 0.930 . S
N1108 C1107 1.279 . S
N1108 C1111 1.314 . S
C1109 C1106 1.348 . S
C1109 C1111 1.353 . S
C1109 H1165 0.929 . S
C1110 C1106 1.356 . S
C1110 C1107 1.358 . S
C1110 H1166 0.930 . S
C1111 N1108 1.314 . S
C1111 C1109 1.353 . S
C1111 H1167 0.930 . S
C1112 N1113 1.314 . S
C1112 C1117 1.353 . S
C1112 H1118 0.930 . S
N1113 Li1096 1.990 . S
N1113 C1112 1.314 . S
N1113 C1115 1.279 . S
C1114 C1115 1.358 . S
C1114 C1116 1.356 . S
C1114 H1168 0.930 . S
C1115 N1113 1.279 . S
C1115 C1114 1.358 . S
C1115 H1119 0.930 . S
C1116 C1114 1.356 . S
C1116 C1117 1.348 . S
C1117 C1112 1.353 . S
C1117 C1116 1.348 . S
C1117 H1169 0.929 . S
H1118 C1112 0.930 . S
H1119 C1115 0.930 . S
C1120 N1121 1.314 . S
C1120 C1122 1.353 . S
C1120 H1126 0.930 . S
N1121 Li1097 1.990 . S
N1121 C1120 1.314 . S
N1121 C1124 1.279 . S
C1122 C1120 1.353 . S
C1122 C1125 1.348 . S
C1122 H1170 0.929 . S
C1123 C1124 1.358 . S
C1123 C1125 1.356 . S
C1123 H1171 0.930 . S
C1124 N1121 1.279 . S
C1124 C1123 1.358 . S
C1124 H1127 0.930 . S
C1125 C1122 1.348 . S
C1125 C1123 1.356 . S
H1126 C1120 0.930 . S
H1127 C1124 0.930 . S
C1128 C1130 1.348 . S
C1128 C1131 1.356 . S
C1128 O1158 1.325 . S
N1129 C1132 1.314 . S
N1129 C1133 1.279 . S
C1130 C1128 1.348 . S
C1130 C1132 1.353 . S
C1130 H1172 0.929 . S
C1131 C1128 1.356 . S
C1131 C1133 1.358 . S
C1131 H1173 0.930 . S
C1132 N1129 1.314 . S
C1132 C1130 1.353 . S
C1132 H1174 0.930 . S
C1133 N1129 1.279 . S
C1133 C1131 1.358 . S
C1133 H1175 0.930 . S
C1134 C1135 1.348 . S
C1134 C1136 1.356 . S
C1134 O1159 1.325 . S
C1135 C1134 1.348 . S
C1135 C1137 1.353 . S
C1135 H1176 0.929 . S
C1136 C1134 1.356 . S
C1136 C1138 1.358 . S
C1136 H1177 0.930 . S
C1137 C1135 1.353 . S
C1137 N1139 1.314 . S
C1137 H1178 0.930 . S
C1138 C1136 1.358 . S
C1138 N1139 1.279 . S
C1138 H1179 0.930 . S
N1139 C1137 1.314 . S
N1139 C1138 1.279 . S
C1140 C1142 1.353 . S
C1140 N1143 1.314 . S
C1140 H1146 0.930 . S
C1141 N1143 1.279 . S
C1141 C1144 1.358 . S
C1141 H1147 0.930 . S
C1142 C1140 1.353 . S
C1142 C1145 1.348 . S
C1142 H1180 0.929 . S
N1143 Li1098 1.990 . S
N1143 C1140 1.314 . S
N1143 C1141 1.279 . S
C1144 C1141 1.358 . S
C1144 C1145 1.356 . S
C1144 H1181 0.930 . S
C1145 C1142 1.348 . S
C1145 C1144 1.356 . S
H1146 C1140 0.930 . S
H1147 C1141 0.930 . S
C1148 N1149 1.314 . S
C1148 C1150 1.353 . S
C1148 H1154 0.930 . S
N1149 Li1099 1.990 . S
N1149 C1148 1.314 . S
N1149 C1152 1.279 . S
C1150 C1148 1.353 . S
C1150 C1153 1.348 . S
C1150 H1182 0.929 . S
C1151 C1152 1.358 . S
C1151 C1153 1.356 . S
C1151 H1183 0.930 . S
C1152 N1149 1.279 . S
C1152 C1151 1.358 . S
C1152 H1155 0.930 . S
C1153 C1150 1.348 . S
C1153 C1151 1.356 . S
H1154 C1148 0.930 . S
H1155 C1152 0.930 . S
O1156 Li1096 1.956 . S
O1156 Li1097 1.970 . S
O1156 Li1098 1.961 . S
O1156 C1100 1.325 . S
O1157 Li1096 1.970 . S
O1157 Li1097 1.956 . S
O1157 Li1099 1.961 . S
O1157 C1106 1.325 . S
O1158 Li1096 1.961 . S
O1158 Li1098 1.956 . S
O1158 Li1099 1.970 . S
O1158 C1128 1.325 . S
O1159 Li1097 1.961 . S
O1159 Li1098 1.970 . S
O1159 Li1099 1.956 . S
O1159 C1134 1.325 . S
H1160 C1102 0.929 . S
H1161 C1103 0.930 . S
H1162 C1104 0.930 . S
H1163 C1105 0.930 . S
H1164 C1107 0.930 . S
H1165 C1109 0.929 . S
H1166 C1110 0.930 . S
H1167 C1111 0.930 . S
H1168 C1114 0.930 . S
H1169 C1117 0.929 . S
H1170 C1122 0.929 . S
H1171 C1123 0.930 . S
H1172 C1130 0.929 . S
H1173 C1131 0.930 . S
H1174 C1132 0.930 . S
H1175 C1133 0.930 . S
H1176 C1135 0.929 . S
H1177 C1136 0.930 . S
H1178 C1137 0.930 . S
H1179 C1138 0.930 . S
H1180 C1142 0.929 . S
H1181 C1144 0.930 . S
H1182 C1150 0.929 . S
H1183 C1151 0.930 . S
Li1184 N1201 1.990 . S
Li1184 O1244 1.956 . S
Li1184 O1245 1.970 1_455 S
Li1184 O1246 1.961 . S
Li1185 N1209 1.990 . S
Li1185 O1244 1.970 1_655 S
Li1185 O1245 1.956 . S
Li1185 O1247 1.961 . S
Li1186 N1231 1.990 . S
Li1186 O1244 1.961 . S
Li1186 O1246 1.956 . S
Li1186 O1247 1.970 1_455 S
Li1187 N1237 1.990 . S
Li1187 O1245 1.961 . S
Li1187 O1246 1.970 1_655 S
Li1187 O1247 1.956 . S
C1188 C1190 1.348 1_455 S
C1188 C1191 1.356 . S
C1188 O1244 1.325 . S
N1189 C1192 1.314 . S
N1189 C1193 1.279 . S
C1190 C1188 1.348 1_655 S
C1190 C1192 1.353 1_655 S
C1190 H1248 0.929 . S
C1191 C1188 1.356 . S
C1191 C1193 1.358 . S
C1191 H1249 0.930 . S
C1192 N1189 1.314 . S
C1192 C1190 1.353 1_455 S
C1192 H1250 0.930 1_455 S
C1193 N1189 1.279 . S
C1193 C1191 1.358 . S
C1193 H1251 0.930 . S
C1194 C1197 1.348 . S
C1194 C1198 1.356 . S
C1194 O1245 1.325 . S
C1195 N1196 1.279 . S
C1195 C1198 1.358 . S
C1195 H1252 0.930 . S
N1196 C1195 1.279 . S
N1196 C1199 1.314 . S
C1197 C1194 1.348 . S
C1197 C1199 1.353 . S
C1197 H1253 0.929 . S
C1198 C1194 1.356 . S
C1198 C1195 1.358 . S
C1198 H1254 0.930 . S
C1199 N1196 1.314 . S
C1199 C1197 1.353 . S
C1199 H1255 0.930 . S
C1200 N1201 1.314 . S
C1200 C1205 1.353 . S
C1200 H1206 0.930 . S
N1201 Li1184 1.990 . S
N1201 C1200 1.314 . S
N1201 C1203 1.279 . S
C1202 C1203 1.358 . S
C1202 C1204 1.356 . S
C1202 H1256 0.930 . S
C1203 N1201 1.279 . S
C1203 C1202 1.358 . S
C1203 H1207 0.930 . S
C1204 C1202 1.356 . S
C1204 C1205 1.348 . S
C1205 C1200 1.353 . S
C1205 C1204 1.348 . S
C1205 H1257 0.929 . S
H1206 C1200 0.930 . S
H1207 C1203 0.930 . S
C1208 N1209 1.314 . S
C1208 C1210 1.353 . S
C1208 H1214 0.930 . S
N1209 Li1185 1.990 . S
N1209 C1208 1.314 . S
N1209 C1212 1.279 . S
C1210 C1208 1.353 . S
C1210 C1213 1.348 . S
C1210 H1258 0.929 . S
C1211 C1212 1.358 . S
C1211 C1213 1.356 . S
C1211 H1259 0.930 . S
C1212 N1209 1.279 . S
C1212 C1211 1.358 . S
C1212 H1215 0.930 . S
C1213 C1210 1.348 . S
C1213 C1211 1.356 . S
H1214 C1208 0.930 . S
H1215 C1212 0.930 . S
C1216 C1218 1.348 . S
C1216 C1219 1.356 . S
C1216 O1246 1.325 . S
N1217 C1220 1.314 . S
N1217 C1221 1.279 . S
C1218 C1216 1.348 . S
C1218 C1220 1.353 . S
C1218 H1260 0.929 . S
C1219 C1216 1.356 . S
C1219 C1221 1.358 . S
C1219 H1261 0.930 . S
C1220 N1217 1.314 . S
C1220 C1218 1.353 . S
C1220 H1262 0.930 . S
C1221 N1217 1.279 . S
C1221 C1219 1.358 . S
C1221 H1263 0.930 . S
C1222 C1223 1.348 1_655 S
C1222 C1224 1.356 . S
C1222 O1247 1.325 . S
C1223 C1222 1.348 1_455 S
C1223 C1225 1.353 1_455 S
C1223 H1264 0.929 . S
C1224 C1222 1.356 . S
C1224 C1226 1.358 . S
C1224 H1265 0.930 . S
C1225 C1223 1.353 1_655 S
C1225 N1227 1.314 . S
C1225 H1266 0.930 1_655 S
C1226 C1224 1.358 . S
C1226 N1227 1.279 . S
C1226 H1267 0.930 . S
N1227 C1225 1.314 . S
N1227 C1226 1.279 . S
C1228 C1230 1.353 . S
C1228 N1231 1.314 . S
C1228 H1234 0.930 . S
C1229 N1231 1.279 . S
C1229 C1232 1.358 . S
C1229 H1235 0.930 . S
C1230 C1228 1.353 . S
C1230 C1233 1.348 . S
C1230 H1268 0.929 . S
N1231 Li1186 1.990 . S
N1231 C1228 1.314 . S
N1231 C1229 1.279 . S
C1232 C1229 1.358 . S
C1232 C1233 1.356 . S
C1232 H1269 0.930 . S
C1233 C1230 1.348 . S
C1233 C1232 1.356 . S
H1234 C1228 0.930 . S
H1235 C1229 0.930 . S
C1236 N1237 1.314 . S
C1236 C1238 1.353 . S
C1236 H1242 0.930 . S
N1237 Li1187 1.990 . S
N1237 C1236 1.314 . S
N1237 C1240 1.279 . S
C1238 C1236 1.353 . S
C1238 C1241 1.348 . S
C1238 H1270 0.929 . S
C1239 C1240 1.358 . S
C1239 C1241 1.356 . S
C1239 H1271 0.930 . S
C1240 N1237 1.279 . S
C1240 C1239 1.358 . S
C1240 H1243 0.930 . S
C1241 C1238 1.348 . S
C1241 C1239 1.356 . S
H1242 C1236 0.930 . S
H1243 C1240 0.930 . S
O1244 Li1184 1.956 . S
O1244 Li1185 1.970 1_455 S
O1244 Li1186 1.961 . S
O1244 C1188 1.325 . S
O1245 Li1184 1.970 1_655 S
O1245 Li1185 1.956 . S
O1245 Li1187 1.961 . S
O1245 C1194 1.325 . S
O1246 Li1184 1.961 . S
O1246 Li1186 1.956 . S
O1246 Li1187 1.970 1_455 S
O1246 C1216 1.325 . S
O1247 Li1185 1.961 . S
O1247 Li1186 1.970 1_655 S
O1247 Li1187 1.956 . S
O1247 C1222 1.325 . S
H1248 C1190 0.929 . S
H1249 C1191 0.930 . S
H1250 C1192 0.930 1_655 S
H1251 C1193 0.930 . S
H1252 C1195 0.930 . S
H1253 C1197 0.929 . S
H1254 C1198 0.930 . S
H1255 C1199 0.930 . S
H1256 C1202 0.930 . S
H1257 C1205 0.929 . S
H1258 C1210 0.929 . S
H1259 C1211 0.930 . S
H1260 C1218 0.929 . S
H1261 C1219 0.930 . S
H1262 C1220 0.930 . S
H1263 C1221 0.930 . S
H1264 C1223 0.929 . S
H1265 C1224 0.930 . S
H1266 C1225 0.930 1_455 S
H1267 C1226 0.930 . S
H1268 C1230 0.929 . S
H1269 C1232 0.930 . S
H1270 C1238 0.929 . S
H1271 C1239 0.930 . S
Li1272 N1289 1.990 . S
Li1272 O1332 1.956 . S
Li1272 O1333 1.970 . S
Li1272 O1334 1.961 . S
Li1273 N1297 1.990 . S
Li1273 O1332 1.970 . S
Li1273 O1333 1.956 . S
Li1273 O1335 1.961 . S
Li1274 N1319 1.990 . S
Li1274 O1332 1.961 . S
Li1274 O1334 1.956 . S
Li1274 O1335 1.970 . S
Li1275 N1325 1.990 . S
Li1275 O1333 1.961 . S
Li1275 O1334 1.970 . S
Li1275 O1335 1.956 . S
C1276 C1278 1.348 . S
C1276 C1279 1.356 . S
C1276 O1332 1.325 . S
N1277 C1280 1.314 . S
N1277 C1281 1.279 . S
C1278 C1276 1.348 . S
C1278 C1280 1.353 . S
C1278 H1336 0.929 . S
C1279 C1276 1.356 . S
C1279 C1281 1.358 . S
C1279 H1337 0.930 . S
C1280 N1277 1.314 . S
C1280 C1278 1.353 . S
C1280 H1338 0.930 . S
C1281 N1277 1.279 . S
C1281 C1279 1.358 . S
C1281 H1339 0.930 . S
C1282 C1285 1.348 . S
C1282 C1286 1.356 . S
C1282 O1333 1.325 . S
C1283 N1284 1.279 . S
C1283 C1286 1.358 . S
C1283 H1340 0.930 . S
N1284 C1283 1.279 . S
N1284 C1287 1.314 . S
C1285 C1282 1.348 . S
C1285 C1287 1.353 . S
C1285 H1341 0.929 . S
C1286 C1282 1.356 . S
C1286 C1283 1.358 . S
C1286 H1342 0.930 . S
C1287 N1284 1.314 . S
C1287 C1285 1.353 . S
C1287 H1343 0.930 . S
C1288 N1289 1.314 . S
C1288 C1293 1.353 . S
C1288 H1294 0.930 . S
N1289 Li1272 1.990 . S
N1289 C1288 1.314 . S
N1289 C1291 1.279 . S
C1290 C1291 1.358 . S
C1290 C1292 1.356 . S
C1290 H1344 0.930 . S
C1291 N1289 1.279 . S
C1291 C1290 1.358 . S
C1291 H1295 0.930 . S
C1292 C1290 1.356 . S
C1292 C1293 1.348 . S
C1293 C1288 1.353 . S
C1293 C1292 1.348 . S
C1293 H1345 0.929 . S
H1294 C1288 0.930 . S
H1295 C1291 0.930 . S
C1296 N1297 1.314 . S
C1296 C1298 1.353 . S
C1296 H1302 0.930 . S
N1297 Li1273 1.990 . S
N1297 C1296 1.314 . S
N1297 C1300 1.279 . S
C1298 C1296 1.353 . S
C1298 C1301 1.348 . S
C1298 H1346 0.929 . S
C1299 C1300 1.358 . S
C1299 C1301 1.356 . S
C1299 H1347 0.930 . S
C1300 N1297 1.279 . S
C1300 C1299 1.358 . S
C1300 H1303 0.930 . S
C1301 C1298 1.348 . S
C1301 C1299 1.356 . S
H1302 C1296 0.930 . S
H1303 C1300 0.930 . S
C1304 C1306 1.348 . S
C1304 C1307 1.356 . S
C1304 O1334 1.325 . S
N1305 C1308 1.314 . S
N1305 C1309 1.279 . S
C1306 C1304 1.348 . S
C1306 C1308 1.353 . S
C1306 H1348 0.929 . S
C1307 C1304 1.356 . S
C1307 C1309 1.358 . S
C1307 H1349 0.930 . S
C1308 N1305 1.314 . S
C1308 C1306 1.353 . S
C1308 H1350 0.930 . S
C1309 N1305 1.279 . S
C1309 C1307 1.358 . S
C1309 H1351 0.930 . S
C1310 C1311 1.348 . S
C1310 C1312 1.356 . S
C1310 O1335 1.325 . S
C1311 C1310 1.348 . S
C1311 C1313 1.353 . S
C1311 H1352 0.929 . S
C1312 C1310 1.356 . S
C1312 C1314 1.358 . S
C1312 H1353 0.930 . S
C1313 C1311 1.353 . S
C1313 N1315 1.314 . S
C1313 H1354 0.930 . S
C1314 C1312 1.358 . S
C1314 N1315 1.279 . S
C1314 H1355 0.930 . S
N1315 C1313 1.314 . S
N1315 C1314 1.279 . S
C1316 C1318 1.353 . S
C1316 N1319 1.314 . S
C1316 H1322 0.930 . S
C1317 N1319 1.279 . S
C1317 C1320 1.358 . S
C1317 H1323 0.930 . S
C1318 C1316 1.353 . S
C1318 C1321 1.348 . S
C1318 H1356 0.929 . S
N1319 Li1274 1.990 . S
N1319 C1316 1.314 . S
N1319 C1317 1.279 . S
C1320 C1317 1.358 . S
C1320 C1321 1.356 . S
C1320 H1357 0.930 . S
C1321 C1318 1.348 . S
C1321 C1320 1.356 . S
H1322 C1316 0.930 . S
H1323 C1317 0.930 . S
C1324 N1325 1.314 . S
C1324 C1326 1.353 . S
C1324 H1330 0.930 . S
N1325 Li1275 1.990 . S
N1325 C1324 1.314 . S
N1325 C1328 1.279 . S
C1326 C1324 1.353 . S
C1326 C1329 1.348 . S
C1326 H1358 0.929 . S
C1327 C1328 1.358 . S
C1327 C1329 1.356 . S
C1327 H1359 0.930 . S
C1328 N1325 1.279 . S
C1328 C1327 1.358 . S
C1328 H1331 0.930 . S
C1329 C1326 1.348 . S
C1329 C1327 1.356 . S
H1330 C1324 0.930 . S
H1331 C1328 0.930 . S
O1332 Li1272 1.956 . S
O1332 Li1273 1.970 . S
O1332 Li1274 1.961 . S
O1332 C1276 1.325 . S
O1333 Li1272 1.970 . S
O1333 Li1273 1.956 . S
O1333 Li1275 1.961 . S
O1333 C1282 1.325 . S
O1334 Li1272 1.961 . S
O1334 Li1274 1.956 . S
O1334 Li1275 1.970 . S
O1334 C1304 1.325 . S
O1335 Li1273 1.961 . S
O1335 Li1274 1.970 . S
O1335 Li1275 1.956 . S
O1335 C1310 1.325 . S
H1336 C1278 0.929 . S
H1337 C1279 0.930 . S
H1338 C1280 0.930 . S
H1339 C1281 0.930 . S
H1340 C1283 0.930 . S
H1341 C1285 0.929 . S
H1342 C1286 0.930 . S
H1343 C1287 0.930 . S
H1344 C1290 0.930 . S
H1345 C1293 0.929 . S
H1346 C1298 0.929 . S
H1347 C1299 0.930 . S
H1348 C1306 0.929 . S
H1349 C1307 0.930 . S
H1350 C1308 0.930 . S
H1351 C1309 0.930 . S
H1352 C1311 0.929 . S
H1353 C1312 0.930 . S
H1354 C1313 0.930 . S
H1355 C1314 0.930 . S
H1356 C1318 0.929 . S
H1357 C1320 0.930 . S
H1358 C1326 0.929 . S
H1359 C1327 0.930 . S
C353 C101 2.407 . S
C412 C125 0.870 . S
C139 C529 2.553 . S
C597 C82 2.138 1_545 S
C676 C196 1.898 . S
C801 C234 2.529 . S
C220 C861 0.940 . S
C969 C173 2.066 1_565 S
C211 C1065 1.983 . S
C1125 C182 1.386 . S
C201 C1028 1.517 . S
C1145 C239 1.746 . S
C135 C1213 2.001 . S
C87 C1204 1.973 . S
C106 C1233 0.947 . S
C116 C1241 1.256 . S
C59 C625 2.211 . S
C268 C588 2.732 . S
C324 C291 1.506 1_564 S
C421 C163 1.493 . S
C78 C685 2.399 . S
C977 C215 1.210 . S
C705 C177 2.217 . S
C889 C230 2.109 . S
C881 C272 2.419 . S
C296 C949 0.870 . S
C158 C713 2.559 . S
C764 C253 2.114 . S
C63 C509 1.886 . S
C617 C6 2.544 . S
C333 C30 0.957 . S
C449 C40 2.038 . S
C21 C1153 1.950 . S
C49 C1037 1.271 1_455 S
C68 C1116 1.526 . S
C11 C1057 1.760 . S
C1301 C154 1.971 . S
C1292 C258 1.977 . S
C1321 C277 1.007 . S
C287 C1329 1.277 . S
C192 C793 2.202 . S
C773 C97 2.699 . S
C852 C120 1.478 . S
C940 C144 1.481 . S
C249 C500 2.398 . S
C441 C25 1.266 . S
C44 C537 2.230 . S
C361 C2 2.108 . S
