# Generated by pormake.
# Topology pts, (4,4)-cn, num edge types: 1
# Building blocks:
#     Node 0, Type 0, BuildingBlock: NAHDIM_clean_linker_0, # of connection points: 4
#     Node 1, Type 0, BuildingBlock: NAHDIM_clean_linker_0, # of connection points: 4
#     Node 2, Type 1, BuildingBlock: AZAVOO_clean_sbu_0, # of connection points: 4
#     Node 3, Type 1, BuildingBlock: AZAVOO_clean_sbu_0, # of connection points: 4
#     Edge 4, Type (0, 1), BuildingBlock: MIFKUJ_clean_linker_0, # of connection points: 2
#     Edge 5, Type (0, 1), BuildingBlock: MIFKUJ_clean_linker_0, # of connection points: 2
#     Edge 6, Type (0, 1), BuildingBlock: MIFKUJ_clean_linker_0, # of connection points: 2
#     Edge 7, Type (0, 1), BuildingBlock: MIFKUJ_clean_linker_0, # of connection points: 2
#     Edge 8, Type (0, 1), BuildingBlock: MIFKUJ_clean_linker_0, # of connection points: 2
#     Edge 9, Type (0, 1), BuildingBlock: MIFKUJ_clean_linker_0, # of connection points: 2
#     Edge 10, Type (0, 1), BuildingBlock: MIFKUJ_clean_linker_0, # of connection points: 2
#     Edge 11, Type (0, 1), BuildingBlock: MIFKUJ_clean_linker_0, # of connection points: 2
# Relax obj value: 0.016
# Max RMSD: 0.067
# Mean RMSD: 0.062
data_MOF--net-pts--node1-AZAVOO_clean_sbu_0--node2-NAHDIM_clean_linker_0--edge1-MIFKUJ_clean_linker_0
_symmetry_space_group_name_H-M    P1
_symmetry_Int_Tables_number       1
_symmetry_cell_setting            triclinic
loop_
_symmetry_equiv_pos_as_xyz
'x, y, z'
_cell_length_a     38.667736
_cell_length_b     39.410806
_cell_length_c     64.47488
_cell_angle_alpha  90.276666
_cell_angle_beta   95.565382
_cell_angle_gamma 89.971789
loop_
_atom_site_label
_atom_site_type_symbol
_atom_site_fract_x
_atom_site_fract_y
_atom_site_fract_z
_atom_type_partial_charge
C0 C 0.68354 0.063 0.13882 0.0
C1 C 0.69801 0.03362 0.12666 0.0
C2 C 0.66827 0.03435 0.09211 0.0
C3 C 0.65879 0.00062 0.08772 0.0
C4 C 0.6291 0.99293 0.07423 0.0
C5 C 0.60829 0.01966 0.06526 0.0
C6 C 0.61808 0.0538 0.06962 0.0
C7 C 0.64842 0.06068 0.08274 0.0
C8 C 0.61987 0.95627 0.06971 0.0
C9 C 0.59629 0.08301 0.06068 0.0
C10 C 0.33577 0.93584 0.06306 0.0
C11 C 0.35878 0.96366 0.07366 0.0
C12 C 0.42213 0.96238 0.07378 0.0
C13 C 0.42782 0.99708 0.07063 0.0
C14 C 0.45897 0.00836 0.06348 0.0
C15 C 0.48481 0.98441 0.05945 0.0
C16 C 0.47993 0.94971 0.06383 0.0
C17 C 0.44869 0.93921 0.07116 0.0
C18 C 0.46383 0.04567 0.05955 0.0
C19 C 0.50714 0.92357 0.05999 0.0
C20 C 0.41029 0.98717 0.92539 0.0
C21 C 0.41579 0.01835 0.93568 0.0
C22 C 0.44812 0.02601 0.94652 0.0
C23 C 0.47511 0.00156 0.94744 0.0
C24 C 0.46983 0.9705 0.93645 0.0
C25 C 0.43755 0.96398 0.92525 0.0
C26 C 0.45317 0.05997 0.95731 0.0
C27 C 0.49796 0.94389 0.93692 0.0
C28 C 0.74552 0.05547 0.95683 0.0
C29 C 0.72668 0.03954 0.93712 0.0
C30 C 0.66417 0.04774 0.93773 0.0
C31 C 0.6418 0.07348 0.94308 0.0
C32 C 0.60992 0.0658 0.95068 0.0
C33 C 0.60023 0.03147 0.95276 0.0
C34 C 0.62174 0.00535 0.94609 0.0
C35 C 0.65337 0.01376 0.93845 0.0
C36 C 0.58722 0.09428 0.95724 0.0
C37 C 0.61171 0.9685 0.9476 0.0
C38 C 0.57617 0.01191 0.05149 0.0
C39 C 0.54641 0.00257 0.06082 0.0
C40 C 0.51531 0.9951 0.04877 0.0
C41 C 0.51347 0.99745 0.02681 0.0
C42 C 0.48258 0.99004 0.01424 0.0
C43 C 0.4808 0.993 0.9927 0.0
C44 C 0.5098 0.00359 0.98283 0.0
C45 C 0.50796 0.00754 0.96094 0.0
C46 C 0.53763 0.01708 0.95158 0.0
C47 C 0.56926 0.02274 0.96355 0.0
C48 C 0.5714 0.01952 0.98549 0.0
C49 C 0.60278 0.0252 0.99799 0.0
C50 C 0.60451 0.02245 0.01957 0.0
C51 C 0.57492 0.01398 0.02952 0.0
C52 C 0.54329 0.00722 0.01718 0.0
C53 C 0.54148 0.01016 0.99515 0.0
C54 C 0.34317 0.94399 0.93386 0.0
C55 C 0.34793 0.97889 0.92417 0.0
O56 O 0.69617 0.04183 0.10571 0.0
O57 O 0.69572 0.05659 0.93186 0.0
O58 O 0.37909 0.97917 0.91515 0.0
O59 O 0.39151 0.95026 0.0793 0.0
H60 H 0.68182 0.01078 0.12893 0.0
H61 H 0.65592 0.06757 0.13307 0.0
H62 H 0.6985 0.08663 0.13681 0.0
H63 H 0.68482 0.05683 0.15567 0.0
H64 H 0.67469 0.9804 0.09488 0.0
H65 H 0.65618 0.08666 0.08627 0.0
H66 H 0.59609 0.94976 0.07719 0.0
H67 H 0.64101 0.93873 0.07568 0.0
H68 H 0.61417 0.95216 0.05267 0.0
H69 H 0.60504 0.10774 0.06768 0.0
H70 H 0.56859 0.07908 0.06326 0.0
H71 H 0.59789 0.08427 0.04361 0.0
H72 H 0.36001 0.98431 0.06203 0.0
H73 H 0.30942 0.94592 0.05813 0.0
H74 H 0.33342 0.91414 0.07379 0.0
H75 H 0.34732 0.92647 0.04899 0.0
H76 H 0.40795 0.01535 0.07362 0.0
H77 H 0.44428 0.91257 0.07408 0.0
H78 H 0.48948 0.05426 0.06696 0.0
H79 H 0.44313 0.0614 0.06559 0.0
H80 H 0.46348 0.05002 0.04253 0.0
H81 H 0.49962 0.89765 0.06453 0.0
H82 H 0.53216 0.9304 0.06893 0.0
H83 H 0.51147 0.92332 0.04321 0.0
H84 H 0.34819 -0.0016 0.93673 0.0
H85 H 0.39489 0.03674 0.9351 0.0
H86 H 0.43305 0.94021 0.9169 0.0
H87 H 0.45306 0.05652 0.97437 0.0
H88 H 0.43226 0.07821 0.95203 0.0
H89 H 0.47865 0.07107 0.95443 0.0
H90 H 0.48867 0.91994 0.92911 0.0
H91 H 0.50787 0.93818 0.95328 0.0
H92 H 0.52004 0.95372 0.92894 0.0
H93 H 0.72217 0.01265 0.94119 0.0
H94 H 0.77194 0.04443 0.96006 0.0
H95 H 0.73068 0.05016 0.97038 0.0
H96 H 0.74754 0.08343 0.95536 0.0
H97 H 0.64998 0.09966 0.94198 0.0
H98 H 0.66948 0.99372 0.9331 0.0
H99 H 0.58648 0.09367 0.97441 0.0
H100 H 0.56019 0.09085 0.95001 0.0
H101 H 0.59681 0.11956 0.95285 0.0
H102 H 0.63096 0.95119 0.9414 0.0
H103 H 0.58596 0.96414 0.93881 0.0
H104 H 0.60935 0.96193 0.96414 0.0
H105 H 0.5475 0.00095 0.07767 0.0
H106 H 0.4593 0.98197 0.02089 0.0
H107 H 0.45629 0.98694 0.9839 0.0
H108 H 0.53617 0.01985 0.93479 0.0
H109 H 0.6264 0.032 0.99127 0.0
H110 H 0.62935 0.02716 0.02836 0.0
H111 H 0.34213 0.92384 0.9217 0.0
H112 H 0.31889 0.94322 0.94175 0.0
H113 H 0.3653 0.93861 0.9457 0.0
C114 C 0.09028 0.43065 0.64393 0.0
C115 C 0.06758 0.41031 0.62756 0.0
C116 C 0.07532 0.42306 0.5915 0.0
C117 C 0.04064 0.42385 0.58285 0.0
C118 C 0.03075 0.4439 0.56537 0.0
C119 C 0.0561 0.46356 0.55648 0.0
C120 C 0.0915 0.46073 0.56427 0.0
C121 C 0.10071 0.44001 0.58157 0.0
C122 C 0.99292 0.44565 0.55713 0.0
C123 C 0.11925 0.48141 0.55528 0.0
C124 C 0.04675 0.70972 0.61431 0.0
C125 C 0.05372 0.68328 0.59881 0.0
C126 C 0.02419 0.6393 0.57713 0.0
C127 C 0.05289 0.6323 0.56599 0.0
C128 C 0.05284 0.60419 0.55263 0.0
C129 C 0.02329 0.58284 0.55014 0.0
C130 C 0.99366 0.59079 0.56045 0.0
C131 C 0.99449 0.61907 0.57383 0.0
C132 C 0.08504 0.59655 0.5419 0.0
C133 C 0.96165 0.56876 0.55791 0.0
C134 C 0.99015 0.62842 0.41457 0.0
C135 C 0.02366 0.62901 0.42508 0.0
C136 C 0.03668 0.60078 0.43652 0.0
C137 C 0.01544 0.57172 0.4377 0.0
C138 C 0.98222 0.57063 0.42638 0.0
C139 C 0.97021 0.59894 0.4147 0.0
C140 C 0.07281 0.60229 0.44767 0.0
C141 C 0.95904 0.53996 0.42709 0.0
C142 C 0.15633 0.32699 0.43544 0.0
C143 C 0.12318 0.34504 0.42656 0.0
C144 C 0.11051 0.40535 0.43013 0.0
C145 C 0.12712 0.43568 0.43625 0.0
C146 C 0.1086 0.4628 0.44392 0.0
C147 C 0.07237 0.45958 0.44503 0.0
C148 C 0.055 0.42966 0.43768 0.0
C149 C 0.07429 0.40272 0.43033 0.0
C150 C 0.12789 0.49457 0.45134 0.0
C151 C 0.01624 0.42595 0.43805 0.0
C152 C 0.04484 0.49142 0.542 0.0
C153 C 0.03519 0.52177 0.55108 0.0
C154 C 0.02556 0.55008 0.53899 0.0
C155 C 0.02363 0.54776 0.51707 0.0
C156 C 0.01176 0.5751 0.50443 0.0
C157 C 0.01177 0.57323 0.48288 0.0
C158 C 0.02475 0.54437 0.47327 0.0
C159 C 0.02718 0.54311 0.45152 0.0
C160 C 0.04164 0.51466 0.44264 0.0
C161 C 0.05329 0.48698 0.45488 0.0
C162 C 0.0496 0.48708 0.47649 0.0
C163 C 0.05986 0.4591 0.48915 0.0
C164 C 0.05725 0.45997 0.51054 0.0
C165 C 0.04546 0.48927 0.52015 0.0
C166 C 0.0346 0.51757 0.50764 0.0
C167 C 0.03598 0.5162 0.48575 0.0
C168 C 0.94554 0.70645 0.41013 0.0
C169 C 0.98109 0.68933 0.41044 0.0
O170 O 0.08477 0.40706 0.60973 0.0
O171 O 0.13031 0.37918 0.42434 0.0
O172 O 0.97624 0.65582 0.40421 0.0
O173 O 0.02459 0.66472 0.59146 0.0
H174 H 0.04293 0.42483 0.6243 0.0
H175 H 0.09491 0.45644 0.63789 0.0
H176 H 0.11582 0.41807 0.64771 0.0
H177 H 0.07708 0.43332 0.65842 0.0
H178 H 0.02121 0.40951 0.59012 0.0
H179 H 0.12752 0.43863 0.58821 0.0
H180 H 0.98193 0.47026 0.56178 0.0
H181 H 0.97753 0.42484 0.5633 0.0
H182 H 0.99015 0.44436 0.53984 0.0
H183 H 0.14574 0.4751 0.56248 0.0
H184 H 0.11441 0.50882 0.55782 0.0
H185 H 0.1183 0.47706 0.53822 0.0
H186 H 0.07686 0.66703 0.60335 0.0
H187 H 0.06244 0.70159 0.62904 0.0
H188 H 0.02087 0.70344 0.62002 0.0
H189 H 0.05621 0.7552 0.59912 0.0
H190 H 0.07578 0.64821 0.56799 0.0
H191 H 0.9723 0.62489 0.58228 0.0
H192 H 0.07876 0.5977 0.52476 0.0
H193 H 0.0944 0.57049 0.54579 0.0
H194 H 0.10648 0.6147 0.54638 0.0
H195 H 0.93916 0.58094 0.56446 0.0
H196 H 0.96721 0.5443 0.56603 0.0
H197 H 0.95451 0.56298 0.54116 0.0
H198 H 0.99329 0.69079 0.42681 0.0
H199 H 0.03962 0.65148 0.42435 0.0
H200 H 0.9446 0.59865 0.40622 0.0
H201 H 0.07109 0.60415 0.46472 0.0
H202 H 0.08772 0.62447 0.44278 0.0
H203 H 0.08735 0.57874 0.44469 0.0
H204 H 0.93341 0.54363 0.41801 0.0
H205 H 0.95476 0.53425 0.4435 0.0
H206 H 0.97193 0.51754 0.42074 0.0
H207 H 0.10389 0.34143 0.43814 0.0
H208 H 0.15126 0.2995 0.43744 0.0
H209 H 0.16542 0.33794 0.45092 0.0
H210 H 0.17732 0.33003 0.42497 0.0
H211 H 0.15498 0.43759 0.43568 0.0
H212 H 0.06109 0.37968 0.42483 0.0
H213 H 0.12435 0.49931 0.468 0.0
H214 H 0.11703 0.51671 0.44234 0.0
H215 H 0.15615 0.49289 0.44962 0.0
H216 H 0.00622 0.40221 0.4303 0.0
H217 H 0.00272 0.44795 0.4302 0.0
H218 H 0.00974 0.42585 0.45445 0.0
H219 H 0.0367 0.52385 0.56795 0.0
H220 H 0.00236 0.5982 0.51111 0.0
H221 H 0.00227 0.59504 0.47392 0.0
H222 H 0.04455 0.51435 0.42607 0.0
H223 H 0.06998 0.43619 0.48266 0.0
H224 H 0.06543 0.43777 0.51956 0.0
H225 H 0.93188 0.70602 0.39414 0.0
H226 H 0.94846 0.73321 0.41552 0.0
H227 H 0.92933 0.69286 0.42073 0.0
Mg228 Mg 0.10172 0.014 0.27112 0.0
O229 O 0.05001 0.00723 0.25034 0.0
O230 O 0.00924 -0.00116 0.27219 0.0
Mg231 Mg 0.03319 0.00194 0.30579 0.0
C232 C 0.01853 0.00148 0.2538 0.0
C233 C 0.16218 0.02533 0.24628 0.0
O234 O 0.17513 0.01308 0.26431 0.0
O235 O 0.08591 0.06804 0.27884 0.0
O236 O 0.04638 0.058 0.30113 0.0
O237 O 0.11085 0.9579 0.27211 0.0
O238 O 0.08256 0.98591 0.29487 0.0
C239 C 0.06445 0.07851 0.29132 0.0
C240 C 0.09319 0.95728 0.28815 0.0
O241 O 0.12969 0.03092 0.2435 0.0
Mg242 Mg 0.99364 0.01688 0.737 0.0
O243 O 0.04378 0.0145 0.7595 0.0
O244 O 0.08788 0.00726 0.73987 0.0
Mg245 Mg 0.06683 0.00396 0.70564 0.0
C246 C 0.07623 0.01106 0.7576 0.0
C247 C 0.93382 0.01965 0.76344 0.0
O248 O 0.92539 0.9965 0.7491 0.0
O249 O 0.00725 0.07051 0.72725 0.0
O250 O 0.05022 0.05964 0.7073 0.0
O251 O 0.98739 0.96062 0.73815 0.0
O252 O 0.01707 0.98732 0.71558 0.0
C253 C 0.02975 0.08033 0.71531 0.0
C254 C 0.00702 0.95916 0.72304 0.0
O255 O 0.96232 0.03556 0.76291 0.0
H256 H 0.31427 0.01727 0.07593 0.0
H257 H 0.28277 0.03475 0.10538 0.0
H258 H 0.33495 0.95656 0.14322 0.0
H259 H 0.36553 0.93839 0.11366 0.0
H260 H 0.26873 0.95394 0.1464 0.0
H261 H 0.35353 0.04265 0.15073 0.0
H262 H 0.38727 0.08997 0.138 0.0
H263 H 0.29351 0.14735 0.1242 0.0
H264 H 0.25911 0.10015 0.13657 0.0
H265 H 0.22901 0.00396 0.24587 0.0
H266 H 0.26342 0.00145 0.21615 0.0
H267 H 0.18095 0.05065 0.17774 0.0
H268 H 0.1457 0.05278 0.20745 0.0
H269 H 0.2601 0.07098 0.17423 0.0
H270 H 0.17607 0.97859 0.16935 0.0
H271 H 0.14511 0.93117 0.18418 0.0
H272 H 0.24219 0.88072 0.20097 0.0
H273 H 0.27376 0.92817 0.18652 0.0
C274 C 0.31943 0.00429 0.09067 0.0
C275 C 0.34283 0.97693 0.09262 0.0
C276 C 0.30151 0.01432 0.1075 0.0
C277 C 0.30678 0.99723 0.12661 0.0
C278 C 0.33055 0.97022 0.12866 0.0
C279 C 0.34822 0.96001 0.11181 0.0
C280 C 0.28579 0.00577 0.14402 0.0
C281 C 0.26723 0.97952 0.15255 0.0
C282 C 0.2831 0.03927 0.15182 0.0
C283 C 0.3037 0.0677 0.14436 0.0
C284 C 0.34006 0.06524 0.1448 0.0
C285 C 0.35931 0.09206 0.13768 0.0
C286 C 0.34253 0.12161 0.13023 0.0
C287 C 0.30646 0.12442 0.12994 0.0
C288 C 0.28708 0.09765 0.13702 0.0
C289 C 0.21827 0.01477 0.23123 0.0
C290 C 0.18443 0.02824 0.22895 0.0
C291 C 0.23806 0.01338 0.21429 0.0
C292 C 0.22461 0.02579 0.19484 0.0
C293 C 0.19172 0.04109 0.19272 0.0
C294 C 0.1716 0.04211 0.20965 0.0
C295 C 0.24357 0.01913 0.17643 0.0
C296 C 0.26162 0.04558 0.16782 0.0
C297 C 0.2462 0.98579 0.16862 0.0
C298 C 0.22727 0.95706 0.17706 0.0
C299 C 0.19082 0.95752 0.17638 0.0
C300 C 0.17316 0.93062 0.18468 0.0
C301 C 0.19168 0.90299 0.19357 0.0
C302 C 0.22789 0.90216 0.19411 0.0
C303 C 0.24567 0.92904 0.18585 0.0
H304 H 0.17796 0.88218 0.19999 0.0
H305 H 0.35749 0.14235 0.12474 0.0
H306 H 0.11158 0.35587 0.63377 0.0
H307 H 0.09977 0.30076 0.64885 0.0
H308 H 0.99434 0.33183 0.65543 0.0
H309 H 0.00635 0.38738 0.64072 0.0
H310 H 0.02212 0.30102 0.68997 0.0
H311 H 0.01148 0.27611 0.61727 0.0
H312 H 0.0287 0.27551 0.58144 0.0
H313 H 0.1195 0.21723 0.60165 0.0
H314 H 0.10312 0.2179 0.63768 0.0
H315 H 0.97835 0.12844 0.71494 0.0
H316 H 0.97957 0.18579 0.70043 0.0
H317 H 0.0862 0.17076 0.68798 0.0
H318 H 0.08482 0.11346 0.70184 0.0
H319 H 0.04931 0.19362 0.65458 0.0
H320 H 0.06135 0.22337 0.72819 0.0
H321 H 0.04293 0.22419 0.76377 0.0
H322 H 0.94736 0.27292 0.74119 0.0
H323 H 0.96505 0.27201 0.70543 0.0
C324 C 0.08583 0.35079 0.63827 0.0
C325 C 0.05974 0.37566 0.63583 0.0
C326 C 0.07906 0.31933 0.64683 0.0
C327 C 0.046 0.31202 0.65297 0.0
C328 C 0.01996 0.33691 0.65071 0.0
C329 C 0.02678 0.36849 0.64221 0.0
C330 C 0.03908 0.27858 0.66214 0.0
C331 C 0.02752 0.27748 0.68211 0.0
C332 C 0.04632 0.24792 0.65192 0.0
C333 C 0.05618 0.24727 0.63022 0.0
C334 C 0.03525 0.26337 0.61411 0.0
C335 C 0.04484 0.26298 0.59376 0.0
C336 C 0.07521 0.24639 0.58928 0.0
C337 C 0.096 0.23009 0.60514 0.0
C338 C 0.08655 0.23042 0.62553 0.0
C339 C 0.00218 0.13764 0.70941 0.0
C340 C 0.03142 0.11641 0.70939 0.0
C341 C 0.00286 0.17039 0.70113 0.0
C342 C 0.03299 0.18255 0.69309 0.0
C343 C 0.06257 0.16182 0.69392 0.0
C344 C 0.06177 0.12909 0.7019 0.0
C345 C 0.03362 0.21605 0.68275 0.0
C346 C 0.04372 0.21713 0.66242 0.0
C347 C 0.02486 0.2466 0.69261 0.0
C348 C 0.01436 0.2473 0.71412 0.0
C349 C 0.0363 0.23403 0.7308 0.0
C350 C 0.02601 0.23456 0.75099 0.0
C351 C 0.99395 0.24851 0.75472 0.0
C352 C 0.97216 0.26207 0.73827 0.0
C353 C 0.98232 0.26159 0.71804 0.0
H354 H 0.98603 0.24888 0.77037 0.0
H355 H 0.08259 0.24613 0.57351 0.0
H356 H 0.75843 0.06598 0.11792 0.0
H357 H 0.81727 0.05792 0.13521 0.0
H358 H 0.77932 0.97826 0.17264 0.0
H359 H 0.72073 0.98613 0.15545 0.0
H360 H 0.81476 0.02851 0.19567 0.0
H361 H 0.83006 0.95939 0.13494 0.0
H362 H 0.83031 0.94869 0.09724 0.0
H363 H 0.9068 0.02678 0.09345 0.0
H364 H 0.90664 0.03829 0.13109 0.0
H365 H 0.95979 0.96368 0.25177 0.0
H366 H 0.90996 0.96655 0.2256 0.0
H367 H 0.96441 0.03853 0.19042 0.0
H368 H 0.0152 0.03473 0.21638 0.0
H369 H 0.92294 0.99727 0.16456 0.0
H370 H 0.90932 0.06708 0.22376 0.0
H371 H 0.9098 0.08083 0.26113 0.0
H372 H 0.83014 0.00667 0.26721 0.0
H373 H 0.82955 0.99211 0.22992 0.0
C374 C 0.76289 0.04621 0.12948 0.0
C375 C 0.73512 0.02627 0.13511 0.0
C376 C 0.79646 0.04165 0.13933 0.0
C377 C 0.80265 0.01734 0.1551 0.0
C378 C 0.7751 0.99704 0.16044 0.0
C379 C 0.7417 0.00146 0.15057 0.0
C380 C 0.83695 0.01487 0.16743 0.0
C381 C 0.83832 0.02127 0.18889 0.0
C382 C 0.86792 0.00693 0.1584 0.0
C383 C 0.86804 -4e-05 0.13579 0.0
C384 C 0.84669 0.97451 0.12603 0.0
C385 C 0.84687 0.96824 0.10468 0.0
C386 C 0.86848 0.98711 0.09294 0.0
C387 C 0.89003 0.01222 0.10255 0.0
C388 C 0.88993 0.01861 0.1239 0.0
C389 C 0.96141 0.97967 0.23827 0.0
C390 C 0.99112 -0.00063 0.23624 0.0
C391 C 0.9329 0.98134 0.22334 0.0
C392 C 0.93311 0.00348 0.20637 0.0
C393 C 0.96362 0.02147 0.20349 0.0
C394 C 0.99257 0.01931 0.21831 0.0
C395 C 0.90039 0.00978 0.1929 0.0
C396 C 0.89936 0.00453 0.17129 0.0
C397 C 0.86963 0.01936 0.20168 0.0
C398 C 0.86958 0.02833 0.22407 0.0
C399 C 0.89205 0.05356 0.23309 0.0
C400 C 0.89233 0.06151 0.25426 0.0
C401 C 0.87006 0.04459 0.26655 0.0
C402 C 0.84739 0.01974 0.25768 0.0
C403 C 0.84704 0.01165 0.23652 0.0
H404 H 0.87032 0.05077 0.28294 0.0
H405 H 0.86858 0.98222 0.07642 0.0
H406 H 0.12389 0.7177 0.60161 0.0
H407 H 0.10958 0.76241 0.6354 0.0
H408 H 0.98347 0.76851 0.60882 0.0
H409 H 0.99472 0.72462 0.57396 0.0
H410 H 0.00576 0.82386 0.62323 0.0
H411 H 0.02861 0.72293 0.66242 0.0
H412 H 0.05925 0.6705 0.67418 0.0
H413 H 0.15047 0.72838 0.69448 0.0
H414 H 0.12041 0.78112 0.68267 0.0
H415 H 0.96652 0.90301 0.71825 0.0
H416 H 0.97653 0.85279 0.69701 0.0
H417 H 0.07733 0.89144 0.6859 0.0
H418 H 0.06717 0.94203 0.70667 0.0
H419 H 0.06261 0.81023 0.69511 0.0
H420 H 0.03611 0.91077 0.65002 0.0
H421 H 1.00011 0.96111 0.64057 0.0
H422 H 0.90859 0.89877 0.63385 0.0
H423 H 0.94412 0.84814 0.64357 0.0
C424 C 0.09822 0.7282 0.60251 0.0
C425 C 0.05941 0.71147 0.5864 0.0
C426 C 0.08859 0.75431 0.62418 0.0
C427 C 0.04458 0.76803 0.62683 0.0
C428 C 0.00911 0.75846 0.60726 0.0
C429 C 0.0161 0.73253 0.58499 0.0
C430 C 0.03821 0.79156 0.64391 0.0
C431 C 0.01772 0.8203 0.63898 0.0
C432 C 0.05404 0.78742 0.6645 0.0
C433 C 0.07245 0.75585 0.67136 0.0
C434 C 0.0553 0.72442 0.66925 0.0
C435 C 0.07253 0.69466 0.67596 0.0
C436 C 0.10684 0.69609 0.68499 0.0
C437 C 0.12393 0.7273 0.68742 0.0
C438 C 0.1068 0.75713 0.68073 0.0
C439 C 0.99114 0.90037 0.71168 0.0
C440 C 0.01589 0.92653 0.71377 0.0
C441 C 0.99679 0.87176 0.69961 0.0
C442 C 0.02758 0.86869 0.68994 0.0
C443 C 0.05345 0.89351 0.69333 0.0
C444 C 0.04748 0.92248 0.705 0.0
C445 C 0.03079 0.84216 0.67411 0.0
C446 C 0.05054 0.81313 0.67931 0.0
C447 C 0.01388 0.84562 0.65385 0.0
C448 C 0.99264 0.87585 0.64773 0.0
C449 C 0.00827 0.9079 0.6467 0.0
C450 C 0.98798 0.93645 0.64126 0.0
C451 C 0.95206 0.93316 0.63667 0.0
C452 C 0.9364 0.90129 0.63745 0.0
C453 C 0.95659 0.87267 0.64291 0.0
H454 H 0.93639 0.95529 0.63247 0.0
H455 H 0.12014 0.67302 0.69017 0.0
H456 H 0.3455 0.97849 0.88077 0.0
H457 H 0.29549 0.98956 0.85565 0.0
H458 H 0.2311 0.00527 0.90579 0.0
H459 H 0.28154 0.99552 0.93126 0.0
H460 H 0.20515 0.95729 0.87124 0.0
H461 H 0.24531 0.0707 0.88456 0.0
H462 H 0.2888 0.11651 0.88891 0.0
H463 H 0.31185 0.10277 0.82559 0.0
H464 H 0.26886 0.05643 0.82096 0.0
H465 H 0.06285 0.00962 0.79873 0.0
H466 H 0.10533 0.00871 0.82952 0.0
H467 H 0.18892 0.0123 0.78989 0.0
H468 H 0.14698 0.01341 0.75919 0.0
H469 H 0.20065 0.05508 0.82284 0.0
H470 H 0.16626 0.93854 0.81049 0.0
H471 H 0.12471 0.89106 0.80566 0.0
H472 H 0.09239 0.90927 0.8666 0.0
H473 H 0.13346 0.95721 0.87167 0.0
C474 C 0.32093 0.98478 0.88657 0.0
C475 C 0.31762 0.98657 0.90812 0.0
C476 C 0.29234 0.99098 0.87215 0.0
C477 C 0.25977 -0.00165 0.87892 0.0
C478 C 0.25612 -0.0003 0.90032 0.0
C479 C 0.28488 0.99421 0.91479 0.0
C480 C 0.22956 0.00398 0.86344 0.0
C481 C 0.20366 0.97902 0.86092 0.0
C482 C 0.2282 0.032 0.84981 0.0
C483 C 0.2541 0.05985 0.85249 0.0
C484 C 0.2599 0.07719 0.87163 0.0
C485 C 0.28441 0.10331 0.87413 0.0
C486 C 0.30315 0.11249 0.85755 0.0
C487 C 0.29735 0.0956 0.83843 0.0
C488 C 0.27289 0.06942 0.83585 0.0
C489 C 0.09027 0.01036 0.79658 0.0
C490 C 0.10146 0.01138 0.77646 0.0
C491 C 0.1145 0.00975 0.81419 0.0
C492 C 0.15028 0.01023 0.81197 0.0
C493 C 0.16144 0.01197 0.79196 0.0
C494 C 0.13735 0.0124 0.7744 0.0
C495 C 0.17641 0.00807 0.83034 0.0
C496 C 0.20168 0.03364 0.83338 0.0
C497 C 0.1773 0.98047 0.84437 0.0
C498 C 0.15258 0.95173 0.84134 0.0
C499 C 0.15005 0.93262 0.82278 0.0
C500 C 0.12664 0.90559 0.82001 0.0
C501 C 0.10583 0.89723 0.83578 0.0
C502 C 0.10846 0.91583 0.85438 0.0
C503 C 0.13181 0.94293 0.85721 0.0
H504 H 0.08774 0.87628 0.83362 0.0
H505 H 0.3221 0.13274 0.85952 0.0
H506 H 0.14802 0.35408 0.38836 0.0
H507 H 0.13159 0.32275 0.35595 0.0
H508 H 0.0537 0.26852 0.38619 0.0
H509 H 0.06976 0.30001 0.4184 0.0
H510 H 0.13923 0.25636 0.35233 0.0
H511 H 0.98902 0.24139 0.352 0.0
H512 H 0.93872 0.27623 0.35951 0.0
H513 H 0.99461 0.36688 0.34719 0.0
H514 H 0.04507 0.33261 0.33928 0.0
H515 H 0.02461 0.10887 0.31874 0.0
H516 H 0.02917 0.16659 0.33192 0.0
H517 H 0.1033 0.18998 0.28816 0.0
H518 H 0.09987 0.1314 0.27527 0.0
H519 H 0.02069 0.22987 0.31988 0.0
H520 H 0.16586 0.24043 0.31253 0.0
H521 H 0.21656 0.20425 0.30747 0.0
H522 H 0.17059 0.12207 0.33863 0.0
H523 H 0.11985 0.15791 0.34404 0.0
C524 C 0.12678 0.3361 0.38785 0.0
C525 C 0.10994 0.3296 0.4058 0.0
C526 C 0.11746 0.31822 0.36939 0.0
C527 C 0.09114 0.29359 0.36856 0.0
C528 C 0.07352 0.28795 0.38628 0.0
C529 C 0.08284 0.30578 0.40473 0.0
C530 C 0.08517 0.27051 0.35033 0.0
C531 C 0.11342 0.2513 0.34477 0.0
C532 C 0.05146 0.26355 0.3407 0.0
C533 C 0.02095 0.28437 0.34512 0.0
C534 C 0.99053 0.26874 0.35073 0.0
C535 C 0.96199 0.2884 0.3551 0.0
C536 C 0.96349 0.32374 0.35386 0.0
C537 C 0.99351 0.3395 0.3482 0.0
C538 C 0.02212 0.31997 0.3438 0.0
C539 C 0.04157 0.12628 0.31163 0.0
C540 C 0.06254 0.11519 0.29628 0.0
C541 C 0.04393 0.1595 0.31911 0.0
C542 C 0.0671 0.18247 0.31135 0.0
C543 C 0.08576 0.17245 0.29469 0.0
C544 C 0.08372 0.13896 0.28731 0.0
C545 C 0.07452 0.21497 0.32264 0.0
C546 C 0.0466 0.23586 0.32692 0.0
C547 C 0.10849 0.22333 0.33135 0.0
C548 C 0.13896 0.20167 0.32841 0.0
C549 C 0.16666 0.21465 0.31831 0.0
C550 C 0.19537 0.19422 0.31539 0.0
C551 C 0.19673 0.16084 0.32265 0.0
C552 C 0.16945 0.14788 0.33295 0.0
C553 C 0.14072 0.16823 0.33594 0.0
H554 H 0.21896 0.14504 0.32035 0.0
H555 H 0.94138 0.33891 0.35727 0.0
H556 H 0.73109 0.98996 0.9079 0.0
H557 H 0.76533 0.98923 0.878 0.0
H558 H 0.80423 0.08937 0.89448 0.0
H559 H 0.76851 0.09103 0.92361 0.0
H560 H 0.79214 0.08566 0.85466 0.0
H561 H 0.85337 0.0144 0.90576 0.0
H562 H 0.86094 0.96768 0.9311 0.0
H563 H 0.83247 0.89535 0.88241 0.0
H564 H 0.82428 0.9417 0.85682 0.0
H565 H 0.93826 0.07004 0.79316 0.0
H566 H 0.90232 0.07651 0.82231 0.0
H567 H 0.84383 0.98743 0.80165 0.0
H568 H 0.8791 0.98096 0.77251 0.0
H569 H 0.86862 0.98713 0.8443 0.0
H570 H 0.80705 0.06047 0.7935 0.0
H571 H 0.8016 0.10809 0.76873 0.0
H572 H 0.83448 0.17777 0.81814 0.0
H573 H 0.8406 0.13046 0.84316 0.0
C574 C 0.74712 0.01173 0.9052 0.0
C575 C 0.74824 0.03988 0.91872 0.0
C576 C 0.76678 0.01126 0.88816 0.0
C577 C 0.78833 0.03879 0.88437 0.0
C578 C 0.78827 0.06759 0.89726 0.0
C579 C 0.7681 0.06833 0.91411 0.0
C580 C 0.81081 0.0375 0.86696 0.0
C581 C 0.80925 0.06433 0.85261 0.0
C582 C 0.83289 0.00951 0.86406 0.0
C583 C 0.83792 0.98156 0.87941 0.0
C584 C 0.8485 0.98856 0.90049 0.0
C585 C 0.85293 0.96213 0.91489 0.0
C586 C 0.84712 0.92858 0.90838 0.0
C587 C 0.83693 0.92136 0.88744 0.0
C588 C 0.83242 0.94769 0.87297 0.0
C589 C 0.91758 0.052 0.79477 0.0
C590 C 0.91154 0.02498 0.78055 0.0
C591 C 0.89707 0.05577 0.81137 0.0
C592 C 0.87046 0.03243 0.81406 0.0
C593 C 0.86428 0.00565 0.79982 0.0
C594 C 0.88442 0.00209 0.78314 0.0
C595 C 0.84964 0.03507 0.83207 0.0
C596 C 0.85161 0.00849 0.84651 0.0
C597 C 0.82835 0.06343 0.83518 0.0
C598 C 0.82467 0.09188 0.82015 0.0
C599 C 0.81345 0.0859 0.79905 0.0
C600 C 0.81016 0.11285 0.78497 0.0
C601 C 0.81779 0.14592 0.79185 0.0
C602 C 0.82864 0.15213 0.81283 0.0
C603 C 0.832 0.12526 0.82697 0.0
H604 H 0.81522 0.16675 0.78093 0.0
H605 H 0.85057 0.90816 0.91956 0.0
H606 H 0.02356 0.7434 0.42019 0.0
H607 H 0.05057 0.78096 0.39635 0.0
H608 H 0.01515 0.71563 0.34473 0.0
H609 H 0.98695 0.67872 0.36841 0.0
H610 H 0.09758 0.77978 0.36826 0.0
H611 H 0.9851 0.76498 0.30427 0.0
H612 H 0.92425 0.74516 0.3 0.0
H613 H 0.91187 0.77399 0.36318 0.0
H614 H 0.97246 0.7944 0.36769 0.0
H615 H 0.12183 0.89466 0.28272 0.0
H616 H 0.10962 0.84174 0.30064 0.0
H617 H 0.0338 0.89401 0.33381 0.0
H618 H 0.0464 0.94664 0.31666 0.0
H619 H 0.01077 0.8307 0.31567 0.0
H620 H 0.10647 0.88195 0.3587 0.0
H621 H 0.16561 0.90538 0.36553 0.0
H622 H 0.20885 0.81016 0.34821 0.0
H623 H 0.14984 0.78632 0.34097 0.0
C624 C 0.0223 0.73666 0.40382 0.0
C625 C 0.00331 0.7081 0.3962 0.0
C626 C 0.03783 0.75803 0.39023 0.0
C627 C 0.03455 0.7513 0.36873 0.0
C628 C 0.01768 0.72149 0.36124 0.0
C629 C 0.00173 0.70032 0.3748 0.0
C630 C 0.04474 0.77767 0.35416 0.0
C631 C 0.07876 0.79056 0.35654 0.0
C632 C 0.02008 0.7921 0.33904 0.0
C633 C 0.98335 0.78084 0.33636 0.0
C634 C 0.9693 0.76722 0.3172 0.0
C635 C 0.93489 0.75588 0.31474 0.0
C636 C 0.91424 0.75822 0.33133 0.0
C637 C 0.92791 0.77211 0.35036 0.0
C638 C 0.96227 0.78357 0.35287 0.0
C639 C 0.10241 0.89479 0.29375 0.0
C640 C 0.08491 0.92493 0.29813 0.0
C641 C 0.09556 0.8646 0.30397 0.0
C642 C 0.07074 0.86408 0.31846 0.0
C643 C 0.05289 0.89392 0.32257 0.0
C644 C 0.06016 0.92408 0.3127 0.0
C645 C 0.06346 0.83285 0.32986 0.0
C646 C 0.02989 0.81919 0.32692 0.0
C647 C 0.08833 0.81823 0.3447 0.0
C648 C 0.12376 0.83252 0.349 0.0
C649 C 0.12857 0.86613 0.35612 0.0
C650 C 0.16207 0.87945 0.36012 0.0
C651 C 0.19097 0.85931 0.35723 0.0
C652 C 0.18643 0.82576 0.35039 0.0
C653 C 0.15297 0.81233 0.34633 0.0
H654 H 0.21688 0.86966 0.36035 0.0
H655 H 0.88764 0.74933 0.32941 0.0
loop_
_geom_bond_atom_site_label_1
_geom_bond_atom_site_label_2
_geom_bond_distance
_geom_bond_site_symmetry_2
_ccdc_geom_bond_type
C0 C1 1.560 . S
C0 H61 0.959 . S
C0 H62 0.959 . S
C0 H63 0.960 . S
C1 C0 1.560 . S
C1 O56 1.426 . S
C1 H60 0.980 . S
C2 C3 1.407 1_545 S
C2 C7 1.418 . S
C2 O56 1.334 . S
C3 C2 1.407 1_565 S
C3 C4 1.360 . S
C3 H64 0.929 . S
C4 C3 1.360 . S
C4 C5 1.401 1_565 S
C4 C8 1.527 . S
C5 C4 1.401 1_545 S
C5 C6 1.405 . S
C5 C38 1.587 1_545 S
C6 C5 1.405 . S
C6 C7 1.332 . S
C6 C9 1.496 . S
C7 C2 1.418 . S
C7 C6 1.332 . S
C7 H65 0.929 . S
C8 C4 1.527 . S
C8 H66 0.959 . S
C8 H67 0.961 . S
C8 H68 0.961 . S
C9 C6 1.496 . S
C9 H69 0.960 . S
C9 H70 0.960 . S
C9 H71 0.961 . S
C10 C11 1.517 . S
C10 H73 0.961 1_565 S
C10 H74 0.960 . S
C10 H75 0.959 . S
C11 C10 1.517 . S
C11 O59 1.468 . S
C11 H72 0.980 1_565 S
C12 C13 1.349 1_565 S
C12 C17 1.367 . S
C12 O59 1.408 . S
C13 C12 1.349 1_545 S
C13 C14 1.407 . S
C13 H76 0.930 . S
C14 C13 1.407 . S
C14 C15 1.449 1_545 S
C14 C18 1.535 . S
C15 C14 1.449 1_565 S
C15 C16 1.384 . S
C15 C40 1.553 . S
C16 C15 1.384 . S
C16 C17 1.364 . S
C16 C19 1.450 . S
C17 C12 1.367 . S
C17 C16 1.364 . S
C17 H77 0.931 . S
C18 C14 1.535 . S
C18 H78 0.959 . S
C18 H79 0.961 . S
C18 H80 0.959 . S
C19 C16 1.450 . S
C19 H81 0.960 . S
C19 H82 0.960 . S
C19 H83 0.960 . S
C20 C21 1.309 1_565 S
C20 C25 1.304 . S
C20 O58 1.435 . S
C21 C20 1.309 1_545 S
C21 C22 1.476 . S
C21 H85 0.930 . S
C22 C21 1.476 . S
C22 C23 1.400 1_545 S
C22 C26 1.567 . S
C23 C22 1.400 1_565 S
C23 C24 1.373 . S
C23 C45 1.432 . S
C24 C23 1.373 . S
C24 C25 1.339 . S
C24 C27 1.530 . S
C25 C20 1.304 . S
C25 C24 1.339 . S
C25 H86 0.930 . S
C26 C22 1.567 . S
C26 H87 0.961 . S
C26 H88 0.960 . S
C26 H89 0.958 . S
C27 C24 1.530 . S
C27 H90 0.961 . S
C27 H91 0.960 . S
C27 H92 0.960 . S
C28 C29 1.530 . S
C28 H94 0.961 . S
C28 H95 0.961 . S
C28 H96 0.959 . S
C29 C28 1.530 . S
C29 O57 1.412 . S
C29 H93 0.980 . S
C30 C31 1.288 . S
C30 C35 1.377 1_545 S
C30 O57 1.393 . S
C31 C30 1.288 . S
C31 C32 1.369 . S
C31 H97 0.932 . S
C32 C31 1.369 . S
C32 C33 1.398 . S
C32 C36 1.527 . S
C33 C32 1.398 . S
C33 C34 1.380 1_545 S
C33 C47 1.497 . S
C34 C33 1.380 1_565 S
C34 C35 1.383 . S
C34 C37 1.603 . S
C35 C30 1.377 1_565 S
C35 C34 1.383 . S
C35 H98 0.929 . S
C36 C32 1.527 . S
C36 H99 0.961 . S
C36 H100 0.959 . S
C36 H101 0.959 . S
C37 C34 1.603 . S
C37 H102 0.960 . S
C37 H103 0.962 . S
C37 H104 0.961 . S
C38 C5 1.587 1_565 S
C38 C39 1.360 . S
C38 C51 1.412 . S
C39 C38 1.360 . S
C39 C40 1.365 . S
C39 H105 0.929 . S
C40 C15 1.553 . S
C40 C39 1.365 . S
C40 C41 1.404 . S
C41 C40 1.404 . S
C41 C42 1.395 . S
C41 C52 1.451 . S
C42 C41 1.395 . S
C42 C43 1.353 . S
C42 H106 0.930 . S
C43 C42 1.353 . S
C43 C44 1.440 1_554 S
C43 H107 0.918 1_554 S
C44 C43 1.440 1_556 S
C44 C45 1.445 . S
C44 C53 1.395 . S
C45 C23 1.432 . S
C45 C44 1.445 . S
C45 C46 1.370 . S
C46 C45 1.370 . S
C46 C47 1.438 1_565 S
C46 H108 0.931 . S
C47 C33 1.497 . S
C47 C46 1.438 1_545 S
C47 C48 1.359 1_545 S
C48 C47 1.359 1_565 S
C48 C49 1.420 1_565 S
C48 C53 1.447 . S
C49 C48 1.420 1_545 S
C49 C50 1.304 1_556 S
C49 H109 0.955 . S
C50 C49 1.304 1_554 S
C50 C51 1.455 1_545 S
C50 H110 0.930 . S
C51 C38 1.412 . S
C51 C50 1.455 1_565 S
C51 C52 1.331 . S
C52 C41 1.451 . S
C52 C51 1.331 . S
C52 C53 1.497 1_554 S
C53 C44 1.395 . S
C53 C48 1.447 . S
C53 C52 1.497 1_556 S
C54 C55 1.582 1_565 S
C54 H111 0.962 . S
C54 H112 0.959 . S
C54 H113 0.958 . S
C55 C54 1.582 1_545 S
C55 O58 1.458 1_545 S
C55 H84 0.980 . S
O56 C1 1.426 . S
O56 C2 1.334 . S
O57 C29 1.412 . S
O57 C30 1.393 . S
O58 C20 1.435 . S
O58 C55 1.458 1_565 S
O59 C11 1.468 . S
O59 C12 1.408 . S
H60 C1 0.980 . S
H61 C0 0.959 . S
H62 C0 0.959 . S
H63 C0 0.960 . S
H64 C3 0.929 . S
H65 C7 0.929 . S
H66 C8 0.959 . S
H67 C8 0.961 . S
H68 C8 0.961 . S
H69 C9 0.960 . S
H70 C9 0.960 . S
H71 C9 0.961 . S
H72 C11 0.980 1_545 S
H73 C10 0.961 1_545 S
H74 C10 0.960 . S
H75 C10 0.959 . S
H76 C13 0.930 . S
H77 C17 0.931 . S
H78 C18 0.959 . S
H79 C18 0.961 . S
H80 C18 0.959 . S
H81 C19 0.960 . S
H82 C19 0.960 . S
H83 C19 0.960 . S
H84 C55 0.980 . S
H85 C21 0.930 . S
H86 C25 0.930 . S
H87 C26 0.961 . S
H88 C26 0.960 . S
H89 C26 0.958 . S
H90 C27 0.961 . S
H91 C27 0.960 . S
H92 C27 0.960 . S
H93 C29 0.980 . S
H94 C28 0.961 . S
H95 C28 0.961 . S
H96 C28 0.959 . S
H97 C31 0.932 . S
H98 C35 0.929 . S
H99 C36 0.961 . S
H100 C36 0.959 . S
H101 C36 0.959 . S
H102 C37 0.960 . S
H103 C37 0.962 . S
H104 C37 0.961 . S
H105 C39 0.929 . S
H106 C42 0.930 . S
H107 C43 0.918 1_556 S
H108 C46 0.931 . S
H109 C49 0.955 . S
H110 C50 0.930 . S
H111 C54 0.962 . S
H112 C54 0.959 . S
H113 C54 0.958 . S
C114 C115 1.560 . S
C114 H175 0.959 . S
C114 H176 0.959 . S
C114 H177 0.960 . S
C115 C114 1.560 . S
C115 O170 1.426 . S
C115 H174 0.980 . S
C116 C117 1.407 . S
C116 C121 1.418 . S
C116 O170 1.334 . S
C117 C116 1.407 . S
C117 C118 1.360 . S
C117 H178 0.929 . S
C118 C117 1.360 . S
C118 C119 1.401 . S
C118 C122 1.527 1_455 S
C119 C118 1.401 . S
C119 C120 1.405 . S
C119 C152 1.587 . S
C120 C119 1.405 . S
C120 C121 1.332 . S
C120 C123 1.496 . S
C121 C116 1.418 . S
C121 C120 1.332 . S
C121 H179 0.929 . S
C122 C118 1.527 1_655 S
C122 H180 0.959 . S
C122 H181 0.961 . S
C122 H182 0.961 . S
C123 C120 1.496 . S
C123 H183 0.960 . S
C123 H184 0.960 . S
C123 H185 0.961 . S
C124 C125 1.517 . S
C124 H187 0.961 . S
C124 H188 0.960 1_455 S
C124 H189 0.959 . S
C125 C124 1.517 . S
C125 O173 1.468 1_455 S
C125 H186 0.980 . S
C126 C127 1.349 1_655 S
C126 C131 1.367 . S
C126 O173 1.408 . S
C127 C126 1.349 1_455 S
C127 C128 1.407 . S
C127 H190 0.930 . S
C128 C127 1.407 . S
C128 C129 1.449 . S
C128 C132 1.535 . S
C129 C128 1.449 . S
C129 C130 1.384 1_455 S
C129 C154 1.553 . S
C130 C129 1.384 1_655 S
C130 C131 1.364 . S
C130 C133 1.450 . S
C131 C126 1.367 . S
C131 C130 1.364 . S
C131 H191 0.931 . S
C132 C128 1.535 . S
C132 H192 0.959 . S
C132 H193 0.961 . S
C132 H194 0.959 . S
C133 C130 1.450 . S
C133 H195 0.960 . S
C133 H196 0.960 . S
C133 H197 0.960 . S
C134 C135 1.309 . S
C134 C139 1.304 . S
C134 O172 1.435 . S
C135 C134 1.309 . S
C135 C136 1.476 . S
C135 H199 0.930 . S
C136 C135 1.476 . S
C136 C137 1.400 . S
C136 C140 1.567 . S
C137 C136 1.400 . S
C137 C138 1.373 . S
C137 C159 1.432 . S
C138 C137 1.373 . S
C138 C139 1.339 . S
C138 C141 1.530 1_455 S
C139 C134 1.304 . S
C139 C138 1.339 . S
C139 H200 0.930 1_455 S
C140 C136 1.567 . S
C140 H201 0.961 . S
C140 H202 0.960 . S
C140 H203 0.958 . S
C141 C138 1.530 1_655 S
C141 H204 0.961 . S
C141 H205 0.960 . S
C141 H206 0.960 . S
C142 C143 1.530 . S
C142 H208 0.961 . S
C142 H209 0.961 . S
C142 H210 0.959 . S
C143 C142 1.530 . S
C143 O171 1.412 . S
C143 H207 0.980 . S
C144 C145 1.288 . S
C144 C149 1.377 . S
C144 O171 1.393 . S
C145 C144 1.288 . S
C145 C146 1.369 . S
C145 H211 0.932 . S
C146 C145 1.369 . S
C146 C147 1.398 . S
C146 C150 1.527 . S
C147 C146 1.398 . S
C147 C148 1.380 . S
C147 C161 1.497 . S
C148 C147 1.380 . S
C148 C149 1.383 . S
C148 C151 1.603 1_455 S
C149 C144 1.377 . S
C149 C148 1.383 . S
C149 H212 0.929 . S
C150 C146 1.527 . S
C150 H213 0.961 . S
C150 H214 0.959 . S
C150 H215 0.959 . S
C151 C148 1.603 1_655 S
C151 H216 0.960 . S
C151 H217 0.962 . S
C151 H218 0.961 . S
C152 C119 1.587 . S
C152 C153 1.360 . S
C152 C165 1.412 . S
C153 C152 1.360 . S
C153 C154 1.365 . S
C153 H219 0.929 . S
C154 C129 1.553 . S
C154 C153 1.365 . S
C154 C155 1.404 . S
C155 C154 1.404 . S
C155 C156 1.395 . S
C155 C166 1.451 . S
C156 C155 1.395 . S
C156 C157 1.322 . S
C156 H220 0.930 . S
C157 C156 1.322 . S
C157 C158 1.459 . S
C157 H221 0.929 . S
C158 C157 1.459 . S
C158 C159 1.445 . S
C158 C167 1.395 . S
C159 C137 1.432 . S
C159 C158 1.445 . S
C159 C160 1.370 . S
C160 C159 1.370 . S
C160 C161 1.438 . S
C160 H222 0.930 . S
C161 C147 1.497 . S
C161 C160 1.438 . S
C161 C162 1.360 . S
C162 C161 1.360 . S
C162 C163 1.401 . S
C162 C167 1.446 . S
C163 C162 1.401 . S
C163 C164 1.347 . S
C163 H223 0.929 . S
C164 C163 1.347 . S
C164 C165 1.455 . S
C164 H224 0.930 . S
C165 C152 1.412 . S
C165 C164 1.455 . S
C165 C166 1.331 . S
C166 C155 1.451 . S
C166 C165 1.331 . S
C166 C167 1.497 . S
C167 C158 1.395 . S
C167 C162 1.446 . S
C167 C166 1.497 . S
C168 C169 1.582 . S
C168 H225 0.962 . S
C168 H226 0.959 . S
C168 H227 0.958 . S
C169 C168 1.582 . S
C169 O172 1.458 . S
C169 H198 0.980 . S
O170 C115 1.426 . S
O170 C116 1.334 . S
O171 C143 1.412 . S
O171 C144 1.393 . S
O172 C134 1.435 . S
O172 C169 1.458 . S
O173 C125 1.468 1_655 S
O173 C126 1.408 . S
H174 C115 0.980 . S
H175 C114 0.959 . S
H176 C114 0.959 . S
H177 C114 0.960 . S
H178 C117 0.929 . S
H179 C121 0.929 . S
H180 C122 0.959 . S
H181 C122 0.961 . S
H182 C122 0.961 . S
H183 C123 0.960 . S
H184 C123 0.960 . S
H185 C123 0.961 . S
H186 C125 0.980 . S
H187 C124 0.961 . S
H188 C124 0.960 1_655 S
H189 C124 0.959 . S
H190 C127 0.930 . S
H191 C131 0.931 . S
H192 C132 0.959 . S
H193 C132 0.961 . S
H194 C132 0.959 . S
H195 C133 0.960 . S
H196 C133 0.960 . S
H197 C133 0.960 . S
H198 C169 0.980 . S
H199 C135 0.930 . S
H200 C139 0.930 1_655 S
H201 C140 0.961 . S
H202 C140 0.960 . S
H203 C140 0.958 . S
H204 C141 0.961 . S
H205 C141 0.960 . S
H206 C141 0.960 . S
H207 C143 0.980 . S
H208 C142 0.961 . S
H209 C142 0.961 . S
H210 C142 0.959 . S
H211 C145 0.932 . S
H212 C149 0.929 . S
H213 C150 0.961 . S
H214 C150 0.959 . S
H215 C150 0.959 . S
H216 C151 0.960 . S
H217 C151 0.962 . S
H218 C151 0.961 . S
H219 C153 0.929 . S
H220 C156 0.930 . S
H221 C157 0.929 . S
H222 C160 0.930 . S
H223 C163 0.929 . S
H224 C164 0.930 . S
H225 C168 0.962 . S
H226 C168 0.959 . S
H227 C168 0.958 . S
Mg228 O229 2.028 . S
Mg228 O235 1.986 . S
Mg228 O237 2.114 1_545 S
Mg228 O238 2.263 . S
Mg228 O241 2.010 . S
O229 Mg228 2.028 . S
O229 C232 1.250 . S
O230 Mg231 2.028 . S
O230 C232 1.248 . S
Mg231 O230 2.028 . S
Mg231 O236 2.032 . S
Mg231 O238 2.093 . S
C232 O229 1.250 . S
C232 O230 1.248 . S
C233 O234 1.264 . S
C233 O241 1.249 . S
O234 C233 1.264 . S
O235 Mg228 1.986 . S
O235 C239 1.246 . S
O236 Mg231 2.032 . S
O236 C239 1.259 . S
O237 Mg228 2.114 1_565 S
O237 C240 1.252 . S
O238 Mg228 2.263 . S
O238 Mg231 2.093 . S
O238 C240 1.251 1_545 S
C239 O235 1.246 . S
C239 O236 1.259 . S
C240 O237 1.252 . S
C240 O238 1.251 1_565 S
O241 Mg228 2.010 . S
O241 C233 1.249 . S
Mg242 O243 2.028 1_655 S
Mg242 O249 1.986 1_655 S
Mg242 O251 2.114 1_545 S
Mg242 O252 2.251 1_645 S
Mg242 O255 2.010 . S
O243 Mg242 2.028 1_455 S
O243 C246 1.250 . S
O244 Mg245 2.028 . S
O244 C246 1.248 . S
Mg245 O244 2.028 . S
Mg245 O250 2.032 . S
Mg245 O252 2.079 1_545 S
C246 O243 1.250 . S
C246 O244 1.248 . S
C247 O248 1.264 . S
C247 O255 1.249 . S
O248 C247 1.264 . S
O249 Mg242 1.986 1_455 S
O249 C253 1.246 . S
O250 Mg245 2.032 . S
O250 C253 1.259 . S
O251 Mg242 2.114 1_565 S
O251 C254 1.252 1_655 S
O252 Mg242 2.251 1_465 S
O252 Mg245 2.079 1_565 S
O252 C254 1.273 . S
C253 O249 1.246 . S
C253 O250 1.259 . S
C254 O251 1.252 1_455 S
C254 O252 1.273 . S
O255 Mg242 2.010 . S
O255 C247 1.249 . S
H256 C274 0.951 . S
H257 C276 0.951 . S
H258 C278 0.950 . S
H259 C279 0.950 . S
H260 C281 0.950 . S
H261 C284 0.950 . S
H262 C285 0.950 . S
H263 C287 0.950 . S
H264 C288 0.950 . S
H265 C289 0.951 1_565 S
H266 C291 0.965 . S
H267 C293 0.950 . S
H268 C294 0.950 . S
H269 C296 0.950 . S
H270 C299 0.950 . S
H271 C300 0.950 . S
H272 C302 0.950 . S
H273 C303 0.950 . S
C274 H256 0.951 . S
C274 C275 1.366 . S
C274 C276 1.388 . S
C275 C274 1.366 . S
C275 C279 1.385 1_545 S
C276 H257 0.951 . S
C276 C274 1.388 . S
C276 C277 1.366 . S
C277 C276 1.366 . S
C277 C278 1.414 1_545 S
C277 C280 1.499 . S
C278 H258 0.950 . S
C278 C277 1.414 1_565 S
C278 C279 1.374 . S
C279 H259 0.950 . S
C279 C275 1.385 1_565 S
C279 C278 1.374 . S
C280 C277 1.499 . S
C280 C281 1.373 1_545 S
C280 C282 1.389 . S
C281 H260 0.950 . S
C281 C280 1.373 1_565 S
C281 C297 1.377 . S
C282 C280 1.389 . S
C282 C283 1.524 . S
C282 C296 1.377 . S
C283 C282 1.524 . S
C283 C284 1.397 . S
C283 C288 1.363 . S
C284 H261 0.950 . S
C284 C283 1.397 . S
C284 C285 1.334 . S
C285 H262 0.950 . S
C285 C284 1.334 . S
C285 C286 1.287 . S
C286 C285 1.287 . S
C286 C287 1.524 . S
C286 H305 0.913 . S
C287 H263 0.950 . S
C287 C286 1.524 . S
C287 C288 1.415 . S
C288 H264 0.950 . S
C288 C283 1.363 . S
C288 C287 1.415 . S
C289 H265 0.951 1_545 S
C289 C290 1.366 . S
C289 C291 1.386 1_545 S
C290 C289 1.366 . S
C290 C294 1.385 . S
C291 H266 0.965 . S
C291 C289 1.386 1_565 S
C291 C292 1.353 1_565 S
C292 C291 1.353 1_545 S
C292 C293 1.414 . S
C292 C295 1.499 . S
C293 H267 0.950 . S
C293 C292 1.414 . S
C293 C294 1.374 . S
C294 H268 0.950 . S
C294 C290 1.385 . S
C294 C293 1.374 . S
C295 C292 1.499 . S
C295 C296 1.373 . S
C295 C297 1.389 1_545 S
C296 H269 0.950 . S
C296 C282 1.377 . S
C296 C295 1.373 . S
C297 C281 1.377 . S
C297 C295 1.389 1_565 S
C297 C298 1.524 . S
C298 C297 1.524 . S
C298 C299 1.397 . S
C298 C303 1.363 . S
C299 H270 0.950 . S
C299 C298 1.397 . S
C299 C300 1.334 . S
C300 H271 0.950 . S
C300 C299 1.334 . S
C300 C301 1.287 . S
C301 C300 1.287 . S
C301 C302 1.524 . S
C301 H304 0.999 . S
C302 H272 0.950 . S
C302 C301 1.524 . S
C302 C303 1.415 . S
C303 H273 0.950 . S
C303 C298 1.363 . S
C303 C302 1.415 . S
H304 C301 0.999 . S
H305 C286 0.913 . S
H306 C324 0.951 . S
H307 C326 0.951 . S
H308 C328 0.950 1_655 S
H309 C329 0.950 1_655 S
H310 C331 0.950 1_655 S
H311 C334 0.950 . S
H312 C335 0.950 . S
H313 C337 0.950 . S
H314 C338 0.950 . S
H315 C339 0.951 . S
H316 C341 0.951 . S
H317 C343 0.950 . S
H318 C344 0.950 . S
H319 C346 0.950 . S
H320 C349 0.978 . S
H321 C350 0.950 . S
H322 C352 0.950 . S
H323 C353 0.950 . S
C324 H306 0.951 . S
C324 C325 1.366 . S
C324 C326 1.388 . S
C325 C324 1.366 . S
C325 C329 1.385 . S
C326 H307 0.951 . S
C326 C324 1.388 . S
C326 C327 1.366 . S
C327 C326 1.366 . S
C327 C328 1.414 . S
C327 C330 1.499 . S
C328 H308 0.950 1_455 S
C328 C327 1.414 . S
C328 C329 1.374 . S
C329 H309 0.950 1_455 S
C329 C325 1.385 . S
C329 C328 1.374 . S
C330 C327 1.499 . S
C330 C331 1.373 . S
C330 C332 1.389 . S
C331 H310 0.950 1_455 S
C331 C330 1.373 . S
C331 C347 1.377 . S
C332 C330 1.389 . S
C332 C333 1.524 . S
C332 C346 1.377 . S
C333 C332 1.524 . S
C333 C334 1.397 . S
C333 C338 1.363 . S
C334 H311 0.950 . S
C334 C333 1.397 . S
C334 C335 1.334 . S
C335 H312 0.950 . S
C335 C334 1.334 . S
C335 C336 1.287 . S
C336 C335 1.287 . S
C336 C337 1.524 . S
C336 H355 0.913 . S
C337 H313 0.950 . S
C337 C336 1.524 . S
C337 C338 1.415 . S
C338 H314 0.950 . S
C338 C333 1.363 . S
C338 C337 1.415 . S
C339 H315 0.951 . S
C339 C340 1.366 1_655 S
C339 C341 1.388 . S
C340 C339 1.366 1_455 S
C340 C344 1.385 . S
C341 H316 0.951 . S
C341 C339 1.388 . S
C341 C342 1.366 1_655 S
C342 C341 1.366 1_455 S
C342 C343 1.414 . S
C342 C345 1.499 . S
C343 H317 0.950 . S
C343 C342 1.414 . S
C343 C344 1.374 . S
C344 H318 0.950 . S
C344 C340 1.385 . S
C344 C343 1.374 . S
C345 C342 1.499 . S
C345 C346 1.373 . S
C345 C347 1.389 . S
C346 H319 0.950 . S
C346 C332 1.377 . S
C346 C345 1.373 . S
C347 C331 1.377 . S
C347 C345 1.389 . S
C347 C348 1.524 1_455 S
C348 C347 1.524 1_655 S
C348 C349 1.387 1_655 S
C348 C353 1.363 . S
C349 H320 0.978 . S
C349 C348 1.387 1_455 S
C349 C350 1.317 1_455 S
C350 H321 0.950 . S
C350 C349 1.317 1_655 S
C350 C351 1.287 . S
C351 C350 1.287 . S
C351 C352 1.524 . S
C351 H354 0.999 . S
C352 H322 0.950 . S
C352 C351 1.524 . S
C352 C353 1.415 . S
C353 H323 0.950 . S
C353 C348 1.363 . S
C353 C352 1.415 . S
H354 C351 0.999 . S
H355 C336 0.913 . S
H356 C374 0.951 . S
H357 C376 0.951 . S
H358 C378 0.950 . S
H359 C379 0.950 . S
H360 C381 0.950 . S
H361 C384 0.950 . S
H362 C385 0.950 . S
H363 C387 0.950 . S
H364 C388 0.950 . S
H365 C389 0.951 1_565 S
H366 C391 0.951 1_565 S
H367 C393 0.950 . S
H368 C394 0.950 1_455 S
H369 C396 0.950 . S
H370 C399 0.950 . S
H371 C400 0.950 . S
H372 C402 0.950 1_565 S
H373 C403 0.950 1_565 S
C374 H356 0.951 . S
C374 C375 1.366 . S
C374 C376 1.388 . S
C375 C374 1.366 . S
C375 C379 1.385 1_545 S
C376 H357 0.951 . S
C376 C374 1.388 . S
C376 C377 1.366 . S
C377 C376 1.366 . S
C377 C378 1.414 1_545 S
C377 C380 1.499 . S
C378 H358 0.950 . S
C378 C377 1.414 1_565 S
C378 C379 1.374 . S
C379 H359 0.950 . S
C379 C375 1.385 1_565 S
C379 C378 1.374 . S
C380 C377 1.499 . S
C380 C381 1.373 . S
C380 C382 1.389 . S
C381 H360 0.950 . S
C381 C380 1.373 . S
C381 C397 1.377 . S
C382 C380 1.389 . S
C382 C383 1.524 . S
C382 C396 1.377 . S
C383 C382 1.524 . S
C383 C384 1.397 1_545 S
C383 C388 1.363 . S
C384 H361 0.950 . S
C384 C383 1.397 1_565 S
C384 C385 1.334 . S
C385 H362 0.950 . S
C385 C384 1.334 . S
C385 C386 1.287 1_565 S
C386 C385 1.287 1_545 S
C386 C387 1.524 . S
C386 H405 0.913 . S
C387 H363 0.950 . S
C387 C386 1.524 . S
C387 C388 1.415 . S
C388 H364 0.950 . S
C388 C383 1.363 . S
C388 C387 1.415 . S
C389 H365 0.951 1_545 S
C389 C390 1.366 1_655 S
C389 C391 1.388 . S
C390 C389 1.366 1_455 S
C390 C394 1.385 1_455 S
C391 H366 0.951 1_545 S
C391 C389 1.388 . S
C391 C392 1.366 . S
C392 C391 1.366 . S
C392 C393 1.414 . S
C392 C395 1.499 . S
C393 H367 0.950 . S
C393 C392 1.414 . S
C393 C394 1.374 . S
C394 H368 0.950 1_655 S
C394 C390 1.385 1_655 S
C394 C393 1.374 . S
C395 C392 1.499 . S
C395 C396 1.373 . S
C395 C397 1.389 . S
C396 H369 0.950 . S
C396 C382 1.377 . S
C396 C395 1.373 . S
C397 C381 1.377 . S
C397 C395 1.389 . S
C397 C398 1.524 . S
C398 C397 1.524 . S
C398 C399 1.397 . S
C398 C403 1.363 . S
C399 H370 0.950 . S
C399 C398 1.397 . S
C399 C400 1.334 . S
C400 H371 0.950 . S
C400 C399 1.334 . S
C400 C401 1.287 . S
C401 C400 1.287 . S
C401 C402 1.524 . S
C401 H404 0.999 . S
C402 H372 0.950 1_545 S
C402 C401 1.524 . S
C402 C403 1.415 . S
C403 H373 0.950 1_545 S
C403 C398 1.363 . S
C403 C402 1.415 . S
H404 C401 0.999 . S
H405 C386 0.913 . S
H406 C424 0.951 . S
H407 C426 0.951 . S
H408 C428 0.950 . S
H409 C429 0.950 . S
H410 C431 0.950 1_655 S
H411 C434 0.950 . S
H412 C435 0.950 . S
H413 C437 0.950 . S
H414 C438 0.950 . S
H415 C439 0.951 . S
H416 C441 0.951 . S
H417 C443 0.950 . S
H418 C444 0.950 . S
H419 C446 0.950 . S
H420 C449 0.950 . S
H421 C450 0.955 . S
H422 C452 0.950 . S
H423 C453 0.950 . S
C424 H406 0.951 . S
C424 C425 1.366 . S
C424 C426 1.388 . S
C425 C424 1.366 . S
C425 C429 1.385 1_455 S
C426 H407 0.951 . S
C426 C424 1.388 . S
C426 C427 1.366 . S
C427 C426 1.366 . S
C427 C428 1.414 1_455 S
C427 C430 1.499 . S
C428 H408 0.950 . S
C428 C427 1.414 1_655 S
C428 C429 1.374 . S
C429 H409 0.950 . S
C429 C425 1.385 1_655 S
C429 C428 1.374 . S
C430 C427 1.499 . S
C430 C431 1.373 . S
C430 C432 1.389 . S
C431 H410 0.950 1_455 S
C431 C430 1.373 . S
C431 C447 1.377 . S
C432 C430 1.389 . S
C432 C433 1.524 . S
C432 C446 1.377 . S
C433 C432 1.524 . S
C433 C434 1.397 . S
C433 C438 1.363 . S
C434 H411 0.950 . S
C434 C433 1.397 . S
C434 C435 1.334 . S
C435 H412 0.950 . S
C435 C434 1.334 . S
C435 C436 1.287 . S
C436 C435 1.287 . S
C436 C437 1.524 . S
C436 H455 0.913 . S
C437 H413 0.950 . S
C437 C436 1.524 . S
C437 C438 1.415 . S
C438 H414 0.950 . S
C438 C433 1.363 . S
C438 C437 1.415 . S
C439 H415 0.951 . S
C439 C440 1.366 1_655 S
C439 C441 1.388 . S
C440 C439 1.366 1_455 S
C440 C444 1.385 . S
C441 H416 0.951 . S
C441 C439 1.388 . S
C441 C442 1.366 1_655 S
C442 C441 1.366 1_455 S
C442 C443 1.414 . S
C442 C445 1.499 . S
C443 H417 0.950 . S
C443 C442 1.414 . S
C443 C444 1.374 . S
C444 H418 0.950 . S
C444 C440 1.385 . S
C444 C443 1.374 . S
C445 C442 1.499 . S
C445 C446 1.373 . S
C445 C447 1.389 . S
C446 H419 0.950 . S
C446 C432 1.377 . S
C446 C445 1.373 . S
C447 C431 1.377 . S
C447 C445 1.389 . S
C447 C448 1.524 1_455 S
C448 C447 1.524 1_655 S
C448 C449 1.397 1_655 S
C448 C453 1.363 . S
C449 H420 0.950 . S
C449 C448 1.397 1_455 S
C449 C450 1.337 . S
C450 H421 0.955 . S
C450 C449 1.337 . S
C450 C451 1.279 1_455 S
C451 C450 1.279 1_655 S
C451 C452 1.524 . S
C451 H454 0.999 . S
C452 H422 0.950 . S
C452 C451 1.524 . S
C452 C453 1.415 . S
C453 H423 0.950 . S
C453 C448 1.363 . S
C453 C452 1.415 . S
H454 C451 0.999 . S
H455 C436 0.913 . S
H456 C474 0.951 . S
H457 C476 0.951 . S
H458 C478 0.950 1_565 S
H459 C479 0.950 1_565 S
H460 C481 0.950 . S
H461 C484 0.950 . S
H462 C485 0.950 . S
H463 C487 0.950 . S
H464 C488 0.950 . S
H465 C489 0.951 1_565 S
H466 C491 0.951 1_565 S
H467 C493 0.950 . S
H468 C494 0.950 . S
H469 C496 0.950 . S
H470 C499 0.950 . S
H471 C500 0.950 . S
H472 C502 0.950 . S
H473 C503 0.950 . S
C474 H456 0.951 . S
C474 C475 1.366 . S
C474 C476 1.388 . S
C475 C474 1.366 . S
C475 C479 1.385 . S
C476 H457 0.951 . S
C476 C474 1.388 . S
C476 C477 1.366 . S
C477 C476 1.366 . S
C477 C478 1.414 . S
C477 C480 1.499 . S
C478 H458 0.950 1_545 S
C478 C477 1.414 . S
C478 C479 1.374 . S
C479 H459 0.950 1_545 S
C479 C475 1.385 . S
C479 C478 1.374 . S
C480 C477 1.499 . S
C480 C481 1.373 1_545 S
C480 C482 1.389 . S
C481 H460 0.950 . S
C481 C480 1.373 1_565 S
C481 C497 1.377 . S
C482 C480 1.389 . S
C482 C483 1.524 . S
C482 C496 1.377 . S
C483 C482 1.524 . S
C483 C484 1.397 . S
C483 C488 1.363 . S
C484 H461 0.950 . S
C484 C483 1.397 . S
C484 C485 1.334 . S
C485 H462 0.950 . S
C485 C484 1.334 . S
C485 C486 1.287 . S
C486 C485 1.287 . S
C486 C487 1.524 . S
C486 H505 0.913 . S
C487 H463 0.950 . S
C487 C486 1.524 . S
C487 C488 1.415 . S
C488 H464 0.950 . S
C488 C483 1.363 . S
C488 C487 1.415 . S
C489 H465 0.951 1_545 S
C489 C490 1.366 . S
C489 C491 1.388 . S
C490 C489 1.366 . S
C490 C494 1.385 . S
C491 H466 0.951 1_545 S
C491 C489 1.388 . S
C491 C492 1.366 . S
C492 C491 1.366 . S
C492 C493 1.414 . S
C492 C495 1.499 . S
C493 H467 0.950 . S
C493 C492 1.414 . S
C493 C494 1.374 . S
C494 H468 0.950 . S
C494 C490 1.385 . S
C494 C493 1.374 . S
C495 C492 1.499 . S
C495 C496 1.373 . S
C495 C497 1.389 1_545 S
C496 H469 0.950 . S
C496 C482 1.377 . S
C496 C495 1.373 . S
C497 C481 1.377 . S
C497 C495 1.389 1_565 S
C497 C498 1.524 . S
C498 C497 1.524 . S
C498 C499 1.397 . S
C498 C503 1.363 . S
C499 H470 0.950 . S
C499 C498 1.397 . S
C499 C500 1.334 . S
C500 H471 0.950 . S
C500 C499 1.334 . S
C500 C501 1.287 . S
C501 C500 1.287 . S
C501 C502 1.524 . S
C501 H504 0.999 . S
C502 H472 0.950 . S
C502 C501 1.524 . S
C502 C503 1.415 . S
C503 H473 0.950 . S
C503 C498 1.363 . S
C503 C502 1.415 . S
H504 C501 0.999 . S
H505 C486 0.913 . S
H506 C524 0.951 . S
H507 C526 0.951 . S
H508 C528 0.950 . S
H509 C529 0.950 . S
H510 C531 0.950 . S
H511 C534 0.950 . S
H512 C535 0.950 . S
H513 C537 0.950 . S
H514 C538 0.950 . S
H515 C539 0.951 . S
H516 C541 0.951 . S
H517 C543 0.950 . S
H518 C544 0.950 . S
H519 C546 0.950 . S
H520 C549 0.950 . S
H521 C550 0.950 . S
H522 C552 0.950 . S
H523 C553 0.950 . S
C524 H506 0.951 . S
C524 C525 1.366 . S
C524 C526 1.388 . S
C525 C524 1.366 . S
C525 C529 1.385 . S
C526 H507 0.951 . S
C526 C524 1.388 . S
C526 C527 1.366 . S
C527 C526 1.366 . S
C527 C528 1.414 . S
C527 C530 1.499 . S
C528 H508 0.950 . S
C528 C527 1.414 . S
C528 C529 1.374 . S
C529 H509 0.950 . S
C529 C525 1.385 . S
C529 C528 1.374 . S
C530 C527 1.499 . S
C530 C531 1.373 . S
C530 C532 1.389 . S
C531 H510 0.950 . S
C531 C530 1.373 . S
C531 C547 1.377 . S
C532 C530 1.389 . S
C532 C533 1.524 1_455 S
C532 C546 1.377 . S
C533 C532 1.524 1_655 S
C533 C534 1.397 . S
C533 C538 1.363 . S
C534 H511 0.950 . S
C534 C533 1.397 . S
C534 C535 1.334 . S
C535 H512 0.950 . S
C535 C534 1.334 . S
C535 C536 1.287 . S
C536 C535 1.287 . S
C536 C537 1.524 . S
C536 H555 0.913 . S
C537 H513 0.950 . S
C537 C536 1.524 . S
C537 C538 1.415 . S
C538 H514 0.950 . S
C538 C533 1.363 . S
C538 C537 1.415 . S
C539 H515 0.951 . S
C539 C540 1.366 . S
C539 C541 1.388 . S
C540 C539 1.366 . S
C540 C544 1.385 . S
C541 H516 0.951 . S
C541 C539 1.388 . S
C541 C542 1.366 . S
C542 C541 1.366 . S
C542 C543 1.414 . S
C542 C545 1.499 . S
C543 H517 0.950 . S
C543 C542 1.414 . S
C543 C544 1.374 . S
C544 H518 0.950 . S
C544 C540 1.385 . S
C544 C543 1.374 . S
C545 C542 1.499 . S
C545 C546 1.373 . S
C545 C547 1.389 . S
C546 H519 0.950 . S
C546 C532 1.377 . S
C546 C545 1.373 . S
C547 C531 1.377 . S
C547 C545 1.389 . S
C547 C548 1.524 . S
C548 C547 1.524 . S
C548 C549 1.397 . S
C548 C553 1.363 . S
C549 H520 0.950 . S
C549 C548 1.397 . S
C549 C550 1.334 . S
C550 H521 0.950 . S
C550 C549 1.334 . S
C550 C551 1.287 . S
C551 C550 1.287 . S
C551 C552 1.524 . S
C551 H554 0.999 . S
C552 H522 0.950 . S
C552 C551 1.524 . S
C552 C553 1.415 . S
C553 H523 0.950 . S
C553 C548 1.363 . S
C553 C552 1.415 . S
H554 C551 0.999 . S
H555 C536 0.913 . S
H556 C574 0.951 . S
H557 C576 0.951 . S
H558 C578 0.950 . S
H559 C579 0.950 . S
H560 C581 0.950 . S
H561 C584 0.950 . S
H562 C585 0.950 . S
H563 C587 0.950 . S
H564 C588 0.950 . S
H565 C589 0.951 . S
H566 C591 0.951 . S
H567 C593 0.950 . S
H568 C594 0.950 . S
H569 C596 0.950 . S
H570 C599 0.950 . S
H571 C600 0.950 . S
H572 C602 0.950 . S
H573 C603 0.950 . S
C574 H556 0.951 . S
C574 C575 1.366 1_565 S
C574 C576 1.388 . S
C575 C574 1.366 1_545 S
C575 C579 1.385 . S
C576 H557 0.951 . S
C576 C574 1.388 . S
C576 C577 1.366 1_565 S
C577 C576 1.366 1_545 S
C577 C578 1.414 . S
C577 C580 1.499 . S
C578 H558 0.950 . S
C578 C577 1.414 . S
C578 C579 1.374 . S
C579 H559 0.950 . S
C579 C575 1.385 . S
C579 C578 1.374 . S
C580 C577 1.499 . S
C580 C581 1.373 . S
C580 C582 1.389 1_545 S
C581 H560 0.950 . S
C581 C580 1.373 . S
C581 C597 1.377 . S
C582 C580 1.389 1_565 S
C582 C583 1.524 . S
C582 C596 1.377 . S
C583 C582 1.524 . S
C583 C584 1.397 . S
C583 C588 1.363 . S
C584 H561 0.950 . S
C584 C583 1.397 . S
C584 C585 1.334 . S
C585 H562 0.950 . S
C585 C584 1.334 . S
C585 C586 1.287 . S
C586 C585 1.287 . S
C586 C587 1.524 . S
C586 H605 0.913 . S
C587 H563 0.950 . S
C587 C586 1.524 . S
C587 C588 1.415 . S
C588 H564 0.950 . S
C588 C583 1.363 . S
C588 C587 1.415 . S
C589 H565 0.951 . S
C589 C590 1.366 . S
C589 C591 1.388 . S
C590 C589 1.366 . S
C590 C594 1.385 1_545 S
C591 H566 0.951 . S
C591 C589 1.388 . S
C591 C592 1.366 . S
C592 C591 1.366 . S
C592 C593 1.414 1_545 S
C592 C595 1.499 . S
C593 H567 0.950 . S
C593 C592 1.414 1_565 S
C593 C594 1.374 . S
C594 H568 0.950 . S
C594 C590 1.385 1_565 S
C594 C593 1.374 . S
C595 C592 1.499 . S
C595 C596 1.373 1_545 S
C595 C597 1.389 . S
C596 H569 0.950 . S
C596 C582 1.377 . S
C596 C595 1.373 1_565 S
C597 C581 1.377 . S
C597 C595 1.389 . S
C597 C598 1.524 . S
C598 C597 1.524 . S
C598 C599 1.397 . S
C598 C603 1.363 . S
C599 H570 0.950 . S
C599 C598 1.397 . S
C599 C600 1.334 . S
C600 H571 0.950 . S
C600 C599 1.334 . S
C600 C601 1.287 . S
C601 C600 1.287 . S
C601 C602 1.524 . S
C601 H604 0.999 . S
C602 H572 0.950 . S
C602 C601 1.524 . S
C602 C603 1.415 . S
C603 H573 0.950 . S
C603 C598 1.363 . S
C603 C602 1.415 . S
H604 C601 0.999 . S
H605 C586 0.913 . S
H606 C624 0.951 . S
H607 C626 0.951 . S
H608 C628 0.950 . S
H609 C629 0.950 . S
H610 C631 0.950 . S
H611 C634 0.950 . S
H612 C635 0.950 . S
H613 C637 0.950 . S
H614 C638 0.950 . S
H615 C639 0.951 . S
H616 C641 0.951 . S
H617 C643 0.950 . S
H618 C644 0.950 . S
H619 C646 0.950 . S
H620 C649 0.950 . S
H621 C650 0.950 . S
H622 C652 0.950 . S
H623 C653 0.950 . S
C624 H606 0.951 . S
C624 C625 1.366 . S
C624 C626 1.388 . S
C625 C624 1.366 . S
C625 C629 1.385 . S
C626 H607 0.951 . S
C626 C624 1.388 . S
C626 C627 1.366 . S
C627 C626 1.366 . S
C627 C628 1.414 . S
C627 C630 1.499 . S
C628 H608 0.950 . S
C628 C627 1.414 . S
C628 C629 1.374 . S
C629 H609 0.950 . S
C629 C625 1.385 . S
C629 C628 1.374 . S
C630 C627 1.499 . S
C630 C631 1.373 . S
C630 C632 1.389 . S
C631 H610 0.950 . S
C631 C630 1.373 . S
C631 C647 1.377 . S
C632 C630 1.389 . S
C632 C633 1.524 . S
C632 C646 1.377 . S
C633 C632 1.524 . S
C633 C634 1.397 . S
C633 C638 1.363 1_455 S
C634 H611 0.950 . S
C634 C633 1.397 . S
C634 C635 1.334 1_455 S
C635 H612 0.950 . S
C635 C634 1.334 1_655 S
C635 C636 1.287 . S
C636 C635 1.287 . S
C636 C637 1.524 . S
C636 H655 0.913 . S
C637 H613 0.950 . S
C637 C636 1.524 . S
C637 C638 1.415 . S
C638 H614 0.950 . S
C638 C633 1.363 1_655 S
C638 C637 1.415 . S
C639 H615 0.951 . S
C639 C640 1.366 . S
C639 C641 1.388 . S
C640 C639 1.366 . S
C640 C644 1.385 . S
C641 H616 0.951 . S
C641 C639 1.388 . S
C641 C642 1.366 . S
C642 C641 1.366 . S
C642 C643 1.414 . S
C642 C645 1.499 . S
C643 H617 0.950 . S
C643 C642 1.414 . S
C643 C644 1.374 . S
C644 H618 0.950 . S
C644 C640 1.385 . S
C644 C643 1.374 . S
C645 C642 1.499 . S
C645 C646 1.373 . S
C645 C647 1.389 . S
C646 H619 0.950 . S
C646 C632 1.377 . S
C646 C645 1.373 . S
C647 C631 1.377 . S
C647 C645 1.389 . S
C647 C648 1.524 . S
C648 C647 1.524 . S
C648 C649 1.397 . S
C648 C653 1.363 . S
C649 H620 0.950 . S
C649 C648 1.397 . S
C649 C650 1.334 . S
C650 H621 0.950 . S
C650 C649 1.334 . S
C650 C651 1.287 . S
C651 C650 1.287 . S
C651 C652 1.524 . S
C651 H654 0.999 . S
C652 H622 0.950 . S
C652 C651 1.524 . S
C652 C653 1.415 . S
C653 H623 0.950 . S
C653 C648 1.363 . S
C653 C652 1.415 . S
H654 C651 0.999 . S
H655 C636 0.913 . S
C290 C233 1.271 . S
C275 C11 0.930 1_545 S
C340 C253 1.283 . S
C325 C115 1.052 . S
C390 C232 1.294 . S
C375 C1 1.048 . S
C440 C254 1.494 . S
C425 C125 0.929 . S
C490 C246 1.559 . S
C475 C55 1.177 . S
C540 C239 1.375 . S
C525 C143 1.116 . S
C590 C247 1.190 . S
C575 C29 1.109 . S
C625 C169 1.155 . S
C640 C240 1.592 . S
