# Generated by pormake.
# Topology tsx, (6,3)-cn, num edge types: 1
# Building blocks:
#     Node 0, Type 0, BuildingBlock: FUNLAD_clean_sbu_0, # of connection points: 6
#     Node 1, Type 0, BuildingBlock: FUNLAD_clean_sbu_0, # of connection points: 6
#     Node 2, Type 1, BuildingBlock: ESEHIV_clean_linker_0, # of connection points: 3
#     Node 3, Type 1, BuildingBlock: ESEHIV_clean_linker_0, # of connection points: 3
#     Node 4, Type 1, BuildingBlock: ESEHIV_clean_linker_0, # of connection points: 3
#     Node 5, Type 1, BuildingBlock: ESEHIV_clean_linker_0, # of connection points: 3
#     Edge 6, Type (0, 1), BuildingBlock: FUNLAD_clean_linker_0, # of connection points: 2
#     Edge 7, Type (0, 1), BuildingBlock: FUNLAD_clean_linker_0, # of connection points: 2
#     Edge 8, Type (0, 1), BuildingBlock: FUNLAD_clean_linker_0, # of connection points: 2
#     Edge 9, Type (0, 1), BuildingBlock: FUNLAD_clean_linker_0, # of connection points: 2
#     Edge 10, Type (0, 1), BuildingBlock: FUNLAD_clean_linker_0, # of connection points: 2
#     Edge 11, Type (0, 1), BuildingBlock: FUNLAD_clean_linker_0, # of connection points: 2
#     Edge 12, Type (0, 1), BuildingBlock: FUNLAD_clean_linker_0, # of connection points: 2
#     Edge 13, Type (0, 1), BuildingBlock: FUNLAD_clean_linker_0, # of connection points: 2
#     Edge 14, Type (0, 1), BuildingBlock: FUNLAD_clean_linker_0, # of connection points: 2
#     Edge 15, Type (0, 1), BuildingBlock: FUNLAD_clean_linker_0, # of connection points: 2
#     Edge 16, Type (0, 1), BuildingBlock: FUNLAD_clean_linker_0, # of connection points: 2
#     Edge 17, Type (0, 1), BuildingBlock: FUNLAD_clean_linker_0, # of connection points: 2
# Relax obj value: 0.165
# Max RMSD: 0.155
# Mean RMSD: 0.085
data_MOF--net-tsx--node1-FUNLAD_clean_sbu_0--node2-ESEHIV_clean_linker_0--edge1-FUNLAD_clean_linker_0
_symmetry_space_group_name_H-M    P1
_symmetry_Int_Tables_number       1
_symmetry_cell_setting            triclinic
loop_
_symmetry_equiv_pos_as_xyz
'x, y, z'
_cell_length_a     20.904318
_cell_length_b     23.272971
_cell_length_c     46.088326
_cell_angle_alpha  91.355889
_cell_angle_beta   92.068453
_cell_angle_gamma 90.035255
loop_
_atom_site_label
_atom_site_type_symbol
_atom_site_fract_x
_atom_site_fract_y
_atom_site_fract_z
_atom_type_partial_charge
C0 C 0.93243 0.8569 0.99465 0.0
N1 N 0.0086 0.94988 0.06579 0.0
C2 C 0.95092 0.94457 0.07821 0.0
C3 C 0.94674 0.94734 0.10832 0.0
C4 C 0.00248 0.95565 0.12585 0.0
C5 C 0.06153 0.96005 0.11246 0.0
C6 C 0.0635 0.95705 0.08223 0.0
Zn7 Zn 0.01166 0.95013 0.02174 0.0
C8 C 0.11796 0.88008 -0.0008 0.0
N9 N 0.01614 0.95301 0.92941 0.0
C10 C 0.96075 0.94551 0.91336 0.0
C11 C 0.07284 0.96131 0.9165 0.0
C12 C 0.07522 0.96249 0.88628 0.0
C13 C 0.0187 0.95512 0.86915 0.0
C14 C 0.96095 0.94637 0.8831 0.0
Zn15 Zn 0.0136 0.95214 0.97365 0.0
O16 O 0.95145 0.87934 0.01877 0.0
C17 C 0.90829 0.02363 -0.0041 0.0
O18 O 0.95111 0.87812 0.97119 0.0
H19 H 0.11629 0.96729 0.92968 0.0
H20 H 0.90785 0.93911 0.06471 0.0
H21 H 0.91623 0.93884 0.92406 0.0
O22 O 0.93125 0.00638 0.02006 0.0
O23 O 0.93358 0.00673 0.97256 0.0
H24 H 0.10884 0.96114 0.07188 0.0
O25 O 0.0753 0.02644 0.97719 0.0
O26 O 0.07177 0.02121 0.02454 0.0
O27 O 0.09421 0.89809 0.97534 0.0
O28 O 0.09222 0.89448 0.02285 0.0
C29 C 0.0917 0.04605 0.0024 0.0
H30 H 0.90013 0.94452 0.11772 0.0
H31 H 0.10573 0.9658 0.12519 0.0
H32 H 0.12068 0.97 0.87646 0.0
H33 H 0.91638 0.93967 0.87077 0.0
C34 C 0.38926 0.46191 0.51416 0.0
N35 N 0.49845 0.55292 0.57777 0.0
C36 C 0.44427 0.55744 0.59316 0.0
C37 C 0.44812 0.56242 0.6234 0.0
C38 C 0.50829 0.56251 0.63796 0.0
C39 C 0.56341 0.55773 0.62153 0.0
C40 C 0.55737 0.55307 0.59131 0.0
Zn41 Zn 0.49093 0.54641 0.53358 0.0
C42 C 0.5729 0.45454 0.50946 0.0
N43 N 0.47274 0.53241 0.44096 0.0
C44 C 0.41519 0.53373 0.42618 0.0
C45 C 0.52848 0.52943 0.42664 0.0
C46 C 0.52793 0.52894 0.39638 0.0
C47 C 0.46943 0.5314 0.38052 0.0
C48 C 0.41242 0.53304 0.39578 0.0
Zn49 Zn 0.47891 0.53822 0.48543 0.0
O50 O 0.41884 0.48404 0.53626 0.0
C51 C 0.39495 0.62841 0.50925 0.0
O52 O 0.40397 0.47701 0.48889 0.0
H53 H 0.57373 0.52816 0.43874 0.0
H54 H 0.39791 0.55703 0.58196 0.0
H55 H 0.37144 0.53624 0.43798 0.0
O56 O 0.4208 0.61212 0.53303 0.0
O57 O 0.41142 0.60502 0.48547 0.0
H58 H 0.5998 0.54968 0.57863 0.0
O59 O 0.55472 0.59983 0.4829 0.0
O60 O 0.56181 0.609 0.53041 0.0
O61 O 0.54488 0.47088 0.4862 0.0
O62 O 0.5614 0.47992 0.53343 0.0
C63 C 0.58005 0.62344 0.50567 0.0
H64 H 0.40441 0.56521 0.63527 0.0
H65 H 0.61074 0.55818 0.63191 0.0
H66 H 0.57296 0.52664 0.38551 0.0
H67 H 0.36631 0.53529 0.38437 0.0
H68 H 0.92188 0.09691 0.39042 0.0
H69 H 0.04826 0.953 0.40128 0.0
H70 H 0.95501 0.02568 0.47512 0.0
C71 C 0.94482 0.06551 0.40432 0.0
C72 C 0.93271 0.06599 0.43416 0.0
C73 C 0.98649 0.0251 0.39225 0.0
C74 C 0.01693 0.98534 0.41039 0.0
C75 C 0.00584 0.98577 0.44015 0.0
C76 C 0.96421 0.02627 0.45214 0.0
H77 H 0.00523 0.89555 0.59266 0.0
H78 H 0.10685 0.05598 0.60338 0.0
H79 H 0.0343 0.00098 0.5189 0.0
C80 C 0.02531 0.93372 0.58346 0.0
C81 C 0.01676 0.94296 0.55357 0.0
C82 C 0.0573 0.97441 0.60173 0.0
C83 C 0.08248 0.02394 0.58955 0.0
C84 C 0.07522 0.03312 0.55963 0.0
C85 C 0.04187 0.99282 0.54179 0.0
H86 H 0.50547 0.59049 0.91623 0.0
H87 H 0.62857 0.44643 0.90019 0.0
H88 H 0.55577 0.47626 0.98538 0.0
C89 C 0.53109 0.55298 0.92392 0.0
C90 C 0.52701 0.53741 0.95302 0.0
C91 C 0.56736 0.52017 0.90468 0.0
C92 C 0.60115 0.47246 0.91508 0.0
C93 C 0.59794 0.45658 0.94423 0.0
C94 C 0.5593 0.48848 0.963 0.0
H95 H 0.39035 0.43702 0.10366 0.0
H96 H 0.52844 0.57421 0.10932 0.0
H97 H 0.48422 0.48925 0.02718 0.0
C98 C 0.42351 0.46524 0.09336 0.0
C99 C 0.43206 0.45938 0.06332 0.0
C100 C 0.45904 0.50571 0.1103 0.0
C101 C 0.50183 0.54185 0.09659 0.0
C102 C 0.51068 0.53655 0.06656 0.0
C103 C 0.4771 0.494 0.05023 0.0
C104 C 0.1577 0.12692 0.98332 0.0
C105 C 0.1313 0.09848 0.0067 0.0
C106 C 0.19314 0.17772 0.98825 0.0
C107 C 0.20224 0.20076 0.01664 0.0
C108 C 0.17597 0.17203 0.03979 0.0
C109 C 0.1414 0.1215 0.03496 0.0
C110 C 0.23627 0.25556 0.0235 0.0
C111 C 0.28176 0.2785 0.00735 0.0
C112 C 0.31834 0.32999 0.01809 0.0
C113 C 0.38398 0.33428 0.01298 0.0
C114 C 0.42103 0.37783 0.02675 0.0
C115 C 0.39275 0.41756 0.04581 0.0
H116 H 0.23843 0.37239 0.03855 0.0
C117 C 0.32637 0.41577 0.04913 0.0
C118 C 0.28943 0.37283 0.03522 0.0
H119 H 0.30317 0.44706 0.063 0.0
H120 H 0.15049 0.1103 0.9613 0.0
H121 H 0.21184 0.19938 0.96984 0.0
H122 H 0.18209 0.18883 0.06185 0.0
H123 H 0.12176 0.10097 0.05353 0.0
H124 H 0.22652 0.27571 0.04439 0.0
H125 H 0.29698 0.25615 0.98784 0.0
H126 H 0.4072 0.30231 -0.00047 0.0
H127 H 0.47212 0.37879 0.02358 0.0
C128 C 0.19511 0.81221 0.02356 0.0
C129 C 0.17607 0.84409 -0.00081 0.0
C130 C 0.25003 0.7778 0.02296 0.0
C131 C 0.28705 0.77543 -0.00193 0.0
C132 C 0.26871 0.80841 0.97411 0.0
C133 C 0.21356 0.8419 0.97452 0.0
C134 C 0.3449 0.73915 0.99586 0.0
C135 C 0.35231 0.68832 0.00894 0.0
C136 C 0.40336 0.64789 0.00023 0.0
C137 C 0.38919 0.58902 -0.00284 0.0
C138 C 0.43127 0.5519 0.98311 0.0
C139 C 0.4885 0.57311 0.97253 0.0
H140 H 0.47655 0.71267 0.99475 0.0
C141 C 0.50514 0.63086 0.97773 0.0
C142 C 0.46321 0.66791 0.99172 0.0
H143 H 0.54954 0.64775 0.96995 0.0
H144 H 0.16729 0.81342 0.04294 0.0
H145 H 0.26368 0.75373 0.04202 0.0
H146 H 0.29659 0.80753 0.95473 0.0
H147 H 0.20058 0.86643 0.95551 0.0
H148 H 0.37892 0.75156 0.97985 0.0
H149 H 0.31524 0.6726 0.02266 0.0
H150 H 0.34368 0.57248 0.00383 0.0
H151 H 0.41772 0.50735 0.97922 0.0
C152 C 0.87057 0.78543 0.02141 0.0
C153 C 0.88628 0.8087 0.99471 0.0
C154 C 0.82226 0.74468 0.02277 0.0
C155 C 0.78814 0.72607 -0.0025 0.0
C156 C 0.8061 0.74635 0.97051 0.0
C157 C 0.85467 0.78783 0.96911 0.0
C158 C 0.73309 0.68649 -0.00022 0.0
C159 C 0.69138 0.69477 0.02107 0.0
C160 C 0.64081 0.65374 0.02869 0.0
C161 C 0.59183 0.67402 0.04626 0.0
C162 C 0.54862 0.63599 0.05786 0.0
C163 C 0.55375 0.57671 0.05231 0.0
H164 H 0.68243 0.57709 0.0092 0.0
C165 C 0.60131 0.55629 0.03395 0.0
C166 C 0.64453 0.59447 0.02214 0.0
H167 H 0.60676 0.51062 0.02976 0.0
H168 H 0.89457 0.79967 0.04154 0.0
H169 H 0.81091 0.72831 0.0438 0.0
H170 H 0.78095 0.73187 0.95071 0.0
H171 H 0.86604 0.80471 0.94821 0.0
H172 H 0.72701 0.65125 0.98407 0.0
H173 H 0.69574 0.73372 0.03455 0.0
H174 H 0.58794 0.71942 0.05168 0.0
H175 H 0.51174 0.65288 0.07161 0.0
C176 C 0.83254 0.08595 0.96789 0.0
C177 C 0.85603 0.06639 0.99483 0.0
C178 C 0.7893 0.13143 0.96656 0.0
C179 C 0.76878 0.15859 0.99215 0.0
C180 C 0.78862 0.1366 0.01908 0.0
C181 C 0.83226 0.09102 0.02045 0.0
C182 C 0.72938 0.21149 0.99092 0.0
C183 C 0.74082 0.25179 0.97127 0.0
C184 C 0.70474 0.30623 0.96806 0.0
C185 C 0.73297 0.35021 0.95262 0.0
C186 C 0.69901 0.39991 0.94605 0.0
C187 C 0.63561 0.4067 0.95454 0.0
H188 H 0.61837 0.28059 0.98934 0.0
C189 C 0.6079 0.36395 0.97112 0.0
C190 C 0.64211 0.3139 0.97777 0.0
H191 H 0.55891 0.36803 0.9778 0.0
H192 H 0.84899 0.06733 0.94772 0.0
H193 H 0.77302 0.14614 0.94543 0.0
H194 H 0.77272 0.15639 0.03907 0.0
H195 H 0.84901 0.07651 0.04155 0.0
H196 H 0.69439 0.21892 0.00743 0.0
H197 H 0.78057 0.24533 0.95696 0.0
H198 H 0.78119 0.3456 0.945 0.0
H199 H 0.722 0.43263 0.93371 0.0
C200 C 0.67212 0.66847 0.48114 0.0
C201 C 0.62875 0.66876 0.50374 0.0
C202 C 0.72006 0.7105 0.48061 0.0
C203 C 0.72396 0.75407 0.50228 0.0
C204 C 0.67903 0.7554 0.52412 0.0
C205 C 0.63251 0.71269 0.52512 0.0
C206 C 0.7749 0.79819 0.50337 0.0
C207 C 0.8365 0.7855 0.49871 0.0
C208 C 0.88816 0.82611 0.5081 0.0
C209 C 0.94228 0.80512 0.52328 0.0
C210 C 0.98593 0.84316 0.53709 0.0
C211 C 0.97672 0.90278 0.53542 0.0
H212 H 0.84048 0.90301 0.49277 0.0
C213 C 0.92515 0.92373 0.51841 0.0
C214 C 0.88117 0.88572 0.50487 0.0
H215 H 0.91688 0.9695 0.51688 0.0
H216 H 0.66993 0.63504 0.46438 0.0
H217 H 0.75377 0.70907 0.46331 0.0
H218 H 0.68106 0.7887 0.54097 0.0
H219 H 0.59921 0.7142 0.54261 0.0
H220 H 0.76296 0.84001 0.5127 0.0
H221 H 0.84961 0.74178 0.4926 0.0
H222 H 0.94889 0.75932 0.52584 0.0
H223 H 0.02588 0.82604 0.54977 0.0
C224 C 0.60315 0.36166 0.48674 0.0
C225 C 0.61539 0.40424 0.50824 0.0
C226 C 0.6438 0.31478 0.48401 0.0
C227 C 0.69918 0.31024 0.5021 0.0
C228 C 0.70986 0.35145 0.52456 0.0
C229 C 0.66802 0.39811 0.52772 0.0
C230 C 0.74642 0.26341 0.49751 0.0
C231 C 0.75361 0.23877 0.47108 0.0
C232 C 0.79823 0.19129 0.46442 0.0
C233 C 0.78506 0.15812 0.43912 0.0
C234 C 0.82774 0.11621 0.43003 0.0
C235 C 0.88527 0.10685 0.44584 0.0
H236 H 0.86681 0.20588 0.50045 0.0
C237 C 0.89778 0.13846 0.47181 0.0
C238 C 0.85459 0.18055 0.48106 0.0
H239 H 0.94197 0.13222 0.48435 0.0
H240 H 0.56173 0.36443 0.47201 0.0
H241 H 0.63138 0.28235 0.46756 0.0
H242 H 0.75146 0.3484 0.53915 0.0
H243 H 0.67792 0.43019 0.5447 0.0
H244 H 0.77624 0.25024 0.51594 0.0
H245 H 0.72482 0.25384 0.45273 0.0
H246 H 0.74181 0.16522 0.42601 0.0
H247 H 0.81607 0.09163 0.41029 0.0
C248 C 0.31203 0.38634 0.49467 0.0
C249 C 0.3393 0.41818 0.51829 0.0
C250 C 0.26739 0.34287 0.49926 0.0
C251 C 0.24935 0.33058 0.52762 0.0
C252 C 0.27499 0.36392 0.55098 0.0
C253 C 0.3196 0.40695 0.54643 0.0
C254 C 0.20497 0.28315 0.53419 0.0
C255 C 0.19477 0.23637 0.51685 0.0
C256 C 0.15869 0.18541 0.5263 0.0
C257 C 0.17324 0.13108 0.51436 0.0
C258 C 0.14501 0.08154 0.52476 0.0
C259 C 0.1015 0.08556 0.54717 0.0
H260 H 0.09774 0.23052 0.55667 0.0
C261 C 0.08465 0.13985 0.55827 0.0
C262 C 0.11242 0.1894 0.54774 0.0
H263 H 0.0502 0.14386 0.57521 0.0
H264 H 0.32584 0.39439 0.47271 0.0
H265 H 0.24727 0.3193 0.48059 0.0
H266 H 0.26158 0.35582 0.57301 0.0
H267 H 0.33914 0.43103 0.56511 0.0
H268 H 0.18513 0.28451 0.55563 0.0
H269 H 0.21904 0.23241 0.49648 0.0
H270 H 0.20828 0.12672 0.49769 0.0
H271 H 0.159 0.03996 0.51612 0.0
C272 C 0.30735 0.68217 0.48389 0.0
C273 C 0.34524 0.67334 0.50915 0.0
C274 C 0.26014 0.72435 0.48352 0.0
C275 C 0.24983 0.75879 0.5084 0.0
C276 C 0.28814 0.75054 0.53356 0.0
C277 C 0.33502 0.70768 0.53407 0.0
C278 C 0.20278 0.80628 0.5075 0.0
C279 C 0.14857 0.8025 0.49094 0.0
C280 C 0.1079 0.85235 0.4832 0.0
C281 C 0.04719 0.84166 0.47015 0.0
C282 C 0.01182 0.88616 0.45774 0.0
C283 C 0.03689 0.94195 0.45806 0.0
H284 H 0.17887 0.91909 0.49357 0.0
C285 C 0.09647 0.95339 0.47175 0.0
C286 C 0.13163 0.90909 0.48452 0.0
H287 H 0.11701 -0.00392 0.4713 0.0
H288 H 0.31416 0.65653 0.46432 0.0
H289 H 0.23298 0.73089 0.46342 0.0
H290 H 0.28168 0.77719 0.55283 0.0
H291 H 0.36378 0.70197 0.55381 0.0
H292 H 0.21424 0.84527 0.52 0.0
H293 H 0.13514 0.76118 0.48101 0.0
H294 H 0.0281 0.79836 0.46854 0.0
H295 H 0.96621 0.87661 0.44676 0.0
C296 C 0.03509 0.00322 0.17347 0.0
C297 C -0.00137 0.96134 0.15785 0.0
C298 C 0.02964 0.01022 0.20345 0.0
C299 C 0.98778 0.97516 0.21846 0.0
C300 C 0.9514 0.93338 0.20285 0.0
C301 C 0.95693 0.92631 0.17289 0.0
C302 C 0.97858 0.9826 0.25007 0.0
C303 C 0.02312 0.00566 0.26872 0.0
C304 C 0.01289 0.01236 0.30027 0.0
C305 C 0.06581 0.01034 0.31982 0.0
C306 C 0.05746 0.01501 0.34971 0.0
C307 C -0.00398 0.02266 0.36057 0.0
H308 H 0.9099 0.02518 0.29665 0.0
C309 C 0.94327 0.02645 0.34096 0.0
C310 C 0.95157 0.02149 0.31111 0.0
H311 H 0.89532 0.03217 0.34871 0.0
H312 H 0.06658 0.03173 0.16241 0.0
H313 H 0.05693 0.04418 0.21452 0.0
H314 H 0.91857 0.90601 0.21387 0.0
H315 H 0.92862 0.89331 0.16151 0.0
H316 H 0.93441 0.96603 0.25839 0.0
H317 H 0.06992 0.01696 0.26108 0.0
H318 H 0.11362 0.00413 0.31197 0.0
H319 H 0.09907 0.01273 0.36435 0.0
C320 C 0.06951 0.9304 0.82183 0.0
C321 C 0.01979 0.95683 0.83696 0.0
C322 C 0.07004 0.93157 0.79151 0.0
C323 C 0.02093 0.9596 0.77566 0.0
C324 C 0.97116 0.98566 0.7908 0.0
C325 C 0.97068 0.98454 0.82107 0.0
C326 C 0.0184 0.96099 0.74341 0.0
C327 C 0.06998 0.95436 0.72693 0.0
C328 C 0.06624 0.95746 0.69473 0.0
C329 C 0.12038 0.97497 0.68007 0.0
C330 C 0.11788 0.97993 0.64986 0.0
C331 C 0.06129 0.96678 0.63365 0.0
H332 H 0.96805 0.92725 0.68876 0.0
C333 C 0.00767 0.94765 0.64826 0.0
C334 C 0.01014 0.9428 0.67842 0.0
H335 H 0.96324 0.93743 0.63644 0.0
H336 H 0.10741 0.90772 0.83339 0.0
H337 H 0.1082 0.90936 0.78068 0.0
H338 H 0.93257 0.00734 0.77918 0.0
H339 H 0.93205 0.00592 0.83204 0.0
H340 H 0.97239 0.97087 0.73303 0.0
H341 H 0.11718 0.95002 0.73724 0.0
H342 H 0.16447 0.98577 0.69205 0.0
H343 H 0.16028 -0.00603 0.63919 0.0
C344 C 0.55628 0.53121 0.68561 0.0
C345 C 0.51342 0.56659 0.67013 0.0
C346 C 0.5598 0.53358 0.71593 0.0
C347 C 0.52096 0.572 0.73148 0.0
C348 C 0.47822 0.60737 0.71594 0.0
C349 C 0.47453 0.60483 0.68561 0.0
C350 C 0.52075 0.57385 0.76376 0.0
C351 C 0.56955 0.5546 0.7808 0.0
C352 C 0.56778 0.55115 0.81297 0.0
C353 C 0.62531 0.54093 0.8287 0.0
C354 C 0.62552 0.53245 0.85859 0.0
C355 C 0.56808 0.53403 0.87347 0.0
H356 H 0.46456 0.55984 0.8169 0.0
C357 C 0.51065 0.5456 0.85798 0.0
C358 C 0.51032 0.55372 0.82804 0.0
H359 H 0.46552 0.54612 0.86882 0.0
H360 H 0.5859 0.50047 0.67431 0.0
H361 H 0.59167 0.50394 0.72692 0.0
H362 H 0.44735 0.637 0.72731 0.0
H363 H 0.44136 0.63295 0.67427 0.0
H364 H 0.47899 0.5926 0.77355 0.0
H365 H 0.61343 0.5407 0.7709 0.0
H366 H 0.67025 0.53849 0.81773 0.0
H367 H 0.67059 0.52404 0.87004 0.0
C368 C 0.42482 0.50014 0.33117 0.0
C369 C 0.46857 0.53336 0.34829 0.0
C370 C 0.42614 0.5005 0.30081 0.0
C371 C 0.47092 0.53478 0.2869 0.0
C372 C 0.51399 0.56839 0.30415 0.0
C373 C 0.51283 0.56778 0.3344 0.0
C374 C 0.47682 0.53516 0.25476 0.0
C375 C 0.43251 0.51398 0.23534 0.0
C376 C 0.44068 0.51359 0.20333 0.0
C377 C 0.38618 0.50851 0.18469 0.0
C378 C 0.3919 0.50655 0.15453 0.0
C379 C 0.45242 0.50942 0.1423 0.0
H380 H 0.54486 0.51762 0.20442 0.0
C381 C 0.507 0.51423 0.16089 0.0
C382 C 0.50134 0.51593 0.19102 0.0
H383 H 0.55439 0.5152 0.15214 0.0
H384 H 0.39069 0.47261 0.34126 0.0
H385 H 0.39303 0.47277 0.28858 0.0
H386 H 0.54909 0.59514 0.29418 0.0
H387 H 0.54666 0.59448 0.34695 0.0
H388 H 0.5194 0.55544 0.24689 0.0
H389 H 0.38742 0.49792 0.24281 0.0
H390 H 0.3389 0.50616 0.19348 0.0
H391 H 0.34888 0.50311 0.14078 0.0
loop_
_geom_bond_atom_site_label_1
_geom_bond_atom_site_label_2
_geom_bond_distance
_geom_bond_site_symmetry_2
_ccdc_geom_bond_type
C0 O16 1.251 . S
C0 O18 1.254 1_554 S
N1 C2 1.333 1_445 S
N1 C6 1.307 . S
N1 Zn7 2.020 . S
C2 N1 1.333 1_665 S
C2 C3 1.379 . S
C2 H20 0.952 . S
C3 C2 1.379 . S
C3 C4 1.390 1_665 S
C3 H30 0.949 . S
C4 C3 1.390 1_445 S
C4 C5 1.357 . S
C5 C4 1.357 . S
C5 C6 1.370 . S
C5 H31 0.950 . S
C6 N1 1.307 . S
C6 C5 1.370 . S
C6 H24 0.948 . S
Zn7 N1 2.020 . S
Zn7 O16 2.039 1_445 S
Zn7 O22 2.034 1_455 S
Zn7 O26 2.025 . S
Zn7 O28 2.024 1_545 S
C8 O27 1.246 1_554 S
C8 O28 1.249 . S
N9 C10 1.307 1_445 S
N9 C11 1.333 . S
N9 Zn15 2.020 . S
C10 N9 1.307 1_665 S
C10 C14 1.370 . S
C10 H21 0.948 . S
C11 N9 1.333 . S
C11 C12 1.379 . S
C11 H19 0.952 . S
C12 C11 1.379 . S
C12 C13 1.390 . S
C12 H32 0.949 . S
C13 C12 1.390 . S
C13 C14 1.357 1_445 S
C14 C10 1.370 . S
C14 C13 1.357 1_665 S
C14 H33 0.950 . S
Zn15 N9 2.020 . S
Zn15 O18 2.025 1_445 S
Zn15 O23 2.024 1_455 S
Zn15 O25 2.039 . S
Zn15 O27 2.034 1_545 S
O16 C0 1.251 . S
O16 Zn7 2.039 1_665 S
C17 O22 1.246 . S
C17 O23 1.249 1_554 S
O18 C0 1.254 1_556 S
O18 Zn15 2.025 1_665 S
H19 C11 0.952 . S
H20 C2 0.952 . S
H21 C10 0.948 . S
O22 Zn7 2.034 1_655 S
O22 C17 1.246 . S
O23 Zn15 2.024 1_655 S
O23 C17 1.249 1_556 S
H24 C6 0.948 . S
O25 Zn15 2.039 . S
O25 C29 1.251 1_556 S
O26 Zn7 2.025 . S
O26 C29 1.254 . S
O27 C8 1.246 1_556 S
O27 Zn15 2.034 1_565 S
O28 Zn7 2.024 1_565 S
O28 C8 1.249 . S
C29 O25 1.251 1_554 S
C29 O26 1.254 . S
H30 C3 0.949 . S
H31 C5 0.950 . S
H32 C12 0.949 . S
H33 C14 0.950 . S
C34 O50 1.251 . S
C34 O52 1.254 . S
N35 C36 1.333 . S
N35 C40 1.307 . S
N35 Zn41 2.020 . S
C36 N35 1.333 . S
C36 C37 1.379 . S
C36 H54 0.952 . S
C37 C36 1.379 . S
C37 C38 1.390 . S
C37 H64 0.949 . S
C38 C37 1.390 . S
C38 C39 1.357 . S
C39 C38 1.357 . S
C39 C40 1.370 . S
C39 H65 0.950 . S
C40 N35 1.307 . S
C40 C39 1.370 . S
C40 H58 0.948 . S
Zn41 N35 2.020 . S
Zn41 O50 2.039 . S
Zn41 O56 2.034 . S
Zn41 O60 2.025 . S
Zn41 O62 2.024 . S
C42 O61 1.246 . S
C42 O62 1.249 . S
N43 C44 1.307 . S
N43 C45 1.333 . S
N43 Zn49 2.020 . S
C44 N43 1.307 . S
C44 C48 1.370 . S
C44 H55 0.948 . S
C45 N43 1.333 . S
C45 C46 1.379 . S
C45 H53 0.952 . S
C46 C45 1.379 . S
C46 C47 1.390 . S
C46 H66 0.949 . S
C47 C46 1.390 . S
C47 C48 1.357 . S
C48 C44 1.370 . S
C48 C47 1.357 . S
C48 H67 0.950 . S
Zn49 N43 2.020 . S
Zn49 O52 2.025 . S
Zn49 O57 2.024 . S
Zn49 O59 2.039 . S
Zn49 O61 2.034 . S
O50 C34 1.251 . S
O50 Zn41 2.039 . S
C51 O56 1.246 . S
C51 O57 1.249 . S
O52 C34 1.254 . S
O52 Zn49 2.025 . S
H53 C45 0.952 . S
H54 C36 0.952 . S
H55 C44 0.948 . S
O56 Zn41 2.034 . S
O56 C51 1.246 . S
O57 Zn49 2.024 . S
O57 C51 1.249 . S
H58 C40 0.948 . S
O59 Zn49 2.039 . S
O59 C63 1.251 . S
O60 Zn41 2.025 . S
O60 C63 1.254 . S
O61 C42 1.246 . S
O61 Zn49 2.034 . S
O62 Zn41 2.024 . S
O62 C42 1.249 . S
C63 O59 1.251 . S
C63 O60 1.254 . S
H64 C37 0.949 . S
H65 C39 0.950 . S
H66 C46 0.949 . S
H67 C48 0.950 . S
H68 C71 0.931 . S
H69 C74 0.928 . S
H70 C76 0.930 . S
C71 H68 0.931 . S
C71 C72 1.413 . S
C71 C73 1.368 1_545 S
C72 C71 1.413 . S
C72 C76 1.429 1_645 S
C73 C71 1.368 1_565 S
C73 C74 1.364 1_655 S
C74 H69 0.928 . S
C74 C73 1.364 1_455 S
C74 C75 1.404 . S
C75 C74 1.404 . S
C75 C76 1.391 . S
C76 H70 0.930 . S
C76 C72 1.429 1_465 S
C76 C75 1.391 . S
H77 C80 0.931 . S
H78 C83 0.928 . S
H79 C85 0.930 . S
C80 H77 0.931 . S
C80 C81 1.413 . S
C80 C82 1.360 1_665 S
C81 C80 1.413 . S
C81 C85 1.429 1_665 S
C82 C80 1.360 1_445 S
C82 C83 1.372 . S
C83 H78 0.928 . S
C83 C82 1.372 . S
C83 C84 1.404 . S
C84 C83 1.404 . S
C84 C85 1.391 . S
C85 H79 0.930 . S
C85 C81 1.429 1_445 S
C85 C84 1.391 . S
H86 C89 0.931 . S
H87 C92 0.928 . S
H88 C94 0.930 . S
C89 H86 0.931 . S
C89 C90 1.413 . S
C89 C91 1.360 . S
C90 C89 1.413 . S
C90 C94 1.429 . S
C91 C89 1.360 . S
C91 C92 1.372 . S
C92 H87 0.928 . S
C92 C91 1.372 . S
C92 C93 1.404 . S
C93 C92 1.404 . S
C93 C94 1.391 . S
C94 H88 0.930 . S
C94 C90 1.429 . S
C94 C93 1.391 . S
H95 C98 0.931 . S
H96 C101 0.928 . S
H97 C103 0.930 . S
C98 H95 0.931 . S
C98 C99 1.413 . S
C98 C100 1.360 . S
C99 C98 1.413 . S
C99 C103 1.429 . S
C100 C98 1.360 . S
C100 C101 1.372 . S
C101 H96 0.928 . S
C101 C100 1.372 . S
C101 C102 1.404 . S
C102 C101 1.404 . S
C102 C103 1.391 . S
C103 H97 0.930 . S
C103 C99 1.429 . S
C103 C102 1.391 . S
C104 C105 1.386 1_556 S
C104 C106 1.383 . S
C104 H120 0.951 . S
C105 C104 1.386 1_554 S
C105 C109 1.383 . S
C106 C104 1.383 . S
C106 C107 1.402 1_556 S
C106 H121 0.951 . S
C107 C106 1.402 1_554 S
C107 C108 1.375 . S
C107 C110 1.481 . S
C108 C107 1.375 . S
C108 C109 1.367 . S
C108 H122 0.951 . S
C109 C105 1.383 . S
C109 C108 1.367 . S
C109 H123 0.950 . S
C110 C107 1.481 . S
C110 C111 1.297 . S
C110 H124 0.950 . S
C111 C110 1.297 . S
C111 C112 1.479 . S
C111 H125 0.923 1_554 S
C112 C111 1.479 . S
C112 C113 1.375 . S
C112 C118 1.404 . S
C113 C112 1.375 . S
C113 C114 1.369 . S
C113 H126 0.950 1_554 S
C114 C113 1.369 . S
C114 C115 1.392 . S
C114 H127 0.951 . S
C115 C114 1.392 . S
C115 C117 1.384 . S
H116 C118 0.949 . S
C117 C115 1.384 . S
C117 C118 1.385 . S
C117 H119 0.950 . S
C118 C112 1.404 . S
C118 H116 0.949 . S
C118 C117 1.385 . S
H119 C117 0.950 . S
H120 C104 0.951 . S
H121 C106 0.951 . S
H122 C108 0.951 . S
H123 C109 0.950 . S
H124 C110 0.950 . S
H125 C111 0.923 1_556 S
H126 C113 0.950 1_556 S
H127 C114 0.951 . S
C128 C129 1.386 1_556 S
C128 C130 1.383 . S
C128 H144 0.951 . S
C129 C128 1.386 1_554 S
C129 C133 1.383 . S
C130 C128 1.383 . S
C130 C131 1.402 . S
C130 H145 0.951 . S
C131 C130 1.402 . S
C131 C132 1.375 . S
C131 C134 1.481 . S
C132 C131 1.375 . S
C132 C133 1.367 1_556 S
C132 H146 0.951 . S
C133 C129 1.383 . S
C133 C132 1.367 1_554 S
C133 H147 0.950 . S
C134 C131 1.481 . S
C134 C135 1.297 . S
C134 H148 0.950 . S
C135 C134 1.297 . S
C135 C136 1.479 . S
C135 H149 0.950 . S
C136 C135 1.479 . S
C136 C137 1.375 . S
C136 C142 1.404 . S
C137 C136 1.375 . S
C137 C138 1.369 . S
C137 H150 0.950 . S
C138 C137 1.369 . S
C138 C139 1.392 . S
C138 H151 0.951 . S
C139 C138 1.392 . S
C139 C141 1.384 . S
H140 C142 0.949 . S
C141 C139 1.384 . S
C141 C142 1.385 . S
C141 H143 0.950 . S
C142 C136 1.404 . S
C142 H140 0.949 . S
C142 C141 1.385 . S
H143 C141 0.950 . S
H144 C128 0.951 . S
H145 C130 0.951 . S
H146 C132 0.951 . S
H147 C133 0.950 . S
H148 C134 0.950 . S
H149 C135 0.950 . S
H150 C137 0.950 . S
H151 C138 0.951 . S
C152 C153 1.386 . S
C152 C154 1.383 . S
C152 H168 0.951 . S
C153 C152 1.386 . S
C153 C157 1.383 1_554 S
C154 C152 1.383 . S
C154 C155 1.402 . S
C154 H169 0.951 . S
C155 C154 1.402 . S
C155 C156 1.375 1_554 S
C155 C158 1.481 . S
C156 C155 1.375 1_556 S
C156 C157 1.367 . S
C156 H170 0.951 . S
C157 C153 1.383 1_556 S
C157 C156 1.367 . S
C157 H171 0.950 . S
C158 C155 1.481 . S
C158 C159 1.297 . S
C158 H172 0.950 1_554 S
C159 C158 1.297 . S
C159 C160 1.479 . S
C159 H173 0.950 . S
C160 C159 1.479 . S
C160 C161 1.375 . S
C160 C166 1.404 . S
C161 C160 1.375 . S
C161 C162 1.369 . S
C161 H174 0.950 . S
C162 C161 1.369 . S
C162 C163 1.392 . S
C162 H175 0.951 . S
C163 C162 1.392 . S
C163 C165 1.384 . S
H164 C166 0.949 1_556 S
C165 C163 1.384 . S
C165 C166 1.385 . S
C165 H167 0.950 . S
C166 C160 1.404 . S
C166 H164 0.949 1_554 S
C166 C165 1.385 . S
H167 C165 0.950 . S
H168 C152 0.951 . S
H169 C154 0.951 . S
H170 C156 0.951 . S
H171 C157 0.950 . S
H172 C158 0.950 1_556 S
H173 C159 0.950 . S
H174 C161 0.950 . S
H175 C162 0.951 . S
C176 C177 1.386 1_556 S
C176 C178 1.383 . S
C176 H192 0.951 . S
C177 C176 1.386 1_554 S
C177 C181 1.383 . S
C178 C176 1.383 . S
C178 C179 1.402 . S
C178 H193 0.951 . S
C179 C178 1.402 . S
C179 C180 1.375 1_556 S
C179 C182 1.481 . S
C180 C179 1.375 1_554 S
C180 C181 1.367 . S
C180 H194 0.951 . S
C181 C177 1.383 . S
C181 C180 1.367 . S
C181 H195 0.950 . S
C182 C179 1.481 . S
C182 C183 1.297 . S
C182 H196 0.950 1_556 S
C183 C182 1.297 . S
C183 C184 1.479 . S
C183 H197 0.950 . S
C184 C183 1.479 . S
C184 C185 1.375 . S
C184 C190 1.404 . S
C185 C184 1.375 . S
C185 C186 1.369 . S
C185 H198 0.950 . S
C186 C185 1.369 . S
C186 C187 1.392 . S
C186 H199 0.951 . S
C187 C186 1.392 . S
C187 C189 1.384 . S
H188 C190 0.939 1_554 S
C189 C187 1.384 . S
C189 C190 1.385 . S
C189 H191 0.950 . S
C190 C184 1.404 . S
C190 H188 0.939 1_556 S
C190 C189 1.385 . S
H191 C189 0.950 . S
H192 C176 0.951 . S
H193 C178 0.951 . S
H194 C180 0.951 . S
H195 C181 0.950 . S
H196 C182 0.950 1_554 S
H197 C183 0.950 . S
H198 C185 0.950 . S
H199 C186 0.951 . S
C200 C201 1.386 . S
C200 C202 1.383 . S
C200 H216 0.951 . S
C201 C200 1.386 . S
C201 C205 1.383 . S
C202 C200 1.383 . S
C202 C203 1.402 . S
C202 H217 0.951 . S
C203 C202 1.402 . S
C203 C204 1.375 . S
C203 C206 1.481 . S
C204 C203 1.375 . S
C204 C205 1.367 . S
C204 H218 0.951 . S
C205 C201 1.383 . S
C205 C204 1.367 . S
C205 H219 0.950 . S
C206 C203 1.481 . S
C206 C207 1.297 . S
C206 H220 0.950 . S
C207 C206 1.297 . S
C207 C208 1.479 . S
C207 H221 0.950 . S
C208 C207 1.479 . S
C208 C209 1.375 . S
C208 C214 1.404 . S
C209 C208 1.375 . S
C209 C210 1.369 . S
C209 H222 0.950 . S
C210 C209 1.369 . S
C210 C211 1.392 . S
C210 H223 0.955 . S
C211 C210 1.392 . S
C211 C213 1.384 . S
H212 C214 0.949 . S
C213 C211 1.384 . S
C213 C214 1.385 . S
C213 H215 0.950 . S
C214 C208 1.404 . S
C214 H212 0.949 . S
C214 C213 1.385 . S
H215 C213 0.950 . S
H216 C200 0.951 . S
H217 C202 0.951 . S
H218 C204 0.951 . S
H219 C205 0.950 . S
H220 C206 0.950 . S
H221 C207 0.950 . S
H222 C209 0.950 . S
H223 C210 0.955 . S
C224 C225 1.386 . S
C224 C226 1.383 . S
C224 H240 0.951 . S
C225 C224 1.386 . S
C225 C229 1.383 . S
C226 C224 1.383 . S
C226 C227 1.402 . S
C226 H241 0.951 . S
C227 C226 1.402 . S
C227 C228 1.375 . S
C227 C230 1.481 . S
C228 C227 1.375 . S
C228 C229 1.367 . S
C228 H242 0.951 . S
C229 C225 1.383 . S
C229 C228 1.367 . S
C229 H243 0.950 . S
C230 C227 1.481 . S
C230 C231 1.297 . S
C230 H244 0.950 . S
C231 C230 1.297 . S
C231 C232 1.479 . S
C231 H245 0.950 . S
C232 C231 1.479 . S
C232 C233 1.375 . S
C232 C238 1.404 . S
C233 C232 1.375 . S
C233 C234 1.369 . S
C233 H246 0.950 . S
C234 C233 1.369 . S
C234 C235 1.392 . S
C234 H247 0.951 . S
C235 C234 1.392 . S
C235 C237 1.384 . S
H236 C238 0.949 . S
C237 C235 1.384 . S
C237 C238 1.385 . S
C237 H239 0.950 . S
C238 C232 1.404 . S
C238 H236 0.949 . S
C238 C237 1.385 . S
H239 C237 0.950 . S
H240 C224 0.951 . S
H241 C226 0.951 . S
H242 C228 0.951 . S
H243 C229 0.950 . S
H244 C230 0.950 . S
H245 C231 0.950 . S
H246 C233 0.950 . S
H247 C234 0.951 . S
C248 C249 1.386 . S
C248 C250 1.383 . S
C248 H264 0.951 . S
C249 C248 1.386 . S
C249 C253 1.383 . S
C250 C248 1.383 . S
C250 C251 1.402 . S
C250 H265 0.951 . S
C251 C250 1.402 . S
C251 C252 1.375 . S
C251 C254 1.481 . S
C252 C251 1.375 . S
C252 C253 1.367 . S
C252 H266 0.951 . S
C253 C249 1.383 . S
C253 C252 1.367 . S
C253 H267 0.950 . S
C254 C251 1.481 . S
C254 C255 1.297 . S
C254 H268 0.950 . S
C255 C254 1.297 . S
C255 C256 1.479 . S
C255 H269 0.950 . S
C256 C255 1.479 . S
C256 C257 1.375 . S
C256 C262 1.404 . S
C257 C256 1.375 . S
C257 C258 1.369 . S
C257 H270 0.950 . S
C258 C257 1.369 . S
C258 C259 1.392 . S
C258 H271 0.951 . S
C259 C258 1.392 . S
C259 C261 1.384 . S
H260 C262 0.949 . S
C261 C259 1.384 . S
C261 C262 1.385 . S
C261 H263 0.950 . S
C262 C256 1.404 . S
C262 H260 0.949 . S
C262 C261 1.385 . S
H263 C261 0.950 . S
H264 C248 0.951 . S
H265 C250 0.951 . S
H266 C252 0.951 . S
H267 C253 0.950 . S
H268 C254 0.950 . S
H269 C255 0.950 . S
H270 C257 0.950 . S
H271 C258 0.951 . S
C272 C273 1.386 . S
C272 C274 1.383 . S
C272 H288 0.951 . S
C273 C272 1.386 . S
C273 C277 1.383 . S
C274 C272 1.383 . S
C274 C275 1.402 . S
C274 H289 0.951 . S
C275 C274 1.402 . S
C275 C276 1.375 . S
C275 C278 1.481 . S
C276 C275 1.375 . S
C276 C277 1.367 . S
C276 H290 0.951 . S
C277 C273 1.383 . S
C277 C276 1.367 . S
C277 H291 0.950 . S
C278 C275 1.481 . S
C278 C279 1.297 . S
C278 H292 0.950 . S
C279 C278 1.297 . S
C279 C280 1.479 . S
C279 H293 0.950 . S
C280 C279 1.479 . S
C280 C281 1.375 . S
C280 C286 1.404 . S
C281 C280 1.375 . S
C281 C282 1.369 . S
C281 H294 0.950 . S
C282 C281 1.369 . S
C282 C283 1.392 . S
C282 H295 0.951 . S
C283 C282 1.392 . S
C283 C285 1.384 . S
H284 C286 0.949 . S
C285 C283 1.384 . S
C285 C286 1.385 . S
C285 H287 0.950 . S
C286 C280 1.404 . S
C286 H284 0.949 . S
C286 C285 1.385 . S
H287 C285 0.950 . S
H288 C272 0.951 . S
H289 C274 0.951 . S
H290 C276 0.951 . S
H291 C277 0.950 . S
H292 C278 0.950 . S
H293 C279 0.950 . S
H294 C281 0.950 . S
H295 C282 0.951 . S
C296 C297 1.386 1_455 S
C296 C298 1.383 . S
C296 H312 0.951 . S
C297 C296 1.386 1_655 S
C297 C301 1.383 1_545 S
C298 C296 1.383 . S
C298 C299 1.402 1_455 S
C298 H313 0.951 . S
C299 C298 1.402 1_655 S
C299 C300 1.375 1_545 S
C299 C302 1.481 . S
C300 C299 1.375 1_565 S
C300 C301 1.367 . S
C300 H314 0.951 . S
C301 C297 1.383 1_565 S
C301 C300 1.367 . S
C301 H315 0.950 . S
C302 C299 1.481 . S
C302 C303 1.297 . S
C302 H316 0.950 1_545 S
C303 C302 1.297 . S
C303 C304 1.479 . S
C303 H317 0.950 1_655 S
C304 C303 1.479 . S
C304 C305 1.375 1_655 S
C304 C310 1.404 1_545 S
C305 C304 1.375 1_455 S
C305 C306 1.369 . S
C305 H318 0.950 . S
C306 C305 1.369 . S
C306 C307 1.392 1_455 S
C306 H319 0.951 . S
C307 C306 1.392 1_655 S
C307 C309 1.384 1_545 S
H308 C310 0.949 . S
C309 C307 1.384 1_565 S
C309 C310 1.385 . S
C309 H311 0.950 . S
C310 C304 1.404 1_565 S
C310 H308 0.949 . S
C310 C309 1.385 . S
H311 C309 0.950 . S
H312 C296 0.951 . S
H313 C298 0.951 . S
H314 C300 0.951 . S
H315 C301 0.950 . S
H316 C302 0.950 1_565 S
H317 C303 0.950 1_455 S
H318 C305 0.950 . S
H319 C306 0.951 . S
C320 C321 1.386 . S
C320 C322 1.383 . S
C320 H336 0.951 . S
C321 C320 1.386 . S
C321 C325 1.383 1_445 S
C322 C320 1.383 . S
C322 C323 1.402 1_545 S
C322 H337 0.951 . S
C323 C322 1.402 1_565 S
C323 C324 1.375 1_455 S
C323 C326 1.481 1_455 S
C324 C323 1.375 1_655 S
C324 C325 1.367 . S
C324 H338 0.951 . S
C325 C321 1.383 1_665 S
C325 C324 1.367 . S
C325 H339 0.950 . S
C326 C323 1.481 1_655 S
C326 C327 1.297 1_655 S
C326 H340 0.950 . S
C327 C326 1.297 1_455 S
C327 C328 1.479 . S
C327 H341 0.950 . S
C328 C327 1.479 . S
C328 C329 1.373 1_565 S
C328 C334 1.404 1_455 S
C329 C328 1.373 1_545 S
C329 C330 1.370 . S
C329 H342 0.951 . S
C330 C329 1.370 . S
C330 C331 1.393 . S
C330 H343 0.951 . S
C331 C330 1.393 . S
C331 C333 1.384 1_445 S
H332 C334 0.949 . S
C333 C331 1.384 1_665 S
C333 C334 1.385 . S
C333 H335 0.950 . S
C334 C328 1.404 1_655 S
C334 H332 0.949 . S
C334 C333 1.385 . S
H335 C333 0.950 . S
H336 C320 0.951 . S
H337 C322 0.951 . S
H338 C324 0.951 . S
H339 C325 0.950 . S
H340 C326 0.950 . S
H341 C327 0.950 . S
H342 C329 0.951 . S
H343 C330 0.951 . S
C344 C345 1.386 . S
C344 C346 1.383 . S
C344 H360 0.951 . S
C345 C344 1.386 . S
C345 C349 1.383 . S
C346 C344 1.383 . S
C346 C347 1.402 . S
C346 H361 0.951 . S
C347 C346 1.402 . S
C347 C348 1.375 . S
C347 C350 1.481 . S
C348 C347 1.375 . S
C348 C349 1.367 . S
C348 H362 0.951 . S
C349 C345 1.383 . S
C349 C348 1.367 . S
C349 H363 0.950 . S
C350 C347 1.481 . S
C350 C351 1.297 . S
C350 H364 0.950 . S
C351 C350 1.297 . S
C351 C352 1.479 . S
C351 H365 0.950 . S
C352 C351 1.479 . S
C352 C353 1.375 . S
C352 C358 1.404 . S
C353 C352 1.375 . S
C353 C354 1.369 . S
C353 H366 0.950 . S
C354 C353 1.369 . S
C354 C355 1.392 . S
C354 H367 0.951 . S
C355 C354 1.392 . S
C355 C357 1.384 . S
H356 C358 0.949 . S
C357 C355 1.384 . S
C357 C358 1.385 . S
C357 H359 0.950 . S
C358 C352 1.404 . S
C358 H356 0.949 . S
C358 C357 1.385 . S
H359 C357 0.950 . S
H360 C344 0.951 . S
H361 C346 0.951 . S
H362 C348 0.951 . S
H363 C349 0.950 . S
H364 C350 0.950 . S
H365 C351 0.950 . S
H366 C353 0.950 . S
H367 C354 0.951 . S
C368 C369 1.386 . S
C368 C370 1.383 . S
C368 H384 0.951 . S
C369 C368 1.386 . S
C369 C373 1.383 . S
C370 C368 1.383 . S
C370 C371 1.402 . S
C370 H385 0.951 . S
C371 C370 1.402 . S
C371 C372 1.375 . S
C371 C374 1.481 . S
C372 C371 1.375 . S
C372 C373 1.367 . S
C372 H386 0.951 . S
C373 C369 1.383 . S
C373 C372 1.367 . S
C373 H387 0.950 . S
C374 C371 1.481 . S
C374 C375 1.297 . S
C374 H388 0.950 . S
C375 C374 1.297 . S
C375 C376 1.479 . S
C375 H389 0.950 . S
C376 C375 1.479 . S
C376 C377 1.375 . S
C376 C382 1.404 . S
C377 C376 1.375 . S
C377 C378 1.369 . S
C377 H390 0.950 . S
C378 C377 1.369 . S
C378 C379 1.392 . S
C378 H391 0.951 . S
C379 C378 1.392 . S
C379 C381 1.384 . S
H380 C382 0.949 . S
C381 C379 1.384 . S
C381 C382 1.385 . S
C381 H383 0.950 . S
C382 C376 1.404 . S
C382 H380 0.949 . S
C382 C381 1.385 . S
H383 C381 0.950 . S
H384 C368 0.951 . S
H385 C370 0.951 . S
H386 C372 0.951 . S
H387 C373 0.950 . S
H388 C374 0.950 . S
H389 C375 0.950 . S
H390 C377 0.950 . S
H391 C378 0.951 . S
C115 C99 1.323 . S
C105 C29 1.325 . S
C129 C8 1.328 . S
C139 C90 1.284 . S
C153 C0 1.344 . S
C163 C102 1.319 . S
C177 C17 1.322 . S
C187 C93 1.285 . S
C201 C63 1.334 . S
C211 C81 1.342 . S
C225 C42 1.335 . S
C235 C72 1.297 . S
C259 C84 1.291 . S
C249 C34 1.324 . S
C283 C75 1.307 . S
C273 C51 1.332 . S
C297 C4 1.487 1_655 S
C307 C73 1.479 1_545 S
C321 C13 1.475 . S
C331 C82 1.478 . S
C355 C91 1.478 . S
C345 C38 1.480 . S
C369 C47 1.488 . S
C379 C100 1.473 . S
