# Generated by pormake.
# Topology pth, (4,4)-cn, num edge types: 1
# Building blocks:
#     Node 0, Type 0, BuildingBlock: KUFVIS_clean_sbu_0, # of connection points: 4
#     Node 1, Type 0, BuildingBlock: KUFVIS_clean_sbu_0, # of connection points: 4
#     Node 2, Type 0, BuildingBlock: KUFVIS_clean_sbu_0, # of connection points: 4
#     Node 3, Type 1, BuildingBlock: NAHDIM_clean_linker_0, # of connection points: 4
#     Node 4, Type 1, BuildingBlock: NAHDIM_clean_linker_0, # of connection points: 4
#     Node 5, Type 1, BuildingBlock: NAHDIM_clean_linker_0, # of connection points: 4
#     Edge 6, Type (0, 1), BuildingBlock: XUDNAN_clean_linker_2, # of connection points: 2
#     Edge 7, Type (0, 1), BuildingBlock: XUDNAN_clean_linker_2, # of connection points: 2
#     Edge 8, Type (0, 1), BuildingBlock: XUDNAN_clean_linker_2, # of connection points: 2
#     Edge 9, Type (0, 1), BuildingBlock: XUDNAN_clean_linker_2, # of connection points: 2
#     Edge 10, Type (0, 1), BuildingBlock: XUDNAN_clean_linker_2, # of connection points: 2
#     Edge 11, Type (0, 1), BuildingBlock: XUDNAN_clean_linker_2, # of connection points: 2
#     Edge 12, Type (0, 1), BuildingBlock: XUDNAN_clean_linker_2, # of connection points: 2
#     Edge 13, Type (0, 1), BuildingBlock: XUDNAN_clean_linker_2, # of connection points: 2
#     Edge 14, Type (0, 1), BuildingBlock: XUDNAN_clean_linker_2, # of connection points: 2
#     Edge 15, Type (0, 1), BuildingBlock: XUDNAN_clean_linker_2, # of connection points: 2
#     Edge 16, Type (0, 1), BuildingBlock: XUDNAN_clean_linker_2, # of connection points: 2
#     Edge 17, Type (0, 1), BuildingBlock: XUDNAN_clean_linker_2, # of connection points: 2
# Relax obj value: 0.013
# Max RMSD: 0.083
# Mean RMSD: 0.063
data_MOF--net-pth--node1-KUFVIS_clean_sbu_0--node2-NAHDIM_clean_linker_0--edge1-XUDNAN_clean_linker_2
_symmetry_space_group_name_H-M    P1
_symmetry_Int_Tables_number       1
_symmetry_cell_setting            triclinic
loop_
_symmetry_equiv_pos_as_xyz
'x, y, z'
_cell_length_a     31.544612
_cell_length_b     31.578641
_cell_length_c     81.668757
_cell_angle_alpha  90.125984
_cell_angle_beta   92.509779
_cell_angle_gamma 120.24414
loop_
_atom_site_label
_atom_site_type_symbol
_atom_site_fract_x
_atom_site_fract_y
_atom_site_fract_z
_atom_type_partial_charge
Mn0 Mn 0.03771 0.07803 0.05736 0.0
Mn1 Mn 0.94703 0.09068 0.03885 0.0
C2 C 0.98946 0.02447 0.03636 0.0
C3 C 0.06613 0.04875 0.07876 0.0
C4 C 0.05438 0.15381 0.03145 0.0
O5 O 0.03144 0.12485 0.07271 0.0
O6 O 0.96638 0.12572 0.06062 0.0
C7 C 0.86879 0.03339 0.06168 0.0
N8 N 0.8852 0.04108 0.04622 0.0
C9 C 0.80753 0.9758 0.03511 0.0
C10 C 0.78966 0.9673 0.05091 0.0
C11 C 0.82055 0.99602 0.06426 0.0
C12 C 0.85618 0.01294 0.03334 0.0
H13 H 0.89229 0.05569 0.07195 0.0
C14 C 0.99956 0.13833 0.0722 0.0
O15 O 0.09606 0.08645 0.07054 0.0
O16 O 0.01958 0.02863 0.07474 0.0
N17 N 0.92389 0.05881 0.01773 0.0
C18 C 0.94657 0.07198 0.00326 0.0
C19 C 0.92107 0.04598 0.98875 0.0
C20 C 0.87214 0.00763 0.9892 0.0
C21 C 0.84908 0.9958 0.00415 0.0
C22 C 0.87656 0.02249 0.01825 0.0
H23 H 0.98394 0.10187 0.00279 0.0
O24 O 0.03159 0.02903 0.04077 0.0
O25 O 0.97546 0.0497 0.04493 0.0
O26 O 0.0705 0.13245 0.04094 0.0
O27 O 0.00925 0.14229 0.03018 0.0
C28 C 0.7997 0.95902 0.00558 0.0
C29 C 0.77893 0.94902 0.02105 0.0
H30 H 0.75234 0.93879 0.05292 0.0
H31 H 0.80709 0.9896 0.0765 0.0
H32 H 0.93899 0.05568 0.97724 0.0
H33 H 0.8525 0.98785 0.97797 0.0
H34 H 0.77744 0.93794 0.99487 0.0
H35 H 0.74105 0.92028 0.02201 0.0
Mn36 Mn 0.0279 0.04639 0.3845 0.0
Mn37 Mn 0.09658 0.15477 0.40484 0.0
C38 C 0.06301 0.04886 0.41003 0.0
C39 C 0.02362 0.98931 0.36537 0.0
C40 C 0.98511 0.09922 0.40292 0.0
O41 O 0.04011 0.09609 0.36698 0.0
O42 O 0.09061 0.16639 0.38112 0.0
C43 C 0.19201 0.18576 0.39041 0.0
N44 N 0.16447 0.17471 0.40382 0.0
C45 C 0.23475 0.19544 0.42196 0.0
C46 C 0.26394 0.20721 0.40836 0.0
C47 C 0.24241 0.20209 0.39251 0.0
C48 C 0.18465 0.17874 0.4191 0.0
H49 H 0.17565 0.18227 0.37823 0.0
C50 C 0.06737 0.14261 0.36788 0.0
O51 O 0.98455 0.99081 0.36885 0.0
O52 O 0.06479 0.0216 0.37268 0.0
N53 N 0.1057 0.1494 0.4279 0.0
C54 C 0.07239 0.13626 0.43971 0.0
C55 C 0.08773 0.13782 0.45622 0.0
C56 C 0.13726 0.15376 0.46043 0.0
C57 C 0.17107 0.16822 0.4481 0.0
C58 C 0.15357 0.16545 0.43185 0.0
H59 H 0.03435 0.12435 0.43656 0.0
O60 O 0.02675 0.00805 0.40391 0.0
O61 O 0.07906 0.08672 0.4007 0.0
O62 O 0.97872 0.06158 0.39484 0.0
O63 O 0.02733 0.13622 0.40683 0.0
C64 C 0.22151 0.18563 0.4513 0.0
C65 C 0.25338 0.19952 0.43824 0.0
H66 H 0.30288 0.22005 0.40994 0.0
H67 H 0.26467 0.211 0.38195 0.0
H68 H 0.06146 0.1269 0.46567 0.0
H69 H 0.14898 0.15502 0.47318 0.0
H70 H 0.23617 0.18834 0.46375 0.0
H71 H 0.29205 0.21257 0.44085 0.0
Mn72 Mn 0.04766 0.07017 0.71876 0.0
Mn73 Mn 0.9896 0.11662 0.73977 0.0
C74 C 0.09036 0.13129 0.73861 0.0
C75 C 0.09157 0.06739 0.69699 0.0
C76 C 0.97838 0.01746 0.74634 0.0
O77 O 0.98641 0.05082 0.70408 0.0
O78 O 0.9514 0.08412 0.71903 0.0
C79 C -0.00023 0.19298 0.71666 0.0
N80 N 0.00733 0.18018 0.73196 0.0
C81 C 0.04492 0.26369 0.74204 0.0
C82 C 0.03731 0.27771 0.7264 0.0
C83 C 0.01474 0.2422 0.71366 0.0
C84 C 0.02909 0.21406 0.74431 0.0
H85 H 0.98251 0.16586 0.70681 0.0
C86 C 0.95247 0.06076 0.70634 0.0
O87 O 0.0651 0.02916 0.70553 0.0
O88 O 0.09137 0.10732 0.70074 0.0
N89 N 0.02325 0.14996 0.75994 0.0
C90 C 0.03047 0.13089 0.77403 0.0
C91 C 0.05333 0.16176 0.78791 0.0
C92 C 0.06841 0.21181 0.78717 0.0
C93 C 0.06085 0.23064 0.77252 0.0
C94 C 0.03729 0.198 0.75915 0.0
H95 H 0.01879 0.09241 0.77468 0.0
O96 O 0.10598 0.10179 0.73472 0.0
O97 O 0.04982 0.12337 0.73107 0.0
O98 O 0.00689 0.01972 0.73542 0.0
O99 O 0.96917 0.05172 0.74912 0.0
C100 C 0.07633 0.28062 0.77061 0.0
C101 C 0.06848 0.29715 0.75536 0.0
H102 H 0.04901 0.31568 0.72402 0.0
H103 H 0.00893 0.25277 0.70154 0.0
H104 H 0.05931 0.14703 0.79916 0.0
H105 H 0.08602 0.23555 0.7979 0.0
H106 H 0.09491 0.30675 0.78071 0.0
H107 H 0.08118 0.33577 0.75397 0.0
C108 C 0.89302 0.64304 0.32002 0.0
C109 C 0.93997 0.67744 0.31135 0.0
C110 C 0.94966 0.65734 0.28354 0.0
C111 C -0.00012 0.6726 0.28453 0.0
C112 C 0.01924 0.65256 0.27386 0.0
C113 C 0.98759 0.61629 0.26202 0.0
C114 C 0.93734 0.60256 0.2605 0.0
C115 C 0.91918 0.62393 0.27116 0.0
C116 C 0.07326 0.66916 0.27554 0.0
C117 C 0.90247 0.56396 0.24804 0.0
C118 C 0.13987 0.3938 0.27275 0.0
C119 C 0.10665 0.38831 0.28674 0.0
C120 C 0.05463 0.41916 0.27468 0.0
C121 C 0.00771 0.4052 0.26801 0.0
C122 C 0.99729 0.43962 0.26092 0.0
C123 C 0.03494 0.48927 0.26051 0.0
C124 C 0.08209 0.50405 0.26775 0.0
C125 C 0.09148 0.46892 0.27478 0.0
C126 C 0.9466 0.42277 0.25338 0.0
C127 C 0.123 0.55686 0.26761 0.0
C128 C 0.09828 0.45698 0.16273 0.0
C129 C 0.0507 0.45006 0.16217 0.0
C130 C 0.04222 0.48671 0.16811 0.0
C131 C 0.08221 0.53101 0.17477 0.0
C132 C 0.13068 0.53966 0.17402 0.0
C133 C 0.13813 0.5025 0.16783 0.0
C134 C 0.99022 0.47688 0.1682 0.0
C135 C 0.17415 0.58676 0.18079 0.0
C136 C 0.11313 0.87529 0.18014 0.0
C137 C 0.12408 0.85984 0.16378 0.0
C138 C 0.08442 0.77011 0.16603 0.0
C139 C 0.04238 0.72543 0.16154 0.0
C140 C 0.03481 0.68116 0.16807 0.0
C141 C 0.07069 0.68167 0.1792 0.0
C142 C 0.11398 0.72656 0.18348 0.0
C143 C 0.1202 0.77032 0.17701 0.0
C144 C 0.98821 0.63397 0.16327 0.0
C145 C 0.15365 0.72841 0.19504 0.0
C146 C 0.00607 0.58986 0.25222 0.0
C147 C 0.01026 0.55237 0.25983 0.0
C148 C 0.02656 0.5252 0.25138 0.0
C149 C 0.03734 0.53423 0.23472 0.0
C150 C 0.05137 0.5058 0.22566 0.0
C151 C 0.06227 0.51509 0.20931 0.0
C152 C 0.06075 0.55397 0.20146 0.0
C153 C 0.07241 0.56401 0.18487 0.0
C154 C 0.07409 0.60504 0.17777 0.0
C155 C 0.06287 0.63568 0.18674 0.0
C156 C 0.04762 0.62407 0.20298 0.0
C157 C 0.03301 0.65217 0.21201 0.0
C158 C 0.01891 0.64083 0.22809 0.0
C159 C 0.01958 0.60142 0.23583 0.0
C160 C 0.03457 0.57295 0.22698 0.0
C161 C 0.04748 0.58357 0.21044 0.0
C162 C 0.11098 0.36165 0.17643 0.0
C163 C 0.07894 0.37245 0.1645 0.0
O164 O 0.92954 0.67347 0.29456 0.0
O165 O 0.08863 0.81176 0.15959 0.0
O166 O 0.10644 0.41986 0.15899 0.0
O167 O 0.06268 0.38338 0.28056 0.0
H168 H 0.96595 0.66421 0.31462 0.0
H169 H 0.88153 0.60435 0.31687 0.0
H170 H 0.86236 0.64905 0.31609 0.0
H171 H 0.89964 0.6485 0.33354 0.0
H172 H 0.02389 0.69985 0.29374 0.0
H173 H 0.88058 0.61295 0.27036 0.0
H174 H 0.07793 0.63959 0.28107 0.0
H175 H 0.09417 0.70281 0.28345 0.0
H176 H 0.08922 0.67636 0.26331 0.0
H177 H 0.86413 0.5562 0.24879 0.0
H178 H 0.90298 0.52939 0.24991 0.0
H179 H 0.9146 0.57624 0.2355 0.0
H180 H 0.12597 0.42118 0.29509 0.0
H181 H 0.17435 0.39616 0.27775 0.0
H182 H 0.14993 0.42773 0.26598 0.0
H183 H 0.12094 0.36211 0.26393 0.0
H184 H 0.97939 0.36686 0.26808 0.0
H185 H 0.12789 0.48072 0.28004 0.0
H186 H 0.93184 0.44499 0.25856 0.0
H187 H 0.92059 0.3834 0.25549 0.0
H188 H 0.94874 0.42854 0.23997 0.0
H189 H 0.15682 0.56302 0.27455 0.0
H190 H 0.11081 0.58101 0.27301 0.0
H191 H 0.13214 0.56794 0.25477 0.0
H192 H 0.04815 0.36844 0.17181 0.0
H193 H 0.02004 0.4155 0.15753 0.0
H194 H 0.17485 0.50778 0.16788 0.0
H195 H 0.97784 0.4701 0.18094 0.0
H196 H 0.9644 0.44444 0.16036 0.0
H197 H 0.98848 0.50934 0.16389 0.0
H198 H 0.20968 0.58937 0.17821 0.0
H199 H 0.172 0.58908 0.19427 0.0
H200 H 0.17332 0.61865 0.17545 0.0
H201 H 0.16095 0.86327 0.16485 0.0
H202 H 0.1412 0.91396 0.18341 0.0
H203 H 0.11401 0.85189 0.19012 0.0
H204 H 0.0762 0.87173 0.17938 0.0
H205 H 0.01501 0.72546 0.15305 0.0
H206 H 0.15307 0.80428 0.18068 0.0
H207 H 0.96914 0.61528 0.17443 0.0
H208 H 0.9974 0.60896 0.15676 0.0
H209 H 0.96265 0.64008 0.15518 0.0
H210 H 0.18765 0.76499 0.19548 0.0
H211 H 0.16299 0.70039 0.19128 0.0
H212 H 0.14002 0.71993 0.20759 0.0
H213 H 0.00131 0.54463 0.27256 0.0
H214 H 0.05371 0.47571 0.23105 0.0
H215 H 0.0726 0.49173 0.203 0.0
H216 H 0.08479 0.61353 0.16522 0.0
H217 H 0.03203 0.68307 0.20671 0.0
H218 H 0.00798 0.66365 0.23445 0.0
H219 H 0.09077 0.32266 0.18002 0.0
H220 H 0.12055 0.38515 0.18769 0.0
H221 H 0.14581 0.3697 0.17097 0.0
C222 C 0.41645 0.15249 0.65186 0.0
C223 C 0.37863 0.12945 0.63735 0.0
C224 C 0.41868 0.0966 0.62012 0.0
C225 C 0.45502 0.14158 0.61419 0.0
C226 C 0.49079 0.14355 0.60403 0.0
C227 C 0.49027 0.0998 0.5998 0.0
C228 C 0.45399 0.05462 0.60588 0.0
C229 C 0.4185 0.05366 0.61586 0.0
C230 C 0.5289 0.19227 0.59768 0.0
C231 C 0.45252 0.00727 0.60173 0.0
C232 C 0.86509 0.15338 0.59797 0.0
C233 C 0.81676 0.12169 0.60638 0.0
C234 C 0.74937 0.13956 0.60418 0.0
C235 C 0.70993 0.09107 0.60273 0.0
C236 C 0.66276 0.0811 0.59747 0.0
C237 C 0.65505 0.12039 0.59348 0.0
C238 C 0.69419 0.16929 0.59567 0.0
C239 C 0.74081 0.1782 0.60116 0.0
C240 C 0.62141 0.02855 0.59576 0.0
C241 C 0.68711 0.21204 0.59169 0.0
C242 C 0.67006 0.0707 0.48563 0.0
C243 C 0.6371 0.02636 0.49282 0.0
C244 C 0.6018 0.02408 0.50325 0.0
C245 C 0.59934 0.06682 0.50643 0.0
C246 C 0.63173 0.11114 0.4989 0.0
C247 C 0.66657 0.11237 0.48855 0.0
C248 C 0.56744 0.97622 0.51101 0.0
C249 C 0.62992 0.15734 0.50195 0.0
C250 C 0.25674 0.92552 0.47555 0.0
C251 C 0.25935 0.96889 0.48504 0.0
C252 C 0.34641 0.01966 0.49463 0.0
C253 C 0.3481 0.9858 0.50539 0.0
C254 C 0.39207 0.99689 0.51406 0.0
C255 C 0.43444 0.04355 0.51249 0.0
C256 C 0.43207 0.07844 0.50224 0.0
C257 C 0.38823 0.06565 0.49327 0.0
C258 C 0.39343 0.95827 0.52458 0.0
C259 C 0.47608 0.12888 0.50041 0.0
C260 C 0.52669 0.10089 0.58864 0.0
C261 C 0.57228 0.11052 0.59544 0.0
C262 C 0.6074 0.11024 0.58564 0.0
C263 C 0.59692 0.09986 0.56861 0.0
C264 C 0.63154 0.09949 0.5584 0.0
C265 C 0.6206 0.0883 0.54173 0.0
C266 C 0.57466 0.07716 0.5346 0.0
C267 C 0.56311 0.06548 0.51769 0.0
C268 C 0.51695 0.05396 0.51101 0.0
C269 C 0.48203 0.05499 0.5207 0.0
C270 C 0.49317 0.06755 0.5376 0.0
C271 C 0.45951 0.07035 0.54763 0.0
C272 C 0.47044 0.08148 0.56433 0.0
C273 C 0.51565 0.09067 0.57161 0.0
C274 C 0.55071 0.08958 0.56162 0.0
C275 C 0.53947 0.078 0.5446 0.0
C276 C 0.74978 0.04055 0.48959 0.0
C277 C 0.72303 0.04309 0.47377 0.0
O278 O 0.38311 0.09246 0.62992 0.0
O279 O 0.3061 0.00952 0.48498 0.0
O280 O 0.70595 0.07537 0.47591 0.0
O281 O 0.79586 0.15068 0.60875 0.0
H282 H 0.38443 0.15796 0.62832 0.0
H283 H 0.45433 0.16834 0.64765 0.0
H284 H 0.41046 0.12441 0.66107 0.0
H285 H 0.41356 0.18253 0.65782 0.0
H286 H 0.45566 0.17519 0.61732 0.0
H287 H 0.39036 0.01917 0.6205 0.0
H288 H 0.56613 0.20032 0.60204 0.0
H289 H 0.52367 0.22286 0.60173 0.0
H290 H 0.52735 0.19053 0.58407 0.0
H291 H 0.42416 0.97578 0.6084 0.0
H292 H 0.48892 0.01099 0.60478 0.0
H293 H 0.44446 0.99911 0.58836 0.0
H294 H 0.79325 0.09011 0.59785 0.0
H295 H 0.87935 0.13055 0.59294 0.0
H296 H 0.89318 0.18178 0.60666 0.0
H297 H 0.85874 0.17214 0.58745 0.0
H298 H 0.7157 0.06094 0.60577 0.0
H299 H 0.77128 0.2155 0.60265 0.0
H300 H 0.58852 0.02423 0.60172 0.0
H301 H 0.63177 0.00266 0.60125 0.0
H302 H 0.61105 0.01846 0.58257 0.0
H303 H 0.72125 0.24792 0.59413 0.0
H304 H 0.65776 0.21061 0.5991 0.0
H305 H 0.67501 0.20953 0.57857 0.0
H306 H 0.69169 0.00601 0.47027 0.0
H307 H 0.63876 0.99355 0.49042 0.0
H308 H 0.69193 0.14626 0.48284 0.0
H309 H 0.57212 0.98094 0.52457 0.0
H310 H 0.57396 0.94618 0.50731 0.0
H311 H 0.52879 0.96529 0.5075 0.0
H312 H 0.65728 0.1887 0.49498 0.0
H313 H 0.63704 0.16745 0.51523 0.0
H314 H 0.59269 0.15085 0.49843 0.0
H315 H 0.24915 0.95824 0.49789 0.0
H316 H 0.21858 0.89382 0.47507 0.0
H317 H 0.28101 0.91363 0.48159 0.0
H318 H 0.26843 0.93567 0.46283 0.0
H319 H 0.31579 0.95033 0.50682 0.0
H320 H 0.38643 0.09161 0.48501 0.0
H321 H 0.39724 0.96938 0.5377 0.0
H322 H 0.42564 0.95459 0.52187 0.0
H323 H 0.35957 0.92187 0.52267 0.0
H324 H 0.46565 0.15449 0.49472 0.0
H325 H 0.50228 0.12607 0.49247 0.0
H326 H 0.49537 0.1446 0.51251 0.0
H327 H 0.5804 0.11799 0.60853 0.0
H328 H 0.66752 0.10768 0.56317 0.0
H329 H 0.64858 0.08828 0.53451 0.0
H330 H 0.50836 0.04481 0.49802 0.0
H331 H 0.42419 0.06366 0.54269 0.0
H332 H 0.44293 0.08272 0.57146 0.0
H333 H 0.76452 0.01561 0.48771 0.0
H334 H 0.72439 0.02617 0.49974 0.0
H335 H 0.78068 0.07758 0.49334 0.0
C336 C 0.84888 0.77347 0.84157 0.0
C337 C 0.81424 0.75664 0.82619 0.0
C338 C 0.73111 0.72304 0.83635 0.0
C339 C 0.6923 0.73189 0.83793 0.0
C340 C 0.64895 0.69775 0.84516 0.0
C341 C 0.64421 0.65335 0.85082 0.0
C342 C 0.68319 0.64391 0.84922 0.0
C343 C 0.72645 0.67903 0.84218 0.0
C344 C 0.60823 0.70914 0.84677 0.0
C345 C 0.6791 0.59662 0.85496 0.0
C346 C 0.27388 0.40444 0.82562 0.0
C347 C 0.30544 0.41647 0.81066 0.0
C348 C 0.38883 0.44962 0.82327 0.0
C349 C 0.42586 0.43884 0.82719 0.0
C350 C 0.46798 0.47152 0.8368 0.0
C351 C 0.47318 0.51627 0.84252 0.0
C352 C 0.43679 0.52835 0.83812 0.0
C353 C 0.39491 0.4949 0.8286 0.0
C354 C 0.50623 0.45763 0.84126 0.0
C355 C 0.44154 0.57606 0.8439 0.0
C356 C 0.36472 0.42103 0.9434 0.0
C357 C 0.40097 0.40981 0.93936 0.0
C358 C 0.445 0.44543 0.93288 0.0
C359 C 0.45287 0.49306 0.93031 0.0
C360 C 0.41677 0.50463 0.93448 0.0
C361 C 0.37315 0.46837 0.94099 0.0
C362 C 0.48295 0.43207 0.92859 0.0
C363 C 0.42412 0.55514 0.93188 0.0
C364 C 0.78424 0.67573 0.98767 0.0
C365 C 0.78377 0.71351 0.97599 0.0
C366 C 0.70147 0.68109 0.96272 0.0
C367 C 0.70061 0.64318 0.95339 0.0
C368 C 0.66213 0.61567 0.94172 0.0
C369 C 0.62441 0.62711 0.93905 0.0
C370 C 0.62541 0.66551 0.94833 0.0
C371 C 0.66367 0.69156 0.9602 0.0
C372 C 0.66143 0.57388 0.93245 0.0
C373 C 0.58592 0.67884 0.94581 0.0
C374 C 0.59842 0.61666 0.85836 0.0
C375 C 0.55852 0.58455 0.84791 0.0
C376 C 0.51456 0.54866 0.85419 0.0
C377 C 0.51008 0.54417 0.87133 0.0
C378 C 0.46634 0.50828 0.87801 0.0
C379 C 0.46228 0.50396 0.89487 0.0
C380 C 0.50191 0.53512 0.90572 0.0
C381 C 0.49838 0.53047 0.92287 0.0
C382 C 0.53872 0.5612 0.93333 0.0
C383 C 0.5827 0.59733 0.92713 0.0
C384 C 0.58664 0.60344 0.91 0.0
C385 C 0.6298 0.64037 0.90334 0.0
C386 C 0.63366 0.6451 0.88644 0.0
C387 C 0.59453 0.61302 0.87556 0.0
C388 C 0.55028 0.57635 0.88204 0.0
C389 C 0.54626 0.5717 0.89926 0.0
C390 C 0.28508 0.30764 0.93671 0.0
C391 C 0.30482 0.33883 0.95262 0.0
O392 O 0.77197 0.75791 0.82921 0.0
O393 O 0.73724 0.7077 0.97446 0.0
O394 O 0.32112 0.38761 0.94946 0.0
O395 O 0.34789 0.41509 0.81462 0.0
H396 H 0.80463 0.71872 0.82262 0.0
H397 H 0.88294 0.77281 0.83915 0.0
H398 H 0.83091 0.74862 0.85181 0.0
H399 H 0.85889 0.81127 0.84546 0.0
H400 H 0.69619 0.76591 0.83347 0.0
H401 H 0.75617 0.67157 0.84133 0.0
H402 H 0.57542 0.68245 0.83913 0.0
H403 H 0.619 0.74676 0.84284 0.0
H404 H 0.5975 0.70527 0.85969 0.0
H405 H 0.71083 0.59293 0.85156 0.0
H406 H 0.64478 0.56479 0.84961 0.0
H407 H 0.67714 0.59508 0.8685 0.0
H408 H 0.31516 0.45365 0.80649 0.0
H409 H 0.2392 0.40413 0.82225 0.0
H410 H 0.29376 0.43246 0.83558 0.0
H411 H 0.26479 0.36808 0.83042 0.0
H412 H 0.42111 0.40407 0.82298 0.0
H413 H 0.36701 0.50434 0.82565 0.0
H414 H 0.50887 0.45466 0.85477 0.0
H415 H 0.54277 0.48676 0.8375 0.0
H416 H 0.4976 0.42223 0.83538 0.0
H417 H 0.41207 0.58182 0.83839 0.0
H418 H 0.47775 0.60729 0.84079 0.0
H419 H 0.4398 0.57633 0.85745 0.0
H420 H 0.33556 0.33508 0.95817 0.0
H421 H 0.39528 0.37342 0.94108 0.0
H422 H 0.34509 0.47674 0.94414 0.0
H423 H 0.48852 0.43602 0.91523 0.0
H424 H 0.4721 0.39392 0.93186 0.0
H425 H 0.51872 0.45761 0.93508 0.0
H426 H 0.39253 0.55833 0.9358 0.0
H427 H 0.42932 0.56398 0.9187 0.0
H428 H 0.45791 0.58283 0.93887 0.0
H429 H 0.79529 0.70791 0.96386 0.0
H430 H 0.82226 0.68255 0.98971 0.0
H431 H 0.76098 0.63812 0.98234 0.0
H432 H 0.7697 0.67719 -0.00033 0.0
H433 H 0.72919 0.63411 0.95535 0.0
H434 H 0.6645 0.72068 0.96752 0.0
H435 H 0.66759 0.58305 0.91934 0.0
H436 H 0.62498 0.54005 0.93308 0.0
H437 H 0.6902 0.56611 0.93729 0.0
H438 H 0.59553 0.71366 0.95235 0.0
H439 H 0.551 0.64912 0.95041 0.0
H440 H 0.57944 0.68243 0.93254 0.0
H441 H 0.56171 0.58756 0.83474 0.0
H442 H 0.43469 0.48298 0.87029 0.0
H443 H 0.42772 0.47564 0.89929 0.0
H444 H 0.53593 0.55671 0.94648 0.0
H445 H 0.66114 0.66594 0.91113 0.0
H446 H 0.66783 0.67408 0.88201 0.0
H447 H 0.27131 0.26842 0.93932 0.0
H448 H 0.31458 0.31948 0.92792 0.0
H449 H 0.25467 0.31125 0.93082 0.0
H450 H 0.07959 0.20189 0.09178 0.0
H451 H 0.92402 0.14896 0.08265 0.0
H452 H 0.92754 0.20388 0.10496 0.0
H453 H 0.08356 0.21426 0.13544 0.0
H454 H 0.14253 0.26992 0.13669 0.0
H455 H 0.12748 0.22603 0.12015 0.0
H456 H 0.14586 0.29361 0.09904 0.0
H457 H 0.16096 0.33772 0.11552 0.0
H458 H 0.11452 0.32802 0.0999 0.0
H459 H 0.94771 0.26269 0.12887 0.0
H460 H 0.98357 0.32304 0.15201 0.0
H461 H 0.12702 0.34156 0.14401 0.0
C462 C 0.04619 0.20165 0.09453 0.0
C463 C 0.00143 0.17091 0.08558 0.0
C464 C 0.9587 0.17224 0.08936 0.0
C465 C 0.96033 0.20324 0.10201 0.0
C466 C 0.0051 0.23315 0.11057 0.0
C467 C 0.04734 0.23293 0.1069 0.0
C468 C 0.091 0.26938 0.11769 0.0
C469 C 0.11238 0.24333 0.12811 0.0
C470 C 0.1304 0.30956 0.10742 0.0
C471 C 0.06661 0.28967 0.12819 0.0
C472 C 0.01702 0.26815 0.12395 0.0
C473 C 0.98653 0.2799 0.13227 0.0
C474 C 0.00721 0.31417 0.14538 0.0
C475 C 0.05788 0.33635 0.15005 0.0
C476 C 0.08802 0.32464 0.14101 0.0
H477 H 0.89826 0.02006 0.41147 0.0
H478 H 0.97663 0.17889 0.40982 0.0
H479 H 0.91168 0.18079 0.42493 0.0
H480 H 0.77031 0.00126 0.40916 0.0
H481 H 0.74916 0.95213 0.42346 0.0
H482 H 0.79699 0.96243 0.40996 0.0
H483 H 0.85339 0.96916 0.43507 0.0
H484 H 0.80611 0.95944 0.44864 0.0
H485 H 0.86614 0.01341 0.4513 0.0
H486 H 0.84708 0.16709 0.44376 0.0
H487 H 0.78395 0.13831 0.4642 0.0
H488 H 0.74545 0.98798 0.45368 0.0
C489 C 0.90071 0.05504 0.41376 0.0
C490 C 0.94216 0.0993 0.40935 0.0
C491 C 0.94504 0.14455 0.41304 0.0
C492 C 0.90827 0.146 0.42157 0.0
C493 C 0.86879 0.10189 0.42629 0.0
C494 C 0.86442 0.05716 0.42241 0.0
C495 C 0.82103 0.01564 0.43045 0.0
C496 C 0.78206 0.98081 0.41748 0.0
C497 C 0.83769 0.98781 0.44205 0.0
C498 C 0.80284 0.04424 0.43989 0.0
C499 C 0.83065 0.09386 0.43715 0.0
C500 C 0.824 0.12821 0.44563 0.0
C501 C 0.78796 0.11145 0.45721 0.0
C502 C 0.7585 0.06064 0.46011 0.0
C503 C 0.76622 0.02678 0.45128 0.0
H504 H 0.92479 0.00127 0.77381 0.0
H505 H 0.9799 0.93246 0.74149 0.0
H506 H 0.94299 0.85856 0.75807 0.0
H507 H 0.94594 0.9536 0.81112 0.0
H508 H 0.89099 0.94461 0.82017 0.0
H509 H 0.92084 0.99208 0.80555 0.0
H510 H 0.83961 0.95542 0.78766 0.0
H511 H 0.80952 0.90779 0.80222 0.0
H512 H 0.80922 0.89191 0.78099 0.0
H513 H 0.90169 0.79263 0.77826 0.0
H514 H 0.85793 0.73859 0.80091 0.0
H515 H 0.82964 0.84959 0.82024 0.0
C516 C 0.9289 0.97061 0.77015 0.0
C517 C 0.95528 0.97284 0.75629 0.0
C518 C 0.96002 0.93188 0.75204 0.0
C519 C 0.9391 0.8896 0.76137 0.0
C520 C 0.91356 0.88871 0.77495 0.0
C521 C 0.90835 0.92805 0.77936 0.0
C522 C 0.87968 0.91772 0.7947 0.0
C523 C 0.91126 0.95417 0.80872 0.0
C524 C 0.83166 0.91824 0.79118 0.0
C525 C 0.86966 0.86646 0.79819 0.0
C526 C 0.8895 0.85044 0.78663 0.0
C527 C 0.88565 0.80458 0.78734 0.0
C528 C 0.86069 0.77414 0.8002 0.0
C529 C 0.83962 0.78953 0.81212 0.0
C530 C 0.84464 0.83655 0.81113 0.0
H531 H 0.01209 0.96761 0.09697 0.0
H532 H 0.16149 0.08374 0.08972 0.0
H533 H 0.19242 0.04792 0.11054 0.0
H534 H 0.02733 0.95934 0.14081 0.0
H535 H 0.98829 0.89361 0.14062 0.0
H536 H 0.97795 0.92902 0.12538 0.0
H537 H 0.9848 0.87641 0.10239 0.0
H538 H 0.99548 0.84104 0.11755 0.0
H539 H 0.03908 0.87116 0.102 0.0
H540 H 0.20717 0.99899 0.13183 0.0
H541 H 0.20464 0.94079 0.15251 0.0
H542 H 0.04573 0.85666 0.14589 0.0
C543 C 0.05129 0.98571 0.09983 0.0
C544 C 0.08441 0.02852 0.09174 0.0
C545 C 0.13544 0.05095 0.09578 0.0
C546 C 0.15337 0.03087 0.10758 0.0
C547 C 0.11977 0.98839 0.11521 0.0
C548 C 0.06981 0.96615 0.11156 0.0
C549 C 0.04158 0.92054 0.12145 0.0
C550 C 0.00674 0.92598 0.13274 0.0
C551 C 0.0136 0.87458 0.11017 0.0
C552 C 0.08352 0.92054 0.1312 0.0
C553 C 0.1283 0.95997 0.12741 0.0
C554 C 0.17235 0.96785 0.13485 0.0
C555 C 0.17058 0.93456 0.14651 0.0
C556 C 0.12513 0.89369 0.15052 0.0
C557 C 0.08106 0.88701 0.14283 0.0
H558 H 0.15656 0.06732 0.41261 0.0
H559 H 0.02657 0.02062 0.44001 0.0
H560 H 0.06586 0.00176 0.46358 0.0
H561 H 0.16905 0.96899 0.42416 0.0
H562 H 0.23523 0.00069 0.42486 0.0
H563 H 0.20267 0.02128 0.41155 0.0
H564 H 0.25004 0.1089 0.42538 0.0
H565 H 0.28456 0.08785 0.43748 0.0
H566 H 0.25339 0.11421 0.44754 0.0
H567 H 0.11587 0.98004 0.48291 0.0
H568 H 0.17266 0.95658 0.49642 0.0
H569 H 0.2668 0.01172 0.45532 0.0
C570 C 0.13752 0.05527 0.42389 0.0
C571 C 0.08965 0.04738 0.42495 0.0
C572 C 0.06403 0.02835 0.43935 0.0
C573 C 0.086 0.01752 0.45272 0.0
C574 C 0.13297 0.02459 0.45122 0.0
C575 C 0.15844 0.04298 0.43714 0.0
C576 C 0.20481 0.03985 0.43759 0.0
C577 C 0.20278 0.00566 0.42372 0.0
C578 C 0.25089 0.09082 0.43694 0.0
C579 C 0.20181 0.01764 0.45416 0.0
C580 C 0.16029 0.00923 0.46189 0.0
C581 C 0.14887 0.98708 0.47708 0.0
C582 C 0.18116 0.97378 0.48463 0.0
C583 C 0.22419 0.98272 0.47696 0.0
C584 C 0.23432 0.0048 0.46151 0.0
H585 H 0.14844 0.14983 0.76692 0.0
H586 H 0.11164 0.2199 0.72774 0.0
H587 H 0.1653 0.30075 0.74129 0.0
H588 H 0.15835 0.22672 0.80122 0.0
H589 H 0.21106 0.22651 0.81029 0.0
H590 H 0.16749 0.17576 0.79722 0.0
H591 H 0.24244 0.1913 0.78016 0.0
H592 H 0.28339 0.2443 0.7929 0.0
H593 H 0.27856 0.25014 0.77106 0.0
H594 H 0.21479 0.3719 0.76026 0.0
H595 H 0.26638 0.43209 0.78221 0.0
H596 H 0.27776 0.31832 0.80828 0.0
C597 C 0.15184 0.18236 0.76131 0.0
C598 C 0.12424 0.17887 0.74677 0.0
C599 C 0.13087 0.22198 0.7393 0.0
C600 C 0.16156 0.26799 0.74681 0.0
C601 C 0.18655 0.27027 0.76153 0.0
C602 C 0.18303 0.22889 0.76858 0.0
C603 C 0.21581 0.24235 0.78413 0.0
C604 C 0.18634 0.21621 0.79907 0.0
C605 C 0.25753 0.23137 0.78192 0.0
C606 C 0.23544 0.29715 0.78523 0.0
C607 C 0.2184 0.31241 0.77196 0.0
C608 C 0.22928 0.36075 0.77057 0.0
C609 C 0.2585 0.39461 0.78309 0.0
C610 C 0.27662 0.38 0.79679 0.0
C611 C 0.26502 0.33059 0.7978 0.0
H612 H 0.96125 0.05183 0.67347 0.0
H613 H 0.86222 0.0515 0.70877 0.0
H614 H 0.81005 0.05582 0.68628 0.0
H615 H 0.96266 0.13929 0.64983 0.0
H616 H 0.96401 0.11403 0.63017 0.0
H617 H 0.9877 0.09924 0.64831 0.0
H618 H 0.92886 0.00646 0.64227 0.0
H619 H 0.90559 0.02083 0.62385 0.0
H620 H 0.86386 0.98324 0.639 0.0
H621 H 0.77767 0.07551 0.66099 0.0
H622 H 0.7646 0.10468 0.6345 0.0
H623 H 0.88343 0.09058 0.61519 0.0
C624 C 0.92738 0.05035 0.6764 0.0
C625 C 0.91561 0.05097 0.69286 0.0
C626 C 0.87184 0.05078 0.69624 0.0
C627 C 0.84189 0.05314 0.68354 0.0
C628 C 0.85592 0.0552 0.6675 0.0
C629 C 0.89715 0.05294 0.66384 0.0
C630 C 0.90714 0.06152 0.64581 0.0
C631 C 0.9584 0.10617 0.64341 0.0
C632 C 0.90097 0.01525 0.63723 0.0
C633 C 0.86674 0.07156 0.64016 0.0
C634 C 0.83722 0.06703 0.6528 0.0
C635 C 0.8001 0.07848 0.65091 0.0
C636 C 0.79331 0.09555 0.63577 0.0
C637 C 0.824 0.10191 0.62267 0.0
C638 C 0.85995 0.08776 0.62487 0.0
H639 H 0.90139 0.94182 0.04007 0.0
H640 H 0.01173 0.0217 0.00501 0.0
H641 H 0.96778 0.95262 0.98489 0.0
H642 H 0.8976 0.83163 0.03138 0.0
H643 H 0.83319 0.79188 0.03451 0.0
H644 H 0.8667 0.85044 0.04519 0.0
H645 H 0.80582 0.87725 0.03293 0.0
H646 H 0.77115 0.81626 0.02397 0.0
H647 H 0.79038 0.86815 0.0111 0.0
H648 H 0.916 0.87299 0.96952 0.0
H649 H 0.86013 0.78725 0.95997 0.0
H650 H 0.78607 0.75716 0.00567 0.0
C651 C 0.91486 0.94528 0.02789 0.0
C652 C 0.95847 0.98757 0.02367 0.0
C653 C 0.97735 0.98999 0.00812 0.0
C654 C 0.95273 0.95101 0.99668 0.0
C655 C 0.91018 0.90932 0.00124 0.0
C656 C 0.89138 0.90602 0.01649 0.0
C657 C 0.84938 0.8546 0.01916 0.0
C658 C 0.86253 0.83075 0.0334 0.0
C659 C 0.80138 0.8542 0.02197 0.0
C660 C 0.84669 0.83013 0.00289 0.0
C661 C 0.88214 0.86223 0.99276 0.0
C662 C 0.88786 0.84755 0.97731 0.0
C663 C 0.85613 0.7988 0.97202 0.0
C664 C 0.81925 0.76534 0.98216 0.0
C665 C 0.81439 0.78159 0.99774 0.0
H666 H 0.94273 0.9136 0.34876 0.0
H667 H 0.09999 0.97677 0.35804 0.0
H668 H 0.09652 0.9075 0.34296 0.0
H669 H 0.91009 0.79236 0.3545 0.0
H670 H 0.86261 0.76621 0.33832 0.0
H671 H 0.87772 0.82353 0.34812 0.0
H672 H 0.89427 0.86513 0.31997 0.0
H673 H 0.87877 0.80772 0.31003 0.0
H674 H 0.93729 0.86173 0.30698 0.0
H675 H 0.07492 0.82706 0.3304 0.0
H676 H 0.0369 0.74214 0.31956 0.0
H677 H 0.89459 0.73269 0.31635 0.0
C678 C 0.97656 0.91336 0.34729 0.0
C679 C 0.02161 0.95061 0.35459 0.0
C680 C 0.06503 0.94875 0.35254 0.0
C681 C 0.0635 0.90955 0.34397 0.0
C682 C 0.0184 0.8728 0.33729 0.0
C683 C 0.97578 0.8746 0.3386 0.0
C684 C 0.93176 0.82889 0.33099 0.0
C685 C 0.8933 0.80112 0.34375 0.0
C686 C 0.9092 0.84164 0.3161 0.0
C687 C 0.95611 0.80044 0.3258 0.0
C688 C 0.00612 0.82659 0.3295 0.0
C689 C 0.03593 0.80652 0.32714 0.0
C690 C 0.01398 0.75822 0.32099 0.0
C691 C 0.9627 0.73041 0.31723 0.0
C692 C 0.93376 0.75256 0.31924 0.0
H693 H 0.16519 0.14491 0.68129 0.0
H694 H 0.09212 0.98677 0.68543 0.0
H695 H 0.1533 0.9846 0.66828 0.0
H696 H 0.20399 0.14872 0.63831 0.0
H697 H 0.2619 0.2042 0.64266 0.0
H698 H 0.20852 0.19282 0.65337 0.0
H699 H 0.25649 0.2039 0.68112 0.0
H700 H 0.30976 0.2148 0.67053 0.0
H701 H 0.28399 0.16664 0.68516 0.0
H702 H 0.22819 0.0003 0.65456 0.0
H703 H 0.30912 0.03214 0.64308 0.0
H704 H 0.33326 0.18004 0.64642 0.0
C705 C 0.16128 0.10973 0.67818 0.0
C706 C 0.12381 0.06599 0.68466 0.0
C707 C 0.12045 0.02074 0.68059 0.0
C708 C 0.15501 0.01909 0.67083 0.0
C709 C 0.19246 0.06295 0.66509 0.0
C710 C 0.19552 0.1074 0.6684 0.0
C711 C 0.24147 0.14942 0.66165 0.0
C712 C 0.22816 0.17531 0.6482 0.0
C713 C 0.27489 0.18581 0.67544 0.0
C714 C 0.26447 0.12173 0.65458 0.0
C715 C 0.23541 0.07188 0.65664 0.0
C716 C 0.2507 0.0391 0.65244 0.0
C717 C 0.2969 0.05767 0.6459 0.0
C718 C 0.32719 0.10865 0.6434 0.0
C719 C 0.31038 0.14085 0.64778 0.0
H720 H 0.14752 0.17466 0.02529 0.0
H721 H 0.0391 0.21685 0.01232 0.0
H722 H 0.09413 0.27362 0.99206 0.0
H723 H 0.25749 0.29503 0.02016 0.0
H724 H 0.29063 0.2683 0.01156 0.0
H725 H 0.24495 0.2351 0.02623 0.0
H726 H 0.19976 0.16148 0.00556 0.0
H727 H 0.24504 0.19448 0.9908 0.0
H728 H 0.18087 0.17101 0.98541 0.0
H729 H 0.15807 0.32064 0.97166 0.0
H730 H 0.22639 0.35462 0.95284 0.0
H731 H 0.29167 0.28037 0.97901 0.0
C732 C 0.13565 0.19656 0.01847 0.0
C733 C 0.08906 0.19149 0.0205 0.0
C734 C 0.07469 0.2202 0.01105 0.0
C735 C 0.10572 0.25262 -0.00048 0.0
C736 C 0.15095 0.25591 0.99761 0.0
C737 C 0.16593 0.22876 0.00686 0.0
C738 C 0.21473 0.23642 0.0017 0.0
C739 C 0.25429 0.26014 0.01575 0.0
C740 C 0.20977 0.18797 0.9955 0.0
C741 C 0.22452 0.27151 0.9879 0.0
C742 C 0.18756 0.28268 0.98581 0.0
C743 C 0.18759 0.31274 0.97334 0.0
C744 C 0.22645 0.33186 0.96273 0.0
C745 C 0.26471 0.32084 0.96469 0.0
C746 C 0.26345 0.29018 0.97744 0.0
H747 H 0.12152 0.24243 0.36459 0.0
H748 H 0.02029 0.10718 0.33763 0.0
H749 H 0.02135 0.15503 0.31367 0.0
H750 H 0.06938 0.31177 0.34995 0.0
H751 H 0.12717 0.36813 0.34872 0.0
H752 H 0.12114 0.32324 0.3634 0.0
H753 H 0.19467 0.32064 0.35152 0.0
H754 H 0.20119 0.36582 0.33685 0.0
H755 H 0.19348 0.30802 0.32991 0.0
H756 H 0.02966 0.21779 0.29318 0.0
H757 H 0.04682 0.29113 0.27742 0.0
H758 H 0.14283 0.38477 0.31773 0.0
C759 C 0.09992 0.22267 0.35361 0.0
C760 C 0.07077 0.17093 0.35305 0.0
C761 C 0.04299 0.14675 0.33841 0.0
C762 C 0.04332 0.1736 0.32471 0.0
C763 C 0.07178 0.22455 0.32581 0.0
C764 C 0.09984 0.24882 0.33985 0.0
C765 C 0.12615 0.30388 0.33804 0.0
C766 C 0.10997 0.32816 0.35078 0.0
C767 C 0.18219 0.32587 0.33914 0.0
C768 C 0.10788 0.30681 0.32088 0.0
C769 C 0.07667 0.26067 0.31401 0.0
C770 C 0.05425 0.25411 0.2984 0.0
C771 C 0.06405 0.29585 0.28957 0.0
C772 C 0.09584 0.3435 0.29642 0.0
C773 C 0.11822 0.34881 0.31223 0.0
loop_
_geom_bond_atom_site_label_1
_geom_bond_atom_site_label_2
_geom_bond_distance
_geom_bond_site_symmetry_2
_ccdc_geom_bond_type
Mn0 O5 2.095 . S
Mn0 O15 2.162 . S
Mn0 O16 2.297 1_545 S
Mn0 O24 2.385 1_545 S
Mn0 O25 2.190 1_455 S
Mn0 O26 2.094 . S
Mn1 O6 2.121 . S
Mn1 N8 2.257 1_455 S
Mn1 N17 2.282 1_455 S
Mn1 O25 2.221 1_455 S
Mn1 O27 2.117 . S
C2 O24 1.234 1_645 S
C2 O25 1.276 . S
C3 O15 1.281 1_565 S
C3 O16 1.236 . S
C4 O26 1.240 . S
C4 O27 1.264 . S
O5 Mn0 2.095 . S
O5 C14 1.250 . S
O6 Mn1 2.121 . S
O6 C14 1.258 . S
C7 N8 1.326 . S
C7 C11 1.460 . S
C7 H13 0.929 . S
N8 Mn1 2.257 1_655 S
N8 C7 1.326 . S
N8 C12 1.362 . S
C9 C10 1.258 . S
C9 C12 1.431 . S
C9 C29 1.449 1_554 S
C10 C9 1.258 . S
C10 C11 1.477 . S
C10 H30 0.931 . S
C11 C7 1.460 . S
C11 C10 1.477 . S
C11 H31 0.930 . S
C12 N8 1.362 . S
C12 C9 1.431 . S
C12 C22 1.476 . S
H13 C7 0.929 . S
C14 O5 1.250 . S
C14 O6 1.258 . S
O15 Mn0 2.162 . S
O15 C3 1.281 1_545 S
O16 Mn0 2.297 1_565 S
O16 C3 1.236 . S
N17 Mn1 2.282 1_655 S
N17 C18 1.328 1_654 S
N17 C22 1.318 . S
C18 N17 1.328 1_456 S
C18 C19 1.457 1_455 S
C18 H23 0.929 1_556 S
C19 C18 1.457 1_655 S
C19 C20 1.291 . S
C19 H32 0.931 1_655 S
C20 C19 1.291 . S
C20 C21 1.373 . S
C20 H33 0.929 . S
C21 C20 1.373 . S
C21 C22 1.396 1_556 S
C21 C28 1.403 . S
C22 C12 1.476 . S
C22 N17 1.318 . S
C22 C21 1.396 1_554 S
H23 C18 0.929 1_554 S
O24 Mn0 2.385 1_565 S
O24 C2 1.234 1_465 S
O25 Mn0 2.190 1_655 S
O25 Mn1 2.221 1_655 S
O25 C2 1.276 . S
O26 Mn0 2.094 . S
O26 C4 1.240 . S
O27 Mn1 2.117 . S
O27 C4 1.264 . S
C28 C21 1.403 . S
C28 C29 1.399 . S
C28 H34 0.929 . S
C29 C9 1.449 1_556 S
C29 C28 1.399 . S
C29 H35 0.930 . S
H30 C10 0.931 . S
H31 C11 0.930 . S
H32 C19 0.931 1_455 S
H33 C20 0.929 . S
H34 C28 0.929 . S
H35 C29 0.930 . S
Mn36 O41 2.095 . S
Mn36 O51 2.162 1_445 S
Mn36 O52 2.297 . S
Mn36 O60 2.385 . S
Mn36 O61 2.209 . S
Mn36 O62 2.094 1_455 S
Mn37 O42 2.121 . S
Mn37 N44 2.257 . S
Mn37 N53 2.282 . S
Mn37 O61 2.215 . S
Mn37 O63 2.117 1_455 S
C38 O60 1.234 . S
C38 O61 1.283 . S
C39 O51 1.281 1_455 S
C39 O52 1.236 1_565 S
C40 O62 1.240 . S
C40 O63 1.264 . S
O41 Mn36 2.095 . S
O41 C50 1.250 . S
O42 Mn37 2.121 . S
O42 C50 1.258 . S
C43 N44 1.326 . S
C43 C47 1.460 . S
C43 H49 0.929 . S
N44 Mn37 2.257 . S
N44 C43 1.326 . S
N44 C48 1.362 . S
C45 C46 1.258 . S
C45 C48 1.431 . S
C45 C65 1.449 . S
C46 C45 1.258 . S
C46 C47 1.477 . S
C46 H66 0.931 . S
C47 C43 1.460 . S
C47 C46 1.477 . S
C47 H67 0.930 . S
C48 N44 1.362 . S
C48 C45 1.431 . S
C48 C58 1.476 . S
H49 C43 0.929 . S
C50 O41 1.250 . S
C50 O42 1.258 . S
O51 Mn36 2.162 1_665 S
O51 C39 1.281 1_655 S
O52 Mn36 2.297 . S
O52 C39 1.236 1_545 S
N53 Mn37 2.282 . S
N53 C54 1.328 . S
N53 C58 1.318 . S
C54 N53 1.328 . S
C54 C55 1.457 . S
C54 H59 0.929 . S
C55 C54 1.457 . S
C55 C56 1.291 . S
C55 H68 0.931 . S
C56 C55 1.291 . S
C56 C57 1.373 . S
C56 H69 0.929 . S
C57 C56 1.373 . S
C57 C58 1.396 . S
C57 C64 1.403 . S
C58 C48 1.476 . S
C58 N53 1.318 . S
C58 C57 1.396 . S
H59 C54 0.929 . S
O60 Mn36 2.385 . S
O60 C38 1.234 . S
O61 Mn36 2.209 . S
O61 Mn37 2.215 . S
O61 C38 1.283 . S
O62 Mn36 2.094 1_655 S
O62 C40 1.240 . S
O63 Mn37 2.117 1_655 S
O63 C40 1.264 . S
C64 C57 1.403 . S
C64 C65 1.399 . S
C64 H70 0.929 . S
C65 C45 1.449 . S
C65 C64 1.399 . S
C65 H71 0.930 . S
H66 C46 0.931 . S
H67 C47 0.930 . S
H68 C55 0.931 . S
H69 C56 0.929 . S
H70 C64 0.929 . S
H71 C65 0.930 . S
Mn72 O77 2.095 1_455 S
Mn72 O87 2.162 . S
Mn72 O88 2.297 . S
Mn72 O96 2.385 . S
Mn72 O97 2.209 . S
Mn72 O98 2.094 1_545 S
Mn73 O78 2.121 . S
Mn73 N80 2.257 1_655 S
Mn73 N89 2.282 1_655 S
Mn73 O97 2.215 1_655 S
Mn73 O99 2.117 . S
C74 O96 1.234 . S
C74 O97 1.283 . S
C75 O87 1.281 . S
C75 O88 1.236 . S
C76 O98 1.240 1_655 S
C76 O99 1.264 1_565 S
O77 Mn72 2.095 1_655 S
O77 C86 1.250 . S
O78 Mn73 2.121 . S
O78 C86 1.258 . S
C79 N80 1.326 . S
C79 C83 1.460 . S
C79 H85 0.929 1_455 S
N80 Mn73 2.257 1_455 S
N80 C79 1.326 . S
N80 C84 1.362 . S
C81 C82 1.258 . S
C81 C84 1.431 . S
C81 C101 1.449 . S
C82 C81 1.258 . S
C82 C83 1.477 . S
C82 H102 0.931 . S
C83 C79 1.460 . S
C83 C82 1.477 . S
C83 H103 0.930 . S
C84 N80 1.362 . S
C84 C81 1.431 . S
C84 C94 1.476 . S
H85 C79 0.929 1_655 S
C86 O77 1.250 . S
C86 O78 1.258 . S
O87 Mn72 2.162 . S
O87 C75 1.281 . S
O88 Mn72 2.297 . S
O88 C75 1.236 . S
N89 Mn73 2.282 1_455 S
N89 C90 1.328 . S
N89 C94 1.318 . S
C90 N89 1.328 . S
C90 C91 1.457 . S
C90 H95 0.929 . S
C91 C90 1.457 . S
C91 C92 1.291 . S
C91 H104 0.931 . S
C92 C91 1.291 . S
C92 C93 1.373 . S
C92 H105 0.929 . S
C93 C92 1.373 . S
C93 C94 1.396 . S
C93 C100 1.403 . S
C94 C84 1.476 . S
C94 N89 1.318 . S
C94 C93 1.396 . S
H95 C90 0.929 . S
O96 Mn72 2.385 . S
O96 C74 1.234 . S
O97 Mn72 2.209 . S
O97 Mn73 2.215 1_455 S
O97 C74 1.283 . S
O98 Mn72 2.094 1_565 S
O98 C76 1.240 1_455 S
O99 Mn73 2.117 . S
O99 C76 1.264 1_545 S
C100 C93 1.403 . S
C100 C101 1.399 . S
C100 H106 0.929 . S
C101 C81 1.449 . S
C101 C100 1.399 . S
C101 H107 0.930 . S
H102 C82 0.931 . S
H103 C83 0.930 . S
H104 C91 0.931 . S
H105 C92 0.929 . S
H106 C100 0.929 . S
H107 C101 0.930 . S
C108 C109 1.560 1_655 S
C108 H169 0.959 . S
C108 H170 0.959 . S
C108 H171 0.960 . S
C109 C108 1.560 1_455 S
C109 O164 1.426 1_455 S
C109 H168 0.980 . S
C110 C111 1.407 . S
C110 C115 1.418 1_455 S
C110 O164 1.334 1_455 S
C111 C110 1.407 . S
C111 C112 1.360 . S
C111 H172 0.929 . S
C112 C111 1.360 . S
C112 C113 1.401 . S
C112 C116 1.527 . S
C113 C112 1.401 . S
C113 C114 1.405 1_455 S
C113 C146 1.587 . S
C114 C113 1.405 1_655 S
C114 C115 1.332 . S
C114 C117 1.496 . S
C115 C110 1.418 1_655 S
C115 C114 1.332 . S
C115 H173 0.929 . S
C116 C112 1.527 . S
C116 H174 0.959 . S
C116 H175 0.961 . S
C116 H176 0.961 . S
C117 C114 1.496 . S
C117 H177 0.960 . S
C117 H178 0.960 . S
C117 H179 0.961 . S
C118 C119 1.517 . S
C118 H181 0.961 . S
C118 H182 0.960 . S
C118 H183 0.959 . S
C119 C118 1.517 . S
C119 O167 1.468 . S
C119 H180 0.980 . S
C120 C121 1.349 . S
C120 C125 1.367 . S
C120 O167 1.408 . S
C121 C120 1.349 . S
C121 C122 1.407 . S
C121 H184 0.930 . S
C122 C121 1.407 . S
C122 C123 1.449 . S
C122 C126 1.535 1_455 S
C123 C122 1.449 . S
C123 C124 1.384 . S
C123 C148 1.553 . S
C124 C123 1.384 . S
C124 C125 1.364 . S
C124 C127 1.450 . S
C125 C120 1.367 . S
C125 C124 1.364 . S
C125 H185 0.931 . S
C126 C122 1.535 1_655 S
C126 H186 0.959 . S
C126 H187 0.961 . S
C126 H188 0.959 . S
C127 C124 1.450 . S
C127 H189 0.960 . S
C127 H190 0.960 . S
C127 H191 0.960 . S
C128 C129 1.309 . S
C128 C133 1.304 . S
C128 O166 1.435 . S
C129 C128 1.309 . S
C129 C130 1.476 . S
C129 H193 0.930 . S
C130 C129 1.476 . S
C130 C131 1.400 . S
C130 C134 1.567 1_455 S
C131 C130 1.400 . S
C131 C132 1.373 . S
C131 C153 1.432 . S
C132 C131 1.373 . S
C132 C133 1.339 . S
C132 C135 1.530 . S
C133 C128 1.304 . S
C133 C132 1.339 . S
C133 H194 0.930 . S
C134 C130 1.567 1_655 S
C134 H195 0.961 . S
C134 H196 0.960 . S
C134 H197 0.958 . S
C135 C132 1.530 . S
C135 H198 0.961 . S
C135 H199 0.960 . S
C135 H200 0.960 . S
C136 C137 1.530 . S
C136 H202 0.961 . S
C136 H203 0.961 1_455 S
C136 H204 0.959 1_455 S
C137 C136 1.530 . S
C137 O165 1.412 . S
C137 H201 0.980 . S
C138 C139 1.288 1_455 S
C138 C143 1.377 . S
C138 O165 1.393 . S
C139 C138 1.288 1_655 S
C139 C140 1.369 . S
C139 H205 0.932 . S
C140 C139 1.369 . S
C140 C141 1.398 1_655 S
C140 C144 1.527 . S
C141 C140 1.398 1_455 S
C141 C142 1.380 . S
C141 C155 1.497 . S
C142 C141 1.380 . S
C142 C143 1.383 . S
C142 C145 1.603 . S
C143 C138 1.377 . S
C143 C142 1.383 . S
C143 H206 0.929 . S
C144 C140 1.527 . S
C144 H207 0.961 . S
C144 H208 0.959 . S
C144 H209 0.959 . S
C145 C142 1.603 . S
C145 H210 0.960 . S
C145 H211 0.962 . S
C145 H212 0.961 . S
C146 C113 1.587 . S
C146 C147 1.360 . S
C146 C159 1.412 . S
C147 C146 1.360 . S
C147 C148 1.365 . S
C147 H213 0.929 . S
C148 C123 1.553 . S
C148 C147 1.365 . S
C148 C149 1.404 . S
C149 C148 1.404 . S
C149 C150 1.395 . S
C149 C160 1.451 . S
C150 C149 1.395 . S
C150 C151 1.322 . S
C150 H214 0.930 . S
C151 C150 1.322 . S
C151 C152 1.459 . S
C151 H215 0.929 . S
C152 C151 1.459 . S
C152 C153 1.445 . S
C152 C161 1.395 . S
C153 C131 1.432 . S
C153 C152 1.445 . S
C153 C154 1.370 . S
C154 C153 1.370 . S
C154 C155 1.438 . S
C154 H216 0.930 . S
C155 C141 1.497 . S
C155 C154 1.438 . S
C155 C156 1.360 . S
C156 C155 1.360 . S
C156 C157 1.401 . S
C156 C161 1.446 . S
C157 C156 1.401 . S
C157 C158 1.347 . S
C157 H217 0.929 . S
C158 C157 1.347 . S
C158 C159 1.455 . S
C158 H218 0.930 . S
C159 C146 1.412 . S
C159 C158 1.455 . S
C159 C160 1.331 . S
C160 C149 1.451 . S
C160 C159 1.331 . S
C160 C161 1.497 . S
C161 C152 1.395 . S
C161 C156 1.446 . S
C161 C160 1.497 . S
C162 C163 1.582 . S
C162 H219 0.962 . S
C162 H220 0.959 . S
C162 H221 0.958 . S
C163 C162 1.582 . S
C163 O166 1.458 . S
C163 H192 0.980 . S
O164 C109 1.426 1_655 S
O164 C110 1.334 1_655 S
O165 C137 1.412 . S
O165 C138 1.393 . S
O166 C128 1.435 . S
O166 C163 1.458 . S
O167 C119 1.468 . S
O167 C120 1.408 . S
H168 C109 0.980 . S
H169 C108 0.959 . S
H170 C108 0.959 . S
H171 C108 0.960 . S
H172 C111 0.929 . S
H173 C115 0.929 . S
H174 C116 0.959 . S
H175 C116 0.961 . S
H176 C116 0.961 . S
H177 C117 0.960 . S
H178 C117 0.960 . S
H179 C117 0.961 . S
H180 C119 0.980 . S
H181 C118 0.961 . S
H182 C118 0.960 . S
H183 C118 0.959 . S
H184 C121 0.930 . S
H185 C125 0.931 . S
H186 C126 0.959 . S
H187 C126 0.961 . S
H188 C126 0.959 . S
H189 C127 0.960 . S
H190 C127 0.960 . S
H191 C127 0.960 . S
H192 C163 0.980 . S
H193 C129 0.930 . S
H194 C133 0.930 . S
H195 C134 0.961 . S
H196 C134 0.960 . S
H197 C134 0.958 . S
H198 C135 0.961 . S
H199 C135 0.960 . S
H200 C135 0.960 . S
H201 C137 0.980 . S
H202 C136 0.961 . S
H203 C136 0.961 1_655 S
H204 C136 0.959 1_655 S
H205 C139 0.932 . S
H206 C143 0.929 . S
H207 C144 0.961 . S
H208 C144 0.959 . S
H209 C144 0.959 . S
H210 C145 0.960 . S
H211 C145 0.962 . S
H212 C145 0.961 . S
H213 C147 0.929 . S
H214 C150 0.930 . S
H215 C151 0.929 . S
H216 C154 0.930 . S
H217 C157 0.929 . S
H218 C158 0.930 . S
H219 C162 0.962 . S
H220 C162 0.959 . S
H221 C162 0.958 . S
C222 C223 1.560 . S
C222 H283 0.959 . S
C222 H284 0.959 . S
C222 H285 0.960 . S
C223 C222 1.560 . S
C223 O278 1.426 . S
C223 H282 0.980 . S
C224 C225 1.407 . S
C224 C229 1.418 . S
C224 O278 1.334 . S
C225 C224 1.407 . S
C225 C226 1.360 . S
C225 H286 0.929 . S
C226 C225 1.360 . S
C226 C227 1.401 . S
C226 C230 1.527 . S
C227 C226 1.401 . S
C227 C228 1.405 . S
C227 C260 1.587 . S
C228 C227 1.405 . S
C228 C229 1.332 . S
C228 C231 1.496 . S
C229 C224 1.418 . S
C229 C228 1.332 . S
C229 H287 0.929 1_545 S
C230 C226 1.527 . S
C230 H288 0.959 . S
C230 H289 0.961 . S
C230 H290 0.961 . S
C231 C228 1.496 . S
C231 H291 0.960 1_545 S
C231 H292 0.960 . S
C231 H293 0.961 . S
C232 C233 1.517 . S
C232 H295 0.961 . S
C232 H296 0.960 . S
C232 H297 0.959 . S
C233 C232 1.517 . S
C233 O281 1.468 . S
C233 H294 0.980 . S
C234 C235 1.349 . S
C234 C239 1.367 . S
C234 O281 1.408 . S
C235 C234 1.349 . S
C235 C236 1.407 . S
C235 H298 0.930 . S
C236 C235 1.407 . S
C236 C237 1.449 . S
C236 C240 1.535 . S
C237 C236 1.449 . S
C237 C238 1.384 . S
C237 C262 1.553 . S
C238 C237 1.384 . S
C238 C239 1.364 . S
C238 C241 1.450 . S
C239 C234 1.367 . S
C239 C238 1.364 . S
C239 H299 0.931 . S
C240 C236 1.535 . S
C240 H300 0.959 . S
C240 H301 0.961 . S
C240 H302 0.959 . S
C241 C238 1.450 . S
C241 H303 0.960 . S
C241 H304 0.960 . S
C241 H305 0.960 . S
C242 C243 1.309 . S
C242 C247 1.304 . S
C242 O280 1.435 . S
C243 C242 1.309 . S
C243 C244 1.476 . S
C243 H307 0.930 . S
C244 C243 1.476 . S
C244 C245 1.400 . S
C244 C248 1.567 . S
C245 C244 1.400 . S
C245 C246 1.373 . S
C245 C267 1.432 . S
C246 C245 1.373 . S
C246 C247 1.339 . S
C246 C249 1.530 . S
C247 C242 1.304 . S
C247 C246 1.339 . S
C247 H308 0.930 . S
C248 C244 1.567 . S
C248 H309 0.961 . S
C248 H310 0.960 . S
C248 H311 0.958 . S
C249 C246 1.530 . S
C249 H312 0.961 . S
C249 H313 0.960 . S
C249 H314 0.960 . S
C250 C251 1.530 . S
C250 H316 0.961 . S
C250 H317 0.961 . S
C250 H318 0.959 . S
C251 C250 1.530 . S
C251 O279 1.412 . S
C251 H315 0.980 . S
C252 C253 1.288 . S
C252 C257 1.377 . S
C252 O279 1.393 . S
C253 C252 1.288 . S
C253 C254 1.369 . S
C253 H319 0.932 1_545 S
C254 C253 1.369 . S
C254 C255 1.398 . S
C254 C258 1.510 1_545 S
C255 C254 1.398 . S
C255 C256 1.380 . S
C255 C269 1.497 . S
C256 C255 1.380 . S
C256 C257 1.383 . S
C256 C259 1.603 . S
C257 C252 1.377 . S
C257 C256 1.383 . S
C257 H320 0.929 . S
C258 C254 1.510 1_565 S
C258 H321 0.961 1_565 S
C258 H322 0.967 1_565 S
C258 H323 0.969 . S
C259 C256 1.603 . S
C259 H324 0.960 . S
C259 H325 0.962 . S
C259 H326 0.961 . S
C260 C227 1.587 . S
C260 C261 1.360 . S
C260 C273 1.412 . S
C261 C260 1.360 . S
C261 C262 1.365 . S
C261 H327 0.929 . S
C262 C237 1.553 . S
C262 C261 1.365 . S
C262 C263 1.404 . S
C263 C262 1.404 . S
C263 C264 1.395 . S
C263 C274 1.451 . S
C264 C263 1.395 . S
C264 C265 1.322 . S
C264 H328 0.930 . S
C265 C264 1.322 . S
C265 C266 1.459 . S
C265 H329 0.929 . S
C266 C265 1.459 . S
C266 C267 1.445 . S
C266 C275 1.395 . S
C267 C245 1.432 . S
C267 C266 1.445 . S
C267 C268 1.370 . S
C268 C267 1.370 . S
C268 C269 1.438 . S
C268 H330 0.930 . S
C269 C255 1.497 . S
C269 C268 1.438 . S
C269 C270 1.360 . S
C270 C269 1.360 . S
C270 C271 1.401 . S
C270 C275 1.446 . S
C271 C270 1.401 . S
C271 C272 1.347 . S
C271 H331 0.929 . S
C272 C271 1.347 . S
C272 C273 1.455 . S
C272 H332 0.930 . S
C273 C260 1.412 . S
C273 C272 1.455 . S
C273 C274 1.331 . S
C274 C263 1.451 . S
C274 C273 1.331 . S
C274 C275 1.497 . S
C275 C266 1.395 . S
C275 C270 1.446 . S
C275 C274 1.497 . S
C276 C277 1.582 . S
C276 H333 0.962 . S
C276 H334 0.959 . S
C276 H335 0.958 . S
C277 C276 1.582 . S
C277 O280 1.458 . S
C277 H306 0.980 . S
O278 C223 1.426 . S
O278 C224 1.334 . S
O279 C251 1.412 . S
O279 C252 1.393 . S
O280 C242 1.435 . S
O280 C277 1.458 . S
O281 C233 1.468 . S
O281 C234 1.408 . S
H282 C223 0.980 . S
H283 C222 0.959 . S
H284 C222 0.959 . S
H285 C222 0.960 . S
H286 C225 0.929 . S
H287 C229 0.929 1_565 S
H288 C230 0.959 . S
H289 C230 0.961 . S
H290 C230 0.961 . S
H291 C231 0.960 1_565 S
H292 C231 0.960 . S
H293 C231 0.961 . S
H294 C233 0.980 . S
H295 C232 0.961 . S
H296 C232 0.960 . S
H297 C232 0.959 . S
H298 C235 0.930 . S
H299 C239 0.931 . S
H300 C240 0.959 . S
H301 C240 0.961 . S
H302 C240 0.959 . S
H303 C241 0.960 . S
H304 C241 0.960 . S
H305 C241 0.960 . S
H306 C277 0.980 . S
H307 C243 0.930 . S
H308 C247 0.930 . S
H309 C248 0.961 . S
H310 C248 0.960 . S
H311 C248 0.958 . S
H312 C249 0.961 . S
H313 C249 0.960 . S
H314 C249 0.960 . S
H315 C251 0.980 . S
H316 C250 0.961 . S
H317 C250 0.961 . S
H318 C250 0.959 . S
H319 C253 0.932 1_565 S
H320 C257 0.929 . S
H321 C258 0.961 1_545 S
H322 C258 0.967 1_545 S
H323 C258 0.969 . S
H324 C259 0.960 . S
H325 C259 0.962 . S
H326 C259 0.961 . S
H327 C261 0.929 . S
H328 C264 0.930 . S
H329 C265 0.929 . S
H330 C268 0.930 . S
H331 C271 0.929 . S
H332 C272 0.930 . S
H333 C276 0.962 . S
H334 C276 0.959 . S
H335 C276 0.958 . S
C336 C337 1.560 . S
C336 H397 0.959 . S
C336 H398 0.959 . S
C336 H399 0.960 . S
C337 C336 1.560 . S
C337 O392 1.426 . S
C337 H396 0.980 . S
C338 C339 1.407 . S
C338 C343 1.418 . S
C338 O392 1.334 . S
C339 C338 1.407 . S
C339 C340 1.360 . S
C339 H400 0.929 . S
C340 C339 1.360 . S
C340 C341 1.401 . S
C340 C344 1.527 . S
C341 C340 1.401 . S
C341 C342 1.405 . S
C341 C374 1.587 . S
C342 C341 1.405 . S
C342 C343 1.332 . S
C342 C345 1.496 . S
C343 C338 1.418 . S
C343 C342 1.332 . S
C343 H401 0.929 . S
C344 C340 1.527 . S
C344 H402 0.959 . S
C344 H403 0.961 . S
C344 H404 0.961 . S
C345 C342 1.496 . S
C345 H405 0.960 . S
C345 H406 0.960 . S
C345 H407 0.961 . S
C346 C347 1.517 . S
C346 H409 0.961 . S
C346 H410 0.960 . S
C346 H411 0.959 . S
C347 C346 1.517 . S
C347 O395 1.468 . S
C347 H408 0.980 . S
C348 C349 1.349 . S
C348 C353 1.367 . S
C348 O395 1.408 . S
C349 C348 1.349 . S
C349 C350 1.407 . S
C349 H412 0.930 . S
C350 C349 1.407 . S
C350 C351 1.449 . S
C350 C354 1.535 . S
C351 C350 1.449 . S
C351 C352 1.384 . S
C351 C376 1.553 . S
C352 C351 1.384 . S
C352 C353 1.364 . S
C352 C355 1.450 . S
C353 C348 1.367 . S
C353 C352 1.364 . S
C353 H413 0.931 . S
C354 C350 1.535 . S
C354 H414 0.959 . S
C354 H415 0.961 . S
C354 H416 0.959 . S
C355 C352 1.450 . S
C355 H417 0.960 . S
C355 H418 0.960 . S
C355 H419 0.960 . S
C356 C357 1.309 . S
C356 C361 1.304 . S
C356 O394 1.435 . S
C357 C356 1.309 . S
C357 C358 1.476 . S
C357 H421 0.930 . S
C358 C357 1.476 . S
C358 C359 1.400 . S
C358 C362 1.567 . S
C359 C358 1.400 . S
C359 C360 1.373 . S
C359 C381 1.432 . S
C360 C359 1.373 . S
C360 C361 1.339 . S
C360 C363 1.530 . S
C361 C356 1.304 . S
C361 C360 1.339 . S
C361 H422 0.930 . S
C362 C358 1.567 . S
C362 H423 0.961 . S
C362 H424 0.960 . S
C362 H425 0.958 . S
C363 C360 1.530 . S
C363 H426 0.961 . S
C363 H427 0.960 . S
C363 H428 0.960 . S
C364 C365 1.530 . S
C364 H430 0.961 . S
C364 H431 0.961 . S
C364 H432 0.959 . S
C365 C364 1.530 . S
C365 O393 1.412 . S
C365 H429 0.980 . S
C366 C367 1.288 . S
C366 C371 1.377 . S
C366 O393 1.393 . S
C367 C366 1.288 . S
C367 C368 1.369 . S
C367 H433 0.932 . S
C368 C367 1.369 . S
C368 C369 1.398 . S
C368 C372 1.527 . S
C369 C368 1.398 . S
C369 C370 1.380 . S
C369 C383 1.497 . S
C370 C369 1.380 . S
C370 C371 1.383 . S
C370 C373 1.603 . S
C371 C366 1.377 . S
C371 C370 1.383 . S
C371 H434 0.929 . S
C372 C368 1.527 . S
C372 H435 0.961 . S
C372 H436 0.959 . S
C372 H437 0.959 . S
C373 C370 1.603 . S
C373 H438 0.960 . S
C373 H439 0.962 . S
C373 H440 0.961 . S
C374 C341 1.587 . S
C374 C375 1.360 . S
C374 C387 1.412 . S
C375 C374 1.360 . S
C375 C376 1.365 . S
C375 H441 0.929 . S
C376 C351 1.553 . S
C376 C375 1.365 . S
C376 C377 1.404 . S
C377 C376 1.404 . S
C377 C378 1.395 . S
C377 C388 1.451 . S
C378 C377 1.395 . S
C378 C379 1.322 . S
C378 H442 0.930 . S
C379 C378 1.322 . S
C379 C380 1.459 . S
C379 H443 0.929 . S
C380 C379 1.459 . S
C380 C381 1.445 . S
C380 C389 1.395 . S
C381 C359 1.432 . S
C381 C380 1.445 . S
C381 C382 1.370 . S
C382 C381 1.370 . S
C382 C383 1.438 . S
C382 H444 0.930 . S
C383 C369 1.497 . S
C383 C382 1.438 . S
C383 C384 1.360 . S
C384 C383 1.360 . S
C384 C385 1.401 . S
C384 C389 1.446 . S
C385 C384 1.401 . S
C385 C386 1.347 . S
C385 H445 0.929 . S
C386 C385 1.347 . S
C386 C387 1.455 . S
C386 H446 0.930 . S
C387 C374 1.412 . S
C387 C386 1.455 . S
C387 C388 1.331 . S
C388 C377 1.451 . S
C388 C387 1.331 . S
C388 C389 1.497 . S
C389 C380 1.395 . S
C389 C384 1.446 . S
C389 C388 1.497 . S
C390 C391 1.582 . S
C390 H447 0.962 . S
C390 H448 0.959 . S
C390 H449 0.958 . S
C391 C390 1.582 . S
C391 O394 1.458 . S
C391 H420 0.980 . S
O392 C337 1.426 . S
O392 C338 1.334 . S
O393 C365 1.412 . S
O393 C366 1.393 . S
O394 C356 1.435 . S
O394 C391 1.458 . S
O395 C347 1.468 . S
O395 C348 1.408 . S
H396 C337 0.980 . S
H397 C336 0.959 . S
H398 C336 0.959 . S
H399 C336 0.960 . S
H400 C339 0.929 . S
H401 C343 0.929 . S
H402 C344 0.959 . S
H403 C344 0.961 . S
H404 C344 0.961 . S
H405 C345 0.960 . S
H406 C345 0.960 . S
H407 C345 0.961 . S
H408 C347 0.980 . S
H409 C346 0.961 . S
H410 C346 0.960 . S
H411 C346 0.959 . S
H412 C349 0.930 . S
H413 C353 0.931 . S
H414 C354 0.959 . S
H415 C354 0.961 . S
H416 C354 0.959 . S
H417 C355 0.960 . S
H418 C355 0.960 . S
H419 C355 0.960 . S
H420 C391 0.980 . S
H421 C357 0.930 . S
H422 C361 0.930 . S
H423 C362 0.961 . S
H424 C362 0.960 . S
H425 C362 0.958 . S
H426 C363 0.961 . S
H427 C363 0.960 . S
H428 C363 0.960 . S
H429 C365 0.980 . S
H430 C364 0.961 . S
H431 C364 0.961 . S
H432 C364 0.959 . S
H433 C367 0.932 . S
H434 C371 0.929 . S
H435 C372 0.961 . S
H436 C372 0.959 . S
H437 C372 0.959 . S
H438 C373 0.960 . S
H439 C373 0.962 . S
H440 C373 0.961 . S
H441 C375 0.929 . S
H442 C378 0.930 . S
H443 C379 0.929 . S
H444 C382 0.930 . S
H445 C385 0.929 . S
H446 C386 0.930 . S
H447 C390 0.962 . S
H448 C390 0.959 . S
H449 C390 0.958 . S
H450 C462 0.930 . S
H451 C464 0.930 . S
H452 C465 0.930 . S
H453 C469 0.959 . S
H454 C469 0.959 . S
H455 C469 0.961 . S
H456 C470 0.960 . S
H457 C470 0.961 . S
H458 C470 0.959 . S
H459 C473 0.929 . S
H460 C474 0.931 . S
H461 C476 0.930 . S
C462 H450 0.930 . S
C462 C463 1.399 . S
C462 C467 1.399 . S
C463 C462 1.399 . S
C463 C464 1.376 1_455 S
C464 H451 0.930 . S
C464 C463 1.376 1_655 S
C464 C465 1.388 . S
C465 H452 0.930 . S
C465 C464 1.388 . S
C465 C466 1.390 1_655 S
C466 C465 1.390 1_455 S
C466 C467 1.394 . S
C466 C472 1.465 . S
C467 C462 1.399 . S
C467 C466 1.394 . S
C467 C468 1.516 . S
C468 C467 1.516 . S
C468 C469 1.502 . S
C468 C470 1.561 . S
C468 C471 1.526 . S
C469 H453 0.959 . S
C469 H454 0.959 . S
C469 H455 0.961 . S
C469 C468 1.502 . S
C470 H456 0.960 . S
C470 H457 0.961 . S
C470 H458 0.959 . S
C470 C468 1.561 . S
C471 C468 1.526 . S
C471 C472 1.396 . S
C471 C476 1.390 . S
C472 C466 1.465 . S
C472 C471 1.396 . S
C472 C473 1.399 1_455 S
C473 H459 0.929 . S
C473 C472 1.399 1_655 S
C473 C474 1.385 . S
C474 H460 0.931 . S
C474 C473 1.385 . S
C474 C475 1.389 1_655 S
C475 C474 1.389 1_455 S
C475 C476 1.387 . S
C476 H461 0.930 . S
C476 C471 1.390 . S
C476 C475 1.387 . S
H477 C489 0.930 1_565 S
H478 C491 0.930 . S
H479 C492 0.930 . S
H480 C496 0.959 . S
H481 C496 0.959 . S
H482 C496 0.961 . S
H483 C497 0.960 . S
H484 C497 0.961 . S
H485 C497 0.959 . S
H486 C500 0.929 . S
H487 C501 0.931 . S
H488 C503 0.930 . S
C489 H477 0.930 1_545 S
C489 C490 1.399 . S
C489 C494 1.399 . S
C490 C489 1.399 . S
C490 C491 1.376 . S
C491 H478 0.930 . S
C491 C490 1.376 . S
C491 C492 1.388 . S
C492 H479 0.930 . S
C492 C491 1.388 . S
C492 C493 1.390 . S
C493 C492 1.390 . S
C493 C494 1.394 . S
C493 C499 1.465 . S
C494 C489 1.399 . S
C494 C493 1.394 . S
C494 C495 1.516 . S
C495 C494 1.516 . S
C495 C496 1.502 1_545 S
C495 C497 1.561 1_545 S
C495 C498 1.526 . S
C496 H480 0.959 . S
C496 H481 0.959 . S
C496 H482 0.961 . S
C496 C495 1.502 1_565 S
C497 H483 0.960 . S
C497 H484 0.961 . S
C497 H485 0.959 . S
C497 C495 1.561 1_565 S
C498 C495 1.526 . S
C498 C499 1.396 . S
C498 C503 1.390 . S
C499 C493 1.465 . S
C499 C498 1.396 . S
C499 C500 1.399 . S
C500 H486 0.929 . S
C500 C499 1.399 . S
C500 C501 1.385 . S
C501 H487 0.931 . S
C501 C500 1.385 . S
C501 C502 1.389 . S
C502 C501 1.389 . S
C502 C503 1.387 . S
C503 H488 0.930 . S
C503 C498 1.390 . S
C503 C502 1.387 . S
H504 C516 0.930 . S
H505 C518 0.930 . S
H506 C519 0.930 . S
H507 C523 0.959 . S
H508 C523 0.959 . S
H509 C523 0.961 . S
H510 C524 0.960 . S
H511 C524 0.961 . S
H512 C524 0.959 . S
H513 C527 0.929 . S
H514 C528 0.931 . S
H515 C530 0.930 . S
C516 H504 0.930 . S
C516 C517 1.399 . S
C516 C521 1.399 . S
C517 C516 1.399 . S
C517 C518 1.376 . S
C518 H505 0.930 . S
C518 C517 1.376 . S
C518 C519 1.388 . S
C519 H506 0.930 . S
C519 C518 1.388 . S
C519 C520 1.390 . S
C520 C519 1.390 . S
C520 C521 1.394 . S
C520 C526 1.465 . S
C521 C516 1.399 . S
C521 C520 1.394 . S
C521 C522 1.516 . S
C522 C521 1.516 . S
C522 C523 1.502 . S
C522 C524 1.561 . S
C522 C525 1.526 . S
C523 H507 0.959 . S
C523 H508 0.959 . S
C523 H509 0.961 . S
C523 C522 1.502 . S
C524 H510 0.960 . S
C524 H511 0.961 . S
C524 H512 0.959 . S
C524 C522 1.561 . S
C525 C522 1.526 . S
C525 C526 1.396 . S
C525 C530 1.390 . S
C526 C520 1.465 . S
C526 C525 1.396 . S
C526 C527 1.399 . S
C527 H513 0.929 . S
C527 C526 1.399 . S
C527 C528 1.385 . S
C528 H514 0.931 . S
C528 C527 1.385 . S
C528 C529 1.389 . S
C529 C528 1.389 . S
C529 C530 1.387 . S
C530 H515 0.930 . S
C530 C525 1.390 . S
C530 C529 1.387 . S
H531 C543 0.930 . S
H532 C545 0.930 . S
H533 C546 0.930 . S
H534 C550 0.959 . S
H535 C550 0.959 . S
H536 C550 0.961 . S
H537 C551 0.960 . S
H538 C551 0.961 . S
H539 C551 0.959 . S
H540 C554 0.929 . S
H541 C555 0.931 . S
H542 C557 0.930 . S
C543 H531 0.930 . S
C543 C544 1.399 . S
C543 C548 1.399 . S
C544 C543 1.399 . S
C544 C545 1.376 . S
C545 H532 0.930 . S
C545 C544 1.376 . S
C545 C546 1.388 . S
C546 H533 0.930 . S
C546 C545 1.388 . S
C546 C547 1.390 . S
C547 C546 1.390 . S
C547 C548 1.394 . S
C547 C553 1.465 . S
C548 C543 1.399 . S
C548 C547 1.394 . S
C548 C549 1.516 . S
C549 C548 1.516 . S
C549 C550 1.502 . S
C549 C551 1.561 1_455 S
C549 C552 1.526 . S
C550 H534 0.959 . S
C550 H535 0.959 . S
C550 H536 0.961 . S
C550 C549 1.502 . S
C551 H537 0.960 . S
C551 H538 0.961 . S
C551 H539 0.959 . S
C551 C549 1.561 1_655 S
C552 C549 1.526 . S
C552 C553 1.396 . S
C552 C557 1.390 . S
C553 C547 1.465 . S
C553 C552 1.396 . S
C553 C554 1.399 . S
C554 H540 0.929 . S
C554 C553 1.399 . S
C554 C555 1.385 . S
C555 H541 0.931 . S
C555 C554 1.385 . S
C555 C556 1.389 . S
C556 C555 1.389 . S
C556 C557 1.387 . S
C557 H542 0.930 . S
C557 C552 1.390 . S
C557 C556 1.387 . S
H558 C570 0.930 . S
H559 C572 0.930 . S
H560 C573 0.930 . S
H561 C577 0.959 . S
H562 C577 0.959 . S
H563 C577 0.961 . S
H564 C578 0.960 . S
H565 C578 0.961 . S
H566 C578 0.959 . S
H567 C581 0.929 . S
H568 C582 0.931 . S
H569 C584 0.930 . S
C570 H558 0.930 . S
C570 C571 1.399 . S
C570 C575 1.399 . S
C571 C570 1.399 . S
C571 C572 1.376 . S
C572 H559 0.930 . S
C572 C571 1.376 . S
C572 C573 1.388 . S
C573 H560 0.930 . S
C573 C572 1.388 . S
C573 C574 1.390 . S
C574 C573 1.390 . S
C574 C575 1.394 . S
C574 C580 1.465 . S
C575 C570 1.399 . S
C575 C574 1.394 . S
C575 C576 1.516 . S
C576 C575 1.516 . S
C576 C577 1.502 . S
C576 C578 1.561 . S
C576 C579 1.526 . S
C577 H561 0.959 . S
C577 H562 0.959 . S
C577 H563 0.961 . S
C577 C576 1.502 . S
C578 H564 0.960 . S
C578 H565 0.961 . S
C578 H566 0.959 . S
C578 C576 1.561 . S
C579 C576 1.526 . S
C579 C580 1.396 . S
C579 C584 1.390 . S
C580 C574 1.465 . S
C580 C579 1.396 . S
C580 C581 1.399 . S
C581 H567 0.929 . S
C581 C580 1.399 . S
C581 C582 1.385 . S
C582 H568 0.931 . S
C582 C581 1.385 . S
C582 C583 1.389 . S
C583 C582 1.389 . S
C583 C584 1.387 . S
C584 H569 0.930 . S
C584 C579 1.390 . S
C584 C583 1.387 . S
H585 C597 0.930 . S
H586 C599 0.930 . S
H587 C600 0.930 . S
H588 C604 0.959 . S
H589 C604 0.959 . S
H590 C604 0.961 . S
H591 C605 0.960 . S
H592 C605 0.961 . S
H593 C605 0.959 . S
H594 C608 0.929 . S
H595 C609 0.931 . S
H596 C611 0.930 . S
C597 H585 0.930 . S
C597 C598 1.399 . S
C597 C602 1.399 . S
C598 C597 1.399 . S
C598 C599 1.376 . S
C599 H586 0.930 . S
C599 C598 1.376 . S
C599 C600 1.388 . S
C600 H587 0.930 . S
C600 C599 1.388 . S
C600 C601 1.390 . S
C601 C600 1.390 . S
C601 C602 1.394 . S
C601 C607 1.465 . S
C602 C597 1.399 . S
C602 C601 1.394 . S
C602 C603 1.516 . S
C603 C602 1.516 . S
C603 C604 1.502 . S
C603 C605 1.561 . S
C603 C606 1.526 . S
C604 H588 0.959 . S
C604 H589 0.959 . S
C604 H590 0.961 . S
C604 C603 1.502 . S
C605 H591 0.960 . S
C605 H592 0.961 . S
C605 H593 0.959 . S
C605 C603 1.561 . S
C606 C603 1.526 . S
C606 C607 1.396 . S
C606 C611 1.390 . S
C607 C601 1.465 . S
C607 C606 1.396 . S
C607 C608 1.399 . S
C608 H594 0.929 . S
C608 C607 1.399 . S
C608 C609 1.385 . S
C609 H595 0.931 . S
C609 C608 1.385 . S
C609 C610 1.389 . S
C610 C609 1.389 . S
C610 C611 1.387 . S
C611 H596 0.930 . S
C611 C606 1.390 . S
C611 C610 1.387 . S
H612 C624 0.930 . S
H613 C626 0.930 . S
H614 C627 0.930 . S
H615 C631 0.959 . S
H616 C631 0.959 . S
H617 C631 0.961 . S
H618 C632 0.960 . S
H619 C632 0.961 . S
H620 C632 0.959 . S
H621 C635 0.929 . S
H622 C636 0.931 . S
H623 C638 0.930 . S
C624 H612 0.930 . S
C624 C625 1.399 . S
C624 C629 1.399 . S
C625 C624 1.399 . S
C625 C626 1.376 . S
C626 H613 0.930 . S
C626 C625 1.376 . S
C626 C627 1.388 . S
C627 H614 0.930 . S
C627 C626 1.388 . S
C627 C628 1.390 . S
C628 C627 1.390 . S
C628 C629 1.394 . S
C628 C634 1.465 . S
C629 C624 1.399 . S
C629 C628 1.394 . S
C629 C630 1.516 . S
C630 C629 1.516 . S
C630 C631 1.502 . S
C630 C632 1.561 1_545 S
C630 C633 1.526 . S
C631 H615 0.959 . S
C631 H616 0.959 . S
C631 H617 0.961 . S
C631 C630 1.502 . S
C632 H618 0.960 . S
C632 H619 0.961 . S
C632 H620 0.959 . S
C632 C630 1.561 1_565 S
C633 C630 1.526 . S
C633 C634 1.396 . S
C633 C638 1.390 . S
C634 C628 1.465 . S
C634 C633 1.396 . S
C634 C635 1.399 . S
C635 H621 0.929 . S
C635 C634 1.399 . S
C635 C636 1.385 . S
C636 H622 0.931 . S
C636 C635 1.385 . S
C636 C637 1.389 . S
C637 C636 1.389 . S
C637 C638 1.387 . S
C638 H623 0.930 . S
C638 C633 1.390 . S
C638 C637 1.387 . S
H639 C651 0.930 . S
H640 C653 0.930 1_545 S
H641 C654 0.909 1_556 S
H642 C658 0.959 . S
H643 C658 0.959 . S
H644 C658 0.961 . S
H645 C659 0.960 . S
H646 C659 0.961 . S
H647 C659 0.959 . S
H648 C662 0.929 . S
H649 C663 0.931 . S
H650 C665 0.930 . S
C651 H639 0.930 . S
C651 C652 1.399 . S
C651 C656 1.399 . S
C652 C651 1.399 . S
C652 C653 1.376 . S
C653 H640 0.930 1_565 S
C653 C652 1.376 . S
C653 C654 1.408 . S
C654 H641 0.909 1_554 S
C654 C653 1.408 . S
C654 C655 1.392 . S
C655 C654 1.392 . S
C655 C656 1.394 . S
C655 C661 1.465 1_554 S
C656 C651 1.399 . S
C656 C655 1.394 . S
C656 C657 1.516 . S
C657 C656 1.516 . S
C657 C658 1.502 . S
C657 C659 1.561 . S
C657 C660 1.526 1_554 S
C658 H642 0.959 . S
C658 H643 0.959 . S
C658 H644 0.961 . S
C658 C657 1.502 . S
C659 H645 0.960 . S
C659 H646 0.961 . S
C659 H647 0.959 . S
C659 C657 1.561 . S
C660 C657 1.526 1_556 S
C660 C661 1.396 . S
C660 C665 1.390 . S
C661 C655 1.465 1_556 S
C661 C660 1.396 . S
C661 C662 1.399 . S
C662 H648 0.929 . S
C662 C661 1.399 . S
C662 C663 1.385 . S
C663 H649 0.931 . S
C663 C662 1.385 . S
C663 C664 1.389 . S
C664 C663 1.389 . S
C664 C665 1.387 . S
C665 H650 0.930 . S
C665 C660 1.390 . S
C665 C664 1.387 . S
H666 C678 0.930 . S
H667 C680 0.930 . S
H668 C681 0.930 . S
H669 C685 0.959 . S
H670 C685 0.959 . S
H671 C685 0.961 . S
H672 C686 0.960 . S
H673 C686 0.961 . S
H674 C686 0.959 . S
H675 C689 0.929 . S
H676 C690 0.931 . S
H677 C692 0.930 . S
C678 H666 0.930 . S
C678 C679 1.399 1_655 S
C678 C683 1.416 . S
C679 C678 1.399 1_455 S
C679 C680 1.376 . S
C680 H667 0.930 . S
C680 C679 1.376 . S
C680 C681 1.388 . S
C681 H668 0.930 . S
C681 C680 1.388 . S
C681 C682 1.390 . S
C682 C681 1.390 . S
C682 C683 1.366 1_455 S
C682 C688 1.465 . S
C683 C678 1.416 . S
C683 C682 1.366 1_655 S
C683 C684 1.523 . S
C684 C683 1.523 . S
C684 C685 1.502 . S
C684 C686 1.561 . S
C684 C687 1.514 1_655 S
C685 H669 0.959 . S
C685 H670 0.959 . S
C685 H671 0.961 . S
C685 C684 1.502 . S
C686 H672 0.960 . S
C686 H673 0.961 . S
C686 H674 0.959 . S
C686 C684 1.561 . S
C687 C684 1.514 1_455 S
C687 C688 1.405 . S
C687 C692 1.393 1_455 S
C688 C682 1.465 . S
C688 C687 1.405 . S
C688 C689 1.399 . S
C689 H675 0.929 . S
C689 C688 1.399 . S
C689 C690 1.385 . S
C690 H676 0.931 . S
C690 C689 1.385 . S
C690 C691 1.389 . S
C691 C690 1.389 . S
C691 C692 1.387 1_455 S
C692 H677 0.930 . S
C692 C687 1.393 1_655 S
C692 C691 1.387 1_655 S
H693 C705 0.930 . S
H694 C707 0.930 1_565 S
H695 C708 0.930 1_565 S
H696 C712 0.959 . S
H697 C712 0.959 . S
H698 C712 0.961 . S
H699 C713 0.960 . S
H700 C713 0.961 . S
H701 C713 0.959 . S
H702 C716 0.929 1_565 S
H703 C717 0.931 . S
H704 C719 0.930 . S
C705 H693 0.930 . S
C705 C706 1.399 . S
C705 C710 1.399 . S
C706 C705 1.399 . S
C706 C707 1.376 . S
C707 H694 0.930 1_545 S
C707 C706 1.376 . S
C707 C708 1.388 . S
C708 H695 0.930 1_545 S
C708 C707 1.388 . S
C708 C709 1.390 . S
C709 C708 1.390 . S
C709 C710 1.394 . S
C709 C715 1.465 . S
C710 C705 1.399 . S
C710 C709 1.394 . S
C710 C711 1.516 . S
C711 C710 1.516 . S
C711 C712 1.502 . S
C711 C713 1.561 . S
C711 C714 1.526 . S
C712 H696 0.959 . S
C712 H697 0.959 . S
C712 H698 0.961 . S
C712 C711 1.502 . S
C713 H699 0.960 . S
C713 H700 0.961 . S
C713 H701 0.959 . S
C713 C711 1.561 . S
C714 C711 1.526 . S
C714 C715 1.396 . S
C714 C719 1.390 . S
C715 C709 1.465 . S
C715 C714 1.396 . S
C715 C716 1.399 . S
C716 H702 0.929 1_545 S
C716 C715 1.399 . S
C716 C717 1.385 . S
C717 H703 0.931 . S
C717 C716 1.385 . S
C717 C718 1.389 . S
C718 C717 1.389 . S
C718 C719 1.387 . S
C719 H704 0.930 . S
C719 C714 1.390 . S
C719 C718 1.387 . S
H720 C732 0.930 . S
H721 C734 0.930 . S
H722 C735 0.930 . S
H723 C739 0.959 . S
H724 C739 0.959 . S
H725 C739 0.961 . S
H726 C740 0.960 . S
H727 C740 0.961 . S
H728 C740 0.959 . S
H729 C743 0.929 . S
H730 C744 0.931 . S
H731 C746 0.930 . S
C732 H720 0.930 . S
C732 C733 1.399 . S
C732 C737 1.372 1_554 S
C733 C732 1.399 . S
C733 C734 1.376 . S
C734 H721 0.930 . S
C734 C733 1.376 . S
C734 C735 1.388 . S
C735 H722 0.930 . S
C735 C734 1.388 . S
C735 C736 1.390 . S
C736 C735 1.390 . S
C736 C737 1.388 1_554 S
C736 C742 1.465 1_554 S
C737 C732 1.372 1_556 S
C737 C736 1.388 1_556 S
C737 C738 1.552 . S
C738 C737 1.552 . S
C738 C739 1.502 . S
C738 C740 1.561 . S
C738 C741 1.526 . S
C739 H723 0.959 . S
C739 H724 0.959 . S
C739 H725 0.961 . S
C739 C738 1.502 . S
C740 H726 0.960 . S
C740 H727 0.961 . S
C740 H728 0.959 . S
C740 C738 1.561 . S
C741 C738 1.526 . S
C741 C742 1.396 . S
C741 C746 1.390 . S
C742 C736 1.465 1_556 S
C742 C741 1.396 . S
C742 C743 1.399 . S
C743 H729 0.929 . S
C743 C742 1.399 . S
C743 C744 1.385 . S
C744 H730 0.931 . S
C744 C743 1.385 . S
C744 C745 1.389 . S
C745 C744 1.389 . S
C745 C746 1.387 . S
C746 H731 0.930 . S
C746 C741 1.390 . S
C746 C745 1.387 . S
H747 C759 0.930 . S
H748 C761 0.930 . S
H749 C762 0.930 . S
H750 C766 0.959 . S
H751 C766 0.959 . S
H752 C766 0.961 . S
H753 C767 0.960 . S
H754 C767 0.961 . S
H755 C767 0.959 . S
H756 C770 0.929 . S
H757 C771 0.931 . S
H758 C773 0.930 . S
C759 H747 0.930 . S
C759 C760 1.399 . S
C759 C764 1.399 . S
C760 C759 1.399 . S
C760 C761 1.376 . S
C761 H748 0.930 . S
C761 C760 1.376 . S
C761 C762 1.388 . S
C762 H749 0.930 . S
C762 C761 1.388 . S
C762 C763 1.390 . S
C763 C762 1.390 . S
C763 C764 1.394 . S
C763 C769 1.465 . S
C764 C759 1.399 . S
C764 C763 1.394 . S
C764 C765 1.516 . S
C765 C764 1.516 . S
C765 C766 1.502 1_455 S
C765 C767 1.561 . S
C765 C768 1.526 . S
C766 H750 0.959 . S
C766 H751 0.959 . S
C766 H752 0.961 . S
C766 C765 1.502 1_655 S
C767 H753 0.960 . S
C767 H754 0.961 . S
C767 H755 0.959 . S
C767 C765 1.561 . S
C768 C765 1.526 . S
C768 C769 1.396 . S
C768 C773 1.390 . S
C769 C763 1.465 . S
C769 C768 1.396 . S
C769 C770 1.399 . S
C770 H756 0.929 . S
C770 C769 1.399 . S
C770 C771 1.385 . S
C771 H757 0.931 . S
C771 C770 1.385 . S
C771 C772 1.389 . S
C772 C771 1.389 . S
C772 C773 1.387 . S
C773 H758 0.930 . S
C773 C768 1.390 . S
C773 C772 1.387 . S
C475 C163 1.213 . S
C463 C14 1.516 . S
C490 C40 1.528 . S
C502 C277 1.115 . S
C517 C76 1.321 . S
C529 C337 0.926 . S
C544 C3 1.378 . S
C556 C137 1.172 . S
C583 C251 1.033 . S
C571 C38 1.422 . S
C598 C74 1.456 . S
C610 C347 0.906 . S
C637 C233 0.800 . S
C625 C86 1.398 . S
C652 C2 1.416 1_565 S
C664 C365 1.117 . S
C691 C109 1.070 . S
C679 C39 1.290 . S
C718 C223 0.940 . S
C706 C75 1.315 . S
C745 C391 1.122 . S
C733 C4 1.510 . S
C760 C50 1.472 . S
C772 C119 0.952 . S
