# Generated by pormake.
# Topology anh, (6,3)-cn, num edge types: 1
# Building blocks:
#     Node 0, Type 0, BuildingBlock: PAMTUU_clean_sbu_0, # of connection points: 6
#     Node 1, Type 0, BuildingBlock: PAMTUU_clean_sbu_0, # of connection points: 6
#     Node 2, Type 0, BuildingBlock: PAMTUU_clean_sbu_0, # of connection points: 6
#     Node 3, Type 1, BuildingBlock: KAKCAD_clean_linker_0, # of connection points: 3
#     Node 4, Type 1, BuildingBlock: KAKCAD_clean_linker_0, # of connection points: 3
#     Node 5, Type 1, BuildingBlock: KAKCAD_clean_linker_0, # of connection points: 3
#     Node 6, Type 1, BuildingBlock: KAKCAD_clean_linker_0, # of connection points: 3
#     Node 7, Type 1, BuildingBlock: KAKCAD_clean_linker_0, # of connection points: 3
#     Node 8, Type 1, BuildingBlock: KAKCAD_clean_linker_0, # of connection points: 3
#     Edge 9, Type (0, 1), BuildingBlock: TEMPAE_clean_linker_10, # of connection points: 2
#     Edge 10, Type (0, 1), BuildingBlock: TEMPAE_clean_linker_10, # of connection points: 2
#     Edge 11, Type (0, 1), BuildingBlock: TEMPAE_clean_linker_10, # of connection points: 2
#     Edge 12, Type (0, 1), BuildingBlock: TEMPAE_clean_linker_10, # of connection points: 2
#     Edge 13, Type (0, 1), BuildingBlock: TEMPAE_clean_linker_10, # of connection points: 2
#     Edge 14, Type (0, 1), BuildingBlock: TEMPAE_clean_linker_10, # of connection points: 2
#     Edge 15, Type (0, 1), BuildingBlock: TEMPAE_clean_linker_10, # of connection points: 2
#     Edge 16, Type (0, 1), BuildingBlock: TEMPAE_clean_linker_10, # of connection points: 2
#     Edge 17, Type (0, 1), BuildingBlock: TEMPAE_clean_linker_10, # of connection points: 2
#     Edge 18, Type (0, 1), BuildingBlock: TEMPAE_clean_linker_10, # of connection points: 2
#     Edge 19, Type (0, 1), BuildingBlock: TEMPAE_clean_linker_10, # of connection points: 2
#     Edge 20, Type (0, 1), BuildingBlock: TEMPAE_clean_linker_10, # of connection points: 2
#     Edge 21, Type (0, 1), BuildingBlock: TEMPAE_clean_linker_10, # of connection points: 2
#     Edge 22, Type (0, 1), BuildingBlock: TEMPAE_clean_linker_10, # of connection points: 2
#     Edge 23, Type (0, 1), BuildingBlock: TEMPAE_clean_linker_10, # of connection points: 2
#     Edge 24, Type (0, 1), BuildingBlock: TEMPAE_clean_linker_10, # of connection points: 2
#     Edge 25, Type (0, 1), BuildingBlock: TEMPAE_clean_linker_10, # of connection points: 2
#     Edge 26, Type (0, 1), BuildingBlock: TEMPAE_clean_linker_10, # of connection points: 2
# Relax obj value: 0.235
# Max RMSD: 0.188
# Mean RMSD: 0.155
data_MOF--net-anh--node1-PAMTUU_clean_sbu_0--node2-KAKCAD_clean_linker_0--edge1-TEMPAE_clean_linker_10
_symmetry_space_group_name_H-M    P1
_symmetry_Int_Tables_number       1
_symmetry_cell_setting            triclinic
loop_
_symmetry_equiv_pos_as_xyz
'x, y, z'
_cell_length_a     37.211174
_cell_length_b     37.087994
_cell_length_c     67.215907
_cell_angle_alpha  93.149887
_cell_angle_beta   90.611591
_cell_angle_gamma 119.98019
loop_
_atom_site_label
_atom_site_type_symbol
_atom_site_fract_x
_atom_site_fract_y
_atom_site_fract_z
_atom_type_partial_charge
Tb0 Tb 0.11718 0.64917 0.16031 0.0
Tb1 Tb 0.16546 0.59856 0.16491 0.0
C2 C 0.14545 0.6188 0.12321 0.0
C3 C 1.03158 0.66857 0.1642 0.0
C4 C 0.94597 0.62213 0.17066 0.0
C5 C 0.96057 0.64744 0.1544 0.0
C6 C 1.00301 0.67049 0.15124 0.0
C7 C 1.01738 0.64556 0.18118 0.0
C8 C 0.97497 0.62276 0.18444 0.0
C9 C 1.07434 0.68392 0.15809 0.0
O10 O 1.06664 0.58257 0.15656 0.0
O11 O 0.10049 0.55109 0.16936 0.0
O12 O 0.16753 0.62687 0.19448 0.0
O13 O 0.1066 0.62599 0.18968 0.0
O14 O 0.20778 0.58171 0.15362 0.0
O15 O 0.17335 0.55463 0.17973 0.0
O16 O 0.2169 0.66355 0.16354 0.0
O17 O 0.18167 0.69932 0.16858 0.0
O18 O 0.14612 0.65137 0.13215 0.0
O19 O 0.14232 0.58875 0.13382 0.0
C20 C 1.0657 0.54934 0.16351 0.0
O21 O 0.10223 0.69319 0.1724 0.0
O22 O 1.07768 0.66173 0.14324 0.0
C23 C 0.135 0.62704 0.20167 0.0
C24 C 0.23822 0.55716 0.1769 0.0
C25 C 0.29672 0.53391 0.1878 0.0
C26 C 0.26374 0.52621 0.20016 0.0
C27 C 0.23458 0.53751 0.19468 0.0
C28 C 0.27369 0.56908 0.16582 0.0
C29 C 0.3027 0.55768 0.17124 0.0
C30 C 0.20185 0.55707 0.1679 0.0
C31 C 0.21703 0.69907 0.16712 0.0
H32 H 0.93917 0.64725 0.1433 0.0
H33 H 1.0133 0.68758 0.13794 0.0
H34 H 1.0388 0.64325 0.19135 0.0
H35 H 0.96482 0.6041 0.19724 0.0
H36 H 0.25864 0.50852 0.21317 0.0
H37 H 0.20754 0.52791 0.20356 0.0
H38 H 0.27734 0.58407 0.15201 0.0
H39 H 0.32744 0.56391 0.16121 0.0
Tb40 Tb 0.59614 0.06875 0.48691 0.0
Tb41 Tb 0.69365 0.12175 0.49808 0.0
C42 C 0.66014 0.10427 0.45424 0.0
C43 C 0.49129 0.98012 0.48075 0.0
C44 C 0.43553 0.89652 0.48758 0.0
C45 C 0.47502 0.91739 0.49727 0.0
C46 C 0.50281 0.95894 0.49381 0.0
C47 C 0.45202 0.9595 0.47111 0.0
C48 C 0.42429 0.91801 0.47451 0.0
C49 C 0.52062 1.02333 0.47683 0.0
O50 O 0.61578 1.02097 0.48689 0.0
O51 O 0.68195 0.05788 0.50126 0.0
O52 O 0.66119 0.11795 0.5255 0.0
O53 O 0.60182 0.05648 0.51724 0.0
O54 O 0.75328 0.16464 0.48921 0.0
O55 O 0.74371 0.14509 0.51921 0.0
O56 O 0.67502 0.1685 0.49279 0.0
O57 O 0.60536 0.13069 0.49751 0.0
O58 O 0.62727 0.10327 0.46151 0.0
O59 O 0.68647 0.10129 0.46626 0.0
C60 C 0.64901 1.02195 0.49496 0.0
O61 O 0.53408 1.04977 0.49247 0.0
O62 O 0.55061 1.02819 0.46538 0.0
C63 C 0.62732 0.0849 0.53062 0.0
C64 C 0.78366 0.21704 0.51479 0.0
C65 C 0.80378 0.30126 0.5184 0.0
C66 C 0.83326 0.2903 0.51199 0.0
C67 C 0.8231 0.24846 0.51 0.0
C68 C 0.75564 0.2282 0.52295 0.0
C69 C 0.76552 0.26986 0.52469 0.0
C70 C 0.7683 0.17341 0.50755 0.0
C71 C 0.6396 0.16713 0.49637 0.0
H72 H 0.48444 0.90154 0.50736 0.0
H73 H 0.53329 0.97456 0.50128 0.0
H74 H 0.44279 0.97549 0.461 0.0
H75 H 0.39371 0.9029 0.46715 0.0
H76 H 0.86342 0.31387 0.50745 0.0
H77 H 0.84504 0.24052 0.50357 0.0
H78 H 0.72483 0.20444 0.52665 0.0
H79 H 0.74193 0.27695 0.52954 0.0
Tb80 Tb 0.63324 0.55698 0.82608 0.0
Tb81 Tb 0.67869 0.6558 0.83321 0.0
C82 C 0.65844 0.61275 0.79024 0.0
C83 C 0.60544 0.44768 0.83066 0.0
C84 C 0.61837 0.38591 0.84596 0.0
C85 C 0.6518 0.42177 0.83885 0.0
C86 C 0.64546 0.45267 0.83138 0.0
C87 C 0.57253 0.41283 0.83853 0.0
C88 C 0.57892 0.38225 0.84618 0.0
C89 C 0.59732 0.47879 0.82236 0.0
O90 O 0.7 0.57585 0.82502 0.0
O91 O 0.73143 0.64445 0.83749 0.0
O92 O 0.65112 0.62751 0.86086 0.0
O93 O 0.66134 0.57275 0.85579 0.0
O94 O 0.69532 0.71385 0.8223 0.0
O95 O 0.70767 0.70928 0.85317 0.0
O96 O 0.61299 0.63639 0.82638 0.0
O97 O 0.58324 0.56956 0.83538 0.0
O98 O 0.62788 0.58025 0.79784 0.0
O99 O 0.68788 0.6425 0.80208 0.0
C100 C 0.73367 0.61071 0.83199 0.0
O101 O 0.58756 0.49944 0.83538 0.0
O102 O 0.62328 0.50283 0.80958 0.0
C103 C 0.65611 0.59807 0.86796 0.0
C104 C 0.67685 0.74946 0.84574 0.0
C105 C 0.61505 0.77238 0.84574 0.0
C106 C 0.65576 0.80044 0.84024 0.0
C107 C 0.68625 0.78883 0.84 0.0
C108 C 0.63763 0.72316 0.85315 0.0
C109 C 0.60699 0.73439 0.85308 0.0
C110 C 0.70359 0.73208 0.84022 0.0
C111 C 0.58003 0.60248 0.83179 0.0
H112 H 0.68244 0.42517 0.83846 0.0
H113 H 0.67156 0.47988 0.82577 0.0
H114 H 0.54159 0.40879 0.83835 0.0
H115 H 0.55241 0.35455 0.8512 0.0
H116 H 0.66347 0.8305 0.83504 0.0
H117 H 0.71625 0.80952 0.83419 0.0
H118 H 0.62959 0.6925 0.85763 0.0
H119 H 0.57617 0.71181 0.85735 0.0
C120 C 0.67852 0.15874 0.2952 0.0
C121 C 0.67285 0.1223 0.3036 0.0
C122 C 0.67516 0.16025 0.27444 0.0
C123 C 0.66566 0.12525 0.26147 0.0
C124 C 0.66062 0.0891 0.26981 0.0
C125 C 0.66433 0.08769 0.29051 0.0
C126 C 0.6598 0.12575 0.23939 0.0
C127 C 0.6877 0.15988 0.22889 0.0
C128 C 0.68336 0.16043 0.20803 0.0
C129 C 0.64862 0.12487 0.19759 0.0
C130 C 0.61938 0.08982 0.20808 0.0
C131 C 0.62609 0.09158 0.22889 0.0
C132 C 0.58142 1.05023 0.19869 0.0
C133 C 0.55022 1.0509 0.1868 0.0
C134 C 0.57275 1.0107 0.20458 0.0
C135 C 0.53424 0.9741 0.19984 0.0
C136 C 0.50212 0.97475 0.1888 0.0
C137 C 0.71632 0.19913 0.19839 0.0
C138 C 0.72404 0.23918 0.20525 0.0
C139 C 0.74531 0.19784 0.18542 0.0
C140 C 0.78111 0.23501 0.18009 0.0
C141 C 0.78958 0.27529 0.18747 0.0
C142 C 0.75936 0.27617 0.1998 0.0
C143 C 0.51142 1.01387 0.18188 0.0
H144 H 0.68451 0.18591 0.30467 0.0
H145 H 0.67887 0.18848 0.26858 0.0
H146 H 0.65397 0.06176 0.26029 0.0
H147 H 0.66067 0.05936 0.29621 0.0
H148 H 0.71391 0.18604 0.23702 0.0
H149 H 0.60405 0.06605 0.23723 0.0
H150 H 0.64451 0.12447 0.1816 0.0
H151 H 0.55491 0.08036 0.18211 0.0
H152 H 0.59561 1.00818 0.21359 0.0
H153 H 0.52957 0.94506 0.20512 0.0
H154 H 0.70303 0.24194 0.21543 0.0
H155 H 0.74147 0.16794 0.18015 0.0
H156 H 0.48801 1.01634 0.17334 0.0
H157 H 0.76294 0.30563 0.20558 0.0
H158 H 0.803 0.23182 0.17076 0.0
C159 C 0.62877 0.61903 0.62766 0.0
C160 C 0.65827 0.61343 0.63833 0.0
C161 C 0.6271 0.617 0.60671 0.0
C162 C 0.65454 0.60882 0.59572 0.0
C163 C 0.68402 0.60323 0.60632 0.0
C164 C 0.68602 0.60572 0.62726 0.0
C165 C 0.65224 0.60579 0.57333 0.0
C166 C 0.64807 0.63532 0.56281 0.0
C167 C 0.646 0.63361 0.54176 0.0
C168 C 0.64789 0.59983 0.53109 0.0
C169 C 0.65194 0.56904 0.54155 0.0
C170 C 0.65419 0.57326 0.56259 0.0
C171 C 0.65407 0.53175 0.53186 0.0
C172 C 0.62221 0.50067 0.51888 0.0
C173 C 0.68506 0.52317 0.53852 0.0
C174 C 0.68356 0.48497 0.53323 0.0
C175 C 0.65078 0.45286 0.52103 0.0
C176 C 0.64184 0.66813 0.53224 0.0
C177 C 0.61273 0.67914 0.53939 0.0
C178 C 0.67028 0.69474 0.5187 0.0
C179 C 0.67054 0.73155 0.51327 0.0
C180 C 0.6424 0.74344 0.52117 0.0
C181 C 0.6129 0.71556 0.53399 0.0
C182 C 0.62063 0.46211 0.51355 0.0
H183 H 0.60628 0.62424 0.63544 0.0
H184 H 0.60366 0.62097 0.59908 0.0
H185 H 0.70604 0.59745 0.59839 0.0
H186 H 0.70979 0.60207 0.63474 0.0
H187 H 0.64745 0.66078 0.57123 0.0
H188 H 0.65649 0.55011 0.57082 0.0
H189 H 0.64622 0.59753 0.51494 0.0
H190 H 0.59725 0.50522 0.51362 0.0
H191 H 0.71024 0.54587 0.54851 0.0
H192 H 0.70826 0.48057 0.53901 0.0
H193 H 0.5901 0.65985 0.54978 0.0
H194 H 0.69374 0.68826 0.51302 0.0
H195 H 0.59461 0.43881 0.50419 0.0
H196 H 0.5897 0.72191 0.54013 0.0
H197 H 0.69407 0.75155 0.50344 0.0
C198 C 0.19178 0.63466 0.96196 0.0
C199 C 0.1558 0.60612 0.97141 0.0
C200 C 0.19281 0.63461 0.94107 0.0
C201 C 0.15778 0.60633 0.92895 0.0
C202 C 0.12193 0.57766 0.93832 0.0
C203 C 0.12101 0.57741 0.95918 0.0
C204 C 0.15821 0.60706 0.90665 0.0
C205 C 0.19218 0.61023 0.89627 0.0
C206 C 0.19313 0.61019 0.87527 0.0
C207 C 0.15798 0.60749 0.86453 0.0
C208 C 0.12301 0.6047 0.87489 0.0
C209 C 0.12435 0.60444 0.89585 0.0
C210 C 0.08387 0.60161 0.86523 0.0
C211 C 0.08491 0.63242 0.85338 0.0
C212 C 1.0442 0.57112 0.87105 0.0
C213 C 1.00771 0.5722 0.86611 0.0
C214 C 1.00861 0.60396 0.85505 0.0
C215 C 0.23184 0.61304 0.8659 0.0
C216 C 0.27184 0.64512 0.87279 0.0
C217 C 0.23031 0.58065 0.85317 0.0
C218 C 0.26706 0.57977 0.84818 0.0
C219 C 0.30716 0.61128 0.85568 0.0
C220 C 0.3084 0.64447 0.86772 0.0
C221 C 1.04808 0.63351 0.84835 0.0
H222 H 0.21904 0.65777 0.9707 0.0
H223 H 0.2208 0.65743 0.9344 0.0
H224 H 0.09456 0.55499 0.92948 0.0
H225 H 0.09299 0.55429 0.9657 0.0
H226 H 0.21795 0.61166 0.90468 0.0
H227 H 0.09879 0.60306 0.90404 0.0
H228 H 0.15783 0.60751 0.84843 0.0
H229 H 0.11449 0.65702 0.84882 0.0
H230 H 1.04148 0.54675 0.88017 0.0
H231 H 0.97857 0.54798 0.87125 0.0
H232 H 0.27487 0.67056 0.88274 0.0
H233 H 0.20045 0.55475 0.84784 0.0
H234 H 1.05097 0.65873 0.83986 0.0
H235 H 0.33783 0.67024 0.87356 0.0
H236 H 0.26363 0.55324 0.83901 0.0
C237 C 1.04563 0.63616 0.35326 0.0
C238 C 1.06721 0.61585 0.34674 0.0
C239 C 1.03404 0.63496 0.37306 0.0
C240 C 1.04418 0.61378 0.38673 0.0
C241 C 1.065 0.59279 0.38008 0.0
C242 C 1.07631 0.59374 0.3603 0.0
C243 C 1.03531 0.61524 0.40812 0.0
C244 C 0.99624 0.60793 0.41416 0.0
C245 C 0.98853 0.60882 0.43455 0.0
C246 C 1.01975 0.61612 0.44877 0.0
C247 C 1.05901 0.62415 0.44307 0.0
C248 C 1.06655 0.62398 0.42265 0.0
C249 C 0.0925 0.63427 0.45841 0.0
C250 C 0.09552 0.65722 0.47637 0.0
C251 C 0.12322 0.62348 0.45478 0.0
C252 C 0.15818 0.63896 0.46768 0.0
C253 C 0.16282 0.66496 0.48471 0.0
C254 C 0.947 0.59761 0.44171 0.0
C255 C 0.94377 0.62061 0.45824 0.0
C256 C 0.91279 0.55858 0.43563 0.0
C257 C 0.87883 0.54002 0.44777 0.0
C258 C 0.87895 0.56026 0.46614 0.0
C259 C 0.90996 0.60198 0.47044 0.0
C260 C 0.12994 0.67178 0.48949 0.0
H261 H 1.03777 0.65302 0.34306 0.0
H262 H 1.01821 0.65156 0.37781 0.0
H263 H 1.07288 0.57588 0.39025 0.0
H264 H 0.09306 0.57797 0.35575 0.0
H265 H 0.97178 0.60085 0.40311 0.0
H266 H 0.09715 0.63158 0.41793 0.0
H267 H 1.01284 0.61422 0.46443 0.0
H268 H 1.07266 0.66626 0.47982 0.0
H269 H 0.12126 0.60458 0.4415 0.0
H270 H 0.18285 0.63302 0.46347 0.0
H271 H 0.9696 0.65113 0.46302 0.0
H272 H 0.91447 0.54026 0.42293 0.0
H273 H 0.1321 0.69091 0.50273 0.0
H274 H 0.91055 0.61838 0.4844 0.0
H275 H 0.85538 0.50776 0.44406 0.0
C276 C 0.48986 0.97979 0.67072 0.0
C277 C 0.5293 1.01503 0.66928 0.0
C278 C 0.4723 0.9691 0.68932 0.0
C279 C 0.49419 0.99317 0.70682 0.0
C280 C 0.53434 1.02765 0.70523 0.0
C281 C 0.55143 1.03873 0.68666 0.0
C282 C 0.47565 0.98292 0.72671 0.0
C283 C 0.45137 0.94121 0.73174 0.0
C284 C 0.4375 0.93208 0.75124 0.0
C285 C 0.44769 0.9652 0.76554 0.0
C286 C 0.47191 1.00656 0.76082 0.0
C287 C 0.48488 1.01528 0.74135 0.0
C288 C 0.48781 1.04025 0.77689 0.0
C289 C 0.46088 1.04284 0.79062 0.0
C290 C 0.53059 0.06873 0.77916 0.0
C291 C 0.54615 0.09986 0.79467 0.0
C292 C 0.51915 0.10327 0.80806 0.0
C293 C 0.42002 0.8894 0.75827 0.0
C294 C 0.39255 0.87713 0.77404 0.0
C295 C 0.43854 0.86547 0.75287 0.0
C296 C 0.43489 0.8344 0.76488 0.0
C297 C 0.4132 0.82729 0.78254 0.0
C298 C 0.38988 0.84687 0.78638 0.0
C299 C 0.47641 0.07436 0.80601 0.0
H300 H 0.47224 0.96118 0.65741 0.0
H301 H 0.44129 0.94256 0.68992 0.0
H302 H 0.55286 1.04616 0.71835 0.0
H303 H 0.58213 0.06572 0.68587 0.0
H304 H 0.44509 0.91592 0.72084 0.0
H305 H 0.50311 1.04758 0.7378 0.0
H306 H 0.43997 0.95902 0.78095 0.0
H307 H 0.42779 1.02096 0.78921 0.0
H308 H 0.55204 0.06682 0.76897 0.0
H309 H 0.57914 0.12223 0.79575 0.0
H310 H 0.37681 0.89415 0.77819 0.0
H311 H 0.45984 0.87383 0.74086 0.0
H312 H 0.45502 0.07661 0.81612 0.0
H313 H 0.37276 0.84159 0.79987 0.0
H314 H 0.45329 0.81971 0.76168 0.0
C315 C 0.57326 0.42602 0.99834 0.0
C316 C 0.56837 0.4609 0.99645 0.0
C317 C 0.56138 0.40409 0.01561 0.0
C318 C 0.54354 0.41617 0.03098 0.0
C319 C 0.53801 0.4506 0.02888 0.0
C320 C 0.55063 0.47298 0.01184 0.0
C321 C 0.53289 0.39488 0.04979 0.0
C322 C 0.56396 0.3939 0.06141 0.0
C323 C 0.55663 0.38186 0.08107 0.0
C324 C 0.51726 0.36834 0.08858 0.0
C325 C 0.48608 0.36968 0.07731 0.0
C326 C 0.49387 0.38215 0.05771 0.0
C327 C 0.45019 0.36754 0.08775 0.0
C328 C 0.43167 0.33993 0.10288 0.0
C329 C 0.43984 0.39869 0.0853 0.0
C330 C 0.41461 0.40446 0.09871 0.0
C331 C 0.3992 0.3793 0.11491 0.0
C332 C 0.59183 0.39222 0.09512 0.0
C333 C 0.62171 0.38088 0.09057 0.0
C334 C 0.59707 0.41667 0.1128 0.0
C335 C 0.6321 0.43076 0.12536 0.0
C336 C 0.66279 0.42056 0.12068 0.0
C337 C 0.65674 0.39461 0.10335 0.0
C338 C 0.40661 0.34595 0.11645 0.0
H339 H 0.58709 0.41632 0.98665 0.0
H340 H 0.56615 0.3778 0.01699 0.0
H341 H 0.52485 0.46087 0.04068 0.0
H342 H 0.54648 0.49971 0.01066 0.0
H343 H 0.59495 0.40648 0.05588 0.0
H344 H 0.47046 0.38439 0.04901 0.0
H345 H 0.51252 0.36094 0.10405 0.0
H346 H 0.43863 0.31527 0.10497 0.0
H347 H 0.454 0.42101 0.07408 0.0
H348 H 0.40985 0.43073 0.09723 0.0
H349 H 0.61824 0.36199 0.07702 0.0
H350 H 0.57498 0.42668 0.11648 0.0
H351 H 0.39456 0.32572 0.12862 0.0
H352 H 0.67954 0.38574 0.0994 0.0
H353 H 0.63602 0.45153 0.13821 0.0
C354 C 0.35971 0.5271 0.18316 0.0
C355 C 0.31866 0.50985 0.18909 0.0
C356 C 0.37503 0.50126 0.17624 0.0
C357 C 0.34881 0.45741 0.17565 0.0
C358 C 0.31043 0.44034 0.18499 0.0
C359 C 0.29553 0.46679 0.19149 0.0
C360 C 0.41688 0.5208 0.16701 0.0
C361 C 0.28261 0.39381 0.18566 0.0
C362 C 0.35237 0.40537 0.12646 0.0
C363 C 0.37991 0.39142 0.13114 0.0
C364 C 0.34067 0.42528 0.14111 0.0
C365 C 0.35642 0.43078 0.16103 0.0
C366 C 0.38153 0.41375 0.16618 0.0
C367 C 0.39329 0.39449 0.1511 0.0
C368 C 0.31337 0.44258 0.13496 0.0
C369 C 0.39818 0.41799 0.18726 0.0
H370 H 0.3783 0.56051 0.18199 0.0
H371 H 0.26394 0.45297 0.19633 0.0
H372 H 0.43414 0.50496 0.17121 0.0
H373 H 0.41238 0.5172 0.15051 0.0
H374 H 0.43605 0.5546 0.1716 0.0
H375 H 0.25959 0.38612 0.19741 0.0
H376 H 0.2654 0.38068 0.17107 0.0
H377 H 0.30107 0.37843 0.18843 0.0
H378 H 0.34144 0.40235 0.11111 0.0
H379 H 0.41485 0.384 0.1548 0.0
H380 H 0.33055 0.47707 0.13764 0.0
H381 H 0.28546 0.43021 0.14404 0.0
H382 H 0.30301 0.43468 0.11896 0.0
H383 H 0.42756 0.44822 0.18974 0.0
H384 H 0.40507 0.39273 0.18997 0.0
H385 H 0.37607 0.41739 0.19837 0.0
C386 C 0.79602 0.36317 0.52962 0.0
C387 C 0.81054 0.34384 0.51592 0.0
C388 C 0.79952 0.40191 0.52617 0.0
C389 C 0.81802 0.42165 0.50866 0.0
C390 C 0.83283 0.40229 0.49488 0.0
C391 C 0.82868 0.36372 0.49863 0.0
C392 C 0.78248 0.42107 0.54092 0.0
C393 C 0.85311 0.4222 0.47601 0.0
C394 C 0.81456 0.50219 0.47926 0.0
C395 C 0.85584 0.53419 0.48251 0.0
C396 C 0.79834 0.46709 0.49056 0.0
C397 C 0.82473 0.46362 0.50474 0.0
C398 C 0.86384 0.49891 0.51029 0.0
C399 C 0.8788 0.53408 0.49918 0.0
C400 C 0.7552 0.43149 0.48529 0.0
C401 C 0.89295 0.49715 0.52552 0.0
H402 H 0.78167 0.34791 0.54296 0.0
H403 H 0.83876 0.34855 0.48764 0.0
H404 H 0.8058 0.45415 0.54508 0.0
H405 H 0.7552 0.42078 0.53393 0.0
H406 H 0.77274 0.40394 0.55469 0.0
H407 H 0.8639 0.40348 0.46718 0.0
H408 H 0.83079 0.42588 0.46648 0.0
H409 H 0.88023 0.45373 0.47972 0.0
H410 H 0.79642 0.50269 0.46665 0.0
H411 H 0.91071 0.55893 0.50192 0.0
H412 H 0.73945 0.41651 0.49888 0.0
H413 H 0.75726 0.40792 0.47524 0.0
H414 H 0.73599 0.44205 0.47747 0.0
H415 H 0.87593 0.47891 0.53816 0.0
H416 H 0.91708 0.52891 0.53142 0.0
H417 H 0.90884 0.48158 0.51834 0.0
C418 C 0.54547 0.76556 0.85326 0.0
C419 C 0.58008 0.7799 0.84122 0.0
C420 C 0.51032 0.76808 0.84751 0.0
C421 C 0.51005 0.78579 0.82943 0.0
C422 C 0.54536 0.80152 0.8176 0.0
C423 C 0.57956 0.79799 0.82352 0.0
C424 C 0.47296 0.7502 0.86029 0.0
C425 C 0.54675 0.82127 0.79831 0.0
C426 C 0.42178 0.77037 0.79555 0.0
C427 C 0.4247 0.80928 0.79875 0.0
C428 C 0.44551 0.75947 0.80751 0.0
C429 C 0.4736 0.78882 0.8225 0.0
C430 C 0.47278 0.82606 0.82722 0.0
C431 C 0.44794 0.83568 0.81534 0.0
C432 C 0.44323 0.7182 0.80291 0.0
C433 C 0.50219 0.85841 0.84295 0.0
H434 H 0.54546 0.7516 0.867 0.0
H435 H 0.60538 0.80814 0.81377 0.0
H436 H 0.46114 0.7722 0.86259 0.0
H437 H 0.44759 0.72118 0.85259 0.0
H438 H 0.48002 0.74264 0.87508 0.0
H439 H 0.57745 0.83409 0.79148 0.0
H440 H 0.52274 0.79772 0.78744 0.0
H441 H 0.53983 0.84693 0.80095 0.0
H442 H 0.4034 0.74991 0.7828 0.0
H443 H 0.45034 0.86598 0.81772 0.0
H444 H 0.47402 0.72332 0.79854 0.0
H445 H 0.41998 0.69904 0.79069 0.0
H446 H 0.4345 0.70042 0.81646 0.0
H447 H 0.50475 0.84363 0.85638 0.0
H448 H 0.49222 0.88124 0.84745 0.0
H449 H 0.5336 0.8757 0.8369 0.0
C450 C 0.87123 0.60143 0.16534 0.0
C451 C 0.90102 0.59129 0.1715 0.0
C452 C 0.82982 0.57027 0.16128 0.0
C453 C 0.81798 0.52814 0.16363 0.0
C454 C 0.84661 0.51833 0.17218 0.0
C455 C 0.88803 0.55001 0.17585 0.0
C456 C 0.79965 0.58206 0.15283 0.0
C457 C 0.83409 0.47393 0.17597 0.0
C458 C 0.70363 0.45015 0.15331 0.0
C459 C 0.70271 0.44114 0.13265 0.0
C460 C 0.74116 0.47693 0.16401 0.0
C461 C 0.77862 0.49451 0.15383 0.0
C462 C 0.77826 0.48268 0.1334 0.0
C463 C 0.74031 0.45645 0.12302 0.0
C464 C 0.74 0.48847 0.18578 0.0
C465 C 0.81782 0.49981 0.12214 0.0
H466 H 0.88077 0.63346 0.1626 0.0
H467 H 0.91065 0.54174 0.18076 0.0
H468 H 0.79313 0.57171 0.13673 0.0
H469 H 0.76975 0.56617 0.16036 0.0
H470 H 0.812 0.61628 0.15443 0.0
H471 H 0.85905 0.47185 0.18409 0.0
H472 H 0.80583 0.4599 0.18481 0.0
H473 H 0.82626 0.45495 0.16157 0.0
H474 H 0.6748 0.43764 0.16101 0.0
H475 H 0.74013 0.45007 0.10709 0.0
H476 H 0.73768 0.51718 0.1871 0.0
H477 H 0.76848 0.49488 0.19433 0.0
H478 H 0.71254 0.46341 0.19273 0.0
H479 H 0.8314 0.53395 0.12122 0.0
H480 H 0.81251 0.48504 0.10675 0.0
H481 H 0.84104 0.49483 0.13016 0.0
C482 C 0.39651 0.84094 0.5111 0.0
C483 C 0.40496 0.85302 0.4915 0.0
C484 C 0.36117 0.8031 0.51501 0.0
C485 C 0.33369 0.77763 0.49896 0.0
C486 C 0.345 0.78741 0.47907 0.0
C487 C 0.38069 0.82497 0.47561 0.0
C488 C 0.35133 0.79264 0.53636 0.0
C489 C 0.31704 0.76074 0.46143 0.0
C490 C 0.23213 0.67634 0.49704 0.0
C491 C 0.20446 0.69135 0.49477 0.0
C492 C 0.27474 0.70407 0.50102 0.0
C493 C 0.28965 0.7475 0.50244 0.0
C494 C 0.26119 0.76229 0.50268 0.0
C495 C 0.21898 0.73403 0.49885 0.0
C496 C 0.3039 0.68696 0.50181 0.0
C497 C 0.2756 0.80841 0.50444 0.0
H498 H 0.41563 0.86231 0.52346 0.0
H499 H 0.3881 0.83374 0.46043 0.0
H500 H 0.33212 0.80581 0.54206 0.0
H501 H 0.33364 0.75839 0.53765 0.0
H502 H 0.38017 0.80637 0.54601 0.0
H503 H 0.33234 0.77047 0.44704 0.0
H504 H 0.30746 0.72751 0.46277 0.0
H505 H 0.28847 0.76315 0.46105 0.0
H506 H 0.22097 0.64324 0.49448 0.0
H507 H 0.19811 0.74618 0.49712 0.0
H508 H 0.33196 0.70752 0.5115 0.0
H509 H 0.31406 0.68465 0.48657 0.0
H510 H 0.2882 0.65517 0.50735 0.0
H511 H 0.29814 0.82423 0.51726 0.0
H512 H 0.24941 0.81445 0.50639 0.0
H513 H 0.2915 0.82281 0.49074 0.0
C514 C 0.60209 0.3245 0.86548 0.0
C515 C 0.62194 0.34889 0.84955 0.0
C516 C 0.59206 0.28264 0.86498 0.0
C517 C 0.60109 0.26506 0.84792 0.0
C518 C 0.62659 0.29127 0.83336 0.0
C519 C 0.63699 0.33316 0.83445 0.0
C520 C 0.56749 0.2562 0.88149 0.0
C521 C 0.63773 0.27396 0.8151 0.0
C522 C 0.57136 0.15322 0.8342 0.0
C523 C 0.53521 0.14017 0.82231 0.0
C524 C 0.59133 0.19264 0.84459 0.0
C525 C 0.57535 0.21977 0.84238 0.0
C526 C 0.53702 0.20526 0.83165 0.0
C527 C 0.51723 0.16541 0.82191 0.0
C528 C 0.63086 0.20595 0.8567 0.0
C529 C 0.51873 0.23312 0.82884 0.0
H530 H 0.59136 0.33707 0.87745 0.0
H531 H 0.65265 0.35208 0.82219 0.0
H532 H 0.53384 0.24076 0.87737 0.0
H533 H 0.57529 0.23148 0.88391 0.0
H534 H 0.57332 0.27549 0.89568 0.0
H535 H 0.66163 0.29906 0.8065 0.0
H536 H 0.64953 0.2532 0.81935 0.0
H537 H 0.60953 0.25513 0.8052 0.0
H538 H 0.58491 0.13329 0.83472 0.0
H539 H 0.48934 0.15531 0.81266 0.0
H540 H 0.63645 0.23002 0.8688 0.0
H541 H 0.65752 0.21912 0.84681 0.0
H542 H 0.62993 0.17877 0.86339 0.0
H543 H 0.51511 0.24594 0.84348 0.0
H544 H 0.48791 0.21636 0.82075 0.0
H545 H 0.53997 0.25989 0.82024 0.0
C546 C 0.6836 0.98053 0.50583 0.0
C547 C 0.64872 0.98096 0.49763 0.0
C548 C 0.68326 0.9427 0.50915 0.0
C549 C 0.64713 0.90319 0.50431 0.0
C550 C 0.61188 0.90339 0.49594 0.0
C551 C 0.61309 0.9417 0.49273 0.0
C552 C 0.7218 0.94512 0.51811 0.0
C553 C 0.57238 0.86285 0.4905 0.0
C554 C 0.6568 0.80293 0.49827 0.0
C555 C 0.64396 0.78461 0.51667 0.0
C556 C 0.65783 0.84079 0.49407 0.0
C557 C 0.64593 0.86208 0.50848 0.0
C558 C 0.63316 0.84393 0.52707 0.0
C559 C 0.6324 0.80613 0.53088 0.0
C560 C 0.6716 0.85802 0.474 0.0
C561 C 0.62034 0.86469 0.54316 0.0
H562 H 0.71147 1.01005 0.50985 0.0
H563 H 0.58561 0.94077 0.48652 0.0
H564 H 0.7148 0.93038 0.53256 0.0
H565 H 0.73211 0.92751 0.50814 0.0
H566 H 0.74776 0.97777 0.52067 0.0
H567 H 0.54776 0.86775 0.48392 0.0
H568 H 0.57874 0.84329 0.47965 0.0
H569 H 0.5605 0.84509 0.50396 0.0
H570 H 0.66553 0.78732 0.48688 0.0
H571 H 0.62322 0.7938 0.54535 0.0
H572 H 0.69885 0.89001 0.47597 0.0
H573 H 0.64641 0.86034 0.46627 0.0
H574 H 0.68001 0.83836 0.46432 0.0
H575 H 0.6465 0.89652 0.5474 0.0
H576 H 0.61068 0.84685 0.55672 0.0
H577 H 0.59418 0.8681 0.53747 0.0
C578 C 0.81105 0.64604 0.84326 0.0
C579 C 0.77496 0.61109 0.83444 0.0
C580 C 0.8491 0.64603 0.84627 0.0
C581 C 0.85231 0.61028 0.84033 0.0
C582 C 0.8161 0.57507 0.83125 0.0
C583 C 0.77842 0.57585 0.8285 0.0
C584 C 0.88598 0.68443 0.85611 0.0
C585 C 0.81698 0.53607 0.82451 0.0
C586 C 0.9615 0.62109 0.83351 0.0
C587 C 0.96887 0.60633 0.85117 0.0
C588 C 0.92434 0.62252 0.82981 0.0
C589 C 0.89284 0.60928 0.84407 0.0
C590 C 0.90026 0.5948 0.86198 0.0
C591 C 0.93749 0.59348 0.86524 0.0
C592 C 0.91861 0.63797 0.81041 0.0
C593 C 0.86866 0.58064 0.8779 0.0
H594 H 0.80956 0.6736 0.84809 0.0
H595 H 0.75137 0.54838 0.82171 0.0
H596 H 0.89559 0.67657 0.87016 0.0
H597 H 0.9127 0.69588 0.84626 0.0
H598 H 0.87924 0.71003 0.85961 0.0
H599 H 0.78697 0.51162 0.81726 0.0
H600 H 0.84191 0.54365 0.81382 0.0
H601 H 0.82421 0.52316 0.83747 0.0
H602 H 0.98455 0.63091 0.82225 0.0
H603 H 0.94218 0.58277 0.87918 0.0
H604 H 0.91397 0.66504 0.8134 0.0
H605 H 0.89033 0.61314 0.80208 0.0
H606 H 0.9456 0.64744 0.80082 0.0
H607 H 0.8631 0.60639 0.88291 0.0
H608 H 0.87866 0.57047 0.89107 0.0
H609 H 0.8386 0.55432 0.87173 0.0
C610 C 0.29644 0.74206 0.16538 0.0
C611 C 0.25851 0.74012 0.16976 0.0
C612 C 0.33531 0.77995 0.16783 0.0
C613 C 0.3375 0.81779 0.17517 0.0
C614 C 0.29934 0.81604 0.17965 0.0
C615 C 0.26081 0.77782 0.1768 0.0
C616 C 0.37433 0.77939 0.16255 0.0
C617 C 0.29919 0.8547 0.18774 0.0
C618 C 0.44193 0.90609 0.19999 0.0
C619 C 0.45938 0.93504 0.1852 0.0
C620 C 0.40281 0.86872 0.19702 0.0
C621 C 0.37948 0.85861 0.17862 0.0
C622 C 0.39673 0.88766 0.16361 0.0
C623 C 0.4358 0.9252 0.16709 0.0
C624 C 0.38631 0.83991 0.21376 0.0
C625 C 0.37405 0.87881 0.14364 0.0
H626 H 0.29584 0.71375 0.15987 0.0
H627 H 0.23232 0.77747 0.18038 0.0
H628 H 0.39117 0.80257 0.15143 0.0
H629 H 0.39535 0.78849 0.17599 0.0
H630 H 0.36776 0.7482 0.15634 0.0
H631 H 0.26734 0.84873 0.19048 0.0
H632 H 0.31808 0.86683 0.20195 0.0
H633 H 0.31362 0.8795 0.17713 0.0
H634 H 0.45872 0.91289 0.21423 0.0
H635 H 0.44832 0.94648 0.15533 0.0
H636 H 0.38204 0.80891 0.20886 0.0
H637 H 0.35542 0.83511 0.21773 0.0
H638 H 0.40735 0.85221 0.22732 0.0
H639 H 0.36936 0.84902 0.13647 0.0
H640 H 0.39111 0.90402 0.13344 0.0
H641 H 0.34284 0.87508 0.14567 0.0
C642 C 0.60527 0.21035 0.50698 0.0
C643 C 0.6391 0.20808 0.49906 0.0
C644 C 0.60587 0.24905 0.51017 0.0
C645 C 0.64091 0.28721 0.50518 0.0
C646 C 0.67471 0.28477 0.49687 0.0
C647 C 0.67353 0.24593 0.49408 0.0
C648 C 0.56895 0.2491 0.51915 0.0
C649 C 0.7124 0.32341 0.49073 0.0
C650 C 0.63086 0.3859 0.4986 0.0
C651 C 0.64788 0.41015 0.51678 0.0
C652 C 0.62834 0.34644 0.49466 0.0
C653 C 0.64288 0.32954 0.50917 0.0
C654 C 0.65997 0.35372 0.52753 0.0
C655 C 0.66221 0.39305 0.53106 0.0
C656 C 0.61024 0.32283 0.47476 0.0
C657 C 0.67593 0.33788 0.54364 0.0
H658 H 0.57837 0.18184 0.51103 0.0
H659 H 0.69998 0.24531 0.48785 0.0
H660 H 0.57868 0.26841 0.53349 0.0
H661 H 0.55646 0.26337 0.50909 0.0
H662 H 0.54371 0.21718 0.52189 0.0
H663 H 0.73715 0.31724 0.48551 0.0
H664 H 0.70329 0.33655 0.47852 0.0
H665 H 0.72509 0.34719 0.50345 0.0
H666 H 0.61998 0.39805 0.48716 0.0
H667 H 0.67483 0.41017 0.54535 0.0
H668 H 0.58394 0.29121 0.47697 0.0
H669 H 0.63403 0.31877 0.46675 0.0
H670 H 0.59907 0.33906 0.4652 0.0
H671 H 0.6504 0.30776 0.54826 0.0
H672 H 0.68895 0.3602 0.55699 0.0
H673 H 0.70042 0.33193 0.5378 0.0
C674 C 0.5335 0.63444 0.82777 0.0
C675 C 0.53907 0.60214 0.83444 0.0
C676 C 0.49623 0.63558 0.83059 0.0
C677 C 0.46255 0.60385 0.8405 0.0
C678 C 0.4679 0.57095 0.84719 0.0
C679 C 0.50553 0.57039 0.84406 0.0
C680 C 0.49283 0.67078 0.82255 0.0
C681 C 0.43379 0.53625 0.85788 0.0
C682 C 0.3818 0.62795 0.86527 0.0
C683 C 0.34708 0.60937 0.85157 0.0
C684 C 0.41885 0.62655 0.86182 0.0
C685 C 0.42253 0.60564 0.84425 0.0
C686 C 0.38786 0.58687 0.83032 0.0
C687 C 0.35117 0.58894 0.83406 0.0
C688 C 0.45441 0.64765 0.87718 0.0
C689 C 0.38958 0.56463 0.81121 0.0
H690 H 0.55851 0.65919 0.82021 0.0
H691 H 0.50883 0.54516 0.84945 0.0
H692 H 0.48016 0.68372 0.83386 0.0
H693 H 0.52315 0.69628 0.81801 0.0
H694 H 0.47096 0.65848 0.80933 0.0
H695 H 0.44191 0.51245 0.86188 0.0
H696 H 0.42727 0.54931 0.87171 0.0
H697 H 0.40477 0.52071 0.84835 0.0
H698 H 0.38005 0.64333 0.87907 0.0
H699 H 0.32575 0.57483 0.82297 0.0
H700 H 0.48301 0.67058 0.87012 0.0
H701 H 0.46083 0.62415 0.8833 0.0
H702 H 0.44791 0.66407 0.88971 0.0
H703 H 0.41475 0.58704 0.80213 0.0
H704 H 0.35989 0.55005 0.80218 0.0
H705 H 0.39701 0.54005 0.81455 0.0
C706 C 0.98629 0.5023 0.15775 0.0
C707 C 1.02451 0.50893 0.16571 0.0
C708 C 0.94803 0.46478 0.16017 0.0
C709 C 0.94684 0.43231 0.17114 0.0
C710 C 0.98543 0.43876 0.17899 0.0
C711 C 1.02317 0.47633 0.1762 0.0
C712 C 0.90926 0.46009 0.15026 0.0
C713 C 0.98701 0.4056 0.19038 0.0
C714 C 0.8469 0.35186 0.1963 0.0
C715 C 0.82966 0.3158 0.18293 0.0
C716 C 0.88378 0.38951 0.19246 0.0
C717 C 0.90581 0.39229 0.17491 0.0
C718 C 0.88875 0.35631 0.16129 0.0
C719 C 0.85142 0.31911 0.16536 0.0
C720 C 0.89946 0.42642 0.20752 0.0
C721 C 0.91004 0.35713 0.14223 0.0
H722 H 0.98613 0.52642 0.14941 0.0
H723 H 1.05192 0.48024 0.18252 0.0
H724 H 0.90822 0.4506 0.13422 0.0
H725 H 0.8805 0.43624 0.15678 0.0
H726 H 0.90981 0.49036 0.15113 0.0
H727 H 1.01928 0.41404 0.19478 0.0
H728 H 0.96909 0.4005 0.20404 0.0
H729 H 0.97235 0.37557 0.18116 0.0
H730 H 0.83204 0.35077 0.21017 0.0
H731 H 0.83913 0.29266 0.15449 0.0
H732 H 0.90914 0.45558 0.19998 0.0
H733 H 0.92713 0.43023 0.2159 0.0
H734 H 0.87567 0.4225 0.21837 0.0
H735 H 0.91091 0.38146 0.13302 0.0
H736 H 0.89413 0.32667 0.13334 0.0
H737 H 0.94267 0.36554 0.14566 0.0
C738 C 0.15754 0.65083 0.09012 0.0
C739 C 0.14757 0.61596 0.101 0.0
C740 C 0.15942 0.64891 0.06919 0.0
C741 C 0.15066 0.61104 0.05865 0.0
C742 C 0.14054 0.57568 0.06952 0.0
C743 C 0.13937 0.57861 0.09052 0.0
C744 C 0.17079 0.68755 0.05833 0.0
C745 C 0.13051 0.53455 0.05895 0.0
C746 C 0.11762 0.5977 0.00337 0.0
C747 C 0.15434 0.60657 0.99381 0.0
C748 C 0.11581 0.59826 0.02432 0.0
C749 C 0.1517 0.60849 0.03627 0.0
C750 C 0.18883 0.61742 0.02679 0.0
C751 C 0.18965 0.61612 0.00579 0.0
C752 C 1.07546 0.58831 0.0337 0.0
C753 C 0.22793 0.62874 0.03886 0.0
H754 H 0.16415 0.67994 0.09798 0.0
H755 H 0.1315 0.55142 0.09869 0.0
H756 H 0.19844 0.69562 0.04943 0.0
H757 H 0.14499 0.68155 0.04777 0.0
H758 H 0.17763 0.71483 0.06869 0.0
H759 H 0.12332 0.50999 0.06948 0.0
H760 H 0.10344 0.52369 0.04835 0.0
H761 H 0.15707 0.5385 0.05009 0.0
H762 H 0.09024 0.59098 0.9945 0.0
H763 H 0.21806 0.62234 0.99875 0.0
H764 H 1.07955 0.61591 0.04295 0.0
H765 H 1.06621 0.56258 0.04373 0.0
H766 H 1.04982 0.57907 0.02239 0.0
H767 H 0.23706 0.65709 0.04883 0.0
H768 H 0.25427 0.63469 0.02931 0.0
H769 H 0.22226 0.60322 0.04849 0.0
C770 C 0.69508 0.10087 0.42255 0.0
C771 C 0.66659 0.10909 0.4324 0.0
C772 C 0.69898 0.10334 0.40169 0.0
C773 C 0.67418 0.11476 0.39041 0.0
C774 C 0.64615 0.12402 0.4004 0.0
C775 C 0.64259 0.1209 0.42112 0.0
C776 C 0.72901 0.09287 0.39165 0.0
C777 C 0.61936 0.13676 0.38915 0.0
C778 C 0.7028 0.15488 0.33834 0.0
C779 C 0.6748 0.11997 0.32585 0.0
C780 C 0.70375 0.15336 0.35926 0.0
C781 C 0.67629 0.11594 0.3681 0.0
C782 C 0.64865 0.08034 0.35561 0.0
C783 C 0.64807 0.08284 0.33477 0.0
C784 C 0.73355 0.19217 0.37194 0.0
C785 C 0.61879 1.03976 0.36429 0.0
H786 H 0.71368 0.09162 0.43106 0.0
H787 H 0.62066 0.12768 0.42849 0.0
H788 H 0.71176 0.06534 0.3809 0.0
H789 H 0.75099 0.11919 0.38305 0.0
H790 H 0.74706 0.08591 0.40251 0.0
H791 H 0.60029 0.14451 0.39919 0.0
H792 H 0.63907 0.1643 0.38066 0.0
H793 H 0.59822 0.11108 0.37818 0.0
H794 H 0.72415 0.18359 0.33176 0.0
H795 H 0.62576 0.05575 0.3255 0.0
H796 H 0.75299 0.18537 0.38196 0.0
H797 H 0.71589 0.20254 0.38154 0.0
H798 H 0.75427 0.21822 0.36282 0.0
H799 H 0.63575 1.03035 0.37453 0.0
H800 H 0.60152 1.01407 0.35259 0.0
H801 H 0.596 1.0439 0.37318 0.0
C802 C 0.69542 0.64372 0.75889 0.0
C803 C 0.65935 0.61519 0.76808 0.0
C804 C 0.69665 0.64492 0.73792 0.0
C805 C 0.66079 0.61737 0.72576 0.0
C806 C 0.62412 0.58906 0.73501 0.0
C807 C 0.62394 0.58812 0.75593 0.0
C808 C 0.73656 0.67526 0.72876 0.0
C809 C 0.58496 0.55952 0.72277 0.0
C810 C 0.65067 0.64245 0.67213 0.0
C811 C 0.65985 0.61522 0.66082 0.0
C812 C 0.65114 0.64371 0.69316 0.0
C813 C 0.6616 0.61754 0.70338 0.0
C814 C 0.67153 0.59047 0.69212 0.0
C815 C 0.67025 0.58942 0.67111 0.0
C816 C 0.63997 0.6728 0.70446 0.0
C817 C 0.68308 0.56215 0.7023 0.0
H818 H 0.72301 0.66467 0.76806 0.0
H819 H 0.59577 0.5661 0.76279 0.0
H820 H 0.7473 0.65795 0.71884 0.0
H821 H 0.73124 0.69602 0.7194 0.0
H822 H 0.76162 0.69485 0.74019 0.0
H823 H 0.55864 0.54031 0.7322 0.0
H824 H 0.5758 0.57736 0.71324 0.0
H825 H 0.5906 0.53832 0.7127 0.0
H826 H 0.64331 0.66316 0.66458 0.0
H827 H 0.67673 0.56766 0.66275 0.0
H828 H 0.66595 0.69458 0.71499 0.0
H829 H 0.61256 0.6546 0.71345 0.0
H830 H 0.63277 0.69135 0.6944 0.0
H831 H 0.70933 0.58069 0.7133 0.0
H832 H 0.69207 0.5445 0.69155 0.0
H833 H 0.65647 0.53953 0.71062 0.0
C834 C 0.64653 0.09344 0.56708 0.0
C835 C 0.61608 0.07962 0.55163 0.0
C836 C 0.63525 0.08487 0.5869 0.0
C837 C 0.59263 0.06302 0.59128 0.0
C838 C 0.56192 1.05051 0.57575 0.0
C839 C 0.57403 0.05849 0.55611 0.0
C840 C 0.66878 0.09792 0.60304 0.0
C841 C 0.51619 1.02814 0.57984 0.0
C842 C 0.55302 1.00043 0.63681 0.0
C843 C 0.54713 1.02784 0.64965 0.0
C844 C 0.56974 1.01231 0.61808 0.0
C845 C 0.57965 1.05207 0.61194 0.0
C846 C 0.57401 0.07996 0.62498 0.0
C847 C 0.55823 0.06764 0.64382 0.0
C848 C 0.57609 0.98204 0.60473 0.0
C849 C 0.58316 0.12215 0.61878 0.0
H850 H 0.67904 0.10954 0.56356 0.0
H851 H 0.55044 1.04814 0.54417 0.0
H852 H 0.66539 0.11746 0.61513 0.0
H853 H 0.66557 0.06985 0.60978 0.0
H854 H 0.70044 0.11569 0.59728 0.0
H855 H 0.49644 1.02289 0.56626 0.0
H856 H 0.50697 0.99744 0.58568 0.0
H857 H 0.50973 1.04643 0.59141 0.0
H858 H 0.54477 0.96981 0.6415 0.0
H859 H 0.55346 0.08869 0.65381 0.0
H860 H 0.60821 0.99755 0.59942 0.0
H861 H 0.55464 0.97169 0.59138 0.0
H862 H 0.57045 0.95403 0.61243 0.0
H863 H 0.61544 0.13999 0.61383 0.0
H864 H 0.57899 0.14091 0.63103 0.0
H865 H 0.56218 0.11801 0.60592 0.0
C866 C 0.66997 0.57033 0.89801 0.0
C867 C 0.64904 0.58813 0.88896 0.0
C868 C 0.659 0.55391 0.91669 0.0
C869 C 0.6255 0.55431 0.92627 0.0
C870 C 0.60543 0.57394 0.91758 0.0
C871 C 0.61783 0.59113 0.89906 0.0
C872 C 0.68191 0.53426 0.92567 0.0
C873 C 0.56914 0.57435 0.92718 0.0
C874 C 0.56744 0.46509 0.95955 0.0
C875 C 0.58223 0.48507 0.97856 0.0
C876 C 0.5803 0.48763 0.94245 0.0
C877 C 0.6094 0.53098 0.94443 0.0
C878 C 0.62441 0.55131 0.96364 0.0
C879 C 0.61025 0.52813 0.98052 0.0
C880 C 0.56302 0.46496 0.92223 0.0
C881 C 0.65618 0.59721 0.96632 0.0
H882 H 0.69425 0.5682 0.89017 0.0
H883 H 0.60133 0.60448 0.89191 0.0
H884 H 0.6911 0.54574 0.94153 0.0
H885 H 0.66119 0.49993 0.92527 0.0
H886 H 0.71019 0.54092 0.91754 0.0
H887 H 0.55944 0.5941 0.91951 0.0
H888 H 0.54236 0.54204 0.92672 0.0
H889 H 0.57696 0.5859 0.94309 0.0
H890 H 0.54547 0.43184 0.95811 0.0
H891 H 0.62182 0.54345 0.99527 0.0
H892 H 0.58835 0.4657 0.91338 0.0
H893 H 0.54961 0.48078 0.91388 0.0
H894 H 0.53862 0.43186 0.92335 0.0
H895 H 0.68519 0.60316 0.95913 0.0
H896 H 0.66372 0.60858 0.98229 0.0
H897 H 0.64471 0.61573 0.95888 0.0
C898 C 0.15926 0.63167 0.23729 0.0
C899 C 0.12825 0.62596 0.22335 0.0
C900 C 0.1523 0.63061 0.25785 0.0
C901 C 0.11336 0.62335 0.26449 0.0
C902 C 0.08194 0.6173 0.25045 0.0
C903 C 0.0898 0.6188 0.23012 0.0
C904 C 0.18657 0.63739 0.27245 0.0
C905 C 1.03986 0.60913 0.25688 0.0
C906 C 1.07501 0.58214 0.31501 0.0
C907 C 0.0807 0.61809 0.32592 0.0
C908 C 0.08687 0.58367 0.29519 0.0
C909 C 0.10501 0.62211 0.2861 0.0
C910 C 0.11184 0.65871 0.2972 0.0
C911 C 0.09945 0.65623 0.31697 0.0
C912 C 1.07868 0.54389 0.28376 0.0
C913 C 0.13129 0.70031 0.28805 0.0
H914 H 0.18902 0.63722 0.23217 0.0
H915 H 1.06545 0.61401 0.21949 0.0
H916 H 0.19459 0.66472 0.28296 0.0
H917 H 0.17586 0.6099 0.28144 0.0
H918 H 0.21505 0.6427 0.26489 0.0
H919 H 1.01869 0.6047 0.24403 0.0
H920 H 1.02502 0.58081 0.26542 0.0
H921 H 1.04344 0.63561 0.26691 0.0
H922 H 1.06029 0.55254 0.32183 0.0
H923 H 0.10455 0.68422 0.32546 0.0
H924 H 0.10743 0.54823 0.27689 0.0
H925 H 1.05522 0.53583 0.27147 0.0
H926 H 1.06712 0.5172 0.29339 0.0
H927 H 0.16102 0.70714 0.28141 0.0
H928 H 0.13732 0.72631 0.29912 0.0
H929 H 0.11041 0.69924 0.27584 0.0
loop_
_geom_bond_atom_site_label_1
_geom_bond_atom_site_label_2
_geom_bond_distance
_geom_bond_site_symmetry_2
_ccdc_geom_bond_type
Tb0 C9 2.764 1_455 S
Tb0 O10 2.325 1_455 S
Tb0 O13 2.303 . S
Tb0 O17 2.322 . S
Tb0 O18 2.349 . S
Tb0 O21 2.415 1_455 S
Tb0 O22 2.399 1_455 S
Tb1 O11 2.322 . S
Tb1 O12 2.349 . S
Tb1 O14 2.415 . S
Tb1 O15 2.399 . S
Tb1 O16 2.325 . S
Tb1 O19 2.303 . S
Tb1 C30 2.764 . S
C2 O18 1.261 . S
C2 O19 1.257 . S
C3 C6 1.358 . S
C3 C7 1.332 . S
C3 C9 1.504 . S
C4 C5 1.373 . S
C4 C8 1.308 . S
C5 C4 1.373 . S
C5 C6 1.429 . S
C5 H32 0.932 . S
C6 C3 1.358 . S
C6 C5 1.429 . S
C6 H33 0.930 . S
C7 C3 1.332 . S
C7 C8 1.394 . S
C7 H34 0.932 . S
C8 C4 1.308 . S
C8 C7 1.394 . S
C8 H35 0.929 . S
C9 Tb0 2.764 1_655 S
C9 C3 1.504 . S
C9 O21 1.239 . S
C9 O22 1.263 . S
O10 Tb0 2.325 1_655 S
O10 C20 1.236 . S
O11 Tb1 2.322 . S
O11 C20 1.257 1_455 S
O12 Tb1 2.349 . S
O12 C23 1.261 . S
O13 Tb0 2.303 . S
O13 C23 1.257 . S
O14 Tb1 2.415 . S
O14 C30 1.239 . S
O15 Tb1 2.399 . S
O15 C30 1.263 . S
O16 Tb1 2.325 . S
O16 C31 1.236 . S
O17 Tb0 2.322 . S
O17 C31 1.257 . S
O18 Tb0 2.349 . S
O18 C2 1.261 . S
O19 Tb1 2.303 . S
O19 C2 1.257 . S
C20 O10 1.236 . S
C20 O11 1.257 1_655 S
O21 Tb0 2.415 1_655 S
O21 C9 1.239 . S
O22 Tb0 2.399 1_655 S
O22 C9 1.263 . S
C23 O12 1.261 . S
C23 O13 1.257 . S
C24 C27 1.358 . S
C24 C28 1.332 . S
C24 C30 1.504 . S
C25 C26 1.373 . S
C25 C29 1.308 . S
C26 C25 1.373 . S
C26 C27 1.429 . S
C26 H36 0.932 . S
C27 C24 1.358 . S
C27 C26 1.429 . S
C27 H37 0.930 . S
C28 C24 1.332 . S
C28 C29 1.394 . S
C28 H38 0.932 . S
C29 C25 1.308 . S
C29 C28 1.394 . S
C29 H39 0.929 . S
C30 Tb1 2.764 . S
C30 O14 1.239 . S
C30 O15 1.263 . S
C30 C24 1.504 . S
C31 O16 1.236 . S
C31 O17 1.257 . S
H32 C5 0.932 . S
H33 C6 0.930 . S
H34 C7 0.932 . S
H35 C8 0.929 . S
H36 C26 0.932 . S
H37 C27 0.930 . S
H38 C28 0.932 . S
H39 C29 0.929 . S
Tb40 C49 2.764 . S
Tb40 O50 2.325 . S
Tb40 O53 2.303 1_565 S
Tb40 O57 2.322 1_565 S
Tb40 O58 2.349 1_565 S
Tb40 O61 2.415 . S
Tb40 O62 2.399 . S
Tb41 O51 2.322 1_545 S
Tb41 O52 2.349 . S
Tb41 O54 2.415 . S
Tb41 O55 2.399 . S
Tb41 O56 2.325 . S
Tb41 O59 2.303 . S
Tb41 C70 2.764 . S
C42 O58 1.261 . S
C42 O59 1.257 . S
C43 C46 1.358 . S
C43 C47 1.332 . S
C43 C49 1.504 . S
C44 C45 1.373 . S
C44 C48 1.308 . S
C45 C44 1.373 . S
C45 C46 1.429 . S
C45 H72 0.932 . S
C46 C43 1.358 . S
C46 C45 1.429 . S
C46 H73 0.930 . S
C47 C43 1.332 . S
C47 C48 1.394 . S
C47 H74 0.932 . S
C48 C44 1.308 . S
C48 C47 1.394 . S
C48 H75 0.929 . S
C49 Tb40 2.764 . S
C49 C43 1.504 . S
C49 O61 1.239 . S
C49 O62 1.263 . S
O50 Tb40 2.325 . S
O50 C60 1.236 . S
O51 Tb41 2.322 1_565 S
O51 C60 1.257 . S
O52 Tb41 2.349 . S
O52 C63 1.261 . S
O53 Tb40 2.303 1_545 S
O53 C63 1.257 . S
O54 Tb41 2.415 . S
O54 C70 1.239 . S
O55 Tb41 2.399 . S
O55 C70 1.263 . S
O56 Tb41 2.325 . S
O56 C71 1.236 . S
O57 Tb40 2.322 1_545 S
O57 C71 1.257 . S
O58 Tb40 2.349 1_545 S
O58 C42 1.261 . S
O59 Tb41 2.303 . S
O59 C42 1.257 . S
C60 O50 1.236 . S
C60 O51 1.257 . S
O61 Tb40 2.415 . S
O61 C49 1.239 . S
O62 Tb40 2.399 . S
O62 C49 1.263 . S
C63 O52 1.261 . S
C63 O53 1.257 . S
C64 C67 1.358 . S
C64 C68 1.332 . S
C64 C70 1.504 . S
C65 C66 1.373 . S
C65 C69 1.308 . S
C66 C65 1.373 . S
C66 C67 1.429 . S
C66 H76 0.932 . S
C67 C64 1.358 . S
C67 C66 1.429 . S
C67 H77 0.930 . S
C68 C64 1.332 . S
C68 C69 1.394 . S
C68 H78 0.932 . S
C69 C65 1.308 . S
C69 C68 1.394 . S
C69 H79 0.929 . S
C70 Tb41 2.764 . S
C70 O54 1.239 . S
C70 O55 1.263 . S
C70 C64 1.504 . S
C71 O56 1.236 . S
C71 O57 1.257 . S
H72 C45 0.932 . S
H73 C46 0.930 . S
H74 C47 0.932 . S
H75 C48 0.929 . S
H76 C66 0.932 . S
H77 C67 0.930 . S
H78 C68 0.932 . S
H79 C69 0.929 . S
Tb80 C89 2.764 . S
Tb80 O90 2.325 . S
Tb80 O93 2.303 . S
Tb80 O97 2.322 . S
Tb80 O98 2.349 . S
Tb80 O101 2.415 . S
Tb80 O102 2.399 . S
Tb81 O91 2.322 . S
Tb81 O92 2.349 . S
Tb81 O94 2.415 . S
Tb81 O95 2.399 . S
Tb81 O96 2.325 . S
Tb81 O99 2.303 . S
Tb81 C110 2.764 . S
C82 O98 1.261 . S
C82 O99 1.257 . S
C83 C86 1.358 . S
C83 C87 1.332 . S
C83 C89 1.504 . S
C84 C85 1.373 . S
C84 C88 1.308 . S
C85 C84 1.373 . S
C85 C86 1.429 . S
C85 H112 0.932 . S
C86 C83 1.358 . S
C86 C85 1.429 . S
C86 H113 0.930 . S
C87 C83 1.332 . S
C87 C88 1.394 . S
C87 H114 0.932 . S
C88 C84 1.308 . S
C88 C87 1.394 . S
C88 H115 0.929 . S
C89 Tb80 2.764 . S
C89 C83 1.504 . S
C89 O101 1.239 . S
C89 O102 1.263 . S
O90 Tb80 2.325 . S
O90 C100 1.236 . S
O91 Tb81 2.322 . S
O91 C100 1.257 . S
O92 Tb81 2.349 . S
O92 C103 1.261 . S
O93 Tb80 2.303 . S
O93 C103 1.257 . S
O94 Tb81 2.415 . S
O94 C110 1.239 . S
O95 Tb81 2.399 . S
O95 C110 1.263 . S
O96 Tb81 2.325 . S
O96 C111 1.236 . S
O97 Tb80 2.322 . S
O97 C111 1.257 . S
O98 Tb80 2.349 . S
O98 C82 1.261 . S
O99 Tb81 2.303 . S
O99 C82 1.257 . S
C100 O90 1.236 . S
C100 O91 1.257 . S
O101 Tb80 2.415 . S
O101 C89 1.239 . S
O102 Tb80 2.399 . S
O102 C89 1.263 . S
C103 O92 1.261 . S
C103 O93 1.257 . S
C104 C107 1.358 . S
C104 C108 1.332 . S
C104 C110 1.504 . S
C105 C106 1.373 . S
C105 C109 1.308 . S
C106 C105 1.373 . S
C106 C107 1.429 . S
C106 H116 0.932 . S
C107 C104 1.358 . S
C107 C106 1.429 . S
C107 H117 0.930 . S
C108 C104 1.332 . S
C108 C109 1.394 . S
C108 H118 0.932 . S
C109 C105 1.308 . S
C109 C108 1.394 . S
C109 H119 0.929 . S
C110 Tb81 2.764 . S
C110 O94 1.239 . S
C110 O95 1.263 . S
C110 C104 1.504 . S
C111 O96 1.236 . S
C111 O97 1.257 . S
H112 C85 0.932 . S
H113 C86 0.930 . S
H114 C87 0.932 . S
H115 C88 0.929 . S
H116 C106 0.932 . S
H117 C107 0.930 . S
H118 C108 0.932 . S
H119 C109 0.929 . S
C120 C121 1.386 . S
C120 C122 1.397 . S
C120 H144 0.931 . S
C121 C120 1.386 . S
C121 C125 1.397 . S
C122 C120 1.397 . S
C122 C123 1.384 . S
C122 H145 0.930 . S
C123 C122 1.384 . S
C123 C124 1.377 . S
C123 C126 1.481 . S
C124 C123 1.377 . S
C124 C125 1.389 . S
C124 H146 0.929 1_545 S
C125 C121 1.397 . S
C125 C124 1.389 . S
C125 H147 0.931 1_545 S
C126 C123 1.481 . S
C126 C127 1.387 . S
C126 C131 1.398 . S
C127 C126 1.387 . S
C127 C128 1.401 . S
C127 H148 0.930 . S
C128 C127 1.401 . S
C128 C129 1.376 . S
C128 C137 1.511 . S
C129 C128 1.376 . S
C129 C130 1.392 1_545 S
C129 H150 0.931 . S
C130 C129 1.392 1_565 S
C130 C131 1.361 1_565 S
C130 C132 1.500 . S
C131 C126 1.398 . S
C131 C130 1.361 1_545 S
C131 H149 0.923 1_545 S
C132 C130 1.500 . S
C132 C133 1.371 . S
C132 C134 1.365 . S
C133 C132 1.371 . S
C133 C143 1.386 . S
C133 H151 0.931 . S
C134 C132 1.365 . S
C134 C135 1.409 . S
C134 H152 0.929 . S
C135 C134 1.409 . S
C135 C136 1.380 . S
C135 H153 0.930 . S
C136 C135 1.380 . S
C136 C143 1.357 . S
C137 C128 1.511 . S
C137 C138 1.341 . S
C137 C139 1.371 . S
C138 C137 1.341 . S
C138 C142 1.394 . S
C138 H154 0.930 . S
C139 C137 1.371 . S
C139 C140 1.392 . S
C139 H155 0.931 . S
C140 C139 1.392 . S
C140 C141 1.331 . S
C140 H158 0.932 . S
C141 C140 1.331 . S
C141 C142 1.336 . S
C142 C138 1.394 . S
C142 C141 1.336 . S
C142 H157 0.929 . S
C143 C133 1.386 . S
C143 C136 1.357 . S
C143 H156 0.928 . S
H144 C120 0.931 . S
H145 C122 0.930 . S
H146 C124 0.929 1_565 S
H147 C125 0.931 1_565 S
H148 C127 0.930 . S
H149 C131 0.923 1_565 S
H150 C129 0.931 . S
H151 C133 0.931 . S
H152 C134 0.929 . S
H153 C135 0.930 . S
H154 C138 0.930 . S
H155 C139 0.931 . S
H156 C143 0.928 . S
H157 C142 0.929 . S
H158 C140 0.932 . S
C159 C160 1.386 . S
C159 C161 1.397 . S
C159 H183 0.931 . S
C160 C159 1.386 . S
C160 C164 1.397 . S
C161 C159 1.397 . S
C161 C162 1.384 . S
C161 H184 0.930 . S
C162 C161 1.384 . S
C162 C163 1.377 . S
C162 C165 1.481 . S
C163 C162 1.377 . S
C163 C164 1.389 . S
C163 H185 0.929 . S
C164 C160 1.397 . S
C164 C163 1.389 . S
C164 H186 0.931 . S
C165 C162 1.481 . S
C165 C166 1.387 . S
C165 C170 1.390 . S
C166 C165 1.387 . S
C166 C167 1.401 . S
C166 H187 0.930 . S
C167 C166 1.401 . S
C167 C168 1.376 . S
C167 C176 1.511 . S
C168 C167 1.376 . S
C168 C169 1.392 . S
C168 H189 0.931 . S
C169 C168 1.392 . S
C169 C170 1.361 . S
C169 C171 1.500 . S
C170 C165 1.390 . S
C170 C169 1.361 . S
C170 H188 0.931 . S
C171 C169 1.500 . S
C171 C172 1.371 . S
C171 C173 1.365 . S
C172 C171 1.371 . S
C172 C182 1.386 . S
C172 H190 0.931 . S
C173 C171 1.365 . S
C173 C174 1.409 . S
C173 H191 0.929 . S
C174 C173 1.409 . S
C174 C175 1.380 . S
C174 H192 0.930 . S
C175 C174 1.380 . S
C175 C182 1.357 . S
C176 C167 1.511 . S
C176 C177 1.341 . S
C176 C178 1.371 . S
C177 C176 1.341 . S
C177 C181 1.394 . S
C177 H193 0.930 . S
C178 C176 1.371 . S
C178 C179 1.392 . S
C178 H194 0.931 . S
C179 C178 1.392 . S
C179 C180 1.331 . S
C179 H197 0.932 . S
C180 C179 1.331 . S
C180 C181 1.336 . S
C181 C177 1.394 . S
C181 C180 1.336 . S
C181 H196 0.929 . S
C182 C172 1.386 . S
C182 C175 1.357 . S
C182 H195 0.928 . S
H183 C159 0.931 . S
H184 C161 0.930 . S
H185 C163 0.929 . S
H186 C164 0.931 . S
H187 C166 0.930 . S
H188 C170 0.931 . S
H189 C168 0.931 . S
H190 C172 0.931 . S
H191 C173 0.929 . S
H192 C174 0.930 . S
H193 C177 0.930 . S
H194 C178 0.931 . S
H195 C182 0.928 . S
H196 C181 0.929 . S
H197 C179 0.932 . S
C198 C199 1.386 . S
C198 C200 1.397 . S
C198 H222 0.931 . S
C199 C198 1.386 . S
C199 C203 1.397 . S
C200 C198 1.397 . S
C200 C201 1.384 . S
C200 H223 0.930 . S
C201 C200 1.384 . S
C201 C202 1.377 . S
C201 C204 1.481 . S
C202 C201 1.377 . S
C202 C203 1.389 . S
C202 H224 0.929 . S
C203 C199 1.397 . S
C203 C202 1.389 . S
C203 H225 0.931 . S
C204 C201 1.481 . S
C204 C205 1.387 . S
C204 C209 1.390 . S
C205 C204 1.387 . S
C205 C206 1.401 . S
C205 H226 0.930 . S
C206 C205 1.401 . S
C206 C207 1.376 . S
C206 C215 1.511 . S
C207 C206 1.376 . S
C207 C208 1.392 . S
C207 H228 0.931 . S
C208 C207 1.392 . S
C208 C209 1.361 . S
C208 C210 1.500 1_455 S
C209 C204 1.390 . S
C209 C208 1.361 . S
C209 H227 0.931 . S
C210 C208 1.500 1_655 S
C210 C211 1.371 1_655 S
C210 C212 1.365 . S
C211 C210 1.371 1_455 S
C211 C221 1.386 1_455 S
C211 H229 0.931 . S
C212 C210 1.365 . S
C212 C213 1.409 . S
C212 H230 0.929 . S
C213 C212 1.409 . S
C213 C214 1.380 . S
C213 H231 0.930 . S
C214 C213 1.380 . S
C214 C221 1.357 . S
C215 C206 1.511 . S
C215 C216 1.341 . S
C215 C217 1.371 . S
C216 C215 1.341 . S
C216 C220 1.394 . S
C216 H232 0.930 . S
C217 C215 1.371 . S
C217 C218 1.392 . S
C217 H233 0.931 . S
C218 C217 1.392 . S
C218 C219 1.331 . S
C218 H236 0.932 . S
C219 C218 1.331 . S
C219 C220 1.336 . S
C220 C216 1.394 . S
C220 C219 1.336 . S
C220 H235 0.929 . S
C221 C211 1.386 1_655 S
C221 C214 1.357 . S
C221 H234 0.928 . S
H222 C198 0.931 . S
H223 C200 0.930 . S
H224 C202 0.929 . S
H225 C203 0.931 . S
H226 C205 0.930 . S
H227 C209 0.931 . S
H228 C207 0.931 . S
H229 C211 0.931 . S
H230 C212 0.929 . S
H231 C213 0.930 . S
H232 C216 0.930 . S
H233 C217 0.931 . S
H234 C221 0.928 . S
H235 C220 0.929 . S
H236 C218 0.932 . S
C237 C238 1.386 . S
C237 C239 1.397 . S
C237 H261 0.931 . S
C238 C237 1.386 . S
C238 C242 1.397 1_655 S
C239 C237 1.397 . S
C239 C240 1.384 . S
C239 H262 0.930 . S
C240 C239 1.384 . S
C240 C241 1.377 1_655 S
C240 C243 1.481 . S
C241 C240 1.377 1_455 S
C241 C242 1.389 . S
C241 H263 0.929 . S
C242 C238 1.397 1_455 S
C242 C241 1.389 . S
C242 H264 0.931 . S
C243 C240 1.481 . S
C243 C244 1.387 . S
C243 C248 1.390 1_655 S
C244 C243 1.387 . S
C244 C245 1.401 . S
C244 H265 0.930 . S
C245 C244 1.401 . S
C245 C246 1.379 . S
C245 C254 1.511 . S
C246 C245 1.379 . S
C246 C247 1.389 1_655 S
C246 H267 0.931 1_655 S
C247 C246 1.389 1_455 S
C247 C248 1.361 . S
C247 C249 1.500 . S
C248 C243 1.390 1_455 S
C248 C247 1.361 . S
C248 H266 0.931 . S
C249 C247 1.500 . S
C249 C250 1.371 . S
C249 C251 1.365 . S
C250 C249 1.371 . S
C250 C260 1.386 . S
C250 H268 0.931 . S
C251 C249 1.365 . S
C251 C252 1.409 . S
C251 H269 0.929 . S
C252 C251 1.409 . S
C252 C253 1.380 . S
C252 H270 0.930 . S
C253 C252 1.380 . S
C253 C260 1.357 . S
C254 C245 1.511 . S
C254 C255 1.341 . S
C254 C256 1.371 . S
C255 C254 1.341 . S
C255 C259 1.394 . S
C255 H271 0.930 . S
C256 C254 1.371 . S
C256 C257 1.392 . S
C256 H272 0.931 . S
C257 C256 1.392 . S
C257 C258 1.331 . S
C257 H275 0.932 . S
C258 C257 1.331 . S
C258 C259 1.336 . S
C259 C255 1.394 . S
C259 C258 1.336 . S
C259 H274 0.929 . S
C260 C250 1.386 . S
C260 C253 1.357 . S
C260 H273 0.928 . S
H261 C237 0.931 . S
H262 C239 0.930 . S
H263 C241 0.929 . S
H264 C242 0.931 . S
H265 C244 0.930 . S
H266 C248 0.931 . S
H267 C246 0.931 1_455 S
H268 C250 0.931 . S
H269 C251 0.929 . S
H270 C252 0.930 . S
H271 C255 0.930 . S
H272 C256 0.931 . S
H273 C260 0.928 . S
H274 C259 0.929 . S
H275 C257 0.932 . S
C276 C277 1.386 . S
C276 C278 1.397 . S
C276 H300 0.931 . S
C277 C276 1.386 . S
C277 C281 1.397 1_565 S
C278 C276 1.397 . S
C278 C279 1.384 . S
C278 H301 0.930 . S
C279 C278 1.384 . S
C279 C280 1.377 1_565 S
C279 C282 1.481 . S
C280 C279 1.377 1_545 S
C280 C281 1.389 . S
C280 H302 0.929 . S
C281 C277 1.397 1_545 S
C281 C280 1.389 . S
C281 H303 0.931 . S
C282 C279 1.481 . S
C282 C283 1.387 . S
C282 C287 1.390 1_565 S
C283 C282 1.387 . S
C283 C284 1.401 . S
C283 H304 0.930 . S
C284 C283 1.401 . S
C284 C285 1.376 1_565 S
C284 C293 1.511 . S
C285 C284 1.376 1_545 S
C285 C286 1.392 . S
C285 H306 0.931 . S
C286 C285 1.392 . S
C286 C287 1.361 . S
C286 C288 1.500 . S
C287 C282 1.390 1_545 S
C287 C286 1.361 . S
C287 H305 0.931 . S
C288 C286 1.500 . S
C288 C289 1.371 . S
C288 C290 1.365 . S
C289 C288 1.371 . S
C289 C299 1.386 . S
C289 H307 0.931 . S
C290 C288 1.365 . S
C290 C291 1.409 . S
C290 H308 0.929 . S
C291 C290 1.409 . S
C291 C292 1.380 . S
C291 H309 0.930 . S
C292 C291 1.380 . S
C292 C299 1.357 . S
C293 C284 1.511 . S
C293 C294 1.341 . S
C293 C295 1.371 . S
C294 C293 1.341 . S
C294 C298 1.394 . S
C294 H310 0.930 . S
C295 C293 1.371 . S
C295 C296 1.392 . S
C295 H311 0.931 . S
C296 C295 1.392 . S
C296 C297 1.331 . S
C296 H314 0.932 . S
C297 C296 1.331 . S
C297 C298 1.336 . S
C298 C294 1.394 . S
C298 C297 1.336 . S
C298 H313 0.929 . S
C299 C289 1.386 . S
C299 C292 1.357 . S
C299 H312 0.928 . S
H300 C276 0.931 . S
H301 C278 0.930 . S
H302 C280 0.929 . S
H303 C281 0.931 . S
H304 C283 0.930 . S
H305 C287 0.931 . S
H306 C285 0.931 . S
H307 C289 0.931 . S
H308 C290 0.929 . S
H309 C291 0.930 . S
H310 C294 0.930 . S
H311 C295 0.931 . S
H312 C299 0.928 . S
H313 C298 0.929 . S
H314 C296 0.932 . S
C315 C316 1.386 . S
C315 C317 1.397 . S
C315 H339 0.931 . S
C316 C315 1.386 . S
C316 C320 1.397 . S
C317 C315 1.397 . S
C317 C318 1.384 . S
C317 H340 0.930 . S
C318 C317 1.384 . S
C318 C319 1.377 . S
C318 C321 1.481 . S
C319 C318 1.377 . S
C319 C320 1.389 . S
C319 H341 0.929 . S
C320 C316 1.397 . S
C320 C319 1.389 . S
C320 H342 0.931 . S
C321 C318 1.481 . S
C321 C322 1.387 . S
C321 C326 1.390 . S
C322 C321 1.387 . S
C322 C323 1.401 . S
C322 H343 0.930 . S
C323 C322 1.401 . S
C323 C324 1.376 . S
C323 C332 1.511 . S
C324 C323 1.376 . S
C324 C325 1.392 . S
C324 H345 0.931 . S
C325 C324 1.392 . S
C325 C326 1.361 . S
C325 C327 1.500 . S
C326 C321 1.390 . S
C326 C325 1.361 . S
C326 H344 0.931 . S
C327 C325 1.500 . S
C327 C328 1.371 . S
C327 C329 1.365 . S
C328 C327 1.371 . S
C328 C338 1.386 . S
C328 H346 0.931 . S
C329 C327 1.365 . S
C329 C330 1.409 . S
C329 H347 0.929 . S
C330 C329 1.409 . S
C330 C331 1.380 . S
C330 H348 0.930 . S
C331 C330 1.380 . S
C331 C338 1.357 . S
C332 C323 1.511 . S
C332 C333 1.341 . S
C332 C334 1.371 . S
C333 C332 1.341 . S
C333 C337 1.394 . S
C333 H349 0.930 . S
C334 C332 1.371 . S
C334 C335 1.392 . S
C334 H350 0.931 . S
C335 C334 1.392 . S
C335 C336 1.331 . S
C335 H353 0.932 . S
C336 C335 1.331 . S
C336 C337 1.336 . S
C337 C333 1.394 . S
C337 C336 1.336 . S
C337 H352 0.929 . S
C338 C328 1.386 . S
C338 C331 1.357 . S
C338 H351 0.928 . S
H339 C315 0.931 . S
H340 C317 0.930 . S
H341 C319 0.929 . S
H342 C320 0.931 . S
H343 C322 0.930 . S
H344 C326 0.931 . S
H345 C324 0.931 . S
H346 C328 0.931 . S
H347 C329 0.929 . S
H348 C330 0.930 . S
H349 C333 0.930 . S
H350 C334 0.931 . S
H351 C338 0.928 . S
H352 C337 0.929 . S
H353 C335 0.932 . S
C354 C355 1.391 . S
C354 C356 1.394 . S
C354 H370 0.931 . S
C355 C354 1.391 . S
C355 C359 1.376 . S
C356 C354 1.394 . S
C356 C357 1.369 . S
C356 C360 1.531 . S
C357 C356 1.369 . S
C357 C358 1.410 . S
C357 C365 1.503 . S
C358 C357 1.410 . S
C358 C359 1.392 . S
C358 C361 1.511 . S
C359 C355 1.376 . S
C359 C358 1.392 . S
C359 H371 0.929 . S
C360 C356 1.531 . S
C360 H372 0.960 . S
C360 H373 0.962 . S
C360 H374 0.960 . S
C361 C358 1.511 . S
C361 H375 0.961 . S
C361 H376 0.961 . S
C361 H377 0.961 . S
C362 C363 1.370 . S
C362 C364 1.363 . S
C362 H378 0.931 . S
C363 C362 1.370 . S
C363 C367 1.408 . S
C364 C362 1.363 . S
C364 C365 1.370 . S
C364 C368 1.524 . S
C365 C357 1.503 . S
C365 C364 1.370 . S
C365 C366 1.403 . S
C366 C365 1.403 . S
C366 C367 1.404 . S
C366 C369 1.539 . S
C367 C363 1.408 . S
C367 C366 1.404 . S
C367 H379 0.930 . S
C368 C364 1.524 . S
C368 H380 0.956 . S
C368 H381 0.961 . S
C368 H382 0.961 . S
C369 C366 1.539 . S
C369 H383 0.958 . S
C369 H384 0.961 . S
C369 H385 0.960 . S
H370 C354 0.931 . S
H371 C359 0.929 . S
H372 C360 0.960 . S
H373 C360 0.962 . S
H374 C360 0.960 . S
H375 C361 0.961 . S
H376 C361 0.961 . S
H377 C361 0.961 . S
H378 C362 0.931 . S
H379 C367 0.930 . S
H380 C368 0.956 . S
H381 C368 0.961 . S
H382 C368 0.961 . S
H383 C369 0.958 . S
H384 C369 0.961 . S
H385 C369 0.960 . S
C386 C387 1.391 . S
C386 C388 1.394 . S
C386 H402 0.931 . S
C387 C386 1.391 . S
C387 C391 1.376 . S
C388 C386 1.394 . S
C388 C389 1.369 . S
C388 C392 1.531 . S
C389 C388 1.369 . S
C389 C390 1.410 . S
C389 C397 1.503 . S
C390 C389 1.410 . S
C390 C391 1.392 . S
C390 C393 1.511 . S
C391 C387 1.376 . S
C391 C390 1.392 . S
C391 H403 0.929 . S
C392 C388 1.531 . S
C392 H404 0.960 . S
C392 H405 0.962 . S
C392 H406 0.960 . S
C393 C390 1.511 . S
C393 H407 0.961 . S
C393 H408 0.961 . S
C393 H409 0.961 . S
C394 C395 1.370 . S
C394 C396 1.363 . S
C394 H410 0.931 . S
C395 C394 1.370 . S
C395 C399 1.408 . S
C396 C394 1.363 . S
C396 C397 1.370 . S
C396 C400 1.524 . S
C397 C389 1.503 . S
C397 C396 1.370 . S
C397 C398 1.403 . S
C398 C397 1.403 . S
C398 C399 1.404 . S
C398 C401 1.539 . S
C399 C395 1.408 . S
C399 C398 1.404 . S
C399 H411 0.930 . S
C400 C396 1.524 . S
C400 H412 0.956 . S
C400 H413 0.961 . S
C400 H414 0.961 . S
C401 C398 1.539 . S
C401 H415 0.958 . S
C401 H416 0.961 . S
C401 H417 0.960 . S
H402 C386 0.931 . S
H403 C391 0.929 . S
H404 C392 0.960 . S
H405 C392 0.962 . S
H406 C392 0.960 . S
H407 C393 0.961 . S
H408 C393 0.961 . S
H409 C393 0.961 . S
H410 C394 0.931 . S
H411 C399 0.930 . S
H412 C400 0.956 . S
H413 C400 0.961 . S
H414 C400 0.961 . S
H415 C401 0.958 . S
H416 C401 0.961 . S
H417 C401 0.960 . S
C418 C419 1.391 . S
C418 C420 1.394 . S
C418 H434 0.931 . S
C419 C418 1.391 . S
C419 C423 1.376 . S
C420 C418 1.394 . S
C420 C421 1.369 . S
C420 C424 1.531 . S
C421 C420 1.369 . S
C421 C422 1.410 . S
C421 C429 1.503 . S
C422 C421 1.410 . S
C422 C423 1.392 . S
C422 C425 1.511 . S
C423 C419 1.376 . S
C423 C422 1.392 . S
C423 H435 0.929 . S
C424 C420 1.531 . S
C424 H436 0.960 . S
C424 H437 0.962 . S
C424 H438 0.960 . S
C425 C422 1.511 . S
C425 H439 0.961 . S
C425 H440 0.961 . S
C425 H441 0.961 . S
C426 C427 1.370 . S
C426 C428 1.363 . S
C426 H442 0.931 . S
C427 C426 1.370 . S
C427 C431 1.408 . S
C428 C426 1.363 . S
C428 C429 1.370 . S
C428 C432 1.524 . S
C429 C421 1.503 . S
C429 C428 1.370 . S
C429 C430 1.403 . S
C430 C429 1.403 . S
C430 C431 1.404 . S
C430 C433 1.539 . S
C431 C427 1.408 . S
C431 C430 1.404 . S
C431 H443 0.930 . S
C432 C428 1.524 . S
C432 H444 0.956 . S
C432 H445 0.961 . S
C432 H446 0.961 . S
C433 C430 1.539 . S
C433 H447 0.958 . S
C433 H448 0.961 . S
C433 H449 0.960 . S
H434 C418 0.931 . S
H435 C423 0.929 . S
H436 C424 0.960 . S
H437 C424 0.962 . S
H438 C424 0.960 . S
H439 C425 0.961 . S
H440 C425 0.961 . S
H441 C425 0.961 . S
H442 C426 0.931 . S
H443 C431 0.930 . S
H444 C432 0.956 . S
H445 C432 0.961 . S
H446 C432 0.961 . S
H447 C433 0.958 . S
H448 C433 0.961 . S
H449 C433 0.960 . S
C450 C451 1.391 . S
C450 C452 1.394 . S
C450 H466 0.931 . S
C451 C450 1.391 . S
C451 C455 1.376 . S
C452 C450 1.394 . S
C452 C453 1.369 . S
C452 C456 1.531 . S
C453 C452 1.369 . S
C453 C454 1.410 . S
C453 C461 1.503 . S
C454 C453 1.410 . S
C454 C455 1.392 . S
C454 C457 1.511 . S
C455 C451 1.376 . S
C455 C454 1.392 . S
C455 H467 0.929 . S
C456 C452 1.531 . S
C456 H468 0.960 . S
C456 H469 0.962 . S
C456 H470 0.960 . S
C457 C454 1.511 . S
C457 H471 0.961 . S
C457 H472 0.961 . S
C457 H473 0.961 . S
C458 C459 1.370 . S
C458 C460 1.363 . S
C458 H474 0.931 . S
C459 C458 1.370 . S
C459 C463 1.408 . S
C460 C458 1.363 . S
C460 C461 1.370 . S
C460 C464 1.524 . S
C461 C453 1.503 . S
C461 C460 1.370 . S
C461 C462 1.403 . S
C462 C461 1.403 . S
C462 C463 1.404 . S
C462 C465 1.539 . S
C463 C459 1.408 . S
C463 C462 1.404 . S
C463 H475 0.930 . S
C464 C460 1.524 . S
C464 H476 0.956 . S
C464 H477 0.961 . S
C464 H478 0.961 . S
C465 C462 1.539 . S
C465 H479 0.958 . S
C465 H480 0.961 . S
C465 H481 0.960 . S
H466 C450 0.931 . S
H467 C455 0.929 . S
H468 C456 0.960 . S
H469 C456 0.962 . S
H470 C456 0.960 . S
H471 C457 0.961 . S
H472 C457 0.961 . S
H473 C457 0.961 . S
H474 C458 0.931 . S
H475 C463 0.930 . S
H476 C464 0.956 . S
H477 C464 0.961 . S
H478 C464 0.961 . S
H479 C465 0.958 . S
H480 C465 0.961 . S
H481 C465 0.960 . S
C482 C483 1.391 . S
C482 C484 1.394 . S
C482 H498 0.931 . S
C483 C482 1.391 . S
C483 C487 1.376 . S
C484 C482 1.394 . S
C484 C485 1.369 . S
C484 C488 1.531 . S
C485 C484 1.369 . S
C485 C486 1.410 . S
C485 C493 1.503 . S
C486 C485 1.410 . S
C486 C487 1.392 . S
C486 C489 1.511 . S
C487 C483 1.376 . S
C487 C486 1.392 . S
C487 H499 0.929 . S
C488 C484 1.531 . S
C488 H500 0.960 . S
C488 H501 0.962 . S
C488 H502 0.960 . S
C489 C486 1.511 . S
C489 H503 0.961 . S
C489 H504 0.961 . S
C489 H505 0.961 . S
C490 C491 1.370 . S
C490 C492 1.363 . S
C490 H506 0.931 . S
C491 C490 1.370 . S
C491 C495 1.408 . S
C492 C490 1.363 . S
C492 C493 1.370 . S
C492 C496 1.524 . S
C493 C485 1.503 . S
C493 C492 1.370 . S
C493 C494 1.403 . S
C494 C493 1.403 . S
C494 C495 1.404 . S
C494 C497 1.539 . S
C495 C491 1.408 . S
C495 C494 1.404 . S
C495 H507 0.930 . S
C496 C492 1.524 . S
C496 H508 0.956 . S
C496 H509 0.961 . S
C496 H510 0.961 . S
C497 C494 1.539 . S
C497 H511 0.958 . S
C497 H512 0.961 . S
C497 H513 0.960 . S
H498 C482 0.931 . S
H499 C487 0.929 . S
H500 C488 0.960 . S
H501 C488 0.962 . S
H502 C488 0.960 . S
H503 C489 0.961 . S
H504 C489 0.961 . S
H505 C489 0.961 . S
H506 C490 0.931 . S
H507 C495 0.930 . S
H508 C496 0.956 . S
H509 C496 0.961 . S
H510 C496 0.961 . S
H511 C497 0.958 . S
H512 C497 0.961 . S
H513 C497 0.960 . S
C514 C515 1.391 . S
C514 C516 1.394 . S
C514 H530 0.931 . S
C515 C514 1.391 . S
C515 C519 1.376 . S
C516 C514 1.394 . S
C516 C517 1.369 . S
C516 C520 1.531 . S
C517 C516 1.369 . S
C517 C518 1.410 . S
C517 C525 1.503 . S
C518 C517 1.410 . S
C518 C519 1.392 . S
C518 C521 1.511 . S
C519 C515 1.376 . S
C519 C518 1.392 . S
C519 H531 0.929 . S
C520 C516 1.531 . S
C520 H532 0.960 . S
C520 H533 0.962 . S
C520 H534 0.960 . S
C521 C518 1.511 . S
C521 H535 0.961 . S
C521 H536 0.961 . S
C521 H537 0.961 . S
C522 C523 1.370 . S
C522 C524 1.363 . S
C522 H538 0.931 . S
C523 C522 1.370 . S
C523 C527 1.408 . S
C524 C522 1.363 . S
C524 C525 1.370 . S
C524 C528 1.524 . S
C525 C517 1.503 . S
C525 C524 1.370 . S
C525 C526 1.403 . S
C526 C525 1.403 . S
C526 C527 1.404 . S
C526 C529 1.539 . S
C527 C523 1.408 . S
C527 C526 1.404 . S
C527 H539 0.930 . S
C528 C524 1.524 . S
C528 H540 0.956 . S
C528 H541 0.961 . S
C528 H542 0.961 . S
C529 C526 1.539 . S
C529 H543 0.958 . S
C529 H544 0.961 . S
C529 H545 0.960 . S
H530 C514 0.931 . S
H531 C519 0.929 . S
H532 C520 0.960 . S
H533 C520 0.962 . S
H534 C520 0.960 . S
H535 C521 0.961 . S
H536 C521 0.961 . S
H537 C521 0.961 . S
H538 C522 0.931 . S
H539 C527 0.930 . S
H540 C528 0.956 . S
H541 C528 0.961 . S
H542 C528 0.961 . S
H543 C529 0.958 . S
H544 C529 0.961 . S
H545 C529 0.960 . S
C546 C547 1.391 . S
C546 C548 1.394 . S
C546 H562 0.931 . S
C547 C546 1.391 . S
C547 C551 1.376 . S
C548 C546 1.394 . S
C548 C549 1.369 . S
C548 C552 1.531 . S
C549 C548 1.369 . S
C549 C550 1.410 . S
C549 C557 1.503 . S
C550 C549 1.410 . S
C550 C551 1.392 . S
C550 C553 1.511 . S
C551 C547 1.376 . S
C551 C550 1.392 . S
C551 H563 0.929 . S
C552 C548 1.531 . S
C552 H564 0.960 . S
C552 H565 0.962 . S
C552 H566 0.960 . S
C553 C550 1.511 . S
C553 H567 0.961 . S
C553 H568 0.961 . S
C553 H569 0.961 . S
C554 C555 1.370 . S
C554 C556 1.363 . S
C554 H570 0.931 . S
C555 C554 1.370 . S
C555 C559 1.408 . S
C556 C554 1.363 . S
C556 C557 1.370 . S
C556 C560 1.524 . S
C557 C549 1.503 . S
C557 C556 1.370 . S
C557 C558 1.403 . S
C558 C557 1.403 . S
C558 C559 1.404 . S
C558 C561 1.539 . S
C559 C555 1.408 . S
C559 C558 1.404 . S
C559 H571 0.930 . S
C560 C556 1.524 . S
C560 H572 0.956 . S
C560 H573 0.961 . S
C560 H574 0.961 . S
C561 C558 1.539 . S
C561 H575 0.958 . S
C561 H576 0.961 . S
C561 H577 0.960 . S
H562 C546 0.931 . S
H563 C551 0.929 . S
H564 C552 0.960 . S
H565 C552 0.962 . S
H566 C552 0.960 . S
H567 C553 0.961 . S
H568 C553 0.961 . S
H569 C553 0.961 . S
H570 C554 0.931 . S
H571 C559 0.930 . S
H572 C560 0.956 . S
H573 C560 0.961 . S
H574 C560 0.961 . S
H575 C561 0.958 . S
H576 C561 0.961 . S
H577 C561 0.960 . S
C578 C579 1.391 . S
C578 C580 1.394 . S
C578 H594 0.931 . S
C579 C578 1.391 . S
C579 C583 1.376 . S
C580 C578 1.394 . S
C580 C581 1.369 . S
C580 C584 1.531 . S
C581 C580 1.369 . S
C581 C582 1.410 . S
C581 C589 1.503 . S
C582 C581 1.410 . S
C582 C583 1.392 . S
C582 C585 1.511 . S
C583 C579 1.376 . S
C583 C582 1.392 . S
C583 H595 0.929 . S
C584 C580 1.531 . S
C584 H596 0.960 . S
C584 H597 0.962 . S
C584 H598 0.960 . S
C585 C582 1.511 . S
C585 H599 0.961 . S
C585 H600 0.961 . S
C585 H601 0.961 . S
C586 C587 1.370 . S
C586 C588 1.363 . S
C586 H602 0.931 . S
C587 C586 1.370 . S
C587 C591 1.408 . S
C588 C586 1.363 . S
C588 C589 1.370 . S
C588 C592 1.524 . S
C589 C581 1.503 . S
C589 C588 1.370 . S
C589 C590 1.403 . S
C590 C589 1.403 . S
C590 C591 1.404 . S
C590 C593 1.539 . S
C591 C587 1.408 . S
C591 C590 1.404 . S
C591 H603 0.930 . S
C592 C588 1.524 . S
C592 H604 0.956 . S
C592 H605 0.961 . S
C592 H606 0.961 . S
C593 C590 1.539 . S
C593 H607 0.958 . S
C593 H608 0.961 . S
C593 H609 0.960 . S
H594 C578 0.931 . S
H595 C583 0.929 . S
H596 C584 0.960 . S
H597 C584 0.962 . S
H598 C584 0.960 . S
H599 C585 0.961 . S
H600 C585 0.961 . S
H601 C585 0.961 . S
H602 C586 0.931 . S
H603 C591 0.930 . S
H604 C592 0.956 . S
H605 C592 0.961 . S
H606 C592 0.961 . S
H607 C593 0.958 . S
H608 C593 0.961 . S
H609 C593 0.960 . S
C610 C611 1.391 . S
C610 C612 1.394 . S
C610 H626 0.931 . S
C611 C610 1.391 . S
C611 C615 1.376 . S
C612 C610 1.394 . S
C612 C613 1.369 . S
C612 C616 1.531 . S
C613 C612 1.369 . S
C613 C614 1.410 . S
C613 C621 1.503 . S
C614 C613 1.410 . S
C614 C615 1.392 . S
C614 C617 1.511 . S
C615 C611 1.376 . S
C615 C614 1.392 . S
C615 H627 0.929 . S
C616 C612 1.531 . S
C616 H628 0.960 . S
C616 H629 0.962 . S
C616 H630 0.960 . S
C617 C614 1.511 . S
C617 H631 0.961 . S
C617 H632 0.961 . S
C617 H633 0.961 . S
C618 C619 1.370 . S
C618 C620 1.363 . S
C618 H634 0.931 . S
C619 C618 1.370 . S
C619 C623 1.408 . S
C620 C618 1.363 . S
C620 C621 1.370 . S
C620 C624 1.524 . S
C621 C613 1.503 . S
C621 C620 1.370 . S
C621 C622 1.403 . S
C622 C621 1.403 . S
C622 C623 1.404 . S
C622 C625 1.539 . S
C623 C619 1.408 . S
C623 C622 1.404 . S
C623 H635 0.930 . S
C624 C620 1.524 . S
C624 H636 0.956 . S
C624 H637 0.961 . S
C624 H638 0.961 . S
C625 C622 1.539 . S
C625 H639 0.958 . S
C625 H640 0.961 . S
C625 H641 0.960 . S
H626 C610 0.931 . S
H627 C615 0.929 . S
H628 C616 0.960 . S
H629 C616 0.962 . S
H630 C616 0.960 . S
H631 C617 0.961 . S
H632 C617 0.961 . S
H633 C617 0.961 . S
H634 C618 0.931 . S
H635 C623 0.930 . S
H636 C624 0.956 . S
H637 C624 0.961 . S
H638 C624 0.961 . S
H639 C625 0.958 . S
H640 C625 0.961 . S
H641 C625 0.960 . S
C642 C643 1.391 . S
C642 C644 1.394 . S
C642 H658 0.931 . S
C643 C642 1.391 . S
C643 C647 1.376 . S
C644 C642 1.394 . S
C644 C645 1.369 . S
C644 C648 1.531 . S
C645 C644 1.369 . S
C645 C646 1.410 . S
C645 C653 1.503 . S
C646 C645 1.410 . S
C646 C647 1.392 . S
C646 C649 1.511 . S
C647 C643 1.376 . S
C647 C646 1.392 . S
C647 H659 0.929 . S
C648 C644 1.531 . S
C648 H660 0.960 . S
C648 H661 0.962 . S
C648 H662 0.960 . S
C649 C646 1.511 . S
C649 H663 0.961 . S
C649 H664 0.961 . S
C649 H665 0.961 . S
C650 C651 1.370 . S
C650 C652 1.363 . S
C650 H666 0.931 . S
C651 C650 1.370 . S
C651 C655 1.408 . S
C652 C650 1.363 . S
C652 C653 1.370 . S
C652 C656 1.524 . S
C653 C645 1.503 . S
C653 C652 1.370 . S
C653 C654 1.403 . S
C654 C653 1.403 . S
C654 C655 1.404 . S
C654 C657 1.539 . S
C655 C651 1.408 . S
C655 C654 1.404 . S
C655 H667 0.930 . S
C656 C652 1.524 . S
C656 H668 0.956 . S
C656 H669 0.961 . S
C656 H670 0.961 . S
C657 C654 1.539 . S
C657 H671 0.958 . S
C657 H672 0.961 . S
C657 H673 0.960 . S
H658 C642 0.931 . S
H659 C647 0.929 . S
H660 C648 0.960 . S
H661 C648 0.962 . S
H662 C648 0.960 . S
H663 C649 0.961 . S
H664 C649 0.961 . S
H665 C649 0.961 . S
H666 C650 0.931 . S
H667 C655 0.930 . S
H668 C656 0.956 . S
H669 C656 0.961 . S
H670 C656 0.961 . S
H671 C657 0.958 . S
H672 C657 0.961 . S
H673 C657 0.960 . S
C674 C675 1.391 . S
C674 C676 1.394 . S
C674 H690 0.931 . S
C675 C674 1.391 . S
C675 C679 1.376 . S
C676 C674 1.394 . S
C676 C677 1.369 . S
C676 C680 1.531 . S
C677 C676 1.369 . S
C677 C678 1.410 . S
C677 C685 1.503 . S
C678 C677 1.410 . S
C678 C679 1.392 . S
C678 C681 1.511 . S
C679 C675 1.376 . S
C679 C678 1.392 . S
C679 H691 0.929 . S
C680 C676 1.531 . S
C680 H692 0.960 . S
C680 H693 0.962 . S
C680 H694 0.960 . S
C681 C678 1.511 . S
C681 H695 0.961 . S
C681 H696 0.961 . S
C681 H697 0.961 . S
C682 C683 1.370 . S
C682 C684 1.363 . S
C682 H698 0.931 . S
C683 C682 1.370 . S
C683 C687 1.408 . S
C684 C682 1.363 . S
C684 C685 1.370 . S
C684 C688 1.524 . S
C685 C677 1.503 . S
C685 C684 1.370 . S
C685 C686 1.403 . S
C686 C685 1.403 . S
C686 C687 1.404 . S
C686 C689 1.539 . S
C687 C683 1.408 . S
C687 C686 1.404 . S
C687 H699 0.930 . S
C688 C684 1.524 . S
C688 H700 0.956 . S
C688 H701 0.961 . S
C688 H702 0.961 . S
C689 C686 1.539 . S
C689 H703 0.958 . S
C689 H704 0.961 . S
C689 H705 0.960 . S
H690 C674 0.931 . S
H691 C679 0.929 . S
H692 C680 0.960 . S
H693 C680 0.962 . S
H694 C680 0.960 . S
H695 C681 0.961 . S
H696 C681 0.961 . S
H697 C681 0.961 . S
H698 C682 0.931 . S
H699 C687 0.930 . S
H700 C688 0.956 . S
H701 C688 0.961 . S
H702 C688 0.961 . S
H703 C689 0.958 . S
H704 C689 0.961 . S
H705 C689 0.960 . S
C706 C707 1.391 . S
C706 C708 1.394 . S
C706 H722 0.931 . S
C707 C706 1.391 . S
C707 C711 1.376 . S
C708 C706 1.394 . S
C708 C709 1.369 . S
C708 C712 1.531 . S
C709 C708 1.369 . S
C709 C710 1.410 . S
C709 C717 1.503 . S
C710 C709 1.410 . S
C710 C711 1.392 . S
C710 C713 1.511 . S
C711 C707 1.376 . S
C711 C710 1.392 . S
C711 H723 0.929 . S
C712 C708 1.531 . S
C712 H724 0.960 . S
C712 H725 0.962 . S
C712 H726 0.960 . S
C713 C710 1.511 . S
C713 H727 0.961 . S
C713 H728 0.961 . S
C713 H729 0.961 . S
C714 C715 1.370 . S
C714 C716 1.363 . S
C714 H730 0.931 . S
C715 C714 1.370 . S
C715 C719 1.408 . S
C716 C714 1.363 . S
C716 C717 1.370 . S
C716 C720 1.524 . S
C717 C709 1.503 . S
C717 C716 1.370 . S
C717 C718 1.403 . S
C718 C717 1.403 . S
C718 C719 1.404 . S
C718 C721 1.539 . S
C719 C715 1.408 . S
C719 C718 1.404 . S
C719 H731 0.930 . S
C720 C716 1.524 . S
C720 H732 0.956 . S
C720 H733 0.961 . S
C720 H734 0.961 . S
C721 C718 1.539 . S
C721 H735 0.958 . S
C721 H736 0.961 . S
C721 H737 0.960 . S
H722 C706 0.931 . S
H723 C711 0.929 . S
H724 C712 0.960 . S
H725 C712 0.962 . S
H726 C712 0.960 . S
H727 C713 0.961 . S
H728 C713 0.961 . S
H729 C713 0.961 . S
H730 C714 0.931 . S
H731 C719 0.930 . S
H732 C720 0.956 . S
H733 C720 0.961 . S
H734 C720 0.961 . S
H735 C721 0.958 . S
H736 C721 0.961 . S
H737 C721 0.960 . S
C738 C739 1.391 . S
C738 C740 1.394 . S
C738 H754 0.931 . S
C739 C738 1.391 . S
C739 C743 1.376 . S
C740 C738 1.394 . S
C740 C741 1.369 . S
C740 C744 1.531 . S
C741 C740 1.369 . S
C741 C742 1.410 . S
C741 C749 1.503 . S
C742 C741 1.410 . S
C742 C743 1.392 . S
C742 C745 1.511 . S
C743 C739 1.376 . S
C743 C742 1.392 . S
C743 H755 0.929 . S
C744 C740 1.531 . S
C744 H756 0.960 . S
C744 H757 0.962 . S
C744 H758 0.960 . S
C745 C742 1.511 . S
C745 H759 0.961 1_455 S
C745 H760 0.949 1_455 S
C745 H761 0.961 . S
C746 C747 1.370 . S
C746 C748 1.363 . S
C746 H762 0.931 . S
C747 C746 1.370 . S
C747 C751 1.408 . S
C748 C746 1.363 . S
C748 C749 1.370 . S
C748 C752 1.524 . S
C749 C741 1.503 . S
C749 C748 1.370 . S
C749 C750 1.403 . S
C750 C749 1.403 . S
C750 C751 1.404 . S
C750 C753 1.539 . S
C751 C747 1.408 . S
C751 C750 1.404 . S
C751 H763 0.930 . S
C752 C748 1.524 . S
C752 H764 0.956 . S
C752 H765 0.961 1_455 S
C752 H766 0.961 1_455 S
C753 C750 1.539 . S
C753 H767 0.958 . S
C753 H768 0.961 . S
C753 H769 0.960 . S
H754 C738 0.931 . S
H755 C743 0.929 . S
H756 C744 0.960 . S
H757 C744 0.962 . S
H758 C744 0.960 . S
H759 C745 0.961 1_655 S
H760 C745 0.949 1_655 S
H761 C745 0.961 . S
H762 C746 0.931 . S
H763 C751 0.930 . S
H764 C752 0.956 . S
H765 C752 0.961 1_655 S
H766 C752 0.961 1_655 S
H767 C753 0.958 . S
H768 C753 0.961 . S
H769 C753 0.960 . S
C770 C771 1.391 . S
C770 C772 1.394 . S
C770 H786 0.931 1_545 S
C771 C770 1.391 . S
C771 C775 1.376 . S
C772 C770 1.394 . S
C772 C773 1.369 . S
C772 C776 1.531 1_545 S
C773 C772 1.369 . S
C773 C774 1.410 . S
C773 C781 1.503 . S
C774 C773 1.410 . S
C774 C775 1.392 . S
C774 C777 1.511 . S
C775 C771 1.376 . S
C775 C774 1.392 . S
C775 H787 0.929 . S
C776 C772 1.531 1_565 S
C776 H788 0.960 . S
C776 H789 0.962 . S
C776 H790 0.960 . S
C777 C774 1.511 . S
C777 H791 0.961 . S
C777 H792 0.961 . S
C777 H793 0.961 . S
C778 C779 1.370 . S
C778 C780 1.363 . S
C778 H794 0.931 . S
C779 C778 1.370 . S
C779 C783 1.408 . S
C780 C778 1.363 . S
C780 C781 1.370 . S
C780 C784 1.524 . S
C781 C773 1.503 . S
C781 C780 1.370 . S
C781 C782 1.403 . S
C782 C781 1.403 . S
C782 C783 1.404 . S
C782 C785 1.539 1_545 S
C783 C779 1.408 . S
C783 C782 1.404 . S
C783 H795 0.930 1_545 S
C784 C780 1.524 . S
C784 H796 0.956 . S
C784 H797 0.961 . S
C784 H798 0.961 . S
C785 C782 1.539 1_565 S
C785 H799 0.958 . S
C785 H800 0.961 . S
C785 H801 0.960 . S
H786 C770 0.931 1_565 S
H787 C775 0.929 . S
H788 C776 0.960 . S
H789 C776 0.962 . S
H790 C776 0.960 . S
H791 C777 0.961 . S
H792 C777 0.961 . S
H793 C777 0.961 . S
H794 C778 0.931 . S
H795 C783 0.930 1_565 S
H796 C784 0.956 . S
H797 C784 0.961 . S
H798 C784 0.961 . S
H799 C785 0.958 . S
H800 C785 0.961 . S
H801 C785 0.960 . S
C802 C803 1.391 . S
C802 C804 1.394 . S
C802 H818 0.931 . S
C803 C802 1.391 . S
C803 C807 1.376 . S
C804 C802 1.394 . S
C804 C805 1.369 . S
C804 C808 1.531 . S
C805 C804 1.369 . S
C805 C806 1.410 . S
C805 C813 1.503 . S
C806 C805 1.410 . S
C806 C807 1.392 . S
C806 C809 1.511 . S
C807 C803 1.376 . S
C807 C806 1.392 . S
C807 H819 0.929 . S
C808 C804 1.531 . S
C808 H820 0.960 . S
C808 H821 0.962 . S
C808 H822 0.960 . S
C809 C806 1.511 . S
C809 H823 0.961 . S
C809 H824 0.961 . S
C809 H825 0.961 . S
C810 C811 1.370 . S
C810 C812 1.363 . S
C810 H826 0.931 . S
C811 C810 1.370 . S
C811 C815 1.408 . S
C812 C810 1.363 . S
C812 C813 1.370 . S
C812 C816 1.524 . S
C813 C805 1.503 . S
C813 C812 1.370 . S
C813 C814 1.403 . S
C814 C813 1.403 . S
C814 C815 1.404 . S
C814 C817 1.539 . S
C815 C811 1.408 . S
C815 C814 1.404 . S
C815 H827 0.930 . S
C816 C812 1.524 . S
C816 H828 0.956 . S
C816 H829 0.961 . S
C816 H830 0.961 . S
C817 C814 1.539 . S
C817 H831 0.958 . S
C817 H832 0.961 . S
C817 H833 0.960 . S
H818 C802 0.931 . S
H819 C807 0.929 . S
H820 C808 0.960 . S
H821 C808 0.962 . S
H822 C808 0.960 . S
H823 C809 0.961 . S
H824 C809 0.961 . S
H825 C809 0.961 . S
H826 C810 0.931 . S
H827 C815 0.930 . S
H828 C816 0.956 . S
H829 C816 0.961 . S
H830 C816 0.961 . S
H831 C817 0.958 . S
H832 C817 0.961 . S
H833 C817 0.960 . S
C834 C835 1.391 . S
C834 C836 1.394 . S
C834 H850 0.931 . S
C835 C834 1.391 . S
C835 C839 1.376 1_545 S
C836 C834 1.394 . S
C836 C837 1.369 . S
C836 C840 1.531 . S
C837 C836 1.369 . S
C837 C838 1.410 1_545 S
C837 C845 1.503 . S
C838 C837 1.410 1_565 S
C838 C839 1.392 . S
C838 C841 1.511 . S
C839 C835 1.376 1_565 S
C839 C838 1.392 . S
C839 H851 0.929 . S
C840 C836 1.531 . S
C840 H852 0.960 . S
C840 H853 0.962 . S
C840 H854 0.960 . S
C841 C838 1.511 . S
C841 H855 0.961 . S
C841 H856 0.961 . S
C841 H857 0.961 . S
C842 C843 1.370 . S
C842 C844 1.363 . S
C842 H858 0.931 . S
C843 C842 1.370 . S
C843 C847 1.408 1_565 S
C844 C842 1.363 . S
C844 C845 1.370 1_565 S
C844 C848 1.524 . S
C845 C837 1.503 . S
C845 C844 1.370 1_545 S
C845 C846 1.403 . S
C846 C845 1.403 . S
C846 C847 1.404 . S
C846 C849 1.539 . S
C847 C843 1.408 1_545 S
C847 C846 1.404 . S
C847 H859 0.930 . S
C848 C844 1.524 . S
C848 H860 0.956 . S
C848 H861 0.961 . S
C848 H862 0.961 . S
C849 C846 1.539 . S
C849 H863 0.958 . S
C849 H864 0.961 . S
C849 H865 0.960 . S
H850 C834 0.931 . S
H851 C839 0.929 . S
H852 C840 0.960 . S
H853 C840 0.962 . S
H854 C840 0.960 . S
H855 C841 0.961 . S
H856 C841 0.961 . S
H857 C841 0.961 . S
H858 C842 0.931 . S
H859 C847 0.930 . S
H860 C848 0.956 . S
H861 C848 0.961 . S
H862 C848 0.961 . S
H863 C849 0.958 . S
H864 C849 0.961 . S
H865 C849 0.960 . S
C866 C867 1.391 . S
C866 C868 1.394 . S
C866 H882 0.931 . S
C867 C866 1.391 . S
C867 C871 1.376 . S
C868 C866 1.394 . S
C868 C869 1.369 . S
C868 C872 1.531 . S
C869 C868 1.369 . S
C869 C870 1.410 . S
C869 C877 1.503 . S
C870 C869 1.410 . S
C870 C871 1.392 . S
C870 C873 1.511 . S
C871 C867 1.376 . S
C871 C870 1.392 . S
C871 H883 0.929 . S
C872 C868 1.531 . S
C872 H884 0.960 . S
C872 H885 0.962 . S
C872 H886 0.960 . S
C873 C870 1.511 . S
C873 H887 0.961 . S
C873 H888 0.961 . S
C873 H889 0.961 . S
C874 C875 1.370 . S
C874 C876 1.363 . S
C874 H890 0.931 . S
C875 C874 1.370 . S
C875 C879 1.408 . S
C876 C874 1.363 . S
C876 C877 1.370 . S
C876 C880 1.524 . S
C877 C869 1.503 . S
C877 C876 1.370 . S
C877 C878 1.403 . S
C878 C877 1.403 . S
C878 C879 1.404 . S
C878 C881 1.539 . S
C879 C875 1.408 . S
C879 C878 1.404 . S
C879 H891 0.930 . S
C880 C876 1.524 . S
C880 H892 0.956 . S
C880 H893 0.961 . S
C880 H894 0.961 . S
C881 C878 1.539 . S
C881 H895 0.958 . S
C881 H896 0.961 . S
C881 H897 0.960 . S
H882 C866 0.931 . S
H883 C871 0.929 . S
H884 C872 0.960 . S
H885 C872 0.962 . S
H886 C872 0.960 . S
H887 C873 0.961 . S
H888 C873 0.961 . S
H889 C873 0.961 . S
H890 C874 0.931 . S
H891 C879 0.930 . S
H892 C880 0.956 . S
H893 C880 0.961 . S
H894 C880 0.961 . S
H895 C881 0.958 . S
H896 C881 0.961 . S
H897 C881 0.960 . S
C898 C899 1.391 . S
C898 C900 1.394 . S
C898 H914 0.931 . S
C899 C898 1.391 . S
C899 C903 1.376 1_455 S
C900 C898 1.394 . S
C900 C901 1.369 . S
C900 C904 1.531 . S
C901 C900 1.369 . S
C901 C902 1.410 1_455 S
C901 C909 1.503 . S
C902 C901 1.410 1_655 S
C902 C903 1.392 . S
C902 C905 1.511 . S
C903 C899 1.376 1_655 S
C903 C902 1.392 . S
C903 H915 0.929 . S
C904 C900 1.531 . S
C904 H916 0.960 . S
C904 H917 0.962 . S
C904 H918 0.960 . S
C905 C902 1.511 . S
C905 H919 0.961 . S
C905 H920 0.961 . S
C905 H921 0.961 . S
C906 C907 1.357 1_455 S
C906 C908 1.363 . S
C906 H922 0.931 . S
C907 C906 1.357 1_655 S
C907 C911 1.406 . S
C908 C906 1.363 . S
C908 C909 1.370 . S
C908 C912 1.524 . S
C909 C901 1.503 . S
C909 C908 1.370 . S
C909 C910 1.403 . S
C910 C909 1.403 . S
C910 C911 1.399 1_455 S
C910 C913 1.539 . S
C911 C907 1.406 . S
C911 C910 1.399 1_655 S
C911 H923 0.946 . S
C912 C908 1.524 . S
C912 H924 0.956 . S
C912 H925 0.961 1_455 S
C912 H926 0.961 . S
C913 C910 1.539 . S
C913 H927 0.958 . S
C913 H928 0.961 1_455 S
C913 H929 0.960 1_455 S
H914 C898 0.931 . S
H915 C903 0.929 . S
H916 C904 0.960 . S
H917 C904 0.962 . S
H918 C904 0.960 . S
H919 C905 0.961 . S
H920 C905 0.961 . S
H921 C905 0.961 . S
H922 C906 0.931 . S
H923 C911 0.946 . S
H924 C912 0.956 . S
H925 C912 0.961 1_655 S
H926 C912 0.961 . S
H927 C913 0.958 . S
H928 C913 0.961 1_655 S
H929 C913 0.960 1_655 S
C355 C25 0.485 . S
C363 C331 0.408 . S
C387 C65 0.456 . S
C395 C258 0.193 . S
C419 C105 0.517 . S
C427 C297 0.310 . S
C451 C4 0.309 . S
C459 C336 0.304 . S
C491 C253 0.373 . S
C483 C44 0.429 . S
C523 C292 0.446 . S
C515 C84 0.417 . S
C547 C60 2.921 . S
C555 C180 2.877 . S
C579 C100 3.112 . S
C587 C214 3.052 . S
C611 C31 3.111 . S
C619 C136 3.053 . S
C651 C175 3.041 . S
C643 C71 3.093 . S
C683 C219 2.885 . S
C675 C111 2.917 . S
C707 C20 2.920 . S
C715 C141 2.888 . S
C747 C199 1.805 1_554 S
C739 C2 1.760 . S
C771 C42 1.728 . S
C779 C121 1.795 . S
C803 C82 1.725 . S
C811 C160 1.801 . S
C843 C277 1.071 . S
C835 C63 1.065 . S
C875 C316 1.106 1_556 S
C867 C103 1.074 . S
C899 C23 1.071 . S
C907 C238 1.067 . S
