# Generated by pormake.
# Topology pth, (4,4)-cn, num edge types: 1
# Building blocks:
#     Node 0, Type 0, BuildingBlock: GALJAG_clean_sbu_0, # of connection points: 4
#     Node 1, Type 0, BuildingBlock: GALJAG_clean_sbu_0, # of connection points: 4
#     Node 2, Type 0, BuildingBlock: GALJAG_clean_sbu_0, # of connection points: 4
#     Node 3, Type 1, BuildingBlock: NAHDIM_clean_linker_0, # of connection points: 4
#     Node 4, Type 1, BuildingBlock: NAHDIM_clean_linker_0, # of connection points: 4
#     Node 5, Type 1, BuildingBlock: NAHDIM_clean_linker_0, # of connection points: 4
#     Edge 6, Type (0, 1), BuildingBlock: OJICUG_clean_linker_0, # of connection points: 2
#     Edge 7, Type (0, 1), BuildingBlock: OJICUG_clean_linker_0, # of connection points: 2
#     Edge 8, Type (0, 1), BuildingBlock: OJICUG_clean_linker_0, # of connection points: 2
#     Edge 9, Type (0, 1), BuildingBlock: OJICUG_clean_linker_0, # of connection points: 2
#     Edge 10, Type (0, 1), BuildingBlock: OJICUG_clean_linker_0, # of connection points: 2
#     Edge 11, Type (0, 1), BuildingBlock: OJICUG_clean_linker_0, # of connection points: 2
#     Edge 12, Type (0, 1), BuildingBlock: OJICUG_clean_linker_0, # of connection points: 2
#     Edge 13, Type (0, 1), BuildingBlock: OJICUG_clean_linker_0, # of connection points: 2
#     Edge 14, Type (0, 1), BuildingBlock: OJICUG_clean_linker_0, # of connection points: 2
#     Edge 15, Type (0, 1), BuildingBlock: OJICUG_clean_linker_0, # of connection points: 2
#     Edge 16, Type (0, 1), BuildingBlock: OJICUG_clean_linker_0, # of connection points: 2
#     Edge 17, Type (0, 1), BuildingBlock: OJICUG_clean_linker_0, # of connection points: 2
# Relax obj value: 0.024
# Max RMSD: 0.068
# Mean RMSD: 0.066
data_MOF--net-pth--node1-GALJAG_clean_sbu_0--node2-NAHDIM_clean_linker_0--edge1-OJICUG_clean_linker_0
_symmetry_space_group_name_H-M    P1
_symmetry_Int_Tables_number       1
_symmetry_cell_setting            triclinic
loop_
_symmetry_equiv_pos_as_xyz
'x, y, z'
_cell_length_a     26.201852
_cell_length_b     26.12118
_cell_length_c     63.606608
_cell_angle_alpha  89.888304
_cell_angle_beta   90.912796
_cell_angle_gamma 120.07501
loop_
_atom_site_label
_atom_site_type_symbol
_atom_site_fract_x
_atom_site_fract_y
_atom_site_fract_z
_atom_type_partial_charge
In0 In 0.04089 0.02271 0.06083 0.0
O1 O 0.07057 0.11412 0.0743 0.0
O2 O 0.9837 0.04508 0.08109 0.0
C3 C 0.93711 0.95122 0.04131 0.0
C4 C 0.11918 0.08041 0.02998 0.0
C5 C 0.06465 0.95901 0.08898 0.0
O6 O 0.97063 0.93323 0.04831 0.0
O7 O 0.95523 0.00544 0.0446 0.0
O8 O 0.05651 0.94628 0.06969 0.0
O9 O 0.06506 0.00586 0.09369 0.0
C10 C 0.02304 0.09863 0.08375 0.0
O11 O 0.13175 0.09373 0.04911 0.0
O12 O 0.06889 0.0365 0.02661 0.0
In13 In 0.03077 0.04583 0.39533 0.0
O14 O 0.08708 0.11738 0.37141 0.0
O15 O 0.00777 0.11204 0.3812 0.0
C16 C 0.11568 0.07221 0.42479 0.0
C17 C 0.93899 0.02389 0.41987 0.0
C18 C 0.01675 0.95088 0.37318 0.0
O19 O 0.12265 0.10574 0.40945 0.0
O20 O 0.06599 0.02554 0.42522 0.0
O21 O 0.98143 0.97023 0.37122 0.0
O22 O 0.05951 0.98054 0.38558 0.0
C23 C 0.05374 0.13922 0.37054 0.0
O24 O 0.93468 0.98909 0.40529 0.0
O25 O 0.98933 0.06921 0.42201 0.0
In26 In 0.06158 0.05127 0.7304 0.0
O27 O 0.98727 0.95652 0.73483 0.0
O28 O 0.01776 0.01175 0.76191 0.0
C29 C 0.14687 0.02577 0.72193 0.0
C30 C 0.99785 0.05646 0.69754 0.0
C31 C 0.12435 0.16244 0.74611 0.0
O32 O 0.12231 0.01521 0.73959 0.0
O33 O 0.12867 0.0494 0.70877 0.0
O34 O 0.07315 0.12615 0.75233 0.0
O35 O 0.14361 0.14243 0.73223 0.0
C36 C 0.98253 0.96128 0.7543 0.0
O37 O 0.00904 0.08841 0.71367 0.0
O38 O 0.01826 0.02199 0.69795 0.0
C39 C 0.90885 0.67467 0.36156 0.0
C40 C 0.96022 0.71544 0.34751 0.0
C41 C 0.96519 0.67373 0.31418 0.0
C42 C 0.02604 0.6965 0.31232 0.0
C43 C 0.04772 0.6674 0.29992 0.0
C44 C 0.00753 0.61407 0.28943 0.0
C45 C 0.94601 0.59147 0.29117 0.0
C46 C 0.92572 0.62241 0.30321 0.0
C47 C 0.11348 0.69354 0.29805 0.0
C48 C 0.90159 0.53415 0.28061 0.0
C49 C 0.1964 0.41646 0.36239 0.0
C50 C 0.14251 0.383 0.34781 0.0
C51 C 0.13528 0.42314 0.31426 0.0
C52 C 0.07416 0.40049 0.31299 0.0
C53 C 0.05047 0.42788 0.30036 0.0
C54 C 0.08891 0.47938 0.28904 0.0
C55 C 0.15055 0.50148 0.28998 0.0
C56 C 0.1728 0.47221 0.3023 0.0
C57 C 0.98449 0.40211 0.29926 0.0
C58 C 0.1931 0.55678 0.27841 0.0
C59 C 0.03623 0.35062 0.15415 0.0
C60 C 0.98777 0.34214 0.16601 0.0
C61 C 0.98865 0.38947 0.17666 0.0
C62 C 0.03965 0.44625 0.17597 0.0
C63 C 0.08832 0.45521 0.16393 0.0
C64 C 0.08563 0.40728 0.15296 0.0
C65 C 0.93488 0.37858 0.1887 0.0
C66 C 0.14335 0.51516 0.16291 0.0
C67 C 0.93209 0.80153 0.16291 0.0
C68 C 0.98254 0.79217 0.15605 0.0
C69 C 0.97599 0.69571 0.15746 0.0
C70 C 0.93315 0.63636 0.15981 0.0
C71 C 0.94733 0.59624 0.16907 0.0
C72 C 0.00624 0.61613 0.1756 0.0
C73 C 0.05062 0.67529 0.17185 0.0
C74 C 0.03496 0.71465 0.16286 0.0
C75 C 0.89905 0.5333 0.17263 0.0
C76 C 0.1142 0.6973 0.17795 0.0
C77 C 0.02945 0.58133 0.27687 0.0
C78 C 0.04872 0.54715 0.28758 0.0
C79 C 0.06508 0.51127 0.27668 0.0
C80 C 0.05998 0.50745 0.25451 0.0
C81 C 0.07128 0.46816 0.24313 0.0
C82 C 0.0655 0.4644 0.22132 0.0
C83 C 0.04907 0.50041 0.21005 0.0
C84 C 0.04133 0.49576 0.18794 0.0
C85 C 0.02863 0.53473 0.17709 0.0
C86 C 0.02056 0.5766 0.18787 0.0
C87 C 0.02394 0.5791 0.21009 0.0
C88 C 0.01189 0.61785 0.22149 0.0
C89 C 0.01391 0.61888 0.24335 0.0
C90 C 0.02873 0.58173 0.25465 0.0
C91 C 0.04282 0.54369 0.24346 0.0
C92 C 0.03904 0.54138 0.22117 0.0
C93 C 0.018 0.22749 0.16772 0.0
C94 C 0.00091 0.24551 0.14698 0.0
O95 O 0.94359 0.70025 0.32664 0.0
O96 O 0.95879 0.73348 0.15007 0.0
O97 O 0.0373 0.3057 0.14373 0.0
O98 O 0.15923 0.39923 0.32722 0.0
H99 H 0.9975 0.7082 0.3519 0.0
H100 H 0.89778 0.62809 0.35914 0.0
H101 H 0.86903 0.67788 0.35773 0.0
H102 H 0.92114 0.68647 0.37838 0.0
H103 H 0.05646 0.73716 0.3205 0.0
H104 H 0.87881 0.60555 0.30471 0.0
H105 H 0.12713 0.66461 0.30621 0.0
H106 H 0.1386 0.73861 0.30507 0.0
H107 H 0.12542 0.69577 0.28126 0.0
H108 H 0.85597 0.51852 0.28594 0.0
H109 H 0.91287 0.49914 0.28382 0.0
H110 H 0.90258 0.5405 0.26334 0.0
H111 H 0.11047 0.39684 0.3527 0.0
H112 H 0.18411 0.40332 0.379 0.0
H113 H 0.21362 0.4648 0.36112 0.0
H114 H 0.23215 0.40752 0.3581 0.0
H115 H 0.04508 0.36144 0.32189 0.0
H116 H 0.21989 0.48893 0.30331 0.0
H117 H 0.97278 0.43218 0.30747 0.0
H118 H 0.96045 0.35785 0.3067 0.0
H119 H 0.96932 0.39819 0.28263 0.0
H120 H 0.23978 0.57203 0.28282 0.0
H121 H 0.18377 0.59301 0.28171 0.0
H122 H 0.18746 0.54804 0.26122 0.0
H123 H 0.95414 0.23452 0.14751 0.0
H124 H 0.94881 0.29898 0.16705 0.0
H125 H 0.12272 0.41357 0.14372 0.0
H126 H 0.94473 0.38135 0.20582 0.0
H127 H 0.89608 0.33437 0.18519 0.0
H128 H 0.92305 0.41291 0.1849 0.0
H129 H 0.17903 0.51389 0.15413 0.0
H130 H 0.15977 0.53219 0.17905 0.0
H131 H 0.13284 0.54684 0.15506 0.0
H132 H 0.01292 0.80305 0.16989 0.0
H133 H 0.94939 0.84766 0.16855 0.0
H134 H 0.90806 0.77112 0.17601 0.0
H135 H 0.90049 0.79239 0.14964 0.0
H136 H 0.88797 0.62213 0.15517 0.0
H137 H 0.06866 0.76015 0.16018 0.0
H138 H 0.89684 0.52268 0.18962 0.0
H139 H 0.90919 0.50249 0.16411 0.0
H140 H 0.85516 0.52535 0.16718 0.0
H141 H 0.14432 0.74183 0.17146 0.0
H142 H 0.12801 0.66592 0.17233 0.0
H143 H 0.11896 0.69985 0.19535 0.0
H144 H 0.05079 0.54829 0.30463 0.0
H145 H 0.08393 0.4393 0.251 0.0
H146 H 0.07434 0.4331 0.21337 0.0
H147 H 0.02318 0.53126 0.16011 0.0
H148 H -6e-05 0.6473 0.21368 0.0
H149 H 0.00384 0.64931 0.25129 0.0
H150 H 0.06486 0.23857 0.16751 0.0
H151 H 0.98952 0.1792 0.17031 0.0
H152 H 0.01226 0.25112 0.18114 0.0
C153 C 0.32972 0.91999 0.7135 0.0
C154 C 0.32637 0.96685 0.69993 0.0
C155 C 0.3558 0.96685 0.66355 0.0
C156 C 0.39899 0.02677 0.66164 0.0
C157 C 0.44185 0.04511 0.64603 0.0
C158 C 0.44123 0.00271 0.63207 0.0
C159 C 0.39552 0.94297 0.63317 0.0
C160 C 0.35292 0.92602 0.64878 0.0
C161 C 0.48886 0.10946 0.64484 0.0
C162 C 0.3932 0.89653 0.61846 0.0
C163 C 0.86064 0.01794 0.66818 0.0
C164 C 0.81365 0.00845 0.65269 0.0
C165 C 0.73423 0.03031 0.64797 0.0
C166 C 0.6932 0.97974 0.63671 0.0
C167 C 0.64555 0.97868 0.62591 0.0
C168 C 0.63984 0.02978 0.626 0.0
C169 C 0.68126 0.08079 0.63734 0.0
C170 C 0.72741 0.07995 0.64848 0.0
C171 C 0.60079 0.92267 0.61473 0.0
C172 C 0.67653 0.13602 0.63784 0.0
C173 C 0.70118 0.03258 0.48943 0.0
C174 C 0.64785 0.98284 0.49535 0.0
C175 C 0.60645 0.98926 0.50704 0.0
C176 C 0.61826 0.04652 0.51279 0.0
C177 C 0.67055 0.09678 0.50606 0.0
C178 C 0.71138 0.08908 0.49445 0.0
C179 C 0.55065 0.93466 0.51373 0.0
C180 C 0.68402 0.1584 0.51173 0.0
C181 C 0.28078 0.14765 0.50876 0.0
C182 C 0.29704 0.12703 0.48869 0.0
C183 C 0.34744 0.07429 0.50148 0.0
C184 C 0.34215 0.01856 0.50344 0.0
C185 C 0.38738 0.01185 0.51269 0.0
C186 C 0.43913 0.06235 0.52024 0.0
C187 C 0.44519 0.11903 0.51814 0.0
C188 C 0.39933 0.12452 0.50877 0.0
C189 C 0.37976 0.95082 0.51456 0.0
C190 C 0.50003 0.17377 0.52598 0.0
C191 C 0.49205 0.01898 0.61822 0.0
C192 C 0.54123 0.01945 0.62723 0.0
C193 C 0.58912 0.02919 0.61509 0.0
C194 C 0.58769 0.03735 0.59317 0.0
C195 C 0.63394 0.04451 0.58031 0.0
C196 C 0.63061 0.04939 0.55862 0.0
C197 C 0.58197 0.04966 0.54906 0.0
C198 C 0.57742 0.05299 0.52698 0.0
C199 C 0.53064 0.05732 0.51808 0.0
C200 C 0.48668 0.056 0.53064 0.0
C201 C 0.48819 0.0483 0.55262 0.0
C202 C 0.44257 0.04263 0.56557 0.0
C203 C 0.44362 0.03298 0.58709 0.0
C204 C 0.49097 0.03007 0.5965 0.0
C205 C 0.53849 0.03801 0.58387 0.0
C206 C 0.53639 0.04572 0.56185 0.0
C207 C 0.76007 0.9548 0.4962 0.0
C208 C 0.74727 0.9775 0.47562 0.0
O209 O 0.31597 0.94679 0.67925 0.0
O210 O 0.30126 0.07707 0.49266 0.0
O211 O 0.74425 0.02828 0.47929 0.0
O212 O 0.77937 0.03193 0.6592 0.0
H213 H 0.36961 0.00814 0.7019 0.0
H214 H 0.36275 0.90984 0.70694 0.0
H215 H 0.28632 0.87842 0.71369 0.0
H216 H 0.34426 0.93665 0.72981 0.0
H217 H 0.39954 0.05933 0.67228 0.0
H218 H 0.31851 0.88015 0.6501 0.0
H219 H 0.53152 0.1148 0.65056 0.0
H220 H 0.47824 0.13812 0.65454 0.0
H221 H 0.49466 0.12475 0.62829 0.0
H222 H 0.35475 0.85198 0.6214 0.0
H223 H 0.43421 0.8942 0.62029 0.0
H224 H 0.39066 0.90885 0.60193 0.0
H225 H 0.78808 0.96262 0.64623 0.0
H226 H 0.8495 0.97218 0.67323 0.0
H227 H 0.84822 0.02947 0.68363 0.0
H228 H 0.93906 0.07552 0.65275 0.0
H229 H 0.697 0.94038 0.63685 0.0
H230 H 0.75899 0.11845 0.65745 0.0
H231 H 0.60337 0.93015 0.59751 0.0
H232 H 0.5555 0.91033 0.61954 0.0
H233 H 0.60806 0.885 0.61803 0.0
H234 H 0.71609 0.17405 0.64519 0.0
H235 H 0.63727 0.1274 0.64696 0.0
H236 H 0.67047 0.1483 0.62165 0.0
H237 H 0.70476 0.94264 0.46861 0.0
H238 H 0.63843 0.93878 0.49124 0.0
H239 H 0.75228 0.12725 0.48963 0.0
H240 H 0.55022 0.93145 0.53114 0.0
H241 H 0.5464 0.89344 0.50701 0.0
H242 H 0.51157 0.93791 0.50874 0.0
H243 H 0.72539 0.19303 0.50453 0.0
H244 H 0.68826 0.16415 0.52908 0.0
H245 H 0.64702 0.16485 0.50647 0.0
H246 H 0.33986 0.16323 0.48287 0.0
H247 H 0.27637 0.18705 0.50543 0.0
H248 H 0.31555 0.16007 0.52107 0.0
H249 H 0.2385 0.11191 0.51504 0.0
H250 H 0.3021 0.9801 0.49774 0.0
H251 H 0.4044 0.16807 0.5074 0.0
H252 H 0.38324 0.94094 0.53134 0.0
H253 H 0.41563 0.94915 0.50609 0.0
H254 H 0.33664 0.91593 0.50803 0.0
H255 H 0.49861 0.21487 0.52278 0.0
H256 H 0.53945 0.17716 0.51837 0.0
H257 H 0.50538 0.17043 0.54319 0.0
H258 H 0.5419 0.01129 0.64394 0.0
H259 H 0.67268 0.04513 0.58682 0.0
H260 H 0.66691 0.05342 0.54946 0.0
H261 H 0.52788 0.06073 0.50114 0.0
H262 H 0.40503 0.04452 0.55916 0.0
H263 H 0.407 0.028 0.59629 0.0
H264 H 0.76439 0.91531 0.49304 0.0
H265 H 0.72374 0.94168 0.50744 0.0
H266 H 0.80157 0.98964 0.50376 0.0
C267 C 0.85543 0.75347 0.8229 0.0
C268 C 0.82033 0.76109 0.80481 0.0
C269 C 0.72232 0.72672 0.81983 0.0
C270 C 0.68366 0.7447 0.82711 0.0
C271 C 0.62877 0.70387 0.83546 0.0
C272 C 0.61245 0.64351 0.83668 0.0
C273 C 0.65066 0.62464 0.82894 0.0
C274 C 0.70507 0.6663 0.82054 0.0
C275 C 0.58879 0.72536 0.84341 0.0
C276 C 0.63443 0.56048 0.82995 0.0
C277 C 0.21846 0.43827 0.75692 0.0
C278 C 0.25026 0.41138 0.76896 0.0
C279 C 0.29901 0.44503 0.80316 0.0
C280 C 0.34171 0.42792 0.80134 0.0
C281 C 0.39184 0.45241 0.81464 0.0
C282 C 0.39974 0.49558 0.82979 0.0
C283 C 0.35633 0.51248 0.83168 0.0
C284 C 0.30587 0.48585 0.81864 0.0
C285 C 0.4363 0.43221 0.81249 0.0
C286 C 0.36344 0.55934 0.84724 0.0
C287 C 0.28905 0.34047 0.95796 0.0
C288 C 0.33433 0.33059 0.95142 0.0
C289 C 0.38616 0.37675 0.94294 0.0
C290 C 0.39272 0.43373 0.94113 0.0
C291 C 0.34812 0.44424 0.94849 0.0
C292 C 0.29699 0.39739 0.95701 0.0
C293 C 0.43377 0.36467 0.93578 0.0
C294 C 0.35411 0.50468 0.94703 0.0
C295 C 0.7655 0.83491 0.96291 0.0
C296 C 0.74029 0.81032 0.98464 0.0
C297 C 0.67571 0.70607 0.97447 0.0
C298 C 0.67445 0.6522 0.97235 0.0
C299 C 0.63095 0.60615 0.95992 0.0
C300 C 0.58723 0.61419 0.94967 0.0
C301 C 0.58646 0.6675 0.95264 0.0
C302 C 0.63084 0.71297 0.96491 0.0
C303 C 0.63253 0.5496 0.95728 0.0
C304 C 0.53931 0.67697 0.94251 0.0
C305 C 0.55703 0.60036 0.84709 0.0
C306 C 0.50625 0.56774 0.83465 0.0
C307 C 0.45365 0.52403 0.84342 0.0
C308 C 0.45212 0.51109 0.86509 0.0
C309 C 0.40146 0.46458 0.87419 0.0
C310 C 0.39952 0.45406 0.8957 0.0
C311 C 0.44787 0.49024 0.90897 0.0
C312 C 0.44547 0.48192 0.93099 0.0
C313 C 0.49262 0.52133 0.94386 0.0
C314 C 0.54323 0.56817 0.93524 0.0
C315 C 0.5483 0.57443 0.91317 0.0
C316 C 0.60035 0.61839 0.90394 0.0
C317 C 0.60392 0.62594 0.88225 0.0
C318 C 0.55493 0.59109 0.86904 0.0
C319 C 0.50237 0.546 0.87802 0.0
C320 C 0.4997 0.53651 0.90005 0.0
C321 C 0.15019 0.22569 0.94865 0.0
C322 C 0.20777 0.23789 0.9596 0.0
O323 O 0.77564 0.76909 0.81259 0.0
O324 O 0.72131 0.7503 0.98553 0.0
O325 O 0.23782 0.29682 0.96579 0.0
O326 O 0.25089 0.42322 0.79021 0.0
H327 H 0.80104 0.72076 0.7947 0.0
H328 H 0.82693 0.71275 0.83187 0.0
H329 H 0.87318 0.79163 0.83397 0.0
H330 H 0.89266 0.74957 0.8166 0.0
H331 H 0.697 0.79122 0.82644 0.0
H332 H 0.73389 0.65108 0.81489 0.0
H333 H 0.54406 0.69877 0.83623 0.0
H334 H 0.60582 0.77282 0.83989 0.0
H335 H 0.58432 0.71922 0.8607 0.0
H336 H 0.66872 0.55267 0.82311 0.0
H337 H 0.5921 0.53268 0.82134 0.0
H338 H 0.62792 0.54575 0.84657 0.0
H339 H 0.29617 0.43349 0.76296 0.0
H340 H 0.21755 0.42952 0.73979 0.0
H341 H 0.24208 0.48693 0.75949 0.0
H342 H 0.17246 0.41955 0.76241 0.0
H343 H 0.33563 0.39509 0.78967 0.0
H344 H 0.27234 0.49833 0.81997 0.0
H345 H 0.47728 0.46841 0.80565 0.0
H346 H 0.41969 0.39255 0.80217 0.0
H347 H 0.44794 0.42185 0.82817 0.0
H348 H 0.33155 0.57481 0.84409 0.0
H349 H 0.40885 0.59803 0.84682 0.0
H350 H 0.35599 0.54098 0.86336 0.0
H351 H 0.23305 0.22798 0.94803 0.0
H352 H 0.32976 0.28727 0.95315 0.0
H353 H 0.26219 0.40466 0.96253 0.0
H354 H 0.43945 0.37169 0.91856 0.0
H355 H 0.4234 0.31881 0.93932 0.0
H356 H 0.47645 0.39622 0.94354 0.0
H357 H 0.31469 0.50514 0.95296 0.0
H358 H 0.36101 0.51963 0.93044 0.0
H359 H 0.39339 0.53703 0.95631 0.0
H360 H 0.70278 0.81758 0.98783 0.0
H361 H 0.78195 0.88322 0.96233 0.0
H362 H 0.73107 0.81341 0.95043 0.0
H363 H 0.80241 0.827 0.95939 0.0
H364 H 0.70883 0.64699 0.97999 0.0
H365 H 0.63029 0.75382 0.96676 0.0
H366 H 0.63492 0.5411 0.94033 0.0
H367 H 0.59123 0.51189 0.96333 0.0
H368 H 0.67067 0.55103 0.96574 0.0
H369 H 0.53996 0.71699 0.94875 0.0
H370 H 0.49497 0.63797 0.94506 0.0
H371 H 0.54627 0.68223 0.9253 0.0
H372 H 0.50758 0.57687 0.81795 0.0
H373 H 0.36269 0.43589 0.86476 0.0
H374 H 0.3592 0.41792 0.90184 0.0
H375 H 0.48913 0.51653 0.96081 0.0
H376 H 0.63898 0.6473 0.91339 0.0
H377 H 0.64515 0.66043 0.87604 0.0
H378 H 0.12155 0.23197 0.95982 0.0
H379 H 0.12576 0.17994 0.9422 0.0
H380 H 0.16014 0.25674 0.93534 0.0
C381 C 0.06433 0.19451 0.10333 0.0
C382 C 0.01607 0.13852 0.0983 0.0
H383 H 0.0979 0.27199 0.12276 0.0
C384 C 0.96239 0.11928 0.10848 0.0
H385 H 0.10644 0.21025 0.09586 0.0
C386 C 0.95736 0.15484 0.12371 0.0
C387 C 0.0058 0.21045 0.12902 0.0
H388 H 0.9246 0.07614 0.10505 0.0
H389 H 0.91589 0.13832 0.13172 0.0
C390 C 0.05943 0.22993 0.11869 0.0
C391 C 0.83442 0.96085 0.4312 0.0
C392 C 0.88944 0.01273 0.43351 0.0
H393 H 0.74647 0.90923 0.44269 0.0
C394 C 0.8972 0.05384 0.44924 0.0
H395 H 0.82728 0.92829 0.41926 0.0
C396 C 0.85102 0.04308 0.46253 0.0
C397 C 0.79592 0.99118 0.46027 0.0
H398 H 0.93919 0.09415 0.45145 0.0
H399 H 0.85855 0.07501 0.47477 0.0
C400 C 0.78817 0.95005 0.44453 0.0
C401 C 0.91008 0.85375 0.75842 0.0
C402 C 0.93997 0.91108 0.76708 0.0
H403 H 0.84955 0.76185 0.76351 0.0
C404 C 0.92923 0.91958 0.78799 0.0
H405 H 0.91744 0.84583 0.74233 0.0
C406 C 0.88962 0.87147 0.80004 0.0
C407 C 0.86073 0.81385 0.79152 0.0
H408 H 0.95141 0.96335 0.79502 0.0
H409 H 0.88206 0.87914 0.81613 0.0
C410 C 0.87117 0.80564 0.77053 0.0
C411 C 0.07423 0.93479 0.12616 0.0
C412 C 0.05818 0.91601 0.10522 0.0
H413 H 0.06363 0.9096 0.15857 0.0
C414 C 0.02473 0.85521 0.10073 0.0
H415 H 0.0998 0.98148 0.13003 0.0
C416 C 0.00274 0.81426 0.11705 0.0
C417 C 0.01531 0.83337 0.13814 0.0
H418 H 0.0112 0.83959 0.08472 0.0
H419 H 0.97334 0.76815 0.11311 0.0
C420 C 0.05335 0.89375 0.14246 0.0
C421 C 0.21631 0.13918 0.44009 0.0
C422 C 0.16192 0.08624 0.44096 0.0
H423 H 0.30142 0.19353 0.4545 0.0
C424 C 0.15193 0.04671 0.45748 0.0
H425 H 0.22511 0.1706 0.42758 0.0
C426 C 0.19556 0.05975 0.4728 0.0
C427 C 0.25025 0.11243 0.47185 0.0
H428 H 0.11033 0.00566 0.4586 0.0
H429 H 0.1866 0.02867 0.48544 0.0
C430 C 0.25999 0.15226 0.45544 0.0
C431 C 0.1342 0.24677 0.76805 0.0
C432 C 0.15818 0.2245 0.75351 0.0
H433 H 0.14473 0.32329 0.78446 0.0
C434 C 0.214 0.26288 0.74523 0.0
H435 H 0.09124 0.21823 0.77467 0.0
C436 C 0.24441 0.3227 0.75082 0.0
C437 C 0.21992 0.34541 0.76492 0.0
H438 H 0.23368 0.24702 0.73402 0.0
H439 H 0.2866 0.35158 0.74372 0.0
C440 C 0.16479 0.30674 0.77368 0.0
C441 C 0.94134 0.11388 0.67926 0.0
C442 C 0.96266 0.05802 0.6798 0.0
H443 H 0.87803 0.14533 0.65874 0.0
C444 C 0.94262 0.00426 0.6589 0.0
H445 H 0.95598 0.14656 0.69173 0.0
C446 C 0.89614 0.00155 0.63731 0.0
C447 C 0.86211 0.04858 0.64085 0.0
H448 H 0.95784 0.97269 0.6595 0.0
H449 H 0.87936 0.96606 0.62582 0.0
C450 C 0.89492 0.1151 0.65835 0.0
C451 C 0.87333 0.8576 0.02147 0.0
C452 C 0.88366 0.91288 0.02864 0.0
H453 H 0.82094 0.78232 0.00178 0.0
C454 C 0.84483 0.93261 0.02241 0.0
H455 H 0.90288 0.84151 0.02587 0.0
C456 C 0.79717 0.89814 0.00887 0.0
C457 C 0.78758 0.84345 0.00126 0.0
H458 H 0.85196 0.97519 0.02763 0.0
H459 H 0.76866 0.91494 0.00384 0.0
C460 C 0.82623 0.82356 0.00772 0.0
C461 C 0.9542 0.85831 0.35208 0.0
C462 C 0.00588 0.8944 0.36385 0.0
H463 H 0.89951 0.77351 0.33745 0.0
C464 C 0.04493 0.87358 0.36843 0.0
H465 H 0.92328 0.87318 0.34833 0.0
C466 C 0.03116 0.81671 0.36237 0.0
C467 C 0.97829 0.77951 0.35143 0.0
H468 H 0.08517 0.90037 0.37745 0.0
H469 H 0.06106 0.8011 0.36685 0.0
C470 C 0.94056 0.80135 0.34588 0.0
C471 C 0.20713 0.97855 0.73085 0.0
C472 C 0.19296 0.0113 0.71686 0.0
H473 H 0.2591 0.93842 0.73703 0.0
C474 C 0.22284 0.02979 0.69777 0.0
H475 H 0.18495 0.96399 0.74574 0.0
C476 C 0.26564 0.01525 0.69267 0.0
C477 C 0.279 0.98098 0.70631 0.0
H478 H 0.21326 0.05566 0.68675 0.0
H479 H 0.2882 0.03064 0.67788 0.0
C480 C 0.24978 0.96368 0.72571 0.0
C481 C 0.18662 0.18097 0.01621 0.0
C482 C 0.15376 0.11966 0.01279 0.0
H483 H 0.22859 0.26668 0.00241 0.0
C484 C 0.14565 0.09742 0.9922 0.0
H485 H 0.19312 0.1992 0.03195 0.0
C486 C 0.16689 0.13603 0.97519 0.0
C487 C 0.19494 0.19755 0.9784 0.0
H488 H 0.12051 0.05021 0.98919 0.0
H489 H 0.15845 0.11773 0.95941 0.0
C490 C 0.20648 0.21965 -0.00082 0.0
C491 C 0.03769 0.22445 0.36446 0.0
C492 C 0.0715 0.19726 0.36099 0.0
H493 H 0.03379 0.30428 0.36307 0.0
C494 C 0.12571 0.22921 0.35079 0.0
H495 H 0.99564 0.20093 0.37223 0.0
C496 C 0.14735 0.28844 0.34538 0.0
C497 C 0.11544 0.31684 0.35033 0.0
H498 H 0.15262 0.20932 0.34785 0.0
H499 H 0.19024 0.31286 0.33824 0.0
C500 C 0.05958 0.2837 0.35928 0.0
loop_
_geom_bond_atom_site_label_1
_geom_bond_atom_site_label_2
_geom_bond_distance
_geom_bond_site_symmetry_2
_ccdc_geom_bond_type
In0 O1 2.294 1_455 S
In0 O2 2.326 . S
In0 O6 2.266 1_445 S
In0 O7 2.326 1_445 S
In0 O8 2.266 1_545 S
In0 O9 2.326 1_445 S
In0 O11 2.294 . S
In0 O12 2.326 . S
O1 In0 2.294 1_655 S
O1 C10 1.240 1_655 S
O2 In0 2.326 . S
O2 C10 1.252 . S
C3 O6 1.252 . S
C3 O7 1.260 . S
C4 O11 1.240 . S
C4 O12 1.252 . S
C5 O8 1.252 . S
C5 O9 1.260 1_455 S
O6 In0 2.266 1_665 S
O6 C3 1.252 . S
O7 In0 2.326 1_665 S
O7 C3 1.260 . S
O8 In0 2.266 1_565 S
O8 C5 1.252 . S
O9 In0 2.326 1_665 S
O9 C5 1.260 1_655 S
C10 O1 1.240 1_455 S
C10 O2 1.252 . S
O11 In0 2.294 . S
O11 C4 1.240 . S
O12 In0 2.326 . S
O12 C4 1.252 . S
In13 O14 2.294 . S
In13 O15 2.326 1_455 S
In13 O19 2.266 . S
In13 O20 2.326 1_545 S
In13 O21 2.266 1_445 S
In13 O22 2.326 . S
In13 O24 2.294 1_455 S
In13 O25 2.333 . S
O14 In13 2.294 . S
O14 C23 1.240 . S
O15 In13 2.326 1_655 S
O15 C23 1.252 1_655 S
C16 O19 1.252 . S
C16 O20 1.260 1_545 S
C17 O24 1.240 . S
C17 O25 1.246 1_655 S
C18 O21 1.252 1_455 S
C18 O22 1.260 1_565 S
O19 In13 2.266 . S
O19 C16 1.252 . S
O20 In13 2.326 1_565 S
O20 C16 1.260 1_565 S
O21 In13 2.266 1_665 S
O21 C18 1.252 1_655 S
O22 In13 2.326 . S
O22 C18 1.260 1_545 S
C23 O14 1.240 . S
C23 O15 1.252 1_455 S
O24 In13 2.294 1_655 S
O24 C17 1.240 . S
O25 In13 2.333 . S
O25 C17 1.246 1_455 S
In26 O27 2.294 1_445 S
In26 O28 2.324 1_455 S
In26 O32 2.266 1_545 S
In26 O33 2.326 . S
In26 O34 2.266 . S
In26 O35 2.326 . S
In26 O37 2.294 1_455 S
In26 O38 2.326 1_445 S
O27 In26 2.294 1_665 S
O27 C36 1.240 . S
O28 In26 2.324 1_655 S
O28 C36 1.230 1_545 S
C29 O32 1.252 1_545 S
C29 O33 1.260 . S
C30 O37 1.240 . S
C30 O38 1.252 1_545 S
C31 O34 1.252 . S
C31 O35 1.260 . S
O32 In26 2.266 1_565 S
O32 C29 1.252 1_565 S
O33 In26 2.326 . S
O33 C29 1.260 . S
O34 In26 2.266 . S
O34 C31 1.252 . S
O35 In26 2.326 . S
O35 C31 1.260 . S
C36 O27 1.240 . S
C36 O28 1.230 1_565 S
O37 In26 2.294 1_655 S
O37 C30 1.240 . S
O38 In26 2.326 1_665 S
O38 C30 1.252 1_565 S
C39 C40 1.560 . S
C39 H100 0.959 . S
C39 H101 0.959 . S
C39 H102 0.960 . S
C40 C39 1.560 . S
C40 O95 1.426 . S
C40 H99 0.980 1_655 S
C41 C42 1.407 1_655 S
C41 C46 1.418 . S
C41 O95 1.334 . S
C42 C41 1.407 1_455 S
C42 C43 1.360 . S
C42 H103 0.929 . S
C43 C42 1.360 . S
C43 C44 1.401 . S
C43 C47 1.527 . S
C44 C43 1.401 . S
C44 C45 1.405 1_455 S
C44 C77 1.587 . S
C45 C44 1.405 1_655 S
C45 C46 1.332 . S
C45 C48 1.496 . S
C46 C41 1.418 . S
C46 C45 1.332 . S
C46 H104 0.929 . S
C47 C43 1.527 . S
C47 H105 0.959 . S
C47 H106 0.961 . S
C47 H107 0.961 . S
C48 C45 1.496 . S
C48 H108 0.960 . S
C48 H109 0.960 . S
C48 H110 0.961 . S
C49 C50 1.517 . S
C49 H112 0.961 . S
C49 H113 0.960 . S
C49 H114 0.959 . S
C50 C49 1.517 . S
C50 O98 1.468 . S
C50 H111 0.980 . S
C51 C52 1.349 . S
C51 C56 1.367 . S
C51 O98 1.408 . S
C52 C51 1.349 . S
C52 C53 1.407 . S
C52 H115 0.930 . S
C53 C52 1.407 . S
C53 C54 1.449 . S
C53 C57 1.535 1_455 S
C54 C53 1.449 . S
C54 C55 1.384 . S
C54 C79 1.553 . S
C55 C54 1.384 . S
C55 C56 1.364 . S
C55 C58 1.450 . S
C56 C51 1.367 . S
C56 C55 1.364 . S
C56 H116 0.931 . S
C57 C53 1.535 1_655 S
C57 H117 0.959 . S
C57 H118 0.961 . S
C57 H119 0.959 . S
C58 C55 1.450 . S
C58 H120 0.960 . S
C58 H121 0.960 . S
C58 H122 0.960 . S
C59 C60 1.309 . S
C59 C64 1.304 . S
C59 O97 1.435 . S
C60 C59 1.309 . S
C60 C61 1.476 . S
C60 H124 0.930 1_455 S
C61 C60 1.476 . S
C61 C62 1.400 . S
C61 C65 1.567 1_455 S
C62 C61 1.400 . S
C62 C63 1.373 . S
C62 C84 1.432 . S
C63 C62 1.373 . S
C63 C64 1.339 . S
C63 C66 1.530 . S
C64 C59 1.304 . S
C64 C63 1.339 . S
C64 H125 0.930 . S
C65 C61 1.567 1_655 S
C65 H126 0.961 . S
C65 H127 0.960 . S
C65 H128 0.958 . S
C66 C63 1.530 . S
C66 H129 0.961 . S
C66 H130 0.960 . S
C66 H131 0.960 . S
C67 C68 1.530 1_655 S
C67 H133 0.961 . S
C67 H134 0.961 . S
C67 H135 0.959 . S
C68 C67 1.530 1_455 S
C68 O96 1.412 1_455 S
C68 H132 0.980 . S
C69 C70 1.288 . S
C69 C74 1.377 1_655 S
C69 O96 1.393 . S
C70 C69 1.288 . S
C70 C71 1.369 . S
C70 H136 0.932 . S
C71 C70 1.369 . S
C71 C72 1.398 1_655 S
C71 C75 1.527 . S
C72 C71 1.398 1_455 S
C72 C73 1.380 . S
C72 C86 1.497 . S
C73 C72 1.380 . S
C73 C74 1.383 . S
C73 C76 1.603 . S
C74 C69 1.377 1_455 S
C74 C73 1.383 . S
C74 H137 0.929 . S
C75 C71 1.527 . S
C75 H138 0.961 . S
C75 H139 0.959 . S
C75 H140 0.959 . S
C76 C73 1.603 . S
C76 H141 0.960 . S
C76 H142 0.962 . S
C76 H143 0.961 . S
C77 C44 1.587 . S
C77 C78 1.360 . S
C77 C90 1.412 . S
C78 C77 1.360 . S
C78 C79 1.365 . S
C78 H144 0.929 . S
C79 C54 1.553 . S
C79 C78 1.365 . S
C79 C80 1.404 . S
C80 C79 1.404 . S
C80 C81 1.395 . S
C80 C91 1.451 . S
C81 C80 1.395 . S
C81 C82 1.322 . S
C81 H145 0.930 . S
C82 C81 1.322 . S
C82 C83 1.459 . S
C82 H146 0.929 . S
C83 C82 1.459 . S
C83 C84 1.445 . S
C83 C92 1.395 . S
C84 C62 1.432 . S
C84 C83 1.445 . S
C84 C85 1.370 . S
C85 C84 1.370 . S
C85 C86 1.438 . S
C85 H147 0.930 . S
C86 C72 1.497 . S
C86 C85 1.438 . S
C86 C87 1.360 . S
C87 C86 1.360 . S
C87 C88 1.401 . S
C87 C92 1.446 . S
C88 C87 1.401 . S
C88 C89 1.347 . S
C88 H148 0.929 . S
C89 C88 1.347 . S
C89 C90 1.455 . S
C89 H149 0.930 . S
C90 C77 1.412 . S
C90 C89 1.455 . S
C90 C91 1.331 . S
C91 C80 1.451 . S
C91 C90 1.331 . S
C91 C92 1.497 . S
C92 C83 1.395 . S
C92 C87 1.446 . S
C92 C91 1.497 . S
C93 C94 1.582 . S
C93 H150 0.962 . S
C93 H151 0.959 . S
C93 H152 0.958 . S
C94 C93 1.582 . S
C94 O97 1.458 . S
C94 H123 0.980 . S
O95 C40 1.426 . S
O95 C41 1.334 . S
O96 C68 1.412 1_655 S
O96 C69 1.393 . S
O97 C59 1.435 . S
O97 C94 1.458 . S
O98 C50 1.468 . S
O98 C51 1.408 . S
H99 C40 0.980 1_455 S
H100 C39 0.959 . S
H101 C39 0.959 . S
H102 C39 0.960 . S
H103 C42 0.929 . S
H104 C46 0.929 . S
H105 C47 0.959 . S
H106 C47 0.961 . S
H107 C47 0.961 . S
H108 C48 0.960 . S
H109 C48 0.960 . S
H110 C48 0.961 . S
H111 C50 0.980 . S
H112 C49 0.961 . S
H113 C49 0.960 . S
H114 C49 0.959 . S
H115 C52 0.930 . S
H116 C56 0.931 . S
H117 C57 0.959 . S
H118 C57 0.961 . S
H119 C57 0.959 . S
H120 C58 0.960 . S
H121 C58 0.960 . S
H122 C58 0.960 . S
H123 C94 0.980 . S
H124 C60 0.930 1_655 S
H125 C64 0.930 . S
H126 C65 0.961 . S
H127 C65 0.960 . S
H128 C65 0.958 . S
H129 C66 0.961 . S
H130 C66 0.960 . S
H131 C66 0.960 . S
H132 C68 0.980 . S
H133 C67 0.961 . S
H134 C67 0.961 . S
H135 C67 0.959 . S
H136 C70 0.932 . S
H137 C74 0.929 . S
H138 C75 0.961 . S
H139 C75 0.959 . S
H140 C75 0.959 . S
H141 C76 0.960 . S
H142 C76 0.962 . S
H143 C76 0.961 . S
H144 C78 0.929 . S
H145 C81 0.930 . S
H146 C82 0.929 . S
H147 C85 0.930 . S
H148 C88 0.929 . S
H149 C89 0.930 . S
H150 C93 0.962 . S
H151 C93 0.959 . S
H152 C93 0.958 . S
C153 C154 1.560 1_565 S
C153 H214 0.959 . S
C153 H215 0.959 . S
C153 H216 0.960 . S
C154 C153 1.560 1_545 S
C154 O209 1.426 1_545 S
C154 H213 0.980 . S
C155 C156 1.407 . S
C155 C160 1.418 1_545 S
C155 O209 1.334 1_545 S
C156 C155 1.407 . S
C156 C157 1.360 . S
C156 H217 0.929 . S
C157 C156 1.360 . S
C157 C158 1.401 . S
C157 C161 1.527 . S
C158 C157 1.401 . S
C158 C159 1.405 1_545 S
C158 C191 1.587 . S
C159 C158 1.405 1_565 S
C159 C160 1.332 . S
C159 C162 1.496 . S
C160 C155 1.418 1_565 S
C160 C159 1.332 . S
C160 H218 0.929 . S
C161 C157 1.527 . S
C161 H219 0.959 . S
C161 H220 0.961 . S
C161 H221 0.961 . S
C162 C159 1.496 . S
C162 H222 0.960 . S
C162 H223 0.960 . S
C162 H224 0.961 . S
C163 C164 1.517 . S
C163 H226 0.961 . S
C163 H227 0.960 . S
C163 H228 0.959 . S
C164 C163 1.517 . S
C164 O212 1.468 . S
C164 H225 0.980 . S
C165 C166 1.349 . S
C165 C170 1.367 . S
C165 O212 1.408 . S
C166 C165 1.349 . S
C166 C167 1.407 . S
C166 H229 0.930 . S
C167 C166 1.407 . S
C167 C168 1.449 . S
C167 C171 1.535 1_545 S
C168 C167 1.449 . S
C168 C169 1.384 . S
C168 C193 1.553 . S
C169 C168 1.384 . S
C169 C170 1.364 . S
C169 C172 1.450 . S
C170 C165 1.367 . S
C170 C169 1.364 . S
C170 H230 0.931 . S
C171 C167 1.535 1_565 S
C171 H231 0.959 . S
C171 H232 0.961 . S
C171 H233 0.959 . S
C172 C169 1.450 . S
C172 H234 0.960 . S
C172 H235 0.960 . S
C172 H236 0.960 . S
C173 C174 1.309 . S
C173 C178 1.304 . S
C173 O211 1.435 . S
C174 C173 1.309 . S
C174 C175 1.476 . S
C174 H238 0.930 . S
C175 C174 1.476 . S
C175 C176 1.400 . S
C175 C179 1.567 1_545 S
C176 C175 1.400 . S
C176 C177 1.373 . S
C176 C198 1.432 . S
C177 C176 1.373 . S
C177 C178 1.339 . S
C177 C180 1.530 . S
C178 C173 1.304 . S
C178 C177 1.339 . S
C178 H239 0.930 . S
C179 C175 1.567 1_565 S
C179 H240 0.961 . S
C179 H241 0.960 . S
C179 H242 0.958 . S
C180 C177 1.530 . S
C180 H243 0.961 . S
C180 H244 0.960 . S
C180 H245 0.960 . S
C181 C182 1.530 1_565 S
C181 H247 0.961 1_565 S
C181 H248 0.961 . S
C181 H249 0.959 . S
C182 C181 1.530 1_545 S
C182 O210 1.412 1_545 S
C182 H246 0.980 . S
C183 C184 1.288 1_545 S
C183 C188 1.377 . S
C183 O210 1.393 1_545 S
C184 C183 1.288 1_565 S
C184 C185 1.369 . S
C184 H250 0.932 . S
C185 C184 1.369 . S
C185 C186 1.398 1_565 S
C185 C189 1.527 . S
C186 C185 1.398 1_545 S
C186 C187 1.380 . S
C186 C200 1.497 . S
C187 C186 1.380 . S
C187 C188 1.383 . S
C187 C190 1.603 . S
C188 C183 1.377 . S
C188 C187 1.383 . S
C188 H251 0.929 . S
C189 C185 1.527 . S
C189 H252 0.961 . S
C189 H253 0.959 . S
C189 H254 0.959 . S
C190 C187 1.603 . S
C190 H255 0.960 . S
C190 H256 0.962 . S
C190 H257 0.961 . S
C191 C158 1.587 . S
C191 C192 1.360 . S
C191 C204 1.412 . S
C192 C191 1.360 . S
C192 C193 1.365 . S
C192 H258 0.929 . S
C193 C168 1.553 . S
C193 C192 1.365 . S
C193 C194 1.404 . S
C194 C193 1.404 . S
C194 C195 1.395 . S
C194 C205 1.451 . S
C195 C194 1.395 . S
C195 C196 1.322 . S
C195 H259 0.930 . S
C196 C195 1.322 . S
C196 C197 1.459 . S
C196 H260 0.929 . S
C197 C196 1.459 . S
C197 C198 1.445 . S
C197 C206 1.395 . S
C198 C176 1.432 . S
C198 C197 1.445 . S
C198 C199 1.370 . S
C199 C198 1.370 . S
C199 C200 1.438 . S
C199 H261 0.930 . S
C200 C186 1.497 . S
C200 C199 1.438 . S
C200 C201 1.360 . S
C201 C200 1.360 . S
C201 C202 1.401 . S
C201 C206 1.446 . S
C202 C201 1.401 . S
C202 C203 1.347 . S
C202 H262 0.929 . S
C203 C202 1.347 . S
C203 C204 1.455 . S
C203 H263 0.930 . S
C204 C191 1.412 . S
C204 C203 1.455 . S
C204 C205 1.331 . S
C205 C194 1.451 . S
C205 C204 1.331 . S
C205 C206 1.497 . S
C206 C197 1.395 . S
C206 C201 1.446 . S
C206 C205 1.497 . S
C207 C208 1.582 . S
C207 H264 0.962 . S
C207 H265 0.959 . S
C207 H266 0.958 . S
C208 C207 1.582 . S
C208 O211 1.458 . S
C208 H237 0.980 . S
O209 C154 1.426 1_565 S
O209 C155 1.334 1_565 S
O210 C182 1.412 1_565 S
O210 C183 1.393 1_565 S
O211 C173 1.435 . S
O211 C208 1.458 . S
O212 C164 1.468 . S
O212 C165 1.408 . S
H213 C154 0.980 . S
H214 C153 0.959 . S
H215 C153 0.959 . S
H216 C153 0.960 . S
H217 C156 0.929 . S
H218 C160 0.929 . S
H219 C161 0.959 . S
H220 C161 0.961 . S
H221 C161 0.961 . S
H222 C162 0.960 . S
H223 C162 0.960 . S
H224 C162 0.961 . S
H225 C164 0.980 . S
H226 C163 0.961 . S
H227 C163 0.960 . S
H228 C163 0.959 . S
H229 C166 0.930 . S
H230 C170 0.931 . S
H231 C171 0.959 . S
H232 C171 0.961 . S
H233 C171 0.959 . S
H234 C172 0.960 . S
H235 C172 0.960 . S
H236 C172 0.960 . S
H237 C208 0.980 . S
H238 C174 0.930 . S
H239 C178 0.930 . S
H240 C179 0.961 . S
H241 C179 0.960 . S
H242 C179 0.958 . S
H243 C180 0.961 . S
H244 C180 0.960 . S
H245 C180 0.960 . S
H246 C182 0.980 . S
H247 C181 0.961 1_545 S
H248 C181 0.961 . S
H249 C181 0.959 . S
H250 C184 0.932 . S
H251 C188 0.929 . S
H252 C189 0.961 . S
H253 C189 0.959 . S
H254 C189 0.959 . S
H255 C190 0.960 . S
H256 C190 0.962 . S
H257 C190 0.961 . S
H258 C192 0.929 . S
H259 C195 0.930 . S
H260 C196 0.929 . S
H261 C199 0.930 . S
H262 C202 0.929 . S
H263 C203 0.930 . S
H264 C207 0.962 . S
H265 C207 0.959 . S
H266 C207 0.958 . S
C267 C268 1.560 . S
C267 H328 0.959 . S
C267 H329 0.959 . S
C267 H330 0.960 . S
C268 C267 1.560 . S
C268 O323 1.426 . S
C268 H327 0.980 . S
C269 C270 1.407 . S
C269 C274 1.418 . S
C269 O323 1.334 . S
C270 C269 1.407 . S
C270 C271 1.360 . S
C270 H331 0.929 . S
C271 C270 1.360 . S
C271 C272 1.401 . S
C271 C275 1.527 . S
C272 C271 1.401 . S
C272 C273 1.405 . S
C272 C305 1.587 . S
C273 C272 1.405 . S
C273 C274 1.332 . S
C273 C276 1.496 . S
C274 C269 1.418 . S
C274 C273 1.332 . S
C274 H332 0.929 . S
C275 C271 1.527 . S
C275 H333 0.959 . S
C275 H334 0.961 . S
C275 H335 0.961 . S
C276 C273 1.496 . S
C276 H336 0.960 . S
C276 H337 0.960 . S
C276 H338 0.961 . S
C277 C278 1.517 . S
C277 H340 0.961 . S
C277 H341 0.960 . S
C277 H342 0.959 . S
C278 C277 1.517 . S
C278 O326 1.468 . S
C278 H339 0.980 . S
C279 C280 1.349 . S
C279 C284 1.367 . S
C279 O326 1.408 . S
C280 C279 1.349 . S
C280 C281 1.407 . S
C280 H343 0.930 . S
C281 C280 1.407 . S
C281 C282 1.449 . S
C281 C285 1.535 . S
C282 C281 1.449 . S
C282 C283 1.384 . S
C282 C307 1.553 . S
C283 C282 1.384 . S
C283 C284 1.364 . S
C283 C286 1.450 . S
C284 C279 1.367 . S
C284 C283 1.364 . S
C284 H344 0.931 . S
C285 C281 1.535 . S
C285 H345 0.959 . S
C285 H346 0.961 . S
C285 H347 0.959 . S
C286 C283 1.450 . S
C286 H348 0.960 . S
C286 H349 0.960 . S
C286 H350 0.960 . S
C287 C288 1.309 . S
C287 C292 1.304 . S
C287 O325 1.435 . S
C288 C287 1.309 . S
C288 C289 1.476 . S
C288 H352 0.930 . S
C289 C288 1.476 . S
C289 C290 1.400 . S
C289 C293 1.567 . S
C290 C289 1.400 . S
C290 C291 1.373 . S
C290 C312 1.432 . S
C291 C290 1.373 . S
C291 C292 1.339 . S
C291 C294 1.530 . S
C292 C287 1.304 . S
C292 C291 1.339 . S
C292 H353 0.930 . S
C293 C289 1.567 . S
C293 H354 0.961 . S
C293 H355 0.960 . S
C293 H356 0.958 . S
C294 C291 1.530 . S
C294 H357 0.961 . S
C294 H358 0.960 . S
C294 H359 0.960 . S
C295 C296 1.536 . S
C295 H361 0.955 1_556 S
C295 H362 0.979 . S
C295 H363 0.942 1_556 S
C296 C295 1.536 . S
C296 O324 1.412 . S
C296 H360 0.980 . S
C297 C298 1.288 . S
C297 C302 1.377 . S
C297 O324 1.393 . S
C298 C297 1.288 . S
C298 C299 1.369 . S
C298 H364 0.932 . S
C299 C298 1.369 . S
C299 C300 1.398 . S
C299 C303 1.527 . S
C300 C299 1.398 . S
C300 C301 1.380 . S
C300 C314 1.497 . S
C301 C300 1.380 . S
C301 C302 1.383 . S
C301 C304 1.603 . S
C302 C297 1.377 . S
C302 C301 1.383 . S
C302 H365 0.929 . S
C303 C299 1.527 . S
C303 H366 0.961 . S
C303 H367 0.959 . S
C303 H368 0.959 . S
C304 C301 1.603 . S
C304 H369 0.960 . S
C304 H370 0.962 . S
C304 H371 0.961 . S
C305 C272 1.587 . S
C305 C306 1.360 . S
C305 C318 1.412 . S
C306 C305 1.360 . S
C306 C307 1.365 . S
C306 H372 0.929 . S
C307 C282 1.553 . S
C307 C306 1.365 . S
C307 C308 1.404 . S
C308 C307 1.404 . S
C308 C309 1.395 . S
C308 C319 1.451 . S
C309 C308 1.395 . S
C309 C310 1.322 . S
C309 H373 0.930 . S
C310 C309 1.322 . S
C310 C311 1.459 . S
C310 H374 0.929 . S
C311 C310 1.459 . S
C311 C312 1.445 . S
C311 C320 1.395 . S
C312 C290 1.432 . S
C312 C311 1.445 . S
C312 C313 1.370 . S
C313 C312 1.370 . S
C313 C314 1.438 . S
C313 H375 0.930 . S
C314 C300 1.497 . S
C314 C313 1.438 . S
C314 C315 1.360 . S
C315 C314 1.360 . S
C315 C316 1.401 . S
C315 C320 1.446 . S
C316 C315 1.401 . S
C316 C317 1.347 . S
C316 H376 0.929 . S
C317 C316 1.347 . S
C317 C318 1.455 . S
C317 H377 0.930 . S
C318 C305 1.412 . S
C318 C317 1.455 . S
C318 C319 1.331 . S
C319 C308 1.451 . S
C319 C318 1.331 . S
C319 C320 1.497 . S
C320 C311 1.395 . S
C320 C315 1.446 . S
C320 C319 1.497 . S
C321 C322 1.582 . S
C321 H378 0.962 1_556 S
C321 H379 0.959 . S
C321 H380 0.958 1_556 S
C322 C321 1.582 . S
C322 O325 1.458 . S
C322 H351 0.980 . S
O323 C268 1.426 . S
O323 C269 1.334 . S
O324 C296 1.412 . S
O324 C297 1.393 . S
O325 C287 1.435 . S
O325 C322 1.458 . S
O326 C278 1.468 . S
O326 C279 1.408 . S
H327 C268 0.980 . S
H328 C267 0.959 . S
H329 C267 0.959 . S
H330 C267 0.960 . S
H331 C270 0.929 . S
H332 C274 0.929 . S
H333 C275 0.959 . S
H334 C275 0.961 . S
H335 C275 0.961 . S
H336 C276 0.960 . S
H337 C276 0.960 . S
H338 C276 0.961 . S
H339 C278 0.980 . S
H340 C277 0.961 . S
H341 C277 0.960 . S
H342 C277 0.959 . S
H343 C280 0.930 . S
H344 C284 0.931 . S
H345 C285 0.959 . S
H346 C285 0.961 . S
H347 C285 0.959 . S
H348 C286 0.960 . S
H349 C286 0.960 . S
H350 C286 0.960 . S
H351 C322 0.980 . S
H352 C288 0.930 . S
H353 C292 0.930 . S
H354 C293 0.961 . S
H355 C293 0.960 . S
H356 C293 0.958 . S
H357 C294 0.961 . S
H358 C294 0.960 . S
H359 C294 0.960 . S
H360 C296 0.980 . S
H361 C295 0.955 1_554 S
H362 C295 0.979 . S
H363 C295 0.942 1_554 S
H364 C298 0.932 . S
H365 C302 0.929 . S
H366 C303 0.961 . S
H367 C303 0.959 . S
H368 C303 0.959 . S
H369 C304 0.960 . S
H370 C304 0.962 . S
H371 C304 0.961 . S
H372 C306 0.929 . S
H373 C309 0.930 . S
H374 C310 0.929 . S
H375 C313 0.930 . S
H376 C316 0.929 . S
H377 C317 0.930 . S
H378 C321 0.962 1_554 S
H379 C321 0.959 . S
H380 C321 0.958 1_554 S
C381 C382 1.387 . S
C381 H385 0.950 1_455 S
C381 C390 1.390 1_455 S
C382 C381 1.387 . S
C382 C384 1.387 . S
H383 C390 0.950 . S
C384 C382 1.387 . S
C384 C386 1.390 . S
C384 H388 0.950 . S
H385 C381 0.950 1_655 S
C386 C384 1.390 . S
C386 C387 1.387 . S
C386 H389 0.950 . S
C387 C386 1.387 . S
C387 C390 1.387 1_455 S
H388 C384 0.950 . S
H389 C386 0.950 . S
C390 C381 1.390 1_655 S
C390 H383 0.950 . S
C390 C387 1.387 1_655 S
C391 C392 1.387 1_565 S
C391 H395 0.950 . S
C391 C400 1.390 . S
C392 C391 1.387 1_545 S
C392 C394 1.387 . S
H393 C400 0.950 . S
C394 C392 1.387 . S
C394 C396 1.390 . S
C394 H398 0.950 . S
H395 C391 0.950 . S
C396 C394 1.390 . S
C396 C397 1.387 . S
C396 H399 0.950 . S
C397 C396 1.387 . S
C397 C400 1.387 1_545 S
H398 C394 0.950 . S
H399 C396 0.950 . S
C400 C391 1.390 . S
C400 H393 0.950 . S
C400 C397 1.387 1_565 S
C401 C402 1.387 . S
C401 H405 0.950 . S
C401 C410 1.390 . S
C402 C401 1.387 . S
C402 C404 1.387 . S
H403 C410 0.950 . S
C404 C402 1.387 . S
C404 C406 1.390 . S
C404 H408 0.950 . S
H405 C401 0.950 . S
C406 C404 1.390 . S
C406 C407 1.387 . S
C406 H409 0.950 . S
C407 C406 1.387 . S
C407 C410 1.387 . S
H408 C404 0.950 . S
H409 C406 0.950 . S
C410 C401 1.390 . S
C410 H403 0.950 . S
C410 C407 1.387 . S
C411 C412 1.387 . S
C411 H415 0.950 . S
C411 C420 1.390 . S
C412 C411 1.387 . S
C412 C414 1.387 . S
H413 C420 0.950 . S
C414 C412 1.387 . S
C414 C416 1.390 . S
C414 H418 0.950 . S
H415 C411 0.950 . S
C416 C414 1.390 . S
C416 C417 1.387 . S
C416 H419 0.950 . S
C417 C416 1.387 . S
C417 C420 1.387 . S
H418 C414 0.950 . S
H419 C416 0.950 . S
C420 C411 1.390 . S
C420 H413 0.950 . S
C420 C417 1.387 . S
C421 C422 1.387 . S
C421 H425 0.950 . S
C421 C430 1.390 . S
C422 C421 1.387 . S
C422 C424 1.387 1_545 S
H423 C430 0.950 . S
C424 C422 1.387 1_565 S
C424 C426 1.390 . S
C424 H428 0.950 . S
H425 C421 0.950 . S
C426 C424 1.390 . S
C426 C427 1.387 1_565 S
C426 H429 0.950 . S
C427 C426 1.387 1_545 S
C427 C430 1.387 . S
H428 C424 0.950 . S
H429 C426 0.950 . S
C430 C421 1.390 . S
C430 H423 0.950 . S
C430 C427 1.387 . S
C431 C432 1.387 . S
C431 H435 0.950 . S
C431 C440 1.390 . S
C432 C431 1.387 . S
C432 C434 1.387 . S
H433 C440 0.950 . S
C434 C432 1.387 . S
C434 C436 1.390 . S
C434 H438 0.950 . S
H435 C431 0.950 . S
C436 C434 1.390 . S
C436 C437 1.387 . S
C436 H439 0.950 . S
C437 C436 1.387 . S
C437 C440 1.387 . S
H438 C434 0.950 . S
H439 C436 0.950 . S
C440 C431 1.390 . S
C440 H433 0.950 . S
C440 C437 1.387 . S
C441 C442 1.387 . S
C441 H445 0.950 . S
C441 C450 1.390 . S
C442 C441 1.387 . S
C442 C444 1.387 1_545 S
H443 C450 0.950 . S
C444 C442 1.387 1_565 S
C444 C446 1.390 . S
C444 H448 0.950 . S
H445 C441 0.950 . S
C446 C444 1.390 . S
C446 C447 1.387 1_565 S
C446 H449 0.950 . S
C447 C446 1.387 1_545 S
C447 C450 1.387 . S
H448 C444 0.950 . S
H449 C446 0.950 . S
C450 C441 1.390 . S
C450 H443 0.950 . S
C450 C447 1.387 . S
C451 C452 1.387 . S
C451 H455 0.950 . S
C451 C460 1.390 . S
C452 C451 1.387 . S
C452 C454 1.387 . S
H453 C460 0.950 . S
C454 C452 1.387 . S
C454 C456 1.390 1_554 S
C454 H458 0.949 1_554 S
H455 C451 0.950 . S
C456 C454 1.390 1_556 S
C456 C457 1.387 1_556 S
C456 H459 0.950 . S
C457 C456 1.387 1_554 S
C457 C460 1.387 . S
H458 C454 0.949 1_556 S
H459 C456 0.950 . S
C460 C451 1.390 . S
C460 H453 0.950 . S
C460 C457 1.387 . S
C461 C462 1.387 . S
C461 H465 0.950 1_455 S
C461 C470 1.390 . S
C462 C461 1.387 . S
C462 C464 1.387 . S
H463 C470 0.950 1_655 S
C464 C462 1.387 . S
C464 C466 1.390 . S
C464 H468 0.950 . S
H465 C461 0.950 1_655 S
C466 C464 1.390 . S
C466 C467 1.387 . S
C466 H469 0.950 . S
C467 C466 1.387 . S
C467 C470 1.387 . S
H468 C464 0.950 . S
H469 C466 0.950 . S
C470 C461 1.390 . S
C470 H463 0.950 1_455 S
C470 C467 1.387 . S
C471 C472 1.387 1_565 S
C471 H475 0.950 . S
C471 C480 1.390 . S
C472 C471 1.387 1_545 S
C472 C474 1.387 . S
H473 C480 0.950 . S
C474 C472 1.387 . S
C474 C476 1.390 . S
C474 H478 0.950 . S
H475 C471 0.950 . S
C476 C474 1.390 . S
C476 C477 1.387 . S
C476 H479 0.950 . S
C477 C476 1.387 . S
C477 C480 1.387 1_545 S
H478 C474 0.950 . S
H479 C476 0.950 . S
C480 C471 1.390 . S
C480 H473 0.950 . S
C480 C477 1.387 1_565 S
C481 C482 1.387 . S
C481 H485 0.950 . S
C481 C490 1.390 . S
C482 C481 1.387 . S
C482 C484 1.387 . S
H483 C490 0.950 . S
C484 C482 1.387 . S
C484 C486 1.390 1_554 S
C484 H488 0.951 1_554 S
H485 C481 0.950 . S
C486 C484 1.390 1_556 S
C486 C487 1.386 1_556 S
C486 H489 0.950 . S
C487 C486 1.386 1_554 S
C487 C490 1.390 . S
H488 C484 0.951 1_556 S
H489 C486 0.950 . S
C490 C481 1.390 . S
C490 H483 0.950 . S
C490 C487 1.390 . S
C491 C492 1.387 . S
C491 H495 0.950 . S
C491 C500 1.390 . S
C492 C491 1.387 . S
C492 C494 1.387 . S
H493 C500 0.950 . S
C494 C492 1.387 . S
C494 C496 1.390 . S
C494 H498 0.950 . S
H495 C491 0.950 . S
C496 C494 1.390 . S
C496 C497 1.387 . S
C496 H499 0.950 . S
C497 C496 1.387 . S
C497 C500 1.387 . S
H498 C494 0.950 . S
H499 C496 0.950 . S
C500 C491 1.390 . S
C500 H493 0.950 . S
C500 C497 1.387 . S
C387 C94 1.130 . S
C382 C10 1.604 . S
C392 C17 1.609 . S
C397 C208 1.139 . S
C402 C36 1.416 . S
C407 C268 1.175 . S
C412 C5 1.510 . S
C417 C68 1.133 . S
C427 C182 1.132 . S
C422 C16 1.521 . S
C432 C31 1.529 . S
C437 C278 0.976 . S
C447 C164 0.988 . S
C442 C30 1.535 . S
C452 C3 1.515 . S
C457 C296 1.139 1_554 S
C467 C40 1.184 1_455 S
C462 C18 1.418 . S
C477 C154 1.177 . S
C472 C29 1.419 . S
C487 C322 1.134 1_554 S
C482 C4 1.608 . S
C492 C23 1.522 . S
C497 C50 0.957 . S
