# Generated by pormake.
# Topology zzz, (3,6)-cn, num edge types: 1
# Building blocks:
#     Node 0, Type 0, BuildingBlock: KAKCAD_clean_linker_0, # of connection points: 3
#     Node 1, Type 0, BuildingBlock: KAKCAD_clean_linker_0, # of connection points: 3
#     Node 2, Type 0, BuildingBlock: KAKCAD_clean_linker_0, # of connection points: 3
#     Node 3, Type 0, BuildingBlock: KAKCAD_clean_linker_0, # of connection points: 3
#     Node 4, Type 0, BuildingBlock: KAKCAD_clean_linker_0, # of connection points: 3
#     Node 5, Type 0, BuildingBlock: KAKCAD_clean_linker_0, # of connection points: 3
#     Node 6, Type 0, BuildingBlock: KAKCAD_clean_linker_0, # of connection points: 3
#     Node 7, Type 0, BuildingBlock: KAKCAD_clean_linker_0, # of connection points: 3
#     Node 8, Type 1, BuildingBlock: CUKXOW_clean_sbu_0, # of connection points: 6
#     Node 9, Type 1, BuildingBlock: CUKXOW_clean_sbu_0, # of connection points: 6
#     Node 10, Type 1, BuildingBlock: CUKXOW_clean_sbu_0, # of connection points: 6
#     Node 11, Type 1, BuildingBlock: CUKXOW_clean_sbu_0, # of connection points: 6
#     Edge 12, Type (0, 1), BuildingBlock: UVAHIK_clean_linker_0, # of connection points: 2
#     Edge 13, Type (0, 1), BuildingBlock: UVAHIK_clean_linker_0, # of connection points: 2
#     Edge 14, Type (0, 1), BuildingBlock: UVAHIK_clean_linker_0, # of connection points: 2
#     Edge 15, Type (0, 1), BuildingBlock: UVAHIK_clean_linker_0, # of connection points: 2
#     Edge 16, Type (0, 1), BuildingBlock: UVAHIK_clean_linker_0, # of connection points: 2
#     Edge 17, Type (0, 1), BuildingBlock: UVAHIK_clean_linker_0, # of connection points: 2
#     Edge 18, Type (0, 1), BuildingBlock: UVAHIK_clean_linker_0, # of connection points: 2
#     Edge 19, Type (0, 1), BuildingBlock: UVAHIK_clean_linker_0, # of connection points: 2
#     Edge 20, Type (0, 1), BuildingBlock: UVAHIK_clean_linker_0, # of connection points: 2
#     Edge 21, Type (0, 1), BuildingBlock: UVAHIK_clean_linker_0, # of connection points: 2
#     Edge 22, Type (0, 1), BuildingBlock: UVAHIK_clean_linker_0, # of connection points: 2
#     Edge 23, Type (0, 1), BuildingBlock: UVAHIK_clean_linker_0, # of connection points: 2
#     Edge 24, Type (0, 1), BuildingBlock: UVAHIK_clean_linker_0, # of connection points: 2
#     Edge 25, Type (0, 1), BuildingBlock: UVAHIK_clean_linker_0, # of connection points: 2
#     Edge 26, Type (0, 1), BuildingBlock: UVAHIK_clean_linker_0, # of connection points: 2
#     Edge 27, Type (0, 1), BuildingBlock: UVAHIK_clean_linker_0, # of connection points: 2
#     Edge 28, Type (0, 1), BuildingBlock: UVAHIK_clean_linker_0, # of connection points: 2
#     Edge 29, Type (0, 1), BuildingBlock: UVAHIK_clean_linker_0, # of connection points: 2
#     Edge 30, Type (0, 1), BuildingBlock: UVAHIK_clean_linker_0, # of connection points: 2
#     Edge 31, Type (0, 1), BuildingBlock: UVAHIK_clean_linker_0, # of connection points: 2
#     Edge 32, Type (0, 1), BuildingBlock: UVAHIK_clean_linker_0, # of connection points: 2
#     Edge 33, Type (0, 1), BuildingBlock: UVAHIK_clean_linker_0, # of connection points: 2
#     Edge 34, Type (0, 1), BuildingBlock: UVAHIK_clean_linker_0, # of connection points: 2
#     Edge 35, Type (0, 1), BuildingBlock: UVAHIK_clean_linker_0, # of connection points: 2
# Relax obj value: 0.216
# Max RMSD: 0.231
# Mean RMSD: 0.187
data_MOF--net-zzz--node1-CUKXOW_clean_sbu_0--node2-KAKCAD_clean_linker_0--edge1-UVAHIK_clean_linker_0
_symmetry_space_group_name_H-M    P1
_symmetry_Int_Tables_number       1
_symmetry_cell_setting            triclinic
loop_
_symmetry_equiv_pos_as_xyz
'x, y, z'
_cell_length_a     72.839226
_cell_length_b     70.650004
_cell_length_c     25.251094
_cell_angle_alpha  92.212533
_cell_angle_beta   88.625364
_cell_angle_gamma 95.39771
loop_
_atom_site_label
_atom_site_type_symbol
_atom_site_fract_x
_atom_site_fract_y
_atom_site_fract_z
_atom_type_partial_charge
C0 C 0.8036 0.46133 0.97989 0.0
C1 C 0.81567 0.44695 0.97999 0.0
C2 C 0.78798 0.4605 0.01313 0.0
C3 C 0.78428 0.4454 0.04756 0.0
C4 C 0.79585 0.43055 0.04576 0.0
C5 C 0.81135 0.43125 0.01193 0.0
C6 C 0.76964 0.44634 0.08905 0.0
C7 C 0.75216 0.4514 0.07667 0.0
C8 C 0.73902 0.45468 0.11687 0.0
C9 C 0.74356 0.45275 0.17019 0.0
C10 C 0.76108 0.44761 0.1831 0.0
C11 C 0.77388 0.44422 0.14216 0.0
C12 C 0.76722 0.44785 0.2388 0.0
C13 C 0.76514 0.46376 0.27277 0.0
C14 C 0.77777 0.4336 0.25545 0.0
C15 C 0.78729 0.43593 0.30296 0.0
C16 C 0.78648 0.45258 0.33494 0.0
C17 C 0.72092 0.46084 0.10237 0.0
C18 C 0.72015 0.47475 0.06439 0.0
C19 C 0.70435 0.45226 0.12383 0.0
C20 C 0.68735 0.45693 0.10587 0.0
C21 C 0.68662 0.4704 0.06648 0.0
C22 C 0.70324 0.47945 0.04664 0.0
C23 C 0.7747 0.46611 0.32037 0.0
H24 H 0.80662 0.47354 0.95541 0.0
H25 H 0.77938 0.47222 0.01402 0.0
H26 H 0.79323 0.41872 0.07181 0.0
H27 H 0.82052 0.42005 0.01292 0.0
H28 H 0.74886 0.45292 0.0355 0.0
H29 H 0.78771 0.44118 0.15186 0.0
H30 H 0.7337 0.45574 0.20154 0.0
H31 H 0.75717 0.47502 0.26091 0.0
H32 H 0.77949 0.42111 0.23021 0.0
H33 H 0.79627 0.42524 0.31269 0.0
H34 H 0.7327 0.4818 0.04764 0.0
H35 H 0.70454 0.44147 0.1531 0.0
H36 H 0.77353 0.47895 0.34457 0.0
H37 H 0.70324 0.48973 0.01591 0.0
H38 H 0.67478 0.44985 0.12234 0.0
C39 C 0.89445 0.81487 0.98043 0.0
C40 C 0.91069 0.81472 0.94918 0.0
C41 C 0.88893 0.79977 0.01313 0.0
C42 C 0.89947 0.78415 0.01499 0.0
C43 C 0.91496 0.78339 0.98098 0.0
C44 C 0.92052 0.79851 0.94849 0.0
C45 C 0.89589 0.76996 0.05671 0.0
C46 C 0.89777 0.75063 0.04547 0.0
C47 C 0.89769 0.73769 0.08647 0.0
C48 C 0.89559 0.74433 0.13934 0.0
C49 C 0.89332 0.76357 0.15098 0.0
C50 C 0.89319 0.77619 0.10949 0.0
C51 C 0.8936 0.77136 0.20619 0.0
C52 C 0.88024 0.78326 0.22444 0.0
C53 C 0.90875 0.76924 0.23801 0.0
C54 C 0.91121 0.77994 0.28546 0.0
C55 C 0.89844 0.79281 0.30238 0.0
C56 C 0.90166 0.71776 0.0737 0.0
C57 C 0.89395 0.70788 0.02895 0.0
C58 C 0.91448 0.70912 0.10325 0.0
C59 C 0.92016 0.69144 0.08679 0.0
C60 C 0.91318 0.68202 0.0404 0.0
C61 C 0.89966 0.69023 0.01244 0.0
C62 C 0.88252 0.79371 0.27232 0.0
H63 H 0.88637 0.82699 0.9811 0.0
H64 H 0.87679 0.80061 0.03845 0.0
H65 H 0.92353 0.77169 0.98198 0.0
H66 H 0.93322 0.79798 0.92549 0.0
H67 H 0.90023 0.74586 0.00483 0.0
H68 H 0.89252 0.79123 0.1188 0.0
H69 H 0.89598 0.73465 0.17148 0.0
H70 H 0.8684 0.78503 0.20058 0.0
H71 H 0.91935 0.76032 0.2244 0.0
H72 H 0.92374 0.77896 0.30699 0.0
H73 H 0.88389 0.71407 0.00571 0.0
H74 H 0.92078 0.71641 0.13771 0.0
H75 H 0.87213 0.80304 0.2847 0.0
H76 H 0.89408 0.68346 0.97634 0.0
H77 H 0.93039 0.68537 0.10966 0.0
C78 C 0.6824 0.97753 0.07061 0.0
C79 C 0.68309 0.99017 0.02871 0.0
C80 C 0.69728 0.97749 0.10446 0.0
C81 C 0.71328 0.9898 0.09653 0.0
C82 C 0.71447 0.00168 0.05312 0.0
C83 C 0.69948 0.00197 0.01974 0.0
C84 C 0.72793 0.9916 0.13637 0.0
C85 C 0.74642 0.9902 0.12161 0.0
C86 C 0.76034 0.9927 0.1597 0.0
C87 C 0.75553 0.99702 0.21288 0.0
C88 C 0.73708 0.99896 0.22753 0.0
C89 C 0.72338 0.9959 0.18928 0.0
C90 C 0.73172 0.00483 0.28205 0.0
C91 C 0.73555 0.99417 0.32553 0.0
C92 C 0.72079 0.02006 0.28974 0.0
C93 C 0.71264 0.02369 0.33903 0.0
C94 C 0.71523 0.01216 0.38191 0.0
C95 C 0.77989 0.99157 0.143 0.0
C96 C 0.7846 0.97756 0.10541 0.0
C97 C 0.79382 0.00508 0.16205 0.0
C98 C 0.81192 0.005 0.14235 0.0
C99 C 0.81646 0.99143 0.10318 0.0
C100 C 0.80264 0.97753 0.08562 0.0
C101 C 0.7273 0.99776 0.37515 0.0
H102 H 0.67022 0.96791 0.07802 0.0
H103 H 0.69615 0.9681 0.13755 0.0
H104 H 0.72663 0.01144 0.04662 0.0
H105 H 0.70049 0.01208 0.98845 0.0
H106 H 0.74994 0.9874 0.08027 0.0
H107 H 0.7091 0.99735 0.20056 0.0
H108 H 0.76608 0.99919 0.24261 0.0
H109 H 0.74399 0.98237 0.3204 0.0
H110 H 0.71779 0.02858 0.25679 0.0
H111 H 0.70328 0.03473 0.34229 0.0
H112 H 0.77424 0.96679 0.09049 0.0
H113 H 0.79061 0.01613 0.19078 0.0
H114 H 0.72973 0.98877 0.40756 0.0
H115 H 0.80556 0.96699 0.05507 0.0
H116 H 0.82228 0.01577 0.15719 0.0
C117 C 0.5995 0.73165 0.33341 0.0
C118 C 0.6079 0.71484 0.34157 0.0
C119 C 0.60243 0.7412 0.28589 0.0
C120 C 0.61402 0.73429 0.2458 0.0
C121 C 0.62383 0.71868 0.25618 0.0
C122 C 0.62068 0.70897 0.30307 0.0
C123 C 0.6139 0.74134 0.19101 0.0
C124 C 0.61338 0.76077 0.18096 0.0
C125 C 0.61197 0.76667 0.12865 0.0
C126 C 0.6107 0.75299 0.08668 0.0
C127 C 0.6108 0.73362 0.09623 0.0
C128 C 0.61263 0.72798 0.14821 0.0
C129 C 0.60687 0.719 0.05335 0.0
C130 C 0.5916 0.71985 0.02092 0.0
C131 C 0.61703 0.70306 0.04851 0.0
C132 C 0.61139 0.68778 0.01409 0.0
C133 C 0.59536 0.68804 0.98423 0.0
C134 C 0.61029 0.78682 0.11685 0.0
C135 C 0.59667 0.79688 0.14243 0.0
C136 C 0.62054 0.79513 0.07452 0.0
C137 C 0.61634 0.81246 0.0555 0.0
C138 C 0.6017 0.82182 0.07817 0.0
C139 C 0.59239 0.81425 0.1232 0.0
C140 C 0.58587 0.70451 0.98683 0.0
H141 H 0.58999 0.73699 0.36268 0.0
H142 H 0.5947 0.75324 0.27933 0.0
H143 H 0.63319 0.71324 0.22658 0.0
H144 H 0.62743 0.69612 0.30721 0.0
H145 H 0.61406 0.77125 0.21351 0.0
H146 H 0.61186 0.71291 0.15568 0.0
H147 H 0.60895 0.75735 0.04654 0.0
H148 H 0.5834 0.73187 0.02427 0.0
H149 H 0.62899 0.70217 0.07266 0.0
H150 H 0.61925 0.67549 0.01218 0.0
H151 H 0.58849 0.79072 0.17493 0.0
H152 H 0.63127 0.78775 0.05452 0.0
H153 H 0.57335 0.70515 0.96494 0.0
H154 H 0.581 0.82107 0.14144 0.0
H155 H 0.62404 0.81813 0.02151 0.0
C156 C 0.20865 0.5617 0.37378 0.0
C157 C 0.19233 0.55098 0.35788 0.0
C158 C 0.22373 0.56433 0.33854 0.0
C159 C 0.22278 0.55629 0.28674 0.0
C160 C 0.20648 0.54551 0.27111 0.0
C161 C 0.19143 0.54301 0.30604 0.0
C162 C 0.23868 0.55886 0.2489 0.0
C163 C 0.25673 0.55754 0.26547 0.0
C164 C 0.2717 0.55862 0.22901 0.0
C165 C 0.2683 0.56055 0.17481 0.0
C166 C 0.25028 0.56215 0.15792 0.0
C167 C 0.2357 0.56159 0.19526 0.0
C168 C 0.2458 0.56279 0.10119 0.0
C169 C 0.23459 0.57648 0.08469 0.0
C170 C 0.24945 0.54764 0.0661 0.0
C171 C 0.24058 0.54524 0.01738 0.0
C172 C 0.22801 0.55801 0.00293 0.0
C173 C 0.29064 0.55708 0.24834 0.0
C174 C 0.29603 0.56572 0.29732 0.0
C175 C 0.30301 0.54611 0.22018 0.0
C176 C 0.32005 0.54322 0.24165 0.0
C177 C 0.32504 0.55117 0.29188 0.0
C178 C 0.31288 0.56268 0.31897 0.0
C179 C 0.22582 0.57415 0.03601 0.0
H180 H 0.20985 0.56792 0.41356 0.0
H181 H 0.23606 0.57281 0.35171 0.0
H182 H 0.20535 0.53883 0.23185 0.0
H183 H 0.17899 0.53495 0.29205 0.0
H184 H 0.25902 0.55488 0.30665 0.0
H185 H 0.2218 0.56269 0.18204 0.0
H186 H 0.27957 0.56104 0.14595 0.0
H187 H 0.23157 0.58828 0.11116 0.0
H188 H 0.25797 0.53685 0.0781 0.0
H189 H 0.24276 0.53281 0.99239 0.0
H190 H 0.287 0.57456 0.31968 0.0
H191 H 0.29929 0.53919 0.18243 0.0
H192 H 0.21618 0.58421 0.02641 0.0
H193 H 0.31602 0.56888 0.35796 0.0
H194 H 0.32917 0.53454 0.21917 0.0
C195 C 0.08285 0.20101 0.41937 0.0
C196 C 0.09341 0.18534 0.41894 0.0
C197 C 0.08781 0.21626 0.38682 0.0
C198 C 0.1034 0.21615 0.35299 0.0
C199 C 0.11461 0.20108 0.35495 0.0
C200 C 0.1097 0.18585 0.38774 0.0
C201 C 0.10661 0.23055 0.31172 0.0
C202 C 0.10417 0.24968 0.32354 0.0
C203 C 0.10428 0.26279 0.2831 0.0
C204 C 0.10758 0.25674 0.23029 0.0
C205 C 0.11001 0.23752 0.21759 0.0
C206 C 0.10966 0.22464 0.25887 0.0
C207 C 0.11028 0.23002 0.16157 0.0
C208 C 0.09854 0.23647 0.12416 0.0
C209 C 0.12033 0.2145 0.14709 0.0
C210 C 0.11722 0.20444 0.09895 0.0
C211 C 0.10428 0.2099 0.06334 0.0
C212 C 0.09888 0.28217 0.29601 0.0
C213 C 0.08322 0.28439 0.32838 0.0
C214 C 0.1091 0.29843 0.27678 0.0
C215 C 0.10397 0.31661 0.29091 0.0
C216 C 0.08837 0.31876 0.32375 0.0
C217 C 0.07803 0.30244 0.34205 0.0
C218 C 0.09572 0.22664 0.07544 0.0
H219 H 0.0701 0.201 0.44231 0.0
H220 H 0.07876 0.22755 0.38573 0.0
H221 H 0.12684 0.20076 0.32976 0.0
H222 H 0.11833 0.17416 0.38726 0.0
H223 H 0.10158 0.25427 0.36429 0.0
H224 H 0.1103 0.20962 0.24957 0.0
H225 H 0.10734 0.26678 0.19902 0.0
H226 H 0.09055 0.24837 0.13364 0.0
H227 H 0.12987 0.20942 0.17432 0.0
H228 H 0.12414 0.19167 0.09155 0.0
H229 H 0.07492 0.2721 0.34318 0.0
H230 H 0.12123 0.29708 0.25173 0.0
H231 H 0.08613 0.23171 0.0484 0.0
H232 H 0.06609 0.30361 0.36796 0.0
H233 H 0.11215 0.32896 0.27607 0.0
C234 C 0.31292 0.00234 0.35061 0.0
C235 C 0.32875 0.01529 0.34754 0.0
C236 C 0.29776 0.00431 0.31915 0.0
C237 C 0.2982 0.01919 0.2837 0.0
C238 C 0.31371 0.03261 0.28229 0.0
C239 C 0.32882 0.03073 0.31411 0.0
C240 C 0.28336 0.01954 0.24474 0.0
C241 C 0.26474 0.01616 0.26004 0.0
C242 C 0.25083 0.01467 0.222 0.0
C243 C 0.25572 0.01636 0.16806 0.0
C244 C 0.2743 0.01979 0.15249 0.0
C245 C 0.28797 0.02162 0.19099 0.0
C246 C 0.28011 0.01945 0.09614 0.0
C247 C 0.27665 0.00269 0.06487 0.0
C248 C 0.29205 0.03444 0.07668 0.0
C249 C 0.30155 0.03216 0.02857 0.0
C250 C 0.29945 0.01474 -0.00044 0.0
C251 C 0.23127 0.01101 0.23897 0.0
C252 C 0.22603 0.99691 0.27551 0.0
C253 C 0.21788 0.0221 0.2206 0.0
C254 C 0.19971 0.01959 0.24001 0.0
C255 C 0.19458 0.0058 0.2776 0.0
C256 C 0.20785 0.99428 0.29448 0.0
C257 C 0.28636 0.0003 0.01701 0.0
H258 H 0.31244 0.99042 0.37652 0.0
H259 H 0.28606 0.99367 0.32078 0.0
H260 H 0.31434 0.04429 0.25551 0.0
H261 H 0.34086 0.04088 0.31083 0.0
H262 H 0.26108 0.01475 0.30167 0.0
H263 H 0.30237 0.02349 0.1786 0.0
H264 H 0.24517 0.01462 0.13824 0.0
H265 H 0.2676 0.99089 0.07945 0.0
H266 H 0.29496 0.04744 0.1004 0.0
H267 H 0.31166 0.04348 0.01638 0.0
H268 H 0.23605 0.98805 0.2899 0.0
H269 H 0.22159 0.0331 0.19254 0.0
H270 H 0.28443 0.98677 0.9952 0.0
H271 H 0.20434 0.98365 0.32377 0.0
H272 H 0.18971 0.02858 0.2261 0.0
C273 C 0.38652 0.28398 0.0211 0.0
C274 C 0.40358 0.28803 0.99449 0.0
C275 C 0.38548 0.27382 0.06766 0.0
C276 C 0.40134 0.2671 0.08765 0.0
C277 C 0.41792 0.2693 0.05826 0.0
C278 C 0.41907 0.27972 0.01215 0.0
C279 C 0.40191 0.2628 0.14418 0.0
C280 C 0.40379 0.24442 0.16121 0.0
C281 C 0.40594 0.24141 0.21545 0.0
C282 C 0.40709 0.2571 0.25174 0.0
C283 C 0.40587 0.2756 0.2347 0.0
C284 C 0.40259 0.27815 0.18108 0.0
C285 C 0.40983 0.29242 0.27133 0.0
C286 C 0.40391 0.29222 0.3248 0.0
C287 C 0.42043 0.30865 0.25315 0.0
C288 C 0.42499 0.32424 0.28729 0.0
C289 C 0.41926 0.32399 0.34072 0.0
C290 C 0.40821 0.22225 0.23489 0.0
C291 C 0.42113 0.21089 0.21092 0.0
C292 C 0.39864 0.21602 0.28089 0.0
C293 C 0.40259 0.1993 0.3041 0.0
C294 C 0.41631 0.18848 0.2821 0.0
C295 C 0.42518 0.19417 0.23439 0.0
C296 C 0.40866 0.30783 0.35926 0.0
H297 H 0.37421 0.28973 0.00797 0.0
H298 H 0.37259 0.27242 0.09013 0.0
H299 H 0.43039 0.26452 0.07363 0.0
H300 H 0.43247 0.2826 0.9932 0.0
H301 H 0.40355 0.23259 0.13252 0.0
H302 H 0.40138 0.29231 0.16728 0.0
H303 H 0.40999 0.25496 0.29287 0.0
H304 H 0.39562 0.28001 0.34002 0.0
H305 H 0.42572 0.30916 0.21273 0.0
H306 H 0.43352 0.33631 0.27214 0.0
H307 H 0.4288 0.21544 0.17564 0.0
H308 H 0.38841 0.22438 0.29974 0.0
H309 H 0.40402 0.30731 0.4003 0.0
H310 H 0.4359 0.18622 0.21656 0.0
H311 H 0.39518 0.19509 0.3401 0.0
Tb312 Tb 0.99394 0.98207 0.65234 0.0
C313 C 0.03367 0.99672 0.61534 0.0
Tb314 Tb 0.01472 0.01548 0.71726 0.0
O315 O 0.99336 0.99999 0.58376 0.0
O316 O 0.99385 0.01197 0.66014 0.0
O317 O 0.02123 0.98171 0.61605 0.0
C318 C 0.03151 0.04883 0.75099 0.0
O319 O 0.03257 0.01207 0.64713 0.0
C320 C 0.01429 0.98174 0.75772 0.0
C321 C 0.97512 1.00017 0.75518 0.0
O322 O 0.03887 0.03276 0.74907 0.0
O323 O 0.01475 0.04605 0.73422 0.0
O324 O 0.01613 0.9976 0.78576 0.0
O325 O 0.01481 0.98566 0.70949 0.0
O326 O 0.98759 0.01516 0.75538 0.0
O327 O 0.97603 0.98519 0.7221 0.0
C328 C 0.9755 0.94981 0.61699 0.0
O329 O 0.97015 0.96671 0.61346 0.0
O330 O 0.99131 0.95107 0.6401 0.0
C331 C 0.99475 0.01584 0.61184 0.0
Tb332 Tb 0.504 0.0242 0.65593 0.0
C333 C 0.54177 0.00721 0.63936 0.0
Tb334 Tb 0.51085 0.98853 0.71886 0.0
O335 O 0.52575 0.04147 0.69875 0.0
O336 O 0.51129 0.01821 0.7335 0.0
O337 O 0.52988 0.0178 0.61839 0.0
C338 C 0.52429 0.96368 0.78112 0.0
O339 O 0.53763 0.99623 0.68039 0.0
C340 C 0.48991 0.98221 0.63591 0.0
C341 C 0.4732 0.00592 0.73611 0.0
O342 O 0.52174 0.96121 0.73052 0.0
O343 O 0.51903 0.98006 0.79689 0.0
O344 O 0.48898 0.97135 0.67649 0.0
O345 O 0.50348 0.99451 0.64138 0.0
O346 O 0.4851 0.99535 0.75728 0.0
O347 O 0.47732 0.0165 0.69431 0.0
C348 C 0.49043 0.04852 0.59235 0.0
O349 O 0.49273 0.05125 0.64301 0.0
O350 O 0.49603 0.03221 0.57738 0.0
C351 C 0.5248 0.03056 0.73924 0.0
Tb352 Tb 0.51585 0.52045 0.65009 0.0
C353 C 0.47538 0.50962 0.61198 0.0
Tb354 Tb 0.49183 0.48791 0.70624 0.0
O355 O 0.51619 0.50325 0.57599 0.0
O356 O 0.5134 0.49047 0.64889 0.0
O357 O 0.48956 0.52288 0.61352 0.0
C358 C 0.47211 0.45567 0.73214 0.0
O359 O 0.47417 0.49426 0.64128 0.0
C360 C 0.49504 0.52115 0.75674 0.0
C361 C 0.53226 0.49864 0.74404 0.0
O362 O 0.46758 0.47271 0.74373 0.0
O363 O 0.48772 0.45682 0.70614 0.0
O364 O 0.49218 0.50509 0.78041 0.0
O365 O 0.4943 0.51788 0.70748 0.0
O366 O 0.51848 0.48493 0.74044 0.0
O367 O 0.53296 0.51445 0.71665 0.0
C368 C 0.53432 0.55352 0.6255 0.0
O369 O 0.54059 0.53693 0.61872 0.0
O370 O 0.51781 0.55137 0.64594 0.0
C371 C 0.51295 0.48721 0.59961 0.0
Tb372 Tb 0.98738 0.49932 0.64946 0.0
C373 C 0.01954 0.47493 0.61544 0.0
Tb374 Tb 0.02406 0.50617 0.71054 0.0
O375 O 0.00148 0.50976 0.57724 0.0
O376 O 0.01052 0.51965 0.65162 0.0
O377 O 0.00136 0.4756 0.61623 0.0
C378 C 0.05909 0.51435 0.73881 0.0
O379 O 0.03084 0.4867 0.64482 0.0
C380 C 0.99727 0.4853 0.75726 0.0
C381 C 0.99192 0.5306 0.74445 0.0
O382 O 0.04905 0.4986 0.74805 0.0
O383 O 0.04935 0.52554 0.71409 0.0
O384 O 0.01012 0.49562 0.78288 0.0
O385 O 0.00092 0.48584 0.70839 0.0
O386 O 0.01008 0.52986 0.74371 0.0
O387 O 0.98058 0.51878 0.71529 0.0
C388 C 0.95247 0.49173 0.61934 0.0
O389 O 0.96284 0.50732 0.61067 0.0
O390 O 0.96179 0.48034 0.64482 0.0
C391 C 0.01426 0.52019 0.60282 0.0
C392 C 0.16776 0.02047 0.32049 0.0
C393 C 0.17579 0.00412 0.3018 0.0
C394 C 0.15092 0.01888 0.34833 0.0
C395 C 0.12187 0.98479 0.42862 0.0
H396 H 0.08633 0.02211 0.4207 0.0
C397 C 0.05319 0.97989 0.54913 0.0
C398 C 0.04903 0.9968 0.57601 0.0
C399 C 0.06763 0.9801 0.51165 0.0
C400 C 0.09618 0.01163 0.42341 0.0
H401 H 0.1721 0.97334 0.29507 0.0
H402 H 0.14249 0.97053 0.34281 0.0
H403 H 0.11301 0.02351 0.36013 0.0
H404 H 0.0565 0.02725 0.58383 0.0
H405 H 0.08167 0.02756 0.51849 0.0
H406 H 0.10503 0.97297 0.49203 0.0
C407 C 0.14941 0.98457 0.33717 0.0
C408 C 0.11147 0.01244 0.38882 0.0
C409 C 0.16632 0.98617 0.30967 0.0
C410 C 0.05945 0.01394 0.56419 0.0
C411 C 0.07375 0.01416 0.52637 0.0
C412 C 0.10651 0.98391 0.46292 0.0
C413 C 0.14168 0.0009 0.35777 0.0
C414 C 0.12464 0.99919 0.39151 0.0
C415 C 0.07804 0.99724 0.49989 0.0
C416 C 0.09366 0.99747 0.46115 0.0
H417 H 0.17487 0.03449 0.31559 0.0
H418 H 0.14554 0.03175 0.36426 0.0
H419 H 0.13188 0.97455 0.43248 0.0
H420 H 0.04538 0.96646 0.55724 0.0
H421 H 0.07056 0.96686 0.49152 0.0
C422 C 0.42397 0.17367 0.36639 0.0
C423 C 0.4222 0.17219 0.31102 0.0
C424 C 0.43003 0.1588 0.39404 0.0
C425 C 0.45643 0.11696 0.37743 0.0
H426 H 0.43496 0.10528 0.51575 0.0
C427 C 0.47938 0.05674 0.50385 0.0
C428 C 0.482 0.06151 0.55783 0.0
C429 C 0.4711 0.06899 0.47145 0.0
C430 C 0.44117 0.10845 0.47732 0.0
H431 H 0.42531 0.15376 0.24136 0.0
H432 H 0.43595 0.12766 0.28988 0.0
H433 H 0.42194 0.12864 0.46283 0.0
H434 H 0.47804 0.08265 0.62044 0.0
H435 H 0.46372 0.1041 0.56397 0.0
H436 H 0.47579 0.09685 0.39235 0.0
C437 C 0.43275 0.14047 0.31172 0.0
C438 C 0.43372 0.12184 0.44698 0.0
C439 C 0.42666 0.15541 0.28395 0.0
C440 C 0.47618 0.07865 0.57893 0.0
C441 C 0.46786 0.09085 0.54666 0.0
C442 C 0.46387 0.10351 0.4078 0.0
C443 C 0.43452 0.14202 0.36713 0.0
C444 C 0.44146 0.12652 0.39709 0.0
C445 C 0.46521 0.08617 0.49256 0.0
C446 C 0.45652 0.09936 0.45848 0.0
H447 H 0.4211 0.18656 0.38842 0.0
H448 H 0.43162 0.16067 0.43651 0.0
H449 H 0.46283 0.12037 0.3394 0.0
H450 H 0.48363 0.04351 0.48674 0.0
H451 H 0.46909 0.06491 0.43005 0.0
C452 C 0.35196 0.56035 0.35137 0.0
C453 C 0.3423 0.54675 0.31759 0.0
C454 C 0.36682 0.55556 0.38036 0.0
C455 C 0.40295 0.52378 0.38639 0.0
H456 H 0.39938 0.53256 0.53884 0.0
C457 C 0.4637 0.52313 0.53062 0.0
C458 C 0.46027 0.51212 0.57562 0.0
C459 C 0.44941 0.52595 0.4967 0.0
C460 C 0.40049 0.52996 0.49637 0.0
H461 H 0.34139 0.51756 0.28659 0.0
H462 H 0.36792 0.50955 0.33567 0.0
H463 H 0.37464 0.54093 0.48266 0.0
H464 H 0.43926 0.49527 0.62011 0.0
H465 H 0.4141 0.50075 0.56148 0.0
H466 H 0.42909 0.51328 0.40012 0.0
C467 C 0.36369 0.52384 0.33992 0.0
C468 C 0.38645 0.53486 0.46429 0.0
C469 C 0.34857 0.52851 0.31157 0.0
C470 C 0.4423 0.50382 0.58574 0.0
C471 C 0.42792 0.50699 0.55238 0.0
C472 C 0.4172 0.51923 0.41843 0.0
C473 C 0.37265 0.53719 0.37545 0.0
C474 C 0.38757 0.53184 0.40905 0.0
C475 C 0.43136 0.51813 0.50768 0.0
C476 C 0.41607 0.52227 0.4737 0.0
H477 H 0.34789 0.57468 0.35607 0.0
H478 H 0.37373 0.56619 0.40696 0.0
H479 H 0.4041 0.52135 0.34387 0.0
H480 H 0.47745 0.52955 0.52153 0.0
H481 H 0.45238 0.53467 0.46262 0.0
C482 C 0.09625 0.35207 0.35995 0.0
C483 C 0.08301 0.33784 0.34084 0.0
C484 C 0.09079 0.36911 0.3825 0.0
C485 C 0.05119 0.39866 0.39712 0.0
H486 H 0.07281 0.41407 0.5327 0.0
C487 C 0.01644 0.4471 0.55046 0.0
C488 C 0.02774 0.46079 0.57952 0.0
C489 C 0.02424 0.43375 0.51671 0.0
C490 C 0.06682 0.41017 0.49452 0.0
H491 H 0.05386 0.33079 0.32723 0.0
H492 H 0.04432 0.3603 0.36707 0.0
H493 H 0.08493 0.38833 0.47981 0.0
H494 H 0.05614 0.47146 0.59477 0.0
H495 H 0.06967 0.44821 0.53587 0.0
H496 H 0.03279 0.42024 0.41254 0.0
C497 C 0.05891 0.35841 0.3646 0.0
C498 C 0.0738 0.39543 0.46411 0.0
C499 C 0.06435 0.3414 0.34224 0.0
C500 C 0.047 0.46098 0.57351 0.0
C501 C 0.05479 0.44763 0.53978 0.0
C502 C 0.0442 0.4134 0.42757 0.0
C503 C 0.07201 0.37229 0.3861 0.0
C504 C 0.06587 0.38929 0.41545 0.0
C505 C 0.0435 0.43381 0.51119 0.0
C506 C 0.05175 0.41911 0.47701 0.0
H507 H 0.11072 0.34969 0.3596 0.0
H508 H 0.10124 0.37963 0.39812 0.0
H509 H 0.04496 0.39447 0.35943 0.0
H510 H 0.00156 0.44654 0.55407 0.0
H511 H 0.01516 0.42313 0.49577 0.0
C512 C 0.84442 0.01005 0.06499 0.0
C513 C 0.83516 0.99241 0.07797 0.0
C514 C 0.86099 0.01088 0.03572 0.0
C515 C 0.88451 0.98293 0.93618 0.0
H516 H 0.92725 0.01854 0.96475 0.0
C517 C 0.95033 0.98203 0.80728 0.0
C518 C 0.95992 0.99955 0.79503 0.0
C519 C 0.93606 0.98116 0.84514 0.0
C520 C 0.91534 0.00868 0.95588 0.0
H521 H 0.83669 0.96186 0.0733 0.0
H522 H 0.86543 0.96333 0.02135 0.0
H523 H 0.9009 0.01701 0.02679 0.0
H524 H 0.96219 0.02991 0.81315 0.0
H525 H 0.93676 0.0285 0.8781 0.0
H526 H 0.89847 0.97495 0.8647 0.0
C527 C 0.85973 0.97649 0.0334 0.0
C528 C 0.90032 0.00775 0.99155 0.0
C529 C 0.84326 0.97566 0.06301 0.0
C530 C 0.95503 0.0162 0.82177 0.0
C531 C 0.94055 0.01536 0.85926 0.0
C532 C 0.8994 0.98399 0.90033 0.0
C533 C 0.86853 0.99408 0.01851 0.0
C534 C 0.88479 0.99482 0.98204 0.0
C535 C 0.93083 0.99782 0.8712 0.0
C536 C 0.91503 0.99683 0.90974 0.0
H537 H 0.83847 0.02322 0.07528 0.0
H538 H 0.86742 0.02463 0.02441 0.0
H539 H 0.87256 0.9731 0.92732 0.0
H540 H 0.95396 0.96888 0.78807 0.0
H541 H 0.92921 0.96735 0.85418 0.0
C542 C 0.58913 0.85397 0.08015 0.0
C543 C 0.5949 0.83809 0.05126 0.0
C544 C 0.58164 0.86855 0.0541 0.0
C545 C 0.55744 0.87648 0.93216 0.0
H546 H 0.57234 0.93006 0.95919 0.0
C547 C 0.53744 0.93286 0.79259 0.0
C548 C 0.53229 0.95012 0.81481 0.0
C549 C 0.54496 0.91986 0.82408 0.0
C550 C 0.56784 0.91516 0.95171 0.0
H551 H 0.59723 0.82506 0.97241 0.0
H552 H 0.5844 0.85041 0.92731 0.0
H553 H 0.58574 0.9062 0.01032 0.0
H554 H 0.53122 0.96759 0.88705 0.0
H555 H 0.54414 0.94467 0.94261 0.0
H556 H 0.53951 0.88522 0.87397 0.0
C557 C 0.58562 0.85163 0.97001 0.0
C558 C 0.57554 0.90153 0.98095 0.0
C559 C 0.5932 0.83721 0.99585 0.0
C560 C 0.53499 0.95429 0.86905 0.0
C561 C 0.54251 0.94124 0.90072 0.0
C562 C 0.54969 0.89005 0.90326 0.0
C563 C 0.57955 0.86734 0.99881 0.0
C564 C 0.57063 0.88203 0.97078 0.0
C565 C 0.54744 0.92379 0.87864 0.0
C566 C 0.55501 0.90955 0.91198 0.0
H567 H 0.59033 0.85508 0.12285 0.0
H568 H 0.57702 0.88048 0.0773 0.0
H569 H 0.55309 0.86157 0.9242 0.0
H570 H 0.53567 0.92938 0.75075 0.0
H571 H 0.54897 0.90676 0.80548 0.0
C572 C 0.65529 0.45935 0.03121 0.0
C573 C 0.66879 0.47432 0.04358 0.0
C574 C 0.63948 0.46274 0.004 0.0
C575 C 0.62374 0.49627 0.91129 0.0
H576 H 0.57517 0.47126 0.94166 0.0
C577 C 0.56002 0.51193 0.79479 0.0
C578 C 0.54734 0.49639 0.78097 0.0
C579 C 0.57417 0.50985 0.82996 0.0
C580 C 0.58868 0.47821 0.93232 0.0
H581 H 0.67569 0.50479 0.03993 0.0
H582 H 0.64817 0.51069 0.99231 0.0
H583 H 0.60077 0.46658 0.99897 0.0
H584 H 0.53956 0.46647 0.79351 0.0
H585 H 0.56444 0.46275 0.85386 0.0
H586 H 0.61186 0.50759 0.84414 0.0
C587 C 0.64998 0.49626 0.0028 0.0
C588 C 0.60333 0.47556 0.96527 0.0
C589 C 0.66573 0.49288 0.0301 0.0
C590 C 0.54907 0.47875 0.80337 0.0
C591 C 0.56327 0.47665 0.83831 0.0
C592 C 0.60914 0.49885 0.87826 0.0
C593 C 0.63686 0.48118 0.98847 0.0
C594 C 0.62104 0.48452 0.95501 0.0
C595 C 0.57604 0.49216 0.85197 0.0
C596 C 0.59143 0.48979 0.88818 0.0
H597 H 0.6573 0.44485 0.04043 0.0
H598 H 0.62971 0.45079 0.99316 0.0
H599 H 0.63729 0.5031 0.90173 0.0
H600 H 0.55895 0.5258 0.77885 0.0
H601 H 0.58355 0.52219 0.84027 0.0
C602 C 0.94015 0.66328 0.0191 0.0
C603 C 0.921 0.66457 0.01873 0.0
C604 C 0.94783 0.6478 0.9942 0.0
C605 C 0.93684 0.59882 0.93891 0.0
H606 H 0.98074 0.61092 0.85223 0.0
C607 C 0.96464 0.54564 0.78393 0.0
C608 C 0.98388 0.54512 0.77939 0.0
C609 C 0.95706 0.55951 0.8163 0.0
C610 C 0.96864 0.60724 0.87681 0.0
H611 H 0.89485 0.65015 0.99382 0.0
H612 H 0.90832 0.62328 0.94943 0.0
H613 H 0.96733 0.63611 0.90401 0.0
H614 H 0.01019 0.55862 0.80628 0.0
H615 H 0.99694 0.58271 0.86291 0.0
H616 H 0.93808 0.56994 0.91104 0.0
C617 C 0.91737 0.63419 0.96935 0.0
C618 C 0.96095 0.62169 0.90655 0.0
C619 C 0.90967 0.64969 0.99433 0.0
C620 C 0.99533 0.55865 0.80855 0.0
C621 C 0.98774 0.57253 0.84085 0.0
C622 C 0.94454 0.58435 0.90908 0.0
C623 C 0.93657 0.63326 0.96819 0.0
C624 C 0.94494 0.61767 0.93789 0.0
C625 C 0.96852 0.5732 0.84484 0.0
C626 C 0.9605 0.58841 0.87759 0.0
H627 H 0.94932 0.67457 0.03697 0.0
H628 H 0.96265 0.64737 0.9947 0.0
H629 H 0.92462 0.59523 0.96311 0.0
H630 H 0.95539 0.5354 0.76223 0.0
H631 H 0.94221 0.55975 0.81809 0.0
C632 C 0.07676 0.16865 0.49499 0.0
C633 C 0.08623 0.16773 0.44588 0.0
C634 C 0.06761 0.15224 0.51607 0.0
C635 C 0.04607 0.10561 0.47039 0.0
H636 H 0.0438 0.09403 0.61939 0.0
C637 C 0.01379 0.03386 0.54425 0.0
C638 C 0.00326 0.0339 0.59149 0.0
C639 C 0.02369 0.05053 0.52774 0.0
C640 C 0.04414 0.09722 0.57774 0.0
H641 H 0.09419 0.14865 0.38169 0.0
H642 H 0.07876 0.12009 0.41915 0.0
H643 H 0.06284 0.12222 0.59004 0.0
H644 H 0.99374 0.05141 0.65672 0.0
H645 H 0.01116 0.08076 0.62802 0.0
H646 H 0.0274 0.08074 0.45789 0.0
C647 C 0.07809 0.13354 0.44089 0.0
C648 C 0.05507 0.11332 0.56095 0.0
C649 C 0.08718 0.1499 0.4198 0.0
C650 C 0.00218 0.05101 0.62088 0.0
C651 C 0.01212 0.06774 0.60444 0.0
C652 C 0.03517 0.08958 0.48711 0.0
C653 C 0.06776 0.1346 0.48842 0.0
C654 C 0.05626 0.11758 0.50699 0.0
C655 C 0.02313 0.06761 0.55794 0.0
C656 C 0.03417 0.08512 0.54087 0.0
H657 H 0.07596 0.18214 0.51641 0.0
H658 H 0.05976 0.15352 0.5528 0.0
H659 H 0.04632 0.10875 0.42871 0.0
H660 H 0.01496 0.02079 0.52103 0.0
H661 H 0.03221 0.04989 0.49209 0.0
C662 C 0.35569 0.02689 0.40418 0.0
C663 C 0.34555 0.01196 0.37639 0.0
C664 C 0.37171 0.02361 0.43047 0.0
C665 C 0.39551 0.98451 0.48364 0.0
H666 H 0.43773 0.02229 0.48728 0.0
C667 C 0.47645 0.99292 0.55329 0.0
C668 C 0.47406 0.98423 0.60226 0.0
C669 C 0.46112 0.99616 0.52374 0.0
C670 C 0.42613 0.0115 0.48611 0.0
H671 H 0.3445 0.98206 0.35278 0.0
H672 H 0.37253 0.97637 0.39769 0.0
H673 H 0.41043 0.02834 0.43878 0.0
H674 H 0.45398 0.97181 0.65871 0.0
H675 H 0.42729 0.97761 0.60787 0.0
H676 H 0.41131 0.96742 0.52951 0.0
C677 C 0.3679 0.99051 0.40064 0.0
C678 C 0.41038 0.01509 0.45896 0.0
C679 C 0.35184 0.99375 0.37485 0.0
C680 C 0.4562 0.97839 0.62074 0.0
C681 C 0.4409 0.9817 0.59152 0.0
C682 C 0.41126 0.98087 0.51039 0.0
C683 C 0.378 0.00535 0.42906 0.0
C684 C 0.39485 0.00164 0.45755 0.0
C685 C 0.44315 0.99069 0.54274 0.0
C686 C 0.42672 0.99436 0.5123 0.0
H687 H 0.35109 0.04105 0.40616 0.0
H688 H 0.379 0.03531 0.45257 0.0
H689 H 0.38375 0.97393 0.48404 0.0
H690 H 0.49016 0.99721 0.53794 0.0
H691 H 0.46335 0.00283 0.48594 0.0
C692 C 0.43306 0.33743 0.42575 0.0
C693 C 0.42517 0.34033 0.37684 0.0
C694 C 0.44097 0.35289 0.45627 0.0
C695 C 0.44382 0.40548 0.47274 0.0
H696 H 0.49319 0.40039 0.52113 0.0
C697 C 0.49369 0.47063 0.52874 0.0
C698 C 0.50409 0.4697 0.57443 0.0
C699 C 0.48349 0.45437 0.50831 0.0
C700 C 0.47933 0.40198 0.50855 0.0
H701 H 0.41828 0.36166 0.32312 0.0
H702 H 0.43213 0.38859 0.37601 0.0
H703 H 0.47508 0.37279 0.48211 0.0
H704 H 0.51301 0.45113 0.63284 0.0
H705 H 0.49495 0.42264 0.59767 0.0
H706 H 0.44818 0.43475 0.49837 0.0
C707 C 0.43224 0.37444 0.39097 0.0
C708 C 0.46892 0.38615 0.48634 0.0
C709 C 0.42444 0.35901 0.36042 0.0
C710 C 0.5048 0.45217 0.59806 0.0
C711 C 0.49459 0.43588 0.57767 0.0
C712 C 0.45421 0.4213 0.49496 0.0
C713 C 0.44098 0.37153 0.4386 0.0
C714 C 0.45117 0.38781 0.4674 0.0
C715 C 0.48359 0.43688 0.53303 0.0
C716 C 0.4722 0.4198 0.51227 0.0
H717 H 0.43388 0.32317 0.43924 0.0
H718 H 0.44741 0.35023 0.49313 0.0
H719 H 0.43007 0.40714 0.45925 0.0
H720 H 0.49294 0.48403 0.50982 0.0
H721 H 0.47545 0.45553 0.47325 0.0
C722 C 0.17089 0.56314 0.42831 0.0
C723 C 0.1761 0.54819 0.39451 0.0
C724 C 0.15471 0.56084 0.45932 0.0
C725 C 0.11833 0.52395 0.50588 0.0
H726 H 0.08757 0.56595 0.51199 0.0
C727 C 0.03983 0.51455 0.53895 0.0
C728 C 0.0328 0.52549 0.58092 0.0
C729 C 0.05815 0.51812 0.52204 0.0
C730 C 0.09614 0.5542 0.51103 0.0
H731 H 0.16893 0.51878 0.36921 0.0
H732 H 0.14048 0.51508 0.42086 0.0
H733 H 0.11869 0.57047 0.47363 0.0
H734 H 0.03888 0.54916 0.63667 0.0
H735 H 0.07099 0.55588 0.60568 0.0
H736 H 0.09526 0.50746 0.54066 0.0
C737 C 0.14893 0.5285 0.42439 0.0
C738 C 0.114 0.55678 0.48939 0.0
C739 C 0.16515 0.53072 0.39395 0.0
C740 C 0.04411 0.54054 0.60433 0.0
C741 C 0.06238 0.54436 0.58668 0.0
C742 C 0.10039 0.52131 0.52661 0.0
C743 C 0.14334 0.5436 0.45695 0.0
C744 C 0.1252 0.54156 0.48558 0.0
C745 C 0.0696 0.53296 0.54602 0.0
C746 C 0.08906 0.53632 0.52847 0.0
H747 H 0.17896 0.57681 0.42958 0.0
H748 H 0.151 0.57268 0.48455 0.0
H749 H 0.12669 0.51205 0.50492 0.0
H750 H 0.03137 0.50279 0.52052 0.0
H751 H 0.06341 0.50926 0.49028 0.0
C752 C 0.92807 0.83092 0.87347 0.0
C753 C 0.91864 0.83213 0.92259 0.0
C754 C 0.93792 0.84702 0.85273 0.0
C755 C 0.96131 0.89275 0.89915 0.0
H756 H 0.96391 0.90476 0.75045 0.0
C757 C 0.99553 0.96391 0.82626 0.0
C758 C 0.00575 0.96375 0.77849 0.0
C759 C 0.98538 0.94739 0.84287 0.0
C760 C 0.96349 0.90143 0.79201 0.0
H761 H 0.91154 0.85146 0.98719 0.0
H762 H 0.92819 0.8795 0.95034 0.0
H763 H 0.94393 0.87713 0.77936 0.0
H764 H 0.01462 0.94613 0.71262 0.0
H765 H 0.99677 0.91705 0.7415 0.0
H766 H 0.98082 0.91694 0.91199 0.0
C767 C 0.92827 0.86605 0.92832 0.0
C768 C 0.95202 0.88566 0.80855 0.0
C769 C 0.91848 0.84999 0.94905 0.0
C770 C 0.0064 0.94663 0.74887 0.0
C771 C 0.99621 0.93005 0.7654 0.0
C772 C 0.97275 0.90846 0.88267 0.0
C773 C 0.93854 0.86464 0.88074 0.0
C774 C 0.95069 0.88126 0.86241 0.0
C775 C 0.98539 0.93034 0.81225 0.0
C776 C 0.97387 0.91307 0.82902 0.0
H777 H 0.92828 0.81741 0.85177 0.0
H778 H 0.94569 0.84548 0.81596 0.0
H779 H 0.96095 0.88948 0.94074 0.0
H780 H 0.99471 0.97698 0.8497 0.0
H781 H 0.97703 0.94815 0.87882 0.0
C782 C 0.64876 0.9905 0.02113 0.0
C783 C 0.66643 0.99201 0.9969 0.0
C784 C 0.63323 0.99369 0.99256 0.0
C785 C 0.61972 0.02087 0.88388 0.0
H786 H 0.57447 0.98723 0.88475 0.0
C787 C 0.55862 0.03335 0.75338 0.0
C788 C 0.54068 0.02821 0.77246 0.0
C789 C 0.57384 0.02888 0.78128 0.0
C790 C 0.58689 0.99695 0.88481 0.0
H791 H 0.68137 0.9973 0.92266 0.0
H792 H 0.65426 0.00351 0.87345 0.0
H793 H 0.60128 0.97857 0.93136 0.0
H794 H 0.5244 0.01559 0.83694 0.0
H795 H 0.55101 0.00829 0.8871 0.0
H796 H 0.60537 0.0396 0.83907 0.0
C797 C 0.65256 0.99985 0.91467 0.0
C798 C 0.60226 0.99189 0.91116 0.0
C799 C 0.66807 0.99638 0.94298 0.0
C800 C 0.53816 0.01938 0.82116 0.0
C801 C 0.5534 0.01511 0.84956 0.0
C802 C 0.6043 0.02608 0.85824 0.0
C803 C 0.63504 0.99874 0.9394 0.0
C804 C 0.61883 0.00377 0.91069 0.0
C805 C 0.57144 0.01953 0.82952 0.0
C806 C 0.5877 0.01416 0.85813 0.0
H807 H 0.64692 0.98754 0.06276 0.0
H808 H 0.61988 0.99293 0.01266 0.0
H809 H 0.63226 0.03043 0.8837 0.0
H810 H 0.56091 0.04008 0.71565 0.0
H811 H 0.58745 0.03225 0.76407 0.0
C812 C 0.58752 0.65275 0.97776 0.0
C813 C 0.58745 0.6706 0.95503 0.0
C814 C 0.57819 0.63659 0.95403 0.0
C815 C 0.55629 0.61707 0.8302 0.0
H816 H 0.52767 0.58389 0.92667 0.0
C817 C 0.50308 0.55622 0.7579 0.0
C818 C 0.50386 0.53872 0.78167 0.0
C819 C 0.51314 0.57258 0.77835 0.0
C820 C 0.53571 0.59292 0.89925 0.0
H821 H 0.57827 0.68523 0.8879 0.0
H822 H 0.56158 0.65703 0.84707 0.0
H823 H 0.54641 0.61166 0.96182 0.0
H824 H 0.51511 0.52451 0.84635 0.0
H825 H 0.53256 0.55308 0.88258 0.0
H826 H 0.54539 0.59828 0.76757 0.0
C827 C 0.56899 0.65554 0.88312 0.0
C828 C 0.5465 0.6088 0.91937 0.0
C829 C 0.57841 0.67174 0.9068 0.0
C830 C 0.51421 0.5379 0.82751 0.0
C831 C 0.52421 0.55424 0.84813 0.0
C832 C 0.54543 0.60117 0.81002 0.0
C833 C 0.56844 0.63787 0.90716 0.0
C834 C 0.55702 0.621 0.88516 0.0
C835 C 0.52396 0.57171 0.8234 0.0
C836 C 0.5351 0.58888 0.84442 0.0
H837 H 0.59413 0.65133 0.01516 0.0
H838 H 0.57833 0.62313 0.97304 0.0
H839 H 0.56435 0.6261 0.80283 0.0
H840 H 0.49478 0.55721 0.72327 0.0
H841 H 0.51241 0.58591 0.75903 0.0
C842 C 0.83999 0.43469 0.91902 0.0
C843 C 0.83367 0.4494 0.95161 0.0
C844 C 0.85761 0.43686 0.8953 0.0
C845 C 0.90304 0.46008 0.91771 0.0
H846 H 0.91198 0.45727 0.76576 0.0
C847 C 0.97272 0.48775 0.82647 0.0
C848 C 0.97918 0.47874 0.78025 0.0
C849 C 0.95505 0.48252 0.84659 0.0
C850 C 0.9098 0.45773 0.80834 0.0
H851 H 0.84069 0.47778 0.98526 0.0
H852 H 0.87155 0.48138 0.94476 0.0
H853 H 0.88059 0.45076 0.8014 0.0
H854 H 0.97275 0.45683 0.71956 0.0
H855 H 0.94196 0.44714 0.75555 0.0
H856 H 0.93206 0.46664 0.92543 0.0
C857 C 0.86282 0.46832 0.93703 0.0
C858 C 0.89182 0.45409 0.82858 0.0
C859 C 0.84516 0.46632 0.95981 0.0
C860 C 0.96791 0.46408 0.75505 0.0
C861 C 0.95027 0.45864 0.77555 0.0
C862 C 0.921 0.46338 0.89767 0.0
C863 C 0.86923 0.45358 0.90496 0.0
C864 C 0.88829 0.45564 0.88335 0.0
C865 C 0.94357 0.46789 0.82143 0.0
C866 C 0.9246 0.46269 0.84267 0.0
H867 H 0.83136 0.42153 0.9122 0.0
H868 H 0.86234 0.42531 0.87073 0.0
H869 H 0.90062 0.4611 0.9602 0.0
H870 H 0.98111 0.49928 0.8462 0.0
H871 H 0.95027 0.49029 0.88121 0.0
C872 C 0.07957 0.19506 0.00281 0.0
C873 C 0.09819 0.19698 0.01754 0.0
C874 C 0.07309 0.18104 0.96561 0.0
C875 C 0.08766 0.14425 0.86656 0.0
H876 H 0.0394 0.1195 0.90238 0.0
C877 C 0.05866 0.06898 0.78797 0.0
C878 C 0.04022 0.06717 0.77204 0.0
C879 C 0.0664 0.0861 0.81128 0.0
C880 C 0.05281 0.12639 0.89149 0.0
H881 H 0.12482 0.1863 0.00103 0.0
H882 H 0.11331 0.16118 0.93862 0.0
H883 H 0.05166 0.14715 0.95467 0.0
H884 H 0.0156 0.08189 0.76601 0.0
H885 H 0.02901 0.11166 0.8075 0.0
H886 H 0.08891 0.12267 0.80462 0.0
C887 C 0.10374 0.17074 0.95524 0.0
C888 C 0.05984 0.14236 0.92128 0.0
C889 C 0.11031 0.18503 0.99181 0.0
C890 C 0.02982 0.08288 0.77829 0.0
C891 C 0.03747 0.09988 0.80209 0.0
C892 C 0.08069 0.12804 0.83715 0.0
C893 C 0.08492 0.16821 0.94279 0.0
C894 C 0.07735 0.15157 0.90926 0.0
C895 C 0.05574 0.10158 0.81953 0.0
C896 C 0.06318 0.119 0.84935 0.0
H897 H 0.06966 0.20374 0.02178 0.0
H898 H 0.05862 0.17993 0.95598 0.0
H899 H 0.10108 0.15105 0.85568 0.0
H900 H 0.06697 0.05707 0.78337 0.0
H901 H 0.08049 0.08701 0.82464 0.0
C902 C 0.31842 0.0244 0.9192 0.0
C903 C 0.31302 0.01078 0.95693 0.0
C904 C 0.33385 0.02235 0.88625 0.0
C905 C 0.36898 0.98898 0.8449 0.0
H906 H 0.40086 0.0359 0.83476 0.0
C907 C 0.44745 0.99221 0.79526 0.0
C908 C 0.4542 0.00566 0.75829 0.0
C909 C 0.42925 0.99187 0.81458 0.0
C910 C 0.39204 0.02271 0.83677 0.0
H911 H 0.31895 0.98388 0.98803 0.0
H912 H 0.34596 0.98045 0.93153 0.0
H913 H 0.37008 0.03669 0.87347 0.0
H914 H 0.44705 0.02922 0.71238 0.0
H915 H 0.41556 0.02868 0.74648 0.0
H916 H 0.39144 0.97501 0.80977 0.0
C917 C 0.33817 0.99254 0.92633 0.0
C918 C 0.37431 0.02315 0.85861 0.0
C919 C 0.32263 0.99449 0.95881 0.0
C920 C 0.44238 0.01871 0.74103 0.0
C921 C 0.42431 0.01846 0.76061 0.0
C922 C 0.38683 0.98853 0.82347 0.0
C923 C 0.34435 0.00677 0.89094 0.0
C924 C 0.36257 0.00629 0.86328 0.0
C925 C 0.41757 0.00508 0.79764 0.0
C926 C 0.39854 0.00539 0.81947 0.0
H927 H 0.31114 0.03701 0.91666 0.0
H928 H 0.33794 0.03334 0.85847 0.0
H929 H 0.36024 0.97575 0.84729 0.0
H930 H 0.45615 0.98188 0.80904 0.0
H931 H 0.4244 0.98149 0.84344 0.0
C932 C 0.39658 0.31961 0.96168 0.0
C933 C 0.4059 0.3031 0.9544 0.0
C934 C 0.40091 0.33524 0.93006 0.0
C935 C 0.42653 0.3521 0.80885 0.0
H936 H 0.43189 0.39988 0.8904 0.0
C937 C 0.4685 0.42023 0.73526 0.0
C938 C 0.46188 0.43783 0.74897 0.0
C939 C 0.45961 0.40339 0.75458 0.0
C940 C 0.43018 0.38675 0.86673 0.0
H941 H 0.42622 0.28974 0.90519 0.0
H942 H 0.43419 0.3173 0.85103 0.0
H943 H 0.41979 0.37106 0.93331 0.0
H944 H 0.4404 0.45168 0.79161 0.0
H945 H 0.42475 0.4223 0.8251 0.0
H946 H 0.43742 0.36792 0.74248 0.0
C947 C 0.42339 0.31805 0.88106 0.0
C948 C 0.42321 0.37017 0.89136 0.0
C949 C 0.41895 0.3023 0.91253 0.0
C950 C 0.44586 0.43829 0.78076 0.0
C951 C 0.43697 0.42148 0.80012 0.0
C952 C 0.43356 0.36875 0.78414 0.0
C953 C 0.41482 0.33492 0.89061 0.0
C954 C 0.42135 0.35261 0.86288 0.0
C955 C 0.44393 0.40386 0.78805 0.0
C956 C 0.43556 0.38625 0.81293 0.0
H957 H 0.3866 0.32097 0.99375 0.0
H958 H 0.39375 0.34785 0.93779 0.0
H959 H 0.42513 0.33885 0.78563 0.0
H960 H 0.48082 0.41949 0.71062 0.0
H961 H 0.46543 0.3901 0.74488 0.0
C962 C 0.20646 0.5347 0.95213 0.0
C963 C 0.2152 0.55324 0.95834 0.0
C964 C 0.19192 0.53077 0.91713 0.0
C965 C 0.15552 0.5551 0.85737 0.0
H966 H 0.14425 0.50608 0.78522 0.0
C967 C 0.08781 0.53664 0.74368 0.0
C968 C 0.07843 0.51888 0.75447 0.0
C969 C 0.10594 0.54116 0.7602 0.0
C970 C 0.14719 0.51983 0.80527 0.0
H971 H 0.21638 0.58186 0.92969 0.0
H972 H 0.19109 0.57494 0.86798 0.0
H973 H 0.17416 0.51346 0.82653 0.0
H974 H 0.08068 0.49175 0.78971 0.0
H975 H 0.11229 0.49962 0.81882 0.0
H976 H 0.12844 0.56133 0.83697 0.0
C977 C 0.19523 0.56354 0.89113 0.0
C978 C 0.16433 0.52406 0.82894 0.0
C979 C 0.20977 0.56749 0.92631 0.0
C980 C 0.0876 0.50556 0.78096 0.0
C981 C 0.10575 0.51003 0.79727 0.0
C982 C 0.13843 0.55089 0.83351 0.0
C983 C 0.18576 0.54525 0.8873 0.0
C984 C 0.16857 0.5416 0.85626 0.0
C985 C 0.11508 0.52795 0.78754 0.0
C986 C 0.13392 0.53307 0.80813 0.0
H987 H 0.21005 0.52344 0.97676 0.0
H988 H 0.18483 0.51658 0.91583 0.0
H989 H 0.15815 0.56863 0.87875 0.0
H990 H 0.08107 0.54712 0.72294 0.0
H991 H 0.11282 0.55501 0.75164 0.0
C992 C 0.9126 0.80157 0.39142 0.0
C993 C 0.90269 0.80658 0.34768 0.0
C994 C 0.91855 0.81528 0.43033 0.0
C995 C 0.91141 0.86324 0.48553 0.0
H996 H 0.9639 0.8675 0.51158 0.0
C997 C 0.95022 0.93286 0.5639 0.0
C998 C 0.96549 0.93209 0.59624 0.0
C999 C 0.94124 0.91618 0.54178 0.0
C1000 C 0.94915 0.86634 0.50582 0.0
H1001 H 0.89093 0.83007 0.31181 0.0
H1002 H 0.90078 0.85362 0.38023 0.0
H1003 H 0.94997 0.84034 0.45967 0.0
H1004 H 0.98299 0.91338 0.63276 0.0
H1005 H 0.96706 0.8841 0.59513 0.0
H1006 H 0.91054 0.88929 0.53115 0.0
C1007 C 0.90389 0.83907 0.38446 0.0
C1008 C 0.94118 0.85076 0.47595 0.0
C1009 C 0.89817 0.82547 0.34527 0.0
C1010 C 0.97134 0.91433 0.60744 0.0
C1011 C 0.96225 0.8976 0.5857 0.0
C1012 C 0.91933 0.87872 0.51584 0.0
C1013 C 0.91447 0.83422 0.42676 0.0
C1014 C 0.92232 0.8493 0.46444 0.0
C1015 C 0.94723 0.89832 0.55199 0.0
C1016 C 0.9384 0.88073 0.52523 0.0
H1017 H 0.91607 0.78712 0.39519 0.0
H1018 H 0.92654 0.81113 0.46286 0.0
H1019 H 0.89678 0.86233 0.47778 0.0
H1020 H 0.94547 0.9464 0.55459 0.0
H1021 H 0.92996 0.91737 0.51534 0.0
C1022 C 0.69791 0.03135 0.44854 0.0
C1023 C 0.70322 0.01358 0.43005 0.0
C1024 C 0.68285 0.03238 0.48339 0.0
C1025 C 0.64974 0.00644 0.57265 0.0
H1026 H 0.6131 0.03149 0.49955 0.0
C1027 C 0.5722 0.99396 0.6256 0.0
C1028 C 0.56098 0.00876 0.61908 0.0
C1029 C 0.59067 0.99582 0.60875 0.0
C1030 C 0.62317 0.0248 0.52144 0.0
H1031 H 0.69806 0.98305 0.43839 0.0
H1032 H 0.67214 0.98497 0.50049 0.0
H1033 H 0.64464 0.03333 0.46572 0.0
H1034 H 0.56035 0.03737 0.59166 0.0
H1035 H 0.59267 0.04098 0.56418 0.0
H1036 H 0.62836 0.99802 0.62878 0.0
C1037 C 0.67953 0.99805 0.4874 0.0
C1038 C 0.64128 0.02585 0.50185 0.0
C1039 C 0.69445 0.99698 0.45193 0.0
C1040 C 0.5686 0.02556 0.59609 0.0
C1041 C 0.58715 0.0276 0.5803 0.0
C1042 C 0.63166 0.00569 0.59297 0.0
C1043 C 0.67305 0.0157 0.5012 0.0
C1044 C 0.65465 0.01644 0.52675 0.0
C1045 C 0.59844 0.01271 0.58605 0.0
C1046 C 0.61803 0.01458 0.56703 0.0
H1047 H 0.70466 0.04442 0.43344 0.0
H1048 H 0.67822 0.04618 0.49414 0.0
H1049 H 0.65985 0.99907 0.59247 0.0
H1050 H 0.56667 0.98085 0.6433 0.0
H1051 H 0.59874 0.98388 0.61292 0.0
C1052 C 0.61398 0.69023 0.40752 0.0
C1053 C 0.60188 0.70223 0.38622 0.0
C1054 C 0.60743 0.67594 0.44193 0.0
C1055 C 0.56333 0.64792 0.47714 0.0
H1056 H 0.5932 0.62665 0.58082 0.0
C1057 C 0.53388 0.58811 0.61111 0.0
C1058 C 0.54357 0.57182 0.60848 0.0
C1059 C 0.54175 0.60514 0.59062 0.0
C1060 C 0.58475 0.63248 0.55192 0.0
H1061 H 0.57345 0.7093 0.38841 0.0
H1062 H 0.56246 0.68555 0.45094 0.0
H1063 H 0.60527 0.65535 0.53558 0.0
H1064 H 0.56937 0.56072 0.58487 0.0
H1065 H 0.58334 0.59078 0.54962 0.0
H1066 H 0.54273 0.62523 0.49429 0.0
C1067 C 0.57688 0.68652 0.43907 0.0
C1068 C 0.59166 0.64887 0.52577 0.0
C1069 C 0.58334 0.70051 0.40382 0.0
C1070 C 0.56161 0.57308 0.58718 0.0
C1071 C 0.56961 0.59025 0.56728 0.0
C1072 C 0.55635 0.6318 0.50389 0.0
C1073 C 0.58865 0.67351 0.45693 0.0
C1074 C 0.58108 0.65676 0.48766 0.0
C1075 C 0.55956 0.60631 0.56777 0.0
C1076 C 0.56701 0.62384 0.54123 0.0
H1077 H 0.62846 0.69138 0.39623 0.0
H1078 H 0.617 0.66629 0.45466 0.0
H1079 H 0.5549 0.6531 0.44712 0.0
H1080 H 0.51998 0.58756 0.62764 0.0
H1081 H 0.53378 0.61736 0.59188 0.0
C1082 C 0.80408 0.44225 0.41191 0.0
C1083 C 0.79954 0.45674 0.37927 0.0
C1084 C 0.81835 0.44565 0.44822 0.0
C1085 C 0.84912 0.48419 0.51437 0.0
H1086 H 0.88404 0.44597 0.51208 0.0
C1087 C 0.92484 0.50106 0.57397 0.0
C1088 C 0.93333 0.48751 0.60157 0.0
C1089 C 0.90698 0.49691 0.55513 0.0
C1090 C 0.87429 0.45666 0.51396 0.0
H1091 H 0.80618 0.48635 0.36047 0.0
H1092 H 0.83088 0.49226 0.42351 0.0
H1093 H 0.85508 0.43945 0.46558 0.0
H1094 H 0.92974 0.45917 0.6324 0.0
H1095 H 0.89844 0.45185 0.5993 0.0
H1096 H 0.86864 0.50161 0.56141 0.0
C1097 C 0.82328 0.47832 0.42177 0.0
C1098 C 0.85765 0.45291 0.48734 0.0
C1099 C 0.80904 0.47493 0.38555 0.0
C1100 C 0.92353 0.46983 0.61092 0.0
C1101 C 0.90565 0.46564 0.59185 0.0
C1102 C 0.86578 0.48795 0.54086 0.0
C1103 C 0.8284 0.46363 0.45271 0.0
C1104 C 0.84502 0.46678 0.48631 0.0
C1105 C 0.89723 0.47909 0.56338 0.0
C1106 C 0.87872 0.47437 0.54007 0.0
H1107 H 0.79688 0.42814 0.40857 0.0
H1108 H 0.82173 0.4341 0.47209 0.0
H1109 H 0.83957 0.49506 0.51519 0.0
H1110 H 0.93211 0.5148 0.56624 0.0
H1111 H 0.90102 0.5075 0.53275 0.0
loop_
_geom_bond_atom_site_label_1
_geom_bond_atom_site_label_2
_geom_bond_distance
_geom_bond_site_symmetry_2
_ccdc_geom_bond_type
C0 C1 1.386 . S
C0 C2 1.397 . S
C0 H24 0.931 . S
C1 C0 1.386 . S
C1 C5 1.397 . S
C2 C0 1.397 . S
C2 C3 1.384 . S
C2 H25 0.930 . S
C3 C2 1.384 . S
C3 C4 1.377 . S
C3 C6 1.481 1_556 S
C4 C3 1.377 . S
C4 C5 1.389 . S
C4 H26 0.929 1_556 S
C5 C1 1.397 . S
C5 C4 1.389 . S
C5 H27 0.931 . S
C6 C3 1.481 1_554 S
C6 C7 1.387 . S
C6 C11 1.390 . S
C7 C6 1.387 . S
C7 C8 1.401 . S
C7 H28 0.930 1_554 S
C8 C7 1.401 . S
C8 C9 1.376 . S
C8 C17 1.511 . S
C9 C8 1.376 . S
C9 C10 1.392 . S
C9 H30 0.931 . S
C10 C9 1.392 . S
C10 C11 1.361 . S
C10 C12 1.500 . S
C11 C6 1.390 . S
C11 C10 1.361 . S
C11 H29 0.931 . S
C12 C10 1.500 . S
C12 C13 1.371 . S
C12 C14 1.365 . S
C13 C12 1.371 . S
C13 C23 1.386 . S
C13 H31 0.931 . S
C14 C12 1.365 . S
C14 C15 1.409 . S
C14 H32 0.929 . S
C15 C14 1.409 . S
C15 C16 1.380 . S
C15 H33 0.930 . S
C16 C15 1.380 . S
C16 C23 1.357 . S
C17 C8 1.511 . S
C17 C18 1.341 1_554 S
C17 C19 1.371 . S
C18 C17 1.341 1_556 S
C18 C22 1.394 . S
C18 H34 0.930 . S
C19 C17 1.371 . S
C19 C20 1.392 . S
C19 H35 0.931 . S
C20 C19 1.392 . S
C20 C21 1.331 . S
C20 H38 0.932 . S
C21 C20 1.331 . S
C21 C22 1.336 1_554 S
C22 C18 1.394 . S
C22 C21 1.336 1_556 S
C22 H37 0.929 . S
C23 C13 1.386 . S
C23 C16 1.357 . S
C23 H36 0.928 . S
H24 C0 0.931 . S
H25 C2 0.930 . S
H26 C4 0.929 1_554 S
H27 C5 0.931 . S
H28 C7 0.930 1_556 S
H29 C11 0.931 . S
H30 C9 0.931 . S
H31 C13 0.931 . S
H32 C14 0.929 . S
H33 C15 0.930 . S
H34 C18 0.930 . S
H35 C19 0.931 . S
H36 C23 0.928 . S
H37 C22 0.929 . S
H38 C20 0.932 . S
C39 C40 1.386 . S
C39 C41 1.397 . S
C39 H63 0.931 . S
C40 C39 1.386 . S
C40 C44 1.397 . S
C41 C39 1.397 . S
C41 C42 1.384 . S
C41 H64 0.930 . S
C42 C41 1.384 . S
C42 C43 1.377 . S
C42 C45 1.481 . S
C43 C42 1.377 . S
C43 C44 1.389 . S
C43 H65 0.929 . S
C44 C40 1.397 . S
C44 C43 1.389 . S
C44 H66 0.931 . S
C45 C42 1.481 . S
C45 C46 1.387 . S
C45 C50 1.390 1_556 S
C46 C45 1.387 . S
C46 C47 1.401 1_556 S
C46 H67 0.930 . S
C47 C46 1.401 1_554 S
C47 C48 1.376 . S
C47 C56 1.511 . S
C48 C47 1.376 . S
C48 C49 1.392 . S
C48 H69 0.931 . S
C49 C48 1.392 . S
C49 C50 1.361 . S
C49 C51 1.500 . S
C50 C45 1.390 1_554 S
C50 C49 1.361 . S
C50 H68 0.931 . S
C51 C49 1.500 . S
C51 C52 1.371 . S
C51 C53 1.365 . S
C52 C51 1.371 . S
C52 C62 1.386 . S
C52 H70 0.931 . S
C53 C51 1.365 . S
C53 C54 1.409 . S
C53 H71 0.929 . S
C54 C53 1.409 . S
C54 C55 1.380 . S
C54 H72 0.930 . S
C55 C54 1.380 . S
C55 C62 1.357 . S
C56 C47 1.511 . S
C56 C57 1.341 1_554 S
C56 C58 1.371 . S
C57 C56 1.341 1_556 S
C57 C61 1.394 . S
C57 H73 0.930 . S
C58 C56 1.371 . S
C58 C59 1.392 . S
C58 H74 0.931 . S
C59 C58 1.392 . S
C59 C60 1.331 1_554 S
C59 H77 0.932 . S
C60 C59 1.331 1_556 S
C60 C61 1.336 . S
C61 C57 1.394 . S
C61 C60 1.336 . S
C61 H76 0.929 . S
C62 C52 1.386 . S
C62 C55 1.357 . S
C62 H75 0.928 . S
H63 C39 0.931 . S
H64 C41 0.930 . S
H65 C43 0.929 . S
H66 C44 0.931 . S
H67 C46 0.930 . S
H68 C50 0.931 . S
H69 C48 0.931 . S
H70 C52 0.931 . S
H71 C53 0.929 . S
H72 C54 0.930 . S
H73 C57 0.930 . S
H74 C58 0.931 . S
H75 C62 0.928 . S
H76 C61 0.929 . S
H77 C59 0.932 . S
C78 C79 1.395 . S
C78 C80 1.397 . S
C78 H102 0.931 . S
C79 C78 1.395 . S
C79 C83 1.389 1_565 S
C80 C78 1.397 . S
C80 C81 1.388 1_556 S
C80 H103 0.930 . S
C81 C80 1.388 1_554 S
C81 C82 1.372 1_565 S
C81 C84 1.478 . S
C82 C81 1.372 1_545 S
C82 C83 1.389 1_554 S
C82 H104 0.929 . S
C83 C79 1.389 1_545 S
C83 C82 1.389 1_556 S
C83 H105 0.931 . S
C84 C81 1.478 . S
C84 C85 1.391 . S
C84 C89 1.390 . S
C85 C84 1.391 . S
C85 C86 1.399 . S
C85 H106 0.930 . S
C86 C85 1.399 . S
C86 C87 1.376 . S
C86 C95 1.515 . S
C87 C86 1.376 . S
C87 C88 1.388 . S
C87 H108 0.939 . S
C88 C87 1.388 . S
C88 C89 1.362 . S
C88 C90 1.499 1_565 S
C89 C84 1.390 . S
C89 C88 1.362 . S
C89 H107 0.930 . S
C90 C88 1.499 1_545 S
C90 C91 1.362 1_545 S
C90 C92 1.375 . S
C91 C90 1.362 1_565 S
C91 C101 1.386 . S
C91 H109 0.931 . S
C92 C90 1.375 . S
C92 C93 1.409 . S
C92 H110 0.929 . S
C93 C92 1.409 . S
C93 C94 1.378 . S
C93 H111 0.930 . S
C94 C93 1.378 . S
C94 C101 1.360 1_545 S
C95 C86 1.515 . S
C95 C96 1.341 . S
C95 C97 1.371 1_565 S
C96 C95 1.341 . S
C96 C100 1.394 . S
C96 H112 0.930 1_554 S
C97 C95 1.371 1_545 S
C97 C98 1.392 . S
C97 H113 0.931 . S
C98 C97 1.392 . S
C98 C99 1.323 1_545 S
C98 H116 0.932 . S
C99 C98 1.323 1_565 S
C99 C100 1.343 . S
C100 C96 1.394 . S
C100 C99 1.343 . S
C100 H115 0.929 1_554 S
C101 C91 1.386 . S
C101 C94 1.360 1_565 S
C101 H114 0.928 . S
H102 C78 0.931 . S
H103 C80 0.930 . S
H104 C82 0.929 . S
H105 C83 0.931 . S
H106 C85 0.930 . S
H107 C89 0.930 . S
H108 C87 0.939 . S
H109 C91 0.931 . S
H110 C92 0.929 . S
H111 C93 0.930 . S
H112 C96 0.930 1_556 S
H113 C97 0.931 . S
H114 C101 0.928 . S
H115 C100 0.929 1_556 S
H116 C98 0.932 . S
C117 C118 1.386 . S
C117 C119 1.397 . S
C117 H141 0.931 . S
C118 C117 1.386 . S
C118 C122 1.397 . S
C119 C117 1.397 . S
C119 C120 1.384 . S
C119 H142 0.930 . S
C120 C119 1.384 . S
C120 C121 1.377 . S
C120 C123 1.481 . S
C121 C120 1.377 . S
C121 C122 1.389 . S
C121 H143 0.929 . S
C122 C118 1.397 . S
C122 C121 1.389 . S
C122 H144 0.931 . S
C123 C120 1.481 . S
C123 C124 1.387 . S
C123 C128 1.390 . S
C124 C123 1.387 . S
C124 C125 1.401 . S
C124 H145 0.930 . S
C125 C124 1.401 . S
C125 C126 1.376 . S
C125 C134 1.511 . S
C126 C125 1.376 . S
C126 C127 1.392 . S
C126 H147 0.931 1_554 S
C127 C126 1.392 . S
C127 C128 1.361 . S
C127 C129 1.502 . S
C128 C123 1.390 . S
C128 C127 1.361 . S
C128 H146 0.931 . S
C129 C127 1.502 . S
C129 C130 1.368 1_554 S
C129 C131 1.365 . S
C130 C129 1.368 1_556 S
C130 C140 1.386 . S
C130 H148 0.931 . S
C131 C129 1.365 . S
C131 C132 1.409 1_554 S
C131 H149 0.929 . S
C132 C131 1.409 1_556 S
C132 C133 1.380 . S
C132 H150 0.930 . S
C133 C132 1.380 . S
C133 C140 1.357 . S
C134 C125 1.511 . S
C134 C135 1.341 . S
C134 C136 1.371 . S
C135 C134 1.341 . S
C135 C139 1.394 . S
C135 H151 0.930 . S
C136 C134 1.371 . S
C136 C137 1.390 1_554 S
C136 H152 0.931 1_554 S
C137 C136 1.390 1_556 S
C137 C138 1.324 1_556 S
C137 H155 0.940 . S
C138 C137 1.324 1_554 S
C138 C139 1.336 . S
C139 C135 1.394 . S
C139 C138 1.336 . S
C139 H154 0.929 . S
C140 C130 1.386 . S
C140 C133 1.357 . S
C140 H153 0.928 . S
H141 C117 0.931 . S
H142 C119 0.930 . S
H143 C121 0.929 . S
H144 C122 0.931 . S
H145 C124 0.930 . S
H146 C128 0.931 . S
H147 C126 0.931 1_556 S
H148 C130 0.931 . S
H149 C131 0.929 . S
H150 C132 0.930 . S
H151 C135 0.930 . S
H152 C136 0.931 1_556 S
H153 C140 0.928 . S
H154 C139 0.929 . S
H155 C137 0.940 . S
C156 C157 1.386 . S
C156 C158 1.397 . S
C156 H180 0.931 . S
C157 C156 1.386 . S
C157 C161 1.397 . S
C158 C156 1.397 . S
C158 C159 1.384 . S
C158 H181 0.930 . S
C159 C158 1.384 . S
C159 C160 1.377 . S
C159 C162 1.481 . S
C160 C159 1.377 . S
C160 C161 1.389 . S
C160 H182 0.929 . S
C161 C157 1.397 . S
C161 C160 1.389 . S
C161 H183 0.931 . S
C162 C159 1.481 . S
C162 C163 1.387 . S
C162 C167 1.390 . S
C163 C162 1.387 . S
C163 C164 1.401 . S
C163 H184 0.930 . S
C164 C163 1.401 . S
C164 C165 1.376 . S
C164 C173 1.511 . S
C165 C164 1.376 . S
C165 C166 1.392 . S
C165 H186 0.931 . S
C166 C165 1.392 . S
C166 C167 1.361 . S
C166 C168 1.500 . S
C167 C162 1.390 . S
C167 C166 1.361 . S
C167 H185 0.931 . S
C168 C166 1.500 . S
C168 C169 1.371 . S
C168 C170 1.365 . S
C169 C168 1.371 . S
C169 C179 1.386 . S
C169 H187 0.931 . S
C170 C168 1.365 . S
C170 C171 1.409 . S
C170 H188 0.929 . S
C171 C170 1.409 . S
C171 C172 1.380 . S
C171 H189 0.930 . S
C172 C171 1.380 . S
C172 C179 1.357 . S
C173 C164 1.511 . S
C173 C174 1.341 . S
C173 C175 1.371 . S
C174 C173 1.341 . S
C174 C178 1.394 . S
C174 H190 0.930 . S
C175 C173 1.371 . S
C175 C176 1.392 . S
C175 H191 0.931 . S
C176 C175 1.392 . S
C176 C177 1.331 . S
C176 H194 0.932 . S
C177 C176 1.331 . S
C177 C178 1.336 . S
C178 C174 1.394 . S
C178 C177 1.336 . S
C178 H193 0.929 . S
C179 C169 1.386 . S
C179 C172 1.357 . S
C179 H192 0.928 . S
H180 C156 0.931 . S
H181 C158 0.930 . S
H182 C160 0.929 . S
H183 C161 0.931 . S
H184 C163 0.930 . S
H185 C167 0.931 . S
H186 C165 0.931 . S
H187 C169 0.931 . S
H188 C170 0.929 . S
H189 C171 0.930 . S
H190 C174 0.930 . S
H191 C175 0.931 . S
H192 C179 0.928 . S
H193 C178 0.929 . S
H194 C176 0.932 . S
C195 C196 1.386 . S
C195 C197 1.397 . S
C195 H219 0.931 . S
C196 C195 1.386 . S
C196 C200 1.397 . S
C197 C195 1.397 . S
C197 C198 1.384 . S
C197 H220 0.930 . S
C198 C197 1.384 . S
C198 C199 1.377 . S
C198 C201 1.481 . S
C199 C198 1.377 . S
C199 C200 1.389 . S
C199 H221 0.929 . S
C200 C196 1.397 . S
C200 C199 1.389 . S
C200 H222 0.931 . S
C201 C198 1.481 . S
C201 C202 1.387 . S
C201 C206 1.390 . S
C202 C201 1.387 . S
C202 C203 1.401 . S
C202 H223 0.930 . S
C203 C202 1.401 . S
C203 C204 1.376 . S
C203 C212 1.511 . S
C204 C203 1.376 . S
C204 C205 1.392 . S
C204 H225 0.931 . S
C205 C204 1.392 . S
C205 C206 1.361 . S
C205 C207 1.500 . S
C206 C201 1.390 . S
C206 C205 1.361 . S
C206 H224 0.931 . S
C207 C205 1.500 . S
C207 C208 1.371 . S
C207 C209 1.365 . S
C208 C207 1.371 . S
C208 C218 1.386 . S
C208 H226 0.931 . S
C209 C207 1.365 . S
C209 C210 1.409 . S
C209 H227 0.929 . S
C210 C209 1.409 . S
C210 C211 1.380 . S
C210 H228 0.930 . S
C211 C210 1.380 . S
C211 C218 1.357 . S
C212 C203 1.511 . S
C212 C213 1.341 . S
C212 C214 1.371 . S
C213 C212 1.341 . S
C213 C217 1.394 . S
C213 H229 0.930 . S
C214 C212 1.371 . S
C214 C215 1.392 . S
C214 H230 0.931 . S
C215 C214 1.392 . S
C215 C216 1.331 . S
C215 H233 0.932 . S
C216 C215 1.331 . S
C216 C217 1.336 . S
C217 C213 1.394 . S
C217 C216 1.336 . S
C217 H232 0.929 . S
C218 C208 1.386 . S
C218 C211 1.357 . S
C218 H231 0.928 . S
H219 C195 0.931 . S
H220 C197 0.930 . S
H221 C199 0.929 . S
H222 C200 0.931 . S
H223 C202 0.930 . S
H224 C206 0.931 . S
H225 C204 0.931 . S
H226 C208 0.931 . S
H227 C209 0.929 . S
H228 C210 0.930 . S
H229 C213 0.930 . S
H230 C214 0.931 . S
H231 C218 0.928 . S
H232 C217 0.929 . S
H233 C215 0.932 . S
C234 C235 1.386 1_565 S
C234 C236 1.397 . S
C234 H258 0.931 . S
C235 C234 1.386 1_545 S
C235 C239 1.397 . S
C236 C234 1.397 . S
C236 C237 1.384 1_565 S
C236 H259 0.930 . S
C237 C236 1.384 1_545 S
C237 C238 1.377 . S
C237 C240 1.481 . S
C238 C237 1.377 . S
C238 C239 1.389 . S
C238 H260 0.929 . S
C239 C235 1.397 . S
C239 C238 1.389 . S
C239 H261 0.931 . S
C240 C237 1.481 . S
C240 C241 1.387 . S
C240 C245 1.390 . S
C241 C240 1.387 . S
C241 C242 1.401 . S
C241 H262 0.930 . S
C242 C241 1.401 . S
C242 C243 1.376 . S
C242 C251 1.511 . S
C243 C242 1.376 . S
C243 C244 1.392 . S
C243 H264 0.931 . S
C244 C243 1.392 . S
C244 C245 1.361 . S
C244 C246 1.500 . S
C245 C240 1.390 . S
C245 C244 1.361 . S
C245 H263 0.931 . S
C246 C244 1.500 . S
C246 C247 1.371 1_545 S
C246 C248 1.365 . S
C247 C246 1.371 1_565 S
C247 C257 1.386 . S
C247 H265 0.931 . S
C248 C246 1.365 . S
C248 C249 1.409 . S
C248 H266 0.929 . S
C249 C248 1.409 . S
C249 C250 1.380 . S
C249 H267 0.930 . S
C250 C249 1.380 . S
C250 C257 1.357 1_545 S
C251 C242 1.511 . S
C251 C252 1.335 1_545 S
C251 C253 1.371 . S
C252 C251 1.335 1_565 S
C252 C256 1.392 1_565 S
C252 H268 0.939 . S
C253 C251 1.371 . S
C253 C254 1.392 . S
C253 H269 0.931 . S
C254 C253 1.392 . S
C254 C255 1.331 . S
C254 H272 0.932 . S
C255 C254 1.331 . S
C255 C256 1.336 . S
C256 C252 1.392 1_545 S
C256 C255 1.336 . S
C256 H271 0.929 1_545 S
C257 C247 1.386 . S
C257 C250 1.357 1_565 S
C257 H270 0.928 . S
H258 C234 0.931 . S
H259 C236 0.930 . S
H260 C238 0.929 . S
H261 C239 0.931 . S
H262 C241 0.930 . S
H263 C245 0.931 . S
H264 C243 0.931 . S
H265 C247 0.931 . S
H266 C248 0.929 . S
H267 C249 0.930 . S
H268 C252 0.939 . S
H269 C253 0.931 . S
H270 C257 0.928 . S
H271 C256 0.929 1_565 S
H272 C254 0.932 . S
C273 C274 1.386 . S
C273 C275 1.397 . S
C273 H297 0.931 . S
C274 C273 1.386 . S
C274 C278 1.397 . S
C275 C273 1.397 . S
C275 C276 1.384 . S
C275 H298 0.930 . S
C276 C275 1.384 . S
C276 C277 1.377 . S
C276 C279 1.481 . S
C277 C276 1.377 . S
C277 C278 1.389 . S
C277 H299 0.929 . S
C278 C274 1.397 . S
C278 C277 1.389 . S
C278 H300 0.931 . S
C279 C276 1.481 . S
C279 C280 1.387 . S
C279 C284 1.390 . S
C280 C279 1.387 . S
C280 C281 1.401 . S
C280 H301 0.930 . S
C281 C280 1.401 . S
C281 C282 1.376 . S
C281 C290 1.511 . S
C282 C281 1.376 . S
C282 C283 1.392 . S
C282 H303 0.931 . S
C283 C282 1.392 . S
C283 C284 1.361 . S
C283 C285 1.500 . S
C284 C279 1.390 . S
C284 C283 1.361 . S
C284 H302 0.931 . S
C285 C283 1.500 . S
C285 C286 1.371 . S
C285 C287 1.365 . S
C286 C285 1.371 . S
C286 C296 1.386 . S
C286 H304 0.931 . S
C287 C285 1.365 . S
C287 C288 1.409 . S
C287 H305 0.929 . S
C288 C287 1.409 . S
C288 C289 1.380 . S
C288 H306 0.930 . S
C289 C288 1.380 . S
C289 C296 1.357 . S
C290 C281 1.511 . S
C290 C291 1.341 . S
C290 C292 1.371 . S
C291 C290 1.341 . S
C291 C295 1.394 . S
C291 H307 0.930 . S
C292 C290 1.371 . S
C292 C293 1.392 . S
C292 H308 0.931 . S
C293 C292 1.392 . S
C293 C294 1.331 . S
C293 H311 0.932 . S
C294 C293 1.331 . S
C294 C295 1.336 . S
C295 C291 1.394 . S
C295 C294 1.336 . S
C295 H310 0.929 . S
C296 C286 1.386 . S
C296 C289 1.357 . S
C296 H309 0.928 . S
H297 C273 0.931 . S
H298 C275 0.930 . S
H299 C277 0.929 . S
H300 C278 0.931 . S
H301 C280 0.930 . S
H302 C284 0.931 . S
H303 C282 0.931 . S
H304 C286 0.931 . S
H305 C287 0.929 . S
H306 C288 0.930 . S
H307 C291 0.930 . S
H308 C292 0.931 . S
H309 C296 0.928 . S
H310 C295 0.929 . S
H311 C293 0.932 . S
Tb312 O315 2.453 1_665 S
Tb312 O316 2.596 1_665 S
Tb312 O317 2.374 1_655 S
Tb312 O325 2.355 . S
Tb312 O327 2.353 1_565 S
Tb312 O329 2.427 . S
Tb312 O330 2.513 . S
C313 O317 1.251 . S
C313 O319 1.263 . S
Tb314 O316 2.343 . S
Tb314 O319 2.353 1_545 S
Tb314 O322 2.427 . S
Tb314 O323 2.513 . S
Tb314 O324 2.453 1_545 S
Tb314 O325 2.569 1_445 S
Tb314 O326 2.374 1_455 S
O315 Tb312 2.453 1_445 S
O315 C331 1.245 . S
O316 Tb312 2.596 1_445 S
O316 Tb314 2.343 . S
O316 C331 1.259 . S
O317 Tb312 2.374 1_455 S
O317 C313 1.251 . S
C318 O322 1.275 . S
C318 O323 1.246 . S
O319 C313 1.263 . S
O319 Tb314 2.353 1_565 S
C320 O324 1.245 1_655 S
C320 O325 1.258 . S
C321 O326 1.250 . S
C321 O327 1.263 . S
O322 Tb314 2.427 . S
O322 C318 1.275 . S
O323 Tb314 2.513 . S
O323 C318 1.246 . S
O324 Tb314 2.453 1_565 S
O324 C320 1.245 1_455 S
O325 Tb312 2.355 . S
O325 Tb314 2.569 1_665 S
O325 C320 1.258 . S
O326 Tb314 2.374 1_655 S
O326 C321 1.250 . S
O327 Tb312 2.353 1_545 S
O327 C321 1.263 . S
C328 O329 1.275 . S
C328 O330 1.246 . S
O329 Tb312 2.427 . S
O329 C328 1.275 . S
O330 Tb312 2.513 . S
O330 C328 1.246 . S
C331 O315 1.245 . S
C331 O316 1.259 . S
Tb332 O335 2.453 . S
Tb332 O336 2.600 1_545 S
Tb332 O337 2.374 . S
Tb332 O345 2.343 . S
Tb332 O347 2.353 . S
Tb332 O349 2.427 . S
Tb332 O350 2.513 . S
C333 O337 1.251 . S
C333 O339 1.263 1_545 S
Tb334 O336 2.340 . S
Tb334 O339 2.353 . S
Tb334 O342 2.427 . S
Tb334 O343 2.513 . S
Tb334 O344 2.453 . S
Tb334 O345 2.596 1_565 S
Tb334 O346 2.374 . S
O335 Tb332 2.453 . S
O335 C351 1.245 . S
O336 Tb332 2.600 1_565 S
O336 Tb334 2.340 . S
O336 C351 1.262 1_565 S
O337 Tb332 2.374 . S
O337 C333 1.251 . S
C338 O342 1.275 . S
C338 O343 1.246 . S
O339 C333 1.263 1_565 S
O339 Tb334 2.353 . S
C340 O344 1.245 . S
C340 O345 1.259 1_565 S
C341 O346 1.250 1_545 S
C341 O347 1.263 . S
O342 Tb334 2.427 . S
O342 C338 1.275 . S
O343 Tb334 2.513 . S
O343 C338 1.246 . S
O344 Tb334 2.453 . S
O344 C340 1.245 . S
O345 Tb332 2.343 . S
O345 Tb334 2.596 1_545 S
O345 C340 1.259 1_545 S
O346 Tb334 2.374 . S
O346 C341 1.250 1_565 S
O347 Tb332 2.353 . S
O347 C341 1.263 . S
C348 O349 1.275 . S
C348 O350 1.246 . S
O349 Tb332 2.427 . S
O349 C348 1.275 . S
O350 Tb332 2.513 . S
O350 C348 1.246 . S
C351 O335 1.245 . S
C351 O336 1.262 1_545 S
Tb352 O355 2.453 . S
Tb352 O356 2.596 . S
Tb352 O357 2.374 . S
Tb352 O365 2.343 . S
Tb352 O367 2.353 . S
Tb352 O369 2.427 . S
Tb352 O370 2.513 . S
C353 O357 1.251 . S
C353 O359 1.263 . S
Tb354 O356 2.343 . S
Tb354 O359 2.353 . S
Tb354 O362 2.427 . S
Tb354 O363 2.513 . S
Tb354 O364 2.453 . S
Tb354 O365 2.596 . S
Tb354 O366 2.374 . S
O355 Tb352 2.453 . S
O355 C371 1.245 . S
O356 Tb352 2.596 . S
O356 Tb354 2.343 . S
O356 C371 1.259 . S
O357 Tb352 2.374 . S
O357 C353 1.251 . S
C358 O362 1.275 . S
C358 O363 1.246 . S
O359 C353 1.263 . S
O359 Tb354 2.353 . S
C360 O364 1.245 . S
C360 O365 1.259 . S
C361 O366 1.250 . S
C361 O367 1.263 . S
O362 Tb354 2.427 . S
O362 C358 1.275 . S
O363 Tb354 2.513 . S
O363 C358 1.246 . S
O364 Tb354 2.453 . S
O364 C360 1.245 . S
O365 Tb352 2.343 . S
O365 Tb354 2.596 . S
O365 C360 1.259 . S
O366 Tb354 2.374 . S
O366 C361 1.250 . S
O367 Tb352 2.353 . S
O367 C361 1.263 . S
C368 O369 1.275 . S
C368 O370 1.246 . S
O369 Tb352 2.427 . S
O369 C368 1.275 . S
O370 Tb352 2.513 . S
O370 C368 1.246 . S
C371 O355 1.245 . S
C371 O356 1.259 . S
Tb372 O375 2.453 1_655 S
Tb372 O376 2.596 1_655 S
Tb372 O377 2.374 1_655 S
Tb372 O385 2.343 . S
Tb372 O387 2.353 . S
Tb372 O389 2.427 . S
Tb372 O390 2.513 . S
C373 O377 1.251 . S
C373 O379 1.263 . S
Tb374 O376 2.343 . S
Tb374 O379 2.353 . S
Tb374 O382 2.427 . S
Tb374 O383 2.513 . S
Tb374 O384 2.453 1_455 S
Tb374 O385 2.596 1_455 S
Tb374 O386 2.374 . S
O375 Tb372 2.453 1_455 S
O375 C391 1.245 . S
O376 Tb372 2.596 1_455 S
O376 Tb374 2.343 . S
O376 C391 1.259 . S
O377 Tb372 2.374 1_455 S
O377 C373 1.251 . S
C378 O382 1.275 . S
C378 O383 1.246 . S
O379 C373 1.263 . S
O379 Tb374 2.353 . S
C380 O384 1.245 . S
C380 O385 1.259 . S
C381 O386 1.250 1_655 S
C381 O387 1.263 . S
O382 Tb374 2.427 . S
O382 C378 1.275 . S
O383 Tb374 2.513 . S
O383 C378 1.246 . S
O384 Tb374 2.453 1_655 S
O384 C380 1.245 . S
O385 Tb372 2.343 . S
O385 Tb374 2.596 1_655 S
O385 C380 1.259 . S
O386 Tb374 2.374 . S
O386 C381 1.250 1_455 S
O387 Tb372 2.353 . S
O387 C381 1.263 . S
C388 O389 1.275 . S
C388 O390 1.246 . S
O389 Tb372 2.427 . S
O389 C388 1.275 . S
O390 Tb372 2.513 . S
O390 C388 1.246 . S
C391 O375 1.245 . S
C391 O376 1.259 . S
C392 C393 1.349 . S
C392 C394 1.327 . S
C392 H417 0.950 . S
C393 C392 1.349 . S
C393 C409 1.349 1_545 S
C394 C392 1.327 . S
C394 C413 1.429 . S
C394 H418 0.950 . S
C395 C412 1.574 . S
C395 C414 1.368 1_565 S
C395 H419 0.949 . S
H396 C400 0.949 . S
C397 C398 1.348 . S
C397 C399 1.327 . S
C397 H420 0.950 . S
C398 C397 1.348 . S
C398 C410 1.350 1_565 S
C399 C397 1.327 . S
C399 C415 1.429 1_565 S
C399 H421 0.950 . S
C400 H396 0.949 . S
C400 C408 1.574 . S
C400 C416 1.368 . S
H401 C409 0.950 . S
H402 C407 0.950 . S
H403 C408 0.949 . S
H404 C410 0.950 . S
H405 C411 0.950 . S
H406 C412 0.949 . S
C407 H402 0.950 . S
C407 C409 1.327 . S
C407 C413 1.429 1_565 S
C408 C400 1.574 . S
C408 H403 0.949 . S
C408 C414 1.368 . S
C409 C393 1.349 1_565 S
C409 H401 0.950 . S
C409 C407 1.327 . S
C410 C398 1.350 1_545 S
C410 H404 0.950 . S
C410 C411 1.327 . S
C411 H405 0.950 . S
C411 C410 1.327 . S
C411 C415 1.429 . S
C412 C395 1.574 . S
C412 H406 0.949 . S
C412 C416 1.368 1_565 S
C413 C394 1.429 . S
C413 C407 1.429 1_545 S
C413 C414 1.523 . S
C414 C395 1.368 1_545 S
C414 C408 1.368 . S
C414 C413 1.523 . S
C415 C399 1.429 1_545 S
C415 C411 1.429 . S
C415 C416 1.523 . S
C416 C400 1.368 . S
C416 C412 1.368 1_545 S
C416 C415 1.523 . S
H417 C392 0.950 . S
H418 C394 0.950 . S
H419 C395 0.949 . S
H420 C397 0.950 . S
H421 C399 0.950 . S
C422 C423 1.349 . S
C422 C424 1.327 . S
C422 H447 0.950 . S
C423 C422 1.349 . S
C423 C439 1.349 . S
C424 C422 1.327 . S
C424 C443 1.429 . S
C424 H448 0.950 . S
C425 C442 1.574 . S
C425 C444 1.368 . S
C425 H449 0.949 . S
H426 C430 0.949 . S
C427 C428 1.349 . S
C427 C429 1.327 . S
C427 H450 0.950 . S
C428 C427 1.349 . S
C428 C440 1.349 . S
C429 C427 1.327 . S
C429 C445 1.429 . S
C429 H451 0.950 . S
C430 H426 0.949 . S
C430 C438 1.574 . S
C430 C446 1.368 . S
H431 C439 0.950 . S
H432 C437 0.950 . S
H433 C438 0.949 . S
H434 C440 0.950 . S
H435 C441 0.950 . S
H436 C442 0.949 . S
C437 H432 0.950 . S
C437 C439 1.327 . S
C437 C443 1.429 . S
C438 C430 1.574 . S
C438 H433 0.949 . S
C438 C444 1.368 . S
C439 C423 1.349 . S
C439 H431 0.950 . S
C439 C437 1.327 . S
C440 C428 1.349 . S
C440 H434 0.950 . S
C440 C441 1.327 . S
C441 H435 0.950 . S
C441 C440 1.327 . S
C441 C445 1.429 . S
C442 C425 1.574 . S
C442 H436 0.949 . S
C442 C446 1.368 . S
C443 C424 1.429 . S
C443 C437 1.429 . S
C443 C444 1.523 . S
C444 C425 1.368 . S
C444 C438 1.368 . S
C444 C443 1.523 . S
C445 C429 1.429 . S
C445 C441 1.429 . S
C445 C446 1.523 . S
C446 C430 1.368 . S
C446 C442 1.368 . S
C446 C445 1.523 . S
H447 C422 0.950 . S
H448 C424 0.950 . S
H449 C425 0.949 . S
H450 C427 0.950 . S
H451 C429 0.950 . S
C452 C453 1.349 . S
C452 C454 1.327 . S
C452 H477 0.950 . S
C453 C452 1.349 . S
C453 C469 1.349 . S
C454 C452 1.327 . S
C454 C473 1.429 . S
C454 H478 0.950 . S
C455 C472 1.574 . S
C455 C474 1.368 . S
C455 H479 0.949 . S
H456 C460 0.949 . S
C457 C458 1.349 . S
C457 C459 1.327 . S
C457 H480 0.950 . S
C458 C457 1.349 . S
C458 C470 1.349 . S
C459 C457 1.327 . S
C459 C475 1.429 . S
C459 H481 0.950 . S
C460 H456 0.949 . S
C460 C468 1.574 . S
C460 C476 1.368 . S
H461 C469 0.950 . S
H462 C467 0.950 . S
H463 C468 0.949 . S
H464 C470 0.950 . S
H465 C471 0.950 . S
H466 C472 0.949 . S
C467 H462 0.950 . S
C467 C469 1.327 . S
C467 C473 1.429 . S
C468 C460 1.574 . S
C468 H463 0.949 . S
C468 C474 1.368 . S
C469 C453 1.349 . S
C469 H461 0.950 . S
C469 C467 1.327 . S
C470 C458 1.349 . S
C470 H464 0.950 . S
C470 C471 1.327 . S
C471 H465 0.950 . S
C471 C470 1.327 . S
C471 C475 1.429 . S
C472 C455 1.574 . S
C472 H466 0.949 . S
C472 C476 1.368 . S
C473 C454 1.429 . S
C473 C467 1.429 . S
C473 C474 1.523 . S
C474 C455 1.368 . S
C474 C468 1.368 . S
C474 C473 1.523 . S
C475 C459 1.429 . S
C475 C471 1.429 . S
C475 C476 1.523 . S
C476 C460 1.368 . S
C476 C472 1.368 . S
C476 C475 1.523 . S
H477 C452 0.950 . S
H478 C454 0.950 . S
H479 C455 0.949 . S
H480 C457 0.950 . S
H481 C459 0.950 . S
C482 C483 1.349 . S
C482 C484 1.327 . S
C482 H507 0.950 . S
C483 C482 1.349 . S
C483 C499 1.349 . S
C484 C482 1.327 . S
C484 C503 1.429 . S
C484 H508 0.950 . S
C485 C502 1.574 . S
C485 C504 1.368 . S
C485 H509 0.949 . S
H486 C490 0.949 . S
C487 C488 1.349 . S
C487 C489 1.327 . S
C487 H510 0.950 . S
C488 C487 1.349 . S
C488 C500 1.349 . S
C489 C487 1.327 . S
C489 C505 1.429 . S
C489 H511 0.950 . S
C490 H486 0.949 . S
C490 C498 1.574 . S
C490 C506 1.368 . S
H491 C499 0.950 . S
H492 C497 0.950 . S
H493 C498 0.949 . S
H494 C500 0.950 . S
H495 C501 0.950 . S
H496 C502 0.949 . S
C497 H492 0.950 . S
C497 C499 1.327 . S
C497 C503 1.429 . S
C498 C490 1.574 . S
C498 H493 0.949 . S
C498 C504 1.368 . S
C499 C483 1.349 . S
C499 H491 0.950 . S
C499 C497 1.327 . S
C500 C488 1.349 . S
C500 H494 0.950 . S
C500 C501 1.327 . S
C501 H495 0.950 . S
C501 C500 1.327 . S
C501 C505 1.429 . S
C502 C485 1.574 . S
C502 H496 0.949 . S
C502 C506 1.368 . S
C503 C484 1.429 . S
C503 C497 1.429 . S
C503 C504 1.523 . S
C504 C485 1.368 . S
C504 C498 1.368 . S
C504 C503 1.523 . S
C505 C489 1.429 . S
C505 C501 1.429 . S
C505 C506 1.523 . S
C506 C490 1.368 . S
C506 C502 1.368 . S
C506 C505 1.523 . S
H507 C482 0.950 . S
H508 C484 0.950 . S
H509 C485 0.949 . S
H510 C487 0.950 . S
H511 C489 0.950 . S
C512 C513 1.363 . S
C512 C514 1.327 1_554 S
C512 H537 0.950 . S
C513 C512 1.363 . S
C513 C529 1.335 1_544 S
C514 C512 1.327 1_556 S
C514 C533 1.429 . S
C514 H538 0.949 . S
C515 C532 1.574 . S
C515 C534 1.368 1_565 S
C515 H539 0.949 . S
H516 C520 0.949 . S
C517 C518 1.349 1_565 S
C517 C519 1.327 . S
C517 H540 0.950 . S
C518 C517 1.349 1_545 S
C518 C530 1.349 . S
C519 C517 1.327 . S
C519 C535 1.429 1_565 S
C519 H541 0.950 . S
C520 H516 0.949 . S
C520 C528 1.574 . S
C520 C536 1.368 . S
H521 C529 0.950 . S
H522 C527 0.950 . S
H523 C528 0.949 . S
H524 C530 0.950 . S
H525 C531 0.950 . S
H526 C532 0.949 . S
C527 H522 0.950 . S
C527 C529 1.327 . S
C527 C533 1.429 1_565 S
C528 C520 1.574 . S
C528 H523 0.949 . S
C528 C534 1.368 . S
C529 C513 1.335 1_566 S
C529 H521 0.950 . S
C529 C527 1.327 . S
C530 C518 1.349 . S
C530 H524 0.950 . S
C530 C531 1.327 . S
C531 H525 0.950 . S
C531 C530 1.327 . S
C531 C535 1.429 . S
C532 C515 1.574 . S
C532 H526 0.949 . S
C532 C536 1.368 1_565 S
C533 C514 1.429 . S
C533 C527 1.429 1_545 S
C533 C534 1.523 . S
C534 C515 1.368 1_545 S
C534 C528 1.368 . S
C534 C533 1.523 . S
C535 C519 1.429 1_545 S
C535 C531 1.429 . S
C535 C536 1.523 . S
C536 C520 1.368 . S
C536 C532 1.368 1_545 S
C536 C535 1.523 . S
H537 C512 0.950 . S
H538 C514 0.949 . S
H539 C515 0.949 . S
H540 C517 0.950 . S
H541 C519 0.950 . S
C542 C543 1.349 . S
C542 C544 1.327 1_554 S
C542 H567 0.950 . S
C543 C542 1.349 . S
C543 C559 1.349 1_554 S
C544 C542 1.327 1_556 S
C544 C563 1.429 . S
C544 H568 0.950 1_556 S
C545 C562 1.574 . S
C545 C564 1.368 . S
C545 H569 0.949 . S
H546 C550 0.949 . S
C547 C548 1.349 . S
C547 C549 1.327 . S
C547 H570 0.950 . S
C548 C547 1.349 . S
C548 C560 1.349 . S
C549 C547 1.327 . S
C549 C565 1.429 . S
C549 H571 0.950 . S
C550 H546 0.949 . S
C550 C558 1.574 . S
C550 C566 1.368 . S
H551 C559 0.950 . S
H552 C557 0.950 . S
H553 C558 0.949 . S
H554 C560 0.950 . S
H555 C561 0.950 . S
H556 C562 0.949 . S
C557 H552 0.950 . S
C557 C559 1.327 . S
C557 C563 1.429 . S
C558 C550 1.574 . S
C558 H553 0.949 . S
C558 C564 1.368 . S
C559 C543 1.349 1_556 S
C559 H551 0.950 . S
C559 C557 1.327 . S
C560 C548 1.349 . S
C560 H554 0.950 . S
C560 C561 1.327 . S
C561 H555 0.950 . S
C561 C560 1.327 . S
C561 C565 1.429 . S
C562 C545 1.574 . S
C562 H556 0.949 . S
C562 C566 1.368 . S
C563 C544 1.429 . S
C563 C557 1.429 . S
C563 C564 1.523 . S
C564 C545 1.368 . S
C564 C558 1.368 . S
C564 C563 1.523 . S
C565 C549 1.429 . S
C565 C561 1.429 . S
C565 C566 1.523 . S
C566 C550 1.368 . S
C566 C562 1.368 . S
C566 C565 1.523 . S
H567 C542 0.950 . S
H568 C544 0.950 1_554 S
H569 C545 0.949 . S
H570 C547 0.950 . S
H571 C549 0.950 . S
C572 C573 1.349 . S
C572 C574 1.327 . S
C572 H597 0.950 . S
C573 C572 1.349 . S
C573 C589 1.349 . S
C574 C572 1.327 . S
C574 C593 1.429 . S
C574 H598 0.950 . S
C575 C592 1.574 . S
C575 C594 1.368 . S
C575 H599 0.949 . S
H576 C580 0.949 . S
C577 C578 1.349 . S
C577 C579 1.327 . S
C577 H600 0.950 . S
C578 C577 1.349 . S
C578 C590 1.349 . S
C579 C577 1.327 . S
C579 C595 1.429 . S
C579 H601 0.950 . S
C580 H576 0.949 . S
C580 C588 1.574 . S
C580 C596 1.368 . S
H581 C589 0.950 1_554 S
H582 C587 0.950 . S
H583 C588 0.949 . S
H584 C590 0.950 . S
H585 C591 0.950 . S
H586 C592 0.949 . S
C587 H582 0.950 . S
C587 C589 1.327 . S
C587 C593 1.429 . S
C588 C580 1.574 . S
C588 H583 0.949 . S
C588 C594 1.368 . S
C589 C573 1.349 . S
C589 H581 0.950 1_556 S
C589 C587 1.327 . S
C590 C578 1.349 . S
C590 H584 0.950 . S
C590 C591 1.327 . S
C591 H585 0.950 . S
C591 C590 1.327 . S
C591 C595 1.429 . S
C592 C575 1.574 . S
C592 H586 0.949 . S
C592 C596 1.368 . S
C593 C574 1.429 . S
C593 C587 1.429 . S
C593 C594 1.523 . S
C594 C575 1.368 . S
C594 C588 1.368 . S
C594 C593 1.523 . S
C595 C579 1.429 . S
C595 C591 1.429 . S
C595 C596 1.523 . S
C596 C580 1.368 . S
C596 C592 1.368 . S
C596 C595 1.523 . S
H597 C572 0.950 . S
H598 C574 0.950 . S
H599 C575 0.949 . S
H600 C577 0.950 . S
H601 C579 0.950 . S
C602 C603 1.349 . S
C602 C604 1.327 . S
C602 H627 0.950 . S
C603 C602 1.349 . S
C603 C619 1.349 . S
C604 C602 1.327 . S
C604 C623 1.429 . S
C604 H628 0.950 . S
C605 C622 1.574 . S
C605 C624 1.368 . S
C605 H629 0.949 . S
H606 C610 0.949 . S
C607 C608 1.349 . S
C607 C609 1.327 . S
C607 H630 0.950 . S
C608 C607 1.349 . S
C608 C620 1.349 . S
C609 C607 1.327 . S
C609 C625 1.429 . S
C609 H631 0.950 . S
C610 H606 0.949 . S
C610 C618 1.574 . S
C610 C626 1.368 . S
H611 C619 0.950 . S
H612 C617 0.950 . S
H613 C618 0.949 . S
H614 C620 0.950 1_455 S
H615 C621 0.950 . S
H616 C622 0.949 . S
C617 H612 0.950 . S
C617 C619 1.327 . S
C617 C623 1.429 . S
C618 C610 1.574 . S
C618 H613 0.949 . S
C618 C624 1.368 . S
C619 C603 1.349 . S
C619 H611 0.950 . S
C619 C617 1.327 . S
C620 C608 1.349 . S
C620 H614 0.950 1_655 S
C620 C621 1.327 . S
C621 H615 0.950 . S
C621 C620 1.327 . S
C621 C625 1.429 . S
C622 C605 1.574 . S
C622 H616 0.949 . S
C622 C626 1.368 . S
C623 C604 1.429 . S
C623 C617 1.429 . S
C623 C624 1.523 . S
C624 C605 1.368 . S
C624 C618 1.368 . S
C624 C623 1.523 . S
C625 C609 1.429 . S
C625 C621 1.429 . S
C625 C626 1.523 . S
C626 C610 1.368 . S
C626 C622 1.368 . S
C626 C625 1.523 . S
H627 C602 0.950 . S
H628 C604 0.950 . S
H629 C605 0.949 . S
H630 C607 0.950 . S
H631 C609 0.950 . S
C632 C633 1.349 . S
C632 C634 1.327 . S
C632 H657 0.950 . S
C633 C632 1.349 . S
C633 C649 1.349 . S
C634 C632 1.327 . S
C634 C653 1.429 . S
C634 H658 0.950 . S
C635 C652 1.574 . S
C635 C654 1.368 . S
C635 H659 0.949 . S
H636 C640 0.949 . S
C637 C638 1.349 . S
C637 C639 1.327 . S
C637 H660 0.950 . S
C638 C637 1.349 . S
C638 C650 1.349 . S
C639 C637 1.327 . S
C639 C655 1.429 . S
C639 H661 0.950 . S
C640 H636 0.949 . S
C640 C648 1.574 . S
C640 C656 1.368 . S
H641 C649 0.950 . S
H642 C647 0.950 . S
H643 C648 0.949 . S
H644 C650 0.950 . S
H645 C651 0.950 . S
H646 C652 0.949 . S
C647 H642 0.950 . S
C647 C649 1.327 . S
C647 C653 1.429 . S
C648 C640 1.574 . S
C648 H643 0.949 . S
C648 C654 1.368 . S
C649 C633 1.349 . S
C649 H641 0.950 . S
C649 C647 1.327 . S
C650 C638 1.349 . S
C650 H644 0.950 . S
C650 C651 1.327 . S
C651 H645 0.950 . S
C651 C650 1.327 . S
C651 C655 1.429 . S
C652 C635 1.574 . S
C652 H646 0.949 . S
C652 C656 1.368 . S
C653 C634 1.429 . S
C653 C647 1.429 . S
C653 C654 1.523 . S
C654 C635 1.368 . S
C654 C648 1.368 . S
C654 C653 1.523 . S
C655 C639 1.429 . S
C655 C651 1.429 . S
C655 C656 1.523 . S
C656 C640 1.368 . S
C656 C652 1.368 . S
C656 C655 1.523 . S
H657 C632 0.950 . S
H658 C634 0.950 . S
H659 C635 0.949 . S
H660 C637 0.950 . S
H661 C639 0.950 . S
C662 C663 1.349 . S
C662 C664 1.327 . S
C662 H687 0.950 . S
C663 C662 1.349 . S
C663 C679 1.349 1_545 S
C664 C662 1.327 . S
C664 C683 1.429 . S
C664 H688 0.950 . S
C665 C682 1.574 . S
C665 C684 1.368 1_565 S
C665 H689 0.949 . S
H666 C670 0.949 . S
C667 C668 1.349 1_565 S
C667 C669 1.327 . S
C667 H690 0.950 . S
C668 C667 1.349 1_545 S
C668 C680 1.349 . S
C669 C667 1.327 . S
C669 C685 1.429 1_565 S
C669 H691 0.950 . S
C670 H666 0.949 . S
C670 C678 1.574 . S
C670 C686 1.368 . S
H671 C679 0.950 . S
H672 C677 0.950 . S
H673 C678 0.949 . S
H674 C680 0.950 . S
H675 C681 0.950 . S
H676 C682 0.949 . S
C677 H672 0.950 . S
C677 C679 1.327 . S
C677 C683 1.429 1_565 S
C678 C670 1.574 . S
C678 H673 0.949 . S
C678 C684 1.368 . S
C679 C663 1.349 1_565 S
C679 H671 0.950 . S
C679 C677 1.327 . S
C680 C668 1.349 . S
C680 H674 0.950 . S
C680 C681 1.327 . S
C681 H675 0.950 . S
C681 C680 1.327 . S
C681 C685 1.429 . S
C682 C665 1.574 . S
C682 H676 0.949 . S
C682 C686 1.368 1_565 S
C683 C664 1.429 . S
C683 C677 1.429 1_545 S
C683 C684 1.523 . S
C684 C665 1.368 1_545 S
C684 C678 1.368 . S
C684 C683 1.523 . S
C685 C669 1.429 1_545 S
C685 C681 1.429 . S
C685 C686 1.523 . S
C686 C670 1.368 . S
C686 C682 1.368 1_545 S
C686 C685 1.523 . S
H687 C662 0.950 . S
H688 C664 0.950 . S
H689 C665 0.949 . S
H690 C667 0.950 . S
H691 C669 0.950 . S
C692 C693 1.349 . S
C692 C694 1.327 . S
C692 H717 0.950 . S
C693 C692 1.349 . S
C693 C709 1.349 . S
C694 C692 1.327 . S
C694 C713 1.429 . S
C694 H718 0.950 . S
C695 C712 1.574 . S
C695 C714 1.368 . S
C695 H719 0.949 . S
H696 C700 0.949 . S
C697 C698 1.349 . S
C697 C699 1.327 . S
C697 H720 0.950 . S
C698 C697 1.349 . S
C698 C710 1.349 . S
C699 C697 1.327 . S
C699 C715 1.429 . S
C699 H721 0.950 . S
C700 H696 0.949 . S
C700 C708 1.574 . S
C700 C716 1.368 . S
H701 C709 0.950 . S
H702 C707 0.950 . S
H703 C708 0.949 . S
H704 C710 0.950 . S
H705 C711 0.950 . S
H706 C712 0.949 . S
C707 H702 0.950 . S
C707 C709 1.327 . S
C707 C713 1.429 . S
C708 C700 1.574 . S
C708 H703 0.949 . S
C708 C714 1.368 . S
C709 C693 1.349 . S
C709 H701 0.950 . S
C709 C707 1.327 . S
C710 C698 1.349 . S
C710 H704 0.950 . S
C710 C711 1.327 . S
C711 H705 0.950 . S
C711 C710 1.327 . S
C711 C715 1.429 . S
C712 C695 1.574 . S
C712 H706 0.949 . S
C712 C716 1.368 . S
C713 C694 1.429 . S
C713 C707 1.429 . S
C713 C714 1.523 . S
C714 C695 1.368 . S
C714 C708 1.368 . S
C714 C713 1.523 . S
C715 C699 1.429 . S
C715 C711 1.429 . S
C715 C716 1.523 . S
C716 C700 1.368 . S
C716 C712 1.368 . S
C716 C715 1.523 . S
H717 C692 0.950 . S
H718 C694 0.950 . S
H719 C695 0.949 . S
H720 C697 0.950 . S
H721 C699 0.950 . S
C722 C723 1.349 . S
C722 C724 1.327 . S
C722 H747 0.950 . S
C723 C722 1.349 . S
C723 C739 1.349 . S
C724 C722 1.327 . S
C724 C743 1.429 . S
C724 H748 0.950 . S
C725 C742 1.574 . S
C725 C744 1.368 . S
C725 H749 0.949 . S
H726 C730 0.949 . S
C727 C728 1.349 . S
C727 C729 1.327 . S
C727 H750 0.950 . S
C728 C727 1.349 . S
C728 C740 1.349 . S
C729 C727 1.327 . S
C729 C745 1.429 . S
C729 H751 0.950 . S
C730 H726 0.949 . S
C730 C738 1.574 . S
C730 C746 1.368 . S
H731 C739 0.950 . S
H732 C737 0.950 . S
H733 C738 0.949 . S
H734 C740 0.950 . S
H735 C741 0.950 . S
H736 C742 0.949 . S
C737 H732 0.950 . S
C737 C739 1.327 . S
C737 C743 1.429 . S
C738 C730 1.574 . S
C738 H733 0.949 . S
C738 C744 1.368 . S
C739 C723 1.349 . S
C739 H731 0.950 . S
C739 C737 1.327 . S
C740 C728 1.349 . S
C740 H734 0.950 . S
C740 C741 1.327 . S
C741 H735 0.950 . S
C741 C740 1.327 . S
C741 C745 1.429 . S
C742 C725 1.574 . S
C742 H736 0.949 . S
C742 C746 1.368 . S
C743 C724 1.429 . S
C743 C737 1.429 . S
C743 C744 1.523 . S
C744 C725 1.368 . S
C744 C738 1.368 . S
C744 C743 1.523 . S
C745 C729 1.429 . S
C745 C741 1.429 . S
C745 C746 1.523 . S
C746 C730 1.368 . S
C746 C742 1.368 . S
C746 C745 1.523 . S
H747 C722 0.950 . S
H748 C724 0.950 . S
H749 C725 0.949 . S
H750 C727 0.950 . S
H751 C729 0.950 . S
C752 C753 1.349 . S
C752 C754 1.327 . S
C752 H777 0.950 . S
C753 C752 1.349 . S
C753 C769 1.349 . S
C754 C752 1.327 . S
C754 C773 1.429 . S
C754 H778 0.950 . S
C755 C772 1.574 . S
C755 C774 1.368 . S
C755 H779 0.949 . S
H756 C760 0.949 . S
C757 C758 1.349 . S
C757 C759 1.327 . S
C757 H780 0.962 . S
C758 C757 1.349 . S
C758 C770 1.349 . S
C759 C757 1.327 . S
C759 C775 1.429 . S
C759 H781 0.950 . S
C760 H756 0.949 . S
C760 C768 1.574 . S
C760 C776 1.368 . S
H761 C769 0.950 . S
H762 C767 0.950 . S
H763 C768 0.949 . S
H764 C770 0.950 . S
H765 C771 0.950 . S
H766 C772 0.949 . S
C767 H762 0.950 . S
C767 C769 1.327 . S
C767 C773 1.429 . S
C768 C760 1.574 . S
C768 H763 0.949 . S
C768 C774 1.368 . S
C769 C753 1.349 . S
C769 H761 0.950 . S
C769 C767 1.327 . S
C770 C758 1.349 . S
C770 H764 0.950 . S
C770 C771 1.327 . S
C771 H765 0.950 . S
C771 C770 1.327 . S
C771 C775 1.429 . S
C772 C755 1.574 . S
C772 H766 0.949 . S
C772 C776 1.368 . S
C773 C754 1.429 . S
C773 C767 1.429 . S
C773 C774 1.523 . S
C774 C755 1.368 . S
C774 C768 1.368 . S
C774 C773 1.523 . S
C775 C759 1.429 . S
C775 C771 1.429 . S
C775 C776 1.523 . S
C776 C760 1.368 . S
C776 C772 1.368 . S
C776 C775 1.523 . S
H777 C752 0.950 . S
H778 C754 0.950 . S
H779 C755 0.949 . S
H780 C757 0.962 . S
H781 C759 0.950 . S
C782 C783 1.352 . S
C782 C784 1.327 . S
C782 H807 0.950 . S
C783 C782 1.352 . S
C783 C799 1.345 1_565 S
C784 C782 1.327 . S
C784 C803 1.429 1_565 S
C784 H808 0.950 . S
C785 C802 1.574 . S
C785 C804 1.368 . S
C785 H809 0.949 . S
H786 C790 0.949 . S
C787 C788 1.349 . S
C787 C789 1.327 . S
C787 H810 0.950 . S
C788 C787 1.349 . S
C788 C800 1.349 1_545 S
C789 C787 1.327 . S
C789 C805 1.429 . S
C789 H811 0.950 . S
C790 H786 0.949 . S
C790 C798 1.574 . S
C790 C806 1.368 1_565 S
H791 C799 0.950 . S
H792 C797 0.950 . S
H793 C798 0.949 . S
H794 C800 0.950 . S
H795 C801 0.950 . S
H796 C802 0.949 . S
C797 H792 0.950 . S
C797 C799 1.327 . S
C797 C803 1.429 . S
C798 C790 1.574 . S
C798 H793 0.949 . S
C798 C804 1.368 1_565 S
C799 C783 1.345 1_545 S
C799 H791 0.950 . S
C799 C797 1.327 . S
C800 C788 1.349 1_565 S
C800 H794 0.950 . S
C800 C801 1.327 . S
C801 H795 0.950 . S
C801 C800 1.327 . S
C801 C805 1.429 1_565 S
C802 C785 1.574 . S
C802 H796 0.949 . S
C802 C806 1.368 . S
C803 C784 1.429 1_545 S
C803 C797 1.429 . S
C803 C804 1.523 . S
C804 C785 1.368 . S
C804 C798 1.368 1_545 S
C804 C803 1.523 . S
C805 C789 1.429 . S
C805 C801 1.429 1_545 S
C805 C806 1.523 . S
C806 C790 1.368 1_545 S
C806 C802 1.368 . S
C806 C805 1.523 . S
H807 C782 0.950 . S
H808 C784 0.950 . S
H809 C785 0.949 . S
H810 C787 0.950 . S
H811 C789 0.950 . S
C812 C813 1.349 . S
C812 C814 1.327 . S
C812 H837 0.950 . S
C813 C812 1.349 . S
C813 C829 1.349 . S
C814 C812 1.327 . S
C814 C833 1.429 . S
C814 H838 0.950 . S
C815 C832 1.574 . S
C815 C834 1.368 . S
C815 H839 0.949 . S
H816 C820 0.949 . S
C817 C818 1.349 . S
C817 C819 1.327 . S
C817 H840 0.950 . S
C818 C817 1.349 . S
C818 C830 1.349 . S
C819 C817 1.327 . S
C819 C835 1.429 . S
C819 H841 0.950 . S
C820 H816 0.949 . S
C820 C828 1.574 . S
C820 C836 1.368 . S
H821 C829 0.950 . S
H822 C827 0.950 . S
H823 C828 0.949 . S
H824 C830 0.950 . S
H825 C831 0.950 . S
H826 C832 0.949 . S
C827 H822 0.950 . S
C827 C829 1.327 . S
C827 C833 1.429 . S
C828 C820 1.574 . S
C828 H823 0.949 . S
C828 C834 1.368 . S
C829 C813 1.349 . S
C829 H821 0.950 . S
C829 C827 1.327 . S
C830 C818 1.349 . S
C830 H824 0.950 . S
C830 C831 1.327 . S
C831 H825 0.950 . S
C831 C830 1.327 . S
C831 C835 1.429 . S
C832 C815 1.574 . S
C832 H826 0.949 . S
C832 C836 1.368 . S
C833 C814 1.429 . S
C833 C827 1.429 . S
C833 C834 1.523 . S
C834 C815 1.368 . S
C834 C828 1.368 . S
C834 C833 1.523 . S
C835 C819 1.429 . S
C835 C831 1.429 . S
C835 C836 1.523 . S
C836 C820 1.368 . S
C836 C832 1.368 . S
C836 C835 1.523 . S
H837 C812 0.950 . S
H838 C814 0.950 . S
H839 C815 0.949 . S
H840 C817 0.950 . S
H841 C819 0.950 . S
C842 C843 1.349 . S
C842 C844 1.327 . S
C842 H867 0.950 . S
C843 C842 1.349 . S
C843 C859 1.349 . S
C844 C842 1.327 . S
C844 C863 1.429 . S
C844 H868 0.950 . S
C845 C862 1.574 . S
C845 C864 1.368 . S
C845 H869 0.949 . S
H846 C850 0.949 . S
C847 C848 1.349 . S
C847 C849 1.327 . S
C847 H870 0.950 . S
C848 C847 1.349 . S
C848 C860 1.349 . S
C849 C847 1.327 . S
C849 C865 1.429 . S
C849 H871 0.950 . S
C850 H846 0.949 . S
C850 C858 1.574 . S
C850 C866 1.368 . S
H851 C859 0.950 . S
H852 C857 0.950 . S
H853 C858 0.949 . S
H854 C860 0.950 . S
H855 C861 0.950 . S
H856 C862 0.949 . S
C857 H852 0.950 . S
C857 C859 1.327 . S
C857 C863 1.429 . S
C858 C850 1.574 . S
C858 H853 0.949 . S
C858 C864 1.368 . S
C859 C843 1.349 . S
C859 H851 0.950 . S
C859 C857 1.327 . S
C860 C848 1.349 . S
C860 H854 0.950 . S
C860 C861 1.327 . S
C861 H855 0.950 . S
C861 C860 1.327 . S
C861 C865 1.429 . S
C862 C845 1.574 . S
C862 H856 0.949 . S
C862 C866 1.368 . S
C863 C844 1.429 . S
C863 C857 1.429 . S
C863 C864 1.523 . S
C864 C845 1.368 . S
C864 C858 1.368 . S
C864 C863 1.523 . S
C865 C849 1.429 . S
C865 C861 1.429 . S
C865 C866 1.523 . S
C866 C850 1.368 . S
C866 C862 1.368 . S
C866 C865 1.523 . S
H867 C842 0.950 . S
H868 C844 0.950 . S
H869 C845 0.949 . S
H870 C847 0.950 . S
H871 C849 0.950 . S
C872 C873 1.349 . S
C872 C874 1.327 . S
C872 H897 0.950 . S
C873 C872 1.349 . S
C873 C889 1.349 . S
C874 C872 1.327 . S
C874 C893 1.413 1_554 S
C874 H898 0.950 . S
C875 C892 1.574 . S
C875 C894 1.368 . S
C875 H899 0.949 . S
H876 C880 0.949 . S
C877 C878 1.349 . S
C877 C879 1.327 . S
C877 H900 0.950 . S
C878 C877 1.349 . S
C878 C890 1.349 . S
C879 C877 1.327 . S
C879 C895 1.429 . S
C879 H901 0.950 . S
C880 H876 0.949 . S
C880 C888 1.574 . S
C880 C896 1.368 . S
H881 C889 0.950 1_556 S
H882 C887 0.950 . S
H883 C888 0.949 1_554 S
H884 C890 0.950 . S
H885 C891 0.950 . S
H886 C892 0.949 . S
C887 H882 0.950 . S
C887 C889 1.327 1_556 S
C887 C893 1.435 . S
C888 C880 1.574 . S
C888 H883 0.949 1_556 S
C888 C894 1.368 . S
C889 C873 1.349 . S
C889 H881 0.950 1_554 S
C889 C887 1.327 1_554 S
C890 C878 1.349 . S
C890 H884 0.950 . S
C890 C891 1.327 . S
C891 H885 0.950 . S
C891 C890 1.327 . S
C891 C895 1.429 . S
C892 C875 1.574 . S
C892 H886 0.949 . S
C892 C896 1.368 . S
C893 C874 1.413 1_556 S
C893 C887 1.435 . S
C893 C894 1.531 . S
C894 C875 1.368 . S
C894 C888 1.368 . S
C894 C893 1.531 . S
C895 C879 1.429 . S
C895 C891 1.429 . S
C895 C896 1.523 . S
C896 C880 1.368 . S
C896 C892 1.368 . S
C896 C895 1.523 . S
H897 C872 0.950 . S
H898 C874 0.950 . S
H899 C875 0.949 . S
H900 C877 0.950 . S
H901 C879 0.950 . S
C902 C903 1.349 . S
C902 C904 1.327 1_554 S
C902 H927 0.950 . S
C903 C902 1.349 . S
C903 C919 1.349 1_544 S
C904 C902 1.327 1_556 S
C904 C923 1.429 . S
C904 H928 0.950 . S
C905 C922 1.574 . S
C905 C924 1.368 1_565 S
C905 H929 0.949 . S
H906 C910 0.949 . S
C907 C908 1.349 1_565 S
C907 C909 1.327 . S
C907 H930 0.950 . S
C908 C907 1.349 1_545 S
C908 C920 1.349 . S
C909 C907 1.327 . S
C909 C925 1.429 1_565 S
C909 H931 0.950 . S
C910 H906 0.949 . S
C910 C918 1.574 . S
C910 C926 1.368 . S
H911 C919 0.950 . S
H912 C917 0.950 . S
H913 C918 0.949 . S
H914 C920 0.950 . S
H915 C921 0.950 . S
H916 C922 0.949 . S
C917 H912 0.950 . S
C917 C919 1.327 . S
C917 C923 1.429 1_565 S
C918 C910 1.574 . S
C918 H913 0.949 . S
C918 C924 1.368 . S
C919 C903 1.349 1_566 S
C919 H911 0.950 . S
C919 C917 1.327 . S
C920 C908 1.349 . S
C920 H914 0.950 . S
C920 C921 1.327 . S
C921 H915 0.950 . S
C921 C920 1.327 . S
C921 C925 1.429 . S
C922 C905 1.574 . S
C922 H916 0.949 . S
C922 C926 1.368 1_565 S
C923 C904 1.429 . S
C923 C917 1.429 1_545 S
C923 C924 1.523 . S
C924 C905 1.368 1_545 S
C924 C918 1.368 . S
C924 C923 1.523 . S
C925 C909 1.429 1_545 S
C925 C921 1.429 . S
C925 C926 1.523 . S
C926 C910 1.368 . S
C926 C922 1.368 1_545 S
C926 C925 1.523 . S
H927 C902 0.950 . S
H928 C904 0.950 . S
H929 C905 0.949 . S
H930 C907 0.950 . S
H931 C909 0.950 . S
C932 C933 1.349 . S
C932 C934 1.327 1_554 S
C932 H957 0.950 . S
C933 C932 1.349 . S
C933 C949 1.349 1_554 S
C934 C932 1.327 1_556 S
C934 C953 1.429 . S
C934 H958 0.950 . S
C935 C952 1.574 . S
C935 C954 1.368 . S
C935 H959 0.949 . S
H936 C940 0.949 . S
C937 C938 1.349 . S
C937 C939 1.327 . S
C937 H960 0.950 . S
C938 C937 1.349 . S
C938 C950 1.349 . S
C939 C937 1.327 . S
C939 C955 1.429 . S
C939 H961 0.950 . S
C940 H936 0.949 . S
C940 C948 1.574 . S
C940 C956 1.368 . S
H941 C949 0.950 . S
H942 C947 0.950 . S
H943 C948 0.949 . S
H944 C950 0.950 . S
H945 C951 0.950 . S
H946 C952 0.949 . S
C947 H942 0.950 . S
C947 C949 1.327 . S
C947 C953 1.429 . S
C948 C940 1.574 . S
C948 H943 0.949 . S
C948 C954 1.368 . S
C949 C933 1.349 1_556 S
C949 H941 0.950 . S
C949 C947 1.327 . S
C950 C938 1.349 . S
C950 H944 0.950 . S
C950 C951 1.327 . S
C951 H945 0.950 . S
C951 C950 1.327 . S
C951 C955 1.429 . S
C952 C935 1.574 . S
C952 H946 0.949 . S
C952 C956 1.368 . S
C953 C934 1.429 . S
C953 C947 1.429 . S
C953 C954 1.523 . S
C954 C935 1.368 . S
C954 C948 1.368 . S
C954 C953 1.523 . S
C955 C939 1.429 . S
C955 C951 1.429 . S
C955 C956 1.523 . S
C956 C940 1.368 . S
C956 C952 1.368 . S
C956 C955 1.523 . S
H957 C932 0.950 . S
H958 C934 0.950 . S
H959 C935 0.949 . S
H960 C937 0.950 . S
H961 C939 0.950 . S
C962 C963 1.349 . S
C962 C964 1.327 . S
C962 H987 0.950 . S
C963 C962 1.349 . S
C963 C979 1.349 1_554 S
C964 C962 1.327 . S
C964 C983 1.429 1_554 S
C964 H988 0.950 . S
C965 C982 1.574 . S
C965 C984 1.368 . S
C965 H989 0.949 . S
H966 C970 0.949 . S
C967 C968 1.349 . S
C967 C969 1.327 . S
C967 H990 0.950 . S
C968 C967 1.349 . S
C968 C980 1.349 . S
C969 C967 1.327 . S
C969 C985 1.429 . S
C969 H991 0.950 . S
C970 H966 0.949 . S
C970 C978 1.574 . S
C970 C986 1.368 . S
H971 C979 0.950 . S
H972 C977 0.950 . S
H973 C978 0.949 1_554 S
H974 C980 0.950 . S
H975 C981 0.950 . S
H976 C982 0.949 . S
C977 H972 0.950 . S
C977 C979 1.327 . S
C977 C983 1.429 . S
C978 C970 1.574 . S
C978 H973 0.949 1_556 S
C978 C984 1.368 . S
C979 C963 1.349 1_556 S
C979 H971 0.950 . S
C979 C977 1.327 . S
C980 C968 1.349 . S
C980 H974 0.950 . S
C980 C981 1.327 . S
C981 H975 0.950 . S
C981 C980 1.327 . S
C981 C985 1.429 . S
C982 C965 1.574 . S
C982 H976 0.949 . S
C982 C986 1.368 . S
C983 C964 1.429 1_556 S
C983 C977 1.429 . S
C983 C984 1.523 . S
C984 C965 1.368 . S
C984 C978 1.368 . S
C984 C983 1.523 . S
C985 C969 1.429 . S
C985 C981 1.429 . S
C985 C986 1.523 . S
C986 C970 1.368 . S
C986 C982 1.368 . S
C986 C985 1.523 . S
H987 C962 0.950 . S
H988 C964 0.950 . S
H989 C965 0.949 . S
H990 C967 0.950 . S
H991 C969 0.950 . S
C992 C993 1.349 . S
C992 C994 1.327 . S
C992 H1017 0.950 . S
C993 C992 1.349 . S
C993 C1009 1.349 . S
C994 C992 1.327 . S
C994 C1013 1.429 . S
C994 H1018 0.950 . S
C995 C1012 1.574 . S
C995 C1014 1.368 . S
C995 H1019 0.949 . S
H996 C1000 0.949 . S
C997 C998 1.349 . S
C997 C999 1.327 . S
C997 H1020 0.950 . S
C998 C997 1.349 . S
C998 C1010 1.349 . S
C999 C997 1.327 . S
C999 C1015 1.429 . S
C999 H1021 0.950 . S
C1000 H996 0.949 . S
C1000 C1008 1.574 . S
C1000 C1016 1.368 . S
H1001 C1009 0.950 . S
H1002 C1007 0.950 . S
H1003 C1008 0.949 . S
H1004 C1010 0.950 . S
H1005 C1011 0.950 . S
H1006 C1012 0.949 . S
C1007 H1002 0.950 . S
C1007 C1009 1.327 . S
C1007 C1013 1.429 . S
C1008 C1000 1.574 . S
C1008 H1003 0.949 . S
C1008 C1014 1.368 . S
C1009 C993 1.349 . S
C1009 H1001 0.950 . S
C1009 C1007 1.327 . S
C1010 C998 1.349 . S
C1010 H1004 0.950 . S
C1010 C1011 1.327 . S
C1011 H1005 0.950 . S
C1011 C1010 1.327 . S
C1011 C1015 1.429 . S
C1012 C995 1.574 . S
C1012 H1006 0.949 . S
C1012 C1016 1.368 . S
C1013 C994 1.429 . S
C1013 C1007 1.429 . S
C1013 C1014 1.523 . S
C1014 C995 1.368 . S
C1014 C1008 1.368 . S
C1014 C1013 1.523 . S
C1015 C999 1.429 . S
C1015 C1011 1.429 . S
C1015 C1016 1.523 . S
C1016 C1000 1.368 . S
C1016 C1012 1.368 . S
C1016 C1015 1.523 . S
H1017 C992 0.950 . S
H1018 C994 0.950 . S
H1019 C995 0.949 . S
H1020 C997 0.950 . S
H1021 C999 0.950 . S
C1022 C1023 1.349 . S
C1022 C1024 1.327 . S
C1022 H1047 0.950 . S
C1023 C1022 1.349 . S
C1023 C1039 1.349 1_545 S
C1024 C1022 1.327 . S
C1024 C1043 1.441 . S
C1024 H1048 0.950 . S
C1025 C1042 1.574 . S
C1025 C1044 1.346 1_565 S
C1025 H1049 0.949 . S
H1026 C1030 0.949 . S
C1027 C1028 1.349 1_565 S
C1027 C1029 1.327 . S
C1027 H1050 0.950 . S
C1028 C1027 1.349 1_545 S
C1028 C1040 1.349 . S
C1029 C1027 1.327 . S
C1029 C1045 1.391 1_565 S
C1029 H1051 0.950 . S
C1030 H1026 0.949 . S
C1030 C1038 1.574 . S
C1030 C1046 1.404 . S
H1031 C1039 0.950 . S
H1032 C1037 0.950 . S
H1033 C1038 0.949 . S
H1034 C1040 0.950 . S
H1035 C1041 0.950 . S
H1036 C1042 0.949 . S
C1037 H1032 0.950 . S
C1037 C1039 1.327 . S
C1037 C1043 1.414 1_565 S
C1038 C1030 1.574 . S
C1038 H1033 0.949 . S
C1038 C1044 1.392 . S
C1039 C1023 1.349 1_565 S
C1039 H1031 0.950 . S
C1039 C1037 1.327 . S
C1040 C1028 1.349 . S
C1040 H1034 0.950 . S
C1040 C1041 1.327 . S
C1041 H1035 0.950 . S
C1041 C1040 1.327 . S
C1041 C1045 1.473 . S
C1042 C1025 1.574 . S
C1042 H1036 0.949 . S
C1042 C1046 1.330 1_565 S
C1043 C1024 1.441 . S
C1043 C1037 1.414 1_545 S
C1043 C1044 1.522 . S
C1044 C1025 1.346 1_545 S
C1044 C1038 1.392 . S
C1044 C1043 1.522 . S
C1045 C1029 1.391 1_545 S
C1045 C1041 1.473 . S
C1045 C1046 1.522 . S
C1046 C1030 1.404 . S
C1046 C1042 1.330 1_545 S
C1046 C1045 1.522 . S
H1047 C1022 0.950 . S
H1048 C1024 0.950 . S
H1049 C1025 0.949 . S
H1050 C1027 0.950 . S
H1051 C1029 0.950 . S
C1052 C1053 1.349 . S
C1052 C1054 1.327 . S
C1052 H1077 0.950 . S
C1053 C1052 1.349 . S
C1053 C1069 1.349 . S
C1054 C1052 1.327 . S
C1054 C1073 1.429 . S
C1054 H1078 0.950 . S
C1055 C1072 1.574 . S
C1055 C1074 1.368 . S
C1055 H1079 0.949 . S
H1056 C1060 0.949 . S
C1057 C1058 1.349 . S
C1057 C1059 1.327 . S
C1057 H1080 0.950 . S
C1058 C1057 1.349 . S
C1058 C1070 1.349 . S
C1059 C1057 1.327 . S
C1059 C1075 1.429 . S
C1059 H1081 0.950 . S
C1060 H1056 0.949 . S
C1060 C1068 1.574 . S
C1060 C1076 1.368 . S
H1061 C1069 0.950 . S
H1062 C1067 0.950 . S
H1063 C1068 0.949 . S
H1064 C1070 0.950 . S
H1065 C1071 0.950 . S
H1066 C1072 0.949 . S
C1067 H1062 0.950 . S
C1067 C1069 1.327 . S
C1067 C1073 1.429 . S
C1068 C1060 1.574 . S
C1068 H1063 0.949 . S
C1068 C1074 1.368 . S
C1069 C1053 1.349 . S
C1069 H1061 0.950 . S
C1069 C1067 1.327 . S
C1070 C1058 1.349 . S
C1070 H1064 0.950 . S
C1070 C1071 1.327 . S
C1071 H1065 0.950 . S
C1071 C1070 1.327 . S
C1071 C1075 1.429 . S
C1072 C1055 1.574 . S
C1072 H1066 0.949 . S
C1072 C1076 1.368 . S
C1073 C1054 1.429 . S
C1073 C1067 1.429 . S
C1073 C1074 1.523 . S
C1074 C1055 1.368 . S
C1074 C1068 1.368 . S
C1074 C1073 1.523 . S
C1075 C1059 1.429 . S
C1075 C1071 1.429 . S
C1075 C1076 1.523 . S
C1076 C1060 1.368 . S
C1076 C1072 1.368 . S
C1076 C1075 1.523 . S
H1077 C1052 0.950 . S
H1078 C1054 0.950 . S
H1079 C1055 0.949 . S
H1080 C1057 0.950 . S
H1081 C1059 0.950 . S
C1082 C1083 1.349 . S
C1082 C1084 1.327 . S
C1082 H1107 0.950 . S
C1083 C1082 1.349 . S
C1083 C1099 1.349 . S
C1084 C1082 1.327 . S
C1084 C1103 1.429 . S
C1084 H1108 0.950 . S
C1085 C1102 1.574 . S
C1085 C1104 1.368 . S
C1085 H1109 0.949 . S
H1086 C1090 0.949 . S
C1087 C1088 1.349 . S
C1087 C1089 1.327 . S
C1087 H1110 0.950 . S
C1088 C1087 1.349 . S
C1088 C1100 1.349 . S
C1089 C1087 1.327 . S
C1089 C1105 1.429 . S
C1089 H1111 0.950 . S
C1090 H1086 0.949 . S
C1090 C1098 1.574 . S
C1090 C1106 1.368 . S
H1091 C1099 0.950 . S
H1092 C1097 0.950 . S
H1093 C1098 0.949 . S
H1094 C1100 0.950 . S
H1095 C1101 0.950 . S
H1096 C1102 0.949 . S
C1097 H1092 0.950 . S
C1097 C1099 1.327 . S
C1097 C1103 1.429 . S
C1098 C1090 1.574 . S
C1098 H1093 0.949 . S
C1098 C1104 1.368 . S
C1099 C1083 1.349 . S
C1099 H1091 0.950 . S
C1099 C1097 1.327 . S
C1100 C1088 1.349 . S
C1100 H1094 0.950 . S
C1100 C1101 1.327 . S
C1101 H1095 0.950 . S
C1101 C1100 1.327 . S
C1101 C1105 1.429 . S
C1102 C1085 1.574 . S
C1102 H1096 0.949 . S
C1102 C1106 1.368 . S
C1103 C1084 1.429 . S
C1103 C1097 1.429 . S
C1103 C1104 1.523 . S
C1104 C1085 1.368 . S
C1104 C1098 1.368 . S
C1104 C1103 1.523 . S
C1105 C1089 1.429 . S
C1105 C1101 1.429 . S
C1105 C1106 1.523 . S
C1106 C1090 1.368 . S
C1106 C1102 1.368 . S
C1106 C1105 1.523 . S
H1107 C1082 0.950 . S
H1108 C1084 0.950 . S
H1109 C1085 0.949 . S
H1110 C1087 0.950 . S
H1111 C1089 0.950 . S
C393 C255 1.468 . S
C398 C313 1.482 . S
C428 C348 2.235 . S
C423 C294 2.121 . S
C458 C353 1.335 . S
C453 C177 1.332 . S
C488 C373 1.865 . S
C483 C216 1.770 . S
C518 C321 1.482 . S
C513 C99 1.472 1_545 S
C543 C138 2.098 . S
C548 C338 2.234 . S
C573 C21 1.325 1_556 S
C578 C361 1.335 . S
C603 C60 1.790 . S
C608 C381 1.864 . S
C638 C331 1.165 . S
C633 C196 1.099 . S
C668 C340 0.438 1_545 S
C663 C235 0.420 . S
C698 C371 1.371 . S
C693 C289 1.291 . S
C723 C157 0.664 . S
C728 C391 0.666 . S
C753 C40 1.106 . S
C758 C320 1.165 . S
C788 C351 0.437 . S
C783 C79 0.419 . S
C818 C360 1.371 . S
C813 C133 1.296 . S
C843 C1 0.666 . S
C848 C380 0.667 . S
C873 C211 2.087 . S
C878 C318 2.206 . S
C903 C250 1.609 . S
C908 C341 1.732 . S
C938 C358 2.339 . S
C933 C274 2.184 . S
C968 C378 2.024 . S
C963 C172 1.911 . S
C993 C55 2.082 . S
C998 C328 2.207 . S
C1028 C333 1.732 . S
C1023 C94 1.610 . S
C1058 C368 2.339 . S
C1053 C118 2.174 . S
C1083 C16 1.913 . S
C1088 C388 2.024 . S
