# Generated by pormake.
# Topology pyr, (3,6)-cn, num edge types: 1
# Building blocks:
#     Node 0, Type 0, BuildingBlock: QEWDON_clean_linker_0, # of connection points: 3
#     Node 1, Type 0, BuildingBlock: QEWDON_clean_linker_0, # of connection points: 3
#     Node 2, Type 0, BuildingBlock: QEWDON_clean_linker_0, # of connection points: 3
#     Node 3, Type 0, BuildingBlock: QEWDON_clean_linker_0, # of connection points: 3
#     Node 4, Type 0, BuildingBlock: QEWDON_clean_linker_0, # of connection points: 3
#     Node 5, Type 0, BuildingBlock: QEWDON_clean_linker_0, # of connection points: 3
#     Node 6, Type 0, BuildingBlock: QEWDON_clean_linker_0, # of connection points: 3
#     Node 7, Type 0, BuildingBlock: QEWDON_clean_linker_0, # of connection points: 3
#     Node 8, Type 1, BuildingBlock: BETDAH_clean_sbu_0, # of connection points: 6
#     Node 9, Type 1, BuildingBlock: BETDAH_clean_sbu_0, # of connection points: 6
#     Node 10, Type 1, BuildingBlock: BETDAH_clean_sbu_0, # of connection points: 6
#     Node 11, Type 1, BuildingBlock: BETDAH_clean_sbu_0, # of connection points: 6
#     Edge 12, Type (0, 1), BuildingBlock: XUDNAN_clean_linker_2, # of connection points: 2
#     Edge 13, Type (0, 1), BuildingBlock: XUDNAN_clean_linker_2, # of connection points: 2
#     Edge 14, Type (0, 1), BuildingBlock: XUDNAN_clean_linker_2, # of connection points: 2
#     Edge 15, Type (0, 1), BuildingBlock: XUDNAN_clean_linker_2, # of connection points: 2
#     Edge 16, Type (0, 1), BuildingBlock: XUDNAN_clean_linker_2, # of connection points: 2
#     Edge 17, Type (0, 1), BuildingBlock: XUDNAN_clean_linker_2, # of connection points: 2
#     Edge 18, Type (0, 1), BuildingBlock: XUDNAN_clean_linker_2, # of connection points: 2
#     Edge 19, Type (0, 1), BuildingBlock: XUDNAN_clean_linker_2, # of connection points: 2
#     Edge 20, Type (0, 1), BuildingBlock: XUDNAN_clean_linker_2, # of connection points: 2
#     Edge 21, Type (0, 1), BuildingBlock: XUDNAN_clean_linker_2, # of connection points: 2
#     Edge 22, Type (0, 1), BuildingBlock: XUDNAN_clean_linker_2, # of connection points: 2
#     Edge 23, Type (0, 1), BuildingBlock: XUDNAN_clean_linker_2, # of connection points: 2
#     Edge 24, Type (0, 1), BuildingBlock: XUDNAN_clean_linker_2, # of connection points: 2
#     Edge 25, Type (0, 1), BuildingBlock: XUDNAN_clean_linker_2, # of connection points: 2
#     Edge 26, Type (0, 1), BuildingBlock: XUDNAN_clean_linker_2, # of connection points: 2
#     Edge 27, Type (0, 1), BuildingBlock: XUDNAN_clean_linker_2, # of connection points: 2
#     Edge 28, Type (0, 1), BuildingBlock: XUDNAN_clean_linker_2, # of connection points: 2
#     Edge 29, Type (0, 1), BuildingBlock: XUDNAN_clean_linker_2, # of connection points: 2
#     Edge 30, Type (0, 1), BuildingBlock: XUDNAN_clean_linker_2, # of connection points: 2
#     Edge 31, Type (0, 1), BuildingBlock: XUDNAN_clean_linker_2, # of connection points: 2
#     Edge 32, Type (0, 1), BuildingBlock: XUDNAN_clean_linker_2, # of connection points: 2
#     Edge 33, Type (0, 1), BuildingBlock: XUDNAN_clean_linker_2, # of connection points: 2
#     Edge 34, Type (0, 1), BuildingBlock: XUDNAN_clean_linker_2, # of connection points: 2
#     Edge 35, Type (0, 1), BuildingBlock: XUDNAN_clean_linker_2, # of connection points: 2
# Relax obj value: 0.170
# Max RMSD: 0.266
# Mean RMSD: 0.196
data_MOF--net-pyr--node1-BETDAH_clean_sbu_0--node2-QEWDON_clean_linker_0--edge1-XUDNAN_clean_linker_2
_symmetry_space_group_name_H-M    P1
_symmetry_Int_Tables_number       1
_symmetry_cell_setting            triclinic
loop_
_symmetry_equiv_pos_as_xyz
'x, y, z'
_cell_length_a     38.070906
_cell_length_b     41.904056
_cell_length_c     40.064854
_cell_angle_alpha  91.772339
_cell_angle_beta   89.65024
_cell_angle_gamma 108.83826
loop_
_atom_site_label
_atom_site_type_symbol
_atom_site_fract_x
_atom_site_fract_y
_atom_site_fract_z
_atom_type_partial_charge
H0 H 0.42496 0.32511 0.18559 0.0
C1 C 0.40141 0.31155 0.2006 0.0
C2 C 0.39464 0.2771 0.20585 0.0
C3 C 0.37769 0.32833 0.21418 0.0
H4 H 0.3594 0.23308 0.22974 0.0
C5 C 0.36378 0.25933 0.22465 0.0
C6 C 0.33959 0.27538 0.23822 0.0
C7 C 0.3468 0.30991 0.23295 0.0
C8 C 0.38569 0.36518 0.20961 0.0
H9 H 0.32852 0.3225 0.24386 0.0
C10 C 0.35665 0.37878 0.20541 0.0
C11 C 0.36412 0.41377 0.20258 0.0
C12 C 0.42251 0.3872 0.21039 0.0
H13 H 0.44551 0.37783 0.21422 0.0
C14 C 0.4301 0.42181 0.20701 0.0
H15 H 0.32815 0.36221 0.20472 0.0
C16 C 0.4012 0.43508 0.20321 0.0
H17 H 0.40792 0.46203 0.20057 0.0
H18 H 0.45854 0.43848 0.20763 0.0
H19 H 0.22676 0.89135 0.7273 0.0
C20 C 0.24524 0.87942 0.71558 0.0
C21 C 0.28094 0.88548 0.72882 0.0
C22 C 0.23298 0.8578 0.68751 0.0
H23 H 0.33238 0.8748 0.72317 0.0
C24 C 0.30433 0.86931 0.71382 0.0
C25 C 0.29236 0.84715 0.68607 0.0
C26 C 0.25656 0.84149 0.67313 0.0
C27 C 0.19627 0.85369 0.67229 0.0
H28 H 0.24718 0.82471 0.65155 0.0
C29 C 0.18494 0.88209 0.6682 0.0
C30 C 0.15101 0.87909 0.6527 0.0
C31 C 0.17295 0.82191 0.66084 0.0
H32 H 0.18082 0.79953 0.66389 0.0
C33 C 0.13908 0.81875 0.64547 0.0
H34 H 0.20322 0.90686 0.67601 0.0
C35 C 0.12817 0.84717 0.64123 0.0
H36 H 0.10185 0.84422 0.6292 0.0
H37 H 0.12126 0.79418 0.63674 0.0
H38 H 0.71479 0.44817 0.89776 0.0
C39 C 0.7056 0.42236 0.90578 0.0
C40 C 0.72535 0.41235 0.93162 0.0
C41 C 0.67312 0.39957 0.8909 0.0
H42 H 0.72541 0.37032 0.9622 0.0
C43 C 0.71153 0.37838 0.94222 0.0
C44 C 0.67985 0.35455 0.92722 0.0
C45 C 0.6617 0.36561 0.90139 0.0
C46 C 0.64711 0.41093 0.86853 0.0
H47 H 0.63725 0.34758 0.89003 0.0
C48 C 0.65769 0.43276 0.8404 0.0
C49 C 0.62988 0.43958 0.81999 0.0
C50 C 0.60905 0.3984 0.87626 0.0
H51 H 0.59951 0.38301 0.89782 0.0
C52 C 0.58239 0.40534 0.8569 0.0
H53 H 0.68671 0.44339 0.83398 0.0
C54 C 0.59252 0.42526 0.82914 0.0
H55 H 0.57069 0.4302 0.81509 0.0
H56 H 0.55339 0.39515 0.86358 0.0
H57 H 0.93189 0.80701 0.38764 0.0
C58 C 0.9086 0.78893 0.39967 0.0
C59 C 0.89482 0.79874 0.42981 0.0
C60 C 0.89121 0.75743 0.38315 0.0
H61 H 0.8517 0.78341 0.46658 0.0
C62 C 0.86348 0.77543 0.44446 0.0
C63 C 0.84518 0.74338 0.429 0.0
C64 C 0.85994 0.73466 0.39849 0.0
C65 C 0.90019 0.75316 0.34664 0.0
H66 H 0.84599 0.7109 0.38557 0.0
C67 C 0.91155 0.72622 0.33229 0.0
C68 C 0.92124 0.72596 0.2975 0.0
C69 C 0.8974 0.77836 0.32544 0.0
H70 H 0.88832 0.79884 0.33508 0.0
C71 C 0.90585 0.77772 0.2917 0.0
H72 H 0.9138 0.70644 0.34804 0.0
C73 C 0.91763 0.75207 0.27794 0.0
H74 H 0.92327 0.75246 0.2514 0.0
H75 H 0.90318 0.79736 0.27597 0.0
H76 H 0.70791 0.7806 0.94492 0.0
C77 C 0.72284 0.79174 0.92279 0.0
C78 C 0.75719 0.78752 0.91502 0.0
C79 C 0.70759 0.81025 0.90192 0.0
H80 H 0.8025 0.79918 0.87993 0.0
C81 C 0.7756 0.80154 0.8858 0.0
C82 C 0.7604 0.81967 0.86456 0.0
C83 C 0.72663 0.82447 0.87307 0.0
C84 C 0.67077 0.8134 0.9091 0.0
H85 H 0.71452 0.83828 0.85671 0.0
C86 C 0.66719 0.84488 0.91812 0.0
C87 C 0.6318 0.84839 0.92297 0.0
C88 C 0.63898 0.78507 0.90536 0.0
H89 H 0.64131 0.76066 0.89831 0.0
C90 C 0.60389 0.78825 0.9097 0.0
H91 H 0.69213 0.86631 0.92181 0.0
C92 C 0.60022 0.81961 0.91812 0.0
H93 H 0.57249 0.82118 0.92042 0.0
H94 H 0.57938 0.76639 0.90618 0.0
H95 H 0.77015 0.18619 0.53887 0.0
C96 C 0.76401 0.19165 0.51374 0.0
C97 C 0.78818 0.19029 0.48747 0.0
C98 C 0.73131 0.19929 0.50776 0.0
H99 H 0.79816 0.19733 0.43473 0.0
C100 C 0.77928 0.19717 0.45511 0.0
C101 C 0.74563 0.20269 0.44828 0.0
C102 C 0.72216 0.20462 0.4749 0.0
C103 C 0.70613 0.20054 0.53578 0.0
H104 H 0.69593 0.20856 0.46996 0.0
C105 C 0.69203 0.22759 0.53936 0.0
C106 C 0.66938 0.22972 0.56665 0.0
C107 C 0.69681 0.17519 0.55955 0.0
H108 H 0.70697 0.15389 0.55719 0.0
C109 C 0.67402 0.17699 0.58648 0.0
H110 H 0.6998 0.24759 0.52152 0.0
C111 C 0.66048 0.20413 0.59015 0.0
H112 H 0.6428 0.20497 0.61122 0.0
H113 H 0.66691 0.15732 0.60462 0.0
H114 H 0.4478 0.81033 0.2454 0.0
C115 C 0.42154 0.79378 0.23559 0.0
C116 C 0.403 0.80597 0.2108 0.0
C117 C 0.40815 0.76015 0.24671 0.0
H118 H 0.35576 0.79195 0.17741 0.0
C119 C 0.36977 0.78322 0.19682 0.0
C120 C 0.35481 0.74932 0.20753 0.0
C121 C 0.37439 0.73864 0.23295 0.0
C122 C 0.43425 0.7461 0.26567 0.0
H123 H 0.3643 0.71295 0.24127 0.0
C124 C 0.4275 0.73046 0.29773 0.0
C125 C 0.45467 0.71791 0.31282 0.0
C126 C 0.46792 0.74859 0.2497 0.0
H127 H 0.47405 0.75984 0.22545 0.0
C128 C 0.49413 0.73665 0.26417 0.0
H129 H 0.4018 0.72821 0.31064 0.0
C130 C 0.48777 0.72174 0.29512 0.0
H131 H 0.50963 0.71374 0.30556 0.0
H132 H 0.51992 0.73916 0.25128 0.0
H133 H 0.25144 0.46943 0.75897 0.0
C134 C 0.23647 0.44688 0.74464 0.0
C135 C 0.24919 0.44077 0.71242 0.0
C136 C 0.20628 0.42282 0.76016 0.0
H137 H 0.2367 0.40601 0.67007 0.0
C138 C 0.22952 0.41007 0.6956 0.0
C139 C 0.20135 0.38399 0.71115 0.0
C140 C 0.18961 0.39107 0.74344 0.0
C141 C 0.19958 0.42738 0.79693 0.0
H142 H 0.16898 0.37137 0.75645 0.0
C143 C 0.17971 0.44853 0.81066 0.0
C144 C 0.17757 0.45341 0.84612 0.0
C145 C 0.21628 0.41123 0.81902 0.0
H146 H 0.23164 0.39519 0.80949 0.0
C147 C 0.21432 0.41604 0.85345 0.0
H148 H 0.16647 0.46114 0.79409 0.0
C149 C 0.19547 0.43695 0.86682 0.0
H150 H 0.19422 0.43972 0.89375 0.0
H151 H 0.22762 0.40346 0.86998 0.0
Ho152 Ho 0.05434 0.10558 0.53733 0.0
Ho153 Ho 0.02484 0.07848 0.60571 0.0
C154 C 0.07676 0.15608 0.60382 0.0
C155 C 0.07031 0.13657 0.48162 0.0
C156 C 0.10288 0.15253 0.46086 0.0
C157 C 0.10481 0.1818 0.44386 0.0
C158 C 0.132 0.19405 0.4196 0.0
C159 C 0.15723 0.17683 0.41177 0.0
C160 C 0.15657 0.14865 0.43011 0.0
C161 C 0.12979 0.13672 0.45466 0.0
C162 C 0.0961 0.07515 0.5697 0.0
C163 C 1.0002 0.02896 0.53867 0.0
C164 C 1.00783 0.04481 0.65973 0.0
C165 C 0.97834 1.01504 0.67178 0.0
C166 C 0.98804 0.98821 0.68452 0.0
C167 C 0.96102 0.96081 0.6983 0.0
C168 C 0.9238 0.95987 0.69982 0.0
C169 C 0.91396 0.98637 0.68633 0.0
C170 C 0.94094 1.01367 0.67233 0.0
C171 C 0.98312 0.10859 0.57247 0.0
O172 O 0.07246 0.15318 0.57083 0.0
O173 O 0.06507 0.12927 0.6228 0.0
O174 O 0.06135 0.10394 0.48418 0.0
O175 O 0.06685 0.15189 0.50978 0.0
O176 O 0.09373 0.07525 0.53749 0.0
O177 O 0.07953 0.09394 0.58244 0.0
O178 O 1.00554 0.03037 0.5716 0.0
O179 O 1.01045 0.05708 0.52167 0.0
O180 O 0.99861 0.07162 0.65398 0.0
O181 O 0.03025 0.03915 0.63714 0.0
O182 O 0.98533 0.10903 0.60473 0.0
O183 O 0.99974 0.08968 0.56028 0.0
H184 H 0.08424 0.19428 0.44824 0.0
H185 H 0.13198 0.21579 0.40565 0.0
H186 H 0.17605 0.13522 0.42468 0.0
H187 H 0.1291 0.11424 0.46765 0.0
H188 H 0.01671 0.98879 0.68447 0.0
H189 H 0.96951 0.94094 0.70884 0.0
H190 H 0.88542 0.98612 0.68689 0.0
H191 H 0.93256 0.0339 0.66249 0.0
Ho192 Ho 0.57647 0.08854 0.08724 0.0
Ho193 Ho 0.51053 0.07203 0.05068 0.0
C194 C 0.52053 0.12342 0.1135 0.0
C195 C 0.64154 0.10721 0.11493 0.0
C196 C 0.6552 0.12287 0.14805 0.0
C197 C 0.66749 0.15816 0.15297 0.0
C198 C 0.67773 0.17273 0.1848 0.0
C199 C 0.67612 0.15236 0.21236 0.0
C200 C 0.66469 0.11713 0.20724 0.0
C201 C 0.65454 0.10258 0.17547 0.0
C202 C 0.52141 0.03628 0.11556 0.0
C203 C 0.56808 0.03943 0.02329 0.0
C204 C 0.44355 0.05431 0.02663 0.0
C205 C 0.42478 0.03856 0.99562 0.0
C206 C 0.44261 0.0238 0.97198 0.0
C207 C 0.42479 1.01014 0.94192 0.0
C208 C 0.38902 1.01128 0.93503 0.0
C209 C 0.37125 0.02586 0.95902 0.0
C210 C 0.38902 0.03938 0.98908 0.0
C211 C 0.56513 0.12415 0.02225 0.0
O212 O 0.55604 0.12745 0.11154 0.0
O213 O 0.49651 0.09884 0.09616 0.0
O214 O 0.61893 0.07627 0.11474 0.0
O215 O 0.63086 0.12574 0.09427 0.0
O216 O 0.54288 0.06282 0.13131 0.0
O217 O 0.52897 0.03945 0.08468 0.0
O218 O 0.53222 0.0339 0.02581 0.0
O219 O 0.59164 0.06411 0.04084 0.0
O220 O 0.46765 0.08427 0.02386 0.0
O221 O 0.45563 0.03528 0.04552 0.0
O222 O 0.5433 0.09784 1.00637 0.0
O223 O 0.55787 0.12101 0.05322 0.0
H224 H 0.66871 0.17456 0.13231 0.0
H225 H 0.68698 0.19996 0.18782 0.0
H226 H 0.66272 0.10065 0.22796 0.0
H227 H 0.64542 0.07534 0.17257 0.0
H228 H 0.4704 0.02322 0.97662 0.0
H229 H 0.4393 0.99936 0.92378 0.0
H230 H 0.34353 0.02671 0.95462 0.0
H231 H 0.37495 0.05074 1.00711 0.0
Ho232 Ho 0.54399 0.56199 0.55258 0.0
Ho233 Ho 0.55415 0.62244 0.59358 0.0
C234 C 0.58114 0.56602 0.62799 0.0
C235 C 0.55726 0.51339 0.51921 0.0
C236 C 0.56426 0.48226 0.52802 0.0
C237 C 0.58501 0.46859 0.50636 0.0
C238 C 0.59469 0.44063 0.51553 0.0
C239 C 0.58369 0.4258 0.54657 0.0
C240 C 0.56233 0.43937 0.56802 0.0
C241 C 0.55284 0.46747 0.55888 0.0
C242 C 0.48214 0.55789 0.58903 0.0
C243 C 0.51485 0.61747 0.52005 0.0
C244 C 0.54595 0.67285 0.62814 0.0
C245 C 0.52046 0.69259 0.62747 0.0
C246 C 0.48837 0.68194 0.60753 0.0
C247 C 0.46385 0.70054 0.60765 0.0
C248 C 0.47086 0.72985 0.62803 0.0
C249 C 0.50316 0.7405 0.64784 0.0
C250 C 0.52784 0.72202 0.64746 0.0
C251 C 0.61486 0.62594 0.5553 0.0
O252 O 0.57077 0.54856 0.59942 0.0
O253 O 0.57729 0.59615 0.63206 0.0
O254 O 0.52378 0.51455 0.52467 0.0
O255 O 0.5831 0.54121 0.52871 0.0
O256 O 0.48197 0.54517 0.55905 0.0
O257 O 0.51551 0.57058 0.59905 0.0
O258 O 0.51678 0.62925 0.55141 0.0
O259 O 0.52817 0.59256 0.51275 0.0
O260 O 0.56854 0.67634 0.6029 0.0
O261 O 0.5311 0.6414 0.63616 0.0
O262 O 0.6163 0.63656 0.58618 0.0
O263 O 0.58112 0.61419 0.54643 0.0
H264 H 0.59446 0.48002 0.48265 0.0
H265 H 0.6117 0.43128 0.49865 0.0
H266 H 0.55302 0.42837 0.59192 0.0
H267 H 0.53706 0.47792 0.57608 0.0
H268 H 0.482 0.65901 0.59228 0.0
H269 H 0.43893 0.69152 0.59248 0.0
H270 H 0.50937 0.76314 0.66357 0.0
H271 H 0.55252 0.73054 0.663 0.0
Ho272 Ho 0.0349 0.54881 0.08746 0.0
Ho273 Ho 0.041 0.6112 0.05783 0.0
C274 C 0.11148 0.61357 0.10046 0.0
C275 C 0.04818 0.49547 0.1071 0.0
C276 C 0.08061 0.48871 0.12179 0.0
C277 C 0.10294 0.47523 0.10151 0.0
C278 C 0.13446 0.46993 0.11457 0.0
C279 C 0.14427 0.47765 0.14835 0.0
C280 C 0.12148 0.49048 0.16883 0.0
C281 C 0.09 0.49595 0.15572 0.0
C282 C 1.00093 0.58538 0.1258 0.0
C283 C 0.96447 0.54727 0.04526 0.0
C284 C 0.0295 0.66503 0.03718 0.0
C285 C 0.99674 0.67484 0.02907 0.0
C286 C 0.9672 0.65363 1.00977 0.0
C287 C 0.93608 0.66333 1.0032 0.0
C288 C 0.93385 0.69425 0.01605 0.0
C289 C 0.96343 0.71527 0.03547 0.0
C290 C 0.99456 0.70566 0.04185 0.0
C291 C 0.0717 0.5715 0.01933 0.0
O292 O 0.09515 0.58035 0.10015 0.0
O293 O 0.09435 0.6328 0.08702 0.0
O294 O 0.03143 0.51232 0.12558 0.0
O295 O 0.05189 0.50519 0.07626 0.0
O296 O 0.98802 0.55309 0.11963 0.0
O297 O 0.03202 0.59715 0.11107 0.0
O298 O 0.97976 0.58058 0.0482 0.0
O299 O 0.98288 0.52779 0.05611 0.0
O300 O 0.03707 0.6429 0.01727 0.0
O301 O 0.03328 0.65943 0.06856 0.0
O302 O 0.08714 0.60369 0.02496 0.0
O303 O 0.04106 0.56239 0.03459 0.0
H304 H 0.09632 0.46921 0.07532 0.0
H305 H 0.15158 0.46042 0.09794 0.0
H306 H 0.12783 0.49616 0.19509 0.0
H307 H 0.07322 0.50604 0.17216 0.0
H308 H 0.96804 0.62955 0.99987 0.0
H309 H 0.91359 0.64649 0.98839 0.0
H310 H 0.96278 0.73944 0.04532 0.0
H311 H 0.01699 0.72232 0.05687 0.0
H312 H 0.31335 0.29632 0.29632 0.0
H313 H 0.29375 0.21053 0.22696 0.0
H314 H 0.2448 0.17643 0.26379 0.0
H315 H 0.30054 0.25176 0.37061 0.0
H316 H 0.2765 0.27674 0.3924 0.0
H317 H 0.3092 0.29515 0.36011 0.0
H318 H 0.25867 0.31168 0.32863 0.0
H319 H 0.22587 0.29366 0.36104 0.0
H320 H 0.2152 0.27973 0.31817 0.0
H321 H 0.20165 0.15049 0.30967 0.0
H322 H 0.16238 0.13556 0.35984 0.0
H323 H 0.20675 0.23887 0.39781 0.0
C324 C 0.29827 0.2706 0.28846 0.0
C325 C 0.3077 0.25604 0.25885 0.0
C326 C 0.28757 0.22208 0.24983 0.0
C327 C 0.25956 0.20254 0.27047 0.0
C328 C 0.25158 0.21746 0.29979 0.0
C329 C 0.26987 0.25083 0.30857 0.0
C330 C 0.25601 0.26056 0.34163 0.0
C331 C 0.28744 0.2717 0.36772 0.0
C332 C 0.23785 0.28803 0.33708 0.0
C333 C 0.22751 0.22726 0.35028 0.0
C334 C 0.22558 0.20272 0.32584 0.0
C335 C 0.20257 0.16954 0.32881 0.0
C336 C 0.18062 0.16126 0.35742 0.0
C337 C 0.18168 0.18611 0.38248 0.0
C338 C 0.20532 0.21954 0.3788 0.0
H339 H 0.3221 0.87846 0.78254 0.0
H340 H 0.26979 0.94632 0.74066 0.0
H341 H 0.29147 0.98568 0.78896 0.0
H342 H 0.30249 0.89187 0.86832 0.0
H343 H 0.34639 0.89031 0.88342 0.0
H344 H 0.32642 0.86729 0.84569 0.0
H345 H 0.38651 0.89785 0.81343 0.0
H346 H 0.40668 0.92096 0.85107 0.0
H347 H 0.40367 0.94331 0.81403 0.0
H348 H 0.3188 0.01761 0.84169 0.0
H349 H 0.3504 0.0402 0.89513 0.0
H350 H 0.38573 0.95195 0.90207 0.0
C351 C 0.31544 0.90172 0.78335 0.0
C352 C 0.29408 0.90921 0.75785 0.0
C353 C 0.28558 0.93975 0.76014 0.0
C354 C 0.29798 0.96238 0.78736 0.0
C355 C 0.31896 0.95418 0.81201 0.0
C356 C 0.3277 0.92464 0.81024 0.0
C357 C 0.35075 0.92188 0.84002 0.0
C358 C 0.33027 0.89101 0.86057 0.0
C359 C 0.38918 0.92096 0.82897 0.0
C360 C 0.35356 0.95449 0.85883 0.0
C361 C 0.33499 0.97273 0.84227 0.0
C362 C 0.3334 1.00356 0.85491 0.0
C363 C 0.35124 1.01607 0.88535 0.0
C364 C 0.37044 0.9978 0.90276 0.0
C365 C 0.37161 0.96665 0.88916 0.0
H366 H 0.59731 0.42546 0.75708 0.0
H367 H 0.67515 0.50603 0.81525 0.0
H368 H 0.67349 0.54635 0.77159 0.0
H369 H 0.63211 0.45663 0.67253 0.0
H370 H 0.5859 0.44324 0.65511 0.0
H371 H 0.59688 0.42058 0.68887 0.0
H372 H 0.54255 0.4294 0.72282 0.0
H373 H 0.53205 0.4525 0.68926 0.0
H374 H 0.54116 0.47159 0.73059 0.0
H375 H 0.65613 0.57962 0.7241 0.0
H376 H 0.63116 0.60097 0.67588 0.0
H377 H 0.56638 0.49861 0.64631 0.0
C378 C 0.61505 0.45141 0.7602 0.0
C379 C 0.63698 0.46218 0.78986 0.0
C380 C 0.6589 0.49665 0.79282 0.0
C381 C 0.6577 0.5199 0.76813 0.0
C382 C 0.63471 0.50857 0.73999 0.0
C383 C 0.61435 0.47486 0.73562 0.0
C384 C 0.59071 0.4692 0.70384 0.0
C385 C 0.60212 0.44603 0.6786 0.0
C386 C 0.54916 0.45482 0.71214 0.0
C387 C 0.60045 0.50496 0.69101 0.0
C388 C 0.62569 0.52736 0.71243 0.0
C389 C 0.63694 0.56203 0.70705 0.0
C390 C 0.62241 0.57402 0.67943 0.0
C391 C 0.59702 0.55175 0.65657 0.0
C392 C 0.58624 0.51653 0.66263 0.0
H393 H 0.97626 0.73404 0.24942 0.0
H394 H 0.89409 0.65644 0.30333 0.0
H395 H 0.90708 0.61281 0.26664 0.0
H396 H 0.95364 0.69625 0.16871 0.0
H397 H 1.00065 0.70893 0.15354 0.0
H398 H 0.98764 0.73381 0.18579 0.0
H399 H 0.03962 0.72828 0.22417 0.0
H400 H 0.05307 0.70364 0.19192 0.0
H401 H 0.04161 0.68696 0.23297 0.0
H402 H 0.92476 0.57772 0.21977 0.0
H403 H 0.94882 0.55389 0.17128 0.0
H404 H 0.02071 0.65391 0.14701 0.0
C405 C 0.9612 0.70783 0.25394 0.0
C406 C 0.93387 0.69898 0.27969 0.0
C407 C 0.91535 0.66421 0.28443 0.0
C408 C 0.92237 0.63919 0.26333 0.0
C409 C 0.94834 0.64901 0.23751 0.0
C410 C 0.96787 0.68257 0.23307 0.0
C411 C 0.99359 0.68662 0.20289 0.0
C412 C 0.98326 0.70765 0.17616 0.0
C413 C 0.0344 0.70231 0.21363 0.0
C414 C 0.98537 0.65008 0.19066 0.0
C415 C 0.95902 0.62887 0.211 0.0
C416 C 0.94568 0.59421 0.2041 0.0
C417 C 0.95959 0.58087 0.1762 0.0
C418 C 0.98709 0.60172 0.15505 0.0
C419 C 1.00008 0.63702 0.16264 0.0
H420 H 0.37648 0.21557 0.17313 0.0
H421 H 0.47048 0.29874 0.20992 0.0
H422 H 0.51281 0.26734 0.19229 0.0
H423 H 0.40912 0.14885 0.19823 0.0
H424 H 0.39166 0.12249 0.16164 0.0
H425 H 0.36882 0.15163 0.17669 0.0
H426 H 0.37661 0.17902 0.11881 0.0
H427 H 0.39907 0.14971 0.10348 0.0
H428 H 0.42216 0.19445 0.10055 0.0
H429 H 0.54441 0.22606 0.17235 0.0
H430 H 0.56401 0.18037 0.14663 0.0
H431 H 0.44915 0.12432 0.12224 0.0
C432 C 0.406 0.22716 0.17742 0.0
C433 C 0.42029 0.25954 0.19292 0.0
C434 C 0.45906 0.27409 0.1978 0.0
C435 C 0.48323 0.25635 0.18814 0.0
C436 C 0.46813 0.22421 0.17348 0.0
C437 C 0.43047 0.20992 0.16777 0.0
C438 C 0.42138 0.1753 0.151 0.0
C439 C 0.39626 0.14796 0.17323 0.0
C440 C 0.40378 0.1746 0.11641 0.0
C441 C 0.45985 0.1723 0.14817 0.0
C442 C 0.48638 0.20065 0.16154 0.0
C443 C 0.52391 0.20378 0.16173 0.0
C444 C 0.53472 0.17758 0.14716 0.0
C445 C 0.50812 0.14871 0.13239 0.0
C446 C 0.47015 0.14595 0.1334 0.0
H447 H 0.12581 0.89797 0.59516 0.0
H448 H 0.15362 0.92947 0.69849 0.0
H449 H 0.14164 0.98302 0.68875 0.0
H450 H 0.16911 0.97678 0.56052 0.0
H451 H 0.13435 0.97277 0.52888 0.0
H452 H 0.14173 0.93562 0.54451 0.0
H453 H 0.0722 0.91151 0.56052 0.0
H454 H 0.0645 0.94844 0.54456 0.0
H455 H 0.05198 0.93651 0.58691 0.0
H456 H 0.12855 0.03374 0.6673 0.0
H457 H 0.11522 0.07823 0.63534 0.0
H458 H 0.09845 1.01434 0.5457 0.0
C459 C 0.1286 0.91586 0.61587 0.0
C460 C 0.14048 0.90965 0.6476 0.0
C461 C 0.14465 0.93391 0.67396 0.0
C462 C 0.13781 0.96428 0.6687 0.0
C463 C 0.1269 0.96997 0.63692 0.0
C464 C 0.12215 0.9464 0.61098 0.0
C465 C 0.11184 0.95936 0.57886 0.0
C466 C 0.14101 0.96125 0.5516 0.0
C467 C 0.07282 0.93767 0.56702 0.0
C468 C 0.11235 0.99415 0.59064 0.0
C469 C 0.12058 0.99962 0.62431 0.0
C470 C 0.12213 0.02978 0.64092 0.0
C471 C 0.1147 0.05488 0.62262 0.0
C472 C 0.10631 0.04969 0.58815 0.0
C473 C 0.10539 0.01907 0.57197 0.0
H474 H 0.78917 0.40229 0.95856 0.0
H475 H 0.73945 0.48077 0.9443 0.0
H476 H 0.79391 0.52237 0.97084 0.0
H477 H 0.82895 0.43346 0.04048 0.0
H478 H 0.87051 0.42252 0.03341 0.0
H479 H 0.8279 0.39858 1.01258 0.0
H480 H 0.86077 0.41034 0.95542 0.0
H481 H 0.90346 0.43434 0.97607 0.0
H482 H 0.8843 0.45329 0.94413 0.0
H483 H 0.85481 0.55668 0.99922 0.0
H484 H 0.91571 0.5799 0.02719 0.0
H485 H 0.92676 0.47999 0.02566 0.0
C486 C 0.78939 0.42813 0.96114 0.0
C487 C 0.75932 0.43772 0.94851 0.0
C488 C 0.76182 0.47224 0.95258 0.0
C489 C 0.79279 0.49628 0.96807 0.0
C490 C 0.82169 0.48597 0.97995 0.0
C491 C 0.82025 0.45266 0.9768 0.0
C492 C 0.85514 0.44832 0.99201 0.0
C493 C 0.84501 0.42429 0.02136 0.0
C494 C 0.87722 0.43583 0.96531 0.0
C495 C 0.87639 0.48434 1.00411 0.0
C496 C 0.85651 0.50563 0.9968 0.0
C497 C 0.87043 0.54008 1.00508 0.0
C498 C 0.90534 0.55314 0.02105 0.0
C499 C 0.9266 0.53208 0.02899 0.0
C500 C 0.91148 0.49701 0.02032 0.0
H501 H 0.82129 0.73384 0.49552 0.0
H502 H 0.78411 0.7022 0.39385 0.0
H503 H 0.7237 0.66723 0.4151 0.0
H504 H 0.77255 0.65436 0.53461 0.0
H505 H 0.76057 0.67426 0.5715 0.0
H506 H 0.80203 0.69554 0.54865 0.0
H507 H 0.77949 0.74711 0.54258 0.0
H508 H 0.73802 0.72601 0.56544 0.0
H509 H 0.73454 0.74122 0.52441 0.0
H510 H 0.66521 0.63657 0.44728 0.0
H511 H 0.61437 0.61401 0.48761 0.0
H512 H 0.68757 0.66607 0.56861 0.0
C513 C 0.80059 0.7196 0.47757 0.0
C514 C 0.80851 0.72082 0.4427 0.0
C515 C 0.77998 0.70138 0.42059 0.0
C516 C 0.74509 0.6815 0.43246 0.0
C517 C 0.73836 0.68102 0.46674 0.0
C518 C 0.76532 0.69961 0.48902 0.0
C519 C 0.75044 0.69539 0.52462 0.0
C520 C 0.77273 0.67891 0.54611 0.0
C521 C 0.75063 0.72946 0.54017 0.0
C522 C 0.7109 0.67177 0.51885 0.0
C523 C 0.70458 0.66369 0.48524 0.0
C524 C 0.67002 0.64271 0.47365 0.0
C525 C 0.6412 0.62992 0.49681 0.0
C526 C 0.6467 0.63803 0.53141 0.0
C527 C 0.68232 0.65912 0.54241 0.0
H528 H 0.30059 0.38936 0.16444 0.0
H529 H 0.35803 0.47073 0.23401 0.0
H530 H 0.30768 0.49539 0.22847 0.0
H531 H 0.2666 0.43874 0.11024 0.0
H532 H 0.22257 0.40646 0.10265 0.0
H533 H 0.26284 0.39485 0.11246 0.0
H534 H 0.22785 0.3602 0.162 0.0
H535 H 0.18742 0.37162 0.15227 0.0
H536 H 0.20753 0.38034 0.19352 0.0
H537 H 0.25177 0.5119 0.21445 0.0
H538 H 0.19429 0.51906 0.19289 0.0
H539 H 0.17211 0.42572 0.1342 0.0
C540 C 0.3024 0.41216 0.1788 0.0
C541 C 0.33337 0.42817 0.19957 0.0
C542 C 0.33488 0.45827 0.21755 0.0
C543 C 0.3063 0.47236 0.21475 0.0
C544 C 0.2763 0.45602 0.19395 0.0
C545 C 0.2741 0.42656 0.17633 0.0
C546 C 0.23906 0.41428 0.15535 0.0
C547 C 0.24834 0.41356 0.11797 0.0
C548 C 0.21398 0.37955 0.16646 0.0
C549 C 0.22201 0.44155 0.16381 0.0
C550 C 0.24389 0.46536 0.18614 0.0
C551 C 0.23424 0.49326 0.19716 0.0
C552 C 0.20138 0.49699 0.18492 0.0
C553 C 0.17848 0.4729 0.16194 0.0
C554 C 0.18907 0.44477 0.15148 0.0
H555 H 0.66431 0.32644 0.99134 0.0
H556 H 0.66184 0.29844 0.88604 0.0
H557 H 0.63524 0.23848 0.89966 0.0
H558 H 0.68662 0.25312 0.02257 0.0
H559 H 0.65684 0.2482 0.05851 0.0
H560 H 0.67744 0.28929 0.04128 0.0
H561 H 0.61236 0.29528 0.03492 0.0
H562 H 0.59159 0.25422 0.05212 0.0
H563 H 0.57692 0.26324 1.0118 0.0
H564 H 0.60758 0.18112 0.92364 0.0
H565 H 0.5792 0.13035 0.95603 0.0
H566 H 0.59646 0.19192 0.04737 0.0
C567 C 0.6586 0.30764 0.9712 0.0
C568 C 0.66553 0.31775 0.93733 0.0
C569 C 0.65687 0.29194 0.91199 0.0
C570 C 0.64175 0.25756 0.91955 0.0
C571 C 0.63485 0.24852 0.95282 0.0
C572 C 0.64286 0.27272 0.97837 0.0
C573 C 0.6312 0.25559 1.01189 0.0
C574 C 0.66504 0.26194 0.03493 0.0
C575 C 0.60124 0.26782 0.02868 0.0
C576 C 0.61542 0.21819 1.00111 0.0
C577 C 0.61815 0.21499 0.96682 0.0
C578 C 0.60539 0.18345 0.95049 0.0
C579 C 0.58918 0.15453 0.96928 0.0
C580 C 0.58529 0.1565 1.00448 0.0
C581 C 0.59903 0.18912 0.0206 0.0
H582 H 0.9155 0.82587 0.49513 0.0
H583 H 0.90724 0.85475 0.39309 0.0
H584 H 0.93125 0.91455 0.41077 0.0
H585 H 0.8896 0.89467 0.53561 0.0
H586 H 0.92229 0.90151 0.56957 0.0
H587 H 0.90373 0.86023 0.5498 0.0
H588 H 0.97034 0.85955 0.5373 0.0
H589 H 0.9887 0.90055 0.55758 0.0
H590 H 1.00196 0.89399 0.51531 0.0
H591 H 0.95542 0.97105 0.43805 0.0
H592 H 0.98137 0.02206 0.47291 0.0
H593 H 0.97781 0.96086 0.55934 0.0
C594 C 0.91871 0.84484 0.47658 0.0
C595 C 0.90963 0.83515 0.44239 0.0
C596 C 0.91441 0.86105 0.41914 0.0
C597 C 0.92789 0.8953 0.42903 0.0
C598 C 0.93688 0.90398 0.4625 0.0
C599 C 0.93279 0.8797 0.48607 0.0
C600 C 0.94564 0.89676 0.52033 0.0
C601 C 0.91339 0.88775 0.54531 0.0
C602 C 0.97863 0.88713 0.53339 0.0
C603 C 0.9575 0.93425 0.51213 0.0
C604 C 0.95178 0.9374 0.47854 0.0
C605 C 0.9601 0.96886 0.46438 0.0
C606 C 0.97498 0.99795 0.48468 0.0
C607 C 0.98197 0.99618 0.51928 0.0
C608 C 0.9728 0.96351 0.53317 0.0
H609 H 0.33945 0.82008 0.71754 0.0
H610 H 0.30252 0.83659 0.61915 0.0
H611 H 0.34439 0.80858 0.59337 0.0
H612 H 0.43564 0.83669 0.69555 0.0
H613 H 0.4415 0.80495 0.72229 0.0
H614 H 0.4082 0.82587 0.73288 0.0
H615 H 0.35625 0.76797 0.7353 0.0
H616 H 0.38937 0.74687 0.72473 0.0
H617 H 0.34819 0.73921 0.69961 0.0
H618 H 0.38985 0.77802 0.57845 0.0
H619 H 0.43617 0.748 0.57564 0.0
H620 H 0.4444 0.7535 0.68376 0.0
C621 C 0.34038 0.81814 0.69055 0.0
C622 C 0.31756 0.83043 0.67039 0.0
C623 C 0.31927 0.82688 0.63516 0.0
C624 C 0.34316 0.81124 0.62027 0.0
C625 C 0.36529 0.79948 0.64094 0.0
C626 C 0.36419 0.80286 0.67531 0.0
C627 C 0.39079 0.78815 0.69195 0.0
C628 C 0.42081 0.81555 0.71183 0.0
C629 C 0.36989 0.7588 0.7142 0.0
C630 C 0.40695 0.7758 0.66156 0.0
C631 C 0.39186 0.78249 0.63236 0.0
C632 C 0.40195 0.77274 0.60115 0.0
C633 C 0.42811 0.75562 0.59979 0.0
C634 C 0.44392 0.74863 0.62946 0.0
C635 C 0.4332 0.759 0.66065 0.0
H636 H 0.77621 0.88378 0.8417 0.0
H637 H 0.79034 0.78691 0.81835 0.0
H638 H 0.82897 0.81112 0.7698 0.0
H639 H 0.77454 0.91006 0.75397 0.0
H640 H 0.80034 0.95342 0.76449 0.0
H641 H 0.77006 0.92746 0.79488 0.0
H642 H 0.8249 0.94104 0.83678 0.0
H643 H 0.85531 0.9669 0.80656 0.0
H644 H 0.8668 0.93261 0.82457 0.0
H645 H 0.87094 0.84693 0.7276 0.0
H646 H 0.91339 0.89209 0.69444 0.0
H647 H 0.87216 0.96569 0.74528 0.0
C648 C 0.78665 0.86751 0.8258 0.0
C649 C 0.78027 0.83349 0.83362 0.0
C650 C 0.7951 0.81311 0.81279 0.0
C651 C 0.81685 0.82656 0.78509 0.0
C652 C 0.82336 0.86041 0.77847 0.0
C653 C 0.80857 0.8806 0.7981 0.0
C654 C 0.8222 0.91679 0.78711 0.0
C655 C 0.78985 0.92756 0.77435 0.0
C656 C 0.84357 0.94073 0.81544 0.0
C657 C 0.84776 0.91394 0.75889 0.0
C658 C 0.84771 0.88114 0.75406 0.0
C659 C 0.87087 0.87264 0.73082 0.0
C660 C 0.89501 0.89844 0.71227 0.0
C661 C 0.89587 0.93229 0.71717 0.0
C662 C 0.87151 0.93993 0.74047 0.0
H663 H 0.75311 0.16109 0.39716 0.0
H664 H 0.71028 0.24348 0.41991 0.0
H665 H 0.68942 0.2413 0.36108 0.0
H666 H 0.78741 0.18718 0.31451 0.0
H667 H 0.7748 0.1444 0.29816 0.0
H668 H 0.78689 0.15349 0.34162 0.0
H669 H 0.72393 0.11028 0.35832 0.0
H670 H 0.71156 0.10116 0.31496 0.0
H671 H 0.68139 0.11463 0.34284 0.0
H672 H 0.67195 0.22838 0.29946 0.0
H673 H 0.65837 0.20544 0.24159 0.0
H674 H 0.71539 0.13325 0.26044 0.0
C675 C 0.74002 0.17921 0.38976 0.0
C676 C 0.73375 0.20277 0.41305 0.0
C677 C 0.71535 0.22521 0.40247 0.0
C678 C 0.70361 0.22425 0.36911 0.0
C679 C 0.71051 0.20072 0.34681 0.0
C680 C 0.72835 0.17867 0.35681 0.0
C681 C 0.73169 0.1551 0.32857 0.0
C682 C 0.77263 0.16038 0.32023 0.0
C683 C 0.71089 0.11811 0.33667 0.0
C684 C 0.71263 0.16704 0.30099 0.0
C685 C 0.70066 0.19343 0.31181 0.0
C686 C 0.68147 0.20791 0.2907 0.0
C687 C 0.67408 0.19484 0.25782 0.0
C688 C 0.68581 0.16752 0.24645 0.0
C689 C 0.70568 0.15387 0.26839 0.0
H690 H 0.47509 0.66282 0.33134 0.0
H691 H 0.42983 0.73779 0.37315 0.0
H692 H 0.43735 0.71885 0.43007 0.0
H693 H 0.4359 0.5971 0.39296 0.0
H694 H 0.47674 0.58423 0.39297 0.0
H695 H 0.46408 0.60145 0.35598 0.0
H696 H 0.52906 0.64671 0.3554 0.0
H697 H 0.54182 0.62985 0.39251 0.0
H698 H 0.5452 0.67373 0.39183 0.0
H699 H 0.45611 0.69421 0.48409 0.0
H700 H 0.47991 0.66569 0.52741 0.0
H701 H 0.51405 0.60709 0.45035 0.0
C702 C 0.46614 0.67509 0.35234 0.0
C703 C 0.45164 0.70209 0.3471 0.0
C704 C 0.44038 0.7169 0.37582 0.0
C705 C 0.44498 0.70641 0.40848 0.0
C706 C 0.46075 0.68073 0.41256 0.0
C707 C 0.47071 0.66502 0.38503 0.0
C708 C 0.48835 0.63894 0.39583 0.0
C709 C 0.46486 0.60332 0.38371 0.0
C710 C 0.52848 0.64785 0.38313 0.0
C711 C 0.48741 0.64255 0.43382 0.0
C712 C 0.47127 0.66673 0.44304 0.0
C713 C 0.4684 0.6751 0.47681 0.0
C714 C 0.48217 0.65862 0.50146 0.0
C715 C 0.4989 0.63365 0.4929 0.0
C716 C 0.50122 0.62564 0.45826 0.0
H717 H 0.20258 0.50681 0.89198 0.0
H718 H 0.1027 0.44377 0.84189 0.0
H719 H 0.06494 0.46737 0.8799 0.0
H720 H 0.16786 0.50028 0.97368 0.0
H721 H 0.19157 0.5434 0.98676 0.0
H722 H 0.21091 0.52367 0.95419 0.0
H723 H 0.21209 0.57131 0.91421 0.0
H724 H 0.19328 0.59151 0.94684 0.0
H725 H 0.17008 0.58114 0.90695 0.0
H726 H 0.03754 0.49282 0.92923 0.0
H727 H 0.02357 0.52384 0.9784 0.0
H728 H 0.1412 0.57455 0.99408 0.0
C729 C 0.17281 0.49876 0.88829 0.0
C730 C 0.15577 0.47365 0.86328 0.0
C731 C 0.11662 0.46339 0.86006 0.0
C732 C 0.09489 0.47646 0.88193 0.0
C733 C 0.11252 0.50037 0.90687 0.0
C734 C 0.15076 0.51208 0.90955 0.0
C735 C 0.16294 0.53777 0.9386 0.0
C736 C 0.1846 0.52554 0.96485 0.0
C737 C 0.18596 0.5725 0.92589 0.0
C738 C 0.12568 0.53835 0.95233 0.0
C739 C 0.09691 0.51621 0.93393 0.0
C740 C 0.05999 0.51065 0.94323 0.0
C741 C 0.05227 0.52834 0.97145 0.0
C742 C 0.08111 0.5521 0.99012 0.0
C743 C 0.11838 0.55705 0.98016 0.0
H744 H 0.57676 0.86045 0.96174 0.0
H745 H 0.67727 0.91245 0.90751 0.0
H746 H 0.67148 0.96696 0.92641 0.0
H747 H 0.52781 0.91867 0.93977 0.0
H748 H 0.50451 0.91515 0.97946 0.0
H749 H 0.51712 0.88012 0.9623 0.0
H750 H 0.5535 0.87901 0.01649 0.0
H751 H 0.54109 0.91406 0.03374 0.0
H752 H 0.58923 0.91678 0.03089 0.0
H753 H 0.65685 1.0161 0.95466 0.0
H754 H 0.63153 0.05556 0.98623 0.0
H755 H 0.53689 0.97142 0.01548 0.0
C756 C 0.59731 0.88309 0.95311 0.0
C757 C 0.62772 0.88167 0.93322 0.0
C758 C 0.6542 0.91242 0.92341 0.0
C759 C 0.65096 0.94367 0.93374 0.0
C760 C 0.62068 0.94394 0.9533 0.0
C761 C 0.59403 0.91444 0.96244 0.0
C762 C 0.56378 0.92154 0.9831 0.0
C763 C 0.52607 0.90808 0.96507 0.0
C764 C 0.56181 0.90699 0.01812 0.0
C765 C 0.5779 0.9597 0.98461 0.0
C766 C 0.61097 0.97219 0.96755 0.0
C767 C 0.63063 1.00664 0.96754 0.0
C768 C 0.61614 0.02882 0.98553 0.0
C769 C 0.58202 1.01647 1.00262 0.0
C770 C 0.56255 0.98154 1.00182 0.0
H771 H 0.83358 0.20133 0.54348 0.0
H772 H 0.81649 0.15217 0.44488 0.0
H773 H 0.86888 0.13169 0.45433 0.0
H774 H 0.93473 0.22248 0.54759 0.0
H775 H 0.93445 0.21205 0.59092 0.0
H776 H 0.89896 0.22743 0.57496 0.0
H777 H 0.84819 0.17437 0.59608 0.0
H778 H 0.88347 0.15886 0.6121 0.0
H779 H 0.84924 0.13311 0.58306 0.0
H780 H 0.92047 0.11377 0.47473 0.0
H781 H 0.96518 0.09559 0.5069 0.0
H782 H 0.94542 0.15105 0.59437 0.0
C783 C 0.84081 0.18638 0.52375 0.0
C784 C 0.82106 0.17914 0.4931 0.0
C785 C 0.83176 0.15936 0.46811 0.0
C786 C 0.86142 0.14728 0.4733 0.0
C787 C 0.87992 0.15466 0.50379 0.0
C788 C 0.86991 0.17344 0.52876 0.0
C789 C 0.89223 0.17499 0.56033 0.0
C790 C 0.91654 0.21141 0.56895 0.0
C791 C 0.86676 0.15939 0.58961 0.0
C792 C 0.91568 0.15346 0.54933 0.0
C793 C 0.90861 0.14264 0.51638 0.0
C794 C 0.92633 0.1221 0.50054 0.0
C795 C 0.95163 0.11188 0.51903 0.0
C796 C 0.95842 0.12175 0.55311 0.0
C797 C 0.94055 0.14312 0.56835 0.0
H798 H 0.29109 0.76012 0.18037 0.0
H799 H 0.33916 0.68068 0.19577 0.0
H800 H 0.28344 0.63908 0.17158 0.0
H801 H 0.19573 0.7112 0.19742 0.0
H802 H 0.17615 0.72919 0.16497 0.0
H803 H 0.21963 0.75343 0.18423 0.0
H804 H 0.25094 0.76223 0.12625 0.0
H805 H 0.20753 0.73807 0.10682 0.0
H806 H 0.2484 0.72604 0.09966 0.0
H807 H 0.22122 0.60452 0.14654 0.0
H808 H 0.15938 0.58088 0.12038 0.0
H809 H 0.1507 0.68149 0.11704 0.0
C810 C 0.29019 0.73406 0.17855 0.0
C811 C 0.32015 0.72425 0.19115 0.0
C812 C 0.31686 0.68947 0.18782 0.0
C813 C 0.28514 0.66536 0.17362 0.0
C814 C 0.25625 0.67579 0.16204 0.0
C815 C 0.25852 0.70937 0.16402 0.0
C816 C 0.22346 0.71365 0.14901 0.0
C817 C 0.2025 0.72771 0.17549 0.0
C818 C 0.23317 0.73635 0.11863 0.0
C819 C 0.20123 0.67731 0.13849 0.0
C820 C 0.22075 0.65593 0.14647 0.0
C821 C 0.20591 0.62117 0.14002 0.0
C822 C 0.17048 0.60788 0.12508 0.0
C823 C 0.14965 0.62901 0.11617 0.0
C824 C 0.16566 0.6644 0.12309 0.0
H825 H 0.29717 0.42729 0.66436 0.0
H826 H 0.28286 0.51015 0.72496 0.0
H827 H 0.34116 0.54799 0.70231 0.0
H828 H 0.39525 0.45056 0.66792 0.0
H829 H 0.4003 0.43896 0.62489 0.0
H830 H 0.35835 0.41783 0.64709 0.0
H831 H 0.31932 0.43378 0.60178 0.0
H832 H 0.36111 0.4547 0.57926 0.0
H833 H 0.32982 0.47738 0.59124 0.0
H834 H 0.40448 0.57719 0.67373 0.0
H835 H 0.46066 0.59508 0.63805 0.0
H836 H 0.42876 0.49525 0.59127 0.0
C837 C 0.30528 0.45343 0.67269 0.0
C838 C 0.28427 0.46494 0.69712 0.0
C839 C 0.29794 0.49968 0.70717 0.0
C840 C 0.33126 0.52174 0.69413 0.0
C841 C 0.35091 0.50932 0.67031 0.0
C842 C 0.33791 0.47602 0.65929 0.0
C843 C 0.3632 0.46905 0.63243 0.0
C844 C 0.38028 0.44253 0.64377 0.0
C845 C 0.3421 0.45808 0.59921 0.0
C846 C 0.39261 0.50355 0.63008 0.0
C847 C 0.38547 0.52639 0.65254 0.0
C848 C 0.4099 0.55947 0.65586 0.0
C849 C 0.44193 0.56944 0.63558 0.0
C850 C 0.44912 0.54677 0.61164 0.0
C851 C 0.4239 0.51338 0.60902 0.0
H852 H 0.79399 0.74311 0.89732 0.0
H853 H 0.76175 0.7924 0.98346 0.0
H854 H 0.79867 0.76871 0.01994 0.0
H855 H 0.79782 0.66688 0.93954 0.0
H856 H 0.83801 0.6658 0.91611 0.0
H857 H 0.80471 0.68243 0.89774 0.0
H858 H 0.85722 0.73831 0.88636 0.0
H859 H 0.89059 0.72196 0.9048 0.0
H860 H 0.88597 0.76117 0.92053 0.0
H861 H 0.84524 0.74553 0.04582 0.0
H862 H 0.89608 0.72331 0.05927 0.0
H863 H 0.89885 0.69055 0.9558 0.0
C864 C 0.79422 0.74854 0.92394 0.0
C865 C 0.77494 0.76961 0.93755 0.0
C866 C 0.77584 0.77594 0.97252 0.0
C867 C 0.79688 0.76271 0.99341 0.0
C868 C 0.81657 0.74299 0.97896 0.0
C869 C 0.81512 0.73567 0.94504 0.0
C870 C 0.84098 0.71609 0.93528 0.0
C871 C 0.81906 0.6807 0.92135 0.0
C872 C 0.87043 0.73556 0.91028 0.0
C873 C 0.8581 0.71437 0.96887 0.0
C874 C 0.84342 0.72973 0.99382 0.0
C875 C 0.85656 0.73306 0.02656 0.0
C876 C 0.88561 0.72059 0.03391 0.0
C877 C 0.90132 0.7051 1.00861 0.0
C878 C 0.88693 0.70164 0.9758 0.0
H879 H 0.41684 0.83434 0.14648 0.0
H880 H 0.42588 0.86181 0.25211 0.0
H881 H 0.4543 0.9216 0.23858 0.0
H882 H 0.50517 0.89535 0.12321 0.0
H883 H 0.48911 0.90536 0.0839 0.0
H884 H 0.4677 0.8644 0.10111 0.0
H885 H 0.40354 0.87294 0.09806 0.0
H886 H 0.42482 0.91393 0.08083 0.0
H887 H 0.39702 0.90975 0.11803 0.0
H888 H 0.48253 0.97888 0.21464 0.0
H889 H 0.51068 0.0296 0.18221 0.0
H890 H 0.48717 0.96873 0.09035 0.0
C891 C 0.42443 0.853 0.16674 0.0
C892 C 0.41871 0.84275 0.20068 0.0
C893 C 0.42982 0.86839 0.2261 0.0
C894 C 0.44602 0.90268 0.2186 0.0
C895 C 0.45163 0.91185 0.18527 0.0
C896 C 0.44137 0.88785 0.1596 0.0
C897 C 0.45201 0.90508 0.12596 0.0
C898 C 0.48017 0.89175 0.10745 0.0
C899 C 0.41727 0.90012 0.10444 0.0
C900 C 0.46975 0.94232 0.13682 0.0
C901 C 0.46885 0.94533 0.17126 0.0
C902 C 0.48335 0.97668 0.18768 0.0
C903 C 0.49942 1.0056 0.16884 0.0
C904 C 0.50153 1.00386 0.13347 0.0
C905 C 0.48609 0.9714 0.11727 0.0
H906 H 0.13093 0.33259 0.71364 0.0
H907 H 0.24111 0.35381 0.67092 0.0
H908 H 0.22057 0.29998 0.63977 0.0
H909 H 0.11696 0.24204 0.72377 0.0
H910 H 0.06812 0.22876 0.71394 0.0
H911 H 0.09042 0.26993 0.73281 0.0
H912 H 0.06749 0.29737 0.68418 0.0
H913 H 0.04523 0.25629 0.66512 0.0
H914 H 0.07848 0.2884 0.64181 0.0
H915 H 0.18831 0.24543 0.6097 0.0
H916 H 0.14757 0.1903 0.58763 0.0
H917 H 0.05911 0.19804 0.65269 0.0
C918 C 0.15086 0.32594 0.6979 0.0
C919 C 0.1876 0.34898 0.69418 0.0
C920 C 0.21243 0.33825 0.67343 0.0
C921 C 0.20113 0.30717 0.6557 0.0
C922 C 0.16487 0.28577 0.65916 0.0
C923 C 0.14015 0.29424 0.68019 0.0
C924 C 0.10304 0.26548 0.67981 0.0
C925 C 0.09411 0.25068 0.71466 0.0
C926 C 0.0717 0.27762 0.66697 0.0
C927 C 0.11089 0.23998 0.6551 0.0
C928 C 0.14676 0.25265 0.64334 0.0
C929 C 0.16035 0.23505 0.61912 0.0
C930 C 0.13696 0.20369 0.60663 0.0
C931 C 0.10034 0.18945 0.61862 0.0
C932 C 0.08719 0.20791 0.64341 0.0
H933 H 0.63995 0.25914 0.51882 0.0
H934 H 0.66868 0.26662 0.62408 0.0
H935 H 0.6479 0.31654 0.63092 0.0
H936 H 0.67041 0.34745 0.50482 0.0
H937 H 0.63325 0.34536 0.47629 0.0
H938 H 0.64911 0.30953 0.48002 0.0
H939 H 0.58219 0.27194 0.49375 0.0
H940 H 0.56611 0.30766 0.49002 0.0
H941 H 0.55772 0.28421 0.52786 0.0
H942 H 0.62703 0.36729 0.62557 0.0
H943 H 0.60612 0.41433 0.60874 0.0
H944 H 0.58883 0.37235 0.50742 0.0
C945 C 0.64187 0.27131 0.54331 0.0
C946 C 0.65586 0.25902 0.57095 0.0
C947 C 0.65763 0.2754 0.60266 0.0
C948 C 0.64607 0.30383 0.60675 0.0
C949 C 0.63261 0.3154 0.57893 0.0
C950 C 0.63028 0.29956 0.54786 0.0
C951 C 0.61515 0.31724 0.52194 0.0
C952 C 0.64369 0.33069 0.49413 0.0
C953 C 0.57808 0.29386 0.50756 0.0
C954 C 0.6097 0.34573 0.54321 0.0
C955 C 0.61994 0.34423 0.57599 0.0
C956 C 0.61846 0.36846 0.60005 0.0
C957 C 0.60623 0.39496 0.59031 0.0
C958 C 0.59542 0.39696 0.55684 0.0
C959 C 0.59708 0.37177 0.53315 0.0
loop_
_geom_bond_atom_site_label_1
_geom_bond_atom_site_label_2
_geom_bond_distance
_geom_bond_site_symmetry_2
_ccdc_geom_bond_type
H0 C1 0.949 . S
C1 H0 0.949 . S
C1 C2 1.395 . S
C1 C3 1.391 . S
C2 C1 1.395 . S
C2 C5 1.390 . S
C3 C1 1.391 . S
C3 C7 1.387 . S
C3 C8 1.491 . S
H4 C5 0.950 . S
C5 C2 1.390 . S
C5 H4 0.950 . S
C5 C6 1.378 . S
C6 C5 1.378 . S
C6 C7 1.409 . S
C7 C3 1.387 . S
C7 C6 1.409 . S
C7 H9 0.951 . S
C8 C3 1.491 . S
C8 C10 1.382 . S
C8 C12 1.404 . S
H9 C7 0.951 . S
C10 C8 1.382 . S
C10 C11 1.390 . S
C10 H15 0.949 . S
C11 C10 1.390 . S
C11 C16 1.399 . S
C12 C8 1.404 . S
C12 H13 0.950 . S
C12 C14 1.375 . S
H13 C12 0.950 . S
C14 C12 1.375 . S
C14 C16 1.382 . S
C14 H18 0.950 . S
H15 C10 0.949 . S
C16 C11 1.399 . S
C16 C14 1.382 . S
C16 H17 0.952 . S
H17 C16 0.952 . S
H18 C14 0.950 . S
H19 C20 0.949 . S
C20 H19 0.949 . S
C20 C21 1.395 . S
C20 C22 1.391 . S
C21 C20 1.395 . S
C21 C24 1.390 . S
C22 C20 1.391 . S
C22 C26 1.387 . S
C22 C27 1.491 . S
H23 C24 0.950 . S
C24 C21 1.390 . S
C24 H23 0.950 . S
C24 C25 1.378 . S
C25 C24 1.378 . S
C25 C26 1.409 . S
C26 C22 1.387 . S
C26 C25 1.409 . S
C26 H28 0.951 . S
C27 C22 1.491 . S
C27 C29 1.382 . S
C27 C31 1.404 . S
H28 C26 0.951 . S
C29 C27 1.382 . S
C29 C30 1.390 . S
C29 H34 0.949 . S
C30 C29 1.390 . S
C30 C35 1.399 . S
C31 C27 1.404 . S
C31 H32 0.950 . S
C31 C33 1.375 . S
H32 C31 0.950 . S
C33 C31 1.375 . S
C33 C35 1.382 . S
C33 H37 0.950 . S
H34 C29 0.949 . S
C35 C30 1.399 . S
C35 C33 1.382 . S
C35 H36 0.952 . S
H36 C35 0.952 . S
H37 C33 0.950 . S
H38 C39 0.949 . S
C39 H38 0.949 . S
C39 C40 1.395 . S
C39 C41 1.391 . S
C40 C39 1.395 . S
C40 C43 1.390 . S
C41 C39 1.391 . S
C41 C45 1.387 . S
C41 C46 1.491 . S
H42 C43 0.950 . S
C43 C40 1.390 . S
C43 H42 0.950 . S
C43 C44 1.378 . S
C44 C43 1.378 . S
C44 C45 1.409 . S
C45 C41 1.387 . S
C45 C44 1.409 . S
C45 H47 0.951 . S
C46 C41 1.491 . S
C46 C48 1.382 . S
C46 C50 1.404 . S
H47 C45 0.951 . S
C48 C46 1.382 . S
C48 C49 1.390 . S
C48 H53 0.949 . S
C49 C48 1.390 . S
C49 C54 1.399 . S
C50 C46 1.404 . S
C50 H51 0.950 . S
C50 C52 1.375 . S
H51 C50 0.950 . S
C52 C50 1.375 . S
C52 C54 1.382 . S
C52 H56 0.950 . S
H53 C48 0.949 . S
C54 C49 1.399 . S
C54 C52 1.382 . S
C54 H55 0.952 . S
H55 C54 0.952 . S
H56 C52 0.950 . S
H57 C58 0.949 . S
C58 H57 0.949 . S
C58 C59 1.395 . S
C58 C60 1.391 . S
C59 C58 1.395 . S
C59 C62 1.390 . S
C60 C58 1.391 . S
C60 C64 1.387 . S
C60 C65 1.491 . S
H61 C62 0.950 . S
C62 C59 1.390 . S
C62 H61 0.950 . S
C62 C63 1.378 . S
C63 C62 1.378 . S
C63 C64 1.409 . S
C64 C60 1.387 . S
C64 C63 1.409 . S
C64 H66 0.951 . S
C65 C60 1.491 . S
C65 C67 1.382 . S
C65 C69 1.404 . S
H66 C64 0.951 . S
C67 C65 1.382 . S
C67 C68 1.390 . S
C67 H72 0.949 . S
C68 C67 1.390 . S
C68 C73 1.399 . S
C69 C65 1.404 . S
C69 H70 0.950 . S
C69 C71 1.375 . S
H70 C69 0.950 . S
C71 C69 1.375 . S
C71 C73 1.382 . S
C71 H75 0.950 . S
H72 C67 0.949 . S
C73 C68 1.399 . S
C73 C71 1.382 . S
C73 H74 0.952 . S
H74 C73 0.952 . S
H75 C71 0.950 . S
H76 C77 0.949 . S
C77 H76 0.949 . S
C77 C78 1.395 . S
C77 C79 1.391 . S
C78 C77 1.395 . S
C78 C81 1.390 . S
C79 C77 1.391 . S
C79 C83 1.387 . S
C79 C84 1.491 . S
H80 C81 0.950 . S
C81 C78 1.390 . S
C81 H80 0.950 . S
C81 C82 1.378 . S
C82 C81 1.378 . S
C82 C83 1.409 . S
C83 C79 1.387 . S
C83 C82 1.409 . S
C83 H85 0.951 . S
C84 C79 1.491 . S
C84 C86 1.382 . S
C84 C88 1.404 . S
H85 C83 0.951 . S
C86 C84 1.382 . S
C86 C87 1.390 . S
C86 H91 0.949 . S
C87 C86 1.390 . S
C87 C92 1.399 . S
C88 C84 1.404 . S
C88 H89 0.950 . S
C88 C90 1.375 . S
H89 C88 0.950 . S
C90 C88 1.375 . S
C90 C92 1.382 . S
C90 H94 0.950 . S
H91 C86 0.949 . S
C92 C87 1.399 . S
C92 C90 1.382 . S
C92 H93 0.952 . S
H93 C92 0.952 . S
H94 C90 0.950 . S
H95 C96 0.949 . S
C96 H95 0.949 . S
C96 C97 1.395 . S
C96 C98 1.391 . S
C97 C96 1.395 . S
C97 C100 1.390 . S
C98 C96 1.391 . S
C98 C102 1.387 . S
C98 C103 1.491 . S
H99 C100 0.950 . S
C100 C97 1.390 . S
C100 H99 0.950 . S
C100 C101 1.378 . S
C101 C100 1.378 . S
C101 C102 1.409 . S
C102 C98 1.387 . S
C102 C101 1.409 . S
C102 H104 0.951 . S
C103 C98 1.491 . S
C103 C105 1.382 . S
C103 C107 1.404 . S
H104 C102 0.951 . S
C105 C103 1.382 . S
C105 C106 1.390 . S
C105 H110 0.949 . S
C106 C105 1.390 . S
C106 C111 1.399 . S
C107 C103 1.404 . S
C107 H108 0.950 . S
C107 C109 1.375 . S
H108 C107 0.950 . S
C109 C107 1.375 . S
C109 C111 1.382 . S
C109 H113 0.950 . S
H110 C105 0.949 . S
C111 C106 1.399 . S
C111 C109 1.382 . S
C111 H112 0.952 . S
H112 C111 0.952 . S
H113 C109 0.950 . S
H114 C115 0.949 . S
C115 H114 0.949 . S
C115 C116 1.395 . S
C115 C117 1.391 . S
C116 C115 1.395 . S
C116 C119 1.390 . S
C117 C115 1.391 . S
C117 C121 1.387 . S
C117 C122 1.491 . S
H118 C119 0.950 . S
C119 C116 1.390 . S
C119 H118 0.950 . S
C119 C120 1.378 . S
C120 C119 1.378 . S
C120 C121 1.409 . S
C121 C117 1.387 . S
C121 C120 1.409 . S
C121 H123 0.951 . S
C122 C117 1.491 . S
C122 C124 1.382 . S
C122 C126 1.404 . S
H123 C121 0.951 . S
C124 C122 1.382 . S
C124 C125 1.390 . S
C124 H129 0.949 . S
C125 C124 1.390 . S
C125 C130 1.399 . S
C126 C122 1.404 . S
C126 H127 0.950 . S
C126 C128 1.375 . S
H127 C126 0.950 . S
C128 C126 1.375 . S
C128 C130 1.382 . S
C128 H132 0.950 . S
H129 C124 0.949 . S
C130 C125 1.399 . S
C130 C128 1.382 . S
C130 H131 0.952 . S
H131 C130 0.952 . S
H132 C128 0.950 . S
H133 C134 0.949 . S
C134 H133 0.949 . S
C134 C135 1.395 . S
C134 C136 1.391 . S
C135 C134 1.395 . S
C135 C138 1.390 . S
C136 C134 1.391 . S
C136 C140 1.387 . S
C136 C141 1.491 . S
H137 C138 0.950 . S
C138 C135 1.390 . S
C138 H137 0.950 . S
C138 C139 1.378 . S
C139 C138 1.378 . S
C139 C140 1.409 . S
C140 C136 1.387 . S
C140 C139 1.409 . S
C140 H142 0.951 . S
C141 C136 1.491 . S
C141 C143 1.382 . S
C141 C145 1.404 . S
H142 C140 0.951 . S
C143 C141 1.382 . S
C143 C144 1.390 . S
C143 H148 0.949 . S
C144 C143 1.390 . S
C144 C149 1.399 . S
C145 C141 1.404 . S
C145 H146 0.950 . S
C145 C147 1.375 . S
H146 C145 0.950 . S
C147 C145 1.375 . S
C147 C149 1.382 . S
C147 H151 0.950 . S
H148 C143 0.949 . S
C149 C144 1.399 . S
C149 C147 1.382 . S
C149 H150 0.952 . S
H150 C149 0.952 . S
H151 C147 0.950 . S
Ho152 C155 2.811 . S
Ho152 O172 2.322 . S
Ho152 O174 2.378 . S
Ho152 O175 2.524 . S
Ho152 O176 2.381 . S
Ho152 O177 2.669 . S
Ho152 O179 2.346 1_545 S
Ho152 O183 2.305 1_455 S
Ho153 C164 2.811 1_545 S
Ho153 O173 2.346 1_655 S
Ho153 O177 2.305 1_655 S
Ho153 O178 2.322 1_545 S
Ho153 O180 2.378 1_545 S
Ho153 O181 2.524 1_545 S
Ho153 O182 2.381 . S
Ho153 O183 2.669 . S
C154 O172 1.259 . S
C154 O173 1.268 . S
C155 Ho152 2.811 . S
C155 C156 1.488 . S
C155 O174 1.215 . S
C155 O175 1.289 . S
C156 C155 1.488 . S
C156 C157 1.348 . S
C156 C161 1.413 . S
C157 C156 1.348 . S
C157 C158 1.442 . S
C157 H184 0.930 . S
C158 C157 1.442 . S
C158 C159 1.381 . S
C158 H185 0.931 . S
C159 C158 1.381 . S
C159 C160 1.321 . S
C160 C159 1.321 . S
C160 C161 1.403 . S
C160 H186 0.934 . S
C161 C156 1.413 . S
C161 C160 1.403 . S
C161 H187 0.930 . S
C162 O176 1.275 . S
C162 O177 1.256 . S
C163 O178 1.259 . S
C163 O179 1.268 1_655 S
C164 Ho153 2.811 1_565 S
C164 C165 1.488 . S
C164 O180 1.215 . S
C164 O181 1.289 . S
C165 C164 1.488 . S
C165 C166 1.348 . S
C165 C170 1.413 . S
C166 C165 1.348 . S
C166 C167 1.442 . S
C166 H188 0.930 . S
C167 C166 1.442 . S
C167 C168 1.381 . S
C167 H189 0.931 . S
C168 C167 1.381 . S
C168 C169 1.321 . S
C169 C168 1.321 . S
C169 C170 1.403 . S
C169 H190 0.934 . S
C170 C165 1.413 . S
C170 C169 1.403 . S
C170 H191 0.930 . S
C171 O182 1.275 . S
C171 O183 1.256 . S
O172 Ho152 2.322 . S
O172 C154 1.259 . S
O173 Ho153 2.346 1_455 S
O173 C154 1.268 . S
O174 Ho152 2.378 . S
O174 C155 1.215 . S
O175 Ho152 2.524 . S
O175 C155 1.289 . S
O176 Ho152 2.381 . S
O176 C162 1.275 . S
O177 Ho152 2.669 . S
O177 Ho153 2.305 1_455 S
O177 C162 1.256 . S
O178 Ho153 2.322 1_565 S
O178 C163 1.259 . S
O179 Ho152 2.346 1_565 S
O179 C163 1.268 1_455 S
O180 Ho153 2.378 1_565 S
O180 C164 1.215 . S
O181 Ho153 2.524 1_565 S
O181 C164 1.289 . S
O182 Ho153 2.381 . S
O182 C171 1.275 . S
O183 Ho152 2.305 1_655 S
O183 Ho153 2.669 . S
O183 C171 1.256 . S
H184 C157 0.930 . S
H185 C158 0.931 . S
H186 C160 0.934 . S
H187 C161 0.930 . S
H188 C166 0.930 . S
H189 C167 0.931 . S
H190 C169 0.934 . S
H191 C170 0.930 . S
Ho192 C195 2.811 . S
Ho192 O212 2.322 . S
Ho192 O214 2.378 . S
Ho192 O215 2.524 . S
Ho192 O216 2.381 1_545 S
Ho192 O217 2.665 1_545 S
Ho192 O219 2.346 . S
Ho192 O223 2.305 . S
Ho193 C204 2.811 1_544 S
Ho193 O213 2.346 . S
Ho193 O217 2.293 1_545 S
Ho193 O218 2.322 . S
Ho193 O220 2.378 1_554 S
Ho193 O221 2.524 1_545 S
Ho193 O222 2.381 . S
Ho193 O223 2.669 . S
C194 O212 1.259 . S
C194 O213 1.268 . S
C195 Ho192 2.811 . S
C195 C196 1.488 . S
C195 O214 1.215 . S
C195 O215 1.289 . S
C196 C195 1.488 . S
C196 C197 1.348 . S
C196 C201 1.413 . S
C197 C196 1.348 . S
C197 C198 1.442 . S
C197 H224 0.930 . S
C198 C197 1.442 . S
C198 C199 1.381 . S
C198 H225 0.931 . S
C199 C198 1.381 . S
C199 C200 1.321 . S
C200 C199 1.321 . S
C200 C201 1.403 . S
C200 H226 0.934 . S
C201 C196 1.413 . S
C201 C200 1.403 . S
C201 H227 0.930 . S
C202 O216 1.275 . S
C202 O217 1.267 . S
C203 O218 1.259 1_565 S
C203 O219 1.268 1_565 S
C204 Ho193 2.811 1_566 S
C204 C205 1.488 . S
C204 O220 1.215 1_565 S
C204 O221 1.289 1_556 S
C205 C204 1.488 . S
C205 C206 1.348 . S
C205 C210 1.413 . S
C206 C205 1.348 . S
C206 C207 1.442 . S
C206 H228 0.930 . S
C207 C206 1.442 . S
C207 C208 1.381 . S
C207 H229 0.931 . S
C208 C207 1.381 . S
C208 C209 1.321 . S
C209 C208 1.321 . S
C209 C210 1.403 . S
C209 H230 0.934 . S
C210 C205 1.413 . S
C210 C209 1.403 . S
C210 H231 0.930 1_565 S
C211 O222 1.275 . S
C211 O223 1.256 . S
O212 Ho192 2.322 . S
O212 C194 1.259 . S
O213 Ho193 2.346 . S
O213 C194 1.268 . S
O214 Ho192 2.378 . S
O214 C195 1.215 . S
O215 Ho192 2.524 . S
O215 C195 1.289 . S
O216 Ho192 2.381 1_565 S
O216 C202 1.275 . S
O217 Ho192 2.665 1_565 S
O217 Ho193 2.293 1_565 S
O217 C202 1.267 . S
O218 Ho193 2.322 . S
O218 C203 1.259 1_545 S
O219 Ho192 2.346 . S
O219 C203 1.268 1_545 S
O220 Ho193 2.378 1_556 S
O220 C204 1.215 1_545 S
O221 Ho193 2.524 1_565 S
O221 C204 1.289 1_554 S
O222 Ho193 2.381 . S
O222 C211 1.275 . S
O223 Ho192 2.305 . S
O223 Ho193 2.669 . S
O223 C211 1.256 . S
H224 C197 0.930 . S
H225 C198 0.931 . S
H226 C200 0.934 . S
H227 C201 0.930 . S
H228 C206 0.930 . S
H229 C207 0.931 . S
H230 C209 0.934 . S
H231 C210 0.930 1_545 S
Ho232 C235 2.811 . S
Ho232 O252 2.322 . S
Ho232 O254 2.378 . S
Ho232 O255 2.524 . S
Ho232 O256 2.381 . S
Ho232 O257 2.669 . S
Ho232 O259 2.346 . S
Ho232 O263 2.305 . S
Ho233 C244 2.811 . S
Ho233 O253 2.346 . S
Ho233 O257 2.305 . S
Ho233 O258 2.322 . S
Ho233 O260 2.378 . S
Ho233 O261 2.524 . S
Ho233 O262 2.381 . S
Ho233 O263 2.669 . S
C234 O252 1.259 . S
C234 O253 1.268 . S
C235 Ho232 2.811 . S
C235 C236 1.488 . S
C235 O254 1.215 . S
C235 O255 1.289 . S
C236 C235 1.488 . S
C236 C237 1.348 . S
C236 C241 1.413 . S
C237 C236 1.348 . S
C237 C238 1.442 . S
C237 H264 0.930 . S
C238 C237 1.442 . S
C238 C239 1.381 . S
C238 H265 0.931 . S
C239 C238 1.381 . S
C239 C240 1.321 . S
C240 C239 1.321 . S
C240 C241 1.403 . S
C240 H266 0.934 . S
C241 C236 1.413 . S
C241 C240 1.403 . S
C241 H267 0.930 . S
C242 O256 1.275 . S
C242 O257 1.256 . S
C243 O258 1.259 . S
C243 O259 1.268 . S
C244 Ho233 2.811 . S
C244 C245 1.488 . S
C244 O260 1.215 . S
C244 O261 1.289 . S
C245 C244 1.488 . S
C245 C246 1.348 . S
C245 C250 1.413 . S
C246 C245 1.348 . S
C246 C247 1.442 . S
C246 H268 0.930 . S
C247 C246 1.442 . S
C247 C248 1.381 . S
C247 H269 0.931 . S
C248 C247 1.381 . S
C248 C249 1.321 . S
C249 C248 1.321 . S
C249 C250 1.403 . S
C249 H270 0.934 . S
C250 C245 1.413 . S
C250 C249 1.403 . S
C250 H271 0.930 . S
C251 O262 1.275 . S
C251 O263 1.256 . S
O252 Ho232 2.322 . S
O252 C234 1.259 . S
O253 Ho233 2.346 . S
O253 C234 1.268 . S
O254 Ho232 2.378 . S
O254 C235 1.215 . S
O255 Ho232 2.524 . S
O255 C235 1.289 . S
O256 Ho232 2.381 . S
O256 C242 1.275 . S
O257 Ho232 2.669 . S
O257 Ho233 2.305 . S
O257 C242 1.256 . S
O258 Ho233 2.322 . S
O258 C243 1.259 . S
O259 Ho232 2.346 . S
O259 C243 1.268 . S
O260 Ho233 2.378 . S
O260 C244 1.215 . S
O261 Ho233 2.524 . S
O261 C244 1.289 . S
O262 Ho233 2.381 . S
O262 C251 1.275 . S
O263 Ho232 2.305 . S
O263 Ho233 2.669 . S
O263 C251 1.256 . S
H264 C237 0.930 . S
H265 C238 0.931 . S
H266 C240 0.934 . S
H267 C241 0.930 . S
H268 C246 0.930 . S
H269 C247 0.931 . S
H270 C249 0.934 . S
H271 C250 0.930 . S
Ho272 C275 2.811 . S
Ho272 O292 2.322 . S
Ho272 O294 2.378 . S
Ho272 O295 2.524 . S
Ho272 O296 2.381 . S
Ho272 O297 2.669 . S
Ho272 O299 2.346 1_455 S
Ho272 O303 2.305 1_554 S
Ho273 C284 2.811 1_455 S
Ho273 O293 2.346 1_556 S
Ho273 O297 2.305 1_556 S
Ho273 O298 2.322 1_455 S
Ho273 O300 2.378 . S
Ho273 O301 2.524 1_455 S
Ho273 O302 2.381 . S
Ho273 O303 2.669 . S
C274 O292 1.259 . S
C274 O293 1.268 . S
C275 Ho272 2.811 . S
C275 C276 1.488 . S
C275 O294 1.215 . S
C275 O295 1.289 . S
C276 C275 1.488 . S
C276 C277 1.348 . S
C276 C281 1.413 . S
C277 C276 1.348 . S
C277 C278 1.442 . S
C277 H304 0.930 . S
C278 C277 1.442 . S
C278 C279 1.381 . S
C278 H305 0.931 . S
C279 C278 1.381 . S
C279 C280 1.321 . S
C280 C279 1.321 . S
C280 C281 1.403 . S
C280 H306 0.934 . S
C281 C276 1.413 . S
C281 C280 1.403 . S
C281 H307 0.930 . S
C282 O296 1.275 . S
C282 O297 1.256 . S
C283 O298 1.259 . S
C283 O299 1.268 1_556 S
C284 Ho273 2.811 1_655 S
C284 C285 1.488 . S
C284 O300 1.215 1_655 S
C284 O301 1.289 . S
C285 C284 1.488 . S
C285 C286 1.348 . S
C285 C290 1.413 . S
C286 C285 1.348 . S
C286 C287 1.442 . S
C286 H308 0.930 . S
C287 C286 1.442 . S
C287 C288 1.381 . S
C287 H309 0.931 . S
C288 C287 1.381 . S
C288 C289 1.321 . S
C289 C288 1.321 . S
C289 C290 1.403 . S
C289 H310 0.934 . S
C290 C285 1.413 . S
C290 C289 1.403 . S
C290 H311 0.930 . S
C291 O302 1.275 . S
C291 O303 1.256 . S
O292 Ho272 2.322 . S
O292 C274 1.259 . S
O293 Ho273 2.346 1_554 S
O293 C274 1.268 . S
O294 Ho272 2.378 . S
O294 C275 1.215 . S
O295 Ho272 2.524 . S
O295 C275 1.289 . S
O296 Ho272 2.381 . S
O296 C282 1.275 . S
O297 Ho272 2.669 . S
O297 Ho273 2.305 1_554 S
O297 C282 1.256 . S
O298 Ho273 2.322 1_655 S
O298 C283 1.259 . S
O299 Ho272 2.346 1_655 S
O299 C283 1.268 1_554 S
O300 Ho273 2.378 . S
O300 C284 1.215 1_455 S
O301 Ho273 2.524 1_655 S
O301 C284 1.289 . S
O302 Ho273 2.381 . S
O302 C291 1.275 . S
O303 Ho272 2.305 1_556 S
O303 Ho273 2.669 . S
O303 C291 1.256 . S
H304 C277 0.930 . S
H305 C278 0.931 . S
H306 C280 0.934 . S
H307 C281 0.930 . S
H308 C286 0.930 . S
H309 C287 0.931 . S
H310 C289 0.934 . S
H311 C290 0.930 . S
H312 C324 0.930 . S
H313 C326 0.930 . S
H314 C327 0.930 . S
H315 C331 0.959 . S
H316 C331 0.959 . S
H317 C331 0.961 . S
H318 C332 0.960 . S
H319 C332 0.961 . S
H320 C332 0.959 . S
H321 C335 0.929 . S
H322 C336 0.931 . S
H323 C338 0.930 . S
C324 H312 0.930 . S
C324 C325 1.399 . S
C324 C329 1.399 . S
C325 C324 1.399 . S
C325 C326 1.376 . S
C326 H313 0.930 . S
C326 C325 1.376 . S
C326 C327 1.388 . S
C327 H314 0.930 . S
C327 C326 1.388 . S
C327 C328 1.390 . S
C328 C327 1.390 . S
C328 C329 1.394 . S
C328 C334 1.465 . S
C329 C324 1.399 . S
C329 C328 1.394 . S
C329 C330 1.516 . S
C330 C329 1.516 . S
C330 C331 1.502 . S
C330 C332 1.561 . S
C330 C333 1.526 . S
C331 H315 0.959 . S
C331 H316 0.959 . S
C331 H317 0.961 . S
C331 C330 1.502 . S
C332 H318 0.960 . S
C332 H319 0.961 . S
C332 H320 0.959 . S
C332 C330 1.561 . S
C333 C330 1.526 . S
C333 C334 1.396 . S
C333 C338 1.390 . S
C334 C328 1.465 . S
C334 C333 1.396 . S
C334 C335 1.399 . S
C335 H321 0.929 . S
C335 C334 1.399 . S
C335 C336 1.385 . S
C336 H322 0.931 . S
C336 C335 1.385 . S
C336 C337 1.389 . S
C337 C336 1.389 . S
C337 C338 1.387 . S
C338 H323 0.930 . S
C338 C333 1.390 . S
C338 C337 1.387 . S
H339 C351 0.930 . S
H340 C353 0.930 . S
H341 C354 0.930 . S
H342 C358 0.959 . S
H343 C358 0.959 . S
H344 C358 0.961 . S
H345 C359 0.960 . S
H346 C359 0.961 . S
H347 C359 0.959 . S
H348 C362 0.929 . S
H349 C363 0.931 . S
H350 C365 0.930 . S
C351 H339 0.930 . S
C351 C352 1.399 . S
C351 C356 1.399 . S
C352 C351 1.399 . S
C352 C353 1.376 . S
C353 H340 0.930 . S
C353 C352 1.376 . S
C353 C354 1.388 . S
C354 H341 0.930 . S
C354 C353 1.388 . S
C354 C355 1.390 . S
C355 C354 1.390 . S
C355 C356 1.394 . S
C355 C361 1.465 . S
C356 C351 1.399 . S
C356 C355 1.394 . S
C356 C357 1.516 . S
C357 C356 1.516 . S
C357 C358 1.502 . S
C357 C359 1.561 . S
C357 C360 1.526 . S
C358 H342 0.959 . S
C358 H343 0.959 . S
C358 H344 0.961 . S
C358 C357 1.502 . S
C359 H345 0.960 . S
C359 H346 0.961 . S
C359 H347 0.959 . S
C359 C357 1.561 . S
C360 C357 1.526 . S
C360 C361 1.396 . S
C360 C365 1.390 . S
C361 C355 1.465 . S
C361 C360 1.396 . S
C361 C362 1.399 . S
C362 H348 0.929 . S
C362 C361 1.399 . S
C362 C363 1.385 . S
C363 H349 0.931 . S
C363 C362 1.385 . S
C363 C364 1.389 . S
C364 C363 1.389 . S
C364 C365 1.387 . S
C365 H350 0.930 . S
C365 C360 1.390 . S
C365 C364 1.387 . S
H366 C378 0.930 . S
H367 C380 0.930 . S
H368 C381 0.930 . S
H369 C385 0.959 . S
H370 C385 0.959 . S
H371 C385 0.961 . S
H372 C386 0.960 . S
H373 C386 0.961 . S
H374 C386 0.959 . S
H375 C389 0.929 . S
H376 C390 0.931 . S
H377 C392 0.930 . S
C378 H366 0.930 . S
C378 C379 1.399 . S
C378 C383 1.399 . S
C379 C378 1.399 . S
C379 C380 1.376 . S
C380 H367 0.930 . S
C380 C379 1.376 . S
C380 C381 1.388 . S
C381 H368 0.930 . S
C381 C380 1.388 . S
C381 C382 1.390 . S
C382 C381 1.390 . S
C382 C383 1.394 . S
C382 C388 1.465 . S
C383 C378 1.399 . S
C383 C382 1.394 . S
C383 C384 1.516 . S
C384 C383 1.516 . S
C384 C385 1.502 . S
C384 C386 1.561 . S
C384 C387 1.526 . S
C385 H369 0.959 . S
C385 H370 0.959 . S
C385 H371 0.961 . S
C385 C384 1.502 . S
C386 H372 0.960 . S
C386 H373 0.961 . S
C386 H374 0.959 . S
C386 C384 1.561 . S
C387 C384 1.526 . S
C387 C388 1.396 . S
C387 C392 1.390 . S
C388 C382 1.465 . S
C388 C387 1.396 . S
C388 C389 1.399 . S
C389 H375 0.929 . S
C389 C388 1.399 . S
C389 C390 1.385 . S
C390 H376 0.931 . S
C390 C389 1.385 . S
C390 C391 1.389 . S
C391 C390 1.389 . S
C391 C392 1.387 . S
C392 H377 0.930 . S
C392 C387 1.390 . S
C392 C391 1.387 . S
H393 C405 0.930 . S
H394 C407 0.930 . S
H395 C408 0.930 . S
H396 C412 0.959 . S
H397 C412 0.959 . S
H398 C412 0.961 . S
H399 C413 0.960 . S
H400 C413 0.961 . S
H401 C413 0.959 . S
H402 C416 0.929 . S
H403 C417 0.931 . S
H404 C419 0.930 . S
C405 H393 0.930 . S
C405 C406 1.399 . S
C405 C410 1.399 . S
C406 C405 1.399 . S
C406 C407 1.376 . S
C407 H394 0.930 . S
C407 C406 1.376 . S
C407 C408 1.388 . S
C408 H395 0.930 . S
C408 C407 1.388 . S
C408 C409 1.390 . S
C409 C408 1.390 . S
C409 C410 1.394 . S
C409 C415 1.465 . S
C410 C405 1.399 . S
C410 C409 1.394 . S
C410 C411 1.516 . S
C411 C410 1.516 . S
C411 C412 1.502 . S
C411 C413 1.561 . S
C411 C414 1.526 . S
C412 H396 0.959 . S
C412 H397 0.959 . S
C412 H398 0.961 . S
C412 C411 1.502 . S
C413 H399 0.960 . S
C413 H400 0.961 . S
C413 H401 0.959 . S
C413 C411 1.561 . S
C414 C411 1.526 . S
C414 C415 1.396 . S
C414 C419 1.390 . S
C415 C409 1.465 . S
C415 C414 1.396 . S
C415 C416 1.399 . S
C416 H402 0.929 . S
C416 C415 1.399 . S
C416 C417 1.385 . S
C417 H403 0.931 . S
C417 C416 1.385 . S
C417 C418 1.389 . S
C418 C417 1.389 . S
C418 C419 1.387 . S
C419 H404 0.930 . S
C419 C414 1.390 . S
C419 C418 1.387 . S
H420 C432 0.930 . S
H421 C434 0.930 . S
H422 C435 0.930 . S
H423 C439 0.959 . S
H424 C439 0.959 . S
H425 C439 0.961 . S
H426 C440 0.960 . S
H427 C440 0.961 . S
H428 C440 0.959 . S
H429 C443 0.929 . S
H430 C444 0.931 . S
H431 C446 0.930 . S
C432 H420 0.930 . S
C432 C433 1.399 . S
C432 C437 1.399 . S
C433 C432 1.399 . S
C433 C434 1.376 . S
C434 H421 0.930 . S
C434 C433 1.376 . S
C434 C435 1.388 . S
C435 H422 0.930 . S
C435 C434 1.388 . S
C435 C436 1.390 . S
C436 C435 1.390 . S
C436 C437 1.394 . S
C436 C442 1.465 . S
C437 C432 1.399 . S
C437 C436 1.394 . S
C437 C438 1.516 . S
C438 C437 1.516 . S
C438 C439 1.502 . S
C438 C440 1.561 . S
C438 C441 1.526 . S
C439 H423 0.959 . S
C439 H424 0.959 . S
C439 H425 0.961 . S
C439 C438 1.502 . S
C440 H426 0.960 . S
C440 H427 0.961 . S
C440 H428 0.959 . S
C440 C438 1.561 . S
C441 C438 1.526 . S
C441 C442 1.396 . S
C441 C446 1.390 . S
C442 C436 1.465 . S
C442 C441 1.396 . S
C442 C443 1.399 . S
C443 H429 0.929 . S
C443 C442 1.399 . S
C443 C444 1.385 . S
C444 H430 0.931 . S
C444 C443 1.385 . S
C444 C445 1.389 . S
C445 C444 1.389 . S
C445 C446 1.387 . S
C446 H431 0.930 . S
C446 C441 1.390 . S
C446 C445 1.387 . S
H447 C459 0.930 . S
H448 C461 0.930 . S
H449 C462 0.930 . S
H450 C466 0.959 . S
H451 C466 0.959 . S
H452 C466 0.961 . S
H453 C467 0.960 . S
H454 C467 0.961 . S
H455 C467 0.959 . S
H456 C470 0.929 1_545 S
H457 C471 0.931 . S
H458 C473 0.930 . S
C459 H447 0.930 . S
C459 C460 1.399 . S
C459 C464 1.399 . S
C460 C459 1.399 . S
C460 C461 1.376 . S
C461 H448 0.930 . S
C461 C460 1.376 . S
C461 C462 1.388 . S
C462 H449 0.930 . S
C462 C461 1.388 . S
C462 C463 1.390 . S
C463 C462 1.390 . S
C463 C464 1.394 . S
C463 C469 1.465 . S
C464 C459 1.399 . S
C464 C463 1.394 . S
C464 C465 1.516 . S
C465 C464 1.516 . S
C465 C466 1.502 . S
C465 C467 1.561 . S
C465 C468 1.526 . S
C466 H450 0.959 . S
C466 H451 0.959 . S
C466 H452 0.961 . S
C466 C465 1.502 . S
C467 H453 0.960 . S
C467 H454 0.961 . S
C467 H455 0.959 . S
C467 C465 1.561 . S
C468 C465 1.526 . S
C468 C469 1.396 . S
C468 C473 1.390 . S
C469 C463 1.465 . S
C469 C468 1.396 . S
C469 C470 1.399 . S
C470 H456 0.929 1_565 S
C470 C469 1.399 . S
C470 C471 1.385 1_565 S
C471 H457 0.931 . S
C471 C470 1.385 1_545 S
C471 C472 1.389 . S
C472 C471 1.389 . S
C472 C473 1.387 1_545 S
C473 H458 0.930 . S
C473 C468 1.390 . S
C473 C472 1.387 1_565 S
H474 C486 0.930 . S
H475 C488 0.930 . S
H476 C489 0.930 . S
H477 C493 0.959 . S
H478 C493 0.959 . S
H479 C493 0.961 . S
H480 C494 0.960 . S
H481 C494 0.961 . S
H482 C494 0.959 . S
H483 C497 0.929 1_554 S
H484 C498 0.931 . S
H485 C500 0.930 . S
C486 H474 0.930 . S
C486 C487 1.399 . S
C486 C491 1.399 . S
C487 C486 1.399 . S
C487 C488 1.376 . S
C488 H475 0.930 . S
C488 C487 1.376 . S
C488 C489 1.388 . S
C489 H476 0.930 . S
C489 C488 1.388 . S
C489 C490 1.390 . S
C490 C489 1.390 . S
C490 C491 1.394 . S
C490 C496 1.465 . S
C491 C486 1.399 . S
C491 C490 1.394 . S
C491 C492 1.516 . S
C492 C491 1.516 . S
C492 C493 1.502 . S
C492 C494 1.561 . S
C492 C495 1.526 . S
C493 H477 0.959 . S
C493 H478 0.959 . S
C493 H479 0.961 . S
C493 C492 1.502 . S
C494 H480 0.960 . S
C494 H481 0.961 . S
C494 H482 0.959 . S
C494 C492 1.561 . S
C495 C492 1.526 . S
C495 C496 1.396 . S
C495 C500 1.390 . S
C496 C490 1.465 . S
C496 C495 1.396 . S
C496 C497 1.399 . S
C497 H483 0.929 1_556 S
C497 C496 1.399 . S
C497 C498 1.385 1_556 S
C498 H484 0.931 . S
C498 C497 1.385 1_554 S
C498 C499 1.389 1_554 S
C499 C498 1.389 1_556 S
C499 C500 1.387 . S
C500 H485 0.930 . S
C500 C495 1.390 . S
C500 C499 1.387 . S
H501 C513 0.930 . S
H502 C515 0.930 . S
H503 C516 0.930 . S
H504 C520 0.959 . S
H505 C520 0.959 . S
H506 C520 0.961 . S
H507 C521 0.960 . S
H508 C521 0.961 . S
H509 C521 0.959 . S
H510 C524 0.929 . S
H511 C525 0.931 . S
H512 C527 0.930 . S
C513 H501 0.930 . S
C513 C514 1.399 . S
C513 C518 1.399 . S
C514 C513 1.399 . S
C514 C515 1.376 . S
C515 H502 0.930 . S
C515 C514 1.376 . S
C515 C516 1.388 . S
C516 H503 0.930 . S
C516 C515 1.388 . S
C516 C517 1.390 . S
C517 C516 1.390 . S
C517 C518 1.394 . S
C517 C523 1.465 . S
C518 C513 1.399 . S
C518 C517 1.394 . S
C518 C519 1.516 . S
C519 C518 1.516 . S
C519 C520 1.502 . S
C519 C521 1.561 . S
C519 C522 1.526 . S
C520 H504 0.959 . S
C520 H505 0.959 . S
C520 H506 0.961 . S
C520 C519 1.502 . S
C521 H507 0.960 . S
C521 H508 0.961 . S
C521 H509 0.959 . S
C521 C519 1.561 . S
C522 C519 1.526 . S
C522 C523 1.396 . S
C522 C527 1.390 . S
C523 C517 1.465 . S
C523 C522 1.396 . S
C523 C524 1.399 . S
C524 H510 0.929 . S
C524 C523 1.399 . S
C524 C525 1.385 . S
C525 H511 0.931 . S
C525 C524 1.385 . S
C525 C526 1.389 . S
C526 C525 1.389 . S
C526 C527 1.387 . S
C527 H512 0.930 . S
C527 C522 1.390 . S
C527 C526 1.387 . S
H528 C540 0.930 . S
H529 C542 0.930 . S
H530 C543 0.930 . S
H531 C547 0.959 . S
H532 C547 0.959 . S
H533 C547 0.961 . S
H534 C548 0.960 . S
H535 C548 0.961 . S
H536 C548 0.959 . S
H537 C551 0.929 . S
H538 C552 0.931 . S
H539 C554 0.930 . S
C540 H528 0.930 . S
C540 C541 1.399 . S
C540 C545 1.399 . S
C541 C540 1.399 . S
C541 C542 1.376 . S
C542 H529 0.930 . S
C542 C541 1.376 . S
C542 C543 1.388 . S
C543 H530 0.930 . S
C543 C542 1.388 . S
C543 C544 1.390 . S
C544 C543 1.390 . S
C544 C545 1.394 . S
C544 C550 1.465 . S
C545 C540 1.399 . S
C545 C544 1.394 . S
C545 C546 1.516 . S
C546 C545 1.516 . S
C546 C547 1.502 . S
C546 C548 1.561 . S
C546 C549 1.526 . S
C547 H531 0.959 . S
C547 H532 0.959 . S
C547 H533 0.961 . S
C547 C546 1.502 . S
C548 H534 0.960 . S
C548 H535 0.961 . S
C548 H536 0.959 . S
C548 C546 1.561 . S
C549 C546 1.526 . S
C549 C550 1.396 . S
C549 C554 1.390 . S
C550 C544 1.465 . S
C550 C549 1.396 . S
C550 C551 1.399 . S
C551 H537 0.929 . S
C551 C550 1.399 . S
C551 C552 1.385 . S
C552 H538 0.931 . S
C552 C551 1.385 . S
C552 C553 1.389 . S
C553 C552 1.389 . S
C553 C554 1.387 . S
C554 H539 0.930 . S
C554 C549 1.390 . S
C554 C553 1.387 . S
H555 C567 0.930 . S
H556 C569 0.930 . S
H557 C570 0.930 . S
H558 C574 0.959 . S
H559 C574 0.959 . S
H560 C574 0.961 . S
H561 C575 0.960 . S
H562 C575 0.961 . S
H563 C575 0.959 . S
H564 C578 0.929 . S
H565 C579 0.931 . S
H566 C581 0.930 . S
C567 H555 0.930 . S
C567 C568 1.399 . S
C567 C572 1.399 . S
C568 C567 1.399 . S
C568 C569 1.376 . S
C569 H556 0.930 . S
C569 C568 1.376 . S
C569 C570 1.388 . S
C570 H557 0.930 . S
C570 C569 1.388 . S
C570 C571 1.390 . S
C571 C570 1.390 . S
C571 C572 1.394 . S
C571 C577 1.465 . S
C572 C567 1.399 . S
C572 C571 1.394 . S
C572 C573 1.516 1_556 S
C573 C572 1.516 1_554 S
C573 C574 1.502 . S
C573 C575 1.561 . S
C573 C576 1.526 . S
C574 H558 0.959 . S
C574 H559 0.959 . S
C574 H560 0.961 . S
C574 C573 1.502 . S
C575 H561 0.960 . S
C575 H562 0.961 . S
C575 H563 0.959 . S
C575 C573 1.561 . S
C576 C573 1.526 . S
C576 C577 1.396 1_554 S
C576 C581 1.390 . S
C577 C571 1.465 . S
C577 C576 1.396 1_556 S
C577 C578 1.399 . S
C578 H564 0.929 . S
C578 C577 1.399 . S
C578 C579 1.385 . S
C579 H565 0.931 . S
C579 C578 1.385 . S
C579 C580 1.389 1_556 S
C580 C579 1.389 1_554 S
C580 C581 1.387 . S
C581 H566 0.930 . S
C581 C576 1.390 . S
C581 C580 1.387 . S
H582 C594 0.930 . S
H583 C596 0.930 . S
H584 C597 0.930 . S
H585 C601 0.959 . S
H586 C601 0.959 . S
H587 C601 0.961 . S
H588 C602 0.960 . S
H589 C602 0.961 . S
H590 C602 0.959 . S
H591 C605 0.929 . S
H592 C606 0.931 . S
H593 C608 0.930 . S
C594 H582 0.930 . S
C594 C595 1.399 . S
C594 C599 1.399 . S
C595 C594 1.399 . S
C595 C596 1.376 . S
C596 H583 0.930 . S
C596 C595 1.376 . S
C596 C597 1.388 . S
C597 H584 0.930 . S
C597 C596 1.388 . S
C597 C598 1.390 . S
C598 C597 1.390 . S
C598 C599 1.394 . S
C598 C604 1.465 . S
C599 C594 1.399 . S
C599 C598 1.394 . S
C599 C600 1.516 . S
C600 C599 1.516 . S
C600 C601 1.502 . S
C600 C602 1.561 . S
C600 C603 1.526 . S
C601 H585 0.959 . S
C601 H586 0.959 . S
C601 H587 0.961 . S
C601 C600 1.502 . S
C602 H588 0.960 . S
C602 H589 0.961 . S
C602 H590 0.959 . S
C602 C600 1.561 . S
C603 C600 1.526 . S
C603 C604 1.396 . S
C603 C608 1.390 . S
C604 C598 1.465 . S
C604 C603 1.396 . S
C604 C605 1.399 . S
C605 H591 0.929 . S
C605 C604 1.399 . S
C605 C606 1.385 . S
C606 H592 0.931 . S
C606 C605 1.385 . S
C606 C607 1.389 . S
C607 C606 1.389 . S
C607 C608 1.387 . S
C608 H593 0.930 . S
C608 C603 1.390 . S
C608 C607 1.387 . S
H609 C621 0.930 . S
H610 C623 0.930 . S
H611 C624 0.930 . S
H612 C628 0.959 . S
H613 C628 0.959 . S
H614 C628 0.961 . S
H615 C629 0.960 . S
H616 C629 0.961 . S
H617 C629 0.959 . S
H618 C632 0.929 . S
H619 C633 0.931 . S
H620 C635 0.930 . S
C621 H609 0.930 . S
C621 C622 1.399 . S
C621 C626 1.399 . S
C622 C621 1.399 . S
C622 C623 1.376 . S
C623 H610 0.930 . S
C623 C622 1.376 . S
C623 C624 1.388 . S
C624 H611 0.930 . S
C624 C623 1.388 . S
C624 C625 1.390 . S
C625 C624 1.390 . S
C625 C626 1.394 . S
C625 C631 1.465 . S
C626 C621 1.399 . S
C626 C625 1.394 . S
C626 C627 1.516 . S
C627 C626 1.516 . S
C627 C628 1.502 . S
C627 C629 1.561 . S
C627 C630 1.526 . S
C628 H612 0.959 . S
C628 H613 0.959 . S
C628 H614 0.961 . S
C628 C627 1.502 . S
C629 H615 0.960 . S
C629 H616 0.961 . S
C629 H617 0.959 . S
C629 C627 1.561 . S
C630 C627 1.526 . S
C630 C631 1.396 . S
C630 C635 1.390 . S
C631 C625 1.465 . S
C631 C630 1.396 . S
C631 C632 1.399 . S
C632 H618 0.929 . S
C632 C631 1.399 . S
C632 C633 1.385 . S
C633 H619 0.931 . S
C633 C632 1.385 . S
C633 C634 1.389 . S
C634 C633 1.389 . S
C634 C635 1.387 . S
C635 H620 0.930 . S
C635 C630 1.390 . S
C635 C634 1.387 . S
H636 C648 0.930 . S
H637 C650 0.930 . S
H638 C651 0.930 . S
H639 C655 0.959 . S
H640 C655 0.959 . S
H641 C655 0.961 . S
H642 C656 0.960 . S
H643 C656 0.961 . S
H644 C656 0.959 . S
H645 C659 0.929 . S
H646 C660 0.931 . S
H647 C662 0.930 . S
C648 H636 0.930 . S
C648 C649 1.399 . S
C648 C653 1.399 . S
C649 C648 1.399 . S
C649 C650 1.376 . S
C650 H637 0.930 . S
C650 C649 1.376 . S
C650 C651 1.388 . S
C651 H638 0.930 . S
C651 C650 1.388 . S
C651 C652 1.390 . S
C652 C651 1.390 . S
C652 C653 1.394 . S
C652 C658 1.465 . S
C653 C648 1.399 . S
C653 C652 1.394 . S
C653 C654 1.516 . S
C654 C653 1.516 . S
C654 C655 1.502 . S
C654 C656 1.561 . S
C654 C657 1.526 . S
C655 H639 0.959 . S
C655 H640 0.959 . S
C655 H641 0.961 . S
C655 C654 1.502 . S
C656 H642 0.960 . S
C656 H643 0.961 . S
C656 H644 0.959 . S
C656 C654 1.561 . S
C657 C654 1.526 . S
C657 C658 1.396 . S
C657 C662 1.390 . S
C658 C652 1.465 . S
C658 C657 1.396 . S
C658 C659 1.399 . S
C659 H645 0.929 . S
C659 C658 1.399 . S
C659 C660 1.385 . S
C660 H646 0.931 . S
C660 C659 1.385 . S
C660 C661 1.389 . S
C661 C660 1.389 . S
C661 C662 1.387 . S
C662 H647 0.930 . S
C662 C657 1.390 . S
C662 C661 1.387 . S
H663 C675 0.930 . S
H664 C677 0.930 . S
H665 C678 0.930 . S
H666 C682 0.959 . S
H667 C682 0.959 . S
H668 C682 0.961 . S
H669 C683 0.960 . S
H670 C683 0.961 . S
H671 C683 0.959 . S
H672 C686 0.929 . S
H673 C687 0.931 . S
H674 C689 0.930 . S
C675 H663 0.930 . S
C675 C676 1.399 . S
C675 C680 1.399 . S
C676 C675 1.399 . S
C676 C677 1.376 . S
C677 H664 0.930 . S
C677 C676 1.376 . S
C677 C678 1.388 . S
C678 H665 0.930 . S
C678 C677 1.388 . S
C678 C679 1.390 . S
C679 C678 1.390 . S
C679 C680 1.394 . S
C679 C685 1.465 . S
C680 C675 1.399 . S
C680 C679 1.394 . S
C680 C681 1.516 . S
C681 C680 1.516 . S
C681 C682 1.502 . S
C681 C683 1.561 . S
C681 C684 1.526 . S
C682 H666 0.959 . S
C682 H667 0.959 . S
C682 H668 0.961 . S
C682 C681 1.502 . S
C683 H669 0.960 . S
C683 H670 0.961 . S
C683 H671 0.959 . S
C683 C681 1.561 . S
C684 C681 1.526 . S
C684 C685 1.396 . S
C684 C689 1.390 . S
C685 C679 1.465 . S
C685 C684 1.396 . S
C685 C686 1.399 . S
C686 H672 0.929 . S
C686 C685 1.399 . S
C686 C687 1.385 . S
C687 H673 0.931 . S
C687 C686 1.385 . S
C687 C688 1.389 . S
C688 C687 1.389 . S
C688 C689 1.387 . S
C689 H674 0.930 . S
C689 C684 1.390 . S
C689 C688 1.387 . S
H690 C702 0.930 . S
H691 C704 0.930 . S
H692 C705 0.930 . S
H693 C709 0.959 . S
H694 C709 0.959 . S
H695 C709 0.961 . S
H696 C710 0.960 . S
H697 C710 0.961 . S
H698 C710 0.959 . S
H699 C713 0.929 . S
H700 C714 0.931 . S
H701 C716 0.930 . S
C702 H690 0.930 . S
C702 C703 1.399 . S
C702 C707 1.399 . S
C703 C702 1.399 . S
C703 C704 1.376 . S
C704 H691 0.930 . S
C704 C703 1.376 . S
C704 C705 1.388 . S
C705 H692 0.930 . S
C705 C704 1.388 . S
C705 C706 1.390 . S
C706 C705 1.390 . S
C706 C707 1.394 . S
C706 C712 1.465 . S
C707 C702 1.399 . S
C707 C706 1.394 . S
C707 C708 1.516 . S
C708 C707 1.516 . S
C708 C709 1.502 . S
C708 C710 1.561 . S
C708 C711 1.526 . S
C709 H693 0.959 . S
C709 H694 0.959 . S
C709 H695 0.961 . S
C709 C708 1.502 . S
C710 H696 0.960 . S
C710 H697 0.961 . S
C710 H698 0.959 . S
C710 C708 1.561 . S
C711 C708 1.526 . S
C711 C712 1.396 . S
C711 C716 1.390 . S
C712 C706 1.465 . S
C712 C711 1.396 . S
C712 C713 1.399 . S
C713 H699 0.929 . S
C713 C712 1.399 . S
C713 C714 1.385 . S
C714 H700 0.931 . S
C714 C713 1.385 . S
C714 C715 1.389 . S
C715 C714 1.389 . S
C715 C716 1.387 . S
C716 H701 0.930 . S
C716 C711 1.390 . S
C716 C715 1.387 . S
H717 C729 0.930 . S
H718 C731 0.930 . S
H719 C732 0.930 . S
H720 C736 0.959 . S
H721 C736 0.959 . S
H722 C736 0.961 . S
H723 C737 0.960 . S
H724 C737 0.961 . S
H725 C737 0.959 . S
H726 C740 0.929 . S
H727 C741 0.931 . S
H728 C743 0.930 . S
C729 H717 0.930 . S
C729 C730 1.399 . S
C729 C734 1.399 . S
C730 C729 1.399 . S
C730 C731 1.376 . S
C731 H718 0.930 . S
C731 C730 1.376 . S
C731 C732 1.388 . S
C732 H719 0.930 . S
C732 C731 1.388 . S
C732 C733 1.390 . S
C733 C732 1.390 . S
C733 C734 1.394 . S
C733 C739 1.465 . S
C734 C729 1.399 . S
C734 C733 1.394 . S
C734 C735 1.516 . S
C735 C734 1.516 . S
C735 C736 1.502 . S
C735 C737 1.561 . S
C735 C738 1.526 . S
C736 H720 0.959 . S
C736 H721 0.959 . S
C736 H722 0.961 . S
C736 C735 1.502 . S
C737 H723 0.960 . S
C737 H724 0.961 . S
C737 H725 0.959 . S
C737 C735 1.561 . S
C738 C735 1.526 . S
C738 C739 1.396 . S
C738 C743 1.390 . S
C739 C733 1.465 . S
C739 C738 1.396 . S
C739 C740 1.399 . S
C740 H726 0.929 . S
C740 C739 1.399 . S
C740 C741 1.385 . S
C741 H727 0.931 . S
C741 C740 1.385 . S
C741 C742 1.389 . S
C742 C741 1.389 . S
C742 C743 1.387 . S
C743 H728 0.930 . S
C743 C738 1.390 . S
C743 C742 1.387 . S
H744 C756 0.930 . S
H745 C758 0.930 . S
H746 C759 0.930 . S
H747 C763 0.959 1_556 S
H748 C763 0.959 . S
H749 C763 0.961 . S
H750 C764 0.960 . S
H751 C764 0.961 . S
H752 C764 0.959 . S
H753 C767 0.929 . S
H754 C768 0.931 . S
H755 C770 0.930 . S
C756 H744 0.930 . S
C756 C757 1.399 . S
C756 C761 1.399 . S
C757 C756 1.399 . S
C757 C758 1.376 . S
C758 H745 0.930 . S
C758 C757 1.376 . S
C758 C759 1.388 . S
C759 H746 0.930 . S
C759 C758 1.388 . S
C759 C760 1.390 . S
C760 C759 1.390 . S
C760 C761 1.394 . S
C760 C766 1.465 . S
C761 C756 1.399 . S
C761 C760 1.394 . S
C761 C762 1.516 . S
C762 C761 1.516 . S
C762 C763 1.502 1_556 S
C762 C764 1.561 1_556 S
C762 C765 1.526 . S
C763 H747 0.959 1_554 S
C763 H748 0.959 . S
C763 H749 0.961 . S
C763 C762 1.502 1_554 S
C764 H750 0.960 . S
C764 H751 0.961 . S
C764 H752 0.959 . S
C764 C762 1.561 1_554 S
C765 C762 1.526 . S
C765 C766 1.396 . S
C765 C770 1.390 1_556 S
C766 C760 1.465 . S
C766 C765 1.396 . S
C766 C767 1.399 . S
C767 H753 0.929 . S
C767 C766 1.399 . S
C767 C768 1.385 . S
C768 H754 0.931 . S
C768 C767 1.385 . S
C768 C769 1.389 1_556 S
C769 C768 1.389 1_554 S
C769 C770 1.387 . S
C770 H755 0.930 . S
C770 C765 1.390 1_554 S
C770 C769 1.387 . S
H771 C783 0.930 . S
H772 C785 0.930 . S
H773 C786 0.930 . S
H774 C790 0.959 . S
H775 C790 0.959 . S
H776 C790 0.961 . S
H777 C791 0.960 . S
H778 C791 0.961 . S
H779 C791 0.959 . S
H780 C794 0.929 . S
H781 C795 0.931 . S
H782 C797 0.930 . S
C783 H771 0.930 . S
C783 C784 1.399 . S
C783 C788 1.399 . S
C784 C783 1.399 . S
C784 C785 1.376 . S
C785 H772 0.930 . S
C785 C784 1.376 . S
C785 C786 1.388 . S
C786 H773 0.930 . S
C786 C785 1.388 . S
C786 C787 1.390 . S
C787 C786 1.390 . S
C787 C788 1.394 . S
C787 C793 1.465 . S
C788 C783 1.399 . S
C788 C787 1.394 . S
C788 C789 1.516 . S
C789 C788 1.516 . S
C789 C790 1.502 . S
C789 C791 1.561 . S
C789 C792 1.526 . S
C790 H774 0.959 . S
C790 H775 0.959 . S
C790 H776 0.961 . S
C790 C789 1.502 . S
C791 H777 0.960 . S
C791 H778 0.961 . S
C791 H779 0.959 . S
C791 C789 1.561 . S
C792 C789 1.526 . S
C792 C793 1.396 . S
C792 C797 1.390 . S
C793 C787 1.465 . S
C793 C792 1.396 . S
C793 C794 1.399 . S
C794 H780 0.929 . S
C794 C793 1.399 . S
C794 C795 1.385 . S
C795 H781 0.931 . S
C795 C794 1.385 . S
C795 C796 1.389 . S
C796 C795 1.389 . S
C796 C797 1.387 . S
C797 H782 0.930 . S
C797 C792 1.390 . S
C797 C796 1.387 . S
H798 C810 0.930 . S
H799 C812 0.930 . S
H800 C813 0.930 . S
H801 C817 0.959 . S
H802 C817 0.959 . S
H803 C817 0.961 . S
H804 C818 0.960 . S
H805 C818 0.961 . S
H806 C818 0.959 . S
H807 C821 0.929 . S
H808 C822 0.931 . S
H809 C824 0.930 . S
C810 H798 0.930 . S
C810 C811 1.399 . S
C810 C815 1.399 . S
C811 C810 1.399 . S
C811 C812 1.376 . S
C812 H799 0.930 . S
C812 C811 1.376 . S
C812 C813 1.388 . S
C813 H800 0.930 . S
C813 C812 1.388 . S
C813 C814 1.390 . S
C814 C813 1.390 . S
C814 C815 1.394 . S
C814 C820 1.465 . S
C815 C810 1.399 . S
C815 C814 1.394 . S
C815 C816 1.516 . S
C816 C815 1.516 . S
C816 C817 1.502 . S
C816 C818 1.561 . S
C816 C819 1.526 . S
C817 H801 0.959 . S
C817 H802 0.959 . S
C817 H803 0.961 . S
C817 C816 1.502 . S
C818 H804 0.960 . S
C818 H805 0.961 . S
C818 H806 0.959 . S
C818 C816 1.561 . S
C819 C816 1.526 . S
C819 C820 1.396 . S
C819 C824 1.390 . S
C820 C814 1.465 . S
C820 C819 1.396 . S
C820 C821 1.399 . S
C821 H807 0.929 . S
C821 C820 1.399 . S
C821 C822 1.385 . S
C822 H808 0.931 . S
C822 C821 1.385 . S
C822 C823 1.389 . S
C823 C822 1.389 . S
C823 C824 1.387 . S
C824 H809 0.930 . S
C824 C819 1.390 . S
C824 C823 1.387 . S
H825 C837 0.930 . S
H826 C839 0.930 . S
H827 C840 0.930 . S
H828 C844 0.959 . S
H829 C844 0.959 . S
H830 C844 0.961 . S
H831 C845 0.960 . S
H832 C845 0.961 . S
H833 C845 0.959 . S
H834 C848 0.929 . S
H835 C849 0.931 . S
H836 C851 0.930 . S
C837 H825 0.930 . S
C837 C838 1.399 . S
C837 C842 1.399 . S
C838 C837 1.399 . S
C838 C839 1.376 . S
C839 H826 0.930 . S
C839 C838 1.376 . S
C839 C840 1.388 . S
C840 H827 0.930 . S
C840 C839 1.388 . S
C840 C841 1.390 . S
C841 C840 1.390 . S
C841 C842 1.394 . S
C841 C847 1.465 . S
C842 C837 1.399 . S
C842 C841 1.394 . S
C842 C843 1.516 . S
C843 C842 1.516 . S
C843 C844 1.502 . S
C843 C845 1.561 . S
C843 C846 1.526 . S
C844 H828 0.959 . S
C844 H829 0.959 . S
C844 H830 0.961 . S
C844 C843 1.502 . S
C845 H831 0.960 . S
C845 H832 0.961 . S
C845 H833 0.959 . S
C845 C843 1.561 . S
C846 C843 1.526 . S
C846 C847 1.396 . S
C846 C851 1.390 . S
C847 C841 1.465 . S
C847 C846 1.396 . S
C847 C848 1.399 . S
C848 H834 0.929 . S
C848 C847 1.399 . S
C848 C849 1.385 . S
C849 H835 0.931 . S
C849 C848 1.385 . S
C849 C850 1.389 . S
C850 C849 1.389 . S
C850 C851 1.387 . S
C851 H836 0.930 . S
C851 C846 1.390 . S
C851 C850 1.387 . S
H852 C864 0.930 . S
H853 C866 0.930 . S
H854 C867 0.930 . S
H855 C871 0.959 . S
H856 C871 0.959 . S
H857 C871 0.961 . S
H858 C872 0.960 . S
H859 C872 0.961 . S
H860 C872 0.959 . S
H861 C875 0.929 . S
H862 C876 0.931 . S
H863 C878 0.930 . S
C864 H852 0.930 . S
C864 C865 1.399 . S
C864 C869 1.399 . S
C865 C864 1.399 . S
C865 C866 1.376 . S
C866 H853 0.930 . S
C866 C865 1.376 . S
C866 C867 1.388 . S
C867 H854 0.930 . S
C867 C866 1.388 . S
C867 C868 1.390 . S
C868 C867 1.390 . S
C868 C869 1.394 . S
C868 C874 1.465 . S
C869 C864 1.399 . S
C869 C868 1.394 . S
C869 C870 1.516 . S
C870 C869 1.516 . S
C870 C871 1.502 . S
C870 C872 1.561 . S
C870 C873 1.526 . S
C871 H855 0.959 . S
C871 H856 0.959 . S
C871 H857 0.961 . S
C871 C870 1.502 . S
C872 H858 0.960 . S
C872 H859 0.961 . S
C872 H860 0.959 . S
C872 C870 1.561 . S
C873 C870 1.526 . S
C873 C874 1.396 . S
C873 C878 1.390 . S
C874 C868 1.465 . S
C874 C873 1.396 . S
C874 C875 1.399 . S
C875 H861 0.929 . S
C875 C874 1.399 . S
C875 C876 1.385 . S
C876 H862 0.931 . S
C876 C875 1.385 . S
C876 C877 1.389 . S
C877 C876 1.389 . S
C877 C878 1.387 . S
C878 H863 0.930 . S
C878 C873 1.390 . S
C878 C877 1.387 . S
H879 C891 0.930 . S
H880 C893 0.930 . S
H881 C894 0.930 . S
H882 C898 0.959 . S
H883 C898 0.959 . S
H884 C898 0.961 . S
H885 C899 0.960 . S
H886 C899 0.961 . S
H887 C899 0.959 . S
H888 C902 0.929 . S
H889 C903 0.931 . S
H890 C905 0.930 . S
C891 H879 0.930 . S
C891 C892 1.399 . S
C891 C896 1.399 . S
C892 C891 1.399 . S
C892 C893 1.376 . S
C893 H880 0.930 . S
C893 C892 1.376 . S
C893 C894 1.388 . S
C894 H881 0.930 . S
C894 C893 1.388 . S
C894 C895 1.390 . S
C895 C894 1.390 . S
C895 C896 1.394 . S
C895 C901 1.465 . S
C896 C891 1.399 . S
C896 C895 1.394 . S
C896 C897 1.516 . S
C897 C896 1.516 . S
C897 C898 1.502 . S
C897 C899 1.561 . S
C897 C900 1.526 . S
C898 H882 0.959 . S
C898 H883 0.959 . S
C898 H884 0.961 . S
C898 C897 1.502 . S
C899 H885 0.960 . S
C899 H886 0.961 . S
C899 H887 0.959 . S
C899 C897 1.561 . S
C900 C897 1.526 . S
C900 C901 1.396 . S
C900 C905 1.390 . S
C901 C895 1.465 . S
C901 C900 1.396 . S
C901 C902 1.399 . S
C902 H888 0.929 . S
C902 C901 1.399 . S
C902 C903 1.385 . S
C903 H889 0.931 . S
C903 C902 1.385 . S
C903 C904 1.389 . S
C904 C903 1.389 . S
C904 C905 1.387 . S
C905 H890 0.930 . S
C905 C900 1.390 . S
C905 C904 1.387 . S
H906 C918 0.930 . S
H907 C920 0.930 . S
H908 C921 0.930 . S
H909 C925 0.959 . S
H910 C925 0.959 . S
H911 C925 0.961 . S
H912 C926 0.960 . S
H913 C926 0.961 . S
H914 C926 0.959 . S
H915 C929 0.929 . S
H916 C930 0.931 . S
H917 C932 0.930 . S
C918 H906 0.930 . S
C918 C919 1.399 . S
C918 C923 1.399 . S
C919 C918 1.399 . S
C919 C920 1.376 . S
C920 H907 0.930 . S
C920 C919 1.376 . S
C920 C921 1.388 . S
C921 H908 0.930 . S
C921 C920 1.388 . S
C921 C922 1.390 . S
C922 C921 1.390 . S
C922 C923 1.394 . S
C922 C928 1.465 . S
C923 C918 1.399 . S
C923 C922 1.394 . S
C923 C924 1.516 . S
C924 C923 1.516 . S
C924 C925 1.502 . S
C924 C926 1.561 . S
C924 C927 1.526 . S
C925 H909 0.959 . S
C925 H910 0.959 . S
C925 H911 0.961 . S
C925 C924 1.502 . S
C926 H912 0.960 . S
C926 H913 0.961 . S
C926 H914 0.959 . S
C926 C924 1.561 . S
C927 C924 1.526 . S
C927 C928 1.396 . S
C927 C932 1.390 . S
C928 C922 1.465 . S
C928 C927 1.396 . S
C928 C929 1.399 . S
C929 H915 0.929 . S
C929 C928 1.399 . S
C929 C930 1.385 . S
C930 H916 0.931 . S
C930 C929 1.385 . S
C930 C931 1.389 . S
C931 C930 1.389 . S
C931 C932 1.387 . S
C932 H917 0.930 . S
C932 C927 1.390 . S
C932 C931 1.387 . S
H933 C945 0.930 . S
H934 C947 0.930 . S
H935 C948 0.930 . S
H936 C952 0.959 . S
H937 C952 0.959 . S
H938 C952 0.961 . S
H939 C953 0.960 . S
H940 C953 0.961 . S
H941 C953 0.959 . S
H942 C956 0.929 . S
H943 C957 0.931 . S
H944 C959 0.930 . S
C945 H933 0.930 . S
C945 C946 1.399 . S
C945 C950 1.399 . S
C946 C945 1.399 . S
C946 C947 1.376 . S
C947 H934 0.930 . S
C947 C946 1.376 . S
C947 C948 1.388 . S
C948 H935 0.930 . S
C948 C947 1.388 . S
C948 C949 1.390 . S
C949 C948 1.390 . S
C949 C950 1.394 . S
C949 C955 1.465 . S
C950 C945 1.399 . S
C950 C949 1.394 . S
C950 C951 1.516 . S
C951 C950 1.516 . S
C951 C952 1.502 . S
C951 C953 1.561 . S
C951 C954 1.526 . S
C952 H936 0.959 . S
C952 H937 0.959 . S
C952 H938 0.961 . S
C952 C951 1.502 . S
C953 H939 0.960 . S
C953 H940 0.961 . S
C953 H941 0.959 . S
C953 C951 1.561 . S
C954 C951 1.526 . S
C954 C955 1.396 . S
C954 C959 1.390 . S
C955 C949 1.465 . S
C955 C954 1.396 . S
C955 C956 1.399 . S
C956 H942 0.929 . S
C956 C955 1.399 . S
C956 C957 1.385 . S
C957 H943 0.931 . S
C957 C956 1.385 . S
C957 C958 1.389 . S
C958 C957 1.389 . S
C958 C959 1.387 . S
C959 H944 0.930 . S
C959 C954 1.390 . S
C959 C958 1.387 . S
C325 C6 1.166 . S
C337 C159 1.191 . S
C352 C21 1.470 . S
C364 C208 1.450 . S
C391 C234 1.829 . S
C379 C49 1.774 . S
C406 C68 2.083 . S
C418 C282 2.098 1_655 S
C445 C194 3.006 . S
C433 C2 2.898 . S
C472 C162 0.483 . S
C460 C30 0.484 . S
C499 C283 1.899 . S
C487 C40 1.915 . S
C526 C251 1.499 . S
C514 C63 1.491 . S
C541 C11 1.342 . S
C553 C279 1.573 . S
C580 C211 2.583 . S
C568 C44 2.666 . S
C595 C59 1.971 . S
C607 C163 1.948 . S
C622 C25 1.285 . S
C634 C248 1.228 . S
C661 C168 1.465 . S
C649 C82 1.431 . S
C676 C101 1.205 . S
C688 C199 1.270 . S
C703 C125 2.227 . S
C715 C243 2.340 . S
C730 C144 1.780 . S
C742 C291 1.884 . S
C757 C87 1.862 . S
C769 C203 2.034 . S
C796 C171 1.793 . S
C784 C97 1.767 . S
C823 C274 1.671 . S
C811 C120 1.721 . S
C850 C242 1.531 . S
C838 C135 1.616 . S
C865 C78 1.879 . S
C877 C288 2.042 . S
C904 C202 1.876 . S
C892 C116 1.932 . S
C931 C154 2.633 . S
C919 C139 2.637 . S
C946 C106 0.781 . S
C958 C239 0.953 . S
