# Generated by pormake.
# Topology ctn, (3,4)-cn, num edge types: 1
# Building blocks:
#     Node 0, Type 0, BuildingBlock: MIDCAF_clean_linker_0, # of connection points: 3
#     Node 1, Type 0, BuildingBlock: MIDCAF_clean_linker_0, # of connection points: 3
#     Node 2, Type 0, BuildingBlock: MIDCAF_clean_linker_0, # of connection points: 3
#     Node 3, Type 0, BuildingBlock: MIDCAF_clean_linker_0, # of connection points: 3
#     Node 4, Type 0, BuildingBlock: MIDCAF_clean_linker_0, # of connection points: 3
#     Node 5, Type 0, BuildingBlock: MIDCAF_clean_linker_0, # of connection points: 3
#     Node 6, Type 0, BuildingBlock: MIDCAF_clean_linker_0, # of connection points: 3
#     Node 7, Type 0, BuildingBlock: MIDCAF_clean_linker_0, # of connection points: 3
#     Node 8, Type 0, BuildingBlock: MIDCAF_clean_linker_0, # of connection points: 3
#     Node 9, Type 0, BuildingBlock: MIDCAF_clean_linker_0, # of connection points: 3
#     Node 10, Type 0, BuildingBlock: MIDCAF_clean_linker_0, # of connection points: 3
#     Node 11, Type 0, BuildingBlock: MIDCAF_clean_linker_0, # of connection points: 3
#     Node 12, Type 0, BuildingBlock: MIDCAF_clean_linker_0, # of connection points: 3
#     Node 13, Type 0, BuildingBlock: MIDCAF_clean_linker_0, # of connection points: 3
#     Node 14, Type 0, BuildingBlock: MIDCAF_clean_linker_0, # of connection points: 3
#     Node 15, Type 0, BuildingBlock: MIDCAF_clean_linker_0, # of connection points: 3
#     Node 16, Type 1, BuildingBlock: UXUYUI_clean_sbu_0, # of connection points: 4
#     Node 17, Type 1, BuildingBlock: UXUYUI_clean_sbu_0, # of connection points: 4
#     Node 18, Type 1, BuildingBlock: UXUYUI_clean_sbu_0, # of connection points: 4
#     Node 19, Type 1, BuildingBlock: UXUYUI_clean_sbu_0, # of connection points: 4
#     Node 20, Type 1, BuildingBlock: UXUYUI_clean_sbu_0, # of connection points: 4
#     Node 21, Type 1, BuildingBlock: UXUYUI_clean_sbu_0, # of connection points: 4
#     Node 22, Type 1, BuildingBlock: UXUYUI_clean_sbu_0, # of connection points: 4
#     Node 23, Type 1, BuildingBlock: UXUYUI_clean_sbu_0, # of connection points: 4
#     Node 24, Type 1, BuildingBlock: UXUYUI_clean_sbu_0, # of connection points: 4
#     Node 25, Type 1, BuildingBlock: UXUYUI_clean_sbu_0, # of connection points: 4
#     Node 26, Type 1, BuildingBlock: UXUYUI_clean_sbu_0, # of connection points: 4
#     Node 27, Type 1, BuildingBlock: UXUYUI_clean_sbu_0, # of connection points: 4
#     Edge 28, Type (0, 1), BuildingBlock: UVAHIK_clean_linker_0, # of connection points: 2
#     Edge 29, Type (0, 1), BuildingBlock: UVAHIK_clean_linker_0, # of connection points: 2
#     Edge 30, Type (0, 1), BuildingBlock: UVAHIK_clean_linker_0, # of connection points: 2
#     Edge 31, Type (0, 1), BuildingBlock: UVAHIK_clean_linker_0, # of connection points: 2
#     Edge 32, Type (0, 1), BuildingBlock: UVAHIK_clean_linker_0, # of connection points: 2
#     Edge 33, Type (0, 1), BuildingBlock: UVAHIK_clean_linker_0, # of connection points: 2
#     Edge 34, Type (0, 1), BuildingBlock: UVAHIK_clean_linker_0, # of connection points: 2
#     Edge 35, Type (0, 1), BuildingBlock: UVAHIK_clean_linker_0, # of connection points: 2
#     Edge 36, Type (0, 1), BuildingBlock: UVAHIK_clean_linker_0, # of connection points: 2
#     Edge 37, Type (0, 1), BuildingBlock: UVAHIK_clean_linker_0, # of connection points: 2
#     Edge 38, Type (0, 1), BuildingBlock: UVAHIK_clean_linker_0, # of connection points: 2
#     Edge 39, Type (0, 1), BuildingBlock: UVAHIK_clean_linker_0, # of connection points: 2
#     Edge 40, Type (0, 1), BuildingBlock: UVAHIK_clean_linker_0, # of connection points: 2
#     Edge 41, Type (0, 1), BuildingBlock: UVAHIK_clean_linker_0, # of connection points: 2
#     Edge 42, Type (0, 1), BuildingBlock: UVAHIK_clean_linker_0, # of connection points: 2
#     Edge 43, Type (0, 1), BuildingBlock: UVAHIK_clean_linker_0, # of connection points: 2
#     Edge 44, Type (0, 1), BuildingBlock: UVAHIK_clean_linker_0, # of connection points: 2
#     Edge 45, Type (0, 1), BuildingBlock: UVAHIK_clean_linker_0, # of connection points: 2
#     Edge 46, Type (0, 1), BuildingBlock: UVAHIK_clean_linker_0, # of connection points: 2
#     Edge 47, Type (0, 1), BuildingBlock: UVAHIK_clean_linker_0, # of connection points: 2
#     Edge 48, Type (0, 1), BuildingBlock: UVAHIK_clean_linker_0, # of connection points: 2
#     Edge 49, Type (0, 1), BuildingBlock: UVAHIK_clean_linker_0, # of connection points: 2
#     Edge 50, Type (0, 1), BuildingBlock: UVAHIK_clean_linker_0, # of connection points: 2
#     Edge 51, Type (0, 1), BuildingBlock: UVAHIK_clean_linker_0, # of connection points: 2
#     Edge 52, Type (0, 1), BuildingBlock: UVAHIK_clean_linker_0, # of connection points: 2
#     Edge 53, Type (0, 1), BuildingBlock: UVAHIK_clean_linker_0, # of connection points: 2
#     Edge 54, Type (0, 1), BuildingBlock: UVAHIK_clean_linker_0, # of connection points: 2
#     Edge 55, Type (0, 1), BuildingBlock: UVAHIK_clean_linker_0, # of connection points: 2
#     Edge 56, Type (0, 1), BuildingBlock: UVAHIK_clean_linker_0, # of connection points: 2
#     Edge 57, Type (0, 1), BuildingBlock: UVAHIK_clean_linker_0, # of connection points: 2
#     Edge 58, Type (0, 1), BuildingBlock: UVAHIK_clean_linker_0, # of connection points: 2
#     Edge 59, Type (0, 1), BuildingBlock: UVAHIK_clean_linker_0, # of connection points: 2
#     Edge 60, Type (0, 1), BuildingBlock: UVAHIK_clean_linker_0, # of connection points: 2
#     Edge 61, Type (0, 1), BuildingBlock: UVAHIK_clean_linker_0, # of connection points: 2
#     Edge 62, Type (0, 1), BuildingBlock: UVAHIK_clean_linker_0, # of connection points: 2
#     Edge 63, Type (0, 1), BuildingBlock: UVAHIK_clean_linker_0, # of connection points: 2
#     Edge 64, Type (0, 1), BuildingBlock: UVAHIK_clean_linker_0, # of connection points: 2
#     Edge 65, Type (0, 1), BuildingBlock: UVAHIK_clean_linker_0, # of connection points: 2
#     Edge 66, Type (0, 1), BuildingBlock: UVAHIK_clean_linker_0, # of connection points: 2
#     Edge 67, Type (0, 1), BuildingBlock: UVAHIK_clean_linker_0, # of connection points: 2
#     Edge 68, Type (0, 1), BuildingBlock: UVAHIK_clean_linker_0, # of connection points: 2
#     Edge 69, Type (0, 1), BuildingBlock: UVAHIK_clean_linker_0, # of connection points: 2
#     Edge 70, Type (0, 1), BuildingBlock: UVAHIK_clean_linker_0, # of connection points: 2
#     Edge 71, Type (0, 1), BuildingBlock: UVAHIK_clean_linker_0, # of connection points: 2
#     Edge 72, Type (0, 1), BuildingBlock: UVAHIK_clean_linker_0, # of connection points: 2
#     Edge 73, Type (0, 1), BuildingBlock: UVAHIK_clean_linker_0, # of connection points: 2
#     Edge 74, Type (0, 1), BuildingBlock: UVAHIK_clean_linker_0, # of connection points: 2
#     Edge 75, Type (0, 1), BuildingBlock: UVAHIK_clean_linker_0, # of connection points: 2
# Relax obj value: 0.000
# Max RMSD: 0.004
# Mean RMSD: 0.003
data_MOF--net-ctn--node1-UXUYUI_clean_sbu_0--node2-MIDCAF_clean_linker_0--edge1-UVAHIK_clean_linker_0
_symmetry_space_group_name_H-M    P1
_symmetry_Int_Tables_number       1
_symmetry_cell_setting            triclinic
loop_
_symmetry_equiv_pos_as_xyz
'x, y, z'
_cell_length_a     97.077713
_cell_length_b     97.061863
_cell_length_c     97.063529
_cell_angle_alpha  90.03185
_cell_angle_beta   90.025727
_cell_angle_gamma 90.078058
loop_
_atom_site_label
_atom_site_type_symbol
_atom_site_fract_x
_atom_site_fract_y
_atom_site_fract_z
_atom_type_partial_charge
C0 C 0.99319 0.03321 0.06803 0.0
C1 C 0.99629 0.02332 0.07814 0.0
C2 C 0.00834 0.01542 0.07669 0.0
C3 C 0.01708 0.01738 0.06541 0.0
H4 H 0.04794 0.99826 0.04324 0.0
H5 H 0.06734 0.98286 0.03956 0.0
H6 H 0.08292 0.00996 0.00788 0.0
H7 H 0.06335 0.0252 0.01126 0.0
H8 H 0.03844 0.04599 0.99749 0.0
H9 H 0.03519 0.06597 0.98273 0.0
H10 H 0.01497 0.08731 0.01621 0.0
H11 H 0.01757 0.06704 0.03066 0.0
H12 H 0.99922 0.04294 0.04923 0.0
H13 H 0.98389 0.03931 0.06868 0.0
H14 H 0.01117 0.00786 0.08438 0.0
H15 H 0.02631 0.01117 0.06469 0.0
N16 N 0.03383 0.02064 0.04092 0.0
N17 N 0.04049 0.03369 0.02172 0.0
N18 N 0.02163 0.04063 0.0351 0.0
C19 C 0.04244 0.02262 0.03006 0.0
C20 C 0.03012 0.04275 0.02419 0.0
C21 C 0.02337 0.02957 0.04349 0.0
C22 C 0.05406 0.01302 0.02757 0.0
C23 C 0.05546 0.00094 0.03544 0.0
C24 C 0.06664 0.99212 0.03339 0.0
C25 C 0.07673 0.99519 0.02347 0.0
C26 C 0.07525 0.00718 0.01549 0.0
C27 C 0.06404 0.01597 0.01749 0.0
C28 C 0.02824 0.05492 0.01523 0.0
C29 C 0.03328 0.05495 0.00167 0.0
C30 C 0.03148 0.06648 0.99323 0.0
C31 C 0.02483 0.07835 0.99823 0.0
C32 C 0.01988 0.0783 0.01186 0.0
C33 C 0.02145 0.06669 0.02021 0.0
C34 C 0.01403 0.02735 0.05536 0.0
C35 C 0.00197 0.03524 0.05681 0.0
C36 C 0.25516 0.67593 0.23711 0.0
C37 C 0.24772 0.67023 0.22608 0.0
C38 C 0.2486 0.67642 0.21304 0.0
C39 C 0.25677 0.68811 0.21105 0.0
H40 H 0.25882 0.72421 0.18767 0.0
H41 H 0.25533 0.73902 0.16777 0.0
H42 H 0.29292 0.76089 0.17742 0.0
H43 H 0.29625 0.74634 0.19753 0.0
H44 H 0.31144 0.74034 0.22533 0.0
H45 H 0.33098 0.74425 0.24057 0.0
H46 H 0.31869 0.70936 0.2653 0.0
H47 H 0.29927 0.70525 0.24998 0.0
H48 H 0.26921 0.69159 0.24377 0.0
H49 H 0.2547 0.6713 0.24725 0.0
H50 H 0.24288 0.67226 0.20439 0.0
H51 H 0.25726 0.69261 0.20086 0.0
N52 N 0.27155 0.71408 0.20866 0.0
N53 N 0.29024 0.72778 0.21552 0.0
N54 N 0.28372 0.70872 0.22882 0.0
C55 C 0.2799 0.7251 0.20645 0.0
C56 C 0.29222 0.71965 0.22673 0.0
C57 C 0.27339 0.70585 0.21983 0.0
C58 C 0.27782 0.73406 0.19425 0.0
C59 C 0.26635 0.73217 0.18558 0.0
C60 C 0.26438 0.74062 0.1741 0.0
C61 C 0.27385 0.75114 0.17098 0.0
C62 C 0.28532 0.75302 0.17963 0.0
C63 C 0.28726 0.7446 0.19114 0.0
C64 C 0.30378 0.72243 0.23636 0.0
C65 C 0.31284 0.73351 0.23404 0.0
C66 C 0.32402 0.73581 0.24282 0.0
C67 C 0.32641 0.72709 0.25412 0.0
C68 C 0.31724 0.71615 0.25657 0.0
C69 C 0.30605 0.71385 0.2478 0.0
C70 C 0.2644 0.69372 0.22203 0.0
C71 C 0.2635 0.6875 0.23508 0.0
C72 C 0.97771 0.41984 0.0112 0.0
C73 C 0.97435 0.42033 0.99715 0.0
C74 C 0.96937 0.43264 0.99147 0.0
C75 C 0.96758 0.44427 -0.00022 0.0
H76 H 0.93596 0.47372 0.00974 0.0
H77 H 0.91674 0.48932 0.00605 0.0
H78 H 0.93423 0.51786 0.03546 0.0
H79 H 0.95323 0.50207 0.0395 0.0
H80 H 0.97289 0.48843 0.06262 0.0
H81 H 0.98733 0.49153 0.08286 0.0
H82 H 0.01338 0.45806 0.06941 0.0
H83 H 0.99872 0.45466 0.04936 0.0
H84 H 0.97896 0.43091 0.03025 0.0
H85 H 0.98161 0.41043 0.01575 0.0
H86 H 0.96668 0.4332 0.98065 0.0
H87 H 0.96362 0.45363 0.99518 0.0
N88 N 0.95928 0.4655 0.01968 0.0
N89 N 0.96565 0.47849 0.03905 0.0
N90 N 0.97737 0.45804 0.03387 0.0
C91 C 0.95739 0.47669 0.02788 0.0
C92 C 0.97568 0.46924 0.0421 0.0
C93 C 0.96924 0.45614 0.02263 0.0
C94 C 0.94613 0.48658 0.02498 0.0
C95 C 0.93577 0.48335 0.01538 0.0
C96 C 0.92475 0.49235 0.0132 0.0
C97 C 0.92388 0.50484 0.02049 0.0
C98 C 0.93442 0.50821 0.02985 0.0
C99 C 0.94538 0.49917 0.03211 0.0
C100 C 0.9846 0.47127 0.05434 0.0
C101 C 0.98169 0.48172 0.06395 0.0
C102 C 0.99003 0.48356 0.07554 0.0
C103 C 0.00153 0.47505 0.07778 0.0
C104 C 0.00448 0.46466 0.06813 0.0
C105 C 0.9961 0.46276 0.05658 0.0
C106 C 0.97107 0.44385 0.01383 0.0
C107 C 0.97625 0.43155 0.01944 0.0
C108 C 0.73727 0.75561 0.1772 0.0
C109 C 0.72767 0.74537 0.17356 0.0
C110 C 0.71561 0.74399 0.18146 0.0
C111 C 0.71313 0.75273 0.19262 0.0
H112 H 0.68709 0.75853 0.2254 0.0
H113 H 0.66724 0.75489 0.24027 0.0
H114 H 0.67649 0.7927 0.2619 0.0
H115 H 0.6965 0.79625 0.24726 0.0
H116 H 0.71967 0.81621 0.23492 0.0
H117 H 0.73424 0.83637 0.23801 0.0
H118 H 0.76629 0.81687 0.21403 0.0
H119 H 0.7515 0.79694 0.21048 0.0
H120 H 0.74238 0.77219 0.19077 0.0
H121 H 0.74677 0.75681 0.17148 0.0
H122 H 0.70792 0.73633 0.17884 0.0
H123 H 0.70364 0.75146 0.19835 0.0
N124 N 0.70855 0.77087 0.21582 0.0
N125 N 0.71409 0.79085 0.22824 0.0
N126 N 0.72812 0.78375 0.20993 0.0
C127 C 0.70566 0.77985 0.22618 0.0
C128 C 0.72535 0.79285 0.22019 0.0
C129 C 0.71975 0.77275 0.20764 0.0
C130 C 0.69345 0.77768 0.23511 0.0
C131 C 0.68492 0.76609 0.23332 0.0
C132 C 0.67348 0.76402 0.2418 0.0
C133 C 0.67028 0.7735 0.25228 0.0
C134 C 0.67878 0.7851 0.25406 0.0
C135 C 0.69022 0.78717 0.24559 0.0
C136 C 0.73439 0.80496 0.22242 0.0
C137 C 0.72984 0.8162 0.23032 0.0
C138 C 0.73824 0.82775 0.23216 0.0
C139 C 0.75147 0.82829 0.22628 0.0
C140 C 0.75607 0.81695 0.21851 0.0
C141 C 0.74761 0.80547 0.21653 0.0
C142 C 0.72263 0.76312 0.19613 0.0
C143 C 0.73477 0.76439 0.18833 0.0
C144 C 0.0335 0.93252 0.50584 0.0
C145 C 0.02317 0.92277 0.50296 0.0
C146 C 0.01493 0.9246 0.49119 0.0
C147 C 0.01706 0.93583 0.48244 0.0
H148 H 0.9989 0.95815 0.45076 0.0
H149 H 0.98413 0.96157 0.4308 0.0
H150 H 0.01391 0.98991 0.41365 0.0
H151 H 0.02846 0.98686 0.43379 0.0
H152 H 0.04907 0.00107 0.45667 0.0
H153 H 0.06892 0.01596 0.46023 0.0
H154 H 0.08549 0.98687 0.48957 0.0
H155 H 0.06542 0.9722 0.48637 0.0
H156 H 0.04375 0.95098 0.49963 0.0
H157 H 0.03989 0.93154 0.51494 0.0
H158 H 0.007 0.91719 0.48856 0.0
H159 H 0.0106 0.93681 0.47339 0.0
N160 N 0.02158 0.95945 0.46483 0.0
N161 N 0.035 0.97841 0.45816 0.0
N162 N 0.04102 0.96568 0.47776 0.0
C163 C 0.02399 0.97003 0.45598 0.0
C164 C 0.04355 0.97632 0.46903 0.0
C165 C 0.03005 0.95721 0.47575 0.0
C166 C 0.01489 0.97222 0.44391 0.0
C167 C 0.0023 0.96514 0.44276 0.0
C168 C 0.99385 0.96704 0.43125 0.0
C169 C 0.99783 0.97598 0.42057 0.0
C170 C 0.0104 0.9831 0.42176 0.0
C171 C 0.0188 0.98129 0.43331 0.0
C172 C 0.05562 0.98542 0.47123 0.0
C173 C 0.05693 0.99784 0.4639 0.0
C174 C 0.06838 0.00636 0.46589 0.0
C175 C 0.07886 0.00261 0.47517 0.0
C176 C 0.07753 0.99019 0.48251 0.0
C177 C 0.06603 0.98173 0.48061 0.0
C178 C 0.02751 0.94549 0.48523 0.0
C179 C 0.03567 0.94372 0.49708 0.0
C180 C 0.2342 0.7409 0.82549 0.0
C181 C 0.22673 0.75322 0.82678 0.0
C182 C 0.21749 0.75693 0.81628 0.0
C183 C 0.21561 0.74842 0.80482 0.0
H184 H 0.19001 0.74245 0.77175 0.0
H185 H 0.17027 0.74603 0.75668 0.0
H186 H 0.17989 0.70842 0.73495 0.0
H187 H 0.19951 0.70467 0.75009 0.0
H188 H 0.22518 0.68743 0.75848 0.0
H189 H 0.23954 0.66713 0.75548 0.0
H190 H 0.26322 0.67852 0.79141 0.0
H191 H 0.24873 0.69871 0.79463 0.0
H192 H 0.23829 0.72298 0.81338 0.0
H193 H 0.24151 0.73785 0.83335 0.0
H194 H 0.2115 0.76631 0.81706 0.0
H195 H 0.20831 0.75155 0.79699 0.0
N196 N 0.21035 0.72927 0.78257 0.0
N197 N 0.21633 0.70959 0.76994 0.0
N198 N 0.22898 0.71564 0.78961 0.0
C199 C 0.20804 0.72071 0.77174 0.0
C200 C 0.22685 0.70699 0.7788 0.0
C201 C 0.22079 0.72681 0.79156 0.0
C202 C 0.19635 0.72323 0.76221 0.0
C203 C 0.18797 0.73494 0.76375 0.0
C204 C 0.17669 0.73705 0.75506 0.0
C205 C 0.1735 0.72748 0.74466 0.0
C206 C 0.18197 0.71588 0.74299 0.0
C207 C 0.19328 0.71378 0.75164 0.0
C208 C 0.23575 0.69474 0.77682 0.0
C209 C 0.23344 0.68565 0.76576 0.0
C210 C 0.24173 0.67402 0.76398 0.0
C211 C 0.25252 0.6712 0.7732 0.0
C212 C 0.25488 0.6803 0.78423 0.0
C213 C 0.2466 0.69193 0.78601 0.0
C214 C 0.22301 0.73603 0.80355 0.0
C215 C 0.2324 0.73242 0.81399 0.0
C216 C 0.98538 0.57386 0.49305 0.0
C217 C 0.97598 0.5767 0.50368 0.0
C218 C 0.96489 0.56763 0.50583 0.0
C219 C 0.96317 0.55603 0.49746 0.0
H220 H 0.93661 0.52413 0.48964 0.0
H221 H 0.91624 0.50968 0.49193 0.0
H222 H 0.93094 0.48358 0.45902 0.0
H223 H 0.95119 0.49815 0.4565 0.0
H224 H 0.97876 0.5053 0.44136 0.0
H225 H 0.99422 0.50167 0.42194 0.0
H226 H 0.0147 0.54015 0.43096 0.0
H227 H 0.9992 0.54392 0.4503 0.0
H228 H 0.99113 0.56043 0.4766 0.0
H229 H 0.99414 0.58054 0.49126 0.0
H230 H 0.95739 0.56962 0.51384 0.0
H231 H 0.95445 0.54933 0.49936 0.0
N232 N 0.95965 0.5325 0.47947 0.0
N233 N 0.96693 0.51901 0.46081 0.0
N234 N 0.97966 0.53847 0.46735 0.0
C235 C 0.95774 0.52145 0.47108 0.0
C236 C 0.97792 0.52746 0.45887 0.0
C237 C 0.9706 0.54105 0.47769 0.0
C238 C 0.94556 0.51236 0.47285 0.0
C239 C 0.93555 0.5153 0.4829 0.0
C240 C 0.92388 0.50696 0.48427 0.0
C241 C 0.92195 0.49549 0.47563 0.0
C242 C 0.93202 0.49246 0.46569 0.0
C243 C 0.94368 0.50079 0.46431 0.0
C244 C 0.98767 0.52494 0.44739 0.0
C245 C 0.98657 0.51299 0.43925 0.0
C246 C 0.99549 0.51085 0.42816 0.0
C247 C 0.00564 0.52064 0.4249 0.0
C248 C 0.00686 0.5325 0.43312 0.0
C249 C 0.99801 0.53461 0.44426 0.0
C250 C 0.97253 0.55322 0.48675 0.0
C251 C 0.98368 0.56226 0.4847 0.0
C252 C 0.82565 0.76455 0.75799 0.0
C253 C 0.82834 0.77348 0.74691 0.0
C254 C 0.81915 0.78437 0.74434 0.0
C255 C 0.8076 0.78632 0.75268 0.0
H256 H 0.77873 0.81596 0.76407 0.0
H257 H 0.7641 0.83605 0.76101 0.0
H258 H 0.73221 0.81644 0.78517 0.0
H259 H 0.74707 0.79661 0.78869 0.0
H260 H 0.75996 0.77568 0.81228 0.0
H261 H 0.75617 0.76059 0.83195 0.0
H262 H 0.78816 0.73339 0.81733 0.0
H263 H 0.79194 0.74838 0.79756 0.0
H264 H 0.81242 0.75944 0.77482 0.0
H265 H 0.83262 0.75617 0.76036 0.0
H266 H 0.82081 0.79132 0.73577 0.0
H267 H 0.80076 0.79482 0.75037 0.0
N268 N 0.7843 0.79055 0.77069 0.0
N269 N 0.77058 0.78371 0.78934 0.0
N270 N 0.79001 0.77075 0.78327 0.0
C271 C 0.77318 0.79265 0.7789 0.0
C272 C 0.77896 0.77274 0.79162 0.0
C273 C 0.79275 0.77959 0.77277 0.0
C274 C 0.7641 0.80469 0.77666 0.0
C275 C 0.76859 0.81592 0.76871 0.0
C276 C 0.76015 0.82743 0.76689 0.0
C277 C 0.74695 0.82792 0.77285 0.0
C278 C 0.74241 0.81658 0.78065 0.0
C279 C 0.75091 0.80514 0.7826 0.0
C280 C 0.7763 0.76329 0.80332 0.0
C281 C 0.76616 0.76646 0.81318 0.0
C282 C 0.76403 0.75785 0.82451 0.0
C283 C 0.7719 0.74584 0.8262 0.0
C284 C 0.78186 0.74253 0.81624 0.0
C285 C 0.78407 0.75118 0.80495 0.0
C286 C 0.80493 0.77742 0.76381 0.0
C287 C 0.81409 0.76649 0.76633 0.0
C288 C 0.32376 0.26445 0.25584 0.0
C289 C 0.32904 0.27538 0.24798 0.0
C290 C 0.32241 0.28822 0.24841 0.0
C291 C 0.31069 0.29009 0.25654 0.0
H292 H 0.27312 0.3116 0.25736 0.0
H293 H 0.25822 0.33144 0.25367 0.0
H294 H 0.23857 0.32405 0.29288 0.0
H295 H 0.25348 0.30422 0.29667 0.0
H296 H 0.25741 0.27402 0.30985 0.0
H297 H 0.25343 0.25871 0.3293 0.0
H298 H 0.29222 0.23845 0.32128 0.0
H299 H 0.29605 0.25347 0.30163 0.0
H300 H 0.30839 0.25776 0.27015 0.0
H301 H 0.32874 0.25447 0.25574 0.0
H302 H 0.32623 0.29679 0.24236 0.0
H303 H 0.30583 0.30013 0.25667 0.0
N304 N 0.28479 0.29221 0.27139 0.0
N305 N 0.27124 0.28545 0.2902 0.0
N306 N 0.29066 0.2725 0.28403 0.0
C307 C 0.27372 0.29433 0.27967 0.0
C308 C 0.27966 0.2745 0.29245 0.0
C309 C 0.2933 0.28131 0.27349 0.0
C310 C 0.26453 0.3063 0.27733 0.0
C311 C 0.26564 0.31417 0.26521 0.0
C312 C 0.25704 0.3255 0.26304 0.0
C313 C 0.24724 0.32929 0.27299 0.0
C314 C 0.24612 0.32144 0.28509 0.0
C315 C 0.25462 0.31003 0.28721 0.0
C316 C 0.27707 0.26502 0.30415 0.0
C317 C 0.26509 0.26628 0.31219 0.0
C318 C 0.26283 0.25754 0.32341 0.0
C319 C 0.27251 0.24736 0.32689 0.0
C320 C 0.28444 0.24603 0.31878 0.0
C321 C 0.28667 0.25473 0.30754 0.0
C322 C 0.30548 0.27921 0.26457 0.0
C323 C 0.31215 0.26637 0.26413 0.0
C324 C 0.48623 0.92595 0.50647 0.0
C325 C 0.47666 0.92257 0.49614 0.0
C326 C 0.4651 0.93106 0.49427 0.0
C327 C 0.46307 0.9426 0.50262 0.0
H328 H 0.43436 0.97219 0.51219 0.0
H329 H 0.41426 0.98683 0.50877 0.0
H330 H 0.43148 0.01709 0.5365 0.0
H331 H 0.45163 0.00251 0.53997 0.0
H332 H 0.47222 0.98854 0.56348 0.0
H333 H 0.48676 0.99169 0.58363 0.0
H334 H 0.51648 0.96326 0.56662 0.0
H335 H 0.50173 0.95975 0.54666 0.0
H336 H 0.49172 0.93969 0.5228 0.0
H337 H 0.49517 0.91954 0.50826 0.0
H338 H 0.45764 0.92882 0.48627 0.0
H339 H 0.45401 0.94886 0.5009 0.0
N340 N 0.45914 0.96628 0.52018 0.0
N341 N 0.46549 0.97964 0.53929 0.0
N342 N 0.47883 0.96056 0.53291 0.0
C343 C 0.45675 0.97719 0.52863 0.0
C344 C 0.47655 0.97137 0.54151 0.0
C345 C 0.47018 0.95794 0.52222 0.0
C346 C 0.44462 0.98616 0.52638 0.0
C347 C 0.43391 0.98198 0.51754 0.0
C348 C 0.42235 0.99032 0.51563 0.0
C349 C 0.42131 0.00307 0.52238 0.0
C350 C 0.43206 0.00734 0.53108 0.0
C351 C 0.44356 0.99894 0.53313 0.0
C352 C 0.48576 0.97383 0.55345 0.0
C353 C 0.48188 0.98299 0.56398 0.0
C354 C 0.49027 0.98486 0.57554 0.0
C355 C 0.5028 0.97771 0.5768 0.0
C356 C 0.50679 0.96875 0.56613 0.0
C357 C 0.49835 0.96679 0.55463 0.0
C358 C 0.47255 0.94591 0.51309 0.0
C359 C 0.48419 0.93748 0.51486 0.0
C360 C 0.23681 0.25503 0.67644 0.0
C361 C 0.22674 0.24552 0.67217 0.0
C362 C 0.21427 0.24481 0.6795 0.0
C363 C 0.21188 0.25348 0.69074 0.0
H364 H 0.18381 0.26158 0.72119 0.0
H365 H 0.16332 0.25868 0.73534 0.0
H366 H 0.17764 0.29081 0.76266 0.0
H367 H 0.19794 0.294 0.74835 0.0
H368 H 0.21992 0.31552 0.73467 0.0
H369 H 0.23472 0.33547 0.73794 0.0
H370 H 0.26642 0.31596 0.71352 0.0
H371 H 0.2514 0.29622 0.70981 0.0
H372 H 0.24238 0.27099 0.69058 0.0
H373 H 0.24662 0.2557 0.67117 0.0
H374 H 0.2062 0.23775 0.67638 0.0
H375 H 0.20208 0.25274 0.69602 0.0
N376 N 0.20773 0.27106 0.71444 0.0
N377 N 0.21374 0.29059 0.72733 0.0
N378 N 0.22781 0.28337 0.70909 0.0
C379 C 0.20499 0.27992 0.72492 0.0
C380 C 0.22517 0.29239 0.71946 0.0
C381 C 0.21913 0.27269 0.70649 0.0
C382 C 0.19255 0.27804 0.73359 0.0
C383 C 0.18261 0.26804 0.73021 0.0
C384 C 0.17088 0.26632 0.73837 0.0
C385 C 0.16882 0.27451 0.75014 0.0
C386 C 0.17878 0.28447 0.75355 0.0
C387 C 0.19048 0.28624 0.74536 0.0
C388 C 0.23444 0.30427 0.72193 0.0
C389 C 0.23007 0.31545 0.73003 0.0
C390 C 0.2386 0.32688 0.73198 0.0
C391 C 0.25179 0.32737 0.726 0.0
C392 C 0.25624 0.31608 0.71808 0.0
C393 C 0.24765 0.3047 0.71601 0.0
C394 C 0.22187 0.26314 0.69488 0.0
C395 C 0.2344 0.26376 0.68763 0.0
C396 C 0.75326 0.17538 0.73581 0.0
C397 C 0.74426 0.17137 0.72521 0.0
C398 C 0.744 0.17904 0.71294 0.0
C399 C 0.75259 0.19048 0.7113 0.0
H400 H 0.7564 0.22655 0.68907 0.0
H401 H 0.75326 0.24181 0.66948 0.0
H402 H 0.79205 0.26169 0.67867 0.0
H403 H 0.79505 0.24668 0.69851 0.0
H404 H 0.80854 0.241 0.72802 0.0
H405 H 0.82814 0.24406 0.74341 0.0
H406 H 0.81859 0.20541 0.76328 0.0
H407 H 0.79906 0.20222 0.74785 0.0
H408 H 0.76884 0.18948 0.74247 0.0
H409 H 0.75376 0.16958 0.74533 0.0
H410 H 0.73706 0.17624 0.70465 0.0
H411 H 0.75214 0.19613 0.70169 0.0
N412 N 0.76932 0.2151 0.7092 0.0
N413 N 0.78854 0.22794 0.71624 0.0
N414 N 0.78171 0.20849 0.72883 0.0
C415 C 0.77797 0.22594 0.70728 0.0
C416 C 0.79048 0.21926 0.72705 0.0
C417 C 0.7711 0.20633 0.71995 0.0
C418 C 0.776 0.23535 0.6954 0.0
C419 C 0.76427 0.23418 0.68696 0.0
C420 C 0.7625 0.24289 0.67565 0.0
C421 C 0.77242 0.25295 0.67246 0.0
C422 C 0.78411 0.25418 0.68094 0.0
C423 C 0.78586 0.24551 0.69229 0.0
C424 C 0.80221 0.22134 0.73664 0.0
C425 C 0.81058 0.23314 0.73567 0.0
C426 C 0.82178 0.23495 0.74454 0.0
C427 C 0.82491 0.22496 0.75453 0.0
C428 C 0.81652 0.21321 0.75557 0.0
C429 C 0.80527 0.21144 0.74676 0.0
C430 C 0.76174 0.19441 0.72184 0.0
C431 C 0.76196 0.18674 0.73412 0.0
C432 C 0.49235 0.528 0.56526 0.0
C433 C 0.49748 0.52213 0.57749 0.0
C434 C 0.51139 0.51806 0.57791 0.0
C435 C 0.51991 0.51982 0.56644 0.0
H436 H 0.55016 0.4983 0.54261 0.0
H437 H 0.57042 0.48389 0.53919 0.0
H438 H 0.58566 0.51239 0.50864 0.0
H439 H 0.56546 0.52689 0.51203 0.0
H440 H 0.54285 0.54725 0.49833 0.0
H441 H 0.53888 0.56696 0.48329 0.0
H442 H 0.50655 0.58113 0.51032 0.0
H443 H 0.51051 0.56153 0.52544 0.0
H444 H 0.49669 0.53463 0.54468 0.0
H445 H 0.48164 0.53098 0.56437 0.0
H446 H 0.51584 0.51376 0.58719 0.0
H447 H 0.5306 0.51669 0.56717 0.0
N448 N 0.53528 0.52031 0.54051 0.0
N449 N 0.54105 0.53303 0.5208 0.0
N450 N 0.52128 0.53867 0.53345 0.0
C451 C 0.54385 0.52257 0.52967 0.0
C452 C 0.52979 0.54113 0.52262 0.0
C453 C 0.52397 0.52829 0.54244 0.0
C454 C 0.55615 0.51378 0.5276 0.0
C455 C 0.55782 0.50154 0.53516 0.0
C456 C 0.56939 0.49322 0.53316 0.0
C457 C 0.57961 0.49702 0.52365 0.0
C458 C 0.578 0.50927 0.51613 0.0
C459 C 0.56637 0.51753 0.51803 0.0
C460 C 0.52704 0.5528 0.51315 0.0
C461 C 0.53486 0.55453 0.50107 0.0
C462 C 0.53255 0.56578 0.4924 0.0
C463 C 0.52244 0.5756 0.49565 0.0
C464 C 0.51453 0.57381 0.50763 0.0
C465 C 0.51676 0.56251 0.51625 0.0
C466 C 0.51481 0.52594 0.55437 0.0
C467 C 0.50095 0.53001 0.5539 0.0
C468 C 0.53383 0.4312 0.00406 0.0
C469 C 0.52364 0.42141 0.00082 0.0
C470 C 0.51555 0.42342 0.98897 0.0
C471 C 0.51768 0.43487 0.98051 0.0
H472 H 0.49861 0.45914 0.95066 0.0
H473 H 0.4837 0.46279 0.93087 0.0
H474 H 0.51406 0.49009 0.91305 0.0
H475 H 0.52877 0.48682 0.93307 0.0
H476 H 0.54835 0.50202 0.95913 0.0
H477 H 0.56843 0.51655 0.96302 0.0
H478 H 0.58797 0.48341 0.98545 0.0
H479 H 0.56763 0.46918 0.98212 0.0
H480 H 0.54397 0.44991 0.9984 0.0
H481 H 0.54009 0.43011 0.01323 0.0
H482 H 0.50774 0.41599 0.98606 0.0
H483 H 0.51133 0.436 0.9714 0.0
N484 N 0.52184 0.45925 0.96386 0.0
N485 N 0.53536 0.47825 0.9575 0.0
N486 N 0.54165 0.46477 0.97653 0.0
C487 C 0.5242 0.47008 0.9553 0.0
C488 C 0.54412 0.47566 0.9681 0.0
C489 C 0.5305 0.45653 0.97451 0.0
C490 C 0.51492 0.47266 0.94346 0.0
C491 C 0.5021 0.46597 0.94255 0.0
C492 C 0.49357 0.468 0.93114 0.0
C493 C 0.49769 0.47667 0.92029 0.0
C494 C 0.51045 0.48349 0.92128 0.0
C495 C 0.51893 0.48156 0.93275 0.0
C496 C 0.55638 0.48446 0.97034 0.0
C497 C 0.55694 0.49786 0.9649 0.0
C498 C 0.56851 0.50616 0.96707 0.0
C499 C 0.5799 0.50119 0.97454 0.0
C500 C 0.57933 0.48773 0.97989 0.0
C501 C 0.56767 0.47951 0.97791 0.0
C502 C 0.52799 0.44457 0.98366 0.0
C503 C 0.53601 0.44261 0.99557 0.0
C504 C 0.72861 0.23735 0.32777 0.0
C505 C 0.7218 0.25007 0.32872 0.0
C506 C 0.71369 0.25453 0.31759 0.0
C507 C 0.71239 0.24641 0.30577 0.0
H508 H 0.69123 0.24363 0.26903 0.0
H509 H 0.6722 0.24792 0.2532 0.0
H510 H 0.67949 0.20868 0.23358 0.0
H511 H 0.69848 0.20428 0.24939 0.0
H512 H 0.73378 0.19455 0.25478 0.0
H513 H 0.74867 0.17439 0.25185 0.0
H514 H 0.75086 0.16954 0.29596 0.0
H515 H 0.73631 0.1899 0.29899 0.0
H516 H 0.73283 0.21954 0.31553 0.0
H517 H 0.73504 0.23372 0.33613 0.0
H518 H 0.70822 0.26423 0.31809 0.0
H519 H 0.70604 0.25016 0.2974 0.0
N520 N 0.70854 0.22832 0.28235 0.0
N521 N 0.71555 0.20933 0.26916 0.0
N522 N 0.72608 0.21385 0.29045 0.0
C523 C 0.70723 0.22045 0.27083 0.0
C524 C 0.725 0.20599 0.27892 0.0
C525 C 0.71796 0.2251 0.2922 0.0
C526 C 0.69635 0.22356 0.26056 0.0
C527 C 0.68886 0.23594 0.26129 0.0
C528 C 0.678 0.23845 0.25217 0.0
C529 C 0.67433 0.2286 0.24221 0.0
C530 C 0.682 0.21638 0.24126 0.0
C531 C 0.69294 0.21391 0.25029 0.0
C532 C 0.73391 0.19379 0.27711 0.0
C533 C 0.73745 0.18919 0.26385 0.0
C534 C 0.74599 0.17773 0.26216 0.0
C535 C 0.75083 0.17049 0.27369 0.0
C536 C 0.74719 0.17497 0.28694 0.0
C537 C 0.73893 0.18663 0.28865 0.0
C538 C 0.71926 0.23369 0.30477 0.0
C539 C 0.7274 0.22927 0.31591 0.0
C540 C 0.48756 0.07305 0.99346 0.0
C541 C 0.47786 0.07663 0.00359 0.0
C542 C 0.46603 0.06841 0.00514 0.0
C543 C 0.46392 0.05692 0.99672 0.0
H544 H 0.43352 0.02936 0.98339 0.0
H545 H 0.4128 0.01547 0.98588 0.0
H546 H 0.43299 0.98165 0.96509 0.0
H547 H 0.45345 0.9958 0.96204 0.0
H548 H 0.47522 0.00884 0.9377 0.0
H549 H 0.49076 0.00486 0.91847 0.0
H550 H 0.51957 0.03419 0.93567 0.0
H551 H 0.50385 0.03849 0.95469 0.0
H552 H 0.49318 0.05913 0.97736 0.0
H553 H 0.49688 0.07906 0.99213 0.0
H554 H 0.45827 0.07099 0.01273 0.0
H555 H 0.45463 0.0509 0.99816 0.0
N556 N 0.45984 0.03332 0.97903 0.0
N557 N 0.46694 0.01921 0.96075 0.0
N558 N 0.48048 0.03808 0.96743 0.0
C559 C 0.45763 0.02225 0.97075 0.0
C560 C 0.47838 0.02709 0.95901 0.0
C561 C 0.47128 0.04126 0.97748 0.0
C562 C 0.44513 0.01369 0.97249 0.0
C563 C 0.43353 0.01895 0.97936 0.0
C564 C 0.42165 0.01094 0.98085 0.0
C565 C 0.42116 0.99738 0.9757 0.0
C566 C 0.43285 0.99211 0.96895 0.0
C567 C 0.44464 0.0002 0.96727 0.0
C568 C 0.48822 0.02405 0.94773 0.0
C569 C 0.48489 0.0144 0.93744 0.0
C570 C 0.49385 0.01206 0.92643 0.0
C571 C 0.50641 0.01924 0.92547 0.0
C572 C 0.50988 0.02866 0.93593 0.0
C573 C 0.50088 0.03107 0.9469 0.0
C574 C 0.47359 0.05337 0.98654 0.0
C575 C 0.48546 0.06156 0.98504 0.0
Li576 Li 0.26267 0.88287 0.99827 0.0
Li577 Li 0.25086 0.86561 0.01261 0.0
Li578 Li 0.24727 0.86587 0.98693 0.0
Li579 Li 0.23704 0.88319 0.00201 0.0
C580 C 0.27624 0.85654 0.99279 0.0
N581 N 0.30012 0.84452 0.983 0.0
C582 C 0.28506 0.84957 0.00179 0.0
C583 C 0.27951 0.85725 0.97878 0.0
C584 C 0.29711 0.84361 0.99665 0.0
C585 C 0.29164 0.85114 0.97404 0.0
C586 C 0.25575 0.88704 0.02911 0.0
C587 C 0.25007 0.88553 0.05324 0.0
N588 N 0.26332 0.88874 0.0565 0.0
C589 C 0.26929 0.89041 0.03268 0.0
C590 C 0.24602 0.88467 0.03945 0.0
C591 C 0.27292 0.8912 0.04659 0.0
C592 C 0.27644 0.90799 0.99526 0.0
N593 N 0.27861 0.89419 0.99622 0.0
C594 C 0.30289 0.89741 0.99384 0.0
C595 C 0.29153 0.88881 0.99573 0.0
C596 C 0.30096 0.91168 0.99273 0.0
C597 C 0.28755 0.917 0.99358 0.0
H598 H 0.26605 0.91197 0.99574 0.0
H599 H 0.2931 0.87789 0.99682 0.0
C600 C 0.24269 0.8454 0.03194 0.0
N601 N 0.25308 0.85405 0.02829 0.0
C602 C 0.24403 0.83694 0.0435 0.0
C603 C 0.26677 0.84639 0.04725 0.0
C604 C 0.26501 0.8546 0.03559 0.0
C605 C 0.25619 0.83739 0.05136 0.0
H606 H 0.23339 0.84501 0.02585 0.0
H607 H 0.27316 0.86149 0.0324 0.0
C608 C 0.24953 0.89119 0.97173 0.0
N609 N 0.2535 0.90142 0.94545 0.0
C610 C 0.23869 0.89755 0.96471 0.0
C611 C 0.26245 0.89027 0.96547 0.0
C612 C 0.24088 0.90258 0.95141 0.0
C613 C 0.26424 0.89544 0.95216 0.0
C614 C 0.21965 0.8622 0.00302 0.0
C615 C 0.21165 0.85872 0.99156 0.0
C616 C 0.21323 0.86513 0.01557 0.0
C617 C 0.19731 0.85843 0.9928 0.0
C618 C 0.19887 0.86476 0.01639 0.0
N619 N 0.19127 0.86145 0.00508 0.0
C620 C 0.25008 0.84189 0.97086 0.0
C621 C 0.2372 0.85962 0.96013 0.0
C622 C 0.24868 0.83351 0.95926 0.0
N623 N 0.24459 0.85477 0.97099 0.0
C624 C 0.23545 0.85155 0.94835 0.0
C625 C 0.24135 0.83836 0.94777 0.0
H626 H 0.25561 0.83815 0.97978 0.0
H627 H 0.23258 0.86971 0.96064 0.0
C628 C 0.22027 0.90313 0.0152 0.0
N629 N 0.22138 0.89478 0.00402 0.0
C630 C 0.20864 0.91141 0.01692 0.0
C631 C 0.19959 0.9024 0.99552 0.0
C632 C 0.21141 0.89436 0.9942 0.0
C633 C 0.19807 0.91108 0.00702 0.0
H634 H 0.22843 0.90337 0.02278 0.0
H635 H 0.21257 0.88762 0.9854 0.0
O636 O 0.26443 0.86247 0.9977 0.0
O637 O 0.25204 0.88608 0.01554 0.0
O638 O 0.24753 0.88627 0.9848 0.0
O639 O 0.23368 0.86276 0.00194 0.0
H640 H 0.28267 0.84879 0.01263 0.0
H641 H 0.27269 0.86229 0.97159 0.0
H642 H 0.30405 0.83825 0.00351 0.0
H643 H 0.29428 0.85163 0.96322 0.0
H644 H 0.24267 0.88363 0.06136 0.0
H645 H 0.27695 0.8923 0.02481 0.0
H646 H 0.2355 0.88208 0.03687 0.0
H647 H 0.28338 0.89373 0.04951 0.0
H648 H 0.31312 0.89297 0.99343 0.0
H649 H 0.28567 0.92796 0.99272 0.0
H650 H 0.2357 0.83 0.04613 0.0
H651 H 0.27626 0.84721 0.05306 0.0
H652 H 0.22866 0.89854 0.96944 0.0
H653 H 0.27107 0.88576 0.97085 0.0
H654 H 0.23255 0.90743 0.94582 0.0
H655 H 0.27419 0.89475 0.9472 0.0
H656 H 0.21644 0.85637 0.98179 0.0
H657 H 0.21928 0.8678 0.02455 0.0
H658 H 0.19098 0.85584 0.984 0.0
H659 H 0.19377 0.86711 0.02601 0.0
H660 H 0.25317 0.8233 0.95932 0.0
H661 H 0.22971 0.85567 0.93971 0.0
H662 H 0.20802 0.9181 0.02582 0.0
H663 H 0.19164 0.90165 0.98773 0.0
Li664 Li 0.11532 0.50038 0.26312 0.0
Li665 Li 0.13258 0.48702 0.25063 0.0
Li666 Li 0.13203 0.51281 0.24832 0.0
Li667 Li 0.11474 0.49789 0.23731 0.0
C668 C 0.14067 0.50615 0.27715 0.0
N669 N 0.15093 0.51596 0.30185 0.0
C670 C 0.14704 0.49717 0.28642 0.0
C671 C 0.13975 0.52016 0.28034 0.0
C672 C 0.15209 0.50231 0.29889 0.0
C673 C 0.14493 0.52491 0.2929 0.0
C674 C 0.11166 0.46971 0.25379 0.0
C675 C 0.11428 0.44646 0.2454 0.0
N676 N 0.11094 0.44158 0.2581 0.0
C677 C 0.10814 0.46446 0.26673 0.0
C678 C 0.11464 0.46065 0.243 0.0
C679 C 0.10787 0.45021 0.26871 0.0
C680 C 0.09176 0.50707 0.27867 0.0
N681 N 0.10451 0.50135 0.27942 0.0
C682 C 0.1017 0.49716 0.30352 0.0
C683 C 0.10948 0.49623 0.29146 0.0
C684 C 0.08867 0.50341 0.30314 0.0
C685 C 0.08367 0.50832 0.29048 0.0
H686 H 0.0879 0.51074 0.26888 0.0
H687 H 0.11946 0.49134 0.29171 0.0
C688 C 0.15299 0.46822 0.24164 0.0
N689 N 0.14435 0.47146 0.25216 0.0
C690 C 0.1615 0.45666 0.24258 0.0
C691 C 0.15205 0.45206 0.26517 0.0
C692 C 0.14384 0.46376 0.26385 0.0
C693 C 0.16102 0.44838 0.25444 0.0
H694 H 0.15326 0.47458 0.23252 0.0
H695 H 0.13699 0.46669 0.27212 0.0
C696 C 0.10595 0.52732 0.25056 0.0
N697 N 0.09451 0.55314 0.2542 0.0
C698 C 0.09919 0.53384 0.23965 0.0
C699 C 0.10676 0.53389 0.26336 0.0
C700 C 0.09351 0.54691 0.24168 0.0
C701 C 0.10094 0.54694 0.26499 0.0
C702 C 0.13605 0.4989 0.21991 0.0
C703 C 0.1392 0.51127 0.21325 0.0
C704 C 0.13388 0.48696 0.21214 0.0
C705 C 0.13994 0.51153 0.19888 0.0
C706 C 0.13469 0.48765 0.19779 0.0
N707 N 0.13767 0.49982 0.19151 0.0
C708 C 0.15714 0.52672 0.24787 0.0
C709 C 0.13813 0.54147 0.24381 0.0
C710 C 0.16629 0.53776 0.24662 0.0
N711 N 0.14335 0.52876 0.24648 0.0
C712 C 0.14689 0.55283 0.24269 0.0
C713 C 0.16116 0.55102 0.24408 0.0
H714 H 0.161 0.51647 0.24993 0.0
H715 H 0.12722 0.54287 0.24244 0.0
C716 C 0.09439 0.48516 0.22085 0.0
N717 N 0.10301 0.49616 0.22167 0.0
C718 C 0.08593 0.4834 0.20935 0.0
C719 C 0.09527 0.50442 0.19981 0.0
C720 C 0.10348 0.50581 0.21154 0.0
C721 C 0.08636 0.49306 0.19857 0.0
H722 H 0.09405 0.47775 0.22915 0.0
H723 H 0.11032 0.51455 0.2125 0.0
O724 O 0.13572 0.50126 0.26487 0.0
O725 O 0.11219 0.48363 0.25171 0.0
O726 O 0.11159 0.51454 0.2487 0.0
O727 O 0.13515 0.49847 0.23396 0.0
H728 H 0.14802 0.48633 0.28406 0.0
H729 H 0.13522 0.52733 0.27317 0.0
H730 H 0.15696 0.49545 0.3062 0.0
H731 H 0.14425 0.53572 0.29551 0.0
H732 H 0.11667 0.43934 0.23717 0.0
H733 H 0.10573 0.47132 0.27517 0.0
H734 H 0.11732 0.46454 0.23291 0.0
H735 H 0.10525 0.44601 0.27869 0.0
H736 H 0.10594 0.49324 0.31306 0.0
H737 H 0.07356 0.51296 0.2897 0.0
H738 H 0.16824 0.45413 0.23406 0.0
H739 H 0.15152 0.44605 0.27455 0.0
H740 H 0.09835 0.5289 0.22971 0.0
H741 H 0.11166 0.52891 0.27201 0.0
H742 H 0.0883 0.55209 0.23331 0.0
H743 H 0.1015 0.55212 0.27484 0.0
H744 H 0.14093 0.52061 0.2191 0.0
H745 H 0.13149 0.4773 0.21713 0.0
H746 H 0.14229 0.52105 0.19358 0.0
H747 H 0.13294 0.47852 0.19164 0.0
H748 H 0.17724 0.53598 0.2478 0.0
H749 H 0.14257 0.56288 0.24052 0.0
H750 H 0.07903 0.47462 0.20898 0.0
H751 H 0.09606 0.51206 0.19172 0.0
Li752 Li 0.73785 0.61696 0.99872 0.0
Li753 Li 0.74991 0.63428 0.01271 0.0
Li754 Li 0.75269 0.63414 0.98698 0.0
Li755 Li 0.76365 0.6169 0.00166 0.0
C756 C 0.72373 0.64271 0.99334 0.0
N757 N 0.69932 0.65355 0.98348 0.0
C758 C 0.71497 0.64999 0.00214 0.0
C759 C 0.72014 0.64109 0.97948 0.0
C760 C 0.70266 0.65535 0.99697 0.0
C761 C 0.70775 0.64662 0.9747 0.0
C762 C 0.74586 0.61285 0.0293 0.0
C763 C 0.75244 0.61424 0.05322 0.0
N764 N 0.73925 0.6113 0.05694 0.0
C765 C 0.73239 0.60973 0.03335 0.0
C766 C 0.756 0.61502 0.0393 0.0
C767 C 0.72925 0.60902 0.04738 0.0
C768 C 0.72422 0.59188 0.99492 0.0
N769 N 0.72199 0.60551 0.99715 0.0
C770 C 0.69763 0.60201 0.99679 0.0
C771 C 0.70902 0.61065 0.99828 0.0
C772 C 0.69956 0.58785 0.99439 0.0
C773 C 0.71311 0.58281 0.99355 0.0
H774 H 0.73466 0.58806 0.99421 0.0
H775 H 0.70745 0.62144 0.00035 0.0
C776 C 0.75859 0.65389 0.03254 0.0
N777 N 0.74799 0.64563 0.02858 0.0
C778 C 0.75747 0.66196 0.0444 0.0
C779 C 0.73449 0.65296 0.04781 0.0
C780 C 0.73603 0.64515 0.03584 0.0
C781 C 0.74532 0.66148 0.05225 0.0
H782 H 0.76794 0.65419 0.02652 0.0
H783 H 0.72769 0.63861 0.03237 0.0
C784 C 0.75089 0.6087 0.97176 0.0
N785 N 0.74753 0.59814 0.9455 0.0
C786 C 0.76213 0.60313 0.96469 0.0
C787 C 0.73789 0.60863 0.96556 0.0
C788 C 0.76024 0.59793 0.95139 0.0
C789 C 0.73642 0.60332 0.95226 0.0
C790 C 0.78076 0.63833 0.00236 0.0
C791 C 0.78836 0.64257 0.99088 0.0
C792 C 0.78758 0.63509 0.01462 0.0
C793 C 0.80271 0.64328 0.99181 0.0
C794 C 0.80194 0.63592 0.01512 0.0
N795 N 0.80914 0.63995 0.0038 0.0
C796 C 0.74857 0.6577 0.97045 0.0
C797 C 0.76265 0.64056 0.96029 0.0
C798 C 0.74968 0.66592 0.9587 0.0
N799 N 0.75481 0.64518 0.97092 0.0
C800 C 0.76414 0.64848 0.94838 0.0
C801 C 0.7575 0.66129 0.94745 0.0
H802 H 0.74271 0.66131 0.9792 0.0
H803 H 0.76787 0.63078 0.96109 0.0
C804 C 0.78042 0.59641 0.01384 0.0
N805 N 0.77945 0.60544 0.00318 0.0
C806 C 0.79211 0.58816 0.01528 0.0
C807 C 0.80153 0.59864 0.99473 0.0
C808 C 0.78961 0.60657 0.99362 0.0
C809 C 0.80289 0.5893 0.00569 0.0
H810 H 0.77215 0.59566 0.02124 0.0
H811 H 0.78851 0.61374 0.98517 0.0
O812 O 0.7358 0.63736 0.99828 0.0
O813 O 0.74908 0.6138 0.01562 0.0
O814 O 0.75257 0.61375 0.98483 0.0
O815 O 0.76672 0.63738 0.00158 0.0
H816 H 0.71762 0.65147 0.01285 0.0
H817 H 0.72693 0.63583 0.97243 0.0
H818 H 0.69575 0.66094 0.00369 0.0
H819 H 0.70486 0.64544 0.964 0.0
H820 H 0.76015 0.616 0.06108 0.0
H821 H 0.72442 0.608 0.02575 0.0
H822 H 0.76647 0.61737 0.03635 0.0
H823 H 0.71886 0.6067 0.05066 0.0
H824 H 0.68742 0.60645 0.99736 0.0
H825 H 0.71517 0.57196 0.99199 0.0
H826 H 0.7661 0.66832 0.04751 0.0
H827 H 0.72487 0.65245 0.05344 0.0
H828 H 0.77223 0.6029 0.96937 0.0
H829 H 0.72898 0.61247 0.97098 0.0
H830 H 0.76888 0.5937 0.94577 0.0
H831 H 0.72641 0.60324 0.94734 0.0
H832 H 0.78325 0.6452 0.98135 0.0
H833 H 0.78186 0.63184 0.0236 0.0
H834 H 0.80872 0.64647 0.98299 0.0
H835 H 0.80736 0.63333 0.02451 0.0
H836 H 0.74463 0.67585 0.9585 0.0
H837 H 0.77027 0.64454 0.93994 0.0
H838 H 0.79281 0.58113 0.02391 0.0
H839 H 0.80953 0.59969 0.98703 0.0
Li840 Li 0.86533 0.01276 0.25185 0.0
Li841 Li 0.88321 0.99835 0.26228 0.0
Li842 Li 0.88263 0.00232 0.2374 0.0
Li843 Li 0.86549 0.98766 0.24875 0.0
C844 C 0.88686 0.02956 0.25504 0.0
N845 N 0.88845 0.05731 0.26123 0.0
C846 C 0.89106 0.03384 0.26814 0.0
C847 C 0.88354 0.0394 0.24507 0.0
C848 C 0.8918 0.04792 0.27106 0.0
C849 C 0.88437 0.05337 0.24841 0.0
C850 C 0.85219 0.9921 0.27205 0.0
C851 C 0.84175 0.97241 0.28306 0.0
N852 N 0.82942 0.97904 0.28308 0.0
C853 C 0.83942 0.99874 0.27222 0.0
C854 C 0.85339 0.97885 0.27757 0.0
C855 C 0.82803 0.99196 0.27783 0.0
C856 C 0.84414 0.03121 0.24456 0.0
N857 N 0.85379 0.02839 0.25431 0.0
C858 C 0.84695 0.048 0.26752 0.0
C859 C 0.85513 0.03631 0.2658 0.0
C860 C 0.837 0.0512 0.25755 0.0
C861 C 0.8355 0.0426 0.24604 0.0
H862 H 0.84312 0.02459 0.23566 0.0
H863 H 0.86258 0.03357 0.2736 0.0
C864 C 0.90832 0.00066 0.27686 0.0
N865 N 0.89505 0.99627 0.27776 0.0
C866 C 0.91726 0.99904 0.28802 0.0
C867 C 0.8987 0.98835 0.30075 0.0
C868 C 0.8901 0.99028 0.2894 0.0
C869 C 0.91246 0.99276 0.30015 0.0
H870 H 0.91195 0.00539 0.26745 0.0
H871 H 0.87949 0.98701 0.28988 0.0
C872 C 0.86099 0.00244 0.2209 0.0
N873 N 0.85945 0.0027 0.19248 0.0
C874 C 0.85836 0.99025 0.21368 0.0
C875 C 0.86272 0.01477 0.21368 0.0
C876 C 0.85764 0.99059 0.19931 0.0
C877 C 0.86195 0.01468 0.19931 0.0
C878 C 0.89683 0.97788 0.25171 0.0
C879 C 0.90983 0.98149 0.24668 0.0
C880 C 0.89568 0.96775 0.26189 0.0
C881 C 0.92149 0.97494 0.25197 0.0
C882 C 0.90759 0.96147 0.26694 0.0
N883 N 0.92014 0.96517 0.26192 0.0
C884 C 0.90122 0.01586 0.21938 0.0
C885 C 0.89365 0.99386 0.21192 0.0
C886 C 0.90928 0.01736 0.20757 0.0
N887 N 0.89354 0.0043 0.22126 0.0
C888 C 0.90147 0.99496 0.19991 0.0
C889 C 0.90944 0.00684 0.1976 0.0
H890 H 0.90121 0.02385 0.22712 0.0
H891 H 0.88762 0.98468 0.21381 0.0
C892 C 0.84027 0.97353 0.2455 0.0
N893 N 0.85414 0.97187 0.24637 0.0
C894 C 0.83167 0.96209 0.24401 0.0
C895 C 0.85185 0.94752 0.24374 0.0
C896 C 0.86004 0.95923 0.2454 0.0
C897 C 0.83743 0.94883 0.24312 0.0
H898 H 0.83589 0.98375 0.2461 0.0
H899 H 0.87112 0.95825 0.24582 0.0
O900 O 0.88596 0.01582 0.25201 0.0
O901 O 0.86344 0.99851 0.26646 0.0
O902 O 0.86198 0.00228 0.23495 0.0
O903 O 0.88532 0.98443 0.24694 0.0
H904 H 0.89359 0.02638 0.27601 0.0
H905 H 0.8802 0.03627 0.2349 0.0
H906 H 0.89498 0.05137 0.28117 0.0
H907 H 0.88174 0.06109 0.24082 0.0
H908 H 0.8425 0.96211 0.28725 0.0
H909 H 0.83829 0.00898 0.268 0.0
H910 H 0.86315 0.97348 0.27736 0.0
H911 H 0.81808 0.99696 0.27799 0.0
H912 H 0.84822 0.05435 0.27661 0.0
H913 H 0.82787 0.04479 0.2382 0.0
H914 H 0.92783 0.0025 0.28713 0.0
H915 H 0.89457 0.98362 0.30998 0.0
H916 H 0.85703 0.9806 0.21909 0.0
H917 H 0.86474 0.02429 0.21912 0.0
H918 H 0.85569 0.98123 0.19358 0.0
H919 H 0.86336 0.02414 0.19358 0.0
H920 H 0.91091 0.98937 0.23887 0.0
H921 H 0.8857 0.96494 0.266 0.0
H922 H 0.93162 0.97767 0.24821 0.0
H923 H 0.90686 0.9537 0.27489 0.0
H924 H 0.91548 0.02656 0.20639 0.0
H925 H 0.90117 0.98665 0.19248 0.0
H926 H 0.82064 0.96363 0.24374 0.0
H927 H 0.8568 0.93757 0.24278 0.0
Li928 Li 0.24904 0.13457 0.51126 0.0
Li929 Li 0.23737 0.11713 0.49737 0.0
Li930 Li 0.26229 0.11637 0.50096 0.0
Li931 Li 0.25174 0.13381 0.48622 0.0
C932 C 0.2443 0.1142 0.52839 0.0
N933 N 0.23726 0.11502 0.55596 0.0
C934 C 0.23062 0.11219 0.53242 0.0
C935 C 0.25441 0.11656 0.53838 0.0
C936 C 0.22727 0.11264 0.54641 0.0
C937 C 0.25063 0.11697 0.55226 0.0
C938 C 0.22978 0.14866 0.49055 0.0
C939 C 0.21916 0.1595 0.47087 0.0
N940 N 0.22115 0.17204 0.47681 0.0
C941 C 0.23171 0.16165 0.49646 0.0
C942 C 0.22343 0.14756 0.47766 0.0
C943 C 0.22726 0.17335 0.48936 0.0
C944 C 0.25822 0.15321 0.53187 0.0
N945 N 0.24715 0.1462 0.52691 0.0
C946 C 0.23288 0.15507 0.54488 0.0
C947 C 0.23458 0.14715 0.53301 0.0
C948 C 0.24418 0.16226 0.55038 0.0
C949 C 0.25696 0.16136 0.54366 0.0
H950 H 0.26804 0.15243 0.52672 0.0
H951 H 0.22591 0.14164 0.52868 0.0
C952 C 0.22182 0.09283 0.50053 0.0
N953 N 0.2213 0.10602 0.49585 0.0
C954 C 0.21039 0.0842 0.4992 0.0
C955 C 0.19809 0.10291 0.4883 0.0
C956 C 0.20972 0.11121 0.48996 0.0
C957 C 0.19836 0.08921 0.49293 0.0
H958 H 0.23119 0.089 0.50518 0.0
H959 H 0.20954 0.12177 0.48647 0.0
C960 C 0.28009 0.13686 0.50056 0.0
N961 N 0.30855 0.13637 0.50039 0.0
C962 C 0.2873 0.13947 0.48837 0.0
C963 C 0.28736 0.13408 0.51268 0.0
C964 C 0.30169 0.13917 0.4885 0.0
C965 C 0.30174 0.13384 0.51237 0.0
C966 C 0.24692 0.10228 0.47723 0.0
C967 C 0.25185 0.08925 0.48087 0.0
C968 C 0.23622 0.1034 0.46765 0.0
C969 C 0.24596 0.07755 0.47488 0.0
C970 C 0.23058 0.09145 0.46192 0.0
N971 N 0.23553 0.07888 0.46563 0.0
C972 C 0.2793 0.09688 0.51452 0.0
C973 C 0.28718 0.10411 0.49256 0.0
C974 C 0.2908 0.08842 0.51613 0.0
N975 N 0.2778 0.10461 0.50295 0.0
C976 C 0.29892 0.09594 0.49381 0.0
C977 C 0.30085 0.08799 0.50573 0.0
H978 H 0.27156 0.09729 0.52251 0.0
H979 H 0.28555 0.11014 0.48334 0.0
C980 C 0.25782 0.15827 0.47178 0.0
N981 N 0.25429 0.14481 0.47022 0.0
C982 C 0.25934 0.16674 0.46027 0.0
C983 C 0.25378 0.14726 0.44575 0.0
C984 C 0.2524 0.13917 0.45754 0.0
C985 C 0.25726 0.16127 0.44701 0.0
H986 H 0.25939 0.16243 0.48201 0.0
H987 H 0.24973 0.12842 0.45659 0.0
O988 O 0.24774 0.11407 0.51472 0.0
O989 O 0.23433 0.1371 0.49721 0.0
O990 O 0.26599 0.13688 0.5006 0.0
O991 O 0.25231 0.11384 0.48325 0.0
H992 H 0.22264 0.11047 0.52483 0.0
H993 H 0.26502 0.11825 0.53544 0.0
H994 H 0.21672 0.11117 0.54967 0.0
H995 H 0.25833 0.11889 0.5601 0.0
H996 H 0.21435 0.1588 0.46084 0.0
H997 H 0.23669 0.16273 0.50637 0.0
H998 H 0.22208 0.13761 0.4728 0.0
H999 H 0.22873 0.18347 0.49379 0.0
H1000 H 0.2228 0.15567 0.54963 0.0
H1001 H 0.26594 0.16669 0.54761 0.0
H1002 H 0.21103 0.07366 0.50281 0.0
H1003 H 0.18894 0.1072 0.48357 0.0
H1004 H 0.28186 0.14155 0.47888 0.0
H1005 H 0.28195 0.13191 0.52217 0.0
H1006 H 0.3074 0.14111 0.47913 0.0
H1007 H 0.30749 0.13159 0.52165 0.0
H1008 H 0.26005 0.08816 0.48834 0.0
H1009 H 0.2321 0.11337 0.46489 0.0
H1010 H 0.24965 0.06741 0.47764 0.0
H1011 H 0.22221 0.09216 0.45459 0.0
H1012 H 0.29194 0.08245 0.52548 0.0
H1013 H 0.30634 0.09571 0.48547 0.0
H1014 H 0.26225 0.17742 0.46173 0.0
H1015 H 0.25194 0.14263 0.43576 0.0
Li1016 Li 0.38361 0.49642 0.76129 0.0
Li1017 Li 0.36563 0.51154 0.75145 0.0
Li1018 Li 0.36579 0.48683 0.74776 0.0
Li1019 Li 0.38369 0.50105 0.73642 0.0
C1020 C 0.35258 0.49055 0.77128 0.0
N1021 N 0.32986 0.47733 0.78226 0.0
C1022 C 0.33984 0.49723 0.77175 0.0
C1023 C 0.35379 0.4772 0.77656 0.0
C1024 C 0.32847 0.49036 0.7773 0.0
C1025 C 0.34218 0.47067 0.78201 0.0
C1026 C 0.3922 0.5257 0.75676 0.0
C1027 C 0.40461 0.54699 0.75349 0.0
N1028 N 0.40504 0.54881 0.76738 0.0
C1029 C 0.39278 0.52777 0.771 0.0
C1030 C 0.39819 0.53536 0.74792 0.0
C1031 C 0.3993 0.53953 0.77617 0.0
C1032 C 0.40907 0.49766 0.77547 0.0
N1033 N 0.3956 0.49398 0.77663 0.0
C1034 C 0.39902 0.48695 0.79994 0.0
C1035 C 0.39046 0.48875 0.78855 0.0
C1036 C 0.41296 0.49074 0.7991 0.0
C1037 C 0.41798 0.49617 0.78666 0.0
H1038 H 0.41286 0.50182 0.76585 0.0
H1039 H 0.37969 0.48606 0.78923 0.0
C1040 C 0.34204 0.52802 0.74688 0.0
N1041 N 0.35416 0.52743 0.7539 0.0
C1042 C 0.33345 0.53948 0.74814 0.0
C1043 C 0.34973 0.54938 0.76416 0.0
C1044 C 0.35799 0.53773 0.76259 0.0
C1045 C 0.33732 0.55041 0.75681 0.0
H1046 H 0.33898 0.51955 0.74032 0.0
H1047 H 0.36737 0.53691 0.76843 0.0
C1048 C 0.39636 0.47532 0.75087 0.0
N1049 N 0.41812 0.46057 0.76176 0.0
C1050 C 0.40971 0.47737 0.74589 0.0
C1051 C 0.39406 0.46564 0.76128 0.0
C1052 C 0.42058 0.46984 0.75155 0.0
C1053 C 0.4052 0.45833 0.76669 0.0
C1054 C 0.36 0.51047 0.72322 0.0
C1055 C 0.3502 0.50685 0.71331 0.0
C1056 C 0.36661 0.52325 0.72239 0.0
C1057 C 0.34717 0.51609 0.7027 0.0
C1058 C 0.3633 0.5322 0.71163 0.0
N1059 N 0.35373 0.52846 0.70209 0.0
C1060 C 0.34026 0.47305 0.74435 0.0
C1061 C 0.35994 0.45865 0.74361 0.0
C1062 C 0.33157 0.46166 0.7429 0.0
N1063 N 0.35414 0.4713 0.74495 0.0
C1064 C 0.35165 0.447 0.74198 0.0
C1065 C 0.33724 0.44838 0.74177 0.0
H1066 H 0.33594 0.48328 0.74523 0.0
H1067 H 0.37101 0.45758 0.74378 0.0
C1068 C 0.40787 0.50863 0.72225 0.0
N1069 N 0.39486 0.50371 0.72058 0.0
C1070 C 0.41646 0.51041 0.71085 0.0
C1071 C 0.39794 0.50241 0.6962 0.0
C1072 C 0.38982 0.50049 0.70791 0.0
C1073 C 0.41145 0.50734 0.69764 0.0
H1074 H 0.41163 0.511 0.73248 0.0
H1075 H 0.37952 0.49637 0.70689 0.0
O1076 O 0.3638 0.49707 0.76574 0.0
O1077 O 0.38613 0.51411 0.75146 0.0
O1078 O 0.38563 0.48286 0.7457 0.0
O1079 O 0.36306 0.50149 0.73364 0.0
H1080 H 0.33872 0.50758 0.76784 0.0
H1081 H 0.36354 0.47186 0.77629 0.0
H1082 H 0.31854 0.49539 0.77767 0.0
H1083 H 0.34295 0.4603 0.78601 0.0
H1084 H 0.40927 0.55456 0.74677 0.0
H1085 H 0.38804 0.52051 0.778 0.0
H1086 H 0.39789 0.53391 0.73687 0.0
H1087 H 0.39977 0.54128 0.78716 0.0
H1088 H 0.39473 0.48288 0.80941 0.0
H1089 H 0.42869 0.49913 0.78559 0.0
H1090 H 0.32398 0.53984 0.74225 0.0
H1091 H 0.35296 0.55741 0.77121 0.0
H1092 H 0.41169 0.48474 0.73779 0.0
H1093 H 0.38381 0.46391 0.76526 0.0
H1094 H 0.43098 0.47138 0.74784 0.0
H1095 H 0.40358 0.4509 0.77483 0.0
H1096 H 0.34499 0.49699 0.71383 0.0
H1097 H 0.37418 0.52625 0.72998 0.0
H1098 H 0.33961 0.51342 0.69496 0.0
H1099 H 0.36833 0.54212 0.71087 0.0
H1100 H 0.32053 0.46326 0.7429 0.0
H1101 H 0.35653 0.43705 0.7408 0.0
H1102 H 0.42684 0.51426 0.71231 0.0
H1103 H 0.39382 0.4998 0.68616 0.0
Li1104 Li 0.76244 0.38198 0.49702 0.0
Li1105 Li 0.7524 0.36587 0.51246 0.0
Li1106 Li 0.7481 0.36416 0.48672 0.0
Li1107 Li 0.73807 0.38289 0.50165 0.0
C1108 C 0.77913 0.36002 0.49413 0.0
N1109 N 0.80669 0.35671 0.48781 0.0
C1110 C 0.78927 0.36429 0.50343 0.0
C1111 C 0.78302 0.35405 0.48161 0.0
C1112 C 0.80314 0.36255 0.50004 0.0
C1113 C 0.797 0.35245 0.47861 0.0
C1114 C 0.75599 0.38693 0.52846 0.0
C1115 C 0.74832 0.38577 0.55208 0.0
N1116 N 0.76152 0.38765 0.5564 0.0
C1117 C 0.76948 0.38888 0.53315 0.0
C1118 C 0.74532 0.38541 0.53801 0.0
C1119 C 0.77206 0.38922 0.54731 0.0
C1120 C 0.77924 0.40523 0.50119 0.0
N1121 N 0.77793 0.39375 0.49326 0.0
C1122 C 0.7983 0.39966 0.48071 0.0
C1123 C 0.78697 0.39106 0.48289 0.0
C1124 C 0.80023 0.41126 0.48915 0.0
C1125 C 0.79039 0.41411 0.49937 0.0
H1126 H 0.77159 0.4075 0.50895 0.0
H1127 H 0.78543 0.38222 0.47632 0.0
C1128 C 0.74373 0.34707 0.53294 0.0
N1129 N 0.75462 0.35474 0.52859 0.0
C1130 C 0.74483 0.33891 0.54473 0.0
C1131 C 0.76837 0.34657 0.54732 0.0
C1132 C 0.76684 0.3545 0.53543 0.0
C1133 C 0.75727 0.33862 0.55213 0.0
H1134 H 0.7342 0.34721 0.5272 0.0
H1135 H 0.77539 0.36056 0.53178 0.0
C1136 C 0.75213 0.39396 0.47489 0.0
N1137 N 0.76323 0.4141 0.45816 0.0
C1138 C 0.75066 0.40785 0.47837 0.0
C1139 C 0.75915 0.39029 0.46287 0.0
C1140 C 0.75638 0.41788 0.46978 0.0
C1141 C 0.7647 0.40064 0.45455 0.0
C1142 C 0.72075 0.36165 0.50307 0.0
C1143 C 0.71325 0.35743 0.49151 0.0
C1144 C 0.71377 0.36517 0.51517 0.0
C1145 C 0.69888 0.357 0.49219 0.0
C1146 C 0.6994 0.36462 0.51543 0.0
N1147 N 0.69231 0.36059 0.50403 0.0
C1148 C 0.74882 0.33895 0.4723 0.0
C1149 C 0.73857 0.3575 0.46017 0.0
C1150 C 0.74663 0.33013 0.46115 0.0
N1151 N 0.7449 0.35236 0.47154 0.0
C1152 C 0.73606 0.34902 0.44882 0.0
C1153 C 0.74018 0.33515 0.44921 0.0
H1154 H 0.75372 0.33515 0.48156 0.0
H1155 H 0.73545 0.36819 0.45993 0.0
C1156 C 0.72203 0.40404 0.51373 0.0
N1157 N 0.72253 0.39469 0.50333 0.0
C1158 C 0.7106 0.41264 0.51519 0.0
C1159 C 0.70054 0.40198 0.49502 0.0
C1160 C 0.71223 0.3937 0.49388 0.0
C1161 C 0.69961 0.41157 0.50583 0.0
H1162 H 0.73051 0.40487 0.52089 0.0
H1163 H 0.71309 0.38644 0.48547 0.0
O1164 O 0.76547 0.36157 0.49726 0.0
O1165 O 0.75326 0.3864 0.51462 0.0
O1166 O 0.74692 0.38398 0.48334 0.0
O1167 O 0.73482 0.36236 0.50253 0.0
H1168 H 0.78648 0.3692 0.51301 0.0
H1169 H 0.77534 0.35078 0.47423 0.0
H1170 H 0.81109 0.36591 0.50711 0.0
H1171 H 0.80015 0.34788 0.46895 0.0
H1172 H 0.74016 0.38453 0.55956 0.0
H1173 H 0.77792 0.3899 0.52597 0.0
H1174 H 0.73484 0.38387 0.5346 0.0
H1175 H 0.78246 0.39064 0.55106 0.0
H1176 H 0.80559 0.39708 0.47268 0.0
H1177 H 0.79126 0.42315 0.50585 0.0
H1178 H 0.73607 0.33275 0.54788 0.0
H1179 H 0.7781 0.34682 0.55276 0.0
H1180 H 0.74529 0.41082 0.48768 0.0
H1181 H 0.76047 0.37957 0.46012 0.0
H1182 H 0.75541 0.42868 0.47237 0.0
H1183 H 0.77025 0.39796 0.44526 0.0
H1184 H 0.71844 0.3546 0.48208 0.0
H1185 H 0.71939 0.36838 0.52423 0.0
H1186 H 0.69295 0.35383 0.4833 0.0
H1187 H 0.69387 0.36742 0.5247 0.0
H1188 H 0.74981 0.31946 0.4619 0.0
H1189 H 0.73114 0.35331 0.43977 0.0
H1190 H 0.71027 0.41989 0.52366 0.0
H1191 H 0.6924 0.40102 0.48745 0.0
Li1192 Li 0.6322 0.98653 0.75119 0.0
Li1193 Li 0.61485 0.00092 0.76242 0.0
Li1194 Li 0.6146 0.99722 0.73752 0.0
Li1195 Li 0.63218 0.0116 0.74835 0.0
C1196 C 0.60096 0.97654 0.74763 0.0
N1197 N 0.57784 0.96382 0.73692 0.0
C1198 C 0.58788 0.98009 0.75246 0.0
C1199 C 0.6023 0.96649 0.7374 0.0
C1200 C 0.57631 0.97353 0.74691 0.0
C1201 C 0.59048 0.9602 0.7321 0.0
C1202 C 0.63603 0.00089 0.7793 0.0
C1203 C 0.63378 0.01249 0.80116 0.0
N1204 N 0.6366 0.00046 0.80775 0.0
C1205 C 0.63896 0.98865 0.78628 0.0
C1206 C 0.63349 0.01293 0.78678 0.0
C1207 C 0.63919 0.98864 0.80067 0.0
C1208 C 0.65746 0.97257 0.75452 0.0
N1209 N 0.64361 0.97081 0.7535 0.0
C1210 C 0.64601 0.94645 0.75589 0.0
C1211 C 0.63777 0.95811 0.75429 0.0
C1212 C 0.66041 0.94787 0.75664 0.0
C1213 C 0.6661 0.96119 0.75595 0.0
H1214 H 0.66179 0.98283 0.75409 0.0
H1215 H 0.6267 0.95705 0.75376 0.0
C1216 C 0.59648 0.01414 0.78096 0.0
N1217 N 0.6038 0.00249 0.7785 0.0
C1218 C 0.58866 0.01537 0.79297 0.0
C1219 C 0.59591 0.99247 0.79954 0.0
C1220 C 0.60351 0.99167 0.78737 0.0
C1221 C 0.58838 0.00447 0.80252 0.0
H1222 H 0.59668 0.02248 0.7736 0.0
H1223 H 0.60932 0.98246 0.78504 0.0
C1224 C 0.64571 0.99121 0.72809 0.0
N1225 N 0.6686 0.9783 0.71717 0.0
C1226 C 0.6585 0.99784 0.7282 0.0
C1227 C 0.64455 0.97803 0.72237 0.0
C1228 C 0.66994 0.99114 0.72262 0.0
C1229 C 0.65625 0.97167 0.71693 0.0
C1230 C 0.61121 0.02824 0.74455 0.0
C1231 C 0.60816 0.03226 0.73106 0.0
C1232 C 0.61409 0.03826 0.7545 0.0
C1233 C 0.6081 0.04626 0.72774 0.0
C1234 C 0.61396 0.05216 0.75075 0.0
N1235 N 0.61099 0.05584 0.73757 0.0
C1236 C 0.58973 -0.00032 0.72259 0.0
C1237 C 0.60808 0.9894 0.7102 0.0
C1238 C 0.58098 0.99828 0.71125 0.0
N1239 N 0.60298 0.99523 0.72185 0.0
C1240 C 0.59967 0.98767 0.69867 0.0
C1241 C 0.58593 0.99217 0.69911 0.0
H1242 H 0.58598 0.00432 0.732 0.0
H1243 H 0.61868 0.98611 0.70984 0.0
C1244 C 0.65148 0.03186 0.75662 0.0
N1245 N 0.64352 0.0274 0.74599 0.0
C1246 C 0.65974 0.04354 0.75509 0.0
C1247 C 0.6515 0.04576 0.73168 0.0
C1248 C 0.64352 0.03395 0.73362 0.0
C1249 C 0.65973 0.05069 0.74251 0.0
H1250 H 0.65143 0.02634 0.76628 0.0
H1251 H 0.6373 0.02999 0.72526 0.0
O1252 O 0.61238 0.98311 0.75265 0.0
O1253 O 0.63548 0.00105 0.76521 0.0
O1254 O 0.6344 0.99754 0.73362 0.0
O1255 O 0.61155 0.01457 0.74795 0.0
H1256 H 0.58664 0.98792 0.76029 0.0
H1257 H 0.61235 0.96373 0.73345 0.0
H1258 H 0.56611 0.97621 0.7505 0.0
H1259 H 0.59135 0.95247 0.72411 0.0
H1260 H 0.63173 0.02171 0.80708 0.0
H1261 H 0.64089 0.97922 0.78067 0.0
H1262 H 0.63112 0.02247 0.78154 0.0
H1263 H 0.64138 0.97923 0.80622 0.0
H1264 H 0.64111 0.93646 0.7567 0.0
H1265 H 0.67713 0.96282 0.75633 0.0
H1266 H 0.5828 0.0247 0.79469 0.0
H1267 H 0.59613 0.98387 0.80663 0.0
H1268 H 0.65962 0.008 0.73262 0.0
H1269 H 0.63479 0.97264 0.72239 0.0
H1270 H 0.67991 0.99614 0.72268 0.0
H1271 H 0.65552 0.96143 0.71258 0.0
H1272 H 0.60602 0.02466 0.72319 0.0
H1273 H 0.6166 0.03533 0.76495 0.0
H1274 H 0.60582 0.04952 0.71733 0.0
H1275 H 0.61627 0.06001 0.75832 0.0
H1276 H 0.57042 0.0018 0.71201 0.0
H1277 H 0.60393 0.98308 0.68944 0.0
H1278 H 0.66591 0.04705 0.7637 0.0
H1279 H 0.65138 0.05087 0.72176 0.0
Li1280 Li 0.011 0.25101 0.86524 0.0
Li1281 Li 0.99671 0.26151 0.88326 0.0
Li1282 Li 0.00045 0.2357 0.88281 0.0
Li1283 Li 0.98547 0.24738 0.86612 0.0
C1284 C 0.02716 0.25085 0.89035 0.0
N1285 N 0.05375 0.25083 0.90053 0.0
C1286 C 0.03324 0.26313 0.89481 0.0
C1287 C 0.03451 0.23852 0.89133 0.0
C1288 C 0.04672 0.26292 0.89984 0.0
C1289 C 0.04797 0.23873 0.89644 0.0
C1290 C 0.99436 0.2785 0.86125 0.0
C1291 C 0.98079 0.29916 0.86364 0.0
N1292 N 0.99132 0.30663 0.85819 0.0
C1293 C 0.00501 0.28636 0.85558 0.0
C1294 C 0.98211 0.28492 0.86522 0.0
C1295 C 0.00329 0.30058 0.85415 0.0
C1296 C 0.02681 0.24722 0.84112 0.0
N1297 N 0.0265 0.25373 0.85352 0.0
C1298 C 0.04833 0.26424 0.84906 0.0
C1299 C 0.03686 0.26229 0.85751 0.0
C1300 C 0.0491 0.25735 0.83636 0.0
C1301 C 0.03813 0.24878 0.83239 0.0
H1302 H 0.01826 0.24079 0.83799 0.0
H1303 H 0.03617 0.26772 0.86718 0.0
C1304 C 0.98625 0.27623 0.90599 0.0
N1305 N 0.99504 0.27704 0.89513 0.0
C1306 C 0.98462 0.28747 0.91484 0.0
C1307 C 0.00102 0.30017 0.90108 0.0
C1308 C 0.00256 0.2886 0.8927 0.0
C1309 C 0.99195 0.29975 0.91238 0.0
H1310 H 0.98056 0.26683 0.90782 0.0
H1311 H 0.00969 0.28889 0.88417 0.0
C1312 C 0.00595 0.22198 0.85715 0.0
N1313 N 0.01755 0.19823 0.8466 0.0
C1314 C 0.99792 0.21276 0.84953 0.0
C1315 C 0.0199 0.21918 0.85931 0.0
C1316 C 0.00396 0.20079 0.84431 0.0
C1317 C 0.02557 0.20711 0.85391 0.0
C1318 C 0.9698 0.24294 0.88813 0.0
C1319 C 0.96602 0.22927 0.89062 0.0
C1320 C 0.95964 0.25308 0.88711 0.0
C1321 C 0.95207 0.22593 0.89186 0.0
C1322 C 0.94581 0.24932 0.88838 0.0
N1323 N 0.94234 0.23593 0.8907 0.0
C1324 C 0.00563 0.22216 0.90769 0.0
C1325 C 0.00205 0.20689 0.88896 0.0
C1326 C 0.00761 0.21109 0.91665 0.0
N1327 N 0.003 0.21988 0.89412 0.0
C1328 C 0.00421 0.19553 0.89749 0.0
C1329 C 0.00703 0.19759 0.91151 0.0
H1330 H 0.00621 0.23262 0.91152 0.0
H1331 H -0.00047 0.20526 0.87827 0.0
C1332 C 0.96466 0.25561 0.84746 0.0
N1333 N 0.9693 0.245 0.8553 0.0
C1334 C 0.95271 0.25413 0.8396 0.0
C1335 C 0.95062 0.23074 0.84789 0.0
C1336 C 0.96266 0.23266 0.85553 0.0
C1337 C 0.94547 0.24157 0.83979 0.0
H1338 H 0.97028 0.26521 0.84721 0.0
H1339 H 0.96669 0.22433 0.86172 0.0
O1340 O 0.0139 0.25087 0.88553 0.0
O1341 O 0.99591 0.26458 0.86282 0.0
O1342 O 0.00013 0.23369 0.86239 0.0
O1343 O 0.98338 0.24638 0.88668 0.0
H1344 H 0.02765 0.27274 0.89429 0.0
H1345 H 0.02986 0.22885 0.88833 0.0
H1346 H 0.05159 0.27237 0.90322 0.0
H1347 H 0.05378 0.22927 0.89721 0.0
H1348 H 0.9714 0.30427 0.86675 0.0
H1349 H 0.01452 0.28155 0.85236 0.0
H1350 H 0.97375 0.27898 0.86959 0.0
H1351 H 0.01147 0.3068 0.84983 0.0
H1352 H 0.05656 0.27095 0.85251 0.0
H1353 H 0.0382 0.2435 0.82256 0.0
H1354 H 0.97776 0.28644 0.92357 0.0
H1355 H 0.00677 0.30938 0.89856 0.0
H1356 H 0.98712 0.2148 0.84769 0.0
H1357 H 0.02632 0.22633 0.86493 0.0
H1358 H 0.99786 0.19353 0.83844 0.0
H1359 H 0.03636 0.20483 0.8555 0.0
H1360 H 0.97376 0.22131 0.89146 0.0
H1361 H 0.96241 0.26372 0.88531 0.0
H1362 H 0.94898 0.21538 0.8937 0.0
H1363 H 0.93783 0.25704 0.88753 0.0
H1364 H 0.00978 0.21304 0.92743 0.0
H1365 H 0.00346 0.18524 0.89323 0.0
H1366 H 0.9493 0.26266 0.83329 0.0
H1367 H 0.94534 0.22092 0.84846 0.0
Li1368 Li 0.5121 0.75038 0.36698 0.0
Li1369 Li 0.49817 0.76194 0.38453 0.0
Li1370 Li 0.50091 0.73603 0.384 0.0
Li1371 Li 0.48626 0.74774 0.36705 0.0
C1372 C 0.52887 0.75245 0.38879 0.0
N1373 N 0.55696 0.75638 0.39126 0.0
C1374 C 0.53408 0.76526 0.39283 0.0
C1375 C 0.53794 0.74158 0.38622 0.0
C1376 C 0.54832 0.76706 0.39397 0.0
C1377 C 0.55211 0.74379 0.38745 0.0
C1378 C 0.49371 0.77763 0.36059 0.0
C1379 C 0.47617 0.79508 0.35837 0.0
N1380 N 0.48574 0.80398 0.35331 0.0
C1381 C 0.50333 0.78689 0.35517 0.0
C1382 C 0.47999 0.78171 0.36205 0.0
C1383 C 0.49912 0.80018 0.35163 0.0
C1384 C 0.53101 0.74252 0.34625 0.0
N1385 N 0.52794 0.75245 0.35562 0.0
C1386 C 0.54762 0.76561 0.34887 0.0
C1387 C 0.5359 0.76389 0.35701 0.0
C1388 C 0.55112 0.75549 0.33913 0.0
C1389 C 0.54263 0.74382 0.33787 0.0
H1390 H 0.52439 0.73363 0.3452 0.0
H1391 H 0.53317 0.77169 0.36447 0.0
C1392 C 0.48941 0.77687 0.4079 0.0
N1393 N 0.49669 0.7778 0.39598 0.0
C1394 C 0.4879 0.78838 0.41639 0.0
C1395 C 0.5018 0.80148 0.40042 0.0
C1396 C 0.503 0.78973 0.39222 0.0
C1397 C 0.49409 0.80092 0.41265 0.0
H1398 H 0.48479 0.76716 0.41083 0.0
H1399 H 0.50906 0.7901 0.38291 0.0
C1400 C 0.50139 0.71978 0.36138 0.0
N1401 N 0.50259 0.69161 0.35734 0.0
C1402 C 0.48978 0.7126 0.35677 0.0
C1403 C 0.51367 0.71265 0.36373 0.0
C1404 C 0.49057 0.69836 0.35483 0.0
C1405 C 0.51405 0.69841 0.36169 0.0
C1406 C 0.47072 0.74737 0.39176 0.0
C1407 C 0.46461 0.73534 0.39682 0.0
C1408 C 0.46312 0.75958 0.39142 0.0
C1409 C 0.45088 0.73566 0.40111 0.0
C1410 C 0.44942 0.75948 0.39582 0.0
N1411 N 0.44362 0.74762 0.40051 0.0
C1412 C 0.51254 0.71957 0.40492 0.0
C1413 C 0.49398 0.70906 0.39301 0.0
C1414 C 0.5142 0.70787 0.41312 0.0
N1415 N 0.50261 0.71991 0.39505 0.0
C1416 C 0.49536 0.69711 0.40088 0.0
C1417 C 0.50558 0.69642 0.41108 0.0
H1418 H 0.51917 0.7284 0.40645 0.0
H1419 H 0.48599 0.70968 0.38529 0.0
C1420 C 0.4697 0.75342 0.34386 0.0
N1421 N 0.47018 0.74623 0.35587 0.0
C1422 C 0.45808 0.75266 0.33541 0.0
C1423 C 0.44781 0.73683 0.35165 0.0
C1424 C 0.45962 0.7379 0.35978 0.0
C1425 C 0.4469 0.74431 0.3393 0.0
H1426 H 0.47835 0.75977 0.34086 0.0
H1427 H 0.46044 0.73187 0.36907 0.0
O1428 O 0.51497 0.75055 0.38744 0.0
O1429 O 0.49769 0.76459 0.36418 0.0
O1430 O 0.50076 0.73371 0.36346 0.0
O1431 O 0.48417 0.74722 0.38748 0.0
H1432 H 0.52722 0.77375 0.39499 0.0
H1433 H 0.53409 0.73156 0.38328 0.0
H1434 H 0.55249 0.77695 0.397 0.0
H1435 H 0.55925 0.73549 0.3854 0.0
H1436 H 0.46559 0.79836 0.35949 0.0
H1437 H 0.51395 0.78388 0.35378 0.0
H1438 H 0.47232 0.77457 0.36579 0.0
H1439 H 0.50648 0.80748 0.34753 0.0
H1440 H 0.55394 0.7747 0.3503 0.0
H1441 H 0.54481 0.73587 0.33035 0.0
H1442 H 0.48208 0.78743 0.42586 0.0
H1443 H 0.50672 0.81094 0.39712 0.0
H1444 H 0.48023 0.71795 0.35476 0.0
H1445 H 0.5228 0.71805 0.36713 0.0
H1446 H 0.48164 0.69267 0.35135 0.0
H1447 H 0.52346 0.69276 0.36357 0.0
H1448 H 0.47037 0.72584 0.39735 0.0
H1449 H 0.46777 0.76908 0.38799 0.0
H1450 H 0.446 0.72639 0.40494 0.0
H1451 H 0.44341 0.76886 0.39557 0.0
H1452 H 0.52226 0.70772 0.42084 0.0
H1453 H 0.48836 0.68858 0.39913 0.0
H1454 H 0.45781 0.75864 0.326 0.0
H1455 H 0.43958 0.73001 0.35488 0.0
Li1456 Li 0.00177 0.76285 0.6156 0.0
Li1457 Li 0.98728 0.75176 0.63301 0.0
Li1458 Li 0.01307 0.74893 0.63275 0.0
Li1459 Li 0.99877 0.73705 0.61567 0.0
C1460 C 0.00269 0.77979 0.6373 0.0
N1461 N 0.00402 0.80815 0.63952 0.0
C1462 C 0.99113 0.78726 0.64149 0.0
C1463 C 0.01498 0.78673 0.63442 0.0
C1464 C 0.99199 0.80159 0.64251 0.0
C1465 C 0.01543 0.80107 0.63554 0.0
C1466 C 0.97143 0.75067 0.60833 0.0
C1467 C 0.95089 0.73715 0.60464 0.0
N1468 N 0.94445 0.74845 0.59948 0.0
C1469 C 0.96467 0.76211 0.60279 0.0
C1470 C 0.96454 0.73805 0.6091 0.0
C1471 C 0.951 0.7608 0.59845 0.0
C1472 C 0.01392 0.77956 0.59509 0.0
N1473 N 0.00335 0.77874 0.60423 0.0
C1474 C 0.99518 0.80095 0.59748 0.0
C1475 C 0.99398 0.78906 0.60547 0.0
C1476 C 0.00608 0.80217 0.58802 0.0
C1477 C 0.01549 0.79124 0.58685 0.0
H1478 H 0.02111 0.77113 0.59417 0.0
H1479 H 0.98563 0.78812 0.61276 0.0
C1480 C 0.97125 0.74727 0.6568 0.0
N1481 N 0.97143 0.75374 0.64439 0.0
C1482 C 0.95978 0.74839 0.6654 0.0
C1483 C 0.94907 0.76315 0.64846 0.0
C1484 C 0.96073 0.76172 0.64019 0.0
C1485 C 0.94845 0.75638 0.66123 0.0
H1486 H 0.98001 0.7412 0.66002 0.0
H1487 H 0.96133 0.76718 0.63053 0.0
C1488 C 0.02944 0.74561 0.61093 0.0
N1489 N 0.05728 0.74025 0.60853 0.0
C1490 C 0.03396 0.73251 0.60705 0.0
C1491 C 0.03907 0.75604 0.6134 0.0
C1492 C 0.04809 0.72999 0.60594 0.0
C1493 C 0.05311 0.75311 0.6122 0.0
C1494 C 0.99438 0.7222 0.64059 0.0
C1495 C 0.0039 0.71311 0.64641 0.0
C1496 C 0.98053 0.71835 0.63971 0.0
C1497 C -0.00055 0.70018 0.65093 0.0
C1498 C 0.97648 0.70535 0.64436 0.0
N1499 N 0.98595 0.69659 0.6498 0.0
C1500 C 0.03248 0.75729 0.65285 0.0
C1501 C 0.03678 0.73541 0.64291 0.0
C1502 C 0.04423 0.75615 0.66107 0.0
N1503 N 0.02904 0.74703 0.64396 0.0
C1504 C 0.04863 0.73386 0.65089 0.0
C1505 C 0.0525 0.74431 0.66014 0.0
H1506 H 0.02605 0.76633 0.65364 0.0
H1507 H 0.03377 0.72737 0.63581 0.0
C1508 C 0.99063 0.72222 0.59206 0.0
N1509 N 0.99693 0.72101 0.6045 0.0
C1510 C 0.98886 0.71068 0.58364 0.0
C1511 C 0.00045 0.69692 0.60084 0.0
C1512 C 0.002 0.70873 0.6089 0.0
C1513 C 0.99372 0.69779 0.58805 0.0
H1514 H 0.9869 0.73217 0.5887 0.0
H1515 H 0.00742 0.70811 0.61859 0.0
O1516 O 0.00198 0.76576 0.63607 0.0
O1517 O 0.98483 0.7518 0.61263 0.0
O1518 O 0.01565 0.74822 0.61224 0.0
O1519 O 0.99859 0.7349 0.63607 0.0
H1520 H 0.98157 0.78207 0.64387 0.0
H1521 H 0.02405 0.78111 0.63128 0.0
H1522 H 0.9831 0.80751 0.64567 0.0
H1523 H 0.02485 0.80657 0.63325 0.0
H1524 H 0.94544 0.72743 0.60521 0.0
H1525 H 0.96987 0.77191 0.60191 0.0
H1526 H 0.96972 0.72898 0.61289 0.0
H1527 H 0.94562 0.7696 0.59425 0.0
H1528 H 0.98778 0.80916 0.59885 0.0
H1529 H 0.0239 0.79163 0.57954 0.0
H1530 H 0.95973 0.74294 0.67513 0.0
H1531 H 0.94073 0.76968 0.64498 0.0
H1532 H 0.02666 0.72435 0.605 0.0
H1533 H 0.03576 0.76626 0.61629 0.0
H1534 H 0.05173 0.71988 0.60302 0.0
H1535 H 0.06067 0.76106 0.61418 0.0
H1536 H 0.01462 0.71595 0.64736 0.0
H1537 H 0.97293 0.72539 0.63569 0.0
H1538 H 0.00674 0.69301 0.65535 0.0
H1539 H 0.96579 0.70224 0.64371 0.0
H1540 H 0.0467 0.76437 0.66822 0.0
H1541 H 0.05477 0.72462 0.64971 0.0
H1542 H 0.98355 0.71182 0.57389 0.0
H1543 H 0.00465 0.68726 0.60449 0.0
Li1544 Li 0.5016 0.26263 0.11489 0.0
Li1545 Li 0.48689 0.25208 0.13257 0.0
Li1546 Li 0.51269 0.24953 0.13273 0.0
Li1547 Li 0.49883 0.23691 0.11587 0.0
C1548 C 0.50133 0.28042 0.13574 0.0
N1549 N 0.50103 0.30887 0.13642 0.0
C1550 C 0.48919 0.28744 0.13895 0.0
C1551 C 0.51336 0.28787 0.13301 0.0
C1552 C 0.48924 0.30183 0.13922 0.0
C1553 C 0.51298 0.30225 0.13335 0.0
C1554 C 0.47203 0.2491 0.10664 0.0
C1555 C 0.45261 0.23417 0.10233 0.0
N1556 N 0.44631 0.2445 0.09529 0.0
C1557 C 0.46542 0.25952 0.09924 0.0
C1558 C 0.46562 0.23627 0.10811 0.0
C1559 C 0.45239 0.25702 0.09363 0.0
C1560 C 0.51419 0.27898 0.09438 0.0
N1561 N 0.50315 0.27806 0.10293 0.0
C1562 C 0.49452 0.29964 0.09484 0.0
C1563 C 0.4933 0.288 0.10319 0.0
C1564 C 0.50592 0.30099 0.08602 0.0
C1565 C 0.51579 0.2904 0.0858 0.0
H1566 H 0.52176 0.27083 0.09422 0.0
H1567 H 0.48456 0.28695 0.11 0.0
C1568 C 0.47259 0.25202 0.15758 0.0
N1569 N 0.47105 0.25436 0.14387 0.0
C1570 C 0.46146 0.25365 0.16653 0.0
C1571 C 0.44732 0.26002 0.14706 0.0
C1572 C 0.45876 0.25841 0.13852 0.0
C1573 C 0.44856 0.25768 0.1613 0.0
H1574 H 0.48254 0.24895 0.16156 0.0
H1575 H 0.4578 0.26048 0.12766 0.0
C1576 C 0.52946 0.24553 0.11146 0.0
N1577 N 0.55739 0.24026 0.1101 0.0
C1578 C 0.53416 0.23236 0.10804 0.0
C1579 C 0.53896 0.25606 0.11402 0.0
C1580 C 0.54832 0.22989 0.10743 0.0
C1581 C 0.55303 0.25317 0.11334 0.0
C1582 C 0.49362 0.22336 0.14181 0.0
C1583 C 0.50281 0.21429 0.14818 0.0
C1584 C 0.47958 0.22015 0.14147 0.0
C1585 C 0.49784 0.202 0.1538 0.0
C1586 C 0.47501 0.20777 0.14721 0.0
N1587 N 0.48416 0.19902 0.15319 0.0
C1588 C 0.53207 0.25886 0.15248 0.0
C1589 C 0.53624 0.23647 0.14365 0.0
C1590 C 0.54395 0.25816 0.16057 0.0
N1591 N 0.52854 0.24814 0.14417 0.0
C1592 C 0.54827 0.23539 0.15144 0.0
C1593 C 0.55228 0.24635 0.16 0.0
H1594 H 0.5257 0.26797 0.15277 0.0
H1595 H 0.53311 0.22804 0.13707 0.0
C1596 C 0.49252 0.22184 0.09202 0.0
N1597 N 0.49739 0.2206 0.10509 0.0
C1598 C 0.49118 0.21023 0.08364 0.0
C1599 C 0.50024 0.19633 0.10219 0.0
C1600 C 0.50139 0.20821 0.11022 0.0
C1601 C 0.49502 0.19724 0.08872 0.0
H1602 H 0.48962 0.23186 0.08813 0.0
H1603 H 0.50566 0.20755 0.12046 0.0
O1604 O 0.50144 0.26634 0.13526 0.0
O1605 O 0.48478 0.25142 0.11221 0.0
O1606 O 0.51563 0.24808 0.11229 0.0
O1607 O 0.49834 0.23547 0.13633 0.0
H1608 H 0.47979 0.28184 0.14112 0.0
H1609 H 0.52285 0.2826 0.13055 0.0
H1610 H 0.4799 0.3074 0.14162 0.0
H1611 H 0.52219 0.30815 0.13117 0.0
H1612 H 0.44754 0.22429 0.10339 0.0
H1613 H 0.47026 0.26947 0.09788 0.0
H1614 H 0.4707 0.22797 0.11346 0.0
H1615 H 0.44713 0.26503 0.08795 0.0
H1616 H 0.48673 0.30759 0.09547 0.0
H1617 H 0.52461 0.29086 0.07898 0.0
H1618 H 0.46301 0.25197 0.17745 0.0
H1619 H 0.43759 0.26297 0.14249 0.0
H1620 H 0.52695 0.22411 0.10596 0.0
H1621 H 0.53549 0.26631 0.11665 0.0
H1622 H 0.55211 0.21973 0.10488 0.0
H1623 H 0.5605 0.2612 0.11541 0.0
H1624 H 0.51367 0.21667 0.14872 0.0
H1625 H 0.47225 0.22718 0.13697 0.0
H1626 H 0.50486 0.19485 0.15867 0.0
H1627 H 0.46418 0.20515 0.14698 0.0
H1628 H 0.54673 0.26685 0.167 0.0
H1629 H 0.55431 0.22603 0.15086 0.0
H1630 H 0.48702 0.21141 0.07335 0.0
H1631 H 0.50359 0.18657 0.10642 0.0
C1632 C 0.22956 0.77644 0.83782 0.0
C1633 C 0.22843 0.76207 0.83913 0.0
C1634 C 0.2311 0.78476 0.84948 0.0
C1635 C 0.2412 0.78344 0.88629 0.0
H1636 H 0.22234 0.81859 0.888 0.0
C1637 C 0.25125 0.82242 0.93003 0.0
C1638 C 0.2399 0.8297 0.93525 0.0
C1639 C 0.24993 0.81429 0.91823 0.0
C1640 C 0.22759 0.80875 0.88774 0.0
H1641 H 0.22778 0.74516 0.8537 0.0
H1642 H 0.23027 0.75966 0.87406 0.0
H1643 H 0.21966 0.80405 0.86772 0.0
H1644 H 0.2182 0.83402 0.93231 0.0
H1645 H 0.2158 0.81968 0.91181 0.0
H1646 H 0.24879 0.78795 0.90648 0.0
C1647 C 0.23029 0.76451 0.86401 0.0
C1648 C 0.2262 0.80049 0.87603 0.0
C1649 C 0.22884 0.75619 0.85235 0.0
C1650 C 0.22717 0.82867 0.92842 0.0
C1651 C 0.22582 0.82047 0.91666 0.0
C1652 C 0.24254 0.79168 0.89802 0.0
C1653 C 0.23145 0.77889 0.86273 0.0
C1654 C 0.23298 0.78773 0.87516 0.0
C1655 C 0.23719 0.81319 0.91141 0.0
C1656 C 0.23576 0.80444 0.8989 0.0
H1657 H 0.22946 0.78124 0.82775 0.0
H1658 H 0.23219 0.79577 0.84809 0.0
H1659 H 0.24671 0.77376 0.88591 0.0
H1660 H 0.26124 0.82318 0.93496 0.0
H1661 H 0.25895 0.80902 0.91434 0.0
C1662 C 0.0174 0.52967 0.40377 0.0
C1663 C 0.01473 0.51866 0.41278 0.0
C1664 C 0.02574 0.52779 0.39221 0.0
C1665 C 0.03948 0.50075 0.36916 0.0
H1666 H 0.06463 0.52972 0.35795 0.0
C1667 C 0.07927 0.49395 0.32529 0.0
C1668 C 0.08037 0.50489 0.31588 0.0
C1669 C 0.07149 0.49541 0.33732 0.0
C1670 C 0.05758 0.52159 0.36089 0.0
H1671 H 0.0189 0.49711 0.41687 0.0
H1672 H 0.03362 0.49386 0.39675 0.0
H1673 H 0.05083 0.53263 0.37871 0.0
H1674 H 0.07432 0.52598 0.31175 0.0
H1675 H 0.06067 0.52851 0.3327 0.0
H1676 H 0.04633 0.48968 0.35134 0.0
C1677 C 0.02906 0.50388 0.39848 0.0
C1678 C 0.04965 0.52325 0.37278 0.0
C1679 C 0.02065 0.50575 0.41002 0.0
C1680 C 0.07356 0.51733 0.31875 0.0
C1681 C 0.06586 0.51882 0.33081 0.0
C1682 C 0.04747 0.49905 0.35731 0.0
C1683 C 0.03167 0.51488 0.38941 0.0
C1684 C 0.04043 0.5129 0.37701 0.0
C1685 C 0.06474 0.50788 0.34022 0.0
C1686 C 0.05653 0.5095 0.353 0.0
H1687 H 0.01281 0.53968 0.40551 0.0
H1688 H 0.02733 0.53642 0.38532 0.0
H1689 H 0.03234 0.49265 0.372 0.0
H1690 H 0.08432 0.4842 0.3233 0.0
H1691 H 0.07089 0.48683 0.34443 0.0
C1692 C 0.76867 0.74285 0.85163 0.0
C1693 C 0.76994 0.73696 0.83847 0.0
C1694 C 0.76706 0.73451 0.86325 0.0
C1695 C 0.77242 0.69885 0.87557 0.0
H1696 H 0.74826 0.71049 0.90516 0.0
C1697 C 0.77156 0.67144 0.92829 0.0
C1698 C 0.75876 0.6698 0.93483 0.0
C1699 C 0.77274 0.67949 0.91643 0.0
C1700 C 0.75494 0.70701 0.89694 0.0
H1701 H 0.77027 0.71773 0.82712 0.0
H1702 H 0.76726 0.70315 0.84737 0.0
H1703 H 0.75024 0.72457 0.88451 0.0
H1704 H 0.73709 0.6751 0.93392 0.0
H1705 H 0.73908 0.68901 0.9131 0.0
H1706 H 0.77683 0.6811 0.88785 0.0
C1707 C 0.76779 0.7142 0.84877 0.0
C1708 C 0.75622 0.71518 0.88517 0.0
C1709 C 0.76948 0.72255 0.83716 0.0
C1710 C 0.74714 0.67633 0.92921 0.0
C1711 C 0.74829 0.68432 0.9173 0.0
C1712 C 0.77109 0.69064 0.88732 0.0
C1713 C 0.76661 0.72009 0.86196 0.0
C1714 C 0.76502 0.71123 0.87436 0.0
C1715 C 0.76111 0.68602 0.91077 0.0
C1716 C 0.76238 0.69465 0.89818 0.0
H1717 H 0.76919 0.75392 0.85299 0.0
H1718 H 0.76643 0.73939 0.87326 0.0
H1719 H 0.7794 0.69556 0.86752 0.0
H1720 H 0.78073 0.66667 0.93249 0.0
H1721 H 0.78281 0.68077 0.91182 0.0
C1722 C 0.98192 0.96647 0.40244 0.0
C1723 C 0.98899 0.97777 0.40817 0.0
C1724 C 0.97371 0.96811 0.39074 0.0
C1725 C 0.96871 0.99031 0.36059 0.0
H1726 H 0.93226 0.97397 0.35947 0.0
C1727 C 0.9302 0.00172 0.31667 0.0
C1728 C 0.9217 0.9909 0.31216 0.0
C1729 C 0.93856 0.0001 0.32829 0.0
C1730 C 0.94249 0.97843 0.35951 0.0
H1731 H 0.99274 -0.00027 0.40611 0.0
H1732 H 0.9786 0.0025 0.38553 0.0
H1733 H 0.94654 0.97112 0.37993 0.0
H1734 H 0.91558 0.96977 0.316 0.0
H1735 H 0.93035 0.96682 0.33609 0.0
H1736 H 0.9648 0.99745 0.34012 0.0
C1737 C 0.97952 0.99236 0.39009 0.0
C1738 C 0.95064 0.97683 0.37126 0.0
C1739 C 0.98765 0.99075 0.40186 0.0
C1740 C 0.92188 0.97836 0.31937 0.0
C1741 C 0.93031 0.97669 0.3309 0.0
C1742 C 0.96061 0.99182 0.34878 0.0
C1743 C 0.97246 0.98106 0.38442 0.0
C1744 C 0.96382 0.98277 0.37193 0.0
C1745 C 0.93868 0.98758 0.33558 0.0
C1746 C 0.94738 0.98591 0.3481 0.0
H1747 H 0.98291 0.95627 0.40686 0.0
H1748 H 0.96852 0.95918 0.38648 0.0
H1749 H 0.97891 0.99485 0.36075 0.0
H1750 H 0.93014 0.01156 0.31141 0.0
H1751 H 0.9447 0.00878 0.33171 0.0
C1752 C 0.22451 0.22281 0.65986 0.0
C1753 C 0.22911 0.23656 0.65996 0.0
C1754 C 0.22641 0.21453 0.64823 0.0
C1755 C 0.24738 0.21106 0.61684 0.0
H1756 H 0.21681 0.18893 0.60365 0.0
C1757 C 0.24858 0.18377 0.56402 0.0
C1758 C 0.24265 0.1706 0.5631 0.0
C1759 C 0.24709 0.19164 0.57599 0.0
C1760 C 0.22551 0.19489 0.60729 0.0
H1761 H 0.23926 0.25237 0.64783 0.0
H1762 H 0.24274 0.23784 0.62764 0.0
H1763 H 0.21407 0.20282 0.6244 0.0
H1764 H 0.23075 0.15521 0.57406 0.0
H1765 H 0.22828 0.16885 0.59502 0.0
H1766 H 0.25887 0.20307 0.59982 0.0
C1767 C 0.23777 0.23346 0.63662 0.0
C1768 C 0.22393 0.20287 0.61917 0.0
C1769 C 0.2358 0.24177 0.6482 0.0
C1770 C 0.23526 0.16542 0.57441 0.0
C1771 C 0.23383 0.17325 0.5864 0.0
C1772 C 0.24899 0.20302 0.605 0.0
C1773 C 0.23303 0.21978 0.63648 0.0
C1774 C 0.23483 0.21108 0.62404 0.0
C1775 C 0.2397 0.18648 0.58733 0.0
C1776 C 0.23806 0.19488 0.60005 0.0
H1777 H 0.21953 0.21839 0.66881 0.0
H1778 H 0.22282 0.20396 0.64849 0.0
H1779 H 0.25602 0.21714 0.62045 0.0
H1780 H 0.25419 0.1881 0.5554 0.0
H1781 H 0.25154 0.20187 0.57625 0.0
C1782 C 0.47799 0.53008 0.5927 0.0
C1783 C 0.48842 0.52042 0.5898 0.0
C1784 C 0.46954 0.52851 0.60425 0.0
C1785 C 0.46875 0.51481 0.63876 0.0
H1786 H 0.42903 0.51384 0.63474 0.0
C1787 C 0.43332 0.50274 0.6849 0.0
C1788 C 0.42035 0.50905 0.68541 0.0
C1789 C 0.44159 0.50403 0.67319 0.0
C1790 C 0.44008 0.51435 0.63613 0.0
H1791 H 0.49787 0.50139 0.59684 0.0
H1792 H 0.48351 0.49911 0.61733 0.0
H1793 H 0.44352 0.51655 0.61441 0.0
H1794 H 0.4059 0.5219 0.67436 0.0
H1795 H 0.42054 0.52478 0.65416 0.0
H1796 H 0.46548 0.51319 0.66044 0.0
C1797 C 0.48191 0.50782 0.61053 0.0
C1798 C 0.44836 0.51579 0.62444 0.0
C1799 C 0.49019 0.50921 0.59884 0.0
C1800 C 0.41584 0.51684 0.67412 0.0
C1801 C 0.42421 0.51838 0.66252 0.0
C1802 C 0.46048 0.51365 0.65048 0.0
C1803 C 0.4715 0.51743 0.6133 0.0
C1804 C 0.46275 0.51597 0.62566 0.0
C1805 C 0.43718 0.51191 0.66183 0.0
C1806 C 0.44602 0.51333 0.64934 0.0
H1807 H 0.47646 0.53901 0.58621 0.0
H1808 H 0.46164 0.53613 0.60627 0.0
H1809 H 0.47985 0.51506 0.63994 0.0
H1810 H 0.43694 0.49655 0.69345 0.0
H1811 H 0.45135 0.49865 0.673 0.0
C1812 C 0.77435 0.27604 0.66085 0.0
C1813 C 0.77064 0.26204 0.66025 0.0
C1814 C 0.77277 0.28453 0.64934 0.0
C1815 C 0.75372 0.28759 0.61671 0.0
H1816 H 0.7832 0.31257 0.60646 0.0
C1817 C 0.74773 0.32876 0.57411 0.0
C1818 C 0.7587 0.33001 0.56472 0.0
C1819 C 0.74907 0.32063 0.58591 0.0
C1820 C 0.77491 0.30561 0.60917 0.0
H1821 H 0.76253 0.24597 0.64696 0.0
H1822 H 0.75963 0.26083 0.62694 0.0
H1823 H 0.78577 0.29796 0.62678 0.0
H1824 H 0.77962 0.32349 0.56035 0.0
H1825 H 0.782 0.30948 0.58103 0.0
H1826 H 0.74292 0.29514 0.59902 0.0
C1827 C 0.76362 0.26526 0.63638 0.0
C1828 C 0.77632 0.29734 0.62087 0.0
C1829 C 0.76526 0.25675 0.64787 0.0
C1830 C 0.77105 0.32297 0.56746 0.0
C1831 C 0.77242 0.31491 0.5793 0.0
C1832 C 0.75227 0.29593 0.60507 0.0
C1833 C 0.76738 0.27923 0.63698 0.0
C1834 C 0.76577 0.2882 0.62472 0.0
C1835 C 0.76144 0.31364 0.58864 0.0
C1836 C 0.76287 0.30498 0.60114 0.0
H1837 H 0.77831 0.2805 0.67029 0.0
H1838 H 0.7756 0.2953 0.65016 0.0
H1839 H 0.74537 0.28073 0.61949 0.0
H1840 H 0.73815 0.33422 0.57245 0.0
H1841 H 0.74049 0.31998 0.59301 0.0
C1842 C 0.51288 0.9923 0.59574 0.0
C1843 C 0.51152 0.97938 0.5893 0.0
C1844 C 0.52083 0.99377 0.60766 0.0
C1845 C 0.54921 0.97786 0.62687 0.0
H1846 H 0.53457 0.99811 0.65803 0.0
C1847 C 0.57675 0.9782 0.67943 0.0
C1848 C 0.57692 0.99061 0.68687 0.0
C1849 C 0.56857 0.97683 0.66767 0.0
C1850 C 0.5389 0.99258 0.64937 0.0
H1851 H 0.51739 0.95784 0.59052 0.0
H1852 H 0.53148 0.9605 0.61113 0.0
H1853 H 0.52091 0.99595 0.63704 0.0
H1854 H 0.56871 0.01133 0.68785 0.0
H1855 H 0.5546 0.00906 0.66717 0.0
H1856 H 0.56728 0.97465 0.63902 0.0
C1857 C 0.52645 0.96949 0.60688 0.0
C1858 C 0.53105 0.99132 0.63736 0.0
C1859 C 0.51841 0.96799 0.59503 0.0
C1860 C 0.56865 0.00159 0.68239 0.0
C1861 C 0.56055 0.00027 0.67056 0.0
C1862 C 0.55711 0.9792 0.63882 0.0
C1863 C 0.5277 0.98238 0.61334 0.0
C1864 C 0.53611 0.9839 0.62601 0.0
C1865 C 0.56045 0.98788 0.66301 0.0
C1866 C 0.55204 0.98653 0.65025 0.0
H1867 H 0.50792 0.00134 0.5915 0.0
H1868 H 0.52176 0.00387 0.61234 0.0
H1869 H 0.55344 0.97224 0.61821 0.0
H1870 H 0.58288 0.96949 0.68277 0.0
H1871 H 0.56853 0.96705 0.66229 0.0
C1872 C 0.84588 0.21557 0.76632 0.0
C1873 C 0.83701 0.2267 0.76372 0.0
C1874 C 0.85737 0.21722 0.77484 0.0
C1875 C 0.88042 0.24392 0.7894 0.0
H1876 H 0.89102 0.21462 0.81438 0.0
C1877 C 0.92317 0.25062 0.83026 0.0
C1878 C 0.9327 0.23979 0.8315 0.0
C1879 C 0.9113 0.24904 0.82226 0.0
C1880 C 0.88825 0.22284 0.80737 0.0
H1881 H 0.83308 0.24821 0.76821 0.0
H1882 H 0.85304 0.25107 0.78323 0.0
H1883 H 0.87058 0.21189 0.80002 0.0
H1884 H 0.93722 0.21882 0.8252 0.0
H1885 H 0.91642 0.21603 0.81139 0.0
H1886 H 0.89806 0.2549 0.79685 0.0
C1887 C 0.85129 0.24113 0.77847 0.0
C1888 C 0.87655 0.22128 0.79912 0.0
C1889 C 0.83984 0.2395 0.76988 0.0
C1890 C 0.93 0.2273 0.82466 0.0
C1891 C 0.91809 0.2257 0.81672 0.0
C1892 C 0.89207 0.24551 0.79771 0.0
C1893 C 0.86022 0.23002 0.78102 0.0
C1894 C 0.87252 0.23178 0.78999 0.0
C1895 C 0.90865 0.23658 0.81539 0.0
C1896 C 0.89614 0.23497 0.80674 0.0
H1897 H 0.84408 0.20564 0.76155 0.0
H1898 H 0.86415 0.2085 0.77637 0.0
H1899 H 0.87775 0.25212 0.78232 0.0
H1900 H 0.92479 0.26029 0.83558 0.0
H1901 H 0.90411 0.25754 0.82159 0.0
C1902 C 0.46742 0.90141 0.48448 0.0
C1903 C 0.47862 0.91011 0.48748 0.0
C1904 C 0.46926 0.8896 0.47647 0.0
C1905 C 0.49246 0.87396 0.45086 0.0
H1906 H 0.47464 0.8399 0.46181 0.0
C1907 C 0.50375 0.82213 0.42391 0.0
C1908 C 0.4925 0.81335 0.42142 0.0
C1909 C 0.50221 0.83389 0.43208 0.0
C1910 C 0.47956 0.84937 0.45852 0.0
H1911 H 0.5005 0.91331 0.48428 0.0
H1912 H 0.50374 0.89258 0.4704 0.0
H1913 H 0.47164 0.86056 0.47578 0.0
H1914 H 0.47076 0.81012 0.42542 0.0
H1915 H 0.46804 0.83066 0.43961 0.0
H1916 H 0.50031 0.8628 0.43354 0.0
C1917 C 0.49352 0.89496 0.47418 0.0
C1918 C 0.47785 0.8612 0.46653 0.0
C1919 C 0.49169 0.90675 0.48224 0.0
C1920 C 0.47968 0.81657 0.42731 0.0
C1921 C 0.47813 0.82834 0.43545 0.0
C1922 C 0.49415 0.86213 0.44282 0.0
C1923 C 0.48233 0.88623 0.47125 0.0
C1924 C 0.48426 0.87363 0.46278 0.0
C1925 C 0.48938 0.83715 0.43793 0.0
C1926 C 0.4877 0.8497 0.44654 0.0
H1927 H 0.45725 0.90364 0.48848 0.0
H1928 H 0.46041 0.88316 0.47427 0.0
H1929 H 0.49738 0.88343 0.44759 0.0
H1930 H 0.51381 0.81982 0.41968 0.0
H1931 H 0.51114 0.84033 0.43396 0.0
C1932 C 0.15115 0.25944 0.76161 0.0
C1933 C 0.15635 0.27268 0.75884 0.0
C1934 C 0.13945 0.25773 0.76983 0.0
C1935 C 0.10914 0.27654 0.78332 0.0
H1936 H 0.10781 0.24652 0.80963 0.0
C1937 C 0.06708 0.27219 0.82518 0.0
C1938 C 0.06128 0.25909 0.8273 0.0
C1939 C 0.07857 0.27381 0.81668 0.0
C1940 C 0.10798 0.25487 0.80224 0.0
H1941 H 0.15319 0.29451 0.76243 0.0
H1942 H 0.13306 0.29151 0.77707 0.0
H1943 H 0.12811 0.24944 0.79513 0.0
H1944 H 0.06307 0.23739 0.82228 0.0
H1945 H 0.08312 0.24024 0.80736 0.0
H1946 H 0.08905 0.28204 0.79058 0.0
C1947 C 0.1379 0.28245 0.77273 0.0
C1948 C 0.11959 0.25654 0.7939 0.0
C1949 C 0.14957 0.28416 0.76448 0.0
C1950 C 0.06724 0.24764 0.82075 0.0
C1951 C 0.07879 0.24925 0.81232 0.0
C1952 C 0.09756 0.27491 0.7917 0.0
C1953 C 0.1327 0.26921 0.77551 0.0
C1954 C 0.12032 0.26739 0.78434 0.0
C1955 C 0.08457 0.26235 0.81018 0.0
C1956 C 0.09685 0.26406 0.80125 0.0
H1957 H 0.1562 0.25036 0.75756 0.0
H1958 H 0.13564 0.24739 0.77163 0.0
H1959 H 0.10924 0.28487 0.7759 0.0
H1960 H 0.06264 0.28123 0.83 0.0
H1961 H 0.08288 0.28403 0.81532 0.0
C1962 C 0.51892 0.60099 0.49263 0.0
C1963 C 0.52035 0.58784 0.48675 0.0
C1964 C 0.51713 0.61257 0.48429 0.0
C1965 C 0.52195 0.62492 0.44849 0.0
H1966 H 0.49742 0.65413 0.46031 0.0
C1967 C 0.50682 0.67073 0.41351 0.0
C1968 C 0.50718 0.68385 0.41962 0.0
C1969 C 0.50832 0.65889 0.42156 0.0
C1970 C 0.50438 0.6461 0.45693 0.0
H1971 H 0.52081 0.57647 0.46754 0.0
H1972 H 0.51744 0.59666 0.45294 0.0
H1973 H 0.50001 0.6336 0.47452 0.0
H1974 H 0.50923 0.69488 0.43894 0.0
H1975 H 0.51187 0.67418 0.45301 0.0
H1976 H 0.52617 0.63742 0.4308 0.0
C1977 C 0.518 0.59808 0.46399 0.0
C1978 C 0.5059 0.63434 0.46508 0.0
C1979 C 0.51989 0.5865 0.47235 0.0
C1980 C 0.50902 0.6849 0.43394 0.0
C1981 C 0.51041 0.67306 0.442 0.0
C1982 C 0.52035 0.63664 0.44028 0.0
C1983 C 0.51662 0.61127 0.46986 0.0
C1984 C 0.51477 0.62363 0.46101 0.0
C1985 C 0.51009 0.65993 0.43589 0.0
C1986 C 0.51161 0.64738 0.44446 0.0
H1987 H 0.51945 0.60236 0.50369 0.0
H1988 H 0.51637 0.62258 0.48916 0.0
H1989 H 0.52903 0.61699 0.44513 0.0
H1990 H 0.50552 0.66961 0.40248 0.0
H1991 H 0.50794 0.6489 0.41658 0.0
C1992 C 0.84852 0.78291 0.73376 0.0
C1993 C 0.84072 0.77152 0.73814 0.0
C1994 C 0.86019 0.78108 0.72555 0.0
C1995 C 0.87673 0.75623 0.70199 0.0
H1996 H 0.90934 0.7783 0.70892 0.0
C1997 C 0.92282 0.75763 0.66445 0.0
C1998 C 0.93612 0.75775 0.67019 0.0
C1999 C 0.91122 0.75906 0.67284 0.0
C2000 C 0.90036 0.77197 0.70692 0.0
H2001 H 0.839 0.74925 0.73719 0.0
H2002 H 0.85953 0.74603 0.7231 0.0
H2003 H 0.88914 0.7811 0.72353 0.0
H2004 H 0.94765 0.75956 0.68926 0.0
H2005 H 0.9274 0.76178 0.70393 0.0
H2006 H 0.88806 0.74691 0.68553 0.0
C2007 C 0.85653 0.7564 0.7259 0.0
C2008 C 0.88872 0.77369 0.71519 0.0
C2009 C 0.84486 0.75824 0.73411 0.0
C2010 C 0.93755 0.75928 0.68452 0.0
C2011 C 0.92595 0.76072 0.69291 0.0
C2012 C 0.88838 0.7545 0.69371 0.0
C2013 C 0.86434 0.7678 0.72153 0.0
C2014 C 0.87676 0.76586 0.71281 0.0
C2015 C 0.91265 0.76066 0.68717 0.0
C2016 C 0.90032 0.76237 0.69606 0.0
H2017 H 0.8457 0.79327 0.7368 0.0
H2018 H 0.86588 0.79009 0.72224 0.0
H2019 H 0.86764 0.75013 0.69979 0.0
H2020 H 0.92135 0.75631 0.65347 0.0
H2021 H 0.90114 0.75912 0.66807 0.0
C2022 C 0.03255 0.90366 0.51765 0.0
C2023 C 0.02115 0.91064 0.51209 0.0
C2024 C 0.03069 0.89218 0.52612 0.0
C2025 C 0.00575 0.86488 0.53449 0.0
H2026 H 0.02792 0.86063 0.56745 0.0
C2027 C 0.996 0.82129 0.57379 0.0
C2028 C 0.00762 0.81477 0.57946 0.0
C2029 C 0.99746 0.83315 0.56576 0.0
C2030 C 0.02176 0.86158 0.5582 0.0
H2031 H 0.99882 0.91111 0.51127 0.0
H2032 H 0.99558 0.89098 0.52597 0.0
H2033 H 0.03081 0.88104 0.55311 0.0
H2034 H 0.02988 0.81573 0.58126 0.0
H2035 H 0.03245 0.83619 0.56697 0.0
H2036 H 0.99679 0.84536 0.53948 0.0
C2037 C 0.00597 0.89433 0.52365 0.0
C2038 C 0.0234 0.87329 0.55 0.0
C2039 C 0.00783 0.90585 0.51521 0.0
C2040 C 0.02073 0.82039 0.57692 0.0
C2041 C 0.02219 0.83224 0.56887 0.0
C2042 C 0.00414 0.85314 0.54266 0.0
C2043 C 0.01738 0.88737 0.52918 0.0
C2044 C 0.01544 0.87505 0.53803 0.0
C2045 C 0.01057 0.83876 0.5632 0.0
C2046 C 0.01215 0.85133 0.5546 0.0
H2047 H 0.04295 0.90691 0.51526 0.0
H2048 H 0.03969 0.88691 0.53005 0.0
H2049 H -0.0004 0.86585 0.52522 0.0
H2050 H 0.98577 0.81716 0.57542 0.0
H2051 H 0.98829 0.838 0.56167 0.0
C2052 C 0.15252 0.71825 0.73272 0.0
C2053 C 0.1612 0.72944 0.73578 0.0
C2054 C 0.14081 0.72008 0.72456 0.0
C2055 C 0.12547 0.74316 0.69867 0.0
H2056 H 0.0913 0.7255 0.70952 0.0
C2057 C 0.07376 0.75412 0.67124 0.0
C2058 C 0.06501 0.74281 0.66884 0.0
C2059 C 0.08551 0.75269 0.67944 0.0
C2060 C 0.10079 0.73037 0.70625 0.0
H2061 H 0.16452 0.75129 0.73251 0.0
H2062 H 0.14397 0.75452 0.71835 0.0
H2063 H 0.11182 0.72261 0.72369 0.0
H2064 H 0.06169 0.72117 0.67332 0.0
H2065 H 0.08233 0.7186 0.68734 0.0
H2066 H 0.11447 0.75085 0.68118 0.0
C2067 C 0.14627 0.74432 0.72221 0.0
C2068 C 0.11255 0.72872 0.71438 0.0
C2069 C 0.15796 0.7425 0.73043 0.0
C2070 C 0.06829 0.73005 0.67483 0.0
C2071 C 0.08003 0.72862 0.68301 0.0
C2072 C 0.11371 0.74478 0.69051 0.0
C2073 C 0.13754 0.73314 0.71924 0.0
C2074 C 0.12502 0.73506 0.71066 0.0
C2075 C 0.08878 0.73992 0.68544 0.0
C2076 C 0.10124 0.73837 0.69419 0.0
H2077 H 0.15466 0.70809 0.7368 0.0
H2078 H 0.13437 0.71124 0.72233 0.0
H2079 H 0.13498 0.74803 0.69545 0.0
H2080 H 0.07162 0.76406 0.66666 0.0
H2081 H 0.09195 0.76164 0.68121 0.0
C2082 C 0.97555 0.58848 0.52674 0.0
C2083 C 0.9777 0.58915 0.51243 0.0
C2084 C 0.97721 0.6002 0.53494 0.0
C2085 C 0.97789 0.63818 0.53327 0.0
H2086 H 0.99664 0.63524 0.56843 0.0
C2087 C 0.9937 0.68596 0.56503 0.0
C2088 C 0.99183 0.68532 0.57937 0.0
C2089 C 0.99193 0.67422 0.55688 0.0
C2090 C 0.99124 0.63621 0.55871 0.0
H2091 H 0.9831 0.60271 0.49551 0.0
H2092 H 0.98621 0.6231 0.50986 0.0
H2093 H 0.99357 0.61475 0.5542 0.0
H2094 H 0.98639 0.67189 0.59638 0.0
H2095 H 0.98327 0.65141 0.58216 0.0
H2096 H 0.97554 0.65964 0.53777 0.0
C2097 C 0.98314 0.61353 0.51472 0.0
C2098 C 0.98949 0.62447 0.55056 0.0
C2099 C 0.98151 0.60181 0.50652 0.0
C2100 C 0.98812 0.67268 0.58538 0.0
C2101 C 0.98634 0.66094 0.57724 0.0
C2102 C 0.97963 0.64992 0.54142 0.0
C2103 C 0.98102 0.61286 0.52903 0.0
C2104 C 0.98281 0.62532 0.53774 0.0
C2105 C 0.98822 0.66157 0.56289 0.0
C2106 C 0.98634 0.64908 0.55423 0.0
H2107 H 0.97273 0.57885 0.53162 0.0
H2108 H 0.97538 0.59937 0.54592 0.0
H2109 H 0.97251 0.63915 0.52354 0.0
H2110 H 0.99676 0.6955 0.56011 0.0
H2111 H 0.99367 0.675 0.54589 0.0
C2112 C 0.76883 0.84535 0.21734 0.0
C2113 C 0.76038 0.84066 0.22813 0.0
C2114 C 0.77716 0.85698 0.21905 0.0
C2115 C 0.79242 0.87954 0.24599 0.0
H2116 H 0.7977 0.90442 0.21521 0.0
C2117 C 0.83191 0.92397 0.24801 0.0
C2118 C 0.82849 0.93646 0.24151 0.0
C2119 C 0.82359 0.91233 0.2464 0.0
C2120 C 0.79623 0.89768 0.22397 0.0
H2121 H 0.75423 0.84453 0.24928 0.0
H2122 H 0.76826 0.8651 0.25206 0.0
H2123 H 0.78294 0.88437 0.2125 0.0
H2124 H 0.81357 0.94637 0.22814 0.0
H2125 H 0.79878 0.92629 0.22584 0.0
H2126 H 0.80528 0.89315 0.25762 0.0
C2127 C 0.76868 0.85964 0.24234 0.0
C2128 C 0.78791 0.88603 0.22235 0.0
C2129 C 0.76045 0.84793 0.24067 0.0
C2130 C 0.81646 0.93701 0.23345 0.0
C2131 C 0.80807 0.9254 0.23195 0.0
C2132 C 0.80063 0.89126 0.24765 0.0
C2133 C 0.77716 0.86431 0.23156 0.0
C2134 C 0.78593 0.87678 0.23332 0.0
C2135 C 0.81155 0.91288 0.23837 0.0
C2136 C 0.80268 0.90047 0.23665 0.0
H2137 H 0.76892 0.84015 0.20747 0.0
H2138 H 0.78369 0.86014 0.21058 0.0
H2139 H 0.79129 0.87257 0.25462 0.0
H2140 H 0.84098 0.92319 0.25446 0.0
H2141 H 0.82671 0.90284 0.25136 0.0
C2142 C 0.75552 0.14548 0.27721 0.0
C2143 C 0.75966 0.15826 0.27192 0.0
C2144 C 0.76382 0.13386 0.27548 0.0
C2145 C 0.79404 0.12094 0.25534 0.0
H2146 H 0.79406 0.09256 0.28346 0.0
C2147 C 0.8341 0.07662 0.25999 0.0
C2148 C 0.82818 0.06344 0.25919 0.0
C2149 C 0.82573 0.08825 0.26136 0.0
C2150 C 0.79409 0.10042 0.27554 0.0
H2151 H 0.77569 0.16914 0.26093 0.0
H2152 H 0.79061 0.14909 0.2585 0.0
H2153 H 0.77976 0.11297 0.28648 0.0
H2154 H 0.80908 0.05191 0.25938 0.0
H2155 H 0.79441 0.07231 0.26232 0.0
H2156 H 0.80894 0.10848 0.24479 0.0
C2157 C 0.78074 0.14777 0.26352 0.0
C2158 C 0.78582 0.11208 0.27717 0.0
C2159 C 0.77227 0.15931 0.26498 0.0
C2160 C 0.81382 0.06201 0.25995 0.0
C2161 C 0.80547 0.07361 0.26166 0.0
C2162 C 0.80254 0.10942 0.25388 0.0
C2163 C 0.77662 0.13485 0.2687 0.0
C2164 C 0.7856 0.12248 0.26705 0.0
C2165 C 0.81137 0.08681 0.26229 0.0
C2166 C 0.80255 0.09906 0.26393 0.0
H2167 H 0.74574 0.14444 0.2825 0.0
H2168 H 0.76009 0.12409 0.27934 0.0
H2169 H 0.79398 0.12851 0.24716 0.0
H2170 H 0.84517 0.07792 0.25939 0.0
H2171 H 0.83046 0.09835 0.26188 0.0
C2172 C 0.40038 0.98983 0.98931 0.0
C2173 C 0.40852 0.9888 0.97735 0.0
C2174 C 0.38852 0.9818 0.99083 0.0
C2175 C 0.37302 0.94941 0.98006 0.0
H2176 H 0.33825 0.96621 0.99022 0.0
C2177 C 0.32269 0.918 0.98045 0.0
C2178 C 0.31291 0.92093 0.99068 0.0
C2179 C 0.33413 0.92654 0.97863 0.0
C2180 C 0.34791 0.96129 0.98759 0.0
H2181 H 0.41031 0.97857 0.95752 0.0
H2182 H 0.3899 0.96422 0.96046 0.0
H2183 H 0.35876 0.98055 0.98772 0.0
H2184 H 0.3074 0.93498 0.00709 0.0
H2185 H 0.32762 0.94968 0.00429 0.0
H2186 H 0.36243 0.93012 0.98033 0.0
C2187 C 0.39276 0.97129 0.96862 0.0
C2188 C 0.35963 0.96954 0.9861 0.0
C2189 C 0.4045 0.97947 0.96699 0.0
C2190 C 0.31475 0.93258 0.99904 0.0
C2191 C 0.32631 0.94103 0.99737 0.0
C2192 C 0.36137 0.94113 0.98176 0.0
C2193 C 0.38466 0.9724 0.98053 0.0
C2194 C 0.37226 0.96368 0.98225 0.0
C2195 C 0.33618 0.9381 0.98716 0.0
C2196 C 0.34862 0.94696 0.98548 0.0
H2197 H 0.40325 0.99669 0.99763 0.0
H2198 H 0.38251 0.98273 0.00018 0.0
H2199 H 0.38269 0.94462 0.97726 0.0
H2200 H 0.32141 0.90915 0.97375 0.0
H2201 H 0.3413 0.92411 0.97045 0.0
C2202 C 0.23182 0.34361 0.25802 0.0
C2203 C 0.2383 0.34146 0.27079 0.0
C2204 C 0.22342 0.35511 0.25595 0.0
C2205 C 0.21708 0.39012 0.26868 0.0
H2206 H 0.1814 0.38597 0.25113 0.0
C2207 C 0.18386 0.43659 0.25203 0.0
C2208 C 0.16986 0.436 0.25567 0.0
C2209 C 0.19227 0.42501 0.25355 0.0
C2210 C 0.19133 0.38727 0.25608 0.0
H2211 H 0.24121 0.34973 0.29133 0.0
H2212 H 0.22654 0.36985 0.28771 0.0
H2213 H 0.196 0.36575 0.2546 0.0
H2214 H 0.15362 0.42279 0.26344 0.0
H2215 H 0.16831 0.40253 0.26606 0.0
H2216 H 0.21239 0.41162 0.27023 0.0
C2217 C 0.22797 0.36263 0.27931 0.0
C2218 C 0.19972 0.37573 0.25796 0.0
C2219 C 0.23625 0.35107 0.28142 0.0
C2220 C 0.1644 0.42356 0.26067 0.0
C2221 C 0.17277 0.41195 0.26205 0.0
C2222 C 0.20875 0.40168 0.26668 0.0
C2223 C 0.22146 0.36476 0.26656 0.0
C2224 C 0.21265 0.37703 0.26435 0.0
C2225 C 0.18681 0.41258 0.25859 0.0
C2226 C 0.19576 0.40036 0.26042 0.0
H2227 H 0.23313 0.33632 0.24967 0.0
H2228 H 0.2186 0.35654 0.24598 0.0
H2229 H 0.22705 0.39145 0.27353 0.0
H2230 H 0.18837 0.44607 0.24824 0.0
H2231 H 0.20303 0.42576 0.25069 0.0
C2232 C 0.09708 0.01851 0.46584 0.0
C2233 C 0.09115 0.01158 0.47711 0.0
C2234 C 0.10862 0.02694 0.46766 0.0
C2235 C 0.13812 0.03281 0.49048 0.0
H2236 H 0.139 0.06906 0.47372 0.0
C2237 C 0.18151 0.07189 0.50207 0.0
C2238 C 0.18615 0.08019 0.49117 0.0
C2239 C 0.1699 0.06352 0.50044 0.0
C2240 C 0.13902 0.05889 0.47831 0.0
H2241 H 0.0927 0.00826 0.49917 0.0
H2242 H 0.11302 0.02275 0.50225 0.0
H2243 H 0.11883 0.05439 0.47062 0.0
H2244 H 0.18252 0.08602 0.46993 0.0
H2245 H 0.16244 0.07122 0.46696 0.0
H2246 H 0.15838 0.03715 0.49798 0.0
C2247 C 0.10873 0.02157 0.49201 0.0
C2248 C 0.12744 0.05052 0.47656 0.0
C2249 C 0.09711 0.01324 0.49023 0.0
C2250 C 0.17904 0.07987 0.47857 0.0
C2251 C 0.16751 0.07141 0.4769 0.0
C2252 C 0.14976 0.04114 0.49213 0.0
C2253 C 0.11458 0.02852 0.48075 0.0
C2254 C 0.12687 0.03741 0.48264 0.0
C2255 C 0.16275 0.06317 0.48783 0.0
C2256 C 0.15036 0.05429 0.48608 0.0
H2257 H 0.09293 0.01728 0.45556 0.0
H2258 H 0.11302 0.03203 0.45876 0.0
H2259 H 0.13802 0.02267 0.49514 0.0
H2260 H 0.18671 0.07206 0.51194 0.0
H2261 H 0.1664 0.05749 0.50915 0.0
C2262 C 0.72782 0.15707 0.7391 0.0
C2263 C 0.73529 0.15911 0.72687 0.0
C2264 C 0.71944 0.14546 0.74068 0.0
C2265 C 0.71491 0.11008 0.72834 0.0
H2266 H 0.67789 0.11364 0.74296 0.0
C2267 C 0.68209 0.06335 0.74517 0.0
C2268 C 0.66833 0.06318 0.74069 0.0
C2269 C 0.69022 0.0751 0.74338 0.0
C2270 C 0.68819 0.11251 0.73881 0.0
H2271 H 0.73996 0.15056 0.70677 0.0
H2272 H 0.72535 0.13023 0.70956 0.0
H2273 H 0.69215 0.1342 0.7399 0.0
H2274 H 0.65222 0.0752 0.73099 0.0
H2275 H 0.66643 0.09579 0.7279 0.0
H2276 H 0.71096 0.08839 0.72725 0.0
C2277 C 0.72597 0.13762 0.7179 0.0
C2278 C 0.69637 0.12425 0.73717 0.0
C2279 C 0.73423 0.1493 0.71626 0.0
C2280 C 0.66283 0.07502 0.73445 0.0
C2281 C 0.67092 0.08682 0.73278 0.0
C2282 C 0.70677 0.09833 0.73011 0.0
C2283 C 0.71849 0.13559 0.73013 0.0
C2284 C 0.7098 0.12315 0.73189 0.0
C2285 C 0.6847 0.08696 0.73719 0.0
C2286 C 0.69333 0.09943 0.73534 0.0
H2287 H 0.72837 0.16452 0.74739 0.0
H2288 H 0.71386 0.1441 0.75025 0.0
H2289 H 0.72526 0.10893 0.72434 0.0
H2290 H 0.68662 0.05433 0.74992 0.0
H2291 H 0.70078 0.07496 0.74697 0.0
C2292 C 0.41039 0.02602 0.51787 0.0
C2293 C 0.40899 0.01185 0.52044 0.0
C2294 C 0.39876 0.03429 0.51605 0.0
C2295 C 0.36131 0.03234 0.50823 0.0
H2296 H 0.36115 0.0695 0.52294 0.0
C2297 C 0.31211 0.06561 0.51189 0.0
C2298 C 0.31327 0.07928 0.5073 0.0
C2299 C 0.32383 0.05739 0.51331 0.0
C2300 C 0.3611 0.05918 0.51869 0.0
H2301 H 0.39434 0.99525 0.52335 0.0
H2302 H 0.37402 0.00968 0.52051 0.0
H2303 H 0.3815 0.0551 0.5259 0.0
H2304 H 0.32757 0.09516 0.50077 0.0
H2305 H 0.34809 0.08079 0.50334 0.0
H2306 H 0.34076 0.0364 0.50129 0.0
C2307 C 0.38408 0.01439 0.51953 0.0
C2308 C 0.37277 0.05093 0.52033 0.0
C2309 C 0.39572 0.00611 0.5212 0.0
C2310 C 0.32638 0.08461 0.50423 0.0
C2311 C 0.33811 0.07644 0.5058 0.0
C2312 C 0.34959 0.04055 0.50671 0.0
C2313 C 0.38544 0.02859 0.5169 0.0
C2314 C 0.37303 0.0374 0.51511 0.0
C2315 C 0.33695 0.06274 0.51031 0.0
C2316 C 0.34938 0.05404 0.51191 0.0
H2317 H 0.42051 0.03068 0.51707 0.0
H2318 H 0.40022 0.04511 0.5138 0.0
H2319 H 0.36122 0.02208 0.50384 0.0
H2320 H 0.30212 0.06122 0.51424 0.0
H2321 H 0.32265 0.04689 0.5169 0.0
C2322 C 0.60513 0.49412 0.52098 0.0
C2323 C 0.59192 0.48823 0.5216 0.0
C2324 C 0.61674 0.48583 0.51916 0.0
C2325 C 0.62862 0.44963 0.52224 0.0
H2326 H 0.65883 0.46253 0.49948 0.0
C2327 C 0.67399 0.41471 0.50603 0.0
C2328 C 0.68725 0.42039 0.50733 0.0
C2329 C 0.66233 0.42297 0.50766 0.0
C2330 C 0.65051 0.45885 0.50595 0.0
H2331 H 0.58048 0.46908 0.52052 0.0
H2332 H 0.60069 0.4546 0.51707 0.0
H2333 H 0.63847 0.47693 0.5024 0.0
H2334 H 0.69871 0.4392 0.51114 0.0
H2335 H 0.67831 0.45365 0.51398 0.0
H2336 H 0.64065 0.43145 0.5256 0.0
C2337 C 0.60215 0.46559 0.51833 0.0
C2338 C 0.63886 0.4671 0.50767 0.0
C2339 C 0.59055 0.47388 0.52027 0.0
C2340 C 0.68861 0.43452 0.51019 0.0
C2341 C 0.67695 0.44281 0.51169 0.0
C2342 C 0.64023 0.44133 0.52043 0.0
C2343 C 0.61541 0.47146 0.51779 0.0
C2344 C 0.62777 0.46262 0.51586 0.0
C2345 C 0.66369 0.43711 0.5105 0.0
C2346 C 0.65131 0.44587 0.5123 0.0
H2347 H 0.60651 0.50514 0.52215 0.0
H2348 H 0.62679 0.49068 0.51904 0.0
H2349 H 0.62041 0.44594 0.52882 0.0
H2350 H 0.67263 0.40383 0.50394 0.0
H2351 H 0.65223 0.41833 0.50658 0.0
C2352 C 0.72553 0.27294 0.34018 0.0
C2353 C 0.7232 0.2587 0.34127 0.0
C2354 C 0.72704 0.28104 0.35199 0.0
C2355 C 0.73517 0.27865 0.38921 0.0
H2356 H 0.72004 0.31559 0.39006 0.0
C2357 C 0.74834 0.3172 0.43254 0.0
C2358 C 0.73786 0.32603 0.43716 0.0
C2359 C 0.74628 0.30882 0.42101 0.0
C2360 C 0.72421 0.30524 0.39006 0.0
H2361 H 0.72034 0.24181 0.35558 0.0
H2362 H 0.72276 0.25595 0.37622 0.0
H2363 H 0.71657 0.30123 0.36979 0.0
H2364 H 0.71689 0.33276 0.43356 0.0
H2365 H 0.71318 0.31797 0.41358 0.0
H2366 H 0.74248 0.28252 0.40963 0.0
C2367 C 0.72373 0.26084 0.36624 0.0
C2368 C 0.72238 0.29707 0.37835 0.0
C2369 C 0.72231 0.25273 0.35442 0.0
C2370 C 0.72522 0.3262 0.43011 0.0
C2371 C 0.72312 0.31774 0.41864 0.0
C2372 C 0.73694 0.2868 0.40095 0.0
C2373 C 0.72617 0.27509 0.36517 0.0
C2374 C 0.72789 0.2837 0.37774 0.0
C2375 C 0.73365 0.309 0.4139 0.0
C2376 C 0.73153 0.30022 0.40151 0.0
H2377 H 0.72644 0.27779 0.33017 0.0
H2378 H 0.72914 0.29193 0.35076 0.0
H2379 H 0.7397 0.26846 0.38905 0.0
H2380 H 0.75825 0.31699 0.43766 0.0
H2381 H 0.7547 0.3024 0.41752 0.0
C2382 C 0.52255 0.02847 0.90746 0.0
C2383 C 0.51565 0.0172 0.91342 0.0
C2384 C 0.5309 0.02667 0.89589 0.0
C2385 C 0.53614 0.00376 0.86633 0.0
H2386 H 0.57165 0.02192 0.86373 0.0
C2387 C 0.57307 0.9942 0.82072 0.0
C2388 C 0.5803 0.00562 0.81548 0.0
C2389 C 0.56552 0.99528 0.83292 0.0
C2390 C 0.56169 0.01691 0.86421 0.0
H2391 H 0.51244 0.99511 0.91202 0.0
H2392 H 0.52688 0.99202 0.89168 0.0
H2393 H 0.55794 0.0244 0.88462 0.0
H2394 H 0.58537 0.02709 0.81913 0.0
H2395 H 0.57185 0.0291 0.84013 0.0
H2396 H 0.53973 0.99647 0.84585 0.0
C2397 C 0.5257 0.00227 0.89593 0.0
C2398 C 0.55386 0.0183 0.8762 0.0
C2399 C 0.51741 0.00405 0.90757 0.0
C2400 C 0.57979 0.01814 0.82276 0.0
C2401 C 0.57218 0.01923 0.83492 0.0
C2402 C 0.54393 0.00243 0.8543 0.0
C2403 C 0.53249 0.01357 0.88995 0.0
C2404 C 0.54099 0.01178 0.87737 0.0
C2405 C 0.56496 0.00782 0.84017 0.0
C2406 C 0.55678 0.00903 0.85307 0.0
H2407 H 0.52125 0.03878 0.91153 0.0
H2408 H 0.53586 0.0356 0.89139 0.0
H2409 H 0.52617 0.99876 0.86686 0.0
H2410 H 0.57311 0.98444 0.81531 0.0
H2411 H 0.56021 0.98623 0.83673 0.0
C2412 C 0.26479 0.24364 0.35132 0.0
C2413 C 0.27032 0.2383 0.33904 0.0
C2414 C 0.26306 0.23521 0.36285 0.0
C2415 C 0.27599 0.20334 0.3786 0.0
H2416 H 0.24259 0.20523 0.40042 0.0
C2417 C 0.26484 0.16494 0.42254 0.0
C2418 C 0.25869 0.17011 0.43458 0.0
C2419 C 0.2661 0.1732 0.41083 0.0
C2420 C 0.25205 0.2047 0.39454 0.0
H2421 H 0.27804 0.21978 0.32919 0.0
H2422 H 0.27515 0.20512 0.34938 0.0
H2423 H 0.24499 0.21975 0.38006 0.0
H2424 H 0.24892 0.18802 0.44369 0.0
H2425 H 0.25147 0.20255 0.4234 0.0
H2426 H 0.28315 0.18843 0.39313 0.0
C2427 C 0.2723 0.21588 0.35011 0.0
C2428 C 0.25341 0.213 0.38286 0.0
C2429 C 0.27398 0.22429 0.33855 0.0
C2430 C 0.25385 0.18376 0.43464 0.0
C2431 C 0.25515 0.19204 0.42294 0.0
C2432 C 0.27467 0.1951 0.39032 0.0
C2433 C 0.26688 0.22126 0.3624 0.0
C2434 C 0.26538 0.2124 0.37476 0.0
C2435 C 0.26128 0.18686 0.41088 0.0
C2436 C 0.26268 0.19566 0.39843 0.0
H2437 H 0.26207 0.25443 0.35213 0.0
H2438 H 0.25901 0.2397 0.37224 0.0
H2439 H 0.28543 0.20281 0.37268 0.0
H2440 H 0.26882 0.15452 0.42217 0.0
H2441 H 0.27073 0.16882 0.40167 0.0
C2442 C 0.48149 0.46708 0.90248 0.0
C2443 C 0.48885 0.47836 0.90787 0.0
C2444 C 0.47329 0.46859 0.89076 0.0
C2445 C 0.46887 0.48981 0.8599 0.0
H2446 H 0.43198 0.47444 0.85938 0.0
C2447 C 0.43091 0.50002 0.81519 0.0
C2448 C 0.42211 0.48922 0.81122 0.0
C2449 C 0.43915 0.49878 0.82693 0.0
C2450 C 0.44233 0.47862 0.85926 0.0
H2451 H 0.49316 0.50015 0.90517 0.0
H2452 H 0.47904 0.50268 0.88452 0.0
H2453 H 0.44613 0.47211 0.87999 0.0
H2454 H 0.41533 0.46853 0.81613 0.0
H2455 H 0.42994 0.4662 0.83643 0.0
H2456 H 0.46522 0.49611 0.83911 0.0
C2457 C 0.47971 0.49266 0.88939 0.0
C2458 C 0.4504 0.47733 0.8711 0.0
C2459 C 0.48782 0.49118 0.9012 0.0
C2460 C 0.42188 0.47708 0.81907 0.0
C2461 C 0.43022 0.47579 0.83073 0.0
C2462 C 0.46084 0.491 0.848 0.0
C2463 C 0.47235 0.48138 0.88407 0.0
C2464 C 0.46375 0.4829 0.87154 0.0
C2465 C 0.43888 0.48666 0.83488 0.0
C2466 C 0.44746 0.48541 0.84753 0.0
H2467 H 0.48224 0.45699 0.90716 0.0
H2468 H 0.46787 0.45968 0.88677 0.0
H2469 H 0.47919 0.49406 0.8599 0.0
H2470 H 0.43116 0.50956 0.80941 0.0
H2471 H 0.44553 0.50744 0.82992 0.0
C2472 C 0.72659 0.7223 0.16179 0.0
C2473 C 0.7301 0.73636 0.16141 0.0
C2474 C 0.72859 0.71393 0.15025 0.0
C2475 C 0.74816 0.71157 0.11778 0.0
H2476 H 0.71909 0.6864 0.10684 0.0
C2477 C 0.74853 0.68356 0.06533 0.0
C2478 C 0.74394 0.66983 0.06498 0.0
C2479 C 0.74709 0.69146 0.07728 0.0
C2480 C 0.72739 0.69323 0.10985 0.0
H2481 H 0.73836 0.75264 0.1485 0.0
H2482 H 0.74196 0.738 0.12843 0.0
H2483 H 0.71625 0.70047 0.12745 0.0
H2484 H 0.73452 0.65352 0.07699 0.0
H2485 H 0.73212 0.66725 0.0979 0.0
H2486 H 0.75932 0.70433 0.10022 0.0
C2487 C 0.73781 0.73343 0.13772 0.0
C2488 C 0.72575 0.7013 0.12165 0.0
C2489 C 0.73577 0.74181 0.14924 0.0
C2490 C 0.73796 0.66414 0.07688 0.0
C2491 C 0.73658 0.67201 0.08885 0.0
C2492 C 0.74982 0.70346 0.106 0.0
C2493 C 0.73419 0.71941 0.13808 0.0
C2494 C 0.73609 0.71061 0.12572 0.0
C2495 C 0.74109 0.68579 0.08919 0.0
C2496 C 0.73943 0.69424 0.10186 0.0
H2497 H 0.72241 0.71772 0.17107 0.0
H2498 H 0.72588 0.70312 0.15089 0.0
H2499 H 0.75639 0.71851 0.12076 0.0
H2500 H 0.753 0.6883 0.05627 0.0
H2501 H 0.75047 0.7021 0.07711 0.0
C2502 C 0.98068 0.03269 0.09656 0.0
C2503 C 0.98704 0.02132 0.0902 0.0
C2504 C 0.97201 0.03084 0.10788 0.0
C2505 C 0.96443 0.00697 0.13616 0.0
H2506 H 0.92963 0.02645 0.138 0.0
C2507 C 0.925 0.99679 0.17949 0.0
C2508 C 0.91798 0.00822 0.18495 0.0
C2509 C 0.93314 0.99813 0.1677 0.0
C2510 C 0.93938 0.02106 0.13774 0.0
H2511 H 0.98905 0.99906 0.09072 0.0
H2512 H 0.97408 0.99589 0.11066 0.0
H2513 H 0.94445 0.02934 0.11793 0.0
H2514 H 0.91388 0.03 0.18208 0.0
H2515 H 0.92842 0.03244 0.16182 0.0
H2516 H 0.95954 0.99887 0.15606 0.0
C2517 C 0.97591 0.00623 0.10689 0.0
C2518 C 0.94785 0.0227 0.12622 0.0
C2519 C 0.98452 0.00806 0.09549 0.0
C2520 C 0.91927 0.02102 0.17828 0.0
C2521 C 0.92747 0.02237 0.16653 0.0
C2522 C 0.95601 0.0054 0.14773 0.0
C2523 C 0.96956 0.0176 0.11319 0.0
C2524 C 0.96047 0.01569 0.12532 0.0
C2525 C 0.93452 0.01095 0.1611 0.0
C2526 C 0.94339 0.01245 0.14868 0.0
H2527 H 0.98258 0.04306 0.09293 0.0
H2528 H 0.9674 0.03981 0.11265 0.0
H2529 H 0.97418 0.00157 0.13583 0.0
H2530 H 0.92438 0.98681 0.18444 0.0
H2531 H 0.93829 0.98907 0.16371 0.0
C2532 C 0.27473 0.77429 0.15939 0.0
C2533 C 0.27179 0.76011 0.15873 0.0
C2534 C 0.27291 0.78268 0.14785 0.0
C2535 C 0.25442 0.78476 0.11479 0.0
H2536 H 0.28254 0.81162 0.10551 0.0
C2537 C 0.24675 0.82619 0.07271 0.0
C2538 C 0.25787 0.8285 0.06371 0.0
C2539 C 0.24835 0.81784 0.08434 0.0
C2540 C 0.27463 0.80412 0.10794 0.0
H2541 H 0.26476 0.74364 0.14531 0.0
H2542 H 0.26146 0.75834 0.12522 0.0
H2543 H 0.28555 0.79695 0.1257 0.0
H2544 H 0.27932 0.82362 0.05979 0.0
H2545 H 0.28212 0.8092 0.08014 0.0
H2546 H 0.24358 0.79185 0.09694 0.0
C2547 C 0.26504 0.76297 0.13473 0.0
C2548 C 0.27629 0.79582 0.11957 0.0
C2549 C 0.26691 0.75455 0.14625 0.0
C2550 C 0.27061 0.82226 0.06662 0.0
C2551 C 0.27222 0.81398 0.07827 0.0
C2552 C 0.25273 0.79313 0.10321 0.0
C2553 C 0.26806 0.77712 0.13539 0.0
C2554 C 0.26622 0.78602 0.1231 0.0
C2555 C 0.2611 0.81168 0.08726 0.0
C2556 C 0.26283 0.80287 0.09963 0.0
H2557 H 0.27827 0.77895 0.16889 0.0
H2558 H 0.27514 0.79359 0.14873 0.0
H2559 H 0.24643 0.77739 0.11733 0.0
H2560 H 0.23686 0.831 0.07091 0.0
H2561 H 0.23964 0.81641 0.09117 0.0
C2562 C 0.01567 0.46552 0.09726 0.0
C2563 C 0.01037 0.47697 0.09016 0.0
C2564 C 0.02393 0.46731 0.10892 0.0
C2565 C 0.0455 0.49318 0.12696 0.0
H2566 H 0.04112 0.46841 0.15799 0.0
C2567 C 0.0714 0.50271 0.17975 0.0
C2568 C 0.0776 0.49127 0.18612 0.0
C2569 C 0.06323 0.50102 0.16802 0.0
C2570 C 0.04254 0.47533 0.14935 0.0
H2571 H 0.00975 0.49931 0.08972 0.0
H2572 H 0.02378 0.50242 0.11028 0.0
H2573 H 0.02674 0.46542 0.13761 0.0
H2574 H 0.08022 0.4691 0.18495 0.0
H2575 H 0.0658 0.46615 0.16459 0.0
H2576 H 0.06121 0.50318 0.13883 0.0
C2577 C 0.02173 0.49205 0.10672 0.0
C2578 C 0.03433 0.47361 0.13766 0.0
C2579 C 0.01352 0.49026 0.09502 0.0
C2580 C 0.0754 0.4781 0.18047 0.0
C2581 C 0.06717 0.47641 0.16878 0.0
C2582 C 0.05366 0.49496 0.13869 0.0
C2583 C 0.02703 0.4806 0.11382 0.0
C2584 C 0.03573 0.48249 0.1263 0.0
C2585 C 0.06101 0.48784 0.16243 0.0
C2586 C 0.05229 0.48603 0.15 0.0
H2587 H 0.01333 0.45514 0.09391 0.0
H2588 H 0.02797 0.45826 0.11402 0.0
H2589 H 0.04702 0.50007 0.11832 0.0
H2590 H 0.07268 0.51297 0.18395 0.0
H2591 H 0.05846 0.51 0.16344 0.0
C2592 C 0.34262 0.74252 0.26719 0.0
C2593 C 0.33861 0.7292 0.26313 0.0
C2594 C 0.35426 0.74448 0.27545 0.0
C2595 C 0.3867 0.72764 0.28575 0.0
H2596 H 0.38605 0.75395 0.31583 0.0
C2597 C 0.43571 0.74229 0.31606 0.0
C2598 C 0.43446 0.74323 0.33045 0.0
C2599 C 0.42401 0.74098 0.30777 0.0
C2600 C 0.38636 0.74651 0.30751 0.0
H2601 H 0.34373 0.7075 0.26451 0.0
H2602 H 0.36388 0.7109 0.27911 0.0
H2603 H 0.36549 0.75063 0.30171 0.0
H2604 H 0.41992 0.74383 0.34741 0.0
H2605 H 0.39952 0.74131 0.33295 0.0
H2606 H 0.40747 0.72331 0.29169 0.0
C2607 C 0.3581 0.71984 0.2758 0.0
C2608 C 0.37464 0.74472 0.29934 0.0
C2609 C 0.34646 0.71788 0.26757 0.0
C2610 C 0.42124 0.74297 0.33636 0.0
C2611 C 0.40954 0.74169 0.32806 0.0
C2612 C 0.39842 0.72945 0.2939 0.0
C2613 C 0.36216 0.73316 0.2798 0.0
C2614 C 0.37466 0.73522 0.2884 0.0
C2615 C 0.4108 0.74061 0.31368 0.0
C2616 C 0.39838 0.73888 0.30489 0.0
H2617 H 0.33672 0.75144 0.26403 0.0
H2618 H 0.35718 0.75488 0.27826 0.0
H2619 H 0.3871 0.72035 0.2773 0.0
H2620 H 0.44575 0.74233 0.31119 0.0
H2621 H 0.42532 0.74031 0.2967 0.0
C2622 C 0.98474 0.40828 0.97697 0.0
C2623 C 0.97601 0.40798 0.98845 0.0
C2624 C 0.98652 0.3965 0.96888 0.0
C2625 C 0.98034 0.35842 0.96908 0.0
H2626 H 0.98758 0.36221 0.92996 0.0
C2627 C 0.97732 0.3148 0.92771 0.0
C2628 C 0.99012 0.31203 0.92146 0.0
C2629 C 0.97561 0.32636 0.93613 0.0
C2630 C 0.98558 0.36107 0.94089 0.0
H2631 H 0.96202 0.39543 0.00041 0.0
H2632 H 0.96445 0.37504 0.98592 0.0
H2633 H 0.98407 0.38278 0.94398 0.0
H2634 H 0.01123 0.31935 0.91952 0.0
H2635 H 0.00789 0.33989 0.9336 0.0
H2636 H 0.98127 0.33658 0.96564 0.0
C2637 C 0.97042 0.38412 0.98338 0.0
C2638 C 0.98369 0.37282 0.94897 0.0
C2639 C 0.96891 0.39581 0.99164 0.0
C2640 C 0.00113 0.32122 0.92384 0.0
C2641 C 0.9993 0.33294 0.932 0.0
C2642 C 0.98193 0.34667 0.9609 0.0
C2643 C 0.97933 0.38425 0.97192 0.0
C2644 C 0.98113 0.37169 0.96322 0.0
C2645 C 0.98655 0.33555 0.93821 0.0
C2646 C 0.98465 0.34793 0.94679 0.0
H2647 H 0.99041 0.41756 0.97442 0.0
H2648 H 0.9937 0.39699 0.96036 0.0
H2649 H 0.9787 0.35705 0.98002 0.0
H2650 H 0.96851 0.30819 0.92595 0.0
H2651 H 0.96565 0.32828 0.94079 0.0
C2652 C 0.6456 0.76651 0.25582 0.0
C2653 C 0.65812 0.7713 0.26132 0.0
C2654 C 0.63414 0.76457 0.26432 0.0
C2655 C 0.6195 0.77536 0.29764 0.0
H2656 H 0.59608 0.7433 0.29288 0.0
C2657 C 0.56685 0.77011 0.32469 0.0
C2658 C 0.56348 0.75717 0.33026 0.0
C2659 C 0.57846 0.7717 0.31635 0.0
C2660 C 0.60257 0.75225 0.29441 0.0
H2661 H 0.66849 0.77754 0.28013 0.0
H2662 H 0.64848 0.7742 0.29493 0.0
H2663 H 0.61639 0.74614 0.27835 0.0
H2664 H 0.56982 0.73578 0.33157 0.0
H2665 H 0.59009 0.73857 0.31697 0.0
H2666 H 0.6058 0.78138 0.31382 0.0
C2667 C 0.64747 0.77214 0.28401 0.0
C2668 C 0.61412 0.75396 0.28598 0.0
C2669 C 0.65893 0.77406 0.27552 0.0
C2670 C 0.57201 0.74585 0.32727 0.0
C2671 C 0.58362 0.74744 0.31892 0.0
C2672 C 0.60794 0.77367 0.30604 0.0
C2673 C 0.63494 0.7674 0.2785 0.0
C2674 C 0.62271 0.76553 0.2875 0.0
C2675 C 0.58699 0.76039 0.31337 0.0
C2676 C 0.59933 0.76211 0.30451 0.0
H2677 H 0.64457 0.76449 0.2449 0.0
H2678 H 0.62458 0.7611 0.25972 0.0
H2679 H 0.62583 0.78445 0.29899 0.0
H2680 H 0.56038 0.77899 0.32659 0.0
H2681 H 0.58065 0.78177 0.31206 0.0
C2682 C 0.03326 0.09437 0.9796 0.0
C2683 C 0.0231 0.09074 0.98931 0.0
C2684 C 0.0316 0.10595 0.97121 0.0
C2685 C 0.01524 0.13948 0.96959 0.0
H2686 H 0.0184 0.13583 0.92995 0.0
C2687 C 0.00178 0.18438 0.93301 0.0
C2688 C 0.00925 0.18565 0.92071 0.0
C2689 C 0.00356 0.17286 0.94146 0.0
C2690 C 0.01773 0.13713 0.941 0.0
H2691 H 0.00312 0.09653 0.99757 0.0
H2692 H 0.00059 0.11704 0.98331 0.0
H2693 H 0.02163 0.11569 0.94457 0.0
H2694 H 0.02471 0.17621 0.90774 0.0
H2695 H 0.02832 0.15639 0.92272 0.0
H2696 H 0.01181 0.16094 0.9662 0.0
C2697 C 0.00979 0.11082 0.98224 0.0
C2698 C 0.0195 0.12555 0.94935 0.0
C2699 C 0.01131 0.0991 0.99045 0.0
C2700 C 0.01872 0.17536 0.91712 0.0
C2701 C 0.02069 0.16397 0.92567 0.0
C2702 C 0.01372 0.15112 0.96127 0.0
C2703 C 0.01989 0.1143 0.97251 0.0
C2704 C 0.0182 0.12661 0.9637 0.0
C2705 C 0.01305 0.16248 0.93791 0.0
C2706 C 0.01487 0.15011 0.94684 0.0
H2707 H 0.04261 0.0884 0.97858 0.0
H2708 H 0.0396 0.10852 0.96386 0.0
H2709 H 0.01433 0.14056 0.98066 0.0
H2710 H 0.99431 0.19214 0.93593 0.0
H2711 H 0.99729 0.172 0.95064 0.0
C2712 C 0.35239 0.28296 0.24009 0.0
C2713 C 0.34151 0.27344 0.23942 0.0
C2714 C 0.36417 0.28115 0.23204 0.0
C2715 C 0.38294 0.25487 0.21135 0.0
H2716 H 0.4011 0.28707 0.19622 0.0
C2717 C 0.43451 0.25081 0.182 0.0
C2718 C 0.43651 0.25954 0.17061 0.0
C2719 C 0.42316 0.25255 0.19068 0.0
C2720 C 0.39609 0.27794 0.20023 0.0
H2721 H 0.3343 0.25467 0.22974 0.0
H2722 H 0.35466 0.25168 0.21533 0.0
H2723 H 0.38065 0.28991 0.21032 0.0
H2724 H 0.42813 0.27711 0.1596 0.0
H2725 H 0.40807 0.27969 0.17427 0.0
H2726 H 0.39801 0.24286 0.20072 0.0
C2727 C 0.35432 0.26036 0.22234 0.0
C2728 C 0.38445 0.27959 0.20852 0.0
C2729 C 0.34261 0.26208 0.23054 0.0
C2730 C 0.42685 0.27004 0.16813 0.0
C2731 C 0.41542 0.27167 0.17671 0.0
C2732 C 0.39448 0.25321 0.20292 0.0
C2733 C 0.36527 0.26986 0.22299 0.0
C2734 C 0.37772 0.26808 0.21421 0.0
C2735 C 0.41343 0.26297 0.18812 0.0
C2736 C 0.40121 0.26472 0.19724 0.0
H2737 H 0.35186 0.29172 0.24699 0.0
H2738 H 0.37248 0.28853 0.23304 0.0
H2739 H 0.37817 0.24577 0.21569 0.0
H2740 H 0.44163 0.24251 0.18416 0.0
H2741 H 0.42209 0.24576 0.19947 0.0
C2742 C 0.5083 0.40403 0.0124 0.0
C2743 C 0.52161 0.40907 0.00965 0.0
C2744 C 0.50643 0.39233 0.02058 0.0
C2745 C 0.52495 0.3617 0.03373 0.0
H2746 H 0.4949 0.36021 0.06 0.0
C2747 C 0.52063 0.31927 0.0751 0.0
C2748 C 0.50756 0.31337 0.07716 0.0
C2749 C 0.5222 0.33089 0.06676 0.0
C2750 C 0.50326 0.36043 0.05261 0.0
H2751 H 0.54339 0.40564 0.01329 0.0
H2752 H 0.54012 0.38553 0.02788 0.0
H2753 H 0.49794 0.38067 0.04572 0.0
H2754 H 0.48589 0.31503 0.07192 0.0
H2755 H 0.48862 0.33543 0.05751 0.0
H2756 H 0.53035 0.34151 0.04076 0.0
C2757 C 0.53112 0.3905 0.02354 0.0
C2758 C 0.50499 0.37214 0.04441 0.0
C2759 C 0.53299 0.40215 0.01533 0.0
C2760 C 0.49607 0.31943 0.07073 0.0
C2761 C 0.49763 0.3311 0.06246 0.0
C2762 C 0.52326 0.35003 0.04198 0.0
C2763 C 0.51782 0.38541 0.02624 0.0
C2764 C 0.51588 0.37292 0.03489 0.0
C2765 C 0.51072 0.33693 0.06036 0.0
C2766 C 0.51241 0.34928 0.05152 0.0
H2767 H 0.49929 0.40919 0.00832 0.0
H2768 H 0.49605 0.38861 0.02232 0.0
H2769 H 0.53329 0.36184 0.02632 0.0
H2770 H 0.52966 0.31504 0.08009 0.0
H2771 H 0.53238 0.33529 0.0655 0.0
C2772 C 0.65249 0.2202 0.23135 0.0
C2773 C 0.66217 0.23081 0.23324 0.0
C2774 C 0.64074 0.22236 0.22334 0.0
C2775 C 0.62663 0.24377 0.19566 0.0
H2776 H 0.59127 0.23168 0.20986 0.0
C2777 C 0.57728 0.24042 0.16238 0.0
C2778 C 0.56506 0.24541 0.16831 0.0
C2779 C 0.58928 0.2393 0.17026 0.0
C2780 C 0.60106 0.23518 0.2058 0.0
H2781 H 0.66728 0.25191 0.22802 0.0
H2782 H 0.64671 0.25568 0.21392 0.0
H2783 H 0.61204 0.22842 0.2237 0.0
H2784 H 0.55579 0.25315 0.18709 0.0
H2785 H 0.57677 0.25114 0.20089 0.0
H2786 H 0.61563 0.25047 0.17773 0.0
C2787 C 0.64824 0.2457 0.21866 0.0
C2788 C 0.61295 0.2332 0.21366 0.0
C2789 C 0.65994 0.24358 0.2268 0.0
C2790 C 0.56509 0.24935 0.18224 0.0
C2791 C 0.57705 0.24809 0.19015 0.0
C2792 C 0.61475 0.24562 0.18774 0.0
C2793 C 0.63847 0.23514 0.21695 0.0
C2794 C 0.62586 0.23745 0.20866 0.0
C2795 C 0.58926 0.24303 0.18425 0.0
C2796 C 0.60185 0.24133 0.19273 0.0
H2797 H 0.65386 0.21029 0.23629 0.0
H2798 H 0.63344 0.214 0.2221 0.0
H2799 H 0.63646 0.24706 0.19152 0.0
H2800 H 0.57758 0.23743 0.15163 0.0
H2801 H 0.59851 0.23527 0.16547 0.0
C2802 C 0.47691 0.08851 0.02657 0.0
C2803 C 0.48001 0.08895 0.01242 0.0
C2804 C 0.4788 0.10014 0.03484 0.0
C2805 C 0.48182 0.13799 0.033 0.0
H2806 H 0.49729 0.13432 0.06966 0.0
C2807 C 0.497 0.18513 0.06593 0.0
C2808 C 0.49361 0.18473 0.08001 0.0
C2809 C 0.49555 0.1734 0.05771 0.0
C2810 C 0.49282 0.1355 0.0595 0.0
H2811 H 0.48743 0.102 0.99588 0.0
H2812 H 0.49095 0.12223 0.01036 0.0
H2813 H 0.4944 0.11391 0.05526 0.0
H2814 H 0.48591 0.1717 0.09644 0.0
H2815 H 0.48338 0.15122 0.08209 0.0
H2816 H 0.48023 0.15957 0.03724 0.0
C2817 C 0.48694 0.11292 0.01502 0.0
C2818 C 0.49117 0.12381 0.05125 0.0
C2819 C 0.48507 0.10128 0.00676 0.0
C2820 C 0.4888 0.1723 0.08568 0.0
C2821 C 0.48735 0.16057 0.07746 0.0
C2822 C 0.48348 0.14968 0.04124 0.0
C2823 C 0.4838 0.11249 0.02915 0.0
C2824 C 0.48564 0.12492 0.03791 0.0
C2825 C 0.49068 0.16099 0.06337 0.0
C2826 C 0.48899 0.14857 0.05459 0.0
H2827 H 0.47312 0.07913 0.03128 0.0
H2828 H 0.47615 0.09952 0.04566 0.0
H2829 H 0.47733 0.13918 0.02286 0.0
H2830 H 0.50095 0.19448 0.06129 0.0
H2831 H 0.49841 0.17401 0.04694 0.0
C2832 C 0.26905 0.34448 0.71697 0.0
C2833 C 0.26076 0.33969 0.72784 0.0
C2834 C 0.2773 0.35617 0.71862 0.0
C2835 C 0.29267 0.37884 0.74539 0.0
H2836 H 0.2971 0.40393 0.71464 0.0
C2837 C 0.33183 0.42355 0.74678 0.0
C2838 C 0.32823 0.43603 0.74038 0.0
C2839 C 0.32352 0.41188 0.74534 0.0
C2840 C 0.29586 0.39713 0.7234 0.0
H2841 H 0.25487 0.34342 0.74909 0.0
H2842 H 0.26878 0.36408 0.75177 0.0
H2843 H 0.28257 0.38368 0.71209 0.0
H2844 H 0.31296 0.44596 0.72743 0.0
H2845 H 0.29819 0.42581 0.72539 0.0
H2846 H 0.30554 0.39257 0.75686 0.0
C2847 C 0.26912 0.35866 0.74203 0.0
C2848 C 0.28768 0.38538 0.72186 0.0
C2849 C 0.26096 0.34689 0.74042 0.0
C2850 C 0.316 0.43658 0.73263 0.0
C2851 C 0.30761 0.42494 0.73129 0.0
C2852 C 0.30075 0.39067 0.74697 0.0
C2853 C 0.27739 0.36346 0.73114 0.0
C2854 C 0.28602 0.37604 0.73282 0.0
C2855 C 0.3113 0.41242 0.73757 0.0
C2856 C 0.3025 0.39994 0.73597 0.0
H2857 H 0.26904 0.33933 0.70707 0.0
H2858 H 0.28368 0.35943 0.71007 0.0
H2859 H 0.29178 0.37182 0.75401 0.0
H2860 H 0.34105 0.42277 0.75301 0.0
H2861 H 0.32679 0.40239 0.75018 0.0
C2862 C 0.26568 0.65475 0.75819 0.0
C2863 C 0.26124 0.65876 0.77138 0.0
C2864 C 0.27382 0.64301 0.75648 0.0
C2865 C 0.28347 0.61043 0.77354 0.0
H2866 H 0.31422 0.61126 0.74806 0.0
C2867 C 0.31406 0.56152 0.75905 0.0
C2868 C 0.32846 0.5628 0.75823 0.0
C2869 C 0.30576 0.57319 0.76049 0.0
C2870 C 0.30572 0.61089 0.75528 0.0
H2871 H 0.26176 0.6535 0.79309 0.0
H2872 H 0.27617 0.63317 0.79012 0.0
H2873 H 0.3001 0.63179 0.75112 0.0
H2874 H 0.34542 0.57738 0.75808 0.0
H2875 H 0.33097 0.5977 0.76085 0.0
H2876 H 0.28926 0.58962 0.7779 0.0
C2877 C 0.27325 0.63903 0.78109 0.0
C2878 C 0.29754 0.6226 0.75692 0.0
C2879 C 0.26513 0.65077 0.78281 0.0
C2880 C 0.33437 0.57602 0.75883 0.0
C2881 C 0.32608 0.58768 0.76026 0.0
C2882 C 0.29165 0.59871 0.77188 0.0
C2883 C 0.27769 0.63501 0.76791 0.0
C2884 C 0.28633 0.62252 0.76609 0.0
C2885 C 0.31168 0.5864 0.76112 0.0
C2886 C 0.30288 0.59881 0.76276 0.0
H2887 H 0.26298 0.66076 0.74919 0.0
H2888 H 0.27696 0.64012 0.74617 0.0
H2889 H 0.27483 0.60999 0.78057 0.0
H2890 H 0.30919 0.55148 0.75875 0.0
H2891 H 0.29469 0.57186 0.76099 0.0
C2892 C 0.90407 0.48337 0.4899 0.0
C2893 C 0.90939 0.48681 0.47688 0.0
C2894 C 0.89218 0.47532 0.49105 0.0
C2895 C 0.8706 0.45055 0.47183 0.0
H2896 H 0.843 0.46016 0.49905 0.0
C2897 C 0.8175 0.42362 0.47431 0.0
C2898 C 0.81252 0.42023 0.48748 0.0
C2899 C 0.82919 0.43192 0.47282 0.0
C2900 C 0.85068 0.45726 0.49149 0.0
H2901 H 0.90626 0.48465 0.45485 0.0
H2902 H 0.88554 0.47058 0.45686 0.0
H2903 H 0.86372 0.47422 0.49687 0.0
H2904 H 0.81606 0.42274 0.50941 0.0
H2905 H 0.83641 0.43721 0.50681 0.0
H2906 H 0.85757 0.43356 0.46647 0.0
C2907 C 0.89068 0.47394 0.46619 0.0
C2908 C 0.86255 0.46531 0.49025 0.0
C2909 C 0.90256 0.48199 0.46504 0.0
C2910 C 0.81948 0.42535 0.49912 0.0
C2911 C 0.83115 0.43364 0.49763 0.0
C2912 C 0.85873 0.44249 0.47307 0.0
C2913 C 0.88534 0.47053 0.4792 0.0
C2914 C 0.87267 0.46203 0.48043 0.0
C2915 C 0.83615 0.43701 0.48447 0.0
C2916 C 0.84865 0.44573 0.48295 0.0
H2917 H 0.9092 0.48674 0.49922 0.0
H2918 H 0.88845 0.47269 0.50123 0.0
H2919 H 0.87829 0.44763 0.46429 0.0
H2920 H 0.81227 0.42 0.46514 0.0
H2921 H 0.83268 0.43448 0.46254 0.0
C2922 C 0.73788 0.84754 0.75852 0.0
C2923 C 0.73801 0.84024 0.77104 0.0
C2924 C 0.72961 0.8592 0.75691 0.0
C2925 C 0.71028 0.8854 0.77704 0.0
H2926 H 0.6929 0.89254 0.74181 0.0
C2927 C 0.68141 0.93615 0.76631 0.0
C2928 C 0.66942 0.93556 0.75819 0.0
C2929 C 0.68987 0.92461 0.76773 0.0
C2930 C 0.69754 0.89064 0.75177 0.0
H2931 H 0.72952 0.83966 0.79173 0.0
H2932 H 0.71467 0.85954 0.7887 0.0
H2933 H 0.70698 0.87206 0.74469 0.0
H2934 H 0.65706 0.92229 0.74507 0.0
H2935 H 0.67143 0.90204 0.74805 0.0
H2936 H 0.70037 0.90365 0.7843 0.0
C2937 C 0.72119 0.85644 0.78021 0.0
C2938 C 0.70581 0.87898 0.75337 0.0
C2939 C 0.72957 0.84487 0.78187 0.0
C2940 C 0.6661 0.9231 0.75156 0.0
C2941 C 0.67448 0.91152 0.7531 0.0
C2942 C 0.70189 0.89698 0.77549 0.0
C2943 C 0.72114 0.8638 0.76773 0.0
C2944 C 0.71231 0.87621 0.76602 0.0
C2945 C 0.68649 0.91212 0.76119 0.0
C2946 C 0.69543 0.89977 0.76283 0.0
H2947 H 0.74409 0.84419 0.74989 0.0
H2948 H 0.72999 0.86469 0.74721 0.0
H2949 H 0.71526 0.88373 0.78688 0.0
H2950 H 0.68422 0.9455 0.77172 0.0
H2951 H 0.69913 0.92554 0.77388 0.0
C2952 C 0.59683 0.51912 0.96643 0.0
C2953 C 0.59232 0.50997 0.97673 0.0
C2954 C 0.60846 0.52735 0.96849 0.0
C2955 C 0.63162 0.54061 0.99608 0.0
H2956 H 0.65535 0.54902 0.96511 0.0
C2957 C 0.67534 0.58066 0.00027 0.0
C2958 C 0.68751 0.57846 0.99273 0.0
C2959 C 0.6639 0.57212 0.99841 0.0
C2960 C 0.64897 0.54665 0.97393 0.0
H2961 H 0.59659 0.50248 0.99737 0.0
H2962 H 0.61722 0.51623 0.00064 0.0
H2963 H 0.63548 0.5342 0.96175 0.0
H2964 H 0.69711 0.56539 0.97733 0.0
H2965 H 0.67748 0.55009 0.97465 0.0
H2966 H 0.64546 0.55253 0.00839 0.0
C2967 C 0.61158 0.51732 0.99109 0.0
C2968 C 0.63739 0.53831 0.97195 0.0
C2969 C 0.59983 0.50923 0.98911 0.0
C2970 C 0.688 0.56733 0.98345 0.0
C2971 C 0.67662 0.55867 0.98174 0.0
C2972 C 0.64331 0.54879 0.9981 0.0
C2973 C 0.61604 0.52653 0.98082 0.0
C2974 C 0.62851 0.53524 0.98298 0.0
C2975 C 0.66437 0.561 0.98912 0.0
C2976 C 0.6521 0.552 0.98704 0.0
H2977 H 0.59146 0.51985 0.95668 0.0
H2978 H 0.61143 0.53446 0.96042 0.0
H2979 H 0.62495 0.53866 0.0048 0.0
H2980 H 0.67461 0.58896 0.00768 0.0
H2981 H 0.65462 0.57438 0.00415 0.0
C2982 C 0.22978 0.65707 0.23915 0.0
C2983 C 0.23913 0.65779 0.22815 0.0
C2984 C 0.22159 0.64537 0.24102 0.0
C2985 C 0.20892 0.61418 0.22257 0.0
H2986 H 0.19971 0.60203 0.2595 0.0
C2987 C 0.1822 0.56214 0.23412 0.0
C2988 C 0.1706 0.56293 0.24273 0.0
C2989 C 0.19085 0.57355 0.23249 0.0
C2990 C 0.20216 0.60536 0.24914 0.0
H2991 H 0.24752 0.64678 0.21066 0.0
H2992 H 0.23359 0.62615 0.21413 0.0
H2993 H 0.21445 0.62216 0.25638 0.0
H2994 H 0.15911 0.57607 0.25662 0.0
H2995 H 0.17438 0.59597 0.25393 0.0
H2996 H 0.19684 0.59711 0.21542 0.0
C2997 C 0.23221 0.63476 0.2211 0.0
C2998 C 0.21055 0.61693 0.24732 0.0
C2999 C 0.24025 0.64654 0.21913 0.0
C3000 C 0.16794 0.57524 0.24986 0.0
C3001 C 0.17671 0.58657 0.24839 0.0
C3002 C 0.2007 0.6025 0.22441 0.0
C3003 C 0.22272 0.63403 0.23204 0.0
C3004 C 0.21398 0.62155 0.23401 0.0
C3005 C 0.18818 0.58586 0.23961 0.0
C3006 C 0.19719 0.59803 0.2377 0.0
H3007 H 0.22863 0.66567 0.24617 0.0
H3008 H 0.21423 0.64532 0.24939 0.0
H3009 H 0.21109 0.61754 0.21217 0.0
H3010 H 0.18443 0.55279 0.22845 0.0
H3011 H 0.19968 0.57273 0.22571 0.0
C3012 C 0.90586 0.51596 0.00553 0.0
C3013 C 0.91185 0.51414 0.01861 0.0
C3014 C 0.89428 0.52435 0.00389 0.0
C3015 C 0.87527 0.55287 0.01995 0.0
H3016 H 0.84442 0.53928 0.99844 0.0
C3017 C 0.82858 0.58678 0.00533 0.0
C3018 C 0.8155 0.58081 0.00709 0.0
C3019 C 0.84047 0.57879 0.00662 0.0
C3020 C 0.85294 0.54318 0.00451 0.0
H3021 H 0.91023 0.5197 0.04022 0.0
H3022 H 0.89022 0.53453 0.03726 0.0
H3023 H 0.86508 0.52514 0.00088 0.0
H3024 H 0.8046 0.5618 0.01144 0.0
H3025 H 0.82541 0.54783 0.01369 0.0
H3026 H 0.86309 0.57087 0.02366 0.0
C3027 C 0.89457 0.52953 0.02828 0.0
C3028 C 0.8648 0.53515 0.0058 0.0
C3029 C 0.90607 0.52106 0.02996 0.0
C3030 C 0.81455 0.56669 0.01013 0.0
C3031 C 0.82644 0.55868 0.01129 0.0
C3032 C 0.86345 0.56095 0.01855 0.0
C3033 C 0.8885 0.53119 0.01525 0.0
C3034 C 0.87606 0.53988 0.01359 0.0
C3035 C 0.83952 0.56465 0.00957 0.0
C3036 C 0.85214 0.55616 0.01088 0.0
H3037 H 0.91017 0.51099 0.99653 0.0
H3038 H 0.88992 0.52559 0.99369 0.0
H3039 H 0.88383 0.55681 0.02593 0.0
H3040 H 0.82962 0.59766 0.00309 0.0
H3041 H 0.85042 0.58365 0.00515 0.0
C3042 C 0.09544 0.98012 0.03309 0.0
C3043 C 0.08889 0.98606 0.02161 0.0
C3044 C 0.10703 0.97178 0.0314 0.0
C3045 C 0.13542 0.96471 0.00738 0.0
H3046 H 0.13908 0.93076 0.02809 0.0
C3047 C 0.17945 0.92613 0.99719 0.0
C3048 C 0.18552 0.91969 0.00866 0.0
C3049 C 0.16758 0.93411 0.9987 0.0
C3050 C 0.1383 0.94029 0.02236 0.0
H3051 H 0.08928 0.98762 -0.00068 0.0
H3052 H 0.10961 0.97318 0.99639 0.0
H3053 H 0.11846 0.94482 0.03085 0.0
H3054 H 0.18375 0.91655 0.03072 0.0
H3055 H 0.16329 0.93078 0.03342 0.0
H3056 H 0.1553 0.9603 0.999 0.0
C3057 C 0.10583 0.97511 0.00671 0.0
C3058 C 0.12647 0.94833 0.02392 0.0
C3059 C 0.09419 0.9834 0.0084 0.0
C3060 C 0.17945 0.92148 0.02169 0.0
C3061 C 0.1676 0.9295 0.02321 0.0
C3062 C 0.14728 0.95671 0.00586 0.0
C3063 C 0.1124 0.96924 0.0182 0.0
C3064 C 0.1249 0.96062 0.01644 0.0
C3065 C 0.1615 0.9359 0.01173 0.0
C3066 C 0.14887 0.9444 0.01333 0.0
H3067 H 0.09178 0.98214 0.04344 0.0
H3068 H 0.11198 0.96755 0.04046 0.0
H3069 H 0.13459 0.97423 0.00163 0.0
H3070 H 0.18393 0.92511 0.98703 0.0
H3071 H 0.16308 0.93876 0.98962 0.0
loop_
_geom_bond_atom_site_label_1
_geom_bond_atom_site_label_2
_geom_bond_distance
_geom_bond_site_symmetry_2
_ccdc_geom_bond_type
C0 C1 1.384 . S
C0 H13 0.947 . S
C0 C35 1.382 1_655 S
C1 C0 1.384 . S
C1 C2 1.378 1_655 S
C2 C1 1.378 1_455 S
C2 C3 1.378 . S
C2 H14 0.952 . S
C3 C2 1.378 . S
C3 H15 0.950 . S
C3 C34 1.383 . S
H4 C23 0.947 . S
H5 C24 0.946 . S
H6 C26 0.953 . S
H7 C27 0.945 . S
H8 C29 0.952 . S
H9 C30 0.949 . S
H10 C32 0.950 . S
H11 C33 0.948 . S
H12 C35 0.951 . S
H13 C0 0.947 . S
H14 C2 0.952 . S
H15 C3 0.950 . S
N16 C19 1.382 . S
N16 C21 1.363 . S
N17 C19 1.371 . S
N17 C20 1.372 . S
N18 C20 1.361 . S
N18 C21 1.377 . S
C19 N16 1.382 . S
C19 N17 1.371 . S
C19 C22 1.480 . S
C20 N17 1.372 . S
C20 N18 1.361 . S
C20 C28 1.457 . S
C21 N16 1.363 . S
C21 N18 1.377 . S
C21 C34 1.479 . S
C22 C19 1.480 . S
C22 C23 1.383 . S
C22 C27 1.385 . S
C23 H4 0.947 . S
C23 C22 1.383 . S
C23 C24 1.388 1_545 S
C24 H5 0.946 . S
C24 C23 1.388 1_565 S
C24 C25 1.384 . S
C25 C24 1.384 . S
C25 C26 1.377 1_565 S
C26 H6 0.953 . S
C26 C25 1.377 1_545 S
C26 C27 1.369 . S
C27 H7 0.945 . S
C27 C22 1.385 . S
C27 C26 1.369 . S
C28 C20 1.457 . S
C28 C29 1.372 . S
C28 C33 1.364 . S
C29 H8 0.952 . S
C29 C28 1.372 . S
C29 C30 1.389 1_554 S
C30 H9 0.949 . S
C30 C29 1.389 1_556 S
C30 C31 1.387 . S
C31 C30 1.387 . S
C31 C32 1.372 1_556 S
C32 H10 0.950 . S
C32 C31 1.372 1_554 S
C32 C33 1.379 . S
C33 H11 0.948 . S
C33 C28 1.364 . S
C33 C32 1.379 . S
C34 C3 1.383 . S
C34 C21 1.479 . S
C34 C35 1.398 . S
C35 C0 1.382 1_455 S
C35 H12 0.951 . S
C35 C34 1.398 . S
C36 C37 1.384 . S
C36 H49 0.947 . S
C36 C71 1.382 . S
C37 C36 1.384 . S
C37 C38 1.378 . S
C38 C37 1.378 . S
C38 C39 1.378 . S
C38 H50 0.952 . S
C39 C38 1.378 . S
C39 H51 0.950 . S
C39 C70 1.383 . S
H40 C59 0.947 . S
H41 C60 0.946 . S
H42 C62 0.953 . S
H43 C63 0.945 . S
H44 C65 0.952 . S
H45 C66 0.949 . S
H46 C68 0.950 . S
H47 C69 0.948 . S
H48 C71 0.951 . S
H49 C36 0.947 . S
H50 C38 0.952 . S
H51 C39 0.950 . S
N52 C55 1.382 . S
N52 C57 1.363 . S
N53 C55 1.371 . S
N53 C56 1.372 . S
N54 C56 1.361 . S
N54 C57 1.377 . S
C55 N52 1.382 . S
C55 N53 1.371 . S
C55 C58 1.480 . S
C56 N53 1.372 . S
C56 N54 1.361 . S
C56 C64 1.457 . S
C57 N52 1.363 . S
C57 N54 1.377 . S
C57 C70 1.479 . S
C58 C55 1.480 . S
C58 C59 1.383 . S
C58 C63 1.385 . S
C59 H40 0.947 . S
C59 C58 1.383 . S
C59 C60 1.388 . S
C60 H41 0.946 . S
C60 C59 1.388 . S
C60 C61 1.384 . S
C61 C60 1.384 . S
C61 C62 1.377 . S
C62 H42 0.953 . S
C62 C61 1.377 . S
C62 C63 1.369 . S
C63 H43 0.945 . S
C63 C58 1.385 . S
C63 C62 1.369 . S
C64 C56 1.457 . S
C64 C65 1.372 . S
C64 C69 1.364 . S
C65 H44 0.952 . S
C65 C64 1.372 . S
C65 C66 1.389 . S
C66 H45 0.949 . S
C66 C65 1.389 . S
C66 C67 1.387 . S
C67 C66 1.387 . S
C67 C68 1.372 . S
C68 H46 0.950 . S
C68 C67 1.372 . S
C68 C69 1.379 . S
C69 H47 0.948 . S
C69 C64 1.364 . S
C69 C68 1.379 . S
C70 C39 1.383 . S
C70 C57 1.479 . S
C70 C71 1.398 . S
C71 C36 1.382 . S
C71 H48 0.951 . S
C71 C70 1.398 . S
C72 C73 1.384 1_554 S
C72 H85 0.947 . S
C72 C107 1.382 . S
C73 C72 1.384 1_556 S
C73 C74 1.378 . S
C74 C73 1.378 . S
C74 C75 1.378 1_556 S
C74 H86 0.952 . S
C75 C74 1.378 1_554 S
C75 H87 0.950 1_554 S
C75 C106 1.383 . S
H76 C95 0.947 . S
H77 C96 0.946 . S
H78 C98 0.953 . S
H79 C99 0.945 . S
H80 C101 0.952 . S
H81 C102 0.949 . S
H82 C104 0.950 . S
H83 C105 0.943 1_455 S
H84 C107 0.951 . S
H85 C72 0.947 . S
H86 C74 0.952 . S
H87 C75 0.950 1_556 S
N88 C91 1.382 . S
N88 C93 1.363 . S
N89 C91 1.371 . S
N89 C92 1.372 . S
N90 C92 1.361 . S
N90 C93 1.377 . S
C91 N88 1.382 . S
C91 N89 1.371 . S
C91 C94 1.480 . S
C92 N89 1.372 . S
C92 N90 1.361 . S
C92 C100 1.457 . S
C93 N88 1.363 . S
C93 N90 1.377 . S
C93 C106 1.479 . S
C94 C91 1.480 . S
C94 C95 1.383 . S
C94 C99 1.385 . S
C95 H76 0.947 . S
C95 C94 1.383 . S
C95 C96 1.388 . S
C96 H77 0.946 . S
C96 C95 1.388 . S
C96 C97 1.384 . S
C97 C96 1.384 . S
C97 C98 1.377 . S
C98 H78 0.953 . S
C98 C97 1.377 . S
C98 C99 1.369 . S
C99 H79 0.945 . S
C99 C94 1.385 . S
C99 C98 1.369 . S
C100 C92 1.457 . S
C100 C101 1.372 . S
C100 C105 1.381 . S
C101 H80 0.952 . S
C101 C100 1.372 . S
C101 C102 1.389 . S
C102 H81 0.949 . S
C102 C101 1.389 . S
C102 C103 1.387 1_655 S
C103 C102 1.387 1_455 S
C103 C104 1.372 . S
C104 H82 0.950 . S
C104 C103 1.372 . S
C104 C105 1.366 1_455 S
C105 H83 0.943 1_655 S
C105 C100 1.381 . S
C105 C104 1.366 1_655 S
C106 C75 1.383 . S
C106 C93 1.479 . S
C106 C107 1.398 . S
C107 C72 1.382 . S
C107 H84 0.951 . S
C107 C106 1.398 . S
C108 C109 1.384 . S
C108 H121 0.947 . S
C108 C143 1.382 . S
C109 C108 1.384 . S
C109 C110 1.378 . S
C110 C109 1.378 . S
C110 C111 1.378 . S
C110 H122 0.952 . S
C111 C110 1.378 . S
C111 H123 0.950 . S
C111 C142 1.383 . S
H112 C131 0.947 . S
H113 C132 0.946 . S
H114 C134 0.953 . S
H115 C135 0.945 . S
H116 C137 0.952 . S
H117 C138 0.949 . S
H118 C140 0.950 . S
H119 C141 0.948 . S
H120 C143 0.951 . S
H121 C108 0.947 . S
H122 C110 0.952 . S
H123 C111 0.950 . S
N124 C127 1.382 . S
N124 C129 1.363 . S
N125 C127 1.371 . S
N125 C128 1.372 . S
N126 C128 1.361 . S
N126 C129 1.377 . S
C127 N124 1.382 . S
C127 N125 1.371 . S
C127 C130 1.480 . S
C128 N125 1.372 . S
C128 N126 1.361 . S
C128 C136 1.457 . S
C129 N124 1.363 . S
C129 N126 1.377 . S
C129 C142 1.479 . S
C130 C127 1.480 . S
C130 C131 1.383 . S
C130 C135 1.385 . S
C131 H112 0.947 . S
C131 C130 1.383 . S
C131 C132 1.388 . S
C132 H113 0.946 . S
C132 C131 1.388 . S
C132 C133 1.384 . S
C133 C132 1.384 . S
C133 C134 1.377 . S
C134 H114 0.953 . S
C134 C133 1.377 . S
C134 C135 1.369 . S
C135 H115 0.945 . S
C135 C130 1.385 . S
C135 C134 1.369 . S
C136 C128 1.457 . S
C136 C137 1.372 . S
C136 C141 1.364 . S
C137 H116 0.952 . S
C137 C136 1.372 . S
C137 C138 1.389 . S
C138 H117 0.949 . S
C138 C137 1.389 . S
C138 C139 1.387 . S
C139 C138 1.387 . S
C139 C140 1.372 . S
C140 H118 0.950 . S
C140 C139 1.372 . S
C140 C141 1.379 . S
C141 H119 0.948 . S
C141 C136 1.364 . S
C141 C140 1.379 . S
C142 C111 1.383 . S
C142 C129 1.479 . S
C142 C143 1.398 . S
C143 C108 1.382 . S
C143 H120 0.951 . S
C143 C142 1.398 . S
C144 C145 1.384 . S
C144 H157 0.947 . S
C144 C179 1.382 . S
C145 C144 1.384 . S
C145 C146 1.378 . S
C146 C145 1.378 . S
C146 C147 1.378 . S
C146 H158 0.952 . S
C147 C146 1.378 . S
C147 H159 0.950 . S
C147 C178 1.383 . S
H148 C167 0.947 . S
H149 C168 0.946 . S
H150 C170 0.953 . S
H151 C171 0.945 . S
H152 C173 0.963 . S
H153 C174 0.949 . S
H154 C176 0.950 . S
H155 C177 0.948 . S
H156 C179 0.951 . S
H157 C144 0.947 . S
H158 C146 0.952 . S
H159 C147 0.950 . S
N160 C163 1.382 . S
N160 C165 1.363 . S
N161 C163 1.371 . S
N161 C164 1.372 . S
N162 C164 1.361 . S
N162 C165 1.377 . S
C163 N160 1.382 . S
C163 N161 1.371 . S
C163 C166 1.480 . S
C164 N161 1.372 . S
C164 N162 1.361 . S
C164 C172 1.457 . S
C165 N160 1.363 . S
C165 N162 1.377 . S
C165 C178 1.479 . S
C166 C163 1.480 . S
C166 C167 1.383 . S
C166 C171 1.385 . S
C167 H148 0.947 . S
C167 C166 1.383 . S
C167 C168 1.388 1_455 S
C168 H149 0.946 . S
C168 C167 1.388 1_655 S
C168 C169 1.384 . S
C169 C168 1.384 . S
C169 C170 1.377 1_655 S
C170 H150 0.953 . S
C170 C169 1.377 1_455 S
C170 C171 1.369 . S
C171 H151 0.945 . S
C171 C166 1.385 . S
C171 C170 1.369 . S
C172 C164 1.457 . S
C172 C173 1.372 . S
C172 C177 1.364 . S
C173 H152 0.963 . S
C173 C172 1.372 . S
C173 C174 1.389 1_565 S
C174 H153 0.949 . S
C174 C173 1.389 1_545 S
C174 C175 1.387 . S
C175 C174 1.387 . S
C175 C176 1.372 1_545 S
C176 H154 0.950 . S
C176 C175 1.372 1_565 S
C176 C177 1.379 . S
C177 H155 0.948 . S
C177 C172 1.364 . S
C177 C176 1.379 . S
C178 C147 1.383 . S
C178 C165 1.479 . S
C178 C179 1.398 . S
C179 C144 1.382 . S
C179 H156 0.951 . S
C179 C178 1.398 . S
C180 C181 1.384 . S
C180 H193 0.947 . S
C180 C215 1.382 . S
C181 C180 1.384 . S
C181 C182 1.378 . S
C182 C181 1.378 . S
C182 C183 1.378 . S
C182 H194 0.952 . S
C183 C182 1.378 . S
C183 H195 0.950 . S
C183 C214 1.383 . S
H184 C203 0.947 . S
H185 C204 0.946 . S
H186 C206 0.953 . S
H187 C207 0.945 . S
H188 C209 0.952 . S
H189 C210 0.949 . S
H190 C212 0.950 . S
H191 C213 0.948 . S
H192 C215 0.951 . S
H193 C180 0.947 . S
H194 C182 0.952 . S
H195 C183 0.950 . S
N196 C199 1.382 . S
N196 C201 1.363 . S
N197 C199 1.371 . S
N197 C200 1.372 . S
N198 C200 1.361 . S
N198 C201 1.377 . S
C199 N196 1.382 . S
C199 N197 1.371 . S
C199 C202 1.480 . S
C200 N197 1.372 . S
C200 N198 1.361 . S
C200 C208 1.457 . S
C201 N196 1.363 . S
C201 N198 1.377 . S
C201 C214 1.479 . S
C202 C199 1.480 . S
C202 C203 1.383 . S
C202 C207 1.385 . S
C203 H184 0.947 . S
C203 C202 1.383 . S
C203 C204 1.388 . S
C204 H185 0.946 . S
C204 C203 1.388 . S
C204 C205 1.384 . S
C205 C204 1.384 . S
C205 C206 1.377 . S
C206 H186 0.953 . S
C206 C205 1.377 . S
C206 C207 1.369 . S
C207 H187 0.945 . S
C207 C202 1.385 . S
C207 C206 1.369 . S
C208 C200 1.457 . S
C208 C209 1.372 . S
C208 C213 1.364 . S
C209 H188 0.952 . S
C209 C208 1.372 . S
C209 C210 1.389 . S
C210 H189 0.949 . S
C210 C209 1.389 . S
C210 C211 1.387 . S
C211 C210 1.387 . S
C211 C212 1.372 . S
C212 H190 0.950 . S
C212 C211 1.372 . S
C212 C213 1.379 . S
C213 H191 0.948 . S
C213 C208 1.364 . S
C213 C212 1.379 . S
C214 C183 1.383 . S
C214 C201 1.479 . S
C214 C215 1.398 . S
C215 C180 1.382 . S
C215 H192 0.951 . S
C215 C214 1.398 . S
C216 C217 1.384 . S
C216 H229 0.947 . S
C216 C251 1.382 . S
C217 C216 1.384 . S
C217 C218 1.378 . S
C218 C217 1.378 . S
C218 C219 1.378 . S
C218 H230 0.952 . S
C219 C218 1.378 . S
C219 H231 0.950 . S
C219 C250 1.383 . S
H220 C239 0.947 . S
H221 C240 0.946 . S
H222 C242 0.953 . S
H223 C243 0.945 . S
H224 C245 0.952 . S
H225 C246 0.949 . S
H226 C248 0.950 . S
H227 C249 0.954 . S
H228 C251 0.951 . S
H229 C216 0.947 . S
H230 C218 0.952 . S
H231 C219 0.950 . S
N232 C235 1.382 . S
N232 C237 1.363 . S
N233 C235 1.371 . S
N233 C236 1.372 . S
N234 C236 1.361 . S
N234 C237 1.377 . S
C235 N232 1.382 . S
C235 N233 1.371 . S
C235 C238 1.480 . S
C236 N233 1.372 . S
C236 N234 1.361 . S
C236 C244 1.457 . S
C237 N232 1.363 . S
C237 N234 1.377 . S
C237 C250 1.479 . S
C238 C235 1.480 . S
C238 C239 1.383 . S
C238 C243 1.385 . S
C239 H220 0.947 . S
C239 C238 1.383 . S
C239 C240 1.388 . S
C240 H221 0.946 . S
C240 C239 1.388 . S
C240 C241 1.384 . S
C241 C240 1.384 . S
C241 C242 1.377 . S
C242 H222 0.953 . S
C242 C241 1.377 . S
C242 C243 1.369 . S
C243 H223 0.945 . S
C243 C238 1.385 . S
C243 C242 1.369 . S
C244 C236 1.457 . S
C244 C245 1.372 . S
C244 C249 1.344 1_655 S
C245 H224 0.952 . S
C245 C244 1.372 . S
C245 C246 1.389 . S
C246 H225 0.949 . S
C246 C245 1.389 . S
C246 C247 1.387 1_655 S
C247 C246 1.387 1_455 S
C247 C248 1.372 . S
C248 H226 0.950 . S
C248 C247 1.372 . S
C248 C249 1.394 . S
C249 H227 0.954 . S
C249 C244 1.344 1_455 S
C249 C248 1.394 . S
C250 C219 1.383 . S
C250 C237 1.479 . S
C250 C251 1.398 . S
C251 C216 1.382 . S
C251 H228 0.951 . S
C251 C250 1.398 . S
C252 C253 1.384 . S
C252 H265 0.947 . S
C252 C287 1.382 . S
C253 C252 1.384 . S
C253 C254 1.378 . S
C254 C253 1.378 . S
C254 C255 1.378 . S
C254 H266 0.952 . S
C255 C254 1.378 . S
C255 H267 0.950 . S
C255 C286 1.383 . S
H256 C275 0.947 . S
H257 C276 0.946 . S
H258 C278 0.953 . S
H259 C279 0.945 . S
H260 C281 0.952 . S
H261 C282 0.949 . S
H262 C284 0.950 . S
H263 C285 0.948 . S
H264 C287 0.951 . S
H265 C252 0.947 . S
H266 C254 0.952 . S
H267 C255 0.950 . S
N268 C271 1.382 . S
N268 C273 1.363 . S
N269 C271 1.371 . S
N269 C272 1.372 . S
N270 C272 1.361 . S
N270 C273 1.377 . S
C271 N268 1.382 . S
C271 N269 1.371 . S
C271 C274 1.480 . S
C272 N269 1.372 . S
C272 N270 1.361 . S
C272 C280 1.457 . S
C273 N268 1.363 . S
C273 N270 1.377 . S
C273 C286 1.479 . S
C274 C271 1.480 . S
C274 C275 1.383 . S
C274 C279 1.385 . S
C275 H256 0.947 . S
C275 C274 1.383 . S
C275 C276 1.388 . S
C276 H257 0.946 . S
C276 C275 1.388 . S
C276 C277 1.384 . S
C277 C276 1.384 . S
C277 C278 1.377 . S
C278 H258 0.953 . S
C278 C277 1.377 . S
C278 C279 1.369 . S
C279 H259 0.945 . S
C279 C274 1.385 . S
C279 C278 1.369 . S
C280 C272 1.457 . S
C280 C281 1.372 . S
C280 C285 1.364 . S
C281 H260 0.952 . S
C281 C280 1.372 . S
C281 C282 1.389 . S
C282 H261 0.949 . S
C282 C281 1.389 . S
C282 C283 1.387 . S
C283 C282 1.387 . S
C283 C284 1.372 . S
C284 H262 0.950 . S
C284 C283 1.372 . S
C284 C285 1.379 . S
C285 H263 0.948 . S
C285 C280 1.364 . S
C285 C284 1.379 . S
C286 C255 1.383 . S
C286 C273 1.479 . S
C286 C287 1.398 . S
C287 C252 1.382 . S
C287 H264 0.951 . S
C287 C286 1.398 . S
C288 C289 1.384 . S
C288 H301 0.947 . S
C288 C323 1.382 . S
C289 C288 1.384 . S
C289 C290 1.378 . S
C290 C289 1.378 . S
C290 C291 1.378 . S
C290 H302 0.952 . S
C291 C290 1.378 . S
C291 H303 0.950 . S
C291 C322 1.383 . S
H292 C311 0.947 . S
H293 C312 0.946 . S
H294 C314 0.953 . S
H295 C315 0.945 . S
H296 C317 0.952 . S
H297 C318 0.949 . S
H298 C320 0.950 . S
H299 C321 0.948 . S
H300 C323 0.951 . S
H301 C288 0.947 . S
H302 C290 0.952 . S
H303 C291 0.950 . S
N304 C307 1.382 . S
N304 C309 1.363 . S
N305 C307 1.371 . S
N305 C308 1.372 . S
N306 C308 1.361 . S
N306 C309 1.377 . S
C307 N304 1.382 . S
C307 N305 1.371 . S
C307 C310 1.480 . S
C308 N305 1.372 . S
C308 N306 1.361 . S
C308 C316 1.457 . S
C309 N304 1.363 . S
C309 N306 1.377 . S
C309 C322 1.479 . S
C310 C307 1.480 . S
C310 C311 1.383 . S
C310 C315 1.385 . S
C311 H292 0.947 . S
C311 C310 1.383 . S
C311 C312 1.388 . S
C312 H293 0.946 . S
C312 C311 1.388 . S
C312 C313 1.384 . S
C313 C312 1.384 . S
C313 C314 1.377 . S
C314 H294 0.953 . S
C314 C313 1.377 . S
C314 C315 1.369 . S
C315 H295 0.945 . S
C315 C310 1.385 . S
C315 C314 1.369 . S
C316 C308 1.457 . S
C316 C317 1.372 . S
C316 C321 1.364 . S
C317 H296 0.952 . S
C317 C316 1.372 . S
C317 C318 1.389 . S
C318 H297 0.949 . S
C318 C317 1.389 . S
C318 C319 1.387 . S
C319 C318 1.387 . S
C319 C320 1.372 . S
C320 H298 0.950 . S
C320 C319 1.372 . S
C320 C321 1.379 . S
C321 H299 0.948 . S
C321 C316 1.364 . S
C321 C320 1.379 . S
C322 C291 1.383 . S
C322 C309 1.479 . S
C322 C323 1.398 . S
C323 C288 1.382 . S
C323 H300 0.951 . S
C323 C322 1.398 . S
C324 C325 1.384 . S
C324 H337 0.947 . S
C324 C359 1.382 . S
C325 C324 1.384 . S
C325 C326 1.378 . S
C326 C325 1.378 . S
C326 C327 1.378 . S
C326 H338 0.952 . S
C327 C326 1.378 . S
C327 H339 0.950 . S
C327 C358 1.383 . S
H328 C347 0.947 . S
H329 C348 0.946 . S
H330 C350 0.953 . S
H331 C351 0.946 . S
H332 C353 0.952 . S
H333 C354 0.949 . S
H334 C356 0.950 . S
H335 C357 0.948 . S
H336 C359 0.951 . S
H337 C324 0.947 . S
H338 C326 0.952 . S
H339 C327 0.950 . S
N340 C343 1.382 . S
N340 C345 1.363 . S
N341 C343 1.371 . S
N341 C344 1.372 . S
N342 C344 1.361 . S
N342 C345 1.377 . S
C343 N340 1.382 . S
C343 N341 1.371 . S
C343 C346 1.480 . S
C344 N341 1.372 . S
C344 N342 1.361 . S
C344 C352 1.457 . S
C345 N340 1.363 . S
C345 N342 1.377 . S
C345 C358 1.479 . S
C346 C343 1.480 . S
C346 C347 1.383 . S
C346 C351 1.383 1_565 S
C347 H328 0.947 . S
C347 C346 1.383 . S
C347 C348 1.388 . S
C348 H329 0.946 . S
C348 C347 1.388 . S
C348 C349 1.384 1_565 S
C349 C348 1.384 1_545 S
C349 C350 1.377 . S
C350 H330 0.953 . S
C350 C349 1.377 . S
C350 C351 1.370 . S
C351 H331 0.946 . S
C351 C346 1.383 1_545 S
C351 C350 1.370 . S
C352 C344 1.457 . S
C352 C353 1.372 . S
C352 C357 1.364 . S
C353 H332 0.952 . S
C353 C352 1.372 . S
C353 C354 1.389 . S
C354 H333 0.949 . S
C354 C353 1.389 . S
C354 C355 1.387 . S
C355 C354 1.387 . S
C355 C356 1.372 . S
C356 H334 0.950 . S
C356 C355 1.372 . S
C356 C357 1.379 . S
C357 H335 0.948 . S
C357 C352 1.364 . S
C357 C356 1.379 . S
C358 C327 1.383 . S
C358 C345 1.479 . S
C358 C359 1.398 . S
C359 C324 1.382 . S
C359 H336 0.951 . S
C359 C358 1.398 . S
C360 C361 1.384 . S
C360 H373 0.947 . S
C360 C395 1.382 . S
C361 C360 1.384 . S
C361 C362 1.378 . S
C362 C361 1.378 . S
C362 C363 1.378 . S
C362 H374 0.952 . S
C363 C362 1.378 . S
C363 H375 0.950 . S
C363 C394 1.383 . S
H364 C383 0.947 . S
H365 C384 0.946 . S
H366 C386 0.953 . S
H367 C387 0.945 . S
H368 C389 0.952 . S
H369 C390 0.949 . S
H370 C392 0.950 . S
H371 C393 0.948 . S
H372 C395 0.951 . S
H373 C360 0.947 . S
H374 C362 0.952 . S
H375 C363 0.950 . S
N376 C379 1.382 . S
N376 C381 1.363 . S
N377 C379 1.371 . S
N377 C380 1.372 . S
N378 C380 1.361 . S
N378 C381 1.377 . S
C379 N376 1.382 . S
C379 N377 1.371 . S
C379 C382 1.480 . S
C380 N377 1.372 . S
C380 N378 1.361 . S
C380 C388 1.457 . S
C381 N376 1.363 . S
C381 N378 1.377 . S
C381 C394 1.479 . S
C382 C379 1.480 . S
C382 C383 1.383 . S
C382 C387 1.385 . S
C383 H364 0.947 . S
C383 C382 1.383 . S
C383 C384 1.388 . S
C384 H365 0.946 . S
C384 C383 1.388 . S
C384 C385 1.384 . S
C385 C384 1.384 . S
C385 C386 1.377 . S
C386 H366 0.953 . S
C386 C385 1.377 . S
C386 C387 1.369 . S
C387 H367 0.945 . S
C387 C382 1.385 . S
C387 C386 1.369 . S
C388 C380 1.457 . S
C388 C389 1.372 . S
C388 C393 1.364 . S
C389 H368 0.952 . S
C389 C388 1.372 . S
C389 C390 1.389 . S
C390 H369 0.949 . S
C390 C389 1.389 . S
C390 C391 1.387 . S
C391 C390 1.387 . S
C391 C392 1.372 . S
C392 H370 0.950 . S
C392 C391 1.372 . S
C392 C393 1.379 . S
C393 H371 0.948 . S
C393 C388 1.364 . S
C393 C392 1.379 . S
C394 C363 1.383 . S
C394 C381 1.479 . S
C394 C395 1.398 . S
C395 C360 1.382 . S
C395 H372 0.951 . S
C395 C394 1.398 . S
C396 C397 1.384 . S
C396 H409 0.947 . S
C396 C431 1.382 . S
C397 C396 1.384 . S
C397 C398 1.378 . S
C398 C397 1.378 . S
C398 C399 1.378 . S
C398 H410 0.952 . S
C399 C398 1.378 . S
C399 H411 0.950 . S
C399 C430 1.383 . S
H400 C419 0.947 . S
H401 C420 0.946 . S
H402 C422 0.953 . S
H403 C423 0.945 . S
H404 C425 0.952 . S
H405 C426 0.949 . S
H406 C428 0.950 . S
H407 C429 0.948 . S
H408 C431 0.951 . S
H409 C396 0.947 . S
H410 C398 0.952 . S
H411 C399 0.950 . S
N412 C415 1.382 . S
N412 C417 1.363 . S
N413 C415 1.371 . S
N413 C416 1.372 . S
N414 C416 1.361 . S
N414 C417 1.377 . S
C415 N412 1.382 . S
C415 N413 1.371 . S
C415 C418 1.480 . S
C416 N413 1.372 . S
C416 N414 1.361 . S
C416 C424 1.457 . S
C417 N412 1.363 . S
C417 N414 1.377 . S
C417 C430 1.479 . S
C418 C415 1.480 . S
C418 C419 1.383 . S
C418 C423 1.385 . S
C419 H400 0.947 . S
C419 C418 1.383 . S
C419 C420 1.388 . S
C420 H401 0.946 . S
C420 C419 1.388 . S
C420 C421 1.384 . S
C421 C420 1.384 . S
C421 C422 1.377 . S
C422 H402 0.953 . S
C422 C421 1.377 . S
C422 C423 1.369 . S
C423 H403 0.945 . S
C423 C418 1.385 . S
C423 C422 1.369 . S
C424 C416 1.457 . S
C424 C425 1.372 . S
C424 C429 1.364 . S
C425 H404 0.952 . S
C425 C424 1.372 . S
C425 C426 1.389 . S
C426 H405 0.949 . S
C426 C425 1.389 . S
C426 C427 1.387 . S
C427 C426 1.387 . S
C427 C428 1.372 . S
C428 H406 0.950 . S
C428 C427 1.372 . S
C428 C429 1.379 . S
C429 H407 0.948 . S
C429 C424 1.364 . S
C429 C428 1.379 . S
C430 C399 1.383 . S
C430 C417 1.479 . S
C430 C431 1.398 . S
C431 C396 1.382 . S
C431 H408 0.951 . S
C431 C430 1.398 . S
C432 C433 1.384 . S
C432 H445 0.947 . S
C432 C467 1.382 . S
C433 C432 1.384 . S
C433 C434 1.378 . S
C434 C433 1.378 . S
C434 C435 1.378 . S
C434 H446 0.952 . S
C435 C434 1.378 . S
C435 H447 0.950 . S
C435 C466 1.383 . S
H436 C455 0.947 . S
H437 C456 0.946 . S
H438 C458 0.953 . S
H439 C459 0.945 . S
H440 C461 0.952 . S
H441 C462 0.949 . S
H442 C464 0.950 . S
H443 C465 0.948 . S
H444 C467 0.951 . S
H445 C432 0.947 . S
H446 C434 0.952 . S
H447 C435 0.950 . S
N448 C451 1.382 . S
N448 C453 1.363 . S
N449 C451 1.371 . S
N449 C452 1.372 . S
N450 C452 1.361 . S
N450 C453 1.377 . S
C451 N448 1.382 . S
C451 N449 1.371 . S
C451 C454 1.480 . S
C452 N449 1.372 . S
C452 N450 1.361 . S
C452 C460 1.457 . S
C453 N448 1.363 . S
C453 N450 1.377 . S
C453 C466 1.479 . S
C454 C451 1.480 . S
C454 C455 1.383 . S
C454 C459 1.385 . S
C455 H436 0.947 . S
C455 C454 1.383 . S
C455 C456 1.388 . S
C456 H437 0.946 . S
C456 C455 1.388 . S
C456 C457 1.384 . S
C457 C456 1.384 . S
C457 C458 1.377 . S
C458 H438 0.953 . S
C458 C457 1.377 . S
C458 C459 1.369 . S
C459 H439 0.945 . S
C459 C454 1.385 . S
C459 C458 1.369 . S
C460 C452 1.457 . S
C460 C461 1.372 . S
C460 C465 1.364 . S
C461 H440 0.952 . S
C461 C460 1.372 . S
C461 C462 1.389 . S
C462 H441 0.949 . S
C462 C461 1.389 . S
C462 C463 1.387 . S
C463 C462 1.387 . S
C463 C464 1.372 . S
C464 H442 0.950 . S
C464 C463 1.372 . S
C464 C465 1.379 . S
C465 H443 0.948 . S
C465 C460 1.364 . S
C465 C464 1.379 . S
C466 C435 1.383 . S
C466 C453 1.479 . S
C466 C467 1.398 . S
C467 C432 1.382 . S
C467 H444 0.951 . S
C467 C466 1.398 . S
C468 C469 1.384 . S
C468 H481 0.947 . S
C468 C503 1.382 1_554 S
C469 C468 1.384 . S
C469 C470 1.378 1_554 S
C470 C469 1.378 1_556 S
C470 C471 1.378 . S
C470 H482 0.952 . S
C471 C470 1.378 . S
C471 H483 0.950 . S
C471 C502 1.383 . S
H472 C491 0.947 . S
H473 C492 0.946 . S
H474 C494 0.953 . S
H475 C495 0.945 . S
H476 C497 0.952 . S
H477 C498 0.949 . S
H478 C500 0.950 . S
H479 C501 0.948 . S
H480 C503 0.951 . S
H481 C468 0.947 . S
H482 C470 0.952 . S
H483 C471 0.950 . S
N484 C487 1.382 . S
N484 C489 1.363 . S
N485 C487 1.371 . S
N485 C488 1.372 . S
N486 C488 1.361 . S
N486 C489 1.377 . S
C487 N484 1.382 . S
C487 N485 1.371 . S
C487 C490 1.480 . S
C488 N485 1.372 . S
C488 N486 1.361 . S
C488 C496 1.457 . S
C489 N484 1.363 . S
C489 N486 1.377 . S
C489 C502 1.479 . S
C490 C487 1.480 . S
C490 C491 1.383 . S
C490 C495 1.385 . S
C491 H472 0.947 . S
C491 C490 1.383 . S
C491 C492 1.388 . S
C492 H473 0.946 . S
C492 C491 1.388 . S
C492 C493 1.384 . S
C493 C492 1.384 . S
C493 C494 1.377 . S
C494 H474 0.953 . S
C494 C493 1.377 . S
C494 C495 1.369 . S
C495 H475 0.945 . S
C495 C490 1.385 . S
C495 C494 1.369 . S
C496 C488 1.457 . S
C496 C497 1.372 . S
C496 C501 1.364 . S
C497 H476 0.952 . S
C497 C496 1.372 . S
C497 C498 1.389 . S
C498 H477 0.949 . S
C498 C497 1.389 . S
C498 C499 1.387 . S
C499 C498 1.387 . S
C499 C500 1.372 . S
C500 H478 0.950 . S
C500 C499 1.372 . S
C500 C501 1.379 . S
C501 H479 0.948 . S
C501 C496 1.364 . S
C501 C500 1.379 . S
C502 C471 1.383 . S
C502 C489 1.479 . S
C502 C503 1.398 . S
C503 C468 1.382 1_556 S
C503 H480 0.951 . S
C503 C502 1.398 . S
C504 C505 1.384 . S
C504 H517 0.947 . S
C504 C539 1.382 . S
C505 C504 1.384 . S
C505 C506 1.378 . S
C506 C505 1.378 . S
C506 C507 1.378 . S
C506 H518 0.952 . S
C507 C506 1.378 . S
C507 H519 0.950 . S
C507 C538 1.383 . S
H508 C527 0.947 . S
H509 C528 0.946 . S
H510 C530 0.953 . S
H511 C531 0.945 . S
H512 C533 0.952 . S
H513 C534 0.949 . S
H514 C536 0.950 . S
H515 C537 0.948 . S
H516 C539 0.951 . S
H517 C504 0.947 . S
H518 C506 0.952 . S
H519 C507 0.950 . S
N520 C523 1.382 . S
N520 C525 1.363 . S
N521 C523 1.371 . S
N521 C524 1.372 . S
N522 C524 1.361 . S
N522 C525 1.377 . S
C523 N520 1.382 . S
C523 N521 1.371 . S
C523 C526 1.480 . S
C524 N521 1.372 . S
C524 N522 1.361 . S
C524 C532 1.457 . S
C525 N520 1.363 . S
C525 N522 1.377 . S
C525 C538 1.479 . S
C526 C523 1.480 . S
C526 C527 1.383 . S
C526 C531 1.385 . S
C527 H508 0.947 . S
C527 C526 1.383 . S
C527 C528 1.388 . S
C528 H509 0.946 . S
C528 C527 1.388 . S
C528 C529 1.384 . S
C529 C528 1.384 . S
C529 C530 1.377 . S
C530 H510 0.953 . S
C530 C529 1.377 . S
C530 C531 1.369 . S
C531 H511 0.945 . S
C531 C526 1.385 . S
C531 C530 1.369 . S
C532 C524 1.457 . S
C532 C533 1.372 . S
C532 C537 1.364 . S
C533 H512 0.952 . S
C533 C532 1.372 . S
C533 C534 1.389 . S
C534 H513 0.949 . S
C534 C533 1.389 . S
C534 C535 1.387 . S
C535 C534 1.387 . S
C535 C536 1.372 . S
C536 H514 0.950 . S
C536 C535 1.372 . S
C536 C537 1.379 . S
C537 H515 0.948 . S
C537 C532 1.364 . S
C537 C536 1.379 . S
C538 C507 1.383 . S
C538 C525 1.479 . S
C538 C539 1.398 . S
C539 C504 1.382 . S
C539 H516 0.951 . S
C539 C538 1.398 . S
C540 C541 1.384 1_556 S
C540 H553 0.947 . S
C540 C575 1.382 . S
C541 C540 1.384 1_554 S
C541 C542 1.378 . S
C542 C541 1.378 . S
C542 C543 1.385 . S
C542 H554 0.952 . S
C543 C542 1.385 . S
C543 H555 0.954 . S
C543 C574 1.372 1_554 S
H544 C563 0.947 . S
H545 C564 0.946 . S
H546 C566 0.953 . S
H547 C567 0.945 . S
H548 C569 0.952 . S
H549 C570 0.949 . S
H550 C572 0.950 . S
H551 C573 0.948 . S
H552 C575 0.951 . S
H553 C540 0.947 . S
H554 C542 0.952 . S
H555 C543 0.954 . S
N556 C559 1.382 . S
N556 C561 1.363 . S
N557 C559 1.371 . S
N557 C560 1.372 . S
N558 C560 1.361 . S
N558 C561 1.377 . S
C559 N556 1.382 . S
C559 N557 1.371 . S
C559 C562 1.480 . S
C560 N557 1.372 . S
C560 N558 1.361 . S
C560 C568 1.457 . S
C561 N556 1.363 . S
C561 N558 1.377 . S
C561 C574 1.479 . S
C562 C559 1.480 . S
C562 C563 1.383 . S
C562 C567 1.386 1_545 S
C563 H544 0.947 . S
C563 C562 1.383 . S
C563 C564 1.388 . S
C564 H545 0.946 . S
C564 C563 1.388 . S
C564 C565 1.384 1_545 S
C565 C564 1.384 1_565 S
C565 C566 1.377 . S
C566 H546 0.953 . S
C566 C565 1.377 . S
C566 C567 1.368 . S
C567 H547 0.945 . S
C567 C562 1.386 1_565 S
C567 C566 1.368 . S
C568 C560 1.457 . S
C568 C569 1.372 . S
C568 C573 1.364 . S
C569 H548 0.952 . S
C569 C568 1.372 . S
C569 C570 1.389 . S
C570 H549 0.949 . S
C570 C569 1.389 . S
C570 C571 1.387 . S
C571 C570 1.387 . S
C571 C572 1.372 . S
C572 H550 0.950 . S
C572 C571 1.372 . S
C572 C573 1.379 . S
C573 H551 0.948 . S
C573 C568 1.364 . S
C573 C572 1.379 . S
C574 C543 1.372 1_556 S
C574 C561 1.479 . S
C574 C575 1.398 . S
C575 C540 1.382 . S
C575 H552 0.951 . S
C575 C574 1.398 . S
Li576 N593 1.990 . S
Li576 O636 1.956 . S
Li576 O637 1.970 1_556 S
Li576 O638 1.961 . S
Li577 N601 1.990 . S
Li577 O636 1.970 1_554 S
Li577 O637 1.956 . S
Li577 O639 1.961 . S
Li578 N623 1.990 . S
Li578 O636 1.961 . S
Li578 O638 1.956 . S
Li578 O639 1.970 1_556 S
Li579 N629 1.990 . S
Li579 O637 1.961 . S
Li579 O638 1.970 1_554 S
Li579 O639 1.956 . S
C580 C582 1.348 1_556 S
C580 C583 1.356 . S
C580 O636 1.325 . S
N581 C584 1.314 1_556 S
N581 C585 1.279 . S
C582 C580 1.348 1_554 S
C582 C584 1.353 . S
C582 H640 0.929 . S
C583 C580 1.356 . S
C583 C585 1.358 . S
C583 H641 0.930 . S
C584 N581 1.314 1_554 S
C584 C582 1.353 . S
C584 H642 0.930 . S
C585 N581 1.279 . S
C585 C583 1.358 . S
C585 H643 0.930 . S
C586 C589 1.348 . S
C586 C590 1.356 . S
C586 O637 1.325 . S
C587 N588 1.279 . S
C587 C590 1.358 . S
C587 H644 0.930 . S
N588 C587 1.279 . S
N588 C591 1.314 . S
C589 C586 1.348 . S
C589 C591 1.353 . S
C589 H645 0.929 . S
C590 C586 1.356 . S
C590 C587 1.358 . S
C590 H646 0.930 . S
C591 N588 1.314 . S
C591 C589 1.353 . S
C591 H647 0.930 . S
C592 N593 1.314 . S
C592 C597 1.353 . S
C592 H598 0.930 . S
N593 Li576 1.990 . S
N593 C592 1.314 . S
N593 C595 1.279 . S
C594 C595 1.358 . S
C594 C596 1.356 . S
C594 H648 0.930 . S
C595 N593 1.279 . S
C595 C594 1.358 . S
C595 H599 0.930 . S
C596 C594 1.356 . S
C596 C597 1.348 . S
C597 C592 1.353 . S
C597 C596 1.348 . S
C597 H649 0.929 . S
H598 C592 0.930 . S
H599 C595 0.930 . S
C600 N601 1.314 . S
C600 C602 1.353 . S
C600 H606 0.930 . S
N601 Li577 1.990 . S
N601 C600 1.314 . S
N601 C604 1.279 . S
C602 C600 1.353 . S
C602 C605 1.348 . S
C602 H650 0.929 . S
C603 C604 1.358 . S
C603 C605 1.356 . S
C603 H651 0.930 . S
C604 N601 1.279 . S
C604 C603 1.358 . S
C604 H607 0.930 . S
C605 C602 1.348 . S
C605 C603 1.356 . S
H606 C600 0.930 . S
H607 C604 0.930 . S
C608 C610 1.348 . S
C608 C611 1.356 . S
C608 O638 1.325 . S
N609 C612 1.314 . S
N609 C613 1.279 . S
C610 C608 1.348 . S
C610 C612 1.353 . S
C610 H652 0.929 . S
C611 C608 1.356 . S
C611 C613 1.358 . S
C611 H653 0.930 . S
C612 N609 1.314 . S
C612 C610 1.353 . S
C612 H654 0.930 . S
C613 N609 1.279 . S
C613 C611 1.358 . S
C613 H655 0.930 . S
C614 C615 1.348 1_554 S
C614 C616 1.356 . S
C614 O639 1.325 . S
C615 C614 1.348 1_556 S
C615 C617 1.353 . S
C615 H656 0.929 . S
C616 C614 1.356 . S
C616 C618 1.358 . S
C616 H657 0.930 . S
C617 C615 1.353 . S
C617 N619 1.314 1_556 S
C617 H658 0.930 . S
C618 C616 1.358 . S
C618 N619 1.279 . S
C618 H659 0.930 . S
N619 C617 1.314 1_554 S
N619 C618 1.279 . S
C620 C622 1.353 . S
C620 N623 1.314 . S
C620 H626 0.930 . S
C621 N623 1.279 . S
C621 C624 1.358 . S
C621 H627 0.930 . S
C622 C620 1.353 . S
C622 C625 1.348 . S
C622 H660 0.929 . S
N623 Li578 1.990 . S
N623 C620 1.314 . S
N623 C621 1.279 . S
C624 C621 1.358 . S
C624 C625 1.356 . S
C624 H661 0.930 . S
C625 C622 1.348 . S
C625 C624 1.356 . S
H626 C620 0.930 . S
H627 C621 0.930 . S
C628 N629 1.314 . S
C628 C630 1.353 . S
C628 H634 0.930 . S
N629 Li579 1.990 . S
N629 C628 1.314 . S
N629 C632 1.279 . S
C630 C628 1.353 . S
C630 C633 1.348 . S
C630 H662 0.929 . S
C631 C632 1.358 . S
C631 C633 1.356 . S
C631 H663 0.930 . S
C632 N629 1.279 . S
C632 C631 1.358 . S
C632 H635 0.930 . S
C633 C630 1.348 . S
C633 C631 1.356 . S
H634 C628 0.930 . S
H635 C632 0.930 . S
O636 Li576 1.956 . S
O636 Li577 1.970 1_556 S
O636 Li578 1.961 . S
O636 C580 1.325 . S
O637 Li576 1.970 1_554 S
O637 Li577 1.956 . S
O637 Li579 1.961 . S
O637 C586 1.325 . S
O638 Li576 1.961 . S
O638 Li578 1.956 . S
O638 Li579 1.970 1_556 S
O638 C608 1.325 . S
O639 Li577 1.961 . S
O639 Li578 1.970 1_554 S
O639 Li579 1.956 . S
O639 C614 1.325 . S
H640 C582 0.929 . S
H641 C583 0.930 . S
H642 C584 0.930 . S
H643 C585 0.930 . S
H644 C587 0.930 . S
H645 C589 0.929 . S
H646 C590 0.930 . S
H647 C591 0.930 . S
H648 C594 0.930 . S
H649 C597 0.929 . S
H650 C602 0.929 . S
H651 C603 0.930 . S
H652 C610 0.929 . S
H653 C611 0.930 . S
H654 C612 0.930 . S
H655 C613 0.930 . S
H656 C615 0.929 . S
H657 C616 0.930 . S
H658 C617 0.930 . S
H659 C618 0.930 . S
H660 C622 0.929 . S
H661 C624 0.930 . S
H662 C630 0.929 . S
H663 C631 0.930 . S
Li664 N681 1.990 . S
Li664 O724 1.956 . S
Li664 O725 1.970 . S
Li664 O726 1.961 . S
Li665 N689 1.990 . S
Li665 O724 1.970 . S
Li665 O725 1.956 . S
Li665 O727 1.961 . S
Li666 N711 1.990 . S
Li666 O724 1.961 . S
Li666 O726 1.956 . S
Li666 O727 1.970 . S
Li667 N717 1.990 . S
Li667 O725 1.961 . S
Li667 O726 1.970 . S
Li667 O727 1.956 . S
C668 C670 1.348 . S
C668 C671 1.356 . S
C668 O724 1.325 . S
N669 C672 1.314 . S
N669 C673 1.279 . S
C670 C668 1.348 . S
C670 C672 1.353 . S
C670 H728 0.929 . S
C671 C668 1.356 . S
C671 C673 1.358 . S
C671 H729 0.930 . S
C672 N669 1.314 . S
C672 C670 1.353 . S
C672 H730 0.930 . S
C673 N669 1.279 . S
C673 C671 1.358 . S
C673 H731 0.930 . S
C674 C677 1.348 . S
C674 C678 1.356 . S
C674 O725 1.325 . S
C675 N676 1.279 . S
C675 C678 1.358 . S
C675 H732 0.930 . S
N676 C675 1.279 . S
N676 C679 1.314 . S
C677 C674 1.348 . S
C677 C679 1.353 . S
C677 H733 0.929 . S
C678 C674 1.356 . S
C678 C675 1.358 . S
C678 H734 0.930 . S
C679 N676 1.314 . S
C679 C677 1.353 . S
C679 H735 0.930 . S
C680 N681 1.314 . S
C680 C685 1.353 . S
C680 H686 0.930 . S
N681 Li664 1.990 . S
N681 C680 1.314 . S
N681 C683 1.279 . S
C682 C683 1.358 . S
C682 C684 1.356 . S
C682 H736 0.930 . S
C683 N681 1.279 . S
C683 C682 1.358 . S
C683 H687 0.930 . S
C684 C682 1.356 . S
C684 C685 1.348 . S
C685 C680 1.353 . S
C685 C684 1.348 . S
C685 H737 0.929 . S
H686 C680 0.930 . S
H687 C683 0.930 . S
C688 N689 1.314 . S
C688 C690 1.353 . S
C688 H694 0.930 . S
N689 Li665 1.990 . S
N689 C688 1.314 . S
N689 C692 1.279 . S
C690 C688 1.353 . S
C690 C693 1.348 . S
C690 H738 0.929 . S
C691 C692 1.358 . S
C691 C693 1.356 . S
C691 H739 0.930 . S
C692 N689 1.279 . S
C692 C691 1.358 . S
C692 H695 0.930 . S
C693 C690 1.348 . S
C693 C691 1.356 . S
H694 C688 0.930 . S
H695 C692 0.930 . S
C696 C698 1.348 . S
C696 C699 1.356 . S
C696 O726 1.325 . S
N697 C700 1.314 . S
N697 C701 1.279 . S
C698 C696 1.348 . S
C698 C700 1.353 . S
C698 H740 0.929 . S
C699 C696 1.356 . S
C699 C701 1.358 . S
C699 H741 0.930 . S
C700 N697 1.314 . S
C700 C698 1.353 . S
C700 H742 0.930 . S
C701 N697 1.279 . S
C701 C699 1.358 . S
C701 H743 0.930 . S
C702 C703 1.348 . S
C702 C704 1.356 . S
C702 O727 1.325 . S
C703 C702 1.348 . S
C703 C705 1.353 . S
C703 H744 0.929 . S
C704 C702 1.356 . S
C704 C706 1.358 . S
C704 H745 0.930 . S
C705 C703 1.353 . S
C705 N707 1.314 . S
C705 H746 0.930 . S
C706 C704 1.358 . S
C706 N707 1.279 . S
C706 H747 0.930 . S
N707 C705 1.314 . S
N707 C706 1.279 . S
C708 C710 1.353 . S
C708 N711 1.314 . S
C708 H714 0.930 . S
C709 N711 1.279 . S
C709 C712 1.358 . S
C709 H715 0.930 . S
C710 C708 1.353 . S
C710 C713 1.348 . S
C710 H748 0.929 . S
N711 Li666 1.990 . S
N711 C708 1.314 . S
N711 C709 1.279 . S
C712 C709 1.358 . S
C712 C713 1.356 . S
C712 H749 0.930 . S
C713 C710 1.348 . S
C713 C712 1.356 . S
H714 C708 0.930 . S
H715 C709 0.930 . S
C716 N717 1.314 . S
C716 C718 1.353 . S
C716 H722 0.930 . S
N717 Li667 1.990 . S
N717 C716 1.314 . S
N717 C720 1.279 . S
C718 C716 1.353 . S
C718 C721 1.348 . S
C718 H750 0.929 . S
C719 C720 1.358 . S
C719 C721 1.356 . S
C719 H751 0.930 . S
C720 N717 1.279 . S
C720 C719 1.358 . S
C720 H723 0.930 . S
C721 C718 1.348 . S
C721 C719 1.356 . S
H722 C716 0.930 . S
H723 C720 0.930 . S
O724 Li664 1.956 . S
O724 Li665 1.970 . S
O724 Li666 1.961 . S
O724 C668 1.325 . S
O725 Li664 1.970 . S
O725 Li665 1.956 . S
O725 Li667 1.961 . S
O725 C674 1.325 . S
O726 Li664 1.961 . S
O726 Li666 1.956 . S
O726 Li667 1.970 . S
O726 C696 1.325 . S
O727 Li665 1.961 . S
O727 Li666 1.970 . S
O727 Li667 1.956 . S
O727 C702 1.325 . S
H728 C670 0.929 . S
H729 C671 0.930 . S
H730 C672 0.930 . S
H731 C673 0.930 . S
H732 C675 0.930 . S
H733 C677 0.929 . S
H734 C678 0.930 . S
H735 C679 0.930 . S
H736 C682 0.930 . S
H737 C685 0.929 . S
H738 C690 0.929 . S
H739 C691 0.930 . S
H740 C698 0.929 . S
H741 C699 0.930 . S
H742 C700 0.930 . S
H743 C701 0.930 . S
H744 C703 0.929 . S
H745 C704 0.930 . S
H746 C705 0.930 . S
H747 C706 0.930 . S
H748 C710 0.929 . S
H749 C712 0.930 . S
H750 C718 0.929 . S
H751 C719 0.930 . S
Li752 N769 1.990 . S
Li752 O812 1.956 . S
Li752 O813 1.970 1_556 S
Li752 O814 1.961 . S
Li753 N777 1.990 . S
Li753 O812 1.970 1_554 S
Li753 O813 1.956 . S
Li753 O815 1.961 . S
Li754 N799 1.990 . S
Li754 O812 1.961 . S
Li754 O814 1.956 . S
Li754 O815 1.970 1_556 S
Li755 N805 1.990 . S
Li755 O813 1.961 . S
Li755 O814 1.970 1_554 S
Li755 O815 1.956 . S
C756 C758 1.348 1_556 S
C756 C759 1.356 . S
C756 O812 1.325 . S
N757 C760 1.314 1_556 S
N757 C761 1.279 . S
C758 C756 1.348 1_554 S
C758 C760 1.353 . S
C758 H816 0.929 . S
C759 C756 1.356 . S
C759 C761 1.358 . S
C759 H817 0.930 . S
C760 N757 1.314 1_554 S
C760 C758 1.353 . S
C760 H818 0.930 . S
C761 N757 1.279 . S
C761 C759 1.358 . S
C761 H819 0.930 . S
C762 C765 1.348 . S
C762 C766 1.356 . S
C762 O813 1.325 . S
C763 N764 1.279 . S
C763 C766 1.358 . S
C763 H820 0.930 . S
N764 C763 1.279 . S
N764 C767 1.314 . S
C765 C762 1.348 . S
C765 C767 1.353 . S
C765 H821 0.929 . S
C766 C762 1.356 . S
C766 C763 1.358 . S
C766 H822 0.930 . S
C767 N764 1.314 . S
C767 C765 1.353 . S
C767 H823 0.930 . S
C768 N769 1.314 . S
C768 C773 1.353 . S
C768 H774 0.930 . S
N769 Li752 1.990 . S
N769 C768 1.314 . S
N769 C771 1.279 . S
C770 C771 1.358 . S
C770 C772 1.356 . S
C770 H824 0.930 . S
C771 N769 1.279 . S
C771 C770 1.358 . S
C771 H775 0.930 . S
C772 C770 1.356 . S
C772 C773 1.348 . S
C773 C768 1.353 . S
C773 C772 1.348 . S
C773 H825 0.929 . S
H774 C768 0.930 . S
H775 C771 0.930 . S
C776 N777 1.314 . S
C776 C778 1.353 . S
C776 H782 0.930 . S
N777 Li753 1.990 . S
N777 C776 1.314 . S
N777 C780 1.279 . S
C778 C776 1.353 . S
C778 C781 1.348 . S
C778 H826 0.929 . S
C779 C780 1.358 . S
C779 C781 1.356 . S
C779 H827 0.930 . S
C780 N777 1.279 . S
C780 C779 1.358 . S
C780 H783 0.930 . S
C781 C778 1.348 . S
C781 C779 1.356 . S
H782 C776 0.930 . S
H783 C780 0.930 . S
C784 C786 1.348 . S
C784 C787 1.356 . S
C784 O814 1.325 . S
N785 C788 1.314 . S
N785 C789 1.279 . S
C786 C784 1.348 . S
C786 C788 1.353 . S
C786 H828 0.929 . S
C787 C784 1.356 . S
C787 C789 1.358 . S
C787 H829 0.930 . S
C788 N785 1.314 . S
C788 C786 1.353 . S
C788 H830 0.930 . S
C789 N785 1.279 . S
C789 C787 1.358 . S
C789 H831 0.930 . S
C790 C791 1.348 1_554 S
C790 C792 1.356 . S
C790 O815 1.325 . S
C791 C790 1.348 1_556 S
C791 C793 1.353 . S
C791 H832 0.929 . S
C792 C790 1.356 . S
C792 C794 1.358 . S
C792 H833 0.930 . S
C793 C791 1.353 . S
C793 N795 1.314 1_556 S
C793 H834 0.930 . S
C794 C792 1.358 . S
C794 N795 1.279 . S
C794 H835 0.930 . S
N795 C793 1.314 1_554 S
N795 C794 1.279 . S
C796 C798 1.353 . S
C796 N799 1.314 . S
C796 H802 0.930 . S
C797 N799 1.279 . S
C797 C800 1.358 . S
C797 H803 0.930 . S
C798 C796 1.353 . S
C798 C801 1.348 . S
C798 H836 0.929 . S
N799 Li754 1.990 . S
N799 C796 1.314 . S
N799 C797 1.279 . S
C800 C797 1.358 . S
C800 C801 1.356 . S
C800 H837 0.930 . S
C801 C798 1.348 . S
C801 C800 1.356 . S
H802 C796 0.930 . S
H803 C797 0.930 . S
C804 N805 1.314 . S
C804 C806 1.353 . S
C804 H810 0.930 . S
N805 Li755 1.990 . S
N805 C804 1.314 . S
N805 C808 1.279 . S
C806 C804 1.353 . S
C806 C809 1.348 . S
C806 H838 0.929 . S
C807 C808 1.358 . S
C807 C809 1.356 . S
C807 H839 0.930 . S
C808 N805 1.279 . S
C808 C807 1.358 . S
C808 H811 0.930 . S
C809 C806 1.348 . S
C809 C807 1.356 . S
H810 C804 0.930 . S
H811 C808 0.930 . S
O812 Li752 1.956 . S
O812 Li753 1.970 1_556 S
O812 Li754 1.961 . S
O812 C756 1.325 . S
O813 Li752 1.970 1_554 S
O813 Li753 1.956 . S
O813 Li755 1.961 . S
O813 C762 1.325 . S
O814 Li752 1.961 . S
O814 Li754 1.956 . S
O814 Li755 1.970 1_556 S
O814 C784 1.325 . S
O815 Li753 1.961 . S
O815 Li754 1.970 1_554 S
O815 Li755 1.956 . S
O815 C790 1.325 . S
H816 C758 0.929 . S
H817 C759 0.930 . S
H818 C760 0.930 . S
H819 C761 0.930 . S
H820 C763 0.930 . S
H821 C765 0.929 . S
H822 C766 0.930 . S
H823 C767 0.930 . S
H824 C770 0.930 . S
H825 C773 0.929 . S
H826 C778 0.929 . S
H827 C779 0.930 . S
H828 C786 0.929 . S
H829 C787 0.930 . S
H830 C788 0.930 . S
H831 C789 0.930 . S
H832 C791 0.929 . S
H833 C792 0.930 . S
H834 C793 0.930 . S
H835 C794 0.930 . S
H836 C798 0.929 . S
H837 C800 0.930 . S
H838 C806 0.929 . S
H839 C807 0.930 . S
Li840 N857 1.990 . S
Li840 O900 1.956 . S
Li840 O901 1.970 1_545 S
Li840 O902 1.961 . S
Li841 N865 1.990 . S
Li841 O900 1.970 1_565 S
Li841 O901 1.956 . S
Li841 O903 1.961 . S
Li842 N887 1.990 . S
Li842 O900 1.961 . S
Li842 O902 1.956 . S
Li842 O903 1.970 1_545 S
Li843 N893 1.990 . S
Li843 O901 1.961 . S
Li843 O902 1.970 1_565 S
Li843 O903 1.956 . S
C844 C846 1.348 . S
C844 C847 1.356 . S
C844 O900 1.325 . S
N845 C848 1.314 . S
N845 C849 1.279 . S
C846 C844 1.348 . S
C846 C848 1.353 . S
C846 H904 0.929 . S
C847 C844 1.356 . S
C847 C849 1.358 . S
C847 H905 0.930 . S
C848 N845 1.314 . S
C848 C846 1.353 . S
C848 H906 0.930 . S
C849 N845 1.279 . S
C849 C847 1.358 . S
C849 H907 0.930 . S
C850 C853 1.348 1_565 S
C850 C854 1.356 . S
C850 O901 1.325 . S
C851 N852 1.279 . S
C851 C854 1.358 . S
C851 H908 0.930 . S
N852 C851 1.279 . S
N852 C855 1.314 1_565 S
C853 C850 1.348 1_545 S
C853 C855 1.353 . S
C853 H909 0.929 . S
C854 C850 1.356 . S
C854 C851 1.358 . S
C854 H910 0.930 . S
C855 N852 1.314 1_545 S
C855 C853 1.353 . S
C855 H911 0.930 . S
C856 N857 1.314 . S
C856 C861 1.353 . S
C856 H862 0.930 . S
N857 Li840 1.990 . S
N857 C856 1.314 . S
N857 C859 1.279 . S
C858 C859 1.358 . S
C858 C860 1.356 . S
C858 H912 0.930 . S
C859 N857 1.279 . S
C859 C858 1.358 . S
C859 H863 0.930 . S
C860 C858 1.356 . S
C860 C861 1.348 . S
C861 C856 1.353 . S
C861 C860 1.348 . S
C861 H913 0.929 . S
H862 C856 0.930 . S
H863 C859 0.930 . S
C864 N865 1.314 . S
C864 C866 1.353 . S
C864 H870 0.930 . S
N865 Li841 1.990 . S
N865 C864 1.314 . S
N865 C868 1.279 . S
C866 C864 1.353 . S
C866 C869 1.348 . S
C866 H914 0.929 . S
C867 C868 1.358 . S
C867 C869 1.356 . S
C867 H915 0.930 . S
C868 N865 1.279 . S
C868 C867 1.358 . S
C868 H871 0.930 . S
C869 C866 1.348 . S
C869 C867 1.356 . S
H870 C864 0.930 . S
H871 C868 0.930 . S
C872 C874 1.348 1_545 S
C872 C875 1.356 . S
C872 O902 1.325 . S
N873 C876 1.314 1_545 S
N873 C877 1.279 . S
C874 C872 1.348 1_565 S
C874 C876 1.353 . S
C874 H916 0.929 . S
C875 C872 1.356 . S
C875 C877 1.358 . S
C875 H917 0.930 . S
C876 N873 1.314 1_565 S
C876 C874 1.353 . S
C876 H918 0.930 . S
C877 N873 1.279 . S
C877 C875 1.358 . S
C877 H919 0.930 . S
C878 C879 1.348 . S
C878 C880 1.356 . S
C878 O903 1.325 . S
C879 C878 1.348 . S
C879 C881 1.353 . S
C879 H920 0.929 . S
C880 C878 1.356 . S
C880 C882 1.358 . S
C880 H921 0.930 . S
C881 C879 1.353 . S
C881 N883 1.314 . S
C881 H922 0.930 . S
C882 C880 1.358 . S
C882 N883 1.279 . S
C882 H923 0.930 . S
N883 C881 1.314 . S
N883 C882 1.279 . S
C884 C886 1.353 . S
C884 N887 1.314 . S
C884 H890 0.930 . S
C885 N887 1.279 . S
C885 C888 1.358 . S
C885 H891 0.930 . S
C886 C884 1.353 . S
C886 C889 1.348 . S
C886 H924 0.929 . S
N887 Li842 1.990 . S
N887 C884 1.314 . S
N887 C885 1.279 . S
C888 C885 1.358 . S
C888 C889 1.356 . S
C888 H925 0.930 . S
C889 C886 1.348 . S
C889 C888 1.356 . S
H890 C884 0.930 . S
H891 C885 0.930 . S
C892 N893 1.314 . S
C892 C894 1.353 . S
C892 H898 0.930 . S
N893 Li843 1.990 . S
N893 C892 1.314 . S
N893 C896 1.279 . S
C894 C892 1.353 . S
C894 C897 1.348 . S
C894 H926 0.929 . S
C895 C896 1.358 . S
C895 C897 1.356 . S
C895 H927 0.930 . S
C896 N893 1.279 . S
C896 C895 1.358 . S
C896 H899 0.930 . S
C897 C894 1.348 . S
C897 C895 1.356 . S
H898 C892 0.930 . S
H899 C896 0.930 . S
O900 Li840 1.956 . S
O900 Li841 1.970 1_545 S
O900 Li842 1.961 . S
O900 C844 1.325 . S
O901 Li840 1.970 1_565 S
O901 Li841 1.956 . S
O901 Li843 1.961 . S
O901 C850 1.325 . S
O902 Li840 1.961 . S
O902 Li842 1.956 . S
O902 Li843 1.970 1_545 S
O902 C872 1.325 . S
O903 Li841 1.961 . S
O903 Li842 1.970 1_565 S
O903 Li843 1.956 . S
O903 C878 1.325 . S
H904 C846 0.929 . S
H905 C847 0.930 . S
H906 C848 0.930 . S
H907 C849 0.930 . S
H908 C851 0.930 . S
H909 C853 0.929 . S
H910 C854 0.930 . S
H911 C855 0.930 . S
H912 C858 0.930 . S
H913 C861 0.929 . S
H914 C866 0.929 . S
H915 C867 0.930 . S
H916 C874 0.929 . S
H917 C875 0.930 . S
H918 C876 0.930 . S
H919 C877 0.930 . S
H920 C879 0.929 . S
H921 C880 0.930 . S
H922 C881 0.930 . S
H923 C882 0.930 . S
H924 C886 0.929 . S
H925 C888 0.930 . S
H926 C894 0.929 . S
H927 C895 0.930 . S
Li928 N945 1.990 . S
Li928 O988 1.956 . S
Li928 O989 1.970 . S
Li928 O990 1.961 . S
Li929 N953 1.990 . S
Li929 O988 1.970 . S
Li929 O989 1.956 . S
Li929 O991 1.961 . S
Li930 N975 1.990 . S
Li930 O988 1.961 . S
Li930 O990 1.956 . S
Li930 O991 1.970 . S
Li931 N981 1.990 . S
Li931 O989 1.961 . S
Li931 O990 1.970 . S
Li931 O991 1.956 . S
C932 C934 1.348 . S
C932 C935 1.356 . S
C932 O988 1.325 . S
N933 C936 1.314 . S
N933 C937 1.279 . S
C934 C932 1.348 . S
C934 C936 1.353 . S
C934 H992 0.929 . S
C935 C932 1.356 . S
C935 C937 1.358 . S
C935 H993 0.930 . S
C936 N933 1.314 . S
C936 C934 1.353 . S
C936 H994 0.930 . S
C937 N933 1.279 . S
C937 C935 1.358 . S
C937 H995 0.930 . S
C938 C941 1.348 . S
C938 C942 1.356 . S
C938 O989 1.325 . S
C939 N940 1.279 . S
C939 C942 1.358 . S
C939 H996 0.930 . S
N940 C939 1.279 . S
N940 C943 1.314 . S
C941 C938 1.348 . S
C941 C943 1.353 . S
C941 H997 0.929 . S
C942 C938 1.356 . S
C942 C939 1.358 . S
C942 H998 0.930 . S
C943 N940 1.314 . S
C943 C941 1.353 . S
C943 H999 0.930 . S
C944 N945 1.314 . S
C944 C949 1.353 . S
C944 H950 0.930 . S
N945 Li928 1.990 . S
N945 C944 1.314 . S
N945 C947 1.279 . S
C946 C947 1.358 . S
C946 C948 1.356 . S
C946 H1000 0.930 . S
C947 N945 1.279 . S
C947 C946 1.358 . S
C947 H951 0.930 . S
C948 C946 1.356 . S
C948 C949 1.348 . S
C949 C944 1.353 . S
C949 C948 1.348 . S
C949 H1001 0.929 . S
H950 C944 0.930 . S
H951 C947 0.930 . S
C952 N953 1.314 . S
C952 C954 1.353 . S
C952 H958 0.930 . S
N953 Li929 1.990 . S
N953 C952 1.314 . S
N953 C956 1.279 . S
C954 C952 1.353 . S
C954 C957 1.348 . S
C954 H1002 0.929 . S
C955 C956 1.358 . S
C955 C957 1.356 . S
C955 H1003 0.930 . S
C956 N953 1.279 . S
C956 C955 1.358 . S
C956 H959 0.930 . S
C957 C954 1.348 . S
C957 C955 1.356 . S
H958 C952 0.930 . S
H959 C956 0.930 . S
C960 C962 1.348 . S
C960 C963 1.356 . S
C960 O990 1.325 . S
N961 C964 1.314 . S
N961 C965 1.279 . S
C962 C960 1.348 . S
C962 C964 1.353 . S
C962 H1004 0.929 . S
C963 C960 1.356 . S
C963 C965 1.358 . S
C963 H1005 0.930 . S
C964 N961 1.314 . S
C964 C962 1.353 . S
C964 H1006 0.930 . S
C965 N961 1.279 . S
C965 C963 1.358 . S
C965 H1007 0.930 . S
C966 C967 1.348 . S
C966 C968 1.356 . S
C966 O991 1.325 . S
C967 C966 1.348 . S
C967 C969 1.353 . S
C967 H1008 0.929 . S
C968 C966 1.356 . S
C968 C970 1.358 . S
C968 H1009 0.930 . S
C969 C967 1.353 . S
C969 N971 1.314 . S
C969 H1010 0.930 . S
C970 C968 1.358 . S
C970 N971 1.279 . S
C970 H1011 0.930 . S
N971 C969 1.314 . S
N971 C970 1.279 . S
C972 C974 1.353 . S
C972 N975 1.314 . S
C972 H978 0.930 . S
C973 N975 1.279 . S
C973 C976 1.358 . S
C973 H979 0.930 . S
C974 C972 1.353 . S
C974 C977 1.348 . S
C974 H1012 0.929 . S
N975 Li930 1.990 . S
N975 C972 1.314 . S
N975 C973 1.279 . S
C976 C973 1.358 . S
C976 C977 1.356 . S
C976 H1013 0.930 . S
C977 C974 1.348 . S
C977 C976 1.356 . S
H978 C972 0.930 . S
H979 C973 0.930 . S
C980 N981 1.314 . S
C980 C982 1.353 . S
C980 H986 0.930 . S
N981 Li931 1.990 . S
N981 C980 1.314 . S
N981 C984 1.279 . S
C982 C980 1.353 . S
C982 C985 1.348 . S
C982 H1014 0.929 . S
C983 C984 1.358 . S
C983 C985 1.356 . S
C983 H1015 0.930 . S
C984 N981 1.279 . S
C984 C983 1.358 . S
C984 H987 0.930 . S
C985 C982 1.348 . S
C985 C983 1.356 . S
H986 C980 0.930 . S
H987 C984 0.930 . S
O988 Li928 1.956 . S
O988 Li929 1.970 . S
O988 Li930 1.961 . S
O988 C932 1.325 . S
O989 Li928 1.970 . S
O989 Li929 1.956 . S
O989 Li931 1.961 . S
O989 C938 1.325 . S
O990 Li928 1.961 . S
O990 Li930 1.956 . S
O990 Li931 1.970 . S
O990 C960 1.325 . S
O991 Li929 1.961 . S
O991 Li930 1.970 . S
O991 Li931 1.956 . S
O991 C966 1.325 . S
H992 C934 0.929 . S
H993 C935 0.930 . S
H994 C936 0.930 . S
H995 C937 0.930 . S
H996 C939 0.930 . S
H997 C941 0.929 . S
H998 C942 0.930 . S
H999 C943 0.930 . S
H1000 C946 0.930 . S
H1001 C949 0.929 . S
H1002 C954 0.929 . S
H1003 C955 0.930 . S
H1004 C962 0.929 . S
H1005 C963 0.930 . S
H1006 C964 0.930 . S
H1007 C965 0.930 . S
H1008 C967 0.929 . S
H1009 C968 0.930 . S
H1010 C969 0.930 . S
H1011 C970 0.930 . S
H1012 C974 0.929 . S
H1013 C976 0.930 . S
H1014 C982 0.929 . S
H1015 C983 0.930 . S
Li1016 N1033 1.990 . S
Li1016 O1076 1.956 . S
Li1016 O1077 1.970 . S
Li1016 O1078 1.961 . S
Li1017 N1041 1.990 . S
Li1017 O1076 1.970 . S
Li1017 O1077 1.956 . S
Li1017 O1079 1.961 . S
Li1018 N1063 1.990 . S
Li1018 O1076 1.961 . S
Li1018 O1078 1.956 . S
Li1018 O1079 1.970 . S
Li1019 N1069 1.990 . S
Li1019 O1077 1.961 . S
Li1019 O1078 1.970 . S
Li1019 O1079 1.956 . S
C1020 C1022 1.348 . S
C1020 C1023 1.356 . S
C1020 O1076 1.325 . S
N1021 C1024 1.314 . S
N1021 C1025 1.279 . S
C1022 C1020 1.348 . S
C1022 C1024 1.353 . S
C1022 H1080 0.929 . S
C1023 C1020 1.356 . S
C1023 C1025 1.358 . S
C1023 H1081 0.930 . S
C1024 N1021 1.314 . S
C1024 C1022 1.353 . S
C1024 H1082 0.930 . S
C1025 N1021 1.279 . S
C1025 C1023 1.358 . S
C1025 H1083 0.930 . S
C1026 C1029 1.348 . S
C1026 C1030 1.356 . S
C1026 O1077 1.325 . S
C1027 N1028 1.279 . S
C1027 C1030 1.358 . S
C1027 H1084 0.930 . S
N1028 C1027 1.279 . S
N1028 C1031 1.314 . S
C1029 C1026 1.348 . S
C1029 C1031 1.353 . S
C1029 H1085 0.929 . S
C1030 C1026 1.356 . S
C1030 C1027 1.358 . S
C1030 H1086 0.930 . S
C1031 N1028 1.314 . S
C1031 C1029 1.353 . S
C1031 H1087 0.930 . S
C1032 N1033 1.314 . S
C1032 C1037 1.353 . S
C1032 H1038 0.930 . S
N1033 Li1016 1.990 . S
N1033 C1032 1.314 . S
N1033 C1035 1.279 . S
C1034 C1035 1.358 . S
C1034 C1036 1.356 . S
C1034 H1088 0.930 . S
C1035 N1033 1.279 . S
C1035 C1034 1.358 . S
C1035 H1039 0.930 . S
C1036 C1034 1.356 . S
C1036 C1037 1.348 . S
C1037 C1032 1.353 . S
C1037 C1036 1.348 . S
C1037 H1089 0.929 . S
H1038 C1032 0.930 . S
H1039 C1035 0.930 . S
C1040 N1041 1.314 . S
C1040 C1042 1.353 . S
C1040 H1046 0.930 . S
N1041 Li1017 1.990 . S
N1041 C1040 1.314 . S
N1041 C1044 1.279 . S
C1042 C1040 1.353 . S
C1042 C1045 1.348 . S
C1042 H1090 0.929 . S
C1043 C1044 1.358 . S
C1043 C1045 1.356 . S
C1043 H1091 0.930 . S
C1044 N1041 1.279 . S
C1044 C1043 1.358 . S
C1044 H1047 0.930 . S
C1045 C1042 1.348 . S
C1045 C1043 1.356 . S
H1046 C1040 0.930 . S
H1047 C1044 0.930 . S
C1048 C1050 1.348 . S
C1048 C1051 1.356 . S
C1048 O1078 1.325 . S
N1049 C1052 1.314 . S
N1049 C1053 1.279 . S
C1050 C1048 1.348 . S
C1050 C1052 1.353 . S
C1050 H1092 0.929 . S
C1051 C1048 1.356 . S
C1051 C1053 1.358 . S
C1051 H1093 0.930 . S
C1052 N1049 1.314 . S
C1052 C1050 1.353 . S
C1052 H1094 0.930 . S
C1053 N1049 1.279 . S
C1053 C1051 1.358 . S
C1053 H1095 0.930 . S
C1054 C1055 1.348 . S
C1054 C1056 1.356 . S
C1054 O1079 1.325 . S
C1055 C1054 1.348 . S
C1055 C1057 1.353 . S
C1055 H1096 0.929 . S
C1056 C1054 1.356 . S
C1056 C1058 1.358 . S
C1056 H1097 0.930 . S
C1057 C1055 1.353 . S
C1057 N1059 1.314 . S
C1057 H1098 0.930 . S
C1058 C1056 1.358 . S
C1058 N1059 1.279 . S
C1058 H1099 0.930 . S
N1059 C1057 1.314 . S
N1059 C1058 1.279 . S
C1060 C1062 1.353 . S
C1060 N1063 1.314 . S
C1060 H1066 0.930 . S
C1061 N1063 1.279 . S
C1061 C1064 1.358 . S
C1061 H1067 0.930 . S
C1062 C1060 1.353 . S
C1062 C1065 1.348 . S
C1062 H1100 0.929 . S
N1063 Li1018 1.990 . S
N1063 C1060 1.314 . S
N1063 C1061 1.279 . S
C1064 C1061 1.358 . S
C1064 C1065 1.356 . S
C1064 H1101 0.930 . S
C1065 C1062 1.348 . S
C1065 C1064 1.356 . S
H1066 C1060 0.930 . S
H1067 C1061 0.930 . S
C1068 N1069 1.314 . S
C1068 C1070 1.353 . S
C1068 H1074 0.930 . S
N1069 Li1019 1.990 . S
N1069 C1068 1.314 . S
N1069 C1072 1.279 . S
C1070 C1068 1.353 . S
C1070 C1073 1.348 . S
C1070 H1102 0.929 . S
C1071 C1072 1.358 . S
C1071 C1073 1.356 . S
C1071 H1103 0.930 . S
C1072 N1069 1.279 . S
C1072 C1071 1.358 . S
C1072 H1075 0.930 . S
C1073 C1070 1.348 . S
C1073 C1071 1.356 . S
H1074 C1068 0.930 . S
H1075 C1072 0.930 . S
O1076 Li1016 1.956 . S
O1076 Li1017 1.970 . S
O1076 Li1018 1.961 . S
O1076 C1020 1.325 . S
O1077 Li1016 1.970 . S
O1077 Li1017 1.956 . S
O1077 Li1019 1.961 . S
O1077 C1026 1.325 . S
O1078 Li1016 1.961 . S
O1078 Li1018 1.956 . S
O1078 Li1019 1.970 . S
O1078 C1048 1.325 . S
O1079 Li1017 1.961 . S
O1079 Li1018 1.970 . S
O1079 Li1019 1.956 . S
O1079 C1054 1.325 . S
H1080 C1022 0.929 . S
H1081 C1023 0.930 . S
H1082 C1024 0.930 . S
H1083 C1025 0.930 . S
H1084 C1027 0.930 . S
H1085 C1029 0.929 . S
H1086 C1030 0.930 . S
H1087 C1031 0.930 . S
H1088 C1034 0.930 . S
H1089 C1037 0.929 . S
H1090 C1042 0.929 . S
H1091 C1043 0.930 . S
H1092 C1050 0.929 . S
H1093 C1051 0.930 . S
H1094 C1052 0.930 . S
H1095 C1053 0.930 . S
H1096 C1055 0.929 . S
H1097 C1056 0.930 . S
H1098 C1057 0.930 . S
H1099 C1058 0.930 . S
H1100 C1062 0.929 . S
H1101 C1064 0.930 . S
H1102 C1070 0.929 . S
H1103 C1071 0.930 . S
Li1104 N1121 1.990 . S
Li1104 O1164 1.956 . S
Li1104 O1165 1.970 . S
Li1104 O1166 1.961 . S
Li1105 N1129 1.990 . S
Li1105 O1164 1.970 . S
Li1105 O1165 1.956 . S
Li1105 O1167 1.961 . S
Li1106 N1151 1.990 . S
Li1106 O1164 1.961 . S
Li1106 O1166 1.956 . S
Li1106 O1167 1.970 . S
Li1107 N1157 1.990 . S
Li1107 O1165 1.961 . S
Li1107 O1166 1.970 . S
Li1107 O1167 1.956 . S
C1108 C1110 1.348 . S
C1108 C1111 1.356 . S
C1108 O1164 1.325 . S
N1109 C1112 1.314 . S
N1109 C1113 1.279 . S
C1110 C1108 1.348 . S
C1110 C1112 1.353 . S
C1110 H1168 0.929 . S
C1111 C1108 1.356 . S
C1111 C1113 1.358 . S
C1111 H1169 0.930 . S
C1112 N1109 1.314 . S
C1112 C1110 1.353 . S
C1112 H1170 0.930 . S
C1113 N1109 1.279 . S
C1113 C1111 1.358 . S
C1113 H1171 0.930 . S
C1114 C1117 1.348 . S
C1114 C1118 1.356 . S
C1114 O1165 1.325 . S
C1115 N1116 1.279 . S
C1115 C1118 1.358 . S
C1115 H1172 0.930 . S
N1116 C1115 1.279 . S
N1116 C1119 1.314 . S
C1117 C1114 1.348 . S
C1117 C1119 1.353 . S
C1117 H1173 0.929 . S
C1118 C1114 1.356 . S
C1118 C1115 1.358 . S
C1118 H1174 0.930 . S
C1119 N1116 1.314 . S
C1119 C1117 1.353 . S
C1119 H1175 0.930 . S
C1120 N1121 1.314 . S
C1120 C1125 1.353 . S
C1120 H1126 0.930 . S
N1121 Li1104 1.990 . S
N1121 C1120 1.314 . S
N1121 C1123 1.279 . S
C1122 C1123 1.358 . S
C1122 C1124 1.356 . S
C1122 H1176 0.930 . S
C1123 N1121 1.279 . S
C1123 C1122 1.358 . S
C1123 H1127 0.930 . S
C1124 C1122 1.356 . S
C1124 C1125 1.348 . S
C1125 C1120 1.353 . S
C1125 C1124 1.348 . S
C1125 H1177 0.929 . S
H1126 C1120 0.930 . S
H1127 C1123 0.930 . S
C1128 N1129 1.314 . S
C1128 C1130 1.353 . S
C1128 H1134 0.930 . S
N1129 Li1105 1.990 . S
N1129 C1128 1.314 . S
N1129 C1132 1.279 . S
C1130 C1128 1.353 . S
C1130 C1133 1.348 . S
C1130 H1178 0.929 . S
C1131 C1132 1.358 . S
C1131 C1133 1.356 . S
C1131 H1179 0.930 . S
C1132 N1129 1.279 . S
C1132 C1131 1.358 . S
C1132 H1135 0.930 . S
C1133 C1130 1.348 . S
C1133 C1131 1.356 . S
H1134 C1128 0.930 . S
H1135 C1132 0.930 . S
C1136 C1138 1.348 . S
C1136 C1139 1.356 . S
C1136 O1166 1.325 . S
N1137 C1140 1.314 . S
N1137 C1141 1.279 . S
C1138 C1136 1.348 . S
C1138 C1140 1.353 . S
C1138 H1180 0.929 . S
C1139 C1136 1.356 . S
C1139 C1141 1.358 . S
C1139 H1181 0.930 . S
C1140 N1137 1.314 . S
C1140 C1138 1.353 . S
C1140 H1182 0.930 . S
C1141 N1137 1.279 . S
C1141 C1139 1.358 . S
C1141 H1183 0.930 . S
C1142 C1143 1.348 . S
C1142 C1144 1.356 . S
C1142 O1167 1.325 . S
C1143 C1142 1.348 . S
C1143 C1145 1.353 . S
C1143 H1184 0.929 . S
C1144 C1142 1.356 . S
C1144 C1146 1.358 . S
C1144 H1185 0.930 . S
C1145 C1143 1.353 . S
C1145 N1147 1.314 . S
C1145 H1186 0.930 . S
C1146 C1144 1.358 . S
C1146 N1147 1.279 . S
C1146 H1187 0.930 . S
N1147 C1145 1.314 . S
N1147 C1146 1.279 . S
C1148 C1150 1.353 . S
C1148 N1151 1.314 . S
C1148 H1154 0.930 . S
C1149 N1151 1.279 . S
C1149 C1152 1.358 . S
C1149 H1155 0.930 . S
C1150 C1148 1.353 . S
C1150 C1153 1.348 . S
C1150 H1188 0.929 . S
N1151 Li1106 1.990 . S
N1151 C1148 1.314 . S
N1151 C1149 1.279 . S
C1152 C1149 1.358 . S
C1152 C1153 1.356 . S
C1152 H1189 0.930 . S
C1153 C1150 1.348 . S
C1153 C1152 1.356 . S
H1154 C1148 0.930 . S
H1155 C1149 0.930 . S
C1156 N1157 1.314 . S
C1156 C1158 1.353 . S
C1156 H1162 0.930 . S
N1157 Li1107 1.990 . S
N1157 C1156 1.314 . S
N1157 C1160 1.279 . S
C1158 C1156 1.353 . S
C1158 C1161 1.348 . S
C1158 H1190 0.929 . S
C1159 C1160 1.358 . S
C1159 C1161 1.356 . S
C1159 H1191 0.930 . S
C1160 N1157 1.279 . S
C1160 C1159 1.358 . S
C1160 H1163 0.930 . S
C1161 C1158 1.348 . S
C1161 C1159 1.356 . S
H1162 C1156 0.930 . S
H1163 C1160 0.930 . S
O1164 Li1104 1.956 . S
O1164 Li1105 1.970 . S
O1164 Li1106 1.961 . S
O1164 C1108 1.325 . S
O1165 Li1104 1.970 . S
O1165 Li1105 1.956 . S
O1165 Li1107 1.961 . S
O1165 C1114 1.325 . S
O1166 Li1104 1.961 . S
O1166 Li1106 1.956 . S
O1166 Li1107 1.970 . S
O1166 C1136 1.325 . S
O1167 Li1105 1.961 . S
O1167 Li1106 1.970 . S
O1167 Li1107 1.956 . S
O1167 C1142 1.325 . S
H1168 C1110 0.929 . S
H1169 C1111 0.930 . S
H1170 C1112 0.930 . S
H1171 C1113 0.930 . S
H1172 C1115 0.930 . S
H1173 C1117 0.929 . S
H1174 C1118 0.930 . S
H1175 C1119 0.930 . S
H1176 C1122 0.930 . S
H1177 C1125 0.929 . S
H1178 C1130 0.929 . S
H1179 C1131 0.930 . S
H1180 C1138 0.929 . S
H1181 C1139 0.930 . S
H1182 C1140 0.930 . S
H1183 C1141 0.930 . S
H1184 C1143 0.929 . S
H1185 C1144 0.930 . S
H1186 C1145 0.930 . S
H1187 C1146 0.930 . S
H1188 C1150 0.929 . S
H1189 C1152 0.930 . S
H1190 C1158 0.929 . S
H1191 C1159 0.930 . S
Li1192 N1209 1.990 . S
Li1192 O1252 1.956 . S
Li1192 O1253 1.970 1_565 S
Li1192 O1254 1.961 . S
Li1193 N1217 1.990 . S
Li1193 O1252 1.970 1_545 S
Li1193 O1253 1.956 . S
Li1193 O1255 1.961 . S
Li1194 N1239 1.990 . S
Li1194 O1252 1.961 . S
Li1194 O1254 1.956 . S
Li1194 O1255 1.970 1_565 S
Li1195 N1245 1.990 . S
Li1195 O1253 1.961 . S
Li1195 O1254 1.970 1_545 S
Li1195 O1255 1.956 . S
C1196 C1198 1.348 . S
C1196 C1199 1.356 . S
C1196 O1252 1.325 . S
N1197 C1200 1.314 . S
N1197 C1201 1.279 . S
C1198 C1196 1.348 . S
C1198 C1200 1.353 . S
C1198 H1256 0.929 . S
C1199 C1196 1.356 . S
C1199 C1201 1.358 . S
C1199 H1257 0.930 . S
C1200 N1197 1.314 . S
C1200 C1198 1.353 . S
C1200 H1258 0.930 . S
C1201 N1197 1.279 . S
C1201 C1199 1.358 . S
C1201 H1259 0.930 . S
C1202 C1205 1.348 1_545 S
C1202 C1206 1.356 . S
C1202 O1253 1.325 . S
C1203 N1204 1.279 . S
C1203 C1206 1.358 . S
C1203 H1260 0.930 . S
N1204 C1203 1.279 . S
N1204 C1207 1.314 1_545 S
C1205 C1202 1.348 1_565 S
C1205 C1207 1.353 . S
C1205 H1261 0.929 . S
C1206 C1202 1.356 . S
C1206 C1203 1.358 . S
C1206 H1262 0.930 . S
C1207 N1204 1.314 1_565 S
C1207 C1205 1.353 . S
C1207 H1263 0.930 . S
C1208 N1209 1.314 . S
C1208 C1213 1.353 . S
C1208 H1214 0.930 . S
N1209 Li1192 1.990 . S
N1209 C1208 1.314 . S
N1209 C1211 1.279 . S
C1210 C1211 1.358 . S
C1210 C1212 1.356 . S
C1210 H1264 0.930 . S
C1211 N1209 1.279 . S
C1211 C1210 1.358 . S
C1211 H1215 0.930 . S
C1212 C1210 1.356 . S
C1212 C1213 1.348 . S
C1213 C1208 1.353 . S
C1213 C1212 1.348 . S
C1213 H1265 0.929 . S
H1214 C1208 0.930 . S
H1215 C1211 0.930 . S
C1216 N1217 1.314 . S
C1216 C1218 1.353 . S
C1216 H1222 0.930 . S
N1217 Li1193 1.990 . S
N1217 C1216 1.314 . S
N1217 C1220 1.279 . S
C1218 C1216 1.353 . S
C1218 C1221 1.348 . S
C1218 H1266 0.929 . S
C1219 C1220 1.358 . S
C1219 C1221 1.356 . S
C1219 H1267 0.930 . S
C1220 N1217 1.279 . S
C1220 C1219 1.358 . S
C1220 H1223 0.930 . S
C1221 C1218 1.348 . S
C1221 C1219 1.356 . S
H1222 C1216 0.930 . S
H1223 C1220 0.930 . S
C1224 C1226 1.348 1_565 S
C1224 C1227 1.356 . S
C1224 O1254 1.325 . S
N1225 C1228 1.314 1_565 S
N1225 C1229 1.279 . S
C1226 C1224 1.348 1_545 S
C1226 C1228 1.353 . S
C1226 H1268 0.929 . S
C1227 C1224 1.356 . S
C1227 C1229 1.358 . S
C1227 H1269 0.930 . S
C1228 N1225 1.314 1_545 S
C1228 C1226 1.353 . S
C1228 H1270 0.930 . S
C1229 N1225 1.279 . S
C1229 C1227 1.358 . S
C1229 H1271 0.930 . S
C1230 C1231 1.348 . S
C1230 C1232 1.356 . S
C1230 O1255 1.325 . S
C1231 C1230 1.348 . S
C1231 C1233 1.353 . S
C1231 H1272 0.929 . S
C1232 C1230 1.356 . S
C1232 C1234 1.358 . S
C1232 H1273 0.930 . S
C1233 C1231 1.353 . S
C1233 N1235 1.314 . S
C1233 H1274 0.930 . S
C1234 C1232 1.358 . S
C1234 N1235 1.279 . S
C1234 H1275 0.930 . S
N1235 C1233 1.314 . S
N1235 C1234 1.279 . S
C1236 C1238 1.353 . S
C1236 N1239 1.314 . S
C1236 H1242 0.930 . S
C1237 N1239 1.279 . S
C1237 C1240 1.358 . S
C1237 H1243 0.930 . S
C1238 C1236 1.353 . S
C1238 C1241 1.348 . S
C1238 H1276 0.929 . S
N1239 Li1194 1.990 . S
N1239 C1236 1.314 . S
N1239 C1237 1.279 . S
C1240 C1237 1.358 . S
C1240 C1241 1.356 . S
C1240 H1277 0.930 . S
C1241 C1238 1.348 . S
C1241 C1240 1.356 . S
H1242 C1236 0.930 . S
H1243 C1237 0.930 . S
C1244 N1245 1.314 . S
C1244 C1246 1.353 . S
C1244 H1250 0.930 . S
N1245 Li1195 1.990 . S
N1245 C1244 1.314 . S
N1245 C1248 1.279 . S
C1246 C1244 1.353 . S
C1246 C1249 1.348 . S
C1246 H1278 0.929 . S
C1247 C1248 1.358 . S
C1247 C1249 1.356 . S
C1247 H1279 0.930 . S
C1248 N1245 1.279 . S
C1248 C1247 1.358 . S
C1248 H1251 0.930 . S
C1249 C1246 1.348 . S
C1249 C1247 1.356 . S
H1250 C1244 0.930 . S
H1251 C1248 0.930 . S
O1252 Li1192 1.956 . S
O1252 Li1193 1.970 1_565 S
O1252 Li1194 1.961 . S
O1252 C1196 1.325 . S
O1253 Li1192 1.970 1_545 S
O1253 Li1193 1.956 . S
O1253 Li1195 1.961 . S
O1253 C1202 1.325 . S
O1254 Li1192 1.961 . S
O1254 Li1194 1.956 . S
O1254 Li1195 1.970 1_565 S
O1254 C1224 1.325 . S
O1255 Li1193 1.961 . S
O1255 Li1194 1.970 1_545 S
O1255 Li1195 1.956 . S
O1255 C1230 1.325 . S
H1256 C1198 0.929 . S
H1257 C1199 0.930 . S
H1258 C1200 0.930 . S
H1259 C1201 0.930 . S
H1260 C1203 0.930 . S
H1261 C1205 0.929 . S
H1262 C1206 0.930 . S
H1263 C1207 0.930 . S
H1264 C1210 0.930 . S
H1265 C1213 0.929 . S
H1266 C1218 0.929 . S
H1267 C1219 0.930 . S
H1268 C1226 0.929 . S
H1269 C1227 0.930 . S
H1270 C1228 0.930 . S
H1271 C1229 0.930 . S
H1272 C1231 0.929 . S
H1273 C1232 0.930 . S
H1274 C1233 0.930 . S
H1275 C1234 0.930 . S
H1276 C1238 0.929 . S
H1277 C1240 0.930 . S
H1278 C1246 0.929 . S
H1279 C1247 0.930 . S
Li1280 N1297 1.990 . S
Li1280 O1340 1.956 . S
Li1280 O1341 1.970 1_455 S
Li1280 O1342 1.961 . S
Li1281 N1305 1.990 . S
Li1281 O1340 1.970 1_655 S
Li1281 O1341 1.956 . S
Li1281 O1343 1.961 . S
Li1282 N1327 1.990 . S
Li1282 O1340 1.961 . S
Li1282 O1342 1.956 . S
Li1282 O1343 1.970 1_455 S
Li1283 N1333 1.990 . S
Li1283 O1341 1.961 . S
Li1283 O1342 1.970 1_655 S
Li1283 O1343 1.956 . S
C1284 C1286 1.348 . S
C1284 C1287 1.356 . S
C1284 O1340 1.325 . S
N1285 C1288 1.314 . S
N1285 C1289 1.279 . S
C1286 C1284 1.348 . S
C1286 C1288 1.353 . S
C1286 H1344 0.929 . S
C1287 C1284 1.356 . S
C1287 C1289 1.358 . S
C1287 H1345 0.930 . S
C1288 N1285 1.314 . S
C1288 C1286 1.353 . S
C1288 H1346 0.930 . S
C1289 N1285 1.279 . S
C1289 C1287 1.358 . S
C1289 H1347 0.930 . S
C1290 C1293 1.348 1_655 S
C1290 C1294 1.356 . S
C1290 O1341 1.325 . S
C1291 N1292 1.279 . S
C1291 C1294 1.358 . S
C1291 H1348 0.930 . S
N1292 C1291 1.279 . S
N1292 C1295 1.314 1_655 S
C1293 C1290 1.348 1_455 S
C1293 C1295 1.353 . S
C1293 H1349 0.929 . S
C1294 C1290 1.356 . S
C1294 C1291 1.358 . S
C1294 H1350 0.930 . S
C1295 N1292 1.314 1_455 S
C1295 C1293 1.353 . S
C1295 H1351 0.930 . S
C1296 N1297 1.314 . S
C1296 C1301 1.353 . S
C1296 H1302 0.930 . S
N1297 Li1280 1.990 . S
N1297 C1296 1.314 . S
N1297 C1299 1.279 . S
C1298 C1299 1.358 . S
C1298 C1300 1.356 . S
C1298 H1352 0.930 . S
C1299 N1297 1.279 . S
C1299 C1298 1.358 . S
C1299 H1303 0.930 . S
C1300 C1298 1.356 . S
C1300 C1301 1.348 . S
C1301 C1296 1.353 . S
C1301 C1300 1.348 . S
C1301 H1353 0.929 . S
H1302 C1296 0.930 . S
H1303 C1299 0.930 . S
C1304 N1305 1.314 . S
C1304 C1306 1.353 . S
C1304 H1310 0.930 . S
N1305 Li1281 1.990 . S
N1305 C1304 1.314 . S
N1305 C1308 1.279 . S
C1306 C1304 1.353 . S
C1306 C1309 1.348 . S
C1306 H1354 0.929 . S
C1307 C1308 1.358 . S
C1307 C1309 1.356 . S
C1307 H1355 0.930 . S
C1308 N1305 1.279 . S
C1308 C1307 1.358 . S
C1308 H1311 0.930 . S
C1309 C1306 1.348 . S
C1309 C1307 1.356 . S
H1310 C1304 0.930 . S
H1311 C1308 0.930 . S
C1312 C1314 1.348 1_455 S
C1312 C1315 1.356 . S
C1312 O1342 1.325 . S
N1313 C1316 1.314 1_455 S
N1313 C1317 1.279 . S
C1314 C1312 1.348 1_655 S
C1314 C1316 1.353 . S
C1314 H1356 0.929 . S
C1315 C1312 1.356 . S
C1315 C1317 1.358 . S
C1315 H1357 0.930 . S
C1316 N1313 1.314 1_655 S
C1316 C1314 1.353 . S
C1316 H1358 0.930 . S
C1317 N1313 1.279 . S
C1317 C1315 1.358 . S
C1317 H1359 0.930 . S
C1318 C1319 1.348 . S
C1318 C1320 1.356 . S
C1318 O1343 1.325 . S
C1319 C1318 1.348 . S
C1319 C1321 1.353 . S
C1319 H1360 0.929 . S
C1320 C1318 1.356 . S
C1320 C1322 1.358 . S
C1320 H1361 0.930 . S
C1321 C1319 1.353 . S
C1321 N1323 1.314 . S
C1321 H1362 0.930 . S
C1322 C1320 1.358 . S
C1322 N1323 1.279 . S
C1322 H1363 0.930 . S
N1323 C1321 1.314 . S
N1323 C1322 1.279 . S
C1324 C1326 1.353 . S
C1324 N1327 1.314 . S
C1324 H1330 0.930 . S
C1325 N1327 1.279 . S
C1325 C1328 1.358 . S
C1325 H1331 0.930 . S
C1326 C1324 1.353 . S
C1326 C1329 1.348 . S
C1326 H1364 0.929 . S
N1327 Li1282 1.990 . S
N1327 C1324 1.314 . S
N1327 C1325 1.279 . S
C1328 C1325 1.358 . S
C1328 C1329 1.356 . S
C1328 H1365 0.930 . S
C1329 C1326 1.348 . S
C1329 C1328 1.356 . S
H1330 C1324 0.930 . S
H1331 C1325 0.930 . S
C1332 N1333 1.314 . S
C1332 C1334 1.353 . S
C1332 H1338 0.930 . S
N1333 Li1283 1.990 . S
N1333 C1332 1.314 . S
N1333 C1336 1.279 . S
C1334 C1332 1.353 . S
C1334 C1337 1.348 . S
C1334 H1366 0.929 . S
C1335 C1336 1.358 . S
C1335 C1337 1.356 . S
C1335 H1367 0.930 . S
C1336 N1333 1.279 . S
C1336 C1335 1.358 . S
C1336 H1339 0.930 . S
C1337 C1334 1.348 . S
C1337 C1335 1.356 . S
H1338 C1332 0.930 . S
H1339 C1336 0.930 . S
O1340 Li1280 1.956 . S
O1340 Li1281 1.970 1_455 S
O1340 Li1282 1.961 . S
O1340 C1284 1.325 . S
O1341 Li1280 1.970 1_655 S
O1341 Li1281 1.956 . S
O1341 Li1283 1.961 . S
O1341 C1290 1.325 . S
O1342 Li1280 1.961 . S
O1342 Li1282 1.956 . S
O1342 Li1283 1.970 1_455 S
O1342 C1312 1.325 . S
O1343 Li1281 1.961 . S
O1343 Li1282 1.970 1_655 S
O1343 Li1283 1.956 . S
O1343 C1318 1.325 . S
H1344 C1286 0.929 . S
H1345 C1287 0.930 . S
H1346 C1288 0.930 . S
H1347 C1289 0.930 . S
H1348 C1291 0.930 . S
H1349 C1293 0.929 . S
H1350 C1294 0.930 . S
H1351 C1295 0.930 . S
H1352 C1298 0.930 . S
H1353 C1301 0.929 . S
H1354 C1306 0.929 . S
H1355 C1307 0.930 . S
H1356 C1314 0.929 . S
H1357 C1315 0.930 . S
H1358 C1316 0.930 . S
H1359 C1317 0.930 . S
H1360 C1319 0.929 . S
H1361 C1320 0.930 . S
H1362 C1321 0.930 . S
H1363 C1322 0.930 . S
H1364 C1326 0.929 . S
H1365 C1328 0.930 . S
H1366 C1334 0.929 . S
H1367 C1335 0.930 . S
Li1368 N1385 1.990 . S
Li1368 O1428 1.956 . S
Li1368 O1429 1.970 . S
Li1368 O1430 1.961 . S
Li1369 N1393 1.990 . S
Li1369 O1428 1.970 . S
Li1369 O1429 1.956 . S
Li1369 O1431 1.961 . S
Li1370 N1415 1.990 . S
Li1370 O1428 1.961 . S
Li1370 O1430 1.956 . S
Li1370 O1431 1.970 . S
Li1371 N1421 1.990 . S
Li1371 O1429 1.961 . S
Li1371 O1430 1.970 . S
Li1371 O1431 1.956 . S
C1372 C1374 1.348 . S
C1372 C1375 1.356 . S
C1372 O1428 1.325 . S
N1373 C1376 1.314 . S
N1373 C1377 1.279 . S
C1374 C1372 1.348 . S
C1374 C1376 1.353 . S
C1374 H1432 0.929 . S
C1375 C1372 1.356 . S
C1375 C1377 1.358 . S
C1375 H1433 0.930 . S
C1376 N1373 1.314 . S
C1376 C1374 1.353 . S
C1376 H1434 0.930 . S
C1377 N1373 1.279 . S
C1377 C1375 1.358 . S
C1377 H1435 0.930 . S
C1378 C1381 1.348 . S
C1378 C1382 1.356 . S
C1378 O1429 1.325 . S
C1379 N1380 1.279 . S
C1379 C1382 1.358 . S
C1379 H1436 0.930 . S
N1380 C1379 1.279 . S
N1380 C1383 1.314 . S
C1381 C1378 1.348 . S
C1381 C1383 1.353 . S
C1381 H1437 0.929 . S
C1382 C1378 1.356 . S
C1382 C1379 1.358 . S
C1382 H1438 0.930 . S
C1383 N1380 1.314 . S
C1383 C1381 1.353 . S
C1383 H1439 0.930 . S
C1384 N1385 1.314 . S
C1384 C1389 1.353 . S
C1384 H1390 0.930 . S
N1385 Li1368 1.990 . S
N1385 C1384 1.314 . S
N1385 C1387 1.279 . S
C1386 C1387 1.358 . S
C1386 C1388 1.356 . S
C1386 H1440 0.930 . S
C1387 N1385 1.279 . S
C1387 C1386 1.358 . S
C1387 H1391 0.930 . S
C1388 C1386 1.356 . S
C1388 C1389 1.348 . S
C1389 C1384 1.353 . S
C1389 C1388 1.348 . S
C1389 H1441 0.929 . S
H1390 C1384 0.930 . S
H1391 C1387 0.930 . S
C1392 N1393 1.314 . S
C1392 C1394 1.353 . S
C1392 H1398 0.930 . S
N1393 Li1369 1.990 . S
N1393 C1392 1.314 . S
N1393 C1396 1.279 . S
C1394 C1392 1.353 . S
C1394 C1397 1.348 . S
C1394 H1442 0.929 . S
C1395 C1396 1.358 . S
C1395 C1397 1.356 . S
C1395 H1443 0.930 . S
C1396 N1393 1.279 . S
C1396 C1395 1.358 . S
C1396 H1399 0.930 . S
C1397 C1394 1.348 . S
C1397 C1395 1.356 . S
H1398 C1392 0.930 . S
H1399 C1396 0.930 . S
C1400 C1402 1.348 . S
C1400 C1403 1.356 . S
C1400 O1430 1.325 . S
N1401 C1404 1.314 . S
N1401 C1405 1.279 . S
C1402 C1400 1.348 . S
C1402 C1404 1.353 . S
C1402 H1444 0.929 . S
C1403 C1400 1.356 . S
C1403 C1405 1.358 . S
C1403 H1445 0.930 . S
C1404 N1401 1.314 . S
C1404 C1402 1.353 . S
C1404 H1446 0.930 . S
C1405 N1401 1.279 . S
C1405 C1403 1.358 . S
C1405 H1447 0.930 . S
C1406 C1407 1.348 . S
C1406 C1408 1.356 . S
C1406 O1431 1.325 . S
C1407 C1406 1.348 . S
C1407 C1409 1.353 . S
C1407 H1448 0.929 . S
C1408 C1406 1.356 . S
C1408 C1410 1.358 . S
C1408 H1449 0.930 . S
C1409 C1407 1.353 . S
C1409 N1411 1.314 . S
C1409 H1450 0.930 . S
C1410 C1408 1.358 . S
C1410 N1411 1.279 . S
C1410 H1451 0.930 . S
N1411 C1409 1.314 . S
N1411 C1410 1.279 . S
C1412 C1414 1.353 . S
C1412 N1415 1.314 . S
C1412 H1418 0.930 . S
C1413 N1415 1.279 . S
C1413 C1416 1.358 . S
C1413 H1419 0.930 . S
C1414 C1412 1.353 . S
C1414 C1417 1.348 . S
C1414 H1452 0.929 . S
N1415 Li1370 1.990 . S
N1415 C1412 1.314 . S
N1415 C1413 1.279 . S
C1416 C1413 1.358 . S
C1416 C1417 1.356 . S
C1416 H1453 0.930 . S
C1417 C1414 1.348 . S
C1417 C1416 1.356 . S
H1418 C1412 0.930 . S
H1419 C1413 0.930 . S
C1420 N1421 1.314 . S
C1420 C1422 1.353 . S
C1420 H1426 0.930 . S
N1421 Li1371 1.990 . S
N1421 C1420 1.314 . S
N1421 C1424 1.279 . S
C1422 C1420 1.353 . S
C1422 C1425 1.348 . S
C1422 H1454 0.929 . S
C1423 C1424 1.358 . S
C1423 C1425 1.356 . S
C1423 H1455 0.930 . S
C1424 N1421 1.279 . S
C1424 C1423 1.358 . S
C1424 H1427 0.930 . S
C1425 C1422 1.348 . S
C1425 C1423 1.356 . S
H1426 C1420 0.930 . S
H1427 C1424 0.930 . S
O1428 Li1368 1.956 . S
O1428 Li1369 1.970 . S
O1428 Li1370 1.961 . S
O1428 C1372 1.325 . S
O1429 Li1368 1.970 . S
O1429 Li1369 1.956 . S
O1429 Li1371 1.961 . S
O1429 C1378 1.325 . S
O1430 Li1368 1.961 . S
O1430 Li1370 1.956 . S
O1430 Li1371 1.970 . S
O1430 C1400 1.325 . S
O1431 Li1369 1.961 . S
O1431 Li1370 1.970 . S
O1431 Li1371 1.956 . S
O1431 C1406 1.325 . S
H1432 C1374 0.929 . S
H1433 C1375 0.930 . S
H1434 C1376 0.930 . S
H1435 C1377 0.930 . S
H1436 C1379 0.930 . S
H1437 C1381 0.929 . S
H1438 C1382 0.930 . S
H1439 C1383 0.930 . S
H1440 C1386 0.930 . S
H1441 C1389 0.929 . S
H1442 C1394 0.929 . S
H1443 C1395 0.930 . S
H1444 C1402 0.929 . S
H1445 C1403 0.930 . S
H1446 C1404 0.930 . S
H1447 C1405 0.930 . S
H1448 C1407 0.929 . S
H1449 C1408 0.930 . S
H1450 C1409 0.930 . S
H1451 C1410 0.930 . S
H1452 C1414 0.929 . S
H1453 C1416 0.930 . S
H1454 C1422 0.929 . S
H1455 C1423 0.930 . S
Li1456 N1473 1.990 . S
Li1456 O1516 1.956 . S
Li1456 O1517 1.970 1_455 S
Li1456 O1518 1.961 . S
Li1457 N1481 1.990 . S
Li1457 O1516 1.970 1_655 S
Li1457 O1517 1.956 . S
Li1457 O1519 1.961 . S
Li1458 N1503 1.990 . S
Li1458 O1516 1.961 . S
Li1458 O1518 1.956 . S
Li1458 O1519 1.970 1_455 S
Li1459 N1509 1.990 . S
Li1459 O1517 1.961 . S
Li1459 O1518 1.970 1_655 S
Li1459 O1519 1.956 . S
C1460 C1462 1.348 1_455 S
C1460 C1463 1.356 . S
C1460 O1516 1.325 . S
N1461 C1464 1.314 1_455 S
N1461 C1465 1.279 . S
C1462 C1460 1.348 1_655 S
C1462 C1464 1.353 . S
C1462 H1520 0.929 . S
C1463 C1460 1.356 . S
C1463 C1465 1.358 . S
C1463 H1521 0.930 . S
C1464 N1461 1.314 1_655 S
C1464 C1462 1.353 . S
C1464 H1522 0.930 . S
C1465 N1461 1.279 . S
C1465 C1463 1.358 . S
C1465 H1523 0.930 . S
C1466 C1469 1.348 . S
C1466 C1470 1.356 . S
C1466 O1517 1.325 . S
C1467 N1468 1.279 . S
C1467 C1470 1.358 . S
C1467 H1524 0.930 . S
N1468 C1467 1.279 . S
N1468 C1471 1.314 . S
C1469 C1466 1.348 . S
C1469 C1471 1.353 . S
C1469 H1525 0.929 . S
C1470 C1466 1.356 . S
C1470 C1467 1.358 . S
C1470 H1526 0.930 . S
C1471 N1468 1.314 . S
C1471 C1469 1.353 . S
C1471 H1527 0.930 . S
C1472 N1473 1.314 . S
C1472 C1477 1.353 . S
C1472 H1478 0.930 . S
N1473 Li1456 1.990 . S
N1473 C1472 1.314 . S
N1473 C1475 1.279 . S
C1474 C1475 1.358 . S
C1474 C1476 1.356 . S
C1474 H1528 0.930 . S
C1475 N1473 1.279 . S
C1475 C1474 1.358 . S
C1475 H1479 0.930 . S
C1476 C1474 1.356 . S
C1476 C1477 1.348 . S
C1477 C1472 1.353 . S
C1477 C1476 1.348 . S
C1477 H1529 0.929 . S
H1478 C1472 0.930 . S
H1479 C1475 0.930 . S
C1480 N1481 1.314 . S
C1480 C1482 1.353 . S
C1480 H1486 0.930 . S
N1481 Li1457 1.990 . S
N1481 C1480 1.314 . S
N1481 C1484 1.279 . S
C1482 C1480 1.353 . S
C1482 C1485 1.348 . S
C1482 H1530 0.929 . S
C1483 C1484 1.358 . S
C1483 C1485 1.356 . S
C1483 H1531 0.930 . S
C1484 N1481 1.279 . S
C1484 C1483 1.358 . S
C1484 H1487 0.930 . S
C1485 C1482 1.348 . S
C1485 C1483 1.356 . S
H1486 C1480 0.930 . S
H1487 C1484 0.930 . S
C1488 C1490 1.348 . S
C1488 C1491 1.356 . S
C1488 O1518 1.325 . S
N1489 C1492 1.314 . S
N1489 C1493 1.279 . S
C1490 C1488 1.348 . S
C1490 C1492 1.353 . S
C1490 H1532 0.929 . S
C1491 C1488 1.356 . S
C1491 C1493 1.358 . S
C1491 H1533 0.930 . S
C1492 N1489 1.314 . S
C1492 C1490 1.353 . S
C1492 H1534 0.930 . S
C1493 N1489 1.279 . S
C1493 C1491 1.358 . S
C1493 H1535 0.930 . S
C1494 C1495 1.348 1_655 S
C1494 C1496 1.356 . S
C1494 O1519 1.325 . S
C1495 C1494 1.348 1_455 S
C1495 C1497 1.353 . S
C1495 H1536 0.929 . S
C1496 C1494 1.356 . S
C1496 C1498 1.358 . S
C1496 H1537 0.930 . S
C1497 C1495 1.353 . S
C1497 N1499 1.314 1_455 S
C1497 H1538 0.930 . S
C1498 C1496 1.358 . S
C1498 N1499 1.279 . S
C1498 H1539 0.930 . S
N1499 C1497 1.314 1_655 S
N1499 C1498 1.279 . S
C1500 C1502 1.353 . S
C1500 N1503 1.314 . S
C1500 H1506 0.930 . S
C1501 N1503 1.279 . S
C1501 C1504 1.358 . S
C1501 H1507 0.930 . S
C1502 C1500 1.353 . S
C1502 C1505 1.348 . S
C1502 H1540 0.929 . S
N1503 Li1458 1.990 . S
N1503 C1500 1.314 . S
N1503 C1501 1.279 . S
C1504 C1501 1.358 . S
C1504 C1505 1.356 . S
C1504 H1541 0.930 . S
C1505 C1502 1.348 . S
C1505 C1504 1.356 . S
H1506 C1500 0.930 . S
H1507 C1501 0.930 . S
C1508 N1509 1.314 . S
C1508 C1510 1.353 . S
C1508 H1514 0.930 . S
N1509 Li1459 1.990 . S
N1509 C1508 1.314 . S
N1509 C1512 1.279 . S
C1510 C1508 1.353 . S
C1510 C1513 1.348 . S
C1510 H1542 0.929 . S
C1511 C1512 1.358 . S
C1511 C1513 1.356 . S
C1511 H1543 0.930 . S
C1512 N1509 1.279 . S
C1512 C1511 1.358 . S
C1512 H1515 0.930 . S
C1513 C1510 1.348 . S
C1513 C1511 1.356 . S
H1514 C1508 0.930 . S
H1515 C1512 0.930 . S
O1516 Li1456 1.956 . S
O1516 Li1457 1.970 1_455 S
O1516 Li1458 1.961 . S
O1516 C1460 1.325 . S
O1517 Li1456 1.970 1_655 S
O1517 Li1457 1.956 . S
O1517 Li1459 1.961 . S
O1517 C1466 1.325 . S
O1518 Li1456 1.961 . S
O1518 Li1458 1.956 . S
O1518 Li1459 1.970 1_455 S
O1518 C1488 1.325 . S
O1519 Li1457 1.961 . S
O1519 Li1458 1.970 1_655 S
O1519 Li1459 1.956 . S
O1519 C1494 1.325 . S
H1520 C1462 0.929 . S
H1521 C1463 0.930 . S
H1522 C1464 0.930 . S
H1523 C1465 0.930 . S
H1524 C1467 0.930 . S
H1525 C1469 0.929 . S
H1526 C1470 0.930 . S
H1527 C1471 0.930 . S
H1528 C1474 0.930 . S
H1529 C1477 0.929 . S
H1530 C1482 0.929 . S
H1531 C1483 0.930 . S
H1532 C1490 0.929 . S
H1533 C1491 0.930 . S
H1534 C1492 0.930 . S
H1535 C1493 0.930 . S
H1536 C1495 0.929 . S
H1537 C1496 0.930 . S
H1538 C1497 0.930 . S
H1539 C1498 0.930 . S
H1540 C1502 0.929 . S
H1541 C1504 0.930 . S
H1542 C1510 0.929 . S
H1543 C1511 0.930 . S
Li1544 N1561 1.990 . S
Li1544 O1604 1.956 . S
Li1544 O1605 1.970 . S
Li1544 O1606 1.961 . S
Li1545 N1569 1.990 . S
Li1545 O1604 1.970 . S
Li1545 O1605 1.956 . S
Li1545 O1607 1.961 . S
Li1546 N1591 1.990 . S
Li1546 O1604 1.961 . S
Li1546 O1606 1.956 . S
Li1546 O1607 1.970 . S
Li1547 N1597 1.990 . S
Li1547 O1605 1.961 . S
Li1547 O1606 1.970 . S
Li1547 O1607 1.956 . S
C1548 C1550 1.348 . S
C1548 C1551 1.356 . S
C1548 O1604 1.325 . S
N1549 C1552 1.314 . S
N1549 C1553 1.279 . S
C1550 C1548 1.348 . S
C1550 C1552 1.353 . S
C1550 H1608 0.929 . S
C1551 C1548 1.356 . S
C1551 C1553 1.358 . S
C1551 H1609 0.930 . S
C1552 N1549 1.314 . S
C1552 C1550 1.353 . S
C1552 H1610 0.930 . S
C1553 N1549 1.279 . S
C1553 C1551 1.358 . S
C1553 H1611 0.930 . S
C1554 C1557 1.348 . S
C1554 C1558 1.356 . S
C1554 O1605 1.325 . S
C1555 N1556 1.279 . S
C1555 C1558 1.358 . S
C1555 H1612 0.930 . S
N1556 C1555 1.279 . S
N1556 C1559 1.314 . S
C1557 C1554 1.348 . S
C1557 C1559 1.353 . S
C1557 H1613 0.929 . S
C1558 C1554 1.356 . S
C1558 C1555 1.358 . S
C1558 H1614 0.930 . S
C1559 N1556 1.314 . S
C1559 C1557 1.353 . S
C1559 H1615 0.930 . S
C1560 N1561 1.314 . S
C1560 C1565 1.353 . S
C1560 H1566 0.930 . S
N1561 Li1544 1.990 . S
N1561 C1560 1.314 . S
N1561 C1563 1.279 . S
C1562 C1563 1.358 . S
C1562 C1564 1.356 . S
C1562 H1616 0.930 . S
C1563 N1561 1.279 . S
C1563 C1562 1.358 . S
C1563 H1567 0.930 . S
C1564 C1562 1.356 . S
C1564 C1565 1.348 . S
C1565 C1560 1.353 . S
C1565 C1564 1.348 . S
C1565 H1617 0.929 . S
H1566 C1560 0.930 . S
H1567 C1563 0.930 . S
C1568 N1569 1.314 . S
C1568 C1570 1.353 . S
C1568 H1574 0.930 . S
N1569 Li1545 1.990 . S
N1569 C1568 1.314 . S
N1569 C1572 1.279 . S
C1570 C1568 1.353 . S
C1570 C1573 1.348 . S
C1570 H1618 0.929 . S
C1571 C1572 1.358 . S
C1571 C1573 1.356 . S
C1571 H1619 0.930 . S
C1572 N1569 1.279 . S
C1572 C1571 1.358 . S
C1572 H1575 0.930 . S
C1573 C1570 1.348 . S
C1573 C1571 1.356 . S
H1574 C1568 0.930 . S
H1575 C1572 0.930 . S
C1576 C1578 1.348 . S
C1576 C1579 1.356 . S
C1576 O1606 1.325 . S
N1577 C1580 1.314 . S
N1577 C1581 1.279 . S
C1578 C1576 1.348 . S
C1578 C1580 1.353 . S
C1578 H1620 0.929 . S
C1579 C1576 1.356 . S
C1579 C1581 1.358 . S
C1579 H1621 0.930 . S
C1580 N1577 1.314 . S
C1580 C1578 1.353 . S
C1580 H1622 0.930 . S
C1581 N1577 1.279 . S
C1581 C1579 1.358 . S
C1581 H1623 0.930 . S
C1582 C1583 1.348 . S
C1582 C1584 1.356 . S
C1582 O1607 1.325 . S
C1583 C1582 1.348 . S
C1583 C1585 1.353 . S
C1583 H1624 0.929 . S
C1584 C1582 1.356 . S
C1584 C1586 1.358 . S
C1584 H1625 0.930 . S
C1585 C1583 1.353 . S
C1585 N1587 1.314 . S
C1585 H1626 0.930 . S
C1586 C1584 1.358 . S
C1586 N1587 1.279 . S
C1586 H1627 0.930 . S
N1587 C1585 1.314 . S
N1587 C1586 1.279 . S
C1588 C1590 1.353 . S
C1588 N1591 1.314 . S
C1588 H1594 0.930 . S
C1589 N1591 1.279 . S
C1589 C1592 1.358 . S
C1589 H1595 0.930 . S
C1590 C1588 1.353 . S
C1590 C1593 1.348 . S
C1590 H1628 0.929 . S
N1591 Li1546 1.990 . S
N1591 C1588 1.314 . S
N1591 C1589 1.279 . S
C1592 C1589 1.358 . S
C1592 C1593 1.356 . S
C1592 H1629 0.930 . S
C1593 C1590 1.348 . S
C1593 C1592 1.356 . S
H1594 C1588 0.930 . S
H1595 C1589 0.930 . S
C1596 N1597 1.314 . S
C1596 C1598 1.353 . S
C1596 H1602 0.930 . S
N1597 Li1547 1.990 . S
N1597 C1596 1.314 . S
N1597 C1600 1.279 . S
C1598 C1596 1.353 . S
C1598 C1601 1.348 . S
C1598 H1630 0.929 . S
C1599 C1600 1.358 . S
C1599 C1601 1.356 . S
C1599 H1631 0.930 . S
C1600 N1597 1.279 . S
C1600 C1599 1.358 . S
C1600 H1603 0.930 . S
C1601 C1598 1.348 . S
C1601 C1599 1.356 . S
H1602 C1596 0.930 . S
H1603 C1600 0.930 . S
O1604 Li1544 1.956 . S
O1604 Li1545 1.970 . S
O1604 Li1546 1.961 . S
O1604 C1548 1.325 . S
O1605 Li1544 1.970 . S
O1605 Li1545 1.956 . S
O1605 Li1547 1.961 . S
O1605 C1554 1.325 . S
O1606 Li1544 1.961 . S
O1606 Li1546 1.956 . S
O1606 Li1547 1.970 . S
O1606 C1576 1.325 . S
O1607 Li1545 1.961 . S
O1607 Li1546 1.970 . S
O1607 Li1547 1.956 . S
O1607 C1582 1.325 . S
H1608 C1550 0.929 . S
H1609 C1551 0.930 . S
H1610 C1552 0.930 . S
H1611 C1553 0.930 . S
H1612 C1555 0.930 . S
H1613 C1557 0.929 . S
H1614 C1558 0.930 . S
H1615 C1559 0.930 . S
H1616 C1562 0.930 . S
H1617 C1565 0.929 . S
H1618 C1570 0.929 . S
H1619 C1571 0.930 . S
H1620 C1578 0.929 . S
H1621 C1579 0.930 . S
H1622 C1580 0.930 . S
H1623 C1581 0.930 . S
H1624 C1583 0.929 . S
H1625 C1584 0.930 . S
H1626 C1585 0.930 . S
H1627 C1586 0.930 . S
H1628 C1590 0.929 . S
H1629 C1592 0.930 . S
H1630 C1598 0.929 . S
H1631 C1599 0.930 . S
C1632 C1633 1.349 . S
C1632 C1634 1.327 . S
C1632 H1657 0.950 . S
C1633 C1632 1.349 . S
C1633 C1649 1.349 . S
C1634 C1632 1.327 . S
C1634 C1653 1.429 . S
C1634 H1658 0.950 . S
C1635 C1652 1.574 . S
C1635 C1654 1.368 . S
C1635 H1659 0.949 . S
H1636 C1640 0.949 . S
C1637 C1638 1.349 . S
C1637 C1639 1.327 . S
C1637 H1660 0.950 . S
C1638 C1637 1.349 . S
C1638 C1650 1.349 . S
C1639 C1637 1.327 . S
C1639 C1655 1.429 . S
C1639 H1661 0.950 . S
C1640 H1636 0.949 . S
C1640 C1648 1.574 . S
C1640 C1656 1.368 . S
H1641 C1649 0.950 . S
H1642 C1647 0.950 . S
H1643 C1648 0.949 . S
H1644 C1650 0.950 . S
H1645 C1651 0.950 . S
H1646 C1652 0.949 . S
C1647 H1642 0.950 . S
C1647 C1649 1.327 . S
C1647 C1653 1.429 . S
C1648 C1640 1.574 . S
C1648 H1643 0.949 . S
C1648 C1654 1.368 . S
C1649 C1633 1.349 . S
C1649 H1641 0.950 . S
C1649 C1647 1.327 . S
C1650 C1638 1.349 . S
C1650 H1644 0.950 . S
C1650 C1651 1.327 . S
C1651 H1645 0.950 . S
C1651 C1650 1.327 . S
C1651 C1655 1.429 . S
C1652 C1635 1.574 . S
C1652 H1646 0.949 . S
C1652 C1656 1.368 . S
C1653 C1634 1.429 . S
C1653 C1647 1.429 . S
C1653 C1654 1.523 . S
C1654 C1635 1.368 . S
C1654 C1648 1.368 . S
C1654 C1653 1.523 . S
C1655 C1639 1.429 . S
C1655 C1651 1.429 . S
C1655 C1656 1.523 . S
C1656 C1640 1.368 . S
C1656 C1652 1.368 . S
C1656 C1655 1.523 . S
H1657 C1632 0.950 . S
H1658 C1634 0.950 . S
H1659 C1635 0.949 . S
H1660 C1637 0.950 . S
H1661 C1639 0.950 . S
C1662 C1663 1.349 . S
C1662 C1664 1.327 . S
C1662 H1687 0.950 . S
C1663 C1662 1.349 . S
C1663 C1679 1.349 . S
C1664 C1662 1.327 . S
C1664 C1683 1.429 . S
C1664 H1688 0.950 . S
C1665 C1682 1.574 . S
C1665 C1684 1.368 . S
C1665 H1689 0.949 . S
H1666 C1670 0.949 . S
C1667 C1668 1.349 . S
C1667 C1669 1.327 . S
C1667 H1690 0.950 . S
C1668 C1667 1.349 . S
C1668 C1680 1.349 . S
C1669 C1667 1.327 . S
C1669 C1685 1.429 . S
C1669 H1691 0.950 . S
C1670 H1666 0.949 . S
C1670 C1678 1.574 . S
C1670 C1686 1.368 . S
H1671 C1679 0.950 . S
H1672 C1677 0.950 . S
H1673 C1678 0.949 . S
H1674 C1680 0.950 . S
H1675 C1681 0.950 . S
H1676 C1682 0.949 . S
C1677 H1672 0.950 . S
C1677 C1679 1.327 . S
C1677 C1683 1.429 . S
C1678 C1670 1.574 . S
C1678 H1673 0.949 . S
C1678 C1684 1.368 . S
C1679 C1663 1.349 . S
C1679 H1671 0.950 . S
C1679 C1677 1.327 . S
C1680 C1668 1.349 . S
C1680 H1674 0.950 . S
C1680 C1681 1.327 . S
C1681 H1675 0.950 . S
C1681 C1680 1.327 . S
C1681 C1685 1.429 . S
C1682 C1665 1.574 . S
C1682 H1676 0.949 . S
C1682 C1686 1.368 . S
C1683 C1664 1.429 . S
C1683 C1677 1.429 . S
C1683 C1684 1.523 . S
C1684 C1665 1.368 . S
C1684 C1678 1.368 . S
C1684 C1683 1.523 . S
C1685 C1669 1.429 . S
C1685 C1681 1.429 . S
C1685 C1686 1.523 . S
C1686 C1670 1.368 . S
C1686 C1682 1.368 . S
C1686 C1685 1.523 . S
H1687 C1662 0.950 . S
H1688 C1664 0.950 . S
H1689 C1665 0.949 . S
H1690 C1667 0.950 . S
H1691 C1669 0.950 . S
C1692 C1693 1.349 . S
C1692 C1694 1.327 . S
C1692 H1717 0.950 . S
C1693 C1692 1.349 . S
C1693 C1709 1.349 . S
C1694 C1692 1.327 . S
C1694 C1713 1.429 . S
C1694 H1718 0.950 . S
C1695 C1712 1.574 . S
C1695 C1714 1.368 . S
C1695 H1719 0.949 . S
H1696 C1700 0.949 . S
C1697 C1698 1.349 . S
C1697 C1699 1.327 . S
C1697 H1720 0.950 . S
C1698 C1697 1.349 . S
C1698 C1710 1.349 . S
C1699 C1697 1.327 . S
C1699 C1715 1.429 . S
C1699 H1721 0.950 . S
C1700 H1696 0.949 . S
C1700 C1708 1.574 . S
C1700 C1716 1.368 . S
H1701 C1709 0.950 . S
H1702 C1707 0.950 . S
H1703 C1708 0.949 . S
H1704 C1710 0.950 . S
H1705 C1711 0.950 . S
H1706 C1712 0.949 . S
C1707 H1702 0.950 . S
C1707 C1709 1.327 . S
C1707 C1713 1.429 . S
C1708 C1700 1.574 . S
C1708 H1703 0.949 . S
C1708 C1714 1.368 . S
C1709 C1693 1.349 . S
C1709 H1701 0.950 . S
C1709 C1707 1.327 . S
C1710 C1698 1.349 . S
C1710 H1704 0.950 . S
C1710 C1711 1.327 . S
C1711 H1705 0.950 . S
C1711 C1710 1.327 . S
C1711 C1715 1.429 . S
C1712 C1695 1.574 . S
C1712 H1706 0.949 . S
C1712 C1716 1.368 . S
C1713 C1694 1.429 . S
C1713 C1707 1.429 . S
C1713 C1714 1.523 . S
C1714 C1695 1.368 . S
C1714 C1708 1.368 . S
C1714 C1713 1.523 . S
C1715 C1699 1.429 . S
C1715 C1711 1.429 . S
C1715 C1716 1.523 . S
C1716 C1700 1.368 . S
C1716 C1712 1.368 . S
C1716 C1715 1.523 . S
H1717 C1692 0.950 . S
H1718 C1694 0.950 . S
H1719 C1695 0.949 . S
H1720 C1697 0.950 . S
H1721 C1699 0.950 . S
C1722 C1723 1.349 . S
C1722 C1724 1.327 . S
C1722 H1747 0.950 . S
C1723 C1722 1.349 . S
C1723 C1739 1.349 . S
C1724 C1722 1.327 . S
C1724 C1743 1.429 . S
C1724 H1748 0.950 . S
C1725 C1742 1.574 . S
C1725 C1744 1.368 . S
C1725 H1749 0.949 1_565 S
H1726 C1730 0.949 . S
C1727 C1728 1.329 1_545 S
C1727 C1729 1.323 1_545 S
C1727 H1750 0.973 . S
C1728 C1727 1.329 1_565 S
C1728 C1740 1.349 . S
C1729 C1727 1.323 1_565 S
C1729 C1745 1.471 . S
C1729 H1751 0.912 1_565 S
C1730 H1726 0.949 . S
C1730 C1738 1.574 . S
C1730 C1746 1.368 . S
H1731 C1739 0.950 . S
H1732 C1737 0.989 . S
H1733 C1738 0.949 . S
H1734 C1740 0.950 . S
H1735 C1741 0.950 . S
H1736 C1742 0.949 1_545 S
C1737 H1732 0.989 . S
C1737 C1739 1.327 . S
C1737 C1743 1.429 . S
C1738 C1730 1.574 . S
C1738 H1733 0.949 . S
C1738 C1744 1.368 . S
C1739 C1723 1.349 . S
C1739 H1731 0.950 . S
C1739 C1737 1.327 . S
C1740 C1728 1.349 . S
C1740 H1734 0.950 . S
C1740 C1741 1.327 . S
C1741 H1735 0.950 . S
C1741 C1740 1.327 . S
C1741 C1745 1.429 . S
C1742 C1725 1.574 . S
C1742 H1736 0.949 1_565 S
C1742 C1746 1.368 . S
C1743 C1724 1.429 . S
C1743 C1737 1.429 . S
C1743 C1744 1.523 . S
C1744 C1725 1.368 . S
C1744 C1738 1.368 . S
C1744 C1743 1.523 . S
C1745 C1729 1.471 . S
C1745 C1741 1.429 . S
C1745 C1746 1.523 . S
C1746 C1730 1.368 . S
C1746 C1742 1.368 . S
C1746 C1745 1.523 . S
H1747 C1722 0.950 . S
H1748 C1724 0.950 . S
H1749 C1725 0.949 1_545 S
H1750 C1727 0.973 . S
H1751 C1729 0.912 1_545 S
C1752 C1753 1.349 . S
C1752 C1754 1.327 . S
C1752 H1777 0.950 . S
C1753 C1752 1.349 . S
C1753 C1769 1.349 . S
C1754 C1752 1.327 . S
C1754 C1773 1.429 . S
C1754 H1778 0.950 . S
C1755 C1772 1.574 . S
C1755 C1774 1.368 . S
C1755 H1779 0.949 . S
H1756 C1760 0.949 . S
C1757 C1758 1.349 . S
C1757 C1759 1.327 . S
C1757 H1780 0.950 . S
C1758 C1757 1.349 . S
C1758 C1770 1.349 . S
C1759 C1757 1.327 . S
C1759 C1775 1.429 . S
C1759 H1781 0.950 . S
C1760 H1756 0.949 . S
C1760 C1768 1.574 . S
C1760 C1776 1.368 . S
H1761 C1769 0.950 . S
H1762 C1767 0.950 . S
H1763 C1768 0.949 . S
H1764 C1770 0.950 . S
H1765 C1771 0.950 . S
H1766 C1772 0.949 . S
C1767 H1762 0.950 . S
C1767 C1769 1.327 . S
C1767 C1773 1.429 . S
C1768 C1760 1.574 . S
C1768 H1763 0.949 . S
C1768 C1774 1.368 . S
C1769 C1753 1.349 . S
C1769 H1761 0.950 . S
C1769 C1767 1.327 . S
C1770 C1758 1.349 . S
C1770 H1764 0.950 . S
C1770 C1771 1.327 . S
C1771 H1765 0.950 . S
C1771 C1770 1.327 . S
C1771 C1775 1.429 . S
C1772 C1755 1.574 . S
C1772 H1766 0.949 . S
C1772 C1776 1.368 . S
C1773 C1754 1.429 . S
C1773 C1767 1.429 . S
C1773 C1774 1.523 . S
C1774 C1755 1.368 . S
C1774 C1768 1.368 . S
C1774 C1773 1.523 . S
C1775 C1759 1.429 . S
C1775 C1771 1.429 . S
C1775 C1776 1.523 . S
C1776 C1760 1.368 . S
C1776 C1772 1.368 . S
C1776 C1775 1.523 . S
H1777 C1752 0.950 . S
H1778 C1754 0.950 . S
H1779 C1755 0.949 . S
H1780 C1757 0.950 . S
H1781 C1759 0.950 . S
C1782 C1783 1.349 . S
C1782 C1784 1.327 . S
C1782 H1807 0.950 . S
C1783 C1782 1.349 . S
C1783 C1799 1.349 . S
C1784 C1782 1.327 . S
C1784 C1803 1.429 . S
C1784 H1808 0.950 . S
C1785 C1802 1.574 . S
C1785 C1804 1.368 . S
C1785 H1809 0.949 . S
H1786 C1790 0.949 . S
C1787 C1788 1.349 . S
C1787 C1789 1.327 . S
C1787 H1810 0.950 . S
C1788 C1787 1.349 . S
C1788 C1800 1.349 . S
C1789 C1787 1.327 . S
C1789 C1805 1.429 . S
C1789 H1811 0.950 . S
C1790 H1786 0.949 . S
C1790 C1798 1.574 . S
C1790 C1806 1.368 . S
H1791 C1799 0.950 . S
H1792 C1797 0.950 . S
H1793 C1798 0.949 . S
H1794 C1800 0.950 . S
H1795 C1801 0.950 . S
H1796 C1802 0.949 . S
C1797 H1792 0.950 . S
C1797 C1799 1.327 . S
C1797 C1803 1.429 . S
C1798 C1790 1.574 . S
C1798 H1793 0.949 . S
C1798 C1804 1.368 . S
C1799 C1783 1.349 . S
C1799 H1791 0.950 . S
C1799 C1797 1.327 . S
C1800 C1788 1.349 . S
C1800 H1794 0.950 . S
C1800 C1801 1.327 . S
C1801 H1795 0.950 . S
C1801 C1800 1.327 . S
C1801 C1805 1.429 . S
C1802 C1785 1.574 . S
C1802 H1796 0.949 . S
C1802 C1806 1.368 . S
C1803 C1784 1.429 . S
C1803 C1797 1.429 . S
C1803 C1804 1.523 . S
C1804 C1785 1.368 . S
C1804 C1798 1.368 . S
C1804 C1803 1.523 . S
C1805 C1789 1.429 . S
C1805 C1801 1.429 . S
C1805 C1806 1.523 . S
C1806 C1790 1.368 . S
C1806 C1802 1.368 . S
C1806 C1805 1.523 . S
H1807 C1782 0.950 . S
H1808 C1784 0.950 . S
H1809 C1785 0.949 . S
H1810 C1787 0.950 . S
H1811 C1789 0.950 . S
C1812 C1813 1.349 . S
C1812 C1814 1.327 . S
C1812 H1837 0.950 . S
C1813 C1812 1.349 . S
C1813 C1829 1.349 . S
C1814 C1812 1.327 . S
C1814 C1833 1.429 . S
C1814 H1838 0.950 . S
C1815 C1832 1.574 . S
C1815 C1834 1.368 . S
C1815 H1839 0.949 . S
H1816 C1820 0.949 . S
C1817 C1818 1.349 . S
C1817 C1819 1.327 . S
C1817 H1840 0.950 . S
C1818 C1817 1.349 . S
C1818 C1830 1.349 . S
C1819 C1817 1.327 . S
C1819 C1835 1.429 . S
C1819 H1841 0.950 . S
C1820 H1816 0.949 . S
C1820 C1828 1.574 . S
C1820 C1836 1.368 . S
H1821 C1829 0.950 . S
H1822 C1827 0.950 . S
H1823 C1828 0.949 . S
H1824 C1830 0.950 . S
H1825 C1831 0.950 . S
H1826 C1832 0.949 . S
C1827 H1822 0.950 . S
C1827 C1829 1.327 . S
C1827 C1833 1.429 . S
C1828 C1820 1.574 . S
C1828 H1823 0.949 . S
C1828 C1834 1.368 . S
C1829 C1813 1.349 . S
C1829 H1821 0.950 . S
C1829 C1827 1.327 . S
C1830 C1818 1.349 . S
C1830 H1824 0.950 . S
C1830 C1831 1.327 . S
C1831 H1825 0.950 . S
C1831 C1830 1.327 . S
C1831 C1835 1.429 . S
C1832 C1815 1.574 . S
C1832 H1826 0.949 . S
C1832 C1836 1.368 . S
C1833 C1814 1.429 . S
C1833 C1827 1.429 . S
C1833 C1834 1.523 . S
C1834 C1815 1.368 . S
C1834 C1828 1.368 . S
C1834 C1833 1.523 . S
C1835 C1819 1.429 . S
C1835 C1831 1.429 . S
C1835 C1836 1.523 . S
C1836 C1820 1.368 . S
C1836 C1832 1.368 . S
C1836 C1835 1.523 . S
H1837 C1812 0.950 . S
H1838 C1814 0.950 . S
H1839 C1815 0.949 . S
H1840 C1817 0.950 . S
H1841 C1819 0.950 . S
C1842 C1843 1.349 . S
C1842 C1844 1.327 . S
C1842 H1867 0.950 . S
C1843 C1842 1.349 . S
C1843 C1859 1.349 . S
C1844 C1842 1.327 . S
C1844 C1863 1.429 . S
C1844 H1868 0.950 . S
C1845 C1862 1.574 . S
C1845 C1864 1.368 . S
C1845 H1869 0.949 . S
H1846 C1850 0.949 1_545 S
C1847 C1848 1.349 . S
C1847 C1849 1.327 . S
C1847 H1870 0.950 . S
C1848 C1847 1.349 . S
C1848 C1860 1.368 . S
C1849 C1847 1.327 . S
C1849 C1865 1.429 . S
C1849 H1871 0.950 . S
C1850 H1846 0.949 1_565 S
C1850 C1858 1.574 . S
C1850 C1866 1.368 . S
H1851 C1859 0.950 . S
H1852 C1857 0.950 . S
H1853 C1858 0.931 1_545 S
H1854 C1860 0.928 1_545 S
H1855 C1861 0.950 1_545 S
H1856 C1862 0.949 . S
C1857 H1852 0.950 . S
C1857 C1859 1.327 . S
C1857 C1863 1.429 . S
C1858 C1850 1.574 . S
C1858 H1853 0.931 1_565 S
C1858 C1864 1.368 . S
C1859 C1843 1.349 . S
C1859 H1851 0.950 . S
C1859 C1857 1.327 . S
C1860 C1848 1.368 . S
C1860 H1854 0.928 1_565 S
C1860 C1861 1.330 . S
C1861 H1855 0.950 1_565 S
C1861 C1860 1.330 . S
C1861 C1865 1.429 . S
C1862 C1845 1.574 . S
C1862 H1856 0.949 . S
C1862 C1866 1.368 . S
C1863 C1844 1.429 . S
C1863 C1857 1.429 . S
C1863 C1864 1.523 . S
C1864 C1845 1.368 . S
C1864 C1858 1.368 . S
C1864 C1863 1.523 . S
C1865 C1849 1.429 . S
C1865 C1861 1.429 . S
C1865 C1866 1.523 . S
C1866 C1850 1.368 . S
C1866 C1862 1.368 . S
C1866 C1865 1.523 . S
H1867 C1842 0.950 . S
H1868 C1844 0.950 . S
H1869 C1845 0.949 . S
H1870 C1847 0.950 . S
H1871 C1849 0.950 . S
C1872 C1873 1.349 . S
C1872 C1874 1.327 . S
C1872 H1897 0.950 . S
C1873 C1872 1.349 . S
C1873 C1889 1.349 . S
C1874 C1872 1.327 . S
C1874 C1893 1.429 . S
C1874 H1898 0.950 . S
C1875 C1892 1.574 . S
C1875 C1894 1.368 . S
C1875 H1899 0.949 . S
H1876 C1880 0.949 . S
C1877 C1878 1.349 . S
C1877 C1879 1.327 . S
C1877 H1900 0.950 . S
C1878 C1877 1.349 . S
C1878 C1890 1.349 . S
C1879 C1877 1.327 . S
C1879 C1895 1.429 . S
C1879 H1901 0.950 . S
C1880 H1876 0.949 . S
C1880 C1888 1.574 . S
C1880 C1896 1.368 . S
H1881 C1889 0.950 . S
H1882 C1887 0.950 . S
H1883 C1888 0.949 . S
H1884 C1890 0.950 . S
H1885 C1891 0.950 . S
H1886 C1892 0.949 . S
C1887 H1882 0.950 . S
C1887 C1889 1.327 . S
C1887 C1893 1.429 . S
C1888 C1880 1.574 . S
C1888 H1883 0.949 . S
C1888 C1894 1.368 . S
C1889 C1873 1.349 . S
C1889 H1881 0.950 . S
C1889 C1887 1.327 . S
C1890 C1878 1.349 . S
C1890 H1884 0.950 . S
C1890 C1891 1.327 . S
C1891 H1885 0.950 . S
C1891 C1890 1.327 . S
C1891 C1895 1.429 . S
C1892 C1875 1.574 . S
C1892 H1886 0.949 . S
C1892 C1896 1.368 . S
C1893 C1874 1.429 . S
C1893 C1887 1.429 . S
C1893 C1894 1.523 . S
C1894 C1875 1.368 . S
C1894 C1888 1.368 . S
C1894 C1893 1.523 . S
C1895 C1879 1.429 . S
C1895 C1891 1.429 . S
C1895 C1896 1.523 . S
C1896 C1880 1.368 . S
C1896 C1892 1.368 . S
C1896 C1895 1.523 . S
H1897 C1872 0.950 . S
H1898 C1874 0.950 . S
H1899 C1875 0.949 . S
H1900 C1877 0.950 . S
H1901 C1879 0.950 . S
C1902 C1903 1.349 . S
C1902 C1904 1.327 . S
C1902 H1927 0.950 . S
C1903 C1902 1.349 . S
C1903 C1919 1.349 . S
C1904 C1902 1.327 . S
C1904 C1923 1.429 . S
C1904 H1928 0.950 . S
C1905 C1922 1.574 . S
C1905 C1924 1.368 . S
C1905 H1929 0.949 . S
H1906 C1910 0.949 . S
C1907 C1908 1.349 . S
C1907 C1909 1.327 . S
C1907 H1930 0.950 . S
C1908 C1907 1.349 . S
C1908 C1920 1.349 . S
C1909 C1907 1.327 . S
C1909 C1925 1.429 . S
C1909 H1931 0.950 . S
C1910 H1906 0.949 . S
C1910 C1918 1.574 . S
C1910 C1926 1.368 . S
H1911 C1919 0.950 . S
H1912 C1917 0.950 . S
H1913 C1918 0.949 . S
H1914 C1920 0.950 . S
H1915 C1921 0.950 . S
H1916 C1922 0.949 . S
C1917 H1912 0.950 . S
C1917 C1919 1.327 . S
C1917 C1923 1.429 . S
C1918 C1910 1.574 . S
C1918 H1913 0.949 . S
C1918 C1924 1.368 . S
C1919 C1903 1.349 . S
C1919 H1911 0.950 . S
C1919 C1917 1.327 . S
C1920 C1908 1.349 . S
C1920 H1914 0.950 . S
C1920 C1921 1.327 . S
C1921 H1915 0.950 . S
C1921 C1920 1.327 . S
C1921 C1925 1.429 . S
C1922 C1905 1.574 . S
C1922 H1916 0.949 . S
C1922 C1926 1.368 . S
C1923 C1904 1.429 . S
C1923 C1917 1.429 . S
C1923 C1924 1.523 . S
C1924 C1905 1.368 . S
C1924 C1918 1.368 . S
C1924 C1923 1.523 . S
C1925 C1909 1.429 . S
C1925 C1921 1.429 . S
C1925 C1926 1.523 . S
C1926 C1910 1.368 . S
C1926 C1922 1.368 . S
C1926 C1925 1.523 . S
H1927 C1902 0.950 . S
H1928 C1904 0.950 . S
H1929 C1905 0.949 . S
H1930 C1907 0.950 . S
H1931 C1909 0.950 . S
C1932 C1933 1.349 . S
C1932 C1934 1.327 . S
C1932 H1957 0.950 . S
C1933 C1932 1.349 . S
C1933 C1949 1.349 . S
C1934 C1932 1.327 . S
C1934 C1953 1.429 . S
C1934 H1958 0.950 . S
C1935 C1952 1.574 . S
C1935 C1954 1.368 . S
C1935 H1959 0.949 . S
H1936 C1940 0.949 . S
C1937 C1938 1.349 . S
C1937 C1939 1.327 . S
C1937 H1960 0.950 . S
C1938 C1937 1.349 . S
C1938 C1950 1.349 . S
C1939 C1937 1.327 . S
C1939 C1955 1.429 . S
C1939 H1961 0.950 . S
C1940 H1936 0.949 . S
C1940 C1948 1.574 . S
C1940 C1956 1.368 . S
H1941 C1949 0.950 . S
H1942 C1947 0.950 . S
H1943 C1948 0.949 . S
H1944 C1950 0.950 . S
H1945 C1951 0.950 . S
H1946 C1952 0.949 . S
C1947 H1942 0.950 . S
C1947 C1949 1.327 . S
C1947 C1953 1.429 . S
C1948 C1940 1.574 . S
C1948 H1943 0.949 . S
C1948 C1954 1.368 . S
C1949 C1933 1.349 . S
C1949 H1941 0.950 . S
C1949 C1947 1.327 . S
C1950 C1938 1.349 . S
C1950 H1944 0.950 . S
C1950 C1951 1.327 . S
C1951 H1945 0.950 . S
C1951 C1950 1.327 . S
C1951 C1955 1.429 . S
C1952 C1935 1.574 . S
C1952 H1946 0.949 . S
C1952 C1956 1.368 . S
C1953 C1934 1.429 . S
C1953 C1947 1.429 . S
C1953 C1954 1.523 . S
C1954 C1935 1.368 . S
C1954 C1948 1.368 . S
C1954 C1953 1.523 . S
C1955 C1939 1.429 . S
C1955 C1951 1.429 . S
C1955 C1956 1.523 . S
C1956 C1940 1.368 . S
C1956 C1952 1.368 . S
C1956 C1955 1.523 . S
H1957 C1932 0.950 . S
H1958 C1934 0.950 . S
H1959 C1935 0.949 . S
H1960 C1937 0.950 . S
H1961 C1939 0.950 . S
C1962 C1963 1.349 . S
C1962 C1964 1.327 . S
C1962 H1987 0.950 . S
C1963 C1962 1.349 . S
C1963 C1979 1.349 . S
C1964 C1962 1.327 . S
C1964 C1983 1.429 . S
C1964 H1988 0.950 . S
C1965 C1982 1.574 . S
C1965 C1984 1.368 . S
C1965 H1989 0.949 . S
H1966 C1970 0.949 . S
C1967 C1968 1.349 . S
C1967 C1969 1.327 . S
C1967 H1990 0.950 . S
C1968 C1967 1.349 . S
C1968 C1980 1.349 . S
C1969 C1967 1.327 . S
C1969 C1985 1.429 . S
C1969 H1991 0.950 . S
C1970 H1966 0.949 . S
C1970 C1978 1.574 . S
C1970 C1986 1.368 . S
H1971 C1979 0.950 . S
H1972 C1977 0.950 . S
H1973 C1978 0.949 . S
H1974 C1980 0.950 . S
H1975 C1981 0.950 . S
H1976 C1982 0.949 . S
C1977 H1972 0.950 . S
C1977 C1979 1.327 . S
C1977 C1983 1.429 . S
C1978 C1970 1.574 . S
C1978 H1973 0.949 . S
C1978 C1984 1.368 . S
C1979 C1963 1.349 . S
C1979 H1971 0.950 . S
C1979 C1977 1.327 . S
C1980 C1968 1.349 . S
C1980 H1974 0.950 . S
C1980 C1981 1.327 . S
C1981 H1975 0.950 . S
C1981 C1980 1.327 . S
C1981 C1985 1.429 . S
C1982 C1965 1.574 . S
C1982 H1976 0.949 . S
C1982 C1986 1.368 . S
C1983 C1964 1.429 . S
C1983 C1977 1.429 . S
C1983 C1984 1.523 . S
C1984 C1965 1.368 . S
C1984 C1978 1.368 . S
C1984 C1983 1.523 . S
C1985 C1969 1.429 . S
C1985 C1981 1.429 . S
C1985 C1986 1.523 . S
C1986 C1970 1.368 . S
C1986 C1982 1.368 . S
C1986 C1985 1.523 . S
H1987 C1962 0.950 . S
H1988 C1964 0.950 . S
H1989 C1965 0.949 . S
H1990 C1967 0.950 . S
H1991 C1969 0.950 . S
C1992 C1993 1.349 . S
C1992 C1994 1.327 . S
C1992 H2017 0.950 . S
C1993 C1992 1.349 . S
C1993 C2009 1.349 . S
C1994 C1992 1.327 . S
C1994 C2013 1.429 . S
C1994 H2018 0.950 . S
C1995 C2012 1.574 . S
C1995 C2014 1.368 . S
C1995 H2019 0.949 . S
H1996 C2000 0.949 . S
C1997 C1998 1.349 . S
C1997 C1999 1.327 . S
C1997 H2020 0.950 . S
C1998 C1997 1.349 . S
C1998 C2010 1.349 . S
C1999 C1997 1.327 . S
C1999 C2015 1.429 . S
C1999 H2021 0.950 . S
C2000 H1996 0.949 . S
C2000 C2008 1.574 . S
C2000 C2016 1.368 . S
H2001 C2009 0.950 . S
H2002 C2007 0.950 . S
H2003 C2008 0.949 . S
H2004 C2010 0.950 . S
H2005 C2011 0.950 . S
H2006 C2012 0.949 . S
C2007 H2002 0.950 . S
C2007 C2009 1.327 . S
C2007 C2013 1.429 . S
C2008 C2000 1.574 . S
C2008 H2003 0.949 . S
C2008 C2014 1.368 . S
C2009 C1993 1.349 . S
C2009 H2001 0.950 . S
C2009 C2007 1.327 . S
C2010 C1998 1.349 . S
C2010 H2004 0.950 . S
C2010 C2011 1.327 . S
C2011 H2005 0.950 . S
C2011 C2010 1.327 . S
C2011 C2015 1.429 . S
C2012 C1995 1.574 . S
C2012 H2006 0.949 . S
C2012 C2016 1.368 . S
C2013 C1994 1.429 . S
C2013 C2007 1.429 . S
C2013 C2014 1.523 . S
C2014 C1995 1.368 . S
C2014 C2008 1.368 . S
C2014 C2013 1.523 . S
C2015 C1999 1.429 . S
C2015 C2011 1.429 . S
C2015 C2016 1.523 . S
C2016 C2000 1.368 . S
C2016 C2012 1.368 . S
C2016 C2015 1.523 . S
H2017 C1992 0.950 . S
H2018 C1994 0.950 . S
H2019 C1995 0.949 . S
H2020 C1997 0.950 . S
H2021 C1999 0.950 . S
C2022 C2023 1.349 . S
C2022 C2024 1.327 . S
C2022 H2047 0.950 . S
C2023 C2022 1.349 . S
C2023 C2039 1.349 . S
C2024 C2022 1.327 . S
C2024 C2043 1.429 . S
C2024 H2048 0.950 . S
C2025 C2042 1.574 . S
C2025 C2044 1.368 . S
C2025 H2049 0.949 1_455 S
H2026 C2030 0.949 . S
C2027 C2028 1.321 1_655 S
C2027 C2029 1.323 1_655 S
C2027 H2050 0.982 . S
C2028 C2027 1.321 1_455 S
C2028 C2040 1.349 . S
C2029 C2027 1.323 1_455 S
C2029 C2045 1.466 . S
C2029 H2051 0.915 1_455 S
C2030 H2026 0.949 . S
C2030 C2038 1.574 . S
C2030 C2046 1.368 . S
H2031 C2039 0.950 . S
H2032 C2037 0.903 1_655 S
H2033 C2038 0.949 . S
H2034 C2040 0.950 . S
H2035 C2041 0.950 . S
H2036 C2042 0.949 1_655 S
C2037 H2032 0.903 1_455 S
C2037 C2039 1.327 . S
C2037 C2043 1.429 . S
C2038 C2030 1.574 . S
C2038 H2033 0.949 . S
C2038 C2044 1.368 . S
C2039 C2023 1.349 . S
C2039 H2031 0.950 . S
C2039 C2037 1.327 . S
C2040 C2028 1.349 . S
C2040 H2034 0.950 . S
C2040 C2041 1.327 . S
C2041 H2035 0.950 . S
C2041 C2040 1.327 . S
C2041 C2045 1.429 . S
C2042 C2025 1.574 . S
C2042 H2036 0.949 1_455 S
C2042 C2046 1.368 . S
C2043 C2024 1.429 . S
C2043 C2037 1.429 . S
C2043 C2044 1.523 . S
C2044 C2025 1.368 . S
C2044 C2038 1.368 . S
C2044 C2043 1.523 . S
C2045 C2029 1.466 . S
C2045 C2041 1.429 . S
C2045 C2046 1.523 . S
C2046 C2030 1.368 . S
C2046 C2042 1.368 . S
C2046 C2045 1.523 . S
H2047 C2022 0.950 . S
H2048 C2024 0.950 . S
H2049 C2025 0.949 1_655 S
H2050 C2027 0.982 . S
H2051 C2029 0.915 1_655 S
C2052 C2053 1.349 . S
C2052 C2054 1.327 . S
C2052 H2077 0.950 . S
C2053 C2052 1.349 . S
C2053 C2069 1.349 . S
C2054 C2052 1.327 . S
C2054 C2073 1.429 . S
C2054 H2078 0.950 . S
C2055 C2072 1.574 . S
C2055 C2074 1.368 . S
C2055 H2079 0.949 . S
H2056 C2060 0.949 . S
C2057 C2058 1.349 . S
C2057 C2059 1.327 . S
C2057 H2080 0.950 . S
C2058 C2057 1.349 . S
C2058 C2070 1.349 . S
C2059 C2057 1.327 . S
C2059 C2075 1.429 . S
C2059 H2081 0.950 . S
C2060 H2056 0.949 . S
C2060 C2068 1.574 . S
C2060 C2076 1.368 . S
H2061 C2069 0.950 . S
H2062 C2067 0.950 . S
H2063 C2068 0.949 . S
H2064 C2070 0.950 . S
H2065 C2071 0.950 . S
H2066 C2072 0.949 . S
C2067 H2062 0.950 . S
C2067 C2069 1.327 . S
C2067 C2073 1.429 . S
C2068 C2060 1.574 . S
C2068 H2063 0.949 . S
C2068 C2074 1.368 . S
C2069 C2053 1.349 . S
C2069 H2061 0.950 . S
C2069 C2067 1.327 . S
C2070 C2058 1.349 . S
C2070 H2064 0.950 . S
C2070 C2071 1.327 . S
C2071 H2065 0.950 . S
C2071 C2070 1.327 . S
C2071 C2075 1.429 . S
C2072 C2055 1.574 . S
C2072 H2066 0.949 . S
C2072 C2076 1.368 . S
C2073 C2054 1.429 . S
C2073 C2067 1.429 . S
C2073 C2074 1.523 . S
C2074 C2055 1.368 . S
C2074 C2068 1.368 . S
C2074 C2073 1.523 . S
C2075 C2059 1.429 . S
C2075 C2071 1.429 . S
C2075 C2076 1.523 . S
C2076 C2060 1.368 . S
C2076 C2072 1.368 . S
C2076 C2075 1.523 . S
H2077 C2052 0.950 . S
H2078 C2054 0.950 . S
H2079 C2055 0.949 . S
H2080 C2057 0.950 . S
H2081 C2059 0.950 . S
C2082 C2083 1.349 . S
C2082 C2084 1.327 . S
C2082 H2107 0.950 . S
C2083 C2082 1.349 . S
C2083 C2099 1.349 . S
C2084 C2082 1.327 . S
C2084 C2103 1.429 . S
C2084 H2108 0.950 . S
C2085 C2102 1.574 . S
C2085 C2104 1.368 . S
C2085 H2109 0.949 . S
H2086 C2090 0.949 . S
C2087 C2088 1.349 . S
C2087 C2089 1.327 . S
C2087 H2110 0.950 . S
C2088 C2087 1.349 . S
C2088 C2100 1.349 . S
C2089 C2087 1.327 . S
C2089 C2105 1.429 . S
C2089 H2111 0.950 . S
C2090 H2086 0.949 . S
C2090 C2098 1.574 . S
C2090 C2106 1.368 . S
H2091 C2099 0.950 . S
H2092 C2097 0.950 . S
H2093 C2098 0.949 . S
H2094 C2100 0.950 . S
H2095 C2101 0.950 . S
H2096 C2102 0.949 . S
C2097 H2092 0.950 . S
C2097 C2099 1.327 . S
C2097 C2103 1.429 . S
C2098 C2090 1.574 . S
C2098 H2093 0.949 . S
C2098 C2104 1.368 . S
C2099 C2083 1.349 . S
C2099 H2091 0.950 . S
C2099 C2097 1.327 . S
C2100 C2088 1.349 . S
C2100 H2094 0.950 . S
C2100 C2101 1.327 . S
C2101 H2095 0.950 . S
C2101 C2100 1.327 . S
C2101 C2105 1.429 . S
C2102 C2085 1.574 . S
C2102 H2096 0.949 . S
C2102 C2106 1.368 . S
C2103 C2084 1.429 . S
C2103 C2097 1.429 . S
C2103 C2104 1.523 . S
C2104 C2085 1.368 . S
C2104 C2098 1.368 . S
C2104 C2103 1.523 . S
C2105 C2089 1.429 . S
C2105 C2101 1.429 . S
C2105 C2106 1.523 . S
C2106 C2090 1.368 . S
C2106 C2102 1.368 . S
C2106 C2105 1.523 . S
H2107 C2082 0.950 . S
H2108 C2084 0.950 . S
H2109 C2085 0.949 . S
H2110 C2087 0.950 . S
H2111 C2089 0.950 . S
C2112 C2113 1.349 . S
C2112 C2114 1.327 . S
C2112 H2137 0.950 . S
C2113 C2112 1.349 . S
C2113 C2129 1.349 . S
C2114 C2112 1.327 . S
C2114 C2133 1.429 . S
C2114 H2138 0.950 . S
C2115 C2132 1.574 . S
C2115 C2134 1.368 . S
C2115 H2139 0.949 . S
H2116 C2120 0.949 . S
C2117 C2118 1.349 . S
C2117 C2119 1.327 . S
C2117 H2140 0.950 . S
C2118 C2117 1.349 . S
C2118 C2130 1.349 . S
C2119 C2117 1.327 . S
C2119 C2135 1.429 . S
C2119 H2141 0.950 . S
C2120 H2116 0.949 . S
C2120 C2128 1.574 . S
C2120 C2136 1.368 . S
H2121 C2129 0.950 . S
H2122 C2127 0.950 . S
H2123 C2128 0.949 . S
H2124 C2130 0.950 . S
H2125 C2131 0.950 . S
H2126 C2132 0.949 . S
C2127 H2122 0.950 . S
C2127 C2129 1.327 . S
C2127 C2133 1.429 . S
C2128 C2120 1.574 . S
C2128 H2123 0.949 . S
C2128 C2134 1.368 . S
C2129 C2113 1.349 . S
C2129 H2121 0.950 . S
C2129 C2127 1.327 . S
C2130 C2118 1.349 . S
C2130 H2124 0.950 . S
C2130 C2131 1.327 . S
C2131 H2125 0.950 . S
C2131 C2130 1.327 . S
C2131 C2135 1.429 . S
C2132 C2115 1.574 . S
C2132 H2126 0.949 . S
C2132 C2136 1.368 . S
C2133 C2114 1.429 . S
C2133 C2127 1.429 . S
C2133 C2134 1.523 . S
C2134 C2115 1.368 . S
C2134 C2128 1.368 . S
C2134 C2133 1.523 . S
C2135 C2119 1.429 . S
C2135 C2131 1.429 . S
C2135 C2136 1.523 . S
C2136 C2120 1.368 . S
C2136 C2132 1.368 . S
C2136 C2135 1.523 . S
H2137 C2112 0.950 . S
H2138 C2114 0.950 . S
H2139 C2115 0.949 . S
H2140 C2117 0.950 . S
H2141 C2119 0.950 . S
C2142 C2143 1.349 . S
C2142 C2144 1.327 . S
C2142 H2167 0.950 . S
C2143 C2142 1.349 . S
C2143 C2159 1.349 . S
C2144 C2142 1.327 . S
C2144 C2163 1.429 . S
C2144 H2168 0.950 . S
C2145 C2162 1.574 . S
C2145 C2164 1.368 . S
C2145 H2169 0.949 . S
H2146 C2150 0.949 . S
C2147 C2148 1.349 . S
C2147 C2149 1.327 . S
C2147 H2170 0.950 . S
C2148 C2147 1.349 . S
C2148 C2160 1.349 . S
C2149 C2147 1.327 . S
C2149 C2165 1.429 . S
C2149 H2171 0.950 . S
C2150 H2146 0.949 . S
C2150 C2158 1.574 . S
C2150 C2166 1.368 . S
H2151 C2159 0.950 . S
H2152 C2157 0.950 . S
H2153 C2158 0.949 . S
H2154 C2160 0.950 . S
H2155 C2161 0.950 . S
H2156 C2162 0.949 . S
C2157 H2152 0.950 . S
C2157 C2159 1.327 . S
C2157 C2163 1.429 . S
C2158 C2150 1.574 . S
C2158 H2153 0.949 . S
C2158 C2164 1.368 . S
C2159 C2143 1.349 . S
C2159 H2151 0.950 . S
C2159 C2157 1.327 . S
C2160 C2148 1.349 . S
C2160 H2154 0.950 . S
C2160 C2161 1.327 . S
C2161 H2155 0.950 . S
C2161 C2160 1.327 . S
C2161 C2165 1.429 . S
C2162 C2145 1.574 . S
C2162 H2156 0.949 . S
C2162 C2166 1.368 . S
C2163 C2144 1.429 . S
C2163 C2157 1.429 . S
C2163 C2164 1.523 . S
C2164 C2145 1.368 . S
C2164 C2158 1.368 . S
C2164 C2163 1.523 . S
C2165 C2149 1.429 . S
C2165 C2161 1.429 . S
C2165 C2166 1.523 . S
C2166 C2150 1.368 . S
C2166 C2162 1.368 . S
C2166 C2165 1.523 . S
H2167 C2142 0.950 . S
H2168 C2144 0.950 . S
H2169 C2145 0.949 . S
H2170 C2147 0.950 . S
H2171 C2149 0.950 . S
C2172 C2173 1.349 . S
C2172 C2174 1.327 . S
C2172 H2197 0.950 . S
C2173 C2172 1.349 . S
C2173 C2189 1.349 . S
C2174 C2172 1.327 . S
C2174 C2193 1.429 . S
C2174 H2198 0.950 . S
C2175 C2192 1.574 . S
C2175 C2194 1.368 . S
C2175 H2199 0.949 . S
H2176 C2180 0.949 1_554 S
C2177 C2178 1.349 . S
C2177 C2179 1.327 . S
C2177 H2200 0.950 . S
C2178 C2177 1.349 . S
C2178 C2190 1.369 . S
C2179 C2177 1.327 . S
C2179 C2195 1.429 . S
C2179 H2201 0.950 . S
C2180 H2176 0.949 1_556 S
C2180 C2188 1.574 . S
C2180 C2196 1.368 . S
H2181 C2189 0.950 . S
H2182 C2187 0.950 . S
H2183 C2188 0.953 1_554 S
H2184 C2190 0.927 1_554 S
H2185 C2191 0.950 1_554 S
H2186 C2192 0.949 . S
C2187 H2182 0.950 . S
C2187 C2189 1.327 . S
C2187 C2193 1.429 . S
C2188 C2180 1.574 . S
C2188 H2183 0.953 1_556 S
C2188 C2194 1.368 . S
C2189 C2173 1.349 . S
C2189 H2181 0.950 . S
C2189 C2187 1.327 . S
C2190 C2178 1.369 . S
C2190 H2184 0.927 1_556 S
C2190 C2191 1.330 . S
C2191 H2185 0.950 1_556 S
C2191 C2190 1.330 . S
C2191 C2195 1.429 . S
C2192 C2175 1.574 . S
C2192 H2186 0.949 . S
C2192 C2196 1.368 . S
C2193 C2174 1.429 . S
C2193 C2187 1.429 . S
C2193 C2194 1.523 . S
C2194 C2175 1.368 . S
C2194 C2188 1.368 . S
C2194 C2193 1.523 . S
C2195 C2179 1.429 . S
C2195 C2191 1.429 . S
C2195 C2196 1.523 . S
C2196 C2180 1.368 . S
C2196 C2192 1.368 . S
C2196 C2195 1.523 . S
H2197 C2172 0.950 . S
H2198 C2174 0.950 . S
H2199 C2175 0.949 . S
H2200 C2177 0.950 . S
H2201 C2179 0.950 . S
C2202 C2203 1.349 . S
C2202 C2204 1.327 . S
C2202 H2227 0.950 . S
C2203 C2202 1.349 . S
C2203 C2219 1.349 . S
C2204 C2202 1.327 . S
C2204 C2223 1.429 . S
C2204 H2228 0.950 . S
C2205 C2222 1.574 . S
C2205 C2224 1.368 . S
C2205 H2229 0.949 . S
H2206 C2210 0.949 . S
C2207 C2208 1.349 . S
C2207 C2209 1.327 . S
C2207 H2230 0.950 . S
C2208 C2207 1.349 . S
C2208 C2220 1.349 . S
C2209 C2207 1.327 . S
C2209 C2225 1.429 . S
C2209 H2231 0.950 . S
C2210 H2206 0.949 . S
C2210 C2218 1.574 . S
C2210 C2226 1.368 . S
H2211 C2219 0.950 . S
H2212 C2217 0.950 . S
H2213 C2218 0.949 . S
H2214 C2220 0.950 . S
H2215 C2221 0.950 . S
H2216 C2222 0.949 . S
C2217 H2212 0.950 . S
C2217 C2219 1.327 . S
C2217 C2223 1.429 . S
C2218 C2210 1.574 . S
C2218 H2213 0.949 . S
C2218 C2224 1.368 . S
C2219 C2203 1.349 . S
C2219 H2211 0.950 . S
C2219 C2217 1.327 . S
C2220 C2208 1.349 . S
C2220 H2214 0.950 . S
C2220 C2221 1.327 . S
C2221 H2215 0.950 . S
C2221 C2220 1.327 . S
C2221 C2225 1.429 . S
C2222 C2205 1.574 . S
C2222 H2216 0.949 . S
C2222 C2226 1.368 . S
C2223 C2204 1.429 . S
C2223 C2217 1.429 . S
C2223 C2224 1.523 . S
C2224 C2205 1.368 . S
C2224 C2218 1.368 . S
C2224 C2223 1.523 . S
C2225 C2209 1.429 . S
C2225 C2221 1.429 . S
C2225 C2226 1.523 . S
C2226 C2210 1.368 . S
C2226 C2222 1.368 . S
C2226 C2225 1.523 . S
H2227 C2202 0.950 . S
H2228 C2204 0.950 . S
H2229 C2205 0.949 . S
H2230 C2207 0.950 . S
H2231 C2209 0.950 . S
C2232 C2233 1.349 . S
C2232 C2234 1.327 . S
C2232 H2257 0.950 . S
C2233 C2232 1.349 . S
C2233 C2249 1.349 . S
C2234 C2232 1.327 . S
C2234 C2253 1.429 . S
C2234 H2258 0.950 . S
C2235 C2252 1.574 . S
C2235 C2254 1.368 . S
C2235 H2259 0.949 . S
H2236 C2240 0.949 . S
C2237 C2238 1.349 . S
C2237 C2239 1.327 . S
C2237 H2260 0.950 . S
C2238 C2237 1.349 . S
C2238 C2250 1.349 . S
C2239 C2237 1.327 . S
C2239 C2255 1.429 . S
C2239 H2261 0.950 . S
C2240 H2236 0.949 . S
C2240 C2248 1.574 . S
C2240 C2256 1.368 . S
H2241 C2249 0.950 . S
H2242 C2247 0.950 . S
H2243 C2248 0.949 . S
H2244 C2250 0.950 . S
H2245 C2251 0.950 . S
H2246 C2252 0.949 . S
C2247 H2242 0.950 . S
C2247 C2249 1.327 . S
C2247 C2253 1.429 . S
C2248 C2240 1.574 . S
C2248 H2243 0.949 . S
C2248 C2254 1.368 . S
C2249 C2233 1.349 . S
C2249 H2241 0.950 . S
C2249 C2247 1.327 . S
C2250 C2238 1.349 . S
C2250 H2244 0.950 . S
C2250 C2251 1.327 . S
C2251 H2245 0.950 . S
C2251 C2250 1.327 . S
C2251 C2255 1.429 . S
C2252 C2235 1.574 . S
C2252 H2246 0.949 . S
C2252 C2256 1.368 . S
C2253 C2234 1.429 . S
C2253 C2247 1.429 . S
C2253 C2254 1.523 . S
C2254 C2235 1.368 . S
C2254 C2248 1.368 . S
C2254 C2253 1.523 . S
C2255 C2239 1.429 . S
C2255 C2251 1.429 . S
C2255 C2256 1.523 . S
C2256 C2240 1.368 . S
C2256 C2252 1.368 . S
C2256 C2255 1.523 . S
H2257 C2232 0.950 . S
H2258 C2234 0.950 . S
H2259 C2235 0.949 . S
H2260 C2237 0.950 . S
H2261 C2239 0.950 . S
C2262 C2263 1.349 . S
C2262 C2264 1.327 . S
C2262 H2287 0.950 . S
C2263 C2262 1.349 . S
C2263 C2279 1.349 . S
C2264 C2262 1.327 . S
C2264 C2283 1.429 . S
C2264 H2288 0.950 . S
C2265 C2282 1.574 . S
C2265 C2284 1.368 . S
C2265 H2289 0.949 . S
H2266 C2270 0.949 . S
C2267 C2268 1.349 . S
C2267 C2269 1.327 . S
C2267 H2290 0.950 . S
C2268 C2267 1.349 . S
C2268 C2280 1.349 . S
C2269 C2267 1.327 . S
C2269 C2285 1.429 . S
C2269 H2291 0.950 . S
C2270 H2266 0.949 . S
C2270 C2278 1.574 . S
C2270 C2286 1.368 . S
H2271 C2279 0.950 . S
H2272 C2277 0.950 . S
H2273 C2278 0.949 . S
H2274 C2280 0.950 . S
H2275 C2281 0.950 . S
H2276 C2282 0.949 . S
C2277 H2272 0.950 . S
C2277 C2279 1.327 . S
C2277 C2283 1.429 . S
C2278 C2270 1.574 . S
C2278 H2273 0.949 . S
C2278 C2284 1.368 . S
C2279 C2263 1.349 . S
C2279 H2271 0.950 . S
C2279 C2277 1.327 . S
C2280 C2268 1.349 . S
C2280 H2274 0.950 . S
C2280 C2281 1.327 . S
C2281 H2275 0.950 . S
C2281 C2280 1.327 . S
C2281 C2285 1.429 . S
C2282 C2265 1.574 . S
C2282 H2276 0.949 . S
C2282 C2286 1.368 . S
C2283 C2264 1.429 . S
C2283 C2277 1.429 . S
C2283 C2284 1.523 . S
C2284 C2265 1.368 . S
C2284 C2278 1.368 . S
C2284 C2283 1.523 . S
C2285 C2269 1.429 . S
C2285 C2281 1.429 . S
C2285 C2286 1.523 . S
C2286 C2270 1.368 . S
C2286 C2282 1.368 . S
C2286 C2285 1.523 . S
H2287 C2262 0.950 . S
H2288 C2264 0.950 . S
H2289 C2265 0.949 . S
H2290 C2267 0.950 . S
H2291 C2269 0.950 . S
C2292 C2293 1.349 . S
C2292 C2294 1.327 . S
C2292 H2317 0.950 . S
C2293 C2292 1.349 . S
C2293 C2309 1.349 . S
C2294 C2292 1.327 . S
C2294 C2313 1.429 . S
C2294 H2318 0.950 . S
C2295 C2312 1.574 . S
C2295 C2314 1.368 . S
C2295 H2319 0.949 . S
H2296 C2300 0.949 . S
C2297 C2298 1.349 . S
C2297 C2299 1.327 . S
C2297 H2320 0.950 . S
C2298 C2297 1.349 . S
C2298 C2310 1.349 . S
C2299 C2297 1.327 . S
C2299 C2315 1.429 . S
C2299 H2321 0.950 . S
C2300 H2296 0.949 . S
C2300 C2308 1.574 . S
C2300 C2316 1.368 . S
H2301 C2309 0.950 . S
H2302 C2307 0.950 . S
H2303 C2308 0.949 . S
H2304 C2310 0.950 . S
H2305 C2311 0.950 . S
H2306 C2312 0.949 . S
C2307 H2302 0.950 . S
C2307 C2309 1.327 . S
C2307 C2313 1.429 . S
C2308 C2300 1.574 . S
C2308 H2303 0.949 . S
C2308 C2314 1.368 . S
C2309 C2293 1.349 . S
C2309 H2301 0.950 . S
C2309 C2307 1.327 . S
C2310 C2298 1.349 . S
C2310 H2304 0.950 . S
C2310 C2311 1.327 . S
C2311 H2305 0.950 . S
C2311 C2310 1.327 . S
C2311 C2315 1.429 . S
C2312 C2295 1.574 . S
C2312 H2306 0.949 . S
C2312 C2316 1.368 . S
C2313 C2294 1.429 . S
C2313 C2307 1.429 . S
C2313 C2314 1.523 . S
C2314 C2295 1.368 . S
C2314 C2308 1.368 . S
C2314 C2313 1.523 . S
C2315 C2299 1.429 . S
C2315 C2311 1.429 . S
C2315 C2316 1.523 . S
C2316 C2300 1.368 . S
C2316 C2312 1.368 . S
C2316 C2315 1.523 . S
H2317 C2292 0.950 . S
H2318 C2294 0.950 . S
H2319 C2295 0.949 . S
H2320 C2297 0.950 . S
H2321 C2299 0.950 . S
C2322 C2323 1.349 . S
C2322 C2324 1.327 . S
C2322 H2347 0.950 . S
C2323 C2322 1.349 . S
C2323 C2339 1.349 . S
C2324 C2322 1.327 . S
C2324 C2343 1.429 . S
C2324 H2348 0.950 . S
C2325 C2342 1.574 . S
C2325 C2344 1.368 . S
C2325 H2349 0.949 . S
H2326 C2330 0.949 . S
C2327 C2328 1.349 . S
C2327 C2329 1.327 . S
C2327 H2350 0.950 . S
C2328 C2327 1.349 . S
C2328 C2340 1.349 . S
C2329 C2327 1.327 . S
C2329 C2345 1.429 . S
C2329 H2351 0.950 . S
C2330 H2326 0.949 . S
C2330 C2338 1.574 . S
C2330 C2346 1.368 . S
H2331 C2339 0.950 . S
H2332 C2337 0.950 . S
H2333 C2338 0.949 . S
H2334 C2340 0.950 . S
H2335 C2341 0.950 . S
H2336 C2342 0.949 . S
C2337 H2332 0.950 . S
C2337 C2339 1.327 . S
C2337 C2343 1.429 . S
C2338 C2330 1.574 . S
C2338 H2333 0.949 . S
C2338 C2344 1.368 . S
C2339 C2323 1.349 . S
C2339 H2331 0.950 . S
C2339 C2337 1.327 . S
C2340 C2328 1.349 . S
C2340 H2334 0.950 . S
C2340 C2341 1.327 . S
C2341 H2335 0.950 . S
C2341 C2340 1.327 . S
C2341 C2345 1.429 . S
C2342 C2325 1.574 . S
C2342 H2336 0.949 . S
C2342 C2346 1.368 . S
C2343 C2324 1.429 . S
C2343 C2337 1.429 . S
C2343 C2344 1.523 . S
C2344 C2325 1.368 . S
C2344 C2338 1.368 . S
C2344 C2343 1.523 . S
C2345 C2329 1.429 . S
C2345 C2341 1.429 . S
C2345 C2346 1.523 . S
C2346 C2330 1.368 . S
C2346 C2342 1.368 . S
C2346 C2345 1.523 . S
H2347 C2322 0.950 . S
H2348 C2324 0.950 . S
H2349 C2325 0.949 . S
H2350 C2327 0.950 . S
H2351 C2329 0.950 . S
C2352 C2353 1.349 . S
C2352 C2354 1.327 . S
C2352 H2377 0.950 . S
C2353 C2352 1.349 . S
C2353 C2369 1.349 . S
C2354 C2352 1.327 . S
C2354 C2373 1.429 . S
C2354 H2378 0.950 . S
C2355 C2372 1.574 . S
C2355 C2374 1.368 . S
C2355 H2379 0.949 . S
H2356 C2360 0.949 . S
C2357 C2358 1.349 . S
C2357 C2359 1.327 . S
C2357 H2380 0.950 . S
C2358 C2357 1.349 . S
C2358 C2370 1.349 . S
C2359 C2357 1.327 . S
C2359 C2375 1.429 . S
C2359 H2381 0.950 . S
C2360 H2356 0.949 . S
C2360 C2368 1.574 . S
C2360 C2376 1.368 . S
H2361 C2369 0.950 . S
H2362 C2367 0.950 . S
H2363 C2368 0.949 . S
H2364 C2370 0.950 . S
H2365 C2371 0.950 . S
H2366 C2372 0.949 . S
C2367 H2362 0.950 . S
C2367 C2369 1.327 . S
C2367 C2373 1.429 . S
C2368 C2360 1.574 . S
C2368 H2363 0.949 . S
C2368 C2374 1.368 . S
C2369 C2353 1.349 . S
C2369 H2361 0.950 . S
C2369 C2367 1.327 . S
C2370 C2358 1.349 . S
C2370 H2364 0.950 . S
C2370 C2371 1.327 . S
C2371 H2365 0.950 . S
C2371 C2370 1.327 . S
C2371 C2375 1.429 . S
C2372 C2355 1.574 . S
C2372 H2366 0.949 . S
C2372 C2376 1.368 . S
C2373 C2354 1.429 . S
C2373 C2367 1.429 . S
C2373 C2374 1.523 . S
C2374 C2355 1.368 . S
C2374 C2368 1.368 . S
C2374 C2373 1.523 . S
C2375 C2359 1.429 . S
C2375 C2371 1.429 . S
C2375 C2376 1.523 . S
C2376 C2360 1.368 . S
C2376 C2372 1.368 . S
C2376 C2375 1.523 . S
H2377 C2352 0.950 . S
H2378 C2354 0.950 . S
H2379 C2355 0.949 . S
H2380 C2357 0.950 . S
H2381 C2359 0.950 . S
C2382 C2383 1.349 . S
C2382 C2384 1.327 . S
C2382 H2407 0.950 . S
C2383 C2382 1.349 . S
C2383 C2399 1.349 . S
C2384 C2382 1.327 . S
C2384 C2403 1.429 . S
C2384 H2408 0.950 . S
C2385 C2402 1.574 . S
C2385 C2404 1.368 . S
C2385 H2409 0.949 1_545 S
H2386 C2390 0.949 . S
C2387 C2388 1.294 1_565 S
C2387 C2389 1.323 1_565 S
C2387 H2410 1.014 . S
C2388 C2387 1.294 1_545 S
C2388 C2400 1.349 . S
C2389 C2387 1.323 1_545 S
C2389 C2405 1.437 . S
C2389 H2411 0.942 1_545 S
C2390 H2386 0.949 . S
C2390 C2398 1.574 . S
C2390 C2406 1.368 . S
H2391 C2399 0.950 . S
H2392 C2397 0.912 1_565 S
H2393 C2398 0.949 . S
H2394 C2400 0.950 . S
H2395 C2401 0.950 . S
H2396 C2402 0.949 1_565 S
C2397 H2392 0.912 1_545 S
C2397 C2399 1.327 . S
C2397 C2403 1.429 . S
C2398 C2390 1.574 . S
C2398 H2393 0.949 . S
C2398 C2404 1.368 . S
C2399 C2383 1.349 . S
C2399 H2391 0.950 . S
C2399 C2397 1.327 . S
C2400 C2388 1.349 . S
C2400 H2394 0.950 . S
C2400 C2401 1.327 . S
C2401 H2395 0.950 . S
C2401 C2400 1.327 . S
C2401 C2405 1.429 . S
C2402 C2385 1.574 . S
C2402 H2396 0.949 1_545 S
C2402 C2406 1.368 . S
C2403 C2384 1.429 . S
C2403 C2397 1.429 . S
C2403 C2404 1.523 . S
C2404 C2385 1.368 . S
C2404 C2398 1.368 . S
C2404 C2403 1.523 . S
C2405 C2389 1.437 . S
C2405 C2401 1.429 . S
C2405 C2406 1.523 . S
C2406 C2390 1.368 . S
C2406 C2402 1.368 . S
C2406 C2405 1.523 . S
H2407 C2382 0.950 . S
H2408 C2384 0.950 . S
H2409 C2385 0.949 1_565 S
H2410 C2387 1.014 . S
H2411 C2389 0.942 1_565 S
C2412 C2413 1.349 . S
C2412 C2414 1.327 . S
C2412 H2437 0.950 . S
C2413 C2412 1.349 . S
C2413 C2429 1.349 . S
C2414 C2412 1.327 . S
C2414 C2433 1.429 . S
C2414 H2438 0.950 . S
C2415 C2432 1.574 . S
C2415 C2434 1.368 . S
C2415 H2439 0.949 . S
H2416 C2420 0.949 . S
C2417 C2418 1.349 . S
C2417 C2419 1.327 . S
C2417 H2440 0.950 . S
C2418 C2417 1.349 . S
C2418 C2430 1.349 . S
C2419 C2417 1.327 . S
C2419 C2435 1.429 . S
C2419 H2441 0.950 . S
C2420 H2416 0.949 . S
C2420 C2428 1.574 . S
C2420 C2436 1.368 . S
H2421 C2429 0.950 . S
H2422 C2427 0.950 . S
H2423 C2428 0.949 . S
H2424 C2430 0.950 . S
H2425 C2431 0.950 . S
H2426 C2432 0.949 . S
C2427 H2422 0.950 . S
C2427 C2429 1.327 . S
C2427 C2433 1.429 . S
C2428 C2420 1.574 . S
C2428 H2423 0.949 . S
C2428 C2434 1.368 . S
C2429 C2413 1.349 . S
C2429 H2421 0.950 . S
C2429 C2427 1.327 . S
C2430 C2418 1.349 . S
C2430 H2424 0.950 . S
C2430 C2431 1.327 . S
C2431 H2425 0.950 . S
C2431 C2430 1.327 . S
C2431 C2435 1.429 . S
C2432 C2415 1.574 . S
C2432 H2426 0.949 . S
C2432 C2436 1.368 . S
C2433 C2414 1.429 . S
C2433 C2427 1.429 . S
C2433 C2434 1.523 . S
C2434 C2415 1.368 . S
C2434 C2428 1.368 . S
C2434 C2433 1.523 . S
C2435 C2419 1.429 . S
C2435 C2431 1.429 . S
C2435 C2436 1.523 . S
C2436 C2420 1.368 . S
C2436 C2432 1.368 . S
C2436 C2435 1.523 . S
H2437 C2412 0.950 . S
H2438 C2414 0.950 . S
H2439 C2415 0.949 . S
H2440 C2417 0.950 . S
H2441 C2419 0.950 . S
C2442 C2443 1.349 . S
C2442 C2444 1.327 . S
C2442 H2467 0.950 . S
C2443 C2442 1.349 . S
C2443 C2459 1.349 . S
C2444 C2442 1.327 . S
C2444 C2463 1.429 . S
C2444 H2468 0.950 . S
C2445 C2462 1.574 . S
C2445 C2464 1.368 . S
C2445 H2469 0.949 . S
H2446 C2450 0.949 . S
C2447 C2448 1.349 . S
C2447 C2449 1.327 . S
C2447 H2470 0.950 . S
C2448 C2447 1.349 . S
C2448 C2460 1.349 . S
C2449 C2447 1.327 . S
C2449 C2465 1.429 . S
C2449 H2471 0.950 . S
C2450 H2446 0.949 . S
C2450 C2458 1.574 . S
C2450 C2466 1.368 . S
H2451 C2459 0.950 . S
H2452 C2457 0.950 . S
H2453 C2458 0.949 . S
H2454 C2460 0.950 . S
H2455 C2461 0.950 . S
H2456 C2462 0.949 . S
C2457 H2452 0.950 . S
C2457 C2459 1.327 . S
C2457 C2463 1.429 . S
C2458 C2450 1.574 . S
C2458 H2453 0.949 . S
C2458 C2464 1.368 . S
C2459 C2443 1.349 . S
C2459 H2451 0.950 . S
C2459 C2457 1.327 . S
C2460 C2448 1.349 . S
C2460 H2454 0.950 . S
C2460 C2461 1.327 . S
C2461 H2455 0.950 . S
C2461 C2460 1.327 . S
C2461 C2465 1.429 . S
C2462 C2445 1.574 . S
C2462 H2456 0.949 . S
C2462 C2466 1.368 . S
C2463 C2444 1.429 . S
C2463 C2457 1.429 . S
C2463 C2464 1.523 . S
C2464 C2445 1.368 . S
C2464 C2458 1.368 . S
C2464 C2463 1.523 . S
C2465 C2449 1.429 . S
C2465 C2461 1.429 . S
C2465 C2466 1.523 . S
C2466 C2450 1.368 . S
C2466 C2462 1.368 . S
C2466 C2465 1.523 . S
H2467 C2442 0.950 . S
H2468 C2444 0.950 . S
H2469 C2445 0.949 . S
H2470 C2447 0.950 . S
H2471 C2449 0.950 . S
C2472 C2473 1.349 . S
C2472 C2474 1.327 . S
C2472 H2497 0.950 . S
C2473 C2472 1.349 . S
C2473 C2489 1.349 . S
C2474 C2472 1.327 . S
C2474 C2493 1.429 . S
C2474 H2498 0.950 . S
C2475 C2492 1.574 . S
C2475 C2494 1.368 . S
C2475 H2499 0.949 . S
H2476 C2480 0.949 . S
C2477 C2478 1.349 . S
C2477 C2479 1.327 . S
C2477 H2500 0.950 . S
C2478 C2477 1.349 . S
C2478 C2490 1.349 . S
C2479 C2477 1.327 . S
C2479 C2495 1.429 . S
C2479 H2501 0.950 . S
C2480 H2476 0.949 . S
C2480 C2488 1.574 . S
C2480 C2496 1.368 . S
H2481 C2489 0.950 . S
H2482 C2487 0.950 . S
H2483 C2488 0.949 . S
H2484 C2490 0.950 . S
H2485 C2491 0.950 . S
H2486 C2492 0.949 . S
C2487 H2482 0.950 . S
C2487 C2489 1.327 . S
C2487 C2493 1.429 . S
C2488 C2480 1.574 . S
C2488 H2483 0.949 . S
C2488 C2494 1.368 . S
C2489 C2473 1.349 . S
C2489 H2481 0.950 . S
C2489 C2487 1.327 . S
C2490 C2478 1.349 . S
C2490 H2484 0.950 . S
C2490 C2491 1.327 . S
C2491 H2485 0.950 . S
C2491 C2490 1.327 . S
C2491 C2495 1.429 . S
C2492 C2475 1.574 . S
C2492 H2486 0.949 . S
C2492 C2496 1.368 . S
C2493 C2474 1.429 . S
C2493 C2487 1.429 . S
C2493 C2494 1.523 . S
C2494 C2475 1.368 . S
C2494 C2488 1.368 . S
C2494 C2493 1.523 . S
C2495 C2479 1.429 . S
C2495 C2491 1.429 . S
C2495 C2496 1.523 . S
C2496 C2480 1.368 . S
C2496 C2492 1.368 . S
C2496 C2495 1.523 . S
H2497 C2472 0.950 . S
H2498 C2474 0.950 . S
H2499 C2475 0.949 . S
H2500 C2477 0.950 . S
H2501 C2479 0.950 . S
C2502 C2503 1.349 . S
C2502 C2504 1.327 . S
C2502 H2527 0.950 . S
C2503 C2502 1.349 . S
C2503 C2519 1.349 . S
C2504 C2502 1.327 . S
C2504 C2523 1.429 . S
C2504 H2528 0.950 . S
C2505 C2522 1.574 . S
C2505 C2524 1.368 . S
C2505 H2529 0.949 1_545 S
H2506 C2510 0.949 . S
C2507 C2508 1.305 1_565 S
C2507 C2509 1.324 1_565 S
C2507 H2530 1.000 . S
C2508 C2507 1.305 1_545 S
C2508 C2520 1.349 . S
C2509 C2507 1.324 1_545 S
C2509 C2525 1.447 . S
C2509 H2531 0.933 1_545 S
C2510 H2506 0.949 . S
C2510 C2518 1.574 . S
C2510 C2526 1.368 . S
H2511 C2519 0.950 . S
H2512 C2517 0.875 1_565 S
H2513 C2518 0.949 . S
H2514 C2520 0.950 . S
H2515 C2521 0.950 . S
H2516 C2522 0.949 1_565 S
C2517 H2512 0.875 1_545 S
C2517 C2519 1.327 . S
C2517 C2523 1.429 . S
C2518 C2510 1.574 . S
C2518 H2513 0.949 . S
C2518 C2524 1.368 . S
C2519 C2503 1.349 . S
C2519 H2511 0.950 . S
C2519 C2517 1.327 . S
C2520 C2508 1.349 . S
C2520 H2514 0.950 . S
C2520 C2521 1.327 . S
C2521 H2515 0.950 . S
C2521 C2520 1.327 . S
C2521 C2525 1.429 . S
C2522 C2505 1.574 . S
C2522 H2516 0.949 1_545 S
C2522 C2526 1.368 . S
C2523 C2504 1.429 . S
C2523 C2517 1.429 . S
C2523 C2524 1.523 . S
C2524 C2505 1.368 . S
C2524 C2518 1.368 . S
C2524 C2523 1.523 . S
C2525 C2509 1.447 . S
C2525 C2521 1.429 . S
C2525 C2526 1.523 . S
C2526 C2510 1.368 . S
C2526 C2522 1.368 . S
C2526 C2525 1.523 . S
H2527 C2502 0.950 . S
H2528 C2504 0.950 . S
H2529 C2505 0.949 1_565 S
H2530 C2507 1.000 . S
H2531 C2509 0.933 1_565 S
C2532 C2533 1.349 . S
C2532 C2534 1.327 . S
C2532 H2557 0.950 . S
C2533 C2532 1.349 . S
C2533 C2549 1.349 . S
C2534 C2532 1.327 . S
C2534 C2553 1.429 . S
C2534 H2558 0.950 . S
C2535 C2552 1.574 . S
C2535 C2554 1.368 . S
C2535 H2559 0.949 . S
H2536 C2540 0.949 . S
C2537 C2538 1.349 . S
C2537 C2539 1.327 . S
C2537 H2560 0.950 . S
C2538 C2537 1.349 . S
C2538 C2550 1.349 . S
C2539 C2537 1.327 . S
C2539 C2555 1.429 . S
C2539 H2561 0.950 . S
C2540 H2536 0.949 . S
C2540 C2548 1.574 . S
C2540 C2556 1.368 . S
H2541 C2549 0.950 . S
H2542 C2547 0.950 . S
H2543 C2548 0.949 . S
H2544 C2550 0.950 . S
H2545 C2551 0.950 . S
H2546 C2552 0.949 . S
C2547 H2542 0.950 . S
C2547 C2549 1.327 . S
C2547 C2553 1.429 . S
C2548 C2540 1.574 . S
C2548 H2543 0.949 . S
C2548 C2554 1.368 . S
C2549 C2533 1.349 . S
C2549 H2541 0.950 . S
C2549 C2547 1.327 . S
C2550 C2538 1.349 . S
C2550 H2544 0.950 . S
C2550 C2551 1.327 . S
C2551 H2545 0.950 . S
C2551 C2550 1.327 . S
C2551 C2555 1.429 . S
C2552 C2535 1.574 . S
C2552 H2546 0.949 . S
C2552 C2556 1.368 . S
C2553 C2534 1.429 . S
C2553 C2547 1.429 . S
C2553 C2554 1.523 . S
C2554 C2535 1.368 . S
C2554 C2548 1.368 . S
C2554 C2553 1.523 . S
C2555 C2539 1.429 . S
C2555 C2551 1.429 . S
C2555 C2556 1.523 . S
C2556 C2540 1.368 . S
C2556 C2552 1.368 . S
C2556 C2555 1.523 . S
H2557 C2532 0.950 . S
H2558 C2534 0.950 . S
H2559 C2535 0.949 . S
H2560 C2537 0.950 . S
H2561 C2539 0.950 . S
C2562 C2563 1.349 . S
C2562 C2564 1.327 . S
C2562 H2587 0.950 . S
C2563 C2562 1.349 . S
C2563 C2579 1.349 . S
C2564 C2562 1.327 . S
C2564 C2583 1.429 . S
C2564 H2588 0.950 . S
C2565 C2582 1.574 . S
C2565 C2584 1.368 . S
C2565 H2589 0.949 . S
H2566 C2570 0.949 . S
C2567 C2568 1.349 . S
C2567 C2569 1.327 . S
C2567 H2590 0.950 . S
C2568 C2567 1.349 . S
C2568 C2580 1.349 . S
C2569 C2567 1.327 . S
C2569 C2585 1.429 . S
C2569 H2591 0.950 . S
C2570 H2566 0.949 . S
C2570 C2578 1.574 . S
C2570 C2586 1.368 . S
H2571 C2579 0.950 . S
H2572 C2577 0.950 . S
H2573 C2578 0.949 . S
H2574 C2580 0.950 . S
H2575 C2581 0.950 . S
H2576 C2582 0.949 . S
C2577 H2572 0.950 . S
C2577 C2579 1.327 . S
C2577 C2583 1.429 . S
C2578 C2570 1.574 . S
C2578 H2573 0.949 . S
C2578 C2584 1.368 . S
C2579 C2563 1.349 . S
C2579 H2571 0.950 . S
C2579 C2577 1.327 . S
C2580 C2568 1.349 . S
C2580 H2574 0.950 . S
C2580 C2581 1.327 . S
C2581 H2575 0.950 . S
C2581 C2580 1.327 . S
C2581 C2585 1.429 . S
C2582 C2565 1.574 . S
C2582 H2576 0.949 . S
C2582 C2586 1.368 . S
C2583 C2564 1.429 . S
C2583 C2577 1.429 . S
C2583 C2584 1.523 . S
C2584 C2565 1.368 . S
C2584 C2578 1.368 . S
C2584 C2583 1.523 . S
C2585 C2569 1.429 . S
C2585 C2581 1.429 . S
C2585 C2586 1.523 . S
C2586 C2570 1.368 . S
C2586 C2582 1.368 . S
C2586 C2585 1.523 . S
H2587 C2562 0.950 . S
H2588 C2564 0.950 . S
H2589 C2565 0.949 . S
H2590 C2567 0.950 . S
H2591 C2569 0.950 . S
C2592 C2593 1.349 . S
C2592 C2594 1.327 . S
C2592 H2617 0.950 . S
C2593 C2592 1.349 . S
C2593 C2609 1.349 . S
C2594 C2592 1.327 . S
C2594 C2613 1.429 . S
C2594 H2618 0.950 . S
C2595 C2612 1.574 . S
C2595 C2614 1.368 . S
C2595 H2619 0.949 . S
H2596 C2600 0.949 . S
C2597 C2598 1.349 . S
C2597 C2599 1.327 . S
C2597 H2620 0.950 . S
C2598 C2597 1.349 . S
C2598 C2610 1.349 . S
C2599 C2597 1.327 . S
C2599 C2615 1.429 . S
C2599 H2621 0.950 . S
C2600 H2596 0.949 . S
C2600 C2608 1.574 . S
C2600 C2616 1.368 . S
H2601 C2609 0.950 . S
H2602 C2607 0.950 . S
H2603 C2608 0.949 . S
H2604 C2610 0.950 . S
H2605 C2611 0.950 . S
H2606 C2612 0.949 . S
C2607 H2602 0.950 . S
C2607 C2609 1.327 . S
C2607 C2613 1.429 . S
C2608 C2600 1.574 . S
C2608 H2603 0.949 . S
C2608 C2614 1.368 . S
C2609 C2593 1.349 . S
C2609 H2601 0.950 . S
C2609 C2607 1.327 . S
C2610 C2598 1.349 . S
C2610 H2604 0.950 . S
C2610 C2611 1.327 . S
C2611 H2605 0.950 . S
C2611 C2610 1.327 . S
C2611 C2615 1.429 . S
C2612 C2595 1.574 . S
C2612 H2606 0.949 . S
C2612 C2616 1.368 . S
C2613 C2594 1.429 . S
C2613 C2607 1.429 . S
C2613 C2614 1.523 . S
C2614 C2595 1.368 . S
C2614 C2608 1.368 . S
C2614 C2613 1.523 . S
C2615 C2599 1.429 . S
C2615 C2611 1.429 . S
C2615 C2616 1.523 . S
C2616 C2600 1.368 . S
C2616 C2612 1.368 . S
C2616 C2615 1.523 . S
H2617 C2592 0.950 . S
H2618 C2594 0.950 . S
H2619 C2595 0.949 . S
H2620 C2597 0.950 . S
H2621 C2599 0.950 . S
C2622 C2623 1.349 . S
C2622 C2624 1.327 . S
C2622 H2647 0.950 . S
C2623 C2622 1.349 . S
C2623 C2639 1.349 . S
C2624 C2622 1.327 . S
C2624 C2643 1.429 . S
C2624 H2648 0.950 . S
C2625 C2642 1.574 . S
C2625 C2644 1.368 . S
C2625 H2649 0.949 . S
H2626 C2630 0.949 . S
C2627 C2628 1.349 . S
C2627 C2629 1.327 . S
C2627 H2650 0.950 . S
C2628 C2627 1.349 . S
C2628 C2640 1.349 . S
C2629 C2627 1.327 . S
C2629 C2645 1.429 . S
C2629 H2651 0.950 . S
C2630 H2626 0.949 . S
C2630 C2638 1.574 . S
C2630 C2646 1.368 . S
H2631 C2639 0.950 1_554 S
H2632 C2637 0.950 . S
H2633 C2638 0.949 . S
H2634 C2640 0.950 . S
H2635 C2641 0.950 . S
H2636 C2642 0.949 . S
C2637 H2632 0.950 . S
C2637 C2639 1.327 . S
C2637 C2643 1.429 . S
C2638 C2630 1.574 . S
C2638 H2633 0.949 . S
C2638 C2644 1.368 . S
C2639 C2623 1.349 . S
C2639 H2631 0.950 1_556 S
C2639 C2637 1.327 . S
C2640 C2628 1.349 . S
C2640 H2634 0.950 . S
C2640 C2641 1.327 . S
C2641 H2635 0.950 . S
C2641 C2640 1.327 . S
C2641 C2645 1.429 . S
C2642 C2625 1.574 . S
C2642 H2636 0.949 . S
C2642 C2646 1.368 . S
C2643 C2624 1.429 . S
C2643 C2637 1.429 . S
C2643 C2644 1.523 . S
C2644 C2625 1.368 . S
C2644 C2638 1.368 . S
C2644 C2643 1.523 . S
C2645 C2629 1.429 . S
C2645 C2641 1.429 . S
C2645 C2646 1.523 . S
C2646 C2630 1.368 . S
C2646 C2642 1.368 . S
C2646 C2645 1.523 . S
H2647 C2622 0.950 . S
H2648 C2624 0.950 . S
H2649 C2625 0.949 . S
H2650 C2627 0.950 . S
H2651 C2629 0.950 . S
C2652 C2653 1.349 . S
C2652 C2654 1.327 . S
C2652 H2677 0.950 . S
C2653 C2652 1.349 . S
C2653 C2669 1.349 . S
C2654 C2652 1.327 . S
C2654 C2673 1.429 . S
C2654 H2678 0.950 . S
C2655 C2672 1.574 . S
C2655 C2674 1.368 . S
C2655 H2679 0.949 . S
H2656 C2660 0.949 . S
C2657 C2658 1.349 . S
C2657 C2659 1.327 . S
C2657 H2680 0.950 . S
C2658 C2657 1.349 . S
C2658 C2670 1.349 . S
C2659 C2657 1.327 . S
C2659 C2675 1.429 . S
C2659 H2681 0.950 . S
C2660 H2656 0.949 . S
C2660 C2668 1.574 . S
C2660 C2676 1.368 . S
H2661 C2669 0.950 . S
H2662 C2667 0.950 . S
H2663 C2668 0.949 . S
H2664 C2670 0.950 . S
H2665 C2671 0.950 . S
H2666 C2672 0.949 . S
C2667 H2662 0.950 . S
C2667 C2669 1.327 . S
C2667 C2673 1.429 . S
C2668 C2660 1.574 . S
C2668 H2663 0.949 . S
C2668 C2674 1.368 . S
C2669 C2653 1.349 . S
C2669 H2661 0.950 . S
C2669 C2667 1.327 . S
C2670 C2658 1.349 . S
C2670 H2664 0.950 . S
C2670 C2671 1.327 . S
C2671 H2665 0.950 . S
C2671 C2670 1.327 . S
C2671 C2675 1.429 . S
C2672 C2655 1.574 . S
C2672 H2666 0.949 . S
C2672 C2676 1.368 . S
C2673 C2654 1.429 . S
C2673 C2667 1.429 . S
C2673 C2674 1.523 . S
C2674 C2655 1.368 . S
C2674 C2668 1.368 . S
C2674 C2673 1.523 . S
C2675 C2659 1.429 . S
C2675 C2671 1.429 . S
C2675 C2676 1.523 . S
C2676 C2660 1.368 . S
C2676 C2672 1.368 . S
C2676 C2675 1.523 . S
H2677 C2652 0.950 . S
H2678 C2654 0.950 . S
H2679 C2655 0.949 . S
H2680 C2657 0.950 . S
H2681 C2659 0.950 . S
C2682 C2683 1.349 . S
C2682 C2684 1.327 . S
C2682 H2707 0.950 . S
C2683 C2682 1.349 . S
C2683 C2699 1.349 . S
C2684 C2682 1.327 . S
C2684 C2703 1.429 . S
C2684 H2708 0.950 . S
C2685 C2702 1.574 . S
C2685 C2704 1.368 . S
C2685 H2709 0.949 1_455 S
H2686 C2690 0.949 . S
C2687 C2688 1.353 1_655 S
C2687 C2689 1.328 1_655 S
C2687 H2710 0.945 . S
C2688 C2687 1.353 1_455 S
C2688 C2700 1.349 . S
C2689 C2687 1.328 1_455 S
C2689 C2705 1.429 . S
C2689 H2711 0.950 1_455 S
C2690 H2686 0.949 . S
C2690 C2698 1.574 . S
C2690 C2706 1.368 . S
H2691 C2699 0.950 . S
H2692 C2697 0.998 . S
H2693 C2698 0.949 . S
H2694 C2700 0.950 . S
H2695 C2701 0.950 . S
H2696 C2702 0.949 1_655 S
C2697 H2692 0.998 . S
C2697 C2699 1.327 . S
C2697 C2703 1.429 . S
C2698 C2690 1.574 . S
C2698 H2693 0.949 . S
C2698 C2704 1.368 . S
C2699 C2683 1.349 . S
C2699 H2691 0.950 . S
C2699 C2697 1.327 . S
C2700 C2688 1.349 . S
C2700 H2694 0.950 . S
C2700 C2701 1.327 . S
C2701 H2695 0.950 . S
C2701 C2700 1.327 . S
C2701 C2705 1.429 . S
C2702 C2685 1.574 . S
C2702 H2696 0.949 1_455 S
C2702 C2706 1.368 . S
C2703 C2684 1.429 . S
C2703 C2697 1.429 . S
C2703 C2704 1.523 . S
C2704 C2685 1.368 . S
C2704 C2698 1.368 . S
C2704 C2703 1.523 . S
C2705 C2689 1.429 . S
C2705 C2701 1.429 . S
C2705 C2706 1.523 . S
C2706 C2690 1.368 . S
C2706 C2702 1.368 . S
C2706 C2705 1.523 . S
H2707 C2682 0.950 . S
H2708 C2684 0.950 . S
H2709 C2685 0.949 1_655 S
H2710 C2687 0.945 . S
H2711 C2689 0.950 1_655 S
C2712 C2713 1.349 . S
C2712 C2714 1.327 . S
C2712 H2737 0.950 . S
C2713 C2712 1.349 . S
C2713 C2729 1.349 . S
C2714 C2712 1.327 . S
C2714 C2733 1.429 . S
C2714 H2738 0.950 . S
C2715 C2732 1.574 . S
C2715 C2734 1.368 . S
C2715 H2739 0.949 . S
H2716 C2720 0.949 . S
C2717 C2718 1.349 . S
C2717 C2719 1.327 . S
C2717 H2740 0.950 . S
C2718 C2717 1.349 . S
C2718 C2730 1.349 . S
C2719 C2717 1.327 . S
C2719 C2735 1.429 . S
C2719 H2741 0.950 . S
C2720 H2716 0.949 . S
C2720 C2728 1.574 . S
C2720 C2736 1.368 . S
H2721 C2729 0.950 . S
H2722 C2727 0.950 . S
H2723 C2728 0.949 . S
H2724 C2730 0.950 . S
H2725 C2731 0.950 . S
H2726 C2732 0.949 . S
C2727 H2722 0.950 . S
C2727 C2729 1.327 . S
C2727 C2733 1.429 . S
C2728 C2720 1.574 . S
C2728 H2723 0.949 . S
C2728 C2734 1.368 . S
C2729 C2713 1.349 . S
C2729 H2721 0.950 . S
C2729 C2727 1.327 . S
C2730 C2718 1.349 . S
C2730 H2724 0.950 . S
C2730 C2731 1.327 . S
C2731 H2725 0.950 . S
C2731 C2730 1.327 . S
C2731 C2735 1.429 . S
C2732 C2715 1.574 . S
C2732 H2726 0.949 . S
C2732 C2736 1.368 . S
C2733 C2714 1.429 . S
C2733 C2727 1.429 . S
C2733 C2734 1.523 . S
C2734 C2715 1.368 . S
C2734 C2728 1.368 . S
C2734 C2733 1.523 . S
C2735 C2719 1.429 . S
C2735 C2731 1.429 . S
C2735 C2736 1.523 . S
C2736 C2720 1.368 . S
C2736 C2732 1.368 . S
C2736 C2735 1.523 . S
H2737 C2712 0.950 . S
H2738 C2714 0.950 . S
H2739 C2715 0.949 . S
H2740 C2717 0.950 . S
H2741 C2719 0.950 . S
C2742 C2743 1.349 . S
C2742 C2744 1.327 . S
C2742 H2767 0.950 . S
C2743 C2742 1.349 . S
C2743 C2759 1.349 . S
C2744 C2742 1.327 . S
C2744 C2763 1.429 . S
C2744 H2768 0.950 . S
C2745 C2762 1.574 . S
C2745 C2764 1.368 . S
C2745 H2769 0.949 . S
H2746 C2750 0.949 . S
C2747 C2748 1.349 . S
C2747 C2749 1.327 . S
C2747 H2770 0.950 . S
C2748 C2747 1.349 . S
C2748 C2760 1.349 . S
C2749 C2747 1.327 . S
C2749 C2765 1.429 . S
C2749 H2771 0.950 . S
C2750 H2746 0.949 . S
C2750 C2758 1.574 . S
C2750 C2766 1.368 . S
H2751 C2759 0.950 . S
H2752 C2757 0.950 . S
H2753 C2758 0.949 . S
H2754 C2760 0.950 . S
H2755 C2761 0.950 . S
H2756 C2762 0.949 . S
C2757 H2752 0.950 . S
C2757 C2759 1.327 . S
C2757 C2763 1.429 . S
C2758 C2750 1.574 . S
C2758 H2753 0.949 . S
C2758 C2764 1.368 . S
C2759 C2743 1.349 . S
C2759 H2751 0.950 . S
C2759 C2757 1.327 . S
C2760 C2748 1.349 . S
C2760 H2754 0.950 . S
C2760 C2761 1.327 . S
C2761 H2755 0.950 . S
C2761 C2760 1.327 . S
C2761 C2765 1.429 . S
C2762 C2745 1.574 . S
C2762 H2756 0.949 . S
C2762 C2766 1.368 . S
C2763 C2744 1.429 . S
C2763 C2757 1.429 . S
C2763 C2764 1.523 . S
C2764 C2745 1.368 . S
C2764 C2758 1.368 . S
C2764 C2763 1.523 . S
C2765 C2749 1.429 . S
C2765 C2761 1.429 . S
C2765 C2766 1.523 . S
C2766 C2750 1.368 . S
C2766 C2762 1.368 . S
C2766 C2765 1.523 . S
H2767 C2742 0.950 . S
H2768 C2744 0.950 . S
H2769 C2745 0.949 . S
H2770 C2747 0.950 . S
H2771 C2749 0.950 . S
C2772 C2773 1.349 . S
C2772 C2774 1.327 . S
C2772 H2797 0.950 . S
C2773 C2772 1.349 . S
C2773 C2789 1.349 . S
C2774 C2772 1.327 . S
C2774 C2793 1.429 . S
C2774 H2798 0.950 . S
C2775 C2792 1.574 . S
C2775 C2794 1.368 . S
C2775 H2799 0.949 . S
H2776 C2780 0.949 . S
C2777 C2778 1.349 . S
C2777 C2779 1.327 . S
C2777 H2800 0.950 . S
C2778 C2777 1.349 . S
C2778 C2790 1.349 . S
C2779 C2777 1.327 . S
C2779 C2795 1.429 . S
C2779 H2801 0.950 . S
C2780 H2776 0.949 . S
C2780 C2788 1.574 . S
C2780 C2796 1.368 . S
H2781 C2789 0.950 . S
H2782 C2787 0.950 . S
H2783 C2788 0.949 . S
H2784 C2790 0.950 . S
H2785 C2791 0.950 . S
H2786 C2792 0.949 . S
C2787 H2782 0.950 . S
C2787 C2789 1.327 . S
C2787 C2793 1.429 . S
C2788 C2780 1.574 . S
C2788 H2783 0.949 . S
C2788 C2794 1.368 . S
C2789 C2773 1.349 . S
C2789 H2781 0.950 . S
C2789 C2787 1.327 . S
C2790 C2778 1.349 . S
C2790 H2784 0.950 . S
C2790 C2791 1.327 . S
C2791 H2785 0.950 . S
C2791 C2790 1.327 . S
C2791 C2795 1.429 . S
C2792 C2775 1.574 . S
C2792 H2786 0.949 . S
C2792 C2796 1.368 . S
C2793 C2774 1.429 . S
C2793 C2787 1.429 . S
C2793 C2794 1.523 . S
C2794 C2775 1.368 . S
C2794 C2788 1.368 . S
C2794 C2793 1.523 . S
C2795 C2779 1.429 . S
C2795 C2791 1.429 . S
C2795 C2796 1.523 . S
C2796 C2780 1.368 . S
C2796 C2792 1.368 . S
C2796 C2795 1.523 . S
H2797 C2772 0.950 . S
H2798 C2774 0.950 . S
H2799 C2775 0.949 . S
H2800 C2777 0.950 . S
H2801 C2779 0.950 . S
C2802 C2803 1.349 . S
C2802 C2804 1.327 . S
C2802 H2827 0.950 . S
C2803 C2802 1.349 . S
C2803 C2819 1.349 . S
C2804 C2802 1.327 . S
C2804 C2823 1.429 . S
C2804 H2828 0.950 . S
C2805 C2822 1.574 . S
C2805 C2824 1.368 . S
C2805 H2829 0.949 . S
H2806 C2810 0.949 . S
C2807 C2808 1.349 . S
C2807 C2809 1.327 . S
C2807 H2830 0.950 . S
C2808 C2807 1.349 . S
C2808 C2820 1.349 . S
C2809 C2807 1.327 . S
C2809 C2825 1.429 . S
C2809 H2831 0.950 . S
C2810 H2806 0.949 . S
C2810 C2818 1.574 . S
C2810 C2826 1.368 . S
H2811 C2819 0.950 1_556 S
H2812 C2817 0.950 . S
H2813 C2818 0.949 . S
H2814 C2820 0.950 . S
H2815 C2821 0.950 . S
H2816 C2822 0.949 . S
C2817 H2812 0.950 . S
C2817 C2819 1.327 . S
C2817 C2823 1.429 . S
C2818 C2810 1.574 . S
C2818 H2813 0.949 . S
C2818 C2824 1.368 . S
C2819 C2803 1.349 . S
C2819 H2811 0.950 1_554 S
C2819 C2817 1.327 . S
C2820 C2808 1.349 . S
C2820 H2814 0.950 . S
C2820 C2821 1.327 . S
C2821 H2815 0.950 . S
C2821 C2820 1.327 . S
C2821 C2825 1.429 . S
C2822 C2805 1.574 . S
C2822 H2816 0.949 . S
C2822 C2826 1.368 . S
C2823 C2804 1.429 . S
C2823 C2817 1.429 . S
C2823 C2824 1.523 . S
C2824 C2805 1.368 . S
C2824 C2818 1.368 . S
C2824 C2823 1.523 . S
C2825 C2809 1.429 . S
C2825 C2821 1.429 . S
C2825 C2826 1.523 . S
C2826 C2810 1.368 . S
C2826 C2822 1.368 . S
C2826 C2825 1.523 . S
H2827 C2802 0.950 . S
H2828 C2804 0.950 . S
H2829 C2805 0.949 . S
H2830 C2807 0.950 . S
H2831 C2809 0.950 . S
C2832 C2833 1.349 . S
C2832 C2834 1.327 . S
C2832 H2857 0.950 . S
C2833 C2832 1.349 . S
C2833 C2849 1.349 . S
C2834 C2832 1.327 . S
C2834 C2853 1.429 . S
C2834 H2858 0.950 . S
C2835 C2852 1.574 . S
C2835 C2854 1.368 . S
C2835 H2859 0.949 . S
H2836 C2840 0.949 . S
C2837 C2838 1.349 . S
C2837 C2839 1.327 . S
C2837 H2860 0.950 . S
C2838 C2837 1.349 . S
C2838 C2850 1.349 . S
C2839 C2837 1.327 . S
C2839 C2855 1.429 . S
C2839 H2861 0.950 . S
C2840 H2836 0.949 . S
C2840 C2848 1.574 . S
C2840 C2856 1.368 . S
H2841 C2849 0.950 . S
H2842 C2847 0.950 . S
H2843 C2848 0.949 . S
H2844 C2850 0.950 . S
H2845 C2851 0.950 . S
H2846 C2852 0.949 . S
C2847 H2842 0.950 . S
C2847 C2849 1.327 . S
C2847 C2853 1.429 . S
C2848 C2840 1.574 . S
C2848 H2843 0.949 . S
C2848 C2854 1.368 . S
C2849 C2833 1.349 . S
C2849 H2841 0.950 . S
C2849 C2847 1.327 . S
C2850 C2838 1.349 . S
C2850 H2844 0.950 . S
C2850 C2851 1.327 . S
C2851 H2845 0.950 . S
C2851 C2850 1.327 . S
C2851 C2855 1.429 . S
C2852 C2835 1.574 . S
C2852 H2846 0.949 . S
C2852 C2856 1.368 . S
C2853 C2834 1.429 . S
C2853 C2847 1.429 . S
C2853 C2854 1.523 . S
C2854 C2835 1.368 . S
C2854 C2848 1.368 . S
C2854 C2853 1.523 . S
C2855 C2839 1.429 . S
C2855 C2851 1.429 . S
C2855 C2856 1.523 . S
C2856 C2840 1.368 . S
C2856 C2852 1.368 . S
C2856 C2855 1.523 . S
H2857 C2832 0.950 . S
H2858 C2834 0.950 . S
H2859 C2835 0.949 . S
H2860 C2837 0.950 . S
H2861 C2839 0.950 . S
C2862 C2863 1.349 . S
C2862 C2864 1.327 . S
C2862 H2887 0.950 . S
C2863 C2862 1.349 . S
C2863 C2879 1.349 . S
C2864 C2862 1.327 . S
C2864 C2883 1.429 . S
C2864 H2888 0.950 . S
C2865 C2882 1.574 . S
C2865 C2884 1.368 . S
C2865 H2889 0.949 . S
H2866 C2870 0.949 . S
C2867 C2868 1.349 . S
C2867 C2869 1.327 . S
C2867 H2890 0.950 . S
C2868 C2867 1.349 . S
C2868 C2880 1.349 . S
C2869 C2867 1.327 . S
C2869 C2885 1.429 . S
C2869 H2891 0.950 . S
C2870 H2866 0.949 . S
C2870 C2878 1.574 . S
C2870 C2886 1.368 . S
H2871 C2879 0.950 . S
H2872 C2877 0.950 . S
H2873 C2878 0.949 . S
H2874 C2880 0.950 . S
H2875 C2881 0.950 . S
H2876 C2882 0.949 . S
C2877 H2872 0.950 . S
C2877 C2879 1.327 . S
C2877 C2883 1.429 . S
C2878 C2870 1.574 . S
C2878 H2873 0.949 . S
C2878 C2884 1.368 . S
C2879 C2863 1.349 . S
C2879 H2871 0.950 . S
C2879 C2877 1.327 . S
C2880 C2868 1.349 . S
C2880 H2874 0.950 . S
C2880 C2881 1.327 . S
C2881 H2875 0.950 . S
C2881 C2880 1.327 . S
C2881 C2885 1.429 . S
C2882 C2865 1.574 . S
C2882 H2876 0.949 . S
C2882 C2886 1.368 . S
C2883 C2864 1.429 . S
C2883 C2877 1.429 . S
C2883 C2884 1.523 . S
C2884 C2865 1.368 . S
C2884 C2878 1.368 . S
C2884 C2883 1.523 . S
C2885 C2869 1.429 . S
C2885 C2881 1.429 . S
C2885 C2886 1.523 . S
C2886 C2870 1.368 . S
C2886 C2882 1.368 . S
C2886 C2885 1.523 . S
H2887 C2862 0.950 . S
H2888 C2864 0.950 . S
H2889 C2865 0.949 . S
H2890 C2867 0.950 . S
H2891 C2869 0.950 . S
C2892 C2893 1.349 . S
C2892 C2894 1.327 . S
C2892 H2917 0.950 . S
C2893 C2892 1.349 . S
C2893 C2909 1.349 . S
C2894 C2892 1.327 . S
C2894 C2913 1.429 . S
C2894 H2918 0.950 . S
C2895 C2912 1.574 . S
C2895 C2914 1.368 . S
C2895 H2919 0.949 . S
H2896 C2900 0.949 . S
C2897 C2898 1.349 . S
C2897 C2899 1.327 . S
C2897 H2920 0.950 . S
C2898 C2897 1.349 . S
C2898 C2910 1.349 . S
C2899 C2897 1.327 . S
C2899 C2915 1.429 . S
C2899 H2921 0.950 . S
C2900 H2896 0.949 . S
C2900 C2908 1.574 . S
C2900 C2916 1.368 . S
H2901 C2909 0.950 . S
H2902 C2907 0.950 . S
H2903 C2908 0.949 . S
H2904 C2910 0.950 . S
H2905 C2911 0.950 . S
H2906 C2912 0.949 . S
C2907 H2902 0.950 . S
C2907 C2909 1.327 . S
C2907 C2913 1.429 . S
C2908 C2900 1.574 . S
C2908 H2903 0.949 . S
C2908 C2914 1.368 . S
C2909 C2893 1.349 . S
C2909 H2901 0.950 . S
C2909 C2907 1.327 . S
C2910 C2898 1.349 . S
C2910 H2904 0.950 . S
C2910 C2911 1.327 . S
C2911 H2905 0.950 . S
C2911 C2910 1.327 . S
C2911 C2915 1.429 . S
C2912 C2895 1.574 . S
C2912 H2906 0.949 . S
C2912 C2916 1.368 . S
C2913 C2894 1.429 . S
C2913 C2907 1.429 . S
C2913 C2914 1.523 . S
C2914 C2895 1.368 . S
C2914 C2908 1.368 . S
C2914 C2913 1.523 . S
C2915 C2899 1.429 . S
C2915 C2911 1.429 . S
C2915 C2916 1.523 . S
C2916 C2900 1.368 . S
C2916 C2912 1.368 . S
C2916 C2915 1.523 . S
H2917 C2892 0.950 . S
H2918 C2894 0.950 . S
H2919 C2895 0.949 . S
H2920 C2897 0.950 . S
H2921 C2899 0.950 . S
C2922 C2923 1.349 . S
C2922 C2924 1.327 . S
C2922 H2947 0.950 . S
C2923 C2922 1.349 . S
C2923 C2939 1.349 . S
C2924 C2922 1.327 . S
C2924 C2943 1.429 . S
C2924 H2948 0.950 . S
C2925 C2942 1.574 . S
C2925 C2944 1.368 . S
C2925 H2949 0.949 . S
H2926 C2930 0.949 . S
C2927 C2928 1.349 . S
C2927 C2929 1.327 . S
C2927 H2950 0.950 . S
C2928 C2927 1.349 . S
C2928 C2940 1.349 . S
C2929 C2927 1.327 . S
C2929 C2945 1.429 . S
C2929 H2951 0.950 . S
C2930 H2926 0.949 . S
C2930 C2938 1.574 . S
C2930 C2946 1.368 . S
H2931 C2939 0.950 . S
H2932 C2937 0.950 . S
H2933 C2938 0.949 . S
H2934 C2940 0.950 . S
H2935 C2941 0.950 . S
H2936 C2942 0.949 . S
C2937 H2932 0.950 . S
C2937 C2939 1.327 . S
C2937 C2943 1.429 . S
C2938 C2930 1.574 . S
C2938 H2933 0.949 . S
C2938 C2944 1.368 . S
C2939 C2923 1.349 . S
C2939 H2931 0.950 . S
C2939 C2937 1.327 . S
C2940 C2928 1.349 . S
C2940 H2934 0.950 . S
C2940 C2941 1.327 . S
C2941 H2935 0.950 . S
C2941 C2940 1.327 . S
C2941 C2945 1.429 . S
C2942 C2925 1.574 . S
C2942 H2936 0.949 . S
C2942 C2946 1.368 . S
C2943 C2924 1.429 . S
C2943 C2937 1.429 . S
C2943 C2944 1.523 . S
C2944 C2925 1.368 . S
C2944 C2938 1.368 . S
C2944 C2943 1.523 . S
C2945 C2929 1.429 . S
C2945 C2941 1.429 . S
C2945 C2946 1.523 . S
C2946 C2930 1.368 . S
C2946 C2942 1.368 . S
C2946 C2945 1.523 . S
H2947 C2922 0.950 . S
H2948 C2924 0.950 . S
H2949 C2925 0.949 . S
H2950 C2927 0.950 . S
H2951 C2929 0.950 . S
C2952 C2953 1.349 . S
C2952 C2954 1.327 . S
C2952 H2977 0.950 . S
C2953 C2952 1.349 . S
C2953 C2969 1.349 . S
C2954 C2952 1.327 . S
C2954 C2973 1.429 . S
C2954 H2978 0.950 . S
C2955 C2972 1.574 . S
C2955 C2974 1.368 . S
C2955 H2979 0.949 1_556 S
H2956 C2960 0.949 . S
C2957 C2958 1.295 1_554 S
C2957 C2959 1.323 1_554 S
C2957 H2980 1.012 . S
C2958 C2957 1.295 1_556 S
C2958 C2970 1.349 . S
C2959 C2957 1.323 1_556 S
C2959 C2975 1.437 . S
C2959 H2981 0.942 1_556 S
C2960 H2956 0.949 . S
C2960 C2968 1.574 . S
C2960 C2976 1.368 . S
H2961 C2969 0.950 . S
H2962 C2967 0.894 1_554 S
H2963 C2968 0.949 . S
H2964 C2970 0.950 . S
H2965 C2971 0.950 . S
H2966 C2972 0.949 1_554 S
C2967 H2962 0.894 1_556 S
C2967 C2969 1.327 . S
C2967 C2973 1.429 . S
C2968 C2960 1.574 . S
C2968 H2963 0.949 . S
C2968 C2974 1.368 . S
C2969 C2953 1.349 . S
C2969 H2961 0.950 . S
C2969 C2967 1.327 . S
C2970 C2958 1.349 . S
C2970 H2964 0.950 . S
C2970 C2971 1.327 . S
C2971 H2965 0.950 . S
C2971 C2970 1.327 . S
C2971 C2975 1.429 . S
C2972 C2955 1.574 . S
C2972 H2966 0.949 1_556 S
C2972 C2976 1.368 . S
C2973 C2954 1.429 . S
C2973 C2967 1.429 . S
C2973 C2974 1.523 . S
C2974 C2955 1.368 . S
C2974 C2968 1.368 . S
C2974 C2973 1.523 . S
C2975 C2959 1.437 . S
C2975 C2971 1.429 . S
C2975 C2976 1.523 . S
C2976 C2960 1.368 . S
C2976 C2972 1.368 . S
C2976 C2975 1.523 . S
H2977 C2952 0.950 . S
H2978 C2954 0.950 . S
H2979 C2955 0.949 1_554 S
H2980 C2957 1.012 . S
H2981 C2959 0.942 1_554 S
C2982 C2983 1.349 . S
C2982 C2984 1.327 . S
C2982 H3007 0.950 . S
C2983 C2982 1.349 . S
C2983 C2999 1.349 . S
C2984 C2982 1.327 . S
C2984 C3003 1.429 . S
C2984 H3008 0.950 . S
C2985 C3002 1.574 . S
C2985 C3004 1.368 . S
C2985 H3009 0.949 . S
H2986 C2990 0.949 . S
C2987 C2988 1.349 . S
C2987 C2989 1.327 . S
C2987 H3010 0.950 . S
C2988 C2987 1.349 . S
C2988 C3000 1.349 . S
C2989 C2987 1.327 . S
C2989 C3005 1.429 . S
C2989 H3011 0.950 . S
C2990 H2986 0.949 . S
C2990 C2998 1.574 . S
C2990 C3006 1.368 . S
H2991 C2999 0.950 . S
H2992 C2997 0.950 . S
H2993 C2998 0.949 . S
H2994 C3000 0.950 . S
H2995 C3001 0.950 . S
H2996 C3002 0.949 . S
C2997 H2992 0.950 . S
C2997 C2999 1.327 . S
C2997 C3003 1.429 . S
C2998 C2990 1.574 . S
C2998 H2993 0.949 . S
C2998 C3004 1.368 . S
C2999 C2983 1.349 . S
C2999 H2991 0.950 . S
C2999 C2997 1.327 . S
C3000 C2988 1.349 . S
C3000 H2994 0.950 . S
C3000 C3001 1.327 . S
C3001 H2995 0.950 . S
C3001 C3000 1.327 . S
C3001 C3005 1.429 . S
C3002 C2985 1.574 . S
C3002 H2996 0.949 . S
C3002 C3006 1.368 . S
C3003 C2984 1.429 . S
C3003 C2997 1.429 . S
C3003 C3004 1.523 . S
C3004 C2985 1.368 . S
C3004 C2998 1.368 . S
C3004 C3003 1.523 . S
C3005 C2989 1.429 . S
C3005 C3001 1.429 . S
C3005 C3006 1.523 . S
C3006 C2990 1.368 . S
C3006 C3002 1.368 . S
C3006 C3005 1.523 . S
H3007 C2982 0.950 . S
H3008 C2984 0.950 . S
H3009 C2985 0.949 . S
H3010 C2987 0.950 . S
H3011 C2989 0.950 . S
C3012 C3013 1.349 . S
C3012 C3014 1.327 . S
C3012 H3037 0.950 . S
C3013 C3012 1.349 . S
C3013 C3029 1.349 . S
C3014 C3012 1.327 . S
C3014 C3033 1.429 . S
C3014 H3038 0.950 . S
C3015 C3032 1.574 . S
C3015 C3034 1.368 . S
C3015 H3039 0.949 . S
H3016 C3020 0.949 1_556 S
C3017 C3018 1.349 . S
C3017 C3019 1.327 . S
C3017 H3040 0.950 . S
C3018 C3017 1.349 . S
C3018 C3030 1.349 . S
C3019 C3017 1.327 . S
C3019 C3035 1.429 . S
C3019 H3041 0.950 . S
C3020 H3016 0.949 1_554 S
C3020 C3028 1.574 . S
C3020 C3036 1.368 . S
H3021 C3029 0.950 . S
H3022 C3027 0.950 . S
H3023 C3028 0.949 . S
H3024 C3030 0.950 1_556 S
H3025 C3031 0.950 1_556 S
H3026 C3032 0.949 . S
C3027 H3022 0.950 . S
C3027 C3029 1.327 . S
C3027 C3033 1.429 . S
C3028 C3020 1.574 . S
C3028 H3023 0.949 . S
C3028 C3034 1.368 . S
C3029 C3013 1.349 . S
C3029 H3021 0.950 . S
C3029 C3027 1.327 . S
C3030 C3018 1.349 . S
C3030 H3024 0.950 1_554 S
C3030 C3031 1.327 . S
C3031 H3025 0.950 1_554 S
C3031 C3030 1.327 . S
C3031 C3035 1.429 . S
C3032 C3015 1.574 . S
C3032 H3026 0.949 . S
C3032 C3036 1.368 . S
C3033 C3014 1.429 . S
C3033 C3027 1.429 . S
C3033 C3034 1.523 . S
C3034 C3015 1.368 . S
C3034 C3028 1.368 . S
C3034 C3033 1.523 . S
C3035 C3019 1.429 . S
C3035 C3031 1.429 . S
C3035 C3036 1.523 . S
C3036 C3020 1.368 . S
C3036 C3032 1.368 . S
C3036 C3035 1.523 . S
H3037 C3012 0.950 . S
H3038 C3014 0.950 . S
H3039 C3015 0.949 . S
H3040 C3017 0.950 . S
H3041 C3019 0.950 . S
C3042 C3043 1.349 . S
C3042 C3044 1.327 . S
C3042 H3067 0.950 . S
C3043 C3042 1.349 . S
C3043 C3059 1.349 . S
C3044 C3042 1.327 . S
C3044 C3063 1.429 . S
C3044 H3068 0.950 . S
C3045 C3062 1.574 . S
C3045 C3064 1.368 . S
C3045 H3069 0.949 1_554 S
H3046 C3050 0.949 . S
C3047 C3048 1.349 1_556 S
C3047 C3049 1.332 . S
C3047 H3070 0.950 . S
C3048 C3047 1.349 1_554 S
C3048 C3060 1.349 . S
C3049 C3047 1.332 . S
C3049 C3065 1.380 1_556 S
C3049 H3071 0.996 . S
C3050 H3046 0.949 . S
C3050 C3058 1.574 . S
C3050 C3066 1.368 . S
H3051 C3059 0.966 . S
H3052 C3057 0.950 1_556 S
H3053 C3058 0.949 . S
H3054 C3060 0.950 . S
H3055 C3061 0.950 . S
H3056 C3062 0.949 1_556 S
C3057 H3052 0.950 1_554 S
C3057 C3059 1.327 . S
C3057 C3063 1.429 . S
C3058 C3050 1.574 . S
C3058 H3053 0.949 . S
C3058 C3064 1.368 . S
C3059 C3043 1.349 . S
C3059 H3051 0.966 . S
C3059 C3057 1.327 . S
C3060 C3048 1.349 . S
C3060 H3054 0.950 . S
C3060 C3061 1.327 . S
C3061 H3055 0.950 . S
C3061 C3060 1.327 . S
C3061 C3065 1.429 . S
C3062 C3045 1.574 . S
C3062 H3056 0.949 1_554 S
C3062 C3066 1.368 . S
C3063 C3044 1.429 . S
C3063 C3057 1.429 . S
C3063 C3064 1.523 . S
C3064 C3045 1.368 . S
C3064 C3058 1.368 . S
C3064 C3063 1.523 . S
C3065 C3049 1.380 1_554 S
C3065 C3061 1.429 . S
C3065 C3066 1.523 . S
C3066 C3050 1.368 . S
C3066 C3062 1.368 . S
C3066 C3065 1.523 . S
H3067 C3042 0.950 . S
H3068 C3044 0.950 . S
H3069 C3045 0.949 1_556 S
H3070 C3047 0.950 . S
H3071 C3049 0.996 . S
C1638 C625 1.497 . S
C1633 C181 1.489 . S
C1668 C684 1.519 . S
C1663 C247 1.519 . S
C1693 C283 1.509 . S
C1698 C801 1.524 . S
C1728 C869 1.520 . S
C1723 C169 1.509 . S
C1758 C948 1.511 . S
C1753 C361 1.504 . S
C1788 C1073 1.521 . S
C1783 C433 1.513 . S
C1813 C421 1.496 . S
C1818 C1133 1.506 . S
C1848 C1241 1.535 . S
C1843 C355 1.536 . S
C1873 C427 1.516 . S
C1878 C1337 1.525 . S
C1908 C1397 1.524 . S
C1903 C325 1.523 . S
C1933 C385 1.499 . S
C1938 C1300 1.509 . S
C1968 C1417 1.526 . S
C1963 C463 1.516 . S
C1993 C253 1.515 . S
C1998 C1485 1.522 . S
C2023 C145 1.517 . S
C2028 C1476 1.525 . S
C2053 C205 1.478 . S
C2058 C1505 1.488 . S
C2083 C217 1.510 . S
C2088 C1513 1.510 . S
C2113 C139 1.511 . S
C2118 C897 1.520 . S
C2143 C535 1.500 . S
C2148 C860 1.509 . S
C2178 C596 1.499 . S
C2173 C565 1.498 . S
C2208 C693 1.509 . S
C2203 C313 1.498 . S
C2233 C175 1.528 . S
C2238 C957 1.538 . S
C2268 C1249 1.505 . S
C2263 C397 1.490 . S
C2298 C977 1.521 . S
C2293 C349 1.520 . S
C2328 C1161 1.532 . S
C2323 C457 1.521 . S
C2358 C1153 1.497 . S
C2353 C505 1.489 . S
C2383 C571 1.520 . S
C2388 C1221 1.519 . S
C2413 C319 1.509 . S
C2418 C985 1.518 . S
C2448 C1036 1.520 . S
C2443 C493 1.509 . S
C2473 C109 1.504 . S
C2478 C781 1.506 . S
C2508 C889 1.521 . S
C2503 C1 1.513 . S
C2538 C605 1.506 . S
C2533 C61 1.496 . S
C2568 C721 1.535 . S
C2563 C103 1.535 . S
C2593 C67 1.515 . S
C2598 C1425 1.525 . S
C2623 C73 1.523 . S
C2628 C1309 1.524 . S
C2653 C133 1.499 . S
C2658 C1388 1.509 . S
C2683 C31 1.516 . S
C2688 C1329 1.526 . S
C2718 C1573 1.522 . S
C2713 C289 1.515 . S
C2748 C1564 1.525 . S
C2743 C469 1.517 . S
C2778 C1593 1.488 . S
C2773 C529 1.477 . S
C2803 C541 1.510 . S
C2808 C1601 1.511 . S
C2833 C391 1.511 . S
C2838 C1065 1.521 . S
C2868 C1045 1.509 . S
C2863 C211 1.499 . S
C2898 C1124 1.499 . S
C2893 C241 1.498 . S
C2928 C1212 1.509 . S
C2923 C277 1.505 . S
C2953 C499 1.528 . S
C2958 C772 1.539 . S
C2988 C713 1.505 . S
C2983 C37 1.498 . S
C3013 C97 1.520 . S
C3018 C809 1.520 . S
C3048 C633 1.532 . S
C3043 C25 1.521 . S
