# Generated by pormake.
# Topology csq, (4,8)-cn, num edge types: 1
# Building blocks:
#     Node 0, Type 0, BuildingBlock: NAWXER_clean_linker_0, # of connection points: 4
#     Node 1, Type 0, BuildingBlock: NAWXER_clean_linker_0, # of connection points: 4
#     Node 2, Type 0, BuildingBlock: NAWXER_clean_linker_0, # of connection points: 4
#     Node 3, Type 0, BuildingBlock: NAWXER_clean_linker_0, # of connection points: 4
#     Node 4, Type 0, BuildingBlock: NAWXER_clean_linker_0, # of connection points: 4
#     Node 5, Type 0, BuildingBlock: NAWXER_clean_linker_0, # of connection points: 4
#     Node 6, Type 1, BuildingBlock: TAGTUT_clean_sbu_1, # of connection points: 8
#     Node 7, Type 1, BuildingBlock: TAGTUT_clean_sbu_1, # of connection points: 8
#     Node 8, Type 1, BuildingBlock: TAGTUT_clean_sbu_1, # of connection points: 8
#     Edge 9, Type (0, 1), BuildingBlock: AJUNOK_clean_linker_0, # of connection points: 2
#     Edge 10, Type (0, 1), BuildingBlock: AJUNOK_clean_linker_0, # of connection points: 2
#     Edge 11, Type (0, 1), BuildingBlock: AJUNOK_clean_linker_0, # of connection points: 2
#     Edge 12, Type (0, 1), BuildingBlock: AJUNOK_clean_linker_0, # of connection points: 2
#     Edge 13, Type (0, 1), BuildingBlock: AJUNOK_clean_linker_0, # of connection points: 2
#     Edge 14, Type (0, 1), BuildingBlock: AJUNOK_clean_linker_0, # of connection points: 2
#     Edge 15, Type (0, 1), BuildingBlock: AJUNOK_clean_linker_0, # of connection points: 2
#     Edge 16, Type (0, 1), BuildingBlock: AJUNOK_clean_linker_0, # of connection points: 2
#     Edge 17, Type (0, 1), BuildingBlock: AJUNOK_clean_linker_0, # of connection points: 2
#     Edge 18, Type (0, 1), BuildingBlock: AJUNOK_clean_linker_0, # of connection points: 2
#     Edge 19, Type (0, 1), BuildingBlock: AJUNOK_clean_linker_0, # of connection points: 2
#     Edge 20, Type (0, 1), BuildingBlock: AJUNOK_clean_linker_0, # of connection points: 2
#     Edge 21, Type (0, 1), BuildingBlock: AJUNOK_clean_linker_0, # of connection points: 2
#     Edge 22, Type (0, 1), BuildingBlock: AJUNOK_clean_linker_0, # of connection points: 2
#     Edge 23, Type (0, 1), BuildingBlock: AJUNOK_clean_linker_0, # of connection points: 2
#     Edge 24, Type (0, 1), BuildingBlock: AJUNOK_clean_linker_0, # of connection points: 2
#     Edge 25, Type (0, 1), BuildingBlock: AJUNOK_clean_linker_0, # of connection points: 2
#     Edge 26, Type (0, 1), BuildingBlock: AJUNOK_clean_linker_0, # of connection points: 2
#     Edge 27, Type (0, 1), BuildingBlock: AJUNOK_clean_linker_0, # of connection points: 2
#     Edge 28, Type (0, 1), BuildingBlock: AJUNOK_clean_linker_0, # of connection points: 2
#     Edge 29, Type (0, 1), BuildingBlock: AJUNOK_clean_linker_0, # of connection points: 2
#     Edge 30, Type (0, 1), BuildingBlock: AJUNOK_clean_linker_0, # of connection points: 2
#     Edge 31, Type (0, 1), BuildingBlock: AJUNOK_clean_linker_0, # of connection points: 2
#     Edge 32, Type (0, 1), BuildingBlock: AJUNOK_clean_linker_0, # of connection points: 2
# Relax obj value: 0.031
# Max RMSD: 0.123
# Mean RMSD: 0.040
data_MOF--net-csq--node1-TAGTUT_clean_sbu_1--node2-NAWXER_clean_linker_0--edge1-AJUNOK_clean_linker_0
_symmetry_space_group_name_H-M    P1
_symmetry_Int_Tables_number       1
_symmetry_cell_setting            triclinic
loop_
_symmetry_equiv_pos_as_xyz
'x, y, z'
_cell_length_a     48.890504
_cell_length_b     48.377302
_cell_length_c     17.695694
_cell_angle_alpha  93.282431
_cell_angle_beta   91.772404
_cell_angle_gamma 119.85903
loop_
_atom_site_label
_atom_site_type_symbol
_atom_site_fract_x
_atom_site_fract_y
_atom_site_fract_z
_atom_type_partial_charge
C0 C 0.33243 0.47086 0.05334 0.0
C1 C 0.32077 0.45219 0.98333 0.0
C2 C 0.31177 0.47164 0.10583 0.0
C3 C 0.27879 0.45328 0.0904 0.0
C4 C 0.28783 0.43358 0.96856 0.0
C5 C 0.26726 0.43393 0.0214 0.0
C6 C 0.25608 0.45789 0.13701 0.0
C7 C 0.29954 0.43014 0.33223 0.0
C8 C 0.32421 0.45816 0.37121 0.0
C9 C 0.27876 0.43191 0.27944 0.0
C10 C 0.28183 0.46158 0.26665 0.0
C11 C 0.32661 0.48774 0.35908 0.0
C12 C 0.30527 0.48935 0.30809 0.0
C13 C 0.2584 0.46337 0.217 0.0
C14 C 0.13759 0.46058 0.29086 0.0
C15 C 0.14948 0.48592 0.34819 0.0
C16 C 0.15809 0.45607 0.24456 0.0
C17 C 0.19098 0.47672 0.25478 0.0
C18 C 0.18233 0.5068 0.35764 0.0
C19 C 0.20284 0.50199 0.31217 0.0
C20 C 0.21325 0.47034 0.21162 0.0
C21 C 0.18774 0.50302 0.98707 0.0
C22 C 0.16161 0.47629 0.94825 0.0
C23 C 0.20174 0.49968 0.05306 0.0
C24 C 0.19002 0.46959 0.08095 0.0
C25 C 0.14905 0.4464 0.97854 0.0
C26 C 0.16354 0.44299 0.04367 0.0
C27 C 0.21093 0.46474 0.13207 0.0
H28 H 0.35765 0.48552 0.06693 0.0
H29 H 0.32183 0.48796 0.15627 0.0
H30 H 0.27775 0.41963 0.91474 0.0
H31 H 0.24205 0.41989 0.00671 0.0
H32 H 0.29642 0.40689 0.34208 0.0
H33 H 0.25996 0.41014 0.24966 0.0
H34 H 0.34549 0.5098 0.38755 0.0
H35 H 0.30738 0.51234 0.29987 0.0
H36 H 0.11236 0.44431 0.28163 0.0
H37 H 0.14825 0.43585 0.20236 0.0
H38 H 0.19217 0.52657 0.40116 0.0
H39 H 0.22809 0.51805 0.32198 0.0
H40 H 0.19787 0.52636 0.96531 0.0
H41 H 0.22297 0.52022 0.07967 0.0
H42 H 0.12821 0.42559 0.95163 0.0
H43 H 0.15489 0.4194 0.0632 0.0
N44 N 0.23228 0.4589 0.09839 0.0
N45 N 0.23708 0.46944 0.251 0.0
C46 C 0.67735 0.17139 0.2763 0.0
C47 C 0.69036 0.16737 0.34423 0.0
C48 C 0.69687 0.1881 0.21928 0.0
C49 C 0.72963 0.2003 0.22844 0.0
C50 C 0.7231 0.17982 0.35315 0.0
C51 C 0.74239 0.19589 0.29598 0.0
C52 C 0.752 0.22053 0.17379 0.0
C53 C 0.68227 0.13331 0.00895 0.0
C54 C 0.66939 0.14261 0.94994 0.0
C55 C 0.70704 0.15639 0.05898 0.0
C56 C 0.71926 0.18907 0.05046 0.0
C57 C 0.68153 0.17532 0.94237 0.0
C58 C 0.70624 0.19824 0.99186 0.0
C59 C 0.74832 0.21407 0.09374 0.0
C60 C 0.88435 0.29735 0.02379 0.0
C61 C 0.88098 0.30976 0.95688 0.0
C62 C 0.85787 0.27855 0.06302 0.0
C63 C 0.8279 0.273 0.03726 0.0
C64 C 0.85076 0.30225 0.92805 0.0
C65 C 0.82431 0.2839 0.96805 0.0
C66 C 0.80076 0.25721 0.08445 0.0
C67 C 0.87036 0.35145 0.20538 0.0
C68 C 0.88364 0.34921 0.27463 0.0
C69 C 0.84366 0.32465 0.16951 0.0
C70 C 0.83035 0.29499 0.20127 0.0
C71 C 0.86961 0.31976 0.30731 0.0
C72 C 0.84325 0.29298 0.27108 0.0
C73 C 0.80294 0.26597 0.16252 0.0
H74 H 0.65208 0.16141 0.26683 0.0
H75 H 0.68636 0.19196 0.16919 0.0
H76 H 0.73391 0.17728 0.40466 0.0
H77 H 0.76761 0.20522 0.3051 0.0
H78 H 0.67329 0.1082 0.01602 0.0
H79 H 0.71725 0.14877 0.10261 0.0
H80 H 0.67247 0.18322 0.8968 0.0
H81 H 0.71572 0.22332 0.98333 0.0
H82 H 0.90748 0.30271 0.04634 0.0
H83 H 0.86097 0.26939 0.11508 0.0
H84 H 0.84784 0.31178 0.8764 0.0
H85 H 0.80135 0.27952 0.94683 0.0
H86 H 0.88072 0.37371 0.17858 0.0
H87 H 0.83359 0.32708 0.11666 0.0
H88 H 0.87896 0.31746 0.36142 0.0
H89 H 0.83323 0.27053 0.29717 0.0
N90 N 0.77895 0.24674 0.2043 0.0
N91 N 0.77319 0.23241 0.05252 0.0
C92 C 0.54144 0.67357 0.97576 0.0
C93 C 0.51529 0.65351 0.92541 0.0
C94 C 0.54423 0.70156 0.01043 0.0
C95 C 0.52078 0.70954 0.99535 0.0
C96 C 0.49113 0.6608 0.91341 0.0
C97 C 0.49404 0.68887 0.9476 0.0
C98 C 0.52385 0.73931 0.02988 0.0
C99 C 0.49919 0.66699 0.19559 0.0
C100 C 0.52626 0.67454 0.24195 0.0
C101 C 0.49786 0.69047 0.15565 0.0
C102 C 0.52357 0.72191 0.16129 0.0
C103 C 0.55134 0.70642 0.25018 0.0
C104 C 0.54995 0.7299 0.21035 0.0
C105 C 0.52476 0.74522 0.10888 0.0
C106 C 0.51363 0.8645 0.12288 0.0
C107 C 0.53598 0.88282 0.18318 0.0
C108 C 0.50979 0.83502 0.09582 0.0
C109 C 0.52936 0.82418 0.12599 0.0
C110 C 0.55401 0.87077 0.21642 0.0
C111 C 0.5508 0.84178 0.18793 0.0
C112 C 0.52891 0.79553 0.09087 0.0
C113 C 0.55721 0.8699 0.92692 0.0
C114 C 0.53848 0.86027 0.85801 0.0
C115 C 0.55624 0.8473 0.97419 0.0
C116 C 0.53482 0.81451 0.95667 0.0
C117 C 0.52015 0.82722 0.83623 0.0
C118 C 0.51786 0.80467 0.88559 0.0
C119 C 0.52996 0.79037 0.01146 0.0
H120 H 0.56046 0.66851 0.98504 0.0
H121 H 0.56503 0.71738 0.04736 0.0
H122 H 0.47067 0.64545 0.87501 0.0
H123 H 0.47558 0.69459 0.93634 0.0
H124 H 0.47911 0.64291 0.18986 0.0
H125 H 0.47715 0.68387 0.11843 0.0
H126 H 0.57246 0.713 0.28572 0.0
H127 H 0.57012 0.75394 0.21504 0.0
H128 H 0.49957 0.87316 0.09551 0.0
H129 H 0.49247 0.82135 0.04912 0.0
H130 H 0.5708 0.88387 0.26439 0.0
H131 H 0.56577 0.83361 0.2128 0.0
H132 H 0.57213 0.89497 0.94573 0.0
H133 H 0.57144 0.85571 0.02596 0.0
H134 H 0.50725 0.81852 0.78137 0.0
H135 H 0.50225 0.7795 0.86869 0.0
N136 N 0.52662 0.76199 0.98398 0.0
N137 N 0.5272 0.77314 0.13687 0.0
C138 C 0.87041 0.54301 0.96663 0.0
C139 C 0.86054 0.51874 0.90702 0.0
C140 C 0.84841 0.54543 0.01136 0.0
C141 C 0.81592 0.52342 0.99815 0.0
C142 C 0.82801 0.49699 0.89326 0.0
C143 C 0.806 0.49946 0.93792 0.0
C144 C 0.79192 0.52686 0.04135 0.0
C145 C 0.8451 0.51166 0.23802 0.0
C146 C 0.8549 0.5347 0.30045 0.0
C147 C 0.8272 0.51248 0.1758 0.0
C148 C 0.81953 0.53681 0.17445 0.0
C149 C 0.84817 0.55961 0.29727 0.0
C150 C 0.83089 0.56075 0.23486 0.0
C151 C 0.79466 0.53443 0.12069 0.0
C152 C 0.66984 0.5198 0.199 0.0
C153 C 0.68145 0.54108 0.26514 0.0
C154 C 0.69053 0.51933 0.14607 0.0
C155 C 0.72334 0.5403 0.1579 0.0
C156 C 0.71415 0.56245 0.27572 0.0
C157 C 0.73468 0.56216 0.22282 0.0
C158 C 0.74662 0.53628 0.11271 0.0
C159 C 0.69945 0.56022 0.92332 0.0
C160 C 0.67893 0.53332 0.87378 0.0
C161 C 0.71976 0.55844 0.97746 0.0
C162 C 0.72034 0.52994 0.98207 0.0
C163 C 0.67993 0.50489 0.87825 0.0
C164 C 0.70087 0.50342 0.93114 0.0
C165 C 0.74401 0.52909 0.03339 0.0
H166 H 0.89528 0.56033 0.97844 0.0
H167 H 0.85684 0.56493 0.05523 0.0
H168 H 0.81957 0.47761 0.84903 0.0
H169 H 0.78109 0.48238 0.92572 0.0
H170 H 0.85086 0.49275 0.23772 0.0
H171 H 0.81815 0.49334 0.13083 0.0
H172 H 0.85541 0.57776 0.34415 0.0
H173 H 0.82503 0.57962 0.23549 0.0
H174 H 0.64476 0.50303 0.18892 0.0
H175 H 0.68094 0.50146 0.09825 0.0
H176 H 0.72416 0.57863 0.32656 0.0
H177 H 0.75983 0.57836 0.23443 0.0
H178 H 0.69943 0.58253 0.92105 0.0
H179 H 0.73539 0.57947 0.01484 0.0
H180 H 0.66383 0.48344 0.8428 0.0
H181 H 0.70149 0.4814 0.93323 0.0
N182 N 0.76655 0.5245 1.00115 0.0
N183 N 0.77189 0.53858 0.15227 0.0
C184 C 0.31558 0.85711 0.97884 0.0
C185 C 0.32445 0.84163 0.92341 0.0
C186 C 0.2958 0.83989 0.03476 0.0
C187 C 0.2846 0.80697 0.03568 0.0
C188 C 0.31341 0.80882 0.92481 0.0
C189 C 0.29354 0.79163 0.98016 0.0
C190 C 0.25981 0.78728 0.08584 0.0
C191 C 0.34523 0.84753 0.24937 0.0
C192 C 0.34066 0.8633 0.31268 0.0
C193 C 0.31952 0.8256 0.20022 0.0
C194 C 0.28882 0.81968 0.2123 0.0
C195 C 0.31008 0.85697 0.32602 0.0
C196 C 0.28444 0.83543 0.27631 0.0
C197 C 0.26063 0.79456 0.16507 0.0
C198 C 0.15745 0.70534 0.32134 0.0
C199 C 0.12694 0.69514 0.28944 0.0
C200 C 0.18382 0.72444 0.28213 0.0
C201 C 0.17996 0.73348 0.21054 0.0
C202 C 0.12307 0.70532 0.21948 0.0
C203 C 0.14949 0.72489 0.18084 0.0
C204 C 0.20778 0.75102 0.16645 0.0
C205 C 0.14228 0.6875 0.94385 0.0
C206 C 0.13221 0.65746 0.9711 0.0
C207 C 0.16732 0.71501 0.98197 0.0
C208 C 0.18216 0.7129 0.04865 0.0
C209 C 0.14735 0.65516 0.037 0.0
C210 C 0.17213 0.68277 0.0758 0.0
C211 C 0.20816 0.74222 0.08953 0.0
H212 H 0.32412 0.88252 0.97908 0.0
H213 H 0.28851 0.85205 0.07568 0.0
H214 H 0.31997 0.79644 0.8826 0.0
H215 H 0.28474 0.76614 0.97899 0.0
H216 H 0.36876 0.85228 0.23796 0.0
H217 H 0.32373 0.81289 0.1539 0.0
H218 H 0.30614 0.86927 0.37383 0.0
H219 H 0.26107 0.8311 0.288 0.0
H220 H 0.16079 0.69749 0.37523 0.0
H221 H 0.20712 0.73109 0.30637 0.0
H222 H 0.09966 0.69783 0.19448 0.0
H223 H 0.14605 0.73265 0.12696 0.0
H224 H 0.13103 0.68955 0.89244 0.0
H225 H 0.17482 0.738 0.96004 0.0
H226 H 0.14004 0.63208 0.05815 0.0
H227 H 0.18361 0.68064 0.12669 0.0
N228 N 0.2338 0.76106 0.05179 0.0
N229 N 0.2342 0.77629 0.20167 0.0
C230 C 0.5031 0.14786 0.0605 0.0
C231 C 0.47904 0.11903 0.08483 0.0
C232 C 0.50653 0.17712 0.08813 0.0
C233 C 0.48606 0.17796 0.14065 0.0
C234 C 0.4588 0.12001 0.13801 0.0
C235 C 0.4619 0.14915 0.16453 0.0
C236 C 0.4898 0.2088 0.1708 0.0
C237 C 0.46575 0.15786 0.39959 0.0
C238 C 0.48934 0.14924 0.39989 0.0
C239 C 0.4675 0.18128 0.35408 0.0
C240 C 0.49231 0.1958 0.30631 0.0
C241 C 0.51488 0.16487 0.35416 0.0
C242 C 0.5163 0.18787 0.30763 0.0
C243 C 0.49123 0.21657 0.2496 0.0
C244 C 0.45308 0.31543 0.25578 0.0
C245 C 0.47694 0.34105 0.30248 0.0
C246 C 0.45697 0.28983 0.2308 0.0
C247 C 0.48466 0.28952 0.25267 0.0
C248 C 0.50473 0.34075 0.32383 0.0
C249 C 0.50848 0.31501 0.29937 0.0
C250 C 0.48905 0.26302 0.22404 0.0
C251 C 0.5112 0.33312 0.05638 0.0
C252 C 0.48416 0.32363 0.00794 0.0
C253 C 0.51406 0.31079 0.09756 0.0
C254 C 0.49003 0.27855 0.09087 0.0
C255 C 0.46086 0.29101 0.99854 0.0
C256 C 0.46383 0.26863 0.03952 0.0
C257 C 0.49 0.25662 0.14585 0.0
H258 H 0.51871 0.14771 0.01855 0.0
H259 H 0.52516 0.19907 0.06867 0.0
H260 H 0.44023 0.0982 0.15813 0.0
H261 H 0.44524 0.14914 0.20346 0.0
H262 H 0.44532 0.14574 0.43247 0.0
H263 H 0.44855 0.18679 0.35306 0.0
H264 H 0.53358 0.15902 0.35366 0.0
H265 H 0.5357 0.19891 0.27117 0.0
H266 H 0.43132 0.31504 0.23967 0.0
H267 H 0.4383 0.27014 0.19485 0.0
H268 H 0.52308 0.35993 0.36152 0.0
H269 H 0.52998 0.31506 0.31643 0.0
H270 H 0.53001 0.35785 0.06304 0.0
H271 H 0.53453 0.31889 0.13686 0.0
H272 H 0.4398 0.28295 0.9614 0.0
H273 H 0.44488 0.24394 0.03423 0.0
N274 N 0.48975 0.22935 0.12135 0.0
N275 N 0.49015 0.24314 0.2736 0.0
C276 C 0.97954 0.40925 0.80211 0.0
C277 C 0.07256 0.47573 0.73634 0.0
C278 C 0.03809 0.5628 0.75554 0.0
Mg279 Mg 0.00843 0.43693 0.65219 0.0
O280 O 0.99434 0.46497 0.68753 0.0
Mg281 Mg 0.01418 0.48891 0.78864 0.0
Mg282 Mg 0.00512 0.50169 0.62674 0.0
O283 O 0.01651 0.53857 0.56663 0.0
Mg284 Mg 0.00547 0.56867 0.60372 0.0
Mg285 Mg -0.00261 0.51548 0.46478 0.0
C286 C 0.97621 0.44195 0.49663 0.0
C287 C 0.0565 0.50492 0.50467 0.0
O288 O 0.98942 0.43784 0.83225 0.0
O289 O 0.98443 0.40364 0.73373 0.0
O290 O 0.05847 0.48668 0.77659 0.0
O291 O 0.05856 0.45656 0.67768 0.0
O292 O 0.98793 0.42842 0.53654 0.0
O293 O 0.97616 0.4674 0.52264 0.0
C294 C 0.9552 0.49985 0.75248 0.0
O295 O 0.96212 0.50397 0.68258 0.0
O296 O 0.97098 0.49289 0.79864 0.0
O297 O 0.0222 0.56657 0.42181 0.0
O298 O 0.0293 0.6013 0.52101 0.0
O299 O 0.95287 0.51901 0.47735 0.0
C300 C 0.03281 0.59529 0.45174 0.0
O301 O 0.95598 0.55073 0.5777 0.0
O302 O 0.02741 0.578 0.71873 0.0
C303 C 0.94069 0.53164 0.51959 0.0
O304 O 0.03503 0.53607 0.72859 0.0
O305 O 0.04775 0.49955 0.57281 0.0
O306 O 0.04176 0.5121 0.45581 0.0
C307 C 0.4656 0.01679 0.88378 0.0
C308 C 0.42017 0.93097 0.74304 0.0
C309 C 0.53883 0.9583 0.67934 0.0
Mg310 Mg 0.44851 0.00097 0.70985 0.0
O311 O 0.4893 0.00675 0.71771 0.0
Mg312 Mg 0.49868 0.98057 0.78647 0.0
Mg313 Mg 0.5085 0.0019 0.62501 0.0
O314 O 0.52851 -0.00249 0.53347 0.0
Mg315 Mg 0.56963 0.00378 0.54457 0.0
Mg316 Mg 0.52134 0.02623 0.46854 0.0
C317 C 0.47923 0.04658 0.57485 0.0
C318 C 0.45316 0.96402 0.48658 0.0
O319 O 0.48286 0.00359 0.88247 0.0
O320 O 0.45118 0.01865 0.8243 0.0
O321 O 0.44793 0.93935 0.77027 0.0
O322 O 0.41468 0.95021 0.70756 0.0
O323 O 0.4568 0.03366 0.62008 0.0
O324 O 0.50174 0.04014 0.57284 0.0
C325 C 0.56534 0.04242 0.75863 0.0
O326 O 0.55633 0.04044 0.68866 0.0
O327 O 0.54793 0.02239 0.80405 0.0
O328 O 0.53826 0.00491 0.37259 0.0
O329 O 0.56815 0.98729 0.42892 0.0
O330 O 0.57165 0.06783 0.49248 0.0
C331 C 0.5543 0.99043 0.37002 0.0
O332 O 0.60318 0.05449 0.55445 0.0
O333 O 0.56167 0.97164 0.63546 0.0
C334 C 0.59861 0.07514 0.52315 0.0
O335 O 0.51581 0.96406 0.6795 0.0
O336 O 0.46 0.96385 0.55754 0.0
O337 O 0.47289 0.98516 0.44666 0.0
C338 C 0.53511 0.5793 0.41359 0.0
C339 C 0.58926 0.53489 0.47476 0.0
C340 C 0.4718 0.43102 0.51322 0.0
Mg341 Mg 0.55712 0.56504 0.56614 0.0
O342 O 0.51659 0.52914 0.5471 0.0
Mg343 Mg 0.50914 0.50226 0.45073 0.0
Mg344 Mg 0.50146 0.49651 0.62235 0.0
O345 O 0.48637 0.4641 0.69842 0.0
Mg346 Mg 0.44604 0.42788 0.68183 0.0
Mg347 Mg 0.49421 0.49165 0.79449 0.0
C348 C 0.52847 0.56252 0.72891 0.0
C349 C 0.56267 0.51188 0.73192 0.0
O350 O 0.52043 0.54917 0.39129 0.0
O351 O 0.5502 0.59009 0.47879 0.0
O352 O 0.56157 0.51581 0.44437 0.0
O353 O 0.59383 0.55538 0.52964 0.0
O354 O 0.55008 0.57678 0.68246 0.0
O355 O 0.50606 0.53336 0.71584 0.0
C356 C 0.44049 0.48141 0.51283 0.0
O357 O 0.45061 0.48341 0.5818 0.0
O358 O 0.45851 0.48838 0.45789 0.0
O359 O 0.48386 0.44531 0.85526 0.0
O360 O 0.45468 0.40371 0.76872 0.0
O361 O 0.44228 0.4784 0.80408 0.0
C362 C 0.46985 0.41514 0.8337 0.0
O363 O 0.40957 0.43751 0.72232 0.0
O364 O 0.45145 0.417 0.56272 0.0
C365 C 0.41437 0.45853 0.77618 0.0
O366 O 0.49573 0.45947 0.5274 0.0
O367 O 0.5526 0.50959 0.66272 0.0
O368 O 0.54457 0.50554 0.78642 0.0
C369 C 0.12871 0.52088 0.39965 0.0
C370 C 0.12766 0.49122 0.39632 0.0
C371 C 0.1066 0.52565 0.43874 0.0
C372 C 0.0831 0.50129 0.47787 0.0
H373 H 0.14591 0.54012 0.36902 0.0
H374 H 0.10729 0.54832 0.43645 0.0
S375 S 0.07119 0.41986 0.49054 0.0
N376 N 0.10187 0.43753 0.43839 0.0
N377 N 0.0606 0.44672 0.51233 0.0
C378 C 0.08257 0.47199 0.47767 0.0
C379 C 0.10475 0.4669 0.43676 0.0
C380 C 0.67512 0.12552 0.43645 0.0
C381 C 0.66988 0.14852 0.40388 0.0
C382 C 0.65373 0.10416 0.48437 0.0
C383 C 0.62602 0.10469 0.50067 0.0
H384 H 0.69478 0.12248 0.42089 0.0
H385 H 0.65753 0.08526 0.50263 0.0
S386 S 0.60498 0.16484 0.44412 0.0
N387 N 0.63802 0.1743 0.40276 0.0
N388 N 0.59722 0.13349 0.49114 0.0
C389 C 0.62217 0.12962 0.47485 0.0
C390 C 0.64411 0.15156 0.42648 0.0
C391 C 0.5386 0.6559 0.36024 0.0
C392 C 0.5283 0.64955 0.28303 0.0
C393 C 0.54094 0.63312 0.40086 0.0
C394 C 0.53302 0.60279 0.36632 0.0
H395 H 0.54455 0.67859 0.39002 0.0
H396 H 0.54864 0.63938 0.46052 0.0
S397 S 0.50639 0.57488 0.1637 0.0
N398 N 0.51138 0.61131 0.17211 0.0
N399 N 0.51528 0.56811 0.24897 0.0
C400 C 0.52284 0.59613 0.28877 0.0
C401 C 0.52059 0.61955 0.24711 0.0
C402 C 0.89977 0.56204 0.39941 0.0
C403 C 0.87308 0.53367 0.36788 0.0
C404 C 0.91952 0.56146 0.45726 0.0
C405 C 0.91366 0.53247 0.48456 0.0
H406 H 0.9066 0.58466 0.37626 0.0
H407 H 0.94114 0.58349 0.47558 0.0
S408 S 0.84348 0.45272 0.4338 0.0
N409 N 0.83869 0.47666 0.37875 0.0
N410 N 0.8774 0.47544 0.4841 0.0
C411 C 0.88595 0.50431 0.45792 0.0
C412 C 0.86528 0.50495 0.4003 0.0
C413 C 0.3749 0.88612 0.43527 0.0
C414 C 0.36823 0.88914 0.35914 0.0
C415 C 0.40189 0.91068 0.47781 0.0
C416 C 0.42276 0.93913 0.44562 0.0
H417 H 0.35955 0.8644 0.46141 0.0
H418 H 0.40676 0.90705 0.53541 0.0
S419 S 0.41287 0.95932 0.24976 0.0
N420 N 0.38289 0.9229 0.25493 0.0
N421 N 0.43258 0.96935 0.33339 0.0
C422 C 0.41511 0.94262 0.37003 0.0
C423 C 0.38815 0.91755 0.32718 0.0
C424 C 0.44553 0.3569 0.38235 0.0
C425 C 0.47144 0.36597 0.33792 0.0
C426 C 0.44428 0.3792 0.43363 0.0
C427 C 0.46916 0.41126 0.44304 0.0
H428 H 0.4274 0.33198 0.38209 0.0
H429 H 0.42479 0.37046 0.47018 0.0
S430 S 0.53688 0.44818 0.32128 0.0
N431 N 0.51843 0.40974 0.29257 0.0
N432 N 0.51658 0.45199 0.39 0.0
C433 C 0.49302 0.42126 0.39146 0.0
C434 C 0.49411 0.39846 0.33881 0.0
C435 C 0.56575 0.91455 0.80625 0.0
C436 C 0.53798 0.88476 0.81057 0.0
C437 C 0.56578 0.93848 0.76494 0.0
C438 C 0.53803 0.93374 0.72654 0.0
H439 H 0.58791 0.9194 0.8341 0.0
H440 H 0.58771 0.96086 0.76295 0.0
S441 S 0.46014 0.85926 0.70957 0.0
N442 N 0.48222 0.85169 0.76762 0.0
N443 N 0.48298 0.89636 0.68816 0.0
C444 C 0.51035 0.90405 0.72826 0.0
C445 C 0.51018 0.87963 0.77043 0.0
C446 C 0.63645 0.54686 0.85912 0.0
C447 C 0.6535 0.53354 0.82617 0.0
C448 C 0.60849 0.54209 0.82358 0.0
C449 C 0.59612 0.52352 0.75397 0.0
H450 H 0.6434 0.55917 0.91545 0.0
H451 H 0.59531 0.55133 0.85352 0.0
S452 S 0.63478 0.48906 0.63604 0.0
N453 N 0.65879 0.50556 0.71347 0.0
N454 N 0.60512 0.49581 0.64748 0.0
C455 C 0.61424 0.51264 0.71649 0.0
C456 C 0.64311 0.51767 0.7527 0.0
C457 C 0.07559 0.62198 0.92662 0.0
C458 C 0.10701 0.62858 0.92752 0.0
C459 C 0.05234 0.59825 0.87479 0.0
C460 C 0.05983 0.58038 0.82261 0.0
H461 H 0.06936 0.63635 0.96354 0.0
H462 H 0.02876 0.59508 0.87261 0.0
S463 S 0.13916 0.58977 0.80117 0.0
N464 N 0.14459 0.61583 0.8727 0.0
N465 N 0.10102 0.57124 0.77491 0.0
C466 C 0.09096 0.58591 0.82541 0.0
C467 C 0.11458 0.61012 0.87798 0.0
C468 C 0.49906 0.0829 0.03919 0.0
C469 C 0.47348 0.08812 0.04902 0.0
C470 C 0.49549 0.05691 0.99193 0.0
C471 C 0.46629 0.03563 0.95265 0.0
H472 H 0.52237 0.10003 0.06469 0.0
H473 H 0.51632 0.05526 0.98075 0.0
S474 S 0.39108 0.03604 0.96752 0.0
N475 N 0.41724 0.06781 0.02199 0.0
N476 N 0.4106 0.01884 0.93397 0.0
C477 C 0.43996 0.03887 0.96759 0.0
C478 C 0.44353 0.06522 0.01558 0.0
C479 C 0.36952 0.48274 0.91144 0.0
C480 C 0.34288 0.45334 0.92479 0.0
C481 C 0.39141 0.48445 0.85953 0.0
C482 C 0.38752 0.45692 0.8176 0.0
H483 H 0.37379 0.5047 0.94208 0.0
H484 H 0.41209 0.50752 0.85373 0.0
S485 S 0.32188 0.37397 0.83042 0.0
N486 N 0.31406 0.39589 0.89116 0.0
N487 N 0.35458 0.39932 0.79225 0.0
C488 C 0.36041 0.42751 0.82812 0.0
C489 C 0.33831 0.42567 0.88192 0.0
C490 C 0.93048 0.36226 0.959 0.0
C491 C 0.90907 0.33266 0.92006 0.0
C492 C 0.95452 0.38646 0.9215 0.0
C493 C 0.95809 0.38169 0.84401 0.0
H494 H 0.92759 0.36729 0.01777 0.0
H495 H 0.96957 0.40944 0.95278 0.0
S496 S 0.9099 0.30627 0.72025 0.0
N497 N 0.8942 0.29849 0.80306 0.0
N498 N 0.93958 0.34347 0.73188 0.0
C499 C 0.93795 0.35117 0.80608 0.0
C500 C 0.9133 0.32679 0.84426 0.0
C501 C 0.9103 0.51624 0.90362 0.0
C502 C 0.8844 0.5149 0.8636 0.0
C503 C 0.93271 0.51172 0.86626 0.0
C504 C 0.93059 0.50556 0.78656 0.0
H505 H 0.91304 0.52023 0.96494 0.0
H506 H 0.95202 0.51307 0.90112 0.0
S507 S 0.86791 0.50117 0.65451 0.0
N508 N 0.85833 0.50828 0.73918 0.0
N509 N 0.90051 0.49929 0.66863 0.0
C510 C 0.90509 0.50472 0.74528 0.0
C511 C 0.88198 0.50934 0.78381 0.0
C512 C 0.34037 0.87852 0.81889 0.0
C513 C 0.34687 0.86011 0.86715 0.0
C514 C 0.36318 0.89903 0.77176 0.0
C515 C 0.39353 0.90232 0.77258 0.0
H516 H 0.31789 0.87785 0.81952 0.0
H517 H 0.35769 0.91402 0.73872 0.0
S518 S 0.42109 0.85748 0.88716 0.0
N519 N 0.38448 0.84463 0.90997 0.0
N520 N 0.42766 0.88344 0.82373 0.0
C521 C 0.39939 0.88242 0.81787 0.0
C522 C 0.37605 0.86137 0.86481 0.0
C523 C 0.47076 0.34086 0.88863 0.0
C524 C 0.48035 0.3475 0.96626 0.0
C525 C 0.46714 0.36275 0.84734 0.0
C526 C 0.47304 0.39245 0.88161 0.0
H527 H 0.46648 0.31868 0.85902 0.0
H528 H 0.46013 0.35639 0.78737 0.0
S529 S 0.49666 0.42056 0.0852 0.0
N530 N 0.49407 0.38514 0.07737 0.0
N531 N 0.48787 0.42674 0.99918 0.0
C532 C 0.48237 0.39934 0.95961 0.0
C533 C 0.48587 0.37681 1.00199 0.0
C534 C 0.13963 0.50549 0.88198 0.0
C535 C 0.14583 0.48012 0.88019 0.0
C536 C 0.11876 0.50602 0.82765 0.0
C537 C 0.103 0.48112 0.76973 0.0
H538 H 0.14869 0.52365 0.92927 0.0
H539 H 0.11236 0.52432 0.83622 0.0
S540 S 0.11759 0.41376 0.72863 0.0
N541 N 0.13996 0.43307 0.80696 0.0
N542 N 0.09966 0.43365 0.70528 0.0
C543 C 0.112 0.45777 0.76156 0.0
C544 C 0.13353 0.45726 0.81709 0.0
C545 C 0.64635 0.09352 0.85809 0.0
C546 C 0.64358 0.11844 0.89555 0.0
C547 C 0.62177 0.07001 0.8081 0.0
C548 C 0.59384 0.07092 0.79339 0.0
H549 H 0.66746 0.09193 0.86844 0.0
H550 H 0.62407 0.05033 0.78324 0.0
S551 S 0.57399 0.12977 0.87957 0.0
N552 N 0.61008 0.14176 0.9158 0.0
N553 N 0.56423 0.0978 0.82154 0.0
C554 C 0.59095 0.09583 0.8295 0.0
C555 C 0.61576 0.11959 0.88053 0.0
C556 C 0.52005 0.60427 0.90684 0.0
C557 C 0.51581 0.62824 0.87621 0.0
C558 C 0.52326 0.58192 0.8592 0.0
C559 C 0.52298 0.5837 0.78035 0.0
H560 H 0.52122 0.60307 0.96773 0.0
H561 H 0.52686 0.56391 0.88395 0.0
S562 S 0.51212 0.64149 0.6727 0.0
N563 N 0.51117 0.65199 0.76253 0.0
N564 N 0.51702 0.61014 0.67352 0.0
C565 C 0.51814 0.60711 0.74938 0.0
C566 C 0.51464 0.62944 0.79727 0.0
C567 C 0.49304 0.09974 0.41372 0.0
C568 C 0.48676 0.12324 0.4456 0.0
C569 C 0.49034 0.07475 0.45536 0.0
C570 C 0.48075 0.07206 0.52989 0.0
H571 H 0.49977 0.10045 0.35582 0.0
H572 H 0.49536 0.05723 0.42862 0.0
S573 S 0.46421 0.12865 0.64198 0.0
N574 N 0.4728 0.14329 0.55846 0.0
N575 N 0.4666 0.09575 0.63544 0.0
C576 C 0.47459 0.09541 0.56262 0.0
C577 C 0.47786 0.12112 0.52082 0.0
C578 C 0.36207 0.47746 0.48682 0.0
C579 C 0.34935 0.45745 0.41874 0.0
C580 C 0.39052 0.483 0.523 0.0
C581 C 0.40685 0.46858 0.49201 0.0
H582 H 0.35095 0.49038 0.50973 0.0
H583 H 0.40096 0.50048 0.57156 0.0
S584 S 0.38145 0.41036 0.3231 0.0
N585 N 0.35396 0.42062 0.32723 0.0
N586 N 0.40653 0.43015 0.39703 0.0
C587 C 0.39282 0.44611 0.42888 0.0
C588 C 0.36423 0.44072 0.39168 0.0
C589 C 0.93594 0.37302 0.34674 0.0
C590 C 0.9117 0.37717 0.31502 0.0
C591 C 0.95887 0.39599 0.39977 0.0
C592 C 0.95831 0.42397 0.42415 0.0
H593 H 0.93619 0.35099 0.33364 0.0
H594 H 0.97583 0.39054 0.42558 0.0
S595 S 0.90543 0.45036 0.3408 0.0
N596 N 0.89234 0.4142 0.29907 0.0
N597 N 0.93566 0.45762 0.39927 0.0
C598 C 0.93666 0.43027 0.38555 0.0
C599 C 0.91324 0.40676 0.33091 0.0
C600 C 0.57111 0.93948 0.23518 0.0
C601 C 0.54037 0.91408 0.21369 0.0
C602 C 0.57593 0.96657 0.27963 0.0
C603 C 0.55022 0.96957 0.3021 0.0
H604 H 0.59157 0.93752 0.22171 0.0
H605 H 0.59977 0.98418 0.30102 0.0
S606 S 0.46525 0.91215 0.25266 0.0
N607 N 0.48391 0.89514 0.21291 0.0
N608 N 0.4932 0.94691 0.29323 0.0
C609 C 0.51956 0.94608 0.27429 0.0
C610 C 0.51454 0.91806 0.23071 0.0
C611 C 0.63624 0.51074 0.34747 0.0
C612 C 0.65979 0.54022 0.32432 0.0
C613 C 0.61495 0.50926 0.401 0.0
C614 C 0.61635 0.53714 0.43395 0.0
H615 H 0.634 0.48854 0.32347 0.0
H616 H 0.59675 0.48604 0.4155 0.0
S617 S 0.67344 0.62033 0.39378 0.0
N618 N 0.68316 0.59806 0.3396 0.0
N619 N 0.64355 0.59515 0.44064 0.0
C620 C 0.64046 0.5668 0.41364 0.0
C621 C 0.662 0.56835 0.35869 0.0
C622 C 0.07949 0.64131 0.29092 0.0
C623 C 0.09936 0.67193 0.32712 0.0
C624 C 0.05666 0.61696 0.3305 0.0
C625 C 0.05287 0.62256 0.40743 0.0
H626 H 0.0828 0.63568 0.23296 0.0
H627 H 0.04286 0.5933 0.30138 0.0
S628 S 0.09666 0.70068 0.52346 0.0
N629 N 0.11213 0.70787 0.44032 0.0
N630 N 0.069 0.66256 0.51538 0.0
C631 C 0.07124 0.65399 0.44229 0.0
C632 C 0.09463 0.67856 0.40198 0.0
loop_
_geom_bond_atom_site_label_1
_geom_bond_atom_site_label_2
_geom_bond_distance
_geom_bond_site_symmetry_2
_ccdc_geom_bond_type
C0 C1 1.383 1_554 S
C0 C2 1.384 . S
C0 H28 0.931 . S
C1 C0 1.383 1_556 S
C1 C4 1.382 . S
C2 C0 1.384 . S
C2 C3 1.381 . S
C2 H29 0.930 . S
C3 C2 1.381 . S
C3 C5 1.381 . S
C3 C6 1.487 . S
C4 C1 1.382 . S
C4 C5 1.387 1_556 S
C4 H30 0.930 . S
C5 C3 1.381 . S
C5 C4 1.387 1_554 S
C5 H31 0.931 . S
C6 C3 1.487 . S
C6 C13 1.399 . S
C6 N44 1.343 . S
C7 C8 1.384 . S
C7 C9 1.384 . S
C7 H32 0.931 . S
C8 C7 1.384 . S
C8 C11 1.382 . S
C9 C7 1.384 . S
C9 C10 1.381 . S
C9 H33 0.930 . S
C10 C9 1.381 . S
C10 C12 1.381 . S
C10 C13 1.487 . S
C11 C8 1.382 . S
C11 C12 1.387 . S
C11 H34 0.930 . S
C12 C10 1.381 . S
C12 C11 1.387 . S
C12 H35 0.931 . S
C13 C6 1.399 . S
C13 C10 1.487 . S
C13 N45 1.343 . S
C14 C15 1.384 . S
C14 C16 1.384 . S
C14 H36 0.931 . S
C15 C14 1.384 . S
C15 C18 1.382 . S
C16 C14 1.384 . S
C16 C17 1.381 . S
C16 H37 0.930 . S
C17 C16 1.381 . S
C17 C19 1.381 . S
C17 C20 1.487 . S
C18 C15 1.382 . S
C18 C19 1.387 . S
C18 H38 0.930 . S
C19 C17 1.381 . S
C19 C18 1.387 . S
C19 H39 0.931 . S
C20 C17 1.487 . S
C20 C27 1.399 . S
C20 N45 1.343 . S
C21 C22 1.384 1_554 S
C21 C23 1.384 . S
C21 H40 0.931 . S
C22 C21 1.384 1_556 S
C22 C25 1.382 . S
C23 C21 1.384 . S
C23 C24 1.381 . S
C23 H41 0.930 . S
C24 C23 1.381 . S
C24 C26 1.381 . S
C24 C27 1.487 . S
C25 C22 1.382 . S
C25 C26 1.387 1_556 S
C25 H42 0.930 . S
C26 C24 1.381 . S
C26 C25 1.387 1_554 S
C26 H43 0.931 . S
C27 C20 1.399 . S
C27 C24 1.487 . S
C27 N44 1.343 . S
H28 C0 0.931 . S
H29 C2 0.930 . S
H30 C4 0.930 . S
H31 C5 0.931 . S
H32 C7 0.931 . S
H33 C9 0.930 . S
H34 C11 0.930 . S
H35 C12 0.931 . S
H36 C14 0.931 . S
H37 C16 0.930 . S
H38 C18 0.930 . S
H39 C19 0.931 . S
H40 C21 0.931 . S
H41 C23 0.930 . S
H42 C25 0.930 . S
H43 C26 0.931 . S
N44 C6 1.343 . S
N44 C27 1.343 . S
N45 C13 1.343 . S
N45 C20 1.343 . S
C46 C47 1.384 . S
C46 C48 1.384 . S
C46 H74 0.931 . S
C47 C46 1.384 . S
C47 C50 1.382 . S
C48 C46 1.384 . S
C48 C49 1.381 . S
C48 H75 0.930 . S
C49 C48 1.381 . S
C49 C51 1.381 . S
C49 C52 1.487 . S
C50 C47 1.382 . S
C50 C51 1.387 . S
C50 H76 0.930 . S
C51 C49 1.381 . S
C51 C50 1.387 . S
C51 H77 0.931 . S
C52 C49 1.487 . S
C52 C59 1.399 . S
C52 N90 1.343 . S
C53 C54 1.384 1_554 S
C53 C55 1.384 . S
C53 H78 0.931 . S
C54 C53 1.384 1_556 S
C54 C57 1.382 . S
C55 C53 1.384 . S
C55 C56 1.381 . S
C55 H79 0.930 . S
C56 C55 1.381 . S
C56 C58 1.381 1_554 S
C56 C59 1.487 . S
C57 C54 1.382 . S
C57 C58 1.387 . S
C57 H80 0.930 . S
C58 C56 1.381 1_556 S
C58 C57 1.387 . S
C58 H81 0.931 . S
C59 C52 1.399 . S
C59 C56 1.487 . S
C59 N91 1.343 . S
C60 C61 1.384 1_554 S
C60 C62 1.384 . S
C60 H82 0.931 . S
C61 C60 1.384 1_556 S
C61 C64 1.382 . S
C62 C60 1.384 . S
C62 C63 1.381 . S
C62 H83 0.930 . S
C63 C62 1.381 . S
C63 C65 1.381 . S
C63 C66 1.487 . S
C64 C61 1.382 . S
C64 C65 1.387 1_556 S
C64 H84 0.930 . S
C65 C63 1.381 . S
C65 C64 1.387 1_554 S
C65 H85 0.931 1_554 S
C66 C63 1.487 . S
C66 C73 1.399 . S
C66 N91 1.343 . S
C67 C68 1.384 . S
C67 C69 1.384 . S
C67 H86 0.931 . S
C68 C67 1.384 . S
C68 C71 1.382 . S
C69 C67 1.384 . S
C69 C70 1.381 . S
C69 H87 0.930 . S
C70 C69 1.381 . S
C70 C72 1.381 . S
C70 C73 1.487 . S
C71 C68 1.382 . S
C71 C72 1.387 . S
C71 H88 0.930 . S
C72 C70 1.381 . S
C72 C71 1.387 . S
C72 H89 0.931 . S
C73 C66 1.399 . S
C73 C70 1.487 . S
C73 N90 1.343 . S
H74 C46 0.931 . S
H75 C48 0.930 . S
H76 C50 0.930 . S
H77 C51 0.931 . S
H78 C53 0.931 . S
H79 C55 0.930 . S
H80 C57 0.930 . S
H81 C58 0.931 . S
H82 C60 0.931 . S
H83 C62 0.930 . S
H84 C64 0.930 . S
H85 C65 0.931 1_556 S
H86 C67 0.931 . S
H87 C69 0.930 . S
H88 C71 0.930 . S
H89 C72 0.931 . S
N90 C52 1.343 . S
N90 C73 1.343 . S
N91 C59 1.343 . S
N91 C66 1.343 . S
C92 C93 1.384 . S
C92 C94 1.384 . S
C92 H120 0.931 . S
C93 C92 1.384 . S
C93 C96 1.382 . S
C94 C92 1.384 . S
C94 C95 1.381 . S
C94 H121 0.930 . S
C95 C94 1.381 . S
C95 C97 1.381 . S
C95 C98 1.487 . S
C96 C93 1.382 . S
C96 C97 1.387 . S
C96 H122 0.930 . S
C97 C95 1.381 . S
C97 C96 1.387 . S
C97 H123 0.931 . S
C98 C95 1.487 . S
C98 C105 1.399 1_556 S
C98 N136 1.343 . S
C99 C100 1.384 . S
C99 C101 1.384 . S
C99 H124 0.931 . S
C100 C99 1.384 . S
C100 C103 1.382 . S
C101 C99 1.384 . S
C101 C102 1.381 . S
C101 H125 0.930 . S
C102 C101 1.381 . S
C102 C104 1.381 . S
C102 C105 1.487 . S
C103 C100 1.382 . S
C103 C104 1.387 . S
C103 H126 0.930 . S
C104 C102 1.381 . S
C104 C103 1.387 . S
C104 H127 0.931 . S
C105 C98 1.399 1_554 S
C105 C102 1.487 . S
C105 N137 1.343 . S
C106 C107 1.384 . S
C106 C108 1.384 . S
C106 H128 0.931 . S
C107 C106 1.384 . S
C107 C110 1.382 . S
C108 C106 1.384 . S
C108 C109 1.381 . S
C108 H129 0.930 . S
C109 C108 1.381 . S
C109 C111 1.381 . S
C109 C112 1.487 . S
C110 C107 1.382 . S
C110 C111 1.387 . S
C110 H130 0.930 . S
C111 C109 1.381 . S
C111 C110 1.387 . S
C111 H131 0.931 . S
C112 C109 1.487 . S
C112 C119 1.399 1_554 S
C112 N137 1.343 . S
C113 C114 1.384 . S
C113 C115 1.384 . S
C113 H132 0.931 . S
C114 C113 1.384 . S
C114 C117 1.382 . S
C115 C113 1.384 . S
C115 C116 1.381 . S
C115 H133 0.930 . S
C116 C115 1.381 . S
C116 C118 1.381 . S
C116 C119 1.487 . S
C117 C114 1.382 . S
C117 C118 1.387 . S
C117 H134 0.930 . S
C118 C116 1.381 . S
C118 C117 1.387 . S
C118 H135 0.931 . S
C119 C112 1.399 1_556 S
C119 C116 1.487 . S
C119 N136 1.343 . S
H120 C92 0.931 . S
H121 C94 0.930 . S
H122 C96 0.930 . S
H123 C97 0.931 . S
H124 C99 0.931 . S
H125 C101 0.930 . S
H126 C103 0.930 . S
H127 C104 0.931 . S
H128 C106 0.931 . S
H129 C108 0.930 . S
H130 C110 0.930 . S
H131 C111 0.931 . S
H132 C113 0.931 . S
H133 C115 0.930 . S
H134 C117 0.930 . S
H135 C118 0.931 . S
N136 C98 1.343 . S
N136 C119 1.343 . S
N137 C105 1.343 . S
N137 C112 1.343 . S
C138 C139 1.384 . S
C138 C140 1.384 . S
C138 H166 0.931 . S
C139 C138 1.384 . S
C139 C142 1.382 . S
C140 C138 1.384 . S
C140 C141 1.381 . S
C140 H167 0.930 1_556 S
C141 C140 1.381 . S
C141 C143 1.381 . S
C141 C144 1.487 1_556 S
C142 C139 1.382 . S
C142 C143 1.387 . S
C142 H168 0.930 . S
C143 C141 1.381 . S
C143 C142 1.387 . S
C143 H169 0.931 . S
C144 C141 1.487 1_554 S
C144 C151 1.399 . S
C144 N182 1.343 1_554 S
C145 C146 1.384 . S
C145 C147 1.384 . S
C145 H170 0.931 . S
C146 C145 1.384 . S
C146 C149 1.382 . S
C147 C145 1.384 . S
C147 C148 1.381 . S
C147 H171 0.930 . S
C148 C147 1.381 . S
C148 C150 1.381 . S
C148 C151 1.487 . S
C149 C146 1.382 . S
C149 C150 1.387 . S
C149 H172 0.930 . S
C150 C148 1.381 . S
C150 C149 1.387 . S
C150 H173 0.931 . S
C151 C144 1.399 . S
C151 C148 1.487 . S
C151 N183 1.343 . S
C152 C153 1.384 . S
C152 C154 1.384 . S
C152 H174 0.931 . S
C153 C152 1.384 . S
C153 C156 1.382 . S
C154 C152 1.384 . S
C154 C155 1.381 . S
C154 H175 0.930 . S
C155 C154 1.381 . S
C155 C157 1.381 . S
C155 C158 1.487 . S
C156 C153 1.382 . S
C156 C157 1.387 . S
C156 H176 0.930 . S
C157 C155 1.381 . S
C157 C156 1.387 . S
C157 H177 0.931 . S
C158 C155 1.487 . S
C158 C165 1.399 . S
C158 N183 1.343 . S
C159 C160 1.384 . S
C159 C161 1.384 . S
C159 H178 0.931 . S
C160 C159 1.384 . S
C160 C163 1.382 . S
C161 C159 1.384 . S
C161 C162 1.381 . S
C161 H179 0.930 1_556 S
C162 C161 1.381 . S
C162 C164 1.381 . S
C162 C165 1.487 1_556 S
C163 C160 1.382 . S
C163 C164 1.387 . S
C163 H180 0.930 . S
C164 C162 1.381 . S
C164 C163 1.387 . S
C164 H181 0.931 . S
C165 C158 1.399 . S
C165 C162 1.487 1_554 S
C165 N182 1.343 1_554 S
H166 C138 0.931 . S
H167 C140 0.930 1_554 S
H168 C142 0.930 . S
H169 C143 0.931 . S
H170 C145 0.931 . S
H171 C147 0.930 . S
H172 C149 0.930 . S
H173 C150 0.931 . S
H174 C152 0.931 . S
H175 C154 0.930 . S
H176 C156 0.930 . S
H177 C157 0.931 . S
H178 C159 0.931 . S
H179 C161 0.930 1_554 S
H180 C163 0.930 . S
H181 C164 0.931 . S
N182 C144 1.343 1_556 S
N182 C165 1.343 1_556 S
N183 C151 1.343 . S
N183 C158 1.343 . S
C184 C185 1.384 . S
C184 C186 1.384 1_556 S
C184 H212 0.931 . S
C185 C184 1.384 . S
C185 C188 1.382 . S
C186 C184 1.384 1_554 S
C186 C187 1.381 . S
C186 H213 0.930 . S
C187 C186 1.381 . S
C187 C189 1.381 1_554 S
C187 C190 1.487 . S
C188 C185 1.382 . S
C188 C189 1.387 . S
C188 H214 0.930 . S
C189 C187 1.381 1_556 S
C189 C188 1.387 . S
C189 H215 0.931 . S
C190 C187 1.487 . S
C190 C197 1.399 . S
C190 N228 1.343 . S
C191 C192 1.384 . S
C191 C193 1.384 . S
C191 H216 0.931 . S
C192 C191 1.384 . S
C192 C195 1.382 . S
C193 C191 1.384 . S
C193 C194 1.381 . S
C193 H217 0.930 . S
C194 C193 1.381 . S
C194 C196 1.381 . S
C194 C197 1.487 . S
C195 C192 1.382 . S
C195 C196 1.387 . S
C195 H218 0.930 . S
C196 C194 1.381 . S
C196 C195 1.387 . S
C196 H219 0.931 . S
C197 C190 1.399 . S
C197 C194 1.487 . S
C197 N229 1.343 . S
C198 C199 1.384 . S
C198 C200 1.384 . S
C198 H220 0.931 . S
C199 C198 1.384 . S
C199 C202 1.382 . S
C200 C198 1.384 . S
C200 C201 1.381 . S
C200 H221 0.930 . S
C201 C200 1.381 . S
C201 C203 1.381 . S
C201 C204 1.487 . S
C202 C199 1.382 . S
C202 C203 1.387 . S
C202 H222 0.930 . S
C203 C201 1.381 . S
C203 C202 1.387 . S
C203 H223 0.931 . S
C204 C201 1.487 . S
C204 C211 1.399 . S
C204 N229 1.343 . S
C205 C206 1.384 . S
C205 C207 1.384 1_556 S
C205 H224 0.931 . S
C206 C205 1.384 . S
C206 C209 1.382 . S
C207 C205 1.384 1_554 S
C207 C208 1.381 . S
C207 H225 0.930 . S
C208 C207 1.381 . S
C208 C210 1.381 1_554 S
C208 C211 1.487 . S
C209 C206 1.382 . S
C209 C210 1.387 . S
C209 H226 0.930 . S
C210 C208 1.381 1_556 S
C210 C209 1.387 . S
C210 H227 0.931 . S
C211 C204 1.399 . S
C211 C208 1.487 . S
C211 N228 1.343 . S
H212 C184 0.931 . S
H213 C186 0.930 . S
H214 C188 0.930 . S
H215 C189 0.931 . S
H216 C191 0.931 . S
H217 C193 0.930 . S
H218 C195 0.930 . S
H219 C196 0.931 . S
H220 C198 0.931 . S
H221 C200 0.930 . S
H222 C202 0.930 . S
H223 C203 0.931 . S
H224 C205 0.931 . S
H225 C207 0.930 . S
H226 C209 0.930 . S
H227 C210 0.931 . S
N228 C190 1.343 . S
N228 C211 1.343 . S
N229 C197 1.343 . S
N229 C204 1.343 . S
C230 C231 1.384 . S
C230 C232 1.384 . S
C230 H258 0.931 . S
C231 C230 1.384 . S
C231 C234 1.382 . S
C232 C230 1.384 . S
C232 C233 1.381 . S
C232 H259 0.930 . S
C233 C232 1.381 . S
C233 C235 1.381 . S
C233 C236 1.487 . S
C234 C231 1.382 . S
C234 C235 1.387 . S
C234 H260 0.930 1_554 S
C235 C233 1.381 . S
C235 C234 1.387 . S
C235 H261 0.931 . S
C236 C233 1.487 . S
C236 C243 1.399 . S
C236 N274 1.343 . S
C237 C238 1.384 . S
C237 C239 1.384 . S
C237 H262 0.931 . S
C238 C237 1.384 . S
C238 C241 1.382 . S
C239 C237 1.384 . S
C239 C240 1.381 . S
C239 H263 0.930 . S
C240 C239 1.381 . S
C240 C242 1.381 . S
C240 C243 1.487 . S
C241 C238 1.382 . S
C241 C242 1.387 . S
C241 H264 0.930 . S
C242 C240 1.381 . S
C242 C241 1.387 . S
C242 H265 0.931 . S
C243 C236 1.399 . S
C243 C240 1.487 . S
C243 N275 1.343 . S
C244 C245 1.384 . S
C244 C246 1.384 . S
C244 H266 0.931 . S
C245 C244 1.384 . S
C245 C248 1.382 . S
C246 C244 1.384 . S
C246 C247 1.381 . S
C246 H267 0.930 . S
C247 C246 1.381 . S
C247 C249 1.381 . S
C247 C250 1.487 . S
C248 C245 1.382 . S
C248 C249 1.387 . S
C248 H268 0.930 . S
C249 C247 1.381 . S
C249 C248 1.387 . S
C249 H269 0.931 . S
C250 C247 1.487 . S
C250 C257 1.399 . S
C250 N275 1.343 . S
C251 C252 1.384 . S
C251 C253 1.384 . S
C251 H270 0.931 . S
C252 C251 1.384 . S
C252 C255 1.382 . S
C253 C251 1.384 . S
C253 C254 1.381 . S
C253 H271 0.930 . S
C254 C253 1.381 . S
C254 C256 1.381 . S
C254 C257 1.487 . S
C255 C252 1.382 . S
C255 C256 1.387 . S
C255 H272 0.930 1_554 S
C256 C254 1.381 . S
C256 C255 1.387 . S
C256 H273 0.931 . S
C257 C250 1.399 . S
C257 C254 1.487 . S
C257 N274 1.343 . S
H258 C230 0.931 . S
H259 C232 0.930 . S
H260 C234 0.930 1_556 S
H261 C235 0.931 . S
H262 C237 0.931 . S
H263 C239 0.930 . S
H264 C241 0.930 . S
H265 C242 0.931 . S
H266 C244 0.931 . S
H267 C246 0.930 . S
H268 C248 0.930 . S
H269 C249 0.931 . S
H270 C251 0.931 . S
H271 C253 0.930 . S
H272 C255 0.930 1_556 S
H273 C256 0.931 . S
N274 C236 1.343 . S
N274 C257 1.343 . S
N275 C243 1.343 . S
N275 C250 1.343 . S
C276 O288 1.241 . S
C276 O289 1.280 . S
C277 O290 1.277 . S
C277 O291 1.245 . S
C278 O302 1.247 . S
C278 O304 1.289 . S
Mg279 O280 1.909 . S
Mg279 O289 1.984 . S
Mg279 O291 1.988 1_655 S
Mg279 O292 2.061 . S
O280 Mg279 1.909 . S
O280 Mg281 1.989 1_655 S
O280 Mg282 1.921 1_655 S
Mg281 O280 1.989 1_455 S
Mg281 O288 2.042 1_455 S
Mg281 O290 2.041 . S
Mg281 O296 2.038 1_455 S
Mg281 O304 2.238 . S
Mg282 O280 1.921 1_455 S
Mg282 O283 1.917 . S
Mg282 O293 2.106 1_455 S
Mg282 O295 2.079 1_455 S
Mg282 O304 2.106 . S
Mg282 O305 2.079 . S
O283 Mg282 1.917 . S
O283 Mg284 1.926 . S
O283 Mg285 1.986 . S
Mg284 O283 1.926 . S
Mg284 O298 1.984 . S
Mg284 O301 1.988 1_455 S
Mg284 O302 2.061 . S
Mg285 O283 1.986 . S
Mg285 O293 2.238 1_455 S
Mg285 O297 2.042 . S
Mg285 O299 2.041 1_455 S
Mg285 O306 2.038 . S
C286 O292 1.247 . S
C286 O293 1.289 . S
C287 O305 1.245 . S
C287 O306 1.274 . S
O288 C276 1.241 . S
O288 Mg281 2.042 1_655 S
O289 C276 1.280 . S
O289 Mg279 1.984 . S
O290 C277 1.277 . S
O290 Mg281 2.041 . S
O291 C277 1.245 . S
O291 Mg279 1.988 1_455 S
O292 Mg279 2.061 . S
O292 C286 1.247 . S
O293 Mg282 2.106 1_655 S
O293 Mg285 2.238 1_655 S
O293 C286 1.289 . S
C294 O295 1.245 . S
C294 O296 1.274 . S
O295 Mg282 2.079 1_655 S
O295 C294 1.245 . S
O296 Mg281 2.038 1_655 S
O296 C294 1.274 . S
O297 Mg285 2.042 . S
O297 C300 1.241 . S
O298 Mg284 1.984 . S
O298 C300 1.280 . S
O299 Mg285 2.041 1_655 S
O299 C303 1.277 . S
C300 O297 1.241 . S
C300 O298 1.280 . S
O301 Mg284 1.988 1_655 S
O301 C303 1.245 . S
O302 C278 1.247 . S
O302 Mg284 2.061 . S
C303 O299 1.277 . S
C303 O301 1.245 . S
O304 C278 1.289 . S
O304 Mg281 2.238 . S
O304 Mg282 2.106 . S
O305 Mg282 2.079 . S
O305 C287 1.245 . S
O306 Mg285 2.038 . S
O306 C287 1.274 . S
C307 O319 1.241 . S
C307 O320 1.280 . S
C308 O321 1.277 . S
C308 O322 1.245 . S
C309 O333 1.247 . S
C309 O335 1.289 . S
Mg310 O311 1.926 . S
Mg310 O320 1.984 . S
Mg310 O322 1.988 1_545 S
Mg310 O323 2.061 . S
O311 Mg310 1.926 . S
O311 Mg312 1.986 . S
O311 Mg313 1.917 . S
Mg312 O311 1.986 . S
Mg312 O319 2.042 . S
Mg312 O321 2.041 1_545 S
Mg312 O327 2.038 . S
Mg312 O335 2.238 1_545 S
Mg313 O311 1.917 . S
Mg313 O314 1.917 1_545 S
Mg313 O324 2.106 . S
Mg313 O326 2.079 . S
Mg313 O335 2.106 1_545 S
Mg313 O336 2.079 1_545 S
O314 Mg313 1.917 1_565 S
O314 Mg315 1.926 . S
O314 Mg316 1.986 1_565 S
Mg315 O314 1.926 . S
Mg315 O329 1.984 . S
Mg315 O332 1.988 1_565 S
Mg315 O333 2.061 . S
Mg316 O314 1.986 1_545 S
Mg316 O324 2.238 . S
Mg316 O328 2.042 1_545 S
Mg316 O330 2.041 . S
Mg316 O337 2.038 1_545 S
C317 O323 1.247 . S
C317 O324 1.289 . S
C318 O336 1.245 . S
C318 O337 1.274 . S
O319 C307 1.241 . S
O319 Mg312 2.042 . S
O320 C307 1.280 . S
O320 Mg310 1.984 . S
O321 C308 1.277 . S
O321 Mg312 2.041 1_565 S
O322 C308 1.245 . S
O322 Mg310 1.988 1_565 S
O323 Mg310 2.061 . S
O323 C317 1.247 . S
O324 Mg313 2.106 . S
O324 Mg316 2.238 . S
O324 C317 1.289 . S
C325 O326 1.245 . S
C325 O327 1.274 . S
O326 Mg313 2.079 . S
O326 C325 1.245 . S
O327 Mg312 2.038 . S
O327 C325 1.274 . S
O328 Mg316 2.042 1_565 S
O328 C331 1.241 . S
O329 Mg315 1.984 . S
O329 C331 1.280 . S
O330 Mg316 2.041 . S
O330 C334 1.277 . S
C331 O328 1.241 . S
C331 O329 1.280 . S
O332 Mg315 1.988 1_545 S
O332 C334 1.245 . S
O333 C309 1.247 . S
O333 Mg315 2.061 . S
C334 O330 1.277 . S
C334 O332 1.245 . S
O335 C309 1.289 . S
O335 Mg312 2.238 1_565 S
O335 Mg313 2.106 1_565 S
O336 Mg313 2.079 1_565 S
O336 C318 1.245 . S
O337 Mg316 2.038 1_565 S
O337 C318 1.274 . S
C338 O350 1.241 . S
C338 O351 1.280 . S
C339 O352 1.277 . S
C339 O353 1.245 . S
C340 O364 1.247 . S
C340 O366 1.289 . S
Mg341 O342 1.926 . S
Mg341 O351 1.984 . S
Mg341 O353 1.988 . S
Mg341 O354 2.061 . S
O342 Mg341 1.926 . S
O342 Mg343 1.986 . S
O342 Mg344 1.917 . S
Mg343 O342 1.986 . S
Mg343 O350 2.042 . S
Mg343 O352 2.041 . S
Mg343 O358 2.038 . S
Mg343 O366 2.238 . S
Mg344 O342 1.917 . S
Mg344 O345 1.917 . S
Mg344 O355 2.106 . S
Mg344 O357 2.079 . S
Mg344 O366 2.106 . S
Mg344 O367 2.079 . S
O345 Mg344 1.917 . S
O345 Mg346 1.926 . S
O345 Mg347 1.986 . S
Mg346 O345 1.926 . S
Mg346 O360 1.984 . S
Mg346 O363 1.988 . S
Mg346 O364 2.061 . S
Mg347 O345 1.986 . S
Mg347 O355 2.238 . S
Mg347 O359 2.042 . S
Mg347 O361 2.041 . S
Mg347 O368 2.038 . S
C348 O354 1.247 . S
C348 O355 1.289 . S
C349 O367 1.245 . S
C349 O368 1.274 . S
O350 C338 1.241 . S
O350 Mg343 2.042 . S
O351 C338 1.280 . S
O351 Mg341 1.984 . S
O352 C339 1.277 . S
O352 Mg343 2.041 . S
O353 C339 1.245 . S
O353 Mg341 1.988 . S
O354 Mg341 2.061 . S
O354 C348 1.247 . S
O355 Mg344 2.106 . S
O355 Mg347 2.238 . S
O355 C348 1.289 . S
C356 O357 1.245 . S
C356 O358 1.274 . S
O357 Mg344 2.079 . S
O357 C356 1.245 . S
O358 Mg343 2.038 . S
O358 C356 1.274 . S
O359 Mg347 2.042 . S
O359 C362 1.241 . S
O360 Mg346 1.984 . S
O360 C362 1.280 . S
O361 Mg347 2.041 . S
O361 C365 1.277 . S
C362 O359 1.241 . S
C362 O360 1.280 . S
O363 Mg346 1.988 . S
O363 C365 1.245 . S
O364 C340 1.247 . S
O364 Mg346 2.061 . S
C365 O361 1.277 . S
C365 O363 1.245 . S
O366 C340 1.289 . S
O366 Mg343 2.238 . S
O366 Mg344 2.106 . S
O367 Mg344 2.079 . S
O367 C349 1.245 . S
O368 Mg347 2.038 . S
O368 C349 1.274 . S
C369 C370 1.369 . S
C369 C371 1.419 . S
C369 H373 0.930 . S
C370 C369 1.369 . S
C370 C379 1.429 . S
C371 C369 1.419 . S
C371 C372 1.363 . S
C371 H374 0.929 . S
C372 C371 1.363 . S
C372 C378 1.428 . S
H373 C369 0.930 . S
H374 C371 0.929 . S
S375 N376 1.613 . S
S375 N377 1.610 . S
N376 S375 1.613 . S
N376 C379 1.350 . S
N377 S375 1.610 . S
N377 C378 1.351 . S
C378 C372 1.428 . S
C378 N377 1.351 . S
C378 C379 1.434 . S
C379 C370 1.429 . S
C379 N376 1.350 . S
C379 C378 1.434 . S
C380 C381 1.369 . S
C380 C382 1.419 . S
C380 H384 0.930 . S
C381 C380 1.369 . S
C381 C390 1.429 . S
C382 C380 1.419 . S
C382 C383 1.363 . S
C382 H385 0.929 . S
C383 C382 1.363 . S
C383 C389 1.428 . S
H384 C380 0.930 . S
H385 C382 0.929 . S
S386 N387 1.613 . S
S386 N388 1.610 . S
N387 S386 1.613 . S
N387 C390 1.350 . S
N388 S386 1.610 . S
N388 C389 1.351 . S
C389 C383 1.428 . S
C389 N388 1.351 . S
C389 C390 1.434 . S
C390 C381 1.429 . S
C390 N387 1.350 . S
C390 C389 1.434 . S
C391 C392 1.369 . S
C391 C393 1.419 . S
C391 H395 0.930 . S
C392 C391 1.369 . S
C392 C401 1.429 . S
C393 C391 1.419 . S
C393 C394 1.363 . S
C393 H396 0.929 . S
C394 C393 1.363 . S
C394 C400 1.428 . S
H395 C391 0.930 . S
H396 C393 0.929 . S
S397 N398 1.613 . S
S397 N399 1.610 . S
N398 S397 1.613 . S
N398 C401 1.350 . S
N399 S397 1.610 . S
N399 C400 1.351 . S
C400 C394 1.428 . S
C400 N399 1.351 . S
C400 C401 1.434 . S
C401 C392 1.429 . S
C401 N398 1.350 . S
C401 C400 1.434 . S
C402 C403 1.369 . S
C402 C404 1.419 . S
C402 H406 0.930 . S
C403 C402 1.369 . S
C403 C412 1.429 . S
C404 C402 1.419 . S
C404 C405 1.363 . S
C404 H407 0.929 . S
C405 C404 1.363 . S
C405 C411 1.428 . S
H406 C402 0.930 . S
H407 C404 0.929 . S
S408 N409 1.613 . S
S408 N410 1.610 . S
N409 S408 1.613 . S
N409 C412 1.350 . S
N410 S408 1.610 . S
N410 C411 1.351 . S
C411 C405 1.428 . S
C411 N410 1.351 . S
C411 C412 1.434 . S
C412 C403 1.429 . S
C412 N409 1.350 . S
C412 C411 1.434 . S
C413 C414 1.369 . S
C413 C415 1.419 . S
C413 H417 0.930 . S
C414 C413 1.369 . S
C414 C423 1.429 . S
C415 C413 1.419 . S
C415 C416 1.363 . S
C415 H418 0.929 . S
C416 C415 1.363 . S
C416 C422 1.428 . S
H417 C413 0.930 . S
H418 C415 0.929 . S
S419 N420 1.613 . S
S419 N421 1.610 . S
N420 S419 1.613 . S
N420 C423 1.350 . S
N421 S419 1.610 . S
N421 C422 1.351 . S
C422 C416 1.428 . S
C422 N421 1.351 . S
C422 C423 1.434 . S
C423 C414 1.429 . S
C423 N420 1.350 . S
C423 C422 1.434 . S
C424 C425 1.369 . S
C424 C426 1.419 . S
C424 H428 0.930 . S
C425 C424 1.369 . S
C425 C434 1.429 . S
C426 C424 1.419 . S
C426 C427 1.363 . S
C426 H429 0.929 . S
C427 C426 1.363 . S
C427 C433 1.428 . S
H428 C424 0.930 . S
H429 C426 0.929 . S
S430 N431 1.613 . S
S430 N432 1.610 . S
N431 S430 1.613 . S
N431 C434 1.350 . S
N432 S430 1.610 . S
N432 C433 1.351 . S
C433 C427 1.428 . S
C433 N432 1.351 . S
C433 C434 1.434 . S
C434 C425 1.429 . S
C434 N431 1.350 . S
C434 C433 1.434 . S
C435 C436 1.369 . S
C435 C437 1.419 . S
C435 H439 0.930 . S
C436 C435 1.369 . S
C436 C445 1.429 . S
C437 C435 1.419 . S
C437 C438 1.363 . S
C437 H440 0.929 . S
C438 C437 1.363 . S
C438 C444 1.428 . S
H439 C435 0.930 . S
H440 C437 0.929 . S
S441 N442 1.613 . S
S441 N443 1.610 . S
N442 S441 1.613 . S
N442 C445 1.350 . S
N443 S441 1.610 . S
N443 C444 1.351 . S
C444 C438 1.428 . S
C444 N443 1.351 . S
C444 C445 1.434 . S
C445 C436 1.429 . S
C445 N442 1.350 . S
C445 C444 1.434 . S
C446 C447 1.369 . S
C446 C448 1.419 . S
C446 H450 0.930 . S
C447 C446 1.369 . S
C447 C456 1.429 . S
C448 C446 1.419 . S
C448 C449 1.363 . S
C448 H451 0.929 . S
C449 C448 1.363 . S
C449 C455 1.428 . S
H450 C446 0.930 . S
H451 C448 0.929 . S
S452 N453 1.613 . S
S452 N454 1.610 . S
N453 S452 1.613 . S
N453 C456 1.350 . S
N454 S452 1.610 . S
N454 C455 1.351 . S
C455 C449 1.428 . S
C455 N454 1.351 . S
C455 C456 1.434 . S
C456 C447 1.429 . S
C456 N453 1.350 . S
C456 C455 1.434 . S
C457 C458 1.369 . S
C457 C459 1.419 . S
C457 H461 0.930 . S
C458 C457 1.369 . S
C458 C467 1.429 . S
C459 C457 1.419 . S
C459 C460 1.363 . S
C459 H462 0.929 . S
C460 C459 1.363 . S
C460 C466 1.428 . S
H461 C457 0.930 . S
H462 C459 0.929 . S
S463 N464 1.613 . S
S463 N465 1.610 . S
N464 S463 1.613 . S
N464 C467 1.350 . S
N465 S463 1.610 . S
N465 C466 1.351 . S
C466 C460 1.428 . S
C466 N465 1.351 . S
C466 C467 1.434 . S
C467 C458 1.429 . S
C467 N464 1.350 . S
C467 C466 1.434 . S
C468 C469 1.369 1_554 S
C468 C470 1.419 1_554 S
C468 H472 0.930 . S
C469 C468 1.369 1_556 S
C469 C478 1.429 . S
C470 C468 1.419 1_556 S
C470 C471 1.363 . S
C470 H473 0.929 . S
C471 C470 1.363 . S
C471 C477 1.428 . S
H472 C468 0.930 . S
H473 C470 0.929 . S
S474 N475 1.613 . S
S474 N476 1.610 . S
N475 S474 1.613 . S
N475 C478 1.350 . S
N476 S474 1.610 . S
N476 C477 1.351 . S
C477 C471 1.428 . S
C477 N476 1.351 . S
C477 C478 1.434 . S
C478 C469 1.429 . S
C478 N475 1.350 . S
C478 C477 1.434 . S
C479 C480 1.369 . S
C479 C481 1.419 . S
C479 H483 0.930 . S
C480 C479 1.369 . S
C480 C489 1.429 . S
C481 C479 1.419 . S
C481 C482 1.363 . S
C481 H484 0.929 . S
C482 C481 1.363 . S
C482 C488 1.428 . S
H483 C479 0.930 . S
H484 C481 0.929 . S
S485 N486 1.613 . S
S485 N487 1.610 . S
N486 S485 1.613 . S
N486 C489 1.350 . S
N487 S485 1.610 . S
N487 C488 1.351 . S
C488 C482 1.428 . S
C488 N487 1.351 . S
C488 C489 1.434 . S
C489 C480 1.429 . S
C489 N486 1.350 . S
C489 C488 1.434 . S
C490 C491 1.369 . S
C490 C492 1.419 . S
C490 H494 0.930 1_556 S
C491 C490 1.369 . S
C491 C500 1.429 . S
C492 C490 1.419 . S
C492 C493 1.363 . S
C492 H495 0.929 . S
C493 C492 1.363 . S
C493 C499 1.428 . S
H494 C490 0.930 1_554 S
H495 C492 0.929 . S
S496 N497 1.613 . S
S496 N498 1.610 . S
N497 S496 1.613 . S
N497 C500 1.350 . S
N498 S496 1.610 . S
N498 C499 1.351 . S
C499 C493 1.428 . S
C499 N498 1.351 . S
C499 C500 1.434 . S
C500 C491 1.429 . S
C500 N497 1.350 . S
C500 C499 1.434 . S
C501 C502 1.369 . S
C501 C503 1.419 . S
C501 H505 0.930 . S
C502 C501 1.369 . S
C502 C511 1.429 . S
C503 C501 1.419 . S
C503 C504 1.363 . S
C503 H506 0.929 . S
C504 C503 1.363 . S
C504 C510 1.428 . S
H505 C501 0.930 . S
H506 C503 0.929 . S
S507 N508 1.613 . S
S507 N509 1.610 . S
N508 S507 1.613 . S
N508 C511 1.350 . S
N509 S507 1.610 . S
N509 C510 1.351 . S
C510 C504 1.428 . S
C510 N509 1.351 . S
C510 C511 1.434 . S
C511 C502 1.429 . S
C511 N508 1.350 . S
C511 C510 1.434 . S
C512 C513 1.369 . S
C512 C514 1.419 . S
C512 H516 0.930 . S
C513 C512 1.369 . S
C513 C522 1.429 . S
C514 C512 1.419 . S
C514 C515 1.363 . S
C514 H517 0.929 . S
C515 C514 1.363 . S
C515 C521 1.428 . S
H516 C512 0.930 . S
H517 C514 0.929 . S
S518 N519 1.613 . S
S518 N520 1.610 . S
N519 S518 1.613 . S
N519 C522 1.350 . S
N520 S518 1.610 . S
N520 C521 1.351 . S
C521 C515 1.428 . S
C521 N520 1.351 . S
C521 C522 1.434 . S
C522 C513 1.429 . S
C522 N519 1.350 . S
C522 C521 1.434 . S
C523 C524 1.369 . S
C523 C525 1.419 . S
C523 H527 0.930 . S
C524 C523 1.369 . S
C524 C533 1.429 . S
C525 C523 1.419 . S
C525 C526 1.363 . S
C525 H528 0.929 . S
C526 C525 1.363 . S
C526 C532 1.428 . S
H527 C523 0.930 . S
H528 C525 0.929 . S
S529 N530 1.613 . S
S529 N531 1.610 1_554 S
N530 S529 1.613 . S
N530 C533 1.350 1_554 S
N531 S529 1.610 1_556 S
N531 C532 1.351 . S
C532 C526 1.428 . S
C532 N531 1.351 . S
C532 C533 1.434 . S
C533 C524 1.429 . S
C533 N530 1.350 1_556 S
C533 C532 1.434 . S
C534 C535 1.369 . S
C534 C536 1.419 . S
C534 H538 0.930 1_556 S
C535 C534 1.369 . S
C535 C544 1.429 . S
C536 C534 1.419 . S
C536 C537 1.363 . S
C536 H539 0.929 . S
C537 C536 1.363 . S
C537 C543 1.428 . S
H538 C534 0.930 1_554 S
H539 C536 0.929 . S
S540 N541 1.613 . S
S540 N542 1.610 . S
N541 S540 1.613 . S
N541 C544 1.350 . S
N542 S540 1.610 . S
N542 C543 1.351 . S
C543 C537 1.428 . S
C543 N542 1.351 . S
C543 C544 1.434 . S
C544 C535 1.429 . S
C544 N541 1.350 . S
C544 C543 1.434 . S
C545 C546 1.369 . S
C545 C547 1.419 . S
C545 H549 0.930 . S
C546 C545 1.369 . S
C546 C555 1.429 . S
C547 C545 1.419 . S
C547 C548 1.363 . S
C547 H550 0.929 . S
C548 C547 1.363 . S
C548 C554 1.428 . S
H549 C545 0.930 . S
H550 C547 0.929 . S
S551 N552 1.613 . S
S551 N553 1.610 . S
N552 S551 1.613 . S
N552 C555 1.350 . S
N553 S551 1.610 . S
N553 C554 1.351 . S
C554 C548 1.428 . S
C554 N553 1.351 . S
C554 C555 1.434 . S
C555 C546 1.429 . S
C555 N552 1.350 . S
C555 C554 1.434 . S
C556 C557 1.369 . S
C556 C558 1.419 . S
C556 H560 0.930 . S
C557 C556 1.369 . S
C557 C566 1.429 . S
C558 C556 1.419 . S
C558 C559 1.363 . S
C558 H561 0.929 . S
C559 C558 1.363 . S
C559 C565 1.428 . S
H560 C556 0.930 . S
H561 C558 0.929 . S
S562 N563 1.613 . S
S562 N564 1.610 . S
N563 S562 1.613 . S
N563 C566 1.350 . S
N564 S562 1.610 . S
N564 C565 1.351 . S
C565 C559 1.428 . S
C565 N564 1.351 . S
C565 C566 1.434 . S
C566 C557 1.429 . S
C566 N563 1.350 . S
C566 C565 1.434 . S
C567 C568 1.369 . S
C567 C569 1.419 . S
C567 H571 0.930 . S
C568 C567 1.369 . S
C568 C577 1.429 . S
C569 C567 1.419 . S
C569 C570 1.363 . S
C569 H572 0.929 . S
C570 C569 1.363 . S
C570 C576 1.428 . S
H571 C567 0.930 . S
H572 C569 0.929 . S
S573 N574 1.613 . S
S573 N575 1.610 . S
N574 S573 1.613 . S
N574 C577 1.350 . S
N575 S573 1.610 . S
N575 C576 1.351 . S
C576 C570 1.428 . S
C576 N575 1.351 . S
C576 C577 1.434 . S
C577 C568 1.429 . S
C577 N574 1.350 . S
C577 C576 1.434 . S
C578 C579 1.369 . S
C578 C580 1.419 . S
C578 H582 0.930 . S
C579 C578 1.369 . S
C579 C588 1.429 . S
C580 C578 1.419 . S
C580 C581 1.363 . S
C580 H583 0.929 . S
C581 C580 1.363 . S
C581 C587 1.428 . S
H582 C578 0.930 . S
H583 C580 0.929 . S
S584 N585 1.613 . S
S584 N586 1.610 . S
N585 S584 1.613 . S
N585 C588 1.350 . S
N586 S584 1.610 . S
N586 C587 1.351 . S
C587 C581 1.428 . S
C587 N586 1.351 . S
C587 C588 1.434 . S
C588 C579 1.429 . S
C588 N585 1.350 . S
C588 C587 1.434 . S
C589 C590 1.369 . S
C589 C591 1.419 . S
C589 H593 0.930 . S
C590 C589 1.369 . S
C590 C599 1.429 . S
C591 C589 1.419 . S
C591 C592 1.363 . S
C591 H594 0.929 . S
C592 C591 1.363 . S
C592 C598 1.428 . S
H593 C589 0.930 . S
H594 C591 0.929 . S
S595 N596 1.613 . S
S595 N597 1.610 . S
N596 S595 1.613 . S
N596 C599 1.350 . S
N597 S595 1.610 . S
N597 C598 1.351 . S
C598 C592 1.428 . S
C598 N597 1.351 . S
C598 C599 1.434 . S
C599 C590 1.429 . S
C599 N596 1.350 . S
C599 C598 1.434 . S
C600 C601 1.369 . S
C600 C602 1.419 . S
C600 H604 0.930 . S
C601 C600 1.369 . S
C601 C610 1.429 . S
C602 C600 1.419 . S
C602 C603 1.363 . S
C602 H605 0.929 . S
C603 C602 1.363 . S
C603 C609 1.428 . S
H604 C600 0.930 . S
H605 C602 0.929 . S
S606 N607 1.613 . S
S606 N608 1.610 . S
N607 S606 1.613 . S
N607 C610 1.350 . S
N608 S606 1.610 . S
N608 C609 1.351 . S
C609 C603 1.428 . S
C609 N608 1.351 . S
C609 C610 1.434 . S
C610 C601 1.429 . S
C610 N607 1.350 . S
C610 C609 1.434 . S
C611 C612 1.369 . S
C611 C613 1.419 . S
C611 H615 0.930 . S
C612 C611 1.369 . S
C612 C621 1.429 . S
C613 C611 1.419 . S
C613 C614 1.363 . S
C613 H616 0.929 . S
C614 C613 1.363 . S
C614 C620 1.428 . S
H615 C611 0.930 . S
H616 C613 0.929 . S
S617 N618 1.613 . S
S617 N619 1.610 . S
N618 S617 1.613 . S
N618 C621 1.350 . S
N619 S617 1.610 . S
N619 C620 1.351 . S
C620 C614 1.428 . S
C620 N619 1.351 . S
C620 C621 1.434 . S
C621 C612 1.429 . S
C621 N618 1.350 . S
C621 C620 1.434 . S
C622 C623 1.369 . S
C622 C624 1.419 . S
C622 H626 0.930 . S
C623 C622 1.369 . S
C623 C632 1.429 . S
C624 C622 1.419 . S
C624 C625 1.363 . S
C624 H627 0.929 . S
C625 C624 1.363 . S
C625 C631 1.428 . S
H626 C622 0.930 . S
H627 C624 0.929 . S
S628 N629 1.613 . S
S628 N630 1.610 . S
N629 S628 1.613 . S
N629 C632 1.350 . S
N630 S628 1.610 . S
N630 C631 1.351 . S
C631 C625 1.428 . S
C631 N630 1.351 . S
C631 C632 1.434 . S
C632 C623 1.429 . S
C632 N629 1.350 . S
C632 C631 1.434 . S
C370 C15 1.888 . S
C372 C287 1.834 . S
C381 C47 1.604 . S
C383 C334 1.571 . S
C394 C338 1.723 . S
C392 C100 1.804 . S
C405 C303 1.483 . S
C403 C146 1.533 . S
C414 C192 1.845 . S
C416 C318 1.750 . S
C427 C340 1.146 . S
C425 C245 1.186 . S
C438 C309 1.507 . S
C436 C114 1.562 . S
C447 C160 1.495 . S
C449 C349 1.475 . S
C460 C278 1.408 . S
C458 C206 1.481 . S
C469 C231 1.462 1_556 S
C471 C307 1.394 . S
C480 C1 1.887 . S
C482 C365 1.810 . S
C493 C276 1.487 . S
C491 C61 1.539 . S
C504 C294 1.839 . S
C502 C139 1.886 . S
C515 C308 1.566 . S
C513 C185 1.595 . S
C526 C362 1.719 . S
C524 C252 1.807 1_556 S
C537 C277 1.482 . S
C535 C22 1.534 . S
C548 C325 1.749 . S
C546 C54 1.825 . S
C557 C93 1.186 . S
C559 C348 1.150 . S
C570 C317 1.498 . S
C568 C238 1.570 . S
C581 C356 1.468 . S
C579 C8 1.495 . S
C592 C286 1.408 . S
C590 C68 1.498 . S
C603 C331 1.400 . S
C601 C107 1.459 . S
C612 C153 1.885 . S
C614 C339 1.813 . S
C623 C199 1.546 . S
C625 C300 1.493 . S
