# Generated by pormake.
# Topology anh, (6,3)-cn, num edge types: 1
# Building blocks:
#     Node 0, Type 0, BuildingBlock: BETDAH_clean_sbu_0, # of connection points: 6
#     Node 1, Type 0, BuildingBlock: BETDAH_clean_sbu_0, # of connection points: 6
#     Node 2, Type 0, BuildingBlock: BETDAH_clean_sbu_0, # of connection points: 6
#     Node 3, Type 1, BuildingBlock: BELTOD_clean_linker_0, # of connection points: 3
#     Node 4, Type 1, BuildingBlock: BELTOD_clean_linker_0, # of connection points: 3
#     Node 5, Type 1, BuildingBlock: BELTOD_clean_linker_0, # of connection points: 3
#     Node 6, Type 1, BuildingBlock: BELTOD_clean_linker_0, # of connection points: 3
#     Node 7, Type 1, BuildingBlock: BELTOD_clean_linker_0, # of connection points: 3
#     Node 8, Type 1, BuildingBlock: BELTOD_clean_linker_0, # of connection points: 3
#     Edge 9, Type (0, 1), None
#     Edge 10, Type (0, 1), None
#     Edge 11, Type (0, 1), None
#     Edge 12, Type (0, 1), None
#     Edge 13, Type (0, 1), None
#     Edge 14, Type (0, 1), None
#     Edge 15, Type (0, 1), None
#     Edge 16, Type (0, 1), None
#     Edge 17, Type (0, 1), None
#     Edge 18, Type (0, 1), None
#     Edge 19, Type (0, 1), None
#     Edge 20, Type (0, 1), None
#     Edge 21, Type (0, 1), None
#     Edge 22, Type (0, 1), None
#     Edge 23, Type (0, 1), None
#     Edge 24, Type (0, 1), None
#     Edge 25, Type (0, 1), None
#     Edge 26, Type (0, 1), None
# Relax obj value: 0.322
# Max RMSD: 0.278
# Mean RMSD: 0.183
data_MOF--net-anh--node1-BETDAH_clean_sbu_0--node2-BELTOD_clean_linker_0--edge1-none
_symmetry_space_group_name_H-M    P1
_symmetry_Int_Tables_number       1
_symmetry_cell_setting            triclinic
loop_
_symmetry_equiv_pos_as_xyz
'x, y, z'
_cell_length_a     19.647922
_cell_length_b     24.291412
_cell_length_c     31.781058
_cell_angle_alpha  92.267263
_cell_angle_beta   89.362277
_cell_angle_gamma 134.06672
loop_
_atom_site_label
_atom_site_type_symbol
_atom_site_fract_x
_atom_site_fract_y
_atom_site_fract_z
_atom_type_partial_charge
Ho0 Ho 0.23115 0.589 0.13278 0.0
Ho1 Ho 0.11682 0.62183 0.15446 0.0
C2 C 0.34411 0.76919 0.14655 0.0
C3 C 0.31727 0.55513 0.09944 0.0
C4 C 0.28313 0.47865 0.09794 0.0
C5 C 0.33468 0.4677 0.11911 0.0
C6 C 0.29915 0.39447 0.1211 0.0
C7 C 0.21162 0.33058 0.10154 0.0
C8 C 0.15899 0.34128 0.08105 0.0
C9 C 0.19409 0.41458 0.07948 0.0
C10 C 0.18863 0.57488 0.21534 0.0
C11 C 1.00915 0.44463 0.14709 0.0
C12 C 1.02099 0.6478 0.1871 0.0
C13 C 0.91719 0.59158 0.19045 0.0
C14 C 0.86814 0.51924 0.20663 0.0
C15 C 0.77142 0.45812 0.19847 0.0
C16 C 0.72204 0.46827 0.17416 0.0
C17 C 0.76901 0.54236 0.1618 0.0
C18 C 0.86602 0.6036 0.16989 0.0
C19 C 0.10652 0.58131 0.07157 0.0
O20 O 0.35062 0.71905 0.13774 0.0
O21 O 0.26051 0.74547 0.15354 0.0
O22 O 0.26758 0.56143 0.07706 0.0
O23 O 0.34068 0.58867 0.13705 0.0
O24 O 0.18721 0.52791 0.1936 0.0
O25 O 0.21409 0.62747 0.19249 0.0
O26 O 1.0124 0.49472 0.16798 0.0
O27 O 1.08224 0.46997 0.12418 0.0
O28 O 1.05238 0.66595 0.14861 0.0
O29 O 1.06355 0.63484 0.2097 0.0
O30 O 1.03397 0.55623 0.0932 0.0
O31 O 0.17974 0.62694 0.09472 0.0
H32 H 0.40254 0.51585 0.13413 0.0
H33 H 0.34274 0.38867 0.13635 0.0
H34 H 0.09202 0.29331 0.06536 0.0
H35 H 0.15136 0.42083 0.06367 0.0
H36 H 0.90535 0.50797 0.22285 0.0
H37 H 0.73658 0.40186 0.20883 0.0
H38 H 0.7328 0.55181 0.14275 0.0
H39 H 0.90231 0.65868 0.15706 0.0
Ho40 Ho 0.75357 0.09285 0.46083 0.0
Ho41 Ho 0.62363 0.11209 0.45367 0.0
C42 C 0.526 0.94022 0.4492 0.0
C43 C 0.84264 0.05538 0.48315 0.0
C44 C 0.81934 0.99016 0.50248 0.0
C45 C 0.73598 0.91412 0.49143 0.0
C46 C 0.71547 0.85328 0.5106 0.0
C47 C 0.7781 0.86758 0.5411 0.0
C48 C 0.86115 0.94398 0.55217 0.0
C49 C 0.88138 1.0046 0.53307 0.0
C50 C 0.73447 0.11654 0.38128 0.0
C51 C 0.85456 0.26652 0.45631 0.0
C52 C 0.53963 0.15757 0.44095 0.0
C53 C 0.55309 0.2206 0.46145 0.0
C54 C 0.59404 0.28615 0.43926 0.0
C55 C 0.61742 0.34972 0.45978 0.0
C56 C 0.59973 0.34885 0.50289 0.0
C57 C 0.55495 0.28195 0.52457 0.0
C58 C 0.53199 0.21865 0.50415 0.0
C59 C 0.64974 0.09274 0.5338 0.0
O60 O 0.60734 0.97082 0.46719 0.0
O61 O 0.51924 0.98605 0.43358 0.0
O62 O 0.81003 0.04394 0.4449 0.0
O63 O 0.83472 0.09513 0.50754 0.0
O64 O 0.81362 0.14582 0.39862 0.0
O65 O 0.66708 0.07324 0.40641 0.0
O66 O 0.76793 0.23607 0.44748 0.0
O67 O 0.86705 0.22204 0.46716 0.0
O68 O 0.50493 0.10005 0.46411 0.0
O69 O 0.6095 0.17833 0.41816 0.0
O70 O 0.56972 0.06372 0.51821 0.0
O71 O 0.71295 0.13417 0.50704 0.0
H72 H 0.68712 0.9018 0.46787 0.0
H73 H 0.65061 0.79514 0.5016 0.0
H74 H 0.91182 0.95706 0.57493 0.0
H75 H 0.94604 0.06294 0.542 0.0
H76 H 0.61061 0.28912 0.4063 0.0
H77 H 0.65078 0.40004 0.44205 0.0
H78 H 0.54132 0.27959 0.55788 0.0
H79 H 0.50055 0.16923 0.52235 0.0
Ho80 Ho 0.63541 0.57148 0.86367 0.0
Ho81 Ho 0.50037 0.40181 0.84759 0.0
C82 C 0.40631 0.48117 0.86099 0.0
C83 C 0.75195 0.71694 0.85186 0.0
C84 C 0.73909 0.76409 0.8322 0.0
C85 C 0.68489 0.73869 0.79478 0.0
C86 C 0.67271 0.78329 0.77667 0.0
C87 C 0.71339 0.85417 0.79573 0.0
C88 C 0.76703 0.87911 0.83337 0.0
C89 C 0.77981 0.83474 0.85127 0.0
C90 C 0.57245 0.48647 0.93259 0.0
C91 C 0.732 0.49426 0.85939 0.0
C92 C 0.39251 0.25546 0.84338 0.0
C93 C 0.42177 0.21383 0.83433 0.0
C94 C 0.50148 0.23652 0.85501 0.0
C95 C 0.54085 0.2086 0.84077 0.0
C96 C 0.50172 0.15718 0.80552 0.0
C97 C 0.4186 0.13082 0.78642 0.0
C98 C 0.37934 0.15914 0.80057 0.0
C99 C 0.58358 0.48432 0.77891 0.0
O100 O 0.49737 0.54779 0.85858 0.0
O101 O 0.39087 0.4168 0.86054 0.0
O102 O 0.70985 0.6869 0.88765 0.0
O103 O 0.74432 0.66882 0.8266 0.0
O104 O 0.58572 0.54689 0.93197 0.0
O105 O 0.59683 0.47843 0.89848 0.0
O106 O 0.64032 0.42662 0.85618 0.0
O107 O 0.74692 0.55827 0.86133 0.0
O108 O 0.40144 0.29318 0.81197 0.0
O109 O 0.422 0.29528 0.87929 0.0
O110 O 0.56922 0.42503 0.78602 0.0
O111 O 0.55044 0.49639 0.80804 0.0
H112 H 0.65147 0.68408 0.77952 0.0
H113 H 0.63019 0.76163 0.74799 0.0
H114 H 0.80062 0.93371 0.84875 0.0
H115 H 0.82172 0.85576 0.8801 0.0
H116 H 0.53628 0.27856 0.88109 0.0
H117 H 0.60386 0.22905 0.85667 0.0
H118 H 0.38685 0.09152 0.75909 0.0
H119 H 0.31846 0.14111 0.78379 0.0
P120 P 0.72076 0.104 0.18944 0.0
H121 H 0.67357 0.97129 0.14585 0.0
H122 H 0.52681 0.83902 0.13164 0.0
H123 H 0.36796 0.89366 0.17098 0.0
H124 H 0.51759 0.02827 0.18538 0.0
H125 H 0.855 0.18875 0.12025 0.0
H126 H 0.97544 0.32512 0.10604 0.0
H127 H 0.85326 0.36833 0.19853 0.0
H128 H 0.73287 0.23125 0.21289 0.0
H129 H 0.56949 1.00534 0.25329 0.0
H130 H 0.86452 0.2178 0.25179 0.0
O131 O 0.79898 0.09677 0.18412 0.0
H132 H 0.57608 0.01143 0.33023 0.0
H133 H 0.87144 0.22283 0.32855 0.0
C134 C 0.60863 0.01154 0.16714 0.0
C135 C 0.60785 0.95627 0.1508 0.0
C136 C 0.52268 0.87932 0.14278 0.0
C137 C 0.4341 0.85396 0.15071 0.0
C138 C 0.43425 0.91016 0.16464 0.0
C139 C 0.52025 0.98786 0.17256 0.0
C140 C 0.78348 0.19816 0.16776 0.0
C141 C 0.8517 0.22674 0.13667 0.0
C142 C 0.92193 0.30568 0.12884 0.0
C143 C 0.92624 0.35915 0.1516 0.0
C144 C 0.8535 0.32971 0.18049 0.0
C145 C 0.78336 0.25054 0.18845 0.0
C146 C 0.71626 0.11202 0.24625 0.0
C147 C 0.63502 0.0544 0.26912 0.0
C148 C 0.63873 0.05764 0.31337 0.0
C149 C 0.72431 0.11747 0.33532 0.0
C150 C 0.80448 0.17594 0.31245 0.0
C151 C 0.80041 0.17327 0.26849 0.0
P152 P 0.76122 0.6306 0.6123 0.0
H153 H 0.83341 0.60963 0.53914 0.0
H154 H 0.76969 0.49682 0.4955 0.0
H155 H 0.50789 0.35959 0.56328 0.0
H156 H 0.57279 0.47284 0.60715 0.0
H157 H 0.79925 0.76003 0.65149 0.0
H158 H 0.80679 0.85613 0.62313 0.0
H159 H 0.71029 0.73486 0.50157 0.0
H160 H 0.69979 0.6378 0.53053 0.0
H161 H 0.79316 0.56548 0.67289 0.0
H162 H 0.62459 0.61814 0.66459 0.0
O163 O 0.87743 0.68374 0.61547 0.0
H164 H 0.7222 0.50669 0.73997 0.0
H165 H 0.55445 0.56036 0.73293 0.0
C166 C 0.70869 0.54914 0.577 0.0
C167 C 0.76204 0.55537 0.54439 0.0
C168 C 0.72514 0.49089 0.51921 0.0
C169 C 0.63395 0.41893 0.52615 0.0
C170 C 0.57895 0.41387 0.55759 0.0
C171 C 0.61587 0.47858 0.58264 0.0
C172 C 0.74762 0.69123 0.59334 0.0
C173 C 0.77716 0.75305 0.61906 0.0
C174 C 0.7825 0.80839 0.60266 0.0
C175 C 0.76002 0.80356 0.55996 0.0
C176 C 0.72706 0.73986 0.53468 0.0
C177 C 0.72126 0.68429 0.55123 0.0
C178 C 0.7153 0.59712 0.66409 0.0
C179 C 0.74242 0.56594 0.686 0.0
C180 C 0.70177 0.53234 0.72429 0.0
C181 C 0.63366 0.52979 0.74161 0.0
C182 C 0.60823 0.5631 0.72045 0.0
C183 C 0.64808 0.59583 0.68146 0.0
P184 P 0.09571 0.5195 0.88095 0.0
H185 H 0.30417 0.6147 0.85533 0.0
H186 H 0.41651 0.60252 0.84982 0.0
H187 H 0.19956 0.36632 0.88022 0.0
H188 H 0.0845 0.37904 0.88678 0.0
H189 H 1.06387 0.627 0.87695 0.0
H190 H 0.93464 0.6205 0.87025 0.0
H191 H 0.73581 0.37559 0.85672 0.0
H192 H 0.86708 0.382 0.86322 0.0
H193 H 0.25205 0.62562 0.94305 0.0
H194 H 0.9485 0.4371 0.94629 0.0
O195 O 0.17565 0.60958 0.86547 0.0
H196 H 0.25641 0.65213 0.01877 0.0
H197 H 0.95241 0.46518 0.02163 0.0
C198 C 0.17765 0.49799 0.87042 0.0
C199 C 0.27639 0.55849 0.86039 0.0
C200 C 0.34449 0.55152 0.85736 0.0
C201 C 0.32371 0.483 0.86393 0.0
C202 C 0.22469 0.42136 0.87402 0.0
C203 C 0.15579 0.4287 0.87761 0.0
C204 C 0.98359 0.50568 0.8692 0.0
C205 C 0.99363 0.57057 0.87148 0.0
C206 C 0.91638 0.56693 0.86794 0.0
C207 C 0.81838 0.49751 0.8624 0.0
C208 C 0.807 0.43178 0.86055 0.0
C209 C 0.88509 0.43547 0.86404 0.0
C210 C 0.09985 0.52998 0.9384 0.0
C211 C 0.18633 0.58943 0.95997 0.0
C212 C 0.18873 0.60485 0.00335 0.0
C213 C 0.10454 0.56168 0.02616 0.0
C214 C 1.0184 0.5003 0.00491 0.0
C215 C 1.01621 0.48411 0.96167 0.0
P216 P 0.2204 0.59074 0.40713 0.0
H217 H 0.39906 0.69173 0.45724 0.0
H218 H 0.52204 0.82959 0.47112 0.0
H219 H 0.34052 0.85205 0.41981 0.0
H220 H 0.21467 0.71183 0.40715 0.0
H221 H 0.18029 0.48557 0.46999 0.0
H222 H 1.03688 0.35477 0.48666 0.0
H223 H 0.86959 0.37198 0.41317 0.0
H224 H 1.01469 0.50318 0.39567 0.0
H225 H 0.28999 0.70804 0.34402 0.0
H226 H 0.11272 0.46351 0.34453 0.0
O227 O 0.28958 0.57394 0.40802 0.0
H228 H 0.27458 0.70017 0.26793 0.0
H229 H 0.10212 0.45661 0.26751 0.0
C230 C 0.29666 0.68974 0.43012 0.0
C231 C 0.38381 0.7253 0.44963 0.0
C232 C 0.45557 0.80536 0.45726 0.0
C233 C 0.44379 0.85363 0.44535 0.0
C234 C 0.3538 0.81763 0.42876 0.0
C235 C 0.28084 0.73679 0.4219 0.0
C236 C 0.10999 0.50577 0.4314 0.0
C237 C 0.11286 0.46254 0.4582 0.0
C238 C 1.03006 0.38669 0.46752 0.0
C239 C 0.94056 0.35127 0.45095 0.0
C240 C 0.93663 0.39655 0.42662 0.0
C241 C 1.02007 0.47243 0.41683 0.0
C242 C 0.19884 0.58573 0.35097 0.0
C243 C 0.2448 0.65209 0.32841 0.0
C244 C 0.23709 0.64784 0.28441 0.0
C245 C 0.18692 0.57777 0.26186 0.0
C246 C 0.14089 0.51136 0.28419 0.0
C247 C 0.14645 0.5153 0.32827 0.0
P248 P 0.71422 0.08312 0.72049 0.0
H249 H 0.77451 0.22383 0.75756 0.0
H250 H 0.69063 0.25351 0.79108 0.0
H251 H 0.42768 0.01534 0.77656 0.0
H252 H 0.51329 0.98537 0.74356 0.0
H253 H 0.71339 0.97034 0.68142 0.0
H254 H 0.71848 0.88201 0.71182 0.0
H255 H 0.68182 0.9371 0.83562 0.0
H256 H 0.67762 0.02547 0.805 0.0
H257 H 0.84288 0.15979 0.64908 0.0
H258 H 0.54118 0.99535 0.66719 0.0
O259 O 0.82948 0.15922 0.73011 0.0
H260 H 0.81806 0.16639 0.57487 0.0
H261 H 0.51618 1.00207 0.59298 0.0
C262 C 0.65058 0.10213 0.74825 0.0
C263 C 0.6991 0.17745 0.76208 0.0
C264 C 0.65089 0.19447 0.7814 0.0
C265 C 0.55234 0.13678 0.78678 0.0
C266 C 0.50351 0.06115 0.77281 0.0
C267 C 0.55237 0.04393 0.754 0.0
C268 C 0.69243 1.0032 0.74068 0.0
C269 C 0.70352 0.96165 0.71493 0.0
C270 C 0.70693 0.9113 0.73248 0.0
C271 C 0.70122 0.90247 0.77637 0.0
C272 C 0.68767 0.94288 0.80183 0.0
C273 C 0.68372 0.99272 0.78422 0.0
C274 C 0.69393 0.0777 0.66416 0.0
C275 C 0.77112 0.12445 0.63715 0.0
C276 C 0.75701 0.12839 0.5946 0.0
C277 C 0.6653 0.08559 0.57814 0.0
C278 C 0.58787 0.03648 0.60481 0.0
C279 C 0.60204 0.03238 0.64733 0.0
P280 P 0.38247 0.23844 0.06079 0.0
H281 H 0.52469 0.24212 0.093 0.0
H282 H 0.66478 0.33759 0.13814 0.0
H283 H 0.56855 0.44933 0.16671 0.0
H284 H 0.43036 0.35501 0.12106 0.0
H285 H 0.22882 0.19767 0.01011 0.0
H286 H 0.15811 0.24624 0.02819 0.0
H287 H 0.21411 0.25145 0.15997 0.0
H288 H 0.2854 0.20292 0.14143 0.0
H289 H 0.49864 0.27755 0.98792 0.0
H290 H 0.39214 0.3642 0.05169 0.0
O291 O 0.36895 0.16595 0.04242 0.0
H292 H 0.57906 0.37978 0.93843 0.0
H293 H 0.47096 0.46601 0.00127 0.0
C294 C 0.46614 0.29055 0.10417 0.0
C295 C 0.5318 0.28527 0.11029 0.0
C296 C 0.6118 0.3399 0.1362 0.0
C297 C 0.62757 0.40108 0.15583 0.0
C298 C 0.55834 0.40304 0.15187 0.0
C299 C 0.4787 0.34852 0.12603 0.0
C300 C 0.26995 0.20434 0.0743 0.0
C301 C 0.21997 0.20406 0.0431 0.0
C302 C 0.17916 0.23192 0.05359 0.0
C303 C 0.18794 0.25823 0.09525 0.0
C304 C 0.21119 0.23511 0.12733 0.0
C305 C 0.25228 0.2075 0.1167 0.0
C306 C 0.43621 0.3111 0.02247 0.0
C307 C 0.49124 0.31773 0.99089 0.0
C308 C 0.53764 0.37665 0.9628 0.0
C309 C 0.52998 0.43021 0.96567 0.0
C310 C 0.47761 0.42536 -0.00178 0.0
C311 C 0.4316 0.36646 0.02663 0.0
loop_
_geom_bond_atom_site_label_1
_geom_bond_atom_site_label_2
_geom_bond_distance
_geom_bond_site_symmetry_2
_ccdc_geom_bond_type
Ho0 C3 2.811 . S
Ho0 O20 2.322 . S
Ho0 O22 2.378 . S
Ho0 O23 2.524 . S
Ho0 O24 2.381 . S
Ho0 O25 2.669 . S
Ho0 O27 2.346 1_455 S
Ho0 O31 2.305 . S
Ho1 C12 2.811 . S
Ho1 O21 2.346 1_655 S
Ho1 O25 2.305 1_655 S
Ho1 O26 2.322 . S
Ho1 O28 2.378 . S
Ho1 O29 2.524 . S
Ho1 O30 2.381 . S
Ho1 O31 2.669 1_655 S
C2 O20 1.259 . S
C2 O21 1.268 . S
C3 Ho0 2.811 . S
C3 C4 1.488 . S
C3 O22 1.215 . S
C3 O23 1.289 . S
C4 C3 1.488 . S
C4 C5 1.348 . S
C4 C9 1.413 . S
C5 C4 1.348 . S
C5 C6 1.442 . S
C5 H32 0.930 . S
C6 C5 1.442 . S
C6 C7 1.381 . S
C6 H33 0.931 . S
C7 C6 1.381 . S
C7 C8 1.321 . S
C8 C7 1.321 . S
C8 C9 1.403 . S
C8 H34 0.934 . S
C9 C4 1.413 . S
C9 C8 1.403 . S
C9 H35 0.930 . S
C10 O24 1.275 . S
C10 O25 1.256 . S
C11 O26 1.259 . S
C11 O27 1.268 . S
C12 Ho1 2.811 . S
C12 C13 1.488 . S
C12 O28 1.215 . S
C12 O29 1.289 . S
C13 C12 1.488 . S
C13 C14 1.348 . S
C13 C18 1.413 . S
C14 C13 1.348 . S
C14 C15 1.442 . S
C14 H36 0.930 . S
C15 C14 1.442 . S
C15 C16 1.381 . S
C15 H37 0.931 . S
C16 C15 1.381 . S
C16 C17 1.321 . S
C17 C16 1.321 . S
C17 C18 1.403 . S
C17 H38 0.934 . S
C18 C13 1.413 . S
C18 C17 1.403 . S
C18 H39 0.930 . S
C19 O30 1.275 1_455 S
C19 O31 1.256 . S
O20 Ho0 2.322 . S
O20 C2 1.259 . S
O21 Ho1 2.346 1_455 S
O21 C2 1.268 . S
O22 Ho0 2.378 . S
O22 C3 1.215 . S
O23 Ho0 2.524 . S
O23 C3 1.289 . S
O24 Ho0 2.381 . S
O24 C10 1.275 . S
O25 Ho0 2.669 . S
O25 Ho1 2.305 1_455 S
O25 C10 1.256 . S
O26 Ho1 2.322 . S
O26 C11 1.259 . S
O27 Ho0 2.346 1_655 S
O27 C11 1.268 . S
O28 Ho1 2.378 . S
O28 C12 1.215 . S
O29 Ho1 2.524 . S
O29 C12 1.289 . S
O30 Ho1 2.381 . S
O30 C19 1.275 1_655 S
O31 Ho0 2.305 . S
O31 Ho1 2.669 1_455 S
O31 C19 1.256 . S
H32 C5 0.930 . S
H33 C6 0.931 . S
H34 C8 0.934 . S
H35 C9 0.930 . S
H36 C14 0.930 . S
H37 C15 0.931 . S
H38 C17 0.934 . S
H39 C18 0.930 . S
Ho40 C43 2.811 . S
Ho40 O60 2.322 . S
Ho40 O62 2.378 . S
Ho40 O63 2.524 . S
Ho40 O64 2.381 . S
Ho40 O65 2.669 1_565 S
Ho40 O67 2.346 1_565 S
Ho40 O71 2.305 . S
Ho41 C52 2.811 . S
Ho41 O61 2.346 1_545 S
Ho41 O65 2.305 . S
Ho41 O66 2.322 . S
Ho41 O68 2.378 . S
Ho41 O69 2.524 . S
Ho41 O70 2.381 . S
Ho41 O71 2.669 1_545 S
C42 O60 1.259 . S
C42 O61 1.268 . S
C43 Ho40 2.811 . S
C43 C44 1.488 . S
C43 O62 1.215 . S
C43 O63 1.289 . S
C44 C43 1.488 . S
C44 C45 1.348 . S
C44 C49 1.413 . S
C45 C44 1.348 . S
C45 C46 1.442 . S
C45 H72 0.930 . S
C46 C45 1.442 . S
C46 C47 1.381 . S
C46 H73 0.931 . S
C47 C46 1.381 . S
C47 C48 1.321 . S
C48 C47 1.321 . S
C48 C49 1.403 . S
C48 H74 0.934 . S
C49 C44 1.413 . S
C49 C48 1.403 . S
C49 H75 0.930 . S
C50 O64 1.275 1_545 S
C50 O65 1.256 . S
C51 O66 1.259 . S
C51 O67 1.268 . S
C52 Ho41 2.811 . S
C52 C53 1.488 . S
C52 O68 1.215 . S
C52 O69 1.289 . S
C53 C52 1.488 . S
C53 C54 1.348 . S
C53 C58 1.413 . S
C54 C53 1.348 . S
C54 C55 1.442 . S
C54 H76 0.930 . S
C55 C54 1.442 . S
C55 C56 1.381 . S
C55 H77 0.931 . S
C56 C55 1.381 . S
C56 C57 1.321 . S
C57 C56 1.321 . S
C57 C58 1.403 . S
C57 H78 0.934 . S
C58 C53 1.413 . S
C58 C57 1.403 . S
C58 H79 0.930 . S
C59 O70 1.275 . S
C59 O71 1.256 1_545 S
O60 Ho40 2.322 . S
O60 C42 1.259 . S
O61 Ho41 2.346 1_565 S
O61 C42 1.268 . S
O62 Ho40 2.378 . S
O62 C43 1.215 . S
O63 Ho40 2.524 . S
O63 C43 1.289 . S
O64 Ho40 2.381 . S
O64 C50 1.275 1_565 S
O65 Ho40 2.669 1_545 S
O65 Ho41 2.305 . S
O65 C50 1.256 . S
O66 Ho41 2.322 . S
O66 C51 1.259 . S
O67 Ho40 2.346 1_545 S
O67 C51 1.268 . S
O68 Ho41 2.378 . S
O68 C52 1.215 . S
O69 Ho41 2.524 . S
O69 C52 1.289 . S
O70 Ho41 2.381 . S
O70 C59 1.275 . S
O71 Ho40 2.305 . S
O71 Ho41 2.669 1_565 S
O71 C59 1.256 1_565 S
H72 C45 0.930 . S
H73 C46 0.931 . S
H74 C48 0.934 . S
H75 C49 0.930 . S
H76 C54 0.930 . S
H77 C55 0.931 . S
H78 C57 0.934 . S
H79 C58 0.930 . S
Ho80 C83 2.811 . S
Ho80 O100 2.322 . S
Ho80 O102 2.378 . S
Ho80 O103 2.524 . S
Ho80 O104 2.381 . S
Ho80 O105 2.669 . S
Ho80 O107 2.346 . S
Ho80 O111 2.305 . S
Ho81 C92 2.811 . S
Ho81 O101 2.346 . S
Ho81 O105 2.305 . S
Ho81 O106 2.322 . S
Ho81 O108 2.378 . S
Ho81 O109 2.524 . S
Ho81 O110 2.381 . S
Ho81 O111 2.669 . S
C82 O100 1.259 . S
C82 O101 1.268 . S
C83 Ho80 2.811 . S
C83 C84 1.488 . S
C83 O102 1.215 . S
C83 O103 1.289 . S
C84 C83 1.488 . S
C84 C85 1.348 . S
C84 C89 1.413 . S
C85 C84 1.348 . S
C85 C86 1.442 . S
C85 H112 0.930 . S
C86 C85 1.442 . S
C86 C87 1.381 . S
C86 H113 0.931 . S
C87 C86 1.381 . S
C87 C88 1.321 . S
C88 C87 1.321 . S
C88 C89 1.403 . S
C88 H114 0.934 . S
C89 C84 1.413 . S
C89 C88 1.403 . S
C89 H115 0.930 . S
C90 O104 1.275 . S
C90 O105 1.256 . S
C91 O106 1.259 . S
C91 O107 1.268 . S
C92 Ho81 2.811 . S
C92 C93 1.488 . S
C92 O108 1.215 . S
C92 O109 1.289 . S
C93 C92 1.488 . S
C93 C94 1.348 . S
C93 C98 1.413 . S
C94 C93 1.348 . S
C94 C95 1.442 . S
C94 H116 0.930 . S
C95 C94 1.442 . S
C95 C96 1.381 . S
C95 H117 0.931 . S
C96 C95 1.381 . S
C96 C97 1.321 . S
C97 C96 1.321 . S
C97 C98 1.403 . S
C97 H118 0.934 . S
C98 C93 1.413 . S
C98 C97 1.403 . S
C98 H119 0.930 . S
C99 O110 1.275 . S
C99 O111 1.256 . S
O100 Ho80 2.322 . S
O100 C82 1.259 . S
O101 Ho81 2.346 . S
O101 C82 1.268 . S
O102 Ho80 2.378 . S
O102 C83 1.215 . S
O103 Ho80 2.524 . S
O103 C83 1.289 . S
O104 Ho80 2.381 . S
O104 C90 1.275 . S
O105 Ho80 2.669 . S
O105 Ho81 2.305 . S
O105 C90 1.256 . S
O106 Ho81 2.322 . S
O106 C91 1.259 . S
O107 Ho80 2.346 . S
O107 C91 1.268 . S
O108 Ho81 2.378 . S
O108 C92 1.215 . S
O109 Ho81 2.524 . S
O109 C92 1.289 . S
O110 Ho81 2.381 . S
O110 C99 1.275 . S
O111 Ho80 2.305 . S
O111 Ho81 2.669 . S
O111 C99 1.256 . S
H112 C85 0.930 . S
H113 C86 0.931 . S
H114 C88 0.934 . S
H115 C89 0.930 . S
H116 C94 0.930 . S
H117 C95 0.931 . S
H118 C97 0.934 . S
H119 C98 0.930 . S
P120 O131 1.490 1_545 S
P120 C134 1.812 1_545 S
P120 C140 1.803 . S
P120 C146 1.819 . S
H121 C135 0.941 . S
H122 C136 0.939 . S
H123 C138 0.940 . S
H124 C139 0.940 . S
H125 C141 0.939 . S
H126 C142 0.942 . S
H127 C144 0.940 . S
H128 C145 0.939 . S
H129 C147 0.941 . S
H130 C151 0.939 . S
O131 P120 1.490 1_565 S
H132 C148 0.939 . S
H133 C150 0.940 . S
C134 P120 1.812 1_565 S
C134 C135 1.389 . S
C134 C139 1.391 . S
C135 H121 0.941 . S
C135 C134 1.389 . S
C135 C136 1.397 . S
C136 H122 0.939 . S
C136 C135 1.397 . S
C136 C137 1.378 . S
C137 C136 1.378 . S
C137 C138 1.378 . S
C138 H123 0.940 . S
C138 C137 1.378 . S
C138 C139 1.396 . S
C139 H124 0.940 . S
C139 C134 1.391 . S
C139 C138 1.396 . S
C140 P120 1.803 . S
C140 C141 1.378 . S
C140 C145 1.400 . S
C141 H125 0.939 . S
C141 C140 1.378 . S
C141 C142 1.361 . S
C142 H126 0.942 . S
C142 C141 1.361 . S
C142 C143 1.369 . S
C143 C142 1.369 . S
C143 C144 1.404 . S
C144 H127 0.940 . S
C144 C143 1.404 . S
C144 C145 1.389 . S
C145 H128 0.939 . S
C145 C140 1.400 . S
C145 C144 1.389 . S
C146 P120 1.819 . S
C146 C147 1.391 1_545 S
C146 C151 1.391 . S
C147 H129 0.941 . S
C147 C146 1.391 1_565 S
C147 C148 1.396 . S
C148 H132 0.939 . S
C148 C147 1.396 . S
C148 C149 1.397 1_565 S
C149 C148 1.397 1_545 S
C149 C150 1.385 . S
C150 H133 0.940 . S
C150 C149 1.385 . S
C150 C151 1.388 . S
C151 H130 0.939 . S
C151 C146 1.391 . S
C151 C150 1.388 . S
P152 O163 1.490 . S
P152 C166 1.812 . S
P152 C172 1.803 . S
P152 C178 1.819 . S
H153 C167 0.941 . S
H154 C168 0.939 . S
H155 C170 0.940 . S
H156 C171 0.940 . S
H157 C173 0.939 . S
H158 C174 0.942 . S
H159 C176 0.940 . S
H160 C177 0.939 . S
H161 C179 0.941 . S
H162 C183 0.939 . S
O163 P152 1.490 . S
H164 C180 0.939 . S
H165 C182 0.940 . S
C166 P152 1.812 . S
C166 C167 1.389 . S
C166 C171 1.391 . S
C167 H153 0.941 . S
C167 C166 1.389 . S
C167 C168 1.397 . S
C168 H154 0.939 . S
C168 C167 1.397 . S
C168 C169 1.378 . S
C169 C168 1.378 . S
C169 C170 1.378 . S
C170 H155 0.940 . S
C170 C169 1.378 . S
C170 C171 1.396 . S
C171 H156 0.940 . S
C171 C166 1.391 . S
C171 C170 1.396 . S
C172 P152 1.803 . S
C172 C173 1.378 . S
C172 C177 1.400 . S
C173 H157 0.939 . S
C173 C172 1.378 . S
C173 C174 1.361 . S
C174 H158 0.942 . S
C174 C173 1.361 . S
C174 C175 1.369 . S
C175 C174 1.369 . S
C175 C176 1.404 . S
C176 H159 0.940 . S
C176 C175 1.404 . S
C176 C177 1.389 . S
C177 H160 0.939 . S
C177 C172 1.400 . S
C177 C176 1.389 . S
C178 P152 1.819 . S
C178 C179 1.391 . S
C178 C183 1.391 . S
C179 H161 0.941 . S
C179 C178 1.391 . S
C179 C180 1.396 . S
C180 H164 0.939 . S
C180 C179 1.396 . S
C180 C181 1.397 . S
C181 C180 1.397 . S
C181 C182 1.385 . S
C182 H165 0.940 . S
C182 C181 1.385 . S
C182 C183 1.388 . S
C183 H162 0.939 . S
C183 C178 1.391 . S
C183 C182 1.388 . S
P184 O195 1.490 . S
P184 C198 1.812 . S
P184 C204 1.803 . S
P184 C210 1.819 . S
H185 C199 0.941 . S
H186 C200 0.939 . S
H187 C202 0.940 . S
H188 C203 0.940 . S
H189 C205 0.939 . S
H190 C206 0.942 . S
H191 C208 0.940 . S
H192 C209 0.939 . S
H193 C211 0.941 . S
H194 C215 0.939 1_655 S
O195 P184 1.490 . S
H196 C212 0.939 . S
H197 C214 0.940 1_655 S
C198 P184 1.812 . S
C198 C199 1.389 . S
C198 C203 1.391 . S
C199 H185 0.941 . S
C199 C198 1.389 . S
C199 C200 1.397 . S
C200 H186 0.939 . S
C200 C199 1.397 . S
C200 C201 1.378 . S
C201 C200 1.378 . S
C201 C202 1.378 . S
C202 H187 0.940 . S
C202 C201 1.378 . S
C202 C203 1.396 . S
C203 H188 0.940 . S
C203 C198 1.391 . S
C203 C202 1.396 . S
C204 P184 1.803 . S
C204 C205 1.378 . S
C204 C209 1.400 . S
C205 H189 0.939 . S
C205 C204 1.378 . S
C205 C206 1.361 1_455 S
C206 H190 0.942 . S
C206 C205 1.361 1_655 S
C206 C207 1.369 . S
C207 C206 1.369 . S
C207 C208 1.404 . S
C208 H191 0.940 . S
C208 C207 1.404 . S
C208 C209 1.389 1_655 S
C209 H192 0.939 . S
C209 C204 1.400 . S
C209 C208 1.389 1_455 S
C210 P184 1.819 . S
C210 C211 1.391 . S
C210 C215 1.391 . S
C211 H193 0.941 . S
C211 C210 1.391 . S
C211 C212 1.396 1_556 S
C212 H196 0.939 . S
C212 C211 1.396 1_554 S
C212 C213 1.397 . S
C213 C212 1.397 . S
C213 C214 1.385 . S
C214 H197 0.940 1_455 S
C214 C213 1.385 . S
C214 C215 1.388 1_554 S
C215 H194 0.939 1_455 S
C215 C210 1.391 . S
C215 C214 1.388 1_556 S
P216 O227 1.490 . S
P216 C230 1.812 . S
P216 C236 1.803 1_455 S
P216 C242 1.819 . S
H217 C231 0.941 . S
H218 C232 0.939 . S
H219 C234 0.940 . S
H220 C235 0.940 . S
H221 C237 0.939 . S
H222 C238 0.942 . S
H223 C240 0.940 . S
H224 C241 0.939 . S
H225 C243 0.941 . S
H226 C247 0.939 . S
O227 P216 1.490 . S
H228 C244 0.939 . S
H229 C246 0.940 . S
C230 P216 1.812 . S
C230 C231 1.389 . S
C230 C235 1.391 . S
C231 H217 0.941 . S
C231 C230 1.389 . S
C231 C232 1.397 . S
C232 H218 0.939 . S
C232 C231 1.397 . S
C232 C233 1.378 . S
C233 C232 1.378 . S
C233 C234 1.378 . S
C234 H219 0.940 . S
C234 C233 1.378 . S
C234 C235 1.396 . S
C235 H220 0.940 . S
C235 C230 1.391 . S
C235 C234 1.396 . S
C236 P216 1.803 1_655 S
C236 C237 1.378 . S
C236 C241 1.400 . S
C237 H221 0.939 . S
C237 C236 1.378 . S
C237 C238 1.361 . S
C238 H222 0.942 . S
C238 C237 1.361 . S
C238 C239 1.369 . S
C239 C238 1.369 . S
C239 C240 1.404 . S
C240 H223 0.940 . S
C240 C239 1.404 . S
C240 C241 1.389 . S
C241 H224 0.939 . S
C241 C236 1.400 . S
C241 C240 1.389 . S
C242 P216 1.819 . S
C242 C243 1.391 . S
C242 C247 1.391 1_455 S
C243 H225 0.941 . S
C243 C242 1.391 . S
C243 C244 1.396 . S
C244 H228 0.939 . S
C244 C243 1.396 . S
C244 C245 1.397 . S
C245 C244 1.397 . S
C245 C246 1.385 1_455 S
C246 H229 0.940 . S
C246 C245 1.385 1_655 S
C246 C247 1.388 . S
C247 H226 0.939 . S
C247 C242 1.391 1_655 S
C247 C246 1.388 . S
P248 O259 1.490 . S
P248 C262 1.812 . S
P248 C268 1.803 1_545 S
P248 C274 1.819 . S
H249 C263 0.941 . S
H250 C264 0.939 . S
H251 C266 0.940 . S
H252 C267 0.940 . S
H253 C269 0.939 1_545 S
H254 C270 0.942 . S
H255 C272 0.940 . S
H256 C273 0.939 . S
H257 C275 0.941 . S
H258 C279 0.939 . S
O259 P248 1.490 . S
H260 C276 0.939 . S
H261 C278 0.940 . S
C262 P248 1.812 . S
C262 C263 1.389 . S
C262 C267 1.391 . S
C263 H249 0.941 . S
C263 C262 1.389 . S
C263 C264 1.397 . S
C264 H250 0.939 . S
C264 C263 1.397 . S
C264 C265 1.378 . S
C265 C264 1.378 . S
C265 C266 1.378 . S
C266 H251 0.940 . S
C266 C265 1.378 . S
C266 C267 1.396 . S
C267 H252 0.940 . S
C267 C262 1.391 . S
C267 C266 1.396 . S
C268 P248 1.803 1_565 S
C268 C269 1.378 . S
C268 C273 1.400 . S
C269 H253 0.939 1_565 S
C269 C268 1.378 . S
C269 C270 1.361 . S
C270 H254 0.942 . S
C270 C269 1.361 . S
C270 C271 1.369 . S
C271 C270 1.369 . S
C271 C272 1.404 . S
C272 H255 0.940 . S
C272 C271 1.404 . S
C272 C273 1.389 . S
C273 H256 0.939 . S
C273 C268 1.400 . S
C273 C272 1.389 . S
C274 P248 1.819 . S
C274 C275 1.391 . S
C274 C279 1.391 1_545 S
C275 H257 0.941 . S
C275 C274 1.391 . S
C275 C276 1.396 . S
C276 H260 0.939 . S
C276 C275 1.396 . S
C276 C277 1.397 1_545 S
C277 C276 1.397 1_565 S
C277 C278 1.385 . S
C278 H261 0.940 . S
C278 C277 1.385 . S
C278 C279 1.388 . S
C279 H258 0.939 . S
C279 C274 1.391 1_565 S
C279 C278 1.388 . S
P280 O291 1.490 . S
P280 C294 1.812 . S
P280 C300 1.803 . S
P280 C306 1.819 . S
H281 C295 0.941 . S
H282 C296 0.939 . S
H283 C298 0.940 . S
H284 C299 0.940 . S
H285 C301 0.939 . S
H286 C302 0.942 . S
H287 C304 0.940 . S
H288 C305 0.939 . S
H289 C307 0.941 . S
H290 C311 0.939 1_554 S
O291 P280 1.490 . S
H292 C308 0.939 . S
H293 C310 0.940 . S
C294 P280 1.812 . S
C294 C295 1.389 . S
C294 C299 1.391 . S
C295 H281 0.941 . S
C295 C294 1.389 . S
C295 C296 1.397 . S
C296 H282 0.939 . S
C296 C295 1.397 . S
C296 C297 1.378 . S
C297 C296 1.378 . S
C297 C298 1.378 . S
C298 H283 0.940 . S
C298 C297 1.378 . S
C298 C299 1.396 . S
C299 H284 0.940 . S
C299 C294 1.391 . S
C299 C298 1.396 . S
C300 P280 1.803 . S
C300 C301 1.378 . S
C300 C305 1.400 . S
C301 H285 0.939 . S
C301 C300 1.378 . S
C301 C302 1.361 . S
C302 H286 0.942 . S
C302 C301 1.361 . S
C302 C303 1.369 . S
C303 C302 1.369 . S
C303 C304 1.404 . S
C304 H287 0.940 . S
C304 C303 1.404 . S
C304 C305 1.389 . S
C305 H288 0.939 . S
C305 C300 1.400 . S
C305 C304 1.389 . S
C306 P280 1.819 . S
C306 C307 1.391 1_554 S
C306 C311 1.391 1_554 S
C307 H289 0.941 . S
C307 C306 1.391 1_556 S
C307 C308 1.396 . S
C308 H292 0.939 . S
C308 C307 1.396 . S
C308 C309 1.397 . S
C309 C308 1.397 . S
C309 C310 1.385 . S
C310 H293 0.940 . S
C310 C309 1.385 . S
C310 C311 1.388 . S
C311 H290 0.939 1_556 S
C311 C306 1.391 1_556 S
C311 C310 1.388 . S
C7 C303 3.933 . S
C51 C239 2.586 . S
C87 C271 2.680 . S
C16 C297 2.300 . S
C233 C42 2.900 . S
C265 C96 1.808 . S
C47 C175 2.092 . S
C91 C207 4.828 . S
C2 C137 3.026 . S
C169 C56 2.117 . S
C201 C82 4.848 . S
C11 C143 2.720 . S
C213 C19 2.032 . S
C50 C149 1.028 . S
C99 C181 1.485 . S
C277 C59 1.346 1_565 S
C309 C90 1.894 . S
C10 C245 0.964 . S
