# Generated by pormake.
# Topology pyr, (3,6)-cn, num edge types: 1
# Building blocks:
#     Node 0, Type 0, BuildingBlock: KAKCAD_clean_linker_0, # of connection points: 3
#     Node 1, Type 0, BuildingBlock: KAKCAD_clean_linker_0, # of connection points: 3
#     Node 2, Type 0, BuildingBlock: KAKCAD_clean_linker_0, # of connection points: 3
#     Node 3, Type 0, BuildingBlock: KAKCAD_clean_linker_0, # of connection points: 3
#     Node 4, Type 0, BuildingBlock: KAKCAD_clean_linker_0, # of connection points: 3
#     Node 5, Type 0, BuildingBlock: KAKCAD_clean_linker_0, # of connection points: 3
#     Node 6, Type 0, BuildingBlock: KAKCAD_clean_linker_0, # of connection points: 3
#     Node 7, Type 0, BuildingBlock: KAKCAD_clean_linker_0, # of connection points: 3
#     Node 8, Type 1, BuildingBlock: BETDEL_clean_sbu_0, # of connection points: 6
#     Node 9, Type 1, BuildingBlock: BETDEL_clean_sbu_0, # of connection points: 6
#     Node 10, Type 1, BuildingBlock: BETDEL_clean_sbu_0, # of connection points: 6
#     Node 11, Type 1, BuildingBlock: BETDEL_clean_sbu_0, # of connection points: 6
#     Edge 12, Type (0, 1), BuildingBlock: OJICUG_clean_linker_0, # of connection points: 2
#     Edge 13, Type (0, 1), BuildingBlock: OJICUG_clean_linker_0, # of connection points: 2
#     Edge 14, Type (0, 1), BuildingBlock: OJICUG_clean_linker_0, # of connection points: 2
#     Edge 15, Type (0, 1), BuildingBlock: OJICUG_clean_linker_0, # of connection points: 2
#     Edge 16, Type (0, 1), BuildingBlock: OJICUG_clean_linker_0, # of connection points: 2
#     Edge 17, Type (0, 1), BuildingBlock: OJICUG_clean_linker_0, # of connection points: 2
#     Edge 18, Type (0, 1), BuildingBlock: OJICUG_clean_linker_0, # of connection points: 2
#     Edge 19, Type (0, 1), BuildingBlock: OJICUG_clean_linker_0, # of connection points: 2
#     Edge 20, Type (0, 1), BuildingBlock: OJICUG_clean_linker_0, # of connection points: 2
#     Edge 21, Type (0, 1), BuildingBlock: OJICUG_clean_linker_0, # of connection points: 2
#     Edge 22, Type (0, 1), BuildingBlock: OJICUG_clean_linker_0, # of connection points: 2
#     Edge 23, Type (0, 1), BuildingBlock: OJICUG_clean_linker_0, # of connection points: 2
#     Edge 24, Type (0, 1), BuildingBlock: OJICUG_clean_linker_0, # of connection points: 2
#     Edge 25, Type (0, 1), BuildingBlock: OJICUG_clean_linker_0, # of connection points: 2
#     Edge 26, Type (0, 1), BuildingBlock: OJICUG_clean_linker_0, # of connection points: 2
#     Edge 27, Type (0, 1), BuildingBlock: OJICUG_clean_linker_0, # of connection points: 2
#     Edge 28, Type (0, 1), BuildingBlock: OJICUG_clean_linker_0, # of connection points: 2
#     Edge 29, Type (0, 1), BuildingBlock: OJICUG_clean_linker_0, # of connection points: 2
#     Edge 30, Type (0, 1), BuildingBlock: OJICUG_clean_linker_0, # of connection points: 2
#     Edge 31, Type (0, 1), BuildingBlock: OJICUG_clean_linker_0, # of connection points: 2
#     Edge 32, Type (0, 1), BuildingBlock: OJICUG_clean_linker_0, # of connection points: 2
#     Edge 33, Type (0, 1), BuildingBlock: OJICUG_clean_linker_0, # of connection points: 2
#     Edge 34, Type (0, 1), BuildingBlock: OJICUG_clean_linker_0, # of connection points: 2
#     Edge 35, Type (0, 1), BuildingBlock: OJICUG_clean_linker_0, # of connection points: 2
# Relax obj value: 0.031
# Max RMSD: 0.091
# Mean RMSD: 0.039
data_MOF--net-pyr--node1-BETDEL_clean_sbu_0--node2-KAKCAD_clean_linker_0--edge1-OJICUG_clean_linker_0
_symmetry_space_group_name_H-M    P1
_symmetry_Int_Tables_number       1
_symmetry_cell_setting            triclinic
loop_
_symmetry_equiv_pos_as_xyz
'x, y, z'
_cell_length_a     35.208359
_cell_length_b     36.725848
_cell_length_c     33.87246
_cell_angle_alpha  91.91386
_cell_angle_beta   89.155801
_cell_angle_gamma 96.57628
loop_
_atom_site_label
_atom_site_type_symbol
_atom_site_fract_x
_atom_site_fract_y
_atom_site_fract_z
_atom_type_partial_charge
C0 C 0.11155 0.12468 0.23497 0.0
C1 C 0.12699 0.1132 0.26969 0.0
C2 C 0.13395 0.14804 0.21014 0.0
C3 C 0.17199 0.16068 0.21997 0.0
C4 C 0.18732 0.14919 0.25483 0.0
C5 C 0.16502 0.12554 0.27943 0.0
C6 C 0.19581 0.18501 0.19328 0.0
C7 C 0.1798 0.21242 0.17379 0.0
C8 C 0.20054 0.23247 0.1446 0.0
C9 C 0.23839 0.22644 0.13623 0.0
C10 C 0.25495 0.19927 0.15587 0.0
C11 C 0.2336 0.17887 0.18457 0.0
C12 C 0.29155 0.18736 0.14196 0.0
C13 C 0.29717 0.18033 0.10144 0.0
C14 C 0.318 0.17728 0.16907 0.0
C15 C 0.34783 0.15779 0.1561 0.0
C16 C 0.35132 0.14808 0.11592 0.0
C17 C 0.18105 0.25725 0.1208 0.0
C18 C 0.14488 0.24505 0.10532 0.0
C19 C 0.19737 0.29329 0.11481 0.0
C20 C 0.17671 0.31748 0.09555 0.0
C21 C 0.13963 0.30574 0.08199 0.0
C22 C 0.12432 0.26911 0.08609 0.0
C23 C 0.32683 0.16081 0.08854 0.0
H24 H 0.08232 0.11528 0.22687 0.0
H25 H 0.12162 0.15578 0.18298 0.0
H26 H 0.21638 0.15879 0.26332 0.0
H27 H 0.17728 0.11748 0.3065 0.0
H28 H 0.15068 0.21761 0.18061 0.0
H29 H 0.24543 0.15633 0.198 0.0
H30 H 0.25416 0.24142 0.11301 0.0
H31 H 0.27704 0.18749 0.07991 0.0
H32 H 0.31433 0.18267 0.20046 0.0
H33 H 0.36654 0.14831 0.17768 0.0
H34 H 0.13217 0.21703 0.10883 0.0
H35 H 0.22529 0.30313 0.1265 0.0
H36 H 0.32947 0.15407 0.0573 0.0
H37 H 0.09608 0.25931 0.07522 0.0
H38 H 0.18898 0.34573 0.09292 0.0
C39 C 0.29676 0.87721 0.80923 0.0
C40 C 0.33637 0.87948 0.81511 0.0
C41 C 0.28075 0.86115 0.77434 0.0
C42 C 0.30419 0.84757 0.74462 0.0
C43 C 0.34392 0.85067 0.75047 0.0
C44 C 0.35975 0.86615 0.7854 0.0
C45 C 0.28778 0.83022 0.70746 0.0
C46 C 0.2579 0.84452 0.68831 0.0
C47 C 0.24459 0.82965 0.65156 0.0
C48 C 0.26129 0.79992 0.63407 0.0
C49 C 0.29102 0.78545 0.65313 0.0
C50 C 0.30364 0.80029 0.68981 0.0
C51 C 0.31109 0.75613 0.63458 0.0
C52 C 0.29293 0.72025 0.63036 0.0
C53 C 0.35016 0.76329 0.62556 0.0
C54 C 0.37118 0.73483 0.61366 0.0
C55 C 0.35367 0.69844 0.61116 0.0
C56 C 0.21545 0.84738 0.63038 0.0
C57 C 0.18261 0.85709 0.65033 0.0
C58 C 0.22179 0.85727 0.59093 0.0
C59 C 0.19658 0.87775 0.57231 0.0
C60 C 0.16433 0.88837 0.59262 0.0
C61 C 0.15713 0.87719 0.63153 0.0
C62 C 0.31409 0.69156 0.61889 0.0
H63 H 0.27822 0.88744 0.83179 0.0
H64 H 0.25004 0.85899 0.77088 0.0
H65 H 0.36302 0.84156 0.72779 0.0
H66 H 0.39048 0.86839 0.78885 0.0
H67 H 0.24628 0.86843 0.70097 0.0
H68 H 0.32631 0.78847 0.70445 0.0
H69 H 0.2518 0.7886 0.60545 0.0
H70 H 0.26287 0.7142 0.63771 0.0
H71 H 0.36463 0.7909 0.62869 0.0
H72 H 0.4013 0.74135 0.60693 0.0
H73 H 0.17701 0.84966 0.68073 0.0
H74 H 0.24704 0.85043 0.57497 0.0
H75 H 0.2997 0.66387 0.61755 0.0
H76 H 0.13256 0.88513 0.6479 0.0
H77 H 0.20259 0.88572 0.54215 0.0
C78 C 0.76511 0.42046 0.8984 0.0
C79 C 0.79712 0.40107 0.9022 0.0
C80 C 0.73109 0.40344 0.88198 0.0
C81 C 0.72778 0.36636 0.86953 0.0
C82 C 0.75931 0.34665 0.87384 0.0
C83 C 0.79363 0.36384 0.88965 0.0
C84 C 0.6916 0.34854 0.85175 0.0
C85 C 0.67435 0.36544 0.82116 0.0
C86 C 0.6399 0.34938 0.80418 0.0
C87 C 0.62206 0.31625 0.81934 0.0
C88 C 0.63906 0.29868 0.84992 0.0
C89 C 0.67406 0.31497 0.86553 0.0
C90 C 0.62034 0.26357 0.8661 0.0
C91 C 0.58122 0.25939 0.87595 0.0
C92 C 0.64174 0.23436 0.87306 0.0
C93 C 0.62447 0.20181 0.88932 0.0
C94 C 0.58531 0.1976 0.8996 0.0
C95 C 0.62347 0.36718 0.77016 0.0
C96 C 0.5841 0.37039 0.76805 0.0
C97 C 0.64755 0.38191 0.7397 0.0
C98 C 0.63286 0.39956 0.70825 0.0
C99 C 0.59359 0.40318 0.70625 0.0
C100 C 0.56938 0.38834 0.73662 0.0
C101 C 0.56403 0.22706 0.89273 0.0
H102 H 0.76601 0.44881 0.90852 0.0
H103 H 0.70708 0.41919 0.8795 0.0
H104 H 0.75768 0.31811 0.86418 0.0
H105 H 0.8176 0.34797 0.89131 0.0
H106 H 0.68801 0.39124 0.81042 0.0
H107 H 0.68707 0.30212 0.88945 0.0
H108 H 0.59559 0.30352 0.80653 0.0
H109 H 0.56402 0.28153 0.87158 0.0
H110 H 0.67189 0.23652 0.86547 0.0
H111 H 0.64186 0.17976 0.89329 0.0
H112 H 0.56473 0.35958 0.79105 0.0
H113 H 0.67795 0.37963 0.74001 0.0
H114 H 0.53408 0.22555 0.90089 0.0
H115 H 0.53893 0.39026 0.7359 0.0
H116 H 0.65249 0.41085 0.68571 0.0
C117 C 0.85968 0.58847 0.20331 0.0
C118 C 0.89918 0.59364 0.19506 0.0
C119 C 0.84419 0.60611 0.23612 0.0
C120 C 0.86777 0.62924 0.26195 0.0
C121 C 0.90731 0.6345 0.25352 0.0
C122 C 0.92274 0.6171 0.22049 0.0
C123 C 0.85122 0.64763 0.29748 0.0
C124 C 0.82049 0.62943 0.31907 0.0
C125 C 0.80415 0.64655 0.35206 0.0
C126 C 0.81973 0.68231 0.36364 0.0
C127 C 0.85089 0.70092 0.34333 0.0
C128 C 0.86612 0.6834 0.31003 0.0
C129 C 0.86775 0.7383 0.35776 0.0
C130 C 0.84436 0.76341 0.37488 0.0
C131 C 0.90755 0.74861 0.35647 0.0
C132 C 0.92345 0.7825 0.3727 0.0
C133 C 0.90005 0.80675 0.39111 0.0
C134 C 0.77062 0.62765 0.37435 0.0
C135 C 0.74262 0.60317 0.35505 0.0
C136 C 0.76546 0.63502 0.41506 0.0
C137 C 0.73266 0.62007 0.43523 0.0
C138 C 0.70423 0.5961 0.41586 0.0
C139 C 0.71027 0.58733 0.37554 0.0
C140 C 0.86031 0.79695 0.39165 0.0
H141 H 0.84058 0.571 0.18411 0.0
H142 H 0.81356 0.60185 0.24096 0.0
H143 H 0.92662 0.65153 0.27289 0.0
H144 H 0.95335 0.62133 0.21543 0.0
H145 H 0.80987 0.60147 0.31065 0.0
H146 H 0.88911 0.69803 0.2933 0.0
H147 H 0.8076 0.69585 0.38884 0.0
H148 H 0.81356 0.75715 0.37556 0.0
H149 H 0.92665 0.73002 0.34406 0.0
H150 H 0.95422 0.78922 0.37201 0.0
H151 H 0.74506 0.59675 0.32377 0.0
H152 H 0.78661 0.65272 0.43166 0.0
H153 H 0.84149 0.81533 0.40504 0.0
H154 H 0.68995 0.56833 0.35939 0.0
H155 H 0.72946 0.62825 0.46596 0.0
C156 C 0.89314 0.85446 0.73829 0.0
C157 C 0.90128 0.89219 0.7473 0.0
C158 C 0.86655 0.83282 0.76095 0.0
C159 C 0.84764 0.84877 0.79262 0.0
C160 C 0.85737 0.88598 0.80293 0.0
C161 C 0.88404 0.90749 0.78052 0.0
C162 C 0.81748 0.82717 0.81512 0.0
C163 C 0.82467 0.79472 0.83229 0.0
C164 C 0.79871 0.77773 0.85972 0.0
C165 C 0.76517 0.79346 0.86962 0.0
C166 C 0.75753 0.82584 0.85186 0.0
C167 C 0.78319 0.84161 0.82355 0.0
C168 C 0.72615 0.84634 0.86651 0.0
C169 C 0.68994 0.8284 0.87605 0.0
C170 C 0.7331 0.88458 0.87223 0.0
C171 C 0.70464 0.90451 0.88704 0.0
C172 C 0.66873 0.88669 0.89744 0.0
C173 C 0.81049 0.7472 0.88196 0.0
C174 C 0.82755 0.71924 0.86172 0.0
C175 C 0.81145 0.74953 0.92346 0.0
C176 C 0.83227 0.72632 0.94409 0.0
C177 C 0.8524 0.70088 0.9233 0.0
C178 C 0.84854 0.69636 0.88224 0.0
C179 C 0.66136 0.84848 0.89142 0.0
H180 H 0.90577 0.84207 0.71255 0.0
H181 H 0.85959 0.80408 0.75279 0.0
H182 H 0.84384 0.89857 0.828 0.0
H183 H 0.8903 0.93636 0.78843 0.0
H184 H 0.85193 0.78433 0.82665 0.0
H185 H 0.77756 0.86652 0.80949 0.0
H186 H 0.74626 0.78161 0.89251 0.0
H187 H 0.68382 0.79896 0.87182 0.0
H188 H 0.76092 0.89925 0.86608 0.0
H189 H 0.71099 0.93399 0.89078 0.0
H190 H 0.82681 0.71674 0.82976 0.0
H191 H 0.79876 0.77109 0.93968 0.0
H192 H 0.63392 0.83405 0.89946 0.0
H193 H 0.86335 0.67632 0.86584 0.0
H194 H 0.83486 0.72998 0.97585 0.0
C195 C 0.70037 0.12234 0.23192 0.0
C196 C 0.69221 0.14297 0.19952 0.0
C197 C 0.71814 0.13943 0.26521 0.0
C198 C 0.72803 0.17757 0.26697 0.0
C199 C 0.72105 0.19816 0.23416 0.0
C200 C 0.70339 0.181 0.20068 0.0
C201 C 0.74258 0.19582 0.30426 0.0
C202 C 0.76988 0.18066 0.32627 0.0
C203 C 0.77996 0.19476 0.3642 0.0
C204 C 0.76228 0.22453 0.3802 0.0
C205 C 0.73578 0.24074 0.35775 0.0
C206 C 0.72631 0.22632 0.31983 0.0
C207 C 0.71557 0.27118 0.37402 0.0
C208 C 0.69457 0.26735 0.40947 0.0
C209 C 0.71343 0.30238 0.35164 0.0
C210 C 0.68969 0.3287 0.36373 0.0
C211 C 0.66724 0.32408 0.3982 0.0
C212 C 0.80744 0.1765 0.38715 0.0
C213 C 0.7982 0.16475 0.42549 0.0
C214 C 0.84139 0.16728 0.3691 0.0
C215 C 0.86482 0.14542 0.38824 0.0
C216 C 0.85473 0.13214 0.42582 0.0
C217 C 0.82156 0.14261 0.44459 0.0
C218 C 0.67038 0.29348 0.42133 0.0
H219 H 0.6915 0.09313 0.23239 0.0
H220 H 0.72251 0.12293 0.29032 0.0
H221 H 0.72871 0.22759 0.23466 0.0
H222 H 0.69797 0.19757 0.17598 0.0
H223 H 0.78242 0.15696 0.31432 0.0
H224 H 0.70445 0.23761 0.30337 0.0
H225 H 0.76937 0.23526 0.4097 0.0
H226 H 0.69548 0.24334 0.42701 0.0
H227 H 0.72934 0.30585 0.32413 0.0
H228 H 0.68774 0.35191 0.34526 0.0
H229 H 0.77207 0.17127 0.43996 0.0
H230 H 0.84926 0.17615 0.3396 0.0
H231 H 0.65368 0.28949 0.44827 0.0
H232 H 0.81333 0.13319 0.47379 0.0
H233 H 0.89004 0.13771 0.37288 0.0
C234 C 0.21882 0.61803 0.14781 0.0
C235 C 0.2126 0.6211 0.1072 0.0
C236 C 0.25285 0.63396 0.16519 0.0
C237 C 0.28189 0.65309 0.14237 0.0
C238 C 0.27547 0.65628 0.10171 0.0
C239 C 0.24121 0.64069 0.08443 0.0
C240 C 0.31879 0.66925 0.16073 0.0
C241 C 0.3353 0.65122 0.19105 0.0
C242 C 0.36998 0.66596 0.20853 0.0
C243 C 0.38893 0.69902 0.19433 0.0
C244 C 0.37302 0.71782 0.16394 0.0
C245 C 0.33769 0.70272 0.14793 0.0
C246 C 0.39262 0.75336 0.14894 0.0
C247 C 0.41341 0.77922 0.17441 0.0
C248 C 0.38996 0.76216 0.1089 0.0
C249 C 0.40685 0.79583 0.095 0.0
C250 C 0.42752 0.82155 0.12048 0.0
C251 C 0.38569 0.64669 0.24195 0.0
C252 C 0.36119 0.6321 0.27216 0.0
C253 C 0.42475 0.64199 0.24375 0.0
C254 C 0.43876 0.62285 0.27468 0.0
C255 C 0.41416 0.60831 0.30489 0.0
C256 C 0.3752 0.61332 0.30315 0.0
C257 C 0.43078 0.8127 0.16032 0.0
H258 H 0.19713 0.60355 0.1663 0.0
H259 H 0.2562 0.6315 0.19668 0.0
H260 H 0.29725 0.67019 0.08291 0.0
H261 H 0.23751 0.64319 0.05298 0.0
H262 H 0.32151 0.62507 0.20066 0.0
H263 H 0.32425 0.71757 0.12596 0.0
H264 H 0.41593 0.71016 0.2072 0.0
H265 H 0.41572 0.77399 0.2055 0.0
H266 H 0.3751 0.74287 0.08796 0.0
H267 H 0.40432 0.80145 0.06402 0.0
H268 H 0.33102 0.63544 0.27202 0.0
H269 H 0.44441 0.6526 0.2209 0.0
H270 H 0.44627 0.83201 0.18085 0.0
H271 H 0.35529 0.6023 0.32559 0.0
H272 H 0.46899 0.61984 0.27521 0.0
C273 C 0.144 0.2197 0.61888 0.0
C274 C 0.10432 0.20993 0.61758 0.0
C275 C 0.15919 0.25373 0.63498 0.0
C276 C 0.13513 0.27942 0.6495 0.0
C277 C 0.0953 0.26925 0.64885 0.0
C278 C 0.0801 0.2348 0.63332 0.0
C279 C 0.15191 0.31673 0.66421 0.0
C280 C 0.1852 0.3339 0.64619 0.0
C281 C 0.20348 0.36774 0.66058 0.0
C282 C 0.18671 0.38545 0.69291 0.0
C283 C 0.15231 0.36971 0.7104 0.0
C284 C 0.13537 0.33523 0.69604 0.0
C285 C 0.1337 0.38931 0.74346 0.0
C286 C 0.15465 0.40364 0.77664 0.0
C287 C 0.09463 0.39389 0.74191 0.0
C288 C 0.07707 0.41283 0.77243 0.0
C289 C 0.09793 0.42705 0.8057 0.0
C290 C 0.23987 0.38397 0.64117 0.0
C291 C 0.26624 0.36093 0.62568 0.0
C292 C 0.24805 0.42205 0.63635 0.0
C293 C 0.28102 0.43642 0.61567 0.0
C294 C 0.30625 0.41301 0.59887 0.0
C295 C 0.29864 0.37518 0.6045 0.0
C296 C 0.13686 0.42195 0.80761 0.0
H297 H 0.16338 0.20086 0.60758 0.0
H298 H 0.18999 0.25982 0.63597 0.0
H299 H 0.07574 0.28822 0.65936 0.0
H300 H 0.04935 0.22803 0.63254 0.0
H301 H 0.19666 0.32102 0.62012 0.0
H302 H 0.10977 0.32252 0.7104 0.0
H303 H 0.20017 0.41159 0.70436 0.0
H304 H 0.18473 0.40038 0.77881 0.0
H305 H 0.07775 0.38332 0.71669 0.0
H306 H 0.04702 0.41616 0.77014 0.0
H307 H 0.26185 0.33162 0.62972 0.0
H308 H 0.22847 0.44073 0.64751 0.0
H309 H 0.15375 0.43277 0.83272 0.0
H310 H 0.31796 0.35653 0.59264 0.0
H311 H 0.28621 0.46573 0.61181 0.0
Dy312 Dy 0.02617 0.01678 0.46886 0.0
C313 C 0.97012 0.97208 0.61879 0.0
C314 C 0.04782 0.03652 0.39474 0.0
Dy315 Dy 0.98678 0.99441 0.54442 0.0
O316 O 0.06432 0.01424 0.41583 0.0
O317 O 0.01924 0.04812 0.41411 0.0
O318 O 0.08245 0.009 0.49494 0.0
O319 O 0.03329 0.97417 0.51063 0.0
C320 C 0.06852 0.98232 0.51695 0.0
C321 C 0.94476 0.03018 0.49706 0.0
O322 O 0.02517 0.04481 0.5651 0.0
O323 O 0.04355 0.06837 0.50417 0.0
O324 O 0.95103 0.99383 0.59962 0.0
O325 O 0.9983 0.96247 0.59735 0.0
O326 O 0.93023 1.00399 0.51954 0.0
O327 O 0.98011 0.03723 0.50307 0.0
O328 O 0.98609 0.96791 0.4477 0.0
O329 O 0.96736 0.94381 0.50825 0.0
C330 C 0.04236 0.07137 0.54325 0.0
C331 C 0.96827 0.94143 0.46914 0.0
Dy332 Dy 0.5377 0.02487 0.04044 0.0
C333 C 0.42187 0.95537 0.94144 0.0
C334 C 0.59231 0.06582 0.08425 0.0
Dy335 Dy 0.47551 0.99645 0.98647 0.0
O336 O 0.59036 0.03071 0.07775 0.0
O337 O 0.56429 0.07869 0.06698 0.0
O338 O 0.53808 0.97007 0.0676 0.0
O339 O 0.48623 0.98488 0.0478 0.0
C340 C 0.50242 0.95897 0.06116 0.0
C341 C 0.51072 0.06248 0.96588 0.0
O342 O 0.44105 0.01987 0.03448 0.0
O343 O 0.49152 0.05826 0.06054 0.0
O344 O 0.42429 0.99063 0.94692 0.0
O345 O 0.44869 0.94245 0.96067 0.0
O346 O 0.47496 0.05144 0.95991 0.0
O347 O 0.52696 0.03646 0.97897 0.0
O348 O 0.57209 1.00223 0.99219 0.0
O349 O 0.52212 0.96334 0.96606 0.0
C350 C 0.45445 0.04867 0.05662 0.0
C351 C 0.55913 0.97331 0.9701 0.0
Dy352 Dy 0.5149 0.47339 0.47915 0.0
C353 C 0.44674 0.58374 0.56634 0.0
C354 C 0.56036 0.42659 0.44298 0.0
Dy355 Dy 0.49211 0.53625 0.53167 0.0
O356 O 0.52457 0.41812 0.45236 0.0
O357 O 0.57082 0.46076 0.45235 0.0
O358 O 0.45356 0.44816 0.4765 0.0
O359 O 0.47374 0.47794 0.52738 0.0
C360 C 0.44433 0.46188 0.51083 0.0
C361 C 0.56252 0.54766 0.49957 0.0
O362 O 0.51014 0.50112 0.57951 0.0
O363 O 0.54363 0.46517 0.5372 0.0
O364 O 0.48366 0.58595 0.57034 0.0
O365 O 0.43486 0.55537 0.54421 0.0
O366 O 0.55373 0.56132 0.534 0.0
O367 O 0.53284 0.53194 0.48339 0.0
O368 O 0.49335 0.50583 0.43075 0.0
O369 O 0.46558 0.54656 0.47303 0.0
C370 C 0.53447 0.47634 0.5735 0.0
C371 C 0.47182 0.53298 0.43691 0.0
Dy372 Dy 0.01365 0.47578 0.02003 0.0
C373 C 0.9565 0.6096 0.98366 0.0
C374 C 0.05028 0.4167 0.03381 0.0
Dy375 Dy 0.99418 0.54974 0.98744 0.0
O376 O 0.01725 0.42224 0.04894 0.0
O377 O 0.06314 0.44331 0.01138 0.0
O378 O 0.96743 0.47816 0.06628 0.0
O379 O 0.99673 0.52689 0.04588 0.0
C380 C 0.96931 0.51375 0.06745 0.0
C381 C 0.02631 0.51066 0.92925 0.0
O382 O 0.04941 0.57019 0.0177 0.0
O383 O 0.06512 0.51406 0.03925 0.0
O384 O 0.99023 0.60691 0.96824 0.0
O385 O 0.94385 0.57983 1.00155 0.0
O386 O 0.01551 0.54289 0.92416 0.0
O387 O 0.0191 0.50252 0.96459 0.0
O388 O 0.96576 0.45501 0.97967 0.0
O389 O 0.9412 0.51077 0.97479 0.0
C390 C 0.07293 0.55009 0.03537 0.0
C391 C 0.93825 0.47456 0.96952 0.0
C392 C 0.06753 0.09907 0.30971 0.0
C393 C 0.10328 0.08958 0.29681 0.0
H394 H 0.02144 0.08918 0.35136 0.0
C395 C 0.11782 0.05929 0.31264 0.0
H396 H 0.05585 0.12241 0.29786 0.0
C397 C 0.09816 0.04028 0.34292 0.0
C398 C 0.06388 0.05152 0.35789 0.0
H399 H 0.14509 0.05121 0.30261 0.0
H400 H 0.11083 0.01805 0.35594 0.0
C401 C 0.04793 0.08016 0.34023 0.0
C402 C 0.3812 0.87957 0.87153 0.0
C403 C 0.35404 0.89688 0.85133 0.0
H404 H 0.42363 0.8845 0.9166 0.0
C405 C 0.34661 0.93224 0.86375 0.0
H406 H 0.38716 0.85216 0.86263 0.0
C407 C 0.36768 0.95083 0.89437 0.0
C408 C 0.3961 0.93413 0.91324 0.0
H409 H 0.32595 0.94619 0.84847 0.0
H410 H 0.36266 0.97871 0.90233 0.0
C411 C 0.40192 0.89798 0.90241 0.0
C412 C 0.55022 0.44633 0.6784 0.0
C413 C 0.57822 0.42214 0.67241 0.0
H414 H 0.51483 0.48272 0.65231 0.0
C415 C 0.59189 0.41648 0.63369 0.0
H416 H 0.53928 0.45168 0.70781 0.0
C417 C 0.57796 0.4343 0.60192 0.0
C418 C 0.55002 0.45852 0.60783 0.0
H419 H 0.61308 0.39776 0.62776 0.0
H420 H 0.58911 0.4289 0.57259 0.0
C421 C 0.53642 0.46439 0.64656 0.0
C422 C 0.94475 0.59166 0.1367 0.0
C423 C 0.91588 0.57385 0.16079 0.0
H424 H 0.98378 0.58692 0.08789 0.0
C425 C 0.90368 0.53657 0.15249 0.0
H426 H 0.95454 0.62044 0.14192 0.0
C427 C 0.92052 0.5174 0.12167 0.0
C428 C 0.94978 0.53504 0.09811 0.0
H429 H 0.8818 0.52186 0.17055 0.0
H430 H 0.91097 0.48854 0.11667 0.0
C431 C 0.96134 0.57253 0.10557 0.0
C432 C 0.36411 0.09129 0.07883 0.0
C433 C 0.37771 0.12173 0.10285 0.0
H434 H 0.37762 0.04387 0.04592 0.0
C435 C 0.41609 0.12646 0.11428 0.0
H436 H 0.33434 0.08669 0.07038 0.0
C437 C 0.44097 0.10186 0.10035 0.0
C438 C 0.4276 0.07204 0.07518 0.0
H439 H 0.42703 0.14967 0.13301 0.0
H440 H 0.47077 0.1067 0.10861 0.0
C441 C 0.3888 0.06659 0.0652 0.0
C442 C 0.09936 0.90465 0.57519 0.0
C443 C 0.13937 0.91253 0.57386 0.0
H444 H 0.04543 0.92032 0.55758 0.0
C445 C 0.15565 0.944 0.55471 0.0
H446 H 0.08611 0.88047 0.58965 0.0
C447 C 0.13246 0.96702 0.537 0.0
C448 C 0.09252 0.95884 0.53768 0.0
H449 H 0.18638 0.95101 0.55373 0.0
H450 H 0.14588 0.99104 0.52237 0.0
C451 C 0.07613 0.92747 0.55697 0.0
C452 C 0.84506 0.45722 0.91316 0.0
C453 C 0.83383 0.41968 0.91901 0.0
H454 H 0.88631 0.50382 0.92451 0.0
C455 C 0.85796 0.4003 0.94124 0.0
H456 H 0.82803 0.4731 0.8955 0.0
C457 C 0.89208 0.41789 0.95709 0.0
C458 C 0.90273 0.45548 0.95174 0.0
H459 H 0.85026 0.3716 0.94713 0.0
H460 H 0.90973 0.40215 0.97426 0.0
C461 C 0.87879 0.47491 0.92959 0.0
C462 C 0.66744 0.57751 0.47865 0.0
C463 C 0.66813 0.58148 0.43728 0.0
H464 H 0.63358 0.56444 0.53068 0.0
C465 C 0.6335 0.57252 0.41682 0.0
H466 H 0.69328 0.58287 0.49576 0.0
C467 C 0.59958 0.56044 0.43694 0.0
C468 C 0.59896 0.55801 0.47822 0.0
H469 H 0.63204 0.57574 0.38528 0.0
H470 H 0.57349 0.55422 0.42025 0.0
C471 C 0.63321 0.56653 0.49886 0.0
C472 C 0.07804 0.33274 0.08083 0.0
C473 C 0.11572 0.33228 0.06669 0.0
H474 H 0.0276 0.36013 0.08128 0.0
C475 C 0.13083 0.35847 0.03978 0.0
H476 H 0.06592 0.31306 0.102 0.0
C477 C 0.10891 0.38535 0.02801 0.0
C478 C 0.07176 0.38646 0.04323 0.0
H479 H 0.1597 0.3584 0.02827 0.0
H480 H 0.12138 0.40577 0.0078 0.0
C481 C 0.05621 0.35969 0.06918 0.0
C482 C 0.52815 0.15005 0.90864 0.0
C483 C 0.56659 0.16268 0.9169 0.0
H484 H 0.4807 0.10919 0.91773 0.0
C485 C 0.5867 0.14152 0.94171 0.0
H486 H 0.5117 0.16474 0.8891 0.0
C487 C 0.56889 0.10886 0.95755 0.0
C488 C 0.53044 0.09673 0.94935 0.0
H489 H 0.6161 0.15038 0.94944 0.0
H490 H 0.58508 0.09332 0.97653 0.0
C491 C 0.51033 0.11782 0.92485 0.0
C492 C 0.90585 0.85129 0.44932 0.0
C493 C 0.91701 0.8417 0.41066 0.0
H494 H 0.91345 0.88995 0.49819 0.0
C495 C 0.94468 0.86551 0.39114 0.0
H496 H 0.88479 0.83337 0.46523 0.0
C497 C 0.96073 0.89822 0.4098 0.0
C498 C 0.95002 0.90754 0.44872 0.0
H499 H 0.9537 0.85895 0.36128 0.0
H500 H 0.98204 0.9159 0.39394 0.0
C501 C 0.9224 0.88364 0.46825 0.0
C502 C 0.41448 0.66892 0.61552 0.0
C503 C 0.37694 0.66793 0.60132 0.0
H504 H 0.46604 0.64298 0.61562 0.0
C505 C 0.3621 0.63782 0.57734 0.0
H506 H 0.42657 0.69123 0.63482 0.0
C507 C 0.38452 0.60986 0.56711 0.0
C508 C 0.42231 0.61158 0.58034 0.0
H509 H 0.33353 0.63627 0.56555 0.0
H510 H 0.37256 0.5874 0.54791 0.0
C511 C 0.43702 0.64113 0.60492 0.0
C512 C 0.9093 0.94837 0.70774 0.0
C513 C 0.92362 0.91623 0.71932 0.0
H514 H 0.9133 0.99155 0.66666 0.0
C515 C 0.95669 0.90547 0.70081 0.0
H516 H 0.88363 0.95712 0.72123 0.0
C517 C 0.97366 0.92528 0.66948 0.0
C518 C 0.95751 0.95579 0.65621 0.0
H519 H 0.96847 0.88102 0.70956 0.0
H520 H 0.99806 0.91554 0.65433 0.0
C521 C 0.92611 0.96797 0.67638 0.0
C522 C 0.67539 0.08939 0.15273 0.0
C523 C 0.66966 0.12501 0.16615 0.0
H524 H 0.65521 0.04273 0.11618 0.0
C525 C 0.64006 0.1421 0.14972 0.0
H526 H 0.69835 0.07573 0.16424 0.0
C527 C 0.61569 0.12333 0.12179 0.0
C528 C 0.62036 0.08712 0.11009 0.0
H529 H 0.63457 0.16935 0.15971 0.0
H530 H 0.59234 0.13664 0.11056 0.0
C531 C 0.65084 0.07056 0.12511 0.0
C532 C 0.45569 0.5631 0.33207 0.0
C533 C 0.42887 0.58844 0.33843 0.0
H534 H 0.48984 0.52532 0.35773 0.0
C535 C 0.41588 0.59458 0.37731 0.0
H536 H 0.46608 0.55739 0.30251 0.0
C537 C 0.42946 0.57624 0.4089 0.0
C538 C 0.45628 0.55094 0.40264 0.0
H539 H 0.3956 0.61413 0.38352 0.0
H540 H 0.41894 0.58212 0.43837 0.0
C541 C 0.46907 0.54444 0.36372 0.0
C542 C 0.05773 0.47634 0.82833 0.0
C543 C 0.07925 0.4479 0.83771 0.0
H544 H 0.02472 0.51855 0.8499 0.0
C545 C 0.08281 0.43978 0.87772 0.0
H546 H 0.05463 0.48345 0.79786 0.0
C547 C 0.06501 0.45952 0.90757 0.0
C548 C 0.04402 0.48831 0.89814 0.0
H549 H 0.09905 0.41791 0.88589 0.0
H550 H 0.06829 0.45267 0.93798 0.0
C551 C 0.04069 0.49652 0.85818 0.0
C552 C 0.65159 0.93584 0.94442 0.0
C553 C 0.63999 0.90821 0.91605 0.0
H554 H 0.63528 0.97827 0.98322 0.0
C555 C 0.60135 0.90201 0.90537 0.0
H556 H 0.68103 0.94071 0.95391 0.0
C557 C 0.57485 0.92342 0.9226 0.0
C558 C 0.58674 0.95138 0.95056 0.0
H559 H 0.59175 0.88103 0.88336 0.0
H560 H 0.54519 0.91816 0.91393 0.0
C561 C 0.62532 0.95734 0.96128 0.0
C562 C 0.85995 0.07477 0.46265 0.0
C563 C 0.87789 0.10615 0.44441 0.0
H564 H 0.8671 0.02579 0.49304 0.0
C565 C 0.91806 0.1118 0.44288 0.0
H566 H 0.82907 0.06933 0.46372 0.0
C567 C 0.93978 0.08679 0.45948 0.0
C568 C 0.92179 0.05554 0.47779 0.0
H569 H 0.93272 0.13582 0.42926 0.0
H570 H 0.97067 0.09214 0.45833 0.0
C571 C 0.8817 0.04966 0.47908 0.0
C572 C 0.15654 0.62184 0.06167 0.0
C573 C 0.17677 0.60319 0.0886 0.0
H574 H 0.10778 0.62002 0.02405 0.0
C575 C 0.16261 0.56704 0.09762 0.0
H576 H 0.16657 0.64979 0.05428 0.0
C577 C 0.1292 0.54989 0.0801 0.0
C578 C 0.10871 0.56856 0.0534 0.0
H579 H 0.17769 0.55176 0.11789 0.0
H580 H 0.11933 0.52199 0.08781 0.0
C581 C 0.12274 0.60482 0.04449 0.0
C582 C 0.36659 0.45616 0.59024 0.0
C583 C 0.34035 0.42751 0.57521 0.0
H584 H 0.4204 0.48903 0.58197 0.0
C585 C 0.34771 0.41158 0.53792 0.0
H586 H 0.36179 0.4688 0.61896 0.0
C587 C 0.38084 0.42358 0.51643 0.0
C588 C 0.40773 0.45133 0.53205 0.0
H589 H 0.32786 0.38963 0.52546 0.0
H590 H 0.38585 0.41044 0.48802 0.0
C591 C 0.40013 0.46768 0.56907 0.0
C592 C 0.86934 0.65878 0.97495 0.0
C593 C 0.88038 0.68143 0.94335 0.0
H594 H 0.88558 0.61794 0.01303 0.0
C595 C 0.91823 0.68417 0.92919 0.0
H596 H 0.84029 0.65659 0.98638 0.0
C597 C 0.94414 0.66271 0.94466 0.0
C598 C 0.93235 0.63792 0.97416 0.0
H599 H 0.92738 0.70208 0.90523 0.0
H600 H 0.97265 0.664 0.93193 0.0
C601 C 0.8952 0.6369 0.99016 0.0
C602 C 0.48414 0.86976 0.11553 0.0
C603 C 0.44624 0.85711 0.10539 0.0
H604 H 0.53151 0.91133 0.10913 0.0
C605 C 0.42671 0.87847 0.08043 0.0
H606 H 0.50017 0.85386 0.13428 0.0
C607 C 0.44461 0.9118 0.06629 0.0
C608 C 0.48262 0.92416 0.0763 0.0
H609 H 0.39742 0.86961 0.07219 0.0
H610 H 0.42884 0.92771 0.0473 0.0
C611 C 0.50216 0.90266 0.10093 0.0
C612 C 0.10129 0.16358 0.5612 0.0
C613 C 0.08851 0.17422 0.59892 0.0
H614 H 0.09659 0.12304 0.51399 0.0
C615 C 0.06085 0.15047 0.61853 0.0
H616 H 0.12243 0.18141 0.54529 0.0
C617 C 0.04651 0.11667 0.6009 0.0
C618 C 0.05892 0.10627 0.56291 0.0
H619 H 0.05064 0.15787 0.6477 0.0
H620 H 0.02517 0.09901 0.61674 0.0
C621 C 0.08641 0.13018 0.54326 0.0
C622 C 0.65058 0.38837 0.40801 0.0
C623 C 0.63959 0.35041 0.40903 0.0
H624 H 0.63394 0.44227 0.41797 0.0
C625 C 0.60174 0.33772 0.41965 0.0
H626 H 0.67958 0.3989 0.40003 0.0
C627 C 0.5755 0.36252 0.42938 0.0
C628 C 0.58678 0.40042 0.42911 0.0
H629 H 0.59236 0.3086 0.42013 0.0
H630 H 0.54663 0.35203 0.4379 0.0
C631 C 0.62448 0.41315 0.4182 0.0
loop_
_geom_bond_atom_site_label_1
_geom_bond_atom_site_label_2
_geom_bond_distance
_geom_bond_site_symmetry_2
_ccdc_geom_bond_type
C0 C1 1.386 . S
C0 C2 1.397 . S
C0 H24 0.931 . S
C1 C0 1.386 . S
C1 C5 1.397 . S
C2 C0 1.397 . S
C2 C3 1.384 . S
C2 H25 0.930 . S
C3 C2 1.384 . S
C3 C4 1.377 . S
C3 C6 1.481 . S
C4 C3 1.377 . S
C4 C5 1.389 . S
C4 H26 0.929 . S
C5 C1 1.397 . S
C5 C4 1.389 . S
C5 H27 0.931 . S
C6 C3 1.481 . S
C6 C7 1.387 . S
C6 C11 1.390 . S
C7 C6 1.387 . S
C7 C8 1.401 . S
C7 H28 0.930 . S
C8 C7 1.401 . S
C8 C9 1.376 . S
C8 C17 1.511 . S
C9 C8 1.376 . S
C9 C10 1.392 . S
C9 H30 0.931 . S
C10 C9 1.392 . S
C10 C11 1.361 . S
C10 C12 1.500 . S
C11 C6 1.390 . S
C11 C10 1.361 . S
C11 H29 0.931 . S
C12 C10 1.500 . S
C12 C13 1.371 . S
C12 C14 1.365 . S
C13 C12 1.371 . S
C13 C23 1.386 . S
C13 H31 0.931 . S
C14 C12 1.365 . S
C14 C15 1.409 . S
C14 H32 0.929 . S
C15 C14 1.409 . S
C15 C16 1.380 . S
C15 H33 0.930 . S
C16 C15 1.380 . S
C16 C23 1.357 . S
C17 C8 1.511 . S
C17 C18 1.341 . S
C17 C19 1.371 . S
C18 C17 1.341 . S
C18 C22 1.394 . S
C18 H34 0.930 . S
C19 C17 1.371 . S
C19 C20 1.392 . S
C19 H35 0.931 . S
C20 C19 1.392 . S
C20 C21 1.331 . S
C20 H38 0.932 . S
C21 C20 1.331 . S
C21 C22 1.336 . S
C22 C18 1.394 . S
C22 C21 1.336 . S
C22 H37 0.929 . S
C23 C13 1.386 . S
C23 C16 1.357 . S
C23 H36 0.928 . S
H24 C0 0.931 . S
H25 C2 0.930 . S
H26 C4 0.929 . S
H27 C5 0.931 . S
H28 C7 0.930 . S
H29 C11 0.931 . S
H30 C9 0.931 . S
H31 C13 0.931 . S
H32 C14 0.929 . S
H33 C15 0.930 . S
H34 C18 0.930 . S
H35 C19 0.931 . S
H36 C23 0.928 . S
H37 C22 0.929 . S
H38 C20 0.932 . S
C39 C40 1.386 . S
C39 C41 1.397 . S
C39 H63 0.931 . S
C40 C39 1.386 . S
C40 C44 1.397 . S
C41 C39 1.397 . S
C41 C42 1.384 . S
C41 H64 0.930 . S
C42 C41 1.384 . S
C42 C43 1.377 . S
C42 C45 1.481 . S
C43 C42 1.377 . S
C43 C44 1.389 . S
C43 H65 0.929 . S
C44 C40 1.397 . S
C44 C43 1.389 . S
C44 H66 0.931 . S
C45 C42 1.481 . S
C45 C46 1.387 . S
C45 C50 1.390 . S
C46 C45 1.387 . S
C46 C47 1.401 . S
C46 H67 0.930 . S
C47 C46 1.401 . S
C47 C48 1.376 . S
C47 C56 1.511 . S
C48 C47 1.376 . S
C48 C49 1.392 . S
C48 H69 0.931 . S
C49 C48 1.392 . S
C49 C50 1.361 . S
C49 C51 1.500 . S
C50 C45 1.390 . S
C50 C49 1.361 . S
C50 H68 0.931 . S
C51 C49 1.500 . S
C51 C52 1.371 . S
C51 C53 1.365 . S
C52 C51 1.371 . S
C52 C62 1.386 . S
C52 H70 0.931 . S
C53 C51 1.365 . S
C53 C54 1.409 . S
C53 H71 0.929 . S
C54 C53 1.409 . S
C54 C55 1.380 . S
C54 H72 0.930 . S
C55 C54 1.380 . S
C55 C62 1.357 . S
C56 C47 1.511 . S
C56 C57 1.341 . S
C56 C58 1.371 . S
C57 C56 1.341 . S
C57 C61 1.394 . S
C57 H73 0.930 . S
C58 C56 1.371 . S
C58 C59 1.392 . S
C58 H74 0.931 . S
C59 C58 1.392 . S
C59 C60 1.331 . S
C59 H77 0.932 . S
C60 C59 1.331 . S
C60 C61 1.336 . S
C61 C57 1.394 . S
C61 C60 1.336 . S
C61 H76 0.929 . S
C62 C52 1.386 . S
C62 C55 1.357 . S
C62 H75 0.928 . S
H63 C39 0.931 . S
H64 C41 0.930 . S
H65 C43 0.929 . S
H66 C44 0.931 . S
H67 C46 0.930 . S
H68 C50 0.931 . S
H69 C48 0.931 . S
H70 C52 0.931 . S
H71 C53 0.929 . S
H72 C54 0.930 . S
H73 C57 0.930 . S
H74 C58 0.931 . S
H75 C62 0.928 . S
H76 C61 0.929 . S
H77 C59 0.932 . S
C78 C79 1.386 . S
C78 C80 1.397 . S
C78 H102 0.931 . S
C79 C78 1.386 . S
C79 C83 1.397 . S
C80 C78 1.397 . S
C80 C81 1.384 . S
C80 H103 0.930 . S
C81 C80 1.384 . S
C81 C82 1.377 . S
C81 C84 1.481 . S
C82 C81 1.377 . S
C82 C83 1.389 . S
C82 H104 0.929 . S
C83 C79 1.397 . S
C83 C82 1.389 . S
C83 H105 0.931 . S
C84 C81 1.481 . S
C84 C85 1.387 . S
C84 C89 1.390 . S
C85 C84 1.387 . S
C85 C86 1.401 . S
C85 H106 0.930 . S
C86 C85 1.401 . S
C86 C87 1.376 . S
C86 C95 1.511 . S
C87 C86 1.376 . S
C87 C88 1.392 . S
C87 H108 0.931 . S
C88 C87 1.392 . S
C88 C89 1.361 . S
C88 C90 1.500 . S
C89 C84 1.390 . S
C89 C88 1.361 . S
C89 H107 0.931 . S
C90 C88 1.500 . S
C90 C91 1.371 . S
C90 C92 1.365 . S
C91 C90 1.371 . S
C91 C101 1.386 . S
C91 H109 0.931 . S
C92 C90 1.365 . S
C92 C93 1.409 . S
C92 H110 0.929 . S
C93 C92 1.409 . S
C93 C94 1.380 . S
C93 H111 0.930 . S
C94 C93 1.380 . S
C94 C101 1.357 . S
C95 C86 1.511 . S
C95 C96 1.341 . S
C95 C97 1.371 . S
C96 C95 1.341 . S
C96 C100 1.394 . S
C96 H112 0.930 . S
C97 C95 1.371 . S
C97 C98 1.392 . S
C97 H113 0.931 . S
C98 C97 1.392 . S
C98 C99 1.331 . S
C98 H116 0.932 . S
C99 C98 1.331 . S
C99 C100 1.336 . S
C100 C96 1.394 . S
C100 C99 1.336 . S
C100 H115 0.929 . S
C101 C91 1.386 . S
C101 C94 1.357 . S
C101 H114 0.928 . S
H102 C78 0.931 . S
H103 C80 0.930 . S
H104 C82 0.929 . S
H105 C83 0.931 . S
H106 C85 0.930 . S
H107 C89 0.931 . S
H108 C87 0.931 . S
H109 C91 0.931 . S
H110 C92 0.929 . S
H111 C93 0.930 . S
H112 C96 0.930 . S
H113 C97 0.931 . S
H114 C101 0.928 . S
H115 C100 0.929 . S
H116 C98 0.932 . S
C117 C118 1.386 . S
C117 C119 1.397 . S
C117 H141 0.931 . S
C118 C117 1.386 . S
C118 C122 1.397 . S
C119 C117 1.397 . S
C119 C120 1.384 . S
C119 H142 0.930 . S
C120 C119 1.384 . S
C120 C121 1.377 . S
C120 C123 1.481 . S
C121 C120 1.377 . S
C121 C122 1.389 . S
C121 H143 0.929 . S
C122 C118 1.397 . S
C122 C121 1.389 . S
C122 H144 0.931 . S
C123 C120 1.481 . S
C123 C124 1.387 . S
C123 C128 1.390 . S
C124 C123 1.387 . S
C124 C125 1.401 . S
C124 H145 0.930 . S
C125 C124 1.401 . S
C125 C126 1.376 . S
C125 C134 1.511 . S
C126 C125 1.376 . S
C126 C127 1.392 . S
C126 H147 0.931 . S
C127 C126 1.392 . S
C127 C128 1.361 . S
C127 C129 1.500 . S
C128 C123 1.390 . S
C128 C127 1.361 . S
C128 H146 0.931 . S
C129 C127 1.500 . S
C129 C130 1.371 . S
C129 C131 1.365 . S
C130 C129 1.371 . S
C130 C140 1.386 . S
C130 H148 0.931 . S
C131 C129 1.365 . S
C131 C132 1.409 . S
C131 H149 0.929 . S
C132 C131 1.409 . S
C132 C133 1.380 . S
C132 H150 0.930 . S
C133 C132 1.380 . S
C133 C140 1.357 . S
C134 C125 1.511 . S
C134 C135 1.341 . S
C134 C136 1.371 . S
C135 C134 1.341 . S
C135 C139 1.394 . S
C135 H151 0.930 . S
C136 C134 1.371 . S
C136 C137 1.392 . S
C136 H152 0.931 . S
C137 C136 1.392 . S
C137 C138 1.331 . S
C137 H155 0.932 . S
C138 C137 1.331 . S
C138 C139 1.336 . S
C139 C135 1.394 . S
C139 C138 1.336 . S
C139 H154 0.929 . S
C140 C130 1.386 . S
C140 C133 1.357 . S
C140 H153 0.928 . S
H141 C117 0.931 . S
H142 C119 0.930 . S
H143 C121 0.929 . S
H144 C122 0.931 . S
H145 C124 0.930 . S
H146 C128 0.931 . S
H147 C126 0.931 . S
H148 C130 0.931 . S
H149 C131 0.929 . S
H150 C132 0.930 . S
H151 C135 0.930 . S
H152 C136 0.931 . S
H153 C140 0.928 . S
H154 C139 0.929 . S
H155 C137 0.932 . S
C156 C157 1.386 . S
C156 C158 1.397 . S
C156 H180 0.931 . S
C157 C156 1.386 . S
C157 C161 1.397 . S
C158 C156 1.397 . S
C158 C159 1.384 . S
C158 H181 0.930 . S
C159 C158 1.384 . S
C159 C160 1.377 . S
C159 C162 1.481 . S
C160 C159 1.377 . S
C160 C161 1.389 . S
C160 H182 0.929 . S
C161 C157 1.397 . S
C161 C160 1.389 . S
C161 H183 0.931 . S
C162 C159 1.481 . S
C162 C163 1.387 . S
C162 C167 1.390 . S
C163 C162 1.387 . S
C163 C164 1.401 . S
C163 H184 0.930 . S
C164 C163 1.401 . S
C164 C165 1.376 . S
C164 C173 1.511 . S
C165 C164 1.376 . S
C165 C166 1.392 . S
C165 H186 0.931 . S
C166 C165 1.392 . S
C166 C167 1.361 . S
C166 C168 1.500 . S
C167 C162 1.390 . S
C167 C166 1.361 . S
C167 H185 0.931 . S
C168 C166 1.500 . S
C168 C169 1.371 . S
C168 C170 1.365 . S
C169 C168 1.371 . S
C169 C179 1.386 . S
C169 H187 0.931 . S
C170 C168 1.365 . S
C170 C171 1.409 . S
C170 H188 0.929 . S
C171 C170 1.409 . S
C171 C172 1.380 . S
C171 H189 0.930 . S
C172 C171 1.380 . S
C172 C179 1.357 . S
C173 C164 1.511 . S
C173 C174 1.341 . S
C173 C175 1.371 . S
C174 C173 1.341 . S
C174 C178 1.394 . S
C174 H190 0.930 . S
C175 C173 1.371 . S
C175 C176 1.392 . S
C175 H191 0.931 . S
C176 C175 1.392 . S
C176 C177 1.331 . S
C176 H194 0.932 . S
C177 C176 1.331 . S
C177 C178 1.336 . S
C178 C174 1.394 . S
C178 C177 1.336 . S
C178 H193 0.929 . S
C179 C169 1.386 . S
C179 C172 1.357 . S
C179 H192 0.928 . S
H180 C156 0.931 . S
H181 C158 0.930 . S
H182 C160 0.929 . S
H183 C161 0.931 . S
H184 C163 0.930 . S
H185 C167 0.931 . S
H186 C165 0.931 . S
H187 C169 0.931 . S
H188 C170 0.929 . S
H189 C171 0.930 . S
H190 C174 0.930 . S
H191 C175 0.931 . S
H192 C179 0.928 . S
H193 C178 0.929 . S
H194 C176 0.932 . S
C195 C196 1.386 . S
C195 C197 1.397 . S
C195 H219 0.931 . S
C196 C195 1.386 . S
C196 C200 1.397 . S
C197 C195 1.397 . S
C197 C198 1.384 . S
C197 H220 0.930 . S
C198 C197 1.384 . S
C198 C199 1.377 . S
C198 C201 1.481 . S
C199 C198 1.377 . S
C199 C200 1.389 . S
C199 H221 0.929 . S
C200 C196 1.397 . S
C200 C199 1.389 . S
C200 H222 0.931 . S
C201 C198 1.481 . S
C201 C202 1.387 . S
C201 C206 1.390 . S
C202 C201 1.387 . S
C202 C203 1.401 . S
C202 H223 0.930 . S
C203 C202 1.401 . S
C203 C204 1.376 . S
C203 C212 1.511 . S
C204 C203 1.376 . S
C204 C205 1.392 . S
C204 H225 0.931 . S
C205 C204 1.392 . S
C205 C206 1.361 . S
C205 C207 1.500 . S
C206 C201 1.390 . S
C206 C205 1.361 . S
C206 H224 0.931 . S
C207 C205 1.500 . S
C207 C208 1.371 . S
C207 C209 1.365 . S
C208 C207 1.371 . S
C208 C218 1.386 . S
C208 H226 0.931 . S
C209 C207 1.365 . S
C209 C210 1.409 . S
C209 H227 0.929 . S
C210 C209 1.409 . S
C210 C211 1.380 . S
C210 H228 0.930 . S
C211 C210 1.380 . S
C211 C218 1.357 . S
C212 C203 1.511 . S
C212 C213 1.341 . S
C212 C214 1.371 . S
C213 C212 1.341 . S
C213 C217 1.394 . S
C213 H229 0.930 . S
C214 C212 1.371 . S
C214 C215 1.392 . S
C214 H230 0.931 . S
C215 C214 1.392 . S
C215 C216 1.331 . S
C215 H233 0.932 . S
C216 C215 1.331 . S
C216 C217 1.336 . S
C217 C213 1.394 . S
C217 C216 1.336 . S
C217 H232 0.929 . S
C218 C208 1.386 . S
C218 C211 1.357 . S
C218 H231 0.928 . S
H219 C195 0.931 . S
H220 C197 0.930 . S
H221 C199 0.929 . S
H222 C200 0.931 . S
H223 C202 0.930 . S
H224 C206 0.931 . S
H225 C204 0.931 . S
H226 C208 0.931 . S
H227 C209 0.929 . S
H228 C210 0.930 . S
H229 C213 0.930 . S
H230 C214 0.931 . S
H231 C218 0.928 . S
H232 C217 0.929 . S
H233 C215 0.932 . S
C234 C235 1.386 . S
C234 C236 1.397 . S
C234 H258 0.931 . S
C235 C234 1.386 . S
C235 C239 1.397 . S
C236 C234 1.397 . S
C236 C237 1.384 . S
C236 H259 0.930 . S
C237 C236 1.384 . S
C237 C238 1.377 . S
C237 C240 1.481 . S
C238 C237 1.377 . S
C238 C239 1.389 . S
C238 H260 0.929 . S
C239 C235 1.397 . S
C239 C238 1.389 . S
C239 H261 0.931 . S
C240 C237 1.481 . S
C240 C241 1.387 . S
C240 C245 1.390 . S
C241 C240 1.387 . S
C241 C242 1.401 . S
C241 H262 0.930 . S
C242 C241 1.401 . S
C242 C243 1.376 . S
C242 C251 1.511 . S
C243 C242 1.376 . S
C243 C244 1.392 . S
C243 H264 0.931 . S
C244 C243 1.392 . S
C244 C245 1.361 . S
C244 C246 1.500 . S
C245 C240 1.390 . S
C245 C244 1.361 . S
C245 H263 0.931 . S
C246 C244 1.500 . S
C246 C247 1.371 . S
C246 C248 1.365 . S
C247 C246 1.371 . S
C247 C257 1.386 . S
C247 H265 0.931 . S
C248 C246 1.365 . S
C248 C249 1.409 . S
C248 H266 0.929 . S
C249 C248 1.409 . S
C249 C250 1.380 . S
C249 H267 0.930 . S
C250 C249 1.380 . S
C250 C257 1.357 . S
C251 C242 1.511 . S
C251 C252 1.341 . S
C251 C253 1.371 . S
C252 C251 1.341 . S
C252 C256 1.394 . S
C252 H268 0.930 . S
C253 C251 1.371 . S
C253 C254 1.392 . S
C253 H269 0.931 . S
C254 C253 1.392 . S
C254 C255 1.331 . S
C254 H272 0.932 . S
C255 C254 1.331 . S
C255 C256 1.336 . S
C256 C252 1.394 . S
C256 C255 1.336 . S
C256 H271 0.929 . S
C257 C247 1.386 . S
C257 C250 1.357 . S
C257 H270 0.928 . S
H258 C234 0.931 . S
H259 C236 0.930 . S
H260 C238 0.929 . S
H261 C239 0.931 . S
H262 C241 0.930 . S
H263 C245 0.931 . S
H264 C243 0.931 . S
H265 C247 0.931 . S
H266 C248 0.929 . S
H267 C249 0.930 . S
H268 C252 0.930 . S
H269 C253 0.931 . S
H270 C257 0.928 . S
H271 C256 0.929 . S
H272 C254 0.932 . S
C273 C274 1.386 . S
C273 C275 1.397 . S
C273 H297 0.931 . S
C274 C273 1.386 . S
C274 C278 1.397 . S
C275 C273 1.397 . S
C275 C276 1.384 . S
C275 H298 0.930 . S
C276 C275 1.384 . S
C276 C277 1.377 . S
C276 C279 1.481 . S
C277 C276 1.377 . S
C277 C278 1.389 . S
C277 H299 0.929 . S
C278 C274 1.397 . S
C278 C277 1.389 . S
C278 H300 0.931 . S
C279 C276 1.481 . S
C279 C280 1.387 . S
C279 C284 1.390 . S
C280 C279 1.387 . S
C280 C281 1.401 . S
C280 H301 0.930 . S
C281 C280 1.401 . S
C281 C282 1.376 . S
C281 C290 1.511 . S
C282 C281 1.376 . S
C282 C283 1.392 . S
C282 H303 0.931 . S
C283 C282 1.392 . S
C283 C284 1.361 . S
C283 C285 1.500 . S
C284 C279 1.390 . S
C284 C283 1.361 . S
C284 H302 0.931 . S
C285 C283 1.500 . S
C285 C286 1.371 . S
C285 C287 1.365 . S
C286 C285 1.371 . S
C286 C296 1.386 . S
C286 H304 0.931 . S
C287 C285 1.365 . S
C287 C288 1.409 . S
C287 H305 0.929 . S
C288 C287 1.409 . S
C288 C289 1.380 . S
C288 H306 0.930 . S
C289 C288 1.380 . S
C289 C296 1.357 . S
C290 C281 1.511 . S
C290 C291 1.341 . S
C290 C292 1.371 . S
C291 C290 1.341 . S
C291 C295 1.394 . S
C291 H307 0.930 . S
C292 C290 1.371 . S
C292 C293 1.392 . S
C292 H308 0.931 . S
C293 C292 1.392 . S
C293 C294 1.331 . S
C293 H311 0.932 . S
C294 C293 1.331 . S
C294 C295 1.336 . S
C295 C291 1.394 . S
C295 C294 1.336 . S
C295 H310 0.929 . S
C296 C286 1.386 . S
C296 C289 1.357 . S
C296 H309 0.928 . S
H297 C273 0.931 . S
H298 C275 0.930 . S
H299 C277 0.929 . S
H300 C278 0.931 . S
H301 C280 0.930 . S
H302 C284 0.931 . S
H303 C282 0.931 . S
H304 C286 0.931 . S
H305 C287 0.929 . S
H306 C288 0.930 . S
H307 C291 0.930 . S
H308 C292 0.931 . S
H309 C296 0.928 . S
H310 C295 0.929 . S
H311 C293 0.932 . S
Dy312 O316 2.398 . S
Dy312 O317 2.491 . S
Dy312 O318 2.403 1_545 S
Dy312 O319 2.664 1_545 S
Dy312 O323 2.326 . S
Dy312 O327 2.310 1_455 S
Dy312 O328 2.351 1_445 S
C313 O324 1.185 . S
C313 O325 1.355 . S
C314 O316 1.185 . S
C314 O317 1.355 . S
Dy315 O319 2.310 1_655 S
Dy315 O322 2.351 1_665 S
Dy315 O324 2.398 . S
Dy315 O325 2.491 . S
Dy315 O326 2.403 1_565 S
Dy315 O327 2.664 1_565 S
Dy315 O329 2.326 . S
O316 Dy312 2.398 . S
O316 C314 1.185 . S
O317 Dy312 2.491 . S
O317 C314 1.355 . S
O318 Dy312 2.403 1_565 S
O318 C320 1.254 . S
O319 Dy312 2.664 1_565 S
O319 Dy315 2.310 1_455 S
O319 C320 1.268 . S
C320 O318 1.254 . S
C320 O319 1.268 . S
C321 O326 1.254 . S
C321 O327 1.268 . S
O322 Dy315 2.351 1_445 S
O322 C330 1.249 . S
O323 Dy312 2.326 . S
O323 C330 1.267 . S
O324 C313 1.185 . S
O324 Dy315 2.398 . S
O325 C313 1.355 . S
O325 Dy315 2.491 . S
O326 Dy315 2.403 1_545 S
O326 C321 1.254 . S
O327 Dy312 2.310 1_655 S
O327 Dy315 2.664 1_545 S
O327 C321 1.268 . S
O328 Dy312 2.351 1_665 S
O328 C331 1.249 . S
O329 Dy315 2.326 . S
O329 C331 1.267 . S
C330 O322 1.249 . S
C330 O323 1.267 . S
C331 O328 1.249 . S
C331 O329 1.267 . S
Dy332 O336 2.398 . S
Dy332 O337 2.491 . S
Dy332 O338 2.403 1_545 S
Dy332 O339 2.664 1_545 S
Dy332 O343 2.326 . S
Dy332 O347 2.310 1_554 S
Dy332 O348 2.351 1_544 S
C333 O344 1.185 . S
C333 O345 1.355 . S
C334 O336 1.185 . S
C334 O337 1.355 . S
Dy335 O339 2.310 1_546 S
Dy335 O342 2.351 1_556 S
Dy335 O344 2.398 1_545 S
Dy335 O345 2.491 1_545 S
Dy335 O346 2.403 . S
Dy335 O347 2.664 . S
Dy335 O349 2.326 1_545 S
O336 Dy332 2.398 . S
O336 C334 1.185 . S
O337 Dy332 2.491 . S
O337 C334 1.355 . S
O338 Dy332 2.403 1_565 S
O338 C340 1.254 . S
O339 Dy332 2.664 1_565 S
O339 Dy335 2.310 1_564 S
O339 C340 1.268 . S
C340 O338 1.254 . S
C340 O339 1.268 . S
C341 O346 1.254 . S
C341 O347 1.268 . S
O342 Dy335 2.351 1_554 S
O342 C350 1.249 . S
O343 Dy332 2.326 . S
O343 C350 1.267 . S
O344 C333 1.185 . S
O344 Dy335 2.398 1_565 S
O345 C333 1.355 . S
O345 Dy335 2.491 1_565 S
O346 Dy335 2.403 . S
O346 C341 1.254 . S
O347 Dy332 2.310 1_556 S
O347 Dy335 2.664 . S
O347 C341 1.268 . S
O348 Dy332 2.351 1_566 S
O348 C351 1.249 . S
O349 Dy335 2.326 1_565 S
O349 C351 1.267 . S
C350 O342 1.249 . S
C350 O343 1.267 . S
C351 O348 1.249 . S
C351 O349 1.267 . S
Dy352 O356 2.398 . S
Dy352 O357 2.491 . S
Dy352 O358 2.403 . S
Dy352 O359 2.664 . S
Dy352 O363 2.326 . S
Dy352 O367 2.310 . S
Dy352 O368 2.351 . S
C353 O364 1.185 . S
C353 O365 1.355 . S
C354 O356 1.185 . S
C354 O357 1.355 . S
Dy355 O359 2.310 . S
Dy355 O362 2.351 . S
Dy355 O364 2.398 . S
Dy355 O365 2.491 . S
Dy355 O366 2.403 . S
Dy355 O367 2.664 . S
Dy355 O369 2.326 . S
O356 Dy352 2.398 . S
O356 C354 1.185 . S
O357 Dy352 2.491 . S
O357 C354 1.355 . S
O358 Dy352 2.403 . S
O358 C360 1.254 . S
O359 Dy352 2.664 . S
O359 Dy355 2.310 . S
O359 C360 1.268 . S
C360 O358 1.254 . S
C360 O359 1.268 . S
C361 O366 1.254 . S
C361 O367 1.268 . S
O362 Dy355 2.351 . S
O362 C370 1.249 . S
O363 Dy352 2.326 . S
O363 C370 1.267 . S
O364 C353 1.185 . S
O364 Dy355 2.398 . S
O365 C353 1.355 . S
O365 Dy355 2.491 . S
O366 Dy355 2.403 . S
O366 C361 1.254 . S
O367 Dy352 2.310 . S
O367 Dy355 2.664 . S
O367 C361 1.268 . S
O368 Dy352 2.351 . S
O368 C371 1.249 . S
O369 Dy355 2.326 . S
O369 C371 1.267 . S
C370 O362 1.249 . S
C370 O363 1.267 . S
C371 O368 1.249 . S
C371 O369 1.267 . S
Dy372 O376 2.398 . S
Dy372 O377 2.491 . S
Dy372 O378 2.403 1_455 S
Dy372 O379 2.664 1_455 S
Dy372 O383 2.326 . S
Dy372 O387 2.310 1_554 S
Dy372 O388 2.351 1_454 S
C373 O384 1.185 . S
C373 O385 1.355 . S
C374 O376 1.185 . S
C374 O377 1.355 . S
Dy375 O379 2.310 1_556 S
Dy375 O382 2.351 1_656 S
Dy375 O384 2.398 . S
Dy375 O385 2.491 . S
Dy375 O386 2.403 1_655 S
Dy375 O387 2.664 1_655 S
Dy375 O389 2.326 . S
O376 Dy372 2.398 . S
O376 C374 1.185 . S
O377 Dy372 2.491 . S
O377 C374 1.355 . S
O378 Dy372 2.403 1_655 S
O378 C380 1.254 . S
O379 Dy372 2.664 1_655 S
O379 Dy375 2.310 1_554 S
O379 C380 1.268 . S
C380 O378 1.254 . S
C380 O379 1.268 . S
C381 O386 1.254 . S
C381 O387 1.268 . S
O382 Dy375 2.351 1_454 S
O382 C390 1.249 . S
O383 Dy372 2.326 . S
O383 C390 1.267 . S
O384 C373 1.185 . S
O384 Dy375 2.398 . S
O385 C373 1.355 . S
O385 Dy375 2.491 . S
O386 Dy375 2.403 1_455 S
O386 C381 1.254 . S
O387 Dy372 2.310 1_556 S
O387 Dy375 2.664 1_455 S
O387 C381 1.268 . S
O388 Dy372 2.351 1_656 S
O388 C391 1.249 . S
O389 Dy375 2.326 . S
O389 C391 1.267 . S
C390 O382 1.249 . S
C390 O383 1.267 . S
C391 O388 1.249 . S
C391 O389 1.267 . S
C392 C393 1.387 . S
C392 H396 0.950 . S
C392 C401 1.390 . S
C393 C392 1.387 . S
C393 C395 1.387 . S
H394 C401 0.950 . S
C395 C393 1.387 . S
C395 C397 1.390 . S
C395 H399 0.950 . S
H396 C392 0.950 . S
C397 C395 1.390 . S
C397 C398 1.387 . S
C397 H400 0.950 . S
C398 C397 1.387 . S
C398 C401 1.387 . S
H399 C395 0.950 . S
H400 C397 0.950 . S
C401 C392 1.390 . S
C401 H394 0.950 . S
C401 C398 1.387 . S
C402 C403 1.387 . S
C402 H406 0.950 . S
C402 C411 1.390 . S
C403 C402 1.387 . S
C403 C405 1.387 . S
H404 C411 0.950 . S
C405 C403 1.387 . S
C405 C407 1.390 . S
C405 H409 0.950 . S
H406 C402 0.950 . S
C407 C405 1.390 . S
C407 C408 1.387 . S
C407 H410 0.950 . S
C408 C407 1.387 . S
C408 C411 1.387 . S
H409 C405 0.950 . S
H410 C407 0.950 . S
C411 C402 1.390 . S
C411 H404 0.950 . S
C411 C408 1.387 . S
C412 C413 1.387 . S
C412 H416 0.950 . S
C412 C421 1.390 . S
C413 C412 1.387 . S
C413 C415 1.387 . S
H414 C421 0.950 . S
C415 C413 1.387 . S
C415 C417 1.390 . S
C415 H419 0.950 . S
H416 C412 0.950 . S
C417 C415 1.390 . S
C417 C418 1.387 . S
C417 H420 0.950 . S
C418 C417 1.387 . S
C418 C421 1.387 . S
H419 C415 0.950 . S
H420 C417 0.950 . S
C421 C412 1.390 . S
C421 H414 0.950 . S
C421 C418 1.387 . S
C422 C423 1.387 . S
C422 H426 0.950 . S
C422 C431 1.390 . S
C423 C422 1.387 . S
C423 C425 1.387 . S
H424 C431 0.950 . S
C425 C423 1.387 . S
C425 C427 1.390 . S
C425 H429 0.950 . S
H426 C422 0.950 . S
C427 C425 1.390 . S
C427 C428 1.387 . S
C427 H430 0.950 . S
C428 C427 1.387 . S
C428 C431 1.387 . S
H429 C425 0.950 . S
H430 C427 0.950 . S
C431 C422 1.390 . S
C431 H424 0.950 . S
C431 C428 1.387 . S
C432 C433 1.387 . S
C432 H436 0.950 . S
C432 C441 1.390 . S
C433 C432 1.387 . S
C433 C435 1.387 . S
H434 C441 0.950 . S
C435 C433 1.387 . S
C435 C437 1.390 . S
C435 H439 0.950 . S
H436 C432 0.950 . S
C437 C435 1.390 . S
C437 C438 1.387 . S
C437 H440 0.950 . S
C438 C437 1.387 . S
C438 C441 1.387 . S
H439 C435 0.950 . S
H440 C437 0.950 . S
C441 C432 1.390 . S
C441 H434 0.950 . S
C441 C438 1.387 . S
C442 C443 1.387 . S
C442 H446 0.950 . S
C442 C451 1.390 . S
C443 C442 1.387 . S
C443 C445 1.387 . S
H444 C451 0.950 . S
C445 C443 1.387 . S
C445 C447 1.390 . S
C445 H449 0.950 . S
H446 C442 0.950 . S
C447 C445 1.390 . S
C447 C448 1.387 . S
C447 H450 0.950 . S
C448 C447 1.387 . S
C448 C451 1.387 . S
H449 C445 0.950 . S
H450 C447 0.950 . S
C451 C442 1.390 . S
C451 H444 0.950 . S
C451 C448 1.387 . S
C452 C453 1.387 . S
C452 H456 0.950 . S
C452 C461 1.390 . S
C453 C452 1.387 . S
C453 C455 1.387 . S
H454 C461 0.950 . S
C455 C453 1.387 . S
C455 C457 1.390 . S
C455 H459 0.950 . S
H456 C452 0.950 . S
C457 C455 1.390 . S
C457 C458 1.387 . S
C457 H460 0.974 . S
C458 C457 1.387 . S
C458 C461 1.387 . S
H459 C455 0.950 . S
H460 C457 0.974 . S
C461 C452 1.390 . S
C461 H454 0.950 . S
C461 C458 1.387 . S
C462 C463 1.387 . S
C462 H466 0.950 . S
C462 C471 1.390 . S
C463 C462 1.387 . S
C463 C465 1.387 . S
H464 C471 0.950 . S
C465 C463 1.387 . S
C465 C467 1.390 . S
C465 H469 0.950 . S
H466 C462 0.950 . S
C467 C465 1.390 . S
C467 C468 1.387 . S
C467 H470 0.950 . S
C468 C467 1.387 . S
C468 C471 1.387 . S
H469 C465 0.950 . S
H470 C467 0.950 . S
C471 C462 1.390 . S
C471 H464 0.950 . S
C471 C468 1.387 . S
C472 C473 1.387 . S
C472 H476 0.950 . S
C472 C481 1.390 . S
C473 C472 1.387 . S
C473 C475 1.387 . S
H474 C481 0.950 . S
C475 C473 1.387 . S
C475 C477 1.390 . S
C475 H479 0.950 . S
H476 C472 0.950 . S
C477 C475 1.390 . S
C477 C478 1.387 . S
C477 H480 0.950 . S
C478 C477 1.387 . S
C478 C481 1.387 . S
H479 C475 0.950 . S
H480 C477 0.950 . S
C481 C472 1.390 . S
C481 H474 0.950 . S
C481 C478 1.387 . S
C482 C483 1.387 . S
C482 H486 0.950 . S
C482 C491 1.390 . S
C483 C482 1.387 . S
C483 C485 1.387 . S
H484 C491 0.950 . S
C485 C483 1.387 . S
C485 C487 1.390 . S
C485 H489 0.950 . S
H486 C482 0.950 . S
C487 C485 1.390 . S
C487 C488 1.387 . S
C487 H490 0.925 1_556 S
C488 C487 1.387 . S
C488 C491 1.387 . S
H489 C485 0.950 . S
H490 C487 0.925 1_554 S
C491 C482 1.390 . S
C491 H484 0.950 . S
C491 C488 1.387 . S
C492 C493 1.387 . S
C492 H496 0.950 . S
C492 C501 1.390 . S
C493 C492 1.387 . S
C493 C495 1.387 . S
H494 C501 0.950 . S
C495 C493 1.387 . S
C495 C497 1.390 . S
C495 H499 0.950 . S
H496 C492 0.950 . S
C497 C495 1.390 . S
C497 C498 1.387 . S
C497 H500 0.950 . S
C498 C497 1.387 . S
C498 C501 1.387 . S
H499 C495 0.950 . S
H500 C497 0.950 . S
C501 C492 1.390 . S
C501 H494 0.950 . S
C501 C498 1.387 . S
C502 C503 1.387 . S
C502 H506 0.950 . S
C502 C511 1.390 . S
C503 C502 1.387 . S
C503 C505 1.387 . S
H504 C511 0.950 . S
C505 C503 1.387 . S
C505 C507 1.390 . S
C505 H509 0.950 . S
H506 C502 0.950 . S
C507 C505 1.390 . S
C507 C508 1.387 . S
C507 H510 0.950 . S
C508 C507 1.387 . S
C508 C511 1.387 . S
H509 C505 0.950 . S
H510 C507 0.950 . S
C511 C502 1.390 . S
C511 H504 0.950 . S
C511 C508 1.387 . S
C512 C513 1.387 . S
C512 H516 0.950 . S
C512 C521 1.390 . S
C513 C512 1.387 . S
C513 C515 1.387 . S
H514 C521 0.950 . S
C515 C513 1.387 . S
C515 C517 1.390 . S
C515 H519 0.950 . S
H516 C512 0.950 . S
C517 C515 1.390 . S
C517 C518 1.387 . S
C517 H520 0.950 . S
C518 C517 1.387 . S
C518 C521 1.387 . S
H519 C515 0.950 . S
H520 C517 0.950 . S
C521 C512 1.390 . S
C521 H514 0.950 . S
C521 C518 1.387 . S
C522 C523 1.387 . S
C522 H526 0.950 . S
C522 C531 1.390 . S
C523 C522 1.387 . S
C523 C525 1.387 . S
H524 C531 0.950 . S
C525 C523 1.387 . S
C525 C527 1.390 . S
C525 H529 0.950 . S
H526 C522 0.950 . S
C527 C525 1.390 . S
C527 C528 1.387 . S
C527 H530 0.950 . S
C528 C527 1.387 . S
C528 C531 1.387 . S
H529 C525 0.950 . S
H530 C527 0.950 . S
C531 C522 1.390 . S
C531 H524 0.950 . S
C531 C528 1.387 . S
C532 C533 1.387 . S
C532 H536 0.950 . S
C532 C541 1.390 . S
C533 C532 1.387 . S
C533 C535 1.387 . S
H534 C541 0.950 . S
C535 C533 1.387 . S
C535 C537 1.390 . S
C535 H539 0.950 . S
H536 C532 0.950 . S
C537 C535 1.390 . S
C537 C538 1.387 . S
C537 H540 0.950 . S
C538 C537 1.387 . S
C538 C541 1.387 . S
H539 C535 0.950 . S
H540 C537 0.950 . S
C541 C532 1.390 . S
C541 H534 0.950 . S
C541 C538 1.387 . S
C542 C543 1.387 . S
C542 H546 0.950 . S
C542 C551 1.390 . S
C543 C542 1.387 . S
C543 C545 1.387 . S
H544 C551 0.950 . S
C545 C543 1.387 . S
C545 C547 1.390 . S
C545 H549 0.950 . S
H546 C542 0.950 . S
C547 C545 1.390 . S
C547 C548 1.387 . S
C547 H550 0.950 . S
C548 C547 1.387 . S
C548 C551 1.387 . S
H549 C545 0.950 . S
H550 C547 0.950 . S
C551 C542 1.390 . S
C551 H544 0.950 . S
C551 C548 1.387 . S
C552 C553 1.387 . S
C552 H556 0.950 . S
C552 C561 1.390 . S
C553 C552 1.387 . S
C553 C555 1.387 . S
H554 C561 0.950 . S
C555 C553 1.387 . S
C555 C557 1.390 . S
C555 H559 0.950 . S
H556 C552 0.950 . S
C557 C555 1.390 . S
C557 C558 1.387 . S
C557 H560 0.950 . S
C558 C557 1.387 . S
C558 C561 1.387 . S
H559 C555 0.950 . S
H560 C557 0.950 . S
C561 C552 1.390 . S
C561 H554 0.950 . S
C561 C558 1.387 . S
C562 C563 1.387 . S
C562 H566 0.950 . S
C562 C571 1.390 . S
C563 C562 1.387 . S
C563 C565 1.387 . S
H564 C571 0.950 . S
C565 C563 1.387 . S
C565 C567 1.390 . S
C565 H569 0.950 . S
H566 C562 0.950 . S
C567 C565 1.390 . S
C567 C568 1.387 . S
C567 H570 0.950 . S
C568 C567 1.387 . S
C568 C571 1.387 . S
H569 C565 0.950 . S
H570 C567 0.950 . S
C571 C562 1.390 . S
C571 H564 0.950 . S
C571 C568 1.387 . S
C572 C573 1.387 . S
C572 H576 0.950 . S
C572 C581 1.390 . S
C573 C572 1.387 . S
C573 C575 1.387 . S
H574 C581 0.950 . S
C575 C573 1.387 . S
C575 C577 1.390 . S
C575 H579 0.950 . S
H576 C572 0.950 . S
C577 C575 1.390 . S
C577 C578 1.387 . S
C577 H580 0.950 . S
C578 C577 1.387 . S
C578 C581 1.387 . S
H579 C575 0.950 . S
H580 C577 0.950 . S
C581 C572 1.390 . S
C581 H574 0.950 . S
C581 C578 1.387 . S
C582 C583 1.387 . S
C582 H586 0.950 . S
C582 C591 1.390 . S
C583 C582 1.387 . S
C583 C585 1.387 . S
H584 C591 0.950 . S
C585 C583 1.387 . S
C585 C587 1.390 . S
C585 H589 0.950 . S
H586 C582 0.950 . S
C587 C585 1.390 . S
C587 C588 1.387 . S
C587 H590 0.950 . S
C588 C587 1.387 . S
C588 C591 1.387 . S
H589 C585 0.950 . S
H590 C587 0.950 . S
C591 C582 1.390 . S
C591 H584 0.950 . S
C591 C588 1.387 . S
C592 C593 1.387 . S
C592 H596 0.950 . S
C592 C601 1.390 . S
C593 C592 1.387 . S
C593 C595 1.387 . S
H594 C601 0.950 . S
C595 C593 1.387 . S
C595 C597 1.390 . S
C595 H599 0.950 . S
H596 C592 0.950 . S
C597 C595 1.390 . S
C597 C598 1.387 . S
C597 H600 0.950 . S
C598 C597 1.387 . S
C598 C601 1.387 . S
H599 C595 0.950 . S
H600 C597 0.950 . S
C601 C592 1.390 . S
C601 H594 0.950 . S
C601 C598 1.387 . S
C602 C603 1.387 . S
C602 H606 0.950 . S
C602 C611 1.390 . S
C603 C602 1.387 . S
C603 C605 1.387 . S
H604 C611 0.950 . S
C605 C603 1.387 . S
C605 C607 1.390 . S
C605 H609 0.950 . S
H606 C602 0.950 . S
C607 C605 1.390 . S
C607 C608 1.387 . S
C607 H610 0.961 . S
C608 C607 1.387 . S
C608 C611 1.387 . S
H609 C605 0.950 . S
H610 C607 0.961 . S
C611 C602 1.390 . S
C611 H604 0.950 . S
C611 C608 1.387 . S
C612 C613 1.387 . S
C612 H616 0.950 . S
C612 C621 1.390 . S
C613 C612 1.387 . S
C613 C615 1.387 . S
H614 C621 0.950 . S
C615 C613 1.387 . S
C615 C617 1.390 . S
C615 H619 0.950 . S
H616 C612 0.950 . S
C617 C615 1.390 . S
C617 C618 1.387 . S
C617 H620 0.950 . S
C618 C617 1.387 . S
C618 C621 1.387 . S
H619 C615 0.950 . S
H620 C617 0.950 . S
C621 C612 1.390 . S
C621 H614 0.950 . S
C621 C618 1.387 . S
C622 C623 1.387 . S
C622 H626 0.950 . S
C622 C631 1.390 . S
C623 C622 1.387 . S
C623 C625 1.387 . S
H624 C631 0.950 . S
C625 C623 1.387 . S
C625 C627 1.390 . S
C625 H629 0.950 . S
H626 C622 0.950 . S
C627 C625 1.390 . S
C627 C628 1.387 . S
C627 H630 0.950 . S
C628 C627 1.387 . S
C628 C631 1.387 . S
H629 C625 0.950 . S
H630 C627 0.950 . S
C631 C622 1.390 . S
C631 H624 0.950 . S
C631 C628 1.387 . S
C393 C1 1.549 . S
C398 C314 1.617 . S
C403 C40 1.358 . S
C408 C333 1.324 . S
C418 C370 1.759 . S
C413 C99 1.795 . S
C423 C118 1.744 . S
C428 C380 1.687 . S
C438 C350 2.034 . S
C433 C16 1.946 . S
C448 C320 1.393 . S
C443 C60 1.477 . S
C458 C391 1.537 . S
C453 C79 1.567 . S
C468 C361 1.447 . S
C463 C138 1.461 . S
C473 C21 1.710 . S
C478 C374 1.795 . S
C488 C341 1.715 . S
C483 C94 1.775 . S
C493 C133 1.739 . S
C498 C331 1.744 . S
C503 C55 1.272 . S
C508 C353 1.292 . S
C518 C313 1.617 . S
C513 C157 1.561 . S
C523 C196 1.361 . S
C528 C334 1.324 . S
C533 C255 1.790 . S
C538 C371 1.755 . S
C543 C289 1.744 . S
C548 C381 1.684 . S
C553 C172 1.937 . S
C558 C351 2.032 . S
C568 C321 1.395 . S
C563 C216 1.487 . S
C578 C390 1.538 . S
C573 C235 1.568 . S
C588 C360 1.446 . S
C583 C294 1.462 . S
C593 C177 1.728 . S
C598 C373 1.794 . S
C608 C340 1.715 . S
C603 C250 1.777 . S
C618 C330 1.747 . S
C613 C274 1.741 . S
C623 C211 1.269 . S
C628 C354 1.289 . S
