# Generated by pormake.
# Topology pyr, (3,6)-cn, num edge types: 1
# Building blocks:
#     Node 0, Type 0, BuildingBlock: PAMTOO_clean_linker_0, # of connection points: 3
#     Node 1, Type 0, BuildingBlock: PAMTOO_clean_linker_0, # of connection points: 3
#     Node 2, Type 0, BuildingBlock: PAMTOO_clean_linker_0, # of connection points: 3
#     Node 3, Type 0, BuildingBlock: PAMTOO_clean_linker_0, # of connection points: 3
#     Node 4, Type 0, BuildingBlock: PAMTOO_clean_linker_0, # of connection points: 3
#     Node 5, Type 0, BuildingBlock: PAMTOO_clean_linker_0, # of connection points: 3
#     Node 6, Type 0, BuildingBlock: PAMTOO_clean_linker_0, # of connection points: 3
#     Node 7, Type 0, BuildingBlock: PAMTOO_clean_linker_0, # of connection points: 3
#     Node 8, Type 1, BuildingBlock: JUFBIX_clean_sbu_0, # of connection points: 6
#     Node 9, Type 1, BuildingBlock: JUFBIX_clean_sbu_0, # of connection points: 6
#     Node 10, Type 1, BuildingBlock: JUFBIX_clean_sbu_0, # of connection points: 6
#     Node 11, Type 1, BuildingBlock: JUFBIX_clean_sbu_0, # of connection points: 6
#     Edge 12, Type (0, 1), BuildingBlock: XUDNAN_clean_linker_2, # of connection points: 2
#     Edge 13, Type (0, 1), BuildingBlock: XUDNAN_clean_linker_2, # of connection points: 2
#     Edge 14, Type (0, 1), BuildingBlock: XUDNAN_clean_linker_2, # of connection points: 2
#     Edge 15, Type (0, 1), BuildingBlock: XUDNAN_clean_linker_2, # of connection points: 2
#     Edge 16, Type (0, 1), BuildingBlock: XUDNAN_clean_linker_2, # of connection points: 2
#     Edge 17, Type (0, 1), BuildingBlock: XUDNAN_clean_linker_2, # of connection points: 2
#     Edge 18, Type (0, 1), BuildingBlock: XUDNAN_clean_linker_2, # of connection points: 2
#     Edge 19, Type (0, 1), BuildingBlock: XUDNAN_clean_linker_2, # of connection points: 2
#     Edge 20, Type (0, 1), BuildingBlock: XUDNAN_clean_linker_2, # of connection points: 2
#     Edge 21, Type (0, 1), BuildingBlock: XUDNAN_clean_linker_2, # of connection points: 2
#     Edge 22, Type (0, 1), BuildingBlock: XUDNAN_clean_linker_2, # of connection points: 2
#     Edge 23, Type (0, 1), BuildingBlock: XUDNAN_clean_linker_2, # of connection points: 2
#     Edge 24, Type (0, 1), BuildingBlock: XUDNAN_clean_linker_2, # of connection points: 2
#     Edge 25, Type (0, 1), BuildingBlock: XUDNAN_clean_linker_2, # of connection points: 2
#     Edge 26, Type (0, 1), BuildingBlock: XUDNAN_clean_linker_2, # of connection points: 2
#     Edge 27, Type (0, 1), BuildingBlock: XUDNAN_clean_linker_2, # of connection points: 2
#     Edge 28, Type (0, 1), BuildingBlock: XUDNAN_clean_linker_2, # of connection points: 2
#     Edge 29, Type (0, 1), BuildingBlock: XUDNAN_clean_linker_2, # of connection points: 2
#     Edge 30, Type (0, 1), BuildingBlock: XUDNAN_clean_linker_2, # of connection points: 2
#     Edge 31, Type (0, 1), BuildingBlock: XUDNAN_clean_linker_2, # of connection points: 2
#     Edge 32, Type (0, 1), BuildingBlock: XUDNAN_clean_linker_2, # of connection points: 2
#     Edge 33, Type (0, 1), BuildingBlock: XUDNAN_clean_linker_2, # of connection points: 2
#     Edge 34, Type (0, 1), BuildingBlock: XUDNAN_clean_linker_2, # of connection points: 2
#     Edge 35, Type (0, 1), BuildingBlock: XUDNAN_clean_linker_2, # of connection points: 2
# Relax obj value: 0.124
# Max RMSD: 0.202
# Mean RMSD: 0.138
data_MOF--net-pyr--node1-JUFBIX_clean_sbu_0--node2-PAMTOO_clean_linker_0--edge1-XUDNAN_clean_linker_2
_symmetry_space_group_name_H-M    P1
_symmetry_Int_Tables_number       1
_symmetry_cell_setting            triclinic
loop_
_symmetry_equiv_pos_as_xyz
'x, y, z'
_cell_length_a     36.334921
_cell_length_b     35.674652
_cell_length_c     36.968997
_cell_angle_alpha  83.168693
_cell_angle_beta   89.128099
_cell_angle_gamma 94.467781
loop_
_atom_site_label
_atom_site_type_symbol
_atom_site_fract_x
_atom_site_fract_y
_atom_site_fract_z
_atom_type_partial_charge
H0 H 0.15066 0.19874 0.24002 0.0
H1 H 0.23566 0.1223 0.26575 0.0
H2 H 0.24067 0.19386 0.16394 0.0
H3 H 0.25809 0.11837 0.15667 0.0
C4 C 0.27417 0.11159 0.18166 0.0
O5 O 0.27285 0.14095 0.20321 0.0
H6 H 0.26096 0.0851 0.19691 0.0
C7 C 0.17625 0.18743 0.23304 0.0
C8 C 0.19343 0.20036 0.19877 0.0
C9 C 0.1912 0.15968 0.25819 0.0
C10 C 0.22327 0.1433 0.24723 0.0
C11 C 0.24067 0.1552 0.21288 0.0
C12 C 0.226 0.184 0.18942 0.0
H13 H 0.43665 0.98987 0.65466 0.0
H14 H 0.42043 0.89672 0.591 0.0
H15 H 0.50355 0.89544 0.67184 0.0
H16 H 0.52098 0.85918 0.60081 0.0
C17 C 0.49208 0.84756 0.5974 0.0
O18 O 0.4697 0.8574 0.62445 0.0
H19 H 0.4826 0.85939 0.57023 0.0
C20 C 0.44564 0.96391 0.64616 0.0
C21 C 0.47375 0.94579 0.66505 0.0
C22 C 0.42624 0.94645 0.61925 0.0
C23 C 0.43637 0.91153 0.61026 0.0
C24 C 0.46452 0.89353 0.62889 0.0
C25 C 0.48335 0.91069 0.65605 0.0
H26 H 0.77543 0.2946 0.94997 0.0
H27 H 0.67895 0.30359 0.88379 0.0
H28 H 0.77189 0.38487 0.86192 0.0
H29 H 0.69322 0.41058 0.86616 0.0
C30 C 0.68115 0.39066 0.84767 0.0
O31 O 0.70537 0.36384 0.84219 0.0
H32 H 0.65518 0.37639 0.86081 0.0
C33 C 0.7607 0.30914 0.92795 0.0
C34 C 0.77811 0.34145 0.90713 0.0
C35 C 0.72496 0.29479 0.91963 0.0
C36 C 0.7067 0.31352 0.89037 0.0
C37 C 0.72355 0.34594 0.86991 0.0
C38 C 0.7592 0.35969 0.87805 0.0
H39 H 0.96169 0.71052 0.4919 0.0
H40 H 0.91444 0.62761 0.42631 0.0
H41 H 1.00459 0.70489 0.3839 0.0
H42 H 0.93693 0.69064 0.33972 0.0
C43 C 0.93437 0.65915 0.3452 0.0
O44 O 0.95922 0.64758 0.37132 0.0
H45 H 0.90575 0.6499 0.35537 0.0
C46 C 0.9616 0.69672 0.46738 0.0
C47 C 0.98624 0.71145 0.43859 0.0
C48 C 0.9343 0.66737 0.46324 0.0
C49 C 0.93532 0.6496 0.43123 0.0
C50 C 0.96111 0.66264 0.40316 0.0
C51 C 0.98626 0.69368 0.40668 0.0
H52 H 0.82562 0.90483 0.84126 0.0
H53 H 0.83111 0.82702 0.93924 0.0
H54 H 0.91354 0.83028 0.85394 0.0
H55 H 0.87495 0.75355 0.89143 0.0
C56 C 0.88204 0.75975 0.91941 0.0
O57 O 0.89212 0.79819 0.91917 0.0
H58 H 0.85684 0.75227 0.93703 0.0
C59 C 0.83902 0.88257 0.85722 0.0
C60 C 0.87144 0.86961 0.84289 0.0
C61 C 0.82365 0.86749 0.89184 0.0
C62 C 0.84226 0.83935 0.91277 0.0
C63 C 0.87459 0.82577 0.89902 0.0
C64 C 0.889 0.84118 0.86436 0.0
H65 H 0.7359 0.16053 0.33755 0.0
H66 H 0.65499 0.23802 0.30299 0.0
H67 H 0.71992 0.25551 0.39646 0.0
H68 H 0.63499 0.25285 0.39739 0.0
C69 C 0.6369 0.27918 0.3777 0.0
O70 O 0.66759 0.28094 0.35484 0.0
H71 H 0.61181 0.27885 0.36088 0.0
C72 C 0.72149 0.18526 0.34161 0.0
C73 C 0.73115 0.20627 0.37035 0.0
C74 C 0.69421 0.19643 0.31723 0.0
C75 C 0.67635 0.22913 0.32151 0.0
C76 C 0.6856 0.25016 0.35016 0.0
C77 C 0.71323 0.23907 0.37427 0.0
H78 H 0.33115 0.68327 0.13171 0.0
H79 H 0.32591 0.60759 0.23144 0.0
H80 H 0.41262 0.69611 0.21452 0.0
H81 H 0.42992 0.61242 0.23874 0.0
C82 C 0.40911 0.60863 0.26159 0.0
O83 O 0.38574 0.63746 0.25793 0.0
H84 H 0.39279 0.58108 0.26061 0.0
C85 C 0.34257 0.67448 0.15793 0.0
C86 C 0.37439 0.6945 0.16985 0.0
C87 C 0.32429 0.64378 0.18028 0.0
C88 C 0.33925 0.63152 0.21399 0.0
C89 C 0.37161 0.64979 0.22547 0.0
C90 C 0.38874 0.68142 0.20388 0.0
H91 H 0.10418 0.32376 0.71375 0.0
H92 H 0.15503 0.42566 0.65298 0.0
H93 H 0.10806 0.33661 0.59618 0.0
H94 H 0.16371 0.41117 0.53811 0.0
C95 C 0.16879 0.39714 0.56582 0.0
O96 O 0.14084 0.40462 0.58905 0.0
H97 H 0.1678 0.36621 0.56363 0.0
C98 C 0.11187 0.34031 0.68787 0.0
C99 C 0.10411 0.32503 0.65511 0.0
C100 C 0.13039 0.37649 0.68756 0.0
C101 C 0.14098 0.39761 0.65394 0.0
C102 C 0.13223 0.38334 0.62126 0.0
C103 C 0.11354 0.34745 0.62187 0.0
Co104 Co 1.01088 0.02446 0.54059 0.0
C105 C 0.03526 0.95577 0.52169 0.0
Co106 Co 0.06193 0.0062 0.56571 0.0
C107 C 0.95303 0.0672 0.5066 0.0
C108 C 0.93776 0.00784 0.51904 0.0
N109 N 0.96617 0.03421 0.52021 0.0
N110 N 0.91725 0.06244 0.49714 0.0
C111 C 0.9078 0.02496 0.50508 0.0
H112 H 0.96939 0.09406 0.50422 0.0
H113 H 0.93847 0.97809 0.5288 0.0
C114 C 0.03865 0.07499 0.58459 0.0
N115 N 0.10577 0.99596 0.58781 0.0
C116 C 0.13879 0.99021 0.57312 0.0
C117 C 0.11182 0.99694 0.62352 0.0
N118 N 0.16543 0.98785 0.59834 0.0
C119 C 0.14818 0.99201 0.63008 0.0
C120 C 0.07176 0.05178 0.49663 0.0
O121 O 1.01132 0.06924 0.56438 0.0
O122 O 0.06317 0.05147 0.58764 0.0
O123 O 0.08876 0.03327 0.52211 0.0
O124 O 0.03693 0.0526 0.49975 0.0
O125 O 0.06078 0.96082 0.54407 0.0
H126 H 0.09139 1.00249 0.64339 0.0
H127 H 0.14311 0.9888 0.54434 0.0
O128 O 1.01129 0.97988 0.51648 0.0
O129 O 0.98441 0.99644 0.58178 0.0
O130 O 0.03453 0.97942 0.60847 0.0
C131 C 0.99949 0.97925 0.60902 0.0
H132 H 0.88088 0.01065 0.50217 0.0
H133 H 0.16081 0.99294 0.65625 0.0
Co134 Co 0.53613 0.9972 1.01553 0.0
C135 C 0.51768 0.92788 0.06013 0.0
Co136 Co 0.5677 0.98734 0.06559 0.0
C137 C 0.52161 1.00598 0.93874 0.0
C138 C 0.47231 0.99195 0.97168 0.0
N139 N 0.50906 1.00006 0.97365 0.0
N140 N 0.49422 1.00116 0.91517 0.0
C141 C 0.46315 0.99233 0.93572 0.0
H142 H 0.55054 0.01132 0.93083 0.0
H143 H 0.45368 0.98441 0.99496 0.0
C144 C 0.5851 0.05723 0.02106 0.0
N145 N 0.59452 0.98577 0.10778 0.0
C146 C 0.60124 0.01656 0.12516 0.0
C147 C 0.61483 0.95937 0.12516 0.0
N148 N 0.62557 0.0112 0.15187 0.0
C149 C 0.63407 0.97507 0.15256 0.0
C150 C 0.60315 0.96161 1.00705 0.0
O151 O 0.56081 0.04544 0.99992 0.0
O152 O 0.5916 0.03636 0.05013 0.0
O153 O 0.60652 0.96466 0.04088 0.0
O154 O 0.57433 0.97326 0.99145 0.0
O155 O 0.54338 0.9384 0.0806 0.0
H156 H 0.61706 0.9314 0.11722 0.0
H157 H 0.58977 0.04335 0.11721 0.0
O158 O 0.51127 0.9491 0.03117 0.0
O159 O 0.49819 0.02103 0.04008 0.0
O160 O 0.52881 0.01013 0.0901 0.0
C161 C 0.50079 0.02304 0.07411 0.0
H162 H 0.43604 0.98529 0.92546 0.0
H163 H 0.65432 0.96185 0.16992 0.0
Co164 Co 0.58375 0.5519 0.54878 0.0
C165 C 0.52861 0.55728 0.49741 0.0
Co166 Co 0.53375 0.51387 0.56401 0.0
C167 C 0.66013 0.58281 0.54159 0.0
C168 C 0.62152 0.62304 0.52339 0.0
N169 N 0.62381 0.58631 0.5363 0.0
N170 N 0.68033 0.61614 0.53306 0.0
C171 C 0.65618 0.64144 0.52146 0.0
H172 H 0.67131 0.55685 0.55303 0.0
H173 H 0.59606 0.63595 0.51702 0.0
C174 C 0.58981 0.50923 0.61509 0.0
N175 N 0.49279 0.48052 0.57697 0.0
C176 C 0.457 0.48814 0.57568 0.0
C177 C 0.49214 0.44353 0.58999 0.0
N178 N 0.43393 0.45741 0.58737 0.0
C179 C 0.456 0.42922 0.59632 0.0
C180 C 0.58745 0.48312 0.524 0.0
O181 O 0.60656 0.53389 0.59177 0.0
O182 O 0.55706 0.4965 0.60885 0.0
O183 O 0.55598 0.47636 0.54009 0.0
O184 O 0.60496 0.51531 0.52434 0.0
O185 O 0.51117 0.53143 0.51922 0.0
H186 H 0.5164 0.42804 0.5947 0.0
H187 H 0.44808 0.51569 0.56583 0.0
O188 O 0.56062 0.56998 0.50551 0.0
O189 O 0.56264 0.58823 0.57321 0.0
O190 O 0.51179 0.55209 0.58726 0.0
C191 C 0.53064 0.5835 0.58784 0.0
H192 H 0.66309 0.67123 0.51264 0.0
H193 H 0.44678 0.40044 0.60713 0.0
Co194 Co 0.07652 0.48789 1.01449 0.0
C195 C 1.00747 0.44962 1.00559 0.0
Co196 Co 0.0386 0.48345 0.06214 0.0
C197 C 0.10914 0.46689 0.94812 0.0
C198 C 0.13277 0.51986 0.96234 0.0
N199 N 0.10764 0.49086 0.97373 0.0
N200 N 0.13427 0.47984 0.92128 0.0
C201 C 0.1492 0.51313 0.9303 0.0
H202 H 0.09189 0.44065 0.94899 0.0
H203 H 0.13811 0.54489 0.97592 0.0
C204 C 0.10714 0.52185 0.07154 0.0
N205 N 1.00795 0.48255 0.10269 0.0
C206 C 1.00135 0.51363 0.11841 0.0
C207 C 0.98944 0.45356 0.12389 0.0
N208 N 0.9795 0.50555 0.14849 0.0
C209 C 0.972 0.46766 0.15232 0.0
C210 C 0.08376 0.42289 0.06451 0.0
O211 O 0.11437 0.5139 0.03975 0.0
O212 O 0.07536 0.51174 0.08565 0.0
O213 O 0.05919 0.43694 0.08267 0.0
O214 O 0.09444 0.44023 0.03348 0.0
O215 O 1.00179 0.45506 0.03854 0.0
H216 H 0.9891 0.42415 0.11931 0.0
H217 H 1.01351 0.54173 0.10856 0.0
O218 O 0.03825 0.46192 0.98993 0.0
O219 O 0.05845 0.53551 0.99567 0.0
O220 O 1.01841 0.52999 0.04102 0.0
C221 C 0.03179 0.54854 1.01159 0.0
H222 H 0.16957 0.53206 0.91418 0.0
H223 H 0.95521 0.45139 0.17401 0.0
H224 H 0.18577 0.0901 0.30393 0.0
H225 H 0.15781 0.20677 0.30006 0.0
H226 H 0.12663 0.19172 0.35985 0.0
H227 H 0.10253 0.04621 0.34908 0.0
H228 H 0.12477 0.01069 0.37776 0.0
H229 H 0.14539 0.03001 0.33422 0.0
H230 H 0.20591 0.04919 0.36572 0.0
H231 H 0.18545 0.02992 0.40938 0.0
H232 H 0.20452 0.07848 0.40216 0.0
H233 H 0.09465 0.1641 0.41848 0.0
H234 H 0.06733 0.12606 0.47399 0.0
H235 H 0.11917 0.02795 0.44522 0.0
C236 C 0.17345 0.11266 0.31571 0.0
C237 C 0.17386 0.14965 0.2961 0.0
C238 C 0.15713 0.17794 0.31319 0.0
C239 C 0.13953 0.16978 0.34764 0.0
C240 C 0.13909 0.13319 0.36572 0.0
C241 C 0.15594 0.10508 0.35067 0.0
C242 C 0.15132 0.06811 0.37646 0.0
C243 C 0.12972 0.03691 0.35829 0.0
C244 C 0.18905 0.05569 0.38918 0.0
C245 C 0.12893 0.07985 0.40798 0.0
C246 C 0.12212 0.11758 0.4009 0.0
C247 C 0.10033 0.13472 0.42456 0.0
C248 C 0.08492 0.11288 0.4561 0.0
C249 C 0.09167 0.07431 0.46447 0.0
C250 C 0.11432 0.05765 0.4401 0.0
H251 H 0.45547 0.91232 0.73251 0.0
H252 H 0.51784 0.00989 0.6742 0.0
H253 H 0.53338 0.0338 0.73311 0.0
H254 H 0.41451 0.9624 0.79624 0.0
H255 H 0.41487 0.92497 0.83353 0.0
H256 H 0.41286 0.91368 0.78741 0.0
H257 H 0.47138 0.8768 0.79688 0.0
H258 H 0.47341 0.88767 0.8432 0.0
H259 H 0.51283 0.90009 0.81274 0.0
H260 H 0.54053 0.04689 0.79936 0.0
H261 H 0.53478 0.05045 0.86598 0.0
H262 H 0.46329 0.94666 0.87844 0.0
C263 C 0.47316 0.93825 0.73233 0.0
C264 C 0.48636 0.95897 0.69931 0.0
C265 C 0.50821 0.99348 0.69958 0.0
C266 C 0.51706 0.00715 0.73278 0.0
C267 C 0.50324 0.98612 0.76509 0.0
C268 C 0.48152 0.95252 0.76496 0.0
C269 C 0.46736 0.93675 0.80275 0.0
C270 C 0.42489 0.93433 0.8051 0.0
C271 C 0.48215 0.89804 0.81458 0.0
C272 C 0.48421 0.9668 0.82432 0.0
C273 C 0.50534 0.99477 0.80238 0.0
C274 C 0.52394 0.0252 0.81671 0.0
C275 C 0.52059 0.02704 0.85438 0.0
C276 C 0.4982 0.99911 0.87685 0.0
C277 C 0.48 0.96867 0.86157 0.0
H278 H 0.61842 0.3852 0.80667 0.0
H279 H 0.72693 0.44482 0.80778 0.0
H280 H 0.71521 0.4815 0.74846 0.0
H281 H 0.61744 0.37851 0.70998 0.0
H282 H 0.56908 0.3858 0.7058 0.0
H283 H 0.586 0.36418 0.7482 0.0
H284 H 0.55842 0.41541 0.78217 0.0
H285 H 0.54144 0.43719 0.73987 0.0
H286 H 0.57103 0.46476 0.7672 0.0
H287 H 0.6918 0.51159 0.68998 0.0
H288 H 0.6587 0.53349 0.63494 0.0
H289 H 0.56456 0.45456 0.67122 0.0
C290 C 0.63958 0.40608 0.79436 0.0
C291 C 0.67344 0.4127 0.81175 0.0
C292 C 0.70074 0.43982 0.79484 0.0
C293 C 0.69432 0.46065 0.76127 0.0
C294 C 0.6605 0.45381 0.74498 0.0
C295 C 0.63357 0.42719 0.76085 0.0
C296 C 0.59964 0.42546 0.73748 0.0
C297 C 0.59265 0.38615 0.7246 0.0
C298 C 0.56563 0.43636 0.7579 0.0
C299 C 0.61172 0.45533 0.70602 0.0
C300 C 0.64693 0.47123 0.71099 0.0
C301 C 0.66422 0.49937 0.68576 0.0
C302 C 0.6451 0.51161 0.65455 0.0
C303 C 0.60894 0.49579 0.6487 0.0
C304 C 0.59209 0.46726 0.67491 0.0
H305 H 0.94361 0.5845 0.33748 0.0
H306 H 0.93821 0.69487 0.2753 0.0
H307 H 0.94589 0.66655 0.21809 0.0
H308 H 1.01352 0.55244 0.28107 0.0
H309 H 0.9937 0.50416 0.28552 0.0
H310 H 0.98691 0.53302 0.32147 0.0
H311 H 0.91606 0.51959 0.31741 0.0
H312 H 0.92264 0.49095 0.28119 0.0
H313 H 0.89418 0.53026 0.27437 0.0
H314 H 0.9547 0.62687 0.16809 0.0
H315 H 0.967 0.57862 0.12795 0.0
H316 H 0.96783 0.49362 0.22212 0.0
C317 C 0.94435 0.60263 0.31177 0.0
C318 C 0.94097 0.64194 0.31067 0.0
C319 C 0.94133 0.6648 0.27663 0.0
C320 C 0.94548 0.64894 0.24406 0.0
C321 C 0.94897 0.61015 0.24604 0.0
C322 C 0.94861 0.58726 0.27896 0.0
C323 C 0.95369 0.54653 0.27336 0.0
C324 C 0.98906 0.53327 0.29142 0.0
C325 C 0.91961 0.52029 0.28742 0.0
C326 C 0.95727 0.5502 0.23216 0.0
C327 C 0.95418 0.58713 0.21703 0.0
C328 C 0.95724 0.59787 0.17961 0.0
C329 C 0.96439 0.57031 0.15706 0.0
C330 C 0.96859 0.53243 0.17193 0.0
C331 C 0.96433 0.52221 0.20997 0.0
H332 H 0.30078 0.09599 0.11475 0.0
H333 H 0.33597 0.10736 0.2246 0.0
H334 H 0.39779 0.08822 0.20864 0.0
H335 H 0.347 0.0137 0.10379 0.0
H336 H 0.35937 0.02737 0.05639 0.0
H337 H 0.31892 0.04432 0.07567 0.0
H338 H 0.3439 0.11352 0.05456 0.0
H339 H 0.38436 0.09677 0.03502 0.0
H340 H 0.38923 0.13018 0.06791 0.0
H341 H 0.45537 0.06438 0.18105 0.0
H342 H 0.50338 0.03936 0.14475 0.0
H343 H 0.43125 0.04345 0.05214 0.0
C344 C 0.32178 0.09529 0.13523 0.0
C345 C 0.31366 0.10435 0.17079 0.0
C346 C 0.34165 0.10166 0.19703 0.0
C347 C 0.37684 0.09057 0.18818 0.0
C348 C 0.38386 0.08186 0.15292 0.0
C349 C 0.35708 0.08427 0.1268 0.0
C350 C 0.37122 0.07215 0.09127 0.0
C351 C 0.34772 0.03732 0.0812 0.0
C352 C 0.37224 0.10512 0.06036 0.0
C353 C 0.41005 0.06225 0.10144 0.0
C354 C 0.41677 0.06807 0.13716 0.0
C355 C 0.45032 0.06001 0.15303 0.0
C356 C 0.47753 0.04568 0.13209 0.0
C357 C 0.47151 0.03942 0.09534 0.0
C358 C 0.43712 0.04811 0.07996 0.0
H359 H 0.36921 0.95991 0.66204 0.0
H360 H 0.40236 0.95981 0.54899 0.0
H361 H 0.33896 0.97358 0.53015 0.0
H362 H 0.2836 0.91056 0.65528 0.0
H363 H 0.26006 0.93541 0.68722 0.0
H364 H 0.30881 0.93062 0.69096 0.0
H365 H 0.32142 1.00357 0.68725 0.0
H366 H 0.2726 0.00859 0.68396 0.0
H367 H 0.30415 0.03337 0.64949 0.0
H368 H 0.2703 0.98403 0.52493 0.0
H369 H 0.20367 0.98943 0.53329 0.0
H370 H 0.21718 0.97771 0.65073 0.0
C371 C 0.36345 0.96406 0.63323 0.0
C372 C 0.39065 0.95985 0.60681 0.0
C373 C 0.38181 0.96366 0.56947 0.0
C374 C 0.34599 0.97139 0.55862 0.0
C375 C 0.31951 0.97466 0.58558 0.0
C376 C 0.32795 0.97105 0.62211 0.0
C377 C 0.29426 0.97243 0.6461 0.0
C378 C 0.28622 0.93504 0.67136 0.0
C379 C 0.29836 0.00653 0.66797 0.0
C380 C 0.26536 0.97742 0.61744 0.0
C381 C 0.28027 0.97894 0.58269 0.0
C382 C 0.25839 0.98298 0.55207 0.0
C383 C 0.22034 0.98582 0.55721 0.0
C384 C 0.20445 0.98424 0.59278 0.0
C385 C 0.22769 0.97969 0.62306 0.0
H386 H 0.80542 0.3549 0.97368 0.0
H387 H 0.83632 0.36126 0.85921 0.0
H388 H 0.89929 0.38675 0.87244 0.0
H389 H 0.85507 0.44156 0.98915 0.0
H390 H 0.86846 0.4245 0.03453 0.0
H391 H 0.82655 0.40478 1.01637 0.0
H392 H 0.84936 0.33752 0.02893 0.0
H393 H 0.89138 0.35708 0.0471 0.0
H394 H 0.89345 0.32832 1.01031 0.0
H395 H 0.95857 0.41236 0.89798 0.0
H396 H 1.00894 0.43946 0.93332 0.0
H397 H 0.93903 0.41809 0.03111 0.0
C398 C 0.82562 0.36125 0.95152 0.0
C399 C 0.8161 0.35598 0.91542 0.0
C400 C 0.84303 0.36527 0.88701 0.0
C401 C 0.87888 0.37955 0.8943 0.0
C402 C 0.88734 0.3846 0.93013 0.0
C403 C 0.86144 0.37594 0.95826 0.0
C404 C 0.87714 0.3857 0.99405 0.0
C405 C 0.85552 0.41594 1.00942 0.0
C406 C 0.87788 0.35002 0.02173 0.0
C407 C 0.91584 0.40138 0.98162 0.0
C408 C 0.92126 0.40016 0.94472 0.0
C409 C 0.95466 0.41342 0.92691 0.0
C410 C 0.98314 0.42874 0.94726 0.0
C411 C 0.97801 0.43098 0.98502 0.0
C412 C 0.94391 0.41676 1.00233 0.0
H413 H 0.88777 0.60146 0.47931 0.0
H414 H 0.9037 0.71808 0.50346 0.0
H415 H 0.84486 0.71059 0.53644 0.0
H416 H 0.80001 0.60934 0.4529 0.0
H417 H 0.78166 0.5621 0.47022 0.0
H418 H 0.82993 0.57114 0.45842 0.0
H419 H 0.84677 0.54332 0.52346 0.0
H420 H 0.79834 0.53393 0.53545 0.0
H421 H 0.82794 0.56192 0.56241 0.0
H422 H 0.78025 0.69733 0.55483 0.0
H423 H 0.7135 0.6785 0.55658 0.0
H424 H 0.73477 0.57261 0.51688 0.0
C425 C 0.87945 0.62527 0.49212 0.0
C426 C 0.90149 0.66016 0.48886 0.0
C427 C 0.88889 0.69038 0.50632 0.0
C428 C 0.85494 0.6866 0.52511 0.0
C429 C 0.83328 0.65264 0.5261 0.0
C430 C 0.84495 0.62237 0.51016 0.0
C431 C 0.81377 0.59154 0.50966 0.0
C432 C 0.80589 0.58307 0.47048 0.0
C433 C 0.82222 0.55554 0.53422 0.0
C434 C 0.78234 0.61039 0.52565 0.0
C435 C 0.7946 0.64516 0.5359 0.0
C436 C 0.77039 0.66981 0.54771 0.0
C437 C 0.73256 0.65909 0.5483 0.0
C438 C 0.71927 0.62417 0.53693 0.0
C439 C 0.7445 0.59905 0.52647 0.0
H440 H 0.15466 0.26188 0.2143 0.0
H441 H 0.19522 0.20843 0.12346 0.0
H442 H 0.17191 0.25869 0.08066 0.0
H443 H 0.06952 0.28939 0.17076 0.0
H444 H 0.06997 0.33348 0.19008 0.0
H445 H 0.09045 0.29365 0.21414 0.0
H446 H 0.15214 0.33461 0.21658 0.0
H447 H 0.13189 0.37453 0.19247 0.0
H448 H 0.17356 0.35828 0.17484 0.0
H449 H 0.14624 0.31622 0.04693 0.0
H450 H 0.11722 0.37468 0.02498 0.0
H451 H 0.0884 0.3896 0.13641 0.0
C452 C 0.15834 0.26026 0.18544 0.0
C453 C 0.17756 0.2308 0.17276 0.0
C454 C 0.18175 0.23074 0.13447 0.0
C455 C 0.16821 0.25917 0.1097 0.0
C456 C 0.14984 0.2877 0.12316 0.0
C457 C 0.14451 0.28831 0.16013 0.0
C458 C 0.12334 0.32213 0.16722 0.0
C459 C 0.08611 0.30886 0.18671 0.0
C460 C 0.14663 0.34897 0.18907 0.0
C461 C 0.11786 0.3405 0.12849 0.0
C462 C 0.13364 0.32019 0.10357 0.0
C463 C 0.13352 0.3321 0.06624 0.0
C464 C 0.11696 0.36551 0.054 0.0
C465 C 0.10014 0.38684 0.07877 0.0
C466 C 0.1005 0.37381 0.11663 0.0
H467 H 0.68214 0.23635 0.895 0.0
H468 H 0.72557 0.27588 0.99377 0.0
H469 H 0.69385 0.21982 0.03016 0.0
H470 H 0.59238 0.20103 0.93303 0.0
H471 H 0.58879 0.16081 0.90767 0.0
H472 H 0.61548 0.20368 0.88919 0.0
H473 H 0.67273 0.16581 0.88249 0.0
H474 H 0.64619 0.12283 0.90084 0.0
H475 H 0.68869 0.13716 0.92173 0.0
H476 H 0.65731 0.15994 0.05583 0.0
H477 H 0.61912 0.09946 0.06905 0.0
H478 H 0.5981 0.09928 0.95393 0.0
C479 C 0.68478 0.23343 0.92432 0.0
C480 C 0.70645 0.26059 0.9415 0.0
C481 C 0.70962 0.25526 0.9799 0.0
C482 C 0.69146 0.22365 1.00083 0.0
C483 C 0.67016 0.19766 0.98301 0.0
C484 C 0.66674 0.20215 0.94564 0.0
C485 C 0.64218 0.16999 0.93324 0.0
C486 C 0.60766 0.18477 0.91469 0.0
C487 C 0.66375 0.14762 0.9081 0.0
C488 C 0.63234 0.14665 0.96953 0.0
C489 C 0.64883 0.16317 0.99785 0.0
C490 C 0.64435 0.14672 0.03387 0.0
C491 C 0.62281 0.11227 0.0411 0.0
C492 C 0.60598 0.09456 1.01255 0.0
C493 C 0.61048 0.11228 0.97633 0.0
H494 H 0.02467 0.73816 0.49512 0.0
H495 H 0.98893 0.77134 0.38533 0.0
H496 H 1.00574 0.83817 0.39233 0.0
H497 H 0.98678 0.80694 0.53421 0.0
H498 H 0.02288 0.81624 0.56562 0.0
H499 H 1.01654 0.7705 0.54981 0.0
H500 H 0.08446 0.77624 0.52624 0.0
H501 H 0.09137 0.82182 0.54267 0.0
H502 H 0.10164 0.81721 0.49563 0.0
H503 H 1.01206 0.90064 0.41561 0.0
H504 H 1.01626 0.95524 0.45109 0.0
H505 H 0.05057 0.88307 0.54521 0.0
C506 C 0.02177 0.75943 0.4721 0.0
C507 C 1.00576 0.74947 0.43958 0.0
C508 C 1.00186 0.77811 0.4102 0.0
C509 C 1.01108 0.81626 0.41403 0.0
C510 C 0.02475 0.8253 0.44717 0.0
C511 C 0.03102 0.79769 0.47544 0.0
C512 C 0.04253 0.81517 0.50939 0.0
C513 C 1.01557 0.80139 0.54163 0.0
C514 C 0.08238 0.80714 0.51904 0.0
C515 C 0.03979 0.85673 0.49637 0.0
C516 C 0.02965 0.86193 0.46033 0.0
C517 C 0.02112 0.89714 0.44347 0.0
C518 C 0.02322 0.92786 0.46388 0.0
C519 C 0.03414 0.92325 0.5006 0.0
C520 C 0.04301 0.88737 0.51687 0.0
H521 H 0.54759 0.79988 0.61059 0.0
H522 H 0.43069 0.80036 0.58929 0.0
H523 H 0.42547 0.73021 0.59435 0.0
H524 H 0.56475 0.72785 0.55734 0.0
H525 H 0.59845 0.70735 0.58728 0.0
H526 H 0.59144 0.75681 0.58583 0.0
H527 H 0.57855 0.74734 0.65572 0.0
H528 H 0.58492 0.69758 0.65716 0.0
H529 H 0.54265 0.71255 0.67479 0.0
H530 H 0.43425 0.66039 0.5975 0.0
H531 H 0.45768 0.59798 0.59148 0.0
H532 H 0.56866 0.64419 0.61058 0.0
C533 C 0.52088 0.78512 0.60731 0.0
C534 C 0.48948 0.80518 0.59969 0.0
C535 C 0.45498 0.78515 0.5952 0.0
C536 C 0.45174 0.74546 0.59833 0.0
C537 C 0.48326 0.72638 0.60604 0.0
C538 C 0.51723 0.74562 0.61018 0.0
C539 C 0.54748 0.71886 0.61511 0.0
C540 C 0.57726 0.72828 0.58457 0.0
C541 C 0.56439 0.71911 0.65295 0.0
C542 C 0.52548 0.68172 0.61195 0.0
C543 C 0.48835 0.68637 0.6075 0.0
C544 C 0.46317 0.65628 0.60146 0.0
C545 C 0.47662 0.6209 0.59834 0.0
C546 C 0.51488 0.61641 0.60073 0.0
C547 C 0.5392 0.64682 0.60899 0.0
H548 H 0.94422 0.88801 0.8165 0.0
H549 H 0.83036 0.88474 0.78217 0.0
H550 H 0.85128 0.91044 0.71993 0.0
H551 H 0.9754 0.97531 0.76121 0.0
H552 H 1.01999 0.96037 0.74993 0.0
H553 H 0.99663 0.94086 0.79212 0.0
H554 H 1.00127 0.87316 0.77487 0.0
H555 H 0.02465 0.89248 0.73261 0.0
H556 H 0.98325 0.86124 0.73217 0.0
H557 H 0.88343 0.93754 0.66155 0.0
H558 H 0.92482 0.96494 0.61043 0.0
H559 H 1.01949 0.9512 0.6797 0.0
C560 C 0.9237 0.89242 0.79582 0.0
C561 C 0.88537 0.88453 0.80478 0.0
C562 C 0.85968 0.8911 0.77664 0.0
C563 C 0.87135 0.90549 0.74094 0.0
C564 C 0.90902 0.91328 0.73319 0.0
C565 C 0.93494 0.90701 0.75971 0.0
C566 C 0.97377 0.91861 0.74373 0.0
C567 C 0.99255 0.95069 0.76289 0.0
C568 C 0.99712 0.88433 0.74599 0.0
C569 C 0.96549 0.93249 0.70424 0.0
C570 C 0.92785 0.92896 0.69899 0.0
C571 C 0.91295 0.94032 0.66534 0.0
C572 C 0.93686 0.95596 0.63634 0.0
C573 C 0.97567 0.96034 0.64062 0.0
C574 C 0.9901 0.94805 0.67522 0.0
H575 H 0.67535 0.12034 0.32188 0.0
H576 H 0.69345 0.22204 0.2449 0.0
H577 H 0.68285 0.18378 0.19385 0.0
H578 H 0.71807 0.05655 0.26811 0.0
H579 H 0.68436 0.01733 0.28136 0.0
H580 H 0.69465 0.0523 0.31192 0.0
H581 H 0.62546 0.06486 0.31537 0.0
H582 H 0.61491 0.02964 0.28521 0.0
H583 H 0.60144 0.0771 0.27384 0.0
H584 H 0.67157 0.13514 0.15181 0.0
H585 H 0.65189 0.07986 0.12066 0.0
H586 H 0.63782 0.00951 0.22447 0.0
C587 C 0.67709 0.13441 0.29421 0.0
C588 C 0.6853 0.174 0.28704 0.0
C589 C 0.68696 0.19174 0.25072 0.0
C590 C 0.68134 0.17023 0.22168 0.0
C591 C 0.6738 0.13117 0.22961 0.0
C592 C 0.67107 0.11343 0.26495 0.0
C593 C 0.6606 0.07132 0.26595 0.0
C594 C 0.69126 0.04801 0.28284 0.0
C595 C 0.62339 0.06008 0.28629 0.0
C596 C 0.6576 0.06818 0.22559 0.0
C597 C 0.66594 0.10304 0.20523 0.0
C598 C 0.66471 0.10779 0.16744 0.0
C599 C 0.65335 0.07639 0.15002 0.0
C600 C 0.64284 0.04086 0.17028 0.0
C601 C 0.64597 0.03639 0.20849 0.0
H602 H 0.40003 0.55699 0.32362 0.0
H603 H 0.46282 0.66082 0.2787 0.0
H604 H 0.49788 0.66073 0.33566 0.0
H605 H 0.39512 0.57898 0.41789 0.0
H606 H 0.40009 0.53083 0.43711 0.0
H607 H 0.37852 0.54024 0.39375 0.0
H608 H 0.42551 0.50124 0.36424 0.0
H609 H 0.44722 0.49176 0.40746 0.0
H610 H 0.47427 0.51342 0.36812 0.0
H611 H 0.52835 0.6473 0.39522 0.0
H612 H 0.55223 0.62226 0.45446 0.0
H613 H 0.4692 0.5271 0.46177 0.0
C614 C 0.42098 0.57981 0.32601 0.0
C615 C 0.42904 0.60889 0.29691 0.0
C616 C 0.45653 0.63833 0.30081 0.0
C617 C 0.47643 0.6385 0.33298 0.0
C618 C 0.46824 0.60914 0.36102 0.0
C619 C 0.44109 0.58041 0.35799 0.0
C620 C 0.43868 0.55158 0.39178 0.0
C621 C 0.40085 0.55035 0.41128 0.0
C622 C 0.44692 0.51218 0.38232 0.0
C623 C 0.46914 0.56828 0.41401 0.0
C624 C 0.48569 0.60155 0.39574 0.0
C625 C 0.51544 0.62147 0.40993 0.0
C626 C 0.52886 0.6069 0.44357 0.0
C627 C 0.51254 0.57274 0.46279 0.0
C628 C 0.482 0.55345 0.4479 0.0
H629 H 0.08461 0.3757 0.74756 0.0
H630 H 0.19541 0.41275 0.70581 0.0
H631 H 0.20938 0.44008 0.76288 0.0
H632 H 0.07036 0.45697 0.79115 0.0
H633 H 0.04485 0.43125 0.82971 0.0
H634 H 0.04422 0.41281 0.78645 0.0
H635 H 0.06727 0.35 0.81698 0.0
H636 H 0.06804 0.36834 0.86035 0.0
H637 H 0.10915 0.35119 0.8425 0.0
H638 H 0.21072 0.46508 0.82334 0.0
H639 H 0.19882 0.48797 0.88246 0.0
H640 H 0.08693 0.43528 0.88494 0.0
C641 C 0.11198 0.38909 0.75067 0.0
C642 C 0.13898 0.39206 0.72227 0.0
C643 C 0.17423 0.41045 0.72708 0.0
C644 C 0.1825 0.42581 0.75947 0.0
C645 C 0.15522 0.42256 0.78683 0.0
C646 C 0.12064 0.40473 0.78278 0.0
C647 C 0.0958 0.40655 0.81577 0.0
C648 C 0.06181 0.42819 0.80512 0.0
C649 C 0.0844 0.36664 0.83504 0.0
C650 C 0.1217 0.42858 0.83881 0.0
C651 C 0.1559 0.43727 0.82168 0.0
C652 C 0.18408 0.45838 0.83705 0.0
C653 C 0.17699 0.47143 0.87055 0.0
C654 C 0.14194 0.46353 0.88836 0.0
C655 C 0.11416 0.44133 0.87236 0.0
H656 H 0.80111 0.8832 0.9613 0.0
H657 H 0.76255 0.8797 0.85109 0.0
H658 H 0.70331 0.90194 0.86903 0.0
H659 H 0.7121 0.85155 1.00744 0.0
H660 H 0.71825 0.88253 0.04238 0.0
H661 H 0.75791 0.86559 0.02152 0.0
H662 H 0.78522 0.93463 1.00394 0.0
H663 H 0.74563 0.95177 0.02471 0.0
H664 H 0.75813 0.96788 0.97774 0.0
H665 H 0.64815 0.92566 0.89781 0.0
H666 H 0.6008 0.94933 0.93553 0.0
H667 H 0.67249 0.93826 0.02848 0.0
C668 C 0.7801 0.88682 0.94101 0.0
C669 C 0.78713 0.87988 0.90445 0.0
C670 C 0.75861 0.88535 0.87897 0.0
C671 C 0.72455 0.89781 0.88899 0.0
C672 C 0.71875 0.90486 0.92484 0.0
C673 C 0.74562 0.89956 0.95059 0.0
C674 C 0.73199 0.90996 0.98716 0.0
C675 C 0.72995 0.87534 1.01636 0.0
C676 C 0.75672 0.94302 0.99909 0.0
C677 C 0.69345 0.92196 0.97781 0.0
C678 C 0.68654 0.91862 0.94164 0.0
C679 C 0.65327 0.92826 0.92619 0.0
C680 C 0.62639 0.94177 0.94801 0.0
C681 C 0.63242 0.94576 0.98526 0.0
C682 C 0.66665 0.93547 1.00025 0.0
H683 H 0.73955 0.13391 0.3996 0.0
H684 H 0.788 0.24916 0.39793 0.0
H685 H 0.83984 0.22541 0.43448 0.0
H686 H 0.76839 0.09695 0.49045 0.0
H687 H 0.77742 0.05197 0.476 0.0
H688 H 0.74217 0.07892 0.45434 0.0
H689 H 0.77398 0.07701 0.39135 0.0
H690 H 0.80939 0.05032 0.41278 0.0
H691 H 0.82183 0.09423 0.38432 0.0
H692 H 0.88913 0.18744 0.46698 0.0
H693 H 0.93017 0.13977 0.49278 0.0
H694 H 0.84966 0.05045 0.46766 0.0
C695 C 0.76087 0.15427 0.40716 0.0
C696 C 0.75989 0.19333 0.39583 0.0
C697 C 0.78807 0.2191 0.40667 0.0
C698 C 0.81766 0.20586 0.42725 0.0
C699 C 0.8184 0.16689 0.43677 0.0
C700 C 0.79054 0.14159 0.42717 0.0
C701 C 0.79871 0.10107 0.43815 0.0
C702 C 0.76997 0.08106 0.46642 0.0
C703 C 0.80113 0.07941 0.40466 0.0
C704 C 0.83595 0.10733 0.45486 0.0
C705 C 0.8468 0.14535 0.45433 0.0
C706 C 0.88076 0.15758 0.46769 0.0
C707 C 0.90406 0.13014 0.48207 0.0
C708 C 0.89346 0.0909 0.48258 0.0
C709 C 0.85884 0.07982 0.46859 0.0
H710 H 0.30543 0.62042 0.1139 0.0
H711 H 0.26185 0.62732 0.22266 0.0
H712 H 0.20166 0.59821 0.20599 0.0
H713 H 0.22188 0.64145 0.06576 0.0
H714 H 0.22785 0.60849 0.03318 0.0
H715 H 0.26762 0.63044 0.05327 0.0
H716 H 0.28931 0.56427 0.07542 0.0
H717 H 0.24965 0.54215 0.05535 0.0
H718 H 0.25838 0.53003 0.10301 0.0
H719 H 0.14649 0.5689 0.17808 0.0
H720 H 0.09971 0.53858 0.14121 0.0
H721 H 0.1784 0.54935 0.05014 0.0
C722 C 0.28311 0.61596 0.13408 0.0
C723 C 0.28834 0.62599 0.16966 0.0
C724 C 0.2586 0.61939 0.19543 0.0
C725 C 0.22425 0.60311 0.18616 0.0
C726 C 0.22002 0.59345 0.15098 0.0
C727 C 0.24859 0.59943 0.12533 0.0
C728 C 0.23669 0.58556 0.0897 0.0
C729 C 0.23863 0.61845 0.05864 0.0
C730 C 0.25989 0.5536 0.08033 0.0
C731 C 0.19703 0.57086 0.09944 0.0
C732 C 0.18804 0.57595 0.13488 0.0
C733 C 0.15317 0.56471 0.15029 0.0
C734 C 0.12676 0.54752 0.12905 0.0
C735 C 0.13533 0.54149 0.09274 0.0
C736 C 0.17097 0.55354 0.07778 0.0
H737 H 0.23198 0.35982 0.57189 0.0
H738 H 0.19012 0.46844 0.58286 0.0
H739 H 0.25353 0.49506 0.59374 0.0
H740 H 0.30484 0.36452 0.64029 0.0
H741 H 0.33653 0.34192 0.6136 0.0
H742 H 0.2875 0.33079 0.61078 0.0
H743 H 0.29211 0.34882 0.54076 0.0
H744 H 0.34102 0.36028 0.54336 0.0
H745 H 0.31212 0.39514 0.5224 0.0
H746 H 0.32227 0.51087 0.59785 0.0
H747 H 0.39045 0.51439 0.59669 0.0
H748 H 0.38691 0.39529 0.58209 0.0
C749 C 0.2361 0.38894 0.57752 0.0
C750 C 0.20624 0.412 0.57728 0.0
C751 C 0.21269 0.45026 0.58366 0.0
C752 C 0.24854 0.46555 0.58976 0.0
C753 C 0.27754 0.44215 0.58928 0.0
C754 C 0.27163 0.40457 0.58358 0.0
C755 C 0.30763 0.38604 0.58212 0.0
C756 C 0.30921 0.35392 0.61358 0.0
C757 C 0.31355 0.37175 0.54495 0.0
C758 C 0.33484 0.41923 0.58713 0.0
C759 C 0.31698 0.45129 0.59141 0.0
C760 C 0.3365 0.48584 0.59484 0.0
C761 C 0.37525 0.48763 0.59384 0.0
C762 C 0.39412 0.45511 0.58936 0.0
C763 C 0.37341 0.42049 0.58621 0.0
H764 H 0.88011 0.70154 0.97676 0.0
H765 H 0.95235 0.76032 0.89046 0.0
H766 H 0.9994 0.71464 0.90618 0.0
H767 H 0.95339 0.67668 0.04185 0.0
H768 H 0.93025 0.63108 0.05795 0.0
H769 H 0.9037 0.67002 0.04172 0.0
H770 H 0.87208 0.62954 0.99558 0.0
H771 H 0.89868 0.5906 1.01147 0.0
H772 H 0.90014 0.60884 0.96382 0.0
H773 H 0.03654 0.65903 0.92829 0.0
H774 H 0.06197 0.60059 0.95648 0.0
H775 H 0.96629 0.57804 0.02973 0.0
C776 C 0.90621 0.70534 0.96175 0.0
C777 C 0.91281 0.73507 0.93268 0.0
C778 C 0.94697 0.73833 0.91317 0.0
C779 C 0.97375 0.71234 0.92185 0.0
C780 C 0.96616 0.68307 0.95026 0.0
C781 C 0.93334 0.67967 0.9702 0.0
C782 C 0.93147 0.64488 0.99859 0.0
C783 C 0.92959 0.65636 0.03732 0.0
C784 C 0.89864 0.61681 0.99195 0.0
C785 C 0.96807 0.62885 0.99119 0.0
C786 C 0.98765 0.65133 0.96319 0.0
C787 C 0.02154 0.64153 0.95047 0.0
C788 C 0.03576 0.60809 0.96667 0.0
C789 C 1.0164 0.58454 0.99557 0.0
C790 C 0.9821 0.59544 1.008 0.0
H791 H 0.44753 0.72546 0.16714 0.0
H792 H 0.33931 0.74607 0.12348 0.0
H793 H 0.36594 0.80434 0.08802 0.0
H794 H 0.46996 0.82246 0.18065 0.0
H795 H 0.51842 0.82179 0.16983 0.0
H796 H 0.49219 0.77891 0.18896 0.0
H797 H 0.51219 0.74545 0.13426 0.0
H798 H 0.53841 0.78828 0.11488 0.0
H799 H 0.50354 0.76601 0.08854 0.0
H800 H 0.40316 0.86053 0.05743 0.0
H801 H 0.44761 0.91496 0.03807 0.0
H802 H 0.53046 0.86357 0.10682 0.0
C803 C 0.42913 0.74208 0.15038 0.0
C804 C 0.39115 0.72997 0.14787 0.0
C805 C 0.36866 0.75317 0.12514 0.0
C806 C 0.38346 0.78683 0.10502 0.0
C807 C 0.42072 0.79772 0.10833 0.0
C808 C 0.44321 0.77645 0.13082 0.0
C809 C 0.48173 0.7963 0.13141 0.0
C810 C 0.49111 0.80541 0.17001 0.0
C811 C 0.51067 0.77259 0.11637 0.0
C812 C 0.47719 0.8321 0.1058 0.0
C813 C 0.44188 0.83182 0.09239 0.0
C814 C 0.43085 0.86118 0.06783 0.0
C815 C 0.45643 0.89194 0.05691 0.0
C816 C 0.49253 0.89357 0.07096 0.0
C817 C 0.50303 0.86315 0.09575 0.0
H818 H 0.05592 0.29438 0.60699 0.0
H819 H 0.11996 0.26396 0.7029 0.0
H820 H 0.10173 0.19678 0.69969 0.0
H821 H 0.98173 0.21537 0.62409 0.0
H822 H 0.97967 0.20908 0.57648 0.0
H823 H 0.99192 0.25535 0.58981 0.0
H824 H 0.05251 0.26011 0.55109 0.0
H825 H 0.04052 0.21394 0.53775 0.0
H826 H 0.08394 0.22348 0.55915 0.0
H827 H 0.08517 0.13355 0.68162 0.0
H828 H 0.07047 0.07758 0.64988 0.0
H829 H 1.01773 0.14707 0.56461 0.0
C830 C 0.0657 0.27369 0.62768 0.0
C831 C 0.08915 0.28483 0.65546 0.0
C832 C 0.10121 0.25659 0.68191 0.0
C833 C 0.09117 0.21817 0.68022 0.0
C834 C 0.06897 0.20823 0.65196 0.0
C835 C 0.05617 0.23508 0.62621 0.0
C836 C 0.03578 0.21654 0.59658 0.0
C837 C 0.99484 0.22456 0.59677 0.0
C838 C 0.05431 0.22927 0.55893 0.0
C839 C 0.04043 0.17514 0.609 0.0
C840 C 0.05925 0.17112 0.6413 0.0
C841 C 0.06979 0.13621 0.65673 0.0
C842 C 0.06147 0.10463 0.63841 0.0
C843 C 0.04271 0.10806 0.60503 0.0
C844 C 0.03133 0.14362 0.59053 0.0
H845 H 0.58122 0.30016 0.4189 0.0
H846 H 0.69562 0.33266 0.38611 0.0
H847 H 0.69562 0.38678 0.42171 0.0
H848 H 0.55134 0.39321 0.41579 0.0
H849 H 0.52142 0.38241 0.45561 0.0
H850 H 0.5306 0.34572 0.42803 0.0
H851 H 0.55334 0.30497 0.48485 0.0
H852 H 0.54431 0.34164 0.5126 0.0
H853 H 0.58966 0.32457 0.51137 0.0
H854 H 0.68251 0.43894 0.45856 0.0
H855 H 0.65748 0.4848 0.49545 0.0
H856 H 0.55229 0.41724 0.50616 0.0
C857 C 0.6062 0.31878 0.41923 0.0
C858 C 0.63805 0.31261 0.39915 0.0
C859 C 0.67056 0.33709 0.40067 0.0
C860 C 0.67093 0.36787 0.42098 0.0
C861 C 0.63886 0.37339 0.44007 0.0
C862 C 0.60716 0.34942 0.4396 0.0
C863 C 0.5764 0.36172 0.46246 0.0
C864 C 0.54297 0.37134 0.43906 0.0
C865 C 0.56529 0.33142 0.49473 0.0
C866 C 0.59555 0.39679 0.47527 0.0
C867 C 0.6316 0.40295 0.46214 0.0
C868 C 0.65443 0.43427 0.46927 0.0
C869 C 0.63993 0.46016 0.4902 0.0
C870 C 0.60299 0.45449 0.5038 0.0
C871 C 0.58074 0.42215 0.49646 0.0
loop_
_geom_bond_atom_site_label_1
_geom_bond_atom_site_label_2
_geom_bond_distance
_geom_bond_site_symmetry_2
_ccdc_geom_bond_type
H0 C7 0.929 . S
H1 C10 0.930 . S
H2 C12 0.929 . S
H3 C4 0.969 . S
C4 H3 0.969 . S
C4 O5 1.550 . S
C4 H6 0.973 . S
O5 C4 1.550 . S
O5 C11 1.412 . S
H6 C4 0.973 . S
C7 H0 0.929 . S
C7 C8 1.400 . S
C7 C9 1.364 . S
C8 C7 1.400 . S
C8 C12 1.377 . S
C9 C7 1.364 . S
C9 C10 1.374 . S
C10 H1 0.930 . S
C10 C9 1.374 . S
C10 C11 1.383 . S
C11 O5 1.412 . S
C11 C10 1.383 . S
C11 C12 1.394 . S
C12 H2 0.929 . S
C12 C8 1.377 . S
C12 C11 1.394 . S
H13 C20 0.929 . S
H14 C23 0.930 . S
H15 C25 0.929 . S
H16 C17 0.969 . S
C17 H16 0.969 . S
C17 O18 1.550 . S
C17 H19 0.973 . S
O18 C17 1.550 . S
O18 C24 1.412 . S
H19 C17 0.973 . S
C20 H13 0.929 . S
C20 C21 1.400 . S
C20 C22 1.364 . S
C21 C20 1.400 . S
C21 C25 1.377 . S
C22 C20 1.364 . S
C22 C23 1.374 . S
C23 H14 0.930 . S
C23 C22 1.374 . S
C23 C24 1.383 . S
C24 O18 1.412 . S
C24 C23 1.383 . S
C24 C25 1.394 . S
C25 H15 0.929 . S
C25 C21 1.377 . S
C25 C24 1.394 . S
H26 C33 0.929 . S
H27 C36 0.930 . S
H28 C38 0.929 . S
H29 C30 0.969 . S
C30 H29 0.969 . S
C30 O31 1.550 . S
C30 H32 0.973 . S
O31 C30 1.550 . S
O31 C37 1.412 . S
H32 C30 0.973 . S
C33 H26 0.929 . S
C33 C34 1.400 . S
C33 C35 1.364 . S
C34 C33 1.400 . S
C34 C38 1.377 . S
C35 C33 1.364 . S
C35 C36 1.374 . S
C36 H27 0.930 . S
C36 C35 1.374 . S
C36 C37 1.383 . S
C37 O31 1.412 . S
C37 C36 1.383 . S
C37 C38 1.394 . S
C38 H28 0.929 . S
C38 C34 1.377 . S
C38 C37 1.394 . S
H39 C46 0.929 . S
H40 C49 0.930 . S
H41 C51 0.929 . S
H42 C43 0.969 . S
C43 H42 0.969 . S
C43 O44 1.550 . S
C43 H45 0.973 . S
O44 C43 1.550 . S
O44 C50 1.412 . S
H45 C43 0.973 . S
C46 H39 0.929 . S
C46 C47 1.400 . S
C46 C48 1.364 . S
C47 C46 1.400 . S
C47 C51 1.377 . S
C48 C46 1.364 . S
C48 C49 1.374 . S
C49 H40 0.930 . S
C49 C48 1.374 . S
C49 C50 1.383 . S
C50 O44 1.412 . S
C50 C49 1.383 . S
C50 C51 1.394 . S
C51 H41 0.929 . S
C51 C47 1.377 . S
C51 C50 1.394 . S
H52 C59 0.929 . S
H53 C62 0.930 . S
H54 C64 0.929 . S
H55 C56 0.969 . S
C56 H55 0.969 . S
C56 O57 1.550 . S
C56 H58 0.973 . S
O57 C56 1.550 . S
O57 C63 1.412 . S
H58 C56 0.973 . S
C59 H52 0.929 . S
C59 C60 1.400 . S
C59 C61 1.364 . S
C60 C59 1.400 . S
C60 C64 1.377 . S
C61 C59 1.364 . S
C61 C62 1.374 . S
C62 H53 0.930 . S
C62 C61 1.374 . S
C62 C63 1.383 . S
C63 O57 1.412 . S
C63 C62 1.383 . S
C63 C64 1.394 . S
C64 H54 0.929 . S
C64 C60 1.377 . S
C64 C63 1.394 . S
H65 C72 0.929 . S
H66 C75 0.930 . S
H67 C77 0.929 . S
H68 C69 0.969 . S
C69 H68 0.969 . S
C69 O70 1.550 . S
C69 H71 0.973 . S
O70 C69 1.550 . S
O70 C76 1.412 . S
H71 C69 0.973 . S
C72 H65 0.929 . S
C72 C73 1.400 . S
C72 C74 1.364 . S
C73 C72 1.400 . S
C73 C77 1.377 . S
C74 C72 1.364 . S
C74 C75 1.374 . S
C75 H66 0.930 . S
C75 C74 1.374 . S
C75 C76 1.383 . S
C76 O70 1.412 . S
C76 C75 1.383 . S
C76 C77 1.394 . S
C77 H67 0.929 . S
C77 C73 1.377 . S
C77 C76 1.394 . S
H78 C85 0.929 . S
H79 C88 0.930 . S
H80 C90 0.929 . S
H81 C82 0.969 . S
C82 H81 0.969 . S
C82 O83 1.550 . S
C82 H84 0.973 . S
O83 C82 1.550 . S
O83 C89 1.412 . S
H84 C82 0.973 . S
C85 H78 0.929 . S
C85 C86 1.400 . S
C85 C87 1.364 . S
C86 C85 1.400 . S
C86 C90 1.377 . S
C87 C85 1.364 . S
C87 C88 1.374 . S
C88 H79 0.930 . S
C88 C87 1.374 . S
C88 C89 1.383 . S
C89 O83 1.412 . S
C89 C88 1.383 . S
C89 C90 1.394 . S
C90 H80 0.929 . S
C90 C86 1.377 . S
C90 C89 1.394 . S
H91 C98 0.929 . S
H92 C101 0.930 . S
H93 C103 0.929 . S
H94 C95 0.969 . S
C95 H94 0.969 . S
C95 O96 1.550 . S
C95 H97 0.973 . S
O96 C95 1.550 . S
O96 C102 1.412 . S
H97 C95 0.973 . S
C98 H91 0.929 . S
C98 C99 1.400 . S
C98 C100 1.364 . S
C99 C98 1.400 . S
C99 C103 1.377 . S
C100 C98 1.364 . S
C100 C101 1.374 . S
C101 H92 0.930 . S
C101 C100 1.374 . S
C101 C102 1.383 . S
C102 O96 1.412 . S
C102 C101 1.383 . S
C102 C103 1.394 . S
C103 H93 0.929 . S
C103 C99 1.377 . S
C103 C102 1.394 . S
Co104 N109 2.057 . S
Co104 O121 2.021 . S
Co104 O124 2.062 . S
Co104 O128 2.117 1_545 S
Co104 O129 2.020 . S
C105 O125 1.259 1_655 S
C105 O128 1.258 . S
Co106 N115 2.052 1_545 S
Co106 O122 2.117 . S
Co106 O123 2.020 . S
Co106 O125 2.021 1_545 S
Co106 O130 2.062 1_545 S
C107 N109 1.316 . S
C107 N110 1.347 . S
C107 H112 0.931 . S
C108 N109 1.375 . S
C108 C111 1.350 . S
C108 H113 0.930 1_545 S
N109 Co104 2.057 . S
N109 C107 1.316 . S
N109 C108 1.375 . S
N110 C107 1.347 . S
N110 C111 1.373 . S
C111 C108 1.350 . S
C111 N110 1.373 . S
C111 H132 0.931 . S
H112 C107 0.931 . S
H113 C108 0.930 1_565 S
C114 O121 1.259 1_455 S
C114 O122 1.258 . S
N115 Co106 2.052 1_565 S
N115 C116 1.346 . S
N115 C117 1.353 1_565 S
C116 N115 1.346 . S
C116 N118 1.347 . S
C116 H127 0.931 . S
C117 N115 1.353 1_545 S
C117 C119 1.350 . S
C117 H126 0.930 . S
N118 C116 1.347 . S
N118 C119 1.373 1_565 S
C119 C117 1.350 . S
C119 N118 1.373 1_545 S
C119 H133 0.931 . S
C120 O123 1.256 . S
C120 O124 1.255 1_455 S
O121 Co104 2.021 . S
O121 C114 1.259 1_655 S
O122 Co106 2.117 . S
O122 C114 1.258 . S
O123 Co106 2.020 . S
O123 C120 1.256 . S
O124 Co104 2.062 . S
O124 C120 1.255 1_655 S
O125 C105 1.259 1_455 S
O125 Co106 2.021 1_565 S
H126 C117 0.930 . S
H127 C116 0.931 . S
O128 Co104 2.117 1_565 S
O128 C105 1.258 . S
O129 Co104 2.020 . S
O129 C131 1.256 1_545 S
O130 Co106 2.062 1_565 S
O130 C131 1.255 1_455 S
C131 O129 1.256 1_565 S
C131 O130 1.255 1_655 S
H132 C111 0.931 . S
H133 C119 0.931 . S
Co134 N139 2.057 1_545 S
Co134 O151 2.021 . S
Co134 O154 2.062 1_545 S
Co134 O158 2.117 1_546 S
Co134 O159 2.020 . S
C135 O155 1.259 . S
C135 O158 1.258 . S
Co136 N145 2.057 . S
Co136 O152 2.117 . S
Co136 O153 2.020 . S
Co136 O155 2.021 1_545 S
Co136 O160 2.062 . S
C137 N139 1.316 . S
C137 N140 1.347 . S
C137 H142 0.931 1_565 S
C138 N139 1.375 . S
C138 C141 1.350 . S
C138 H143 0.930 . S
N139 Co134 2.057 1_565 S
N139 C137 1.316 . S
N139 C138 1.375 . S
N140 C137 1.347 . S
N140 C141 1.373 . S
C141 C138 1.350 . S
C141 N140 1.373 . S
C141 H162 0.931 . S
H142 C137 0.931 1_545 S
H143 C138 0.930 . S
C144 O151 1.259 . S
C144 O152 1.258 1_556 S
N145 Co136 2.057 . S
N145 C146 1.316 . S
N145 C147 1.375 . S
C146 N145 1.316 . S
C146 N148 1.347 . S
C146 H157 0.931 . S
C147 N145 1.375 . S
C147 C149 1.350 . S
C147 H156 0.930 . S
N148 C146 1.347 . S
N148 C149 1.373 . S
C149 C147 1.350 . S
C149 N148 1.373 . S
C149 H163 0.931 . S
C150 O153 1.256 1_566 S
C150 O154 1.255 . S
O151 Co134 2.021 . S
O151 C144 1.259 . S
O152 Co136 2.117 . S
O152 C144 1.258 1_554 S
O153 Co136 2.020 . S
O153 C150 1.256 1_544 S
O154 Co134 2.062 1_565 S
O154 C150 1.255 . S
O155 C135 1.259 . S
O155 Co136 2.021 1_565 S
H156 C147 0.930 . S
H157 C146 0.931 . S
O158 Co134 2.117 1_564 S
O158 C135 1.258 . S
O159 Co134 2.020 . S
O159 C161 1.256 1_556 S
O160 Co136 2.062 . S
O160 C161 1.255 . S
C161 O159 1.256 1_554 S
C161 O160 1.255 . S
H162 C141 0.931 . S
H163 C149 0.931 . S
Co164 N169 2.057 . S
Co164 O181 2.021 . S
Co164 O184 2.062 . S
Co164 O188 2.117 . S
Co164 O189 2.020 . S
C165 O185 1.259 . S
C165 O188 1.258 . S
Co166 N175 2.057 . S
Co166 O182 2.117 . S
Co166 O183 2.020 . S
Co166 O185 2.021 . S
Co166 O190 2.062 . S
C167 N169 1.316 . S
C167 N170 1.347 . S
C167 H172 0.931 . S
C168 N169 1.375 . S
C168 C171 1.350 . S
C168 H173 0.930 . S
N169 Co164 2.057 . S
N169 C167 1.316 . S
N169 C168 1.375 . S
N170 C167 1.347 . S
N170 C171 1.373 . S
C171 C168 1.350 . S
C171 N170 1.373 . S
C171 H192 0.931 . S
H172 C167 0.931 . S
H173 C168 0.930 . S
C174 O181 1.259 . S
C174 O182 1.258 . S
N175 Co166 2.057 . S
N175 C176 1.316 . S
N175 C177 1.375 . S
C176 N175 1.316 . S
C176 N178 1.347 . S
C176 H187 0.931 . S
C177 N175 1.375 . S
C177 C179 1.350 . S
C177 H186 0.930 . S
N178 C176 1.347 . S
N178 C179 1.373 . S
C179 C177 1.350 . S
C179 N178 1.373 . S
C179 H193 0.931 . S
C180 O183 1.256 . S
C180 O184 1.255 . S
O181 Co164 2.021 . S
O181 C174 1.259 . S
O182 Co166 2.117 . S
O182 C174 1.258 . S
O183 Co166 2.020 . S
O183 C180 1.256 . S
O184 Co164 2.062 . S
O184 C180 1.255 . S
O185 C165 1.259 . S
O185 Co166 2.021 . S
H186 C177 0.930 . S
H187 C176 0.931 . S
O188 Co164 2.117 . S
O188 C165 1.258 . S
O189 Co164 2.020 . S
O189 C191 1.256 . S
O190 Co166 2.062 . S
O190 C191 1.255 . S
C191 O189 1.256 . S
C191 O190 1.255 . S
H192 C171 0.931 . S
H193 C179 0.931 . S
Co194 N199 2.057 . S
Co194 O211 2.021 1_556 S
Co194 O214 2.062 1_556 S
Co194 O218 2.117 1_455 S
Co194 O219 2.020 . S
C195 O215 1.259 . S
C195 O218 1.258 1_554 S
Co196 N205 2.057 . S
Co196 O212 2.117 . S
Co196 O213 2.020 . S
Co196 O215 2.021 1_455 S
Co196 O220 2.062 . S
C197 N199 1.316 . S
C197 N200 1.347 . S
C197 H202 0.931 . S
C198 N199 1.375 . S
C198 C201 1.350 . S
C198 H203 0.930 1_455 S
N199 Co194 2.057 . S
N199 C197 1.316 . S
N199 C198 1.375 . S
N200 C197 1.347 . S
N200 C201 1.373 . S
C201 C198 1.350 . S
C201 N200 1.373 . S
C201 H222 0.931 . S
H202 C197 0.931 . S
H203 C198 0.930 1_655 S
C204 O211 1.259 . S
C204 O212 1.258 . S
N205 Co196 2.057 . S
N205 C206 1.316 1_455 S
N205 C207 1.375 . S
C206 N205 1.316 1_655 S
C206 N208 1.347 . S
C206 H217 0.931 . S
C207 N205 1.375 . S
C207 C209 1.350 . S
C207 H216 0.930 . S
N208 C206 1.347 . S
N208 C209 1.373 1_655 S
C209 C207 1.350 . S
C209 N208 1.373 1_455 S
C209 H223 0.931 . S
C210 O213 1.256 . S
C210 O214 1.255 . S
O211 Co194 2.021 1_554 S
O211 C204 1.259 . S
O212 Co196 2.117 . S
O212 C204 1.258 . S
O213 Co196 2.020 . S
O213 C210 1.256 . S
O214 Co194 2.062 1_554 S
O214 C210 1.255 . S
O215 C195 1.259 . S
O215 Co196 2.021 1_655 S
H216 C207 0.930 . S
H217 C206 0.931 . S
O218 Co194 2.117 1_655 S
O218 C195 1.258 1_556 S
O219 Co194 2.020 . S
O219 C221 1.256 1_556 S
O220 Co196 2.062 . S
O220 C221 1.255 . S
C221 O219 1.256 1_554 S
C221 O220 1.255 . S
H222 C201 0.931 . S
H223 C209 0.931 . S
H224 C236 0.930 . S
H225 C238 0.930 . S
H226 C239 0.930 . S
H227 C243 0.959 1_545 S
H228 C243 0.959 . S
H229 C243 0.961 . S
H230 C244 0.960 1_565 S
H231 C244 0.961 1_565 S
H232 C244 0.959 . S
H233 C247 0.929 . S
H234 C248 0.931 . S
H235 C250 0.930 . S
C236 H224 0.930 . S
C236 C237 1.399 . S
C236 C241 1.399 . S
C237 C236 1.399 . S
C237 C238 1.376 . S
C238 H225 0.930 . S
C238 C237 1.376 . S
C238 C239 1.388 . S
C239 H226 0.930 . S
C239 C238 1.388 . S
C239 C240 1.390 . S
C240 C239 1.390 . S
C240 C241 1.394 . S
C240 C246 1.465 . S
C241 C236 1.399 . S
C241 C240 1.394 . S
C241 C242 1.516 . S
C242 C241 1.516 . S
C242 C243 1.502 1_545 S
C242 C244 1.561 . S
C242 C245 1.526 . S
C243 H227 0.959 1_565 S
C243 H228 0.959 . S
C243 H229 0.961 . S
C243 C242 1.502 1_565 S
C244 H230 0.960 1_545 S
C244 H231 0.961 1_545 S
C244 H232 0.959 . S
C244 C242 1.561 . S
C245 C242 1.526 . S
C245 C246 1.396 . S
C245 C250 1.390 . S
C246 C240 1.465 . S
C246 C245 1.396 . S
C246 C247 1.399 . S
C247 H233 0.929 . S
C247 C246 1.399 . S
C247 C248 1.385 . S
C248 H234 0.931 . S
C248 C247 1.385 . S
C248 C249 1.389 . S
C249 C248 1.389 . S
C249 C250 1.387 . S
C250 H235 0.930 . S
C250 C245 1.390 . S
C250 C249 1.387 . S
H251 C263 0.930 . S
H252 C265 0.930 . S
H253 C266 0.930 . S
H254 C270 0.959 . S
H255 C270 0.959 . S
H256 C270 0.961 . S
H257 C271 0.960 . S
H258 C271 0.961 . S
H259 C271 0.959 . S
H260 C274 0.929 1_545 S
H261 C275 0.931 1_545 S
H262 C277 0.930 . S
C263 H251 0.930 . S
C263 C264 1.399 . S
C263 C268 1.399 . S
C264 C263 1.399 . S
C264 C265 1.376 . S
C265 H252 0.930 . S
C265 C264 1.376 . S
C265 C266 1.388 . S
C266 H253 0.930 . S
C266 C265 1.388 . S
C266 C267 1.390 . S
C267 C266 1.390 . S
C267 C268 1.394 . S
C267 C273 1.465 . S
C268 C263 1.399 . S
C268 C267 1.394 . S
C268 C269 1.516 . S
C269 C268 1.516 . S
C269 C270 1.502 . S
C269 C271 1.561 . S
C269 C272 1.526 . S
C270 H254 0.959 . S
C270 H255 0.959 . S
C270 H256 0.961 . S
C270 C269 1.502 . S
C271 H257 0.960 . S
C271 H258 0.961 . S
C271 H259 0.959 . S
C271 C269 1.561 . S
C272 C269 1.526 . S
C272 C273 1.396 . S
C272 C277 1.390 . S
C273 C267 1.465 . S
C273 C272 1.396 . S
C273 C274 1.399 . S
C274 H260 0.929 1_565 S
C274 C273 1.399 . S
C274 C275 1.385 . S
C275 H261 0.931 1_565 S
C275 C274 1.385 . S
C275 C276 1.389 . S
C276 C275 1.389 . S
C276 C277 1.387 . S
C277 H262 0.930 . S
C277 C272 1.390 . S
C277 C276 1.387 . S
H278 C290 0.930 . S
H279 C292 0.930 . S
H280 C293 0.930 . S
H281 C297 0.959 . S
H282 C297 0.959 . S
H283 C297 0.961 . S
H284 C298 0.960 . S
H285 C298 0.961 . S
H286 C298 0.959 . S
H287 C301 0.929 . S
H288 C302 0.931 . S
H289 C304 0.930 . S
C290 H278 0.930 . S
C290 C291 1.399 . S
C290 C295 1.399 . S
C291 C290 1.399 . S
C291 C292 1.376 . S
C292 H279 0.930 . S
C292 C291 1.376 . S
C292 C293 1.388 . S
C293 H280 0.930 . S
C293 C292 1.388 . S
C293 C294 1.390 . S
C294 C293 1.390 . S
C294 C295 1.394 . S
C294 C300 1.465 . S
C295 C290 1.399 . S
C295 C294 1.394 . S
C295 C296 1.516 . S
C296 C295 1.516 . S
C296 C297 1.502 . S
C296 C298 1.561 . S
C296 C299 1.526 . S
C297 H281 0.959 . S
C297 H282 0.959 . S
C297 H283 0.961 . S
C297 C296 1.502 . S
C298 H284 0.960 . S
C298 H285 0.961 . S
C298 H286 0.959 . S
C298 C296 1.561 . S
C299 C296 1.526 . S
C299 C300 1.396 . S
C299 C304 1.390 . S
C300 C294 1.465 . S
C300 C299 1.396 . S
C300 C301 1.399 . S
C301 H287 0.929 . S
C301 C300 1.399 . S
C301 C302 1.385 . S
C302 H288 0.931 . S
C302 C301 1.385 . S
C302 C303 1.389 . S
C303 C302 1.389 . S
C303 C304 1.387 . S
C304 H289 0.930 . S
C304 C299 1.390 . S
C304 C303 1.387 . S
H305 C317 0.930 . S
H306 C319 0.930 . S
H307 C320 0.930 . S
H308 C324 0.959 . S
H309 C324 0.959 . S
H310 C324 0.961 . S
H311 C325 0.960 . S
H312 C325 0.961 . S
H313 C325 0.959 . S
H314 C328 0.929 . S
H315 C329 0.931 . S
H316 C331 0.930 . S
C317 H305 0.930 . S
C317 C318 1.399 . S
C317 C322 1.399 . S
C318 C317 1.399 . S
C318 C319 1.376 . S
C319 H306 0.930 . S
C319 C318 1.376 . S
C319 C320 1.388 . S
C320 H307 0.930 . S
C320 C319 1.388 . S
C320 C321 1.390 . S
C321 C320 1.390 . S
C321 C322 1.394 . S
C321 C327 1.465 . S
C322 C317 1.399 . S
C322 C321 1.394 . S
C322 C323 1.516 . S
C323 C322 1.516 . S
C323 C324 1.502 1_655 S
C323 C325 1.561 . S
C323 C326 1.526 . S
C324 H308 0.959 . S
C324 H309 0.959 . S
C324 H310 0.961 . S
C324 C323 1.502 1_455 S
C325 H311 0.960 . S
C325 H312 0.961 . S
C325 H313 0.959 . S
C325 C323 1.561 . S
C326 C323 1.526 . S
C326 C327 1.396 . S
C326 C331 1.390 . S
C327 C321 1.465 . S
C327 C326 1.396 . S
C327 C328 1.399 . S
C328 H314 0.929 . S
C328 C327 1.399 . S
C328 C329 1.385 . S
C329 H315 0.931 . S
C329 C328 1.385 . S
C329 C330 1.389 . S
C330 C329 1.389 . S
C330 C331 1.387 . S
C331 H316 0.930 . S
C331 C326 1.390 . S
C331 C330 1.387 . S
H332 C344 0.930 . S
H333 C346 0.930 . S
H334 C347 0.930 . S
H335 C351 0.959 . S
H336 C351 0.959 1_556 S
H337 C351 0.961 . S
H338 C352 0.960 . S
H339 C352 0.961 . S
H340 C352 0.959 . S
H341 C355 0.929 1_565 S
H342 C356 0.931 1_565 S
H343 C358 0.930 . S
C344 H332 0.930 . S
C344 C345 1.399 . S
C344 C349 1.399 . S
C345 C344 1.399 . S
C345 C346 1.376 . S
C346 H333 0.930 . S
C346 C345 1.376 . S
C346 C347 1.388 . S
C347 H334 0.930 . S
C347 C346 1.388 . S
C347 C348 1.390 . S
C348 C347 1.390 . S
C348 C349 1.394 . S
C348 C354 1.465 . S
C349 C344 1.399 . S
C349 C348 1.394 . S
C349 C350 1.516 . S
C350 C349 1.516 . S
C350 C351 1.502 . S
C350 C352 1.561 . S
C350 C353 1.526 . S
C351 H335 0.959 . S
C351 H336 0.959 1_554 S
C351 H337 0.961 . S
C351 C350 1.502 . S
C352 H338 0.960 . S
C352 H339 0.961 . S
C352 H340 0.959 . S
C352 C350 1.561 . S
C353 C350 1.526 . S
C353 C354 1.396 . S
C353 C358 1.390 . S
C354 C348 1.465 . S
C354 C353 1.396 . S
C354 C355 1.399 . S
C355 H341 0.929 1_545 S
C355 C354 1.399 . S
C355 C356 1.385 . S
C356 H342 0.931 1_545 S
C356 C355 1.385 . S
C356 C357 1.389 . S
C357 C356 1.389 . S
C357 C358 1.387 . S
C358 H343 0.930 . S
C358 C353 1.390 . S
C358 C357 1.387 . S
H359 C371 0.930 . S
H360 C373 0.930 . S
H361 C374 0.930 . S
H362 C378 0.959 . S
H363 C378 0.959 . S
H364 C378 0.961 . S
H365 C379 0.960 . S
H366 C379 0.961 . S
H367 C379 0.959 . S
H368 C382 0.929 1_545 S
H369 C383 0.931 1_545 S
H370 C385 0.930 . S
C371 H359 0.930 . S
C371 C372 1.399 . S
C371 C376 1.399 . S
C372 C371 1.399 . S
C372 C373 1.376 . S
C373 H360 0.930 . S
C373 C372 1.376 . S
C373 C374 1.388 . S
C374 H361 0.930 . S
C374 C373 1.388 . S
C374 C375 1.390 . S
C375 C374 1.390 . S
C375 C376 1.394 . S
C375 C381 1.465 . S
C376 C371 1.399 . S
C376 C375 1.394 . S
C376 C377 1.516 . S
C377 C376 1.516 . S
C377 C378 1.502 . S
C377 C379 1.561 . S
C377 C380 1.526 . S
C378 H362 0.959 . S
C378 H363 0.959 . S
C378 H364 0.961 . S
C378 C377 1.502 . S
C379 H365 0.960 . S
C379 H366 0.961 . S
C379 H367 0.959 . S
C379 C377 1.561 . S
C380 C377 1.526 . S
C380 C381 1.396 . S
C380 C385 1.390 . S
C381 C375 1.465 . S
C381 C380 1.396 . S
C381 C382 1.399 . S
C382 H368 0.929 1_565 S
C382 C381 1.399 . S
C382 C383 1.385 . S
C383 H369 0.931 1_565 S
C383 C382 1.385 . S
C383 C384 1.389 . S
C384 C383 1.389 . S
C384 C385 1.387 . S
C385 H370 0.930 . S
C385 C380 1.390 . S
C385 C384 1.387 . S
H386 C398 0.930 . S
H387 C400 0.930 . S
H388 C401 0.930 . S
H389 C405 0.959 . S
H390 C405 0.959 . S
H391 C405 0.961 . S
H392 C406 0.960 . S
H393 C406 0.961 1_554 S
H394 C406 0.959 . S
H395 C409 0.929 . S
H396 C410 0.931 . S
H397 C412 0.930 . S
C398 H386 0.930 . S
C398 C399 1.399 . S
C398 C403 1.399 . S
C399 C398 1.399 . S
C399 C400 1.376 . S
C400 H387 0.930 . S
C400 C399 1.376 . S
C400 C401 1.388 . S
C401 H388 0.930 . S
C401 C400 1.388 . S
C401 C402 1.390 . S
C402 C401 1.390 . S
C402 C403 1.394 . S
C402 C408 1.465 . S
C403 C398 1.399 . S
C403 C402 1.394 . S
C403 C404 1.516 . S
C404 C403 1.516 . S
C404 C405 1.502 1_556 S
C404 C406 1.561 . S
C404 C407 1.526 . S
C405 H389 0.959 . S
C405 H390 0.959 . S
C405 H391 0.961 . S
C405 C404 1.502 1_554 S
C406 H392 0.960 . S
C406 H393 0.961 1_556 S
C406 H394 0.959 . S
C406 C404 1.561 . S
C407 C404 1.526 . S
C407 C408 1.396 . S
C407 C412 1.390 1_556 S
C408 C402 1.465 . S
C408 C407 1.396 . S
C408 C409 1.399 . S
C409 H395 0.929 . S
C409 C408 1.399 . S
C409 C410 1.385 . S
C410 H396 0.931 . S
C410 C409 1.385 . S
C410 C411 1.389 . S
C411 C410 1.389 . S
C411 C412 1.387 1_556 S
C412 H397 0.930 . S
C412 C407 1.390 1_554 S
C412 C411 1.387 1_554 S
H413 C425 0.930 . S
H414 C427 0.930 . S
H415 C428 0.930 . S
H416 C432 0.959 . S
H417 C432 0.959 . S
H418 C432 0.961 . S
H419 C433 0.960 . S
H420 C433 0.961 . S
H421 C433 0.959 . S
H422 C436 0.929 . S
H423 C437 0.931 . S
H424 C439 0.930 . S
C425 H413 0.930 . S
C425 C426 1.399 . S
C425 C430 1.399 . S
C426 C425 1.399 . S
C426 C427 1.376 . S
C427 H414 0.930 . S
C427 C426 1.376 . S
C427 C428 1.388 . S
C428 H415 0.930 . S
C428 C427 1.388 . S
C428 C429 1.390 . S
C429 C428 1.390 . S
C429 C430 1.394 . S
C429 C435 1.465 . S
C430 C425 1.399 . S
C430 C429 1.394 . S
C430 C431 1.516 . S
C431 C430 1.516 . S
C431 C432 1.502 . S
C431 C433 1.561 . S
C431 C434 1.526 . S
C432 H416 0.959 . S
C432 H417 0.959 . S
C432 H418 0.961 . S
C432 C431 1.502 . S
C433 H419 0.960 . S
C433 H420 0.961 . S
C433 H421 0.959 . S
C433 C431 1.561 . S
C434 C431 1.526 . S
C434 C435 1.396 . S
C434 C439 1.390 . S
C435 C429 1.465 . S
C435 C434 1.396 . S
C435 C436 1.399 . S
C436 H422 0.929 . S
C436 C435 1.399 . S
C436 C437 1.385 . S
C437 H423 0.931 . S
C437 C436 1.385 . S
C437 C438 1.389 . S
C438 C437 1.389 . S
C438 C439 1.387 . S
C439 H424 0.930 . S
C439 C434 1.390 . S
C439 C438 1.387 . S
H440 C452 0.930 . S
H441 C454 0.930 . S
H442 C455 0.930 . S
H443 C459 0.959 . S
H444 C459 0.959 . S
H445 C459 0.961 . S
H446 C460 0.960 . S
H447 C460 0.961 . S
H448 C460 0.959 . S
H449 C463 0.929 . S
H450 C464 0.931 . S
H451 C466 0.930 . S
C452 H440 0.930 . S
C452 C453 1.399 . S
C452 C457 1.399 . S
C453 C452 1.399 . S
C453 C454 1.376 . S
C454 H441 0.930 . S
C454 C453 1.376 . S
C454 C455 1.388 . S
C455 H442 0.930 . S
C455 C454 1.388 . S
C455 C456 1.390 . S
C456 C455 1.390 . S
C456 C457 1.394 . S
C456 C462 1.465 . S
C457 C452 1.399 . S
C457 C456 1.394 . S
C457 C458 1.516 . S
C458 C457 1.516 . S
C458 C459 1.502 . S
C458 C460 1.561 . S
C458 C461 1.526 . S
C459 H443 0.959 . S
C459 H444 0.959 . S
C459 H445 0.961 . S
C459 C458 1.502 . S
C460 H446 0.960 . S
C460 H447 0.961 . S
C460 H448 0.959 . S
C460 C458 1.561 . S
C461 C458 1.526 . S
C461 C462 1.396 . S
C461 C466 1.390 . S
C462 C456 1.465 . S
C462 C461 1.396 . S
C462 C463 1.399 . S
C463 H449 0.929 . S
C463 C462 1.399 . S
C463 C464 1.385 . S
C464 H450 0.931 . S
C464 C463 1.385 . S
C464 C465 1.389 . S
C465 C464 1.389 . S
C465 C466 1.387 . S
C466 H451 0.930 . S
C466 C461 1.390 . S
C466 C465 1.387 . S
H467 C479 0.930 . S
H468 C481 0.930 . S
H469 C482 0.930 1_554 S
H470 C486 0.959 . S
H471 C486 0.959 . S
H472 C486 0.961 . S
H473 C487 0.960 . S
H474 C487 0.961 . S
H475 C487 0.959 . S
H476 C490 0.929 . S
H477 C491 0.931 . S
H478 C493 0.930 . S
C479 H467 0.930 . S
C479 C480 1.399 . S
C479 C484 1.399 . S
C480 C479 1.399 . S
C480 C481 1.376 . S
C481 H468 0.930 . S
C481 C480 1.376 . S
C481 C482 1.388 . S
C482 H469 0.930 1_556 S
C482 C481 1.388 . S
C482 C483 1.390 . S
C483 C482 1.390 . S
C483 C484 1.394 . S
C483 C489 1.465 . S
C484 C479 1.399 . S
C484 C483 1.394 . S
C484 C485 1.516 . S
C485 C484 1.516 . S
C485 C486 1.502 . S
C485 C487 1.561 . S
C485 C488 1.526 . S
C486 H470 0.959 . S
C486 H471 0.959 . S
C486 H472 0.961 . S
C486 C485 1.502 . S
C487 H473 0.960 . S
C487 H474 0.961 . S
C487 H475 0.959 . S
C487 C485 1.561 . S
C488 C485 1.526 . S
C488 C489 1.396 . S
C488 C493 1.390 . S
C489 C483 1.465 . S
C489 C488 1.396 . S
C489 C490 1.399 1_556 S
C490 H476 0.929 . S
C490 C489 1.399 1_554 S
C490 C491 1.385 . S
C491 H477 0.931 . S
C491 C490 1.385 . S
C491 C492 1.389 1_554 S
C492 C491 1.389 1_556 S
C492 C493 1.387 . S
C493 H478 0.930 . S
C493 C488 1.390 . S
C493 C492 1.387 . S
H494 C506 0.930 . S
H495 C508 0.930 . S
H496 C509 0.930 . S
H497 C513 0.959 . S
H498 C513 0.959 . S
H499 C513 0.961 . S
H500 C514 0.960 1_655 S
H501 C514 0.961 . S
H502 C514 0.959 . S
H503 C517 0.929 . S
H504 C518 0.931 . S
H505 C520 0.930 . S
C506 H494 0.930 . S
C506 C507 1.399 . S
C506 C511 1.399 . S
C507 C506 1.399 . S
C507 C508 1.376 . S
C508 H495 0.930 . S
C508 C507 1.376 . S
C508 C509 1.388 . S
C509 H496 0.930 . S
C509 C508 1.388 . S
C509 C510 1.390 . S
C510 C509 1.390 . S
C510 C511 1.394 . S
C510 C516 1.465 . S
C511 C506 1.399 . S
C511 C510 1.394 . S
C511 C512 1.516 . S
C512 C511 1.516 . S
C512 C513 1.502 . S
C512 C514 1.561 1_655 S
C512 C515 1.526 . S
C513 H497 0.959 . S
C513 H498 0.959 . S
C513 H499 0.961 . S
C513 C512 1.502 . S
C514 H500 0.960 1_455 S
C514 H501 0.961 . S
C514 H502 0.959 . S
C514 C512 1.561 1_455 S
C515 C512 1.526 . S
C515 C516 1.396 . S
C515 C520 1.390 . S
C516 C510 1.465 . S
C516 C515 1.396 . S
C516 C517 1.399 . S
C517 H503 0.929 . S
C517 C516 1.399 . S
C517 C518 1.385 . S
C518 H504 0.931 . S
C518 C517 1.385 . S
C518 C519 1.389 . S
C519 C518 1.389 . S
C519 C520 1.387 . S
C520 H505 0.930 . S
C520 C515 1.390 . S
C520 C519 1.387 . S
H521 C533 0.930 . S
H522 C535 0.930 . S
H523 C536 0.930 . S
H524 C540 0.959 . S
H525 C540 0.959 . S
H526 C540 0.961 . S
H527 C541 0.960 . S
H528 C541 0.961 . S
H529 C541 0.959 . S
H530 C544 0.929 . S
H531 C545 0.931 . S
H532 C547 0.930 . S
C533 H521 0.930 . S
C533 C534 1.399 . S
C533 C538 1.399 . S
C534 C533 1.399 . S
C534 C535 1.376 . S
C535 H522 0.930 . S
C535 C534 1.376 . S
C535 C536 1.388 . S
C536 H523 0.930 . S
C536 C535 1.388 . S
C536 C537 1.390 . S
C537 C536 1.390 . S
C537 C538 1.394 . S
C537 C543 1.465 . S
C538 C533 1.399 . S
C538 C537 1.394 . S
C538 C539 1.516 . S
C539 C538 1.516 . S
C539 C540 1.502 . S
C539 C541 1.561 . S
C539 C542 1.526 . S
C540 H524 0.959 . S
C540 H525 0.959 . S
C540 H526 0.961 . S
C540 C539 1.502 . S
C541 H527 0.960 . S
C541 H528 0.961 . S
C541 H529 0.959 . S
C541 C539 1.561 . S
C542 C539 1.526 . S
C542 C543 1.396 . S
C542 C547 1.390 . S
C543 C537 1.465 . S
C543 C542 1.396 . S
C543 C544 1.399 . S
C544 H530 0.929 . S
C544 C543 1.399 . S
C544 C545 1.385 . S
C545 H531 0.931 . S
C545 C544 1.385 . S
C545 C546 1.389 . S
C546 C545 1.389 . S
C546 C547 1.387 . S
C547 H532 0.930 . S
C547 C542 1.390 . S
C547 C546 1.387 . S
H548 C560 0.930 . S
H549 C562 0.930 . S
H550 C563 0.930 1_545 S
H551 C567 0.959 . S
H552 C567 0.959 . S
H553 C567 0.961 . S
H554 C568 0.960 . S
H555 C568 0.961 . S
H556 C568 0.959 . S
H557 C571 0.929 . S
H558 C572 0.931 . S
H559 C574 0.930 . S
C560 H548 0.930 . S
C560 C561 1.399 . S
C560 C565 1.399 . S
C561 C560 1.399 . S
C561 C562 1.376 . S
C562 H549 0.930 . S
C562 C561 1.376 . S
C562 C563 1.388 . S
C563 H550 0.930 1_565 S
C563 C562 1.388 . S
C563 C564 1.390 . S
C564 C563 1.390 . S
C564 C565 1.394 . S
C564 C570 1.465 . S
C565 C560 1.399 . S
C565 C564 1.394 . S
C565 C566 1.516 . S
C566 C565 1.516 . S
C566 C567 1.502 1_655 S
C566 C568 1.561 . S
C566 C569 1.526 . S
C567 H551 0.959 . S
C567 H552 0.959 . S
C567 H553 0.961 . S
C567 C566 1.502 1_455 S
C568 H554 0.960 . S
C568 H555 0.961 . S
C568 H556 0.959 . S
C568 C566 1.561 . S
C569 C566 1.526 . S
C569 C570 1.396 . S
C569 C574 1.390 . S
C570 C564 1.465 . S
C570 C569 1.396 . S
C570 C571 1.399 1_565 S
C571 H557 0.929 . S
C571 C570 1.399 1_545 S
C571 C572 1.385 . S
C572 H558 0.931 . S
C572 C571 1.385 . S
C572 C573 1.389 1_545 S
C573 C572 1.389 1_565 S
C573 C574 1.387 . S
C574 H559 0.930 . S
C574 C569 1.390 . S
C574 C573 1.387 . S
H575 C587 0.930 . S
H576 C589 0.930 . S
H577 C590 0.930 . S
H578 C594 0.959 . S
H579 C594 0.959 . S
H580 C594 0.961 . S
H581 C595 0.960 . S
H582 C595 0.961 . S
H583 C595 0.959 . S
H584 C598 0.929 . S
H585 C599 0.931 . S
H586 C601 0.930 . S
C587 H575 0.930 . S
C587 C588 1.399 . S
C587 C592 1.399 . S
C588 C587 1.399 . S
C588 C589 1.376 . S
C589 H576 0.930 . S
C589 C588 1.376 . S
C589 C590 1.388 . S
C590 H577 0.930 . S
C590 C589 1.388 . S
C590 C591 1.390 . S
C591 C590 1.390 . S
C591 C592 1.394 . S
C591 C597 1.465 . S
C592 C587 1.399 . S
C592 C591 1.394 . S
C592 C593 1.516 . S
C593 C592 1.516 . S
C593 C594 1.502 . S
C593 C595 1.561 . S
C593 C596 1.526 . S
C594 H578 0.959 . S
C594 H579 0.959 . S
C594 H580 0.961 . S
C594 C593 1.502 . S
C595 H581 0.960 . S
C595 H582 0.961 . S
C595 H583 0.959 . S
C595 C593 1.561 . S
C596 C593 1.526 . S
C596 C597 1.396 . S
C596 C601 1.390 . S
C597 C591 1.465 . S
C597 C596 1.396 . S
C597 C598 1.399 . S
C598 H584 0.929 . S
C598 C597 1.399 . S
C598 C599 1.385 . S
C599 H585 0.931 . S
C599 C598 1.385 . S
C599 C600 1.389 . S
C600 C599 1.389 . S
C600 C601 1.387 . S
C601 H586 0.930 . S
C601 C596 1.390 . S
C601 C600 1.387 . S
H602 C614 0.930 . S
H603 C616 0.930 . S
H604 C617 0.930 . S
H605 C621 0.959 . S
H606 C621 0.959 . S
H607 C621 0.961 . S
H608 C622 0.960 . S
H609 C622 0.961 . S
H610 C622 0.959 . S
H611 C625 0.929 . S
H612 C626 0.931 . S
H613 C628 0.930 . S
C614 H602 0.930 . S
C614 C615 1.399 . S
C614 C619 1.399 . S
C615 C614 1.399 . S
C615 C616 1.376 . S
C616 H603 0.930 . S
C616 C615 1.376 . S
C616 C617 1.388 . S
C617 H604 0.930 . S
C617 C616 1.388 . S
C617 C618 1.390 . S
C618 C617 1.390 . S
C618 C619 1.394 . S
C618 C624 1.465 . S
C619 C614 1.399 . S
C619 C618 1.394 . S
C619 C620 1.516 . S
C620 C619 1.516 . S
C620 C621 1.502 . S
C620 C622 1.561 . S
C620 C623 1.526 . S
C621 H605 0.959 . S
C621 H606 0.959 . S
C621 H607 0.961 . S
C621 C620 1.502 . S
C622 H608 0.960 . S
C622 H609 0.961 . S
C622 H610 0.959 . S
C622 C620 1.561 . S
C623 C620 1.526 . S
C623 C624 1.396 . S
C623 C628 1.390 . S
C624 C618 1.465 . S
C624 C623 1.396 . S
C624 C625 1.399 . S
C625 H611 0.929 . S
C625 C624 1.399 . S
C625 C626 1.385 . S
C626 H612 0.931 . S
C626 C625 1.385 . S
C626 C627 1.389 . S
C627 C626 1.389 . S
C627 C628 1.387 . S
C628 H613 0.930 . S
C628 C623 1.390 . S
C628 C627 1.387 . S
H629 C641 0.930 . S
H630 C643 0.930 . S
H631 C644 0.930 . S
H632 C648 0.959 . S
H633 C648 0.959 . S
H634 C648 0.961 . S
H635 C649 0.960 . S
H636 C649 0.961 . S
H637 C649 0.959 . S
H638 C652 0.929 . S
H639 C653 0.931 . S
H640 C655 0.930 . S
C641 H629 0.930 . S
C641 C642 1.399 . S
C641 C646 1.399 . S
C642 C641 1.399 . S
C642 C643 1.376 . S
C643 H630 0.930 . S
C643 C642 1.376 . S
C643 C644 1.388 . S
C644 H631 0.930 . S
C644 C643 1.388 . S
C644 C645 1.390 . S
C645 C644 1.390 . S
C645 C646 1.394 . S
C645 C651 1.465 . S
C646 C641 1.399 . S
C646 C645 1.394 . S
C646 C647 1.516 . S
C647 C646 1.516 . S
C647 C648 1.502 . S
C647 C649 1.561 . S
C647 C650 1.526 . S
C648 H632 0.959 . S
C648 H633 0.959 . S
C648 H634 0.961 . S
C648 C647 1.502 . S
C649 H635 0.960 . S
C649 H636 0.961 . S
C649 H637 0.959 . S
C649 C647 1.561 . S
C650 C647 1.526 . S
C650 C651 1.396 . S
C650 C655 1.390 . S
C651 C645 1.465 . S
C651 C650 1.396 . S
C651 C652 1.399 . S
C652 H638 0.929 . S
C652 C651 1.399 . S
C652 C653 1.385 . S
C653 H639 0.931 . S
C653 C652 1.385 . S
C653 C654 1.389 . S
C654 C653 1.389 . S
C654 C655 1.387 . S
C655 H640 0.930 . S
C655 C650 1.390 . S
C655 C654 1.387 . S
H656 C668 0.930 . S
H657 C670 0.930 . S
H658 C671 0.930 . S
H659 C675 0.959 . S
H660 C675 0.959 . S
H661 C675 0.961 . S
H662 C676 0.960 . S
H663 C676 0.961 . S
H664 C676 0.959 . S
H665 C679 0.929 . S
H666 C680 0.931 . S
H667 C682 0.930 1_554 S
C668 H656 0.930 . S
C668 C669 1.399 . S
C668 C673 1.399 . S
C669 C668 1.399 . S
C669 C670 1.376 . S
C670 H657 0.930 . S
C670 C669 1.376 . S
C670 C671 1.388 . S
C671 H658 0.930 . S
C671 C670 1.388 . S
C671 C672 1.390 . S
C672 C671 1.390 . S
C672 C673 1.394 . S
C672 C678 1.465 . S
C673 C668 1.399 . S
C673 C672 1.394 . S
C673 C674 1.500 1_556 S
C674 C673 1.500 1_554 S
C674 C675 1.514 . S
C674 C676 1.571 . S
C674 C677 1.518 1_554 S
C675 H659 0.959 . S
C675 H660 0.959 . S
C675 H661 0.961 . S
C675 C674 1.514 . S
C676 H662 0.960 . S
C676 H663 0.961 . S
C676 H664 0.959 . S
C676 C674 1.571 . S
C677 C674 1.518 1_556 S
C677 C678 1.396 . S
C677 C682 1.390 . S
C678 C672 1.465 . S
C678 C677 1.396 . S
C678 C679 1.399 . S
C679 H665 0.929 . S
C679 C678 1.399 . S
C679 C680 1.385 . S
C680 H666 0.931 . S
C680 C679 1.385 . S
C680 C681 1.389 . S
C681 C680 1.389 . S
C681 C682 1.387 . S
C682 H667 0.930 1_556 S
C682 C677 1.390 . S
C682 C681 1.387 . S
H683 C695 0.930 . S
H684 C697 0.930 . S
H685 C698 0.930 . S
H686 C702 0.959 . S
H687 C702 0.959 . S
H688 C702 0.961 . S
H689 C703 0.960 . S
H690 C703 0.961 . S
H691 C703 0.959 . S
H692 C706 0.929 . S
H693 C707 0.931 . S
H694 C709 0.930 . S
C695 H683 0.930 . S
C695 C696 1.399 . S
C695 C700 1.399 . S
C696 C695 1.399 . S
C696 C697 1.376 . S
C697 H684 0.930 . S
C697 C696 1.376 . S
C697 C698 1.388 . S
C698 H685 0.930 . S
C698 C697 1.388 . S
C698 C699 1.390 . S
C699 C698 1.390 . S
C699 C700 1.394 . S
C699 C705 1.465 . S
C700 C695 1.399 . S
C700 C699 1.394 . S
C700 C701 1.516 . S
C701 C700 1.516 . S
C701 C702 1.502 . S
C701 C703 1.561 . S
C701 C704 1.526 . S
C702 H686 0.959 . S
C702 H687 0.959 . S
C702 H688 0.961 . S
C702 C701 1.502 . S
C703 H689 0.960 . S
C703 H690 0.961 . S
C703 H691 0.959 . S
C703 C701 1.561 . S
C704 C701 1.526 . S
C704 C705 1.396 . S
C704 C709 1.390 . S
C705 C699 1.465 . S
C705 C704 1.396 . S
C705 C706 1.399 . S
C706 H692 0.929 . S
C706 C705 1.399 . S
C706 C707 1.385 . S
C707 H693 0.931 . S
C707 C706 1.385 . S
C707 C708 1.389 . S
C708 C707 1.389 . S
C708 C709 1.387 . S
C709 H694 0.930 . S
C709 C704 1.390 . S
C709 C708 1.387 . S
H710 C722 0.930 . S
H711 C724 0.930 . S
H712 C725 0.930 . S
H713 C729 0.959 . S
H714 C729 0.959 . S
H715 C729 0.961 . S
H716 C730 0.960 . S
H717 C730 0.961 . S
H718 C730 0.959 . S
H719 C733 0.929 . S
H720 C734 0.931 . S
H721 C736 0.930 . S
C722 H710 0.930 . S
C722 C723 1.399 . S
C722 C727 1.399 . S
C723 C722 1.399 . S
C723 C724 1.376 . S
C724 H711 0.930 . S
C724 C723 1.376 . S
C724 C725 1.388 . S
C725 H712 0.930 . S
C725 C724 1.388 . S
C725 C726 1.390 . S
C726 C725 1.390 . S
C726 C727 1.394 . S
C726 C732 1.465 . S
C727 C722 1.399 . S
C727 C726 1.394 . S
C727 C728 1.516 . S
C728 C727 1.516 . S
C728 C729 1.502 . S
C728 C730 1.561 . S
C728 C731 1.526 . S
C729 H713 0.959 . S
C729 H714 0.959 . S
C729 H715 0.961 . S
C729 C728 1.502 . S
C730 H716 0.960 . S
C730 H717 0.961 . S
C730 H718 0.959 . S
C730 C728 1.561 . S
C731 C728 1.526 . S
C731 C732 1.396 . S
C731 C736 1.390 . S
C732 C726 1.465 . S
C732 C731 1.396 . S
C732 C733 1.399 . S
C733 H719 0.929 . S
C733 C732 1.399 . S
C733 C734 1.385 . S
C734 H720 0.931 . S
C734 C733 1.385 . S
C734 C735 1.389 . S
C735 C734 1.389 . S
C735 C736 1.387 . S
C736 H721 0.930 . S
C736 C731 1.390 . S
C736 C735 1.387 . S
H737 C749 0.930 . S
H738 C751 0.930 . S
H739 C752 0.930 . S
H740 C756 0.959 . S
H741 C756 0.959 . S
H742 C756 0.961 . S
H743 C757 0.960 . S
H744 C757 0.961 . S
H745 C757 0.959 . S
H746 C760 0.929 . S
H747 C761 0.931 . S
H748 C763 0.930 . S
C749 H737 0.930 . S
C749 C750 1.399 . S
C749 C754 1.399 . S
C750 C749 1.399 . S
C750 C751 1.376 . S
C751 H738 0.930 . S
C751 C750 1.376 . S
C751 C752 1.388 . S
C752 H739 0.930 . S
C752 C751 1.388 . S
C752 C753 1.390 . S
C753 C752 1.390 . S
C753 C754 1.394 . S
C753 C759 1.465 . S
C754 C749 1.399 . S
C754 C753 1.394 . S
C754 C755 1.516 . S
C755 C754 1.516 . S
C755 C756 1.502 . S
C755 C757 1.561 . S
C755 C758 1.526 . S
C756 H740 0.959 . S
C756 H741 0.959 . S
C756 H742 0.961 . S
C756 C755 1.502 . S
C757 H743 0.960 . S
C757 H744 0.961 . S
C757 H745 0.959 . S
C757 C755 1.561 . S
C758 C755 1.526 . S
C758 C759 1.396 . S
C758 C763 1.390 . S
C759 C753 1.465 . S
C759 C758 1.396 . S
C759 C760 1.399 . S
C760 H746 0.929 . S
C760 C759 1.399 . S
C760 C761 1.385 . S
C761 H747 0.931 . S
C761 C760 1.385 . S
C761 C762 1.389 . S
C762 C761 1.389 . S
C762 C763 1.387 . S
C763 H748 0.930 . S
C763 C758 1.390 . S
C763 C762 1.387 . S
H764 C776 0.930 1_554 S
H765 C778 0.930 . S
H766 C779 0.930 . S
H767 C783 0.959 . S
H768 C783 0.959 . S
H769 C783 0.963 . S
H770 C784 0.960 . S
H771 C784 0.961 . S
H772 C784 0.959 . S
H773 C787 0.929 . S
H774 C788 0.931 . S
H775 C790 0.928 1_455 S
C776 H764 0.930 1_556 S
C776 C777 1.399 . S
C776 C781 1.399 . S
C777 C776 1.399 . S
C777 C778 1.376 . S
C778 H765 0.930 . S
C778 C777 1.376 . S
C778 C779 1.388 . S
C779 H766 0.930 . S
C779 C778 1.388 . S
C779 C780 1.390 . S
C780 C779 1.390 . S
C780 C781 1.394 . S
C780 C786 1.465 . S
C781 C776 1.399 . S
C781 C780 1.394 . S
C781 C782 1.516 1_556 S
C782 C781 1.516 1_554 S
C782 C783 1.502 1_655 S
C782 C784 1.561 . S
C782 C785 1.544 . S
C783 H767 0.959 . S
C783 H768 0.959 . S
C783 H769 0.963 . S
C783 C782 1.502 1_455 S
C784 H770 0.960 . S
C784 H771 0.961 . S
C784 H772 0.959 . S
C784 C782 1.561 . S
C785 C782 1.544 . S
C785 C786 1.364 1_554 S
C785 C790 1.400 . S
C786 C780 1.465 . S
C786 C785 1.364 1_556 S
C786 C787 1.399 . S
C787 H773 0.929 . S
C787 C786 1.399 . S
C787 C788 1.385 . S
C788 H774 0.931 . S
C788 C787 1.385 . S
C788 C789 1.385 1_655 S
C789 C788 1.385 1_455 S
C789 C790 1.379 1_456 S
C790 H775 0.928 1_655 S
C790 C785 1.400 . S
C790 C789 1.379 1_654 S
H791 C803 0.930 . S
H792 C805 0.930 . S
H793 C806 0.930 . S
H794 C810 0.959 . S
H795 C810 0.959 . S
H796 C810 0.961 . S
H797 C811 0.960 . S
H798 C811 0.961 . S
H799 C811 0.959 . S
H800 C814 0.929 . S
H801 C815 0.931 . S
H802 C817 0.930 . S
C803 H791 0.930 . S
C803 C804 1.399 . S
C803 C808 1.399 . S
C804 C803 1.399 . S
C804 C805 1.376 . S
C805 H792 0.930 . S
C805 C804 1.376 . S
C805 C806 1.388 . S
C806 H793 0.930 . S
C806 C805 1.388 . S
C806 C807 1.390 . S
C807 C806 1.390 . S
C807 C808 1.394 . S
C807 C813 1.465 . S
C808 C803 1.399 . S
C808 C807 1.394 . S
C808 C809 1.516 . S
C809 C808 1.516 . S
C809 C810 1.502 . S
C809 C811 1.561 . S
C809 C812 1.526 . S
C810 H794 0.959 . S
C810 H795 0.959 . S
C810 H796 0.961 . S
C810 C809 1.502 . S
C811 H797 0.960 . S
C811 H798 0.961 . S
C811 H799 0.959 . S
C811 C809 1.561 . S
C812 C809 1.526 . S
C812 C813 1.396 . S
C812 C817 1.390 . S
C813 C807 1.465 . S
C813 C812 1.396 . S
C813 C814 1.399 . S
C814 H800 0.929 . S
C814 C813 1.399 . S
C814 C815 1.385 . S
C815 H801 0.931 . S
C815 C814 1.385 . S
C815 C816 1.389 . S
C816 C815 1.389 . S
C816 C817 1.387 . S
C817 H802 0.930 . S
C817 C812 1.390 . S
C817 C816 1.387 . S
H818 C830 0.930 . S
H819 C832 0.930 . S
H820 C833 0.930 . S
H821 C837 0.959 . S
H822 C837 0.959 . S
H823 C837 0.961 . S
H824 C838 0.960 . S
H825 C838 0.961 . S
H826 C838 0.959 . S
H827 C841 0.929 . S
H828 C842 0.931 . S
H829 C844 0.930 . S
C830 H818 0.930 . S
C830 C831 1.399 . S
C830 C835 1.399 . S
C831 C830 1.399 . S
C831 C832 1.376 . S
C832 H819 0.930 . S
C832 C831 1.376 . S
C832 C833 1.388 . S
C833 H820 0.930 . S
C833 C832 1.388 . S
C833 C834 1.390 . S
C834 C833 1.390 . S
C834 C835 1.394 . S
C834 C840 1.465 . S
C835 C830 1.399 . S
C835 C834 1.394 . S
C835 C836 1.516 . S
C836 C835 1.516 . S
C836 C837 1.502 . S
C836 C838 1.561 . S
C836 C839 1.526 . S
C837 H821 0.959 . S
C837 H822 0.959 . S
C837 H823 0.961 . S
C837 C836 1.502 . S
C838 H824 0.960 . S
C838 H825 0.961 . S
C838 H826 0.959 . S
C838 C836 1.561 . S
C839 C836 1.526 . S
C839 C840 1.396 . S
C839 C844 1.390 . S
C840 C834 1.465 . S
C840 C839 1.396 . S
C840 C841 1.399 . S
C841 H827 0.929 . S
C841 C840 1.399 . S
C841 C842 1.385 . S
C842 H828 0.931 . S
C842 C841 1.385 . S
C842 C843 1.389 . S
C843 C842 1.389 . S
C843 C844 1.387 . S
C844 H829 0.930 . S
C844 C839 1.390 . S
C844 C843 1.387 . S
H845 C857 0.930 . S
H846 C859 0.930 . S
H847 C860 0.930 . S
H848 C864 0.959 . S
H849 C864 0.959 . S
H850 C864 0.961 . S
H851 C865 0.960 . S
H852 C865 0.961 . S
H853 C865 0.959 . S
H854 C868 0.929 . S
H855 C869 0.931 . S
H856 C871 0.930 . S
C857 H845 0.930 . S
C857 C858 1.399 . S
C857 C862 1.399 . S
C858 C857 1.399 . S
C858 C859 1.376 . S
C859 H846 0.930 . S
C859 C858 1.376 . S
C859 C860 1.388 . S
C860 H847 0.930 . S
C860 C859 1.388 . S
C860 C861 1.390 . S
C861 C860 1.390 . S
C861 C862 1.394 . S
C861 C867 1.465 . S
C862 C857 1.399 . S
C862 C861 1.394 . S
C862 C863 1.516 . S
C863 C862 1.516 . S
C863 C864 1.502 . S
C863 C865 1.561 . S
C863 C866 1.526 . S
C864 H848 0.959 . S
C864 H849 0.959 . S
C864 H850 0.961 . S
C864 C863 1.502 . S
C865 H851 0.960 . S
C865 H852 0.961 . S
C865 H853 0.959 . S
C865 C863 1.561 . S
C866 C863 1.526 . S
C866 C867 1.396 . S
C866 C871 1.390 . S
C867 C861 1.465 . S
C867 C866 1.396 . S
C867 C868 1.399 . S
C868 H854 0.929 . S
C868 C867 1.399 . S
C868 C869 1.385 . S
C869 H855 0.931 . S
C869 C868 1.385 . S
C869 C870 1.389 . S
C870 C869 1.389 . S
C870 C871 1.387 . S
C871 H856 0.930 . S
C871 C866 1.390 . S
C871 C870 1.387 . S
C237 C9 2.498 . S
C249 C120 2.531 . S
C264 C21 1.090 . S
C276 N140 1.097 . S
C303 C174 1.671 . S
C291 C30 1.649 . S
C318 C43 0.954 . S
C330 N208 1.088 . S
C357 C161 2.211 . S
C345 C4 2.180 . S
C384 N118 1.519 . S
C372 C22 1.584 . S
C411 C195 1.647 1_556 S
C399 C34 1.635 . S
C438 N170 0.870 . S
C426 C48 0.865 . S
C453 C8 1.846 . S
C465 C210 1.857 . S
C492 C144 1.750 . S
C480 C35 1.736 . S
C507 C47 1.455 . S
C519 C105 1.462 . S
C534 C17 1.169 . S
C546 C191 1.189 . S
C573 C131 2.153 . S
C561 C60 2.142 . S
C588 C74 1.362 . S
C600 N148 1.311 . S
C615 C82 1.478 . S
C627 C165 1.481 . S
C642 C100 1.514 . S
C654 N200 1.468 . S
C669 C61 2.579 . S
C681 C150 2.607 . S
C708 N110 1.190 . S
C696 C73 1.183 . S
C735 C204 2.022 . S
C723 C87 2.011 . S
C762 N178 0.706 . S
C750 C95 0.709 . S
C777 C56 1.786 . S
C789 C221 1.897 1_556 S
C816 C135 1.762 . S
C804 C86 1.758 . S
C843 C114 1.415 . S
C831 C99 1.368 . S
C858 C69 1.310 . S
C870 C180 1.335 . S
