# Generated by pormake.
# Topology anh, (6,3)-cn, num edge types: 1
# Building blocks:
#     Node 0, Type 0, BuildingBlock: BETFEN_clean_sbu_0, # of connection points: 6
#     Node 1, Type 0, BuildingBlock: BETFEN_clean_sbu_0, # of connection points: 6
#     Node 2, Type 0, BuildingBlock: BETFEN_clean_sbu_0, # of connection points: 6
#     Node 3, Type 1, BuildingBlock: BETDAH_clean_linker_0, # of connection points: 3
#     Node 4, Type 1, BuildingBlock: BETDAH_clean_linker_0, # of connection points: 3
#     Node 5, Type 1, BuildingBlock: BETDAH_clean_linker_0, # of connection points: 3
#     Node 6, Type 1, BuildingBlock: BETDAH_clean_linker_0, # of connection points: 3
#     Node 7, Type 1, BuildingBlock: BETDAH_clean_linker_0, # of connection points: 3
#     Node 8, Type 1, BuildingBlock: BETDAH_clean_linker_0, # of connection points: 3
#     Edge 9, Type (0, 1), BuildingBlock: EZIPEK_clean_linker_0, # of connection points: 2
#     Edge 10, Type (0, 1), BuildingBlock: EZIPEK_clean_linker_0, # of connection points: 2
#     Edge 11, Type (0, 1), BuildingBlock: EZIPEK_clean_linker_0, # of connection points: 2
#     Edge 12, Type (0, 1), BuildingBlock: EZIPEK_clean_linker_0, # of connection points: 2
#     Edge 13, Type (0, 1), BuildingBlock: EZIPEK_clean_linker_0, # of connection points: 2
#     Edge 14, Type (0, 1), BuildingBlock: EZIPEK_clean_linker_0, # of connection points: 2
#     Edge 15, Type (0, 1), BuildingBlock: EZIPEK_clean_linker_0, # of connection points: 2
#     Edge 16, Type (0, 1), BuildingBlock: EZIPEK_clean_linker_0, # of connection points: 2
#     Edge 17, Type (0, 1), BuildingBlock: EZIPEK_clean_linker_0, # of connection points: 2
#     Edge 18, Type (0, 1), BuildingBlock: EZIPEK_clean_linker_0, # of connection points: 2
#     Edge 19, Type (0, 1), BuildingBlock: EZIPEK_clean_linker_0, # of connection points: 2
#     Edge 20, Type (0, 1), BuildingBlock: EZIPEK_clean_linker_0, # of connection points: 2
#     Edge 21, Type (0, 1), BuildingBlock: EZIPEK_clean_linker_0, # of connection points: 2
#     Edge 22, Type (0, 1), BuildingBlock: EZIPEK_clean_linker_0, # of connection points: 2
#     Edge 23, Type (0, 1), BuildingBlock: EZIPEK_clean_linker_0, # of connection points: 2
#     Edge 24, Type (0, 1), BuildingBlock: EZIPEK_clean_linker_0, # of connection points: 2
#     Edge 25, Type (0, 1), BuildingBlock: EZIPEK_clean_linker_0, # of connection points: 2
#     Edge 26, Type (0, 1), BuildingBlock: EZIPEK_clean_linker_0, # of connection points: 2
# Relax obj value: 0.216
# Max RMSD: 0.209
# Mean RMSD: 0.121
data_MOF--net-anh--node1-BETFEN_clean_sbu_0--node2-BETDAH_clean_linker_0--edge1-EZIPEK_clean_linker_0
_symmetry_space_group_name_H-M    P1
_symmetry_Int_Tables_number       1
_symmetry_cell_setting            triclinic
loop_
_symmetry_equiv_pos_as_xyz
'x, y, z'
_cell_length_a     22.016769
_cell_length_b     22.59424
_cell_length_c     36.110641
_cell_angle_alpha  91.312193
_cell_angle_beta   94.429832
_cell_angle_gamma 96.337674
loop_
_atom_site_label
_atom_site_type_symbol
_atom_site_fract_x
_atom_site_fract_y
_atom_site_fract_z
_atom_type_partial_charge
Pr0 Pr 1.03454 0.59627 0.14255 0.0
Pr1 Pr 0.05498 0.72737 0.13617 0.0
C2 C 1.02212 0.48431 0.16713 0.0
C3 C 0.9725 0.43617 0.17017 0.0
C4 C 0.91139 0.44475 0.15974 0.0
C5 C 0.86389 0.40051 0.16589 0.0
C6 C 0.87713 0.34739 0.18254 0.0
C7 C 0.93828 0.33859 0.19247 0.0
C8 C 0.98571 0.38279 0.18633 0.0
C9 C 1.01452 0.62971 0.0692 0.0
C10 C 0.9127 0.66875 0.12804 0.0
C11 C 0.09712 0.84139 0.12405 0.0
C12 C 0.15372 0.87903 0.13764 0.0
C13 C 0.17772 0.87626 0.1747 0.0
C14 C 0.23388 0.90812 0.18679 0.0
C15 C 0.26705 0.94312 0.16204 0.0
C16 C 0.24313 0.94648 0.12507 0.0
C17 C 0.18666 0.91459 0.11295 0.0
C18 C 1.03878 0.6901 0.20862 0.0
C19 C 0.17823 0.65514 0.14139 0.0
O20 O 1.01949 0.53156 0.18832 0.0
O21 O 1.03771 0.49694 0.13369 0.0
O22 O 0.05795 0.65267 0.09179 0.0
O23 O 0.98072 0.58732 0.08411 0.0
O24 O 0.95085 0.71221 0.11638 0.0
O25 O 0.93423 0.62347 0.14541 0.0
O26 O 0.10428 0.79724 0.10149 0.0
O27 O 0.05826 0.82629 0.14865 0.0
O28 O 0.07228 0.66862 0.1863 0.0
O29 O 1.01187 0.73289 0.19368 0.0
O30 O 0.14118 0.60488 0.13806 0.0
O31 O 0.15697 0.70707 0.145 0.0
H32 H 0.90046 0.48605 0.14755 0.0
H33 H 0.81687 0.40789 0.15811 0.0
H34 H 0.94913 0.29781 0.20535 0.0
H35 H 1.03259 0.37579 0.19484 0.0
H36 H 0.15356 0.84877 0.19422 0.0
H37 H 0.25193 0.90491 0.21536 0.0
H38 H 0.26848 0.97316 0.10563 0.0
H39 H 0.16925 0.91677 0.08417 0.0
Pr40 Pr 0.63798 0.13072 0.50696 0.0
Pr41 Pr 0.51031 0.11813 0.5229 0.0
C42 C 0.74172 0.16283 0.47394 0.0
C43 C 0.78091 0.21831 0.46666 0.0
C44 C 0.82804 0.24255 0.49298 0.0
C45 C 0.86444 0.29515 0.48594 0.0
C46 C 0.85459 0.32412 0.45243 0.0
C47 C 0.80811 0.29996 0.42593 0.0
C48 C 0.77169 0.24737 0.43292 0.0
C49 C 0.62835 0.11937 0.58276 0.0
C50 C 0.57143 0.25678 0.52386 0.0
C51 C 0.3954 1.08549 0.54151 0.0
C52 C 0.34821 1.03949 0.52498 0.0
C53 C 0.354 1.01575 0.48931 0.0
C54 C 0.312 0.96921 0.47413 0.0
C55 C 0.26365 0.94568 0.4944 0.0
C56 C 0.25707 0.96997 0.52982 0.0
C57 C 0.29928 1.01677 0.54507 0.0
C58 C 0.52728 0.12124 0.44688 0.0
C59 C 0.57843 0.99264 0.51542 0.0
O60 O 0.6873 0.15523 0.45608 0.0
O61 O 0.74173 0.14505 0.50821 0.0
O62 O 0.59595 0.15144 0.56259 0.0
O63 O 0.66658 1.09365 0.56386 0.0
O64 O 0.52451 0.22116 0.53393 0.0
O65 O 0.61841 0.23294 0.51109 0.0
O66 O 0.4436 1.06576 0.55813 0.0
O67 O 0.40951 0.13028 0.52045 0.0
O68 O 0.55441 1.09107 0.47025 0.0
O69 O 0.4885 0.15093 0.4622 0.0
O70 O 0.62281 1.02564 0.50029 0.0
O71 O 0.53435 1.01854 0.52997 0.0
H72 H 0.8367 0.22111 0.51908 0.0
H73 H 0.9002 0.31342 0.50666 0.0
H74 H 0.79995 0.32196 0.39996 0.0
H75 H 0.73614 0.22962 0.41192 0.0
H76 H 0.3918 1.03248 0.47351 0.0
H77 H 0.318 0.95054 0.44692 0.0
H78 H 0.22023 0.9518 0.54589 0.0
H79 H 0.29448 1.03438 0.57272 0.0
Pr80 Pr 0.49062 0.58643 0.82007 0.0
Pr81 Pr 0.49651 0.71139 0.81291 0.0
C82 C 0.49159 0.46867 0.81337 0.0
C83 C 0.54433 0.4359 0.82146 0.0
C84 C 0.59715 0.46449 0.84163 0.0
C85 C 0.65032 0.43624 0.84617 0.0
C86 C 0.65098 0.37931 0.83035 0.0
C87 C 0.59828 0.35084 0.81012 0.0
C88 C 0.5452 0.3791 0.80559 0.0
C89 C 0.51582 0.64379 0.88991 0.0
C90 C 0.62694 0.66274 0.83018 0.0
C91 C 0.48365 0.82802 0.81061 0.0
C92 C 0.46169 0.87354 0.83397 0.0
C93 C 0.46374 0.86784 0.8726 0.0
C94 C 0.47151 0.91887 0.89576 0.0
C95 C 0.47891 0.97571 0.88019 0.0
C96 C 0.45985 0.97938 0.84196 0.0
C97 C 0.45329 0.92852 0.81884 0.0
C98 C 0.51732 0.65229 0.74649 0.0
C99 C 0.35883 0.63954 0.81976 0.0
O100 O 0.49716 0.50361 0.78526 0.0
O101 O 0.47068 0.4939 0.84202 0.0
O102 O 0.47637 0.65811 0.86538 0.0
O103 O 0.54347 0.60005 0.87841 0.0
O104 O 0.59695 0.70784 0.83849 0.0
O105 O 0.59624 0.61329 0.81548 0.0
O106 O 0.5334 0.80705 0.82425 0.0
O107 O 0.44311 0.78745 0.79416 0.0
O108 O 0.4745 0.63716 0.76666 0.0
O109 O 0.55055 0.69942 0.7601 0.0
O110 O 0.38449 0.58988 0.8172 0.0
O111 O 0.39208 0.69167 0.82133 0.0
H112 H 0.59751 0.50895 0.85347 0.0
H113 H 0.69054 0.45838 0.86205 0.0
H114 H 0.59831 0.30651 0.79799 0.0
H115 H 0.50528 0.35708 0.78936 0.0
H116 H 0.46692 0.82484 0.88476 0.0
H117 H 0.48021 0.91319 0.92523 0.0
H118 H 0.45949 1.02163 0.82851 0.0
H119 H 0.44907 0.93329 0.78898 0.0
H120 H 0.45257 1.06551 0.28079 0.0
H121 H 0.64548 0.12579 0.28752 0.0
H122 H 0.55258 1.05813 0.18348 0.0
C123 C 0.49487 1.07485 0.26739 0.0
C124 C 0.4961 1.06033 0.22959 0.0
C125 C 0.54861 1.0985 0.28844 0.0
C126 C 0.60355 0.10957 0.27108 0.0
C127 C 0.60476 1.09579 0.23301 0.0
C128 C 0.55118 1.07051 0.21256 0.0
N129 N 0.66045 1.10085 0.21565 0.0
C130 C 0.69777 0.15428 0.21389 0.0
H131 H 0.55198 0.49918 0.6027 0.0
H132 H 0.55996 0.68407 0.57718 0.0
H133 H 0.57242 0.55289 0.49011 0.0
C134 C 0.55615 0.53344 0.58221 0.0
C135 C 0.56313 0.51734 0.54503 0.0
C136 C 0.5533 0.59284 0.59357 0.0
C137 C 0.56085 0.63825 0.56791 0.0
C138 C 0.5683 0.6246 0.53052 0.0
C139 C 0.56817 0.56381 0.51908 0.0
N140 N 0.57559 0.67073 0.50401 0.0
C141 C 0.57592 0.73235 0.51135 0.0
H142 H 0.87799 0.64094 0.92145 0.0
H143 H 0.06333 0.64583 0.89149 0.0
H144 H 0.91821 0.66874 0.80789 0.0
C145 C 0.91043 0.64526 0.90027 0.0
C146 C 0.88988 0.65524 0.86339 0.0
C147 C 0.9729 0.64352 0.91047 0.0
C148 C 1.01523 0.64748 0.88328 0.0
C149 C 0.99523 0.65484 0.8459 0.0
C150 C 0.93308 0.66079 0.83648 0.0
N151 N 1.03588 0.65678 0.81706 0.0
C152 C 0.0981 0.64961 0.82162 0.0
H153 H 0.11145 0.77605 0.37179 0.0
H154 H 1.04135 0.59073 0.37643 0.0
H155 H 0.11364 0.68933 0.47635 0.0
C156 C 0.09999 0.73681 0.3877 0.0
C157 C 0.11544 0.73879 0.42609 0.0
C158 C 0.07377 0.68336 0.36936 0.0
C159 C 0.06037 0.63238 0.39037 0.0
C160 C 0.07348 0.63509 0.4292 0.0
C161 C 0.10142 0.68804 0.44665 0.0
N162 N 0.0627 0.58478 0.45147 0.0
C163 C 1.0182 0.53709 0.44264 0.0
H164 H 0.70936 0.22432 0.7482 0.0
H165 H 0.6978 1.03375 0.742 0.0
H166 H 0.78457 0.12887 0.83963 0.0
C167 C 0.72036 0.1831 0.76052 0.0
C168 C 0.74648 0.18338 0.79746 0.0
C169 C 0.70721 0.12975 0.73935 0.0
C170 C 0.71441 1.07558 0.75656 0.0
C171 C 0.73846 1.07567 0.79368 0.0
C172 C 0.76165 0.12965 0.81205 0.0
N173 N 0.72381 1.02533 0.81513 0.0
C174 C 0.68165 1.02974 0.84166 0.0
H175 H 0.65382 0.659 0.03573 0.0
H176 H 0.47385 0.68108 0.06783 0.0
H177 H 0.62592 0.69075 0.15098 0.0
C178 C 0.62394 0.66685 0.05741 0.0
C179 C 0.64835 0.67499 0.09457 0.0
C180 C 0.56164 0.67085 0.04773 0.0
C181 C 0.52196 0.67857 0.07558 0.0
C182 C 0.54475 0.68353 0.11311 0.0
C183 C 0.60815 0.68437 0.12216 0.0
N184 N 0.50564 0.68771 0.14243 0.0
C185 C 0.44175 0.67738 0.13858 0.0
C186 C 0.28396 0.68348 0.17202 0.0
C187 C 0.246 0.65448 0.14194 0.0
C188 C 0.33817 0.63171 0.11251 0.0
C189 C 0.37523 0.66851 0.13974 0.0
N190 N 0.38308 0.73531 0.19343 0.0
N191 N 0.23709 0.60763 0.08065 0.0
C192 C 0.348 0.69623 0.16889 0.0
C193 C 0.27308 0.62994 0.11143 0.0
N194 N 0.2591 0.69611 0.20438 0.0
N195 N 0.36499 0.59751 0.0882 0.0
H196 H 0.18947 0.60626 0.07843 0.0
H197 H 0.25481 0.59518 0.05608 0.0
H198 H 0.41234 0.5969 0.08879 0.0
H199 H 0.34023 0.56559 0.07 0.0
H200 H 0.28504 0.71267 0.22848 0.0
H201 H 0.21322 0.68311 0.20833 0.0
H202 H 0.36452 0.7619 0.2126 0.0
H203 H 0.43043 0.7448 0.19268 0.0
C204 C 0.94355 0.38036 0.424 0.0
C205 C 0.89241 0.38076 0.44566 0.0
C206 C 0.92049 0.4868 0.46152 0.0
C207 C 0.97161 0.48623 0.44 0.0
N208 N 1.02538 0.43802 0.39457 0.0
N209 N 0.82432 0.43555 0.47851 0.0
C210 C 0.98098 0.4347 0.41914 0.0
C211 C 0.87839 0.4345 0.46237 0.0
N212 N 0.95769 0.32765 0.40945 0.0
N213 N 0.9134 0.5368 0.48213 0.0
H214 H 0.79266 0.39787 0.47984 0.0
H215 H 0.8084 0.47439 0.48797 0.0
H216 H 0.94157 0.57685 0.48073 0.0
H217 H 0.88176 0.53803 0.50203 0.0
H218 H 0.99801 0.3231 0.39693 0.0
H219 H 0.93069 0.2872 0.41189 0.0
H220 H 1.03102 0.40371 0.37586 0.0
H221 H 0.05364 0.47728 0.39075 0.0
C222 C 0.5758 1.0048 0.91818 0.0
C223 C 0.52392 1.0245 0.89896 0.0
C224 C 0.58897 1.07741 0.85697 0.0
C225 C 0.63416 1.03844 0.86646 0.0
N226 N 0.67726 0.97491 0.91211 0.0
N227 N 0.49511 0.11527 0.87448 0.0
C228 C 0.63054 1.00602 0.8996 0.0
C229 C 0.53676 1.07515 0.87789 0.0
N230 N 0.57177 0.98527 0.95334 0.0
N231 N 0.59329 0.11253 0.82688 0.0
H232 H 0.4551 0.10954 0.88845 0.0
H233 H 0.50256 0.15481 0.86037 0.0
H234 H 0.63066 0.11474 0.81087 0.0
H235 H 0.5586 0.13736 0.81708 0.0
H236 H 0.60909 0.97311 0.96979 0.0
H237 H 0.53119 0.98635 0.96646 0.0
H238 H 0.67406 0.94614 0.93419 0.0
H239 H 0.71838 0.97673 0.89937 0.0
C240 C 0.82146 0.6962 0.08706 0.0
C241 C 0.84468 0.66992 0.11991 0.0
C242 C 0.73823 0.63838 0.13299 0.0
C243 C 0.71601 0.67411 0.10414 0.0
N244 N 0.74203 0.75209 0.06126 0.0
N245 N 0.82096 0.63164 0.17986 0.0
C246 C 0.75931 0.70784 0.08352 0.0
C247 C 0.80192 0.64531 0.1446 0.0
N248 N 0.85684 0.70661 0.05799 0.0
N249 N 0.69962 0.5962 0.14848 0.0
H250 H 0.86575 0.64312 0.191 0.0
H251 H 0.79052 0.61723 0.19938 0.0
H252 H 0.65357 0.58641 0.13904 0.0
H253 H 0.71535 0.56632 0.16759 0.0
H254 H 0.83978 0.72227 0.03275 0.0
H255 H 0.89954 0.69122 0.05702 0.0
H256 H 0.77359 0.78016 0.04784 0.0
H257 H 0.69799 0.76524 0.05989 0.0
C258 C 0.24669 0.83665 0.47888 0.0
C259 C 0.22312 0.89247 0.47927 0.0
C260 C 0.12556 0.84611 0.4487 0.0
C261 C 0.15207 0.79213 0.44437 0.0
N262 N 0.24214 0.73964 0.44866 0.0
N263 N 0.14298 0.95296 0.46097 0.0
C264 C 0.21381 0.7883 0.4577 0.0
C265 C 0.16318 0.898 0.46326 0.0
N266 N 0.2999 0.82936 0.49951 0.0
N267 N 0.06422 0.84732 0.4399 0.0
H268 H 0.16899 0.99172 0.47186 0.0
H269 H 0.10247 0.96075 0.44597 0.0
H270 H 1.03537 0.81007 0.42928 0.0
H271 H 1.04102 0.88364 0.44596 0.0
H272 H 0.3149 0.78773 0.50385 0.0
H273 H 0.32566 0.86385 0.51537 0.0
H274 H 0.28896 0.73753 0.45438 0.0
H275 H 0.22041 0.70378 0.43219 0.0
C276 C 0.69874 0.30008 0.86223 0.0
C277 C 0.70428 0.3458 0.83668 0.0
C278 C 0.77527 0.29262 0.80411 0.0
C279 C 0.75129 0.23961 0.82064 0.0
N280 N 0.69557 0.19504 0.87106 0.0
N281 N 0.75671 0.3931 0.7876 0.0
C282 C 0.71663 0.24398 0.85238 0.0
C283 C 0.74704 0.34526 0.8096 0.0
N284 N 0.67296 0.30983 0.89469 0.0
N285 N 0.82204 0.29088 0.78159 0.0
H286 H 0.73719 0.43241 0.79227 0.0
H287 H 0.78236 0.39317 0.76455 0.0
H288 H 0.84227 0.2518 0.77743 0.0
H289 H 0.84373 0.32854 0.77001 0.0
H290 H 0.67189 0.27987 0.9162 0.0
H291 H 0.65864 0.35104 0.90135 0.0
H292 H 0.6622 0.19565 0.88997 0.0
H293 H 0.70915 0.15312 0.86752 0.0
C294 C 0.52276 0.8873 0.50349 0.0
C295 C 0.57725 0.92524 0.5158 0.0
C296 C 0.63127 0.83527 0.52479 0.0
C297 C 0.57601 0.79785 0.51477 0.0
N298 N 0.46675 0.788 0.50109 0.0
N299 N 0.67947 0.93318 0.54627 0.0
C300 C 0.52107 0.82391 0.50623 0.0
C301 C 0.63052 0.89855 0.52856 0.0
N302 N 0.47332 0.91133 0.48731 0.0
N303 N 0.68501 0.81047 0.5302 0.0
H304 H 0.68001 0.97887 0.55105 0.0
H305 H 0.71693 0.91591 0.55964 0.0
H306 H 0.687 0.76453 0.52911 0.0
H307 H 0.7279 0.8354 0.53312 0.0
H308 H 0.4352 0.88604 0.4739 0.0
H309 H 0.47226 0.95681 0.48416 0.0
H310 H 0.42427 0.80421 0.49882 0.0
H311 H 0.46381 0.74167 0.50231 0.0
C312 C 0.72631 0.69387 0.8705 0.0
C313 C 0.69524 0.66624 0.83751 0.0
C314 C 0.79034 0.62666 0.82329 0.0
C315 C 0.82324 0.66067 0.85345 0.0
N316 N 0.82308 0.74214 0.8982 0.0
N317 N 0.70663 0.62643 0.7762 0.0
C318 C 0.79146 0.69924 0.87473 0.0
C319 C 0.72989 0.63849 0.81197 0.0
N320 N 0.69445 0.7119 0.89886 0.0
N321 N 0.81506 0.58142 0.80631 0.0
H322 H 0.66609 0.64209 0.76587 0.0
H323 H 0.73189 0.60929 0.756 0.0
H324 H 0.85734 0.56796 0.81539 0.0
H325 H 0.79007 0.553 0.78604 0.0
H326 H 0.71584 0.72781 0.92449 0.0
H327 H 0.647 0.70403 0.8986 0.0
H328 H 0.80154 0.77398 0.91203 0.0
H329 H 0.8708 0.75024 0.90032 0.0
C330 C 0.37836 0.94149 0.18153 0.0
C331 C 0.3278 0.97477 0.1751 0.0
C332 C 0.39196 1.06602 0.19752 0.0
C333 C 0.43979 1.03136 0.20848 0.0
N334 N 0.477 0.93525 0.21499 0.0
N335 N 0.28363 1.06744 0.1799 0.0
C336 C 0.43282 0.96885 0.20135 0.0
C337 C 0.33389 1.03687 0.1836 0.0
N338 N 0.37454 0.88398 0.16812 0.0
N339 N 0.40248 0.12682 0.19992 0.0
H340 H 0.24046 1.04779 0.16939 0.0
H341 H 0.28355 0.11113 0.18969 0.0
H342 H 0.44449 0.14952 0.21017 0.0
H343 H 0.37161 0.15476 0.18888 0.0
H344 H 0.41196 0.85951 0.16839 0.0
H345 H 0.33517 0.86243 0.15358 0.0
H346 H 0.47128 0.88886 0.21444 0.0
H347 H 0.51777 0.95358 0.22951 0.0
C348 C 0.60691 0.36616 0.50666 0.0
C349 C 0.57085 0.32442 0.52776 0.0
C350 C 0.51916 0.40889 0.54918 0.0
C351 C 0.56315 0.45132 0.53485 0.0
N352 N 0.65936 0.46635 0.50642 0.0
N353 N 0.50861 0.31625 0.5806 0.0
C354 C 0.61009 0.42892 0.51535 0.0
C355 C 0.53128 0.34856 0.55224 0.0
N356 N 0.6362 0.34743 0.47731 0.0
N357 N 0.46541 0.42574 0.56 0.0
H358 H 0.524 0.27606 0.58848 0.0
H359 H 0.48235 0.33418 0.59997 0.0
H360 H 0.45313 0.46864 0.55622 0.0
H361 H 0.43063 0.39511 0.56851 0.0
H362 H 0.65886 0.37706 0.45988 0.0
H363 H 0.63133 0.30365 0.46715 0.0
H364 H 0.69702 0.45092 0.49511 0.0
H365 H 0.66578 0.51148 0.51401 0.0
C366 C 0.25994 0.67131 0.79238 0.0
C367 C 0.29102 0.63813 0.81929 0.0
C368 C 0.19283 0.60598 0.84488 0.0
C369 C 0.16362 0.64519 0.82108 0.0
N370 N 0.17049 0.7213 0.77535 0.0
N371 N 0.28865 0.58071 0.87483 0.0
C372 C 0.19755 0.67971 0.79579 0.0
C373 C 0.25789 0.60693 0.84647 0.0
N374 N 0.28925 0.69255 0.76253 0.0
N375 N 0.15839 0.56704 0.8654 0.0
H376 H 0.33621 0.58133 0.87738 0.0
H377 H 0.26764 0.56288 0.89759 0.0
H378 H 0.11076 0.56507 0.8647 0.0
H379 H 0.17635 0.53331 0.88044 0.0
H380 H 0.26715 0.71178 0.74008 0.0
H381 H 0.33418 0.68536 0.75817 0.0
H382 H 0.19483 0.7525 0.7597 0.0
H383 H 0.12448 0.72791 0.77633 0.0
C384 C 0.79915 0.26152 0.16103 0.0
C385 C 0.827 0.30087 0.19019 0.0
C386 C 0.76823 0.24449 0.23542 0.0
C387 C 0.73882 0.20656 0.20604 0.0
N388 N 0.71633 0.18536 0.14034 0.0
N389 N 0.83018 0.33777 0.25355 0.0
C390 C 0.75114 0.21718 0.16865 0.0
C391 C 0.80908 0.29475 0.22695 0.0
N392 N 0.82029 0.26503 0.12643 0.0
N393 N 0.75844 0.23153 0.27139 0.0
H394 H 0.8603 0.37504 0.24829 0.0
H395 H 0.81409 0.33928 0.27986 0.0
H396 H 0.72768 0.19594 0.27843 0.0
H397 H 0.78354 0.25343 0.29429 0.0
H398 H 0.80694 0.23331 0.10514 0.0
H399 H 0.85482 0.29742 0.11963 0.0
H400 H 0.71868 0.19523 0.11244 0.0
H401 H 0.68117 0.15206 0.14486 0.0
C402 C 1.01517 0.5833 0.0055 0.0
C403 C 1.01442 0.6353 0.02825 0.0
C404 C 1.00365 0.69439 0.9724 0.0
C405 C 0.99367 0.6409 0.95039 0.0
N406 N 0.98729 0.53388 0.94531 0.0
N407 N 1.00798 0.74102 0.03372 0.0
C408 C 0.99912 0.58515 0.96671 0.0
C409 C 1.00974 0.6913 0.01178 0.0
N410 N 1.03396 0.5329 0.02078 0.0
N411 N 1.0075 0.7481 0.95551 0.0
H412 H 1.01346 0.74075 0.06254 0.0
H413 H 0.99692 0.7816 0.02364 0.0
H414 H 1.00204 0.75192 0.92674 0.0
H415 H 1.0211 0.78868 0.96959 0.0
H416 H 1.04082 0.49528 0.00513 0.0
H417 H 0.04945 0.53104 0.04872 0.0
H418 H 0.98322 0.49154 0.95631 0.0
H419 H 0.97763 0.53371 0.91656 0.0
C420 C 0.52539 1.05926 0.3882 0.0
C421 C 0.53282 0.11633 0.40625 0.0
C422 C 0.54983 0.16295 0.34656 0.0
C423 C 0.54765 0.10556 0.32941 0.0
N424 N 0.54696 0.99936 0.33543 0.0
N425 N 0.56226 0.22222 0.40405 0.0
C426 C 0.53973 1.05378 0.35077 0.0
C427 C 0.54781 0.16823 0.38582 0.0
N428 N 0.50115 1.0106 0.4061 0.0
N429 N 0.55184 0.21224 0.32525 0.0
H430 H 0.56099 0.2279 0.43269 0.0
H431 H 0.58029 0.26041 0.39131 0.0
H432 H 0.55422 0.21011 0.29652 0.0
H433 H 0.5466 0.25461 0.3356 0.0
H434 H 0.48912 0.96887 0.3931 0.0
H435 H 0.48644 1.01345 0.43272 0.0
H436 H 0.54792 0.961 0.35083 0.0
H437 H 0.55808 0.99356 0.30811 0.0
C438 C 0.56639 0.59513 0.69918 0.0
C439 C 0.51998 0.63074 0.7076 0.0
C440 C 0.48869 0.63368 0.64108 0.0
C441 C 0.5419 0.60699 0.63281 0.0
N442 N 0.63831 0.57344 0.65501 0.0
N443 N 0.43967 0.68925 0.68631 0.0
C444 C 0.58271 0.59074 0.66216 0.0
C445 C 0.48172 0.65153 0.67846 0.0
N446 N 0.59338 0.56349 0.72624 0.0
N447 N 0.44368 0.63976 0.61363 0.0
H448 H 0.432 0.70184 0.71337 0.0
H449 H 0.41547 0.71112 0.6659 0.0
H450 H 0.44594 0.6253 0.5862 0.0
H451 H 0.40147 0.65364 0.61879 0.0
H452 H 0.62344 0.53236 0.72085 0.0
H453 H 0.5806 0.56402 0.75335 0.0
H454 H 0.67182 0.56654 0.67599 0.0
H455 H 0.65349 0.57223 0.62838 0.0
C456 C 0.70035 0.16135 0.63594 0.0
C457 C 0.64267 0.13041 0.62332 0.0
C458 C 0.62249 0.10845 0.68779 0.0
C459 C 0.68393 0.13116 0.69952 0.0
N460 N 0.78427 0.17254 0.68383 0.0
N461 N 0.54987 1.07066 0.63641 0.0
C462 C 0.72358 0.15622 0.67337 0.0
C463 C 0.60369 1.10328 0.64906 0.0
N464 N 0.73253 0.19647 0.61217 0.0
N465 N 0.5818 1.0933 0.71364 0.0
H466 H 0.53451 1.06717 0.60833 0.0
H467 H 0.52265 1.04414 0.6533 0.0
H468 H 0.59388 1.09714 0.74216 0.0
H469 H 0.53502 1.08203 0.70698 0.0
H470 H 0.77206 0.22469 0.62064 0.0
H471 H 0.71618 0.20215 0.58471 0.0
H472 H 0.81662 0.18485 0.66505 0.0
H473 H 0.80365 0.16862 0.71082 0.0
C474 C 0.4948 0.60767 0.95283 0.0
C475 C 0.51345 0.65582 0.93026 0.0
C476 C 0.54719 0.71843 0.986 0.0
C477 C 0.53855 0.66719 0.00791 0.0
N478 N 0.5052 0.56262 0.01295 0.0
N479 N 0.55355 0.75824 0.92423 0.0
C480 C 0.51184 0.61181 0.99162 0.0
C481 C 0.53757 0.71198 0.94655 0.0
N482 N 0.45956 0.55857 0.9371 0.0
N483 N 0.56437 0.773 0.00306 0.0
H484 H 0.54458 0.75522 0.89544 0.0
H485 H 0.57776 0.79855 0.93375 0.0
H486 H 0.57226 0.77885 0.03185 0.0
H487 H 0.56648 0.81299 0.98924 0.0
H488 H 0.43971 0.52406 0.95235 0.0
H489 H 0.44482 0.55528 0.90888 0.0
H490 H 0.49303 0.51956 0.00199 0.0
H491 H 0.51558 0.56425 0.04166 0.0
C492 C 0.10474 0.70904 0.26852 0.0
C493 C 0.0485 0.68492 0.24947 0.0
C494 C 1.00661 0.66228 0.30908 0.0
C495 C 0.06505 0.68052 0.32787 0.0
N496 N 0.1741 0.70374 0.32313 0.0
N497 N 0.95219 0.62375 0.2512 0.0
C498 C 0.11554 0.69862 0.30688 0.0
C499 C 1.00121 0.657 0.26962 0.0
N500 N 0.14705 0.74383 0.25052 0.0
N501 N 0.9558 0.65261 0.32849 0.0
H502 H 0.94945 0.61608 0.22252 0.0
H503 H 0.91866 0.59837 0.2647 0.0
H504 H 0.9571 0.65869 0.35726 0.0
H505 H 0.91154 0.64451 0.3156 0.0
H506 H 0.18607 0.76727 0.26428 0.0
H507 H 0.14047 0.75343 0.22249 0.0
H508 H 0.21252 0.71194 0.30807 0.0
H509 H 0.18443 0.69296 0.35067 0.0
loop_
_geom_bond_atom_site_label_1
_geom_bond_atom_site_label_2
_geom_bond_distance
_geom_bond_site_symmetry_2
_ccdc_geom_bond_type
Pr0 C2 2.880 . S
Pr0 O20 2.562 . S
Pr0 O21 2.490 . S
Pr0 O22 2.695 1_655 S
Pr0 O23 2.512 . S
Pr0 O25 2.437 . S
Pr0 O28 2.436 1_655 S
Pr0 O30 2.438 1_655 S
Pr1 C11 2.880 . S
Pr1 O22 2.436 . S
Pr1 O24 2.438 1_455 S
Pr1 O26 2.562 . S
Pr1 O27 2.490 . S
Pr1 O28 2.695 . S
Pr1 O29 2.512 . S
Pr1 O31 2.437 . S
C2 Pr0 2.880 . S
C2 C3 1.491 . S
C2 O20 1.254 . S
C2 O21 1.225 . S
C3 C2 1.491 . S
C3 C4 1.392 . S
C3 C8 1.356 . S
C4 C3 1.392 . S
C4 C5 1.368 . S
C4 H32 0.929 . S
C5 C4 1.368 . S
C5 C6 1.386 . S
C5 H33 0.929 . S
C6 C5 1.386 . S
C6 C7 1.373 . S
C7 C6 1.373 . S
C7 C8 1.409 . S
C7 H34 0.931 . S
C8 C3 1.356 . S
C8 C7 1.409 . S
C8 H35 0.930 . S
C9 O22 1.270 . S
C9 O23 1.248 1_455 S
C10 O24 1.267 . S
C10 O25 1.278 . S
C11 Pr1 2.880 . S
C11 C12 1.491 . S
C11 O26 1.254 . S
C11 O27 1.225 . S
C12 C11 1.491 . S
C12 C13 1.392 . S
C12 C17 1.356 . S
C13 C12 1.392 . S
C13 C14 1.368 . S
C13 H36 0.929 . S
C14 C13 1.368 . S
C14 C15 1.386 . S
C14 H37 0.929 . S
C15 C14 1.386 . S
C15 C16 1.373 . S
C16 C15 1.373 . S
C16 C17 1.409 . S
C16 H38 0.931 . S
C17 C12 1.356 . S
C17 C16 1.409 . S
C17 H39 0.930 . S
C18 O28 1.270 . S
C18 O29 1.248 . S
C19 O30 1.267 . S
C19 O31 1.278 . S
O20 Pr0 2.562 . S
O20 C2 1.254 . S
O21 Pr0 2.490 . S
O21 C2 1.225 . S
O22 Pr0 2.695 1_455 S
O22 Pr1 2.436 . S
O22 C9 1.270 . S
O23 Pr0 2.512 . S
O23 C9 1.248 1_655 S
O24 Pr1 2.438 1_655 S
O24 C10 1.267 . S
O25 Pr0 2.437 . S
O25 C10 1.278 . S
O26 Pr1 2.562 . S
O26 C11 1.254 . S
O27 Pr1 2.490 . S
O27 C11 1.225 . S
O28 Pr0 2.436 1_455 S
O28 Pr1 2.695 . S
O28 C18 1.270 . S
O29 Pr1 2.512 . S
O29 C18 1.248 . S
O30 Pr0 2.438 1_455 S
O30 C19 1.267 . S
O31 Pr1 2.437 . S
O31 C19 1.278 . S
H32 C4 0.929 . S
H33 C5 0.929 . S
H34 C7 0.931 . S
H35 C8 0.930 . S
H36 C13 0.929 . S
H37 C14 0.929 . S
H38 C16 0.931 . S
H39 C17 0.930 . S
Pr40 C42 2.880 . S
Pr40 O60 2.562 . S
Pr40 O61 2.490 . S
Pr40 O62 2.695 . S
Pr40 O63 2.512 . S
Pr40 O65 2.437 . S
Pr40 O68 2.436 . S
Pr40 O70 2.438 1_545 S
Pr41 C51 2.880 1_545 S
Pr41 O62 2.436 . S
Pr41 O64 2.438 . S
Pr41 O66 2.562 1_545 S
Pr41 O67 2.490 1_545 S
Pr41 O68 2.695 . S
Pr41 O69 2.512 . S
Pr41 O71 2.437 1_545 S
C42 Pr40 2.880 . S
C42 C43 1.491 . S
C42 O60 1.254 . S
C42 O61 1.225 . S
C43 C42 1.491 . S
C43 C44 1.392 . S
C43 C48 1.356 . S
C44 C43 1.392 . S
C44 C45 1.368 . S
C44 H72 0.929 . S
C45 C44 1.368 . S
C45 C46 1.386 . S
C45 H73 0.929 . S
C46 C45 1.386 . S
C46 C47 1.373 . S
C47 C46 1.373 . S
C47 C48 1.409 . S
C47 H74 0.931 . S
C48 C43 1.356 . S
C48 C47 1.409 . S
C48 H75 0.930 . S
C49 O62 1.270 . S
C49 O63 1.248 . S
C50 O64 1.267 . S
C50 O65 1.278 . S
C51 Pr41 2.880 1_565 S
C51 C52 1.491 . S
C51 O66 1.254 . S
C51 O67 1.225 . S
C52 C51 1.491 . S
C52 C53 1.392 . S
C52 C57 1.356 . S
C53 C52 1.392 . S
C53 C54 1.368 . S
C53 H76 0.929 . S
C54 C53 1.368 . S
C54 C55 1.386 . S
C54 H77 0.929 . S
C55 C54 1.386 . S
C55 C56 1.373 . S
C56 C55 1.373 . S
C56 C57 1.409 . S
C56 H78 0.931 . S
C57 C52 1.356 . S
C57 C56 1.409 . S
C57 H79 0.930 . S
C58 O68 1.270 . S
C58 O69 1.248 . S
C59 O70 1.267 . S
C59 O71 1.278 . S
O60 Pr40 2.562 . S
O60 C42 1.254 . S
O61 Pr40 2.490 . S
O61 C42 1.225 . S
O62 Pr40 2.695 . S
O62 Pr41 2.436 . S
O62 C49 1.270 . S
O63 Pr40 2.512 . S
O63 C49 1.248 . S
O64 Pr41 2.438 . S
O64 C50 1.267 . S
O65 Pr40 2.437 . S
O65 C50 1.278 . S
O66 Pr41 2.562 1_565 S
O66 C51 1.254 . S
O67 Pr41 2.490 1_565 S
O67 C51 1.225 . S
O68 Pr40 2.436 . S
O68 Pr41 2.695 . S
O68 C58 1.270 . S
O69 Pr41 2.512 . S
O69 C58 1.248 . S
O70 Pr40 2.438 1_565 S
O70 C59 1.267 . S
O71 Pr41 2.437 1_565 S
O71 C59 1.278 . S
H72 C44 0.929 . S
H73 C45 0.929 . S
H74 C47 0.931 . S
H75 C48 0.930 . S
H76 C53 0.929 . S
H77 C54 0.929 . S
H78 C56 0.931 . S
H79 C57 0.930 . S
Pr80 C82 2.880 . S
Pr80 O100 2.562 . S
Pr80 O101 2.490 . S
Pr80 O102 2.695 . S
Pr80 O103 2.512 . S
Pr80 O105 2.437 . S
Pr80 O108 2.436 . S
Pr80 O110 2.438 . S
Pr81 C91 2.880 . S
Pr81 O102 2.436 . S
Pr81 O104 2.438 . S
Pr81 O106 2.562 . S
Pr81 O107 2.490 . S
Pr81 O108 2.695 . S
Pr81 O109 2.512 . S
Pr81 O111 2.437 . S
C82 Pr80 2.880 . S
C82 C83 1.491 . S
C82 O100 1.254 . S
C82 O101 1.225 . S
C83 C82 1.491 . S
C83 C84 1.392 . S
C83 C88 1.356 . S
C84 C83 1.392 . S
C84 C85 1.368 . S
C84 H112 0.929 . S
C85 C84 1.368 . S
C85 C86 1.386 . S
C85 H113 0.929 . S
C86 C85 1.386 . S
C86 C87 1.373 . S
C87 C86 1.373 . S
C87 C88 1.409 . S
C87 H114 0.931 . S
C88 C83 1.356 . S
C88 C87 1.409 . S
C88 H115 0.930 . S
C89 O102 1.270 . S
C89 O103 1.248 . S
C90 O104 1.267 . S
C90 O105 1.278 . S
C91 Pr81 2.880 . S
C91 C92 1.491 . S
C91 O106 1.254 . S
C91 O107 1.225 . S
C92 C91 1.491 . S
C92 C93 1.392 . S
C92 C97 1.356 . S
C93 C92 1.392 . S
C93 C94 1.368 . S
C93 H116 0.929 . S
C94 C93 1.368 . S
C94 C95 1.386 . S
C94 H117 0.929 . S
C95 C94 1.386 . S
C95 C96 1.373 . S
C96 C95 1.373 . S
C96 C97 1.409 . S
C96 H118 0.931 . S
C97 C92 1.356 . S
C97 C96 1.409 . S
C97 H119 0.930 . S
C98 O108 1.270 . S
C98 O109 1.248 . S
C99 O110 1.267 . S
C99 O111 1.278 . S
O100 Pr80 2.562 . S
O100 C82 1.254 . S
O101 Pr80 2.490 . S
O101 C82 1.225 . S
O102 Pr80 2.695 . S
O102 Pr81 2.436 . S
O102 C89 1.270 . S
O103 Pr80 2.512 . S
O103 C89 1.248 . S
O104 Pr81 2.438 . S
O104 C90 1.267 . S
O105 Pr80 2.437 . S
O105 C90 1.278 . S
O106 Pr81 2.562 . S
O106 C91 1.254 . S
O107 Pr81 2.490 . S
O107 C91 1.225 . S
O108 Pr80 2.436 . S
O108 Pr81 2.695 . S
O108 C98 1.270 . S
O109 Pr81 2.512 . S
O109 C98 1.248 . S
O110 Pr80 2.438 . S
O110 C99 1.267 . S
O111 Pr81 2.437 . S
O111 C99 1.278 . S
H112 C84 0.929 . S
H113 C85 0.929 . S
H114 C87 0.931 . S
H115 C88 0.930 . S
H116 C93 0.929 . S
H117 C94 0.929 . S
H118 C96 0.931 . S
H119 C97 0.930 . S
H120 C123 0.928 1_565 S
H121 C126 0.929 . S
H122 C128 0.930 . S
C123 H120 0.928 1_545 S
C123 C124 1.398 1_545 S
C123 C125 1.397 . S
C124 C123 1.398 1_565 S
C124 C128 1.407 1_565 S
C125 C123 1.397 . S
C125 C126 1.394 . S
C126 H121 0.929 . S
C126 C125 1.394 . S
C126 C127 1.382 . S
C127 C126 1.382 . S
C127 C128 1.392 . S
C127 N129 1.420 . S
C128 H122 0.930 . S
C128 C124 1.407 1_545 S
C128 C127 1.392 . S
N129 C127 1.420 . S
N129 C130 1.244 . S
C130 N129 1.244 . S
H131 C134 0.929 . S
H132 C137 0.929 . S
H133 C139 0.930 . S
C134 H131 0.929 . S
C134 C135 1.398 . S
C134 C136 1.396 . S
C135 C134 1.398 . S
C135 C139 1.407 . S
C136 C134 1.396 . S
C136 C137 1.394 . S
C137 H132 0.929 . S
C137 C136 1.394 . S
C137 C138 1.382 . S
C138 C137 1.382 . S
C138 C139 1.392 . S
C138 N140 1.420 . S
C139 H133 0.930 . S
C139 C135 1.407 . S
C139 C138 1.392 . S
N140 C138 1.420 . S
N140 C141 1.244 . S
C141 N140 1.244 . S
H142 C145 0.929 . S
H143 C148 0.929 . S
H144 C150 0.930 . S
C145 H142 0.929 . S
C145 C146 1.398 . S
C145 C147 1.396 1_655 S
C146 C145 1.398 . S
C146 C150 1.407 . S
C147 C145 1.396 1_455 S
C147 C148 1.394 . S
C148 H143 0.929 . S
C148 C147 1.394 . S
C148 C149 1.382 . S
C149 C148 1.382 . S
C149 C150 1.392 1_455 S
C149 N151 1.420 . S
C150 H144 0.930 . S
C150 C146 1.407 . S
C150 C149 1.392 1_655 S
N151 C149 1.420 . S
N151 C152 1.244 . S
C152 N151 1.244 . S
H153 C156 0.929 . S
H154 C159 0.929 . S
H155 C161 0.930 . S
C156 H153 0.929 . S
C156 C157 1.398 . S
C156 C158 1.396 . S
C157 C156 1.398 . S
C157 C161 1.407 . S
C158 C156 1.396 . S
C158 C159 1.394 1_455 S
C159 H154 0.929 . S
C159 C158 1.394 1_655 S
C159 C160 1.382 1_655 S
C160 C159 1.382 1_455 S
C160 C161 1.392 . S
C160 N162 1.420 1_455 S
C161 H155 0.930 . S
C161 C157 1.407 . S
C161 C160 1.392 . S
N162 C160 1.420 1_655 S
N162 C163 1.244 . S
C163 N162 1.244 . S
H164 C167 0.929 . S
H165 C170 0.929 . S
H166 C172 0.930 . S
C167 H164 0.929 . S
C167 C168 1.398 . S
C167 C169 1.396 . S
C168 C167 1.398 . S
C168 C172 1.407 . S
C169 C167 1.396 . S
C169 C170 1.394 1_545 S
C170 H165 0.929 . S
C170 C169 1.394 1_565 S
C170 C171 1.382 1_565 S
C171 C170 1.382 1_545 S
C171 C172 1.392 . S
C171 N173 1.420 1_545 S
C172 H166 0.930 . S
C172 C168 1.407 . S
C172 C171 1.392 . S
N173 C171 1.420 1_565 S
N173 C174 1.244 . S
C174 N173 1.244 . S
H175 C178 0.929 . S
H176 C181 0.929 . S
H177 C183 0.930 . S
C178 H175 0.929 . S
C178 C179 1.398 . S
C178 C180 1.396 . S
C179 C178 1.398 . S
C179 C183 1.407 . S
C180 C178 1.396 . S
C180 C181 1.394 . S
C181 H176 0.929 . S
C181 C180 1.394 . S
C181 C182 1.382 . S
C182 C181 1.382 . S
C182 C183 1.392 . S
C182 N184 1.420 . S
C183 H177 0.930 . S
C183 C179 1.407 . S
C183 C182 1.392 . S
N184 C182 1.420 . S
N184 C185 1.244 . S
C185 N184 1.244 . S
C186 C187 1.363 . S
C186 C192 1.379 . S
C186 N194 1.356 . S
C187 C186 1.363 . S
C187 C193 1.363 . S
C188 C189 1.363 . S
C188 C193 1.379 . S
C188 N195 1.356 . S
C189 C188 1.363 . S
C189 C192 1.363 . S
N190 C192 1.356 . S
N190 H202 0.984 . S
N190 H203 0.985 . S
N191 C193 1.356 . S
N191 H196 0.984 . S
N191 H197 0.985 . S
C192 C186 1.379 . S
C192 C189 1.363 . S
C192 N190 1.356 . S
C193 C187 1.363 . S
C193 C188 1.379 . S
C193 N191 1.356 . S
N194 C186 1.356 . S
N194 H200 0.984 . S
N194 H201 0.984 . S
N195 C188 1.356 . S
N195 H198 0.984 . S
N195 H199 0.985 . S
H196 N191 0.984 . S
H197 N191 0.985 . S
H198 N195 0.984 . S
H199 N195 0.985 . S
H200 N194 0.984 . S
H201 N194 0.984 . S
H202 N190 0.984 . S
H203 N190 0.985 . S
C204 C205 1.363 . S
C204 C210 1.379 . S
C204 N212 1.356 . S
C205 C204 1.363 . S
C205 C211 1.363 . S
C206 C207 1.363 . S
C206 C211 1.379 . S
C206 N213 1.356 . S
C207 C206 1.363 . S
C207 C210 1.363 . S
N208 C210 1.356 . S
N208 H220 0.984 . S
N208 H221 0.985 . S
N209 C211 1.356 . S
N209 H214 0.984 . S
N209 H215 0.985 . S
C210 C204 1.379 . S
C210 C207 1.363 . S
C210 N208 1.356 . S
C211 C205 1.363 . S
C211 C206 1.379 . S
C211 N209 1.356 . S
N212 C204 1.356 . S
N212 H218 0.984 . S
N212 H219 0.984 . S
N213 C206 1.356 . S
N213 H216 0.984 . S
N213 H217 0.985 . S
H214 N209 0.984 . S
H215 N209 0.985 . S
H216 N213 0.984 . S
H217 N213 0.985 . S
H218 N212 0.984 . S
H219 N212 0.984 . S
H220 N208 0.984 . S
H221 N208 0.985 . S
C222 C223 1.363 . S
C222 C228 1.379 . S
C222 N230 1.356 . S
C223 C222 1.363 . S
C223 C229 1.363 . S
C224 C225 1.363 . S
C224 C229 1.379 . S
C224 N231 1.356 . S
C225 C224 1.363 . S
C225 C228 1.363 . S
N226 C228 1.356 . S
N226 H238 0.984 . S
N226 H239 0.985 . S
N227 C229 1.356 . S
N227 H232 0.984 . S
N227 H233 0.985 . S
C228 C222 1.379 . S
C228 C225 1.363 . S
C228 N226 1.356 . S
C229 C223 1.363 . S
C229 C224 1.379 . S
C229 N227 1.356 . S
N230 C222 1.356 . S
N230 H236 0.984 . S
N230 H237 0.984 . S
N231 C224 1.356 . S
N231 H234 0.984 . S
N231 H235 0.985 . S
H232 N227 0.984 . S
H233 N227 0.985 . S
H234 N231 0.984 . S
H235 N231 0.985 . S
H236 N230 0.984 . S
H237 N230 0.984 . S
H238 N226 0.984 . S
H239 N226 0.985 . S
C240 C241 1.363 . S
C240 C246 1.379 . S
C240 N248 1.356 . S
C241 C240 1.363 . S
C241 C247 1.363 . S
C242 C243 1.363 . S
C242 C247 1.379 . S
C242 N249 1.356 . S
C243 C242 1.363 . S
C243 C246 1.363 . S
N244 C246 1.356 . S
N244 H256 0.984 . S
N244 H257 0.985 . S
N245 C247 1.356 . S
N245 H250 0.984 . S
N245 H251 0.985 . S
C246 C240 1.379 . S
C246 C243 1.363 . S
C246 N244 1.356 . S
C247 C241 1.363 . S
C247 C242 1.379 . S
C247 N245 1.356 . S
N248 C240 1.356 . S
N248 H254 0.984 . S
N248 H255 0.984 . S
N249 C242 1.356 . S
N249 H252 0.984 . S
N249 H253 0.985 . S
H250 N245 0.984 . S
H251 N245 0.985 . S
H252 N249 0.984 . S
H253 N249 0.985 . S
H254 N248 0.984 . S
H255 N248 0.984 . S
H256 N244 0.984 . S
H257 N244 0.985 . S
C258 C259 1.363 . S
C258 C264 1.379 . S
C258 N266 1.356 . S
C259 C258 1.363 . S
C259 C265 1.363 . S
C260 C261 1.363 . S
C260 C265 1.379 . S
C260 N267 1.356 . S
C261 C260 1.363 . S
C261 C264 1.363 . S
N262 C264 1.356 . S
N262 H274 0.984 . S
N262 H275 0.985 . S
N263 C265 1.356 . S
N263 H268 0.984 . S
N263 H269 0.985 . S
C264 C258 1.379 . S
C264 C261 1.363 . S
C264 N262 1.356 . S
C265 C259 1.363 . S
C265 C260 1.379 . S
C265 N263 1.356 . S
N266 C258 1.356 . S
N266 H272 0.984 . S
N266 H273 0.984 . S
N267 C260 1.356 . S
N267 H270 0.984 . S
N267 H271 0.985 . S
H268 N263 0.984 . S
H269 N263 0.985 . S
H270 N267 0.984 . S
H271 N267 0.985 . S
H272 N266 0.984 . S
H273 N266 0.984 . S
H274 N262 0.984 . S
H275 N262 0.985 . S
C276 C277 1.363 . S
C276 C282 1.379 . S
C276 N284 1.356 . S
C277 C276 1.363 . S
C277 C283 1.363 . S
C278 C279 1.363 . S
C278 C283 1.379 . S
C278 N285 1.356 . S
C279 C278 1.363 . S
C279 C282 1.363 . S
N280 C282 1.356 . S
N280 H292 0.984 . S
N280 H293 0.985 . S
N281 C283 1.356 . S
N281 H286 0.984 . S
N281 H287 0.985 . S
C282 C276 1.379 . S
C282 C279 1.363 . S
C282 N280 1.356 . S
C283 C277 1.363 . S
C283 C278 1.379 . S
C283 N281 1.356 . S
N284 C276 1.356 . S
N284 H290 0.984 . S
N284 H291 0.984 . S
N285 C278 1.356 . S
N285 H288 0.984 . S
N285 H289 0.985 . S
H286 N281 0.984 . S
H287 N281 0.985 . S
H288 N285 0.984 . S
H289 N285 0.985 . S
H290 N284 0.984 . S
H291 N284 0.984 . S
H292 N280 0.984 . S
H293 N280 0.985 . S
C294 C295 1.363 . S
C294 C300 1.379 . S
C294 N302 1.356 . S
C295 C294 1.363 . S
C295 C301 1.363 . S
C296 C297 1.363 . S
C296 C301 1.379 . S
C296 N303 1.356 . S
C297 C296 1.363 . S
C297 C300 1.363 . S
N298 C300 1.356 . S
N298 H310 0.984 . S
N298 H311 0.985 . S
N299 C301 1.356 . S
N299 H304 0.984 . S
N299 H305 0.985 . S
C300 C294 1.379 . S
C300 C297 1.363 . S
C300 N298 1.356 . S
C301 C295 1.363 . S
C301 C296 1.379 . S
C301 N299 1.356 . S
N302 C294 1.356 . S
N302 H308 0.984 . S
N302 H309 0.984 . S
N303 C296 1.356 . S
N303 H306 0.984 . S
N303 H307 0.985 . S
H304 N299 0.984 . S
H305 N299 0.985 . S
H306 N303 0.984 . S
H307 N303 0.985 . S
H308 N302 0.984 . S
H309 N302 0.984 . S
H310 N298 0.984 . S
H311 N298 0.985 . S
C312 C313 1.363 . S
C312 C318 1.379 . S
C312 N320 1.356 . S
C313 C312 1.363 . S
C313 C319 1.363 . S
C314 C315 1.363 . S
C314 C319 1.379 . S
C314 N321 1.356 . S
C315 C314 1.363 . S
C315 C318 1.363 . S
N316 C318 1.356 . S
N316 H328 0.984 . S
N316 H329 0.985 . S
N317 C319 1.356 . S
N317 H322 0.984 . S
N317 H323 0.985 . S
C318 C312 1.379 . S
C318 C315 1.363 . S
C318 N316 1.356 . S
C319 C313 1.363 . S
C319 C314 1.379 . S
C319 N317 1.356 . S
N320 C312 1.356 . S
N320 H326 0.984 . S
N320 H327 0.984 . S
N321 C314 1.356 . S
N321 H324 0.984 . S
N321 H325 0.985 . S
H322 N317 0.984 . S
H323 N317 0.985 . S
H324 N321 0.984 . S
H325 N321 0.985 . S
H326 N320 0.984 . S
H327 N320 0.984 . S
H328 N316 0.984 . S
H329 N316 0.985 . S
C330 C331 1.363 . S
C330 C336 1.379 . S
C330 N338 1.356 . S
C331 C330 1.363 . S
C331 C337 1.363 . S
C332 C333 1.363 . S
C332 C337 1.379 . S
C332 N339 1.356 . S
C333 C332 1.363 . S
C333 C336 1.363 . S
N334 C336 1.356 . S
N334 H346 0.984 . S
N334 H347 0.985 . S
N335 C337 1.356 . S
N335 H340 0.984 . S
N335 H341 0.985 . S
C336 C330 1.379 . S
C336 C333 1.363 . S
C336 N334 1.356 . S
C337 C331 1.363 . S
C337 C332 1.379 . S
C337 N335 1.356 . S
N338 C330 1.356 . S
N338 H344 0.984 . S
N338 H345 0.984 . S
N339 C332 1.356 . S
N339 H342 0.984 1_565 S
N339 H343 0.985 . S
H340 N335 0.984 . S
H341 N335 0.985 . S
H342 N339 0.984 1_545 S
H343 N339 0.985 . S
H344 N338 0.984 . S
H345 N338 0.984 . S
H346 N334 0.984 . S
H347 N334 0.985 . S
C348 C349 1.363 . S
C348 C354 1.379 . S
C348 N356 1.356 . S
C349 C348 1.363 . S
C349 C355 1.363 . S
C350 C351 1.363 . S
C350 C355 1.379 . S
C350 N357 1.356 . S
C351 C350 1.363 . S
C351 C354 1.363 . S
N352 C354 1.356 . S
N352 H364 0.984 . S
N352 H365 0.985 . S
N353 C355 1.356 . S
N353 H358 0.984 . S
N353 H359 0.985 . S
C354 C348 1.379 . S
C354 C351 1.363 . S
C354 N352 1.356 . S
C355 C349 1.363 . S
C355 C350 1.379 . S
C355 N353 1.356 . S
N356 C348 1.356 . S
N356 H362 0.984 . S
N356 H363 0.984 . S
N357 C350 1.356 . S
N357 H360 0.984 . S
N357 H361 0.985 . S
H358 N353 0.984 . S
H359 N353 0.985 . S
H360 N357 0.984 . S
H361 N357 0.985 . S
H362 N356 0.984 . S
H363 N356 0.984 . S
H364 N352 0.984 . S
H365 N352 0.985 . S
C366 C367 1.363 . S
C366 C372 1.379 . S
C366 N374 1.356 . S
C367 C366 1.363 . S
C367 C373 1.363 . S
C368 C369 1.363 . S
C368 C373 1.379 . S
C368 N375 1.356 . S
C369 C368 1.363 . S
C369 C372 1.363 . S
N370 C372 1.356 . S
N370 H382 0.984 . S
N370 H383 0.985 . S
N371 C373 1.356 . S
N371 H376 0.984 . S
N371 H377 0.985 . S
C372 C366 1.379 . S
C372 C369 1.363 . S
C372 N370 1.356 . S
C373 C367 1.363 . S
C373 C368 1.379 . S
C373 N371 1.356 . S
N374 C366 1.356 . S
N374 H380 0.984 . S
N374 H381 0.984 . S
N375 C368 1.356 . S
N375 H378 0.984 . S
N375 H379 0.985 . S
H376 N371 0.984 . S
H377 N371 0.985 . S
H378 N375 0.984 . S
H379 N375 0.985 . S
H380 N374 0.984 . S
H381 N374 0.984 . S
H382 N370 0.984 . S
H383 N370 0.985 . S
C384 C385 1.363 . S
C384 C390 1.379 . S
C384 N392 1.356 . S
C385 C384 1.363 . S
C385 C391 1.363 . S
C386 C387 1.363 . S
C386 C391 1.379 . S
C386 N393 1.356 . S
C387 C386 1.363 . S
C387 C390 1.363 . S
N388 C390 1.356 . S
N388 H400 0.984 . S
N388 H401 0.985 . S
N389 C391 1.356 . S
N389 H394 0.984 . S
N389 H395 0.985 . S
C390 C384 1.379 . S
C390 C387 1.363 . S
C390 N388 1.356 . S
C391 C385 1.363 . S
C391 C386 1.379 . S
C391 N389 1.356 . S
N392 C384 1.356 . S
N392 H398 0.984 . S
N392 H399 0.984 . S
N393 C386 1.356 . S
N393 H396 0.984 . S
N393 H397 0.985 . S
H394 N389 0.984 . S
H395 N389 0.985 . S
H396 N393 0.984 . S
H397 N393 0.985 . S
H398 N392 0.984 . S
H399 N392 0.984 . S
H400 N388 0.984 . S
H401 N388 0.985 . S
C402 C403 1.363 . S
C402 C408 1.379 1_554 S
C402 N410 1.356 . S
C403 C402 1.363 . S
C403 C409 1.363 . S
C404 C405 1.363 . S
C404 C409 1.379 1_556 S
C404 N411 1.356 . S
C405 C404 1.363 . S
C405 C408 1.363 . S
N406 C408 1.356 . S
N406 H418 0.984 . S
N406 H419 0.985 . S
N407 C409 1.356 1_655 S
N407 H412 0.984 . S
N407 H413 0.985 . S
C408 C402 1.379 1_556 S
C408 C405 1.363 . S
C408 N406 1.356 . S
C409 C403 1.363 . S
C409 C404 1.379 1_554 S
C409 N407 1.356 1_455 S
N410 C402 1.356 . S
N410 H416 0.984 . S
N410 H417 0.984 . S
N411 C404 1.356 . S
N411 H414 0.984 . S
N411 H415 0.985 1_455 S
H412 N407 0.984 . S
H413 N407 0.985 . S
H414 N411 0.984 . S
H415 N411 0.985 1_655 S
H416 N410 0.984 . S
H417 N410 0.984 . S
H418 N406 0.984 . S
H419 N406 0.985 . S
C420 C421 1.363 . S
C420 C426 1.379 . S
C420 N428 1.356 1_545 S
C421 C420 1.363 . S
C421 C427 1.363 . S
C422 C423 1.363 . S
C422 C427 1.379 . S
C422 N429 1.356 . S
C423 C422 1.363 . S
C423 C426 1.363 . S
N424 C426 1.356 1_565 S
N424 H436 0.984 . S
N424 H437 0.985 . S
N425 C427 1.356 . S
N425 H430 0.984 . S
N425 H431 0.985 . S
C426 C420 1.379 . S
C426 C423 1.363 . S
C426 N424 1.356 1_545 S
C427 C421 1.363 . S
C427 C422 1.379 . S
C427 N425 1.356 . S
N428 C420 1.356 1_565 S
N428 H434 0.984 . S
N428 H435 0.984 . S
N429 C422 1.356 . S
N429 H432 0.984 . S
N429 H433 0.985 . S
H430 N425 0.984 . S
H431 N425 0.985 . S
H432 N429 0.984 . S
H433 N429 0.985 . S
H434 N428 0.984 . S
H435 N428 0.984 . S
H436 N424 0.984 . S
H437 N424 0.985 . S
C438 C439 1.363 . S
C438 C444 1.379 . S
C438 N446 1.356 . S
C439 C438 1.363 . S
C439 C445 1.363 . S
C440 C441 1.363 . S
C440 C445 1.379 . S
C440 N447 1.356 . S
C441 C440 1.363 . S
C441 C444 1.363 . S
N442 C444 1.356 . S
N442 H454 0.984 . S
N442 H455 0.985 . S
N443 C445 1.356 . S
N443 H448 0.984 . S
N443 H449 0.985 . S
C444 C438 1.379 . S
C444 C441 1.363 . S
C444 N442 1.356 . S
C445 C439 1.363 . S
C445 C440 1.379 . S
C445 N443 1.356 . S
N446 C438 1.356 . S
N446 H452 0.984 . S
N446 H453 0.984 . S
N447 C440 1.356 . S
N447 H450 0.984 . S
N447 H451 0.985 . S
H448 N443 0.984 . S
H449 N443 0.985 . S
H450 N447 0.984 . S
H451 N447 0.985 . S
H452 N446 0.984 . S
H453 N446 0.984 . S
H454 N442 0.984 . S
H455 N442 0.985 . S
C456 C457 1.363 . S
C456 C462 1.379 . S
C456 N464 1.356 . S
C457 C456 1.363 . S
C457 C463 1.363 . S
C458 C459 1.363 . S
C458 C463 1.379 . S
C458 N465 1.356 1_545 S
C459 C458 1.363 . S
C459 C462 1.363 . S
N460 C462 1.356 . S
N460 H472 0.984 . S
N460 H473 0.985 . S
N461 C463 1.356 1_565 S
N461 H466 0.984 . S
N461 H467 0.985 . S
C462 C456 1.379 . S
C462 C459 1.363 . S
C462 N460 1.356 . S
C463 C457 1.363 . S
C463 C458 1.379 . S
C463 N461 1.356 1_545 S
N464 C456 1.356 . S
N464 H470 0.984 . S
N464 H471 0.984 . S
N465 C458 1.356 1_565 S
N465 H468 0.984 . S
N465 H469 0.985 . S
H466 N461 0.984 . S
H467 N461 0.985 . S
H468 N465 0.984 . S
H469 N465 0.985 . S
H470 N464 0.984 . S
H471 N464 0.984 . S
H472 N460 0.984 . S
H473 N460 0.985 . S
C474 C475 1.363 . S
C474 C480 1.379 1_556 S
C474 N482 1.356 . S
C475 C474 1.363 . S
C475 C481 1.363 . S
C476 C477 1.363 . S
C476 C481 1.379 1_554 S
C476 N483 1.356 . S
C477 C476 1.363 . S
C477 C480 1.363 . S
N478 C480 1.356 . S
N478 H490 0.984 . S
N478 H491 0.985 . S
N479 C481 1.356 . S
N479 H484 0.984 . S
N479 H485 0.985 . S
C480 C474 1.379 1_554 S
C480 C477 1.363 . S
C480 N478 1.356 . S
C481 C475 1.363 . S
C481 C476 1.379 1_556 S
C481 N479 1.356 . S
N482 C474 1.356 . S
N482 H488 0.984 . S
N482 H489 0.984 . S
N483 C476 1.356 . S
N483 H486 0.984 . S
N483 H487 0.985 . S
H484 N479 0.984 . S
H485 N479 0.985 . S
H486 N483 0.984 . S
H487 N483 0.985 . S
H488 N482 0.984 . S
H489 N482 0.984 . S
H490 N478 0.984 . S
H491 N478 0.985 . S
C492 C493 1.363 . S
C492 C498 1.379 . S
C492 N500 1.356 . S
C493 C492 1.363 . S
C493 C499 1.363 1_455 S
C494 C495 1.363 1_655 S
C494 C499 1.379 . S
C494 N501 1.356 . S
C495 C494 1.363 1_455 S
C495 C498 1.363 . S
N496 C498 1.356 . S
N496 H508 0.984 . S
N496 H509 0.985 . S
N497 C499 1.356 . S
N497 H502 0.984 . S
N497 H503 0.985 . S
C498 C492 1.379 . S
C498 C495 1.363 . S
C498 N496 1.356 . S
C499 C493 1.363 1_655 S
C499 C494 1.379 . S
C499 N497 1.356 . S
N500 C492 1.356 . S
N500 H506 0.984 . S
N500 H507 0.984 . S
N501 C494 1.356 . S
N501 H504 0.984 . S
N501 H505 0.985 . S
H502 N497 0.984 . S
H503 N497 0.985 . S
H504 N501 0.984 . S
H505 N501 0.985 . S
H506 N500 0.984 . S
H507 N500 0.984 . S
H508 N496 0.984 . S
H509 N496 0.985 . S
C187 C19 1.972 . S
C189 C185 1.911 . S
C205 C46 1.371 . S
C207 C163 1.410 . S
C223 C95 0.792 . S
C225 C174 0.827 . S
C241 C10 1.915 . S
C243 C179 1.869 . S
C261 C157 1.325 . S
C259 C55 1.290 . S
C279 C168 0.900 . S
C277 C86 0.849 . S
C295 C59 3.176 . S
C297 C141 3.096 . S
C313 C90 1.945 . S
C315 C146 1.936 . S
C331 C15 1.238 . S
C333 C124 1.275 . S
C351 C135 3.003 . S
C349 C50 3.028 . S
C369 C152 1.935 . S
C367 C99 1.975 . S
C385 C6 1.352 . S
C387 C130 1.382 . S
C405 C147 1.454 . S
C403 C9 1.382 . S
C421 C58 1.521 . S
C423 C125 1.532 . S
C439 C98 1.705 . S
C441 C136 1.791 . S
C459 C169 1.139 . S
C457 C49 1.100 . S
C477 C180 1.432 . S
C475 C89 1.405 . S
C493 C18 1.502 . S
C495 C158 1.510 . S
