# Generated by pormake.
# Topology ssa, (4,4)-cn, num edge types: 1
# Building blocks:
#     Node 0, Type 0, BuildingBlock: NAWXER_clean_sbu_0, # of connection points: 4
#     Node 1, Type 0, BuildingBlock: NAWXER_clean_sbu_0, # of connection points: 4
#     Node 2, Type 0, BuildingBlock: NAWXER_clean_sbu_0, # of connection points: 4
#     Node 3, Type 0, BuildingBlock: NAWXER_clean_sbu_0, # of connection points: 4
#     Node 4, Type 0, BuildingBlock: NAWXER_clean_sbu_0, # of connection points: 4
#     Node 5, Type 0, BuildingBlock: NAWXER_clean_sbu_0, # of connection points: 4
#     Node 6, Type 1, BuildingBlock: GIZVER_clean_linker_0, # of connection points: 4
#     Node 7, Type 1, BuildingBlock: GIZVER_clean_linker_0, # of connection points: 4
#     Node 8, Type 1, BuildingBlock: GIZVER_clean_linker_0, # of connection points: 4
#     Node 9, Type 1, BuildingBlock: GIZVER_clean_linker_0, # of connection points: 4
#     Node 10, Type 1, BuildingBlock: GIZVER_clean_linker_0, # of connection points: 4
#     Node 11, Type 1, BuildingBlock: GIZVER_clean_linker_0, # of connection points: 4
#     Edge 12, Type (0, 1), BuildingBlock: EZIPEK_clean_linker_0, # of connection points: 2
#     Edge 13, Type (0, 1), BuildingBlock: EZIPEK_clean_linker_0, # of connection points: 2
#     Edge 14, Type (0, 1), BuildingBlock: EZIPEK_clean_linker_0, # of connection points: 2
#     Edge 15, Type (0, 1), BuildingBlock: EZIPEK_clean_linker_0, # of connection points: 2
#     Edge 16, Type (0, 1), BuildingBlock: EZIPEK_clean_linker_0, # of connection points: 2
#     Edge 17, Type (0, 1), BuildingBlock: EZIPEK_clean_linker_0, # of connection points: 2
#     Edge 18, Type (0, 1), BuildingBlock: EZIPEK_clean_linker_0, # of connection points: 2
#     Edge 19, Type (0, 1), BuildingBlock: EZIPEK_clean_linker_0, # of connection points: 2
#     Edge 20, Type (0, 1), BuildingBlock: EZIPEK_clean_linker_0, # of connection points: 2
#     Edge 21, Type (0, 1), BuildingBlock: EZIPEK_clean_linker_0, # of connection points: 2
#     Edge 22, Type (0, 1), BuildingBlock: EZIPEK_clean_linker_0, # of connection points: 2
#     Edge 23, Type (0, 1), BuildingBlock: EZIPEK_clean_linker_0, # of connection points: 2
#     Edge 24, Type (0, 1), BuildingBlock: EZIPEK_clean_linker_0, # of connection points: 2
#     Edge 25, Type (0, 1), BuildingBlock: EZIPEK_clean_linker_0, # of connection points: 2
#     Edge 26, Type (0, 1), BuildingBlock: EZIPEK_clean_linker_0, # of connection points: 2
#     Edge 27, Type (0, 1), BuildingBlock: EZIPEK_clean_linker_0, # of connection points: 2
#     Edge 28, Type (0, 1), BuildingBlock: EZIPEK_clean_linker_0, # of connection points: 2
#     Edge 29, Type (0, 1), BuildingBlock: EZIPEK_clean_linker_0, # of connection points: 2
#     Edge 30, Type (0, 1), BuildingBlock: EZIPEK_clean_linker_0, # of connection points: 2
#     Edge 31, Type (0, 1), BuildingBlock: EZIPEK_clean_linker_0, # of connection points: 2
#     Edge 32, Type (0, 1), BuildingBlock: EZIPEK_clean_linker_0, # of connection points: 2
#     Edge 33, Type (0, 1), BuildingBlock: EZIPEK_clean_linker_0, # of connection points: 2
#     Edge 34, Type (0, 1), BuildingBlock: EZIPEK_clean_linker_0, # of connection points: 2
#     Edge 35, Type (0, 1), BuildingBlock: EZIPEK_clean_linker_0, # of connection points: 2
# Relax obj value: 0.007
# Max RMSD: 0.038
# Mean RMSD: 0.029
data_MOF--net-ssa--node1-NAWXER_clean_sbu_0--node2-GIZVER_clean_linker_0--edge1-EZIPEK_clean_linker_0
_symmetry_space_group_name_H-M    P1
_symmetry_Int_Tables_number       1
_symmetry_cell_setting            triclinic
loop_
_symmetry_equiv_pos_as_xyz
'x, y, z'
_cell_length_a     38.676398
_cell_length_b     38.618029
_cell_length_c     21.013193
_cell_angle_alpha  90.061499
_cell_angle_beta   89.196601
_cell_angle_gamma 119.72958
loop_
_atom_site_label
_atom_site_type_symbol
_atom_site_fract_x
_atom_site_fract_y
_atom_site_fract_z
_atom_type_partial_charge
C0 C 0.06842 0.61812 0.02907 0.0
C1 C 0.97293 0.48546 0.94334 0.0
O2 O 0.03479 0.59399 0.05482 0.0
Zn3 Zn 0.0203 0.54986 -0.00529 0.0
O4 O 0.0805 0.60621 0.98147 0.0
Zn5 Zn 0.06142 0.55769 0.91753 0.0
O6 O 0.06162 0.58685 0.84082 0.0
O7 O 0.01725 0.58018 0.91357 0.0
O8 O 1.00586 0.50354 0.91196 0.0
O9 O 0.96838 0.50081 -0.00581 0.0
O10 O 0.06259 0.53197 0.01783 0.0
O11 O 0.10089 0.54117 0.93326 0.0
C12 C 0.03465 0.59439 0.86003 0.0
C13 C 0.09161 0.53023 0.99105 0.0
C14 C 0.4613 0.07753 0.51559 0.0
C15 C 0.51518 0.9994 0.41252 0.0
O16 O 0.46813 0.05513 0.55163 0.0
Zn17 Zn 0.49052 0.01597 0.54917 0.0
O18 O 0.46745 0.07829 0.45565 0.0
Zn19 Zn 0.48898 0.04149 0.45639 0.0
O20 O 0.43874 0.98549 0.47858 0.0
O21 O 0.44431 0.96458 0.57388 0.0
O22 O 0.50894 0.02458 0.38279 0.0
O23 O 0.51021 0.99559 0.47267 0.0
O24 O 0.53917 0.04686 0.59775 0.0
O25 O 0.54148 0.07686 0.50706 0.0
C26 C 0.42535 0.95867 0.52206 0.0
C27 C 0.5574 0.07637 0.55956 0.0
C28 C 0.5265 0.45607 0.01581 0.0
C29 C 0.56351 0.58985 0.08384 0.0
O30 O 0.5236 0.47693 0.97084 0.0
Zn31 Zn 0.5365 0.53783 0.95627 0.0
O32 O 0.54021 0.47171 0.06942 0.0
Zn33 Zn 0.54982 0.52411 0.04649 0.0
O34 O 0.48935 0.513 0.03317 0.0
O35 O 0.48425 0.52907 0.93397 0.0
O36 O 0.56826 0.56367 0.1126 0.0
O37 O 0.5524 0.58438 0.02578 0.0
O38 O 0.57809 0.55902 0.89144 0.0
O39 O 0.59837 0.54361 0.97891 0.0
C40 C 0.46876 0.51653 0.98889 0.0
C41 C 0.60483 0.55602 0.92108 0.0
C42 C 0.02223 0.50785 0.39476 0.0
C43 C 0.93409 0.3748 0.48572 0.0
O44 O 0.02684 0.5033 0.45346 0.0
Zn45 Zn 1.00412 0.46029 0.52575 0.0
O46 O 0.99456 0.47927 0.36379 0.0
Zn47 Zn 0.97627 0.43947 0.43286 0.0
O48 O 0.94672 0.46076 0.49242 0.0
O49 O 0.97925 0.48269 0.58217 0.0
O50 O 0.9347 0.38338 0.42699 0.0
O51 O 0.95892 0.40075 0.52372 0.0
O52 O 0.05317 0.45837 0.54132 0.0
O53 O 0.02996 0.43839 0.4447 0.0
C54 C 0.95029 0.47684 0.54675 0.0
C55 C 0.05725 0.44751 0.48561 0.0
C56 C 0.56219 0.96255 0.04796 0.0
C57 C 0.50377 0.0483 -0.0007 0.0
O58 O 0.56782 0.99266 0.08099 0.0
Zn59 Zn 0.53109 1.00513 0.03541 0.0
O60 O 0.53676 0.95094 0.00353 0.0
Zn61 Zn 0.49916 0.96676 0.95521 0.0
O62 O 0.52575 0.97889 0.87149 0.0
O63 O 0.5613 0.02081 0.94753 0.0
O64 O 0.492 0.0174 0.96457 0.0
O65 O 0.52526 0.05279 0.04755 0.0
O66 O 0.47469 0.95613 0.06048 0.0
O67 O 0.44625 0.9213 0.97424 0.0
C68 C 0.55753 0.00961 0.88978 0.0
C69 C 0.44534 0.92649 0.03397 0.0
C70 C 0.59232 0.51309 0.49443 0.0
C71 C 0.45995 0.47706 0.4248 0.0
O72 O 0.57142 0.51692 0.53899 0.0
Zn73 Zn 0.51107 0.50554 0.55248 0.0
O74 O 0.5771 0.49929 0.44072 0.0
Zn75 Zn 0.52501 0.49109 0.46267 0.0
O76 O 0.53656 0.55208 0.47491 0.0
O77 O 0.52027 0.55816 0.57405 0.0
O78 O 0.48631 0.4722 0.39615 0.0
O79 O 0.46511 0.4889 0.48266 0.0
O80 O 0.48857 0.46488 0.61773 0.0
O81 O 0.50332 0.44276 0.5306 0.0
C82 C 0.53297 0.57317 0.51903 0.0
C83 C 0.49048 0.43718 0.58836 0.0
H84 H 0.23178 0.5163 0.13579 0.0
H85 H 0.22859 0.49055 0.33588 0.0
H86 H 0.12263 0.47241 0.24327 0.0
H87 H 0.29065 0.55257 0.20082 0.0
H88 H 0.28965 0.54198 0.28288 0.0
H89 H 0.304 0.5143 0.11943 0.0
H90 H 0.38078 0.47295 0.19021 0.0
H91 H 0.30721 0.49404 0.32054 0.0
C92 C 0.21499 0.50385 0.17963 0.0
C93 C 0.17468 0.49345 0.18263 0.0
C94 C 0.23493 0.50355 0.23489 0.0
C95 C 0.21322 0.48938 0.2925 0.0
C96 C 0.17255 0.47777 0.29564 0.0
C97 C 0.15347 0.47961 0.24042 0.0
C98 C 0.27986 0.52749 0.23567 0.0
C99 C 0.30035 0.50365 0.22118 0.0
C100 C 0.31324 0.50251 0.15837 0.0
C101 C 0.3426 0.49169 0.14724 0.0
C102 C 0.35658 0.47915 0.19823 0.0
C103 C 0.34388 0.4798 0.26052 0.0
C104 C 0.31486 0.49087 0.27187 0.0
H105 H 0.7224 0.24508 0.68695 0.0
H106 H 0.71951 0.17997 0.85474 0.0
H107 H 0.66044 0.1173 0.68683 0.0
H108 H 0.7369 0.27313 0.80225 0.0
H109 H 0.75295 0.24983 0.85891 0.0
H110 H 0.79192 0.26063 0.69022 0.0
H111 H 0.90027 0.36859 0.72728 0.0
H112 H 0.81053 0.31668 0.87447 0.0
C113 C 0.71598 0.21723 0.70944 0.0
C114 C 0.69079 0.18102 0.6792 0.0
C115 C 0.73013 0.21725 0.77121 0.0
C116 C 0.71464 0.18044 0.80417 0.0
C117 C 0.68834 0.14463 0.7737 0.0
C118 C 0.68139 0.1452 0.70924 0.0
C119 C 0.75308 0.25622 0.80726 0.0
C120 C 0.79595 0.28411 0.78573 0.0
C121 C 0.80994 0.2836 0.7236 0.0
C122 C 0.8472 0.31417 0.70237 0.0
C123 C 0.87158 0.34483 0.74396 0.0
C124 C 0.85877 0.3456 0.80642 0.0
C125 C 0.82098 0.31526 0.82693 0.0
H126 H 0.54139 0.73968 0.20548 0.0
H127 H 0.53386 0.74078 0.41037 0.0
H128 H 0.57204 0.6665 0.31695 0.0
H129 H 0.49208 0.75249 0.26466 0.0
H130 H 0.49568 0.76028 0.34796 0.0
H131 H 0.56362 0.80801 0.20151 0.0
H132 H 0.56359 0.91785 0.23394 0.0
H133 H 0.51128 0.82519 0.37366 0.0
C134 C 0.54827 0.73235 0.25161 0.0
C135 C 0.56081 0.70393 0.25521 0.0
C136 C 0.53922 0.74676 0.30758 0.0
C137 C 0.54366 0.73259 0.36721 0.0
C138 C 0.55478 0.70304 0.37043 0.0
C139 C 0.56509 0.69049 0.31461 0.0
C140 C 0.51389 0.76666 0.30351 0.0
C141 C 0.53599 0.81122 0.29028 0.0
C142 C 0.55703 0.82657 0.23211 0.0
C143 C 0.56663 0.865 0.21122 0.0
C144 C 0.55726 0.88854 0.25018 0.0
C145 C 0.53869 0.87499 0.30887 0.0
C146 C 0.52786 0.83631 0.32934 0.0
H147 H 0.78495 0.5868 0.58773 0.0
H148 H 0.78768 0.6071 0.79034 0.0
H149 H 0.6761 0.54827 0.69329 0.0
H150 H 0.84556 0.63765 0.63672 0.0
H151 H 0.84611 0.64799 0.71973 0.0
H152 H 0.82431 0.55266 0.63021 0.0
H153 H 0.92494 0.55177 0.71122 0.0
H154 H 0.9051 0.64949 0.74931 0.0
C155 C 0.76967 0.58279 0.63308 0.0
C156 C 0.72809 0.56487 0.63484 0.0
C157 C 0.79162 0.5979 0.68915 0.0
C158 C 0.77116 0.59435 0.74725 0.0
C159 C 0.72935 0.57637 0.74866 0.0
C160 C 0.70826 0.56129 0.69257 0.0
C161 C 0.83651 0.62344 0.6846 0.0
C162 C 0.85882 0.60099 0.69565 0.0
C163 C 0.84904 0.56538 0.66262 0.0
C164 C 0.87403 0.5486 0.66661 0.0
C165 C 0.90612 0.56521 0.70761 0.0
C166 C 0.91827 0.60196 0.73605 0.0
C167 C 0.89477 0.62007 0.72964 0.0
H168 H 0.29915 0.77692 0.19543 0.0
H169 H 0.28583 0.78515 0.39809 0.0
H170 H 0.3711 0.88763 0.29136 0.0
H171 H 0.27562 0.71808 0.26762 0.0
H172 H 0.26613 0.72185 0.34979 0.0
H173 H 0.22607 0.75075 0.20526 0.0
H174 H 0.11169 0.64476 0.22476 0.0
H175 H 0.20104 0.66808 0.36128 0.0
C176 C 0.30598 0.79463 0.2383 0.0
C177 C 0.33612 0.83482 0.23619 0.0
C178 C 0.28724 0.77635 0.29651 0.0
C179 C 0.29847 0.79925 0.35255 0.0
C180 C 0.32896 0.83929 0.35092 0.0
C181 C 0.34706 0.857 0.29251 0.0
C182 C 0.2629 0.73126 0.30121 0.0
C183 C 0.219 0.7127 0.28617 0.0
C184 C 0.20591 0.72403 0.23152 0.0
C185 C 0.1672 0.69924 0.2087 0.0
C186 C 0.14134 0.66461 0.24247 0.0
C187 C 0.15283 0.6542 0.298 0.0
C188 C 0.1917 0.67782 0.31985 0.0
H189 H 0.44839 0.26072 0.92873 0.0
H190 H 0.42882 0.2545 0.72603 0.0
H191 H 0.49087 0.36804 0.81844 0.0
H192 H 0.39907 0.19903 0.88268 0.0
H193 H 0.38515 0.19744 0.80189 0.0
H194 H 0.44485 0.17597 0.91221 0.0
H195 H 0.47618 0.11664 0.76812 0.0
H196 H 0.42392 0.18774 0.71449 0.0
C197 C 0.4529 0.27519 0.88278 0.0
C198 C 0.47201 0.31691 0.87933 0.0
C199 C 0.43728 0.25224 0.82754 0.0
C200 C 0.4418 0.27172 0.76856 0.0
C201 C 0.46142 0.3136 0.76531 0.0
C202 C 0.4767 0.33575 0.82063 0.0
C203 C 0.41129 0.20752 0.83335 0.0
C204 C 0.43315 0.18554 0.81523 0.0
C205 C 0.44749 0.17013 0.86242 0.0
C206 C 0.46303 0.14517 0.84579 0.0
C207 C 0.46514 0.13661 0.78125 0.0
C208 C 0.45127 0.15217 0.73383 0.0
C209 C 0.43574 0.17686 0.751 0.0
C210 C 0.1092 0.48157 0.03952 0.0
C211 C 0.11748 0.52144 0.03166 0.0
C212 C 0.16698 0.54347 0.1165 0.0
C213 C 0.1563 0.50305 0.12824 0.0
N214 N 0.11734 0.43335 0.10285 0.0
N215 N 0.15255 0.59039 0.06295 0.0
C216 C 0.12753 0.472 0.08996 0.0
C217 C 0.1463 0.55245 0.06973 0.0
N218 N 0.08394 0.45309 -0.00171 0.0
N219 N 0.19697 0.57341 0.15018 0.0
H220 H 0.1405 0.59881 0.02603 0.0
H221 H 0.16815 0.61322 0.09517 0.0
H222 H 0.2104 0.56843 0.18905 0.0
H223 H 0.20994 0.60349 0.13834 0.0
H224 H 0.07843 0.42387 -0.00244 0.0
H225 H 0.07016 0.45948 0.96138 0.0
H226 H 0.09393 0.4087 0.08159 0.0
H227 H 0.13153 0.42561 0.13727 0.0
C228 C 0.63083 0.12602 0.54539 0.0
C229 C 0.594 0.11309 0.57854 0.0
C230 C 0.62642 0.17159 0.64653 0.0
C231 C 0.66392 0.17708 0.62668 0.0
N232 N 0.70323 0.16634 0.54927 0.0
N233 N 0.55546 0.12914 0.65254 0.0
C234 C 0.66643 0.15735 0.57171 0.0
C235 C 0.59137 0.13773 0.62623 0.0
N236 N 0.63176 0.10839 0.48958 0.0
N237 N 0.62355 0.19669 0.6889 0.0
H238 H 0.52851 0.10498 0.63852 0.0
H239 H 0.55286 0.14652 0.68836 0.0
H240 H 0.64822 0.22244 0.70553 0.0
H241 H 0.64822 0.22244 0.70553 0.0
H242 H 0.65718 0.11822 0.4611 0.0
H243 H 0.60619 0.08589 0.46891 0.0
H244 H 0.70824 0.15029 0.51406 0.0
H245 H 0.72901 0.18986 0.56839 0.0
C246 C 0.59532 0.6609 0.12169 0.0
C247 C 0.56205 0.62176 0.12087 0.0
C248 C 0.52454 0.64282 0.19037 0.0
C249 C 0.55966 0.67989 0.19922 0.0
N250 N 0.62868 0.72509 0.17497 0.0
N251 N 0.49573 0.57401 0.15821 0.0
C252 C 0.59506 0.68942 0.16466 0.0
C253 C 0.52668 0.61241 0.15573 0.0
N254 N 0.627 0.67062 0.08162 0.0
N255 N 0.48917 0.63662 0.21586 0.0
H256 H 0.49579 0.55072 0.13341 0.0
H257 H 0.47116 0.56438 0.18868 0.0
H258 H 0.48656 0.658 0.24256 0.0
H259 H 0.4618 0.61183 0.20587 0.0
H260 H 0.65067 0.69951 0.07558 0.0
H261 H 0.62826 0.65001 0.05086 0.0
H262 H 0.65671 0.73232 0.15709 0.0
H263 H 0.62866 0.74702 0.20403 0.0
C264 C 0.89562 0.46945 0.62217 0.0
C265 C 0.92002 0.4878 0.56754 0.0
C266 C 0.89504 0.53491 0.56157 0.0
C267 C 0.87445 0.51969 0.62027 0.0
N268 N 0.84318 0.46498 0.69336 0.0
N269 N 0.92897 0.52611 0.47111 0.0
C270 C 0.87036 0.48389 0.64551 0.0
C271 C 0.91495 0.5164 0.53229 0.0
N272 N 0.89712 0.43882 0.65208 0.0
N273 N 0.8986 0.56919 0.53649 0.0
H274 H 0.94372 0.51364 0.44695 0.0
H275 H 0.92233 0.54363 0.44165 0.0
H276 H 0.88256 0.58238 0.55373 0.0
H277 H 0.91875 0.58548 0.50012 0.0
H278 H 0.88325 0.42684 0.69569 0.0
H279 H 0.91326 0.4259 0.63371 0.0
H280 H 0.83589 0.43699 0.71105 0.0
H281 H 0.82525 0.47618 0.71079 0.0
C282 C 0.37768 0.89893 0.08549 0.0
C283 C 0.41286 0.89668 0.07565 0.0
C284 C 0.39262 0.84702 0.16181 0.0
C285 C 0.35995 0.8529 0.17672 0.0
N286 N 0.32057 0.88379 0.1541 0.0
N287 N 0.45501 0.86972 0.10389 0.0
C288 C 0.352 0.87838 0.13841 0.0
C289 C 0.42037 0.87061 0.1132 0.0
N290 N 0.36915 0.92095 0.04427 0.0
N291 N 0.39705 0.81878 0.19418 0.0
H292 H 0.47459 0.88434 0.06595 0.0
H293 H 0.4654 0.8561 0.13499 0.0
H294 H 0.37858 0.80223 0.23212 0.0
H295 H 0.41748 0.80982 0.18129 0.0
H296 H 0.34264 0.92169 0.04506 0.0
H297 H 0.38778 0.93661 0.00585 0.0
H298 H 0.31522 0.90499 0.13298 0.0
H299 H 0.30033 0.86788 0.1907 0.0
C300 C 0.51143 0.39128 0.63779 0.0
C301 C 0.48065 0.39972 0.62261 0.0
C302 C 0.43361 0.344 0.69038 0.0
C303 C 0.46454 0.33592 0.70587 0.0
N304 N 0.52906 0.34409 0.68192 0.0
N305 N 0.41074 0.37861 0.62101 0.0
C306 C 0.50212 0.35687 0.67482 0.0
C307 C 0.44109 0.37416 0.64452 0.0
N308 N 0.55001 0.41766 0.62097 0.0
N309 N 0.39784 0.32439 0.72208 0.0
H310 H 0.41544 0.40038 0.58724 0.0
H311 H 0.38078 0.35868 0.63047 0.0
H312 H 0.3909 0.30122 0.75425 0.0
H313 H 0.37584 0.33235 0.71899 0.0
H314 H 0.57424 0.41548 0.63689 0.0
H315 H 0.55825 0.44374 0.59529 0.0
H316 H 0.55576 0.35584 0.65621 0.0
H317 H 0.52273 0.31896 0.70913 0.0
C318 C 0.55696 0.96699 0.39923 0.0
C319 C 0.52331 0.96995 0.38026 0.0
C320 C 0.49479 0.90385 0.33096 0.0
C321 C 0.52987 0.90267 0.34519 0.0
N322 N 0.59574 0.9335 0.38833 0.0
N323 N 0.46146 0.9427 0.32327 0.0
C324 C 0.56123 0.93426 0.37854 0.0
C325 C 0.49264 0.93885 0.34453 0.0
N326 N 0.58458 0.99528 0.43812 0.0
N327 N 0.46319 0.87097 0.30555 0.0
H328 H 0.45706 0.96642 0.33508 0.0
H329 H 0.44156 0.92395 0.2895 0.0
H330 H 0.46403 0.845 0.29492 0.0
H331 H 0.43508 0.86791 0.30049 0.0
H332 H 0.60676 0.99234 0.46075 0.0
H333 H 0.58417 0.02118 0.45029 0.0
H334 H 0.62186 0.95781 0.40434 0.0
H335 H 0.59883 0.90877 0.37756 0.0
C336 C 0.66938 0.60229 0.86476 0.0
C337 C 0.64182 0.56336 0.88692 0.0
C338 C 0.68266 0.53788 0.83757 0.0
C339 C 0.70611 0.57507 0.80664 0.0
N340 N 0.72156 0.64288 0.78824 0.0
N341 N 0.61969 0.49288 0.88906 0.0
C342 C 0.69985 0.6076 0.82032 0.0
C343 C 0.64812 0.53087 0.87287 0.0
N344 N 0.66659 0.63415 0.88673 0.0
N345 N 0.69324 0.50909 0.83211 0.0
H346 H 0.59343 0.48628 0.91331 0.0
H347 H 0.62042 0.4676 0.87371 0.0
H348 H 0.71841 0.51366 0.80618 0.0
H349 H 0.67955 0.4825 0.858 0.0
H350 H 0.68792 0.66368 0.8772 0.0
H351 H 0.64459 0.63109 0.91927 0.0
H352 H 0.71511 0.66604 0.78988 0.0
H353 H 0.74495 0.64825 0.75708 0.0
C354 C 0.08039 0.54455 0.31992 0.0
C355 C 0.053 0.54556 0.36474 0.0
C356 C 0.09458 0.61851 0.37178 0.0
C357 C 0.12279 0.617 0.32996 0.0
N358 N 0.14648 0.57923 0.27153 0.0
N359 N 0.0365 0.58287 0.43989 0.0
C360 C 0.11677 0.58014 0.30616 0.0
C361 C 0.06087 0.58242 0.39251 0.0
N362 N 0.07186 0.50968 0.29044 0.0
N363 N 0.09939 0.65466 0.38989 0.0
H364 H 1.01005 0.55772 0.45369 0.0
H365 H 0.04349 0.60763 0.46804 0.0
H366 H 0.12489 0.68165 0.3787 0.0
H367 H 0.07736 0.65818 0.41303 0.0
H368 H 0.08752 0.50839 0.25071 0.0
H369 H 0.04729 0.4822 0.30199 0.0
H370 H 0.14602 0.55303 0.25836 0.0
H371 H 0.17351 0.60483 0.26095 0.0
C372 C 0.52496 0.11534 0.94877 0.0
C373 C 0.49452 0.07943 0.97706 0.0
C374 C 0.44338 0.08932 0.9254 0.0
C375 C 0.47372 0.12477 0.89602 0.0
N376 N 0.54245 0.17625 0.88969 0.0
N377 N 0.42562 0.03773 0.00586 0.0
C378 C 0.51427 0.13939 0.91131 0.0
C379 C 0.45396 0.0684 0.96982 0.0
N380 N 0.56395 0.12519 0.95459 0.0
N381 N 0.40458 0.0745 0.90835 0.0
H382 H 0.43286 0.02229 0.03901 0.0
H383 H 0.39576 0.03009 0.00752 0.0
H384 H 0.39549 0.08912 0.87676 0.0
H385 H 0.38165 0.04647 0.9221 0.0
H386 H 0.58748 0.14872 0.93037 0.0
H387 H 0.57297 0.10874 0.98205 0.0
H388 H 0.57207 0.19052 0.90344 0.0
H389 H 0.53549 0.19411 0.86149 0.0
C390 C 0.43665 0.5134 0.35533 0.0
C391 C 0.42806 0.47773 0.38784 0.0
C392 C 0.36089 0.44374 0.34355 0.0
C393 C 0.36937 0.47976 0.31255 0.0
N394 N 0.41112 0.55098 0.30078 0.0
N395 N 0.38064 0.41118 0.42269 0.0
C396 C 0.40587 0.51531 0.32268 0.0
C397 C 0.38959 0.44356 0.38525 0.0
N398 N 0.4747 0.54495 0.35311 0.0
N399 N 0.32604 0.40962 0.33133 0.0
H400 H 0.40141 0.41001 0.45247 0.0
H401 H 0.35212 0.38671 0.42761 0.0
H402 H 0.30399 0.4094 0.30297 0.0
H403 H 0.31974 0.38143 0.34663 0.0
H404 H 0.48372 0.56993 0.32413 0.0
H405 H 0.49835 0.54491 0.37598 0.0
H406 H 0.43532 0.5784 0.31263 0.0
H407 H 0.38959 0.55365 0.27538 0.0
C408 C 0.94285 0.41252 0.91891 0.0
C409 C 0.93999 0.44776 0.91726 0.0
C410 C 0.87924 0.41308 0.85376 0.0
C411 C 0.88477 0.37942 0.84914 0.0
N412 N 0.92239 0.34702 0.87477 0.0
N413 N 0.90808 0.48343 0.87818 0.0
C414 C 0.91664 0.37905 0.8814 0.0
C415 C 0.90859 0.4484 0.88399 0.0
N416 N 0.97032 0.41099 0.95735 0.0
N417 N 0.84579 0.41122 0.82937 0.0
H418 H 0.92846 0.50967 0.90065 0.0
H419 H 0.88927 0.48732 0.8477 0.0
H420 H 0.82446 0.38658 0.80469 0.0
H421 H 0.83765 0.43284 0.83747 0.0
H422 H 0.97184 0.38524 0.96573 0.0
H423 H 0.98981 0.435 0.98525 0.0
H424 H 0.94754 0.34655 0.89048 0.0
H425 H 0.90276 0.32131 0.85032 0.0
C426 C 0.02057 0.61937 0.75611 0.0
C427 C 0.02092 0.61843 0.82343 0.0
C428 C 0.96343 0.62827 0.83068 0.0
C429 C 0.95854 0.62195 0.76439 0.0
N430 N 0.99078 0.63028 0.66235 0.0
N431 N 1.00992 0.64772 0.91729 0.0
C432 C 0.99055 0.62456 0.72649 0.0
C433 C 0.99837 0.63222 0.85797 0.0
N434 N 0.04744 0.61406 0.72093 0.0
N435 N 0.93379 0.62702 0.86833 0.0
H436 H 0.03649 0.65197 0.93653 0.0
H437 H 0.99574 0.66025 0.94327 0.0
H438 H 0.90741 0.62375 0.85037 0.0
H439 H 0.93466 0.62692 0.91789 0.0
H440 H 0.04499 0.60878 0.67216 0.0
H441 H 0.07281 0.61582 0.74059 0.0
H442 H 0.0141 0.63462 0.63197 0.0
H443 H 0.96871 0.63411 0.64079 0.0
C444 C 0.40452 0.89071 0.48035 0.0
C445 C 0.39337 0.91865 0.50251 0.0
C446 C 0.33377 0.88756 0.43617 0.0
C447 C 0.34651 0.86162 0.41075 0.0
N448 N 0.38733 0.83089 0.41978 0.0
N449 N 0.34363 0.93797 0.51494 0.0
C450 C 0.37953 0.86051 0.43709 0.0
C451 C 0.35635 0.91475 0.48514 0.0
N452 N 0.44066 0.89518 0.49627 0.0
N453 N 0.30122 0.88735 0.41126 0.0
H454 H 0.36009 0.95781 0.55089 0.0
H455 H 0.3159 0.93547 0.50812 0.0
H456 H 0.2835 0.86681 0.37703 0.0
H457 H 0.29245 0.90812 0.42255 0.0
H458 H 0.45349 0.8801 0.474 0.0
H459 H 0.45894 0.91545 0.53019 0.0
H460 H 0.40852 0.82598 0.44167 0.0
H461 H 0.37039 0.80902 0.38674 0.0
C462 C 0.53906 0.40043 0.98578 0.0
C463 C 0.51199 0.41335 0.00457 0.0
C464 C 0.45603 0.35248 0.96357 0.0
C465 C 0.48357 0.34217 0.93688 0.0
N466 N 0.54862 0.34883 0.93521 0.0
N467 N 0.44519 0.39681 0.03271 0.0
C468 C 0.52432 0.36353 0.95312 0.0
C469 C 0.47047 0.38747 0.00082 0.0
N470 N 0.57874 0.42436 -0.00313 0.0
N471 N 0.41657 0.33044 0.94921 0.0
H472 H 0.45554 0.42249 0.06027 0.0
H473 H 0.41459 0.37769 0.03672 0.0
H474 H 0.40492 0.3038 0.92398 0.0
H475 H 0.39564 0.33909 0.96014 0.0
H476 H 0.60092 0.41871 0.98038 0.0
H477 H 0.58966 0.45075 0.02266 0.0
H478 H 0.57853 0.36177 0.94671 0.0
H479 H 0.53776 0.32166 0.91164 0.0
C480 C 0.09711 0.42189 0.429 0.0
C481 C 0.09612 0.45416 0.45976 0.0
C482 C 0.15271 0.50166 0.39379 0.0
C483 C 0.15093 0.46957 0.35813 0.0
N484 N 0.1283 0.39952 0.3496 0.0
N485 N 0.12725 0.52519 0.47806 0.0
C486 C 0.12542 0.42968 0.37869 0.0
C487 C 0.12591 0.49396 0.44535 0.0
N488 N 0.06935 0.38385 0.44622 0.0
N489 N 0.17885 0.5404 0.37835 0.0
H490 H 0.10905 0.52154 0.51737 0.0
H491 H 0.14767 0.55489 0.46697 0.0
H492 H 0.19956 0.5494 0.34089 0.0
H493 H 0.19956 0.5494 0.34089 0.0
H494 H 0.06507 0.35839 0.42261 0.0
H495 H 0.04988 0.37798 0.48486 0.0
H496 H 0.11243 0.3698 0.36384 0.0
H497 H 0.14877 0.40473 0.31283 0.0
C498 C 0.62667 0.04069 0.8459 0.0
C499 C 0.58858 0.03769 0.84563 0.0
C500 C 0.6185 0.10734 0.81305 0.0
C501 C 0.65649 0.10993 0.80903 0.0
N502 N 0.69627 0.07797 0.81259 0.0
N503 N 0.54679 0.06454 0.81571 0.0
C504 C 0.66047 0.07618 0.82271 0.0
C505 C 0.58411 0.06986 0.82419 0.0
N506 N 0.63051 0.01002 0.87032 0.0
N507 N 0.61552 0.14103 0.80713 0.0
H508 H 0.52108 0.03717 0.82379 0.0
H509 H 0.54132 0.08577 0.79488 0.0
H510 H 0.64027 0.16938 0.8018 0.0
H511 H 0.58908 0.14162 0.81337 0.0
H512 H 0.65785 0.01194 0.87889 0.0
H513 H 0.60589 0.983 0.88442 0.0
H514 H 0.70016 0.05319 0.81519 0.0
H515 H 0.7218 0.10419 0.79845 0.0
C516 C 0.50368 0.614 0.48151 0.0
C517 C 0.53772 0.61247 0.50152 0.0
C518 C 0.58089 0.67997 0.45933 0.0
C519 C 0.54763 0.67795 0.42828 0.0
N520 N 0.47681 0.64324 0.40944 0.0
N521 N 0.60836 0.64443 0.51632 0.0
C522 C 0.50866 0.64554 0.44071 0.0
C523 C 0.57627 0.64597 0.49337 0.0
N524 N 0.46659 0.58463 0.50019 0.0
N525 N 0.61681 0.71428 0.45479 0.0
H526 H 0.60523 0.62063 0.54414 0.0
H527 H 0.63781 0.6659 0.50686 0.0
H528 H 0.62028 0.73933 0.43021 0.0
H529 H 0.6421 0.71916 0.47899 0.0
H530 H 0.44065 0.58575 0.49236 0.0
H531 H 0.46196 0.56061 0.52878 0.0
H532 H 0.44856 0.61817 0.41017 0.0
H533 H 0.47876 0.66571 0.37974 0.0
C534 C 0.48566 0.1429 0.56757 0.0
C535 C 0.45268 0.10619 0.5488 0.0
C536 C 0.41523 0.10514 0.64432 0.0
C537 C 0.44973 0.13956 0.66648 0.0
N538 N 0.51352 0.19721 0.64374 0.0
N539 N 0.38325 0.05888 0.55706 0.0
C540 C 0.48349 0.16065 0.62587 0.0
C541 C 0.41626 0.08992 0.58302 0.0
N542 N 0.52002 0.15881 0.53197 0.0
N543 N 0.38241 0.08594 0.68329 0.0
H544 H 0.38436 0.04776 0.51217 0.0
H545 H 0.35473 0.0465 0.5768 0.0
H546 H 0.38041 0.09672 0.72792 0.0
H547 H 0.35775 0.05854 0.67291 0.0
H548 H 0.54706 0.18247 0.5465 0.0
H549 H 0.52153 0.14717 0.48785 0.0
H550 H 0.53766 0.21568 0.61449 0.0
H551 H 0.51286 0.21046 0.68671 0.0
C552 C 0.39593 0.47306 0.01321 0.0
C553 C 0.42939 0.51172 0.00643 0.0
C554 C 0.39733 0.53964 0.07397 0.0
C555 C 0.36546 0.50034 0.08609 0.0
N556 N 0.32836 0.43181 0.05482 0.0
N557 N 0.45713 0.58277 0.01216 0.0
C558 C 0.36263 0.46778 0.05069 0.0
C559 C 0.42811 0.54539 0.03014 0.0
N560 N 0.39699 0.44148 0.98593 0.0
N561 N 0.39995 0.57097 0.10818 0.0
H562 H 0.48031 0.58762 0.98088 0.0
H563 H 0.45643 0.60868 0.02327 0.0
H564 H 0.37798 0.56836 0.14016 0.0
H565 H 0.42468 0.59946 0.10717 0.0
H566 H 0.37544 0.41183 -0.00643 0.0
H567 H 0.42046 0.44526 0.95612 0.0
H568 H 0.32294 0.407 0.02802 0.0
H569 H 0.30388 0.42793 0.08204 0.0
C570 C 0.90986 0.31768 0.55943 0.0
C571 C 0.90024 0.33983 0.51667 0.0
C572 C 0.84648 0.33244 0.58756 0.0
C573 C 0.86007 0.31596 0.63487 0.0
N574 N 0.8964 0.28237 0.66085 0.0
N575 N 0.85234 0.35786 0.48114 0.0
C576 C 0.88888 0.3047 0.6188 0.0
C577 C 0.86545 0.34245 0.52716 0.0
N578 N 0.94126 0.31217 0.5445 0.0
N579 N 0.81676 0.34091 0.59946 0.0
H580 H 0.86488 0.36448 0.43544 0.0
H581 H 0.82776 0.36187 0.48799 0.0
H582 H 0.80144 0.33549 0.64286 0.0
H583 H 0.80144 0.33549 0.64286 0.0
H584 H 0.95314 0.29976 0.5751 0.0
H585 H 0.95577 0.32089 0.50022 0.0
H586 H 0.91556 0.2713 0.6514 0.0
H587 H 0.88124 0.27269 0.70441 0.0
C588 C 0.61206 0.95037 0.10781 0.0
C589 C 0.57996 0.93709 0.06524 0.0
C590 C 0.55663 0.86799 0.09456 0.0
C591 C 0.58269 0.88175 0.1469 0.0
N592 N 0.64624 0.93122 0.18509 0.0
N593 N 0.54402 0.88438 0.98961 0.0
C594 C 0.61515 0.92139 0.14549 0.0
C595 C 0.55957 0.89615 0.04872 0.0
N596 N 0.63849 0.99012 0.1128 0.0
N597 N 0.52714 0.8292 0.09104 0.0
H598 H 0.5501 0.90485 0.95286 0.0
H599 H 0.53057 0.85479 0.97487 0.0
H600 H 0.52492 0.80716 0.12195 0.0
H601 H 0.50422 0.81942 0.05826 0.0
H602 H 0.66044 1.00225 0.14713 0.0
H603 H 0.63845 0.01088 0.08108 0.0
H604 H 0.67162 0.95925 0.18618 0.0
H605 H 0.64712 0.90961 0.21385 0.0
C606 C 0.66129 0.56796 0.51002 0.0
C607 C 0.6346 0.52654 0.50634 0.0
C608 C 0.68224 0.51277 0.56 0.0
C609 C 0.70418 0.55362 0.57626 0.0
N610 N 0.71828 0.62133 0.56249 0.0
N611 N 0.62156 0.45907 0.51487 0.0
C612 C 0.69549 0.58179 0.54833 0.0
C613 C 0.64611 0.49873 0.52615 0.0
N614 N 0.65342 0.59371 0.47715 0.0
N615 N 0.69562 0.48773 0.57907 0.0
H616 H 0.59578 0.44866 0.48816 0.0
H617 H 0.62614 0.43644 0.53202 0.0
H618 H 0.72226 0.4981 0.6035 0.0
H619 H 0.68217 0.45765 0.56771 0.0
H620 H 0.67314 0.6242 0.47332 0.0
H621 H 0.62834 0.58374 0.44876 0.0
H622 H 0.71078 0.64289 0.55047 0.0
H623 H 0.74438 0.63245 0.58853 0.0
C624 C 0.13748 0.67686 0.04093 0.0
C625 C 0.09629 0.65806 0.0568 0.0
C626 C 0.11329 0.70076 0.14964 0.0
C627 C 0.15201 0.7051 0.14736 0.0
N628 N 0.20333 0.70285 0.0832 0.0
N629 N 0.04586 0.66651 0.11192 0.0
C630 C 0.16539 0.69619 0.08974 0.0
C631 C 0.08438 0.6749 0.10621 0.0
N632 N 0.1498 0.67749 0.97959 0.0
N633 N 0.10239 0.71711 0.19767 0.0
H634 H 0.02474 0.65033 0.07752 0.0
H635 H 0.03614 0.67777 0.14898 0.0
H636 H 0.12237 0.7356 0.2319 0.0
H637 H 0.12237 0.7356 0.2319 0.0
H638 H 0.17969 0.69283 0.96554 0.0
H639 H 0.12994 0.66794 0.94189 0.0
H640 H 0.21239 0.69159 0.04535 0.0
H641 H 0.22533 0.71846 0.11637 0.0
loop_
_geom_bond_atom_site_label_1
_geom_bond_atom_site_label_2
_geom_bond_distance
_geom_bond_site_symmetry_2
_ccdc_geom_bond_type
C0 O2 1.247 . S
C0 O4 1.258 . S
C1 O8 1.247 . S
C1 O9 1.258 1_556 S
O2 C0 1.247 . S
O2 Zn3 2.028 1_455 S
Zn3 O2 2.028 1_655 S
Zn3 O7 2.035 . S
Zn3 O9 2.035 . S
Zn3 O10 2.028 1_655 S
O4 C0 1.258 . S
O4 Zn5 2.035 1_554 S
Zn5 O4 2.035 1_556 S
Zn5 O6 2.028 1_455 S
Zn5 O8 2.028 1_455 S
Zn5 O11 2.035 1_556 S
O6 Zn5 2.028 1_655 S
O6 C12 1.247 . S
O7 Zn3 2.035 . S
O7 C12 1.258 1_554 S
O8 C1 1.247 . S
O8 Zn5 2.028 1_655 S
O9 C1 1.258 1_554 S
O9 Zn3 2.035 . S
O10 Zn3 2.028 1_455 S
O10 C13 1.247 . S
O11 Zn5 2.035 1_554 S
O11 C13 1.258 . S
C12 O6 1.247 . S
C12 O7 1.258 1_556 S
C13 O10 1.247 . S
C13 O11 1.258 . S
C14 O16 1.247 . S
C14 O18 1.258 . S
C15 O22 1.247 . S
C15 O23 1.258 . S
O16 C14 1.247 . S
O16 Zn17 2.028 1_545 S
Zn17 O16 2.028 1_565 S
Zn17 O21 2.035 . S
Zn17 O23 2.035 . S
Zn17 O24 2.028 1_565 S
O18 C14 1.258 . S
O18 Zn19 2.035 . S
Zn19 O18 2.035 . S
Zn19 O20 2.028 1_545 S
Zn19 O22 2.028 1_545 S
Zn19 O25 2.035 . S
O20 Zn19 2.028 1_565 S
O20 C26 1.247 . S
O21 Zn17 2.035 . S
O21 C26 1.258 . S
O22 C15 1.247 . S
O22 Zn19 2.028 1_565 S
O23 C15 1.258 . S
O23 Zn17 2.035 . S
O24 Zn17 2.028 1_545 S
O24 C27 1.247 . S
O25 Zn19 2.035 . S
O25 C27 1.258 . S
C26 O20 1.247 . S
C26 O21 1.258 . S
C27 O24 1.247 . S
C27 O25 1.258 . S
C28 O30 1.247 . S
C28 O32 1.258 1_556 S
C29 O36 1.247 . S
C29 O37 1.258 . S
O30 C28 1.247 . S
O30 Zn31 2.028 . S
Zn31 O30 2.028 . S
Zn31 O35 2.035 1_556 S
Zn31 O37 2.035 1_556 S
Zn31 O38 2.028 . S
O32 C28 1.258 1_554 S
O32 Zn33 2.035 . S
Zn33 O32 2.035 . S
Zn33 O34 2.028 . S
Zn33 O36 2.028 . S
Zn33 O39 2.035 . S
O34 Zn33 2.028 . S
O34 C40 1.247 . S
O35 Zn31 2.035 1_554 S
O35 C40 1.258 . S
O36 C29 1.247 . S
O36 Zn33 2.028 . S
O37 C29 1.258 . S
O37 Zn31 2.035 1_554 S
O38 Zn31 2.028 . S
O38 C41 1.247 . S
O39 Zn33 2.035 . S
O39 C41 1.258 1_554 S
C40 O34 1.247 . S
C40 O35 1.258 . S
C41 O38 1.247 . S
C41 O39 1.258 1_556 S
C42 O44 1.247 . S
C42 O46 1.258 . S
C43 O50 1.247 . S
C43 O51 1.258 . S
O44 C42 1.247 . S
O44 Zn45 2.028 . S
Zn45 O44 2.028 . S
Zn45 O49 2.035 1_455 S
Zn45 O51 2.035 1_455 S
Zn45 O52 2.028 . S
O46 C42 1.258 . S
O46 Zn47 2.035 1_455 S
Zn47 O46 2.035 1_655 S
Zn47 O48 2.028 . S
Zn47 O50 2.028 . S
Zn47 O53 2.035 1_655 S
O48 Zn47 2.028 . S
O48 C54 1.247 . S
O49 Zn45 2.035 1_655 S
O49 C54 1.258 . S
O50 C43 1.247 . S
O50 Zn47 2.028 . S
O51 C43 1.258 . S
O51 Zn45 2.035 1_655 S
O52 Zn45 2.028 . S
O52 C55 1.247 . S
O53 Zn47 2.035 1_455 S
O53 C55 1.258 . S
C54 O48 1.247 . S
C54 O49 1.258 . S
C55 O52 1.247 . S
C55 O53 1.258 . S
C56 O58 1.247 . S
C56 O60 1.258 1_554 S
C57 O64 1.247 . S
C57 O65 1.258 1_556 S
O58 C56 1.247 . S
O58 Zn59 2.028 1_565 S
Zn59 O58 2.028 1_545 S
Zn59 O63 2.035 . S
Zn59 O65 2.035 . S
Zn59 O66 2.028 1_545 S
O60 C56 1.258 1_556 S
O60 Zn61 2.035 . S
Zn61 O60 2.035 . S
Zn61 O62 2.028 1_565 S
Zn61 O64 2.028 1_565 S
Zn61 O67 2.044 . S
O62 Zn61 2.028 1_545 S
O62 C68 1.247 . S
O63 Zn59 2.035 . S
O63 C68 1.258 1_554 S
O64 C57 1.247 . S
O64 Zn61 2.028 1_545 S
O65 C57 1.258 1_554 S
O65 Zn59 2.035 . S
O66 Zn59 2.028 1_565 S
O66 C69 1.247 . S
O67 Zn61 2.044 . S
O67 C69 1.243 1_556 S
C68 O62 1.247 . S
C68 O63 1.258 1_556 S
C69 O66 1.247 . S
C69 O67 1.243 1_554 S
C70 O72 1.247 . S
C70 O74 1.258 . S
C71 O78 1.247 . S
C71 O79 1.258 . S
O72 C70 1.247 . S
O72 Zn73 2.028 . S
Zn73 O72 2.028 . S
Zn73 O77 2.035 . S
Zn73 O79 2.035 . S
Zn73 O80 2.028 . S
O74 C70 1.258 . S
O74 Zn75 2.035 . S
Zn75 O74 2.035 . S
Zn75 O76 2.028 . S
Zn75 O78 2.028 . S
Zn75 O81 2.035 . S
O76 Zn75 2.028 . S
O76 C82 1.247 . S
O77 Zn73 2.035 . S
O77 C82 1.258 . S
O78 C71 1.247 . S
O78 Zn75 2.028 . S
O79 C71 1.258 . S
O79 Zn73 2.035 . S
O80 Zn73 2.028 . S
O80 C83 1.247 . S
O81 Zn75 2.035 . S
O81 C83 1.258 . S
C82 O76 1.247 . S
C82 O77 1.258 . S
C83 O80 1.247 . S
C83 O81 1.258 . S
H84 C92 0.930 . S
H85 C95 0.930 . S
H86 C97 0.930 . S
H87 C98 0.970 . S
H88 C98 0.970 . S
H89 C100 0.930 . S
H90 C102 0.930 . S
H91 C104 0.930 . S
C92 H84 0.930 . S
C92 C93 1.382 . S
C92 C94 1.426 . S
C93 C92 1.382 . S
C93 C97 1.389 . S
C94 C92 1.426 . S
C94 C95 1.375 . S
C94 C98 1.532 . S
C95 H85 0.930 . S
C95 C94 1.375 . S
C95 C96 1.416 . S
C96 C95 1.416 . S
C96 C97 1.371 . S
C97 H86 0.930 . S
C97 C93 1.389 . S
C97 C96 1.371 . S
C98 H87 0.970 . S
C98 H88 0.970 . S
C98 C94 1.532 . S
C98 C99 1.499 . S
C99 C98 1.499 . S
C99 C100 1.370 . S
C99 C104 1.415 . S
C100 H89 0.930 . S
C100 C99 1.370 . S
C100 C101 1.407 . S
C101 C100 1.407 . S
C101 C102 1.365 . S
C102 H90 0.930 . S
C102 C101 1.365 . S
C102 C103 1.393 . S
C103 C102 1.393 . S
C103 C104 1.387 . S
C104 H91 0.930 . S
C104 C99 1.415 . S
C104 C103 1.387 . S
H105 C113 0.930 . S
H106 C116 0.930 . S
H107 C118 0.930 . S
H108 C119 0.970 . S
H109 C119 0.970 . S
H110 C121 0.930 . S
H111 C123 0.930 . S
H112 C125 0.930 . S
C113 H105 0.930 . S
C113 C114 1.382 . S
C113 C115 1.426 . S
C114 C113 1.382 . S
C114 C118 1.389 . S
C115 C113 1.426 . S
C115 C116 1.375 . S
C115 C119 1.532 . S
C116 H106 0.930 . S
C116 C115 1.375 . S
C116 C117 1.416 . S
C117 C116 1.416 . S
C117 C118 1.371 . S
C118 H107 0.930 . S
C118 C114 1.389 . S
C118 C117 1.371 . S
C119 H108 0.970 . S
C119 H109 0.970 . S
C119 C115 1.532 . S
C119 C120 1.499 . S
C120 C119 1.499 . S
C120 C121 1.370 . S
C120 C125 1.415 . S
C121 H110 0.930 . S
C121 C120 1.370 . S
C121 C122 1.407 . S
C122 C121 1.407 . S
C122 C123 1.365 . S
C123 H111 0.930 . S
C123 C122 1.365 . S
C123 C124 1.393 . S
C124 C123 1.393 . S
C124 C125 1.387 . S
C125 H112 0.930 . S
C125 C120 1.415 . S
C125 C124 1.387 . S
H126 C134 0.930 . S
H127 C137 0.930 . S
H128 C139 0.930 . S
H129 C140 0.970 . S
H130 C140 0.970 . S
H131 C142 0.930 . S
H132 C144 0.930 . S
H133 C146 0.930 . S
C134 H126 0.930 . S
C134 C135 1.382 . S
C134 C136 1.426 . S
C135 C134 1.382 . S
C135 C139 1.389 . S
C136 C134 1.426 . S
C136 C137 1.375 . S
C136 C140 1.532 . S
C137 H127 0.930 . S
C137 C136 1.375 . S
C137 C138 1.416 . S
C138 C137 1.416 . S
C138 C139 1.371 . S
C139 H128 0.930 . S
C139 C135 1.389 . S
C139 C138 1.371 . S
C140 H129 0.970 . S
C140 H130 0.970 . S
C140 C136 1.532 . S
C140 C141 1.499 . S
C141 C140 1.499 . S
C141 C142 1.370 . S
C141 C146 1.415 . S
C142 H131 0.930 . S
C142 C141 1.370 . S
C142 C143 1.407 . S
C143 C142 1.407 . S
C143 C144 1.365 . S
C144 H132 0.930 . S
C144 C143 1.365 . S
C144 C145 1.393 . S
C145 C144 1.393 . S
C145 C146 1.387 . S
C146 H133 0.930 . S
C146 C141 1.415 . S
C146 C145 1.387 . S
H147 C155 0.930 . S
H148 C158 0.930 . S
H149 C160 0.930 . S
H150 C161 0.970 . S
H151 C161 0.970 . S
H152 C163 0.930 . S
H153 C165 0.930 . S
H154 C167 0.930 . S
C155 H147 0.930 . S
C155 C156 1.382 . S
C155 C157 1.426 . S
C156 C155 1.382 . S
C156 C160 1.389 . S
C157 C155 1.426 . S
C157 C158 1.375 . S
C157 C161 1.532 . S
C158 H148 0.930 . S
C158 C157 1.375 . S
C158 C159 1.416 . S
C159 C158 1.416 . S
C159 C160 1.371 . S
C160 H149 0.930 . S
C160 C156 1.389 . S
C160 C159 1.371 . S
C161 H150 0.970 . S
C161 H151 0.970 . S
C161 C157 1.532 . S
C161 C162 1.499 . S
C162 C161 1.499 . S
C162 C163 1.370 . S
C162 C167 1.415 . S
C163 H152 0.930 . S
C163 C162 1.370 . S
C163 C164 1.407 . S
C164 C163 1.407 . S
C164 C165 1.365 . S
C165 H153 0.930 . S
C165 C164 1.365 . S
C165 C166 1.393 . S
C166 C165 1.393 . S
C166 C167 1.387 . S
C167 H154 0.930 . S
C167 C162 1.415 . S
C167 C166 1.387 . S
H168 C176 0.930 . S
H169 C179 0.930 . S
H170 C181 0.930 . S
H171 C182 0.970 . S
H172 C182 0.970 . S
H173 C184 0.930 . S
H174 C186 0.930 . S
H175 C188 0.930 . S
C176 H168 0.930 . S
C176 C177 1.382 . S
C176 C178 1.426 . S
C177 C176 1.382 . S
C177 C181 1.389 . S
C178 C176 1.426 . S
C178 C179 1.375 . S
C178 C182 1.532 . S
C179 H169 0.930 . S
C179 C178 1.375 . S
C179 C180 1.416 . S
C180 C179 1.416 . S
C180 C181 1.371 . S
C181 H170 0.930 . S
C181 C177 1.389 . S
C181 C180 1.371 . S
C182 H171 0.970 . S
C182 H172 0.970 . S
C182 C178 1.532 . S
C182 C183 1.499 . S
C183 C182 1.499 . S
C183 C184 1.370 . S
C183 C188 1.415 . S
C184 H173 0.930 . S
C184 C183 1.370 . S
C184 C185 1.407 . S
C185 C184 1.407 . S
C185 C186 1.365 . S
C186 H174 0.930 . S
C186 C185 1.365 . S
C186 C187 1.393 . S
C187 C186 1.393 . S
C187 C188 1.387 . S
C188 H175 0.930 . S
C188 C183 1.415 . S
C188 C187 1.387 . S
H189 C197 0.930 . S
H190 C200 0.930 . S
H191 C202 0.930 . S
H192 C203 0.970 . S
H193 C203 0.970 . S
H194 C205 0.930 . S
H195 C207 0.930 . S
H196 C209 0.930 . S
C197 H189 0.930 . S
C197 C198 1.382 . S
C197 C199 1.426 . S
C198 C197 1.382 . S
C198 C202 1.389 . S
C199 C197 1.426 . S
C199 C200 1.375 . S
C199 C203 1.532 . S
C200 H190 0.930 . S
C200 C199 1.375 . S
C200 C201 1.416 . S
C201 C200 1.416 . S
C201 C202 1.371 . S
C202 H191 0.930 . S
C202 C198 1.389 . S
C202 C201 1.371 . S
C203 H192 0.970 . S
C203 H193 0.970 . S
C203 C199 1.532 . S
C203 C204 1.499 . S
C204 C203 1.499 . S
C204 C205 1.370 . S
C204 C209 1.415 . S
C205 H194 0.930 . S
C205 C204 1.370 . S
C205 C206 1.407 . S
C206 C205 1.407 . S
C206 C207 1.365 . S
C207 H195 0.930 . S
C207 C206 1.365 . S
C207 C208 1.393 . S
C208 C207 1.393 . S
C208 C209 1.387 . S
C209 H196 0.930 . S
C209 C204 1.415 . S
C209 C208 1.387 . S
C210 C211 1.363 . S
C210 C216 1.379 . S
C210 N218 1.356 1_554 S
C211 C210 1.363 . S
C211 C217 1.363 . S
C212 C213 1.363 . S
C212 C217 1.379 . S
C212 N219 1.356 . S
C213 C212 1.363 . S
C213 C216 1.363 . S
N214 C216 1.356 . S
N214 H226 0.984 . S
N214 H227 0.985 . S
N215 C217 1.356 . S
N215 H220 0.984 . S
N215 H221 0.985 . S
C216 C210 1.379 . S
C216 C213 1.363 . S
C216 N214 1.356 . S
C217 C211 1.363 . S
C217 C212 1.379 . S
C217 N215 1.356 . S
N218 C210 1.356 1_556 S
N218 H224 0.984 . S
N218 H225 0.984 . S
N219 C212 1.356 . S
N219 H222 0.984 . S
N219 H223 0.985 . S
H220 N215 0.984 . S
H221 N215 0.985 . S
H222 N219 0.984 . S
H223 N219 0.985 . S
H224 N218 0.984 . S
H225 N218 0.984 . S
H226 N214 0.984 . S
H227 N214 0.985 . S
C228 C229 1.363 . S
C228 C234 1.379 . S
C228 N236 1.356 . S
C229 C228 1.363 . S
C229 C235 1.363 . S
C230 C231 1.363 . S
C230 C235 1.379 . S
C230 N237 1.356 . S
C231 C230 1.363 . S
C231 C234 1.363 . S
N232 C234 1.356 . S
N232 H244 0.984 . S
N232 H245 0.985 . S
N233 C235 1.356 . S
N233 H238 0.984 . S
N233 H239 0.985 . S
C234 C228 1.379 . S
C234 C231 1.363 . S
C234 N232 1.356 . S
C235 C229 1.363 . S
C235 C230 1.379 . S
C235 N233 1.356 . S
N236 C228 1.356 . S
N236 H242 0.984 . S
N236 H243 0.984 . S
N237 C230 1.356 . S
N237 H240 0.984 . S
N237 H241 0.985 . S
H238 N233 0.984 . S
H239 N233 0.985 . S
H240 N237 0.984 . S
H241 N237 0.985 . S
H242 N236 0.984 . S
H243 N236 0.984 . S
H244 N232 0.984 . S
H245 N232 0.985 . S
C246 C247 1.363 . S
C246 C252 1.379 . S
C246 N254 1.356 . S
C247 C246 1.363 . S
C247 C253 1.363 . S
C248 C249 1.363 . S
C248 C253 1.379 . S
C248 N255 1.356 . S
C249 C248 1.363 . S
C249 C252 1.363 . S
N250 C252 1.356 . S
N250 H262 0.984 . S
N250 H263 0.985 . S
N251 C253 1.356 . S
N251 H256 0.984 . S
N251 H257 0.985 . S
C252 C246 1.379 . S
C252 C249 1.363 . S
C252 N250 1.356 . S
C253 C247 1.363 . S
C253 C248 1.379 . S
C253 N251 1.356 . S
N254 C246 1.356 . S
N254 H260 0.984 1_554 S
N254 H261 0.984 . S
N255 C248 1.356 . S
N255 H258 0.984 . S
N255 H259 0.985 . S
H256 N251 0.984 . S
H257 N251 0.985 . S
H258 N255 0.984 . S
H259 N255 0.985 . S
H260 N254 0.984 1_556 S
H261 N254 0.984 . S
H262 N250 0.984 . S
H263 N250 0.985 . S
C264 C265 1.363 . S
C264 C270 1.379 . S
C264 N272 1.356 . S
C265 C264 1.363 . S
C265 C271 1.363 . S
C266 C267 1.363 . S
C266 C271 1.379 . S
C266 N273 1.356 . S
C267 C266 1.363 . S
C267 C270 1.363 . S
N268 C270 1.356 . S
N268 H280 0.984 . S
N268 H281 0.985 . S
N269 C271 1.356 . S
N269 H274 0.984 . S
N269 H275 0.985 . S
C270 C264 1.379 . S
C270 C267 1.363 . S
C270 N268 1.356 . S
C271 C265 1.363 . S
C271 C266 1.379 . S
C271 N269 1.356 . S
N272 C264 1.356 . S
N272 H278 0.984 . S
N272 H279 0.984 . S
N273 C266 1.356 . S
N273 H276 0.984 . S
N273 H277 0.985 . S
H274 N269 0.984 . S
H275 N269 0.985 . S
H276 N273 0.984 . S
H277 N273 0.985 . S
H278 N272 0.984 . S
H279 N272 0.984 . S
H280 N268 0.984 . S
H281 N268 0.985 . S
C282 C283 1.363 . S
C282 C288 1.379 . S
C282 N290 1.356 1_554 S
C283 C282 1.363 . S
C283 C289 1.363 . S
C284 C285 1.363 . S
C284 C289 1.379 . S
C284 N291 1.356 . S
C285 C284 1.363 . S
C285 C288 1.363 . S
N286 C288 1.356 . S
N286 H298 0.984 . S
N286 H299 0.985 . S
N287 C289 1.356 . S
N287 H292 0.984 . S
N287 H293 0.985 . S
C288 C282 1.379 . S
C288 C285 1.363 . S
C288 N286 1.356 . S
C289 C283 1.363 . S
C289 C284 1.379 . S
C289 N287 1.356 . S
N290 C282 1.356 1_556 S
N290 H296 0.984 . S
N290 H297 0.984 . S
N291 C284 1.356 . S
N291 H294 0.984 . S
N291 H295 0.985 . S
H292 N287 0.984 . S
H293 N287 0.985 . S
H294 N291 0.984 . S
H295 N291 0.985 . S
H296 N290 0.984 . S
H297 N290 0.984 . S
H298 N286 0.984 . S
H299 N286 0.985 . S
C300 C301 1.363 . S
C300 C306 1.379 . S
C300 N308 1.356 . S
C301 C300 1.363 . S
C301 C307 1.363 . S
C302 C303 1.363 . S
C302 C307 1.379 . S
C302 N309 1.356 . S
C303 C302 1.363 . S
C303 C306 1.363 . S
N304 C306 1.356 . S
N304 H316 0.984 . S
N304 H317 0.985 . S
N305 C307 1.356 . S
N305 H310 0.984 . S
N305 H311 0.985 . S
C306 C300 1.379 . S
C306 C303 1.363 . S
C306 N304 1.356 . S
C307 C301 1.363 . S
C307 C302 1.379 . S
C307 N305 1.356 . S
N308 C300 1.356 . S
N308 H314 0.984 . S
N308 H315 0.984 . S
N309 C302 1.356 . S
N309 H312 0.984 . S
N309 H313 0.985 . S
H310 N305 0.984 . S
H311 N305 0.985 . S
H312 N309 0.984 . S
H313 N309 0.985 . S
H314 N308 0.984 . S
H315 N308 0.984 . S
H316 N304 0.984 . S
H317 N304 0.985 . S
C318 C319 1.363 . S
C318 C324 1.379 . S
C318 N326 1.356 . S
C319 C318 1.363 . S
C319 C325 1.363 . S
C320 C321 1.363 . S
C320 C325 1.379 . S
C320 N327 1.356 . S
C321 C320 1.363 . S
C321 C324 1.363 . S
N322 C324 1.356 . S
N322 H334 0.984 . S
N322 H335 0.985 . S
N323 C325 1.356 . S
N323 H328 0.984 . S
N323 H329 0.985 . S
C324 C318 1.379 . S
C324 C321 1.363 . S
C324 N322 1.356 . S
C325 C319 1.363 . S
C325 C320 1.379 . S
C325 N323 1.356 . S
N326 C318 1.356 . S
N326 H332 0.984 . S
N326 H333 0.984 . S
N327 C320 1.356 . S
N327 H330 0.984 . S
N327 H331 0.985 . S
H328 N323 0.984 . S
H329 N323 0.985 . S
H330 N327 0.984 . S
H331 N327 0.985 . S
H332 N326 0.984 . S
H333 N326 0.984 . S
H334 N322 0.984 . S
H335 N322 0.985 . S
C336 C337 1.363 . S
C336 C342 1.379 . S
C336 N344 1.356 . S
C337 C336 1.363 . S
C337 C343 1.363 . S
C338 C339 1.363 . S
C338 C343 1.379 . S
C338 N345 1.356 . S
C339 C338 1.363 . S
C339 C342 1.363 . S
N340 C342 1.356 . S
N340 H352 0.984 . S
N340 H353 0.985 . S
N341 C343 1.356 . S
N341 H346 0.984 . S
N341 H347 0.985 . S
C342 C336 1.379 . S
C342 C339 1.363 . S
C342 N340 1.356 . S
C343 C337 1.363 . S
C343 C338 1.379 . S
C343 N341 1.356 . S
N344 C336 1.356 . S
N344 H350 0.984 . S
N344 H351 0.984 . S
N345 C338 1.356 . S
N345 H348 0.984 . S
N345 H349 0.985 . S
H346 N341 0.984 . S
H347 N341 0.985 . S
H348 N345 0.984 . S
H349 N345 0.985 . S
H350 N344 0.984 . S
H351 N344 0.984 . S
H352 N340 0.984 . S
H353 N340 0.985 . S
C354 C355 1.363 . S
C354 C360 1.379 . S
C354 N362 1.356 . S
C355 C354 1.363 . S
C355 C361 1.363 . S
C356 C357 1.363 . S
C356 C361 1.379 . S
C356 N363 1.356 . S
C357 C356 1.363 . S
C357 C360 1.363 . S
N358 C360 1.356 . S
N358 H370 0.984 . S
N358 H371 0.985 . S
N359 C361 1.356 . S
N359 H364 0.984 . S
N359 H365 0.985 . S
C360 C354 1.379 . S
C360 C357 1.363 . S
C360 N358 1.356 . S
C361 C355 1.363 . S
C361 C356 1.379 . S
C361 N359 1.356 . S
N362 C354 1.356 . S
N362 H368 0.984 . S
N362 H369 0.984 . S
N363 C356 1.356 . S
N363 H366 0.984 . S
N363 H367 0.985 . S
H364 N359 0.984 . S
H365 N359 0.985 . S
H366 N363 0.984 . S
H367 N363 0.985 . S
H368 N362 0.984 . S
H369 N362 0.984 . S
H370 N358 0.984 . S
H371 N358 0.985 . S
C372 C373 1.363 . S
C372 C378 1.379 . S
C372 N380 1.356 . S
C373 C372 1.363 . S
C373 C379 1.363 . S
C374 C375 1.363 . S
C374 C379 1.379 . S
C374 N381 1.356 . S
C375 C374 1.363 . S
C375 C378 1.363 . S
N376 C378 1.356 . S
N376 H388 0.984 . S
N376 H389 0.985 . S
N377 C379 1.356 . S
N377 H382 0.984 . S
N377 H383 0.985 . S
C378 C372 1.379 . S
C378 C375 1.363 . S
C378 N376 1.356 . S
C379 C373 1.363 . S
C379 C374 1.379 . S
C379 N377 1.356 . S
N380 C372 1.356 . S
N380 H386 0.980 1_556 S
N380 H387 0.984 . S
N381 C374 1.356 . S
N381 H384 0.984 . S
N381 H385 0.985 . S
H382 N377 0.984 . S
H383 N377 0.985 . S
H384 N381 0.984 . S
H385 N381 0.985 . S
H386 N380 0.980 1_554 S
H387 N380 0.984 . S
H388 N376 0.984 . S
H389 N376 0.985 . S
C390 C391 1.363 . S
C390 C396 1.379 . S
C390 N398 1.356 . S
C391 C390 1.363 . S
C391 C397 1.363 . S
C392 C393 1.363 . S
C392 C397 1.379 . S
C392 N399 1.356 . S
C393 C392 1.363 . S
C393 C396 1.363 . S
N394 C396 1.356 . S
N394 H406 0.984 . S
N394 H407 0.985 . S
N395 C397 1.356 . S
N395 H400 0.984 . S
N395 H401 0.985 . S
C396 C390 1.379 . S
C396 C393 1.363 . S
C396 N394 1.356 . S
C397 C391 1.363 . S
C397 C392 1.379 . S
C397 N395 1.356 . S
N398 C390 1.356 . S
N398 H404 0.984 . S
N398 H405 0.984 . S
N399 C392 1.356 . S
N399 H402 0.984 . S
N399 H403 0.985 . S
H400 N395 0.984 . S
H401 N395 0.985 . S
H402 N399 0.984 . S
H403 N399 0.985 . S
H404 N398 0.984 . S
H405 N398 0.984 . S
H406 N394 0.984 . S
H407 N394 0.985 . S
C408 C409 1.363 . S
C408 C414 1.379 . S
C408 N416 1.356 . S
C409 C408 1.363 . S
C409 C415 1.363 . S
C410 C411 1.363 . S
C410 C415 1.379 . S
C410 N417 1.356 . S
C411 C410 1.363 . S
C411 C414 1.363 . S
N412 C414 1.356 . S
N412 H424 0.984 . S
N412 H425 0.985 . S
N413 C415 1.356 . S
N413 H418 0.984 . S
N413 H419 0.985 . S
C414 C408 1.379 . S
C414 C411 1.363 . S
C414 N412 1.356 . S
C415 C409 1.363 . S
C415 C410 1.379 . S
C415 N413 1.356 . S
N416 C408 1.356 . S
N416 H422 0.984 1_556 S
N416 H423 0.984 1_556 S
N417 C410 1.356 . S
N417 H420 0.984 . S
N417 H421 0.985 . S
H418 N413 0.984 . S
H419 N413 0.985 . S
H420 N417 0.984 . S
H421 N417 0.985 . S
H422 N416 0.984 1_554 S
H423 N416 0.984 1_554 S
H424 N412 0.984 . S
H425 N412 0.985 . S
C426 C427 1.363 . S
C426 C432 1.379 . S
C426 N434 1.356 . S
C427 C426 1.363 . S
C427 C433 1.363 . S
C428 C429 1.363 . S
C428 C433 1.379 . S
C428 N435 1.356 . S
C429 C428 1.363 . S
C429 C432 1.363 . S
N430 C432 1.356 . S
N430 H442 0.984 . S
N430 H443 0.985 . S
N431 C433 1.356 1_554 S
N431 H436 0.984 . S
N431 H437 0.985 . S
C432 C426 1.379 . S
C432 C429 1.363 . S
C432 N430 1.356 . S
C433 C427 1.363 . S
C433 C428 1.379 . S
C433 N431 1.356 1_556 S
N434 C426 1.356 . S
N434 H440 0.984 . S
N434 H441 0.984 . S
N435 C428 1.356 . S
N435 H438 0.984 . S
N435 H439 0.985 . S
H436 N431 0.984 . S
H437 N431 0.985 . S
H438 N435 0.984 . S
H439 N435 0.985 . S
H440 N434 0.984 . S
H441 N434 0.984 . S
H442 N430 0.984 . S
H443 N430 0.985 . S
C444 C445 1.363 . S
C444 C450 1.379 . S
C444 N452 1.356 . S
C445 C444 1.363 . S
C445 C451 1.363 . S
C446 C447 1.363 . S
C446 C451 1.379 . S
C446 N453 1.356 . S
C447 C446 1.363 . S
C447 C450 1.363 . S
N448 C450 1.356 . S
N448 H460 0.984 . S
N448 H461 0.985 . S
N449 C451 1.356 . S
N449 H454 0.984 . S
N449 H455 0.985 1_565 S
C450 C444 1.379 . S
C450 C447 1.363 . S
C450 N448 1.356 . S
C451 C445 1.363 . S
C451 C446 1.379 . S
C451 N449 1.356 . S
N452 C444 1.356 . S
N452 H458 0.984 . S
N452 H459 0.984 . S
N453 C446 1.356 . S
N453 H456 0.984 . S
N453 H457 0.985 . S
H454 N449 0.984 . S
H455 N449 0.985 1_545 S
H456 N453 0.984 . S
H457 N453 0.985 . S
H458 N452 0.984 . S
H459 N452 0.984 . S
H460 N448 0.984 . S
H461 N448 0.985 . S
C462 C463 1.363 . S
C462 C468 1.379 . S
C462 N470 1.356 . S
C463 C462 1.363 . S
C463 C469 1.363 . S
C464 C465 1.363 . S
C464 C469 1.379 . S
C464 N471 1.356 . S
C465 C464 1.363 . S
C465 C468 1.363 . S
N466 C468 1.356 . S
N466 H478 0.984 . S
N466 H479 0.985 . S
N467 C469 1.356 . S
N467 H472 0.984 1_556 S
N467 H473 0.985 1_556 S
C468 C462 1.379 . S
C468 C465 1.363 . S
C468 N466 1.356 . S
C469 C463 1.363 . S
C469 C464 1.379 . S
C469 N467 1.356 . S
N470 C462 1.356 . S
N470 H476 0.984 . S
N470 H477 0.984 . S
N471 C464 1.356 . S
N471 H474 0.984 . S
N471 H475 0.985 . S
H472 N467 0.984 1_554 S
H473 N467 0.985 1_554 S
H474 N471 0.984 . S
H475 N471 0.985 . S
H476 N470 0.984 . S
H477 N470 0.984 . S
H478 N466 0.984 . S
H479 N466 0.985 . S
C480 C481 1.363 . S
C480 C486 1.379 . S
C480 N488 1.356 . S
C481 C480 1.363 . S
C481 C487 1.363 . S
C482 C483 1.363 . S
C482 C487 1.379 . S
C482 N489 1.356 . S
C483 C482 1.363 . S
C483 C486 1.363 . S
N484 C486 1.356 . S
N484 H496 0.984 . S
N484 H497 0.985 . S
N485 C487 1.356 . S
N485 H490 0.984 . S
N485 H491 0.985 . S
C486 C480 1.379 . S
C486 C483 1.363 . S
C486 N484 1.356 . S
C487 C481 1.363 . S
C487 C482 1.379 . S
C487 N485 1.356 . S
N488 C480 1.356 . S
N488 H494 0.984 . S
N488 H495 0.984 . S
N489 C482 1.356 . S
N489 H492 0.984 . S
N489 H493 0.985 . S
H490 N485 0.984 . S
H491 N485 0.985 . S
H492 N489 0.984 . S
H493 N489 0.985 . S
H494 N488 0.984 . S
H495 N488 0.984 . S
H496 N484 0.984 . S
H497 N484 0.985 . S
C498 C499 1.363 . S
C498 C504 1.379 . S
C498 N506 1.356 . S
C499 C498 1.363 . S
C499 C505 1.363 . S
C500 C501 1.363 . S
C500 C505 1.379 . S
C500 N507 1.356 . S
C501 C500 1.363 . S
C501 C504 1.363 . S
N502 C504 1.356 . S
N502 H514 0.984 . S
N502 H515 0.985 . S
N503 C505 1.356 . S
N503 H508 0.984 . S
N503 H509 0.985 . S
C504 C498 1.379 . S
C504 C501 1.363 . S
C504 N502 1.356 . S
C505 C499 1.363 . S
C505 C500 1.379 . S
C505 N503 1.356 . S
N506 C498 1.356 . S
N506 H512 0.984 1_556 S
N506 H513 0.984 1_556 S
N507 C500 1.356 . S
N507 H510 0.984 . S
N507 H511 0.985 . S
H508 N503 0.984 . S
H509 N503 0.985 . S
H510 N507 0.984 . S
H511 N507 0.985 . S
H512 N506 0.984 1_554 S
H513 N506 0.984 1_554 S
H514 N502 0.984 . S
H515 N502 0.985 . S
C516 C517 1.363 . S
C516 C522 1.379 . S
C516 N524 1.356 . S
C517 C516 1.363 . S
C517 C523 1.363 . S
C518 C519 1.363 . S
C518 C523 1.379 . S
C518 N525 1.356 . S
C519 C518 1.363 . S
C519 C522 1.363 . S
N520 C522 1.356 . S
N520 H532 0.984 . S
N520 H533 0.985 . S
N521 C523 1.356 . S
N521 H526 0.984 . S
N521 H527 0.985 . S
C522 C516 1.379 . S
C522 C519 1.363 . S
C522 N520 1.356 . S
C523 C517 1.363 . S
C523 C518 1.379 . S
C523 N521 1.356 . S
N524 C516 1.356 . S
N524 H530 0.984 . S
N524 H531 0.984 . S
N525 C518 1.356 . S
N525 H528 0.984 . S
N525 H529 0.985 . S
H526 N521 0.984 . S
H527 N521 0.985 . S
H528 N525 0.984 . S
H529 N525 0.985 . S
H530 N524 0.984 . S
H531 N524 0.984 . S
H532 N520 0.984 . S
H533 N520 0.985 . S
C534 C535 1.363 . S
C534 C540 1.379 . S
C534 N542 1.356 . S
C535 C534 1.363 . S
C535 C541 1.363 . S
C536 C537 1.363 . S
C536 C541 1.379 . S
C536 N543 1.356 . S
C537 C536 1.363 . S
C537 C540 1.363 . S
N538 C540 1.356 . S
N538 H550 0.984 . S
N538 H551 0.985 . S
N539 C541 1.356 . S
N539 H544 0.984 . S
N539 H545 0.985 . S
C540 C534 1.379 . S
C540 C537 1.363 . S
C540 N538 1.356 . S
C541 C535 1.363 . S
C541 C536 1.379 . S
C541 N539 1.356 . S
N542 C534 1.356 . S
N542 H548 0.984 . S
N542 H549 0.984 . S
N543 C536 1.356 . S
N543 H546 0.984 . S
N543 H547 0.985 . S
H544 N539 0.984 . S
H545 N539 0.985 . S
H546 N543 0.984 . S
H547 N543 0.985 . S
H548 N542 0.984 . S
H549 N542 0.984 . S
H550 N538 0.984 . S
H551 N538 0.985 . S
C552 C553 1.363 . S
C552 C558 1.379 . S
C552 N560 1.356 . S
C553 C552 1.363 . S
C553 C559 1.363 . S
C554 C555 1.363 . S
C554 C559 1.379 . S
C554 N561 1.356 . S
C555 C554 1.363 . S
C555 C558 1.363 . S
N556 C558 1.356 . S
N556 H568 0.984 . S
N556 H569 0.985 . S
N557 C559 1.356 . S
N557 H562 0.984 . S
N557 H563 0.985 1_554 S
C558 C552 1.379 . S
C558 C555 1.363 . S
C558 N556 1.356 . S
C559 C553 1.363 . S
C559 C554 1.379 . S
C559 N557 1.356 . S
N560 C552 1.356 . S
N560 H566 0.984 . S
N560 H567 0.984 . S
N561 C554 1.356 . S
N561 H564 0.984 . S
N561 H565 0.985 . S
H562 N557 0.984 . S
H563 N557 0.985 1_556 S
H564 N561 0.984 . S
H565 N561 0.985 . S
H566 N560 0.984 . S
H567 N560 0.984 . S
H568 N556 0.984 . S
H569 N556 0.985 . S
C570 C571 1.363 . S
C570 C576 1.379 . S
C570 N578 1.356 . S
C571 C570 1.363 . S
C571 C577 1.363 . S
C572 C573 1.363 . S
C572 C577 1.379 . S
C572 N579 1.356 . S
C573 C572 1.363 . S
C573 C576 1.363 . S
N574 C576 1.356 . S
N574 H586 0.984 . S
N574 H587 0.985 . S
N575 C577 1.356 . S
N575 H580 0.984 . S
N575 H581 0.985 . S
C576 C570 1.379 . S
C576 C573 1.363 . S
C576 N574 1.356 . S
C577 C571 1.363 . S
C577 C572 1.379 . S
C577 N575 1.356 . S
N578 C570 1.356 . S
N578 H584 0.984 1_655 S
N578 H585 0.984 . S
N579 C572 1.356 . S
N579 H582 0.984 . S
N579 H583 0.985 . S
H580 N575 0.984 . S
H581 N575 0.985 . S
H582 N579 0.984 . S
H583 N579 0.985 . S
H584 N578 0.984 1_455 S
H585 N578 0.984 . S
H586 N574 0.984 . S
H587 N574 0.985 . S
C588 C589 1.363 . S
C588 C594 1.379 . S
C588 N596 1.356 . S
C589 C588 1.363 . S
C589 C595 1.363 . S
C590 C591 1.363 . S
C590 C595 1.379 . S
C590 N597 1.356 . S
C591 C590 1.363 . S
C591 C594 1.363 . S
N592 C594 1.356 . S
N592 H604 0.984 . S
N592 H605 0.985 . S
N593 C595 1.356 . S
N593 H598 0.984 . S
N593 H599 0.985 . S
C594 C588 1.379 . S
C594 C591 1.363 . S
C594 N592 1.356 . S
C595 C589 1.363 . S
C595 C590 1.379 . S
C595 N593 1.356 . S
N596 C588 1.356 . S
N596 H602 0.984 1_565 S
N596 H603 0.984 . S
N597 C590 1.356 . S
N597 H600 0.984 . S
N597 H601 0.985 . S
H598 N593 0.984 . S
H599 N593 0.985 . S
H600 N597 0.984 . S
H601 N597 0.985 . S
H602 N596 0.984 1_545 S
H603 N596 0.984 . S
H604 N592 0.984 . S
H605 N592 0.985 . S
C606 C607 1.363 . S
C606 C612 1.379 . S
C606 N614 1.356 . S
C607 C606 1.363 . S
C607 C613 1.363 . S
C608 C609 1.363 . S
C608 C613 1.379 . S
C608 N615 1.356 . S
C609 C608 1.363 . S
C609 C612 1.363 . S
N610 C612 1.356 . S
N610 H622 0.984 . S
N610 H623 0.985 . S
N611 C613 1.356 . S
N611 H616 0.984 . S
N611 H617 0.985 . S
C612 C606 1.379 . S
C612 C609 1.363 . S
C612 N610 1.356 . S
C613 C607 1.363 . S
C613 C608 1.379 . S
C613 N611 1.356 . S
N614 C606 1.356 . S
N614 H620 0.984 . S
N614 H621 0.984 . S
N615 C608 1.356 . S
N615 H618 0.984 . S
N615 H619 0.985 . S
H616 N611 0.984 . S
H617 N611 0.985 . S
H618 N615 0.984 . S
H619 N615 0.985 . S
H620 N614 0.984 . S
H621 N614 0.984 . S
H622 N610 0.984 . S
H623 N610 0.985 . S
C624 C625 1.363 . S
C624 C630 1.379 . S
C624 N632 1.356 1_554 S
C625 C624 1.363 . S
C625 C631 1.363 . S
C626 C627 1.363 . S
C626 C631 1.379 . S
C626 N633 1.356 . S
C627 C626 1.363 . S
C627 C630 1.363 . S
N628 C630 1.356 . S
N628 H640 0.984 . S
N628 H641 0.985 . S
N629 C631 1.356 . S
N629 H634 0.984 . S
N629 H635 0.985 . S
C630 C624 1.379 . S
C630 C627 1.363 . S
C630 N628 1.356 . S
C631 C625 1.363 . S
C631 C626 1.379 . S
C631 N629 1.356 . S
N632 C624 1.356 1_556 S
N632 H638 0.984 . S
N632 H639 0.984 . S
N633 C626 1.356 . S
N633 H636 0.984 . S
N633 H637 0.985 . S
H634 N629 0.984 . S
H635 N629 0.985 . S
H636 N633 0.984 . S
H637 N633 0.985 . S
H638 N632 0.984 . S
H639 N632 0.984 . S
H640 N628 0.984 . S
H641 N628 0.985 . S
C211 C13 1.582 . S
C213 C93 1.409 . S
C229 C27 1.617 . S
C231 C114 1.443 . S
C249 C135 1.411 . S
C247 C29 1.585 . S
C267 C164 1.554 . S
C265 C54 1.630 . S
C285 C177 1.410 . S
C283 C69 1.582 . S
C303 C201 1.545 . S
C301 C83 1.618 . S
C319 C15 1.575 . S
C321 C145 1.423 . S
C337 C41 1.623 . S
C339 C159 1.549 . S
C357 C187 1.427 . S
C355 C42 1.579 . S
C375 C206 1.552 . S
C373 C57 1.631 . S
C391 C71 1.580 . S
C393 C103 1.428 . S
C411 C124 1.462 . S
C409 C1 1.615 . S
C429 C166 1.547 . S
C427 C12 1.612 . S
C445 C26 1.662 . S
C447 C180 1.436 . S
C465 C198 1.558 . S
C463 C28 1.625 . S
C481 C55 1.662 . S
C483 C96 1.437 . S
C499 C68 1.627 . S
C501 C117 1.403 . S
C517 C82 1.660 . S
C519 C138 1.436 . S
C535 C14 1.612 . S
C537 C208 1.549 . S
C555 C101 1.459 . S
C553 C40 1.661 . S
C571 C43 1.627 . S
C573 C122 1.426 . S
C589 C56 1.667 . S
C591 C143 1.463 . S
C607 C70 1.621 . S
C609 C156 1.555 . S
C625 C0 1.662 . S
C627 C185 1.458 . S
