# Generated by pormake.
# Topology llj, (12,3)-cn, num edge types: 1
# Building blocks:
#     Node 0, Type 0, BuildingBlock: QEWDON_clean_sbu_0, # of connection points: 12
#     Node 1, Type 0, BuildingBlock: QEWDON_clean_sbu_0, # of connection points: 12
#     Node 2, Type 1, BuildingBlock: KAKCAD_clean_linker_0, # of connection points: 3
#     Node 3, Type 1, BuildingBlock: KAKCAD_clean_linker_0, # of connection points: 3
#     Node 4, Type 1, BuildingBlock: KAKCAD_clean_linker_0, # of connection points: 3
#     Node 5, Type 1, BuildingBlock: KAKCAD_clean_linker_0, # of connection points: 3
#     Node 6, Type 1, BuildingBlock: KAKCAD_clean_linker_0, # of connection points: 3
#     Node 7, Type 1, BuildingBlock: KAKCAD_clean_linker_0, # of connection points: 3
#     Node 8, Type 1, BuildingBlock: KAKCAD_clean_linker_0, # of connection points: 3
#     Node 9, Type 1, BuildingBlock: KAKCAD_clean_linker_0, # of connection points: 3
#     Edge 10, Type (0, 1), BuildingBlock: XIVTED_clean_linker_0, # of connection points: 2
#     Edge 11, Type (0, 1), BuildingBlock: XIVTED_clean_linker_0, # of connection points: 2
#     Edge 12, Type (0, 1), BuildingBlock: XIVTED_clean_linker_0, # of connection points: 2
#     Edge 13, Type (0, 1), BuildingBlock: XIVTED_clean_linker_0, # of connection points: 2
#     Edge 14, Type (0, 1), BuildingBlock: XIVTED_clean_linker_0, # of connection points: 2
#     Edge 15, Type (0, 1), BuildingBlock: XIVTED_clean_linker_0, # of connection points: 2
#     Edge 16, Type (0, 1), BuildingBlock: XIVTED_clean_linker_0, # of connection points: 2
#     Edge 17, Type (0, 1), BuildingBlock: XIVTED_clean_linker_0, # of connection points: 2
#     Edge 18, Type (0, 1), BuildingBlock: XIVTED_clean_linker_0, # of connection points: 2
#     Edge 19, Type (0, 1), BuildingBlock: XIVTED_clean_linker_0, # of connection points: 2
#     Edge 20, Type (0, 1), BuildingBlock: XIVTED_clean_linker_0, # of connection points: 2
#     Edge 21, Type (0, 1), BuildingBlock: XIVTED_clean_linker_0, # of connection points: 2
#     Edge 22, Type (0, 1), BuildingBlock: XIVTED_clean_linker_0, # of connection points: 2
#     Edge 23, Type (0, 1), BuildingBlock: XIVTED_clean_linker_0, # of connection points: 2
#     Edge 24, Type (0, 1), BuildingBlock: XIVTED_clean_linker_0, # of connection points: 2
#     Edge 25, Type (0, 1), BuildingBlock: XIVTED_clean_linker_0, # of connection points: 2
#     Edge 26, Type (0, 1), BuildingBlock: XIVTED_clean_linker_0, # of connection points: 2
#     Edge 27, Type (0, 1), BuildingBlock: XIVTED_clean_linker_0, # of connection points: 2
#     Edge 28, Type (0, 1), BuildingBlock: XIVTED_clean_linker_0, # of connection points: 2
#     Edge 29, Type (0, 1), BuildingBlock: XIVTED_clean_linker_0, # of connection points: 2
#     Edge 30, Type (0, 1), BuildingBlock: XIVTED_clean_linker_0, # of connection points: 2
#     Edge 31, Type (0, 1), BuildingBlock: XIVTED_clean_linker_0, # of connection points: 2
#     Edge 32, Type (0, 1), BuildingBlock: XIVTED_clean_linker_0, # of connection points: 2
#     Edge 33, Type (0, 1), BuildingBlock: XIVTED_clean_linker_0, # of connection points: 2
# Relax obj value: 0.011
# Max RMSD: 0.052
# Mean RMSD: 0.049
data_MOF--net-llj--node1-QEWDON_clean_sbu_0--node2-KAKCAD_clean_linker_0--edge1-XIVTED_clean_linker_0
_symmetry_space_group_name_H-M    P1
_symmetry_Int_Tables_number       1
_symmetry_cell_setting            triclinic
loop_
_symmetry_equiv_pos_as_xyz
'x, y, z'
_cell_length_a     45.464209
_cell_length_b     45.496927
_cell_length_c     31.734359
_cell_angle_alpha  89.969021
_cell_angle_beta   90.038573
_cell_angle_gamma 89.951745
loop_
_atom_site_label
_atom_site_type_symbol
_atom_site_fract_x
_atom_site_fract_y
_atom_site_fract_z
_atom_type_partial_charge
Zn0 Zn 0.94673 0.06496 0.95962 0.0
Zn1 Zn 0.94479 0.05618 0.05859 0.0
O2 O 0.9719 0.0538 0.0095 0.0
H3 H 0.98797 0.04002 0.00693 0.0
C4 C 0.9454 0.975 0.88714 0.0
O5 O 0.96689 0.98233 0.91271 0.0
Zn6 Zn 0.04258 0.94539 0.05271 0.0
Zn7 Zn 0.04459 0.94036 0.95209 0.0
O8 O 0.01832 0.95149 0.00114 0.0
H9 H 0.00139 0.96428 -0.00081 0.0
Zn10 Zn 0.93407 0.94167 0.96019 0.0
O11 O 0.93628 0.97344 0.00458 0.0
Zn12 Zn 0.93568 0.95017 0.05794 0.0
H13 H 0.94672 0.99162 -0.00019 0.0
Zn14 Zn 0.04566 0.06048 0.96244 0.0
O15 O 0.04648 0.02823 0.00645 0.0
H16 H 0.05218 0.00818 0.00068 0.0
Zn17 Zn 0.04919 0.0504 0.06055 0.0
C18 C 0.0405 0.02381 0.88961 0.0
O19 O 0.02235 0.01077 0.91578 0.0
O20 O 0.90831 0.08645 0.97453 0.0
O21 O 0.90901 0.0814 0.04425 0.0
O22 O 0.08355 0.92044 0.96903 0.0
O23 O 0.0804 0.92334 0.03883 0.0
O24 O 0.91526 0.90345 0.98063 0.0
O25 O 0.9125 0.91206 0.04956 0.0
C26 C 0.9944 0.07127 0.11011 0.0
O27 O 0.06642 0.09807 0.98192 0.0
O28 O 0.07142 0.08886 0.05038 0.0
O29 O 0.02395 0.926 0.89794 0.0
C30 C 0.897 0.09115 0.01064 0.0
O31 O 0.96957 0.07639 0.90614 0.0
C32 C 0.99113 0.92299 0.09646 0.0
O33 O 0.92692 0.95595 0.89933 0.0
C34 C 0.09397 0.91529 0.00558 0.0
O35 O 0.05379 0.04681 0.90167 0.0
C36 C 0.92218 0.00335 0.10306 0.0
O37 O 0.96647 0.07283 0.10921 0.0
O38 O 0.0073 0.059 0.07912 0.0
C39 C 0.90742 0.89578 0.01756 0.0
O40 O 0.019 0.9217 0.09499 0.0
O41 O 0.97806 0.94009 0.07073 0.0
C42 C 0.06886 0.9974 0.10224 0.0
O43 O 0.91955 0.97563 0.10555 0.0
O44 O 0.93296 0.0144 0.06981 0.0
C45 C 0.07578 0.10526 0.01831 0.0
O46 O 0.07077 0.02525 0.10356 0.0
O47 O 0.05255 0.98609 0.07396 0.0
C48 C -0.00149 0.91469 0.90104 0.0
O49 O 0.98642 0.91222 0.93846 0.0
C50 C 0.99218 0.09246 0.91077 0.0
O51 O -0.00091 0.10184 0.94865 0.0
Zn52 Zn 0.42622 0.56411 0.47702 0.0
Zn53 Zn 0.43029 0.55709 0.57621 0.0
O54 O 0.45492 0.56202 0.52508 0.0
H55 H 0.47537 0.55682 0.5216 0.0
C56 C 0.43402 0.49521 0.42727 0.0
O57 O 0.41911 0.49735 0.4626 0.0
Zn58 Zn 0.56086 0.44402 0.57449 0.0
Zn59 Zn 0.56693 0.43515 0.4745 0.0
O60 O 0.53788 0.44166 0.52148 0.0
H61 H 0.51742 0.4467 0.51754 0.0
Zn62 Zn 0.4636 0.45469 0.48031 0.0
O63 O 0.46422 0.48101 0.53144 0.0
Zn64 Zn 0.45881 0.45369 0.57955 0.0
H65 H 0.46748 0.50196 0.53134 0.0
Zn66 Zn 0.52471 0.54365 0.48472 0.0
O67 O 0.52417 0.518 0.5366 0.0
H68 H 0.51934 0.4974 0.53793 0.0
Zn69 Zn 0.53082 0.54562 0.58365 0.0
C70 C 0.5539 0.50469 0.42976 0.0
O71 O 0.57203 0.50658 0.46191 0.0
O72 O 0.38478 0.57609 0.49582 0.0
O73 O 0.38878 0.57297 0.56563 0.0
O74 O 0.60794 0.42279 0.49567 0.0
O75 O 0.60234 0.4278 0.56513 0.0
O76 O 0.43912 0.41737 0.49079 0.0
O77 O 0.43334 0.4193 0.56043 0.0
C78 C 0.47769 0.57539 0.62658 0.0
O79 O 0.55139 0.57993 0.49323 0.0
O80 O 0.55731 0.5787 0.56291 0.0
O81 O 0.54932 0.41482 0.42201 0.0
C82 C 0.37387 0.57903 0.53256 0.0
O83 O 0.44329 0.58316 0.42357 0.0
C84 C 0.51219 0.42304 0.62105 0.0
O85 O 0.45539 0.47726 0.42533 0.0
C86 C 0.61787 0.4207 0.53314 0.0
O87 O 0.53033 0.51967 0.43028 0.0
C88 C 0.43184 0.50193 0.62501 0.0
O89 O 0.45 0.57877 0.62413 0.0
O90 O 0.49014 0.56015 0.59816 0.0
C91 C 0.42827 0.40719 0.52483 0.0
O92 O 0.53994 0.42014 0.61889 0.0
O93 O 0.49981 0.43976 0.59418 0.0
C94 C 0.55785 0.49742 0.62813 0.0
O95 O 0.44093 0.47567 0.62911 0.0
O96 O 0.43188 0.51363 0.58869 0.0
C97 C 0.56285 0.59005 0.52694 0.0
O98 O 0.54834 0.52348 0.63316 0.0
O99 O 0.55902 0.48686 0.59112 0.0
C100 C 0.52484 0.40178 0.42681 0.0
O101 O 0.5128 0.40093 0.46439 0.0
C102 C 0.46508 0.60026 0.42838 0.0
O103 O 0.47488 0.60558 0.46657 0.0
C104 C 0.37166 0.3372 0.86901 0.0
C105 C 0.40241 0.33555 0.86434 0.0
C106 C 0.3583 0.32955 0.90712 0.0
C107 C 0.37532 0.31965 0.94131 0.0
C108 C 0.40589 0.31672 0.93595 0.0
C109 C 0.41928 0.32485 0.89819 0.0
C110 C 0.36159 0.31352 0.98295 0.0
C111 C 0.33357 0.30061 0.98589 0.0
C112 C 0.3208 0.29493 0.0254 0.0
C113 C 0.33636 0.30214 0.0622 0.0
C114 C 0.36437 0.31486 0.05979 0.0
C115 C 0.37663 0.32078 0.0202 0.0
C116 C 0.38114 0.32175 0.09853 0.0
C117 C 0.36756 0.33609 0.1325 0.0
C118 C 0.41105 0.31426 0.10146 0.0
C119 C 0.42716 0.32121 0.13751 0.0
C120 C 0.41373 0.33592 0.17135 0.0
C121 C 0.29157 0.28069 0.02833 0.0
C122 C 0.26824 0.28988 0.00241 0.0
C123 C 0.28694 0.25753 0.05683 0.0
C124 C 0.2597 0.24351 0.05892 0.0
C125 C 0.23641 0.25239 0.03265 0.0
C126 C 0.24092 0.27592 0.00462 0.0
C127 C 0.38371 0.34318 0.16852 0.0
H128 H 0.35784 0.34474 0.84341 0.0
H129 H 0.33473 0.33223 0.91008 0.0
H130 H 0.41967 0.30851 0.9612 0.0
H131 H 0.443 0.32353 0.8962 0.0
H132 H 0.322 0.29418 0.9575 0.0
H133 H 0.3978 0.33165 0.01855 0.0
H134 H 0.32676 0.29763 0.09278 0.0
H135 H 0.3446 0.34238 0.13085 0.0
H136 H 0.42195 0.30278 0.07595 0.0
H137 H 0.45009 0.31483 0.13899 0.0
H138 H 0.2711 0.30795 0.98056 0.0
H139 H 0.30463 0.2497 0.07679 0.0
H140 H 0.37281 0.35491 0.19378 0.0
H141 H 0.22333 0.28356 0.98434 0.0
H142 H 0.25721 0.22509 0.08025 0.0
C143 C 0.60697 0.34383 0.88195 0.0
C144 C 0.6069 0.37468 0.87991 0.0
C145 C 0.6152 0.32946 0.91916 0.0
C146 C 0.62364 0.34573 0.95483 0.0
C147 C 0.62441 0.37657 0.95214 0.0
C148 C 0.616 0.39086 0.91522 0.0
C149 C 0.63105 0.33093 0.99518 0.0
C150 C 0.64853 0.30544 -0.00398 0.0
C151 C 0.65685 0.29257 0.03462 0.0
C152 C 0.6469 0.30517 0.07251 0.0
C153 C 0.62977 0.33074 0.07192 0.0
C154 C 0.62168 0.34327 0.03339 0.0
C155 C 0.62247 0.34618 0.11132 0.0
C156 C 0.60468 0.33299 0.14208 0.0
C157 C 0.63294 0.37483 0.11763 0.0
C158 C 0.62576 0.39016 0.15419 0.0
C159 C 0.60757 0.37728 0.18474 0.0
C160 C 0.6779 0.26758 0.03539 0.0
C161 C 0.67581 0.24465 0.00585 0.0
C162 C 0.70122 0.26729 0.06452 0.0
C163 C 0.72226 0.24496 0.06364 0.0
C164 C 0.72056 0.22239 0.03352 0.0
C165 C 0.69693 0.2223 0.00491 0.0
C166 C 0.59697 0.34861 0.17843 0.0
H167 H 0.59999 0.33085 0.85514 0.0
H168 H 0.61426 0.30568 0.92032 0.0
H169 H 0.63158 0.38975 0.97862 0.0
H170 H 0.61681 0.41465 0.91421 0.0
H171 H 0.6569 0.29654 0.96672 0.0
H172 H 0.60818 0.36293 0.03336 0.0
H173 H 0.65329 0.29574 0.10254 0.0
H174 H 0.59636 0.31091 0.13759 0.0
H175 H 0.64674 0.38532 0.09421 0.0
H176 H 0.63401 0.41231 0.15828 0.0
H177 H 0.65791 0.24407 0.98332 0.0
H178 H 0.70384 0.28491 0.08715 0.0
H179 H 0.58298 0.33827 0.20174 0.0
H180 H 0.69482 0.20501 0.98167 0.0
H181 H 0.74045 0.24597 0.08563 0.0
C182 C 0.59587 0.68474 0.17025 0.0
C183 C 0.57865 0.65918 0.1729 0.0
C184 C 0.61325 0.68998 0.1348 0.0
C185 C 0.61376 0.66972 0.1014 0.0
C186 C 0.59674 0.64405 0.10426 0.0
C187 C 0.57935 0.63884 0.13963 0.0
C188 C 0.63145 0.67562 0.06322 0.0
C189 C 0.66012 0.68669 0.0665 0.0
C190 C 0.67674 0.69278 0.03024 0.0
C191 C 0.66456 0.68707 0.99031 0.0
C192 C 0.63576 0.67632 0.98673 0.0
C193 C 0.6194 0.67064 0.02323 0.0
C194 C 0.62215 0.67126 0.94512 0.0
C195 C 0.59413 0.68272 0.93645 0.0
C196 C 0.63595 0.65325 0.91522 0.0
C197 C 0.62126 0.64557 0.87811 0.0
C198 C 0.59264 0.65604 0.87017 0.0
C199 C 0.70603 0.70673 0.03424 0.0
C200 C 0.7101 0.73005 0.06263 0.0
C201 C 0.72974 0.69766 0.00903 0.0
C202 C 0.75681 0.7121 0.01155 0.0
C203 C 0.76062 0.73596 0.0392 0.0
C204 C 0.73705 0.7445 0.06507 0.0
C205 C 0.57959 0.67534 0.89927 0.0
H206 H 0.59552 0.70094 0.19524 0.0
H207 H 0.62585 0.71014 0.13317 0.0
H208 H 0.59705 0.62785 0.07926 0.0
H209 H 0.56674 0.61868 0.14117 0.0
H210 H 0.66962 0.69037 0.09739 0.0
H211 H 0.59709 0.66247 0.02041 0.0
H212 H 0.67694 0.69214 0.96204 0.0
H213 H 0.58325 0.69702 0.95886 0.0
H214 H 0.65751 0.64404 0.92143 0.0
H215 H 0.63187 0.63047 0.85656 0.0
H216 H 0.6921 0.73786 0.082 0.0
H217 H 0.7273 0.6795 0.98725 0.0
H218 H 0.55791 0.6844 0.89366 0.0
H219 H 0.73899 0.76317 0.08604 0.0
H220 H 0.77466 0.70478 0.99154 0.0
C221 C 0.36729 0.60432 0.14482 0.0
C222 C 0.37612 0.61981 0.18085 0.0
C223 C 0.35864 0.61932 0.10864 0.0
C224 C 0.35894 0.65021 0.10742 0.0
C225 C 0.36704 0.6658 0.14387 0.0
C226 C 0.37547 0.65069 0.18039 0.0
C227 C 0.35138 0.66568 0.06766 0.0
C228 C 0.33346 0.69082 0.06761 0.0
C229 C 0.32485 0.70401 0.02941 0.0
C230 C 0.33433 0.69169 0.99107 0.0
C231 C 0.35227 0.66656 0.99073 0.0
C232 C 0.36123 0.65427 0.02916 0.0
C233 C 0.36058 0.6519 0.95067 0.0
C234 C 0.3603 0.62104 0.94816 0.0
C235 C 0.36924 0.66822 0.91515 0.0
C236 C 0.37813 0.65387 0.87826 0.0
C237 C 0.37866 0.623 0.87646 0.0
C238 C 0.30463 0.72965 0.02938 0.0
C239 C 0.28016 0.73029 0.05642 0.0
C240 C 0.30909 0.75321 0.00144 0.0
C241 C 0.28924 0.77666 9e-05 0.0
C242 C 0.26449 0.77704 0.02662 0.0
C243 C 0.26033 0.75372 0.05506 0.0
C244 C 0.36939 0.60679 0.91161 0.0
H245 H 0.36695 0.5805 0.14466 0.0
H246 H 0.35173 0.60664 0.08151 0.0
H247 H 0.36759 0.68959 0.14385 0.0
H248 H 0.38223 0.66311 0.20785 0.0
H249 H 0.32578 0.69979 0.09725 0.0
H250 H 0.37589 0.63548 0.02909 0.0
H251 H 0.3267 0.70089 0.96151 0.0
H252 H 0.35296 0.6078 0.97451 0.0
H253 H 0.36979 0.69201 0.91618 0.0
H254 H 0.38521 0.66686 0.85152 0.0
H255 H 0.27583 0.71225 0.0778 0.0
H256 H 0.32795 0.75351 0.98061 0.0
H257 H 0.3689 0.58299 0.91074 0.0
H258 H 0.24123 0.75307 0.07541 0.0
H259 H 0.29327 0.79449 0.97823 0.0
C260 C 0.86393 0.81554 0.34114 0.0
C261 C 0.89462 0.81733 0.33625 0.0
C262 C 0.85165 0.80703 0.37958 0.0
C263 C 0.86977 0.79983 0.41399 0.0
C264 C 0.90046 0.80035 0.40853 0.0
C265 C 0.91274 0.80912 0.37021 0.0
C266 C 0.85674 0.79328 0.45594 0.0
C267 C 0.83051 0.77713 0.45938 0.0
C268 C 0.81747 0.77214 0.49888 0.0
C269 C 0.83115 0.78317 0.53528 0.0
C270 C 0.85744 0.79919 0.53249 0.0
C271 C 0.87 0.80421 0.49275 0.0
C272 C 0.87155 0.81131 0.5709 0.0
C273 C 0.8546 0.82522 0.60208 0.0
C274 C 0.90217 0.80946 0.57627 0.0
C275 C 0.91559 0.82144 0.61191 0.0
C276 C 0.8987 0.8356 0.64296 0.0
C277 C 0.78935 0.75577 0.5021 0.0
C278 C 0.76624 0.76147 0.47379 0.0
C279 C 0.7853 0.73456 0.53376 0.0
C280 C 0.75873 0.71937 0.53704 0.0
C281 C 0.73557 0.72508 0.50879 0.0
C282 C 0.73964 0.7463 0.47711 0.0
C283 C 0.86803 0.83725 0.63772 0.0
H284 H 0.84929 0.82118 0.31544 0.0
H285 H 0.82793 0.80708 0.38267 0.0
H286 H 0.91508 0.79442 0.43413 0.0
H287 H 0.93645 0.81044 0.3678 0.0
H288 H 0.82038 0.76808 0.43134 0.0
H289 H 0.88965 0.81758 0.49043 0.0
H290 H 0.8212 0.77945 0.56585 0.0
H291 H 0.83099 0.82734 0.59853 0.0
H292 H 0.91576 0.7985 0.55305 0.0
H293 H 0.9392 0.81932 0.61535 0.0
H294 H 0.76856 0.778 0.44945 0.0
H295 H 0.80285 0.7294 0.55566 0.0
H296 H 0.85443 0.84836 0.66076 0.0
H297 H 0.72211 0.75149 0.4552 0.0
H298 H 0.75652 0.70278 0.56131 0.0
C299 C 0.14843 0.85399 0.35071 0.0
C300 C 0.15098 0.8845 0.34429 0.0
C301 C 0.15161 0.84196 0.39101 0.0
C302 C 0.15776 0.86012 0.42573 0.0
C303 C 0.16193 0.89036 0.41886 0.0
C304 C 0.15834 0.90242 0.3788 0.0
C305 C 0.15854 0.84803 0.46926 0.0
C306 C 0.17087 0.82034 0.47771 0.0
C307 C 0.17181 0.80929 0.51905 0.0
C308 C 0.16058 0.82633 0.55227 0.0
C309 C 0.14792 0.85396 0.54432 0.0
C310 C 0.14666 0.86434 0.50271 0.0
C311 C 0.13599 0.87226 0.5791 0.0
C312 C 0.11972 0.85955 0.61203 0.0
C313 C 0.14022 0.90287 0.5789 0.0
C314 C 0.12802 0.92043 0.61037 0.0
C315 C 0.11155 0.90781 0.64316 0.0
C316 C 0.18522 0.7802 0.52737 0.0
C317 C 0.17768 0.75588 0.50241 0.0
C318 C 0.2065 0.77683 0.55908 0.0
C319 C 0.22092 0.74995 0.5645 0.0
C320 C 0.21414 0.7258 0.53855 0.0
C321 C 0.19184 0.72893 0.50811 0.0
C322 C 0.10767 0.87713 0.64376 0.0
H323 H 0.14335 0.8394 0.32478 0.0
H324 H 0.14823 0.81857 0.39511 0.0
H325 H 0.16739 0.90493 0.44468 0.0
H326 H 0.16021 0.92602 0.37541 0.0
H327 H 0.1805 0.80766 0.45231 0.0
H328 H 0.13583 0.88508 0.49622 0.0
H329 H 0.16178 0.81805 0.58426 0.0
H330 H 0.11586 0.83607 0.61293 0.0
H331 H 0.153 0.91335 0.55434 0.0
H332 H 0.13121 0.94398 0.6086 0.0
H333 H 0.16098 0.75781 0.47818 0.0
H334 H 0.21285 0.79532 0.57856 0.0
H335 H 0.09547 0.86663 0.66889 0.0
H336 H 0.1856 0.71066 0.48816 0.0
H337 H 0.23825 0.74854 0.58783 0.0
C338 C 0.12885 0.1697 0.65886 0.0
C339 C 0.11976 0.14035 0.66321 0.0
C340 C 0.14181 0.17935 0.62148 0.0
C341 C 0.14592 0.15984 0.58769 0.0
C342 C 0.13773 0.13026 0.59253 0.0
C343 C 0.1248 0.12061 0.62993 0.0
C344 C 0.15733 0.1707 0.54685 0.0
C345 C 0.18095 0.19047 0.54556 0.0
C346 C 0.19093 0.20198 0.50705 0.0
C347 C 0.1769 0.19355 0.46947 0.0
C348 C 0.15341 0.17356 0.47038 0.0
C349 C 0.14386 0.16215 0.50905 0.0
C350 C 0.13827 0.16468 0.43124 0.0
C351 C 0.12581 0.18586 0.40443 0.0
C352 C 0.13488 0.13475 0.42176 0.0
C353 C 0.11921 0.12608 0.38608 0.0
C354 C 0.10621 0.14719 0.35966 0.0
C355 C 0.21617 0.22257 0.50654 0.0
C356 C 0.21802 0.24517 0.53655 0.0
C357 C 0.23913 0.21905 0.47736 0.0
C358 C 0.26382 0.23733 0.4789 0.0
C359 C 0.26596 0.25951 0.5096 0.0
C360 C 0.24261 0.26344 0.53804 0.0
C361 C 0.10962 0.17716 0.36908 0.0
H362 H 0.12489 0.18555 0.68368 0.0
H363 H 0.14759 0.20235 0.61848 0.0
H364 H 0.14108 0.11464 0.56724 0.0
H365 H 0.11846 0.09774 0.63263 0.0
H366 H 0.19193 0.19652 0.57463 0.0
H367 H 0.12519 0.14734 0.50974 0.0
H368 H 0.18419 0.20249 0.43958 0.0
H369 H 0.12798 0.20906 0.41142 0.0
H370 H 0.14432 0.11807 0.44208 0.0
H371 H 0.11675 0.10284 0.37955 0.0
H372 H 0.20042 0.24872 0.55898 0.0
H373 H 0.23842 0.20162 0.45415 0.0
H374 H 0.09993 0.1938 0.34896 0.0
H375 H 0.24326 0.28076 0.56144 0.0
H376 H 0.28154 0.2336 0.45675 0.0
C377 C 0.87472 0.12332 0.64757 0.0
C378 C 0.903 0.11081 0.64783 0.0
C379 C 0.86661 0.14323 0.61614 0.0
C380 C 0.88657 0.15093 0.58423 0.0
C381 C 0.91514 0.13914 0.58524 0.0
C382 C 0.9233 0.11932 0.61677 0.0
C383 C 0.8767 0.16904 0.54804 0.0
C384 C 0.85911 0.19402 0.55413 0.0
C385 C 0.84671 0.20912 0.5196 0.0
C386 C 0.85293 0.19903 0.47851 0.0
C387 C 0.87146 0.17473 0.47207 0.0
C388 C 0.8831 0.15987 0.50697 0.0
C389 C 0.87759 0.16331 0.42925 0.0
C390 C 0.8546 0.15814 0.40062 0.0
C391 C 0.90632 0.15489 0.41833 0.0
C392 C 0.91174 0.14015 0.38061 0.0
C393 C 0.88854 0.13344 0.35299 0.0
C394 C 0.82651 0.23459 0.52658 0.0
C395 C 0.80829 0.23572 0.5624 0.0
C396 C 0.82478 0.25775 0.49726 0.0
C397 C 0.80479 0.28079 0.5029 0.0
C398 C 0.78643 0.28179 0.5386 0.0
C399 C 0.78894 0.25915 0.56863 0.0
C400 C 0.86002 0.14331 0.36281 0.0
H401 H 0.85876 0.11751 0.67149 0.0
H402 H 0.84435 0.15175 0.61595 0.0
H403 H 0.93103 0.14484 0.56116 0.0
H404 H 0.94521 0.10998 0.61606 0.0
H405 H 0.85516 0.20154 0.58599 0.0
H406 H 0.89604 0.14013 0.50211 0.0
H407 H 0.84313 0.2097 0.45141 0.0
H408 H 0.8322 0.1642 0.40843 0.0
H409 H 0.92452 0.15901 0.43957 0.0
H410 H 0.93405 0.13343 0.37349 0.0
H411 H 0.80839 0.21822 0.5855 0.0
H412 H 0.83876 0.25815 0.46969 0.0
H413 H 0.84165 0.13831 0.34229 0.0
H414 H 0.77582 0.25926 0.59707 0.0
H415 H 0.80341 0.29743 0.47861 0.0
H416 H 0.09017 0.14491 0.95686 0.0
H417 H 0.20655 0.22994 0.10073 0.0
H418 H 0.10305 0.12668 0.08922 0.0
H419 H 0.20196 0.23723 0.96521 0.0
H420 H 0.16314 0.19828 0.09935 0.0
H421 H 0.12506 0.18533 0.9621 0.0
C422 C 0.1001 0.14955 0.98717 0.0
C423 C 0.094 0.13202 0.02253 0.0
C424 C 0.17149 0.20706 0.06999 0.0
C425 C 0.13416 0.17831 0.02861 0.0
C426 C 0.19635 0.22502 0.0707 0.0
C427 C 0.20818 0.236 0.03297 0.0
C428 C 0.15832 0.20005 0.03127 0.0
C429 C 0.1936 0.22945 0.99511 0.0
C430 C 0.12009 0.17265 0.99009 0.0
C431 C 0.10734 0.13937 0.06103 0.0
N432 N 0.16961 0.21171 0.99522 0.0
N433 N 0.12704 0.16179 0.06294 0.0
H434 H 0.86435 0.11439 0.94612 0.0
H435 H 0.74864 0.19373 0.09822 0.0
H436 H 0.86674 0.10731 0.08184 0.0
H437 H 0.74672 0.20032 0.96255 0.0
H438 H 0.79033 0.15998 0.0929 0.0
H439 H 0.81974 0.14387 0.9516 0.0
C440 C 0.8555 0.11897 0.97711 0.0
C441 C 0.86948 0.10844 0.01359 0.0
C442 C 0.78068 0.16867 0.06429 0.0
C443 C 0.81824 0.14228 0.02005 0.0
C444 C 0.75694 0.18802 0.0673 0.0
C445 C 0.74425 0.2 0.03078 0.0
C446 C 0.79191 0.1613 0.02445 0.0
C447 C 0.75561 0.19144 0.99153 0.0
C448 C 0.82995 0.1358 0.98019 0.0
C449 C 0.85682 0.11502 0.05285 0.0
N450 N 0.77889 0.17277 0.98943 0.0
N451 N 0.83199 0.13161 0.05503 0.0
H452 H 0.89483 0.85497 0.95711 0.0
H453 H 0.78989 0.76053 0.10634 0.0
H454 H 0.88325 0.87273 0.08981 0.0
H455 H 0.79365 0.75203 0.97093 0.0
H456 H 0.83044 0.79575 0.10325 0.0
H457 H 0.86441 0.81133 0.96436 0.0
C458 C 0.88602 0.84964 0.98789 0.0
C459 C 0.89118 0.86789 0.02278 0.0
C460 C 0.8226 0.78588 0.0743 0.0
C461 C 0.8562 0.81778 0.03121 0.0
C462 C 0.7994 0.76585 0.07601 0.0
C463 C 0.78805 0.7536 0.03877 0.0
C464 C 0.83452 0.79368 0.03509 0.0
C465 C 0.80169 0.76077 0.00047 0.0
C466 C 0.86865 0.82464 0.99199 0.0
C467 C 0.87952 0.85953 0.06195 0.0
N468 N 0.82398 0.78057 -0.00039 0.0
N469 N 0.8623 0.83521 0.06502 0.0
H470 H 0.1225 0.8985 0.07797 0.0
H471 H 0.24304 0.80325 0.9552 0.0
H472 H 0.12883 0.89373 0.94232 0.0
H473 H 0.23521 0.80509 0.09073 0.0
H474 H 0.2042 0.84011 0.95026 0.0
H475 H 0.16646 0.86785 0.08357 0.0
C476 C 0.13319 0.89117 0.04934 0.0
C477 C 0.12175 0.89851 0.00958 0.0
C478 C 0.21107 0.83259 0.98112 0.0
C479 C 0.17209 0.86335 0.01584 0.0
C480 C 0.23342 0.81167 0.98398 0.0
C481 C 0.24233 0.80093 0.02345 0.0
C482 C 0.19744 0.84287 0.01798 0.0
C483 C 0.22872 0.81239 0.05962 0.0
C484 C 0.15831 0.87364 0.05259 0.0
C485 C 0.1367 0.88849 0.97364 0.0
N486 N 0.20687 0.83263 0.056 0.0
N487 N 0.16097 0.87131 0.97764 0.0
H488 H 0.58304 0.61781 0.45585 0.0
H489 H 0.7054 0.70967 0.58028 0.0
H490 H 0.5925 0.61716 0.59132 0.0
H491 H 0.7017 0.70289 0.44469 0.0
H492 H 0.66071 0.68013 0.585 0.0
H493 H 0.62269 0.65381 0.45139 0.0
C494 C 0.59326 0.62538 0.4847 0.0
C495 C 0.58463 0.61413 0.52401 0.0
C496 C 0.66959 0.68522 0.5542 0.0
C497 C 0.63015 0.65532 0.51903 0.0
C498 C 0.69521 0.70195 0.55149 0.0
C499 C 0.7075 0.70857 0.51203 0.0
C500 C 0.65609 0.67499 0.51721 0.0
C501 C 0.69293 0.69852 0.47576 0.0
C502 C 0.61596 0.64592 0.4821 0.0
C503 C 0.59858 0.62498 0.5603 0.0
N504 N 0.66811 0.68209 0.47924 0.0
N505 N 0.62077 0.6448 0.5569 0.0
H506 H 0.33316 0.58776 0.4705 0.0
H507 H 0.23686 0.69821 0.60888 0.0
H508 H 0.34777 0.60205 0.6034 0.0
H509 H 0.23242 0.69091 0.47332 0.0
H510 H 0.27102 0.6566 0.61025 0.0
H511 H 0.28913 0.61808 0.47437 0.0
C512 C 0.32691 0.59697 0.50067 0.0
C513 C 0.34452 0.59279 0.53653 0.0
C514 C 0.26222 0.66392 0.58031 0.0
C515 C 0.29416 0.62792 0.54104 0.0
C516 C 0.24285 0.68778 0.57945 0.0
C517 C 0.2319 0.69837 0.54088 0.0
C518 C 0.27068 0.65053 0.54235 0.0
C519 C 0.23998 0.6835 0.50387 0.0
C520 C 0.30175 0.61436 0.50283 0.0
C521 C 0.33501 0.60493 0.57487 0.0
N522 N 0.25903 0.66057 0.50553 0.0
N523 N 0.31069 0.62234 0.576 0.0
H524 H 0.41002 0.37739 0.45448 0.0
H525 H 0.2947 0.27811 0.5806 0.0
H526 H 0.39991 0.37935 0.58982 0.0
H527 H 0.29775 0.2839 0.44488 0.0
H528 H 0.33677 0.31125 0.58473 0.0
H529 H 0.37292 0.33879 0.45073 0.0
C530 C 0.40018 0.36959 0.48348 0.0
C531 C 0.40789 0.38191 0.52253 0.0
C532 C 0.32831 0.30519 0.55403 0.0
C533 C 0.36529 0.33771 0.51833 0.0
C534 C 0.30417 0.28641 0.55164 0.0
C535 C 0.29245 0.27845 0.51232 0.0
C536 C 0.34092 0.31614 0.51684 0.0
C537 C 0.30612 0.28931 0.47585 0.0
C538 C 0.37893 0.34756 0.48126 0.0
C539 C 0.3945 0.37071 0.559 0.0
N540 N 0.32952 0.30774 0.47901 0.0
N541 N 0.37372 0.34938 0.55597 0.0
H542 H 0.66474 0.41949 0.47917 0.0
H543 H 0.73213 0.27848 0.57704 0.0
H544 H 0.63615 0.38875 0.60112 0.0
H545 H 0.78874 0.33961 0.51133 0.0
H546 H 0.69492 0.31664 0.5822 0.0
H547 H 0.709 0.38896 0.48569 0.0
C548 C 0.66802 0.40667 0.50757 0.0
C549 C 0.64673 0.40649 0.53957 0.0
C550 C 0.71566 0.3217 0.56708 0.0
C551 C 0.6967 0.37117 0.54663 0.0
C552 C 0.73714 0.29994 0.56425 0.0
C553 C 0.76396 0.30553 0.54364 0.0
C554 C 0.72052 0.3491 0.54822 0.0
C555 C 0.76831 0.3338 0.52663 0.0
C556 C 0.69325 0.38936 0.51128 0.0
C557 C 0.65205 0.38955 0.57575 0.0
N558 N 0.74664 0.35438 0.52874 0.0
N559 N 0.67624 0.37205 0.57794 0.0
H560 H 0.0542 0.07507 0.12134 0.0
H561 H 0.05056 0.16375 0.33657 0.0
H562 H 0.97226 0.09669 0.18196 0.0
H563 H 0.12329 0.10899 0.29846 0.0
H564 H 0.02237 0.14611 0.27539 0.0
H565 H 0.0808 0.09418 0.18121 0.0
C566 C 0.04169 0.08357 0.14713 0.0
C567 C 0.0109 0.08368 0.14634 0.0
C568 C 0.0445 0.13802 0.28054 0.0
C569 C 0.04142 0.10649 0.2156 0.0
C570 C 0.0606 0.14818 0.31512 0.0
C571 C 0.0892 0.13772 0.32238 0.0
C572 C 0.05741 0.11775 0.2528 0.0
C573 C 0.10121 0.11741 0.29403 0.0
C574 C 0.05698 0.09466 0.18154 0.0
C575 C 0.99605 0.09596 0.18106 0.0
N576 N 0.08531 0.1082 0.26036 0.0
N577 N 0.01146 0.10694 0.21432 0.0
H578 H 0.88935 0.05335 0.10484 0.0
H579 H 0.9228 0.08422 0.34836 0.0
H580 H 0.93915 0.9949 0.18421 0.0
H581 H 0.86601 0.13922 0.27292 0.0
H582 H 0.93064 0.05249 0.28758 0.0
H583 H 0.8817 0.08616 0.16507 0.0
C584 C 0.89902 0.04777 0.1349 0.0
C585 C 0.9155 0.022 0.13955 0.0
C586 C 0.91647 0.07149 0.28423 0.0
C587 C 0.90632 0.05866 0.20875 0.0
C588 C 0.91219 0.0898 0.31885 0.0
C589 C 0.89385 0.11454 0.31567 0.0
C590 C 0.90234 0.0779 0.24598 0.0
C591 C 0.88016 0.12027 0.27685 0.0
C592 C 0.89438 0.06622 0.16936 0.0
C593 C 0.92638 0.01474 0.17949 0.0
N594 N 0.88474 0.1021 0.24347 0.0
N595 N 0.92176 0.0331 0.21257 0.0
H596 H 0.93304 0.92606 0.12098 0.0
H597 H 0.94542 0.80033 0.29551 0.0
H598 H 0.01307 0.87818 0.1447 0.0
H599 H 0.87379 0.86254 0.28753 0.0
H600 H 0.96815 0.82375 0.23422 0.0
H601 H 0.90844 0.89774 0.17501 0.0
C602 C 0.94544 0.90952 0.13706 0.0
C603 C 0.97518 0.90481 0.12788 0.0
C604 C 0.94736 0.83208 0.24581 0.0
C605 C 0.9472 0.87205 0.19094 0.0
C606 C 0.93441 0.81883 0.2809 0.0
C607 C 0.90765 0.82951 0.29696 0.0
C608 C 0.93339 0.8561 0.22648 0.0
C609 C 0.89417 0.8532 0.27609 0.0
C610 C 0.93138 0.89331 0.16832 0.0
C611 C 0.9901 0.88283 0.15068 0.0
N612 N 0.90723 0.86572 0.2421 0.0
N613 N 0.97599 0.86733 0.18124 0.0
H614 H 0.10862 0.0163 0.16107 0.0
H615 H 0.10884 0.86714 0.2875 0.0
H616 H 0.06769 0.93747 0.11425 0.0
H617 H 0.17595 0.93307 0.30642 0.0
H618 H 0.09319 0.89272 0.22405 0.0
H619 H 0.13306 0.98701 0.21538 0.0
C620 C 0.1048 0.9928 0.16188 0.0
C621 C 0.08552 0.97938 0.13308 0.0
C622 C 0.11158 0.9014 0.24184 0.0
C623 C 0.11336 0.94583 0.1954 0.0
C624 C 0.12073 0.88666 0.27804 0.0
C625 C 0.14368 0.898 0.30282 0.0
C626 C 0.12507 0.92798 0.23057 0.0
C627 C 0.15769 0.92383 0.28903 0.0
C628 C 0.11889 0.97611 0.19284 0.0
C629 C 0.08177 0.94888 0.13571 0.0
N630 N 0.1479 0.93817 0.25416 0.0
N631 N 0.09522 0.93318 0.16656 0.0
H632 H 0.08154 0.04163 0.83185 0.0
H633 H 0.05783 0.9022 0.68213 0.0
H634 H 0.01529 0.97542 0.85358 0.0
H635 H 0.1357 0.95654 0.68051 0.0
H636 H 0.03771 0.93292 0.7383 0.0
H637 H 0.09667 0.01544 0.76821 0.0
C638 C 0.07004 0.02169 0.82312 0.0
C639 C 0.04754 0.0103 0.84857 0.0
C640 C 0.05914 0.93816 0.72545 0.0
C641 C 0.06471 0.98033 0.77587 0.0
C642 C 0.07076 0.9205 0.69361 0.0
C643 C 0.09862 0.92664 0.67663 0.0
C644 C 0.0754 0.96225 0.74031 0.0
C645 C 0.11402 0.95111 0.69218 0.0
C646 C 0.07874 0.00673 0.78686 0.0
C647 C 0.03312 0.98466 0.83536 0.0
N648 N 0.10223 0.96795 0.72317 0.0
N649 N 0.04208 0.97042 0.80005 0.0
H650 H 0.98461 0.07574 0.82904 0.0
H651 H 0.13053 0.15456 0.74591 0.0
H652 H 0.04339 0.12426 0.90981 0.0
H653 H 0.07126 0.105 0.66689 0.0
H654 H 0.10041 0.14191 0.80713 0.0
H655 H 0.01758 0.08448 0.7699 0.0
C656 C 0.0045 0.08815 0.83434 0.0
C657 C 0.01134 0.09903 0.87445 0.0
C658 C 0.09413 0.13365 0.77642 0.0
C659 C 0.04906 0.10964 0.80673 0.0
C660 C 0.11125 0.14094 0.74147 0.0
C661 C 0.10334 0.13091 0.7012 0.0
C662 C 0.06887 0.11632 0.771 0.0
C663 C 0.07839 0.11297 0.69736 0.0
C664 C 0.02332 0.09321 0.80054 0.0
C665 C 0.03727 0.11538 0.87942 0.0
N666 N 0.06197 0.10641 0.73176 0.0
N667 N 0.0552 0.12024 0.8459 0.0
H668 H 0.90176 0.96765 0.82815 0.0
H669 H 0.95453 0.10615 0.69208 0.0
H670 H 0.9792 0.01911 0.85518 0.0
H671 H 0.86996 0.06455 0.67618 0.0
H672 H 0.967 0.06963 0.7456 0.0
H673 H 0.89281 -0.00175 0.76587 0.0
C674 C 0.91708 0.98511 0.82074 0.0
C675 C 0.94122 0.99093 0.84705 0.0
C676 C 0.94574 0.06844 0.73034 0.0
C677 C 0.93118 0.02584 0.776 0.0
C678 C 0.93866 0.08921 0.69967 0.0
C679 C 0.91107 0.08853 0.67991 0.0
C680 C 0.92514 0.04675 0.7413 0.0
C681 C 0.89127 0.06619 0.69121 0.0
C682 C 0.91194 0.00258 0.78525 0.0
C683 C 0.96041 0.0137 0.83581 0.0
N684 N 0.89865 0.04623 0.72127 0.0
N685 N 0.95492 0.03034 0.80125 0.0
H686 H 0.94352 0.89047 0.89634 0.0
H687 H 0.95041 0.86647 0.64665 0.0
H688 H 0.01775 0.91518 0.81932 0.0
H689 H 0.87971 0.83457 0.72502 0.0
H690 H 0.97418 0.88687 0.7091 0.0
H691 H 0.91839 0.87258 0.83335 0.0
C692 C 0.95453 0.89219 0.86618 0.0
C693 C 0.98282 0.9043 0.86311 0.0
C694 C 0.95344 0.87544 0.71264 0.0
C695 C 0.95418 0.88384 0.79088 0.0
C696 C 0.93993 0.86363 0.67702 0.0
C697 C 0.91306 0.84864 0.68059 0.0
C698 C 0.94002 0.87229 0.75222 0.0
C699 C 0.90025 0.84619 0.72068 0.0
C700 C 0.94016 0.88197 0.83022 0.0
C701 C 0.99594 0.90607 0.82317 0.0
N702 N 0.91387 0.85782 0.75493 0.0
N703 N 0.98154 0.8959 0.78864 0.0
H704 H 0.45563 0.59861 0.69934 0.0
H705 H 0.61277 0.64585 0.78977 0.0
H706 H 0.53741 0.58191 0.63504 0.0
H707 H 0.53405 0.6423 0.86575 0.0
H708 H 0.58471 0.62682 0.73003 0.0
H709 H 0.48325 0.61929 0.75835 0.0
C710 C 0.4794 0.59927 0.69752 0.0
C711 C 0.49427 0.58827 0.66212 0.0
C712 C 0.57361 0.63029 0.7598 0.0
C713 C 0.52598 0.6122 0.72931 0.0
C714 C 0.58963 0.64105 0.79396 0.0
C715 C 0.57579 0.64572 0.83291 0.0
C716 C 0.5435 0.62427 0.76454 0.0
C717 C 0.54559 0.63954 0.8362 0.0
C718 C 0.49514 0.61106 0.73125 0.0
C719 C 0.52505 0.58981 0.66155 0.0
N720 N 0.53048 0.62914 0.80249 0.0
N721 N 0.5399 0.6016 0.69455 0.0
H722 H 0.45837 0.50024 0.70204 0.0
H723 H 0.36343 0.63377 0.79437 0.0
H724 H 0.3888 0.54303 0.63307 0.0
H725 H 0.41663 0.57666 0.87179 0.0
H726 H 0.37749 0.60492 0.73236 0.0
H727 H 0.44736 0.53143 0.76301 0.0
C728 C 0.44071 0.51619 0.69986 0.0
C729 C 0.42469 0.51954 0.66244 0.0
C730 C 0.38613 0.59877 0.76293 0.0
C731 C 0.41208 0.55519 0.73158 0.0
C732 C 0.3783 0.61534 0.79819 0.0
C733 C 0.3887 0.60738 0.8382 0.0
C734 C 0.40465 0.57425 0.76778 0.0
C735 C 0.40778 0.58322 0.84153 0.0
C736 C 0.43452 0.53403 0.73449 0.0
C737 C 0.40211 0.54046 0.66103 0.0
N738 N 0.41511 0.56746 0.80679 0.0
N739 N 0.39651 0.55762 0.69508 0.0
H740 H 0.53419 0.38882 0.68458 0.0
H741 H 0.38606 0.38178 0.81355 0.0
H742 H 0.4524 0.4221 0.63486 0.0
H743 H 0.45258 0.31435 0.82598 0.0
H744 H 0.41195 0.40089 0.75223 0.0
H745 H 0.50684 0.36541 0.74181 0.0
C746 C 0.51048 0.3912 0.68544 0.0
C747 C 0.49558 0.40782 0.65475 0.0
C748 C 0.42071 0.38179 0.76831 0.0
C749 C 0.46435 0.38135 0.72044 0.0
C750 C 0.40583 0.37066 0.80321 0.0
C751 C 0.41706 0.34632 0.8253 0.0
C752 C 0.44731 0.3689 0.75575 0.0
C753 C 0.44332 0.33349 0.81069 0.0
C754 C 0.49494 0.37777 0.7181 0.0
C755 C 0.46491 0.41009 0.65778 0.0
N756 N 0.45771 0.34512 0.77709 0.0
N757 N 0.45031 0.39726 0.69021 0.0
H758 H 0.53054 0.49881 0.70451 0.0
H759 H 0.62223 0.36324 0.79801 0.0
H760 H 0.59893 0.45412 0.63574 0.0
H761 H 0.56973 0.42162 0.87429 0.0
H762 H 0.60857 0.39181 0.73545 0.0
H763 H 0.54005 0.46678 0.76504 0.0
C764 C 0.54758 0.48222 0.70223 0.0
C765 C 0.5638 0.47875 0.66503 0.0
C766 C 0.59998 0.39828 0.76589 0.0
C767 C 0.57473 0.44209 0.73381 0.0
C768 C 0.60761 0.38189 0.80148 0.0
C769 C 0.5973 0.39029 0.84134 0.0
C770 C 0.58177 0.42306 0.77026 0.0
C771 C 0.57853 0.41472 0.84418 0.0
C772 C 0.55292 0.46389 0.73664 0.0
C773 C 0.58554 0.45694 0.66355 0.0
N774 N 0.57142 0.43028 0.80914 0.0
N775 N 0.59038 0.43936 0.69744 0.0
H776 H 0.51739 0.4867 0.366 0.0
H777 H 0.64458 0.40493 0.23911 0.0
H778 H 0.60632 0.47829 0.4123 0.0
H779 H 0.55263 0.38829 0.21596 0.0
H780 H 0.63116 0.43559 0.29942 0.0
H781 H 0.52998 0.45433 0.30699 0.0
C782 C 0.53957 0.47816 0.36364 0.0
C783 C 0.56091 0.48532 0.3939 0.0
C784 C 0.6139 0.42512 0.28131 0.0
C785 C 0.57541 0.44852 0.32665 0.0
C786 C 0.62155 0.40771 0.24695 0.0
C787 C 0.59964 0.39413 0.22279 0.0
C788 C 0.5841 0.42938 0.29112 0.0
C789 C 0.57012 0.39827 0.23414 0.0
C790 C 0.54669 0.45963 0.3301 0.0
C791 C 0.58922 0.47342 0.38961 0.0
N792 N 0.56316 0.41581 0.26734 0.0
N793 N 0.59568 0.45573 0.35648 0.0
H794 H 0.51756 0.62948 0.42676 0.0
H795 H 0.52238 0.63801 0.17525 0.0
H796 H 0.44754 0.59885 0.34608 0.0
H797 H 0.59301 0.66739 0.25582 0.0
H798 H 0.49328 0.62631 0.23766 0.0
H799 H 0.54407 0.64673 0.36468 0.0
C800 C 0.50766 0.62655 0.39598 0.0
C801 C 0.48042 0.61246 0.39145 0.0
C802 C 0.51509 0.63544 0.24171 0.0
C803 C 0.51068 0.632 0.32034 0.0
C804 C 0.53176 0.64197 0.20611 0.0
C805 C 0.56022 0.65347 0.21041 0.0
C806 C 0.52701 0.64037 0.28191 0.0
C807 C 0.57109 0.65872 0.2511 0.0
C808 C 0.52284 0.63634 0.36054 0.0
C809 C 0.46865 0.60922 0.35087 0.0
N810 N 0.55452 0.65197 0.28531 0.0
N811 N 0.48392 0.6188 0.31682 0.0
H812 H 0.46171 0.49827 0.35081 0.0
H813 H 0.35995 0.62801 0.26315 0.0
H814 H 0.38883 0.53463 0.42079 0.0
H815 H 0.41517 0.5744 0.18372 0.0
H816 H 0.37482 0.59824 0.32404 0.0
H817 H 0.44886 0.52993 0.29136 0.0
C818 C 0.44298 0.51285 0.35365 0.0
C819 C 0.4263 0.5138 0.39079 0.0
C820 C 0.38366 0.59304 0.29325 0.0
C821 C 0.41157 0.55009 0.323 0.0
C822 C 0.37538 0.61013 0.25867 0.0
C823 C 0.38619 0.60344 0.21844 0.0
C824 C 0.4031 0.56936 0.28749 0.0
C825 C 0.40602 0.57998 0.21418 0.0
C826 C 0.43564 0.53088 0.3197 0.0
C827 C 0.40228 0.53316 0.39274 0.0
N828 N 0.41384 0.56377 0.24829 0.0
N829 N 0.39568 0.55063 0.35934 0.0
H830 H 0.46798 0.38261 0.42351 0.0
H831 H 0.47027 0.35676 0.17474 0.0
H832 H 0.54589 0.39248 0.34728 0.0
H833 H 0.39677 0.33359 0.25423 0.0
H834 H 0.49821 0.37052 0.23735 0.0
H835 H 0.44137 0.36498 0.36174 0.0
C836 C 0.47954 0.38098 0.39377 0.0
C837 C 0.5091 0.38942 0.39029 0.0
C838 C 0.47601 0.36231 0.2411 0.0
C839 C 0.47874 0.3694 0.31944 0.0
C840 C 0.46007 0.35432 0.20538 0.0
C841 C 0.43109 0.344 0.2092 0.0
C842 C 0.46285 0.36014 0.28098 0.0
C843 C 0.41887 0.34184 0.2497 0.0
C844 C 0.46431 0.37094 0.35849 0.0
C845 C 0.52297 0.38678 0.35104 0.0
N846 N 0.43479 0.34991 0.28399 0.0
N847 N 0.50762 0.37715 0.31703 0.0
loop_
_geom_bond_atom_site_label_1
_geom_bond_atom_site_label_2
_geom_bond_distance
_geom_bond_site_symmetry_2
_ccdc_geom_bond_type
Zn0 O2 1.933 1_556 S
Zn0 O20 1.985 . S
Zn0 O31 1.955 . S
Zn1 O2 1.911 . S
Zn1 O21 1.970 . S
Zn1 O37 1.945 . S
Zn1 O44 1.981 . S
O2 Zn0 1.933 1_554 S
O2 Zn1 1.911 . S
O2 H3 0.841 1_655 S
H3 O2 0.841 1_455 S
C4 O5 1.246 . S
C4 O33 1.276 1_545 S
O5 C4 1.246 . S
Zn6 O8 1.911 . S
Zn6 O23 1.970 . S
Zn6 O40 1.945 . S
Zn6 O47 1.981 . S
Zn7 O8 1.933 1_556 S
Zn7 O22 1.985 . S
Zn7 O29 1.955 . S
O8 Zn6 1.911 . S
O8 Zn7 1.933 1_554 S
O8 H9 0.841 1_455 S
H9 O8 0.841 1_655 S
Zn10 O11 1.933 1_556 S
Zn10 O24 1.985 . S
Zn10 O33 1.955 . S
O11 Zn10 1.933 1_554 S
O11 Zn12 1.911 . S
O11 H13 0.841 1_565 S
Zn12 O11 1.911 . S
Zn12 O25 1.970 . S
Zn12 O41 1.981 . S
Zn12 O43 1.945 . S
H13 O11 0.841 1_545 S
Zn14 O15 1.933 1_556 S
Zn14 O27 1.985 . S
Zn14 O35 1.955 . S
O15 Zn14 1.933 1_554 S
O15 H16 0.841 1_545 S
O15 Zn17 1.911 . S
H16 O15 0.841 1_565 S
Zn17 O15 1.911 . S
Zn17 O28 1.970 . S
Zn17 O38 1.981 . S
Zn17 O46 1.945 . S
C18 O19 1.246 . S
C18 O35 1.276 1_565 S
O19 C18 1.246 . S
O20 Zn0 1.985 . S
O20 C30 1.245 1_556 S
O21 Zn1 1.970 . S
O21 C30 1.263 . S
O22 Zn7 1.985 . S
O22 C34 1.245 1_556 S
O23 Zn6 1.970 . S
O23 C34 1.263 . S
O24 Zn10 1.985 . S
O24 C39 1.245 1_556 S
O25 Zn12 1.970 . S
O25 C39 1.263 . S
C26 O37 1.262 1_455 S
C26 O38 1.245 . S
O27 Zn14 1.985 . S
O27 C45 1.245 1_556 S
O28 Zn17 1.970 . S
O28 C45 1.263 . S
O29 Zn7 1.955 . S
O29 C48 1.276 1_455 S
C30 O20 1.245 1_554 S
C30 O21 1.263 . S
O31 Zn0 1.955 . S
O31 C50 1.276 1_655 S
C32 O40 1.262 1_655 S
C32 O41 1.245 . S
O33 C4 1.276 1_565 S
O33 Zn10 1.955 . S
C34 O22 1.245 1_554 S
C34 O23 1.263 . S
O35 Zn14 1.955 . S
O35 C18 1.276 1_545 S
C36 O43 1.262 1_545 S
C36 O44 1.245 . S
O37 Zn1 1.945 . S
O37 C26 1.262 1_655 S
O38 Zn17 1.981 . S
O38 C26 1.245 . S
C39 O24 1.245 1_554 S
C39 O25 1.263 . S
O40 Zn6 1.945 . S
O40 C32 1.262 1_455 S
O41 Zn12 1.981 . S
O41 C32 1.245 . S
C42 O46 1.262 1_565 S
C42 O47 1.245 . S
O43 Zn12 1.945 . S
O43 C36 1.262 1_565 S
O44 Zn1 1.981 . S
O44 C36 1.245 . S
C45 O27 1.245 1_554 S
C45 O28 1.263 . S
O46 Zn17 1.945 . S
O46 C42 1.262 1_545 S
O47 Zn6 1.981 . S
O47 C42 1.245 . S
C48 O29 1.276 1_655 S
C48 O49 1.246 . S
O49 C48 1.246 . S
C50 O31 1.276 1_455 S
C50 O51 1.246 . S
O51 C50 1.246 . S
Zn52 O54 1.933 . S
Zn52 O72 1.985 . S
Zn52 O83 1.955 . S
Zn53 O54 1.911 . S
Zn53 O73 1.970 . S
Zn53 O89 1.945 . S
Zn53 O96 1.981 . S
O54 Zn52 1.933 . S
O54 Zn53 1.911 . S
O54 H55 0.841 . S
H55 O54 0.841 . S
C56 O57 1.246 . S
C56 O85 1.276 . S
O57 C56 1.246 . S
Zn58 O60 1.911 . S
Zn58 O75 1.970 . S
Zn58 O92 1.945 . S
Zn58 O99 1.981 . S
Zn59 O60 1.933 . S
Zn59 O74 1.985 . S
Zn59 O81 1.955 . S
O60 Zn58 1.911 . S
O60 Zn59 1.933 . S
O60 H61 0.841 . S
H61 O60 0.841 . S
Zn62 O63 1.933 . S
Zn62 O76 1.985 . S
Zn62 O85 1.955 . S
O63 Zn62 1.933 . S
O63 Zn64 1.911 . S
O63 H65 0.841 . S
Zn64 O63 1.911 . S
Zn64 O77 1.970 . S
Zn64 O93 1.981 . S
Zn64 O95 1.945 . S
H65 O63 0.841 . S
Zn66 O67 1.933 . S
Zn66 O79 1.985 . S
Zn66 O87 1.955 . S
O67 Zn66 1.933 . S
O67 H68 0.841 . S
O67 Zn69 1.911 . S
H68 O67 0.841 . S
Zn69 O67 1.911 . S
Zn69 O80 1.970 . S
Zn69 O90 1.981 . S
Zn69 O98 1.945 . S
C70 O71 1.246 . S
C70 O87 1.276 . S
O71 C70 1.246 . S
O72 Zn52 1.985 . S
O72 C82 1.245 . S
O73 Zn53 1.970 . S
O73 C82 1.263 . S
O74 Zn59 1.985 . S
O74 C86 1.245 . S
O75 Zn58 1.970 . S
O75 C86 1.263 . S
O76 Zn62 1.985 . S
O76 C91 1.245 . S
O77 Zn64 1.970 . S
O77 C91 1.263 . S
C78 O89 1.262 . S
C78 O90 1.245 . S
O79 Zn66 1.985 . S
O79 C97 1.245 . S
O80 Zn69 1.970 . S
O80 C97 1.263 . S
O81 Zn59 1.955 . S
O81 C100 1.276 . S
C82 O72 1.245 . S
C82 O73 1.263 . S
O83 Zn52 1.955 . S
O83 C102 1.276 . S
C84 O92 1.262 . S
C84 O93 1.245 . S
O85 C56 1.276 . S
O85 Zn62 1.955 . S
C86 O74 1.245 . S
C86 O75 1.263 . S
O87 Zn66 1.955 . S
O87 C70 1.276 . S
C88 O95 1.262 . S
C88 O96 1.245 . S
O89 Zn53 1.945 . S
O89 C78 1.262 . S
O90 Zn69 1.981 . S
O90 C78 1.245 . S
C91 O76 1.245 . S
C91 O77 1.263 . S
O92 Zn58 1.945 . S
O92 C84 1.262 . S
O93 Zn64 1.981 . S
O93 C84 1.245 . S
C94 O98 1.262 . S
C94 O99 1.245 . S
O95 Zn64 1.945 . S
O95 C88 1.262 . S
O96 Zn53 1.981 . S
O96 C88 1.245 . S
C97 O79 1.245 . S
C97 O80 1.263 . S
O98 Zn69 1.945 . S
O98 C94 1.262 . S
O99 Zn58 1.981 . S
O99 C94 1.245 . S
C100 O81 1.276 . S
C100 O101 1.246 . S
O101 C100 1.246 . S
C102 O83 1.276 . S
C102 O103 1.246 . S
O103 C102 1.246 . S
C104 C105 1.386 . S
C104 C106 1.397 . S
C104 H128 0.931 . S
C105 C104 1.386 . S
C105 C109 1.397 . S
C106 C104 1.397 . S
C106 C107 1.384 . S
C106 H129 0.930 . S
C107 C106 1.384 . S
C107 C108 1.377 . S
C107 C110 1.481 . S
C108 C107 1.377 . S
C108 C109 1.389 . S
C108 H130 0.929 . S
C109 C105 1.397 . S
C109 C108 1.389 . S
C109 H131 0.931 . S
C110 C107 1.481 . S
C110 C111 1.387 . S
C110 C115 1.390 1_556 S
C111 C110 1.387 . S
C111 C112 1.401 1_556 S
C111 H132 0.930 . S
C112 C111 1.401 1_554 S
C112 C113 1.376 . S
C112 C121 1.511 . S
C113 C112 1.376 . S
C113 C114 1.392 . S
C113 H134 0.931 . S
C114 C113 1.392 . S
C114 C115 1.361 . S
C114 C116 1.500 . S
C115 C110 1.390 1_554 S
C115 C114 1.361 . S
C115 H133 0.931 . S
C116 C114 1.500 . S
C116 C117 1.371 . S
C116 C118 1.365 . S
C117 C116 1.371 . S
C117 C127 1.386 . S
C117 H135 0.931 . S
C118 C116 1.365 . S
C118 C119 1.409 . S
C118 H136 0.929 . S
C119 C118 1.409 . S
C119 C120 1.380 . S
C119 H137 0.930 . S
C120 C119 1.380 . S
C120 C127 1.357 . S
C121 C112 1.511 . S
C121 C122 1.341 1_554 S
C121 C123 1.371 . S
C122 C121 1.341 1_556 S
C122 C126 1.394 . S
C122 H138 0.930 . S
C123 C121 1.371 . S
C123 C124 1.392 . S
C123 H139 0.931 . S
C124 C123 1.392 . S
C124 C125 1.331 . S
C124 H142 0.932 . S
C125 C124 1.331 . S
C125 C126 1.336 1_554 S
C126 C122 1.394 . S
C126 C125 1.336 1_556 S
C126 H141 0.929 . S
C127 C117 1.386 . S
C127 C120 1.357 . S
C127 H140 0.928 . S
H128 C104 0.931 . S
H129 C106 0.930 . S
H130 C108 0.929 . S
H131 C109 0.931 . S
H132 C111 0.930 . S
H133 C115 0.931 . S
H134 C113 0.931 . S
H135 C117 0.931 . S
H136 C118 0.929 . S
H137 C119 0.930 . S
H138 C122 0.930 . S
H139 C123 0.931 . S
H140 C127 0.928 . S
H141 C126 0.929 . S
H142 C124 0.932 . S
C143 C144 1.386 . S
C143 C145 1.397 . S
C143 H167 0.931 . S
C144 C143 1.386 . S
C144 C148 1.397 . S
C145 C143 1.397 . S
C145 C146 1.384 . S
C145 H168 0.930 . S
C146 C145 1.384 . S
C146 C147 1.377 . S
C146 C149 1.481 . S
C147 C146 1.377 . S
C147 C148 1.389 . S
C147 H169 0.929 . S
C148 C144 1.397 . S
C148 C147 1.389 . S
C148 H170 0.931 . S
C149 C146 1.481 . S
C149 C150 1.387 . S
C149 C154 1.390 1_556 S
C150 C149 1.387 . S
C150 C151 1.401 1_556 S
C150 H171 0.930 . S
C151 C150 1.401 1_554 S
C151 C152 1.376 . S
C151 C160 1.511 . S
C152 C151 1.376 . S
C152 C153 1.392 . S
C152 H173 0.931 . S
C153 C152 1.392 . S
C153 C154 1.361 . S
C153 C155 1.500 . S
C154 C149 1.390 1_554 S
C154 C153 1.361 . S
C154 H172 0.931 . S
C155 C153 1.500 . S
C155 C156 1.371 . S
C155 C157 1.365 . S
C156 C155 1.371 . S
C156 C166 1.386 . S
C156 H174 0.931 . S
C157 C155 1.365 . S
C157 C158 1.409 . S
C157 H175 0.929 . S
C158 C157 1.409 . S
C158 C159 1.380 . S
C158 H176 0.930 . S
C159 C158 1.380 . S
C159 C166 1.357 . S
C160 C151 1.511 . S
C160 C161 1.341 1_554 S
C160 C162 1.371 . S
C161 C160 1.341 1_556 S
C161 C165 1.394 . S
C161 H177 0.930 . S
C162 C160 1.371 . S
C162 C163 1.392 . S
C162 H178 0.931 . S
C163 C162 1.392 . S
C163 C164 1.331 . S
C163 H181 0.932 . S
C164 C163 1.331 . S
C164 C165 1.336 1_554 S
C165 C161 1.394 . S
C165 C164 1.336 1_556 S
C165 H180 0.929 . S
C166 C156 1.386 . S
C166 C159 1.357 . S
C166 H179 0.928 . S
H167 C143 0.931 . S
H168 C145 0.930 . S
H169 C147 0.929 . S
H170 C148 0.931 . S
H171 C150 0.930 . S
H172 C154 0.931 . S
H173 C152 0.931 . S
H174 C156 0.931 . S
H175 C157 0.929 . S
H176 C158 0.930 . S
H177 C161 0.930 . S
H178 C162 0.931 . S
H179 C166 0.928 . S
H180 C165 0.929 . S
H181 C163 0.932 . S
C182 C183 1.386 . S
C182 C184 1.397 . S
C182 H206 0.931 . S
C183 C182 1.386 . S
C183 C187 1.397 . S
C184 C182 1.397 . S
C184 C185 1.384 . S
C184 H207 0.930 . S
C185 C184 1.384 . S
C185 C186 1.377 . S
C185 C188 1.481 . S
C186 C185 1.377 . S
C186 C187 1.389 . S
C186 H208 0.929 . S
C187 C183 1.397 . S
C187 C186 1.389 . S
C187 H209 0.931 . S
C188 C185 1.481 . S
C188 C189 1.387 . S
C188 C193 1.390 . S
C189 C188 1.387 . S
C189 C190 1.401 . S
C189 H210 0.930 . S
C190 C189 1.401 . S
C190 C191 1.376 1_554 S
C190 C199 1.511 . S
C191 C190 1.376 1_556 S
C191 C192 1.392 . S
C191 H212 0.931 . S
C192 C191 1.392 . S
C192 C193 1.361 1_556 S
C192 C194 1.500 . S
C193 C188 1.390 . S
C193 C192 1.361 1_554 S
C193 H211 0.931 . S
C194 C192 1.500 . S
C194 C195 1.371 . S
C194 C196 1.365 . S
C195 C194 1.371 . S
C195 C205 1.386 . S
C195 H213 0.931 . S
C196 C194 1.365 . S
C196 C197 1.409 . S
C196 H214 0.929 . S
C197 C196 1.409 . S
C197 C198 1.380 . S
C197 H215 0.930 . S
C198 C197 1.380 . S
C198 C205 1.357 . S
C199 C190 1.511 . S
C199 C200 1.341 . S
C199 C201 1.371 1_554 S
C200 C199 1.341 . S
C200 C204 1.394 . S
C200 H216 0.930 . S
C201 C199 1.371 1_556 S
C201 C202 1.392 . S
C201 H217 0.931 . S
C202 C201 1.392 . S
C202 C203 1.331 1_556 S
C202 H220 0.932 . S
C203 C202 1.331 1_554 S
C203 C204 1.336 . S
C204 C200 1.394 . S
C204 C203 1.336 . S
C204 H219 0.929 . S
C205 C195 1.386 . S
C205 C198 1.357 . S
C205 H218 0.928 . S
H206 C182 0.931 . S
H207 C184 0.930 . S
H208 C186 0.929 . S
H209 C187 0.931 . S
H210 C189 0.930 . S
H211 C193 0.931 . S
H212 C191 0.931 . S
H213 C195 0.931 . S
H214 C196 0.929 . S
H215 C197 0.930 . S
H216 C200 0.930 . S
H217 C201 0.931 . S
H218 C205 0.928 . S
H219 C204 0.929 . S
H220 C202 0.932 . S
C221 C222 1.386 . S
C221 C223 1.397 . S
C221 H245 0.931 . S
C222 C221 1.386 . S
C222 C226 1.397 . S
C223 C221 1.397 . S
C223 C224 1.384 . S
C223 H246 0.930 . S
C224 C223 1.384 . S
C224 C225 1.377 . S
C224 C227 1.481 . S
C225 C224 1.377 . S
C225 C226 1.389 . S
C225 H247 0.929 . S
C226 C222 1.397 . S
C226 C225 1.389 . S
C226 H248 0.931 . S
C227 C224 1.481 . S
C227 C228 1.387 . S
C227 C232 1.390 . S
C228 C227 1.387 . S
C228 C229 1.401 . S
C228 H249 0.930 . S
C229 C228 1.401 . S
C229 C230 1.376 1_554 S
C229 C238 1.511 . S
C230 C229 1.376 1_556 S
C230 C231 1.392 . S
C230 H251 0.931 . S
C231 C230 1.392 . S
C231 C232 1.361 1_556 S
C231 C233 1.500 . S
C232 C227 1.390 . S
C232 C231 1.361 1_554 S
C232 H250 0.931 . S
C233 C231 1.500 . S
C233 C234 1.371 . S
C233 C235 1.365 . S
C234 C233 1.371 . S
C234 C244 1.386 . S
C234 H252 0.931 . S
C235 C233 1.365 . S
C235 C236 1.409 . S
C235 H253 0.929 . S
C236 C235 1.409 . S
C236 C237 1.380 . S
C236 H254 0.930 . S
C237 C236 1.380 . S
C237 C244 1.357 . S
C238 C229 1.511 . S
C238 C239 1.341 . S
C238 C240 1.371 1_554 S
C239 C238 1.341 . S
C239 C243 1.394 . S
C239 H255 0.930 . S
C240 C238 1.371 1_556 S
C240 C241 1.392 . S
C240 H256 0.931 . S
C241 C240 1.392 . S
C241 C242 1.331 1_556 S
C241 H259 0.932 . S
C242 C241 1.331 1_554 S
C242 C243 1.336 . S
C243 C239 1.394 . S
C243 C242 1.336 . S
C243 H258 0.929 . S
C244 C234 1.386 . S
C244 C237 1.357 . S
C244 H257 0.928 . S
H245 C221 0.931 . S
H246 C223 0.930 . S
H247 C225 0.929 . S
H248 C226 0.931 . S
H249 C228 0.930 . S
H250 C232 0.931 . S
H251 C230 0.931 . S
H252 C234 0.931 . S
H253 C235 0.929 . S
H254 C236 0.930 . S
H255 C239 0.930 . S
H256 C240 0.931 . S
H257 C244 0.928 . S
H258 C243 0.929 . S
H259 C241 0.932 . S
C260 C261 1.386 . S
C260 C262 1.397 . S
C260 H284 0.931 . S
C261 C260 1.386 . S
C261 C265 1.397 . S
C262 C260 1.397 . S
C262 C263 1.384 . S
C262 H285 0.930 . S
C263 C262 1.384 . S
C263 C264 1.377 . S
C263 C266 1.481 . S
C264 C263 1.377 . S
C264 C265 1.389 . S
C264 H286 0.929 . S
C265 C261 1.397 . S
C265 C264 1.389 . S
C265 H287 0.931 . S
C266 C263 1.481 . S
C266 C267 1.387 . S
C266 C271 1.390 . S
C267 C266 1.387 . S
C267 C268 1.401 . S
C267 H288 0.930 . S
C268 C267 1.401 . S
C268 C269 1.376 . S
C268 C277 1.511 . S
C269 C268 1.376 . S
C269 C270 1.392 . S
C269 H290 0.931 . S
C270 C269 1.392 . S
C270 C271 1.361 . S
C270 C272 1.500 . S
C271 C266 1.390 . S
C271 C270 1.361 . S
C271 H289 0.931 . S
C272 C270 1.500 . S
C272 C273 1.371 . S
C272 C274 1.365 . S
C273 C272 1.371 . S
C273 C283 1.386 . S
C273 H291 0.931 . S
C274 C272 1.365 . S
C274 C275 1.409 . S
C274 H292 0.929 . S
C275 C274 1.409 . S
C275 C276 1.380 . S
C275 H293 0.930 . S
C276 C275 1.380 . S
C276 C283 1.357 . S
C277 C268 1.511 . S
C277 C278 1.341 . S
C277 C279 1.371 . S
C278 C277 1.341 . S
C278 C282 1.394 . S
C278 H294 0.930 . S
C279 C277 1.371 . S
C279 C280 1.392 . S
C279 H295 0.931 . S
C280 C279 1.392 . S
C280 C281 1.331 . S
C280 H298 0.932 . S
C281 C280 1.331 . S
C281 C282 1.336 . S
C282 C278 1.394 . S
C282 C281 1.336 . S
C282 H297 0.929 . S
C283 C273 1.386 . S
C283 C276 1.357 . S
C283 H296 0.928 . S
H284 C260 0.931 . S
H285 C262 0.930 . S
H286 C264 0.929 . S
H287 C265 0.931 . S
H288 C267 0.930 . S
H289 C271 0.931 . S
H290 C269 0.931 . S
H291 C273 0.931 . S
H292 C274 0.929 . S
H293 C275 0.930 . S
H294 C278 0.930 . S
H295 C279 0.931 . S
H296 C283 0.928 . S
H297 C282 0.929 . S
H298 C280 0.932 . S
C299 C300 1.386 . S
C299 C301 1.397 . S
C299 H323 0.931 . S
C300 C299 1.386 . S
C300 C304 1.397 . S
C301 C299 1.397 . S
C301 C302 1.384 . S
C301 H324 0.930 . S
C302 C301 1.384 . S
C302 C303 1.377 . S
C302 C305 1.481 . S
C303 C302 1.377 . S
C303 C304 1.389 . S
C303 H325 0.929 . S
C304 C300 1.397 . S
C304 C303 1.389 . S
C304 H326 0.931 . S
C305 C302 1.481 . S
C305 C306 1.387 . S
C305 C310 1.390 . S
C306 C305 1.387 . S
C306 C307 1.401 . S
C306 H327 0.930 . S
C307 C306 1.401 . S
C307 C308 1.376 . S
C307 C316 1.511 . S
C308 C307 1.376 . S
C308 C309 1.392 . S
C308 H329 0.931 . S
C309 C308 1.392 . S
C309 C310 1.361 . S
C309 C311 1.500 . S
C310 C305 1.390 . S
C310 C309 1.361 . S
C310 H328 0.931 . S
C311 C309 1.500 . S
C311 C312 1.371 . S
C311 C313 1.365 . S
C312 C311 1.371 . S
C312 C322 1.386 . S
C312 H330 0.931 . S
C313 C311 1.365 . S
C313 C314 1.409 . S
C313 H331 0.929 . S
C314 C313 1.409 . S
C314 C315 1.380 . S
C314 H332 0.930 . S
C315 C314 1.380 . S
C315 C322 1.357 . S
C316 C307 1.511 . S
C316 C317 1.341 . S
C316 C318 1.371 . S
C317 C316 1.341 . S
C317 C321 1.394 . S
C317 H333 0.930 . S
C318 C316 1.371 . S
C318 C319 1.392 . S
C318 H334 0.931 . S
C319 C318 1.392 . S
C319 C320 1.331 . S
C319 H337 0.932 . S
C320 C319 1.331 . S
C320 C321 1.336 . S
C321 C317 1.394 . S
C321 C320 1.336 . S
C321 H336 0.929 . S
C322 C312 1.386 . S
C322 C315 1.357 . S
C322 H335 0.928 . S
H323 C299 0.931 . S
H324 C301 0.930 . S
H325 C303 0.929 . S
H326 C304 0.931 . S
H327 C306 0.930 . S
H328 C310 0.931 . S
H329 C308 0.931 . S
H330 C312 0.931 . S
H331 C313 0.929 . S
H332 C314 0.930 . S
H333 C317 0.930 . S
H334 C318 0.931 . S
H335 C322 0.928 . S
H336 C321 0.929 . S
H337 C319 0.932 . S
C338 C339 1.386 . S
C338 C340 1.397 . S
C338 H362 0.931 . S
C339 C338 1.386 . S
C339 C343 1.397 . S
C340 C338 1.397 . S
C340 C341 1.384 . S
C340 H363 0.930 . S
C341 C340 1.384 . S
C341 C342 1.377 . S
C341 C344 1.481 . S
C342 C341 1.377 . S
C342 C343 1.389 . S
C342 H364 0.929 . S
C343 C339 1.397 . S
C343 C342 1.389 . S
C343 H365 0.931 . S
C344 C341 1.481 . S
C344 C345 1.387 . S
C344 C349 1.390 . S
C345 C344 1.387 . S
C345 C346 1.401 . S
C345 H366 0.930 . S
C346 C345 1.401 . S
C346 C347 1.376 . S
C346 C355 1.511 . S
C347 C346 1.376 . S
C347 C348 1.392 . S
C347 H368 0.931 . S
C348 C347 1.392 . S
C348 C349 1.361 . S
C348 C350 1.500 . S
C349 C344 1.390 . S
C349 C348 1.361 . S
C349 H367 0.931 . S
C350 C348 1.500 . S
C350 C351 1.371 . S
C350 C352 1.365 . S
C351 C350 1.371 . S
C351 C361 1.386 . S
C351 H369 0.931 . S
C352 C350 1.365 . S
C352 C353 1.409 . S
C352 H370 0.929 . S
C353 C352 1.409 . S
C353 C354 1.380 . S
C353 H371 0.930 . S
C354 C353 1.380 . S
C354 C361 1.357 . S
C355 C346 1.511 . S
C355 C356 1.341 . S
C355 C357 1.371 . S
C356 C355 1.341 . S
C356 C360 1.394 . S
C356 H372 0.930 . S
C357 C355 1.371 . S
C357 C358 1.392 . S
C357 H373 0.931 . S
C358 C357 1.392 . S
C358 C359 1.331 . S
C358 H376 0.932 . S
C359 C358 1.331 . S
C359 C360 1.336 . S
C360 C356 1.394 . S
C360 C359 1.336 . S
C360 H375 0.929 . S
C361 C351 1.386 . S
C361 C354 1.357 . S
C361 H374 0.928 . S
H362 C338 0.931 . S
H363 C340 0.930 . S
H364 C342 0.929 . S
H365 C343 0.931 . S
H366 C345 0.930 . S
H367 C349 0.931 . S
H368 C347 0.931 . S
H369 C351 0.931 . S
H370 C352 0.929 . S
H371 C353 0.930 . S
H372 C356 0.930 . S
H373 C357 0.931 . S
H374 C361 0.928 . S
H375 C360 0.929 . S
H376 C358 0.932 . S
C377 C378 1.386 . S
C377 C379 1.397 . S
C377 H401 0.931 . S
C378 C377 1.386 . S
C378 C382 1.397 . S
C379 C377 1.397 . S
C379 C380 1.384 . S
C379 H402 0.930 . S
C380 C379 1.384 . S
C380 C381 1.377 . S
C380 C383 1.481 . S
C381 C380 1.377 . S
C381 C382 1.389 . S
C381 H403 0.929 . S
C382 C378 1.397 . S
C382 C381 1.389 . S
C382 H404 0.931 . S
C383 C380 1.481 . S
C383 C384 1.387 . S
C383 C388 1.390 . S
C384 C383 1.387 . S
C384 C385 1.401 . S
C384 H405 0.930 . S
C385 C384 1.401 . S
C385 C386 1.376 . S
C385 C394 1.511 . S
C386 C385 1.376 . S
C386 C387 1.392 . S
C386 H407 0.931 . S
C387 C386 1.392 . S
C387 C388 1.361 . S
C387 C389 1.500 . S
C388 C383 1.390 . S
C388 C387 1.361 . S
C388 H406 0.931 . S
C389 C387 1.500 . S
C389 C390 1.371 . S
C389 C391 1.365 . S
C390 C389 1.371 . S
C390 C400 1.386 . S
C390 H408 0.931 . S
C391 C389 1.365 . S
C391 C392 1.409 . S
C391 H409 0.929 . S
C392 C391 1.409 . S
C392 C393 1.380 . S
C392 H410 0.930 . S
C393 C392 1.380 . S
C393 C400 1.357 . S
C394 C385 1.511 . S
C394 C395 1.341 . S
C394 C396 1.371 . S
C395 C394 1.341 . S
C395 C399 1.394 . S
C395 H411 0.930 . S
C396 C394 1.371 . S
C396 C397 1.392 . S
C396 H412 0.931 . S
C397 C396 1.392 . S
C397 C398 1.331 . S
C397 H415 0.932 . S
C398 C397 1.331 . S
C398 C399 1.336 . S
C399 C395 1.394 . S
C399 C398 1.336 . S
C399 H414 0.929 . S
C400 C390 1.386 . S
C400 C393 1.357 . S
C400 H413 0.928 . S
H401 C377 0.931 . S
H402 C379 0.930 . S
H403 C381 0.929 . S
H404 C382 0.931 . S
H405 C384 0.930 . S
H406 C388 0.931 . S
H407 C386 0.931 . S
H408 C390 0.931 . S
H409 C391 0.929 . S
H410 C392 0.930 . S
H411 C395 0.930 . S
H412 C396 0.931 . S
H413 C400 0.928 . S
H414 C399 0.929 . S
H415 C397 0.932 . S
H416 C422 0.930 . S
H417 C426 0.930 . S
H418 C431 0.929 . S
H419 C429 0.929 . S
H420 C424 0.929 . S
H421 C430 0.929 . S
C422 H416 0.930 . S
C422 C423 1.367 1_556 S
C422 C430 1.378 . S
C423 C422 1.367 1_554 S
C423 C431 1.433 . S
C424 H420 0.929 . S
C424 C426 1.378 . S
C424 C428 1.350 . S
C425 C428 1.463 . S
C425 C430 1.350 1_554 S
C425 N433 1.427 . S
C426 H417 0.930 . S
C426 C424 1.378 . S
C426 C427 1.367 . S
C427 C426 1.367 . S
C427 C429 1.433 1_554 S
C428 C424 1.350 . S
C428 C425 1.463 . S
C428 N432 1.427 1_554 S
C429 H419 0.929 . S
C429 C427 1.433 1_556 S
C429 N432 1.384 . S
C430 H421 0.929 . S
C430 C422 1.378 . S
C430 C425 1.350 1_556 S
C431 H418 0.929 . S
C431 C423 1.433 . S
C431 N433 1.384 . S
N432 C428 1.427 1_556 S
N432 C429 1.384 . S
N433 C425 1.427 . S
N433 C431 1.384 . S
H434 C440 0.930 . S
H435 C444 0.930 . S
H436 C449 0.929 . S
H437 C447 0.929 . S
H438 C442 0.929 . S
H439 C448 0.929 . S
C440 H434 0.930 . S
C440 C441 1.367 1_556 S
C440 C448 1.378 . S
C441 C440 1.367 1_554 S
C441 C449 1.433 . S
C442 H438 0.929 . S
C442 C444 1.378 . S
C442 C446 1.350 . S
C443 C446 1.463 . S
C443 C448 1.350 1_554 S
C443 N451 1.427 . S
C444 H435 0.930 . S
C444 C442 1.378 . S
C444 C445 1.367 . S
C445 C444 1.367 . S
C445 C447 1.433 1_554 S
C446 C442 1.350 . S
C446 C443 1.463 . S
C446 N450 1.427 1_554 S
C447 H437 0.929 . S
C447 C445 1.433 1_556 S
C447 N450 1.384 . S
C448 H439 0.929 . S
C448 C440 1.378 . S
C448 C443 1.350 1_556 S
C449 H436 0.929 . S
C449 C441 1.433 . S
C449 N451 1.384 . S
N450 C446 1.427 1_556 S
N450 C447 1.384 . S
N451 C443 1.427 . S
N451 C449 1.384 . S
H452 C458 0.929 . S
H453 C462 0.930 . S
H454 C467 0.929 . S
H455 C465 0.929 . S
H456 C460 0.929 . S
H457 C466 0.931 . S
C458 H452 0.929 . S
C458 C459 1.368 1_556 S
C458 C466 1.378 . S
C459 C458 1.368 1_554 S
C459 C467 1.433 . S
C460 H456 0.929 . S
C460 C462 1.378 . S
C460 C464 1.350 . S
C461 C464 1.463 . S
C461 C466 1.347 1_554 S
C461 N469 1.427 . S
C462 H453 0.930 . S
C462 C460 1.378 . S
C462 C463 1.367 . S
C463 C462 1.367 . S
C463 C465 1.433 1_554 S
C464 C460 1.350 . S
C464 C461 1.463 . S
C464 N468 1.414 1_554 S
C465 H455 0.929 . S
C465 C463 1.433 1_556 S
C465 N468 1.384 . S
C466 H457 0.931 . S
C466 C458 1.378 . S
C466 C461 1.347 1_556 S
C467 H454 0.929 . S
C467 C459 1.433 . S
C467 N469 1.384 . S
N468 C464 1.414 1_556 S
N468 C465 1.384 . S
N469 C461 1.427 . S
N469 C467 1.384 . S
H470 C476 0.930 . S
H471 C480 0.930 . S
H472 C485 0.929 . S
H473 C483 0.929 . S
H474 C478 0.929 . S
H475 C484 0.929 . S
C476 H470 0.930 . S
C476 C477 1.367 . S
C476 C484 1.378 . S
C477 C476 1.367 . S
C477 C485 1.433 1_554 S
C478 H474 0.929 . S
C478 C480 1.378 . S
C478 C482 1.350 1_556 S
C479 C482 1.463 . S
C479 C484 1.350 . S
C479 N487 1.427 1_554 S
C480 H471 0.930 . S
C480 C478 1.378 . S
C480 C481 1.367 1_556 S
C481 C480 1.367 1_554 S
C481 C483 1.433 . S
C482 C478 1.350 1_554 S
C482 C479 1.463 . S
C482 N486 1.427 . S
C483 H473 0.929 . S
C483 C481 1.433 . S
C483 N486 1.384 . S
C484 H475 0.929 . S
C484 C476 1.378 . S
C484 C479 1.350 . S
C485 H472 0.929 . S
C485 C477 1.433 1_556 S
C485 N487 1.384 . S
N486 C482 1.427 . S
N486 C483 1.384 . S
N487 C479 1.427 1_556 S
N487 C485 1.384 . S
H488 C494 0.930 . S
H489 C498 0.930 . S
H490 C503 0.929 . S
H491 C501 0.929 . S
H492 C496 0.929 . S
H493 C502 0.929 . S
C494 H488 0.930 . S
C494 C495 1.367 . S
C494 C502 1.378 . S
C495 C494 1.367 . S
C495 C503 1.433 . S
C496 H492 0.929 . S
C496 C498 1.378 . S
C496 C500 1.350 . S
C497 C500 1.463 . S
C497 C502 1.350 . S
C497 N505 1.427 . S
C498 H489 0.930 . S
C498 C496 1.378 . S
C498 C499 1.367 . S
C499 C498 1.367 . S
C499 C501 1.433 . S
C500 C496 1.350 . S
C500 C497 1.463 . S
C500 N504 1.427 . S
C501 H491 0.929 . S
C501 C499 1.433 . S
C501 N504 1.384 . S
C502 H493 0.929 . S
C502 C494 1.378 . S
C502 C497 1.350 . S
C503 H490 0.929 . S
C503 C495 1.433 . S
C503 N505 1.384 . S
N504 C500 1.427 . S
N504 C501 1.384 . S
N505 C497 1.427 . S
N505 C503 1.384 . S
H506 C512 0.930 . S
H507 C516 0.930 . S
H508 C521 0.929 . S
H509 C519 0.929 . S
H510 C514 0.929 . S
H511 C520 0.929 . S
C512 H506 0.930 . S
C512 C513 1.367 . S
C512 C520 1.378 . S
C513 C512 1.367 . S
C513 C521 1.433 . S
C514 H510 0.929 . S
C514 C516 1.378 . S
C514 C518 1.350 . S
C515 C518 1.463 . S
C515 C520 1.350 . S
C515 N523 1.427 . S
C516 H507 0.930 . S
C516 C514 1.378 . S
C516 C517 1.367 . S
C517 C516 1.367 . S
C517 C519 1.433 . S
C518 C514 1.350 . S
C518 C515 1.463 . S
C518 N522 1.427 . S
C519 H509 0.929 . S
C519 C517 1.433 . S
C519 N522 1.384 . S
C520 H511 0.929 . S
C520 C512 1.378 . S
C520 C515 1.350 . S
C521 H508 0.929 . S
C521 C513 1.433 . S
C521 N523 1.384 . S
N522 C518 1.427 . S
N522 C519 1.384 . S
N523 C515 1.427 . S
N523 C521 1.384 . S
H524 C530 0.930 . S
H525 C534 0.930 . S
H526 C539 0.929 . S
H527 C537 0.929 . S
H528 C532 0.929 . S
H529 C538 0.929 . S
C530 H524 0.930 . S
C530 C531 1.367 . S
C530 C538 1.378 . S
C531 C530 1.367 . S
C531 C539 1.433 . S
C532 H528 0.929 . S
C532 C534 1.378 . S
C532 C536 1.350 . S
C533 C536 1.463 . S
C533 C538 1.350 . S
C533 N541 1.427 . S
C534 H525 0.930 . S
C534 C532 1.378 . S
C534 C535 1.367 . S
C535 C534 1.367 . S
C535 C537 1.433 . S
C536 C532 1.350 . S
C536 C533 1.463 . S
C536 N540 1.427 . S
C537 H527 0.929 . S
C537 C535 1.433 . S
C537 N540 1.384 . S
C538 H529 0.929 . S
C538 C530 1.378 . S
C538 C533 1.350 . S
C539 H526 0.929 . S
C539 C531 1.433 . S
C539 N541 1.384 . S
N540 C536 1.427 . S
N540 C537 1.384 . S
N541 C533 1.427 . S
N541 C539 1.384 . S
H542 C548 0.930 . S
H543 C552 0.930 . S
H544 C557 0.929 . S
H545 C555 0.929 . S
H546 C550 0.929 . S
H547 C556 0.929 . S
C548 H542 0.930 . S
C548 C549 1.367 . S
C548 C556 1.378 . S
C549 C548 1.367 . S
C549 C557 1.433 . S
C550 H546 0.929 . S
C550 C552 1.378 . S
C550 C554 1.350 . S
C551 C554 1.463 . S
C551 C556 1.350 . S
C551 N559 1.427 . S
C552 H543 0.930 . S
C552 C550 1.378 . S
C552 C553 1.367 . S
C553 C552 1.367 . S
C553 C555 1.433 . S
C554 C550 1.350 . S
C554 C551 1.463 . S
C554 N558 1.427 . S
C555 H545 0.929 . S
C555 C553 1.433 . S
C555 N558 1.384 . S
C556 H547 0.929 . S
C556 C548 1.378 . S
C556 C551 1.350 . S
C557 H544 0.929 . S
C557 C549 1.433 . S
C557 N559 1.384 . S
N558 C554 1.427 . S
N558 C555 1.384 . S
N559 C551 1.427 . S
N559 C557 1.384 . S
H560 C566 0.930 . S
H561 C570 0.930 . S
H562 C575 0.929 1_655 S
H563 C573 0.929 . S
H564 C568 0.929 . S
H565 C574 0.929 . S
C566 H560 0.930 . S
C566 C567 1.367 . S
C566 C574 1.378 . S
C567 C566 1.367 . S
C567 C575 1.433 . S
C568 H564 0.929 . S
C568 C570 1.378 . S
C568 C572 1.350 . S
C569 C572 1.463 . S
C569 C574 1.350 . S
C569 N577 1.427 . S
C570 H561 0.930 . S
C570 C568 1.378 . S
C570 C571 1.367 . S
C571 C570 1.367 . S
C571 C573 1.433 . S
C572 C568 1.350 . S
C572 C569 1.463 . S
C572 N576 1.427 . S
C573 H563 0.929 . S
C573 C571 1.433 . S
C573 N576 1.384 . S
C574 H565 0.929 . S
C574 C566 1.378 . S
C574 C569 1.350 . S
C575 H562 0.929 1_455 S
C575 C567 1.433 . S
C575 N577 1.384 . S
N576 C572 1.427 . S
N576 C573 1.384 . S
N577 C569 1.427 . S
N577 C575 1.384 . S
H578 C584 0.930 . S
H579 C588 0.930 . S
H580 C593 0.929 1_565 S
H581 C591 0.929 . S
H582 C586 0.929 . S
H583 C592 0.929 . S
C584 H578 0.930 . S
C584 C585 1.367 . S
C584 C592 1.378 . S
C585 C584 1.367 . S
C585 C593 1.433 . S
C586 H582 0.929 . S
C586 C588 1.378 . S
C586 C590 1.350 . S
C587 C590 1.463 . S
C587 C592 1.350 . S
C587 N595 1.427 . S
C588 H579 0.930 . S
C588 C586 1.378 . S
C588 C589 1.367 . S
C589 C588 1.367 . S
C589 C591 1.433 . S
C590 C586 1.350 . S
C590 C587 1.463 . S
C590 N594 1.427 . S
C591 H581 0.929 . S
C591 C589 1.433 . S
C591 N594 1.384 . S
C592 H583 0.929 . S
C592 C584 1.378 . S
C592 C587 1.350 . S
C593 H580 0.929 1_545 S
C593 C585 1.433 . S
C593 N595 1.384 . S
N594 C590 1.427 . S
N594 C591 1.384 . S
N595 C587 1.427 . S
N595 C593 1.384 . S
H596 C602 0.930 . S
H597 C606 0.930 . S
H598 C611 0.929 . S
H599 C609 0.929 . S
H600 C604 0.929 . S
H601 C610 0.929 . S
C602 H596 0.930 . S
C602 C603 1.367 . S
C602 C610 1.378 . S
C603 C602 1.367 . S
C603 C611 1.433 . S
C604 H600 0.929 . S
C604 C606 1.378 . S
C604 C608 1.350 . S
C605 C608 1.463 . S
C605 C610 1.350 . S
C605 N613 1.427 . S
C606 H597 0.930 . S
C606 C604 1.378 . S
C606 C607 1.367 . S
C607 C606 1.367 . S
C607 C609 1.433 . S
C608 C604 1.350 . S
C608 C605 1.463 . S
C608 N612 1.427 . S
C609 H599 0.929 . S
C609 C607 1.433 . S
C609 N612 1.384 . S
C610 H601 0.929 . S
C610 C602 1.378 . S
C610 C605 1.350 . S
C611 H598 0.929 . S
C611 C603 1.433 . S
C611 N613 1.384 . S
N612 C608 1.427 . S
N612 C609 1.384 . S
N613 C605 1.427 . S
N613 C611 1.384 . S
H614 C620 0.930 1_545 S
H615 C624 0.930 . S
H616 C629 0.929 . S
H617 C627 0.929 . S
H618 C622 0.929 . S
H619 C628 0.929 1_545 S
C620 H614 0.930 1_565 S
C620 C621 1.367 . S
C620 C628 1.378 . S
C621 C620 1.367 . S
C621 C629 1.433 . S
C622 H618 0.929 . S
C622 C624 1.378 . S
C622 C626 1.350 . S
C623 C626 1.463 . S
C623 C628 1.350 . S
C623 N631 1.427 . S
C624 H615 0.930 . S
C624 C622 1.378 . S
C624 C625 1.367 . S
C625 C624 1.367 . S
C625 C627 1.433 . S
C626 C622 1.350 . S
C626 C623 1.463 . S
C626 N630 1.427 . S
C627 H617 0.929 . S
C627 C625 1.433 . S
C627 N630 1.384 . S
C628 H619 0.929 1_565 S
C628 C620 1.378 . S
C628 C623 1.350 . S
C629 H616 0.929 . S
C629 C621 1.433 . S
C629 N631 1.384 . S
N630 C626 1.427 . S
N630 C627 1.384 . S
N631 C623 1.427 . S
N631 C629 1.384 . S
H632 C638 0.930 1_545 S
H633 C642 0.930 . S
H634 C647 0.929 . S
H635 C645 0.929 . S
H636 C640 0.929 . S
H637 C646 0.929 . S
C638 H632 0.930 1_565 S
C638 C639 1.367 . S
C638 C646 1.378 . S
C639 C638 1.367 . S
C639 C647 1.433 . S
C640 H636 0.929 . S
C640 C642 1.378 . S
C640 C644 1.350 . S
C641 C644 1.463 . S
C641 C646 1.350 . S
C641 N649 1.427 . S
C642 H633 0.930 . S
C642 C640 1.378 . S
C642 C643 1.367 . S
C643 C642 1.367 . S
C643 C645 1.433 . S
C644 C640 1.350 . S
C644 C641 1.463 . S
C644 N648 1.427 . S
C645 H635 0.929 . S
C645 C643 1.433 . S
C645 N648 1.384 . S
C646 H637 0.929 . S
C646 C638 1.378 . S
C646 C641 1.350 . S
C647 H634 0.929 . S
C647 C639 1.433 . S
C647 N649 1.384 . S
N648 C644 1.427 . S
N648 C645 1.384 . S
N649 C641 1.427 . S
N649 C647 1.384 . S
H650 C656 0.930 1_655 S
H651 C660 0.930 . S
H652 C665 0.929 . S
H653 C663 0.929 . S
H654 C658 0.929 . S
H655 C664 0.929 . S
C656 H650 0.930 1_455 S
C656 C657 1.367 . S
C656 C664 1.378 . S
C657 C656 1.367 . S
C657 C665 1.433 . S
C658 H654 0.929 . S
C658 C660 1.378 . S
C658 C662 1.350 . S
C659 C662 1.463 . S
C659 C664 1.350 . S
C659 N667 1.427 . S
C660 H651 0.930 . S
C660 C658 1.378 . S
C660 C661 1.367 . S
C661 C660 1.367 . S
C661 C663 1.433 . S
C662 C658 1.350 . S
C662 C659 1.463 . S
C662 N666 1.427 . S
C663 H653 0.929 . S
C663 C661 1.433 . S
C663 N666 1.384 . S
C664 H655 0.929 . S
C664 C656 1.378 . S
C664 C659 1.350 . S
C665 H652 0.929 . S
C665 C657 1.433 . S
C665 N667 1.384 . S
N666 C662 1.427 . S
N666 C663 1.384 . S
N667 C659 1.427 . S
N667 C665 1.384 . S
H668 C674 0.930 1_565 S
H669 C678 0.930 . S
H670 C683 0.929 . S
H671 C681 0.929 . S
H672 C676 0.929 . S
H673 C682 0.929 1_565 S
C674 H668 0.930 1_545 S
C674 C675 1.367 . S
C674 C682 1.378 . S
C675 C674 1.367 . S
C675 C683 1.433 . S
C676 H672 0.929 . S
C676 C678 1.378 . S
C676 C680 1.350 . S
C677 C680 1.463 . S
C677 C682 1.350 . S
C677 N685 1.427 . S
C678 H669 0.930 . S
C678 C676 1.378 . S
C678 C679 1.367 . S
C679 C678 1.367 . S
C679 C681 1.433 . S
C680 C676 1.350 . S
C680 C677 1.463 . S
C680 N684 1.427 . S
C681 H671 0.929 . S
C681 C679 1.433 . S
C681 N684 1.384 . S
C682 H673 0.929 1_545 S
C682 C674 1.378 . S
C682 C677 1.350 . S
C683 H670 0.929 . S
C683 C675 1.433 . S
C683 N685 1.384 . S
N684 C680 1.427 . S
N684 C681 1.384 . S
N685 C677 1.427 . S
N685 C683 1.384 . S
H686 C692 0.930 . S
H687 C696 0.930 . S
H688 C701 0.929 . S
H689 C699 0.929 . S
H690 C694 0.929 . S
H691 C700 0.929 . S
C692 H686 0.930 . S
C692 C693 1.367 . S
C692 C700 1.378 . S
C693 C692 1.367 . S
C693 C701 1.433 . S
C694 H690 0.929 . S
C694 C696 1.378 . S
C694 C698 1.350 . S
C695 C698 1.463 . S
C695 C700 1.350 . S
C695 N703 1.427 . S
C696 H687 0.930 . S
C696 C694 1.378 . S
C696 C697 1.367 . S
C697 C696 1.367 . S
C697 C699 1.433 . S
C698 C694 1.350 . S
C698 C695 1.463 . S
C698 N702 1.427 . S
C699 H689 0.929 . S
C699 C697 1.433 . S
C699 N702 1.384 . S
C700 H691 0.929 . S
C700 C692 1.378 . S
C700 C695 1.350 . S
C701 H688 0.929 . S
C701 C693 1.433 . S
C701 N703 1.384 . S
N702 C698 1.427 . S
N702 C699 1.384 . S
N703 C695 1.427 . S
N703 C701 1.384 . S
H704 C710 0.930 . S
H705 C714 0.930 . S
H706 C719 0.929 . S
H707 C717 0.929 . S
H708 C712 0.929 . S
H709 C718 0.929 . S
C710 H704 0.930 . S
C710 C711 1.367 . S
C710 C718 1.378 . S
C711 C710 1.367 . S
C711 C719 1.433 . S
C712 H708 0.929 . S
C712 C714 1.378 . S
C712 C716 1.350 . S
C713 C716 1.463 . S
C713 C718 1.350 . S
C713 N721 1.427 . S
C714 H705 0.930 . S
C714 C712 1.378 . S
C714 C715 1.367 . S
C715 C714 1.367 . S
C715 C717 1.433 . S
C716 C712 1.350 . S
C716 C713 1.463 . S
C716 N720 1.427 . S
C717 H707 0.929 . S
C717 C715 1.433 . S
C717 N720 1.384 . S
C718 H709 0.929 . S
C718 C710 1.378 . S
C718 C713 1.350 . S
C719 H706 0.929 . S
C719 C711 1.433 . S
C719 N721 1.384 . S
N720 C716 1.427 . S
N720 C717 1.384 . S
N721 C713 1.427 . S
N721 C719 1.384 . S
H722 C728 0.930 . S
H723 C732 0.930 . S
H724 C737 0.929 . S
H725 C735 0.929 . S
H726 C730 0.929 . S
H727 C736 0.929 . S
C728 H722 0.930 . S
C728 C729 1.367 . S
C728 C736 1.378 . S
C729 C728 1.367 . S
C729 C737 1.433 . S
C730 H726 0.929 . S
C730 C732 1.378 . S
C730 C734 1.350 . S
C731 C734 1.463 . S
C731 C736 1.350 . S
C731 N739 1.427 . S
C732 H723 0.930 . S
C732 C730 1.378 . S
C732 C733 1.367 . S
C733 C732 1.367 . S
C733 C735 1.433 . S
C734 C730 1.350 . S
C734 C731 1.463 . S
C734 N738 1.427 . S
C735 H725 0.929 . S
C735 C733 1.433 . S
C735 N738 1.384 . S
C736 H727 0.929 . S
C736 C728 1.378 . S
C736 C731 1.350 . S
C737 H724 0.929 . S
C737 C729 1.433 . S
C737 N739 1.384 . S
N738 C734 1.427 . S
N738 C735 1.384 . S
N739 C731 1.427 . S
N739 C737 1.384 . S
H740 C746 0.930 . S
H741 C750 0.930 . S
H742 C755 0.929 . S
H743 C753 0.929 . S
H744 C748 0.929 . S
H745 C754 0.929 . S
C746 H740 0.930 . S
C746 C747 1.367 . S
C746 C754 1.378 . S
C747 C746 1.367 . S
C747 C755 1.433 . S
C748 H744 0.929 . S
C748 C750 1.378 . S
C748 C752 1.350 . S
C749 C752 1.463 . S
C749 C754 1.350 . S
C749 N757 1.427 . S
C750 H741 0.930 . S
C750 C748 1.378 . S
C750 C751 1.367 . S
C751 C750 1.367 . S
C751 C753 1.433 . S
C752 C748 1.350 . S
C752 C749 1.463 . S
C752 N756 1.427 . S
C753 H743 0.929 . S
C753 C751 1.433 . S
C753 N756 1.384 . S
C754 H745 0.929 . S
C754 C746 1.378 . S
C754 C749 1.350 . S
C755 H742 0.929 . S
C755 C747 1.433 . S
C755 N757 1.384 . S
N756 C752 1.427 . S
N756 C753 1.384 . S
N757 C749 1.427 . S
N757 C755 1.384 . S
H758 C764 0.930 . S
H759 C768 0.930 . S
H760 C773 0.929 . S
H761 C771 0.929 . S
H762 C766 0.929 . S
H763 C772 0.929 . S
C764 H758 0.930 . S
C764 C765 1.367 . S
C764 C772 1.378 . S
C765 C764 1.367 . S
C765 C773 1.433 . S
C766 H762 0.929 . S
C766 C768 1.378 . S
C766 C770 1.350 . S
C767 C770 1.463 . S
C767 C772 1.350 . S
C767 N775 1.427 . S
C768 H759 0.930 . S
C768 C766 1.378 . S
C768 C769 1.367 . S
C769 C768 1.367 . S
C769 C771 1.433 . S
C770 C766 1.350 . S
C770 C767 1.463 . S
C770 N774 1.427 . S
C771 H761 0.929 . S
C771 C769 1.433 . S
C771 N774 1.384 . S
C772 H763 0.929 . S
C772 C764 1.378 . S
C772 C767 1.350 . S
C773 H760 0.929 . S
C773 C765 1.433 . S
C773 N775 1.384 . S
N774 C770 1.427 . S
N774 C771 1.384 . S
N775 C767 1.427 . S
N775 C773 1.384 . S
H776 C782 0.930 . S
H777 C786 0.930 . S
H778 C791 0.929 . S
H779 C789 0.929 . S
H780 C784 0.929 . S
H781 C790 0.929 . S
C782 H776 0.930 . S
C782 C783 1.367 . S
C782 C790 1.378 . S
C783 C782 1.367 . S
C783 C791 1.433 . S
C784 H780 0.929 . S
C784 C786 1.378 . S
C784 C788 1.350 . S
C785 C788 1.463 . S
C785 C790 1.350 . S
C785 N793 1.427 . S
C786 H777 0.930 . S
C786 C784 1.378 . S
C786 C787 1.367 . S
C787 C786 1.367 . S
C787 C789 1.433 . S
C788 C784 1.350 . S
C788 C785 1.463 . S
C788 N792 1.427 . S
C789 H779 0.929 . S
C789 C787 1.433 . S
C789 N792 1.384 . S
C790 H781 0.929 . S
C790 C782 1.378 . S
C790 C785 1.350 . S
C791 H778 0.929 . S
C791 C783 1.433 . S
C791 N793 1.384 . S
N792 C788 1.427 . S
N792 C789 1.384 . S
N793 C785 1.427 . S
N793 C791 1.384 . S
H794 C800 0.930 . S
H795 C804 0.930 . S
H796 C809 0.929 . S
H797 C807 0.929 . S
H798 C802 0.929 . S
H799 C808 0.929 . S
C800 H794 0.930 . S
C800 C801 1.367 . S
C800 C808 1.378 . S
C801 C800 1.367 . S
C801 C809 1.433 . S
C802 H798 0.929 . S
C802 C804 1.378 . S
C802 C806 1.350 . S
C803 C806 1.463 . S
C803 C808 1.350 . S
C803 N811 1.427 . S
C804 H795 0.930 . S
C804 C802 1.378 . S
C804 C805 1.367 . S
C805 C804 1.367 . S
C805 C807 1.433 . S
C806 C802 1.350 . S
C806 C803 1.463 . S
C806 N810 1.427 . S
C807 H797 0.929 . S
C807 C805 1.433 . S
C807 N810 1.384 . S
C808 H799 0.929 . S
C808 C800 1.378 . S
C808 C803 1.350 . S
C809 H796 0.929 . S
C809 C801 1.433 . S
C809 N811 1.384 . S
N810 C806 1.427 . S
N810 C807 1.384 . S
N811 C803 1.427 . S
N811 C809 1.384 . S
H812 C818 0.930 . S
H813 C822 0.930 . S
H814 C827 0.929 . S
H815 C825 0.929 . S
H816 C820 0.929 . S
H817 C826 0.929 . S
C818 H812 0.930 . S
C818 C819 1.367 . S
C818 C826 1.378 . S
C819 C818 1.367 . S
C819 C827 1.433 . S
C820 H816 0.929 . S
C820 C822 1.378 . S
C820 C824 1.350 . S
C821 C824 1.463 . S
C821 C826 1.350 . S
C821 N829 1.427 . S
C822 H813 0.930 . S
C822 C820 1.378 . S
C822 C823 1.367 . S
C823 C822 1.367 . S
C823 C825 1.433 . S
C824 C820 1.350 . S
C824 C821 1.463 . S
C824 N828 1.427 . S
C825 H815 0.929 . S
C825 C823 1.433 . S
C825 N828 1.384 . S
C826 H817 0.929 . S
C826 C818 1.378 . S
C826 C821 1.350 . S
C827 H814 0.929 . S
C827 C819 1.433 . S
C827 N829 1.384 . S
N828 C824 1.427 . S
N828 C825 1.384 . S
N829 C821 1.427 . S
N829 C827 1.384 . S
H830 C836 0.930 . S
H831 C840 0.930 . S
H832 C845 0.929 . S
H833 C843 0.929 . S
H834 C838 0.929 . S
H835 C844 0.929 . S
C836 H830 0.930 . S
C836 C837 1.367 . S
C836 C844 1.378 . S
C837 C836 1.367 . S
C837 C845 1.433 . S
C838 H834 0.929 . S
C838 C840 1.378 . S
C838 C842 1.350 . S
C839 C842 1.463 . S
C839 C844 1.350 . S
C839 N847 1.427 . S
C840 H831 0.930 . S
C840 C838 1.378 . S
C840 C841 1.367 . S
C841 C840 1.367 . S
C841 C843 1.433 . S
C842 C838 1.350 . S
C842 C839 1.463 . S
C842 N846 1.427 . S
C843 H833 0.929 . S
C843 C841 1.433 . S
C843 N846 1.384 . S
C844 H835 0.929 . S
C844 C836 1.378 . S
C844 C839 1.350 . S
C845 H832 0.929 . S
C845 C837 1.433 . S
C845 N847 1.384 . S
N846 C842 1.427 . S
N846 C843 1.384 . S
N847 C839 1.427 . S
N847 C845 1.384 . S
C423 C45 1.634 . S
C427 C125 1.639 . S
C441 C30 1.628 . S
C445 C164 1.635 . S
C459 C39 1.627 . S
C463 C203 1.647 . S
C481 C242 1.648 . S
C477 C34 1.630 . S
C495 C97 1.630 . S
C499 C281 1.635 . S
C517 C320 1.637 . S
C513 C82 1.632 . S
C535 C359 1.649 . S
C531 C91 1.630 . S
C553 C398 1.653 . S
C549 C86 1.636 . S
C571 C354 1.549 . S
C567 C26 1.500 . S
C589 C393 1.546 . S
C585 C36 1.497 . S
C607 C261 1.551 . S
C603 C32 1.505 . S
C625 C300 1.542 . S
C621 C42 1.490 . S
C639 C18 1.562 . S
C643 C315 1.637 . S
C661 C339 1.646 . S
C657 C50 1.572 . S
C675 C4 1.567 . S
C679 C378 1.644 . S
C693 C48 1.569 . S
C697 C276 1.642 . S
C715 C198 1.540 . S
C711 C78 1.486 . S
C729 C88 1.487 . S
C733 C237 1.540 . S
C751 C105 1.541 . S
C747 C84 1.488 . S
C769 C144 1.545 . S
C765 C94 1.494 . S
C787 C159 1.648 . S
C783 C70 1.579 . S
C805 C183 1.644 . S
C801 C102 1.568 . S
C819 C56 1.567 . S
C823 C222 1.643 . S
C837 C100 1.569 . S
C841 C120 1.642 . S
