# Generated by pormake.
# Topology pyr, (3,6)-cn, num edge types: 1
# Building blocks:
#     Node 0, Type 0, BuildingBlock: VETTIZ_charged_linker_0, # of connection points: 3
#     Node 1, Type 0, BuildingBlock: VETTIZ_charged_linker_0, # of connection points: 3
#     Node 2, Type 0, BuildingBlock: VETTIZ_charged_linker_0, # of connection points: 3
#     Node 3, Type 0, BuildingBlock: VETTIZ_charged_linker_0, # of connection points: 3
#     Node 4, Type 0, BuildingBlock: VETTIZ_charged_linker_0, # of connection points: 3
#     Node 5, Type 0, BuildingBlock: VETTIZ_charged_linker_0, # of connection points: 3
#     Node 6, Type 0, BuildingBlock: VETTIZ_charged_linker_0, # of connection points: 3
#     Node 7, Type 0, BuildingBlock: VETTIZ_charged_linker_0, # of connection points: 3
#     Node 8, Type 1, BuildingBlock: JUFBIX_clean_sbu_0, # of connection points: 6
#     Node 9, Type 1, BuildingBlock: JUFBIX_clean_sbu_0, # of connection points: 6
#     Node 10, Type 1, BuildingBlock: JUFBIX_clean_sbu_0, # of connection points: 6
#     Node 11, Type 1, BuildingBlock: JUFBIX_clean_sbu_0, # of connection points: 6
#     Edge 12, Type (0, 1), BuildingBlock: OJICUG_clean_linker_0, # of connection points: 2
#     Edge 13, Type (0, 1), BuildingBlock: OJICUG_clean_linker_0, # of connection points: 2
#     Edge 14, Type (0, 1), BuildingBlock: OJICUG_clean_linker_0, # of connection points: 2
#     Edge 15, Type (0, 1), BuildingBlock: OJICUG_clean_linker_0, # of connection points: 2
#     Edge 16, Type (0, 1), BuildingBlock: OJICUG_clean_linker_0, # of connection points: 2
#     Edge 17, Type (0, 1), BuildingBlock: OJICUG_clean_linker_0, # of connection points: 2
#     Edge 18, Type (0, 1), BuildingBlock: OJICUG_clean_linker_0, # of connection points: 2
#     Edge 19, Type (0, 1), BuildingBlock: OJICUG_clean_linker_0, # of connection points: 2
#     Edge 20, Type (0, 1), BuildingBlock: OJICUG_clean_linker_0, # of connection points: 2
#     Edge 21, Type (0, 1), BuildingBlock: OJICUG_clean_linker_0, # of connection points: 2
#     Edge 22, Type (0, 1), BuildingBlock: OJICUG_clean_linker_0, # of connection points: 2
#     Edge 23, Type (0, 1), BuildingBlock: OJICUG_clean_linker_0, # of connection points: 2
#     Edge 24, Type (0, 1), BuildingBlock: OJICUG_clean_linker_0, # of connection points: 2
#     Edge 25, Type (0, 1), BuildingBlock: OJICUG_clean_linker_0, # of connection points: 2
#     Edge 26, Type (0, 1), BuildingBlock: OJICUG_clean_linker_0, # of connection points: 2
#     Edge 27, Type (0, 1), BuildingBlock: OJICUG_clean_linker_0, # of connection points: 2
#     Edge 28, Type (0, 1), BuildingBlock: OJICUG_clean_linker_0, # of connection points: 2
#     Edge 29, Type (0, 1), BuildingBlock: OJICUG_clean_linker_0, # of connection points: 2
#     Edge 30, Type (0, 1), BuildingBlock: OJICUG_clean_linker_0, # of connection points: 2
#     Edge 31, Type (0, 1), BuildingBlock: OJICUG_clean_linker_0, # of connection points: 2
#     Edge 32, Type (0, 1), BuildingBlock: OJICUG_clean_linker_0, # of connection points: 2
#     Edge 33, Type (0, 1), BuildingBlock: OJICUG_clean_linker_0, # of connection points: 2
#     Edge 34, Type (0, 1), BuildingBlock: OJICUG_clean_linker_0, # of connection points: 2
#     Edge 35, Type (0, 1), BuildingBlock: OJICUG_clean_linker_0, # of connection points: 2
# Relax obj value: 0.066
# Max RMSD: 0.101
# Mean RMSD: 0.035
data_MOF--net-pry--node1-JUFBIX_clean_sbu_0--node2-VETTIZ_charged_linker_0--edge1-OJICUG_clean_linker_0
_symmetry_space_group_name_H-M    P1
_symmetry_Int_Tables_number       1
_symmetry_cell_setting            triclinic
loop_
_symmetry_equiv_pos_as_xyz
'x, y, z'
_cell_length_a     35.514116
_cell_length_b     33.745098
_cell_length_c     35.623791
_cell_angle_alpha  84.155761
_cell_angle_beta   89.974231
_cell_angle_gamma 91.281671
loop_
_atom_site_label
_atom_site_type_symbol
_atom_site_fract_x
_atom_site_fract_y
_atom_site_fract_z
_atom_type_partial_charge
C0 C 0.16094 0.08327 0.29704 0.0
C1 C 0.12753 0.09575 0.31389 0.0
C2 C 0.10918 0.1291 0.29593 0.0
C3 C 0.15529 0.13603 0.24519 0.0
C4 C 0.17414 0.10375 0.26249 0.0
C5 C 0.20834 0.09466 0.23936 0.0
H6 H 0.3156 0.13881 0.07877 0.0
C7 C 0.17524 0.15076 0.20964 0.0
C8 C 0.20656 0.1267 0.20563 0.0
H9 H 0.33433 0.0463 0.16941 0.0
H10 H 0.2795 0.06655 0.20243 0.0
H11 H 0.29707 0.20586 0.13331 0.0
H12 H 0.22213 0.12921 0.07641 0.0
H13 H 0.20666 0.17872 0.0693 0.0
H14 H 0.25204 0.16678 0.05158 0.0
H15 H 0.28951 0.21345 0.08329 0.0
H16 H 0.25853 0.23394 0.11617 0.0
C17 C 0.24391 0.0999 0.26346 0.0
C18 C 0.20296 0.05229 0.22714 0.0
C19 C 0.12216 0.27041 0.12992 0.0
C20 C 0.13366 0.29332 0.09637 0.0
C21 C 0.16652 0.28164 0.07819 0.0
C22 C 0.18714 0.24835 0.09301 0.0
C23 C 0.17529 0.22619 0.12675 0.0
C24 C 0.14333 0.23769 0.14456 0.0
C25 C 0.13515 0.21184 0.18064 0.0
C26 C 0.16735 0.1828 0.18178 0.0
C27 C 0.19081 0.19091 0.15003 0.0
C28 C 0.13744 0.23865 0.21356 0.0
C29 C 0.09641 0.1906 0.17633 0.0
C30 C 0.30771 0.12257 0.1055 0.0
C31 C 0.32966 0.09062 0.12114 0.0
C32 C 0.31841 0.0711 0.15657 0.0
C33 C 0.28633 0.08282 0.17575 0.0
C34 C 0.26486 0.11482 0.15982 0.0
C35 C 0.27593 0.13427 0.12529 0.0
C36 C 0.25084 0.16876 0.11321 0.0
C37 C 0.22247 0.16637 0.14549 0.0
C38 C 0.23054 0.1345 0.17303 0.0
C39 C 0.27505 0.20768 0.11103 0.0
C40 C 0.23194 0.16084 0.07551 0.0
H41 H 0.10684 0.17394 0.25037 0.0
H42 H 0.17588 0.05779 0.30993 0.0
H43 H 0.17372 0.04778 0.21696 0.0
H44 H 0.22153 0.04669 0.20354 0.0
H45 H 0.20797 0.02935 0.25116 0.0
H46 H 0.24201 0.1271 0.27852 0.0
H47 H 0.24719 0.07398 0.28498 0.0
H48 H 0.26986 0.104 0.24637 0.0
H49 H 0.09695 0.27749 0.14471 0.0
H50 H 0.17689 0.29864 0.05274 0.0
H51 H 0.21177 0.2413 0.07774 0.0
H52 H 0.15809 0.26374 0.20726 0.0
H53 H 0.10974 0.25175 0.21878 0.0
H54 H 0.1477 0.22274 0.24012 0.0
H55 H 0.09182 0.1839 0.1467 0.0
H56 H 0.09404 0.16129 0.19317 0.0
H57 H 0.07294 0.20948 0.18398 0.0
H58 H 0.08407 0.14011 0.30826 0.0
C59 C 0.12268 0.14904 0.2621 0.0
C60 C 0.32251 0.93051 0.54631 0.0
C61 C 0.31243 0.96954 0.55235 0.0
C62 C 0.34056 0.99593 0.56384 0.0
C63 C 0.38311 0.94134 0.57484 0.0
C64 C 0.35832 0.91724 0.5573 0.0
C65 C 0.37355 0.87619 0.55537 0.0
H66 H 0.49794 0.73632 0.61926 0.0
C67 C 0.41344 0.9165 0.59162 0.0
C68 C 0.40904 0.87864 0.57908 0.0
H69 H 0.41511 0.73068 0.53098 0.0
H70 H 0.3971 0.79805 0.53802 0.0
H71 H 0.52917 0.83047 0.59656 0.0
H72 H 0.44719 0.77305 0.6732 0.0
H73 H 0.45786 0.81838 0.69148 0.0
H74 H 0.4943 0.78239 0.68831 0.0
H75 H 0.5386 0.79515 0.63655 0.0
H76 H 0.53446 0.84728 0.64195 0.0
C77 C 0.38264 0.87114 0.51352 0.0
C78 C 0.34467 0.84506 0.57386 0.0
C79 C 0.4741 0.95909 0.7094 0.0
C80 C 0.49153 0.93699 0.73978 0.0
C81 C 0.5064 0.89961 0.73419 0.0
C82 C 0.50054 0.88302 0.69997 0.0
C83 C 0.47885 0.9036 0.6716 0.0
C84 C 0.46686 0.94149 0.67625 0.0
C85 C 0.44055 0.95735 0.6456 0.0
C86 C 0.43807 0.92229 0.62203 0.0
C87 C 0.46057 0.89092 0.63735 0.0
C88 C 0.45898 0.99485 0.62361 0.0
C89 C 0.4024 0.9652 0.66455 0.0
C90 C 0.47613 0.74987 0.60135 0.0
C91 C 0.45789 0.72841 0.5745 0.0
C92 C 0.42925 0.74662 0.55203 0.0
C93 C 0.41907 0.78579 0.5559 0.0
C94 C 0.43727 0.8068 0.58295 0.0
C95 C 0.46524 0.78895 0.60523 0.0
C96 C 0.4802 0.81571 0.63347 0.0
C97 C 0.45864 0.85353 0.62223 0.0
C98 C 0.43315 0.84769 0.59309 0.0
C99 C 0.52299 0.82252 0.62705 0.0
C100 C 0.46963 0.79653 0.67372 0.0
H101 H 0.3958 1.00262 0.58543 0.0
H102 H 0.30216 0.90975 0.53623 0.0
H103 H 0.33464 0.85409 0.60126 0.0
H104 H 0.35649 0.81519 0.58016 0.0
H105 H 0.31978 0.8422 0.55537 0.0
H106 H 0.3845 0.90025 0.4958 0.0
H107 H 0.36066 0.85272 0.50089 0.0
H108 H 0.41046 0.85758 0.51029 0.0
H109 H 0.46332 0.98832 0.71263 0.0
H110 H 0.52028 0.88205 0.75706 0.0
H111 H 0.51132 0.85394 0.69761 0.0
H112 H 0.48989 0.99668 0.62848 0.0
H113 H 0.4468 0.02262 0.63217 0.0
H114 H 0.45592 0.99456 0.59266 0.0
H115 H 0.39282 0.93849 0.68331 0.0
H116 H 0.37938 0.97221 0.64466 0.0
H117 H 0.40505 0.99063 0.68192 0.0
H118 H 0.33435 0.02677 0.56665 0.0
C119 C 0.37606 0.98199 0.57486 0.0
C120 C 0.64837 0.23652 0.92827 0.0
C121 C 0.61432 0.21936 0.91632 0.0
C122 C 0.59549 0.23892 0.88508 0.0
C123 C 0.64477 0.29001 0.87724 0.0
C124 C 0.6629 0.27181 0.90844 0.0
C125 C 0.69837 0.29449 0.91736 0.0
H126 H 0.82157 0.44993 0.87536 0.0
C127 C 0.66739 0.32564 0.86247 0.0
C128 C 0.69873 0.32877 0.88592 0.0
H129 H 0.82307 0.35856 0.96973 0.0
H130 H 0.76651 0.32867 0.94731 0.0
H131 H 0.72886 0.46349 0.87773 0.0
H132 H 0.79294 0.3888 0.8102 0.0
H133 H 0.76086 0.41816 0.78221 0.0
H134 H 0.79887 0.44213 0.80523 0.0
H135 H 0.76223 0.48434 0.84277 0.0
H136 H 0.7152 0.4702 0.82988 0.0
C137 C 0.69353 0.3093 0.95686 0.0
C138 C 0.73212 0.26676 0.9141 0.0
C139 C 0.62292 0.40509 0.7431 0.0
C140 C 0.63617 0.43932 0.72078 0.0
C141 C 0.66993 0.45793 0.732 0.0
C142 C 0.68963 0.44279 0.7647 0.0
C143 C 0.6756 0.40857 0.78671 0.0
C144 C 0.64266 0.39059 0.77549 0.0
C145 C 0.63114 0.35475 0.80159 0.0
C146 C 0.66252 0.35368 0.83044 0.0
C147 C 0.68888 0.38516 0.82198 0.0
C148 C 0.59244 0.36305 0.81922 0.0
C149 C 0.63139 0.31795 0.77878 0.0
C150 C 0.80975 0.42333 0.89097 0.0
C151 C 0.82699 0.40684 0.92469 0.0
C152 C 0.81033 0.37237 0.94418 0.0
C153 C 0.77741 0.35485 0.93097 0.0
C154 C 0.76029 0.37177 0.89777 0.0
C155 C 0.77629 0.40551 0.87822 0.0
C156 C 0.75313 0.41951 0.84382 0.0
C157 C 0.72078 0.38871 0.84618 0.0
C158 C 0.72547 0.36068 0.87793 0.0
C159 C 0.73915 0.46175 0.84845 0.0
C160 C 0.77763 0.41734 0.8083 0.0
H161 H 0.59472 0.2866 0.84189 0.0
H162 H 0.66374 0.22256 0.95211 0.0
H163 H 0.72865 0.24942 0.88933 0.0
H164 H 0.75924 0.28313 0.90943 0.0
H165 H 0.73441 0.24516 0.93965 0.0
H166 H 0.66342 0.31454 0.96296 0.0
H167 H 0.70389 0.28716 0.97949 0.0
H168 H 0.70784 0.33838 0.95919 0.0
H169 H 0.59775 0.3892 0.73534 0.0
H170 H 0.68095 0.48453 0.71575 0.0
H171 H 0.71496 0.45834 0.77169 0.0
H172 H 0.58878 0.39547 0.82103 0.0
H173 H 0.56879 0.35249 0.80216 0.0
H174 H 0.5894 0.34947 0.8487 0.0
H175 H 0.65484 0.32049 0.75787 0.0
H176 H 0.63628 0.28973 0.79644 0.0
H177 H 0.60467 0.31507 0.763 0.0
H178 H 0.56876 0.22746 0.8757 0.0
C179 C 0.61051 0.27376 0.86553 0.0
C180 C 1.00976 0.75614 0.44466 0.0
C181 C 1.00149 0.7733 0.47799 0.0
C182 C 0.97928 0.75164 0.50608 0.0
C183 C 0.96991 0.69888 0.46569 0.0
C184 C 0.99424 0.71852 0.43945 0.0
C185 C 1.00015 0.69525 0.40609 0.0
H186 H 0.94779 0.53803 0.31254 0.0
C187 C 0.95601 0.6622 0.45078 0.0
C188 C 0.97468 0.65895 0.41647 0.0
H189 H 0.02925 0.63129 0.27656 0.0
H190 H 0.02142 0.65977 0.33584 0.0
H191 H 0.97629 0.52433 0.40275 0.0
H192 H 0.89157 0.58193 0.33536 0.0
H193 H 0.8723 0.58359 0.38043 0.0
H194 H 0.88077 0.53613 0.36316 0.0
H195 H 0.93672 0.50137 0.38141 0.0
H196 H 0.93368 0.5171 0.42824 0.0
C197 C 0.04213 0.68409 0.4049 0.0
C198 C 0.98641 0.72064 0.37027 0.0
C199 C 0.83268 0.5978 0.49876 0.0
C200 C 0.81054 0.56698 0.48555 0.0
C201 C 0.82733 0.54105 0.46219 0.0
C202 C 0.8641 0.54829 0.44891 0.0
C203 C 0.88406 0.58212 0.45851 0.0
C204 C 0.86945 0.60488 0.48485 0.0
C205 C 0.89581 0.63882 0.49245 0.0
C206 C 0.92636 0.635 0.46298 0.0
C207 C 0.91877 0.60209 0.44294 0.0
C208 C 0.91097 0.63099 0.53332 0.0
C209 C 0.87453 0.67838 0.48496 0.0
C210 C 0.96477 0.56402 0.31762 0.0
C211 C 0.98935 0.58222 0.28988 0.0
C212 C 1.00989 0.61681 0.2974 0.0
C213 C 1.00535 0.63323 0.33184 0.0
C214 C 0.97962 0.61516 0.35878 0.0
C215 C 0.9602 0.58091 0.3514 0.0
C216 C 0.93264 0.56645 0.38188 0.0
C217 C 0.93863 0.59769 0.40913 0.0
C218 C 0.96625 0.62609 0.39568 0.0
C219 C 0.94514 0.52498 0.39952 0.0
C220 C 0.8923 0.5668 0.36458 0.0
H221 H 0.94607 0.69955 0.52195 0.0
H222 H 0.02732 0.77199 0.42294 0.0
H223 H 0.95994 0.73594 0.37619 0.0
H224 H 0.97947 0.7028 0.34686 0.0
H225 H 1.00778 0.7439 0.3603 0.0
H226 H 0.05334 0.67709 0.43392 0.0
H227 H 0.05953 0.70904 0.39078 0.0
H228 H 0.04668 0.65699 0.3907 0.0
H229 H 0.8208 0.61733 0.51773 0.0
H230 H 0.81116 0.51688 0.45178 0.0
H231 H 0.87479 0.52854 0.42998 0.0
H232 H 0.90478 0.59998 0.54589 0.0
H233 H 0.89823 0.65126 0.55225 0.0
H234 H 0.94208 0.63452 0.53437 0.0
H235 H 0.86133 0.68063 0.45653 0.0
H236 H 0.89296 0.70494 0.48591 0.0
H237 H 0.85194 0.68023 0.50624 0.0
H238 H 0.97271 0.76436 0.53197 0.0
C239 C 0.96354 0.7144 0.50012 0.0
C240 C 0.89443 0.73505 0.93588 0.0
C241 C 0.92775 0.7183 0.92296 0.0
C242 C 0.9462 0.73845 0.89119 0.0
C243 C 0.89766 0.78816 0.88396 0.0
C244 C 0.88004 0.76999 0.91599 0.0
C245 C 0.84533 0.79245 0.92545 0.0
H246 H 0.72357 0.94431 0.88056 0.0
C247 C 0.87526 0.82287 0.8688 0.0
C248 C 0.84451 0.82592 0.89305 0.0
H249 H 0.72266 0.85863 0.97943 0.0
H250 H 0.77787 0.82812 0.95682 0.0
H251 H 0.74816 0.87977 0.81891 0.0
H252 H 0.81648 0.96032 0.87915 0.0
H253 H 0.82859 0.96463 0.83079 0.0
H254 H 0.78229 0.97821 0.84465 0.0
H255 H 0.74431 0.93294 0.81028 0.0
H256 H 0.78064 0.90695 0.7882 0.0
C257 C 0.81073 0.76392 0.92458 0.0
C258 C 0.85189 0.8088 0.96405 0.0
C259 C 0.91793 0.89984 0.74536 0.0
C260 C 0.90387 0.93216 0.72176 0.0
C261 C 0.87006 0.94923 0.73291 0.0
C262 C 0.85118 0.9347 0.76675 0.0
C263 C 0.86593 0.90243 0.79003 0.0
C264 C 0.89877 0.88565 0.77879 0.0
C265 C 0.91054 0.85123 0.80594 0.0
C266 C 0.87966 0.84987 0.8356 0.0
C267 C 0.85333 0.87998 0.8266 0.0
C268 C 0.90974 0.81337 0.78457 0.0
C269 C 0.94957 0.86196 0.82226 0.0
C270 C 0.73516 0.91884 0.89723 0.0
C271 C 0.71835 0.90419 0.93216 0.0
C272 C 0.73493 0.87112 0.95287 0.0
C273 C 0.7671 0.85324 0.93959 0.0
C274 C 0.78375 0.86842 0.90509 0.0
C275 C 0.76788 0.90084 0.88448 0.0
C276 C 0.79026 0.9134 0.84881 0.0
C277 C 0.82215 0.88357 0.85162 0.0
C278 C 0.81793 0.85689 0.88471 0.0
C279 C 0.76462 0.90832 0.81454 0.0
C280 C 0.80515 0.95653 0.8506 0.0
H281 H 0.94697 0.78577 0.84764 0.0
H282 H 0.8795 0.72095 0.96035 0.0
H283 H 0.88216 0.81648 0.96802 0.0
H284 H 0.83708 0.83685 0.96657 0.0
H285 H 0.84326 0.78646 0.98773 0.0
H286 H 0.81201 0.74686 0.8995 0.0
H287 H 0.80975 0.74212 0.95015 0.0
H288 H 0.78382 0.77966 0.92225 0.0
H289 H 0.94325 0.8852 0.73775 0.0
H290 H 0.85839 0.97428 0.71572 0.0
H291 H 0.82582 0.94917 0.77357 0.0
H292 H 0.88618 0.81421 0.76393 0.0
H293 H 0.93633 0.81081 0.76865 0.0
H294 H 0.90463 0.7856 0.80321 0.0
H295 H 0.95309 0.89467 0.82338 0.0
H296 H 0.95332 0.84911 0.85181 0.0
H297 H 0.97286 0.85232 0.80472 0.0
H298 H 0.9725 0.72776 0.88112 0.0
C299 C 0.93141 0.77272 0.87174 0.0
C300 C 0.71645 0.08193 0.49563 0.0
C301 C 0.72706 0.0431 0.48945 0.0
C302 C 0.69924 0.01623 0.47823 0.0
C303 C 0.65605 0.07021 0.46713 0.0
C304 C 0.68046 0.09466 0.48469 0.0
C305 C 0.66479 0.13555 0.48636 0.0
H306 H 0.54103 0.27463 0.41944 0.0
C307 C 0.62573 0.09469 0.44985 0.0
C308 C 0.62959 0.13264 0.46229 0.0
H309 H 0.62173 0.28068 0.50961 0.0
H310 H 0.63994 0.21323 0.50343 0.0
H311 H 0.50956 0.18025 0.44191 0.0
H312 H 0.59289 0.23774 0.36693 0.0
H313 H 0.58312 0.19219 0.3487 0.0
H314 H 0.54627 0.22791 0.35074 0.0
H315 H 0.5009 0.21545 0.40163 0.0
H316 H 0.50541 0.16331 0.39646 0.0
C317 C 0.65517 0.14059 0.5281 0.0
C318 C 0.69356 0.16696 0.46811 0.0
C319 C 0.5687 0.05163 0.33058 0.0
C320 C 0.5518 0.07355 0.29979 0.0
C321 C 0.53633 0.11075 0.30498 0.0
C322 C 0.54109 0.12738 0.33934 0.0
C323 C 0.5623 0.10702 0.36825 0.0
C324 C 0.57486 0.06928 0.3639 0.0
C325 C 0.60058 0.05367 0.39517 0.0
C326 C 0.60192 0.08868 0.41887 0.0
C327 C 0.57951 0.11986 0.40295 0.0
C328 C 0.58215 0.01585 0.41662 0.0
C329 C 0.63933 0.04641 0.37714 0.0
C330 C 0.56244 0.26114 0.43793 0.0
C331 C 0.58005 0.28276 0.46505 0.0
C332 C 0.60812 0.26462 0.48833 0.0
C333 C 0.61841 0.22541 0.48495 0.0
C334 C 0.60097 0.20428 0.45755 0.0
C335 C 0.57348 0.22201 0.43453 0.0
C336 C 0.5593 0.19504 0.4061 0.0
C337 C 0.58077 0.1573 0.41802 0.0
C338 C 0.60552 0.16337 0.44769 0.0
C339 C 0.51641 0.18813 0.41156 0.0
C340 C 0.5707 0.21406 0.36602 0.0
H341 H 0.64399 0.00873 0.45683 0.0
H342 H 0.73656 0.10301 0.50556 0.0
H343 H 0.70394 0.15802 0.4408 0.0
H344 H 0.68153 0.19671 0.46171 0.0
H345 H 0.71824 0.17007 0.48681 0.0
H346 H 0.65382 0.11156 0.54597 0.0
H347 H 0.67659 0.15964 0.54079 0.0
H348 H 0.62699 0.15348 0.53102 0.0
H349 H 0.57992 0.02253 0.32761 0.0
H350 H 0.52281 0.12814 0.28178 0.0
H351 H 0.5299 0.15633 0.34144 0.0
H352 H 0.55151 0.01326 0.41054 0.0
H353 H 0.59537 0.98834 0.40872 0.0
H354 H 0.58393 0.01635 0.44765 0.0
H355 H 0.64919 0.07344 0.35899 0.0
H356 H 0.66183 0.03917 0.39758 0.0
H357 H 0.63742 0.02128 0.35933 0.0
H358 H 0.7059 0.98551 0.47536 0.0
C359 C 0.66352 0.02962 0.46732 0.0
C360 C 0.418 0.60413 0.29439 0.0
C361 C 0.40436 0.56988 0.31635 0.0
C362 C 0.37106 0.55109 0.30427 0.0
C363 C 0.36679 0.60023 0.24919 0.0
C364 C 0.3992 0.61843 0.26139 0.0
C365 C 0.41132 0.65425 0.23564 0.0
H366 H 0.38331 0.78614 0.08407 0.0
C367 C 0.35458 0.62348 0.21339 0.0
C368 C 0.38097 0.65507 0.20577 0.0
H369 H 0.47529 0.78161 0.16408 0.0
H370 H 0.44851 0.7224 0.19686 0.0
H371 H 0.31599 0.75857 0.14438 0.0
H372 H 0.38486 0.69403 0.07333 0.0
H373 H 0.34051 0.66998 0.07538 0.0
H374 H 0.34485 0.72121 0.05518 0.0
H375 H 0.31252 0.76318 0.09384 0.0
H376 H 0.28667 0.72488 0.12268 0.0
C377 C 0.40997 0.6911 0.25836 0.0
C378 C 0.45068 0.64609 0.21936 0.0
C379 C 0.23667 0.58445 0.14032 0.0
C380 C 0.22046 0.60072 0.10598 0.0
C381 C 0.23762 0.63511 0.08683 0.0
C382 C 0.26998 0.65282 0.10105 0.0
C383 C 0.28599 0.63618 0.13496 0.0
C384 C 0.26954 0.60245 0.1541 0.0
C385 C 0.2915 0.58872 0.18938 0.0
C386 C 0.32365 0.61967 0.18805 0.0
C387 C 0.31994 0.64757 0.15602 0.0
C388 C 0.26569 0.59091 0.22396 0.0
C389 C 0.30598 0.54652 0.18549 0.0
C390 C 0.39784 0.77224 0.1085 0.0
C391 C 0.43127 0.78954 0.12176 0.0
C392 C 0.44902 0.77006 0.15369 0.0
C393 C 0.43353 0.73516 0.17264 0.0
C394 C 0.3999 0.71874 0.15961 0.0
C395 C 0.38284 0.73685 0.12775 0.0
C396 C 0.34795 0.71392 0.11748 0.0
C397 C 0.34666 0.67965 0.14893 0.0
C398 C 0.37705 0.68301 0.17354 0.0
C399 C 0.31382 0.74141 0.11937 0.0
C400 C 0.35448 0.69913 0.07823 0.0
H401 H 0.32728 0.55036 0.26321 0.0
H402 H 0.44281 0.62018 0.30285 0.0
H403 H 0.45464 0.61368 0.21776 0.0
H404 H 0.45464 0.65962 0.18997 0.0
H405 H 0.47365 0.6568 0.23718 0.0
H406 H 0.3861 0.68827 0.27879 0.0
H407 H 0.43629 0.69443 0.27469 0.0
H408 H 0.40499 0.7192 0.24054 0.0
H409 H 0.22446 0.55793 0.15571 0.0
H410 H 0.22568 0.64876 0.06081 0.0
H411 H 0.2813 0.67896 0.08497 0.0
H412 H 0.25024 0.61938 0.22138 0.0
H413 H 0.24453 0.56602 0.22637 0.0
H414 H 0.28149 0.59027 0.25063 0.0
H415 H 0.31753 0.54475 0.15669 0.0
H416 H 0.32916 0.53821 0.2051 0.0
H417 H 0.28285 0.52385 0.19026 0.0
H418 H 0.35975 0.52451 0.32032 0.0
C419 C 0.35228 0.56603 0.27091 0.0
C420 C 0.02875 0.26593 0.58555 0.0
C421 C 0.03681 0.24716 0.55305 0.0
C422 C 0.05756 0.26817 0.52341 0.0
C423 C 0.0664 0.32347 0.56077 0.0
C424 C 0.04312 0.30459 0.58835 0.0
C425 C 0.03679 0.33014 0.62002 0.0
H426 H 0.0846 0.49696 0.70161 0.0
C427 C 0.07925 0.36175 0.57297 0.0
C428 C 0.06059 0.36704 0.60678 0.0
H429 H 1.01294 0.39839 0.74715 0.0
H430 H 1.01617 0.36951 0.6879 0.0
H431 H 0.0552 0.50304 0.61021 0.0
H432 H 0.14141 0.45779 0.6819 0.0
H433 H 0.15986 0.44577 0.63897 0.0
H434 H 0.15269 0.49721 0.6466 0.0
H435 H 0.09324 0.52909 0.63108 0.0
H436 H 0.09844 0.51065 0.5856 0.0
C437 C 0.99439 0.33943 0.62145 0.0
C438 C 0.05223 0.30789 0.65679 0.0
C439 C 0.20549 0.42017 0.529 0.0
C440 C 0.22687 0.45216 0.54109 0.0
C441 C 0.20823 0.48171 0.55882 0.0
C442 C 0.17012 0.47687 0.56845 0.0
C443 C 0.15091 0.44167 0.56145 0.0
C444 C 0.16747 0.41542 0.53956 0.0
C445 C 0.14129 0.38099 0.53303 0.0
C446 C 0.10878 0.38837 0.55936 0.0
C447 C 0.11521 0.42354 0.57645 0.0
C448 C 0.12941 0.38494 0.49089 0.0
C449 C 0.16116 0.34144 0.54543 0.0
C450 C 0.06933 0.46925 0.6989 0.0
C451 C 0.04906 0.44973 0.72946 0.0
C452 C 0.02886 0.41421 0.72416 0.0
C453 C 0.03123 0.39713 0.68986 0.0
C454 C 0.05476 0.4152 0.66093 0.0
C455 C 0.07296 0.45094 0.66571 0.0
C456 C 0.09994 0.46412 0.63425 0.0
C457 C 0.09469 0.4305 0.60929 0.0
C458 C 0.06794 0.4021 0.62482 0.0
C459 C 0.08627 0.504 0.61418 0.0
C460 C 0.14048 0.46651 0.65098 0.0
H461 H 0.08812 0.32123 0.50404 0.0
H462 H 1.01207 0.25069 0.60831 0.0
H463 H 0.07874 0.29253 0.65113 0.0
H464 H 0.05981 0.3279 0.67833 0.0
H465 H 0.03161 0.28495 0.66916 0.0
H466 H 0.98259 0.34448 0.59247 0.0
H467 H 0.97818 0.31431 0.63684 0.0
H468 H 0.98887 0.36703 0.63452 0.0
H469 H 0.21875 0.39812 0.51368 0.0
H470 H 0.2236 0.50715 0.56779 0.0
H471 H 0.15748 0.49964 0.58272 0.0
H472 H 0.14155 0.41221 0.47474 0.0
H473 H 0.13894 0.35929 0.47639 0.0
H474 H 0.09838 0.38707 0.48775 0.0
H475 H 0.17093 0.34087 0.57513 0.0
H476 H 0.14259 0.31509 0.54358 0.0
H477 H 0.18595 0.33768 0.52723 0.0
H478 H 0.06365 0.25435 0.498 0.0
C479 C 0.07219 0.30644 0.52706 0.0
Co480 Co 0.99304 0.0132 0.50371 0.0
C481 C 0.0229 0.93747 0.50346 0.0
Co482 Co 0.04699 1.00528 0.53343 0.0
C483 C 0.9137 0.02452 0.49409 0.0
C484 C 0.93994 0.00963 0.44346 0.0
N485 N 0.94742 0.01725 0.47913 0.0
N486 N 0.88529 0.02119 0.46941 0.0
C487 C 0.90183 0.01217 0.43735 0.0
H488 H 0.90996 0.03057 0.52307 0.0
H489 H 0.96069 1.00153 0.42352 0.0
C490 C 1.01706 0.08117 0.53343 0.0
N491 N 0.09254 1.00121 0.55812 0.0
C492 C 0.12633 0.9934 0.5436 0.0
C493 C 0.0997 0.00881 0.59386 0.0
N494 N 0.15447 0.99625 0.5687 0.0
C495 C 0.13766 1.00563 0.60049 0.0
C496 C 0.05485 0.03222 0.45582 0.0
O497 O 0.9906 0.06706 0.51443 0.0
O498 O 0.04422 0.05906 0.54449 0.0
O499 O 0.07305 0.02286 0.48611 0.0
O500 O 1.01905 0.03034 0.45729 0.0
O501 O 0.04944 0.9513 0.52257 0.0
H502 H 0.07882 0.01712 0.61355 0.0
H503 H 0.13031 0.98712 0.51471 0.0
O504 O 0.99575 0.95965 0.49267 0.0
O505 O 0.96715 0.99581 0.5507 0.0
O506 O 1.02073 0.98785 0.58014 0.0
C507 C 0.98489 0.98615 0.58115 0.0
H508 H 0.88755 0.00727 0.41136 0.0
H509 H 0.15165 0.01017 0.62673 0.0
Co510 Co 0.50838 1.00026 0.99413 0.0
C511 C 0.49895 0.93687 0.05011 0.0
Co512 Co 0.53927 0.00854 0.04629 0.0
C513 C 0.49816 0.98981 0.91564 0.0
C514 C 0.44639 0.98234 0.94665 0.0
N515 N 0.48319 0.99182 0.95022 0.0
N516 N 0.47225 0.97909 0.89071 0.0
C517 C 0.43955 0.97462 0.91009 0.0
H518 H 0.52766 0.99545 0.90902 0.0
H519 H 0.42613 0.9797 0.96949 0.0
C520 C 0.5486 0.07193 0.9901 0.0
N521 N 0.56433 0.01698 0.09026 0.0
C522 C 0.54904 0.01885 0.12471 0.0
C523 C 0.60097 0.02704 0.09406 0.0
N524 N 0.57451 0.03021 0.14976 0.0
C525 C 0.60734 0.03509 0.13064 0.0
C526 C 0.58311 0.97188 0.99454 0.0
O527 O 0.52643 0.05082 0.97187 0.0
O528 O 0.55751 0.05926 0.02369 0.0
O529 O 0.58335 0.98357 0.02745 0.0
O530 O 0.55294 0.97585 0.97534 0.0
O531 O 0.52078 0.95803 0.06868 0.0
H532 H 0.62137 0.02999 0.07134 0.0
H533 H 0.51956 0.01279 0.13112 0.0
O534 O 0.4905 0.94952 1.01642 0.0
O535 O 0.46378 0.02494 1.01353 0.0
O536 O 0.49527 0.03308 0.06486 0.0
C537 C 0.46465 0.03664 0.04647 0.0
H538 H 0.41292 0.96474 0.8991 0.0
H539 H 0.63368 0.04557 0.14177 0.0
Co540 Co 0.54521 0.51916 0.50687 0.0
C541 C 0.48498 0.52257 0.45621 0.0
Co542 Co 0.49286 0.49215 0.53202 0.0
C543 C 0.62466 0.53456 0.49619 0.0
C544 C 0.59143 0.57793 0.46405 0.0
N545 N 0.5888 0.54374 0.48711 0.0
N546 N 0.64956 0.56202 0.48025 0.0
C547 C 0.62874 0.58923 0.45975 0.0
H548 H 0.63222 0.50918 0.51556 0.0
H549 H 0.56767 0.59437 0.45225 0.0
C550 C 0.55328 0.48853 0.58257 0.0
N551 N 0.44898 0.46801 0.55164 0.0
C552 C 0.41351 0.47822 0.542 0.0
C553 C 0.44521 0.43409 0.57491 0.0
N554 N 0.38765 0.45171 0.55773 0.0
C555 C 0.40753 0.424 0.57875 0.0
C556 C 0.53814 0.43954 0.49793 0.0
O557 O 0.57025 0.5063 0.55406 0.0
O558 O 0.51847 0.47941 0.57951 0.0
O559 O 0.50753 0.44298 0.51567 0.0
O560 O 0.55986 0.46984 0.49088 0.0
O561 O 0.46787 0.50499 0.4847 0.0
H562 H 0.46839 0.41707 0.5872 0.0
H563 H 0.40693 0.5037 0.52236 0.0
O564 O 0.5197 0.53176 0.45945 0.0
O565 O 0.53048 0.56832 0.52323 0.0
O566 O 0.47822 0.54148 0.54802 0.0
C567 C 0.49988 0.57179 0.54094 0.0
H568 H 0.63959 0.6157 0.4432 0.0
H569 H 0.39584 0.39795 0.5953 0.0
Co570 Co 0.03874 0.50251 0.98694 0.0
C571 C 0.96502 0.47056 0.98799 0.0
Co572 Co 1.01005 0.5047 0.04136 0.0
C573 C 0.04667 0.49982 0.90667 0.0
C574 C 0.09935 0.49414 0.93566 0.0
N575 N 0.06253 0.50056 0.94104 0.0
N576 N 0.07205 0.4926 0.8801 0.0
C577 C 0.1053 0.4893 0.89832 0.0
H578 H 1.01686 0.50332 0.9015 0.0
H579 H 0.12023 0.49109 0.9578 0.0
C580 C 0.08368 0.53668 0.04047 0.0
N581 N 0.9869 0.50531 0.08776 0.0
C582 C 0.9937 0.53072 0.11403 0.0
C583 C 0.96468 0.47614 0.10521 0.0
N584 N 0.9774 0.51803 0.1474 0.0
C585 C 0.95885 0.48385 0.1419 0.0
C586 C 0.05216 0.43553 0.03728 0.0
O587 O 0.08285 0.52844 1.00637 0.0
O588 O 0.05434 0.52932 0.06058 0.0
O589 O 0.03043 0.45326 0.05823 0.0
O590 O 0.05905 0.45163 1.0041 0.0
O591 O 0.9657 0.47978 0.02177 0.0
H592 H 0.9552 0.44975 0.09277 0.0
H593 H 1.01241 0.55655 0.1096 0.0
O594 O 0.99462 0.47688 0.968 0.0
O595 O 1.01822 0.55316 0.96984 0.0
O596 O 0.98996 0.55641 0.02418 0.0
C597 C 0.99678 0.57164 0.99052 0.0
H598 H 0.13174 0.48165 0.88611 0.0
H599 H 0.94335 0.465 0.16325 0.0
C600 C 0.13186 0.06467 0.3822 0.0
C601 C 0.1104 0.07493 0.34952 0.0
H602 H 0.13146 0.04355 0.44141 0.0
C603 C 0.07106 0.06862 0.35197 0.0
H604 H 0.16213 0.06927 0.38154 0.0
C605 C 0.05351 0.05428 0.38608 0.0
C606 C 0.0746 0.04551 0.4192 0.0
H607 H 0.05352 0.07551 0.3274 0.0
H608 H 0.02313 0.05065 0.38653 0.0
C609 C 0.11417 0.05022 0.41663 0.0
C610 C 0.51797 0.94597 0.80424 0.0
C611 C 0.48833 0.95017 0.77815 0.0
H612 H 0.53616 0.95211 0.86078 0.0
C613 C 0.45396 0.96523 0.78951 0.0
H614 H 0.54472 0.93439 0.79633 0.0
C615 C 0.44913 0.97548 0.82605 0.0
C616 C 0.47844 0.97085 0.85234 0.0
H617 H 0.43021 0.96809 0.77044 0.0
H618 H 0.42224 0.98678 0.83382 0.0
C619 C 0.51314 0.95644 0.84099 0.0
C620 C 0.57518 0.45121 0.68475 0.0
C621 C 0.61486 0.45457 0.68593 0.0
H622 H 0.52486 0.45885 0.65171 0.0
C623 C 0.63378 0.47086 0.65297 0.0
H624 H 0.5593 0.43974 0.7096 0.0
C625 C 0.61378 0.48243 0.61977 0.0
C626 C 0.57426 0.47788 0.61842 0.0
H627 H 0.66421 0.47363 0.6524 0.0
H628 H 0.62947 0.49421 0.59487 0.0
C629 C 0.55525 0.46243 0.65149 0.0
C630 C 0.99043 0.59149 0.21892 0.0
C631 C 0.99114 0.56603 0.25271 0.0
H632 H 0.98505 0.59593 0.15862 0.0
C633 C 0.98965 0.5246 0.25087 0.0
H634 H 0.99116 0.62353 0.21939 0.0
C635 C 0.98541 0.50899 0.21635 0.0
C636 C 0.98311 0.53439 0.18274 0.0
H637 H 0.99097 0.50414 0.2763 0.0
H638 H 0.9839 0.47697 0.21595 0.0
C639 C 0.98662 0.57576 0.1842 0.0
C640 C 0.36486 0.07458 0.06209 0.0
C641 C 0.36443 0.078 0.10127 0.0
H642 H 0.39606 0.05854 1.01414 0.0
C643 C 0.39764 0.06872 0.12162 0.0
H644 H 0.33989 0.0812 0.04539 0.0
C645 C 0.42997 0.05629 0.10362 0.0
C646 C 0.43026 0.05205 0.06463 0.0
H647 H 0.39881 0.07136 0.15164 0.0
H648 H 0.4547 0.04939 0.12061 0.0
C649 C 0.39713 0.06144 0.04412 0.0
C650 C 0.24583 0.96531 0.52824 0.0
C651 C 0.27215 0.98051 0.55284 0.0
H652 H 0.18779 0.9576 0.51437 0.0
C653 C 0.25906 1.00274 0.58133 0.0
H654 H 0.25489 0.94834 0.50579 0.0
C655 C 0.22072 0.00859 0.58587 0.0
C656 C 0.19423 0.992 0.56239 0.0
H657 H 0.27825 0.01433 0.60137 0.0
H658 H 0.21196 0.02575 0.60825 0.0
C659 C 0.20728 0.97089 0.53303 0.0
C660 C 0.86516 0.42827 0.97928 0.0
C661 C 0.86195 0.4249 0.94028 0.0
H662 H 0.89963 0.4451 0.02476 0.0
C663 C 0.89302 0.43703 0.91703 0.0
H664 H 0.84175 0.41963 0.99807 0.0
C665 C 0.92655 0.45132 0.93249 0.0
C666 C 0.92977 0.45438 0.97158 0.0
H667 H 0.89174 0.4346 0.88697 0.0
H668 H 0.94994 0.46012 0.91372 0.0
C669 C 0.89843 0.44294 0.99465 0.0
C670 C 0.74904 0.52905 0.49582 0.0
C671 C 0.76906 0.56561 0.49056 0.0
H672 H 0.6952 0.4992 0.49622 0.0
C673 C 0.74886 0.60103 0.48471 0.0
H674 H 0.76384 0.50127 0.50056 0.0
C675 C 0.70968 0.59984 0.48223 0.0
C676 C 0.68974 0.56323 0.48559 0.0
H677 H 0.76339 0.62969 0.48006 0.0
H678 H 0.69506 0.62765 0.47702 0.0
C679 C 0.70975 0.52788 0.49343 0.0
C680 C 0.11013 0.34107 0.04182 0.0
C681 C 0.11186 0.3293 0.08093 0.0
H682 H 0.09018 0.38328 0.99748 0.0
C683 C 0.09255 0.35251 0.10524 0.0
H684 H 0.12381 0.32393 0.02188 0.0
C685 C 0.07239 0.3861 0.09104 0.0
C686 C 0.07128 0.39808 0.05208 0.0
H687 H 0.09359 0.3454 0.13553 0.0
H688 H 0.05844 0.4033 0.11079 0.0
C689 C 0.09041 0.37505 0.02767 0.0
C690 C 0.57913 0.15384 0.91467 0.0
C691 C 0.5982 0.18125 0.93566 0.0
H692 H 0.54833 0.09857 0.91524 0.0
C693 C 0.60092 0.1721 0.97501 0.0
H694 H 0.57717 0.15911 0.88426 0.0
C695 C 0.58477 0.13672 0.9928 0.0
C696 C 0.56521 0.10984 0.97172 0.0
H697 H 0.61498 0.19253 0.99223 0.0
H698 H 0.58735 0.13061 0.02312 0.0
C699 C 0.56265 0.11886 0.93245 0.0
C700 C 0.99976 0.84542 0.45548 0.0
C701 C 1.01233 0.81513 0.48211 0.0
H702 H 0.99298 0.90809 0.44172 0.0
C703 C 0.03139 0.82542 0.51441 0.0
H704 H 0.98465 0.83815 0.43057 0.0
C705 C 0.03685 0.86549 0.52046 0.0
C706 C 0.02231 0.89568 0.49482 0.0
H707 H 0.04117 0.80244 0.53537 0.0
H708 H 0.05067 0.87276 0.54606 0.0
C709 C 1.00431 0.88533 0.46198 0.0
C710 C 0.44157 0.65692 0.56809 0.0
C711 C 0.46901 0.68746 0.56898 0.0
H712 H 0.42994 0.59605 0.55906 0.0
C713 C 0.50684 0.67921 0.56239 0.0
H714 H 0.41221 0.6626 0.57326 0.0
C715 C 0.51692 0.6414 0.55373 0.0
C716 C 0.48941 0.61099 0.55216 0.0
H717 H 0.52844 0.70237 0.5627 0.0
H718 H 0.54623 0.6361 0.54791 0.0
C719 C 0.45173 0.6189 0.5601 0.0
C720 C 0.9642 0.94851 0.68434 0.0
C721 C 0.92446 0.94742 0.68585 0.0
H722 H 1.01413 0.96141 0.6509 0.0
C723 C 0.90489 0.95999 0.65247 0.0
H724 H 0.9805 0.93977 0.70938 0.0
C725 C 0.92435 0.97255 0.61871 0.0
C726 C 0.96406 0.97316 0.61721 0.0
H727 H 0.8744 0.95931 0.65215 0.0
H728 H 0.90817 0.98159 0.59365 0.0
C729 C 0.98363 0.96117 0.65067 0.0
C730 C 0.5268 0.06376 0.23498 0.0
C731 C 0.55604 0.06032 0.26155 0.0
H732 H 0.50971 0.05665 0.17833 0.0
C733 C 0.59091 0.0458 0.2509 0.0
H734 H 0.49971 0.07492 0.24235 0.0
C735 C 0.59657 0.03524 0.21459 0.0
C736 C 0.56761 0.03898 0.18785 0.0
H737 H 0.61434 0.04354 0.2704 0.0
H738 H 0.62379 0.02434 0.20735 0.0
C739 C 0.53247 0.05296 0.19848 0.0
C740 C 0.40547 0.5391 0.38446 0.0
C741 C 0.42496 0.55482 0.35166 0.0
H742 H 0.40887 0.51676 0.44294 0.0
C743 C 0.46461 0.55807 0.35341 0.0
H744 H 0.37503 0.53641 0.38452 0.0
C745 C 0.48398 0.54742 0.38709 0.0
C746 C 0.46443 0.53265 0.42004 0.0
H747 H 0.48089 0.56908 0.32867 0.0
H748 H 0.51437 0.55092 0.38728 0.0
C749 C 0.42493 0.52809 0.41814 0.0
C750 C 0.02358 0.4607 0.79377 0.0
C751 C 0.05338 0.46367 0.76758 0.0
H752 H 1.00604 0.46744 0.8502 0.0
C753 C 0.08868 0.47821 0.7787 0.0
H754 H 0.99601 0.44983 0.78611 0.0
C755 C 0.09424 0.489 0.81502 0.0
C756 C 0.06489 0.485 0.84159 0.0
H757 H 0.11264 0.48016 0.75974 0.0
H758 H 0.12185 0.4999 0.82241 0.0
C759 C 0.02926 0.47127 0.83041 0.0
C760 C 0.65299 0.93395 0.92449 0.0
C761 C 0.68401 0.92284 0.9476 0.0
H762 H 0.59702 0.9572 0.92093 0.0
C763 C 0.6814 0.92843 0.98624 0.0
H764 H 0.65364 0.92992 0.89472 0.0
C765 C 0.64901 0.94437 1.00128 0.0
C766 C 0.61774 0.95482 0.97836 0.0
H767 H 0.70467 0.92071 1.00501 0.0
H768 H 0.64842 0.94823 0.03109 0.0
C769 C 0.6203 0.94937 0.93966 0.0
C770 C 0.7806 0.01153 0.45914 0.0
C771 C 0.76753 0.03309 0.48813 0.0
H772 H 0.82774 0.99033 0.43085 0.0
C773 C 0.79397 0.0489 0.51224 0.0
H774 H 0.76128 0.99952 0.43946 0.0
C775 C 0.83254 0.04465 0.50645 0.0
C776 C 0.84554 0.02425 0.47657 0.0
H777 H 0.78493 0.06539 0.53504 0.0
H778 H 0.85206 0.05841 0.52476 0.0
C779 C 0.819 0.00699 0.45358 0.0
C780 C 0.1545 0.57033 0.11238 0.0
C781 C 0.18587 0.58266 0.08965 0.0
H782 H 0.09772 0.54698 0.11482 0.0
C783 C 0.1833 0.57938 0.05056 0.0
H784 H 0.15525 0.5727 0.14246 0.0
C785 C 0.15034 0.56457 0.03465 0.0
C786 C 0.11873 0.55291 0.05725 0.0
H787 H 0.20697 0.58816 0.03216 0.0
H788 H 0.14961 0.56244 1.00452 0.0
C789 C 0.12134 0.5559 0.09639 0.0
C790 C 0.28734 0.41599 0.55078 0.0
C791 C 0.26868 0.4518 0.54056 0.0
H792 H 0.33957 0.38782 0.56401 0.0
C793 C 0.29011 0.48739 0.53443 0.0
H794 H 0.27171 0.38808 0.55635 0.0
C795 C 0.32911 0.48733 0.53969 0.0
C796 C 0.34758 0.45167 0.55114 0.0
H797 H 0.27665 0.51544 0.52634 0.0
H798 H 0.34457 0.51544 0.53581 0.0
C799 C 0.32628 0.41593 0.55595 0.0
C800 C 0.94248 0.6694 0.98057 0.0
C801 C 0.94363 0.67993 0.9412 0.0
H802 H 0.95836 0.62733 0.0272 0.0
C803 C 0.96156 0.65376 0.91881 0.0
H804 H 0.92913 0.68863 0.9989 0.0
C805 C 0.9789 0.61933 0.93502 0.0
C806 C 0.97846 0.60911 0.97427 0.0
H807 H 0.96219 0.6597 0.88838 0.0
H808 H 0.9924 0.60038 0.91648 0.0
C809 C 0.95955 0.63436 0.99687 0.0
C810 C 0.46614 0.85509 0.12463 0.0
C811 C 0.44794 0.82765 0.10301 0.0
H812 H 0.4968 0.91039 0.12505 0.0
C813 C 0.44669 0.8367 0.06358 0.0
H814 H 0.46696 0.84988 0.15511 0.0
C815 C 0.46337 0.87202 0.04634 0.0
C816 C 0.48205 0.89895 0.06806 0.0
H817 H 0.43337 0.81624 0.04589 0.0
H818 H 0.46189 0.87807 1.01593 0.0
C819 C 0.48321 0.89003 0.1074 0.0
C820 C 0.04141 0.17566 0.57744 0.0
C821 C 0.02667 0.20478 0.55088 0.0
H822 H 0.05024 0.11346 0.59239 0.0
C823 C 1.00604 0.1929 0.52017 0.0
H824 H 0.05774 0.18423 0.60112 0.0
C825 C 1.00111 0.15243 0.51553 0.0
C826 C 1.01768 0.12337 0.54097 0.0
H827 H 0.9946 0.21496 0.49929 0.0
H828 H 0.98597 0.14401 0.49107 0.0
C829 C 0.03732 0.1353 0.57229 0.0
C830 C 0.59639 0.35428 0.47107 0.0
C831 C 0.56891 0.32382 0.47004 0.0
H832 H 0.6081 0.41511 0.48016 0.0
C833 C 0.53104 0.3322 0.47627 0.0
H834 H 0.62578 0.34847 0.46619 0.0
C835 C 0.52098 0.37004 0.48485 0.0
C836 C 0.54856 0.40035 0.48664 0.0
H837 H 0.50942 0.30908 0.47586 0.0
H838 H 0.49166 0.37545 0.49045 0.0
C839 C 0.58627 0.39234 0.47895 0.0
loop_
_geom_bond_atom_site_label_1
_geom_bond_atom_site_label_2
_geom_bond_distance
_geom_bond_site_symmetry_2
_ccdc_geom_bond_type
C0 C1 1.391 . S
C0 C4 1.391 . S
C0 H42 0.948 . S
C1 C0 1.391 . S
C1 C2 1.391 . S
C2 C1 1.391 . S
C2 H58 0.947 . S
C2 C59 1.392 . S
C3 C4 1.391 . S
C3 C7 1.397 . S
C3 C59 1.419 . S
C4 C0 1.391 . S
C4 C3 1.391 . S
C4 C5 1.399 . S
C5 C4 1.399 . S
C5 C8 1.396 . S
C5 C17 1.453 . S
C5 C18 1.684 . S
H6 C30 0.948 . S
C7 C3 1.397 . S
C7 C8 1.394 . S
C7 C26 1.723 . S
C8 C5 1.396 . S
C8 C7 1.394 . S
C8 C38 1.723 . S
H9 C32 0.947 . S
H10 C33 0.948 . S
H11 C39 0.982 . S
H12 C40 0.979 . S
H13 C40 0.980 . S
H14 C40 0.983 1_556 S
H15 C39 0.979 . S
H16 C39 0.977 . S
C17 C5 1.453 . S
C17 H46 0.982 . S
C17 H47 0.979 . S
C17 H48 0.977 . S
C18 C5 1.684 . S
C18 H43 0.979 1_545 S
C18 H44 0.980 . S
C18 H45 0.983 1_545 S
C19 C20 1.391 . S
C19 C24 1.391 . S
C19 H49 0.948 . S
C20 C19 1.391 . S
C20 C21 1.391 . S
C21 C20 1.391 . S
C21 C22 1.392 . S
C21 H50 0.947 . S
C22 C21 1.392 . S
C22 C23 1.419 . S
C22 H51 0.948 . S
C23 C22 1.419 . S
C23 C24 1.391 . S
C23 C27 1.397 . S
C24 C19 1.391 . S
C24 C23 1.391 . S
C24 C25 1.399 . S
C25 C24 1.399 . S
C25 C26 1.396 . S
C25 C28 1.453 . S
C25 C29 1.684 . S
C26 C7 1.723 . S
C26 C25 1.396 . S
C26 C27 1.394 . S
C27 C23 1.397 . S
C27 C26 1.394 . S
C27 C37 1.723 . S
C28 C25 1.453 . S
C28 H52 0.982 . S
C28 H53 0.979 . S
C28 H54 0.977 . S
C29 C25 1.684 . S
C29 H55 0.979 . S
C29 H56 0.980 . S
C29 H57 0.983 . S
C30 H6 0.948 . S
C30 C31 1.391 . S
C30 C35 1.391 . S
C31 C30 1.391 . S
C31 C32 1.391 . S
C32 H9 0.947 . S
C32 C31 1.391 . S
C32 C33 1.392 . S
C33 H10 0.948 . S
C33 C32 1.392 . S
C33 C34 1.419 . S
C34 C33 1.419 . S
C34 C35 1.391 . S
C34 C38 1.397 . S
C35 C30 1.391 . S
C35 C34 1.391 . S
C35 C36 1.399 . S
C36 C35 1.399 . S
C36 C37 1.396 . S
C36 C39 1.453 . S
C36 C40 1.684 . S
C37 C27 1.723 . S
C37 C36 1.396 . S
C37 C38 1.394 . S
C38 C8 1.723 . S
C38 C34 1.397 . S
C38 C37 1.394 . S
C39 H11 0.982 . S
C39 H15 0.979 . S
C39 H16 0.977 . S
C39 C36 1.453 . S
C40 H12 0.979 . S
C40 H13 0.980 . S
C40 H14 0.983 1_554 S
C40 C36 1.684 . S
H41 C59 0.948 . S
H42 C0 0.948 . S
H43 C18 0.979 1_565 S
H44 C18 0.980 . S
H45 C18 0.983 1_565 S
H46 C17 0.982 . S
H47 C17 0.979 . S
H48 C17 0.977 . S
H49 C19 0.948 . S
H50 C21 0.947 . S
H51 C22 0.948 . S
H52 C28 0.982 . S
H53 C28 0.979 . S
H54 C28 0.977 . S
H55 C29 0.979 . S
H56 C29 0.980 . S
H57 C29 0.983 . S
H58 C2 0.947 . S
C59 C2 1.392 . S
C59 C3 1.419 . S
C59 H41 0.948 . S
C60 C61 1.391 . S
C60 C64 1.391 . S
C60 H102 0.948 . S
C61 C60 1.391 . S
C61 C62 1.391 . S
C62 C61 1.391 . S
C62 H118 0.947 . S
C62 C119 1.392 . S
C63 C64 1.391 . S
C63 C67 1.397 . S
C63 C119 1.419 . S
C64 C60 1.391 . S
C64 C63 1.391 . S
C64 C65 1.399 . S
C65 C64 1.399 . S
C65 C68 1.396 . S
C65 C77 1.453 . S
C65 C78 1.684 . S
H66 C90 0.948 . S
C67 C63 1.397 . S
C67 C68 1.394 . S
C67 C86 1.723 . S
C68 C65 1.396 . S
C68 C67 1.394 . S
C68 C98 1.723 . S
H69 C92 0.947 . S
H70 C93 0.948 . S
H71 C99 0.982 . S
H72 C100 0.979 . S
H73 C100 0.980 . S
H74 C100 0.983 . S
H75 C99 0.979 . S
H76 C99 0.977 . S
C77 C65 1.453 . S
C77 H106 0.982 . S
C77 H107 0.979 . S
C77 H108 0.977 . S
C78 C65 1.684 . S
C78 H103 0.979 . S
C78 H104 0.980 . S
C78 H105 0.983 . S
C79 C80 1.391 . S
C79 C84 1.391 . S
C79 H109 0.948 . S
C80 C79 1.391 . S
C80 C81 1.391 . S
C81 C80 1.391 . S
C81 C82 1.392 . S
C81 H110 0.947 . S
C82 C81 1.392 . S
C82 C83 1.419 . S
C82 H111 0.948 . S
C83 C82 1.419 . S
C83 C84 1.391 . S
C83 C87 1.397 . S
C84 C79 1.391 . S
C84 C83 1.391 . S
C84 C85 1.399 . S
C85 C84 1.399 . S
C85 C86 1.396 . S
C85 C88 1.453 . S
C85 C89 1.684 . S
C86 C67 1.723 . S
C86 C85 1.396 . S
C86 C87 1.394 . S
C87 C83 1.397 . S
C87 C86 1.394 . S
C87 C97 1.723 . S
C88 C85 1.453 . S
C88 H112 0.982 . S
C88 H113 0.979 . S
C88 H114 0.977 . S
C89 C85 1.684 . S
C89 H115 0.979 . S
C89 H116 0.980 . S
C89 H117 0.983 . S
C90 H66 0.948 . S
C90 C91 1.391 . S
C90 C95 1.391 . S
C91 C90 1.391 . S
C91 C92 1.391 . S
C92 H69 0.947 . S
C92 C91 1.391 . S
C92 C93 1.392 . S
C93 H70 0.948 . S
C93 C92 1.392 . S
C93 C94 1.419 . S
C94 C93 1.419 . S
C94 C95 1.391 . S
C94 C98 1.397 . S
C95 C90 1.391 . S
C95 C94 1.391 . S
C95 C96 1.399 . S
C96 C95 1.399 . S
C96 C97 1.396 . S
C96 C99 1.453 . S
C96 C100 1.684 . S
C97 C87 1.723 . S
C97 C96 1.396 . S
C97 C98 1.394 . S
C98 C68 1.723 . S
C98 C94 1.397 . S
C98 C97 1.394 . S
C99 H71 0.982 . S
C99 H75 0.979 . S
C99 H76 0.977 . S
C99 C96 1.453 . S
C100 H72 0.979 . S
C100 H73 0.980 . S
C100 H74 0.983 . S
C100 C96 1.684 . S
H101 C119 0.948 . S
H102 C60 0.948 . S
H103 C78 0.979 . S
H104 C78 0.980 . S
H105 C78 0.983 . S
H106 C77 0.982 . S
H107 C77 0.979 . S
H108 C77 0.977 . S
H109 C79 0.948 . S
H110 C81 0.947 . S
H111 C82 0.948 . S
H112 C88 0.982 . S
H113 C88 0.979 . S
H114 C88 0.977 . S
H115 C89 0.979 . S
H116 C89 0.980 . S
H117 C89 0.983 . S
H118 C62 0.947 . S
C119 C62 1.392 . S
C119 C63 1.419 . S
C119 H101 0.948 . S
C120 C121 1.391 . S
C120 C124 1.391 . S
C120 H162 0.948 . S
C121 C120 1.391 . S
C121 C122 1.391 . S
C122 C121 1.391 . S
C122 H178 0.947 . S
C122 C179 1.392 . S
C123 C124 1.391 . S
C123 C127 1.397 . S
C123 C179 1.419 . S
C124 C120 1.391 . S
C124 C123 1.391 . S
C124 C125 1.399 . S
C125 C124 1.399 . S
C125 C128 1.396 . S
C125 C137 1.453 . S
C125 C138 1.684 . S
H126 C150 0.948 . S
C127 C123 1.397 . S
C127 C128 1.394 . S
C127 C146 1.723 . S
C128 C125 1.396 . S
C128 C127 1.394 . S
C128 C158 1.723 . S
H129 C152 0.947 . S
H130 C153 0.948 . S
H131 C159 0.982 . S
H132 C160 0.979 . S
H133 C160 0.980 . S
H134 C160 0.983 . S
H135 C159 0.979 . S
H136 C159 0.977 . S
C137 C125 1.453 . S
C137 H166 0.982 . S
C137 H167 0.979 . S
C137 H168 0.977 . S
C138 C125 1.684 . S
C138 H163 0.979 . S
C138 H164 0.980 . S
C138 H165 0.983 . S
C139 C140 1.391 . S
C139 C144 1.391 . S
C139 H169 0.948 . S
C140 C139 1.391 . S
C140 C141 1.391 . S
C141 C140 1.391 . S
C141 C142 1.392 . S
C141 H170 0.947 . S
C142 C141 1.392 . S
C142 C143 1.419 . S
C142 H171 0.948 . S
C143 C142 1.419 . S
C143 C144 1.391 . S
C143 C147 1.397 . S
C144 C139 1.391 . S
C144 C143 1.391 . S
C144 C145 1.399 . S
C145 C144 1.399 . S
C145 C146 1.396 . S
C145 C148 1.453 . S
C145 C149 1.684 . S
C146 C127 1.723 . S
C146 C145 1.396 . S
C146 C147 1.394 . S
C147 C143 1.397 . S
C147 C146 1.394 . S
C147 C157 1.723 . S
C148 C145 1.453 . S
C148 H172 0.982 . S
C148 H173 0.979 . S
C148 H174 0.977 . S
C149 C145 1.684 . S
C149 H175 0.979 . S
C149 H176 0.980 . S
C149 H177 0.983 . S
C150 H126 0.948 . S
C150 C151 1.391 . S
C150 C155 1.391 . S
C151 C150 1.391 . S
C151 C152 1.391 . S
C152 H129 0.947 . S
C152 C151 1.391 . S
C152 C153 1.392 . S
C153 H130 0.948 . S
C153 C152 1.392 . S
C153 C154 1.419 . S
C154 C153 1.419 . S
C154 C155 1.391 . S
C154 C158 1.397 . S
C155 C150 1.391 . S
C155 C154 1.391 . S
C155 C156 1.399 . S
C156 C155 1.399 . S
C156 C157 1.396 . S
C156 C159 1.453 . S
C156 C160 1.684 . S
C157 C147 1.723 . S
C157 C156 1.396 . S
C157 C158 1.394 . S
C158 C128 1.723 . S
C158 C154 1.397 . S
C158 C157 1.394 . S
C159 H131 0.982 . S
C159 H135 0.979 . S
C159 H136 0.977 . S
C159 C156 1.453 . S
C160 H132 0.979 . S
C160 H133 0.980 . S
C160 H134 0.983 . S
C160 C156 1.684 . S
H161 C179 0.948 . S
H162 C120 0.948 . S
H163 C138 0.979 . S
H164 C138 0.980 . S
H165 C138 0.983 . S
H166 C137 0.982 . S
H167 C137 0.979 . S
H168 C137 0.977 . S
H169 C139 0.948 . S
H170 C141 0.947 . S
H171 C142 0.948 . S
H172 C148 0.982 . S
H173 C148 0.979 . S
H174 C148 0.977 . S
H175 C149 0.979 . S
H176 C149 0.980 . S
H177 C149 0.983 . S
H178 C122 0.947 . S
C179 C122 1.392 . S
C179 C123 1.419 . S
C179 H161 0.948 . S
C180 C181 1.391 . S
C180 C184 1.391 . S
C180 H222 0.948 . S
C181 C180 1.391 . S
C181 C182 1.391 . S
C182 C181 1.391 . S
C182 H238 0.947 . S
C182 C239 1.392 . S
C183 C184 1.391 . S
C183 C187 1.397 . S
C183 C239 1.419 . S
C184 C180 1.391 . S
C184 C183 1.391 . S
C184 C185 1.399 . S
C185 C184 1.399 . S
C185 C188 1.396 . S
C185 C197 1.453 . S
C185 C198 1.684 . S
H186 C210 0.948 . S
C187 C183 1.397 . S
C187 C188 1.394 . S
C187 C206 1.723 . S
C188 C185 1.396 . S
C188 C187 1.394 . S
C188 C218 1.723 . S
H189 C212 0.947 1_455 S
H190 C213 0.948 . S
H191 C219 0.982 . S
H192 C220 0.979 . S
H193 C220 0.980 . S
H194 C220 0.983 . S
H195 C219 0.979 . S
H196 C219 0.977 . S
C197 C185 1.453 . S
C197 H226 0.980 1_655 S
C197 H227 0.979 1_655 S
C197 H228 0.978 . S
C198 C185 1.684 . S
C198 H223 0.979 . S
C198 H224 0.980 . S
C198 H225 0.983 . S
C199 C200 1.391 . S
C199 C204 1.391 . S
C199 H229 0.948 . S
C200 C199 1.391 . S
C200 C201 1.391 . S
C201 C200 1.391 . S
C201 C202 1.392 . S
C201 H230 0.947 . S
C202 C201 1.392 . S
C202 C203 1.419 . S
C202 H231 0.948 . S
C203 C202 1.419 . S
C203 C204 1.391 . S
C203 C207 1.397 . S
C204 C199 1.391 . S
C204 C203 1.391 . S
C204 C205 1.399 . S
C205 C204 1.399 . S
C205 C206 1.396 . S
C205 C208 1.453 . S
C205 C209 1.684 . S
C206 C187 1.723 . S
C206 C205 1.396 . S
C206 C207 1.394 . S
C207 C203 1.397 . S
C207 C206 1.394 . S
C207 C217 1.723 . S
C208 C205 1.453 . S
C208 H232 0.982 . S
C208 H233 0.979 . S
C208 H234 0.977 . S
C209 C205 1.684 . S
C209 H235 0.979 . S
C209 H236 0.980 . S
C209 H237 0.983 . S
C210 H186 0.948 . S
C210 C211 1.391 . S
C210 C215 1.391 . S
C211 C210 1.391 . S
C211 C212 1.391 . S
C212 H189 0.947 1_655 S
C212 C211 1.391 . S
C212 C213 1.392 . S
C213 H190 0.948 . S
C213 C212 1.392 . S
C213 C214 1.419 . S
C214 C213 1.419 . S
C214 C215 1.391 . S
C214 C218 1.397 . S
C215 C210 1.391 . S
C215 C214 1.391 . S
C215 C216 1.399 . S
C216 C215 1.399 . S
C216 C217 1.396 . S
C216 C219 1.453 . S
C216 C220 1.684 . S
C217 C207 1.723 . S
C217 C216 1.396 . S
C217 C218 1.394 . S
C218 C188 1.723 . S
C218 C214 1.397 . S
C218 C217 1.394 . S
C219 H191 0.982 . S
C219 H195 0.979 . S
C219 H196 0.977 . S
C219 C216 1.453 . S
C220 H192 0.979 . S
C220 H193 0.980 . S
C220 H194 0.983 . S
C220 C216 1.684 . S
H221 C239 0.948 . S
H222 C180 0.948 . S
H223 C198 0.979 . S
H224 C198 0.980 . S
H225 C198 0.983 . S
H226 C197 0.980 1_455 S
H227 C197 0.979 1_455 S
H228 C197 0.978 . S
H229 C199 0.948 . S
H230 C201 0.947 . S
H231 C202 0.948 . S
H232 C208 0.982 . S
H233 C208 0.979 . S
H234 C208 0.977 . S
H235 C209 0.979 . S
H236 C209 0.980 . S
H237 C209 0.983 . S
H238 C182 0.947 . S
C239 C182 1.392 . S
C239 C183 1.419 . S
C239 H221 0.948 . S
C240 C241 1.391 . S
C240 C244 1.391 . S
C240 H282 0.948 . S
C241 C240 1.391 . S
C241 C242 1.391 . S
C242 C241 1.391 . S
C242 H298 0.947 . S
C242 C299 1.392 . S
C243 C244 1.391 . S
C243 C247 1.397 . S
C243 C299 1.419 . S
C244 C240 1.391 . S
C244 C243 1.391 . S
C244 C245 1.399 . S
C245 C244 1.399 . S
C245 C248 1.396 . S
C245 C257 1.453 . S
C245 C258 1.684 . S
H246 C270 0.948 . S
C247 C243 1.397 . S
C247 C248 1.394 . S
C247 C266 1.723 . S
C248 C245 1.396 . S
C248 C247 1.394 . S
C248 C278 1.723 . S
H249 C272 0.947 . S
H250 C273 0.948 . S
H251 C279 0.982 . S
H252 C280 0.979 1_545 S
H253 C280 0.980 . S
H254 C280 0.983 1_545 S
H255 C279 0.979 . S
H256 C279 0.977 . S
C257 C245 1.453 . S
C257 H286 0.982 . S
C257 H287 0.979 . S
C257 H288 0.977 . S
C258 C245 1.684 . S
C258 H283 0.979 . S
C258 H284 0.980 . S
C258 H285 0.983 1_556 S
C259 C260 1.391 . S
C259 C264 1.391 . S
C259 H289 0.948 . S
C260 C259 1.391 . S
C260 C261 1.391 . S
C261 C260 1.391 . S
C261 C262 1.392 . S
C261 H290 0.947 . S
C262 C261 1.392 . S
C262 C263 1.419 . S
C262 H291 0.948 . S
C263 C262 1.419 . S
C263 C264 1.391 . S
C263 C267 1.397 . S
C264 C259 1.391 . S
C264 C263 1.391 . S
C264 C265 1.399 . S
C265 C264 1.399 . S
C265 C266 1.396 . S
C265 C268 1.453 . S
C265 C269 1.684 . S
C266 C247 1.723 . S
C266 C265 1.396 . S
C266 C267 1.394 . S
C267 C263 1.397 . S
C267 C266 1.394 . S
C267 C277 1.723 . S
C268 C265 1.453 . S
C268 H292 0.982 . S
C268 H293 0.979 . S
C268 H294 0.977 . S
C269 C265 1.684 . S
C269 H295 0.979 . S
C269 H296 0.980 . S
C269 H297 0.983 . S
C270 H246 0.948 . S
C270 C271 1.391 . S
C270 C275 1.391 . S
C271 C270 1.391 . S
C271 C272 1.391 . S
C272 H249 0.947 . S
C272 C271 1.391 . S
C272 C273 1.392 . S
C273 H250 0.948 . S
C273 C272 1.392 . S
C273 C274 1.419 . S
C274 C273 1.419 . S
C274 C275 1.391 . S
C274 C278 1.397 . S
C275 C270 1.391 . S
C275 C274 1.391 . S
C275 C276 1.399 . S
C276 C275 1.399 . S
C276 C277 1.396 . S
C276 C279 1.453 . S
C276 C280 1.684 . S
C277 C267 1.723 . S
C277 C276 1.396 . S
C277 C278 1.394 . S
C278 C248 1.723 . S
C278 C274 1.397 . S
C278 C277 1.394 . S
C279 H251 0.982 . S
C279 H255 0.979 . S
C279 H256 0.977 . S
C279 C276 1.453 . S
C280 H252 0.979 1_565 S
C280 H253 0.980 . S
C280 H254 0.983 1_565 S
C280 C276 1.684 . S
H281 C299 0.948 . S
H282 C240 0.948 . S
H283 C258 0.979 . S
H284 C258 0.980 . S
H285 C258 0.983 1_554 S
H286 C257 0.982 . S
H287 C257 0.979 . S
H288 C257 0.977 . S
H289 C259 0.948 . S
H290 C261 0.947 . S
H291 C262 0.948 . S
H292 C268 0.982 . S
H293 C268 0.979 . S
H294 C268 0.977 . S
H295 C269 0.979 . S
H296 C269 0.980 . S
H297 C269 0.983 . S
H298 C242 0.947 . S
C299 C242 1.392 . S
C299 C243 1.419 . S
C299 H281 0.948 . S
C300 C301 1.391 . S
C300 C304 1.391 . S
C300 H342 0.948 . S
C301 C300 1.391 . S
C301 C302 1.391 . S
C302 C301 1.391 . S
C302 H358 0.947 . S
C302 C359 1.392 . S
C303 C304 1.391 . S
C303 C307 1.397 . S
C303 C359 1.419 . S
C304 C300 1.391 . S
C304 C303 1.391 . S
C304 C305 1.399 . S
C305 C304 1.399 . S
C305 C308 1.396 . S
C305 C317 1.453 . S
C305 C318 1.684 . S
H306 C330 0.948 . S
C307 C303 1.397 . S
C307 C308 1.394 . S
C307 C326 1.723 . S
C308 C305 1.396 . S
C308 C307 1.394 . S
C308 C338 1.723 . S
H309 C332 0.947 . S
H310 C333 0.948 . S
H311 C339 0.982 . S
H312 C340 0.979 . S
H313 C340 0.980 . S
H314 C340 0.983 . S
H315 C339 0.979 . S
H316 C339 0.977 . S
C317 C305 1.453 . S
C317 H346 0.982 . S
C317 H347 0.979 . S
C317 H348 0.977 . S
C318 C305 1.684 . S
C318 H343 0.979 . S
C318 H344 0.980 . S
C318 H345 0.983 . S
C319 C320 1.391 . S
C319 C324 1.391 . S
C319 H349 0.948 . S
C320 C319 1.391 . S
C320 C321 1.391 . S
C321 C320 1.391 . S
C321 C322 1.392 . S
C321 H350 0.947 . S
C322 C321 1.392 . S
C322 C323 1.419 . S
C322 H351 0.948 . S
C323 C322 1.419 . S
C323 C324 1.391 . S
C323 C327 1.397 . S
C324 C319 1.391 . S
C324 C323 1.391 . S
C324 C325 1.399 . S
C325 C324 1.399 . S
C325 C326 1.396 . S
C325 C328 1.453 . S
C325 C329 1.684 . S
C326 C307 1.723 . S
C326 C325 1.396 . S
C326 C327 1.394 . S
C327 C323 1.397 . S
C327 C326 1.394 . S
C327 C337 1.723 . S
C328 C325 1.453 . S
C328 H352 0.982 . S
C328 H353 0.979 . S
C328 H354 0.977 . S
C329 C325 1.684 . S
C329 H355 0.979 . S
C329 H356 0.980 . S
C329 H357 0.983 . S
C330 H306 0.948 . S
C330 C331 1.391 . S
C330 C335 1.391 . S
C331 C330 1.391 . S
C331 C332 1.391 . S
C332 H309 0.947 . S
C332 C331 1.391 . S
C332 C333 1.392 . S
C333 H310 0.948 . S
C333 C332 1.392 . S
C333 C334 1.419 . S
C334 C333 1.419 . S
C334 C335 1.391 . S
C334 C338 1.397 . S
C335 C330 1.391 . S
C335 C334 1.391 . S
C335 C336 1.399 . S
C336 C335 1.399 . S
C336 C337 1.396 . S
C336 C339 1.453 . S
C336 C340 1.684 . S
C337 C327 1.723 . S
C337 C336 1.396 . S
C337 C338 1.394 . S
C338 C308 1.723 . S
C338 C334 1.397 . S
C338 C337 1.394 . S
C339 H311 0.982 . S
C339 H315 0.979 . S
C339 H316 0.977 . S
C339 C336 1.453 . S
C340 H312 0.979 . S
C340 H313 0.980 . S
C340 H314 0.983 . S
C340 C336 1.684 . S
H341 C359 0.948 . S
H342 C300 0.948 . S
H343 C318 0.979 . S
H344 C318 0.980 . S
H345 C318 0.983 . S
H346 C317 0.982 . S
H347 C317 0.979 . S
H348 C317 0.977 . S
H349 C319 0.948 . S
H350 C321 0.947 . S
H351 C322 0.948 . S
H352 C328 0.982 . S
H353 C328 0.979 . S
H354 C328 0.977 . S
H355 C329 0.979 . S
H356 C329 0.980 . S
H357 C329 0.983 . S
H358 C302 0.947 . S
C359 C302 1.392 . S
C359 C303 1.419 . S
C359 H341 0.948 . S
C360 C361 1.391 . S
C360 C364 1.391 . S
C360 H402 0.948 . S
C361 C360 1.391 . S
C361 C362 1.391 . S
C362 C361 1.391 . S
C362 H418 0.947 . S
C362 C419 1.392 . S
C363 C364 1.391 . S
C363 C367 1.397 . S
C363 C419 1.419 . S
C364 C360 1.391 . S
C364 C363 1.391 . S
C364 C365 1.399 . S
C365 C364 1.399 . S
C365 C368 1.396 . S
C365 C377 1.453 . S
C365 C378 1.684 . S
H366 C390 0.948 . S
C367 C363 1.397 . S
C367 C368 1.394 . S
C367 C386 1.723 . S
C368 C365 1.396 . S
C368 C367 1.394 . S
C368 C398 1.723 . S
H369 C392 0.947 . S
H370 C393 0.948 . S
H371 C399 0.982 . S
H372 C400 0.979 . S
H373 C400 0.980 . S
H374 C400 0.983 . S
H375 C399 0.979 . S
H376 C399 0.977 . S
C377 C365 1.453 . S
C377 H406 0.982 . S
C377 H407 0.979 . S
C377 H408 0.977 . S
C378 C365 1.684 . S
C378 H403 0.979 . S
C378 H404 0.980 . S
C378 H405 0.983 . S
C379 C380 1.391 . S
C379 C384 1.391 . S
C379 H409 0.948 . S
C380 C379 1.391 . S
C380 C381 1.391 . S
C381 C380 1.391 . S
C381 C382 1.392 . S
C381 H410 0.947 . S
C382 C381 1.392 . S
C382 C383 1.419 . S
C382 H411 0.948 . S
C383 C382 1.419 . S
C383 C384 1.391 . S
C383 C387 1.397 . S
C384 C379 1.391 . S
C384 C383 1.391 . S
C384 C385 1.399 . S
C385 C384 1.399 . S
C385 C386 1.396 . S
C385 C388 1.453 . S
C385 C389 1.684 . S
C386 C367 1.723 . S
C386 C385 1.396 . S
C386 C387 1.394 . S
C387 C383 1.397 . S
C387 C386 1.394 . S
C387 C397 1.723 . S
C388 C385 1.453 . S
C388 H412 0.982 . S
C388 H413 0.979 . S
C388 H414 0.977 . S
C389 C385 1.684 . S
C389 H415 0.979 . S
C389 H416 0.980 . S
C389 H417 0.983 . S
C390 H366 0.948 . S
C390 C391 1.391 . S
C390 C395 1.391 . S
C391 C390 1.391 . S
C391 C392 1.391 . S
C392 H369 0.947 . S
C392 C391 1.391 . S
C392 C393 1.392 . S
C393 H370 0.948 . S
C393 C392 1.392 . S
C393 C394 1.419 . S
C394 C393 1.419 . S
C394 C395 1.391 . S
C394 C398 1.397 . S
C395 C390 1.391 . S
C395 C394 1.391 . S
C395 C396 1.399 . S
C396 C395 1.399 . S
C396 C397 1.396 . S
C396 C399 1.453 . S
C396 C400 1.684 . S
C397 C387 1.723 . S
C397 C396 1.396 . S
C397 C398 1.394 . S
C398 C368 1.723 . S
C398 C394 1.397 . S
C398 C397 1.394 . S
C399 H371 0.982 . S
C399 H375 0.979 . S
C399 H376 0.977 . S
C399 C396 1.453 . S
C400 H372 0.979 . S
C400 H373 0.980 . S
C400 H374 0.983 . S
C400 C396 1.684 . S
H401 C419 0.948 . S
H402 C360 0.948 . S
H403 C378 0.979 . S
H404 C378 0.980 . S
H405 C378 0.983 . S
H406 C377 0.982 . S
H407 C377 0.979 . S
H408 C377 0.977 . S
H409 C379 0.948 . S
H410 C381 0.947 . S
H411 C382 0.948 . S
H412 C388 0.982 . S
H413 C388 0.979 . S
H414 C388 0.977 . S
H415 C389 0.979 . S
H416 C389 0.980 . S
H417 C389 0.983 . S
H418 C362 0.947 . S
C419 C362 1.392 . S
C419 C363 1.419 . S
C419 H401 0.948 . S
C420 C421 1.391 . S
C420 C424 1.391 . S
C420 H462 0.948 . S
C421 C420 1.391 . S
C421 C422 1.391 . S
C422 C421 1.391 . S
C422 H478 0.947 . S
C422 C479 1.392 . S
C423 C424 1.391 . S
C423 C427 1.397 . S
C423 C479 1.419 . S
C424 C420 1.391 . S
C424 C423 1.391 . S
C424 C425 1.399 . S
C425 C424 1.399 . S
C425 C428 1.396 . S
C425 C437 1.453 . S
C425 C438 1.684 . S
H426 C450 0.948 . S
C427 C423 1.397 . S
C427 C428 1.394 . S
C427 C446 1.723 . S
C428 C425 1.396 . S
C428 C427 1.394 . S
C428 C458 1.723 . S
H429 C452 0.947 1_655 S
H430 C453 0.948 . S
H431 C459 0.982 . S
H432 C460 0.979 . S
H433 C460 0.980 . S
H434 C460 0.983 . S
H435 C459 0.979 . S
H436 C459 0.977 . S
C437 C425 1.453 . S
C437 H466 0.981 1_455 S
C437 H467 0.979 1_455 S
C437 H468 0.979 . S
C438 C425 1.684 . S
C438 H463 0.979 . S
C438 H464 0.980 . S
C438 H465 0.983 . S
C439 C440 1.391 . S
C439 C444 1.391 . S
C439 H469 0.948 . S
C440 C439 1.391 . S
C440 C441 1.391 . S
C441 C440 1.391 . S
C441 C442 1.392 . S
C441 H470 0.947 . S
C442 C441 1.392 . S
C442 C443 1.419 . S
C442 H471 0.948 . S
C443 C442 1.419 . S
C443 C444 1.391 . S
C443 C447 1.397 . S
C444 C439 1.391 . S
C444 C443 1.391 . S
C444 C445 1.399 . S
C445 C444 1.399 . S
C445 C446 1.396 . S
C445 C448 1.453 . S
C445 C449 1.684 . S
C446 C427 1.723 . S
C446 C445 1.396 . S
C446 C447 1.394 . S
C447 C443 1.397 . S
C447 C446 1.394 . S
C447 C457 1.723 . S
C448 C445 1.453 . S
C448 H472 0.982 . S
C448 H473 0.979 . S
C448 H474 0.977 . S
C449 C445 1.684 . S
C449 H475 0.979 . S
C449 H476 0.980 . S
C449 H477 0.983 . S
C450 H426 0.948 . S
C450 C451 1.391 . S
C450 C455 1.391 . S
C451 C450 1.391 . S
C451 C452 1.391 . S
C452 H429 0.947 1_455 S
C452 C451 1.391 . S
C452 C453 1.392 . S
C453 H430 0.948 . S
C453 C452 1.392 . S
C453 C454 1.419 . S
C454 C453 1.419 . S
C454 C455 1.391 . S
C454 C458 1.397 . S
C455 C450 1.391 . S
C455 C454 1.391 . S
C455 C456 1.399 . S
C456 C455 1.399 . S
C456 C457 1.396 . S
C456 C459 1.453 . S
C456 C460 1.684 . S
C457 C447 1.723 . S
C457 C456 1.396 . S
C457 C458 1.394 . S
C458 C428 1.723 . S
C458 C454 1.397 . S
C458 C457 1.394 . S
C459 H431 0.982 . S
C459 H435 0.979 . S
C459 H436 0.977 . S
C459 C456 1.453 . S
C460 H432 0.979 . S
C460 H433 0.980 . S
C460 H434 0.983 . S
C460 C456 1.684 . S
H461 C479 0.948 . S
H462 C420 0.948 . S
H463 C438 0.979 . S
H464 C438 0.980 . S
H465 C438 0.983 . S
H466 C437 0.981 1_655 S
H467 C437 0.979 1_655 S
H468 C437 0.979 . S
H469 C439 0.948 . S
H470 C441 0.947 . S
H471 C442 0.948 . S
H472 C448 0.982 . S
H473 C448 0.979 . S
H474 C448 0.977 . S
H475 C449 0.979 . S
H476 C449 0.980 . S
H477 C449 0.983 . S
H478 C422 0.947 . S
C479 C422 1.392 . S
C479 C423 1.419 . S
C479 H461 0.948 . S
Co480 N485 2.057 . S
Co480 O497 2.021 . S
Co480 O500 2.062 . S
Co480 O504 2.117 1_545 S
Co480 O505 2.020 1_545 S
C481 O501 1.259 1_655 S
C481 O504 1.258 . S
Co482 N491 2.057 . S
Co482 O498 2.117 1_565 S
Co482 O499 2.020 1_565 S
Co482 O501 2.021 . S
Co482 O506 2.062 . S
C483 N485 1.316 . S
C483 N486 1.347 . S
C483 H488 0.931 . S
C484 N485 1.375 1_565 S
C484 C487 1.350 1_565 S
C484 H489 0.930 . S
N485 Co480 2.057 . S
N485 C483 1.316 . S
N485 C484 1.375 1_545 S
N486 C483 1.347 . S
N486 C487 1.373 . S
C487 C484 1.350 1_545 S
C487 N486 1.373 . S
C487 H508 0.931 1_545 S
H488 C483 0.931 . S
H489 C484 0.930 . S
C490 O497 1.259 1_455 S
C490 O498 1.258 . S
N491 Co482 2.057 . S
N491 C492 1.316 . S
N491 C493 1.375 1_565 S
C492 N491 1.316 . S
C492 N494 1.347 . S
C492 H503 0.931 . S
C493 N491 1.375 1_545 S
C493 C495 1.350 1_545 S
C493 H502 0.930 . S
N494 C492 1.347 . S
N494 C495 1.373 . S
C495 C493 1.350 1_565 S
C495 N494 1.373 . S
C495 H509 0.931 1_565 S
C496 O499 1.256 . S
C496 O500 1.255 1_455 S
O497 Co480 2.021 . S
O497 C490 1.259 1_655 S
O498 Co482 2.117 1_545 S
O498 C490 1.258 . S
O499 Co482 2.020 1_545 S
O499 C496 1.256 . S
O500 Co480 2.062 . S
O500 C496 1.255 1_655 S
O501 C481 1.259 1_455 S
O501 Co482 2.021 . S
H502 C493 0.930 . S
H503 C492 0.931 . S
O504 Co480 2.117 1_565 S
O504 C481 1.258 . S
O505 Co480 2.020 1_565 S
O505 C507 1.256 . S
O506 Co482 2.062 . S
O506 C507 1.255 1_455 S
C507 O505 1.256 . S
C507 O506 1.255 1_655 S
H508 C487 0.931 1_565 S
H509 C495 0.931 1_545 S
Co510 N515 2.057 . S
Co510 O527 2.021 1_565 S
Co510 O530 2.062 . S
Co510 O534 2.117 . S
Co510 O535 2.020 1_565 S
C511 O531 1.259 . S
C511 O534 1.258 1_554 S
Co512 N521 2.057 . S
Co512 O528 2.117 . S
Co512 O529 2.020 1_545 S
Co512 O531 2.021 1_545 S
Co512 O536 2.062 . S
C513 N515 1.316 . S
C513 N516 1.347 . S
C513 H518 0.931 1_565 S
C514 N515 1.375 . S
C514 C517 1.350 . S
C514 H519 0.930 . S
N515 Co510 2.057 . S
N515 C513 1.316 . S
N515 C514 1.375 . S
N516 C513 1.347 . S
N516 C517 1.373 . S
C517 C514 1.350 . S
C517 N516 1.373 . S
C517 H538 0.931 . S
H518 C513 0.931 1_545 S
H519 C514 0.930 . S
C520 O527 1.259 . S
C520 O528 1.258 1_556 S
N521 Co512 2.057 . S
N521 C522 1.316 . S
N521 C523 1.375 . S
C522 N521 1.316 . S
C522 N524 1.347 . S
C522 H533 0.931 1_545 S
C523 N521 1.375 . S
C523 C525 1.350 . S
C523 H532 0.930 . S
N524 C522 1.347 . S
N524 C525 1.373 . S
C525 C523 1.350 . S
C525 N524 1.373 . S
C525 H539 0.931 . S
C526 O529 1.256 1_556 S
C526 O530 1.255 . S
O527 Co510 2.021 1_545 S
O527 C520 1.259 . S
O528 Co512 2.117 . S
O528 C520 1.258 1_554 S
O529 Co512 2.020 1_565 S
O529 C526 1.256 1_554 S
O530 Co510 2.062 . S
O530 C526 1.255 . S
O531 C511 1.259 . S
O531 Co512 2.021 1_565 S
H532 C523 0.930 . S
H533 C522 0.931 1_565 S
O534 Co510 2.117 . S
O534 C511 1.258 1_556 S
O535 Co510 2.020 1_545 S
O535 C537 1.256 1_556 S
O536 Co512 2.062 . S
O536 C537 1.255 . S
C537 O535 1.256 1_554 S
C537 O536 1.255 . S
H538 C517 0.931 . S
H539 C525 0.931 . S
Co540 N545 2.057 . S
Co540 O557 2.021 . S
Co540 O560 2.062 . S
Co540 O564 2.117 . S
Co540 O565 2.020 . S
C541 O561 1.259 . S
C541 O564 1.258 . S
Co542 N551 2.057 . S
Co542 O558 2.117 . S
Co542 O559 2.020 . S
Co542 O561 2.021 . S
Co542 O566 2.062 . S
C543 N545 1.316 . S
C543 N546 1.347 . S
C543 H548 0.931 . S
C544 N545 1.375 . S
C544 C547 1.350 . S
C544 H549 0.930 . S
N545 Co540 2.057 . S
N545 C543 1.316 . S
N545 C544 1.375 . S
N546 C543 1.347 . S
N546 C547 1.373 . S
C547 C544 1.350 . S
C547 N546 1.373 . S
C547 H568 0.931 . S
H548 C543 0.931 . S
H549 C544 0.930 . S
C550 O557 1.259 . S
C550 O558 1.258 . S
N551 Co542 2.057 . S
N551 C552 1.316 . S
N551 C553 1.375 . S
C552 N551 1.316 . S
C552 N554 1.347 . S
C552 H563 0.931 . S
C553 N551 1.375 . S
C553 C555 1.350 . S
C553 H562 0.930 . S
N554 C552 1.347 . S
N554 C555 1.373 . S
C555 C553 1.350 . S
C555 N554 1.373 . S
C555 H569 0.931 . S
C556 O559 1.256 . S
C556 O560 1.255 . S
O557 Co540 2.021 . S
O557 C550 1.259 . S
O558 Co542 2.117 . S
O558 C550 1.258 . S
O559 Co542 2.020 . S
O559 C556 1.256 . S
O560 Co540 2.062 . S
O560 C556 1.255 . S
O561 C541 1.259 . S
O561 Co542 2.021 . S
H562 C553 0.930 . S
H563 C552 0.931 . S
O564 Co540 2.117 . S
O564 C541 1.258 . S
O565 Co540 2.020 . S
O565 C567 1.256 . S
O566 Co542 2.062 . S
O566 C567 1.255 . S
C567 O565 1.256 . S
C567 O566 1.255 . S
H568 C547 0.931 . S
H569 C555 0.931 . S
Co570 N575 2.057 . S
Co570 O587 2.021 . S
Co570 O590 2.062 . S
Co570 O594 2.117 1_455 S
Co570 O595 2.020 1_455 S
C571 O591 1.259 1_556 S
C571 O594 1.258 . S
Co572 N581 2.057 . S
Co572 O588 2.117 1_655 S
Co572 O589 2.020 1_655 S
Co572 O591 2.021 . S
Co572 O596 2.062 . S
C573 N575 1.316 . S
C573 N576 1.347 . S
C573 H578 0.931 . S
C574 N575 1.375 1_655 S
C574 C577 1.350 1_655 S
C574 H579 0.930 . S
N575 Co570 2.057 . S
N575 C573 1.316 . S
N575 C574 1.375 1_455 S
N576 C573 1.347 . S
N576 C577 1.373 . S
C577 C574 1.350 1_455 S
C577 N576 1.373 . S
C577 H598 0.931 1_455 S
H578 C573 0.931 . S
H579 C574 0.930 . S
C580 O587 1.259 1_554 S
C580 O588 1.258 . S
N581 Co572 2.057 . S
N581 C582 1.316 . S
N581 C583 1.375 1_655 S
C582 N581 1.316 . S
C582 N584 1.347 . S
C582 H593 0.931 . S
C583 N581 1.375 1_455 S
C583 C585 1.350 1_455 S
C583 H592 0.930 . S
N584 C582 1.347 . S
N584 C585 1.373 . S
C585 C583 1.350 1_655 S
C585 N584 1.373 . S
C585 H599 0.931 1_655 S
C586 O589 1.256 . S
C586 O590 1.255 1_554 S
O587 Co570 2.021 . S
O587 C580 1.259 1_556 S
O588 Co572 2.117 1_455 S
O588 C580 1.258 . S
O589 Co572 2.020 1_455 S
O589 C586 1.256 . S
O590 Co570 2.062 . S
O590 C586 1.255 1_556 S
O591 C571 1.259 1_554 S
O591 Co572 2.021 . S
H592 C583 0.930 . S
H593 C582 0.931 . S
O594 Co570 2.117 1_655 S
O594 C571 1.258 . S
O595 Co570 2.020 1_655 S
O595 C597 1.256 . S
O596 Co572 2.062 . S
O596 C597 1.255 1_554 S
C597 O595 1.256 . S
C597 O596 1.255 1_556 S
H598 C577 0.931 1_655 S
H599 C585 0.931 1_455 S
C600 C601 1.387 . S
C600 H604 0.950 1_545 S
C600 C609 1.391 . S
C601 C600 1.387 . S
C601 C603 1.387 . S
H602 C609 0.936 1_565 S
C603 C601 1.387 . S
C603 C605 1.390 . S
C603 H607 0.950 . S
H604 C600 0.950 1_565 S
C605 C603 1.390 . S
C605 C606 1.387 . S
C605 H608 0.950 . S
C606 C605 1.387 . S
C606 C609 1.400 . S
H607 C603 0.950 . S
H608 C605 0.950 . S
C609 C600 1.391 . S
C609 H602 0.936 1_545 S
C609 C606 1.400 . S
C610 C611 1.387 . S
C610 H614 0.950 . S
C610 C619 1.390 . S
C611 C610 1.387 . S
C611 C613 1.387 . S
H612 C619 0.950 . S
C613 C611 1.387 . S
C613 C615 1.390 . S
C613 H617 0.950 . S
H614 C610 0.950 . S
C615 C613 1.390 . S
C615 C616 1.387 . S
C615 H618 0.950 . S
C616 C615 1.387 . S
C616 C619 1.387 . S
H617 C613 0.950 . S
H618 C615 0.950 . S
C619 C610 1.390 . S
C619 H612 0.950 . S
C619 C616 1.387 . S
C620 C621 1.387 . S
C620 H624 0.950 . S
C620 C629 1.390 . S
C621 C620 1.387 . S
C621 C623 1.387 . S
H622 C629 0.950 . S
C623 C621 1.387 . S
C623 C625 1.390 . S
C623 H627 0.950 . S
H624 C620 0.950 . S
C625 C623 1.390 . S
C625 C626 1.387 . S
C625 H628 0.950 . S
C626 C625 1.387 . S
C626 C629 1.387 . S
H627 C623 0.950 . S
H628 C625 0.950 . S
C629 C620 1.390 . S
C629 H622 0.950 . S
C629 C626 1.387 . S
C630 C631 1.387 . S
C630 H634 0.950 . S
C630 C639 1.390 . S
C631 C630 1.387 . S
C631 C633 1.387 . S
H632 C639 0.950 . S
C633 C631 1.387 . S
C633 C635 1.390 . S
C633 H637 0.950 . S
H634 C630 0.950 . S
C635 C633 1.390 . S
C635 C636 1.387 . S
C635 H638 0.950 . S
C636 C635 1.387 . S
C636 C639 1.387 . S
H637 C633 0.950 . S
H638 C635 0.950 . S
C639 C630 1.390 . S
C639 H632 0.950 . S
C639 C636 1.387 . S
C640 C641 1.387 . S
C640 H644 0.950 . S
C640 C649 1.390 . S
C641 C640 1.387 . S
C641 C643 1.387 . S
H642 C649 0.950 . S
C643 C641 1.387 . S
C643 C645 1.390 . S
C643 H647 0.950 1_545 S
H644 C640 0.950 . S
C645 C643 1.390 . S
C645 C646 1.387 . S
C645 H648 0.950 1_545 S
C646 C645 1.387 . S
C646 C649 1.387 . S
H647 C643 0.950 1_565 S
H648 C645 0.950 1_565 S
C649 C640 1.390 . S
C649 H642 0.950 . S
C649 C646 1.387 . S
C650 C651 1.387 . S
C650 H654 0.950 . S
C650 C659 1.390 . S
C651 C650 1.387 . S
C651 C653 1.387 . S
H652 C659 0.950 . S
C653 C651 1.387 . S
C653 C655 1.390 . S
C653 H657 0.950 . S
H654 C650 0.950 . S
C655 C653 1.390 . S
C655 C656 1.387 . S
C655 H658 0.950 . S
C656 C655 1.387 . S
C656 C659 1.387 . S
H657 C653 0.950 . S
H658 C655 0.950 . S
C659 C650 1.390 . S
C659 H652 0.950 . S
C659 C656 1.387 . S
C660 C661 1.387 . S
C660 H664 0.950 . S
C660 C669 1.390 . S
C661 C660 1.387 . S
C661 C663 1.387 . S
H662 C669 0.950 . S
C663 C661 1.387 . S
C663 C665 1.390 . S
C663 H667 0.950 . S
H664 C660 0.950 . S
C665 C663 1.390 . S
C665 C666 1.387 . S
C665 H668 0.950 . S
C666 C665 1.387 . S
C666 C669 1.387 . S
H667 C663 0.950 . S
H668 C665 0.950 . S
C669 C660 1.390 . S
C669 H662 0.950 . S
C669 C666 1.387 . S
C670 C671 1.387 . S
C670 H674 0.950 . S
C670 C679 1.390 . S
C671 C670 1.387 . S
C671 C673 1.387 . S
H672 C679 0.950 . S
C673 C671 1.387 . S
C673 C675 1.390 . S
C673 H677 0.950 . S
H674 C670 0.950 . S
C675 C673 1.390 . S
C675 C676 1.387 . S
C675 H678 0.950 . S
C676 C675 1.387 . S
C676 C679 1.387 . S
H677 C673 0.950 . S
H678 C675 0.950 . S
C679 C670 1.390 . S
C679 H672 0.950 . S
C679 C676 1.387 . S
C680 C681 1.387 . S
C680 H684 0.950 1_554 S
C680 C689 1.390 1_554 S
C681 C680 1.387 . S
C681 C683 1.387 . S
H682 C689 0.954 . S
C683 C681 1.387 . S
C683 C685 1.390 . S
C683 H687 0.950 . S
H684 C680 0.950 1_556 S
C685 C683 1.390 . S
C685 C686 1.387 . S
C685 H688 0.950 . S
C686 C685 1.387 . S
C686 C689 1.384 1_554 S
H687 C683 0.950 . S
H688 C685 0.950 . S
C689 C680 1.390 1_556 S
C689 H682 0.954 . S
C689 C686 1.384 1_556 S
C690 C691 1.387 . S
C690 H694 0.950 . S
C690 C699 1.390 . S
C691 C690 1.387 . S
C691 C693 1.387 . S
H692 C699 0.950 . S
C693 C691 1.387 . S
C693 C695 1.390 . S
C693 H697 0.950 1_556 S
H694 C690 0.950 . S
C695 C693 1.390 . S
C695 C696 1.387 . S
C695 H698 0.950 1_556 S
C696 C695 1.387 . S
C696 C699 1.387 . S
H697 C693 0.950 1_554 S
H698 C695 0.950 1_554 S
C699 C690 1.390 . S
C699 H692 0.950 . S
C699 C696 1.387 . S
C700 C701 1.387 . S
C700 H704 0.950 . S
C700 C709 1.390 . S
C701 C700 1.387 . S
C701 C703 1.387 . S
H702 C709 0.950 . S
C703 C701 1.387 . S
C703 C705 1.390 . S
C703 H707 0.950 . S
H704 C700 0.950 . S
C705 C703 1.390 . S
C705 C706 1.387 . S
C705 H708 0.950 . S
C706 C705 1.387 . S
C706 C709 1.387 . S
H707 C703 0.950 . S
H708 C705 0.950 . S
C709 C700 1.390 . S
C709 H702 0.950 . S
C709 C706 1.387 . S
C710 C711 1.387 . S
C710 H714 0.950 . S
C710 C719 1.390 . S
C711 C710 1.387 . S
C711 C713 1.387 . S
H712 C719 0.950 . S
C713 C711 1.387 . S
C713 C715 1.390 . S
C713 H717 0.950 . S
H714 C710 0.950 . S
C715 C713 1.390 . S
C715 C716 1.387 . S
C715 H718 0.950 . S
C716 C715 1.387 . S
C716 C719 1.387 . S
H717 C713 0.950 . S
H718 C715 0.950 . S
C719 C710 1.390 . S
C719 H712 0.950 . S
C719 C716 1.387 . S
C720 C721 1.387 . S
C720 H724 0.950 . S
C720 C729 1.390 . S
C721 C720 1.387 . S
C721 C723 1.387 . S
H722 C729 0.950 . S
C723 C721 1.387 . S
C723 C725 1.391 . S
C723 H727 0.950 1_565 S
H724 C720 0.950 . S
C725 C723 1.391 . S
C725 C726 1.402 . S
C725 H728 0.935 1_565 S
C726 C725 1.402 . S
C726 C729 1.387 . S
H727 C723 0.950 1_545 S
H728 C725 0.935 1_545 S
C729 C720 1.390 . S
C729 H722 0.950 . S
C729 C726 1.387 . S
C730 C731 1.387 . S
C730 H734 0.950 . S
C730 C739 1.390 . S
C731 C730 1.387 . S
C731 C733 1.387 . S
H732 C739 0.950 . S
C733 C731 1.387 . S
C733 C735 1.390 . S
C733 H737 0.950 . S
H734 C730 0.950 . S
C735 C733 1.390 . S
C735 C736 1.387 . S
C735 H738 0.950 . S
C736 C735 1.387 . S
C736 C739 1.387 . S
H737 C733 0.950 . S
H738 C735 0.950 . S
C739 C730 1.390 . S
C739 H732 0.950 . S
C739 C736 1.387 . S
C740 C741 1.387 . S
C740 H744 0.950 . S
C740 C749 1.390 . S
C741 C740 1.387 . S
C741 C743 1.387 . S
H742 C749 0.950 . S
C743 C741 1.387 . S
C743 C745 1.390 . S
C743 H747 0.950 . S
H744 C740 0.950 . S
C745 C743 1.390 . S
C745 C746 1.387 . S
C745 H748 0.950 . S
C746 C745 1.387 . S
C746 C749 1.387 . S
H747 C743 0.950 . S
H748 C745 0.950 . S
C749 C740 1.390 . S
C749 H742 0.950 . S
C749 C746 1.387 . S
C750 C751 1.387 . S
C750 H754 0.950 . S
C750 C759 1.390 . S
C751 C750 1.387 . S
C751 C753 1.387 . S
H752 C759 0.950 . S
C753 C751 1.387 . S
C753 C755 1.390 . S
C753 H757 0.950 . S
H754 C750 0.950 . S
C755 C753 1.390 . S
C755 C756 1.387 . S
C755 H758 0.950 . S
C756 C755 1.387 . S
C756 C759 1.387 . S
H757 C753 0.950 . S
H758 C755 0.950 . S
C759 C750 1.390 . S
C759 H752 0.950 . S
C759 C756 1.387 . S
C760 C761 1.387 . S
C760 H764 0.950 1_565 S
C760 C769 1.390 . S
C761 C760 1.387 . S
C761 C763 1.387 . S
H762 C769 0.950 1_545 S
C763 C761 1.387 . S
C763 C765 1.390 . S
C763 H767 0.950 . S
H764 C760 0.950 1_545 S
C765 C763 1.390 . S
C765 C766 1.387 . S
C765 H768 0.950 . S
C766 C765 1.387 . S
C766 C769 1.387 . S
H767 C763 0.950 . S
H768 C765 0.950 . S
C769 C760 1.390 . S
C769 H762 0.950 1_565 S
C769 C766 1.387 . S
C770 C771 1.387 . S
C770 H774 0.950 . S
C770 C779 1.390 . S
C771 C770 1.387 . S
C771 C773 1.387 . S
H772 C779 0.950 . S
C773 C771 1.387 . S
C773 C775 1.390 . S
C773 H777 0.950 . S
H774 C770 0.950 . S
C775 C773 1.390 . S
C775 C776 1.387 . S
C775 H778 0.950 . S
C776 C775 1.387 . S
C776 C779 1.387 . S
H777 C773 0.950 . S
H778 C775 0.950 . S
C779 C770 1.390 . S
C779 H772 0.950 . S
C779 C776 1.387 . S
C780 C781 1.387 . S
C780 H784 0.950 . S
C780 C789 1.390 . S
C781 C780 1.387 . S
C781 C783 1.387 . S
H782 C789 0.950 . S
C783 C781 1.387 . S
C783 C785 1.390 . S
C783 H787 0.950 . S
H784 C780 0.950 . S
C785 C783 1.390 . S
C785 C786 1.387 . S
C785 H788 0.950 . S
C786 C785 1.387 . S
C786 C789 1.387 . S
H787 C783 0.950 . S
H788 C785 0.950 . S
C789 C780 1.390 . S
C789 H782 0.950 . S
C789 C786 1.387 . S
C790 C791 1.387 . S
C790 H794 0.950 . S
C790 C799 1.390 . S
C791 C790 1.387 . S
C791 C793 1.387 . S
H792 C799 0.950 . S
C793 C791 1.387 . S
C793 C795 1.390 . S
C793 H797 0.950 . S
H794 C790 0.950 . S
C795 C793 1.390 . S
C795 C796 1.387 . S
C795 H798 0.950 . S
C796 C795 1.387 . S
C796 C799 1.387 . S
H797 C793 0.950 . S
H798 C795 0.950 . S
C799 C790 1.390 . S
C799 H792 0.950 . S
C799 C796 1.387 . S
C800 C801 1.387 . S
C800 H804 0.950 1_556 S
C800 C809 1.389 1_556 S
C801 C800 1.387 . S
C801 C803 1.387 . S
H802 C809 0.961 . S
C803 C801 1.387 . S
C803 C805 1.390 . S
C803 H807 0.950 . S
H804 C800 0.950 1_554 S
C805 C803 1.390 . S
C805 C806 1.387 . S
C805 H808 0.950 . S
C806 C805 1.387 . S
C806 C809 1.377 1_556 S
H807 C803 0.950 . S
H808 C805 0.950 . S
C809 C800 1.389 1_554 S
C809 H802 0.961 . S
C809 C806 1.377 1_554 S
C810 C811 1.387 . S
C810 H814 0.950 . S
C810 C819 1.390 . S
C811 C810 1.387 . S
C811 C813 1.387 . S
H812 C819 0.950 . S
C813 C811 1.387 . S
C813 C815 1.390 . S
C813 H817 0.950 1_554 S
H814 C810 0.950 . S
C815 C813 1.390 . S
C815 C816 1.387 . S
C815 H818 0.950 1_554 S
C816 C815 1.387 . S
C816 C819 1.387 . S
H817 C813 0.950 1_556 S
H818 C815 0.950 1_556 S
C819 C810 1.390 . S
C819 H812 0.950 . S
C819 C816 1.387 . S
C820 C821 1.387 . S
C820 H824 0.950 . S
C820 C829 1.390 . S
C821 C820 1.387 . S
C821 C823 1.387 1_455 S
H822 C829 0.950 . S
C823 C821 1.387 1_655 S
C823 C825 1.390 . S
C823 H827 0.950 . S
H824 C820 0.950 . S
C825 C823 1.390 . S
C825 C826 1.387 1_655 S
C825 H828 0.950 . S
C826 C825 1.387 1_455 S
C826 C829 1.387 . S
H827 C823 0.950 . S
H828 C825 0.950 . S
C829 C820 1.390 . S
C829 H822 0.950 . S
C829 C826 1.387 . S
C830 C831 1.387 . S
C830 H834 0.950 . S
C830 C839 1.390 . S
C831 C830 1.387 . S
C831 C833 1.387 . S
H832 C839 0.950 . S
C833 C831 1.387 . S
C833 C835 1.390 . S
C833 H837 0.950 . S
H834 C830 0.950 . S
C835 C833 1.390 . S
C835 C836 1.387 . S
C835 H838 0.950 . S
C836 C835 1.387 . S
C836 C839 1.387 . S
H837 C833 0.950 . S
H838 C835 0.950 . S
C839 C830 1.390 . S
C839 H832 0.950 . S
C839 C836 1.387 . S
C601 C1 2.131 . S
C606 C496 2.176 . S
C611 C80 1.171 . S
C616 N516 1.196 . S
C626 C550 2.037 . S
C621 C140 1.970 . S
C631 C211 1.393 . S
C636 N584 1.319 . S
C646 C537 2.324 . S
C641 C31 2.311 . S
C656 N494 1.219 . S
C651 C61 1.192 . S
C666 C571 2.057 . S
C661 C151 1.961 . S
C676 N546 1.160 . S
C671 C200 1.064 . S
C681 C20 1.845 . S
C686 C586 1.858 . S
C696 C520 1.769 . S
C691 C121 1.668 . S
C701 C181 1.436 . S
C706 C481 1.548 . S
C711 C91 1.413 . S
C716 C567 1.502 . S
C726 C507 2.176 . S
C721 C260 2.173 . S
C731 C320 1.174 . S
C736 N524 1.192 . S
C741 C361 2.035 . S
C746 C541 2.037 . S
C751 C451 1.394 . S
C756 N576 1.320 . S
C761 C271 2.304 . S
C766 C526 2.325 . S
C776 N486 1.220 . S
C771 C301 1.192 . S
C786 C580 2.057 . S
C781 C380 2.018 . S
C796 N554 1.160 . S
C791 C440 1.063 . S
C801 C241 1.814 . S
C806 C597 1.858 . S
C816 C511 1.768 . S
C811 C391 1.738 . S
C826 C490 1.546 . S
C821 C421 1.433 . S
C831 C331 1.409 . S
C836 C556 1.501 . S
