# Generated by pormake.
# Topology zzz, (3,6)-cn, num edge types: 1
# Building blocks:
#     Node 0, Type 0, BuildingBlock: BETDAH_clean_linker_0, # of connection points: 3
#     Node 1, Type 0, BuildingBlock: BETDAH_clean_linker_0, # of connection points: 3
#     Node 2, Type 0, BuildingBlock: BETDAH_clean_linker_0, # of connection points: 3
#     Node 3, Type 0, BuildingBlock: BETDAH_clean_linker_0, # of connection points: 3
#     Node 4, Type 0, BuildingBlock: BETDAH_clean_linker_0, # of connection points: 3
#     Node 5, Type 0, BuildingBlock: BETDAH_clean_linker_0, # of connection points: 3
#     Node 6, Type 0, BuildingBlock: BETDAH_clean_linker_0, # of connection points: 3
#     Node 7, Type 0, BuildingBlock: BETDAH_clean_linker_0, # of connection points: 3
#     Node 8, Type 1, BuildingBlock: CUWYAW_clean_sbu_0, # of connection points: 6
#     Node 9, Type 1, BuildingBlock: CUWYAW_clean_sbu_0, # of connection points: 6
#     Node 10, Type 1, BuildingBlock: CUWYAW_clean_sbu_0, # of connection points: 6
#     Node 11, Type 1, BuildingBlock: CUWYAW_clean_sbu_0, # of connection points: 6
#     Edge 12, Type (0, 1), BuildingBlock: MIFKUJ_clean_linker_0, # of connection points: 2
#     Edge 13, Type (0, 1), BuildingBlock: MIFKUJ_clean_linker_0, # of connection points: 2
#     Edge 14, Type (0, 1), BuildingBlock: MIFKUJ_clean_linker_0, # of connection points: 2
#     Edge 15, Type (0, 1), BuildingBlock: MIFKUJ_clean_linker_0, # of connection points: 2
#     Edge 16, Type (0, 1), BuildingBlock: MIFKUJ_clean_linker_0, # of connection points: 2
#     Edge 17, Type (0, 1), BuildingBlock: MIFKUJ_clean_linker_0, # of connection points: 2
#     Edge 18, Type (0, 1), BuildingBlock: MIFKUJ_clean_linker_0, # of connection points: 2
#     Edge 19, Type (0, 1), BuildingBlock: MIFKUJ_clean_linker_0, # of connection points: 2
#     Edge 20, Type (0, 1), BuildingBlock: MIFKUJ_clean_linker_0, # of connection points: 2
#     Edge 21, Type (0, 1), BuildingBlock: MIFKUJ_clean_linker_0, # of connection points: 2
#     Edge 22, Type (0, 1), BuildingBlock: MIFKUJ_clean_linker_0, # of connection points: 2
#     Edge 23, Type (0, 1), BuildingBlock: MIFKUJ_clean_linker_0, # of connection points: 2
#     Edge 24, Type (0, 1), BuildingBlock: MIFKUJ_clean_linker_0, # of connection points: 2
#     Edge 25, Type (0, 1), BuildingBlock: MIFKUJ_clean_linker_0, # of connection points: 2
#     Edge 26, Type (0, 1), BuildingBlock: MIFKUJ_clean_linker_0, # of connection points: 2
#     Edge 27, Type (0, 1), BuildingBlock: MIFKUJ_clean_linker_0, # of connection points: 2
#     Edge 28, Type (0, 1), BuildingBlock: MIFKUJ_clean_linker_0, # of connection points: 2
#     Edge 29, Type (0, 1), BuildingBlock: MIFKUJ_clean_linker_0, # of connection points: 2
#     Edge 30, Type (0, 1), BuildingBlock: MIFKUJ_clean_linker_0, # of connection points: 2
#     Edge 31, Type (0, 1), BuildingBlock: MIFKUJ_clean_linker_0, # of connection points: 2
#     Edge 32, Type (0, 1), BuildingBlock: MIFKUJ_clean_linker_0, # of connection points: 2
#     Edge 33, Type (0, 1), BuildingBlock: MIFKUJ_clean_linker_0, # of connection points: 2
#     Edge 34, Type (0, 1), BuildingBlock: MIFKUJ_clean_linker_0, # of connection points: 2
#     Edge 35, Type (0, 1), BuildingBlock: MIFKUJ_clean_linker_0, # of connection points: 2
# Relax obj value: 0.214
# Max RMSD: 0.148
# Mean RMSD: 0.134
data_MOF--net-zzz--node1-CUWYAW_clean_sbu_0--node2-BETDAH_clean_linker_0--edge1-MIFKUJ_clean_linker_0
_symmetry_space_group_name_H-M    P1
_symmetry_Int_Tables_number       1
_symmetry_cell_setting            triclinic
loop_
_symmetry_equiv_pos_as_xyz
'x, y, z'
_cell_length_a     67.811191
_cell_length_b     67.799114
_cell_length_c     18.259184
_cell_angle_alpha  90.274988
_cell_angle_beta   89.904559
_cell_angle_gamma 90.020418
loop_
_atom_site_label
_atom_site_type_symbol
_atom_site_fract_x
_atom_site_fract_y
_atom_site_fract_z
_atom_type_partial_charge
H0 H 0.79305 0.50269 0.25486 0.0
H1 H 0.73174 0.50875 0.203 0.0
H2 H 0.75091 0.51136 0.42831 0.0
C3 C 0.77789 0.50428 0.27295 0.0
C4 C 0.77393 0.50654 0.34788 0.0
C5 C 0.76276 0.50532 0.22076 0.0
C6 C 0.74327 0.50802 0.24383 0.0
C7 C 0.73874 0.50995 0.31874 0.0
C8 C 0.75423 0.50953 0.37062 0.0
N9 N 0.71885 0.51252 0.34275 0.0
C10 C 0.7026 0.5126 0.29554 0.0
H11 H 0.97634 0.78566 0.25905 0.0
H12 H 0.98764 0.72573 0.19664 0.0
H13 H 1.00723 0.74751 0.40692 0.0
C14 C 0.98163 0.77108 0.27317 0.0
C15 C 0.99124 0.76847 0.34033 0.0
C16 C 0.98052 0.75585 0.22099 0.0
C17 C 0.98845 0.73735 0.23741 0.0
C18 C 0.99797 0.73408 0.30468 0.0
C19 C 0.99954 0.74981 0.35572 0.0
N20 N 1.00655 0.71537 0.32092 0.0
C21 C 1.00661 0.69935 0.2722 0.0
H22 H 0.7306 0.01849 0.24411 0.0
H23 H 0.78984 1.00594 0.17988 0.0
H24 H 0.76855 0.98668 0.39127 0.0
C25 C 0.74483 0.01228 0.25788 0.0
C26 C 0.74752 1.00288 0.32542 0.0
C27 C 0.76002 0.01343 0.20629 0.0
C28 C 0.77832 1.00497 0.22088 0.0
C29 C 0.78161 0.99524 0.28771 0.0
C30 C 0.76607 0.99411 0.33972 0.0
N31 N 0.80031 0.98656 0.30349 0.0
C32 C 0.81659 0.9875 0.2563 0.0
H33 H 0.49787 0.7146 0.24114 0.0
H34 H 0.50544 0.77478 0.17635 0.0
H35 H 0.52049 0.757 0.39614 0.0
C36 C 0.50215 0.72958 0.25509 0.0
C37 C 0.50897 0.7339 0.32592 0.0
C38 C 0.50098 0.74427 0.2015 0.0
C39 C 0.50648 0.76362 0.21842 0.0
C40 C 0.5137 0.76839 0.2885 0.0
C41 C 0.51501 0.7534 0.342 0.0
N42 N 0.51977 0.788 0.3062 0.0
C43 C 0.51948 0.80373 0.25681 0.0
H44 H 0.22128 0.51154 0.18605 0.0
H45 H 0.28279 0.51123 0.23864 0.0
H46 H 0.26351 0.49402 0.02201 0.0
C47 C 0.23638 0.50861 0.16955 0.0
C48 C 0.2403 0.50216 0.09793 0.0
C49 C 0.25159 0.51185 0.22003 0.0
C50 C 0.27117 0.50872 0.19901 0.0
C51 C 0.27565 0.50209 0.12766 0.0
C52 C 0.26014 0.49912 0.07693 0.0
N53 N 0.29549 0.49808 0.10615 0.0
C54 C 0.31153 0.4986 0.15423 0.0
H55 H 0.01429 0.21782 0.17636 0.0
H56 H 0.01903 0.2789 0.23383 0.0
H57 H 0.02032 0.26111 0.00624 0.0
C58 C 0.01608 0.23303 0.15947 0.0
C59 C 0.01702 0.23743 0.0846 0.0
C60 C 0.01694 0.24787 0.2131 0.0
C61 C 0.01873 0.26757 0.19192 0.0
C62 C 0.02019 0.27254 0.11733 0.0
C63 C 0.01948 0.25735 0.06375 0.0
N64 N 0.02208 0.29263 0.09519 0.0
C65 C 0.02218 0.30864 0.14398 0.0
H66 H 0.29758 0.0165 0.16162 0.0
H67 H 0.23633 0.01471 0.21566 0.0
H68 H 0.25467 0.01167 0.98881 0.0
C69 C 0.28238 0.01555 0.14351 0.0
C70 C 0.27818 0.01451 0.06852 0.0
C71 C 0.26734 0.01556 0.19586 0.0
C72 C 0.24769 0.01438 0.17409 0.0
C73 C 0.24285 0.01267 0.0994 0.0
C74 C 0.25825 0.01268 0.04651 0.0
N75 N 0.22276 0.01111 0.07666 0.0
C76 C 0.20669 0.01097 0.12511 0.0
H77 H 0.53079 0.28755 0.17321 0.0
H78 H 0.52479 0.22668 0.23235 0.0
H79 H 0.49435 0.24929 0.04285 0.0
C80 C 0.52495 0.27297 0.16179 0.0
C81 C 0.51226 0.27042 0.10203 0.0
C82 C 0.52966 0.25727 0.20847 0.0
C83 C 0.52134 0.23866 0.19554 0.0
C84 C 0.50857 0.23558 0.1358 0.0
C85 C 0.50433 0.2515 0.08845 0.0
N86 N 0.4995 0.21686 0.12337 0.0
C87 C 0.50114 0.20076 0.17075 0.0
C88 C 0.98775 0.02621 0.49916 0.0
Eu89 Eu 1.00075 0.01287 0.62206 0.0
C90 C 0.97857 0.04554 0.48644 0.0
C91 C 0.96558 0.0536 0.53874 0.0
C92 C 0.96097 0.07365 0.53775 0.0
C93 C 0.96935 0.08603 0.48473 0.0
C94 C 0.98134 0.07765 0.42971 0.0
C95 C 0.98587 0.05757 0.43055 0.0
C96 C 0.97734 0.00917 0.74212 0.0
C97 C 0.01556 0.04498 0.74194 0.0
C98 C 0.02537 0.98068 0.88892 0.0
Eu99 Eu 0.02132 0.99764 0.76346 0.0
C100 C 0.01764 0.96124 0.91096 0.0
C101 C 0.03094 0.94586 0.92454 0.0
C102 C 0.02443 0.92633 0.92531 0.0
C103 C 1.00447 0.92184 0.91283 0.0
C104 C 0.99093 0.93732 0.90476 0.0
C105 C 0.99747 0.95685 0.90394 0.0
C106 C 0.04947 1.00622 0.66004 0.0
C107 C 0.00954 0.96583 0.6368 0.0
O108 O 1.00637 0.02721 0.51788 0.0
O109 O 0.97767 0.01373 0.53918 0.0
O110 O 0.97629 0.02369 0.69655 0.0
O111 O 0.99048 0.99709 0.72189 0.0
O112 O 0.01125 0.04162 0.67222 0.0
O113 O 0.0183 0.0304 0.78915 0.0
O114 O 0.01244 0.99478 0.87793 0.0
O115 O 0.03882 0.97983 0.83745 0.0
O116 O 0.05347 1.00029 0.7258 0.0
O117 O 0.03106 1.00795 0.65505 0.0
O118 O 0.01401 0.96887 0.70642 0.0
O119 O 1.00546 0.98058 0.5919 0.0
H120 H 0.95985 0.04469 0.583 0.0
H121 H 0.95146 0.07958 0.58018 0.0
H122 H 0.98829 0.08678 0.38858 0.0
H123 H 0.99618 0.05173 0.39053 0.0
H124 H 0.04657 0.94884 0.93006 0.0
H125 H 0.03513 0.91469 0.93361 0.0
H126 H 0.97543 0.93432 0.89566 0.0
H127 H 0.98685 0.9684 0.89408 0.0
C128 C 0.48297 0.98653 0.533 0.0
Eu129 Eu 0.50632 0.99184 0.64198 0.0
C130 C 0.46324 0.99556 0.53018 0.0
C131 C 0.44665 0.98385 0.51613 0.0
C132 C 0.42775 0.99113 0.53059 0.0
C133 C 0.42513 0.01019 0.56026 0.0
C134 C 0.44177 0.02205 0.57235 0.0
C135 C 0.46059 0.01488 0.55702 0.0
C136 C 0.518 0.96612 0.74659 0.0
C137 C 0.47541 1.00704 0.77228 0.0
C138 C 0.54316 0.01546 0.90289 0.0
Eu139 Eu 0.52216 0.01111 0.78672 0.0
C140 C 0.56278 0.02476 0.90684 0.0
C141 C 0.56663 0.0424 0.86898 0.0
C142 C 0.58597 0.04907 0.85973 0.0
C143 C 0.60181 0.03809 0.88726 0.0
C144 C 0.59791 0.02079 0.92701 0.0
C145 C 0.57857 0.01421 0.93679 0.0
C146 C 0.51745 0.03966 0.68237 0.0
C147 C 0.55266 0.99884 0.65076 0.0
O148 O 0.49791 0.99879 0.52983 0.0
O149 O 0.485 0.97333 0.58456 0.0
O150 O 0.52022 0.96301 0.67656 0.0
O151 O 0.50893 0.98219 0.75758 0.0
O152 O 0.47879 1.00217 0.70303 0.0
O153 O 0.48996 0.00993 0.81952 0.0
O154 O 0.54284 0.99893 0.86524 0.0
O155 O 0.52821 0.02711 0.88805 0.0
O156 O 0.52317 0.04326 0.74877 0.0
O157 O 0.51427 0.02144 0.67715 0.0
O158 O 0.54981 1.00306 0.72107 0.0
O159 O 0.53782 0.99547 0.6054 0.0
H160 H 0.44835 0.96881 0.49676 0.0
H161 H 0.41519 0.98178 0.51888 0.0
H162 H 0.44033 0.03668 0.59581 0.0
H163 H 0.47311 0.02415 0.57026 0.0
H164 H 0.55479 0.05067 0.84389 0.0
H165 H 0.58858 0.06243 0.82889 0.0
H166 H 0.60986 0.01223 0.95002 0.0
H167 H 0.57599 1.00043 0.96508 0.0
C168 C 0.53477 0.47769 0.55178 0.0
Eu169 Eu 0.51961 0.49737 0.66052 0.0
C170 C 0.54013 0.45662 0.54605 0.0
C171 C 0.56004 0.451 0.54159 0.0
C172 C 0.56537 0.4311 0.54539 0.0
C173 C 0.55085 0.41648 0.55378 0.0
C174 C 0.53092 0.4221 0.55587 0.0
C175 C 0.52561 0.44191 0.55211 0.0
C176 C 0.54206 0.50895 0.77649 0.0
C177 C 0.50516 0.46407 0.77938 0.0
C178 C 0.48047 0.52943 0.88878 0.0
Eu179 Eu 0.4962 0.5094 0.7827 0.0
C180 C 0.47313 0.54977 0.88558 0.0
C181 C 0.46452 0.55687 0.8207 0.0
C182 C 0.46137 0.57704 0.81129 0.0
C183 C 0.46708 0.59038 0.86611 0.0
C184 C 0.47482 0.5832 0.93224 0.0
C185 C 0.4778 0.56301 0.94193 0.0
C186 C 0.47383 0.49821 0.66592 0.0
C187 C 0.511 0.54296 0.66557 0.0
O188 O 0.51595 0.48173 0.55701 0.0
O189 O 0.54537 0.48816 0.59721 0.0
O190 O 0.54541 0.51393 0.70915 0.0
O191 O 0.52687 0.49817 0.78025 0.0
O192 O 0.51005 0.46785 0.71066 0.0
O193 O 0.50139 0.47873 0.82487 0.0
O194 O 0.49954 0.5278 0.88005 0.0
O195 O 0.47066 0.51635 0.85072 0.0
O196 O 0.47044 0.49301 0.73289 0.0
O197 O 0.48905 0.50895 0.66306 0.0
O198 O 0.50565 0.53902 0.73357 0.0
O199 O 0.51517 0.52842 0.61995 0.0
H200 H 0.57152 0.46206 0.53713 0.0
H201 H 0.58084 0.42719 0.54338 0.0
H202 H 0.51934 0.41115 0.56045 0.0
H203 H 0.51011 0.44566 0.55577 0.0
H204 H 0.46119 0.54695 0.77568 0.0
H205 H 0.45551 0.58229 0.75978 0.0
H206 H 0.47914 0.59328 0.97554 0.0
H207 H 0.4847 0.55786 0.99179 0.0
C208 C 0.0362 0.51754 0.50706 0.0
Eu209 Eu 0.01705 0.51365 0.62826 0.0
C210 C 0.05664 0.52471 0.49802 0.0
C211 C 0.06047 0.54251 0.46151 0.0
C212 C 0.07936 0.55089 0.46349 0.0
C213 C 0.09456 0.54171 0.50292 0.0
C214 C 0.0909 0.52358 0.53689 0.0
C215 C 0.07222 0.51512 0.53419 0.0
C216 C 0.01274 0.54213 0.73467 0.0
C217 C 0.04859 0.50225 0.75997 0.0
C218 C 0.98208 0.48781 0.89282 0.0
Eu219 Eu 1.00221 0.49437 0.7751 0.0
C220 C 0.96301 0.49652 0.91259 0.0
C221 C 0.94894 0.48538 0.95031 0.0
C222 C 0.92956 0.49223 0.95636 0.0
C223 C 0.92404 0.51021 0.9241 0.0
C224 C 0.93842 0.52174 0.8894 0.0
C225 C 0.95774 0.51495 0.88369 0.0
C226 C 0.01382 0.46882 0.66835 0.0
C227 C 0.97031 0.50955 0.64949 0.0
O228 O 0.0343 0.50054 0.54045 0.0
O229 O 0.02333 0.53071 0.52973 0.0
O230 O 0.01814 0.54582 0.66794 0.0
O231 O 0.00968 0.52389 0.73906 0.0
O232 O 0.04538 0.50624 0.6899 0.0
O233 O 0.03404 0.49868 0.80643 0.0
O234 O 0.99699 0.50009 0.89091 0.0
O235 O 0.98151 0.47606 0.83572 0.0
O236 O 0.01646 0.46573 0.73795 0.0
O237 O 1.00436 0.48468 0.65932 0.0
O238 O 0.97405 0.50517 0.71898 0.0
O239 O 0.9846 0.51202 0.60078 0.0
H240 H 0.04873 0.55022 0.43347 0.0
H241 H 0.08197 0.56478 0.43602 0.0
H242 H 0.10252 0.51595 0.56594 0.0
H243 H 0.06991 0.50135 0.56277 0.0
H244 H 0.95269 0.47101 0.97194 0.0
H245 H 0.91869 0.48297 0.98288 0.0
H246 H 0.93458 0.53571 0.86464 0.0
H247 H 0.96832 0.5237 0.85346 0.0
H248 H 0.16857 0.01957 0.0944 0.0
H249 H 0.14043 0.01929 0.1794 0.0
H250 H 0.17927 1.00217 0.35499 0.0
H251 H 0.20714 1.00181 0.26949 0.0
H252 H 0.1472 0.98163 0.36443 0.0
H253 H 0.16012 0.05092 0.33266 0.0
H254 H 0.16462 0.08165 0.26286 0.0
H255 H 0.10588 0.07641 0.17746 0.0
H256 H 0.10111 0.0455 0.24608 0.0
H257 H 0.08917 1.00346 0.67334 0.0
H258 H 0.11421 1.00495 0.57739 0.0
H259 H 0.06905 0.01565 0.41648 0.0
H260 H 0.04375 0.01424 0.51329 0.0
H261 H 0.10216 0.03882 0.39281 0.0
H262 H 0.08884 0.97037 0.43081 0.0
H263 H 0.08436 0.9401 0.5033 0.0
H264 H 0.14419 0.94412 0.57863 0.0
H265 H 0.14894 0.97459 0.50741 0.0
C266 C 0.17102 0.01577 0.15123 0.0
C267 C 0.19002 0.01087 0.17557 0.0
C268 C 0.15496 0.01573 0.19999 0.0
C269 C 0.15763 0.01102 0.2744 0.0
C270 C 0.17669 1.00593 0.29821 0.0
C271 C 0.19269 1.00583 0.24934 0.0
C272 C 0.14065 0.01102 0.32737 0.0
C273 C 0.13754 0.99427 0.37102 0.0
C274 C 0.12751 0.02721 0.33506 0.0
C275 C 0.13034 0.04579 0.29386 0.0
C276 C 0.14822 0.05624 0.29855 0.0
C277 C 0.1508 0.07371 0.25929 0.0
C278 C 0.13556 0.08095 0.21559 0.0
C279 C 0.11768 0.07077 0.21123 0.0
C280 C 0.11502 0.05328 0.25033 0.0
C281 C 0.08452 1.00627 0.61763 0.0
C282 C 0.06442 1.00871 0.601 0.0
C283 C 0.09889 1.00704 0.56263 0.0
C284 C 0.09359 0.01012 0.48922 0.0
C285 C 0.07356 0.0132 0.47258 0.0
C286 C 0.05909 0.01241 0.52792 0.0
C287 C 0.10904 0.0096 0.43046 0.0
C288 C 0.11181 0.02619 0.38576 0.0
C289 C 0.12193 0.99329 0.42184 0.0
C290 C 0.11919 0.97486 0.46419 0.0
C291 C 0.101 0.96488 0.46321 0.0
C292 C 0.09842 0.94767 0.50403 0.0
C293 C 0.11397 0.94021 0.54565 0.0
C294 C 0.13215 0.94992 0.54639 0.0
C295 C 0.1348 0.96715 0.50574 0.0
H296 H 0.11195 0.9269 0.57724 0.0
H297 H 0.13759 0.09447 0.18523 0.0
H298 H 0.506 0.20149 0.31778 0.0
H299 H 0.50822 0.17308 0.40027 0.0
H300 H 0.50144 0.13361 0.21595 0.0
H301 H 0.49897 0.16212 0.13364 0.0
H302 H 0.47989 0.12071 0.3303 0.0
H303 H 0.54678 0.14149 0.29478 0.0
H304 H 0.57437 0.16518 0.29232 0.0
H305 H 0.5666 0.17666 0.52203 0.0
H306 H 0.53877 0.15323 0.52566 0.0
H307 H 0.51024 0.03511 0.53425 0.0
H308 H 0.50714 0.06128 0.44228 0.0
H309 H 0.51571 0.10519 0.61106 0.0
H310 H 0.51908 0.0792 0.70201 0.0
H311 H 0.53707 0.11449 0.49758 0.0
H312 H 0.46926 0.09504 0.53236 0.0
H313 H 0.44199 0.07101 0.5362 0.0
H314 H 0.45172 0.05667 0.30967 0.0
H315 H 0.47918 0.08055 0.30468 0.0
C316 C 0.50501 0.18673 0.29508 0.0
C317 C 0.50246 0.18392 0.21954 0.0
C318 C 0.50633 0.17048 0.34214 0.0
C319 C 0.50524 0.15107 0.3145 0.0
C320 C 0.50235 0.14835 0.23883 0.0
C321 C 0.50103 0.16463 0.19178 0.0
C322 C 0.50741 0.13371 0.36439 0.0
C323 C 0.49253 0.11924 0.36616 0.0
C324 C 0.52374 0.13176 0.41218 0.0
C325 C 0.54058 0.14573 0.41032 0.0
C326 C 0.55087 0.14917 0.34466 0.0
C327 C 0.56656 0.16254 0.34308 0.0
C328 C 0.5722 0.17246 0.40694 0.0
C329 C 0.5622 0.16898 0.47259 0.0
C330 C 0.54648 0.15564 0.47446 0.0
C331 C 0.51124 0.05034 0.55161 0.0
C332 C 0.51474 0.05505 0.62548 0.0
C333 C 0.50947 0.06534 0.49904 0.0
C334 C 0.51102 0.08537 0.51949 0.0
C335 C 0.5145 0.08996 0.59343 0.0
C336 C 0.51635 0.07503 0.64559 0.0
C337 C 0.5094 0.10166 0.46458 0.0
C338 C 0.52443 0.11592 0.46167 0.0
C339 C 0.49321 0.1034 0.416 0.0
C340 C 0.47639 0.08944 0.41834 0.0
C341 C 0.46563 0.0867 0.48346 0.0
C342 C 0.45014 0.0731 0.48584 0.0
C343 C 0.44519 0.06223 0.4233 0.0
C344 C 0.45561 0.06507 0.35811 0.0
C345 C 0.47111 0.07866 0.35542 0.0
H346 H 0.43325 0.05165 0.42524 0.0
H347 H 0.58435 0.18281 0.40559 0.0
H348 H 0.3155 0.47732 0.27797 0.0
H349 H 0.3437 0.47724 0.36222 0.0
H350 H 0.37313 0.52039 0.22764 0.0
H351 H 0.345 0.52014 0.14277 0.0
H352 H 0.39869 0.4927 0.26933 0.0
H353 H 0.35067 0.53303 0.39183 0.0
H354 H 0.31797 0.54088 0.44353 0.0
H355 H 0.32301 0.49235 0.59258 0.0
H356 H 0.35563 0.48402 0.54101 0.0
H357 H 0.47272 0.51774 0.53433 0.0
H358 H 0.44575 0.51803 0.44492 0.0
H359 H 0.41322 0.47672 0.57751 0.0
H360 H 0.43987 0.4768 0.66754 0.0
H361 H 0.38939 0.50451 0.53539 0.0
H362 H 0.43695 0.46365 0.41179 0.0
H363 H 0.46946 0.45534 0.35936 0.0
H364 H 0.46521 0.50442 0.21246 0.0
H365 H 0.43279 0.5132 0.26478 0.0
C366 C 0.32802 0.48677 0.26665 0.0
C367 C 0.32815 0.49877 0.20432 0.0
C368 C 0.3441 0.4868 0.31489 0.0
C369 C 0.36055 0.499 0.30206 0.0
C370 C 0.36067 0.51087 0.23902 0.0
C371 C 0.34459 0.51079 0.19071 0.0
C372 C 0.37759 0.49933 0.35418 0.0
C373 C 0.39668 0.49556 0.32736 0.0
C374 C 0.37504 0.50266 0.43032 0.0
C375 C 0.35553 0.50779 0.46208 0.0
C376 C 0.34475 0.52395 0.43531 0.0
C377 C 0.32624 0.52849 0.46463 0.0
C378 C 0.31839 0.51709 0.52118 0.0
C379 C 0.32909 0.50116 0.54871 0.0
C380 C 0.3476 0.49653 0.5195 0.0
C381 C 0.45989 0.50858 0.54396 0.0
C382 C 0.45844 0.49724 0.60805 0.0
C383 C 0.44446 0.50871 0.49268 0.0
C384 C 0.42737 0.49729 0.50383 0.0
C385 C 0.42613 0.48573 0.56741 0.0
C386 C 0.44145 0.48571 0.61879 0.0
C387 C 0.41052 0.49769 0.45074 0.0
C388 C 0.39144 0.50166 0.47737 0.0
C389 C 0.41309 0.4945 0.37449 0.0
C390 C 0.43253 0.4892 0.34273 0.0
C391 C 0.44302 0.47276 0.36869 0.0
C392 C 0.46142 0.46795 0.33893 0.0
C393 C 0.46942 0.47938 0.28275 0.0
C394 C 0.45901 0.49561 0.25606 0.0
C395 C 0.44062 0.50049 0.28571 0.0
H396 H 0.48367 0.47563 0.25978 0.0
H397 H 0.30404 0.52062 0.54376 0.0
H398 H 0.03588 0.30919 0.28316 0.0
H399 H 0.03522 0.33699 0.36981 0.0
H400 H 1.00763 0.37334 0.20598 0.0
H401 H 1.00844 0.34549 0.11916 0.0
H402 H 0.03582 0.39391 0.27803 0.0
H403 H 0.98077 0.35362 0.34601 0.0
H404 H 0.96398 0.32276 0.38048 0.0
H405 H 1.0002 0.31844 0.57239 0.0
H406 H 0.01743 0.34914 0.53847 0.0
H407 H 1.00309 0.47011 0.52352 0.0
H408 H 1.00525 0.4435 0.43235 0.0
H409 H 0.03218 0.40571 0.59308 0.0
H410 H 0.02987 0.43219 0.68436 0.0
H411 H 1.00403 0.38616 0.52108 0.0
H412 H 0.05896 0.42673 0.45334 0.0
H413 H 0.07539 0.45782 0.41929 0.0
H414 H 0.03922 0.46182 0.22713 0.0
H415 H 0.02232 0.43091 0.26073 0.0
C416 C 0.02967 0.32313 0.26582 0.0
C417 C 0.0221 0.32523 0.19483 0.0
C418 C 0.02925 0.33901 0.31537 0.0
C419 C 0.02116 0.35731 0.29499 0.0
C420 C 0.01393 0.35945 0.22327 0.0
C421 C 0.01433 0.34353 0.17377 0.0
C422 C 0.02002 0.37405 0.34871 0.0
C423 C 0.02864 0.39228 0.33078 0.0
C424 C 0.01099 0.37194 0.41833 0.0
C425 C 1.00052 0.35358 0.43929 0.0
C426 C 0.98526 0.34602 0.39529 0.0
C427 C 0.97565 0.32856 0.41476 0.0
C428 C 0.98106 0.31861 0.47847 0.0
C429 C 0.99605 0.32614 0.52298 0.0
C430 C 1.00573 0.34358 0.50369 0.0
C431 C 0.00964 0.45619 0.53918 0.0
C432 C 0.01635 0.45329 0.6112 0.0
C433 C 0.0109 0.44096 0.48694 0.0
C434 C 0.01899 0.42252 0.50542 0.0
C435 C 0.02584 0.41972 0.57725 0.0
C436 C 0.0246 0.43492 0.62938 0.0
C437 C 0.01994 0.406 0.45068 0.0
C438 C 0.01124 0.38781 0.46838 0.0
C439 C 0.02889 0.40817 0.38091 0.0
C440 C 0.03923 0.4266 0.35996 0.0
C441 C 0.05441 0.43431 0.40409 0.0
C442 C 0.06382 0.4519 0.38485 0.0
C443 C 0.05832 0.46182 0.32118 0.0
C444 C 0.04344 0.45413 0.27649 0.0
C445 C 0.03395 0.43657 0.29559 0.0
H446 H 0.06561 0.47543 0.3064 0.0
H447 H 0.97361 0.30509 0.49342 0.0
H448 H 0.83557 0.02059 0.21407 0.0
H449 H 0.86363 0.02307 0.12944 0.0
H450 H 0.86331 0.95983 0.10146 0.0
H451 H 0.8354 0.95741 0.18729 0.0
H452 H 0.90057 0.97288 0.11196 0.0
H453 H 0.84396 0.9907 0.97078 0.0
H454 H 0.81352 0.00909 0.94315 0.0
H455 H 0.84604 0.06344 0.9426 0.0
H456 H 0.87664 0.04541 0.97137 0.0
H457 H 0.96313 0.97389 0.79342 0.0
H458 H 0.93642 0.96884 0.88231 0.0
H459 H 0.93083 0.03188 0.90909 0.0
H460 H 0.95706 0.03685 0.81889 0.0
H461 H 0.89612 0.0173 0.89766 0.0
H462 H 0.95295 0.99915 0.04117 0.0
H463 H 0.98323 0.98034 0.06757 0.0
H464 H 0.95034 0.92623 0.06191 0.0
H465 H 0.91992 0.94468 0.03429 0.0
C466 C 0.84157 1.00725 0.18989 0.0
C467 C 0.83337 0.98883 0.2068 0.0
C468 C 0.85755 1.00865 0.14129 0.0
C469 C 0.86556 0.99165 0.10799 0.0
C470 C 0.85748 0.97318 0.12613 0.0
C471 C 0.8415 0.97179 0.17491 0.0
C472 C 0.88206 0.99323 0.05352 0.0
C473 C 0.8995 0.98242 0.06463 0.0
C474 C 0.88091 1.00585 0.99199 0.0
C475 C 0.86256 0.01672 0.9739 0.0
C476 C 0.8446 1.00659 0.96526 0.0
C477 C 0.82732 0.01695 0.94934 0.0
C478 C 0.82784 0.03742 0.94129 0.0
C479 C 0.84566 0.04758 0.94894 0.0
C480 C 0.86298 0.0373 0.965 0.0
C481 C 0.95639 0.98662 0.81937 0.0
C482 C 0.96238 1.00575 0.80015 0.0
C483 C 0.94109 0.98375 0.87024 0.0
C484 C 0.93161 0.99997 0.9037 0.0
C485 C 0.93777 0.01908 0.88446 0.0
C486 C 0.95286 0.02192 0.83308 0.0
C487 C 0.91487 0.99726 0.95666 0.0
C488 C 0.89728 1.00779 0.94506 0.0
C489 C 0.91592 0.98437 0.01756 0.0
C490 C 0.93417 0.97329 0.03513 0.0
C491 C 0.95219 0.98323 0.0452 0.0
C492 C 0.96937 0.97264 0.06048 0.0
C493 C 0.9687 0.95211 0.06649 0.0
C494 C 0.95084 0.94213 0.05727 0.0
C495 C 0.93362 0.95265 0.04186 0.0
H496 H 0.98203 0.94393 0.07808 0.0
H497 H 0.81444 0.04541 0.929 0.0
H498 H 0.52705 0.80288 0.11118 0.0
H499 H 0.5274 0.83098 0.02671 0.0
H500 H 0.51239 0.87011 0.20535 0.0
H501 H 0.51178 0.8419 0.28942 0.0
H502 H 0.49145 0.87937 0.08656 0.0
H503 H 0.55997 0.86731 0.13566 0.0
H504 H 0.59026 0.84731 0.14341 0.0
H505 H 0.58709 0.83498 0.91284 0.0
H506 H 0.55662 0.8547 0.9039 0.0
H507 H 0.51093 0.96844 0.89445 0.0
H508 H 0.51219 0.94166 0.98411 0.0
H509 H 0.53026 0.90115 0.81384 0.0
H510 H 0.52963 0.92799 0.72488 0.0
H511 H 0.54995 0.89312 0.93157 0.0
H512 H 0.48127 0.90415 0.88174 0.0
H513 H 0.45083 0.92388 0.87231 0.0
H514 H 0.45391 0.93764 0.10181 0.0
H515 H 0.48453 0.9182 0.11239 0.0
C516 C 0.52382 0.8175 0.13215 0.0
C517 C 0.51944 0.82031 0.20659 0.0
C518 C 0.52411 0.83358 0.08401 0.0
C519 C 0.52018 0.85283 0.10955 0.0
C520 C 0.51551 0.8555 0.18407 0.0
C521 C 0.51521 0.8394 0.23215 0.0
C522 C 0.52091 0.87012 0.05876 0.0
C523 C 0.50436 0.88252 0.05346 0.0
C524 C 0.53755 0.87411 0.01408 0.0
C525 C 0.55592 0.86233 0.01927 0.0
C526 C 0.56566 0.86021 0.08672 0.0
C527 C 0.58287 0.84895 0.0913 0.0
C528 C 0.59057 0.83984 0.02869 0.0
C529 C 0.5811 0.84203 0.96131 0.0
C530 C 0.56387 0.85326 0.95644 0.0
C531 C 0.51534 0.95385 0.87635 0.0
C532 C 0.52008 0.95034 0.80242 0.0
C533 C 0.51591 0.93848 0.92758 0.0
C534 C 0.52094 0.91915 0.90585 0.0
C535 C 0.52626 0.91582 0.83234 0.0
C536 C 0.52586 0.93121 0.78134 0.0
C537 C 0.52045 0.90234 0.95896 0.0
C538 C 0.53704 0.89002 0.96474 0.0
C539 C 0.50381 0.89836 0.00377 0.0
C540 C 0.4853 0.90989 0.99769 0.0
C541 C 0.47552 0.91149 0.9301 0.0
C542 C 0.45823 0.92261 0.92455 0.0
C543 C 0.45047 0.93205 0.98638 0.0
C544 C 0.45996 0.93034 0.05394 0.0
C545 C 0.47727 0.91926 0.05976 0.0
H546 H 0.43709 0.94066 0.98196 0.0
H547 H 0.6039 0.83113 0.03236 0.0
H548 H 0.66628 0.49755 0.32108 0.0
H549 H 0.63792 0.49746 0.23747 0.0
H550 H 0.67292 0.52735 0.07449 0.0
H551 H 0.70111 0.52774 0.15882 0.0
H552 H 0.63723 0.54328 0.08088 0.0
H553 H 0.66217 0.477 0.06383 0.0
H554 H 0.67264 0.44464 0.11101 0.0
H555 H 0.6148 0.43503 0.20006 0.0
H556 H 0.60405 0.46747 0.1542 0.0
H557 H 0.5782 0.52636 0.76716 0.0
H558 H 0.60421 0.52742 0.85939 0.0
H559 H 0.56651 0.49652 0.01092 0.0
H560 H 0.54049 0.49499 0.91752 0.0
H561 H 0.60234 0.48136 0.01547 0.0
H562 H 0.57692 0.54706 0.02838 0.0
H563 H 0.56633 0.57929 0.98031 0.0
H564 H 0.62483 0.59006 0.89944 0.0
H565 H 0.63571 0.55777 0.94615 0.0
C566 C 0.66784 0.50408 0.26734 0.0
C567 C 0.68582 0.51259 0.24607 0.0
C568 C 0.65168 0.50395 0.21939 0.0
C569 C 0.65324 0.51218 0.14894 0.0
C570 C 0.67126 0.52088 0.12828 0.0
C571 C 0.68739 0.52104 0.17632 0.0
C572 C 0.63616 0.51186 0.09697 0.0
C573 C 0.62977 0.52969 0.06599 0.0
C574 C 0.62594 0.49426 0.07874 0.0
C575 C 0.63237 0.47475 0.10626 0.0
C576 C 0.65173 0.46805 0.09398 0.0
C577 C 0.65771 0.44968 0.12038 0.0
C578 C 0.64441 0.43781 0.15869 0.0
C579 C 0.62509 0.44426 0.17049 0.0
C580 C 0.61905 0.46263 0.14425 0.0
C581 C 0.57536 0.5199 0.82029 0.0
C582 C 0.55724 0.51063 0.83499 0.0
C583 C 0.59026 0.5206 0.87329 0.0
C584 C 0.58735 0.51229 0.94291 0.0
C585 C 0.56918 0.50309 0.95786 0.0
C586 C 0.55426 0.5023 0.90455 0.0
C587 C 0.6035 0.51277 0.99893 0.0
C588 C 0.60971 0.49498 0.03066 0.0
C589 C 0.61355 0.53042 0.01794 0.0
C590 C 0.60709 0.54992 0.99027 0.0
C591 C 0.5875 0.55624 0.99993 0.0
C592 C 0.58145 0.57453 0.97298 0.0
C593 C 0.59489 0.58669 0.93671 0.0
C594 C 0.61443 0.58062 0.9275 0.0
C595 C 0.62055 0.56233 0.95428 0.0
H596 H 0.59018 0.60084 0.91585 0.0
H597 H 0.64907 0.42359 0.17908 0.0
H598 H 0.01557 0.70063 0.12804 0.0
H599 H 0.01575 0.67302 0.04053 0.0
H600 H 0.99782 0.63343 0.21264 0.0
H601 H 0.99801 0.66109 0.30036 0.0
H602 H 0.0254 0.61623 0.1302 0.0
H603 H 0.96491 0.64997 0.0814 0.0
H604 H 0.94389 0.67864 0.05372 0.0
H605 H 0.97499 0.6874 0.85144 0.0
H606 H 0.99639 0.65893 0.8784 0.0
H607 H 1.00238 0.53732 0.87996 0.0
H608 H 0.99994 0.56294 0.9751 0.0
H609 H 0.01714 0.60687 0.81722 0.0
H610 H 0.01907 0.58146 0.72237 0.0
H611 H 0.98818 0.62078 0.89733 0.0
H612 H 0.04931 0.58724 0.94861 0.0
H613 H 0.06998 0.55834 0.97699 0.0
H614 H 0.03738 0.54902 0.17556 0.0
H615 H 0.01623 0.57761 0.14766 0.0
C616 C 0.01169 0.686 0.14697 0.0
C617 C 1.00672 0.68292 0.22063 0.0
C618 C 0.0117 0.67023 0.09694 0.0
C619 C 1.00654 0.65105 0.11942 0.0
C620 C 1.00183 0.648 0.19362 0.0
C621 C 1.00186 0.6638 0.24369 0.0
C622 C 1.00602 0.63428 0.06554 0.0
C623 C 0.01702 0.61713 0.07977 0.0
C624 C 0.99534 0.6354 0.999 0.0
C625 C 0.98237 0.65242 0.98225 0.0
C626 C 0.96735 0.65809 0.03124 0.0
C627 C 0.95536 0.67429 0.01565 0.0
C628 C 0.95813 0.68487 0.95095 0.0
C629 C 0.97287 0.67921 0.90158 0.0
C630 C 0.98493 0.66303 0.91695 0.0
C631 C 1.0055 0.55243 0.86562 0.0
C632 C 0.01086 0.5573 0.79355 0.0
C633 C 1.00425 0.56711 0.92017 0.0
C634 C 1.00856 0.58696 0.9039 0.0
C635 C 0.01371 0.59177 0.8316 0.0
C636 C 0.01487 0.57716 0.77729 0.0
C637 C 1.00779 0.60283 0.96138 0.0
C638 C 0.9965 0.61982 0.94786 0.0
C639 C 0.01819 0.60152 0.02855 0.0
C640 C 0.03104 0.58444 0.04563 0.0
C641 C 0.04645 0.57894 0.99805 0.0
C642 C 0.05826 0.56263 0.01406 0.0
C643 C 0.05498 0.55184 0.07794 0.0
C644 C 0.03989 0.55737 0.12603 0.0
C645 C 0.02797 0.57362 0.11013 0.0
H646 H 0.06415 0.53923 0.09023 0.0
H647 H 0.94884 0.69742 0.939 0.0
H648 H 0.03691 0.2197 0.28727 0.0
H649 H 0.02478 0.20239 0.39432 0.0
H650 H 0.97935 0.24637 0.42325 0.0
H651 H 0.99107 0.26334 0.31327 0.0
H652 H 0.01304 0.20206 0.53156 0.0
H653 H 0.93729 0.22304 0.43914 0.0
H654 H 0.92024 0.24008 0.33796 0.0
H655 H 0.96367 0.21861 0.18575 0.0
H656 H 0.98079 0.20132 0.28593 0.0
H657 H 0.96956 0.10914 0.6089 0.0
H658 H 0.97115 0.14515 0.61508 0.0
H659 H 0.96767 0.14782 0.37948 0.0
H660 H 0.96464 0.11221 0.3731 0.0
H661 H 0.94986 0.17746 0.42963 0.0
H662 H 0.01259 0.1446 0.49501 0.0
H663 H 0.03464 0.12543 0.57516 0.0
H664 H 0.02413 0.16626 0.75133 0.0
H665 H 1.00145 0.18524 0.67313 0.0
C666 C 0.02477 0.22606 0.318 0.0
C667 C 0.01444 0.24236 0.29075 0.0
C668 C 0.01794 0.21628 0.37983 0.0
C669 C 1.00071 0.22271 0.41535 0.0
C670 C 0.99242 0.24092 0.39558 0.0
C671 C 0.99915 0.25064 0.33285 0.0
C672 C 0.98924 0.20788 0.45697 0.0
C673 C 0.99892 0.19692 0.51107 0.0
C674 C 0.97078 0.20118 0.43043 0.0
C675 C 0.96035 0.21112 0.36989 0.0
C676 C 0.94311 0.22194 0.38399 0.0
C677 C 0.93346 0.23163 0.32687 0.0
C678 C 0.9409 0.23047 0.25551 0.0
C679 C 0.95793 0.21951 0.241 0.0
C680 C 0.96758 0.20974 0.29785 0.0
C681 C 0.96841 0.11745 0.55857 0.0
C682 C 0.96723 0.10778 0.4902 0.0
C683 C 0.96952 0.13803 0.56235 0.0
C684 C 0.96989 0.14923 0.49798 0.0
C685 C 0.96745 0.1396 0.43021 0.0
C686 C 0.96598 0.11915 0.42642 0.0
C687 C 0.97469 0.1706 0.49846 0.0
C688 C 0.96344 0.18298 0.45356 0.0
C689 C 0.99218 0.1781 0.5309 0.0
C690 C 1.00507 0.16612 0.57868 0.0
C691 C 0.01475 0.1493 0.55122 0.0
C692 C 0.02735 0.13847 0.59632 0.0
C693 C 0.0307 0.14457 0.66846 0.0
C694 C 0.02136 0.16143 0.69577 0.0
C695 C 1.00857 0.17218 0.6512 0.0
H696 H 0.04056 0.13625 0.70315 0.0
H697 H 0.93345 0.23803 0.21145 0.0
H698 H 0.26592 0.04829 0.28136 0.0
H699 H 0.28559 0.05362 0.39251 0.0
H700 H 0.30176 0.99212 0.39201 0.0
H701 H 0.28235 0.98686 0.28079 0.0
H702 H 0.29647 0.0298 0.54642 0.0
H703 H 0.34731 0.99717 0.33885 0.0
H704 H 0.35379 0.99427 0.2061 0.0
H705 H 0.32819 0.05142 0.17192 0.0
H706 H 0.32143 0.05453 0.30442 0.0
H707 H 0.39333 0.99062 0.61829 0.0
H708 H 0.35888 1.00091 0.6107 0.0
H709 H 0.37715 0.05776 0.53074 0.0
H710 H 0.41142 0.04751 0.53596 0.0
H711 H 0.36227 0.03007 0.42721 0.0
H712 H 0.34531 0.06063 0.6489 0.0
H713 H 0.33964 0.06729 0.77986 0.0
H714 H 0.29982 0.01817 0.79152 0.0
H715 H 0.30547 0.01095 0.66073 0.0
C716 C 0.27284 0.03577 0.30753 0.0
C717 C 0.27278 0.0172 0.27335 0.0
C718 C 0.28395 0.03879 0.37099 0.0
C719 C 0.29502 0.02324 0.40013 0.0
C720 C 0.29307 1.0042 0.37063 0.0
C721 C 0.2821 1.00122 0.30712 0.0
C722 C 0.31248 0.02762 0.44493 0.0
C723 C 0.31095 0.02992 0.52112 0.0
C724 C 0.33114 0.02831 0.41101 0.0
C725 C 0.33377 0.026 0.33102 0.0
C726 C 0.34292 0.00901 0.30274 0.0
C727 C 0.34664 1.00734 0.2277 0.0
C728 C 0.34144 0.02267 0.18074 0.0
C729 C 0.33218 0.03955 0.20842 0.0
C730 C 0.32829 0.04123 0.28339 0.0
C731 C 0.39003 1.0055 0.6009 0.0
C732 C 0.40505 0.01796 0.57482 0.0
C733 C 0.37035 0.01153 0.59844 0.0
C734 C 0.36551 0.03002 0.56951 0.0
C735 C 0.38063 0.04346 0.55361 0.0
C736 C 0.40026 0.03743 0.55567 0.0
C737 C 0.34668 0.03194 0.53008 0.0
C738 C 0.34793 0.03044 0.45375 0.0
C739 C 0.328 0.0321 0.56463 0.0
C740 C 0.32588 0.0352 0.64476 0.0
C741 C 0.33561 0.051 0.67951 0.0
C742 C 0.33229 0.05497 0.75366 0.0
C743 C 0.31924 0.04326 0.79374 0.0
C744 C 0.30983 0.02729 0.76022 0.0
C745 C 0.31308 0.02326 0.68603 0.0
H746 H 0.31642 0.0466 0.85076 0.0
H747 H 0.34475 0.02151 0.12306 0.0
H748 H 0.52217 0.24588 0.34946 0.0
H749 H 0.53473 0.26239 0.45914 0.0
H750 H 0.57576 0.29524 0.32626 0.0
H751 H 0.56395 0.27815 0.21732 0.0
H752 H 0.58807 0.29437 0.4687 0.0
H753 H 0.52689 0.30905 0.33142 0.0
H754 H 0.49409 0.2996 0.28444 0.0
H755 H 0.47494 0.28602 0.50272 0.0
H756 H 0.50776 0.29513 0.55082 0.0
H757 H 0.57794 0.39646 0.47105 0.0
H758 H 0.58208 0.36081 0.46253 0.0
H759 H 0.53961 0.35291 0.63618 0.0
H760 H 0.53554 0.38863 0.64527 0.0
H761 H 0.52839 0.33445 0.51994 0.0
H762 H 0.58737 0.33488 0.65403 0.0
H763 H 0.62009 0.34648 0.69403 0.0
H764 H 0.64389 0.33351 0.48114 0.0
H765 H 0.61123 0.32219 0.43934 0.0
C766 C 0.5346 0.25581 0.34415 0.0
C767 C 0.54161 0.26134 0.2747 0.0
C768 C 0.54176 0.26527 0.40695 0.0
C769 C 0.55563 0.28057 0.40037 0.0
C770 C 0.56484 0.28369 0.33258 0.0
C771 C 0.5579 0.27409 0.27011 0.0
C772 C 0.55661 0.29657 0.45575 0.0
C773 C 0.57506 0.30306 0.48108 0.0
C774 C 0.53953 0.30769 0.47316 0.0
C775 C 0.51977 0.30252 0.44451 0.0
C776 C 0.51568 0.30399 0.36927 0.0
C777 C 0.49712 0.29868 0.34245 0.0
C778 C 0.48246 0.29217 0.39051 0.0
C779 C 0.48633 0.29101 0.46555 0.0
C780 C 0.5049 0.29621 0.49262 0.0
C781 C 0.57 0.38717 0.50916 0.0
C782 C 0.55615 0.3953 0.55792 0.0
C783 C 0.57246 0.36676 0.50459 0.0
C784 C 0.56123 0.35414 0.54909 0.0
C785 C 0.54845 0.36234 0.60143 0.0
C786 C 0.54599 0.38274 0.60603 0.0
C787 C 0.56001 0.33285 0.53073 0.0
C788 C 0.54142 0.32542 0.51158 0.0
C789 C 0.57698 0.32112 0.51875 0.0
C790 C 0.59678 0.32772 0.5435 0.0
C791 C 0.59954 0.33462 0.61556 0.0
C792 C 0.61809 0.34114 0.63858 0.0
C793 C 0.63406 0.34073 0.59016 0.0
C794 C 0.63151 0.33379 0.51862 0.0
C795 C 0.61298 0.32728 0.49527 0.0
H796 H 0.64841 0.34578 0.60807 0.0
H797 H 0.4681 0.28807 0.36964 0.0
H798 H 0.26437 0.54514 0.29068 0.0
H799 H 0.24877 0.56049 0.39831 0.0
H800 H 0.21082 0.50961 0.41976 0.0
H801 H 0.22665 0.49435 0.31487 0.0
H802 H 0.21414 0.57274 0.39541 0.0
H803 H 0.18962 0.50284 0.57055 0.0
H804 H 0.20621 0.47583 0.63542 0.0
H805 H 0.26057 0.50828 0.63346 0.0
H806 H 0.24425 0.53576 0.57 0.0
H807 H 0.11741 0.55366 0.38954 0.0
H808 H 0.1525 0.56079 0.39273 0.0
H809 H 0.15204 0.55638 0.62868 0.0
H810 H 0.11686 0.54829 0.62494 0.0
H811 H 0.17901 0.53579 0.58933 0.0
H812 H 0.16879 0.60071 0.5349 0.0
H813 H 0.15433 0.63095 0.48352 0.0
H814 H 0.17325 0.61365 0.26813 0.0
H815 H 0.18753 0.58315 0.31774 0.0
C816 C 0.25328 0.53699 0.32075 0.0
C817 C 0.24644 0.51874 0.29443 0.0
C818 C 0.24434 0.54576 0.382 0.0
C819 C 0.22858 0.53629 0.4176 0.0
C820 C 0.22318 0.51718 0.3949 0.0
C821 C 0.23207 0.50849 0.33415 0.0
C822 C 0.2148 0.54735 0.46603 0.0
C823 C 0.20664 0.5649 0.43891 0.0
C824 C 0.20582 0.53813 0.52687 0.0
C825 C 0.21562 0.52152 0.56558 0.0
C826 C 0.20504 0.50441 0.58468 0.0
C827 C 0.21443 0.48894 0.62107 0.0
C828 C 0.23443 0.49034 0.63864 0.0
C829 C 0.24508 0.50721 0.61982 0.0
C830 C 0.23576 0.52274 0.58355 0.0
C831 C 0.12468 0.55485 0.44218 0.0
C832 C 0.11455 0.55029 0.50679 0.0
C833 C 0.14478 0.55914 0.44428 0.0
C834 C 0.15507 0.55944 0.51126 0.0
C835 C 0.14452 0.55631 0.57645 0.0
C836 C 0.12445 0.55166 0.57424 0.0
C837 C 0.17702 0.55933 0.5106 0.0
C838 C 0.1868 0.5441 0.54784 0.0
C839 C 0.18786 0.57122 0.46136 0.0
C840 C 0.17936 0.5896 0.43036 0.0
C841 C 0.16982 0.60329 0.47651 0.0
C842 C 0.16164 0.6205 0.44766 0.0
C843 C 0.1629 0.62424 0.37264 0.0
C844 C 0.17235 0.61077 0.3263 0.0
C845 C 0.18056 0.59353 0.35484 0.0
H846 H 0.15654 0.63757 0.3504 0.0
H847 H 0.24166 0.47835 0.66676 0.0
H848 H 0.99929 0.74649 0.09331 0.0
H849 H 0.99812 0.7667 0.98356 0.0
H850 H 0.94755 0.79763 0.06971 0.0
H851 H 0.94817 0.77695 0.17845 0.0
H852 H 0.95154 0.80243 0.917 0.0
H853 H 0.99074 0.8094 0.14307 0.0
H854 H 0.0146 0.7974 0.2346 0.0
H855 H 0.05757 0.78805 0.06509 0.0
H856 H 0.03389 0.7999 0.97247 0.0
H857 H 0.97196 0.9046 0.97391 0.0
H858 H 0.96348 0.86952 0.97349 0.0
H859 H 0.01401 0.85706 0.83729 0.0
H860 H 0.02243 0.89217 0.83649 0.0
H861 H 0.01267 0.83904 0.98026 0.0
H862 H 0.97055 0.82894 0.75174 0.0
H863 H 0.94546 0.84102 0.66484 0.0
H864 H 0.90868 0.85918 0.84463 0.0
H865 H 0.9334 0.84673 0.93236 0.0
C866 C 0.98713 0.75668 0.08691 0.0
C867 C 0.97429 0.76077 0.14558 0.0
C868 C 0.98651 0.76827 0.02399 0.0
C869 C 0.97326 0.78414 0.0202 0.0
C870 C 0.9581 0.78565 0.07221 0.0
C871 C 0.95857 0.77393 0.13471 0.0
C872 C 0.97864 0.80198 0.97858 0.0
C873 C 0.96504 0.8103 0.92987 0.0
C874 C 0.99626 0.81231 0.99535 0.0
C875 C 0.01049 0.80523 0.05086 0.0
C876 C 1.00522 0.80461 0.12531 0.0
C877 C 0.01867 0.7978 0.17732 0.0
C878 C 0.03751 0.79181 0.1556 0.0
C879 C 0.04294 0.79264 0.0818 0.0
C880 C 0.02952 0.79938 0.02952 0.0
C881 C 0.98095 0.89446 0.94228 0.0
C882 C 0.99804 0.90103 0.90632 0.0
C883 C 0.97599 0.87446 0.94151 0.0
C884 C 0.98793 0.86079 0.90423 0.0
C885 C 1.00448 0.86745 0.86546 0.0
C886 C 0.00941 0.88743 0.86603 0.0
C887 C 0.98552 0.83959 0.91928 0.0
C888 C 0.99963 0.83078 0.96435 0.0
C889 C 0.96836 0.82903 0.89992 0.0
C890 C 0.95381 0.83713 0.84823 0.0
C891 C 0.95709 0.83552 0.77253 0.0
C892 C 0.94288 0.84227 0.7232 0.0
C893 C 0.92548 0.85087 0.74921 0.0
C894 C 0.92218 0.85256 0.82458 0.0
C895 C 0.93622 0.84557 0.87409 0.0
H896 H 0.91459 0.85626 0.71096 0.0
H897 H 0.04793 0.78663 0.19602 0.0
H898 H 0.76161 0.0525 0.17716 0.0
H899 H 0.74376 0.06901 0.07817 0.0
H900 H 0.72943 0.01235 0.98364 0.0
H901 H 0.74768 0.99596 0.08147 0.0
H902 H 0.73017 0.04329 0.87793 0.0
H903 H 0.69591 0.02775 0.11702 0.0
H904 H 0.69374 0.02963 0.25187 0.0
H905 H 0.70428 0.09207 0.24418 0.0
H906 H 0.70601 0.09054 0.10899 0.0
H907 H 0.63307 0.01594 0.84174 0.0
H908 H 0.66786 0.02486 0.84866 0.0
H909 H 0.65188 0.08407 0.91311 0.0
H910 H 0.61696 0.07506 0.90719 0.0
H911 H 0.67141 0.06609 0.01649 0.0
H912 H 0.68611 0.07941 0.77209 0.0
H913 H 0.68755 0.07753 0.63735 0.0
H914 H 0.71403 0.02014 0.64971 0.0
H915 H 0.71274 0.02165 0.78469 0.0
C916 C 0.75552 0.04372 0.1329 0.0
C917 C 0.75589 0.02307 0.13621 0.0
C918 C 0.74531 0.05311 0.07663 0.0
C919 C 0.73502 0.04187 0.02443 0.0
C920 C 0.73735 0.02129 0.02319 0.0
C921 C 0.74771 0.01192 0.07906 0.0
C922 C 0.7183 0.05054 0.98402 0.0
C923 C 0.71732 0.04853 0.90759 0.0
C924 C 0.70183 0.05803 0.02267 0.0
C925 C 0.70125 0.05901 0.10351 0.0
C926 C 0.6978 0.04184 0.14432 0.0
C927 C 0.69657 0.04286 0.22065 0.0
C928 C 0.69899 0.06094 0.25664 0.0
C929 C 0.70246 0.07807 0.21626 0.0
C930 C 0.70345 0.07716 0.1398 0.0
C931 C 0.637 0.03098 0.85582 0.0
C932 C 0.62241 0.04467 0.876 0.0
C933 C 0.65689 0.03618 0.85845 0.0
C934 C 0.66252 0.05516 0.88143 0.0
C935 C 0.64787 0.06939 0.89483 0.0
C936 C 0.62793 0.0642 0.89181 0.0
C937 C 0.68274 0.05809 0.90994 0.0
C938 C 0.68441 0.062 0.98512 0.0
C939 C 0.69969 0.05241 0.86973 0.0
C940 C 0.69933 0.05067 0.78867 0.0
C941 C 0.69209 0.06631 0.74615 0.0
C942 C 0.69301 0.06537 0.66971 0.0
C943 C 0.70105 0.04881 0.63506 0.0
C944 C 0.70795 0.03303 0.67672 0.0
C945 C 0.70718 0.03394 0.75322 0.0
H946 H 0.70192 0.04821 0.5759 0.0
H947 H 0.69811 0.06169 0.31578 0.0
H948 H 0.52051 0.72145 0.1043 0.0
H949 H 0.50773 0.70751 0.99051 0.0
H950 H 0.45379 0.74054 0.01869 0.0
H951 H 0.46688 0.75474 0.13307 0.0
H952 H 0.44705 0.70213 0.01307 0.0
H953 H 0.47832 0.74546 0.85614 0.0
H954 H 0.50338 0.7674 0.8025 0.0
H955 H 0.54153 0.71788 0.76449 0.0
H956 H 0.51696 0.69566 0.81924 0.0
H957 H 0.43563 0.61259 0.82096 0.0
H958 H 0.43382 0.64884 0.81836 0.0
H959 H 0.49525 0.65207 0.87904 0.0
H960 H 0.4971 0.61622 0.88064 0.0
H961 H 0.48486 0.68287 0.7915 0.0
H962 H 0.45869 0.64819 0.01275 0.0
H963 H 0.43451 0.62584 0.07032 0.0
H964 H 0.38697 0.66046 0.98387 0.0
H965 H 0.41094 0.6829 0.92529 0.0
C966 C 0.5062 0.72618 0.08478 0.0
C967 C 0.49456 0.73895 0.12701 0.0
C968 C 0.49896 0.71843 0.01936 0.0
C969 C 0.47984 0.72314 0.99545 0.0
C970 C 0.46865 0.7369 0.0356 0.0
C971 C 0.47605 0.7449 0.10084 0.0
C972 C 0.47054 0.7103 0.93942 0.0
C973 C 0.45472 0.69851 0.96257 0.0
C974 C 0.48042 0.70556 0.87331 0.0
C975 C 0.49568 0.71884 0.84196 0.0
C976 C 0.49212 0.73924 0.83703 0.0
C977 C 0.50625 0.75174 0.80628 0.0
C978 C 0.52403 0.74404 0.78007 0.0
C979 C 0.52774 0.72382 0.78472 0.0
C980 C 0.51368 0.71125 0.81554 0.0
C981 C 0.44879 0.62116 0.8319 0.0
C982 C 0.46636 0.61181 0.85313 0.0
C983 C 0.44777 0.64177 0.83012 0.0
C984 C 0.46433 0.65311 0.84949 0.0
C985 C 0.48229 0.64364 0.86391 0.0
C986 C 0.48328 0.62317 0.86596 0.0
C987 C 0.46265 0.67424 0.86888 0.0
C988 C 0.47634 0.68745 0.83889 0.0
C989 C 0.45087 0.68037 0.92874 0.0
C990 C 0.43652 0.66703 0.96419 0.0
C991 C 0.44306 0.65096 0.00593 0.0
C992 C 0.42942 0.63829 0.03867 0.0
C993 C 0.40921 0.6417 0.0306 0.0
C994 C 0.40262 0.65781 0.98991 0.0
C995 C 0.41622 0.6705 0.95691 0.0
H996 H 0.39866 0.63188 0.05599 0.0
H997 H 0.53494 0.75374 0.75616 0.0
H998 H 0.75168 0.53226 0.11846 0.0
H999 H 0.76816 0.53815 1.00121 0.0
H1000 H 0.80247 0.48515 0.03091 0.0
H1001 H 0.78591 0.4792 0.14687 0.0
H1002 H 0.80494 0.54691 0.01439 0.0
H1003 H 0.82414 0.46877 0.88736 0.0
H1004 H 0.806 0.44 0.83983 0.0
H1005 H 0.75458 0.47583 0.80777 0.0
H1006 H 0.77246 0.50495 0.85418 0.0
H1007 H 0.89757 0.50999 0.03637 0.0
H1008 H 0.86221 0.51667 0.02954 0.0
H1009 H 0.86769 0.52983 0.79949 0.0
H1010 H 0.90335 0.52376 0.80671 0.0
H1011 H 0.8374 0.49969 0.84471 0.0
H1012 H 0.85385 0.56627 0.878 0.0
H1013 H 0.87241 0.59467 0.92699 0.0
H1014 H 0.85182 0.58163 0.14391 0.0
H1015 H 0.83338 0.55298 0.09655 0.0
C1016 C 0.76207 0.52141 0.09804 0.0
C1017 C 0.76791 0.5055 0.14209 0.0
C1018 C 0.77144 0.52476 0.03098 0.0
C1019 C 0.78664 0.51219 0.00721 0.0
C1020 C 0.79063 0.49498 0.04719 0.0
C1021 C 0.78136 0.49169 0.11415 0.0
C1022 C 0.8019 0.51937 0.95564 0.0
C1023 C 0.81173 0.53684 0.97551 0.0
C1024 C 0.81047 0.5067 0.9026 0.0
C1025 C 0.79971 0.48914 0.87423 0.0
C1026 C 0.80903 0.47062 0.86958 0.0
C1027 C 0.79875 0.4542 0.84312 0.0
C1028 C 0.77915 0.45608 0.82086 0.0
C1029 C 0.76976 0.47438 0.82517 0.0
C1030 C 0.77995 0.49085 0.85173 0.0
C1031 C 0.89128 0.51451 0.98459 0.0
C1032 C 0.90309 0.51613 0.92185 0.0
C1033 C 0.87116 0.5184 0.98075 0.0
C1034 C 0.86247 0.52375 0.91399 0.0
C1035 C 0.87421 0.52577 0.85139 0.0
C1036 C 0.89449 0.52228 0.85564 0.0
C1037 C 0.84088 0.52576 0.9109 0.0
C1038 C 0.83002 0.51016 0.8805 0.0
C1039 C 0.83129 0.5401 0.9543 0.0
C1040 C 0.84215 0.55748 0.9835 0.0
C1041 C 0.85332 0.56941 0.9362 0.0
C1042 C 0.86383 0.58556 0.9637 0.0
C1043 C 0.86327 0.58997 0.03849 0.0
C1044 C 0.85219 0.57824 0.08594 0.0
C1045 C 0.84166 0.56206 0.05873 0.0
H1046 H 0.87143 0.60247 0.05969 0.0
H1047 H 0.77125 0.44335 0.80018 0.0
H1048 H 0.9895 0.20813 0.08489 0.0
H1049 H 0.98956 0.17749 0.01479 0.0
H1050 H 0.0397 0.19794 0.89083 0.0
H1051 H 0.04014 0.22858 0.96372 0.0
H1052 H 0.98517 0.1653 0.8829 0.0
H1053 H 0.06917 0.15874 0.84636 0.0
H1054 H 0.09989 0.1706 0.90416 0.0
H1055 H 0.07002 0.17598 0.11088 0.0
H1056 H 0.03922 0.16392 0.05448 0.0
H1057 H 1.00443 0.07867 0.66941 0.0
H1058 H 1.00458 0.11262 0.71491 0.0
H1059 H 0.02886 0.09291 0.92005 0.0
H1060 H 0.0287 0.05887 0.87499 0.0
H1061 H 0.04677 0.12591 0.88011 0.0
H1062 H 0.97989 0.1037 0.89615 0.0
H1063 H 0.94853 0.09018 0.84991 0.0
H1064 H 0.94208 0.13987 0.70712 0.0
H1065 H 0.97374 0.15343 0.75103 0.0
C1066 C 1.00048 0.20622 0.0423 0.0
C1067 C 0.01502 0.22075 0.03086 0.0
C1068 C 1.00043 0.18865 1.00179 0.0
C1069 C 0.01487 0.18501 0.94818 0.0
C1070 C 0.02863 0.20008 0.93294 0.0
C1071 C 0.02875 0.21774 0.97401 0.0
C1072 C 0.01593 0.16506 0.91206 0.0
C1073 C 0.99871 0.15679 0.88183 0.0
C1074 C 0.03343 0.1536 0.91135 0.0
C1075 C 0.05188 0.16065 0.946 0.0
C1076 C 0.0692 0.16241 0.90418 0.0
C1077 C 0.08661 0.16917 0.93669 0.0
C1078 C 0.08688 0.1741 0.01108 0.0
C1079 C 0.06977 0.17221 0.05321 0.0
C1080 C 0.05233 0.16544 0.021 0.0
C1081 C 0.00997 0.08152 0.72406 0.0
C1082 C 0.01656 0.06588 0.76844 0.0
C1083 C 0.01 0.10103 0.75016 0.0
C1084 C 0.01669 0.1055 0.82125 0.0
C1085 C 0.02367 0.08997 0.86499 0.0
C1086 C 0.0235 0.07043 0.83917 0.0
C1087 C 0.01601 0.12617 0.85101 0.0
C1088 C 0.03329 0.13453 0.88022 0.0
C1089 C 0.99844 0.13753 0.85222 0.0
C1090 C 0.97937 0.12942 0.82601 0.0
C1091 C 0.97192 0.11163 0.85423 0.0
C1092 C 0.95409 0.10396 0.82846 0.0
C1093 C 0.94338 0.1141 0.77527 0.0
C1094 C 0.95045 0.13198 0.74804 0.0
C1095 C 0.96836 0.13965 0.77322 0.0
H1096 H 0.92957 0.10815 0.7554 0.0
H1097 H 0.10037 0.17935 0.03612 0.0
H1098 H 0.28911 0.98863 0.95806 0.0
H1099 H 0.32096 0.98777 0.89343 0.0
H1100 H 0.33811 0.04172 1.00255 0.0
H1101 H 0.30614 0.04306 0.06308 0.0
H1102 H 0.35431 0.04323 0.88392 0.0
H1103 H 0.35226 0.99083 0.05947 0.0
H1104 H 0.33932 0.96087 0.11869 0.0
H1105 H 0.34699 0.92839 0.91812 0.0
H1106 H 0.35973 0.9583 0.85758 0.0
H1107 H 0.4597 0.02726 0.89044 0.0
H1108 H 0.42482 0.02926 0.92739 0.0
H1109 H 0.4088 0.99123 0.74744 0.0
H1110 H 0.44331 0.98969 0.70877 0.0
H1111 H 0.39228 0.98087 0.89396 0.0
H1112 H 0.39806 0.03418 0.7239 0.0
H1113 H 0.41236 0.06465 0.67293 0.0
H1114 H 0.39844 0.09576 0.87165 0.0
H1115 H 0.38449 0.06535 0.92441 0.0
C1116 C 0.29951 1.00055 0.96644 0.0
C1117 C 0.29518 0.01579 0.01639 0.0
C1118 C 0.31794 0.99988 0.93062 0.0
C1119 C 0.33255 0.01425 0.945 0.0
C1120 C 0.32747 0.03023 0.99061 0.0
C1121 C 0.3091 0.03099 0.02553 0.0
C1122 C 0.35325 0.01261 0.91514 0.0
C1123 C 0.36246 0.02951 0.88627 0.0
C1124 C 0.36433 0.99484 0.91782 0.0
C1125 C 0.35667 0.97685 0.95385 0.0
C1126 C 0.35102 0.97734 0.02794 0.0
C1127 C 0.34375 0.96037 0.06173 0.0
C1128 C 0.34226 0.94275 0.0221 0.0
C1129 C 0.3481 0.94207 0.94868 0.0
C1130 C 0.35535 0.95903 0.91461 0.0
C1131 C 0.44875 0.01936 0.85868 0.0
C1132 C 0.45439 1.00836 0.79655 0.0
C1133 C 0.4288 0.02054 0.87974 0.0
C1134 C 0.41414 0.0104 0.84011 0.0
C1135 C 0.41978 0.99919 0.77881 0.0
C1136 C 0.43958 0.99839 0.75673 0.0
C1137 C 0.39294 0.01139 0.86266 0.0
C1138 C 0.38381 0.9944 0.89048 0.0
C1139 C 0.38199 0.02912 0.85979 0.0
C1140 C 0.39047 0.04741 0.82839 0.0
C1141 C 0.39826 0.04745 0.75698 0.0
C1142 C 0.40625 0.06472 0.7277 0.0
C1143 C 0.40632 0.08211 0.76904 0.0
C1144 C 0.3984 0.08226 0.83973 0.0
C1145 C 0.39047 0.06501 0.86936 0.0
H1146 H 0.41249 0.09547 0.74625 0.0
H1147 H 0.33664 0.92961 0.04834 0.0
H1148 H 0.49713 0.30511 0.15133 0.0
H1149 H 0.49388 0.33615 0.08546 0.0
H1150 H 0.51327 0.30751 0.88662 0.0
H1151 H 0.51673 0.27618 0.95347 0.0
H1152 H 0.53292 0.34203 0.90912 0.0
H1153 H 0.46532 0.32276 0.90643 0.0
H1154 H 0.43386 0.31092 0.95796 0.0
H1155 H 0.43125 0.36148 0.10015 0.0
H1156 H 0.46284 0.37349 0.05021 0.0
H1157 H 0.51414 0.43009 0.70341 0.0
H1158 H 0.51343 0.39606 0.74771 0.0
H1159 H 0.49412 0.41663 0.95966 0.0
H1160 H 0.49458 0.45064 0.9156 0.0
H1161 H 0.47351 0.38462 0.91847 0.0
H1162 H 0.54147 0.40349 0.92359 0.0
H1163 H 0.57317 0.41519 0.87412 0.0
H1164 H 0.57598 0.36498 0.73053 0.0
H1165 H 0.54392 0.35326 0.77739 0.0
C1166 C 0.50035 0.30531 0.09325 0.0
C1167 C 0.50709 0.28814 0.05759 0.0
C1168 C 0.49846 0.32311 0.05546 0.0
C1169 C 0.5032 0.32431 0.98068 0.0
C1170 C 0.50947 0.30703 0.94422 0.0
C1171 C 0.51125 0.28908 0.98219 0.0
C1172 C 0.50253 0.34385 0.94255 0.0
C1173 C 0.51979 0.35117 0.90968 0.0
C1174 C 0.48559 0.35608 0.94484 0.0
C1175 C 0.46654 0.34895 0.9749 0.0
C1176 C 0.45811 0.33128 0.94906 0.0
C1177 C 0.44024 0.32455 0.97793 0.0
C1178 C 0.43058 0.33542 0.03239 0.0
C1179 C 0.43876 0.35307 0.05799 0.0
C1180 C 0.45663 0.35986 0.02935 0.0
C1181 C 0.50971 0.42741 0.75941 0.0
C1182 C 0.50446 0.44323 0.80582 0.0
C1183 C 0.50941 0.40789 0.78482 0.0
C1184 C 0.50394 0.40366 0.85739 0.0
C1185 C 0.49841 0.41941 0.90347 0.0
C1186 C 0.49874 0.43892 0.87818 0.0
C1187 C 0.50396 0.38292 0.88562 0.0
C1188 C 0.48657 0.3754 0.91689 0.0
C1189 C 0.52082 0.37054 0.88186 0.0
C1190 C 0.54004 0.37769 0.85305 0.0
C1191 C 0.54865 0.39509 0.88059 0.0
C1192 C 0.56671 0.40172 0.85306 0.0
C1193 C 0.5765 0.39091 0.79879 0.0
C1194 C 0.5683 0.37339 0.7722 0.0
C1195 C 0.55015 0.36679 0.79906 0.0
H1196 H 0.5905 0.39604 0.77764 0.0
H1197 H 0.41675 0.33019 0.05467 0.0
H1198 H 0.20635 0.48228 0.12769 0.0
H1199 H 0.17609 0.48129 0.05646 0.0
H1200 H 0.20472 0.5132 0.88226 0.0
H1201 H 0.23516 0.51484 0.95551 0.0
H1202 H 0.16968 0.52883 0.90728 0.0
H1203 H 0.19137 0.46345 0.86359 0.0
H1204 H 0.20439 0.43047 0.8927 0.0
H1205 H 0.15368 0.41881 0.0268 0.0
H1206 H 0.14046 0.45183 0.99935 0.0
H1207 H 0.082 0.51561 0.69102 0.0
H1208 H 0.11609 0.51433 0.73419 0.0
H1209 H 0.09654 0.48688 0.93413 0.0
H1210 H 0.06243 0.48784 0.89064 0.0
H1211 H 0.12898 0.46848 0.87881 0.0
H1212 H 0.10909 0.53596 0.92594 0.0
H1213 H 0.09662 0.5688 0.89138 0.0
H1214 H 0.14502 0.57605 0.74227 0.0
H1215 H 0.15757 0.54304 0.77447 0.0
C1216 C 0.20634 0.48892 0.07385 0.0
C1217 C 0.22322 0.49873 0.04756 0.0
C1218 C 0.18898 0.48822 0.03273 0.0
C1219 C 0.18797 0.49702 0.96331 0.0
C1220 C 0.20503 0.50627 0.93557 0.0
C1221 C 0.22251 0.50703 0.9771 0.0
C1222 C 0.16876 0.49735 0.92262 0.0
C1223 C 0.161 0.51554 0.89969 0.0
C1224 C 0.15714 0.48012 0.91315 0.0
C1225 C 0.16499 0.4602 0.92977 0.0
C1226 C 0.18305 0.45391 0.89971 0.0
C1227 C 0.19046 0.43519 0.91585 0.0
C1228 C 0.17989 0.42256 0.96167 0.0
C1229 C 0.16186 0.42861 0.99133 0.0
C1230 C 0.15438 0.44732 0.97541 0.0
C1231 C 0.08493 0.50915 0.7439 0.0
C1232 C 0.06938 0.5017 0.78693 0.0
C1233 C 0.10448 0.50857 0.76887 0.0
C1234 C 0.109 0.5006 0.83778 0.0
C1235 C 0.09351 0.49309 0.88075 0.0
C1236 C 0.07395 0.49372 0.85589 0.0
C1237 C 0.12978 0.49997 0.86535 0.0
C1238 C 0.13781 0.48171 0.88568 0.0
C1239 C 0.1417 0.51709 0.87146 0.0
C1240 C 0.13416 0.53693 0.85207 0.0
C1241 C 0.11698 0.54446 0.88521 0.0
C1242 C 0.10989 0.56309 0.86604 0.0
C1243 C 0.11996 0.57443 0.81438 0.0
C1244 C 0.13719 0.56718 0.78194 0.0
C1245 C 0.14429 0.54851 0.8006 0.0
H1246 H 0.11447 0.58886 0.7997 0.0
H1247 H 0.18565 0.40808 0.9741 0.0
H1248 H 0.96276 0.79463 0.38271 0.0
H1249 H 0.96719 0.82696 0.43974 0.0
H1250 H 0.02926 0.81511 0.46578 0.0
H1251 H 0.02492 0.78282 0.40622 0.0
H1252 H 0.9776 0.84266 0.56185 0.0
H1253 H 0.0556 0.85438 0.44493 0.0
H1254 H 0.07564 0.84505 0.33706 0.0
H1255 H 0.02307 0.83925 0.20795 0.0
H1256 H 1.00275 0.84796 0.31551 0.0
H1257 H 0.01534 0.93181 0.71473 0.0
H1258 H 0.01395 0.89779 0.67091 0.0
H1259 H 1.00062 0.91813 0.45331 0.0
H1260 H 1.00228 0.95243 0.49643 0.0
H1261 H 0.02832 0.88676 0.45435 0.0
H1262 H 0.95821 0.89358 0.5291 0.0
H1263 H 0.93423 0.90849 0.615 0.0
H1264 H 0.96531 0.88344 0.79636 0.0
H1265 H 0.98933 0.86806 0.71137 0.0
C1266 C 0.97733 0.79877 0.40155 0.0
C1267 C 0.9935 0.7861 0.3895 0.0
C1268 C 0.97985 0.81733 0.43437 0.0
C1269 C 0.99863 0.82384 0.45611 0.0
C1270 C 0.01465 0.81072 0.44825 0.0
C1271 C 0.01213 0.79209 0.41518 0.0
C1272 C 1.00141 0.84463 0.48338 0.0
C1273 C 0.98889 0.85209 0.53864 0.0
C1274 C 0.01562 0.85752 0.45224 0.0
C1275 C 0.0277 0.85162 0.38827 0.0
C1276 C 0.04835 0.85096 0.39359 0.0
C1277 C 0.05974 0.84568 0.33263 0.0
C1278 C 0.05062 0.84134 0.26587 0.0
C1279 C 0.0301 0.84227 0.25995 0.0
C1280 C 0.01864 0.84726 0.32096 0.0
C1281 C 0.01215 0.92917 0.65739 0.0
C1282 C 1.00883 0.94502 0.60927 0.0
C1283 C 0.01129 0.90961 0.63246 0.0
C1284 C 1.00697 0.9053 0.55888 0.0
C1285 C 1.00399 0.92104 0.51031 0.0
C1286 C 1.00485 0.94068 0.53521 0.0
C1287 C 1.00494 0.88437 0.53358 0.0
C1288 C 0.01742 0.87703 0.47847 0.0
C1289 C 0.99034 0.87179 0.56291 0.0
C1290 C 0.97538 0.87962 0.61417 0.0
C1291 C 0.95978 0.89111 0.58738 0.0
C1292 C 0.94624 0.89965 0.63584 0.0
C1293 C 0.94832 0.89693 0.71122 0.0
C1294 C 0.96386 0.88557 0.73813 0.0
C1295 C 0.9773 0.87678 0.68985 0.0
H1296 H 0.93788 0.90359 0.74879 0.0
H1297 H 0.05945 0.83737 0.21862 0.0
H1298 H 0.73403 0.9719 0.41084 0.0
H1299 H 0.70282 0.9702 0.47894 0.0
H1300 H 0.69036 0.03057 0.4209 0.0
H1301 H 0.72204 0.03276 0.35947 0.0
H1302 H 0.67505 0.02673 0.53927 0.0
H1303 H 0.67135 0.98593 0.32543 0.0
H1304 H 0.68092 0.95908 0.24094 0.0
H1305 H 0.67064 0.91647 0.41006 0.0
H1306 H 0.66123 0.94312 0.49583 0.0
H1307 H 0.56555 0.99136 0.51007 0.0
H1308 H 0.59952 0.99091 0.4645 0.0
H1309 H 0.62085 1.00324 0.68236 0.0
H1310 H 0.58703 1.00412 0.72796 0.0
H1311 H 0.6313 0.96993 0.48583 0.0
H1312 H 0.66088 0.03255 0.67629 0.0
H1313 H 0.64866 0.06314 0.73469 0.0
H1314 H 0.60246 0.06709 0.5755 0.0
H1315 H 0.61489 0.03714 0.5139 0.0
C1316 C 0.72487 0.98495 0.41441 0.0
C1317 C 0.73042 1.00232 0.3779 0.0
C1318 C 0.70677 0.98389 0.45237 0.0
C1319 C 0.69359 1.00002 0.45329 0.0
C1320 C 0.69986 0.01774 0.42099 0.0
C1321 C 0.71803 0.01892 0.38484 0.0
C1322 C 0.67306 0.99853 0.48477 0.0
C1323 C 0.6657 0.01415 0.52804 0.0
C1324 C 0.66018 0.98255 0.46855 0.0
C1325 C 0.66582 0.96652 0.41722 0.0
C1326 C 0.67126 0.97084 0.34469 0.0
C1327 C 0.67664 0.95566 0.29658 0.0
C1328 C 0.67645 0.93609 0.32018 0.0
C1329 C 0.67083 0.93165 0.39191 0.0
C1330 C 0.66546 0.94677 0.44028 0.0
C1331 C 0.57745 0.99395 0.54842 0.0
C1332 C 0.57339 0.99789 0.62275 0.0
C1333 C 0.59694 0.99358 0.52226 0.0
C1334 C 0.61291 0.9972 0.5696 0.0
C1335 C 0.6089 1.00068 0.64418 0.0
C1336 C 0.58944 1.00112 0.67031 0.0
C1337 C 0.63364 0.99799 0.54075 0.0
C1338 C 0.64092 0.9823 0.498 0.0
C1339 C 0.64615 0.01434 0.55438 0.0
C1340 C 0.63874 0.03248 0.59094 0.0
C1341 C 0.64822 0.04003 0.65341 0.0
C1342 C 0.64124 0.05724 0.68713 0.0
C1343 C 0.62469 0.06689 0.65944 0.0
C1344 C 0.61521 0.05953 0.59723 0.0
C1345 C 0.62227 0.04249 0.56269 0.0
H1346 H 0.61928 0.08014 0.68602 0.0
H1347 H 0.68062 0.92436 0.28285 0.0
H1348 H 0.47945 0.70862 0.36445 0.0
H1349 H 0.48166 0.67903 0.44018 0.0
H1350 H 0.54268 0.69205 0.48547 0.0
H1351 H 0.54044 0.72189 0.40967 0.0
H1352 H 0.53862 0.65451 0.44237 0.0
H1353 H 0.50937 0.69544 0.61727 0.0
H1354 H 0.48634 0.71932 0.67251 0.0
H1355 H 0.43899 0.67765 0.65137 0.0
H1356 H 0.46153 0.65376 0.59313 0.0
H1357 H 0.50945 0.57688 0.74879 0.0
H1358 H 0.51129 0.61109 0.70713 0.0
H1359 H 0.51468 0.59076 0.48312 0.0
H1360 H 0.51386 0.55663 0.52479 0.0
H1361 H 0.49096 0.63459 0.63467 0.0
H1362 H 0.53878 0.62079 0.37287 0.0
H1363 H 0.56573 0.59882 0.33253 0.0
H1364 H 0.58267 0.58964 0.55627 0.0
H1365 H 0.556 0.61175 0.59791 0.0
C1366 C 0.49326 0.70537 0.39159 0.0
C1367 C 0.50978 0.71764 0.38103 0.0
C1368 C 0.49449 0.68844 0.43514 0.0
C1369 C 0.51233 0.68319 0.46892 0.0
C1370 C 0.52874 0.69572 0.46014 0.0
C1371 C 0.52742 0.71287 0.41725 0.0
C1372 C 0.51404 0.66391 0.50849 0.0
C1373 C 0.5282 0.6502 0.48451 0.0
C1374 C 0.50096 0.65839 0.56559 0.0
C1375 C 0.48715 0.67285 0.59956 0.0
C1376 C 0.49398 0.69145 0.62302 0.0
C1377 C 0.48099 0.70502 0.65489 0.0
C1378 C 0.46119 0.70006 0.66501 0.0
C1379 C 0.45432 0.68152 0.64313 0.0
C1380 C 0.46719 0.66797 0.61043 0.0
C1381 C 0.51079 0.57968 0.69063 0.0
C1382 C 0.51182 0.56389 0.64028 0.0
C1383 C 0.51175 0.59934 0.66673 0.0
C1384 C 0.5136 0.60379 0.59174 0.0
C1385 C 0.51397 0.58797 0.5414 0.0
C1386 C 0.51336 0.56834 0.56532 0.0
C1387 C 0.51491 0.62481 0.56581 0.0
C1388 C 0.50138 0.63889 0.59255 0.0
C1389 C 0.52905 0.63095 0.51316 0.0
C1390 C 0.54528 0.6178 0.48849 0.0
C1391 C 0.54832 0.61416 0.41344 0.0
C1392 C 0.56353 0.60166 0.39035 0.0
C1393 C 0.57587 0.5928 0.44181 0.0
C1394 C 0.57306 0.59646 0.51648 0.0
C1395 C 0.55789 0.60896 0.53985 0.0
H1396 H 0.58762 0.58312 0.42383 0.0
H1397 H 0.45121 0.71052 0.69036 0.0
H1398 H 0.80086 0.47731 0.3681 0.0
H1399 H 0.8322 0.47922 0.43418 0.0
H1400 H 0.81781 0.53814 0.50624 0.0
H1401 H 0.78618 0.53612 0.44044 0.0
H1402 H 0.85463 0.53679 0.4481 0.0
H1403 H 0.82022 0.50266 0.63221 0.0
H1404 H 0.79859 0.47758 0.68736 0.0
H1405 H 0.83853 0.43188 0.61927 0.0
H1406 H 0.86031 0.45671 0.56276 0.0
H1407 H 0.93685 0.50611 0.73379 0.0
H1408 H 0.90248 0.50698 0.69437 0.0
H1409 H 0.92122 0.51572 0.47126 0.0
H1410 H 0.95567 0.51529 0.51041 0.0
H1411 H 0.88031 0.48633 0.61894 0.0
H1412 H 0.88743 0.53945 0.37052 0.0
H1413 H 0.90734 0.56815 0.33297 0.0
H1414 H 0.9191 0.58201 0.55843 0.0
H1415 H 0.89906 0.55356 0.59735 0.0
C1416 C 0.80415 0.49047 0.39968 0.0
C1417 C 0.79095 0.50648 0.39976 0.0
C1418 C 0.82212 0.49158 0.43736 0.0
C1419 C 0.8275 0.50883 0.47545 0.0
C1420 C 0.81406 0.52466 0.47737 0.0
C1421 C 0.79589 0.52344 0.44043 0.0
C1422 C 0.84762 0.51058 0.50883 0.0
C1423 C 0.86023 0.52578 0.48562 0.0
C1424 C 0.8549 0.49661 0.55949 0.0
C1425 C 0.84179 0.48154 0.59253 0.0
C1426 C 0.8243 0.48725 0.62834 0.0
C1427 C 0.81204 0.47308 0.66004 0.0
C1428 C 0.81715 0.45313 0.65665 0.0
C1429 C 0.83458 0.44733 0.62173 0.0
C1430 C 0.8469 0.46145 0.58991 0.0
C1431 C 0.93374 0.5085 0.67638 0.0
C1432 C 0.94922 0.51087 0.62556 0.0
C1433 C 0.91396 0.50894 0.65385 0.0
C1434 C 0.90897 0.51187 0.57999 0.0
C1435 C 0.92443 0.51401 0.52895 0.0
C1436 C 0.94424 0.51366 0.55145 0.0
C1437 C 0.88768 0.51225 0.55655 0.0
C1438 C 0.87481 0.49741 0.58156 0.0
C1439 C 0.87997 0.527 0.50964 0.0
C1440 C 0.8919 0.54425 0.48676 0.0
C1441 C 0.8942 0.54867 0.41207 0.0
C1442 C 0.90552 0.56489 0.39056 0.0
C1443 C 0.91453 0.57686 0.44327 0.0
C1444 C 0.91218 0.57268 0.51764 0.0
C1445 C 0.90086 0.5565 0.53945 0.0
H1446 H 0.9233 0.5894 0.42649 0.0
H1447 H 0.80762 0.44218 0.68116 0.0
loop_
_geom_bond_atom_site_label_1
_geom_bond_atom_site_label_2
_geom_bond_distance
_geom_bond_site_symmetry_2
_ccdc_geom_bond_type
H0 C3 0.929 . S
H1 C6 0.929 . S
H2 C8 0.930 . S
C3 H0 0.929 . S
C3 C4 1.398 . S
C3 C5 1.396 . S
C4 C3 1.398 . S
C4 C8 1.407 . S
C5 C3 1.396 . S
C5 C6 1.394 . S
C6 H1 0.929 . S
C6 C5 1.394 . S
C6 C7 1.382 . S
C7 C6 1.382 . S
C7 C8 1.392 . S
C7 N9 1.420 . S
C8 H2 0.930 . S
C8 C4 1.407 . S
C8 C7 1.392 . S
N9 C7 1.420 . S
N9 C10 1.244 . S
C10 N9 1.244 . S
H11 C14 0.929 . S
H12 C17 0.929 . S
H13 C19 0.930 . S
C14 H11 0.929 . S
C14 C15 1.396 1_655 S
C14 C16 1.395 1_655 S
C15 C14 1.396 1_455 S
C15 C19 1.413 . S
C16 C14 1.395 1_455 S
C16 C17 1.396 . S
C17 H12 0.929 . S
C17 C16 1.396 . S
C17 C18 1.382 . S
C18 C17 1.382 . S
C18 C19 1.392 . S
C18 N20 1.420 . S
C19 H13 0.930 . S
C19 C15 1.413 . S
C19 C18 1.392 . S
N20 C18 1.420 . S
N20 C21 1.232 1_455 S
C21 N20 1.232 1_655 S
H22 C25 0.929 . S
H23 C28 0.929 . S
H24 C30 0.930 . S
C25 H22 0.929 . S
C25 C26 1.395 1_565 S
C25 C27 1.395 1_565 S
C26 C25 1.395 1_545 S
C26 C30 1.413 . S
C27 C25 1.395 1_545 S
C27 C28 1.396 . S
C28 H23 0.929 . S
C28 C27 1.396 . S
C28 C29 1.382 . S
C29 C28 1.382 . S
C29 C30 1.392 . S
C29 N31 1.420 . S
C30 H24 0.930 . S
C30 C26 1.413 . S
C30 C29 1.392 . S
N31 C29 1.420 . S
N31 C32 1.232 1_545 S
C32 N31 1.232 1_565 S
H33 C36 0.929 . S
H34 C39 0.929 . S
H35 C41 0.930 . S
C36 H33 0.929 . S
C36 C37 1.398 . S
C36 C38 1.396 . S
C37 C36 1.398 . S
C37 C41 1.407 . S
C38 C36 1.396 . S
C38 C39 1.394 . S
C39 H34 0.929 . S
C39 C38 1.394 . S
C39 C40 1.382 . S
C40 C39 1.382 . S
C40 C41 1.392 . S
C40 N42 1.420 . S
C41 H35 0.930 . S
C41 C37 1.407 . S
C41 C40 1.392 . S
N42 C40 1.420 . S
N42 C43 1.244 . S
C43 N42 1.244 . S
H44 C47 0.929 . S
H45 C50 0.929 . S
H46 C52 0.930 . S
C47 H44 0.929 . S
C47 C48 1.398 1_554 S
C47 C49 1.396 . S
C48 C47 1.398 1_556 S
C48 C52 1.407 . S
C49 C47 1.396 . S
C49 C50 1.394 . S
C50 H45 0.929 . S
C50 C49 1.394 . S
C50 C51 1.382 . S
C51 C50 1.382 . S
C51 C52 1.392 1_554 S
C51 N53 1.420 . S
C52 H46 0.930 . S
C52 C48 1.407 . S
C52 C51 1.392 1_556 S
N53 C51 1.420 . S
N53 C54 1.244 . S
C54 N53 1.244 . S
H55 C58 0.929 . S
H56 C61 0.929 . S
H57 C63 0.930 . S
C58 H55 0.929 . S
C58 C59 1.394 1_654 S
C58 C60 1.394 1_655 S
C59 C58 1.394 1_456 S
C59 C63 1.416 . S
C60 C58 1.394 1_455 S
C60 C61 1.398 . S
C61 H56 0.929 . S
C61 C60 1.398 . S
C61 C62 1.382 . S
C62 C61 1.382 . S
C62 C63 1.392 1_554 S
C62 N64 1.420 . S
C63 H57 0.930 . S
C63 C59 1.416 . S
C63 C62 1.392 1_556 S
N64 C62 1.420 . S
N64 C65 1.238 1_455 S
C65 N64 1.238 1_655 S
H66 C69 0.929 . S
H67 C72 0.929 . S
H68 C74 0.930 . S
C69 H66 0.929 . S
C69 C70 1.394 1_564 S
C69 C71 1.394 1_565 S
C70 C69 1.394 1_546 S
C70 C74 1.416 . S
C71 C69 1.394 1_545 S
C71 C72 1.398 . S
C72 H67 0.929 . S
C72 C71 1.398 . S
C72 C73 1.382 . S
C73 C72 1.382 . S
C73 C74 1.392 1_554 S
C73 N75 1.420 . S
C74 H68 0.930 . S
C74 C70 1.416 . S
C74 C73 1.392 1_556 S
N75 C73 1.420 . S
N75 C76 1.238 1_545 S
C76 N75 1.238 1_565 S
H77 C80 0.929 . S
H78 C83 0.929 . S
H79 C85 0.930 . S
C80 H77 0.929 . S
C80 C81 1.398 1_554 S
C80 C82 1.396 . S
C81 C80 1.398 1_556 S
C81 C85 1.407 . S
C82 C80 1.396 . S
C82 C83 1.394 . S
C83 H78 0.929 . S
C83 C82 1.394 . S
C83 C84 1.382 . S
C84 C83 1.382 . S
C84 C85 1.392 1_554 S
C84 N86 1.420 . S
C85 H79 0.930 . S
C85 C81 1.407 . S
C85 C84 1.392 1_556 S
N86 C84 1.420 . S
N86 C87 1.244 . S
C87 N86 1.244 . S
C88 Eu89 2.835 . S
C88 C90 1.500 . S
C88 O108 1.259 . S
C88 O109 1.260 . S
Eu89 C88 2.835 . S
Eu89 O108 2.473 . S
Eu89 O109 2.480 . S
Eu89 O110 2.430 . S
Eu89 O111 2.670 1_545 S
Eu89 O112 2.394 . S
Eu89 O117 2.355 1_655 S
Eu89 O119 2.374 1_545 S
C90 C88 1.500 . S
C90 C91 1.377 . S
C90 C95 1.420 . S
C91 C90 1.377 . S
C91 C92 1.395 . S
C91 H120 0.931 . S
C92 C91 1.395 . S
C92 C93 1.383 . S
C92 H121 0.931 . S
C93 C92 1.383 . S
C93 C94 1.394 . S
C94 C93 1.394 . S
C94 C95 1.382 . S
C94 H122 0.931 1_655 S
C95 C90 1.420 . S
C95 C94 1.382 . S
C95 H123 0.885 1_655 S
C96 O110 1.282 . S
C96 O111 1.254 1_545 S
C97 O112 1.251 1_455 S
C97 O113 1.251 . S
C98 Eu99 2.835 . S
C98 C100 1.500 . S
C98 O114 1.271 . S
C98 O115 1.260 . S
Eu99 C98 2.835 . S
Eu99 O111 2.355 1_455 S
Eu99 O113 2.374 1_565 S
Eu99 O114 2.479 . S
Eu99 O115 2.480 . S
Eu99 O116 2.430 . S
Eu99 O117 2.670 1_565 S
Eu99 O118 2.394 . S
C100 C98 1.500 . S
C100 C101 1.377 . S
C100 C105 1.377 . S
C101 C100 1.377 . S
C101 C102 1.395 . S
C101 H124 0.931 . S
C102 C101 1.395 . S
C102 C103 1.383 . S
C102 H125 0.931 . S
C103 C102 1.383 . S
C103 C104 1.394 . S
C104 C103 1.394 . S
C104 C105 1.378 . S
C104 H126 0.931 1_455 S
C105 C100 1.377 . S
C105 C104 1.378 . S
C105 H127 0.931 1_455 S
C106 O116 1.275 . S
C106 O117 1.259 1_565 S
C107 O118 1.251 1_655 S
C107 O119 1.251 . S
O108 C88 1.259 . S
O108 Eu89 2.473 . S
O109 C88 1.260 . S
O109 Eu89 2.480 . S
O110 Eu89 2.430 . S
O110 C96 1.282 . S
O111 Eu89 2.670 1_565 S
O111 C96 1.254 1_565 S
O111 Eu99 2.355 1_655 S
O112 Eu89 2.394 . S
O112 C97 1.251 1_655 S
O113 C97 1.251 . S
O113 Eu99 2.374 1_545 S
O114 C98 1.271 . S
O114 Eu99 2.479 . S
O115 C98 1.260 . S
O115 Eu99 2.480 . S
O116 Eu99 2.430 . S
O116 C106 1.275 . S
O117 Eu89 2.355 1_455 S
O117 Eu99 2.670 1_545 S
O117 C106 1.259 1_545 S
O118 Eu99 2.394 . S
O118 C107 1.251 1_455 S
O119 Eu89 2.374 1_565 S
O119 C107 1.251 . S
H120 C91 0.931 . S
H121 C92 0.931 . S
H122 C94 0.931 1_455 S
H123 C95 0.885 1_455 S
H124 C101 0.931 . S
H125 C102 0.931 . S
H126 C104 0.931 1_655 S
H127 C105 0.931 1_655 S
C128 Eu129 2.835 . S
C128 C130 1.500 . S
C128 O148 1.255 . S
C128 O149 1.260 . S
Eu129 C128 2.835 . S
Eu129 O148 2.472 . S
Eu129 O149 2.480 . S
Eu129 O150 2.430 . S
Eu129 O151 2.670 . S
Eu129 O152 2.394 . S
Eu129 O157 2.355 1_565 S
Eu129 O159 2.374 . S
C130 C128 1.500 . S
C130 C131 1.377 . S
C130 C135 1.414 . S
C131 C130 1.377 . S
C131 C132 1.395 . S
C131 H160 0.931 . S
C132 C131 1.395 . S
C132 C133 1.383 . S
C132 H161 0.931 . S
C133 C132 1.383 . S
C133 C134 1.394 . S
C134 C133 1.394 . S
C134 C135 1.381 . S
C134 H162 0.931 1_565 S
C135 C130 1.414 . S
C135 C134 1.381 . S
C135 H163 0.892 1_565 S
C136 O150 1.259 . S
C136 O151 1.270 . S
C137 O152 1.251 1_545 S
C137 O153 1.251 . S
C138 Eu139 2.835 . S
C138 C140 1.500 . S
C138 O154 1.267 . S
C138 O155 1.260 . S
Eu139 C138 2.835 . S
Eu139 O151 2.355 1_545 S
Eu139 O153 2.374 . S
Eu139 O154 2.477 . S
Eu139 O155 2.480 . S
Eu139 O156 2.430 . S
Eu139 O157 2.670 . S
Eu139 O158 2.394 . S
C140 C138 1.500 . S
C140 C141 1.377 . S
C140 C145 1.425 . S
C141 C140 1.377 . S
C141 C142 1.395 . S
C141 H164 0.931 . S
C142 C141 1.395 . S
C142 C143 1.383 . S
C142 H165 0.931 . S
C143 C142 1.383 . S
C143 C144 1.394 . S
C144 C143 1.394 . S
C144 C145 1.383 . S
C144 H166 0.931 1_545 S
C145 C140 1.425 . S
C145 C144 1.383 . S
C145 H167 0.880 1_545 S
C146 O156 1.259 . S
C146 O157 1.270 . S
C147 O158 1.251 1_565 S
C147 O159 1.251 . S
O148 C128 1.255 . S
O148 Eu129 2.472 . S
O149 C128 1.260 . S
O149 Eu129 2.480 . S
O150 Eu129 2.430 . S
O150 C136 1.259 . S
O151 Eu129 2.670 . S
O151 C136 1.270 . S
O151 Eu139 2.355 1_565 S
O152 Eu129 2.394 . S
O152 C137 1.251 1_565 S
O153 C137 1.251 . S
O153 Eu139 2.374 . S
O154 C138 1.267 . S
O154 Eu139 2.477 . S
O155 C138 1.260 . S
O155 Eu139 2.480 . S
O156 Eu139 2.430 . S
O156 C146 1.259 . S
O157 Eu129 2.355 1_545 S
O157 Eu139 2.670 . S
O157 C146 1.270 . S
O158 Eu139 2.394 . S
O158 C147 1.251 1_545 S
O159 Eu129 2.374 . S
O159 C147 1.251 . S
H160 C131 0.931 . S
H161 C132 0.931 . S
H162 C134 0.931 1_545 S
H163 C135 0.892 1_545 S
H164 C141 0.931 . S
H165 C142 0.931 . S
H166 C144 0.931 1_565 S
H167 C145 0.880 1_565 S
C168 Eu169 2.835 . S
C168 C170 1.500 . S
C168 O188 1.257 . S
C168 O189 1.260 . S
Eu169 C168 2.835 . S
Eu169 O188 2.473 . S
Eu169 O189 2.480 . S
Eu169 O190 2.430 . S
Eu169 O191 2.670 . S
Eu169 O192 2.394 . S
Eu169 O197 2.355 . S
Eu169 O199 2.374 . S
C170 C168 1.500 . S
C170 C171 1.377 . S
C170 C175 1.377 . S
C171 C170 1.377 . S
C171 C172 1.395 . S
C171 H200 0.931 . S
C172 C171 1.395 . S
C172 C173 1.383 . S
C172 H201 0.931 . S
C173 C172 1.383 . S
C173 C174 1.394 . S
C174 C173 1.394 . S
C174 C175 1.378 . S
C174 H202 0.931 . S
C175 C170 1.377 . S
C175 C174 1.378 . S
C175 H203 0.931 . S
C176 O190 1.259 . S
C176 O191 1.270 . S
C177 O192 1.251 . S
C177 O193 1.251 . S
C178 Eu179 2.835 . S
C178 C180 1.500 . S
C178 O194 1.257 . S
C178 O195 1.260 . S
Eu179 C178 2.835 . S
Eu179 O191 2.355 . S
Eu179 O193 2.374 . S
Eu179 O194 2.473 . S
Eu179 O195 2.480 . S
Eu179 O196 2.430 . S
Eu179 O197 2.670 . S
Eu179 O198 2.394 . S
C180 C178 1.500 . S
C180 C181 1.377 . S
C180 C185 1.377 . S
C181 C180 1.377 . S
C181 C182 1.395 . S
C181 H204 0.931 . S
C182 C181 1.395 . S
C182 C183 1.383 . S
C182 H205 0.931 . S
C183 C182 1.383 . S
C183 C184 1.394 . S
C184 C183 1.394 . S
C184 C185 1.378 . S
C184 H206 0.931 . S
C185 C180 1.377 . S
C185 C184 1.378 . S
C185 H207 0.931 . S
C186 O196 1.259 . S
C186 O197 1.270 . S
C187 O198 1.251 . S
C187 O199 1.251 . S
O188 C168 1.257 . S
O188 Eu169 2.473 . S
O189 C168 1.260 . S
O189 Eu169 2.480 . S
O190 Eu169 2.430 . S
O190 C176 1.259 . S
O191 Eu169 2.670 . S
O191 C176 1.270 . S
O191 Eu179 2.355 . S
O192 Eu169 2.394 . S
O192 C177 1.251 . S
O193 C177 1.251 . S
O193 Eu179 2.374 . S
O194 C178 1.257 . S
O194 Eu179 2.473 . S
O195 C178 1.260 . S
O195 Eu179 2.480 . S
O196 Eu179 2.430 . S
O196 C186 1.259 . S
O197 Eu169 2.355 . S
O197 Eu179 2.670 . S
O197 C186 1.270 . S
O198 Eu179 2.394 . S
O198 C187 1.251 . S
O199 Eu169 2.374 . S
O199 C187 1.251 . S
H200 C171 0.931 . S
H201 C172 0.931 . S
H202 C174 0.931 . S
H203 C175 0.931 . S
H204 C181 0.931 . S
H205 C182 0.931 . S
H206 C184 0.931 . S
H207 C185 0.931 . S
C208 Eu209 2.835 . S
C208 C210 1.500 . S
C208 O228 1.257 . S
C208 O229 1.260 . S
Eu209 C208 2.835 . S
Eu209 O228 2.473 . S
Eu209 O229 2.480 . S
Eu209 O230 2.430 . S
Eu209 O231 2.670 1_455 S
Eu209 O232 2.394 . S
Eu209 O237 2.355 . S
Eu209 O239 2.374 1_455 S
C210 C208 1.500 . S
C210 C211 1.377 . S
C210 C215 1.377 . S
C211 C210 1.377 . S
C211 C212 1.395 . S
C211 H240 0.931 . S
C212 C211 1.395 . S
C212 C213 1.383 . S
C212 H241 0.931 . S
C213 C212 1.383 . S
C213 C214 1.394 . S
C214 C213 1.394 . S
C214 C215 1.378 . S
C214 H242 0.931 . S
C215 C210 1.377 . S
C215 C214 1.378 . S
C215 H243 0.931 . S
C216 O230 1.277 . S
C216 O231 1.257 1_455 S
C217 O232 1.251 . S
C217 O233 1.251 . S
C218 Eu219 2.835 . S
C218 C220 1.500 . S
C218 O234 1.257 . S
C218 O235 1.260 . S
Eu219 C218 2.835 . S
Eu219 O231 2.355 . S
Eu219 O233 2.374 1_655 S
Eu219 O234 2.473 . S
Eu219 O235 2.480 . S
Eu219 O236 2.430 . S
Eu219 O237 2.670 1_655 S
Eu219 O238 2.394 . S
C220 C218 1.500 . S
C220 C221 1.377 . S
C220 C225 1.377 . S
C221 C220 1.377 . S
C221 C222 1.395 . S
C221 H244 0.931 . S
C222 C221 1.395 . S
C222 C223 1.383 . S
C222 H245 0.931 . S
C223 C222 1.383 . S
C223 C224 1.394 . S
C224 C223 1.394 . S
C224 C225 1.378 . S
C224 H246 0.931 . S
C225 C220 1.377 . S
C225 C224 1.378 . S
C225 H247 0.931 . S
C226 O236 1.270 . S
C226 O237 1.262 1_655 S
C227 O238 1.251 . S
C227 O239 1.251 . S
O228 C208 1.257 . S
O228 Eu209 2.473 . S
O229 C208 1.260 . S
O229 Eu209 2.480 . S
O230 Eu209 2.430 . S
O230 C216 1.277 . S
O231 Eu209 2.670 1_655 S
O231 C216 1.257 1_655 S
O231 Eu219 2.355 . S
O232 Eu209 2.394 . S
O232 C217 1.251 . S
O233 C217 1.251 . S
O233 Eu219 2.374 1_455 S
O234 C218 1.257 . S
O234 Eu219 2.473 . S
O235 C218 1.260 . S
O235 Eu219 2.480 . S
O236 Eu219 2.430 . S
O236 C226 1.270 . S
O237 Eu209 2.355 . S
O237 Eu219 2.670 1_455 S
O237 C226 1.262 1_455 S
O238 Eu219 2.394 . S
O238 C227 1.251 . S
O239 Eu209 2.374 1_655 S
O239 C227 1.251 . S
H240 C211 0.931 . S
H241 C212 0.931 . S
H242 C214 0.931 . S
H243 C215 0.931 . S
H244 C221 0.931 . S
H245 C222 0.931 . S
H246 C224 0.931 . S
H247 C225 0.931 . S
H248 C266 0.951 . S
H249 C268 0.951 . S
H250 C270 0.950 . S
H251 C271 0.950 . S
H252 C273 0.950 . S
H253 C276 0.950 . S
H254 C277 0.950 . S
H255 C279 0.950 . S
H256 C280 0.950 . S
H257 C281 0.951 . S
H258 C283 0.951 . S
H259 C285 0.950 . S
H260 C286 0.950 . S
H261 C288 0.950 . S
H262 C291 0.950 . S
H263 C292 0.950 . S
H264 C294 0.950 . S
H265 C295 0.950 . S
C266 H248 0.951 . S
C266 C267 1.366 . S
C266 C268 1.388 . S
C267 C266 1.366 . S
C267 C271 1.384 1_545 S
C268 H249 0.951 . S
C268 C266 1.388 . S
C268 C269 1.366 . S
C269 C268 1.366 . S
C269 C270 1.414 1_545 S
C269 C272 1.499 . S
C270 H250 0.950 . S
C270 C269 1.414 1_565 S
C270 C271 1.374 . S
C271 H251 0.950 . S
C271 C267 1.384 1_565 S
C271 C270 1.374 . S
C272 C269 1.499 . S
C272 C273 1.373 1_545 S
C272 C274 1.389 . S
C273 H252 0.950 . S
C273 C272 1.373 1_565 S
C273 C289 1.377 . S
C274 C272 1.389 . S
C274 C275 1.524 . S
C274 C288 1.377 . S
C275 C274 1.524 . S
C275 C276 1.397 . S
C275 C280 1.363 . S
C276 H253 0.950 . S
C276 C275 1.397 . S
C276 C277 1.334 . S
C277 H254 0.950 . S
C277 C276 1.334 . S
C277 C278 1.287 . S
C278 C277 1.287 . S
C278 C279 1.524 . S
C278 H297 0.913 . S
C279 H255 0.950 . S
C279 C278 1.524 . S
C279 C280 1.415 . S
C280 H256 0.950 . S
C280 C275 1.363 . S
C280 C279 1.415 . S
C281 H257 0.951 . S
C281 C282 1.362 1_565 S
C281 C283 1.388 . S
C282 C281 1.362 1_545 S
C282 C286 1.388 . S
C283 H258 0.951 . S
C283 C281 1.388 . S
C283 C284 1.368 . S
C284 C283 1.368 . S
C284 C285 1.410 1_565 S
C284 C287 1.499 . S
C285 H259 0.950 . S
C285 C284 1.410 1_545 S
C285 C286 1.374 . S
C286 H260 0.950 . S
C286 C282 1.388 . S
C286 C285 1.374 . S
C287 C284 1.499 . S
C287 C288 1.348 1_565 S
C287 C289 1.413 . S
C288 H261 0.950 . S
C288 C274 1.377 . S
C288 C287 1.348 1_545 S
C289 C273 1.377 . S
C289 C287 1.413 . S
C289 C290 1.524 . S
C290 C289 1.524 . S
C290 C291 1.397 . S
C290 C295 1.363 . S
C291 H262 0.950 . S
C291 C290 1.397 . S
C291 C292 1.334 . S
C292 H263 0.950 . S
C292 C291 1.334 . S
C292 C293 1.287 . S
C293 C292 1.287 . S
C293 C294 1.524 . S
C293 H296 0.999 . S
C294 H264 0.950 . S
C294 C293 1.524 . S
C294 C295 1.415 . S
C295 H265 0.950 . S
C295 C290 1.363 . S
C295 C294 1.415 . S
H296 C293 0.999 . S
H297 C278 0.913 . S
H298 C316 0.951 . S
H299 C318 0.951 . S
H300 C320 0.950 . S
H301 C321 0.950 . S
H302 C323 0.950 . S
H303 C326 0.950 . S
H304 C327 0.950 . S
H305 C329 0.950 . S
H306 C330 0.950 . S
H307 C331 0.951 . S
H308 C333 0.951 . S
H309 C335 0.950 . S
H310 C336 0.950 . S
H311 C338 0.950 . S
H312 C341 0.950 . S
H313 C342 0.950 . S
H314 C344 0.950 . S
H315 C345 0.950 . S
C316 H298 0.951 . S
C316 C317 1.366 . S
C316 C318 1.388 . S
C317 C316 1.366 . S
C317 C321 1.385 . S
C318 H299 0.951 . S
C318 C316 1.388 . S
C318 C319 1.366 . S
C319 C318 1.366 . S
C319 C320 1.414 . S
C319 C322 1.499 . S
C320 H300 0.950 . S
C320 C319 1.414 . S
C320 C321 1.374 . S
C321 H301 0.950 . S
C321 C317 1.385 . S
C321 C320 1.374 . S
C322 C319 1.499 . S
C322 C323 1.373 . S
C322 C324 1.389 . S
C323 H302 0.950 . S
C323 C322 1.373 . S
C323 C339 1.377 . S
C324 C322 1.389 . S
C324 C325 1.524 . S
C324 C338 1.377 . S
C325 C324 1.524 . S
C325 C326 1.397 . S
C325 C330 1.363 . S
C326 H303 0.950 . S
C326 C325 1.397 . S
C326 C327 1.334 . S
C327 H304 0.950 . S
C327 C326 1.334 . S
C327 C328 1.287 . S
C328 C327 1.287 . S
C328 C329 1.524 . S
C328 H347 0.913 . S
C329 H305 0.950 . S
C329 C328 1.524 . S
C329 C330 1.415 . S
C330 H306 0.950 . S
C330 C325 1.363 . S
C330 C329 1.415 . S
C331 H307 0.951 . S
C331 C332 1.366 . S
C331 C333 1.388 . S
C332 C331 1.366 . S
C332 C336 1.385 . S
C333 H308 0.951 . S
C333 C331 1.388 . S
C333 C334 1.366 . S
C334 C333 1.366 . S
C334 C335 1.414 . S
C334 C337 1.499 . S
C335 H309 0.950 . S
C335 C334 1.414 . S
C335 C336 1.374 . S
C336 H310 0.950 . S
C336 C332 1.385 . S
C336 C335 1.374 . S
C337 C334 1.499 . S
C337 C338 1.373 . S
C337 C339 1.389 . S
C338 H311 0.950 . S
C338 C324 1.377 . S
C338 C337 1.373 . S
C339 C323 1.377 . S
C339 C337 1.389 . S
C339 C340 1.524 . S
C340 C339 1.524 . S
C340 C341 1.397 . S
C340 C345 1.363 . S
C341 H312 0.950 . S
C341 C340 1.397 . S
C341 C342 1.334 . S
C342 H313 0.950 . S
C342 C341 1.334 . S
C342 C343 1.287 . S
C343 C342 1.287 . S
C343 C344 1.524 . S
C343 H346 0.999 . S
C344 H314 0.950 . S
C344 C343 1.524 . S
C344 C345 1.415 . S
C345 H315 0.950 . S
C345 C340 1.363 . S
C345 C344 1.415 . S
H346 C343 0.999 . S
H347 C328 0.913 . S
H348 C366 0.951 . S
H349 C368 0.951 . S
H350 C370 0.950 . S
H351 C371 0.950 . S
H352 C373 0.950 . S
H353 C376 0.950 . S
H354 C377 0.950 . S
H355 C379 0.950 . S
H356 C380 0.950 . S
H357 C381 0.951 . S
H358 C383 0.951 . S
H359 C385 0.950 . S
H360 C386 0.950 . S
H361 C388 0.950 . S
H362 C391 0.950 . S
H363 C392 0.950 . S
H364 C394 0.950 . S
H365 C395 0.950 . S
C366 H348 0.951 . S
C366 C367 1.366 . S
C366 C368 1.388 . S
C367 C366 1.366 . S
C367 C371 1.385 . S
C368 H349 0.951 . S
C368 C366 1.388 . S
C368 C369 1.366 . S
C369 C368 1.366 . S
C369 C370 1.414 . S
C369 C372 1.499 . S
C370 H350 0.950 . S
C370 C369 1.414 . S
C370 C371 1.374 . S
C371 H351 0.950 . S
C371 C367 1.385 . S
C371 C370 1.374 . S
C372 C369 1.499 . S
C372 C373 1.373 . S
C372 C374 1.389 . S
C373 H352 0.950 . S
C373 C372 1.373 . S
C373 C389 1.377 . S
C374 C372 1.389 . S
C374 C375 1.524 . S
C374 C388 1.377 . S
C375 C374 1.524 . S
C375 C376 1.397 . S
C375 C380 1.363 . S
C376 H353 0.950 . S
C376 C375 1.397 . S
C376 C377 1.334 . S
C377 H354 0.950 . S
C377 C376 1.334 . S
C377 C378 1.287 . S
C378 C377 1.287 . S
C378 C379 1.524 . S
C378 H397 0.913 . S
C379 H355 0.950 . S
C379 C378 1.524 . S
C379 C380 1.415 . S
C380 H356 0.950 . S
C380 C375 1.363 . S
C380 C379 1.415 . S
C381 H357 0.951 . S
C381 C382 1.366 . S
C381 C383 1.388 . S
C382 C381 1.366 . S
C382 C386 1.385 . S
C383 H358 0.951 . S
C383 C381 1.388 . S
C383 C384 1.366 . S
C384 C383 1.366 . S
C384 C385 1.414 . S
C384 C387 1.499 . S
C385 H359 0.950 . S
C385 C384 1.414 . S
C385 C386 1.374 . S
C386 H360 0.950 . S
C386 C382 1.385 . S
C386 C385 1.374 . S
C387 C384 1.499 . S
C387 C388 1.373 . S
C387 C389 1.389 . S
C388 H361 0.950 . S
C388 C374 1.377 . S
C388 C387 1.373 . S
C389 C373 1.377 . S
C389 C387 1.389 . S
C389 C390 1.524 . S
C390 C389 1.524 . S
C390 C391 1.397 . S
C390 C395 1.363 . S
C391 H362 0.950 . S
C391 C390 1.397 . S
C391 C392 1.334 . S
C392 H363 0.950 . S
C392 C391 1.334 . S
C392 C393 1.287 . S
C393 C392 1.287 . S
C393 C394 1.524 . S
C393 H396 0.999 . S
C394 H364 0.950 . S
C394 C393 1.524 . S
C394 C395 1.415 . S
C395 H365 0.950 . S
C395 C390 1.363 . S
C395 C394 1.415 . S
H396 C393 0.999 . S
H397 C378 0.913 . S
H398 C416 0.951 . S
H399 C418 0.951 . S
H400 C420 0.950 . S
H401 C421 0.950 . S
H402 C423 0.950 . S
H403 C426 0.950 . S
H404 C427 0.950 . S
H405 C429 0.950 . S
H406 C430 0.950 . S
H407 C431 0.951 . S
H408 C433 0.951 . S
H409 C435 0.950 . S
H410 C436 0.950 . S
H411 C438 0.950 . S
H412 C441 0.950 . S
H413 C442 0.950 . S
H414 C444 0.950 . S
H415 C445 0.950 . S
C416 H398 0.951 . S
C416 C417 1.365 1_655 S
C416 C418 1.388 . S
C417 C416 1.365 1_455 S
C417 C421 1.385 . S
C418 H399 0.951 . S
C418 C416 1.388 . S
C418 C419 1.371 . S
C419 C418 1.371 . S
C419 C420 1.408 1_655 S
C419 C422 1.499 . S
C420 H400 0.950 . S
C420 C419 1.408 1_455 S
C420 C421 1.374 . S
C421 H401 0.950 . S
C421 C417 1.385 . S
C421 C420 1.374 . S
C422 C419 1.499 . S
C422 C423 1.345 1_655 S
C422 C424 1.416 . S
C423 H402 0.950 . S
C423 C422 1.345 1_455 S
C423 C439 1.377 . S
C424 C422 1.416 . S
C424 C425 1.524 . S
C424 C438 1.377 . S
C425 C424 1.524 . S
C425 C426 1.397 . S
C425 C430 1.363 . S
C426 H403 0.950 . S
C426 C425 1.397 . S
C426 C427 1.334 . S
C427 H404 0.950 . S
C427 C426 1.334 . S
C427 C428 1.287 . S
C428 C427 1.287 . S
C428 C429 1.524 . S
C428 H447 0.913 . S
C429 H405 0.950 . S
C429 C428 1.524 . S
C429 C430 1.415 . S
C430 H406 0.950 . S
C430 C425 1.363 . S
C430 C429 1.415 . S
C431 H407 0.951 . S
C431 C432 1.372 . S
C431 C433 1.388 . S
C432 C431 1.372 . S
C432 C436 1.380 1_455 S
C433 H408 0.951 . S
C433 C431 1.388 . S
C433 C434 1.366 . S
C434 C433 1.366 . S
C434 C435 1.414 1_455 S
C434 C437 1.499 . S
C435 H409 0.950 . S
C435 C434 1.414 1_655 S
C435 C436 1.374 . S
C436 H410 0.950 . S
C436 C432 1.380 1_655 S
C436 C435 1.374 . S
C437 C434 1.499 . S
C437 C438 1.373 1_455 S
C437 C439 1.389 . S
C438 H411 0.950 . S
C438 C424 1.377 . S
C438 C437 1.373 1_655 S
C439 C423 1.377 . S
C439 C437 1.389 . S
C439 C440 1.524 . S
C440 C439 1.524 . S
C440 C441 1.397 . S
C440 C445 1.363 . S
C441 H412 0.950 . S
C441 C440 1.397 . S
C441 C442 1.334 . S
C442 H413 0.950 . S
C442 C441 1.334 . S
C442 C443 1.287 . S
C443 C442 1.287 . S
C443 C444 1.524 . S
C443 H446 0.999 . S
C444 H414 0.950 . S
C444 C443 1.524 . S
C444 C445 1.415 . S
C445 H415 0.950 . S
C445 C440 1.363 . S
C445 C444 1.415 . S
H446 C443 0.999 . S
H447 C428 0.913 . S
H448 C466 0.951 . S
H449 C468 0.951 . S
H450 C470 0.950 . S
H451 C471 0.950 . S
H452 C473 0.950 . S
H453 C476 0.950 1_565 S
H454 C477 0.950 . S
H455 C479 0.950 . S
H456 C480 0.950 . S
H457 C481 0.951 . S
H458 C483 0.951 . S
H459 C485 0.950 . S
H460 C486 0.950 . S
H461 C488 0.950 . S
H462 C491 0.950 1_545 S
H463 C492 0.950 . S
H464 C494 0.950 . S
H465 C495 0.950 . S
C466 H448 0.951 . S
C466 C467 1.362 . S
C466 C468 1.388 . S
C467 C466 1.362 . S
C467 C471 1.388 1_545 S
C468 H449 0.951 . S
C468 C466 1.388 . S
C468 C469 1.360 1_545 S
C469 C468 1.360 1_565 S
C469 C470 1.420 . S
C469 C472 1.498 . S
C470 H450 0.950 . S
C470 C469 1.420 . S
C470 C471 1.374 . S
C471 H451 0.950 . S
C471 C467 1.388 1_565 S
C471 C470 1.374 . S
C472 C469 1.498 . S
C472 C473 1.400 . S
C472 C474 1.363 1_565 S
C473 H452 0.950 . S
C473 C472 1.400 . S
C473 C489 1.377 . S
C474 C472 1.363 1_545 S
C474 C475 1.524 . S
C474 C488 1.377 1_554 S
C475 C474 1.524 . S
C475 C476 1.397 . S
C475 C480 1.363 1_554 S
C476 H453 0.950 1_545 S
C476 C475 1.397 . S
C476 C477 1.334 1_554 S
C477 H454 0.950 . S
C477 C476 1.334 1_556 S
C477 C478 1.287 . S
C478 C477 1.287 . S
C478 C479 1.524 . S
C478 H497 0.913 . S
C479 H455 0.950 . S
C479 C478 1.524 . S
C479 C480 1.415 . S
C480 H456 0.950 . S
C480 C475 1.363 1_556 S
C480 C479 1.415 . S
C481 H457 0.951 . S
C481 C482 1.383 . S
C481 C483 1.388 . S
C482 C481 1.383 . S
C482 C486 1.367 1_565 S
C483 H458 0.951 . S
C483 C481 1.388 . S
C483 C484 1.369 . S
C484 C483 1.369 . S
C484 C485 1.411 1_565 S
C484 C487 1.498 1_565 S
C485 H459 0.950 . S
C485 C484 1.411 1_545 S
C485 C486 1.374 . S
C486 H460 0.950 . S
C486 C482 1.367 1_545 S
C486 C485 1.374 . S
C487 C484 1.498 1_545 S
C487 C488 1.387 . S
C487 C489 1.375 1_546 S
C488 H461 0.950 . S
C488 C474 1.377 1_556 S
C488 C487 1.387 . S
C489 C473 1.377 . S
C489 C487 1.375 1_564 S
C489 C490 1.524 . S
C490 C489 1.524 . S
C490 C491 1.397 . S
C490 C495 1.363 . S
C491 H462 0.950 1_565 S
C491 C490 1.397 . S
C491 C492 1.334 . S
C492 H463 0.950 . S
C492 C491 1.334 . S
C492 C493 1.287 . S
C493 C492 1.287 . S
C493 C494 1.524 . S
C493 H496 0.999 . S
C494 H464 0.950 . S
C494 C493 1.524 . S
C494 C495 1.415 . S
C495 H465 0.950 . S
C495 C490 1.363 . S
C495 C494 1.415 . S
H496 C493 0.999 . S
H497 C478 0.913 . S
H498 C516 0.951 . S
H499 C518 0.951 . S
H500 C520 0.950 . S
H501 C521 0.950 . S
H502 C523 0.950 . S
H503 C526 0.950 . S
H504 C527 0.950 . S
H505 C529 0.950 . S
H506 C530 0.950 . S
H507 C531 0.951 . S
H508 C533 0.951 1_554 S
H509 C535 0.950 . S
H510 C536 0.950 . S
H511 C538 0.950 . S
H512 C541 0.950 . S
H513 C542 0.950 . S
H514 C544 0.950 . S
H515 C545 0.950 . S
C516 H498 0.951 . S
C516 C517 1.366 . S
C516 C518 1.388 . S
C517 C516 1.366 . S
C517 C521 1.385 . S
C518 H499 0.951 . S
C518 C516 1.388 . S
C518 C519 1.366 . S
C519 C518 1.366 . S
C519 C520 1.414 . S
C519 C522 1.499 . S
C520 H500 0.950 . S
C520 C519 1.414 . S
C520 C521 1.374 . S
C521 H501 0.950 . S
C521 C517 1.385 . S
C521 C520 1.374 . S
C522 C519 1.499 . S
C522 C523 1.373 . S
C522 C524 1.389 . S
C523 H502 0.950 . S
C523 C522 1.373 . S
C523 C539 1.377 . S
C524 C522 1.389 . S
C524 C525 1.524 . S
C524 C538 1.377 1_554 S
C525 C524 1.524 . S
C525 C526 1.397 . S
C525 C530 1.363 1_554 S
C526 H503 0.950 . S
C526 C525 1.397 . S
C526 C527 1.334 . S
C527 H504 0.950 . S
C527 C526 1.334 . S
C527 C528 1.287 1_554 S
C528 C527 1.287 1_556 S
C528 C529 1.524 . S
C528 H547 0.913 . S
C529 H505 0.950 . S
C529 C528 1.524 . S
C529 C530 1.415 . S
C530 H506 0.950 . S
C530 C525 1.363 1_556 S
C530 C529 1.415 . S
C531 H507 0.951 . S
C531 C532 1.366 . S
C531 C533 1.388 . S
C532 C531 1.366 . S
C532 C536 1.385 . S
C533 H508 0.951 1_556 S
C533 C531 1.388 . S
C533 C534 1.366 . S
C534 C533 1.366 . S
C534 C535 1.414 . S
C534 C537 1.499 . S
C535 H509 0.950 . S
C535 C534 1.414 . S
C535 C536 1.374 . S
C536 H510 0.950 . S
C536 C532 1.385 . S
C536 C535 1.374 . S
C537 C534 1.499 . S
C537 C538 1.373 . S
C537 C539 1.389 1_556 S
C538 H511 0.950 . S
C538 C524 1.377 1_556 S
C538 C537 1.373 . S
C539 C523 1.377 . S
C539 C537 1.389 1_554 S
C539 C540 1.524 . S
C540 C539 1.524 . S
C540 C541 1.397 . S
C540 C545 1.363 . S
C541 H512 0.950 . S
C541 C540 1.397 . S
C541 C542 1.334 . S
C542 H513 0.950 . S
C542 C541 1.334 . S
C542 C543 1.287 . S
C543 C542 1.287 . S
C543 C544 1.524 . S
C543 H546 0.999 . S
C544 H514 0.950 . S
C544 C543 1.524 . S
C544 C545 1.415 . S
C545 H515 0.950 . S
C545 C540 1.363 . S
C545 C544 1.415 . S
H546 C543 0.999 . S
H547 C528 0.913 . S
H548 C566 0.951 . S
H549 C568 0.951 . S
H550 C570 0.950 . S
H551 C571 0.950 . S
H552 C573 0.950 . S
H553 C576 0.950 . S
H554 C577 0.950 . S
H555 C579 0.950 . S
H556 C580 0.950 . S
H557 C581 0.951 . S
H558 C583 0.951 . S
H559 C585 0.950 1_554 S
H560 C586 0.950 . S
H561 C588 0.950 . S
H562 C591 0.950 . S
H563 C592 0.950 . S
H564 C594 0.950 . S
H565 C595 0.950 . S
C566 H548 0.951 . S
C566 C567 1.366 . S
C566 C568 1.388 . S
C567 C566 1.366 . S
C567 C571 1.385 . S
C568 H549 0.951 . S
C568 C566 1.388 . S
C568 C569 1.366 . S
C569 C568 1.366 . S
C569 C570 1.414 . S
C569 C572 1.499 . S
C570 H550 0.950 . S
C570 C569 1.414 . S
C570 C571 1.374 . S
C571 H551 0.950 . S
C571 C567 1.385 . S
C571 C570 1.374 . S
C572 C569 1.499 . S
C572 C573 1.373 . S
C572 C574 1.389 . S
C573 H552 0.950 . S
C573 C572 1.373 . S
C573 C589 1.377 1_554 S
C574 C572 1.389 . S
C574 C575 1.524 . S
C574 C588 1.377 . S
C575 C574 1.524 . S
C575 C576 1.397 . S
C575 C580 1.363 . S
C576 H553 0.950 . S
C576 C575 1.397 . S
C576 C577 1.334 . S
C577 H554 0.950 . S
C577 C576 1.334 . S
C577 C578 1.287 . S
C578 C577 1.287 . S
C578 C579 1.524 . S
C578 H597 0.913 . S
C579 H555 0.950 . S
C579 C578 1.524 . S
C579 C580 1.415 . S
C580 H556 0.950 . S
C580 C575 1.363 . S
C580 C579 1.415 . S
C581 H557 0.951 . S
C581 C582 1.366 . S
C581 C583 1.388 . S
C582 C581 1.366 . S
C582 C586 1.385 . S
C583 H558 0.951 . S
C583 C581 1.388 . S
C583 C584 1.366 . S
C584 C583 1.366 . S
C584 C585 1.414 . S
C584 C587 1.499 . S
C585 H559 0.950 1_556 S
C585 C584 1.414 . S
C585 C586 1.374 . S
C586 H560 0.950 . S
C586 C582 1.385 . S
C586 C585 1.374 . S
C587 C584 1.499 . S
C587 C588 1.373 1_556 S
C587 C589 1.389 . S
C588 H561 0.950 . S
C588 C574 1.377 . S
C588 C587 1.373 1_554 S
C589 C573 1.377 1_556 S
C589 C587 1.389 . S
C589 C590 1.524 . S
C590 C589 1.524 . S
C590 C591 1.397 . S
C590 C595 1.363 . S
C591 H562 0.950 . S
C591 C590 1.397 . S
C591 C592 1.334 . S
C592 H563 0.950 . S
C592 C591 1.334 . S
C592 C593 1.287 . S
C593 C592 1.287 . S
C593 C594 1.524 . S
C593 H596 0.999 . S
C594 H564 0.950 . S
C594 C593 1.524 . S
C594 C595 1.415 . S
C595 H565 0.950 . S
C595 C590 1.363 . S
C595 C594 1.415 . S
H596 C593 0.999 . S
H597 C578 0.913 . S
H598 C616 0.951 . S
H599 C618 0.951 . S
H600 C620 0.950 . S
H601 C621 0.950 . S
H602 C623 0.950 . S
H603 C626 0.950 . S
H604 C627 0.950 . S
H605 C629 0.950 . S
H606 C630 0.950 . S
H607 C631 0.951 . S
H608 C633 0.951 1_554 S
H609 C635 0.950 . S
H610 C636 0.950 . S
H611 C638 0.950 . S
H612 C641 0.950 1_556 S
H613 C642 0.950 1_556 S
H614 C644 0.950 . S
H615 C645 0.950 . S
C616 H598 0.951 . S
C616 C617 1.366 1_455 S
C616 C618 1.388 . S
C617 C616 1.366 1_655 S
C617 C621 1.385 . S
C618 H599 0.951 . S
C618 C616 1.388 . S
C618 C619 1.366 1_455 S
C619 C618 1.366 1_655 S
C619 C620 1.414 . S
C619 C622 1.499 . S
C620 H600 0.950 . S
C620 C619 1.414 . S
C620 C621 1.374 . S
C621 H601 0.950 . S
C621 C617 1.385 . S
C621 C620 1.374 . S
C622 C619 1.499 . S
C622 C623 1.373 1_655 S
C622 C624 1.389 . S
C623 H602 0.950 . S
C623 C622 1.373 1_455 S
C623 C639 1.377 . S
C624 C622 1.389 . S
C624 C625 1.524 . S
C624 C638 1.377 1_554 S
C625 C624 1.524 . S
C625 C626 1.397 . S
C625 C630 1.363 1_554 S
C626 H603 0.950 . S
C626 C625 1.397 . S
C626 C627 1.334 . S
C627 H604 0.950 . S
C627 C626 1.334 . S
C627 C628 1.287 . S
C628 C627 1.287 . S
C628 C629 1.524 1_554 S
C628 H647 0.913 . S
C629 H605 0.950 . S
C629 C628 1.524 1_556 S
C629 C630 1.415 . S
C630 H606 0.950 . S
C630 C625 1.363 1_556 S
C630 C629 1.415 . S
C631 H607 0.951 . S
C631 C632 1.371 . S
C631 C633 1.388 . S
C632 C631 1.371 . S
C632 C636 1.380 1_655 S
C633 H608 0.951 1_556 S
C633 C631 1.388 . S
C633 C634 1.363 1_655 S
C634 C633 1.363 1_455 S
C634 C635 1.416 . S
C634 C637 1.499 . S
C635 H609 0.950 . S
C635 C634 1.416 . S
C635 C636 1.374 . S
C636 H610 0.950 . S
C636 C632 1.380 1_455 S
C636 C635 1.374 . S
C637 C634 1.499 . S
C637 C638 1.349 1_455 S
C637 C639 1.412 1_556 S
C638 H611 0.950 . S
C638 C624 1.377 1_556 S
C638 C637 1.349 1_655 S
C639 C623 1.377 . S
C639 C637 1.412 1_554 S
C639 C640 1.524 . S
C640 C639 1.524 . S
C640 C641 1.397 . S
C640 C645 1.363 . S
C641 H612 0.950 1_554 S
C641 C640 1.397 . S
C641 C642 1.334 . S
C642 H613 0.950 1_554 S
C642 C641 1.334 . S
C642 C643 1.287 . S
C643 C642 1.287 . S
C643 C644 1.524 . S
C643 H646 0.999 . S
C644 H614 0.950 . S
C644 C643 1.524 . S
C644 C645 1.415 . S
C645 H615 0.950 . S
C645 C640 1.363 . S
C645 C644 1.415 . S
H646 C643 0.999 . S
H647 C628 0.913 . S
H648 C666 0.951 . S
H649 C668 0.951 . S
H650 C670 0.950 . S
H651 C671 0.950 . S
H652 C673 0.950 . S
H653 C676 0.950 . S
H654 C677 0.950 1_556 S
H655 C679 0.950 1_456 S
H656 C680 0.950 1_455 S
H657 C681 0.951 . S
H658 C683 0.951 . S
H659 C685 0.950 1_455 S
H660 C686 0.963 . S
H661 C688 0.950 . S
H662 C691 0.950 . S
H663 C692 0.950 . S
H664 C694 0.950 . S
H665 C695 0.950 . S
C666 H648 0.951 . S
C666 C667 1.366 . S
C666 C668 1.388 . S
C667 C666 1.366 . S
C667 C671 1.385 1_455 S
C668 H649 0.951 . S
C668 C666 1.388 . S
C668 C669 1.366 1_455 S
C669 C668 1.366 1_655 S
C669 C670 1.414 . S
C669 C672 1.499 . S
C670 H650 0.950 . S
C670 C669 1.414 . S
C670 C671 1.374 . S
C671 H651 0.950 . S
C671 C667 1.385 1_655 S
C671 C670 1.374 . S
C672 C669 1.499 . S
C672 C673 1.373 . S
C672 C674 1.389 . S
C673 H652 0.950 . S
C673 C672 1.373 . S
C673 C689 1.377 . S
C674 C672 1.389 . S
C674 C675 1.524 . S
C674 C688 1.377 . S
C675 C674 1.524 . S
C675 C676 1.397 . S
C675 C680 1.363 . S
C676 H653 0.950 . S
C676 C675 1.397 . S
C676 C677 1.334 . S
C677 H654 0.950 1_554 S
C677 C676 1.334 . S
C677 C678 1.287 1_554 S
C678 C677 1.287 1_556 S
C678 C679 1.524 1_556 S
C678 H697 0.913 . S
C679 H655 0.950 1_654 S
C679 C678 1.524 1_554 S
C679 C680 1.415 . S
C680 H656 0.950 1_655 S
C680 C675 1.363 . S
C680 C679 1.415 . S
C681 H657 0.951 . S
C681 C682 1.366 . S
C681 C683 1.388 . S
C682 C681 1.366 . S
C682 C686 1.385 . S
C683 H658 0.951 . S
C683 C681 1.388 . S
C683 C684 1.366 . S
C684 C683 1.366 . S
C684 C685 1.414 . S
C684 C687 1.499 . S
C685 H659 0.950 1_655 S
C685 C684 1.414 . S
C685 C686 1.374 . S
C686 H660 0.963 . S
C686 C682 1.385 . S
C686 C685 1.374 . S
C687 C684 1.499 . S
C687 C688 1.373 . S
C687 C689 1.389 . S
C688 H661 0.950 . S
C688 C674 1.377 . S
C688 C687 1.373 . S
C689 C673 1.377 . S
C689 C687 1.389 . S
C689 C690 1.524 . S
C690 C689 1.524 . S
C690 C691 1.397 1_655 S
C690 C695 1.363 . S
C691 H662 0.950 . S
C691 C690 1.397 1_455 S
C691 C692 1.334 . S
C692 H663 0.950 . S
C692 C691 1.334 . S
C692 C693 1.287 1_455 S
C693 C692 1.287 1_655 S
C693 C694 1.524 . S
C693 H696 1.000 1_655 S
C694 H664 0.950 . S
C694 C693 1.524 . S
C694 C695 1.415 . S
C695 H665 0.950 . S
C695 C690 1.363 . S
C695 C694 1.415 . S
H696 C693 1.000 1_455 S
H697 C678 0.913 . S
H698 C716 0.951 . S
H699 C718 0.951 . S
H700 C720 0.950 . S
H701 C721 0.950 . S
H702 C723 0.950 . S
H703 C726 0.950 . S
H704 C727 0.950 . S
H705 C729 0.950 1_556 S
H706 C730 0.935 1_545 S
H707 C731 0.951 . S
H708 C733 0.951 . S
H709 C735 0.950 1_545 S
H710 C736 0.950 . S
H711 C738 0.950 . S
H712 C741 0.950 . S
H713 C742 0.950 . S
H714 C744 0.950 . S
H715 C745 0.950 . S
C716 H698 0.951 . S
C716 C717 1.366 . S
C716 C718 1.388 . S
C717 C716 1.366 . S
C717 C721 1.385 1_545 S
C718 H699 0.951 . S
C718 C716 1.388 . S
C718 C719 1.366 1_545 S
C719 C718 1.366 1_565 S
C719 C720 1.414 . S
C719 C722 1.499 . S
C720 H700 0.950 . S
C720 C719 1.414 . S
C720 C721 1.374 . S
C721 H701 0.950 . S
C721 C717 1.385 1_565 S
C721 C720 1.374 . S
C722 C719 1.499 . S
C722 C723 1.373 . S
C722 C724 1.389 . S
C723 H702 0.950 . S
C723 C722 1.373 . S
C723 C739 1.377 . S
C724 C722 1.389 . S
C724 C725 1.524 . S
C724 C738 1.377 . S
C725 C724 1.524 . S
C725 C726 1.397 . S
C725 C730 1.363 . S
C726 H703 0.950 . S
C726 C725 1.397 . S
C726 C727 1.334 . S
C727 H704 0.950 . S
C727 C726 1.334 . S
C727 C728 1.287 1_554 S
C728 C727 1.287 1_556 S
C728 C729 1.524 1_556 S
C728 H747 0.913 . S
C729 H705 0.950 1_554 S
C729 C728 1.524 1_554 S
C729 C730 1.415 . S
C730 H706 0.935 1_565 S
C730 C725 1.363 . S
C730 C729 1.415 . S
C731 H707 0.951 . S
C731 C732 1.366 . S
C731 C733 1.388 . S
C732 C731 1.366 . S
C732 C736 1.385 . S
C733 H708 0.951 . S
C733 C731 1.388 . S
C733 C734 1.366 . S
C734 C733 1.366 . S
C734 C735 1.414 . S
C734 C737 1.499 . S
C735 H709 0.950 1_565 S
C735 C734 1.414 . S
C735 C736 1.374 . S
C736 H710 0.950 . S
C736 C732 1.385 . S
C736 C735 1.374 . S
C737 C734 1.499 . S
C737 C738 1.373 . S
C737 C739 1.389 . S
C738 H711 0.950 . S
C738 C724 1.377 . S
C738 C737 1.373 . S
C739 C723 1.377 . S
C739 C737 1.389 . S
C739 C740 1.524 . S
C740 C739 1.524 . S
C740 C741 1.397 1_565 S
C740 C745 1.363 . S
C741 H712 0.950 . S
C741 C740 1.397 1_545 S
C741 C742 1.334 . S
C742 H713 0.950 . S
C742 C741 1.334 . S
C742 C743 1.287 . S
C743 C742 1.287 . S
C743 C744 1.524 1_545 S
C743 H746 0.999 . S
C744 H714 0.950 . S
C744 C743 1.524 1_565 S
C744 C745 1.415 . S
C745 H715 0.950 . S
C745 C740 1.363 . S
C745 C744 1.415 . S
H746 C743 0.999 . S
H747 C728 0.913 . S
H748 C766 0.951 . S
H749 C768 0.951 . S
H750 C770 0.950 . S
H751 C771 0.950 . S
H752 C773 0.950 . S
H753 C776 0.950 . S
H754 C777 0.950 . S
H755 C779 0.950 . S
H756 C780 0.950 . S
H757 C781 0.951 . S
H758 C783 0.951 . S
H759 C785 0.950 . S
H760 C786 0.950 . S
H761 C788 0.950 . S
H762 C791 0.950 . S
H763 C792 0.950 . S
H764 C794 0.950 . S
H765 C795 0.950 . S
C766 H748 0.951 . S
C766 C767 1.366 . S
C766 C768 1.388 . S
C767 C766 1.366 . S
C767 C771 1.385 . S
C768 H749 0.951 . S
C768 C766 1.388 . S
C768 C769 1.366 . S
C769 C768 1.366 . S
C769 C770 1.414 . S
C769 C772 1.499 . S
C770 H750 0.950 . S
C770 C769 1.414 . S
C770 C771 1.374 . S
C771 H751 0.950 . S
C771 C767 1.385 . S
C771 C770 1.374 . S
C772 C769 1.499 . S
C772 C773 1.373 . S
C772 C774 1.389 . S
C773 H752 0.950 . S
C773 C772 1.373 . S
C773 C789 1.377 . S
C774 C772 1.389 . S
C774 C775 1.524 . S
C774 C788 1.377 . S
C775 C774 1.524 . S
C775 C776 1.397 . S
C775 C780 1.363 . S
C776 H753 0.950 . S
C776 C775 1.397 . S
C776 C777 1.334 . S
C777 H754 0.950 . S
C777 C776 1.334 . S
C777 C778 1.287 . S
C778 C777 1.287 . S
C778 C779 1.524 . S
C778 H797 0.913 . S
C779 H755 0.950 . S
C779 C778 1.524 . S
C779 C780 1.415 . S
C780 H756 0.950 . S
C780 C775 1.363 . S
C780 C779 1.415 . S
C781 H757 0.951 . S
C781 C782 1.366 . S
C781 C783 1.388 . S
C782 C781 1.366 . S
C782 C786 1.385 . S
C783 H758 0.951 . S
C783 C781 1.388 . S
C783 C784 1.366 . S
C784 C783 1.366 . S
C784 C785 1.414 . S
C784 C787 1.499 . S
C785 H759 0.950 . S
C785 C784 1.414 . S
C785 C786 1.374 . S
C786 H760 0.950 . S
C786 C782 1.385 . S
C786 C785 1.374 . S
C787 C784 1.499 . S
C787 C788 1.373 . S
C787 C789 1.389 . S
C788 H761 0.950 . S
C788 C774 1.377 . S
C788 C787 1.373 . S
C789 C773 1.377 . S
C789 C787 1.389 . S
C789 C790 1.524 . S
C790 C789 1.524 . S
C790 C791 1.397 . S
C790 C795 1.363 . S
C791 H762 0.950 . S
C791 C790 1.397 . S
C791 C792 1.334 . S
C792 H763 0.950 . S
C792 C791 1.334 . S
C792 C793 1.287 . S
C793 C792 1.287 . S
C793 C794 1.524 . S
C793 H796 0.999 . S
C794 H764 0.950 . S
C794 C793 1.524 . S
C794 C795 1.415 . S
C795 H765 0.950 . S
C795 C790 1.363 . S
C795 C794 1.415 . S
H796 C793 0.999 . S
H797 C778 0.913 . S
H798 C816 0.951 . S
H799 C818 0.951 . S
H800 C820 0.950 . S
H801 C821 0.950 . S
H802 C823 0.950 . S
H803 C826 0.950 . S
H804 C827 0.950 . S
H805 C829 0.950 . S
H806 C830 0.950 . S
H807 C831 0.951 . S
H808 C833 0.951 . S
H809 C835 0.950 . S
H810 C836 0.950 . S
H811 C838 0.950 . S
H812 C841 0.950 . S
H813 C842 0.950 . S
H814 C844 0.950 . S
H815 C845 0.950 . S
C816 H798 0.951 . S
C816 C817 1.366 . S
C816 C818 1.388 . S
C817 C816 1.366 . S
C817 C821 1.385 . S
C818 H799 0.951 . S
C818 C816 1.388 . S
C818 C819 1.366 . S
C819 C818 1.366 . S
C819 C820 1.414 . S
C819 C822 1.499 . S
C820 H800 0.950 . S
C820 C819 1.414 . S
C820 C821 1.374 . S
C821 H801 0.950 . S
C821 C817 1.385 . S
C821 C820 1.374 . S
C822 C819 1.499 . S
C822 C823 1.373 . S
C822 C824 1.389 . S
C823 H802 0.950 . S
C823 C822 1.373 . S
C823 C839 1.377 . S
C824 C822 1.389 . S
C824 C825 1.524 . S
C824 C838 1.377 . S
C825 C824 1.524 . S
C825 C826 1.397 . S
C825 C830 1.363 . S
C826 H803 0.950 . S
C826 C825 1.397 . S
C826 C827 1.334 . S
C827 H804 0.950 . S
C827 C826 1.334 . S
C827 C828 1.287 . S
C828 C827 1.287 . S
C828 C829 1.524 . S
C828 H847 0.913 . S
C829 H805 0.950 . S
C829 C828 1.524 . S
C829 C830 1.415 . S
C830 H806 0.950 . S
C830 C825 1.363 . S
C830 C829 1.415 . S
C831 H807 0.951 . S
C831 C832 1.366 . S
C831 C833 1.388 . S
C832 C831 1.366 . S
C832 C836 1.385 . S
C833 H808 0.951 . S
C833 C831 1.388 . S
C833 C834 1.366 . S
C834 C833 1.366 . S
C834 C835 1.414 . S
C834 C837 1.499 . S
C835 H809 0.950 . S
C835 C834 1.414 . S
C835 C836 1.374 . S
C836 H810 0.950 . S
C836 C832 1.385 . S
C836 C835 1.374 . S
C837 C834 1.499 . S
C837 C838 1.373 . S
C837 C839 1.389 . S
C838 H811 0.950 . S
C838 C824 1.377 . S
C838 C837 1.373 . S
C839 C823 1.377 . S
C839 C837 1.389 . S
C839 C840 1.524 . S
C840 C839 1.524 . S
C840 C841 1.397 . S
C840 C845 1.363 . S
C841 H812 0.950 . S
C841 C840 1.397 . S
C841 C842 1.334 . S
C842 H813 0.950 . S
C842 C841 1.334 . S
C842 C843 1.287 . S
C843 C842 1.287 . S
C843 C844 1.524 . S
C843 H846 0.999 . S
C844 H814 0.950 . S
C844 C843 1.524 . S
C844 C845 1.415 . S
C845 H815 0.950 . S
C845 C840 1.363 . S
C845 C844 1.415 . S
H846 C843 0.999 . S
H847 C828 0.913 . S
H848 C866 0.951 . S
H849 C868 0.951 . S
H850 C870 0.950 . S
H851 C871 0.950 . S
H852 C873 0.950 . S
H853 C876 0.950 . S
H854 C877 0.950 . S
H855 C879 0.950 . S
H856 C880 0.950 . S
H857 C881 0.951 1_655 S
H858 C883 0.951 1_655 S
H859 C885 0.950 . S
H860 C886 0.950 . S
H861 C888 0.950 . S
H862 C891 0.950 1_455 S
H863 C892 0.950 . S
H864 C894 0.950 . S
H865 C895 0.950 . S
C866 H848 0.951 . S
C866 C867 1.366 1_455 S
C866 C868 1.388 . S
C867 C866 1.366 1_655 S
C867 C871 1.385 . S
C868 H849 0.951 . S
C868 C866 1.388 . S
C868 C869 1.366 . S
C869 C868 1.366 . S
C869 C870 1.414 1_455 S
C869 C872 1.499 . S
C870 H850 0.950 . S
C870 C869 1.414 1_655 S
C870 C871 1.374 . S
C871 H851 0.950 . S
C871 C867 1.385 . S
C871 C870 1.374 . S
C872 C869 1.499 . S
C872 C873 1.373 1_455 S
C872 C874 1.389 . S
C873 H852 0.950 . S
C873 C872 1.373 1_655 S
C873 C889 1.377 . S
C874 C872 1.389 . S
C874 C875 1.524 . S
C874 C888 1.377 . S
C875 C874 1.524 . S
C875 C876 1.397 . S
C875 C880 1.363 . S
C876 H853 0.950 . S
C876 C875 1.397 . S
C876 C877 1.334 . S
C877 H854 0.950 . S
C877 C876 1.334 . S
C877 C878 1.287 . S
C878 C877 1.287 . S
C878 C879 1.524 . S
C878 H897 0.913 . S
C879 H855 0.950 . S
C879 C878 1.524 . S
C879 C880 1.415 . S
C880 H856 0.950 . S
C880 C875 1.363 . S
C880 C879 1.415 . S
C881 H857 0.951 1_455 S
C881 C882 1.367 . S
C881 C883 1.386 1_556 S
C882 C881 1.367 . S
C882 C886 1.385 . S
C883 H858 0.951 1_455 S
C883 C881 1.386 1_554 S
C883 C884 1.366 . S
C884 C883 1.366 . S
C884 C885 1.414 . S
C884 C887 1.499 . S
C885 H859 0.950 . S
C885 C884 1.414 . S
C885 C886 1.374 1_554 S
C886 H860 0.950 . S
C886 C882 1.385 . S
C886 C885 1.374 1_556 S
C887 C884 1.499 . S
C887 C888 1.373 . S
C887 C889 1.389 1_455 S
C888 H861 0.950 . S
C888 C874 1.377 . S
C888 C887 1.373 . S
C889 C873 1.377 . S
C889 C887 1.389 1_655 S
C889 C890 1.524 . S
C890 C889 1.524 . S
C890 C891 1.397 1_554 S
C890 C895 1.363 . S
C891 H862 0.950 1_655 S
C891 C890 1.397 1_556 S
C891 C892 1.334 . S
C892 H863 0.950 . S
C892 C891 1.334 . S
C892 C893 1.287 . S
C893 C892 1.287 . S
C893 C894 1.524 . S
C893 H896 0.999 . S
C894 H864 0.950 . S
C894 C893 1.524 . S
C894 C895 1.415 1_556 S
C895 H865 0.950 . S
C895 C890 1.363 . S
C895 C894 1.415 1_554 S
H896 C893 0.999 . S
H897 C878 0.913 . S
H898 C916 0.951 . S
H899 C918 0.951 . S
H900 C920 0.950 . S
H901 C921 0.950 . S
H902 C923 0.950 . S
H903 C926 0.950 . S
H904 C927 0.950 . S
H905 C929 0.950 . S
H906 C930 0.950 . S
H907 C931 0.951 . S
H908 C933 0.937 1_565 S
H909 C935 0.950 . S
H910 C936 0.950 . S
H911 C938 0.950 . S
H912 C941 0.950 . S
H913 C942 0.950 . S
H914 C944 0.950 . S
H915 C945 0.993 . S
C916 H898 0.951 . S
C916 C917 1.335 1_545 S
C916 C918 1.388 . S
C917 C916 1.335 1_565 S
C917 C921 1.411 . S
C918 H899 0.951 . S
C918 C916 1.388 . S
C918 C919 1.366 . S
C919 C918 1.366 . S
C919 C920 1.414 1_545 S
C919 C922 1.499 . S
C920 H900 0.950 . S
C920 C919 1.414 1_565 S
C920 C921 1.374 . S
C921 H901 0.950 . S
C921 C917 1.411 . S
C921 C920 1.374 . S
C922 C919 1.499 . S
C922 C923 1.373 . S
C922 C924 1.389 . S
C923 H902 0.950 . S
C923 C922 1.373 . S
C923 C939 1.377 . S
C924 C922 1.389 . S
C924 C925 1.524 1_545 S
C924 C938 1.377 . S
C925 C924 1.524 1_565 S
C925 C926 1.397 . S
C925 C930 1.363 1_565 S
C926 H903 0.950 . S
C926 C925 1.397 . S
C926 C927 1.334 . S
C927 H904 0.950 . S
C927 C926 1.334 . S
C927 C928 1.287 . S
C928 C927 1.287 . S
C928 C929 1.524 1_565 S
C928 H947 0.913 . S
C929 H905 0.950 . S
C929 C928 1.524 1_545 S
C929 C930 1.415 . S
C930 H906 0.950 . S
C930 C925 1.363 1_545 S
C930 C929 1.415 . S
C931 H907 0.951 . S
C931 C932 1.366 . S
C931 C933 1.388 . S
C932 C931 1.366 . S
C932 C936 1.385 1_556 S
C933 H908 0.937 1_545 S
C933 C931 1.388 . S
C933 C934 1.366 1_556 S
C934 C933 1.366 1_554 S
C934 C935 1.414 . S
C934 C937 1.499 . S
C935 H909 0.950 . S
C935 C934 1.414 . S
C935 C936 1.374 . S
C936 H910 0.950 . S
C936 C932 1.385 1_554 S
C936 C935 1.374 . S
C937 C934 1.499 . S
C937 C938 1.373 . S
C937 C939 1.389 . S
C938 H911 0.950 . S
C938 C924 1.377 . S
C938 C937 1.373 . S
C939 C923 1.377 . S
C939 C937 1.389 . S
C939 C940 1.524 1_554 S
C940 C939 1.524 1_556 S
C940 C941 1.397 . S
C940 C945 1.363 . S
C941 H912 0.950 . S
C941 C940 1.397 . S
C941 C942 1.334 . S
C942 H913 0.950 . S
C942 C941 1.334 . S
C942 C943 1.287 . S
C943 C942 1.287 . S
C943 C944 1.524 . S
C943 H946 0.999 . S
C944 H914 0.950 . S
C944 C943 1.524 . S
C944 C945 1.415 . S
C945 H915 0.993 . S
C945 C940 1.363 . S
C945 C944 1.415 . S
H946 C943 0.999 . S
H947 C928 0.913 . S
H948 C966 0.951 . S
H949 C968 0.951 . S
H950 C970 0.950 . S
H951 C971 0.950 . S
H952 C973 0.950 . S
H953 C976 0.950 . S
H954 C977 0.950 . S
H955 C979 0.950 . S
H956 C980 0.950 . S
H957 C981 0.951 . S
H958 C983 0.951 . S
H959 C985 0.950 . S
H960 C986 0.950 . S
H961 C988 0.950 . S
H962 C991 0.950 . S
H963 C992 0.950 . S
H964 C994 0.950 . S
H965 C995 0.950 . S
C966 H948 0.951 . S
C966 C967 1.366 . S
C966 C968 1.388 . S
C967 C966 1.366 . S
C967 C971 1.385 . S
C968 H949 0.951 . S
C968 C966 1.388 . S
C968 C969 1.366 . S
C969 C968 1.366 . S
C969 C970 1.414 . S
C969 C972 1.499 . S
C970 H950 0.950 . S
C970 C969 1.414 . S
C970 C971 1.374 . S
C971 H951 0.950 . S
C971 C967 1.385 . S
C971 C970 1.374 . S
C972 C969 1.499 . S
C972 C973 1.373 . S
C972 C974 1.389 . S
C973 H952 0.950 . S
C973 C972 1.373 . S
C973 C989 1.377 . S
C974 C972 1.389 . S
C974 C975 1.524 . S
C974 C988 1.377 . S
C975 C974 1.524 . S
C975 C976 1.397 . S
C975 C980 1.363 . S
C976 H953 0.950 . S
C976 C975 1.397 . S
C976 C977 1.334 . S
C977 H954 0.950 . S
C977 C976 1.334 . S
C977 C978 1.287 1_554 S
C978 C977 1.287 1_556 S
C978 C979 1.524 . S
C978 H997 0.913 . S
C979 H955 0.950 . S
C979 C978 1.524 . S
C979 C980 1.415 1_556 S
C980 H956 0.950 . S
C980 C975 1.363 . S
C980 C979 1.415 1_554 S
C981 H957 0.951 . S
C981 C982 1.366 1_554 S
C981 C983 1.388 . S
C982 C981 1.366 1_556 S
C982 C986 1.385 . S
C983 H958 0.951 . S
C983 C981 1.388 . S
C983 C984 1.366 . S
C984 C983 1.366 . S
C984 C985 1.414 . S
C984 C987 1.499 . S
C985 H959 0.950 . S
C985 C984 1.414 . S
C985 C986 1.374 1_554 S
C986 H960 0.950 . S
C986 C982 1.385 . S
C986 C985 1.374 1_556 S
C987 C984 1.499 . S
C987 C988 1.373 . S
C987 C989 1.389 . S
C988 H961 0.950 . S
C988 C974 1.377 . S
C988 C987 1.373 . S
C989 C973 1.377 . S
C989 C987 1.389 . S
C989 C990 1.524 . S
C990 C989 1.524 . S
C990 C991 1.397 . S
C990 C995 1.363 . S
C991 H962 0.950 . S
C991 C990 1.397 . S
C991 C992 1.334 . S
C992 H963 0.950 . S
C992 C991 1.334 . S
C992 C993 1.287 . S
C993 C992 1.287 . S
C993 C994 1.524 . S
C993 H996 0.999 . S
C994 H964 0.950 . S
C994 C993 1.524 . S
C994 C995 1.415 . S
C995 H965 0.950 . S
C995 C990 1.363 . S
C995 C994 1.415 . S
H996 C993 0.999 . S
H997 C978 0.913 . S
H998 C1016 0.951 . S
H999 C1018 0.951 . S
H1000 C1020 0.950 . S
H1001 C1021 0.950 . S
H1002 C1023 0.950 . S
H1003 C1026 0.950 . S
H1004 C1027 0.950 . S
H1005 C1029 0.950 . S
H1006 C1030 0.956 . S
H1007 C1031 0.951 . S
H1008 C1033 0.951 . S
H1009 C1035 0.950 . S
H1010 C1036 0.950 . S
H1011 C1038 0.950 . S
H1012 C1041 0.950 . S
H1013 C1042 0.950 . S
H1014 C1044 0.950 . S
H1015 C1045 0.950 . S
C1016 H998 0.951 . S
C1016 C1017 1.366 . S
C1016 C1018 1.388 . S
C1017 C1016 1.366 . S
C1017 C1021 1.385 . S
C1018 H999 0.951 . S
C1018 C1016 1.388 . S
C1018 C1019 1.366 . S
C1019 C1018 1.366 . S
C1019 C1020 1.414 . S
C1019 C1022 1.499 . S
C1020 H1000 0.950 . S
C1020 C1019 1.414 . S
C1020 C1021 1.374 . S
C1021 H1001 0.950 . S
C1021 C1017 1.385 . S
C1021 C1020 1.374 . S
C1022 C1019 1.499 . S
C1022 C1023 1.373 . S
C1022 C1024 1.389 . S
C1023 H1002 0.950 . S
C1023 C1022 1.373 . S
C1023 C1039 1.377 . S
C1024 C1022 1.389 . S
C1024 C1025 1.524 . S
C1024 C1038 1.377 . S
C1025 C1024 1.524 . S
C1025 C1026 1.397 . S
C1025 C1030 1.352 1_554 S
C1026 H1003 0.950 . S
C1026 C1025 1.397 . S
C1026 C1027 1.334 . S
C1027 H1004 0.950 . S
C1027 C1026 1.334 . S
C1027 C1028 1.287 . S
C1028 C1027 1.287 . S
C1028 C1029 1.524 1_554 S
C1028 H1047 0.913 . S
C1029 H1005 0.950 . S
C1029 C1028 1.524 1_556 S
C1029 C1030 1.419 . S
C1030 H1006 0.956 . S
C1030 C1025 1.352 1_556 S
C1030 C1029 1.419 . S
C1031 H1007 0.951 . S
C1031 C1032 1.366 1_554 S
C1031 C1033 1.388 . S
C1032 C1031 1.366 1_556 S
C1032 C1036 1.385 . S
C1033 H1008 0.951 . S
C1033 C1031 1.388 . S
C1033 C1034 1.366 . S
C1034 C1033 1.366 . S
C1034 C1035 1.414 1_554 S
C1034 C1037 1.499 . S
C1035 H1009 0.950 . S
C1035 C1034 1.414 1_556 S
C1035 C1036 1.374 . S
C1036 H1010 0.950 . S
C1036 C1032 1.385 . S
C1036 C1035 1.374 . S
C1037 C1034 1.499 . S
C1037 C1038 1.373 . S
C1037 C1039 1.389 . S
C1038 H1011 0.950 . S
C1038 C1024 1.377 . S
C1038 C1037 1.373 . S
C1039 C1023 1.377 . S
C1039 C1037 1.389 . S
C1039 C1040 1.524 . S
C1040 C1039 1.524 . S
C1040 C1041 1.397 . S
C1040 C1045 1.363 . S
C1041 H1012 0.950 . S
C1041 C1040 1.397 . S
C1041 C1042 1.334 . S
C1042 H1013 0.950 . S
C1042 C1041 1.334 . S
C1042 C1043 1.287 . S
C1043 C1042 1.287 . S
C1043 C1044 1.524 . S
C1043 H1046 0.999 . S
C1044 H1014 0.950 . S
C1044 C1043 1.524 . S
C1044 C1045 1.415 . S
C1045 H1015 0.950 . S
C1045 C1040 1.363 . S
C1045 C1044 1.415 . S
H1046 C1043 0.999 . S
H1047 C1028 0.913 . S
H1048 C1066 0.951 1_554 S
H1049 C1068 0.951 . S
H1050 C1070 0.950 . S
H1051 C1071 0.950 . S
H1052 C1073 0.950 . S
H1053 C1076 0.950 . S
H1054 C1077 0.950 . S
H1055 C1079 0.950 . S
H1056 C1080 0.950 . S
H1057 C1081 0.951 . S
H1058 C1083 0.951 . S
H1059 C1085 0.950 . S
H1060 C1086 0.958 . S
H1061 C1088 0.950 . S
H1062 C1091 0.950 . S
H1063 C1092 0.950 . S
H1064 C1094 0.950 . S
H1065 C1095 0.952 1_455 S
C1066 H1048 0.951 1_556 S
C1066 C1067 1.352 1_655 S
C1066 C1068 1.388 . S
C1067 C1066 1.352 1_455 S
C1067 C1071 1.403 . S
C1068 H1049 0.951 . S
C1068 C1066 1.388 . S
C1068 C1069 1.366 1_655 S
C1069 C1068 1.366 1_455 S
C1069 C1070 1.414 . S
C1069 C1072 1.499 . S
C1070 H1050 0.950 . S
C1070 C1069 1.414 . S
C1070 C1071 1.374 . S
C1071 H1051 0.950 . S
C1071 C1067 1.403 . S
C1071 C1070 1.374 . S
C1072 C1069 1.499 . S
C1072 C1073 1.373 1_455 S
C1072 C1074 1.389 . S
C1073 H1052 0.950 . S
C1073 C1072 1.373 1_655 S
C1073 C1089 1.377 . S
C1074 C1072 1.389 . S
C1074 C1075 1.524 . S
C1074 C1088 1.377 . S
C1075 C1074 1.524 . S
C1075 C1076 1.397 . S
C1075 C1080 1.363 1_556 S
C1076 H1053 0.950 . S
C1076 C1075 1.397 . S
C1076 C1077 1.334 1_556 S
C1077 H1054 0.950 . S
C1077 C1076 1.334 1_554 S
C1077 C1078 1.287 . S
C1078 C1077 1.287 . S
C1078 C1079 1.524 . S
C1078 H1097 0.913 . S
C1079 H1055 0.950 . S
C1079 C1078 1.524 . S
C1079 C1080 1.415 . S
C1080 H1056 0.950 . S
C1080 C1075 1.363 1_554 S
C1080 C1079 1.415 . S
C1081 H1057 0.951 . S
C1081 C1082 1.366 . S
C1081 C1083 1.388 . S
C1082 C1081 1.366 . S
C1082 C1086 1.375 1_455 S
C1083 H1058 0.951 . S
C1083 C1081 1.388 . S
C1083 C1084 1.366 . S
C1084 C1083 1.366 . S
C1084 C1085 1.414 1_455 S
C1084 C1087 1.499 . S
C1085 H1059 0.950 . S
C1085 C1084 1.414 1_655 S
C1085 C1086 1.375 . S
C1086 H1060 0.958 . S
C1086 C1082 1.375 1_655 S
C1086 C1085 1.375 . S
C1087 C1084 1.499 . S
C1087 C1088 1.373 . S
C1087 C1089 1.389 1_455 S
C1088 H1061 0.950 . S
C1088 C1074 1.377 . S
C1088 C1087 1.373 . S
C1089 C1073 1.377 . S
C1089 C1087 1.389 1_655 S
C1089 C1090 1.524 . S
C1090 C1089 1.524 . S
C1090 C1091 1.397 . S
C1090 C1095 1.363 . S
C1091 H1062 0.950 . S
C1091 C1090 1.397 . S
C1091 C1092 1.334 . S
C1092 H1063 0.950 . S
C1092 C1091 1.334 . S
C1092 C1093 1.287 . S
C1093 C1092 1.287 . S
C1093 C1094 1.524 . S
C1093 H1096 0.999 . S
C1094 H1064 0.950 . S
C1094 C1093 1.524 . S
C1094 C1095 1.415 . S
C1095 H1065 0.952 1_655 S
C1095 C1090 1.363 . S
C1095 C1094 1.415 . S
H1096 C1093 0.999 . S
H1097 C1078 0.913 . S
H1098 C1116 0.954 . S
H1099 C1118 0.952 . S
H1100 C1120 0.960 . S
H1101 C1121 0.950 1_554 S
H1102 C1123 0.950 . S
H1103 C1126 0.950 . S
H1104 C1127 0.950 . S
H1105 C1129 0.950 . S
H1106 C1130 0.950 . S
H1107 C1131 0.951 . S
H1108 C1133 0.951 . S
H1109 C1135 0.950 . S
H1110 C1136 0.950 . S
H1111 C1138 0.950 . S
H1112 C1141 0.950 . S
H1113 C1142 0.950 . S
H1114 C1144 0.950 . S
H1115 C1145 0.950 1_554 S
C1116 H1098 0.954 . S
C1116 C1117 1.362 1_565 S
C1116 C1118 1.388 . S
C1117 C1116 1.362 1_545 S
C1117 C1121 1.390 . S
C1118 H1099 0.952 . S
C1118 C1116 1.388 . S
C1118 C1119 1.365 1_565 S
C1119 C1118 1.365 1_545 S
C1119 C1120 1.414 . S
C1119 C1122 1.499 . S
C1120 H1100 0.960 . S
C1120 C1119 1.414 . S
C1120 C1121 1.374 . S
C1121 H1101 0.950 1_556 S
C1121 C1117 1.390 . S
C1121 C1120 1.374 . S
C1122 C1119 1.499 . S
C1122 C1123 1.373 . S
C1122 C1124 1.389 1_545 S
C1123 H1102 0.950 . S
C1123 C1122 1.373 . S
C1123 C1139 1.377 . S
C1124 C1122 1.389 1_565 S
C1124 C1125 1.524 . S
C1124 C1138 1.377 . S
C1125 C1124 1.524 . S
C1125 C1126 1.397 . S
C1125 C1130 1.363 . S
C1126 H1103 0.950 . S
C1126 C1125 1.397 . S
C1126 C1127 1.334 . S
C1127 H1104 0.950 . S
C1127 C1126 1.334 . S
C1127 C1128 1.287 . S
C1128 C1127 1.287 . S
C1128 C1129 1.524 . S
C1128 H1147 0.913 . S
C1129 H1105 0.950 . S
C1129 C1128 1.524 . S
C1129 C1130 1.415 . S
C1130 H1106 0.950 . S
C1130 C1125 1.363 . S
C1130 C1129 1.415 . S
C1131 H1107 0.951 . S
C1131 C1132 1.366 . S
C1131 C1133 1.388 . S
C1132 C1131 1.366 . S
C1132 C1136 1.385 . S
C1133 H1108 0.951 . S
C1133 C1131 1.388 . S
C1133 C1134 1.366 . S
C1134 C1133 1.366 . S
C1134 C1135 1.414 . S
C1134 C1137 1.499 . S
C1135 H1109 0.950 . S
C1135 C1134 1.414 . S
C1135 C1136 1.374 . S
C1136 H1110 0.950 . S
C1136 C1132 1.385 . S
C1136 C1135 1.374 . S
C1137 C1134 1.499 . S
C1137 C1138 1.373 1_545 S
C1137 C1139 1.389 . S
C1138 H1111 0.950 . S
C1138 C1124 1.377 . S
C1138 C1137 1.373 1_565 S
C1139 C1123 1.377 . S
C1139 C1137 1.389 . S
C1139 C1140 1.524 . S
C1140 C1139 1.524 . S
C1140 C1141 1.397 . S
C1140 C1145 1.363 . S
C1141 H1112 0.950 . S
C1141 C1140 1.397 . S
C1141 C1142 1.334 . S
C1142 H1113 0.950 . S
C1142 C1141 1.334 . S
C1142 C1143 1.287 . S
C1143 C1142 1.287 . S
C1143 C1144 1.524 1_556 S
C1143 H1146 0.999 . S
C1144 H1114 0.950 . S
C1144 C1143 1.524 1_554 S
C1144 C1145 1.415 1_554 S
C1145 H1115 0.950 1_556 S
C1145 C1140 1.363 . S
C1145 C1144 1.415 1_556 S
H1146 C1143 0.999 . S
H1147 C1128 0.913 . S
H1148 C1166 0.951 1_554 S
H1149 C1168 0.951 . S
H1150 C1170 0.950 . S
H1151 C1171 0.950 . S
H1152 C1173 0.950 . S
H1153 C1176 0.950 . S
H1154 C1177 0.950 . S
H1155 C1179 0.950 . S
H1156 C1180 0.950 . S
H1157 C1181 0.951 . S
H1158 C1183 0.951 . S
H1159 C1185 0.950 . S
H1160 C1186 0.950 . S
H1161 C1188 0.950 . S
H1162 C1191 0.950 . S
H1163 C1192 0.950 . S
H1164 C1194 0.950 . S
H1165 C1195 0.950 . S
C1166 H1148 0.951 1_556 S
C1166 C1167 1.366 . S
C1166 C1168 1.388 . S
C1167 C1166 1.366 . S
C1167 C1171 1.385 . S
C1168 H1149 0.951 . S
C1168 C1166 1.388 . S
C1168 C1169 1.366 . S
C1169 C1168 1.366 . S
C1169 C1170 1.414 . S
C1169 C1172 1.499 . S
C1170 H1150 0.950 . S
C1170 C1169 1.414 . S
C1170 C1171 1.374 . S
C1171 H1151 0.950 . S
C1171 C1167 1.385 . S
C1171 C1170 1.374 . S
C1172 C1169 1.499 . S
C1172 C1173 1.373 . S
C1172 C1174 1.389 . S
C1173 H1152 0.950 . S
C1173 C1172 1.373 . S
C1173 C1189 1.377 . S
C1174 C1172 1.389 . S
C1174 C1175 1.524 . S
C1174 C1188 1.377 . S
C1175 C1174 1.524 . S
C1175 C1176 1.397 . S
C1175 C1180 1.363 . S
C1176 H1153 0.950 . S
C1176 C1175 1.397 . S
C1176 C1177 1.334 . S
C1177 H1154 0.950 . S
C1177 C1176 1.334 . S
C1177 C1178 1.287 . S
C1178 C1177 1.287 . S
C1178 C1179 1.524 . S
C1178 H1197 0.913 . S
C1179 H1155 0.950 . S
C1179 C1178 1.524 . S
C1179 C1180 1.415 . S
C1180 H1156 0.950 . S
C1180 C1175 1.363 . S
C1180 C1179 1.415 . S
C1181 H1157 0.951 . S
C1181 C1182 1.366 . S
C1181 C1183 1.388 . S
C1182 C1181 1.366 . S
C1182 C1186 1.385 . S
C1183 H1158 0.951 . S
C1183 C1181 1.388 . S
C1183 C1184 1.366 . S
C1184 C1183 1.366 . S
C1184 C1185 1.414 . S
C1184 C1187 1.499 . S
C1185 H1159 0.950 . S
C1185 C1184 1.414 . S
C1185 C1186 1.374 . S
C1186 H1160 0.950 . S
C1186 C1182 1.385 . S
C1186 C1185 1.374 . S
C1187 C1184 1.499 . S
C1187 C1188 1.373 . S
C1187 C1189 1.389 . S
C1188 H1161 0.950 . S
C1188 C1174 1.377 . S
C1188 C1187 1.373 . S
C1189 C1173 1.377 . S
C1189 C1187 1.389 . S
C1189 C1190 1.524 . S
C1190 C1189 1.524 . S
C1190 C1191 1.397 . S
C1190 C1195 1.363 . S
C1191 H1162 0.950 . S
C1191 C1190 1.397 . S
C1191 C1192 1.334 . S
C1192 H1163 0.950 . S
C1192 C1191 1.334 . S
C1192 C1193 1.287 . S
C1193 C1192 1.287 . S
C1193 C1194 1.524 . S
C1193 H1196 0.999 . S
C1194 H1164 0.950 . S
C1194 C1193 1.524 . S
C1194 C1195 1.415 . S
C1195 H1165 0.950 . S
C1195 C1190 1.363 . S
C1195 C1194 1.415 . S
H1196 C1193 0.999 . S
H1197 C1178 0.913 . S
H1198 C1216 0.951 1_554 S
H1199 C1218 0.951 . S
H1200 C1220 0.950 . S
H1201 C1221 0.950 . S
H1202 C1223 0.950 . S
H1203 C1226 0.950 . S
H1204 C1227 0.950 . S
H1205 C1229 0.950 . S
H1206 C1230 0.950 . S
H1207 C1231 0.951 . S
H1208 C1233 0.951 . S
H1209 C1235 0.950 . S
H1210 C1236 0.950 . S
H1211 C1238 0.950 . S
H1212 C1241 0.950 . S
H1213 C1242 0.950 . S
H1214 C1244 0.950 . S
H1215 C1245 0.950 . S
C1216 H1198 0.951 1_556 S
C1216 C1217 1.366 . S
C1216 C1218 1.388 . S
C1217 C1216 1.366 . S
C1217 C1221 1.385 . S
C1218 H1199 0.951 . S
C1218 C1216 1.388 . S
C1218 C1219 1.366 . S
C1219 C1218 1.366 . S
C1219 C1220 1.414 . S
C1219 C1222 1.499 . S
C1220 H1200 0.950 . S
C1220 C1219 1.414 . S
C1220 C1221 1.374 . S
C1221 H1201 0.950 . S
C1221 C1217 1.385 . S
C1221 C1220 1.374 . S
C1222 C1219 1.499 . S
C1222 C1223 1.373 . S
C1222 C1224 1.389 . S
C1223 H1202 0.950 . S
C1223 C1222 1.373 . S
C1223 C1239 1.377 . S
C1224 C1222 1.389 . S
C1224 C1225 1.524 . S
C1224 C1238 1.377 . S
C1225 C1224 1.524 . S
C1225 C1226 1.397 . S
C1225 C1230 1.363 1_556 S
C1226 H1203 0.950 . S
C1226 C1225 1.397 . S
C1226 C1227 1.334 . S
C1227 H1204 0.950 . S
C1227 C1226 1.334 . S
C1227 C1228 1.287 1_556 S
C1228 C1227 1.287 1_554 S
C1228 C1229 1.524 . S
C1228 H1247 0.913 . S
C1229 H1205 0.950 . S
C1229 C1228 1.524 . S
C1229 C1230 1.415 . S
C1230 H1206 0.950 . S
C1230 C1225 1.363 1_554 S
C1230 C1229 1.415 . S
C1231 H1207 0.951 . S
C1231 C1232 1.366 . S
C1231 C1233 1.388 . S
C1232 C1231 1.366 . S
C1232 C1236 1.385 . S
C1233 H1208 0.951 . S
C1233 C1231 1.388 . S
C1233 C1234 1.366 . S
C1234 C1233 1.366 . S
C1234 C1235 1.414 . S
C1234 C1237 1.499 . S
C1235 H1209 0.950 . S
C1235 C1234 1.414 . S
C1235 C1236 1.374 . S
C1236 H1210 0.950 . S
C1236 C1232 1.385 . S
C1236 C1235 1.374 . S
C1237 C1234 1.499 . S
C1237 C1238 1.373 . S
C1237 C1239 1.389 . S
C1238 H1211 0.950 . S
C1238 C1224 1.377 . S
C1238 C1237 1.373 . S
C1239 C1223 1.377 . S
C1239 C1237 1.389 . S
C1239 C1240 1.524 . S
C1240 C1239 1.524 . S
C1240 C1241 1.397 . S
C1240 C1245 1.363 . S
C1241 H1212 0.950 . S
C1241 C1240 1.397 . S
C1241 C1242 1.334 . S
C1242 H1213 0.950 . S
C1242 C1241 1.334 . S
C1242 C1243 1.287 . S
C1243 C1242 1.287 . S
C1243 C1244 1.524 . S
C1243 H1246 0.999 . S
C1244 H1214 0.950 . S
C1244 C1243 1.524 . S
C1244 C1245 1.415 . S
C1245 H1215 0.950 . S
C1245 C1240 1.363 . S
C1245 C1244 1.415 . S
H1246 C1243 0.999 . S
H1247 C1228 0.913 . S
H1248 C1266 0.951 . S
H1249 C1268 0.951 . S
H1250 C1270 0.950 . S
H1251 C1271 0.950 . S
H1252 C1273 0.950 . S
H1253 C1276 0.950 . S
H1254 C1277 0.950 . S
H1255 C1279 0.950 . S
H1256 C1280 0.950 1_655 S
H1257 C1281 0.962 . S
H1258 C1283 0.971 . S
H1259 C1285 0.950 . S
H1260 C1286 0.950 . S
H1261 C1288 0.950 . S
H1262 C1291 0.950 . S
H1263 C1292 0.950 . S
H1264 C1294 0.950 . S
H1265 C1295 0.950 . S
C1266 H1248 0.951 . S
C1266 C1267 1.386 . S
C1266 C1268 1.388 . S
C1267 C1266 1.386 . S
C1267 C1271 1.367 1_655 S
C1268 H1249 0.951 . S
C1268 C1266 1.388 . S
C1268 C1269 1.366 . S
C1269 C1268 1.366 . S
C1269 C1270 1.414 1_655 S
C1269 C1272 1.499 . S
C1270 H1250 0.950 . S
C1270 C1269 1.414 1_455 S
C1270 C1271 1.374 . S
C1271 H1251 0.950 . S
C1271 C1267 1.367 1_455 S
C1271 C1270 1.374 . S
C1272 C1269 1.499 . S
C1272 C1273 1.373 . S
C1272 C1274 1.389 1_655 S
C1273 H1252 0.950 . S
C1273 C1272 1.373 . S
C1273 C1289 1.377 . S
C1274 C1272 1.389 1_455 S
C1274 C1275 1.524 . S
C1274 C1288 1.377 . S
C1275 C1274 1.524 . S
C1275 C1276 1.397 . S
C1275 C1280 1.363 . S
C1276 H1253 0.950 . S
C1276 C1275 1.397 . S
C1276 C1277 1.334 . S
C1277 H1254 0.950 . S
C1277 C1276 1.334 . S
C1277 C1278 1.287 . S
C1278 C1277 1.287 . S
C1278 C1279 1.524 . S
C1278 H1297 0.913 . S
C1279 H1255 0.950 . S
C1279 C1278 1.524 . S
C1279 C1280 1.415 . S
C1280 H1256 0.950 1_455 S
C1280 C1275 1.363 . S
C1280 C1279 1.415 . S
C1281 H1257 0.962 . S
C1281 C1282 1.355 1_455 S
C1281 C1283 1.388 . S
C1282 C1281 1.355 1_655 S
C1282 C1286 1.385 . S
C1283 H1258 0.971 . S
C1283 C1281 1.388 . S
C1283 C1284 1.348 1_455 S
C1284 C1283 1.348 1_655 S
C1284 C1285 1.414 . S
C1284 C1287 1.499 . S
C1285 H1259 0.950 . S
C1285 C1284 1.414 . S
C1285 C1286 1.374 . S
C1286 H1260 0.950 . S
C1286 C1282 1.385 . S
C1286 C1285 1.374 . S
C1287 C1284 1.499 . S
C1287 C1288 1.373 1_655 S
C1287 C1289 1.389 . S
C1288 H1261 0.950 . S
C1288 C1274 1.377 . S
C1288 C1287 1.373 1_455 S
C1289 C1273 1.377 . S
C1289 C1287 1.389 . S
C1289 C1290 1.524 . S
C1290 C1289 1.524 . S
C1290 C1291 1.397 . S
C1290 C1295 1.363 . S
C1291 H1262 0.950 . S
C1291 C1290 1.397 . S
C1291 C1292 1.334 . S
C1292 H1263 0.950 . S
C1292 C1291 1.334 . S
C1292 C1293 1.287 . S
C1293 C1292 1.287 . S
C1293 C1294 1.524 . S
C1293 H1296 0.999 . S
C1294 H1264 0.950 . S
C1294 C1293 1.524 . S
C1294 C1295 1.415 . S
C1295 H1265 0.950 . S
C1295 C1290 1.363 . S
C1295 C1294 1.415 . S
H1296 C1293 0.999 . S
H1297 C1278 0.913 . S
H1298 C1316 0.951 . S
H1299 C1318 0.951 . S
H1300 C1320 0.950 . S
H1301 C1321 0.950 . S
H1302 C1323 0.950 . S
H1303 C1326 0.950 . S
H1304 C1327 0.950 . S
H1305 C1329 0.950 . S
H1306 C1330 0.950 . S
H1307 C1331 0.951 . S
H1308 C1333 0.951 . S
H1309 C1335 0.950 . S
H1310 C1336 0.950 . S
H1311 C1338 0.950 . S
H1312 C1341 0.950 . S
H1313 C1342 0.950 . S
H1314 C1344 0.950 . S
H1315 C1345 0.950 . S
C1316 H1298 0.951 . S
C1316 C1317 1.380 . S
C1316 C1318 1.388 . S
C1317 C1316 1.380 . S
C1317 C1321 1.373 1_565 S
C1318 H1299 0.951 . S
C1318 C1316 1.388 . S
C1318 C1319 1.366 . S
C1319 C1318 1.366 . S
C1319 C1320 1.414 1_565 S
C1319 C1322 1.499 . S
C1320 H1300 0.950 . S
C1320 C1319 1.414 1_545 S
C1320 C1321 1.374 . S
C1321 H1301 0.950 . S
C1321 C1317 1.373 1_545 S
C1321 C1320 1.374 . S
C1322 C1319 1.499 . S
C1322 C1323 1.373 1_565 S
C1322 C1324 1.389 . S
C1323 H1302 0.950 . S
C1323 C1322 1.373 1_545 S
C1323 C1339 1.377 . S
C1324 C1322 1.389 . S
C1324 C1325 1.524 . S
C1324 C1338 1.377 . S
C1325 C1324 1.524 . S
C1325 C1326 1.397 . S
C1325 C1330 1.363 . S
C1326 H1303 0.950 . S
C1326 C1325 1.397 . S
C1326 C1327 1.334 . S
C1327 H1304 0.950 . S
C1327 C1326 1.334 . S
C1327 C1328 1.287 . S
C1328 C1327 1.287 . S
C1328 C1329 1.524 . S
C1328 H1347 0.913 . S
C1329 H1305 0.950 . S
C1329 C1328 1.524 . S
C1329 C1330 1.415 . S
C1330 H1306 0.950 . S
C1330 C1325 1.363 . S
C1330 C1329 1.415 . S
C1331 H1307 0.951 . S
C1331 C1332 1.366 1_545 S
C1331 C1333 1.388 . S
C1332 C1331 1.366 1_565 S
C1332 C1336 1.385 . S
C1333 H1308 0.951 . S
C1333 C1331 1.388 . S
C1333 C1334 1.366 1_545 S
C1334 C1333 1.366 1_565 S
C1334 C1335 1.414 . S
C1334 C1337 1.499 . S
C1335 H1309 0.950 . S
C1335 C1334 1.414 . S
C1335 C1336 1.374 . S
C1336 H1310 0.950 . S
C1336 C1332 1.385 . S
C1336 C1335 1.374 . S
C1337 C1334 1.499 . S
C1337 C1338 1.373 . S
C1337 C1339 1.389 1_565 S
C1338 H1311 0.950 . S
C1338 C1324 1.377 . S
C1338 C1337 1.373 . S
C1339 C1323 1.377 . S
C1339 C1337 1.389 1_545 S
C1339 C1340 1.524 . S
C1340 C1339 1.524 . S
C1340 C1341 1.397 . S
C1340 C1345 1.363 . S
C1341 H1312 0.950 . S
C1341 C1340 1.397 . S
C1341 C1342 1.334 . S
C1342 H1313 0.950 . S
C1342 C1341 1.334 . S
C1342 C1343 1.287 . S
C1343 C1342 1.287 . S
C1343 C1344 1.524 . S
C1343 H1346 0.999 . S
C1344 H1314 0.950 . S
C1344 C1343 1.524 . S
C1344 C1345 1.415 . S
C1345 H1315 0.950 . S
C1345 C1340 1.363 . S
C1345 C1344 1.415 . S
H1346 C1343 0.999 . S
H1347 C1328 0.913 . S
H1348 C1366 0.951 . S
H1349 C1368 0.951 . S
H1350 C1370 0.950 . S
H1351 C1371 0.950 . S
H1352 C1373 0.950 . S
H1353 C1376 0.950 . S
H1354 C1377 0.950 . S
H1355 C1379 0.950 . S
H1356 C1380 0.950 . S
H1357 C1381 0.951 . S
H1358 C1383 0.951 . S
H1359 C1385 0.950 . S
H1360 C1386 0.950 . S
H1361 C1388 0.950 . S
H1362 C1391 0.950 . S
H1363 C1392 0.950 . S
H1364 C1394 0.950 . S
H1365 C1395 0.950 . S
C1366 H1348 0.951 . S
C1366 C1367 1.366 . S
C1366 C1368 1.388 . S
C1367 C1366 1.366 . S
C1367 C1371 1.385 . S
C1368 H1349 0.951 . S
C1368 C1366 1.388 . S
C1368 C1369 1.366 . S
C1369 C1368 1.366 . S
C1369 C1370 1.414 . S
C1369 C1372 1.499 . S
C1370 H1350 0.950 . S
C1370 C1369 1.414 . S
C1370 C1371 1.374 . S
C1371 H1351 0.950 . S
C1371 C1367 1.385 . S
C1371 C1370 1.374 . S
C1372 C1369 1.499 . S
C1372 C1373 1.373 . S
C1372 C1374 1.389 . S
C1373 H1352 0.950 . S
C1373 C1372 1.373 . S
C1373 C1389 1.377 . S
C1374 C1372 1.389 . S
C1374 C1375 1.524 . S
C1374 C1388 1.377 . S
C1375 C1374 1.524 . S
C1375 C1376 1.397 . S
C1375 C1380 1.363 . S
C1376 H1353 0.950 . S
C1376 C1375 1.397 . S
C1376 C1377 1.334 . S
C1377 H1354 0.950 . S
C1377 C1376 1.334 . S
C1377 C1378 1.287 . S
C1378 C1377 1.287 . S
C1378 C1379 1.524 . S
C1378 H1397 0.913 . S
C1379 H1355 0.950 . S
C1379 C1378 1.524 . S
C1379 C1380 1.415 . S
C1380 H1356 0.950 . S
C1380 C1375 1.363 . S
C1380 C1379 1.415 . S
C1381 H1357 0.951 . S
C1381 C1382 1.366 . S
C1381 C1383 1.388 . S
C1382 C1381 1.366 . S
C1382 C1386 1.385 . S
C1383 H1358 0.951 . S
C1383 C1381 1.388 . S
C1383 C1384 1.366 . S
C1384 C1383 1.366 . S
C1384 C1385 1.414 . S
C1384 C1387 1.499 . S
C1385 H1359 0.950 . S
C1385 C1384 1.414 . S
C1385 C1386 1.374 . S
C1386 H1360 0.950 . S
C1386 C1382 1.385 . S
C1386 C1385 1.374 . S
C1387 C1384 1.499 . S
C1387 C1388 1.373 . S
C1387 C1389 1.389 . S
C1388 H1361 0.950 . S
C1388 C1374 1.377 . S
C1388 C1387 1.373 . S
C1389 C1373 1.377 . S
C1389 C1387 1.389 . S
C1389 C1390 1.524 . S
C1390 C1389 1.524 . S
C1390 C1391 1.397 . S
C1390 C1395 1.363 . S
C1391 H1362 0.950 . S
C1391 C1390 1.397 . S
C1391 C1392 1.334 . S
C1392 H1363 0.950 . S
C1392 C1391 1.334 . S
C1392 C1393 1.287 . S
C1393 C1392 1.287 . S
C1393 C1394 1.524 . S
C1393 H1396 0.999 . S
C1394 H1364 0.950 . S
C1394 C1393 1.524 . S
C1394 C1395 1.415 . S
C1395 H1365 0.950 . S
C1395 C1390 1.363 . S
C1395 C1394 1.415 . S
H1396 C1393 0.999 . S
H1397 C1378 0.913 . S
H1398 C1416 0.951 . S
H1399 C1418 0.951 . S
H1400 C1420 0.950 . S
H1401 C1421 0.950 . S
H1402 C1423 0.950 . S
H1403 C1426 0.950 . S
H1404 C1427 0.950 . S
H1405 C1429 0.950 . S
H1406 C1430 0.950 . S
H1407 C1431 0.951 . S
H1408 C1433 0.951 . S
H1409 C1435 0.950 . S
H1410 C1436 0.950 . S
H1411 C1438 0.950 . S
H1412 C1441 0.950 . S
H1413 C1442 0.950 . S
H1414 C1444 0.950 . S
H1415 C1445 0.950 . S
C1416 H1398 0.951 . S
C1416 C1417 1.366 . S
C1416 C1418 1.388 . S
C1417 C1416 1.366 . S
C1417 C1421 1.385 . S
C1418 H1399 0.951 . S
C1418 C1416 1.388 . S
C1418 C1419 1.366 . S
C1419 C1418 1.366 . S
C1419 C1420 1.414 . S
C1419 C1422 1.499 . S
C1420 H1400 0.950 . S
C1420 C1419 1.414 . S
C1420 C1421 1.374 . S
C1421 H1401 0.950 . S
C1421 C1417 1.385 . S
C1421 C1420 1.374 . S
C1422 C1419 1.499 . S
C1422 C1423 1.373 . S
C1422 C1424 1.389 . S
C1423 H1402 0.950 . S
C1423 C1422 1.373 . S
C1423 C1439 1.377 . S
C1424 C1422 1.389 . S
C1424 C1425 1.524 . S
C1424 C1438 1.377 . S
C1425 C1424 1.524 . S
C1425 C1426 1.397 . S
C1425 C1430 1.363 . S
C1426 H1403 0.950 . S
C1426 C1425 1.397 . S
C1426 C1427 1.334 . S
C1427 H1404 0.950 . S
C1427 C1426 1.334 . S
C1427 C1428 1.287 . S
C1428 C1427 1.287 . S
C1428 C1429 1.524 . S
C1428 H1447 0.913 . S
C1429 H1405 0.950 . S
C1429 C1428 1.524 . S
C1429 C1430 1.415 . S
C1430 H1406 0.950 . S
C1430 C1425 1.363 . S
C1430 C1429 1.415 . S
C1431 H1407 0.951 . S
C1431 C1432 1.366 . S
C1431 C1433 1.388 . S
C1432 C1431 1.366 . S
C1432 C1436 1.385 . S
C1433 H1408 0.951 . S
C1433 C1431 1.388 . S
C1433 C1434 1.366 . S
C1434 C1433 1.366 . S
C1434 C1435 1.414 . S
C1434 C1437 1.499 . S
C1435 H1409 0.950 . S
C1435 C1434 1.414 . S
C1435 C1436 1.374 . S
C1436 H1410 0.950 . S
C1436 C1432 1.385 . S
C1436 C1435 1.374 . S
C1437 C1434 1.499 . S
C1437 C1438 1.373 . S
C1437 C1439 1.389 . S
C1438 H1411 0.950 . S
C1438 C1424 1.377 . S
C1438 C1437 1.373 . S
C1439 C1423 1.377 . S
C1439 C1437 1.389 . S
C1439 C1440 1.524 . S
C1440 C1439 1.524 . S
C1440 C1441 1.397 . S
C1440 C1445 1.363 . S
C1441 H1412 0.950 . S
C1441 C1440 1.397 . S
C1441 C1442 1.334 . S
C1442 H1413 0.950 . S
C1442 C1441 1.334 . S
C1442 C1443 1.287 . S
C1443 C1442 1.287 . S
C1443 C1444 1.524 . S
C1443 H1446 0.999 . S
C1444 H1414 0.950 . S
C1444 C1443 1.524 . S
C1444 C1445 1.415 . S
C1445 H1415 0.950 . S
C1445 C1440 1.363 . S
C1445 C1444 1.415 . S
H1446 C1443 0.999 . S
H1447 C1428 0.913 . S
C267 C76 1.762 1_545 S
C282 C106 1.845 1_545 S
C332 C146 1.854 . S
C317 C87 1.760 . S
C382 C186 1.855 . S
C367 C54 1.768 . S
C432 C226 1.851 1_455 S
C417 C65 1.764 1_455 S
C482 C96 1.849 1_565 S
C467 C32 1.768 1_545 S
C517 C43 1.765 . S
C532 C136 1.858 . S
C567 C10 1.766 . S
C582 C176 1.855 . S
C617 C21 1.764 . S
C632 C216 1.851 1_655 S
C682 C93 0.303 . S
C667 C60 0.374 . S
C732 C133 0.307 . S
C717 C71 0.377 . S
C782 C173 0.308 . S
C767 C82 0.373 . S
C817 C49 0.370 . S
C832 C213 0.300 . S
C867 C16 0.377 1_655 S
C882 C103 0.301 . S
C932 C143 0.306 . S
C917 C27 0.370 1_565 S
C982 C183 0.309 . S
C967 C38 0.380 . S
C1017 C5 0.378 . S
C1032 C223 0.310 . S
C1067 C59 1.891 . S
C1082 C97 2.066 . S
C1117 C70 1.882 . S
C1132 C137 2.062 . S
C1182 C177 2.058 . S
C1167 C81 1.877 . S
C1232 C217 2.067 . S
C1217 C48 1.881 . S
C1267 C15 1.891 1_655 S
C1282 C107 2.079 . S
C1332 C147 2.063 . S
C1317 C26 1.883 1_565 S
C1382 C187 2.057 . S
C1367 C37 1.879 . S
C1417 C4 1.888 . S
C1432 C227 2.071 . S
