# Generated by pormake.
# Topology rtl, (3,6)-cn, num edge types: 1
# Building blocks:
#     Node 0, Type 0, BuildingBlock: INOVEN_clean_linker_0, # of connection points: 3
#     Node 1, Type 0, BuildingBlock: INOVEN_clean_linker_0, # of connection points: 3
#     Node 2, Type 0, BuildingBlock: INOVEN_clean_linker_0, # of connection points: 3
#     Node 3, Type 0, BuildingBlock: INOVEN_clean_linker_0, # of connection points: 3
#     Node 4, Type 1, BuildingBlock: CIFDUS_clean_sbu_1, # of connection points: 6
#     Node 5, Type 1, BuildingBlock: CIFDUS_clean_sbu_1, # of connection points: 6
#     Edge 6, Type (0, 1), BuildingBlock: MIFKUJ_clean_linker_0, # of connection points: 2
#     Edge 7, Type (0, 1), BuildingBlock: MIFKUJ_clean_linker_0, # of connection points: 2
#     Edge 8, Type (0, 1), BuildingBlock: MIFKUJ_clean_linker_0, # of connection points: 2
#     Edge 9, Type (0, 1), BuildingBlock: MIFKUJ_clean_linker_0, # of connection points: 2
#     Edge 10, Type (0, 1), BuildingBlock: MIFKUJ_clean_linker_0, # of connection points: 2
#     Edge 11, Type (0, 1), BuildingBlock: MIFKUJ_clean_linker_0, # of connection points: 2
#     Edge 12, Type (0, 1), BuildingBlock: MIFKUJ_clean_linker_0, # of connection points: 2
#     Edge 13, Type (0, 1), BuildingBlock: MIFKUJ_clean_linker_0, # of connection points: 2
#     Edge 14, Type (0, 1), BuildingBlock: MIFKUJ_clean_linker_0, # of connection points: 2
#     Edge 15, Type (0, 1), BuildingBlock: MIFKUJ_clean_linker_0, # of connection points: 2
#     Edge 16, Type (0, 1), BuildingBlock: MIFKUJ_clean_linker_0, # of connection points: 2
#     Edge 17, Type (0, 1), BuildingBlock: MIFKUJ_clean_linker_0, # of connection points: 2
# Relax obj value: 0.015
# Max RMSD: 0.115
# Mean RMSD: 0.084
data_MOF--net-rtl--node1-CIFDUS_clean_sbu_1--node2-INOVEN_clean_linker_0--edge1-MIFKUJ_clean_linker_0
_symmetry_space_group_name_H-M    P1
_symmetry_Int_Tables_number       1
_symmetry_cell_setting            triclinic
loop_
_symmetry_equiv_pos_as_xyz
'x, y, z'
_cell_length_a     44.805884
_cell_length_b     45.731461
_cell_length_c     28.883485
_cell_angle_alpha  91.23191
_cell_angle_beta   99.212835
_cell_angle_gamma 90.13434
loop_
_atom_site_label
_atom_site_type_symbol
_atom_site_fract_x
_atom_site_fract_y
_atom_site_fract_z
_atom_type_partial_charge
H0 H 0.22774 0.81573 0.00812 0.0
H1 H 0.16498 0.86942 0.06928 0.0
H2 H 0.2313 0.81897 0.15784 0.0
N3 N 0.25714 0.79538 0.0866 0.0
N4 N 0.26532 0.78024 0.12185 0.0
C5 C 0.21906 0.82422 0.03863 0.0
C6 C 0.1942 0.84329 0.03297 0.0
C7 C 0.23237 0.81511 0.08331 0.0
C8 C 0.22106 0.8258 0.12325 0.0
C9 C 0.19653 0.84535 0.11844 0.0
C10 C 0.18333 0.85382 0.07317 0.0
H11 H 0.72238 0.72538 0.67743 0.0
H12 H 0.66079 0.67129 0.58186 0.0
H13 H 0.71428 0.73669 0.52829 0.0
N14 N 0.74408 0.75565 0.61335 0.0
N15 N 0.75501 0.76734 0.58109 0.0
C16 C 0.71225 0.71902 0.64202 0.0
C17 C 0.69019 0.69667 0.63456 0.0
C18 C 0.72124 0.73355 0.60411 0.0
C19 C 0.70763 0.72574 0.55797 0.0
C20 C 0.68586 0.70325 0.54991 0.0
C21 C 0.67738 0.68881 0.58825 0.0
H22 H 0.81734 0.21661 0.9253 0.0
H23 H 0.88456 0.17074 0.01976 0.0
H24 H 0.82583 0.23219 0.0743 0.0
N25 N 0.79501 0.24755 0.98957 0.0
N26 N 0.79156 0.26739 0.01861 0.0
C27 C 0.8282 0.21181 0.96056 0.0
C28 C 0.85244 0.19199 0.96759 0.0
C29 C 0.81873 0.22671 0.99863 0.0
C30 C 0.83311 0.22097 0.04466 0.0
C31 C 0.85703 0.20084 0.05246 0.0
C32 C 0.86649 0.1866 0.01375 0.0
H33 H 0.30428 0.3301 0.41259 0.0
H34 H 0.36396 0.3851 0.50955 0.0
H35 H 0.30611 0.32259 0.56096 0.0
N36 N 0.27942 0.30237 0.4758 0.0
N37 N 0.25984 0.29898 0.50154 0.0
C38 C 0.31322 0.33738 0.44805 0.0
C39 C 0.33547 0.35954 0.45601 0.0
C40 C 0.30204 0.32454 0.48555 0.0
C41 C 0.31404 0.33316 0.53195 0.0
C42 C 0.33727 0.35431 0.54088 0.0
C43 C 0.34727 0.36773 0.50268 0.0
O44 O 1.00337 0.05089 0.4915 0.0
Mn45 Mn 0.02228 0.01928 0.54019 0.0
O46 O 0.96295 0.02987 0.44715 0.0
Mn47 Mn 0.97433 0.99231 0.46346 0.0
O48 O 0.04108 0.98747 0.58876 0.0
O49 O 0.05879 0.04606 0.55559 0.0
Mn50 Mn 0.07129 0.04494 0.61663 0.0
O51 O 1.00154 0.0403 0.59197 0.0
O52 O 0.0832 0.00723 0.63017 0.0
O53 O 0.04341 0.99829 0.48852 0.0
O54 O 1.00623 0.97726 0.43699 0.0
O55 O 0.09703 0.07046 0.59465 0.0
O56 O 0.03956 0.05893 0.64488 0.0
C57 C 0.96342 0.97451 0.52607 0.0
C58 C 0.97952 0.05211 0.46003 0.0
C59 C 0.06577 0.98549 0.6183 0.0
C60 C 0.08034 0.06492 0.55454 0.0
C61 C 1.0114 0.05481 0.63012 0.0
C62 C 0.03418 0.98261 0.45135 0.0
O63 O 0.98561 0.99264 0.52492 0.0
O64 O 0.94776 0.96777 0.48559 0.0
O65 O 0.54376 0.54952 0.10257 0.0
Mn66 Mn 0.52206 0.52037 0.04952 0.0
O67 O 0.57602 0.52242 0.15139 0.0
Mn68 Mn 0.56001 0.48689 0.12859 0.0
O69 O 0.50051 0.49094 0.99675 0.0
O70 O 0.49102 0.55205 0.03129 0.0
Mn71 Mn 0.48281 0.552 0.96923 0.0
O72 O 0.54959 0.53707 1.00361 0.0
O73 O 0.46529 0.51637 0.95032 0.0
O74 O 0.49422 0.50399 0.09584 0.0
O75 O 0.52421 0.4767 0.14775 0.0
O76 O 0.45991 0.58145 0.98896 0.0
O77 O 0.51849 0.56033 0.9472 0.0
C78 C 0.57346 0.46821 0.06756 0.0
C79 C 0.56508 0.54705 0.13801 0.0
C80 C 0.47769 0.49236 0.96348 0.0
C81 C 0.47212 0.57358 0.03045 0.0
C82 C 0.54472 0.55206 0.96594 0.0
C83 C 0.49844 0.48715 0.13152 0.0
O84 O 0.55344 0.4888 0.06689 0.0
O85 O 0.58464 0.4591 0.10882 0.0
H86 H 0.20557 0.30036 0.52688 0.0
H87 H 0.16721 0.26151 0.51627 0.0
H88 H 0.22683 0.20645 0.44965 0.0
H89 H 0.26421 0.24631 0.45731 0.0
H90 H 0.17339 0.19478 0.40922 0.0
H91 H 0.21722 0.20163 0.57137 0.0
H92 H 0.23335 0.22536 0.64887 0.0
H93 H 0.14136 0.24832 0.65645 0.0
H94 H 0.12472 0.22502 0.57871 0.0
H95 H 0.12443 0.05952 0.5013 0.0
H96 H 0.1477 0.10161 0.46988 0.0
H97 H 0.07228 0.15508 0.49351 0.0
H98 H 0.04867 0.11274 0.52389 0.0
H99 H 0.12975 0.16876 0.55026 0.0
H100 H 0.08727 0.153 0.38866 0.0
H101 H 0.07489 0.12412 0.31501 0.0
H102 H 0.16942 0.1115 0.31131 0.0
H103 H 0.18239 0.13993 0.38536 0.0
C104 C 0.21019 0.28002 0.50953 0.0
C105 C 0.23768 0.2763 0.49303 0.0
C106 C 0.18841 0.2577 0.50374 0.0
C107 C 0.19425 0.23052 0.48325 0.0
C108 C 0.22162 0.22706 0.46565 0.0
C109 C 0.24306 0.2498 0.47017 0.0
C110 C 0.17246 0.2055 0.48209 0.0
C111 C 0.16408 0.189 0.44023 0.0
C112 C 0.15986 0.19784 0.52226 0.0
C113 C 0.16979 0.21187 0.56901 0.0
C114 C 0.20047 0.21192 0.58943 0.0
C115 C 0.20969 0.22526 0.63342 0.0
C116 C 0.1884 0.23842 0.6575 0.0
C117 C 0.15783 0.23817 0.63771 0.0
C118 C 0.14848 0.22489 0.59371 0.0
C119 C 0.11182 0.07972 0.4966 0.0
C120 C 0.08459 0.08281 0.51443 0.0
C121 C 0.12532 0.10391 0.47913 0.0
C122 C 0.11192 0.1316 0.47986 0.0
C123 C 0.083 0.13392 0.49256 0.0
C124 C 0.0693 0.1096 0.50931 0.0
C125 C 0.13063 0.1583 0.47753 0.0
C126 C 0.13871 0.17491 0.51907 0.0
C127 C 0.14352 0.16536 0.43757 0.0
C128 C 0.1358 0.14844 0.39281 0.0
C129 C 0.10543 0.14387 0.37238 0.0
C130 C 0.0983 0.12762 0.33049 0.0
C131 C 0.12135 0.11594 0.30853 0.0
C132 C 0.15159 0.12055 0.32836 0.0
C133 C 0.15884 0.13678 0.37026 0.0
H134 H 0.11579 0.10335 0.27612 0.0
H135 H 0.19559 0.24873 0.69155 0.0
H136 H 0.31159 0.78207 0.07139 0.0
H137 H 0.35258 0.74674 0.07346 0.0
H138 H 0.31601 0.69797 0.17801 0.0
H139 H 0.27582 0.73455 0.17774 0.0
H140 H 0.37421 0.69437 0.19681 0.0
H141 H 0.30331 0.67814 0.05624 0.0
H142 H 0.27105 0.69096 0.98212 0.0
H143 H 0.3495 0.71703 0.92486 0.0
H144 H 0.3822 0.70471 0.99888 0.0
H145 H 0.43259 0.55833 0.08813 0.0
H146 H 0.4022 0.59425 0.12434 0.0
H147 H 0.46135 0.66324 0.09417 0.0
H148 H 0.49186 0.62746 0.05883 0.0
H149 H 0.39152 0.65395 0.04266 0.0
H150 H 0.46191 0.66889 0.18839 0.0
H151 H 0.49178 0.65179 0.26195 0.0
H152 H 0.41058 0.62205 0.30786 0.0
H153 H 0.38028 0.6386 0.2342 0.0
C154 C 0.31238 0.7639 0.09495 0.0
C155 C 0.29022 0.76067 0.12392 0.0
C156 C 0.33579 0.74357 0.09604 0.0
C157 C 0.33707 0.71902 0.1249 0.0
C158 C 0.31556 0.71649 0.15517 0.0
C159 C 0.29252 0.73727 0.15489 0.0
C160 C 0.35997 0.69555 0.12181 0.0
C161 C 0.37774 0.68541 0.16305 0.0
C162 C 0.36476 0.68348 0.07794 0.0
C163 C 0.34517 0.69075 0.03325 0.0
C164 C 0.31366 0.68677 0.02794 0.0
C165 C 0.2953 0.69393 0.98594 0.0
C166 C 0.30821 0.70487 0.94885 0.0
C167 C 0.33952 0.70859 0.95364 0.0
C168 C 0.35799 0.7015 0.99559 0.0
C169 C 0.44028 0.58086 0.09227 0.0
C170 C 0.46483 0.59011 0.07138 0.0
C171 C 0.42271 0.60144 0.11247 0.0
C172 C 0.4295 0.63142 0.11181 0.0
C173 C 0.4559 0.64021 0.0955 0.0
C174 C 0.47352 0.61969 0.07574 0.0
C175 C 0.40603 0.65354 0.11728 0.0
C176 C 0.38794 0.6631 0.07632 0.0
C177 C 0.40071 0.66453 0.16126 0.0
C178 C 0.41887 0.65468 0.20556 0.0
C179 C 0.45046 0.65841 0.21393 0.0
C180 C 0.46746 0.6489 0.25571 0.0
C181 C 0.45309 0.63579 0.28952 0.0
C182 C 0.42169 0.63221 0.28164 0.0
C183 C 0.40459 0.64167 0.2399 0.0
H184 H 0.46629 0.62848 0.32186 0.0
H185 H 0.29395 0.71041 0.91637 0.0
H186 H 0.78214 0.79081 0.51617 0.0
H187 H 0.8215 0.82872 0.52676 0.0
H188 H 0.81843 0.83243 0.67537 0.0
H189 H 0.77947 0.79387 0.66471 0.0
H190 H 0.82077 0.88285 0.55377 0.0
H191 H 0.88918 0.85561 0.73366 0.0
H192 H 0.90147 0.81319 0.78452 0.0
H193 H 0.88909 0.75556 0.66354 0.0
H194 H 0.87709 0.79766 0.61198 0.0
H195 H 0.9253 0.99408 0.58376 0.0
H196 H 0.89244 0.9611 0.61876 0.0
H197 H 0.9481 0.88814 0.59048 0.0
H198 H 0.98126 0.92123 0.55681 0.0
H199 H 0.91803 0.87553 0.66241 0.0
H200 H 0.89391 0.91202 0.50399 0.0
H201 H 0.88451 0.95095 0.44568 0.0
H202 H 0.81187 0.98373 0.51226 0.0
H203 H 0.82105 0.94508 0.57121 0.0
C204 C 0.79003 0.79972 0.55105 0.0
C205 C 0.77787 0.78941 0.58937 0.0
C206 C 0.81242 0.82142 0.55716 0.0
C207 C 0.82318 0.83349 0.60193 0.0
C208 C 0.81091 0.82327 0.64056 0.0
C209 C 0.78853 0.80131 0.63442 0.0
C210 C 0.84679 0.85703 0.60721 0.0
C211 C 0.84185 0.88129 0.57801 0.0
C212 C 0.87451 0.85521 0.63856 0.0
C213 C 0.88186 0.82974 0.66909 0.0
C214 C 0.88913 0.83388 0.71795 0.0
C215 C 0.89605 0.8099 0.74688 0.0
C216 C 0.89593 0.78169 0.72729 0.0
C217 C 0.88903 0.77741 0.67869 0.0
C218 C 0.88213 0.80132 0.64961 0.0
C219 C 0.93169 0.97135 0.58809 0.0
C220 C 0.95591 0.9602 0.56786 0.0
C221 C 0.9126 0.95237 0.60742 0.0
C222 C 0.9172 0.92195 0.60585 0.0
C223 C 0.94389 0.91144 0.59188 0.0
C224 C 0.96309 0.93045 0.57298 0.0
C225 C 0.89192 0.90107 0.60882 0.0
C226 C 0.89657 0.87735 0.63924 0.0
C227 C 0.8641 0.90289 0.57778 0.0
C228 C 0.85835 0.92592 0.5422 0.0
C229 C 0.87603 0.92763 0.50627 0.0
C230 C 0.87074 0.94962 0.47313 0.0
C231 C 0.84768 0.96987 0.47537 0.0
C232 C 0.82977 0.96808 0.51064 0.0
C233 C 0.83498 0.94613 0.5439 0.0
H234 H 0.84363 0.98689 0.44969 0.0
H235 H 0.90128 0.76315 0.74974 0.0
H236 H 0.78928 0.31727 0.06575 0.0
H237 H 0.74897 0.35373 0.05551 0.0
H238 H 0.69898 0.3005 0.94406 0.0
H239 H 0.74025 0.26473 0.95289 0.0
H240 H 0.69023 0.35501 0.92192 0.0
H241 H 0.68169 0.30199 0.05867 0.0
H242 H 0.69803 0.27967 0.13548 0.0
H243 H 0.72126 0.36449 0.19765 0.0
H244 H 0.70543 0.3873 0.12105 0.0
H245 H 0.55375 0.41966 0.01645 0.0
H246 H 0.58836 0.38588 0.98519 0.0
H247 H 0.65744 0.45266 1.00388 0.0
H248 H 0.62268 0.48656 0.03396 0.0
H249 H 0.6524 0.38899 0.066 0.0
H250 H 0.65859 0.43983 0.91836 0.0
H251 H 0.63453 0.45702 0.84099 0.0
H252 H 0.60716 0.36918 0.79876 0.0
H253 H 0.63022 0.35156 0.87643 0.0
C254 C 0.76973 0.31356 0.0389 0.0
C255 C 0.76785 0.28827 0.01042 0.0
C256 C 0.7466 0.33428 0.03314 0.0
C257 C 0.72043 0.3297 0.99967 0.0
C258 C 0.7188 0.30462 0.97022 0.0
C259 C 0.74234 0.2841 0.9754 0.0
C260 C 0.69459 0.35063 0.99698 0.0
C261 C 0.6819 0.36226 0.95347 0.0
C262 C 0.68307 0.35993 0.03781 0.0
C263 C 0.69263 0.34632 0.08401 0.0
C264 C 0.69049 0.31586 0.08865 0.0
C265 C 0.69963 0.30313 0.13216 0.0
C266 C 0.71075 0.32064 0.1714 0.0
C267 C 0.71268 0.35095 0.16722 0.0
C268 C 0.7036 0.36379 0.12377 0.0
C269 C 0.57551 0.4278 0.01042 0.0
C270 C 0.58536 0.45589 0.02683 0.0
C271 C 0.59543 0.40835 0.99306 0.0
C272 C 0.62547 0.41676 0.99201 0.0
C273 C 0.63422 0.44586 1.00347 0.0
C274 C 0.6142 0.46536 0.02026 0.0
C275 C 0.64908 0.39406 0.99154 0.0
C276 C 0.661 0.38182 0.0346 0.0
C277 C 0.65916 0.38378 0.95026 0.0
C278 C 0.64573 0.39445 0.90349 0.0
C279 C 0.64706 0.42424 0.89288 0.0
C280 C 0.63372 0.43405 0.84889 0.0
C281 C 0.61933 0.41423 0.81503 0.0
C282 C 0.61827 0.38452 0.82505 0.0
C283 C 0.63144 0.37462 0.86906 0.0
H284 H 0.60904 0.42187 0.78099 0.0
H285 H 0.71781 0.31074 0.20505 0.0
H286 H 0.13747 0.85153 0.1294 0.0
H287 H 0.11739 0.87681 0.19288 0.0
H288 H 0.20798 0.89226 0.26573 0.0
H289 H 0.2284 0.86695 0.20173 0.0
H290 H 0.1673 0.87793 0.32674 0.0
H291 H 0.17394 0.9465 0.20726 0.0
H292 H 0.16748 0.9646 0.1265 0.0
H293 H 0.07108 0.95673 0.11558 0.0
H294 H 0.07697 0.93811 0.19604 0.0
H295 H 0.09688 0.98245 0.47072 0.0
H296 H 0.13185 0.96144 0.42144 0.0
H297 H 0.056 0.93403 0.31818 0.0
H298 H 0.02136 0.95466 0.36626 0.0
H299 H 0.09907 0.9609 0.27809 0.0
H300 H 0.09394 0.88597 0.39415 0.0
H301 H 0.10079 0.8677 0.47487 0.0
H302 H 0.19538 0.88905 0.49282 0.0
H303 H 0.18898 0.90781 0.41234 0.0
C304 C 0.15319 0.86021 0.15894 0.0
C305 C 0.18457 0.85759 0.1601 0.0
C306 C 0.14166 0.87463 0.1953 0.0
C307 C 0.16118 0.88694 0.23369 0.0
C308 C 0.1925 0.88305 0.23636 0.0
C309 C 0.20412 0.86852 0.19982 0.0
C310 C 0.14847 0.90501 0.26933 0.0
C311 C 0.15285 0.89644 0.31634 0.0
C312 C 0.12964 0.92922 0.25589 0.0
C313 C 0.12593 0.94074 0.20762 0.0
C314 C 0.15137 0.94845 0.18754 0.0
C315 C 0.14781 0.95882 0.14182 0.0
C316 C 0.11889 0.96177 0.1159 0.0
C317 C 0.09347 0.95442 0.1357 0.0
C318 C 0.09691 0.94399 0.18139 0.0
C319 C 0.08771 0.97194 0.43751 0.0
C320 C 0.05621 0.97026 0.42269 0.0
C321 C 0.10772 0.95988 0.40945 0.0
C322 C 0.09654 0.94609 0.36607 0.0
C323 C 0.06521 0.94462 0.35134 0.0
C324 C 0.04537 0.95641 0.37919 0.0
C325 C 0.11682 0.9331 0.33508 0.0
C326 C 0.11396 0.94274 0.28877 0.0
C327 C 0.13708 0.91006 0.34933 0.0
C328 C 0.14092 0.89862 0.3975 0.0
C329 C 0.11615 0.88699 0.41546 0.0
C330 C 0.11995 0.8765 0.46113 0.0
C331 C 0.14848 0.8773 0.48902 0.0
C332 C 0.17328 0.8885 0.47122 0.0
C333 C 0.16958 0.89905 0.42559 0.0
H334 H 0.15138 0.86918 0.52437 0.0
H335 H 0.11618 0.96979 0.0805 0.0
H336 H 0.63248 0.68315 0.64651 0.0
H337 H 0.61597 0.65772 0.71165 0.0
H338 H 0.70863 0.65059 0.7792 0.0
H339 H 0.7254 0.67586 0.71364 0.0
H340 H 0.67631 0.59858 0.78127 0.0
H341 H 0.66551 0.69965 0.82088 0.0
H342 H 0.64894 0.75052 0.8069 0.0
H343 H 0.55619 0.72224 0.78222 0.0
H344 H 0.57223 0.67112 0.79539 0.0
H345 H 0.5902 0.59034 0.999 0.0
H346 H 0.62443 0.61416 0.95241 0.0
H347 H 0.58926 0.5589 0.83317 0.0
H348 H 0.55455 0.53582 0.87917 0.0
H349 H 0.60143 0.64455 0.86901 0.0
H350 H 0.65018 0.54742 0.77151 0.0
H351 H 0.66846 0.49729 0.78806 0.0
H352 H 0.68869 0.5191 0.93508 0.0
H353 H 0.67105 0.56947 0.9194 0.0
C354 C 0.64939 0.67605 0.67508 0.0
C355 C 0.68028 0.68157 0.67484 0.0
C356 C 0.6399 0.66167 0.71247 0.0
C357 C 0.66103 0.6524 0.75053 0.0
C358 C 0.69192 0.65758 0.75027 0.0
C359 C 0.70144 0.67222 0.71297 0.0
C360 C 0.6506 0.63742 0.79043 0.0
C361 C 0.66006 0.60866 0.80062 0.0
C362 C 0.62986 0.65077 0.81641 0.0
C363 C 0.6201 0.68152 0.80883 0.0
C364 C 0.64159 0.70425 0.81216 0.0
C365 C 0.63229 0.73314 0.80443 0.0
C366 C 0.60153 0.7396 0.7936 0.0
C367 C 0.58001 0.7172 0.7906 0.0
C368 C 0.58919 0.68826 0.79825 0.0
C369 C 0.59056 0.58273 0.96332 0.0
C370 C 0.57012 0.56107 0.94268 0.0
C371 C 0.60988 0.59646 0.93665 0.0
C372 C 0.60943 0.58825 0.88935 0.0
C373 C 0.59022 0.56539 0.86968 0.0
C374 C 0.57049 0.55216 0.89597 0.0
C375 C 0.62639 0.60542 0.85882 0.0
C376 C 0.61799 0.63457 0.85013 0.0
C377 C 0.64823 0.59248 0.83457 0.0
C378 C 0.65904 0.56221 0.84425 0.0
C379 C 0.65866 0.54158 0.80735 0.0
C380 C 0.66893 0.51311 0.81658 0.0
C381 C 0.67974 0.50503 0.86259 0.0
C382 C 0.68027 0.52538 0.89947 0.0
C383 C 0.67009 0.55388 0.89042 0.0
H384 H 0.68772 0.483 0.86966 0.0
H385 H 0.59437 0.76198 0.78762 0.0
H386 H 0.91764 0.19988 0.08554 0.0
H387 H 0.94288 0.18431 0.16242 0.0
H388 H 0.85606 0.1699 0.20489 0.0
H389 H 0.83078 0.18646 0.12838 0.0
H390 H 0.89347 0.19075 0.27685 0.0
H391 H 0.89897 0.11339 0.16316 0.0
H392 H 0.91144 0.09109 0.09018 0.0
H393 H 1.00543 0.11101 0.13542 0.0
H394 H 0.99344 0.13381 0.20842 0.0
H395 H 0.92351 0.07394 0.43408 0.0
H396 H 0.90799 0.10965 0.37357 0.0
H397 H 1.00143 0.1256 0.36215 0.0
H398 H 0.01714 0.08971 0.42355 0.0
H399 H 0.96674 0.10953 0.27777 0.0
H400 H 0.95968 0.18027 0.39901 0.0
H401 H 0.94487 0.19949 0.47238 0.0
H402 H 0.85115 0.18848 0.4137 0.0
H403 H 0.86537 0.16878 0.34019 0.0
C404 C 0.90396 0.19362 0.11147 0.0
C405 C 0.87222 0.19413 0.10079 0.0
C406 C 0.91841 0.18462 0.15539 0.0
C407 C 0.90146 0.17523 0.18934 0.0
C408 C 0.86973 0.17693 0.17941 0.0
C409 C 0.85526 0.18639 0.13565 0.0
C410 C 0.91666 0.16234 0.23413 0.0
C411 C 0.90935 0.17288 0.27698 0.0
C412 C 0.938 0.13941 0.23473 0.0
C413 C 0.94526 0.12562 0.19096 0.0
C414 C 0.92227 0.11321 0.15737 0.0
C415 C 0.92925 0.10046 0.11603 0.0
C416 C 0.9592 0.09972 0.1081 0.0
C417 C 0.98224 0.11166 0.14156 0.0
C418 C 0.97536 0.12449 0.18293 0.0
C419 C 0.94082 0.08581 0.41986 0.0
C420 C 0.97153 0.07913 0.43362 0.0
C421 C 0.93191 0.10626 0.38521 0.0
C422 C 0.95348 0.1204 0.36318 0.0
C423 C 0.98437 0.11503 0.37875 0.0
C424 C 0.99336 0.09476 0.41411 0.0
C425 C 0.94327 0.13769 0.32039 0.0
C426 C 0.95135 0.12782 0.27777 0.0
C427 C 0.92231 0.16086 0.32003 0.0
C428 C 0.91362 0.17288 0.36412 0.0
C429 C 0.93591 0.18175 0.40184 0.0
C430 C 0.92762 0.19277 0.44345 0.0
C431 C 0.89709 0.19517 0.44772 0.0
C432 C 0.87479 0.18661 0.41034 0.0
C433 C 0.88295 0.17556 0.36865 0.0
H434 H 0.89072 0.2037 0.47998 0.0
H435 H 0.96456 0.08983 0.07607 0.0
H436 H 0.39747 0.362 0.57445 0.0
H437 H 0.42112 0.37787 0.65315 0.0
H438 H 0.33363 0.38038 0.69726 0.0
H439 H 0.3097 0.3649 0.61808 0.0
H440 H 0.36607 0.43004 0.72272 0.0
H441 H 0.38426 0.32701 0.73485 0.0
H442 H 0.40207 0.27894 0.71068 0.0
H443 H 0.4926 0.31266 0.7233 0.0
H444 H 0.47526 0.36108 0.74691 0.0
H445 H 0.42135 0.46938 0.9535 0.0
H446 H 0.39759 0.43718 0.8893 0.0
H447 H 0.48348 0.42733 0.84135 0.0
H448 H 0.50753 0.45854 0.9072 0.0
H449 H 0.45049 0.37877 0.82009 0.0
H450 H 0.43326 0.48154 0.79964 0.0
H451 H 0.41723 0.53087 0.82117 0.0
H452 H 0.32683 0.49914 0.82001 0.0
H453 H 0.34245 0.44949 0.79915 0.0
C454 C 0.38321 0.36591 0.60088 0.0
C455 C 0.35163 0.36234 0.58982 0.0
C456 C 0.39683 0.3747 0.64606 0.0
C457 C 0.37924 0.38009 0.6814 0.0
C458 C 0.34772 0.37623 0.67067 0.0
C459 C 0.33406 0.36725 0.62546 0.0
C460 C 0.3936 0.39139 0.72859 0.0
C461 C 0.3841 0.4185 0.74441 0.0
C462 C 0.41788 0.37689 0.75629 0.0
C463 C 0.42839 0.34775 0.74228 0.0
C464 C 0.40792 0.32425 0.73212 0.0
C465 C 0.41794 0.29692 0.71858 0.0
C466 C 0.44843 0.29276 0.71536 0.0
C467 C 0.46898 0.31591 0.72578 0.0
C468 C 0.45907 0.3433 0.7393 0.0
C469 C 0.43536 0.45926 0.93044 0.0
C470 C 0.46626 0.46618 0.93542 0.0
C471 C 0.42172 0.44116 0.89336 0.0
C472 C 0.43851 0.43052 0.85948 0.0
C473 C 0.46996 0.43538 0.86676 0.0
C474 C 0.48376 0.45306 0.90457 0.0
C475 C 0.42279 0.41733 0.81429 0.0
C476 C 0.43218 0.39007 0.79866 0.0
C477 C 0.39862 0.43186 0.78627 0.0
C478 C 0.3891 0.46175 0.79832 0.0
C479 C 0.41001 0.48505 0.80426 0.0
C480 C 0.401 0.51306 0.81632 0.0
C481 C 0.37105 0.51812 0.82207 0.0
C482 C 0.35003 0.49518 0.81562 0.0
C483 C 0.35895 0.4671 0.80367 0.0
H484 H 0.36412 0.53982 0.83141 0.0
H485 H 0.45615 0.27159 0.70487 0.0
H486 H 0.65088 0.73535 0.48312 0.0
H487 H 0.62722 0.71873 0.40383 0.0
H488 H 0.66798 0.63402 0.42849 0.0
H489 H 0.69065 0.65018 0.50797 0.0
H490 H 0.67393 0.66777 0.33654 0.0
H491 H 0.6039 0.63314 0.43872 0.0
H492 H 0.56852 0.641 0.49489 0.0
H493 H 0.51438 0.69666 0.39741 0.0
H494 H 0.54984 0.68959 0.34102 0.0
H495 H 0.6198 0.55171 0.1928 0.0
H496 H 0.6374 0.58874 0.25174 0.0
H497 H 0.55632 0.6387 0.20985 0.0
H498 H 0.53771 0.60036 0.15085 0.0
H499 H 0.56658 0.63601 0.30107 0.0
H500 H 0.62837 0.66427 0.19287 0.0
H501 H 0.66229 0.65912 0.13394 0.0
H502 H 0.73037 0.62142 0.23669 0.0
H503 H 0.69673 0.6259 0.2961 0.0
C504 C 0.65473 0.71322 0.47139 0.0
C505 C 0.67253 0.69398 0.50144 0.0
C506 C 0.6412 0.70376 0.42631 0.0
C507 C 0.64583 0.67515 0.41043 0.0
C508 C 0.66412 0.65618 0.44014 0.0
C509 C 0.67701 0.66537 0.48544 0.0
C510 C 0.63187 0.66459 0.36288 0.0
C511 C 0.65048 0.6608 0.32859 0.0
C512 C 0.60091 0.65691 0.35189 0.0
C513 C 0.57985 0.6613 0.38606 0.0
C514 C 0.58474 0.64744 0.42957 0.0
C515 C 0.5646 0.65165 0.46138 0.0
C516 C 0.5393 0.66945 0.44984 0.0
C517 C 0.53405 0.68299 0.4064 0.0
C518 C 0.55418 0.6789 0.37453 0.0
C519 C 0.60574 0.57073 0.19537 0.0
C520 C 0.57722 0.57293 0.16711 0.0
C521 C 0.61607 0.59219 0.22903 0.0
C522 C 0.59854 0.61695 0.23508 0.0
C523 C 0.57041 0.61992 0.20574 0.0
C524 C 0.55988 0.59813 0.17177 0.0
C525 C 0.60902 0.6378 0.27496 0.0
C526 C 0.58985 0.64363 0.30807 0.0
C527 C 0.63938 0.64799 0.28448 0.0
C528 C 0.65992 0.64538 0.24898 0.0
C529 C 0.65051 0.65473 0.20288 0.0
C530 C 0.6697 0.65194 0.16937 0.0
C531 C 0.69846 0.63994 0.18156 0.0
C532 C 0.7081 0.63074 0.22731 0.0
C533 C 0.68899 0.63347 0.26096 0.0
H534 H 0.71328 0.63778 0.15556 0.0
H535 H 0.5237 0.67264 0.47447 0.0
H536 H 0.91129 0.1826 0.95744 0.0
H537 H 0.93068 0.15915 0.89197 0.0
H538 H 0.8397 0.14615 0.81906 0.0
H539 H 0.81988 0.16888 0.88569 0.0
H540 H 0.87492 0.09769 0.81008 0.0
H541 H 0.88177 0.19958 0.7849 0.0
H542 H 0.89397 0.2513 0.80555 0.0
H543 H 0.98823 0.23029 0.83835 0.0
H544 H 0.97656 0.17835 0.81857 0.0
H545 H 0.94881 0.05641 0.61081 0.0
H546 H 0.9145 0.08006 0.65851 0.0
H547 H 0.99097 0.10589 0.76186 0.0
H548 H 0.02501 0.08303 0.71492 0.0
H549 H 0.95346 0.15081 0.74146 0.0
H550 H 0.94398 0.04728 0.7764 0.0
H551 H 0.93124 0.99607 0.75244 0.0
H552 H 0.84055 0.02127 0.69673 0.0
H553 H 0.8529 0.07272 0.71984 0.0
C554 C 0.89527 0.17447 0.92784 0.0
C555 C 0.86397 0.17765 0.92701 0.0
C556 C 0.90645 0.16128 0.89012 0.0
C557 C 0.8867 0.15119 0.85022 0.0
C558 C 0.85539 0.15386 0.84936 0.0
C559 C 0.84412 0.1671 0.8873 0.0
C560 C 0.89925 0.13838 0.80957 0.0
C561 C 0.89168 0.10949 0.79443 0.0
C562 C 0.92104 0.15373 0.78887 0.0
C563 C 0.92825 0.18502 0.80047 0.0
C564 C 0.90508 0.20595 0.79679 0.0
C565 C 0.91191 0.23532 0.80831 0.0
C566 C 0.94185 0.24407 0.82331 0.0
C567 C 0.96505 0.22348 0.82672 0.0
C568 C 0.95834 0.19407 0.81529 0.0
C569 C 0.95826 0.06709 0.64375 0.0
C570 C 0.98977 0.06787 0.65875 0.0
C571 C 0.93861 0.08055 0.67102 0.0
C572 C 0.95016 0.09481 0.71384 0.0
C573 C 0.98149 0.09527 0.72886 0.0
C574 C 1.00098 0.08202 0.70183 0.0
C575 C 0.93028 0.10969 0.74363 0.0
C576 C 0.93636 0.13914 0.75655 0.0
C577 C 0.90706 0.09489 0.76188 0.0
C578 C 0.89944 0.06386 0.7494 0.0
C579 C 0.92136 0.04191 0.75887 0.0
C580 C 0.91422 0.01284 0.74544 0.0
C581 C 0.88513 0.00543 0.72293 0.0
C582 C 0.86308 0.02705 0.71408 0.0
C583 C 0.87013 0.05615 0.72737 0.0
H584 H 0.87967 0.98294 0.71242 0.0
H585 H 0.94709 0.26682 0.83222 0.0
H586 H 0.30286 0.374 0.37017 0.0
H587 H 0.32085 0.39966 0.3062 0.0
H588 H 0.41016 0.40546 0.38759 0.0
H589 H 0.39297 0.37875 0.45059 0.0
H590 H 0.38739 0.45957 0.34819 0.0
H591 H 0.39797 0.35726 0.30304 0.0
H592 H 0.37855 0.30748 0.28161 0.0
H593 H 0.31702 0.34129 0.16598 0.0
H594 H 0.33583 0.39137 0.18716 0.0
H595 H 0.50406 0.47653 0.22387 0.0
H596 H 0.46575 0.46082 0.26842 0.0
H597 H 0.39772 0.46589 0.14504 0.0
H598 H 0.43676 0.48193 0.09926 0.0
H599 H 0.39609 0.41283 0.19431 0.0
H600 H 0.39362 0.51393 0.22955 0.0
H601 H 0.41404 0.56347 0.25003 0.0
H602 H 0.45893 0.53332 0.38284 0.0
H603 H 0.43923 0.48349 0.36293 0.0
C604 C 0.32647 0.38027 0.37427 0.0
C605 C 0.34636 0.37434 0.41599 0.0
C606 C 0.33663 0.39517 0.33772 0.0
C607 C 0.36679 0.40466 0.34228 0.0
C608 C 0.3867 0.39863 0.38355 0.0
C609 C 0.37672 0.38345 0.41973 0.0
C610 C 0.37804 0.42093 0.30443 0.0
C611 C 0.38925 0.44942 0.31448 0.0
C612 C 0.37927 0.40813 0.25971 0.0
C613 C 0.36799 0.37807 0.24707 0.0
C614 C 0.38008 0.35411 0.27334 0.0
C615 C 0.36924 0.32584 0.26118 0.0
C616 C 0.34648 0.32123 0.22257 0.0
C617 C 0.33459 0.3449 0.19595 0.0
C618 C 0.34533 0.37322 0.20801 0.0
C619 C 0.48095 0.47454 0.20594 0.0
C620 C 0.47352 0.48029 0.15783 0.0
C621 C 0.45897 0.46571 0.23169 0.0
C622 C 0.42879 0.46237 0.21029 0.0
C623 C 0.42091 0.46845 0.16229 0.0
C624 C 0.44313 0.47773 0.13628 0.0
C625 C 0.40657 0.45109 0.23881 0.0
C626 C 0.39335 0.42347 0.22729 0.0
C627 C 0.40324 0.4648 0.28212 0.0
C628 C 0.41494 0.49487 0.29465 0.0
C629 C 0.40797 0.5178 0.26304 0.0
C630 C 0.41942 0.54596 0.27455 0.0
C631 C 0.43777 0.55152 0.3177 0.0
C632 C 0.44467 0.52897 0.34945 0.0
C633 C 0.43332 0.50077 0.3381 0.0
H634 H 0.44666 0.57329 0.32658 0.0
H635 H 0.33812 0.29932 0.21318 0.0
H636 H 0.13363 0.84906 0.99981 0.0
H637 H 0.10975 0.86649 0.92339 0.0
H638 H 0.19738 0.87515 0.88126 0.0
H639 H 0.22151 0.85851 0.95818 0.0
H640 H 0.16424 0.92304 0.86089 0.0
H641 H 0.14772 0.81962 0.83735 0.0
H642 H 0.1302 0.77073 0.8559 0.0
H643 H 0.03915 0.80222 0.84414 0.0
H644 H 0.0562 0.85143 0.82616 0.0
H645 H 0.11946 0.95774 0.62987 0.0
H646 H 0.13861 0.9253 0.69381 0.0
H647 H 0.05021 0.9225 0.73468 0.0
H648 H 0.03071 0.95446 0.6694 0.0
H649 H 0.08235 0.87046 0.75502 0.0
H650 H 0.09827 0.97351 0.78225 0.0
H651 H 0.1147 0.02288 0.76414 0.0
H652 H 0.20596 0.99264 0.77136 0.0
H653 H 0.18995 0.94293 0.78872 0.0
C654 C 0.14787 0.85473 0.97435 0.0
C655 C 0.17956 0.85245 0.98534 0.0
C656 C 0.13412 0.8644 0.9304 0.0
C657 C 0.15168 0.87189 0.89622 0.0
C658 C 0.1833 0.8694 0.90691 0.0
C659 C 0.19707 0.85968 0.95085 0.0
C660 C 0.13728 0.88371 0.85027 0.0
C661 C 0.14671 0.91125 0.83748 0.0
C662 C 0.11361 0.86888 0.82024 0.0
C663 C 0.10329 0.83929 0.83084 0.0
C664 C 0.124 0.81618 0.83908 0.0
C665 C 0.11415 0.7884 0.84943 0.0
C666 C 0.0836 0.78339 0.85132 0.0
C667 C 0.06282 0.80614 0.84272 0.0
C668 C 0.07256 0.83398 0.83241 0.0
C669 C 0.10379 0.94912 0.65118 0.0
C670 C 0.07362 0.95854 0.64472 0.0
C671 C 0.11481 0.9308 0.68802 0.0
C672 C 0.09607 0.92211 0.71989 0.0
C673 C 0.06514 0.92906 0.71071 0.0
C674 C 0.05394 0.94716 0.67322 0.0
C675 C 0.10975 0.90947 0.76555 0.0
C676 C 0.10004 0.88204 0.77842 0.0
C677 C 0.13305 0.92446 0.79603 0.0
C678 C 0.14285 0.95444 0.78634 0.0
C679 C 0.1218 0.97734 0.77968 0.0
C680 C 0.13104 0.00539 0.76956 0.0
C681 C 0.16135 0.01088 0.7665 0.0
C682 C 0.18249 0.98834 0.77368 0.0
C683 C 0.17334 0.96023 0.78367 0.0
H684 H 0.16846 0.0326 0.75867 0.0
H685 H 0.07601 0.76187 0.85934 0.0
loop_
_geom_bond_atom_site_label_1
_geom_bond_atom_site_label_2
_geom_bond_distance
_geom_bond_site_symmetry_2
_ccdc_geom_bond_type
H0 C5 0.950 . S
H1 C10 0.931 . S
H2 C8 0.930 . S
N3 N4 1.234 . S
N3 C7 1.453 . S
N4 N3 1.234 . S
C5 H0 0.950 . S
C5 C6 1.373 . S
C5 C7 1.368 . S
C6 C5 1.373 . S
C6 C10 1.397 . S
C7 N3 1.453 . S
C7 C5 1.368 . S
C7 C8 1.373 . S
C8 H2 0.930 . S
C8 C7 1.373 . S
C8 C9 1.371 . S
C9 C8 1.371 . S
C9 C10 1.383 . S
C10 H1 0.931 . S
C10 C6 1.397 . S
C10 C9 1.383 . S
H11 C16 0.929 . S
H12 C21 0.931 . S
H13 C19 0.930 . S
N14 N15 1.234 . S
N14 C18 1.453 . S
N15 N14 1.234 . S
C16 H11 0.929 . S
C16 C17 1.373 . S
C16 C18 1.368 . S
C17 C16 1.373 . S
C17 C21 1.397 . S
C18 N14 1.453 . S
C18 C16 1.368 . S
C18 C19 1.373 . S
C19 H13 0.930 . S
C19 C18 1.373 . S
C19 C20 1.371 . S
C20 C19 1.371 . S
C20 C21 1.383 . S
C21 H12 0.931 . S
C21 C17 1.397 . S
C21 C20 1.383 . S
H22 C27 0.929 . S
H23 C32 0.931 . S
H24 C30 0.930 . S
N25 N26 1.234 1_556 S
N25 C29 1.453 . S
N26 N25 1.234 1_554 S
C27 H22 0.929 . S
C27 C28 1.373 . S
C27 C29 1.368 . S
C28 C27 1.373 . S
C28 C32 1.397 1_556 S
C29 N25 1.453 . S
C29 C27 1.368 . S
C29 C30 1.373 1_556 S
C30 H24 0.930 . S
C30 C29 1.373 1_554 S
C30 C31 1.371 . S
C31 C30 1.371 . S
C31 C32 1.383 . S
C32 H23 0.931 . S
C32 C28 1.397 1_554 S
C32 C31 1.383 . S
H33 C38 0.929 . S
H34 C43 0.931 . S
H35 C41 0.930 . S
N36 N37 1.234 . S
N36 C40 1.453 . S
N37 N36 1.234 . S
C38 H33 0.929 . S
C38 C39 1.373 . S
C38 C40 1.368 . S
C39 C38 1.373 . S
C39 C43 1.397 . S
C40 N36 1.453 . S
C40 C38 1.368 . S
C40 C41 1.373 . S
C41 H35 0.930 . S
C41 C40 1.373 . S
C41 C42 1.371 . S
C42 C41 1.371 . S
C42 C43 1.383 . S
C43 H34 0.931 . S
C43 C39 1.397 . S
C43 C42 1.383 . S
O44 Mn45 2.163 1_655 S
O44 C58 1.244 . S
Mn45 O44 2.163 1_455 S
Mn45 O48 2.160 1_545 S
Mn45 O49 2.221 . S
Mn45 O51 2.163 1_455 S
Mn45 O53 2.160 1_545 S
Mn45 O63 2.221 1_445 S
O46 Mn47 2.087 1_545 S
O46 C58 1.256 . S
Mn47 O46 2.087 1_565 S
Mn47 O54 2.089 1_655 S
Mn47 O63 2.290 . S
Mn47 O64 2.251 . S
O48 Mn45 2.160 1_565 S
O48 C59 1.239 . S
O49 Mn45 2.221 . S
O49 Mn50 2.290 . S
O49 C60 1.278 . S
Mn50 O49 2.290 . S
Mn50 O52 2.089 . S
Mn50 O55 2.251 . S
Mn50 O56 2.087 . S
O51 Mn45 2.163 1_655 S
O51 C61 1.244 . S
O52 Mn50 2.089 . S
O52 C59 1.256 1_545 S
O53 Mn45 2.160 1_565 S
O53 C62 1.239 . S
O54 Mn47 2.089 1_455 S
O54 C62 1.256 . S
O55 Mn50 2.251 . S
O55 C60 1.241 . S
O56 Mn50 2.087 . S
O56 C61 1.256 1_455 S
C57 O63 1.278 . S
C57 O64 1.241 . S
C58 O44 1.244 . S
C58 O46 1.256 . S
C59 O48 1.239 . S
C59 O52 1.256 1_565 S
C60 O49 1.278 . S
C60 O55 1.241 . S
C61 O51 1.244 . S
C61 O56 1.256 1_655 S
C62 O53 1.239 . S
C62 O54 1.256 . S
O63 Mn45 2.221 1_665 S
O63 Mn47 2.290 . S
O63 C57 1.278 . S
O64 Mn47 2.251 . S
O64 C57 1.241 . S
O65 Mn66 2.163 . S
O65 C79 1.244 . S
Mn66 O65 2.163 . S
Mn66 O69 2.160 1_554 S
Mn66 O70 2.221 . S
Mn66 O72 2.163 . S
Mn66 O74 2.160 . S
Mn66 O84 2.221 . S
O67 Mn68 2.087 . S
O67 C79 1.256 . S
Mn68 O67 2.087 . S
Mn68 O75 2.089 . S
Mn68 O84 2.290 . S
Mn68 O85 2.251 . S
O69 Mn66 2.160 1_556 S
O69 C80 1.239 . S
O70 Mn66 2.221 . S
O70 Mn71 2.290 1_554 S
O70 C81 1.278 . S
Mn71 O70 2.290 1_556 S
Mn71 O73 2.089 . S
Mn71 O76 2.251 1_556 S
Mn71 O77 2.087 . S
O72 Mn66 2.163 . S
O72 C82 1.244 1_554 S
O73 Mn71 2.089 . S
O73 C80 1.256 . S
O74 Mn66 2.160 . S
O74 C83 1.239 . S
O75 Mn68 2.089 . S
O75 C83 1.256 . S
O76 Mn71 2.251 1_554 S
O76 C81 1.241 . S
O77 Mn71 2.087 . S
O77 C82 1.256 . S
C78 O84 1.278 . S
C78 O85 1.241 . S
C79 O65 1.244 . S
C79 O67 1.256 . S
C80 O69 1.239 . S
C80 O73 1.256 . S
C81 O70 1.278 . S
C81 O76 1.241 . S
C82 O72 1.244 1_556 S
C82 O77 1.256 . S
C83 O74 1.239 . S
C83 O75 1.256 . S
O84 Mn66 2.221 . S
O84 Mn68 2.290 . S
O84 C78 1.278 . S
O85 Mn68 2.251 . S
O85 C78 1.241 . S
H86 C104 0.951 . S
H87 C106 0.951 . S
H88 C108 0.950 . S
H89 C109 0.950 . S
H90 C111 0.950 . S
H91 C114 0.950 . S
H92 C115 0.950 . S
H93 C117 0.950 . S
H94 C118 0.950 . S
H95 C119 0.951 . S
H96 C121 0.951 . S
H97 C123 0.950 . S
H98 C124 0.950 . S
H99 C126 0.950 . S
H100 C129 0.950 . S
H101 C130 0.950 . S
H102 C132 0.950 . S
H103 C133 0.950 . S
C104 H86 0.951 . S
C104 C105 1.366 . S
C104 C106 1.388 . S
C105 C104 1.366 . S
C105 C109 1.385 . S
C106 H87 0.951 . S
C106 C104 1.388 . S
C106 C107 1.366 . S
C107 C106 1.366 . S
C107 C108 1.414 . S
C107 C110 1.499 . S
C108 H88 0.950 . S
C108 C107 1.414 . S
C108 C109 1.374 . S
C109 H89 0.950 . S
C109 C105 1.385 . S
C109 C108 1.374 . S
C110 C107 1.499 . S
C110 C111 1.373 . S
C110 C112 1.389 . S
C111 H90 0.950 . S
C111 C110 1.373 . S
C111 C127 1.377 . S
C112 C110 1.389 . S
C112 C113 1.524 . S
C112 C126 1.377 . S
C113 C112 1.524 . S
C113 C114 1.397 . S
C113 C118 1.363 . S
C114 H91 0.950 . S
C114 C113 1.397 . S
C114 C115 1.334 . S
C115 H92 0.950 . S
C115 C114 1.334 . S
C115 C116 1.287 . S
C116 C115 1.287 . S
C116 C117 1.524 . S
C116 H135 0.913 . S
C117 H93 0.950 . S
C117 C116 1.524 . S
C117 C118 1.415 . S
C118 H94 0.950 . S
C118 C113 1.363 . S
C118 C117 1.415 . S
C119 H95 0.951 . S
C119 C120 1.366 . S
C119 C121 1.388 . S
C120 C119 1.366 . S
C120 C124 1.385 . S
C121 H96 0.951 . S
C121 C119 1.388 . S
C121 C122 1.366 . S
C122 C121 1.366 . S
C122 C123 1.414 . S
C122 C125 1.499 . S
C123 H97 0.950 . S
C123 C122 1.414 . S
C123 C124 1.374 . S
C124 H98 0.950 . S
C124 C120 1.385 . S
C124 C123 1.374 . S
C125 C122 1.499 . S
C125 C126 1.373 . S
C125 C127 1.389 . S
C126 H99 0.950 . S
C126 C112 1.377 . S
C126 C125 1.373 . S
C127 C111 1.377 . S
C127 C125 1.389 . S
C127 C128 1.524 . S
C128 C127 1.524 . S
C128 C129 1.397 . S
C128 C133 1.363 . S
C129 H100 0.950 . S
C129 C128 1.397 . S
C129 C130 1.334 . S
C130 H101 0.950 . S
C130 C129 1.334 . S
C130 C131 1.287 . S
C131 C130 1.287 . S
C131 C132 1.524 . S
C131 H134 0.999 . S
C132 H102 0.950 . S
C132 C131 1.524 . S
C132 C133 1.415 . S
C133 H103 0.950 . S
C133 C128 1.363 . S
C133 C132 1.415 . S
H134 C131 0.999 . S
H135 C116 0.913 . S
H136 C154 0.951 . S
H137 C156 0.951 . S
H138 C158 0.950 . S
H139 C159 0.950 . S
H140 C161 0.950 . S
H141 C164 0.950 . S
H142 C165 0.950 . S
H143 C167 0.950 . S
H144 C168 0.950 . S
H145 C169 0.951 . S
H146 C171 0.951 . S
H147 C173 0.950 . S
H148 C174 0.950 . S
H149 C176 0.950 . S
H150 C179 0.950 . S
H151 C180 0.950 . S
H152 C182 0.950 . S
H153 C183 0.950 . S
C154 H136 0.951 . S
C154 C155 1.366 . S
C154 C156 1.388 . S
C155 C154 1.366 . S
C155 C159 1.385 . S
C156 H137 0.951 . S
C156 C154 1.388 . S
C156 C157 1.366 . S
C157 C156 1.366 . S
C157 C158 1.414 . S
C157 C160 1.499 . S
C158 H138 0.950 . S
C158 C157 1.414 . S
C158 C159 1.374 . S
C159 H139 0.950 . S
C159 C155 1.385 . S
C159 C158 1.374 . S
C160 C157 1.499 . S
C160 C161 1.373 . S
C160 C162 1.389 . S
C161 H140 0.950 . S
C161 C160 1.373 . S
C161 C177 1.377 . S
C162 C160 1.389 . S
C162 C163 1.524 1_554 S
C162 C176 1.377 . S
C163 C162 1.524 1_556 S
C163 C164 1.397 . S
C163 C168 1.363 . S
C164 H141 0.950 . S
C164 C163 1.397 . S
C164 C165 1.334 . S
C165 H142 0.950 . S
C165 C164 1.334 . S
C165 C166 1.287 . S
C166 C165 1.287 . S
C166 C167 1.524 . S
C166 H185 0.913 . S
C167 H143 0.950 . S
C167 C166 1.524 . S
C167 C168 1.415 . S
C168 H144 0.950 . S
C168 C163 1.363 . S
C168 C167 1.415 . S
C169 H145 0.951 . S
C169 C170 1.366 . S
C169 C171 1.388 . S
C170 C169 1.366 . S
C170 C174 1.385 . S
C171 H146 0.951 . S
C171 C169 1.388 . S
C171 C172 1.366 . S
C172 C171 1.366 . S
C172 C173 1.414 . S
C172 C175 1.499 . S
C173 H147 0.950 . S
C173 C172 1.414 . S
C173 C174 1.374 . S
C174 H148 0.950 . S
C174 C170 1.385 . S
C174 C173 1.374 . S
C175 C172 1.499 . S
C175 C176 1.373 . S
C175 C177 1.389 . S
C176 H149 0.950 . S
C176 C162 1.377 . S
C176 C175 1.373 . S
C177 C161 1.377 . S
C177 C175 1.389 . S
C177 C178 1.524 . S
C178 C177 1.524 . S
C178 C179 1.397 . S
C178 C183 1.363 . S
C179 H150 0.950 . S
C179 C178 1.397 . S
C179 C180 1.334 . S
C180 H151 0.950 . S
C180 C179 1.334 . S
C180 C181 1.287 . S
C181 C180 1.287 . S
C181 C182 1.524 . S
C181 H184 0.999 . S
C182 H152 0.950 . S
C182 C181 1.524 . S
C182 C183 1.415 . S
C183 H153 0.950 . S
C183 C178 1.363 . S
C183 C182 1.415 . S
H184 C181 0.999 . S
H185 C166 0.913 . S
H186 C204 0.951 . S
H187 C206 0.951 . S
H188 C208 0.950 . S
H189 C209 0.950 . S
H190 C211 0.950 . S
H191 C214 0.950 . S
H192 C215 0.950 . S
H193 C217 0.950 . S
H194 C218 0.950 . S
H195 C219 0.951 . S
H196 C221 0.951 . S
H197 C223 0.950 . S
H198 C224 0.950 . S
H199 C226 0.950 . S
H200 C229 0.950 . S
H201 C230 0.950 . S
H202 C232 0.950 . S
H203 C233 0.950 . S
C204 H186 0.951 . S
C204 C205 1.366 . S
C204 C206 1.388 . S
C205 C204 1.366 . S
C205 C209 1.385 . S
C206 H187 0.951 . S
C206 C204 1.388 . S
C206 C207 1.366 . S
C207 C206 1.366 . S
C207 C208 1.414 . S
C207 C210 1.499 . S
C208 H188 0.950 . S
C208 C207 1.414 . S
C208 C209 1.374 . S
C209 H189 0.950 . S
C209 C205 1.385 . S
C209 C208 1.374 . S
C210 C207 1.499 . S
C210 C211 1.373 . S
C210 C212 1.389 . S
C211 H190 0.950 . S
C211 C210 1.373 . S
C211 C227 1.377 . S
C212 C210 1.389 . S
C212 C213 1.524 . S
C212 C226 1.377 . S
C213 C212 1.524 . S
C213 C214 1.397 . S
C213 C218 1.363 . S
C214 H191 0.950 . S
C214 C213 1.397 . S
C214 C215 1.334 . S
C215 H192 0.950 . S
C215 C214 1.334 . S
C215 C216 1.287 . S
C216 C215 1.287 . S
C216 C217 1.524 . S
C216 H235 0.913 . S
C217 H193 0.950 . S
C217 C216 1.524 . S
C217 C218 1.415 . S
C218 H194 0.950 . S
C218 C213 1.363 . S
C218 C217 1.415 . S
C219 H195 0.951 . S
C219 C220 1.366 . S
C219 C221 1.388 . S
C220 C219 1.366 . S
C220 C224 1.385 . S
C221 H196 0.951 . S
C221 C219 1.388 . S
C221 C222 1.366 . S
C222 C221 1.366 . S
C222 C223 1.414 . S
C222 C225 1.499 . S
C223 H197 0.950 . S
C223 C222 1.414 . S
C223 C224 1.374 . S
C224 H198 0.950 . S
C224 C220 1.385 . S
C224 C223 1.374 . S
C225 C222 1.499 . S
C225 C226 1.373 . S
C225 C227 1.389 . S
C226 H199 0.950 . S
C226 C212 1.377 . S
C226 C225 1.373 . S
C227 C211 1.377 . S
C227 C225 1.389 . S
C227 C228 1.524 . S
C228 C227 1.524 . S
C228 C229 1.397 . S
C228 C233 1.363 . S
C229 H200 0.950 . S
C229 C228 1.397 . S
C229 C230 1.334 . S
C230 H201 0.950 . S
C230 C229 1.334 . S
C230 C231 1.287 . S
C231 C230 1.287 . S
C231 C232 1.524 . S
C231 H234 0.999 . S
C232 H202 0.950 . S
C232 C231 1.524 . S
C232 C233 1.415 . S
C233 H203 0.950 . S
C233 C228 1.363 . S
C233 C232 1.415 . S
H234 C231 0.999 . S
H235 C216 0.913 . S
H236 C254 0.951 . S
H237 C256 0.951 . S
H238 C258 0.950 . S
H239 C259 0.950 . S
H240 C261 0.950 . S
H241 C264 0.950 . S
H242 C265 0.950 . S
H243 C267 0.950 . S
H244 C268 0.950 . S
H245 C269 0.951 1_556 S
H246 C271 0.947 1_556 S
H247 C273 0.950 . S
H248 C274 0.950 . S
H249 C276 0.950 . S
H250 C279 0.950 . S
H251 C280 0.950 . S
H252 C282 0.950 . S
H253 C283 0.950 . S
C254 H236 0.951 . S
C254 C255 1.366 . S
C254 C256 1.388 . S
C255 C254 1.366 . S
C255 C259 1.385 1_554 S
C256 H237 0.951 . S
C256 C254 1.388 . S
C256 C257 1.366 . S
C257 C256 1.366 . S
C257 C258 1.414 1_554 S
C257 C260 1.499 . S
C258 H238 0.950 . S
C258 C257 1.414 1_556 S
C258 C259 1.374 . S
C259 H239 0.950 . S
C259 C255 1.385 1_556 S
C259 C258 1.374 . S
C260 C257 1.499 . S
C260 C261 1.373 1_554 S
C260 C262 1.389 . S
C261 H240 0.950 . S
C261 C260 1.373 1_556 S
C261 C277 1.377 . S
C262 C260 1.389 . S
C262 C263 1.524 . S
C262 C276 1.377 . S
C263 C262 1.524 . S
C263 C264 1.397 . S
C263 C268 1.363 . S
C264 H241 0.950 . S
C264 C263 1.397 . S
C264 C265 1.334 . S
C265 H242 0.950 . S
C265 C264 1.334 . S
C265 C266 1.287 . S
C266 C265 1.287 . S
C266 C267 1.524 . S
C266 H285 0.913 . S
C267 H243 0.950 . S
C267 C266 1.524 . S
C267 C268 1.415 . S
C268 H244 0.950 . S
C268 C263 1.363 . S
C268 C267 1.415 . S
C269 H245 0.951 1_554 S
C269 C270 1.366 . S
C269 C271 1.389 . S
C270 C269 1.366 . S
C270 C274 1.385 . S
C271 H246 0.947 1_554 S
C271 C269 1.389 . S
C271 C272 1.368 . S
C272 C271 1.368 . S
C272 C273 1.414 . S
C272 C275 1.499 . S
C273 H247 0.950 . S
C273 C272 1.414 . S
C273 C274 1.374 . S
C274 H248 0.950 . S
C274 C270 1.385 . S
C274 C273 1.374 . S
C275 C272 1.499 . S
C275 C276 1.373 . S
C275 C277 1.389 1_554 S
C276 H249 0.950 . S
C276 C262 1.377 . S
C276 C275 1.373 . S
C277 C261 1.377 . S
C277 C275 1.389 1_556 S
C277 C278 1.524 . S
C278 C277 1.524 . S
C278 C279 1.397 . S
C278 C283 1.363 . S
C279 H250 0.950 . S
C279 C278 1.397 . S
C279 C280 1.334 . S
C280 H251 0.950 . S
C280 C279 1.334 . S
C280 C281 1.287 . S
C281 C280 1.287 . S
C281 C282 1.524 . S
C281 H284 0.999 . S
C282 H252 0.950 . S
C282 C281 1.524 . S
C282 C283 1.415 . S
C283 H253 0.950 . S
C283 C278 1.363 . S
C283 C282 1.415 . S
H284 C281 0.999 . S
H285 C266 0.913 . S
H286 C304 0.951 . S
H287 C306 0.951 . S
H288 C308 0.950 . S
H289 C309 0.950 . S
H290 C311 0.950 . S
H291 C314 0.950 . S
H292 C315 0.950 . S
H293 C317 0.950 . S
H294 C318 0.950 . S
H295 C319 0.951 . S
H296 C321 0.951 . S
H297 C323 0.950 . S
H298 C324 0.950 . S
H299 C326 0.950 . S
H300 C329 0.950 . S
H301 C330 0.950 . S
H302 C332 0.950 . S
H303 C333 0.950 . S
C304 H286 0.951 . S
C304 C305 1.366 . S
C304 C306 1.388 . S
C305 C304 1.366 . S
C305 C309 1.385 . S
C306 H287 0.951 . S
C306 C304 1.388 . S
C306 C307 1.366 . S
C307 C306 1.366 . S
C307 C308 1.414 . S
C307 C310 1.499 . S
C308 H288 0.950 . S
C308 C307 1.414 . S
C308 C309 1.374 . S
C309 H289 0.950 . S
C309 C305 1.385 . S
C309 C308 1.374 . S
C310 C307 1.499 . S
C310 C311 1.373 . S
C310 C312 1.389 . S
C311 H290 0.950 . S
C311 C310 1.373 . S
C311 C327 1.377 . S
C312 C310 1.389 . S
C312 C313 1.524 . S
C312 C326 1.377 . S
C313 C312 1.524 . S
C313 C314 1.397 . S
C313 C318 1.363 . S
C314 H291 0.950 . S
C314 C313 1.397 . S
C314 C315 1.334 . S
C315 H292 0.950 . S
C315 C314 1.334 . S
C315 C316 1.287 . S
C316 C315 1.287 . S
C316 C317 1.524 . S
C316 H335 0.913 . S
C317 H293 0.950 . S
C317 C316 1.524 . S
C317 C318 1.415 . S
C318 H294 0.950 . S
C318 C313 1.363 . S
C318 C317 1.415 . S
C319 H295 0.951 . S
C319 C320 1.366 . S
C319 C321 1.388 . S
C320 C319 1.366 . S
C320 C324 1.385 . S
C321 H296 0.951 . S
C321 C319 1.388 . S
C321 C322 1.366 . S
C322 C321 1.366 . S
C322 C323 1.414 . S
C322 C325 1.499 . S
C323 H297 0.950 . S
C323 C322 1.414 . S
C323 C324 1.374 . S
C324 H298 0.950 . S
C324 C320 1.385 . S
C324 C323 1.374 . S
C325 C322 1.499 . S
C325 C326 1.373 . S
C325 C327 1.389 . S
C326 H299 0.950 . S
C326 C312 1.377 . S
C326 C325 1.373 . S
C327 C311 1.377 . S
C327 C325 1.389 . S
C327 C328 1.524 . S
C328 C327 1.524 . S
C328 C329 1.397 . S
C328 C333 1.363 . S
C329 H300 0.950 . S
C329 C328 1.397 . S
C329 C330 1.334 . S
C330 H301 0.950 . S
C330 C329 1.334 . S
C330 C331 1.287 . S
C331 C330 1.287 . S
C331 C332 1.524 . S
C331 H334 0.999 . S
C332 H302 0.950 . S
C332 C331 1.524 . S
C332 C333 1.415 . S
C333 H303 0.950 . S
C333 C328 1.363 . S
C333 C332 1.415 . S
H334 C331 0.999 . S
H335 C316 0.913 . S
H336 C354 0.951 . S
H337 C356 0.951 . S
H338 C358 0.950 . S
H339 C359 0.950 . S
H340 C361 0.950 . S
H341 C364 0.950 . S
H342 C365 0.950 . S
H343 C367 0.950 . S
H344 C368 0.950 . S
H345 C369 0.951 . S
H346 C371 0.951 . S
H347 C373 0.950 . S
H348 C374 0.950 . S
H349 C376 0.950 . S
H350 C379 0.950 . S
H351 C380 0.950 . S
H352 C382 0.950 . S
H353 C383 0.950 . S
C354 H336 0.951 . S
C354 C355 1.366 . S
C354 C356 1.388 . S
C355 C354 1.366 . S
C355 C359 1.385 . S
C356 H337 0.951 . S
C356 C354 1.388 . S
C356 C357 1.366 . S
C357 C356 1.366 . S
C357 C358 1.414 . S
C357 C360 1.499 . S
C358 H338 0.950 . S
C358 C357 1.414 . S
C358 C359 1.374 . S
C359 H339 0.950 . S
C359 C355 1.385 . S
C359 C358 1.374 . S
C360 C357 1.499 . S
C360 C361 1.373 . S
C360 C362 1.389 . S
C361 H340 0.950 . S
C361 C360 1.373 . S
C361 C377 1.377 . S
C362 C360 1.389 . S
C362 C363 1.524 . S
C362 C376 1.377 . S
C363 C362 1.524 . S
C363 C364 1.397 . S
C363 C368 1.363 . S
C364 H341 0.950 . S
C364 C363 1.397 . S
C364 C365 1.334 . S
C365 H342 0.950 . S
C365 C364 1.334 . S
C365 C366 1.287 . S
C366 C365 1.287 . S
C366 C367 1.524 . S
C366 H385 0.913 . S
C367 H343 0.950 . S
C367 C366 1.524 . S
C367 C368 1.415 . S
C368 H344 0.950 . S
C368 C363 1.363 . S
C368 C367 1.415 . S
C369 H345 0.951 . S
C369 C370 1.366 . S
C369 C371 1.388 . S
C370 C369 1.366 . S
C370 C374 1.385 . S
C371 H346 0.951 . S
C371 C369 1.388 . S
C371 C372 1.366 . S
C372 C371 1.366 . S
C372 C373 1.414 . S
C372 C375 1.499 . S
C373 H347 0.950 . S
C373 C372 1.414 . S
C373 C374 1.374 . S
C374 H348 0.950 . S
C374 C370 1.385 . S
C374 C373 1.374 . S
C375 C372 1.499 . S
C375 C376 1.373 . S
C375 C377 1.389 . S
C376 H349 0.950 . S
C376 C362 1.377 . S
C376 C375 1.373 . S
C377 C361 1.377 . S
C377 C375 1.389 . S
C377 C378 1.524 . S
C378 C377 1.524 . S
C378 C379 1.397 . S
C378 C383 1.363 . S
C379 H350 0.950 . S
C379 C378 1.397 . S
C379 C380 1.334 . S
C380 H351 0.950 . S
C380 C379 1.334 . S
C380 C381 1.287 . S
C381 C380 1.287 . S
C381 C382 1.524 . S
C381 H384 0.999 . S
C382 H352 0.950 . S
C382 C381 1.524 . S
C382 C383 1.415 . S
C383 H353 0.950 . S
C383 C378 1.363 . S
C383 C382 1.415 . S
H384 C381 0.999 . S
H385 C366 0.913 . S
H386 C404 0.951 . S
H387 C406 0.951 . S
H388 C408 0.950 . S
H389 C409 0.950 . S
H390 C411 0.950 . S
H391 C414 0.950 . S
H392 C415 0.950 . S
H393 C417 0.950 . S
H394 C418 0.950 . S
H395 C419 0.951 . S
H396 C421 0.951 . S
H397 C423 0.950 . S
H398 C424 0.950 1_455 S
H399 C426 0.950 . S
H400 C429 0.950 . S
H401 C430 0.950 . S
H402 C432 0.950 . S
H403 C433 0.950 . S
C404 H386 0.951 . S
C404 C405 1.366 . S
C404 C406 1.388 . S
C405 C404 1.366 . S
C405 C409 1.385 . S
C406 H387 0.951 . S
C406 C404 1.388 . S
C406 C407 1.366 . S
C407 C406 1.366 . S
C407 C408 1.414 . S
C407 C410 1.499 . S
C408 H388 0.950 . S
C408 C407 1.414 . S
C408 C409 1.374 . S
C409 H389 0.950 . S
C409 C405 1.385 . S
C409 C408 1.374 . S
C410 C407 1.499 . S
C410 C411 1.373 . S
C410 C412 1.389 . S
C411 H390 0.950 . S
C411 C410 1.373 . S
C411 C427 1.377 . S
C412 C410 1.389 . S
C412 C413 1.524 . S
C412 C426 1.377 . S
C413 C412 1.524 . S
C413 C414 1.397 . S
C413 C418 1.363 . S
C414 H391 0.950 . S
C414 C413 1.397 . S
C414 C415 1.334 . S
C415 H392 0.950 . S
C415 C414 1.334 . S
C415 C416 1.287 . S
C416 C415 1.287 . S
C416 C417 1.524 . S
C416 H435 0.913 . S
C417 H393 0.950 . S
C417 C416 1.524 . S
C417 C418 1.415 . S
C418 H394 0.950 . S
C418 C413 1.363 . S
C418 C417 1.415 . S
C419 H395 0.951 . S
C419 C420 1.366 . S
C419 C421 1.388 . S
C420 C419 1.366 . S
C420 C424 1.385 . S
C421 H396 0.951 . S
C421 C419 1.388 . S
C421 C422 1.366 . S
C422 C421 1.366 . S
C422 C423 1.414 . S
C422 C425 1.499 . S
C423 H397 0.950 . S
C423 C422 1.414 . S
C423 C424 1.374 . S
C424 H398 0.950 1_655 S
C424 C420 1.385 . S
C424 C423 1.374 . S
C425 C422 1.499 . S
C425 C426 1.373 . S
C425 C427 1.389 . S
C426 H399 0.950 . S
C426 C412 1.377 . S
C426 C425 1.373 . S
C427 C411 1.377 . S
C427 C425 1.389 . S
C427 C428 1.524 . S
C428 C427 1.524 . S
C428 C429 1.397 . S
C428 C433 1.363 . S
C429 H400 0.950 . S
C429 C428 1.397 . S
C429 C430 1.334 . S
C430 H401 0.950 . S
C430 C429 1.334 . S
C430 C431 1.287 . S
C431 C430 1.287 . S
C431 C432 1.524 . S
C431 H434 0.999 . S
C432 H402 0.950 . S
C432 C431 1.524 . S
C432 C433 1.415 . S
C433 H403 0.950 . S
C433 C428 1.363 . S
C433 C432 1.415 . S
H434 C431 0.999 . S
H435 C416 0.913 . S
H436 C454 0.951 . S
H437 C456 0.951 . S
H438 C458 0.950 . S
H439 C459 0.950 . S
H440 C461 0.950 . S
H441 C464 0.950 . S
H442 C465 0.950 . S
H443 C467 0.950 . S
H444 C468 0.950 . S
H445 C469 0.951 . S
H446 C471 0.951 . S
H447 C473 0.950 . S
H448 C474 0.950 . S
H449 C476 0.950 . S
H450 C479 0.950 . S
H451 C480 0.950 . S
H452 C482 0.950 . S
H453 C483 0.950 . S
C454 H436 0.951 . S
C454 C455 1.366 . S
C454 C456 1.388 . S
C455 C454 1.366 . S
C455 C459 1.385 . S
C456 H437 0.951 . S
C456 C454 1.388 . S
C456 C457 1.366 . S
C457 C456 1.366 . S
C457 C458 1.414 . S
C457 C460 1.499 . S
C458 H438 0.950 . S
C458 C457 1.414 . S
C458 C459 1.374 . S
C459 H439 0.950 . S
C459 C455 1.385 . S
C459 C458 1.374 . S
C460 C457 1.499 . S
C460 C461 1.373 . S
C460 C462 1.389 . S
C461 H440 0.950 . S
C461 C460 1.373 . S
C461 C477 1.377 . S
C462 C460 1.389 . S
C462 C463 1.524 . S
C462 C476 1.377 . S
C463 C462 1.524 . S
C463 C464 1.397 . S
C463 C468 1.363 . S
C464 H441 0.950 . S
C464 C463 1.397 . S
C464 C465 1.334 . S
C465 H442 0.950 . S
C465 C464 1.334 . S
C465 C466 1.287 . S
C466 C465 1.287 . S
C466 C467 1.524 . S
C466 H485 0.913 . S
C467 H443 0.950 . S
C467 C466 1.524 . S
C467 C468 1.415 . S
C468 H444 0.950 . S
C468 C463 1.363 . S
C468 C467 1.415 . S
C469 H445 0.951 . S
C469 C470 1.366 . S
C469 C471 1.388 . S
C470 C469 1.366 . S
C470 C474 1.385 . S
C471 H446 0.951 . S
C471 C469 1.388 . S
C471 C472 1.366 . S
C472 C471 1.366 . S
C472 C473 1.414 . S
C472 C475 1.499 . S
C473 H447 0.950 . S
C473 C472 1.414 . S
C473 C474 1.374 . S
C474 H448 0.950 . S
C474 C470 1.385 . S
C474 C473 1.374 . S
C475 C472 1.499 . S
C475 C476 1.373 . S
C475 C477 1.389 . S
C476 H449 0.950 . S
C476 C462 1.377 . S
C476 C475 1.373 . S
C477 C461 1.377 . S
C477 C475 1.389 . S
C477 C478 1.524 . S
C478 C477 1.524 . S
C478 C479 1.397 . S
C478 C483 1.363 . S
C479 H450 0.950 . S
C479 C478 1.397 . S
C479 C480 1.334 . S
C480 H451 0.950 . S
C480 C479 1.334 . S
C480 C481 1.287 . S
C481 C480 1.287 . S
C481 C482 1.524 . S
C481 H484 0.999 . S
C482 H452 0.950 . S
C482 C481 1.524 . S
C482 C483 1.415 . S
C483 H453 0.950 . S
C483 C478 1.363 . S
C483 C482 1.415 . S
H484 C481 0.999 . S
H485 C466 0.913 . S
H486 C504 0.951 . S
H487 C506 0.951 . S
H488 C508 0.950 . S
H489 C509 0.950 . S
H490 C511 0.950 . S
H491 C514 0.950 . S
H492 C515 0.950 . S
H493 C517 0.950 . S
H494 C518 0.950 . S
H495 C519 0.951 . S
H496 C521 0.951 . S
H497 C523 0.950 . S
H498 C524 0.950 . S
H499 C526 0.950 . S
H500 C529 0.950 . S
H501 C530 0.950 . S
H502 C532 0.950 . S
H503 C533 0.950 . S
C504 H486 0.951 . S
C504 C505 1.366 . S
C504 C506 1.388 . S
C505 C504 1.366 . S
C505 C509 1.385 . S
C506 H487 0.951 . S
C506 C504 1.388 . S
C506 C507 1.366 . S
C507 C506 1.366 . S
C507 C508 1.414 . S
C507 C510 1.499 . S
C508 H488 0.950 . S
C508 C507 1.414 . S
C508 C509 1.374 . S
C509 H489 0.950 . S
C509 C505 1.385 . S
C509 C508 1.374 . S
C510 C507 1.499 . S
C510 C511 1.373 . S
C510 C512 1.389 . S
C511 H490 0.950 . S
C511 C510 1.373 . S
C511 C527 1.377 . S
C512 C510 1.389 . S
C512 C513 1.524 . S
C512 C526 1.377 . S
C513 C512 1.524 . S
C513 C514 1.397 . S
C513 C518 1.363 . S
C514 H491 0.950 . S
C514 C513 1.397 . S
C514 C515 1.334 . S
C515 H492 0.950 . S
C515 C514 1.334 . S
C515 C516 1.287 . S
C516 C515 1.287 . S
C516 C517 1.524 . S
C516 H535 0.913 . S
C517 H493 0.950 . S
C517 C516 1.524 . S
C517 C518 1.415 . S
C518 H494 0.950 . S
C518 C513 1.363 . S
C518 C517 1.415 . S
C519 H495 0.951 . S
C519 C520 1.366 . S
C519 C521 1.388 . S
C520 C519 1.366 . S
C520 C524 1.385 . S
C521 H496 0.951 . S
C521 C519 1.388 . S
C521 C522 1.366 . S
C522 C521 1.366 . S
C522 C523 1.414 . S
C522 C525 1.499 . S
C523 H497 0.950 . S
C523 C522 1.414 . S
C523 C524 1.374 . S
C524 H498 0.950 . S
C524 C520 1.385 . S
C524 C523 1.374 . S
C525 C522 1.499 . S
C525 C526 1.373 . S
C525 C527 1.389 . S
C526 H499 0.950 . S
C526 C512 1.377 . S
C526 C525 1.373 . S
C527 C511 1.377 . S
C527 C525 1.389 . S
C527 C528 1.524 . S
C528 C527 1.524 . S
C528 C529 1.397 . S
C528 C533 1.363 . S
C529 H500 0.950 . S
C529 C528 1.397 . S
C529 C530 1.334 . S
C530 H501 0.950 . S
C530 C529 1.334 . S
C530 C531 1.287 . S
C531 C530 1.287 . S
C531 C532 1.524 . S
C531 H534 0.999 . S
C532 H502 0.950 . S
C532 C531 1.524 . S
C532 C533 1.415 . S
C533 H503 0.950 . S
C533 C528 1.363 . S
C533 C532 1.415 . S
H534 C531 0.999 . S
H535 C516 0.913 . S
H536 C554 0.951 . S
H537 C556 0.951 . S
H538 C558 0.950 . S
H539 C559 0.950 . S
H540 C561 0.950 . S
H541 C564 0.950 . S
H542 C565 0.950 . S
H543 C567 0.950 . S
H544 C568 0.950 . S
H545 C569 0.951 . S
H546 C571 0.951 . S
H547 C573 0.950 . S
H548 C574 0.950 . S
H549 C576 0.950 . S
H550 C579 0.950 . S
H551 C580 0.950 1_565 S
H552 C582 0.950 . S
H553 C583 0.950 . S
C554 H536 0.951 . S
C554 C555 1.366 . S
C554 C556 1.388 . S
C555 C554 1.366 . S
C555 C559 1.385 . S
C556 H537 0.951 . S
C556 C554 1.388 . S
C556 C557 1.366 . S
C557 C556 1.366 . S
C557 C558 1.414 . S
C557 C560 1.499 . S
C558 H538 0.950 . S
C558 C557 1.414 . S
C558 C559 1.374 . S
C559 H539 0.950 . S
C559 C555 1.385 . S
C559 C558 1.374 . S
C560 C557 1.499 . S
C560 C561 1.373 . S
C560 C562 1.389 . S
C561 H540 0.950 . S
C561 C560 1.373 . S
C561 C577 1.377 . S
C562 C560 1.389 . S
C562 C563 1.524 . S
C562 C576 1.377 . S
C563 C562 1.524 . S
C563 C564 1.397 . S
C563 C568 1.363 . S
C564 H541 0.950 . S
C564 C563 1.397 . S
C564 C565 1.334 . S
C565 H542 0.950 . S
C565 C564 1.334 . S
C565 C566 1.287 . S
C566 C565 1.287 . S
C566 C567 1.524 . S
C566 H585 0.913 . S
C567 H543 0.950 . S
C567 C566 1.524 . S
C567 C568 1.415 . S
C568 H544 0.950 . S
C568 C563 1.363 . S
C568 C567 1.415 . S
C569 H545 0.951 . S
C569 C570 1.366 . S
C569 C571 1.388 . S
C570 C569 1.366 . S
C570 C574 1.385 . S
C571 H546 0.951 . S
C571 C569 1.388 . S
C571 C572 1.366 . S
C572 C571 1.366 . S
C572 C573 1.414 . S
C572 C575 1.499 . S
C573 H547 0.950 . S
C573 C572 1.414 . S
C573 C574 1.374 . S
C574 H548 0.950 . S
C574 C570 1.385 . S
C574 C573 1.374 . S
C575 C572 1.499 . S
C575 C576 1.373 . S
C575 C577 1.389 . S
C576 H549 0.950 . S
C576 C562 1.377 . S
C576 C575 1.373 . S
C577 C561 1.377 . S
C577 C575 1.389 . S
C577 C578 1.524 . S
C578 C577 1.524 . S
C578 C579 1.397 . S
C578 C583 1.363 . S
C579 H550 0.950 . S
C579 C578 1.397 . S
C579 C580 1.334 . S
C580 H551 0.950 1_545 S
C580 C579 1.334 . S
C580 C581 1.287 . S
C581 C580 1.287 . S
C581 C582 1.524 . S
C581 H584 0.999 1_545 S
C582 H552 0.950 . S
C582 C581 1.524 . S
C582 C583 1.415 . S
C583 H553 0.950 . S
C583 C578 1.363 . S
C583 C582 1.415 . S
H584 C581 0.999 1_565 S
H585 C566 0.913 . S
H586 C604 0.951 . S
H587 C606 0.951 . S
H588 C608 0.950 . S
H589 C609 0.950 . S
H590 C611 0.950 . S
H591 C614 0.950 . S
H592 C615 0.950 . S
H593 C617 0.950 . S
H594 C618 0.950 . S
H595 C619 0.951 . S
H596 C621 0.951 . S
H597 C623 0.950 . S
H598 C624 0.950 . S
H599 C626 0.950 . S
H600 C629 0.950 . S
H601 C630 0.950 . S
H602 C632 0.950 . S
H603 C633 0.950 . S
C604 H586 0.951 . S
C604 C605 1.366 . S
C604 C606 1.388 . S
C605 C604 1.366 . S
C605 C609 1.385 . S
C606 H587 0.951 . S
C606 C604 1.388 . S
C606 C607 1.366 . S
C607 C606 1.366 . S
C607 C608 1.414 . S
C607 C610 1.499 . S
C608 H588 0.950 . S
C608 C607 1.414 . S
C608 C609 1.374 . S
C609 H589 0.950 . S
C609 C605 1.385 . S
C609 C608 1.374 . S
C610 C607 1.499 . S
C610 C611 1.373 . S
C610 C612 1.389 . S
C611 H590 0.950 . S
C611 C610 1.373 . S
C611 C627 1.377 . S
C612 C610 1.389 . S
C612 C613 1.524 . S
C612 C626 1.377 . S
C613 C612 1.524 . S
C613 C614 1.397 . S
C613 C618 1.363 . S
C614 H591 0.950 . S
C614 C613 1.397 . S
C614 C615 1.334 . S
C615 H592 0.950 . S
C615 C614 1.334 . S
C615 C616 1.287 . S
C616 C615 1.287 . S
C616 C617 1.524 . S
C616 H635 0.913 . S
C617 H593 0.950 . S
C617 C616 1.524 . S
C617 C618 1.415 . S
C618 H594 0.950 . S
C618 C613 1.363 . S
C618 C617 1.415 . S
C619 H595 0.951 . S
C619 C620 1.366 . S
C619 C621 1.388 . S
C620 C619 1.366 . S
C620 C624 1.385 . S
C621 H596 0.951 . S
C621 C619 1.388 . S
C621 C622 1.366 . S
C622 C621 1.366 . S
C622 C623 1.414 . S
C622 C625 1.499 . S
C623 H597 0.950 . S
C623 C622 1.414 . S
C623 C624 1.374 . S
C624 H598 0.950 . S
C624 C620 1.385 . S
C624 C623 1.374 . S
C625 C622 1.499 . S
C625 C626 1.373 . S
C625 C627 1.389 . S
C626 H599 0.950 . S
C626 C612 1.377 . S
C626 C625 1.373 . S
C627 C611 1.377 . S
C627 C625 1.389 . S
C627 C628 1.524 . S
C628 C627 1.524 . S
C628 C629 1.397 . S
C628 C633 1.363 . S
C629 H600 0.950 . S
C629 C628 1.397 . S
C629 C630 1.334 . S
C630 H601 0.950 . S
C630 C629 1.334 . S
C630 C631 1.287 . S
C631 C630 1.287 . S
C631 C632 1.524 . S
C631 H634 0.999 . S
C632 H602 0.950 . S
C632 C631 1.524 . S
C632 C633 1.415 . S
C633 H603 0.950 . S
C633 C628 1.363 . S
C633 C632 1.415 . S
H634 C631 0.999 . S
H635 C616 0.913 . S
H636 C654 0.951 1_554 S
H637 C656 0.951 . S
H638 C658 0.950 . S
H639 C659 0.950 . S
H640 C661 0.950 . S
H641 C664 0.950 . S
H642 C665 0.950 . S
H643 C667 0.950 . S
H644 C668 0.950 . S
H645 C669 0.951 . S
H646 C671 0.951 . S
H647 C673 0.950 . S
H648 C674 0.950 . S
H649 C676 0.950 . S
H650 C679 0.953 . S
H651 C680 0.950 . S
H652 C682 0.950 . S
H653 C683 0.950 . S
C654 H636 0.951 1_556 S
C654 C655 1.366 . S
C654 C656 1.388 . S
C655 C654 1.366 . S
C655 C659 1.385 . S
C656 H637 0.951 . S
C656 C654 1.388 . S
C656 C657 1.366 . S
C657 C656 1.366 . S
C657 C658 1.414 . S
C657 C660 1.499 . S
C658 H638 0.950 . S
C658 C657 1.414 . S
C658 C659 1.374 . S
C659 H639 0.950 . S
C659 C655 1.385 . S
C659 C658 1.374 . S
C660 C657 1.499 . S
C660 C661 1.373 . S
C660 C662 1.389 . S
C661 H640 0.950 . S
C661 C660 1.373 . S
C661 C677 1.377 . S
C662 C660 1.389 . S
C662 C663 1.524 . S
C662 C676 1.377 . S
C663 C662 1.524 . S
C663 C664 1.397 . S
C663 C668 1.363 . S
C664 H641 0.950 . S
C664 C663 1.397 . S
C664 C665 1.334 . S
C665 H642 0.950 . S
C665 C664 1.334 . S
C665 C666 1.287 . S
C666 C665 1.287 . S
C666 C667 1.524 . S
C666 H685 0.913 . S
C667 H643 0.950 . S
C667 C666 1.524 . S
C667 C668 1.415 . S
C668 H644 0.950 . S
C668 C663 1.363 . S
C668 C667 1.415 . S
C669 H645 0.951 . S
C669 C670 1.366 . S
C669 C671 1.388 . S
C670 C669 1.366 . S
C670 C674 1.385 . S
C671 H646 0.951 . S
C671 C669 1.388 . S
C671 C672 1.366 . S
C672 C671 1.366 . S
C672 C673 1.414 . S
C672 C675 1.499 . S
C673 H647 0.950 . S
C673 C672 1.414 . S
C673 C674 1.374 . S
C674 H648 0.950 . S
C674 C670 1.385 . S
C674 C673 1.374 . S
C675 C672 1.499 . S
C675 C676 1.373 . S
C675 C677 1.389 . S
C676 H649 0.950 . S
C676 C662 1.377 . S
C676 C675 1.373 . S
C677 C661 1.377 . S
C677 C675 1.389 . S
C677 C678 1.524 . S
C678 C677 1.524 . S
C678 C679 1.429 . S
C678 C683 1.363 . S
C679 H650 0.953 . S
C679 C678 1.429 . S
C679 C680 1.300 1_565 S
C680 H651 0.950 . S
C680 C679 1.300 1_545 S
C680 C681 1.287 . S
C681 C680 1.287 . S
C681 C682 1.524 . S
C681 H684 0.999 . S
C682 H652 0.950 . S
C682 C681 1.524 . S
C682 C683 1.415 1_545 S
C683 H653 0.950 . S
C683 C678 1.363 . S
C683 C682 1.415 1_565 S
H684 C681 0.999 . S
H685 C666 0.913 . S
C120 C60 1.230 . S
C105 N37 1.412 . S
C155 N4 1.446 . S
C170 C81 1.252 . S
C205 N15 1.621 . S
C220 C57 1.430 . S
C255 N26 1.621 . S
C270 C78 1.413 . S
C320 C62 1.511 . S
C305 C9 1.522 . S
C370 C82 1.561 . S
C355 C17 1.621 . S
C405 C31 1.596 . S
C420 C58 1.562 . S
C455 C42 1.528 . S
C470 C80 1.482 . S
C520 C79 1.468 . S
C505 C20 1.503 . S
C570 C61 1.470 . S
C555 C28 1.525 . S
C620 C83 1.415 . S
C605 C39 1.451 . S
C655 C6 1.450 1_556 S
C670 C59 1.400 . S
