# Generated by pormake.
# Topology wbl, (4,4)-cn, num edge types: 1
# Building blocks:
#     Node 0, Type 0, BuildingBlock: MUDLON_clean_linker_0, # of connection points: 4
#     Node 1, Type 0, BuildingBlock: MUDLON_clean_linker_0, # of connection points: 4
#     Node 2, Type 0, BuildingBlock: MUDLON_clean_linker_0, # of connection points: 4
#     Node 3, Type 0, BuildingBlock: MUDLON_clean_linker_0, # of connection points: 4
#     Node 4, Type 0, BuildingBlock: MUDLON_clean_linker_0, # of connection points: 4
#     Node 5, Type 0, BuildingBlock: MUDLON_clean_linker_0, # of connection points: 4
#     Node 6, Type 0, BuildingBlock: MUDLON_clean_linker_0, # of connection points: 4
#     Node 7, Type 0, BuildingBlock: MUDLON_clean_linker_0, # of connection points: 4
#     Node 8, Type 1, BuildingBlock: KUFVIS_clean_sbu_0, # of connection points: 4
#     Node 9, Type 1, BuildingBlock: KUFVIS_clean_sbu_0, # of connection points: 4
#     Node 10, Type 1, BuildingBlock: KUFVIS_clean_sbu_0, # of connection points: 4
#     Node 11, Type 1, BuildingBlock: KUFVIS_clean_sbu_0, # of connection points: 4
#     Node 12, Type 1, BuildingBlock: KUFVIS_clean_sbu_0, # of connection points: 4
#     Node 13, Type 1, BuildingBlock: KUFVIS_clean_sbu_0, # of connection points: 4
#     Node 14, Type 1, BuildingBlock: KUFVIS_clean_sbu_0, # of connection points: 4
#     Node 15, Type 1, BuildingBlock: KUFVIS_clean_sbu_0, # of connection points: 4
#     Edge 16, Type (0, 1), BuildingBlock: XIVTED_clean_linker_0, # of connection points: 2
#     Edge 17, Type (0, 1), BuildingBlock: XIVTED_clean_linker_0, # of connection points: 2
#     Edge 18, Type (0, 1), BuildingBlock: XIVTED_clean_linker_0, # of connection points: 2
#     Edge 19, Type (0, 1), BuildingBlock: XIVTED_clean_linker_0, # of connection points: 2
#     Edge 20, Type (0, 1), BuildingBlock: XIVTED_clean_linker_0, # of connection points: 2
#     Edge 21, Type (0, 1), BuildingBlock: XIVTED_clean_linker_0, # of connection points: 2
#     Edge 22, Type (0, 1), BuildingBlock: XIVTED_clean_linker_0, # of connection points: 2
#     Edge 23, Type (0, 1), BuildingBlock: XIVTED_clean_linker_0, # of connection points: 2
#     Edge 24, Type (0, 1), BuildingBlock: XIVTED_clean_linker_0, # of connection points: 2
#     Edge 25, Type (0, 1), BuildingBlock: XIVTED_clean_linker_0, # of connection points: 2
#     Edge 26, Type (0, 1), BuildingBlock: XIVTED_clean_linker_0, # of connection points: 2
#     Edge 27, Type (0, 1), BuildingBlock: XIVTED_clean_linker_0, # of connection points: 2
#     Edge 28, Type (0, 1), BuildingBlock: XIVTED_clean_linker_0, # of connection points: 2
#     Edge 29, Type (0, 1), BuildingBlock: XIVTED_clean_linker_0, # of connection points: 2
#     Edge 30, Type (0, 1), BuildingBlock: XIVTED_clean_linker_0, # of connection points: 2
#     Edge 31, Type (0, 1), BuildingBlock: XIVTED_clean_linker_0, # of connection points: 2
#     Edge 32, Type (0, 1), BuildingBlock: XIVTED_clean_linker_0, # of connection points: 2
#     Edge 33, Type (0, 1), BuildingBlock: XIVTED_clean_linker_0, # of connection points: 2
#     Edge 34, Type (0, 1), BuildingBlock: XIVTED_clean_linker_0, # of connection points: 2
#     Edge 35, Type (0, 1), BuildingBlock: XIVTED_clean_linker_0, # of connection points: 2
#     Edge 36, Type (0, 1), BuildingBlock: XIVTED_clean_linker_0, # of connection points: 2
#     Edge 37, Type (0, 1), BuildingBlock: XIVTED_clean_linker_0, # of connection points: 2
#     Edge 38, Type (0, 1), BuildingBlock: XIVTED_clean_linker_0, # of connection points: 2
#     Edge 39, Type (0, 1), BuildingBlock: XIVTED_clean_linker_0, # of connection points: 2
#     Edge 40, Type (0, 1), BuildingBlock: XIVTED_clean_linker_0, # of connection points: 2
#     Edge 41, Type (0, 1), BuildingBlock: XIVTED_clean_linker_0, # of connection points: 2
#     Edge 42, Type (0, 1), BuildingBlock: XIVTED_clean_linker_0, # of connection points: 2
#     Edge 43, Type (0, 1), BuildingBlock: XIVTED_clean_linker_0, # of connection points: 2
#     Edge 44, Type (0, 1), BuildingBlock: XIVTED_clean_linker_0, # of connection points: 2
#     Edge 45, Type (0, 1), BuildingBlock: XIVTED_clean_linker_0, # of connection points: 2
#     Edge 46, Type (0, 1), BuildingBlock: XIVTED_clean_linker_0, # of connection points: 2
#     Edge 47, Type (0, 1), BuildingBlock: XIVTED_clean_linker_0, # of connection points: 2
# Relax obj value: 0.113
# Max RMSD: 0.125
# Mean RMSD: 0.123
data_MOF--net-wbl--node1-KUFVIS_clean_sbu_0--node2-MUDLON_clean_linker_0--edge1-XIVTED_clean_linker_0
_symmetry_space_group_name_H-M    P1
_symmetry_Int_Tables_number       1
_symmetry_cell_setting            triclinic
loop_
_symmetry_equiv_pos_as_xyz
'x, y, z'
_cell_length_a     53.972751
_cell_length_b     53.976124
_cell_length_c     76.003632
_cell_angle_alpha  89.945176
_cell_angle_beta   90.586983
_cell_angle_gamma 89.986405
loop_
_atom_site_label
_atom_site_type_symbol
_atom_site_fract_x
_atom_site_fract_y
_atom_site_fract_z
_atom_type_partial_charge
H0 H 0.13614 0.99674 0.32874 0.0
N1 N 0.1048 0.98124 0.30385 0.0
H2 H 0.14385 0.97806 0.35774 0.0
H3 H 0.08043 0.94143 0.31797 0.0
H4 H 0.08777 0.92296 0.34674 0.0
H5 H 0.10949 0.93216 0.29497 0.0
H6 H 0.14254 0.91486 0.27741 0.0
H7 H 0.13266 0.00597 0.28122 0.0
H8 H 0.16442 0.98888 0.26211 0.0
H9 H 0.093 0.02885 0.30473 0.0
H10 H 0.06308 0.95688 0.29277 0.0
H11 H 0.05177 0.04707 0.30209 0.0
H12 H 0.02137 0.97412 0.29202 0.0
H13 H 0.93539 0.08915 0.32404 0.0
H14 H 0.9266 0.10511 0.35335 0.0
H15 H 0.91236 0.03051 0.37137 0.0
H16 H 0.9216 0.01473 0.34197 0.0
H17 H 0.89173 0.01678 0.30533 0.0
H18 H 0.85685 0.03195 0.28769 0.0
H19 H 0.89801 0.0984 0.27563 0.0
H20 H 0.93319 0.08265 0.2932 0.0
H21 H 0.97612 0.06315 0.32521 0.0
H22 H 0.01762 0.04997 0.31901 0.0
H23 H 0.98931 0.9972 0.28097 0.0
N24 N 0.93295 0.04072 0.31347 0.0
H25 H 0.94717 0.00918 0.28851 0.0
C26 C 0.10775 0.97063 0.32117 0.0
C27 C 0.12542 0.98076 0.33271 0.0
C28 C 0.12972 0.97011 0.34925 0.0
C29 C 0.11647 0.94896 0.35448 0.0
C30 C 0.09849 0.93905 0.34299 0.0
C31 C 0.09412 0.94979 0.32654 0.0
C32 C 0.11924 0.97048 0.28997 0.0
C33 C 0.12126 0.9447 0.28778 0.0
C34 C 0.14015 0.93476 0.27746 0.0
C35 C 0.15691 0.95041 0.26871 0.0
C36 C 0.15268 0.97617 0.26923 0.0
C37 C 0.13428 0.98605 0.27995 0.0
C38 C 0.08093 0.99151 0.29952 0.0
C39 C 0.0774 0.01701 0.30153 0.0
C40 C 0.0537 0.02728 0.30025 0.0
C41 C 0.03282 0.01207 0.29745 0.0
C42 C 0.03675 0.98662 0.29423 0.0
C43 C 0.06064 0.97652 0.29496 0.0
C44 C 0.92913 0.05065 0.33085 0.0
C45 C 0.93036 0.07624 0.33427 0.0
C46 C 0.92525 0.08536 0.35105 0.0
C47 C 0.91873 0.06912 0.36472 0.0
C48 C 0.91769 0.04352 0.36123 0.0
C49 C 0.92286 0.03444 0.34446 0.0
C50 C 0.9148 0.04863 0.30066 0.0
C51 C 0.8934 0.03432 0.29851 0.0
C52 C 0.87355 0.04303 0.28841 0.0
C53 C 0.87464 0.06644 0.28033 0.0
C54 C 0.89658 0.08041 0.28186 0.0
C55 C 0.91665 0.07145 0.29184 0.0
C56 C 0.95807 0.03695 0.30751 0.0
C57 C 0.97851 0.0489 0.31541 0.0
C58 C 0.00265 0.04142 0.31164 0.0
C59 C 0.00719 0.02221 0.29954 0.0
C60 C 0.98675 0.01155 0.29072 0.0
C61 C 0.96255 0.01864 0.29482 0.0
H62 H 0.00143 0.37975 0.57884 0.0
N63 N 0.9869 0.41216 0.55454 0.0
H64 H 0.98303 0.37233 0.60781 0.0
H65 H 0.9485 0.43822 0.56926 0.0
H66 H 0.93099 0.43163 0.59835 0.0
H67 H 0.94091 0.41636 0.53942 0.0
H68 H 0.91999 0.38469 0.52182 0.0
H69 H 0.00699 0.37176 0.54125 0.0
H70 H 0.98605 0.33931 0.52465 0.0
H71 H 0.03457 0.42374 0.5529 0.0
H72 H 0.96172 0.45382 0.54371 0.0
H73 H 0.05279 0.46434 0.54747 0.0
H74 H 0.97909 0.49481 0.54034 0.0
H75 H 0.09655 0.58961 0.56173 0.0
H76 H 0.11567 0.60007 0.58977 0.0
H77 H 0.04392 0.59623 0.61454 0.0
H78 H 0.02472 0.58769 0.58592 0.0
H79 H 0.02248 0.62632 0.54974 0.0
H80 H 0.0359 0.66206 0.53264 0.0
H81 H 0.09837 0.61999 0.51379 0.0
H82 H 0.08445 0.58406 0.53099 0.0
H83 H 0.07311 0.5427 0.56482 0.0
H84 H 0.05957 0.50055 0.5611 0.0
H85 H 0.99987 0.52548 0.52695 0.0
N86 N 0.04686 0.58441 0.55488 0.0
H87 H 0.01218 0.56823 0.53239 0.0
C88 C 0.97685 0.40985 0.57197 0.0
C89 C 0.98619 0.39125 0.58309 0.0
C90 C 0.9756 0.38694 0.59952 0.0
C91 C 0.9557 0.4015 0.60523 0.0
C92 C 0.94649 0.42034 0.59424 0.0
C93 C 0.95669 0.42424 0.57763 0.0
C94 C 0.97566 0.39646 0.54145 0.0
C95 C 0.95114 0.40003 0.53562 0.0
C96 C 0.93906 0.38163 0.52579 0.0
C97 C 0.95111 0.35913 0.5219 0.0
C98 C 0.97612 0.35638 0.52702 0.0
C99 C 0.98821 0.3749 0.5366 0.0
C100 C 0.99681 0.43581 0.5493 0.0
C101 C 0.02251 0.43921 0.5498 0.0
C102 C 0.03283 0.46261 0.54691 0.0
C103 C 0.01756 0.48344 0.54395 0.0
C104 C 0.99175 0.47955 0.54248 0.0
C105 C 0.98156 0.45595 0.5448 0.0
C106 C 0.059 0.58853 0.57165 0.0
C107 C 0.08485 0.59135 0.57311 0.0
C108 C 0.09587 0.59696 0.58932 0.0
C109 C 0.0814 0.59928 0.60454 0.0
C110 C 0.05565 0.59532 0.6031 0.0
C111 C 0.04461 0.59019 0.5868 0.0
C112 C 0.0525 0.60272 0.54171 0.0
C113 C 0.03862 0.62461 0.54148 0.0
C114 C 0.04636 0.645 0.53168 0.0
C115 C 0.06835 0.64396 0.52195 0.0
C116 C 0.08152 0.62144 0.52133 0.0
C117 C 0.07353 0.60088 0.53103 0.0
C118 C 0.04329 0.55903 0.54923 0.0
C119 C 0.05718 0.53932 0.55641 0.0
C120 C 0.04946 0.51481 0.55407 0.0
C121 C 0.02811 0.50918 0.54399 0.0
C122 C 0.01578 0.52885 0.53538 0.0
C123 C 0.02307 0.55342 0.5382 0.0
H124 H 0.61648 0.45685 0.81219 0.0
N125 N 0.57877 0.43934 0.79126 0.0
H126 H 0.62644 0.44367 0.84215 0.0
H127 H 0.55479 0.40615 0.81063 0.0
H128 H 0.56487 0.39258 0.84072 0.0
H129 H 0.59316 0.3967 0.77762 0.0
H130 H 0.63204 0.38774 0.76296 0.0
H131 H 0.61152 0.47442 0.77854 0.0
H132 H 0.64973 0.46589 0.76312 0.0
H133 H 0.58792 0.48679 0.80288 0.0
H134 H 0.53408 0.44085 0.77626 0.0
H135 H 0.55871 0.52098 0.80302 0.0
H136 H 0.50416 0.47503 0.77685 0.0
H137 H 0.46016 0.62156 0.81654 0.0
H138 H 0.44724 0.63166 0.84655 0.0
H139 H 0.42259 0.55614 0.85358 0.0
H140 H 0.43611 0.54617 0.82389 0.0
H141 H 0.4231 0.54009 0.79398 0.0
H142 H 0.38181 0.54392 0.78093 0.0
H143 H 0.39573 0.62152 0.77068 0.0
H144 H 0.43737 0.617 0.78285 0.0
H145 H 0.49213 0.56291 0.8228 0.0
H146 H 0.52211 0.53036 0.81881 0.0
H147 H 0.49324 0.51666 0.76656 0.0
N148 N 0.45586 0.57825 0.79995 0.0
H149 H 0.46246 0.54906 0.77061 0.0
C150 C 0.58465 0.4326 0.80921 0.0
C151 C 0.60485 0.44311 0.81837 0.0
C152 C 0.61056 0.43553 0.83551 0.0
C153 C 0.59641 0.41711 0.84378 0.0
C154 C 0.57621 0.40668 0.83462 0.0
C155 C 0.57034 0.41447 0.81752 0.0
C156 C 0.59922 0.43611 0.77932 0.0
C157 C 0.60521 0.41194 0.77412 0.0
C158 C 0.6275 0.40689 0.76566 0.0
C159 C 0.64437 0.42603 0.76197 0.0
C160 C 0.63756 0.45054 0.76612 0.0
C161 C 0.61538 0.45553 0.77483 0.0
C162 C 0.56327 0.46107 0.78945 0.0
C163 C 0.56994 0.48406 0.79682 0.0
C164 C 0.55302 0.50365 0.79707 0.0
C165 C 0.52889 0.50071 0.79019 0.0
C166 C 0.5226 0.47805 0.78217 0.0
C167 C 0.53965 0.45848 0.78183 0.0
C168 C 0.44921 0.5832 0.81801 0.0
C169 C 0.45215 0.60722 0.82467 0.0
C170 C 0.44456 0.61297 0.84172 0.0
C171 C 0.43385 0.59471 0.85245 0.0
C172 C 0.43104 0.57057 0.84576 0.0
C173 C 0.43859 0.56486 0.82872 0.0
C174 C 0.4335 0.5783 0.78926 0.0
C175 C 0.41749 0.55773 0.78846 0.0
C176 C 0.39368 0.56008 0.78118 0.0
C177 C 0.38507 0.58315 0.77492 0.0
C178 C 0.40159 0.60334 0.77506 0.0
C179 C 0.42551 0.60085 0.78205 0.0
C180 C 0.47319 0.55769 0.79761 0.0
C181 C 0.49141 0.55259 0.8106 0.0
C182 C 0.50913 0.53413 0.80818 0.0
C183 C 0.51 0.52062 0.79242 0.0
C184 C 0.49269 0.52625 0.77906 0.0
C185 C 0.47483 0.54479 0.78149 0.0
H186 H 0.46364 0.90266 0.06929 0.0
N187 N 0.44171 0.93996 0.04992 0.0
H188 H 0.45566 0.89232 0.09977 0.0
H189 H 0.41035 0.96209 0.07165 0.0
H190 H 0.40214 0.95165 0.10252 0.0
H191 H 0.39926 0.93401 0.03259 0.0
H192 H 0.38628 0.89837 0.01495 0.0
H193 H 0.47182 0.90179 0.03911 0.0
H194 H 0.45873 0.86558 0.02276 0.0
H195 H 0.49094 0.93036 0.05702 0.0
H196 H 0.44053 0.98502 0.03587 0.0
H197 H 0.52519 0.95898 0.05378 0.0
H198 H 0.47495 0.01439 0.03309 0.0
H199 H 0.62679 0.057 0.06079 0.0
H200 H 0.63982 0.07055 0.09023 0.0
H201 H 0.56576 0.09776 0.09964 0.0
H202 H 0.55282 0.0833 0.0706 0.0
H203 H 0.54343 0.09407 0.04095 0.0
H204 H 0.54599 0.13456 0.02693 0.0
H205 H 0.62228 0.11969 0.01349 0.0
H206 H 0.61887 0.07869 0.02657 0.0
H207 H 0.57148 0.02539 0.06965 0.0
H208 H 0.53817 0.99567 0.06879 0.0
H209 H 0.51432 0.02399 0.01827 0.0
N210 N 0.58209 0.06146 0.04588 0.0
H211 H 0.54761 0.05439 0.01914 0.0
C212 C 0.43768 0.93342 0.0681 0.0
C213 C 0.45035 0.9137 0.07633 0.0
C214 C 0.44579 0.90776 0.09388 0.0
C215 C 0.42834 0.92122 0.10359 0.0
C216 C 0.41557 0.94083 0.09534 0.0
C217 C 0.42031 0.94689 0.07778 0.0
C218 C 0.43632 0.92056 0.03741 0.0
C219 C 0.41245 0.91934 0.03006 0.0
C220 C 0.40501 0.89878 0.02017 0.0
C221 C 0.42123 0.87868 0.01765 0.0
C222 C 0.44566 0.88063 0.02422 0.0
C223 C 0.45319 0.90141 0.03384 0.0
C224 C 0.46294 0.9555 0.04665 0.0
C225 C 0.48715 0.94838 0.05147 0.0
C226 C 0.50683 0.96497 0.04977 0.0
C227 C 0.50281 0.98913 0.04338 0.0
C228 C 0.47876 0.99588 0.03794 0.0
C229 C 0.45906 0.97919 0.03958 0.0
C230 C 0.58897 0.06916 0.06349 0.0
C231 C 0.61344 0.06578 0.0693 0.0
C232 C 0.62084 0.07371 0.08605 0.0
C233 C 0.60385 0.08531 0.09729 0.0
C234 C 0.57926 0.08862 0.09143 0.0
C235 C 0.57187 0.08061 0.07473 0.0
C236 C 0.58098 0.08313 0.03467 0.0
C237 C 0.56045 0.09924 0.03451 0.0
C238 C 0.5621 0.12263 0.02667 0.0
C239 C 0.5845 0.13081 0.01926 0.0
C240 C 0.60458 0.11416 0.01876 0.0
C241 C 0.60272 0.09061 0.02627 0.0
C242 C 0.56138 0.04402 0.04517 0.0
C243 C 0.55883 0.02599 0.05852 0.0
C244 C 0.53991 0.00845 0.05788 0.0
C245 C 0.5233 0.00761 0.04357 0.0
C246 C 0.52639 0.02461 0.02973 0.0
C247 C 0.54544 0.04226 0.03035 0.0
H248 H 0.12212 0.52019 0.92568 0.0
N249 N 0.08717 0.53477 0.94781 0.0
H250 H 0.13163 0.53785 0.89672 0.0
H251 H 0.06031 0.57034 0.9302 0.0
H252 H 0.06919 0.58729 0.90121 0.0
H253 H 0.09706 0.58327 0.95466 0.0
H254 H 0.13388 0.59853 0.97002 0.0
H255 H 0.11523 0.50862 0.97002 0.0
H256 H 0.15108 0.52372 0.98664 0.0
H257 H 0.07553 0.48727 0.9513 0.0
H258 H 0.04602 0.56072 0.9573 0.0
H259 H 0.03507 0.46959 0.95747 0.0
H260 H 0.00466 0.54374 0.96103 0.0
H261 H 0.91746 0.42294 0.94201 0.0
H262 H 0.91002 0.40393 0.91344 0.0
H263 H 0.89473 0.47618 0.89119 0.0
H264 H 0.90317 0.49512 0.91989 0.0
H265 H 0.87175 0.49278 0.95646 0.0
H266 H 0.83844 0.47556 0.97402 0.0
H267 H 0.88688 0.41611 0.99092 0.0
H268 H 0.92022 0.43368 0.973 0.0
H269 H 0.95758 0.44626 0.94174 0.0
H270 H 0.99923 0.46109 0.94453 0.0
H271 H 0.97322 0.52433 0.97415 0.0
N272 N 0.91514 0.47236 0.94988 0.0
H273 H 0.9307 0.51042 0.96942 0.0
C274 C 0.09027 0.54349 0.93002 0.0
C275 C 0.11031 0.5346 0.92028 0.0
C276 C 0.11584 0.54482 0.90388 0.0
C277 C 0.10112 0.56392 0.89681 0.0
C278 C 0.08068 0.57243 0.90634 0.0
C279 C 0.07548 0.56256 0.9229 0.0
C280 C 0.10381 0.54472 0.96091 0.0
C281 C 0.10851 0.57027 0.96193 0.0
C282 C 0.12961 0.57897 0.97083 0.0
C283 C 0.14603 0.56229 0.97919 0.0
C284 C 0.13947 0.53705 0.97981 0.0
C285 C 0.11874 0.52836 0.97058 0.0
C286 C 0.06351 0.52521 0.95313 0.0
C287 C 0.06009 0.49956 0.95375 0.0
C288 C 0.03672 0.48954 0.95703 0.0
C289 C 0.01588 0.50502 0.95911 0.0
C290 C 0.01986 0.53091 0.9595 0.0
C291 C 0.04354 0.54084 0.95695 0.0
C292 C 0.91094 0.46057 0.93306 0.0
C293 C 0.91248 0.43471 0.93102 0.0
C294 C 0.90808 0.42382 0.91463 0.0
C295 C 0.90171 0.43847 0.89995 0.0
C296 C 0.9 0.46433 0.9021 0.0
C297 C 0.90466 0.47522 0.91848 0.0
C298 C 0.8983 0.4645 0.96336 0.0
C299 C 0.87536 0.47646 0.96438 0.0
C300 C 0.85635 0.46654 0.97448 0.0
C301 C 0.85985 0.44429 0.98385 0.0
C302 C 0.88344 0.43307 0.98368 0.0
C303 C 0.90256 0.44315 0.97356 0.0
C304 C 0.94055 0.47758 0.95494 0.0
C305 C 0.96053 0.4633 0.94888 0.0
C306 C 0.98485 0.4718 0.95075 0.0
C307 C 0.99014 0.49438 0.95934 0.0
C308 C 0.9702 0.5074 0.96684 0.0
C309 C 0.94575 0.49925 0.96444 0.0
H310 H 0.52543 0.3755 0.17304 0.0
N311 N 0.53535 0.41294 0.1947 0.0
H312 H 0.54277 0.36784 0.14379 0.0
H313 H 0.56777 0.44312 0.17678 0.0
H314 H 0.58435 0.43593 0.1476 0.0
H315 H 0.58518 0.40716 0.20047 0.0
H316 H 0.60421 0.37468 0.21836 0.0
H317 H 0.51315 0.38651 0.21943 0.0
H318 H 0.53208 0.35523 0.2385 0.0
H319 H 0.48798 0.4259 0.19506 0.0
H320 H 0.56127 0.4534 0.20612 0.0
H321 H 0.47067 0.46683 0.20052 0.0
H322 H 0.54486 0.49512 0.20953 0.0
H323 H 0.42831 0.59027 0.18872 0.0
H324 H 0.40872 0.60237 0.16123 0.0
H325 H 0.48053 0.60439 0.13644 0.0
H326 H 0.50017 0.59408 0.16466 0.0
H327 H 0.50166 0.62864 0.20237 0.0
H328 H 0.4869 0.66294 0.22033 0.0
H329 H 0.42473 0.61846 0.23679 0.0
H330 H 0.44013 0.58385 0.21892 0.0
H331 H 0.45247 0.54552 0.18381 0.0
H332 H 0.46553 0.50323 0.18695 0.0
H333 H 0.52413 0.52617 0.2227 0.0
N334 N 0.47822 0.58673 0.19545 0.0
H335 H 0.51231 0.56925 0.21791 0.0
C336 C 0.54477 0.41005 0.17708 0.0
C337 C 0.53815 0.38883 0.16748 0.0
C338 C 0.54818 0.3844 0.15089 0.0
C339 C 0.56483 0.40136 0.14346 0.0
C340 C 0.57135 0.42271 0.15297 0.0
C341 C 0.56168 0.42689 0.1697 0.0
C342 C 0.54761 0.39865 0.20823 0.0
C343 C 0.57353 0.3961 0.20891 0.0
C344 C 0.58443 0.37758 0.21932 0.0
C345 C 0.56964 0.36171 0.22955 0.0
C346 C 0.544 0.36639 0.23031 0.0
C347 C 0.53312 0.38448 0.2196 0.0
C348 C 0.52587 0.43687 0.19958 0.0
C349 C 0.50033 0.44098 0.19853 0.0
C350 C 0.49055 0.46456 0.20144 0.0
C351 C 0.50627 0.48488 0.20492 0.0
C352 C 0.53191 0.48025 0.20695 0.0
C353 C 0.54152 0.45639 0.20467 0.0
C354 C 0.46589 0.59185 0.17887 0.0
C355 C 0.43994 0.59366 0.1775 0.0
C356 C 0.42866 0.60021 0.16157 0.0
C357 C 0.44297 0.60457 0.1465 0.0
C358 C 0.46889 0.60182 0.14781 0.0
C359 C 0.48019 0.59568 0.16386 0.0
C360 C 0.47192 0.60392 0.20919 0.0
C361 C 0.48532 0.62604 0.21032 0.0
C362 C 0.47681 0.6456 0.22059 0.0
C363 C 0.4545 0.64348 0.22985 0.0
C364 C 0.44183 0.62069 0.22962 0.0
C365 C 0.45064 0.60091 0.21951 0.0
C366 C 0.48173 0.56102 0.20035 0.0
C367 C 0.46805 0.54173 0.19244 0.0
C368 C 0.47548 0.5171 0.19446 0.0
C369 C 0.49632 0.51084 0.2049 0.0
C370 C 0.50857 0.53004 0.21404 0.0
C371 C 0.50156 0.55478 0.21158 0.0
H372 H 0.42575 0.96947 0.43264 0.0
N373 N 0.44118 0.93953 0.45971 0.0
H374 H 0.415 0.95645 0.40284 0.0
H375 H 0.44515 0.89434 0.44618 0.0
H376 H 0.43545 0.88117 0.41608 0.0
H377 H 0.43612 0.91081 0.48787 0.0
H378 H 0.39791 0.90219 0.50396 0.0
H379 H 0.39719 0.96479 0.4562 0.0
H380 H 0.35921 0.95607 0.47181 0.0
H381 H 0.43112 0.98898 0.46623 0.0
H382 H 0.48988 0.93655 0.45715 0.0
H383 H 0.46093 0.02268 0.46628 0.0
H384 H 0.51977 0.97032 0.45622 0.0
H385 H 0.56321 0.12153 0.43298 0.0
H386 H 0.57406 0.1297 0.40232 0.0
H387 H 0.58517 0.05122 0.39417 0.0
H388 H 0.57341 0.04327 0.42457 0.0
H389 H 0.605 0.04932 0.44692 0.0
H390 H 0.64473 0.05648 0.46137 0.0
H391 H 0.61334 0.11809 0.48977 0.0
H392 H 0.57341 0.11099 0.47485 0.0
H393 H 0.51514 0.07854 0.44236 0.0
H394 H 0.48504 0.04547 0.44664 0.0
H395 H 0.5419 1.00064 0.47142 0.0
N396 N 0.56337 0.07818 0.44963 0.0
H397 H 0.57195 0.03289 0.46629 0.0
C398 C 0.43613 0.93275 0.44167 0.0
C399 C 0.42788 0.95017 0.42915 0.0
C400 C 0.42194 0.9427 0.41203 0.0
C401 C 0.42429 0.91772 0.40702 0.0
C402 C 0.433 0.90047 0.41953 0.0
C403 C 0.43875 0.90794 0.43668 0.0
C404 C 0.4197 0.93844 0.47088 0.0
C405 C 0.4195 0.9212 0.48467 0.0
C406 C 0.39761 0.91614 0.49371 0.0
C407 C 0.37541 0.92829 0.4891 0.0
C408 C 0.37597 0.94656 0.47589 0.0
C409 C 0.39782 0.95155 0.46686 0.0
C410 C 0.45826 0.95996 0.46182 0.0
C411 C 0.45042 0.98455 0.4644 0.0
C412 C 0.46759 0.004 0.46421 0.0
C413 C 0.49288 0.9994 0.46114 0.0
C414 C 0.50062 0.97471 0.45895 0.0
C415 C 0.48354 0.95531 0.4594 0.0
C416 C 0.5675 0.08191 0.43107 0.0
C417 C 0.56762 0.10613 0.42444 0.0
C418 C 0.57409 0.11074 0.40699 0.0
C419 C 0.58073 0.09114 0.39579 0.0
C420 C 0.57992 0.06675 0.40234 0.0
C421 C 0.57333 0.06216 0.41978 0.0
C422 C 0.58607 0.07965 0.45984 0.0
C423 C 0.60646 0.06418 0.4564 0.0
C424 C 0.62922 0.0682 0.46479 0.0
C425 C 0.63224 0.08789 0.47671 0.0
C426 C 0.61167 0.1029 0.48052 0.0
C427 C 0.58882 0.09876 0.47217 0.0
C428 C 0.54602 0.0585 0.45371 0.0
C429 C 0.52109 0.06157 0.44874 0.0
C430 C 0.50382 0.04266 0.45136 0.0
C431 C 0.51094 0.0202 0.45935 0.0
C432 C 0.53576 0.01741 0.46487 0.0
C433 C 0.55313 0.03617 0.46198 0.0
H434 H 0.05267 0.89907 0.68608 0.0
N435 N 0.07501 0.93603 0.70509 0.0
H436 H 0.06097 0.88805 0.65555 0.0
H437 H 0.10576 0.95851 0.68311 0.0
H438 H 0.1143 0.94753 0.65244 0.0
H439 H 0.1194 0.92039 0.71525 0.0
H440 H 0.1298 0.88165 0.73007 0.0
H441 H 0.04164 0.90467 0.72151 0.0
H442 H 0.0518 0.86671 0.73697 0.0
H443 H 0.02542 0.92774 0.69877 0.0
H444 H 0.07791 0.98176 0.71783 0.0
H445 H 0.99198 0.95712 0.70237 0.0
H446 H 0.04468 0.01234 0.72011 0.0
H447 H 0.88986 0.06708 0.70026 0.0
H448 H 0.87428 0.08374 0.67244 0.0
H449 H 0.94938 0.08698 0.65306 0.0
H450 H 0.96469 0.07242 0.68139 0.0
H451 H 0.97136 0.09821 0.70814 0.0
H452 H 0.96684 0.13972 0.72051 0.0
H453 H 0.90228 0.11534 0.7489 0.0
H454 H 0.90655 0.07411 0.73596 0.0
H455 H 0.94201 0.02108 0.68942 0.0
H456 H 0.97505 0.99101 0.68916 0.0
H457 H 0.00933 0.0271 0.73395 0.0
N458 N 0.93692 0.06107 0.7103 0.0
H459 H 0.97709 0.05839 0.73339 0.0
C460 C 0.07851 0.92983 0.68683 0.0
C461 C 0.06585 0.91 0.67878 0.0
C462 C 0.07065 0.90368 0.66131 0.0
C463 C 0.08833 0.91689 0.65159 0.0
C464 C 0.10078 0.93683 0.65964 0.0
C465 C 0.09582 0.94325 0.67707 0.0
C466 C 0.07982 0.91567 0.71706 0.0
C467 C 0.10457 0.90898 0.7203 0.0
C468 C 0.11047 0.88678 0.72886 0.0
C469 C 0.09165 0.87073 0.73458 0.0
C470 C 0.06682 0.87824 0.73237 0.0
C471 C 0.06094 0.90031 0.72358 0.0
C472 C 0.05431 0.95232 0.7084 0.0
C473 C 0.02981 0.94586 0.70394 0.0
C474 C 0.0106 0.96303 0.7057 0.0
C475 C 0.01543 0.98745 0.71133 0.0
C476 C 0.03998 0.99372 0.716 0.0
C477 C 0.05909 0.97629 0.71463 0.0
C478 C 0.92832 0.06816 0.69289 0.0
C479 C 0.90285 0.07126 0.6899 0.0
C480 C 0.89401 0.08069 0.6739 0.0
C481 C 0.91049 0.08685 0.66032 0.0
C482 C 0.93605 0.0831 0.66323 0.0
C483 C 0.94489 0.07433 0.6794 0.0
C484 C 0.93912 0.08307 0.72106 0.0
C485 C 0.95665 0.10164 0.71739 0.0
C486 C 0.95403 0.1254 0.72452 0.0
C487 C 0.93388 0.13103 0.73545 0.0
C488 C 0.91767 0.11181 0.74022 0.0
C489 C 0.92027 0.08813 0.73306 0.0
C490 C 0.9574 0.04337 0.71061 0.0
C491 C 0.95694 0.02311 0.69893 0.0
C492 C 0.97576 0.0054 0.69905 0.0
C493 C 0.99521 0.00648 0.71148 0.0
C494 C 0.99515 0.02596 0.7238 0.0
C495 C 0.9765 0.04407 0.72345 0.0
Mn496 Mn 0.35627 0.66545 0.00308 0.0
Mn497 Mn 0.37187 0.60582 0.01079 0.0
C498 C 0.3653 0.65231 0.0314 0.0
C499 C 0.36774 0.70587 0.99606 0.0
C500 C 0.31908 0.6228 0.00335 0.0
O501 O 0.36497 0.65257 0.97865 0.0
O502 O 0.37835 0.61427 0.98584 0.0
C503 C 0.4261 0.60982 0.00604 0.0
N504 N 0.40645 0.60365 0.01625 0.0
C505 C 0.43344 0.59055 0.03988 0.0
C506 C 0.45397 0.59663 0.02958 0.0
C507 C 0.45027 0.60636 0.0126 0.0
C508 C 0.40979 0.59441 0.03264 0.0
H509 H 0.42333 0.61736 0.993 0.0
C510 C 0.37465 0.63172 0.97467 0.0
O511 O 0.34521 0.6981 0.99351 0.0
O512 O 0.38369 0.68995 0.00211 0.0
N513 N 0.36679 0.59525 0.03453 0.0
C514 C 0.34504 0.59106 0.04298 0.0
C515 C 0.34549 0.58156 0.06019 0.0
C516 C 0.36827 0.57626 0.06847 0.0
C517 C 0.3904 0.58043 0.05944 0.0
C518 C 0.38879 0.58974 0.04226 0.0
H519 H 0.32747 0.59498 0.03666 0.0
O520 O 0.35247 0.67233 0.02883 0.0
O521 O 0.37253 0.64081 0.01738 0.0
O522 O 0.3237 0.64596 0.00258 0.0
O523 O 0.33584 0.60635 0.00575 0.0
C524 C 0.41401 0.57601 0.06689 0.0
C525 C 0.43551 0.58116 0.05715 0.0
H526 H 0.47265 0.59405 0.03461 0.0
H527 H 0.46602 0.6112 0.0046 0.0
H528 H 0.32833 0.57835 0.06706 0.0
H529 H 0.36855 0.56909 0.08179 0.0
H530 H 0.41583 0.56897 0.0802 0.0
H531 H 0.45356 0.57801 0.0631 0.0
Mn532 Mn 0.36051 0.85646 0.25742 0.0
Mn533 Mn 0.42166 0.86568 0.26465 0.0
C534 C 0.37514 0.86258 0.28574 0.0
C535 C 0.32172 0.8734 0.25076 0.0
C536 C 0.39919 0.81497 0.25757 0.0
O537 O 0.37334 0.86455 0.23305 0.0
O538 O 0.41329 0.8728 0.23955 0.0
C539 C 0.42294 0.91997 0.25922 0.0
N540 N 0.42754 0.89989 0.26961 0.0
C541 C 0.44439 0.92558 0.29265 0.0
C542 C 0.43999 0.94653 0.28215 0.0
C543 C 0.42917 0.94371 0.26538 0.0
C544 C 0.43789 0.90239 0.28578 0.0
H545 H 0.41453 0.91789 0.24635 0.0
C546 C 0.39503 0.87144 0.22866 0.0
O547 O 0.32628 0.85009 0.24791 0.0
O548 O 0.33972 0.88663 0.25707 0.0
N549 N 0.43256 0.85976 0.28834 0.0
C550 C 0.4344 0.83784 0.29716 0.0
C551 C 0.44434 0.8375 0.31431 0.0
C552 C 0.45245 0.85965 0.32216 0.0
C553 C 0.45063 0.88194 0.31275 0.0
C554 C 0.44077 0.8811 0.29564 0.0
H555 H 0.42813 0.82076 0.29124 0.0
O556 O 0.35381 0.85213 0.28302 0.0
O557 O 0.38712 0.8695 0.27181 0.0
O558 O 0.37655 0.82184 0.25631 0.0
O559 O 0.41715 0.82999 0.26021 0.0
C560 C 0.45772 0.90503 0.31981 0.0
C561 C 0.45454 0.92684 0.30979 0.0
H562 H 0.44466 0.96489 0.28689 0.0
H563 H 0.4256 0.95981 0.25724 0.0
H564 H 0.44564 0.82023 0.3215 0.0
H565 H 0.45983 0.85936 0.33546 0.0
H566 H 0.46528 0.90627 0.33304 0.0
H567 H 0.45972 0.94452 0.31546 0.0
Mn568 Mn 0.16367 0.85648 0.4985 0.0
Mn569 Mn 0.10332 0.86851 0.4901 0.0
C570 C 0.15066 0.86602 0.47024 0.0
C571 C 0.20323 0.87028 0.50642 0.0
C572 C 0.12346 0.81655 0.49584 0.0
O573 O 0.14992 0.86328 0.52286 0.0
O574 O 0.11046 0.87302 0.51566 0.0
C575 C 0.10342 0.92222 0.49794 0.0
N576 N 0.09901 0.9033 0.48649 0.0
C577 C 0.08555 0.93169 0.4639 0.0
C578 C 0.08979 0.95147 0.47549 0.0
C579 C 0.09879 0.94671 0.49257 0.0
C580 C 0.09035 0.90767 0.47002 0.0
H581 H 0.11047 0.91865 0.51104 0.0
C582 C 0.12811 0.8703 0.52694 0.0
O583 O 0.19689 0.84721 0.50834 0.0
O584 O 0.18636 0.88531 0.50052 0.0
N585 N 0.09394 0.86512 0.46585 0.0
C586 C 0.0919 0.84408 0.45604 0.0
C587 C 0.08359 0.84568 0.43851 0.0
C588 C 0.07737 0.86884 0.43127 0.0
C589 C 0.07937 0.8902 0.44168 0.0
C590 C 0.08749 0.88743 0.45913 0.0
H591 H 0.09673 0.82623 0.46151 0.0
O592 O 0.17124 0.85411 0.47284 0.0
O593 O 0.13837 0.87195 0.48423 0.0
O594 O 0.14616 0.82269 0.49791 0.0
O595 O 0.1061 0.83226 0.49314 0.0
C596 C 0.07409 0.91417 0.43532 0.0
C597 C 0.07722 0.93491 0.44641 0.0
H598 H 0.08639 0.9704 0.47137 0.0
H599 H 0.10223 0.96188 0.50156 0.0
H600 H 0.08212 0.82912 0.43056 0.0
H601 H 0.07125 0.87004 0.41768 0.0
H602 H 0.06793 0.9169 0.42184 0.0
H603 H 0.07341 0.95327 0.4413 0.0
Mn604 Mn 0.16463 0.65801 0.74903 0.0
Mn605 Mn 0.15461 0.59738 0.74109 0.0
C606 C 0.15867 0.6442 0.72046 0.0
C607 C 0.14869 0.69724 0.75535 0.0
C608 C 0.20509 0.61875 0.75083 0.0
O609 O 0.15577 0.64407 0.77322 0.0
O610 O 0.14431 0.60528 0.76544 0.0
C611 C 0.0998 0.59709 0.74225 0.0
N612 N 0.12113 0.59234 0.73346 0.0
C613 C 0.09837 0.57743 0.70821 0.0
C614 C 0.07617 0.58183 0.7171 0.0
C615 C 0.07689 0.59179 0.73417 0.0
C616 C 0.12064 0.58297 0.71696 0.0
H617 H 0.10026 0.60503 0.75528 0.0
C618 C 0.14656 0.6228 0.77673 0.0
O619 O 0.17166 0.69171 0.75886 0.0
O620 O 0.13493 0.67971 0.74892 0.0
N621 N 0.16352 0.5875 0.7178 0.0
C622 C 0.18651 0.58562 0.71067 0.0
C623 C 0.189 0.57654 0.69347 0.0
C624 C 0.16787 0.56938 0.6838 0.0
C625 C 0.14442 0.5713 0.69146 0.0
C626 C 0.14311 0.58024 0.70872 0.0
H627 H 0.20283 0.59103 0.71803 0.0
O628 O 0.16937 0.66533 0.72336 0.0
O629 O 0.15175 0.63211 0.73431 0.0
O630 O 0.19874 0.64153 0.75057 0.0
O631 O 0.18983 0.6009 0.74841 0.0
C632 C 0.12227 0.56513 0.68252 0.0
C633 C 0.09926 0.56827 0.69087 0.0
H634 H 0.05846 0.57792 0.71087 0.0
H635 H 0.05983 0.59548 0.74105 0.0
H636 H 0.20716 0.57514 0.68764 0.0
H637 H 0.16984 0.56264 0.67047 0.0
H638 H 0.1227 0.55832 0.66912 0.0
H639 H 0.08234 0.56386 0.68376 0.0
Mn640 Mn 0.85146 0.15877 0.51266 0.0
Mn641 Mn 0.85814 0.0979 0.52188 0.0
C642 C 0.85528 0.14564 0.54157 0.0
C643 C 0.86897 0.19696 0.50565 0.0
C644 C 0.80907 0.12136 0.51111 0.0
O645 O 0.86088 0.14386 0.48896 0.0
O646 O 0.86869 0.10454 0.4974 0.0
C647 C 0.91285 0.09488 0.52059 0.0
N648 N 0.89137 0.09152 0.52952 0.0
C649 C 0.91344 0.07562 0.55479 0.0
C650 C 0.9358 0.07877 0.54582 0.0
C651 C 0.9355 0.08851 0.52866 0.0
C652 C 0.89146 0.08237 0.54609 0.0
H653 H 0.9127 0.10241 0.50742 0.0
C654 C 0.86837 0.12184 0.48584 0.0
O655 O 0.8459 0.19215 0.50204 0.0
O656 O 0.88195 0.1794 0.51289 0.0
N657 N 0.84883 0.08879 0.54524 0.0
C658 C 0.8257 0.08739 0.55221 0.0
C659 C 0.82276 0.07806 0.56932 0.0
C660 C 0.84356 0.07004 0.57901 0.0
C661 C 0.86714 0.07139 0.5715 0.0
C662 C 0.8689 0.08065 0.55434 0.0
H663 H 0.80961 0.09334 0.54479 0.0
O664 O 0.84575 0.16714 0.53801 0.0
O665 O 0.86255 0.13274 0.52818 0.0
O666 O 0.81679 0.14369 0.51048 0.0
O667 O 0.82316 0.10291 0.5146 0.0
C668 C 0.88898 0.06411 0.58041 0.0
C669 C 0.91213 0.06635 0.5721 0.0
H670 H 0.9533 0.0739 0.552 0.0
H671 H 0.95268 0.0911 0.52168 0.0
H672 H 0.8045 0.07703 0.57502 0.0
H673 H 0.84122 0.06291 0.59222 0.0
H674 H 0.88821 0.05704 0.59374 0.0
H675 H 0.92881 0.06099 0.57916 0.0
Mn676 Mn 0.85666 0.3533 0.75357 0.0
Mn677 Mn 0.91718 0.36118 0.76366 0.0
C678 C 0.86887 0.36041 0.7824 0.0
C679 C 0.81836 0.3703 0.74542 0.0
C680 C 0.89425 0.31101 0.75521 0.0
O681 O 0.87221 0.36034 0.72971 0.0
O682 O 0.91141 0.36919 0.73838 0.0
C683 C 0.92064 0.41555 0.75915 0.0
N684 N 0.92357 0.39505 0.76942 0.0
C685 C 0.93842 0.41965 0.79373 0.0
C686 C 0.93586 0.44098 0.78333 0.0
C687 C 0.92686 0.43892 0.76598 0.0
C688 C 0.93213 0.39683 0.78616 0.0
H689 H 0.91346 0.41408 0.74589 0.0
C690 C 0.89433 0.36748 0.72658 0.0
O691 O 0.82324 0.34702 0.74277 0.0
O692 O 0.83608 0.38373 0.75196 0.0
N693 N 0.92506 0.35436 0.7878 0.0
C694 C 0.92466 0.33227 0.79649 0.0
C695 C 0.93212 0.33127 0.81423 0.0
C696 C 0.94 0.35295 0.82283 0.0
C697 C 0.94041 0.37544 0.81359 0.0
C698 C 0.93298 0.37526 0.79588 0.0
H699 H 0.91857 0.31556 0.78997 0.0
O700 O 0.84768 0.35007 0.77899 0.0
O701 O 0.88216 0.36619 0.76886 0.0
O702 O 0.87189 0.31849 0.75361 0.0
O703 O 0.91244 0.32556 0.75838 0.0
C704 C 0.94734 0.39811 0.82137 0.0
C705 C 0.94633 0.4202 0.81146 0.0
H706 H 0.94044 0.45907 0.7886 0.0
H707 H 0.92461 0.45533 0.75793 0.0
H708 H 0.9317 0.31385 0.82128 0.0
H709 H 0.94548 0.35215 0.83657 0.0
H710 H 0.95306 0.39884 0.83507 0.0
H711 H 0.95127 0.43758 0.81768 0.0
Mn712 Mn 0.65712 0.35098 0.99305 0.0
Mn713 Mn 0.59635 0.3606 0.98476 0.0
C714 C 0.64356 0.35751 0.96444 0.0
C715 C 0.6959 0.36715 0.00069 0.0
C716 C 0.61835 0.31007 0.99347 0.0
O717 O 0.64283 0.35846 0.01728 0.0
O718 O 0.60406 0.37008 0.00947 0.0
C719 C 0.59511 0.41529 0.98735 0.0
N720 N 0.59075 0.39424 0.97796 0.0
C721 C 0.57503 0.41765 0.9533 0.0
C722 C 0.57912 0.43958 0.96278 0.0
C723 C 0.58926 0.43838 0.97986 0.0
C724 C 0.58111 0.39517 0.96148 0.0
H725 H 0.60308 0.41445 0.00042 0.0
C726 C 0.62149 0.36729 0.02088 0.0
O727 O 0.69072 0.34391 0.00322 0.0
O728 O 0.67839 0.38098 0.99425 0.0
N729 N 0.58639 0.35238 0.96123 0.0
C730 C 0.58474 0.32963 0.95355 0.0
C731 C 0.57547 0.32763 0.93627 0.0
C732 C 0.56786 0.34898 0.92712 0.0
C733 C 0.56948 0.37216 0.93537 0.0
C734 C 0.57863 0.37298 0.95267 0.0
H735 H 0.59051 0.31314 0.96051 0.0
O736 O 0.66491 0.34725 0.96747 0.0
O737 O 0.63112 0.36406 0.97822 0.0
O738 O 0.64108 0.3166 0.99344 0.0
O739 O 0.60036 0.32524 0.99127 0.0
C740 C 0.56281 0.39452 0.92699 0.0
C741 C 0.56565 0.41725 0.93593 0.0
H742 H 0.57477 0.45743 0.95701 0.0
H743 H 0.59264 0.45523 0.98721 0.0
H744 H 0.57428 0.30967 0.92999 0.0
H745 H 0.56098 0.34739 0.91373 0.0
H746 H 0.55584 0.39447 0.91357 0.0
H747 H 0.56083 0.43435 0.92925 0.0
Mn748 Mn 0.66144 0.15743 0.2455 0.0
Mn749 Mn 0.6536 0.09609 0.23879 0.0
C750 C 0.65693 0.14238 0.2172 0.0
C751 C 0.64385 0.19606 0.25112 0.0
C752 C 0.70339 0.11958 0.24773 0.0
O753 O 0.65228 0.14457 0.26975 0.0
O754 O 0.64407 0.10466 0.26327 0.0
C755 C 0.59897 0.09363 0.24142 0.0
N756 N 0.62002 0.0894 0.23216 0.0
C757 C 0.59677 0.07159 0.20813 0.0
C758 C 0.57485 0.07559 0.21746 0.0
C759 C 0.57597 0.08672 0.23416 0.0
C760 C 0.61916 0.07877 0.21606 0.0
H761 H 0.59974 0.10225 0.25423 0.0
C762 C 0.64477 0.12297 0.274 0.0
O763 O 0.66703 0.19172 0.25478 0.0
O764 O 0.63103 0.1779 0.24462 0.0
N765 N 0.66179 0.08516 0.2156 0.0
C766 C 0.68446 0.08382 0.20792 0.0
C767 C 0.6865 0.07369 0.19099 0.0
C768 C 0.66527 0.0649 0.18217 0.0
C769 C 0.64218 0.06624 0.1904 0.0
C770 C 0.64132 0.07633 0.20735 0.0
H771 H 0.70085 0.09058 0.2146 0.0
O772 O 0.66689 0.16391 0.21992 0.0
O773 O 0.64961 0.13048 0.23108 0.0
O774 O 0.69612 0.1421 0.24799 0.0
O775 O 0.68882 0.10127 0.24502 0.0
C776 C 0.61992 0.05844 0.1823 0.0
C777 C 0.59723 0.06118 0.19114 0.0
H778 H 0.55706 0.0704 0.21188 0.0
H779 H 0.55912 0.08999 0.2414 0.0
H780 H 0.70439 0.07276 0.18471 0.0
H781 H 0.66688 0.05735 0.16903 0.0
H782 H 0.62 0.05069 0.16916 0.0
H783 H 0.5802 0.05547 0.18466 0.0
H784 H 0.20264 0.97256 0.26782 0.0
H785 H 0.27692 0.84996 0.245 0.0
H786 H 0.16532 0.90481 0.25281 0.0
H787 H 0.30994 0.92228 0.25111 0.0
H788 H 0.23569 0.86937 0.24537 0.0
H789 H 0.24155 0.9546 0.25907 0.0
C790 C 0.20236 0.95407 0.26232 0.0
C791 C 0.1803 0.9403 0.26114 0.0
C792 C 0.25201 0.88096 0.24637 0.0
C793 C 0.22571 0.91901 0.25167 0.0
C794 C 0.27552 0.86991 0.24612 0.0
C795 C 0.29687 0.8845 0.24827 0.0
C796 C 0.24998 0.90671 0.24881 0.0
C797 C 0.29401 0.91024 0.24967 0.0
C798 C 0.22486 0.94366 0.25748 0.0
C799 C 0.18177 0.91607 0.25434 0.0
N800 N 0.27107 0.92045 0.25009 0.0
N801 N 0.20411 0.90609 0.25008 0.0
H802 H 0.11637 0.66065 0.52256 0.0
H803 H 0.0786 0.79543 0.48787 0.0
H804 H 0.04323 0.6802 0.50376 0.0
H805 H 0.15242 0.7768 0.50595 0.0
H806 H 0.06661 0.75222 0.49107 0.0
H807 H 0.13125 0.70154 0.5136 0.0
C808 C 0.10354 0.67334 0.51622 0.0
C809 C 0.07844 0.66703 0.51404 0.0
C810 C 0.08548 0.7575 0.49426 0.0
C811 C 0.09527 0.71408 0.50408 0.0
C812 C 0.09237 0.78227 0.49248 0.0
C813 C 0.11654 0.78994 0.49682 0.0
C814 C 0.10279 0.74011 0.50053 0.0
C815 C 0.13355 0.77183 0.50253 0.0
C816 C 0.11201 0.69679 0.51125 0.0
C817 C 0.06263 0.6844 0.50596 0.0
N818 N 0.12629 0.74781 0.50435 0.0
N819 N 0.07124 0.70715 0.50143 0.0
H820 H 0.3656 0.61445 0.74949 0.0
H821 H 0.22479 0.57517 0.76306 0.0
H822 H 0.3436 0.5603 0.78824 0.0
H823 H 0.24573 0.6481 0.74523 0.0
H824 H 0.26865 0.56528 0.76782 0.0
H825 H 0.32191 0.62284 0.74322 0.0
C826 C 0.35172 0.60427 0.7567 0.0
C827 C 0.35857 0.58672 0.76956 0.0
C828 C 0.26359 0.58344 0.76286 0.0
C829 C 0.30839 0.59592 0.76204 0.0
C830 C 0.2386 0.58908 0.7601 0.0
C831 C 0.23156 0.61256 0.75383 0.0
C832 C 0.28173 0.6012 0.759 0.0
C833 C 0.25029 0.62986 0.75024 0.0
C834 C 0.32676 0.60905 0.75303 0.0
C835 C 0.33949 0.57371 0.77804 0.0
N836 N 0.27453 0.62379 0.75278 0.0
N837 N 0.31533 0.57857 0.77413 0.0
H838 H 0.44689 0.84513 0.99725 0.0
H839 H 0.33682 0.746 0.99419 0.0
H840 H 0.37489 0.85769 0.01999 0.0
H841 H 0.41414 0.72571 0.99365 0.0
H842 H 0.34888 0.78976 0.99554 0.0
H843 H 0.4332 0.80385 0.98817 0.0
C844 C 0.42819 0.8394 0.00027 0.0
C845 C 0.41222 0.85501 0.00969 0.0
C846 C 0.36316 0.7757 0.99487 0.0
C847 C 0.3963 0.80794 0.99885 0.0
C848 C 0.35631 0.75076 0.994 0.0
C849 C 0.37453 0.73222 0.99399 0.0
C850 C 0.38837 0.78209 0.99548 0.0
C851 C 0.39951 0.73943 0.99382 0.0
C852 C 0.42038 0.81586 0.99496 0.0
C853 C 0.38792 0.84663 0.01266 0.0
N854 N 0.40572 0.76381 0.99465 0.0
N855 N 0.38078 0.82365 0.00736 0.0
H856 H 0.18981 0.53661 0.9777 0.0
H857 H 0.27647 0.65095 0.00223 0.0
H858 H 0.16002 0.60718 0.99402 0.0
H859 H 0.30213 0.57521 -2e-05 0.0
H860 H 0.23386 0.63615 0.99828 0.0
H861 H 0.23107 0.55107 0.98525 0.0
C862 C 0.19175 0.555 0.9832 0.0
C863 C 0.17109 0.57056 0.9853 0.0
C864 C 0.24885 0.62282 0.99875 0.0
C865 C 0.21895 0.58764 0.99343 0.0
C866 C 0.27321 0.63124 0.00092 0.0
C867 C 0.29303 0.61434 0.00133 0.0
C868 C 0.2443 0.59735 0.9968 0.0
C869 C 0.28756 0.589 -0.0003 0.0
C870 C 0.21551 0.56335 0.98735 0.0
C871 C 0.17528 0.59455 0.99194 0.0
N872 N 0.26379 0.58133 0.99739 0.0
N873 N 0.19874 0.60241 0.99565 0.0
H874 H 0.40649 0.66003 0.22782 0.0
H875 H 0.44315 0.79278 0.26601 0.0
H876 H 0.47793 0.67823 0.25025 0.0
H877 H 0.3698 0.77609 0.2461 0.0
H878 H 0.4545 0.74963 0.26263 0.0
H879 H 0.39093 0.70058 0.23712 0.0
C880 C 0.41875 0.67233 0.23505 0.0
C881 C 0.44363 0.66584 0.23813 0.0
C882 C 0.43586 0.75526 0.25906 0.0
C883 C 0.42608 0.71237 0.2485 0.0
C884 C 0.42933 0.78004 0.26093 0.0
C885 C 0.40549 0.78827 0.25616 0.0
C886 C 0.41858 0.73834 0.25218 0.0
C887 C 0.38842 0.77065 0.24986 0.0
C888 C 0.4099 0.69555 0.24022 0.0
C889 C 0.45874 0.68262 0.24736 0.0
N890 N 0.39537 0.74653 0.24789 0.0
N891 N 0.4498 0.70514 0.25206 0.0
H892 H 0.33602 0.9575 0.49868 0.0
H893 H 0.24491 0.84218 0.51232 0.0
H894 H 0.3596 0.88115 0.49658 0.0
H895 H 0.22041 0.91784 0.50621 0.0
H896 H 0.28795 0.85661 0.51222 0.0
H897 H 0.29462 0.94368 0.50693 0.0
C898 C 0.33257 0.93784 0.50009 0.0
C899 C 0.35131 0.92048 0.49671 0.0
C900 C 0.27313 0.87007 0.51111 0.0
C901 C 0.30389 0.9045 0.50624 0.0
C902 C 0.24856 0.86185 0.51125 0.0
C903 C 0.22905 0.87881 0.50908 0.0
C904 C 0.2782 0.89542 0.50885 0.0
C905 C 0.23487 0.90408 0.50774 0.0
C906 C 0.30893 0.92996 0.50486 0.0
C907 C 0.34584 0.89524 0.49913 0.0
N908 N 0.25889 0.91158 0.5075 0.0
N909 N 0.32258 0.88802 0.50356 0.0
H910 H 0.06602 0.82739 0.7292 0.0
H911 H 0.17367 0.73953 0.76525 0.0
H912 H 0.13179 0.85588 0.75497 0.0
H913 H 0.10181 0.71342 0.74814 0.0
H914 H 0.15835 0.78225 0.76325 0.0
H915 H 0.07819 0.78573 0.73771 0.0
C916 C 0.08281 0.82505 0.73694 0.0
C917 C 0.09787 0.84542 0.7413 0.0
C918 C 0.14587 0.76714 0.76016 0.0
C919 C 0.11238 0.7972 0.7507 0.0
C920 C 0.15459 0.74275 0.76134 0.0
C921 C 0.13907 0.72287 0.75672 0.0
C922 C 0.12152 0.77164 0.75421 0.0
C923 C 0.11451 0.72814 0.75172 0.0
C924 C 0.08988 0.80109 0.74168 0.0
C925 C 0.11976 0.84081 0.75099 0.0
N926 N 0.10661 0.75196 0.75042 0.0
N927 N 0.12647 0.8172 0.75521 0.0
H928 H 0.65876 0.38897 0.73906 0.0
H929 H 0.80331 0.41772 0.75153 0.0
H930 H 0.68833 0.44928 0.77017 0.0
H931 H 0.77572 0.3465 0.73459 0.0
H932 H 0.7609 0.43322 0.75227 0.0
H933 H 0.70111 0.37674 0.73179 0.0
C934 C 0.67403 0.39976 0.74431 0.0
C935 C 0.66974 0.42013 0.75543 0.0
C936 C 0.76411 0.41427 0.74822 0.0
C937 C 0.71832 0.4064 0.7468 0.0
C938 C 0.78836 0.4054 0.74771 0.0
C939 C 0.79309 0.38066 0.74316 0.0
C940 C 0.74433 0.39835 0.74411 0.0
C941 C 0.77292 0.36565 0.73827 0.0
C942 C 0.69822 0.39279 0.74006 0.0
C943 C 0.69043 0.43367 0.7614 0.0
N944 N 0.74937 0.37467 0.73901 0.0
N945 N 0.71372 0.42649 0.75709 0.0
H946 H 0.61362 0.14933 0.99251 0.0
H947 H 0.57527 0.29043 0.00595 0.0
H948 H 0.56293 0.17281 0.03291 0.0
H949 H 0.64753 0.2694 0.98725 0.0
H950 H 0.56571 0.24667 0.0109 0.0
H951 H 0.62157 0.19282 0.98554 0.0
C952 C 0.6041 0.16347 -7e-05 0.0
C953 C 0.58765 0.1571 0.01346 0.0
C954 C 0.58363 0.25168 0.00569 0.0
C955 C 0.59628 0.20699 0.00512 0.0
C956 C 0.58909 0.27661 0.0028 0.0
C957 C 0.61231 0.2836 0.99626 0.0
C958 C 0.6013 0.23352 0.0017 0.0
C959 C 0.6295 0.26486 0.99246 0.0
C960 C 0.60861 0.1883 0.99586 0.0
C961 C 0.57543 0.17651 0.02219 0.0
N962 N 0.62361 0.24064 0.99515 0.0
N963 N 0.57998 0.2005 0.01786 0.0
H964 H 0.84276 0.04288 0.25772 0.0
H965 H 0.7407 0.15063 0.25943 0.0
H966 H 0.85498 0.11311 0.28342 0.0
H967 H 0.72711 0.07566 0.24198 0.0
H968 H 0.78436 0.13981 0.26452 0.0
H969 H 0.80233 0.05754 0.24754 0.0
C970 C 0.83701 0.0615 0.26107 0.0
C971 C 0.85212 0.07668 0.27161 0.0
C972 C 0.77177 0.12583 0.25949 0.0
C973 C 0.80571 0.0936 0.26011 0.0
C974 C 0.74686 0.13198 0.25659 0.0
C975 C 0.73007 0.11399 0.25043 0.0
C976 C 0.77996 0.1016 0.25607 0.0
C977 C 0.73919 0.09013 0.24692 0.0
C978 C 0.81391 0.06987 0.25528 0.0
C979 C 0.84393 0.10082 0.27529 0.0
N980 N 0.76341 0.08467 0.24982 0.0
N981 N 0.82112 0.10845 0.26972 0.0
H982 H 0.96808 0.32244 0.49972 0.0
H983 H 0.84448 0.24125 0.50335 0.0
H984 H 0.90227 0.34621 0.52691 0.0
H985 H 0.91774 0.20932 0.50246 0.0
H986 H 0.86314 0.28275 0.5033 0.0
H987 H 0.94708 0.28374 0.49209 0.0
C988 C 0.9492 0.31973 0.50399 0.0
C989 C 0.93722 0.33762 0.51433 0.0
C990 C 0.87505 0.26661 0.50286 0.0
C991 C 0.9129 0.29355 0.50512 0.0
C992 C 0.86445 0.24298 0.5028 0.0
C993 C 0.87964 0.22187 0.50306 0.0
C994 C 0.90094 0.26907 0.50283 0.0
C995 C 0.9054 0.22514 0.50242 0.0
C996 C 0.93722 0.29766 0.49952 0.0
C997 C 0.91238 0.33321 0.51887 0.0
N998 N 0.91526 0.24831 0.50237 0.0
N999 N 0.90113 0.31157 0.51435 0.0
H1000 H 0.65419 0.13333 0.48101 0.0
H1001 H 0.78465 0.07679 0.51206 0.0
H1002 H 0.66726 0.05526 0.48923 0.0
H1003 H 0.77248 0.15471 0.50219 0.0
H1004 H 0.74103 0.06895 0.50557 0.0
H1005 H 0.69653 0.14191 0.49093 0.0
C1006 C 0.66584 0.11801 0.48514 0.0
C1007 C 0.65716 0.09351 0.48421 0.0
C1008 C 0.74788 0.08778 0.50486 0.0
C1009 C 0.70585 0.10319 0.49532 0.0
C1010 C 0.77285 0.09229 0.50855 0.0
C1011 C 0.78241 0.11646 0.50757 0.0
C1012 C 0.73223 0.10753 0.50014 0.0
C1013 C 0.76605 0.13576 0.50305 0.0
C1014 C 0.6901 0.12291 0.49067 0.0
C1015 C 0.67327 0.0744 0.48948 0.0
N1016 N 0.74181 0.13086 0.49945 0.0
N1017 N 0.69683 0.07963 0.49473 0.0
H1018 H 0.96647 0.16792 0.74541 0.0
H1019 H 0.86155 0.2731 0.74813 0.0
H1020 H 0.88865 0.154 0.73623 0.0
H1021 H 0.93919 0.28736 0.75809 0.0
H1022 H 0.87106 0.22914 0.7447 0.0
H1023 H 0.9568 0.2115 0.75108 0.0
C1024 C 0.94736 0.17397 0.74465 0.0
C1025 C 0.92837 0.15716 0.74037 0.0
C1026 C 0.88602 0.24189 0.74767 0.0
C1027 C 0.91714 0.20708 0.74684 0.0
C1028 C 0.8806 0.26705 0.74962 0.0
C1029 C 0.89958 0.28412 0.75333 0.0
C1030 C 0.91062 0.23361 0.7494 0.0
C1031 C 0.92391 0.27501 0.75515 0.0
C1032 C 0.94183 0.19885 0.74794 0.0
C1033 C 0.9039 0.16609 0.73975 0.0
N1034 N 0.92871 0.25045 0.75313 0.0
N1035 N 0.89903 0.19039 0.74286 0.0
H1036 H 0.82141 0.46559 0.00189 0.0
H1037 H 0.73982 0.34172 0.00358 0.0
H1038 H 0.84846 0.39461 0.98433 0.0
H1039 H 0.70939 0.41563 0.00382 0.0
H1040 H 0.78169 0.35953 0.00388 0.0
H1041 H 0.78243 0.44595 0.01013 0.0
C1042 C 0.8193 0.44583 -7e-05 0.0
C1043 C 0.83817 0.43187 0.99208 0.0
C1044 C 0.76582 0.3718 0.00411 0.0
C1045 C 0.79355 0.40921 0.00167 0.0
C1046 C 0.74194 0.36166 0.00403 0.0
C1047 C 0.72112 0.37724 0.00351 0.0
C1048 C 0.76882 0.39766 0.0039 0.0
C1049 C 0.72494 0.40295 0.00404 0.0
C1050 C 0.79703 0.43464 0.00468 0.0
C1051 C 0.83452 0.40618 0.99033 0.0
N1052 N 0.74829 0.41234 0.00412 0.0
N1053 N 0.81255 0.39573 0.99489 0.0
H1054 H 0.61623 0.35392 0.24436 0.0
H1055 H 0.59487 0.20755 0.25016 0.0
H1056 H 0.5475 0.31626 0.23227 0.0
H1057 H 0.66708 0.24104 0.25592 0.0
H1058 H 0.57633 0.24858 0.24893 0.0
H1059 H 0.63428 0.31411 0.25334 0.0
C1060 C 0.60483 0.33745 0.24373 0.0
C1061 C 0.58024 0.33864 0.23744 0.0
C1062 C 0.59623 0.24707 0.25061 0.0
C1063 C 0.60077 0.29309 0.24789 0.0
C1064 C 0.60684 0.22359 0.25134 0.0
C1065 C 0.63259 0.22088 0.25292 0.0
C1066 C 0.61145 0.26815 0.25127 0.0
C1067 C 0.64713 0.24234 0.2546 0.0
C1068 C 0.61515 0.31474 0.24894 0.0
C1069 C 0.56634 0.31662 0.23725 0.0
N1070 N 0.63638 0.26515 0.2535 0.0
N1071 N 0.57683 0.29487 0.24226 0.0
H1072 H 0.12364 0.97113 0.38657 0.0
H1073 H 0.14767 0.8435 0.43817 0.0
H1074 H 0.1212 0.89942 0.36157 0.0
H1075 H 0.14429 0.91479 0.46341 0.0
H1076 H 0.13967 0.86365 0.40966 0.0
H1077 H 0.13251 0.95087 0.41472 0.0
C1078 C 0.1251 0.95113 0.387 0.0
C1079 C 0.12168 0.93695 0.3717 0.0
C1080 C 0.14057 0.87489 0.42144 0.0
C1081 C 0.13184 0.9136 0.40387 0.0
C1082 C 0.14511 0.86339 0.43763 0.0
C1083 C 0.14565 0.87751 0.45306 0.0
C1084 C 0.13719 0.90072 0.42073 0.0
C1085 C 0.14306 0.90326 0.45179 0.0
C1086 C 0.13006 0.93955 0.40308 0.0
C1087 C 0.12344 0.91105 0.37307 0.0
N1088 N 0.13879 0.91406 0.43591 0.0
N1089 N 0.12846 0.90022 0.38886 0.0
H1090 H 0.06156 0.62795 0.63078 0.0
H1091 H 0.18369 0.63686 0.68975 0.0
H1092 H 0.12795 0.58747 0.61756 0.0
H1093 H 0.11044 0.64025 0.7116 0.0
H1094 H 0.16519 0.62649 0.66086 0.0
H1095 H 0.0808 0.6397 0.65867 0.0
C1096 C 0.08007 0.6213 0.63372 0.0
C1097 C 0.09299 0.60648 0.62169 0.0
C1098 C 0.15325 0.62953 0.67202 0.0
C1099 C 0.11544 0.62082 0.65344 0.0
C1100 C 0.16375 0.63544 0.68838 0.0
C1101 C 0.14848 0.63857 0.70298 0.0
C1102 C 0.12736 0.62769 0.67031 0.0
C1103 C 0.12275 0.63725 0.70064 0.0
C1104 C 0.0911 0.62825 0.64961 0.0
C1105 C 0.11731 0.59921 0.62619 0.0
N1106 N 0.11295 0.63187 0.68459 0.0
N1107 N 0.12779 0.60654 0.64167 0.0
H1108 H 0.43927 0.56662 0.88223 0.0
H1109 H 0.37066 0.66261 0.94575 0.0
H1110 H 0.4097 0.63648 0.86397 0.0
H1111 H 0.39749 0.59051 0.96174 0.0
H1112 H 0.38528 0.6543 0.91587 0.0
H1113 H 0.4246 0.57599 0.91167 0.0
C1114 C 0.42957 0.5839 0.88439 0.0
C1115 C 0.4256 0.60071 0.87056 0.0
C1116 C 0.38789 0.64034 0.92596 0.0
C1117 C 0.40889 0.61175 0.90442 0.0
C1118 C 0.37953 0.64505 0.94302 0.0
C1119 C 0.38276 0.62724 0.95634 0.0
C1120 C 0.3996 0.6177 0.92224 0.0
C1121 C 0.39447 0.60484 0.95198 0.0
C1122 C 0.42128 0.58932 0.90125 0.0
C1123 C 0.41336 0.62307 0.87427 0.0
N1124 N 0.40244 0.60077 0.93538 0.0
N1125 N 0.40537 0.62792 0.89084 0.0
H1126 H 0.4622 0.91005 0.12942 0.0
H1127 H 0.36076 0.87721 0.20191 0.0
H1128 H 0.38353 0.91727 0.12015 0.0
H1129 H 0.43925 0.88234 0.21301 0.0
H1130 H 0.3686 0.88979 0.17155 0.0
H1131 H 0.454 0.89785 0.15976 0.0
C1132 C 0.44318 0.90901 0.13377 0.0
C1133 C 0.42352 0.91463 0.12222 0.0
C1134 C 0.38408 0.88817 0.18066 0.0
C1135 C 0.41396 0.90072 0.157 0.0
C1136 C 0.37965 0.8809 0.19799 0.0
C1137 C 0.39937 0.87866 0.2101 0.0
C1138 C 0.40843 0.8931 0.17532 0.0
C1139 C 0.42343 0.88382 0.20421 0.0
C1140 C 0.43851 0.90216 0.15112 0.0
C1141 C 0.39925 0.91331 0.12865 0.0
N1142 N 0.42725 0.89072 0.18727 0.0
N1143 N 0.39515 0.90637 0.14559 0.0
H1144 H 0.14565 0.58265 0.88632 0.0
H1145 H 0.10811 0.59334 0.78621 0.0
H1146 H 0.07056 0.57073 0.86838 0.0
H1147 H 0.16571 0.6397 0.80816 0.0
H1148 H 0.09597 0.58155 0.81589 0.0
H1149 H 0.15567 0.60027 0.85742 0.0
C1150 C 0.13131 0.58377 0.87627 0.0
C1151 C 0.10729 0.57515 0.87963 0.0
C1152 C 0.1111 0.5945 0.81423 0.0
C1153 C 0.1186 0.59502 0.84671 0.0
C1154 C 0.1181 0.60119 0.79731 0.0
C1155 C 0.13796 0.61753 0.79474 0.0
C1156 C 0.12443 0.60367 0.82874 0.0
C1157 C 0.15021 0.62715 0.8096 0.0
C1158 C 0.13697 0.59397 0.85989 0.0
C1159 C 0.08928 0.57722 0.86628 0.0
N1160 N 0.1435 0.61978 0.82602 0.0
N1161 N 0.09538 0.58667 0.85032 0.0
H1162 H 0.39736 0.59075 0.13304 0.0
H1163 H 0.41398 0.65129 0.03968 0.0
H1164 H 0.46089 0.63645 0.12136 0.0
H1165 H 0.34159 0.64322 0.06234 0.0
H1166 H 0.43282 0.64152 0.06834 0.0
H1167 H 0.37759 0.60504 0.10583 0.0
C1168 C 0.40714 0.6039 0.1249 0.0
C1169 C 0.43092 0.61242 0.12967 0.0
C1170 C 0.41282 0.64204 0.06707 0.0
C1171 C 0.40849 0.62827 0.09826 0.0
C1172 C 0.40212 0.64742 0.05077 0.0
C1173 C 0.37632 0.64726 0.04872 0.0
C1174 C 0.39755 0.63621 0.0813 0.0
C1175 C 0.36161 0.64293 0.06346 0.0
C1176 C 0.39582 0.61196 0.10934 0.0
C1177 C 0.44281 0.62895 0.1182 0.0
N1178 N 0.37245 0.63705 0.07915 0.0
N1179 N 0.43154 0.63618 0.10298 0.0
H1180 H 0.43145 0.9423 0.37577 0.0
H1181 H 0.37733 0.83392 0.31515 0.0
H1182 H 0.40102 0.87466 0.39693 0.0
H1183 H 0.38683 0.90885 0.29694 0.0
H1184 H 0.38899 0.84724 0.345 0.0
H1185 H 0.41867 0.92907 0.34633 0.0
C1186 C 0.42197 0.92474 0.37428 0.0
C1187 C 0.41726 0.90963 0.38893 0.0
C1188 C 0.3886 0.86077 0.33447 0.0
C1189 C 0.40291 0.89423 0.35518 0.0
C1190 C 0.38203 0.85315 0.3175 0.0
C1191 C 0.38226 0.87017 0.30361 0.0
C1192 C 0.39503 0.88564 0.33749 0.0
C1193 C 0.38758 0.89503 0.30727 0.0
C1194 C 0.41476 0.91716 0.35744 0.0
C1195 C 0.40538 0.88679 0.38606 0.0
N1196 N 0.39403 0.90202 0.32385 0.0
N1197 N 0.39865 0.87979 0.36952 0.0
H1198 H 0.05573 0.90425 0.62522 0.0
H1199 H 0.16098 0.87452 0.55472 0.0
H1200 H 0.13386 0.91291 0.63613 0.0
H1201 H 0.08301 0.87956 0.54179 0.0
H1202 H 0.15148 0.88543 0.58517 0.0
H1203 H 0.06548 0.892 0.59512 0.0
C1204 C 0.07495 0.90348 0.6213 0.0
C1205 C 0.094 0.90966 0.6332 0.0
C1206 C 0.13648 0.88412 0.57565 0.0
C1207 C 0.10533 0.8957 0.59872 0.0
C1208 C 0.14187 0.8778 0.55826 0.0
C1209 C 0.12279 0.87613 0.54561 0.0
C1210 C 0.11182 0.88863 0.58046 0.0
C1211 C 0.09838 0.88069 0.55102 0.0
C1212 C 0.08051 0.89661 0.60408 0.0
C1213 C 0.11857 0.9086 0.62732 0.0
N1214 N 0.09363 0.88669 0.56801 0.0
N1215 N 0.12354 0.90169 0.61052 0.0
H1216 H 0.60872 0.44532 0.87246 0.0
H1217 H 0.63907 0.32925 0.93489 0.0
H1218 H 0.59942 0.36941 0.85597 0.0
H1219 H 0.63496 0.40447 0.95346 0.0
H1220 H 0.62781 0.34365 0.90518 0.0
H1221 H 0.62098 0.43079 0.90177 0.0
C1222 C 0.60933 0.42558 0.87502 0.0
C1223 C 0.60309 0.40854 0.86177 0.0
C1224 C 0.62929 0.35701 0.91576 0.0
C1225 C 0.61722 0.39175 0.89524 0.0
C1226 C 0.6357 0.34879 0.93264 0.0
C1227 C 0.63694 0.36566 0.94658 0.0
C1228 C 0.62477 0.38235 0.91283 0.0
C1229 C 0.63326 0.39086 0.94306 0.0
C1230 C 0.61625 0.41729 0.89175 0.0
C1231 C 0.6039 0.38317 0.86585 0.0
N1232 N 0.6272 0.39846 0.92653 0.0
N1233 N 0.61095 0.37553 0.8822 0.0
H1234 H 0.57786 0.08298 0.12808 0.0
H1235 H 0.68617 0.13945 0.18825 0.0
H1236 H 0.64774 0.10746 0.10704 0.0
H1237 H 0.61092 0.13067 0.20549 0.0
H1238 H 0.67336 0.12634 0.15855 0.0
H1239 H 0.59061 0.09831 0.15695 0.0
C1240 C 0.59583 0.09173 0.12948 0.0
C1241 C 0.61168 0.09403 0.11504 0.0
C1242 C 0.65965 0.12728 0.16883 0.0
C1243 C 0.62654 0.11138 0.14819 0.0
C1244 C 0.66697 0.13468 0.18571 0.0
C1245 C 0.6497 0.13502 0.19931 0.0
C1246 C 0.63483 0.12061 0.16562 0.0
C1247 C 0.62491 0.12956 0.1954 0.0
C1248 C 0.60313 0.10042 0.146 0.0
C1249 C 0.635 0.10502 0.11781 0.0
N1250 N 0.61823 0.12231 0.17894 0.0
N1251 N 0.64173 0.11328 0.13406 0.0
H1252 H 0.89237 0.11097 0.3733 0.0
H1253 H 0.89431 0.08077 0.47617 0.0
H1254 H 0.9315 0.04926 0.39675 0.0
H1255 H 0.86313 0.1483 0.45491 0.0
H1256 H 0.90783 0.06931 0.44694 0.0
H1257 H 0.88159 0.12544 0.40276 0.0
C1258 C 0.8989 0.10057 0.38462 0.0
C1259 C 0.91277 0.07875 0.3825 0.0
C1260 C 0.89811 0.08669 0.44861 0.0
C1261 C 0.9002 0.09507 0.41623 0.0
C1262 C 0.89027 0.09325 0.46535 0.0
C1263 C 0.87736 0.1155 0.46804 0.0
C1264 C 0.89294 0.10234 0.43429 0.0
C1265 C 0.87298 0.13096 0.45346 0.0
C1266 C 0.89262 0.1088 0.40143 0.0
C1267 C 0.9204 0.0659 0.39768 0.0
N1268 N 0.88062 0.12401 0.43716 0.0
N1269 N 0.91394 0.0742 0.41385 0.0
H1270 H 0.93577 0.35846 0.61756 0.0
H1271 H 0.92809 0.40184 0.71614 0.0
H1272 H 0.95039 0.43421 0.63223 0.0
H1273 H 0.87628 0.34797 0.69565 0.0
H1274 H 0.94101 0.41115 0.68612 0.0
H1275 H 0.91823 0.35108 0.64685 0.0
C1276 C 0.93524 0.37349 0.62698 0.0
C1277 C 0.94452 0.39694 0.62261 0.0
C1278 C 0.92668 0.39744 0.6882 0.0
C1279 C 0.92494 0.38861 0.65595 0.0
C1280 C 0.91935 0.39205 0.70531 0.0
C1281 C 0.90105 0.37413 0.70837 0.0
C1282 C 0.91614 0.38436 0.67407 0.0
C1283 C 0.89034 0.36202 0.69383 0.0
C1284 C 0.92513 0.36933 0.64357 0.0
C1285 C 0.94334 0.41591 0.63516 0.0
N1286 N 0.89831 0.3671 0.67727 0.0
N1287 N 0.93401 0.41125 0.65137 0.0
H1288 H 0.57125 0.06429 0.36573 0.0
H1289 H 0.64775 0.1543 0.3025 0.0
H1290 H 0.60994 0.12942 0.38423 0.0
H1291 H 0.62066 0.08222 0.28684 0.0
H1292 H 0.63171 0.14703 0.33205 0.0
H1293 H 0.5869 0.07209 0.33622 0.0
C1294 C 0.58309 0.08019 0.36363 0.0
C1295 C 0.58929 0.09617 0.37756 0.0
C1296 C 0.62934 0.1328 0.32213 0.0
C1297 C 0.60707 0.10539 0.34367 0.0
C1298 C 0.63848 0.13694 0.30525 0.0
C1299 C 0.63566 0.11883 0.29212 0.0
C1300 C 0.6171 0.11048 0.32591 0.0
C1301 C 0.62344 0.0967 0.2965 0.0
C1302 C 0.59195 0.08469 0.34674 0.0
C1303 C 0.60434 0.11676 0.3739 0.0
N1304 N 0.61458 0.0932 0.31298 0.0
N1305 N 0.61272 0.12076 0.35733 0.0
H1306 H 0.8659 0.07805 0.64316 0.0
H1307 H 0.90197 0.13867 0.55354 0.0
H1308 H 0.93358 0.12038 0.63851 0.0
H1309 H 0.82605 0.14005 0.57046 0.0
H1310 H 0.915 0.12708 0.58344 0.0
H1311 H 0.85139 0.09589 0.61539 0.0
C1312 C 0.8777 0.09117 0.63649 0.0
C1313 C 0.90118 0.09752 0.64335 0.0
C1314 C 0.89551 0.13011 0.58064 0.0
C1315 C 0.88483 0.1172 0.61116 0.0
C1316 C 0.8881 0.1365 0.56363 0.0
C1317 C 0.86292 0.13955 0.55962 0.0
C1318 C 0.87754 0.12642 0.59358 0.0
C1319 C 0.84561 0.13729 0.57311 0.0
C1320 C 0.86937 0.10122 0.62056 0.0
C1321 C 0.91569 0.11426 0.63367 0.0
N1322 N 0.85318 0.1303 0.58951 0.0
N1323 N 0.90741 0.12325 0.61799 0.0
H1324 H 0.91398 0.45612 0.86724 0.0
H1325 H 0.86762 0.3369 0.81424 0.0
H1326 H 0.87865 0.39409 0.89273 0.0
H1327 H 0.87899 0.40819 0.79014 0.0
H1328 H 0.87546 0.35568 0.84328 0.0
H1329 H 0.90548 0.43693 0.83877 0.0
C1330 C 0.90428 0.43857 0.86689 0.0
C1331 C 0.89692 0.42682 0.88249 0.0
C1332 C 0.87631 0.36717 0.83161 0.0
C1333 C 0.88757 0.40451 0.84985 0.0
C1334 C 0.87192 0.35647 0.81513 0.0
C1335 C 0.8737 0.37092 0.7999 0.0
C1336 C 0.88217 0.3925 0.83273 0.0
C1337 C 0.8785 0.3963 0.80161 0.0
C1338 C 0.89955 0.42756 0.85061 0.0
C1339 C 0.88497 0.40373 0.88112 0.0
N1340 N 0.88283 0.40627 0.81773 0.0
N1341 N 0.88071 0.39331 0.8651 0.0
H1342 H 0.58709 0.35925 0.13127 0.0
H1343 H 0.58968 0.40305 0.03198 0.0
H1344 H 0.56636 0.43327 0.11562 0.0
H1345 H 0.64026 0.34726 0.05147 0.0
H1346 H 0.57784 0.41234 0.06219 0.0
H1347 H 0.60354 0.35207 0.10169 0.0
C1348 C 0.58601 0.37395 0.12158 0.0
C1349 C 0.57532 0.39685 0.12581 0.0
C1350 C 0.5917 0.39822 0.05988 0.0
C1351 C 0.59387 0.38876 0.09209 0.0
C1352 C 0.59842 0.39285 0.04264 0.0
C1353 C 0.61598 0.37433 0.03922 0.0
C1354 C 0.60216 0.3846 0.07381 0.0
C1355 C 0.62675 0.36176 0.05356 0.0
C1356 C 0.59554 0.36992 0.1048 0.0
C1357 C 0.57456 0.41539 0.11288 0.0
N1358 N 0.61942 0.36689 0.07026 0.0
N1359 N 0.58346 0.41086 0.09654 0.0
loop_
_geom_bond_atom_site_label_1
_geom_bond_atom_site_label_2
_geom_bond_distance
_geom_bond_site_symmetry_2
_ccdc_geom_bond_type
H0 C27 0.929 . S
N1 C26 1.433 . S
N1 C32 1.435 . S
N1 C38 1.423 . S
H2 C28 0.930 . S
H3 C31 0.931 . S
H4 C30 0.929 . S
H5 C33 0.930 . S
H6 C34 0.932 . S
H7 C37 0.929 . S
H8 C36 0.931 . S
H9 C39 0.935 . S
H10 C43 0.932 . S
H11 C40 0.931 . S
H12 C42 0.929 . S
H13 C45 0.929 . S
H14 C46 0.930 . S
H15 C48 0.929 . S
H16 C49 0.931 . S
H17 C51 0.930 . S
H18 C52 0.932 . S
H19 C54 0.931 . S
H20 C55 0.929 . S
H21 C57 0.929 . S
H22 C58 0.931 . S
H23 C60 0.929 . S
N24 C44 1.433 . S
N24 C50 1.435 . S
N24 C56 1.423 . S
H25 C61 0.932 . S
C26 N1 1.433 . S
C26 C27 1.363 . S
C26 C31 1.370 . S
C27 H0 0.929 . S
C27 C26 1.363 . S
C27 C28 1.385 . S
C28 H2 0.930 . S
C28 C27 1.385 . S
C28 C29 1.357 . S
C29 C28 1.357 . S
C29 C30 1.406 . S
C30 H4 0.929 . S
C30 C29 1.406 . S
C30 C31 1.391 . S
C31 H3 0.931 . S
C31 C26 1.370 . S
C31 C30 1.391 . S
C32 N1 1.435 . S
C32 C33 1.358 . S
C32 C37 1.371 . S
C33 H5 0.930 . S
C33 C32 1.358 . S
C33 C34 1.405 . S
C34 H6 0.932 . S
C34 C33 1.405 . S
C34 C35 1.383 . S
C35 C34 1.383 . S
C35 C36 1.393 . S
C36 H8 0.931 . S
C36 C35 1.393 . S
C36 C37 1.382 . S
C37 H7 0.929 . S
C37 C32 1.371 . S
C37 C36 1.382 . S
C38 N1 1.423 . S
C38 C39 1.362 . S
C38 C43 1.388 . S
C39 H9 0.935 . S
C39 C38 1.362 . S
C39 C40 1.376 1_565 S
C40 H11 0.931 . S
C40 C39 1.376 1_545 S
C40 C41 1.396 . S
C41 C40 1.396 . S
C41 C42 1.348 1_545 S
C41 C59 1.472 . S
C42 H12 0.929 . S
C42 C41 1.348 1_565 S
C42 C43 1.443 . S
C43 H10 0.932 . S
C43 C38 1.388 . S
C43 C42 1.443 . S
C44 N24 1.433 . S
C44 C45 1.363 . S
C44 C49 1.370 . S
C45 H13 0.929 . S
C45 C44 1.363 . S
C45 C46 1.385 . S
C46 H14 0.930 . S
C46 C45 1.385 . S
C46 C47 1.357 . S
C47 C46 1.357 . S
C47 C48 1.406 . S
C48 H15 0.929 . S
C48 C47 1.406 . S
C48 C49 1.391 . S
C49 H16 0.931 . S
C49 C44 1.370 . S
C49 C48 1.391 . S
C50 N24 1.435 . S
C50 C51 1.358 . S
C50 C55 1.371 . S
C51 H17 0.930 . S
C51 C50 1.358 . S
C51 C52 1.405 . S
C52 H18 0.932 . S
C52 C51 1.405 . S
C52 C53 1.383 . S
C53 C52 1.383 . S
C53 C54 1.393 . S
C54 H19 0.931 . S
C54 C53 1.393 . S
C54 C55 1.382 . S
C55 H20 0.929 . S
C55 C50 1.371 . S
C55 C54 1.382 . S
C56 N24 1.423 . S
C56 C57 1.362 . S
C56 C61 1.388 . S
C57 H21 0.929 . S
C57 C56 1.362 . S
C57 C58 1.376 1_655 S
C58 H22 0.931 . S
C58 C57 1.376 1_455 S
C58 C59 1.396 . S
C59 C41 1.472 . S
C59 C58 1.396 . S
C59 C60 1.348 1_455 S
C60 H23 0.929 . S
C60 C59 1.348 1_655 S
C60 C61 1.443 . S
C61 H25 0.932 . S
C61 C56 1.388 . S
C61 C60 1.443 . S
H62 C89 0.929 . S
N63 C88 1.433 . S
N63 C94 1.435 . S
N63 C100 1.423 . S
H64 C90 0.930 . S
H65 C93 0.931 . S
H66 C92 0.929 . S
H67 C95 0.930 . S
H68 C96 0.932 . S
H69 C99 0.929 . S
H70 C98 0.931 . S
H71 C101 0.925 1_455 S
H72 C105 0.932 . S
H73 C102 0.931 . S
H74 C104 0.929 . S
H75 C107 0.929 . S
H76 C108 0.930 . S
H77 C110 0.929 . S
H78 C111 0.931 . S
H79 C113 0.930 . S
H80 C114 0.932 . S
H81 C116 0.931 . S
H82 C117 0.929 . S
H83 C119 0.929 . S
H84 C120 0.931 . S
H85 C122 0.929 . S
N86 C106 1.433 . S
N86 C112 1.435 . S
N86 C118 1.423 . S
H87 C123 0.932 . S
C88 N63 1.433 . S
C88 C89 1.363 . S
C88 C93 1.370 . S
C89 H62 0.929 . S
C89 C88 1.363 . S
C89 C90 1.385 . S
C90 H64 0.930 . S
C90 C89 1.385 . S
C90 C91 1.357 . S
C91 C90 1.357 . S
C91 C92 1.406 . S
C92 H66 0.929 . S
C92 C91 1.406 . S
C92 C93 1.391 . S
C93 H65 0.931 . S
C93 C88 1.370 . S
C93 C92 1.391 . S
C94 N63 1.435 . S
C94 C95 1.358 . S
C94 C99 1.371 . S
C95 H67 0.930 . S
C95 C94 1.358 . S
C95 C96 1.405 . S
C96 H68 0.932 . S
C96 C95 1.405 . S
C96 C97 1.383 . S
C97 C96 1.383 . S
C97 C98 1.393 . S
C98 H70 0.931 . S
C98 C97 1.393 . S
C98 C99 1.382 . S
C99 H69 0.929 . S
C99 C94 1.371 . S
C99 C98 1.382 . S
C100 N63 1.423 . S
C100 C101 1.399 . S
C100 C105 1.388 . S
C101 H71 0.925 1_655 S
C101 C100 1.399 . S
C101 C102 1.346 1_655 S
C102 H73 0.931 . S
C102 C101 1.346 1_455 S
C102 C103 1.396 . S
C103 C102 1.396 . S
C103 C104 1.348 1_455 S
C103 C121 1.472 . S
C104 H74 0.929 . S
C104 C103 1.348 1_655 S
C104 C105 1.443 . S
C105 H72 0.932 . S
C105 C100 1.388 . S
C105 C104 1.443 . S
C106 N86 1.433 . S
C106 C107 1.363 . S
C106 C111 1.370 . S
C107 H75 0.929 . S
C107 C106 1.363 . S
C107 C108 1.385 . S
C108 H76 0.930 . S
C108 C107 1.385 . S
C108 C109 1.357 . S
C109 C108 1.357 . S
C109 C110 1.406 . S
C110 H77 0.929 . S
C110 C109 1.406 . S
C110 C111 1.391 . S
C111 H78 0.931 . S
C111 C106 1.370 . S
C111 C110 1.391 . S
C112 N86 1.435 . S
C112 C113 1.358 . S
C112 C117 1.371 . S
C113 H79 0.930 . S
C113 C112 1.358 . S
C113 C114 1.405 . S
C114 H80 0.932 . S
C114 C113 1.405 . S
C114 C115 1.383 . S
C115 C114 1.383 . S
C115 C116 1.393 . S
C116 H81 0.931 . S
C116 C115 1.393 . S
C116 C117 1.382 . S
C117 H82 0.929 . S
C117 C112 1.371 . S
C117 C116 1.382 . S
C118 N86 1.423 . S
C118 C119 1.362 . S
C118 C123 1.388 . S
C119 H83 0.929 . S
C119 C118 1.362 . S
C119 C120 1.376 . S
C120 H84 0.931 . S
C120 C119 1.376 . S
C120 C121 1.396 . S
C121 C103 1.472 . S
C121 C120 1.396 . S
C121 C122 1.348 . S
C122 H85 0.929 . S
C122 C121 1.348 . S
C122 C123 1.443 . S
C123 H87 0.932 . S
C123 C118 1.388 . S
C123 C122 1.443 . S
H124 C151 0.929 . S
N125 C150 1.433 . S
N125 C156 1.435 . S
N125 C162 1.423 . S
H126 C152 0.930 . S
H127 C155 0.931 . S
H128 C154 0.929 . S
H129 C157 0.930 . S
H130 C158 0.932 . S
H131 C161 0.929 . S
H132 C160 0.931 . S
H133 C163 0.929 . S
H134 C167 0.932 . S
H135 C164 0.931 . S
H136 C166 0.929 . S
H137 C169 0.929 . S
H138 C170 0.930 . S
H139 C172 0.929 . S
H140 C173 0.931 . S
H141 C175 0.930 . S
H142 C176 0.932 . S
H143 C178 0.931 . S
H144 C179 0.929 . S
H145 C181 0.929 . S
H146 C182 0.931 . S
H147 C184 0.929 . S
N148 C168 1.433 . S
N148 C174 1.435 . S
N148 C180 1.423 . S
H149 C185 0.932 . S
C150 N125 1.433 . S
C150 C151 1.363 . S
C150 C155 1.370 . S
C151 H124 0.929 . S
C151 C150 1.363 . S
C151 C152 1.385 . S
C152 H126 0.930 . S
C152 C151 1.385 . S
C152 C153 1.357 . S
C153 C152 1.357 . S
C153 C154 1.406 . S
C154 H128 0.929 . S
C154 C153 1.406 . S
C154 C155 1.391 . S
C155 H127 0.931 . S
C155 C150 1.370 . S
C155 C154 1.391 . S
C156 N125 1.435 . S
C156 C157 1.358 . S
C156 C161 1.371 . S
C157 H129 0.930 . S
C157 C156 1.358 . S
C157 C158 1.405 . S
C158 H130 0.932 . S
C158 C157 1.405 . S
C158 C159 1.383 . S
C159 C158 1.383 . S
C159 C160 1.393 . S
C160 H132 0.931 . S
C160 C159 1.393 . S
C160 C161 1.382 . S
C161 H131 0.929 . S
C161 C156 1.371 . S
C161 C160 1.382 . S
C162 N125 1.423 . S
C162 C163 1.362 . S
C162 C167 1.388 . S
C163 H133 0.929 . S
C163 C162 1.362 . S
C163 C164 1.376 . S
C164 H135 0.931 . S
C164 C163 1.376 . S
C164 C165 1.396 . S
C165 C164 1.396 . S
C165 C166 1.348 . S
C165 C183 1.472 . S
C166 H136 0.929 . S
C166 C165 1.348 . S
C166 C167 1.443 . S
C167 H134 0.932 . S
C167 C162 1.388 . S
C167 C166 1.443 . S
C168 N148 1.433 . S
C168 C169 1.363 . S
C168 C173 1.370 . S
C169 H137 0.929 . S
C169 C168 1.363 . S
C169 C170 1.385 . S
C170 H138 0.930 . S
C170 C169 1.385 . S
C170 C171 1.357 . S
C171 C170 1.357 . S
C171 C172 1.406 . S
C172 H139 0.929 . S
C172 C171 1.406 . S
C172 C173 1.391 . S
C173 H140 0.931 . S
C173 C168 1.370 . S
C173 C172 1.391 . S
C174 N148 1.435 . S
C174 C175 1.358 . S
C174 C179 1.371 . S
C175 H141 0.930 . S
C175 C174 1.358 . S
C175 C176 1.405 . S
C176 H142 0.932 . S
C176 C175 1.405 . S
C176 C177 1.383 . S
C177 C176 1.383 . S
C177 C178 1.393 . S
C178 H143 0.931 . S
C178 C177 1.393 . S
C178 C179 1.382 . S
C179 H144 0.929 . S
C179 C174 1.371 . S
C179 C178 1.382 . S
C180 N148 1.423 . S
C180 C181 1.362 . S
C180 C185 1.388 . S
C181 H145 0.929 . S
C181 C180 1.362 . S
C181 C182 1.376 . S
C182 H146 0.931 . S
C182 C181 1.376 . S
C182 C183 1.396 . S
C183 C165 1.472 . S
C183 C182 1.396 . S
C183 C184 1.348 . S
C184 H147 0.929 . S
C184 C183 1.348 . S
C184 C185 1.443 . S
C185 H149 0.932 . S
C185 C180 1.388 . S
C185 C184 1.443 . S
H186 C213 0.929 . S
N187 C212 1.433 . S
N187 C218 1.435 . S
N187 C224 1.423 . S
H188 C214 0.930 . S
H189 C217 0.931 . S
H190 C216 0.929 . S
H191 C219 0.930 . S
H192 C220 0.932 . S
H193 C223 0.929 . S
H194 C222 0.931 . S
H195 C225 0.929 . S
H196 C229 0.932 . S
H197 C226 0.931 . S
H198 C228 0.929 . S
H199 C231 0.929 . S
H200 C232 0.930 . S
H201 C234 0.929 . S
H202 C235 0.931 . S
H203 C237 0.930 . S
H204 C238 0.932 . S
H205 C240 0.931 . S
H206 C241 0.929 . S
H207 C243 0.929 . S
H208 C244 0.931 1_565 S
H209 C246 0.929 . S
N210 C230 1.433 . S
N210 C236 1.435 . S
N210 C242 1.423 . S
H211 C247 0.932 . S
C212 N187 1.433 . S
C212 C213 1.363 . S
C212 C217 1.370 . S
C213 H186 0.929 . S
C213 C212 1.363 . S
C213 C214 1.385 . S
C214 H188 0.930 . S
C214 C213 1.385 . S
C214 C215 1.357 . S
C215 C214 1.357 . S
C215 C216 1.406 . S
C216 H190 0.929 . S
C216 C215 1.406 . S
C216 C217 1.391 . S
C217 H189 0.931 . S
C217 C212 1.370 . S
C217 C216 1.391 . S
C218 N187 1.435 . S
C218 C219 1.358 . S
C218 C223 1.371 . S
C219 H191 0.930 . S
C219 C218 1.358 . S
C219 C220 1.405 . S
C220 H192 0.932 . S
C220 C219 1.405 . S
C220 C221 1.383 . S
C221 C220 1.383 . S
C221 C222 1.393 . S
C222 H194 0.931 . S
C222 C221 1.393 . S
C222 C223 1.382 . S
C223 H193 0.929 . S
C223 C218 1.371 . S
C223 C222 1.382 . S
C224 N187 1.423 . S
C224 C225 1.362 . S
C224 C229 1.388 . S
C225 H195 0.929 . S
C225 C224 1.362 . S
C225 C226 1.376 . S
C226 H197 0.931 . S
C226 C225 1.376 . S
C226 C227 1.396 . S
C227 C226 1.396 . S
C227 C228 1.348 . S
C227 C245 1.472 1_565 S
C228 H198 0.929 . S
C228 C227 1.348 . S
C228 C229 1.443 . S
C229 H196 0.932 . S
C229 C224 1.388 . S
C229 C228 1.443 . S
C230 N210 1.433 . S
C230 C231 1.363 . S
C230 C235 1.370 . S
C231 H199 0.929 . S
C231 C230 1.363 . S
C231 C232 1.385 . S
C232 H200 0.930 . S
C232 C231 1.385 . S
C232 C233 1.357 . S
C233 C232 1.357 . S
C233 C234 1.406 . S
C234 H201 0.929 . S
C234 C233 1.406 . S
C234 C235 1.391 . S
C235 H202 0.931 . S
C235 C230 1.370 . S
C235 C234 1.391 . S
C236 N210 1.435 . S
C236 C237 1.358 . S
C236 C241 1.371 . S
C237 H203 0.930 . S
C237 C236 1.358 . S
C237 C238 1.405 . S
C238 H204 0.932 . S
C238 C237 1.405 . S
C238 C239 1.383 . S
C239 C238 1.383 . S
C239 C240 1.393 . S
C240 H205 0.931 . S
C240 C239 1.393 . S
C240 C241 1.382 . S
C241 H206 0.929 . S
C241 C236 1.371 . S
C241 C240 1.382 . S
C242 N210 1.423 . S
C242 C243 1.362 . S
C242 C247 1.388 . S
C243 H207 0.929 . S
C243 C242 1.362 . S
C243 C244 1.376 . S
C244 H208 0.931 1_545 S
C244 C243 1.376 . S
C244 C245 1.396 . S
C245 C227 1.472 1_545 S
C245 C244 1.396 . S
C245 C246 1.348 . S
C246 H209 0.929 . S
C246 C245 1.348 . S
C246 C247 1.443 . S
C247 H211 0.932 . S
C247 C242 1.388 . S
C247 C246 1.443 . S
H248 C275 0.929 . S
N249 C274 1.433 . S
N249 C280 1.435 . S
N249 C286 1.423 . S
H250 C276 0.930 . S
H251 C279 0.931 . S
H252 C278 0.929 . S
H253 C281 0.930 . S
H254 C282 0.932 . S
H255 C285 0.929 . S
H256 C284 0.931 . S
H257 C287 0.929 . S
H258 C291 0.932 . S
H259 C288 0.931 . S
H260 C290 0.929 . S
H261 C293 0.929 . S
H262 C294 0.930 . S
H263 C296 0.929 . S
H264 C297 0.931 . S
H265 C299 0.930 . S
H266 C300 0.932 . S
H267 C302 0.931 . S
H268 C303 0.929 . S
H269 C305 0.929 . S
H270 C306 0.931 . S
H271 C308 0.929 . S
N272 C292 1.433 . S
N272 C298 1.435 . S
N272 C304 1.423 . S
H273 C309 0.932 . S
C274 N249 1.433 . S
C274 C275 1.363 . S
C274 C279 1.370 . S
C275 H248 0.929 . S
C275 C274 1.363 . S
C275 C276 1.385 . S
C276 H250 0.930 . S
C276 C275 1.385 . S
C276 C277 1.357 . S
C277 C276 1.357 . S
C277 C278 1.406 . S
C278 H252 0.929 . S
C278 C277 1.406 . S
C278 C279 1.391 . S
C279 H251 0.931 . S
C279 C274 1.370 . S
C279 C278 1.391 . S
C280 N249 1.435 . S
C280 C281 1.358 . S
C280 C285 1.371 . S
C281 H253 0.930 . S
C281 C280 1.358 . S
C281 C282 1.405 . S
C282 H254 0.932 . S
C282 C281 1.405 . S
C282 C283 1.383 . S
C283 C282 1.383 . S
C283 C284 1.393 . S
C284 H256 0.931 . S
C284 C283 1.393 . S
C284 C285 1.382 . S
C285 H255 0.929 . S
C285 C280 1.371 . S
C285 C284 1.382 . S
C286 N249 1.423 . S
C286 C287 1.362 . S
C286 C291 1.388 . S
C287 H257 0.929 . S
C287 C286 1.362 . S
C287 C288 1.376 . S
C288 H259 0.931 . S
C288 C287 1.376 . S
C288 C289 1.396 . S
C289 C288 1.396 . S
C289 C290 1.348 . S
C289 C307 1.472 . S
C290 H260 0.929 . S
C290 C289 1.348 . S
C290 C291 1.443 . S
C291 H258 0.932 . S
C291 C286 1.388 . S
C291 C290 1.443 . S
C292 N272 1.433 . S
C292 C293 1.363 . S
C292 C297 1.370 . S
C293 H261 0.929 . S
C293 C292 1.363 . S
C293 C294 1.385 . S
C294 H262 0.930 . S
C294 C293 1.385 . S
C294 C295 1.357 . S
C295 C294 1.357 . S
C295 C296 1.406 . S
C296 H263 0.929 . S
C296 C295 1.406 . S
C296 C297 1.391 . S
C297 H264 0.931 . S
C297 C292 1.370 . S
C297 C296 1.391 . S
C298 N272 1.435 . S
C298 C299 1.358 . S
C298 C303 1.371 . S
C299 H265 0.930 . S
C299 C298 1.358 . S
C299 C300 1.405 . S
C300 H266 0.932 . S
C300 C299 1.405 . S
C300 C301 1.383 . S
C301 C300 1.383 . S
C301 C302 1.393 . S
C302 H267 0.931 . S
C302 C301 1.393 . S
C302 C303 1.382 . S
C303 H268 0.929 . S
C303 C298 1.371 . S
C303 C302 1.382 . S
C304 N272 1.423 . S
C304 C305 1.362 . S
C304 C309 1.388 . S
C305 H269 0.929 . S
C305 C304 1.362 . S
C305 C306 1.376 1_655 S
C306 H270 0.931 . S
C306 C305 1.376 1_455 S
C306 C307 1.396 . S
C307 C289 1.472 . S
C307 C306 1.396 . S
C307 C308 1.348 1_455 S
C308 H271 0.929 . S
C308 C307 1.348 1_655 S
C308 C309 1.443 . S
C309 H273 0.932 . S
C309 C304 1.388 . S
C309 C308 1.443 . S
H310 C337 0.929 . S
N311 C336 1.433 . S
N311 C342 1.435 . S
N311 C348 1.423 . S
H312 C338 0.930 . S
H313 C341 0.931 . S
H314 C340 0.929 . S
H315 C343 0.930 . S
H316 C344 0.932 . S
H317 C347 0.929 . S
H318 C346 0.931 . S
H319 C349 0.929 . S
H320 C353 0.932 . S
H321 C350 0.931 . S
H322 C352 0.929 . S
H323 C355 0.929 . S
H324 C356 0.930 . S
H325 C358 0.929 . S
H326 C359 0.931 . S
H327 C361 0.930 . S
H328 C362 0.932 . S
H329 C364 0.931 . S
H330 C365 0.929 . S
H331 C367 0.929 . S
H332 C368 0.931 . S
H333 C370 0.929 . S
N334 C354 1.433 . S
N334 C360 1.435 . S
N334 C366 1.423 . S
H335 C371 0.932 . S
C336 N311 1.433 . S
C336 C337 1.363 . S
C336 C341 1.370 . S
C337 H310 0.929 . S
C337 C336 1.363 . S
C337 C338 1.385 . S
C338 H312 0.930 . S
C338 C337 1.385 . S
C338 C339 1.357 . S
C339 C338 1.357 . S
C339 C340 1.406 . S
C340 H314 0.929 . S
C340 C339 1.406 . S
C340 C341 1.391 . S
C341 H313 0.931 . S
C341 C336 1.370 . S
C341 C340 1.391 . S
C342 N311 1.435 . S
C342 C343 1.358 . S
C342 C347 1.371 . S
C343 H315 0.930 . S
C343 C342 1.358 . S
C343 C344 1.405 . S
C344 H316 0.932 . S
C344 C343 1.405 . S
C344 C345 1.383 . S
C345 C344 1.383 . S
C345 C346 1.393 . S
C346 H318 0.931 . S
C346 C345 1.393 . S
C346 C347 1.382 . S
C347 H317 0.929 . S
C347 C342 1.371 . S
C347 C346 1.382 . S
C348 N311 1.423 . S
C348 C349 1.362 . S
C348 C353 1.388 . S
C349 H319 0.929 . S
C349 C348 1.362 . S
C349 C350 1.376 . S
C350 H321 0.931 . S
C350 C349 1.376 . S
C350 C351 1.396 . S
C351 C350 1.396 . S
C351 C352 1.348 . S
C351 C369 1.472 . S
C352 H322 0.929 . S
C352 C351 1.348 . S
C352 C353 1.443 . S
C353 H320 0.932 . S
C353 C348 1.388 . S
C353 C352 1.443 . S
C354 N334 1.433 . S
C354 C355 1.363 . S
C354 C359 1.370 . S
C355 H323 0.929 . S
C355 C354 1.363 . S
C355 C356 1.385 . S
C356 H324 0.930 . S
C356 C355 1.385 . S
C356 C357 1.357 . S
C357 C356 1.357 . S
C357 C358 1.406 . S
C358 H325 0.929 . S
C358 C357 1.406 . S
C358 C359 1.391 . S
C359 H326 0.931 . S
C359 C354 1.370 . S
C359 C358 1.391 . S
C360 N334 1.435 . S
C360 C361 1.358 . S
C360 C365 1.371 . S
C361 H327 0.930 . S
C361 C360 1.358 . S
C361 C362 1.405 . S
C362 H328 0.932 . S
C362 C361 1.405 . S
C362 C363 1.383 . S
C363 C362 1.383 . S
C363 C364 1.393 . S
C364 H329 0.931 . S
C364 C363 1.393 . S
C364 C365 1.382 . S
C365 H330 0.929 . S
C365 C360 1.371 . S
C365 C364 1.382 . S
C366 N334 1.423 . S
C366 C367 1.362 . S
C366 C371 1.388 . S
C367 H331 0.929 . S
C367 C366 1.362 . S
C367 C368 1.376 . S
C368 H332 0.931 . S
C368 C367 1.376 . S
C368 C369 1.396 . S
C369 C351 1.472 . S
C369 C368 1.396 . S
C369 C370 1.348 . S
C370 H333 0.929 . S
C370 C369 1.348 . S
C370 C371 1.443 . S
C371 H335 0.932 . S
C371 C366 1.388 . S
C371 C370 1.443 . S
H372 C399 0.929 . S
N373 C398 1.433 . S
N373 C404 1.435 . S
N373 C410 1.423 . S
H374 C400 0.930 . S
H375 C403 0.931 . S
H376 C402 0.929 . S
H377 C405 0.930 . S
H378 C406 0.932 . S
H379 C409 0.929 . S
H380 C408 0.931 . S
H381 C411 0.936 . S
H382 C415 0.932 . S
H383 C412 0.931 . S
H384 C414 0.929 . S
H385 C417 0.929 . S
H386 C418 0.930 . S
H387 C420 0.929 . S
H388 C421 0.931 . S
H389 C423 0.930 . S
H390 C424 0.932 . S
H391 C426 0.931 . S
H392 C427 0.929 . S
H393 C429 0.929 . S
H394 C430 0.931 . S
H395 C432 0.929 . S
N396 C416 1.433 . S
N396 C422 1.435 . S
N396 C428 1.423 . S
H397 C433 0.932 . S
C398 N373 1.433 . S
C398 C399 1.363 . S
C398 C403 1.370 . S
C399 H372 0.929 . S
C399 C398 1.363 . S
C399 C400 1.385 . S
C400 H374 0.930 . S
C400 C399 1.385 . S
C400 C401 1.357 . S
C401 C400 1.357 . S
C401 C402 1.406 . S
C402 H376 0.929 . S
C402 C401 1.406 . S
C402 C403 1.391 . S
C403 H375 0.931 . S
C403 C398 1.370 . S
C403 C402 1.391 . S
C404 N373 1.435 . S
C404 C405 1.358 . S
C404 C409 1.371 . S
C405 H377 0.930 . S
C405 C404 1.358 . S
C405 C406 1.405 . S
C406 H378 0.932 . S
C406 C405 1.405 . S
C406 C407 1.383 . S
C407 C406 1.383 . S
C407 C408 1.393 . S
C408 H380 0.931 . S
C408 C407 1.393 . S
C408 C409 1.382 . S
C409 H379 0.929 . S
C409 C404 1.371 . S
C409 C408 1.382 . S
C410 N373 1.423 . S
C410 C411 1.362 . S
C410 C415 1.388 . S
C411 H381 0.936 . S
C411 C410 1.362 . S
C411 C412 1.376 1_565 S
C412 H383 0.931 . S
C412 C411 1.376 1_545 S
C412 C413 1.396 . S
C413 C412 1.396 . S
C413 C414 1.348 1_545 S
C413 C431 1.472 . S
C414 H384 0.929 . S
C414 C413 1.348 1_565 S
C414 C415 1.443 . S
C415 H382 0.932 . S
C415 C410 1.388 . S
C415 C414 1.443 . S
C416 N396 1.433 . S
C416 C417 1.363 . S
C416 C421 1.370 . S
C417 H385 0.929 . S
C417 C416 1.363 . S
C417 C418 1.385 . S
C418 H386 0.930 . S
C418 C417 1.385 . S
C418 C419 1.357 . S
C419 C418 1.357 . S
C419 C420 1.406 . S
C420 H387 0.929 . S
C420 C419 1.406 . S
C420 C421 1.391 . S
C421 H388 0.931 . S
C421 C416 1.370 . S
C421 C420 1.391 . S
C422 N396 1.435 . S
C422 C423 1.358 . S
C422 C427 1.371 . S
C423 H389 0.930 . S
C423 C422 1.358 . S
C423 C424 1.405 . S
C424 H390 0.932 . S
C424 C423 1.405 . S
C424 C425 1.383 . S
C425 C424 1.383 . S
C425 C426 1.393 . S
C426 H391 0.931 . S
C426 C425 1.393 . S
C426 C427 1.382 . S
C427 H392 0.929 . S
C427 C422 1.371 . S
C427 C426 1.382 . S
C428 N396 1.423 . S
C428 C429 1.362 . S
C428 C433 1.388 . S
C429 H393 0.929 . S
C429 C428 1.362 . S
C429 C430 1.376 . S
C430 H394 0.931 . S
C430 C429 1.376 . S
C430 C431 1.396 . S
C431 C413 1.472 . S
C431 C430 1.396 . S
C431 C432 1.348 . S
C432 H395 0.929 . S
C432 C431 1.348 . S
C432 C433 1.443 . S
C433 H397 0.932 . S
C433 C428 1.388 . S
C433 C432 1.443 . S
H434 C461 0.929 . S
N435 C460 1.433 . S
N435 C466 1.435 . S
N435 C472 1.423 . S
H436 C462 0.930 . S
H437 C465 0.931 . S
H438 C464 0.929 . S
H439 C467 0.930 . S
H440 C468 0.932 . S
H441 C471 0.929 . S
H442 C470 0.931 . S
H443 C473 0.929 . S
H444 C477 0.932 . S
H445 C474 0.928 1_655 S
H446 C476 0.929 . S
H447 C479 0.929 . S
H448 C480 0.930 . S
H449 C482 0.929 . S
H450 C483 0.931 . S
H451 C485 0.930 . S
H452 C486 0.932 . S
H453 C488 0.931 . S
H454 C489 0.929 . S
H455 C491 0.929 . S
H456 C492 0.931 1_565 S
H457 C494 0.900 1_455 S
N458 C478 1.433 . S
N458 C484 1.435 . S
N458 C490 1.423 . S
H459 C495 0.932 . S
C460 N435 1.433 . S
C460 C461 1.363 . S
C460 C465 1.370 . S
C461 H434 0.929 . S
C461 C460 1.363 . S
C461 C462 1.385 . S
C462 H436 0.930 . S
C462 C461 1.385 . S
C462 C463 1.357 . S
C463 C462 1.357 . S
C463 C464 1.406 . S
C464 H438 0.929 . S
C464 C463 1.406 . S
C464 C465 1.391 . S
C465 H437 0.931 . S
C465 C460 1.370 . S
C465 C464 1.391 . S
C466 N435 1.435 . S
C466 C467 1.358 . S
C466 C471 1.371 . S
C467 H439 0.930 . S
C467 C466 1.358 . S
C467 C468 1.405 . S
C468 H440 0.932 . S
C468 C467 1.405 . S
C468 C469 1.383 . S
C469 C468 1.383 . S
C469 C470 1.393 . S
C470 H442 0.931 . S
C470 C469 1.393 . S
C470 C471 1.382 . S
C471 H441 0.929 . S
C471 C466 1.371 . S
C471 C470 1.382 . S
C472 N435 1.423 . S
C472 C473 1.362 . S
C472 C477 1.388 . S
C473 H443 0.929 . S
C473 C472 1.362 . S
C473 C474 1.379 . S
C474 H445 0.928 1_455 S
C474 C473 1.379 . S
C474 C475 1.396 . S
C475 C474 1.396 . S
C475 C476 1.348 . S
C475 C493 1.472 1_465 S
C476 H446 0.929 . S
C476 C475 1.348 . S
C476 C477 1.443 . S
C477 H444 0.932 . S
C477 C472 1.388 . S
C477 C476 1.443 . S
C478 N458 1.433 . S
C478 C479 1.363 . S
C478 C483 1.370 . S
C479 H447 0.929 . S
C479 C478 1.363 . S
C479 C480 1.385 . S
C480 H448 0.930 . S
C480 C479 1.385 . S
C480 C481 1.357 . S
C481 C480 1.357 . S
C481 C482 1.406 . S
C482 H449 0.929 . S
C482 C481 1.406 . S
C482 C483 1.391 . S
C483 H450 0.931 . S
C483 C478 1.370 . S
C483 C482 1.391 . S
C484 N458 1.435 . S
C484 C485 1.358 . S
C484 C489 1.371 . S
C485 H451 0.930 . S
C485 C484 1.358 . S
C485 C486 1.405 . S
C486 H452 0.932 . S
C486 C485 1.405 . S
C486 C487 1.383 . S
C487 C486 1.383 . S
C487 C488 1.393 . S
C488 H453 0.931 . S
C488 C487 1.393 . S
C488 C489 1.382 . S
C489 H454 0.929 . S
C489 C484 1.371 . S
C489 C488 1.382 . S
C490 N458 1.423 . S
C490 C491 1.362 . S
C490 C495 1.388 . S
C491 H455 0.929 . S
C491 C490 1.362 . S
C491 C492 1.376 . S
C492 H456 0.931 1_545 S
C492 C491 1.376 . S
C492 C493 1.396 . S
C493 C475 1.472 1_645 S
C493 C492 1.396 . S
C493 C494 1.348 . S
C494 H457 0.900 1_655 S
C494 C493 1.348 . S
C494 C495 1.443 . S
C495 H459 0.932 . S
C495 C490 1.388 . S
C495 C494 1.443 . S
Mn496 O501 2.095 1_554 S
Mn496 O511 2.162 . S
Mn496 O512 2.297 . S
Mn496 O520 2.385 . S
Mn496 O521 2.209 . S
Mn496 O522 2.090 1_554 S
Mn497 O502 2.147 . S
Mn497 N504 2.249 1_556 S
Mn497 N513 2.254 1_556 S
Mn497 O521 2.198 1_556 S
Mn497 O523 2.119 . S
C498 O520 1.234 . S
C498 O521 1.283 . S
C499 O511 1.281 . S
C499 O512 1.236 . S
C500 O522 1.247 . S
C500 O523 1.264 . S
O501 Mn496 2.095 1_556 S
O501 C510 1.250 . S
O502 Mn497 2.147 . S
O502 C510 1.258 . S
C503 N504 1.326 1_556 S
C503 C507 1.460 1_556 S
C503 H509 0.929 . S
N504 Mn497 2.249 1_554 S
N504 C503 1.326 1_554 S
N504 C508 1.362 . S
C505 C506 1.258 . S
C505 C508 1.431 . S
C505 C525 1.449 . S
C506 C505 1.258 . S
C506 C507 1.477 . S
C506 H526 0.931 . S
C507 C503 1.460 1_554 S
C507 C506 1.477 . S
C507 H527 0.930 1_554 S
C508 N504 1.362 . S
C508 C505 1.431 . S
C508 C518 1.476 . S
H509 C503 0.929 . S
C510 O501 1.250 . S
C510 O502 1.258 . S
O511 Mn496 2.162 . S
O511 C499 1.281 . S
O512 Mn496 2.297 . S
O512 C499 1.236 . S
N513 Mn497 2.254 1_554 S
N513 C514 1.328 . S
N513 C518 1.318 . S
C514 N513 1.328 . S
C514 C515 1.457 . S
C514 H519 0.929 . S
C515 C514 1.457 . S
C515 C516 1.291 . S
C515 H528 0.931 . S
C516 C515 1.291 . S
C516 C517 1.373 . S
C516 H529 0.929 . S
C517 C516 1.373 . S
C517 C518 1.396 . S
C517 C524 1.403 . S
C518 C508 1.476 . S
C518 N513 1.318 . S
C518 C517 1.396 . S
H519 C514 0.929 . S
O520 Mn496 2.385 . S
O520 C498 1.234 . S
O521 Mn496 2.209 . S
O521 Mn497 2.198 1_554 S
O521 C498 1.283 . S
O522 Mn496 2.090 1_556 S
O522 C500 1.247 . S
O523 Mn497 2.119 . S
O523 C500 1.264 . S
C524 C517 1.403 . S
C524 C525 1.399 . S
C524 H530 0.929 . S
C525 C505 1.449 . S
C525 C524 1.399 . S
C525 H531 0.930 . S
H526 C506 0.931 . S
H527 C507 0.930 1_556 S
H528 C515 0.931 . S
H529 C516 0.929 . S
H530 C524 0.929 . S
H531 C525 0.930 . S
Mn532 O537 2.095 . S
Mn532 O547 2.162 . S
Mn532 O548 2.297 . S
Mn532 O556 2.385 . S
Mn532 O557 2.209 . S
Mn532 O558 2.094 . S
Mn533 O538 2.121 . S
Mn533 N540 2.257 . S
Mn533 N549 2.282 . S
Mn533 O557 2.215 . S
Mn533 O559 2.117 . S
C534 O556 1.234 . S
C534 O557 1.283 . S
C535 O547 1.281 . S
C535 O548 1.236 . S
C536 O558 1.240 . S
C536 O559 1.264 . S
O537 Mn532 2.095 . S
O537 C546 1.250 . S
O538 Mn533 2.121 . S
O538 C546 1.258 . S
C539 N540 1.326 . S
C539 C543 1.460 . S
C539 H545 0.929 . S
N540 Mn533 2.257 . S
N540 C539 1.326 . S
N540 C544 1.362 . S
C541 C542 1.258 . S
C541 C544 1.431 . S
C541 C561 1.449 . S
C542 C541 1.258 . S
C542 C543 1.477 . S
C542 H562 0.931 . S
C543 C539 1.460 . S
C543 C542 1.477 . S
C543 H563 0.930 . S
C544 N540 1.362 . S
C544 C541 1.431 . S
C544 C554 1.476 . S
H545 C539 0.929 . S
C546 O537 1.250 . S
C546 O538 1.258 . S
O547 Mn532 2.162 . S
O547 C535 1.281 . S
O548 Mn532 2.297 . S
O548 C535 1.236 . S
N549 Mn533 2.282 . S
N549 C550 1.328 . S
N549 C554 1.318 . S
C550 N549 1.328 . S
C550 C551 1.457 . S
C550 H555 0.929 . S
C551 C550 1.457 . S
C551 C552 1.291 . S
C551 H564 0.931 . S
C552 C551 1.291 . S
C552 C553 1.373 . S
C552 H565 0.929 . S
C553 C552 1.373 . S
C553 C554 1.396 . S
C553 C560 1.403 . S
C554 C544 1.476 . S
C554 N549 1.318 . S
C554 C553 1.396 . S
H555 C550 0.929 . S
O556 Mn532 2.385 . S
O556 C534 1.234 . S
O557 Mn532 2.209 . S
O557 Mn533 2.215 . S
O557 C534 1.283 . S
O558 Mn532 2.094 . S
O558 C536 1.240 . S
O559 Mn533 2.117 . S
O559 C536 1.264 . S
C560 C553 1.403 . S
C560 C561 1.399 . S
C560 H566 0.929 . S
C561 C541 1.449 . S
C561 C560 1.399 . S
C561 H567 0.930 . S
H562 C542 0.931 . S
H563 C543 0.930 . S
H564 C551 0.931 . S
H565 C552 0.929 . S
H566 C560 0.929 . S
H567 C561 0.930 . S
Mn568 O573 2.095 . S
Mn568 O583 2.162 . S
Mn568 O584 2.297 . S
Mn568 O592 2.385 . S
Mn568 O593 2.209 . S
Mn568 O594 2.094 . S
Mn569 O574 2.121 . S
Mn569 N576 2.257 . S
Mn569 N585 2.282 . S
Mn569 O593 2.215 . S
Mn569 O595 2.117 . S
C570 O592 1.234 . S
C570 O593 1.283 . S
C571 O583 1.281 . S
C571 O584 1.236 . S
C572 O594 1.240 . S
C572 O595 1.264 . S
O573 Mn568 2.095 . S
O573 C582 1.250 . S
O574 Mn569 2.121 . S
O574 C582 1.258 . S
C575 N576 1.326 . S
C575 C579 1.460 . S
C575 H581 0.929 . S
N576 Mn569 2.257 . S
N576 C575 1.326 . S
N576 C580 1.362 . S
C577 C578 1.258 . S
C577 C580 1.431 . S
C577 C597 1.449 . S
C578 C577 1.258 . S
C578 C579 1.477 . S
C578 H598 0.931 . S
C579 C575 1.460 . S
C579 C578 1.477 . S
C579 H599 0.930 . S
C580 N576 1.362 . S
C580 C577 1.431 . S
C580 C590 1.476 . S
H581 C575 0.929 . S
C582 O573 1.250 . S
C582 O574 1.258 . S
O583 Mn568 2.162 . S
O583 C571 1.281 . S
O584 Mn568 2.297 . S
O584 C571 1.236 . S
N585 Mn569 2.282 . S
N585 C586 1.328 . S
N585 C590 1.318 . S
C586 N585 1.328 . S
C586 C587 1.457 . S
C586 H591 0.929 . S
C587 C586 1.457 . S
C587 C588 1.291 . S
C587 H600 0.931 . S
C588 C587 1.291 . S
C588 C589 1.373 . S
C588 H601 0.929 . S
C589 C588 1.373 . S
C589 C590 1.396 . S
C589 C596 1.403 . S
C590 C580 1.476 . S
C590 N585 1.318 . S
C590 C589 1.396 . S
H591 C586 0.929 . S
O592 Mn568 2.385 . S
O592 C570 1.234 . S
O593 Mn568 2.209 . S
O593 Mn569 2.215 . S
O593 C570 1.283 . S
O594 Mn568 2.094 . S
O594 C572 1.240 . S
O595 Mn569 2.117 . S
O595 C572 1.264 . S
C596 C589 1.403 . S
C596 C597 1.399 . S
C596 H602 0.929 . S
C597 C577 1.449 . S
C597 C596 1.399 . S
C597 H603 0.930 . S
H598 C578 0.931 . S
H599 C579 0.930 . S
H600 C587 0.931 . S
H601 C588 0.929 . S
H602 C596 0.929 . S
H603 C597 0.930 . S
Mn604 O609 2.095 . S
Mn604 O619 2.162 . S
Mn604 O620 2.297 . S
Mn604 O628 2.385 . S
Mn604 O629 2.209 . S
Mn604 O630 2.094 . S
Mn605 O610 2.121 . S
Mn605 N612 2.257 . S
Mn605 N621 2.282 . S
Mn605 O629 2.215 . S
Mn605 O631 2.117 . S
C606 O628 1.234 . S
C606 O629 1.283 . S
C607 O619 1.281 . S
C607 O620 1.236 . S
C608 O630 1.240 . S
C608 O631 1.264 . S
O609 Mn604 2.095 . S
O609 C618 1.250 . S
O610 Mn605 2.121 . S
O610 C618 1.258 . S
C611 N612 1.326 . S
C611 C615 1.460 . S
C611 H617 0.929 . S
N612 Mn605 2.257 . S
N612 C611 1.326 . S
N612 C616 1.362 . S
C613 C614 1.258 . S
C613 C616 1.431 . S
C613 C633 1.449 . S
C614 C613 1.258 . S
C614 C615 1.477 . S
C614 H634 0.931 . S
C615 C611 1.460 . S
C615 C614 1.477 . S
C615 H635 0.930 . S
C616 N612 1.362 . S
C616 C613 1.431 . S
C616 C626 1.476 . S
H617 C611 0.929 . S
C618 O609 1.250 . S
C618 O610 1.258 . S
O619 Mn604 2.162 . S
O619 C607 1.281 . S
O620 Mn604 2.297 . S
O620 C607 1.236 . S
N621 Mn605 2.282 . S
N621 C622 1.328 . S
N621 C626 1.318 . S
C622 N621 1.328 . S
C622 C623 1.457 . S
C622 H627 0.929 . S
C623 C622 1.457 . S
C623 C624 1.291 . S
C623 H636 0.931 . S
C624 C623 1.291 . S
C624 C625 1.373 . S
C624 H637 0.929 . S
C625 C624 1.373 . S
C625 C626 1.396 . S
C625 C632 1.403 . S
C626 C616 1.476 . S
C626 N621 1.318 . S
C626 C625 1.396 . S
H627 C622 0.929 . S
O628 Mn604 2.385 . S
O628 C606 1.234 . S
O629 Mn604 2.209 . S
O629 Mn605 2.215 . S
O629 C606 1.283 . S
O630 Mn604 2.094 . S
O630 C608 1.240 . S
O631 Mn605 2.117 . S
O631 C608 1.264 . S
C632 C625 1.403 . S
C632 C633 1.399 . S
C632 H638 0.929 . S
C633 C613 1.449 . S
C633 C632 1.399 . S
C633 H639 0.930 . S
H634 C614 0.931 . S
H635 C615 0.930 . S
H636 C623 0.931 . S
H637 C624 0.929 . S
H638 C632 0.929 . S
H639 C633 0.930 . S
Mn640 O645 2.095 . S
Mn640 O655 2.162 . S
Mn640 O656 2.297 . S
Mn640 O664 2.385 . S
Mn640 O665 2.209 . S
Mn640 O666 2.094 . S
Mn641 O646 2.121 . S
Mn641 N648 2.257 . S
Mn641 N657 2.282 . S
Mn641 O665 2.215 . S
Mn641 O667 2.117 . S
C642 O664 1.234 . S
C642 O665 1.283 . S
C643 O655 1.281 . S
C643 O656 1.236 . S
C644 O666 1.240 . S
C644 O667 1.264 . S
O645 Mn640 2.095 . S
O645 C654 1.250 . S
O646 Mn641 2.121 . S
O646 C654 1.258 . S
C647 N648 1.326 . S
C647 C651 1.460 . S
C647 H653 0.929 . S
N648 Mn641 2.257 . S
N648 C647 1.326 . S
N648 C652 1.362 . S
C649 C650 1.258 . S
C649 C652 1.431 . S
C649 C669 1.449 . S
C650 C649 1.258 . S
C650 C651 1.477 . S
C650 H670 0.931 . S
C651 C647 1.460 . S
C651 C650 1.477 . S
C651 H671 0.930 . S
C652 N648 1.362 . S
C652 C649 1.431 . S
C652 C662 1.476 . S
H653 C647 0.929 . S
C654 O645 1.250 . S
C654 O646 1.258 . S
O655 Mn640 2.162 . S
O655 C643 1.281 . S
O656 Mn640 2.297 . S
O656 C643 1.236 . S
N657 Mn641 2.282 . S
N657 C658 1.328 . S
N657 C662 1.318 . S
C658 N657 1.328 . S
C658 C659 1.457 . S
C658 H663 0.929 . S
C659 C658 1.457 . S
C659 C660 1.291 . S
C659 H672 0.931 . S
C660 C659 1.291 . S
C660 C661 1.373 . S
C660 H673 0.929 . S
C661 C660 1.373 . S
C661 C662 1.396 . S
C661 C668 1.403 . S
C662 C652 1.476 . S
C662 N657 1.318 . S
C662 C661 1.396 . S
H663 C658 0.929 . S
O664 Mn640 2.385 . S
O664 C642 1.234 . S
O665 Mn640 2.209 . S
O665 Mn641 2.215 . S
O665 C642 1.283 . S
O666 Mn640 2.094 . S
O666 C644 1.240 . S
O667 Mn641 2.117 . S
O667 C644 1.264 . S
C668 C661 1.403 . S
C668 C669 1.399 . S
C668 H674 0.929 . S
C669 C649 1.449 . S
C669 C668 1.399 . S
C669 H675 0.930 . S
H670 C650 0.931 . S
H671 C651 0.930 . S
H672 C659 0.931 . S
H673 C660 0.929 . S
H674 C668 0.929 . S
H675 C669 0.930 . S
Mn676 O681 2.095 . S
Mn676 O691 2.162 . S
Mn676 O692 2.297 . S
Mn676 O700 2.385 . S
Mn676 O701 2.209 . S
Mn676 O702 2.094 . S
Mn677 O682 2.121 . S
Mn677 N684 2.257 . S
Mn677 N693 2.282 . S
Mn677 O701 2.215 . S
Mn677 O703 2.117 . S
C678 O700 1.234 . S
C678 O701 1.283 . S
C679 O691 1.281 . S
C679 O692 1.236 . S
C680 O702 1.240 . S
C680 O703 1.264 . S
O681 Mn676 2.095 . S
O681 C690 1.250 . S
O682 Mn677 2.121 . S
O682 C690 1.258 . S
C683 N684 1.326 . S
C683 C687 1.460 . S
C683 H689 0.929 . S
N684 Mn677 2.257 . S
N684 C683 1.326 . S
N684 C688 1.362 . S
C685 C686 1.258 . S
C685 C688 1.431 . S
C685 C705 1.449 . S
C686 C685 1.258 . S
C686 C687 1.477 . S
C686 H706 0.931 . S
C687 C683 1.460 . S
C687 C686 1.477 . S
C687 H707 0.930 . S
C688 N684 1.362 . S
C688 C685 1.431 . S
C688 C698 1.476 . S
H689 C683 0.929 . S
C690 O681 1.250 . S
C690 O682 1.258 . S
O691 Mn676 2.162 . S
O691 C679 1.281 . S
O692 Mn676 2.297 . S
O692 C679 1.236 . S
N693 Mn677 2.282 . S
N693 C694 1.328 . S
N693 C698 1.318 . S
C694 N693 1.328 . S
C694 C695 1.457 . S
C694 H699 0.929 . S
C695 C694 1.457 . S
C695 C696 1.291 . S
C695 H708 0.931 . S
C696 C695 1.291 . S
C696 C697 1.373 . S
C696 H709 0.929 . S
C697 C696 1.373 . S
C697 C698 1.396 . S
C697 C704 1.403 . S
C698 C688 1.476 . S
C698 N693 1.318 . S
C698 C697 1.396 . S
H699 C694 0.929 . S
O700 Mn676 2.385 . S
O700 C678 1.234 . S
O701 Mn676 2.209 . S
O701 Mn677 2.215 . S
O701 C678 1.283 . S
O702 Mn676 2.094 . S
O702 C680 1.240 . S
O703 Mn677 2.117 . S
O703 C680 1.264 . S
C704 C697 1.403 . S
C704 C705 1.399 . S
C704 H710 0.929 . S
C705 C685 1.449 . S
C705 C704 1.399 . S
C705 H711 0.930 . S
H706 C686 0.931 . S
H707 C687 0.930 . S
H708 C695 0.931 . S
H709 C696 0.929 . S
H710 C704 0.929 . S
H711 C705 0.930 . S
Mn712 O717 2.095 . S
Mn712 O727 2.162 . S
Mn712 O728 2.297 1_554 S
Mn712 O736 2.385 1_554 S
Mn712 O737 2.209 1_554 S
Mn712 O738 2.094 . S
Mn713 O718 2.121 . S
Mn713 N720 2.257 1_554 S
Mn713 N729 2.282 1_554 S
Mn713 O737 2.215 1_554 S
Mn713 O739 2.117 . S
C714 O736 1.234 . S
C714 O737 1.283 . S
C715 O727 1.272 1_556 S
C715 O728 1.238 . S
C716 O738 1.240 . S
C716 O739 1.264 . S
O717 Mn712 2.095 . S
O717 C726 1.250 . S
O718 Mn713 2.121 . S
O718 C726 1.258 . S
C719 N720 1.326 1_554 S
C719 C723 1.460 . S
C719 H725 0.929 . S
N720 Mn713 2.257 1_556 S
N720 C719 1.326 1_556 S
N720 C724 1.362 . S
C721 C722 1.258 . S
C721 C724 1.431 . S
C721 C741 1.449 . S
C722 C721 1.258 . S
C722 C723 1.477 1_556 S
C722 H742 0.931 . S
C723 C719 1.460 . S
C723 C722 1.477 1_554 S
C723 H743 0.930 . S
C724 N720 1.362 . S
C724 C721 1.431 . S
C724 C734 1.476 . S
H725 C719 0.929 . S
C726 O717 1.250 . S
C726 O718 1.258 . S
O727 Mn712 2.162 . S
O727 C715 1.272 1_554 S
O728 Mn712 2.297 1_556 S
O728 C715 1.238 . S
N729 Mn713 2.282 1_556 S
N729 C730 1.328 . S
N729 C734 1.318 . S
C730 N729 1.328 . S
C730 C731 1.457 . S
C730 H735 0.929 . S
C731 C730 1.457 . S
C731 C732 1.291 . S
C731 H744 0.931 . S
C732 C731 1.291 . S
C732 C733 1.373 . S
C732 H745 0.929 . S
C733 C732 1.373 . S
C733 C734 1.396 . S
C733 C740 1.403 . S
C734 C724 1.476 . S
C734 N729 1.318 . S
C734 C733 1.396 . S
H735 C730 0.929 . S
O736 Mn712 2.385 1_556 S
O736 C714 1.234 . S
O737 Mn712 2.209 1_556 S
O737 Mn713 2.215 1_556 S
O737 C714 1.283 . S
O738 Mn712 2.094 . S
O738 C716 1.240 . S
O739 Mn713 2.117 . S
O739 C716 1.264 . S
C740 C733 1.403 . S
C740 C741 1.399 . S
C740 H746 0.929 . S
C741 C721 1.449 . S
C741 C740 1.399 . S
C741 H747 0.930 . S
H742 C722 0.931 . S
H743 C723 0.930 . S
H744 C731 0.931 . S
H745 C732 0.929 . S
H746 C740 0.929 . S
H747 C741 0.930 . S
Mn748 O753 2.095 . S
Mn748 O763 2.162 . S
Mn748 O764 2.297 . S
Mn748 O772 2.385 . S
Mn748 O773 2.209 . S
Mn748 O774 2.094 . S
Mn749 O754 2.121 . S
Mn749 N756 2.257 . S
Mn749 N765 2.282 . S
Mn749 O773 2.215 . S
Mn749 O775 2.117 . S
C750 O772 1.234 . S
C750 O773 1.283 . S
C751 O763 1.281 . S
C751 O764 1.236 . S
C752 O774 1.240 . S
C752 O775 1.264 . S
O753 Mn748 2.095 . S
O753 C762 1.250 . S
O754 Mn749 2.121 . S
O754 C762 1.258 . S
C755 N756 1.326 . S
C755 C759 1.460 . S
C755 H761 0.929 . S
N756 Mn749 2.257 . S
N756 C755 1.326 . S
N756 C760 1.362 . S
C757 C758 1.258 . S
C757 C760 1.431 . S
C757 C777 1.449 . S
C758 C757 1.258 . S
C758 C759 1.477 . S
C758 H778 0.931 . S
C759 C755 1.460 . S
C759 C758 1.477 . S
C759 H779 0.930 . S
C760 N756 1.362 . S
C760 C757 1.431 . S
C760 C770 1.476 . S
H761 C755 0.929 . S
C762 O753 1.250 . S
C762 O754 1.258 . S
O763 Mn748 2.162 . S
O763 C751 1.281 . S
O764 Mn748 2.297 . S
O764 C751 1.236 . S
N765 Mn749 2.282 . S
N765 C766 1.328 . S
N765 C770 1.318 . S
C766 N765 1.328 . S
C766 C767 1.457 . S
C766 H771 0.929 . S
C767 C766 1.457 . S
C767 C768 1.291 . S
C767 H780 0.931 . S
C768 C767 1.291 . S
C768 C769 1.373 . S
C768 H781 0.929 . S
C769 C768 1.373 . S
C769 C770 1.396 . S
C769 C776 1.403 . S
C770 C760 1.476 . S
C770 N765 1.318 . S
C770 C769 1.396 . S
H771 C766 0.929 . S
O772 Mn748 2.385 . S
O772 C750 1.234 . S
O773 Mn748 2.209 . S
O773 Mn749 2.215 . S
O773 C750 1.283 . S
O774 Mn748 2.094 . S
O774 C752 1.240 . S
O775 Mn749 2.117 . S
O775 C752 1.264 . S
C776 C769 1.403 . S
C776 C777 1.399 . S
C776 H782 0.929 . S
C777 C757 1.449 . S
C777 C776 1.399 . S
C777 H783 0.930 . S
H778 C758 0.931 . S
H779 C759 0.930 . S
H780 C767 0.931 . S
H781 C768 0.929 . S
H782 C776 0.929 . S
H783 C777 0.930 . S
H784 C790 0.930 . S
H785 C794 0.930 . S
H786 C799 0.929 . S
H787 C797 0.929 . S
H788 C792 0.929 . S
H789 C798 0.929 . S
C790 H784 0.930 . S
C790 C791 1.367 . S
C790 C798 1.378 . S
C791 C790 1.367 . S
C791 C799 1.433 . S
C792 H788 0.929 . S
C792 C794 1.378 . S
C792 C796 1.350 . S
C793 C796 1.463 . S
C793 C798 1.350 . S
C793 N801 1.427 . S
C794 H785 0.930 . S
C794 C792 1.378 . S
C794 C795 1.367 . S
C795 C794 1.367 . S
C795 C797 1.433 . S
C796 C792 1.350 . S
C796 C793 1.463 . S
C796 N800 1.427 . S
C797 H787 0.929 . S
C797 C795 1.433 . S
C797 N800 1.384 . S
C798 H789 0.929 . S
C798 C790 1.378 . S
C798 C793 1.350 . S
C799 H786 0.929 . S
C799 C791 1.433 . S
C799 N801 1.384 . S
N800 C796 1.427 . S
N800 C797 1.384 . S
N801 C793 1.427 . S
N801 C799 1.384 . S
H802 C808 0.930 . S
H803 C812 0.930 . S
H804 C817 0.929 . S
H805 C815 0.929 . S
H806 C810 0.929 . S
H807 C816 0.929 . S
C808 H802 0.930 . S
C808 C809 1.367 . S
C808 C816 1.378 . S
C809 C808 1.367 . S
C809 C817 1.433 . S
C810 H806 0.929 . S
C810 C812 1.378 . S
C810 C814 1.350 . S
C811 C814 1.463 . S
C811 C816 1.350 . S
C811 N819 1.427 . S
C812 H803 0.930 . S
C812 C810 1.378 . S
C812 C813 1.367 . S
C813 C812 1.367 . S
C813 C815 1.433 . S
C814 C810 1.350 . S
C814 C811 1.463 . S
C814 N818 1.427 . S
C815 H805 0.929 . S
C815 C813 1.433 . S
C815 N818 1.384 . S
C816 H807 0.929 . S
C816 C808 1.378 . S
C816 C811 1.350 . S
C817 H804 0.929 . S
C817 C809 1.433 . S
C817 N819 1.384 . S
N818 C814 1.427 . S
N818 C815 1.384 . S
N819 C811 1.427 . S
N819 C817 1.384 . S
H820 C826 0.930 . S
H821 C830 0.930 . S
H822 C835 0.929 . S
H823 C833 0.929 . S
H824 C828 0.929 . S
H825 C834 0.929 . S
C826 H820 0.930 . S
C826 C827 1.367 . S
C826 C834 1.378 . S
C827 C826 1.367 . S
C827 C835 1.433 . S
C828 H824 0.929 . S
C828 C830 1.378 . S
C828 C832 1.350 . S
C829 C832 1.463 . S
C829 C834 1.350 . S
C829 N837 1.427 . S
C830 H821 0.930 . S
C830 C828 1.378 . S
C830 C831 1.367 . S
C831 C830 1.367 . S
C831 C833 1.433 . S
C832 C828 1.350 . S
C832 C829 1.463 . S
C832 N836 1.427 . S
C833 H823 0.929 . S
C833 C831 1.433 . S
C833 N836 1.384 . S
C834 H825 0.929 . S
C834 C826 1.378 . S
C834 C829 1.350 . S
C835 H822 0.929 . S
C835 C827 1.433 . S
C835 N837 1.384 . S
N836 C832 1.427 . S
N836 C833 1.384 . S
N837 C829 1.427 . S
N837 C835 1.384 . S
H838 C844 0.907 1_556 S
H839 C848 0.930 . S
H840 C853 0.929 . S
H841 C851 0.929 . S
H842 C846 0.929 . S
H843 C852 0.928 1_556 S
C844 H838 0.907 1_554 S
C844 C845 1.392 . S
C844 C852 1.377 . S
C845 C844 1.392 . S
C845 C853 1.433 . S
C846 H842 0.929 . S
C846 C848 1.378 . S
C846 C850 1.350 . S
C847 C850 1.463 . S
C847 C852 1.350 . S
C847 N855 1.427 . S
C848 H839 0.930 . S
C848 C846 1.378 . S
C848 C849 1.367 . S
C849 C848 1.367 . S
C849 C851 1.433 1_554 S
C850 C846 1.350 . S
C850 C847 1.463 . S
C850 N854 1.427 1_554 S
C851 H841 0.929 . S
C851 C849 1.433 1_556 S
C851 N854 1.384 . S
C852 H843 0.928 1_554 S
C852 C844 1.377 . S
C852 C847 1.350 . S
C853 H840 0.929 . S
C853 C845 1.433 . S
C853 N855 1.384 . S
N854 C850 1.427 1_556 S
N854 C851 1.384 . S
N855 C847 1.427 . S
N855 C853 1.384 . S
H856 C862 0.930 . S
H857 C866 0.930 . S
H858 C871 0.929 . S
H859 C869 0.929 . S
H860 C864 0.929 . S
H861 C870 0.929 . S
C862 H856 0.930 . S
C862 C863 1.367 . S
C862 C870 1.378 . S
C863 C862 1.367 . S
C863 C871 1.433 . S
C864 H860 0.929 . S
C864 C866 1.378 . S
C864 C868 1.350 . S
C865 C868 1.463 . S
C865 C870 1.350 . S
C865 N873 1.427 . S
C866 H857 0.930 . S
C866 C864 1.378 . S
C866 C867 1.367 . S
C867 C866 1.367 . S
C867 C869 1.433 . S
C868 C864 1.350 . S
C868 C865 1.463 . S
C868 N872 1.427 . S
C869 H859 0.929 . S
C869 C867 1.433 . S
C869 N872 1.384 . S
C870 H861 0.929 . S
C870 C862 1.378 . S
C870 C865 1.350 . S
C871 H858 0.929 . S
C871 C863 1.433 . S
C871 N873 1.384 . S
N872 C868 1.427 . S
N872 C869 1.384 . S
N873 C865 1.427 . S
N873 C871 1.384 . S
H874 C880 0.930 . S
H875 C884 0.930 . S
H876 C889 0.929 . S
H877 C887 0.929 . S
H878 C882 0.929 . S
H879 C888 0.929 . S
C880 H874 0.930 . S
C880 C881 1.367 . S
C880 C888 1.378 . S
C881 C880 1.367 . S
C881 C889 1.433 . S
C882 H878 0.929 . S
C882 C884 1.378 . S
C882 C886 1.350 . S
C883 C886 1.463 . S
C883 C888 1.350 . S
C883 N891 1.427 . S
C884 H875 0.930 . S
C884 C882 1.378 . S
C884 C885 1.367 . S
C885 C884 1.367 . S
C885 C887 1.433 . S
C886 C882 1.350 . S
C886 C883 1.463 . S
C886 N890 1.427 . S
C887 H877 0.929 . S
C887 C885 1.433 . S
C887 N890 1.384 . S
C888 H879 0.929 . S
C888 C880 1.378 . S
C888 C883 1.350 . S
C889 H876 0.929 . S
C889 C881 1.433 . S
C889 N891 1.384 . S
N890 C886 1.427 . S
N890 C887 1.384 . S
N891 C883 1.427 . S
N891 C889 1.384 . S
H892 C898 0.930 . S
H893 C902 0.930 . S
H894 C907 0.929 . S
H895 C905 0.929 . S
H896 C900 0.929 . S
H897 C906 0.929 . S
C898 H892 0.930 . S
C898 C899 1.367 . S
C898 C906 1.378 . S
C899 C898 1.367 . S
C899 C907 1.433 . S
C900 H896 0.929 . S
C900 C902 1.378 . S
C900 C904 1.350 . S
C901 C904 1.463 . S
C901 C906 1.350 . S
C901 N909 1.427 . S
C902 H893 0.930 . S
C902 C900 1.378 . S
C902 C903 1.367 . S
C903 C902 1.367 . S
C903 C905 1.433 . S
C904 C900 1.350 . S
C904 C901 1.463 . S
C904 N908 1.427 . S
C905 H895 0.929 . S
C905 C903 1.433 . S
C905 N908 1.384 . S
C906 H897 0.929 . S
C906 C898 1.378 . S
C906 C901 1.350 . S
C907 H894 0.929 . S
C907 C899 1.433 . S
C907 N909 1.384 . S
N908 C904 1.427 . S
N908 C905 1.384 . S
N909 C901 1.427 . S
N909 C907 1.384 . S
H910 C916 0.930 . S
H911 C920 0.930 . S
H912 C925 0.929 . S
H913 C923 0.929 . S
H914 C918 0.929 . S
H915 C924 0.929 . S
C916 H910 0.930 . S
C916 C917 1.367 . S
C916 C924 1.378 . S
C917 C916 1.367 . S
C917 C925 1.433 . S
C918 H914 0.929 . S
C918 C920 1.378 . S
C918 C922 1.350 . S
C919 C922 1.463 . S
C919 C924 1.350 . S
C919 N927 1.427 . S
C920 H911 0.930 . S
C920 C918 1.378 . S
C920 C921 1.367 . S
C921 C920 1.367 . S
C921 C923 1.433 . S
C922 C918 1.350 . S
C922 C919 1.463 . S
C922 N926 1.427 . S
C923 H913 0.929 . S
C923 C921 1.433 . S
C923 N926 1.384 . S
C924 H915 0.929 . S
C924 C916 1.378 . S
C924 C919 1.350 . S
C925 H912 0.929 . S
C925 C917 1.433 . S
C925 N927 1.384 . S
N926 C922 1.427 . S
N926 C923 1.384 . S
N927 C919 1.427 . S
N927 C925 1.384 . S
H928 C934 0.930 . S
H929 C938 0.930 . S
H930 C943 0.929 . S
H931 C941 0.929 . S
H932 C936 0.929 . S
H933 C942 0.929 . S
C934 H928 0.930 . S
C934 C935 1.367 . S
C934 C942 1.378 . S
C935 C934 1.367 . S
C935 C943 1.433 . S
C936 H932 0.929 . S
C936 C938 1.378 . S
C936 C940 1.350 . S
C937 C940 1.463 . S
C937 C942 1.350 . S
C937 N945 1.427 . S
C938 H929 0.930 . S
C938 C936 1.378 . S
C938 C939 1.367 . S
C939 C938 1.367 . S
C939 C941 1.433 . S
C940 C936 1.350 . S
C940 C937 1.463 . S
C940 N944 1.427 . S
C941 H931 0.929 . S
C941 C939 1.433 . S
C941 N944 1.384 . S
C942 H933 0.929 . S
C942 C934 1.378 . S
C942 C937 1.350 . S
C943 H930 0.929 . S
C943 C935 1.433 . S
C943 N945 1.384 . S
N944 C940 1.427 . S
N944 C941 1.384 . S
N945 C937 1.427 . S
N945 C943 1.384 . S
H946 C952 0.968 . S
H947 C956 0.930 . S
H948 C961 0.929 . S
H949 C959 0.929 . S
H950 C954 0.929 . S
H951 C960 0.929 . S
C952 H946 0.968 . S
C952 C953 1.328 1_556 S
C952 C960 1.381 . S
C953 C952 1.328 1_554 S
C953 C961 1.433 . S
C954 H950 0.929 . S
C954 C956 1.378 . S
C954 C958 1.350 . S
C955 C958 1.463 . S
C955 C960 1.350 1_554 S
C955 N963 1.427 . S
C956 H947 0.930 . S
C956 C954 1.378 . S
C956 C957 1.367 . S
C957 C956 1.367 . S
C957 C959 1.433 1_554 S
C958 C954 1.350 . S
C958 C955 1.463 . S
C958 N962 1.427 1_554 S
C959 H949 0.929 . S
C959 C957 1.433 1_556 S
C959 N962 1.384 . S
C960 H951 0.929 . S
C960 C952 1.381 . S
C960 C955 1.350 1_556 S
C961 H948 0.929 . S
C961 C953 1.433 . S
C961 N963 1.384 . S
N962 C958 1.427 1_556 S
N962 C959 1.384 . S
N963 C955 1.427 . S
N963 C961 1.384 . S
H964 C970 0.930 . S
H965 C974 0.930 . S
H966 C979 0.929 . S
H967 C977 0.929 . S
H968 C972 0.929 . S
H969 C978 0.929 . S
C970 H964 0.930 . S
C970 C971 1.367 . S
C970 C978 1.378 . S
C971 C970 1.367 . S
C971 C979 1.433 . S
C972 H968 0.929 . S
C972 C974 1.378 . S
C972 C976 1.350 . S
C973 C976 1.463 . S
C973 C978 1.350 . S
C973 N981 1.427 . S
C974 H965 0.930 . S
C974 C972 1.378 . S
C974 C975 1.367 . S
C975 C974 1.367 . S
C975 C977 1.433 . S
C976 C972 1.350 . S
C976 C973 1.463 . S
C976 N980 1.427 . S
C977 H967 0.929 . S
C977 C975 1.433 . S
C977 N980 1.384 . S
C978 H969 0.929 . S
C978 C970 1.378 . S
C978 C973 1.350 . S
C979 H966 0.929 . S
C979 C971 1.433 . S
C979 N981 1.384 . S
N980 C976 1.427 . S
N980 C977 1.384 . S
N981 C973 1.427 . S
N981 C979 1.384 . S
H982 C988 0.930 . S
H983 C992 0.930 . S
H984 C997 0.929 . S
H985 C995 0.929 . S
H986 C990 0.929 . S
H987 C996 0.929 . S
C988 H982 0.930 . S
C988 C989 1.367 . S
C988 C996 1.378 . S
C989 C988 1.367 . S
C989 C997 1.433 . S
C990 H986 0.929 . S
C990 C992 1.378 . S
C990 C994 1.350 . S
C991 C994 1.463 . S
C991 C996 1.350 . S
C991 N999 1.427 . S
C992 H983 0.930 . S
C992 C990 1.378 . S
C992 C993 1.367 . S
C993 C992 1.367 . S
C993 C995 1.433 . S
C994 C990 1.350 . S
C994 C991 1.463 . S
C994 N998 1.427 . S
C995 H985 0.929 . S
C995 C993 1.433 . S
C995 N998 1.384 . S
C996 H987 0.929 . S
C996 C988 1.378 . S
C996 C991 1.350 . S
C997 H984 0.929 . S
C997 C989 1.433 . S
C997 N999 1.384 . S
N998 C994 1.427 . S
N998 C995 1.384 . S
N999 C991 1.427 . S
N999 C997 1.384 . S
H1000 C1006 0.930 . S
H1001 C1010 0.930 . S
H1002 C1015 0.929 . S
H1003 C1013 0.929 . S
H1004 C1008 0.929 . S
H1005 C1014 0.929 . S
C1006 H1000 0.930 . S
C1006 C1007 1.367 . S
C1006 C1014 1.378 . S
C1007 C1006 1.367 . S
C1007 C1015 1.433 . S
C1008 H1004 0.929 . S
C1008 C1010 1.378 . S
C1008 C1012 1.350 . S
C1009 C1012 1.463 . S
C1009 C1014 1.350 . S
C1009 N1017 1.427 . S
C1010 H1001 0.930 . S
C1010 C1008 1.378 . S
C1010 C1011 1.367 . S
C1011 C1010 1.367 . S
C1011 C1013 1.433 . S
C1012 C1008 1.350 . S
C1012 C1009 1.463 . S
C1012 N1016 1.427 . S
C1013 H1003 0.929 . S
C1013 C1011 1.433 . S
C1013 N1016 1.384 . S
C1014 H1005 0.929 . S
C1014 C1006 1.378 . S
C1014 C1009 1.350 . S
C1015 H1002 0.929 . S
C1015 C1007 1.433 . S
C1015 N1017 1.384 . S
N1016 C1012 1.427 . S
N1016 C1013 1.384 . S
N1017 C1009 1.427 . S
N1017 C1015 1.384 . S
H1018 C1024 0.930 . S
H1019 C1028 0.930 . S
H1020 C1033 0.929 . S
H1021 C1031 0.929 . S
H1022 C1026 0.929 . S
H1023 C1032 0.929 . S
C1024 H1018 0.930 . S
C1024 C1025 1.367 . S
C1024 C1032 1.378 . S
C1025 C1024 1.367 . S
C1025 C1033 1.433 . S
C1026 H1022 0.929 . S
C1026 C1028 1.378 . S
C1026 C1030 1.350 . S
C1027 C1030 1.463 . S
C1027 C1032 1.350 . S
C1027 N1035 1.427 . S
C1028 H1019 0.930 . S
C1028 C1026 1.378 . S
C1028 C1029 1.367 . S
C1029 C1028 1.367 . S
C1029 C1031 1.433 . S
C1030 C1026 1.350 . S
C1030 C1027 1.463 . S
C1030 N1034 1.427 . S
C1031 H1021 0.929 . S
C1031 C1029 1.433 . S
C1031 N1034 1.384 . S
C1032 H1023 0.929 . S
C1032 C1024 1.378 . S
C1032 C1027 1.350 . S
C1033 H1020 0.929 . S
C1033 C1025 1.433 . S
C1033 N1035 1.384 . S
N1034 C1030 1.427 . S
N1034 C1031 1.384 . S
N1035 C1027 1.427 . S
N1035 C1033 1.384 . S
H1036 C1042 0.930 . S
H1037 C1046 0.930 . S
H1038 C1051 0.929 . S
H1039 C1049 0.929 . S
H1040 C1044 0.929 . S
H1041 C1050 0.929 . S
C1042 H1036 0.930 . S
C1042 C1043 1.367 1_554 S
C1042 C1050 1.378 . S
C1043 C1042 1.367 1_556 S
C1043 C1051 1.433 . S
C1044 H1040 0.929 . S
C1044 C1046 1.378 . S
C1044 C1048 1.350 . S
C1045 C1048 1.463 . S
C1045 C1050 1.350 1_556 S
C1045 N1053 1.427 . S
C1046 H1037 0.930 . S
C1046 C1044 1.378 . S
C1046 C1047 1.367 . S
C1047 C1046 1.367 . S
C1047 C1049 1.433 1_556 S
C1048 C1044 1.350 . S
C1048 C1045 1.463 . S
C1048 N1052 1.427 1_556 S
C1049 H1039 0.929 . S
C1049 C1047 1.433 1_554 S
C1049 N1052 1.384 . S
C1050 H1041 0.929 . S
C1050 C1042 1.378 . S
C1050 C1045 1.350 1_554 S
C1051 H1038 0.929 . S
C1051 C1043 1.433 . S
C1051 N1053 1.384 . S
N1052 C1048 1.427 1_554 S
N1052 C1049 1.384 . S
N1053 C1045 1.427 . S
N1053 C1051 1.384 . S
H1054 C1060 0.930 . S
H1055 C1064 0.930 . S
H1056 C1069 0.929 . S
H1057 C1067 0.929 . S
H1058 C1062 0.929 . S
H1059 C1068 0.929 . S
C1060 H1054 0.930 . S
C1060 C1061 1.367 . S
C1060 C1068 1.378 . S
C1061 C1060 1.367 . S
C1061 C1069 1.433 . S
C1062 H1058 0.929 . S
C1062 C1064 1.378 . S
C1062 C1066 1.350 . S
C1063 C1066 1.463 . S
C1063 C1068 1.350 . S
C1063 N1071 1.427 . S
C1064 H1055 0.930 . S
C1064 C1062 1.378 . S
C1064 C1065 1.367 . S
C1065 C1064 1.367 . S
C1065 C1067 1.433 . S
C1066 C1062 1.350 . S
C1066 C1063 1.463 . S
C1066 N1070 1.427 . S
C1067 H1057 0.929 . S
C1067 C1065 1.433 . S
C1067 N1070 1.384 . S
C1068 H1059 0.929 . S
C1068 C1060 1.378 . S
C1068 C1063 1.350 . S
C1069 H1056 0.929 . S
C1069 C1061 1.433 . S
C1069 N1071 1.384 . S
N1070 C1066 1.427 . S
N1070 C1067 1.384 . S
N1071 C1063 1.427 . S
N1071 C1069 1.384 . S
H1072 C1078 0.930 . S
H1073 C1082 0.930 . S
H1074 C1087 0.929 . S
H1075 C1085 0.929 . S
H1076 C1080 0.929 . S
H1077 C1086 0.929 . S
C1078 H1072 0.930 . S
C1078 C1079 1.367 . S
C1078 C1086 1.378 . S
C1079 C1078 1.367 . S
C1079 C1087 1.433 . S
C1080 H1076 0.929 . S
C1080 C1082 1.378 . S
C1080 C1084 1.350 . S
C1081 C1084 1.463 . S
C1081 C1086 1.350 . S
C1081 N1089 1.427 . S
C1082 H1073 0.930 . S
C1082 C1080 1.378 . S
C1082 C1083 1.367 . S
C1083 C1082 1.367 . S
C1083 C1085 1.433 . S
C1084 C1080 1.350 . S
C1084 C1081 1.463 . S
C1084 N1088 1.427 . S
C1085 H1075 0.929 . S
C1085 C1083 1.433 . S
C1085 N1088 1.384 . S
C1086 H1077 0.929 . S
C1086 C1078 1.378 . S
C1086 C1081 1.350 . S
C1087 H1074 0.929 . S
C1087 C1079 1.433 . S
C1087 N1089 1.384 . S
N1088 C1084 1.427 . S
N1088 C1085 1.384 . S
N1089 C1081 1.427 . S
N1089 C1087 1.384 . S
H1090 C1096 0.930 . S
H1091 C1100 0.930 . S
H1092 C1105 0.929 . S
H1093 C1103 0.929 . S
H1094 C1098 0.929 . S
H1095 C1104 0.929 . S
C1096 H1090 0.930 . S
C1096 C1097 1.367 . S
C1096 C1104 1.378 . S
C1097 C1096 1.367 . S
C1097 C1105 1.433 . S
C1098 H1094 0.929 . S
C1098 C1100 1.378 . S
C1098 C1102 1.350 . S
C1099 C1102 1.463 . S
C1099 C1104 1.350 . S
C1099 N1107 1.427 . S
C1100 H1091 0.930 . S
C1100 C1098 1.378 . S
C1100 C1101 1.367 . S
C1101 C1100 1.367 . S
C1101 C1103 1.433 . S
C1102 C1098 1.350 . S
C1102 C1099 1.463 . S
C1102 N1106 1.427 . S
C1103 H1093 0.929 . S
C1103 C1101 1.433 . S
C1103 N1106 1.384 . S
C1104 H1095 0.929 . S
C1104 C1096 1.378 . S
C1104 C1099 1.350 . S
C1105 H1092 0.929 . S
C1105 C1097 1.433 . S
C1105 N1107 1.384 . S
N1106 C1102 1.427 . S
N1106 C1103 1.384 . S
N1107 C1099 1.427 . S
N1107 C1105 1.384 . S
H1108 C1114 0.930 . S
H1109 C1118 0.930 . S
H1110 C1123 0.929 . S
H1111 C1121 0.929 . S
H1112 C1116 0.929 . S
H1113 C1122 0.929 . S
C1114 H1108 0.930 . S
C1114 C1115 1.367 . S
C1114 C1122 1.378 . S
C1115 C1114 1.367 . S
C1115 C1123 1.433 . S
C1116 H1112 0.929 . S
C1116 C1118 1.378 . S
C1116 C1120 1.350 . S
C1117 C1120 1.463 . S
C1117 C1122 1.350 . S
C1117 N1125 1.427 . S
C1118 H1109 0.930 . S
C1118 C1116 1.378 . S
C1118 C1119 1.367 . S
C1119 C1118 1.367 . S
C1119 C1121 1.433 . S
C1120 C1116 1.350 . S
C1120 C1117 1.463 . S
C1120 N1124 1.427 . S
C1121 H1111 0.929 . S
C1121 C1119 1.433 . S
C1121 N1124 1.384 . S
C1122 H1113 0.929 . S
C1122 C1114 1.378 . S
C1122 C1117 1.350 . S
C1123 H1110 0.929 . S
C1123 C1115 1.433 . S
C1123 N1125 1.384 . S
N1124 C1120 1.427 . S
N1124 C1121 1.384 . S
N1125 C1117 1.427 . S
N1125 C1123 1.384 . S
H1126 C1132 0.930 . S
H1127 C1136 0.930 . S
H1128 C1141 0.929 . S
H1129 C1139 0.929 . S
H1130 C1134 0.929 . S
H1131 C1140 0.929 . S
C1132 H1126 0.930 . S
C1132 C1133 1.367 . S
C1132 C1140 1.378 . S
C1133 C1132 1.367 . S
C1133 C1141 1.433 . S
C1134 H1130 0.929 . S
C1134 C1136 1.378 . S
C1134 C1138 1.350 . S
C1135 C1138 1.463 . S
C1135 C1140 1.350 . S
C1135 N1143 1.427 . S
C1136 H1127 0.930 . S
C1136 C1134 1.378 . S
C1136 C1137 1.367 . S
C1137 C1136 1.367 . S
C1137 C1139 1.433 . S
C1138 C1134 1.350 . S
C1138 C1135 1.463 . S
C1138 N1142 1.427 . S
C1139 H1129 0.929 . S
C1139 C1137 1.433 . S
C1139 N1142 1.384 . S
C1140 H1131 0.929 . S
C1140 C1132 1.378 . S
C1140 C1135 1.350 . S
C1141 H1128 0.929 . S
C1141 C1133 1.433 . S
C1141 N1143 1.384 . S
N1142 C1138 1.427 . S
N1142 C1139 1.384 . S
N1143 C1135 1.427 . S
N1143 C1141 1.384 . S
H1144 C1150 0.930 . S
H1145 C1154 0.930 . S
H1146 C1159 0.929 . S
H1147 C1157 0.929 . S
H1148 C1152 0.929 . S
H1149 C1158 0.929 . S
C1150 H1144 0.930 . S
C1150 C1151 1.367 . S
C1150 C1158 1.378 . S
C1151 C1150 1.367 . S
C1151 C1159 1.433 . S
C1152 H1148 0.929 . S
C1152 C1154 1.378 . S
C1152 C1156 1.350 . S
C1153 C1156 1.463 . S
C1153 C1158 1.350 . S
C1153 N1161 1.427 . S
C1154 H1145 0.930 . S
C1154 C1152 1.378 . S
C1154 C1155 1.367 . S
C1155 C1154 1.367 . S
C1155 C1157 1.433 . S
C1156 C1152 1.350 . S
C1156 C1153 1.463 . S
C1156 N1160 1.427 . S
C1157 H1147 0.929 . S
C1157 C1155 1.433 . S
C1157 N1160 1.384 . S
C1158 H1149 0.929 . S
C1158 C1150 1.378 . S
C1158 C1153 1.350 . S
C1159 H1146 0.929 . S
C1159 C1151 1.433 . S
C1159 N1161 1.384 . S
N1160 C1156 1.427 . S
N1160 C1157 1.384 . S
N1161 C1153 1.427 . S
N1161 C1159 1.384 . S
H1162 C1168 0.930 . S
H1163 C1172 0.930 . S
H1164 C1177 0.929 . S
H1165 C1175 0.929 . S
H1166 C1170 0.929 . S
H1167 C1176 0.929 . S
C1168 H1162 0.930 . S
C1168 C1169 1.367 . S
C1168 C1176 1.378 . S
C1169 C1168 1.367 . S
C1169 C1177 1.433 . S
C1170 H1166 0.929 . S
C1170 C1172 1.378 . S
C1170 C1174 1.350 . S
C1171 C1174 1.463 . S
C1171 C1176 1.350 . S
C1171 N1179 1.427 . S
C1172 H1163 0.930 . S
C1172 C1170 1.378 . S
C1172 C1173 1.367 . S
C1173 C1172 1.367 . S
C1173 C1175 1.433 . S
C1174 C1170 1.350 . S
C1174 C1171 1.463 . S
C1174 N1178 1.427 . S
C1175 H1165 0.929 . S
C1175 C1173 1.433 . S
C1175 N1178 1.384 . S
C1176 H1167 0.929 . S
C1176 C1168 1.378 . S
C1176 C1171 1.350 . S
C1177 H1164 0.929 . S
C1177 C1169 1.433 . S
C1177 N1179 1.384 . S
N1178 C1174 1.427 . S
N1178 C1175 1.384 . S
N1179 C1171 1.427 . S
N1179 C1177 1.384 . S
H1180 C1186 0.930 . S
H1181 C1190 0.930 . S
H1182 C1195 0.929 . S
H1183 C1193 0.929 . S
H1184 C1188 0.929 . S
H1185 C1194 0.929 . S
C1186 H1180 0.930 . S
C1186 C1187 1.367 . S
C1186 C1194 1.378 . S
C1187 C1186 1.367 . S
C1187 C1195 1.433 . S
C1188 H1184 0.929 . S
C1188 C1190 1.378 . S
C1188 C1192 1.350 . S
C1189 C1192 1.463 . S
C1189 C1194 1.350 . S
C1189 N1197 1.427 . S
C1190 H1181 0.930 . S
C1190 C1188 1.378 . S
C1190 C1191 1.367 . S
C1191 C1190 1.367 . S
C1191 C1193 1.433 . S
C1192 C1188 1.350 . S
C1192 C1189 1.463 . S
C1192 N1196 1.427 . S
C1193 H1183 0.929 . S
C1193 C1191 1.433 . S
C1193 N1196 1.384 . S
C1194 H1185 0.929 . S
C1194 C1186 1.378 . S
C1194 C1189 1.350 . S
C1195 H1182 0.929 . S
C1195 C1187 1.433 . S
C1195 N1197 1.384 . S
N1196 C1192 1.427 . S
N1196 C1193 1.384 . S
N1197 C1189 1.427 . S
N1197 C1195 1.384 . S
H1198 C1204 0.930 . S
H1199 C1208 0.930 . S
H1200 C1213 0.929 . S
H1201 C1211 0.929 . S
H1202 C1206 0.929 . S
H1203 C1212 0.929 . S
C1204 H1198 0.930 . S
C1204 C1205 1.367 . S
C1204 C1212 1.378 . S
C1205 C1204 1.367 . S
C1205 C1213 1.433 . S
C1206 H1202 0.929 . S
C1206 C1208 1.378 . S
C1206 C1210 1.350 . S
C1207 C1210 1.463 . S
C1207 C1212 1.350 . S
C1207 N1215 1.427 . S
C1208 H1199 0.930 . S
C1208 C1206 1.378 . S
C1208 C1209 1.367 . S
C1209 C1208 1.367 . S
C1209 C1211 1.433 . S
C1210 C1206 1.350 . S
C1210 C1207 1.463 . S
C1210 N1214 1.427 . S
C1211 H1201 0.929 . S
C1211 C1209 1.433 . S
C1211 N1214 1.384 . S
C1212 H1203 0.929 . S
C1212 C1204 1.378 . S
C1212 C1207 1.350 . S
C1213 H1200 0.929 . S
C1213 C1205 1.433 . S
C1213 N1215 1.384 . S
N1214 C1210 1.427 . S
N1214 C1211 1.384 . S
N1215 C1207 1.427 . S
N1215 C1213 1.384 . S
H1216 C1222 0.930 . S
H1217 C1226 0.930 . S
H1218 C1231 0.929 . S
H1219 C1229 0.929 . S
H1220 C1224 0.929 . S
H1221 C1230 0.929 . S
C1222 H1216 0.930 . S
C1222 C1223 1.367 . S
C1222 C1230 1.378 . S
C1223 C1222 1.367 . S
C1223 C1231 1.433 . S
C1224 H1220 0.929 . S
C1224 C1226 1.378 . S
C1224 C1228 1.350 . S
C1225 C1228 1.463 . S
C1225 C1230 1.350 . S
C1225 N1233 1.427 . S
C1226 H1217 0.930 . S
C1226 C1224 1.378 . S
C1226 C1227 1.367 . S
C1227 C1226 1.367 . S
C1227 C1229 1.433 . S
C1228 C1224 1.350 . S
C1228 C1225 1.463 . S
C1228 N1232 1.427 . S
C1229 H1219 0.929 . S
C1229 C1227 1.433 . S
C1229 N1232 1.384 . S
C1230 H1221 0.929 . S
C1230 C1222 1.378 . S
C1230 C1225 1.350 . S
C1231 H1218 0.929 . S
C1231 C1223 1.433 . S
C1231 N1233 1.384 . S
N1232 C1228 1.427 . S
N1232 C1229 1.384 . S
N1233 C1225 1.427 . S
N1233 C1231 1.384 . S
H1234 C1240 0.930 . S
H1235 C1244 0.930 . S
H1236 C1249 0.929 . S
H1237 C1247 0.929 . S
H1238 C1242 0.929 . S
H1239 C1248 0.929 . S
C1240 H1234 0.930 . S
C1240 C1241 1.367 . S
C1240 C1248 1.378 . S
C1241 C1240 1.367 . S
C1241 C1249 1.433 . S
C1242 H1238 0.929 . S
C1242 C1244 1.378 . S
C1242 C1246 1.350 . S
C1243 C1246 1.463 . S
C1243 C1248 1.350 . S
C1243 N1251 1.427 . S
C1244 H1235 0.930 . S
C1244 C1242 1.378 . S
C1244 C1245 1.367 . S
C1245 C1244 1.367 . S
C1245 C1247 1.433 . S
C1246 C1242 1.350 . S
C1246 C1243 1.463 . S
C1246 N1250 1.427 . S
C1247 H1237 0.929 . S
C1247 C1245 1.433 . S
C1247 N1250 1.384 . S
C1248 H1239 0.929 . S
C1248 C1240 1.378 . S
C1248 C1243 1.350 . S
C1249 H1236 0.929 . S
C1249 C1241 1.433 . S
C1249 N1251 1.384 . S
N1250 C1246 1.427 . S
N1250 C1247 1.384 . S
N1251 C1243 1.427 . S
N1251 C1249 1.384 . S
H1252 C1258 0.930 . S
H1253 C1262 0.930 . S
H1254 C1267 0.929 . S
H1255 C1265 0.929 . S
H1256 C1260 0.929 . S
H1257 C1266 0.929 . S
C1258 H1252 0.930 . S
C1258 C1259 1.367 . S
C1258 C1266 1.378 . S
C1259 C1258 1.367 . S
C1259 C1267 1.433 . S
C1260 H1256 0.929 . S
C1260 C1262 1.378 . S
C1260 C1264 1.350 . S
C1261 C1264 1.463 . S
C1261 C1266 1.350 . S
C1261 N1269 1.427 . S
C1262 H1253 0.930 . S
C1262 C1260 1.378 . S
C1262 C1263 1.367 . S
C1263 C1262 1.367 . S
C1263 C1265 1.433 . S
C1264 C1260 1.350 . S
C1264 C1261 1.463 . S
C1264 N1268 1.427 . S
C1265 H1255 0.929 . S
C1265 C1263 1.433 . S
C1265 N1268 1.384 . S
C1266 H1257 0.929 . S
C1266 C1258 1.378 . S
C1266 C1261 1.350 . S
C1267 H1254 0.929 . S
C1267 C1259 1.433 . S
C1267 N1269 1.384 . S
N1268 C1264 1.427 . S
N1268 C1265 1.384 . S
N1269 C1261 1.427 . S
N1269 C1267 1.384 . S
H1270 C1276 0.930 . S
H1271 C1280 0.930 . S
H1272 C1285 0.929 . S
H1273 C1283 0.929 . S
H1274 C1278 0.929 . S
H1275 C1284 0.929 . S
C1276 H1270 0.930 . S
C1276 C1277 1.367 . S
C1276 C1284 1.378 . S
C1277 C1276 1.367 . S
C1277 C1285 1.433 . S
C1278 H1274 0.929 . S
C1278 C1280 1.378 . S
C1278 C1282 1.350 . S
C1279 C1282 1.463 . S
C1279 C1284 1.350 . S
C1279 N1287 1.427 . S
C1280 H1271 0.930 . S
C1280 C1278 1.378 . S
C1280 C1281 1.367 . S
C1281 C1280 1.367 . S
C1281 C1283 1.433 . S
C1282 C1278 1.350 . S
C1282 C1279 1.463 . S
C1282 N1286 1.427 . S
C1283 H1273 0.929 . S
C1283 C1281 1.433 . S
C1283 N1286 1.384 . S
C1284 H1275 0.929 . S
C1284 C1276 1.378 . S
C1284 C1279 1.350 . S
C1285 H1272 0.929 . S
C1285 C1277 1.433 . S
C1285 N1287 1.384 . S
N1286 C1282 1.427 . S
N1286 C1283 1.384 . S
N1287 C1279 1.427 . S
N1287 C1285 1.384 . S
H1288 C1294 0.930 . S
H1289 C1298 0.930 . S
H1290 C1303 0.929 . S
H1291 C1301 0.929 . S
H1292 C1296 0.929 . S
H1293 C1302 0.929 . S
C1294 H1288 0.930 . S
C1294 C1295 1.367 . S
C1294 C1302 1.378 . S
C1295 C1294 1.367 . S
C1295 C1303 1.433 . S
C1296 H1292 0.929 . S
C1296 C1298 1.378 . S
C1296 C1300 1.350 . S
C1297 C1300 1.463 . S
C1297 C1302 1.350 . S
C1297 N1305 1.427 . S
C1298 H1289 0.930 . S
C1298 C1296 1.378 . S
C1298 C1299 1.367 . S
C1299 C1298 1.367 . S
C1299 C1301 1.433 . S
C1300 C1296 1.350 . S
C1300 C1297 1.463 . S
C1300 N1304 1.427 . S
C1301 H1291 0.929 . S
C1301 C1299 1.433 . S
C1301 N1304 1.384 . S
C1302 H1293 0.929 . S
C1302 C1294 1.378 . S
C1302 C1297 1.350 . S
C1303 H1290 0.929 . S
C1303 C1295 1.433 . S
C1303 N1305 1.384 . S
N1304 C1300 1.427 . S
N1304 C1301 1.384 . S
N1305 C1297 1.427 . S
N1305 C1303 1.384 . S
H1306 C1312 0.930 . S
H1307 C1316 0.930 . S
H1308 C1321 0.929 . S
H1309 C1319 0.929 . S
H1310 C1314 0.929 . S
H1311 C1320 0.929 . S
C1312 H1306 0.930 . S
C1312 C1313 1.367 . S
C1312 C1320 1.378 . S
C1313 C1312 1.367 . S
C1313 C1321 1.433 . S
C1314 H1310 0.929 . S
C1314 C1316 1.378 . S
C1314 C1318 1.350 . S
C1315 C1318 1.463 . S
C1315 C1320 1.350 . S
C1315 N1323 1.427 . S
C1316 H1307 0.930 . S
C1316 C1314 1.378 . S
C1316 C1317 1.367 . S
C1317 C1316 1.367 . S
C1317 C1319 1.433 . S
C1318 C1314 1.350 . S
C1318 C1315 1.463 . S
C1318 N1322 1.427 . S
C1319 H1309 0.929 . S
C1319 C1317 1.433 . S
C1319 N1322 1.384 . S
C1320 H1311 0.929 . S
C1320 C1312 1.378 . S
C1320 C1315 1.350 . S
C1321 H1308 0.929 . S
C1321 C1313 1.433 . S
C1321 N1323 1.384 . S
N1322 C1318 1.427 . S
N1322 C1319 1.384 . S
N1323 C1315 1.427 . S
N1323 C1321 1.384 . S
H1324 C1330 0.930 . S
H1325 C1334 0.930 . S
H1326 C1339 0.929 . S
H1327 C1337 0.929 . S
H1328 C1332 0.929 . S
H1329 C1338 0.929 . S
C1330 H1324 0.930 . S
C1330 C1331 1.367 . S
C1330 C1338 1.378 . S
C1331 C1330 1.367 . S
C1331 C1339 1.433 . S
C1332 H1328 0.929 . S
C1332 C1334 1.378 . S
C1332 C1336 1.350 . S
C1333 C1336 1.463 . S
C1333 C1338 1.350 . S
C1333 N1341 1.427 . S
C1334 H1325 0.930 . S
C1334 C1332 1.378 . S
C1334 C1335 1.367 . S
C1335 C1334 1.367 . S
C1335 C1337 1.433 . S
C1336 C1332 1.350 . S
C1336 C1333 1.463 . S
C1336 N1340 1.427 . S
C1337 H1327 0.929 . S
C1337 C1335 1.433 . S
C1337 N1340 1.384 . S
C1338 H1329 0.929 . S
C1338 C1330 1.378 . S
C1338 C1333 1.350 . S
C1339 H1326 0.929 . S
C1339 C1331 1.433 . S
C1339 N1341 1.384 . S
N1340 C1336 1.427 . S
N1340 C1337 1.384 . S
N1341 C1333 1.427 . S
N1341 C1339 1.384 . S
H1342 C1348 0.930 . S
H1343 C1352 0.930 . S
H1344 C1357 0.929 . S
H1345 C1355 0.929 . S
H1346 C1350 0.929 . S
H1347 C1356 0.929 . S
C1348 H1342 0.930 . S
C1348 C1349 1.367 . S
C1348 C1356 1.378 . S
C1349 C1348 1.367 . S
C1349 C1357 1.433 . S
C1350 H1346 0.929 . S
C1350 C1352 1.378 . S
C1350 C1354 1.350 . S
C1351 C1354 1.463 . S
C1351 C1356 1.350 . S
C1351 N1359 1.427 . S
C1352 H1343 0.930 . S
C1352 C1350 1.378 . S
C1352 C1353 1.367 . S
C1353 C1352 1.367 . S
C1353 C1355 1.433 . S
C1354 C1350 1.350 . S
C1354 C1351 1.463 . S
C1354 N1358 1.427 . S
C1355 H1345 0.929 . S
C1355 C1353 1.433 . S
C1355 N1358 1.384 . S
C1356 H1347 0.929 . S
C1356 C1348 1.378 . S
C1356 C1351 1.350 . S
C1357 H1344 0.929 . S
C1357 C1349 1.433 . S
C1357 N1359 1.384 . S
N1358 C1354 1.427 . S
N1358 C1355 1.384 . S
N1359 C1351 1.427 . S
N1359 C1357 1.384 . S
C795 C535 1.460 . S
C791 C35 1.301 . S
C813 C572 1.435 . S
C809 C115 1.314 . S
C831 C608 1.471 . S
C827 C177 1.351 . S
C845 C221 1.336 . S
C849 C499 1.492 . S
C863 C283 1.322 . S
C867 C500 1.475 . S
C881 C363 1.308 . S
C885 C536 1.436 . S
C903 C571 1.462 . S
C899 C407 1.318 . S
C921 C607 1.489 . S
C917 C469 1.318 . S
C935 C159 1.312 . S
C939 C679 1.458 . S
C957 C716 1.440 . S
C953 C239 1.329 . S
C971 C53 1.348 . S
C975 C752 1.475 . S
C993 C643 1.492 . S
C989 C97 1.339 . S
C1007 C425 1.334 . S
C1011 C644 1.466 . S
C1025 C487 1.329 . S
C1029 C680 1.445 . S
C1047 C715 1.472 . S
C1043 C301 1.329 . S
C1061 C345 1.325 . S
C1065 C751 1.487 . S
C1083 C570 1.864 . S
C1079 C29 1.849 . S
C1101 C606 1.850 . S
C1097 C109 1.794 . S
C1115 C171 1.742 . S
C1119 C510 1.663 . S
C1133 C215 1.792 . S
C1137 C546 1.685 . S
C1151 C277 1.771 . S
C1155 C618 1.661 . S
C1173 C498 1.845 . S
C1169 C357 1.785 . S
C1191 C534 1.866 . S
C1187 C401 1.844 . S
C1209 C582 1.684 . S
C1205 C463 1.792 . S
C1227 C714 1.864 . S
C1223 C153 1.849 . S
C1245 C750 1.847 . S
C1241 C233 1.793 . S
C1259 C47 1.733 . S
C1263 C654 1.656 . S
C1281 C690 1.672 . S
C1277 C91 1.788 . S
C1299 C762 1.667 . S
C1295 C419 1.744 . S
C1313 C481 1.787 . S
C1317 C642 1.845 . S
C1335 C678 1.863 . S
C1331 C295 1.814 . S
C1353 C726 1.673 . S
C1349 C339 1.788 . S
