# Generated by pormake.
# Topology ssa, (4,4)-cn, num edge types: 1
# Building blocks:
#     Node 0, Type 0, BuildingBlock: ESEHIV_clean_sbu_0, # of connection points: 4
#     Node 1, Type 0, BuildingBlock: ESEHIV_clean_sbu_0, # of connection points: 4
#     Node 2, Type 0, BuildingBlock: ESEHIV_clean_sbu_0, # of connection points: 4
#     Node 3, Type 0, BuildingBlock: ESEHIV_clean_sbu_0, # of connection points: 4
#     Node 4, Type 0, BuildingBlock: ESEHIV_clean_sbu_0, # of connection points: 4
#     Node 5, Type 0, BuildingBlock: ESEHIV_clean_sbu_0, # of connection points: 4
#     Node 6, Type 1, BuildingBlock: MUDLON_clean_linker_0, # of connection points: 4
#     Node 7, Type 1, BuildingBlock: MUDLON_clean_linker_0, # of connection points: 4
#     Node 8, Type 1, BuildingBlock: MUDLON_clean_linker_0, # of connection points: 4
#     Node 9, Type 1, BuildingBlock: MUDLON_clean_linker_0, # of connection points: 4
#     Node 10, Type 1, BuildingBlock: MUDLON_clean_linker_0, # of connection points: 4
#     Node 11, Type 1, BuildingBlock: MUDLON_clean_linker_0, # of connection points: 4
#     Edge 12, Type (0, 1), BuildingBlock: KIFKEQ_clean_linker_1, # of connection points: 2
#     Edge 13, Type (0, 1), BuildingBlock: KIFKEQ_clean_linker_1, # of connection points: 2
#     Edge 14, Type (0, 1), BuildingBlock: KIFKEQ_clean_linker_1, # of connection points: 2
#     Edge 15, Type (0, 1), BuildingBlock: KIFKEQ_clean_linker_1, # of connection points: 2
#     Edge 16, Type (0, 1), BuildingBlock: KIFKEQ_clean_linker_1, # of connection points: 2
#     Edge 17, Type (0, 1), BuildingBlock: KIFKEQ_clean_linker_1, # of connection points: 2
#     Edge 18, Type (0, 1), BuildingBlock: KIFKEQ_clean_linker_1, # of connection points: 2
#     Edge 19, Type (0, 1), BuildingBlock: KIFKEQ_clean_linker_1, # of connection points: 2
#     Edge 20, Type (0, 1), BuildingBlock: KIFKEQ_clean_linker_1, # of connection points: 2
#     Edge 21, Type (0, 1), BuildingBlock: KIFKEQ_clean_linker_1, # of connection points: 2
#     Edge 22, Type (0, 1), BuildingBlock: KIFKEQ_clean_linker_1, # of connection points: 2
#     Edge 23, Type (0, 1), BuildingBlock: KIFKEQ_clean_linker_1, # of connection points: 2
#     Edge 24, Type (0, 1), BuildingBlock: KIFKEQ_clean_linker_1, # of connection points: 2
#     Edge 25, Type (0, 1), BuildingBlock: KIFKEQ_clean_linker_1, # of connection points: 2
#     Edge 26, Type (0, 1), BuildingBlock: KIFKEQ_clean_linker_1, # of connection points: 2
#     Edge 27, Type (0, 1), BuildingBlock: KIFKEQ_clean_linker_1, # of connection points: 2
#     Edge 28, Type (0, 1), BuildingBlock: KIFKEQ_clean_linker_1, # of connection points: 2
#     Edge 29, Type (0, 1), BuildingBlock: KIFKEQ_clean_linker_1, # of connection points: 2
#     Edge 30, Type (0, 1), BuildingBlock: KIFKEQ_clean_linker_1, # of connection points: 2
#     Edge 31, Type (0, 1), BuildingBlock: KIFKEQ_clean_linker_1, # of connection points: 2
#     Edge 32, Type (0, 1), BuildingBlock: KIFKEQ_clean_linker_1, # of connection points: 2
#     Edge 33, Type (0, 1), BuildingBlock: KIFKEQ_clean_linker_1, # of connection points: 2
#     Edge 34, Type (0, 1), BuildingBlock: KIFKEQ_clean_linker_1, # of connection points: 2
#     Edge 35, Type (0, 1), BuildingBlock: KIFKEQ_clean_linker_1, # of connection points: 2
# Relax obj value: 0.007
# Max RMSD: 0.103
# Mean RMSD: 0.066
data_MOF--net-ssa--node1-ESEHIV_clean_sbu_0--node2-MUDLON_clean_linker_0--edge1-KIFKEQ_clean_linker_1
_symmetry_space_group_name_H-M    P1
_symmetry_Int_Tables_number       1
_symmetry_cell_setting            triclinic
loop_
_symmetry_equiv_pos_as_xyz
'x, y, z'
_cell_length_a     70.901228
_cell_length_b     74.472862
_cell_length_c     40.782545
_cell_angle_alpha  88.5522
_cell_angle_beta   90.633575
_cell_angle_gamma 121.71561
loop_
_atom_site_label
_atom_site_type_symbol
_atom_site_fract_x
_atom_site_fract_y
_atom_site_fract_z
_atom_type_partial_charge
Cu0 Cu 0.04335 0.54055 0.99813 0.0
N1 N 0.04024 0.52764 0.95819 0.0
N2 N 0.02401 0.50043 0.92425 0.0
C3 C 0.02213 0.50872 0.95213 0.0
C4 C 0.04413 0.51497 0.91192 0.0
C5 C 0.0542 0.53173 0.93305 0.0
O6 O 0.01433 0.53703 0.00491 0.0
C7 C 0.07071 0.52841 0.0225 0.0
O8 O 0.08126 0.53988 0.99636 0.0
H9 H 0.00808 0.50096 0.96866 0.0
H10 H 0.07088 0.54527 0.931 0.0
N11 N 0.06594 0.56907 0.99932 0.0
N12 N 0.091 0.59927 0.02264 0.0
C13 C 0.0728 0.57991 0.02728 0.0
C14 C 0.08021 0.58212 0.97599 0.0
C15 C 0.09583 0.60077 0.99041 0.0
C16 C 0.0112 0.55148 0.99406 0.0
O17 O 0.02845 0.5697 0.98462 0.0
H18 H 0.06521 0.57326 0.05094 0.0
H19 H 0.07975 0.5782 0.95056 0.0
O20 O 0.05203 0.52604 0.0296 0.0
H21 H 0.05155 0.51317 0.89017 0.0
H22 H 0.10982 0.61422 0.97832 0.0
Cu23 Cu 0.56451 0.03344 0.4935 0.0
N24 N 0.57997 0.03068 0.45899 0.0
N25 N 0.59135 0.01522 0.42471 0.0
C26 C 0.57946 0.01287 0.45191 0.0
C27 C 0.59981 0.03546 0.41452 0.0
C28 C 0.59277 0.04494 0.4357 0.0
O29 O 0.53623 0.00692 0.49845 0.0
C30 C 0.60134 0.05903 0.5299 0.0
O31 O 0.60618 0.06962 0.50185 0.0
H32 H 0.56986 0.99826 0.46589 0.0
H33 H 0.59655 0.06101 0.43402 0.0
N34 N 0.55858 0.0548 0.48542 0.0
N35 N 0.55087 0.07954 0.49674 0.0
C36 C 0.5549 0.06486 0.50907 0.0
C37 C 0.55672 0.06321 0.45692 0.0
C38 C 0.55198 0.0785 0.46381 0.0
C39 C 0.52583 0.99895 0.47192 0.0
O40 O 0.53435 0.00904 0.44396 0.0
H41 H 0.55481 0.0611 0.53488 0.0
H42 H 0.55858 0.05852 0.43288 0.0
O43 O 0.58304 0.0414 0.53239 0.0
H44 H 0.61033 0.04295 0.39328 0.0
H45 H 0.54968 0.08816 0.4459 0.0
Cu46 Cu 0.55349 0.51226 0.03652 0.0
N47 N 0.55199 0.48646 0.041 0.0
N48 N 0.54588 0.45515 0.02587 0.0
C49 C 0.54691 0.47312 0.01616 0.0
C50 C 0.55065 0.45736 0.05821 0.0
C51 C 0.55432 0.47667 0.06751 0.0
O52 O 0.57049 0.52555 0.99666 0.0
C53 C 0.51192 0.49632 0.06071 0.0
O54 O 0.52138 0.49126 0.08397 0.0
H55 H 0.54391 0.47659 0.9914 0.0
H56 H 0.55779 0.48278 0.09204 0.0
N57 N 0.56749 0.53016 0.07181 0.0
N58 N 0.57785 0.55715 0.10529 0.0
C59 C 0.56549 0.54662 0.07906 0.0
C60 C 0.58158 0.53019 0.09422 0.0
C61 C 0.58801 0.54683 0.11488 0.0
C62 C 0.59102 0.53192 0.99846 0.0
O63 O 0.59904 0.53028 0.02679 0.0
H64 H 0.55547 0.55098 0.06484 0.0
H65 H 0.58712 0.51916 0.0952 0.0
O66 O 0.52327 0.50625 0.0353 0.0
H67 H 0.55073 0.4456 0.07426 0.0
H68 H 0.59921 0.55089 0.13544 0.0
Cu69 Cu 0.02249 0.49677 0.49989 0.0
N70 N 0.02266 0.48567 0.4597 0.0
N71 N 0.03515 0.47462 0.41975 0.0
C72 C 0.0403 0.48598 0.44722 0.0
C73 C 0.01335 0.46688 0.41474 0.0
C74 C 0.00567 0.47373 0.4395 0.0
O75 O 0.05202 0.52183 0.50426 0.0
C76 C 0.01471 0.47518 0.56289 0.0
O77 O 0.02347 0.49368 0.57655 0.0
H78 H 0.05633 0.49353 0.45909 0.0
H79 H 0.98879 0.46971 0.44317 0.0
N80 N 1.00077 0.50378 0.50056 0.0
N81 N 0.97532 0.50981 0.52009 0.0
C82 C 0.99 0.50399 0.52737 0.0
C83 C 0.99261 0.50962 0.47534 0.0
C84 C 0.97679 0.51327 0.48732 0.0
C85 C 0.05568 0.53957 0.51359 0.0
O86 O 0.03939 0.54061 0.52646 0.0
H87 H 0.99274 0.49979 0.55174 0.0
H88 H 0.99784 0.51118 0.45007 0.0
O89 O 0.01437 0.4741 0.53182 0.0
H90 H 1.00356 0.45672 0.39496 0.0
H91 H 0.96739 0.51838 0.47312 0.0
Cu92 Cu 0.50753 0.98794 0.99071 0.0
N93 N 0.49065 0.99111 0.95799 0.0
N94 N 0.47967 0.00769 0.9236 0.0
C95 C 0.49318 0.00973 0.94866 0.0
C96 C 0.46802 0.98692 0.91698 0.0
C97 C 0.47474 0.97671 0.93835 0.0
O98 O 0.53668 0.01386 0.98956 0.0
C99 C 0.47233 0.96534 0.03281 0.0
O100 O 0.46436 0.95482 0.00565 0.0
H101 H 0.50525 0.02461 0.95943 0.0
H102 H 0.46839 0.95997 0.93938 0.0
N103 N 0.51163 0.96555 0.98338 0.0
N104 N 0.5213 0.94201 0.99503 0.0
C105 C 0.52185 0.95943 0.0048 0.0
C106 C 0.50458 0.95163 0.95892 0.0
C107 C 0.51036 0.93693 0.96623 0.0
C108 C 0.54598 0.01837 0.96146 0.0
O109 O 0.53578 0.00517 0.93753 0.0
H110 H 0.52892 0.96723 0.0277 0.0
H111 H 0.49574 0.95195 0.93743 0.0
O112 O 0.4919 0.98159 0.03247 0.0
H113 H 0.45551 0.97964 0.89815 0.0
H114 H 0.50687 0.9236 0.95158 0.0
Cu115 Cu 0.50029 0.50287 0.53249 0.0
N116 N 0.50383 0.52938 0.53703 0.0
N117 N 0.51341 0.56227 0.52253 0.0
C118 C 0.51165 0.54423 0.51298 0.0
C119 C 0.50624 0.55854 0.55394 0.0
C120 C 0.5004 0.53822 0.56287 0.0
O121 O 0.48246 0.49102 0.49324 0.0
C122 C 0.54203 0.51691 0.55504 0.0
O123 O 0.53415 0.52381 0.57716 0.0
H124 H 0.51595 0.54173 0.48886 0.0
H125 H 0.4946 0.53069 0.58671 0.0
N126 N 0.48598 0.48466 0.56831 0.0
N127 N 0.47699 0.45819 0.60432 0.0
C128 C 0.48931 0.46911 0.57782 0.0
C129 C 0.47098 0.4836 0.58948 0.0
C130 C 0.46538 0.46725 0.61171 0.0
C131 C 0.46295 0.48776 0.49475 0.0
O132 O 0.45647 0.49171 0.52225 0.0
H133 H 0.50041 0.46577 0.56511 0.0
H134 H 0.4645 0.49389 0.5888 0.0
O135 O 0.52973 0.50686 0.53087 0.0
H136 H 0.50584 0.56984 0.56963 0.0
H137 H 0.45387 0.46262 0.63196 0.0
H138 H 0.33857 0.48353 0.25803 0.0
N139 N 0.32036 0.44957 0.2179 0.0
H140 H 0.36291 0.48946 0.30483 0.0
H141 H 0.33021 0.4226 0.24446 0.0
H142 H 0.35398 0.428 0.29185 0.0
H143 H 0.31476 0.42623 0.1662 0.0
H144 H 0.3412 0.43481 0.12169 0.0
H145 H 0.35594 0.48897 0.20316 0.0
H146 H 0.3832 0.49728 0.16051 0.0
H147 H 0.31739 0.48437 0.20517 0.0
H148 H 0.27995 0.41863 0.23431 0.0
H149 H 0.2835 0.48569 0.20749 0.0
H150 H 0.24613 0.41971 0.23671 0.0
H151 H 0.19032 0.47439 0.26339 0.0
H152 H 0.16676 0.47684 0.30415 0.0
H153 H 0.11317 0.41424 0.27994 0.0
H154 H 0.13669 0.41221 0.23862 0.0
H155 H 0.14631 0.42354 0.17107 0.0
H156 H 0.12932 0.43811 0.13551 0.0
H157 H 0.17489 0.50023 0.17276 0.0
H158 H 0.19217 0.48559 0.20729 0.0
H159 H 0.21119 0.46667 0.17467 0.0
H160 H 0.24727 0.47039 0.17714 0.0
H161 H 0.22932 0.43506 0.2688 0.0
N162 N 0.17608 0.44345 0.21782 0.0
H163 H 0.19306 0.43103 0.26645 0.0
C164 C 0.33254 0.45254 0.24786 0.0
C165 C 0.34168 0.47127 0.26552 0.0
C166 C 0.35558 0.4746 0.29233 0.0
C167 C 0.36057 0.45927 0.30204 0.0
C168 C 0.35086 0.44032 0.28475 0.0
C169 C 0.33706 0.43707 0.25794 0.0
C170 C 0.33356 0.45671 0.18837 0.0
C171 C 0.32934 0.44198 0.16431 0.0
C172 C 0.34465 0.44688 0.13915 0.0
C173 C 0.36479 0.46655 0.13795 0.0
C174 C 0.36798 0.48197 0.16043 0.0
C175 C 0.35241 0.47716 0.1852 0.0
C176 C 0.30107 0.45128 0.2194 0.0
C177 C 0.30189 0.47024 0.21207 0.0
C178 C 0.28251 0.47095 0.21336 0.0
C179 C 0.26211 0.45283 0.22246 0.0
C180 C 0.26157 0.43404 0.23013 0.0
C181 C 0.28082 0.43332 0.22857 0.0
C182 C 0.1651 0.44315 0.24767 0.0
C183 C 0.17369 0.46101 0.26743 0.0
C184 C 0.1602 0.46236 0.2908 0.0
C185 C 0.13795 0.44589 0.29478 0.0
C186 C 0.13009 0.42737 0.27695 0.0
C187 C 0.14355 0.42605 0.25364 0.0
C188 C 0.17047 0.45338 0.19178 0.0
C189 C 0.15306 0.4404 0.17069 0.0
C190 C 0.14314 0.44871 0.15085 0.0
C191 C 0.15044 0.47028 0.15176 0.0
C192 C 0.16885 0.48356 0.17137 0.0
C193 C 0.17878 0.47521 0.1912 0.0
C194 C 0.19909 0.4492 0.22116 0.0
C195 C 0.21497 0.46027 0.19606 0.0
C196 C 0.23581 0.46238 0.19732 0.0
C197 C 0.24122 0.45304 0.22315 0.0
C198 C 0.22567 0.44237 0.24844 0.0
C199 C 0.20493 0.44032 0.24729 0.0
H200 H 0.73068 0.12901 0.84271 0.0
N201 N 0.74117 0.16281 0.80598 0.0
H202 H 0.70107 0.11181 0.88345 0.0
H203 H 0.72034 0.18094 0.83385 0.0
H204 H 0.69058 0.1639 0.87487 0.0
H205 H 0.70924 0.16855 0.77843 0.0
H206 H 0.68652 0.15063 0.73099 0.0
H207 H 0.74489 0.13679 0.76682 0.0
H208 H 0.72212 0.11871 0.71882 0.0
H209 H 0.78102 0.17463 0.82911 0.0
H210 H 0.74477 0.19898 0.77971 0.0
H211 H 0.81513 0.20917 0.82356 0.0
H212 H 0.77889 0.23314 0.77212 0.0
H213 H 0.91365 0.31011 0.82473 0.0
H214 H 0.93463 0.34234 0.85615 0.0
H215 H 0.89114 0.36287 0.82083 0.0
H216 H 0.871 0.33123 0.78869 0.0
H217 H 0.86678 0.31827 0.73381 0.0
H218 H 0.88875 0.34432 0.69059 0.0
H219 H 0.94276 0.33455 0.71018 0.0
H220 H 0.92089 0.30906 0.75384 0.0
H221 H 0.8763 0.26409 0.77721 0.0
H222 H 0.8412 0.23057 0.78398 0.0
H223 H 0.8074 0.26437 0.79499 0.0
N224 N 0.88357 0.30269 0.77912 0.0
H225 H 0.84237 0.29764 0.78613 0.0
C226 C 0.72758 0.15609 0.8351 0.0
C227 C 0.72246 0.13702 0.85046 0.0
C228 C 0.70553 0.12724 0.87381 0.0
C229 C 0.69323 0.13635 0.88225 0.0
C230 C 0.6995 0.15631 0.86857 0.0
C231 C 0.71659 0.16614 0.84524 0.0
C232 C 0.72903 0.15418 0.77601 0.0
C233 C 0.71251 0.15803 0.76533 0.0
C234 C 0.69945 0.14771 0.73813 0.0
C235 C 0.70248 0.13321 0.72115 0.0
C236 C 0.71922 0.12962 0.73159 0.0
C237 C 0.73238 0.14007 0.75873 0.0
C238 C 0.76037 0.184 0.80452 0.0
C239 C 0.78045 0.18746 0.81704 0.0
C240 C 0.8 0.20719 0.81341 0.0
C241 C 0.80003 0.22401 0.7967 0.0
C242 C 0.77964 0.22071 0.78521 0.0
C243 C 0.76 0.20099 0.78932 0.0
C244 C 0.89063 0.31803 0.80455 0.0
C245 C 0.90816 0.3212 0.82484 0.0
C246 C 0.92018 0.3397 0.84266 0.0
C247 C 0.91481 0.35539 0.84054 0.0
C248 C 0.896 0.35131 0.82248 0.0
C249 C 0.88411 0.3329 0.80451 0.0
C250 C 0.89236 0.31192 0.74725 0.0
C251 C 0.88306 0.32124 0.72804 0.0
C252 C 0.89568 0.33617 0.70336 0.0
C253 C 0.91773 0.34189 0.69754 0.0
C254 C 0.92604 0.33087 0.71459 0.0
C255 C 0.91345 0.31605 0.73917 0.0
C256 C 0.86216 0.28341 0.78158 0.0
C257 C 0.86125 0.2642 0.78082 0.0
C258 C 0.84114 0.24504 0.78513 0.0
C259 C 0.82133 0.2446 0.79074 0.0
C260 C 0.8222 0.26396 0.79064 0.0
C261 C 0.84236 0.28315 0.78585 0.0
H262 H 0.56625 0.85914 0.2629 0.0
N263 N 0.60374 0.86308 0.23716 0.0
H264 H 0.565 0.88327 0.30106 0.0
H265 H 0.63737 0.89267 0.27142 0.0
H266 H 0.63632 0.91668 0.31026 0.0
H267 H 0.62539 0.89551 0.19571 0.0
H268 H 0.61073 0.90421 0.14773 0.0
H269 H 0.56254 0.83764 0.21069 0.0
H270 H 0.54787 0.84553 0.16153 0.0
H271 H 0.57061 0.82887 0.27145 0.0
H272 H 0.63083 0.85136 0.21659 0.0
H273 H 0.56823 0.79531 0.28262 0.0
H274 H 0.62818 0.81762 0.22633 0.0
H275 H 0.55367 0.69687 0.29646 0.0
H276 H 0.53917 0.67334 0.34448 0.0
H277 H 0.60327 0.70918 0.39108 0.0
H278 H 0.61784 0.73204 0.34205 0.0
H279 H 0.62785 0.71814 0.27329 0.0
H280 H 0.62522 0.69177 0.23592 0.0
H281 H 0.56205 0.68033 0.20142 0.0
H282 H 0.56478 0.70659 0.23919 0.0
H283 H 0.56103 0.73052 0.2725 0.0
H284 H 0.56164 0.76312 0.2595 0.0
H285 H 0.63301 0.79875 0.26952 0.0
N286 N 0.59716 0.72721 0.28533 0.0
H287 H 0.63216 0.76601 0.2811 0.0
C288 C 0.60199 0.87416 0.26431 0.0
C289 C 0.58155 0.87132 0.27375 0.0
C290 C 0.58088 0.88516 0.29562 0.0
C291 C 0.6006 0.90211 0.30843 0.0
C292 C 0.62086 0.90406 0.3004 0.0
C293 C 0.6215 0.89023 0.27854 0.0
C294 C 0.59518 0.86596 0.20659 0.0
C295 C 0.60856 0.88441 0.18799 0.0
C296 C 0.60012 0.88926 0.1604 0.0
C297 C 0.57804 0.87557 0.15048 0.0
C298 C 0.56484 0.85661 0.1686 0.0
C299 C 0.57326 0.85193 0.19656 0.0
C300 C 0.6012 0.84279 0.24361 0.0
C301 C 0.5833 0.82659 0.26172 0.0
C302 C 0.58185 0.80727 0.26781 0.0
C303 C 0.59814 0.80374 0.25568 0.0
C304 C 0.61562 0.81986 0.23678 0.0
C305 C 0.61712 0.83913 0.23097 0.0
C306 C 0.58698 0.71604 0.31557 0.0
C307 C 0.56449 0.6999 0.3172 0.0
C308 C 0.55618 0.6865 0.34488 0.0
C309 C 0.57014 0.68911 0.37154 0.0
C310 C 0.59217 0.70636 0.37072 0.0
C311 C 0.6005 0.71959 0.34292 0.0
C312 C 0.59661 0.71437 0.25906 0.0
C313 C 0.61371 0.71027 0.25707 0.0
C314 C 0.61215 0.6952 0.23567 0.0
C315 C 0.59334 0.6838 0.21578 0.0
C316 C 0.57661 0.68861 0.21674 0.0
C317 C 0.57824 0.70377 0.23816 0.0
C318 C 0.59666 0.74589 0.27735 0.0
C319 C 0.57679 0.74532 0.27149 0.0
C320 C 0.57716 0.76404 0.2644 0.0
C321 C 0.5974 0.78365 0.26323 0.0
C322 C 0.61716 0.78399 0.26944 0.0
C323 C 0.61674 0.76533 0.27627 0.0
H324 H 0.87055 0.54482 0.79177 0.0
N325 N 0.83677 0.50531 0.77481 0.0
H326 H 0.89575 0.55334 0.8377 0.0
H327 H 0.83381 0.47953 0.82352 0.0
H328 H 0.85991 0.48757 0.86859 0.0
H329 H 0.84077 0.47495 0.74954 0.0
H330 H 0.86311 0.47758 0.70215 0.0
H331 H 0.86101 0.5402 0.73512 0.0
H332 H 0.8836 0.54308 0.68783 0.0
H333 H 0.83458 0.53859 0.80013 0.0
H334 H 0.80081 0.48451 0.73793 0.0
H335 H 0.80665 0.5471 0.78817 0.0
H336 H 0.77324 0.49362 0.72446 0.0
H337 H 0.71834 0.57634 0.74262 0.0
H338 H 0.69683 0.5775 0.78839 0.0
H339 H 0.68068 0.51526 0.82048 0.0
H340 H 0.70201 0.51421 0.7751 0.0
H341 H 0.68307 0.50802 0.7192 0.0
H342 H 0.65681 0.50128 0.67536 0.0
H343 H 0.70672 0.55775 0.62375 0.0
H344 H 0.73246 0.56502 0.66908 0.0
H345 H 0.7665 0.57031 0.7359 0.0
H346 H 0.79415 0.5609 0.74754 0.0
H347 H 0.7429 0.49476 0.74276 0.0
N348 N 0.72334 0.54465 0.72671 0.0
H349 H 0.71579 0.50451 0.72917 0.0
C350 C 0.84992 0.5115 0.80443 0.0
C351 C 0.86765 0.53232 0.80894 0.0
C352 C 0.88236 0.53711 0.83509 0.0
C353 C 0.88023 0.52112 0.85684 0.0
C354 C 0.86205 0.50042 0.85281 0.0
C355 C 0.84707 0.49574 0.82697 0.0
C356 C 0.84935 0.50733 0.74592 0.0
C357 C 0.84997 0.4898 0.73597 0.0
C358 C 0.86264 0.49133 0.70886 0.0
C359 C 0.87512 0.51055 0.69127 0.0
C360 C 0.87434 0.52812 0.7011 0.0
C361 C 0.86146 0.52651 0.72809 0.0
C362 C 0.82008 0.51079 0.76978 0.0
C363 C 0.82138 0.52853 0.78367 0.0
C364 C 0.80527 0.53355 0.77655 0.0
C365 C 0.78762 0.52121 0.75504 0.0
C366 C 0.78629 0.50339 0.74149 0.0
C367 C 0.80218 0.49821 0.749 0.0
C368 C 0.71216 0.54542 0.75556 0.0
C369 C 0.71038 0.5631 0.75984 0.0
C370 C 0.69793 0.56364 0.78575 0.0
C371 C 0.68708 0.54647 0.80805 0.0
C372 C 0.6891 0.52886 0.80399 0.0
C373 C 0.70139 0.52827 0.77796 0.0
C374 C 0.70965 0.53736 0.69776 0.0
C375 C 0.68854 0.51875 0.69821 0.0
C376 C 0.6735 0.51483 0.67281 0.0
C377 C 0.67937 0.52922 0.64615 0.0
C378 C 0.70132 0.54664 0.64429 0.0
C379 C 0.71619 0.55072 0.66997 0.0
C380 C 0.73914 0.53821 0.73178 0.0
C381 C 0.76137 0.5538 0.73705 0.0
C382 C 0.77708 0.54833 0.74412 0.0
C383 C 0.77086 0.52701 0.74656 0.0
C384 C 0.74849 0.51135 0.74078 0.0
C385 C 0.73284 0.51689 0.73321 0.0
H386 H 0.20403 0.67859 0.32177 0.0
N387 N 0.20109 0.713 0.31002 0.0
H388 H 0.18437 0.65155 0.36486 0.0
H389 H 0.17944 0.71557 0.36093 0.0
H390 H 0.1606 0.68931 0.40506 0.0
H391 H 0.1618 0.70372 0.28665 0.0
H392 H 0.14478 0.687 0.23485 0.0
H393 H 0.22009 0.70254 0.2627 0.0
H394 H 0.20404 0.68715 0.20986 0.0
H395 H 0.24343 0.72193 0.30725 0.0
H396 H 0.2038 0.74957 0.31841 0.0
H397 H 0.27721 0.75711 0.30676 0.0
H398 H 0.23727 0.78466 0.32048 0.0
H399 H 0.37275 0.85529 0.3269 0.0
H400 H 0.39983 0.8723 0.37006 0.0
H401 H 0.35878 0.89253 0.41337 0.0
H402 H 0.3323 0.87642 0.36838 0.0
H403 H 0.34456 0.89531 0.28995 0.0
H404 H 0.36762 0.91484 0.24221 0.0
H405 H 0.37895 0.8642 0.22551 0.0
H406 H 0.35563 0.84468 0.27319 0.0
H407 H 0.3348 0.82232 0.33611 0.0
H408 H 0.30214 0.78674 0.33621 0.0
H409 H 0.26486 0.81069 0.28782 0.0
N410 N 0.33671 0.85882 0.31531 0.0
H411 H 0.29723 0.84638 0.29006 0.0
C412 C 0.19298 0.69893 0.33816 0.0
C413 C 0.19483 0.68108 0.34023 0.0
C414 C 0.18364 0.6657 0.36499 0.0
C415 C 0.17056 0.66803 0.38828 0.0
C416 C 0.17001 0.68667 0.38716 0.0
C417 C 0.18097 0.70185 0.36221 0.0
C418 C 0.19221 0.70454 0.27833 0.0
C419 C 0.17106 0.7002 0.2698 0.0
C420 C 0.16147 0.69078 0.24001 0.0
C421 C 0.173 0.68573 0.21781 0.0
C422 C 0.19445 0.69046 0.22637 0.0
C423 C 0.20384 0.69956 0.25647 0.0
C424 C 0.22119 0.73331 0.31226 0.0
C425 C 0.24208 0.73565 0.30978 0.0
C426 C 0.26139 0.75581 0.3099 0.0
C427 C 0.26015 0.77398 0.31315 0.0
C428 C 0.23905 0.77128 0.31688 0.0
C429 C 0.21984 0.7512 0.31613 0.0
C430 C 0.35065 0.86496 0.34404 0.0
C431 C 0.36941 0.86318 0.34579 0.0
C432 C 0.38485 0.87278 0.37093 0.0
C433 C 0.38176 0.88412 0.39523 0.0
C434 C 0.36205 0.88442 0.39473 0.0
C435 C 0.34676 0.87504 0.36926 0.0
C436 C 0.3484 0.86863 0.28507 0.0
C437 C 0.35177 0.88832 0.27563 0.0
C438 C 0.36494 0.89943 0.24842 0.0
C439 C 0.37522 0.89111 0.23023 0.0
C440 C 0.37148 0.87113 0.23932 0.0
C441 C 0.35806 0.8599 0.26639 0.0
C442 C 0.31836 0.83722 0.31363 0.0
C443 C 0.3196 0.81999 0.32574 0.0
C444 C 0.30083 0.79948 0.32547 0.0
C445 C 0.28056 0.79566 0.31246 0.0
C446 C 0.27982 0.81291 0.29906 0.0
C447 C 0.29841 0.83337 0.29994 0.0
H448 H 0.4534 0.13537 0.68481 0.0
N449 N 0.4757 0.16605 0.72682 0.0
H450 H 0.46818 0.12671 0.63826 0.0
H451 H 0.5171 0.19168 0.70016 0.0
H452 H 0.53204 0.18365 0.6527 0.0
H453 H 0.51342 0.16877 0.75024 0.0
H454 H 0.51506 0.14412 0.78911 0.0
H455 H 0.44257 0.13621 0.76315 0.0
H456 H 0.44411 0.1115 0.80243 0.0
H457 H 0.44795 0.17828 0.70984 0.0
H458 H 0.50954 0.1991 0.76027 0.0
H459 H 0.44936 0.21047 0.72507 0.0
H460 H 0.51069 0.23098 0.77695 0.0
H461 H 0.44226 0.29992 0.78372 0.0
H462 H 0.44158 0.32576 0.74623 0.0
H463 H 0.50666 0.34419 0.71058 0.0
H464 H 0.50725 0.31854 0.74842 0.0
H465 H 0.51885 0.32571 0.80542 0.0
H466 H 0.53201 0.34933 0.85187 0.0
H467 H 0.46799 0.31095 0.89862 0.0
H468 H 0.45479 0.28787 0.85132 0.0
H469 H 0.4426 0.25482 0.79034 0.0
H470 H 0.4439 0.22435 0.77306 0.0
H471 H 0.51493 0.26422 0.7604 0.0
N472 N 0.47581 0.29437 0.79479 0.0
H473 H 0.51342 0.29446 0.77912 0.0
C474 C 0.48404 0.16411 0.69588 0.0
C475 C 0.47043 0.14622 0.67735 0.0
C476 C 0.47896 0.14136 0.65065 0.0
C477 C 0.50141 0.1544 0.64166 0.0
C478 C 0.51478 0.17304 0.6592 0.0
C479 C 0.50621 0.17782 0.68615 0.0
C480 C 0.47776 0.1542 0.75363 0.0
C481 C 0.49826 0.15658 0.7619 0.0
C482 C 0.49917 0.1424 0.784 0.0
C483 C 0.47968 0.12577 0.79853 0.0
C484 C 0.45941 0.12423 0.79175 0.0
C485 C 0.45848 0.13829 0.76937 0.0
C486 C 0.47839 0.18611 0.73417 0.0
C487 C 0.46181 0.18987 0.72417 0.0
C488 C 0.46257 0.2082 0.73323 0.0
C489 C 0.47993 0.22322 0.75286 0.0
C490 C 0.49709 0.21983 0.7618 0.0
C491 C 0.49639 0.20149 0.75243 0.0
C492 C 0.47471 0.30728 0.76888 0.0
C493 C 0.45614 0.30926 0.76728 0.0
C494 C 0.4558 0.32401 0.74582 0.0
C495 C 0.47414 0.33716 0.72555 0.0
C496 C 0.4924 0.33452 0.72622 0.0
C497 C 0.49269 0.31971 0.74768 0.0
C498 C 0.48571 0.30509 0.82484 0.0
C499 C 0.50783 0.32205 0.82601 0.0
C500 C 0.51536 0.33556 0.85272 0.0
C501 C 0.50093 0.33229 0.87877 0.0
C502 C 0.47939 0.31423 0.87866 0.0
C503 C 0.47188 0.30086 0.85189 0.0
C504 C 0.47778 0.27686 0.78582 0.0
C505 C 0.45844 0.2569 0.784 0.0
C506 C 0.45924 0.23957 0.77378 0.0
C507 C 0.4795 0.24181 0.76477 0.0
C508 C 0.49904 0.26185 0.76722 0.0
C509 C 0.49821 0.27923 0.77772 0.0
H510 H 0.10795 0.52858 0.00781 0.0
H511 H 0.05708 0.50684 0.08216 0.0
H512 H 0.12632 0.51441 0.03969 0.0
H513 H 0.07601 0.49281 0.11483 0.0
H514 H 0.10547 0.45172 0.14501 0.0
H515 H 0.08542 0.46531 0.11496 0.0
H516 H 0.14762 0.52193 0.08921 0.0
H517 H 0.16767 0.50799 0.11798 0.0
C518 C 0.10069 0.52084 0.03113 0.0
C519 C 0.08106 0.51897 0.0425 0.0
C520 C 0.11138 0.51281 0.04955 0.0
C521 C 0.10285 0.50271 0.08004 0.0
C522 C 0.08298 0.50045 0.09135 0.0
C523 C 0.07216 0.50853 0.07273 0.0
C524 C 0.11488 0.46697 0.13257 0.0
C525 C 0.13822 0.47866 0.1336 0.0
C526 C 0.10335 0.47488 0.11577 0.0
C527 C 0.11488 0.49467 0.09956 0.0
C528 C 0.1382 0.50649 0.10103 0.0
C529 C 0.14972 0.49858 0.11779 0.0
H530 H 0.5961 0.04354 0.5934 0.0
H531 H 0.64113 0.09603 0.53014 0.0
H532 H 0.62075 0.06088 0.64001 0.0
H533 H 0.6656 0.11304 0.57623 0.0
H534 H 0.68902 0.14906 0.67132 0.0
H535 H 0.66437 0.13011 0.62598 0.0
H536 H 0.65855 0.07228 0.66157 0.0
H537 H 0.68286 0.09121 0.7076 0.0
C538 C 0.61129 0.05864 0.58937 0.0
C539 C 0.61655 0.06845 0.5581 0.0
C540 C 0.62543 0.06853 0.61601 0.0
C541 C 0.64501 0.08844 0.61184 0.0
C542 C 0.65045 0.09791 0.5804 0.0
C543 C 0.63643 0.08806 0.55391 0.0
C544 C 0.68239 0.13228 0.66961 0.0
C545 C 0.68793 0.12166 0.69304 0.0
C546 C 0.66841 0.12145 0.64346 0.0
C547 C 0.65957 0.09969 0.64011 0.0
C548 C 0.66499 0.089 0.66361 0.0
C549 C 0.6791 0.09989 0.68973 0.0
H550 H 0.5481 0.56966 0.1026 0.0
H551 H 0.61249 0.58695 0.14052 0.0
H552 H 0.55187 0.60108 0.12631 0.0
H553 H 0.61589 0.61792 0.16527 0.0
H554 H 0.62474 0.68225 0.17933 0.0
H555 H 0.62094 0.65204 0.15103 0.0
H556 H 0.552 0.61476 0.1797 0.0
H557 H 0.5558 0.64493 0.20793 0.0
C558 C 0.5631 0.58017 0.11588 0.0
C559 C 0.57999 0.57571 0.11958 0.0
C560 C 0.56516 0.5981 0.12979 0.0
C561 C 0.58418 0.61207 0.14771 0.0
C562 C 0.60112 0.60766 0.15129 0.0
C563 C 0.59904 0.58972 0.13744 0.0
C564 C 0.60877 0.66761 0.17955 0.0
C565 C 0.5906 0.66603 0.19598 0.0
C566 C 0.60659 0.65027 0.16339 0.0
C567 C 0.5862 0.6309 0.16325 0.0
C568 C 0.56788 0.6295 0.17894 0.0
C569 C 0.57005 0.64684 0.19509 0.0
H570 H 0.93442 0.50312 0.50839 0.0
H571 H 0.98422 0.52115 0.58348 0.0
H572 H 0.90986 0.50506 0.54797 0.0
H573 H 0.95967 0.52278 0.62304 0.0
H574 H 0.91796 0.54195 0.67853 0.0
H575 H 0.94228 0.54354 0.63506 0.0
H576 H 0.88897 0.48438 0.59824 0.0
H577 H 0.86457 0.48297 0.64139 0.0
C578 C 0.94017 0.50766 0.53325 0.0
C579 C 0.96119 0.51185 0.54287 0.0
C580 C 0.92608 0.50862 0.55595 0.0
C581 C 0.93283 0.51405 0.58863 0.0
C582 C 0.95405 0.51873 0.598 0.0
C583 C 0.96802 0.51756 0.57542 0.0
C584 C 0.91135 0.52947 0.66084 0.0
C585 C 0.88938 0.51229 0.66345 0.0
C586 C 0.92532 0.53028 0.63613 0.0
C587 C 0.91757 0.51404 0.61332 0.0
C588 C 0.89539 0.49721 0.6153 0.0
C589 C 0.88148 0.4963 0.64018 0.0
H590 H 0.48613 0.97251 0.09711 0.0
H591 H 0.42768 0.93955 0.0367 0.0
H592 H 0.46315 0.95589 0.14631 0.0
H593 H 0.40495 0.92318 0.08541 0.0
H594 H 0.36787 0.91245 0.18129 0.0
H595 H 0.39218 0.9328 0.13529 0.0
H596 H 0.44042 0.91809 0.16979 0.0
H597 H 0.41616 0.89785 0.21608 0.0
C598 C 0.4684 0.96198 0.09438 0.0
C599 C 0.45872 0.95731 0.06306 0.0
C600 C 0.45528 0.95236 0.12246 0.0
C601 C 0.43225 0.93821 0.11969 0.0
C602 C 0.42259 0.93413 0.08841 0.0
C603 C 0.43567 0.94346 0.06047 0.0
C604 C 0.38373 0.91369 0.1792 0.0
C605 C 0.39004 0.90345 0.20221 0.0
C606 C 0.3976 0.92526 0.15279 0.0
C607 C 0.41822 0.92706 0.14896 0.0
C608 C 0.42473 0.91715 0.17228 0.0
C609 C 0.41073 0.90536 0.19852 0.0
H610 H 0.50948 0.44923 0.6055 0.0
H611 H 0.44348 0.42715 0.64122 0.0
H612 H 0.50852 0.41933 0.63265 0.0
H613 H 0.44289 0.39765 0.66961 0.0
H614 H 0.44067 0.3358 0.68908 0.0
H615 H 0.44124 0.36486 0.65901 0.0
H616 H 0.50949 0.40674 0.68735 0.0
H617 H 0.50892 0.37775 0.71722 0.0
C618 C 0.49472 0.43799 0.61905 0.0
C619 C 0.47652 0.44062 0.62102 0.0
C620 C 0.49427 0.42094 0.63497 0.0
C621 C 0.47564 0.40607 0.65336 0.0
C622 C 0.45742 0.40867 0.65534 0.0
C623 C 0.45786 0.42575 0.6394 0.0
C624 C 0.45578 0.35122 0.68887 0.0
C625 C 0.47476 0.35443 0.70549 0.0
C626 C 0.4561 0.36789 0.67172 0.0
C627 C 0.47539 0.38815 0.67081 0.0
C628 C 0.49444 0.39127 0.68709 0.0
C629 C 0.49414 0.37462 0.70419 0.0
H630 H 0.58619 0.97937 0.45282 0.0
H631 H 0.60128 0.01434 0.36082 0.0
H632 H 0.58888 0.95191 0.42603 0.0
H633 H 0.60409 0.98699 0.3342 0.0
H634 H 0.62899 0.94487 0.30367 0.0
H635 H 0.62757 0.97216 0.33309 0.0
H636 H 0.56928 0.92426 0.38534 0.0
H637 H 0.57114 0.89682 0.3566 0.0
C638 C 0.58996 0.9812 0.42687 0.0
C639 C 0.59351 0.99917 0.40906 0.0
C640 C 0.5915 0.96542 0.41152 0.0
C641 C 0.59673 0.96724 0.37798 0.0
C642 C 0.6004 0.98524 0.3602 0.0
C643 C 0.5988 1.00098 0.37552 0.0
C644 C 0.61608 0.94009 0.32185 0.0
C645 C 0.60022 0.9186 0.32784 0.0
C646 C 0.6151 0.95578 0.33841 0.0
C647 C 0.59823 0.95043 0.36143 0.0
C648 C 0.58259 0.92893 0.36792 0.0
C649 C 0.58353 0.91321 0.35125 0.0
H650 H 0.57867 0.52623 0.93349 0.0
H651 H 0.63588 0.5521 0.99696 0.0
H652 H 0.60248 0.53193 0.88631 0.0
H653 H 0.65949 0.55799 0.95012 0.0
H654 H 0.68641 0.5343 0.87183 0.0
H655 H 0.66328 0.53332 0.91635 0.0
H656 H 0.6341 0.55855 0.85085 0.0
H657 H 0.65704 0.55909 0.80586 0.0
C658 C 0.59635 0.53353 0.93726 0.0
C659 C 0.60535 0.53845 0.96899 0.0
C660 C 0.60998 0.53681 0.91027 0.0
C661 C 0.63281 0.54506 0.91462 0.0
C662 C 0.6419 0.55115 0.94608 0.0
C663 C 0.62835 0.54786 0.97291 0.0
C664 C 0.67502 0.53958 0.86687 0.0
C665 C 0.67353 0.54674 0.83534 0.0
C666 C 0.66192 0.53923 0.89246 0.0
C667 C 0.64694 0.54598 0.88717 0.0
C668 C 0.64543 0.55318 0.85564 0.0
C669 C 0.65869 0.55367 0.83 0.0
H670 H 0.09016 0.54368 0.47729 0.0
H671 H 0.06803 0.58026 0.52603 0.0
H672 H 0.12021 0.57587 0.4515 0.0
H673 H 0.09828 0.61244 0.50063 0.0
H674 H 0.17963 0.64062 0.42148 0.0
H675 H 0.15472 0.61058 0.45725 0.0
H676 H 0.10405 0.62569 0.44409 0.0
H677 H 0.12852 0.65524 0.40823 0.0
C678 C 0.092 0.55863 0.48317 0.0
C679 C 0.07645 0.55931 0.50342 0.0
C680 C 0.10931 0.57712 0.46841 0.0
C681 C 0.11145 0.59672 0.47356 0.0
C682 C 0.09682 0.59755 0.4956 0.0
C683 C 0.07955 0.57909 0.51035 0.0
C684 C 0.16317 0.63753 0.42624 0.0
C685 C 0.1562 0.6505 0.41197 0.0
C686 C 0.14893 0.62034 0.44681 0.0
C687 C 0.12742 0.61579 0.45375 0.0
C688 C 0.12064 0.62898 0.43993 0.0
C689 C 0.13477 0.64601 0.41931 0.0
H690 H 0.48637 0.04375 0.94923 0.0
H691 H 0.47116 0.00955 0.85921 0.0
H692 H 0.48641 0.07281 0.91972 0.0
H693 H 0.47109 0.03851 0.82975 0.0
H694 H 0.50083 0.10525 0.78405 0.0
H695 H 0.50038 0.07657 0.81509 0.0
H696 H 0.45895 0.07957 0.88879 0.0
H697 H 0.45945 0.10843 0.85768 0.0
C698 C 0.48303 0.04246 0.92316 0.0
C699 C 0.4788 0.02441 0.9065 0.0
C700 C 0.48289 0.059 0.90635 0.0
C701 C 0.47883 0.05793 0.87245 0.0
C702 C 0.47445 0.03982 0.85584 0.0
C703 C 0.47429 0.02318 0.87273 0.0
C704 C 0.49184 0.09996 0.80707 0.0
C705 C 0.48025 0.10913 0.81853 0.0
C706 C 0.4914 0.0834 0.82464 0.0
C707 C 0.47954 0.07579 0.85425 0.0
C708 C 0.46829 0.0852 0.86609 0.0
C709 C 0.46849 0.10162 0.84826 0.0
H710 H 0.47329 0.48837 0.42964 0.0
H711 H 0.41883 0.47273 0.49474 0.0
H712 H 0.44888 0.48127 0.38239 0.0
H713 H 0.3945 0.46517 0.44802 0.0
H714 H 0.36391 0.47837 0.36021 0.0
H715 H 0.38916 0.48466 0.40543 0.0
H716 H 0.41698 0.45427 0.35274 0.0
H717 H 0.39241 0.44889 0.30671 0.0
C718 C 0.45607 0.48311 0.43387 0.0
C719 C 0.44806 0.4813 0.46591 0.0
C720 C 0.44206 0.47902 0.40683 0.0
C721 C 0.41977 0.47295 0.41136 0.0
C722 C 0.41167 0.47034 0.44352 0.0
C723 C 0.42563 0.47453 0.47037 0.0
C724 C 0.37557 0.47324 0.35805 0.0
C725 C 0.37602 0.46305 0.32979 0.0
C726 C 0.38989 0.4766 0.3842 0.0
C727 C 0.40501 0.46979 0.38292 0.0
C728 C 0.40566 0.45982 0.35452 0.0
C729 C 0.39135 0.45649 0.32829 0.0
H730 H 0.01923 0.48715 0.86158 0.0
H731 H 0.9936 0.46611 0.95986 0.0
H732 H 0.99291 0.45185 0.84171 0.0
H733 H 0.96681 0.43138 0.93987 0.0
H734 H 0.93731 0.36536 0.89907 0.0
H735 H 0.96442 0.40041 0.91878 0.0
H736 H 0.95358 0.42865 0.83246 0.0
H737 H 0.92734 0.3937 0.81207 0.0
C738 C 0.00801 0.47506 0.87893 0.0
C739 C 0.0085 0.47961 0.91227 0.0
C740 C 0.99275 0.45488 0.86751 0.0
C741 C 0.97767 0.43878 0.88919 0.0
C742 C 0.97829 0.44331 0.92253 0.0
C743 C 0.99352 0.46341 0.93392 0.0
C744 C 0.94076 0.37905 0.88427 0.0
C745 C 0.93003 0.37667 0.85408 0.0
C746 C 0.95617 0.39916 0.89568 0.0
C747 C 0.96122 0.41737 0.87717 0.0
C748 C 0.95032 0.41498 0.84715 0.0
C749 C 0.93496 0.3949 0.83573 0.0
H750 H 0.97272 0.51258 0.98846 0.0
H751 H 0.99917 0.5795 0.9763 0.0
H752 H 0.93894 0.5052 0.95959 0.0
H753 H 0.96563 0.57209 0.94758 0.0
H754 H 0.925 0.54939 0.85158 0.0
H755 H 0.95378 0.55661 0.89107 0.0
H756 H 0.90495 0.5099 0.958 0.0
H757 H 0.87558 0.50313 0.91886 0.0
C758 C 0.97108 0.52569 0.98056 0.0
C759 C 0.98878 0.54664 0.98432 0.0
C760 C 0.95175 0.52145 0.96396 0.0
C761 C 0.94985 0.53808 0.95079 0.0
C762 C 0.9668 0.55895 0.95691 0.0
C763 C 0.98599 0.56318 0.97352 0.0
C764 C 0.92011 0.54097 0.87497 0.0
C765 C 0.89774 0.52581 0.88193 0.0
C766 C 0.93674 0.54506 0.89761 0.0
C767 C 0.93163 0.53395 0.92777 0.0
C768 C 0.90937 0.51867 0.93489 0.0
C769 C 0.89258 0.51476 0.91234 0.0
H770 H 0.51471 0.96707 0.43107 0.0
H771 H 0.48925 0.98546 0.5106 0.0
H772 H 0.47801 0.93589 0.42263 0.0
H773 H 0.45201 0.95434 0.50146 0.0
H774 H 0.41187 0.87584 0.42404 0.0
H775 H 0.4463 0.90096 0.45156 0.0
H776 H 0.42751 0.94743 0.4476 0.0
H777 H 0.39374 0.92297 0.41868 0.0
C778 C 0.50127 0.96413 0.44719 0.0
C779 C 0.50467 0.97855 0.47145 0.0
C780 C 0.48032 0.94625 0.44249 0.0
C781 C 0.46221 0.94272 0.46142 0.0
C782 C 0.46577 0.95671 0.48665 0.0
C783 C 0.48698 0.97439 0.49195 0.0
C784 C 0.41493 0.89134 0.42921 0.0
C785 C 0.4001 0.89742 0.41841 0.0
C786 C 0.43456 0.90562 0.44527 0.0
C787 C 0.43955 0.92612 0.45154 0.0
C788 C 0.42393 0.93163 0.44338 0.0
C789 C 0.4045 0.91751 0.42681 0.0
H790 H 0.55753 0.42594 0.03519 0.0
H791 H 0.52005 0.44305 0.97158 0.0
H792 H 0.54653 0.39506 0.00185 0.0
H793 H 0.50971 0.4128 0.93794 0.0
H794 H 0.47534 0.34596 0.90432 0.0
H795 H 0.48618 0.3746 0.94181 0.0
H796 H 0.55239 0.38576 0.94635 0.0
H797 H 0.54127 0.35638 0.90952 0.0
C798 C 0.54695 0.42313 0.01417 0.0
C799 C 0.53971 0.43703 0.0061 0.0
C800 C 0.54082 0.40555 0.9949 0.0
C801 C 0.52715 0.4014 0.96731 0.0
C802 C 0.52 0.41534 0.95927 0.0
C803 C 0.52619 0.43289 0.97837 0.0
C804 C 0.49209 0.35415 0.91381 0.0
C805 C 0.5074 0.34876 0.90389 0.0
C806 C 0.4984 0.37081 0.93499 0.0
C807 C 0.52022 0.38264 0.94681 0.0
C808 C 0.53542 0.37691 0.93778 0.0
C809 C 0.5291 0.36019 0.91646 0.0
H810 H 0.07965 0.49987 0.41293 0.0
H811 H 0.02352 0.43948 0.38567 0.0
H812 H 0.10436 0.49219 0.38385 0.0
H813 H 0.04821 0.43162 0.35691 0.0
H814 H 0.09607 0.43551 0.27861 0.0
H815 H 0.07117 0.44217 0.30901 0.0
H816 H 0.11971 0.46998 0.38634 0.0
H817 H 0.14485 0.46348 0.35552 0.0
C818 C 0.07261 0.48488 0.40091 0.0
C819 C 0.04961 0.4703 0.40158 0.0
C820 C 0.08678 0.48044 0.38434 0.0
C821 C 0.07832 0.46125 0.36812 0.0
C822 C 0.05529 0.44669 0.36873 0.0
C823 C 0.0411 0.45119 0.38517 0.0
C824 C 0.10131 0.44272 0.30237 0.0
C825 C 0.1224 0.44883 0.31476 0.0
C826 C 0.08701 0.44657 0.3198 0.0
C827 C 0.09339 0.45661 0.35016 0.0
C828 C 0.11439 0.4625 0.3628 0.0
C829 C 0.12877 0.45871 0.34524 0.0
H830 H 0.57845 0.04488 0.00485 0.0
H831 H 0.56164 0.0369 0.90195 0.0
H832 H 0.61444 0.0768 0.99106 0.0
H833 H 0.59702 0.06836 0.88841 0.0
H834 H 0.65341 0.13286 0.87091 0.0
H835 H 0.61764 0.10721 0.89509 0.0
H836 H 0.64934 0.08445 0.96022 0.0
H837 H 0.68542 0.11062 0.93662 0.0
C838 C 0.58233 0.05004 0.97943 0.0
C839 C 0.56727 0.03832 0.95449 0.0
C840 C 0.6029 0.06822 0.97154 0.0
C841 C 0.60849 0.07518 0.93866 0.0
C842 C 0.59313 0.06366 0.914 0.0
C843 C 0.57288 0.04546 0.92178 0.0
C844 C 0.65294 0.12292 0.89112 0.0
C845 C 0.67233 0.1237 0.90156 0.0
C846 C 0.63236 0.10804 0.90475 0.0
C847 C 0.63062 0.09358 0.92919 0.0
C848 C 0.65014 0.09538 0.94144 0.0
C849 C 0.67078 0.11025 0.92771 0.0
H850 H 0.54262 0.57563 0.47213 0.0
H851 H 0.50387 0.59291 0.52932 0.0
H852 H 0.55626 0.60738 0.43844 0.0
H853 H 0.5183 0.62538 0.49612 0.0
H854 H 0.52908 0.66669 0.40133 0.0
H855 H 0.51565 0.63683 0.44002 0.0
H856 H 0.58065 0.64502 0.44156 0.0
H857 H 0.59373 0.67398 0.4019 0.0
C858 C 0.53697 0.58619 0.47755 0.0
C859 C 0.52199 0.58159 0.50335 0.0
C860 C 0.54506 0.60461 0.45847 0.0
C861 C 0.5385 0.61903 0.46468 0.0
C862 C 0.52359 0.61454 0.49057 0.0
C863 C 0.51548 0.59604 0.50978 0.0
C864 C 0.5405 0.66213 0.40997 0.0
C865 C 0.56247 0.67273 0.39828 0.0
C866 C 0.53286 0.64515 0.43242 0.0
C867 C 0.54701 0.63839 0.44363 0.0
C868 C 0.56919 0.64958 0.43301 0.0
C869 C 0.57679 0.66644 0.41058 0.0
H870 H 0.53028 0.09985 0.47482 0.0
H871 H 0.56028 0.09005 0.56076 0.0
H872 H 0.52084 0.1213 0.5066 0.0
H873 H 0.5497 0.11029 0.59279 0.0
H874 H 0.54245 0.15901 0.6412 0.0
H875 H 0.5565 0.14408 0.60335 0.0
H876 H 0.49565 0.11747 0.54791 0.0
H877 H 0.48223 0.13367 0.58445 0.0
C878 C 0.53496 0.10227 0.5004 0.0
C879 C 0.54592 0.09295 0.51513 0.0
C880 C 0.52931 0.11443 0.51877 0.0
C881 C 0.5344 0.11754 0.5524 0.0
C882 C 0.54574 0.10855 0.56691 0.0
C883 C 0.55151 0.09656 0.54854 0.0
C884 C 0.53228 0.1505 0.62043 0.0
C885 C 0.51107 0.14745 0.61618 0.0
C886 C 0.54022 0.1416 0.59895 0.0
C887 C 0.52709 0.12919 0.5728 0.0
C888 C 0.50632 0.12697 0.56763 0.0
C889 C 0.49846 0.13605 0.58893 0.0
H890 H 0.48884 0.51112 0.0262 0.0
H891 H 0.48266 0.46914 0.10613 0.0
H892 H 0.45113 0.50303 0.03767 0.0
H893 H 0.44571 0.4614 0.11765 0.0
H894 H 0.37522 0.43738 0.1214 0.0
H895 H 0.40864 0.44354 0.09529 0.0
H896 H 0.43163 0.50967 0.08242 0.0
H897 H 0.39729 0.50333 0.10693 0.0
C898 C 0.4794 0.50006 0.04593 0.0
C899 C 0.48875 0.49081 0.06528 0.0
C900 C 0.4579 0.49552 0.0526 0.0
C901 C 0.44534 0.48145 0.07842 0.0
C902 C 0.45468 0.47198 0.09718 0.0
C903 C 0.47603 0.47659 0.09073 0.0
C904 C 0.38689 0.45314 0.11202 0.0
C905 C 0.38349 0.4699 0.11676 0.0
C906 C 0.4063 0.45671 0.0974 0.0
C907 C 0.42304 0.47718 0.08744 0.0
C908 C 0.41908 0.49371 0.0899 0.0
C909 C 0.39949 0.49011 0.10436 0.0
H910 H 0.01004 0.47066 0.62988 0.0
H911 H 0.99134 0.4347 0.54112 0.0
H912 H 0.98705 0.43809 0.66187 0.0
H913 H 0.96856 0.40229 0.57309 0.0
H914 H 0.90916 0.35369 0.63745 0.0
H915 H 0.93359 0.3858 0.60513 0.0
H916 H 0.98469 0.40479 0.67844 0.0
H917 H 0.96021 0.37305 0.71094 0.0
C918 C 1.00126 0.45583 0.61722 0.0
C919 C 1.00254 0.45536 0.58291 0.0
C920 C 0.9881 0.43715 0.63556 0.0
C921 C 0.97584 0.4176 0.61998 0.0
C922 C 0.97752 0.4171 0.58578 0.0
C923 C 0.99075 0.43572 0.5675 0.0
C924 C 0.92562 0.36471 0.64659 0.0
C925 C 0.93277 0.36071 0.67663 0.0
C926 C 0.93967 0.38303 0.628 0.0
C927 C 0.9611 0.39785 0.63923 0.0
C928 C 0.96824 0.39379 0.66921 0.0
C929 C 0.95429 0.37545 0.68763 0.0
H930 H 0.50164 0.89973 0.00287 0.0
H931 H 0.5599 0.95916 0.02772 0.0
H932 H 0.51484 0.88095 0.03727 0.0
H933 H 0.57332 0.9405 0.06146 0.0
H934 H 0.59885 0.89758 0.09365 0.0
H935 H 0.5851 0.91235 0.05269 0.0
H936 H 0.52193 0.88209 0.10234 0.0
H937 H 0.53585 0.86817 0.14442 0.0
C938 C 0.51742 0.90869 0.01526 0.0
C939 C 0.52978 0.93084 0.01282 0.0
C940 C 0.52489 0.898 0.03499 0.0
C941 C 0.54509 0.90931 0.05187 0.0
C942 C 0.55777 0.93142 0.04848 0.0
C943 C 0.55007 0.94208 0.0294 0.0
C944 C 0.58204 0.89408 0.09603 0.0
C945 C 0.56862 0.88189 0.1228 0.0
C946 C 0.57415 0.90243 0.07238 0.0
C947 C 0.55252 0.89841 0.07451 0.0
C948 C 0.53863 0.88527 0.10004 0.0
C949 C 0.54663 0.87721 0.12407 0.0
H950 H 0.55956 0.49489 0.52888 0.0
H951 H 0.57458 0.54572 0.59367 0.0
H952 H 0.59498 0.49821 0.54357 0.0
H953 H 0.60929 0.54882 0.60849 0.0
H954 H 0.67627 0.56148 0.61847 0.0
H955 H 0.64548 0.55918 0.58841 0.0
H956 H 0.6111 0.49113 0.59322 0.0
H957 H 0.64269 0.49334 0.62179 0.0
C958 C 0.57054 0.50695 0.54579 0.0
C959 C 0.56426 0.52 0.56018 0.0
C960 C 0.59071 0.50875 0.55439 0.0
C961 C 0.60503 0.52383 0.57714 0.0
C962 C 0.59893 0.53727 0.59049 0.0
C963 C 0.57887 0.53537 0.58217 0.0
C964 C 0.66259 0.54596 0.61224 0.0
C965 C 0.66202 0.52758 0.62305 0.0
C966 C 0.64471 0.54467 0.5953 0.0
C967 C 0.6256 0.52498 0.58898 0.0
C968 C 0.62555 0.50656 0.5977 0.0
C969 C 0.64358 0.50785 0.61449 0.0
H970 H 0.13565 0.62334 0.02769 0.0
H971 H 0.07473 0.60831 0.07479 0.0
H972 H 0.15689 0.64612 0.07337 0.0
H973 H 0.09586 0.63127 0.12017 0.0
H974 H 0.14434 0.69091 0.1783 0.0
H975 H 0.12507 0.67147 0.12938 0.0
H976 H 0.15894 0.63747 0.13604 0.0
H977 H 0.17741 0.65596 0.18591 0.0
C978 C 0.12687 0.62522 0.04755 0.0
C979 C 0.10358 0.6141 0.04782 0.0
C980 C 0.13896 0.63809 0.07372 0.0
C981 C 0.12798 0.64042 0.10025 0.0
C982 C 0.10474 0.62985 0.09993 0.0
C983 C 0.09266 0.61667 0.07413 0.0
C984 C 0.14758 0.67915 0.16968 0.0
C985 C 0.16241 0.67499 0.18646 0.0
C986 C 0.13663 0.66815 0.14147 0.0
C987 C 0.14056 0.65302 0.12896 0.0
C988 C 0.15582 0.64926 0.14497 0.0
C989 C 0.16648 0.65997 0.17352 0.0
loop_
_geom_bond_atom_site_label_1
_geom_bond_atom_site_label_2
_geom_bond_distance
_geom_bond_site_symmetry_2
_ccdc_geom_bond_type
Cu0 N1 1.999 . S
Cu0 O6 1.974 . S
Cu0 N11 1.985 1_655 S
Cu0 O20 1.959 1_655 S
N1 Cu0 1.999 . S
N1 C3 1.263 . S
N1 C5 1.389 . S
N2 C3 1.358 . S
N2 C4 1.400 . S
C3 N1 1.263 . S
C3 N2 1.358 . S
C3 H9 0.930 1_554 S
C4 N2 1.400 . S
C4 C5 1.351 . S
C4 H21 0.930 . S
C5 N1 1.389 . S
C5 C4 1.351 . S
C5 H10 0.930 . S
O6 Cu0 1.974 . S
O6 C16 1.305 . S
C7 O8 1.261 . S
C7 O20 1.251 . S
O8 C7 1.261 . S
H9 C3 0.930 1_556 S
H10 C5 0.930 . S
N11 Cu0 1.985 1_455 S
N11 C13 1.335 . S
N11 C14 1.390 . S
N12 C13 1.345 . S
N12 C15 1.336 . S
C13 N11 1.335 . S
C13 N12 1.345 . S
C13 H18 0.930 . S
C14 N11 1.390 . S
C14 C15 1.346 . S
C14 H19 0.930 . S
C15 N12 1.336 . S
C15 C14 1.346 . S
C15 H22 0.929 . S
C16 O6 1.305 . S
C16 O17 1.202 1_554 S
O17 C16 1.202 1_556 S
H18 C13 0.930 . S
H19 C14 0.930 . S
O20 Cu0 1.959 1_455 S
O20 C7 1.251 . S
H21 C4 0.930 . S
H22 C15 0.929 . S
Cu23 N24 1.999 . S
Cu23 O29 1.974 . S
Cu23 N34 1.985 1_565 S
Cu23 O43 1.959 1_565 S
N24 Cu23 1.999 . S
N24 C26 1.263 . S
N24 C28 1.389 . S
N25 C26 1.358 . S
N25 C27 1.400 . S
C26 N24 1.263 . S
C26 N25 1.358 . S
C26 H32 0.930 . S
C27 N25 1.400 . S
C27 C28 1.351 . S
C27 H44 0.930 . S
C28 N24 1.389 . S
C28 C27 1.351 . S
C28 H33 0.930 . S
O29 Cu23 1.974 . S
O29 C39 1.282 . S
C30 O31 1.261 . S
C30 O43 1.251 . S
O31 C30 1.261 . S
H32 C26 0.930 . S
H33 C28 0.930 . S
N34 Cu23 1.985 1_545 S
N34 C36 1.335 . S
N34 C37 1.390 . S
N35 C36 1.345 . S
N35 C38 1.336 . S
C36 N34 1.335 . S
C36 N35 1.345 . S
C36 H41 0.930 . S
C37 N34 1.390 . S
C37 C38 1.346 . S
C37 H42 0.930 . S
C38 N35 1.336 . S
C38 C37 1.346 . S
C38 H45 0.929 . S
C39 O29 1.282 . S
C39 O40 1.216 . S
O40 C39 1.216 . S
H41 C36 0.930 . S
H42 C37 0.930 . S
O43 Cu23 1.959 1_545 S
O43 C30 1.251 . S
H44 C27 0.930 . S
H45 C38 0.929 . S
Cu46 N47 1.999 . S
Cu46 O52 1.974 . S
Cu46 N57 1.985 1_556 S
Cu46 O66 1.959 1_556 S
N47 Cu46 1.999 . S
N47 C49 1.263 . S
N47 C51 1.389 . S
N48 C49 1.358 . S
N48 C50 1.400 . S
C49 N47 1.263 . S
C49 N48 1.358 . S
C49 H55 0.930 . S
C50 N48 1.400 . S
C50 C51 1.351 . S
C50 H67 0.930 . S
C51 N47 1.389 . S
C51 C50 1.351 . S
C51 H56 0.930 . S
O52 Cu46 1.974 . S
O52 C62 1.282 . S
C53 O54 1.261 . S
C53 O66 1.251 . S
O54 C53 1.261 . S
H55 C49 0.930 . S
H56 C51 0.930 . S
N57 Cu46 1.985 1_554 S
N57 C59 1.335 . S
N57 C60 1.390 . S
N58 C59 1.345 . S
N58 C61 1.336 . S
C59 N57 1.335 . S
C59 N58 1.345 . S
C59 H64 0.930 . S
C60 N57 1.390 . S
C60 C61 1.346 . S
C60 H65 0.930 . S
C61 N58 1.336 . S
C61 C60 1.346 . S
C61 H68 0.929 . S
C62 O52 1.282 . S
C62 O63 1.216 1_556 S
O63 C62 1.216 1_554 S
H64 C59 0.930 . S
H65 C60 0.930 . S
O66 Cu46 1.959 1_554 S
O66 C53 1.251 . S
H67 C50 0.930 . S
H68 C61 0.929 . S
Cu69 N70 1.999 . S
Cu69 O75 1.974 . S
Cu69 N80 1.985 . S
Cu69 O89 1.959 . S
N70 Cu69 1.999 . S
N70 C72 1.263 . S
N70 C74 1.389 . S
N71 C72 1.358 . S
N71 C73 1.400 . S
C72 N70 1.263 . S
C72 N71 1.358 . S
C72 H78 0.930 . S
C73 N71 1.400 . S
C73 C74 1.351 . S
C73 H90 0.930 . S
C74 N70 1.389 . S
C74 C73 1.351 . S
C74 H79 0.930 . S
O75 Cu69 1.974 . S
O75 C85 1.282 . S
C76 O77 1.261 . S
C76 O89 1.251 . S
O77 C76 1.261 . S
H78 C72 0.930 . S
H79 C74 0.930 . S
N80 Cu69 1.985 . S
N80 C82 1.335 . S
N80 C83 1.390 . S
N81 C82 1.345 . S
N81 C84 1.336 . S
C82 N80 1.335 . S
C82 N81 1.345 . S
C82 H87 0.930 . S
C83 N80 1.390 . S
C83 C84 1.346 . S
C83 H88 0.930 . S
C84 N81 1.336 . S
C84 C83 1.346 . S
C84 H91 0.929 . S
C85 O75 1.282 . S
C85 O86 1.216 . S
O86 C85 1.216 . S
H87 C82 0.930 . S
H88 C83 0.930 . S
O89 Cu69 1.959 . S
O89 C76 1.251 . S
H90 C73 0.930 . S
H91 C84 0.929 . S
Cu92 N93 1.999 . S
Cu92 O98 1.974 1_554 S
Cu92 N103 1.985 1_545 S
Cu92 O112 1.959 1_545 S
N93 Cu92 1.999 . S
N93 C95 1.263 1_554 S
N93 C97 1.389 . S
N94 C95 1.358 . S
N94 C96 1.400 1_556 S
C95 N93 1.263 1_556 S
C95 N94 1.358 . S
C95 H101 0.930 . S
C96 N94 1.400 1_554 S
C96 C97 1.351 . S
C96 H113 0.930 . S
C97 N93 1.389 . S
C97 C96 1.351 . S
C97 H102 0.930 . S
O98 Cu92 1.974 1_556 S
O98 C108 1.282 . S
C99 O100 1.265 . S
C99 O112 1.251 . S
O100 C99 1.265 . S
H101 C95 0.930 . S
H102 C97 0.930 . S
N103 Cu92 1.985 1_565 S
N103 C105 1.335 . S
N103 C106 1.390 . S
N104 C105 1.345 . S
N104 C107 1.336 . S
C105 N103 1.335 . S
C105 N104 1.345 . S
C105 H110 0.930 . S
C106 N103 1.390 . S
C106 C107 1.346 . S
C106 H111 0.930 1_564 S
C107 N104 1.336 . S
C107 C106 1.346 . S
C107 H114 0.929 . S
C108 O98 1.282 . S
C108 O109 1.216 . S
O109 C108 1.216 . S
H110 C105 0.930 . S
H111 C106 0.930 1_546 S
O112 Cu92 1.959 1_565 S
O112 C99 1.251 . S
H113 C96 0.930 . S
H114 C107 0.929 . S
Cu115 N116 1.999 . S
Cu115 O121 1.974 . S
Cu115 N126 1.985 . S
Cu115 O135 1.959 . S
N116 Cu115 1.999 . S
N116 C118 1.263 . S
N116 C120 1.389 . S
N117 C118 1.358 . S
N117 C119 1.400 . S
C118 N116 1.263 . S
C118 N117 1.358 . S
C118 H124 0.930 . S
C119 N117 1.400 . S
C119 C120 1.351 . S
C119 H136 0.930 . S
C120 N116 1.389 . S
C120 C119 1.351 . S
C120 H125 0.930 . S
O121 Cu115 1.974 . S
O121 C131 1.282 . S
C122 O123 1.261 . S
C122 O135 1.251 . S
O123 C122 1.261 . S
H124 C118 0.930 . S
H125 C120 0.930 . S
N126 Cu115 1.985 . S
N126 C128 1.335 . S
N126 C129 1.390 . S
N127 C128 1.345 . S
N127 C130 1.336 . S
C128 N126 1.335 . S
C128 N127 1.345 . S
C128 H133 0.930 . S
C129 N126 1.390 . S
C129 C130 1.346 . S
C129 H134 0.930 . S
C130 N127 1.336 . S
C130 C129 1.346 . S
C130 H137 0.929 . S
C131 O121 1.282 . S
C131 O132 1.216 . S
O132 C131 1.216 . S
H133 C128 0.930 . S
H134 C129 0.930 . S
O135 Cu115 1.959 . S
O135 C122 1.251 . S
H136 C119 0.930 . S
H137 C130 0.929 . S
H138 C165 0.929 . S
N139 C164 1.433 . S
N139 C170 1.435 . S
N139 C176 1.423 . S
H140 C166 0.930 . S
H141 C169 0.931 . S
H142 C168 0.929 . S
H143 C171 0.930 . S
H144 C172 0.932 . S
H145 C175 0.929 . S
H146 C174 0.931 . S
H147 C177 0.929 . S
H148 C181 0.932 . S
H149 C178 0.931 . S
H150 C180 0.929 . S
H151 C183 0.929 . S
H152 C184 0.930 . S
H153 C186 0.929 . S
H154 C187 0.931 . S
H155 C189 0.930 . S
H156 C190 0.932 . S
H157 C192 0.931 . S
H158 C193 0.929 . S
H159 C195 0.929 . S
H160 C196 0.931 . S
H161 C198 0.929 . S
N162 C182 1.433 . S
N162 C188 1.435 . S
N162 C194 1.423 . S
H163 C199 0.932 . S
C164 N139 1.433 . S
C164 C165 1.363 . S
C164 C169 1.370 . S
C165 H138 0.929 . S
C165 C164 1.363 . S
C165 C166 1.385 . S
C166 H140 0.930 . S
C166 C165 1.385 . S
C166 C167 1.357 . S
C167 C166 1.357 . S
C167 C168 1.406 . S
C168 H142 0.929 . S
C168 C167 1.406 . S
C168 C169 1.391 . S
C169 H141 0.931 . S
C169 C164 1.370 . S
C169 C168 1.391 . S
C170 N139 1.435 . S
C170 C171 1.358 . S
C170 C175 1.371 . S
C171 H143 0.930 . S
C171 C170 1.358 . S
C171 C172 1.405 . S
C172 H144 0.932 . S
C172 C171 1.405 . S
C172 C173 1.383 . S
C173 C172 1.383 . S
C173 C174 1.393 . S
C174 H146 0.931 . S
C174 C173 1.393 . S
C174 C175 1.382 . S
C175 H145 0.929 . S
C175 C170 1.371 . S
C175 C174 1.382 . S
C176 N139 1.423 . S
C176 C177 1.362 . S
C176 C181 1.388 . S
C177 H147 0.929 . S
C177 C176 1.362 . S
C177 C178 1.376 . S
C178 H149 0.931 . S
C178 C177 1.376 . S
C178 C179 1.396 . S
C179 C178 1.396 . S
C179 C180 1.348 . S
C179 C197 1.472 . S
C180 H150 0.929 . S
C180 C179 1.348 . S
C180 C181 1.443 . S
C181 H148 0.932 . S
C181 C176 1.388 . S
C181 C180 1.443 . S
C182 N162 1.433 . S
C182 C183 1.363 . S
C182 C187 1.370 . S
C183 H151 0.929 . S
C183 C182 1.363 . S
C183 C184 1.385 . S
C184 H152 0.930 . S
C184 C183 1.385 . S
C184 C185 1.357 . S
C185 C184 1.357 . S
C185 C186 1.406 . S
C186 H153 0.929 . S
C186 C185 1.406 . S
C186 C187 1.391 . S
C187 H154 0.931 . S
C187 C182 1.370 . S
C187 C186 1.391 . S
C188 N162 1.435 . S
C188 C189 1.358 . S
C188 C193 1.371 . S
C189 H155 0.930 . S
C189 C188 1.358 . S
C189 C190 1.405 . S
C190 H156 0.932 . S
C190 C189 1.405 . S
C190 C191 1.383 . S
C191 C190 1.383 . S
C191 C192 1.393 . S
C192 H157 0.931 . S
C192 C191 1.393 . S
C192 C193 1.382 . S
C193 H158 0.929 . S
C193 C188 1.371 . S
C193 C192 1.382 . S
C194 N162 1.423 . S
C194 C195 1.362 . S
C194 C199 1.388 . S
C195 H159 0.929 . S
C195 C194 1.362 . S
C195 C196 1.376 . S
C196 H160 0.931 . S
C196 C195 1.376 . S
C196 C197 1.396 . S
C197 C179 1.472 . S
C197 C196 1.396 . S
C197 C198 1.348 . S
C198 H161 0.929 . S
C198 C197 1.348 . S
C198 C199 1.443 . S
C199 H163 0.932 . S
C199 C194 1.388 . S
C199 C198 1.443 . S
H200 C227 0.929 . S
N201 C226 1.433 . S
N201 C232 1.435 . S
N201 C238 1.423 . S
H202 C228 0.930 . S
H203 C231 0.931 . S
H204 C230 0.929 . S
H205 C233 0.930 . S
H206 C234 0.932 . S
H207 C237 0.929 . S
H208 C236 0.931 . S
H209 C239 0.929 . S
H210 C243 0.932 . S
H211 C240 0.931 . S
H212 C242 0.929 . S
H213 C245 0.929 . S
H214 C246 0.930 . S
H215 C248 0.929 . S
H216 C249 0.931 . S
H217 C251 0.930 . S
H218 C252 0.932 . S
H219 C254 0.931 . S
H220 C255 0.929 . S
H221 C257 0.929 . S
H222 C258 0.931 . S
H223 C260 0.929 . S
N224 C244 1.433 . S
N224 C250 1.435 . S
N224 C256 1.423 . S
H225 C261 0.932 . S
C226 N201 1.433 . S
C226 C227 1.363 . S
C226 C231 1.370 . S
C227 H200 0.929 . S
C227 C226 1.363 . S
C227 C228 1.385 . S
C228 H202 0.930 . S
C228 C227 1.385 . S
C228 C229 1.357 . S
C229 C228 1.357 . S
C229 C230 1.406 . S
C230 H204 0.929 . S
C230 C229 1.406 . S
C230 C231 1.391 . S
C231 H203 0.931 . S
C231 C226 1.370 . S
C231 C230 1.391 . S
C232 N201 1.435 . S
C232 C233 1.358 . S
C232 C237 1.371 . S
C233 H205 0.930 . S
C233 C232 1.358 . S
C233 C234 1.405 . S
C234 H206 0.932 . S
C234 C233 1.405 . S
C234 C235 1.383 . S
C235 C234 1.383 . S
C235 C236 1.393 . S
C236 H208 0.931 . S
C236 C235 1.393 . S
C236 C237 1.382 . S
C237 H207 0.929 . S
C237 C232 1.371 . S
C237 C236 1.382 . S
C238 N201 1.423 . S
C238 C239 1.362 . S
C238 C243 1.388 . S
C239 H209 0.929 . S
C239 C238 1.362 . S
C239 C240 1.376 . S
C240 H211 0.931 . S
C240 C239 1.376 . S
C240 C241 1.396 . S
C241 C240 1.396 . S
C241 C242 1.348 . S
C241 C259 1.472 . S
C242 H212 0.929 . S
C242 C241 1.348 . S
C242 C243 1.443 . S
C243 H210 0.932 . S
C243 C238 1.388 . S
C243 C242 1.443 . S
C244 N224 1.433 . S
C244 C245 1.363 . S
C244 C249 1.370 . S
C245 H213 0.929 . S
C245 C244 1.363 . S
C245 C246 1.385 . S
C246 H214 0.930 . S
C246 C245 1.385 . S
C246 C247 1.357 . S
C247 C246 1.357 . S
C247 C248 1.406 . S
C248 H215 0.929 . S
C248 C247 1.406 . S
C248 C249 1.391 . S
C249 H216 0.931 . S
C249 C244 1.370 . S
C249 C248 1.391 . S
C250 N224 1.435 . S
C250 C251 1.358 . S
C250 C255 1.371 . S
C251 H217 0.930 . S
C251 C250 1.358 . S
C251 C252 1.405 . S
C252 H218 0.932 . S
C252 C251 1.405 . S
C252 C253 1.383 . S
C253 C252 1.383 . S
C253 C254 1.393 . S
C254 H219 0.931 . S
C254 C253 1.393 . S
C254 C255 1.382 . S
C255 H220 0.929 . S
C255 C250 1.371 . S
C255 C254 1.382 . S
C256 N224 1.423 . S
C256 C257 1.362 . S
C256 C261 1.388 . S
C257 H221 0.929 . S
C257 C256 1.362 . S
C257 C258 1.376 . S
C258 H222 0.931 . S
C258 C257 1.376 . S
C258 C259 1.396 . S
C259 C241 1.472 . S
C259 C258 1.396 . S
C259 C260 1.348 . S
C260 H223 0.929 . S
C260 C259 1.348 . S
C260 C261 1.443 . S
C261 H225 0.932 . S
C261 C256 1.388 . S
C261 C260 1.443 . S
H262 C289 0.929 . S
N263 C288 1.433 . S
N263 C294 1.435 . S
N263 C300 1.423 . S
H264 C290 0.930 . S
H265 C293 0.931 . S
H266 C292 0.929 . S
H267 C295 0.930 . S
H268 C296 0.932 . S
H269 C299 0.929 . S
H270 C298 0.931 . S
H271 C301 0.929 . S
H272 C305 0.932 . S
H273 C302 0.931 . S
H274 C304 0.929 . S
H275 C307 0.929 . S
H276 C308 0.930 . S
H277 C310 0.929 . S
H278 C311 0.931 . S
H279 C313 0.930 . S
H280 C314 0.932 . S
H281 C316 0.931 . S
H282 C317 0.929 . S
H283 C319 0.929 . S
H284 C320 0.931 . S
H285 C322 0.929 . S
N286 C306 1.433 . S
N286 C312 1.435 . S
N286 C318 1.423 . S
H287 C323 0.932 . S
C288 N263 1.433 . S
C288 C289 1.363 . S
C288 C293 1.370 . S
C289 H262 0.929 . S
C289 C288 1.363 . S
C289 C290 1.385 . S
C290 H264 0.930 . S
C290 C289 1.385 . S
C290 C291 1.357 . S
C291 C290 1.357 . S
C291 C292 1.406 . S
C292 H266 0.929 . S
C292 C291 1.406 . S
C292 C293 1.391 . S
C293 H265 0.931 . S
C293 C288 1.370 . S
C293 C292 1.391 . S
C294 N263 1.435 . S
C294 C295 1.358 . S
C294 C299 1.371 . S
C295 H267 0.930 . S
C295 C294 1.358 . S
C295 C296 1.405 . S
C296 H268 0.932 . S
C296 C295 1.405 . S
C296 C297 1.383 . S
C297 C296 1.383 . S
C297 C298 1.393 . S
C298 H270 0.931 . S
C298 C297 1.393 . S
C298 C299 1.382 . S
C299 H269 0.929 . S
C299 C294 1.371 . S
C299 C298 1.382 . S
C300 N263 1.423 . S
C300 C301 1.362 . S
C300 C305 1.388 . S
C301 H271 0.929 . S
C301 C300 1.362 . S
C301 C302 1.376 . S
C302 H273 0.931 . S
C302 C301 1.376 . S
C302 C303 1.396 . S
C303 C302 1.396 . S
C303 C304 1.348 . S
C303 C321 1.472 . S
C304 H274 0.929 . S
C304 C303 1.348 . S
C304 C305 1.443 . S
C305 H272 0.932 . S
C305 C300 1.388 . S
C305 C304 1.443 . S
C306 N286 1.433 . S
C306 C307 1.363 . S
C306 C311 1.370 . S
C307 H275 0.929 . S
C307 C306 1.363 . S
C307 C308 1.385 . S
C308 H276 0.930 . S
C308 C307 1.385 . S
C308 C309 1.357 . S
C309 C308 1.357 . S
C309 C310 1.406 . S
C310 H277 0.929 . S
C310 C309 1.406 . S
C310 C311 1.391 . S
C311 H278 0.931 . S
C311 C306 1.370 . S
C311 C310 1.391 . S
C312 N286 1.435 . S
C312 C313 1.358 . S
C312 C317 1.371 . S
C313 H279 0.930 . S
C313 C312 1.358 . S
C313 C314 1.405 . S
C314 H280 0.932 . S
C314 C313 1.405 . S
C314 C315 1.383 . S
C315 C314 1.383 . S
C315 C316 1.393 . S
C316 H281 0.931 . S
C316 C315 1.393 . S
C316 C317 1.382 . S
C317 H282 0.929 . S
C317 C312 1.371 . S
C317 C316 1.382 . S
C318 N286 1.423 . S
C318 C319 1.362 . S
C318 C323 1.388 . S
C319 H283 0.929 . S
C319 C318 1.362 . S
C319 C320 1.376 . S
C320 H284 0.931 . S
C320 C319 1.376 . S
C320 C321 1.396 . S
C321 C303 1.472 . S
C321 C320 1.396 . S
C321 C322 1.348 . S
C322 H285 0.929 . S
C322 C321 1.348 . S
C322 C323 1.443 . S
C323 H287 0.932 . S
C323 C318 1.388 . S
C323 C322 1.443 . S
H324 C351 0.929 . S
N325 C350 1.433 . S
N325 C356 1.435 . S
N325 C362 1.423 . S
H326 C352 0.930 . S
H327 C355 0.931 . S
H328 C354 0.929 . S
H329 C357 0.930 . S
H330 C358 0.932 . S
H331 C361 0.929 . S
H332 C360 0.931 . S
H333 C363 0.929 . S
H334 C367 0.932 . S
H335 C364 0.931 . S
H336 C366 0.929 . S
H337 C369 0.929 . S
H338 C370 0.930 . S
H339 C372 0.929 . S
H340 C373 0.931 . S
H341 C375 0.930 . S
H342 C376 0.932 . S
H343 C378 0.931 . S
H344 C379 0.929 . S
H345 C381 0.929 . S
H346 C382 0.931 . S
H347 C384 0.929 . S
N348 C368 1.433 . S
N348 C374 1.435 . S
N348 C380 1.423 . S
H349 C385 0.932 . S
C350 N325 1.433 . S
C350 C351 1.363 . S
C350 C355 1.370 . S
C351 H324 0.929 . S
C351 C350 1.363 . S
C351 C352 1.385 . S
C352 H326 0.930 . S
C352 C351 1.385 . S
C352 C353 1.357 . S
C353 C352 1.357 . S
C353 C354 1.406 . S
C354 H328 0.929 . S
C354 C353 1.406 . S
C354 C355 1.391 . S
C355 H327 0.931 . S
C355 C350 1.370 . S
C355 C354 1.391 . S
C356 N325 1.435 . S
C356 C357 1.358 . S
C356 C361 1.371 . S
C357 H329 0.930 . S
C357 C356 1.358 . S
C357 C358 1.405 . S
C358 H330 0.932 . S
C358 C357 1.405 . S
C358 C359 1.383 . S
C359 C358 1.383 . S
C359 C360 1.393 . S
C360 H332 0.931 . S
C360 C359 1.393 . S
C360 C361 1.382 . S
C361 H331 0.929 . S
C361 C356 1.371 . S
C361 C360 1.382 . S
C362 N325 1.423 . S
C362 C363 1.362 . S
C362 C367 1.388 . S
C363 H333 0.929 . S
C363 C362 1.362 . S
C363 C364 1.376 . S
C364 H335 0.931 . S
C364 C363 1.376 . S
C364 C365 1.396 . S
C365 C364 1.396 . S
C365 C366 1.348 . S
C365 C383 1.472 . S
C366 H336 0.929 . S
C366 C365 1.348 . S
C366 C367 1.443 . S
C367 H334 0.932 . S
C367 C362 1.388 . S
C367 C366 1.443 . S
C368 N348 1.433 . S
C368 C369 1.363 . S
C368 C373 1.370 . S
C369 H337 0.929 . S
C369 C368 1.363 . S
C369 C370 1.385 . S
C370 H338 0.930 . S
C370 C369 1.385 . S
C370 C371 1.357 . S
C371 C370 1.357 . S
C371 C372 1.406 . S
C372 H339 0.929 . S
C372 C371 1.406 . S
C372 C373 1.391 . S
C373 H340 0.931 . S
C373 C368 1.370 . S
C373 C372 1.391 . S
C374 N348 1.435 . S
C374 C375 1.358 . S
C374 C379 1.371 . S
C375 H341 0.930 . S
C375 C374 1.358 . S
C375 C376 1.405 . S
C376 H342 0.932 . S
C376 C375 1.405 . S
C376 C377 1.383 . S
C377 C376 1.383 . S
C377 C378 1.393 . S
C378 H343 0.931 . S
C378 C377 1.393 . S
C378 C379 1.382 . S
C379 H344 0.929 . S
C379 C374 1.371 . S
C379 C378 1.382 . S
C380 N348 1.423 . S
C380 C381 1.362 . S
C380 C385 1.388 . S
C381 H345 0.929 . S
C381 C380 1.362 . S
C381 C382 1.376 . S
C382 H346 0.931 . S
C382 C381 1.376 . S
C382 C383 1.396 . S
C383 C365 1.472 . S
C383 C382 1.396 . S
C383 C384 1.348 . S
C384 H347 0.929 . S
C384 C383 1.348 . S
C384 C385 1.443 . S
C385 H349 0.932 . S
C385 C380 1.388 . S
C385 C384 1.443 . S
H386 C413 0.929 . S
N387 C412 1.433 . S
N387 C418 1.435 . S
N387 C424 1.423 . S
H388 C414 0.930 . S
H389 C417 0.931 . S
H390 C416 0.929 . S
H391 C419 0.930 . S
H392 C420 0.932 . S
H393 C423 0.929 . S
H394 C422 0.931 . S
H395 C425 0.929 . S
H396 C429 0.932 . S
H397 C426 0.931 . S
H398 C428 0.929 . S
H399 C431 0.929 . S
H400 C432 0.930 . S
H401 C434 0.929 . S
H402 C435 0.931 . S
H403 C437 0.930 . S
H404 C438 0.932 . S
H405 C440 0.931 . S
H406 C441 0.929 . S
H407 C443 0.929 . S
H408 C444 0.931 . S
H409 C446 0.929 . S
N410 C430 1.433 . S
N410 C436 1.435 . S
N410 C442 1.423 . S
H411 C447 0.932 . S
C412 N387 1.433 . S
C412 C413 1.363 . S
C412 C417 1.370 . S
C413 H386 0.929 . S
C413 C412 1.363 . S
C413 C414 1.385 . S
C414 H388 0.930 . S
C414 C413 1.385 . S
C414 C415 1.357 . S
C415 C414 1.357 . S
C415 C416 1.406 . S
C416 H390 0.929 . S
C416 C415 1.406 . S
C416 C417 1.391 . S
C417 H389 0.931 . S
C417 C412 1.370 . S
C417 C416 1.391 . S
C418 N387 1.435 . S
C418 C419 1.358 . S
C418 C423 1.371 . S
C419 H391 0.930 . S
C419 C418 1.358 . S
C419 C420 1.405 . S
C420 H392 0.932 . S
C420 C419 1.405 . S
C420 C421 1.383 . S
C421 C420 1.383 . S
C421 C422 1.393 . S
C422 H394 0.931 . S
C422 C421 1.393 . S
C422 C423 1.382 . S
C423 H393 0.929 . S
C423 C418 1.371 . S
C423 C422 1.382 . S
C424 N387 1.423 . S
C424 C425 1.362 . S
C424 C429 1.388 . S
C425 H395 0.929 . S
C425 C424 1.362 . S
C425 C426 1.376 . S
C426 H397 0.931 . S
C426 C425 1.376 . S
C426 C427 1.396 . S
C427 C426 1.396 . S
C427 C428 1.348 . S
C427 C445 1.472 . S
C428 H398 0.929 . S
C428 C427 1.348 . S
C428 C429 1.443 . S
C429 H396 0.932 . S
C429 C424 1.388 . S
C429 C428 1.443 . S
C430 N410 1.433 . S
C430 C431 1.363 . S
C430 C435 1.370 . S
C431 H399 0.929 . S
C431 C430 1.363 . S
C431 C432 1.385 . S
C432 H400 0.930 . S
C432 C431 1.385 . S
C432 C433 1.357 . S
C433 C432 1.357 . S
C433 C434 1.406 . S
C434 H401 0.929 . S
C434 C433 1.406 . S
C434 C435 1.391 . S
C435 H402 0.931 . S
C435 C430 1.370 . S
C435 C434 1.391 . S
C436 N410 1.435 . S
C436 C437 1.358 . S
C436 C441 1.371 . S
C437 H403 0.930 . S
C437 C436 1.358 . S
C437 C438 1.405 . S
C438 H404 0.932 . S
C438 C437 1.405 . S
C438 C439 1.383 . S
C439 C438 1.383 . S
C439 C440 1.393 . S
C440 H405 0.931 . S
C440 C439 1.393 . S
C440 C441 1.382 . S
C441 H406 0.929 . S
C441 C436 1.371 . S
C441 C440 1.382 . S
C442 N410 1.423 . S
C442 C443 1.362 . S
C442 C447 1.388 . S
C443 H407 0.929 . S
C443 C442 1.362 . S
C443 C444 1.376 . S
C444 H408 0.931 . S
C444 C443 1.376 . S
C444 C445 1.396 . S
C445 C427 1.472 . S
C445 C444 1.396 . S
C445 C446 1.348 . S
C446 H409 0.929 . S
C446 C445 1.348 . S
C446 C447 1.443 . S
C447 H411 0.932 . S
C447 C442 1.388 . S
C447 C446 1.443 . S
H448 C475 0.929 . S
N449 C474 1.433 . S
N449 C480 1.435 . S
N449 C486 1.423 . S
H450 C476 0.930 . S
H451 C479 0.931 . S
H452 C478 0.929 . S
H453 C481 0.930 . S
H454 C482 0.932 . S
H455 C485 0.929 . S
H456 C484 0.931 . S
H457 C487 0.929 . S
H458 C491 0.932 . S
H459 C488 0.931 . S
H460 C490 0.929 . S
H461 C493 0.929 . S
H462 C494 0.930 . S
H463 C496 0.929 . S
H464 C497 0.931 . S
H465 C499 0.930 . S
H466 C500 0.932 . S
H467 C502 0.931 . S
H468 C503 0.929 . S
H469 C505 0.929 . S
H470 C506 0.931 . S
H471 C508 0.929 . S
N472 C492 1.433 . S
N472 C498 1.435 . S
N472 C504 1.423 . S
H473 C509 0.932 . S
C474 N449 1.433 . S
C474 C475 1.363 . S
C474 C479 1.370 . S
C475 H448 0.929 . S
C475 C474 1.363 . S
C475 C476 1.385 . S
C476 H450 0.930 . S
C476 C475 1.385 . S
C476 C477 1.357 . S
C477 C476 1.357 . S
C477 C478 1.406 . S
C478 H452 0.929 . S
C478 C477 1.406 . S
C478 C479 1.391 . S
C479 H451 0.931 . S
C479 C474 1.370 . S
C479 C478 1.391 . S
C480 N449 1.435 . S
C480 C481 1.358 . S
C480 C485 1.371 . S
C481 H453 0.930 . S
C481 C480 1.358 . S
C481 C482 1.405 . S
C482 H454 0.932 . S
C482 C481 1.405 . S
C482 C483 1.383 . S
C483 C482 1.383 . S
C483 C484 1.393 . S
C484 H456 0.931 . S
C484 C483 1.393 . S
C484 C485 1.382 . S
C485 H455 0.929 . S
C485 C480 1.371 . S
C485 C484 1.382 . S
C486 N449 1.423 . S
C486 C487 1.362 . S
C486 C491 1.388 . S
C487 H457 0.929 . S
C487 C486 1.362 . S
C487 C488 1.376 . S
C488 H459 0.931 . S
C488 C487 1.376 . S
C488 C489 1.396 . S
C489 C488 1.396 . S
C489 C490 1.348 . S
C489 C507 1.472 . S
C490 H460 0.929 . S
C490 C489 1.348 . S
C490 C491 1.443 . S
C491 H458 0.932 . S
C491 C486 1.388 . S
C491 C490 1.443 . S
C492 N472 1.433 . S
C492 C493 1.363 . S
C492 C497 1.370 . S
C493 H461 0.929 . S
C493 C492 1.363 . S
C493 C494 1.385 . S
C494 H462 0.930 . S
C494 C493 1.385 . S
C494 C495 1.357 . S
C495 C494 1.357 . S
C495 C496 1.406 . S
C496 H463 0.929 . S
C496 C495 1.406 . S
C496 C497 1.391 . S
C497 H464 0.931 . S
C497 C492 1.370 . S
C497 C496 1.391 . S
C498 N472 1.435 . S
C498 C499 1.358 . S
C498 C503 1.371 . S
C499 H465 0.930 . S
C499 C498 1.358 . S
C499 C500 1.405 . S
C500 H466 0.932 . S
C500 C499 1.405 . S
C500 C501 1.383 . S
C501 C500 1.383 . S
C501 C502 1.393 . S
C502 H467 0.931 . S
C502 C501 1.393 . S
C502 C503 1.382 . S
C503 H468 0.929 . S
C503 C498 1.371 . S
C503 C502 1.382 . S
C504 N472 1.423 . S
C504 C505 1.362 . S
C504 C509 1.388 . S
C505 H469 0.929 . S
C505 C504 1.362 . S
C505 C506 1.376 . S
C506 H470 0.931 . S
C506 C505 1.376 . S
C506 C507 1.396 . S
C507 C489 1.472 . S
C507 C506 1.396 . S
C507 C508 1.348 . S
C508 H471 0.929 . S
C508 C507 1.348 . S
C508 C509 1.443 . S
C509 H473 0.932 . S
C509 C504 1.388 . S
C509 C508 1.443 . S
H510 C518 0.950 . S
H511 C523 0.950 . S
H512 C520 0.950 . S
H513 C522 0.950 . S
H514 C524 0.950 . S
H515 C526 0.950 . S
H516 C528 0.950 . S
H517 C529 0.950 . S
C518 H510 0.950 . S
C518 C519 1.386 . S
C518 C520 1.391 . S
C519 C518 1.386 . S
C519 C523 1.393 . S
C520 H512 0.950 . S
C520 C518 1.391 . S
C520 C521 1.400 . S
C521 C520 1.400 . S
C521 C522 1.398 . S
C521 C527 1.491 . S
C522 H513 0.950 . S
C522 C521 1.398 . S
C522 C523 1.391 . S
C523 H511 0.950 . S
C523 C519 1.393 . S
C523 C522 1.391 . S
C524 H514 0.950 . S
C524 C525 1.386 . S
C524 C526 1.391 . S
C525 C524 1.386 . S
C525 C529 1.393 . S
C526 H515 0.950 . S
C526 C524 1.391 . S
C526 C527 1.400 . S
C527 C521 1.491 . S
C527 C526 1.400 . S
C527 C528 1.398 . S
C528 H516 0.950 . S
C528 C527 1.398 . S
C528 C529 1.391 . S
C529 H517 0.950 . S
C529 C525 1.393 . S
C529 C528 1.391 . S
H530 C538 0.950 . S
H531 C543 0.950 . S
H532 C540 0.950 . S
H533 C542 0.950 . S
H534 C544 0.950 . S
H535 C546 0.950 . S
H536 C548 0.950 . S
H537 C549 0.950 . S
C538 H530 0.950 . S
C538 C539 1.386 . S
C538 C540 1.391 . S
C539 C538 1.386 . S
C539 C543 1.393 . S
C540 H532 0.950 . S
C540 C538 1.391 . S
C540 C541 1.400 . S
C541 C540 1.400 . S
C541 C542 1.398 . S
C541 C547 1.491 . S
C542 H533 0.950 . S
C542 C541 1.398 . S
C542 C543 1.391 . S
C543 H531 0.950 . S
C543 C539 1.393 . S
C543 C542 1.391 . S
C544 H534 0.950 . S
C544 C545 1.386 . S
C544 C546 1.391 . S
C545 C544 1.386 . S
C545 C549 1.393 . S
C546 H535 0.950 . S
C546 C544 1.391 . S
C546 C547 1.400 . S
C547 C541 1.491 . S
C547 C546 1.400 . S
C547 C548 1.398 . S
C548 H536 0.950 . S
C548 C547 1.398 . S
C548 C549 1.391 . S
C549 H537 0.950 . S
C549 C545 1.393 . S
C549 C548 1.391 . S
H550 C558 0.950 . S
H551 C563 0.950 . S
H552 C560 0.950 . S
H553 C562 0.950 . S
H554 C564 0.950 . S
H555 C566 0.950 . S
H556 C568 0.950 . S
H557 C569 0.950 . S
C558 H550 0.950 . S
C558 C559 1.386 . S
C558 C560 1.391 . S
C559 C558 1.386 . S
C559 C563 1.393 . S
C560 H552 0.950 . S
C560 C558 1.391 . S
C560 C561 1.400 . S
C561 C560 1.400 . S
C561 C562 1.398 . S
C561 C567 1.491 . S
C562 H553 0.950 . S
C562 C561 1.398 . S
C562 C563 1.391 . S
C563 H551 0.950 . S
C563 C559 1.393 . S
C563 C562 1.391 . S
C564 H554 0.950 . S
C564 C565 1.386 . S
C564 C566 1.391 . S
C565 C564 1.386 . S
C565 C569 1.393 . S
C566 H555 0.950 . S
C566 C564 1.391 . S
C566 C567 1.400 . S
C567 C561 1.491 . S
C567 C566 1.400 . S
C567 C568 1.398 . S
C568 H556 0.950 . S
C568 C567 1.398 . S
C568 C569 1.391 . S
C569 H557 0.950 . S
C569 C565 1.393 . S
C569 C568 1.391 . S
H570 C578 0.950 . S
H571 C583 0.933 1_455 S
H572 C580 0.950 . S
H573 C582 0.950 . S
H574 C584 0.950 . S
H575 C586 0.950 . S
H576 C588 0.950 . S
H577 C589 0.950 . S
C578 H570 0.950 . S
C578 C579 1.386 . S
C578 C580 1.391 . S
C579 C578 1.386 . S
C579 C583 1.393 . S
C580 H572 0.950 . S
C580 C578 1.391 . S
C580 C581 1.400 . S
C581 C580 1.400 . S
C581 C582 1.398 . S
C581 C587 1.491 . S
C582 H573 0.950 . S
C582 C581 1.398 . S
C582 C583 1.407 . S
C583 H571 0.933 1_655 S
C583 C579 1.393 . S
C583 C582 1.407 . S
C584 H574 0.950 . S
C584 C585 1.386 . S
C584 C586 1.391 . S
C585 C584 1.386 . S
C585 C589 1.393 . S
C586 H575 0.950 . S
C586 C584 1.391 . S
C586 C587 1.400 . S
C587 C581 1.491 . S
C587 C586 1.400 . S
C587 C588 1.398 . S
C588 H576 0.950 . S
C588 C587 1.398 . S
C588 C589 1.391 . S
C589 H577 0.950 . S
C589 C585 1.393 . S
C589 C588 1.391 . S
H590 C598 0.950 . S
H591 C603 0.950 . S
H592 C600 0.950 . S
H593 C602 0.950 . S
H594 C604 0.950 . S
H595 C606 0.950 . S
H596 C608 0.950 . S
H597 C609 0.950 . S
C598 H590 0.950 . S
C598 C599 1.386 . S
C598 C600 1.391 . S
C599 C598 1.386 . S
C599 C603 1.393 . S
C600 H592 0.950 . S
C600 C598 1.391 . S
C600 C601 1.400 . S
C601 C600 1.400 . S
C601 C602 1.398 . S
C601 C607 1.491 . S
C602 H593 0.950 . S
C602 C601 1.398 . S
C602 C603 1.391 . S
C603 H591 0.950 . S
C603 C599 1.393 . S
C603 C602 1.391 . S
C604 H594 0.950 . S
C604 C605 1.386 . S
C604 C606 1.391 . S
C605 C604 1.386 . S
C605 C609 1.393 . S
C606 H595 0.950 . S
C606 C604 1.391 . S
C606 C607 1.400 . S
C607 C601 1.491 . S
C607 C606 1.400 . S
C607 C608 1.398 . S
C608 H596 0.950 . S
C608 C607 1.398 . S
C608 C609 1.391 . S
C609 H597 0.950 . S
C609 C605 1.393 . S
C609 C608 1.391 . S
H610 C618 0.950 . S
H611 C623 0.950 . S
H612 C620 0.950 . S
H613 C622 0.950 . S
H614 C624 0.950 . S
H615 C626 0.950 . S
H616 C628 0.950 . S
H617 C629 0.950 . S
C618 H610 0.950 . S
C618 C619 1.386 . S
C618 C620 1.391 . S
C619 C618 1.386 . S
C619 C623 1.393 . S
C620 H612 0.950 . S
C620 C618 1.391 . S
C620 C621 1.400 . S
C621 C620 1.400 . S
C621 C622 1.398 . S
C621 C627 1.491 . S
C622 H613 0.950 . S
C622 C621 1.398 . S
C622 C623 1.391 . S
C623 H611 0.950 . S
C623 C619 1.393 . S
C623 C622 1.391 . S
C624 H614 0.950 . S
C624 C625 1.386 . S
C624 C626 1.391 . S
C625 C624 1.386 . S
C625 C629 1.393 . S
C626 H615 0.950 . S
C626 C624 1.391 . S
C626 C627 1.400 . S
C627 C621 1.491 . S
C627 C626 1.400 . S
C627 C628 1.398 . S
C628 H616 0.950 . S
C628 C627 1.398 . S
C628 C629 1.391 . S
C629 H617 0.950 . S
C629 C625 1.393 . S
C629 C628 1.391 . S
H630 C638 0.950 . S
H631 C643 0.950 . S
H632 C640 0.950 . S
H633 C642 0.950 . S
H634 C644 0.950 . S
H635 C646 0.950 . S
H636 C648 0.950 . S
H637 C649 0.950 . S
C638 H630 0.950 . S
C638 C639 1.386 . S
C638 C640 1.391 . S
C639 C638 1.386 . S
C639 C643 1.393 . S
C640 H632 0.950 . S
C640 C638 1.391 . S
C640 C641 1.400 . S
C641 C640 1.400 . S
C641 C642 1.398 . S
C641 C647 1.491 . S
C642 H633 0.950 . S
C642 C641 1.398 . S
C642 C643 1.391 . S
C643 H631 0.950 . S
C643 C639 1.393 . S
C643 C642 1.391 . S
C644 H634 0.950 . S
C644 C645 1.386 . S
C644 C646 1.391 . S
C645 C644 1.386 . S
C645 C649 1.393 . S
C646 H635 0.950 . S
C646 C644 1.391 . S
C646 C647 1.400 . S
C647 C641 1.491 . S
C647 C646 1.400 . S
C647 C648 1.398 . S
C648 H636 0.950 . S
C648 C647 1.398 . S
C648 C649 1.391 . S
C649 H637 0.950 . S
C649 C645 1.393 . S
C649 C648 1.391 . S
H650 C658 0.950 . S
H651 C663 0.950 . S
H652 C660 0.950 . S
H653 C662 0.950 . S
H654 C664 0.950 . S
H655 C666 0.950 . S
H656 C668 0.950 . S
H657 C669 0.950 . S
C658 H650 0.950 . S
C658 C659 1.386 . S
C658 C660 1.391 . S
C659 C658 1.386 . S
C659 C663 1.393 . S
C660 H652 0.950 . S
C660 C658 1.391 . S
C660 C661 1.400 . S
C661 C660 1.400 . S
C661 C662 1.398 . S
C661 C667 1.491 . S
C662 H653 0.950 . S
C662 C661 1.398 . S
C662 C663 1.391 . S
C663 H651 0.950 . S
C663 C659 1.393 . S
C663 C662 1.391 . S
C664 H654 0.950 . S
C664 C665 1.386 . S
C664 C666 1.391 . S
C665 C664 1.386 . S
C665 C669 1.393 . S
C666 H655 0.950 . S
C666 C664 1.391 . S
C666 C667 1.400 . S
C667 C661 1.491 . S
C667 C666 1.400 . S
C667 C668 1.398 . S
C668 H656 0.950 . S
C668 C667 1.398 . S
C668 C669 1.391 . S
C669 H657 0.950 . S
C669 C665 1.393 . S
C669 C668 1.391 . S
H670 C678 0.950 . S
H671 C683 0.950 . S
H672 C680 0.950 . S
H673 C682 0.950 . S
H674 C684 0.950 . S
H675 C686 0.950 . S
H676 C688 0.950 . S
H677 C689 0.950 . S
C678 H670 0.950 . S
C678 C679 1.386 . S
C678 C680 1.391 . S
C679 C678 1.386 . S
C679 C683 1.393 . S
C680 H672 0.950 . S
C680 C678 1.391 . S
C680 C681 1.400 . S
C681 C680 1.400 . S
C681 C682 1.398 . S
C681 C687 1.491 . S
C682 H673 0.950 . S
C682 C681 1.398 . S
C682 C683 1.391 . S
C683 H671 0.950 . S
C683 C679 1.393 . S
C683 C682 1.391 . S
C684 H674 0.950 . S
C684 C685 1.386 . S
C684 C686 1.391 . S
C685 C684 1.386 . S
C685 C689 1.393 . S
C686 H675 0.950 . S
C686 C684 1.391 . S
C686 C687 1.400 . S
C687 C681 1.491 . S
C687 C686 1.400 . S
C687 C688 1.398 . S
C688 H676 0.950 . S
C688 C687 1.398 . S
C688 C689 1.391 . S
C689 H677 0.950 . S
C689 C685 1.393 . S
C689 C688 1.391 . S
H690 C698 0.950 . S
H691 C703 0.950 . S
H692 C700 0.950 . S
H693 C702 0.950 . S
H694 C704 0.950 . S
H695 C706 0.950 . S
H696 C708 0.950 . S
H697 C709 0.950 . S
C698 H690 0.950 . S
C698 C699 1.386 . S
C698 C700 1.391 . S
C699 C698 1.386 . S
C699 C703 1.393 . S
C700 H692 0.950 . S
C700 C698 1.391 . S
C700 C701 1.400 . S
C701 C700 1.400 . S
C701 C702 1.398 . S
C701 C707 1.491 . S
C702 H693 0.950 . S
C702 C701 1.398 . S
C702 C703 1.391 . S
C703 H691 0.950 . S
C703 C699 1.393 . S
C703 C702 1.391 . S
C704 H694 0.950 . S
C704 C705 1.386 . S
C704 C706 1.391 . S
C705 C704 1.386 . S
C705 C709 1.393 . S
C706 H695 0.950 . S
C706 C704 1.391 . S
C706 C707 1.400 . S
C707 C701 1.491 . S
C707 C706 1.400 . S
C707 C708 1.398 . S
C708 H696 0.950 . S
C708 C707 1.398 . S
C708 C709 1.391 . S
C709 H697 0.950 . S
C709 C705 1.393 . S
C709 C708 1.391 . S
H710 C718 0.950 . S
H711 C723 0.950 . S
H712 C720 0.950 . S
H713 C722 0.950 . S
H714 C724 0.950 . S
H715 C726 0.950 . S
H716 C728 0.950 . S
H717 C729 0.950 . S
C718 H710 0.950 . S
C718 C719 1.386 . S
C718 C720 1.391 . S
C719 C718 1.386 . S
C719 C723 1.393 . S
C720 H712 0.950 . S
C720 C718 1.391 . S
C720 C721 1.400 . S
C721 C720 1.400 . S
C721 C722 1.398 . S
C721 C727 1.491 . S
C722 H713 0.950 . S
C722 C721 1.398 . S
C722 C723 1.391 . S
C723 H711 0.950 . S
C723 C719 1.393 . S
C723 C722 1.391 . S
C724 H714 0.950 . S
C724 C725 1.386 . S
C724 C726 1.391 . S
C725 C724 1.386 . S
C725 C729 1.393 . S
C726 H715 0.950 . S
C726 C724 1.391 . S
C726 C727 1.400 . S
C727 C721 1.491 . S
C727 C726 1.400 . S
C727 C728 1.398 . S
C728 H716 0.950 . S
C728 C727 1.398 . S
C728 C729 1.391 . S
C729 H717 0.950 . S
C729 C725 1.393 . S
C729 C728 1.391 . S
H730 C738 0.950 . S
H731 C743 0.950 1_554 S
H732 C740 0.950 . S
H733 C742 0.950 . S
H734 C744 0.950 . S
H735 C746 0.950 . S
H736 C748 0.950 . S
H737 C749 0.950 . S
C738 H730 0.950 . S
C738 C739 1.386 . S
C738 C740 1.391 . S
C739 C738 1.386 . S
C739 C743 1.393 . S
C740 H732 0.950 . S
C740 C738 1.391 . S
C740 C741 1.400 . S
C741 C740 1.400 . S
C741 C742 1.398 . S
C741 C747 1.491 . S
C742 H733 0.950 . S
C742 C741 1.398 . S
C742 C743 1.391 . S
C743 H731 0.950 1_556 S
C743 C739 1.393 . S
C743 C742 1.391 . S
C744 H734 0.950 . S
C744 C745 1.386 . S
C744 C746 1.391 . S
C745 C744 1.386 . S
C745 C749 1.393 . S
C746 H735 0.950 . S
C746 C744 1.391 . S
C746 C747 1.400 . S
C747 C741 1.491 . S
C747 C746 1.400 . S
C747 C748 1.398 . S
C748 H736 0.950 . S
C748 C747 1.398 . S
C748 C749 1.391 . S
C749 H737 0.950 . S
C749 C745 1.393 . S
C749 C748 1.391 . S
H750 C758 0.950 1_554 S
H751 C763 0.950 . S
H752 C760 0.950 . S
H753 C762 0.950 . S
H754 C764 0.950 . S
H755 C766 0.950 . S
H756 C768 0.950 . S
H757 C769 0.950 . S
C758 H750 0.950 1_556 S
C758 C759 1.386 . S
C758 C760 1.391 . S
C759 C758 1.386 . S
C759 C763 1.393 . S
C760 H752 0.950 . S
C760 C758 1.391 . S
C760 C761 1.400 . S
C761 C760 1.400 . S
C761 C762 1.398 . S
C761 C767 1.491 . S
C762 H753 0.950 . S
C762 C761 1.398 . S
C762 C763 1.391 . S
C763 H751 0.950 . S
C763 C759 1.393 . S
C763 C762 1.391 . S
C764 H754 0.950 . S
C764 C765 1.386 . S
C764 C766 1.391 . S
C765 C764 1.386 . S
C765 C769 1.393 . S
C766 H755 0.950 . S
C766 C764 1.391 . S
C766 C767 1.400 . S
C767 C761 1.491 . S
C767 C766 1.400 . S
C767 C768 1.398 . S
C768 H756 0.950 . S
C768 C767 1.398 . S
C768 C769 1.391 . S
C769 H757 0.950 . S
C769 C765 1.393 . S
C769 C768 1.391 . S
H770 C778 0.950 . S
H771 C783 0.950 . S
H772 C780 0.950 . S
H773 C782 0.950 . S
H774 C784 0.950 . S
H775 C786 0.950 . S
H776 C788 0.950 . S
H777 C789 0.950 . S
C778 H770 0.950 . S
C778 C779 1.386 . S
C778 C780 1.391 . S
C779 C778 1.386 . S
C779 C783 1.393 . S
C780 H772 0.950 . S
C780 C778 1.391 . S
C780 C781 1.400 . S
C781 C780 1.400 . S
C781 C782 1.398 . S
C781 C787 1.491 . S
C782 H773 0.950 . S
C782 C781 1.398 . S
C782 C783 1.391 . S
C783 H771 0.950 . S
C783 C779 1.393 . S
C783 C782 1.391 . S
C784 H774 0.950 . S
C784 C785 1.386 . S
C784 C786 1.391 . S
C785 C784 1.386 . S
C785 C789 1.393 . S
C786 H775 0.950 . S
C786 C784 1.391 . S
C786 C787 1.400 . S
C787 C781 1.491 . S
C787 C786 1.400 . S
C787 C788 1.398 . S
C788 H776 0.950 . S
C788 C787 1.398 . S
C788 C789 1.391 . S
C789 H777 0.950 . S
C789 C785 1.393 . S
C789 C788 1.391 . S
H790 C798 0.950 . S
H791 C803 0.950 . S
H792 C800 0.950 . S
H793 C802 0.950 . S
H794 C804 0.950 . S
H795 C806 0.950 . S
H796 C808 0.950 . S
H797 C809 0.950 . S
C798 H790 0.950 . S
C798 C799 1.386 . S
C798 C800 1.391 . S
C799 C798 1.386 . S
C799 C803 1.393 . S
C800 H792 0.950 . S
C800 C798 1.391 . S
C800 C801 1.400 . S
C801 C800 1.400 . S
C801 C802 1.398 . S
C801 C807 1.491 . S
C802 H793 0.950 . S
C802 C801 1.398 . S
C802 C803 1.391 . S
C803 H791 0.950 . S
C803 C799 1.393 . S
C803 C802 1.391 . S
C804 H794 0.950 . S
C804 C805 1.386 . S
C804 C806 1.391 . S
C805 C804 1.386 . S
C805 C809 1.393 . S
C806 H795 0.950 . S
C806 C804 1.391 . S
C806 C807 1.400 . S
C807 C801 1.491 . S
C807 C806 1.400 . S
C807 C808 1.398 . S
C808 H796 0.950 . S
C808 C807 1.398 . S
C808 C809 1.391 . S
C809 H797 0.950 . S
C809 C805 1.393 . S
C809 C808 1.391 . S
H810 C818 0.950 . S
H811 C823 0.950 . S
H812 C820 0.950 . S
H813 C822 0.950 . S
H814 C824 0.950 . S
H815 C826 0.950 . S
H816 C828 0.950 . S
H817 C829 0.950 . S
C818 H810 0.950 . S
C818 C819 1.386 . S
C818 C820 1.391 . S
C819 C818 1.386 . S
C819 C823 1.393 . S
C820 H812 0.950 . S
C820 C818 1.391 . S
C820 C821 1.400 . S
C821 C820 1.400 . S
C821 C822 1.398 . S
C821 C827 1.491 . S
C822 H813 0.950 . S
C822 C821 1.398 . S
C822 C823 1.391 . S
C823 H811 0.950 . S
C823 C819 1.393 . S
C823 C822 1.391 . S
C824 H814 0.950 . S
C824 C825 1.386 . S
C824 C826 1.391 . S
C825 C824 1.386 . S
C825 C829 1.393 . S
C826 H815 0.950 . S
C826 C824 1.391 . S
C826 C827 1.400 . S
C827 C821 1.491 . S
C827 C826 1.400 . S
C827 C828 1.398 . S
C828 H816 0.950 . S
C828 C827 1.398 . S
C828 C829 1.391 . S
C829 H817 0.950 . S
C829 C825 1.393 . S
C829 C828 1.391 . S
H830 C838 0.950 . S
H831 C843 0.950 . S
H832 C840 0.950 . S
H833 C842 0.950 . S
H834 C844 0.950 . S
H835 C846 0.950 . S
H836 C848 0.950 . S
H837 C849 0.950 . S
C838 H830 0.950 . S
C838 C839 1.386 . S
C838 C840 1.391 . S
C839 C838 1.386 . S
C839 C843 1.393 . S
C840 H832 0.950 . S
C840 C838 1.391 . S
C840 C841 1.400 . S
C841 C840 1.400 . S
C841 C842 1.398 . S
C841 C847 1.491 . S
C842 H833 0.950 . S
C842 C841 1.398 . S
C842 C843 1.391 . S
C843 H831 0.950 . S
C843 C839 1.393 . S
C843 C842 1.391 . S
C844 H834 0.950 . S
C844 C845 1.386 . S
C844 C846 1.391 . S
C845 C844 1.386 . S
C845 C849 1.393 . S
C846 H835 0.950 . S
C846 C844 1.391 . S
C846 C847 1.400 . S
C847 C841 1.491 . S
C847 C846 1.400 . S
C847 C848 1.398 . S
C848 H836 0.950 . S
C848 C847 1.398 . S
C848 C849 1.391 . S
C849 H837 0.950 . S
C849 C845 1.393 . S
C849 C848 1.391 . S
H850 C858 0.950 . S
H851 C863 0.950 . S
H852 C860 0.950 . S
H853 C862 0.950 . S
H854 C864 0.950 . S
H855 C866 0.950 . S
H856 C868 0.950 . S
H857 C869 0.950 . S
C858 H850 0.950 . S
C858 C859 1.386 . S
C858 C860 1.391 . S
C859 C858 1.386 . S
C859 C863 1.393 . S
C860 H852 0.950 . S
C860 C858 1.391 . S
C860 C861 1.400 . S
C861 C860 1.400 . S
C861 C862 1.398 . S
C861 C867 1.491 . S
C862 H853 0.950 . S
C862 C861 1.398 . S
C862 C863 1.391 . S
C863 H851 0.950 . S
C863 C859 1.393 . S
C863 C862 1.391 . S
C864 H854 0.950 . S
C864 C865 1.386 . S
C864 C866 1.391 . S
C865 C864 1.386 . S
C865 C869 1.393 . S
C866 H855 0.950 . S
C866 C864 1.391 . S
C866 C867 1.400 . S
C867 C861 1.491 . S
C867 C866 1.400 . S
C867 C868 1.398 . S
C868 H856 0.950 . S
C868 C867 1.398 . S
C868 C869 1.391 . S
C869 H857 0.950 . S
C869 C865 1.393 . S
C869 C868 1.391 . S
H870 C878 0.950 . S
H871 C883 0.950 . S
H872 C880 0.950 . S
H873 C882 0.950 . S
H874 C884 0.950 . S
H875 C886 0.950 . S
H876 C888 0.950 . S
H877 C889 0.950 . S
C878 H870 0.950 . S
C878 C879 1.386 . S
C878 C880 1.391 . S
C879 C878 1.386 . S
C879 C883 1.393 . S
C880 H872 0.950 . S
C880 C878 1.391 . S
C880 C881 1.400 . S
C881 C880 1.400 . S
C881 C882 1.398 . S
C881 C887 1.491 . S
C882 H873 0.950 . S
C882 C881 1.398 . S
C882 C883 1.391 . S
C883 H871 0.950 . S
C883 C879 1.393 . S
C883 C882 1.391 . S
C884 H874 0.950 . S
C884 C885 1.386 . S
C884 C886 1.391 . S
C885 C884 1.386 . S
C885 C889 1.393 . S
C886 H875 0.950 . S
C886 C884 1.391 . S
C886 C887 1.400 . S
C887 C881 1.491 . S
C887 C886 1.400 . S
C887 C888 1.398 . S
C888 H876 0.950 . S
C888 C887 1.398 . S
C888 C889 1.391 . S
C889 H877 0.950 . S
C889 C885 1.393 . S
C889 C888 1.391 . S
H890 C898 0.950 . S
H891 C903 0.950 . S
H892 C900 0.950 . S
H893 C902 0.950 . S
H894 C904 0.950 . S
H895 C906 0.950 . S
H896 C908 0.950 . S
H897 C909 0.950 . S
C898 H890 0.950 . S
C898 C899 1.386 . S
C898 C900 1.391 . S
C899 C898 1.386 . S
C899 C903 1.393 . S
C900 H892 0.950 . S
C900 C898 1.391 . S
C900 C901 1.400 . S
C901 C900 1.400 . S
C901 C902 1.398 . S
C901 C907 1.491 . S
C902 H893 0.950 . S
C902 C901 1.398 . S
C902 C903 1.391 . S
C903 H891 0.950 . S
C903 C899 1.393 . S
C903 C902 1.391 . S
C904 H894 0.950 . S
C904 C905 1.386 . S
C904 C906 1.391 . S
C905 C904 1.386 . S
C905 C909 1.393 . S
C906 H895 0.950 . S
C906 C904 1.391 . S
C906 C907 1.400 . S
C907 C901 1.491 . S
C907 C906 1.400 . S
C907 C908 1.398 . S
C908 H896 0.950 . S
C908 C907 1.398 . S
C908 C909 1.391 . S
C909 H897 0.950 . S
C909 C905 1.393 . S
C909 C908 1.391 . S
H910 C918 0.950 . S
H911 C923 0.950 . S
H912 C920 0.950 . S
H913 C922 0.950 . S
H914 C924 0.950 . S
H915 C926 0.950 . S
H916 C928 0.950 . S
H917 C929 0.950 . S
C918 H910 0.950 . S
C918 C919 1.386 . S
C918 C920 1.391 1_455 S
C919 C918 1.386 . S
C919 C923 1.393 1_455 S
C920 H912 0.950 . S
C920 C918 1.391 1_655 S
C920 C921 1.400 . S
C921 C920 1.400 . S
C921 C922 1.398 . S
C921 C927 1.491 . S
C922 H913 0.950 . S
C922 C921 1.398 . S
C922 C923 1.391 . S
C923 H911 0.950 . S
C923 C919 1.393 1_655 S
C923 C922 1.391 . S
C924 H914 0.950 . S
C924 C925 1.386 . S
C924 C926 1.391 . S
C925 C924 1.386 . S
C925 C929 1.393 . S
C926 H915 0.950 . S
C926 C924 1.391 . S
C926 C927 1.400 . S
C927 C921 1.491 . S
C927 C926 1.400 . S
C927 C928 1.398 . S
C928 H916 0.950 . S
C928 C927 1.398 . S
C928 C929 1.391 . S
C929 H917 0.950 . S
C929 C925 1.393 . S
C929 C928 1.391 . S
H930 C938 0.950 . S
H931 C943 0.950 . S
H932 C940 0.950 . S
H933 C942 0.950 . S
H934 C944 0.950 . S
H935 C946 0.950 . S
H936 C948 0.950 . S
H937 C949 0.950 . S
C938 H930 0.950 . S
C938 C939 1.386 . S
C938 C940 1.391 . S
C939 C938 1.386 . S
C939 C943 1.393 . S
C940 H932 0.950 . S
C940 C938 1.391 . S
C940 C941 1.400 . S
C941 C940 1.400 . S
C941 C942 1.398 . S
C941 C947 1.491 . S
C942 H933 0.950 . S
C942 C941 1.398 . S
C942 C943 1.391 . S
C943 H931 0.950 . S
C943 C939 1.393 . S
C943 C942 1.391 . S
C944 H934 0.950 . S
C944 C945 1.386 . S
C944 C946 1.391 . S
C945 C944 1.386 . S
C945 C949 1.393 . S
C946 H935 0.950 . S
C946 C944 1.391 . S
C946 C947 1.400 . S
C947 C941 1.491 . S
C947 C946 1.400 . S
C947 C948 1.398 . S
C948 H936 0.950 . S
C948 C947 1.398 . S
C948 C949 1.391 . S
C949 H937 0.950 . S
C949 C945 1.393 . S
C949 C948 1.391 . S
H950 C958 0.950 . S
H951 C963 0.950 . S
H952 C960 0.950 . S
H953 C962 0.950 . S
H954 C964 0.950 . S
H955 C966 0.950 . S
H956 C968 0.950 . S
H957 C969 0.950 . S
C958 H950 0.950 . S
C958 C959 1.386 . S
C958 C960 1.391 . S
C959 C958 1.386 . S
C959 C963 1.393 . S
C960 H952 0.950 . S
C960 C958 1.391 . S
C960 C961 1.400 . S
C961 C960 1.400 . S
C961 C962 1.398 . S
C961 C967 1.491 . S
C962 H953 0.950 . S
C962 C961 1.398 . S
C962 C963 1.391 . S
C963 H951 0.950 . S
C963 C959 1.393 . S
C963 C962 1.391 . S
C964 H954 0.950 . S
C964 C965 1.386 . S
C964 C966 1.391 . S
C965 C964 1.386 . S
C965 C969 1.393 . S
C966 H955 0.950 . S
C966 C964 1.391 . S
C966 C967 1.400 . S
C967 C961 1.491 . S
C967 C966 1.400 . S
C967 C968 1.398 . S
C968 H956 0.950 . S
C968 C967 1.398 . S
C968 C969 1.391 . S
C969 H957 0.950 . S
C969 C965 1.393 . S
C969 C968 1.391 . S
H970 C978 0.950 . S
H971 C983 0.950 . S
H972 C980 0.950 . S
H973 C982 0.950 . S
H974 C984 0.950 . S
H975 C986 0.950 . S
H976 C988 0.950 . S
H977 C989 0.950 . S
C978 H970 0.950 . S
C978 C979 1.386 . S
C978 C980 1.391 . S
C979 C978 1.386 . S
C979 C983 1.393 . S
C980 H972 0.950 . S
C980 C978 1.391 . S
C980 C981 1.400 . S
C981 C980 1.400 . S
C981 C982 1.398 . S
C981 C987 1.491 . S
C982 H973 0.950 . S
C982 C981 1.398 . S
C982 C983 1.391 . S
C983 H971 0.950 . S
C983 C979 1.393 . S
C983 C982 1.391 . S
C984 H974 0.950 . S
C984 C985 1.386 . S
C984 C986 1.391 . S
C985 C984 1.386 . S
C985 C989 1.393 . S
C986 H975 0.950 . S
C986 C984 1.391 . S
C986 C987 1.400 . S
C987 C981 1.491 . S
C987 C986 1.400 . S
C987 C988 1.398 . S
C988 H976 0.950 . S
C988 C987 1.398 . S
C988 C989 1.391 . S
C989 H977 0.950 . S
C989 C985 1.393 . S
C989 C988 1.391 . S
C519 C7 1.793 . S
C525 C191 1.719 . S
C539 C30 1.702 . S
C545 C235 1.648 . S
C565 C315 1.617 . S
C559 N58 1.607 . S
C585 C359 1.412 . S
C579 N81 1.402 1_655 S
C605 C439 1.733 . S
C599 C99 1.798 . S
C625 C495 1.615 . S
C619 N127 1.673 . S
C639 N25 1.922 . S
C645 C291 1.775 . S
C659 C62 1.562 . S
C665 C371 1.472 . S
C685 C415 1.790 . S
C679 C85 1.968 . S
C705 C483 1.498 . S
C699 N94 1.489 . S
C719 C131 1.768 . S
C725 C167 1.638 . S
C745 C247 1.607 . S
C739 N2 1.625 1_556 S
C765 C353 1.795 . S
C759 C16 1.889 1_556 S
C779 C39 1.595 . S
C785 C433 1.444 . S
C805 C501 1.611 . S
C799 N48 1.598 . S
C819 N71 1.543 . S
C825 C185 1.466 . S
C839 C108 1.719 . S
C845 C229 1.647 . S
C859 N117 1.737 . S
C865 C309 1.569 . S
C879 N35 1.882 . S
C885 C477 1.794 . S
C905 C173 1.554 . S
C899 C53 1.656 . S
C919 C76 1.813 . S
C925 C253 1.746 . S
C939 N104 1.379 . S
C945 C297 1.352 . S
C959 C122 1.790 . S
C965 C377 1.740 . S
C979 N12 1.396 . S
C985 C421 1.382 . S
