# Generated by pormake.
# Topology pyr, (3,6)-cn, num edge types: 1
# Building blocks:
#     Node 0, Type 0, BuildingBlock: BELTOD_clean_linker_0, # of connection points: 3
#     Node 1, Type 0, BuildingBlock: BELTOD_clean_linker_0, # of connection points: 3
#     Node 2, Type 0, BuildingBlock: BELTOD_clean_linker_0, # of connection points: 3
#     Node 3, Type 0, BuildingBlock: BELTOD_clean_linker_0, # of connection points: 3
#     Node 4, Type 0, BuildingBlock: BELTOD_clean_linker_0, # of connection points: 3
#     Node 5, Type 0, BuildingBlock: BELTOD_clean_linker_0, # of connection points: 3
#     Node 6, Type 0, BuildingBlock: BELTOD_clean_linker_0, # of connection points: 3
#     Node 7, Type 0, BuildingBlock: BELTOD_clean_linker_0, # of connection points: 3
#     Node 8, Type 1, BuildingBlock: JUFBIX_clean_sbu_0, # of connection points: 6
#     Node 9, Type 1, BuildingBlock: JUFBIX_clean_sbu_0, # of connection points: 6
#     Node 10, Type 1, BuildingBlock: JUFBIX_clean_sbu_0, # of connection points: 6
#     Node 11, Type 1, BuildingBlock: JUFBIX_clean_sbu_0, # of connection points: 6
#     Edge 12, Type (0, 1), None
#     Edge 13, Type (0, 1), None
#     Edge 14, Type (0, 1), None
#     Edge 15, Type (0, 1), None
#     Edge 16, Type (0, 1), None
#     Edge 17, Type (0, 1), None
#     Edge 18, Type (0, 1), None
#     Edge 19, Type (0, 1), None
#     Edge 20, Type (0, 1), None
#     Edge 21, Type (0, 1), None
#     Edge 22, Type (0, 1), None
#     Edge 23, Type (0, 1), None
#     Edge 24, Type (0, 1), None
#     Edge 25, Type (0, 1), None
#     Edge 26, Type (0, 1), None
#     Edge 27, Type (0, 1), None
#     Edge 28, Type (0, 1), None
#     Edge 29, Type (0, 1), None
#     Edge 30, Type (0, 1), None
#     Edge 31, Type (0, 1), None
#     Edge 32, Type (0, 1), None
#     Edge 33, Type (0, 1), None
#     Edge 34, Type (0, 1), None
#     Edge 35, Type (0, 1), None
# Relax obj value: 0.147
# Max RMSD: 0.121
# Mean RMSD: 0.055
data_MOF--net-pyr--node1-JUFBIX_clean_sbu_0--node2-BELTOD_clean_linker_0--edge1-none
_symmetry_space_group_name_H-M    P1
_symmetry_Int_Tables_number       1
_symmetry_cell_setting            triclinic
loop_
_symmetry_equiv_pos_as_xyz
'x, y, z'
_cell_length_a     22.226476
_cell_length_b     21.060753
_cell_length_c     22.157075
_cell_angle_alpha  77.076827
_cell_angle_beta   90.248848
_cell_angle_gamma 90.006843
loop_
_atom_site_label
_atom_site_type_symbol
_atom_site_fract_x
_atom_site_fract_y
_atom_site_fract_z
_atom_type_partial_charge
P0 P 0.23731 0.16544 0.20616 0.0
H1 H 0.35538 0.11685 0.24665 0.0
H2 H 0.43841 0.07311 0.19889 0.0
H3 H 0.33146 0.08045 0.03429 0.0
H4 H 0.24652 0.12498 0.08371 0.0
H5 H 0.12346 0.22023 0.23442 0.0
H6 H 0.06342 0.31121 0.18175 0.0
H7 H 0.18021 0.33696 1.0229 0.0
H8 H 0.24025 0.24317 0.07619 0.0
H9 H 0.2765 0.10569 0.33169 0.0
H10 H 0.11579 0.10249 0.22294 0.0
O11 O 0.27675 0.21552 0.23991 0.0
H12 H 0.22276 0.05342 0.42483 0.0
H13 H 0.06026 0.05218 0.31744 0.0
C14 C 0.29459 0.12548 0.16881 0.0
C15 C 0.34911 0.10896 0.20039 0.0
C16 C 0.39716 0.0839 0.17258 0.0
C17 C 0.39258 0.07377 0.11201 0.0
C18 C 0.33711 0.08833 0.08063 0.0
C19 C 0.28839 0.1137 0.10894 0.0
C20 C 0.18468 0.2212 0.15828 0.0
C21 C 0.13458 0.24228 0.18692 0.0
C22 C 0.10055 0.2958 0.15689 0.0
C23 C 0.1166 0.3316 0.09777 0.0
C24 C 0.16593 0.30992 0.06803 0.0
C25 C 0.20004 0.25564 0.09834 0.0
C26 C 0.20008 0.10997 0.27022 0.0
C27 C 0.22975 0.0928 0.32753 0.0
C28 C 0.19856 0.06304 0.38118 0.0
C29 C 0.13646 0.05 0.37923 0.0
C30 C 0.10772 0.06249 0.32095 0.0
C31 C 0.13957 0.09118 0.26678 0.0
P32 P 0.52239 0.91015 0.59285 0.0
H33 H 0.58952 -0.0015 0.65374 0.0
H34 H 0.56698 0.03121 0.75081 0.0
H35 H 0.4465 0.8679 0.80242 0.0
H36 H 0.46947 0.83472 0.70763 0.0
H37 H 0.61142 0.83907 0.53628 0.0
H38 H 0.61566 0.72732 0.52196 0.0
H39 H 0.44452 0.68672 0.61447 0.0
H40 H 0.43991 0.79768 0.62736 0.0
H41 H 0.47179 0.03258 0.61048 0.0
H42 H 0.412 0.87371 0.53177 0.0
O43 O 0.57504 0.95508 0.54985 0.0
H44 H 0.36789 0.06177 0.62482 0.0
H45 H 0.30831 0.90054 0.54848 0.0
C46 C 0.5312 0.91401 0.67278 0.0
C47 C 0.56042 0.96794 0.68719 0.0
C48 C 0.54674 0.98737 0.74201 0.0
C49 C 0.50321 0.95343 0.78243 0.0
C50 C 0.47856 0.89616 0.77074 0.0
C51 C 0.49278 0.8764 0.7167 0.0
C52 C 0.52548 0.82725 0.58303 0.0
C53 C 0.57478 0.80617 0.5534 0.0
C54 C 0.57712 0.74224 0.54518 0.0
C55 C 0.5303 0.69819 0.56698 0.0
C56 C 0.48138 0.7193 0.59721 0.0
C57 C 0.47906 0.78304 0.60514 0.0
C58 C 0.44978 0.94783 0.57445 0.0
C59 C 0.43636 0.00404 0.5959 0.0
C60 C 0.37678 0.02026 0.60495 0.0
C61 C 0.32964 0.98136 0.59116 0.0
C62 C 0.34332 0.93059 0.56149 0.0
C63 C 0.40301 0.91466 0.55232 0.0
P64 P 0.74069 0.33888 0.87592 0.0
H65 H 0.85106 0.40521 0.8336 0.0
H66 H 0.9314 0.45279 0.88271 0.0
H67 H 0.83212 0.41571 0.05419 0.0
H68 H 0.74924 0.36966 1.0029 0.0
H69 H 0.6266 0.28402 0.84605 0.0
H70 H 0.56623 0.19275 0.89817 0.0
H71 H 0.68449 0.1649 0.05702 0.0
H72 H 0.74539 0.25725 1.00406 0.0
H73 H 0.77603 0.39516 0.74804 0.0
H74 H 0.62093 0.40376 0.86202 0.0
O75 O 0.78354 0.29109 0.843 0.0
H76 H 0.71992 0.45076 0.65657 0.0
H77 H 0.56336 0.45733 0.76973 0.0
C78 C 0.79435 0.38217 0.91453 0.0
C79 C 0.84582 0.40768 0.88159 0.0
C80 C 0.89235 0.43459 0.91023 0.0
C81 C 0.88942 0.43678 0.97324 0.0
C82 C 0.83652 0.41389 1.00595 0.0
C83 C 0.78911 0.38726 0.97664 0.0
C84 C 0.68876 0.28135 0.92233 0.0
C85 C 0.63819 0.26102 0.89332 0.0
C86 C 0.60389 0.20758 0.92299 0.0
C87 C 0.6199 0.17164 0.98221 0.0
C88 C 0.67004 0.19225 1.01192 0.0
C89 C 0.70463 0.2459 0.98186 0.0
C90 C 0.70239 0.39354 0.81194 0.0
C91 C 0.73007 0.40977 0.75367 0.0
C92 C 0.69775 0.44157 0.70112 0.0
C93 C 0.63662 0.45735 0.70543 0.0
C94 C 0.61007 0.445 0.76455 0.0
C95 C 0.64304 0.41447 0.81745 0.0
P96 P 0.96911 0.72175 0.41103 0.0
H97 H 0.09561 0.74591 0.42858 0.0
H98 H 0.13319 0.82192 0.48831 0.0
H99 H 0.9721 0.79359 0.5984 0.0
H100 H 0.93371 0.72059 0.53818 0.0
H101 H 0.99102 0.74427 0.28005 0.0
H102 H 0.98878 0.66872 0.21342 0.0
H103 H 1.00631 0.50744 0.37226 0.0
H104 H 1.00648 0.58507 0.44001 0.0
H105 H 0.85759 0.74671 0.3424 0.0
H106 H 0.92213 0.61756 0.50972 0.0
O107 O 0.96209 0.7975 0.36832 0.0
H108 H 0.76259 0.68632 0.35139 0.0
H109 H 0.82563 0.55979 0.52023 0.0
C110 C 1.01143 0.72837 0.47802 0.0
C111 C 0.07042 0.75199 0.46867 0.0
C112 C 0.09209 0.79535 0.50301 0.0
C113 C 0.05451 0.81422 0.54652 0.0
C114 C 1.00152 0.77953 0.5647 0.0
C115 C 0.97955 0.73724 0.52996 0.0
C116 C 0.99955 0.67038 0.36489 0.0
C117 C 0.99704 0.69299 0.30073 0.0
C118 C 0.99521 0.6492 0.26246 0.0
C119 C 0.99656 0.58164 0.28751 0.0
C120 C 1.00396 0.55908 0.35174 0.0
C121 C 1.00558 0.6034 0.39029 0.0
C122 C 0.89561 0.68847 0.42707 0.0
C123 C 0.85048 0.70709 0.38226 0.0
C124 C 0.79688 0.6723 0.38674 0.0
C125 C 0.78784 0.61917 0.43644 0.0
C126 C 0.83225 0.60131 0.48202 0.0
C127 C 0.88661 0.63486 0.47654 0.0
P128 P 0.89163 0.89855 0.91444 0.0
H129 H 0.84672 0.9073 0.03527 0.0
H130 H 0.74886 0.92485 0.07689 0.0
H131 H 0.66808 0.93404 0.89763 0.0
H132 H 0.7673 0.91548 0.85589 0.0
H133 H 0.96053 0.81256 0.85068 0.0
H134 H 1.00422 0.70494 0.88644 0.0
H135 H 0.92171 0.68964 0.06526 0.0
H136 H 0.87789 0.79779 1.02925 0.0
H137 H 0.99843 0.97075 0.86256 0.0
H138 H 0.84108 0.89454 0.78891 0.0
O139 O 0.93551 0.93582 0.95719 0.0
H140 H 0.04219 -0.00118 0.75999 0.0
H141 H 0.88434 0.92565 0.68433 0.0
C142 C 0.8155 0.91053 0.94186 0.0
C143 C 0.8082 0.91257 1.00449 0.0
C144 C 0.75166 0.92243 1.02866 0.0
C145 C 0.69992 0.93088 0.99103 0.0
C146 C 0.70672 0.92756 0.92833 0.0
C147 C 0.76381 0.91717 0.9041 0.0
C148 C 0.91454 0.81369 0.93668 0.0
C149 C 0.9506 0.78611 0.89725 0.0
C150 C 0.97626 0.72431 0.91802 0.0
C151 C 0.96696 0.68865 0.97896 0.0
C152 C 0.92998 0.71572 1.01807 0.0
C153 C 0.90431 0.77762 0.99721 0.0
C154 C 0.91485 0.93246 0.83431 0.0
C155 C 0.97193 0.9619 0.82421 0.0
C156 C 0.99763 0.97745 0.76511 0.0
C157 C 0.96702 0.96469 0.71355 0.0
C158 C 0.90904 0.93684 0.72289 0.0
C159 C 0.88371 0.91982 0.78279 0.0
P160 P 0.60941 0.19466 0.40997 0.0
H161 H 0.67132 0.24171 0.50702 0.0
H162 H 0.64298 0.32535 0.5597 0.0
H163 H 0.46071 0.3202 0.49353 0.0
H164 H 0.48893 0.23268 0.4419 0.0
H165 H 0.70536 0.18003 0.32641 0.0
H166 H 0.79731 0.11452 0.34078 0.0
H167 H 0.76501 0.06102 0.5374 0.0
H168 H 0.67158 0.12429 0.5228 0.0
H169 H 0.52567 0.19417 0.30815 0.0
H170 H 0.60254 0.05361 0.46041 0.0
O171 O 0.61444 0.25687 0.34849 0.0
H172 H 0.5289 0.11408 0.24435 0.0
H173 H 0.60928 0.9744 0.39506 0.0
C174 C 0.58196 0.22924 0.47158 0.0
C175 C 0.62419 0.25422 0.50729 0.0
C176 C 0.6081 0.30308 0.53701 0.0
C177 C 0.54992 0.32925 0.53017 0.0
C178 C 0.50568 0.29992 0.50012 0.0
C179 C 0.52182 0.24999 0.47065 0.0
C180 C 0.68332 0.15984 0.42394 0.0
C181 C 0.71886 0.15571 0.37286 0.0
C182 C 0.77062 0.1174 0.38085 0.0
C183 C 0.78774 0.08307 0.44014 0.0
C184 C 0.75273 0.0879 0.49142 0.0
C185 C 0.70015 0.12499 0.48322 0.0
C186 C 0.56686 0.13085 0.38793 0.0
C187 C 0.53998 0.14503 0.32922 0.0
C188 C 0.54229 0.09928 0.29249 0.0
C189 C 0.57113 0.03914 0.31459 0.0
C190 C 0.58776 0.02096 0.37704 0.0
C191 C 0.58334 0.06615 0.4144 0.0
P192 P 0.38411 0.61374 0.18053 0.0
H193 H 0.34435 0.60822 0.05661 0.0
H194 H 0.2487 0.58549 1.01164 0.0
H195 H 0.16336 0.56825 0.1893 0.0
H196 H 0.26007 0.59157 0.23423 0.0
H197 H 0.47046 0.68927 0.23725 0.0
H198 H 0.51732 0.79547 0.20051 0.0
H199 H 0.40724 0.8272 0.03534 0.0
H200 H 0.35952 0.72161 0.07289 0.0
H201 H 0.46787 0.51542 0.24694 0.0
H202 H 0.33547 0.64433 0.29659 0.0
O203 O 0.43073 0.57359 0.14333 0.0
H204 H 0.5058 0.49 0.3523 0.0
H205 H 0.37265 0.61616 0.40474 0.0
C206 C 0.30996 0.60153 0.1491 0.0
C207 C 0.30505 0.60023 0.08605 0.0
C208 C 0.25002 0.58721 0.06012 0.0
C209 C 0.19794 0.57478 0.09655 0.0
C210 C 0.20245 0.57759 0.15961 0.0
C211 C 0.25787 0.59095 0.18557 0.0
C212 C 0.40988 0.6975 0.15886 0.0
C213 C 0.45498 0.71955 0.19391 0.0
C214 C 0.48246 0.78027 0.17247 0.0
C215 C 0.46649 0.81978 0.11471 0.0
C216 C 0.42098 0.79791 0.0799 0.0
C217 C 0.39309 0.73748 0.10172 0.0
C218 C 0.3981 0.5816 0.26307 0.0
C219 C 0.4454 0.53697 0.28069 0.0
C220 C 0.46755 0.52252 0.34134 0.0
C221 C 0.44251 0.55123 0.38687 0.0
C222 C 0.39258 0.59288 0.37073 0.0
C223 C 0.37105 0.60865 0.309 0.0
P224 P 0.09408 0.31939 0.66785 0.0
H225 H 0.15866 0.28978 0.56286 0.0
H226 H 0.13706 0.20473 0.51011 0.0
H227 H 0.95537 0.19234 0.57909 0.0
H228 H 0.97632 0.28129 0.63083 0.0
H229 H 0.19038 0.31021 0.75841 0.0
H230 H 0.28841 0.36389 0.75485 0.0
H231 H 0.2592 0.45409 0.56213 0.0
H232 H 0.16062 0.40216 0.56611 0.0
H233 H 1.00502 0.31634 0.76473 0.0
H234 H 0.08941 0.46208 0.62298 0.0
O235 O 0.09317 0.25317 0.72569 0.0
H236 H 1.00463 0.39096 0.83308 0.0
H237 H 0.09479 0.53546 0.69315 0.0
C238 C 0.06899 0.29258 0.60098 0.0
C239 C 0.11262 0.27354 0.56303 0.0
C240 C 0.10048 0.22383 0.53306 0.0
C241 C 0.04522 0.1915 0.54206 0.0
C242 C 0.99834 0.21708 0.57154 0.0
C243 C 1.01034 0.26792 0.60106 0.0
C244 C 0.16967 0.34968 0.66167 0.0
C245 C 0.20566 0.34031 0.71501 0.0
C246 C 0.26107 0.37158 0.71328 0.0
C247 C 0.28101 0.41237 0.6581 0.0
C248 C 0.24496 0.42172 0.60479 0.0
C249 C 0.18915 0.39151 0.60688 0.0
C250 C 0.05148 0.38206 0.69077 0.0
C251 C 1.02181 0.3653 0.7475 0.0
C252 C 1.02337 0.40775 0.78741 0.0
C253 C 0.05498 0.46709 0.77075 0.0
C254 C 0.07283 0.48891 0.70881 0.0
C255 C 0.06934 0.4469 0.66829 0.0
Co256 Co 1.00557 0.00746 0.52133 0.0
C257 C 0.05495 0.88232 0.5502 0.0
Co258 Co 0.09341 -0.00219 0.5681 0.0
C259 C 0.88407 0.0443 0.4915 0.0
C260 C 0.91908 0.98598 0.43193 0.0
N261 N 0.93268 0.0098 0.48202 0.0
N262 N 0.84126 0.04434 0.44847 0.0
C263 C 0.86277 0.00767 0.41083 0.0
H264 H 0.88175 0.07249 0.52674 0.0
H265 H 0.94937 0.95755 0.41037 0.0
C266 C 0.04443 0.12308 0.5391 0.0
N267 N 0.16811 -0.00309 0.60422 0.0
C268 C 0.21834 0.97516 0.58167 0.0
C269 C 0.18741 0.02757 0.64791 0.0
N270 N 0.26861 0.99249 0.60792 0.0
C271 C 0.24938 0.02485 0.65038 0.0
C272 C 0.10264 0.02823 0.43855 0.0
O273 O 0.9995 0.09766 0.51846 0.0
O274 O 0.08844 0.08765 0.56269 0.0
O275 O 0.13142 0.0153 0.48924 0.0
O276 O 0.04543 0.0274 0.44071 0.0
O277 O 0.09899 0.90727 0.5729 0.0
H278 H 0.15862 0.05327 0.67371 0.0
H279 H 0.21799 0.95067 0.54367 0.0
O280 O 1.0116 0.91795 0.52492 0.0
O281 O 0.96621 0.98781 0.60153 0.0
O282 O 0.05428 0.9812 0.64765 0.0
C283 C 0.99699 0.97847 0.65146 0.0
H284 H 0.8402 -0.00098 0.37002 0.0
H285 H 0.2779 0.04638 0.68011 0.0
Co286 Co 0.52037 -0.00023 1.00531 0.0
C287 C 0.49669 0.88349 0.09087 0.0
Co288 Co 0.56492 0.99302 0.09521 0.0
C289 C 0.5187 -0.00391 0.87684 0.0
C290 C 0.43067 0.98534 0.91684 0.0
N291 N 0.48808 -0.00019 0.92844 0.0
N292 N 0.48326 0.97702 0.83488 0.0
C293 C 0.42763 0.97107 0.85935 0.0
H294 H 0.56702 0.0009 0.87232 0.0
H295 H 0.39456 0.97943 0.9502 0.0
C296 C 0.58825 0.10944 1.00917 0.0
N297 N 0.59545 0.99067 0.17361 0.0
C298 C 0.56179 0.99095 0.22414 0.0
C299 C 0.65216 0.00121 0.19064 0.0
N300 N 0.59425 0.00457 0.27091 0.0
C301 C 0.65147 0.01006 0.25044 0.0
C302 C 0.64094 0.94825 1.01634 0.0
O303 O 0.55296 0.08444 0.97542 0.0
O304 O 0.59934 0.078 0.06427 0.0
O305 O 0.63715 0.95494 0.07189 0.0
O306 O 0.59499 0.96245 0.9814 0.0
O307 O 0.53072 0.90842 0.1256 0.0
H308 H 0.69034 0.00859 0.15975 0.0
H309 H 0.51324 0.98801 0.22496 0.0
O310 O 0.4876 0.91481 0.0356 0.0
O311 O 0.44652 0.03771 1.0297 0.0
O312 O 0.49295 0.0323 0.11737 0.0
C313 C 0.44604 0.04715 0.08445 0.0
H314 H 0.3885 0.95332 0.83896 0.0
H315 H 0.68869 0.02765 0.27388 0.0
Co316 Co 0.57816 0.52378 0.52303 0.0
C317 C 0.4735 0.54128 0.44807 0.0
Co318 Co 0.49434 0.5019 0.57433 0.0
C319 C 0.69454 0.57329 0.48772 0.0
C320 C 0.655 0.52881 0.41901 0.0
N321 N 0.6456 0.54076 0.47565 0.0
N322 N 0.73349 0.58297 0.44053 0.0
C323 C 0.70918 0.55554 0.3969 0.0
H324 H 0.7004 0.59199 0.5291 0.0
H325 H 0.62374 0.50392 0.39472 0.0
C326 C 0.60035 0.48194 0.64811 0.0
N327 N 0.42695 0.48461 0.62188 0.0
C328 C 0.37745 0.45332 0.60927 0.0
C329 C 0.41758 0.49646 0.67851 0.0
N330 N 0.33775 0.44457 0.65596 0.0
C331 C 0.36257 0.47139 0.69985 0.0
C332 C 0.54213 0.39563 0.53908 0.0
O333 O 0.62613 0.50316 0.59652 0.0
O334 O 0.54324 0.47747 0.64882 0.0
O335 O 0.49631 0.41319 0.56526 0.0
O336 O 0.58249 0.43693 0.5179 0.0
O337 O 0.44546 0.52608 0.49924 0.0
H338 H 0.44911 0.52083 0.703 0.0
H339 H 0.37138 0.43557 0.56739 0.0
O340 O 0.53053 0.54311 0.44923 0.0
O341 O 0.57466 0.61199 0.5286 0.0
O342 O 0.49245 0.58963 0.58318 0.0
C343 C 0.53246 0.63044 0.55899 0.0
H344 H 0.72897 0.55556 0.35233 0.0
H345 H 0.34226 0.47291 0.74383 0.0
Co346 Co 0.06328 0.51479 0.99151 0.0
C347 C 0.94256 0.46238 1.00234 0.0
Co348 Co 1.01884 0.50385 0.08116 0.0
C349 C 0.0739 0.47613 0.87922 0.0
C350 C 0.10297 0.57469 0.86824 0.0
N351 N 0.08886 0.52081 0.91145 0.0
N352 N 0.07419 0.50055 0.81758 0.0
C353 C 0.09408 0.56231 0.8103 0.0
H354 H 0.05843 0.4279 0.90128 0.0
H355 H 0.11301 0.62167 0.87797 0.0
C356 C 0.14055 0.55517 0.06984 0.0
N357 N 0.9927 0.5006 0.16015 0.0
C358 C 1.00246 0.5511 0.18662 0.0
C359 C 0.97206 0.45244 0.20611 0.0
N360 N 0.98956 0.53728 0.2472 0.0
C361 C 0.96999 0.47507 0.26013 0.0
C362 C 0.08606 0.3949 0.07195 0.0
O363 O 0.13723 0.55018 1.01374 0.0
O364 O 0.09481 0.53907 0.10416 0.0
O365 O 0.05151 0.41897 0.10663 0.0
O366 O 0.09733 0.42826 1.01772 0.0
O367 O 0.94376 0.46786 0.05844 0.0
H368 H 0.96174 0.40361 0.20131 0.0
H369 H 1.0223 0.59641 0.16219 0.0
O370 O 0.98897 0.47931 0.96948 0.0
O371 O 0.02975 0.60027 0.96599 0.0
O372 O 0.98521 0.58973 0.05505 0.0
C373 C 0.99548 0.62364 1.00117 0.0
H374 H 0.09815 0.59743 0.76669 0.0
H375 H 0.95591 0.44778 0.30519 0.0
loop_
_geom_bond_atom_site_label_1
_geom_bond_atom_site_label_2
_geom_bond_distance
_geom_bond_site_symmetry_2
_ccdc_geom_bond_type
P0 O11 1.490 . S
P0 C14 1.812 . S
P0 C20 1.803 . S
P0 C26 1.819 . S
H1 C15 0.941 . S
H2 C16 0.939 . S
H3 C18 0.940 . S
H4 C19 0.940 . S
H5 C21 0.939 . S
H6 C22 0.942 . S
H7 C24 0.940 . S
H8 C25 0.939 . S
H9 C27 0.941 . S
H10 C31 0.939 . S
O11 P0 1.490 . S
H12 C28 0.939 . S
H13 C30 0.940 . S
C14 P0 1.812 . S
C14 C15 1.389 . S
C14 C19 1.391 . S
C15 H1 0.941 . S
C15 C14 1.389 . S
C15 C16 1.397 . S
C16 H2 0.939 . S
C16 C15 1.397 . S
C16 C17 1.378 . S
C17 C16 1.378 . S
C17 C18 1.378 . S
C18 H3 0.940 . S
C18 C17 1.378 . S
C18 C19 1.396 . S
C19 H4 0.940 . S
C19 C14 1.391 . S
C19 C18 1.396 . S
C20 P0 1.803 . S
C20 C21 1.378 . S
C20 C25 1.400 . S
C21 H5 0.939 . S
C21 C20 1.378 . S
C21 C22 1.361 . S
C22 H6 0.942 . S
C22 C21 1.361 . S
C22 C23 1.369 . S
C23 C22 1.369 . S
C23 C24 1.404 . S
C24 H7 0.940 . S
C24 C23 1.404 . S
C24 C25 1.389 . S
C25 H8 0.939 . S
C25 C20 1.400 . S
C25 C24 1.389 . S
C26 P0 1.819 . S
C26 C27 1.391 . S
C26 C31 1.391 . S
C27 H9 0.941 . S
C27 C26 1.391 . S
C27 C28 1.396 . S
C28 H12 0.939 . S
C28 C27 1.396 . S
C28 C29 1.397 . S
C29 C28 1.397 . S
C29 C30 1.385 . S
C30 H13 0.940 . S
C30 C29 1.385 . S
C30 C31 1.388 . S
C31 H10 0.939 . S
C31 C26 1.391 . S
C31 C30 1.388 . S
P32 O43 1.490 . S
P32 C46 1.812 . S
P32 C52 1.803 . S
P32 C58 1.819 . S
H33 C47 0.941 . S
H34 C48 0.939 . S
H35 C50 0.940 . S
H36 C51 0.940 . S
H37 C53 0.939 . S
H38 C54 0.942 . S
H39 C56 0.940 . S
H40 C57 0.939 . S
H41 C59 0.941 1_545 S
H42 C63 0.939 . S
O43 P32 1.490 . S
H44 C60 0.939 1_545 S
H45 C62 0.940 . S
C46 P32 1.812 . S
C46 C47 1.389 . S
C46 C51 1.391 . S
C47 H33 0.941 . S
C47 C46 1.389 . S
C47 C48 1.397 . S
C48 H34 0.939 . S
C48 C47 1.397 . S
C48 C49 1.378 . S
C49 C48 1.378 . S
C49 C50 1.378 . S
C50 H35 0.940 . S
C50 C49 1.378 . S
C50 C51 1.396 . S
C51 H36 0.940 . S
C51 C46 1.391 . S
C51 C50 1.396 . S
C52 P32 1.803 . S
C52 C53 1.378 . S
C52 C57 1.400 . S
C53 H37 0.939 . S
C53 C52 1.378 . S
C53 C54 1.361 . S
C54 H38 0.942 . S
C54 C53 1.361 . S
C54 C55 1.369 . S
C55 C54 1.369 . S
C55 C56 1.404 . S
C56 H39 0.940 . S
C56 C55 1.404 . S
C56 C57 1.389 . S
C57 H40 0.939 . S
C57 C52 1.400 . S
C57 C56 1.389 . S
C58 P32 1.819 . S
C58 C59 1.391 . S
C58 C63 1.391 . S
C59 H41 0.941 1_565 S
C59 C58 1.391 . S
C59 C60 1.396 . S
C60 H44 0.939 1_565 S
C60 C59 1.396 . S
C60 C61 1.397 . S
C61 C60 1.397 . S
C61 C62 1.385 . S
C62 H45 0.940 . S
C62 C61 1.385 . S
C62 C63 1.388 . S
C63 H42 0.939 . S
C63 C58 1.391 . S
C63 C62 1.388 . S
P64 O75 1.490 . S
P64 C78 1.812 . S
P64 C84 1.803 . S
P64 C90 1.819 . S
H65 C79 0.941 . S
H66 C80 0.939 . S
H67 C82 0.940 . S
H68 C83 0.940 . S
H69 C85 0.939 . S
H70 C86 0.942 . S
H71 C88 0.940 1_554 S
H72 C89 0.939 . S
H73 C91 0.941 . S
H74 C95 0.939 . S
O75 P64 1.490 . S
H76 C92 0.939 . S
H77 C94 0.940 . S
C78 P64 1.812 . S
C78 C79 1.389 . S
C78 C83 1.391 . S
C79 H65 0.941 . S
C79 C78 1.389 . S
C79 C80 1.397 . S
C80 H66 0.939 . S
C80 C79 1.397 . S
C80 C81 1.378 . S
C81 C80 1.378 . S
C81 C82 1.378 . S
C82 H67 0.940 . S
C82 C81 1.378 . S
C82 C83 1.396 . S
C83 H68 0.940 . S
C83 C78 1.391 . S
C83 C82 1.396 . S
C84 P64 1.803 . S
C84 C85 1.378 . S
C84 C89 1.400 . S
C85 H69 0.939 . S
C85 C84 1.378 . S
C85 C86 1.361 . S
C86 H70 0.942 . S
C86 C85 1.361 . S
C86 C87 1.369 . S
C87 C86 1.369 . S
C87 C88 1.404 . S
C88 H71 0.940 1_556 S
C88 C87 1.404 . S
C88 C89 1.389 . S
C89 H72 0.939 . S
C89 C84 1.400 . S
C89 C88 1.389 . S
C90 P64 1.819 . S
C90 C91 1.391 . S
C90 C95 1.391 . S
C91 H73 0.941 . S
C91 C90 1.391 . S
C91 C92 1.396 . S
C92 H76 0.939 . S
C92 C91 1.396 . S
C92 C93 1.397 . S
C93 C92 1.397 . S
C93 C94 1.385 . S
C94 H77 0.940 . S
C94 C93 1.385 . S
C94 C95 1.388 . S
C95 H74 0.939 . S
C95 C90 1.391 . S
C95 C94 1.388 . S
P96 O107 1.490 . S
P96 C110 1.812 . S
P96 C116 1.803 . S
P96 C122 1.819 . S
H97 C111 0.941 . S
H98 C112 0.939 . S
H99 C114 0.940 . S
H100 C115 0.940 . S
H101 C117 0.939 . S
H102 C118 0.942 . S
H103 C120 0.940 . S
H104 C121 0.939 . S
H105 C123 0.941 . S
H106 C127 0.939 . S
O107 P96 1.490 . S
H108 C124 0.939 . S
H109 C126 0.940 . S
C110 P96 1.812 . S
C110 C111 1.389 . S
C110 C115 1.391 . S
C111 H97 0.941 . S
C111 C110 1.389 . S
C111 C112 1.397 . S
C112 H98 0.939 . S
C112 C111 1.397 . S
C112 C113 1.378 . S
C113 C112 1.378 . S
C113 C114 1.378 . S
C114 H99 0.940 . S
C114 C113 1.378 . S
C114 C115 1.396 . S
C115 H100 0.940 . S
C115 C110 1.391 . S
C115 C114 1.396 . S
C116 P96 1.803 . S
C116 C117 1.378 . S
C116 C121 1.400 . S
C117 H101 0.939 . S
C117 C116 1.378 . S
C117 C118 1.361 . S
C118 H102 0.942 . S
C118 C117 1.361 . S
C118 C119 1.369 . S
C119 C118 1.369 . S
C119 C120 1.404 1_655 S
C120 H103 0.940 . S
C120 C119 1.404 1_455 S
C120 C121 1.389 1_455 S
C121 H104 0.939 . S
C121 C116 1.400 . S
C121 C120 1.389 1_655 S
C122 P96 1.819 . S
C122 C123 1.391 . S
C122 C127 1.391 . S
C123 H105 0.941 . S
C123 C122 1.391 . S
C123 C124 1.396 . S
C124 H108 0.939 . S
C124 C123 1.396 . S
C124 C125 1.397 . S
C125 C124 1.397 . S
C125 C126 1.385 . S
C126 H109 0.940 . S
C126 C125 1.385 . S
C126 C127 1.388 . S
C127 H106 0.939 . S
C127 C122 1.391 . S
C127 C126 1.388 . S
P128 O139 1.490 . S
P128 C142 1.812 . S
P128 C148 1.803 . S
P128 C154 1.819 . S
H129 C143 0.941 . S
H130 C144 0.934 1_545 S
H131 C146 0.940 . S
H132 C147 0.940 . S
H133 C149 0.939 1_455 S
H134 C150 0.956 1_554 S
H135 C152 0.940 . S
H136 C153 0.939 . S
H137 C155 0.941 . S
H138 C159 0.939 . S
O139 P128 1.490 . S
H140 C156 0.939 . S
H141 C158 0.940 . S
C142 P128 1.812 . S
C142 C143 1.389 1_556 S
C142 C147 1.391 . S
C143 H129 0.941 . S
C143 C142 1.389 1_554 S
C143 C144 1.397 . S
C144 H130 0.934 1_565 S
C144 C143 1.397 . S
C144 C145 1.378 1_554 S
C145 C144 1.378 1_556 S
C145 C146 1.378 . S
C146 H131 0.940 . S
C146 C145 1.378 . S
C146 C147 1.396 . S
C147 H132 0.940 . S
C147 C142 1.391 . S
C147 C146 1.396 . S
C148 P128 1.803 . S
C148 C149 1.378 . S
C148 C153 1.400 . S
C149 H133 0.939 1_655 S
C149 C148 1.378 . S
C149 C150 1.357 1_655 S
C150 H134 0.956 1_556 S
C150 C149 1.357 1_455 S
C150 C151 1.359 1_455 S
C151 C150 1.359 1_655 S
C151 C152 1.404 . S
C152 H135 0.940 . S
C152 C151 1.404 . S
C152 C153 1.389 . S
C153 H136 0.939 . S
C153 C148 1.400 . S
C153 C152 1.389 . S
C154 P128 1.819 . S
C154 C155 1.391 1_565 S
C154 C159 1.391 . S
C155 H137 0.941 . S
C155 C154 1.391 1_545 S
C155 C156 1.396 . S
C156 H140 0.939 . S
C156 C155 1.396 . S
C156 C157 1.397 1_545 S
C157 C156 1.397 1_565 S
C157 C158 1.385 . S
C158 H141 0.940 . S
C158 C157 1.385 . S
C158 C159 1.388 . S
C159 H138 0.939 . S
C159 C154 1.391 . S
C159 C158 1.388 . S
P160 O171 1.490 . S
P160 C174 1.812 . S
P160 C180 1.803 . S
P160 C186 1.819 . S
H161 C175 0.941 . S
H162 C176 0.939 . S
H163 C178 0.940 . S
H164 C179 0.940 . S
H165 C181 0.939 . S
H166 C182 0.942 . S
H167 C184 0.940 . S
H168 C185 0.939 . S
H169 C187 0.941 . S
H170 C191 0.939 . S
O171 P160 1.490 . S
H172 C188 0.939 . S
H173 C190 0.940 . S
C174 P160 1.812 . S
C174 C175 1.389 . S
C174 C179 1.391 . S
C175 H161 0.941 . S
C175 C174 1.389 . S
C175 C176 1.397 . S
C176 H162 0.939 . S
C176 C175 1.397 . S
C176 C177 1.378 . S
C177 C176 1.378 . S
C177 C178 1.378 . S
C178 H163 0.940 . S
C178 C177 1.378 . S
C178 C179 1.396 . S
C179 H164 0.940 . S
C179 C174 1.391 . S
C179 C178 1.396 . S
C180 P160 1.803 . S
C180 C181 1.378 . S
C180 C185 1.400 . S
C181 H165 0.939 . S
C181 C180 1.378 . S
C181 C182 1.361 . S
C182 H166 0.942 . S
C182 C181 1.361 . S
C182 C183 1.369 . S
C183 C182 1.369 . S
C183 C184 1.404 . S
C184 H167 0.940 . S
C184 C183 1.404 . S
C184 C185 1.389 . S
C185 H168 0.939 . S
C185 C180 1.400 . S
C185 C184 1.389 . S
C186 P160 1.819 . S
C186 C187 1.391 . S
C186 C191 1.391 . S
C187 H169 0.941 . S
C187 C186 1.391 . S
C187 C188 1.396 . S
C188 H172 0.939 . S
C188 C187 1.396 . S
C188 C189 1.397 . S
C189 C188 1.397 . S
C189 C190 1.385 . S
C190 H173 0.940 . S
C190 C189 1.385 . S
C190 C191 1.388 . S
C191 H170 0.939 . S
C191 C186 1.391 . S
C191 C190 1.388 . S
P192 O203 1.490 . S
P192 C206 1.812 . S
P192 C212 1.803 . S
P192 C218 1.819 . S
H193 C207 0.941 . S
H194 C208 0.939 1_556 S
H195 C210 0.940 . S
H196 C211 0.940 . S
H197 C213 0.939 . S
H198 C214 0.942 . S
H199 C216 0.940 . S
H200 C217 0.939 . S
H201 C219 0.941 . S
H202 C223 0.939 . S
O203 P192 1.490 . S
H204 C220 0.939 . S
H205 C222 0.940 . S
C206 P192 1.812 . S
C206 C207 1.389 . S
C206 C211 1.391 . S
C207 H193 0.941 . S
C207 C206 1.389 . S
C207 C208 1.397 . S
C208 H194 0.939 1_554 S
C208 C207 1.397 . S
C208 C209 1.378 . S
C209 C208 1.378 . S
C209 C210 1.378 . S
C210 H195 0.940 . S
C210 C209 1.378 . S
C210 C211 1.396 . S
C211 H196 0.940 . S
C211 C206 1.391 . S
C211 C210 1.396 . S
C212 P192 1.803 . S
C212 C213 1.378 . S
C212 C217 1.400 . S
C213 H197 0.939 . S
C213 C212 1.378 . S
C213 C214 1.361 . S
C214 H198 0.942 . S
C214 C213 1.361 . S
C214 C215 1.369 . S
C215 C214 1.369 . S
C215 C216 1.404 . S
C216 H199 0.940 . S
C216 C215 1.404 . S
C216 C217 1.389 . S
C217 H200 0.939 . S
C217 C212 1.400 . S
C217 C216 1.389 . S
C218 P192 1.819 . S
C218 C219 1.391 . S
C218 C223 1.391 . S
C219 H201 0.941 . S
C219 C218 1.391 . S
C219 C220 1.396 . S
C220 H204 0.939 . S
C220 C219 1.396 . S
C220 C221 1.397 . S
C221 C220 1.397 . S
C221 C222 1.385 . S
C222 H205 0.940 . S
C222 C221 1.385 . S
C222 C223 1.388 . S
C223 H202 0.939 . S
C223 C218 1.391 . S
C223 C222 1.388 . S
P224 O235 1.490 . S
P224 C238 1.812 . S
P224 C244 1.803 . S
P224 C250 1.819 . S
H225 C239 0.941 . S
H226 C240 0.939 . S
H227 C242 0.940 . S
H228 C243 0.940 . S
H229 C245 0.939 . S
H230 C246 0.942 . S
H231 C248 0.940 . S
H232 C249 0.939 . S
H233 C251 0.941 . S
H234 C255 0.939 . S
O235 P224 1.490 . S
H236 C252 0.939 . S
H237 C254 0.940 . S
C238 P224 1.812 . S
C238 C239 1.389 . S
C238 C243 1.391 . S
C239 H225 0.941 . S
C239 C238 1.389 . S
C239 C240 1.397 . S
C240 H226 0.939 . S
C240 C239 1.397 . S
C240 C241 1.378 . S
C241 C240 1.378 . S
C241 C242 1.378 1_455 S
C242 H227 0.940 . S
C242 C241 1.378 1_655 S
C242 C243 1.396 1_655 S
C243 H228 0.940 . S
C243 C238 1.391 . S
C243 C242 1.396 1_455 S
C244 P224 1.803 . S
C244 C245 1.378 . S
C244 C249 1.400 . S
C245 H229 0.939 . S
C245 C244 1.378 . S
C245 C246 1.361 . S
C246 H230 0.942 . S
C246 C245 1.361 . S
C246 C247 1.369 . S
C247 C246 1.369 . S
C247 C248 1.404 . S
C248 H231 0.940 . S
C248 C247 1.404 . S
C248 C249 1.389 . S
C249 H232 0.939 . S
C249 C244 1.400 . S
C249 C248 1.389 . S
C250 P224 1.819 . S
C250 C251 1.391 . S
C250 C255 1.391 . S
C251 H233 0.941 . S
C251 C250 1.391 . S
C251 C252 1.396 . S
C252 H236 0.939 . S
C252 C251 1.396 . S
C252 C253 1.397 . S
C253 C252 1.397 . S
C253 C254 1.385 . S
C254 H237 0.940 . S
C254 C253 1.385 . S
C254 C255 1.388 . S
C255 H234 0.939 . S
C255 C250 1.391 . S
C255 C254 1.388 . S
Co256 N261 2.057 . S
Co256 O273 2.021 . S
Co256 O276 2.062 . S
Co256 O280 2.117 1_545 S
Co256 O281 2.020 1_545 S
C257 O277 1.259 1_655 S
C257 O280 1.258 . S
Co258 N267 2.057 . S
Co258 O274 2.117 1_565 S
Co258 O275 2.020 1_565 S
Co258 O277 2.021 . S
Co258 O282 2.062 . S
C259 N261 1.316 . S
C259 N262 1.347 . S
C259 H264 0.931 . S
C260 N261 1.366 1_565 S
C260 C263 1.345 1_565 S
C260 H265 0.941 . S
N261 Co256 2.057 . S
N261 C259 1.316 . S
N261 C260 1.366 1_545 S
N262 C259 1.347 . S
N262 C263 1.373 . S
C263 C260 1.345 1_545 S
C263 N262 1.373 . S
C263 H284 0.931 . S
H264 C259 0.931 . S
H265 C260 0.941 . S
C266 O273 1.259 1_455 S
C266 O274 1.258 . S
N267 Co258 2.057 . S
N267 C268 1.316 . S
N267 C269 1.375 1_565 S
C268 N267 1.316 . S
C268 N270 1.347 . S
C268 H279 0.931 . S
C269 N267 1.375 1_545 S
C269 C271 1.350 1_545 S
C269 H278 0.930 . S
N270 C268 1.347 . S
N270 C271 1.373 . S
C271 C269 1.350 1_565 S
C271 N270 1.373 . S
C271 H285 0.931 1_565 S
C272 O275 1.256 . S
C272 O276 1.255 1_455 S
O273 Co256 2.021 . S
O273 C266 1.259 1_655 S
O274 Co258 2.117 1_545 S
O274 C266 1.258 . S
O275 Co258 2.020 1_545 S
O275 C272 1.256 . S
O276 Co256 2.062 . S
O276 C272 1.255 1_655 S
O277 C257 1.259 1_455 S
O277 Co258 2.021 . S
H278 C269 0.930 . S
H279 C268 0.931 . S
O280 Co256 2.117 1_565 S
O280 C257 1.258 . S
O281 Co256 2.020 1_565 S
O281 C283 1.256 . S
O282 Co258 2.062 . S
O282 C283 1.255 1_455 S
C283 O281 1.256 . S
C283 O282 1.255 1_655 S
H284 C263 0.931 . S
H285 C271 0.931 1_545 S
Co286 N291 2.057 1_545 S
Co286 O303 2.021 . S
Co286 O306 2.062 1_545 S
Co286 O310 2.117 1_546 S
Co286 O311 2.020 . S
C287 O307 1.259 . S
C287 O310 1.258 . S
Co288 N297 2.057 . S
Co288 O304 2.117 . S
Co288 O305 2.020 1_545 S
Co288 O307 2.021 1_545 S
Co288 O312 2.062 . S
C289 N291 1.316 . S
C289 N292 1.347 . S
C289 H294 0.931 1_565 S
C290 N291 1.375 . S
C290 C293 1.350 . S
C290 H295 0.930 . S
N291 Co286 2.057 1_565 S
N291 C289 1.316 . S
N291 C290 1.375 . S
N292 C289 1.347 . S
N292 C293 1.373 . S
C293 C290 1.350 . S
C293 N292 1.373 . S
C293 H314 0.931 . S
H294 C289 0.931 1_545 S
H295 C290 0.930 . S
C296 O303 1.259 . S
C296 O304 1.258 1_556 S
N297 Co288 2.057 . S
N297 C298 1.316 . S
N297 C299 1.375 . S
C298 N297 1.316 . S
C298 N300 1.347 . S
C298 H309 0.931 . S
C299 N297 1.375 . S
C299 C301 1.350 . S
C299 H308 0.930 . S
N300 C298 1.347 . S
N300 C301 1.373 . S
C301 C299 1.350 . S
C301 N300 1.373 . S
C301 H315 0.931 . S
C302 O305 1.256 1_556 S
C302 O306 1.255 . S
O303 Co286 2.021 . S
O303 C296 1.259 . S
O304 Co288 2.117 . S
O304 C296 1.258 1_554 S
O305 Co288 2.020 1_565 S
O305 C302 1.256 1_554 S
O306 Co286 2.062 1_565 S
O306 C302 1.255 . S
O307 C287 1.259 . S
O307 Co288 2.021 1_565 S
H308 C299 0.930 . S
H309 C298 0.931 . S
O310 Co286 2.117 1_564 S
O310 C287 1.258 . S
O311 Co286 2.020 . S
O311 C313 1.256 1_556 S
O312 Co288 2.062 . S
O312 C313 1.255 . S
C313 O311 1.256 1_554 S
C313 O312 1.255 . S
H314 C293 0.931 . S
H315 C301 0.931 . S
Co316 N321 2.057 . S
Co316 O333 2.021 . S
Co316 O336 2.062 . S
Co316 O340 2.117 . S
Co316 O341 2.020 . S
C317 O337 1.259 . S
C317 O340 1.258 . S
Co318 N327 2.057 . S
Co318 O334 2.117 . S
Co318 O335 2.020 . S
Co318 O337 2.021 . S
Co318 O342 2.062 . S
C319 N321 1.316 . S
C319 N322 1.347 . S
C319 H324 0.931 . S
C320 N321 1.375 . S
C320 C323 1.350 . S
C320 H325 0.930 . S
N321 Co316 2.057 . S
N321 C319 1.316 . S
N321 C320 1.375 . S
N322 C319 1.347 . S
N322 C323 1.373 . S
C323 C320 1.350 . S
C323 N322 1.373 . S
C323 H344 0.931 . S
H324 C319 0.931 . S
H325 C320 0.930 . S
C326 O333 1.259 . S
C326 O334 1.258 . S
N327 Co318 2.057 . S
N327 C328 1.316 . S
N327 C329 1.375 . S
C328 N327 1.316 . S
C328 N330 1.347 . S
C328 H339 0.931 . S
C329 N327 1.375 . S
C329 C331 1.350 . S
C329 H338 0.930 . S
N330 C328 1.347 . S
N330 C331 1.373 . S
C331 C329 1.350 . S
C331 N330 1.373 . S
C331 H345 0.931 . S
C332 O335 1.256 . S
C332 O336 1.255 . S
O333 Co316 2.021 . S
O333 C326 1.259 . S
O334 Co318 2.117 . S
O334 C326 1.258 . S
O335 Co318 2.020 . S
O335 C332 1.256 . S
O336 Co316 2.062 . S
O336 C332 1.255 . S
O337 C317 1.259 . S
O337 Co318 2.021 . S
H338 C329 0.930 . S
H339 C328 0.931 . S
O340 Co316 2.117 . S
O340 C317 1.258 . S
O341 Co316 2.020 . S
O341 C343 1.256 . S
O342 Co318 2.062 . S
O342 C343 1.255 . S
C343 O341 1.256 . S
C343 O342 1.255 . S
H344 C323 0.931 . S
H345 C331 0.931 . S
Co346 N351 2.057 . S
Co346 O363 2.021 . S
Co346 O366 2.062 . S
Co346 O370 2.117 1_455 S
Co346 O371 2.020 1_455 S
C347 O367 1.259 1_556 S
C347 O370 1.258 . S
Co348 N357 2.057 . S
Co348 O364 2.117 1_655 S
Co348 O365 2.020 1_655 S
Co348 O367 2.021 . S
Co348 O372 2.062 . S
C349 N351 1.316 . S
C349 N352 1.347 . S
C349 H354 0.931 . S
C350 N351 1.375 1_655 S
C350 C353 1.350 1_655 S
C350 H355 0.930 . S
N351 Co346 2.057 . S
N351 C349 1.316 . S
N351 C350 1.375 1_455 S
N352 C349 1.347 . S
N352 C353 1.373 . S
C353 C350 1.350 1_455 S
C353 N352 1.373 . S
C353 H374 0.931 1_455 S
H354 C349 0.931 . S
H355 C350 0.930 . S
C356 O363 1.259 1_554 S
C356 O364 1.258 . S
N357 Co348 2.057 . S
N357 C358 1.316 . S
N357 C359 1.375 1_655 S
C358 N357 1.316 . S
C358 N360 1.347 . S
C358 H369 0.931 . S
C359 N357 1.375 1_455 S
C359 C361 1.354 . S
C359 H368 0.930 . S
N360 C358 1.347 . S
N360 C361 1.365 1_655 S
C361 C359 1.354 . S
C361 N360 1.365 1_455 S
C361 H375 0.935 . S
C362 O365 1.256 . S
C362 O366 1.255 1_554 S
O363 Co346 2.021 . S
O363 C356 1.259 1_556 S
O364 Co348 2.117 1_455 S
O364 C356 1.258 . S
O365 Co348 2.020 1_455 S
O365 C362 1.256 . S
O366 Co346 2.062 . S
O366 C362 1.255 1_556 S
O367 C347 1.259 1_554 S
O367 Co348 2.021 . S
H368 C359 0.930 . S
H369 C358 0.931 . S
O370 Co346 2.117 1_655 S
O370 C347 1.258 . S
O371 Co346 2.020 1_655 S
O371 C373 1.256 . S
O372 Co348 2.062 . S
O372 C373 1.255 1_554 S
C373 O371 1.256 . S
C373 O372 1.255 1_556 S
H374 C353 0.931 1_655 S
H375 C361 0.935 . S
C29 C272 2.746 . S
C49 N292 1.500 . S
C326 C93 2.486 . S
C119 N360 1.429 . S
C313 C17 2.909 . S
N270 C61 1.807 . S
C347 C81 2.598 . S
N322 C125 1.256 . S
C23 C362 1.972 . S
C296 C87 1.903 . S
C113 C257 1.488 . S
C55 C343 1.774 . S
C283 C157 2.903 . S
C189 N300 1.241 . S
C221 C317 2.701 . S
C253 N352 1.440 . S
C145 C302 3.153 . S
N262 C183 1.270 . S
C356 C209 2.784 . S
N330 C247 1.169 . S
C151 C373 2.290 . S
C287 C215 2.239 . S
C266 C241 1.539 . S
C177 C332 1.436 . S
