# Generated by pormake.
# Topology pyr, (3,6)-cn, num edge types: 1
# Building blocks:
#     Node 0, Type 0, BuildingBlock: VETTIZ_charged_linker_0, # of connection points: 3
#     Node 1, Type 0, BuildingBlock: VETTIZ_charged_linker_0, # of connection points: 3
#     Node 2, Type 0, BuildingBlock: VETTIZ_charged_linker_0, # of connection points: 3
#     Node 3, Type 0, BuildingBlock: VETTIZ_charged_linker_0, # of connection points: 3
#     Node 4, Type 0, BuildingBlock: VETTIZ_charged_linker_0, # of connection points: 3
#     Node 5, Type 0, BuildingBlock: VETTIZ_charged_linker_0, # of connection points: 3
#     Node 6, Type 0, BuildingBlock: VETTIZ_charged_linker_0, # of connection points: 3
#     Node 7, Type 0, BuildingBlock: VETTIZ_charged_linker_0, # of connection points: 3
#     Node 8, Type 1, BuildingBlock: GEDQOX_clean_sbu_0, # of connection points: 6
#     Node 9, Type 1, BuildingBlock: GEDQOX_clean_sbu_0, # of connection points: 6
#     Node 10, Type 1, BuildingBlock: GEDQOX_clean_sbu_0, # of connection points: 6
#     Node 11, Type 1, BuildingBlock: GEDQOX_clean_sbu_0, # of connection points: 6
#     Edge 12, Type (0, 1), BuildingBlock: TEMPAE_clean_linker_10, # of connection points: 2
#     Edge 13, Type (0, 1), BuildingBlock: TEMPAE_clean_linker_10, # of connection points: 2
#     Edge 14, Type (0, 1), BuildingBlock: TEMPAE_clean_linker_10, # of connection points: 2
#     Edge 15, Type (0, 1), BuildingBlock: TEMPAE_clean_linker_10, # of connection points: 2
#     Edge 16, Type (0, 1), BuildingBlock: TEMPAE_clean_linker_10, # of connection points: 2
#     Edge 17, Type (0, 1), BuildingBlock: TEMPAE_clean_linker_10, # of connection points: 2
#     Edge 18, Type (0, 1), BuildingBlock: TEMPAE_clean_linker_10, # of connection points: 2
#     Edge 19, Type (0, 1), BuildingBlock: TEMPAE_clean_linker_10, # of connection points: 2
#     Edge 20, Type (0, 1), BuildingBlock: TEMPAE_clean_linker_10, # of connection points: 2
#     Edge 21, Type (0, 1), BuildingBlock: TEMPAE_clean_linker_10, # of connection points: 2
#     Edge 22, Type (0, 1), BuildingBlock: TEMPAE_clean_linker_10, # of connection points: 2
#     Edge 23, Type (0, 1), BuildingBlock: TEMPAE_clean_linker_10, # of connection points: 2
#     Edge 24, Type (0, 1), BuildingBlock: TEMPAE_clean_linker_10, # of connection points: 2
#     Edge 25, Type (0, 1), BuildingBlock: TEMPAE_clean_linker_10, # of connection points: 2
#     Edge 26, Type (0, 1), BuildingBlock: TEMPAE_clean_linker_10, # of connection points: 2
#     Edge 27, Type (0, 1), BuildingBlock: TEMPAE_clean_linker_10, # of connection points: 2
#     Edge 28, Type (0, 1), BuildingBlock: TEMPAE_clean_linker_10, # of connection points: 2
#     Edge 29, Type (0, 1), BuildingBlock: TEMPAE_clean_linker_10, # of connection points: 2
#     Edge 30, Type (0, 1), BuildingBlock: TEMPAE_clean_linker_10, # of connection points: 2
#     Edge 31, Type (0, 1), BuildingBlock: TEMPAE_clean_linker_10, # of connection points: 2
#     Edge 32, Type (0, 1), BuildingBlock: TEMPAE_clean_linker_10, # of connection points: 2
#     Edge 33, Type (0, 1), BuildingBlock: TEMPAE_clean_linker_10, # of connection points: 2
#     Edge 34, Type (0, 1), BuildingBlock: TEMPAE_clean_linker_10, # of connection points: 2
#     Edge 35, Type (0, 1), BuildingBlock: TEMPAE_clean_linker_10, # of connection points: 2
# Relax obj value: 0.102
# Max RMSD: 0.154
# Mean RMSD: 0.062
data_MOF--net-pyr--node1-GEDQOX_clean_sbu_0--node2-VETTIZ_charged_linker_0--edge1-TEMPAE_clean_linker_10
_symmetry_space_group_name_H-M    P1
_symmetry_Int_Tables_number       1
_symmetry_cell_setting            triclinic
loop_
_symmetry_equiv_pos_as_xyz
'x, y, z'
_cell_length_a     48.587087
_cell_length_b     48.734422
_cell_length_c     43.096789
_cell_angle_alpha  87.976522
_cell_angle_beta   91.77187
_cell_angle_gamma 86.948051
loop_
_atom_site_label
_atom_site_type_symbol
_atom_site_fract_x
_atom_site_fract_y
_atom_site_fract_z
_atom_type_partial_charge
C0 C 0.16834 0.12893 0.25663 0.0
C1 C 0.14501 0.13926 0.2726 0.0
C2 C 0.13253 0.16479 0.26181 0.0
C3 C 0.16579 0.16923 0.22063 0.0
C4 C 0.17855 0.1444 0.2311 0.0
C5 C 0.20395 0.13753 0.21247 0.0
H6 H 0.29085 0.16986 0.09497 0.0
C7 C 0.18142 0.18049 0.19386 0.0
C8 C 0.20416 0.16205 0.18909 0.0
H9 H 0.29717 0.09917 0.15896 0.0
H10 H 0.25596 0.11534 0.18335 0.0
H11 H 0.27259 0.2148 0.14918 0.0
H12 H 0.22121 0.17241 0.08451 0.0
H13 H 0.21282 0.20824 0.08342 0.0
H14 H 0.2462 0.19582 0.0715 0.0
H15 H 0.27362 0.22141 0.10794 0.0
H16 H 0.24729 0.23762 0.13069 0.0
C17 C 0.22945 0.13627 0.23495 0.0
C18 C 0.19952 0.11036 0.19605 0.0
C19 C 0.14439 0.27045 0.13792 0.0
C20 C 0.15406 0.28783 0.11412 0.0
C21 C 0.17944 0.27962 0.10099 0.0
C22 C 0.19438 0.25479 0.11075 0.0
C23 C 0.18442 0.23767 0.13457 0.0
C24 C 0.15991 0.24603 0.14797 0.0
C25 C 0.15314 0.22665 0.17444 0.0
C26 C 0.17688 0.2048 0.17425 0.0
C27 C 0.19537 0.21097 0.1506 0.0
C28 C 0.15352 0.24284 0.2048 0.0
C29 C 0.12513 0.2145 0.16639 0.0
C30 C 0.28359 0.1578 0.1143 0.0
C31 C 0.29797 0.1325 0.12412 0.0
C32 C 0.28691 0.11806 0.14964 0.0
C33 C 0.26277 0.12772 0.16429 0.0
C34 C 0.24873 0.15259 0.15407 0.0
C35 C 0.25925 0.16732 0.12945 0.0
C36 C 0.2416 0.19367 0.12213 0.0
C37 C 0.2188 0.19218 0.14596 0.0
C38 C 0.22313 0.16786 0.1649 0.0
C39 C 0.25963 0.21833 0.12752 0.0
C40 C 0.22984 0.19272 0.08854 0.0
H41 H 0.13159 0.19861 0.22932 0.0
H42 H 0.17879 0.10959 0.26429 0.0
H43 H 0.17814 0.11028 0.18606 0.0
H44 H 0.21314 0.10732 0.17632 0.0
H45 H 0.2027 0.09242 0.21264 0.0
H46 H 0.22757 0.15276 0.25209 0.0
H47 H 0.23166 0.11621 0.24811 0.0
H48 H 0.24879 0.13981 0.22304 0.0
H49 H 0.12536 0.27612 0.14911 0.0
H50 H 0.18762 0.29234 0.08273 0.0
H51 H 0.2133 0.24986 0.09945 0.0
H52 H 0.16774 0.25997 0.20339 0.0
H53 H 0.13271 0.25193 0.20961 0.0
H54 H 0.16141 0.23005 0.2252 0.0
H55 H 0.12419 0.20865 0.14167 0.0
H56 H 0.12163 0.19551 0.18007 0.0
H57 H 0.10775 0.22972 0.16985 0.0
H58 H 0.11463 0.17335 0.27319 0.0
C59 C 0.1425 0.17954 0.23612 0.0
C60 C 0.25995 0.78372 0.73404 0.0
C61 C 0.24538 0.80814 0.74161 0.0
C62 C 0.25627 0.82397 0.76542 0.0
C63 C 0.29775 0.7939 0.7691 0.0
C64 C 0.28623 0.77744 0.74733 0.0
C65 C 0.30632 0.75539 0.73704 0.0
H66 H 0.43728 0.70446 0.72797 0.0
C67 C 0.32698 0.78425 0.77436 0.0
C68 C 0.33214 0.76189 0.75544 0.0
H69 H 0.36322 0.67759 0.68295 0.0
H70 H 0.33555 0.7097 0.71129 0.0
H71 H 0.42066 0.76873 0.72198 0.0
H72 H 0.40889 0.71217 0.79946 0.0
H73 H 0.42319 0.74235 0.81273 0.0
H74 H 0.44252 0.7207 0.78725 0.0
H75 H 0.44915 0.75447 0.74599 0.0
H76 H 0.42902 0.78456 0.75683 0.0
C77 C 0.30962 0.75965 0.70143 0.0
C78 C 0.29568 0.72714 0.74729 0.0
C79 C 0.38827 0.83686 0.84544 0.0
C80 C 0.41699 0.83707 0.85081 0.0
C81 C 0.43397 0.81713 0.8363 0.0
C82 C 0.42257 0.79787 0.81671 0.0
C83 C 0.3939 0.79876 0.81088 0.0
C84 C 0.37737 0.81823 0.82507 0.0
C85 C 0.34776 0.81834 0.81403 0.0
C86 C 0.34888 0.79477 0.79205 0.0
C87 C 0.37592 0.78314 0.79025 0.0
C88 C 0.34003 0.84644 0.79689 0.0
C89 C 0.32989 0.81202 0.84225 0.0
C90 C 0.41506 0.70549 0.72465 0.0
C91 C 0.40227 0.68879 0.70303 0.0
C92 C 0.3734 0.69052 0.6992 0.0
C93 C 0.35739 0.7092 0.7157 0.0
C94 C 0.37032 0.72683 0.73593 0.0
C95 C 0.39861 0.72449 0.74083 0.0
C96 C 0.40832 0.74527 0.76343 0.0
C97 C 0.38119 0.76049 0.7708 0.0
C98 C 0.35921 0.74965 0.75417 0.0
C99 C 0.42799 0.76426 0.74645 0.0
C100 C 0.42162 0.72947 0.79229 0.0
H101 H 0.28974 0.83003 0.79676 0.0
H102 H 0.252 0.77071 0.71637 0.0
H103 H 0.28394 0.72864 0.769 0.0
H104 H 0.3126 0.71153 0.75306 0.0
H105 H 0.28171 0.71925 0.72918 0.0
H106 H 0.3077 0.78187 0.69436 0.0
H107 H 0.29355 0.74919 0.68813 0.0
H108 H 0.33009 0.75264 0.69349 0.0
H109 H 0.37424 0.85128 0.85632 0.0
H110 H 0.45617 0.81678 0.83929 0.0
H111 H 0.43658 0.78346 0.80622 0.0
H112 H 0.35857 0.85696 0.78926 0.0
H113 H 0.32852 0.86066 0.81207 0.0
H114 H 0.32774 0.84422 0.77516 0.0
H115 H 0.33964 0.79468 0.8569 0.0
H116 H 0.30917 0.80561 0.8354 0.0
H117 H 0.32753 0.83017 0.85701 0.0
H118 H 0.24562 0.84289 0.77188 0.0
C119 C 0.28223 0.81676 0.77945 0.0
C120 C 0.67606 0.34387 0.93812 0.0
C121 C 0.64821 0.338 0.93351 0.0
C122 C 0.63168 0.35396 0.91149 0.0
C123 C 0.67138 0.37827 0.89593 0.0
C124 C 0.68711 0.36433 0.91929 0.0
C125 C 0.71636 0.3732 0.9204 0.0
H126 H 0.8132 0.45285 0.85985 0.0
C127 C 0.68962 0.39548 0.87788 0.0
C128 C 0.71589 0.39313 0.89238 0.0
H129 H 0.81938 0.40148 0.94373 0.0
H130 H 0.77342 0.38635 0.93368 0.0
H131 H 0.74817 0.47634 0.86358 0.0
H132 H 0.7876 0.40763 0.81928 0.0
H133 H 0.75719 0.41643 0.79728 0.0
H134 H 0.78371 0.44093 0.8002 0.0
H135 H 0.77274 0.47892 0.83339 0.0
H136 H 0.73689 0.47544 0.82408 0.0
C137 C 0.72123 0.38776 0.95137 0.0
C138 C 0.73602 0.34767 0.91602 0.0
C139 C 0.6546 0.43658 0.77381 0.0
C140 C 0.66778 0.44791 0.74813 0.0
C141 C 0.69581 0.45395 0.75174 0.0
C142 C 0.71048 0.44789 0.78003 0.0
C143 C 0.69718 0.43523 0.8048 0.0
C144 C 0.6697 0.42974 0.80129 0.0
C145 C 0.65944 0.41367 0.82851 0.0
C146 C 0.68535 0.41028 0.84906 0.0
C147 C 0.70727 0.42334 0.8354 0.0
C148 C 0.63647 0.43145 0.84365 0.0
C149 C 0.65016 0.38581 0.81659 0.0
C150 C 0.80444 0.4384 0.87595 0.0
C151 C 0.81946 0.42849 0.90276 0.0
C152 C 0.80794 0.40931 0.92301 0.0
C153 C 0.78127 0.40075 0.91724 0.0
C154 C 0.76613 0.41128 0.89074 0.0
C155 C 0.77793 0.42933 0.87023 0.0
C156 C 0.75921 0.43706 0.84241 0.0
C157 C 0.73347 0.42255 0.85105 0.0
C158 C 0.73774 0.4074 0.8793 0.0
C159 C 0.75395 0.46865 0.84054 0.0
C160 C 0.77253 0.42512 0.81316 0.0
H161 H 0.62965 0.38491 0.87575 0.0
H162 H 0.68907 0.33222 0.95529 0.0
H163 H 0.72779 0.33481 0.89741 0.0
H164 H 0.75668 0.35302 0.90866 0.0
H165 H 0.73837 0.33467 0.93774 0.0
H166 H 0.70164 0.39701 0.96008 0.0
H167 H 0.73019 0.37312 0.96977 0.0
H168 H 0.73468 0.40525 0.94882 0.0
H169 H 0.63298 0.43227 0.77247 0.0
H170 H 0.70671 0.46257 0.73249 0.0
H171 H 0.73176 0.45272 0.78134 0.0
H172 H 0.63974 0.45378 0.84032 0.0
H173 H 0.61582 0.42771 0.83338 0.0
H174 H 0.63623 0.42794 0.86915 0.0
H175 H 0.66435 0.37785 0.7988 0.0
H176 H 0.65054 0.36929 0.83472 0.0
H177 H 0.62911 0.3881 0.80569 0.0
H178 H 0.61022 0.34978 0.90743 0.0
C179 C 0.64309 0.37412 0.8928 0.0
C180 C 0.9101 0.84218 0.33754 0.0
C181 C 0.91206 0.84423 0.37004 0.0
C182 C 0.89862 0.82528 0.38897 0.0
C183 C 0.88125 0.80331 0.34347 0.0
C184 C 0.89453 0.82168 0.32478 0.0
C185 C 0.88989 0.8167 0.29075 0.0
H186 H 0.82892 0.74178 0.18121 0.0
C187 C 0.86605 0.7852 0.32322 0.0
C188 C 0.87067 0.79313 0.29223 0.0
H189 H 0.88994 0.80187 0.16707 0.0
H190 H 0.889 0.81243 0.22173 0.0
H191 H 0.85889 0.7138 0.23193 0.0
H192 H 0.79179 0.77445 0.23501 0.0
H193 H 0.78585 0.74876 0.26329 0.0
H194 H 0.78784 0.73994 0.22306 0.0
H195 H 0.82372 0.70497 0.22697 0.0
H196 H 0.84086 0.70433 0.26475 0.0
C197 C 0.91799 0.80794 0.27705 0.0
C198 C 0.87566 0.84293 0.27494 0.0
C199 C 0.81145 0.70907 0.37089 0.0
C200 C 0.79426 0.68997 0.35775 0.0
C201 C 0.79003 0.69016 0.32528 0.0
C202 C 0.80264 0.70913 0.30612 0.0
C203 C 0.8198 0.72811 0.3195 0.0
C204 C 0.82388 0.72799 0.35135 0.0
C205 C 0.84206 0.75035 0.36135 0.0
C206 C 0.84879 0.76333 0.3301 0.0
C207 C 0.83573 0.75015 0.30584 0.0
C208 C 0.86803 0.73654 0.37835 0.0
C209 C 0.82491 0.77047 0.38125 0.0
C210 C 0.84113 0.7582 0.18943 0.0
C211 C 0.85913 0.77137 0.16972 0.0
C212 C 0.8757 0.79164 0.18182 0.0
C213 C 0.8754 0.79741 0.21358 0.0
C214 C 0.85886 0.78225 0.23342 0.0
C215 C 0.84186 0.76331 0.22101 0.0
C216 C 0.82837 0.74645 0.24534 0.0
C217 C 0.83997 0.75832 0.27459 0.0
C218 C 0.85751 0.77954 0.26767 0.0
C219 C 0.83816 0.71577 0.24217 0.0
C220 C 0.79677 0.75241 0.24155 0.0
H221 H 0.87344 0.79128 0.39159 0.0
H222 H 0.9204 0.85624 0.32236 0.0
H223 H 0.85863 0.85107 0.28929 0.0
H224 H 0.86612 0.83921 0.25202 0.0
H225 H 0.89053 0.8593 0.27205 0.0
H226 H 0.93178 0.79661 0.29481 0.0
H227 H 0.92883 0.82611 0.26855 0.0
H228 H 0.91597 0.79349 0.25803 0.0
H229 H 0.81461 0.70972 0.39584 0.0
H230 H 0.77694 0.67553 0.31469 0.0
H231 H 0.79853 0.70821 0.28161 0.0
H232 H 0.87555 0.71805 0.36604 0.0
H233 H 0.86341 0.72982 0.40245 0.0
H234 H 0.88561 0.74995 0.37918 0.0
H235 H 0.8025 0.77041 0.37509 0.0
H236 H 0.83008 0.79212 0.37731 0.0
H237 H 0.82755 0.76484 0.40641 0.0
H238 H 0.89936 0.82666 0.41401 0.0
C239 C 0.88331 0.80488 0.37589 0.0
C240 C 0.88196 0.77571 0.91393 0.0
C241 C 0.9046 0.76039 0.9015 0.0
C242 C 0.91587 0.77128 0.87417 0.0
C243 C 0.88312 0.8113 0.87227 0.0
C244 C 0.87137 0.80083 0.89872 0.0
C245 C 0.84656 0.81919 0.90734 0.0
H246 H 0.7606 0.93512 0.87615 0.0
C247 C 0.86782 0.83786 0.86202 0.0
C248 C 0.84603 0.84267 0.88246 0.0
H249 H 0.75402 0.87354 0.94996 0.0
H250 H 0.79488 0.84907 0.93283 0.0
H251 H 0.78021 0.89292 0.82076 0.0
H252 H 0.82769 0.93826 0.88604 0.0
H253 H 0.84281 0.94014 0.84955 0.0
H254 H 0.80846 0.9552 0.85395 0.0
H255 H 0.77835 0.92986 0.82104 0.0
H256 H 0.80532 0.91149 0.80145 0.0
C257 C 0.82063 0.80232 0.9047 0.0
C258 C 0.85207 0.82971 0.94019 0.0
C259 C 0.90198 0.89282 0.76793 0.0
C260 C 0.89461 0.91899 0.75397 0.0
C261 C 0.87241 0.93436 0.76662 0.0
C262 C 0.85773 0.92393 0.79199 0.0
C263 C 0.8654 0.89781 0.80579 0.0
C264 C 0.88751 0.88294 0.79386 0.0
C265 C 0.89398 0.85635 0.81241 0.0
C266 C 0.87214 0.85741 0.8372 0.0
C267 C 0.85495 0.88162 0.8331 0.0
C268 C 0.89006 0.83224 0.79049 0.0
C269 C 0.92351 0.85735 0.82684 0.0
C270 C 0.76777 0.91645 0.88889 0.0
C271 C 0.75281 0.90653 0.91451 0.0
C272 C 0.76383 0.88183 0.92975 0.0
C273 C 0.78799 0.86748 0.91983 0.0
C274 C 0.80219 0.87745 0.89409 0.0
C275 C 0.79207 0.90178 0.87924 0.0
C276 C 0.81031 0.90992 0.85285 0.0
C277 C 0.83232 0.88618 0.85347 0.0
C278 C 0.82769 0.86695 0.87795 0.0
C279 C 0.79273 0.91132 0.82229 0.0
C280 C 0.82293 0.93742 0.86068 0.0
H281 H 0.91548 0.80304 0.83921 0.0
H282 H 0.87235 0.76803 0.93459 0.0
H283 H 0.87335 0.83693 0.94239 0.0
H284 H 0.83816 0.84743 0.9455 0.0
H285 H 0.84996 0.81311 0.95816 0.0
H286 H 0.82098 0.79019 0.88331 0.0
H287 H 0.81957 0.78769 0.92493 0.0
H288 H 0.80135 0.81533 0.90274 0.0
H289 H 0.91909 0.8805 0.75927 0.0
H290 H 0.86619 0.95451 0.75657 0.0
H291 H 0.84093 0.9367 0.80003 0.0
H292 H 0.87252 0.83712 0.77364 0.0
H293 H 0.90879 0.82797 0.77694 0.0
H294 H 0.88471 0.81315 0.80294 0.0
H295 H 0.92765 0.87853 0.83388 0.0
H296 H 0.9268 0.84449 0.84836 0.0
H297 H 0.93929 0.8511 0.80998 0.0
H298 H 0.93318 0.76043 0.86392 0.0
C299 C 0.90553 0.79631 0.85978 0.0
C300 C 0.79115 0.26247 0.29905 0.0
C301 C 0.80706 0.2403 0.28767 0.0
C302 C 0.79591 0.22528 0.26334 0.0
C303 C 0.75263 0.25225 0.26497 0.0
C304 C 0.76413 0.26802 0.28746 0.0
C305 C 0.74397 0.28972 0.29853 0.0
H306 H 0.61266 0.34051 0.30729 0.0
C307 C 0.72324 0.26149 0.26054 0.0
C308 C 0.71809 0.28354 0.27996 0.0
H309 H 0.68661 0.37071 0.34908 0.0
H310 H 0.71447 0.33685 0.32306 0.0
H311 H 0.6307 0.27447 0.313 0.0
H312 H 0.63911 0.33503 0.23881 0.0
H313 H 0.62975 0.30429 0.22227 0.0
H314 H 0.60637 0.3218 0.24768 0.0
H315 H 0.60159 0.29065 0.29152 0.0
H316 H 0.62011 0.26087 0.27747 0.0
C317 C 0.74071 0.28457 0.33391 0.0
C318 C 0.75446 0.31834 0.28942 0.0
C319 C 0.66108 0.20859 0.19044 0.0
C320 C 0.6326 0.21038 0.18333 0.0
C321 C 0.61594 0.23081 0.19725 0.0
C322 C 0.6275 0.24913 0.21781 0.0
C323 C 0.65604 0.24697 0.2247 0.0
C324 C 0.67226 0.22692 0.21101 0.0
C325 C 0.70202 0.22703 0.22143 0.0
C326 C 0.70123 0.2509 0.24305 0.0
C327 C 0.67423 0.26248 0.24512 0.0
C328 C 0.70983 0.19921 0.23895 0.0
C329 C 0.71937 0.2329 0.19259 0.0
C330 C 0.63487 0.33963 0.31074 0.0
C331 C 0.64759 0.358 0.3304 0.0
C332 C 0.6765 0.35675 0.33399 0.0
C333 C 0.69261 0.33702 0.31894 0.0
C334 C 0.67974 0.31835 0.29993 0.0
C335 C 0.65141 0.32024 0.29534 0.0
C336 C 0.64182 0.29974 0.27245 0.0
C337 C 0.66901 0.28488 0.26484 0.0
C338 C 0.69098 0.29564 0.28156 0.0
C339 C 0.62237 0.2804 0.28923 0.0
C340 C 0.62835 0.31585 0.24379 0.0
H341 H 0.76134 0.21853 0.23395 0.0
H342 H 0.79894 0.27434 0.31786 0.0
H343 H 0.76882 0.31722 0.26982 0.0
H344 H 0.73752 0.33308 0.28092 0.0
H345 H 0.76568 0.32722 0.3092 0.0
H346 H 0.73897 0.26227 0.33945 0.0
H347 H 0.75882 0.29146 0.34731 0.0
H348 H 0.72196 0.29483 0.34282 0.0
H349 H 0.67442 0.19283 0.18068 0.0
H350 H 0.59395 0.23275 0.19203 0.0
H351 H 0.61376 0.26418 0.22767 0.0
H352 H 0.69215 0.19193 0.25222 0.0
H353 H 0.71577 0.18303 0.22252 0.0
H354 H 0.72659 0.20053 0.2566 0.0
H355 H 0.70785 0.24742 0.17573 0.0
H356 H 0.73858 0.24305 0.19836 0.0
H357 H 0.72456 0.21372 0.18035 0.0
H358 H 0.80789 0.20843 0.2537 0.0
C359 C 0.76884 0.23116 0.25192 0.0
C360 C 0.39399 0.61018 0.26735 0.0
C361 C 0.38282 0.59283 0.28976 0.0
C362 C 0.35597 0.58388 0.28455 0.0
C363 C 0.35203 0.60996 0.23531 0.0
C364 C 0.37836 0.61853 0.24067 0.0
C365 C 0.38713 0.63816 0.21581 0.0
H366 H 0.35392 0.72327 0.0927 0.0
C367 C 0.34106 0.62379 0.20595 0.0
C368 C 0.36156 0.64045 0.19471 0.0
H369 H 0.43227 0.7106 0.14287 0.0
H370 H 0.4147 0.67359 0.17331 0.0
H371 H 0.31485 0.7164 0.14984 0.0
H372 H 0.34627 0.65833 0.08522 0.0
H373 H 0.31317 0.64833 0.09389 0.0
H374 H 0.31727 0.68165 0.07543 0.0
H375 H 0.30354 0.71656 0.10978 0.0
H376 H 0.28763 0.69595 0.13901 0.0
C377 C 0.39275 0.66576 0.23112 0.0
C378 C 0.41224 0.62458 0.19966 0.0
C379 C 0.24571 0.6051 0.16139 0.0
C380 C 0.23011 0.61667 0.13567 0.0
C381 C 0.24063 0.63818 0.1178 0.0
C382 C 0.26665 0.64768 0.12487 0.0
C383 C 0.28226 0.63574 0.15031 0.0
C384 C 0.27162 0.61515 0.16849 0.0
C385 C 0.29073 0.60617 0.19564 0.0
C386 C 0.31524 0.62349 0.18948 0.0
C387 C 0.31004 0.64074 0.16287 0.0
C388 C 0.27638 0.61396 0.22595 0.0
C389 C 0.29837 0.57511 0.19356 0.0
C390 C 0.36722 0.71229 0.11015 0.0
C391 C 0.3944 0.71987 0.11563 0.0
C392 C 0.41132 0.70495 0.13812 0.0
C393 C 0.40099 0.68362 0.156 0.0
C394 C 0.37341 0.6771 0.1514 0.0
C395 C 0.35729 0.6906 0.12806 0.0
C396 C 0.32902 0.67951 0.12547 0.0
C397 C 0.33056 0.65806 0.15206 0.0
C398 C 0.35642 0.65722 0.16742 0.0
C399 C 0.30744 0.70324 0.13107 0.0
C400 C 0.32598 0.6664 0.09334 0.0
H401 H 0.32031 0.58469 0.25447 0.0
H402 H 0.41434 0.61783 0.2709 0.0
H403 H 0.41234 0.60174 0.20156 0.0
H404 H 0.41189 0.62942 0.17435 0.0
H405 H 0.43201 0.63077 0.21021 0.0
H406 H 0.37711 0.67061 0.24874 0.0
H407 H 0.41338 0.66477 0.24308 0.0
H408 H 0.39133 0.68362 0.21463 0.0
H409 H 0.23779 0.58881 0.17574 0.0
H410 H 0.22886 0.64729 0.09791 0.0
H411 H 0.27362 0.66394 0.11018 0.0
H412 H 0.26261 0.63286 0.22223 0.0
H413 H 0.26356 0.59723 0.23445 0.0
H414 H 0.29113 0.61901 0.24463 0.0
H415 H 0.30387 0.57016 0.16944 0.0
H416 H 0.31644 0.5682 0.20849 0.0
H417 H 0.28076 0.56268 0.20002 0.0
H418 H 0.34699 0.57036 0.30148 0.0
C419 C 0.34056 0.59222 0.25731 0.0
C420 C 0.16663 0.16954 0.71469 0.0
C421 C 0.16899 0.16029 0.68423 0.0
C422 C 0.1914 0.16827 0.66661 0.0
C423 C 0.20874 0.19376 0.70943 0.0
C424 C 0.18678 0.18615 0.72684 0.0
C425 C 0.18749 0.19826 0.75856 0.0
H426 H 0.25152 0.2789 0.8599 0.0
C427 C 0.22623 0.21069 0.7286 0.0
C428 C 0.21429 0.21301 0.75769 0.0
H429 H 0.16936 0.24925 0.86416 0.0
H430 H 0.17805 0.22135 0.81993 0.0
H431 H 0.24413 0.29876 0.80002 0.0
H432 H 0.28517 0.22187 0.82919 0.0
H433 H 0.30514 0.23751 0.80071 0.0
H434 H 0.29782 0.25518 0.83588 0.0
H435 H 0.2805 0.29617 0.80846 0.0
H436 H 0.26629 0.29178 0.76991 0.0
C437 C 0.16196 0.21855 0.7608 0.0
C438 C 0.18902 0.17452 0.78341 0.0
C439 C 0.30386 0.26053 0.67995 0.0
C440 C 0.32215 0.27923 0.69189 0.0
C441 C 0.32478 0.28183 0.72428 0.0
C442 C 0.30779 0.26774 0.74428 0.0
C443 C 0.28773 0.25122 0.73171 0.0
C444 C 0.28686 0.24679 0.70024 0.0
C445 C 0.26451 0.22814 0.6912 0.0
C446 C 0.2508 0.22394 0.7221 0.0
C447 C 0.26432 0.23776 0.74558 0.0
C448 C 0.24486 0.24383 0.66679 0.0
C449 C 0.2783 0.20104 0.67978 0.0
C450 C 0.23551 0.26602 0.85174 0.0
C451 C 0.20956 0.26681 0.86529 0.0
C452 C 0.18956 0.24923 0.85423 0.0
C453 C 0.19441 0.23346 0.82808 0.0
C454 C 0.21915 0.2359 0.81239 0.0
C455 C 0.23939 0.25164 0.82464 0.0
C456 C 0.26236 0.25572 0.80269 0.0
C457 C 0.25255 0.23994 0.77515 0.0
C458 C 0.22751 0.22791 0.78112 0.0
C459 C 0.26367 0.2871 0.79488 0.0
C460 C 0.2892 0.24205 0.81782 0.0
H461 H 0.22776 0.19006 0.66443 0.0
H462 H 0.1497 0.16378 0.72887 0.0
H463 H 0.20495 0.15844 0.77759 0.0
H464 H 0.19486 0.18131 0.80676 0.0
H465 H 0.16894 0.16472 0.78473 0.0
H466 H 0.15376 0.22602 0.73745 0.0
H467 H 0.14494 0.20869 0.77282 0.0
H468 H 0.1669 0.23747 0.7728 0.0
H469 H 0.30193 0.25766 0.65519 0.0
H470 H 0.3388 0.29603 0.73405 0.0
H471 H 0.30995 0.27133 0.76861 0.0
H472 H 0.24048 0.26539 0.67363 0.0
H473 H 0.25421 0.24452 0.6436 0.0
H474 H 0.22455 0.23493 0.66437 0.0
H475 H 0.29991 0.19762 0.68898 0.0
H476 H 0.2678 0.18267 0.68807 0.0
H477 H 0.27891 0.20122 0.65403 0.0
H478 H 0.19344 0.16203 0.64288 0.0
C479 C 0.21131 0.18471 0.6791 0.0
Nd480 Nd 0.04354 1.00238 0.51633 0.0
Nd481 Nd 1.0017 0.04895 0.51205 0.0
C482 C 0.07725 0.95858 0.51294 0.0
C483 C 0.08984 0.9388 0.53647 0.0
C484 C 0.07478 0.92953 0.56177 0.0
C485 C 0.08797 0.91354 0.58598 0.0
C486 C 0.11644 0.90704 0.58546 0.0
C487 C 0.13127 0.91573 0.55974 0.0
C488 C 0.11804 0.93141 0.5354 0.0
C489 C 0.05067 0.03995 0.56148 0.0
C490 C 0.99421 1.00216 0.56681 0.0
C491 C 0.97394 0.09725 0.50831 0.0
C492 C 0.9684 0.11945 0.48472 0.0
C493 C 0.95805 0.14524 0.49362 0.0
C494 C 0.94847 0.1651 0.4711 0.0
C495 C 0.94885 0.1593 0.43933 0.0
C496 C 0.96107 0.13403 0.43055 0.0
C497 C 0.97082 0.1143 0.45308 0.0
C498 C 0.98562 1.00252 0.48404 0.0
C499 C 0.04991 0.04905 0.45928 0.0
O500 O 0.05051 0.95803 0.50793 0.0
O501 O 0.08584 0.98353 0.51436 0.0
O502 O 0.0541 1.01363 0.56644 0.0
O503 O 0.04459 0.0456 0.53328 0.0
O504 O 1.01062 0.98638 0.54995 0.0
O505 O 0.99071 0.02888 0.55972 0.0
O506 O 0.9991 0.09392 0.51994 0.0
O507 O 0.96309 0.07403 0.50224 0.0
O508 O 0.96956 1.01741 0.50099 0.0
O509 O 1.00887 1.01247 0.48191 0.0
O510 O 1.02573 0.05996 0.46753 0.0
O511 O 0.06159 0.02744 0.47517 0.0
H512 H 0.05305 0.93534 0.56335 0.0
H513 H 0.07617 0.90719 0.60566 0.0
H514 H 0.15321 0.91073 0.55873 0.0
H515 H 0.13002 0.93854 0.51621 0.0
H516 H 0.95624 0.14959 0.51798 0.0
H517 H 0.93967 0.18455 0.47861 0.0
H518 H 0.96151 0.12873 0.40638 0.0
H519 H 0.97889 0.09447 0.4458 0.0
Nd520 Nd 0.52835 1.00983 0.03889 0.0
Nd521 Nd 0.52412 0.04242 0.98736 0.0
C522 C 0.53352 0.96751 0.07915 0.0
C523 C 0.52022 0.94106 0.08059 0.0
C524 C 0.51972 0.92416 0.05483 0.0
C525 C 0.50515 0.90025 0.0556 0.0
C526 C 0.49058 0.89286 0.08202 0.0
C527 C 0.49128 0.90976 0.10784 0.0
C528 C 0.50605 0.93357 0.10714 0.0
C529 C 0.4831 0.04736 0.0445 0.0
C530 C 0.49559 0.98711 0.97793 0.0
C531 C 0.52035 0.0844 0.94643 0.0
C532 C 0.52869 0.11293 0.94737 0.0
C533 C 0.5241 0.12873 0.97356 0.0
C534 C 0.53539 0.15439 0.97578 0.0
C535 C 0.55158 0.1646 0.95199 0.0
C536 C 0.55547 0.14903 0.92544 0.0
C537 C 0.54408 0.12346 0.92316 0.0
C538 C 0.56909 1.00437 0.98248 0.0
C539 C 0.55589 0.06527 0.04812 0.0
O540 O 0.55042 0.97122 0.05661 0.0
O541 O 0.51743 0.98923 0.0833 0.0
O542 O 0.50252 0.04175 0.06542 0.0
O543 O 0.48863 0.03426 0.02 0.0
O544 O 0.50824 0.98069 1.00478 0.0
O545 O 0.49595 1.01212 0.96592 0.0
O546 O 0.50006 0.07764 0.96379 0.0
O547 O 0.54063 0.0658 0.94769 0.0
O548 O 0.54952 1.00945 0.96164 0.0
O549 O 0.5637 1.01816 1.00646 0.0
O550 O 0.53981 0.07207 0.02371 0.0
O551 O 0.55908 0.03939 0.05734 0.0
H552 H 0.53027 0.92952 0.03387 0.0
H553 H 0.50538 0.88754 0.03548 0.0
H554 H 0.47993 0.90493 0.12838 0.0
H555 H 0.5059 0.94647 0.12711 0.0
H556 H 0.5124 0.12099 0.99266 0.0
H557 H 0.53164 0.16613 0.99623 0.0
H558 H 0.56811 0.15616 0.90686 0.0
H559 H 0.5481 0.11146 0.90294 0.0
Nd560 Nd 0.50145 0.50297 0.51644 0.0
Nd561 Nd 0.55031 0.53979 0.52132 0.0
C562 C 0.4542 0.47944 0.5079 0.0
C563 C 0.43564 0.46374 0.52674 0.0
C564 C 0.41732 0.44679 0.512 0.0
C565 C 0.40285 0.4281 0.52949 0.0
C566 C 0.40656 0.42613 0.56197 0.0
C567 C 0.42396 0.44412 0.57678 0.0
C568 C 0.43854 0.46274 0.55924 0.0
C569 C 0.54021 0.48739 0.5622 0.0
C570 C 0.49762 0.5572 0.56032 0.0
C571 C 0.5988 0.55985 0.53298 0.0
C572 C 0.62495 0.56445 0.51836 0.0
C573 C 0.64673 0.5739 0.53632 0.0
C574 C 0.67086 0.58129 0.52227 0.0
C575 C 0.67345 0.57935 0.49003 0.0
C576 C 0.65207 0.56844 0.47236 0.0
C577 C 0.62792 0.56104 0.48647 0.0
C578 C 0.511 0.55574 0.47582 0.0
C579 C 0.55316 0.4884 0.47435 0.0
O580 O 0.45568 0.50556 0.51345 0.0
O581 O 0.47828 0.46701 0.50415 0.0
O582 O 0.52737 0.46979 0.54614 0.0
O583 O 0.53117 0.51143 0.55541 0.0
O584 O 0.48359 0.5404 0.54304 0.0
O585 O 0.52471 0.55716 0.55987 0.0
O586 O 0.59351 0.53425 0.53931 0.0
O587 O 0.57734 0.57479 0.52179 0.0
O588 O 0.52516 0.57331 0.49064 0.0
O589 O 0.5199 0.53175 0.483 0.0
O590 O 0.56767 0.50325 0.49332 0.0
O591 O 0.52598 0.48969 0.47453 0.0
H592 H 0.41506 0.44724 0.48689 0.0
H593 H 0.38931 0.41466 0.51757 0.0
H594 H 0.42734 0.44286 0.60177 0.0
H595 H 0.45294 0.4755 0.57089 0.0
H596 H 0.64472 0.57642 0.56105 0.0
H597 H 0.68714 0.58936 0.53645 0.0
H598 H 0.6534 0.56699 0.44743 0.0
H599 H 0.61121 0.55363 0.47238 0.0
Nd600 Nd 1.00388 0.52219 0.03765 0.0
Nd601 Nd 0.04686 0.5265 0.99046 0.0
C602 C 0.9565 0.52782 0.06554 0.0
C603 C 0.94023 0.55375 0.06917 0.0
C604 C 0.9124 0.55413 0.07687 0.0
C605 C 0.89731 0.57931 0.07908 0.0
C606 C 0.9098 0.60425 0.07287 0.0
C607 C 0.93755 0.60364 0.06482 0.0
C608 C 0.95267 0.57869 0.06338 0.0
C609 C 0.05043 0.5453 0.05935 0.0
C610 C 1.00233 0.57791 0.98863 0.0
C611 C 0.09375 0.52112 0.96226 0.0
C612 C 0.10663 0.49467 0.95359 0.0
C613 C 0.13534 0.48984 0.95493 0.0
C614 C 0.14694 0.46337 0.95051 0.0
C615 C 0.1299 0.44147 0.9448 0.0
C616 C 0.10119 0.44654 0.94351 0.0
C617 C 0.08969 0.47279 0.94797 0.0
C618 C 1.00046 0.50257 0.96934 0.0
C619 C 0.04841 0.46991 0.03858 0.0
O620 O 0.95832 0.52013 0.0369 0.0
O621 O 0.9803 0.5258 0.08068 0.0
O622 O 0.03625 0.52882 0.07592 0.0
O623 O 0.03913 0.5505 0.03287 0.0
O624 O 0.98851 0.56066 1.00595 0.0
O625 O 0.0283 0.57123 0.98228 0.0
O626 O 0.0926 0.52419 0.99224 0.0
O627 O 0.07049 0.52859 0.94737 0.0
O628 O 1.01424 0.51916 0.95238 0.0
O629 O 1.01208 0.49788 0.99567 0.0
O630 O 0.06118 0.48564 0.01841 0.0
O631 O 1.0237 0.47808 0.04827 0.0
H632 H 0.90243 0.53508 0.08126 0.0
H633 H 0.87595 0.57935 0.08558 0.0
H634 H 0.94783 0.62255 0.06059 0.0
H635 H 0.97426 0.57892 0.05793 0.0
H636 H 0.14869 0.50634 0.95995 0.0
H637 H 0.16917 0.46004 0.9514 0.0
H638 H 0.08753 0.43002 0.93977 0.0
H639 H 0.06742 0.4758 0.94787 0.0
C640 C 0.1251 0.09716 0.29925 0.0
C641 C 0.13339 0.12435 0.30056 0.0
C642 C 0.11161 0.08429 0.32433 0.0
C643 C 0.10674 0.09843 0.35219 0.0
C644 C 0.11588 0.1256 0.35389 0.0
C645 C 0.12854 0.13821 0.32819 0.0
C646 C 0.10184 0.0557 0.32063 0.0
C647 C 0.11219 0.14155 0.38298 0.0
C648 C 0.04974 0.07806 0.40859 0.0
C649 C 0.06431 0.0613 0.43156 0.0
C650 C 0.06301 0.08957 0.38258 0.0
C651 C 0.09197 0.08512 0.37934 0.0
C652 C 0.1068 0.06844 0.40266 0.0
C653 C 0.09289 0.05656 0.42796 0.0
C654 C 0.04586 0.1065 0.35838 0.0
C655 C 0.13764 0.06354 0.40125 0.0
H656 H 0.12827 0.08623 0.27807 0.0
H657 H 0.13479 0.15915 0.32975 0.0
H658 H 0.11133 0.04158 0.33917 0.0
H659 H 0.07916 0.05592 0.32316 0.0
H660 H 0.10691 0.04738 0.29771 0.0
H661 H 0.12183 0.16169 0.38157 0.0
H662 H 0.08991 0.14526 0.38713 0.0
H663 H 0.12138 0.12943 0.40338 0.0
H664 H 1.02772 0.08195 0.41069 0.0
H665 H 0.10464 0.04392 0.44541 0.0
H666 H 0.04898 0.09803 0.3351 0.0
H667 H 0.05255 0.12791 0.35744 0.0
H668 H 1.0235 0.10701 0.36318 0.0
H669 H 0.14297 0.05343 0.37942 0.0
H670 H 0.14641 0.0505 0.4212 0.0
H671 H 0.14763 0.0835 0.40109 0.0
C672 C 0.41537 0.88485 0.87173 0.0
C673 C 0.42893 0.85868 0.87038 0.0
C674 C 0.42565 0.90518 0.89048 0.0
C675 C 0.45097 0.89995 0.90723 0.0
C676 C 0.46523 0.87396 0.90555 0.0
C677 C 0.45381 0.8535 0.88767 0.0
C678 C 0.40933 0.93232 0.89232 0.0
C679 C 0.49272 0.86785 0.92235 0.0
C680 C 0.48803 0.9639 0.92813 0.0
C681 C 0.48344 0.9653 0.95996 0.0
C682 C 0.47841 0.94219 0.91097 0.0
C683 C 0.46276 0.92209 0.92574 0.0
C684 C 0.45763 0.92377 0.95784 0.0
C685 C 0.46867 0.94499 0.97476 0.0
C686 C 0.4853 0.94058 0.87713 0.0
C687 C 0.44022 0.90339 0.97423 0.0
H688 H 0.39669 0.8898 0.85788 0.0
H689 H 0.46444 0.83342 0.88742 0.0
H690 H 0.40612 0.93716 0.91696 0.0
H691 H 0.42097 0.94909 0.88187 0.0
H692 H 0.38888 0.93227 0.88006 0.0
H693 H 0.50204 0.84729 0.91709 0.0
H694 H 0.50729 0.88369 0.91576 0.0
H695 H 0.49023 0.86867 0.94778 0.0
H696 H 0.49998 0.97933 0.91686 0.0
H697 H 0.46531 0.94602 0.99947 0.0
H698 H 0.46615 0.94291 0.86239 0.0
H699 H 0.49527 0.92012 0.87274 0.0
H700 H 0.4993 0.95671 0.86973 0.0
H701 H 0.42035 0.90172 0.96122 0.0
H702 H 0.43583 0.90923 0.99834 0.0
H703 H 0.45102 0.88275 0.97513 0.0
C704 C 0.63184 0.43434 0.70936 0.0
C705 C 0.65229 0.45232 0.71774 0.0
C706 C 0.61494 0.43947 0.68267 0.0
C707 C 0.61939 0.46242 0.66285 0.0
C708 C 0.6412 0.47959 0.66982 0.0
C709 C 0.6571 0.47463 0.69747 0.0
C710 C 0.5915 0.421 0.67651 0.0
C711 C 0.64721 0.50368 0.64857 0.0
C712 C 0.58281 0.46204 0.5836 0.0
C713 C 0.56034 0.48054 0.58769 0.0
C714 C 0.60301 0.45683 0.60743 0.0
C715 C 0.59977 0.46951 0.63629 0.0
C716 C 0.57678 0.48798 0.64046 0.0
C717 C 0.55768 0.49376 0.61579 0.0
C718 C 0.62787 0.43801 0.60168 0.0
C719 C 0.57198 0.50114 0.67118 0.0
H720 H 0.6286 0.41634 0.72398 0.0
H721 H 0.67275 0.48871 0.70352 0.0
H722 H 0.57156 0.43323 0.67652 0.0
H723 H 0.59323 0.41214 0.65328 0.0
H724 H 0.59098 0.40388 0.69416 0.0
H725 H 0.66725 0.51238 0.65474 0.0
H726 H 0.64754 0.49741 0.62407 0.0
H727 H 0.63069 0.52012 0.65006 0.0
H728 H 0.58499 0.45232 0.56149 0.0
H729 H 0.54023 0.50817 0.61868 0.0
H730 H 0.62789 0.41935 0.61715 0.0
H731 H 0.64705 0.44849 0.60724 0.0
H732 H 0.62837 0.43156 0.57723 0.0
H733 H 0.57074 0.48496 0.6898 0.0
H734 H 0.5527 0.51449 0.67073 0.0
H735 H 0.58951 0.51373 0.67746 0.0
C736 C 0.84311 0.74933 0.12149 0.0
C737 C 0.86492 0.75854 0.1398 0.0
C738 C 0.84732 0.727 0.10222 0.0
C739 C 0.87395 0.71389 0.10132 0.0
C740 C 0.89665 0.72594 0.11587 0.0
C741 C 0.89185 0.74829 0.13492 0.0
C742 C 0.82269 0.71548 0.08615 0.0
C743 C 0.92554 0.71299 0.1149 0.0
C744 C 0.88371 0.63643 0.10614 0.0
C745 C 0.89516 0.63112 0.07745 0.0
C746 C 0.87505 0.66325 0.11347 0.0
C747 C 0.87744 0.68511 0.09126 0.0
C748 C 0.88654 0.67942 0.06123 0.0
C749 C 0.89585 0.6525 0.05486 0.0
C750 C 0.86527 0.66843 0.1458 0.0
C751 C 0.88793 0.70197 0.03654 0.0
H752 H 0.82228 0.75759 0.12485 0.0
H753 H 0.90882 0.75537 0.14889 0.0
H754 H 0.82833 0.70591 0.06409 0.0
H755 H 0.81437 0.69939 0.10153 0.0
H756 H 0.80604 0.73171 0.0812 0.0
H757 H 0.94123 0.72692 0.12347 0.0
H758 H 0.92707 0.69384 0.12975 0.0
H759 H 0.93049 0.70732 0.09094 0.0
H760 H 0.88332 0.61993 0.12366 0.0
H761 H 0.90462 0.64833 0.03263 0.0
H762 H 0.84519 0.68042 0.14464 0.0
H763 H 0.88031 0.68077 0.15834 0.0
H764 H 0.86289 0.64904 0.15956 0.0
H765 H 0.89049 0.69363 1.0131 0.0
H766 H 0.90558 0.71468 0.04197 0.0
H767 H 0.86901 0.71577 0.03604 0.0
C768 C 0.33083 0.09222 0.10861 0.0
C769 C 0.32422 0.12087 0.10867 0.0
C770 C 0.3557 0.0809 0.09641 0.0
C771 C 0.37517 0.09819 0.08302 0.0
C772 C 0.36836 0.12705 0.08201 0.0
C773 C 0.34338 0.1379 0.09472 0.0
C774 C 0.36138 0.05014 0.09847 0.0
C775 C 0.38786 0.1467 0.06795 0.0
C776 C 0.45182 0.07078 0.08309 0.0
C777 C 0.45538 0.06119 0.05285 0.0
C778 C 0.42638 0.08289 0.09279 0.0
C779 C 0.40307 0.08615 0.07196 0.0
C780 C 0.40656 0.07694 0.04115 0.0
C781 C 0.43236 0.0646 0.03206 0.0
C782 C 0.42439 0.09185 0.12585 0.0
C783 C 0.38286 0.07996 0.01768 0.0
H784 H 0.31645 0.07824 0.11817 0.0
H785 H 0.33929 0.15997 0.09436 0.0
H786 H 0.36508 0.04228 0.07504 0.0
H787 H 0.38036 0.04503 0.11297 0.0
H788 H 0.34412 0.03921 0.10867 0.0
H789 H 0.37898 0.16821 0.06648 0.0
H790 H 0.40732 0.14606 0.08217 0.0
H791 H 0.39321 0.14041 0.04429 0.0
H792 H 0.46909 0.06854 0.09966 0.0
H793 H 0.43441 0.05751 1.00866 0.0
H794 H 0.40848 0.08032 0.13785 0.0
H795 H 0.41785 0.114 0.1261 0.0
H796 H 0.44426 0.08846 0.13923 0.0
H797 H 0.36572 0.06758 0.02561 0.0
H798 H 0.38887 0.07321 0.99437 0.0
H799 H 0.37487 0.10173 1.01563 0.0
C800 C 0.19937 0.83441 0.73396 0.0
C801 C 0.22145 0.81906 0.72163 0.0
C802 C 0.17881 0.84782 0.71436 0.0
C803 C 0.18035 0.84563 0.68178 0.0
C804 C 0.20172 0.82899 0.66935 0.0
C805 C 0.22208 0.81616 0.68934 0.0
C806 C 0.1563 0.86544 0.7284 0.0
C807 C 0.20407 0.826 0.63473 0.0
C808 C 0.1219 0.86746 0.62422 0.0
C809 C 0.13108 0.89232 0.6122 0.0
C810 C 0.13704 0.85247 0.64806 0.0
C811 C 0.16164 0.86287 0.66024 0.0
C812 C 0.17013 0.88869 0.64923 0.0
C813 C 0.15482 0.90302 0.62519 0.0
C814 C 0.12751 0.82491 0.65905 0.0
C815 C 0.19606 0.90067 0.66185 0.0
H816 H 0.1985 0.83652 0.75886 0.0
H817 H 0.2393 0.80496 0.67934 0.0
H818 H 0.15949 0.88743 0.72287 0.0
H819 H 0.13584 0.8609 0.71831 0.0
H820 H 0.15602 0.86236 0.75405 0.0
H821 H 0.22015 0.81006 0.62904 0.0
H822 H 0.18407 0.82053 0.62417 0.0
H823 H 0.20937 0.84589 0.62377 0.0
H824 H 0.10349 0.85924 0.61414 0.0
H825 H 0.1616 0.92252 0.61624 0.0
H826 H 0.1278 0.82329 0.6848 0.0
H827 H 0.14186 0.80834 0.65107 0.0
H828 H 0.1064 0.82129 0.65003 0.0
H829 H 0.19612 0.90055 0.68759 0.0
H830 H 0.1983 0.92208 0.65294 0.0
H831 H 0.21434 0.88785 0.65516 0.0
C832 C 0.8703 0.42112 0.91161 0.0
C833 C 0.84668 0.43889 0.91045 0.0
C834 C 0.89614 0.43064 0.9201 0.0
C835 C 0.89808 0.45835 0.92844 0.0
C836 C 0.87413 0.47631 0.92736 0.0
C837 C 0.84872 0.46641 0.91796 0.0
C838 C 0.92131 0.41109 0.92022 0.0
C839 C 0.87525 0.50581 0.93677 0.0
C840 C 0.9589 0.47628 0.97992 0.0
C841 C 0.97503 0.49008 0.95869 0.0
C842 C 0.93375 0.46586 0.9704 0.0
C843 C 0.92506 0.46854 0.93871 0.0
C844 C 0.94181 0.48162 0.917 0.0
C845 C 0.96645 0.49257 0.92734 0.0
C846 C 0.91617 0.45259 0.99437 0.0
C847 C 0.93358 0.48425 0.8829 0.0
H848 H 0.86851 0.39982 0.90573 0.0
H849 H 0.83026 0.47997 0.91728 0.0
H850 H 0.93722 0.41979 0.90541 0.0
H851 H 0.93042 0.40832 0.94411 0.0
H852 H 0.91647 0.39059 0.91167 0.0
H853 H 0.85469 0.51696 0.935 0.0
H854 H 0.88338 0.50645 0.96107 0.0
H855 H 0.88955 0.51688 0.92185 0.0
H856 H 0.96563 0.47416 1.00414 0.0
H857 H 0.97903 0.50306 0.91085 0.0
H858 H 0.9125 0.43115 0.98825 0.0
H859 H 0.89574 0.46389 0.99468 0.0
H860 H 0.92582 0.45232 0.0181 0.0
H861 H 0.92948 0.46374 0.87395 0.0
H862 H 0.94972 0.49345 0.86878 0.0
H863 H 0.91423 0.4973 0.87959 0.0
C864 C 0.79375 0.65555 0.40219 0.0
C865 C 0.77969 0.67068 0.37777 0.0
C866 C 0.77974 0.63777 0.42171 0.0
C867 C 0.75103 0.63549 0.41682 0.0
C868 C 0.73687 0.65043 0.39188 0.0
C869 C 0.75142 0.66779 0.3726 0.0
C870 C 0.79548 0.62186 0.44787 0.0
C871 C 0.70618 0.64876 0.38612 0.0
C872 C 0.70984 0.57833 0.45009 0.0
C873 C 0.69674 0.59165 0.47435 0.0
C874 C 0.72916 0.59172 0.4323 0.0
C875 C 0.73512 0.61908 0.43881 0.0
C876 C 0.72309 0.63201 0.46436 0.0
C877 C 0.70407 0.6181 0.48186 0.0
C878 C 0.74194 0.57717 0.4055 0.0
C879 C 0.72877 0.66126 0.47189 0.0
H880 H 0.8157 0.6576 0.40594 0.0
H881 H 0.74049 0.67972 0.35393 0.0
H882 H 0.78825 0.62905 0.47051 0.0
H883 H 0.79153 0.59968 0.44698 0.0
H884 H 0.81805 0.62426 0.447 0.0
H885 H 0.69852 0.66097 0.36505 0.0
H886 H 0.70099 0.62707 0.38338 0.0
H887 H 0.69499 0.65648 0.40639 0.0
H888 H 0.70441 0.55775 0.44449 0.0
H889 H 0.69375 0.6286 0.50036 0.0
H890 H 0.76448 0.57981 0.40545 0.0
H891 H 0.73295 0.58634 0.38327 0.0
H892 H 0.73833 0.55484 0.40631 0.0
H893 H 0.75128 0.66405 0.47301 0.0
H894 H 0.71998 0.6673 0.4943 0.0
H895 H 0.71964 0.67547 0.45319 0.0
C896 C 0.15053 0.33984 0.10274 0.0
C897 C 0.13804 0.3144 0.10325 0.0
C898 C 0.13574 0.36484 0.09305 0.0
C899 C 0.10773 0.36483 0.08228 0.0
C900 C 0.09522 0.33905 0.08214 0.0
C901 C 0.11019 0.31451 0.09309 0.0
C902 C 0.15018 0.39141 0.09458 0.0
C903 C 0.06608 0.33725 0.06962 0.0
C904 C 0.05981 0.4316 0.08006 0.0
C905 C 0.06247 0.44248 0.04967 0.0
C906 C 0.07454 0.40688 0.09098 0.0
C907 C 0.09176 0.39154 0.07087 0.0
C908 C 0.09381 0.4021 0.03985 0.0
C909 C 0.07982 0.42744 0.03001 0.0
C910 C 0.07225 0.39755 0.1245 0.0
C911 C 0.11096 0.38679 1.01677 0.0
H912 H 0.17191 0.34029 0.11057 0.0
H913 H 0.10023 0.29514 0.09296 0.0
H914 H 0.15274 0.40003 0.07075 0.0
H915 H 0.13754 0.40678 0.10716 0.0
H916 H 0.17085 0.38858 0.10635 0.0
H917 H 0.05948 0.31576 0.06987 0.0
H918 H 0.05164 0.34974 0.08355 0.0
H919 H 0.06432 0.34584 0.04539 0.0
H920 H 0.04688 0.44296 0.09577 0.0
H921 H 0.08221 0.43534 1.00651 0.0
H922 H 0.09307 0.39562 0.13598 0.0
H923 H 0.06362 0.37695 0.12591 0.0
H924 H 0.05896 0.412 0.13759 0.0
H925 H 0.13307 0.39018 0.02135 0.0
H926 H 0.10553 0.39392 0.99248 0.0
H927 H 0.10828 0.36433 0.01895 0.0
C928 C 0.61037 0.31435 0.95978 0.0
C929 C 0.63698 0.31319 0.94806 0.0
C930 C 0.59684 0.29021 0.96639 0.0
C931 C 0.61019 0.26444 0.96074 0.0
C932 C 0.63794 0.26313 0.95151 0.0
C933 C 0.65107 0.28758 0.9454 0.0
C934 C 0.56747 0.29244 0.97683 0.0
C935 C 0.65291 0.23605 0.94519 0.0
C936 C 0.57834 0.19727 0.98323 0.0
C937 C 0.56519 0.19096 0.9551 0.0
C938 C 0.59273 0.22139 0.98575 0.0
C939 C 0.59397 0.23949 0.95949 0.0
C940 C 0.58031 0.23345 0.93124 0.0
C941 C 0.566 0.20934 0.92945 0.0
C942 C 0.60686 0.22732 1.01629 0.0
C943 C 0.58123 0.25219 0.90263 0.0
H944 H 0.59958 0.33419 0.96216 0.0
H945 H 0.67158 0.28661 0.93613 0.0
H946 H 0.55328 0.28833 0.95706 0.0
H947 H 0.56423 0.27691 0.99562 0.0
H948 H 0.56179 0.31321 0.98524 0.0
H949 H 0.67538 0.23821 0.94258 0.0
H950 H 0.64992 0.22063 0.96416 0.0
H951 H 0.64432 0.22792 0.92341 0.0
H952 H 0.57803 0.18299 1.00305 0.0
H953 H 0.55552 0.20477 0.90782 0.0
H954 H 0.5977 0.24669 0.02528 0.0
H955 H 0.62905 0.23034 1.01295 0.0
H956 H 0.60501 0.21053 0.03409 0.0
H957 H 0.57274 0.27308 0.90763 0.0
H958 H 0.56936 0.24456 0.88255 0.0
H959 H 0.60293 0.2541 0.89589 0.0
C960 C 0.92352 0.89365 0.37191 0.0
C961 C 0.92685 0.86669 0.38445 0.0
C962 C 0.93501 0.91555 0.38709 0.0
C963 C 0.95004 0.91034 0.41554 0.0
C964 C 0.95439 0.88305 0.42769 0.0
C965 C 0.94282 0.86154 0.41193 0.0
C966 C 0.93009 0.94438 0.37334 0.0
C967 C 0.97037 0.87668 0.45793 0.0
C968 C 0.99455 0.96583 0.44612 0.0
C969 C 0.97693 0.97857 0.46707 0.0
C970 C 0.98615 0.94348 0.42921 0.0
C971 C 0.95962 0.93362 0.4336 0.0
C972 C 0.94195 0.94618 0.45512 0.0
C973 C 0.95081 0.96858 0.47155 0.0
C974 C 1.00551 0.93063 0.40641 0.0
C975 C 0.9136 0.93606 0.46066 0.0
H976 H 0.91099 0.89784 0.35086 0.0
H977 H 0.94588 0.84067 0.42143 0.0
H978 H 0.91682 0.95671 0.38875 0.0
H979 H 0.94989 0.95459 0.37166 0.0
H980 H 0.91993 0.9447 0.34987 0.0
H981 H 0.97347 0.85422 0.46313 0.0
H982 H 0.99083 0.88572 0.45729 0.0
H983 H 0.95914 0.88611 0.47727 0.0
H984 H 1.01481 0.97353 0.4427 0.0
H985 H 0.93723 0.97834 0.48789 0.0
H986 H 0.99592 0.93243 0.38267 0.0
H987 H 1.00934 0.90838 0.41229 0.0
H988 H 1.02562 0.94044 0.40612 0.0
H989 H 0.90094 0.93785 0.43873 0.0
H990 H 0.90262 0.94777 0.47863 0.0
H991 H 0.91523 0.914 0.46812 0.0
C992 C 0.41507 0.67381 0.65064 0.0
C993 C 0.4184 0.6704 0.68298 0.0
C994 C 0.42795 0.65526 0.63084 0.0
C995 C 0.44418 0.63244 0.64374 0.0
C996 C 0.44784 0.62905 0.67646 0.0
C997 C 0.43506 0.64828 0.69575 0.0
C998 C 0.42406 0.66001 0.59612 0.0
C999 C 0.46481 0.60485 0.69104 0.0
C1000 C 0.45661 0.57207 0.59108 0.0
C1001 C 0.48337 0.57626 0.58137 0.0
C1002 C 0.44375 0.58987 0.61193 0.0
C1003 C 0.45784 0.61259 0.62282 0.0
C1004 C 0.48474 0.61701 0.61281 0.0
C1005 C 0.4972 0.59873 0.59242 0.0
C1006 C 0.41512 0.58438 0.62235 0.0
C1007 C 0.50026 0.64127 0.62331 0.0
H1008 H 0.40216 0.69101 0.64085 0.0
H1009 H 0.43732 0.64556 0.72079 0.0
H1010 H 0.4444 0.66147 0.58533 0.0
H1011 H 0.41403 0.64236 0.58589 0.0
H1012 H 0.41126 0.67909 0.58986 0.0
H1013 H 0.46541 0.60503 0.71683 0.0
H1014 H 0.45615 0.58539 0.68372 0.0
H1015 H 0.48624 0.6049 0.6829 0.0
H1016 H 0.44589 0.55467 0.58277 0.0
H1017 H 0.51782 0.60228 0.58485 0.0
H1018 H 0.4006 0.60189 0.61495 0.0
H1019 H 0.41504 0.58256 0.64809 0.0
H1020 H 0.40739 0.56529 0.61272 0.0
H1021 H 0.4885 0.66071 0.61614 0.0
H1022 H 0.52113 0.64166 0.61352 0.0
H1023 H 0.50248 0.64072 0.64902 0.0
C1024 C 0.90949 0.91803 0.69772 0.0
C1025 C 0.90997 0.93049 0.72668 0.0
C1026 C 0.92276 0.92936 0.67163 0.0
C1027 C 0.93794 0.95342 0.67436 0.0
C1028 C 0.93897 0.96567 0.70385 0.0
C1029 C 0.9247 0.95445 0.72923 0.0
C1030 C 0.92003 0.91582 0.64084 0.0
C1031 C 0.95543 0.99063 0.70874 0.0
C1032 C 0.99247 0.96783 0.61266 0.0
C1033 C 0.97981 0.98968 0.59423 0.0
C1034 C 0.97947 0.95631 0.63883 0.0
C1035 C 0.95242 0.96587 0.64652 0.0
C1036 C 0.93934 0.98755 0.6275 0.0
C1037 C 0.95328 0.99945 0.60225 0.0
C1038 C 0.995 0.93412 0.65863 0.0
C1039 C 0.91029 0.99801 0.63356 0.0
H1040 H 0.89806 0.89969 0.69525 0.0
H1041 H 0.92538 0.96428 0.75139 0.0
H1042 H 0.91107 0.93094 0.62294 0.0
H1043 H 0.94066 0.90871 0.63303 0.0
H1044 H 0.9068 0.89793 0.64201 0.0
H1045 H 0.95575 0.99677 0.73332 0.0
H1046 H 0.97698 0.98647 0.70166 0.0
H1047 H 0.94657 1.0082 0.69396 0.0
H1048 H 1.01299 0.96011 0.60705 0.0
H1049 H 0.94305 1.0161 0.58822 0.0
H1050 H 0.98381 0.91489 0.65834 0.0
H1051 H 0.9963 0.94042 0.68312 0.0
H1052 H 1.01623 0.92968 0.65059 0.0
H1053 H 0.89638 0.98066 0.63384 0.0
H1054 H 0.90226 1.01372 0.61578 0.0
H1055 H 0.90955 1.00719 0.65671 0.0
C1056 C 0.63401 0.18334 0.13487 0.0
C1057 C 0.62051 0.19055 0.16198 0.0
C1058 C 0.62383 0.16342 0.11544 0.0
C1059 C 0.59952 0.15036 0.12327 0.0
C1060 C 0.58545 0.15796 0.15024 0.0
C1061 C 0.59611 0.17796 0.16926 0.0
C1062 C 0.63926 0.15613 0.08672 0.0
C1063 C 0.55936 0.14463 0.15926 0.0
C1064 C 0.56007 0.11479 0.06011 0.0
C1065 C 0.56811 0.08701 0.06651 0.0
C1066 C 0.57012 0.1356 0.07837 0.0
C1067 C 0.58896 0.12854 0.10343 0.0
C1068 C 0.59755 0.1006 0.1097 0.0
C1069 C 0.58693 0.08016 0.09125 0.0
C1070 C 0.56027 0.16511 0.07115 0.0
C1071 C 0.61779 0.09228 0.13608 0.0
H1072 H 0.65265 0.19329 0.12885 0.0
H1073 H 0.58571 0.18323 0.19031 0.0
H1074 H 0.64581 0.13395 0.08789 0.0
H1075 H 0.62554 0.1598 0.06576 0.0
H1076 H 0.6578 0.16825 0.08386 0.0
H1077 H 0.55038 0.1535 0.18034 0.0
H1078 H 0.54374 0.14709 0.13989 0.0
H1079 H 0.56373 0.12224 0.16375 0.0
H1080 H 0.54543 0.12032 0.04116 0.0
H1081 H 0.59328 0.05877 0.09633 0.0
H1082 H 0.57804 0.17753 0.06556 0.0
H1083 H 0.55062 0.17401 0.09179 0.0
H1084 H 0.54504 0.16714 0.05136 0.0
H1085 H 0.63718 0.103 0.13315 0.0
H1086 H 0.6228 0.06976 0.13753 0.0
H1087 H 0.60917 0.09858 0.15844 0.0
C1088 C 0.38764 0.5876 0.34786 0.0
C1089 C 0.39926 0.5851 0.31865 0.0
C1090 C 0.404 0.58331 0.37528 0.0
C1091 C 0.43256 0.57632 0.37331 0.0
C1092 C 0.44418 0.57305 0.34387 0.0
C1093 C 0.42739 0.57742 0.31695 0.0
C1094 C 0.39089 0.58678 0.40629 0.0
C1095 C 0.47447 0.5653 0.34076 0.0
C1096 C 0.48414 0.58875 0.4389 0.0
C1097 C 0.48933 0.56206 0.4515 0.0
C1098 C 0.46487 0.59396 0.41406 0.0
C1099 C 0.45046 0.57195 0.40188 0.0
C1100 C 0.45487 0.5452 0.41551 0.0
C1101 C 0.4743 0.54058 0.44006 0.0
C1102 C 0.4607 0.62277 0.40008 0.0
C1103 C 0.43987 0.52119 0.40341 0.0
H1104 H 0.36597 0.59381 0.34925 0.0
H1105 H 0.43637 0.57514 0.2944 0.0
H1106 H 0.39475 0.5678 0.4211 0.0
H1107 H 0.40035 0.60373 0.4186 0.0
H1108 H 0.36828 0.59145 0.40388 0.0
H1109 H 0.48024 0.56355 0.31613 0.0
H1110 H 0.48708 0.58096 0.35156 0.0
H1111 H 0.47987 0.54536 0.35326 0.0
H1112 H 0.49567 0.60537 0.44782 0.0
H1113 H 0.47805 0.51992 0.44999 0.0
H1114 H 0.43844 0.62919 0.39872 0.0
H1115 H 0.46819 0.62326 0.37601 0.0
H1116 H 0.47185 0.63792 0.41365 0.0
H1117 H 0.41733 0.52627 0.40173 0.0
H1118 H 0.44374 0.50228 0.41841 0.0
H1119 H 0.44667 0.51675 0.37968 0.0
C1120 C 0.21084 0.31607 0.87886 0.0
C1121 C 0.20175 0.28972 0.88581 0.0
C1122 C 0.20062 0.33911 0.89406 0.0
C1123 C 0.18037 0.33599 0.91657 0.0
C1124 C 0.17223 0.30937 0.92519 0.0
C1125 C 0.18301 0.28648 0.90964 0.0
C1126 C 0.20991 0.36712 0.88412 0.0
C1127 C 0.15086 0.30527 0.94936 0.0
C1128 C 0.16358 0.40167 0.95837 0.0
C1129 C 0.14176 0.41346 0.93946 0.0
C1130 C 0.17531 0.37545 0.95261 0.0
C1131 C 0.16513 0.36097 0.92715 0.0
C1132 C 0.14238 0.37236 0.90882 0.0
C1133 C 0.13103 0.39846 0.91518 0.0
C1134 C 0.19931 0.3638 0.97287 0.0
C1135 C 0.13093 0.35766 0.88137 0.0
H1136 H 0.22474 0.31917 0.86002 0.0
H1137 H 0.17607 0.26621 0.91542 0.0
H1138 H 0.19278 0.37886 0.87111 0.0
H1139 H 0.21538 0.37901 0.90468 0.0
H1140 H 0.228 0.36573 0.86899 0.0
H1141 H 0.15059 0.28342 0.95756 0.0
H1142 H 0.15464 0.31815 0.96961 0.0
H1143 H 0.13015 0.31171 0.93923 0.0
H1144 H 0.17154 0.413 0.97758 0.0
H1145 H 0.11428 0.40755 0.90038 0.0
H1146 H 0.21859 0.36485 0.95986 0.0
H1147 H 0.1967 0.34184 0.97919 0.0
H1148 H 0.20174 0.3753 0.99451 0.0
H1149 H 0.1464 0.3567 0.86297 0.0
H1150 H 0.11163 0.36812 0.87133 0.0
H1151 H 0.12663 0.33621 0.8883 0.0
C1152 C 0.70545 0.90692 0.94032 0.0
C1153 C 0.72616 0.92143 0.9255 0.0
C1154 C 0.68086 0.92022 0.95098 0.0
C1155 C 0.67583 0.94917 0.94682 0.0
C1156 C 0.69648 0.96401 0.93185 0.0
C1157 C 0.72105 0.9502 0.9216 0.0
C1158 C 0.65995 0.90304 0.96654 0.0
C1159 C 0.69256 0.99472 0.92643 0.0
C1160 C 0.59994 0.979 0.94499 0.0
C1161 C 0.59665 0.99004 0.97459 0.0
C1162 C 0.62518 0.96607 0.93586 0.0
C1163 C 0.64855 0.96352 0.95664 0.0
C1164 C 0.6454 0.97443 0.98673 0.0
C1165 C 0.61979 0.98749 0.99526 0.0
C1166 C 0.6268 0.95513 0.9036 0.0
C1167 C 0.66922 0.97229 1.01008 0.0
H1168 H 0.70808 0.88478 0.94323 0.0
H1169 H 0.73645 0.96225 0.91077 0.0
H1170 H 0.65521 0.91117 0.98962 0.0
H1171 H 0.64041 0.90426 0.95243 0.0
H1172 H 0.66722 0.88109 0.96969 0.0
H1173 H 0.71042 1.00362 0.91504 0.0
H1174 H 0.67375 0.99971 0.9116 0.0
H1175 H 0.68945 1.00476 0.94886 0.0
H1176 H 0.58255 0.98059 0.92853 0.0
H1177 H 0.61793 0.99575 0.01816 0.0
H1178 H 0.6321 0.93268 0.90502 0.0
H1179 H 0.64343 0.96496 0.89092 0.0
H1180 H 0.60713 0.95885 0.88991 0.0
H1181 H 0.676 0.95038 1.01465 0.0
H1182 H 0.66382 0.98154 0.03244 0.0
H1183 H 0.687 0.98278 1.00055 0.0
C1184 C 0.83946 0.20293 0.31054 0.0
C1185 C 0.83366 0.23102 0.30366 0.0
C1186 C 0.86192 0.19387 0.33008 0.0
C1187 C 0.87896 0.21338 0.34324 0.0
C1188 C 0.87436 0.24161 0.33482 0.0
C1189 C 0.85173 0.25012 0.31508 0.0
C1190 C 0.86619 0.16352 0.33838 0.0
C1191 C 0.89223 0.26299 0.34816 0.0
C1192 C 0.90716 0.18896 0.42264 0.0
C1193 C 0.93334 0.17765 0.41582 0.0
C1194 C 0.88998 0.20231 0.39951 0.0
C1195 C 0.8991 0.2043 0.36867 0.0
C1196 C 0.92615 0.19458 0.36197 0.0
C1197 C 0.94299 0.18135 0.38567 0.0
C1198 C 0.8613 0.21253 0.40769 0.0
C1199 C 0.9367 0.19662 0.32945 0.0
H1200 H 0.82548 0.18802 0.30219 0.0
H1201 H 0.84764 0.27183 0.30945 0.0
H1202 H 0.88807 0.15654 0.33573 0.0
H1203 H 0.8612 0.15972 0.36306 0.0
H1204 H 0.85301 0.15085 0.32375 0.0
H1205 H 0.88883 0.28324 0.33559 0.0
H1206 H 0.8874 0.26565 0.3729 0.0
H1207 H 0.91437 0.25629 0.34736 0.0
H1208 H 0.8993 0.18593 0.44571 0.0
H1209 H 0.96337 0.17305 0.38033 0.0
H1210 H 0.84591 0.19949 0.39684 0.0
H1211 H 0.85686 0.2339 0.39847 0.0
H1212 H 0.85843 0.21203 0.43318 0.0
H1213 H 0.92651 0.18156 0.31486 0.0
H1214 H 0.95936 0.19226 0.32903 0.0
H1215 H 0.9316 0.21737 0.31873 0.0
C1216 C 0.20125 0.57859 0.1193 0.0
C1217 C 0.20314 0.60616 0.12673 0.0
C1218 C 0.17625 0.5689 0.10811 0.0
C1219 C 0.15254 0.58714 0.10504 0.0
C1220 C 0.15426 0.61487 0.11333 0.0
C1221 C 0.17967 0.62414 0.12372 0.0
C1222 C 0.17535 0.53933 0.09897 0.0
C1223 C 0.12929 0.63475 0.11114 0.0
C1224 C 0.0935 0.56987 0.05036 0.0
C1225 C 0.07594 0.55714 0.07088 0.0
C1226 C 0.11864 0.5796 0.06111 0.0
C1227 C 0.12591 0.57717 0.09324 0.0
C1228 C 0.10781 0.56499 0.11412 0.0
C1229 C 0.0832 0.55482 0.10262 0.0
C1230 C 0.13766 0.59199 0.03805 0.0
C1231 C 0.1145 0.56261 0.14861 0.0
H1232 H 0.21956 0.56484 0.12132 0.0
H1233 H 0.18125 0.64547 0.12956 0.0
H1234 H 0.16005 0.52863 0.11287 0.0
H1235 H 0.16861 0.5385 0.07419 0.0
H1236 H 0.1957 0.52793 0.10236 0.0
H1237 H 0.13389 0.65534 0.11958 0.0
H1238 H 0.12148 0.63718 0.08669 0.0
H1239 H 0.11248 0.62653 0.12497 0.0
H1240 H 0.08788 0.57169 0.02581 0.0
H1241 H 0.06955 0.54509 0.11857 0.0
H1242 H 0.15792 0.58031 0.03926 0.0
H1243 H 0.14141 0.61347 0.04394 0.0
H1244 H 0.12915 0.59196 1.01383 0.0
H1245 H 0.13363 0.54945 0.15314 0.0
H1246 H 0.09765 0.55369 0.16186 0.0
H1247 H 0.11833 0.58317 0.15758 0.0
C1248 C 0.36341 0.30444 0.67613 0.0
C1249 C 0.33586 0.29833 0.67068 0.0
C1250 C 0.37556 0.32458 0.65787 0.0
C1251 C 0.35966 0.33902 0.63385 0.0
C1252 C 0.33202 0.33253 0.62785 0.0
C1253 C 0.32047 0.31221 0.64631 0.0
C1254 C 0.40521 0.33082 0.66466 0.0
C1255 C 0.31438 0.34762 0.60255 0.0
C1256 C 0.38085 0.40976 0.60787 0.0
C1257 C 0.3939 0.40406 0.58011 0.0
C1258 C 0.36957 0.38874 0.62562 0.0
C1259 C 0.37166 0.36142 0.61543 0.0
C1260 C 0.38486 0.35556 0.58745 0.0
C1261 C 0.39576 0.37699 0.57006 0.0
C1262 C 0.35535 0.39576 0.65521 0.0
C1263 C 0.38761 0.32664 0.57599 0.0
H1264 H 0.37535 0.29363 0.69488 0.0
H1265 H 0.299 0.3079 0.6424 0.0
H1266 H 0.4173 0.32888 0.64335 0.0
H1267 H 0.40627 0.35235 0.67197 0.0
H1268 H 0.41508 0.31691 0.68324 0.0
H1269 H 0.29354 0.33943 0.60022 0.0
H1270 H 0.31202 0.36977 0.60764 0.0
H1271 H 0.32453 0.34612 0.57992 0.0
H1272 H 0.37929 0.43072 0.61554 0.0
H1273 H 0.40626 0.37249 0.54885 0.0
H1274 H 0.36563 0.38398 0.67522 0.0
H1275 H 0.33364 0.38977 0.65381 0.0
H1276 H 0.35546 0.41803 0.65984 0.0
H1277 H 0.3989 0.31292 0.59372 0.0
H1278 H 0.39869 0.32554 0.55386 0.0
H1279 H 0.36689 0.31854 0.57234 0.0
C1280 C 0.92541 0.73 0.94728 0.0
C1281 C 0.91679 0.73309 0.91577 0.0
C1282 C 0.93954 0.70538 0.95958 0.0
C1283 C 0.94482 0.68259 0.94038 0.0
C1284 C 0.93549 0.68542 0.90879 0.0
C1285 C 0.92204 0.7104 0.89697 0.0
C1286 C 0.94959 0.70401 0.99307 0.0
C1287 C 0.93995 0.66202 0.88718 0.0
C1288 C 1.00252 0.62628 0.96292 0.0
C1289 C 0.98793 0.60488 0.97636 0.0
C1290 C 0.98899 0.65151 0.95167 0.0
C1291 C 0.95984 0.65586 0.95323 0.0
C1292 C 0.94504 0.63423 0.9666 0.0
C1293 C 0.9591 0.60943 0.97807 0.0
C1294 C 1.00602 0.67359 0.93793 0.0
C1295 C 0.91403 0.63684 0.96797 0.0
H1296 H 0.92201 0.74724 0.96215 0.0
H1297 H 0.91557 0.7122 0.87265 0.0
H1298 H 0.94177 0.68573 1.00532 0.0
H1299 H 0.97243 0.7016 0.99426 0.0
H1300 H 0.94313 0.72276 1.00547 0.0
H1301 H 0.93108 0.66702 0.86346 0.0
H1302 H 0.96234 0.6568 0.88548 0.0
H1303 H 0.93041 0.64343 0.8966 0.0
H1304 H 1.02469 0.62342 0.96137 0.0
H1305 H 0.94725 0.5933 0.98806 0.0
H1306 H 1.00247 0.69295 0.95036 0.0
H1307 H 0.99957 0.67795 0.91326 0.0
H1308 H 0.02843 0.66767 0.93916 0.0
H1309 H 0.90707 0.6573 0.97616 0.0
H1310 H 0.90587 0.62064 0.98339 0.0
H1311 H 0.9049 0.63496 0.94428 0.0
C1312 C 0.38987 0.77013 0.10305 0.0
C1313 C 0.40465 0.74487 0.10064 0.0
C1314 C 0.40202 0.79488 0.09563 0.0
C1315 C 0.42943 0.79415 0.08533 0.0
C1316 C 0.44348 0.76859 0.08025 0.0
C1317 C 0.43096 0.74419 0.0882 0.0
C1318 C 0.3864 0.82173 0.10144 0.0
C1319 C 0.47253 0.76698 0.06874 0.0
C1320 C 0.45975 0.8601 0.05619 0.0
C1321 C 0.47471 0.86764 0.08268 0.0
C1322 C 0.44483 0.83623 0.05657 0.0
C1323 C 0.44471 0.81968 0.08418 0.0
C1324 C 0.45958 0.82726 0.11103 0.0
C1325 C 0.47454 0.85103 0.10988 0.0
C1326 C 0.42936 0.82862 0.02747 0.0
C1327 C 0.45983 0.81018 0.14101 0.0
H1328 H 0.36958 0.77063 0.11289 0.0
H1329 H 0.44225 0.72458 0.08611 0.0
H1330 H 0.39532 0.8308 0.12251 0.0
H1331 H 0.38835 0.8367 0.08175 0.0
H1332 H 0.36417 0.81893 0.10506 0.0
H1333 H 0.47892 0.74595 0.06165 0.0
H1334 H 0.47452 0.7816 0.04871 0.0
H1335 H 0.48701 0.77284 0.08748 0.0
H1336 H 0.45951 0.87299 0.0352 0.0
H1337 H 0.48642 0.85639 0.13027 0.0
H1338 H 0.40726 0.82652 0.03225 0.0
H1339 H 0.43762 0.80839 0.0198 0.0
H1340 H 0.43094 0.84408 1.00814 0.0
H1341 H 0.43843 0.80789 0.14857 0.0
H1342 H 0.47177 0.81939 0.16003 0.0
H1343 H 0.46899 0.78925 0.13733 0.0
C1344 C 0.15728 0.1208 0.65182 0.0
C1345 C 0.14843 0.14238 0.67042 0.0
C1346 C 0.13834 0.10506 0.63627 0.0
C1347 C 0.10976 0.11064 0.63984 0.0
C1348 C 0.10061 0.13163 0.65957 0.0
C1349 C 0.12008 0.1474 0.67454 0.0
C1350 C 0.14899 0.08285 0.6154 0.0
C1351 C 0.07029 0.13784 0.66427 0.0
C1352 C 0.06695 0.08638 0.57237 0.0
C1353 C 0.06137 0.05986 0.58312 0.0
C1354 C 0.08128 0.10395 0.59139 0.0
C1355 C 0.08978 0.09483 0.62193 0.0
C1356 C 0.08222 0.0689 0.63365 0.0
C1357 C 0.06824 0.0516 0.61397 0.0
C1358 C 0.08908 0.1314 0.57797 0.0
C1359 C 0.0904 0.05869 0.66628 0.0
H1360 H 0.17915 0.11635 0.64913 0.0
H1361 H 0.11308 0.16414 0.68874 0.0
H1362 H 0.14149 0.06269 0.62306 0.0
H1363 H 0.141 0.08729 0.59124 0.0
H1364 H 0.17187 0.08109 0.61527 0.0
H1365 H 0.06665 0.15317 0.68238 0.0
H1366 H 0.06018 0.14597 0.64215 0.0
H1367 H 0.06016 0.11874 0.67101 0.0
H1368 H 0.06147 0.09287 0.54856 0.0
H1369 H 0.06357 0.0312 0.62242 0.0
H1370 H 0.11164 0.13079 0.57448 0.0
H1371 H 0.08427 0.14796 0.59426 0.0
H1372 H 0.07827 0.13674 0.55529 0.0
H1373 H 0.11289 0.05329 0.66776 0.0
H1374 H 0.07937 0.0402 0.67335 0.0
H1375 H 0.08614 0.075 0.68308 0.0
C1376 C 0.61268 0.36884 0.37003 0.0
C1377 C 0.63118 0.37804 0.3482 0.0
C1378 C 0.59967 0.38727 0.38998 0.0
C1379 C 0.60487 0.4156 0.38748 0.0
C1380 C 0.62273 0.42508 0.36456 0.0
C1381 C 0.63596 0.4061 0.34545 0.0
C1382 C 0.58114 0.37629 0.41446 0.0
C1383 C 0.62824 0.45518 0.36059 0.0
C1384 C 0.5532 0.46508 0.42378 0.0
C1385 C 0.56711 0.471 0.45155 0.0
C1386 C 0.56551 0.44762 0.40237 0.0
C1387 C 0.59208 0.4352 0.40928 0.0
C1388 C 0.60629 0.44122 0.43725 0.0
C1389 C 0.59375 0.45937 0.45789 0.0
C1390 C 0.55 0.44234 0.37245 0.0
C1391 C 0.63445 0.42799 0.44572 0.0
H1392 H 0.60932 0.34706 0.37234 0.0
H1393 H 0.65032 0.41312 0.32851 0.0
H1394 H 0.58959 0.38062 0.43789 0.0
H1395 H 0.56034 0.38681 0.41196 0.0
H1396 H 0.57898 0.35378 0.4131 0.0
H1397 H 0.64116 0.4594 0.34033 0.0
H1398 H 0.60849 0.46764 0.35753 0.0
H1399 H 0.63892 0.46215 0.38177 0.0
H1400 H 0.53266 0.47425 0.41868 0.0
H1401 H 0.60444 0.46376 0.47946 0.0
H1402 H 0.54567 0.42026 0.37158 0.0
H1403 H 0.56279 0.44723 0.3523 0.0
H1404 H 0.53014 0.45472 0.36986 0.0
H1405 H 0.6334 0.40529 0.44689 0.0
H1406 H 0.64265 0.43471 0.4684 0.0
H1407 H 0.64921 0.43309 0.42754 0.0
loop_
_geom_bond_atom_site_label_1
_geom_bond_atom_site_label_2
_geom_bond_distance
_geom_bond_site_symmetry_2
_ccdc_geom_bond_type
C0 C1 1.391 . S
C0 C4 1.391 . S
C0 H42 0.948 . S
C1 C0 1.391 . S
C1 C2 1.391 . S
C2 C1 1.391 . S
C2 H58 0.947 . S
C2 C59 1.392 . S
C3 C4 1.391 . S
C3 C7 1.397 . S
C3 C59 1.419 . S
C4 C0 1.391 . S
C4 C3 1.391 . S
C4 C5 1.399 . S
C5 C4 1.399 . S
C5 C8 1.396 . S
C5 C17 1.453 . S
C5 C18 1.684 . S
H6 C30 0.948 . S
C7 C3 1.397 . S
C7 C8 1.394 . S
C7 C26 1.723 . S
C8 C5 1.396 . S
C8 C7 1.394 . S
C8 C38 1.723 . S
H9 C32 0.947 . S
H10 C33 0.948 . S
H11 C39 0.982 . S
H12 C40 0.979 . S
H13 C40 0.980 . S
H14 C40 0.983 . S
H15 C39 0.979 . S
H16 C39 0.977 . S
C17 C5 1.453 . S
C17 H46 0.982 . S
C17 H47 0.979 . S
C17 H48 0.977 . S
C18 C5 1.684 . S
C18 H43 0.979 . S
C18 H44 0.980 . S
C18 H45 0.983 . S
C19 C20 1.391 . S
C19 C24 1.391 . S
C19 H49 0.948 . S
C20 C19 1.391 . S
C20 C21 1.391 . S
C21 C20 1.391 . S
C21 C22 1.392 . S
C21 H50 0.947 . S
C22 C21 1.392 . S
C22 C23 1.419 . S
C22 H51 0.948 . S
C23 C22 1.419 . S
C23 C24 1.391 . S
C23 C27 1.397 . S
C24 C19 1.391 . S
C24 C23 1.391 . S
C24 C25 1.399 . S
C25 C24 1.399 . S
C25 C26 1.396 . S
C25 C28 1.453 . S
C25 C29 1.684 . S
C26 C7 1.723 . S
C26 C25 1.396 . S
C26 C27 1.394 . S
C27 C23 1.397 . S
C27 C26 1.394 . S
C27 C37 1.723 . S
C28 C25 1.453 . S
C28 H52 0.982 . S
C28 H53 0.979 . S
C28 H54 0.977 . S
C29 C25 1.684 . S
C29 H55 0.979 . S
C29 H56 0.980 . S
C29 H57 0.983 . S
C30 H6 0.948 . S
C30 C31 1.391 . S
C30 C35 1.391 . S
C31 C30 1.391 . S
C31 C32 1.391 . S
C32 H9 0.947 . S
C32 C31 1.391 . S
C32 C33 1.392 . S
C33 H10 0.948 . S
C33 C32 1.392 . S
C33 C34 1.419 . S
C34 C33 1.419 . S
C34 C35 1.391 . S
C34 C38 1.397 . S
C35 C30 1.391 . S
C35 C34 1.391 . S
C35 C36 1.399 . S
C36 C35 1.399 . S
C36 C37 1.396 . S
C36 C39 1.453 . S
C36 C40 1.684 . S
C37 C27 1.723 . S
C37 C36 1.396 . S
C37 C38 1.394 . S
C38 C8 1.723 . S
C38 C34 1.397 . S
C38 C37 1.394 . S
C39 H11 0.982 . S
C39 H15 0.979 . S
C39 H16 0.977 . S
C39 C36 1.453 . S
C40 H12 0.979 . S
C40 H13 0.980 . S
C40 H14 0.983 . S
C40 C36 1.684 . S
H41 C59 0.948 . S
H42 C0 0.948 . S
H43 C18 0.979 . S
H44 C18 0.980 . S
H45 C18 0.983 . S
H46 C17 0.982 . S
H47 C17 0.979 . S
H48 C17 0.977 . S
H49 C19 0.948 . S
H50 C21 0.947 . S
H51 C22 0.948 . S
H52 C28 0.982 . S
H53 C28 0.979 . S
H54 C28 0.977 . S
H55 C29 0.979 . S
H56 C29 0.980 . S
H57 C29 0.983 . S
H58 C2 0.947 . S
C59 C2 1.392 . S
C59 C3 1.419 . S
C59 H41 0.948 . S
C60 C61 1.391 . S
C60 C64 1.391 . S
C60 H102 0.948 . S
C61 C60 1.391 . S
C61 C62 1.391 . S
C62 C61 1.391 . S
C62 H118 0.947 . S
C62 C119 1.392 . S
C63 C64 1.391 . S
C63 C67 1.397 . S
C63 C119 1.419 . S
C64 C60 1.391 . S
C64 C63 1.391 . S
C64 C65 1.399 . S
C65 C64 1.399 . S
C65 C68 1.396 . S
C65 C77 1.453 . S
C65 C78 1.684 . S
H66 C90 0.948 . S
C67 C63 1.397 . S
C67 C68 1.394 . S
C67 C86 1.723 . S
C68 C65 1.396 . S
C68 C67 1.394 . S
C68 C98 1.723 . S
H69 C92 0.947 . S
H70 C93 0.948 . S
H71 C99 0.982 . S
H72 C100 0.979 . S
H73 C100 0.980 . S
H74 C100 0.983 . S
H75 C99 0.979 . S
H76 C99 0.977 . S
C77 C65 1.453 . S
C77 H106 0.982 . S
C77 H107 0.979 . S
C77 H108 0.977 . S
C78 C65 1.684 . S
C78 H103 0.979 . S
C78 H104 0.980 . S
C78 H105 0.983 . S
C79 C80 1.391 . S
C79 C84 1.391 . S
C79 H109 0.948 . S
C80 C79 1.391 . S
C80 C81 1.391 . S
C81 C80 1.391 . S
C81 C82 1.392 . S
C81 H110 0.947 . S
C82 C81 1.392 . S
C82 C83 1.419 . S
C82 H111 0.948 . S
C83 C82 1.419 . S
C83 C84 1.391 . S
C83 C87 1.397 . S
C84 C79 1.391 . S
C84 C83 1.391 . S
C84 C85 1.399 . S
C85 C84 1.399 . S
C85 C86 1.396 . S
C85 C88 1.453 . S
C85 C89 1.684 . S
C86 C67 1.723 . S
C86 C85 1.396 . S
C86 C87 1.394 . S
C87 C83 1.397 . S
C87 C86 1.394 . S
C87 C97 1.723 . S
C88 C85 1.453 . S
C88 H112 0.982 . S
C88 H113 0.979 . S
C88 H114 0.977 . S
C89 C85 1.684 . S
C89 H115 0.979 . S
C89 H116 0.980 . S
C89 H117 0.983 . S
C90 H66 0.948 . S
C90 C91 1.391 . S
C90 C95 1.391 . S
C91 C90 1.391 . S
C91 C92 1.391 . S
C92 H69 0.947 . S
C92 C91 1.391 . S
C92 C93 1.392 . S
C93 H70 0.948 . S
C93 C92 1.392 . S
C93 C94 1.419 . S
C94 C93 1.419 . S
C94 C95 1.391 . S
C94 C98 1.397 . S
C95 C90 1.391 . S
C95 C94 1.391 . S
C95 C96 1.399 . S
C96 C95 1.399 . S
C96 C97 1.396 . S
C96 C99 1.453 . S
C96 C100 1.684 . S
C97 C87 1.723 . S
C97 C96 1.396 . S
C97 C98 1.394 . S
C98 C68 1.723 . S
C98 C94 1.397 . S
C98 C97 1.394 . S
C99 H71 0.982 . S
C99 H75 0.979 . S
C99 H76 0.977 . S
C99 C96 1.453 . S
C100 H72 0.979 . S
C100 H73 0.980 . S
C100 H74 0.983 . S
C100 C96 1.684 . S
H101 C119 0.948 . S
H102 C60 0.948 . S
H103 C78 0.979 . S
H104 C78 0.980 . S
H105 C78 0.983 . S
H106 C77 0.982 . S
H107 C77 0.979 . S
H108 C77 0.977 . S
H109 C79 0.948 . S
H110 C81 0.947 . S
H111 C82 0.948 . S
H112 C88 0.982 . S
H113 C88 0.979 . S
H114 C88 0.977 . S
H115 C89 0.979 . S
H116 C89 0.980 . S
H117 C89 0.983 . S
H118 C62 0.947 . S
C119 C62 1.392 . S
C119 C63 1.419 . S
C119 H101 0.948 . S
C120 C121 1.391 . S
C120 C124 1.391 . S
C120 H162 0.948 . S
C121 C120 1.391 . S
C121 C122 1.391 . S
C122 C121 1.391 . S
C122 H178 0.947 . S
C122 C179 1.392 . S
C123 C124 1.391 . S
C123 C127 1.397 . S
C123 C179 1.419 . S
C124 C120 1.391 . S
C124 C123 1.391 . S
C124 C125 1.399 . S
C125 C124 1.399 . S
C125 C128 1.396 . S
C125 C137 1.453 . S
C125 C138 1.684 . S
H126 C150 0.948 . S
C127 C123 1.397 . S
C127 C128 1.394 . S
C127 C146 1.723 . S
C128 C125 1.396 . S
C128 C127 1.394 . S
C128 C158 1.723 . S
H129 C152 0.947 . S
H130 C153 0.948 . S
H131 C159 0.982 . S
H132 C160 0.979 . S
H133 C160 0.980 . S
H134 C160 0.983 . S
H135 C159 0.979 . S
H136 C159 0.977 . S
C137 C125 1.453 . S
C137 H166 0.982 . S
C137 H167 0.979 . S
C137 H168 0.977 . S
C138 C125 1.684 . S
C138 H163 0.979 . S
C138 H164 0.980 . S
C138 H165 0.983 . S
C139 C140 1.391 . S
C139 C144 1.391 . S
C139 H169 0.948 . S
C140 C139 1.391 . S
C140 C141 1.391 . S
C141 C140 1.391 . S
C141 C142 1.392 . S
C141 H170 0.947 . S
C142 C141 1.392 . S
C142 C143 1.419 . S
C142 H171 0.948 . S
C143 C142 1.419 . S
C143 C144 1.391 . S
C143 C147 1.397 . S
C144 C139 1.391 . S
C144 C143 1.391 . S
C144 C145 1.399 . S
C145 C144 1.399 . S
C145 C146 1.396 . S
C145 C148 1.453 . S
C145 C149 1.684 . S
C146 C127 1.723 . S
C146 C145 1.396 . S
C146 C147 1.394 . S
C147 C143 1.397 . S
C147 C146 1.394 . S
C147 C157 1.723 . S
C148 C145 1.453 . S
C148 H172 0.982 . S
C148 H173 0.979 . S
C148 H174 0.977 . S
C149 C145 1.684 . S
C149 H175 0.979 . S
C149 H176 0.980 . S
C149 H177 0.983 . S
C150 H126 0.948 . S
C150 C151 1.391 . S
C150 C155 1.391 . S
C151 C150 1.391 . S
C151 C152 1.391 . S
C152 H129 0.947 . S
C152 C151 1.391 . S
C152 C153 1.392 . S
C153 H130 0.948 . S
C153 C152 1.392 . S
C153 C154 1.419 . S
C154 C153 1.419 . S
C154 C155 1.391 . S
C154 C158 1.397 . S
C155 C150 1.391 . S
C155 C154 1.391 . S
C155 C156 1.399 . S
C156 C155 1.399 . S
C156 C157 1.396 . S
C156 C159 1.453 . S
C156 C160 1.684 . S
C157 C147 1.723 . S
C157 C156 1.396 . S
C157 C158 1.394 . S
C158 C128 1.723 . S
C158 C154 1.397 . S
C158 C157 1.394 . S
C159 H131 0.982 . S
C159 H135 0.979 . S
C159 H136 0.977 . S
C159 C156 1.453 . S
C160 H132 0.979 . S
C160 H133 0.980 . S
C160 H134 0.983 . S
C160 C156 1.684 . S
H161 C179 0.948 . S
H162 C120 0.948 . S
H163 C138 0.979 . S
H164 C138 0.980 . S
H165 C138 0.983 . S
H166 C137 0.982 . S
H167 C137 0.979 . S
H168 C137 0.977 . S
H169 C139 0.948 . S
H170 C141 0.947 . S
H171 C142 0.948 . S
H172 C148 0.982 . S
H173 C148 0.979 . S
H174 C148 0.977 . S
H175 C149 0.979 . S
H176 C149 0.980 . S
H177 C149 0.983 . S
H178 C122 0.947 . S
C179 C122 1.392 . S
C179 C123 1.419 . S
C179 H161 0.948 . S
C180 C181 1.391 . S
C180 C184 1.391 . S
C180 H222 0.948 . S
C181 C180 1.391 . S
C181 C182 1.391 . S
C182 C181 1.391 . S
C182 H238 0.947 . S
C182 C239 1.392 . S
C183 C184 1.391 . S
C183 C187 1.397 . S
C183 C239 1.419 . S
C184 C180 1.391 . S
C184 C183 1.391 . S
C184 C185 1.399 . S
C185 C184 1.399 . S
C185 C188 1.396 . S
C185 C197 1.453 . S
C185 C198 1.684 . S
H186 C210 0.948 . S
C187 C183 1.397 . S
C187 C188 1.394 . S
C187 C206 1.723 . S
C188 C185 1.396 . S
C188 C187 1.394 . S
C188 C218 1.723 . S
H189 C212 0.947 . S
H190 C213 0.948 . S
H191 C219 0.982 . S
H192 C220 0.979 . S
H193 C220 0.980 . S
H194 C220 0.983 . S
H195 C219 0.979 . S
H196 C219 0.977 . S
C197 C185 1.453 . S
C197 H226 0.982 . S
C197 H227 0.979 . S
C197 H228 0.977 . S
C198 C185 1.684 . S
C198 H223 0.979 . S
C198 H224 0.980 . S
C198 H225 0.983 . S
C199 C200 1.391 . S
C199 C204 1.391 . S
C199 H229 0.948 . S
C200 C199 1.391 . S
C200 C201 1.391 . S
C201 C200 1.391 . S
C201 C202 1.392 . S
C201 H230 0.947 . S
C202 C201 1.392 . S
C202 C203 1.419 . S
C202 H231 0.948 . S
C203 C202 1.419 . S
C203 C204 1.391 . S
C203 C207 1.397 . S
C204 C199 1.391 . S
C204 C203 1.391 . S
C204 C205 1.399 . S
C205 C204 1.399 . S
C205 C206 1.396 . S
C205 C208 1.453 . S
C205 C209 1.684 . S
C206 C187 1.723 . S
C206 C205 1.396 . S
C206 C207 1.394 . S
C207 C203 1.397 . S
C207 C206 1.394 . S
C207 C217 1.723 . S
C208 C205 1.453 . S
C208 H232 0.982 . S
C208 H233 0.979 . S
C208 H234 0.977 . S
C209 C205 1.684 . S
C209 H235 0.979 . S
C209 H236 0.980 . S
C209 H237 0.983 . S
C210 H186 0.948 . S
C210 C211 1.391 . S
C210 C215 1.391 . S
C211 C210 1.391 . S
C211 C212 1.391 . S
C212 H189 0.947 . S
C212 C211 1.391 . S
C212 C213 1.392 . S
C213 H190 0.948 . S
C213 C212 1.392 . S
C213 C214 1.419 . S
C214 C213 1.419 . S
C214 C215 1.391 . S
C214 C218 1.397 . S
C215 C210 1.391 . S
C215 C214 1.391 . S
C215 C216 1.399 . S
C216 C215 1.399 . S
C216 C217 1.396 . S
C216 C219 1.453 . S
C216 C220 1.684 . S
C217 C207 1.723 . S
C217 C216 1.396 . S
C217 C218 1.394 . S
C218 C188 1.723 . S
C218 C214 1.397 . S
C218 C217 1.394 . S
C219 H191 0.982 . S
C219 H195 0.979 . S
C219 H196 0.977 . S
C219 C216 1.453 . S
C220 H192 0.979 . S
C220 H193 0.980 . S
C220 H194 0.983 . S
C220 C216 1.684 . S
H221 C239 0.948 . S
H222 C180 0.948 . S
H223 C198 0.979 . S
H224 C198 0.980 . S
H225 C198 0.983 . S
H226 C197 0.982 . S
H227 C197 0.979 . S
H228 C197 0.977 . S
H229 C199 0.948 . S
H230 C201 0.947 . S
H231 C202 0.948 . S
H232 C208 0.982 . S
H233 C208 0.979 . S
H234 C208 0.977 . S
H235 C209 0.979 . S
H236 C209 0.980 . S
H237 C209 0.983 . S
H238 C182 0.947 . S
C239 C182 1.392 . S
C239 C183 1.419 . S
C239 H221 0.948 . S
C240 C241 1.391 . S
C240 C244 1.391 . S
C240 H282 0.948 . S
C241 C240 1.391 . S
C241 C242 1.391 . S
C242 C241 1.391 . S
C242 H298 0.947 . S
C242 C299 1.392 . S
C243 C244 1.391 . S
C243 C247 1.397 . S
C243 C299 1.419 . S
C244 C240 1.391 . S
C244 C243 1.391 . S
C244 C245 1.399 . S
C245 C244 1.399 . S
C245 C248 1.396 . S
C245 C257 1.453 . S
C245 C258 1.684 . S
H246 C270 0.948 . S
C247 C243 1.397 . S
C247 C248 1.394 . S
C247 C266 1.723 . S
C248 C245 1.396 . S
C248 C247 1.394 . S
C248 C278 1.723 . S
H249 C272 0.947 . S
H250 C273 0.948 . S
H251 C279 0.982 . S
H252 C280 0.979 . S
H253 C280 0.980 . S
H254 C280 0.983 . S
H255 C279 0.979 . S
H256 C279 0.977 . S
C257 C245 1.453 . S
C257 H286 0.982 . S
C257 H287 0.979 . S
C257 H288 0.977 . S
C258 C245 1.684 . S
C258 H283 0.979 . S
C258 H284 0.980 . S
C258 H285 0.983 . S
C259 C260 1.391 . S
C259 C264 1.391 . S
C259 H289 0.948 . S
C260 C259 1.391 . S
C260 C261 1.391 . S
C261 C260 1.391 . S
C261 C262 1.392 . S
C261 H290 0.947 . S
C262 C261 1.392 . S
C262 C263 1.419 . S
C262 H291 0.948 . S
C263 C262 1.419 . S
C263 C264 1.391 . S
C263 C267 1.397 . S
C264 C259 1.391 . S
C264 C263 1.391 . S
C264 C265 1.399 . S
C265 C264 1.399 . S
C265 C266 1.396 . S
C265 C268 1.453 . S
C265 C269 1.684 . S
C266 C247 1.723 . S
C266 C265 1.396 . S
C266 C267 1.394 . S
C267 C263 1.397 . S
C267 C266 1.394 . S
C267 C277 1.723 . S
C268 C265 1.453 . S
C268 H292 0.982 . S
C268 H293 0.979 . S
C268 H294 0.977 . S
C269 C265 1.684 . S
C269 H295 0.979 . S
C269 H296 0.980 . S
C269 H297 0.983 . S
C270 H246 0.948 . S
C270 C271 1.391 . S
C270 C275 1.391 . S
C271 C270 1.391 . S
C271 C272 1.391 . S
C272 H249 0.947 . S
C272 C271 1.391 . S
C272 C273 1.392 . S
C273 H250 0.948 . S
C273 C272 1.392 . S
C273 C274 1.419 . S
C274 C273 1.419 . S
C274 C275 1.391 . S
C274 C278 1.397 . S
C275 C270 1.391 . S
C275 C274 1.391 . S
C275 C276 1.399 . S
C276 C275 1.399 . S
C276 C277 1.396 . S
C276 C279 1.453 . S
C276 C280 1.684 . S
C277 C267 1.723 . S
C277 C276 1.396 . S
C277 C278 1.394 . S
C278 C248 1.723 . S
C278 C274 1.397 . S
C278 C277 1.394 . S
C279 H251 0.982 . S
C279 H255 0.979 . S
C279 H256 0.977 . S
C279 C276 1.453 . S
C280 H252 0.979 . S
C280 H253 0.980 . S
C280 H254 0.983 . S
C280 C276 1.684 . S
H281 C299 0.948 . S
H282 C240 0.948 . S
H283 C258 0.979 . S
H284 C258 0.980 . S
H285 C258 0.983 . S
H286 C257 0.982 . S
H287 C257 0.979 . S
H288 C257 0.977 . S
H289 C259 0.948 . S
H290 C261 0.947 . S
H291 C262 0.948 . S
H292 C268 0.982 . S
H293 C268 0.979 . S
H294 C268 0.977 . S
H295 C269 0.979 . S
H296 C269 0.980 . S
H297 C269 0.983 . S
H298 C242 0.947 . S
C299 C242 1.392 . S
C299 C243 1.419 . S
C299 H281 0.948 . S
C300 C301 1.391 . S
C300 C304 1.391 . S
C300 H342 0.948 . S
C301 C300 1.391 . S
C301 C302 1.391 . S
C302 C301 1.391 . S
C302 H358 0.947 . S
C302 C359 1.392 . S
C303 C304 1.391 . S
C303 C307 1.397 . S
C303 C359 1.419 . S
C304 C300 1.391 . S
C304 C303 1.391 . S
C304 C305 1.399 . S
C305 C304 1.399 . S
C305 C308 1.396 . S
C305 C317 1.453 . S
C305 C318 1.684 . S
H306 C330 0.948 . S
C307 C303 1.397 . S
C307 C308 1.394 . S
C307 C326 1.723 . S
C308 C305 1.396 . S
C308 C307 1.394 . S
C308 C338 1.723 . S
H309 C332 0.947 . S
H310 C333 0.948 . S
H311 C339 0.982 . S
H312 C340 0.979 . S
H313 C340 0.980 . S
H314 C340 0.983 . S
H315 C339 0.979 . S
H316 C339 0.977 . S
C317 C305 1.453 . S
C317 H346 0.982 . S
C317 H347 0.979 . S
C317 H348 0.977 . S
C318 C305 1.684 . S
C318 H343 0.979 . S
C318 H344 0.980 . S
C318 H345 0.983 . S
C319 C320 1.391 . S
C319 C324 1.391 . S
C319 H349 0.948 . S
C320 C319 1.391 . S
C320 C321 1.391 . S
C321 C320 1.391 . S
C321 C322 1.392 . S
C321 H350 0.947 . S
C322 C321 1.392 . S
C322 C323 1.419 . S
C322 H351 0.948 . S
C323 C322 1.419 . S
C323 C324 1.391 . S
C323 C327 1.397 . S
C324 C319 1.391 . S
C324 C323 1.391 . S
C324 C325 1.399 . S
C325 C324 1.399 . S
C325 C326 1.396 . S
C325 C328 1.453 . S
C325 C329 1.684 . S
C326 C307 1.723 . S
C326 C325 1.396 . S
C326 C327 1.394 . S
C327 C323 1.397 . S
C327 C326 1.394 . S
C327 C337 1.723 . S
C328 C325 1.453 . S
C328 H352 0.982 . S
C328 H353 0.979 . S
C328 H354 0.977 . S
C329 C325 1.684 . S
C329 H355 0.979 . S
C329 H356 0.980 . S
C329 H357 0.983 . S
C330 H306 0.948 . S
C330 C331 1.391 . S
C330 C335 1.391 . S
C331 C330 1.391 . S
C331 C332 1.391 . S
C332 H309 0.947 . S
C332 C331 1.391 . S
C332 C333 1.392 . S
C333 H310 0.948 . S
C333 C332 1.392 . S
C333 C334 1.419 . S
C334 C333 1.419 . S
C334 C335 1.391 . S
C334 C338 1.397 . S
C335 C330 1.391 . S
C335 C334 1.391 . S
C335 C336 1.399 . S
C336 C335 1.399 . S
C336 C337 1.396 . S
C336 C339 1.453 . S
C336 C340 1.684 . S
C337 C327 1.723 . S
C337 C336 1.396 . S
C337 C338 1.394 . S
C338 C308 1.723 . S
C338 C334 1.397 . S
C338 C337 1.394 . S
C339 H311 0.982 . S
C339 H315 0.979 . S
C339 H316 0.977 . S
C339 C336 1.453 . S
C340 H312 0.979 . S
C340 H313 0.980 . S
C340 H314 0.983 . S
C340 C336 1.684 . S
H341 C359 0.948 . S
H342 C300 0.948 . S
H343 C318 0.979 . S
H344 C318 0.980 . S
H345 C318 0.983 . S
H346 C317 0.982 . S
H347 C317 0.979 . S
H348 C317 0.977 . S
H349 C319 0.948 . S
H350 C321 0.947 . S
H351 C322 0.948 . S
H352 C328 0.982 . S
H353 C328 0.979 . S
H354 C328 0.977 . S
H355 C329 0.979 . S
H356 C329 0.980 . S
H357 C329 0.983 . S
H358 C302 0.947 . S
C359 C302 1.392 . S
C359 C303 1.419 . S
C359 H341 0.948 . S
C360 C361 1.391 . S
C360 C364 1.391 . S
C360 H402 0.948 . S
C361 C360 1.391 . S
C361 C362 1.391 . S
C362 C361 1.391 . S
C362 H418 0.947 . S
C362 C419 1.392 . S
C363 C364 1.391 . S
C363 C367 1.397 . S
C363 C419 1.419 . S
C364 C360 1.391 . S
C364 C363 1.391 . S
C364 C365 1.399 . S
C365 C364 1.399 . S
C365 C368 1.396 . S
C365 C377 1.453 . S
C365 C378 1.684 . S
H366 C390 0.948 . S
C367 C363 1.397 . S
C367 C368 1.394 . S
C367 C386 1.723 . S
C368 C365 1.396 . S
C368 C367 1.394 . S
C368 C398 1.723 . S
H369 C392 0.947 . S
H370 C393 0.948 . S
H371 C399 0.982 . S
H372 C400 0.979 . S
H373 C400 0.980 . S
H374 C400 0.983 . S
H375 C399 0.979 . S
H376 C399 0.977 . S
C377 C365 1.453 . S
C377 H406 0.982 . S
C377 H407 0.979 . S
C377 H408 0.977 . S
C378 C365 1.684 . S
C378 H403 0.979 . S
C378 H404 0.980 . S
C378 H405 0.983 . S
C379 C380 1.391 . S
C379 C384 1.391 . S
C379 H409 0.948 . S
C380 C379 1.391 . S
C380 C381 1.391 . S
C381 C380 1.391 . S
C381 C382 1.392 . S
C381 H410 0.947 . S
C382 C381 1.392 . S
C382 C383 1.419 . S
C382 H411 0.948 . S
C383 C382 1.419 . S
C383 C384 1.391 . S
C383 C387 1.397 . S
C384 C379 1.391 . S
C384 C383 1.391 . S
C384 C385 1.399 . S
C385 C384 1.399 . S
C385 C386 1.396 . S
C385 C388 1.453 . S
C385 C389 1.684 . S
C386 C367 1.723 . S
C386 C385 1.396 . S
C386 C387 1.394 . S
C387 C383 1.397 . S
C387 C386 1.394 . S
C387 C397 1.723 . S
C388 C385 1.453 . S
C388 H412 0.982 . S
C388 H413 0.979 . S
C388 H414 0.977 . S
C389 C385 1.684 . S
C389 H415 0.979 . S
C389 H416 0.980 . S
C389 H417 0.983 . S
C390 H366 0.948 . S
C390 C391 1.391 . S
C390 C395 1.391 . S
C391 C390 1.391 . S
C391 C392 1.391 . S
C392 H369 0.947 . S
C392 C391 1.391 . S
C392 C393 1.392 . S
C393 H370 0.948 . S
C393 C392 1.392 . S
C393 C394 1.419 . S
C394 C393 1.419 . S
C394 C395 1.391 . S
C394 C398 1.397 . S
C395 C390 1.391 . S
C395 C394 1.391 . S
C395 C396 1.399 . S
C396 C395 1.399 . S
C396 C397 1.396 . S
C396 C399 1.453 . S
C396 C400 1.684 . S
C397 C387 1.723 . S
C397 C396 1.396 . S
C397 C398 1.394 . S
C398 C368 1.723 . S
C398 C394 1.397 . S
C398 C397 1.394 . S
C399 H371 0.982 . S
C399 H375 0.979 . S
C399 H376 0.977 . S
C399 C396 1.453 . S
C400 H372 0.979 . S
C400 H373 0.980 . S
C400 H374 0.983 . S
C400 C396 1.684 . S
H401 C419 0.948 . S
H402 C360 0.948 . S
H403 C378 0.979 . S
H404 C378 0.980 . S
H405 C378 0.983 . S
H406 C377 0.982 . S
H407 C377 0.979 . S
H408 C377 0.977 . S
H409 C379 0.948 . S
H410 C381 0.947 . S
H411 C382 0.948 . S
H412 C388 0.982 . S
H413 C388 0.979 . S
H414 C388 0.977 . S
H415 C389 0.979 . S
H416 C389 0.980 . S
H417 C389 0.983 . S
H418 C362 0.947 . S
C419 C362 1.392 . S
C419 C363 1.419 . S
C419 H401 0.948 . S
C420 C421 1.391 . S
C420 C424 1.391 . S
C420 H462 0.948 . S
C421 C420 1.391 . S
C421 C422 1.391 . S
C422 C421 1.391 . S
C422 H478 0.947 . S
C422 C479 1.392 . S
C423 C424 1.391 . S
C423 C427 1.397 . S
C423 C479 1.419 . S
C424 C420 1.391 . S
C424 C423 1.391 . S
C424 C425 1.399 . S
C425 C424 1.399 . S
C425 C428 1.396 . S
C425 C437 1.453 . S
C425 C438 1.684 . S
H426 C450 0.948 . S
C427 C423 1.397 . S
C427 C428 1.394 . S
C427 C446 1.723 . S
C428 C425 1.396 . S
C428 C427 1.394 . S
C428 C458 1.723 . S
H429 C452 0.947 . S
H430 C453 0.948 . S
H431 C459 0.982 . S
H432 C460 0.979 . S
H433 C460 0.980 . S
H434 C460 0.983 . S
H435 C459 0.979 . S
H436 C459 0.977 . S
C437 C425 1.453 . S
C437 H466 0.982 . S
C437 H467 0.979 . S
C437 H468 0.977 . S
C438 C425 1.684 . S
C438 H463 0.979 . S
C438 H464 0.980 . S
C438 H465 0.983 . S
C439 C440 1.391 . S
C439 C444 1.391 . S
C439 H469 0.948 . S
C440 C439 1.391 . S
C440 C441 1.391 . S
C441 C440 1.391 . S
C441 C442 1.392 . S
C441 H470 0.947 . S
C442 C441 1.392 . S
C442 C443 1.419 . S
C442 H471 0.948 . S
C443 C442 1.419 . S
C443 C444 1.391 . S
C443 C447 1.397 . S
C444 C439 1.391 . S
C444 C443 1.391 . S
C444 C445 1.399 . S
C445 C444 1.399 . S
C445 C446 1.396 . S
C445 C448 1.453 . S
C445 C449 1.684 . S
C446 C427 1.723 . S
C446 C445 1.396 . S
C446 C447 1.394 . S
C447 C443 1.397 . S
C447 C446 1.394 . S
C447 C457 1.723 . S
C448 C445 1.453 . S
C448 H472 0.982 . S
C448 H473 0.979 . S
C448 H474 0.977 . S
C449 C445 1.684 . S
C449 H475 0.979 . S
C449 H476 0.980 . S
C449 H477 0.983 . S
C450 H426 0.948 . S
C450 C451 1.391 . S
C450 C455 1.391 . S
C451 C450 1.391 . S
C451 C452 1.391 . S
C452 H429 0.947 . S
C452 C451 1.391 . S
C452 C453 1.392 . S
C453 H430 0.948 . S
C453 C452 1.392 . S
C453 C454 1.419 . S
C454 C453 1.419 . S
C454 C455 1.391 . S
C454 C458 1.397 . S
C455 C450 1.391 . S
C455 C454 1.391 . S
C455 C456 1.399 . S
C456 C455 1.399 . S
C456 C457 1.396 . S
C456 C459 1.453 . S
C456 C460 1.684 . S
C457 C447 1.723 . S
C457 C456 1.396 . S
C457 C458 1.394 . S
C458 C428 1.723 . S
C458 C454 1.397 . S
C458 C457 1.394 . S
C459 H431 0.982 . S
C459 H435 0.979 . S
C459 H436 0.977 . S
C459 C456 1.453 . S
C460 H432 0.979 . S
C460 H433 0.980 . S
C460 H434 0.983 . S
C460 C456 1.684 . S
H461 C479 0.948 . S
H462 C420 0.948 . S
H463 C438 0.979 . S
H464 C438 0.980 . S
H465 C438 0.983 . S
H466 C437 0.982 . S
H467 C437 0.979 . S
H468 C437 0.977 . S
H469 C439 0.948 . S
H470 C441 0.947 . S
H471 C442 0.948 . S
H472 C448 0.982 . S
H473 C448 0.979 . S
H474 C448 0.977 . S
H475 C449 0.979 . S
H476 C449 0.980 . S
H477 C449 0.983 . S
H478 C422 0.947 . S
C479 C422 1.392 . S
C479 C423 1.419 . S
C479 H461 0.948 . S
Nd480 C482 2.836 . S
Nd480 O500 2.500 . S
Nd480 O501 2.492 . S
Nd480 O502 2.487 1_565 S
Nd480 O503 2.682 1_565 S
Nd480 O504 2.410 . S
Nd480 O509 2.414 1_455 S
Nd480 O511 2.424 1_565 S
Nd481 C491 2.836 . S
Nd481 O503 2.414 1_655 S
Nd481 O505 2.424 1_545 S
Nd481 O506 2.500 . S
Nd481 O507 2.492 . S
Nd481 O508 2.487 1_545 S
Nd481 O509 2.682 1_545 S
Nd481 O510 2.410 . S
C482 Nd480 2.836 . S
C482 C483 1.498 . S
C482 O500 1.258 . S
C482 O501 1.239 . S
C483 C482 1.498 . S
C483 C484 1.366 . S
C483 C488 1.407 . S
C484 C483 1.366 . S
C484 C485 1.392 . S
C484 H512 0.930 . S
C485 C484 1.392 . S
C485 C486 1.398 . S
C485 H513 0.929 . S
C486 C485 1.398 . S
C486 C487 1.352 . S
C487 C486 1.352 . S
C487 C488 1.384 . S
C487 H514 0.930 . S
C488 C483 1.407 . S
C488 C487 1.384 . S
C488 H515 0.929 . S
C489 O502 1.241 . S
C489 O503 1.273 . S
C490 O504 1.251 1_655 S
C490 O505 1.268 . S
C491 Nd481 2.836 . S
C491 C492 1.498 . S
C491 O506 1.258 . S
C491 O507 1.239 . S
C492 C491 1.498 . S
C492 C493 1.366 . S
C492 C497 1.407 . S
C493 C492 1.366 . S
C493 C494 1.392 . S
C493 H516 0.930 . S
C494 C493 1.392 . S
C494 C495 1.398 . S
C494 H517 0.929 . S
C495 C494 1.398 . S
C495 C496 1.352 . S
C496 C495 1.352 . S
C496 C497 1.384 . S
C496 H518 0.930 . S
C497 C492 1.407 . S
C497 C496 1.384 . S
C497 H519 0.929 . S
C498 O508 1.241 . S
C498 O509 1.273 . S
C499 O510 1.251 1_455 S
C499 O511 1.268 . S
O500 Nd480 2.500 . S
O500 C482 1.258 . S
O501 Nd480 2.492 . S
O501 C482 1.239 . S
O502 Nd480 2.487 1_545 S
O502 C489 1.241 . S
O503 Nd480 2.682 1_545 S
O503 Nd481 2.414 1_455 S
O503 C489 1.273 . S
O504 Nd480 2.410 . S
O504 C490 1.251 1_455 S
O505 Nd481 2.424 1_565 S
O505 C490 1.268 . S
O506 Nd481 2.500 . S
O506 C491 1.258 . S
O507 Nd481 2.492 . S
O507 C491 1.239 . S
O508 Nd481 2.487 1_565 S
O508 C498 1.241 . S
O509 Nd480 2.414 1_655 S
O509 Nd481 2.682 1_565 S
O509 C498 1.273 . S
O510 Nd481 2.410 . S
O510 C499 1.251 1_655 S
O511 Nd480 2.424 1_545 S
O511 C499 1.268 . S
H512 C484 0.930 . S
H513 C485 0.929 . S
H514 C487 0.930 . S
H515 C488 0.929 . S
H516 C493 0.930 . S
H517 C494 0.929 . S
H518 C496 0.930 . S
H519 C497 0.929 . S
Nd520 C522 2.836 . S
Nd520 O540 2.500 . S
Nd520 O541 2.492 . S
Nd520 O542 2.487 1_565 S
Nd520 O543 2.682 1_565 S
Nd520 O544 2.410 1_554 S
Nd520 O549 2.414 1_554 S
Nd520 O551 2.424 1_565 S
Nd521 C531 2.836 . S
Nd521 O543 2.414 1_556 S
Nd521 O545 2.424 1_545 S
Nd521 O546 2.500 . S
Nd521 O547 2.492 . S
Nd521 O548 2.487 1_545 S
Nd521 O549 2.682 1_545 S
Nd521 O550 2.410 1_556 S
C522 Nd520 2.836 . S
C522 C523 1.498 . S
C522 O540 1.258 . S
C522 O541 1.239 . S
C523 C522 1.498 . S
C523 C524 1.366 . S
C523 C528 1.407 . S
C524 C523 1.366 . S
C524 C525 1.392 . S
C524 H552 0.930 . S
C525 C524 1.392 . S
C525 C526 1.398 . S
C525 H553 0.929 . S
C526 C525 1.398 . S
C526 C527 1.352 . S
C527 C526 1.352 . S
C527 C528 1.384 . S
C527 H554 0.930 . S
C528 C523 1.407 . S
C528 C527 1.384 . S
C528 H555 0.929 . S
C529 O542 1.241 . S
C529 O543 1.273 . S
C530 O544 1.251 . S
C530 O545 1.268 . S
C531 Nd521 2.836 . S
C531 C532 1.498 . S
C531 O546 1.258 . S
C531 O547 1.239 . S
C532 C531 1.498 . S
C532 C533 1.366 . S
C532 C537 1.407 . S
C533 C532 1.366 . S
C533 C534 1.392 . S
C533 H556 0.930 . S
C534 C533 1.392 . S
C534 C535 1.398 . S
C534 H557 0.929 . S
C535 C534 1.398 . S
C535 C536 1.352 . S
C536 C535 1.352 . S
C536 C537 1.384 . S
C536 H558 0.930 . S
C537 C532 1.407 . S
C537 C536 1.384 . S
C537 H559 0.929 . S
C538 O548 1.241 . S
C538 O549 1.273 . S
C539 O550 1.251 . S
C539 O551 1.268 . S
O540 Nd520 2.500 . S
O540 C522 1.258 . S
O541 Nd520 2.492 . S
O541 C522 1.239 . S
O542 Nd520 2.487 1_545 S
O542 C529 1.241 . S
O543 Nd520 2.682 1_545 S
O543 Nd521 2.414 1_554 S
O543 C529 1.273 . S
O544 Nd520 2.410 1_556 S
O544 C530 1.251 . S
O545 Nd521 2.424 1_565 S
O545 C530 1.268 . S
O546 Nd521 2.500 . S
O546 C531 1.258 . S
O547 Nd521 2.492 . S
O547 C531 1.239 . S
O548 Nd521 2.487 1_565 S
O548 C538 1.241 . S
O549 Nd520 2.414 1_556 S
O549 Nd521 2.682 1_565 S
O549 C538 1.273 . S
O550 Nd521 2.410 1_554 S
O550 C539 1.251 . S
O551 Nd520 2.424 1_545 S
O551 C539 1.268 . S
H552 C524 0.930 . S
H553 C525 0.929 . S
H554 C527 0.930 . S
H555 C528 0.929 . S
H556 C533 0.930 . S
H557 C534 0.929 . S
H558 C536 0.930 . S
H559 C537 0.929 . S
Nd560 C562 2.836 . S
Nd560 O580 2.500 . S
Nd560 O581 2.492 . S
Nd560 O582 2.487 . S
Nd560 O583 2.682 . S
Nd560 O584 2.410 . S
Nd560 O589 2.414 . S
Nd560 O591 2.424 . S
Nd561 C571 2.836 . S
Nd561 O583 2.414 . S
Nd561 O585 2.424 . S
Nd561 O586 2.500 . S
Nd561 O587 2.492 . S
Nd561 O588 2.487 . S
Nd561 O589 2.682 . S
Nd561 O590 2.410 . S
C562 Nd560 2.836 . S
C562 C563 1.498 . S
C562 O580 1.258 . S
C562 O581 1.239 . S
C563 C562 1.498 . S
C563 C564 1.366 . S
C563 C568 1.407 . S
C564 C563 1.366 . S
C564 C565 1.392 . S
C564 H592 0.930 . S
C565 C564 1.392 . S
C565 C566 1.398 . S
C565 H593 0.929 . S
C566 C565 1.398 . S
C566 C567 1.352 . S
C567 C566 1.352 . S
C567 C568 1.384 . S
C567 H594 0.930 . S
C568 C563 1.407 . S
C568 C567 1.384 . S
C568 H595 0.929 . S
C569 O582 1.241 . S
C569 O583 1.273 . S
C570 O584 1.251 . S
C570 O585 1.268 . S
C571 Nd561 2.836 . S
C571 C572 1.498 . S
C571 O586 1.258 . S
C571 O587 1.239 . S
C572 C571 1.498 . S
C572 C573 1.366 . S
C572 C577 1.407 . S
C573 C572 1.366 . S
C573 C574 1.392 . S
C573 H596 0.930 . S
C574 C573 1.392 . S
C574 C575 1.398 . S
C574 H597 0.929 . S
C575 C574 1.398 . S
C575 C576 1.352 . S
C576 C575 1.352 . S
C576 C577 1.384 . S
C576 H598 0.930 . S
C577 C572 1.407 . S
C577 C576 1.384 . S
C577 H599 0.929 . S
C578 O588 1.241 . S
C578 O589 1.273 . S
C579 O590 1.251 . S
C579 O591 1.268 . S
O580 Nd560 2.500 . S
O580 C562 1.258 . S
O581 Nd560 2.492 . S
O581 C562 1.239 . S
O582 Nd560 2.487 . S
O582 C569 1.241 . S
O583 Nd560 2.682 . S
O583 Nd561 2.414 . S
O583 C569 1.273 . S
O584 Nd560 2.410 . S
O584 C570 1.251 . S
O585 Nd561 2.424 . S
O585 C570 1.268 . S
O586 Nd561 2.500 . S
O586 C571 1.258 . S
O587 Nd561 2.492 . S
O587 C571 1.239 . S
O588 Nd561 2.487 . S
O588 C578 1.241 . S
O589 Nd560 2.414 . S
O589 Nd561 2.682 . S
O589 C578 1.273 . S
O590 Nd561 2.410 . S
O590 C579 1.251 . S
O591 Nd560 2.424 . S
O591 C579 1.268 . S
H592 C564 0.930 . S
H593 C565 0.929 . S
H594 C567 0.930 . S
H595 C568 0.929 . S
H596 C573 0.930 . S
H597 C574 0.929 . S
H598 C576 0.930 . S
H599 C577 0.929 . S
Nd600 C602 2.836 . S
Nd600 O620 2.500 . S
Nd600 O621 2.492 . S
Nd600 O622 2.487 1_655 S
Nd600 O623 2.682 1_655 S
Nd600 O624 2.410 . S
Nd600 O629 2.414 1_554 S
Nd600 O631 2.424 1_655 S
Nd601 C611 2.836 . S
Nd601 O623 2.414 1_556 S
Nd601 O625 2.424 1_455 S
Nd601 O626 2.500 . S
Nd601 O627 2.492 . S
Nd601 O628 2.487 1_455 S
Nd601 O629 2.682 1_455 S
Nd601 O630 2.410 . S
C602 Nd600 2.836 . S
C602 C603 1.498 . S
C602 O620 1.258 . S
C602 O621 1.239 . S
C603 C602 1.498 . S
C603 C604 1.366 . S
C603 C608 1.407 . S
C604 C603 1.366 . S
C604 C605 1.392 . S
C604 H632 0.930 . S
C605 C604 1.392 . S
C605 C606 1.398 . S
C605 H633 0.929 . S
C606 C605 1.398 . S
C606 C607 1.352 . S
C607 C606 1.352 . S
C607 C608 1.384 . S
C607 H634 0.930 . S
C608 C603 1.407 . S
C608 C607 1.384 . S
C608 H635 0.929 . S
C609 O622 1.241 . S
C609 O623 1.273 . S
C610 O624 1.251 1_556 S
C610 O625 1.268 . S
C611 Nd601 2.836 . S
C611 C612 1.498 . S
C611 O626 1.258 . S
C611 O627 1.239 . S
C612 C611 1.498 . S
C612 C613 1.366 . S
C612 C617 1.407 . S
C613 C612 1.366 . S
C613 C614 1.392 . S
C613 H636 0.930 . S
C614 C613 1.392 . S
C614 C615 1.398 . S
C614 H637 0.929 . S
C615 C614 1.398 . S
C615 C616 1.352 . S
C616 C615 1.352 . S
C616 C617 1.384 . S
C616 H638 0.930 . S
C617 C612 1.407 . S
C617 C616 1.384 . S
C617 H639 0.929 . S
C618 O628 1.241 . S
C618 O629 1.273 . S
C619 O630 1.251 1_554 S
C619 O631 1.268 . S
O620 Nd600 2.500 . S
O620 C602 1.258 . S
O621 Nd600 2.492 . S
O621 C602 1.239 . S
O622 Nd600 2.487 1_455 S
O622 C609 1.241 . S
O623 Nd600 2.682 1_455 S
O623 Nd601 2.414 1_554 S
O623 C609 1.273 . S
O624 Nd600 2.410 . S
O624 C610 1.251 1_554 S
O625 Nd601 2.424 1_655 S
O625 C610 1.268 . S
O626 Nd601 2.500 . S
O626 C611 1.258 . S
O627 Nd601 2.492 . S
O627 C611 1.239 . S
O628 Nd601 2.487 1_655 S
O628 C618 1.241 . S
O629 Nd600 2.414 1_556 S
O629 Nd601 2.682 1_655 S
O629 C618 1.273 . S
O630 Nd601 2.410 . S
O630 C619 1.251 1_556 S
O631 Nd600 2.424 1_455 S
O631 C619 1.268 . S
H632 C604 0.930 . S
H633 C605 0.929 . S
H634 C607 0.930 . S
H635 C608 0.929 . S
H636 C613 0.930 . S
H637 C614 0.929 . S
H638 C616 0.930 . S
H639 C617 0.929 . S
C640 C641 1.391 . S
C640 C642 1.394 . S
C640 H656 0.931 . S
C641 C640 1.391 . S
C641 C645 1.376 . S
C642 C640 1.394 . S
C642 C643 1.369 . S
C642 C646 1.531 . S
C643 C642 1.369 . S
C643 C644 1.410 . S
C643 C651 1.503 . S
C644 C643 1.410 . S
C644 C645 1.392 . S
C644 C647 1.511 . S
C645 C641 1.376 . S
C645 C644 1.392 . S
C645 H657 0.929 . S
C646 C642 1.531 . S
C646 H658 0.960 . S
C646 H659 0.962 . S
C646 H660 0.960 . S
C647 C644 1.511 . S
C647 H661 0.961 . S
C647 H662 0.961 . S
C647 H663 0.961 . S
C648 C649 1.370 . S
C648 C650 1.363 . S
C648 H664 0.931 . S
C649 C648 1.370 . S
C649 C653 1.408 . S
C650 C648 1.363 . S
C650 C651 1.370 . S
C650 C654 1.524 . S
C651 C643 1.503 . S
C651 C650 1.370 . S
C651 C652 1.403 . S
C652 C651 1.403 . S
C652 C653 1.404 . S
C652 C655 1.539 . S
C653 C649 1.408 . S
C653 C652 1.404 . S
C653 H665 0.930 . S
C654 C650 1.524 . S
C654 H666 0.956 . S
C654 H667 0.961 . S
C654 H668 0.961 . S
C655 C652 1.539 . S
C655 H669 0.958 . S
C655 H670 0.961 . S
C655 H671 0.960 . S
H656 C640 0.931 . S
H657 C645 0.929 . S
H658 C646 0.960 . S
H659 C646 0.962 . S
H660 C646 0.960 . S
H661 C647 0.961 . S
H662 C647 0.961 . S
H663 C647 0.961 . S
H664 C648 0.931 . S
H665 C653 0.930 . S
H666 C654 0.956 . S
H667 C654 0.961 . S
H668 C654 0.961 . S
H669 C655 0.958 . S
H670 C655 0.961 . S
H671 C655 0.960 . S
C672 C673 1.391 . S
C672 C674 1.394 . S
C672 H688 0.931 . S
C673 C672 1.391 . S
C673 C677 1.376 . S
C674 C672 1.394 . S
C674 C675 1.369 . S
C674 C678 1.531 . S
C675 C674 1.369 . S
C675 C676 1.410 . S
C675 C683 1.503 . S
C676 C675 1.410 . S
C676 C677 1.392 . S
C676 C679 1.511 . S
C677 C673 1.376 . S
C677 C676 1.392 . S
C677 H689 0.929 . S
C678 C674 1.531 . S
C678 H690 0.960 . S
C678 H691 0.962 . S
C678 H692 0.960 . S
C679 C676 1.511 . S
C679 H693 0.961 . S
C679 H694 0.961 . S
C679 H695 0.961 . S
C680 C681 1.370 . S
C680 C682 1.363 . S
C680 H696 0.931 . S
C681 C680 1.370 . S
C681 C685 1.408 . S
C682 C680 1.363 . S
C682 C683 1.370 . S
C682 C686 1.524 . S
C683 C675 1.503 . S
C683 C682 1.370 . S
C683 C684 1.403 . S
C684 C683 1.403 . S
C684 C685 1.404 . S
C684 C687 1.539 . S
C685 C681 1.408 . S
C685 C684 1.404 . S
C685 H697 0.930 . S
C686 C682 1.524 . S
C686 H698 0.956 . S
C686 H699 0.961 . S
C686 H700 0.961 . S
C687 C684 1.539 . S
C687 H701 0.958 . S
C687 H702 0.961 . S
C687 H703 0.960 . S
H688 C672 0.931 . S
H689 C677 0.929 . S
H690 C678 0.960 . S
H691 C678 0.962 . S
H692 C678 0.960 . S
H693 C679 0.961 . S
H694 C679 0.961 . S
H695 C679 0.961 . S
H696 C680 0.931 . S
H697 C685 0.930 . S
H698 C686 0.956 . S
H699 C686 0.961 . S
H700 C686 0.961 . S
H701 C687 0.958 . S
H702 C687 0.961 . S
H703 C687 0.960 . S
C704 C705 1.391 . S
C704 C706 1.394 . S
C704 H720 0.931 . S
C705 C704 1.391 . S
C705 C709 1.376 . S
C706 C704 1.394 . S
C706 C707 1.369 . S
C706 C710 1.531 . S
C707 C706 1.369 . S
C707 C708 1.410 . S
C707 C715 1.503 . S
C708 C707 1.410 . S
C708 C709 1.392 . S
C708 C711 1.511 . S
C709 C705 1.376 . S
C709 C708 1.392 . S
C709 H721 0.929 . S
C710 C706 1.531 . S
C710 H722 0.960 . S
C710 H723 0.962 . S
C710 H724 0.960 . S
C711 C708 1.511 . S
C711 H725 0.961 . S
C711 H726 0.961 . S
C711 H727 0.961 . S
C712 C713 1.370 . S
C712 C714 1.363 . S
C712 H728 0.931 . S
C713 C712 1.370 . S
C713 C717 1.408 . S
C714 C712 1.363 . S
C714 C715 1.370 . S
C714 C718 1.524 . S
C715 C707 1.503 . S
C715 C714 1.370 . S
C715 C716 1.403 . S
C716 C715 1.403 . S
C716 C717 1.404 . S
C716 C719 1.539 . S
C717 C713 1.408 . S
C717 C716 1.404 . S
C717 H729 0.930 . S
C718 C714 1.524 . S
C718 H730 0.956 . S
C718 H731 0.961 . S
C718 H732 0.961 . S
C719 C716 1.539 . S
C719 H733 0.958 . S
C719 H734 0.961 . S
C719 H735 0.960 . S
H720 C704 0.931 . S
H721 C709 0.929 . S
H722 C710 0.960 . S
H723 C710 0.962 . S
H724 C710 0.960 . S
H725 C711 0.961 . S
H726 C711 0.961 . S
H727 C711 0.961 . S
H728 C712 0.931 . S
H729 C717 0.930 . S
H730 C718 0.956 . S
H731 C718 0.961 . S
H732 C718 0.961 . S
H733 C719 0.958 . S
H734 C719 0.961 . S
H735 C719 0.960 . S
C736 C737 1.391 . S
C736 C738 1.394 . S
C736 H752 0.931 . S
C737 C736 1.391 . S
C737 C741 1.376 . S
C738 C736 1.394 . S
C738 C739 1.369 . S
C738 C742 1.531 . S
C739 C738 1.369 . S
C739 C740 1.410 . S
C739 C747 1.503 . S
C740 C739 1.410 . S
C740 C741 1.392 . S
C740 C743 1.511 . S
C741 C737 1.376 . S
C741 C740 1.392 . S
C741 H753 0.929 . S
C742 C738 1.531 . S
C742 H754 0.960 . S
C742 H755 0.962 . S
C742 H756 0.960 . S
C743 C740 1.511 . S
C743 H757 0.961 . S
C743 H758 0.961 . S
C743 H759 0.961 . S
C744 C745 1.370 . S
C744 C746 1.363 . S
C744 H760 0.931 . S
C745 C744 1.370 . S
C745 C749 1.408 . S
C746 C744 1.363 . S
C746 C747 1.370 . S
C746 C750 1.524 . S
C747 C739 1.503 . S
C747 C746 1.370 . S
C747 C748 1.403 . S
C748 C747 1.403 . S
C748 C749 1.404 . S
C748 C751 1.539 . S
C749 C745 1.408 . S
C749 C748 1.404 . S
C749 H761 0.930 . S
C750 C746 1.524 . S
C750 H762 0.956 . S
C750 H763 0.961 . S
C750 H764 0.961 . S
C751 C748 1.539 . S
C751 H765 0.958 . S
C751 H766 0.961 . S
C751 H767 0.960 . S
H752 C736 0.931 . S
H753 C741 0.929 . S
H754 C742 0.960 . S
H755 C742 0.962 . S
H756 C742 0.960 . S
H757 C743 0.961 . S
H758 C743 0.961 . S
H759 C743 0.961 . S
H760 C744 0.931 . S
H761 C749 0.930 . S
H762 C750 0.956 . S
H763 C750 0.961 . S
H764 C750 0.961 . S
H765 C751 0.958 . S
H766 C751 0.961 . S
H767 C751 0.960 . S
C768 C769 1.391 . S
C768 C770 1.394 . S
C768 H784 0.931 . S
C769 C768 1.391 . S
C769 C773 1.376 . S
C770 C768 1.394 . S
C770 C771 1.369 . S
C770 C774 1.536 . S
C771 C770 1.369 . S
C771 C772 1.410 . S
C771 C779 1.503 . S
C772 C771 1.410 . S
C772 C773 1.392 . S
C772 C775 1.511 . S
C773 C769 1.376 . S
C773 C772 1.392 . S
C773 H785 0.929 . S
C774 C770 1.536 . S
C774 H786 0.957 1_554 S
C774 H787 0.964 . S
C774 H788 0.957 1_554 S
C775 C772 1.511 . S
C775 H789 0.961 . S
C775 H790 0.961 . S
C775 H791 0.961 . S
C776 C777 1.370 . S
C776 C778 1.363 . S
C776 H792 0.931 . S
C777 C776 1.370 . S
C777 C781 1.408 . S
C778 C776 1.363 . S
C778 C779 1.370 . S
C778 C782 1.524 . S
C779 C771 1.503 . S
C779 C778 1.370 . S
C779 C780 1.403 . S
C780 C779 1.403 . S
C780 C781 1.404 . S
C780 C783 1.539 . S
C781 C777 1.408 . S
C781 C780 1.404 . S
C781 H793 0.930 1_554 S
C782 C778 1.524 . S
C782 H794 0.956 . S
C782 H795 0.961 . S
C782 H796 0.961 . S
C783 C780 1.539 . S
C783 H797 0.958 1_554 S
C783 H798 0.961 1_554 S
C783 H799 0.960 . S
H784 C768 0.931 . S
H785 C773 0.929 . S
H786 C774 0.957 1_556 S
H787 C774 0.964 . S
H788 C774 0.957 1_556 S
H789 C775 0.961 . S
H790 C775 0.961 . S
H791 C775 0.961 . S
H792 C776 0.931 . S
H793 C781 0.930 1_556 S
H794 C782 0.956 . S
H795 C782 0.961 . S
H796 C782 0.961 . S
H797 C783 0.958 1_556 S
H798 C783 0.961 1_556 S
H799 C783 0.960 . S
C800 C801 1.391 . S
C800 C802 1.394 . S
C800 H816 0.931 . S
C801 C800 1.391 . S
C801 C805 1.376 . S
C802 C800 1.394 . S
C802 C803 1.369 . S
C802 C806 1.531 . S
C803 C802 1.369 . S
C803 C804 1.410 . S
C803 C811 1.503 . S
C804 C803 1.410 . S
C804 C805 1.392 . S
C804 C807 1.511 . S
C805 C801 1.376 . S
C805 C804 1.392 . S
C805 H817 0.929 . S
C806 C802 1.531 . S
C806 H818 0.960 . S
C806 H819 0.962 . S
C806 H820 0.960 . S
C807 C804 1.511 . S
C807 H821 0.961 . S
C807 H822 0.961 . S
C807 H823 0.961 . S
C808 C809 1.370 . S
C808 C810 1.363 . S
C808 H824 0.931 . S
C809 C808 1.370 . S
C809 C813 1.408 . S
C810 C808 1.363 . S
C810 C811 1.370 . S
C810 C814 1.524 . S
C811 C803 1.503 . S
C811 C810 1.370 . S
C811 C812 1.403 . S
C812 C811 1.403 . S
C812 C813 1.404 . S
C812 C815 1.539 . S
C813 C809 1.408 . S
C813 C812 1.404 . S
C813 H825 0.930 . S
C814 C810 1.524 . S
C814 H826 0.956 . S
C814 H827 0.961 . S
C814 H828 0.961 . S
C815 C812 1.539 . S
C815 H829 0.958 . S
C815 H830 0.961 . S
C815 H831 0.960 . S
H816 C800 0.931 . S
H817 C805 0.929 . S
H818 C806 0.960 . S
H819 C806 0.962 . S
H820 C806 0.960 . S
H821 C807 0.961 . S
H822 C807 0.961 . S
H823 C807 0.961 . S
H824 C808 0.931 . S
H825 C813 0.930 . S
H826 C814 0.956 . S
H827 C814 0.961 . S
H828 C814 0.961 . S
H829 C815 0.958 . S
H830 C815 0.961 . S
H831 C815 0.960 . S
C832 C833 1.391 . S
C832 C834 1.394 . S
C832 H848 0.931 . S
C833 C832 1.391 . S
C833 C837 1.376 . S
C834 C832 1.394 . S
C834 C835 1.369 . S
C834 C838 1.531 . S
C835 C834 1.369 . S
C835 C836 1.410 . S
C835 C843 1.503 . S
C836 C835 1.410 . S
C836 C837 1.392 . S
C836 C839 1.511 . S
C837 C833 1.376 . S
C837 C836 1.392 . S
C837 H849 0.929 . S
C838 C834 1.531 . S
C838 H850 0.960 . S
C838 H851 0.962 . S
C838 H852 0.960 . S
C839 C836 1.511 . S
C839 H853 0.961 . S
C839 H854 0.961 . S
C839 H855 0.961 . S
C840 C841 1.370 . S
C840 C842 1.363 . S
C840 H856 0.931 1_556 S
C841 C840 1.370 . S
C841 C845 1.408 . S
C842 C840 1.363 . S
C842 C843 1.370 . S
C842 C846 1.524 . S
C843 C835 1.503 . S
C843 C842 1.370 . S
C843 C844 1.403 . S
C844 C843 1.403 . S
C844 C845 1.404 . S
C844 C847 1.539 . S
C845 C841 1.408 . S
C845 C844 1.404 . S
C845 H857 0.930 . S
C846 C842 1.524 . S
C846 H858 0.956 . S
C846 H859 0.961 . S
C846 H860 0.961 1_556 S
C847 C844 1.539 . S
C847 H861 0.958 . S
C847 H862 0.961 . S
C847 H863 0.960 . S
H848 C832 0.931 . S
H849 C837 0.929 . S
H850 C838 0.960 . S
H851 C838 0.962 . S
H852 C838 0.960 . S
H853 C839 0.961 . S
H854 C839 0.961 . S
H855 C839 0.961 . S
H856 C840 0.931 1_554 S
H857 C845 0.930 . S
H858 C846 0.956 . S
H859 C846 0.961 . S
H860 C846 0.961 1_554 S
H861 C847 0.958 . S
H862 C847 0.961 . S
H863 C847 0.960 . S
C864 C865 1.391 . S
C864 C866 1.394 . S
C864 H880 0.931 . S
C865 C864 1.391 . S
C865 C869 1.376 . S
C866 C864 1.394 . S
C866 C867 1.369 . S
C866 C870 1.531 . S
C867 C866 1.369 . S
C867 C868 1.410 . S
C867 C875 1.503 . S
C868 C867 1.410 . S
C868 C869 1.392 . S
C868 C871 1.511 . S
C869 C865 1.376 . S
C869 C868 1.392 . S
C869 H881 0.929 . S
C870 C866 1.531 . S
C870 H882 0.960 . S
C870 H883 0.962 . S
C870 H884 0.960 . S
C871 C868 1.511 . S
C871 H885 0.961 . S
C871 H886 0.961 . S
C871 H887 0.961 . S
C872 C873 1.370 . S
C872 C874 1.363 . S
C872 H888 0.931 . S
C873 C872 1.370 . S
C873 C877 1.408 . S
C874 C872 1.363 . S
C874 C875 1.370 . S
C874 C878 1.524 . S
C875 C867 1.503 . S
C875 C874 1.370 . S
C875 C876 1.403 . S
C876 C875 1.403 . S
C876 C877 1.404 . S
C876 C879 1.539 . S
C877 C873 1.408 . S
C877 C876 1.404 . S
C877 H889 0.930 . S
C878 C874 1.524 . S
C878 H890 0.956 . S
C878 H891 0.961 . S
C878 H892 0.961 . S
C879 C876 1.539 . S
C879 H893 0.958 . S
C879 H894 0.961 . S
C879 H895 0.960 . S
H880 C864 0.931 . S
H881 C869 0.929 . S
H882 C870 0.960 . S
H883 C870 0.962 . S
H884 C870 0.960 . S
H885 C871 0.961 . S
H886 C871 0.961 . S
H887 C871 0.961 . S
H888 C872 0.931 . S
H889 C877 0.930 . S
H890 C878 0.956 . S
H891 C878 0.961 . S
H892 C878 0.961 . S
H893 C879 0.958 . S
H894 C879 0.961 . S
H895 C879 0.960 . S
C896 C897 1.391 . S
C896 C898 1.394 . S
C896 H912 0.931 . S
C897 C896 1.391 . S
C897 C901 1.376 . S
C898 C896 1.394 . S
C898 C899 1.369 . S
C898 C902 1.531 . S
C899 C898 1.369 . S
C899 C900 1.410 . S
C899 C907 1.503 . S
C900 C899 1.410 . S
C900 C901 1.392 . S
C900 C903 1.511 . S
C901 C897 1.376 . S
C901 C900 1.392 . S
C901 H913 0.929 . S
C902 C898 1.531 . S
C902 H914 0.960 1_554 S
C902 H915 0.962 . S
C902 H916 0.960 1_554 S
C903 C900 1.511 . S
C903 H917 0.961 . S
C903 H918 0.961 . S
C903 H919 0.961 . S
C904 C905 1.370 . S
C904 C906 1.363 . S
C904 H920 0.931 . S
C905 C904 1.370 . S
C905 C909 1.428 . S
C906 C904 1.363 . S
C906 C907 1.370 . S
C906 C910 1.524 . S
C907 C899 1.503 . S
C907 C906 1.370 . S
C907 C908 1.403 . S
C908 C907 1.403 . S
C908 C909 1.409 . S
C908 C911 1.539 1_554 S
C909 C905 1.428 . S
C909 C908 1.409 . S
C909 H921 0.907 1_554 S
C910 C906 1.524 . S
C910 H922 0.956 . S
C910 H923 0.961 . S
C910 H924 0.961 . S
C911 C908 1.539 1_556 S
C911 H925 0.958 . S
C911 H926 0.961 . S
C911 H927 0.960 . S
H912 C896 0.931 . S
H913 C901 0.929 . S
H914 C902 0.960 1_556 S
H915 C902 0.962 . S
H916 C902 0.960 1_556 S
H917 C903 0.961 . S
H918 C903 0.961 . S
H919 C903 0.961 . S
H920 C904 0.931 . S
H921 C909 0.907 1_556 S
H922 C910 0.956 . S
H923 C910 0.961 . S
H924 C910 0.961 . S
H925 C911 0.958 . S
H926 C911 0.961 . S
H927 C911 0.960 . S
C928 C929 1.391 . S
C928 C930 1.394 . S
C928 H944 0.931 . S
C929 C928 1.391 . S
C929 C933 1.376 . S
C930 C928 1.394 . S
C930 C931 1.369 . S
C930 C934 1.531 . S
C931 C930 1.369 . S
C931 C932 1.410 . S
C931 C939 1.503 . S
C932 C931 1.410 . S
C932 C933 1.392 . S
C932 C935 1.511 . S
C933 C929 1.376 . S
C933 C932 1.392 . S
C933 H945 0.929 . S
C934 C930 1.531 . S
C934 H946 0.960 . S
C934 H947 0.962 . S
C934 H948 0.960 . S
C935 C932 1.511 . S
C935 H949 0.961 . S
C935 H950 0.961 . S
C935 H951 0.961 . S
C936 C937 1.370 . S
C936 C938 1.363 . S
C936 H952 0.931 . S
C937 C936 1.370 . S
C937 C941 1.408 . S
C938 C936 1.363 . S
C938 C939 1.370 . S
C938 C942 1.524 . S
C939 C931 1.503 . S
C939 C938 1.370 . S
C939 C940 1.403 . S
C940 C939 1.403 . S
C940 C941 1.404 . S
C940 C943 1.539 . S
C941 C937 1.408 . S
C941 C940 1.404 . S
C941 H953 0.930 . S
C942 C938 1.524 . S
C942 H954 0.956 . S
C942 H955 0.961 . S
C942 H956 0.961 . S
C943 C940 1.539 . S
C943 H957 0.958 . S
C943 H958 0.961 . S
C943 H959 0.960 . S
H944 C928 0.931 . S
H945 C933 0.929 . S
H946 C934 0.960 . S
H947 C934 0.962 . S
H948 C934 0.960 . S
H949 C935 0.961 . S
H950 C935 0.961 . S
H951 C935 0.961 . S
H952 C936 0.931 . S
H953 C941 0.930 . S
H954 C942 0.956 . S
H955 C942 0.961 . S
H956 C942 0.961 . S
H957 C943 0.958 . S
H958 C943 0.961 . S
H959 C943 0.960 . S
C960 C961 1.391 . S
C960 C962 1.394 . S
C960 H976 0.931 . S
C961 C960 1.391 . S
C961 C965 1.376 . S
C962 C960 1.394 . S
C962 C963 1.369 . S
C962 C966 1.531 . S
C963 C962 1.369 . S
C963 C964 1.410 . S
C963 C971 1.503 . S
C964 C963 1.410 . S
C964 C965 1.392 . S
C964 C967 1.511 . S
C965 C961 1.376 . S
C965 C964 1.392 . S
C965 H977 0.929 . S
C966 C962 1.531 . S
C966 H978 0.960 . S
C966 H979 0.962 . S
C966 H980 0.960 . S
C967 C964 1.511 . S
C967 H981 0.961 . S
C967 H982 0.961 . S
C967 H983 0.961 . S
C968 C969 1.370 . S
C968 C970 1.363 . S
C968 H984 0.931 . S
C969 C968 1.370 . S
C969 C973 1.408 . S
C970 C968 1.363 . S
C970 C971 1.370 . S
C970 C974 1.524 . S
C971 C963 1.503 . S
C971 C970 1.370 . S
C971 C972 1.403 . S
C972 C971 1.403 . S
C972 C973 1.404 . S
C972 C975 1.539 . S
C973 C969 1.408 . S
C973 C972 1.404 . S
C973 H985 0.930 . S
C974 C970 1.524 . S
C974 H986 0.956 . S
C974 H987 0.961 . S
C974 H988 0.961 . S
C975 C972 1.539 . S
C975 H989 0.958 . S
C975 H990 0.961 . S
C975 H991 0.960 . S
H976 C960 0.931 . S
H977 C965 0.929 . S
H978 C966 0.960 . S
H979 C966 0.962 . S
H980 C966 0.960 . S
H981 C967 0.961 . S
H982 C967 0.961 . S
H983 C967 0.961 . S
H984 C968 0.931 . S
H985 C973 0.930 . S
H986 C974 0.956 . S
H987 C974 0.961 . S
H988 C974 0.961 . S
H989 C975 0.958 . S
H990 C975 0.961 . S
H991 C975 0.960 . S
C992 C993 1.391 . S
C992 C994 1.394 . S
C992 H1008 0.931 . S
C993 C992 1.391 . S
C993 C997 1.376 . S
C994 C992 1.394 . S
C994 C995 1.369 . S
C994 C998 1.531 . S
C995 C994 1.369 . S
C995 C996 1.410 . S
C995 C1003 1.503 . S
C996 C995 1.410 . S
C996 C997 1.392 . S
C996 C999 1.511 . S
C997 C993 1.376 . S
C997 C996 1.392 . S
C997 H1009 0.929 . S
C998 C994 1.531 . S
C998 H1010 0.960 . S
C998 H1011 0.962 . S
C998 H1012 0.960 . S
C999 C996 1.511 . S
C999 H1013 0.961 . S
C999 H1014 0.961 . S
C999 H1015 0.961 . S
C1000 C1001 1.370 . S
C1000 C1002 1.363 . S
C1000 H1016 0.931 . S
C1001 C1000 1.370 . S
C1001 C1005 1.408 . S
C1002 C1000 1.363 . S
C1002 C1003 1.370 . S
C1002 C1006 1.524 . S
C1003 C995 1.503 . S
C1003 C1002 1.370 . S
C1003 C1004 1.403 . S
C1004 C1003 1.403 . S
C1004 C1005 1.404 . S
C1004 C1007 1.539 . S
C1005 C1001 1.408 . S
C1005 C1004 1.404 . S
C1005 H1017 0.930 . S
C1006 C1002 1.524 . S
C1006 H1018 0.956 . S
C1006 H1019 0.961 . S
C1006 H1020 0.961 . S
C1007 C1004 1.539 . S
C1007 H1021 0.958 . S
C1007 H1022 0.961 . S
C1007 H1023 0.960 . S
H1008 C992 0.931 . S
H1009 C997 0.929 . S
H1010 C998 0.960 . S
H1011 C998 0.962 . S
H1012 C998 0.960 . S
H1013 C999 0.961 . S
H1014 C999 0.961 . S
H1015 C999 0.961 . S
H1016 C1000 0.931 . S
H1017 C1005 0.930 . S
H1018 C1006 0.956 . S
H1019 C1006 0.961 . S
H1020 C1006 0.961 . S
H1021 C1007 0.958 . S
H1022 C1007 0.961 . S
H1023 C1007 0.960 . S
C1024 C1025 1.391 . S
C1024 C1026 1.394 . S
C1024 H1040 0.931 . S
C1025 C1024 1.391 . S
C1025 C1029 1.376 . S
C1026 C1024 1.394 . S
C1026 C1027 1.369 . S
C1026 C1030 1.531 . S
C1027 C1026 1.369 . S
C1027 C1028 1.410 . S
C1027 C1035 1.503 . S
C1028 C1027 1.410 . S
C1028 C1029 1.392 . S
C1028 C1031 1.511 . S
C1029 C1025 1.376 . S
C1029 C1028 1.392 . S
C1029 H1041 0.929 . S
C1030 C1026 1.531 . S
C1030 H1042 0.960 . S
C1030 H1043 0.962 . S
C1030 H1044 0.960 . S
C1031 C1028 1.511 . S
C1031 H1045 0.961 . S
C1031 H1046 0.961 . S
C1031 H1047 0.961 . S
C1032 C1033 1.370 . S
C1032 C1034 1.363 . S
C1032 H1048 0.931 . S
C1033 C1032 1.370 . S
C1033 C1037 1.408 . S
C1034 C1032 1.363 . S
C1034 C1035 1.370 . S
C1034 C1038 1.524 . S
C1035 C1027 1.503 . S
C1035 C1034 1.370 . S
C1035 C1036 1.403 . S
C1036 C1035 1.403 . S
C1036 C1037 1.404 . S
C1036 C1039 1.539 . S
C1037 C1033 1.408 . S
C1037 C1036 1.404 . S
C1037 H1049 0.930 . S
C1038 C1034 1.524 . S
C1038 H1050 0.956 . S
C1038 H1051 0.961 . S
C1038 H1052 0.961 . S
C1039 C1036 1.539 . S
C1039 H1053 0.958 . S
C1039 H1054 0.961 . S
C1039 H1055 0.960 . S
H1040 C1024 0.931 . S
H1041 C1029 0.929 . S
H1042 C1030 0.960 . S
H1043 C1030 0.962 . S
H1044 C1030 0.960 . S
H1045 C1031 0.961 . S
H1046 C1031 0.961 . S
H1047 C1031 0.961 . S
H1048 C1032 0.931 . S
H1049 C1037 0.930 . S
H1050 C1038 0.956 . S
H1051 C1038 0.961 . S
H1052 C1038 0.961 . S
H1053 C1039 0.958 . S
H1054 C1039 0.961 . S
H1055 C1039 0.960 . S
C1056 C1057 1.391 . S
C1056 C1058 1.394 . S
C1056 H1072 0.931 . S
C1057 C1056 1.391 . S
C1057 C1061 1.376 . S
C1058 C1056 1.394 . S
C1058 C1059 1.369 . S
C1058 C1062 1.531 . S
C1059 C1058 1.369 . S
C1059 C1060 1.410 . S
C1059 C1067 1.503 . S
C1060 C1059 1.410 . S
C1060 C1061 1.392 . S
C1060 C1063 1.511 . S
C1061 C1057 1.376 . S
C1061 C1060 1.392 . S
C1061 H1073 0.929 . S
C1062 C1058 1.531 . S
C1062 H1074 0.960 . S
C1062 H1075 0.962 . S
C1062 H1076 0.960 . S
C1063 C1060 1.511 . S
C1063 H1077 0.961 . S
C1063 H1078 0.961 . S
C1063 H1079 0.961 . S
C1064 C1065 1.370 . S
C1064 C1066 1.363 . S
C1064 H1080 0.931 . S
C1065 C1064 1.370 . S
C1065 C1069 1.408 . S
C1066 C1064 1.363 . S
C1066 C1067 1.370 . S
C1066 C1070 1.524 . S
C1067 C1059 1.503 . S
C1067 C1066 1.370 . S
C1067 C1068 1.403 . S
C1068 C1067 1.403 . S
C1068 C1069 1.404 . S
C1068 C1071 1.539 . S
C1069 C1065 1.408 . S
C1069 C1068 1.404 . S
C1069 H1081 0.930 . S
C1070 C1066 1.524 . S
C1070 H1082 0.956 . S
C1070 H1083 0.961 . S
C1070 H1084 0.961 . S
C1071 C1068 1.539 . S
C1071 H1085 0.958 . S
C1071 H1086 0.961 . S
C1071 H1087 0.960 . S
H1072 C1056 0.931 . S
H1073 C1061 0.929 . S
H1074 C1062 0.960 . S
H1075 C1062 0.962 . S
H1076 C1062 0.960 . S
H1077 C1063 0.961 . S
H1078 C1063 0.961 . S
H1079 C1063 0.961 . S
H1080 C1064 0.931 . S
H1081 C1069 0.930 . S
H1082 C1070 0.956 . S
H1083 C1070 0.961 . S
H1084 C1070 0.961 . S
H1085 C1071 0.958 . S
H1086 C1071 0.961 . S
H1087 C1071 0.960 . S
C1088 C1089 1.391 . S
C1088 C1090 1.394 . S
C1088 H1104 0.931 . S
C1089 C1088 1.391 . S
C1089 C1093 1.376 . S
C1090 C1088 1.394 . S
C1090 C1091 1.369 . S
C1090 C1094 1.531 . S
C1091 C1090 1.369 . S
C1091 C1092 1.410 . S
C1091 C1099 1.503 . S
C1092 C1091 1.410 . S
C1092 C1093 1.392 . S
C1092 C1095 1.511 . S
C1093 C1089 1.376 . S
C1093 C1092 1.392 . S
C1093 H1105 0.929 . S
C1094 C1090 1.531 . S
C1094 H1106 0.960 . S
C1094 H1107 0.962 . S
C1094 H1108 0.960 . S
C1095 C1092 1.511 . S
C1095 H1109 0.961 . S
C1095 H1110 0.961 . S
C1095 H1111 0.961 . S
C1096 C1097 1.370 . S
C1096 C1098 1.363 . S
C1096 H1112 0.931 . S
C1097 C1096 1.370 . S
C1097 C1101 1.408 . S
C1098 C1096 1.363 . S
C1098 C1099 1.370 . S
C1098 C1102 1.524 . S
C1099 C1091 1.503 . S
C1099 C1098 1.370 . S
C1099 C1100 1.403 . S
C1100 C1099 1.403 . S
C1100 C1101 1.404 . S
C1100 C1103 1.539 . S
C1101 C1097 1.408 . S
C1101 C1100 1.404 . S
C1101 H1113 0.930 . S
C1102 C1098 1.524 . S
C1102 H1114 0.956 . S
C1102 H1115 0.961 . S
C1102 H1116 0.961 . S
C1103 C1100 1.539 . S
C1103 H1117 0.958 . S
C1103 H1118 0.961 . S
C1103 H1119 0.960 . S
H1104 C1088 0.931 . S
H1105 C1093 0.929 . S
H1106 C1094 0.960 . S
H1107 C1094 0.962 . S
H1108 C1094 0.960 . S
H1109 C1095 0.961 . S
H1110 C1095 0.961 . S
H1111 C1095 0.961 . S
H1112 C1096 0.931 . S
H1113 C1101 0.930 . S
H1114 C1102 0.956 . S
H1115 C1102 0.961 . S
H1116 C1102 0.961 . S
H1117 C1103 0.958 . S
H1118 C1103 0.961 . S
H1119 C1103 0.960 . S
C1120 C1121 1.391 . S
C1120 C1122 1.394 . S
C1120 H1136 0.931 . S
C1121 C1120 1.391 . S
C1121 C1125 1.376 . S
C1122 C1120 1.394 . S
C1122 C1123 1.369 . S
C1122 C1126 1.531 . S
C1123 C1122 1.369 . S
C1123 C1124 1.410 . S
C1123 C1131 1.503 . S
C1124 C1123 1.410 . S
C1124 C1125 1.392 . S
C1124 C1127 1.511 . S
C1125 C1121 1.376 . S
C1125 C1124 1.392 . S
C1125 H1137 0.929 . S
C1126 C1122 1.531 . S
C1126 H1138 0.960 . S
C1126 H1139 0.962 . S
C1126 H1140 0.960 . S
C1127 C1124 1.511 . S
C1127 H1141 0.961 . S
C1127 H1142 0.961 . S
C1127 H1143 0.961 . S
C1128 C1129 1.370 . S
C1128 C1130 1.363 . S
C1128 H1144 0.931 . S
C1129 C1128 1.370 . S
C1129 C1133 1.408 . S
C1130 C1128 1.363 . S
C1130 C1131 1.370 . S
C1130 C1134 1.524 . S
C1131 C1123 1.503 . S
C1131 C1130 1.370 . S
C1131 C1132 1.403 . S
C1132 C1131 1.403 . S
C1132 C1133 1.404 . S
C1132 C1135 1.539 . S
C1133 C1129 1.408 . S
C1133 C1132 1.404 . S
C1133 H1145 0.930 . S
C1134 C1130 1.524 . S
C1134 H1146 0.956 . S
C1134 H1147 0.961 . S
C1134 H1148 0.961 . S
C1135 C1132 1.539 . S
C1135 H1149 0.958 . S
C1135 H1150 0.961 . S
C1135 H1151 0.960 . S
H1136 C1120 0.931 . S
H1137 C1125 0.929 . S
H1138 C1126 0.960 . S
H1139 C1126 0.962 . S
H1140 C1126 0.960 . S
H1141 C1127 0.961 . S
H1142 C1127 0.961 . S
H1143 C1127 0.961 . S
H1144 C1128 0.931 . S
H1145 C1133 0.930 . S
H1146 C1134 0.956 . S
H1147 C1134 0.961 . S
H1148 C1134 0.961 . S
H1149 C1135 0.958 . S
H1150 C1135 0.961 . S
H1151 C1135 0.960 . S
C1152 C1153 1.391 . S
C1152 C1154 1.394 . S
C1152 H1168 0.931 . S
C1153 C1152 1.391 . S
C1153 C1157 1.376 . S
C1154 C1152 1.394 . S
C1154 C1155 1.369 . S
C1154 C1158 1.531 . S
C1155 C1154 1.369 . S
C1155 C1156 1.410 . S
C1155 C1163 1.503 . S
C1156 C1155 1.410 . S
C1156 C1157 1.392 . S
C1156 C1159 1.511 . S
C1157 C1153 1.376 . S
C1157 C1156 1.392 . S
C1157 H1169 0.929 . S
C1158 C1154 1.531 . S
C1158 H1170 0.960 . S
C1158 H1171 0.962 . S
C1158 H1172 0.960 . S
C1159 C1156 1.511 . S
C1159 H1173 0.961 . S
C1159 H1174 0.961 . S
C1159 H1175 0.961 . S
C1160 C1161 1.370 . S
C1160 C1162 1.363 . S
C1160 H1176 0.931 . S
C1161 C1160 1.370 . S
C1161 C1165 1.408 . S
C1162 C1160 1.363 . S
C1162 C1163 1.370 . S
C1162 C1166 1.524 . S
C1163 C1155 1.503 . S
C1163 C1162 1.370 . S
C1163 C1164 1.403 . S
C1164 C1163 1.403 . S
C1164 C1165 1.404 . S
C1164 C1167 1.539 1_556 S
C1165 C1161 1.408 . S
C1165 C1164 1.404 . S
C1165 H1177 0.930 1_556 S
C1166 C1162 1.524 . S
C1166 H1178 0.956 . S
C1166 H1179 0.961 . S
C1166 H1180 0.961 . S
C1167 C1164 1.539 1_554 S
C1167 H1181 0.958 . S
C1167 H1182 0.961 . S
C1167 H1183 0.960 . S
H1168 C1152 0.931 . S
H1169 C1157 0.929 . S
H1170 C1158 0.960 . S
H1171 C1158 0.962 . S
H1172 C1158 0.960 . S
H1173 C1159 0.961 . S
H1174 C1159 0.961 . S
H1175 C1159 0.961 . S
H1176 C1160 0.931 . S
H1177 C1165 0.930 1_554 S
H1178 C1166 0.956 . S
H1179 C1166 0.961 . S
H1180 C1166 0.961 . S
H1181 C1167 0.958 . S
H1182 C1167 0.961 . S
H1183 C1167 0.960 . S
C1184 C1185 1.391 . S
C1184 C1186 1.394 . S
C1184 H1200 0.931 . S
C1185 C1184 1.391 . S
C1185 C1189 1.376 . S
C1186 C1184 1.394 . S
C1186 C1187 1.369 . S
C1186 C1190 1.531 . S
C1187 C1186 1.369 . S
C1187 C1188 1.410 . S
C1187 C1195 1.503 . S
C1188 C1187 1.410 . S
C1188 C1189 1.392 . S
C1188 C1191 1.511 . S
C1189 C1185 1.376 . S
C1189 C1188 1.392 . S
C1189 H1201 0.929 . S
C1190 C1186 1.531 . S
C1190 H1202 0.960 . S
C1190 H1203 0.962 . S
C1190 H1204 0.960 . S
C1191 C1188 1.511 . S
C1191 H1205 0.961 . S
C1191 H1206 0.961 . S
C1191 H1207 0.961 . S
C1192 C1193 1.370 . S
C1192 C1194 1.363 . S
C1192 H1208 0.931 . S
C1193 C1192 1.370 . S
C1193 C1197 1.408 . S
C1194 C1192 1.363 . S
C1194 C1195 1.370 . S
C1194 C1198 1.524 . S
C1195 C1187 1.503 . S
C1195 C1194 1.370 . S
C1195 C1196 1.403 . S
C1196 C1195 1.403 . S
C1196 C1197 1.404 . S
C1196 C1199 1.539 . S
C1197 C1193 1.408 . S
C1197 C1196 1.404 . S
C1197 H1209 0.930 . S
C1198 C1194 1.524 . S
C1198 H1210 0.956 . S
C1198 H1211 0.961 . S
C1198 H1212 0.961 . S
C1199 C1196 1.539 . S
C1199 H1213 0.958 . S
C1199 H1214 0.961 . S
C1199 H1215 0.960 . S
H1200 C1184 0.931 . S
H1201 C1189 0.929 . S
H1202 C1190 0.960 . S
H1203 C1190 0.962 . S
H1204 C1190 0.960 . S
H1205 C1191 0.961 . S
H1206 C1191 0.961 . S
H1207 C1191 0.961 . S
H1208 C1192 0.931 . S
H1209 C1197 0.930 . S
H1210 C1198 0.956 . S
H1211 C1198 0.961 . S
H1212 C1198 0.961 . S
H1213 C1199 0.958 . S
H1214 C1199 0.961 . S
H1215 C1199 0.960 . S
C1216 C1217 1.391 . S
C1216 C1218 1.394 . S
C1216 H1232 0.931 . S
C1217 C1216 1.391 . S
C1217 C1221 1.376 . S
C1218 C1216 1.394 . S
C1218 C1219 1.369 . S
C1218 C1222 1.531 . S
C1219 C1218 1.369 . S
C1219 C1220 1.410 . S
C1219 C1227 1.503 . S
C1220 C1219 1.410 . S
C1220 C1221 1.392 . S
C1220 C1223 1.511 . S
C1221 C1217 1.376 . S
C1221 C1220 1.392 . S
C1221 H1233 0.929 . S
C1222 C1218 1.531 . S
C1222 H1234 0.960 . S
C1222 H1235 0.962 . S
C1222 H1236 0.960 . S
C1223 C1220 1.511 . S
C1223 H1237 0.961 . S
C1223 H1238 0.961 . S
C1223 H1239 0.961 . S
C1224 C1225 1.370 . S
C1224 C1226 1.363 . S
C1224 H1240 0.931 . S
C1225 C1224 1.370 . S
C1225 C1229 1.408 . S
C1226 C1224 1.363 . S
C1226 C1227 1.370 . S
C1226 C1230 1.524 . S
C1227 C1219 1.503 . S
C1227 C1226 1.370 . S
C1227 C1228 1.403 . S
C1228 C1227 1.403 . S
C1228 C1229 1.404 . S
C1228 C1231 1.539 . S
C1229 C1225 1.408 . S
C1229 C1228 1.404 . S
C1229 H1241 0.930 . S
C1230 C1226 1.524 . S
C1230 H1242 0.956 . S
C1230 H1243 0.961 . S
C1230 H1244 0.961 . S
C1231 C1228 1.539 . S
C1231 H1245 0.958 . S
C1231 H1246 0.961 . S
C1231 H1247 0.960 . S
H1232 C1216 0.931 . S
H1233 C1221 0.929 . S
H1234 C1222 0.960 . S
H1235 C1222 0.962 . S
H1236 C1222 0.960 . S
H1237 C1223 0.961 . S
H1238 C1223 0.961 . S
H1239 C1223 0.961 . S
H1240 C1224 0.931 . S
H1241 C1229 0.930 . S
H1242 C1230 0.956 . S
H1243 C1230 0.961 . S
H1244 C1230 0.961 . S
H1245 C1231 0.958 . S
H1246 C1231 0.961 . S
H1247 C1231 0.960 . S
C1248 C1249 1.391 . S
C1248 C1250 1.394 . S
C1248 H1264 0.931 . S
C1249 C1248 1.391 . S
C1249 C1253 1.376 . S
C1250 C1248 1.394 . S
C1250 C1251 1.369 . S
C1250 C1254 1.531 . S
C1251 C1250 1.369 . S
C1251 C1252 1.410 . S
C1251 C1259 1.503 . S
C1252 C1251 1.410 . S
C1252 C1253 1.392 . S
C1252 C1255 1.511 . S
C1253 C1249 1.376 . S
C1253 C1252 1.392 . S
C1253 H1265 0.929 . S
C1254 C1250 1.531 . S
C1254 H1266 0.960 . S
C1254 H1267 0.962 . S
C1254 H1268 0.960 . S
C1255 C1252 1.511 . S
C1255 H1269 0.961 . S
C1255 H1270 0.961 . S
C1255 H1271 0.961 . S
C1256 C1257 1.370 . S
C1256 C1258 1.363 . S
C1256 H1272 0.931 . S
C1257 C1256 1.370 . S
C1257 C1261 1.408 . S
C1258 C1256 1.363 . S
C1258 C1259 1.370 . S
C1258 C1262 1.524 . S
C1259 C1251 1.503 . S
C1259 C1258 1.370 . S
C1259 C1260 1.403 . S
C1260 C1259 1.403 . S
C1260 C1261 1.404 . S
C1260 C1263 1.539 . S
C1261 C1257 1.408 . S
C1261 C1260 1.404 . S
C1261 H1273 0.930 . S
C1262 C1258 1.524 . S
C1262 H1274 0.956 . S
C1262 H1275 0.961 . S
C1262 H1276 0.961 . S
C1263 C1260 1.539 . S
C1263 H1277 0.958 . S
C1263 H1278 0.961 . S
C1263 H1279 0.960 . S
H1264 C1248 0.931 . S
H1265 C1253 0.929 . S
H1266 C1254 0.960 . S
H1267 C1254 0.962 . S
H1268 C1254 0.960 . S
H1269 C1255 0.961 . S
H1270 C1255 0.961 . S
H1271 C1255 0.961 . S
H1272 C1256 0.931 . S
H1273 C1261 0.930 . S
H1274 C1262 0.956 . S
H1275 C1262 0.961 . S
H1276 C1262 0.961 . S
H1277 C1263 0.958 . S
H1278 C1263 0.961 . S
H1279 C1263 0.960 . S
C1280 C1281 1.391 . S
C1280 C1282 1.394 . S
C1280 H1296 0.931 . S
C1281 C1280 1.391 . S
C1281 C1285 1.376 . S
C1282 C1280 1.394 . S
C1282 C1283 1.369 . S
C1282 C1286 1.531 1_556 S
C1283 C1282 1.369 . S
C1283 C1284 1.410 . S
C1283 C1291 1.503 . S
C1284 C1283 1.410 . S
C1284 C1285 1.392 . S
C1284 C1287 1.511 . S
C1285 C1281 1.376 . S
C1285 C1284 1.392 . S
C1285 H1297 0.929 . S
C1286 C1282 1.531 1_554 S
C1286 H1298 0.960 . S
C1286 H1299 0.962 . S
C1286 H1300 0.960 . S
C1287 C1284 1.511 . S
C1287 H1301 0.961 . S
C1287 H1302 0.961 . S
C1287 H1303 0.961 . S
C1288 C1289 1.370 . S
C1288 C1290 1.363 . S
C1288 H1304 0.931 . S
C1289 C1288 1.370 . S
C1289 C1293 1.408 . S
C1290 C1288 1.363 . S
C1290 C1291 1.370 . S
C1290 C1294 1.524 . S
C1291 C1283 1.503 . S
C1291 C1290 1.370 . S
C1291 C1292 1.403 . S
C1292 C1291 1.403 . S
C1292 C1293 1.404 . S
C1292 C1295 1.539 . S
C1293 C1289 1.408 . S
C1293 C1292 1.404 . S
C1293 H1305 0.933 . S
C1294 C1290 1.524 . S
C1294 H1306 0.956 . S
C1294 H1307 0.961 . S
C1294 H1308 0.961 . S
C1295 C1292 1.539 . S
C1295 H1309 0.958 1_556 S
C1295 H1310 0.961 . S
C1295 H1311 0.960 . S
H1296 C1280 0.931 . S
H1297 C1285 0.929 . S
H1298 C1286 0.960 . S
H1299 C1286 0.962 . S
H1300 C1286 0.960 . S
H1301 C1287 0.961 . S
H1302 C1287 0.961 . S
H1303 C1287 0.961 . S
H1304 C1288 0.931 . S
H1305 C1293 0.933 . S
H1306 C1294 0.956 . S
H1307 C1294 0.961 . S
H1308 C1294 0.961 . S
H1309 C1295 0.958 1_554 S
H1310 C1295 0.961 . S
H1311 C1295 0.960 . S
C1312 C1313 1.391 . S
C1312 C1314 1.394 . S
C1312 H1328 0.931 . S
C1313 C1312 1.391 . S
C1313 C1317 1.376 . S
C1314 C1312 1.394 . S
C1314 C1315 1.369 . S
C1314 C1318 1.531 . S
C1315 C1314 1.369 . S
C1315 C1316 1.410 . S
C1315 C1323 1.503 . S
C1316 C1315 1.410 . S
C1316 C1317 1.392 . S
C1316 C1319 1.511 . S
C1317 C1313 1.376 . S
C1317 C1316 1.392 . S
C1317 H1329 0.929 . S
C1318 C1314 1.531 . S
C1318 H1330 0.960 . S
C1318 H1331 0.962 . S
C1318 H1332 0.960 . S
C1319 C1316 1.511 . S
C1319 H1333 0.961 . S
C1319 H1334 0.961 . S
C1319 H1335 0.961 . S
C1320 C1321 1.370 . S
C1320 C1322 1.363 . S
C1320 H1336 0.931 . S
C1321 C1320 1.370 . S
C1321 C1325 1.408 . S
C1322 C1320 1.363 . S
C1322 C1323 1.370 . S
C1322 C1326 1.524 . S
C1323 C1315 1.503 . S
C1323 C1322 1.370 . S
C1323 C1324 1.403 . S
C1324 C1323 1.403 . S
C1324 C1325 1.404 . S
C1324 C1327 1.539 . S
C1325 C1321 1.408 . S
C1325 C1324 1.404 . S
C1325 H1337 0.930 . S
C1326 C1322 1.524 . S
C1326 H1338 0.956 . S
C1326 H1339 0.961 . S
C1326 H1340 0.961 . S
C1327 C1324 1.539 . S
C1327 H1341 0.958 . S
C1327 H1342 0.961 . S
C1327 H1343 0.960 . S
H1328 C1312 0.931 . S
H1329 C1317 0.929 . S
H1330 C1318 0.960 . S
H1331 C1318 0.962 . S
H1332 C1318 0.960 . S
H1333 C1319 0.961 . S
H1334 C1319 0.961 . S
H1335 C1319 0.961 . S
H1336 C1320 0.931 . S
H1337 C1325 0.930 . S
H1338 C1326 0.956 . S
H1339 C1326 0.961 . S
H1340 C1326 0.961 . S
H1341 C1327 0.958 . S
H1342 C1327 0.961 . S
H1343 C1327 0.960 . S
C1344 C1345 1.391 . S
C1344 C1346 1.394 . S
C1344 H1360 0.931 . S
C1345 C1344 1.391 . S
C1345 C1349 1.376 . S
C1346 C1344 1.394 . S
C1346 C1347 1.369 . S
C1346 C1350 1.531 . S
C1347 C1346 1.369 . S
C1347 C1348 1.410 . S
C1347 C1355 1.503 . S
C1348 C1347 1.410 . S
C1348 C1349 1.392 . S
C1348 C1351 1.511 . S
C1349 C1345 1.376 . S
C1349 C1348 1.392 . S
C1349 H1361 0.929 . S
C1350 C1346 1.531 . S
C1350 H1362 0.960 . S
C1350 H1363 0.962 . S
C1350 H1364 0.960 . S
C1351 C1348 1.511 . S
C1351 H1365 0.961 . S
C1351 H1366 0.961 . S
C1351 H1367 0.961 . S
C1352 C1353 1.370 . S
C1352 C1354 1.363 . S
C1352 H1368 0.931 . S
C1353 C1352 1.370 . S
C1353 C1357 1.408 . S
C1354 C1352 1.363 . S
C1354 C1355 1.370 . S
C1354 C1358 1.524 . S
C1355 C1347 1.503 . S
C1355 C1354 1.370 . S
C1355 C1356 1.403 . S
C1356 C1355 1.403 . S
C1356 C1357 1.404 . S
C1356 C1359 1.539 . S
C1357 C1353 1.408 . S
C1357 C1356 1.404 . S
C1357 H1369 0.930 1_455 S
C1358 C1354 1.524 . S
C1358 H1370 0.956 . S
C1358 H1371 0.961 . S
C1358 H1372 0.961 . S
C1359 C1356 1.539 . S
C1359 H1373 0.958 . S
C1359 H1374 0.961 1_455 S
C1359 H1375 0.960 . S
H1360 C1344 0.931 . S
H1361 C1349 0.929 . S
H1362 C1350 0.960 . S
H1363 C1350 0.962 . S
H1364 C1350 0.960 . S
H1365 C1351 0.961 . S
H1366 C1351 0.961 . S
H1367 C1351 0.961 . S
H1368 C1352 0.931 . S
H1369 C1357 0.930 1_655 S
H1370 C1358 0.956 . S
H1371 C1358 0.961 . S
H1372 C1358 0.961 . S
H1373 C1359 0.958 . S
H1374 C1359 0.961 1_655 S
H1375 C1359 0.960 . S
C1376 C1377 1.391 . S
C1376 C1378 1.394 . S
C1376 H1392 0.931 . S
C1377 C1376 1.391 . S
C1377 C1381 1.376 . S
C1378 C1376 1.394 . S
C1378 C1379 1.369 . S
C1378 C1382 1.531 . S
C1379 C1378 1.369 . S
C1379 C1380 1.410 . S
C1379 C1387 1.503 . S
C1380 C1379 1.410 . S
C1380 C1381 1.392 . S
C1380 C1383 1.511 . S
C1381 C1377 1.376 . S
C1381 C1380 1.392 . S
C1381 H1393 0.929 . S
C1382 C1378 1.531 . S
C1382 H1394 0.960 . S
C1382 H1395 0.962 . S
C1382 H1396 0.960 . S
C1383 C1380 1.511 . S
C1383 H1397 0.961 . S
C1383 H1398 0.961 . S
C1383 H1399 0.961 . S
C1384 C1385 1.370 . S
C1384 C1386 1.363 . S
C1384 H1400 0.931 . S
C1385 C1384 1.370 . S
C1385 C1389 1.408 . S
C1386 C1384 1.363 . S
C1386 C1387 1.370 . S
C1386 C1390 1.524 . S
C1387 C1379 1.503 . S
C1387 C1386 1.370 . S
C1387 C1388 1.403 . S
C1388 C1387 1.403 . S
C1388 C1389 1.404 . S
C1388 C1391 1.539 . S
C1389 C1385 1.408 . S
C1389 C1388 1.404 . S
C1389 H1401 0.930 . S
C1390 C1386 1.524 . S
C1390 H1402 0.956 . S
C1390 H1403 0.961 . S
C1390 H1404 0.961 . S
C1391 C1388 1.539 . S
C1391 H1405 0.958 . S
C1391 H1406 0.961 . S
C1391 H1407 0.960 . S
H1392 C1376 0.931 . S
H1393 C1381 0.929 . S
H1394 C1382 0.960 . S
H1395 C1382 0.962 . S
H1396 C1382 0.960 . S
H1397 C1383 0.961 . S
H1398 C1383 0.961 . S
H1399 C1383 0.961 . S
H1400 C1384 0.931 . S
H1401 C1389 0.930 . S
H1402 C1390 0.956 . S
H1403 C1390 0.961 . S
H1404 C1390 0.961 . S
H1405 C1391 0.958 . S
H1406 C1391 0.961 . S
H1407 C1391 0.960 . S
C641 C1 2.858 . S
C649 C499 2.873 . S
C673 C80 2.484 . S
C681 C530 2.496 . S
C713 C569 1.357 . S
C705 C140 1.402 . S
C737 C211 0.448 . S
C745 C606 0.501 . S
C777 C529 2.820 . S
C769 C31 2.865 . S
C809 C486 1.529 . S
C801 C61 1.448 . S
C841 C618 1.405 . S
C833 C151 1.410 . S
C873 C575 1.034 . S
C865 C200 1.083 . S
C897 C20 2.284 . S
C905 C619 2.297 . S
C937 C535 1.289 . S
C929 C121 1.234 . S
C961 C181 0.533 . S
C969 C498 0.609 . S
C993 C91 2.523 . S
C1001 C570 2.544 . S
C1033 C490 2.867 . S
C1025 C260 2.870 . S
C1057 C320 2.461 . S
C1065 C539 2.502 . S
C1089 C361 1.413 . S
C1097 C578 1.370 . S
C1121 C451 0.526 . S
C1129 C615 0.472 . S
C1153 C271 2.878 . S
C1161 C538 2.815 . S
C1193 C495 1.533 . S
C1185 C301 1.465 . S
C1225 C609 1.406 . S
C1217 C380 1.460 . S
C1257 C566 1.032 . S
C1249 C440 1.077 . S
C1281 C241 2.260 . S
C1289 C610 2.299 . S
C1321 C526 1.293 . S
C1313 C391 1.247 . S
C1353 C489 0.635 . S
C1345 C421 0.582 . S
C1377 C331 2.501 . S
C1385 C579 2.555 . S
