# Generated by pormake.
# Topology pyr, (3,6)-cn, num edge types: 1
# Building blocks:
#     Node 0, Type 0, BuildingBlock: BETDIP_clean_linker_0, # of connection points: 3
#     Node 1, Type 0, BuildingBlock: BETDIP_clean_linker_0, # of connection points: 3
#     Node 2, Type 0, BuildingBlock: BETDIP_clean_linker_0, # of connection points: 3
#     Node 3, Type 0, BuildingBlock: BETDIP_clean_linker_0, # of connection points: 3
#     Node 4, Type 0, BuildingBlock: BETDIP_clean_linker_0, # of connection points: 3
#     Node 5, Type 0, BuildingBlock: BETDIP_clean_linker_0, # of connection points: 3
#     Node 6, Type 0, BuildingBlock: BETDIP_clean_linker_0, # of connection points: 3
#     Node 7, Type 0, BuildingBlock: BETDIP_clean_linker_0, # of connection points: 3
#     Node 8, Type 1, BuildingBlock: BETDIP_clean_sbu_0, # of connection points: 6
#     Node 9, Type 1, BuildingBlock: BETDIP_clean_sbu_0, # of connection points: 6
#     Node 10, Type 1, BuildingBlock: BETDIP_clean_sbu_0, # of connection points: 6
#     Node 11, Type 1, BuildingBlock: BETDIP_clean_sbu_0, # of connection points: 6
#     Edge 12, Type (0, 1), None
#     Edge 13, Type (0, 1), None
#     Edge 14, Type (0, 1), None
#     Edge 15, Type (0, 1), None
#     Edge 16, Type (0, 1), None
#     Edge 17, Type (0, 1), None
#     Edge 18, Type (0, 1), None
#     Edge 19, Type (0, 1), None
#     Edge 20, Type (0, 1), None
#     Edge 21, Type (0, 1), None
#     Edge 22, Type (0, 1), None
#     Edge 23, Type (0, 1), None
#     Edge 24, Type (0, 1), None
#     Edge 25, Type (0, 1), None
#     Edge 26, Type (0, 1), None
#     Edge 27, Type (0, 1), None
#     Edge 28, Type (0, 1), None
#     Edge 29, Type (0, 1), None
#     Edge 30, Type (0, 1), None
#     Edge 31, Type (0, 1), None
#     Edge 32, Type (0, 1), None
#     Edge 33, Type (0, 1), None
#     Edge 34, Type (0, 1), None
#     Edge 35, Type (0, 1), None
# Relax obj value: 0.427
# Max RMSD: 0.256
# Mean RMSD: 0.156
data_MOF--net-pyr--node1-BETDIP_clean_sbu_0--node2-BETDIP_clean_linker_0--edge1-none
_symmetry_space_group_name_H-M    P1
_symmetry_Int_Tables_number       1
_symmetry_cell_setting            triclinic
loop_
_symmetry_equiv_pos_as_xyz
'x, y, z'
_cell_length_a     16.33788
_cell_length_b     16.936689
_cell_length_c     16.959919
_cell_angle_alpha  89.354273
_cell_angle_beta   92.955721
_cell_angle_gamma 111.676
loop_
_atom_site_label
_atom_site_type_symbol
_atom_site_fract_x
_atom_site_fract_y
_atom_site_fract_z
_atom_type_partial_charge
H0 H 0.4688 0.38483 0.35172 0.0
H1 H 0.68177 0.39026 0.2161 0.0
H2 H 0.64938 0.2664 0.4377 0.0
H3 H 0.47901 0.37537 1.13459 0.0
C4 C 0.48228 0.42345 0.17768 0.0
C5 C 0.52805 0.37116 0.34754 0.0
C6 C 0.55092 0.31966 0.40337 0.0
C7 C 0.58121 0.40366 0.28392 0.0
C8 C 0.65011 0.37556 0.27127 0.0
C9 C 0.66368 0.31427 0.32162 0.0
C10 C 0.62864 0.30423 0.39507 0.0
N11 N 0.55918 0.45658 0.22839 0.0
H12 H 1.05721 0.92896 0.9772 0.0
H13 H 0.1345 0.79104 0.80757 0.0
H14 H 0.30372 0.89673 1.0131 0.0
H15 H 0.18 0.99644 0.8331 0.0
C16 C 0.11002 0.97915 0.81638 0.0
C17 C 0.09973 0.89516 0.96302 0.0
C18 C 0.17749 0.911 1.0079 0.0
C19 C 0.08534 0.8554 0.88998 0.0
C20 C 0.1435 0.81767 0.86667 0.0
C21 C 0.22314 0.83177 0.91071 0.0
C22 C 0.23996 0.87895 0.98192 0.0
N23 N 1.05085 0.89583 0.83197 0.0
H24 H 0.85124 0.58794 0.98879 0.0
H25 H 0.60478 0.37618 0.94591 0.0
H26 H 0.78633 0.36901 1.13783 0.0
H27 H 0.59626 0.45407 0.82237 0.0
C28 C 0.639 0.52016 0.83112 0.0
C29 C 0.80618 0.52535 1.00391 0.0
C30 C 0.82921 0.48352 1.06955 0.0
C31 C 0.7254 0.48902 0.95792 0.0
C32 C 0.66716 0.40535 0.97887 0.0
C33 C 0.68917 0.36017 1.04407 0.0
C34 C 0.77 0.40131 1.08772 0.0
N35 N 0.70612 0.54145 0.89553 0.0
H36 H 0.82384 0.64691 0.51159 0.0
H37 H 1.04257 0.87473 0.46033 0.0
H38 H 0.85486 0.88209 0.62792 0.0
H39 H 0.91266 0.73823 0.31819 0.0
C40 C 0.9519 0.70225 0.34061 0.0
C41 C 0.85937 0.7141 0.52057 0.0
C42 C 0.82754 0.75972 0.57391 0.0
C43 C 0.93607 0.75423 0.47762 0.0
C44 C 0.98286 0.84281 0.4911 0.0
C45 C 0.95483 0.88935 0.54666 0.0
C46 C 0.87723 0.84671 0.58682 0.0
N47 N 0.96789 0.70492 0.42531 0.0
H48 H 0.4679 0.88537 1.09943 0.0
H49 H 0.63789 0.8346 0.9438 0.0
H50 H 0.52082 1.01796 0.88115 0.0
H51 H 0.64574 0.87985 0.17346 0.0
C52 C 0.64394 0.83042 1.13236 0.0
C53 C 0.49284 0.89186 1.0414 0.0
C54 C 0.48702 0.95655 0.99083 0.0
C55 C 0.54658 0.84704 1.0237 0.0
C56 C 0.59253 0.86586 0.95486 0.0
C57 C 0.58321 0.9273 0.90271 0.0
C58 C 0.52322 0.96575 0.91764 0.0
N59 N 0.56784 0.7951 1.0808 0.0
H60 H 0.08826 0.34349 0.33515 0.0
H61 H 1.00051 0.46306 0.51372 0.0
H62 H 0.84235 0.37701 0.29843 0.0
H63 H 0.95916 0.25847 0.47121 0.0
C64 C 1.02873 0.27533 0.48925 0.0
C65 C 1.04434 0.37502 0.35134 0.0
C66 C 0.96694 0.3599 0.30585 0.0
C67 C 1.05431 0.40681 0.42754 0.0
C68 C 0.99443 0.44174 0.45292 0.0
C69 C 0.91793 0.43365 0.40595 0.0
C70 C 0.90444 0.39188 0.33186 0.0
N71 N 0.08668 0.36111 0.48227 0.0
H72 H 0.28099 0.67787 0.31705 0.0
H73 H 0.52921 0.88549 0.36382 0.0
H74 H 0.35181 0.89905 0.17049 0.0
H75 H 0.53837 0.80322 0.48346 0.0
C76 C 0.49277 0.73807 0.47512 0.0
C77 C 0.3269 0.74 0.30251 0.0
C78 C 0.30535 0.78338 0.23701 0.0
C79 C 0.40748 0.77412 0.34942 0.0
C80 C 0.46719 0.85775 0.33003 0.0
C81 C 0.44709 0.90491 0.26547 0.0
C82 C 0.36649 0.86546 0.22043 0.0
N83 N 0.42477 0.71982 0.41139 0.0
H84 H 0.10121 0.34631 0.86351 0.0
H85 H 0.31728 0.58196 0.82884 0.0
H86 H 0.2705 0.36925 0.67066 0.0
H87 H 0.16011 0.61462 0.88432 0.0
C88 C 0.16306 0.57838 0.93696 0.0
C89 C 0.15638 0.38446 0.8297 0.0
C90 C 0.17817 0.34773 0.76239 0.0
C91 C 0.20384 0.4703 0.85356 0.0
C92 C 0.27787 0.51799 0.80942 0.0
C93 C 0.30434 0.48168 0.74367 0.0
C94 C 0.25218 0.39738 0.72059 0.0
N95 N 0.18289 0.50228 0.92675 0.0
Tb96 Tb 0.99283 0.12006 0.67375 0.0
Tb97 Tb 0.13993 0.12258 0.62075 0.0
C98 C 0.8379 0.11016 0.68837 0.0
C99 C 0.77091 1.05455 0.73633 0.0
C100 C 0.79587 1.01535 0.80127 0.0
C101 C 0.7338 0.97028 0.8536 0.0
C102 C 0.64567 0.96252 0.84048 0.0
C103 C 0.62037 0.9972 0.77174 0.0
C104 C 0.68306 1.04347 0.71998 0.0
C105 C 0.12426 0.25751 0.73535 0.0
C106 C 0.08775 1.03446 0.7753 0.0
C107 C 0.29026 0.12111 0.60299 0.0
C108 C 0.36822 0.17968 0.57031 0.0
C109 C 0.37063 0.26016 0.54816 0.0
C110 C 0.43095 0.30685 0.49487 0.0
C111 C 0.49067 0.27416 0.4647 0.0
C112 C 0.48866 0.19379 0.48991 0.0
C113 C 0.42845 0.14745 0.54316 0.0
C114 C 1.0069 0.98164 0.56647 0.0
C115 C 1.05106 0.21627 0.52422 0.0
O116 O 0.86064 1.07242 0.63195 0.0
O117 O 0.90554 0.16289 0.72861 0.0
O118 O 0.11573 0.23077 0.66453 0.0
O119 O 1.06022 0.20535 0.77362 0.0
O120 O 1.00676 1.02073 0.74927 0.0
O121 O 0.15127 1.09575 0.74432 0.0
O122 O 0.26744 0.14475 0.66841 0.0
O123 O 0.2249 1.09251 0.55068 0.0
O124 O 1.01928 1.01222 0.63557 0.0
O125 O 0.06783 1.03238 0.5247 0.0
O126 O 0.13113 0.22878 0.55207 0.0
O127 O 0.98745 0.15131 0.55029 0.0
H128 H 0.86416 1.02341 0.81382 0.0
H129 H 0.7564 0.94625 0.90637 0.0
H130 H 0.55275 0.99101 0.75899 0.0
H131 H 0.66356 1.07274 0.66895 0.0
H132 H 0.32183 0.28401 0.56753 0.0
H133 H 0.42837 0.36705 0.47612 0.0
H134 H 0.52915 0.16323 0.46513 0.0
H135 H 0.42426 1.08366 0.55806 0.0
Tb136 Tb 0.63897 0.1108 0.15767 0.0
Tb137 Tb 0.50218 0.15625 0.15621 0.0
C138 C 0.77563 1.0835 1.13227 0.0
C139 C 0.86364 0.1488 0.14832 0.0
C140 C 0.8791 0.2307 1.1187 0.0
C141 C 0.91818 0.30126 0.168 0.0
C142 C 0.94348 0.2908 0.24619 0.0
C143 C 0.94502 0.21114 0.26914 0.0
C144 C 0.90824 0.14095 0.21908 0.0
C145 C 0.50984 0.9934 0.24034 0.0
C146 C 0.6466 0.23213 0.28492 0.0
C147 C 0.36571 0.18354 0.18346 0.0
C148 C 0.27677 0.12036 0.16663 0.0
C149 C 0.25836 1.03814 0.19657 0.0
C150 C 0.22086 0.96812 0.14643 0.0
C151 C 0.20042 0.97991 1.0672 0.0
C152 C 0.20055 1.05987 1.04355 0.0
C153 C 0.23486 0.12929 1.09465 0.0
C154 C 0.62817 0.27219 1.07129 0.0
C155 C 0.49929 1.03772 1.02711 0.0
O156 O 0.72674 1.09918 1.07554 0.0
O157 O 0.73194 1.05915 0.19596 0.0
O158 O 0.5011 1.02906 0.1759 0.0
O159 O 0.59249 1.02679 0.26157 0.0
O160 O 0.69773 0.22355 0.23184 0.0
O161 O 0.56289 0.18498 0.27478 0.0
O162 O 0.41374 0.16482 0.23907 0.0
O163 O 0.40961 0.20889 1.12001 0.0
O164 O 0.63896 0.23789 1.13618 0.0
O165 O 0.54526 0.23837 1.05127 0.0
O166 O 0.44679 1.04386 1.08033 0.0
O167 O 0.58205 1.08657 1.03812 0.0
H168 H 0.84972 0.23958 1.06219 0.0
H169 H 0.92439 0.36251 0.14571 0.0
H170 H 0.96776 0.20134 0.3282 0.0
H171 H 0.89984 1.07867 0.24228 0.0
H172 H 0.28482 1.02853 0.25423 0.0
H173 H 0.21231 0.90632 0.169 0.0
H174 H 0.18067 1.07022 0.98358 0.0
H175 H 0.24477 0.19188 1.07147 0.0
Tb176 Tb 0.57251 0.69288 0.7034 0.0
Tb177 Tb 0.5537 0.56036 0.60146 0.0
C178 C 0.5192 0.80026 0.75881 0.0
C179 C 0.43802 0.79852 0.79582 0.0
C180 C 0.4094 0.75629 0.8672 0.0
C181 C 0.33973 0.76683 0.90555 0.0
C182 C 0.29566 0.81708 0.87154 0.0
C183 C 0.32176 0.8556 0.79846 0.0
C184 C 0.39193 0.84647 0.76121 0.0
C185 C 0.62598 0.57988 0.7803 0.0
C186 C 0.3896 0.52961 0.70301 0.0
C187 C 0.60506 0.45789 0.5335 0.0
C188 C 0.69217 0.46356 0.50543 0.0
C189 C 0.73976 0.42053 0.54658 0.0
C190 C 0.81479 0.41412 0.5155 0.0
C191 C 0.84421 0.45007 0.44205 0.0
C192 C 0.7991 0.49628 0.40223 0.0
C193 C 0.72425 0.50357 0.43386 0.0
C194 C 0.50369 0.67687 0.52569 0.0
C195 C 0.73992 0.71702 0.61185 0.0
O196 O 0.50979 0.77958 0.68411 0.0
O197 O 0.57346 0.77151 0.79833 0.0
O198 O 0.56097 0.56423 0.72945 0.0
O199 O 0.66366 0.6621 0.78904 0.0
O200 O 0.43584 0.60835 0.72594 0.0
O201 O 0.42378 0.49231 0.65227 0.0
O202 O 0.59759 0.45838 0.60973 0.0
O203 O 0.56366 0.50122 0.49611 0.0
O204 O 0.56889 0.68985 0.57575 0.0
O205 O 0.46227 0.59505 0.51848 0.0
O206 O 0.69567 0.63612 0.59616 0.0
O207 O 0.70219 0.75939 0.65288 0.0
H208 H 0.44291 0.71789 0.89484 0.0
H209 H 0.32093 0.73659 0.96188 0.0
H210 H 0.28927 0.89505 0.771 0.0
H211 H 0.41201 0.87928 0.70614 0.0
H212 H 0.71666 0.38836 0.6013 0.0
H213 H 0.84732 0.37718 0.54732 0.0
H214 H 0.82 0.52441 0.34552 0.0
H215 H 0.68957 0.53758 0.4006 0.0
Tb216 Tb 1.05748 0.70366 1.11139 0.0
Tb217 Tb 0.07678 0.56586 0.18972 0.0
C218 C 0.97696 0.79925 1.07017 0.0
C219 C 0.89061 0.80395 1.08789 0.0
C220 C 0.81267 0.7553 1.04451 0.0
C221 C 0.73197 0.76187 1.05993 0.0
C222 C 0.72763 0.81842 1.11813 0.0
C223 C 0.80528 0.86691 0.16155 0.0
C224 C 0.88585 0.8599 0.14657 0.0
C225 C 0.21984 0.74387 0.18524 0.0
C226 C 0.98605 0.66671 0.28366 0.0
C227 C 0.1596 0.47424 0.2385 0.0
C228 C 0.24351 0.46515 0.22009 0.0
C229 C 0.32114 0.50717 0.26663 0.0
C230 C 0.39958 0.49574 0.25197 0.0
C231 C 0.40168 0.44104 0.1911 0.0
C232 C 0.32443 0.3994 0.14432 0.0
C233 C 0.2461 0.41116 0.15866 0.0
C234 C 0.91485 0.5247 1.11951 0.0
C235 C 0.13671 0.60213 1.0065 0.0
O236 O 0.97654 0.73565 1.0269 0.0
O237 O 1.03881 0.81882 1.12666 0.0
O238 O 0.14558 0.69785 0.20949 0.0
O239 O 0.20318 0.77243 1.1173 0.0
O240 O 0.9703 0.68437 0.21015 0.0
O241 O 1.03411 0.61859 0.29548 0.0
O242 O 0.16445 0.54365 0.274 0.0
O243 O 0.09407 0.44902 0.18583 0.0
O244 O 0.98805 0.57085 1.09275 0.0
O245 O 0.93208 0.49797 0.18855 0.0
O246 O 0.14039 0.56358 1.07472 0.0
O247 O 0.1041 0.66325 1.00504 0.0
H248 H 0.81395 0.71278 0.99788 0.0
H249 H 0.67337 0.72353 1.02541 0.0
H250 H 0.80391 0.91127 0.20652 0.0
H251 H 0.94464 0.89912 0.1804 0.0
H252 H 0.32108 0.548 0.31528 0.0
H253 H 0.45795 0.52848 0.28931 0.0
H254 H 0.32429 0.35661 1.09726 0.0
H255 H 0.18736 0.37699 1.12228 0.0
loop_
_geom_bond_atom_site_label_1
_geom_bond_atom_site_label_2
_geom_bond_distance
_geom_bond_site_symmetry_2
_ccdc_geom_bond_type
H0 C5 0.930 . S
H1 C8 0.930 . S
H2 C10 0.930 . S
H3 C4 1.016 . S
C4 H3 1.016 . S
C4 N11 1.286 . S
C5 H0 0.930 . S
C5 C6 1.397 . S
C5 C7 1.361 . S
C6 C5 1.397 . S
C6 C10 1.390 . S
C7 C5 1.361 . S
C7 C8 1.393 . S
C7 N11 1.413 . S
C8 H1 0.930 . S
C8 C7 1.393 . S
C8 C9 1.399 . S
C9 C8 1.399 . S
C9 C10 1.381 . S
C10 H2 0.930 . S
C10 C6 1.390 . S
C10 C9 1.381 . S
N11 C4 1.286 . S
N11 C7 1.413 . S
H12 C17 0.930 . S
H13 C20 0.930 . S
H14 C22 0.930 . S
H15 C16 1.016 . S
C16 H15 1.016 . S
C16 N23 1.286 . S
C17 H12 0.930 . S
C17 C18 1.397 1_655 S
C17 C19 1.361 . S
C18 C17 1.397 1_455 S
C18 C22 1.390 . S
C19 C17 1.361 . S
C19 C20 1.393 . S
C19 N23 1.413 . S
C20 H13 0.930 . S
C20 C19 1.393 . S
C20 C21 1.399 1_655 S
C21 C20 1.399 1_455 S
C21 C22 1.381 . S
C22 H14 0.930 . S
C22 C18 1.390 . S
C22 C21 1.381 . S
N23 C16 1.286 . S
N23 C19 1.413 . S
H24 C29 0.930 . S
H25 C32 0.930 . S
H26 C34 0.930 . S
H27 C28 1.016 . S
C28 H27 1.016 . S
C28 N35 1.286 . S
C29 H24 0.930 . S
C29 C30 1.397 . S
C29 C31 1.361 . S
C30 C29 1.397 . S
C30 C34 1.390 . S
C31 C29 1.361 . S
C31 C32 1.393 . S
C31 N35 1.413 . S
C32 H25 0.930 . S
C32 C31 1.393 . S
C32 C33 1.399 . S
C33 C32 1.399 . S
C33 C34 1.381 . S
C34 H26 0.930 . S
C34 C30 1.390 . S
C34 C33 1.381 . S
N35 C28 1.286 . S
N35 C31 1.413 . S
H36 C41 0.930 . S
H37 C44 0.930 . S
H38 C46 0.930 . S
H39 C40 1.016 . S
C40 H39 1.016 . S
C40 N47 1.286 . S
C41 H36 0.930 . S
C41 C42 1.397 . S
C41 C43 1.361 . S
C42 C41 1.397 . S
C42 C46 1.390 . S
C43 C41 1.361 . S
C43 C44 1.393 . S
C43 N47 1.413 . S
C44 H37 0.930 . S
C44 C43 1.393 . S
C44 C45 1.399 . S
C45 C44 1.399 . S
C45 C46 1.381 . S
C46 H38 0.930 . S
C46 C42 1.390 . S
C46 C45 1.381 . S
N47 C40 1.286 . S
N47 C43 1.413 . S
H48 C53 0.930 . S
H49 C56 0.930 . S
H50 C58 0.930 . S
H51 C52 1.016 . S
C52 H51 1.016 . S
C52 N59 1.286 . S
C53 H48 0.930 . S
C53 C54 1.397 . S
C53 C55 1.361 . S
C54 C53 1.397 . S
C54 C58 1.390 . S
C55 C53 1.361 . S
C55 C56 1.393 . S
C55 N59 1.413 . S
C56 H49 0.930 . S
C56 C55 1.393 . S
C56 C57 1.399 . S
C57 C56 1.399 . S
C57 C58 1.381 . S
C58 H50 0.930 . S
C58 C54 1.390 . S
C58 C57 1.381 . S
N59 C52 1.286 . S
N59 C55 1.413 . S
H60 C65 0.930 . S
H61 C68 0.930 1_455 S
H62 C70 0.930 . S
H63 C64 1.016 . S
C64 H63 1.016 . S
C64 N71 1.286 . S
C65 H60 0.930 . S
C65 C66 1.397 . S
C65 C67 1.361 1_655 S
C66 C65 1.397 . S
C66 C70 1.390 . S
C67 C65 1.361 1_455 S
C67 C68 1.393 1_455 S
C67 N71 1.413 . S
C68 H61 0.930 1_655 S
C68 C67 1.393 1_655 S
C68 C69 1.399 . S
C69 C68 1.399 . S
C69 C70 1.381 . S
C70 H62 0.930 . S
C70 C66 1.390 . S
C70 C69 1.381 . S
N71 C64 1.286 . S
N71 C67 1.413 . S
H72 C77 0.930 . S
H73 C80 0.930 . S
H74 C82 0.930 . S
H75 C76 1.016 . S
C76 H75 1.016 . S
C76 N83 1.286 . S
C77 H72 0.930 . S
C77 C78 1.397 . S
C77 C79 1.361 . S
C78 C77 1.397 . S
C78 C82 1.390 . S
C79 C77 1.361 . S
C79 C80 1.393 . S
C79 N83 1.413 . S
C80 H73 0.930 . S
C80 C79 1.393 . S
C80 C81 1.399 . S
C81 C80 1.399 . S
C81 C82 1.381 . S
C82 H74 0.930 . S
C82 C78 1.390 . S
C82 C81 1.381 . S
N83 C76 1.286 . S
N83 C79 1.413 . S
H84 C89 0.930 . S
H85 C92 0.930 . S
H86 C94 0.930 . S
H87 C88 1.016 . S
C88 H87 1.016 . S
C88 N95 1.286 . S
C89 H84 0.930 . S
C89 C90 1.397 . S
C89 C91 1.361 . S
C90 C89 1.397 . S
C90 C94 1.390 . S
C91 C89 1.361 . S
C91 C92 1.393 . S
C91 N95 1.413 . S
C92 H85 0.930 . S
C92 C91 1.393 . S
C92 C93 1.399 . S
C93 C92 1.399 . S
C93 C94 1.381 . S
C94 H86 0.930 . S
C94 C90 1.390 . S
C94 C93 1.381 . S
N95 C88 1.286 . S
N95 C91 1.413 . S
Tb96 C98 2.809 1_545 S
Tb96 O116 2.484 1_545 S
Tb96 O117 2.440 1_545 S
Tb96 O118 2.658 1_655 S
Tb96 O119 2.409 . S
Tb96 O120 2.378 1_545 S
Tb96 O124 2.325 1_545 S
Tb96 O127 2.341 . S
Tb97 C107 2.809 . S
Tb97 O118 2.325 . S
Tb97 O121 2.341 1_545 S
Tb97 O122 2.484 . S
Tb97 O123 2.440 . S
Tb97 O124 2.658 1_445 S
Tb97 O125 2.409 1_545 S
Tb97 O126 2.378 . S
C98 Tb96 2.809 1_565 S
C98 C99 1.514 . S
C98 O116 1.248 . S
C98 O117 1.266 . S
C99 C98 1.514 . S
C99 C100 1.359 . S
C99 C104 1.348 . S
C100 C99 1.359 . S
C100 C101 1.380 . S
C100 H128 0.929 . S
C101 C100 1.380 . S
C101 C102 1.347 . S
C101 H129 0.931 . S
C102 C101 1.347 . S
C102 C103 1.369 . S
C103 C102 1.369 . S
C103 C104 1.408 . S
C103 H130 0.930 . S
C104 C99 1.348 . S
C104 C103 1.408 . S
C104 H131 0.930 . S
C105 O118 1.281 . S
C105 O119 1.254 1_455 S
C106 O120 1.236 1_455 S
C106 O121 1.266 . S
C107 Tb97 2.809 . S
C107 C108 1.514 . S
C107 O122 1.248 . S
C107 O123 1.266 . S
C108 C107 1.514 . S
C108 C109 1.359 . S
C108 C113 1.348 . S
C109 C108 1.359 . S
C109 C110 1.380 . S
C109 H132 0.929 . S
C110 C109 1.380 . S
C110 C111 1.347 . S
C110 H133 0.931 . S
C111 C110 1.347 . S
C111 C112 1.369 . S
C112 C111 1.369 . S
C112 C113 1.408 . S
C112 H134 0.930 . S
C113 C108 1.348 . S
C113 C112 1.408 . S
C113 H135 0.930 . S
C114 O124 1.281 . S
C114 O125 1.254 1_655 S
C115 O126 1.236 1_655 S
C115 O127 1.266 . S
O116 Tb96 2.484 1_565 S
O116 C98 1.248 . S
O117 Tb96 2.440 1_565 S
O117 C98 1.266 . S
O118 Tb96 2.658 1_455 S
O118 Tb97 2.325 . S
O118 C105 1.281 . S
O119 Tb96 2.409 . S
O119 C105 1.254 1_655 S
O120 Tb96 2.378 1_565 S
O120 C106 1.236 1_655 S
O121 Tb97 2.341 1_565 S
O121 C106 1.266 . S
O122 Tb97 2.484 . S
O122 C107 1.248 . S
O123 Tb97 2.440 . S
O123 C107 1.266 . S
O124 Tb96 2.325 1_565 S
O124 Tb97 2.658 1_665 S
O124 C114 1.281 . S
O125 Tb97 2.409 1_565 S
O125 C114 1.254 1_455 S
O126 Tb97 2.378 . S
O126 C115 1.236 1_455 S
O127 Tb96 2.341 . S
O127 C115 1.266 . S
H128 C100 0.929 . S
H129 C101 0.931 . S
H130 C103 0.930 . S
H131 C104 0.930 . S
H132 C109 0.929 . S
H133 C110 0.931 . S
H134 C112 0.930 . S
H135 C113 0.930 . S
Tb136 C138 2.809 . S
Tb136 O156 2.484 . S
Tb136 O157 2.440 . S
Tb136 O158 2.658 1_545 S
Tb136 O159 2.409 1_545 S
Tb136 O160 2.378 . S
Tb136 O164 2.325 1_554 S
Tb136 O167 2.341 1_544 S
Tb137 C147 2.809 1_545 S
Tb137 O158 2.325 1_546 S
Tb137 O161 2.341 1_556 S
Tb137 O162 2.484 1_545 S
Tb137 O163 2.440 1_545 S
Tb137 O164 2.658 . S
Tb137 O165 2.409 . S
Tb137 O166 2.378 1_545 S
C138 Tb136 2.809 . S
C138 C139 1.514 . S
C138 O156 1.248 . S
C138 O157 1.266 . S
C139 C138 1.514 . S
C139 C140 1.359 . S
C139 C144 1.348 . S
C140 C139 1.359 . S
C140 C141 1.380 . S
C140 H168 0.929 . S
C141 C140 1.380 . S
C141 C142 1.347 . S
C141 H169 0.931 . S
C142 C141 1.347 . S
C142 C143 1.369 . S
C143 C142 1.369 . S
C143 C144 1.408 . S
C143 H170 0.930 . S
C144 C139 1.348 . S
C144 C143 1.408 . S
C144 H171 0.930 . S
C145 O158 1.281 . S
C145 O159 1.254 . S
C146 O160 1.236 . S
C146 O161 1.266 . S
C147 Tb137 2.809 1_565 S
C147 C148 1.514 . S
C147 O162 1.248 . S
C147 O163 1.266 . S
C148 C147 1.514 . S
C148 C149 1.359 . S
C148 C153 1.348 . S
C149 C148 1.359 . S
C149 C150 1.380 . S
C149 H172 0.929 . S
C150 C149 1.380 . S
C150 C151 1.347 . S
C150 H173 0.931 . S
C151 C150 1.347 . S
C151 C152 1.369 . S
C152 C151 1.369 . S
C152 C153 1.408 . S
C152 H174 0.930 . S
C153 C148 1.348 . S
C153 C152 1.408 . S
C153 H175 0.930 . S
C154 O164 1.281 . S
C154 O165 1.254 . S
C155 O166 1.236 . S
C155 O167 1.266 . S
O156 Tb136 2.484 . S
O156 C138 1.248 . S
O157 Tb136 2.440 . S
O157 C138 1.266 . S
O158 Tb136 2.658 1_565 S
O158 Tb137 2.325 1_564 S
O158 C145 1.281 . S
O159 Tb136 2.409 1_565 S
O159 C145 1.254 . S
O160 Tb136 2.378 . S
O160 C146 1.236 . S
O161 Tb137 2.341 1_554 S
O161 C146 1.266 . S
O162 Tb137 2.484 1_565 S
O162 C147 1.248 . S
O163 Tb137 2.440 1_565 S
O163 C147 1.266 . S
O164 Tb136 2.325 1_556 S
O164 Tb137 2.658 . S
O164 C154 1.281 . S
O165 Tb137 2.409 . S
O165 C154 1.254 . S
O166 Tb137 2.378 1_565 S
O166 C155 1.236 . S
O167 Tb136 2.341 1_566 S
O167 C155 1.266 . S
H168 C140 0.929 . S
H169 C141 0.931 . S
H170 C143 0.930 . S
H171 C144 0.930 . S
H172 C149 0.929 . S
H173 C150 0.931 . S
H174 C152 0.930 . S
H175 C153 0.930 . S
Tb176 C178 2.809 . S
Tb176 O196 2.484 . S
Tb176 O197 2.440 . S
Tb176 O198 2.658 . S
Tb176 O199 2.409 . S
Tb176 O200 2.378 . S
Tb176 O204 2.325 . S
Tb176 O207 2.341 . S
Tb177 C187 2.809 . S
Tb177 O198 2.325 . S
Tb177 O201 2.341 . S
Tb177 O202 2.484 . S
Tb177 O203 2.440 . S
Tb177 O204 2.658 . S
Tb177 O205 2.409 . S
Tb177 O206 2.378 . S
C178 Tb176 2.809 . S
C178 C179 1.514 . S
C178 O196 1.248 . S
C178 O197 1.266 . S
C179 C178 1.514 . S
C179 C180 1.359 . S
C179 C184 1.348 . S
C180 C179 1.359 . S
C180 C181 1.380 . S
C180 H208 0.929 . S
C181 C180 1.380 . S
C181 C182 1.347 . S
C181 H209 0.931 . S
C182 C181 1.347 . S
C182 C183 1.369 . S
C183 C182 1.369 . S
C183 C184 1.408 . S
C183 H210 0.930 . S
C184 C179 1.348 . S
C184 C183 1.408 . S
C184 H211 0.930 . S
C185 O198 1.281 . S
C185 O199 1.254 . S
C186 O200 1.236 . S
C186 O201 1.266 . S
C187 Tb177 2.809 . S
C187 C188 1.514 . S
C187 O202 1.248 . S
C187 O203 1.266 . S
C188 C187 1.514 . S
C188 C189 1.359 . S
C188 C193 1.348 . S
C189 C188 1.359 . S
C189 C190 1.380 . S
C189 H212 0.929 . S
C190 C189 1.380 . S
C190 C191 1.347 . S
C190 H213 0.931 . S
C191 C190 1.347 . S
C191 C192 1.369 . S
C192 C191 1.369 . S
C192 C193 1.408 . S
C192 H214 0.930 . S
C193 C188 1.348 . S
C193 C192 1.408 . S
C193 H215 0.930 . S
C194 O204 1.281 . S
C194 O205 1.254 . S
C195 O206 1.236 . S
C195 O207 1.266 . S
O196 Tb176 2.484 . S
O196 C178 1.248 . S
O197 Tb176 2.440 . S
O197 C178 1.266 . S
O198 Tb176 2.658 . S
O198 Tb177 2.325 . S
O198 C185 1.281 . S
O199 Tb176 2.409 . S
O199 C185 1.254 . S
O200 Tb176 2.378 . S
O200 C186 1.236 . S
O201 Tb177 2.341 . S
O201 C186 1.266 . S
O202 Tb177 2.484 . S
O202 C187 1.248 . S
O203 Tb177 2.440 . S
O203 C187 1.266 . S
O204 Tb176 2.325 . S
O204 Tb177 2.658 . S
O204 C194 1.281 . S
O205 Tb177 2.409 . S
O205 C194 1.254 . S
O206 Tb177 2.378 . S
O206 C195 1.236 . S
O207 Tb176 2.341 . S
O207 C195 1.266 . S
H208 C180 0.929 . S
H209 C181 0.931 . S
H210 C183 0.930 . S
H211 C184 0.930 . S
H212 C189 0.929 . S
H213 C190 0.931 . S
H214 C192 0.930 . S
H215 C193 0.930 . S
Tb216 C218 2.809 1_455 S
Tb216 O236 2.484 1_455 S
Tb216 O237 2.440 . S
Tb216 O238 2.658 1_556 S
Tb216 O239 2.409 1_556 S
Tb216 O240 2.378 1_456 S
Tb216 O244 2.325 1_455 S
Tb216 O247 2.341 . S
Tb217 C227 2.809 . S
Tb217 O238 2.325 . S
Tb217 O241 2.341 1_455 S
Tb217 O242 2.484 . S
Tb217 O243 2.440 . S
Tb217 O244 2.658 1_454 S
Tb217 O245 2.409 1_454 S
Tb217 O246 2.378 1_554 S
C218 Tb216 2.809 1_655 S
C218 C219 1.514 . S
C218 O236 1.248 . S
C218 O237 1.266 1_655 S
C219 C218 1.514 . S
C219 C220 1.359 . S
C219 C224 1.348 . S
C220 C219 1.359 . S
C220 C221 1.380 . S
C220 H248 0.929 . S
C221 C220 1.380 . S
C221 C222 1.347 . S
C221 H249 0.931 . S
C222 C221 1.347 . S
C222 C223 1.369 . S
C223 C222 1.369 . S
C223 C224 1.408 . S
C223 H250 0.930 . S
C224 C219 1.348 . S
C224 C223 1.408 . S
C224 H251 0.930 . S
C225 O238 1.281 . S
C225 O239 1.254 . S
C226 O240 1.236 . S
C226 O241 1.266 . S
C227 Tb217 2.809 . S
C227 C228 1.514 . S
C227 O242 1.248 . S
C227 O243 1.266 . S
C228 C227 1.514 . S
C228 C229 1.359 . S
C228 C233 1.348 . S
C229 C228 1.359 . S
C229 C230 1.380 . S
C229 H252 0.929 . S
C230 C229 1.380 . S
C230 C231 1.347 . S
C230 H253 0.931 . S
C231 C230 1.347 . S
C231 C232 1.369 . S
C232 C231 1.369 . S
C232 C233 1.408 . S
C232 H254 0.930 . S
C233 C228 1.348 . S
C233 C232 1.408 . S
C233 H255 0.930 . S
C234 O244 1.281 . S
C234 O245 1.254 . S
C235 O246 1.236 . S
C235 O247 1.266 . S
O236 Tb216 2.484 1_655 S
O236 C218 1.248 . S
O237 Tb216 2.440 . S
O237 C218 1.266 1_455 S
O238 Tb216 2.658 1_554 S
O238 Tb217 2.325 . S
O238 C225 1.281 . S
O239 Tb216 2.409 1_554 S
O239 C225 1.254 . S
O240 Tb216 2.378 1_654 S
O240 C226 1.236 . S
O241 Tb217 2.341 1_655 S
O241 C226 1.266 . S
O242 Tb217 2.484 . S
O242 C227 1.248 . S
O243 Tb217 2.440 . S
O243 C227 1.266 . S
O244 Tb216 2.325 1_655 S
O244 Tb217 2.658 1_656 S
O244 C234 1.281 . S
O245 Tb217 2.409 1_656 S
O245 C234 1.254 . S
O246 Tb217 2.378 1_556 S
O246 C235 1.236 . S
O247 Tb216 2.341 . S
O247 C235 1.266 . S
H248 C220 0.929 . S
H249 C221 0.931 . S
H250 C223 0.930 . S
H251 C224 0.930 . S
H252 C229 0.929 . S
H253 C230 0.931 . S
H254 C232 0.930 . S
H255 C233 0.930 . S
C6 C111 1.720 . S
C18 C151 0.968 . S
C185 C28 3.955 . S
C40 C226 3.070 . S
C146 C9 1.739 . S
C106 C16 3.170 1_455 S
C234 C30 2.541 . S
C195 C42 2.166 . S
C4 C231 3.260 . S
C154 C33 3.464 . S
C45 C114 2.982 . S
C21 C182 2.240 . S
C102 C57 1.900 . S
C66 C142 1.121 . S
C76 C194 4.052 . S
C88 C235 2.884 . S
C54 C155 1.841 . S
C115 C64 3.356 1_655 S
C225 C78 2.537 . S
C186 C93 2.348 . S
C52 C222 3.563 . S
C145 C81 3.457 . S
C105 C90 2.920 . S
C69 C191 2.266 . S
