# Generated by pormake.
# Topology zzz, (3,6)-cn, num edge types: 1
# Building blocks:
#     Node 0, Type 0, BuildingBlock: BETDAH_clean_linker_0, # of connection points: 3
#     Node 1, Type 0, BuildingBlock: BETDAH_clean_linker_0, # of connection points: 3
#     Node 2, Type 0, BuildingBlock: BETDAH_clean_linker_0, # of connection points: 3
#     Node 3, Type 0, BuildingBlock: BETDAH_clean_linker_0, # of connection points: 3
#     Node 4, Type 0, BuildingBlock: BETDAH_clean_linker_0, # of connection points: 3
#     Node 5, Type 0, BuildingBlock: BETDAH_clean_linker_0, # of connection points: 3
#     Node 6, Type 0, BuildingBlock: BETDAH_clean_linker_0, # of connection points: 3
#     Node 7, Type 0, BuildingBlock: BETDAH_clean_linker_0, # of connection points: 3
#     Node 8, Type 1, BuildingBlock: HISSIN_clean_sbu_0, # of connection points: 6
#     Node 9, Type 1, BuildingBlock: HISSIN_clean_sbu_0, # of connection points: 6
#     Node 10, Type 1, BuildingBlock: HISSIN_clean_sbu_0, # of connection points: 6
#     Node 11, Type 1, BuildingBlock: HISSIN_clean_sbu_0, # of connection points: 6
#     Edge 12, Type (0, 1), BuildingBlock: KIFKEQ_clean_linker_1, # of connection points: 2
#     Edge 13, Type (0, 1), BuildingBlock: KIFKEQ_clean_linker_1, # of connection points: 2
#     Edge 14, Type (0, 1), BuildingBlock: KIFKEQ_clean_linker_1, # of connection points: 2
#     Edge 15, Type (0, 1), BuildingBlock: KIFKEQ_clean_linker_1, # of connection points: 2
#     Edge 16, Type (0, 1), BuildingBlock: KIFKEQ_clean_linker_1, # of connection points: 2
#     Edge 17, Type (0, 1), BuildingBlock: KIFKEQ_clean_linker_1, # of connection points: 2
#     Edge 18, Type (0, 1), BuildingBlock: KIFKEQ_clean_linker_1, # of connection points: 2
#     Edge 19, Type (0, 1), BuildingBlock: KIFKEQ_clean_linker_1, # of connection points: 2
#     Edge 20, Type (0, 1), BuildingBlock: KIFKEQ_clean_linker_1, # of connection points: 2
#     Edge 21, Type (0, 1), BuildingBlock: KIFKEQ_clean_linker_1, # of connection points: 2
#     Edge 22, Type (0, 1), BuildingBlock: KIFKEQ_clean_linker_1, # of connection points: 2
#     Edge 23, Type (0, 1), BuildingBlock: KIFKEQ_clean_linker_1, # of connection points: 2
#     Edge 24, Type (0, 1), BuildingBlock: KIFKEQ_clean_linker_1, # of connection points: 2
#     Edge 25, Type (0, 1), BuildingBlock: KIFKEQ_clean_linker_1, # of connection points: 2
#     Edge 26, Type (0, 1), BuildingBlock: KIFKEQ_clean_linker_1, # of connection points: 2
#     Edge 27, Type (0, 1), BuildingBlock: KIFKEQ_clean_linker_1, # of connection points: 2
#     Edge 28, Type (0, 1), BuildingBlock: KIFKEQ_clean_linker_1, # of connection points: 2
#     Edge 29, Type (0, 1), BuildingBlock: KIFKEQ_clean_linker_1, # of connection points: 2
#     Edge 30, Type (0, 1), BuildingBlock: KIFKEQ_clean_linker_1, # of connection points: 2
#     Edge 31, Type (0, 1), BuildingBlock: KIFKEQ_clean_linker_1, # of connection points: 2
#     Edge 32, Type (0, 1), BuildingBlock: KIFKEQ_clean_linker_1, # of connection points: 2
#     Edge 33, Type (0, 1), BuildingBlock: KIFKEQ_clean_linker_1, # of connection points: 2
#     Edge 34, Type (0, 1), BuildingBlock: KIFKEQ_clean_linker_1, # of connection points: 2
#     Edge 35, Type (0, 1), BuildingBlock: KIFKEQ_clean_linker_1, # of connection points: 2
# Relax obj value: 0.264
# Max RMSD: 0.184
# Mean RMSD: 0.096
data_MOF--net-zzz--node1-HISSIN_clean_sbu_0--node2-BETDAH_clean_linker_0--edge1-KIFKEQ_clean_linker_1
_symmetry_space_group_name_H-M    P1
_symmetry_Int_Tables_number       1
_symmetry_cell_setting            triclinic
loop_
_symmetry_equiv_pos_as_xyz
'x, y, z'
_cell_length_a     50.260133
_cell_length_b     50.462955
_cell_length_c     16.52127
_cell_angle_alpha  90.465269
_cell_angle_beta   91.156376
_cell_angle_gamma 90.773998
loop_
_atom_site_label
_atom_site_type_symbol
_atom_site_fract_x
_atom_site_fract_y
_atom_site_fract_z
_atom_type_partial_charge
H0 H 0.82314 0.55644 0.2996 0.0
H1 H 0.74206 0.55335 0.21572 0.0
H2 H 0.76141 0.53818 0.4674 0.0
C3 C 0.80215 0.5544 0.31294 0.0
C4 C 0.79479 0.54738 0.39112 0.0
C5 C 0.78326 0.55646 0.25002 0.0
C6 C 0.75632 0.5524 0.26561 0.0
C7 C 0.74804 0.54638 0.34442 0.0
C8 C 0.76747 0.54387 0.40736 0.0
N9 N 0.72058 0.54161 0.36043 0.0
C10 C 0.70058 0.54092 0.30012 0.0
H11 H 0.97844 0.82146 0.29348 0.0
H12 H 0.99117 0.74448 0.19076 0.0
H13 H 1.01957 0.76293 0.43354 0.0
C14 C 0.98505 0.80122 0.30047 0.0
C15 C 0.99822 0.79431 0.37257 0.0
C16 C 0.9829 0.78356 0.23445 0.0
C17 C 0.99274 0.75788 0.24224 0.0
C18 C 1.00585 0.75003 0.31389 0.0
C19 C 1.00887 0.76853 0.37889 0.0
N20 N 1.01701 0.72418 0.32016 0.0
C21 C 1.01657 0.7053 0.25713 0.0
H22 H 0.73868 0.9707 0.33129 0.0
H23 H 0.81383 0.98068 0.21508 0.0
H24 H 0.79584 0.02709 0.42728 0.0
C25 C 0.7586 0.97924 0.33076 0.0
C26 C 0.7654 0.99867 0.38862 0.0
C27 C 0.77571 0.97299 0.26728 0.0
C28 C 0.80085 0.98534 0.26462 0.0
C29 C 0.80853 1.00475 0.3223 0.0
C30 C 0.79054 1.01151 0.3842 0.0
N31 N 0.83346 1.0186 0.31672 0.0
C32 C 0.85148 1.01565 0.25339 0.0
H33 H 0.49364 0.72624 0.2999 0.0
H34 H 0.51726 0.79548 0.17018 0.0
H35 H 0.56501 0.76882 0.37287 0.0
C36 C 0.50695 0.7432 0.29437 0.0
C37 C 0.52932 0.74555 0.34626 0.0
C38 C 0.50258 0.76103 0.23101 0.0
C39 C 0.5206 0.78203 0.21993 0.0
C40 C 0.54312 0.78515 0.27129 0.0
C41 C 0.54749 0.76668 0.33398 0.0
N42 N 0.56194 0.80614 0.25992 0.0
C43 C 0.55962 0.82558 0.20036 0.0
H44 H 0.2356 0.54532 0.12249 0.0
H45 H 0.31219 0.52617 0.2213 0.0
H46 H 0.28755 0.49535 0.98618 0.0
C47 C 0.25455 0.53559 0.11543 0.0
C48 C 0.25912 0.52046 0.04562 0.0
C49 C 0.27359 0.53752 0.17814 0.0
C50 C 0.29782 0.52457 0.17169 0.0
C51 C 0.30323 0.50944 0.10213 0.0
C52 C 0.2836 0.50716 0.03956 0.0
N53 N 0.32803 0.49631 0.09422 0.0
C54 C 0.34865 0.49776 0.15241 0.0
H55 H 0.08069 0.23169 0.1019 0.0
H56 H 0.06812 0.30969 0.19595 0.0
H57 H 0.04914 0.29162 0.9449 0.0
C58 C 0.07545 0.25218 0.09132 0.0
C59 C 0.06575 0.25934 0.01462 0.0
C60 C 0.07607 0.27012 0.15658 0.0
C61 C 0.06788 0.29617 0.14467 0.0
C62 C 0.05843 0.30438 0.06836 0.0
C63 C 0.05701 0.28569 1.00341 0.0
N64 N 0.04955 0.33093 0.05687 0.0
C65 C 0.04906 0.35021 0.11868 0.0
H66 H 0.33379 0.08529 0.12426 0.0
H67 H 0.25763 0.0709 0.22905 0.0
H68 H 0.27828 0.03153 1.00633 0.0
C69 C 0.314 0.07649 0.11996 0.0
C70 C 0.3081 0.05895 0.0557 0.0
C71 C 0.29617 0.08053 0.18316 0.0
C72 C 0.27119 0.06787 0.17982 0.0
C73 C 0.26437 0.05022 0.11626 0.0
C74 C 0.2831 0.04558 0.05451 0.0
N75 N 0.23942 0.03619 0.11535 0.0
C76 C 0.22046 0.03783 0.17654 0.0
H77 H 0.57572 0.31922 0.11714 0.0
H78 H 0.5548 0.24958 0.24999 0.0
H79 H 0.50629 0.27344 0.04557 0.0
C80 C 0.56315 0.30177 0.12367 0.0
C81 C 0.54087 0.29826 0.07199 0.0
C82 C 0.56813 0.28445 0.18809 0.0
C83 C 0.55102 0.26269 0.19962 0.0
C84 C 0.52881 0.25834 0.14765 0.0
C85 C 0.52369 0.27641 0.08455 0.0
N86 N 0.51099 0.23649 0.15865 0.0
C87 C 0.51377 0.21757 0.2195 0.0
Eu88 Eu 1.01089 0.03549 0.63716 0.0
Eu89 Eu 0.05382 1.0157 0.77005 0.0
C90 C 0.04284 0.07865 0.7506 0.0
C91 C 0.9896 0.07775 0.47429 0.0
C92 C 0.97787 0.10265 0.48358 0.0
C93 C 0.02771 0.0989 0.41241 0.0
C94 C 0.99155 0.1256 0.46088 0.0
C95 C 1.01403 0.07604 0.43465 0.0
C96 C 1.01713 0.12396 0.42839 0.0
C97 C 0.98083 0.05564 0.52531 0.0
O98 O 1.01364 1.00574 0.82413 0.0
O99 O 0.9875 0.03432 0.75278 0.0
C100 C 0.99131 1.01878 0.8152 0.0
O101 O 1.00356 0.99104 0.6397 0.0
O102 O 0.07024 1.0164 0.89335 0.0
O103 O 0.08659 0.98987 0.80469 0.0
O104 O 0.04453 0.97983 0.6897 0.0
C105 C 1.022 0.97322 0.65257 0.0
O106 O 0.04945 0.0304 0.56904 0.0
O107 O 0.08016 0.03263 0.67308 0.0
O108 O 0.04973 0.05938 0.79944 0.0
O109 O 0.99306 0.03321 0.5155 0.0
O110 O 0.97882 0.06192 0.60162 0.0
O111 O 0.03197 0.07348 0.67904 0.0
C112 C 0.07446 0.97145 0.92879 0.0
C113 C 0.05289 0.97401 0.98115 0.0
C114 C 0.06731 0.92373 0.9272 0.0
C115 C 0.0377 0.95192 1.00181 0.0
C116 C 0.08243 0.94593 0.90588 0.0
C117 C 0.04402 0.92668 0.97199 0.0
C118 C 0.08329 0.99457 0.8816 0.0
C119 C 0.07428 0.03298 0.59518 0.0
H120 H 0.95915 0.1045 0.5144 0.0
H121 H 0.04737 0.09688 0.38755 0.0
H122 H 0.98258 0.14466 0.47182 0.0
H123 H 0.02377 0.05721 0.42685 0.0
H124 H 0.04619 0.99332 1.00056 0.0
H125 H 0.07327 0.9044 0.90575 0.0
H126 H 1.01999 0.955 0.03673 0.0
H127 H 0.09906 0.94331 0.866 0.0
Eu128 Eu 0.54878 0.0429 0.79158 0.0
Eu129 Eu 0.52434 1.00631 0.64862 0.0
C130 C 0.54408 0.97912 0.81195 0.0
C131 C 0.59407 0.05226 0.95991 0.0
C132 C 0.58727 0.03004 1.00669 0.0
C133 C 0.64 0.03789 0.96154 0.0
C134 C 0.60636 1.01127 0.02681 0.0
C135 C 0.62091 0.05668 0.94144 0.0
C136 C 0.63265 1.01447 1.00129 0.0
C137 C 0.5732 0.06589 0.91236 0.0
O138 O 0.49056 1.01238 0.73626 0.0
O139 O 0.50451 0.05126 0.7958 0.0
C140 C 0.48555 0.0336 0.77987 0.0
O141 O 0.54641 0.07044 0.68471 0.0
O142 O 0.49563 0.97667 0.60249 0.0
O143 O 0.52329 0.99488 0.52093 0.0
O144 O 0.51307 0.04824 0.61612 0.0
C145 C 0.52807 0.06952 0.62706 0.0
O146 O 0.58417 0.02162 0.73863 0.0
O147 O 0.56672 1.01554 0.61184 0.0
O148 O 0.54297 0.97628 0.73279 0.0
O149 O 0.57929 0.07065 0.83736 0.0
O150 O 0.5491 0.05618 0.91779 0.0
O151 O 0.5415 1.00256 0.84569 0.0
C152 C 0.47783 0.99524 0.48312 0.0
C153 C 0.48281 1.01656 0.43086 0.0
C154 C 0.43165 1.00859 0.48953 0.0
C155 C 0.46285 0.03456 0.4123 0.0
C156 C 0.45166 0.99061 0.5084 0.0
C157 C 0.43738 0.03145 0.44464 0.0
C158 C 0.50027 0.98294 0.52752 0.0
C159 C 0.58753 1.01751 0.66093 0.0
H160 H 0.56681 0.02599 0.02247 0.0
H161 H 0.66037 0.0413 0.94364 0.0
H162 H 0.60018 0.99356 0.05837 0.0
H163 H 0.62681 0.07363 0.9058 0.0
H164 H 0.50268 0.0207 0.40962 0.0
H165 H 0.41191 1.00503 0.51256 0.0
H166 H 0.46793 0.05179 0.37683 0.0
H167 H 0.44709 0.97423 0.548 0.0
Eu168 Eu 0.50604 0.5305 0.76647 0.0
Eu169 Eu 0.55415 0.51212 0.64885 0.0
C170 C 0.56604 0.52913 0.83474 0.0
C171 C 0.45603 0.57301 0.872 0.0
C172 C 0.46966 0.59563 0.84562 0.0
C173 C 0.4245 0.60099 0.94024 0.0
C174 C 0.461 0.62078 0.8671 0.0
C175 C 0.43317 0.57575 0.91827 0.0
C176 C 0.43857 0.62377 0.91577 0.0
C177 C 0.46569 0.54671 0.85039 0.0
O178 O 0.53682 0.47355 0.69618 0.0
O179 O 0.51498 0.48899 0.80771 0.0
C180 C 0.52504 0.46942 0.76565 0.0
O181 O 0.488 0.5072 0.66119 0.0
O182 O 0.59658 0.51 0.62255 0.0
O183 O 0.56728 0.49322 0.53826 0.0
O184 O 0.51811 0.51986 0.56838 0.0
C185 C 0.49399 0.51179 0.58572 0.0
O186 O 0.51503 0.56681 0.69158 0.0
O187 O 0.55618 0.55681 0.64223 0.0
O188 O 0.57081 0.51194 0.77687 0.0
O189 O 0.46427 0.541 0.77343 0.0
O190 O 0.48851 0.54013 0.88289 0.0
O191 O 0.54413 0.54311 0.83309 0.0
C192 C 0.60769 0.47109 0.55151 0.0
C193 C 0.59839 0.44796 0.58849 0.0
C194 C 0.64139 0.44557 0.48418 0.0
C195 C 0.60959 0.42355 0.57008 0.0
C196 C 0.62991 0.46997 0.50193 0.0
C197 C 0.63046 0.42189 0.51472 0.0
C198 C 0.59251 0.49561 0.55748 0.0
C199 C 0.53693 0.5737 0.65435 0.0
H200 H 0.48736 0.59378 0.80987 0.0
H201 H 0.40716 0.6027 0.97769 0.0
H202 H 0.47266 0.63783 0.84872 0.0
H203 H 0.42232 0.55841 0.93845 0.0
H204 H 0.58136 0.44856 0.62752 0.0
H205 H 0.65782 0.44511 0.44279 0.0
H206 H 0.60038 0.40588 0.59439 0.0
H207 H 0.63751 0.48775 0.47363 0.0
Eu208 Eu 0.03955 0.55038 0.62883 0.0
Eu209 Eu 1.02135 0.50436 0.75152 0.0
C210 C 0.08332 0.51913 0.7391 0.0
C211 C 0.08483 0.59854 0.52697 0.0
C212 C 0.10327 0.60024 0.59201 0.0
C213 C 0.12042 0.60741 0.43393 0.0
C214 C 0.13021 0.60492 0.57785 0.0
C215 C 0.09346 0.60301 0.44824 0.0
C216 C 0.13926 0.60756 0.49834 0.0
C217 C 0.05752 0.58884 0.53948 0.0
O218 O 0.02872 0.54068 0.83072 0.0
O219 O 1.02058 0.57166 0.73444 0.0
C220 C 0.02342 0.5652 0.81098 0.0
O221 O 0.99709 0.5406 0.59096 0.0
O222 O 1.02268 0.48414 0.86801 0.0
O223 O 0.99427 0.47134 0.77517 0.0
O224 O 0.98404 0.52672 0.71503 0.0
C225 C 0.9781 0.53472 0.64144 0.0
O226 O 0.04972 0.51246 0.5613 0.0
O227 O 0.02444 0.48274 0.63177 0.0
O228 O 0.06603 0.49968 0.74919 0.0
O229 O 0.05219 0.56513 0.51139 0.0
O230 O 0.04813 0.59239 0.61153 0.0
O231 O 0.07612 0.54161 0.7059 0.0
C232 C 0.97781 0.47804 0.90403 0.0
C233 C 0.97765 0.50278 0.9437 0.0
C234 C 0.93032 0.47347 0.92555 0.0
C235 C 0.95398 0.51316 0.97125 0.0
C236 C 0.95413 0.46307 0.8976 0.0
C237 C 0.92991 0.49901 0.9602 0.0
C238 C 1.00029 0.47151 0.85228 0.0
C239 C 0.03863 0.4888 0.56841 0.0
H240 H 0.09713 0.59675 0.65353 0.0
H241 H 0.12659 0.60889 0.37171 0.0
H242 H 0.14407 0.60527 0.62891 0.0
H243 H 0.07957 0.60159 0.39731 0.0
H244 H 0.99544 0.5151 0.94835 0.0
H245 H 0.91213 0.4619 0.91762 0.0
H246 H 0.95438 0.53299 0.99689 0.0
H247 H 0.95373 0.44414 0.86614 0.0
H248 H 0.22152 1.01383 0.32298 0.0
H249 H 0.17336 0.06341 0.16986 0.0
H250 H 0.18665 1.01347 0.42459 0.0
H251 H 0.13859 0.06373 0.27165 0.0
H252 H 0.06981 0.03491 0.42906 0.0
H253 H 0.10508 0.0368 0.33033 0.0
H254 H 0.16397 0.03858 0.52435 0.0
H255 H 0.12857 0.03614 0.62325 0.0
C256 C 0.2035 0.02485 0.3115 0.0
C257 C 0.20011 0.03862 0.2386 0.0
C258 C 0.1835 0.0248 0.36996 0.0
C259 C 0.1595 0.03853 0.35702 0.0
C260 C 0.15644 0.05255 0.28386 0.0
C261 C 0.17646 0.05257 0.22553 0.0
C262 C 0.09025 0.0358 0.451 0.0
C263 C 0.09613 0.03532 0.53474 0.0
C264 C 0.11062 0.03705 0.39399 0.0
C265 C 0.13766 0.03784 0.41856 0.0
C266 C 0.14353 0.03761 0.50244 0.0
C267 C 0.12312 0.03641 0.55953 0.0
H268 H 0.47297 0.19272 0.29235 0.0
H269 H 0.55856 0.19672 0.28481 0.0
H270 H 0.47563 0.15786 0.39441 0.0
H271 H 0.5615 0.16148 0.38568 0.0
H272 H 0.55839 0.11513 0.62129 0.0
H273 H 0.55448 0.15156 0.52587 0.0
H274 H 0.48697 0.11206 0.40962 0.0
H275 H 0.49048 0.07603 0.50642 0.0
C276 C 0.49236 0.18605 0.31277 0.0
C277 C 0.51556 0.19731 0.28118 0.0
C278 C 0.49393 0.16597 0.37082 0.0
C279 C 0.5188 0.15669 0.39859 0.0
C280 C 0.54202 0.16828 0.36685 0.0
C281 C 0.54039 0.18836 0.30873 0.0
C282 C 0.54256 0.11428 0.57579 0.0
C283 C 0.52481 0.09249 0.57157 0.0
C284 C 0.54046 0.13512 0.52047 0.0
C285 C 0.52051 0.13483 0.45934 0.0
C286 C 0.50245 0.11323 0.45613 0.0
C287 C 0.50457 0.09238 0.51144 0.0
H288 H 0.38878 0.53398 0.16298 0.0
H289 H 0.35623 0.46501 0.2791 0.0
H290 H 0.42425 0.53698 0.26683 0.0
H291 H 0.39187 0.46743 0.3823 0.0
H292 H 0.44176 0.49667 0.60145 0.0
H293 H 0.4071 0.49323 0.49663 0.0
H294 H 0.46402 0.51608 0.31675 0.0
H295 H 0.49864 0.52007 0.42219 0.0
C296 C 0.38938 0.51938 0.21071 0.0
C297 C 0.36989 0.49928 0.21339 0.0
C298 C 0.40978 0.52095 0.26999 0.0
C299 C 0.41109 0.50244 0.33343 0.0
C300 C 0.39142 0.48227 0.33535 0.0
C301 C 0.37106 0.48073 0.27601 0.0
C302 C 0.44698 0.50088 0.53954 0.0
C303 C 0.47311 0.50864 0.52058 0.0
C304 C 0.42705 0.49876 0.4791 0.0
C305 C 0.43259 0.50434 0.39772 0.0
C306 C 0.45881 0.51195 0.3787 0.0
C307 C 0.47877 0.51406 0.43924 0.0
H308 H 1.00834 0.35951 0.21931 0.0
H309 H 0.08762 0.38596 0.16332 0.0
H310 H 1.00626 0.39308 0.32669 0.0
H311 H 0.08605 0.41932 0.27192 0.0
H312 H 0.06391 0.4934 0.42189 0.0
H313 H 0.06664 0.46032 0.31347 0.0
H314 H 1.02288 0.40444 0.45801 0.0
H315 H 1.01968 0.43752 0.56502 0.0
C316 C 0.02538 0.37251 0.2304 0.0
C317 C 0.04811 0.37017 0.18311 0.0
C318 C 0.02432 0.3917 0.29239 0.0
C319 C 0.04603 0.40911 0.30893 0.0
C320 C 0.06879 0.40664 0.26088 0.0
C321 C 0.0698 0.3874 0.19886 0.0
C322 C 0.05493 0.47403 0.43071 0.0
C323 C 0.0415 0.46835 0.5027 0.0
C324 C 0.0566 0.45493 0.36841 0.0
C325 C 0.04487 0.42951 0.37605 0.0
C326 C 0.03176 0.42381 0.44859 0.0
C327 C 0.03009 0.44286 0.51066 0.0
H328 H 0.90503 1.01259 0.2719 0.0
H329 H 0.84239 1.01554 0.09067 0.0
H330 H 0.93836 1.01218 0.16578 0.0
H331 H 0.87552 1.01466 0.98372 0.0
H332 H 0.94265 0.04308 0.81792 0.0
H333 H 0.90906 0.04118 0.92205 0.0
H334 H 0.9578 0.98708 0.05918 0.0
H335 H 0.99168 0.98942 0.95541 0.0
C336 C 0.89842 1.0129 0.20908 0.0
C337 C 0.87115 1.01409 0.18947 0.0
C338 C 0.91752 1.01253 0.14798 0.0
C339 C 0.90989 1.01342 0.06535 0.0
C340 C 0.88239 1.01434 0.04623 0.0
C341 C 0.8633 1.01466 0.10748 0.0
C342 C 0.94624 0.03066 0.87 0.0
C343 C 0.9701 1.01645 0.87773 0.0
C344 C 0.92678 0.02943 0.92992 0.0
C345 C 0.93046 1.01399 0.99989 0.0
C346 C 0.95423 0.99953 1.00714 0.0
C347 C 0.97368 1.00073 0.94706 0.0
H348 H 0.5867 0.87195 0.20624 0.0
H349 H 0.52989 0.82675 0.06112 0.0
H350 H 0.5845 0.90821 0.10911 0.0
H351 H 0.52701 0.86324 0.96426 0.0
H352 H 0.54575 0.92597 0.77051 0.0
H353 H 0.55055 0.88816 0.86158 0.0
H354 H 0.55441 0.94177 0.06672 0.0
H355 H 0.55007 0.97918 0.97657 0.0
C356 C 0.57368 0.86987 0.15342 0.0
C357 C 0.55836 0.84673 0.14123 0.0
C358 C 0.57227 0.89068 0.09787 0.0
C359 C 0.55541 0.88887 0.02871 0.0
C360 C 0.54039 0.86533 0.01617 0.0
C361 C 0.54185 0.84449 0.07192 0.0
C362 C 0.54774 0.92965 0.83501 0.0
C363 C 0.54752 0.95573 0.86584 0.0
C364 C 0.55033 0.90795 0.8874 0.0
C365 C 0.55294 0.91178 0.97186 0.0
C366 C 0.55289 0.93791 1.00222 0.0
C367 C 0.55021 0.95948 0.95017 0.0
H368 H 0.67328 0.58177 0.23467 0.0
H369 H 0.68271 0.49716 0.22014 0.0
H370 H 0.64037 0.57962 0.12292 0.0
H371 H 0.64958 0.49468 0.10961 0.0
H372 H 0.61275 0.50266 0.85712 0.0
H373 H 0.6445 0.50604 0.96965 0.0
H374 H 0.59564 0.56471 0.08381 0.0
H375 H 0.56385 0.56164 0.96976 0.0
C376 C 0.66811 0.56269 0.20773 0.0
C377 C 0.68044 0.53963 0.23566 0.0
C378 C 0.64916 0.5614 0.144 0.0
C379 C 0.64224 0.53698 0.10658 0.0
C380 C 0.6546 0.5139 0.13572 0.0
C381 C 0.67347 0.51523 0.19943 0.0
C382 C 0.60867 0.51636 0.90599 0.0
C383 C 0.58557 0.53185 0.90395 0.0
C384 C 0.6269 0.51815 0.97115 0.0
C385 C 0.6227 0.53551 0.03662 0.0
C386 C 0.59973 0.55126 0.03433 0.0
C387 C 0.58139 0.54942 0.96897 0.0
H388 H 0.03574 0.71091 0.10585 0.0
H389 H 0.99737 0.6549 0.26205 0.0
H390 H 0.03686 0.67732 0.99805 0.0
H391 H 0.99772 0.62133 0.15421 0.0
H392 H 0.02781 0.55893 0.97585 0.0
H393 H 0.02581 0.59262 0.08186 0.0
H394 H 1.01122 0.6523 0.901 0.0
H395 H 1.0139 0.61859 0.79471 0.0
C396 C 0.02739 0.69139 0.11677 0.0
C397 C 1.01654 0.68546 0.19221 0.0
C398 C 0.02784 0.67211 0.0548 0.0
C399 C 1.01741 0.64633 0.06665 0.0
C400 C 1.00635 0.64066 0.14259 0.0
C401 C 1.00595 0.65996 0.20446 0.0
C402 C 0.02412 0.57921 0.95844 0.0
C403 C 1.02107 0.58588 0.87616 0.0
C404 C 1.02279 0.59864 0.01965 0.0
C405 C 1.01835 0.62545 1.00083 0.0
C406 C 1.01507 0.63205 0.91843 0.0
C407 C 1.01641 0.6126 0.85716 0.0
H408 H 0.11688 0.23972 0.21335 0.0
H409 H 0.0433 0.27562 0.28365 0.0
H410 H 0.11098 0.2058 0.31609 0.0
H411 H 0.03725 0.24179 0.38513 0.0
H412 H 0.04938 0.13393 0.30128 0.0
H413 H 0.07452 0.17399 0.27443 0.0
H414 H 0.0467 0.20928 0.49585 0.0
H415 H 1.02184 0.16846 0.5243 0.0
C416 C 0.10024 0.24118 0.25379 0.0
C417 C 0.08002 0.25954 0.23889 0.0
C418 C 0.09682 0.22177 0.31237 0.0
C419 C 0.0731 0.22058 0.35584 0.0
C420 C 0.05558 0.24201 0.35177 0.0
C421 C 0.05906 0.26148 0.29341 0.0
C422 C 0.04912 0.1499 0.34547 0.0
C423 C 0.0333 0.14816 0.41423 0.0
C424 C 0.06379 0.17283 0.33054 0.0
C425 C 0.06283 0.1947 0.38365 0.0
C426 C 0.04785 0.19267 0.45417 0.0
C427 C 0.03331 0.16951 0.46959 0.0
H428 H 0.29052 0.0616 0.33567 0.0
H429 H 0.32627 0.12611 0.20444 0.0
H430 H 0.32588 0.06446 0.43595 0.0
H431 H 0.3622 0.12885 0.30559 0.0
H432 H 0.42767 0.06053 0.30873 0.0
H433 H 0.39082 0.0896 0.28237 0.0
H434 H 0.36348 0.07837 0.52623 0.0
H435 H 0.40121 0.04951 0.55369 0.0
C436 C 0.30498 0.07759 0.3308 0.0
C437 C 0.3066 0.09258 0.25974 0.0
C438 C 0.32544 0.07927 0.38885 0.0
C439 C 0.34762 0.09582 0.3757 0.0
C440 C 0.34577 0.1152 0.31529 0.0
C441 C 0.32521 0.1136 0.25729 0.0
C442 C 0.41443 0.06491 0.35783 0.0
C443 C 0.41696 0.05207 0.43251 0.0
C444 C 0.39333 0.08191 0.34303 0.0
C445 C 0.3741 0.08626 0.40228 0.0
C446 C 0.37791 0.07528 0.47938 0.0
C447 C 0.39923 0.05839 0.49445 0.0
H448 H 0.62007 0.29814 0.16239 0.0
H449 H 0.56265 0.28852 0.3509 0.0
H450 H 0.64868 0.3243 0.25473 0.0
H451 H 0.59063 0.31508 0.44233 0.0
H452 H 0.64134 0.4113 0.35673 0.0
H453 H 0.63788 0.36899 0.28924 0.0
H454 H 0.62954 0.33008 0.51955 0.0
H455 H 0.63345 0.37303 0.58839 0.0
C456 C 0.61404 0.30087 0.22448 0.0
C457 C 0.58893 0.29188 0.24915 0.0
C458 C 0.63036 0.31588 0.27728 0.0
C459 C 0.62161 0.32246 0.35515 0.0
C460 C 0.59809 0.31044 0.38291 0.0
C461 C 0.58191 0.29522 0.33032 0.0
C462 C 0.64007 0.39378 0.39391 0.0
C463 C 0.63697 0.39577 0.47811 0.0
C464 C 0.63808 0.36926 0.3548 0.0
C465 C 0.63282 0.34609 0.39879 0.0
C466 C 0.63299 0.34765 0.48381 0.0
C467 C 0.63513 0.37227 0.52317 0.0
H468 H 0.27777 0.59034 0.20973 0.0
H469 H 0.25227 0.516 0.31057 0.0
H470 H 0.2546 0.61431 0.31614 0.0
H471 H 0.22809 0.53937 0.4141 0.0
H472 H 0.17756 0.57841 0.57606 0.0
H473 H 0.22091 0.56723 0.525 0.0
H474 H 0.20882 0.6211 0.32575 0.0
H475 H 0.16655 0.63389 0.38058 0.0
C476 C 0.26788 0.57924 0.25652 0.0
C477 C 0.26659 0.55151 0.25275 0.0
C478 C 0.25442 0.59286 0.31692 0.0
C479 C 0.23897 0.57887 0.37297 0.0
C480 C 0.23992 0.55097 0.37296 0.0
C481 C 0.25365 0.53744 0.31335 0.0
C482 C 0.18462 0.58884 0.52348 0.0
C483 C 0.16813 0.60646 0.48084 0.0
C484 C 0.20944 0.58212 0.49354 0.0
C485 C 0.21802 0.59245 0.41957 0.0
C486 C 0.20296 0.61251 0.38261 0.0
C487 C 0.17838 0.61958 0.41335 0.0
H488 H 0.94134 0.81564 0.19187 0.0
H489 H 1.00996 0.77676 0.09514 0.0
H490 H 0.94573 0.85032 0.09089 0.0
H491 H 1.01414 0.81105 0.99473 0.0
H492 H 0.03072 0.88615 0.86598 0.0
H493 H 1.00288 0.84711 0.89218 0.0
H494 H 0.98717 0.87771 0.13117 0.0
H495 H 1.01557 0.91569 0.10701 0.0
C496 C 0.95637 0.81367 0.14618 0.0
C497 C 0.97612 0.79436 0.15373 0.0
C498 C 0.95884 0.83348 0.08831 0.0
C499 C 0.98101 0.83392 0.03786 0.0
C500 C 0.9971 0.81144 0.03387 0.0
C501 C 0.99469 0.79169 0.09182 0.0
C502 C 1.0213 0.88449 0.92413 0.0
C503 C 0.02576 0.90385 0.98501 0.0
C504 C 1.00498 0.86242 0.9383 0.0
C505 C 0.99251 0.8596 1.013 0.0
C506 C 0.99585 0.87967 0.07198 0.0
C507 C 1.0124 0.9014 0.0584 0.0
H508 H 0.74494 0.92746 0.26118 0.0
H509 H 0.77974 0.98746 0.1098 0.0
H510 H 0.70845 0.92155 0.16297 0.0
H511 H 0.74372 0.98178 1.01305 0.0
H512 H 0.66925 0.99533 0.89616 0.0
H513 H 0.70693 0.96697 0.92888 0.0
H514 H 0.67772 0.95802 0.17176 0.0
H515 H 0.64043 0.98597 0.13889 0.0
C516 C 0.74558 0.93833 0.20495 0.0
C517 C 0.76427 0.95898 0.1952 0.0
C518 C 0.72465 0.93498 0.14873 0.0
C519 C 0.72235 0.95237 0.08295 0.0
C520 C 0.7444 0.96848 0.06415 0.0
C521 C 0.76529 0.97179 0.12017 0.0
C522 C 0.67077 0.98684 0.95608 0.0
C523 C 0.65248 0.99355 0.01597 0.0
C524 C 0.69212 0.97036 0.97443 0.0
C525 C 0.69565 0.96051 0.05319 0.0
C526 C 0.67565 0.96495 0.11013 0.0
C527 C 0.65432 0.98132 0.0917 0.0
H528 H 0.50792 0.7568 0.06846 0.0
H529 H 0.45007 0.74991 0.25677 0.0
H530 H 0.47936 0.73061 0.97818 0.0
H531 H 0.42076 0.72418 0.16535 0.0
H532 H 0.42629 0.636 0.07106 0.0
H533 H 0.42995 0.6791 0.1349 0.0
H534 H 0.44133 0.71524 0.90148 0.0
H535 H 0.43788 0.67152 0.83724 0.0
C536 C 0.48842 0.75084 0.08909 0.0
C537 C 0.48146 0.7547 0.17005 0.0
C538 C 0.47189 0.73581 0.03714 0.0
C539 C 0.44807 0.72452 0.06537 0.0
C540 C 0.43934 0.73193 0.14258 0.0
C541 C 0.45603 0.74674 0.19481 0.0
C542 C 0.42842 0.65319 0.03275 0.0
C543 C 0.43251 0.65029 0.94941 0.0
C544 C 0.43044 0.67811 0.06946 0.0
C545 C 0.43657 0.70069 0.02354 0.0
C546 C 0.43725 0.69817 0.93878 0.0
C547 C 0.43532 0.67315 0.90203 0.0
H548 H 0.81392 0.59517 0.18437 0.0
H549 H 0.77629 0.51948 0.13207 0.0
H550 H 0.84712 0.58629 0.08227 0.0
H551 H 0.8097 0.51029 0.03132 0.0
H552 H 0.88228 0.49732 0.87568 0.0
H553 H 0.8406 0.5186 0.9125 0.0
H554 H 0.87931 0.55108 0.12777 0.0
H555 H 0.92026 0.52943 0.09293 0.0
C556 C 0.81188 0.57735 0.14759 0.0
C557 C 0.79309 0.55771 0.16684 0.0
C558 C 0.83095 0.57216 0.08972 0.0
C559 C 0.83146 0.54721 0.0514 0.0
C560 C 0.80988 0.5296 0.06049 0.0
C561 C 0.79066 0.53489 0.11806 0.0
C562 C 0.88176 0.50891 0.93107 0.0
C563 C 0.90453 0.5116 0.9817 0.0
C564 C 0.85806 0.52136 0.95131 0.0
C565 C 0.85692 0.53698 0.02182 0.0
C566 C 0.8798 0.53991 0.07154 0.0
C567 C 0.90325 0.5273 0.05195 0.0
H568 H 1.02152 0.24206 0.92569 0.0
H569 H 0.10488 0.22656 0.96479 0.0
H570 H 1.01634 0.19958 0.85241 0.0
H571 H 0.09982 0.18442 0.89258 0.0
H572 H 0.07204 0.09707 0.88178 0.0
H573 H 0.07787 0.14246 0.9306 0.0
H574 H 0.02886 0.17033 0.73237 0.0
H575 H 1.02307 0.12456 0.68273 0.0
C576 C 0.03891 0.23007 0.91625 0.0
C577 C 0.06362 0.23781 0.95127 0.0
C578 C 0.03593 0.20557 0.87476 0.0
C579 C 0.05755 0.18816 0.86786 0.0
C580 C 0.08257 0.1969 0.89804 0.0
C581 C 0.08555 0.22127 0.93877 0.0
C582 C 0.06257 0.11278 0.84801 0.0
C583 C 0.0471 0.10689 0.77802 0.0
C584 C 0.06604 0.13897 0.87592 0.0
C585 C 0.05396 0.1603 0.83545 0.0
C586 C 0.03839 0.1545 0.76544 0.0
C587 C 0.0352 0.12821 0.73672 0.0
H588 H 0.33652 0.09545 0.97087 0.0
H589 H 0.32997 1.01131 1.00969 0.0
H590 H 0.37789 0.08919 0.89915 0.0
H591 H 0.37183 1.00486 0.93855 0.0
H592 H 0.4414 1.00098 0.76008 0.0
H593 H 0.39706 1.00628 0.8154 0.0
H594 H 0.42302 0.07933 0.93164 0.0
H595 H 0.46715 0.07424 0.87536 0.0
C596 C 0.34369 0.07548 0.9627 0.0
C597 C 0.32974 0.05389 0.99605 0.0
C598 C 0.36772 0.07189 0.92237 0.0
C599 C 0.37882 0.04655 0.91399 0.0
C600 C 0.36406 0.02471 0.94326 0.0
C601 C 0.33988 0.02834 0.98375 0.0
C602 C 0.43769 1.01824 0.79725 0.0
C603 C 0.45813 0.03717 0.81292 0.0
C604 C 0.41215 0.02122 0.82952 0.0
C605 C 0.40607 0.04329 0.87823 0.0
C606 C 0.42653 0.06226 0.89346 0.0
C607 C 0.45206 0.05925 0.86142 0.0
H608 H 0.57536 0.32016 0.96484 0.0
H609 H 0.49394 0.32399 0.0413 0.0
H610 H 0.56906 0.35962 0.88297 0.0
H611 H 0.48734 0.36335 0.95775 0.0
H612 H 0.54681 0.42372 0.70497 0.0
H613 H 0.54773 0.37994 0.76678 0.0
H614 H 0.50214 0.40941 0.96629 0.0
H615 H 0.50095 0.45296 0.90434 0.0
C616 C 0.5559 0.32915 0.96275 0.0
C617 C 0.53519 0.31897 1.01 0.0
C618 C 0.55223 0.35175 0.91538 0.0
C619 C 0.52775 0.36496 0.91408 0.0
C620 C 0.50659 0.35396 0.95812 0.0
C621 C 0.51024 0.33118 1.00524 0.0
C622 C 0.53678 0.42085 0.76166 0.0
C623 C 0.52397 0.44209 0.79969 0.0
C624 C 0.53739 0.39569 0.79735 0.0
C625 C 0.52507 0.39101 0.87186 0.0
C626 C 0.51156 0.41205 0.90849 0.0
C627 C 0.51106 0.4372 0.87306 0.0
H628 H 0.2368 0.47594 0.97203 0.0
H629 H 0.23174 0.56115 0.97819 0.0
H630 H 0.1962 0.47356 0.88687 0.0
H631 H 0.19116 0.55894 0.89605 0.0
H632 H 0.12601 0.55177 0.70993 0.0
H633 H 0.17068 0.55017 0.76894 0.0
H634 H 0.14894 0.4797 0.90024 0.0
H635 H 0.10432 0.48089 0.83902 0.0
C636 C 0.22734 0.49416 0.95383 0.0
C637 C 0.23751 0.51872 0.98205 0.0
C638 C 0.20383 0.49283 0.90595 0.0
C639 C 0.19006 0.51604 0.88467 0.0
C640 C 0.20113 0.5406 0.90992 0.0
C641 C 0.22443 0.54189 0.95765 0.0
C642 C 0.13075 0.53576 0.75083 0.0
C643 C 0.11132 0.5166 0.77013 0.0
C644 C 0.15646 0.53491 0.78516 0.0
C645 C 0.16358 0.51499 0.84054 0.0
C646 C 0.14443 0.49523 0.85745 0.0
C647 C 0.11869 0.49598 0.82259 0.0
H648 H 0.0451 0.81602 0.43338 0.0
H649 H 0.96 0.82244 0.44862 0.0
H650 H 0.05073 0.85811 0.50719 0.0
H651 H 0.96535 0.86392 0.5243 0.0
H652 H 0.98144 0.95301 0.55482 0.0
H653 H 0.97617 0.90838 0.49916 0.0
H654 H 0.04792 0.8848 0.62587 0.0
H655 H 0.05353 0.92977 0.67978 0.0
C656 C 0.02762 0.82592 0.45521 0.0
C657 C 1.00211 0.81567 0.43563 0.0
C658 C 0.03078 0.85025 0.49727 0.0
C659 C 1.0085 0.86503 0.52107 0.0
C660 C 0.98306 0.85376 0.50555 0.0
C661 C 0.97994 0.82964 0.46321 0.0
C662 C 0.99605 0.93833 0.57133 0.0
C663 C 1.01796 0.94528 0.62187 0.0
C664 C 0.99295 0.91247 0.53965 0.0
C665 C 1.01155 0.89252 0.5577 0.0
C666 C 0.0333 0.89945 0.60926 0.0
C667 C 0.03645 0.92536 0.64071 0.0
H668 H 0.75051 0.97488 0.52944 0.0
H669 H 0.73024 0.03877 0.36959 0.0
H670 H 0.70854 0.98074 0.60067 0.0
H671 H 0.6882 0.04462 0.43978 0.0
H672 H 0.6021 0.01932 0.50193 0.0
H673 H 0.64658 1.01779 0.44602 0.0
H674 H 0.68044 1.0106 0.68676 0.0
H675 H 0.63569 1.01238 0.74322 0.0
C676 C 0.73752 0.99085 0.51154 0.0
C677 C 0.74408 1.00685 0.44529 0.0
C678 C 0.71332 0.9941 0.55192 0.0
C679 C 0.69469 1.01302 0.5258 0.0
C680 C 0.70181 0.02966 0.46132 0.0
C681 C 0.72614 0.02664 0.42181 0.0
C682 C 0.61894 1.0174 0.54328 0.0
C683 C 0.61506 1.01592 0.62735 0.0
C684 C 0.6446 1.01675 0.51108 0.0
C685 C 0.66734 1.01426 0.56161 0.0
C686 C 0.66349 1.01246 0.64575 0.0
C687 C 0.63777 1.01353 0.6782 0.0
H688 H 0.57572 0.71966 0.38719 0.0
H689 H 0.49255 0.72326 0.44541 0.0
H690 H 0.58039 0.68043 0.4722 0.0
H691 H 0.4966 0.68353 0.52543 0.0
H692 H 0.50958 0.61794 0.69895 0.0
H693 H 0.51105 0.66178 0.63925 0.0
H694 H 0.57004 0.63504 0.47124 0.0
H695 H 0.56949 0.59156 0.53433 0.0
C696 C 0.55853 0.71235 0.41908 0.0
C697 C 0.5337 0.72456 0.40865 0.0
C698 C 0.56106 0.68952 0.46691 0.0
C699 C 0.53881 0.67826 0.50545 0.0
C700 C 0.51437 0.69143 0.49803 0.0
C701 C 0.51193 0.71424 0.45107 0.0
C702 C 0.52307 0.62147 0.64982 0.0
C703 C 0.53928 0.60106 0.62131 0.0
C704 C 0.52381 0.64669 0.6149 0.0
C705 C 0.54041 0.65222 0.5491 0.0
C706 C 0.55721 0.63193 0.52223 0.0
C707 C 0.55679 0.6068 0.55819 0.0
H708 H 0.8299 0.50769 0.37856 0.0
H709 H 0.81068 0.57421 0.53075 0.0
H710 H 0.8732 0.5043 0.44693 0.0
H711 H 0.85426 0.57052 0.60103 0.0
H712 H 0.93295 0.53515 0.7342 0.0
H713 H 0.88628 0.53662 0.68678 0.0
H714 H 0.91227 0.53906 0.43975 0.0
H715 H 0.95857 0.53816 0.48644 0.0
C716 C 0.8346 0.52101 0.42877 0.0
C717 C 0.81679 0.5411 0.44962 0.0
C718 C 0.85953 0.51924 0.46736 0.0
C719 C 0.86735 0.53736 0.52861 0.0
C720 C 0.84878 0.55624 0.55408 0.0
C721 C 0.82376 0.55824 0.51443 0.0
C722 C 0.92869 0.53618 0.66977 0.0
C723 C 0.94964 0.53655 0.61417 0.0
C724 C 0.90195 0.53709 0.64274 0.0
C725 C 0.89555 0.53776 0.55948 0.0
C726 C 0.9165 0.53829 0.50425 0.0
C727 C 0.9431 0.53792 0.53114 0.0
loop_
_geom_bond_atom_site_label_1
_geom_bond_atom_site_label_2
_geom_bond_distance
_geom_bond_site_symmetry_2
_ccdc_geom_bond_type
H0 C3 0.929 . S
H1 C6 0.929 . S
H2 C8 0.930 . S
C3 H0 0.929 . S
C3 C4 1.398 . S
C3 C5 1.396 . S
C4 C3 1.398 . S
C4 C8 1.407 . S
C5 C3 1.396 . S
C5 C6 1.394 . S
C6 H1 0.929 . S
C6 C5 1.394 . S
C6 C7 1.382 . S
C7 C6 1.382 . S
C7 C8 1.392 . S
C7 N9 1.420 . S
C8 H2 0.930 . S
C8 C4 1.407 . S
C8 C7 1.392 . S
N9 C7 1.420 . S
N9 C10 1.244 . S
C10 N9 1.244 . S
H11 C14 0.929 . S
H12 C17 0.929 . S
H13 C19 0.930 . S
C14 H11 0.929 . S
C14 C15 1.398 . S
C14 C16 1.396 . S
C15 C14 1.398 . S
C15 C19 1.407 . S
C16 C14 1.396 . S
C16 C17 1.394 . S
C17 H12 0.929 . S
C17 C16 1.394 . S
C17 C18 1.382 . S
C18 C17 1.382 . S
C18 C19 1.392 . S
C18 N20 1.420 . S
C19 H13 0.930 . S
C19 C15 1.407 . S
C19 C18 1.392 . S
N20 C18 1.420 . S
N20 C21 1.244 . S
C21 N20 1.244 . S
H22 C25 0.929 . S
H23 C28 0.929 . S
H24 C30 0.930 . S
C25 H22 0.929 . S
C25 C26 1.398 . S
C25 C27 1.396 . S
C26 C25 1.398 . S
C26 C30 1.407 . S
C27 C25 1.396 . S
C27 C28 1.394 . S
C28 H23 0.929 . S
C28 C27 1.394 . S
C28 C29 1.382 . S
C29 C28 1.382 . S
C29 C30 1.392 . S
C29 N31 1.420 . S
C30 H24 0.930 . S
C30 C26 1.407 . S
C30 C29 1.392 . S
N31 C29 1.420 . S
N31 C32 1.244 . S
C32 N31 1.244 . S
H33 C36 0.929 . S
H34 C39 0.929 . S
H35 C41 0.930 . S
C36 H33 0.929 . S
C36 C37 1.398 . S
C36 C38 1.396 . S
C37 C36 1.398 . S
C37 C41 1.407 . S
C38 C36 1.396 . S
C38 C39 1.394 . S
C39 H34 0.929 . S
C39 C38 1.394 . S
C39 C40 1.382 . S
C40 C39 1.382 . S
C40 C41 1.392 . S
C40 N42 1.420 . S
C41 H35 0.930 . S
C41 C37 1.407 . S
C41 C40 1.392 . S
N42 C40 1.420 . S
N42 C43 1.244 . S
C43 N42 1.244 . S
H44 C47 0.929 . S
H45 C50 0.929 . S
H46 C52 0.930 1_556 S
C47 H44 0.929 . S
C47 C48 1.398 1_554 S
C47 C49 1.396 . S
C48 C47 1.398 1_556 S
C48 C52 1.407 1_556 S
C49 C47 1.396 . S
C49 C50 1.394 . S
C50 H45 0.929 . S
C50 C49 1.394 . S
C50 C51 1.382 . S
C51 C50 1.382 . S
C51 C52 1.392 . S
C51 N53 1.420 . S
C52 H46 0.930 1_554 S
C52 C48 1.407 1_554 S
C52 C51 1.392 . S
N53 C51 1.420 . S
N53 C54 1.244 . S
C54 N53 1.244 . S
H55 C58 0.929 . S
H56 C61 0.929 . S
H57 C63 0.930 . S
C58 H55 0.929 . S
C58 C59 1.398 1_554 S
C58 C60 1.396 . S
C59 C58 1.398 1_556 S
C59 C63 1.407 . S
C60 C58 1.396 . S
C60 C61 1.394 . S
C61 H56 0.929 . S
C61 C60 1.394 . S
C61 C62 1.382 . S
C62 C61 1.382 . S
C62 C63 1.392 1_554 S
C62 N64 1.420 . S
C63 H57 0.930 . S
C63 C59 1.407 . S
C63 C62 1.392 1_556 S
N64 C62 1.420 . S
N64 C65 1.244 . S
C65 N64 1.244 . S
H66 C69 0.929 1_556 S
H67 C72 0.929 . S
H68 C74 0.930 . S
C69 H66 0.929 1_554 S
C69 C70 1.398 1_554 S
C69 C71 1.396 . S
C70 C69 1.398 1_556 S
C70 C74 1.407 . S
C71 C69 1.396 . S
C71 C72 1.394 . S
C72 H67 0.929 . S
C72 C71 1.394 . S
C72 C73 1.382 . S
C73 C72 1.382 . S
C73 C74 1.392 1_554 S
C73 N75 1.420 . S
C74 H68 0.930 . S
C74 C70 1.407 . S
C74 C73 1.392 1_556 S
N75 C73 1.420 . S
N75 C76 1.244 . S
C76 N75 1.244 . S
H77 C80 0.929 . S
H78 C83 0.929 . S
H79 C85 0.930 . S
C80 H77 0.929 . S
C80 C81 1.398 1_554 S
C80 C82 1.396 . S
C81 C80 1.398 1_556 S
C81 C85 1.407 . S
C82 C80 1.396 . S
C82 C83 1.394 . S
C83 H78 0.929 . S
C83 C82 1.394 . S
C83 C84 1.382 . S
C84 C83 1.382 . S
C84 C85 1.392 1_554 S
C84 N86 1.420 . S
C85 H79 0.930 . S
C85 C81 1.407 . S
C85 C84 1.392 1_556 S
N86 C84 1.420 . S
N86 C87 1.244 . S
C87 N86 1.244 . S
Eu88 C97 2.828 . S
Eu88 O99 2.392 . S
Eu88 O101 2.418 1_545 S
Eu88 O106 2.373 1_655 S
Eu88 O109 2.488 . S
Eu88 O110 2.485 . S
Eu88 O111 2.349 1_655 S
Eu89 O98 2.373 1_455 S
Eu89 O102 2.488 . S
Eu89 O103 2.471 . S
Eu89 O104 2.349 . S
Eu89 O107 2.392 1_565 S
Eu89 O108 2.418 1_565 S
Eu89 C118 2.828 . S
C90 O108 1.244 . S
C90 O111 1.265 . S
C91 C92 1.379 1_655 S
C91 C95 1.373 . S
C91 C97 1.505 . S
C92 C91 1.379 1_455 S
C92 C94 1.369 . S
C92 H120 0.930 . S
C93 C95 1.383 . S
C93 C96 1.382 1_655 S
C93 H121 0.930 . S
C94 C92 1.369 . S
C94 C96 1.392 . S
C94 H122 0.930 . S
C95 C91 1.373 . S
C95 C93 1.383 . S
C95 H123 0.931 . S
C96 C93 1.382 1_455 S
C96 C94 1.392 . S
C97 Eu88 2.828 . S
C97 C91 1.505 . S
C97 O109 1.249 . S
C97 O110 1.254 . S
O98 Eu89 2.373 1_655 S
O98 C100 1.249 1_565 S
O99 Eu88 2.392 . S
O99 C100 1.259 . S
C100 O98 1.249 1_545 S
C100 O99 1.259 . S
O101 Eu88 2.418 1_565 S
O101 C105 1.244 . S
O102 Eu89 2.488 . S
O102 C118 1.249 . S
O103 Eu89 2.471 . S
O103 C118 1.244 . S
O104 Eu89 2.349 . S
O104 C105 1.265 1_455 S
C105 O101 1.244 . S
C105 O104 1.265 1_655 S
O106 Eu88 2.373 1_455 S
O106 C119 1.258 . S
O107 Eu89 2.392 1_545 S
O107 C119 1.242 . S
O108 Eu89 2.418 1_545 S
O108 C90 1.244 . S
O109 Eu88 2.488 . S
O109 C97 1.249 . S
O110 Eu88 2.485 . S
O110 C97 1.254 . S
O111 Eu88 2.349 1_455 S
O111 C90 1.265 . S
C112 C113 1.379 . S
C112 C116 1.373 1_556 S
C112 C118 1.505 . S
C113 C112 1.379 . S
C113 C115 1.372 1_556 S
C113 H124 0.930 1_455 S
C114 C116 1.383 . S
C114 C117 1.382 . S
C114 H125 0.930 . S
C115 C113 1.372 1_554 S
C115 C117 1.398 . S
C115 H126 0.922 1_455 S
C116 C112 1.373 1_554 S
C116 C114 1.383 . S
C116 H127 0.931 . S
C117 C114 1.382 . S
C117 C115 1.398 . S
C118 Eu89 2.828 . S
C118 O102 1.249 . S
C118 O103 1.244 . S
C118 C112 1.505 . S
C119 O106 1.258 . S
C119 O107 1.242 . S
H120 C92 0.930 . S
H121 C93 0.930 . S
H122 C94 0.930 . S
H123 C95 0.931 . S
H124 C113 0.930 1_655 S
H125 C114 0.930 . S
H126 C115 0.922 1_655 S
H127 C116 0.931 . S
Eu128 C137 2.828 . S
Eu128 O139 2.392 . S
Eu128 O141 2.418 . S
Eu128 O146 2.373 . S
Eu128 O149 2.488 . S
Eu128 O150 2.471 . S
Eu128 O151 2.349 1_545 S
Eu129 O138 2.373 1_565 S
Eu129 O142 2.488 . S
Eu129 O143 2.471 1_565 S
Eu129 O144 2.349 1_565 S
Eu129 O147 2.392 . S
Eu129 O148 2.418 . S
Eu129 C158 2.828 . S
C130 O148 1.244 . S
C130 O151 1.265 . S
C131 C132 1.379 . S
C131 C135 1.373 . S
C131 C137 1.505 . S
C132 C131 1.379 . S
C132 C134 1.369 . S
C132 H160 0.930 1_545 S
C133 C135 1.383 . S
C133 C136 1.382 . S
C133 H161 0.930 . S
C134 C132 1.369 . S
C134 C136 1.392 . S
C134 H162 0.930 1_545 S
C135 C131 1.373 . S
C135 C133 1.383 . S
C135 H163 0.931 . S
C136 C133 1.382 . S
C136 C134 1.392 . S
C137 Eu128 2.828 . S
C137 C131 1.505 . S
C137 O149 1.249 . S
C137 O150 1.244 . S
O138 Eu129 2.373 1_545 S
O138 C140 1.258 . S
O139 Eu128 2.392 . S
O139 C140 1.242 . S
C140 O138 1.258 . S
C140 O139 1.242 . S
O141 Eu128 2.418 . S
O141 C145 1.244 . S
O142 Eu129 2.488 . S
O142 C158 1.249 . S
O143 Eu129 2.471 1_545 S
O143 C158 1.244 1_545 S
O144 Eu129 2.349 1_545 S
O144 C145 1.265 . S
C145 O141 1.244 . S
C145 O144 1.265 . S
O146 Eu128 2.373 . S
O146 C159 1.258 1_545 S
O147 Eu129 2.392 . S
O147 C159 1.242 . S
O148 Eu129 2.418 . S
O148 C130 1.244 . S
O149 Eu128 2.488 . S
O149 C137 1.249 . S
O150 Eu128 2.471 . S
O150 C137 1.244 . S
O151 Eu128 2.349 1_565 S
O151 C130 1.265 . S
C152 C153 1.379 1_565 S
C152 C156 1.373 . S
C152 C158 1.505 . S
C153 C152 1.379 1_545 S
C153 C155 1.369 . S
C153 H164 0.930 . S
C154 C156 1.383 . S
C154 C157 1.382 . S
C154 H165 0.930 . S
C155 C153 1.369 . S
C155 C157 1.392 1_545 S
C155 H166 0.930 . S
C156 C152 1.373 . S
C156 C154 1.383 . S
C156 H167 0.931 . S
C157 C154 1.382 . S
C157 C155 1.392 1_565 S
C158 Eu129 2.828 . S
C158 O142 1.249 . S
C158 O143 1.244 1_565 S
C158 C152 1.505 . S
C159 O146 1.258 1_565 S
C159 O147 1.242 . S
H160 C132 0.930 1_565 S
H161 C133 0.930 . S
H162 C134 0.930 1_565 S
H163 C135 0.931 . S
H164 C153 0.930 . S
H165 C154 0.930 . S
H166 C155 0.930 . S
H167 C156 0.931 . S
Eu168 C177 2.828 . S
Eu168 O179 2.392 . S
Eu168 O181 2.418 . S
Eu168 O186 2.373 . S
Eu168 O189 2.488 . S
Eu168 O190 2.471 . S
Eu168 O191 2.349 . S
Eu169 O178 2.373 . S
Eu169 O182 2.488 . S
Eu169 O183 2.471 . S
Eu169 O184 2.349 . S
Eu169 O187 2.392 . S
Eu169 O188 2.418 . S
Eu169 C198 2.828 . S
C170 O188 1.244 . S
C170 O191 1.265 . S
C171 C172 1.379 . S
C171 C175 1.373 . S
C171 C177 1.505 . S
C172 C171 1.379 . S
C172 C174 1.369 . S
C172 H200 0.930 . S
C173 C175 1.383 . S
C173 C176 1.382 . S
C173 H201 0.930 . S
C174 C172 1.369 . S
C174 C176 1.392 . S
C174 H202 0.930 . S
C175 C171 1.373 . S
C175 C173 1.383 . S
C175 H203 0.931 . S
C176 C173 1.382 . S
C176 C174 1.392 . S
C177 Eu168 2.828 . S
C177 C171 1.505 . S
C177 O189 1.249 . S
C177 O190 1.244 . S
O178 Eu169 2.373 . S
O178 C180 1.258 . S
O179 Eu168 2.392 . S
O179 C180 1.242 . S
C180 O178 1.258 . S
C180 O179 1.242 . S
O181 Eu168 2.418 . S
O181 C185 1.244 . S
O182 Eu169 2.488 . S
O182 C198 1.249 . S
O183 Eu169 2.471 . S
O183 C198 1.244 . S
O184 Eu169 2.349 . S
O184 C185 1.265 . S
C185 O181 1.244 . S
C185 O184 1.265 . S
O186 Eu168 2.373 . S
O186 C199 1.258 . S
O187 Eu169 2.392 . S
O187 C199 1.242 . S
O188 Eu169 2.418 . S
O188 C170 1.244 . S
O189 Eu168 2.488 . S
O189 C177 1.249 . S
O190 Eu168 2.471 . S
O190 C177 1.244 . S
O191 Eu168 2.349 . S
O191 C170 1.265 . S
C192 C193 1.379 . S
C192 C196 1.373 . S
C192 C198 1.505 . S
C193 C192 1.379 . S
C193 C195 1.369 . S
C193 H204 0.930 . S
C194 C196 1.383 . S
C194 C197 1.382 . S
C194 H205 0.930 . S
C195 C193 1.369 . S
C195 C197 1.392 . S
C195 H206 0.930 . S
C196 C192 1.373 . S
C196 C194 1.383 . S
C196 H207 0.931 . S
C197 C194 1.382 . S
C197 C195 1.392 . S
C198 Eu169 2.828 . S
C198 O182 1.249 . S
C198 O183 1.244 . S
C198 C192 1.505 . S
C199 O186 1.258 . S
C199 O187 1.242 . S
H200 C172 0.930 . S
H201 C173 0.930 . S
H202 C174 0.930 . S
H203 C175 0.931 . S
H204 C193 0.930 . S
H205 C194 0.930 . S
H206 C195 0.930 . S
H207 C196 0.931 . S
Eu208 C217 2.828 . S
Eu208 O219 2.392 . S
Eu208 O221 2.418 1_455 S
Eu208 O226 2.373 . S
Eu208 O229 2.488 . S
Eu208 O230 2.471 . S
Eu208 O231 2.349 . S
Eu209 O218 2.373 . S
Eu209 O222 2.488 . S
Eu209 O223 2.471 . S
Eu209 O224 2.349 . S
Eu209 O227 2.392 1_655 S
Eu209 O228 2.418 1_655 S
Eu209 C238 2.828 . S
C210 O228 1.244 . S
C210 O231 1.265 . S
C211 C212 1.379 . S
C211 C215 1.373 . S
C211 C217 1.505 . S
C212 C211 1.379 . S
C212 C214 1.369 . S
C212 H240 0.930 . S
C213 C215 1.383 . S
C213 C216 1.382 . S
C213 H241 0.930 . S
C214 C212 1.369 . S
C214 C216 1.392 . S
C214 H242 0.930 . S
C215 C211 1.373 . S
C215 C213 1.383 . S
C215 H243 0.931 . S
C216 C213 1.382 . S
C216 C214 1.392 . S
C217 Eu208 2.828 . S
C217 C211 1.505 . S
C217 O229 1.249 . S
C217 O230 1.244 . S
O218 Eu209 2.373 . S
O218 C220 1.253 1_655 S
O219 Eu208 2.392 . S
O219 C220 1.253 . S
C220 O218 1.253 1_455 S
C220 O219 1.253 . S
O221 Eu208 2.418 1_655 S
O221 C225 1.244 . S
O222 Eu209 2.488 . S
O222 C238 1.249 . S
O223 Eu209 2.471 . S
O223 C238 1.244 . S
O224 Eu209 2.349 . S
O224 C225 1.265 . S
C225 O221 1.244 . S
C225 O224 1.265 . S
O226 Eu208 2.373 . S
O226 C239 1.258 . S
O227 Eu209 2.392 1_455 S
O227 C239 1.242 . S
O228 Eu209 2.418 1_455 S
O228 C210 1.244 . S
O229 Eu208 2.488 . S
O229 C217 1.249 . S
O230 Eu208 2.471 . S
O230 C217 1.244 . S
O231 Eu208 2.349 . S
O231 C210 1.265 . S
C232 C233 1.379 . S
C232 C236 1.373 1_556 S
C232 C238 1.505 . S
C233 C232 1.379 . S
C233 C235 1.369 . S
C233 H244 0.930 . S
C234 C236 1.383 . S
C234 C237 1.382 . S
C234 H245 0.930 . S
C235 C233 1.369 . S
C235 C237 1.392 1_556 S
C235 H246 0.930 . S
C236 C232 1.373 1_554 S
C236 C234 1.383 . S
C236 H247 0.931 . S
C237 C234 1.382 . S
C237 C235 1.392 1_554 S
C238 Eu209 2.828 . S
C238 O222 1.249 . S
C238 O223 1.244 . S
C238 C232 1.505 . S
C239 O226 1.258 . S
C239 O227 1.242 . S
H240 C212 0.930 . S
H241 C213 0.930 . S
H242 C214 0.930 . S
H243 C215 0.931 . S
H244 C233 0.930 . S
H245 C234 0.930 . S
H246 C235 0.930 . S
H247 C236 0.931 . S
H248 C256 0.950 1_565 S
H249 C261 0.950 . S
H250 C258 0.950 1_565 S
H251 C260 0.950 . S
H252 C262 0.950 . S
H253 C264 0.950 . S
H254 C266 0.950 1_565 S
H255 C267 0.925 1_565 S
C256 H248 0.950 1_545 S
C256 C257 1.386 . S
C256 C258 1.391 . S
C257 C256 1.386 . S
C257 C261 1.393 . S
C258 H250 0.950 1_545 S
C258 C256 1.391 . S
C258 C259 1.400 . S
C259 C258 1.400 . S
C259 C260 1.398 . S
C259 C265 1.491 . S
C260 H251 0.950 . S
C260 C259 1.398 . S
C260 C261 1.391 . S
C261 H249 0.950 . S
C261 C257 1.393 . S
C261 C260 1.391 . S
C262 H252 0.950 . S
C262 C263 1.386 . S
C262 C264 1.391 . S
C263 C262 1.386 . S
C263 C267 1.415 . S
C264 H253 0.950 . S
C264 C262 1.391 . S
C264 C265 1.400 . S
C265 C259 1.491 . S
C265 C264 1.400 . S
C265 C266 1.398 . S
C266 H254 0.950 1_545 S
C266 C265 1.398 . S
C266 C267 1.394 . S
C267 H255 0.925 1_545 S
C267 C263 1.415 . S
C267 C266 1.394 . S
H268 C276 0.950 . S
H269 C281 0.950 . S
H270 C278 0.950 . S
H271 C280 0.950 . S
H272 C282 0.950 . S
H273 C284 0.950 . S
H274 C286 0.950 . S
H275 C287 0.950 . S
C276 H268 0.950 . S
C276 C277 1.386 . S
C276 C278 1.391 . S
C277 C276 1.386 . S
C277 C281 1.393 . S
C278 H270 0.950 . S
C278 C276 1.391 . S
C278 C279 1.400 . S
C279 C278 1.400 . S
C279 C280 1.398 . S
C279 C285 1.491 . S
C280 H271 0.950 . S
C280 C279 1.398 . S
C280 C281 1.391 . S
C281 H269 0.950 . S
C281 C277 1.393 . S
C281 C280 1.391 . S
C282 H272 0.950 . S
C282 C283 1.386 . S
C282 C284 1.391 . S
C283 C282 1.386 . S
C283 C287 1.393 . S
C284 H273 0.950 . S
C284 C282 1.391 . S
C284 C285 1.400 . S
C285 C279 1.491 . S
C285 C284 1.400 . S
C285 C286 1.398 . S
C286 H274 0.950 . S
C286 C285 1.398 . S
C286 C287 1.391 . S
C287 H275 0.950 . S
C287 C283 1.393 . S
C287 C286 1.391 . S
H288 C296 0.950 . S
H289 C301 0.950 . S
H290 C298 0.950 . S
H291 C300 0.950 . S
H292 C302 0.950 . S
H293 C304 0.950 . S
H294 C306 0.950 . S
H295 C307 0.950 . S
C296 H288 0.950 . S
C296 C297 1.386 . S
C296 C298 1.391 . S
C297 C296 1.386 . S
C297 C301 1.393 . S
C298 H290 0.950 . S
C298 C296 1.391 . S
C298 C299 1.400 . S
C299 C298 1.400 . S
C299 C300 1.398 . S
C299 C305 1.491 . S
C300 H291 0.950 . S
C300 C299 1.398 . S
C300 C301 1.391 . S
C301 H289 0.950 . S
C301 C297 1.393 . S
C301 C300 1.391 . S
C302 H292 0.950 . S
C302 C303 1.386 . S
C302 C304 1.391 . S
C303 C302 1.386 . S
C303 C307 1.393 . S
C304 H293 0.950 . S
C304 C302 1.391 . S
C304 C305 1.400 . S
C305 C299 1.491 . S
C305 C304 1.400 . S
C305 C306 1.398 . S
C306 H294 0.950 . S
C306 C305 1.398 . S
C306 C307 1.391 . S
C307 H295 0.950 . S
C307 C303 1.393 . S
C307 C306 1.391 . S
H308 C316 0.950 . S
H309 C321 0.950 . S
H310 C318 0.950 . S
H311 C320 0.950 . S
H312 C322 0.950 . S
H313 C324 0.950 . S
H314 C326 0.950 1_655 S
H315 C327 0.950 1_655 S
C316 H308 0.950 . S
C316 C317 1.386 . S
C316 C318 1.391 . S
C317 C316 1.386 . S
C317 C321 1.393 . S
C318 H310 0.950 . S
C318 C316 1.391 . S
C318 C319 1.400 . S
C319 C318 1.400 . S
C319 C320 1.398 . S
C319 C325 1.491 . S
C320 H311 0.950 . S
C320 C319 1.398 . S
C320 C321 1.391 . S
C321 H309 0.950 . S
C321 C317 1.393 . S
C321 C320 1.391 . S
C322 H312 0.950 . S
C322 C323 1.386 . S
C322 C324 1.391 . S
C323 C322 1.386 . S
C323 C327 1.393 . S
C324 H313 0.950 . S
C324 C322 1.391 . S
C324 C325 1.400 . S
C325 C319 1.491 . S
C325 C324 1.400 . S
C325 C326 1.398 . S
C326 H314 0.950 1_455 S
C326 C325 1.398 . S
C326 C327 1.391 . S
C327 H315 0.950 1_455 S
C327 C323 1.393 . S
C327 C326 1.391 . S
H328 C336 0.950 1_545 S
H329 C341 0.950 . S
H330 C338 0.950 . S
H331 C340 0.950 . S
H332 C342 0.950 . S
H333 C344 0.950 . S
H334 C346 0.950 . S
H335 C347 0.950 . S
C336 H328 0.950 1_565 S
C336 C337 1.386 . S
C336 C338 1.391 1_565 S
C337 C336 1.386 . S
C337 C341 1.393 . S
C338 H330 0.950 . S
C338 C336 1.391 1_545 S
C338 C339 1.400 1_545 S
C339 C338 1.400 1_565 S
C339 C340 1.398 . S
C339 C345 1.491 . S
C340 H331 0.950 . S
C340 C339 1.398 . S
C340 C341 1.391 . S
C341 H329 0.950 . S
C341 C337 1.393 . S
C341 C340 1.391 . S
C342 H332 0.950 . S
C342 C343 1.386 . S
C342 C344 1.391 . S
C343 C342 1.386 . S
C343 C347 1.393 1_565 S
C344 H333 0.950 . S
C344 C342 1.391 . S
C344 C345 1.400 1_556 S
C345 C339 1.491 . S
C345 C344 1.400 1_554 S
C345 C346 1.398 1_565 S
C346 H334 0.950 . S
C346 C345 1.398 1_545 S
C346 C347 1.391 1_554 S
C347 H335 0.950 . S
C347 C343 1.393 1_545 S
C347 C346 1.391 1_556 S
H348 C356 0.950 . S
H349 C361 0.950 . S
H350 C358 0.950 . S
H351 C360 0.950 . S
H352 C362 0.950 . S
H353 C364 0.950 . S
H354 C366 0.950 1_554 S
H355 C367 0.950 . S
C356 H348 0.950 . S
C356 C357 1.386 . S
C356 C358 1.391 . S
C357 C356 1.386 . S
C357 C361 1.393 . S
C358 H350 0.950 . S
C358 C356 1.391 . S
C358 C359 1.400 . S
C359 C358 1.400 . S
C359 C360 1.398 . S
C359 C365 1.491 1_554 S
C360 H351 0.950 . S
C360 C359 1.398 . S
C360 C361 1.391 . S
C361 H349 0.950 . S
C361 C357 1.393 . S
C361 C360 1.391 . S
C362 H352 0.950 . S
C362 C363 1.386 . S
C362 C364 1.391 . S
C363 C362 1.386 . S
C363 C367 1.393 . S
C364 H353 0.950 . S
C364 C362 1.391 . S
C364 C365 1.400 . S
C365 C359 1.491 1_556 S
C365 C364 1.400 . S
C365 C366 1.398 . S
C366 H354 0.950 1_556 S
C366 C365 1.398 . S
C366 C367 1.391 . S
C367 H355 0.950 . S
C367 C363 1.393 . S
C367 C366 1.391 . S
H368 C376 0.950 . S
H369 C381 0.950 . S
H370 C378 0.950 . S
H371 C380 0.950 . S
H372 C382 0.950 . S
H373 C384 0.950 . S
H374 C386 0.950 . S
H375 C387 0.950 . S
C376 H368 0.950 . S
C376 C377 1.386 . S
C376 C378 1.391 . S
C377 C376 1.386 . S
C377 C381 1.393 . S
C378 H370 0.950 . S
C378 C376 1.391 . S
C378 C379 1.400 . S
C379 C378 1.400 . S
C379 C380 1.398 . S
C379 C385 1.491 1_554 S
C380 H371 0.950 . S
C380 C379 1.398 . S
C380 C381 1.391 . S
C381 H369 0.950 . S
C381 C377 1.393 . S
C381 C380 1.391 . S
C382 H372 0.950 . S
C382 C383 1.386 . S
C382 C384 1.391 . S
C383 C382 1.386 . S
C383 C387 1.393 . S
C384 H373 0.950 . S
C384 C382 1.391 . S
C384 C385 1.400 . S
C385 C379 1.491 1_556 S
C385 C384 1.400 . S
C385 C386 1.398 . S
C386 H374 0.950 . S
C386 C385 1.398 . S
C386 C387 1.391 . S
C387 H375 0.950 . S
C387 C383 1.393 . S
C387 C386 1.391 . S
H388 C396 0.950 1_455 S
H389 C401 0.950 . S
H390 C398 0.950 1_455 S
H391 C400 0.950 . S
H392 C402 0.950 . S
H393 C404 0.950 1_554 S
H394 C406 0.950 . S
H395 C407 0.950 . S
C396 H388 0.950 1_655 S
C396 C397 1.386 . S
C396 C398 1.391 . S
C397 C396 1.386 . S
C397 C401 1.393 . S
C398 H390 0.950 1_655 S
C398 C396 1.391 . S
C398 C399 1.400 . S
C399 C398 1.400 . S
C399 C400 1.398 . S
C399 C405 1.491 . S
C400 H391 0.950 . S
C400 C399 1.398 . S
C400 C401 1.391 . S
C401 H389 0.950 . S
C401 C397 1.393 . S
C401 C400 1.391 . S
C402 H392 0.950 . S
C402 C403 1.386 . S
C402 C404 1.391 . S
C403 C402 1.386 . S
C403 C407 1.393 1_655 S
C404 H393 0.950 1_556 S
C404 C402 1.391 . S
C404 C405 1.400 1_556 S
C405 C399 1.491 . S
C405 C404 1.400 1_554 S
C405 C406 1.398 1_654 S
C406 H394 0.950 . S
C406 C405 1.398 1_456 S
C406 C407 1.391 . S
C407 H395 0.950 . S
C407 C403 1.393 1_455 S
C407 C406 1.391 . S
H408 C416 0.950 . S
H409 C421 0.950 . S
H410 C418 0.950 . S
H411 C420 0.950 . S
H412 C422 0.950 . S
H413 C424 0.950 1_655 S
H414 C426 0.950 . S
H415 C427 0.950 . S
C416 H408 0.950 . S
C416 C417 1.386 . S
C416 C418 1.391 . S
C417 C416 1.386 . S
C417 C421 1.393 . S
C418 H410 0.950 . S
C418 C416 1.391 . S
C418 C419 1.400 . S
C419 C418 1.400 . S
C419 C420 1.398 . S
C419 C425 1.491 . S
C420 H411 0.950 . S
C420 C419 1.398 . S
C420 C421 1.391 . S
C421 H409 0.950 . S
C421 C417 1.393 . S
C421 C420 1.391 . S
C422 H412 0.950 . S
C422 C423 1.386 1_655 S
C422 C424 1.391 1_655 S
C423 C422 1.386 1_455 S
C423 C427 1.393 . S
C424 H413 0.950 1_455 S
C424 C422 1.391 1_455 S
C424 C425 1.400 . S
C425 C419 1.491 . S
C425 C424 1.400 . S
C425 C426 1.398 . S
C426 H414 0.950 . S
C426 C425 1.398 . S
C426 C427 1.391 . S
C427 H415 0.950 . S
C427 C423 1.393 . S
C427 C426 1.391 . S
H428 C436 0.950 . S
H429 C441 0.950 . S
H430 C438 0.950 1_565 S
H431 C440 0.950 . S
H432 C442 0.950 . S
H433 C444 0.950 . S
H434 C446 0.950 . S
H435 C447 0.950 . S
C436 H428 0.950 . S
C436 C437 1.386 . S
C436 C438 1.391 . S
C437 C436 1.386 . S
C437 C441 1.393 . S
C438 H430 0.950 1_545 S
C438 C436 1.391 . S
C438 C439 1.400 . S
C439 C438 1.400 . S
C439 C440 1.398 . S
C439 C445 1.491 . S
C440 H431 0.950 . S
C440 C439 1.398 . S
C440 C441 1.391 . S
C441 H429 0.950 . S
C441 C437 1.393 . S
C441 C440 1.391 . S
C442 H432 0.950 . S
C442 C443 1.386 1_545 S
C442 C444 1.391 . S
C443 C442 1.386 1_565 S
C443 C447 1.393 . S
C444 H433 0.950 . S
C444 C442 1.391 . S
C444 C445 1.400 . S
C445 C439 1.491 . S
C445 C444 1.400 . S
C445 C446 1.398 1_545 S
C446 H434 0.950 . S
C446 C445 1.398 1_565 S
C446 C447 1.391 . S
C447 H435 0.950 . S
C447 C443 1.393 . S
C447 C446 1.391 . S
H448 C456 0.950 . S
H449 C461 0.950 . S
H450 C458 0.950 . S
H451 C460 0.950 . S
H452 C462 0.950 . S
H453 C464 0.950 . S
H454 C466 0.950 . S
H455 C467 0.950 . S
C456 H448 0.950 . S
C456 C457 1.386 . S
C456 C458 1.391 . S
C457 C456 1.386 . S
C457 C461 1.393 . S
C458 H450 0.950 . S
C458 C456 1.391 . S
C458 C459 1.400 . S
C459 C458 1.400 . S
C459 C460 1.398 . S
C459 C465 1.491 . S
C460 H451 0.950 . S
C460 C459 1.398 . S
C460 C461 1.391 . S
C461 H449 0.950 . S
C461 C457 1.393 . S
C461 C460 1.391 . S
C462 H452 0.950 . S
C462 C463 1.386 . S
C462 C464 1.391 . S
C463 C462 1.386 . S
C463 C467 1.393 . S
C464 H453 0.950 . S
C464 C462 1.391 . S
C464 C465 1.400 . S
C465 C459 1.491 . S
C465 C464 1.400 . S
C465 C466 1.398 . S
C466 H454 0.950 . S
C466 C465 1.398 . S
C466 C467 1.391 . S
C467 H455 0.950 . S
C467 C463 1.393 . S
C467 C466 1.391 . S
H468 C476 0.950 . S
H469 C481 0.950 . S
H470 C478 0.950 . S
H471 C480 0.950 . S
H472 C482 0.950 . S
H473 C484 0.950 . S
H474 C486 0.950 . S
H475 C487 0.950 . S
C476 H468 0.950 . S
C476 C477 1.386 . S
C476 C478 1.391 . S
C477 C476 1.386 . S
C477 C481 1.393 . S
C478 H470 0.950 . S
C478 C476 1.391 . S
C478 C479 1.400 . S
C479 C478 1.400 . S
C479 C480 1.398 . S
C479 C485 1.491 . S
C480 H471 0.950 . S
C480 C479 1.398 . S
C480 C481 1.391 . S
C481 H469 0.950 . S
C481 C477 1.393 . S
C481 C480 1.391 . S
C482 H472 0.950 . S
C482 C483 1.386 . S
C482 C484 1.391 . S
C483 C482 1.386 . S
C483 C487 1.393 . S
C484 H473 0.950 . S
C484 C482 1.391 . S
C484 C485 1.400 . S
C485 C479 1.491 . S
C485 C484 1.400 . S
C485 C486 1.398 . S
C486 H474 0.950 . S
C486 C485 1.398 . S
C486 C487 1.391 . S
C487 H475 0.950 . S
C487 C483 1.393 . S
C487 C486 1.391 . S
H488 C496 0.950 . S
H489 C501 0.950 . S
H490 C498 0.950 . S
H491 C500 0.950 . S
H492 C502 0.950 . S
H493 C504 0.950 . S
H494 C506 0.950 . S
H495 C507 0.949 . S
C496 H488 0.950 . S
C496 C497 1.386 . S
C496 C498 1.391 . S
C497 C496 1.386 . S
C497 C501 1.393 . S
C498 H490 0.950 . S
C498 C496 1.391 . S
C498 C499 1.400 . S
C499 C498 1.400 . S
C499 C500 1.398 . S
C499 C505 1.491 . S
C500 H491 0.950 . S
C500 C499 1.398 . S
C500 C501 1.391 . S
C501 H489 0.950 . S
C501 C497 1.393 . S
C501 C500 1.391 . S
C502 H492 0.950 . S
C502 C503 1.386 . S
C502 C504 1.391 . S
C503 C502 1.386 . S
C503 C507 1.394 1_455 S
C504 H493 0.950 . S
C504 C502 1.391 . S
C504 C505 1.400 1_455 S
C505 C499 1.491 . S
C505 C504 1.400 1_655 S
C505 C506 1.398 . S
C506 H494 0.950 . S
C506 C505 1.398 . S
C506 C507 1.389 . S
C507 H495 0.949 . S
C507 C503 1.394 1_655 S
C507 C506 1.389 . S
H508 C516 0.950 . S
H509 C521 0.950 . S
H510 C518 0.950 . S
H511 C520 0.950 . S
H512 C522 0.950 . S
H513 C524 0.950 . S
H514 C526 0.950 . S
H515 C527 0.950 . S
C516 H508 0.950 . S
C516 C517 1.386 . S
C516 C518 1.391 . S
C517 C516 1.386 . S
C517 C521 1.393 1_565 S
C518 H510 0.950 . S
C518 C516 1.391 . S
C518 C519 1.400 . S
C519 C518 1.400 . S
C519 C520 1.398 1_565 S
C519 C525 1.491 1_565 S
C520 H511 0.950 . S
C520 C519 1.398 1_545 S
C520 C521 1.391 . S
C521 H509 0.950 . S
C521 C517 1.393 1_545 S
C521 C520 1.391 . S
C522 H512 0.950 . S
C522 C523 1.386 . S
C522 C524 1.391 . S
C523 C522 1.386 . S
C523 C527 1.393 1_545 S
C524 H513 0.950 . S
C524 C522 1.391 . S
C524 C525 1.400 . S
C525 C519 1.491 1_545 S
C525 C524 1.400 . S
C525 C526 1.398 1_545 S
C526 H514 0.950 . S
C526 C525 1.398 1_565 S
C526 C527 1.391 . S
C527 H515 0.950 . S
C527 C523 1.393 1_565 S
C527 C526 1.391 . S
H528 C536 0.950 . S
H529 C541 0.950 . S
H530 C538 0.950 . S
H531 C540 0.950 . S
H532 C542 0.950 . S
H533 C544 0.950 . S
H534 C546 0.950 . S
H535 C547 0.950 . S
C536 H528 0.950 . S
C536 C537 1.386 . S
C536 C538 1.391 . S
C537 C536 1.386 . S
C537 C541 1.393 . S
C538 H530 0.950 . S
C538 C536 1.391 . S
C538 C539 1.400 . S
C539 C538 1.400 . S
C539 C540 1.398 . S
C539 C545 1.491 . S
C540 H531 0.950 . S
C540 C539 1.398 . S
C540 C541 1.391 . S
C541 H529 0.950 . S
C541 C537 1.393 . S
C541 C540 1.391 . S
C542 H532 0.950 . S
C542 C543 1.386 1_554 S
C542 C544 1.391 . S
C543 C542 1.386 1_556 S
C543 C547 1.393 . S
C544 H533 0.950 . S
C544 C542 1.391 . S
C544 C545 1.400 . S
C545 C539 1.491 . S
C545 C544 1.400 . S
C545 C546 1.398 1_554 S
C546 H534 0.950 . S
C546 C545 1.398 1_556 S
C546 C547 1.391 . S
C547 H535 0.950 . S
C547 C543 1.393 . S
C547 C546 1.391 . S
H548 C556 0.950 . S
H549 C561 0.950 . S
H550 C558 0.950 . S
H551 C560 0.950 . S
H552 C562 0.950 . S
H553 C564 0.950 . S
H554 C566 0.950 . S
H555 C567 0.950 . S
C556 H548 0.950 . S
C556 C557 1.386 . S
C556 C558 1.391 . S
C557 C556 1.386 . S
C557 C561 1.393 . S
C558 H550 0.950 . S
C558 C556 1.391 . S
C558 C559 1.400 . S
C559 C558 1.400 . S
C559 C560 1.398 . S
C559 C565 1.491 . S
C560 H551 0.950 . S
C560 C559 1.398 . S
C560 C561 1.391 . S
C561 H549 0.950 . S
C561 C557 1.393 . S
C561 C560 1.391 . S
C562 H552 0.950 . S
C562 C563 1.386 . S
C562 C564 1.391 . S
C563 C562 1.386 . S
C563 C567 1.393 . S
C564 H553 0.950 . S
C564 C562 1.391 . S
C564 C565 1.400 . S
C565 C559 1.491 . S
C565 C564 1.400 . S
C565 C566 1.398 . S
C566 H554 0.950 . S
C566 C565 1.398 . S
C566 C567 1.391 . S
C567 H555 0.950 . S
C567 C563 1.393 . S
C567 C566 1.391 . S
H568 C576 0.950 . S
H569 C581 0.950 . S
H570 C578 0.950 . S
H571 C580 0.950 . S
H572 C582 0.950 . S
H573 C584 0.950 . S
H574 C586 0.950 . S
H575 C587 0.950 . S
C576 H568 0.950 . S
C576 C577 1.386 . S
C576 C578 1.391 . S
C577 C576 1.386 . S
C577 C581 1.393 . S
C578 H570 0.950 . S
C578 C576 1.391 . S
C578 C579 1.400 . S
C579 C578 1.400 . S
C579 C580 1.398 . S
C579 C585 1.491 . S
C580 H571 0.950 . S
C580 C579 1.398 . S
C580 C581 1.391 . S
C581 H569 0.950 . S
C581 C577 1.393 . S
C581 C580 1.391 . S
C582 H572 0.950 . S
C582 C583 1.386 . S
C582 C584 1.391 . S
C583 C582 1.386 . S
C583 C587 1.393 . S
C584 H573 0.950 . S
C584 C582 1.391 . S
C584 C585 1.400 . S
C585 C579 1.491 . S
C585 C584 1.400 . S
C585 C586 1.398 . S
C586 H574 0.950 . S
C586 C585 1.398 . S
C586 C587 1.391 . S
C587 H575 0.950 . S
C587 C583 1.393 . S
C587 C586 1.391 . S
H588 C596 0.950 . S
H589 C601 0.950 . S
H590 C598 0.950 . S
H591 C600 0.950 . S
H592 C602 0.950 . S
H593 C604 0.950 . S
H594 C606 0.950 . S
H595 C607 0.950 . S
C596 H588 0.950 . S
C596 C597 1.386 . S
C596 C598 1.391 . S
C597 C596 1.386 . S
C597 C601 1.393 . S
C598 H590 0.950 . S
C598 C596 1.391 . S
C598 C599 1.400 . S
C599 C598 1.400 . S
C599 C600 1.398 . S
C599 C605 1.491 . S
C600 H591 0.950 . S
C600 C599 1.398 . S
C600 C601 1.391 . S
C601 H589 0.950 . S
C601 C597 1.393 . S
C601 C600 1.391 . S
C602 H592 0.950 . S
C602 C603 1.386 . S
C602 C604 1.391 . S
C603 C602 1.386 . S
C603 C607 1.393 . S
C604 H593 0.950 . S
C604 C602 1.391 . S
C604 C605 1.400 . S
C605 C599 1.491 . S
C605 C604 1.400 . S
C605 C606 1.398 . S
C606 H594 0.950 . S
C606 C605 1.398 . S
C606 C607 1.391 . S
C607 H595 0.950 . S
C607 C603 1.393 . S
C607 C606 1.391 . S
H608 C616 0.950 . S
H609 C621 0.950 . S
H610 C618 0.950 . S
H611 C620 0.950 . S
H612 C622 0.950 . S
H613 C624 0.950 . S
H614 C626 0.950 . S
H615 C627 0.950 . S
C616 H608 0.950 . S
C616 C617 1.386 . S
C616 C618 1.391 . S
C617 C616 1.386 . S
C617 C621 1.393 . S
C618 H610 0.950 . S
C618 C616 1.391 . S
C618 C619 1.400 . S
C619 C618 1.400 . S
C619 C620 1.398 . S
C619 C625 1.491 . S
C620 H611 0.950 . S
C620 C619 1.398 . S
C620 C621 1.391 . S
C621 H609 0.950 . S
C621 C617 1.393 . S
C621 C620 1.391 . S
C622 H612 0.950 . S
C622 C623 1.386 . S
C622 C624 1.391 . S
C623 C622 1.386 . S
C623 C627 1.393 . S
C624 H613 0.950 . S
C624 C622 1.391 . S
C624 C625 1.400 . S
C625 C619 1.491 . S
C625 C624 1.400 . S
C625 C626 1.398 . S
C626 H614 0.950 . S
C626 C625 1.398 . S
C626 C627 1.391 . S
C627 H615 0.950 . S
C627 C623 1.393 . S
C627 C626 1.391 . S
H628 C636 0.945 1_554 S
H629 C641 0.950 . S
H630 C638 0.950 . S
H631 C640 0.950 . S
H632 C642 0.950 . S
H633 C644 0.950 . S
H634 C646 0.950 . S
H635 C647 0.950 . S
C636 H628 0.945 1_556 S
C636 C637 1.386 . S
C636 C638 1.391 . S
C637 C636 1.386 . S
C637 C641 1.393 . S
C638 H630 0.950 . S
C638 C636 1.391 . S
C638 C639 1.400 . S
C639 C638 1.400 . S
C639 C640 1.398 . S
C639 C645 1.491 . S
C640 H631 0.950 . S
C640 C639 1.398 . S
C640 C641 1.391 . S
C641 H629 0.950 . S
C641 C637 1.393 . S
C641 C640 1.391 . S
C642 H632 0.950 . S
C642 C643 1.386 . S
C642 C644 1.391 . S
C643 C642 1.386 . S
C643 C647 1.393 . S
C644 H633 0.950 . S
C644 C642 1.391 . S
C644 C645 1.400 . S
C645 C639 1.491 . S
C645 C644 1.400 . S
C645 C646 1.398 . S
C646 H634 0.950 . S
C646 C645 1.398 . S
C646 C647 1.391 . S
C647 H635 0.950 . S
C647 C643 1.393 . S
C647 C646 1.391 . S
H648 C656 0.960 . S
H649 C661 0.950 . S
H650 C658 0.950 1_455 S
H651 C660 0.950 . S
H652 C662 0.950 . S
H653 C664 0.950 . S
H654 C666 0.939 1_455 S
H655 C667 0.950 . S
C656 H648 0.960 . S
C656 C657 1.386 . S
C656 C658 1.391 . S
C657 C656 1.386 . S
C657 C661 1.393 . S
C658 H650 0.950 1_655 S
C658 C656 1.391 . S
C658 C659 1.400 . S
C659 C658 1.400 . S
C659 C660 1.398 . S
C659 C665 1.491 . S
C660 H651 0.950 . S
C660 C659 1.398 . S
C660 C661 1.391 . S
C661 H649 0.950 . S
C661 C657 1.393 . S
C661 C660 1.391 . S
C662 H652 0.950 . S
C662 C663 1.386 . S
C662 C664 1.391 . S
C663 C662 1.386 . S
C663 C667 1.393 1_655 S
C664 H653 0.950 . S
C664 C662 1.391 . S
C664 C665 1.400 . S
C665 C659 1.491 . S
C665 C664 1.400 . S
C665 C666 1.412 . S
C666 H654 0.939 1_655 S
C666 C665 1.412 . S
C666 C667 1.388 1_655 S
C667 H655 0.950 . S
C667 C663 1.393 1_455 S
C667 C666 1.388 1_455 S
H668 C676 0.950 . S
H669 C681 0.950 . S
H670 C678 0.950 . S
H671 C680 0.950 . S
H672 C682 0.950 . S
H673 C684 0.950 . S
H674 C686 0.950 . S
H675 C687 0.950 . S
C676 H668 0.950 . S
C676 C677 1.386 . S
C676 C678 1.391 . S
C677 C676 1.386 . S
C677 C681 1.393 . S
C678 H670 0.950 . S
C678 C676 1.391 . S
C678 C679 1.400 . S
C679 C678 1.400 . S
C679 C680 1.398 . S
C679 C685 1.491 . S
C680 H671 0.950 . S
C680 C679 1.398 . S
C680 C681 1.391 . S
C681 H669 0.950 . S
C681 C677 1.393 . S
C681 C680 1.391 . S
C682 H672 0.950 . S
C682 C683 1.386 . S
C682 C684 1.391 . S
C683 C682 1.386 . S
C683 C687 1.393 . S
C684 H673 0.950 . S
C684 C682 1.391 . S
C684 C685 1.400 . S
C685 C679 1.491 . S
C685 C684 1.400 . S
C685 C686 1.398 . S
C686 H674 0.950 . S
C686 C685 1.398 . S
C686 C687 1.391 . S
C687 H675 0.950 . S
C687 C683 1.393 . S
C687 C686 1.391 . S
H688 C696 0.950 . S
H689 C701 0.950 . S
H690 C698 0.950 . S
H691 C700 0.950 . S
H692 C702 0.950 . S
H693 C704 0.950 . S
H694 C706 0.950 . S
H695 C707 0.950 . S
C696 H688 0.950 . S
C696 C697 1.386 . S
C696 C698 1.391 . S
C697 C696 1.386 . S
C697 C701 1.393 . S
C698 H690 0.950 . S
C698 C696 1.391 . S
C698 C699 1.400 . S
C699 C698 1.400 . S
C699 C700 1.398 . S
C699 C705 1.491 . S
C700 H691 0.950 . S
C700 C699 1.398 . S
C700 C701 1.391 . S
C701 H689 0.950 . S
C701 C697 1.393 . S
C701 C700 1.391 . S
C702 H692 0.950 . S
C702 C703 1.386 . S
C702 C704 1.391 . S
C703 C702 1.386 . S
C703 C707 1.393 . S
C704 H693 0.950 . S
C704 C702 1.391 . S
C704 C705 1.400 . S
C705 C699 1.491 . S
C705 C704 1.400 . S
C705 C706 1.398 . S
C706 H694 0.950 . S
C706 C705 1.398 . S
C706 C707 1.391 . S
C707 H695 0.950 . S
C707 C703 1.393 . S
C707 C706 1.391 . S
H708 C716 0.950 . S
H709 C721 0.950 . S
H710 C718 0.950 . S
H711 C720 0.950 . S
H712 C722 0.950 . S
H713 C724 0.950 . S
H714 C726 0.950 . S
H715 C727 0.950 . S
C716 H708 0.950 . S
C716 C717 1.386 . S
C716 C718 1.391 . S
C717 C716 1.386 . S
C717 C721 1.393 . S
C718 H710 0.950 . S
C718 C716 1.391 . S
C718 C719 1.400 . S
C719 C718 1.400 . S
C719 C720 1.398 . S
C719 C725 1.491 . S
C720 H711 0.950 . S
C720 C719 1.398 . S
C720 C721 1.391 . S
C721 H709 0.950 . S
C721 C717 1.393 . S
C721 C720 1.391 . S
C722 H712 0.950 . S
C722 C723 1.386 . S
C722 C724 1.391 . S
C723 C722 1.386 . S
C723 C727 1.393 . S
C724 H713 0.950 . S
C724 C722 1.391 . S
C724 C725 1.400 . S
C725 C719 1.491 . S
C725 C724 1.400 . S
C725 C726 1.398 . S
C726 H714 0.950 . S
C726 C725 1.398 . S
C726 C727 1.391 . S
C727 H715 0.950 . S
C727 C723 1.393 . S
C727 C726 1.391 . S
C257 C76 2.140 . S
C263 C119 2.320 . S
C283 C145 1.873 . S
C277 C87 1.734 . S
C303 C185 1.946 . S
C297 C54 1.806 . S
C323 C239 2.367 . S
C317 C65 2.205 . S
C343 C100 2.322 1_565 S
C337 C32 2.166 . S
C357 C43 1.700 . S
C363 C130 1.869 . S
C377 C10 1.800 . S
C383 C170 1.945 . S
C397 C21 2.232 . S
C403 C220 2.367 1_655 S
C423 C96 0.536 . S
C417 C60 0.573 . S
C443 C157 0.672 . S
C437 C71 0.645 . S
C463 C197 0.536 . S
C457 C82 0.535 . S
C477 C49 0.424 . S
C483 C216 0.377 . S
C497 C16 0.517 . S
C503 C117 0.491 . S
C523 C136 0.673 1_554 S
C517 C27 0.647 . S
C543 C176 0.569 . S
C537 C38 0.545 . S
C557 C5 0.433 . S
C563 C237 0.380 . S
C577 C59 1.895 . S
C583 C90 2.110 . S
C597 C70 2.376 . S
C603 C140 2.598 . S
C623 C180 2.381 . S
C617 C81 2.191 . S
C643 C210 1.870 . S
C637 C48 1.671 . S
C657 C15 1.863 . S
C663 C105 2.106 . S
C683 C159 2.598 . S
C677 C26 2.371 . S
C703 C199 2.382 . S
C697 C37 2.199 . S
C717 C4 1.678 . S
C723 C225 1.874 . S
