# Generated by pormake.
# Topology pyr, (3,6)-cn, num edge types: 1
# Building blocks:
#     Node 0, Type 0, BuildingBlock: KAKCAD_clean_linker_0, # of connection points: 3
#     Node 1, Type 0, BuildingBlock: KAKCAD_clean_linker_0, # of connection points: 3
#     Node 2, Type 0, BuildingBlock: KAKCAD_clean_linker_0, # of connection points: 3
#     Node 3, Type 0, BuildingBlock: KAKCAD_clean_linker_0, # of connection points: 3
#     Node 4, Type 0, BuildingBlock: KAKCAD_clean_linker_0, # of connection points: 3
#     Node 5, Type 0, BuildingBlock: KAKCAD_clean_linker_0, # of connection points: 3
#     Node 6, Type 0, BuildingBlock: KAKCAD_clean_linker_0, # of connection points: 3
#     Node 7, Type 0, BuildingBlock: KAKCAD_clean_linker_0, # of connection points: 3
#     Node 8, Type 1, BuildingBlock: BETGAK_clean_sbu_0, # of connection points: 6
#     Node 9, Type 1, BuildingBlock: BETGAK_clean_sbu_0, # of connection points: 6
#     Node 10, Type 1, BuildingBlock: BETGAK_clean_sbu_0, # of connection points: 6
#     Node 11, Type 1, BuildingBlock: BETGAK_clean_sbu_0, # of connection points: 6
#     Edge 12, Type (0, 1), BuildingBlock: ZUJKAS_clean_linker_0, # of connection points: 2
#     Edge 13, Type (0, 1), BuildingBlock: ZUJKAS_clean_linker_0, # of connection points: 2
#     Edge 14, Type (0, 1), BuildingBlock: ZUJKAS_clean_linker_0, # of connection points: 2
#     Edge 15, Type (0, 1), BuildingBlock: ZUJKAS_clean_linker_0, # of connection points: 2
#     Edge 16, Type (0, 1), BuildingBlock: ZUJKAS_clean_linker_0, # of connection points: 2
#     Edge 17, Type (0, 1), BuildingBlock: ZUJKAS_clean_linker_0, # of connection points: 2
#     Edge 18, Type (0, 1), BuildingBlock: ZUJKAS_clean_linker_0, # of connection points: 2
#     Edge 19, Type (0, 1), BuildingBlock: ZUJKAS_clean_linker_0, # of connection points: 2
#     Edge 20, Type (0, 1), BuildingBlock: ZUJKAS_clean_linker_0, # of connection points: 2
#     Edge 21, Type (0, 1), BuildingBlock: ZUJKAS_clean_linker_0, # of connection points: 2
#     Edge 22, Type (0, 1), BuildingBlock: ZUJKAS_clean_linker_0, # of connection points: 2
#     Edge 23, Type (0, 1), BuildingBlock: ZUJKAS_clean_linker_0, # of connection points: 2
#     Edge 24, Type (0, 1), BuildingBlock: ZUJKAS_clean_linker_0, # of connection points: 2
#     Edge 25, Type (0, 1), BuildingBlock: ZUJKAS_clean_linker_0, # of connection points: 2
#     Edge 26, Type (0, 1), BuildingBlock: ZUJKAS_clean_linker_0, # of connection points: 2
#     Edge 27, Type (0, 1), BuildingBlock: ZUJKAS_clean_linker_0, # of connection points: 2
#     Edge 28, Type (0, 1), BuildingBlock: ZUJKAS_clean_linker_0, # of connection points: 2
#     Edge 29, Type (0, 1), BuildingBlock: ZUJKAS_clean_linker_0, # of connection points: 2
#     Edge 30, Type (0, 1), BuildingBlock: ZUJKAS_clean_linker_0, # of connection points: 2
#     Edge 31, Type (0, 1), BuildingBlock: ZUJKAS_clean_linker_0, # of connection points: 2
#     Edge 32, Type (0, 1), BuildingBlock: ZUJKAS_clean_linker_0, # of connection points: 2
#     Edge 33, Type (0, 1), BuildingBlock: ZUJKAS_clean_linker_0, # of connection points: 2
#     Edge 34, Type (0, 1), BuildingBlock: ZUJKAS_clean_linker_0, # of connection points: 2
#     Edge 35, Type (0, 1), BuildingBlock: ZUJKAS_clean_linker_0, # of connection points: 2
# Relax obj value: 0.071
# Max RMSD: 0.113
# Mean RMSD: 0.053
data_MOF--net-pyr--node1-BETGAK_clean_sbu_0--node2-KAKCAD_clean_linker_0--edge1-ZUJKAS_clean_linker_0
_symmetry_space_group_name_H-M    P1
_symmetry_Int_Tables_number       1
_symmetry_cell_setting            triclinic
loop_
_symmetry_equiv_pos_as_xyz
'x, y, z'
_cell_length_a     58.106062
_cell_length_b     59.633055
_cell_length_c     54.31226
_cell_angle_alpha  90.952415
_cell_angle_beta   88.579424
_cell_angle_gamma 99.183135
loop_
_atom_site_label
_atom_site_type_symbol
_atom_site_fract_x
_atom_site_fract_y
_atom_site_fract_z
_atom_type_partial_charge
C0 C 0.26079 0.2768 0.30491 0.0
C1 C 0.27205 0.26626 0.32295 0.0
C2 C 0.27276 0.28505 0.28357 0.0
C3 C 0.29646 0.2833 0.2798 0.0
C4 C 0.30797 0.27338 0.29827 0.0
C5 C 0.29583 0.2648 0.31958 0.0
C6 C 0.30828 0.29037 0.25585 0.0
C7 C 0.30213 0.30877 0.24316 0.0
C8 C 0.30922 0.31295 0.21853 0.0
C9 C 0.32451 0.29967 0.20723 0.0
C10 C 0.33193 0.28188 0.22006 0.0
C11 C 0.32358 0.27726 0.24428 0.0
C12 C 0.34679 0.2668 0.20765 0.0
C13 C 0.34205 0.25864 0.18359 0.0
C14 C 0.36508 0.25954 0.22025 0.0
C15 C 0.37803 0.2441 0.2092 0.0
C16 C 0.37291 0.23551 0.18537 0.0
C17 C 0.2986 0.3296 0.2042 0.0
C18 C 0.27484 0.33108 0.20792 0.0
C19 C 0.31154 0.34357 0.18644 0.0
C20 C 0.30093 0.35882 0.17293 0.0
C21 C 0.27728 0.36046 0.17714 0.0
C22 C 0.26439 0.34637 0.1947 0.0
C23 C 0.35495 0.24315 0.17258 0.0
H24 H 0.24235 0.2777 0.3067 0.0
H25 H 0.26302 0.29193 0.26957 0.0
H26 H 0.32626 0.27195 0.29612 0.0
H27 H 0.30492 0.25676 0.33326 0.0
H28 H 0.29099 0.31945 0.25224 0.0
H29 H 0.3279 0.26256 0.2535 0.0
H30 H 0.33005 0.30266 0.18821 0.0
H31 H 0.32792 0.2637 0.17349 0.0
H32 H 0.36923 0.26565 0.23876 0.0
H33 H 0.39164 0.23843 0.2196 0.0
H34 H 0.26407 0.32009 0.22081 0.0
H35 H 0.32987 0.3429 0.18314 0.0
H36 H 0.35076 0.23704 0.15408 0.0
H37 H 0.24599 0.34685 0.1979 0.0
H38 H 0.31125 0.3695 0.15945 0.0
C39 C 0.34529 0.90328 0.69769 0.0
C40 C 0.36946 0.91031 0.69558 0.0
C41 C 0.33245 0.8955 0.67709 0.0
C42 C 0.34341 0.89486 0.65378 0.0
C43 C 0.36775 0.90139 0.65175 0.0
C44 C 0.38069 0.90895 0.67254 0.0
C45 C 0.32923 0.88788 0.63174 0.0
C46 C 0.30726 0.89454 0.62968 0.0
C47 C 0.29303 0.88723 0.60976 0.0
C48 C 0.30117 0.87367 0.59123 0.0
C49 C 0.32306 0.86674 0.59288 0.0
C50 C 0.33706 0.87401 0.6132 0.0
C51 C 0.33053 0.85059 0.57438 0.0
C52 C 0.31439 0.83231 0.56553 0.0
C53 C 0.35393 0.85263 0.56631 0.0
C54 C 0.36122 0.83618 0.55064 0.0
C55 C 0.34523 0.81739 0.54269 0.0
C56 C 0.26928 0.89307 0.60884 0.0
C57 C 0.25459 0.89077 0.6299 0.0
C58 C 0.26109 0.90079 0.58696 0.0
C59 C 0.23871 0.90639 0.58622 0.0
C60 C 0.22401 0.90421 0.60731 0.0
C61 C 0.23216 0.89626 0.62914 0.0
C62 C 0.32164 0.81597 0.54978 0.0
H63 H 0.3363 0.90373 0.71537 0.0
H64 H 0.31385 0.88999 0.67947 0.0
H65 H 0.3767 0.9012 0.63404 0.0
H66 H 0.39934 0.9143 0.6705 0.0
H67 H 0.30117 0.9056 0.64359 0.0
H68 H 0.35357 0.86804 0.61515 0.0
H69 H 0.29015 0.86805 0.57578 0.0
H70 H 0.29627 0.83005 0.57153 0.0
H71 H 0.36672 0.8667 0.57251 0.0
H72 H 0.37957 0.83767 0.54571 0.0
H73 H 0.26037 0.88449 0.64691 0.0
H74 H 0.27215 0.90293 0.57055 0.0
H75 H 0.30886 0.80182 0.54375 0.0
H76 H 0.22116 0.89413 0.6456 0.0
H77 H 0.23313 0.91291 0.56925 0.0
C78 C 0.73747 0.42167 0.89674 0.0
C79 C 0.75516 0.40909 0.90261 0.0
C80 C 0.71669 0.41108 0.886 0.0
C81 C 0.71285 0.38756 0.88097 0.0
C82 C 0.73055 0.37502 0.88666 0.0
C83 C 0.75137 0.38561 0.8972 0.0
C84 C 0.6904 0.37602 0.87021 0.0
C85 C 0.67992 0.38594 0.85089 0.0
C86 C 0.65895 0.37504 0.84047 0.0
C87 C 0.6484 0.35381 0.84997 0.0
C88 C 0.65847 0.34352 0.8694 0.0
C89 C 0.67944 0.35489 0.87928 0.0
C90 C 0.64721 0.32099 0.87964 0.0
C91 C 0.62283 0.31557 0.88285 0.0
C92 C 0.6609 0.30485 0.8869 0.0
C93 C 0.65062 0.28418 0.89735 0.0
C94 C 0.62628 0.27886 0.90087 0.0
C95 C 0.64831 0.38576 0.81951 0.0
C96 C 0.64861 0.40942 0.81891 0.0
C97 C 0.63806 0.37254 0.79972 0.0
C98 C 0.62861 0.38265 0.77992 0.0
C99 C 0.62905 0.40635 0.77923 0.0
C100 C 0.63915 0.41953 0.79914 0.0
C101 C 0.61253 0.29484 0.89329 0.0
H102 H 0.73941 0.43968 0.90088 0.0
H103 H 0.70338 0.42126 0.88215 0.0
H104 H 0.72843 0.35696 0.88268 0.0
H105 H 0.76463 0.37532 0.90084 0.0
H106 H 0.68856 0.40192 0.84344 0.0
H107 H 0.68703 0.34753 0.89462 0.0
H108 H 0.63231 0.34526 0.84221 0.0
H109 H 0.61167 0.32759 0.87784 0.0
H110 H 0.67967 0.30808 0.88433 0.0
H111 H 0.66183 0.27221 0.90242 0.0
H112 H 0.65594 0.42021 0.83392 0.0
H113 H 0.63776 0.35434 0.79921 0.0
H114 H 0.59377 0.29158 0.89591 0.0
H115 H 0.63949 0.43774 0.79968 0.0
H116 H 0.62136 0.37187 0.76487 0.0
C117 C 0.86507 0.6525 0.27918 0.0
C118 C 0.88939 0.65404 0.27613 0.0
C119 C 0.85538 0.66302 0.2993 0.0
C120 C 0.86971 0.67534 0.31706 0.0
C121 C 0.89405 0.67696 0.31395 0.0
C122 C 0.90374 0.66649 0.29376 0.0
C123 C 0.85926 0.68634 0.33872 0.0
C124 C 0.83871 0.67537 0.3505 0.0
C125 C 0.82845 0.68556 0.37067 0.0
C126 C 0.83914 0.7071 0.37906 0.0
C127 C 0.85977 0.71837 0.36781 0.0
C128 C 0.86969 0.70782 0.34767 0.0
C129 C 0.87085 0.74117 0.37723 0.0
C130 C 0.85713 0.75777 0.38411 0.0
C131 C 0.89514 0.74636 0.37998 0.0
C132 C 0.90538 0.76743 0.38974 0.0
C133 C 0.89162 0.78395 0.39692 0.0
C134 C 0.80663 0.67374 0.38305 0.0
C135 C 0.78856 0.66136 0.36925 0.0
C136 C 0.80355 0.67494 0.40881 0.0
C137 C 0.78298 0.66429 0.42038 0.0
C138 C 0.76485 0.652 0.40659 0.0
C139 C 0.76799 0.65063 0.38084 0.0
C140 C 0.86736 0.77885 0.39376 0.0
H141 H 0.85345 0.64341 0.2658 0.0
H142 H 0.8366 0.66173 0.30074 0.0
H143 H 0.90567 0.68598 0.32737 0.0
H144 H 0.92253 0.6678 0.29223 0.0
H145 H 0.83098 0.65854 0.34434 0.0
H146 H 0.88521 0.71667 0.33853 0.0
H147 H 0.83138 0.71516 0.39448 0.0
H148 H 0.83842 0.75455 0.38185 0.0
H149 H 0.90623 0.73391 0.37515 0.0
H150 H 0.92406 0.77055 0.39216 0.0
H151 H 0.79014 0.6602 0.34938 0.0
H152 H 0.81714 0.68403 0.42014 0.0
H153 H 0.85619 0.79123 0.39856 0.0
H154 H 0.75461 0.64112 0.36958 0.0
H155 H 0.78118 0.66601 0.44018 0.0
C156 C 0.75596 0.79853 0.75855 0.0
C157 C 0.76351 0.82209 0.75731 0.0
C158 C 0.74055 0.78949 0.77741 0.0
C159 C 0.7324 0.80385 0.79529 0.0
C160 C 0.73909 0.82747 0.79318 0.0
C161 C 0.75435 0.83646 0.77437 0.0
C162 C 0.71891 0.79448 0.81744 0.0
C163 C 0.72561 0.77626 0.82998 0.0
C164 C 0.71585 0.76974 0.85325 0.0
C165 C 0.69901 0.78171 0.86391 0.0
C166 C 0.69228 0.80011 0.85163 0.0
C167 C 0.7017 0.80579 0.8281 0.0
C168 C 0.67795 0.81541 0.86441 0.0
C169 C 0.65733 0.8069 0.8775 0.0
C170 C 0.68536 0.83901 0.86377 0.0
C171 C 0.67241 0.85382 0.87572 0.0
C172 C 0.65171 0.84545 0.88868 0.0
C173 C 0.72581 0.75256 0.86741 0.0
C174 C 0.73249 0.73346 0.85537 0.0
C175 C 0.73124 0.75647 0.89235 0.0
C176 C 0.74429 0.74246 0.90449 0.0
C177 C 0.7524 0.72433 0.89192 0.0
C178 C 0.74571 0.71958 0.86743 0.0
C179 C 0.6442 0.82183 0.8894 0.0
H180 H 0.76276 0.78705 0.74565 0.0
H181 H 0.73554 0.77123 0.77839 0.0
H182 H 0.73347 0.83908 0.80675 0.0
H183 H 0.75954 0.85472 0.77363 0.0
H184 H 0.7398 0.7683 0.82249 0.0
H185 H 0.69636 0.81986 0.81854 0.0
H186 H 0.69202 0.77748 0.88223 0.0
H187 H 0.65126 0.78878 0.8783 0.0
H188 H 0.70139 0.84607 0.85418 0.0
H189 H 0.67852 0.87192 0.87458 0.0
H190 H 0.7283 0.72978 0.83626 0.0
H191 H 0.72654 0.77109 0.90219 0.0
H192 H 0.62835 0.81492 0.89938 0.0
H193 H 0.75169 0.70585 0.85709 0.0
H194 H 0.74869 0.74633 0.92351 0.0
C195 C 0.65713 0.16128 0.39107 0.0
C196 C 0.65272 0.17918 0.37626 0.0
C197 C 0.6698 0.16574 0.41256 0.0
C198 C 0.67814 0.1882 0.41984 0.0
C199 C 0.67286 0.20615 0.4057 0.0
C200 C 0.66032 0.20169 0.38407 0.0
C201 C 0.69353 0.19283 0.44125 0.0
C202 C 0.7124 0.18108 0.4436 0.0
C203 C 0.7279 0.18599 0.46309 0.0
C204 C 0.72413 0.20272 0.48061 0.0
C205 C 0.70546 0.21478 0.47834 0.0
C206 C 0.69019 0.20969 0.45865 0.0
C207 C 0.70233 0.2334 0.49583 0.0
C208 C 0.703 0.23045 0.52141 0.0
C209 C 0.6981 0.25423 0.48681 0.0
C210 C 0.69388 0.27153 0.50298 0.0
C211 C 0.6938 0.26846 0.52859 0.0
C212 C 0.74869 0.17452 0.46416 0.0
C213 C 0.74705 0.1513 0.4582 0.0
C214 C 0.77056 0.18695 0.46997 0.0
C215 C 0.79038 0.17644 0.46956 0.0
C216 C 0.7888 0.15331 0.4632 0.0
C217 C 0.76689 0.14083 0.45764 0.0
C218 C 0.69861 0.2478 0.53769 0.0
H219 H 0.65108 0.14376 0.38584 0.0
H220 H 0.67334 0.15161 0.42335 0.0
H221 H 0.67928 0.22363 0.4108 0.0
H222 H 0.65744 0.21586 0.37297 0.0
H223 H 0.71559 0.16877 0.42952 0.0
H224 H 0.67558 0.21879 0.45692 0.0
H225 H 0.73601 0.20673 0.49571 0.0
H226 H 0.70621 0.2145 0.5288 0.0
H227 H 0.69778 0.25706 0.46717 0.0
H228 H 0.68981 0.28706 0.49532 0.0
H229 H 0.73041 0.14121 0.45385 0.0
H230 H 0.77248 0.20493 0.47433 0.0
H231 H 0.69867 0.24498 0.55734 0.0
H232 H 0.76508 0.12302 0.45249 0.0
H233 H 0.80693 0.18646 0.47433 0.0
C234 C 0.27336 0.65721 0.19483 0.0
C235 C 0.27024 0.65869 0.16931 0.0
C236 C 0.29398 0.66792 0.20583 0.0
C237 C 0.31218 0.68028 0.1916 0.0
C238 C 0.30914 0.68131 0.16599 0.0
C239 C 0.28848 0.67082 0.15507 0.0
C240 C 0.33407 0.69236 0.20326 0.0
C241 C 0.34392 0.68309 0.22353 0.0
C242 C 0.36466 0.69426 0.23421 0.0
C243 C 0.37561 0.71511 0.22418 0.0
C244 C 0.36614 0.72479 0.20397 0.0
C245 C 0.34532 0.71331 0.19393 0.0
C246 C 0.37775 0.74688 0.19311 0.0
C247 C 0.38723 0.76536 0.20815 0.0
C248 C 0.37884 0.74985 0.16741 0.0
C249 C 0.38869 0.77069 0.15707 0.0
C250 C 0.39776 0.78937 0.17207 0.0
C251 C 0.37496 0.68397 0.25562 0.0
C252 C 0.36069 0.67404 0.27516 0.0
C253 C 0.39913 0.68377 0.25665 0.0
C254 C 0.40868 0.67378 0.27647 0.0
C255 C 0.39441 0.6639 0.29604 0.0
C256 C 0.37026 0.66428 0.29511 0.0
C257 C 0.39704 0.78629 0.19779 0.0
H258 H 0.25963 0.64819 0.20644 0.0
H259 H 0.29539 0.66689 0.22561 0.0
H260 H 0.32284 0.69009 0.15418 0.0
H261 H 0.28692 0.67199 0.13532 0.0
H262 H 0.33582 0.66678 0.2306 0.0
H263 H 0.33752 0.72107 0.17902 0.0
H264 H 0.39158 0.72379 0.23211 0.0
H265 H 0.38652 0.76385 0.228 0.0
H266 H 0.37217 0.73594 0.15515 0.0
H267 H 0.38935 0.77206 0.13721 0.0
H268 H 0.34204 0.674 0.27516 0.0
H269 H 0.4107 0.69104 0.24191 0.0
H270 H 0.40356 0.80023 0.21005 0.0
H271 H 0.35865 0.65671 0.30967 0.0
H272 H 0.42735 0.67402 0.27657 0.0
C273 C 0.15694 0.2977 0.67202 0.0
C274 C 0.13261 0.29123 0.6708 0.0
C275 C 0.16665 0.31839 0.68285 0.0
C276 C 0.15239 0.33358 0.69252 0.0
C277 C 0.12804 0.32713 0.69144 0.0
C278 C 0.1183 0.30624 0.68083 0.0
C279 C 0.16303 0.3561 0.70326 0.0
C280 C 0.18391 0.36795 0.69305 0.0
C281 C 0.19475 0.38871 0.7032 0.0
C282 C 0.18408 0.39801 0.72367 0.0
C283 C 0.16299 0.38674 0.73408 0.0
C284 C 0.15266 0.36578 0.72375 0.0
C285 C 0.15187 0.39681 0.75587 0.0
C286 C 0.16539 0.40662 0.77559 0.0
C287 C 0.12765 0.39687 0.75704 0.0
C288 C 0.11729 0.40669 0.77725 0.0
C289 C 0.13083 0.41655 0.79695 0.0
C290 C 0.21732 0.40043 0.69237 0.0
C291 C 0.23483 0.38783 0.68482 0.0
C292 C 0.22148 0.42411 0.68911 0.0
C293 C 0.24245 0.43483 0.67826 0.0
C294 C 0.25988 0.42216 0.67053 0.0
C295 C 0.25577 0.39853 0.67407 0.0
C296 C 0.15501 0.41627 0.79589 0.0
H297 H 0.16867 0.28692 0.66425 0.0
H298 H 0.18545 0.32241 0.68369 0.0
H299 H 0.11641 0.33835 0.69844 0.0
H300 H 0.0995 0.30185 0.68066 0.0
H301 H 0.19162 0.36121 0.67674 0.0
H302 H 0.13688 0.3567 0.73218 0.0
H303 H 0.19224 0.41403 0.73155 0.0
H304 H 0.18404 0.40669 0.77545 0.0
H305 H 0.11672 0.38961 0.74213 0.0
H306 H 0.0986 0.4064 0.77752 0.0
H307 H 0.23239 0.36961 0.68729 0.0
H308 H 0.20834 0.43434 0.69454 0.0
H309 H 0.16602 0.42385 0.8106 0.0
H310 H 0.26862 0.38815 0.66813 0.0
H311 H 0.24507 0.45308 0.67607 0.0
La312 La 0.02651 0.045 0.50655 0.0
La313 La 1.00429 1.0291 0.55538 0.0
C314 C 0.04226 0.06638 0.46849 0.0
C315 C 0.05721 0.08823 0.46363 0.0
C316 C 0.07353 0.09788 0.48098 0.0
C317 C 0.08987 0.11692 0.47507 0.0
C318 C 0.09036 0.12654 0.45158 0.0
C319 C 0.07331 0.11741 0.43461 0.0
C320 C 0.05687 0.09839 0.44062 0.0
C321 C 0.04733 1.01657 0.5308 0.0
C322 C 0.03584 0.0776 0.55373 0.0
C323 C 0.99504 1.01357 0.59776 0.0
C324 C 0.97729 0.99551 0.6076 0.0
C325 C 0.95708 0.98774 0.59436 0.0
C326 C 0.94056 0.97005 0.60344 0.0
C327 C 0.94409 0.95968 0.62581 0.0
C328 C 0.96454 0.96743 0.63886 0.0
C329 C 0.98098 0.98523 0.62981 0.0
C330 C 0.97606 0.04388 0.52466 0.0
C331 C 0.99464 0.99777 0.50823 0.0
O332 O 0.05258 0.05142 0.47929 0.0
O333 O 0.02138 0.06701 0.47785 0.0
O334 O 0.04548 1.01611 0.5071 0.0
O335 O 0.03836 1.03273 0.53981 0.0
O336 O 0.04108 0.07371 0.53029 0.0
O337 O 0.02157 0.06268 0.56696 0.0
O338 O 0.98734 1.03152 0.58959 0.0
O339 O 0.01052 1.0066 0.58274 0.0
O340 O 0.9696 1.02782 0.54032 0.0
O341 O 0.99714 0.05196 0.52783 0.0
O342 O 0.99789 0.99829 0.53235 0.0
O343 O 1.00113 1.01604 0.49457 0.0
H344 H 0.07431 0.09011 0.49872 0.0
H345 H 0.10255 0.1237 0.48867 0.0
H346 H 0.07336 0.12425 0.41626 0.0
H347 H 0.04451 0.09106 0.42694 0.0
H348 H 0.95408 0.99535 0.57699 0.0
H349 H 0.9249 0.96472 0.59309 0.0
H350 H 0.96799 0.95957 0.65592 0.0
H351 H 0.99667 0.99084 0.64005 0.0
La352 La 0.53338 0.04194 0.0549 0.0
La353 La 0.48719 1.02941 1.02705 0.0
C354 C 0.56802 0.0603 0.0789 0.0
C355 C 0.57274 0.0792 0.09667 0.0
C356 C 0.55516 0.08428 0.11303 0.0
C357 C 0.56049 0.10007 0.13209 0.0
C358 C 0.58354 0.11104 0.13517 0.0
C359 C 0.60083 0.10688 0.11783 0.0
C360 C 0.59545 0.09104 0.09875 0.0
C361 C 0.50812 1.00191 0.06474 0.0
C362 C 0.4881 0.06331 0.0713 0.0
C363 C 0.4511 1.00632 1.01004 0.0
C364 C 0.44563 0.99886 0.9847 0.0
C365 C 0.45834 1.01001 0.96495 0.0
C366 C 0.45469 1.0019 0.94092 0.0
C367 C 0.43845 0.98227 0.93618 0.0
C368 C 0.42557 0.97124 0.95605 0.0
C369 C 0.42917 0.97948 0.98015 0.0
C370 C 0.5132 0.06611 1.00702 0.0
C371 C 0.5341 1.01282 1.00718 0.0
O372 O 0.55321 0.04277 0.08652 0.0
O373 O 0.56447 0.06552 0.05614 0.0
O374 O 0.53067 1.00589 0.06341 0.0
O375 O 0.5004 1.02024 0.06128 0.0
O376 O 0.51114 0.06496 0.07119 0.0
O377 O 0.47474 0.04805 0.0578 0.0
O378 O 0.45327 1.0283 1.01427 0.0
O379 O 0.46795 0.99732 1.01962 0.0
O380 O 0.4929 0.05682 0.99939 0.0
O381 O 0.51752 0.05424 1.02472 0.0
O382 O 0.51099 1.00963 1.00801 0.0
O383 O 0.54694 1.02741 1.02189 0.0
H384 H 0.53751 0.07525 0.11184 0.0
H385 H 0.54681 0.10263 0.14524 0.0
H386 H 0.61868 0.11531 0.11952 0.0
H387 H 0.60921 0.0874 0.08621 0.0
H388 H 0.47138 1.02484 0.96812 0.0
H389 H 0.46463 1.01103 0.92605 0.0
H390 H 0.41313 0.95593 0.95307 0.0
H391 H 0.41948 0.97047 0.99526 0.0
La392 La 0.51623 0.51729 0.52054 0.0
La393 La 0.50839 0.55429 0.55484 0.0
C394 C 0.53529 0.48813 0.49736 0.0
C395 C 0.54905 0.47119 0.5059 0.0
C396 C 0.54286 0.44837 0.4988 0.0
C397 C 0.55417 0.43173 0.50873 0.0
C398 C 0.5719 0.43765 0.52594 0.0
C399 C 0.57838 0.46059 0.53264 0.0
C400 C 0.56707 0.47721 0.52273 0.0
C401 C 0.47446 0.51192 0.54169 0.0
C402 C 0.53171 0.51646 0.57748 0.0
C403 C 0.48917 0.58371 0.57722 0.0
C404 C 0.47695 0.60153 0.56759 0.0
C405 C 0.48947 0.62118 0.55676 0.0
C406 C 0.47776 0.6368 0.5455 0.0
C407 C 0.45328 0.63315 0.54483 0.0
C408 C 0.44076 0.61371 0.55603 0.0
C409 C 0.45247 0.59812 0.56738 0.0
C410 C 0.55012 0.55968 0.53348 0.0
C411 C 0.49263 0.55515 0.49803 0.0
O412 O 0.51332 0.48476 0.50434 0.0
O413 O 0.54482 0.50948 0.49969 0.0
O414 O 0.47858 0.50588 0.51915 0.0
O415 O 0.4935 0.51949 0.55176 0.0
O416 O 0.53401 0.50936 0.55434 0.0
O417 O 0.51967 0.53301 0.58282 0.0
O418 O 0.51167 0.58603 0.57278 0.0
O419 O 0.47888 0.56279 0.57349 0.0
O420 O 0.54608 0.56579 0.556 0.0
O421 O 0.53101 0.55214 0.52357 0.0
O422 O 0.49076 0.56251 0.5211 0.0
O423 O 0.50435 0.53836 0.49265 0.0
H424 H 0.52888 0.44335 0.48603 0.0
H425 H 0.54864 0.41416 0.50336 0.0
H426 H 0.59218 0.46571 0.54559 0.0
H427 H 0.57214 0.49469 0.52868 0.0
H428 H 0.50835 0.62439 0.55663 0.0
H429 H 0.48789 0.65186 0.53752 0.0
H430 H 0.42189 0.61034 0.5557 0.0
H431 H 0.44235 0.58312 0.57552 0.0
La432 La 0.0145 0.51155 0.04826 0.0
La433 La 1.0077 0.55928 1.02829 0.0
C434 C 0.03035 0.47606 0.05836 0.0
C435 C 0.05361 0.47072 0.06377 0.0
C436 C 0.06787 0.48354 0.08115 0.0
C437 C 0.08966 0.478 0.08644 0.0
C438 C 0.09763 0.45949 0.07453 0.0
C439 C 0.08349 0.44691 0.05684 0.0
C440 C 0.06167 0.45249 0.05153 0.0
C441 C 0.9891 0.53562 0.07574 0.0
C442 C 0.05465 0.5554 0.05515 0.0
C443 C 0.99221 0.59615 1.02628 0.0
C444 C 0.97472 0.60502 1.01168 0.0
C445 C 0.97782 0.62815 1.00599 0.0
C446 C 0.96042 0.63712 0.9939 0.0
C447 C 0.93953 0.62309 0.9874 0.0
C448 C 0.93685 0.59976 0.99253 0.0
C449 C 0.95428 0.59082 1.00449 0.0
C450 C 0.02643 0.53466 0.99403 0.0
C451 C 0.97012 0.51462 1.01702 0.0
O452 O 0.02107 0.48849 0.07481 0.0
O453 O 0.02734 0.48225 0.03576 0.0
O454 O 0.9853 0.51358 0.07413 0.0
O455 O 1.00714 0.54308 0.06316 0.0
O456 O 0.04828 0.53294 0.0559 0.0
O457 O 0.04097 0.56916 0.0465 0.0
O458 O 0.01136 0.59251 1.01458 0.0
O459 O 0.98392 0.57967 0.04135 0.0
O460 O 0.02102 0.55459 0.99009 0.0
O461 O 0.02082 0.53027 1.01606 0.0
O462 O 0.97497 0.53719 1.01862 0.0
O463 O 0.98423 0.50113 1.02538 0.0
H464 H 0.06213 0.49775 0.09083 0.0
H465 H 0.10026 0.48822 0.0999 0.0
H466 H 0.08901 0.4324 0.04754 0.0
H467 H 0.05095 0.44239 0.03806 0.0
H468 H 0.99351 0.63936 1.01132 0.0
H469 H 0.96324 0.65508 0.98986 0.0
H470 H 0.92093 0.58848 0.98812 0.0
H471 H 0.95147 0.57291 1.00873 0.0
H472 H 0.27196 0.22344 0.33986 0.0
H473 H 0.24325 0.2023 0.36818 0.0
H474 H 0.21145 0.26216 0.38068 0.0
H475 H 0.24019 0.28349 0.35252 0.0
H476 H 0.21619 0.22961 0.42494 0.0
H477 H 0.17298 0.192 0.33999 0.0
H478 H 0.20384 0.19196 0.3422 0.0
H479 H 0.19313 0.2184 0.33976 0.0
C480 C 0.25934 0.2323 0.34927 0.0
C481 C 0.25815 0.25504 0.34384 0.0
C482 C 0.24292 0.22019 0.36533 0.0
C483 C 0.22522 0.2307 0.37627 0.0
C484 C 0.22503 0.25382 0.37236 0.0
H485 H 0.08809 0.16423 0.42399 0.0
H486 H 0.12079 0.19161 0.40805 0.0
C487 C 0.24135 0.26591 0.35621 0.0
C488 C 0.20526 0.21695 0.38907 0.0
H489 H 0.15615 0.1789 0.37796 0.0
C490 C 0.20302 0.2185 0.41478 0.0
C491 C 0.18802 0.20282 0.37558 0.0
C492 C 0.18937 0.20118 0.34783 0.0
C493 C 0.18403 0.20583 0.42746 0.0
C494 C 0.16706 0.19128 0.41398 0.0
C495 C 0.16919 0.19009 0.38823 0.0
C496 C 0.14727 0.17649 0.42605 0.0
C497 C 0.18213 0.20826 0.45509 0.0
C498 C 0.15136 0.15905 0.44154 0.0
C499 C 0.13277 0.14333 0.45053 0.0
C500 C 0.10972 0.14469 0.44408 0.0
C501 C 0.10564 0.16259 0.42909 0.0
C502 C 0.12427 0.1783 0.4201 0.0
H503 H 0.19282 0.2242 0.46183 0.0
H504 H 0.16373 0.20807 0.46122 0.0
H505 H 0.18852 0.19376 0.46375 0.0
H506 H 0.169 0.15701 0.44586 0.0
H507 H 0.13659 0.12952 0.46162 0.0
H508 H 0.35901 0.94286 0.72752 0.0
H509 H 0.37808 0.95516 0.76616 0.0
H510 H 0.42826 0.91016 0.75212 0.0
H511 H 0.40913 0.89772 0.71321 0.0
H512 H 0.40337 0.90545 0.79938 0.0
H513 H 0.44249 0.99464 0.78004 0.0
H514 H 0.41275 0.98724 0.77073 0.0
H515 H 0.43497 0.97364 0.75596 0.0
C516 C 0.37427 0.93579 0.73255 0.0
C517 C 0.38258 0.91929 0.71753 0.0
C518 C 0.38524 0.94295 0.75448 0.0
C519 C 0.40467 0.93371 0.76179 0.0
C520 C 0.41338 0.91759 0.74659 0.0
H521 H 0.47198 0.97996 0.90028 0.0
H522 H 0.46635 0.96687 0.85761 0.0
C523 C 0.40253 0.91057 0.72443 0.0
C524 C 0.4143 0.93951 0.78639 0.0
H525 H 0.43686 0.98457 0.82259 0.0
C526 C 0.41109 0.92265 0.80441 0.0
C527 C 0.42445 0.96191 0.79276 0.0
C528 C 0.4291 0.98039 0.77382 0.0
C529 C 0.41662 0.92792 0.82903 0.0
C530 C 0.42543 0.95062 0.83567 0.0
C531 C 0.42986 0.96722 0.81741 0.0
C532 C 0.42894 0.95772 0.86164 0.0
C533 C 0.41256 0.90931 0.84786 0.0
C534 C 0.4097 0.95702 0.87788 0.0
C535 C 0.41277 0.96476 0.90216 0.0
C536 C 0.43518 0.97336 0.91061 0.0
C537 C 0.45445 0.97379 0.89427 0.0
C538 C 0.45132 0.96618 0.86995 0.0
H539 H 0.41134 0.89221 0.83908 0.0
H540 H 0.42679 0.91142 0.8614 0.0
H541 H 0.39592 0.91016 0.85804 0.0
H542 H 0.39223 0.9509 0.87161 0.0
H543 H 0.39755 0.96451 0.91413 0.0
H544 H 0.58995 0.3902 0.75239 0.0
H545 H 0.5742 0.40789 0.71756 0.0
H546 H 0.62911 0.46541 0.72328 0.0
H547 H 0.64549 0.44751 0.75747 0.0
H548 H 0.55704 0.44731 0.71441 0.0
H549 H 0.63323 0.45053 0.65061 0.0
H550 H 0.63036 0.43415 0.67847 0.0
H551 H 0.64049 0.46428 0.67966 0.0
C552 C 0.59895 0.40646 0.74606 0.0
C553 C 0.61917 0.41726 0.75789 0.0
C554 C 0.58977 0.41668 0.72617 0.0
C555 C 0.60058 0.43791 0.71735 0.0
C556 C 0.62062 0.44884 0.72924 0.0
H557 H 0.53491 0.52894 0.62641 0.0
H558 H 0.55136 0.5099 0.65975 0.0
C559 C 0.62982 0.43865 0.74913 0.0
C560 C 0.59057 0.44884 0.69622 0.0
H561 H 0.60377 0.47168 0.63912 0.0
C562 C 0.56728 0.45256 0.69793 0.0
C563 C 0.60366 0.45543 0.6744 0.0
C564 C 0.62824 0.4507 0.67049 0.0
C565 C 0.55696 0.46303 0.67887 0.0
C566 C 0.57036 0.47051 0.6575 0.0
C567 C 0.59349 0.46631 0.65553 0.0
C568 C 0.56067 0.48248 0.63693 0.0
C569 C 0.53159 0.46551 0.68165 0.0
C570 C 0.561 0.47401 0.61261 0.0
C571 C 0.55177 0.48505 0.59336 0.0
C572 C 0.54204 0.50495 0.59786 0.0
C573 C 0.54204 0.51358 0.62217 0.0
C574 C 0.55134 0.50258 0.64138 0.0
H575 H 0.5222 0.45317 0.695 0.0
H576 H 0.53028 0.48285 0.68869 0.0
H577 H 0.52268 0.46301 0.66374 0.0
H578 H 0.56814 0.45862 0.60853 0.0
H579 H 0.55201 0.47777 0.575 0.0
H580 H 0.87405 0.61189 0.25596 0.0
H581 H 0.89094 0.5932 0.22106 0.0
H582 H 0.94474 0.6515 0.21261 0.0
H583 H 0.928 0.67029 0.24755 0.0
H584 H 0.89788 0.6055 0.17284 0.0
H585 H 0.98301 0.60055 0.21468 0.0
H586 H 0.95849 0.60771 0.23243 0.0
H587 H 0.97619 0.62883 0.21389 0.0
C588 C 0.88942 0.62082 0.24664 0.0
C589 C 0.89969 0.6426 0.25474 0.0
C590 C 0.89912 0.61004 0.2267 0.0
C591 C 0.91937 0.62072 0.21438 0.0
C592 C 0.92948 0.6426 0.22216 0.0
H593 H 1.00265 0.57997 0.0898 0.0
H594 H 0.98509 0.60132 0.12227 0.0
C595 C 0.91985 0.65336 0.24217 0.0
C596 C 0.92962 0.60907 0.19319 0.0
H597 H 0.97926 0.59002 0.1725 0.0
C598 C 0.91566 0.60207 0.17283 0.0
C599 C 0.95285 0.60456 0.19305 0.0
C600 C 0.96847 0.6106 0.21476 0.0
C601 C 0.92431 0.59097 0.15233 0.0
C602 C 0.9475 0.58643 0.15225 0.0
C603 C 0.96152 0.59356 0.1725 0.0
C604 C 0.95739 0.57383 0.13164 0.0
C605 C 0.90867 0.58453 0.13073 0.0
C606 C 0.94772 0.55124 0.12604 0.0
C607 C 0.95773 0.53902 0.1075 0.0
C608 C 0.97764 0.54911 0.09417 0.0
C609 C 0.98719 0.57179 0.0996 0.0
C610 C 0.97722 0.58398 0.11822 0.0
H611 H 0.89395 0.59435 0.13075 0.0
H612 H 0.9186 0.58736 0.11303 0.0
H613 H 0.90124 0.56623 0.1318 0.0
H614 H 0.93271 0.54287 0.1364 0.0
H615 H 0.95008 0.52154 0.10385 0.0
H616 H 0.41986 0.2342 0.18593 0.0
H617 H 0.44064 0.2051 0.16763 0.0
H618 H 0.37562 0.16822 0.14171 0.0
H619 H 0.35479 0.19714 0.15989 0.0
H620 H 0.43509 0.15867 0.17671 0.0
H621 H 0.41652 0.17432 0.07939 0.0
H622 H 0.41211 0.19399 0.10402 0.0
H623 H 0.39079 0.16911 0.09873 0.0
C624 C 0.41001 0.21986 0.17637 0.0
C625 C 0.38571 0.21808 0.17416 0.0
C626 C 0.4219 0.2033 0.16588 0.0
C627 C 0.40972 0.18472 0.15295 0.0
C628 C 0.38544 0.18272 0.15107 0.0
H629 H 0.44147 0.06454 0.07794 0.0
H630 H 0.42328 0.09374 0.09939 0.0
C631 C 0.37356 0.19927 0.16145 0.0
C632 C 0.42226 0.16717 0.14176 0.0
H633 H 0.43201 0.14058 0.08725 0.0
C634 C 0.43459 0.15481 0.15713 0.0
C635 C 0.42163 0.16224 0.1162 0.0
C636 C 0.40975 0.17575 0.09857 0.0
C637 C 0.44573 0.13715 0.14768 0.0
C638 C 0.44466 0.13194 0.12221 0.0
C639 C 0.43262 0.14452 0.10682 0.0
C640 C 0.45581 0.11346 0.11101 0.0
C641 C 0.45804 0.12382 0.16508 0.0
C642 C 0.48014 0.11484 0.11056 0.0
C643 C 0.49063 0.09819 0.09827 0.0
C644 C 0.47697 0.07988 0.08614 0.0
C645 C 0.45255 0.07836 0.08708 0.0
C646 C 0.4421 0.09504 0.09932 0.0
H647 H 0.45292 0.12657 0.18461 0.0
H648 H 0.45423 0.10536 0.16069 0.0
H649 H 0.47715 0.1293 0.16304 0.0
H650 H 0.49105 0.12914 0.1191 0.0
H651 H 0.50947 0.10007 0.0977 0.0
H652 H 0.19244 0.89638 0.57047 0.0
H653 H 0.1564 0.91215 0.56697 0.0
H654 H 0.16597 0.94231 0.63947 0.0
H655 H 0.20265 0.92749 0.64269 0.0
H656 H 0.11463 0.9097 0.59517 0.0
H657 H 0.1664 0.99687 0.59474 0.0
H658 H 0.17993 0.97175 0.59183 0.0
H659 H 0.16917 0.98008 0.62133 0.0
C660 C 0.18689 0.90636 0.58568 0.0
C661 C 0.20063 0.91107 0.60664 0.0
C662 C 0.16617 0.91512 0.58377 0.0
C663 C 0.1588 0.92867 0.6028 0.0
C664 C 0.17161 0.93216 0.62444 0.0
H665 H 0.05877 1.02072 0.57909 0.0
H666 H 0.08172 0.99716 0.60173 0.0
C667 C 0.19246 0.92353 0.62631 0.0
C668 C 0.139 0.94078 0.59872 0.0
H669 H 0.12662 0.99353 0.58714 0.0
C670 C 0.1171 0.92806 0.59377 0.0
C671 C 0.14235 0.96473 0.59697 0.0
C672 C 0.16573 0.97923 0.60131 0.0
C673 C 0.09863 0.93864 0.58618 0.0
C674 C 0.10238 0.96245 0.58322 0.0
C675 C 0.12386 0.97526 0.58949 0.0
C676 C 0.08543 0.97429 0.57105 0.0
C677 C 0.07547 0.92426 0.58087 0.0
C678 C 0.07987 0.9691 0.54639 0.0
C679 C 0.06686 0.98253 0.53344 0.0
C680 C 0.05934 1.00137 0.54498 0.0
C681 C 0.06429 1.00617 0.56986 0.0
C682 C 0.07732 0.99274 0.5828 0.0
H683 H 0.07302 0.9082 0.59139 0.0
H684 H 0.06078 0.93356 0.58545 0.0
H685 H 0.07484 0.91974 0.56097 0.0
H686 H 0.08646 0.95528 0.53682 0.0
H687 H 0.06323 0.97854 0.51426 0.0
H688 H 0.77972 0.45224 0.89514 0.0
H689 H 0.81574 0.47021 0.91452 0.0
H690 H 0.81748 0.40953 0.95587 0.0
H691 H 0.78117 0.3916 0.93724 0.0
H692 H 0.82522 0.47754 0.96667 0.0
H693 H 0.88293 0.42258 0.92148 0.0
H694 H 0.85447 0.42487 0.91008 0.0
H695 H 0.85712 0.40781 0.93649 0.0
C696 C 0.78754 0.4427 0.90854 0.0
C697 C 0.77734 0.42029 0.9144 0.0
C698 C 0.8083 0.45302 0.91951 0.0
C699 C 0.81958 0.44115 0.93643 0.0
C700 C 0.80941 0.41891 0.94252 0.0
H701 H 0.94886 0.46998 1.01811 0.0
H702 H 0.91233 0.45289 0.99914 0.0
C703 C 0.78859 0.40863 0.93171 0.0
C704 C 0.84177 0.4521 0.94797 0.0
H705 H 0.89958 0.44793 0.95252 0.0
C706 C 0.84151 0.47114 0.96349 0.0
C707 C 0.86304 0.4437 0.94398 0.0
C708 C 0.8646 0.42373 0.92696 0.0
C709 C 0.86173 0.48168 0.97552 0.0
C710 C 0.88311 0.4734 0.97141 0.0
C711 C 0.88332 0.45437 0.95578 0.0
C712 C 0.9054 0.48408 0.98316 0.0
C713 C 0.85972 0.50114 0.99315 0.0
C714 C 0.9141 0.50733 0.98036 0.0
C715 C 0.93494 0.51722 0.99142 0.0
C716 C 0.9479 0.50407 1.00528 0.0
C717 C 0.93942 0.48071 1.00765 0.0
C718 C 0.91846 0.47087 0.99676 0.0
H719 H 0.84149 0.50074 1.00001 0.0
H720 H 0.8711 0.50081 1.00921 0.0
H721 H 0.86509 0.51743 0.98344 0.0
H722 H 0.9049 0.51786 0.96936 0.0
H723 H 0.94103 0.53515 0.98877 0.0
H724 H 0.71987 0.6485 0.39034 0.0
H725 H 0.68377 0.63091 0.41116 0.0
H726 H 0.72319 0.6133 0.47204 0.0
H727 H 0.7595 0.63022 0.45116 0.0
H728 H 0.67728 0.5787 0.43774 0.0
H729 H 0.66722 0.65628 0.493 0.0
H730 H 0.6806 0.65828 0.46256 0.0
H731 H 0.6958 0.64871 0.48763 0.0
C732 C 0.72099 0.64061 0.40798 0.0
C733 C 0.74275 0.64088 0.41901 0.0
C734 C 0.70028 0.63066 0.4199 0.0
C735 C 0.70084 0.62086 0.44313 0.0
C736 C 0.72241 0.62085 0.45414 0.0
H737 H 0.59236 0.5763 0.55273 0.0
H738 H 0.62904 0.58962 0.53047 0.0
C739 C 0.74314 0.63071 0.44222 0.0
C740 C 0.67885 0.61107 0.45617 0.0
H741 H 0.63889 0.62393 0.49911 0.0
C742 C 0.6688 0.58853 0.45114 0.0
C743 C 0.66802 0.62392 0.47374 0.0
C744 C 0.6783 0.64819 0.47969 0.0
C745 C 0.6482 0.57841 0.46343 0.0
C746 C 0.63708 0.59137 0.48081 0.0
C747 C 0.6473 0.61395 0.48581 0.0
C748 C 0.61498 0.58195 0.4942 0.0
C749 C 0.63895 0.55375 0.45811 0.0
C750 C 0.59475 0.57309 0.48134 0.0
C751 C 0.5738 0.56525 0.49408 0.0
C752 C 0.57256 0.56644 0.51995 0.0
C753 C 0.59279 0.57517 0.5328 0.0
C754 C 0.61375 0.58283 0.52008 0.0
H755 H 0.65281 0.54463 0.45039 0.0
H756 H 0.63141 0.54492 0.475 0.0
H757 H 0.62505 0.55264 0.4443 0.0
H758 H 0.59498 0.57272 0.4614 0.0
H759 H 0.55843 0.55879 0.48367 0.0
H760 H 0.27859 0.36684 0.12728 0.0
H761 H 0.2545 0.38896 0.10397 0.0
H762 H 0.22476 0.41088 0.17204 0.0
H763 H 0.24894 0.38924 0.19529 0.0
H764 H 0.20612 0.38034 0.10618 0.0
H765 H 0.23737 0.46959 0.13325 0.0
H766 H 0.25444 0.44718 0.13744 0.0
H767 H 0.23173 0.45136 0.15938 0.0
C768 C 0.26738 0.37691 0.13722 0.0
C769 C 0.26554 0.37628 0.16306 0.0
C770 C 0.25358 0.38943 0.12392 0.0
C771 C 0.23804 0.40177 0.13629 0.0
C772 C 0.23695 0.40188 0.16212 0.0
H773 H 0.11495 0.45768 0.12059 0.0
H774 H 0.15118 0.44517 0.13208 0.0
C775 C 0.2506 0.38932 0.17537 0.0
C776 C 0.22097 0.41235 0.12253 0.0
H777 H 0.19806 0.46137 0.11835 0.0
C778 C 0.20462 0.39817 0.10834 0.0
C779 C 0.21905 0.43559 0.12549 0.0
C780 C 0.23674 0.45185 0.13952 0.0
C781 C 0.18553 0.40628 0.09831 0.0
C782 C 0.18302 0.42928 0.10225 0.0
C783 C 0.19999 0.44372 0.11545 0.0
C784 C 0.1619 0.43814 0.09468 0.0
C785 C 0.1675 0.38984 0.08485 0.0
C786 C 0.15612 0.43869 0.06979 0.0
C787 C 0.13537 0.44586 0.06314 0.0
C788 C 0.12017 0.45278 0.08129 0.0
C789 C 0.12638 0.45273 0.10615 0.0
C790 C 0.14705 0.44552 0.11276 0.0
H791 H 0.16974 0.37189 0.08751 0.0
H792 H 0.14962 0.3919 0.09117 0.0
H793 H 0.16908 0.39337 0.06484 0.0
H794 H 0.16757 0.43344 0.05554 0.0
H795 H 0.13124 0.44604 0.04382 0.0
H796 H 0.64238 0.25644 0.93929 0.0
H797 H 0.62507 0.22019 0.95751 0.0
H798 H 0.56775 0.21523 0.90785 0.0
H799 H 0.58525 0.25112 0.88901 0.0
H800 H 0.58227 0.20715 0.98126 0.0
H801 H 0.58886 0.15375 0.89771 0.0
H802 H 0.60418 0.18248 0.90029 0.0
H803 H 0.57376 0.17729 0.89295 0.0
C804 C 0.62623 0.24755 0.93197 0.0
C805 C 0.61539 0.2568 0.91243 0.0
C806 C 0.61624 0.22683 0.94259 0.0
C807 C 0.59524 0.21465 0.93387 0.0
C808 C 0.58418 0.22398 0.91465 0.0
H809 H 0.50223 0.09023 0.96842 0.0
H810 H 0.523 0.12586 0.95197 0.0
C811 C 0.59412 0.24472 0.90405 0.0
C812 C 0.58477 0.19239 0.94506 0.0
H813 H 0.56612 0.13631 0.93124 0.0
C814 C 0.5789 0.19162 0.97035 0.0
C815 C 0.58039 0.17202 0.93095 0.0
C816 C 0.58732 0.17128 0.90403 0.0
C817 C 0.56809 0.17136 0.98165 0.0
C818 C 0.56338 0.15104 0.96744 0.0
C819 C 0.56962 0.15177 0.94223 0.0
C820 C 0.55102 0.12912 0.97792 0.0
C821 C 0.56103 0.17211 1.00853 0.0
C822 C 0.55983 0.11865 0.99795 0.0
C823 C 0.54782 0.09812 1.0075 0.0
C824 C 0.52687 0.08752 0.99714 0.0
C825 C 0.51831 0.09789 0.97693 0.0
C826 C 0.53022 0.11832 0.96744 0.0
H827 H 0.56046 0.18975 1.01514 0.0
H828 H 0.54366 0.16171 1.01196 0.0
H829 H 0.57396 0.1651 1.01961 0.0
H830 H 0.57608 0.12626 1.00613 0.0
H831 H 0.55489 0.09066 1.02299 0.0
H832 H 0.87441 0.8083 0.43463 0.0
H833 H 0.89185 0.84485 0.45228 0.0
H834 H 0.95098 0.84676 0.40245 0.0
H835 H 0.9335 0.81034 0.38432 0.0
H836 H 0.96329 0.85767 0.45155 0.0
H837 H 0.89683 0.9077 0.42069 0.0
H838 H 0.88507 0.88248 0.43729 0.0
H839 H 0.89948 0.88005 0.40793 0.0
C840 C 0.89097 0.81659 0.42711 0.0
C841 C 0.90241 0.8063 0.40786 0.0
C842 C 0.90095 0.83753 0.4373 0.0
C843 C 0.92259 0.84877 0.42848 0.0
C844 C 0.93423 0.83846 0.40952 0.0
H845 H 0.98433 0.98963 0.45944 0.0
H846 H 0.9674 0.95361 0.43998 0.0
C847 C 0.92424 0.81753 0.39926 0.0
C848 C 0.93327 0.87102 0.43937 0.0
H849 H 0.92443 0.92586 0.44916 0.0
C850 C 0.95483 0.87259 0.45096 0.0
C851 C 0.92238 0.8906 0.43837 0.0
C852 C 0.89977 0.89029 0.42522 0.0
C853 C 0.96553 0.89303 0.46197 0.0
C854 C 0.95428 0.91242 0.46165 0.0
C855 C 0.93296 0.91097 0.44962 0.0
C856 C 0.9644 0.93435 0.47363 0.0
C857 C 0.98897 0.89377 0.47358 0.0
C858 C 0.96803 0.93567 0.49912 0.0
C859 C 0.9777 0.95625 0.51032 0.0
C860 C 0.98389 0.97605 0.49631 0.0
C861 C 0.97989 0.97475 0.47082 0.0
C862 C 0.97017 0.95415 0.45965 0.0
H863 H 0.99789 0.87964 0.46677 0.0
H864 H 1.00047 0.91013 0.4698 0.0
H865 H 0.98649 0.89213 0.49383 0.0
H866 H 0.96329 0.92077 0.51041 0.0
H867 H 0.98036 0.95657 0.53 0.0
H868 H 0.37814 0.81889 0.5052 0.0
H869 H 0.39565 0.78694 0.48833 0.0
H870 H 0.34909 0.74087 0.53428 0.0
H871 H 0.33169 0.77235 0.55102 0.0
H872 H 0.41878 0.76248 0.51601 0.0
H873 H 0.34868 0.70334 0.47256 0.0
H874 H 0.34617 0.73273 0.4788 0.0
H875 H 0.3387 0.71159 0.5023 0.0
C876 C 0.37136 0.80185 0.51128 0.0
C877 C 0.35353 0.79814 0.52944 0.0
C878 C 0.38125 0.78363 0.5015 0.0
C879 C 0.37338 0.76145 0.50966 0.0
C880 C 0.35493 0.75768 0.52701 0.0
H881 H 0.41395 0.64842 0.56188 0.0
H882 H 0.39549 0.67858 0.545 0.0
C883 C 0.34504 0.77578 0.5367 0.0
C884 C 0.38668 0.74278 0.50368 0.0
H885 H 0.37836 0.68548 0.49353 0.0
C886 C 0.41021 0.7458 0.51019 0.0
C887 C 0.37555 0.72106 0.49593 0.0
C888 C 0.35094 0.71711 0.48675 0.0
C889 C 0.42212 0.72723 0.51175 0.0
C890 C 0.41016 0.7052 0.50651 0.0
C891 C 0.38736 0.70242 0.49778 0.0
C892 C 0.41964 0.68492 0.51402 0.0
C893 C 0.44671 0.73099 0.5211 0.0
C894 C 0.439 0.67824 0.50178 0.0
C895 C 0.44955 0.66087 0.51133 0.0
C896 C 0.44091 0.65004 0.53329 0.0
C897 C 0.4209 0.65623 0.54484 0.0
C898 C 0.41035 0.67348 0.53524 0.0
H899 H 0.45305 0.74912 0.52565 0.0
H900 H 0.44765 0.72074 0.53782 0.0
H901 H 0.45863 0.7253 0.50687 0.0
H902 H 0.44628 0.68686 0.48528 0.0
H903 H 0.46468 0.65616 0.50175 0.0
H904 H 0.80108 0.8541 0.76681 0.0
H905 H 0.83156 0.87104 0.73812 0.0
H906 H 0.79964 0.82832 0.67943 0.0
H907 H 0.76845 0.81153 0.70814 0.0
H908 H 0.86294 0.8487 0.70897 0.0
H909 H 0.80638 0.89413 0.65262 0.0
H910 H 0.79719 0.88316 0.68268 0.0
H911 H 0.79772 0.86407 0.65689 0.0
C912 C 0.80033 0.84846 0.74774 0.0
C913 C 0.78216 0.83174 0.73963 0.0
C914 C 0.81789 0.858 0.73143 0.0
C915 C 0.8177 0.85107 0.70666 0.0
C916 C 0.79989 0.83407 0.69846 0.0
H917 H 0.9182 0.92463 0.60033 0.0
H918 H 0.88801 0.89493 0.61689 0.0
C919 C 0.78222 0.82442 0.71487 0.0
C920 C 0.83624 0.86215 0.68979 0.0
H921 H 0.84676 0.90237 0.64519 0.0
C922 C 0.85941 0.86013 0.6947 0.0
C923 C 0.83151 0.87694 0.67115 0.0
C924 C 0.8069 0.87991 0.66546 0.0
C925 C 0.87806 0.87341 0.6823 0.0
C926 C 0.87335 0.88924 0.66481 0.0
C927 C 0.85022 0.89023 0.65872 0.0
C928 C 0.89204 0.90656 0.65468 0.0
C929 C 0.90267 0.87093 0.68857 0.0
C930 C 0.90399 0.92303 0.67047 0.0
C931 C 0.92096 0.94014 0.6611 0.0
C932 C 0.92633 0.94112 0.63572 0.0
C933 C 0.91431 0.92452 0.61993 0.0
C934 C 0.89719 0.90745 0.62934 0.0
H935 H 0.90343 0.85406 0.69664 0.0
H936 H 0.91436 0.87316 0.67201 0.0
H937 H 0.90935 0.88416 0.70236 0.0
H938 H 0.89985 0.92289 0.69003 0.0
H939 H 0.9295 0.95289 0.67372 0.0
H940 H 0.62037 0.20115 0.35468 0.0
H941 H 0.60372 0.19378 0.31368 0.0
H942 H 0.64349 0.1392 0.3022 0.0
H943 H 0.6605 0.14663 0.34264 0.0
H944 H 0.62924 0.19408 0.26716 0.0
H945 H 0.57576 0.11038 0.28641 0.0
H946 H 0.58647 0.13028 0.31054 0.0
H947 H 0.60532 0.11247 0.2962 0.0
C948 C 0.62556 0.18759 0.34339 0.0
C949 C 0.64161 0.17433 0.35202 0.0
C950 C 0.61597 0.18337 0.32007 0.0
C951 C 0.62213 0.16574 0.30518 0.0
C952 C 0.63814 0.15256 0.31369 0.0
H953 H 0.62158 0.11034 0.16332 0.0
H954 H 0.62915 0.12766 0.2039 0.0
C955 C 0.64777 0.15678 0.33687 0.0
C956 C 0.61271 0.16139 0.28025 0.0
H957 H 0.58487 0.11892 0.24384 0.0
C958 C 0.61909 0.17786 0.2621 0.0
C959 C 0.59941 0.14024 0.27382 0.0
C960 C 0.59113 0.1224 0.29282 0.0
C961 C 0.61372 0.1731 0.2373 0.0
C962 C 0.6017 0.15146 0.23076 0.0
C963 C 0.59422 0.13547 0.24906 0.0
C964 C 0.59861 0.14416 0.20487 0.0
C965 C 0.62184 0.19064 0.218 0.0
C966 C 0.57918 0.14823 0.19192 0.0
C967 C 0.57485 0.13848 0.16855 0.0
C968 C 0.58987 0.12446 0.15795 0.0
C969 C 0.60987 0.12133 0.1707 0.0
C970 C 0.61416 0.13107 0.19397 0.0
H971 H 0.63021 0.20704 0.22618 0.0
H972 H 0.63453 0.18418 0.20519 0.0
H973 H 0.60681 0.19368 0.20698 0.0
H974 H 0.56699 0.15827 0.20022 0.0
H975 H 0.55941 0.14137 0.15909 0.0
H976 H 0.38353 0.66665 0.34558 0.0
H977 H 0.40035 0.64926 0.37999 0.0
H978 H 0.44467 0.61873 0.32902 0.0
H979 H 0.42828 0.63645 0.29465 0.0
H980 H 0.4007 0.60681 0.39256 0.0
H981 H 0.4925 0.64624 0.37652 0.0
H982 H 0.4688 0.65524 0.3605 0.0
H983 H 0.48071 0.63054 0.35006 0.0
C984 C 0.39688 0.65624 0.34166 0.0
C985 C 0.40463 0.65317 0.31722 0.0
C986 C 0.40656 0.64631 0.36143 0.0
C987 C 0.42425 0.63297 0.35739 0.0
C988 C 0.43166 0.62951 0.33294 0.0
H989 H 0.49663 0.54815 0.44803 0.0
H990 H 0.47977 0.56722 0.41492 0.0
C991 C 0.42217 0.63962 0.31319 0.0
C992 C 0.43444 0.62225 0.37861 0.0
H993 H 0.48597 0.61558 0.40486 0.0
C994 C 0.41935 0.60893 0.3953 0.0
C995 C 0.45881 0.62494 0.38251 0.0
C996 C 0.47612 0.64021 0.3666 0.0
C997 C 0.42788 0.5979 0.41515 0.0
C998 C 0.45222 0.60022 0.41866 0.0
C999 C 0.46732 0.61363 0.40215 0.0
C1000 C 0.46237 0.58864 0.43914 0.0
C1001 C 0.41078 0.58336 0.43192 0.0
C1002 C 0.45848 0.5944 0.46395 0.0
C1003 C 0.46822 0.58357 0.48302 0.0
C1004 C 0.48208 0.56662 0.47778 0.0
C1005 C 0.48599 0.56098 0.45289 0.0
C1006 C 0.47638 0.57193 0.43385 0.0
H1007 H 0.39314 0.57956 0.42395 0.0
H1008 H 0.41694 0.56709 0.43574 0.0
H1009 H 0.40931 0.59246 0.44974 0.0
H1010 H 0.44806 0.60746 0.46859 0.0
H1011 H 0.46488 0.58852 0.50189 0.0
H1012 H 0.0971 0.44396 0.79638 0.0
H1013 H 0.07959 0.46196 0.83138 0.0
H1014 H 0.12166 0.43113 0.88114 0.0
H1015 H 0.13947 0.41332 0.84618 0.0
H1016 H 0.054 0.44446 0.87053 0.0
H1017 H 0.13539 0.49626 0.90386 0.0
H1018 H 0.13397 0.48174 0.87442 0.0
H1019 H 0.13665 0.46642 0.9022 0.0
C1020 C 0.1026 0.44093 0.81477 0.0
C1021 C 0.11984 0.42727 0.81839 0.0
C1022 C 0.0926 0.45131 0.83481 0.0
C1023 C 0.09956 0.44832 0.85898 0.0
C1024 C 0.11643 0.4343 0.86269 0.0
H1025 H 0.05314 0.50128 1.0011 0.0
H1026 H 0.07004 0.4785 0.9693 0.0
C1027 C 0.12657 0.42405 0.84265 0.0
C1028 C 0.08883 0.45957 0.8802 0.0
H1029 H 0.10146 0.49615 0.92906 0.0
C1030 C 0.06443 0.45577 0.88328 0.0
C1031 C 0.10235 0.47434 0.89699 0.0
C1032 C 0.12851 0.48014 0.89413 0.0
C1033 C 0.05324 0.46625 0.90255 0.0
C1034 C 0.06674 0.48111 0.91917 0.0
C1035 C 0.09113 0.48465 0.9164 0.0
C1036 C 0.05578 0.49411 0.93868 0.0
C1037 C 0.02702 0.46124 0.90507 0.0
C1038 C 0.04233 0.51056 0.93211 0.0
C1039 C 0.03266 0.52345 0.95022 0.0
C1040 C 0.03605 0.52007 0.97533 0.0
C1041 C 0.04956 0.50366 0.98197 0.0
C1042 C 0.05944 0.49086 0.96379 0.0
H1043 H 0.01973 0.44541 0.89503 0.0
H1044 H 0.0214 0.45959 0.92474 0.0
H1045 H 0.0195 0.47548 0.89725 0.0
H1046 H 0.03962 0.51371 0.91289 0.0
H1047 H 0.02254 0.53616 0.94454 0.0
H1048 H 0.60449 0.84511 0.8884 0.0
H1049 H 0.58289 0.87393 0.90611 0.0
H1050 H 0.64677 0.91091 0.93463 0.0
H1051 H 0.66837 0.8823 0.91708 0.0
H1052 H 0.57891 0.88952 0.95493 0.0
H1053 H 0.62142 0.95871 0.89434 0.0
H1054 H 0.62315 0.92917 0.88819 0.0
H1055 H 0.64172 0.94498 0.91059 0.0
C1056 C 0.61385 0.85927 0.89867 0.0
C1057 C 0.63815 0.86161 0.90111 0.0
C1058 C 0.60153 0.87576 0.90864 0.0
C1059 C 0.61335 0.89481 0.92113 0.0
C1060 C 0.63744 0.89667 0.92444 0.0
H1061 H 0.58076 1.01031 1.00326 0.0
H1062 H 0.59899 0.98184 0.98044 0.0
C1063 C 0.64973 0.88029 0.91447 0.0
C1064 C 0.60061 0.91275 0.93093 0.0
H1065 H 0.5993 0.96975 0.92879 0.0
C1066 C 0.58315 0.90702 0.94905 0.0
C1067 C 0.60621 0.93555 0.92314 0.0
C1068 C 0.62399 0.94248 0.90282 0.0
C1069 C 0.57172 0.92366 0.9603 0.0
C1070 C 0.57771 0.94653 0.95289 0.0
C1071 C 0.59484 0.9522 0.93443 0.0
C1072 C 0.56687 0.9649 0.96475 0.0
C1073 C 0.55388 0.91679 0.98058 0.0
C1074 C 0.54293 0.96523 0.96273 0.0
C1075 C 0.53244 0.98148 0.97569 0.0
C1076 C 0.54575 0.99772 0.99087 0.0
C1077 C 0.56997 0.99802 0.99183 0.0
C1078 C 0.58043 0.98175 0.97883 0.0
H1079 H 0.55483 0.89956 0.98756 0.0
H1080 H 0.55631 0.9291 0.99623 0.0
H1081 H 0.53615 0.91666 0.9734 0.0
H1082 H 0.53228 0.95262 0.95154 0.0
H1083 H 0.51378 0.98085 0.97432 0.0
H1084 H 0.83273 0.17065 0.44611 0.0
H1085 H 0.86792 0.15299 0.44758 0.0
H1086 H 0.82777 0.09323 0.47997 0.0
H1087 H 0.79269 0.11088 0.47922 0.0
H1088 H 0.8852 0.13808 0.49249 0.0
H1089 H 0.86688 0.06805 0.42382 0.0
H1090 H 0.85231 0.09268 0.42408 0.0
H1091 H 0.8432 0.06997 0.44526 0.0
C1092 C 0.83138 0.15375 0.45356 0.0
C1093 C 0.8099 0.14219 0.46263 0.0
C1094 C 0.85144 0.14364 0.45415 0.0
C1095 C 0.85028 0.12172 0.4635 0.0
C1096 C 0.82886 0.10997 0.47214 0.0
H1097 H 0.9299 1.02919 0.51913 0.0
H1098 H 0.90172 0.04933 0.49989 0.0
C1099 C 0.80884 0.1201 0.47171 0.0
C1100 C 0.87173 0.11186 0.46659 0.0
H1101 H 0.89641 0.06483 0.45305 0.0
C1102 C 0.88798 0.1223 0.48354 0.0
C1103 C 0.87513 0.09129 0.45485 0.0
C1104 C 0.85857 0.07991 0.4358 0.0
C1105 C 0.90684 0.11193 0.49033 0.0
C1106 C 0.90977 0.09086 0.47932 0.0
C1107 C 0.89411 0.08099 0.46144 0.0
C1108 C 0.92741 0.07772 0.48806 0.0
C1109 C 0.92256 0.12295 0.51035 0.0
C1110 C 0.95126 0.0867 0.48711 0.0
C1111 C 0.96734 0.07536 0.49842 0.0
C1112 C 0.95979 0.05473 0.51044 0.0
C1113 C 0.93612 0.04515 0.51011 0.0
C1114 C 0.92005 0.05658 0.49904 0.0
H1115 H 0.91499 0.13654 0.52038 0.0
H1116 H 0.92594 0.11017 0.52389 0.0
H1117 H 0.93952 0.13073 0.50201 0.0
H1118 H 0.95732 0.1028 0.47832 0.0
H1119 H 0.98549 0.08313 0.4985 0.0
H1120 H 0.24467 0.61639 0.17769 0.0
H1121 H 0.20892 0.59852 0.15758 0.0
H1122 H 0.20933 0.65882 0.11474 0.0
H1123 H 0.24526 0.6765 0.13435 0.0
H1124 H 0.16628 0.6086 0.15634 0.0
H1125 H 0.20165 0.6124 0.06073 0.0
H1126 H 0.2201 0.61861 0.08698 0.0
H1127 H 0.20476 0.63995 0.07512 0.0
C1128 C 0.23715 0.62585 0.16399 0.0
C1129 C 0.24806 0.64784 0.1575 0.0
C1130 C 0.21669 0.61558 0.15241 0.0
C1131 C 0.20654 0.62702 0.1341 0.0
C1132 C 0.2171 0.64921 0.12811 0.0
H1133 H 0.07595 0.60011 0.05457 0.0
H1134 H 0.11267 0.61693 0.07352 0.0
C1135 C 0.23767 0.65939 0.13946 0.0
C1136 C 0.18468 0.616 0.12178 0.0
H1137 H 0.16027 0.60309 0.06543 0.0
C1138 C 0.1651 0.60727 0.13646 0.0
C1139 C 0.18293 0.61407 0.09576 0.0
C1140 C 0.20355 0.62154 0.07874 0.0
C1141 C 0.14391 0.59724 0.12595 0.0
C1142 C 0.14209 0.59577 0.10002 0.0
C1143 C 0.1616 0.60436 0.0853 0.0
C1144 C 0.12006 0.58531 0.08791 0.0
C1145 C 0.12338 0.58861 0.14265 0.0
C1146 C 0.11212 0.56184 0.08926 0.0
C1147 C 0.09122 0.55211 0.07823 0.0
C1148 C 0.07759 0.56561 0.0657 0.0
C1149 C 0.08582 0.58911 0.0641 0.0
C1150 C 0.10686 0.5988 0.07493 0.0
H1151 H 0.1263 0.59442 0.16203 0.0
H1152 H 0.10733 0.59434 0.13614 0.0
H1153 H 0.12038 0.56976 0.14224 0.0
H1154 H 0.12211 0.55102 0.0989 0.0
H1155 H 0.08564 0.534 0.07982 0.0
H1156 H 0.30422 0.41323 0.67718 0.0
H1157 H 0.34034 0.43035 0.65624 0.0
H1158 H 0.30232 0.47349 0.61573 0.0
H1159 H 0.26605 0.45637 0.63651 0.0
H1160 H 0.35119 0.43033 0.60688 0.0
H1161 H 0.3565 0.5189 0.64176 0.0
H1162 H 0.33714 0.49545 0.65538 0.0
H1163 H 0.32939 0.50794 0.62748 0.0
C1164 C 0.30348 0.42635 0.6638 0.0
C1165 C 0.28213 0.43338 0.65857 0.0
C1166 C 0.32421 0.4362 0.65191 0.0
C1167 C 0.32418 0.45344 0.63461 0.0
C1168 C 0.30294 0.46061 0.62941 0.0
H1169 H 0.43297 0.49221 0.5227 0.0
H1170 H 0.3964 0.47876 0.54513 0.0
C1171 C 0.28217 0.45077 0.64132 0.0
C1172 C 0.34619 0.4631 0.62127 0.0
H1173 H 0.38324 0.51256 0.60948 0.0
C1174 C 0.3582 0.44831 0.60751 0.0
C1175 C 0.35554 0.48653 0.62228 0.0
C1176 C 0.34413 0.50313 0.6377 0.0
C1177 C 0.37905 0.45629 0.5945 0.0
C1178 C 0.38802 0.47981 0.59487 0.0
C1179 C 0.37624 0.49458 0.60895 0.0
C1180 C 0.40981 0.48925 0.58105 0.0
C1181 C 0.39151 0.43935 0.58082 0.0
C1182 C 0.42931 0.50041 0.59362 0.0
C1183 C 0.45022 0.50823 0.5808 0.0
C1184 C 0.45197 0.50515 0.55513 0.0
C1185 C 0.43221 0.49467 0.54249 0.0
C1186 C 0.41133 0.48686 0.55531 0.0
H1187 H 0.38584 0.42179 0.58753 0.0
H1188 H 0.38754 0.43954 0.56096 0.0
H1189 H 0.41069 0.44374 0.58273 0.0
H1190 H 0.42854 0.50257 0.61345 0.0
H1191 H 0.46514 0.51628 0.59104 0.0
H1192 H 0.78844 0.7414 0.92179 0.0
H1193 H 0.81816 0.72151 0.93821 0.0
H1194 H 0.78569 0.65919 0.90383 0.0
H1195 H 0.75525 0.67875 0.88787 0.0
H1196 H 0.81071 0.67789 0.96832 0.0
H1197 H 0.85674 0.67354 0.87752 0.0
H1198 H 0.83771 0.69417 0.88409 0.0
H1199 H 0.82558 0.66496 0.87891 0.0
C1200 C 0.7872 0.72335 0.91814 0.0
C1201 C 0.76936 0.7117 0.90349 0.0
C1202 C 0.80435 0.71208 0.92739 0.0
C1203 C 0.80417 0.68901 0.92199 0.0
C1204 C 0.78619 0.6771 0.90792 0.0
H1205 H 0.90986 0.60465 0.95116 0.0
H1206 H 0.87616 0.61948 0.93569 0.0
C1207 C 0.76888 0.68833 0.89878 0.0
C1208 C 0.82321 0.67766 0.93073 0.0
H1209 H 0.87305 0.6585 0.91155 0.0
C1210 C 0.82431 0.67352 0.95596 0.0
C1211 C 0.84076 0.67194 0.91444 0.0
C1212 C 0.84038 0.67641 0.88721 0.0
C1213 C 0.84265 0.66382 0.96542 0.0
C1214 C 0.86068 0.65876 0.94925 0.0
C1215 C 0.85929 0.66249 0.92391 0.0
C1216 C 0.88135 0.64998 0.95834 0.0
C1217 C 0.84237 0.65883 0.99259 0.0
C1218 C 0.89576 0.66246 0.97578 0.0
C1219 C 0.91485 0.65391 0.98488 0.0
C1220 C 0.92012 0.63283 0.97648 0.0
C1221 C 0.90608 0.62074 0.95837 0.0
C1222 C 0.88689 0.62925 0.94938 0.0
H1223 H 0.82444 0.65712 1.0007 0.0
H1224 H 0.84949 0.64299 0.99605 0.0
H1225 H 0.85328 0.67309 1.00228 0.0
H1226 H 0.89216 0.67877 0.9825 0.0
H1227 H 0.92512 0.66361 0.99895 0.0
H1228 H 0.43561 0.82036 0.18685 0.0
H1229 H 0.4518 0.85671 0.16817 0.0
H1230 H 0.39914 0.84589 0.11287 0.0
H1231 H 0.3826 0.80972 0.13158 0.0
H1232 H 0.44319 0.86004 0.09283 0.0
H1233 H 0.42612 0.91668 0.17085 0.0
H1234 H 0.44208 0.8946 0.17912 0.0
H1235 H 0.41258 0.88728 0.16896 0.0
C1236 C 0.4272 0.82579 0.17094 0.0
C1237 C 0.40768 0.81188 0.16086 0.0
C1238 C 0.43653 0.84668 0.16023 0.0
C1239 C 0.42657 0.85432 0.13923 0.0
C1240 C 0.40718 0.84047 0.12906 0.0
H1241 H 0.46158 0.99254 0.07856 0.0
H1242 H 0.44044 0.95678 0.09546 0.0
C1243 C 0.39781 0.81963 0.13976 0.0
C1244 C 0.43673 0.87635 0.12741 0.0
H1245 H 0.45075 0.93362 0.13824 0.0
C1246 C 0.44472 0.87612 0.10277 0.0
C1247 C 0.43848 0.8975 0.14012 0.0
C1248 C 0.42917 0.89917 0.16614 0.0
C1249 C 0.45496 0.89621 0.09082 0.0
C1250 C 0.45756 0.91722 0.10384 0.0
C1251 C 0.44895 0.91757 0.12824 0.0
C1252 C 0.46997 0.93879 0.09278 0.0
C1253 C 0.46281 0.89476 0.06423 0.0
C1254 C 0.4936 0.94072 0.08566 0.0
C1255 C 0.50565 0.96108 0.07612 0.0
C1256 C 0.49443 0.9801 0.07344 0.0
C1257 C 0.47069 0.97817 0.08029 0.0
C1258 C 0.45863 0.95776 0.09003 0.0
H1259 H 0.45387 0.8791 0.05501 0.0
H1260 H 0.45945 0.90974 0.05384 0.0
H1261 H 0.48183 0.89435 0.06338 0.0
H1262 H 0.50291 0.92657 0.08793 0.0
H1263 H 0.52394 0.96199 0.07111 0.0
H1264 H 0.14922 0.25042 0.6709 0.0
H1265 H 0.13365 0.215 0.64998 0.0
H1266 H 0.07611 0.24527 0.62454 0.0
H1267 H 0.09245 0.28133 0.64386 0.0
H1268 H 0.09539 0.18644 0.65593 0.0
H1269 H 0.09596 0.2191 0.56116 0.0
H1270 H 0.10987 0.23592 0.58614 0.0
H1271 H 0.07892 0.23372 0.58203 0.0
C1272 C 0.13351 0.24982 0.66044 0.0
C1273 C 0.12237 0.26908 0.65894 0.0
C1274 C 0.12446 0.22935 0.64866 0.0
C1275 C 0.10391 0.22743 0.63516 0.0
C1276 C 0.09234 0.24638 0.63419 0.0
H1277 H 0.02084 0.09701 0.59591 0.0
H1278 H 0.03725 0.13304 0.61531 0.0
C1279 C 0.10155 0.26697 0.6457 0.0
C1280 C 0.09439 0.20545 0.62271 0.0
H1281 H 0.07513 0.18179 0.56765 0.0
C1282 C 0.09108 0.18545 0.63659 0.0
C1283 C 0.08912 0.20392 0.59733 0.0
C1284 C 0.09388 0.22427 0.58074 0.0
C1285 C 0.08241 0.16418 0.62599 0.0
C1286 C 0.07603 0.16282 0.60092 0.0
C1287 C 0.07968 0.18276 0.58693 0.0
C1288 C 0.06573 0.14093 0.5888 0.0
C1289 C 0.0808 0.14333 0.64172 0.0
C1290 C 0.07559 0.13359 0.56679 0.0
C1291 C 0.06592 0.11311 0.55533 0.0
C1292 C 0.0462 0.09942 0.56568 0.0
C1293 C 0.03623 0.10691 0.58759 0.0
C1294 C 0.04572 0.12751 0.59883 0.0
H1295 H 0.09313 0.14617 0.65719 0.0
H1296 H 0.06292 0.13929 0.6498 0.0
H1297 H 0.08457 0.12842 0.63074 0.0
H1298 H 0.09095 0.14362 0.55854 0.0
H1299 H 0.0741 0.1079 0.53855 0.0
H1300 H 0.70708 0.31434 0.52596 0.0
H1301 H 0.68673 0.34305 0.54462 0.0
H1302 H 0.64409 0.2917 0.58817 0.0
H1303 H 0.66362 0.26257 0.56832 0.0
H1304 H 0.61778 0.31143 0.56225 0.0
H1305 H 0.6787 0.38034 0.60378 0.0
H1306 H 0.69083 0.37436 0.57427 0.0
H1307 H 0.68681 0.35273 0.59761 0.0
C1308 C 0.69377 0.30922 0.53998 0.0
C1309 C 0.68656 0.28616 0.54523 0.0
C1310 C 0.68238 0.32576 0.55103 0.0
C1311 C 0.66387 0.31964 0.56797 0.0
C1312 C 0.65834 0.29686 0.5752 0.0
H1313 H 0.58402 0.4338 0.57403 0.0
H1314 H 0.60361 0.40437 0.59153 0.0
C1315 C 0.6696 0.28021 0.5639 0.0
C1316 C 0.64743 0.33585 0.57328 0.0
H1317 H 0.64696 0.3928 0.57935 0.0
C1318 C 0.62404 0.32908 0.5669 0.0
C1319 C 0.65517 0.35884 0.57987 0.0
C1320 C 0.67922 0.36683 0.58954 0.0
C1321 C 0.60912 0.34504 0.564 0.0
C1322 C 0.61799 0.36836 0.56699 0.0
C1323 C 0.6404 0.37492 0.57632 0.0
C1324 C 0.60565 0.38598 0.55709 0.0
C1325 C 0.58438 0.33686 0.55633 0.0
C1326 C 0.6008 0.38558 0.53189 0.0
C1327 C 0.5898 0.40231 0.52186 0.0
C1328 C 0.5836 0.41993 0.53679 0.0
C1329 C 0.58874 0.42049 0.56203 0.0
C1330 C 0.59978 0.40367 0.57209 0.0
H1331 H 0.5779 0.31963 0.56356 0.0
H1332 H 0.57246 0.34862 0.56291 0.0
H1333 H 0.58385 0.33576 0.53592 0.0
H1334 H 0.60583 0.37244 0.51985 0.0
H1335 H 0.58654 0.40166 0.50229 0.0
loop_
_geom_bond_atom_site_label_1
_geom_bond_atom_site_label_2
_geom_bond_distance
_geom_bond_site_symmetry_2
_ccdc_geom_bond_type
C0 C1 1.386 . S
C0 C2 1.397 . S
C0 H24 0.931 . S
C1 C0 1.386 . S
C1 C5 1.397 . S
C2 C0 1.397 . S
C2 C3 1.384 . S
C2 H25 0.930 . S
C3 C2 1.384 . S
C3 C4 1.377 . S
C3 C6 1.481 . S
C4 C3 1.377 . S
C4 C5 1.389 . S
C4 H26 0.929 . S
C5 C1 1.397 . S
C5 C4 1.389 . S
C5 H27 0.931 . S
C6 C3 1.481 . S
C6 C7 1.387 . S
C6 C11 1.390 . S
C7 C6 1.387 . S
C7 C8 1.401 . S
C7 H28 0.930 . S
C8 C7 1.401 . S
C8 C9 1.376 . S
C8 C17 1.511 . S
C9 C8 1.376 . S
C9 C10 1.392 . S
C9 H30 0.931 . S
C10 C9 1.392 . S
C10 C11 1.361 . S
C10 C12 1.500 . S
C11 C6 1.390 . S
C11 C10 1.361 . S
C11 H29 0.931 . S
C12 C10 1.500 . S
C12 C13 1.371 . S
C12 C14 1.365 . S
C13 C12 1.371 . S
C13 C23 1.386 . S
C13 H31 0.931 . S
C14 C12 1.365 . S
C14 C15 1.409 . S
C14 H32 0.929 . S
C15 C14 1.409 . S
C15 C16 1.380 . S
C15 H33 0.930 . S
C16 C15 1.380 . S
C16 C23 1.357 . S
C17 C8 1.511 . S
C17 C18 1.341 . S
C17 C19 1.371 . S
C18 C17 1.341 . S
C18 C22 1.394 . S
C18 H34 0.930 . S
C19 C17 1.371 . S
C19 C20 1.392 . S
C19 H35 0.931 . S
C20 C19 1.392 . S
C20 C21 1.331 . S
C20 H38 0.932 . S
C21 C20 1.331 . S
C21 C22 1.336 . S
C22 C18 1.394 . S
C22 C21 1.336 . S
C22 H37 0.929 . S
C23 C13 1.386 . S
C23 C16 1.357 . S
C23 H36 0.928 . S
H24 C0 0.931 . S
H25 C2 0.930 . S
H26 C4 0.929 . S
H27 C5 0.931 . S
H28 C7 0.930 . S
H29 C11 0.931 . S
H30 C9 0.931 . S
H31 C13 0.931 . S
H32 C14 0.929 . S
H33 C15 0.930 . S
H34 C18 0.930 . S
H35 C19 0.931 . S
H36 C23 0.928 . S
H37 C22 0.929 . S
H38 C20 0.932 . S
C39 C40 1.386 . S
C39 C41 1.397 . S
C39 H63 0.931 . S
C40 C39 1.386 . S
C40 C44 1.397 . S
C41 C39 1.397 . S
C41 C42 1.384 . S
C41 H64 0.930 . S
C42 C41 1.384 . S
C42 C43 1.377 . S
C42 C45 1.481 . S
C43 C42 1.377 . S
C43 C44 1.389 . S
C43 H65 0.929 . S
C44 C40 1.397 . S
C44 C43 1.389 . S
C44 H66 0.931 . S
C45 C42 1.481 . S
C45 C46 1.387 . S
C45 C50 1.390 . S
C46 C45 1.387 . S
C46 C47 1.401 . S
C46 H67 0.930 . S
C47 C46 1.401 . S
C47 C48 1.376 . S
C47 C56 1.511 . S
C48 C47 1.376 . S
C48 C49 1.392 . S
C48 H69 0.931 . S
C49 C48 1.392 . S
C49 C50 1.361 . S
C49 C51 1.500 . S
C50 C45 1.390 . S
C50 C49 1.361 . S
C50 H68 0.931 . S
C51 C49 1.500 . S
C51 C52 1.371 . S
C51 C53 1.365 . S
C52 C51 1.371 . S
C52 C62 1.386 . S
C52 H70 0.931 . S
C53 C51 1.365 . S
C53 C54 1.409 . S
C53 H71 0.929 . S
C54 C53 1.409 . S
C54 C55 1.380 . S
C54 H72 0.930 . S
C55 C54 1.380 . S
C55 C62 1.357 . S
C56 C47 1.511 . S
C56 C57 1.341 . S
C56 C58 1.371 . S
C57 C56 1.341 . S
C57 C61 1.394 . S
C57 H73 0.930 . S
C58 C56 1.371 . S
C58 C59 1.392 . S
C58 H74 0.931 . S
C59 C58 1.392 . S
C59 C60 1.331 . S
C59 H77 0.932 . S
C60 C59 1.331 . S
C60 C61 1.336 . S
C61 C57 1.394 . S
C61 C60 1.336 . S
C61 H76 0.929 . S
C62 C52 1.386 . S
C62 C55 1.357 . S
C62 H75 0.928 . S
H63 C39 0.931 . S
H64 C41 0.930 . S
H65 C43 0.929 . S
H66 C44 0.931 . S
H67 C46 0.930 . S
H68 C50 0.931 . S
H69 C48 0.931 . S
H70 C52 0.931 . S
H71 C53 0.929 . S
H72 C54 0.930 . S
H73 C57 0.930 . S
H74 C58 0.931 . S
H75 C62 0.928 . S
H76 C61 0.929 . S
H77 C59 0.932 . S
C78 C79 1.386 . S
C78 C80 1.397 . S
C78 H102 0.931 . S
C79 C78 1.386 . S
C79 C83 1.397 . S
C80 C78 1.397 . S
C80 C81 1.384 . S
C80 H103 0.930 . S
C81 C80 1.384 . S
C81 C82 1.377 . S
C81 C84 1.481 . S
C82 C81 1.377 . S
C82 C83 1.389 . S
C82 H104 0.929 . S
C83 C79 1.397 . S
C83 C82 1.389 . S
C83 H105 0.931 . S
C84 C81 1.481 . S
C84 C85 1.387 . S
C84 C89 1.390 . S
C85 C84 1.387 . S
C85 C86 1.401 . S
C85 H106 0.930 . S
C86 C85 1.401 . S
C86 C87 1.376 . S
C86 C95 1.511 . S
C87 C86 1.376 . S
C87 C88 1.392 . S
C87 H108 0.931 . S
C88 C87 1.392 . S
C88 C89 1.361 . S
C88 C90 1.500 . S
C89 C84 1.390 . S
C89 C88 1.361 . S
C89 H107 0.931 . S
C90 C88 1.500 . S
C90 C91 1.371 . S
C90 C92 1.365 . S
C91 C90 1.371 . S
C91 C101 1.386 . S
C91 H109 0.931 . S
C92 C90 1.365 . S
C92 C93 1.409 . S
C92 H110 0.929 . S
C93 C92 1.409 . S
C93 C94 1.380 . S
C93 H111 0.930 . S
C94 C93 1.380 . S
C94 C101 1.357 . S
C95 C86 1.511 . S
C95 C96 1.341 . S
C95 C97 1.371 . S
C96 C95 1.341 . S
C96 C100 1.394 . S
C96 H112 0.930 . S
C97 C95 1.371 . S
C97 C98 1.392 . S
C97 H113 0.931 . S
C98 C97 1.392 . S
C98 C99 1.331 . S
C98 H116 0.932 . S
C99 C98 1.331 . S
C99 C100 1.336 . S
C100 C96 1.394 . S
C100 C99 1.336 . S
C100 H115 0.929 . S
C101 C91 1.386 . S
C101 C94 1.357 . S
C101 H114 0.928 . S
H102 C78 0.931 . S
H103 C80 0.930 . S
H104 C82 0.929 . S
H105 C83 0.931 . S
H106 C85 0.930 . S
H107 C89 0.931 . S
H108 C87 0.931 . S
H109 C91 0.931 . S
H110 C92 0.929 . S
H111 C93 0.930 . S
H112 C96 0.930 . S
H113 C97 0.931 . S
H114 C101 0.928 . S
H115 C100 0.929 . S
H116 C98 0.932 . S
C117 C118 1.386 . S
C117 C119 1.397 . S
C117 H141 0.931 . S
C118 C117 1.386 . S
C118 C122 1.397 . S
C119 C117 1.397 . S
C119 C120 1.384 . S
C119 H142 0.930 . S
C120 C119 1.384 . S
C120 C121 1.377 . S
C120 C123 1.481 . S
C121 C120 1.377 . S
C121 C122 1.389 . S
C121 H143 0.929 . S
C122 C118 1.397 . S
C122 C121 1.389 . S
C122 H144 0.931 . S
C123 C120 1.481 . S
C123 C124 1.387 . S
C123 C128 1.390 . S
C124 C123 1.387 . S
C124 C125 1.401 . S
C124 H145 0.930 . S
C125 C124 1.401 . S
C125 C126 1.376 . S
C125 C134 1.511 . S
C126 C125 1.376 . S
C126 C127 1.392 . S
C126 H147 0.931 . S
C127 C126 1.392 . S
C127 C128 1.361 . S
C127 C129 1.500 . S
C128 C123 1.390 . S
C128 C127 1.361 . S
C128 H146 0.931 . S
C129 C127 1.500 . S
C129 C130 1.371 . S
C129 C131 1.365 . S
C130 C129 1.371 . S
C130 C140 1.386 . S
C130 H148 0.931 . S
C131 C129 1.365 . S
C131 C132 1.409 . S
C131 H149 0.929 . S
C132 C131 1.409 . S
C132 C133 1.380 . S
C132 H150 0.930 . S
C133 C132 1.380 . S
C133 C140 1.357 . S
C134 C125 1.511 . S
C134 C135 1.341 . S
C134 C136 1.371 . S
C135 C134 1.341 . S
C135 C139 1.394 . S
C135 H151 0.930 . S
C136 C134 1.371 . S
C136 C137 1.392 . S
C136 H152 0.931 . S
C137 C136 1.392 . S
C137 C138 1.331 . S
C137 H155 0.932 . S
C138 C137 1.331 . S
C138 C139 1.336 . S
C139 C135 1.394 . S
C139 C138 1.336 . S
C139 H154 0.929 . S
C140 C130 1.386 . S
C140 C133 1.357 . S
C140 H153 0.928 . S
H141 C117 0.931 . S
H142 C119 0.930 . S
H143 C121 0.929 . S
H144 C122 0.931 . S
H145 C124 0.930 . S
H146 C128 0.931 . S
H147 C126 0.931 . S
H148 C130 0.931 . S
H149 C131 0.929 . S
H150 C132 0.930 . S
H151 C135 0.930 . S
H152 C136 0.931 . S
H153 C140 0.928 . S
H154 C139 0.929 . S
H155 C137 0.932 . S
C156 C157 1.386 . S
C156 C158 1.397 . S
C156 H180 0.931 . S
C157 C156 1.386 . S
C157 C161 1.397 . S
C158 C156 1.397 . S
C158 C159 1.384 . S
C158 H181 0.930 . S
C159 C158 1.384 . S
C159 C160 1.377 . S
C159 C162 1.481 . S
C160 C159 1.377 . S
C160 C161 1.389 . S
C160 H182 0.929 . S
C161 C157 1.397 . S
C161 C160 1.389 . S
C161 H183 0.931 . S
C162 C159 1.481 . S
C162 C163 1.387 . S
C162 C167 1.390 . S
C163 C162 1.387 . S
C163 C164 1.401 . S
C163 H184 0.930 . S
C164 C163 1.401 . S
C164 C165 1.376 . S
C164 C173 1.511 . S
C165 C164 1.376 . S
C165 C166 1.392 . S
C165 H186 0.931 . S
C166 C165 1.392 . S
C166 C167 1.361 . S
C166 C168 1.500 . S
C167 C162 1.390 . S
C167 C166 1.361 . S
C167 H185 0.931 . S
C168 C166 1.500 . S
C168 C169 1.371 . S
C168 C170 1.365 . S
C169 C168 1.371 . S
C169 C179 1.386 . S
C169 H187 0.931 . S
C170 C168 1.365 . S
C170 C171 1.409 . S
C170 H188 0.929 . S
C171 C170 1.409 . S
C171 C172 1.380 . S
C171 H189 0.930 . S
C172 C171 1.380 . S
C172 C179 1.357 . S
C173 C164 1.511 . S
C173 C174 1.341 . S
C173 C175 1.371 . S
C174 C173 1.341 . S
C174 C178 1.394 . S
C174 H190 0.930 . S
C175 C173 1.371 . S
C175 C176 1.392 . S
C175 H191 0.931 . S
C176 C175 1.392 . S
C176 C177 1.331 . S
C176 H194 0.932 . S
C177 C176 1.331 . S
C177 C178 1.336 . S
C178 C174 1.394 . S
C178 C177 1.336 . S
C178 H193 0.929 . S
C179 C169 1.386 . S
C179 C172 1.357 . S
C179 H192 0.928 . S
H180 C156 0.931 . S
H181 C158 0.930 . S
H182 C160 0.929 . S
H183 C161 0.931 . S
H184 C163 0.930 . S
H185 C167 0.931 . S
H186 C165 0.931 . S
H187 C169 0.931 . S
H188 C170 0.929 . S
H189 C171 0.930 . S
H190 C174 0.930 . S
H191 C175 0.931 . S
H192 C179 0.928 . S
H193 C178 0.929 . S
H194 C176 0.932 . S
C195 C196 1.386 . S
C195 C197 1.397 . S
C195 H219 0.931 . S
C196 C195 1.386 . S
C196 C200 1.397 . S
C197 C195 1.397 . S
C197 C198 1.384 . S
C197 H220 0.930 . S
C198 C197 1.384 . S
C198 C199 1.377 . S
C198 C201 1.481 . S
C199 C198 1.377 . S
C199 C200 1.389 . S
C199 H221 0.929 . S
C200 C196 1.397 . S
C200 C199 1.389 . S
C200 H222 0.931 . S
C201 C198 1.481 . S
C201 C202 1.387 . S
C201 C206 1.390 . S
C202 C201 1.387 . S
C202 C203 1.401 . S
C202 H223 0.930 . S
C203 C202 1.401 . S
C203 C204 1.376 . S
C203 C212 1.511 . S
C204 C203 1.376 . S
C204 C205 1.392 . S
C204 H225 0.931 . S
C205 C204 1.392 . S
C205 C206 1.361 . S
C205 C207 1.500 . S
C206 C201 1.390 . S
C206 C205 1.361 . S
C206 H224 0.931 . S
C207 C205 1.500 . S
C207 C208 1.371 . S
C207 C209 1.365 . S
C208 C207 1.371 . S
C208 C218 1.386 . S
C208 H226 0.931 . S
C209 C207 1.365 . S
C209 C210 1.409 . S
C209 H227 0.929 . S
C210 C209 1.409 . S
C210 C211 1.380 . S
C210 H228 0.930 . S
C211 C210 1.380 . S
C211 C218 1.357 . S
C212 C203 1.511 . S
C212 C213 1.341 . S
C212 C214 1.371 . S
C213 C212 1.341 . S
C213 C217 1.394 . S
C213 H229 0.930 . S
C214 C212 1.371 . S
C214 C215 1.392 . S
C214 H230 0.931 . S
C215 C214 1.392 . S
C215 C216 1.331 . S
C215 H233 0.932 . S
C216 C215 1.331 . S
C216 C217 1.336 . S
C217 C213 1.394 . S
C217 C216 1.336 . S
C217 H232 0.929 . S
C218 C208 1.386 . S
C218 C211 1.357 . S
C218 H231 0.928 . S
H219 C195 0.931 . S
H220 C197 0.930 . S
H221 C199 0.929 . S
H222 C200 0.931 . S
H223 C202 0.930 . S
H224 C206 0.931 . S
H225 C204 0.931 . S
H226 C208 0.931 . S
H227 C209 0.929 . S
H228 C210 0.930 . S
H229 C213 0.930 . S
H230 C214 0.931 . S
H231 C218 0.928 . S
H232 C217 0.929 . S
H233 C215 0.932 . S
C234 C235 1.386 . S
C234 C236 1.397 . S
C234 H258 0.931 . S
C235 C234 1.386 . S
C235 C239 1.397 . S
C236 C234 1.397 . S
C236 C237 1.384 . S
C236 H259 0.930 . S
C237 C236 1.384 . S
C237 C238 1.377 . S
C237 C240 1.481 . S
C238 C237 1.377 . S
C238 C239 1.389 . S
C238 H260 0.929 . S
C239 C235 1.397 . S
C239 C238 1.389 . S
C239 H261 0.931 . S
C240 C237 1.481 . S
C240 C241 1.387 . S
C240 C245 1.390 . S
C241 C240 1.387 . S
C241 C242 1.401 . S
C241 H262 0.930 . S
C242 C241 1.401 . S
C242 C243 1.376 . S
C242 C251 1.511 . S
C243 C242 1.376 . S
C243 C244 1.392 . S
C243 H264 0.931 . S
C244 C243 1.392 . S
C244 C245 1.361 . S
C244 C246 1.500 . S
C245 C240 1.390 . S
C245 C244 1.361 . S
C245 H263 0.931 . S
C246 C244 1.500 . S
C246 C247 1.371 . S
C246 C248 1.365 . S
C247 C246 1.371 . S
C247 C257 1.386 . S
C247 H265 0.931 . S
C248 C246 1.365 . S
C248 C249 1.409 . S
C248 H266 0.929 . S
C249 C248 1.409 . S
C249 C250 1.380 . S
C249 H267 0.930 . S
C250 C249 1.380 . S
C250 C257 1.357 . S
C251 C242 1.511 . S
C251 C252 1.341 . S
C251 C253 1.371 . S
C252 C251 1.341 . S
C252 C256 1.394 . S
C252 H268 0.930 . S
C253 C251 1.371 . S
C253 C254 1.392 . S
C253 H269 0.931 . S
C254 C253 1.392 . S
C254 C255 1.331 . S
C254 H272 0.932 . S
C255 C254 1.331 . S
C255 C256 1.336 . S
C256 C252 1.394 . S
C256 C255 1.336 . S
C256 H271 0.929 . S
C257 C247 1.386 . S
C257 C250 1.357 . S
C257 H270 0.928 . S
H258 C234 0.931 . S
H259 C236 0.930 . S
H260 C238 0.929 . S
H261 C239 0.931 . S
H262 C241 0.930 . S
H263 C245 0.931 . S
H264 C243 0.931 . S
H265 C247 0.931 . S
H266 C248 0.929 . S
H267 C249 0.930 . S
H268 C252 0.930 . S
H269 C253 0.931 . S
H270 C257 0.928 . S
H271 C256 0.929 . S
H272 C254 0.932 . S
C273 C274 1.386 . S
C273 C275 1.397 . S
C273 H297 0.931 . S
C274 C273 1.386 . S
C274 C278 1.397 . S
C275 C273 1.397 . S
C275 C276 1.384 . S
C275 H298 0.930 . S
C276 C275 1.384 . S
C276 C277 1.377 . S
C276 C279 1.481 . S
C277 C276 1.377 . S
C277 C278 1.389 . S
C277 H299 0.929 . S
C278 C274 1.397 . S
C278 C277 1.389 . S
C278 H300 0.931 . S
C279 C276 1.481 . S
C279 C280 1.387 . S
C279 C284 1.390 . S
C280 C279 1.387 . S
C280 C281 1.401 . S
C280 H301 0.930 . S
C281 C280 1.401 . S
C281 C282 1.376 . S
C281 C290 1.511 . S
C282 C281 1.376 . S
C282 C283 1.392 . S
C282 H303 0.931 . S
C283 C282 1.392 . S
C283 C284 1.361 . S
C283 C285 1.500 . S
C284 C279 1.390 . S
C284 C283 1.361 . S
C284 H302 0.931 . S
C285 C283 1.500 . S
C285 C286 1.371 . S
C285 C287 1.365 . S
C286 C285 1.371 . S
C286 C296 1.386 . S
C286 H304 0.931 . S
C287 C285 1.365 . S
C287 C288 1.409 . S
C287 H305 0.929 . S
C288 C287 1.409 . S
C288 C289 1.380 . S
C288 H306 0.930 . S
C289 C288 1.380 . S
C289 C296 1.357 . S
C290 C281 1.511 . S
C290 C291 1.341 . S
C290 C292 1.371 . S
C291 C290 1.341 . S
C291 C295 1.394 . S
C291 H307 0.930 . S
C292 C290 1.371 . S
C292 C293 1.392 . S
C292 H308 0.931 . S
C293 C292 1.392 . S
C293 C294 1.331 . S
C293 H311 0.932 . S
C294 C293 1.331 . S
C294 C295 1.336 . S
C295 C291 1.394 . S
C295 C294 1.336 . S
C295 H310 0.929 . S
C296 C286 1.386 . S
C296 C289 1.357 . S
C296 H309 0.928 . S
H297 C273 0.931 . S
H298 C275 0.930 . S
H299 C277 0.929 . S
H300 C278 0.931 . S
H301 C280 0.930 . S
H302 C284 0.931 . S
H303 C282 0.931 . S
H304 C286 0.931 . S
H305 C287 0.929 . S
H306 C288 0.930 . S
H307 C291 0.930 . S
H308 C292 0.931 . S
H309 C296 0.928 . S
H310 C295 0.929 . S
H311 C293 0.932 . S
La312 C314 2.928 . S
La312 O332 2.521 . S
La312 O333 2.628 . S
La312 O334 2.554 1_545 S
La312 O335 2.757 1_545 S
La312 O336 2.470 . S
La312 O341 2.482 1_455 S
La312 O343 2.503 1_445 S
La313 C323 2.916 1_545 S
La313 O335 2.475 1_645 S
La313 O337 2.516 1_655 S
La313 O338 2.514 1_545 S
La313 O339 2.612 1_545 S
La313 O340 2.563 . S
La313 O341 2.765 . S
La313 O342 2.460 1_545 S
C314 La312 2.928 . S
C314 C315 1.503 . S
C314 O332 1.261 . S
C314 O333 1.243 . S
C315 C314 1.503 . S
C315 C316 1.394 . S
C315 C320 1.373 . S
C316 C315 1.394 . S
C316 C317 1.380 . S
C316 H344 0.930 . S
C317 C316 1.380 . S
C317 C318 1.376 . S
C317 H345 0.930 . S
C318 C317 1.376 . S
C318 C319 1.370 . S
C319 C318 1.370 . S
C319 C320 1.396 . S
C319 H346 0.929 . S
C320 C315 1.373 . S
C320 C319 1.396 . S
C320 H347 0.929 . S
C321 O334 1.240 . S
C321 O335 1.289 . S
C322 O336 1.258 . S
C322 O337 1.256 . S
C323 La313 2.916 1_565 S
C323 C324 1.503 . S
C323 O338 1.261 . S
C323 O339 1.243 . S
C324 C323 1.503 . S
C324 C325 1.394 . S
C324 C329 1.373 . S
C325 C324 1.394 . S
C325 C326 1.380 . S
C325 H348 0.930 . S
C326 C325 1.380 . S
C326 C327 1.376 . S
C326 H349 0.930 . S
C327 C326 1.376 . S
C327 C328 1.370 . S
C328 C327 1.370 . S
C328 C329 1.396 . S
C328 H350 0.929 . S
C329 C324 1.373 . S
C329 C328 1.396 . S
C329 H351 0.929 . S
C330 O340 1.240 . S
C330 O341 1.289 . S
C331 O342 1.258 . S
C331 O343 1.256 . S
O332 La312 2.521 . S
O332 C314 1.261 . S
O333 La312 2.628 . S
O333 C314 1.243 . S
O334 La312 2.554 1_565 S
O334 C321 1.240 . S
O335 La312 2.757 1_565 S
O335 La313 2.475 1_465 S
O335 C321 1.289 . S
O336 La312 2.470 . S
O336 C322 1.258 . S
O337 La313 2.516 1_455 S
O337 C322 1.256 . S
O338 La313 2.514 1_565 S
O338 C323 1.261 . S
O339 La313 2.612 1_565 S
O339 C323 1.243 . S
O340 La313 2.563 . S
O340 C330 1.240 . S
O341 La312 2.482 1_655 S
O341 La313 2.765 . S
O341 C330 1.289 . S
O342 La313 2.460 1_565 S
O342 C331 1.258 . S
O343 La312 2.503 1_665 S
O343 C331 1.256 . S
H344 C316 0.930 . S
H345 C317 0.930 . S
H346 C319 0.929 . S
H347 C320 0.929 . S
H348 C325 0.930 . S
H349 C326 0.930 . S
H350 C328 0.929 . S
H351 C329 0.929 . S
La352 C354 2.928 . S
La352 O372 2.521 . S
La352 O373 2.628 . S
La352 O374 2.554 1_545 S
La352 O375 2.757 1_545 S
La352 O376 2.470 . S
La352 O381 2.482 1_554 S
La352 O383 2.503 1_544 S
La353 C363 2.928 1_545 S
La353 O375 2.482 1_546 S
La353 O377 2.503 1_556 S
La353 O378 2.521 1_545 S
La353 O379 2.628 1_545 S
La353 O380 2.554 . S
La353 O381 2.757 . S
La353 O382 2.470 1_545 S
C354 La352 2.928 . S
C354 C355 1.503 . S
C354 O372 1.261 . S
C354 O373 1.243 . S
C355 C354 1.503 . S
C355 C356 1.394 . S
C355 C360 1.373 . S
C356 C355 1.394 . S
C356 C357 1.380 . S
C356 H384 0.930 . S
C357 C356 1.380 . S
C357 C358 1.376 . S
C357 H385 0.930 . S
C358 C357 1.376 . S
C358 C359 1.370 . S
C359 C358 1.370 . S
C359 C360 1.396 . S
C359 H386 0.929 . S
C360 C355 1.373 . S
C360 C359 1.396 . S
C360 H387 0.929 . S
C361 O374 1.240 . S
C361 O375 1.289 . S
C362 O376 1.258 . S
C362 O377 1.256 . S
C363 La353 2.928 1_565 S
C363 C364 1.503 . S
C363 O378 1.261 . S
C363 O379 1.243 . S
C364 C363 1.503 . S
C364 C365 1.394 . S
C364 C369 1.373 . S
C365 C364 1.394 . S
C365 C366 1.380 . S
C365 H388 0.930 . S
C366 C365 1.380 . S
C366 C367 1.376 . S
C366 H389 0.930 . S
C367 C366 1.376 . S
C367 C368 1.370 . S
C368 C367 1.370 . S
C368 C369 1.396 . S
C368 H390 0.929 . S
C369 C364 1.373 . S
C369 C368 1.396 . S
C369 H391 0.929 . S
C370 O380 1.240 . S
C370 O381 1.289 . S
C371 O382 1.258 . S
C371 O383 1.256 . S
O372 La352 2.521 . S
O372 C354 1.261 . S
O373 La352 2.628 . S
O373 C354 1.243 . S
O374 La352 2.554 1_565 S
O374 C361 1.240 . S
O375 La352 2.757 1_565 S
O375 La353 2.482 1_564 S
O375 C361 1.289 . S
O376 La352 2.470 . S
O376 C362 1.258 . S
O377 La353 2.503 1_554 S
O377 C362 1.256 . S
O378 La353 2.521 1_565 S
O378 C363 1.261 . S
O379 La353 2.628 1_565 S
O379 C363 1.243 . S
O380 La353 2.554 . S
O380 C370 1.240 . S
O381 La352 2.482 1_556 S
O381 La353 2.757 . S
O381 C370 1.289 . S
O382 La353 2.470 1_565 S
O382 C371 1.258 . S
O383 La352 2.503 1_566 S
O383 C371 1.256 . S
H384 C356 0.930 . S
H385 C357 0.930 . S
H386 C359 0.929 . S
H387 C360 0.929 . S
H388 C365 0.930 . S
H389 C366 0.930 . S
H390 C368 0.929 . S
H391 C369 0.929 . S
La392 C394 2.928 . S
La392 O412 2.521 . S
La392 O413 2.628 . S
La392 O414 2.554 . S
La392 O415 2.757 . S
La392 O416 2.470 . S
La392 O421 2.482 . S
La392 O423 2.503 . S
La393 C403 2.928 . S
La393 O415 2.482 . S
La393 O417 2.503 . S
La393 O418 2.521 . S
La393 O419 2.628 . S
La393 O420 2.554 . S
La393 O421 2.757 . S
La393 O422 2.470 . S
C394 La392 2.928 . S
C394 C395 1.503 . S
C394 O412 1.261 . S
C394 O413 1.243 . S
C395 C394 1.503 . S
C395 C396 1.394 . S
C395 C400 1.373 . S
C396 C395 1.394 . S
C396 C397 1.380 . S
C396 H424 0.930 . S
C397 C396 1.380 . S
C397 C398 1.376 . S
C397 H425 0.930 . S
C398 C397 1.376 . S
C398 C399 1.370 . S
C399 C398 1.370 . S
C399 C400 1.396 . S
C399 H426 0.929 . S
C400 C395 1.373 . S
C400 C399 1.396 . S
C400 H427 0.929 . S
C401 O414 1.240 . S
C401 O415 1.289 . S
C402 O416 1.258 . S
C402 O417 1.256 . S
C403 La393 2.928 . S
C403 C404 1.503 . S
C403 O418 1.261 . S
C403 O419 1.243 . S
C404 C403 1.503 . S
C404 C405 1.394 . S
C404 C409 1.373 . S
C405 C404 1.394 . S
C405 C406 1.380 . S
C405 H428 0.930 . S
C406 C405 1.380 . S
C406 C407 1.376 . S
C406 H429 0.930 . S
C407 C406 1.376 . S
C407 C408 1.370 . S
C408 C407 1.370 . S
C408 C409 1.396 . S
C408 H430 0.929 . S
C409 C404 1.373 . S
C409 C408 1.396 . S
C409 H431 0.929 . S
C410 O420 1.240 . S
C410 O421 1.289 . S
C411 O422 1.258 . S
C411 O423 1.256 . S
O412 La392 2.521 . S
O412 C394 1.261 . S
O413 La392 2.628 . S
O413 C394 1.243 . S
O414 La392 2.554 . S
O414 C401 1.240 . S
O415 La392 2.757 . S
O415 La393 2.482 . S
O415 C401 1.289 . S
O416 La392 2.470 . S
O416 C402 1.258 . S
O417 La393 2.503 . S
O417 C402 1.256 . S
O418 La393 2.521 . S
O418 C403 1.261 . S
O419 La393 2.628 . S
O419 C403 1.243 . S
O420 La393 2.554 . S
O420 C410 1.240 . S
O421 La392 2.482 . S
O421 La393 2.757 . S
O421 C410 1.289 . S
O422 La393 2.470 . S
O422 C411 1.258 . S
O423 La392 2.503 . S
O423 C411 1.256 . S
H424 C396 0.930 . S
H425 C397 0.930 . S
H426 C399 0.929 . S
H427 C400 0.929 . S
H428 C405 0.930 . S
H429 C406 0.930 . S
H430 C408 0.929 . S
H431 C409 0.929 . S
La432 C434 2.928 . S
La432 O452 2.521 . S
La432 O453 2.628 . S
La432 O454 2.554 1_455 S
La432 O455 2.757 1_455 S
La432 O456 2.470 . S
La432 O461 2.482 1_554 S
La432 O463 2.503 1_454 S
La433 C443 2.895 1_455 S
La433 O455 2.471 1_456 S
La433 O457 2.538 1_556 S
La433 O458 2.500 1_455 S
La433 O459 2.588 1_455 S
La433 O460 2.574 . S
La433 O461 2.779 . S
La433 O462 2.446 1_455 S
C434 La432 2.928 . S
C434 C435 1.503 . S
C434 O452 1.261 . S
C434 O453 1.243 . S
C435 C434 1.503 . S
C435 C436 1.394 . S
C435 C440 1.373 . S
C436 C435 1.394 . S
C436 C437 1.380 . S
C436 H464 0.930 . S
C437 C436 1.380 . S
C437 C438 1.376 . S
C437 H465 0.930 . S
C438 C437 1.376 . S
C438 C439 1.370 . S
C439 C438 1.370 . S
C439 C440 1.396 . S
C439 H466 0.929 . S
C440 C435 1.373 . S
C440 C439 1.396 . S
C440 H467 0.929 . S
C441 O454 1.240 . S
C441 O455 1.289 . S
C442 O456 1.258 . S
C442 O457 1.256 . S
C443 La433 2.895 1_655 S
C443 C444 1.503 . S
C443 O458 1.261 . S
C443 O459 1.243 . S
C444 C443 1.503 . S
C444 C445 1.394 . S
C444 C449 1.373 . S
C445 C444 1.394 . S
C445 C446 1.380 . S
C445 H468 0.930 . S
C446 C445 1.380 . S
C446 C447 1.376 . S
C446 H469 0.930 . S
C447 C446 1.376 . S
C447 C448 1.370 . S
C448 C447 1.370 . S
C448 C449 1.396 . S
C448 H470 0.929 . S
C449 C444 1.373 . S
C449 C448 1.396 . S
C449 H471 0.929 . S
C450 O460 1.240 . S
C450 O461 1.289 . S
C451 O462 1.258 . S
C451 O463 1.256 . S
O452 La432 2.521 . S
O452 C434 1.261 . S
O453 La432 2.628 . S
O453 C434 1.243 . S
O454 La432 2.554 1_655 S
O454 C441 1.240 . S
O455 La432 2.757 1_655 S
O455 La433 2.471 1_654 S
O455 C441 1.289 . S
O456 La432 2.470 . S
O456 C442 1.258 . S
O457 La433 2.538 1_554 S
O457 C442 1.256 . S
O458 La433 2.500 1_655 S
O458 C443 1.261 . S
O459 La433 2.588 1_655 S
O459 C443 1.243 . S
O460 La433 2.574 . S
O460 C450 1.240 . S
O461 La432 2.482 1_556 S
O461 La433 2.779 . S
O461 C450 1.289 . S
O462 La433 2.446 1_655 S
O462 C451 1.258 . S
O463 La432 2.503 1_656 S
O463 C451 1.256 . S
H464 C436 0.930 . S
H465 C437 0.930 . S
H466 C439 0.929 . S
H467 C440 0.929 . S
H468 C445 0.930 . S
H469 C446 0.930 . S
H470 C448 0.929 . S
H471 C449 0.929 . S
H472 C480 0.929 . S
H473 C482 0.930 . S
H474 C484 0.930 . S
H475 C487 0.929 . S
H476 C490 0.930 . S
H477 C492 0.960 . S
H478 C492 0.960 . S
H479 C492 0.960 . S
C480 H472 0.929 . S
C480 C481 1.377 . S
C480 C482 1.384 . S
C481 C480 1.377 . S
C481 C487 1.390 . S
C482 H473 0.930 . S
C482 C480 1.384 . S
C482 C483 1.372 . S
C483 C482 1.372 . S
C483 C484 1.400 . S
C483 C488 1.490 . S
C484 H474 0.930 . S
C484 C483 1.400 . S
C484 C487 1.386 . S
H485 C501 0.930 . S
H486 C502 0.931 . S
C487 H475 0.929 . S
C487 C481 1.390 . S
C487 C484 1.386 . S
C488 C483 1.490 . S
C488 C490 1.395 . S
C488 C491 1.403 . S
H489 C495 0.930 . S
C490 H476 0.930 . S
C490 C488 1.395 . S
C490 C493 1.403 . S
C491 C488 1.403 . S
C491 C492 1.524 . S
C491 C495 1.400 . S
C492 H477 0.960 . S
C492 H478 0.960 . S
C492 H479 0.960 . S
C492 C491 1.524 . S
C493 C490 1.403 . S
C493 C494 1.392 . S
C493 C497 1.495 . S
C494 C493 1.392 . S
C494 C495 1.385 . S
C494 C496 1.478 . S
C495 H489 0.930 . S
C495 C491 1.400 . S
C495 C494 1.385 . S
C496 C494 1.478 . S
C496 C498 1.381 . S
C496 C502 1.383 . S
C497 C493 1.495 . S
C497 H503 0.959 . S
C497 H504 0.961 . S
C497 H505 0.960 . S
C498 C496 1.381 . S
C498 C499 1.394 . S
C498 H506 0.930 . S
C499 C498 1.394 . S
C499 C500 1.383 . S
C499 H507 0.929 . S
C500 C499 1.383 . S
C500 C501 1.377 . S
C501 H485 0.930 . S
C501 C500 1.377 . S
C501 C502 1.379 . S
C502 H486 0.931 . S
C502 C496 1.383 . S
C502 C501 1.379 . S
H503 C497 0.959 . S
H504 C497 0.961 . S
H505 C497 0.960 . S
H506 C498 0.930 . S
H507 C499 0.929 . S
H508 C516 0.929 . S
H509 C518 0.930 . S
H510 C520 0.930 . S
H511 C523 0.929 . S
H512 C526 0.930 . S
H513 C528 0.960 . S
H514 C528 0.960 . S
H515 C528 0.960 . S
C516 H508 0.929 . S
C516 C517 1.377 . S
C516 C518 1.384 . S
C517 C516 1.377 . S
C517 C523 1.390 . S
C518 H509 0.930 . S
C518 C516 1.384 . S
C518 C519 1.372 . S
C519 C518 1.372 . S
C519 C520 1.400 . S
C519 C524 1.490 . S
C520 H510 0.930 . S
C520 C519 1.400 . S
C520 C523 1.386 . S
H521 C537 0.930 . S
H522 C538 0.931 . S
C523 H511 0.929 . S
C523 C517 1.390 . S
C523 C520 1.386 . S
C524 C519 1.490 . S
C524 C526 1.395 . S
C524 C527 1.403 . S
H525 C531 0.930 . S
C526 H512 0.930 . S
C526 C524 1.395 . S
C526 C529 1.403 . S
C527 C524 1.403 . S
C527 C528 1.524 . S
C527 C531 1.400 . S
C528 H513 0.960 . S
C528 H514 0.960 . S
C528 H515 0.960 . S
C528 C527 1.524 . S
C529 C526 1.403 . S
C529 C530 1.392 . S
C529 C533 1.495 . S
C530 C529 1.392 . S
C530 C531 1.385 . S
C530 C532 1.478 . S
C531 H525 0.930 . S
C531 C527 1.400 . S
C531 C530 1.385 . S
C532 C530 1.478 . S
C532 C534 1.381 . S
C532 C538 1.383 . S
C533 C529 1.495 . S
C533 H539 0.959 . S
C533 H540 0.961 . S
C533 H541 0.960 . S
C534 C532 1.381 . S
C534 C535 1.394 . S
C534 H542 0.930 . S
C535 C534 1.394 . S
C535 C536 1.383 . S
C535 H543 0.929 . S
C536 C535 1.383 . S
C536 C537 1.377 . S
C537 H521 0.930 . S
C537 C536 1.377 . S
C537 C538 1.379 . S
C538 H522 0.931 . S
C538 C532 1.383 . S
C538 C537 1.379 . S
H539 C533 0.959 . S
H540 C533 0.961 . S
H541 C533 0.960 . S
H542 C534 0.930 . S
H543 C535 0.929 . S
H544 C552 0.929 . S
H545 C554 0.930 . S
H546 C556 0.930 . S
H547 C559 0.929 . S
H548 C562 0.930 . S
H549 C564 0.960 . S
H550 C564 0.960 . S
H551 C564 0.960 . S
C552 H544 0.929 . S
C552 C553 1.377 . S
C552 C554 1.384 . S
C553 C552 1.377 . S
C553 C559 1.390 . S
C554 H545 0.930 . S
C554 C552 1.384 . S
C554 C555 1.372 . S
C555 C554 1.372 . S
C555 C556 1.400 . S
C555 C560 1.490 . S
C556 H546 0.930 . S
C556 C555 1.400 . S
C556 C559 1.386 . S
H557 C573 0.930 . S
H558 C574 0.931 . S
C559 H547 0.929 . S
C559 C553 1.390 . S
C559 C556 1.386 . S
C560 C555 1.490 . S
C560 C562 1.395 . S
C560 C563 1.403 . S
H561 C567 0.930 . S
C562 H548 0.930 . S
C562 C560 1.395 . S
C562 C565 1.403 . S
C563 C560 1.403 . S
C563 C564 1.524 . S
C563 C567 1.400 . S
C564 H549 0.960 . S
C564 H550 0.960 . S
C564 H551 0.960 . S
C564 C563 1.524 . S
C565 C562 1.403 . S
C565 C566 1.392 . S
C565 C569 1.495 . S
C566 C565 1.392 . S
C566 C567 1.385 . S
C566 C568 1.478 . S
C567 H561 0.930 . S
C567 C563 1.400 . S
C567 C566 1.385 . S
C568 C566 1.478 . S
C568 C570 1.381 . S
C568 C574 1.383 . S
C569 C565 1.495 . S
C569 H575 0.959 . S
C569 H576 0.961 . S
C569 H577 0.960 . S
C570 C568 1.381 . S
C570 C571 1.394 . S
C570 H578 0.930 . S
C571 C570 1.394 . S
C571 C572 1.383 . S
C571 H579 0.929 . S
C572 C571 1.383 . S
C572 C573 1.377 . S
C573 H557 0.930 . S
C573 C572 1.377 . S
C573 C574 1.379 . S
C574 H558 0.931 . S
C574 C568 1.383 . S
C574 C573 1.379 . S
H575 C569 0.959 . S
H576 C569 0.961 . S
H577 C569 0.960 . S
H578 C570 0.930 . S
H579 C571 0.929 . S
H580 C588 0.929 . S
H581 C590 0.930 . S
H582 C592 0.930 . S
H583 C595 0.929 . S
H584 C598 0.930 . S
H585 C600 0.960 . S
H586 C600 0.960 . S
H587 C600 0.960 . S
C588 H580 0.929 . S
C588 C589 1.377 . S
C588 C590 1.384 . S
C589 C588 1.377 . S
C589 C595 1.390 . S
C590 H581 0.930 . S
C590 C588 1.384 . S
C590 C591 1.372 . S
C591 C590 1.372 . S
C591 C592 1.400 . S
C591 C596 1.490 . S
C592 H582 0.930 . S
C592 C591 1.400 . S
C592 C595 1.386 . S
H593 C609 0.930 . S
H594 C610 0.931 . S
C595 H583 0.929 . S
C595 C589 1.390 . S
C595 C592 1.386 . S
C596 C591 1.490 . S
C596 C598 1.395 . S
C596 C599 1.403 . S
H597 C603 0.930 . S
C598 H584 0.930 . S
C598 C596 1.395 . S
C598 C601 1.403 . S
C599 C596 1.403 . S
C599 C600 1.524 . S
C599 C603 1.400 . S
C600 H585 0.960 . S
C600 H586 0.960 . S
C600 H587 0.960 . S
C600 C599 1.524 . S
C601 C598 1.403 . S
C601 C602 1.392 . S
C601 C605 1.495 . S
C602 C601 1.392 . S
C602 C603 1.385 . S
C602 C604 1.478 . S
C603 H597 0.930 . S
C603 C599 1.400 . S
C603 C602 1.385 . S
C604 C602 1.478 . S
C604 C606 1.381 . S
C604 C610 1.383 . S
C605 C601 1.495 . S
C605 H611 0.959 . S
C605 H612 0.961 . S
C605 H613 0.960 . S
C606 C604 1.381 . S
C606 C607 1.394 . S
C606 H614 0.930 . S
C607 C606 1.394 . S
C607 C608 1.383 . S
C607 H615 0.929 . S
C608 C607 1.383 . S
C608 C609 1.377 . S
C609 H593 0.930 . S
C609 C608 1.377 . S
C609 C610 1.379 . S
C610 H594 0.931 . S
C610 C604 1.383 . S
C610 C609 1.379 . S
H611 C605 0.959 . S
H612 C605 0.961 . S
H613 C605 0.960 . S
H614 C606 0.930 . S
H615 C607 0.929 . S
H616 C624 0.929 . S
H617 C626 0.930 . S
H618 C628 0.930 . S
H619 C631 0.929 . S
H620 C634 0.930 . S
H621 C636 0.960 . S
H622 C636 0.960 . S
H623 C636 0.960 . S
C624 H616 0.929 . S
C624 C625 1.377 . S
C624 C626 1.384 . S
C625 C624 1.377 . S
C625 C631 1.390 . S
C626 H617 0.930 . S
C626 C624 1.384 . S
C626 C627 1.372 . S
C627 C626 1.372 . S
C627 C628 1.400 . S
C627 C632 1.490 . S
C628 H618 0.930 . S
C628 C627 1.400 . S
C628 C631 1.386 . S
H629 C645 0.930 . S
H630 C646 0.931 . S
C631 H619 0.929 . S
C631 C625 1.390 . S
C631 C628 1.386 . S
C632 C627 1.490 . S
C632 C634 1.395 . S
C632 C635 1.403 . S
H633 C639 0.930 . S
C634 H620 0.930 . S
C634 C632 1.395 . S
C634 C637 1.403 . S
C635 C632 1.403 . S
C635 C636 1.524 . S
C635 C639 1.400 . S
C636 H621 0.960 . S
C636 H622 0.960 . S
C636 H623 0.960 . S
C636 C635 1.524 . S
C637 C634 1.403 . S
C637 C638 1.392 . S
C637 C641 1.495 . S
C638 C637 1.392 . S
C638 C639 1.385 . S
C638 C640 1.478 . S
C639 H633 0.930 . S
C639 C635 1.400 . S
C639 C638 1.385 . S
C640 C638 1.478 . S
C640 C642 1.381 . S
C640 C646 1.383 . S
C641 C637 1.495 . S
C641 H647 0.959 . S
C641 H648 0.961 . S
C641 H649 0.960 . S
C642 C640 1.381 . S
C642 C643 1.394 . S
C642 H650 0.930 . S
C643 C642 1.394 . S
C643 C644 1.383 . S
C643 H651 0.929 . S
C644 C643 1.383 . S
C644 C645 1.377 . S
C645 H629 0.930 . S
C645 C644 1.377 . S
C645 C646 1.379 . S
C646 H630 0.931 . S
C646 C640 1.383 . S
C646 C645 1.379 . S
H647 C641 0.959 . S
H648 C641 0.961 . S
H649 C641 0.960 . S
H650 C642 0.930 . S
H651 C643 0.929 . S
H652 C660 0.929 . S
H653 C662 0.930 . S
H654 C664 0.930 . S
H655 C667 0.929 . S
H656 C670 0.930 . S
H657 C672 0.960 . S
H658 C672 0.960 . S
H659 C672 0.960 . S
C660 H652 0.929 . S
C660 C661 1.377 . S
C660 C662 1.384 . S
C661 C660 1.377 . S
C661 C667 1.390 . S
C662 H653 0.930 . S
C662 C660 1.384 . S
C662 C663 1.372 . S
C663 C662 1.372 . S
C663 C664 1.400 . S
C663 C668 1.490 . S
C664 H654 0.930 . S
C664 C663 1.400 . S
C664 C667 1.386 . S
H665 C681 0.930 1_545 S
H666 C682 0.931 . S
C667 H655 0.929 . S
C667 C661 1.390 . S
C667 C664 1.386 . S
C668 C663 1.490 . S
C668 C670 1.395 . S
C668 C671 1.403 . S
H669 C675 0.930 . S
C670 H656 0.930 . S
C670 C668 1.395 . S
C670 C673 1.403 . S
C671 C668 1.403 . S
C671 C672 1.524 . S
C671 C675 1.400 . S
C672 H657 0.960 . S
C672 H658 0.960 . S
C672 H659 0.960 . S
C672 C671 1.524 . S
C673 C670 1.403 . S
C673 C674 1.392 . S
C673 C677 1.495 . S
C674 C673 1.392 . S
C674 C675 1.385 . S
C674 C676 1.478 . S
C675 H669 0.930 . S
C675 C671 1.400 . S
C675 C674 1.385 . S
C676 C674 1.478 . S
C676 C678 1.381 . S
C676 C682 1.383 . S
C677 C673 1.495 . S
C677 H683 0.959 . S
C677 H684 0.961 . S
C677 H685 0.960 . S
C678 C676 1.381 . S
C678 C679 1.394 . S
C678 H686 0.930 . S
C679 C678 1.394 . S
C679 C680 1.383 . S
C679 H687 0.929 . S
C680 C679 1.383 . S
C680 C681 1.377 . S
C681 H665 0.930 1_565 S
C681 C680 1.377 . S
C681 C682 1.379 . S
C682 H666 0.931 . S
C682 C676 1.383 . S
C682 C681 1.379 . S
H683 C677 0.959 . S
H684 C677 0.961 . S
H685 C677 0.960 . S
H686 C678 0.930 . S
H687 C679 0.929 . S
H688 C696 0.929 . S
H689 C698 0.930 . S
H690 C700 0.930 . S
H691 C703 0.929 . S
H692 C706 0.930 . S
H693 C708 0.960 . S
H694 C708 0.960 . S
H695 C708 0.960 . S
C696 H688 0.929 . S
C696 C697 1.377 . S
C696 C698 1.384 . S
C697 C696 1.377 . S
C697 C703 1.390 . S
C698 H689 0.930 . S
C698 C696 1.384 . S
C698 C699 1.372 . S
C699 C698 1.372 . S
C699 C700 1.400 . S
C699 C704 1.490 . S
C700 H690 0.930 . S
C700 C699 1.400 . S
C700 C703 1.386 . S
H701 C717 0.930 . S
H702 C718 0.931 . S
C703 H691 0.929 . S
C703 C697 1.390 . S
C703 C700 1.386 . S
C704 C699 1.490 . S
C704 C706 1.395 . S
C704 C707 1.403 . S
H705 C711 0.930 . S
C706 H692 0.930 . S
C706 C704 1.395 . S
C706 C709 1.403 . S
C707 C704 1.403 . S
C707 C708 1.524 . S
C707 C711 1.400 . S
C708 H693 0.960 . S
C708 H694 0.960 . S
C708 H695 0.960 . S
C708 C707 1.524 . S
C709 C706 1.403 . S
C709 C710 1.392 . S
C709 C713 1.495 . S
C710 C709 1.392 . S
C710 C711 1.385 . S
C710 C712 1.478 . S
C711 H705 0.930 . S
C711 C707 1.400 . S
C711 C710 1.385 . S
C712 C710 1.478 . S
C712 C714 1.381 . S
C712 C718 1.383 . S
C713 C709 1.495 . S
C713 H719 0.959 . S
C713 H720 0.961 . S
C713 H721 0.960 . S
C714 C712 1.381 . S
C714 C715 1.394 . S
C714 H722 0.930 . S
C715 C714 1.394 . S
C715 C716 1.383 . S
C715 H723 0.929 . S
C716 C715 1.383 . S
C716 C717 1.377 . S
C717 H701 0.930 . S
C717 C716 1.377 . S
C717 C718 1.379 . S
C718 H702 0.931 . S
C718 C712 1.383 . S
C718 C717 1.379 . S
H719 C713 0.959 . S
H720 C713 0.961 . S
H721 C713 0.960 . S
H722 C714 0.930 . S
H723 C715 0.929 . S
H724 C732 0.929 . S
H725 C734 0.930 . S
H726 C736 0.930 . S
H727 C739 0.929 . S
H728 C742 0.930 . S
H729 C744 0.960 . S
H730 C744 0.960 . S
H731 C744 0.960 . S
C732 H724 0.929 . S
C732 C733 1.377 . S
C732 C734 1.384 . S
C733 C732 1.377 . S
C733 C739 1.390 . S
C734 H725 0.930 . S
C734 C732 1.384 . S
C734 C735 1.372 . S
C735 C734 1.372 . S
C735 C736 1.400 . S
C735 C740 1.490 . S
C736 H726 0.930 . S
C736 C735 1.400 . S
C736 C739 1.386 . S
H737 C753 0.930 . S
H738 C754 0.931 . S
C739 H727 0.929 . S
C739 C733 1.390 . S
C739 C736 1.386 . S
C740 C735 1.490 . S
C740 C742 1.395 . S
C740 C743 1.403 . S
H741 C747 0.930 . S
C742 H728 0.930 . S
C742 C740 1.395 . S
C742 C745 1.403 . S
C743 C740 1.403 . S
C743 C744 1.524 . S
C743 C747 1.400 . S
C744 H729 0.960 . S
C744 H730 0.960 . S
C744 H731 0.960 . S
C744 C743 1.524 . S
C745 C742 1.403 . S
C745 C746 1.392 . S
C745 C749 1.495 . S
C746 C745 1.392 . S
C746 C747 1.385 . S
C746 C748 1.478 . S
C747 H741 0.930 . S
C747 C743 1.400 . S
C747 C746 1.385 . S
C748 C746 1.478 . S
C748 C750 1.381 . S
C748 C754 1.383 . S
C749 C745 1.495 . S
C749 H755 0.959 . S
C749 H756 0.961 . S
C749 H757 0.960 . S
C750 C748 1.381 . S
C750 C751 1.394 . S
C750 H758 0.930 . S
C751 C750 1.394 . S
C751 C752 1.383 . S
C751 H759 0.929 . S
C752 C751 1.383 . S
C752 C753 1.377 . S
C753 H737 0.930 . S
C753 C752 1.377 . S
C753 C754 1.379 . S
C754 H738 0.931 . S
C754 C748 1.383 . S
C754 C753 1.379 . S
H755 C749 0.959 . S
H756 C749 0.961 . S
H757 C749 0.960 . S
H758 C750 0.930 . S
H759 C751 0.929 . S
H760 C768 0.929 . S
H761 C770 0.930 . S
H762 C772 0.930 . S
H763 C775 0.929 . S
H764 C778 0.930 . S
H765 C780 0.960 . S
H766 C780 0.960 . S
H767 C780 0.960 . S
C768 H760 0.929 . S
C768 C769 1.377 . S
C768 C770 1.384 . S
C769 C768 1.377 . S
C769 C775 1.390 . S
C770 H761 0.930 . S
C770 C768 1.384 . S
C770 C771 1.372 . S
C771 C770 1.372 . S
C771 C772 1.400 . S
C771 C776 1.490 . S
C772 H762 0.930 . S
C772 C771 1.400 . S
C772 C775 1.386 . S
H773 C789 0.930 . S
H774 C790 0.931 . S
C775 H763 0.929 . S
C775 C769 1.390 . S
C775 C772 1.386 . S
C776 C771 1.490 . S
C776 C778 1.395 . S
C776 C779 1.403 . S
H777 C783 0.930 . S
C778 H764 0.930 . S
C778 C776 1.395 . S
C778 C781 1.403 . S
C779 C776 1.403 . S
C779 C780 1.524 . S
C779 C783 1.400 . S
C780 H765 0.960 . S
C780 H766 0.960 . S
C780 H767 0.960 . S
C780 C779 1.524 . S
C781 C778 1.403 . S
C781 C782 1.392 . S
C781 C785 1.495 . S
C782 C781 1.392 . S
C782 C783 1.385 . S
C782 C784 1.478 . S
C783 H777 0.930 . S
C783 C779 1.400 . S
C783 C782 1.385 . S
C784 C782 1.478 . S
C784 C786 1.381 . S
C784 C790 1.383 . S
C785 C781 1.495 . S
C785 H791 0.959 . S
C785 H792 0.961 . S
C785 H793 0.960 . S
C786 C784 1.381 . S
C786 C787 1.394 . S
C786 H794 0.930 . S
C787 C786 1.394 . S
C787 C788 1.383 . S
C787 H795 0.929 . S
C788 C787 1.383 . S
C788 C789 1.377 . S
C789 H773 0.930 . S
C789 C788 1.377 . S
C789 C790 1.379 . S
C790 H774 0.931 . S
C790 C784 1.383 . S
C790 C789 1.379 . S
H791 C785 0.959 . S
H792 C785 0.961 . S
H793 C785 0.960 . S
H794 C786 0.930 . S
H795 C787 0.929 . S
H796 C804 0.929 . S
H797 C806 0.930 . S
H798 C808 0.930 . S
H799 C811 0.929 . S
H800 C814 0.930 . S
H801 C816 0.960 . S
H802 C816 0.960 . S
H803 C816 0.960 . S
C804 H796 0.929 . S
C804 C805 1.377 . S
C804 C806 1.384 . S
C805 C804 1.377 . S
C805 C811 1.390 . S
C806 H797 0.930 . S
C806 C804 1.384 . S
C806 C807 1.372 . S
C807 C806 1.372 . S
C807 C808 1.400 . S
C807 C812 1.490 . S
C808 H798 0.930 . S
C808 C807 1.400 . S
C808 C811 1.386 . S
H809 C825 0.930 . S
H810 C826 0.931 . S
C811 H799 0.929 . S
C811 C805 1.390 . S
C811 C808 1.386 . S
C812 C807 1.490 . S
C812 C814 1.395 . S
C812 C815 1.403 . S
H813 C819 0.930 . S
C814 H800 0.930 . S
C814 C812 1.395 . S
C814 C817 1.403 . S
C815 C812 1.403 . S
C815 C816 1.524 . S
C815 C819 1.400 . S
C816 H801 0.960 . S
C816 H802 0.960 . S
C816 H803 0.960 . S
C816 C815 1.524 . S
C817 C814 1.403 . S
C817 C818 1.392 . S
C817 C821 1.495 . S
C818 C817 1.392 . S
C818 C819 1.385 . S
C818 C820 1.478 . S
C819 H813 0.930 . S
C819 C815 1.400 . S
C819 C818 1.385 . S
C820 C818 1.478 . S
C820 C822 1.381 . S
C820 C826 1.383 . S
C821 C817 1.495 . S
C821 H827 0.959 . S
C821 H828 0.961 . S
C821 H829 0.960 . S
C822 C820 1.381 . S
C822 C823 1.394 . S
C822 H830 0.930 . S
C823 C822 1.394 . S
C823 C824 1.383 . S
C823 H831 0.929 . S
C824 C823 1.383 . S
C824 C825 1.377 . S
C825 H809 0.930 . S
C825 C824 1.377 . S
C825 C826 1.379 . S
C826 H810 0.931 . S
C826 C820 1.383 . S
C826 C825 1.379 . S
H827 C821 0.959 . S
H828 C821 0.961 . S
H829 C821 0.960 . S
H830 C822 0.930 . S
H831 C823 0.929 . S
H832 C840 0.929 . S
H833 C842 0.930 . S
H834 C844 0.930 . S
H835 C847 0.929 . S
H836 C850 0.930 . S
H837 C852 0.960 . S
H838 C852 0.960 . S
H839 C852 0.960 . S
C840 H832 0.929 . S
C840 C841 1.377 . S
C840 C842 1.384 . S
C841 C840 1.377 . S
C841 C847 1.390 . S
C842 H833 0.930 . S
C842 C840 1.384 . S
C842 C843 1.372 . S
C843 C842 1.372 . S
C843 C844 1.400 . S
C843 C848 1.490 . S
C844 H834 0.930 . S
C844 C843 1.400 . S
C844 C847 1.386 . S
H845 C861 0.930 . S
H846 C862 0.931 . S
C847 H835 0.929 . S
C847 C841 1.390 . S
C847 C844 1.386 . S
C848 C843 1.490 . S
C848 C850 1.395 . S
C848 C851 1.403 . S
H849 C855 0.930 . S
C850 H836 0.930 . S
C850 C848 1.395 . S
C850 C853 1.403 . S
C851 C848 1.403 . S
C851 C852 1.524 . S
C851 C855 1.400 . S
C852 H837 0.960 . S
C852 H838 0.960 . S
C852 H839 0.960 . S
C852 C851 1.524 . S
C853 C850 1.403 . S
C853 C854 1.392 . S
C853 C857 1.495 . S
C854 C853 1.392 . S
C854 C855 1.385 . S
C854 C856 1.478 . S
C855 H849 0.930 . S
C855 C851 1.400 . S
C855 C854 1.385 . S
C856 C854 1.478 . S
C856 C858 1.381 . S
C856 C862 1.383 . S
C857 C853 1.495 . S
C857 H863 0.959 . S
C857 H864 0.961 . S
C857 H865 0.960 . S
C858 C856 1.381 . S
C858 C859 1.394 . S
C858 H866 0.930 . S
C859 C858 1.394 . S
C859 C860 1.383 . S
C859 H867 0.929 . S
C860 C859 1.383 . S
C860 C861 1.377 . S
C861 H845 0.930 . S
C861 C860 1.377 . S
C861 C862 1.379 . S
C862 H846 0.931 . S
C862 C856 1.383 . S
C862 C861 1.379 . S
H863 C857 0.959 . S
H864 C857 0.961 . S
H865 C857 0.960 . S
H866 C858 0.930 . S
H867 C859 0.929 . S
H868 C876 0.929 . S
H869 C878 0.930 . S
H870 C880 0.930 . S
H871 C883 0.929 . S
H872 C886 0.930 . S
H873 C888 0.960 . S
H874 C888 0.960 . S
H875 C888 0.960 . S
C876 H868 0.929 . S
C876 C877 1.377 . S
C876 C878 1.384 . S
C877 C876 1.377 . S
C877 C883 1.390 . S
C878 H869 0.930 . S
C878 C876 1.384 . S
C878 C879 1.372 . S
C879 C878 1.372 . S
C879 C880 1.400 . S
C879 C884 1.490 . S
C880 H870 0.930 . S
C880 C879 1.400 . S
C880 C883 1.386 . S
H881 C897 0.930 . S
H882 C898 0.931 . S
C883 H871 0.929 . S
C883 C877 1.390 . S
C883 C880 1.386 . S
C884 C879 1.490 . S
C884 C886 1.395 . S
C884 C887 1.403 . S
H885 C891 0.930 . S
C886 H872 0.930 . S
C886 C884 1.395 . S
C886 C889 1.403 . S
C887 C884 1.403 . S
C887 C888 1.524 . S
C887 C891 1.400 . S
C888 H873 0.960 . S
C888 H874 0.960 . S
C888 H875 0.960 . S
C888 C887 1.524 . S
C889 C886 1.403 . S
C889 C890 1.392 . S
C889 C893 1.495 . S
C890 C889 1.392 . S
C890 C891 1.385 . S
C890 C892 1.478 . S
C891 H885 0.930 . S
C891 C887 1.400 . S
C891 C890 1.385 . S
C892 C890 1.478 . S
C892 C894 1.381 . S
C892 C898 1.383 . S
C893 C889 1.495 . S
C893 H899 0.959 . S
C893 H900 0.961 . S
C893 H901 0.960 . S
C894 C892 1.381 . S
C894 C895 1.394 . S
C894 H902 0.930 . S
C895 C894 1.394 . S
C895 C896 1.383 . S
C895 H903 0.929 . S
C896 C895 1.383 . S
C896 C897 1.377 . S
C897 H881 0.930 . S
C897 C896 1.377 . S
C897 C898 1.379 . S
C898 H882 0.931 . S
C898 C892 1.383 . S
C898 C897 1.379 . S
H899 C893 0.959 . S
H900 C893 0.961 . S
H901 C893 0.960 . S
H902 C894 0.930 . S
H903 C895 0.929 . S
H904 C912 0.929 . S
H905 C914 0.930 . S
H906 C916 0.930 . S
H907 C919 0.929 . S
H908 C922 0.930 . S
H909 C924 0.960 . S
H910 C924 0.960 . S
H911 C924 0.960 . S
C912 H904 0.929 . S
C912 C913 1.377 . S
C912 C914 1.384 . S
C913 C912 1.377 . S
C913 C919 1.390 . S
C914 H905 0.930 . S
C914 C912 1.384 . S
C914 C915 1.372 . S
C915 C914 1.372 . S
C915 C916 1.400 . S
C915 C920 1.490 . S
C916 H906 0.930 . S
C916 C915 1.400 . S
C916 C919 1.386 . S
H917 C933 0.930 . S
H918 C934 0.931 . S
C919 H907 0.929 . S
C919 C913 1.390 . S
C919 C916 1.386 . S
C920 C915 1.490 . S
C920 C922 1.395 . S
C920 C923 1.403 . S
H921 C927 0.930 . S
C922 H908 0.930 . S
C922 C920 1.395 . S
C922 C925 1.403 . S
C923 C920 1.403 . S
C923 C924 1.524 . S
C923 C927 1.400 . S
C924 H909 0.960 . S
C924 H910 0.960 . S
C924 H911 0.960 . S
C924 C923 1.524 . S
C925 C922 1.403 . S
C925 C926 1.392 . S
C925 C929 1.495 . S
C926 C925 1.392 . S
C926 C927 1.385 . S
C926 C928 1.478 . S
C927 H921 0.930 . S
C927 C923 1.400 . S
C927 C926 1.385 . S
C928 C926 1.478 . S
C928 C930 1.381 . S
C928 C934 1.383 . S
C929 C925 1.495 . S
C929 H935 0.959 . S
C929 H936 0.961 . S
C929 H937 0.960 . S
C930 C928 1.381 . S
C930 C931 1.394 . S
C930 H938 0.930 . S
C931 C930 1.394 . S
C931 C932 1.383 . S
C931 H939 0.929 . S
C932 C931 1.383 . S
C932 C933 1.377 . S
C933 H917 0.930 . S
C933 C932 1.377 . S
C933 C934 1.379 . S
C934 H918 0.931 . S
C934 C928 1.383 . S
C934 C933 1.379 . S
H935 C929 0.959 . S
H936 C929 0.961 . S
H937 C929 0.960 . S
H938 C930 0.930 . S
H939 C931 0.929 . S
H940 C948 0.929 . S
H941 C950 0.930 . S
H942 C952 0.930 . S
H943 C955 0.929 . S
H944 C958 0.930 . S
H945 C960 0.960 . S
H946 C960 0.960 . S
H947 C960 0.960 . S
C948 H940 0.929 . S
C948 C949 1.377 . S
C948 C950 1.384 . S
C949 C948 1.377 . S
C949 C955 1.390 . S
C950 H941 0.930 . S
C950 C948 1.384 . S
C950 C951 1.372 . S
C951 C950 1.372 . S
C951 C952 1.400 . S
C951 C956 1.490 . S
C952 H942 0.930 . S
C952 C951 1.400 . S
C952 C955 1.386 . S
H953 C969 0.930 . S
H954 C970 0.931 . S
C955 H943 0.929 . S
C955 C949 1.390 . S
C955 C952 1.386 . S
C956 C951 1.490 . S
C956 C958 1.395 . S
C956 C959 1.403 . S
H957 C963 0.930 . S
C958 H944 0.930 . S
C958 C956 1.395 . S
C958 C961 1.403 . S
C959 C956 1.403 . S
C959 C960 1.524 . S
C959 C963 1.400 . S
C960 H945 0.960 . S
C960 H946 0.960 . S
C960 H947 0.960 . S
C960 C959 1.524 . S
C961 C958 1.403 . S
C961 C962 1.392 . S
C961 C965 1.495 . S
C962 C961 1.392 . S
C962 C963 1.385 . S
C962 C964 1.478 . S
C963 H957 0.930 . S
C963 C959 1.400 . S
C963 C962 1.385 . S
C964 C962 1.478 . S
C964 C966 1.381 . S
C964 C970 1.383 . S
C965 C961 1.495 . S
C965 H971 0.959 . S
C965 H972 0.961 . S
C965 H973 0.960 . S
C966 C964 1.381 . S
C966 C967 1.394 . S
C966 H974 0.930 . S
C967 C966 1.394 . S
C967 C968 1.383 . S
C967 H975 0.929 . S
C968 C967 1.383 . S
C968 C969 1.377 . S
C969 H953 0.930 . S
C969 C968 1.377 . S
C969 C970 1.379 . S
C970 H954 0.931 . S
C970 C964 1.383 . S
C970 C969 1.379 . S
H971 C965 0.959 . S
H972 C965 0.961 . S
H973 C965 0.960 . S
H974 C966 0.930 . S
H975 C967 0.929 . S
H976 C984 0.929 . S
H977 C986 0.930 . S
H978 C988 0.930 . S
H979 C991 0.929 . S
H980 C994 0.930 . S
H981 C996 0.960 . S
H982 C996 0.960 . S
H983 C996 0.960 . S
C984 H976 0.929 . S
C984 C985 1.377 . S
C984 C986 1.384 . S
C985 C984 1.377 . S
C985 C991 1.390 . S
C986 H977 0.930 . S
C986 C984 1.384 . S
C986 C987 1.372 . S
C987 C986 1.372 . S
C987 C988 1.400 . S
C987 C992 1.490 . S
C988 H978 0.930 . S
C988 C987 1.400 . S
C988 C991 1.386 . S
H989 C1005 0.930 . S
H990 C1006 0.931 . S
C991 H979 0.929 . S
C991 C985 1.390 . S
C991 C988 1.386 . S
C992 C987 1.490 . S
C992 C994 1.395 . S
C992 C995 1.403 . S
H993 C999 0.930 . S
C994 H980 0.930 . S
C994 C992 1.395 . S
C994 C997 1.403 . S
C995 C992 1.403 . S
C995 C996 1.524 . S
C995 C999 1.400 . S
C996 H981 0.960 . S
C996 H982 0.960 . S
C996 H983 0.960 . S
C996 C995 1.524 . S
C997 C994 1.403 . S
C997 C998 1.392 . S
C997 C1001 1.495 . S
C998 C997 1.392 . S
C998 C999 1.385 . S
C998 C1000 1.478 . S
C999 H993 0.930 . S
C999 C995 1.400 . S
C999 C998 1.385 . S
C1000 C998 1.478 . S
C1000 C1002 1.381 . S
C1000 C1006 1.383 . S
C1001 C997 1.495 . S
C1001 H1007 0.959 . S
C1001 H1008 0.961 . S
C1001 H1009 0.960 . S
C1002 C1000 1.381 . S
C1002 C1003 1.394 . S
C1002 H1010 0.930 . S
C1003 C1002 1.394 . S
C1003 C1004 1.383 . S
C1003 H1011 0.929 . S
C1004 C1003 1.383 . S
C1004 C1005 1.377 . S
C1005 H989 0.930 . S
C1005 C1004 1.377 . S
C1005 C1006 1.379 . S
C1006 H990 0.931 . S
C1006 C1000 1.383 . S
C1006 C1005 1.379 . S
H1007 C1001 0.959 . S
H1008 C1001 0.961 . S
H1009 C1001 0.960 . S
H1010 C1002 0.930 . S
H1011 C1003 0.929 . S
H1012 C1020 0.929 . S
H1013 C1022 0.930 . S
H1014 C1024 0.930 . S
H1015 C1027 0.929 . S
H1016 C1030 0.930 . S
H1017 C1032 0.960 . S
H1018 C1032 0.960 . S
H1019 C1032 0.960 . S
C1020 H1012 0.929 . S
C1020 C1021 1.377 . S
C1020 C1022 1.384 . S
C1021 C1020 1.377 . S
C1021 C1027 1.390 . S
C1022 H1013 0.930 . S
C1022 C1020 1.384 . S
C1022 C1023 1.372 . S
C1023 C1022 1.372 . S
C1023 C1024 1.400 . S
C1023 C1028 1.490 . S
C1024 H1014 0.930 . S
C1024 C1023 1.400 . S
C1024 C1027 1.386 . S
H1025 C1041 0.930 . S
H1026 C1042 0.931 . S
C1027 H1015 0.929 . S
C1027 C1021 1.390 . S
C1027 C1024 1.386 . S
C1028 C1023 1.490 . S
C1028 C1030 1.395 . S
C1028 C1031 1.403 . S
H1029 C1035 0.930 . S
C1030 H1016 0.930 . S
C1030 C1028 1.395 . S
C1030 C1033 1.403 . S
C1031 C1028 1.403 . S
C1031 C1032 1.524 . S
C1031 C1035 1.400 . S
C1032 H1017 0.960 . S
C1032 H1018 0.960 . S
C1032 H1019 0.960 . S
C1032 C1031 1.524 . S
C1033 C1030 1.403 . S
C1033 C1034 1.392 . S
C1033 C1037 1.495 . S
C1034 C1033 1.392 . S
C1034 C1035 1.385 . S
C1034 C1036 1.478 . S
C1035 H1029 0.930 . S
C1035 C1031 1.400 . S
C1035 C1034 1.385 . S
C1036 C1034 1.478 . S
C1036 C1038 1.381 . S
C1036 C1042 1.383 . S
C1037 C1033 1.495 . S
C1037 H1043 0.959 . S
C1037 H1044 0.961 . S
C1037 H1045 0.960 . S
C1038 C1036 1.381 . S
C1038 C1039 1.394 . S
C1038 H1046 0.930 . S
C1039 C1038 1.394 . S
C1039 C1040 1.383 . S
C1039 H1047 0.929 . S
C1040 C1039 1.383 . S
C1040 C1041 1.377 . S
C1041 H1025 0.930 . S
C1041 C1040 1.377 . S
C1041 C1042 1.379 . S
C1042 H1026 0.931 . S
C1042 C1036 1.383 . S
C1042 C1041 1.379 . S
H1043 C1037 0.959 . S
H1044 C1037 0.961 . S
H1045 C1037 0.960 . S
H1046 C1038 0.930 . S
H1047 C1039 0.929 . S
H1048 C1056 0.929 . S
H1049 C1058 0.930 . S
H1050 C1060 0.930 . S
H1051 C1063 0.929 . S
H1052 C1066 0.930 . S
H1053 C1068 0.960 . S
H1054 C1068 0.960 . S
H1055 C1068 0.960 . S
C1056 H1048 0.929 . S
C1056 C1057 1.377 . S
C1056 C1058 1.384 . S
C1057 C1056 1.377 . S
C1057 C1063 1.390 . S
C1058 H1049 0.930 . S
C1058 C1056 1.384 . S
C1058 C1059 1.372 . S
C1059 C1058 1.372 . S
C1059 C1060 1.400 . S
C1059 C1064 1.490 . S
C1060 H1050 0.930 . S
C1060 C1059 1.400 . S
C1060 C1063 1.386 . S
H1061 C1077 0.930 . S
H1062 C1078 0.931 . S
C1063 H1051 0.929 . S
C1063 C1057 1.390 . S
C1063 C1060 1.386 . S
C1064 C1059 1.490 . S
C1064 C1066 1.395 . S
C1064 C1067 1.403 . S
H1065 C1071 0.930 . S
C1066 H1052 0.930 . S
C1066 C1064 1.395 . S
C1066 C1069 1.403 . S
C1067 C1064 1.403 . S
C1067 C1068 1.524 . S
C1067 C1071 1.400 . S
C1068 H1053 0.960 . S
C1068 H1054 0.960 . S
C1068 H1055 0.960 . S
C1068 C1067 1.524 . S
C1069 C1066 1.403 . S
C1069 C1070 1.392 . S
C1069 C1073 1.495 . S
C1070 C1069 1.392 . S
C1070 C1071 1.385 . S
C1070 C1072 1.478 . S
C1071 H1065 0.930 . S
C1071 C1067 1.400 . S
C1071 C1070 1.385 . S
C1072 C1070 1.478 . S
C1072 C1074 1.381 . S
C1072 C1078 1.383 . S
C1073 C1069 1.495 . S
C1073 H1079 0.959 . S
C1073 H1080 0.961 . S
C1073 H1081 0.960 . S
C1074 C1072 1.381 . S
C1074 C1075 1.394 . S
C1074 H1082 0.930 . S
C1075 C1074 1.394 . S
C1075 C1076 1.383 . S
C1075 H1083 0.929 . S
C1076 C1075 1.383 . S
C1076 C1077 1.377 . S
C1077 H1061 0.930 . S
C1077 C1076 1.377 . S
C1077 C1078 1.379 . S
C1078 H1062 0.931 . S
C1078 C1072 1.383 . S
C1078 C1077 1.379 . S
H1079 C1073 0.959 . S
H1080 C1073 0.961 . S
H1081 C1073 0.960 . S
H1082 C1074 0.930 . S
H1083 C1075 0.929 . S
H1084 C1092 0.929 . S
H1085 C1094 0.930 . S
H1086 C1096 0.930 . S
H1087 C1099 0.929 . S
H1088 C1102 0.930 . S
H1089 C1104 0.960 . S
H1090 C1104 0.960 . S
H1091 C1104 0.960 . S
C1092 H1084 0.929 . S
C1092 C1093 1.377 . S
C1092 C1094 1.384 . S
C1093 C1092 1.377 . S
C1093 C1099 1.390 . S
C1094 H1085 0.930 . S
C1094 C1092 1.384 . S
C1094 C1095 1.372 . S
C1095 C1094 1.372 . S
C1095 C1096 1.400 . S
C1095 C1100 1.490 . S
C1096 H1086 0.930 . S
C1096 C1095 1.400 . S
C1096 C1099 1.386 . S
H1097 C1113 0.930 . S
H1098 C1114 0.931 . S
C1099 H1087 0.929 . S
C1099 C1093 1.390 . S
C1099 C1096 1.386 . S
C1100 C1095 1.490 . S
C1100 C1102 1.395 . S
C1100 C1103 1.403 . S
H1101 C1107 0.930 . S
C1102 H1088 0.930 . S
C1102 C1100 1.395 . S
C1102 C1105 1.403 . S
C1103 C1100 1.403 . S
C1103 C1104 1.524 . S
C1103 C1107 1.400 . S
C1104 H1089 0.960 . S
C1104 H1090 0.960 . S
C1104 H1091 0.960 . S
C1104 C1103 1.524 . S
C1105 C1102 1.403 . S
C1105 C1106 1.392 . S
C1105 C1109 1.495 . S
C1106 C1105 1.392 . S
C1106 C1107 1.385 . S
C1106 C1108 1.478 . S
C1107 H1101 0.930 . S
C1107 C1103 1.400 . S
C1107 C1106 1.385 . S
C1108 C1106 1.478 . S
C1108 C1110 1.381 . S
C1108 C1114 1.383 . S
C1109 C1105 1.495 . S
C1109 H1115 0.959 . S
C1109 H1116 0.961 . S
C1109 H1117 0.960 . S
C1110 C1108 1.381 . S
C1110 C1111 1.394 . S
C1110 H1118 0.930 . S
C1111 C1110 1.394 . S
C1111 C1112 1.383 . S
C1111 H1119 0.929 . S
C1112 C1111 1.383 . S
C1112 C1113 1.377 . S
C1113 H1097 0.930 . S
C1113 C1112 1.377 . S
C1113 C1114 1.379 . S
C1114 H1098 0.931 . S
C1114 C1108 1.383 . S
C1114 C1113 1.379 . S
H1115 C1109 0.959 . S
H1116 C1109 0.961 . S
H1117 C1109 0.960 . S
H1118 C1110 0.930 . S
H1119 C1111 0.929 . S
H1120 C1128 0.929 . S
H1121 C1130 0.930 . S
H1122 C1132 0.930 . S
H1123 C1135 0.929 . S
H1124 C1138 0.930 . S
H1125 C1140 0.960 . S
H1126 C1140 0.960 . S
H1127 C1140 0.960 . S
C1128 H1120 0.929 . S
C1128 C1129 1.377 . S
C1128 C1130 1.384 . S
C1129 C1128 1.377 . S
C1129 C1135 1.390 . S
C1130 H1121 0.930 . S
C1130 C1128 1.384 . S
C1130 C1131 1.372 . S
C1131 C1130 1.372 . S
C1131 C1132 1.400 . S
C1131 C1136 1.490 . S
C1132 H1122 0.930 . S
C1132 C1131 1.400 . S
C1132 C1135 1.386 . S
H1133 C1149 0.930 . S
H1134 C1150 0.931 . S
C1135 H1123 0.929 . S
C1135 C1129 1.390 . S
C1135 C1132 1.386 . S
C1136 C1131 1.490 . S
C1136 C1138 1.395 . S
C1136 C1139 1.403 . S
H1137 C1143 0.930 . S
C1138 H1124 0.930 . S
C1138 C1136 1.395 . S
C1138 C1141 1.403 . S
C1139 C1136 1.403 . S
C1139 C1140 1.524 . S
C1139 C1143 1.400 . S
C1140 H1125 0.960 . S
C1140 H1126 0.960 . S
C1140 H1127 0.960 . S
C1140 C1139 1.524 . S
C1141 C1138 1.403 . S
C1141 C1142 1.392 . S
C1141 C1145 1.495 . S
C1142 C1141 1.392 . S
C1142 C1143 1.385 . S
C1142 C1144 1.478 . S
C1143 H1137 0.930 . S
C1143 C1139 1.400 . S
C1143 C1142 1.385 . S
C1144 C1142 1.478 . S
C1144 C1146 1.381 . S
C1144 C1150 1.383 . S
C1145 C1141 1.495 . S
C1145 H1151 0.959 . S
C1145 H1152 0.961 . S
C1145 H1153 0.960 . S
C1146 C1144 1.381 . S
C1146 C1147 1.394 . S
C1146 H1154 0.930 . S
C1147 C1146 1.394 . S
C1147 C1148 1.383 . S
C1147 H1155 0.929 . S
C1148 C1147 1.383 . S
C1148 C1149 1.377 . S
C1149 H1133 0.930 . S
C1149 C1148 1.377 . S
C1149 C1150 1.379 . S
C1150 H1134 0.931 . S
C1150 C1144 1.383 . S
C1150 C1149 1.379 . S
H1151 C1145 0.959 . S
H1152 C1145 0.961 . S
H1153 C1145 0.960 . S
H1154 C1146 0.930 . S
H1155 C1147 0.929 . S
H1156 C1164 0.929 . S
H1157 C1166 0.930 . S
H1158 C1168 0.930 . S
H1159 C1171 0.929 . S
H1160 C1174 0.930 . S
H1161 C1176 0.960 . S
H1162 C1176 0.960 . S
H1163 C1176 0.960 . S
C1164 H1156 0.929 . S
C1164 C1165 1.377 . S
C1164 C1166 1.384 . S
C1165 C1164 1.377 . S
C1165 C1171 1.390 . S
C1166 H1157 0.930 . S
C1166 C1164 1.384 . S
C1166 C1167 1.372 . S
C1167 C1166 1.372 . S
C1167 C1168 1.400 . S
C1167 C1172 1.490 . S
C1168 H1158 0.930 . S
C1168 C1167 1.400 . S
C1168 C1171 1.386 . S
H1169 C1185 0.930 . S
H1170 C1186 0.931 . S
C1171 H1159 0.929 . S
C1171 C1165 1.390 . S
C1171 C1168 1.386 . S
C1172 C1167 1.490 . S
C1172 C1174 1.395 . S
C1172 C1175 1.403 . S
H1173 C1179 0.930 . S
C1174 H1160 0.930 . S
C1174 C1172 1.395 . S
C1174 C1177 1.403 . S
C1175 C1172 1.403 . S
C1175 C1176 1.524 . S
C1175 C1179 1.400 . S
C1176 H1161 0.960 . S
C1176 H1162 0.960 . S
C1176 H1163 0.960 . S
C1176 C1175 1.524 . S
C1177 C1174 1.403 . S
C1177 C1178 1.392 . S
C1177 C1181 1.495 . S
C1178 C1177 1.392 . S
C1178 C1179 1.385 . S
C1178 C1180 1.478 . S
C1179 H1173 0.930 . S
C1179 C1175 1.400 . S
C1179 C1178 1.385 . S
C1180 C1178 1.478 . S
C1180 C1182 1.381 . S
C1180 C1186 1.383 . S
C1181 C1177 1.495 . S
C1181 H1187 0.959 . S
C1181 H1188 0.961 . S
C1181 H1189 0.960 . S
C1182 C1180 1.381 . S
C1182 C1183 1.394 . S
C1182 H1190 0.930 . S
C1183 C1182 1.394 . S
C1183 C1184 1.383 . S
C1183 H1191 0.929 . S
C1184 C1183 1.383 . S
C1184 C1185 1.377 . S
C1185 H1169 0.930 . S
C1185 C1184 1.377 . S
C1185 C1186 1.379 . S
C1186 H1170 0.931 . S
C1186 C1180 1.383 . S
C1186 C1185 1.379 . S
H1187 C1181 0.959 . S
H1188 C1181 0.961 . S
H1189 C1181 0.960 . S
H1190 C1182 0.930 . S
H1191 C1183 0.929 . S
H1192 C1200 0.929 . S
H1193 C1202 0.930 . S
H1194 C1204 0.930 . S
H1195 C1207 0.929 . S
H1196 C1210 0.930 . S
H1197 C1212 0.960 . S
H1198 C1212 0.960 . S
H1199 C1212 0.960 . S
C1200 H1192 0.929 . S
C1200 C1201 1.377 . S
C1200 C1202 1.384 . S
C1201 C1200 1.377 . S
C1201 C1207 1.390 . S
C1202 H1193 0.930 . S
C1202 C1200 1.384 . S
C1202 C1203 1.372 . S
C1203 C1202 1.372 . S
C1203 C1204 1.400 . S
C1203 C1208 1.490 . S
C1204 H1194 0.930 . S
C1204 C1203 1.400 . S
C1204 C1207 1.386 . S
H1205 C1221 0.930 . S
H1206 C1222 0.931 . S
C1207 H1195 0.929 . S
C1207 C1201 1.390 . S
C1207 C1204 1.386 . S
C1208 C1203 1.490 . S
C1208 C1210 1.395 . S
C1208 C1211 1.403 . S
H1209 C1215 0.930 . S
C1210 H1196 0.930 . S
C1210 C1208 1.395 . S
C1210 C1213 1.403 . S
C1211 C1208 1.403 . S
C1211 C1212 1.524 . S
C1211 C1215 1.400 . S
C1212 H1197 0.960 . S
C1212 H1198 0.960 . S
C1212 H1199 0.960 . S
C1212 C1211 1.524 . S
C1213 C1210 1.403 . S
C1213 C1214 1.392 . S
C1213 C1217 1.495 . S
C1214 C1213 1.392 . S
C1214 C1215 1.385 . S
C1214 C1216 1.478 . S
C1215 H1209 0.930 . S
C1215 C1211 1.400 . S
C1215 C1214 1.385 . S
C1216 C1214 1.478 . S
C1216 C1218 1.381 . S
C1216 C1222 1.383 . S
C1217 C1213 1.495 . S
C1217 H1223 0.959 . S
C1217 H1224 0.961 . S
C1217 H1225 0.960 . S
C1218 C1216 1.381 . S
C1218 C1219 1.394 . S
C1218 H1226 0.930 . S
C1219 C1218 1.394 . S
C1219 C1220 1.383 . S
C1219 H1227 0.929 . S
C1220 C1219 1.383 . S
C1220 C1221 1.377 . S
C1221 H1205 0.930 . S
C1221 C1220 1.377 . S
C1221 C1222 1.379 . S
C1222 H1206 0.931 . S
C1222 C1216 1.383 . S
C1222 C1221 1.379 . S
H1223 C1217 0.959 . S
H1224 C1217 0.961 . S
H1225 C1217 0.960 . S
H1226 C1218 0.930 . S
H1227 C1219 0.929 . S
H1228 C1236 0.929 . S
H1229 C1238 0.930 . S
H1230 C1240 0.930 . S
H1231 C1243 0.929 . S
H1232 C1246 0.930 . S
H1233 C1248 0.960 . S
H1234 C1248 0.960 . S
H1235 C1248 0.960 . S
C1236 H1228 0.929 . S
C1236 C1237 1.377 . S
C1236 C1238 1.384 . S
C1237 C1236 1.377 . S
C1237 C1243 1.390 . S
C1238 H1229 0.930 . S
C1238 C1236 1.384 . S
C1238 C1239 1.372 . S
C1239 C1238 1.372 . S
C1239 C1240 1.400 . S
C1239 C1244 1.490 . S
C1240 H1230 0.930 . S
C1240 C1239 1.400 . S
C1240 C1243 1.386 . S
H1241 C1257 0.930 . S
H1242 C1258 0.931 . S
C1243 H1231 0.929 . S
C1243 C1237 1.390 . S
C1243 C1240 1.386 . S
C1244 C1239 1.490 . S
C1244 C1246 1.395 . S
C1244 C1247 1.403 . S
H1245 C1251 0.930 . S
C1246 H1232 0.930 . S
C1246 C1244 1.395 . S
C1246 C1249 1.403 . S
C1247 C1244 1.403 . S
C1247 C1248 1.524 . S
C1247 C1251 1.400 . S
C1248 H1233 0.960 . S
C1248 H1234 0.960 . S
C1248 H1235 0.960 . S
C1248 C1247 1.524 . S
C1249 C1246 1.403 . S
C1249 C1250 1.392 . S
C1249 C1253 1.495 . S
C1250 C1249 1.392 . S
C1250 C1251 1.385 . S
C1250 C1252 1.478 . S
C1251 H1245 0.930 . S
C1251 C1247 1.400 . S
C1251 C1250 1.385 . S
C1252 C1250 1.478 . S
C1252 C1254 1.381 . S
C1252 C1258 1.383 . S
C1253 C1249 1.495 . S
C1253 H1259 0.959 . S
C1253 H1260 0.961 . S
C1253 H1261 0.960 . S
C1254 C1252 1.381 . S
C1254 C1255 1.394 . S
C1254 H1262 0.930 . S
C1255 C1254 1.394 . S
C1255 C1256 1.383 . S
C1255 H1263 0.929 . S
C1256 C1255 1.383 . S
C1256 C1257 1.377 . S
C1257 H1241 0.930 . S
C1257 C1256 1.377 . S
C1257 C1258 1.379 . S
C1258 H1242 0.931 . S
C1258 C1252 1.383 . S
C1258 C1257 1.379 . S
H1259 C1253 0.959 . S
H1260 C1253 0.961 . S
H1261 C1253 0.960 . S
H1262 C1254 0.930 . S
H1263 C1255 0.929 . S
H1264 C1272 0.929 . S
H1265 C1274 0.930 . S
H1266 C1276 0.930 . S
H1267 C1279 0.929 . S
H1268 C1282 0.930 . S
H1269 C1284 0.960 . S
H1270 C1284 0.960 . S
H1271 C1284 0.960 . S
C1272 H1264 0.929 . S
C1272 C1273 1.377 . S
C1272 C1274 1.384 . S
C1273 C1272 1.377 . S
C1273 C1279 1.390 . S
C1274 H1265 0.930 . S
C1274 C1272 1.384 . S
C1274 C1275 1.372 . S
C1275 C1274 1.372 . S
C1275 C1276 1.400 . S
C1275 C1280 1.490 . S
C1276 H1266 0.930 . S
C1276 C1275 1.400 . S
C1276 C1279 1.386 . S
H1277 C1293 0.930 . S
H1278 C1294 0.931 . S
C1279 H1267 0.929 . S
C1279 C1273 1.390 . S
C1279 C1276 1.386 . S
C1280 C1275 1.490 . S
C1280 C1282 1.395 . S
C1280 C1283 1.403 . S
H1281 C1287 0.930 . S
C1282 H1268 0.930 . S
C1282 C1280 1.395 . S
C1282 C1285 1.403 . S
C1283 C1280 1.403 . S
C1283 C1284 1.524 . S
C1283 C1287 1.400 . S
C1284 H1269 0.960 . S
C1284 H1270 0.960 . S
C1284 H1271 0.960 . S
C1284 C1283 1.524 . S
C1285 C1282 1.403 . S
C1285 C1286 1.392 . S
C1285 C1289 1.495 . S
C1286 C1285 1.392 . S
C1286 C1287 1.385 . S
C1286 C1288 1.478 . S
C1287 H1281 0.930 . S
C1287 C1283 1.400 . S
C1287 C1286 1.385 . S
C1288 C1286 1.478 . S
C1288 C1290 1.381 . S
C1288 C1294 1.383 . S
C1289 C1285 1.495 . S
C1289 H1295 0.959 . S
C1289 H1296 0.961 . S
C1289 H1297 0.960 . S
C1290 C1288 1.381 . S
C1290 C1291 1.394 . S
C1290 H1298 0.930 . S
C1291 C1290 1.394 . S
C1291 C1292 1.383 . S
C1291 H1299 0.929 . S
C1292 C1291 1.383 . S
C1292 C1293 1.377 . S
C1293 H1277 0.930 . S
C1293 C1292 1.377 . S
C1293 C1294 1.379 . S
C1294 H1278 0.931 . S
C1294 C1288 1.383 . S
C1294 C1293 1.379 . S
H1295 C1289 0.959 . S
H1296 C1289 0.961 . S
H1297 C1289 0.960 . S
H1298 C1290 0.930 . S
H1299 C1291 0.929 . S
H1300 C1308 0.929 . S
H1301 C1310 0.930 . S
H1302 C1312 0.930 . S
H1303 C1315 0.929 . S
H1304 C1318 0.930 . S
H1305 C1320 0.960 . S
H1306 C1320 0.960 . S
H1307 C1320 0.960 . S
C1308 H1300 0.929 . S
C1308 C1309 1.377 . S
C1308 C1310 1.384 . S
C1309 C1308 1.377 . S
C1309 C1315 1.390 . S
C1310 H1301 0.930 . S
C1310 C1308 1.384 . S
C1310 C1311 1.372 . S
C1311 C1310 1.372 . S
C1311 C1312 1.400 . S
C1311 C1316 1.490 . S
C1312 H1302 0.930 . S
C1312 C1311 1.400 . S
C1312 C1315 1.386 . S
H1313 C1329 0.930 . S
H1314 C1330 0.931 . S
C1315 H1303 0.929 . S
C1315 C1309 1.390 . S
C1315 C1312 1.386 . S
C1316 C1311 1.490 . S
C1316 C1318 1.395 . S
C1316 C1319 1.403 . S
H1317 C1323 0.930 . S
C1318 H1304 0.930 . S
C1318 C1316 1.395 . S
C1318 C1321 1.403 . S
C1319 C1316 1.403 . S
C1319 C1320 1.524 . S
C1319 C1323 1.400 . S
C1320 H1305 0.960 . S
C1320 H1306 0.960 . S
C1320 H1307 0.960 . S
C1320 C1319 1.524 . S
C1321 C1318 1.403 . S
C1321 C1322 1.392 . S
C1321 C1325 1.495 . S
C1322 C1321 1.392 . S
C1322 C1323 1.385 . S
C1322 C1324 1.478 . S
C1323 H1317 0.930 . S
C1323 C1319 1.400 . S
C1323 C1322 1.385 . S
C1324 C1322 1.478 . S
C1324 C1326 1.381 . S
C1324 C1330 1.383 . S
C1325 C1321 1.495 . S
C1325 H1331 0.959 . S
C1325 H1332 0.961 . S
C1325 H1333 0.960 . S
C1326 C1324 1.381 . S
C1326 C1327 1.394 . S
C1326 H1334 0.930 . S
C1327 C1326 1.394 . S
C1327 C1328 1.383 . S
C1327 H1335 0.929 . S
C1328 C1327 1.383 . S
C1328 C1329 1.377 . S
C1329 H1313 0.930 . S
C1329 C1328 1.377 . S
C1329 C1330 1.379 . S
C1330 H1314 0.931 . S
C1330 C1324 1.383 . S
C1330 C1329 1.379 . S
H1331 C1325 0.959 . S
H1332 C1325 0.961 . S
H1333 C1325 0.960 . S
H1334 C1326 0.930 . S
H1335 C1327 0.929 . S
C481 C1 1.191 . S
C500 C318 1.215 . S
C517 C40 0.919 . S
C536 C367 0.922 . S
C572 C402 2.440 . S
C553 C99 2.510 . S
C589 C118 2.340 . S
C608 C441 2.288 . S
C644 C362 2.471 . S
C625 C16 2.396 . S
C680 C321 0.926 . S
C661 C60 0.904 . S
C716 C451 1.883 . S
C697 C79 1.921 . S
C752 C410 1.518 . S
C733 C138 1.532 . S
C769 C21 1.688 . S
C788 C438 1.734 . S
C824 C370 2.322 . S
C805 C94 2.417 . S
C841 C133 2.326 . S
C860 C331 2.313 . S
C877 C55 0.716 . S
C896 C407 0.723 . S
C932 C327 1.246 . S
C913 C157 1.202 . S
C949 C196 0.915 . S
C968 C358 0.928 . S
C985 C255 2.508 . S
C1004 C411 2.464 . S
C1021 C289 2.337 . S
C1040 C450 2.268 . S
C1057 C172 2.386 . S
C1076 C371 2.470 . S
C1112 C330 0.896 . S
C1093 C216 0.898 . S
C1148 C442 1.851 . S
C1129 C235 1.922 . S
C1184 C401 1.479 . S
C1165 C294 1.533 . S
C1201 C177 1.693 . S
C1220 C447 1.731 . S
C1256 C361 2.318 . S
C1237 C250 2.420 . S
C1292 C322 2.301 . S
C1273 C274 2.331 . S
C1309 C211 0.708 . S
C1328 C398 0.715 . S
