# Generated by pormake.
# Topology tsx, (6,3)-cn, num edge types: 1
# Building blocks:
#     Node 0, Type 0, BuildingBlock: VOLQOD_clean_sbu_1, # of connection points: 6
#     Node 1, Type 0, BuildingBlock: VOLQOD_clean_sbu_1, # of connection points: 6
#     Node 2, Type 1, BuildingBlock: VETTIZ_charged_linker_0, # of connection points: 3
#     Node 3, Type 1, BuildingBlock: VETTIZ_charged_linker_0, # of connection points: 3
#     Node 4, Type 1, BuildingBlock: VETTIZ_charged_linker_0, # of connection points: 3
#     Node 5, Type 1, BuildingBlock: VETTIZ_charged_linker_0, # of connection points: 3
#     Edge 6, Type (0, 1), BuildingBlock: FUNLAD_clean_linker_1, # of connection points: 2
#     Edge 7, Type (0, 1), BuildingBlock: FUNLAD_clean_linker_1, # of connection points: 2
#     Edge 8, Type (0, 1), BuildingBlock: FUNLAD_clean_linker_1, # of connection points: 2
#     Edge 9, Type (0, 1), BuildingBlock: FUNLAD_clean_linker_1, # of connection points: 2
#     Edge 10, Type (0, 1), BuildingBlock: FUNLAD_clean_linker_1, # of connection points: 2
#     Edge 11, Type (0, 1), BuildingBlock: FUNLAD_clean_linker_1, # of connection points: 2
#     Edge 12, Type (0, 1), BuildingBlock: FUNLAD_clean_linker_1, # of connection points: 2
#     Edge 13, Type (0, 1), BuildingBlock: FUNLAD_clean_linker_1, # of connection points: 2
#     Edge 14, Type (0, 1), BuildingBlock: FUNLAD_clean_linker_1, # of connection points: 2
#     Edge 15, Type (0, 1), BuildingBlock: FUNLAD_clean_linker_1, # of connection points: 2
#     Edge 16, Type (0, 1), BuildingBlock: FUNLAD_clean_linker_1, # of connection points: 2
#     Edge 17, Type (0, 1), BuildingBlock: FUNLAD_clean_linker_1, # of connection points: 2
# Relax obj value: 0.078
# Max RMSD: 0.110
# Mean RMSD: 0.086
data_MOF--net-tsx--node1-VOLQOD_clean_sbu_1--node2-VETTIZ_charged_linker_0--edge1-FUNLAD_clean_linker_1
_symmetry_space_group_name_H-M    P1
_symmetry_Int_Tables_number       1
_symmetry_cell_setting            triclinic
loop_
_symmetry_equiv_pos_as_xyz
'x, y, z'
_cell_length_a     25.52326
_cell_length_b     26.453229
_cell_length_c     50.81039
_cell_angle_alpha  90.318898
_cell_angle_beta   90.026362
_cell_angle_gamma 89.838459
loop_
_atom_site_label
_atom_site_type_symbol
_atom_site_fract_x
_atom_site_fract_y
_atom_site_fract_z
_atom_type_partial_charge
O0 O 0.06282 0.01014 0.07438 0.0
Zn1 Zn 0.07638 0.00874 0.03535 0.0
O2 O 0.01073 0.00847 0.01562 0.0
Zn3 Zn 0.00454 0.94497 0.99613 0.0
Zn4 Zn 0.95176 0.01503 0.04006 0.0
Zn5 Zn 0.01064 0.06503 0.99098 0.0
O6 O 0.99746 0.95759 0.95721 0.0
O7 O 0.00822 0.0406 0.95315 0.0
O8 O 0.12079 0.94795 0.02692 0.0
O9 O 0.06837 0.90183 0.00146 0.0
O10 O 0.94274 0.90427 0.00811 0.0
O11 O 0.90692 0.95289 0.03907 0.0
O12 O 0.9047 0.07324 0.03036 0.0
O13 O 0.11827 0.07067 0.02729 0.0
O14 O 0.94668 0.10753 0.99657 0.0
O15 O 0.07255 0.11103 0.99665 0.0
C16 C 0.02187 0.01786 0.08812 0.0
C17 C 0.001 0.99695 0.94303 0.0
C18 C 0.90779 0.9124 0.02549 0.0
C19 C 0.11138 0.908 0.01375 0.0
C20 C 0.90841 0.10673 0.01261 0.0
C21 C 0.11208 0.10788 0.01181 0.0
O22 O 0.97687 0.02291 0.07754 0.0
O23 O 0.56381 0.50232 0.57327 0.0
Zn24 Zn 0.57534 0.50296 0.53404 0.0
O25 O 0.50861 0.50307 0.51517 0.0
Zn26 Zn 0.50237 0.43949 0.49561 0.0
Zn27 Zn 0.45094 0.50943 0.54038 0.0
Zn28 Zn 0.50624 0.56037 0.49092 0.0
O29 O 0.49581 0.45288 0.45674 0.0
O30 O 0.50397 0.5363 0.45307 0.0
O31 O 0.62008 0.44266 0.52459 0.0
O32 O 0.56591 0.395 0.50092 0.0
O33 O 0.43936 0.39995 0.50719 0.0
O34 O 0.40487 0.44812 0.53875 0.0
O35 O 0.40477 0.56973 0.53277 0.0
O36 O 0.61566 0.56595 0.52627 0.0
O37 O 0.44141 0.60235 0.49706 0.0
O38 O 0.56779 0.60711 0.49672 0.0
C39 C 0.52339 0.50886 0.58755 0.0
C40 C 0.49818 0.4926 0.44276 0.0
C41 C 0.40465 0.4082 0.52469 0.0
C42 C 0.60989 0.40192 0.51222 0.0
C43 C 0.40559 0.60243 0.51451 0.0
C44 C 0.60803 0.6039 0.51144 0.0
O45 O 0.47796 0.5142 0.57753 0.0
C46 C 0.1214 0.90085 0.45165 0.0
C47 C 0.16007 0.87468 0.4371 0.0
C48 C 0.16228 0.88096 0.40966 0.0
C49 C 0.08706 0.93657 0.41116 0.0
C50 C 0.08554 0.93189 0.43824 0.0
C51 C 0.04264 0.96388 0.45029 0.0
H52 H 0.84366 0.13087 0.43131 0.0
C53 C 0.04445 0.97078 0.40304 0.0
C54 C 0.01835 0.98747 0.42586 0.0
H55 H 0.89929 0.07314 0.50566 0.0
H56 H 0.96364 0.02126 0.48267 0.0
H57 H 0.95606 0.14703 0.40433 0.0
H58 H 0.84247 0.02749 0.40272 0.0
H59 H 0.86995 0.02865 0.37112 0.0
H60 H 0.83483 0.08337 0.38327 0.0
H61 H 0.89372 0.15221 0.38818 0.0
H62 H 0.95022 0.1267 0.37146 0.0
C63 C 0.06838 0.00393 0.46843 0.0
C64 C 0.00387 0.92855 0.4646 0.0
C65 C 0.01246 0.0016 0.30556 0.0
C66 C 0.9748 0.0303 0.29186 0.0
C67 C 0.93728 0.05791 0.30632 0.0
C68 C 0.93742 0.05761 0.33388 0.0
C69 C 0.97531 0.02896 0.34729 0.0
C70 C 0.0119 0.00153 0.33314 0.0
C71 C 0.04848 0.97248 0.35074 0.0
C72 C 0.02745 0.98673 0.37778 0.0
C73 C 0.98483 0.01987 0.37559 0.0
C74 C 0.10488 0.99252 0.34632 0.0
C75 C 0.04132 0.91541 0.3447 0.0
C76 C 0.87038 0.10807 0.44281 0.0
C77 C 0.8677 0.10741 0.47041 0.0
C78 C 0.9014 0.07489 0.48438 0.0
C79 C 0.93867 0.04496 0.47101 0.0
C80 C 0.9416 0.04716 0.44334 0.0
C81 C 0.90724 0.07803 0.42983 0.0
C82 C 0.9139 0.07467 0.40056 0.0
C83 C 0.95909 0.03778 0.39855 0.0
C84 C 0.97543 0.02161 0.42359 0.0
C85 C 0.92894 0.12782 0.39036 0.0
C86 C 0.86273 0.05278 0.38859 0.0
H87 H 0.12965 0.91401 0.37567 0.0
H88 H 0.11947 0.89799 0.47287 0.0
H89 H 0.99744 0.89333 0.45298 0.0
H90 H 0.96463 0.94552 0.46708 0.0
H91 H 0.01918 0.91753 0.48423 0.0
H92 H 0.10493 0.01871 0.45941 0.0
H93 H 0.07886 0.98745 0.48781 0.0
H94 H 0.04338 0.03744 0.4717 0.0
H95 H 0.0411 0.97866 0.29527 0.0
H96 H 0.90769 0.07995 0.29622 0.0
H97 H 0.90785 0.07963 0.34365 0.0
H98 H 0.10455 0.03258 0.33974 0.0
H99 H 0.12576 0.97002 0.33106 0.0
H100 H 0.12846 0.99297 0.3646 0.0
H101 H -0.00075 0.90642 0.34141 0.0
H102 H 0.0536 0.89078 0.36104 0.0
H103 H 0.06313 0.90417 0.32667 0.0
H104 H 0.19189 0.86146 0.39813 0.0
C105 C 0.12599 0.91142 0.39663 0.0
C106 C 0.13069 0.08134 0.56845 0.0
C107 C 0.16464 0.11722 0.5796 0.0
C108 C 0.16463 0.12433 0.60717 0.0
C109 C 0.09545 0.06269 0.6117 0.0
C110 C 0.09626 0.05483 0.58478 0.0
C111 C 0.05688 0.01589 0.57615 0.0
H112 H 0.85918 0.85745 0.60732 0.0
C113 C 0.05466 0.02997 0.62302 0.0
C114 C 0.03177 0.00254 0.60233 0.0
H115 H 0.93243 0.87863 0.53154 0.0
H116 H 0.99131 0.94035 0.55046 0.0
H117 H 0.96524 0.8511 0.63812 0.0
H118 H 0.86055 0.9774 0.62715 0.0
H119 H 0.87906 0.9751 0.66054 0.0
H120 H 0.84367 0.92289 0.64625 0.0
H121 H 0.90462 0.85648 0.6558 0.0
H122 H 0.96409 0.88538 0.66776 0.0
C123 C 0.08692 0.97044 0.56388 0.0
C124 C 0.01752 0.04168 0.55723 0.0
C125 C 0.02339 0.03227 0.72169 0.0
C126 C 0.98878 0.00632 0.73829 0.0
C127 C 0.95205 0.97282 0.72683 0.0
C128 C 0.95036 0.96532 0.69944 0.0
C129 C 0.98585 0.99117 0.68324 0.0
C130 C 0.02133 0.02419 0.69447 0.0
C131 C 0.05637 0.04825 0.67437 0.0
C132 C 0.03667 0.02361 0.64923 0.0
C133 C 0.99532 0.99027 0.65448 0.0
C134 C 0.11373 0.03289 0.68058 0.0
C135 C 0.04587 0.10602 0.67481 0.0
C136 C 0.88716 0.87631 0.59474 0.0
C137 C 0.89051 0.86447 0.56777 0.0
C138 C 0.92895 0.88788 0.55227 0.0
C139 C 0.96304 0.92357 0.56332 0.0
C140 C 0.95926 0.9352 0.5903 0.0
C141 C 0.92218 0.91131 0.6056 0.0
C142 C 0.9266 0.92555 0.63425 0.0
C143 C 0.97178 0.96271 0.63351 0.0
C144 C 0.9903 0.96852 0.60766 0.0
C145 C 0.9405 0.87732 0.65001 0.0
C146 C 0.87477 0.95137 0.64274 0.0
H147 H 0.13202 0.10474 0.64395 0.0
H148 H 0.13039 0.07459 0.54739 0.0
H149 H 0.0068 0.08001 0.56461 0.0
H150 H 0.98012 0.02117 0.55541 0.0
H151 H 0.0347 0.04604 0.53728 0.0
H152 H 0.12713 0.96703 0.57218 0.0
H153 H 0.09084 0.9745 0.54222 0.0
H154 H 0.06825 0.93376 0.56826 0.0
H155 H 0.05215 0.05812 0.72977 0.0
H156 H 0.92498 0.95157 0.73874 0.0
H157 H 0.92178 0.93927 0.69196 0.0
H158 H 0.11566 0.99371 0.68839 0.0
H159 H 0.13124 0.05843 0.69559 0.0
H160 H 0.13911 0.03219 0.66298 0.0
H161 H 0.00404 0.11431 0.67931 0.0
H162 H 0.05283 0.1241 0.65559 0.0
H163 H 0.07004 0.12518 0.69005 0.0
H164 H 0.19169 0.15022 0.61653 0.0
C165 C 0.13016 0.09743 0.62319 0.0
C166 C 0.60869 0.40122 0.95451 0.0
C167 C 0.64228 0.36761 0.9413 0.0
C168 C 0.63927 0.36307 0.9137 0.0
C169 C 0.57021 0.42579 0.91277 0.0
C170 C 0.57238 0.4293 0.93992 0.0
C171 C 0.53165 0.46489 0.95083 0.0
H172 H 0.34059 0.63637 0.92789 0.0
C173 C 0.52931 0.46076 0.90343 0.0
C174 C 0.5061 0.48337 0.92562 0.0
H175 H 0.39315 0.58037 0.00317 0.0
H176 H 0.4551 0.52473 0.98116 0.0
H177 H 0.45536 0.64312 0.90007 0.0
H178 H 0.33326 0.53143 0.90111 0.0
H179 H 0.35997 0.52963 0.86932 0.0
H180 H 0.32888 0.58687 0.88106 0.0
H181 H 0.39334 0.65155 0.88398 0.0
H182 H 0.44741 0.62062 0.8677 0.0
C183 C 0.5601 0.50801 0.96573 0.0
C184 C 0.49315 0.43418 0.96811 0.0
C185 C 0.503 0.48669 0.80517 0.0
C186 C 0.46876 0.51768 0.79061 0.0
C187 C 0.43255 0.54845 0.80416 0.0
C188 C 0.43102 0.54936 0.8317 0.0
C189 C 0.46588 0.51879 0.84599 0.0
C190 C 0.50084 0.48792 0.83272 0.0
C191 C 0.53396 0.45707 0.85118 0.0
C192 C 0.5133 0.47486 0.87771 0.0
C193 C 0.47367 0.5111 0.8745 0.0
C194 C 0.59191 0.47228 0.84697 0.0
C195 C 0.52234 0.4003 0.84612 0.0
C196 C 0.36618 0.61295 0.9397 0.0
C197 C 0.36336 0.6137 0.96731 0.0
C198 C 0.39543 0.58078 0.98188 0.0
C199 C 0.4312 0.54861 0.96906 0.0
C200 C 0.43409 0.54892 0.9414 0.0
C201 C 0.40139 0.58033 0.92724 0.0
C202 C 0.40755 0.5739 0.89803 0.0
C203 C 0.44978 0.53364 0.89688 0.0
C204 C 0.46558 0.51954 0.9223 0.0
C205 C 0.42658 0.62485 0.88661 0.0
C206 C 0.35479 0.55481 0.88656 0.0
H207 H 0.60332 0.38723 0.87841 0.0
H208 H 0.61012 0.40493 0.97575 0.0
H209 H 0.4916 0.39383 0.96185 0.0
H210 H 0.45223 0.44768 0.96636 0.0
H211 H 0.50496 0.43507 0.98915 0.0
H212 H 0.59408 0.52178 0.95411 0.0
H213 H 0.57512 0.49469 0.98503 0.0
H214 H 0.53503 0.54141 0.96917 0.0
H215 H 0.5302 0.46121 0.79552 0.0
H216 H 0.40546 0.57218 0.79335 0.0
H217 H 0.40269 0.57386 0.84079 0.0
H218 H 0.5954 0.51395 0.84467 0.0
H219 H 0.60809 0.45422 0.82892 0.0
H220 H 0.61742 0.4628 0.86376 0.0
H221 H 0.4818 0.3947 0.8386 0.0
H222 H 0.52409 0.37753 0.8643 0.0
H223 H 0.5497 0.38397 0.83134 0.0
H224 H 0.66544 0.33786 0.90312 0.0
C225 C 0.60347 0.39204 0.89938 0.0
C226 C 0.63222 0.58861 0.07042 0.0
C227 C 0.66612 0.62388 0.08214 0.0
C228 C 0.66482 0.63064 0.10972 0.0
C229 C 0.59486 0.56956 0.11315 0.0
C230 C 0.59678 0.56218 0.08622 0.0
C231 C 0.55765 0.52354 0.07697 0.0
H232 H 0.36074 0.36257 0.10563 0.0
C233 C 0.55361 0.53665 0.12388 0.0
C234 C 0.53155 0.50964 0.10281 0.0
H235 H 0.43543 0.38657 0.03044 0.0
H236 H 0.49283 0.44878 0.05013 0.0
H237 H 0.46569 0.35713 0.13716 0.0
H238 H 0.35932 0.48198 0.1259 0.0
H239 H 0.37713 0.47996 0.15937 0.0
H240 H 0.34289 0.42721 0.14489 0.0
H241 H 0.40426 0.36117 0.15422 0.0
H242 H 0.46273 0.39062 0.16701 0.0
C243 C 0.58801 0.47831 0.06467 0.0
C244 C 0.51901 0.54985 0.05788 0.0
C245 C 0.5191 0.53617 0.22225 0.0
C246 C 0.48419 0.50949 0.23837 0.0
C247 C 0.44787 0.47628 0.22635 0.0
C248 C 0.44703 0.46964 0.19891 0.0
C249 C 0.48293 0.49608 0.1832 0.0
C250 C 0.51788 0.52895 0.19496 0.0
C251 C 0.55351 0.55364 0.17535 0.0
C252 C 0.53475 0.52961 0.14988 0.0
C253 C 0.49339 0.49597 0.15454 0.0
C254 C 0.61073 0.53833 0.18195 0.0
C255 C 0.54275 0.61135 0.1761 0.0
C256 C 0.38866 0.38215 0.09332 0.0
C257 C 0.39289 0.37093 0.06631 0.0
C258 C 0.43128 0.39531 0.0512 0.0
C259 C 0.46451 0.43127 0.06269 0.0
C260 C 0.45992 0.44215 0.08972 0.0
C261 C 0.42276 0.41743 0.10462 0.0
C262 C 0.42605 0.4311 0.13336 0.0
C263 C 0.47075 0.46877 0.1332 0.0
C264 C 0.49005 0.47535 0.10755 0.0
C265 C 0.44004 0.38268 0.14896 0.0
C266 C 0.37361 0.45614 0.14156 0.0
H267 H 0.63027 0.6108 0.14601 0.0
H268 H 0.63289 0.58214 0.04934 0.0
H269 H 0.50805 0.588 0.06544 0.0
H270 H 0.48167 0.5294 0.05558 0.0
H271 H 0.53692 0.55472 0.03813 0.0
H272 H 0.62794 0.47466 0.07326 0.0
H273 H 0.59259 0.48284 0.04307 0.0
H274 H 0.56916 0.44155 0.06867 0.0
H275 H 0.54754 0.56185 0.23076 0.0
H276 H 0.42048 0.45461 0.23786 0.0
H277 H 0.41878 0.44371 0.19099 0.0
H278 H 0.61251 0.49916 0.18979 0.0
H279 H 0.62781 0.56391 0.19707 0.0
H280 H 0.63656 0.53761 0.16452 0.0
H281 H 0.50061 0.61931 0.17999 0.0
H282 H 0.55089 0.63007 0.15717 0.0
H283 H 0.56584 0.63011 0.19189 0.0
H284 H 0.69177 0.65601 0.11953 0.0
C285 C 0.6293 0.60386 0.1252 0.0
H286 H 0.13573 0.18703 0.00554 0.0
C287 C 0.1484 0.15094 0.0135 0.0
H288 H 0.20617 0.11176 0.03496 0.0
H289 H 0.30582 0.34177 0.00943 0.0
H290 H 0.29781 0.32068 0.96311 0.0
H291 H 0.25853 0.23983 0.94899 0.0
H292 H 0.22566 0.18035 0.98112 0.0
C293 C 0.1939 0.14772 0.0267 0.0
C294 C 0.22348 0.19368 0.03469 0.0
C295 C 0.24531 0.22649 0.01564 0.0
C296 C 0.2711 0.27152 0.02382 0.0
C297 C 0.28861 0.3057 0.00437 0.0
C298 C 0.28382 0.29427 0.97769 0.0
C299 C 0.26148 0.24888 0.96974 0.0
C300 C 0.2424 0.21523 0.9884 0.0
H301 H 0.37817 0.30576 0.03998 0.0
C302 C 0.36 0.33142 0.05409 0.0
H303 H 0.29066 0.35245 0.07383 0.0
H304 H 0.18339 0.14056 0.07641 0.0
H305 H 0.19539 0.15951 0.12264 0.0
H306 H 0.24689 0.23354 0.13684 0.0
H307 H 0.28578 0.2895 0.10489 0.0
C308 C 0.30907 0.32626 0.06009 0.0
C309 C 0.27839 0.28168 0.05105 0.0
C310 C 0.25712 0.24852 0.07008 0.0
C311 C 0.22898 0.20491 0.0619 0.0
C312 C 0.20642 0.1735 0.08139 0.0
C313 C 0.21282 0.18401 0.10807 0.0
C314 C 0.24168 0.22573 0.11606 0.0
C315 C 0.26368 0.25769 0.09743 0.0
H316 H 0.19292 0.88059 0.01502 0.0
C317 C 0.15258 0.86931 0.01151 0.0
H318 H 0.1013 0.81033 0.00084 0.0
H319 H 0.26143 0.69187 0.93001 0.0
H320 H 0.19357 0.71475 0.89898 0.0
H321 H 0.12101 0.77116 0.91218 0.0
H322 H 0.11557 0.80435 0.95654 0.0
C323 C 0.14166 0.82159 0.00431 0.0
C324 C 0.18407 0.78547 0.99714 0.0
C325 C 0.18688 0.76698 0.97093 0.0
C326 C 0.22945 0.73568 0.96312 0.0
C327 C 0.2307 0.71679 0.93694 0.0
C328 C 0.19184 0.72946 0.91889 0.0
C329 C 0.15095 0.76112 0.92633 0.0
C330 C 0.1483 0.77982 0.95197 0.0
H331 H 0.30385 0.63233 0.99761 0.0
C332 C 0.32522 0.64699 0.98081 0.0
H333 H 0.33748 0.70877 0.95555 0.0
H334 H 0.18506 0.80626 0.05004 0.0
H335 H 0.25459 0.78585 0.08083 0.0
H336 H 0.33317 0.73905 0.06615 0.0
H337 H 0.34202 0.71129 0.02082 0.0
C338 C 0.31545 0.69393 0.97209 0.0
C339 C 0.26973 0.72388 0.98135 0.0
C340 C 0.26657 0.74174 0.00767 0.0
C341 C 0.22277 0.77127 0.01577 0.0
C342 C 0.21874 0.7859 0.04255 0.0
C343 C 0.25817 0.77408 0.06047 0.0
C344 C 0.3023 0.74755 0.05223 0.0
C345 C 0.30671 0.73153 0.02616 0.0
H346 H 0.83778 0.88299 0.04533 0.0
C347 C 0.86811 0.87373 0.03104 0.0
H348 H 0.9012 0.81597 0.00722 0.0
H349 H 0.80604 0.66023 0.09066 0.0
H350 H 0.89899 0.65393 0.10042 0.0
H351 H 0.96289 0.7085 0.07786 0.0
H352 H 0.93422 0.76973 0.04542 0.0
C353 C 0.86994 0.82706 0.02059 0.0
C354 C 0.83308 0.788 0.0301 0.0
C355 C 0.8508 0.75153 0.04838 0.0
C356 C 0.81404 0.72013 0.06136 0.0
C357 C 0.8324 0.68504 0.08022 0.0
C358 C 0.88562 0.68101 0.08599 0.0
C359 C 0.92159 0.71173 0.07328 0.0
C360 C 0.90462 0.74674 0.05472 0.0
H361 H 0.71503 0.63576 0.04663 0.0
C362 C 0.70319 0.65226 0.06537 0.0
H363 H 0.70827 0.71698 0.09001 0.0
H364 H 0.78796 0.84814 0.99281 0.0
H365 H 0.6952 0.85274 0.98205 0.0
H366 H 0.63114 0.79886 0.00495 0.0
H367 H 0.65941 0.73992 0.03867 0.0
C368 C 0.72127 0.6981 0.07215 0.0
C369 C 0.75993 0.72506 0.05575 0.0
C370 C 0.74263 0.75899 0.03611 0.0
C371 C 0.77939 0.7904 0.02314 0.0
C372 C 0.76136 0.82405 0.00355 0.0
C373 C 0.70835 0.82687 0.99712 0.0
C374 C 0.67228 0.79649 0.01 0.0
C375 C 0.68898 0.76289 0.02932 0.0
H376 H 0.82597 0.13108 0.01531 0.0
C377 C 0.86475 0.14226 0.00874 0.0
H378 H 0.91014 0.19611 0.98875 0.0
H379 H 0.741 0.26862 0.90889 0.0
H380 H 0.80763 0.23245 0.88061 0.0
H381 H 0.88266 0.18596 0.8993 0.0
H382 H 0.89164 0.17572 0.94629 0.0
C383 C 0.87119 0.18526 0.99523 0.0
C384 C 0.82565 0.21356 0.98449 0.0
C385 C 0.82028 0.21785 0.95679 0.0
C386 C 0.77622 0.24327 0.94599 0.0
C387 C 0.77287 0.2486 0.91827 0.0
C388 C 0.811 0.22815 0.90172 0.0
C389 C 0.85324 0.20204 0.91223 0.0
C390 C 0.85799 0.19671 0.93937 0.0
H391 H 0.70368 0.3584 0.97156 0.0
C392 C 0.68179 0.33886 0.95624 0.0
H393 H 0.6687 0.27032 0.93607 0.0
H394 H 0.82789 0.21907 0.0384 0.0
H395 H 0.75831 0.25007 0.06678 0.0
H396 H 0.67647 0.28416 0.04794 0.0
H397 H 0.66451 0.28891 0.00069 0.0
C398 C 0.69135 0.28987 0.9511 0.0
C399 C 0.73679 0.26298 0.96287 0.0
C400 C 0.74147 0.2575 0.99056 0.0
C401 C 0.787 0.23457 0.0014 0.0
C402 C 0.79282 0.23351 0.02912 0.0
C403 C 0.75336 0.25156 0.04563 0.0
C404 C 0.70742 0.27099 0.03503 0.0
C405 C 0.70128 0.27394 0.00784 0.0
H406 H 0.63047 0.68357 0.50552 0.0
C407 C 0.64353 0.64762 0.51348 0.0
H408 H 0.70118 0.6093 0.53545 0.0
H409 H 0.80312 0.83831 0.51121 0.0
H410 H 0.79645 0.81769 0.46478 0.0
H411 H 0.75626 0.73762 0.45012 0.0
H412 H 0.72112 0.67848 0.4818 0.0
C413 C 0.68864 0.64507 0.52707 0.0
C414 C 0.71739 0.69134 0.53538 0.0
C415 C 0.74039 0.72398 0.51661 0.0
C416 C 0.76669 0.76851 0.52513 0.0
C417 C 0.7855 0.80255 0.50592 0.0
C418 C 0.78147 0.79141 0.47917 0.0
C419 C 0.75862 0.74645 0.47092 0.0
C420 C 0.73826 0.71298 0.48932 0.0
H421 H 0.87396 0.79921 0.54181 0.0
C422 C 0.85655 0.82541 0.55588 0.0
H423 H 0.78777 0.84849 0.57551 0.0
H424 H 0.674 0.63914 0.57654 0.0
H425 H 0.68387 0.65799 0.62292 0.0
H426 H 0.73606 0.73108 0.63779 0.0
H427 H 0.77782 0.78621 0.60635 0.0
C428 C 0.80544 0.82171 0.56183 0.0
C429 C 0.7733 0.77831 0.55244 0.0
C430 C 0.75023 0.74569 0.57119 0.0
C431 C 0.72162 0.7026 0.56265 0.0
C432 C 0.69742 0.67165 0.58183 0.0
C433 C 0.70257 0.68211 0.60859 0.0
C434 C 0.73183 0.72332 0.61695 0.0
C435 C 0.75551 0.75479 0.59861 0.0
H436 H 0.69164 0.37474 0.51244 0.0
C437 C 0.65112 0.363 0.51008 0.0
H438 H 0.59952 0.30254 0.50275 0.0
H439 H 0.75563 0.1706 0.43584 0.0
H440 H 0.68493 0.18629 0.40513 0.0
H441 H 0.61255 0.24424 0.41669 0.0
H442 H 0.61017 0.28629 0.45905 0.0
C443 C 0.64007 0.31427 0.50495 0.0
C444 C 0.68222 0.27676 0.49898 0.0
C445 C 0.68313 0.25284 0.47392 0.0
C446 C 0.72556 0.22052 0.46697 0.0
C447 C 0.72507 0.19649 0.44196 0.0
C448 C 0.68456 0.20497 0.42414 0.0
C449 C 0.64378 0.23749 0.43067 0.0
C450 C 0.64289 0.26131 0.45518 0.0
H451 H 0.80875 0.12355 0.50158 0.0
C452 C 0.8282 0.13894 0.48438 0.0
H453 H 0.83497 0.20076 0.45858 0.0
H454 H 0.6867 0.30706 0.55058 0.0
H455 H 0.75824 0.2923 0.5811 0.0
H456 H 0.83582 0.24276 0.56757 0.0
H457 H 0.84174 0.20665 0.5237 0.0
C458 C 0.8148 0.18504 0.47548 0.0
C459 C 0.7676 0.21295 0.48481 0.0
C460 C 0.76578 0.23522 0.51023 0.0
C461 C 0.72229 0.26605 0.51757 0.0
C462 C 0.71996 0.28547 0.54357 0.0
C463 C 0.76055 0.27691 0.56135 0.0
C464 C 0.80414 0.24885 0.55376 0.0
C465 C 0.80696 0.22817 0.52853 0.0
H466 H 0.3368 0.37778 0.54589 0.0
C467 C 0.36408 0.37019 0.5299 0.0
H468 H 0.38888 0.31705 0.5012 0.0
H469 H 0.30304 0.14073 0.57434 0.0
H470 H 0.3961 0.12246 0.57303 0.0
H471 H 0.45704 0.17884 0.54967 0.0
H472 H 0.42522 0.25394 0.52757 0.0
C473 C 0.36103 0.32617 0.51669 0.0
C474 C 0.32343 0.28689 0.52539 0.0
C475 C 0.34256 0.24223 0.53735 0.0
C476 C 0.30737 0.20949 0.5506 0.0
C477 C 0.32779 0.16649 0.5636 0.0
C478 C 0.38122 0.15563 0.56308 0.0
C479 C 0.41554 0.18739 0.54995 0.0
C480 C 0.39672 0.23038 0.53733 0.0
H481 H 0.21159 0.12964 0.54347 0.0
C482 C 0.20023 0.14613 0.56228 0.0
H483 H 0.20334 0.21167 0.58627 0.0
H484 H 0.27332 0.36325 0.49935 0.0
H485 H 0.17961 0.37991 0.49908 0.0
H486 H 0.11859 0.32397 0.52271 0.0
H487 H 0.15084 0.25089 0.5466 0.0
C488 C 0.21748 0.19249 0.56871 0.0
C489 C 0.25317 0.22131 0.55141 0.0
C490 C 0.23363 0.26374 0.53763 0.0
C491 C 0.26878 0.29634 0.52436 0.0
C492 C 0.24829 0.33807 0.51035 0.0
C493 C 0.19462 0.34782 0.50988 0.0
C494 C 0.16026 0.3163 0.52317 0.0
C495 C 0.17929 0.27463 0.53688 0.0
H496 H 0.33058 0.63704 0.52707 0.0
C497 C 0.3626 0.6398 0.51305 0.0
H498 H 0.39178 0.67731 0.47956 0.0
H499 H 0.17121 0.74373 0.437 0.0
H500 H 0.18939 0.67207 0.4084 0.0
H501 H 0.26487 0.61599 0.41689 0.0
H502 H 0.32214 0.63088 0.4542 0.0
C503 C 0.36091 0.67526 0.49424 0.0
C504 C 0.31403 0.70783 0.49032 0.0
C505 C 0.28129 0.69887 0.46826 0.0
C506 C 0.23853 0.73181 0.46302 0.0
C507 C 0.20536 0.72094 0.44136 0.0
C508 C 0.21506 0.67966 0.42491 0.0
C509 C 0.25749 0.64805 0.42972 0.0
C510 C 0.29018 0.65717 0.45117 0.0
H511 H 0.23491 0.83312 0.4382 0.0
C512 C 0.19918 0.84056 0.44929 0.0
H513 H 0.15551 0.81893 0.4829 0.0
H514 H 0.36813 0.73488 0.53477 0.0
H515 H 0.34877 0.80574 0.56374 0.0
H516 H 0.27448 0.86288 0.55455 0.0
H517 H 0.21911 0.84955 0.51624 0.0
C518 C 0.19083 0.81383 0.47129 0.0
C519 C 0.22963 0.77467 0.47937 0.0
C520 C 0.26061 0.78213 0.50218 0.0
C521 C 0.30313 0.74882 0.50762 0.0
C522 C 0.33481 0.7584 0.52996 0.0
C523 C 0.32425 0.79909 0.54669 0.0
C524 C 0.28244 0.8313 0.5415 0.0
C525 C 0.25099 0.82325 0.51947 0.0
H526 H 0.06608 0.01345 0.12534 0.0
C527 C 0.02741 0.01996 0.11699 0.0
H528 H 0.94748 0.03378 0.1252 0.0
H529 H 0.95772 0.93857 0.2389 0.0
H530 H 0.90553 0.87649 0.21549 0.0
H531 H 0.89267 0.88239 0.16749 0.0
H532 H 0.93207 0.95031 0.1426 0.0
C533 C 0.98669 0.02877 0.13313 0.0
C534 C 0.99303 0.02688 0.16223 0.0
C535 C 0.96887 0.98742 0.17655 0.0
C536 C 0.97581 0.98432 0.20426 0.0
C537 C 0.95273 0.9435 0.21793 0.0
C538 C 0.92292 0.90737 0.20471 0.0
C539 C 0.91573 0.91066 0.17768 0.0
C540 C 0.93849 0.94998 0.16365 0.0
H541 H 0.93497 0.04247 0.25372 0.0
C542 C 0.97181 0.03086 0.26266 0.0
H543 H 0.05074 0.01085 0.25465 0.0
H544 H 0.04091 0.11008 0.14114 0.0
H545 H 0.09388 0.17154 0.16453 0.0
H546 H 0.10753 0.16492 0.21246 0.0
H547 H 0.06804 0.09684 0.23729 0.0
C548 C 0.01218 0.01909 0.24675 0.0
C549 C 0.00624 0.02114 0.21765 0.0
C550 C 0.03057 0.06047 0.20335 0.0
C551 C 0.02346 0.06374 0.17564 0.0
C552 C 0.04633 0.10476 0.16205 0.0
C553 C 0.07651 0.1406 0.17528 0.0
C554 C 0.08414 0.13691 0.20227 0.0
C555 C 0.06133 0.09756 0.21627 0.0
H556 H 0.98919 0.95302 0.90654 0.0
C557 C 0.99575 0.99092 0.91425 0.0
H558 H 0.00287 0.06829 0.90481 0.0
H559 H 0.04399 0.93895 0.79255 0.0
H560 H 0.12175 0.906 0.81385 0.0
H561 H 0.14178 0.92783 0.86003 0.0
H562 H 0.08351 0.98185 0.88531 0.0
C563 C -0.00183 0.02993 0.89745 0.0
C564 C 0.99018 0.02216 0.86863 0.0
C565 C 0.02615 0.99265 0.85372 0.0
C566 C 0.01609 0.98232 0.82668 0.0
C567 C 0.05084 0.94994 0.81279 0.0
C568 C 0.0955 0.93043 0.82483 0.0
C569 C 0.10665 0.94255 0.85085 0.0
C570 C 0.0726 0.9733 0.86521 0.0
H571 H 0.02721 0.03664 0.77406 0.0
C572 C 0.99418 0.01414 0.76725 0.0
H573 H 0.92688 0.9743 0.78016 0.0
H574 H 0.91377 0.08095 0.89129 0.0
H575 H 0.838 0.11694 0.8694 0.0
H576 H 0.82302 0.10252 0.82202 0.0
H577 H 0.88329 0.05136 0.79623 0.0
C578 C 0.96192 0.99489 0.78558 0.0
C579 C 0.97164 0.00388 0.81417 0.0
C580 C 0.9364 0.03436 0.82891 0.0
C581 C 0.94557 0.0434 0.85617 0.0
C582 C 0.90914 0.0733 0.87048 0.0
C583 C 0.86544 0.09422 0.85817 0.0
C584 C 0.85694 0.08601 0.83149 0.0
C585 C 0.89184 0.0565 0.81693 0.0
H586 H 0.56856 0.50155 0.6244 0.0
C587 C 0.52984 0.50918 0.61638 0.0
H588 H 0.45038 0.5241 0.62515 0.0
H589 H 0.45505 0.42463 0.73741 0.0
H590 H 0.40268 0.36417 0.71293 0.0
H591 H 0.39246 0.37147 0.66482 0.0
H592 H 0.43464 0.43914 0.64091 0.0
C593 C 0.4896 0.51787 0.63284 0.0
C594 C 0.49601 0.51414 0.66186 0.0
C595 C 0.47048 0.47469 0.67556 0.0
C596 C 0.47596 0.47072 0.70331 0.0
C597 C 0.45124 0.43011 0.71642 0.0
C598 C 0.42132 0.39493 0.70258 0.0
C599 C 0.4156 0.39901 0.67549 0.0
C600 C 0.43993 0.4382 0.66202 0.0
H601 H 0.43274 0.53057 0.75162 0.0
C602 C 0.46824 0.51769 0.76141 0.0
H603 H 0.54708 0.49499 0.75537 0.0
H604 H 0.54733 0.59661 0.64196 0.0
H605 H 0.60097 0.65592 0.66641 0.0
H606 H 0.61227 0.64756 0.71442 0.0
H607 H 0.5697 0.57987 0.73825 0.0
C608 C 0.50964 0.50446 0.74652 0.0
C609 C 0.50643 0.50661 0.71734 0.0
C610 C 0.53271 0.54553 0.70362 0.0
C611 C 0.52699 0.54975 0.67587 0.0
C612 C 0.55162 0.59053 0.66287 0.0
C613 C 0.58223 0.62515 0.67671 0.0
C614 C 0.58853 0.62049 0.70375 0.0
C615 C 0.56394 0.5814 0.71717 0.0
H616 H 0.48721 0.44912 0.40606 0.0
C617 C 0.49303 0.48698 0.41397 0.0
H618 H 0.49841 0.5647 0.40501 0.0
H619 H 0.54026 0.44012 0.29148 0.0
H620 H 0.61909 0.40793 0.31211 0.0
H621 H 0.6394 0.42831 0.35843 0.0
H622 H 0.58038 0.48009 0.38452 0.0
C623 C 0.49444 0.52641 0.39742 0.0
C624 C 0.48596 0.51922 0.36862 0.0
C625 C 0.52228 0.49098 0.35328 0.0
C626 C 0.51199 0.48151 0.32618 0.0
C627 C 0.54721 0.45043 0.3118 0.0
C628 C 0.59249 0.43137 0.32345 0.0
C629 C 0.60381 0.44266 0.34956 0.0
C630 C 0.56933 0.47214 0.36438 0.0
H631 H 0.52125 0.53926 0.2746 0.0
C632 C 0.48895 0.51621 0.26742 0.0
H633 H 0.42298 0.47358 0.2797 0.0
H634 H 0.40852 0.57525 0.39225 0.0
H635 H 0.3316 0.61052 0.37111 0.0
H636 H 0.31594 0.59743 0.32364 0.0
H637 H 0.37694 0.54859 0.29706 0.0
C638 C 0.45725 0.49506 0.2854 0.0
C639 C 0.46687 0.50266 0.31409 0.0
C640 C 0.4311 0.53166 0.3293 0.0
C641 C 0.44057 0.53985 0.3566 0.0
C642 C 0.40369 0.56834 0.37138 0.0
C643 C 0.35928 0.58876 0.3595 0.0
C644 C 0.35044 0.58135 0.33279 0.0
C645 C 0.38576 0.55318 0.31776 0.0
loop_
_geom_bond_atom_site_label_1
_geom_bond_atom_site_label_2
_geom_bond_distance
_geom_bond_site_symmetry_2
_ccdc_geom_bond_type
O0 Zn1 1.953 . S
O0 C16 1.225 1_565 S
Zn1 O0 1.953 . S
Zn1 O2 1.949 1_565 S
Zn1 O8 1.919 . S
Zn1 O13 1.924 1_565 S
O2 Zn1 1.949 1_545 S
O2 Zn3 1.923 1_444 S
O2 Zn4 1.950 1_455 S
O2 Zn5 1.945 1_554 S
Zn3 O2 1.923 1_666 S
Zn3 O6 1.933 . S
Zn3 O9 1.941 1_655 S
Zn3 O10 1.961 1_556 S
Zn4 O2 1.950 1_655 S
Zn4 O11 1.938 1_545 S
Zn4 O12 1.906 . S
Zn4 O22 1.953 . S
Zn5 O2 1.945 1_556 S
Zn5 O7 1.932 . S
Zn5 O14 1.977 1_455 S
Zn5 O15 1.910 1_556 S
O6 Zn3 1.933 . S
O6 C17 1.226 1_665 S
O7 Zn5 1.932 . S
O7 C17 1.307 . S
O8 Zn1 1.919 . S
O8 C19 1.253 . S
O9 Zn3 1.941 1_455 S
O9 C19 1.283 1_556 S
O10 Zn3 1.961 1_554 S
O10 C18 1.320 . S
O11 Zn4 1.938 1_565 S
O11 C18 1.247 . S
O12 Zn4 1.906 . S
O12 C20 1.304 . S
O13 Zn1 1.924 1_545 S
O13 C21 1.311 . S
O14 Zn5 1.977 1_655 S
O14 C20 1.272 1_556 S
O15 Zn5 1.910 1_554 S
O15 C21 1.231 . S
C16 O0 1.225 1_545 S
C16 O22 1.298 1_455 S
C17 O6 1.226 1_445 S
C17 O7 1.307 . S
C18 O10 1.320 . S
C18 O11 1.247 . S
C19 O8 1.253 . S
C19 O9 1.283 1_554 S
C20 O12 1.304 . S
C20 O14 1.272 1_554 S
C21 O13 1.311 . S
C21 O15 1.231 . S
O22 Zn4 1.953 . S
O22 C16 1.298 1_655 S
O23 Zn24 1.953 . S
O23 C39 1.225 . S
Zn24 O23 1.953 . S
Zn24 O25 1.949 . S
Zn24 O31 1.919 . S
Zn24 O36 1.924 . S
O25 Zn24 1.949 . S
O25 Zn26 1.923 . S
O25 Zn27 1.950 . S
O25 Zn28 1.945 . S
Zn26 O25 1.923 . S
Zn26 O29 1.933 . S
Zn26 O32 1.941 . S
Zn26 O33 1.965 . S
Zn27 O25 1.950 . S
Zn27 O34 1.938 . S
Zn27 O35 1.906 . S
Zn27 O45 1.953 . S
Zn28 O25 1.945 . S
Zn28 O30 1.932 . S
Zn28 O37 1.977 . S
Zn28 O38 1.910 . S
O29 Zn26 1.933 . S
O29 C40 1.226 . S
O30 Zn28 1.932 . S
O30 C40 1.307 . S
O31 Zn24 1.919 . S
O31 C42 1.253 . S
O32 Zn26 1.941 . S
O32 C42 1.283 . S
O33 Zn26 1.965 . S
O33 C41 1.303 . S
O34 Zn27 1.938 . S
O34 C41 1.247 . S
O35 Zn27 1.906 . S
O35 C43 1.304 . S
O36 Zn24 1.924 . S
O36 C44 1.311 . S
O37 Zn28 1.977 . S
O37 C43 1.272 . S
O38 Zn28 1.910 . S
O38 C44 1.231 . S
C39 O23 1.225 . S
C39 O45 1.298 . S
C40 O29 1.226 . S
C40 O30 1.307 . S
C41 O33 1.303 . S
C41 O34 1.247 . S
C42 O31 1.253 . S
C42 O32 1.283 . S
C43 O35 1.304 . S
C43 O37 1.272 . S
C44 O36 1.311 . S
C44 O38 1.231 . S
O45 Zn27 1.953 . S
O45 C39 1.298 . S
C46 C47 1.391 . S
C46 C50 1.391 . S
C46 H88 0.948 . S
C47 C46 1.391 . S
C47 C48 1.391 . S
C48 C47 1.391 . S
C48 H104 0.947 . S
C48 C105 1.392 . S
C49 C50 1.391 . S
C49 C53 1.397 . S
C49 C105 1.419 . S
C50 C46 1.391 . S
C50 C49 1.391 . S
C50 C51 1.399 . S
C51 C50 1.399 . S
C51 C54 1.396 . S
C51 C63 1.453 1_565 S
C51 C64 1.684 1_455 S
H52 C76 0.948 . S
C53 C49 1.397 . S
C53 C54 1.394 . S
C53 C72 1.723 . S
C54 C51 1.396 . S
C54 C53 1.394 . S
C54 C84 1.723 1_465 S
H55 C78 0.947 . S
H56 C79 0.948 . S
H57 C85 0.982 . S
H58 C86 0.979 . S
H59 C86 0.980 . S
H60 C86 0.983 . S
H61 C85 0.979 . S
H62 C85 0.977 . S
C63 C51 1.453 1_545 S
C63 H92 0.982 . S
C63 H93 0.979 1_545 S
C63 H94 0.977 . S
C64 C51 1.684 1_655 S
C64 H89 0.979 . S
C64 H90 0.980 . S
C64 H91 0.983 1_655 S
C65 C66 1.391 1_465 S
C65 C70 1.391 . S
C65 H95 0.948 . S
C66 C65 1.391 1_645 S
C66 C67 1.391 . S
C67 C66 1.391 . S
C67 C68 1.392 . S
C67 H96 0.947 . S
C68 C67 1.392 . S
C68 C69 1.419 . S
C68 H97 0.948 . S
C69 C68 1.419 . S
C69 C70 1.391 1_645 S
C69 C73 1.397 . S
C70 C65 1.391 . S
C70 C69 1.391 1_465 S
C70 C71 1.399 . S
C71 C70 1.399 . S
C71 C72 1.396 . S
C71 C74 1.453 . S
C71 C75 1.684 . S
C72 C53 1.723 . S
C72 C71 1.396 . S
C72 C73 1.394 1_465 S
C73 C69 1.397 . S
C73 C72 1.394 1_645 S
C73 C83 1.723 . S
C74 C71 1.453 . S
C74 H98 0.982 . S
C74 H99 0.979 . S
C74 H100 0.977 . S
C75 C71 1.684 . S
C75 H101 0.979 . S
C75 H102 0.980 . S
C75 H103 0.983 . S
C76 H52 0.948 . S
C76 C77 1.391 . S
C76 C81 1.391 . S
C77 C76 1.391 . S
C77 C78 1.391 . S
C78 H55 0.947 . S
C78 C77 1.391 . S
C78 C79 1.392 . S
C79 H56 0.948 . S
C79 C78 1.392 . S
C79 C80 1.419 . S
C80 C79 1.419 . S
C80 C81 1.391 . S
C80 C84 1.397 . S
C81 C76 1.391 . S
C81 C80 1.391 . S
C81 C82 1.399 . S
C82 C81 1.399 . S
C82 C83 1.396 . S
C82 C85 1.453 . S
C82 C86 1.684 . S
C83 C73 1.723 . S
C83 C82 1.396 . S
C83 C84 1.394 . S
C84 C54 1.723 1_645 S
C84 C80 1.397 . S
C84 C83 1.394 . S
C85 H57 0.982 . S
C85 H61 0.979 . S
C85 H62 0.977 . S
C85 C82 1.453 . S
C86 H58 0.979 . S
C86 H59 0.980 . S
C86 H60 0.983 . S
C86 C82 1.684 . S
H87 C105 0.948 . S
H88 C46 0.948 . S
H89 C64 0.979 . S
H90 C64 0.980 . S
H91 C64 0.983 1_455 S
H92 C63 0.982 . S
H93 C63 0.979 1_565 S
H94 C63 0.977 . S
H95 C65 0.948 . S
H96 C67 0.947 . S
H97 C68 0.948 . S
H98 C74 0.982 . S
H99 C74 0.979 . S
H100 C74 0.977 . S
H101 C75 0.979 . S
H102 C75 0.980 . S
H103 C75 0.983 . S
H104 C48 0.947 . S
C105 C48 1.392 . S
C105 C49 1.419 . S
C105 H87 0.948 . S
C106 C107 1.391 . S
C106 C110 1.391 . S
C106 H148 0.948 . S
C107 C106 1.391 . S
C107 C108 1.391 . S
C108 C107 1.391 . S
C108 H164 0.947 . S
C108 C165 1.392 . S
C109 C110 1.391 . S
C109 C113 1.397 . S
C109 C165 1.419 . S
C110 C106 1.391 . S
C110 C109 1.391 . S
C110 C111 1.399 . S
C111 C110 1.399 . S
C111 C114 1.396 . S
C111 C123 1.454 . S
C111 C124 1.693 . S
H112 C136 0.948 . S
C113 C109 1.397 . S
C113 C114 1.394 . S
C113 C132 1.723 . S
C114 C111 1.396 . S
C114 C113 1.394 . S
C114 C144 1.723 1_445 S
H115 C138 0.947 . S
H116 C139 0.948 . S
H117 C145 0.982 . S
H118 C146 0.979 . S
H119 C146 0.980 . S
H120 C146 0.983 . S
H121 C145 0.979 . S
H122 C145 0.977 . S
C123 C111 1.454 . S
C123 H152 0.982 1_545 S
C123 H153 0.979 . S
C123 H154 0.976 1_545 S
C124 C111 1.693 . S
C124 H149 0.970 1_455 S
C124 H150 0.972 1_455 S
C124 H151 0.990 . S
C125 C126 1.391 . S
C125 C130 1.391 . S
C125 H155 0.948 . S
C126 C125 1.391 . S
C126 C127 1.391 1_445 S
C127 C126 1.391 1_665 S
C127 C128 1.392 . S
C127 H156 0.947 . S
C128 C127 1.392 . S
C128 C129 1.419 1_655 S
C128 H157 0.948 . S
C129 C128 1.419 1_455 S
C129 C130 1.391 1_565 S
C129 C133 1.397 . S
C130 C125 1.391 . S
C130 C129 1.391 1_545 S
C130 C131 1.399 . S
C131 C130 1.399 . S
C131 C132 1.396 . S
C131 C134 1.453 . S
C131 C135 1.684 . S
C132 C113 1.723 . S
C132 C131 1.396 . S
C132 C133 1.394 1_545 S
C133 C129 1.397 . S
C133 C132 1.394 1_565 S
C133 C143 1.723 1_455 S
C134 C131 1.453 . S
C134 H158 0.982 . S
C134 H159 0.979 . S
C134 H160 0.977 . S
C135 C131 1.684 . S
C135 H161 0.979 . S
C135 H162 0.980 . S
C135 H163 0.983 . S
C136 H112 0.948 . S
C136 C137 1.391 . S
C136 C141 1.391 . S
C137 C136 1.391 . S
C137 C138 1.391 . S
C138 H115 0.947 . S
C138 C137 1.391 . S
C138 C139 1.392 . S
C139 H116 0.948 . S
C139 C138 1.392 . S
C139 C140 1.419 . S
C140 C139 1.419 . S
C140 C141 1.391 . S
C140 C144 1.397 . S
C141 C136 1.391 . S
C141 C140 1.391 . S
C141 C142 1.399 . S
C142 C141 1.399 . S
C142 C143 1.396 . S
C142 C145 1.453 . S
C142 C146 1.684 . S
C143 C133 1.723 1_655 S
C143 C142 1.396 . S
C143 C144 1.394 . S
C144 C114 1.723 1_665 S
C144 C140 1.397 . S
C144 C143 1.394 . S
C145 H117 0.982 . S
C145 H121 0.979 . S
C145 H122 0.977 . S
C145 C142 1.453 . S
C146 H118 0.979 . S
C146 H119 0.980 . S
C146 H120 0.983 . S
C146 C142 1.684 . S
H147 C165 0.948 . S
H148 C106 0.948 . S
H149 C124 0.970 1_655 S
H150 C124 0.972 1_655 S
H151 C124 0.990 . S
H152 C123 0.982 1_565 S
H153 C123 0.979 . S
H154 C123 0.976 1_565 S
H155 C125 0.948 . S
H156 C127 0.947 . S
H157 C128 0.948 . S
H158 C134 0.982 . S
H159 C134 0.979 . S
H160 C134 0.977 . S
H161 C135 0.979 . S
H162 C135 0.980 . S
H163 C135 0.983 . S
H164 C108 0.947 . S
C165 C108 1.392 . S
C165 C109 1.419 . S
C165 H147 0.948 . S
C166 C167 1.391 . S
C166 C170 1.391 . S
C166 H208 0.948 . S
C167 C166 1.391 . S
C167 C168 1.391 . S
C168 C167 1.391 . S
C168 H224 0.947 . S
C168 C225 1.392 . S
C169 C170 1.391 . S
C169 C173 1.397 . S
C169 C225 1.419 . S
C170 C166 1.391 . S
C170 C169 1.391 . S
C170 C171 1.399 . S
C171 C170 1.399 . S
C171 C174 1.396 . S
C171 C183 1.453 . S
C171 C184 1.684 . S
H172 C196 0.948 . S
C173 C169 1.397 . S
C173 C174 1.394 . S
C173 C192 1.723 . S
C174 C171 1.396 . S
C174 C173 1.394 . S
C174 C204 1.723 . S
H175 C198 0.947 . S
H176 C199 0.948 . S
H177 C205 0.982 . S
H178 C206 0.979 . S
H179 C206 0.980 . S
H180 C206 0.983 . S
H181 C205 0.979 . S
H182 C205 0.977 . S
C183 C171 1.453 . S
C183 H212 0.982 . S
C183 H213 0.979 . S
C183 H214 0.977 . S
C184 C171 1.684 . S
C184 H209 0.979 . S
C184 H210 0.980 . S
C184 H211 0.983 . S
C185 C186 1.391 . S
C185 C190 1.391 . S
C185 H215 0.948 . S
C186 C185 1.391 . S
C186 C187 1.391 . S
C187 C186 1.391 . S
C187 C188 1.392 . S
C187 H216 0.947 . S
C188 C187 1.392 . S
C188 C189 1.419 . S
C188 H217 0.948 . S
C189 C188 1.419 . S
C189 C190 1.391 . S
C189 C193 1.397 . S
C190 C185 1.391 . S
C190 C189 1.391 . S
C190 C191 1.399 . S
C191 C190 1.399 . S
C191 C192 1.396 . S
C191 C194 1.453 . S
C191 C195 1.684 . S
C192 C173 1.723 . S
C192 C191 1.396 . S
C192 C193 1.394 . S
C193 C189 1.397 . S
C193 C192 1.394 . S
C193 C203 1.723 . S
C194 C191 1.453 . S
C194 H218 0.982 . S
C194 H219 0.979 . S
C194 H220 0.977 . S
C195 C191 1.684 . S
C195 H221 0.979 . S
C195 H222 0.980 . S
C195 H223 0.983 . S
C196 H172 0.948 . S
C196 C197 1.391 . S
C196 C201 1.391 . S
C197 C196 1.391 . S
C197 C198 1.391 . S
C198 H175 0.947 . S
C198 C197 1.391 . S
C198 C199 1.392 . S
C199 H176 0.948 . S
C199 C198 1.392 . S
C199 C200 1.419 . S
C200 C199 1.419 . S
C200 C201 1.391 . S
C200 C204 1.397 . S
C201 C196 1.391 . S
C201 C200 1.391 . S
C201 C202 1.399 . S
C202 C201 1.399 . S
C202 C203 1.396 . S
C202 C205 1.453 . S
C202 C206 1.684 . S
C203 C193 1.723 . S
C203 C202 1.396 . S
C203 C204 1.394 . S
C204 C174 1.723 . S
C204 C200 1.397 . S
C204 C203 1.394 . S
C205 H177 0.982 . S
C205 H181 0.979 . S
C205 H182 0.977 . S
C205 C202 1.453 . S
C206 H178 0.979 . S
C206 H179 0.980 . S
C206 H180 0.983 . S
C206 C202 1.684 . S
H207 C225 0.948 . S
H208 C166 0.948 . S
H209 C184 0.979 . S
H210 C184 0.980 . S
H211 C184 0.983 . S
H212 C183 0.982 . S
H213 C183 0.979 . S
H214 C183 0.977 . S
H215 C185 0.948 . S
H216 C187 0.947 . S
H217 C188 0.948 . S
H218 C194 0.982 . S
H219 C194 0.979 . S
H220 C194 0.977 . S
H221 C195 0.979 . S
H222 C195 0.980 . S
H223 C195 0.983 . S
H224 C168 0.947 . S
C225 C168 1.392 . S
C225 C169 1.419 . S
C225 H207 0.948 . S
C226 C227 1.391 . S
C226 C230 1.391 . S
C226 H268 0.948 . S
C227 C226 1.391 . S
C227 C228 1.391 . S
C228 C227 1.391 . S
C228 H284 0.947 . S
C228 C285 1.392 . S
C229 C230 1.391 . S
C229 C233 1.397 . S
C229 C285 1.419 . S
C230 C226 1.391 . S
C230 C229 1.391 . S
C230 C231 1.399 . S
C231 C230 1.399 . S
C231 C234 1.396 . S
C231 C243 1.453 . S
C231 C244 1.684 . S
H232 C256 0.948 . S
C233 C229 1.397 . S
C233 C234 1.394 . S
C233 C252 1.723 . S
C234 C231 1.396 . S
C234 C233 1.394 . S
C234 C264 1.723 . S
H235 C258 0.947 . S
H236 C259 0.948 . S
H237 C265 0.982 . S
H238 C266 0.979 . S
H239 C266 0.980 . S
H240 C266 0.983 . S
H241 C265 0.979 . S
H242 C265 0.977 . S
C243 C231 1.453 . S
C243 H272 0.982 . S
C243 H273 0.979 . S
C243 H274 0.977 . S
C244 C231 1.684 . S
C244 H269 0.979 . S
C244 H270 0.980 . S
C244 H271 0.983 . S
C245 C246 1.391 . S
C245 C250 1.391 . S
C245 H275 0.948 . S
C246 C245 1.391 . S
C246 C247 1.391 . S
C247 C246 1.391 . S
C247 C248 1.392 . S
C247 H276 0.947 . S
C248 C247 1.392 . S
C248 C249 1.419 . S
C248 H277 0.948 . S
C249 C248 1.419 . S
C249 C250 1.391 . S
C249 C253 1.397 . S
C250 C245 1.391 . S
C250 C249 1.391 . S
C250 C251 1.399 . S
C251 C250 1.399 . S
C251 C252 1.396 . S
C251 C254 1.453 . S
C251 C255 1.684 . S
C252 C233 1.723 . S
C252 C251 1.396 . S
C252 C253 1.394 . S
C253 C249 1.397 . S
C253 C252 1.394 . S
C253 C263 1.723 . S
C254 C251 1.453 . S
C254 H278 0.982 . S
C254 H279 0.979 . S
C254 H280 0.977 . S
C255 C251 1.684 . S
C255 H281 0.979 . S
C255 H282 0.980 . S
C255 H283 0.983 . S
C256 H232 0.948 . S
C256 C257 1.391 . S
C256 C261 1.391 . S
C257 C256 1.391 . S
C257 C258 1.391 . S
C258 H235 0.947 . S
C258 C257 1.391 . S
C258 C259 1.392 . S
C259 H236 0.948 . S
C259 C258 1.392 . S
C259 C260 1.419 . S
C260 C259 1.419 . S
C260 C261 1.391 . S
C260 C264 1.397 . S
C261 C256 1.391 . S
C261 C260 1.391 . S
C261 C262 1.399 . S
C262 C261 1.399 . S
C262 C263 1.396 . S
C262 C265 1.453 . S
C262 C266 1.684 . S
C263 C253 1.723 . S
C263 C262 1.396 . S
C263 C264 1.394 . S
C264 C234 1.723 . S
C264 C260 1.397 . S
C264 C263 1.394 . S
C265 H237 0.982 . S
C265 H241 0.979 . S
C265 H242 0.977 . S
C265 C262 1.453 . S
C266 H238 0.979 . S
C266 H239 0.980 . S
C266 H240 0.983 . S
C266 C262 1.684 . S
H267 C285 0.948 . S
H268 C226 0.948 . S
H269 C244 0.979 . S
H270 C244 0.980 . S
H271 C244 0.983 . S
H272 C243 0.982 . S
H273 C243 0.979 . S
H274 C243 0.977 . S
H275 C245 0.948 . S
H276 C247 0.947 . S
H277 C248 0.948 . S
H278 C254 0.982 . S
H279 C254 0.979 . S
H280 C254 0.977 . S
H281 C255 0.979 . S
H282 C255 0.980 . S
H283 C255 0.983 . S
H284 C228 0.947 . S
C285 C228 1.392 . S
C285 C229 1.419 . S
C285 H267 0.948 . S
H286 C287 0.951 . S
C287 H286 0.951 . S
C287 C293 1.265 . S
H288 C293 0.950 . S
H289 C297 0.949 . S
H290 C298 0.950 . S
H291 C299 0.951 . S
H292 C300 0.951 . S
C293 C287 1.265 . S
C293 H288 0.950 . S
C293 C294 1.478 . S
C294 C293 1.478 . S
C294 C295 1.397 . S
C294 C311 1.394 . S
C295 C294 1.397 . S
C295 C296 1.438 . S
C295 C300 1.429 1_554 S
C296 C295 1.438 . S
C296 C297 1.428 . S
C296 C309 1.394 . S
C297 H289 0.949 . S
C297 C296 1.428 . S
C297 C298 1.345 1_554 S
C298 H290 0.950 . S
C298 C297 1.345 1_556 S
C298 C299 1.424 . S
C299 H291 0.951 . S
C299 C298 1.424 . S
C299 C300 1.347 . S
C300 H292 0.951 . S
C300 C295 1.429 1_556 S
C300 C299 1.347 . S
H301 C302 0.951 . S
C302 H301 0.951 . S
C302 C308 1.265 . S
H303 C308 0.950 . S
H304 C312 0.949 . S
H305 C313 0.950 . S
H306 C314 0.951 . S
H307 C315 0.951 . S
C308 C302 1.265 . S
C308 H303 0.950 . S
C308 C309 1.478 . S
C309 C296 1.394 . S
C309 C308 1.478 . S
C309 C310 1.397 . S
C310 C309 1.397 . S
C310 C311 1.438 . S
C310 C315 1.429 . S
C311 C294 1.394 . S
C311 C310 1.438 . S
C311 C312 1.428 . S
C312 H304 0.949 . S
C312 C311 1.428 . S
C312 C313 1.345 . S
C313 H305 0.950 . S
C313 C312 1.345 . S
C313 C314 1.424 . S
C314 H306 0.951 . S
C314 C313 1.424 . S
C314 C315 1.347 . S
C315 H307 0.951 . S
C315 C310 1.429 . S
C315 C314 1.347 . S
H316 C317 0.951 . S
C317 H316 0.951 . S
C317 C323 1.270 . S
H318 C323 0.935 1_554 S
H319 C327 0.949 . S
H320 C328 0.950 . S
H321 C329 0.951 . S
H322 C330 0.951 . S
C323 C317 1.270 . S
C323 H318 0.935 1_556 S
C323 C324 1.487 . S
C324 C323 1.487 . S
C324 C325 1.397 . S
C324 C341 1.394 . S
C325 C324 1.397 . S
C325 C326 1.438 . S
C325 C330 1.429 . S
C326 C325 1.438 . S
C326 C327 1.428 . S
C326 C339 1.394 . S
C327 H319 0.949 . S
C327 C326 1.428 . S
C327 C328 1.345 . S
C328 H320 0.950 . S
C328 C327 1.345 . S
C328 C329 1.424 . S
C329 H321 0.951 . S
C329 C328 1.424 . S
C329 C330 1.347 . S
C330 H322 0.951 . S
C330 C325 1.429 . S
C330 C329 1.347 . S
H331 C332 0.951 . S
C332 H331 0.951 . S
C332 C338 1.265 . S
H333 C338 0.950 . S
H334 C342 0.949 . S
H335 C343 0.950 . S
H336 C344 0.951 . S
H337 C345 0.951 . S
C338 C332 1.265 . S
C338 H333 0.950 . S
C338 C339 1.478 . S
C339 C326 1.394 . S
C339 C338 1.478 . S
C339 C340 1.397 . S
C340 C339 1.397 . S
C340 C341 1.438 . S
C340 C345 1.429 . S
C341 C324 1.394 . S
C341 C340 1.438 . S
C341 C342 1.428 1_556 S
C342 H334 0.949 . S
C342 C341 1.428 1_554 S
C342 C343 1.345 . S
C343 H335 0.950 . S
C343 C342 1.345 . S
C343 C344 1.424 . S
C344 H336 0.951 . S
C344 C343 1.424 . S
C344 C345 1.347 1_554 S
C345 H337 0.951 . S
C345 C340 1.429 . S
C345 C344 1.347 1_556 S
H346 C347 0.951 . S
C347 H346 0.951 . S
C347 C353 1.265 . S
H348 C353 0.950 . S
H349 C357 0.949 . S
H350 C358 0.950 . S
H351 C359 0.951 . S
H352 C360 0.951 . S
C353 C347 1.265 . S
C353 H348 0.950 . S
C353 C354 1.478 . S
C354 C353 1.478 . S
C354 C355 1.397 . S
C354 C371 1.394 . S
C355 C354 1.397 . S
C355 C356 1.438 . S
C355 C360 1.429 . S
C356 C355 1.438 . S
C356 C357 1.428 . S
C356 C369 1.394 . S
C357 H349 0.949 . S
C357 C356 1.428 . S
C357 C358 1.345 . S
C358 H350 0.950 . S
C358 C357 1.345 . S
C358 C359 1.424 . S
C359 H351 0.951 . S
C359 C358 1.424 . S
C359 C360 1.347 . S
C360 H352 0.951 . S
C360 C355 1.429 . S
C360 C359 1.347 . S
H361 C362 0.951 . S
C362 H361 0.951 . S
C362 C368 1.265 . S
H363 C368 0.950 . S
H364 C372 0.949 1_556 S
H365 C373 0.950 . S
H366 C374 0.951 . S
H367 C375 0.951 . S
C368 C362 1.265 . S
C368 H363 0.950 . S
C368 C369 1.478 . S
C369 C356 1.394 . S
C369 C368 1.478 . S
C369 C370 1.397 . S
C370 C369 1.397 . S
C370 C371 1.438 . S
C370 C375 1.429 . S
C371 C354 1.394 . S
C371 C370 1.438 . S
C371 C372 1.428 . S
C372 H364 0.949 1_554 S
C372 C371 1.428 . S
C372 C373 1.345 1_554 S
C373 H365 0.950 . S
C373 C372 1.345 1_556 S
C373 C374 1.424 . S
C374 H366 0.951 . S
C374 C373 1.424 . S
C374 C375 1.347 1_556 S
C375 H367 0.951 . S
C375 C370 1.429 . S
C375 C374 1.347 1_554 S
H376 C377 0.951 . S
C377 H376 0.951 . S
C377 C383 1.265 . S
H378 C383 0.950 . S
H379 C387 0.949 . S
H380 C388 0.950 . S
H381 C389 0.951 . S
H382 C390 0.951 . S
C383 C377 1.265 . S
C383 H378 0.950 . S
C383 C384 1.478 . S
C384 C383 1.478 . S
C384 C385 1.397 . S
C384 C401 1.394 1_556 S
C385 C384 1.397 . S
C385 C386 1.438 . S
C385 C390 1.429 . S
C386 C385 1.438 . S
C386 C387 1.428 . S
C386 C399 1.394 . S
C387 H379 0.949 . S
C387 C386 1.428 . S
C387 C388 1.345 . S
C388 H380 0.950 . S
C388 C387 1.345 . S
C388 C389 1.424 . S
C389 H381 0.951 . S
C389 C388 1.424 . S
C389 C390 1.347 . S
C390 H382 0.951 . S
C390 C385 1.429 . S
C390 C389 1.347 . S
H391 C392 0.951 . S
C392 H391 0.951 . S
C392 C398 1.265 . S
H393 C398 0.950 . S
H394 C402 0.949 . S
H395 C403 0.950 . S
H396 C404 0.951 . S
H397 C405 0.951 . S
C398 C392 1.265 . S
C398 H393 0.950 . S
C398 C399 1.478 . S
C399 C386 1.394 . S
C399 C398 1.478 . S
C399 C400 1.397 . S
C400 C399 1.397 . S
C400 C401 1.438 1_556 S
C400 C405 1.429 1_556 S
C401 C384 1.394 1_554 S
C401 C400 1.438 1_554 S
C401 C402 1.428 . S
C402 H394 0.949 . S
C402 C401 1.428 . S
C402 C403 1.345 . S
C403 H395 0.950 . S
C403 C402 1.345 . S
C403 C404 1.424 . S
C404 H396 0.951 . S
C404 C403 1.424 . S
C404 C405 1.347 . S
C405 H397 0.951 . S
C405 C400 1.429 1_554 S
C405 C404 1.347 . S
H406 C407 0.951 . S
C407 H406 0.951 . S
C407 C413 1.265 . S
H408 C413 0.950 . S
H409 C417 0.949 . S
H410 C418 0.950 . S
H411 C419 0.951 . S
H412 C420 0.951 . S
C413 C407 1.265 . S
C413 H408 0.950 . S
C413 C414 1.478 . S
C414 C413 1.478 . S
C414 C415 1.397 . S
C414 C431 1.394 . S
C415 C414 1.397 . S
C415 C416 1.438 . S
C415 C420 1.429 . S
C416 C415 1.438 . S
C416 C417 1.428 . S
C416 C429 1.394 . S
C417 H409 0.949 . S
C417 C416 1.428 . S
C417 C418 1.345 . S
C418 H410 0.950 . S
C418 C417 1.345 . S
C418 C419 1.424 . S
C419 H411 0.951 . S
C419 C418 1.424 . S
C419 C420 1.347 . S
C420 H412 0.951 . S
C420 C415 1.429 . S
C420 C419 1.347 . S
H421 C422 0.951 . S
C422 H421 0.951 . S
C422 C428 1.265 . S
H423 C428 0.950 . S
H424 C432 0.949 . S
H425 C433 0.950 . S
H426 C434 0.951 . S
H427 C435 0.951 . S
C428 C422 1.265 . S
C428 H423 0.950 . S
C428 C429 1.478 . S
C429 C416 1.394 . S
C429 C428 1.478 . S
C429 C430 1.397 . S
C430 C429 1.397 . S
C430 C431 1.438 . S
C430 C435 1.429 . S
C431 C414 1.394 . S
C431 C430 1.438 . S
C431 C432 1.428 . S
C432 H424 0.949 . S
C432 C431 1.428 . S
C432 C433 1.345 . S
C433 H425 0.950 . S
C433 C432 1.345 . S
C433 C434 1.424 . S
C434 H426 0.951 . S
C434 C433 1.424 . S
C434 C435 1.347 . S
C435 H427 0.951 . S
C435 C430 1.429 . S
C435 C434 1.347 . S
H436 C437 0.951 . S
C437 H436 0.951 . S
C437 C443 1.265 . S
H438 C443 0.950 . S
H439 C447 0.949 . S
H440 C448 0.950 . S
H441 C449 0.951 . S
H442 C450 0.951 . S
C443 C437 1.265 . S
C443 H438 0.950 . S
C443 C444 1.478 . S
C444 C443 1.478 . S
C444 C445 1.397 . S
C444 C461 1.394 . S
C445 C444 1.397 . S
C445 C446 1.438 . S
C445 C450 1.429 . S
C446 C445 1.438 . S
C446 C447 1.428 . S
C446 C459 1.394 . S
C447 H439 0.949 . S
C447 C446 1.428 . S
C447 C448 1.345 . S
C448 H440 0.950 . S
C448 C447 1.345 . S
C448 C449 1.424 . S
C449 H441 0.951 . S
C449 C448 1.424 . S
C449 C450 1.347 . S
C450 H442 0.951 . S
C450 C445 1.429 . S
C450 C449 1.347 . S
H451 C452 0.951 . S
C452 H451 0.951 . S
C452 C458 1.265 . S
H453 C458 0.950 . S
H454 C462 0.949 . S
H455 C463 0.950 . S
H456 C464 0.951 . S
H457 C465 0.951 . S
C458 C452 1.265 . S
C458 H453 0.950 . S
C458 C459 1.478 . S
C459 C446 1.394 . S
C459 C458 1.478 . S
C459 C460 1.397 . S
C460 C459 1.397 . S
C460 C461 1.438 . S
C460 C465 1.429 . S
C461 C444 1.394 . S
C461 C460 1.438 . S
C461 C462 1.428 . S
C462 H454 0.949 . S
C462 C461 1.428 . S
C462 C463 1.345 . S
C463 H455 0.950 . S
C463 C462 1.345 . S
C463 C464 1.424 . S
C464 H456 0.951 . S
C464 C463 1.424 . S
C464 C465 1.347 . S
C465 H457 0.951 . S
C465 C460 1.429 . S
C465 C464 1.347 . S
H466 C467 0.951 . S
C467 H466 0.951 . S
C467 C473 1.265 . S
H468 C473 0.950 . S
H469 C477 0.949 . S
H470 C478 0.950 . S
H471 C479 0.951 . S
H472 C480 0.951 . S
C473 C467 1.265 . S
C473 H468 0.950 . S
C473 C474 1.478 . S
C474 C473 1.478 . S
C474 C475 1.397 . S
C474 C491 1.394 . S
C475 C474 1.397 . S
C475 C476 1.438 . S
C475 C480 1.429 . S
C476 C475 1.438 . S
C476 C477 1.428 . S
C476 C489 1.394 . S
C477 H469 0.949 . S
C477 C476 1.428 . S
C477 C478 1.345 . S
C478 H470 0.950 . S
C478 C477 1.345 . S
C478 C479 1.424 . S
C479 H471 0.951 . S
C479 C478 1.424 . S
C479 C480 1.347 . S
C480 H472 0.951 . S
C480 C475 1.429 . S
C480 C479 1.347 . S
H481 C482 0.951 . S
C482 H481 0.951 . S
C482 C488 1.265 . S
H483 C488 0.950 . S
H484 C492 0.949 . S
H485 C493 0.950 . S
H486 C494 0.951 . S
H487 C495 0.951 . S
C488 C482 1.265 . S
C488 H483 0.950 . S
C488 C489 1.478 . S
C489 C476 1.394 . S
C489 C488 1.478 . S
C489 C490 1.397 . S
C490 C489 1.397 . S
C490 C491 1.438 . S
C490 C495 1.429 . S
C491 C474 1.394 . S
C491 C490 1.438 . S
C491 C492 1.428 . S
C492 H484 0.949 . S
C492 C491 1.428 . S
C492 C493 1.345 . S
C493 H485 0.950 . S
C493 C492 1.345 . S
C493 C494 1.424 . S
C494 H486 0.951 . S
C494 C493 1.424 . S
C494 C495 1.347 . S
C495 H487 0.951 . S
C495 C490 1.429 . S
C495 C494 1.347 . S
H496 C497 0.951 . S
C497 H496 0.951 . S
C497 C503 1.265 . S
H498 C503 0.950 . S
H499 C507 0.949 . S
H500 C508 0.950 . S
H501 C509 0.951 . S
H502 C510 0.951 . S
C503 C497 1.265 . S
C503 H498 0.950 . S
C503 C504 1.478 . S
C504 C503 1.478 . S
C504 C505 1.397 . S
C504 C521 1.394 . S
C505 C504 1.397 . S
C505 C506 1.438 . S
C505 C510 1.429 . S
C506 C505 1.438 . S
C506 C507 1.428 . S
C506 C519 1.394 . S
C507 H499 0.949 . S
C507 C506 1.428 . S
C507 C508 1.345 . S
C508 H500 0.950 . S
C508 C507 1.345 . S
C508 C509 1.424 . S
C509 H501 0.951 . S
C509 C508 1.424 . S
C509 C510 1.347 . S
C510 H502 0.951 . S
C510 C505 1.429 . S
C510 C509 1.347 . S
H511 C512 0.951 . S
C512 H511 0.951 . S
C512 C518 1.265 . S
H513 C518 0.950 . S
H514 C522 0.949 . S
H515 C523 0.950 . S
H516 C524 0.951 . S
H517 C525 0.951 . S
C518 C512 1.265 . S
C518 H513 0.950 . S
C518 C519 1.478 . S
C519 C506 1.394 . S
C519 C518 1.478 . S
C519 C520 1.397 . S
C520 C519 1.397 . S
C520 C521 1.438 . S
C520 C525 1.429 . S
C521 C504 1.394 . S
C521 C520 1.438 . S
C521 C522 1.428 . S
C522 H514 0.949 . S
C522 C521 1.428 . S
C522 C523 1.345 . S
C523 H515 0.950 . S
C523 C522 1.345 . S
C523 C524 1.424 . S
C524 H516 0.951 . S
C524 C523 1.424 . S
C524 C525 1.347 . S
C525 H517 0.951 . S
C525 C520 1.429 . S
C525 C524 1.347 . S
H526 C527 0.951 . S
C527 H526 0.951 . S
C527 C533 1.265 1_455 S
H528 C533 0.949 1_565 S
H529 C537 0.949 . S
H530 C538 0.950 . S
H531 C539 0.951 . S
H532 C540 0.951 . S
C533 C527 1.265 1_655 S
C533 H528 0.949 1_545 S
C533 C534 1.478 . S
C534 C533 1.478 . S
C534 C535 1.397 1_545 S
C534 C551 1.394 1_655 S
C535 C534 1.397 1_565 S
C535 C536 1.438 . S
C535 C540 1.429 . S
C536 C535 1.438 . S
C536 C537 1.428 . S
C536 C549 1.394 1_665 S
C537 H529 0.949 . S
C537 C536 1.428 . S
C537 C538 1.345 . S
C538 H530 0.950 . S
C538 C537 1.345 . S
C538 C539 1.424 . S
C539 H531 0.951 . S
C539 C538 1.424 . S
C539 C540 1.347 . S
C540 H532 0.951 . S
C540 C535 1.429 . S
C540 C539 1.347 . S
H541 C542 0.951 1_565 S
C542 H541 0.951 1_545 S
C542 C548 1.265 1_655 S
H543 C548 0.950 . S
H544 C552 0.949 . S
H545 C553 0.950 . S
H546 C554 0.951 . S
H547 C555 0.951 . S
C548 C542 1.265 1_455 S
C548 H543 0.950 . S
C548 C549 1.478 . S
C549 C536 1.394 1_445 S
C549 C548 1.478 . S
C549 C550 1.397 . S
C550 C549 1.397 . S
C550 C551 1.438 . S
C550 C555 1.429 . S
C551 C534 1.394 1_455 S
C551 C550 1.438 . S
C551 C552 1.428 . S
C552 H544 0.949 . S
C552 C551 1.428 . S
C552 C553 1.345 . S
C553 H545 0.950 . S
C553 C552 1.345 . S
C553 C554 1.424 . S
C554 H546 0.951 . S
C554 C553 1.424 . S
C554 C555 1.347 . S
C555 H547 0.951 . S
C555 C550 1.429 . S
C555 C554 1.347 . S
H556 C557 0.951 1_655 S
C557 H556 0.951 1_455 S
C557 C563 1.265 . S
H558 C563 0.950 1_565 S
H559 C567 0.949 . S
H560 C568 0.950 . S
H561 C569 0.951 . S
H562 C570 0.951 . S
C563 C557 1.265 . S
C563 H558 0.950 1_545 S
C563 C564 1.478 . S
C564 C563 1.478 . S
C564 C565 1.397 1_545 S
C564 C581 1.394 . S
C565 C564 1.397 1_565 S
C565 C566 1.438 . S
C565 C570 1.429 . S
C566 C565 1.438 . S
C566 C567 1.428 . S
C566 C579 1.394 1_565 S
C567 H559 0.949 . S
C567 C566 1.428 . S
C567 C568 1.345 . S
C568 H560 0.950 . S
C568 C567 1.345 . S
C568 C569 1.424 . S
C569 H561 0.951 . S
C569 C568 1.424 . S
C569 C570 1.347 . S
C570 H562 0.951 . S
C570 C565 1.429 . S
C570 C569 1.347 . S
H571 C572 0.950 1_565 S
C572 H571 0.950 1_545 S
C572 C578 1.265 1_455 S
H573 C578 0.950 . S
H574 C582 0.950 . S
H575 C583 0.950 . S
H576 C584 0.951 . S
H577 C585 0.951 . S
C578 C572 1.265 1_655 S
C578 H573 0.950 . S
C578 C579 1.478 1_655 S
C579 C566 1.394 1_545 S
C579 C578 1.478 1_455 S
C579 C580 1.397 1_455 S
C580 C579 1.397 1_655 S
C580 C581 1.438 1_655 S
C580 C585 1.429 . S
C581 C564 1.394 . S
C581 C580 1.438 1_455 S
C581 C582 1.428 1_455 S
C582 H574 0.950 . S
C582 C581 1.428 1_655 S
C582 C583 1.345 . S
C583 H575 0.950 . S
C583 C582 1.345 . S
C583 C584 1.424 . S
C584 H576 0.951 . S
C584 C583 1.424 . S
C584 C585 1.347 . S
C585 H577 0.951 . S
C585 C580 1.429 . S
C585 C584 1.347 . S
H586 C587 0.951 . S
C587 H586 0.951 . S
C587 C593 1.265 . S
H588 C593 0.950 . S
H589 C597 0.949 . S
H590 C598 0.950 . S
H591 C599 0.951 . S
H592 C600 0.951 . S
C593 C587 1.265 . S
C593 H588 0.950 . S
C593 C594 1.478 . S
C594 C593 1.478 . S
C594 C595 1.397 . S
C594 C611 1.394 . S
C595 C594 1.397 . S
C595 C596 1.438 . S
C595 C600 1.429 . S
C596 C595 1.438 . S
C596 C597 1.428 . S
C596 C609 1.394 . S
C597 H589 0.949 . S
C597 C596 1.428 . S
C597 C598 1.345 . S
C598 H590 0.950 . S
C598 C597 1.345 . S
C598 C599 1.424 . S
C599 H591 0.951 . S
C599 C598 1.424 . S
C599 C600 1.347 . S
C600 H592 0.951 . S
C600 C595 1.429 . S
C600 C599 1.347 . S
H601 C602 0.951 . S
C602 H601 0.951 . S
C602 C608 1.265 . S
H603 C608 0.950 . S
H604 C612 0.949 . S
H605 C613 0.950 . S
H606 C614 0.951 . S
H607 C615 0.951 . S
C608 C602 1.265 . S
C608 H603 0.950 . S
C608 C609 1.478 . S
C609 C596 1.394 . S
C609 C608 1.478 . S
C609 C610 1.397 . S
C610 C609 1.397 . S
C610 C611 1.438 . S
C610 C615 1.429 . S
C611 C594 1.394 . S
C611 C610 1.438 . S
C611 C612 1.428 . S
C612 H604 0.949 . S
C612 C611 1.428 . S
C612 C613 1.345 . S
C613 H605 0.950 . S
C613 C612 1.345 . S
C613 C614 1.424 . S
C614 H606 0.951 . S
C614 C613 1.424 . S
C614 C615 1.347 . S
C615 H607 0.951 . S
C615 C610 1.429 . S
C615 C614 1.347 . S
H616 C617 0.951 . S
C617 H616 0.951 . S
C617 C623 1.265 . S
H618 C623 0.950 . S
H619 C627 0.949 . S
H620 C628 0.950 . S
H621 C629 0.951 . S
H622 C630 0.951 . S
C623 C617 1.265 . S
C623 H618 0.950 . S
C623 C624 1.478 . S
C624 C623 1.478 . S
C624 C625 1.397 . S
C624 C641 1.394 . S
C625 C624 1.397 . S
C625 C626 1.438 . S
C625 C630 1.429 . S
C626 C625 1.438 . S
C626 C627 1.428 . S
C626 C639 1.394 . S
C627 H619 0.949 . S
C627 C626 1.428 . S
C627 C628 1.345 . S
C628 H620 0.950 . S
C628 C627 1.345 . S
C628 C629 1.424 . S
C629 H621 0.951 . S
C629 C628 1.424 . S
C629 C630 1.347 . S
C630 H622 0.951 . S
C630 C625 1.429 . S
C630 C629 1.347 . S
H631 C632 0.951 . S
C632 H631 0.951 . S
C632 C638 1.265 . S
H633 C638 0.950 . S
H634 C642 0.949 . S
H635 C643 0.950 . S
H636 C644 0.951 . S
H637 C645 0.951 . S
C638 C632 1.265 . S
C638 H633 0.950 . S
C638 C639 1.478 . S
C639 C626 1.394 . S
C639 C638 1.478 . S
C639 C640 1.397 . S
C640 C639 1.397 . S
C640 C641 1.438 . S
C640 C645 1.429 . S
C641 C624 1.394 . S
C641 C640 1.438 . S
C641 C642 1.428 . S
C642 H634 0.949 . S
C642 C641 1.428 . S
C642 C643 1.345 . S
C643 H635 0.950 . S
C643 C642 1.345 . S
C643 C644 1.424 . S
C644 H636 0.951 . S
C644 C643 1.424 . S
C644 C645 1.347 . S
C645 H637 0.951 . S
C645 C640 1.429 . S
C645 C644 1.347 . S
C302 C257 1.450 . S
C287 C21 1.457 . S
C317 C19 1.450 1_556 S
C332 C197 1.423 . S
C347 C18 1.374 . S
C362 C227 1.378 . S
C377 C20 1.437 1_556 S
C392 C167 1.382 . S
C407 C44 1.447 . S
C422 C137 1.456 . S
C437 C42 1.451 . S
C452 C77 1.424 . S
C482 C107 1.401 . S
C467 C41 1.398 . S
C512 C47 1.354 . S
C497 C43 1.428 . S
C527 C16 1.479 . S
C542 C66 1.431 . S
C557 C17 1.438 . S
C572 C126 1.454 . S
C602 C186 1.431 . S
C587 C39 1.479 . S
C617 C40 1.438 . S
C632 C246 1.454 . S
