# Generated by pormake.
# Topology pyr, (3,6)-cn, num edge types: 1
# Building blocks:
#     Node 0, Type 0, BuildingBlock: QEWDON_clean_linker_0, # of connection points: 3
#     Node 1, Type 0, BuildingBlock: QEWDON_clean_linker_0, # of connection points: 3
#     Node 2, Type 0, BuildingBlock: QEWDON_clean_linker_0, # of connection points: 3
#     Node 3, Type 0, BuildingBlock: QEWDON_clean_linker_0, # of connection points: 3
#     Node 4, Type 0, BuildingBlock: QEWDON_clean_linker_0, # of connection points: 3
#     Node 5, Type 0, BuildingBlock: QEWDON_clean_linker_0, # of connection points: 3
#     Node 6, Type 0, BuildingBlock: QEWDON_clean_linker_0, # of connection points: 3
#     Node 7, Type 0, BuildingBlock: QEWDON_clean_linker_0, # of connection points: 3
#     Node 8, Type 1, BuildingBlock: BETGAK_clean_sbu_0, # of connection points: 6
#     Node 9, Type 1, BuildingBlock: BETGAK_clean_sbu_0, # of connection points: 6
#     Node 10, Type 1, BuildingBlock: BETGAK_clean_sbu_0, # of connection points: 6
#     Node 11, Type 1, BuildingBlock: BETGAK_clean_sbu_0, # of connection points: 6
#     Edge 12, Type (0, 1), BuildingBlock: OJICUG_clean_linker_0, # of connection points: 2
#     Edge 13, Type (0, 1), BuildingBlock: OJICUG_clean_linker_0, # of connection points: 2
#     Edge 14, Type (0, 1), BuildingBlock: OJICUG_clean_linker_0, # of connection points: 2
#     Edge 15, Type (0, 1), BuildingBlock: OJICUG_clean_linker_0, # of connection points: 2
#     Edge 16, Type (0, 1), BuildingBlock: OJICUG_clean_linker_0, # of connection points: 2
#     Edge 17, Type (0, 1), BuildingBlock: OJICUG_clean_linker_0, # of connection points: 2
#     Edge 18, Type (0, 1), BuildingBlock: OJICUG_clean_linker_0, # of connection points: 2
#     Edge 19, Type (0, 1), BuildingBlock: OJICUG_clean_linker_0, # of connection points: 2
#     Edge 20, Type (0, 1), BuildingBlock: OJICUG_clean_linker_0, # of connection points: 2
#     Edge 21, Type (0, 1), BuildingBlock: OJICUG_clean_linker_0, # of connection points: 2
#     Edge 22, Type (0, 1), BuildingBlock: OJICUG_clean_linker_0, # of connection points: 2
#     Edge 23, Type (0, 1), BuildingBlock: OJICUG_clean_linker_0, # of connection points: 2
#     Edge 24, Type (0, 1), BuildingBlock: OJICUG_clean_linker_0, # of connection points: 2
#     Edge 25, Type (0, 1), BuildingBlock: OJICUG_clean_linker_0, # of connection points: 2
#     Edge 26, Type (0, 1), BuildingBlock: OJICUG_clean_linker_0, # of connection points: 2
#     Edge 27, Type (0, 1), BuildingBlock: OJICUG_clean_linker_0, # of connection points: 2
#     Edge 28, Type (0, 1), BuildingBlock: OJICUG_clean_linker_0, # of connection points: 2
#     Edge 29, Type (0, 1), BuildingBlock: OJICUG_clean_linker_0, # of connection points: 2
#     Edge 30, Type (0, 1), BuildingBlock: OJICUG_clean_linker_0, # of connection points: 2
#     Edge 31, Type (0, 1), BuildingBlock: OJICUG_clean_linker_0, # of connection points: 2
#     Edge 32, Type (0, 1), BuildingBlock: OJICUG_clean_linker_0, # of connection points: 2
#     Edge 33, Type (0, 1), BuildingBlock: OJICUG_clean_linker_0, # of connection points: 2
#     Edge 34, Type (0, 1), BuildingBlock: OJICUG_clean_linker_0, # of connection points: 2
#     Edge 35, Type (0, 1), BuildingBlock: OJICUG_clean_linker_0, # of connection points: 2
# Relax obj value: 0.230
# Max RMSD: 0.266
# Mean RMSD: 0.197
data_MOF--net-pyr--node1-BETGAK_clean_sbu_0--node2-QEWDON_clean_linker_0--edge1-OJICUG_clean_linker_0
_symmetry_space_group_name_H-M    P1
_symmetry_Int_Tables_number       1
_symmetry_cell_setting            triclinic
loop_
_symmetry_equiv_pos_as_xyz
'x, y, z'
_cell_length_a     28.522627
_cell_length_b     30.162114
_cell_length_c     28.398368
_cell_angle_alpha  91.175093
_cell_angle_beta   88.645733
_cell_angle_gamma 112.38544
loop_
_atom_site_label
_atom_site_type_symbol
_atom_site_fract_x
_atom_site_fract_y
_atom_site_fract_z
_atom_type_partial_charge
H0 H 0.50894 0.40394 0.2275 0.0
C1 C 0.4863 0.39748 0.25969 0.0
C2 C 0.47682 0.35509 0.28488 0.0
C3 C 0.46224 0.42889 0.27326 0.0
H4 H 0.43561 0.31198 0.34325 0.0
C5 C 0.44425 0.34518 0.32444 0.0
C6 C 0.41959 0.37578 0.33789 0.0
C7 C 0.43035 0.41841 0.31343 0.0
C8 C 0.46399 0.46859 0.24218 0.0
H9 H 0.41058 0.44164 0.32349 0.0
C10 C 0.41897 0.47558 0.23319 0.0
C11 C 0.41898 0.5128 0.20425 0.0
C12 C 0.50949 0.49904 0.22091 0.0
H13 H 0.5447 0.49448 0.2271 0.0
C14 C 0.50992 0.53623 0.19203 0.0
H15 H 0.38357 0.4519 0.24898 0.0
C16 C 0.46508 0.54331 0.18386 0.0
H17 H 0.46636 0.57217 0.16116 0.0
H18 H 0.54519 0.55972 0.17594 0.0
H19 H 0.15925 0.92718 0.80399 0.0
C20 C 0.17543 0.90054 0.79643 0.0
C21 C 0.20644 0.89184 0.82967 0.0
C22 C 0.16671 0.87636 0.75275 0.0
H23 H 0.25461 0.85363 0.84335 0.0
C24 C 0.22786 0.85792 0.81914 0.0
C25 C 0.21995 0.83362 0.77556 0.0
C26 C 0.18859 0.84251 0.74271 0.0
C27 C 0.13861 0.8897 0.71608 0.0
H28 H 0.18324 0.82491 0.70846 0.0
C29 C 0.15137 0.93826 0.70503 0.0
C30 C 0.12626 0.95128 0.66905 0.0
C31 C 0.10012 0.85413 0.69106 0.0
H32 H 0.08967 0.81657 0.69904 0.0
C33 C 0.07445 0.86685 0.65587 0.0
H34 H 0.18201 0.96575 0.72339 0.0
C35 C 0.08734 0.915 0.64485 0.0
H36 H 0.06657 0.92385 0.61756 0.0
H37 H 0.04448 0.83928 0.63698 0.0
H38 H 0.75679 0.55637 0.98191 0.0
C39 C 0.74144 0.518 0.98718 0.0
C40 C 0.76851 0.4965 1.01362 0.0
C41 C 0.69232 0.49083 0.97083 0.0
H42 H 0.76728 0.42896 1.03871 0.0
C43 C 0.74594 0.44665 1.0214 0.0
C44 C 0.69571 0.41925 1.00849 0.0
C45 C 0.66958 0.44182 0.98253 0.0
C46 C 0.66006 0.51532 0.95183 0.0
H47 H 0.6303 0.42217 0.97354 0.0
C48 C 0.66715 0.5361 0.90629 0.0
C49 C 0.63495 0.55916 0.8912 0.0
C50 C 0.62075 0.51768 0.98115 0.0
H51 H 0.61453 0.50218 1.01596 0.0
C52 C 0.58933 0.54025 0.9664 0.0
H53 H 0.69719 0.53447 0.88314 0.0
C54 C 0.59635 0.56083 0.92205 0.0
H55 H 0.57099 0.57784 0.91152 0.0
H56 H 0.55926 0.54179 0.98953 0.0
H57 H 0.96034 0.88791 0.44081 0.0
C58 C 0.9276 0.86608 0.46158 0.0
C59 C 0.91972 0.88191 0.5071 0.0
C60 C 0.89209 0.82347 0.44172 0.0
H61 H 0.86969 0.86674 0.56744 0.0
C62 C 0.87584 0.85438 0.53261 0.0
C63 C 0.83795 0.81358 0.51276 0.0
C64 C 0.84702 0.79776 0.46747 0.0
C65 C 0.89585 0.81353 0.39021 0.0
H66 H 0.81768 0.76753 0.45086 0.0
C67 C 0.92162 0.78481 0.37118 0.0
C68 C 0.92599 0.77961 0.32146 0.0
C69 C 0.87421 0.83574 0.35925 0.0
H70 H 0.85448 0.85785 0.37283 0.0
C71 C 0.87822 0.83041 0.31066 0.0
H72 H 0.93871 0.76754 0.39457 0.0
C73 C 0.90402 0.8029 0.29193 0.0
H74 H 0.90656 0.79949 0.25398 0.0
H75 H 0.86144 0.84796 0.28731 0.0
H76 H 0.66562 0.79617 1.0286 0.0
C77 C 0.68303 0.81281 0.99578 0.0
C78 C 0.72592 0.8056 0.97779 0.0
C79 C 0.66421 0.84331 0.97241 0.0
H80 H 0.78477 0.82583 0.92466 0.0
C81 C 0.74971 0.82892 0.93659 0.0
C82 C 0.73275 0.86065 0.91399 0.0
C83 C 0.68943 0.86708 0.93154 0.0
C84 C 0.62011 0.85273 0.99187 0.0
H85 H 0.67612 0.89151 0.91391 0.0
C86 C 0.62139 0.8999 0.99443 0.0
C87 C 0.57948 0.90917 1.0121 0.0
C88 C 0.57639 0.81474 1.00748 0.0
H89 H 0.57432 0.77813 1.00565 0.0
C90 C 0.53456 0.82362 1.02482 0.0
H91 H 0.65517 0.92947 0.98286 0.0
C92 C 0.53595 0.8704 1.02713 0.0
H93 H 0.50334 0.87629 1.04171 0.0
H94 H 0.50097 0.79413 1.03673 0.0
H95 H 0.79553 0.2154 0.65947 0.0
C96 C 0.78702 0.20974 0.62235 0.0
C97 C 0.81974 0.19802 0.59113 0.0
C98 C 0.74401 0.21602 0.60581 0.0
H99 H 0.83261 0.18277 0.51831 0.0
C100 C 0.80852 0.1926 0.5429 0.0
C101 C 0.76672 0.20042 0.52565 0.0
C102 C 0.73446 0.21191 0.5573 0.0
C103 C 0.70946 0.22771 0.63908 0.0
H104 H 0.70134 0.21674 0.54422 0.0
C105 C 0.69255 0.26434 0.62856 0.0
C106 C 0.65909 0.27549 0.65926 0.0
C107 C 0.6931 0.20241 0.68124 0.0
H108 H 0.70538 0.1738 0.69007 0.0
C109 C 0.65996 0.21332 0.712 0.0
H110 H 0.70658 0.28499 0.59686 0.0
C111 C 0.64292 0.24956 0.70115 0.0
H112 H 0.61675 0.25693 0.7253 0.0
H113 H 0.64722 0.19344 0.74426 0.0
H114 H 0.48513 0.89623 0.30238 0.0
C115 C 0.446 0.87711 0.29254 0.0
C116 C 0.42207 0.89965 0.2636 0.0
C117 C 0.42121 0.82843 0.30509 0.0
H118 H 0.35455 0.8895 0.22522 0.0
C119 C 0.37262 0.87273 0.2481 0.0
C120 C 0.3472 0.82407 0.25957 0.0
C121 C 0.37178 0.80262 0.28873 0.0
C122 C 0.45096 0.80061 0.32198 0.0
H123 H 0.3536 0.76489 0.29693 0.0
C124 C 0.46014 0.79514 0.37025 0.0
C125 C 0.48719 0.76598 0.38272 0.0
C126 C 0.46841 0.77661 0.28723 0.0
H127 H 0.46158 0.77995 0.25032 0.0
C128 C 0.49388 0.74749 0.29932 0.0
H129 H 0.44681 0.81344 0.39741 0.0
C130 C 0.50293 0.742 0.34631 0.0
H131 H 0.52219 0.7183 0.35416 0.0
H132 H 0.50649 0.72876 0.27205 0.0
H133 H 0.29758 0.56426 0.82074 0.0
C134 C 0.27575 0.52951 0.80538 0.0
C135 C 0.28921 0.51705 0.76007 0.0
C136 C 0.2357 0.49621 0.83201 0.0
H137 H 0.27279 0.45997 0.70831 0.0
C138 C 0.26142 0.47077 0.74188 0.0
C139 C 0.22148 0.43681 0.76753 0.0
C140 C 0.2091 0.44997 0.81268 0.0
C141 C 0.22839 0.50503 0.88333 0.0
H142 H 0.1794 0.42383 0.83347 0.0
C143 C 0.20532 0.53665 0.90093 0.0
C144 C 0.19643 0.53989 0.95031 0.0
C145 C 0.24353 0.47858 0.91555 0.0
H146 H 0.26129 0.45437 0.9032 0.0
C147 C 0.23586 0.48258 0.96378 0.0
H148 H 0.19296 0.55703 0.87662 0.0
C149 C 0.21232 0.51259 0.98098 0.0
H150 H 0.20648 0.51453 1.0187 0.0
H151 H 0.24781 0.46186 0.98803 0.0
La152 La 0.08638 0.17999 0.59088 0.0
La153 La 0.06307 0.13535 0.68578 0.0
C154 C 0.0971 0.23143 0.51967 0.0
C155 C 0.14244 0.26538 0.4963 0.0
C156 C 0.18728 0.28814 0.52153 0.0
C157 C 0.23309 0.31197 0.49754 0.0
C158 C 0.23455 0.31257 0.44814 0.0
C159 C 0.18909 0.29237 0.42325 0.0
C160 C 0.1433 0.26896 0.44723 0.0
C161 C 0.15198 0.14274 0.61849 0.0
C162 C 0.126 0.24496 0.68316 0.0
C163 C 0.04522 0.08241 0.75661 0.0
C164 C 0.99625 1.05091 0.77664 0.0
C165 C 0.95362 1.06328 0.77384 0.0
C166 C 0.90626 1.03195 0.78988 0.0
C167 C 0.90058 0.98747 0.80853 0.0
C168 C 0.94323 0.97494 0.81093 0.0
C169 C 0.99075 1.00648 0.79506 0.0
C170 C 0.99617 0.16941 0.65618 0.0
C171 C 1.026 0.07004 0.59318 0.0
O172 O 0.09373 0.18704 0.51761 0.0
O173 O 0.08632 0.24351 0.56183 0.0
O174 O 0.14443 0.1506 0.57532 0.0
O175 O 0.12981 0.16376 0.64372 0.0
O176 O 0.11077 0.24232 0.63913 0.0
O177 O 0.1196 0.20541 0.70653 0.0
O178 O 0.05492 0.12835 0.7592 0.0
O179 O 0.05582 0.06951 0.71488 0.0
O180 O 1.0056 0.1659 0.69971 0.0
O181 O 1.01883 0.14866 0.63167 0.0
O182 O 0.04092 0.07272 0.63737 0.0
O183 O 1.03104 0.10951 0.57038 0.0
H184 H 0.1874 0.28515 0.55949 0.0
H185 H 0.26773 0.32706 0.51737 0.0
H186 H 0.18938 0.29281 0.3851 0.0
H187 H 0.1091 0.25125 0.42729 0.0
H188 H 0.95669 0.09701 0.75891 0.0
H189 H 0.87401 1.04234 0.78734 0.0
H190 H 0.94001 0.94109 0.82579 0.0
H191 H 1.02308 0.99608 0.79683 0.0
La192 La 0.605 0.16314 0.15013 0.0
La193 La 0.50864 0.14639 0.10658 0.0
C194 C 0.69306 0.1838 0.17997 0.0
C195 C 0.71058 0.18513 0.22867 0.0
C196 C 0.69098 0.14419 0.25705 0.0
C197 C 0.70293 0.14688 0.30457 0.0
C198 C 0.73449 0.19056 0.32492 0.0
C199 C 0.7552 0.23124 0.29636 0.0
C200 C 0.74347 0.22848 0.24857 0.0
C201 C 0.52723 0.0938 0.19223 0.0
C202 C 0.53486 0.21009 0.19522 0.0
C203 C 0.42343 0.11915 0.0682 0.0
C204 C 0.38922 0.08101 1.03752 0.0
C205 C 0.3986 0.08196 0.98867 0.0
C206 C 0.36305 1.05035 0.95869 0.0
C207 C 0.31724 1.01703 0.97671 0.0
C208 C 0.30838 1.01468 1.02563 0.0
C209 C 0.34398 1.04677 1.05582 0.0
C210 C 0.58036 0.23164 0.08697 0.0
C211 C 0.57572 0.093 1.06321 0.0
O212 O 0.66493 0.14147 0.16334 0.0
O213 O 0.67481 0.21624 0.16993 0.0
O214 O 0.56534 0.12511 0.21355 0.0
O215 O 0.53407 0.10208 0.14881 0.0
O216 O 0.58248 0.2174 0.18469 0.0
O217 O 0.49764 0.17481 0.17489 0.0
O218 O 0.46591 0.14788 1.04878 0.0
O219 O 0.42941 0.10856 0.11166 0.0
O220 O 0.53315 0.22337 0.09467 0.0
O221 O 0.58639 0.19233 0.0885 0.0
O222 O 0.53033 0.09507 1.06583 0.0
O223 O 0.61338 0.12194 0.08884 0.0
H224 H 0.66508 0.11024 0.24305 0.0
H225 H 0.68593 0.11509 0.3258 0.0
H226 H 0.78008 0.26526 0.3111 0.0
H227 H 0.75892 0.26051 0.22746 0.0
H228 H 0.43285 0.10798 0.9732 0.0
H229 H 0.37131 1.05221 0.92118 0.0
H230 H 0.27336 0.98911 1.04032 0.0
H231 H 0.33553 1.04567 0.09327 0.0
La232 La 0.5618 0.62594 0.60984 0.0
La233 La 0.56076 0.71053 0.67006 0.0
C234 C 0.58348 0.56181 0.5678 0.0
C235 C 0.59237 0.51924 0.58263 0.0
C236 C 0.56583 0.47487 0.56086 0.0
C237 C 0.57316 0.43386 0.57473 0.0
C238 C 0.60757 0.43659 0.61043 0.0
C239 C 0.63388 0.48117 0.63239 0.0
C240 C 0.62619 0.52205 0.61879 0.0
C241 C 0.47308 0.61605 0.65007 0.0
C242 C 0.60295 0.63883 0.71622 0.0
C243 C 0.52413 0.75645 0.72437 0.0
C244 C 0.47326 0.7572 0.73075 0.0
C245 C 0.46021 0.77428 0.77321 0.0
C246 C 0.41263 0.777 0.77903 0.0
C247 C 0.37749 0.76289 0.74229 0.0
C248 C 0.3902 0.74446 0.70023 0.0
C249 C 0.43763 0.74127 0.69464 0.0
C250 C 0.64847 0.73721 0.62216 0.0
C251 C 0.53256 0.70307 0.56233 0.0
O252 O 0.53712 0.55977 0.57365 0.0
O253 O 0.61723 0.60362 0.58015 0.0
O254 O 0.47838 0.59976 0.60849 0.0
O255 O 0.51652 0.63546 0.66732 0.0
O256 O 0.58919 0.61121 0.67776 0.0
O257 O 0.59803 0.68084 0.71987 0.0
O258 O 0.54716 0.77306 0.68432 0.0
O259 O 0.52863 0.71657 0.73598 0.0
O260 O 0.63664 0.76414 0.65255 0.0
O261 O 0.612 0.6971 0.62205 0.0
O262 O 0.51955 0.71289 0.60537 0.0
O263 O 0.55774 0.67449 0.55599 0.0
H264 H 0.53923 0.47189 0.53318 0.0
H265 H 0.55164 0.4 0.5576 0.0
H266 H 0.6612 0.48478 0.6595 0.0
H267 H 0.64695 0.55582 0.63644 0.0
H268 H 0.48717 0.78636 0.80152 0.0
H269 H 0.40408 0.7919 0.81161 0.0
H270 H 0.3637 0.73309 0.67152 0.0
H271 H 0.44681 0.72723 0.66183 0.0
La272 La 0.05829 0.61751 0.15833 0.0
La273 La 0.06197 0.704 0.10808 0.0
C274 C 0.0827 0.55059 0.18589 0.0
C275 C 0.132 0.54517 0.18846 0.0
C276 C 0.17087 0.57509 0.21758 0.0
C277 C 0.21798 0.57078 0.21773 0.0
C278 C 0.22741 0.53664 0.18862 0.0
C279 C 0.18847 0.50694 0.15938 0.0
C280 C 0.14129 0.51104 0.15949 0.0
C281 C 1.01191 0.66693 0.20488 0.0
C282 C 0.15591 0.71583 0.16665 0.0
C283 C 0.03596 0.76902 0.07846 0.0
C284 C 0.98507 0.76881 0.06905 0.0
C285 C 0.9717 0.77334 1.02273 0.0
C286 C 0.92286 0.7704 1.01285 0.0
C287 C 0.88636 0.7632 1.04916 0.0
C288 C 0.8998 0.75911 0.09563 0.0
C289 C 0.94857 0.7616 0.10549 0.0
C290 C 0.10888 0.65452 1.06241 0.0
C291 C 0.96303 0.60631 0.10109 0.0
O292 O 0.07505 0.5819 0.21446 0.0
O293 O 0.06727 0.55279 0.14334 0.0
O294 O 0.99799 0.62066 0.20645 0.0
O295 O 0.05232 0.68357 0.18039 0.0
O296 O 0.13757 0.66829 0.16694 0.0
O297 O 0.13013 0.73934 0.14835 0.0
O298 O 0.05136 0.74199 1.05061 0.0
O299 O 0.0461 0.76531 0.12252 0.0
O300 O 0.12373 0.70096 1.06169 0.0
O301 O 0.06789 0.63796 0.08611 0.0
O302 O 0.9836 0.65343 0.09651 0.0
O303 O 0.98685 0.58262 0.1224 0.0
H304 H 0.16511 0.60204 0.24013 0.0
H305 H 0.24678 0.59382 0.24117 0.0
H306 H 0.19455 0.4808 0.13593 0.0
H307 H 0.11217 0.48786 0.13637 0.0
H308 H 0.99901 0.77888 0.99405 0.0
H309 H 0.91398 0.77474 0.97678 0.0
H310 H 0.87249 0.75362 0.12428 0.0
H311 H 0.95742 0.75755 0.14164 0.0
C312 C 0.36718 0.38896 0.40519 0.0
C313 C 0.37521 0.35869 0.37034 0.0
H314 H 0.31587 0.39783 0.45776 0.0
C315 C 0.33751 0.31303 0.36266 0.0
H316 H 0.39566 0.42441 0.41155 0.0
C317 C 0.29214 0.29834 0.38827 0.0
C318 C 0.28352 0.32884 0.42231 0.0
H319 H 0.34222 0.28926 0.33547 0.0
H320 H 0.26352 0.2631 0.3812 0.0
C321 C 0.32174 0.3739 0.4314 0.0
C322 C 0.23128 0.90461 0.91462 0.0
C323 C 0.22389 0.92336 0.87169 0.0
H324 H 0.26684 0.9199 0.98197 0.0
C325 C 0.24084 0.9733 0.86687 0.0
H326 H 0.2181 0.86622 0.91944 0.0
C327 C 0.2684 1.00379 0.90257 0.0
C328 C 0.27958 0.98499 0.94374 0.0
H329 H 0.2361 0.98893 0.83421 0.0
H330 H 0.28324 1.04215 0.89697 0.0
C331 C 0.25889 0.93524 0.95044 0.0
C332 C 0.62832 0.5541 0.8022 0.0
C333 C 0.63913 0.58184 0.84395 0.0
H334 H 0.60844 0.54999 0.72914 0.0
C335 C 0.64351 0.62985 0.84165 0.0
H336 H 0.62381 0.5168 0.80288 0.0
C337 C 0.63439 0.64882 0.79973 0.0
C338 C 0.62025 0.62036 0.75856 0.0
H339 H 0.65141 0.65211 0.87321 0.0
H340 H 0.63628 0.68538 0.80031 0.0
C341 C 0.61901 0.57312 0.75999 0.0
C342 C 0.99452 0.77322 0.26755 0.0
C343 C 0.95297 0.75073 0.29822 0.0
H344 H 0.0462 0.76489 0.21516 0.0
C345 C 0.93224 0.70034 0.29925 0.0
H346 H 1.01087 0.81196 0.26535 0.0
C347 C 0.95158 0.67321 0.26929 0.0
C348 C 0.99236 0.69578 0.23775 0.0
H349 H 0.89954 0.6819 0.32159 0.0
H350 H 0.93389 0.63446 0.27018 0.0
C351 C 1.01427 0.74618 0.23818 0.0
C352 C 0.54394 0.32872 0.2495 0.0
C353 C 0.49395 0.31747 0.26593 0.0
H354 H 0.59662 0.30302 0.21512 0.0
C355 C 0.45895 0.26983 0.26223 0.0
H356 H 0.57165 0.36511 0.25204 0.0
C357 C 0.47306 0.23451 0.24125 0.0
C358 C 0.52257 0.24587 0.22365 0.0
H359 H 0.41992 0.26012 0.27392 0.0
H360 H 0.4447 0.19852 0.23763 0.0
C361 C 0.55826 0.2931 0.22883 0.0
C362 C 0.14289 1.01519 0.60879 0.0
C363 C 0.14059 1.00241 0.65631 0.0
H364 H 0.14977 0.06992 0.55961 0.0
C365 C 0.15001 1.03847 0.69122 0.0
H366 H 0.13721 0.98861 0.58099 0.0
C367 C 0.1578 0.08556 0.67886 0.0
C368 C 0.15606 0.09718 0.63152 0.0
H369 H 0.14865 1.02982 0.72818 0.0
H370 H 0.16215 0.11213 0.70643 0.0
C371 C 0.1508 1.06204 0.59653 0.0
C372 C 0.85213 0.56919 1.01688 0.0
C373 C 0.81841 0.52578 1.03633 0.0
H374 H 0.92346 0.62888 1.02241 0.0
C375 C 0.83262 0.51062 0.07864 0.0
H376 H 0.84347 0.58236 0.98439 0.0
C377 C 0.8794 0.53651 0.0994 0.0
C378 C 0.91281 0.57944 0.07971 0.0
H379 H 0.8075 0.4788 0.09646 0.0
H380 H 0.88908 0.52323 0.13141 0.0
C381 C 0.89834 0.59591 1.03861 0.0
C382 C 0.7675 0.82237 0.56213 0.0
C383 C 0.78741 0.79198 0.53801 0.0
H384 H 0.70949 0.82887 0.60725 0.0
C385 C 0.7591 0.74208 0.53959 0.0
H386 H 0.78667 0.86098 0.5606 0.0
C387 C 0.71329 0.72342 0.56612 0.0
C388 C 0.69514 0.75429 0.59171 0.0
H389 H 0.77294 0.71748 0.52135 0.0
H390 H 0.6929 0.68504 0.56745 0.0
C391 C 0.72269 0.80389 0.58881 0.0
C392 C 0.36907 0.56559 0.19785 0.0
C393 C 0.37074 0.5196 0.1964 0.0
H394 H 0.3228 0.6072 0.19596 0.0
C395 C 0.32529 0.47963 0.19004 0.0
H396 H 0.40332 0.59711 0.20297 0.0
C397 C 0.27912 0.48528 0.18694 0.0
C398 C 0.27712 0.53113 0.18966 0.0
H399 H 0.32526 0.44372 0.18802 0.0
H400 H 0.24482 0.45347 0.18366 0.0
C401 C 0.32279 0.5713 0.1945 0.0
C402 C 0.68167 0.35536 0.07029 0.0
C403 C 0.66949 0.36868 1.02611 0.0
H404 H 0.6639 0.30128 0.12344 0.0
C405 C 0.63026 0.33393 1.00062 0.0
H406 H 0.71045 0.38094 0.09199 0.0
C407 C 0.60296 0.28841 1.01949 0.0
C408 C 0.61488 0.27593 1.06375 0.0
H409 H 0.61989 0.34203 0.96638 0.0
H410 H 0.57161 0.26325 0.99991 0.0
C411 C 0.65494 0.30954 0.08864 0.0
C412 C 0.96445 0.97191 0.50084 0.0
C413 C 0.95317 0.92976 0.52687 0.0
H414 H 0.99541 1.04896 0.50119 0.0
C415 C 0.96849 0.93431 0.5741 0.0
H416 H 0.95265 0.9698 0.46461 0.0
C417 C 0.9929 0.97962 0.59514 0.0
C418 C 1.0022 1.02188 0.56978 0.0
H419 H 0.96056 0.90265 0.59518 0.0
H420 H 1.00348 0.98141 0.63173 0.0
C421 C 0.98845 1.01735 0.52205 0.0
C422 C 0.26166 0.77707 0.79631 0.0
C423 C 0.2513 0.80547 0.76256 0.0
H424 H 0.3098 0.74097 0.8162 0.0
C425 C 0.2777 0.8131 0.71913 0.0
H426 H 0.24137 0.7699 0.82981 0.0
C427 C 0.31655 0.7962 0.71126 0.0
C428 C 0.32988 0.77162 0.74675 0.0
H429 H 0.2711 0.83524 0.69258 0.0
H430 H 0.33853 0.80542 0.67874 0.0
C431 C 0.3008 0.76057 0.7886 0.0
C432 C 0.7809 0.94253 0.88311 0.0
C433 C 0.76616 0.89268 0.87786 0.0
H434 H 0.83567 1.01173 0.86549 0.0
C435 C 0.79126 0.87457 0.84407 0.0
H436 H 0.76264 0.95752 0.90925 0.0
C437 C 0.83351 0.9056 0.81945 0.0
C438 C 0.85101 0.95524 0.8279 0.0
H439 H 0.78021 0.83625 0.83897 0.0
H440 H 0.85381 0.89067 0.79535 0.0
C441 C 0.82299 0.97358 0.85829 0.0
C442 C 0.74703 0.23364 0.45195 0.0
C443 C 0.75765 0.1975 0.47435 0.0
H444 H 0.73169 0.2599 0.38697 0.0
C445 C 0.7613 0.15945 0.44721 0.0
H446 H 0.74452 0.26364 0.472 0.0
C447 C 0.7544 0.15752 0.39863 0.0
C448 C 0.74391 0.1937 0.37616 0.0
H449 H 0.76916 0.13097 0.46362 0.0
H450 H 0.75754 0.1278 0.37857 0.0
C451 C 0.74039 0.23185 0.40328 0.0
C452 C 0.54817 0.75754 0.44105 0.0
C453 C 0.50023 0.75889 0.43246 0.0
H454 H 0.59508 0.7384 0.48771 0.0
C455 C 0.46425 0.74684 0.46983 0.0
H456 H 0.57745 0.76761 0.41382 0.0
C457 C 0.47508 0.73087 0.51333 0.0
C458 C 0.52172 0.72592 0.51988 0.0
H459 H 0.42694 0.74728 0.46465 0.0
H460 H 0.44607 0.71999 0.54077 0.0
C461 C 0.5584 0.74071 0.48357 0.0
C462 C 0.12623 0.54787 1.00065 0.0
C463 C 0.16976 0.56987 0.97206 0.0
H464 H 0.07269 0.55682 1.05052 0.0
C465 C 0.19186 0.62027 0.97186 0.0
H466 H 0.10859 0.50913 1.00211 0.0
C467 C 0.17191 0.64777 1.00077 0.0
C468 C 0.12922 0.62557 1.03042 0.0
H469 H 0.22595 0.63835 0.95108 0.0
H470 H 0.19061 0.68647 1.00064 0.0
C471 C 0.10605 0.57525 1.02902 0.0
C472 C 0.62538 0.99585 1.0347 0.0
C473 C 0.58177 0.95919 1.01711 0.0
H474 H 0.65823 0.06749 1.06206 0.0
C475 C 0.53916 0.96997 1.00759 0.0
H476 H 0.65885 0.98879 1.04256 0.0
C477 C 0.53879 1.01521 1.01872 0.0
C478 C 0.581 1.05069 1.0398 0.0
H479 H 0.50536 0.94287 0.99303 0.0
H480 H 0.50428 1.02133 1.01326 0.0
C481 C 0.62503 1.04111 1.04586 0.0
C482 C 0.86615 0.17383 0.6538 0.0
C483 C 0.86576 0.19188 0.60853 0.0
H484 H 0.90838 0.15362 0.70469 0.0
C485 C 0.9097 0.20354 0.57976 0.0
H486 H 0.83298 0.16339 0.67674 0.0
C487 C 0.95198 0.1958 0.59518 0.0
C488 C 0.95207 0.17821 0.64033 0.0
H489 H 0.91181 0.21887 0.54528 0.0
H490 H 0.98481 0.20411 0.57201 0.0
C491 C 0.90921 0.16782 0.6698 0.0
C492 C 0.28494 0.74723 0.22292 0.0
C493 C 0.29705 0.79525 0.23756 0.0
H494 H 0.23142 0.68466 0.18911 0.0
C495 C 0.26184 0.8164 0.22852 0.0
H496 H 0.31114 0.72967 0.22824 0.0
C497 C 0.21681 0.79094 0.20476 0.0
C498 C 0.20496 0.74317 0.19003 0.0
H499 H 0.26885 0.85279 0.23996 0.0
H500 H 0.19082 0.80858 0.19864 0.0
C501 C 0.23935 0.72145 0.19985 0.0
C502 C 0.33395 0.55025 0.68287 0.0
C503 C 0.33469 0.54968 0.73254 0.0
H504 H 0.37662 0.57141 0.6182 0.0
C505 C 0.38081 0.57629 0.75476 0.0
H506 H 0.29912 0.53126 0.66428 0.0
C507 C 0.42531 0.60003 0.72805 0.0
C508 C 0.42494 0.59756 0.67846 0.0
H509 H 0.38327 0.57666 0.79276 0.0
H510 H 0.46052 0.61832 0.74631 0.0
C511 C 0.37842 0.57353 0.65628 0.0
C512 C 0.77439 0.80102 1.04789 0.0
C513 C 0.75276 0.78125 1.00464 0.0
H514 H 0.83447 0.81098 0.09593 0.0
C515 C 0.76895 0.74793 0.98131 0.0
H516 H 0.763 0.82728 1.06617 0.0
C517 C 0.81012 0.73899 0.99797 0.0
C518 C 0.83567 0.76311 1.03831 0.0
H519 H 0.75283 0.73231 0.94784 0.0
H520 H 0.82407 0.71568 0.97756 0.0
C521 C 0.81561 0.79199 1.06466 0.0
C522 C 0.48013 0.98712 0.27547 0.0
C523 C 0.44932 0.94987 0.24591 0.0
H524 H 0.52801 1.06182 0.28215 0.0
C525 C 0.44378 0.96113 0.19887 0.0
H526 H 0.48515 0.98006 0.31185 0.0
C527 C 0.46781 1.00794 0.18205 0.0
C528 C 0.49849 1.04506 0.21155 0.0
H529 H 0.42138 0.93349 0.17453 0.0
H530 H 0.46301 1.01486 0.14554 0.0
C531 C 0.50429 1.03412 0.25854 0.0
C532 C 0.18382 0.34575 0.77448 0.0
C533 C 0.1949 0.38721 0.7472 0.0
H534 H 0.15425 0.26857 0.77596 0.0
C535 C 0.18273 0.38098 0.69913 0.0
H536 H 0.19308 0.34899 0.81147 0.0
C537 C 0.16083 0.3351 0.6788 0.0
C538 C 0.15034 0.29359 0.70572 0.0
H539 H 0.19009 0.41181 0.67698 0.0
H540 H 0.15225 0.33232 0.64164 0.0
C541 C 0.162 0.29956 0.75397 0.0
C542 C 0.6386 0.34698 0.68256 0.0
C543 C 0.64217 0.31474 0.64756 0.0
H544 H 0.62387 0.41012 0.69854 0.0
C545 C 0.63159 0.32149 0.60075 0.0
H546 H 0.6468 0.34302 0.71892 0.0
C547 C 0.61961 0.36052 0.5889 0.0
C548 C 0.61732 0.39351 0.62366 0.0
H549 H 0.63312 0.29685 0.57303 0.0
H550 H 0.61353 0.36547 0.55221 0.0
C551 C 0.62615 0.38586 0.67076 0.0
loop_
_geom_bond_atom_site_label_1
_geom_bond_atom_site_label_2
_geom_bond_distance
_geom_bond_site_symmetry_2
_ccdc_geom_bond_type
H0 C1 0.949 . S
C1 H0 0.949 . S
C1 C2 1.395 . S
C1 C3 1.391 . S
C2 C1 1.395 . S
C2 C5 1.390 . S
C3 C1 1.391 . S
C3 C7 1.387 . S
C3 C8 1.491 . S
H4 C5 0.950 . S
C5 C2 1.390 . S
C5 H4 0.950 . S
C5 C6 1.378 . S
C6 C5 1.378 . S
C6 C7 1.409 . S
C7 C3 1.387 . S
C7 C6 1.409 . S
C7 H9 0.951 . S
C8 C3 1.491 . S
C8 C10 1.382 . S
C8 C12 1.404 . S
H9 C7 0.951 . S
C10 C8 1.382 . S
C10 C11 1.390 . S
C10 H15 0.949 . S
C11 C10 1.390 . S
C11 C16 1.399 . S
C12 C8 1.404 . S
C12 H13 0.950 . S
C12 C14 1.375 . S
H13 C12 0.950 . S
C14 C12 1.375 . S
C14 C16 1.382 . S
C14 H18 0.950 . S
H15 C10 0.949 . S
C16 C11 1.399 . S
C16 C14 1.382 . S
C16 H17 0.952 . S
H17 C16 0.952 . S
H18 C14 0.950 . S
H19 C20 0.949 . S
C20 H19 0.949 . S
C20 C21 1.395 . S
C20 C22 1.391 . S
C21 C20 1.395 . S
C21 C24 1.390 . S
C22 C20 1.391 . S
C22 C26 1.387 . S
C22 C27 1.491 . S
H23 C24 0.950 . S
C24 C21 1.390 . S
C24 H23 0.950 . S
C24 C25 1.378 . S
C25 C24 1.378 . S
C25 C26 1.409 . S
C26 C22 1.387 . S
C26 C25 1.409 . S
C26 H28 0.951 . S
C27 C22 1.491 . S
C27 C29 1.382 . S
C27 C31 1.404 . S
H28 C26 0.951 . S
C29 C27 1.382 . S
C29 C30 1.390 . S
C29 H34 0.949 . S
C30 C29 1.390 . S
C30 C35 1.399 . S
C31 C27 1.404 . S
C31 H32 0.950 . S
C31 C33 1.375 . S
H32 C31 0.950 . S
C33 C31 1.375 . S
C33 C35 1.382 . S
C33 H37 0.950 . S
H34 C29 0.949 . S
C35 C30 1.399 . S
C35 C33 1.382 . S
C35 H36 0.952 . S
H36 C35 0.952 . S
H37 C33 0.950 . S
H38 C39 0.949 . S
C39 H38 0.949 . S
C39 C40 1.395 . S
C39 C41 1.391 . S
C40 C39 1.395 . S
C40 C43 1.390 . S
C41 C39 1.391 . S
C41 C45 1.387 . S
C41 C46 1.491 . S
H42 C43 0.950 . S
C43 C40 1.390 . S
C43 H42 0.950 . S
C43 C44 1.378 . S
C44 C43 1.378 . S
C44 C45 1.409 . S
C45 C41 1.387 . S
C45 C44 1.409 . S
C45 H47 0.951 . S
C46 C41 1.491 . S
C46 C48 1.382 . S
C46 C50 1.404 . S
H47 C45 0.951 . S
C48 C46 1.382 . S
C48 C49 1.390 . S
C48 H53 0.949 . S
C49 C48 1.390 . S
C49 C54 1.399 . S
C50 C46 1.404 . S
C50 H51 0.950 . S
C50 C52 1.375 . S
H51 C50 0.950 . S
C52 C50 1.375 . S
C52 C54 1.382 . S
C52 H56 0.950 . S
H53 C48 0.949 . S
C54 C49 1.399 . S
C54 C52 1.382 . S
C54 H55 0.952 . S
H55 C54 0.952 . S
H56 C52 0.950 . S
H57 C58 0.949 . S
C58 H57 0.949 . S
C58 C59 1.395 . S
C58 C60 1.391 . S
C59 C58 1.395 . S
C59 C62 1.390 . S
C60 C58 1.391 . S
C60 C64 1.387 . S
C60 C65 1.491 . S
H61 C62 0.950 . S
C62 C59 1.390 . S
C62 H61 0.950 . S
C62 C63 1.378 . S
C63 C62 1.378 . S
C63 C64 1.409 . S
C64 C60 1.387 . S
C64 C63 1.409 . S
C64 H66 0.951 . S
C65 C60 1.491 . S
C65 C67 1.382 . S
C65 C69 1.404 . S
H66 C64 0.951 . S
C67 C65 1.382 . S
C67 C68 1.390 . S
C67 H72 0.949 . S
C68 C67 1.390 . S
C68 C73 1.399 . S
C69 C65 1.404 . S
C69 H70 0.950 . S
C69 C71 1.375 . S
H70 C69 0.950 . S
C71 C69 1.375 . S
C71 C73 1.382 . S
C71 H75 0.950 . S
H72 C67 0.949 . S
C73 C68 1.399 . S
C73 C71 1.382 . S
C73 H74 0.952 . S
H74 C73 0.952 . S
H75 C71 0.950 . S
H76 C77 0.949 . S
C77 H76 0.949 . S
C77 C78 1.395 . S
C77 C79 1.391 . S
C78 C77 1.395 . S
C78 C81 1.390 . S
C79 C77 1.391 . S
C79 C83 1.387 . S
C79 C84 1.491 . S
H80 C81 0.950 . S
C81 C78 1.390 . S
C81 H80 0.950 . S
C81 C82 1.378 . S
C82 C81 1.378 . S
C82 C83 1.409 . S
C83 C79 1.387 . S
C83 C82 1.409 . S
C83 H85 0.951 . S
C84 C79 1.491 . S
C84 C86 1.382 . S
C84 C88 1.404 . S
H85 C83 0.951 . S
C86 C84 1.382 . S
C86 C87 1.390 . S
C86 H91 0.949 . S
C87 C86 1.390 . S
C87 C92 1.399 . S
C88 C84 1.404 . S
C88 H89 0.950 . S
C88 C90 1.375 . S
H89 C88 0.950 . S
C90 C88 1.375 . S
C90 C92 1.382 . S
C90 H94 0.950 . S
H91 C86 0.949 . S
C92 C87 1.399 . S
C92 C90 1.382 . S
C92 H93 0.952 . S
H93 C92 0.952 . S
H94 C90 0.950 . S
H95 C96 0.949 . S
C96 H95 0.949 . S
C96 C97 1.395 . S
C96 C98 1.391 . S
C97 C96 1.395 . S
C97 C100 1.390 . S
C98 C96 1.391 . S
C98 C102 1.387 . S
C98 C103 1.491 . S
H99 C100 0.950 . S
C100 C97 1.390 . S
C100 H99 0.950 . S
C100 C101 1.378 . S
C101 C100 1.378 . S
C101 C102 1.409 . S
C102 C98 1.387 . S
C102 C101 1.409 . S
C102 H104 0.951 . S
C103 C98 1.491 . S
C103 C105 1.382 . S
C103 C107 1.404 . S
H104 C102 0.951 . S
C105 C103 1.382 . S
C105 C106 1.390 . S
C105 H110 0.949 . S
C106 C105 1.390 . S
C106 C111 1.399 . S
C107 C103 1.404 . S
C107 H108 0.950 . S
C107 C109 1.375 . S
H108 C107 0.950 . S
C109 C107 1.375 . S
C109 C111 1.382 . S
C109 H113 0.950 . S
H110 C105 0.949 . S
C111 C106 1.399 . S
C111 C109 1.382 . S
C111 H112 0.952 . S
H112 C111 0.952 . S
H113 C109 0.950 . S
H114 C115 0.949 . S
C115 H114 0.949 . S
C115 C116 1.395 . S
C115 C117 1.391 . S
C116 C115 1.395 . S
C116 C119 1.390 . S
C117 C115 1.391 . S
C117 C121 1.387 . S
C117 C122 1.491 . S
H118 C119 0.950 . S
C119 C116 1.390 . S
C119 H118 0.950 . S
C119 C120 1.378 . S
C120 C119 1.378 . S
C120 C121 1.409 . S
C121 C117 1.387 . S
C121 C120 1.409 . S
C121 H123 0.951 . S
C122 C117 1.491 . S
C122 C124 1.382 . S
C122 C126 1.404 . S
H123 C121 0.951 . S
C124 C122 1.382 . S
C124 C125 1.390 . S
C124 H129 0.949 . S
C125 C124 1.390 . S
C125 C130 1.399 . S
C126 C122 1.404 . S
C126 H127 0.950 . S
C126 C128 1.375 . S
H127 C126 0.950 . S
C128 C126 1.375 . S
C128 C130 1.382 . S
C128 H132 0.950 . S
H129 C124 0.949 . S
C130 C125 1.399 . S
C130 C128 1.382 . S
C130 H131 0.952 . S
H131 C130 0.952 . S
H132 C128 0.950 . S
H133 C134 0.949 . S
C134 H133 0.949 . S
C134 C135 1.395 . S
C134 C136 1.391 . S
C135 C134 1.395 . S
C135 C138 1.390 . S
C136 C134 1.391 . S
C136 C140 1.387 . S
C136 C141 1.491 . S
H137 C138 0.950 . S
C138 C135 1.390 . S
C138 H137 0.950 . S
C138 C139 1.378 . S
C139 C138 1.378 . S
C139 C140 1.409 . S
C140 C136 1.387 . S
C140 C139 1.409 . S
C140 H142 0.951 . S
C141 C136 1.491 . S
C141 C143 1.382 . S
C141 C145 1.404 . S
H142 C140 0.951 . S
C143 C141 1.382 . S
C143 C144 1.390 . S
C143 H148 0.949 . S
C144 C143 1.390 . S
C144 C149 1.399 . S
C145 C141 1.404 . S
C145 H146 0.950 . S
C145 C147 1.375 . S
H146 C145 0.950 . S
C147 C145 1.375 . S
C147 C149 1.382 . S
C147 H151 0.950 . S
H148 C143 0.949 . S
C149 C144 1.399 . S
C149 C147 1.382 . S
C149 H150 0.952 . S
H150 C149 0.952 . S
H151 C147 0.950 . S
La152 C154 2.928 . S
La152 O172 2.521 . S
La152 O173 2.628 . S
La152 O174 2.554 . S
La152 O175 2.757 . S
La152 O176 2.470 . S
La152 O181 2.482 1_455 S
La152 O183 2.503 1_445 S
La153 C163 2.928 1_545 S
La153 O175 2.482 1_655 S
La153 O177 2.503 1_655 S
La153 O178 2.521 1_545 S
La153 O179 2.628 1_545 S
La153 O180 2.554 . S
La153 O181 2.757 . S
La153 O182 2.470 1_545 S
C154 La152 2.928 . S
C154 C155 1.503 . S
C154 O172 1.261 . S
C154 O173 1.243 . S
C155 C154 1.503 . S
C155 C156 1.394 . S
C155 C160 1.373 . S
C156 C155 1.394 . S
C156 C157 1.380 . S
C156 H184 0.930 . S
C157 C156 1.380 . S
C157 C158 1.376 . S
C157 H185 0.930 . S
C158 C157 1.376 . S
C158 C159 1.370 . S
C159 C158 1.370 . S
C159 C160 1.396 . S
C159 H186 0.929 . S
C160 C155 1.373 . S
C160 C159 1.396 . S
C160 H187 0.929 . S
C161 O174 1.240 . S
C161 O175 1.289 . S
C162 O176 1.258 . S
C162 O177 1.256 . S
C163 La153 2.928 1_565 S
C163 C164 1.503 . S
C163 O178 1.261 . S
C163 O179 1.243 . S
C164 C163 1.503 . S
C164 C165 1.394 . S
C164 C169 1.373 . S
C165 C164 1.394 . S
C165 C166 1.380 . S
C165 H188 0.930 . S
C166 C165 1.380 . S
C166 C167 1.376 . S
C166 H189 0.930 . S
C167 C166 1.376 . S
C167 C168 1.370 . S
C168 C167 1.370 . S
C168 C169 1.396 . S
C168 H190 0.929 . S
C169 C164 1.373 . S
C169 C168 1.396 . S
C169 H191 0.929 . S
C170 O180 1.240 . S
C170 O181 1.289 . S
C171 O182 1.258 . S
C171 O183 1.256 . S
O172 La152 2.521 . S
O172 C154 1.261 . S
O173 La152 2.628 . S
O173 C154 1.243 . S
O174 La152 2.554 . S
O174 C161 1.240 . S
O175 La152 2.757 . S
O175 La153 2.482 1_455 S
O175 C161 1.289 . S
O176 La152 2.470 . S
O176 C162 1.258 . S
O177 La153 2.503 1_455 S
O177 C162 1.256 . S
O178 La153 2.521 1_565 S
O178 C163 1.261 . S
O179 La153 2.628 1_565 S
O179 C163 1.243 . S
O180 La153 2.554 . S
O180 C170 1.240 . S
O181 La152 2.482 1_655 S
O181 La153 2.757 . S
O181 C170 1.289 . S
O182 La153 2.470 1_565 S
O182 C171 1.258 . S
O183 La152 2.503 1_665 S
O183 C171 1.256 . S
H184 C156 0.930 . S
H185 C157 0.930 . S
H186 C159 0.929 . S
H187 C160 0.929 . S
H188 C165 0.930 . S
H189 C166 0.930 . S
H190 C168 0.929 . S
H191 C169 0.929 . S
La192 C194 2.928 . S
La192 O212 2.521 . S
La192 O213 2.628 . S
La192 O214 2.554 1_545 S
La192 O215 2.757 1_545 S
La192 O216 2.470 . S
La192 O221 2.482 . S
La192 O223 2.503 . S
La193 C203 2.928 1_544 S
La193 O215 2.482 1_545 S
La193 O217 2.503 . S
La193 O218 2.521 1_554 S
La193 O219 2.628 1_545 S
La193 O220 2.554 . S
La193 O221 2.757 . S
La193 O222 2.470 . S
C194 La192 2.928 . S
C194 C195 1.503 . S
C194 O212 1.261 . S
C194 O213 1.243 . S
C195 C194 1.503 . S
C195 C196 1.394 . S
C195 C200 1.373 . S
C196 C195 1.394 . S
C196 C197 1.380 . S
C196 H224 0.930 . S
C197 C196 1.380 . S
C197 C198 1.376 . S
C197 H225 0.930 . S
C198 C197 1.376 . S
C198 C199 1.370 . S
C199 C198 1.370 . S
C199 C200 1.396 . S
C199 H226 0.929 . S
C200 C195 1.373 . S
C200 C199 1.396 . S
C200 H227 0.929 . S
C201 O214 1.240 . S
C201 O215 1.289 . S
C202 O216 1.258 . S
C202 O217 1.256 . S
C203 La193 2.928 1_566 S
C203 C204 1.503 . S
C203 O218 1.261 1_565 S
C203 O219 1.243 1_556 S
C204 C203 1.503 . S
C204 C205 1.394 . S
C204 C209 1.373 . S
C205 C204 1.394 . S
C205 C206 1.380 . S
C205 H228 0.930 1_565 S
C206 C205 1.380 . S
C206 C207 1.376 . S
C206 H229 0.930 . S
C207 C206 1.376 . S
C207 C208 1.370 . S
C208 C207 1.370 . S
C208 C209 1.396 . S
C208 H230 0.929 . S
C209 C204 1.373 . S
C209 C208 1.396 . S
C209 H231 0.929 . S
C210 O220 1.240 . S
C210 O221 1.289 . S
C211 O222 1.258 1_565 S
C211 O223 1.256 1_565 S
O212 La192 2.521 . S
O212 C194 1.261 . S
O213 La192 2.628 . S
O213 C194 1.243 . S
O214 La192 2.554 1_565 S
O214 C201 1.240 . S
O215 La192 2.757 1_565 S
O215 La193 2.482 1_565 S
O215 C201 1.289 . S
O216 La192 2.470 . S
O216 C202 1.258 . S
O217 La193 2.503 . S
O217 C202 1.256 . S
O218 La193 2.521 1_556 S
O218 C203 1.261 1_545 S
O219 La193 2.628 1_565 S
O219 C203 1.243 1_554 S
O220 La193 2.554 . S
O220 C210 1.240 . S
O221 La192 2.482 . S
O221 La193 2.757 . S
O221 C210 1.289 . S
O222 La193 2.470 . S
O222 C211 1.258 1_545 S
O223 La192 2.503 . S
O223 C211 1.256 1_545 S
H224 C196 0.930 . S
H225 C197 0.930 . S
H226 C199 0.929 . S
H227 C200 0.929 . S
H228 C205 0.930 1_545 S
H229 C206 0.930 . S
H230 C208 0.929 . S
H231 C209 0.929 . S
La232 C234 2.928 . S
La232 O252 2.521 . S
La232 O253 2.628 . S
La232 O254 2.554 . S
La232 O255 2.757 . S
La232 O256 2.470 . S
La232 O261 2.482 . S
La232 O263 2.503 . S
La233 C243 2.928 . S
La233 O255 2.482 . S
La233 O257 2.503 . S
La233 O258 2.521 . S
La233 O259 2.628 . S
La233 O260 2.554 . S
La233 O261 2.757 . S
La233 O262 2.470 . S
C234 La232 2.928 . S
C234 C235 1.503 . S
C234 O252 1.261 . S
C234 O253 1.243 . S
C235 C234 1.503 . S
C235 C236 1.394 . S
C235 C240 1.373 . S
C236 C235 1.394 . S
C236 C237 1.380 . S
C236 H264 0.930 . S
C237 C236 1.380 . S
C237 C238 1.376 . S
C237 H265 0.930 . S
C238 C237 1.376 . S
C238 C239 1.370 . S
C239 C238 1.370 . S
C239 C240 1.396 . S
C239 H266 0.929 . S
C240 C235 1.373 . S
C240 C239 1.396 . S
C240 H267 0.929 . S
C241 O254 1.240 . S
C241 O255 1.289 . S
C242 O256 1.258 . S
C242 O257 1.256 . S
C243 La233 2.928 . S
C243 C244 1.503 . S
C243 O258 1.261 . S
C243 O259 1.243 . S
C244 C243 1.503 . S
C244 C245 1.394 . S
C244 C249 1.373 . S
C245 C244 1.394 . S
C245 C246 1.380 . S
C245 H268 0.930 . S
C246 C245 1.380 . S
C246 C247 1.376 . S
C246 H269 0.930 . S
C247 C246 1.376 . S
C247 C248 1.370 . S
C248 C247 1.370 . S
C248 C249 1.396 . S
C248 H270 0.929 . S
C249 C244 1.373 . S
C249 C248 1.396 . S
C249 H271 0.929 . S
C250 O260 1.240 . S
C250 O261 1.289 . S
C251 O262 1.258 . S
C251 O263 1.256 . S
O252 La232 2.521 . S
O252 C234 1.261 . S
O253 La232 2.628 . S
O253 C234 1.243 . S
O254 La232 2.554 . S
O254 C241 1.240 . S
O255 La232 2.757 . S
O255 La233 2.482 . S
O255 C241 1.289 . S
O256 La232 2.470 . S
O256 C242 1.258 . S
O257 La233 2.503 . S
O257 C242 1.256 . S
O258 La233 2.521 . S
O258 C243 1.261 . S
O259 La233 2.628 . S
O259 C243 1.243 . S
O260 La233 2.554 . S
O260 C250 1.240 . S
O261 La232 2.482 . S
O261 La233 2.757 . S
O261 C250 1.289 . S
O262 La233 2.470 . S
O262 C251 1.258 . S
O263 La232 2.503 . S
O263 C251 1.256 . S
H264 C236 0.930 . S
H265 C237 0.930 . S
H266 C239 0.929 . S
H267 C240 0.929 . S
H268 C245 0.930 . S
H269 C246 0.930 . S
H270 C248 0.929 . S
H271 C249 0.929 . S
La272 C274 2.928 . S
La272 O292 2.521 . S
La272 O293 2.628 . S
La272 O294 2.554 . S
La272 O295 2.757 . S
La272 O296 2.470 . S
La272 O301 2.468 1_554 S
La272 O303 2.503 1_455 S
La273 C283 2.928 1_454 S
La273 O295 2.482 . S
La273 O297 2.503 . S
La273 O298 2.524 1_554 S
La273 O299 2.629 1_455 S
La273 O300 2.554 1_554 S
La273 O301 2.757 1_554 S
La273 O302 2.470 1_454 S
C274 La272 2.928 . S
C274 C275 1.503 . S
C274 O292 1.261 . S
C274 O293 1.243 . S
C275 C274 1.503 . S
C275 C276 1.394 . S
C275 C280 1.373 . S
C276 C275 1.394 . S
C276 C277 1.380 . S
C276 H304 0.930 . S
C277 C276 1.380 . S
C277 C278 1.376 . S
C277 H305 0.930 . S
C278 C277 1.376 . S
C278 C279 1.370 . S
C279 C278 1.370 . S
C279 C280 1.396 . S
C279 H306 0.929 . S
C280 C275 1.373 . S
C280 C279 1.396 . S
C280 H307 0.929 . S
C281 O294 1.240 1_655 S
C281 O295 1.289 1_655 S
C282 O296 1.258 . S
C282 O297 1.256 . S
C283 La273 2.928 1_656 S
C283 C284 1.503 . S
C283 O298 1.255 1_655 S
C283 O299 1.228 1_556 S
C284 C283 1.503 . S
C284 C285 1.394 . S
C284 C289 1.373 . S
C285 C284 1.394 . S
C285 C286 1.380 . S
C285 H308 0.930 . S
C286 C285 1.380 . S
C286 C287 1.376 . S
C286 H309 0.930 . S
C287 C286 1.376 . S
C287 C288 1.370 . S
C288 C287 1.370 . S
C288 C289 1.396 . S
C288 H310 0.929 . S
C289 C284 1.373 . S
C289 C288 1.396 . S
C289 H311 0.929 . S
C290 O300 1.240 . S
C290 O301 1.306 . S
C291 O302 1.258 . S
C291 O303 1.256 1_556 S
O292 La272 2.521 . S
O292 C274 1.261 . S
O293 La272 2.628 . S
O293 C274 1.243 . S
O294 La272 2.554 . S
O294 C281 1.240 1_455 S
O295 La272 2.757 . S
O295 La273 2.482 . S
O295 C281 1.289 1_455 S
O296 La272 2.470 . S
O296 C282 1.258 . S
O297 La273 2.503 . S
O297 C282 1.256 . S
O298 La273 2.524 1_556 S
O298 C283 1.255 1_455 S
O299 La273 2.629 1_655 S
O299 C283 1.228 1_554 S
O300 La273 2.554 1_556 S
O300 C290 1.240 . S
O301 La272 2.468 1_556 S
O301 La273 2.757 1_556 S
O301 C290 1.306 . S
O302 La273 2.470 1_656 S
O302 C291 1.258 . S
O303 La272 2.503 1_655 S
O303 C291 1.256 1_554 S
H304 C276 0.930 . S
H305 C277 0.930 . S
H306 C279 0.929 . S
H307 C280 0.929 . S
H308 C285 0.930 . S
H309 C286 0.930 . S
H310 C288 0.929 . S
H311 C289 0.929 . S
C312 C313 1.387 . S
C312 H316 0.950 . S
C312 C321 1.390 . S
C313 C312 1.387 . S
C313 C315 1.387 . S
H314 C321 0.950 . S
C315 C313 1.387 . S
C315 C317 1.390 . S
C315 H319 0.950 . S
H316 C312 0.950 . S
C317 C315 1.390 . S
C317 C318 1.387 . S
C317 H320 0.950 . S
C318 C317 1.387 . S
C318 C321 1.387 . S
H319 C315 0.950 . S
H320 C317 0.950 . S
C321 C312 1.390 . S
C321 H314 0.950 . S
C321 C318 1.387 . S
C322 C323 1.387 . S
C322 H326 0.950 . S
C322 C331 1.390 . S
C323 C322 1.387 . S
C323 C325 1.387 . S
H324 C331 0.950 . S
C325 C323 1.387 . S
C325 C327 1.390 . S
C325 H329 0.950 . S
H326 C322 0.950 . S
C327 C325 1.390 . S
C327 C328 1.387 . S
C327 H330 0.950 . S
C328 C327 1.387 . S
C328 C331 1.387 . S
H329 C325 0.950 . S
H330 C327 0.950 . S
C331 C322 1.390 . S
C331 H324 0.950 . S
C331 C328 1.387 . S
C332 C333 1.387 . S
C332 H336 0.950 . S
C332 C341 1.390 . S
C333 C332 1.387 . S
C333 C335 1.387 . S
H334 C341 0.950 . S
C335 C333 1.387 . S
C335 C337 1.390 . S
C335 H339 0.950 . S
H336 C332 0.950 . S
C337 C335 1.390 . S
C337 C338 1.387 . S
C337 H340 0.950 . S
C338 C337 1.387 . S
C338 C341 1.387 . S
H339 C335 0.950 . S
H340 C337 0.950 . S
C341 C332 1.390 . S
C341 H334 0.950 . S
C341 C338 1.387 . S
C342 C343 1.387 . S
C342 H346 0.950 . S
C342 C351 1.390 . S
C343 C342 1.387 . S
C343 C345 1.387 . S
H344 C351 0.950 . S
C345 C343 1.387 . S
C345 C347 1.390 . S
C345 H349 0.950 . S
H346 C342 0.950 . S
C347 C345 1.390 . S
C347 C348 1.387 . S
C347 H350 0.950 . S
C348 C347 1.387 . S
C348 C351 1.387 . S
H349 C345 0.950 . S
H350 C347 0.950 . S
C351 C342 1.390 . S
C351 H344 0.950 . S
C351 C348 1.387 . S
C352 C353 1.387 . S
C352 H356 0.950 . S
C352 C361 1.390 . S
C353 C352 1.387 . S
C353 C355 1.387 . S
H354 C361 0.950 . S
C355 C353 1.387 . S
C355 C357 1.390 . S
C355 H359 0.950 . S
H356 C352 0.950 . S
C357 C355 1.390 . S
C357 C358 1.387 . S
C357 H360 0.950 . S
C358 C357 1.387 . S
C358 C361 1.387 . S
H359 C355 0.950 . S
H360 C357 0.950 . S
C361 C352 1.390 . S
C361 H354 0.950 . S
C361 C358 1.387 . S
C362 C363 1.387 . S
C362 H366 0.950 . S
C362 C371 1.390 . S
C363 C362 1.387 . S
C363 C365 1.387 . S
H364 C371 0.950 . S
C365 C363 1.387 . S
C365 C367 1.390 1_565 S
C365 H369 0.950 . S
H366 C362 0.950 . S
C367 C365 1.390 1_545 S
C367 C368 1.387 . S
C367 H370 0.950 . S
C368 C367 1.387 . S
C368 C371 1.387 1_545 S
H369 C365 0.950 . S
H370 C367 0.950 . S
C371 C362 1.390 . S
C371 H364 0.950 . S
C371 C368 1.387 1_565 S
C372 C373 1.387 . S
C372 H376 0.950 . S
C372 C381 1.390 . S
C373 C372 1.387 . S
C373 C375 1.387 . S
H374 C381 0.950 . S
C375 C373 1.387 . S
C375 C377 1.390 1_556 S
C375 H379 0.950 1_556 S
H376 C372 0.950 . S
C377 C375 1.390 1_554 S
C377 C378 1.387 1_554 S
C377 H380 0.950 . S
C378 C377 1.387 1_556 S
C378 C381 1.387 . S
H379 C375 0.950 1_554 S
H380 C377 0.950 . S
C381 C372 1.390 . S
C381 H374 0.950 . S
C381 C378 1.387 . S
C382 C383 1.387 . S
C382 H386 0.950 . S
C382 C391 1.390 . S
C383 C382 1.387 . S
C383 C385 1.387 . S
H384 C391 0.950 . S
C385 C383 1.387 . S
C385 C387 1.390 . S
C385 H389 0.950 . S
H386 C382 0.950 . S
C387 C385 1.390 . S
C387 C388 1.387 . S
C387 H390 0.950 . S
C388 C387 1.387 . S
C388 C391 1.387 . S
H389 C385 0.950 . S
H390 C387 0.950 . S
C391 C382 1.390 . S
C391 H384 0.950 . S
C391 C388 1.387 . S
C392 C393 1.387 . S
C392 H396 0.950 . S
C392 C401 1.390 . S
C393 C392 1.387 . S
C393 C395 1.387 . S
H394 C401 0.950 . S
C395 C393 1.387 . S
C395 C397 1.390 . S
C395 H399 0.950 . S
H396 C392 0.950 . S
C397 C395 1.390 . S
C397 C398 1.387 . S
C397 H400 0.950 . S
C398 C397 1.387 . S
C398 C401 1.387 . S
H399 C395 0.950 . S
H400 C397 0.950 . S
C401 C392 1.390 . S
C401 H394 0.950 . S
C401 C398 1.387 . S
C402 C403 1.387 1_554 S
C402 H406 0.950 . S
C402 C411 1.390 . S
C403 C402 1.387 1_556 S
C403 C405 1.387 . S
H404 C411 0.950 . S
C405 C403 1.387 . S
C405 C407 1.390 . S
C405 H409 0.950 . S
H406 C402 0.950 . S
C407 C405 1.390 . S
C407 C408 1.387 1_556 S
C407 H410 0.950 . S
C408 C407 1.387 1_554 S
C408 C411 1.387 . S
H409 C405 0.950 . S
H410 C407 0.950 . S
C411 C402 1.390 . S
C411 H404 0.950 . S
C411 C408 1.387 . S
C412 C413 1.387 . S
C412 H416 0.950 . S
C412 C421 1.390 . S
C413 C412 1.387 . S
C413 C415 1.387 . S
H414 C421 0.950 . S
C415 C413 1.387 . S
C415 C417 1.390 . S
C415 H419 0.950 . S
H416 C412 0.950 . S
C417 C415 1.390 . S
C417 C418 1.387 . S
C417 H420 0.950 . S
C418 C417 1.387 . S
C418 C421 1.387 . S
H419 C415 0.950 . S
H420 C417 0.950 . S
C421 C412 1.390 . S
C421 H414 0.950 . S
C421 C418 1.387 . S
C422 C423 1.387 . S
C422 H426 0.950 . S
C422 C431 1.390 . S
C423 C422 1.387 . S
C423 C425 1.387 . S
H424 C431 0.950 . S
C425 C423 1.387 . S
C425 C427 1.390 . S
C425 H429 0.950 . S
H426 C422 0.950 . S
C427 C425 1.390 . S
C427 C428 1.387 . S
C427 H430 0.950 . S
C428 C427 1.387 . S
C428 C431 1.387 . S
H429 C425 0.950 . S
H430 C427 0.950 . S
C431 C422 1.390 . S
C431 H424 0.950 . S
C431 C428 1.387 . S
C432 C433 1.387 . S
C432 H436 0.950 . S
C432 C441 1.390 . S
C433 C432 1.387 . S
C433 C435 1.387 . S
H434 C441 0.950 . S
C435 C433 1.387 . S
C435 C437 1.390 . S
C435 H439 0.950 . S
H436 C432 0.950 . S
C437 C435 1.390 . S
C437 C438 1.387 . S
C437 H440 0.950 . S
C438 C437 1.387 . S
C438 C441 1.387 . S
H439 C435 0.950 . S
H440 C437 0.950 . S
C441 C432 1.390 . S
C441 H434 0.950 . S
C441 C438 1.387 . S
C442 C443 1.387 . S
C442 H446 0.950 . S
C442 C451 1.390 . S
C443 C442 1.387 . S
C443 C445 1.387 . S
H444 C451 0.950 . S
C445 C443 1.387 . S
C445 C447 1.390 . S
C445 H449 0.950 . S
H446 C442 0.950 . S
C447 C445 1.390 . S
C447 C448 1.387 . S
C447 H450 0.950 . S
C448 C447 1.387 . S
C448 C451 1.387 . S
H449 C445 0.950 . S
H450 C447 0.950 . S
C451 C442 1.390 . S
C451 H444 0.950 . S
C451 C448 1.387 . S
C452 C453 1.387 . S
C452 H456 0.950 . S
C452 C461 1.390 . S
C453 C452 1.387 . S
C453 C455 1.387 . S
H454 C461 0.950 . S
C455 C453 1.387 . S
C455 C457 1.390 . S
C455 H459 0.950 . S
H456 C452 0.950 . S
C457 C455 1.390 . S
C457 C458 1.387 . S
C457 H460 0.950 . S
C458 C457 1.387 . S
C458 C461 1.387 . S
H459 C455 0.950 . S
H460 C457 0.950 . S
C461 C452 1.390 . S
C461 H454 0.950 . S
C461 C458 1.387 . S
C462 C463 1.387 . S
C462 H466 0.950 . S
C462 C471 1.390 . S
C463 C462 1.387 . S
C463 C465 1.387 . S
H464 C471 0.950 . S
C465 C463 1.387 . S
C465 C467 1.390 . S
C465 H469 0.950 . S
H466 C462 0.950 . S
C467 C465 1.390 . S
C467 C468 1.387 . S
C467 H470 0.950 . S
C468 C467 1.387 . S
C468 C471 1.387 . S
H469 C465 0.950 . S
H470 C467 0.950 . S
C471 C462 1.390 . S
C471 H464 0.950 . S
C471 C468 1.387 . S
C472 C473 1.387 . S
C472 H476 0.950 1_556 S
C472 C481 1.390 1_556 S
C473 C472 1.387 . S
C473 C475 1.387 . S
H474 C481 0.950 . S
C475 C473 1.387 . S
C475 C477 1.390 . S
C475 H479 0.950 . S
H476 C472 0.950 1_554 S
C477 C475 1.390 . S
C477 C478 1.387 1_556 S
C477 H480 0.950 . S
C478 C477 1.387 1_554 S
C478 C481 1.388 . S
H479 C475 0.950 . S
H480 C477 0.950 . S
C481 C472 1.390 1_554 S
C481 H474 0.950 . S
C481 C478 1.388 . S
C482 C483 1.387 . S
C482 H486 0.950 . S
C482 C491 1.390 . S
C483 C482 1.387 . S
C483 C485 1.387 . S
H484 C491 0.950 . S
C485 C483 1.387 . S
C485 C487 1.390 . S
C485 H489 0.950 . S
H486 C482 0.950 . S
C487 C485 1.390 . S
C487 C488 1.387 . S
C487 H490 0.950 . S
C488 C487 1.387 . S
C488 C491 1.387 . S
H489 C485 0.950 . S
H490 C487 0.950 . S
C491 C482 1.390 . S
C491 H484 0.950 . S
C491 C488 1.387 . S
C492 C493 1.387 . S
C492 H496 0.950 . S
C492 C501 1.390 . S
C493 C492 1.387 . S
C493 C495 1.387 . S
H494 C501 0.950 . S
C495 C493 1.387 . S
C495 C497 1.390 . S
C495 H499 0.950 . S
H496 C492 0.950 . S
C497 C495 1.390 . S
C497 C498 1.387 . S
C497 H500 0.950 . S
C498 C497 1.387 . S
C498 C501 1.387 . S
H499 C495 0.950 . S
H500 C497 0.950 . S
C501 C492 1.390 . S
C501 H494 0.950 . S
C501 C498 1.387 . S
C502 C503 1.387 . S
C502 H506 0.950 . S
C502 C511 1.390 . S
C503 C502 1.387 . S
C503 C505 1.387 . S
H504 C511 0.950 . S
C505 C503 1.387 . S
C505 C507 1.390 . S
C505 H509 0.950 . S
H506 C502 0.950 . S
C507 C505 1.390 . S
C507 C508 1.387 . S
C507 H510 0.950 . S
C508 C507 1.387 . S
C508 C511 1.387 . S
H509 C505 0.950 . S
H510 C507 0.950 . S
C511 C502 1.390 . S
C511 H504 0.950 . S
C511 C508 1.387 . S
C512 C513 1.387 . S
C512 H516 0.950 . S
C512 C521 1.390 . S
C513 C512 1.387 . S
C513 C515 1.387 . S
H514 C521 0.950 . S
C515 C513 1.387 . S
C515 C517 1.390 . S
C515 H519 0.950 . S
H516 C512 0.950 . S
C517 C515 1.390 . S
C517 C518 1.387 . S
C517 H520 0.950 . S
C518 C517 1.387 . S
C518 C521 1.387 . S
H519 C515 0.950 . S
H520 C517 0.950 . S
C521 C512 1.390 . S
C521 H514 0.950 . S
C521 C518 1.387 . S
C522 C523 1.387 . S
C522 H526 0.950 . S
C522 C531 1.390 . S
C523 C522 1.387 . S
C523 C525 1.387 . S
H524 C531 0.950 . S
C525 C523 1.387 . S
C525 C527 1.390 . S
C525 H529 0.950 . S
H526 C522 0.950 . S
C527 C525 1.390 . S
C527 C528 1.387 . S
C527 H530 0.950 . S
C528 C527 1.387 . S
C528 C531 1.387 . S
H529 C525 0.950 . S
H530 C527 0.950 . S
C531 C522 1.390 . S
C531 H524 0.950 . S
C531 C528 1.387 . S
C532 C533 1.387 . S
C532 H536 0.950 . S
C532 C541 1.390 . S
C533 C532 1.387 . S
C533 C535 1.387 . S
H534 C541 0.950 . S
C535 C533 1.387 . S
C535 C537 1.390 . S
C535 H539 0.950 . S
H536 C532 0.950 . S
C537 C535 1.390 . S
C537 C538 1.387 . S
C537 H540 0.950 . S
C538 C537 1.387 . S
C538 C541 1.387 . S
H539 C535 0.950 . S
H540 C537 0.950 . S
C541 C532 1.390 . S
C541 H534 0.950 . S
C541 C538 1.387 . S
C542 C543 1.387 . S
C542 H546 0.950 . S
C542 C551 1.390 . S
C543 C542 1.387 . S
C543 C545 1.387 . S
H544 C551 0.950 . S
C545 C543 1.387 . S
C545 C547 1.390 . S
C545 H549 0.950 . S
H546 C542 0.950 . S
C547 C545 1.390 . S
C547 C548 1.387 . S
C547 H550 0.950 . S
C548 C547 1.387 . S
C548 C551 1.387 . S
H549 C545 0.950 . S
H550 C547 0.950 . S
C551 C542 1.390 . S
C551 H544 0.950 . S
C551 C548 1.387 . S
C313 C6 1.227 . S
C318 C158 1.258 . S
C323 C21 1.434 . S
C328 C207 1.462 . S
C338 C242 2.025 . S
C333 C49 2.079 . S
C343 C68 2.206 . S
C348 C281 2.254 . S
C358 C202 2.832 . S
C353 C2 2.667 . S
C368 C161 0.507 . S
C363 C30 0.444 . S
C378 C291 2.011 . S
C373 C40 2.088 . S
C388 C250 1.764 . S
C383 C63 1.752 . S
C393 C11 1.344 . S
C398 C278 1.563 . S
C408 C210 2.617 . S
C403 C44 2.709 . S
C413 C59 2.042 . S
C418 C171 2.043 . S
C423 C25 1.612 . S
C428 C247 1.575 . S
C438 C167 1.352 . S
C433 C82 1.351 . S
C443 C101 1.345 . S
C448 C198 1.361 . S
C453 C125 2.324 . S
C458 C251 2.413 . S
C463 C144 2.032 . S
C468 C290 2.100 . S
C473 C87 1.965 . S
C478 C211 2.149 . S
C488 C170 1.582 . S
C483 C97 1.626 . S
C498 C282 1.764 . S
C493 C120 1.876 . S
C508 C241 1.758 . S
C503 C135 1.882 . S
C513 C78 1.894 . S
C518 C287 2.056 . S
C528 C201 1.965 . S
C523 C116 2.035 . S
C538 C162 2.653 . S
C533 C139 2.651 . S
C543 C106 0.870 . S
C548 C238 1.137 . S
