# Generated by pormake.
# Topology ctn, (3,4)-cn, num edge types: 1
# Building blocks:
#     Node 0, Type 0, BuildingBlock: KAKCAD_clean_linker_0, # of connection points: 3
#     Node 1, Type 0, BuildingBlock: KAKCAD_clean_linker_0, # of connection points: 3
#     Node 2, Type 0, BuildingBlock: KAKCAD_clean_linker_0, # of connection points: 3
#     Node 3, Type 0, BuildingBlock: KAKCAD_clean_linker_0, # of connection points: 3
#     Node 4, Type 0, BuildingBlock: KAKCAD_clean_linker_0, # of connection points: 3
#     Node 5, Type 0, BuildingBlock: KAKCAD_clean_linker_0, # of connection points: 3
#     Node 6, Type 0, BuildingBlock: KAKCAD_clean_linker_0, # of connection points: 3
#     Node 7, Type 0, BuildingBlock: KAKCAD_clean_linker_0, # of connection points: 3
#     Node 8, Type 0, BuildingBlock: KAKCAD_clean_linker_0, # of connection points: 3
#     Node 9, Type 0, BuildingBlock: KAKCAD_clean_linker_0, # of connection points: 3
#     Node 10, Type 0, BuildingBlock: KAKCAD_clean_linker_0, # of connection points: 3
#     Node 11, Type 0, BuildingBlock: KAKCAD_clean_linker_0, # of connection points: 3
#     Node 12, Type 0, BuildingBlock: KAKCAD_clean_linker_0, # of connection points: 3
#     Node 13, Type 0, BuildingBlock: KAKCAD_clean_linker_0, # of connection points: 3
#     Node 14, Type 0, BuildingBlock: KAKCAD_clean_linker_0, # of connection points: 3
#     Node 15, Type 0, BuildingBlock: KAKCAD_clean_linker_0, # of connection points: 3
#     Node 16, Type 1, BuildingBlock: TATPOV_clean_sbu_0, # of connection points: 4
#     Node 17, Type 1, BuildingBlock: TATPOV_clean_sbu_0, # of connection points: 4
#     Node 18, Type 1, BuildingBlock: TATPOV_clean_sbu_0, # of connection points: 4
#     Node 19, Type 1, BuildingBlock: TATPOV_clean_sbu_0, # of connection points: 4
#     Node 20, Type 1, BuildingBlock: TATPOV_clean_sbu_0, # of connection points: 4
#     Node 21, Type 1, BuildingBlock: TATPOV_clean_sbu_0, # of connection points: 4
#     Node 22, Type 1, BuildingBlock: TATPOV_clean_sbu_0, # of connection points: 4
#     Node 23, Type 1, BuildingBlock: TATPOV_clean_sbu_0, # of connection points: 4
#     Node 24, Type 1, BuildingBlock: TATPOV_clean_sbu_0, # of connection points: 4
#     Node 25, Type 1, BuildingBlock: TATPOV_clean_sbu_0, # of connection points: 4
#     Node 26, Type 1, BuildingBlock: TATPOV_clean_sbu_0, # of connection points: 4
#     Node 27, Type 1, BuildingBlock: TATPOV_clean_sbu_0, # of connection points: 4
#     Edge 28, Type (0, 1), BuildingBlock: TEMPAE_clean_linker_10, # of connection points: 2
#     Edge 29, Type (0, 1), BuildingBlock: TEMPAE_clean_linker_10, # of connection points: 2
#     Edge 30, Type (0, 1), BuildingBlock: TEMPAE_clean_linker_10, # of connection points: 2
#     Edge 31, Type (0, 1), BuildingBlock: TEMPAE_clean_linker_10, # of connection points: 2
#     Edge 32, Type (0, 1), BuildingBlock: TEMPAE_clean_linker_10, # of connection points: 2
#     Edge 33, Type (0, 1), BuildingBlock: TEMPAE_clean_linker_10, # of connection points: 2
#     Edge 34, Type (0, 1), BuildingBlock: TEMPAE_clean_linker_10, # of connection points: 2
#     Edge 35, Type (0, 1), BuildingBlock: TEMPAE_clean_linker_10, # of connection points: 2
#     Edge 36, Type (0, 1), BuildingBlock: TEMPAE_clean_linker_10, # of connection points: 2
#     Edge 37, Type (0, 1), BuildingBlock: TEMPAE_clean_linker_10, # of connection points: 2
#     Edge 38, Type (0, 1), BuildingBlock: TEMPAE_clean_linker_10, # of connection points: 2
#     Edge 39, Type (0, 1), BuildingBlock: TEMPAE_clean_linker_10, # of connection points: 2
#     Edge 40, Type (0, 1), BuildingBlock: TEMPAE_clean_linker_10, # of connection points: 2
#     Edge 41, Type (0, 1), BuildingBlock: TEMPAE_clean_linker_10, # of connection points: 2
#     Edge 42, Type (0, 1), BuildingBlock: TEMPAE_clean_linker_10, # of connection points: 2
#     Edge 43, Type (0, 1), BuildingBlock: TEMPAE_clean_linker_10, # of connection points: 2
#     Edge 44, Type (0, 1), BuildingBlock: TEMPAE_clean_linker_10, # of connection points: 2
#     Edge 45, Type (0, 1), BuildingBlock: TEMPAE_clean_linker_10, # of connection points: 2
#     Edge 46, Type (0, 1), BuildingBlock: TEMPAE_clean_linker_10, # of connection points: 2
#     Edge 47, Type (0, 1), BuildingBlock: TEMPAE_clean_linker_10, # of connection points: 2
#     Edge 48, Type (0, 1), BuildingBlock: TEMPAE_clean_linker_10, # of connection points: 2
#     Edge 49, Type (0, 1), BuildingBlock: TEMPAE_clean_linker_10, # of connection points: 2
#     Edge 50, Type (0, 1), BuildingBlock: TEMPAE_clean_linker_10, # of connection points: 2
#     Edge 51, Type (0, 1), BuildingBlock: TEMPAE_clean_linker_10, # of connection points: 2
#     Edge 52, Type (0, 1), BuildingBlock: TEMPAE_clean_linker_10, # of connection points: 2
#     Edge 53, Type (0, 1), BuildingBlock: TEMPAE_clean_linker_10, # of connection points: 2
#     Edge 54, Type (0, 1), BuildingBlock: TEMPAE_clean_linker_10, # of connection points: 2
#     Edge 55, Type (0, 1), BuildingBlock: TEMPAE_clean_linker_10, # of connection points: 2
#     Edge 56, Type (0, 1), BuildingBlock: TEMPAE_clean_linker_10, # of connection points: 2
#     Edge 57, Type (0, 1), BuildingBlock: TEMPAE_clean_linker_10, # of connection points: 2
#     Edge 58, Type (0, 1), BuildingBlock: TEMPAE_clean_linker_10, # of connection points: 2
#     Edge 59, Type (0, 1), BuildingBlock: TEMPAE_clean_linker_10, # of connection points: 2
#     Edge 60, Type (0, 1), BuildingBlock: TEMPAE_clean_linker_10, # of connection points: 2
#     Edge 61, Type (0, 1), BuildingBlock: TEMPAE_clean_linker_10, # of connection points: 2
#     Edge 62, Type (0, 1), BuildingBlock: TEMPAE_clean_linker_10, # of connection points: 2
#     Edge 63, Type (0, 1), BuildingBlock: TEMPAE_clean_linker_10, # of connection points: 2
#     Edge 64, Type (0, 1), BuildingBlock: TEMPAE_clean_linker_10, # of connection points: 2
#     Edge 65, Type (0, 1), BuildingBlock: TEMPAE_clean_linker_10, # of connection points: 2
#     Edge 66, Type (0, 1), BuildingBlock: TEMPAE_clean_linker_10, # of connection points: 2
#     Edge 67, Type (0, 1), BuildingBlock: TEMPAE_clean_linker_10, # of connection points: 2
#     Edge 68, Type (0, 1), BuildingBlock: TEMPAE_clean_linker_10, # of connection points: 2
#     Edge 69, Type (0, 1), BuildingBlock: TEMPAE_clean_linker_10, # of connection points: 2
#     Edge 70, Type (0, 1), BuildingBlock: TEMPAE_clean_linker_10, # of connection points: 2
#     Edge 71, Type (0, 1), BuildingBlock: TEMPAE_clean_linker_10, # of connection points: 2
#     Edge 72, Type (0, 1), BuildingBlock: TEMPAE_clean_linker_10, # of connection points: 2
#     Edge 73, Type (0, 1), BuildingBlock: TEMPAE_clean_linker_10, # of connection points: 2
#     Edge 74, Type (0, 1), BuildingBlock: TEMPAE_clean_linker_10, # of connection points: 2
#     Edge 75, Type (0, 1), BuildingBlock: TEMPAE_clean_linker_10, # of connection points: 2
# Relax obj value: 0.003
# Max RMSD: 0.047
# Mean RMSD: 0.020
data_MOF--net-ctn--node1-TATPOV_clean_sbu_0--node2-KAKCAD_clean_linker_0--edge1-TEMPAE_clean_linker_10
_symmetry_space_group_name_H-M    P1
_symmetry_Int_Tables_number       1
_symmetry_cell_setting            triclinic
loop_
_symmetry_equiv_pos_as_xyz
'x, y, z'
_cell_length_a     68.059784
_cell_length_b     67.990041
_cell_length_c     67.923738
_cell_angle_alpha  91.145086
_cell_angle_beta   91.368169
_cell_angle_gamma 91.268694
loop_
_atom_site_label
_atom_site_type_symbol
_atom_site_fract_x
_atom_site_fract_y
_atom_site_fract_z
_atom_type_partial_charge
C0 C 0.02453 0.07797 0.97336 0.0
C1 C 0.0197 0.0966 0.98097 0.0
C2 C 0.02729 0.06214 0.98593 0.0
C3 C 0.02517 0.06454 0.00638 0.0
C4 C 0.02047 0.08321 0.01397 0.0
C5 C 0.01778 0.09903 0.00143 0.0
C6 C 0.02759 0.04765 0.01979 0.0
C7 C 0.04296 0.0344 0.0173 0.0
C8 C 0.04546 0.01862 0.03015 0.0
C9 C 0.03228 0.01618 0.04561 0.0
C10 C 0.01678 0.02923 0.04834 0.0
C11 C 0.01455 0.04485 0.03528 0.0
C12 C 0.00296 0.02665 0.06485 0.0
C13 C 0.99624 0.00779 0.07009 0.0
C14 C 0.99635 0.04307 0.0755 0.0
C15 C 0.98329 0.04073 0.0909 0.0
C16 C 0.97657 0.02189 0.09616 0.0
C17 C 0.06196 0.00479 0.0276 0.0
C18 C 0.06711 0.99807 0.00874 0.0
C19 C 0.07262 0.99811 0.04406 0.0
C20 C 0.08795 0.98497 0.04173 0.0
C21 C 0.09307 0.97819 0.02288 0.0
C22 C 0.08246 0.98493 0.0064 0.0
C23 C 0.98324 0.00544 0.08556 0.0
H24 H 0.0263 0.07565 0.95769 0.0
H25 H 0.03076 0.04793 0.97959 0.0
H26 H 0.01895 0.08563 0.02966 0.0
H27 H 0.01387 0.11311 0.00777 0.0
H28 H 0.05335 0.03673 0.00568 0.0
H29 H 0.00233 0.05466 0.03691 0.0
H30 H 0.03412 0.00411 0.05561 0.0
H31 H 0.00084 0.99482 0.06209 0.0
H32 H 0.00139 0.0578 0.07205 0.0
H33 H 0.9783 0.05375 0.09856 0.0
H34 H 0.0591 0.00278 0.99575 0.0
H35 H 0.06924 0.00316 0.05879 0.0
H36 H 0.97854 0.99069 0.08933 0.0
H37 H 0.08613 0.98018 0.99166 0.0
H38 H 0.09565 0.97994 0.05476 0.0
C39 C 0.33185 0.7394 0.25632 0.0
C40 C 0.34083 0.72271 0.26388 0.0
C41 C 0.31382 0.73765 0.24607 0.0
C42 C 0.30458 0.71908 0.24279 0.0
C43 C 0.31392 0.70234 0.25016 0.0
C44 C 0.33173 0.70418 0.2608 0.0
C45 C 0.28523 0.71722 0.23195 0.0
C46 C 0.28058 0.72988 0.21645 0.0
C47 C 0.26225 0.72845 0.20638 0.0
C48 C 0.24867 0.71371 0.21171 0.0
C49 C 0.25328 0.70052 0.22667 0.0
C50 C 0.27136 0.70263 0.23696 0.0
C51 C 0.23966 0.68386 0.23093 0.0
C52 C 0.21934 0.68666 0.23245 0.0
C53 C 0.24698 0.66482 0.23293 0.0
C54 C 0.23427 0.64888 0.23614 0.0
C55 C 0.21394 0.65162 0.23751 0.0
C56 C 0.25762 0.74193 0.18991 0.0
C57 C 0.26418 0.7617 0.19072 0.0
C58 C 0.24697 0.73505 0.17304 0.0
C59 C 0.24325 0.7475 0.15732 0.0
C60 C 0.25034 0.76711 0.15788 0.0
C61 C 0.2607 0.77408 0.17488 0.0
C62 C 0.20661 0.67069 0.23581 0.0
H63 H 0.33861 0.75386 0.2587 0.0
H64 H 0.30701 0.75094 0.24102 0.0
H65 H 0.30761 0.68774 0.2476 0.0
H66 H 0.33854 0.69111 0.26644 0.0
H67 H 0.29148 0.74054 0.2118 0.0
H68 H 0.27446 0.69293 0.24904 0.0
H69 H 0.23459 0.71224 0.20399 0.0
H70 H 0.21331 0.70119 0.23108 0.0
H71 H 0.26254 0.66217 0.23164 0.0
H72 H 0.24036 0.63439 0.2376 0.0
H73 H 0.27213 0.76766 0.20357 0.0
H74 H 0.24185 0.71988 0.17172 0.0
H75 H 0.19099 0.6732 0.23673 0.0
H76 H 0.26662 0.78899 0.1758 0.0
H77 H 0.23496 0.74166 0.14464 0.0
C78 C 0.00145 0.47176 0.11516 0.0
C79 C 0.02088 0.4652 0.11447 0.0
C80 C 0.98798 0.46719 0.09983 0.0
C81 C 0.99367 0.45626 0.0832 0.0
C82 C 0.01332 0.45041 0.08214 0.0
C83 C 0.0267 0.45466 0.09763 0.0
C84 C 0.97902 0.45053 0.06733 0.0
C85 C 0.96389 0.46328 0.06203 0.0
C86 C 0.9495 0.45771 0.04766 0.0
C87 C 0.95078 0.43924 0.03809 0.0
C88 C 0.96623 0.42661 0.04265 0.0
C89 C 0.98 0.4322 0.05753 0.0
C90 C 0.96867 0.40804 0.0312 0.0
C91 C 0.95257 0.3953 0.02672 0.0
C92 C 0.98722 0.40333 0.02408 0.0
C93 C 0.98958 0.3865 0.01236 0.0
C94 C 0.97347 0.37385 0.00758 0.0
C95 C 0.93354 0.47146 0.04237 0.0
C96 C 0.92541 0.48375 0.05685 0.0
C97 C 0.92662 0.47281 0.02275 0.0
C98 C 0.91212 0.48618 0.01775 0.0
C99 C 0.90446 0.49872 0.03217 0.0
C100 C 0.91118 0.49737 0.05176 0.0
C101 C 0.95496 0.37833 0.0151 0.0
H102 H 0.9965 0.48025 0.12768 0.0
H103 H 0.97296 0.47183 0.10132 0.0
H104 H 0.0184 0.44235 0.0694 0.0
H105 H 0.04145 0.44916 0.0966 0.0
H106 H 0.9636 0.47782 0.06881 0.0
H107 H 0.99138 0.42205 0.06158 0.0
H108 H 0.93997 0.43477 0.02682 0.0
H109 H 0.93814 0.39848 0.0322 0.0
H110 H -0.00016 0.41302 0.02703 0.0
H111 H 0.00395 0.38381 0.0065 0.0
H112 H 0.93001 0.48287 0.07217 0.0
H113 H 0.93272 0.4639 0.01111 0.0
H114 H 0.94229 0.36879 0.01192 0.0
H115 H 0.90532 0.50679 0.06315 0.0
H116 H 0.90727 0.48712 0.00249 0.0
C117 C 0.71891 0.71733 0.15062 0.0
C118 C 0.7386 0.71283 0.14702 0.0
C119 C 0.71424 0.73018 0.16605 0.0
C120 C 0.72916 0.73895 0.17813 0.0
C121 C 0.7488 0.73421 0.17479 0.0
C122 C 0.75346 0.72124 0.15947 0.0
C123 C 0.72431 0.7536 0.19366 0.0
C124 C 0.70871 0.75003 0.20638 0.0
C125 C 0.70359 0.76419 0.22066 0.0
C126 C 0.71443 0.78207 0.22201 0.0
C127 C 0.73024 0.78579 0.20956 0.0
C128 C 0.73505 0.77145 0.19544 0.0
C129 C 0.74169 0.80467 0.21125 0.0
C130 C 0.73215 0.82259 0.21419 0.0
C131 C 0.7623 0.80489 0.21007 0.0
C132 C 0.77312 0.82256 0.21202 0.0
C133 C 0.76359 0.84045 0.21519 0.0
C134 C 0.68686 0.76044 0.23401 0.0
C135 C 0.66984 0.75004 0.22719 0.0
C136 C 0.68758 0.76756 0.25362 0.0
C137 C 0.67155 0.7649 0.26585 0.0
C138 C 0.65443 0.75473 0.25895 0.0
C139 C 0.65393 0.7471 0.23952 0.0
C140 C 0.74297 0.84026 0.21614 0.0
H141 H 0.7071 0.71136 0.14117 0.0
H142 H 0.69899 0.73374 0.16815 0.0
H143 H 0.76059 0.74054 0.18404 0.0
H144 H 0.76875 0.71781 0.15738 0.0
H145 H 0.70081 0.73603 0.20533 0.0
H146 H 0.74681 0.77442 0.18536 0.0
H147 H 0.71057 0.7932 0.23278 0.0
H148 H 0.71629 0.82297 0.21491 0.0
H149 H 0.77012 0.79133 0.20797 0.0
H150 H 0.78896 0.82222 0.21103 0.0
H151 H 0.66858 0.74449 0.21215 0.0
H152 H 0.70054 0.77529 0.25959 0.0
H153 H 0.73519 0.85375 0.21879 0.0
H154 H 0.64118 0.7389 0.23374 0.0
H155 H 0.67248 0.77124 0.28059 0.0
C156 C 0.99049 0.9621 0.40222 0.0
C157 C 0.9978 0.96824 0.38414 0.0
C158 C 0.00316 0.95978 0.41843 0.0
C159 C 0.02351 0.9633 0.41686 0.0
C160 C 0.03082 0.96927 0.39865 0.0
C161 C 0.01807 0.97186 0.3825 0.0
C162 C 0.03701 0.96084 0.43419 0.0
C163 C 0.03364 0.94568 0.44755 0.0
C164 C 0.04612 0.94342 0.46406 0.0
C165 C 0.06247 0.95617 0.46694 0.0
C166 C 0.0661 0.97151 0.45382 0.0
C167 C 0.05316 0.97379 0.4376 0.0
C168 C 0.08329 0.98523 0.45705 0.0
C169 C 0.08922 0.99158 0.47618 0.0
C170 C 0.09393 0.9921 0.44096 0.0
C171 C 0.11002 0.005 0.4439 0.0
C172 C 0.116 0.01115 0.463 0.0
C173 C 0.04168 0.92802 0.47856 0.0
C174 C 0.0225 0.92568 0.48549 0.0
C175 C 0.05646 0.91571 0.48566 0.0
C176 C 0.05207 0.90121 0.49932 0.0
C177 C 0.0329 0.89896 0.5063 0.0
C178 C 0.01818 0.91136 0.49927 0.0
C179 C 0.10549 0.0043 0.47912 0.0
H180 H 0.97486 0.95952 0.40395 0.0
H181 H 0.99692 0.95556 0.43228 0.0
H182 H 0.04642 0.97179 0.39678 0.0
H183 H 0.02407 0.97649 0.36866 0.0
H184 H 0.02142 0.93538 0.44501 0.0
H185 H 0.05539 0.98603 0.42787 0.0
H186 H 0.07226 0.95423 0.47953 0.0
H187 H 0.08118 0.98689 0.48889 0.0
H188 H 0.09004 0.98725 0.42606 0.0
H189 H 0.11807 0.00982 0.43124 0.0
H190 H 0.01086 0.93508 0.4804 0.0
H191 H 0.07134 0.91714 0.48048 0.0
H192 H 0.10974 0.00896 0.494 0.0
H193 H 0.00323 0.90981 0.50425 0.0
H194 H 0.06371 0.89189 0.50457 0.0
C195 C 0.16507 0.71587 0.7209 0.0
C196 C 0.15842 0.73492 0.71727 0.0
C197 C 0.18165 0.71307 0.73295 0.0
C198 C 0.19206 0.72926 0.7416 0.0
C199 C 0.18556 0.74833 0.73776 0.0
C200 C 0.16892 0.75112 0.72576 0.0
C201 C 0.20938 0.72622 0.75488 0.0
C202 C 0.22289 0.71151 0.75057 0.0
C203 C 0.23885 0.70801 0.76341 0.0
C204 C 0.24145 0.71968 0.78064 0.0
C205 C 0.22808 0.73448 0.78524 0.0
C206 C 0.21212 0.73762 0.77225 0.0
C207 C 0.23022 0.74619 0.80394 0.0
C208 C 0.23523 0.73706 0.8217 0.0
C209 C 0.22667 0.7665 0.80427 0.0
C210 C 0.22793 0.77738 0.82195 0.0
C211 C 0.23276 0.76822 0.83974 0.0
C212 C 0.25224 0.69158 0.75919 0.0
C213 C 0.24444 0.67303 0.75329 0.0
C214 C 0.27273 0.69412 0.76128 0.0
C215 C 0.28516 0.67839 0.75756 0.0
C216 C 0.27733 0.65974 0.75185 0.0
C217 C 0.2568 0.65731 0.74975 0.0
C218 C 0.23648 0.74794 0.83939 0.0
H219 H 0.15747 0.70308 0.7144 0.0
H220 H 0.1861 0.69817 0.73577 0.0
H221 H 0.19335 0.76113 0.74401 0.0
H222 H 0.1641 0.76599 0.72343 0.0
H223 H 0.22108 0.70281 0.73708 0.0
H224 H 0.20136 0.74848 0.77606 0.0
H225 H 0.25372 0.717 0.79063 0.0
H226 H 0.23783 0.72142 0.82201 0.0
H227 H 0.22295 0.77401 0.79082 0.0
H228 H 0.22485 0.79293 0.82172 0.0
H229 H 0.22869 0.67053 0.75187 0.0
H230 H 0.27916 0.70831 0.76563 0.0
H231 H 0.24049 0.74048 0.85279 0.0
H232 H 0.25018 0.64309 0.74586 0.0
H233 H 0.3009 0.68087 0.75912 0.0
C234 C 0.98274 0.60538 0.50893 0.0
C235 C 0.97546 0.6049 0.52813 0.0
C236 C 0.97805 0.59027 0.49529 0.0
C237 C 0.96626 0.57405 0.50057 0.0
C238 C 0.95982 0.57308 0.52007 0.0
C239 C 0.96422 0.58837 0.53362 0.0
C240 C 0.96002 0.55872 0.48556 0.0
C241 C 0.9727 0.55315 0.47048 0.0
C242 C 0.96649 0.53965 0.45551 0.0
C243 C 0.94744 0.53126 0.45613 0.0
C244 C 0.93487 0.53602 0.4715 0.0
C245 C 0.94113 0.54995 0.48595 0.0
C246 C 0.91553 0.52574 0.47301 0.0
C247 C 0.90293 0.52306 0.45645 0.0
C248 C 0.91003 0.51769 0.49099 0.0
C249 C 0.89261 0.50663 0.49226 0.0
C250 C 0.88014 0.5035 0.47562 0.0
C251 C 0.97997 0.53424 0.43938 0.0
C252 C 0.99315 0.54831 0.43185 0.0
C253 C 0.97984 0.51495 0.4314 0.0
C254 C 0.99243 0.50994 0.41624 0.0
C255 C 0.00567 0.52398 0.409 0.0
C256 C 0.006 0.54317 0.41696 0.0
C257 C 0.88536 0.51214 0.45776 0.0
H258 H 0.99179 0.61764 0.50427 0.0
H259 H 0.98318 0.59169 0.48041 0.0
H260 H 0.9511 0.56063 0.52485 0.0
H261 H 0.95819 0.5875 0.54819 0.0
H262 H 0.98759 0.5591 0.47061 0.0
H263 H 0.93103 0.5542 0.49728 0.0
H264 H 0.94241 0.52078 0.44479 0.0
H265 H 0.90672 0.52931 0.44246 0.0
H266 H 0.91959 0.5193 0.50393 0.0
H267 H 0.88934 0.49989 0.50615 0.0
H268 H 0.99344 0.56339 0.43729 0.0
H269 H 0.97025 0.50359 0.43704 0.0
H270 H 0.87597 0.51029 0.44473 0.0
H271 H 0.01602 0.55426 0.41145 0.0
H272 H 0.99209 0.49499 0.41041 0.0
C273 C 0.83414 0.78945 0.88336 0.0
C274 C 0.81459 0.78398 0.88732 0.0
C275 C 0.83827 0.80498 0.87082 0.0
C276 C 0.82296 0.81528 0.8617 0.0
C277 C 0.80343 0.81012 0.86607 0.0
C278 C 0.79932 0.79481 0.87884 0.0
C279 C 0.82723 0.83067 0.84697 0.0
C280 C 0.84248 0.82825 0.83358 0.0
C281 C 0.84573 0.84189 0.81862 0.0
C282 C 0.83342 0.8582 0.81718 0.0
C283 C 0.81781 0.86052 0.83006 0.0
C284 C 0.81512 0.84703 0.84516 0.0
C285 C 0.80281 0.87552 0.82631 0.0
C286 C 0.80808 0.89538 0.82369 0.0
C287 C 0.78294 0.86963 0.82462 0.0
C288 C 0.76858 0.88326 0.82025 0.0
C289 C 0.77374 0.90311 0.81767 0.0
C290 C 0.86069 0.83798 0.80345 0.0
C291 C 0.87868 0.82938 0.80859 0.0
C292 C 0.85655 0.84167 0.78349 0.0
C293 C 0.86983 0.83648 0.76902 0.0
C294 C 0.88745 0.82729 0.77412 0.0
C295 C 0.89186 0.82397 0.79406 0.0
C296 C 0.79358 0.90916 0.81963 0.0
H297 H 0.8463 0.78135 0.88944 0.0
H298 H 0.85349 0.80872 0.86807 0.0
H299 H 0.79119 0.81746 0.85918 0.0
H300 H 0.78409 0.79128 0.8818 0.0
H301 H 0.85114 0.81509 0.83408 0.0
H302 H 0.80322 0.84914 0.85526 0.0
H303 H 0.83541 0.86864 0.80551 0.0
H304 H 0.82333 0.90023 0.8249 0.0
H305 H 0.77852 0.85436 0.82635 0.0
H306 H 0.75335 0.87828 0.819 0.0
H307 H 0.88249 0.8266 0.82384 0.0
H308 H 0.84271 0.84787 0.77887 0.0
H309 H 0.79786 0.92443 0.81771 0.0
H310 H 0.90544 0.81706 0.79839 0.0
H311 H 0.86593 0.83896 0.75372 0.0
C312 C 0.33942 0.27765 0.39915 0.0
C313 C 0.32058 0.26867 0.39967 0.0
C314 C 0.34303 0.29348 0.38678 0.0
C315 C 0.32781 0.30088 0.37496 0.0
C316 C 0.30889 0.29235 0.37591 0.0
C317 C 0.30535 0.27638 0.38799 0.0
C318 C 0.33165 0.31652 0.36059 0.0
C319 C 0.34677 0.31445 0.34704 0.0
C320 C 0.34835 0.32737 0.33129 0.0
C321 C 0.33515 0.34283 0.32953 0.0
C322 C 0.32024 0.34544 0.34323 0.0
C323 C 0.31873 0.33225 0.35883 0.0
C324 C 0.30525 0.36076 0.34011 0.0
C325 C 0.31051 0.3792 0.33248 0.0
C326 C 0.28531 0.35657 0.34355 0.0
C327 C 0.27097 0.37023 0.33903 0.0
C328 C 0.27618 0.38832 0.33077 0.0
C329 C 0.36228 0.32347 0.31539 0.0
C330 C 0.38246 0.32148 0.31951 0.0
C331 C 0.35523 0.32155 0.29585 0.0
C332 C 0.36809 0.31774 0.28065 0.0
C333 C 0.38829 0.316 0.28465 0.0
C334 C 0.39543 0.31799 0.30419 0.0
C335 C 0.2961 0.39278 0.32773 0.0
H336 H 0.35144 0.27234 0.40816 0.0
H337 H 0.35773 0.29988 0.38635 0.0
H338 H 0.29696 0.29754 0.36668 0.0
H339 H 0.29078 0.26965 0.38757 0.0
H340 H 0.35638 0.30197 0.34789 0.0
H341 H 0.30721 0.3339 0.36944 0.0
H342 H 0.33605 0.35234 0.31695 0.0
H343 H 0.32575 0.38305 0.32993 0.0
H344 H 0.28061 0.34241 0.34901 0.0
H345 H 0.25568 0.36629 0.34125 0.0
H346 H 0.38818 0.32289 0.3345 0.0
H347 H 0.3397 0.32284 0.29235 0.0
H348 H 0.3005 0.40671 0.32151 0.0
H349 H 0.41097 0.31668 0.30759 0.0
H350 H 0.36227 0.31643 0.26568 0.0
C351 C 0.49269 0.95272 0.63265 0.0
C352 C 0.51228 0.94655 0.63319 0.0
C353 C 0.48031 0.9481 0.61646 0.0
C354 C 0.48727 0.93755 0.60012 0.0
C355 C 0.50696 0.93166 0.6005 0.0
C356 C 0.51924 0.93594 0.61688 0.0
C357 C 0.47396 0.93269 0.58286 0.0
C358 C 0.45948 0.94592 0.57691 0.0
C359 C 0.44635 0.94131 0.5611 0.0
C360 C 0.44824 0.92331 0.55082 0.0
C361 C 0.46315 0.91029 0.55597 0.0
C362 C 0.4757 0.9149 0.57218 0.0
C363 C 0.46644 0.89251 0.5436 0.0
C364 C 0.45067 0.88004 0.53738 0.0
C365 C 0.48535 0.88864 0.53692 0.0
C366 C 0.48835 0.87309 0.52368 0.0
C367 C 0.47252 0.86087 0.51696 0.0
C368 C 0.43113 0.95559 0.55505 0.0
C369 C 0.42193 0.96742 0.56921 0.0
C370 C 0.42594 0.95783 0.53503 0.0
C371 C 0.41199 0.97152 0.52937 0.0
C372 C 0.40321 0.98352 0.54353 0.0
C373 C 0.40827 0.98139 0.56349 0.0
C374 C 0.4537 0.8643 0.52431 0.0
H375 H 0.48683 0.96123 0.64471 0.0
H376 H 0.46518 0.95265 0.61692 0.0
H377 H 0.51301 0.92381 0.5881 0.0
H378 H 0.53414 0.93068 0.61681 0.0
H379 H 0.45878 0.96013 0.5843 0.0
H380 H 0.48669 0.90445 0.57652 0.0
H381 H 0.4384 0.91955 0.53849 0.0
H382 H 0.43597 0.88259 0.54249 0.0
H383 H 0.49773 0.89818 0.54127 0.0
H384 H 0.50297 0.8712 0.5181 0.0
H385 H 0.42519 0.96588 0.58478 0.0
H386 H 0.43294 0.94933 0.52364 0.0
H387 H 0.44123 0.85499 0.51975 0.0
H388 H 0.40152 0.99041 0.57466 0.0
H389 H 0.40841 0.97307 0.51386 0.0
C390 C 0.2129 0.21325 0.65415 0.0
C391 C 0.23208 0.20821 0.64906 0.0
C392 C 0.20981 0.22698 0.66928 0.0
C393 C 0.22581 0.23601 0.67966 0.0
C394 C 0.24498 0.23087 0.67466 0.0
C395 C 0.24808 0.21713 0.65954 0.0
C396 C 0.22252 0.25085 0.69554 0.0
C397 C 0.20743 0.24797 0.70901 0.0
C398 C 0.20409 0.26201 0.72393 0.0
C399 C 0.21609 0.27908 0.72537 0.0
C400 C 0.23114 0.28236 0.7119 0.0
C401 C 0.23427 0.26811 0.69709 0.0
C402 C 0.24325 0.30086 0.71296 0.0
C403 C 0.23449 0.31901 0.71687 0.0
C404 C 0.26361 0.30056 0.70988 0.0
C405 C 0.27494 0.31798 0.71081 0.0
C406 C 0.26618 0.33612 0.71483 0.0
C407 C 0.18767 0.25908 0.73763 0.0
C408 C 0.1689 0.25337 0.73028 0.0
C409 C 0.1905 0.26228 0.758 0.0
C410 C 0.17483 0.25989 0.77077 0.0
C411 C 0.15593 0.25446 0.76341 0.0
C412 C 0.1532 0.25119 0.74299 0.0
C413 C 0.24581 0.33642 0.71781 0.0
H414 H 0.20026 0.20651 0.64648 0.0
H415 H 0.19486 0.23076 0.67263 0.0
H416 H 0.25762 0.23741 0.68251 0.0
H417 H 0.26303 0.21373 0.65584 0.0
H418 H 0.19844 0.23461 0.70811 0.0
H419 H 0.24547 0.27075 0.68631 0.0
H420 H 0.21353 0.28993 0.73687 0.0
H421 H 0.21881 0.31982 0.71904 0.0
H422 H 0.27085 0.28681 0.70699 0.0
H423 H 0.29056 0.31724 0.7083 0.0
H424 H 0.16623 0.25107 0.71461 0.0
H425 H 0.20488 0.26649 0.76408 0.0
H426 H 0.23863 0.35009 0.72119 0.0
H427 H 0.13881 0.24742 0.73671 0.0
H428 H 0.17756 0.26226 0.78642 0.0
C429 C 0.83161 0.23911 0.75556 0.0
C430 C 0.83917 0.22232 0.76441 0.0
C431 C 0.81354 0.23814 0.74532 0.0
C432 C 0.80278 0.22024 0.74341 0.0
C433 C 0.8107 0.20334 0.75199 0.0
C434 C 0.82857 0.20444 0.76257 0.0
C435 C 0.7833 0.21922 0.7328 0.0
C436 C 0.77962 0.23081 0.71623 0.0
C437 C 0.7612 0.23007 0.70632 0.0
C438 C 0.74656 0.21695 0.71282 0.0
C439 C 0.75008 0.20488 0.72902 0.0
C440 C 0.76829 0.20652 0.73917 0.0
C441 C 0.7351 0.19 0.73498 0.0
C442 C 0.71492 0.19412 0.73445 0.0
C443 C 0.74099 0.17127 0.7409 0.0
C444 C 0.72712 0.15708 0.74625 0.0
C445 C 0.70699 0.16116 0.74565 0.0
C446 C 0.75741 0.24276 0.68903 0.0
C447 C 0.76536 0.26202 0.68859 0.0
C448 C 0.74595 0.23573 0.67275 0.0
C449 C 0.74267 0.24756 0.65645 0.0
C450 C 0.75101 0.26666 0.65583 0.0
C451 C 0.76232 0.27375 0.67218 0.0
C452 C 0.70099 0.1798 0.73964 0.0
H453 H 0.83947 0.25312 0.75697 0.0
H454 H 0.80785 0.25154 0.73927 0.0
H455 H 0.80316 0.18918 0.75048 0.0
H456 H 0.83423 0.19126 0.76915 0.0
H457 H 0.7913 0.24011 0.71072 0.0
H458 H 0.77065 0.19797 0.75226 0.0
H459 H 0.73244 0.21598 0.70513 0.0
H460 H 0.70987 0.20845 0.7302 0.0
H461 H 0.75634 0.1674 0.74106 0.0
H462 H 0.73213 0.14272 0.75049 0.0
H463 H 0.77399 0.2681 0.70096 0.0
H464 H 0.73977 0.22091 0.67237 0.0
H465 H 0.68556 0.18336 0.73918 0.0
H466 H 0.76923 0.28825 0.67219 0.0
H467 H 0.73365 0.24166 0.64429 0.0
C468 C 0.52413 0.56904 0.46172 0.0
C469 C 0.51843 0.58781 0.46817 0.0
C470 C 0.52689 0.55397 0.47517 0.0
C471 C 0.52405 0.55731 0.49541 0.0
C472 C 0.51853 0.57615 0.50185 0.0
C473 C 0.51574 0.59119 0.4884 0.0
C474 C 0.52665 0.54123 0.50975 0.0
C475 C 0.54229 0.52816 0.50811 0.0
C476 C 0.54487 0.513 0.52168 0.0
C477 C 0.53154 0.51108 0.53709 0.0
C478 C 0.51586 0.52404 0.53906 0.0
C479 C 0.51351 0.53898 0.52525 0.0
C480 C 0.50196 0.52209 0.55557 0.0
C481 C 0.49512 0.50347 0.56139 0.0
C482 C 0.49542 0.5389 0.56564 0.0
C483 C 0.48235 0.53715 0.58111 0.0
C484 C 0.4755 0.51855 0.58694 0.0
C485 C 0.56158 0.4993 0.51986 0.0
C486 C 0.56715 0.49213 0.50129 0.0
C487 C 0.57208 0.49326 0.53669 0.0
C488 C 0.58769 0.48034 0.535 0.0
C489 C 0.59326 0.47316 0.51644 0.0
C490 C 0.58279 0.47924 0.4996 0.0
C491 C 0.48204 0.50172 0.57688 0.0
H492 H 0.52611 0.5659 0.4462 0.0
H493 H 0.53089 0.53958 0.46968 0.0
H494 H 0.51658 0.57935 0.51735 0.0
H495 H 0.5117 0.60557 0.4939 0.0
H496 H 0.5528 0.53013 0.49654 0.0
H497 H 0.50111 0.54864 0.52631 0.0
H498 H 0.53341 0.49948 0.54764 0.0
H499 H 0.49969 0.49023 0.55384 0.0
H500 H 0.50056 0.55345 0.56169 0.0
H501 H 0.47746 0.55043 0.58837 0.0
H502 H 0.55927 0.4963 0.48803 0.0
H503 H 0.56838 0.49866 0.55121 0.0
H504 H 0.47721 0.48716 0.58112 0.0
H505 H 0.58681 0.4742 0.48505 0.0
H506 H 0.59526 0.47581 0.54831 0.0
C507 C 0.50342 0.4562 0.88406 0.0
C508 C 0.51019 0.4622 0.86573 0.0
C509 C 0.51644 0.45467 0.9001 0.0
C510 C 0.53664 0.45882 0.89814 0.0
C511 C 0.54349 0.46424 0.87955 0.0
C512 C 0.53036 0.46608 0.86356 0.0
C513 C 0.55015 0.45855 0.91573 0.0
C514 C 0.54705 0.44493 0.93073 0.0
C515 C 0.55813 0.44603 0.9485 0.0
C516 C 0.57303 0.46058 0.95081 0.0
C517 C 0.57694 0.47369 0.93564 0.0
C518 C 0.56543 0.4727 0.91823 0.0
C519 C 0.59302 0.48856 0.93802 0.0
C520 C 0.59397 0.50136 0.95452 0.0
C521 C 0.6077 0.48977 0.92391 0.0
C522 C 0.62335 0.50328 0.92647 0.0
C523 C 0.62433 0.51606 0.94298 0.0
C524 C 0.55364 0.43243 0.96482 0.0
C525 C 0.53409 0.42661 0.96835 0.0
C526 C 0.56872 0.42546 0.97724 0.0
C527 C 0.5643 0.41315 0.99287 0.0
C528 C 0.54478 0.4073 0.99616 0.0
C529 C 0.52974 0.41406 0.98373 0.0
C530 C 0.60943 0.51516 0.95688 0.0
H531 H 0.48788 0.45343 0.88621 0.0
H532 H 0.51048 0.4509 0.9142 0.0
H533 H 0.55896 0.46723 0.87737 0.0
H534 H 0.53593 0.47063 0.84951 0.0
H535 H 0.53593 0.4334 0.92855 0.0
H536 H 0.56796 0.48352 0.90702 0.0
H537 H 0.58161 0.46186 0.96444 0.0
H538 H 0.58273 0.50073 0.96553 0.0
H539 H 0.60728 0.47998 0.91112 0.0
H540 H 0.63467 0.5038 0.91553 0.0
H541 H 0.52202 0.43201 0.95947 0.0
H542 H 0.58397 0.42936 0.97483 0.0
H543 H 0.60998 0.52484 0.96976 0.0
H544 H 0.51454 0.40994 0.98617 0.0
H545 H 0.57614 0.408 0.00224 0.0
C546 C 0.66177 0.22103 0.2085 0.0
C547 C 0.65513 0.24025 0.2059 0.0
C548 C 0.67777 0.21751 0.22109 0.0
C549 C 0.6876 0.23315 0.23133 0.0
C550 C 0.68129 0.25244 0.22833 0.0
C551 C 0.66522 0.25594 0.21579 0.0
C552 C 0.70379 0.22921 0.24571 0.0
C553 C 0.71753 0.21464 0.24169 0.0
C554 C 0.73189 0.20961 0.25584 0.0
C555 C 0.73276 0.21998 0.27401 0.0
C556 C 0.7195 0.23503 0.27809 0.0
C557 C 0.70499 0.2394 0.26391 0.0
C558 C 0.72055 0.246 0.29727 0.0
C559 C 0.72397 0.23614 0.31498 0.0
C560 C 0.71813 0.26649 0.29799 0.0
C561 C 0.71926 0.27689 0.31595 0.0
C562 C 0.72284 0.26705 0.33364 0.0
C563 C 0.74539 0.19303 0.25195 0.0
C564 C 0.73873 0.17628 0.24101 0.0
C565 C 0.76479 0.19343 0.25963 0.0
C566 C 0.7769 0.17727 0.25709 0.0
C567 C 0.77006 0.16037 0.2465 0.0
C568 C 0.75095 0.1603 0.23815 0.0
C569 C 0.7251 0.24654 0.33295 0.0
H570 H 0.65449 0.20863 0.20091 0.0
H571 H 0.6821 0.20245 0.2232 0.0
H572 H 0.68867 0.26484 0.23579 0.0
H573 H 0.66039 0.27092 0.21428 0.0
H574 H 0.71703 0.20724 0.22741 0.0
H575 H 0.69416 0.25031 0.26735 0.0
H576 H 0.74364 0.21626 0.28513 0.0
H577 H 0.72565 0.22034 0.31498 0.0
H578 H 0.71563 0.27456 0.2846 0.0
H579 H 0.71727 0.29265 0.31598 0.0
H580 H 0.72385 0.17519 0.23505 0.0
H581 H 0.77064 0.20618 0.2678 0.0
H582 H 0.7281 0.23854 0.34628 0.0
H583 H 0.74525 0.14776 0.22957 0.0
H584 H 0.79143 0.17786 0.26394 0.0
C585 C 0.44872 0.13847 0.00129 0.0
C586 C 0.44766 0.13602 0.02177 0.0
C587 C 0.44508 0.12258 0.98828 0.0
C588 C 0.44007 0.10395 0.99541 0.0
C589 C 0.43897 0.10143 0.01582 0.0
C590 C 0.44284 0.11727 0.02888 0.0
C591 C 0.43582 0.08728 0.98149 0.0
C592 C 0.44864 0.08332 0.96609 0.0
C593 C 0.44466 0.06773 0.95256 0.0
C594 C 0.42736 0.05628 0.95453 0.0
C595 C 0.41464 0.05979 0.97014 0.0
C596 C 0.41899 0.0753 0.98357 0.0
C597 C 0.39731 0.04664 0.97291 0.0
C598 C 0.38465 0.04132 0.95697 0.0
C599 C 0.39385 0.03864 0.99144 0.0
C600 C 0.37842 0.0251 0.99386 0.0
C601 C 0.36594 0.0194 0.97783 0.0
C602 C 0.45901 0.06285 0.93703 0.0
C603 C 0.47017 0.07775 0.92807 0.0
C604 C 0.46221 0.04311 0.93155 0.0
C605 C 0.47617 0.03842 0.91759 0.0
C606 C 0.48753 0.0533 0.90907 0.0
C607 C 0.48443 0.073 0.91438 0.0
C608 C 0.36905 0.02793 0.95943 0.0
H609 H 0.45198 0.15275 0.99524 0.0
H610 H 0.44579 0.12497 0.97258 0.0
H611 H 0.43534 0.08714 0.0217 0.0
H612 H 0.44219 0.11477 0.04455 0.0
H613 H 0.46208 0.09206 0.96514 0.0
H614 H 0.40905 0.07828 0.99546 0.0
H615 H 0.42392 0.04431 0.94417 0.0
H616 H 0.38687 0.04746 0.94258 0.0
H617 H 0.40354 0.04231 0.00393 0.0
H618 H 0.37674 0.01859 0.00815 0.0
H619 H 0.46791 0.09312 0.9316 0.0
H620 H 0.45431 0.03117 0.93839 0.0
H621 H 0.35955 0.02414 0.94685 0.0
H622 H 0.49297 0.08471 0.90786 0.0
H623 H 0.4785 0.02309 0.91385 0.0
Zn624 Zn 0.28064 0.85571 0.00148 0.0
Zn625 Zn 0.24526 0.87265 0.00103 0.0
O626 O 0.24598 0.85769 0.02742 0.0
O627 O 0.27545 0.84493 0.02818 0.0
O628 O 0.21965 0.88743 0.00112 0.0
O629 O 0.29444 0.88197 -0.00047 0.0
O630 O 0.26544 0.89566 0.99886 0.0
C631 C 0.25909 0.84769 0.03615 0.0
C632 C 0.25534 0.84268 0.96864 0.0
O633 O 0.24327 0.85462 0.97618 0.0
O634 O 0.27206 0.84046 0.97679 0.0
C635 C 0.20499 0.8833 0.01169 0.0
O636 O 0.20565 0.86789 0.02303 0.0
C637 C 0.28414 0.89719 0.9985 0.0
Zn638 Zn 0.11252 0.45136 0.27555 0.0
Zn639 Zn 0.12784 0.48834 0.27227 0.0
O640 O 0.10804 0.49196 0.29412 0.0
O641 O 0.09624 0.46187 0.29801 0.0
O642 O 0.14037 0.51525 0.26964 0.0
O643 O 0.13956 0.4412 0.28126 0.0
O644 O 0.15157 0.47145 0.27973 0.0
C645 C 0.09677 0.47997 0.3029 0.0
C646 C 0.10528 0.46799 0.23749 0.0
O647 O 0.11471 0.48272 0.24517 0.0
O648 O 0.10247 0.45259 0.24734 0.0
C649 C 0.13234 0.5289 0.26001 0.0
O650 O 0.11495 0.52561 0.25162 0.0
C651 C 0.15405 0.45319 0.28258 0.0
Zn652 Zn 0.7855 0.61169 0.94775 0.0
Zn653 Zn 0.77576 0.62639 0.9837 0.0
O654 O 0.79823 0.60776 0.99036 0.0
O655 O 0.80637 0.59574 0.96137 0.0
O656 O 0.76826 0.63876 0.0097 0.0
O657 O 0.79243 0.63897 0.93886 0.0
O658 O 0.78333 0.65072 0.96759 0.0
C659 C 0.80883 0.59662 0.97992 0.0
C660 C 0.74554 0.60241 0.95849 0.0
O661 O 0.75065 0.61155 0.97442 0.0
O662 O 0.7575 0.60089 0.94456 0.0
C663 C 0.77258 0.63206 0.02657 0.0
O664 O 0.78254 0.61578 0.02779 0.0
C665 C 0.78984 0.65348 0.9504 0.0
Zn666 Zn 0.84684 0.99858 0.27958 0.0
Zn667 Zn 0.86827 0.99927 0.24676 0.0
O668 O 0.85449 0.02619 0.24706 0.0
O669 O 0.83799 0.02604 0.27458 0.0
O670 O 0.88533 0.00015 0.22271 0.0
O671 O 0.87128 0.99491 0.29612 0.0
O672 O 0.88875 0.99538 0.26926 0.0
C673 C 0.84328 0.03471 0.25919 0.0
C674 C 0.83595 0.96756 0.25142 0.0
O675 O 0.84974 0.97523 0.24152 0.0
O676 O 0.8317 0.97499 0.26801 0.0
C677 C 0.88093 0.00971 0.20737 0.0
O678 O 0.86435 0.01923 0.20668 0.0
C679 C 0.88774 0.994 0.28791 0.0
Zn680 Zn 0.28399 0.09575 0.45825 0.0
Zn681 Zn 0.276 0.11196 0.49382 0.0
O682 O 0.29753 0.09252 0.50077 0.0
O683 O 0.30632 0.08139 0.47165 0.0
O684 O 0.27057 0.12579 0.51954 0.0
O685 O 0.28874 0.1228 0.44717 0.0
O686 O 0.28467 0.13518 0.47693 0.0
C687 C 0.30849 0.08184 0.49024 0.0
C688 C 0.24453 0.08716 0.47114 0.0
O689 O 0.24976 0.09836 0.48567 0.0
O690 O 0.25655 0.08346 0.45765 0.0
C691 C 0.25897 0.1193 0.53241 0.0
O692 O 0.24994 0.10219 0.52936 0.0
C693 C 0.28875 0.13749 0.45891 0.0
Zn694 Zn 0.35202 0.49407 0.7741 0.0
Zn695 Zn 0.37088 0.49627 0.73991 0.0
O696 O 0.35682 0.52304 0.74204 0.0
O697 O 0.34045 0.52053 0.76948 0.0
O698 O 0.38642 0.49781 0.7149 0.0
O699 O 0.37786 0.49192 0.78896 0.0
O700 O 0.39292 0.49218 0.76065 0.0
C701 C 0.34507 0.53024 0.7545 0.0
C702 C 0.34036 0.46308 0.74644 0.0
O703 O 0.35252 0.47184 0.73538 0.0
O704 O 0.33767 0.46965 0.76373 0.0
C705 C 0.38216 0.50848 0.7003 0.0
O706 O 0.36634 0.51918 0.70081 0.0
C707 C 0.39354 0.49099 0.77936 0.0
Zn708 Zn 0.78016 0.34843 0.49512 0.0
Zn709 Zn 0.74633 0.36805 0.49609 0.0
O710 O 0.74707 0.35319 0.52255 0.0
O711 O 0.77536 0.33808 0.52205 0.0
O712 O 0.72155 0.38408 0.49703 0.0
O713 O 0.79554 0.37373 0.49265 0.0
O714 O 0.76782 0.38978 0.49326 0.0
C715 C 0.75969 0.3422 0.53075 0.0
C716 C 0.75304 0.33727 0.46331 0.0
O717 O 0.74229 0.35018 0.47131 0.0
O718 O 0.76977 0.33369 0.47082 0.0
C719 C 0.70667 0.37974 0.5072 0.0
O720 O 0.70676 0.36364 0.51757 0.0
C721 C 0.7865 0.38978 0.49217 0.0
Zn722 Zn 0.60443 0.96637 0.79755 0.0
Zn723 Zn 0.61765 0.00185 0.78485 0.0
O724 O 0.59937 0.00926 0.8073 0.0
O725 O 0.58851 0.9807 0.81793 0.0
O726 O 0.62897 0.02769 0.77576 0.0
O727 O 0.6322 0.95883 0.80426 0.0
O728 O 0.64271 0.98704 0.79259 0.0
C729 C 0.58883 0.99934 0.81895 0.0
C730 C 0.59396 0.97418 0.75683 0.0
O731 O 0.60262 0.99067 0.76059 0.0
O732 O 0.59314 0.96113 0.76987 0.0
C733 C 0.62154 0.04444 0.77889 0.0
O734 O 0.605 0.04557 0.78837 0.0
C735 C 0.64624 0.97047 0.80023 0.0
Zn736 Zn 0.99599 0.27937 0.85075 0.0
Zn737 Zn 7e-05 0.24511 0.86867 0.0
O738 O 0.02533 0.24792 0.85245 0.0
O739 O 0.02062 0.27483 0.83566 0.0
O740 O 0.00413 0.21964 0.883 0.0
O741 O 0.99731 0.29392 0.87679 0.0
O742 O 0.9973 0.26538 0.89154 0.0
C743 C 0.03104 0.26018 0.83969 0.0
C744 C 0.96408 0.25193 0.84189 0.0
O745 O 0.97454 0.24024 0.85193 0.0
O746 O 0.96969 0.26963 0.83984 0.0
C747 C 0.99249 0.2142 0.89632 0.0
O748 O 0.97734 0.22513 0.90031 0.0
C749 C 0.99693 0.28413 0.89244 0.0
Zn750 Zn 0.49822 0.78015 0.35232 0.0
Zn751 Zn 0.50125 0.74425 0.36819 0.0
O752 O 0.52642 0.747 0.35191 0.0
O753 O 0.52413 0.7764 0.33908 0.0
O754 O 0.50487 0.71866 0.38241 0.0
O755 O 0.49791 0.79321 0.37907 0.0
O756 O 0.49853 0.7637 0.39177 0.0
C757 C 0.5334 0.76061 0.34127 0.0
C758 C 0.4663 0.75274 0.34091 0.0
O759 O 0.47595 0.74055 0.35115 0.0
O760 O 0.47253 0.77035 0.33945 0.0
C761 C 0.49824 0.70176 0.37688 0.0
O762 O 0.4881 0.6999 0.36022 0.0
C763 C 0.49767 0.78233 0.39396 0.0
Zn764 Zn 0.95709 0.76704 0.61346 0.0
Zn765 Zn 0.9929 0.76512 0.6315 0.0
O766 O 0.9976 0.78643 0.61122 0.0
O767 O 0.9689 0.78771 0.59567 0.0
O768 O 0.01912 0.76303 0.64556 0.0
O769 O 0.94541 0.77497 0.63943 0.0
O770 O 0.97464 0.77329 0.65379 0.0
C771 C 0.98664 0.79361 0.59784 0.0
C772 C 0.97396 0.72896 0.60971 0.0
O773 O 0.98823 0.73747 0.61917 0.0
O774 O 0.95848 0.73826 0.6058 0.0
C775 C 0.03333 0.75428 0.63764 0.0
O776 O 0.03089 0.74672 0.61977 0.0
C777 C 0.95634 0.77665 0.65475 0.0
Zn778 Zn 0.45609 0.30099 0.11456 0.0
Zn779 Zn 0.49048 0.28828 0.13004 0.0
O780 O 0.49888 0.31058 0.11187 0.0
O781 O 0.47102 0.32234 0.10051 0.0
O782 O 0.5161 0.28025 0.14238 0.0
O783 O 0.44637 0.30615 0.14205 0.0
O784 O 0.47442 0.29565 0.15419 0.0
C785 C 0.48964 0.32283 0.10138 0.0
C786 C 0.46501 0.26046 0.10404 0.0
O787 O 0.48023 0.26373 0.11498 0.0
O788 O 0.45263 0.27389 0.10143 0.0
C789 C 0.529 0.27099 0.13293 0.0
O790 O 0.5255 0.26612 0.11433 0.0
C791 C 0.45736 0.30245 0.15676 0.0
C792 C 0.22648 0.77197 0.87588 0.0
C793 C 0.23408 0.77976 0.85859 0.0
C794 C 0.22835 0.78235 0.89393 0.0
C795 C 0.23805 0.801 0.89472 0.0
C796 C 0.2453 0.80918 0.87723 0.0
C797 C 0.24325 0.79846 0.85939 0.0
C798 C 0.22039 0.77316 0.91224 0.0
C799 C 0.25579 0.82899 0.87747 0.0
C800 C 0.23276 0.83495 0.93949 0.0
C801 C 0.25028 0.8316 0.95009 0.0
C802 C 0.22843 0.82497 0.92151 0.0
C803 C 0.24192 0.8113 0.91401 0.0
C804 C 0.25946 0.80765 0.92479 0.0
C805 C 0.26342 0.81782 0.94264 0.0
C806 C 0.20958 0.82922 0.91041 0.0
C807 C 0.27421 0.79314 0.91735 0.0
H808 H 0.21908 0.75768 0.87531 0.0
H809 H 0.24933 0.8045 0.84615 0.0
H810 H 0.23269 0.77016 0.92269 0.0
H811 H 0.21049 0.78347 0.91978 0.0
H812 H 0.21216 0.75914 0.90894 0.0
H813 H 0.25936 0.83387 0.86243 0.0
H814 H 0.24662 0.84026 0.88458 0.0
H815 H 0.26968 0.82826 0.8863 0.0
H816 H 0.22252 0.84556 0.94511 0.0
H817 H 0.27697 0.81503 0.95071 0.0
H818 H 0.2009 0.81539 0.90765 0.0
H819 H 0.21298 0.83538 0.89584 0.0
H820 H 0.20036 0.83981 0.9185 0.0
H821 H 0.26706 0.77843 0.91502 0.0
H822 H 0.28696 0.7917 0.92769 0.0
H823 H 0.27974 0.79787 0.90291 0.0
C824 C 0.03956 0.52132 0.39615 0.0
C825 C 0.01924 0.51852 0.39325 0.0
C826 C 0.05266 0.51552 0.3816 0.0
C827 C 0.04517 0.50715 0.36362 0.0
C828 C 0.0246 0.50473 0.36047 0.0
C829 C 0.01188 0.51024 0.37546 0.0
C830 C 0.0745 0.51794 0.38565 0.0
C831 C 0.01606 0.49625 0.34133 0.0
C832 C 0.07837 0.50682 0.31943 0.0
C833 C 0.08404 0.48713 0.3187 0.0
C834 C 0.06564 0.51356 0.33394 0.0
C835 C 0.05885 0.50038 0.34829 0.0
C836 C 0.06489 0.48059 0.34787 0.0
C837 C 0.07723 0.47415 0.33293 0.0
C838 C 0.05918 0.53466 0.33369 0.0
C839 C 0.05829 0.46621 0.36317 0.0
H840 H 0.04519 0.52762 0.41001 0.0
H841 H 0.99612 0.50824 0.37323 0.0
H842 H 0.08149 0.50336 0.3849 0.0
H843 H 0.08127 0.52715 0.37423 0.0
H844 H 0.07791 0.52482 0.40034 0.0
H845 H -0.00027 0.4963 0.34086 0.0
H846 H 0.02157 0.50479 0.32877 0.0
H847 H 0.02085 0.48088 0.33922 0.0
H848 H 0.0835 0.51687 0.30837 0.0
H849 H 0.08172 0.45895 0.33251 0.0
H850 H 0.06334 0.54222 0.34785 0.0
H851 H 0.04293 0.53508 0.33209 0.0
H852 H 0.06576 0.543 0.3215 0.0
H853 H 0.06223 0.47208 0.37815 0.0
H854 H 0.065 0.45157 0.36125 0.0
H855 H 0.04207 0.46425 0.36234 0.0
C856 C 0.79426 0.75367 0.89376 0.0
C857 C 0.81011 0.76634 0.89924 0.0
C858 C 0.79057 0.73628 0.90391 0.0
C859 C 0.80325 0.73117 0.91971 0.0
C860 C 0.81897 0.74408 0.92569 0.0
C861 C 0.82213 0.76158 0.91547 0.0
C862 C 0.77353 0.72298 0.89719 0.0
C863 C 0.83289 0.73905 0.94239 0.0
C864 C 0.78581 0.69002 0.95262 0.0
C865 C 0.79422 0.6736 0.9436 0.0
C866 C 0.78892 0.70899 0.94528 0.0
C867 C 0.80097 0.71156 0.92878 0.0
C868 C 0.81006 0.69512 0.9201 0.0
C869 C 0.80645 0.67634 0.92751 0.0
C870 C 0.77877 0.72616 0.95474 0.0
C871 C 0.82326 0.69728 0.90266 0.0
H872 H 0.78505 0.75695 0.88107 0.0
H873 H 0.8342 0.77142 0.92006 0.0
H874 H 0.77918 0.70916 0.89073 0.0
H875 H 0.76446 0.71892 0.90991 0.0
H876 H 0.76395 0.72996 0.88598 0.0
H877 H 0.84353 0.75126 0.94612 0.0
H878 H 0.82457 0.73543 0.95573 0.0
H879 H 0.84124 0.72582 0.93825 0.0
H880 H 0.77631 0.68798 0.96503 0.0
H881 H 0.81317 0.66373 0.9206 0.0
H882 H 0.76799 0.73224 0.9441 0.0
H883 H 0.7896 0.73812 0.95867 0.0
H884 H 0.77091 0.72191 0.96821 0.0
H885 H 0.8146 0.70242 0.88978 0.0
H886 H 0.83024 0.68323 0.89848 0.0
H887 H 0.835 0.70851 0.906 0.0
C888 C 0.96979 0.95699 0.36199 0.0
C889 C 0.98411 0.97137 0.36729 0.0
C890 C 0.95558 0.96043 0.34725 0.0
C891 C 0.95552 0.97882 0.33783 0.0
C892 C 0.97042 0.99312 0.34261 0.0
C893 C 0.98464 0.98916 0.35722 0.0
C894 C 0.94012 0.9447 0.34237 0.0
C895 C 0.97071 0.01298 0.33306 0.0
C896 C 0.92282 0.98385 0.29204 0.0
C897 C 0.90564 0.99113 0.30023 0.0
C898 C 0.93936 0.97998 0.30403 0.0
C899 C 0.93873 0.98378 0.32458 0.0
C900 C 0.92162 0.9917 0.33279 0.0
C901 C 0.90527 0.99514 0.32055 0.0
C902 C 0.95728 0.97133 0.29483 0.0
C903 C 0.92045 0.99624 0.3546 0.0
H904 H 0.96955 0.94312 0.36961 0.0
H905 H 0.99565 0.00033 0.3614 0.0
H906 H 0.92561 0.94962 0.34742 0.0
H907 H 0.93883 0.94215 0.3262 0.0
H908 H 0.94343 0.93053 0.34947 0.0
H909 H 0.98431 0.02168 0.33695 0.0
H910 H 0.96948 0.01127 0.31681 0.0
H911 H 0.95786 0.02145 0.33789 0.0
H912 H 0.92316 0.98067 0.27635 0.0
H913 H 0.89211 0.00095 0.32695 0.0
H914 H 0.95973 0.95645 0.30069 0.0
H915 H 0.97054 0.98048 0.29876 0.0
H916 H 0.9558 0.97012 0.27852 0.0
H917 H 0.92166 0.98246 0.36297 0.0
H918 H 0.90647 0.00333 0.35846 0.0
H919 H 0.93288 0.00612 0.3595 0.0
C920 C 0.22435 0.19498 0.61497 0.0
C921 C 0.23541 0.19401 0.63261 0.0
C922 C 0.22778 0.18214 0.59906 0.0
C923 C 0.24265 0.168 0.6008 0.0
C924 C 0.25365 0.16673 0.61866 0.0
C925 C 0.2499 0.17975 0.63435 0.0
C926 C 0.21577 0.18398 0.58023 0.0
C927 C 0.2696 0.15181 0.62109 0.0
C928 C 0.24152 0.125 0.56407 0.0
C929 C 0.2552 0.13136 0.5503 0.0
C930 C 0.2374 0.13668 0.5807 0.0
C931 C 0.24723 0.15512 0.58363 0.0
C932 C 0.26123 0.16149 0.56992 0.0
C933 C 0.26504 0.14955 0.55344 0.0
C934 C 0.22237 0.12942 0.59501 0.0
C935 C 0.27204 0.18105 0.57254 0.0
H936 H 0.2133 0.20612 0.61343 0.0
H937 H 0.2583 0.17874 0.64804 0.0
H938 H 0.22552 0.18818 0.56807 0.0
H939 H 0.20867 0.16961 0.57602 0.0
H940 H 0.20418 0.19516 0.58155 0.0
H941 H 0.27634 0.15226 0.63615 0.0
H942 H 0.26352 0.13677 0.61795 0.0
H943 H 0.28131 0.15459 0.61033 0.0
H944 H 0.23384 0.11098 0.56177 0.0
H945 H 0.27567 0.15459 0.54292 0.0
H946 H 0.21001 0.13976 0.59562 0.0
H947 H 0.22904 0.12894 0.61005 0.0
H948 H 0.21639 0.11453 0.59089 0.0
H949 H 0.26138 0.19316 0.57253 0.0
H950 H 0.28276 0.18368 0.56075 0.0
H951 H 0.28003 0.18174 0.58698 0.0
C952 C 0.4457 0.50321 0.60217 0.0
C953 C 0.46159 0.51674 0.60345 0.0
C954 C 0.43244 0.50144 0.61761 0.0
C955 C 0.43508 0.5135 0.63474 0.0
C956 C 0.45107 0.52717 0.63614 0.0
C957 C 0.46413 0.5286 0.62051 0.0
C958 C 0.41556 0.48669 0.61556 0.0
C959 C 0.45442 0.54027 0.65418 0.0
C960 C 0.39156 0.52219 0.66773 0.0
C961 C 0.39534 0.50933 0.68321 0.0
C962 C 0.40427 0.52358 0.65179 0.0
C963 C 0.42116 0.5118 0.65127 0.0
C964 C 0.42494 0.49863 0.66672 0.0
C965 C 0.41202 0.49757 0.6825 0.0
C966 C 0.39976 0.53784 0.63562 0.0
C967 C 0.44276 0.48577 0.66668 0.0
H968 H 0.44346 0.49417 0.58895 0.0
H969 H 0.47652 0.53888 0.62176 0.0
H970 H 0.41625 0.47612 0.62778 0.0
H971 H 0.40138 0.49434 0.61662 0.0
H972 H 0.41564 0.47831 0.60136 0.0
H973 H 0.46744 0.55027 0.65288 0.0
H974 H 0.4413 0.54932 0.65665 0.0
H975 H 0.45656 0.53115 0.66739 0.0
H976 H 0.37874 0.53135 0.66814 0.0
H977 H 0.41507 0.48756 0.69436 0.0
H978 H 0.39864 0.52991 0.62119 0.0
H979 H 0.41192 0.5489 0.63473 0.0
H980 H 0.38584 0.54568 0.63802 0.0
H981 H 0.44267 0.47651 0.65304 0.0
H982 H 0.44338 0.476 0.67959 0.0
H983 H 0.45635 0.49508 0.66677 0.0
C984 C 0.74904 0.26995 0.61906 0.0
C985 C 0.7487 0.27881 0.6379 0.0
C986 C 0.74844 0.28127 0.60203 0.0
C987 C 0.74787 0.30203 0.6038 0.0
C988 C 0.74684 0.31107 0.62269 0.0
C989 C 0.74711 0.29935 0.63949 0.0
C990 C 0.74937 0.27104 0.58214 0.0
C991 C 0.74638 0.33316 0.6252 0.0
C992 C 0.77241 0.32831 0.56203 0.0
C993 C 0.75628 0.33378 0.55032 0.0
C994 C 0.76979 0.31875 0.57988 0.0
C995 C 0.75054 0.31419 0.58604 0.0
C996 C 0.73413 0.3202 0.5746 0.0
C997 C 0.7372 0.33012 0.5569 0.0
C998 C 0.78769 0.31297 0.59182 0.0
C999 C 0.71339 0.31539 0.58059 0.0
H1000 H 0.75053 0.25416 0.61756 0.0
H1001 H 0.7464 0.30634 0.65392 0.0
H1002 H 0.73782 0.27655 0.57199 0.0
H1003 H 0.7638 0.27431 0.57552 0.0
H1004 H 0.7475 0.25482 0.58314 0.0
H1005 H 0.74372 0.3378 0.64067 0.0
H1006 H 0.76064 0.33971 0.62075 0.0
H1007 H 0.73478 0.33929 0.61553 0.0
H1008 H 0.7872 0.33133 0.55712 0.0
H1009 H 0.72469 0.33428 0.54785 0.0
H1010 H 0.78852 0.2967 0.5921 0.0
H1011 H 0.78659 0.31833 0.60728 0.0
H1012 H 0.80157 0.31894 0.58575 0.0
H1013 H 0.71077 0.29923 0.57965 0.0
H1014 H 0.70227 0.32255 0.57106 0.0
H1015 H 0.7112 0.32006 0.59611 0.0
C1016 C 0.54542 0.95511 0.64875 0.0
C1017 C 0.52526 0.95096 0.6508 0.0
C1018 C 0.55779 0.95895 0.66528 0.0
C1019 C 0.54974 0.95916 0.68429 0.0
C1020 C 0.52941 0.95529 0.68648 0.0
C1021 C 0.5175 0.95097 0.66977 0.0
C1022 C 0.57948 0.96266 0.66242 0.0
C1023 C 0.52022 0.95565 0.70651 0.0
C1024 C 0.58101 0.95117 0.73028 0.0
C1025 C 0.58404 0.97048 0.73749 0.0
C1026 C 0.57057 0.94734 0.71251 0.0
C1027 C 0.56254 0.96317 0.70202 0.0
C1028 C 0.56583 0.98274 0.70907 0.0
C1029 C 0.57678 0.98617 0.72663 0.0
C1030 C 0.56779 0.92632 0.70519 0.0
C1031 C 0.55713 -4e-05 0.69852 0.0
H1032 H 0.55158 0.95549 0.6342 0.0
H1033 H 0.50208 0.94737 0.67165 0.0
H1034 H 0.58385 0.97755 0.66816 0.0
H1035 H 0.58813 0.95192 0.6709 0.0
H1036 H 0.58351 0.96151 0.64669 0.0
H1037 H 0.50401 0.9533 0.70559 0.0
H1038 H 0.52659 0.94404 0.71578 0.0
H1039 H 0.5235 0.96999 0.71411 0.0
H1040 H 0.58677 0.93902 0.73857 0.0
H1041 H 0.579 0.00112 0.73224 0.0
H1042 H 0.57233 0.92494 0.68964 0.0
H1043 H 0.55202 0.92192 0.70559 0.0
H1044 H 0.57636 0.91589 0.71417 0.0
H1045 H 0.56155 -0.00012 0.68291 0.0
H1046 H 0.56174 0.01431 0.70549 0.0
H1047 H 0.54085 0.9987 0.69855 0.0
C1048 C 0.85851 0.21806 0.79569 0.0
C1049 C 0.85788 0.22364 0.77594 0.0
C1050 C 0.87577 0.22074 0.80726 0.0
C1051 C 0.89286 0.2288 0.79872 0.0
C1052 C 0.89248 0.23361 0.77851 0.0
C1053 C 0.8749 0.2312 0.76742 0.0
C1054 C 0.87544 0.21585 0.82884 0.0
C1055 C 0.91049 0.24187 0.76874 0.0
C1056 C 0.93023 0.25862 0.82965 0.0
C1057 C 0.94532 0.24517 0.83237 0.0
C1058 C 0.91279 0.25319 0.81941 0.0
C1059 C 0.91056 0.23394 0.81121 0.0
C1060 C 0.92559 0.22014 0.81422 0.0
C1061 C 0.94274 0.22586 0.82502 0.0
C1062 C 0.89693 0.26821 0.81697 0.0
C1063 C 0.92388 0.19961 0.80537 0.0
H1064 H 0.84526 0.21231 0.80226 0.0
H1065 H 0.8744 0.23534 0.75209 0.0
H1066 H 0.88787 0.20629 0.83276 0.0
H1067 H 0.87727 0.22959 0.83786 0.0
H1068 H 0.86149 0.20834 0.83286 0.0
H1069 H 0.90833 0.24292 0.75254 0.0
H1070 H 0.91409 0.25679 0.77488 0.0
H1071 H 0.92333 0.23254 0.7718 0.0
H1072 H 0.93212 0.27352 0.83551 0.0
H1073 H 0.95446 0.21548 0.82701 0.0
H1074 H 0.88262 0.26207 0.82176 0.0
H1075 H 0.89518 0.27192 0.80121 0.0
H1076 H 0.90032 0.282 0.82556 0.0
H1077 H 0.90994 0.19234 0.8097 0.0
H1078 H 0.93633 0.19032 0.80997 0.0
H1079 H 0.92352 0.2004 0.78907 0.0
C1080 C 0.493 0.8351 0.50071 0.0
C1081 C 0.4755 0.84565 0.50128 0.0
C1082 C 0.49709 0.82273 0.48459 0.0
C1083 C 0.48322 0.82061 0.4688 0.0
C1084 C 0.46503 0.83022 0.46984 0.0
C1085 C 0.46145 0.84273 0.48597 0.0
C1086 C 0.51669 0.81278 0.48399 0.0
C1087 C 0.44974 0.82815 0.4534 0.0
C1088 C 0.50026 0.81148 0.4168 0.0
C1089 C 0.49557 0.79145 0.41375 0.0
C1090 C 0.49697 0.82091 0.43491 0.0
C1091 C 0.48847 0.81013 0.45029 0.0
C1092 C 0.48415 0.78978 0.44751 0.0
C1093 C 0.48791 0.78062 0.42928 0.0
C1094 C 0.50211 0.84256 0.43738 0.0
C1095 C 0.47486 0.77787 0.46349 0.0
H1096 H 0.50377 0.83689 0.51265 0.0
H1097 H 0.44799 0.85093 0.48607 0.0
H1098 H 0.51465 0.79692 0.4802 0.0
H1099 H 0.52571 0.81943 0.47235 0.0
H1100 H 0.52499 0.81428 0.49825 0.0
H1101 H 0.43553 0.83465 0.45749 0.0
H1102 H 0.45513 0.83565 0.44015 0.0
H1103 H 0.44711 0.81241 0.44932 0.0
H1104 H 0.50637 0.81989 0.40491 0.0
H1105 H 0.48418 0.76515 0.42696 0.0
H1106 H 0.51164 0.84515 0.4507 0.0
H1107 H 0.48852 0.85099 0.43949 0.0
H1108 H 0.5098 0.84849 0.42446 0.0
H1109 H 0.48344 0.77979 0.47751 0.0
H1110 H 0.47379 0.76194 0.45957 0.0
H1111 H 0.45986 0.78323 0.46617 0.0
C1112 C 0.13692 0.26657 0.79235 0.0
C1113 C 0.13891 0.25294 0.77676 0.0
C1114 C 0.12014 0.26634 0.80399 0.0
C1115 C 0.10485 0.25233 0.79978 0.0
C1116 C 0.10706 0.23808 0.78457 0.0
C1117 C 0.12411 0.23847 0.77335 0.0
C1118 C 0.11843 0.28166 0.82022 0.0
C1119 C 0.09103 0.22297 0.77955 0.0
C1120 C 0.06425 0.24509 0.83681 0.0
C1121 C 0.04979 0.25755 0.82941 0.0
C1122 C 0.08231 0.24321 0.82737 0.0
C1123 C 0.08581 0.2538 0.80999 0.0
C1124 C 0.07111 0.2661 0.80231 0.0
C1125 C 0.05338 0.26793 0.81217 0.0
C1126 C 0.09776 0.23016 0.83612 0.0
C1127 C 0.07413 0.27743 0.78366 0.0
H1128 H 0.14812 0.27794 0.79503 0.0
H1129 H 0.12569 0.22759 0.76165 0.0
H1130 H 0.10687 0.29219 0.81612 0.0
H1131 H 0.11395 0.27465 0.83408 0.0
H1132 H 0.13244 0.29005 0.82306 0.0
H1133 H 0.09563 0.212 0.76833 0.0
H1134 H 0.08664 0.21508 0.79295 0.0
H1135 H 0.07784 0.23046 0.77377 0.0
H1136 H 0.06161 0.2371 0.85017 0.0
H1137 H 0.04223 0.27747 0.80626 0.0
H1138 H 0.11122 0.23904 0.84 0.0
H1139 H 0.10192 0.21879 0.82515 0.0
H1140 H 0.09266 0.22271 0.84955 0.0
H1141 H 0.08685 0.28782 0.78569 0.0
H1142 H 0.06101 0.28593 0.77934 0.0
H1143 H 0.07755 0.26718 0.77137 0.0
C1144 C 0.52848 0.60699 0.43866 0.0
C1145 C 0.51527 0.60384 0.45389 0.0
C1146 C 0.52591 0.62241 0.42544 0.0
C1147 C 0.50972 0.63497 0.42746 0.0
C1148 C 0.49619 0.63169 0.44263 0.0
C1149 C 0.49913 0.61619 0.45565 0.0
C1150 C 0.5407 0.62548 0.40951 0.0
C1151 C 0.47868 0.64468 0.44522 0.0
C1152 C 0.51283 0.68655 0.40701 0.0
C1153 C 0.50158 0.68448 0.38946 0.0
C1154 C 0.51576 0.67051 0.41936 0.0
C1155 C 0.50722 0.65191 0.4141 0.0
C1156 C 0.49601 0.64965 0.39633 0.0
C1157 C 0.49334 0.66595 0.38421 0.0
C1158 C 0.52785 0.67353 0.43817 0.0
C1159 C 0.48666 0.63006 0.39024 0.0
H1160 H 0.54109 0.59764 0.43733 0.0
H1161 H 0.4887 0.61367 0.4672 0.0
H1162 H 0.53316 0.62531 0.39485 0.0
H1163 H 0.54808 0.64012 0.41159 0.0
H1164 H 0.55211 0.61404 0.4095 0.0
H1165 H 0.46925 0.63987 0.45743 0.0
H1166 H 0.48376 0.66008 0.44832 0.0
H1167 H 0.46962 0.64469 0.43143 0.0
H1168 H 0.5193 0.70077 0.41121 0.0
H1169 H 0.48464 0.66419 0.3707 0.0
H1170 H 0.54026 0.66322 0.43842 0.0
H1171 H 0.51869 0.67025 0.45104 0.0
H1172 H 0.53387 0.6888 0.4399 0.0
H1173 H 0.49805 0.61868 0.3893 0.0
H1174 H 0.47871 0.63063 0.37579 0.0
H1175 H 0.47613 0.62529 0.40151 0.0
C1176 C 0.90544 0.83246 0.7429 0.0
C1177 C 0.90054 0.82023 0.75849 0.0
C1178 C 0.91619 0.82535 0.727 0.0
C1179 C 0.92193 0.80545 0.72658 0.0
C1180 C 0.91761 0.79323 0.74262 0.0
C1181 C 0.90704 0.80081 0.75845 0.0
C1182 C 0.92075 0.83892 0.7103 0.0
C1183 C 0.9233 0.77189 0.74262 0.0
C1184 C 0.92731 0.78268 0.67566 0.0
C1185 C 0.94777 0.78303 0.67361 0.0
C1186 C 0.91879 0.78949 0.69302 0.0
C1187 C 0.931 0.79709 0.70866 0.0
C1188 C 0.95168 0.79723 0.70684 0.0
C1189 C 0.95984 0.79007 0.68936 0.0
C1190 C 0.89667 0.78884 0.69449 0.0
C1191 C 0.96515 0.80537 0.72315 0.0
H1192 H 0.9006 0.84755 0.74302 0.0
H1193 H 0.9031 0.79127 0.7704 0.0
H1194 H 0.93663 0.83857 0.707 0.0
H1195 H 0.91248 0.83386 0.6968 0.0
H1196 H 0.91679 0.85437 0.71368 0.0
H1197 H 0.92031 0.76483 0.75688 0.0
H1198 H 0.91491 0.76367 0.73077 0.0
H1199 H 0.93913 0.77051 0.73948 0.0
H1200 H 0.91787 0.77711 0.66362 0.0
H1201 H 0.97567 0.79044 0.68786 0.0
H1202 H 0.89114 0.80401 0.69604 0.0
H1203 H 0.89233 0.78076 0.70779 0.0
H1204 H 0.88931 0.78163 0.68138 0.0
H1205 H 0.96229 0.82122 0.72566 0.0
H1206 H 0.98092 0.80374 0.71974 0.0
H1207 H 0.96215 0.7978 0.73712 0.0
C1208 C 0.01683 0.88821 0.53713 0.0
C1209 C 0.02806 0.8836 0.5207 0.0
C1210 C 0.01115 0.87363 0.5503 0.0
C1211 C 0.01668 0.85394 0.54683 0.0
C1212 C 0.02839 0.84926 0.5305 0.0
C1213 C 0.03403 0.86419 0.51767 0.0
C1214 C 0.99886 0.87924 0.56768 0.0
C1215 C 0.03442 0.8284 0.52624 0.0
C1216 C 0.01294 0.81799 0.58881 0.0
C1217 C 0.99458 0.80884 0.5847 0.0
C1218 C 0.0204 0.83265 0.57657 0.0
C1219 C 0.00932 0.83811 0.55973 0.0
C1220 C 0.99092 0.82873 0.55535 0.0
C1221 C 0.98373 0.8143 0.56793 0.0
C1222 C 0.04001 0.84246 0.58179 0.0
C1223 C 0.97875 0.83403 0.53741 0.0
H1224 H 0.01242 0.90326 0.53964 0.0
H1225 H 0.04258 0.86057 0.50489 0.0
H1226 H 0.98419 0.87185 0.56623 0.0
H1227 H 0.00587 0.87417 0.58154 0.0
H1228 H 0.9968 0.89537 0.56893 0.0
H1229 H 0.04434 0.82738 0.51352 0.0
H1230 H 0.04197 0.82229 0.53933 0.0
H1231 H 0.02115 0.819 0.52298 0.0
H1232 H 0.0214 0.81389 0.60175 0.0
H1233 H 0.96959 0.80722 0.56455 0.0
H1234 H 0.0381 0.85848 0.58422 0.0
H1235 H 0.05021 0.84069 0.56941 0.0
H1236 H 0.04692 0.83633 0.59525 0.0
H1237 H 0.97475 0.84974 0.53839 0.0
H1238 H 0.96503 0.82493 0.53577 0.0
H1239 H 0.98744 0.83207 0.52393 0.0
C1240 C 0.13958 0.7532 0.69146 0.0
C1241 C 0.14039 0.73785 0.70495 0.0
C1242 C 0.12251 0.7563 0.68003 0.0
C1243 C 0.10589 0.74369 0.68206 0.0
C1244 C 0.10665 0.72808 0.69552 0.0
C1245 C 0.12385 0.7254 0.70684 0.0
C1246 C 0.12223 0.77311 0.66585 0.0
C1247 C 0.08922 0.7143 0.69809 0.0
C1248 C 0.05527 0.76145 0.66713 0.0
C1249 C 0.05216 0.75209 0.64869 0.0
C1250 C 0.07282 0.75907 0.67802 0.0
C1251 C 0.08756 0.74695 0.67033 0.0
C1252 C 0.0846 0.7376 0.65165 0.0
C1253 C 0.06696 0.74033 0.64102 0.0
C1254 C 0.07549 0.76937 0.69784 0.0
C1255 C 0.09995 0.72448 0.64302 0.0
H1256 H 0.15238 0.76272 0.68971 0.0
H1257 H 0.12423 0.7137 0.71745 0.0
H1258 H 0.11905 0.76743 0.65066 0.0
H1259 H 0.11033 0.78331 0.66964 0.0
H1260 H 0.1364 0.78156 0.66599 0.0
H1261 H 0.09237 0.70259 0.70881 0.0
H1262 H 0.07648 0.72272 0.70326 0.0
H1263 H 0.08481 0.70725 0.68374 0.0
H1264 H 0.04395 0.77062 0.67315 0.0
H1265 H 0.06467 0.73302 0.6268 0.0
H1266 H 0.08905 0.77874 0.69809 0.0
H1267 H 0.07728 0.75835 0.70953 0.0
H1268 H 0.06285 0.77873 0.70147 0.0
H1269 H 0.11412 0.73273 0.64198 0.0
H1270 H 0.09557 0.71862 0.62813 0.0
H1271 H 0.10254 0.7119 0.65284 0.0
C1272 C 0.98078 0.61958 0.56227 0.0
C1273 C 0.97839 0.62213 0.54188 0.0
C1274 C 0.98163 0.63581 0.57543 0.0
C1275 C 0.98037 0.65504 0.56798 0.0
C1276 C 0.97887 0.65776 0.54741 0.0
C1277 C 0.97769 0.64131 0.53466 0.0
C1278 C 0.9831 0.63234 0.59729 0.0
C1279 C 0.97771 0.67806 0.53885 0.0
C1280 C 0.95897 0.69745 0.59655 0.0
C1281 C 0.97586 0.70869 0.60183 0.0
C1282 C 0.96035 0.67928 0.58664 0.0
C1283 C 0.97906 0.67236 0.58155 0.0
C1284 C 0.99623 0.68316 0.5877 0.0
C1285 C 0.99442 0.70116 0.59794 0.0
C1286 C 0.9417 0.66799 0.58071 0.0
C1287 C 0.01642 0.67637 0.58237 0.0
H1288 H 0.9817 0.60486 0.56802 0.0
H1289 H 0.97548 0.64354 0.51902 0.0
H1290 H 0.99527 0.64142 0.60413 0.0
H1291 H 0.96932 0.63691 0.60429 0.0
H1292 H 0.98556 0.61665 0.60063 0.0
H1293 H 0.97838 0.67772 0.52252 0.0
H1294 H 0.96373 0.68489 0.54309 0.0
H1295 H 0.98992 0.68764 0.54486 0.0
H1296 H 0.94459 0.7031 0.59974 0.0
H1297 H 0.00753 0.70983 0.60196 0.0
H1298 H 0.94282 0.65233 0.58479 0.0
H1299 H 0.9395 0.66837 0.56448 0.0
H1300 H 0.92855 0.67421 0.5877 0.0
H1301 H 0.0181 0.66059 0.58571 0.0
H1302 H 0.02828 0.68504 0.5903 0.0
H1303 H 0.01838 0.67795 0.5663 0.0
C1304 C 0.76867 0.87663 0.2097 0.0
C1305 C 0.77513 0.85917 0.21815 0.0
C1306 C 0.7788 0.89459 0.21338 0.0
C1307 C 0.7958 0.89512 0.22581 0.0
C1308 C 0.80273 0.87746 0.23391 0.0
C1309 C 0.7923 0.85973 0.23001 0.0
C1310 C 0.77098 0.9131 0.20444 0.0
C1311 C 0.82079 0.87741 0.24728 0.0
C1312 C 0.83087 0.93958 0.22693 0.0
C1313 C 0.82513 0.9496 0.24405 0.0
C1314 C 0.82125 0.92197 0.22057 0.0
C1315 C 0.80553 0.91427 0.23157 0.0
C1316 C 0.79941 0.92454 0.24859 0.0
C1317 C 0.80928 0.94203 0.25462 0.0
C1318 C 0.82817 0.9114 0.20234 0.0
C1319 C 0.78266 0.91687 0.26069 0.0
H1320 H 0.75558 0.87626 0.20027 0.0
H1321 H 0.79728 0.84636 0.23678 0.0
H1322 H 0.76609 0.9232 0.21629 0.0
H1323 H 0.78276 0.92092 0.19649 0.0
H1324 H 0.75839 0.91001 0.19404 0.0
H1325 H 0.82504 0.86229 0.25124 0.0
H1326 H 0.83337 0.88474 0.24009 0.0
H1327 H 0.81799 0.88587 0.26103 0.0
H1328 H 0.84308 0.9453 0.21867 0.0
H1329 H 0.80464 0.94968 0.26781 0.0
H1330 H 0.81569 0.90881 0.19173 0.0
H1331 H 0.83382 0.89679 0.20632 0.0
H1332 H 0.83998 0.91978 0.19493 0.0
H1333 H 0.76921 0.91473 0.25127 0.0
H1334 H 0.77929 0.92696 0.27317 0.0
H1335 H 0.78637 0.90232 0.26669 0.0
C1336 C 0.77353 0.12367 0.24611 0.0
C1337 C 0.78234 0.14249 0.24515 0.0
C1338 C 0.78485 0.1067 0.2462 0.0
C1339 C 0.80559 0.10852 0.24579 0.0
C1340 C 0.81462 0.12736 0.24429 0.0
C1341 C 0.80289 0.1441 0.24381 0.0
C1342 C 0.77461 0.08685 0.2476 0.0
C1343 C 0.83671 0.12989 0.24403 0.0
C1344 C 0.83074 0.06668 0.27136 0.0
C1345 C 0.8359 0.05459 0.25543 0.0
C1346 C 0.82188 0.0848 0.26834 0.0
C1347 C 0.81766 0.09082 0.2489 0.0
C1348 C 0.82349 0.07902 0.23271 0.0
C1349 C 0.83276 0.06108 0.23618 0.0
C1350 C 0.8163 0.09712 0.28602 0.0
C1351 C 0.819 0.08482 0.21178 0.0
H1352 H 0.75775 0.12214 0.24751 0.0
H1353 H 0.80987 0.1585 0.24267 0.0
H1354 H 0.78012 0.0765 0.23628 0.0
H1355 H 0.77787 0.08054 0.26223 0.0
H1356 H 0.75841 0.08778 0.24566 0.0
H1357 H 0.84138 0.1453 0.24111 0.0
H1358 H 0.84311 0.12568 0.25848 0.0
H1359 H 0.84293 0.12005 0.23268 0.0
H1360 H 0.83339 0.06181 0.28628 0.0
H1361 H 0.83669 0.05173 0.22384 0.0
H1362 H 0.80006 0.09743 0.28693 0.0
H1363 H 0.82169 0.11253 0.28451 0.0
H1364 H 0.82235 0.09132 0.30003 0.0
H1365 H 0.80289 0.0838 0.2089 0.0
H1366 H 0.82631 0.0752 0.20089 0.0
H1367 H 0.82371 0.1003 0.20944 0.0
C1368 C 0.34013 0.00234 0.99763 0.0
C1369 C 0.35061 0.00369 0.98013 0.0
C1370 C 0.3274 0.98627 0.00089 0.0
C1371 C 0.32489 0.97132 0.98619 0.0
C1372 C 0.33453 0.97315 0.96807 0.0
C1373 C 0.34737 0.98922 0.96531 0.0
C1374 C 0.31743 0.9848 0.02044 0.0
C1375 C 0.33209 0.9576 0.95195 0.0
C1376 C 0.31415 0.91887 0.00112 0.0
C1377 C 0.29403 0.91663 0.99647 0.0
C1378 C 0.32417 0.93677 0.99835 0.0
C1379 C 0.3139 0.95281 0.99048 0.0
C1380 C 0.2935 0.95081 0.98607 0.0
C1381 C 0.28375 0.93274 0.98926 0.0
C1382 C 0.34588 0.93839 0.00351 0.0
C1383 C 0.28214 0.96753 0.97746 0.0
H1384 H 0.3422 0.01365 0.009 0.0
H1385 H 0.35553 0.98995 0.95183 0.0
H1386 H 0.30147 0.98163 0.01818 0.0
H1387 H 0.32362 0.97242 0.02879 0.0
H1388 H 0.3194 0.99849 0.02955 0.0
H1389 H 0.33876 0.96228 0.93798 0.0
H1390 H 0.33919 0.94388 0.9567 0.0
H1391 H 0.31628 0.95403 0.94906 0.0
H1392 H 0.32216 0.90654 0.00687 0.0
H1393 H 0.26821 0.93108 0.98558 0.0
H1394 H 0.34886 0.95105 0.01378 0.0
H1395 H 0.35431 0.94112 0.99002 0.0
H1396 H 0.35145 0.92487 0.01044 0.0
H1397 H 0.28417 0.98098 0.98687 0.0
H1398 H 0.26616 0.96397 0.97586 0.0
H1399 H 0.28785 0.97103 0.96274 0.0
C1400 C 0.24497 0.40601 0.33651 0.0
C1401 C 0.26063 0.40179 0.32421 0.0
C1402 C 0.22887 0.41662 0.3296 0.0
C1403 C 0.22835 0.42295 0.30986 0.0
C1404 C 0.24458 0.41956 0.29768 0.0
C1405 C 0.26059 0.40907 0.30505 0.0
C1406 C 0.21196 0.42017 0.34313 0.0
C1407 C 0.24451 0.42595 0.27652 0.0
C1408 C 0.17718 0.42562 0.28713 0.0
C1409 C 0.17369 0.44585 0.28815 0.0
C1410 C 0.19516 0.4181 0.29358 0.0
C1411 C 0.20998 0.43112 0.30146 0.0
C1412 C 0.20678 0.45163 0.30208 0.0
C1413 C 0.18868 0.45878 0.2953 0.0
C1414 C 0.19809 0.39615 0.2924 0.0
C1415 C 0.22222 0.46591 0.3105 0.0
H1416 H 0.24511 0.40057 0.35141 0.0
H1417 H 0.27263 0.40568 0.29546 0.0
H1418 H 0.2078 0.43585 0.3429 0.0
H1419 H 0.19894 0.41125 0.33793 0.0
H1420 H 0.21555 0.41621 0.35858 0.0
H1421 H 0.25909 0.42427 0.26975 0.0
H1422 H 0.23351 0.41692 0.26781 0.0
H1423 H 0.24017 0.44153 0.27546 0.0
H1424 H 0.16574 0.41555 0.28144 0.0
H1425 H 0.18606 0.47444 0.29617 0.0
H1426 H 0.19989 0.39031 0.30746 0.0
H1427 H 0.2117 0.39289 0.28439 0.0
H1428 H 0.18554 0.38817 0.28485 0.0
H1429 H 0.22462 0.46318 0.32642 0.0
H1430 H 0.21798 0.48148 0.30874 0.0
H1431 H 0.23645 0.46367 0.30324 0.0
C1432 C 0.13585 0.04114 0.45477 0.0
C1433 C 0.13356 0.02422 0.46602 0.0
C1434 C 0.15305 0.05287 0.45646 0.0
C1435 C 0.16841 0.04735 0.4695 0.0
C1436 C 0.16593 0.03058 0.48131 0.0
C1437 C 0.14845 0.01928 0.47951 0.0
C1438 C 0.15502 0.07082 0.44386 0.0
C1439 C 0.18206 0.02409 0.49521 0.0
C1440 C 0.22048 0.06226 0.45672 0.0
C1441 C 0.22472 0.07766 0.47033 0.0
C1442 C 0.2022 0.05237 0.4563 0.0
C1443 C 0.18764 0.05815 0.46964 0.0
C1444 C 0.19164 0.07392 0.48317 0.0
C1445 C 0.2102 0.08342 0.48346 0.0
C1446 C 0.19858 0.03548 0.44177 0.0
C1447 C 0.17636 0.08065 0.49742 0.0
H1448 H 0.12422 0.04509 0.4445 0.0
H1449 H 0.14675 0.00612 0.48812 0.0
H1450 H 0.1596 0.08385 0.45308 0.0
H1451 H 0.16662 0.06849 0.4329 0.0
H1452 H 0.14109 0.0741 0.43585 0.0
H1453 H 0.17734 0.01146 0.50423 0.0
H1454 H 0.19499 0.0197 0.48664 0.0
H1455 H 0.18691 0.03642 0.50522 0.0
H1456 H 0.23163 0.05764 0.44659 0.0
H1457 H 0.21333 0.09534 0.49398 0.0
H1458 H 0.1857 0.03849 0.43207 0.0
H1459 H 0.19512 0.02181 0.44978 0.0
H1460 H 0.21144 0.03282 0.43239 0.0
H1461 H 0.16272 0.08454 0.48926 0.0
H1462 H 0.18153 0.0936 0.50652 0.0
H1463 H 0.17247 0.06852 0.50739 0.0
C1464 C 0.69545 0.13474 0.76794 0.0
C1465 C 0.69241 0.14577 0.75097 0.0
C1466 C 0.68264 0.11913 0.77246 0.0
C1467 C 0.66649 0.11434 0.75961 0.0
C1468 C 0.66302 0.12577 0.74272 0.0
C1469 C 0.676 0.14143 0.73864 0.0
C1470 C 0.68671 0.10743 0.79073 0.0
C1471 C 0.64603 0.12101 0.72861 0.0
C1472 C 0.64856 0.06118 0.76085 0.0
C1473 C 0.63213 0.06252 0.77284 0.0
C1474 C 0.65949 0.07803 0.75594 0.0
C1475 C 0.65396 0.09667 0.76333 0.0
C1476 C 0.63712 0.0982 0.77505 0.0
C1477 C 0.62635 0.0811 0.77961 0.0
C1478 C 0.67725 0.07582 0.74323 0.0
C1479 C 0.63086 0.11781 0.78328 0.0
H1480 H 0.70799 0.13824 0.77762 0.0
H1481 H 0.67371 0.14985 0.72543 0.0
H1482 H 0.67346 0.10676 0.79991 0.0
H1483 H 0.69025 0.09209 0.78649 0.0
H1484 H 0.69917 0.11381 0.79981 0.0
H1485 H 0.64462 0.13209 0.71688 0.0
H1486 H 0.64811 0.10637 0.72154 0.0
H1487 H 0.63206 0.12019 0.73666 0.0
H1488 H 0.65304 0.04691 0.75543 0.0
H1489 H 0.61367 0.08226 0.7889 0.0
H1490 H 0.69075 0.08028 0.75182 0.0
H1491 H 0.67619 0.08564 0.73042 0.0
H1492 H 0.67889 0.06046 0.73771 0.0
H1493 H 0.64241 0.1239 0.79363 0.0
H1494 H 0.61681 0.11665 0.79122 0.0
H1495 H 0.62912 0.12849 0.77126 0.0
C1496 C 0.37243 0.99297 0.52582 0.0
C1497 C 0.38901 0.99848 0.53739 0.0
C1498 C 0.35915 0.00709 0.51936 0.0
C1499 C 0.36286 0.02721 0.52421 0.0
C1500 C 0.37956 0.03281 0.53603 0.0
C1501 C 0.39234 0.01831 0.54267 0.0
C1502 C 0.34129 0.00049 0.50714 0.0
C1503 C 0.38421 0.05415 0.54115 0.0
C1504 C 0.33948 0.06301 0.48907 0.0
C1505 C 0.3232 0.06916 0.49963 0.0
C1506 C 0.3529 0.0499 0.49722 0.0
C1507 C 0.34967 0.0424 0.51619 0.0
C1508 C 0.33342 0.04881 0.52707 0.0
C1509 C 0.32049 0.06232 0.51873 0.0
C1510 C 0.37031 0.04378 0.48535 0.0
C1511 C 0.3293 0.04085 0.54718 0.0
H1512 H 0.36984 0.97758 0.52189 0.0
H1513 H 0.40529 0.02252 0.55152 0.0
H1514 H 0.32777 0.00619 0.51382 0.0
H1515 H 0.34216 0.0066 0.49216 0.0
H1516 H 0.33988 0.98421 0.50576 0.0
H1517 H 0.39749 0.05599 0.5509 0.0
H1518 H 0.38667 0.06241 0.52746 0.0
H1519 H 0.37161 0.06089 0.54858 0.0
H1520 H 0.3417 0.0684 0.47435 0.0
H1521 H 0.30783 0.06695 0.52688 0.0
H1522 H 0.36901 0.02785 0.48157 0.0
H1523 H 0.38412 0.04613 0.49418 0.0
H1524 H 0.3715 0.05206 0.47148 0.0
H1525 H 0.32635 0.02474 0.54596 0.0
H1526 H 0.31648 0.04787 0.55402 0.0
H1527 H 0.34233 0.04316 0.55714 0.0
C1528 C 0.60868 0.44337 0.50127 0.0
C1529 C 0.60989 0.45937 0.51466 0.0
C1530 C 0.62421 0.43021 0.49953 0.0
C1531 C 0.64136 0.43303 0.51155 0.0
C1532 C 0.64271 0.44914 0.52508 0.0
C1533 C 0.62701 0.46213 0.52644 0.0
C1534 C 0.62221 0.41323 0.48489 0.0
C1535 C 0.66075 0.45266 0.53817 0.0
C1536 C 0.67423 0.38943 0.52072 0.0
C1537 C 0.68969 0.39307 0.50788 0.0
C1538 C 0.65838 0.40225 0.52198 0.0
C1539 C 0.65789 0.41908 0.51005 0.0
C1540 C 0.67331 0.42272 0.49689 0.0
C1541 C 0.68904 0.40972 0.496 0.0
C1542 C 0.64225 0.3979 0.53626 0.0
C1543 C 0.67327 0.44044 0.48384 0.0
H1544 H 0.59543 0.44093 0.4923 0.0
H1545 H 0.62823 0.4746 0.53661 0.0
H1546 H 0.63445 0.41382 0.47441 0.0
H1547 H 0.62322 0.39909 0.49269 0.0
H1548 H 0.60807 0.41329 0.47639 0.0
H1549 H 0.65945 0.46579 0.54801 0.0
H1550 H 0.66329 0.43963 0.54739 0.0
H1551 H 0.67389 0.45472 0.52902 0.0
H1552 H 0.67459 0.37665 0.52999 0.0
H1553 H 0.70088 0.41265 0.486 0.0
H1554 H 0.62785 0.39667 0.52829 0.0
H1555 H 0.64134 0.4102 0.54717 0.0
H1556 H 0.64468 0.38407 0.54432 0.0
H1557 H 0.65966 0.4403 0.47451 0.0
H1558 H 0.68616 0.44097 0.47411 0.0
H1559 H 0.67336 0.45413 0.49302 0.0
C1560 C 0.7165 0.27071 0.3698 0.0
C1561 C 0.72479 0.27819 0.35269 0.0
C1562 C 0.71925 0.28053 0.38808 0.0
C1563 C 0.73058 0.29825 0.38928 0.0
C1564 C 0.73847 0.30619 0.37197 0.0
C1565 C 0.73551 0.29606 0.35391 0.0
C1566 C 0.71055 0.27163 0.40619 0.0
C1567 C 0.75068 0.32502 0.37264 0.0
C1568 C 0.72917 0.33182 0.43477 0.0
C1569 C 0.74648 0.32672 0.44489 0.0
C1570 C 0.72357 0.32246 0.41677 0.0
C1571 C 0.73555 0.30766 0.40879 0.0
C1572 C 0.75279 0.30218 0.41915 0.0
C1573 C 0.75803 0.31176 0.43702 0.0
C1574 C 0.70508 0.32867 0.40612 0.0
C1575 C 0.76593 0.28642 0.41118 0.0
H1576 H 0.70793 0.25708 0.36892 0.0
H1577 H 0.74215 0.30183 0.34081 0.0
H1578 H 0.72254 0.26708 0.41636 0.0
H1579 H 0.70186 0.28269 0.41421 0.0
H1580 H 0.70093 0.25858 0.40257 0.0
H1581 H 0.75452 0.33 0.35771 0.0
H1582 H 0.74267 0.3369 0.38021 0.0
H1583 H 0.76451 0.32279 0.38122 0.0
H1584 H 0.72015 0.34334 0.44072 0.0
H1585 H 0.77139 0.30762 0.44475 0.0
H1586 H 0.69525 0.3157 0.40299 0.0
H1587 H 0.70886 0.33504 0.39174 0.0
H1588 H 0.6969 0.33975 0.41472 0.0
H1589 H 0.75736 0.27252 0.40852 0.0
H1590 H 0.77849 0.28346 0.42135 0.0
H1591 H 0.77182 0.29096 0.39683 0.0
C1592 C 0.49828 0.03609 0.87855 0.0
C1593 C 0.50296 0.04806 0.89508 0.0
C1594 C 0.51296 0.02985 0.86587 0.0
C1595 C 0.53282 0.03536 0.87012 0.0
C1596 C 0.53757 0.04778 0.88662 0.0
C1597 C 0.52251 0.05415 0.89882 0.0
C1598 C 0.50726 0.01695 0.8482 0.0
C1599 C 0.55861 0.05365 0.89183 0.0
C1600 C 0.56962 -0.00029 0.84976 0.0
C1601 C 0.57604 0.00945 0.83301 0.0
C1602 C 0.55618 0.00838 0.86241 0.0
C1603 C 0.54864 0.02706 0.85797 0.0
C1604 C 0.55542 0.03719 0.84134 0.0
C1605 C 0.56923 0.02833 0.82915 0.0
C1606 C 0.54964 0.9973 0.88026 0.0
C1607 C 0.54748 0.05698 0.83594 0.0
H1608 H 0.4831 0.03152 0.87563 0.0
H1609 H 0.52609 0.0633 0.91173 0.0
H1610 H 0.5135 0.02316 0.83465 0.0
H1611 H 0.51341 0.00211 0.85001 0.0
H1612 H 0.49106 0.01534 0.84608 0.0
H1613 H 0.55972 0.06428 0.90447 0.0
H1614 H 0.56696 0.04037 0.89568 0.0
H1615 H 0.56578 0.06032 0.879 0.0
H1616 H 0.57499 0.98517 0.85288 0.0
H1617 H 0.57405 0.03586 0.81614 0.0
H1618 H 0.53383 0.99314 0.87854 0.0
H1619 H 0.55133 0.00681 0.89368 0.0
H1620 H 0.5581 0.98371 0.88252 0.0
H1621 H 0.53159 0.05538 0.83205 0.0
H1622 H 0.55516 0.06347 0.82328 0.0
H1623 H 0.5489 0.06741 0.84869 0.0
C1624 C 0.33119 0.23612 0.41271 0.0
C1625 C 0.31693 0.25069 0.41137 0.0
C1626 C 0.32723 0.21829 0.42204 0.0
C1627 C 0.30842 0.21472 0.42986 0.0
C1628 C 0.29418 0.22955 0.42916 0.0
C1629 C 0.29869 0.24743 0.42015 0.0
C1630 C 0.34293 0.20296 0.42285 0.0
C1631 C 0.27389 0.22623 0.43715 0.0
C1632 C 0.29125 0.16133 0.43157 0.0
C1633 C 0.29355 0.15734 0.45165 0.0
C1634 C 0.29578 0.18004 0.42438 0.0
C1635 C 0.3032 0.195 0.43751 0.0
C1636 C 0.30567 0.19104 0.45779 0.0
C1637 C 0.30059 0.17229 0.46467 0.0
C1638 C 0.29254 0.18381 0.40271 0.0
C1639 C 0.31394 0.20649 0.47216 0.0
H1640 H 0.34524 0.2383 0.40581 0.0
H1641 H 0.28773 0.25873 0.41965 0.0
H1642 H 0.34468 0.19743 0.43804 0.0
H1643 H 0.33851 0.19022 0.41316 0.0
H1644 H 0.35739 0.20878 0.41805 0.0
H1645 H 0.26482 0.23959 0.43632 0.0
H1646 H 0.2662 0.21413 0.42865 0.0
H1647 H 0.27489 0.22165 0.45271 0.0
H1648 H 0.28566 0.14987 0.42148 0.0
H1649 H 0.30251 0.16923 0.48019 0.0
H1650 H 0.30671 0.18786 0.39596 0.0
H1651 H 0.2826 0.19638 0.40076 0.0
H1652 H 0.28606 0.17079 0.39459 0.0
H1653 H 0.3288 0.21134 0.4676 0.0
H1654 H 0.31502 0.20103 0.48744 0.0
H1655 H 0.30457 0.21963 0.47207 0.0
C1656 C 0.49579 0.48364 0.83993 0.0
C1657 C 0.49589 0.46553 0.84944 0.0
C1658 C 0.48057 0.48813 0.82657 0.0
C1659 C 0.46527 0.47407 0.82251 0.0
C1660 C 0.466 0.45532 0.83117 0.0
C1661 C 0.48124 0.45133 0.84466 0.0
C1662 C 0.48022 0.50834 0.81779 0.0
C1663 C 0.45014 0.43982 0.82698 0.0
C1664 C 0.41387 0.49121 0.81041 0.0
C1665 C 0.41243 0.48789 0.78998 0.0
C1666 C 0.43121 0.4873 0.82102 0.0
C1667 C 0.44745 0.47962 0.81101 0.0
C1668 C 0.44626 0.47658 0.79033 0.0
C1669 C 0.42878 0.48088 0.78002 0.0
C1670 C 0.43198 0.49102 0.84304 0.0
C1671 C 0.46322 0.46823 0.77922 0.0
H1672 H 0.50705 0.49468 0.84375 0.0
H1673 H 0.48144 0.43725 0.85188 0.0
H1674 H 0.47737 0.50726 0.80165 0.0
H1675 H 0.46808 0.51679 0.82422 0.0
H1676 H 0.49423 0.51673 0.82064 0.0
H1677 H 0.45402 0.42533 0.83309 0.0
H1678 H 0.4362 0.44453 0.83358 0.0
H1679 H 0.44738 0.43799 0.81088 0.0
H1680 H 0.40136 0.49678 0.81819 0.0
H1681 H 0.42773 0.47822 0.76424 0.0
H1682 H 0.44484 0.50066 0.84721 0.0
H1683 H 0.43382 0.47692 0.85073 0.0
H1684 H 0.41847 0.49805 0.8484 0.0
H1685 H 0.47683 0.47712 0.78242 0.0
H1686 H 0.46036 0.46777 0.76304 0.0
H1687 H 0.466 0.45306 0.78416 0.0
C1688 C 0.76002 0.70458 0.11858 0.0
C1689 C 0.74366 0.69997 0.12995 0.0
C1690 C 0.76473 0.69294 0.10215 0.0
C1691 C 0.75269 0.67637 0.09678 0.0
C1692 C 0.73622 0.67153 0.10823 0.0
C1693 C 0.73195 0.68333 0.12472 0.0
C1694 C 0.78246 0.69856 0.09035 0.0
C1695 C 0.72299 0.654 0.10292 0.0
C1696 C 0.75432 0.6589 0.0434 0.0
C1697 C 0.7669 0.64288 0.04465 0.0
C1698 C 0.74927 0.66967 0.06031 0.0
C1699 C 0.75711 0.66441 0.07891 0.0
C1700 C 0.76964 0.64812 0.08031 0.0
C1701 C 0.77432 0.63749 0.06317 0.0
C1702 C 0.73571 0.68684 0.05823 0.0
C1703 C 0.77841 0.64216 0.09988 0.0
H1704 H 0.76897 0.71757 0.12228 0.0
H1705 H 0.71945 0.67948 0.13356 0.0
H1706 H 0.79252 0.68598 0.08931 0.0
H1707 H 0.77776 0.70216 0.07512 0.0
H1708 H 0.79076 0.71143 0.09692 0.0
H1709 H 0.71089 0.6521 0.11346 0.0
H1710 H 0.71647 0.65573 0.08794 0.0
H1711 H 0.73167 0.64038 0.1026 0.0
H1712 H 0.74843 0.66311 0.02916 0.0
H1713 H 0.78407 0.62516 0.06428 0.0
H1714 H 0.74353 0.70065 0.06309 0.0
H1715 H 0.72289 0.6849 0.06784 0.0
H1716 H 0.73027 0.68855 0.04282 0.0
H1717 H 0.7878 0.65437 0.10621 0.0
H1718 H 0.78744 0.62881 0.09855 0.0
H1719 H 0.76657 0.63926 0.11046 0.0
C1720 C 0.94703 0.00557 0.11099 0.0
C1721 C 0.96261 0.01944 0.11257 0.0
C1722 C 0.93363 0.00332 0.12625 0.0
C1723 C 0.93575 0.01532 0.14348 0.0
C1724 C 0.95147 0.02929 0.14522 0.0
C1725 C 0.96473 0.03113 0.12981 0.0
C1726 C 0.91711 0.98821 0.12386 0.0
C1727 C 0.95423 0.04237 0.16335 0.0
C1728 C 0.89111 0.02333 0.17506 0.0
C1729 C 0.89468 0.01069 0.19076 0.0
C1730 C 0.90429 0.0249 0.15954 0.0
C1731 C 0.92141 0.01344 0.15962 0.0
C1732 C 0.92498 0.00044 0.17528 0.0
C1733 C 0.91161 0.99927 0.19068 0.0
C1734 C 0.90003 0.03902 0.14318 0.0
C1735 C 0.94298 0.98787 0.17582 0.0
H1736 H 0.94509 0.99667 0.09765 0.0
H1737 H 0.97689 0.04165 0.13133 0.0
H1738 H 0.91759 0.97782 0.13624 0.0
H1739 H 0.90274 0.99559 0.12432 0.0
H1740 H 0.91781 0.97967 0.10979 0.0
H1741 H 0.96718 0.05252 0.16241 0.0
H1742 H 0.94094 0.05126 0.16548 0.0
H1743 H 0.95612 0.03326 0.1766 0.0
H1744 H 0.8781 0.03225 0.17499 0.0
H1745 H 0.91447 0.98941 0.20271 0.0
H1746 H 0.89937 0.03102 0.12878 0.0
H1747 H 0.91209 0.05023 0.14255 0.0
H1748 H 0.88595 0.0467 0.14515 0.0
H1749 H 0.94343 0.97857 0.16223 0.0
H1750 H 0.94337 0.97815 0.18877 0.0
H1751 H 0.95645 0.99738 0.17627 0.0
C1752 C 0.24954 0.77198 0.12131 0.0
C1753 C 0.24789 0.77991 0.14043 0.0
C1754 C 0.2489 0.78401 0.10478 0.0
C1755 C 0.24691 0.80457 0.10738 0.0
C1756 C 0.24453 0.81263 0.12652 0.0
C1757 C 0.24492 0.8002 0.1428 0.0
C1758 C 0.25132 0.77478 0.08459 0.0
C1759 C 0.2425 0.8345 0.1299 0.0
C1760 C 0.2714 0.83398 0.0677 0.0
C1761 C 0.25541 0.83867 0.0554 0.0
C1762 C 0.26867 0.82372 0.08513 0.0
C1763 C 0.24948 0.81766 0.09028 0.0
C1764 C 0.23316 0.82294 0.07831 0.0
C1765 C 0.23631 0.83357 0.06105 0.0
C1766 C 0.28645 0.81872 0.09764 0.0
C1767 C 0.2125 0.81658 0.08323 0.0
H1768 H 0.25213 0.75642 0.11923 0.0
H1769 H 0.24321 0.80645 0.15744 0.0
H1770 H 0.23979 0.77994 0.07421 0.0
H1771 H 0.26577 0.77934 0.07875 0.0
H1772 H 0.25053 0.75845 0.08485 0.0
H1773 H 0.23884 0.83822 0.14537 0.0
H1774 H 0.25651 0.84217 0.12642 0.0
H1775 H 0.23093 0.84028 0.11996 0.0
H1776 H 0.28619 0.83811 0.06353 0.0
H1777 H 0.22392 0.83712 0.05155 0.0
H1778 H 0.28841 0.80256 0.09735 0.0
H1779 H 0.28432 0.82332 0.1132 0.0
H1780 H 0.30015 0.8259 0.09245 0.0
H1781 H 0.21092 0.80036 0.08147 0.0
H1782 H 0.20131 0.82349 0.07359 0.0
H1783 H 0.20944 0.82035 0.0988 0.0
C1784 C 0.05489 0.47165 0.12897 0.0
C1785 C 0.03469 0.46835 0.13166 0.0
C1786 C 0.06816 0.47297 0.14512 0.0
C1787 C 0.06102 0.47131 0.16442 0.0
C1788 C 0.0406 0.4688 0.16728 0.0
C1789 C 0.02774 0.46712 0.1509 0.0
C1790 C 0.08987 0.47545 0.1415 0.0
C1791 C 0.03237 0.46722 0.18767 0.0
C1792 C 0.0916 0.45189 0.2067 0.0
C1793 C 0.09636 0.46917 0.21753 0.0
C1794 C 0.0811 0.45253 0.18874 0.0
C1795 C 0.07484 0.47086 0.18167 0.0
C1796 C 0.08029 0.48844 0.19212 0.0
C1797 C 0.09119 0.48739 0.20988 0.0
C1798 C 0.07595 0.43348 0.17778 0.0
C1799 C 0.07364 0.50823 0.1852 0.0
H1800 H 0.0604 0.473 0.11422 0.0
H1801 H 0.01227 0.46421 0.15323 0.0
H1802 H 0.09612 0.48816 0.15023 0.0
H1803 H 0.09765 0.46218 0.14643 0.0
H1804 H 0.09294 0.47771 0.12571 0.0
H1805 H 0.01604 0.46702 0.18744 0.0
H1806 H 0.03745 0.45351 0.19455 0.0
H1807 H 0.0378 0.47974 0.19717 0.0
H1808 H 0.09577 0.43778 0.21247 0.0
H1809 H 0.09478 0.50079 0.21825 0.0
H1810 H 0.07971 0.43462 0.16203 0.0
H1811 H 0.05988 0.4305 0.17837 0.0
H1812 H 0.0837 0.42077 0.18411 0.0
H1813 H 0.0768 0.51005 0.16939 0.0
H1814 H 0.08085 0.52059 0.19378 0.0
H1815 H 0.0575 0.5092 0.18675 0.0
C1816 C 0.3765 0.73175 0.26617 0.0
C1817 C 0.35955 0.72474 0.27523 0.0
C1818 C 0.3942 0.73458 0.27698 0.0
C1819 C 0.39474 0.73082 0.29743 0.0
C1820 C 0.37765 0.72349 0.30657 0.0
C1821 C 0.36029 0.7203 0.29527 0.0
C1822 C 0.4122 0.742 0.26661 0.0
C1823 C 0.37749 0.71978 0.32841 0.0
C1824 C 0.44448 0.72719 0.32389 0.0
C1825 C 0.44769 0.74662 0.33068 0.0
C1826 C 0.42727 0.72174 0.31305 0.0
C1827 C 0.41277 0.73596 0.30946 0.0
C1828 C 0.4157 0.75543 0.3169 0.0
C1829 C 0.43322 0.76057 0.32717 0.0
C1830 C 0.42486 0.70096 0.30498 0.0
C1831 C 0.40039 0.77091 0.31384 0.0
H1832 H 0.37584 0.73506 0.25062 0.0
H1833 H 0.34706 0.71497 0.3022 0.0
H1834 H 0.41625 0.75706 0.27209 0.0
H1835 H 0.42486 0.73249 0.26986 0.0
H1836 H 0.40981 0.74243 0.25039 0.0
H1837 H 0.3633 0.71319 0.33306 0.0
H1838 H 0.3895 0.70981 0.3326 0.0
H1839 H 0.38016 0.73385 0.33669 0.0
H1840 H 0.4557 0.7164 0.32649 0.0
H1841 H 0.43557 0.77557 0.33259 0.0
H1842 H 0.42387 0.70116 0.28865 0.0
H1843 H 0.41097 0.69418 0.3101 0.0
H1844 H 0.43727 0.69156 0.30945 0.0
H1845 H 0.39853 0.77382 0.2979 0.0
H1846 H 0.40439 0.785 0.32165 0.0
H1847 H 0.38596 0.76558 0.31913 0.0
C1848 C 0.99318 0.34595 0.99425 0.0
C1849 C 0.97589 0.35686 0.99373 0.0
C1850 C 0.99691 0.33184 0.97952 0.0
C1851 C 0.98292 0.32838 0.96403 0.0
C1852 C 0.96486 0.33834 0.96417 0.0
C1853 C 0.96162 0.35253 0.97894 0.0
C1854 C 0.01633 0.32154 0.9799 0.0
C1855 C 0.94946 0.3349 0.94802 0.0
C1856 C 2e-05 0.31482 0.913 0.0
C1857 C 0.99509 0.29471 0.91153 0.0
C1858 C 0.99674 0.32572 0.93028 0.0
C1859 C 0.98807 0.31634 0.94645 0.0
C1860 C 0.98358 0.2959 0.94532 0.0
C1861 C 0.98728 0.28526 0.92787 0.0
C1862 C 0.00205 0.34742 0.93098 0.0
C1863 C 0.97418 0.28546 0.96221 0.0
H1864 H 0.0041 0.34885 0.00588 0.0
H1865 H 0.94829 0.36094 0.97827 0.0
H1866 H 0.01407 0.30548 0.97734 0.0
H1867 H 0.02555 0.32709 0.96785 0.0
H1868 H 0.02455 0.32402 0.9941 0.0
H1869 H 0.93532 0.34185 0.95158 0.0
H1870 H 0.9548 0.34114 0.93411 0.0
H1871 H 0.94673 0.31891 0.94536 0.0
H1872 H 0.00624 0.32217 0.90049 0.0
H1873 H 0.98337 0.26973 0.92677 0.0
H1874 H 0.01163 0.35099 0.94407 0.0
H1875 H 0.98853 0.35611 0.9324 0.0
H1876 H 0.00976 0.3522 0.9176 0.0
H1877 H 0.98264 0.28858 0.97612 0.0
H1878 H 0.97316 0.26927 0.95966 0.0
H1879 H 0.95914 0.29101 0.96425 0.0
C1880 C 0.63925 0.75054 0.29214 0.0
C1881 C 0.63695 0.75283 0.2717 0.0
C1882 C 0.62296 0.75036 0.30446 0.0
C1883 C 0.60383 0.75211 0.29613 0.0
C1884 C 0.60131 0.75355 0.27547 0.0
C1885 C 0.61787 0.75411 0.26356 0.0
C1886 C 0.62627 0.74904 0.32645 0.0
C1887 C 0.58113 0.7552 0.26598 0.0
C1888 C 0.55872 0.73934 0.32586 0.0
C1889 C 0.55217 0.75811 0.33105 0.0
C1890 C 0.57571 0.73707 0.31471 0.0
C1891 C 0.58656 0.75397 0.30904 0.0
C1892 C 0.5804 0.7729 0.31494 0.0
C1893 C 0.56318 0.77474 0.32567 0.0
C1894 C 0.58163 0.71668 0.30841 0.0
C1895 C 0.59178 0.79127 0.30956 0.0
H1896 H 0.65384 0.7491 0.29861 0.0
H1897 H 0.61581 0.7562 0.24788 0.0
H1898 H 0.62158 0.76284 0.33376 0.0
H1899 H 0.61721 0.73685 0.33234 0.0
H1900 H 0.64193 0.74666 0.33052 0.0
H1901 H 0.58152 0.75427 0.24965 0.0
H1902 H 0.57116 0.74337 0.27118 0.0
H1903 H 0.57472 0.76947 0.2703 0.0
H1904 H 0.55019 0.72645 0.32991 0.0
H1905 H 0.55829 0.78928 0.32983 0.0
H1906 H 0.59717 0.7142 0.31277 0.0
H1907 H 0.58051 0.71519 0.29212 0.0
H1908 H 0.57225 0.70502 0.31489 0.0
H1909 H 0.60743 0.79013 0.31425 0.0
H1910 H 0.58578 0.80476 0.31643 0.0
H1911 H 0.59136 0.79291 0.29334 0.0
C1912 C 0.0238 0.1323 0.97282 0.0
C1913 C 0.0164 0.11342 0.96765 0.0
C1914 C 0.02022 0.14845 0.96077 0.0
C1915 C 0.00894 0.1457 0.94311 0.0
C1916 C 0.00164 0.12664 0.93766 0.0
C1917 C 0.00546 0.11074 0.94998 0.0
C1918 C 0.02835 0.16851 0.96706 0.0
C1919 C 0.98951 0.12311 0.91897 0.0
C1920 C 0.98361 0.1905 0.92263 0.0
C1921 C 0.99637 0.19625 0.90776 0.0
C1922 C 0.98741 0.17396 0.93407 0.0
C1923 C 0.0044 0.16287 0.93059 0.0
C1924 C 0.01722 0.16844 0.91546 0.0
C1925 C 0.01305 0.18505 0.90422 0.0
C1926 C 0.97336 0.16849 0.95005 0.0
C1927 C 0.03548 0.157 0.9113 0.0
H1928 H 0.03251 0.13445 0.98629 0.0
H1929 H -0.00051 0.09626 0.94599 0.0
H1930 H 0.03773 0.17456 0.95539 0.0
H1931 H 0.01612 0.17881 0.96914 0.0
H1932 H 0.0372 0.1681 0.981 0.0
H1933 H 0.98545 0.10733 0.91651 0.0
H1934 H 0.97583 0.13167 0.91961 0.0
H1935 H 0.99775 0.12832 0.9061 0.0
H1936 H 0.97068 0.19902 0.92549 0.0
H1937 H 0.023 0.18935 0.89277 0.0
H1938 H 0.98114 0.16924 0.9646 0.0
H1939 H 0.96787 0.15312 0.94769 0.0
H1940 H 0.96057 0.17833 0.95057 0.0
H1941 H 0.04537 0.15733 0.92453 0.0
H1942 H 0.0437 0.16297 0.89872 0.0
H1943 H 0.03149 0.14135 0.90798 0.0
C1944 C 0.3975 0.29735 0.25443 0.0
C1945 C 0.40172 0.31256 0.2682 0.0
C1946 C 0.4086 0.29527 0.23744 0.0
C1947 C 0.42409 0.30893 0.23402 0.0
C1948 C 0.42894 0.32382 0.2483 0.0
C1949 C 0.41774 0.32538 0.26534 0.0
C1950 C 0.40317 0.27898 0.22273 0.0
C1951 C 0.44523 0.33876 0.24508 0.0
C1952 C 0.45882 0.29602 0.19296 0.0
C1953 C 0.44996 0.30535 0.1769 0.0
C1954 C 0.45088 0.29742 0.21182 0.0
C1955 C 0.43387 0.30864 0.21468 0.0
C1956 C 0.42535 0.31871 0.19868 0.0
C1957 C 0.43341 0.31683 0.17997 0.0
C1958 C 0.46023 0.28632 0.2285 0.0
C1959 C 0.40735 0.33105 0.20119 0.0
H1960 H 0.38521 0.28732 0.25679 0.0
H1961 H 0.4209 0.33722 0.27596 0.0
H1962 H 0.39705 0.2854 0.20906 0.0
H1963 H 0.41641 0.27073 0.21867 0.0
H1964 H 0.39208 0.26847 0.2285 0.0
H1965 H 0.44845 0.34812 0.25841 0.0
H1966 H 0.45888 0.33132 0.24082 0.0
H1967 H 0.44095 0.34841 0.23279 0.0
H1968 H 0.47159 0.28707 0.19067 0.0
H1969 H 0.42661 0.32424 0.16766 0.0
H1970 H 0.44993 0.27456 0.23326 0.0
H1971 H 0.46322 0.29629 0.2414 0.0
H1972 H 0.4742 0.27945 0.22421 0.0
H1973 H 0.39467 0.32149 0.2051 0.0
H1974 H 0.40338 0.33905 0.18762 0.0
H1975 H 0.40985 0.34194 0.21343 0.0
C1976 C 0.54598 0.39948 0.03197 0.0
C1977 C 0.53987 0.39436 0.01266 0.0
C1978 C 0.53978 0.38828 0.04793 0.0
C1979 C 0.52748 0.37145 0.04436 0.0
C1980 C 0.52203 0.36577 0.02477 0.0
C1981 C 0.52815 0.37742 0.00917 0.0
C1982 C 0.54566 0.39493 0.06861 0.0
C1983 C 0.50922 0.34773 0.02032 0.0
C1984 C 0.51957 0.33255 0.0829 0.0
C1985 C 0.5005 0.3367 0.0889 0.0
C1986 C 0.52892 0.34418 0.06888 0.0
C1987 C 0.51908 0.36049 0.06101 0.0
C1988 C 0.50031 0.36539 0.06791 0.0
C1989 C 0.49117 0.35334 0.08164 0.0
C1990 C 0.54885 0.33836 0.06172 0.0
C1991 C 0.48948 0.38289 0.06015 0.0
H1992 H 0.55495 0.41268 0.03464 0.0
H1993 H 0.52362 0.37339 0.99419 0.0
H1994 H 0.53245 0.39964 0.07655 0.0
H1995 H 0.55204 0.38259 0.07687 0.0
H1996 H 0.55651 0.40739 0.06881 0.0
H1997 H 0.50765 0.34447 0.00426 0.0
H1998 H 0.51546 0.33473 0.02761 0.0
H1999 H 0.49437 0.34991 0.02626 0.0
H2000 H 0.52681 0.31966 0.08841 0.0
H2001 H 0.47651 0.35672 0.08639 0.0
H2002 H 0.55914 0.35125 0.06208 0.0
H2003 H 0.54743 0.33304 0.04619 0.0
H2004 H 0.55535 0.32654 0.07067 0.0
H2005 H 0.49914 0.39626 0.06099 0.0
H2006 H 0.47593 0.38583 0.06843 0.0
H2007 H 0.48529 0.38022 0.04442 0.0
C2008 C 0.63644 0.26024 0.18136 0.0
C2009 C 0.63726 0.24386 0.19359 0.0
C2010 C 0.61924 0.26439 0.17057 0.0
C2011 C 0.60249 0.25181 0.17195 0.0
C2012 C 0.60337 0.23499 0.18385 0.0
C2013 C 0.62071 0.23127 0.19458 0.0
C2014 C 0.61884 0.28248 0.15803 0.0
C2015 C 0.58582 0.22122 0.18567 0.0
C2016 C 0.55219 0.27296 0.16203 0.0
C2017 C 0.54783 0.26602 0.14279 0.0
C2018 C 0.56998 0.26853 0.17161 0.0
C2019 C 0.58373 0.25678 0.16176 0.0
C2020 C 0.57944 0.24969 0.14236 0.0
C2021 C 0.56156 0.25445 0.13307 0.0
C2022 C 0.57405 0.27643 0.19228 0.0
C2023 C 0.59372 0.23702 0.13146 0.0
H2024 H 0.64925 0.26987 0.18029 0.0
H2025 H 0.6211 0.21874 0.20419 0.0
H2026 H 0.61437 0.27837 0.14265 0.0
H2027 H 0.60777 0.29279 0.16366 0.0
H2028 H 0.63334 0.2903 0.15791 0.0
H2029 H 0.5893 0.20814 0.19455 0.0
H2030 H 0.57367 0.22912 0.19273 0.0
H2031 H 0.58039 0.21613 0.17086 0.0
H2032 H 0.54171 0.28196 0.16965 0.0
H2033 H 0.5583 0.249 0.11822 0.0
H2034 H 0.5878 0.28552 0.19275 0.0
H2035 H 0.57624 0.26408 0.20247 0.0
H2036 H 0.56191 0.28554 0.19779 0.0
H2037 H 0.60803 0.24498 0.13027 0.0
H2038 H 0.58822 0.23275 0.11642 0.0
H2039 H 0.59649 0.22345 0.1398 0.0
C2040 C 0.46573 0.16738 0.03167 0.0
C2041 C 0.4512 0.1531 0.03554 0.0
C2042 C 0.46834 0.18425 0.04375 0.0
C2043 C 0.45635 0.18677 0.0603 0.0
C2044 C 0.44215 0.1721 0.06474 0.0
C2045 C 0.43964 0.15552 0.05223 0.0
C2046 C 0.48357 0.19963 0.03847 0.0
C2047 C 0.42925 0.17419 0.08241 0.0
C2048 C 0.47359 0.22512 0.09874 0.0
C2049 C 0.46215 0.24124 0.09362 0.0
C2050 C 0.47153 0.2071 0.08835 0.0
C2051 C 0.45794 0.20529 0.07228 0.0
C2052 C 0.4462 0.22144 0.06718 0.0
C2053 C 0.44835 0.23916 0.078 0.0
C2054 C 0.48406 0.19008 0.09439 0.0
C2055 C 0.43171 0.22015 0.04998 0.0
H2056 H 0.47502 0.16546 0.01908 0.0
H2057 H 0.42822 0.14472 0.05524 0.0
H2058 H 0.47626 0.21368 0.03523 0.0
H2059 H 0.49395 0.20254 0.05108 0.0
H2060 H 0.49211 0.19516 0.02544 0.0
H2061 H 0.4201 0.16074 0.08475 0.0
H2062 H 0.43838 0.17736 0.0959 0.0
H2063 H 0.41935 0.18677 0.0804 0.0
H2064 H 0.48421 0.22658 0.11086 0.0
H2065 H 0.43951 0.25156 0.07388 0.0
H2066 H 0.49394 0.18606 0.08227 0.0
H2067 H 0.47461 0.17698 0.09718 0.0
H2068 H 0.49319 0.19357 0.10784 0.0
H2069 H 0.43958 0.21699 0.0362 0.0
H2070 H 0.42348 0.23395 0.04815 0.0
H2071 H 0.421 0.20786 0.052 0.0
C2072 C 0.2965 0.35493 0.72659 0.0
C2073 C 0.27826 0.35462 0.7165 0.0
C2074 C 0.30737 0.37257 0.72959 0.0
C2075 C 0.2998 0.39035 0.7224 0.0
C2076 C 0.28176 0.39003 0.71157 0.0
C2077 C 0.27123 0.37217 0.70874 0.0
C2078 C 0.32655 0.37229 0.74123 0.0
C2079 C 0.27322 0.40867 0.70364 0.0
C2080 C 0.31486 0.43677 0.75125 0.0
C2081 C 0.32954 0.44495 0.73955 0.0
C2082 C 0.30493 0.4192 0.74565 0.0
C2083 C 0.30978 0.40945 0.72789 0.0
C2084 C 0.32436 0.41772 0.7158 0.0
C2085 C 0.33405 0.43542 0.72175 0.0
C2086 C 0.2894 0.41094 0.75891 0.0
C2087 C 0.32992 0.4077 0.69677 0.0
H2088 H 0.30197 0.34149 0.73281 0.0
H2089 H 0.25732 0.37199 0.70061 0.0
H2090 H 0.33832 0.38005 0.7332 0.0
H2091 H 0.32492 0.38019 0.75553 0.0
H2092 H 0.3313 0.35708 0.74419 0.0
H2093 H 0.25996 0.4057 0.69409 0.0
H2094 H 0.26909 0.41845 0.71608 0.0
H2095 H 0.28431 0.41679 0.69506 0.0
H2096 H 0.31115 0.44403 0.76498 0.0
H2097 H 0.34538 0.44162 0.71263 0.0
H2098 H 0.29375 0.39625 0.76409 0.0
H2099 H 0.27523 0.40893 0.75062 0.0
H2100 H 0.28702 0.4206 0.77199 0.0
H2101 H 0.33599 0.39303 0.69988 0.0
H2102 H 0.34102 0.41639 0.68868 0.0
H2103 H 0.31671 0.40524 0.68708 0.0
C2104 C 0.28576 0.62829 0.73423 0.0
C2105 C 0.29029 0.64257 0.74897 0.0
C2106 C 0.29619 0.61075 0.73302 0.0
C2107 C 0.31171 0.60748 0.74672 0.0
C2108 C 0.31725 0.62238 0.76075 0.0
C2109 C 0.3064 0.63969 0.7618 0.0
C2110 C 0.28976 0.59521 0.71788 0.0
C2111 C 0.33387 0.61957 0.77547 0.0
C2112 C 0.31998 0.55511 0.76249 0.0
C2113 C 0.3365 0.54988 0.75176 0.0
C2114 C 0.31172 0.57369 0.76072 0.0
C2115 C 0.32032 0.58759 0.7481 0.0
C2116 C 0.33696 0.58244 0.73713 0.0
C2117 C 0.34479 0.56355 0.73897 0.0
C2118 C 0.29379 0.57845 0.77248 0.0
C2119 C 0.34664 0.59698 0.72372 0.0
H2120 H 0.27367 0.63058 0.72393 0.0
H2121 H 0.30998 0.65051 0.77333 0.0
H2122 H 0.3026 0.58958 0.70995 0.0
H2123 H 0.28285 0.58257 0.7254 0.0
H2124 H 0.27899 0.60084 0.70694 0.0
H2125 H 0.33815 0.63348 0.78347 0.0
H2126 H 0.32931 0.60857 0.78642 0.0
H2127 H 0.34695 0.61381 0.76802 0.0
H2128 H 0.31337 0.5446 0.77228 0.0
H2129 H 0.3576 0.55962 0.7307 0.0
H2130 H 0.28162 0.58287 0.76246 0.0
H2131 H 0.29717 0.59105 0.78272 0.0
H2132 H 0.28859 0.5658 0.78122 0.0
H2133 H 0.3358 0.60218 0.71265 0.0
H2134 H 0.35921 0.59058 0.71588 0.0
H2135 H 0.35203 0.61007 0.73243 0.0
C2136 C 0.85802 0.47661 0.46124 0.0
C2137 C 0.86262 0.49007 0.47669 0.0
C2138 C 0.84331 0.46204 0.46313 0.0
C2139 C 0.83314 0.46068 0.481 0.0
C2140 C 0.83688 0.4749 0.49621 0.0
C2141 C 0.85147 0.48951 0.49381 0.0
C2142 C 0.83958 0.4473 0.44645 0.0
C2143 C 0.82639 0.47393 0.51551 0.0
C2144 C 0.78902 0.42541 0.48322 0.0
C2145 C 0.79791 0.40839 0.49019 0.0
C2146 C 0.80022 0.4427 0.48028 0.0
C2147 C 0.82066 0.44298 0.48471 0.0
C2148 C 0.82956 0.426 0.49228 0.0
C2149 C 0.81811 0.40891 0.49478 0.0
C2150 C 0.79031 0.46046 0.47196 0.0
C2151 C 0.85126 0.42576 0.49749 0.0
H2152 H 0.8666 0.47676 0.44801 0.0
H2153 H 0.85457 0.50013 0.50565 0.0
H2154 H 0.84558 0.43288 0.45062 0.0
H2155 H 0.82357 0.44509 0.44353 0.0
H2156 H 0.84659 0.45197 0.43265 0.0
H2157 H 0.82918 0.48736 0.52485 0.0
H2158 H 0.81031 0.47197 0.51293 0.0
H2159 H 0.8315 0.46101 0.52378 0.0
H2160 H 0.77342 0.42506 0.47958 0.0
H2161 H 0.82505 0.39587 0.50035 0.0
H2162 H 0.7964 0.46377 0.45735 0.0
H2163 H 0.79333 0.47356 0.48165 0.0
H2164 H 0.77414 0.4582 0.47022 0.0
H2165 H 0.85994 0.42817 0.4841 0.0
H2166 H 0.85571 0.41164 0.50403 0.0
H2167 H 0.85518 0.4379 0.50812 0.0
C2168 C 0.7446 0.91301 0.79771 0.0
C2169 C 0.75813 0.91724 0.81315 0.0
C2170 C 0.72792 0.92443 0.79499 0.0
C2171 C 0.72458 0.9403 0.80821 0.0
C2172 C 0.73882 0.94536 0.82312 0.0
C2173 C 0.75555 0.93378 0.82536 0.0
C2174 C 0.71326 0.91871 0.77872 0.0
C2175 C 0.73576 0.96213 0.83753 0.0
C2176 C 0.68243 0.97347 0.79423 0.0
C2177 C 0.66673 0.96429 0.80376 0.0
C2178 C 0.7016 0.96632 0.79608 0.0
C2179 C 0.7051 0.94977 0.80788 0.0
C2180 C 0.68946 0.94108 0.81827 0.0
C2181 C 0.67048 0.94837 0.81599 0.0
C2182 C 0.71789 0.9759 0.78472 0.0
C2183 C 0.69261 0.92355 0.83121 0.0
H2184 H 0.74677 0.90032 0.78815 0.0
H2185 H 0.76602 0.93698 0.83734 0.0
H2186 H 0.69972 0.9125 0.78521 0.0
H2187 H 0.70901 0.93182 0.77028 0.0
H2188 H 0.71912 0.90757 0.76835 0.0
H2189 H 0.74932 0.96593 0.84634 0.0
H2190 H 0.7309 0.97541 0.82972 0.0
H2191 H 0.72399 0.95794 0.84777 0.0
H2192 H 0.67963 0.98579 0.78475 0.0
H2193 H 0.65847 0.94135 0.82359 0.0
H2194 H 0.72244 0.96571 0.77279 0.0
H2195 H 0.73097 0.97894 0.79445 0.0
H2196 H 0.71328 0.98988 0.778 0.0
H2197 H 0.6967 0.91067 0.82201 0.0
H2198 H 0.67927 0.91951 0.83947 0.0
H2199 H 0.7049 0.92665 0.84192 0.0
C2200 C 0.6382 0.55011 0.94851 0.0
C2201 C 0.64121 0.52992 0.94589 0.0
C2202 C 0.65422 0.56341 0.95077 0.0
C2203 C 0.67359 0.5562 0.95086 0.0
C2204 C 0.67662 0.53574 0.94863 0.0
C2205 C 0.66037 0.52287 0.94595 0.0
C2206 C 0.65046 0.58515 0.95271 0.0
C2207 C 0.69702 0.52744 0.94903 0.0
C2208 C 0.71778 0.58784 0.93796 0.0
C2209 C 0.72604 0.59246 0.95662 0.0
C2210 C 0.70014 0.57686 0.93591 0.0
C2211 C 0.69081 0.56996 0.95293 0.0
C2212 C 0.69878 0.57506 0.97184 0.0
C2213 C 0.71621 0.58645 0.97346 0.0
C2214 C 0.69184 0.57211 0.91551 0.0
C2215 C 0.68943 0.56768 0.99032 0.0
H2216 H 0.62333 0.55551 0.94834 0.0
H2217 H 0.66261 0.5072 0.94411 0.0
H2218 H 0.65717 0.59118 0.96666 0.0
H2219 H 0.65746 0.59305 0.94048 0.0
H2220 H 0.63451 0.58834 0.95247 0.0
H2221 H 0.69678 0.51111 0.94794 0.0
H2222 H 0.70553 0.53329 0.93662 0.0
H2223 H 0.70496 0.5321 0.96287 0.0
H2224 H 0.72525 0.59263 0.9249 0.0
H2225 H 0.7226 0.58992 0.98793 0.0
H2226 H 0.67605 0.57579 0.91456 0.0
H2227 H 0.69288 0.5561 0.91235 0.0
H2228 H 0.69976 0.58019 0.90394 0.0
H2229 H 0.67364 0.57136 0.99041 0.0
H2230 H 0.69674 0.57399 0.0039 0.0
H2231 H 0.6903 0.55141 0.99067 0.0
C2232 C 0.18592 0.63534 0.2547 0.0
C2233 C 0.20053 0.63449 0.24052 0.0
C2234 C 0.17378 0.61886 0.25824 0.0
C2235 C 0.17625 0.60123 0.24721 0.0
C2236 C 0.19067 0.60047 0.23256 0.0
C2237 C 0.20267 0.61709 0.22944 0.0
C2238 C 0.15864 0.62018 0.27407 0.0
C2239 C 0.19363 0.582 0.22036 0.0
C2240 C 0.16067 0.55201 0.26793 0.0
C2241 C 0.14294 0.54793 0.25754 0.0
C2242 C 0.17138 0.56955 0.26508 0.0
C2243 C 0.16427 0.58329 0.2514 0.0
C2244 C 0.1462 0.57945 0.24113 0.0
C2245 C 0.13571 0.56184 0.24437 0.0
C2246 C 0.19052 0.57318 0.27641 0.0
C2247 C 0.13821 0.59371 0.22635 0.0
H2248 H 0.18432 0.64873 0.26338 0.0
H2249 H 0.21376 0.61648 0.21826 0.0
H2250 H 0.14386 0.61604 0.26787 0.0
H2251 H 0.16208 0.60962 0.28584 0.0
H2252 H 0.15806 0.63518 0.28079 0.0
H2253 H 0.20497 0.58407 0.20904 0.0
H2254 H 0.19818 0.56989 0.23006 0.0
H2255 H 0.17961 0.57725 0.21286 0.0
H2256 H 0.16631 0.54141 0.27821 0.0
H2257 H 0.12203 0.5588 0.23627 0.0
H2258 H 0.19031 0.58758 0.28438 0.0
H2259 H 0.20286 0.57384 0.26604 0.0
H2260 H 0.1935 0.56151 0.28723 0.0
H2261 H 0.13699 0.60853 0.23329 0.0
H2262 H 0.12354 0.58897 0.22023 0.0
H2263 H 0.1485 0.59514 0.21401 0.0
C2264 C 0.87274 0.5079 0.01601 0.0
C2265 C 0.88989 0.51356 0.02663 0.0
C2266 C 0.85922 0.52194 0.00989 0.0
C2267 C 0.86323 0.54214 0.01411 0.0
C2268 C 0.88044 0.5479 0.02508 0.0
C2269 C 0.89348 0.53349 0.03138 0.0
C2270 C 0.84085 0.5152 0.99856 0.0
C2271 C 0.88541 0.56931 0.02952 0.0
C2272 C 0.83941 0.5772 0.97854 0.0
C2273 C 0.82354 0.58396 0.98935 0.0
C2274 C 0.85281 0.56411 0.98671 0.0
C2275 C 0.85 0.55725 0.006 0.0
C2276 C 0.83418 0.56427 0.01713 0.0
C2277 C 0.82123 0.57774 0.00873 0.0
C2278 C 0.86976 0.55731 0.97453 0.0
C2279 C 0.83053 0.55703 0.03762 0.0
H2280 H 0.86993 0.49245 0.0125 0.0
H2281 H 0.90685 0.53783 0.03948 0.0
H2282 H 0.82767 0.52136 0.00551 0.0
H2283 H 0.84126 0.52072 0.98332 0.0
H2284 H 0.83918 0.4989 0.99783 0.0
H2285 H 0.89888 0.57126 0.03897 0.0
H2286 H 0.88769 0.57713 0.01555 0.0
H2287 H 0.87304 0.57643 0.037 0.0
H2288 H 0.84133 0.58211 0.9636 0.0
H2289 H 0.80889 0.58283 0.01708 0.0
H2290 H 0.86815 0.54128 0.97134 0.0
H2291 H 0.88385 0.55976 0.98286 0.0
H2292 H 0.87062 0.56506 0.96032 0.0
H2293 H 0.82722 0.54097 0.03697 0.0
H2294 H 0.81808 0.56454 0.04462 0.0
H2295 H 0.84389 0.55935 0.04712 0.0
C2296 C 0.10753 0.94831 0.00687 0.0
C2297 C 0.10937 0.96411 0.02046 0.0
C2298 C 0.1227 0.93479 0.00467 0.0
C2299 C 0.14013 0.93708 0.01637 0.0
C2300 C 0.14212 0.95304 0.03005 0.0
C2301 C 0.12676 0.96636 0.0319 0.0
C2302 C 0.12001 0.91798 0.98993 0.0
C2303 C 0.16049 0.95603 0.04277 0.0
C2304 C 0.17247 0.89298 0.02506 0.0
C2305 C 0.18787 0.89648 0.01211 0.0
C2306 C 0.15671 0.90591 0.02638 0.0
C2307 C 0.15628 0.92274 0.01444 0.0
C2308 C 0.17157 0.92616 0.00107 0.0
C2309 C 0.18717 0.91302 8e-05 0.0
C2310 C 0.1407 0.90176 0.04085 0.0
C2311 C 0.17161 0.94389 0.98803 0.0
H2312 H 0.09407 0.94629 0.99816 0.0
H2313 H 0.12846 0.97868 0.04221 0.0
H2314 H 0.13205 0.91833 0.97921 0.0
H2315 H 0.1208 0.90375 0.99759 0.0
H2316 H 0.10573 0.91846 0.98171 0.0
H2317 H 0.15973 0.96917 0.05269 0.0
H2318 H 0.16286 0.9429 0.05189 0.0
H2319 H 0.17349 0.95777 0.03336 0.0
H2320 H 0.17284 0.88026 0.03442 0.0
H2321 H 0.19897 0.91585 0.99 0.0
H2322 H 0.12615 0.90107 0.03311 0.0
H2323 H 0.14032 0.9139 0.05198 0.0
H2324 H 0.14286 0.88772 0.04862 0.0
H2325 H 0.15775 0.94414 0.9791 0.0
H2326 H 0.1842 0.94407 0.97792 0.0
H2327 H 0.17233 0.95756 0.99724 0.0
loop_
_geom_bond_atom_site_label_1
_geom_bond_atom_site_label_2
_geom_bond_distance
_geom_bond_site_symmetry_2
_ccdc_geom_bond_type
C0 C1 1.386 . S
C0 C2 1.397 . S
C0 H24 0.931 . S
C1 C0 1.386 . S
C1 C5 1.397 1_556 S
C2 C0 1.397 . S
C2 C3 1.384 1_556 S
C2 H25 0.930 . S
C3 C2 1.384 1_554 S
C3 C4 1.377 . S
C3 C6 1.481 . S
C4 C3 1.377 . S
C4 C5 1.389 . S
C4 H26 0.929 . S
C5 C1 1.397 1_554 S
C5 C4 1.389 . S
C5 H27 0.931 . S
C6 C3 1.481 . S
C6 C7 1.387 . S
C6 C11 1.390 . S
C7 C6 1.387 . S
C7 C8 1.401 . S
C7 H28 0.930 . S
C8 C7 1.401 . S
C8 C9 1.376 . S
C8 C17 1.511 . S
C9 C8 1.376 . S
C9 C10 1.392 . S
C9 H30 0.931 . S
C10 C9 1.392 . S
C10 C11 1.361 . S
C10 C12 1.500 . S
C11 C6 1.390 . S
C11 C10 1.361 . S
C11 H29 0.931 . S
C12 C10 1.500 . S
C12 C13 1.371 . S
C12 C14 1.365 . S
C13 C12 1.371 . S
C13 C23 1.386 . S
C13 H31 0.931 . S
C14 C12 1.365 . S
C14 C15 1.409 1_455 S
C14 H32 0.929 . S
C15 C14 1.409 1_655 S
C15 C16 1.380 . S
C15 H33 0.930 . S
C16 C15 1.380 . S
C16 C23 1.357 1_655 S
C17 C8 1.511 . S
C17 C18 1.341 . S
C17 C19 1.371 . S
C18 C17 1.341 . S
C18 C22 1.394 . S
C18 H34 0.930 . S
C19 C17 1.371 . S
C19 C20 1.392 1_545 S
C19 H35 0.931 . S
C20 C19 1.392 1_565 S
C20 C21 1.331 . S
C20 H38 0.932 . S
C21 C20 1.331 . S
C21 C22 1.336 1_565 S
C22 C18 1.394 . S
C22 C21 1.336 1_545 S
C22 H37 0.929 . S
C23 C13 1.386 . S
C23 C16 1.357 1_455 S
C23 H36 0.965 1_455 S
H24 C0 0.931 . S
H25 C2 0.930 . S
H26 C4 0.929 . S
H27 C5 0.931 . S
H28 C7 0.930 . S
H29 C11 0.931 . S
H30 C9 0.931 . S
H31 C13 0.931 . S
H32 C14 0.929 . S
H33 C15 0.930 . S
H34 C18 0.930 . S
H35 C19 0.931 . S
H36 C23 0.965 1_655 S
H37 C22 0.929 . S
H38 C20 0.932 . S
C39 C40 1.386 . S
C39 C41 1.397 . S
C39 H63 0.931 . S
C40 C39 1.386 . S
C40 C44 1.397 . S
C41 C39 1.397 . S
C41 C42 1.384 . S
C41 H64 0.930 . S
C42 C41 1.384 . S
C42 C43 1.377 . S
C42 C45 1.481 . S
C43 C42 1.377 . S
C43 C44 1.389 . S
C43 H65 0.929 . S
C44 C40 1.397 . S
C44 C43 1.389 . S
C44 H66 0.931 . S
C45 C42 1.481 . S
C45 C46 1.387 . S
C45 C50 1.390 . S
C46 C45 1.387 . S
C46 C47 1.401 . S
C46 H67 0.930 . S
C47 C46 1.401 . S
C47 C48 1.376 . S
C47 C56 1.511 . S
C48 C47 1.376 . S
C48 C49 1.392 . S
C48 H69 0.931 . S
C49 C48 1.392 . S
C49 C50 1.361 . S
C49 C51 1.500 . S
C50 C45 1.390 . S
C50 C49 1.361 . S
C50 H68 0.931 . S
C51 C49 1.500 . S
C51 C52 1.371 . S
C51 C53 1.365 . S
C52 C51 1.371 . S
C52 C62 1.386 . S
C52 H70 0.931 . S
C53 C51 1.365 . S
C53 C54 1.409 . S
C53 H71 0.929 . S
C54 C53 1.409 . S
C54 C55 1.380 . S
C54 H72 0.930 . S
C55 C54 1.380 . S
C55 C62 1.357 . S
C56 C47 1.511 . S
C56 C57 1.341 . S
C56 C58 1.371 . S
C57 C56 1.341 . S
C57 C61 1.394 . S
C57 H73 0.930 . S
C58 C56 1.371 . S
C58 C59 1.392 . S
C58 H74 0.931 . S
C59 C58 1.392 . S
C59 C60 1.331 . S
C59 H77 0.932 . S
C60 C59 1.331 . S
C60 C61 1.336 . S
C61 C57 1.394 . S
C61 C60 1.336 . S
C61 H76 0.929 . S
C62 C52 1.386 . S
C62 C55 1.357 . S
C62 H75 0.928 . S
H63 C39 0.931 . S
H64 C41 0.930 . S
H65 C43 0.929 . S
H66 C44 0.931 . S
H67 C46 0.930 . S
H68 C50 0.931 . S
H69 C48 0.931 . S
H70 C52 0.931 . S
H71 C53 0.929 . S
H72 C54 0.930 . S
H73 C57 0.930 . S
H74 C58 0.931 . S
H75 C62 0.928 . S
H76 C61 0.929 . S
H77 C59 0.932 . S
C78 C79 1.386 1_655 S
C78 C80 1.397 . S
C78 H102 0.931 . S
C79 C78 1.386 1_455 S
C79 C83 1.397 . S
C80 C78 1.397 . S
C80 C81 1.384 . S
C80 H103 0.930 . S
C81 C80 1.384 . S
C81 C82 1.377 . S
C81 C84 1.481 . S
C82 C81 1.377 . S
C82 C83 1.389 1_655 S
C82 H104 0.929 1_655 S
C83 C79 1.397 . S
C83 C82 1.389 1_455 S
C83 H105 0.931 . S
C84 C81 1.481 . S
C84 C85 1.387 . S
C84 C89 1.390 . S
C85 C84 1.387 . S
C85 C86 1.401 . S
C85 H106 0.930 . S
C86 C85 1.401 . S
C86 C87 1.376 . S
C86 C95 1.511 . S
C87 C86 1.376 . S
C87 C88 1.392 . S
C87 H108 0.931 . S
C88 C87 1.392 . S
C88 C89 1.361 . S
C88 C90 1.500 . S
C89 C84 1.390 . S
C89 C88 1.361 . S
C89 H107 0.931 . S
C90 C88 1.500 . S
C90 C91 1.371 . S
C90 C92 1.365 . S
C91 C90 1.371 . S
C91 C101 1.386 . S
C91 H109 0.931 . S
C92 C90 1.365 . S
C92 C93 1.409 . S
C92 H110 0.929 . S
C93 C92 1.409 . S
C93 C94 1.380 . S
C93 H111 0.930 . S
C94 C93 1.380 . S
C94 C101 1.357 . S
C95 C86 1.511 . S
C95 C96 1.341 . S
C95 C97 1.371 . S
C96 C95 1.341 . S
C96 C100 1.394 . S
C96 H112 0.930 . S
C97 C95 1.371 . S
C97 C98 1.392 . S
C97 H113 0.931 . S
C98 C97 1.392 . S
C98 C99 1.331 . S
C98 H116 0.932 . S
C99 C98 1.331 . S
C99 C100 1.336 . S
C100 C96 1.394 . S
C100 C99 1.336 . S
C100 H115 0.929 . S
C101 C91 1.386 . S
C101 C94 1.357 . S
C101 H114 0.930 1_554 S
H102 C78 0.931 . S
H103 C80 0.930 . S
H104 C82 0.929 1_455 S
H105 C83 0.931 . S
H106 C85 0.930 . S
H107 C89 0.931 . S
H108 C87 0.931 . S
H109 C91 0.931 . S
H110 C92 0.929 . S
H111 C93 0.930 . S
H112 C96 0.930 . S
H113 C97 0.931 . S
H114 C101 0.930 1_556 S
H115 C100 0.929 . S
H116 C98 0.932 . S
C117 C118 1.386 . S
C117 C119 1.397 . S
C117 H141 0.931 . S
C118 C117 1.386 . S
C118 C122 1.397 . S
C119 C117 1.397 . S
C119 C120 1.384 . S
C119 H142 0.930 . S
C120 C119 1.384 . S
C120 C121 1.377 . S
C120 C123 1.481 . S
C121 C120 1.377 . S
C121 C122 1.389 . S
C121 H143 0.929 . S
C122 C118 1.397 . S
C122 C121 1.389 . S
C122 H144 0.931 . S
C123 C120 1.481 . S
C123 C124 1.387 . S
C123 C128 1.390 . S
C124 C123 1.387 . S
C124 C125 1.401 . S
C124 H145 0.930 . S
C125 C124 1.401 . S
C125 C126 1.376 . S
C125 C134 1.511 . S
C126 C125 1.376 . S
C126 C127 1.392 . S
C126 H147 0.931 . S
C127 C126 1.392 . S
C127 C128 1.361 . S
C127 C129 1.500 . S
C128 C123 1.390 . S
C128 C127 1.361 . S
C128 H146 0.931 . S
C129 C127 1.500 . S
C129 C130 1.371 . S
C129 C131 1.365 . S
C130 C129 1.371 . S
C130 C140 1.386 . S
C130 H148 0.931 . S
C131 C129 1.365 . S
C131 C132 1.409 . S
C131 H149 0.929 . S
C132 C131 1.409 . S
C132 C133 1.380 . S
C132 H150 0.930 . S
C133 C132 1.380 . S
C133 C140 1.357 . S
C134 C125 1.511 . S
C134 C135 1.341 . S
C134 C136 1.371 . S
C135 C134 1.341 . S
C135 C139 1.394 . S
C135 H151 0.930 . S
C136 C134 1.371 . S
C136 C137 1.392 . S
C136 H152 0.931 . S
C137 C136 1.392 . S
C137 C138 1.331 . S
C137 H155 0.932 . S
C138 C137 1.331 . S
C138 C139 1.336 . S
C139 C135 1.394 . S
C139 C138 1.336 . S
C139 H154 0.929 . S
C140 C130 1.386 . S
C140 C133 1.357 . S
C140 H153 0.928 . S
H141 C117 0.931 . S
H142 C119 0.930 . S
H143 C121 0.929 . S
H144 C122 0.931 . S
H145 C124 0.930 . S
H146 C128 0.931 . S
H147 C126 0.931 . S
H148 C130 0.931 . S
H149 C131 0.929 . S
H150 C132 0.930 . S
H151 C135 0.930 . S
H152 C136 0.931 . S
H153 C140 0.928 . S
H154 C139 0.929 . S
H155 C137 0.932 . S
C156 C157 1.386 1_655 S
C156 C158 1.397 1_655 S
C156 H180 0.931 . S
C157 C156 1.386 1_455 S
C157 C161 1.397 . S
C158 C156 1.397 1_455 S
C158 C159 1.384 . S
C158 H181 0.930 . S
C159 C158 1.384 . S
C159 C160 1.377 . S
C159 C162 1.481 . S
C160 C159 1.377 . S
C160 C161 1.389 . S
C160 H182 0.929 . S
C161 C157 1.397 . S
C161 C160 1.389 . S
C161 H183 0.931 . S
C162 C159 1.481 . S
C162 C163 1.387 . S
C162 C167 1.390 . S
C163 C162 1.387 . S
C163 C164 1.401 . S
C163 H184 0.930 . S
C164 C163 1.401 . S
C164 C165 1.376 . S
C164 C173 1.511 . S
C165 C164 1.376 . S
C165 C166 1.392 . S
C165 H186 0.931 . S
C166 C165 1.392 . S
C166 C167 1.361 . S
C166 C168 1.500 . S
C167 C162 1.390 . S
C167 C166 1.361 . S
C167 H185 0.931 . S
C168 C166 1.500 . S
C168 C169 1.371 . S
C168 C170 1.365 . S
C169 C168 1.371 . S
C169 C179 1.386 . S
C169 H187 0.931 . S
C170 C168 1.365 . S
C170 C171 1.409 . S
C170 H188 0.929 . S
C171 C170 1.409 . S
C171 C172 1.380 1_565 S
C171 H189 0.930 1_565 S
C172 C171 1.380 1_545 S
C172 C179 1.357 1_545 S
C173 C164 1.511 . S
C173 C174 1.341 . S
C173 C175 1.371 . S
C174 C173 1.341 . S
C174 C178 1.394 . S
C174 H190 0.930 . S
C175 C173 1.371 . S
C175 C176 1.392 . S
C175 H191 0.931 . S
C176 C175 1.392 . S
C176 C177 1.331 . S
C176 H194 0.932 . S
C177 C176 1.331 . S
C177 C178 1.336 . S
C178 C174 1.394 . S
C178 C177 1.336 . S
C178 H193 0.929 . S
C179 C169 1.386 . S
C179 C172 1.357 1_565 S
C179 H192 0.928 . S
H180 C156 0.931 . S
H181 C158 0.930 . S
H182 C160 0.929 . S
H183 C161 0.931 . S
H184 C163 0.930 . S
H185 C167 0.931 . S
H186 C165 0.931 . S
H187 C169 0.931 . S
H188 C170 0.929 . S
H189 C171 0.930 1_545 S
H190 C174 0.930 . S
H191 C175 0.931 . S
H192 C179 0.928 . S
H193 C178 0.929 . S
H194 C176 0.932 . S
C195 C196 1.386 . S
C195 C197 1.397 . S
C195 H219 0.931 . S
C196 C195 1.386 . S
C196 C200 1.397 . S
C197 C195 1.397 . S
C197 C198 1.384 . S
C197 H220 0.930 . S
C198 C197 1.384 . S
C198 C199 1.377 . S
C198 C201 1.481 . S
C199 C198 1.377 . S
C199 C200 1.389 . S
C199 H221 0.929 . S
C200 C196 1.397 . S
C200 C199 1.389 . S
C200 H222 0.931 . S
C201 C198 1.481 . S
C201 C202 1.387 . S
C201 C206 1.390 . S
C202 C201 1.387 . S
C202 C203 1.401 . S
C202 H223 0.930 . S
C203 C202 1.401 . S
C203 C204 1.376 . S
C203 C212 1.511 . S
C204 C203 1.376 . S
C204 C205 1.392 . S
C204 H225 0.931 . S
C205 C204 1.392 . S
C205 C206 1.361 . S
C205 C207 1.500 . S
C206 C201 1.390 . S
C206 C205 1.361 . S
C206 H224 0.931 . S
C207 C205 1.500 . S
C207 C208 1.371 . S
C207 C209 1.365 . S
C208 C207 1.371 . S
C208 C218 1.386 . S
C208 H226 0.931 . S
C209 C207 1.365 . S
C209 C210 1.409 . S
C209 H227 0.929 . S
C210 C209 1.409 . S
C210 C211 1.380 . S
C210 H228 0.930 . S
C211 C210 1.380 . S
C211 C218 1.357 . S
C212 C203 1.511 . S
C212 C213 1.341 . S
C212 C214 1.371 . S
C213 C212 1.341 . S
C213 C217 1.394 . S
C213 H229 0.930 . S
C214 C212 1.371 . S
C214 C215 1.392 . S
C214 H230 0.931 . S
C215 C214 1.392 . S
C215 C216 1.331 . S
C215 H233 0.932 . S
C216 C215 1.331 . S
C216 C217 1.336 . S
C217 C213 1.394 . S
C217 C216 1.336 . S
C217 H232 0.929 . S
C218 C208 1.386 . S
C218 C211 1.357 . S
C218 H231 0.928 . S
H219 C195 0.931 . S
H220 C197 0.930 . S
H221 C199 0.929 . S
H222 C200 0.931 . S
H223 C202 0.930 . S
H224 C206 0.931 . S
H225 C204 0.931 . S
H226 C208 0.931 . S
H227 C209 0.929 . S
H228 C210 0.930 . S
H229 C213 0.930 . S
H230 C214 0.931 . S
H231 C218 0.928 . S
H232 C217 0.929 . S
H233 C215 0.932 . S
C234 C235 1.386 . S
C234 C236 1.397 . S
C234 H258 0.931 . S
C235 C234 1.386 . S
C235 C239 1.397 . S
C236 C234 1.397 . S
C236 C237 1.384 . S
C236 H259 0.930 . S
C237 C236 1.384 . S
C237 C238 1.377 . S
C237 C240 1.481 . S
C238 C237 1.377 . S
C238 C239 1.389 . S
C238 H260 0.929 . S
C239 C235 1.397 . S
C239 C238 1.389 . S
C239 H261 0.931 . S
C240 C237 1.481 . S
C240 C241 1.387 . S
C240 C245 1.390 . S
C241 C240 1.387 . S
C241 C242 1.401 . S
C241 H262 0.930 . S
C242 C241 1.401 . S
C242 C243 1.376 . S
C242 C251 1.511 . S
C243 C242 1.376 . S
C243 C244 1.392 . S
C243 H264 0.931 . S
C244 C243 1.392 . S
C244 C245 1.361 . S
C244 C246 1.500 . S
C245 C240 1.390 . S
C245 C244 1.361 . S
C245 H263 0.931 . S
C246 C244 1.500 . S
C246 C247 1.371 . S
C246 C248 1.365 . S
C247 C246 1.371 . S
C247 C257 1.386 . S
C247 H265 0.931 . S
C248 C246 1.365 . S
C248 C249 1.409 . S
C248 H266 0.929 . S
C249 C248 1.409 . S
C249 C250 1.380 . S
C249 H267 0.930 . S
C250 C249 1.380 . S
C250 C257 1.357 . S
C251 C242 1.511 . S
C251 C252 1.341 . S
C251 C253 1.371 . S
C252 C251 1.341 . S
C252 C256 1.394 1_655 S
C252 H268 0.930 . S
C253 C251 1.371 . S
C253 C254 1.392 . S
C253 H269 0.931 . S
C254 C253 1.392 . S
C254 C255 1.331 1_655 S
C254 H272 0.932 . S
C255 C254 1.331 1_455 S
C255 C256 1.336 . S
C256 C252 1.394 1_455 S
C256 C255 1.336 . S
C256 H271 0.929 . S
C257 C247 1.386 . S
C257 C250 1.357 . S
C257 H270 0.928 . S
H258 C234 0.931 . S
H259 C236 0.930 . S
H260 C238 0.929 . S
H261 C239 0.931 . S
H262 C241 0.930 . S
H263 C245 0.931 . S
H264 C243 0.931 . S
H265 C247 0.931 . S
H266 C248 0.929 . S
H267 C249 0.930 . S
H268 C252 0.930 . S
H269 C253 0.931 . S
H270 C257 0.928 . S
H271 C256 0.929 . S
H272 C254 0.932 . S
C273 C274 1.386 . S
C273 C275 1.397 . S
C273 H297 0.931 . S
C274 C273 1.386 . S
C274 C278 1.397 . S
C275 C273 1.397 . S
C275 C276 1.384 . S
C275 H298 0.930 . S
C276 C275 1.384 . S
C276 C277 1.377 . S
C276 C279 1.481 . S
C277 C276 1.377 . S
C277 C278 1.389 . S
C277 H299 0.929 . S
C278 C274 1.397 . S
C278 C277 1.389 . S
C278 H300 0.931 . S
C279 C276 1.481 . S
C279 C280 1.387 . S
C279 C284 1.390 . S
C280 C279 1.387 . S
C280 C281 1.401 . S
C280 H301 0.930 . S
C281 C280 1.401 . S
C281 C282 1.376 . S
C281 C290 1.511 . S
C282 C281 1.376 . S
C282 C283 1.392 . S
C282 H303 0.931 . S
C283 C282 1.392 . S
C283 C284 1.361 . S
C283 C285 1.500 . S
C284 C279 1.390 . S
C284 C283 1.361 . S
C284 H302 0.931 . S
C285 C283 1.500 . S
C285 C286 1.371 . S
C285 C287 1.365 . S
C286 C285 1.371 . S
C286 C296 1.386 . S
C286 H304 0.931 . S
C287 C285 1.365 . S
C287 C288 1.409 . S
C287 H305 0.929 . S
C288 C287 1.409 . S
C288 C289 1.380 . S
C288 H306 0.930 . S
C289 C288 1.380 . S
C289 C296 1.357 . S
C290 C281 1.511 . S
C290 C291 1.341 . S
C290 C292 1.371 . S
C291 C290 1.341 . S
C291 C295 1.394 . S
C291 H307 0.930 . S
C292 C290 1.371 . S
C292 C293 1.392 . S
C292 H308 0.931 . S
C293 C292 1.392 . S
C293 C294 1.331 . S
C293 H311 0.932 . S
C294 C293 1.331 . S
C294 C295 1.336 . S
C295 C291 1.394 . S
C295 C294 1.336 . S
C295 H310 0.929 . S
C296 C286 1.386 . S
C296 C289 1.357 . S
C296 H309 0.928 . S
H297 C273 0.931 . S
H298 C275 0.930 . S
H299 C277 0.929 . S
H300 C278 0.931 . S
H301 C280 0.930 . S
H302 C284 0.931 . S
H303 C282 0.931 . S
H304 C286 0.931 . S
H305 C287 0.929 . S
H306 C288 0.930 . S
H307 C291 0.930 . S
H308 C292 0.931 . S
H309 C296 0.928 . S
H310 C295 0.929 . S
H311 C293 0.932 . S
C312 C313 1.386 . S
C312 C314 1.397 . S
C312 H336 0.931 . S
C313 C312 1.386 . S
C313 C317 1.397 . S
C314 C312 1.397 . S
C314 C315 1.384 . S
C314 H337 0.930 . S
C315 C314 1.384 . S
C315 C316 1.377 . S
C315 C318 1.481 . S
C316 C315 1.377 . S
C316 C317 1.389 . S
C316 H338 0.929 . S
C317 C313 1.397 . S
C317 C316 1.389 . S
C317 H339 0.931 . S
C318 C315 1.481 . S
C318 C319 1.387 . S
C318 C323 1.390 . S
C319 C318 1.387 . S
C319 C320 1.401 . S
C319 H340 0.930 . S
C320 C319 1.401 . S
C320 C321 1.376 . S
C320 C329 1.511 . S
C321 C320 1.376 . S
C321 C322 1.392 . S
C321 H342 0.931 . S
C322 C321 1.392 . S
C322 C323 1.361 . S
C322 C324 1.500 . S
C323 C318 1.390 . S
C323 C322 1.361 . S
C323 H341 0.931 . S
C324 C322 1.500 . S
C324 C325 1.371 . S
C324 C326 1.365 . S
C325 C324 1.371 . S
C325 C335 1.386 . S
C325 H343 0.931 . S
C326 C324 1.365 . S
C326 C327 1.409 . S
C326 H344 0.929 . S
C327 C326 1.409 . S
C327 C328 1.380 . S
C327 H345 0.930 . S
C328 C327 1.380 . S
C328 C335 1.357 . S
C329 C320 1.511 . S
C329 C330 1.341 . S
C329 C331 1.371 . S
C330 C329 1.341 . S
C330 C334 1.394 . S
C330 H346 0.930 . S
C331 C329 1.371 . S
C331 C332 1.392 . S
C331 H347 0.931 . S
C332 C331 1.392 . S
C332 C333 1.331 . S
C332 H350 0.932 . S
C333 C332 1.331 . S
C333 C334 1.336 . S
C334 C330 1.394 . S
C334 C333 1.336 . S
C334 H349 0.929 . S
C335 C325 1.386 . S
C335 C328 1.357 . S
C335 H348 0.928 . S
H336 C312 0.931 . S
H337 C314 0.930 . S
H338 C316 0.929 . S
H339 C317 0.931 . S
H340 C319 0.930 . S
H341 C323 0.931 . S
H342 C321 0.931 . S
H343 C325 0.931 . S
H344 C326 0.929 . S
H345 C327 0.930 . S
H346 C330 0.930 . S
H347 C331 0.931 . S
H348 C335 0.928 . S
H349 C334 0.929 . S
H350 C332 0.932 . S
C351 C352 1.386 . S
C351 C353 1.397 . S
C351 H375 0.931 . S
C352 C351 1.386 . S
C352 C356 1.397 . S
C353 C351 1.397 . S
C353 C354 1.384 . S
C353 H376 0.930 . S
C354 C353 1.384 . S
C354 C355 1.377 . S
C354 C357 1.481 . S
C355 C354 1.377 . S
C355 C356 1.389 . S
C355 H377 0.929 . S
C356 C352 1.397 . S
C356 C355 1.389 . S
C356 H378 0.931 . S
C357 C354 1.481 . S
C357 C358 1.387 . S
C357 C362 1.390 . S
C358 C357 1.387 . S
C358 C359 1.401 . S
C358 H379 0.930 . S
C359 C358 1.401 . S
C359 C360 1.376 . S
C359 C368 1.511 . S
C360 C359 1.376 . S
C360 C361 1.392 . S
C360 H381 0.931 . S
C361 C360 1.392 . S
C361 C362 1.361 . S
C361 C363 1.500 . S
C362 C357 1.390 . S
C362 C361 1.361 . S
C362 H380 0.931 . S
C363 C361 1.500 . S
C363 C364 1.371 . S
C363 C365 1.365 . S
C364 C363 1.371 . S
C364 C374 1.386 . S
C364 H382 0.931 . S
C365 C363 1.365 . S
C365 C366 1.409 . S
C365 H383 0.929 . S
C366 C365 1.409 . S
C366 C367 1.380 . S
C366 H384 0.930 . S
C367 C366 1.380 . S
C367 C374 1.357 . S
C368 C359 1.511 . S
C368 C369 1.341 . S
C368 C370 1.371 . S
C369 C368 1.341 . S
C369 C373 1.394 1_565 S
C369 H385 0.930 . S
C370 C368 1.371 . S
C370 C371 1.392 . S
C370 H386 0.931 . S
C371 C370 1.392 . S
C371 C372 1.331 1_565 S
C371 H389 0.932 . S
C372 C371 1.331 1_545 S
C372 C373 1.336 . S
C373 C369 1.394 1_545 S
C373 C372 1.336 . S
C373 H388 0.929 . S
C374 C364 1.386 . S
C374 C367 1.357 . S
C374 H387 0.928 . S
H375 C351 0.931 . S
H376 C353 0.930 . S
H377 C355 0.929 . S
H378 C356 0.931 . S
H379 C358 0.930 . S
H380 C362 0.931 . S
H381 C360 0.931 . S
H382 C364 0.931 . S
H383 C365 0.929 . S
H384 C366 0.930 . S
H385 C369 0.930 . S
H386 C370 0.931 . S
H387 C374 0.928 . S
H388 C373 0.929 . S
H389 C371 0.932 . S
C390 C391 1.386 . S
C390 C392 1.397 . S
C390 H414 0.931 . S
C391 C390 1.386 . S
C391 C395 1.397 . S
C392 C390 1.397 . S
C392 C393 1.384 . S
C392 H415 0.930 . S
C393 C392 1.384 . S
C393 C394 1.377 . S
C393 C396 1.481 . S
C394 C393 1.377 . S
C394 C395 1.389 . S
C394 H416 0.929 . S
C395 C391 1.397 . S
C395 C394 1.389 . S
C395 H417 0.931 . S
C396 C393 1.481 . S
C396 C397 1.387 . S
C396 C401 1.390 . S
C397 C396 1.387 . S
C397 C398 1.401 . S
C397 H418 0.930 . S
C398 C397 1.401 . S
C398 C399 1.376 . S
C398 C407 1.511 . S
C399 C398 1.376 . S
C399 C400 1.392 . S
C399 H420 0.931 . S
C400 C399 1.392 . S
C400 C401 1.361 . S
C400 C402 1.500 . S
C401 C396 1.390 . S
C401 C400 1.361 . S
C401 H419 0.931 . S
C402 C400 1.500 . S
C402 C403 1.371 . S
C402 C404 1.365 . S
C403 C402 1.371 . S
C403 C413 1.386 . S
C403 H421 0.931 . S
C404 C402 1.365 . S
C404 C405 1.409 . S
C404 H422 0.929 . S
C405 C404 1.409 . S
C405 C406 1.380 . S
C405 H423 0.930 . S
C406 C405 1.380 . S
C406 C413 1.357 . S
C407 C398 1.511 . S
C407 C408 1.341 . S
C407 C409 1.371 . S
C408 C407 1.341 . S
C408 C412 1.394 . S
C408 H424 0.930 . S
C409 C407 1.371 . S
C409 C410 1.392 . S
C409 H425 0.931 . S
C410 C409 1.392 . S
C410 C411 1.331 . S
C410 H428 0.932 . S
C411 C410 1.331 . S
C411 C412 1.336 . S
C412 C408 1.394 . S
C412 C411 1.336 . S
C412 H427 0.929 . S
C413 C403 1.386 . S
C413 C406 1.357 . S
C413 H426 0.928 . S
H414 C390 0.931 . S
H415 C392 0.930 . S
H416 C394 0.929 . S
H417 C395 0.931 . S
H418 C397 0.930 . S
H419 C401 0.931 . S
H420 C399 0.931 . S
H421 C403 0.931 . S
H422 C404 0.929 . S
H423 C405 0.930 . S
H424 C408 0.930 . S
H425 C409 0.931 . S
H426 C413 0.928 . S
H427 C412 0.929 . S
H428 C410 0.932 . S
C429 C430 1.386 . S
C429 C431 1.397 . S
C429 H453 0.931 . S
C430 C429 1.386 . S
C430 C434 1.397 . S
C431 C429 1.397 . S
C431 C432 1.384 . S
C431 H454 0.930 . S
C432 C431 1.384 . S
C432 C433 1.377 . S
C432 C435 1.481 . S
C433 C432 1.377 . S
C433 C434 1.389 . S
C433 H455 0.929 . S
C434 C430 1.397 . S
C434 C433 1.389 . S
C434 H456 0.931 . S
C435 C432 1.481 . S
C435 C436 1.387 . S
C435 C440 1.390 . S
C436 C435 1.387 . S
C436 C437 1.401 . S
C436 H457 0.930 . S
C437 C436 1.401 . S
C437 C438 1.376 . S
C437 C446 1.511 . S
C438 C437 1.376 . S
C438 C439 1.392 . S
C438 H459 0.931 . S
C439 C438 1.392 . S
C439 C440 1.361 . S
C439 C441 1.500 . S
C440 C435 1.390 . S
C440 C439 1.361 . S
C440 H458 0.931 . S
C441 C439 1.500 . S
C441 C442 1.371 . S
C441 C443 1.365 . S
C442 C441 1.371 . S
C442 C452 1.386 . S
C442 H460 0.931 . S
C443 C441 1.365 . S
C443 C444 1.409 . S
C443 H461 0.929 . S
C444 C443 1.409 . S
C444 C445 1.380 . S
C444 H462 0.930 . S
C445 C444 1.380 . S
C445 C452 1.357 . S
C446 C437 1.511 . S
C446 C447 1.341 . S
C446 C448 1.371 . S
C447 C446 1.341 . S
C447 C451 1.394 . S
C447 H463 0.930 . S
C448 C446 1.371 . S
C448 C449 1.392 . S
C448 H464 0.931 . S
C449 C448 1.392 . S
C449 C450 1.331 . S
C449 H467 0.932 . S
C450 C449 1.331 . S
C450 C451 1.336 . S
C451 C447 1.394 . S
C451 C450 1.336 . S
C451 H466 0.929 . S
C452 C442 1.386 . S
C452 C445 1.357 . S
C452 H465 0.928 . S
H453 C429 0.931 . S
H454 C431 0.930 . S
H455 C433 0.929 . S
H456 C434 0.931 . S
H457 C436 0.930 . S
H458 C440 0.931 . S
H459 C438 0.931 . S
H460 C442 0.931 . S
H461 C443 0.929 . S
H462 C444 0.930 . S
H463 C447 0.930 . S
H464 C448 0.931 . S
H465 C452 0.928 . S
H466 C451 0.929 . S
H467 C449 0.932 . S
C468 C469 1.386 . S
C468 C470 1.397 . S
C468 H492 0.931 . S
C469 C468 1.386 . S
C469 C473 1.397 . S
C470 C468 1.397 . S
C470 C471 1.384 . S
C470 H493 0.930 . S
C471 C470 1.384 . S
C471 C472 1.377 . S
C471 C474 1.481 . S
C472 C471 1.377 . S
C472 C473 1.389 . S
C472 H494 0.929 . S
C473 C469 1.397 . S
C473 C472 1.389 . S
C473 H495 0.931 . S
C474 C471 1.481 . S
C474 C475 1.387 . S
C474 C479 1.390 . S
C475 C474 1.387 . S
C475 C476 1.401 . S
C475 H496 0.930 . S
C476 C475 1.401 . S
C476 C477 1.376 . S
C476 C485 1.511 . S
C477 C476 1.376 . S
C477 C478 1.392 . S
C477 H498 0.931 . S
C478 C477 1.392 . S
C478 C479 1.361 . S
C478 C480 1.500 . S
C479 C474 1.390 . S
C479 C478 1.361 . S
C479 H497 0.931 . S
C480 C478 1.500 . S
C480 C481 1.371 . S
C480 C482 1.365 . S
C481 C480 1.371 . S
C481 C491 1.386 . S
C481 H499 0.931 . S
C482 C480 1.365 . S
C482 C483 1.409 . S
C482 H500 0.929 . S
C483 C482 1.409 . S
C483 C484 1.380 . S
C483 H501 0.930 . S
C484 C483 1.380 . S
C484 C491 1.357 . S
C485 C476 1.511 . S
C485 C486 1.341 . S
C485 C487 1.371 . S
C486 C485 1.341 . S
C486 C490 1.394 . S
C486 H502 0.930 . S
C487 C485 1.371 . S
C487 C488 1.392 . S
C487 H503 0.931 . S
C488 C487 1.392 . S
C488 C489 1.331 . S
C488 H506 0.932 . S
C489 C488 1.331 . S
C489 C490 1.336 . S
C490 C486 1.394 . S
C490 C489 1.336 . S
C490 H505 0.929 . S
C491 C481 1.386 . S
C491 C484 1.357 . S
C491 H504 0.928 . S
H492 C468 0.931 . S
H493 C470 0.930 . S
H494 C472 0.929 . S
H495 C473 0.931 . S
H496 C475 0.930 . S
H497 C479 0.931 . S
H498 C477 0.931 . S
H499 C481 0.931 . S
H500 C482 0.929 . S
H501 C483 0.930 . S
H502 C486 0.930 . S
H503 C487 0.931 . S
H504 C491 0.928 . S
H505 C490 0.929 . S
H506 C488 0.932 . S
C507 C508 1.386 . S
C507 C509 1.397 . S
C507 H531 0.931 . S
C508 C507 1.386 . S
C508 C512 1.397 . S
C509 C507 1.397 . S
C509 C510 1.384 . S
C509 H532 0.930 . S
C510 C509 1.384 . S
C510 C511 1.377 . S
C510 C513 1.481 . S
C511 C510 1.377 . S
C511 C512 1.389 . S
C511 H533 0.929 . S
C512 C508 1.397 . S
C512 C511 1.389 . S
C512 H534 0.931 . S
C513 C510 1.481 . S
C513 C514 1.387 . S
C513 C518 1.390 . S
C514 C513 1.387 . S
C514 C515 1.401 . S
C514 H535 0.930 . S
C515 C514 1.401 . S
C515 C516 1.376 . S
C515 C524 1.511 . S
C516 C515 1.376 . S
C516 C517 1.392 . S
C516 H537 0.931 . S
C517 C516 1.392 . S
C517 C518 1.361 . S
C517 C519 1.500 . S
C518 C513 1.390 . S
C518 C517 1.361 . S
C518 H536 0.931 . S
C519 C517 1.500 . S
C519 C520 1.371 . S
C519 C521 1.365 . S
C520 C519 1.371 . S
C520 C530 1.386 . S
C520 H538 0.931 . S
C521 C519 1.365 . S
C521 C522 1.409 . S
C521 H539 0.929 . S
C522 C521 1.409 . S
C522 C523 1.380 . S
C522 H540 0.930 . S
C523 C522 1.380 . S
C523 C530 1.357 . S
C524 C515 1.511 . S
C524 C525 1.341 . S
C524 C526 1.371 . S
C525 C524 1.341 . S
C525 C529 1.394 . S
C525 H541 0.930 . S
C526 C524 1.371 . S
C526 C527 1.392 1_556 S
C526 H542 0.931 . S
C527 C526 1.392 1_554 S
C527 C528 1.331 . S
C527 H545 0.932 . S
C528 C527 1.331 . S
C528 C529 1.336 1_554 S
C529 C525 1.394 . S
C529 C528 1.336 1_556 S
C529 H544 0.929 . S
C530 C520 1.386 . S
C530 C523 1.357 . S
C530 H543 0.942 . S
H531 C507 0.931 . S
H532 C509 0.930 . S
H533 C511 0.929 . S
H534 C512 0.931 . S
H535 C514 0.930 . S
H536 C518 0.931 . S
H537 C516 0.931 . S
H538 C520 0.931 . S
H539 C521 0.929 . S
H540 C522 0.930 . S
H541 C525 0.930 . S
H542 C526 0.931 . S
H543 C530 0.942 . S
H544 C529 0.929 . S
H545 C527 0.932 . S
C546 C547 1.386 . S
C546 C548 1.397 . S
C546 H570 0.931 . S
C547 C546 1.386 . S
C547 C551 1.397 . S
C548 C546 1.397 . S
C548 C549 1.384 . S
C548 H571 0.930 . S
C549 C548 1.384 . S
C549 C550 1.377 . S
C549 C552 1.481 . S
C550 C549 1.377 . S
C550 C551 1.389 . S
C550 H572 0.929 . S
C551 C547 1.397 . S
C551 C550 1.389 . S
C551 H573 0.931 . S
C552 C549 1.481 . S
C552 C553 1.387 . S
C552 C557 1.390 . S
C553 C552 1.387 . S
C553 C554 1.401 . S
C553 H574 0.930 . S
C554 C553 1.401 . S
C554 C555 1.376 . S
C554 C563 1.511 . S
C555 C554 1.376 . S
C555 C556 1.392 . S
C555 H576 0.931 . S
C556 C555 1.392 . S
C556 C557 1.361 . S
C556 C558 1.500 . S
C557 C552 1.390 . S
C557 C556 1.361 . S
C557 H575 0.931 . S
C558 C556 1.500 . S
C558 C559 1.371 . S
C558 C560 1.365 . S
C559 C558 1.371 . S
C559 C569 1.386 . S
C559 H577 0.931 . S
C560 C558 1.365 . S
C560 C561 1.409 . S
C560 H578 0.929 . S
C561 C560 1.409 . S
C561 C562 1.380 . S
C561 H579 0.930 . S
C562 C561 1.380 . S
C562 C569 1.357 . S
C563 C554 1.511 . S
C563 C564 1.341 . S
C563 C565 1.371 . S
C564 C563 1.341 . S
C564 C568 1.394 . S
C564 H580 0.930 . S
C565 C563 1.371 . S
C565 C566 1.392 . S
C565 H581 0.931 . S
C566 C565 1.392 . S
C566 C567 1.331 . S
C566 H584 0.932 . S
C567 C566 1.331 . S
C567 C568 1.336 . S
C568 C564 1.394 . S
C568 C567 1.336 . S
C568 H583 0.929 . S
C569 C559 1.386 . S
C569 C562 1.357 . S
C569 H582 0.928 . S
H570 C546 0.931 . S
H571 C548 0.930 . S
H572 C550 0.929 . S
H573 C551 0.931 . S
H574 C553 0.930 . S
H575 C557 0.931 . S
H576 C555 0.931 . S
H577 C559 0.931 . S
H578 C560 0.929 . S
H579 C561 0.930 . S
H580 C564 0.930 . S
H581 C565 0.931 . S
H582 C569 0.928 . S
H583 C568 0.929 . S
H584 C566 0.932 . S
C585 C586 1.386 1_556 S
C585 C587 1.397 . S
C585 H609 0.931 . S
C586 C585 1.386 1_554 S
C586 C590 1.397 . S
C587 C585 1.397 . S
C587 C588 1.384 . S
C587 H610 0.930 . S
C588 C587 1.384 . S
C588 C589 1.377 . S
C588 C591 1.481 . S
C589 C588 1.377 . S
C589 C590 1.389 1_556 S
C589 H611 0.929 1_556 S
C590 C586 1.397 . S
C590 C589 1.389 1_554 S
C590 H612 0.931 . S
C591 C588 1.481 . S
C591 C592 1.387 . S
C591 C596 1.390 . S
C592 C591 1.387 . S
C592 C593 1.401 . S
C592 H613 0.930 . S
C593 C592 1.401 . S
C593 C594 1.376 . S
C593 C602 1.511 . S
C594 C593 1.376 . S
C594 C595 1.392 . S
C594 H615 0.931 . S
C595 C594 1.392 . S
C595 C596 1.361 . S
C595 C597 1.500 . S
C596 C591 1.390 . S
C596 C595 1.361 . S
C596 H614 0.931 . S
C597 C595 1.500 . S
C597 C598 1.371 . S
C597 C599 1.365 . S
C598 C597 1.371 . S
C598 C608 1.386 . S
C598 H616 0.931 . S
C599 C597 1.365 . S
C599 C600 1.409 . S
C599 H617 0.929 . S
C600 C599 1.409 . S
C600 C601 1.380 . S
C600 H618 0.930 . S
C601 C600 1.380 . S
C601 C608 1.357 . S
C602 C593 1.511 . S
C602 C603 1.341 . S
C602 C604 1.371 . S
C603 C602 1.341 . S
C603 C607 1.394 . S
C603 H619 0.930 . S
C604 C602 1.371 . S
C604 C605 1.392 . S
C604 H620 0.931 . S
C605 C604 1.392 . S
C605 C606 1.331 . S
C605 H623 0.932 . S
C606 C605 1.331 . S
C606 C607 1.336 . S
C607 C603 1.394 . S
C607 C606 1.336 . S
C607 H622 0.929 . S
C608 C598 1.386 . S
C608 C601 1.357 . S
C608 H621 0.928 1_545 S
H609 C585 0.931 . S
H610 C587 0.930 . S
H611 C589 0.929 1_554 S
H612 C590 0.931 . S
H613 C592 0.930 . S
H614 C596 0.931 . S
H615 C594 0.931 . S
H616 C598 0.931 . S
H617 C599 0.929 . S
H618 C600 0.930 . S
H619 C603 0.930 . S
H620 C604 0.931 . S
H621 C608 0.928 1_565 S
H622 C607 0.929 . S
H623 C605 0.932 . S
Zn624 O627 2.060 . S
Zn624 O629 2.030 1_554 S
Zn624 O634 2.028 1_554 S
Zn625 O626 1.962 . S
Zn625 O628 1.986 . S
Zn625 O630 1.996 . S
Zn625 O633 1.943 1_554 S
O626 Zn625 1.962 . S
O626 C631 1.254 . S
O627 Zn624 2.060 . S
O627 C631 1.269 . S
O628 Zn625 1.986 . S
O628 C635 1.262 . S
O629 Zn624 2.030 1_556 S
O629 C637 1.260 . S
O630 Zn625 1.996 . S
O630 C637 1.257 1_554 S
C631 O626 1.254 . S
C631 O627 1.269 . S
C632 O633 1.249 . S
C632 O634 1.270 . S
O633 Zn625 1.943 1_556 S
O633 C632 1.249 . S
O634 Zn624 2.028 1_556 S
O634 C632 1.270 . S
C635 O628 1.262 . S
C635 O636 1.232 . S
O636 C635 1.232 . S
C637 O629 1.260 . S
C637 O630 1.257 1_556 S
Zn638 O641 2.031 . S
Zn638 O643 2.049 . S
Zn638 O648 2.067 . S
Zn639 O640 1.962 . S
Zn639 O642 1.986 . S
Zn639 O644 1.996 . S
Zn639 O647 1.943 . S
O640 Zn639 1.962 . S
O640 C645 1.254 . S
O641 Zn638 2.031 . S
O641 C645 1.269 . S
O642 Zn639 1.986 . S
O642 C649 1.262 . S
O643 Zn638 2.049 . S
O643 C651 1.260 . S
O644 Zn639 1.996 . S
O644 C651 1.257 . S
C645 O640 1.254 . S
C645 O641 1.269 . S
C646 O647 1.249 . S
C646 O648 1.270 . S
O647 Zn639 1.943 . S
O647 C646 1.249 . S
O648 Zn638 2.067 . S
O648 C646 1.270 . S
C649 O642 1.262 . S
C649 O650 1.232 . S
O650 C649 1.232 . S
C651 O643 1.260 . S
C651 O644 1.257 . S
Zn652 O655 2.031 . S
Zn652 O657 2.049 . S
Zn652 O662 2.067 . S
Zn653 O654 1.962 . S
Zn653 O656 1.986 . S
Zn653 O658 1.996 1_554 S
Zn653 O661 1.943 . S
O654 Zn653 1.962 . S
O654 C659 1.254 . S
O655 Zn652 2.031 . S
O655 C659 1.269 1_556 S
O656 Zn653 1.986 . S
O656 C663 1.262 . S
O657 Zn652 2.049 . S
O657 C665 1.260 . S
O658 Zn653 1.996 1_556 S
O658 C665 1.257 . S
C659 O654 1.254 . S
C659 O655 1.269 1_554 S
C660 O661 1.249 1_556 S
C660 O662 1.270 . S
O661 Zn653 1.943 . S
O661 C660 1.249 1_554 S
O662 Zn652 2.067 . S
O662 C660 1.270 . S
C663 O656 1.262 . S
C663 O664 1.232 . S
O664 C663 1.232 . S
C665 O657 1.260 . S
C665 O658 1.257 . S
Zn666 O669 2.050 . S
Zn666 O671 2.036 1_545 S
Zn666 O676 2.041 1_545 S
Zn667 O668 1.962 . S
Zn667 O670 1.986 . S
Zn667 O672 1.996 . S
Zn667 O675 1.943 1_545 S
O668 Zn667 1.962 . S
O668 C673 1.254 . S
O669 Zn666 2.050 . S
O669 C673 1.269 . S
O670 Zn667 1.986 . S
O670 C677 1.262 . S
O671 Zn666 2.036 1_565 S
O671 C679 1.260 . S
O672 Zn667 1.996 . S
O672 C679 1.257 1_545 S
C673 O668 1.254 . S
C673 O669 1.269 . S
C674 O675 1.249 . S
C674 O676 1.270 . S
O675 Zn667 1.943 1_565 S
O675 C674 1.249 . S
O676 Zn666 2.041 1_565 S
O676 C674 1.270 . S
C677 O670 1.262 . S
C677 O678 1.232 . S
O678 C677 1.232 . S
C679 O671 1.260 . S
C679 O672 1.257 1_565 S
Zn680 O683 2.031 . S
Zn680 O685 2.049 . S
Zn680 O690 2.067 . S
Zn681 O682 1.962 . S
Zn681 O684 1.986 . S
Zn681 O686 1.996 . S
Zn681 O689 1.943 . S
O682 Zn681 1.962 . S
O682 C687 1.254 . S
O683 Zn680 2.031 . S
O683 C687 1.269 . S
O684 Zn681 1.986 . S
O684 C691 1.262 . S
O685 Zn680 2.049 . S
O685 C693 1.260 . S
O686 Zn681 1.996 . S
O686 C693 1.257 . S
C687 O682 1.254 . S
C687 O683 1.269 . S
C688 O689 1.249 . S
C688 O690 1.270 . S
O689 Zn681 1.943 . S
O689 C688 1.249 . S
O690 Zn680 2.067 . S
O690 C688 1.270 . S
C691 O684 1.262 . S
C691 O692 1.232 . S
O692 C691 1.232 . S
C693 O685 1.260 . S
C693 O686 1.257 . S
Zn694 O697 2.031 . S
Zn694 O699 2.049 . S
Zn694 O704 2.067 . S
Zn695 O696 1.962 . S
Zn695 O698 1.986 . S
Zn695 O700 1.996 . S
Zn695 O703 1.943 . S
O696 Zn695 1.962 . S
O696 C701 1.254 . S
O697 Zn694 2.031 . S
O697 C701 1.269 . S
O698 Zn695 1.986 . S
O698 C705 1.262 . S
O699 Zn694 2.049 . S
O699 C707 1.260 . S
O700 Zn695 1.996 . S
O700 C707 1.257 . S
C701 O696 1.254 . S
C701 O697 1.269 . S
C702 O703 1.249 . S
C702 O704 1.270 . S
O703 Zn695 1.943 . S
O703 C702 1.249 . S
O704 Zn694 2.067 . S
O704 C702 1.270 . S
C705 O698 1.262 . S
C705 O706 1.232 . S
O706 C705 1.232 . S
C707 O699 1.260 . S
C707 O700 1.257 . S
Zn708 O711 2.031 . S
Zn708 O713 2.049 . S
Zn708 O718 2.067 . S
Zn709 O710 1.962 . S
Zn709 O712 1.986 . S
Zn709 O714 1.996 . S
Zn709 O717 1.943 . S
O710 Zn709 1.962 . S
O710 C715 1.254 . S
O711 Zn708 2.031 . S
O711 C715 1.269 . S
O712 Zn709 1.986 . S
O712 C719 1.262 . S
O713 Zn708 2.049 . S
O713 C721 1.260 . S
O714 Zn709 1.996 . S
O714 C721 1.257 . S
C715 O710 1.254 . S
C715 O711 1.269 . S
C716 O717 1.249 . S
C716 O718 1.270 . S
O717 Zn709 1.943 . S
O717 C716 1.249 . S
O718 Zn708 2.067 . S
O718 C716 1.270 . S
C719 O712 1.262 . S
C719 O720 1.232 . S
O720 C719 1.232 . S
C721 O713 1.260 . S
C721 O714 1.257 . S
Zn722 O725 2.031 . S
Zn722 O727 2.049 . S
Zn722 O732 2.067 . S
Zn723 O724 1.962 . S
Zn723 O726 1.986 . S
Zn723 O728 1.996 1_545 S
Zn723 O731 1.943 . S
O724 Zn723 1.962 . S
O724 C729 1.254 . S
O725 Zn722 2.031 . S
O725 C729 1.269 1_565 S
O726 Zn723 1.986 . S
O726 C733 1.262 . S
O727 Zn722 2.049 . S
O727 C735 1.260 . S
O728 Zn723 1.996 1_565 S
O728 C735 1.257 . S
C729 O724 1.254 . S
C729 O725 1.269 1_545 S
C730 O731 1.249 1_565 S
C730 O732 1.270 . S
O731 Zn723 1.943 . S
O731 C730 1.249 1_545 S
O732 Zn722 2.067 . S
O732 C730 1.270 . S
C733 O726 1.262 . S
C733 O734 1.232 . S
O734 C733 1.232 . S
C735 O727 1.260 . S
C735 O728 1.257 . S
Zn736 O739 2.034 1_655 S
Zn736 O741 2.047 . S
Zn736 O746 2.063 . S
Zn737 O738 1.962 . S
Zn737 O740 1.986 . S
Zn737 O742 1.996 . S
Zn737 O745 1.943 1_455 S
O738 Zn737 1.962 . S
O738 C743 1.254 . S
O739 Zn736 2.034 1_455 S
O739 C743 1.269 . S
O740 Zn737 1.986 . S
O740 C747 1.262 . S
O741 Zn736 2.047 . S
O741 C749 1.260 . S
O742 Zn737 1.996 . S
O742 C749 1.257 1_455 S
C743 O738 1.254 . S
C743 O739 1.269 . S
C744 O745 1.249 . S
C744 O746 1.270 . S
O745 Zn737 1.943 1_655 S
O745 C744 1.249 . S
O746 Zn736 2.063 . S
O746 C744 1.270 . S
C747 O740 1.262 . S
C747 O748 1.232 . S
O748 C747 1.232 . S
C749 O741 1.260 . S
C749 O742 1.257 1_655 S
Zn750 O753 2.031 . S
Zn750 O755 2.049 . S
Zn750 O760 2.067 . S
Zn751 O752 1.962 . S
Zn751 O754 1.986 . S
Zn751 O756 1.996 . S
Zn751 O759 1.943 . S
O752 Zn751 1.962 . S
O752 C757 1.254 . S
O753 Zn750 2.031 . S
O753 C757 1.269 . S
O754 Zn751 1.986 . S
O754 C761 1.262 . S
O755 Zn750 2.049 . S
O755 C763 1.260 . S
O756 Zn751 1.996 . S
O756 C763 1.257 . S
C757 O752 1.254 . S
C757 O753 1.269 . S
C758 O759 1.249 . S
C758 O760 1.270 . S
O759 Zn751 1.943 . S
O759 C758 1.249 . S
O760 Zn750 2.067 . S
O760 C758 1.270 . S
C761 O754 1.262 . S
C761 O762 1.232 . S
O762 C761 1.232 . S
C763 O755 1.260 . S
C763 O756 1.257 . S
Zn764 O767 2.031 . S
Zn764 O769 2.049 . S
Zn764 O774 2.067 . S
Zn765 O766 1.962 . S
Zn765 O768 1.986 . S
Zn765 O770 1.996 1_455 S
Zn765 O773 1.943 . S
O766 Zn765 1.962 . S
O766 C771 1.254 . S
O767 Zn764 2.031 . S
O767 C771 1.269 1_655 S
O768 Zn765 1.986 . S
O768 C775 1.262 . S
O769 Zn764 2.049 . S
O769 C777 1.260 . S
O770 Zn765 1.996 1_655 S
O770 C777 1.257 . S
C771 O766 1.254 . S
C771 O767 1.269 1_455 S
C772 O773 1.249 1_655 S
C772 O774 1.270 . S
O773 Zn765 1.943 . S
O773 C772 1.249 1_455 S
O774 Zn764 2.067 . S
O774 C772 1.270 . S
C775 O768 1.262 . S
C775 O776 1.232 . S
O776 C775 1.232 . S
C777 O769 1.260 . S
C777 O770 1.257 . S
Zn778 O781 2.031 . S
Zn778 O783 2.049 . S
Zn778 O788 2.067 . S
Zn779 O780 1.962 . S
Zn779 O782 1.986 . S
Zn779 O784 1.996 . S
Zn779 O787 1.943 . S
O780 Zn779 1.962 . S
O780 C785 1.254 . S
O781 Zn778 2.031 . S
O781 C785 1.269 . S
O782 Zn779 1.986 . S
O782 C789 1.262 . S
O783 Zn778 2.049 . S
O783 C791 1.260 . S
O784 Zn779 1.996 . S
O784 C791 1.257 . S
C785 O780 1.254 . S
C785 O781 1.269 . S
C786 O787 1.249 . S
C786 O788 1.270 . S
O787 Zn779 1.943 . S
O787 C786 1.249 . S
O788 Zn778 2.067 . S
O788 C786 1.270 . S
C789 O782 1.262 . S
C789 O790 1.232 . S
O790 C789 1.232 . S
C791 O783 1.260 . S
C791 O784 1.257 . S
C792 C793 1.391 . S
C792 C794 1.394 . S
C792 H808 0.931 . S
C793 C792 1.391 . S
C793 C797 1.376 . S
C794 C792 1.394 . S
C794 C795 1.369 . S
C794 C798 1.531 . S
C795 C794 1.369 . S
C795 C796 1.410 . S
C795 C803 1.503 . S
C796 C795 1.410 . S
C796 C797 1.392 . S
C796 C799 1.511 . S
C797 C793 1.376 . S
C797 C796 1.392 . S
C797 H809 0.929 . S
C798 C794 1.531 . S
C798 H810 0.960 . S
C798 H811 0.962 . S
C798 H812 0.960 . S
C799 C796 1.511 . S
C799 H813 0.961 . S
C799 H814 0.961 . S
C799 H815 0.961 . S
C800 C801 1.370 . S
C800 C802 1.363 . S
C800 H816 0.931 . S
C801 C800 1.370 . S
C801 C805 1.408 . S
C802 C800 1.363 . S
C802 C803 1.370 . S
C802 C806 1.524 . S
C803 C795 1.503 . S
C803 C802 1.370 . S
C803 C804 1.403 . S
C804 C803 1.403 . S
C804 C805 1.404 . S
C804 C807 1.539 . S
C805 C801 1.408 . S
C805 C804 1.404 . S
C805 H817 0.930 . S
C806 C802 1.524 . S
C806 H818 0.956 . S
C806 H819 0.961 . S
C806 H820 0.961 . S
C807 C804 1.539 . S
C807 H821 0.958 . S
C807 H822 0.961 . S
C807 H823 0.960 . S
H808 C792 0.931 . S
H809 C797 0.929 . S
H810 C798 0.960 . S
H811 C798 0.962 . S
H812 C798 0.960 . S
H813 C799 0.961 . S
H814 C799 0.961 . S
H815 C799 0.961 . S
H816 C800 0.931 . S
H817 C805 0.930 . S
H818 C806 0.956 . S
H819 C806 0.961 . S
H820 C806 0.961 . S
H821 C807 0.958 . S
H822 C807 0.961 . S
H823 C807 0.960 . S
C824 C825 1.391 . S
C824 C826 1.394 . S
C824 H840 0.931 . S
C825 C824 1.391 . S
C825 C829 1.376 . S
C826 C824 1.394 . S
C826 C827 1.369 . S
C826 C830 1.531 . S
C827 C826 1.369 . S
C827 C828 1.410 . S
C827 C835 1.503 . S
C828 C827 1.410 . S
C828 C829 1.392 . S
C828 C831 1.511 . S
C829 C825 1.376 . S
C829 C828 1.392 . S
C829 H841 0.929 . S
C830 C826 1.531 . S
C830 H842 0.960 . S
C830 H843 0.962 . S
C830 H844 0.960 . S
C831 C828 1.511 . S
C831 H845 0.961 . S
C831 H846 0.961 . S
C831 H847 0.961 . S
C832 C833 1.370 . S
C832 C834 1.363 . S
C832 H848 0.931 . S
C833 C832 1.370 . S
C833 C837 1.408 . S
C834 C832 1.363 . S
C834 C835 1.370 . S
C834 C838 1.524 . S
C835 C827 1.503 . S
C835 C834 1.370 . S
C835 C836 1.403 . S
C836 C835 1.403 . S
C836 C837 1.404 . S
C836 C839 1.539 . S
C837 C833 1.408 . S
C837 C836 1.404 . S
C837 H849 0.930 . S
C838 C834 1.524 . S
C838 H850 0.956 . S
C838 H851 0.961 . S
C838 H852 0.961 . S
C839 C836 1.539 . S
C839 H853 0.958 . S
C839 H854 0.961 . S
C839 H855 0.960 . S
H840 C824 0.931 . S
H841 C829 0.929 . S
H842 C830 0.960 . S
H843 C830 0.962 . S
H844 C830 0.960 . S
H845 C831 0.961 . S
H846 C831 0.961 . S
H847 C831 0.961 . S
H848 C832 0.931 . S
H849 C837 0.930 . S
H850 C838 0.956 . S
H851 C838 0.961 . S
H852 C838 0.961 . S
H853 C839 0.958 . S
H854 C839 0.961 . S
H855 C839 0.960 . S
C856 C857 1.391 . S
C856 C858 1.394 . S
C856 H872 0.931 . S
C857 C856 1.391 . S
C857 C861 1.376 . S
C858 C856 1.394 . S
C858 C859 1.369 . S
C858 C862 1.531 . S
C859 C858 1.369 . S
C859 C860 1.410 . S
C859 C867 1.503 . S
C860 C859 1.410 . S
C860 C861 1.392 . S
C860 C863 1.511 . S
C861 C857 1.376 . S
C861 C860 1.392 . S
C861 H873 0.929 . S
C862 C858 1.531 . S
C862 H874 0.960 . S
C862 H875 0.962 . S
C862 H876 0.960 . S
C863 C860 1.511 . S
C863 H877 0.961 . S
C863 H878 0.961 . S
C863 H879 0.961 . S
C864 C865 1.370 . S
C864 C866 1.363 . S
C864 H880 0.931 . S
C865 C864 1.370 . S
C865 C869 1.408 . S
C866 C864 1.363 . S
C866 C867 1.370 . S
C866 C870 1.524 . S
C867 C859 1.503 . S
C867 C866 1.370 . S
C867 C868 1.403 . S
C868 C867 1.403 . S
C868 C869 1.404 . S
C868 C871 1.539 . S
C869 C865 1.408 . S
C869 C868 1.404 . S
C869 H881 0.930 . S
C870 C866 1.524 . S
C870 H882 0.956 . S
C870 H883 0.961 . S
C870 H884 0.961 . S
C871 C868 1.539 . S
C871 H885 0.958 . S
C871 H886 0.961 . S
C871 H887 0.960 . S
H872 C856 0.931 . S
H873 C861 0.929 . S
H874 C862 0.960 . S
H875 C862 0.962 . S
H876 C862 0.960 . S
H877 C863 0.961 . S
H878 C863 0.961 . S
H879 C863 0.961 . S
H880 C864 0.931 . S
H881 C869 0.930 . S
H882 C870 0.956 . S
H883 C870 0.961 . S
H884 C870 0.961 . S
H885 C871 0.958 . S
H886 C871 0.961 . S
H887 C871 0.960 . S
C888 C889 1.391 . S
C888 C890 1.394 . S
C888 H904 0.931 . S
C889 C888 1.391 . S
C889 C893 1.376 . S
C890 C888 1.394 . S
C890 C891 1.369 . S
C890 C894 1.531 . S
C891 C890 1.369 . S
C891 C892 1.410 . S
C891 C899 1.503 . S
C892 C891 1.410 . S
C892 C893 1.392 . S
C892 C895 1.511 1_565 S
C893 C889 1.376 . S
C893 C892 1.392 . S
C893 H905 0.929 . S
C894 C890 1.531 . S
C894 H906 0.960 . S
C894 H907 0.962 . S
C894 H908 0.960 . S
C895 C892 1.511 1_545 S
C895 H909 0.961 . S
C895 H910 0.961 . S
C895 H911 0.961 . S
C896 C897 1.370 . S
C896 C898 1.363 . S
C896 H912 0.931 . S
C897 C896 1.370 . S
C897 C901 1.408 . S
C898 C896 1.363 . S
C898 C899 1.370 . S
C898 C902 1.524 . S
C899 C891 1.503 . S
C899 C898 1.370 . S
C899 C900 1.403 . S
C900 C899 1.403 . S
C900 C901 1.404 . S
C900 C903 1.539 . S
C901 C897 1.408 . S
C901 C900 1.404 . S
C901 H913 0.930 . S
C902 C898 1.524 . S
C902 H914 0.956 . S
C902 H915 0.961 . S
C902 H916 0.961 . S
C903 C900 1.539 . S
C903 H917 0.958 . S
C903 H918 0.944 1_565 S
C903 H919 0.960 . S
H904 C888 0.931 . S
H905 C893 0.929 . S
H906 C894 0.960 . S
H907 C894 0.962 . S
H908 C894 0.960 . S
H909 C895 0.961 . S
H910 C895 0.961 . S
H911 C895 0.961 . S
H912 C896 0.931 . S
H913 C901 0.930 . S
H914 C902 0.956 . S
H915 C902 0.961 . S
H916 C902 0.961 . S
H917 C903 0.958 . S
H918 C903 0.944 1_545 S
H919 C903 0.960 . S
C920 C921 1.391 . S
C920 C922 1.394 . S
C920 H936 0.931 . S
C921 C920 1.391 . S
C921 C925 1.376 . S
C922 C920 1.394 . S
C922 C923 1.369 . S
C922 C926 1.531 . S
C923 C922 1.369 . S
C923 C924 1.410 . S
C923 C931 1.503 . S
C924 C923 1.410 . S
C924 C925 1.392 . S
C924 C927 1.511 . S
C925 C921 1.376 . S
C925 C924 1.392 . S
C925 H937 0.929 . S
C926 C922 1.531 . S
C926 H938 0.960 . S
C926 H939 0.962 . S
C926 H940 0.960 . S
C927 C924 1.511 . S
C927 H941 0.961 . S
C927 H942 0.961 . S
C927 H943 0.961 . S
C928 C929 1.370 . S
C928 C930 1.363 . S
C928 H944 0.931 . S
C929 C928 1.370 . S
C929 C933 1.408 . S
C930 C928 1.363 . S
C930 C931 1.370 . S
C930 C934 1.524 . S
C931 C923 1.503 . S
C931 C930 1.370 . S
C931 C932 1.403 . S
C932 C931 1.403 . S
C932 C933 1.404 . S
C932 C935 1.539 . S
C933 C929 1.408 . S
C933 C932 1.404 . S
C933 H945 0.930 . S
C934 C930 1.524 . S
C934 H946 0.956 . S
C934 H947 0.961 . S
C934 H948 0.961 . S
C935 C932 1.539 . S
C935 H949 0.958 . S
C935 H950 0.961 . S
C935 H951 0.960 . S
H936 C920 0.931 . S
H937 C925 0.929 . S
H938 C926 0.960 . S
H939 C926 0.962 . S
H940 C926 0.960 . S
H941 C927 0.961 . S
H942 C927 0.961 . S
H943 C927 0.961 . S
H944 C928 0.931 . S
H945 C933 0.930 . S
H946 C934 0.956 . S
H947 C934 0.961 . S
H948 C934 0.961 . S
H949 C935 0.958 . S
H950 C935 0.961 . S
H951 C935 0.960 . S
C952 C953 1.391 . S
C952 C954 1.394 . S
C952 H968 0.931 . S
C953 C952 1.391 . S
C953 C957 1.376 . S
C954 C952 1.394 . S
C954 C955 1.369 . S
C954 C958 1.531 . S
C955 C954 1.369 . S
C955 C956 1.410 . S
C955 C963 1.503 . S
C956 C955 1.410 . S
C956 C957 1.392 . S
C956 C959 1.511 . S
C957 C953 1.376 . S
C957 C956 1.392 . S
C957 H969 0.929 . S
C958 C954 1.531 . S
C958 H970 0.960 . S
C958 H971 0.962 . S
C958 H972 0.960 . S
C959 C956 1.511 . S
C959 H973 0.961 . S
C959 H974 0.961 . S
C959 H975 0.961 . S
C960 C961 1.370 . S
C960 C962 1.363 . S
C960 H976 0.931 . S
C961 C960 1.370 . S
C961 C965 1.408 . S
C962 C960 1.363 . S
C962 C963 1.370 . S
C962 C966 1.524 . S
C963 C955 1.503 . S
C963 C962 1.370 . S
C963 C964 1.403 . S
C964 C963 1.403 . S
C964 C965 1.404 . S
C964 C967 1.539 . S
C965 C961 1.408 . S
C965 C964 1.404 . S
C965 H977 0.930 . S
C966 C962 1.524 . S
C966 H978 0.956 . S
C966 H979 0.961 . S
C966 H980 0.961 . S
C967 C964 1.539 . S
C967 H981 0.958 . S
C967 H982 0.961 . S
C967 H983 0.960 . S
H968 C952 0.931 . S
H969 C957 0.929 . S
H970 C958 0.960 . S
H971 C958 0.962 . S
H972 C958 0.960 . S
H973 C959 0.961 . S
H974 C959 0.961 . S
H975 C959 0.961 . S
H976 C960 0.931 . S
H977 C965 0.930 . S
H978 C966 0.956 . S
H979 C966 0.961 . S
H980 C966 0.961 . S
H981 C967 0.958 . S
H982 C967 0.961 . S
H983 C967 0.960 . S
C984 C985 1.391 . S
C984 C986 1.394 . S
C984 H1000 0.931 . S
C985 C984 1.391 . S
C985 C989 1.376 . S
C986 C984 1.394 . S
C986 C987 1.369 . S
C986 C990 1.531 . S
C987 C986 1.369 . S
C987 C988 1.410 . S
C987 C995 1.503 . S
C988 C987 1.410 . S
C988 C989 1.392 . S
C988 C991 1.511 . S
C989 C985 1.376 . S
C989 C988 1.392 . S
C989 H1001 0.929 . S
C990 C986 1.531 . S
C990 H1002 0.960 . S
C990 H1003 0.962 . S
C990 H1004 0.960 . S
C991 C988 1.511 . S
C991 H1005 0.961 . S
C991 H1006 0.961 . S
C991 H1007 0.961 . S
C992 C993 1.370 . S
C992 C994 1.363 . S
C992 H1008 0.931 . S
C993 C992 1.370 . S
C993 C997 1.408 . S
C994 C992 1.363 . S
C994 C995 1.370 . S
C994 C998 1.524 . S
C995 C987 1.503 . S
C995 C994 1.370 . S
C995 C996 1.403 . S
C996 C995 1.403 . S
C996 C997 1.404 . S
C996 C999 1.539 . S
C997 C993 1.408 . S
C997 C996 1.404 . S
C997 H1009 0.930 . S
C998 C994 1.524 . S
C998 H1010 0.956 . S
C998 H1011 0.961 . S
C998 H1012 0.961 . S
C999 C996 1.539 . S
C999 H1013 0.958 . S
C999 H1014 0.961 . S
C999 H1015 0.960 . S
H1000 C984 0.931 . S
H1001 C989 0.929 . S
H1002 C990 0.960 . S
H1003 C990 0.962 . S
H1004 C990 0.960 . S
H1005 C991 0.961 . S
H1006 C991 0.961 . S
H1007 C991 0.961 . S
H1008 C992 0.931 . S
H1009 C997 0.930 . S
H1010 C998 0.956 . S
H1011 C998 0.961 . S
H1012 C998 0.961 . S
H1013 C999 0.958 . S
H1014 C999 0.961 . S
H1015 C999 0.960 . S
C1016 C1017 1.391 . S
C1016 C1018 1.394 . S
C1016 H1032 0.908 1_565 S
C1017 C1016 1.391 . S
C1017 C1021 1.376 . S
C1018 C1016 1.394 . S
C1018 C1019 1.369 . S
C1018 C1022 1.531 1_565 S
C1019 C1018 1.369 . S
C1019 C1020 1.410 . S
C1019 C1027 1.503 . S
C1020 C1019 1.410 . S
C1020 C1021 1.392 . S
C1020 C1023 1.511 . S
C1021 C1017 1.376 . S
C1021 C1020 1.392 . S
C1021 H1033 0.929 . S
C1022 C1018 1.531 1_545 S
C1022 H1034 0.960 . S
C1022 H1035 0.962 . S
C1022 H1036 0.960 . S
C1023 C1020 1.511 . S
C1023 H1037 0.961 . S
C1023 H1038 0.961 . S
C1023 H1039 0.961 . S
C1024 C1025 1.370 . S
C1024 C1026 1.363 . S
C1024 H1040 0.931 . S
C1025 C1024 1.370 . S
C1025 C1029 1.408 1_565 S
C1026 C1024 1.363 . S
C1026 C1027 1.370 . S
C1026 C1030 1.524 . S
C1027 C1019 1.503 . S
C1027 C1026 1.370 . S
C1027 C1028 1.404 1_565 S
C1028 C1027 1.404 1_545 S
C1028 C1029 1.404 . S
C1028 C1031 1.539 . S
C1029 C1025 1.408 1_545 S
C1029 C1028 1.404 . S
C1029 H1041 0.930 . S
C1030 C1026 1.524 . S
C1030 H1042 0.956 . S
C1030 H1043 0.961 . S
C1030 H1044 0.961 . S
C1031 C1028 1.539 . S
C1031 H1045 0.958 . S
C1031 H1046 0.961 . S
C1031 H1047 0.960 . S
H1032 C1016 0.908 1_545 S
H1033 C1021 0.929 . S
H1034 C1022 0.960 . S
H1035 C1022 0.962 . S
H1036 C1022 0.960 . S
H1037 C1023 0.961 . S
H1038 C1023 0.961 . S
H1039 C1023 0.961 . S
H1040 C1024 0.931 . S
H1041 C1029 0.930 . S
H1042 C1030 0.956 . S
H1043 C1030 0.961 . S
H1044 C1030 0.961 . S
H1045 C1031 0.958 . S
H1046 C1031 0.961 . S
H1047 C1031 0.960 . S
C1048 C1049 1.391 . S
C1048 C1050 1.394 . S
C1048 H1064 0.931 . S
C1049 C1048 1.391 . S
C1049 C1053 1.376 . S
C1050 C1048 1.394 . S
C1050 C1051 1.369 . S
C1050 C1054 1.531 . S
C1051 C1050 1.369 . S
C1051 C1052 1.410 . S
C1051 C1059 1.503 . S
C1052 C1051 1.410 . S
C1052 C1053 1.392 . S
C1052 C1055 1.511 . S
C1053 C1049 1.376 . S
C1053 C1052 1.392 . S
C1053 H1065 0.929 . S
C1054 C1050 1.531 . S
C1054 H1066 0.960 . S
C1054 H1067 0.962 . S
C1054 H1068 0.960 . S
C1055 C1052 1.511 . S
C1055 H1069 0.961 . S
C1055 H1070 0.961 . S
C1055 H1071 0.961 . S
C1056 C1057 1.370 . S
C1056 C1058 1.363 . S
C1056 H1072 0.931 . S
C1057 C1056 1.370 . S
C1057 C1061 1.408 . S
C1058 C1056 1.363 . S
C1058 C1059 1.370 . S
C1058 C1062 1.524 . S
C1059 C1051 1.503 . S
C1059 C1058 1.370 . S
C1059 C1060 1.403 . S
C1060 C1059 1.403 . S
C1060 C1061 1.404 . S
C1060 C1063 1.539 . S
C1061 C1057 1.408 . S
C1061 C1060 1.404 . S
C1061 H1073 0.930 . S
C1062 C1058 1.524 . S
C1062 H1074 0.956 . S
C1062 H1075 0.961 . S
C1062 H1076 0.961 . S
C1063 C1060 1.539 . S
C1063 H1077 0.958 . S
C1063 H1078 0.961 . S
C1063 H1079 0.960 . S
H1064 C1048 0.931 . S
H1065 C1053 0.929 . S
H1066 C1054 0.960 . S
H1067 C1054 0.962 . S
H1068 C1054 0.960 . S
H1069 C1055 0.961 . S
H1070 C1055 0.961 . S
H1071 C1055 0.961 . S
H1072 C1056 0.931 . S
H1073 C1061 0.930 . S
H1074 C1062 0.956 . S
H1075 C1062 0.961 . S
H1076 C1062 0.961 . S
H1077 C1063 0.958 . S
H1078 C1063 0.961 . S
H1079 C1063 0.960 . S
C1080 C1081 1.391 . S
C1080 C1082 1.394 . S
C1080 H1096 0.931 . S
C1081 C1080 1.391 . S
C1081 C1085 1.376 . S
C1082 C1080 1.394 . S
C1082 C1083 1.369 . S
C1082 C1086 1.531 . S
C1083 C1082 1.369 . S
C1083 C1084 1.410 . S
C1083 C1091 1.503 . S
C1084 C1083 1.410 . S
C1084 C1085 1.392 . S
C1084 C1087 1.511 . S
C1085 C1081 1.376 . S
C1085 C1084 1.392 . S
C1085 H1097 0.929 . S
C1086 C1082 1.531 . S
C1086 H1098 0.960 . S
C1086 H1099 0.962 . S
C1086 H1100 0.960 . S
C1087 C1084 1.511 . S
C1087 H1101 0.961 . S
C1087 H1102 0.961 . S
C1087 H1103 0.961 . S
C1088 C1089 1.370 . S
C1088 C1090 1.363 . S
C1088 H1104 0.931 . S
C1089 C1088 1.370 . S
C1089 C1093 1.408 . S
C1090 C1088 1.363 . S
C1090 C1091 1.370 . S
C1090 C1094 1.524 . S
C1091 C1083 1.503 . S
C1091 C1090 1.370 . S
C1091 C1092 1.403 . S
C1092 C1091 1.403 . S
C1092 C1093 1.404 . S
C1092 C1095 1.539 . S
C1093 C1089 1.408 . S
C1093 C1092 1.404 . S
C1093 H1105 0.930 . S
C1094 C1090 1.524 . S
C1094 H1106 0.956 . S
C1094 H1107 0.961 . S
C1094 H1108 0.961 . S
C1095 C1092 1.539 . S
C1095 H1109 0.958 . S
C1095 H1110 0.961 . S
C1095 H1111 0.960 . S
H1096 C1080 0.931 . S
H1097 C1085 0.929 . S
H1098 C1086 0.960 . S
H1099 C1086 0.962 . S
H1100 C1086 0.960 . S
H1101 C1087 0.961 . S
H1102 C1087 0.961 . S
H1103 C1087 0.961 . S
H1104 C1088 0.931 . S
H1105 C1093 0.930 . S
H1106 C1094 0.956 . S
H1107 C1094 0.961 . S
H1108 C1094 0.961 . S
H1109 C1095 0.958 . S
H1110 C1095 0.961 . S
H1111 C1095 0.960 . S
C1112 C1113 1.391 . S
C1112 C1114 1.394 . S
C1112 H1128 0.931 . S
C1113 C1112 1.391 . S
C1113 C1117 1.376 . S
C1114 C1112 1.394 . S
C1114 C1115 1.369 . S
C1114 C1118 1.531 . S
C1115 C1114 1.369 . S
C1115 C1116 1.410 . S
C1115 C1123 1.503 . S
C1116 C1115 1.410 . S
C1116 C1117 1.392 . S
C1116 C1119 1.511 . S
C1117 C1113 1.376 . S
C1117 C1116 1.392 . S
C1117 H1129 0.929 . S
C1118 C1114 1.531 . S
C1118 H1130 0.960 . S
C1118 H1131 0.962 . S
C1118 H1132 0.960 . S
C1119 C1116 1.511 . S
C1119 H1133 0.961 . S
C1119 H1134 0.961 . S
C1119 H1135 0.961 . S
C1120 C1121 1.370 . S
C1120 C1122 1.363 . S
C1120 H1136 0.931 . S
C1121 C1120 1.370 . S
C1121 C1125 1.408 . S
C1122 C1120 1.363 . S
C1122 C1123 1.370 . S
C1122 C1126 1.524 . S
C1123 C1115 1.503 . S
C1123 C1122 1.370 . S
C1123 C1124 1.403 . S
C1124 C1123 1.403 . S
C1124 C1125 1.404 . S
C1124 C1127 1.539 . S
C1125 C1121 1.408 . S
C1125 C1124 1.404 . S
C1125 H1137 0.930 . S
C1126 C1122 1.524 . S
C1126 H1138 0.956 . S
C1126 H1139 0.961 . S
C1126 H1140 0.961 . S
C1127 C1124 1.539 . S
C1127 H1141 0.958 . S
C1127 H1142 0.961 . S
C1127 H1143 0.960 . S
H1128 C1112 0.931 . S
H1129 C1117 0.929 . S
H1130 C1118 0.960 . S
H1131 C1118 0.962 . S
H1132 C1118 0.960 . S
H1133 C1119 0.961 . S
H1134 C1119 0.961 . S
H1135 C1119 0.961 . S
H1136 C1120 0.931 . S
H1137 C1125 0.930 . S
H1138 C1126 0.956 . S
H1139 C1126 0.961 . S
H1140 C1126 0.961 . S
H1141 C1127 0.958 . S
H1142 C1127 0.961 . S
H1143 C1127 0.960 . S
C1144 C1145 1.391 . S
C1144 C1146 1.394 . S
C1144 H1160 0.931 . S
C1145 C1144 1.391 . S
C1145 C1149 1.376 . S
C1146 C1144 1.394 . S
C1146 C1147 1.369 . S
C1146 C1150 1.531 . S
C1147 C1146 1.369 . S
C1147 C1148 1.410 . S
C1147 C1155 1.503 . S
C1148 C1147 1.410 . S
C1148 C1149 1.392 . S
C1148 C1151 1.511 . S
C1149 C1145 1.376 . S
C1149 C1148 1.392 . S
C1149 H1161 0.929 . S
C1150 C1146 1.531 . S
C1150 H1162 0.960 . S
C1150 H1163 0.962 . S
C1150 H1164 0.960 . S
C1151 C1148 1.511 . S
C1151 H1165 0.961 . S
C1151 H1166 0.961 . S
C1151 H1167 0.961 . S
C1152 C1153 1.370 . S
C1152 C1154 1.363 . S
C1152 H1168 0.931 . S
C1153 C1152 1.370 . S
C1153 C1157 1.408 . S
C1154 C1152 1.363 . S
C1154 C1155 1.370 . S
C1154 C1158 1.524 . S
C1155 C1147 1.503 . S
C1155 C1154 1.370 . S
C1155 C1156 1.403 . S
C1156 C1155 1.403 . S
C1156 C1157 1.404 . S
C1156 C1159 1.539 . S
C1157 C1153 1.408 . S
C1157 C1156 1.404 . S
C1157 H1169 0.930 . S
C1158 C1154 1.524 . S
C1158 H1170 0.956 . S
C1158 H1171 0.961 . S
C1158 H1172 0.961 . S
C1159 C1156 1.539 . S
C1159 H1173 0.958 . S
C1159 H1174 0.961 . S
C1159 H1175 0.960 . S
H1160 C1144 0.931 . S
H1161 C1149 0.929 . S
H1162 C1150 0.960 . S
H1163 C1150 0.962 . S
H1164 C1150 0.960 . S
H1165 C1151 0.961 . S
H1166 C1151 0.961 . S
H1167 C1151 0.961 . S
H1168 C1152 0.931 . S
H1169 C1157 0.930 . S
H1170 C1158 0.956 . S
H1171 C1158 0.961 . S
H1172 C1158 0.961 . S
H1173 C1159 0.958 . S
H1174 C1159 0.961 . S
H1175 C1159 0.960 . S
C1176 C1177 1.391 . S
C1176 C1178 1.394 . S
C1176 H1192 0.931 . S
C1177 C1176 1.391 . S
C1177 C1181 1.376 . S
C1178 C1176 1.394 . S
C1178 C1179 1.369 . S
C1178 C1182 1.531 . S
C1179 C1178 1.369 . S
C1179 C1180 1.410 . S
C1179 C1187 1.503 . S
C1180 C1179 1.410 . S
C1180 C1181 1.392 . S
C1180 C1183 1.511 . S
C1181 C1177 1.376 . S
C1181 C1180 1.392 . S
C1181 H1193 0.929 . S
C1182 C1178 1.531 . S
C1182 H1194 0.960 . S
C1182 H1195 0.962 . S
C1182 H1196 0.960 . S
C1183 C1180 1.511 . S
C1183 H1197 0.961 . S
C1183 H1198 0.961 . S
C1183 H1199 0.961 . S
C1184 C1185 1.370 . S
C1184 C1186 1.363 . S
C1184 H1200 0.931 . S
C1185 C1184 1.370 . S
C1185 C1189 1.408 . S
C1186 C1184 1.363 . S
C1186 C1187 1.370 . S
C1186 C1190 1.524 . S
C1187 C1179 1.503 . S
C1187 C1186 1.370 . S
C1187 C1188 1.403 . S
C1188 C1187 1.403 . S
C1188 C1189 1.404 . S
C1188 C1191 1.539 . S
C1189 C1185 1.408 . S
C1189 C1188 1.404 . S
C1189 H1201 0.930 . S
C1190 C1186 1.524 . S
C1190 H1202 0.956 . S
C1190 H1203 0.961 . S
C1190 H1204 0.961 . S
C1191 C1188 1.539 . S
C1191 H1205 0.958 . S
C1191 H1206 0.961 . S
C1191 H1207 0.960 . S
H1192 C1176 0.931 . S
H1193 C1181 0.929 . S
H1194 C1182 0.960 . S
H1195 C1182 0.962 . S
H1196 C1182 0.960 . S
H1197 C1183 0.961 . S
H1198 C1183 0.961 . S
H1199 C1183 0.961 . S
H1200 C1184 0.931 . S
H1201 C1189 0.930 . S
H1202 C1190 0.956 . S
H1203 C1190 0.961 . S
H1204 C1190 0.961 . S
H1205 C1191 0.958 . S
H1206 C1191 0.961 . S
H1207 C1191 0.960 . S
C1208 C1209 1.391 . S
C1208 C1210 1.394 . S
C1208 H1224 0.931 . S
C1209 C1208 1.391 . S
C1209 C1213 1.376 . S
C1210 C1208 1.394 . S
C1210 C1211 1.369 . S
C1210 C1214 1.531 . S
C1211 C1210 1.369 . S
C1211 C1212 1.410 . S
C1211 C1219 1.503 . S
C1212 C1211 1.410 . S
C1212 C1213 1.392 . S
C1212 C1215 1.511 . S
C1213 C1209 1.376 . S
C1213 C1212 1.392 . S
C1213 H1225 0.929 . S
C1214 C1210 1.531 . S
C1214 H1226 0.960 1_455 S
C1214 H1227 0.962 . S
C1214 H1228 0.960 1_455 S
C1215 C1212 1.511 . S
C1215 H1229 0.961 . S
C1215 H1230 0.961 . S
C1215 H1231 0.961 . S
C1216 C1217 1.370 . S
C1216 C1218 1.363 . S
C1216 H1232 0.931 . S
C1217 C1216 1.370 . S
C1217 C1221 1.408 . S
C1218 C1216 1.363 . S
C1218 C1219 1.370 . S
C1218 C1222 1.524 . S
C1219 C1211 1.503 . S
C1219 C1218 1.370 . S
C1219 C1220 1.403 . S
C1220 C1219 1.403 . S
C1220 C1221 1.404 . S
C1220 C1223 1.539 1_455 S
C1221 C1217 1.408 . S
C1221 C1220 1.404 . S
C1221 H1233 0.930 1_455 S
C1222 C1218 1.524 . S
C1222 H1234 0.956 . S
C1222 H1235 0.961 . S
C1222 H1236 0.961 . S
C1223 C1220 1.539 1_655 S
C1223 H1237 0.958 . S
C1223 H1238 0.961 . S
C1223 H1239 0.960 . S
H1224 C1208 0.931 . S
H1225 C1213 0.929 . S
H1226 C1214 0.960 1_655 S
H1227 C1214 0.962 . S
H1228 C1214 0.960 1_655 S
H1229 C1215 0.961 . S
H1230 C1215 0.961 . S
H1231 C1215 0.961 . S
H1232 C1216 0.931 . S
H1233 C1221 0.930 1_655 S
H1234 C1222 0.956 . S
H1235 C1222 0.961 . S
H1236 C1222 0.961 . S
H1237 C1223 0.958 . S
H1238 C1223 0.961 . S
H1239 C1223 0.960 . S
C1240 C1241 1.391 . S
C1240 C1242 1.394 . S
C1240 H1256 0.931 . S
C1241 C1240 1.391 . S
C1241 C1245 1.376 . S
C1242 C1240 1.394 . S
C1242 C1243 1.369 . S
C1242 C1246 1.531 . S
C1243 C1242 1.369 . S
C1243 C1244 1.410 . S
C1243 C1251 1.503 . S
C1244 C1243 1.410 . S
C1244 C1245 1.392 . S
C1244 C1247 1.511 . S
C1245 C1241 1.376 . S
C1245 C1244 1.392 . S
C1245 H1257 0.929 . S
C1246 C1242 1.531 . S
C1246 H1258 0.960 . S
C1246 H1259 0.962 . S
C1246 H1260 0.960 . S
C1247 C1244 1.511 . S
C1247 H1261 0.961 . S
C1247 H1262 0.961 . S
C1247 H1263 0.961 . S
C1248 C1249 1.370 . S
C1248 C1250 1.363 . S
C1248 H1264 0.931 . S
C1249 C1248 1.370 . S
C1249 C1253 1.408 . S
C1250 C1248 1.363 . S
C1250 C1251 1.370 . S
C1250 C1254 1.524 . S
C1251 C1243 1.503 . S
C1251 C1250 1.370 . S
C1251 C1252 1.403 . S
C1252 C1251 1.403 . S
C1252 C1253 1.404 . S
C1252 C1255 1.539 . S
C1253 C1249 1.408 . S
C1253 C1252 1.404 . S
C1253 H1265 0.930 . S
C1254 C1250 1.524 . S
C1254 H1266 0.956 . S
C1254 H1267 0.961 . S
C1254 H1268 0.961 . S
C1255 C1252 1.539 . S
C1255 H1269 0.958 . S
C1255 H1270 0.961 . S
C1255 H1271 0.960 . S
H1256 C1240 0.931 . S
H1257 C1245 0.929 . S
H1258 C1246 0.960 . S
H1259 C1246 0.962 . S
H1260 C1246 0.960 . S
H1261 C1247 0.961 . S
H1262 C1247 0.961 . S
H1263 C1247 0.961 . S
H1264 C1248 0.931 . S
H1265 C1253 0.930 . S
H1266 C1254 0.956 . S
H1267 C1254 0.961 . S
H1268 C1254 0.961 . S
H1269 C1255 0.958 . S
H1270 C1255 0.961 . S
H1271 C1255 0.960 . S
C1272 C1273 1.391 . S
C1272 C1274 1.394 . S
C1272 H1288 0.931 . S
C1273 C1272 1.391 . S
C1273 C1277 1.376 . S
C1274 C1272 1.394 . S
C1274 C1275 1.369 . S
C1274 C1278 1.531 . S
C1275 C1274 1.369 . S
C1275 C1276 1.410 . S
C1275 C1283 1.503 . S
C1276 C1275 1.410 . S
C1276 C1277 1.392 . S
C1276 C1279 1.511 . S
C1277 C1273 1.376 . S
C1277 C1276 1.392 . S
C1277 H1289 0.929 . S
C1278 C1274 1.531 . S
C1278 H1290 0.960 . S
C1278 H1291 0.962 . S
C1278 H1292 0.960 . S
C1279 C1276 1.511 . S
C1279 H1293 0.961 . S
C1279 H1294 0.961 . S
C1279 H1295 0.961 1_655 S
C1280 C1281 1.370 . S
C1280 C1282 1.363 . S
C1280 H1296 0.931 . S
C1281 C1280 1.370 . S
C1281 C1285 1.408 1_655 S
C1282 C1280 1.363 . S
C1282 C1283 1.370 . S
C1282 C1286 1.524 . S
C1283 C1275 1.503 . S
C1283 C1282 1.370 . S
C1283 C1284 1.403 1_655 S
C1284 C1283 1.403 1_455 S
C1284 C1285 1.404 . S
C1284 C1287 1.539 . S
C1285 C1281 1.408 1_455 S
C1285 C1284 1.404 . S
C1285 H1297 0.930 . S
C1286 C1282 1.524 . S
C1286 H1298 0.956 . S
C1286 H1299 0.961 . S
C1286 H1300 0.961 . S
C1287 C1284 1.539 . S
C1287 H1301 0.958 . S
C1287 H1302 0.961 . S
C1287 H1303 0.960 . S
H1288 C1272 0.931 . S
H1289 C1277 0.929 . S
H1290 C1278 0.960 . S
H1291 C1278 0.962 . S
H1292 C1278 0.960 . S
H1293 C1279 0.961 . S
H1294 C1279 0.961 . S
H1295 C1279 0.961 1_455 S
H1296 C1280 0.931 . S
H1297 C1285 0.930 . S
H1298 C1286 0.956 . S
H1299 C1286 0.961 . S
H1300 C1286 0.961 . S
H1301 C1287 0.958 . S
H1302 C1287 0.961 . S
H1303 C1287 0.960 . S
C1304 C1305 1.391 . S
C1304 C1306 1.394 . S
C1304 H1320 0.931 . S
C1305 C1304 1.391 . S
C1305 C1309 1.376 . S
C1306 C1304 1.394 . S
C1306 C1307 1.369 . S
C1306 C1310 1.531 . S
C1307 C1306 1.369 . S
C1307 C1308 1.410 . S
C1307 C1315 1.503 . S
C1308 C1307 1.410 . S
C1308 C1309 1.392 . S
C1308 C1311 1.511 . S
C1309 C1305 1.376 . S
C1309 C1308 1.392 . S
C1309 H1321 0.929 . S
C1310 C1306 1.531 . S
C1310 H1322 0.960 . S
C1310 H1323 0.962 . S
C1310 H1324 0.960 . S
C1311 C1308 1.511 . S
C1311 H1325 0.961 . S
C1311 H1326 0.961 . S
C1311 H1327 0.961 . S
C1312 C1313 1.370 . S
C1312 C1314 1.363 . S
C1312 H1328 0.931 . S
C1313 C1312 1.370 . S
C1313 C1317 1.408 . S
C1314 C1312 1.363 . S
C1314 C1315 1.370 . S
C1314 C1318 1.524 . S
C1315 C1307 1.503 . S
C1315 C1314 1.370 . S
C1315 C1316 1.403 . S
C1316 C1315 1.403 . S
C1316 C1317 1.404 . S
C1316 C1319 1.539 . S
C1317 C1313 1.408 . S
C1317 C1316 1.404 . S
C1317 H1329 0.930 . S
C1318 C1314 1.524 . S
C1318 H1330 0.956 . S
C1318 H1331 0.961 . S
C1318 H1332 0.961 . S
C1319 C1316 1.539 . S
C1319 H1333 0.958 . S
C1319 H1334 0.961 . S
C1319 H1335 0.960 . S
H1320 C1304 0.931 . S
H1321 C1309 0.929 . S
H1322 C1310 0.960 . S
H1323 C1310 0.962 . S
H1324 C1310 0.960 . S
H1325 C1311 0.961 . S
H1326 C1311 0.961 . S
H1327 C1311 0.961 . S
H1328 C1312 0.931 . S
H1329 C1317 0.930 . S
H1330 C1318 0.956 . S
H1331 C1318 0.961 . S
H1332 C1318 0.961 . S
H1333 C1319 0.958 . S
H1334 C1319 0.961 . S
H1335 C1319 0.960 . S
C1336 C1337 1.391 . S
C1336 C1338 1.394 . S
C1336 H1352 0.931 . S
C1337 C1336 1.391 . S
C1337 C1341 1.376 . S
C1338 C1336 1.394 . S
C1338 C1339 1.369 . S
C1338 C1342 1.531 . S
C1339 C1338 1.369 . S
C1339 C1340 1.410 . S
C1339 C1347 1.503 . S
C1340 C1339 1.410 . S
C1340 C1341 1.392 . S
C1340 C1343 1.511 . S
C1341 C1337 1.376 . S
C1341 C1340 1.392 . S
C1341 H1353 0.929 . S
C1342 C1338 1.531 . S
C1342 H1354 0.960 . S
C1342 H1355 0.962 . S
C1342 H1356 0.960 . S
C1343 C1340 1.511 . S
C1343 H1357 0.961 . S
C1343 H1358 0.961 . S
C1343 H1359 0.961 . S
C1344 C1345 1.370 . S
C1344 C1346 1.363 . S
C1344 H1360 0.931 . S
C1345 C1344 1.370 . S
C1345 C1349 1.408 . S
C1346 C1344 1.363 . S
C1346 C1347 1.370 . S
C1346 C1350 1.524 . S
C1347 C1339 1.503 . S
C1347 C1346 1.370 . S
C1347 C1348 1.403 . S
C1348 C1347 1.403 . S
C1348 C1349 1.404 . S
C1348 C1351 1.539 . S
C1349 C1345 1.408 . S
C1349 C1348 1.404 . S
C1349 H1361 0.930 . S
C1350 C1346 1.524 . S
C1350 H1362 0.956 . S
C1350 H1363 0.961 . S
C1350 H1364 0.961 . S
C1351 C1348 1.539 . S
C1351 H1365 0.958 . S
C1351 H1366 0.961 . S
C1351 H1367 0.960 . S
H1352 C1336 0.931 . S
H1353 C1341 0.929 . S
H1354 C1342 0.960 . S
H1355 C1342 0.962 . S
H1356 C1342 0.960 . S
H1357 C1343 0.961 . S
H1358 C1343 0.961 . S
H1359 C1343 0.961 . S
H1360 C1344 0.931 . S
H1361 C1349 0.930 . S
H1362 C1350 0.956 . S
H1363 C1350 0.961 . S
H1364 C1350 0.961 . S
H1365 C1351 0.958 . S
H1366 C1351 0.961 . S
H1367 C1351 0.960 . S
C1368 C1369 1.391 . S
C1368 C1370 1.394 . S
C1368 H1384 0.931 . S
C1369 C1368 1.391 . S
C1369 C1373 1.376 . S
C1370 C1368 1.394 . S
C1370 C1371 1.369 . S
C1370 C1374 1.531 1_556 S
C1371 C1370 1.369 . S
C1371 C1372 1.410 . S
C1371 C1379 1.503 . S
C1372 C1371 1.410 . S
C1372 C1373 1.392 . S
C1372 C1375 1.511 . S
C1373 C1369 1.376 . S
C1373 C1372 1.392 . S
C1373 H1385 0.929 . S
C1374 C1370 1.531 1_554 S
C1374 H1386 0.960 . S
C1374 H1387 0.962 . S
C1374 H1388 0.960 . S
C1375 C1372 1.511 . S
C1375 H1389 0.961 . S
C1375 H1390 0.961 . S
C1375 H1391 0.961 . S
C1376 C1377 1.370 . S
C1376 C1378 1.363 . S
C1376 H1392 0.931 . S
C1377 C1376 1.370 . S
C1377 C1381 1.408 . S
C1378 C1376 1.363 . S
C1378 C1379 1.370 . S
C1378 C1382 1.524 . S
C1379 C1371 1.503 . S
C1379 C1378 1.370 . S
C1379 C1380 1.403 . S
C1380 C1379 1.403 . S
C1380 C1381 1.404 . S
C1380 C1383 1.539 . S
C1381 C1377 1.408 . S
C1381 C1380 1.404 . S
C1381 H1393 0.930 . S
C1382 C1378 1.524 . S
C1382 H1394 0.956 . S
C1382 H1395 0.961 . S
C1382 H1396 0.961 . S
C1383 C1380 1.539 . S
C1383 H1397 0.958 . S
C1383 H1398 0.961 . S
C1383 H1399 0.960 . S
H1384 C1368 0.931 . S
H1385 C1373 0.929 . S
H1386 C1374 0.960 . S
H1387 C1374 0.962 . S
H1388 C1374 0.960 . S
H1389 C1375 0.961 . S
H1390 C1375 0.961 . S
H1391 C1375 0.961 . S
H1392 C1376 0.931 . S
H1393 C1381 0.930 . S
H1394 C1382 0.956 . S
H1395 C1382 0.961 . S
H1396 C1382 0.961 . S
H1397 C1383 0.958 . S
H1398 C1383 0.961 . S
H1399 C1383 0.960 . S
C1400 C1401 1.391 . S
C1400 C1402 1.394 . S
C1400 H1416 0.931 . S
C1401 C1400 1.391 . S
C1401 C1405 1.376 . S
C1402 C1400 1.394 . S
C1402 C1403 1.369 . S
C1402 C1406 1.531 . S
C1403 C1402 1.369 . S
C1403 C1404 1.410 . S
C1403 C1411 1.503 . S
C1404 C1403 1.410 . S
C1404 C1405 1.392 . S
C1404 C1407 1.511 . S
C1405 C1401 1.376 . S
C1405 C1404 1.392 . S
C1405 H1417 0.929 . S
C1406 C1402 1.531 . S
C1406 H1418 0.960 . S
C1406 H1419 0.962 . S
C1406 H1420 0.960 . S
C1407 C1404 1.511 . S
C1407 H1421 0.961 . S
C1407 H1422 0.961 . S
C1407 H1423 0.961 . S
C1408 C1409 1.370 . S
C1408 C1410 1.363 . S
C1408 H1424 0.931 . S
C1409 C1408 1.370 . S
C1409 C1413 1.408 . S
C1410 C1408 1.363 . S
C1410 C1411 1.370 . S
C1410 C1414 1.524 . S
C1411 C1403 1.503 . S
C1411 C1410 1.370 . S
C1411 C1412 1.403 . S
C1412 C1411 1.403 . S
C1412 C1413 1.404 . S
C1412 C1415 1.539 . S
C1413 C1409 1.408 . S
C1413 C1412 1.404 . S
C1413 H1425 0.930 . S
C1414 C1410 1.524 . S
C1414 H1426 0.956 . S
C1414 H1427 0.961 . S
C1414 H1428 0.961 . S
C1415 C1412 1.539 . S
C1415 H1429 0.958 . S
C1415 H1430 0.961 . S
C1415 H1431 0.960 . S
H1416 C1400 0.931 . S
H1417 C1405 0.929 . S
H1418 C1406 0.960 . S
H1419 C1406 0.962 . S
H1420 C1406 0.960 . S
H1421 C1407 0.961 . S
H1422 C1407 0.961 . S
H1423 C1407 0.961 . S
H1424 C1408 0.931 . S
H1425 C1413 0.930 . S
H1426 C1414 0.956 . S
H1427 C1414 0.961 . S
H1428 C1414 0.961 . S
H1429 C1415 0.958 . S
H1430 C1415 0.961 . S
H1431 C1415 0.960 . S
C1432 C1433 1.391 . S
C1432 C1434 1.394 . S
C1432 H1448 0.931 . S
C1433 C1432 1.391 . S
C1433 C1437 1.376 . S
C1434 C1432 1.394 . S
C1434 C1435 1.369 . S
C1434 C1438 1.531 . S
C1435 C1434 1.369 . S
C1435 C1436 1.410 . S
C1435 C1443 1.503 . S
C1436 C1435 1.410 . S
C1436 C1437 1.392 . S
C1436 C1439 1.511 . S
C1437 C1433 1.376 . S
C1437 C1436 1.392 . S
C1437 H1449 0.929 . S
C1438 C1434 1.531 . S
C1438 H1450 0.960 . S
C1438 H1451 0.962 . S
C1438 H1452 0.960 . S
C1439 C1436 1.511 . S
C1439 H1453 0.961 . S
C1439 H1454 0.961 . S
C1439 H1455 0.961 . S
C1440 C1441 1.370 . S
C1440 C1442 1.363 . S
C1440 H1456 0.931 . S
C1441 C1440 1.370 . S
C1441 C1445 1.408 . S
C1442 C1440 1.363 . S
C1442 C1443 1.370 . S
C1442 C1446 1.524 . S
C1443 C1435 1.503 . S
C1443 C1442 1.370 . S
C1443 C1444 1.403 . S
C1444 C1443 1.403 . S
C1444 C1445 1.404 . S
C1444 C1447 1.539 . S
C1445 C1441 1.408 . S
C1445 C1444 1.404 . S
C1445 H1457 0.930 . S
C1446 C1442 1.524 . S
C1446 H1458 0.956 . S
C1446 H1459 0.961 . S
C1446 H1460 0.961 . S
C1447 C1444 1.539 . S
C1447 H1461 0.958 . S
C1447 H1462 0.961 . S
C1447 H1463 0.960 . S
H1448 C1432 0.931 . S
H1449 C1437 0.929 . S
H1450 C1438 0.960 . S
H1451 C1438 0.962 . S
H1452 C1438 0.960 . S
H1453 C1439 0.961 . S
H1454 C1439 0.961 . S
H1455 C1439 0.961 . S
H1456 C1440 0.931 . S
H1457 C1445 0.930 . S
H1458 C1446 0.956 . S
H1459 C1446 0.961 . S
H1460 C1446 0.961 . S
H1461 C1447 0.958 . S
H1462 C1447 0.961 . S
H1463 C1447 0.960 . S
C1464 C1465 1.391 . S
C1464 C1466 1.394 . S
C1464 H1480 0.931 . S
C1465 C1464 1.391 . S
C1465 C1469 1.376 . S
C1466 C1464 1.394 . S
C1466 C1467 1.369 . S
C1466 C1470 1.531 . S
C1467 C1466 1.369 . S
C1467 C1468 1.410 . S
C1467 C1475 1.503 . S
C1468 C1467 1.410 . S
C1468 C1469 1.392 . S
C1468 C1471 1.511 . S
C1469 C1465 1.376 . S
C1469 C1468 1.392 . S
C1469 H1481 0.929 . S
C1470 C1466 1.531 . S
C1470 H1482 0.960 . S
C1470 H1483 0.962 . S
C1470 H1484 0.960 . S
C1471 C1468 1.511 . S
C1471 H1485 0.961 . S
C1471 H1486 0.961 . S
C1471 H1487 0.961 . S
C1472 C1473 1.370 . S
C1472 C1474 1.363 . S
C1472 H1488 0.931 . S
C1473 C1472 1.370 . S
C1473 C1477 1.408 . S
C1474 C1472 1.363 . S
C1474 C1475 1.370 . S
C1474 C1478 1.524 . S
C1475 C1467 1.503 . S
C1475 C1474 1.370 . S
C1475 C1476 1.403 . S
C1476 C1475 1.403 . S
C1476 C1477 1.404 . S
C1476 C1479 1.539 . S
C1477 C1473 1.408 . S
C1477 C1476 1.404 . S
C1477 H1489 0.930 . S
C1478 C1474 1.524 . S
C1478 H1490 0.956 . S
C1478 H1491 0.961 . S
C1478 H1492 0.961 . S
C1479 C1476 1.539 . S
C1479 H1493 0.958 . S
C1479 H1494 0.961 . S
C1479 H1495 0.960 . S
H1480 C1464 0.931 . S
H1481 C1469 0.929 . S
H1482 C1470 0.960 . S
H1483 C1470 0.962 . S
H1484 C1470 0.960 . S
H1485 C1471 0.961 . S
H1486 C1471 0.961 . S
H1487 C1471 0.961 . S
H1488 C1472 0.931 . S
H1489 C1477 0.930 . S
H1490 C1478 0.956 . S
H1491 C1478 0.961 . S
H1492 C1478 0.961 . S
H1493 C1479 0.958 . S
H1494 C1479 0.961 . S
H1495 C1479 0.960 . S
C1496 C1497 1.391 . S
C1496 C1498 1.394 . S
C1496 H1512 0.931 . S
C1497 C1496 1.391 . S
C1497 C1501 1.376 . S
C1498 C1496 1.394 . S
C1498 C1499 1.369 . S
C1498 C1502 1.531 . S
C1499 C1498 1.369 . S
C1499 C1500 1.410 . S
C1499 C1507 1.503 . S
C1500 C1499 1.410 . S
C1500 C1501 1.392 . S
C1500 C1503 1.511 . S
C1501 C1497 1.376 . S
C1501 C1500 1.392 . S
C1501 H1513 0.929 . S
C1502 C1498 1.531 . S
C1502 H1514 0.960 . S
C1502 H1515 0.962 . S
C1502 H1516 0.960 . S
C1503 C1500 1.511 . S
C1503 H1517 0.961 . S
C1503 H1518 0.961 . S
C1503 H1519 0.961 . S
C1504 C1505 1.370 . S
C1504 C1506 1.363 . S
C1504 H1520 0.931 . S
C1505 C1504 1.370 . S
C1505 C1509 1.408 . S
C1506 C1504 1.363 . S
C1506 C1507 1.370 . S
C1506 C1510 1.524 . S
C1507 C1499 1.503 . S
C1507 C1506 1.370 . S
C1507 C1508 1.403 . S
C1508 C1507 1.403 . S
C1508 C1509 1.404 . S
C1508 C1511 1.539 . S
C1509 C1505 1.408 . S
C1509 C1508 1.404 . S
C1509 H1521 0.930 . S
C1510 C1506 1.524 . S
C1510 H1522 0.956 . S
C1510 H1523 0.961 . S
C1510 H1524 0.961 . S
C1511 C1508 1.539 . S
C1511 H1525 0.958 . S
C1511 H1526 0.961 . S
C1511 H1527 0.960 . S
H1512 C1496 0.931 . S
H1513 C1501 0.929 . S
H1514 C1502 0.960 . S
H1515 C1502 0.962 . S
H1516 C1502 0.960 . S
H1517 C1503 0.961 . S
H1518 C1503 0.961 . S
H1519 C1503 0.961 . S
H1520 C1504 0.931 . S
H1521 C1509 0.930 . S
H1522 C1510 0.956 . S
H1523 C1510 0.961 . S
H1524 C1510 0.961 . S
H1525 C1511 0.958 . S
H1526 C1511 0.961 . S
H1527 C1511 0.960 . S
C1528 C1529 1.391 . S
C1528 C1530 1.394 . S
C1528 H1544 0.931 . S
C1529 C1528 1.391 . S
C1529 C1533 1.376 . S
C1530 C1528 1.394 . S
C1530 C1531 1.369 . S
C1530 C1534 1.531 . S
C1531 C1530 1.369 . S
C1531 C1532 1.410 . S
C1531 C1539 1.503 . S
C1532 C1531 1.410 . S
C1532 C1533 1.392 . S
C1532 C1535 1.511 . S
C1533 C1529 1.376 . S
C1533 C1532 1.392 . S
C1533 H1545 0.929 . S
C1534 C1530 1.531 . S
C1534 H1546 0.960 . S
C1534 H1547 0.962 . S
C1534 H1548 0.960 . S
C1535 C1532 1.511 . S
C1535 H1549 0.961 . S
C1535 H1550 0.961 . S
C1535 H1551 0.961 . S
C1536 C1537 1.370 . S
C1536 C1538 1.363 . S
C1536 H1552 0.931 . S
C1537 C1536 1.370 . S
C1537 C1541 1.408 . S
C1538 C1536 1.363 . S
C1538 C1539 1.370 . S
C1538 C1542 1.524 . S
C1539 C1531 1.503 . S
C1539 C1538 1.370 . S
C1539 C1540 1.403 . S
C1540 C1539 1.403 . S
C1540 C1541 1.404 . S
C1540 C1543 1.539 . S
C1541 C1537 1.408 . S
C1541 C1540 1.404 . S
C1541 H1553 0.930 . S
C1542 C1538 1.524 . S
C1542 H1554 0.956 . S
C1542 H1555 0.961 . S
C1542 H1556 0.961 . S
C1543 C1540 1.539 . S
C1543 H1557 0.958 . S
C1543 H1558 0.961 . S
C1543 H1559 0.960 . S
H1544 C1528 0.931 . S
H1545 C1533 0.929 . S
H1546 C1534 0.960 . S
H1547 C1534 0.962 . S
H1548 C1534 0.960 . S
H1549 C1535 0.961 . S
H1550 C1535 0.961 . S
H1551 C1535 0.961 . S
H1552 C1536 0.931 . S
H1553 C1541 0.930 . S
H1554 C1542 0.956 . S
H1555 C1542 0.961 . S
H1556 C1542 0.961 . S
H1557 C1543 0.958 . S
H1558 C1543 0.961 . S
H1559 C1543 0.960 . S
C1560 C1561 1.391 . S
C1560 C1562 1.394 . S
C1560 H1576 0.931 . S
C1561 C1560 1.391 . S
C1561 C1565 1.376 . S
C1562 C1560 1.394 . S
C1562 C1563 1.369 . S
C1562 C1566 1.531 . S
C1563 C1562 1.369 . S
C1563 C1564 1.410 . S
C1563 C1571 1.503 . S
C1564 C1563 1.410 . S
C1564 C1565 1.392 . S
C1564 C1567 1.511 . S
C1565 C1561 1.376 . S
C1565 C1564 1.392 . S
C1565 H1577 0.929 . S
C1566 C1562 1.531 . S
C1566 H1578 0.960 . S
C1566 H1579 0.962 . S
C1566 H1580 0.960 . S
C1567 C1564 1.511 . S
C1567 H1581 0.961 . S
C1567 H1582 0.961 . S
C1567 H1583 0.961 . S
C1568 C1569 1.370 . S
C1568 C1570 1.363 . S
C1568 H1584 0.931 . S
C1569 C1568 1.370 . S
C1569 C1573 1.408 . S
C1570 C1568 1.363 . S
C1570 C1571 1.370 . S
C1570 C1574 1.524 . S
C1571 C1563 1.503 . S
C1571 C1570 1.370 . S
C1571 C1572 1.403 . S
C1572 C1571 1.403 . S
C1572 C1573 1.404 . S
C1572 C1575 1.539 . S
C1573 C1569 1.408 . S
C1573 C1572 1.404 . S
C1573 H1585 0.930 . S
C1574 C1570 1.524 . S
C1574 H1586 0.956 . S
C1574 H1587 0.961 . S
C1574 H1588 0.961 . S
C1575 C1572 1.539 . S
C1575 H1589 0.958 . S
C1575 H1590 0.961 . S
C1575 H1591 0.960 . S
H1576 C1560 0.931 . S
H1577 C1565 0.929 . S
H1578 C1566 0.960 . S
H1579 C1566 0.962 . S
H1580 C1566 0.960 . S
H1581 C1567 0.961 . S
H1582 C1567 0.961 . S
H1583 C1567 0.961 . S
H1584 C1568 0.931 . S
H1585 C1573 0.930 . S
H1586 C1574 0.956 . S
H1587 C1574 0.961 . S
H1588 C1574 0.961 . S
H1589 C1575 0.958 . S
H1590 C1575 0.961 . S
H1591 C1575 0.960 . S
C1592 C1593 1.391 . S
C1592 C1594 1.394 . S
C1592 H1608 0.931 . S
C1593 C1592 1.391 . S
C1593 C1597 1.376 . S
C1594 C1592 1.394 . S
C1594 C1595 1.369 . S
C1594 C1598 1.531 . S
C1595 C1594 1.369 . S
C1595 C1596 1.410 . S
C1595 C1603 1.503 . S
C1596 C1595 1.410 . S
C1596 C1597 1.392 . S
C1596 C1599 1.511 . S
C1597 C1593 1.376 . S
C1597 C1596 1.392 . S
C1597 H1609 0.929 . S
C1598 C1594 1.531 . S
C1598 H1610 0.960 . S
C1598 H1611 0.962 . S
C1598 H1612 0.960 . S
C1599 C1596 1.511 . S
C1599 H1613 0.961 . S
C1599 H1614 0.961 . S
C1599 H1615 0.961 . S
C1600 C1601 1.370 . S
C1600 C1602 1.363 . S
C1600 H1616 0.931 1_545 S
C1601 C1600 1.370 . S
C1601 C1605 1.408 . S
C1602 C1600 1.363 . S
C1602 C1603 1.370 . S
C1602 C1606 1.524 1_545 S
C1603 C1595 1.503 . S
C1603 C1602 1.370 . S
C1603 C1604 1.403 . S
C1604 C1603 1.403 . S
C1604 C1605 1.404 . S
C1604 C1607 1.539 . S
C1605 C1601 1.408 . S
C1605 C1604 1.404 . S
C1605 H1617 0.930 . S
C1606 C1602 1.524 1_565 S
C1606 H1618 0.956 . S
C1606 H1619 0.961 . S
C1606 H1620 0.961 . S
C1607 C1604 1.539 . S
C1607 H1621 0.958 . S
C1607 H1622 0.961 . S
C1607 H1623 0.960 . S
H1608 C1592 0.931 . S
H1609 C1597 0.929 . S
H1610 C1598 0.960 . S
H1611 C1598 0.962 . S
H1612 C1598 0.960 . S
H1613 C1599 0.961 . S
H1614 C1599 0.961 . S
H1615 C1599 0.961 . S
H1616 C1600 0.931 1_565 S
H1617 C1605 0.930 . S
H1618 C1606 0.956 . S
H1619 C1606 0.961 . S
H1620 C1606 0.961 . S
H1621 C1607 0.958 . S
H1622 C1607 0.961 . S
H1623 C1607 0.960 . S
C1624 C1625 1.391 . S
C1624 C1626 1.394 . S
C1624 H1640 0.931 . S
C1625 C1624 1.391 . S
C1625 C1629 1.376 . S
C1626 C1624 1.394 . S
C1626 C1627 1.369 . S
C1626 C1630 1.531 . S
C1627 C1626 1.369 . S
C1627 C1628 1.410 . S
C1627 C1635 1.503 . S
C1628 C1627 1.410 . S
C1628 C1629 1.392 . S
C1628 C1631 1.511 . S
C1629 C1625 1.376 . S
C1629 C1628 1.392 . S
C1629 H1641 0.929 . S
C1630 C1626 1.531 . S
C1630 H1642 0.960 . S
C1630 H1643 0.962 . S
C1630 H1644 0.960 . S
C1631 C1628 1.511 . S
C1631 H1645 0.961 . S
C1631 H1646 0.961 . S
C1631 H1647 0.961 . S
C1632 C1633 1.370 . S
C1632 C1634 1.363 . S
C1632 H1648 0.931 . S
C1633 C1632 1.370 . S
C1633 C1637 1.408 . S
C1634 C1632 1.363 . S
C1634 C1635 1.370 . S
C1634 C1638 1.524 . S
C1635 C1627 1.503 . S
C1635 C1634 1.370 . S
C1635 C1636 1.403 . S
C1636 C1635 1.403 . S
C1636 C1637 1.404 . S
C1636 C1639 1.539 . S
C1637 C1633 1.408 . S
C1637 C1636 1.404 . S
C1637 H1649 0.930 . S
C1638 C1634 1.524 . S
C1638 H1650 0.956 . S
C1638 H1651 0.961 . S
C1638 H1652 0.961 . S
C1639 C1636 1.539 . S
C1639 H1653 0.958 . S
C1639 H1654 0.961 . S
C1639 H1655 0.960 . S
H1640 C1624 0.931 . S
H1641 C1629 0.929 . S
H1642 C1630 0.960 . S
H1643 C1630 0.962 . S
H1644 C1630 0.960 . S
H1645 C1631 0.961 . S
H1646 C1631 0.961 . S
H1647 C1631 0.961 . S
H1648 C1632 0.931 . S
H1649 C1637 0.930 . S
H1650 C1638 0.956 . S
H1651 C1638 0.961 . S
H1652 C1638 0.961 . S
H1653 C1639 0.958 . S
H1654 C1639 0.961 . S
H1655 C1639 0.960 . S
C1656 C1657 1.391 . S
C1656 C1658 1.394 . S
C1656 H1672 0.931 . S
C1657 C1656 1.391 . S
C1657 C1661 1.376 . S
C1658 C1656 1.394 . S
C1658 C1659 1.369 . S
C1658 C1662 1.531 . S
C1659 C1658 1.369 . S
C1659 C1660 1.410 . S
C1659 C1667 1.503 . S
C1660 C1659 1.410 . S
C1660 C1661 1.392 . S
C1660 C1663 1.511 . S
C1661 C1657 1.376 . S
C1661 C1660 1.392 . S
C1661 H1673 0.929 . S
C1662 C1658 1.531 . S
C1662 H1674 0.960 . S
C1662 H1675 0.962 . S
C1662 H1676 0.960 . S
C1663 C1660 1.511 . S
C1663 H1677 0.961 . S
C1663 H1678 0.961 . S
C1663 H1679 0.961 . S
C1664 C1665 1.370 . S
C1664 C1666 1.363 . S
C1664 H1680 0.931 . S
C1665 C1664 1.370 . S
C1665 C1669 1.408 . S
C1666 C1664 1.363 . S
C1666 C1667 1.370 . S
C1666 C1670 1.524 . S
C1667 C1659 1.503 . S
C1667 C1666 1.370 . S
C1667 C1668 1.403 . S
C1668 C1667 1.403 . S
C1668 C1669 1.404 . S
C1668 C1671 1.539 . S
C1669 C1665 1.408 . S
C1669 C1668 1.404 . S
C1669 H1681 0.930 . S
C1670 C1666 1.524 . S
C1670 H1682 0.956 . S
C1670 H1683 0.961 . S
C1670 H1684 0.961 . S
C1671 C1668 1.539 . S
C1671 H1685 0.958 . S
C1671 H1686 0.961 . S
C1671 H1687 0.960 . S
H1672 C1656 0.931 . S
H1673 C1661 0.929 . S
H1674 C1662 0.960 . S
H1675 C1662 0.962 . S
H1676 C1662 0.960 . S
H1677 C1663 0.961 . S
H1678 C1663 0.961 . S
H1679 C1663 0.961 . S
H1680 C1664 0.931 . S
H1681 C1669 0.930 . S
H1682 C1670 0.956 . S
H1683 C1670 0.961 . S
H1684 C1670 0.961 . S
H1685 C1671 0.958 . S
H1686 C1671 0.961 . S
H1687 C1671 0.960 . S
C1688 C1689 1.391 . S
C1688 C1690 1.394 . S
C1688 H1704 0.931 . S
C1689 C1688 1.391 . S
C1689 C1693 1.376 . S
C1690 C1688 1.394 . S
C1690 C1691 1.369 . S
C1690 C1694 1.531 . S
C1691 C1690 1.369 . S
C1691 C1692 1.410 . S
C1691 C1699 1.503 . S
C1692 C1691 1.410 . S
C1692 C1693 1.392 . S
C1692 C1695 1.511 . S
C1693 C1689 1.376 . S
C1693 C1692 1.392 . S
C1693 H1705 0.929 . S
C1694 C1690 1.531 . S
C1694 H1706 0.960 . S
C1694 H1707 0.962 . S
C1694 H1708 0.960 . S
C1695 C1692 1.511 . S
C1695 H1709 0.961 . S
C1695 H1710 0.961 . S
C1695 H1711 0.961 . S
C1696 C1697 1.370 . S
C1696 C1698 1.363 . S
C1696 H1712 0.931 . S
C1697 C1696 1.370 . S
C1697 C1701 1.408 . S
C1698 C1696 1.363 . S
C1698 C1699 1.370 . S
C1698 C1702 1.524 . S
C1699 C1691 1.503 . S
C1699 C1698 1.370 . S
C1699 C1700 1.403 . S
C1700 C1699 1.403 . S
C1700 C1701 1.404 . S
C1700 C1703 1.539 . S
C1701 C1697 1.408 . S
C1701 C1700 1.404 . S
C1701 H1713 0.930 . S
C1702 C1698 1.524 . S
C1702 H1714 0.956 . S
C1702 H1715 0.961 . S
C1702 H1716 0.961 . S
C1703 C1700 1.539 . S
C1703 H1717 0.958 . S
C1703 H1718 0.961 . S
C1703 H1719 0.960 . S
H1704 C1688 0.931 . S
H1705 C1693 0.929 . S
H1706 C1694 0.960 . S
H1707 C1694 0.962 . S
H1708 C1694 0.960 . S
H1709 C1695 0.961 . S
H1710 C1695 0.961 . S
H1711 C1695 0.961 . S
H1712 C1696 0.931 . S
H1713 C1701 0.930 . S
H1714 C1702 0.956 . S
H1715 C1702 0.961 . S
H1716 C1702 0.961 . S
H1717 C1703 0.958 . S
H1718 C1703 0.961 . S
H1719 C1703 0.960 . S
C1720 C1721 1.391 . S
C1720 C1722 1.394 . S
C1720 H1736 0.931 . S
C1721 C1720 1.391 . S
C1721 C1725 1.376 . S
C1722 C1720 1.394 . S
C1722 C1723 1.369 . S
C1722 C1726 1.531 1_545 S
C1723 C1722 1.369 . S
C1723 C1724 1.410 . S
C1723 C1731 1.503 . S
C1724 C1723 1.410 . S
C1724 C1725 1.392 . S
C1724 C1727 1.511 . S
C1725 C1721 1.376 . S
C1725 C1724 1.392 . S
C1725 H1737 0.929 . S
C1726 C1722 1.531 1_565 S
C1726 H1738 0.960 . S
C1726 H1739 0.962 . S
C1726 H1740 0.960 . S
C1727 C1724 1.511 . S
C1727 H1741 0.961 . S
C1727 H1742 0.961 . S
C1727 H1743 0.961 . S
C1728 C1729 1.370 . S
C1728 C1730 1.363 . S
C1728 H1744 0.931 . S
C1729 C1728 1.370 . S
C1729 C1733 1.427 . S
C1730 C1728 1.363 . S
C1730 C1731 1.370 . S
C1730 C1734 1.524 . S
C1731 C1723 1.503 . S
C1731 C1730 1.370 . S
C1731 C1732 1.403 . S
C1732 C1731 1.403 . S
C1732 C1733 1.406 . S
C1732 C1735 1.539 1_545 S
C1733 C1729 1.427 . S
C1733 C1732 1.406 . S
C1733 H1745 0.910 1_545 S
C1734 C1730 1.524 . S
C1734 H1746 0.956 . S
C1734 H1747 0.961 . S
C1734 H1748 0.961 . S
C1735 C1732 1.539 1_565 S
C1735 H1749 0.958 . S
C1735 H1750 0.961 . S
C1735 H1751 0.960 . S
H1736 C1720 0.931 . S
H1737 C1725 0.929 . S
H1738 C1726 0.960 . S
H1739 C1726 0.962 . S
H1740 C1726 0.960 . S
H1741 C1727 0.961 . S
H1742 C1727 0.961 . S
H1743 C1727 0.961 . S
H1744 C1728 0.931 . S
H1745 C1733 0.910 1_565 S
H1746 C1734 0.956 . S
H1747 C1734 0.961 . S
H1748 C1734 0.961 . S
H1749 C1735 0.958 . S
H1750 C1735 0.961 . S
H1751 C1735 0.960 . S
C1752 C1753 1.391 . S
C1752 C1754 1.394 . S
C1752 H1768 0.931 . S
C1753 C1752 1.391 . S
C1753 C1757 1.376 . S
C1754 C1752 1.394 . S
C1754 C1755 1.369 . S
C1754 C1758 1.531 . S
C1755 C1754 1.369 . S
C1755 C1756 1.410 . S
C1755 C1763 1.503 . S
C1756 C1755 1.410 . S
C1756 C1757 1.392 . S
C1756 C1759 1.511 . S
C1757 C1753 1.376 . S
C1757 C1756 1.392 . S
C1757 H1769 0.929 . S
C1758 C1754 1.531 . S
C1758 H1770 0.960 . S
C1758 H1771 0.962 . S
C1758 H1772 0.960 . S
C1759 C1756 1.511 . S
C1759 H1773 0.961 . S
C1759 H1774 0.961 . S
C1759 H1775 0.961 . S
C1760 C1761 1.370 . S
C1760 C1762 1.363 . S
C1760 H1776 0.931 . S
C1761 C1760 1.370 . S
C1761 C1765 1.408 . S
C1762 C1760 1.363 . S
C1762 C1763 1.370 . S
C1762 C1766 1.524 . S
C1763 C1755 1.503 . S
C1763 C1762 1.370 . S
C1763 C1764 1.403 . S
C1764 C1763 1.403 . S
C1764 C1765 1.404 . S
C1764 C1767 1.539 . S
C1765 C1761 1.408 . S
C1765 C1764 1.404 . S
C1765 H1777 0.930 . S
C1766 C1762 1.524 . S
C1766 H1778 0.956 . S
C1766 H1779 0.961 . S
C1766 H1780 0.961 . S
C1767 C1764 1.539 . S
C1767 H1781 0.958 . S
C1767 H1782 0.961 . S
C1767 H1783 0.960 . S
H1768 C1752 0.931 . S
H1769 C1757 0.929 . S
H1770 C1758 0.960 . S
H1771 C1758 0.962 . S
H1772 C1758 0.960 . S
H1773 C1759 0.961 . S
H1774 C1759 0.961 . S
H1775 C1759 0.961 . S
H1776 C1760 0.931 . S
H1777 C1765 0.930 . S
H1778 C1766 0.956 . S
H1779 C1766 0.961 . S
H1780 C1766 0.961 . S
H1781 C1767 0.958 . S
H1782 C1767 0.961 . S
H1783 C1767 0.960 . S
C1784 C1785 1.391 . S
C1784 C1786 1.394 . S
C1784 H1800 0.931 . S
C1785 C1784 1.391 . S
C1785 C1789 1.376 . S
C1786 C1784 1.394 . S
C1786 C1787 1.369 . S
C1786 C1790 1.531 . S
C1787 C1786 1.369 . S
C1787 C1788 1.410 . S
C1787 C1795 1.503 . S
C1788 C1787 1.410 . S
C1788 C1789 1.392 . S
C1788 C1791 1.511 . S
C1789 C1785 1.376 . S
C1789 C1788 1.392 . S
C1789 H1801 0.929 . S
C1790 C1786 1.531 . S
C1790 H1802 0.960 . S
C1790 H1803 0.962 . S
C1790 H1804 0.960 . S
C1791 C1788 1.511 . S
C1791 H1805 0.961 . S
C1791 H1806 0.961 . S
C1791 H1807 0.961 . S
C1792 C1793 1.370 . S
C1792 C1794 1.363 . S
C1792 H1808 0.931 . S
C1793 C1792 1.370 . S
C1793 C1797 1.408 . S
C1794 C1792 1.363 . S
C1794 C1795 1.370 . S
C1794 C1798 1.524 . S
C1795 C1787 1.503 . S
C1795 C1794 1.370 . S
C1795 C1796 1.403 . S
C1796 C1795 1.403 . S
C1796 C1797 1.404 . S
C1796 C1799 1.539 . S
C1797 C1793 1.408 . S
C1797 C1796 1.404 . S
C1797 H1809 0.930 . S
C1798 C1794 1.524 . S
C1798 H1810 0.956 . S
C1798 H1811 0.961 . S
C1798 H1812 0.961 . S
C1799 C1796 1.539 . S
C1799 H1813 0.958 . S
C1799 H1814 0.961 . S
C1799 H1815 0.960 . S
H1800 C1784 0.931 . S
H1801 C1789 0.929 . S
H1802 C1790 0.960 . S
H1803 C1790 0.962 . S
H1804 C1790 0.960 . S
H1805 C1791 0.961 . S
H1806 C1791 0.961 . S
H1807 C1791 0.961 . S
H1808 C1792 0.931 . S
H1809 C1797 0.930 . S
H1810 C1798 0.956 . S
H1811 C1798 0.961 . S
H1812 C1798 0.961 . S
H1813 C1799 0.958 . S
H1814 C1799 0.961 . S
H1815 C1799 0.960 . S
C1816 C1817 1.391 . S
C1816 C1818 1.394 . S
C1816 H1832 0.931 . S
C1817 C1816 1.391 . S
C1817 C1821 1.376 . S
C1818 C1816 1.394 . S
C1818 C1819 1.369 . S
C1818 C1822 1.531 . S
C1819 C1818 1.369 . S
C1819 C1820 1.410 . S
C1819 C1827 1.503 . S
C1820 C1819 1.410 . S
C1820 C1821 1.392 . S
C1820 C1823 1.511 . S
C1821 C1817 1.376 . S
C1821 C1820 1.392 . S
C1821 H1833 0.929 . S
C1822 C1818 1.531 . S
C1822 H1834 0.960 . S
C1822 H1835 0.962 . S
C1822 H1836 0.960 . S
C1823 C1820 1.511 . S
C1823 H1837 0.961 . S
C1823 H1838 0.961 . S
C1823 H1839 0.961 . S
C1824 C1825 1.370 . S
C1824 C1826 1.363 . S
C1824 H1840 0.931 . S
C1825 C1824 1.370 . S
C1825 C1829 1.408 . S
C1826 C1824 1.363 . S
C1826 C1827 1.370 . S
C1826 C1830 1.524 . S
C1827 C1819 1.503 . S
C1827 C1826 1.370 . S
C1827 C1828 1.403 . S
C1828 C1827 1.403 . S
C1828 C1829 1.404 . S
C1828 C1831 1.539 . S
C1829 C1825 1.408 . S
C1829 C1828 1.404 . S
C1829 H1841 0.930 . S
C1830 C1826 1.524 . S
C1830 H1842 0.956 . S
C1830 H1843 0.961 . S
C1830 H1844 0.961 . S
C1831 C1828 1.539 . S
C1831 H1845 0.958 . S
C1831 H1846 0.961 . S
C1831 H1847 0.960 . S
H1832 C1816 0.931 . S
H1833 C1821 0.929 . S
H1834 C1822 0.960 . S
H1835 C1822 0.962 . S
H1836 C1822 0.960 . S
H1837 C1823 0.961 . S
H1838 C1823 0.961 . S
H1839 C1823 0.961 . S
H1840 C1824 0.931 . S
H1841 C1829 0.930 . S
H1842 C1830 0.956 . S
H1843 C1830 0.961 . S
H1844 C1830 0.961 . S
H1845 C1831 0.958 . S
H1846 C1831 0.961 . S
H1847 C1831 0.960 . S
C1848 C1849 1.391 . S
C1848 C1850 1.394 . S
C1848 H1864 0.931 1_556 S
C1849 C1848 1.391 . S
C1849 C1853 1.376 . S
C1850 C1848 1.394 . S
C1850 C1851 1.369 . S
C1850 C1854 1.531 . S
C1851 C1850 1.369 . S
C1851 C1852 1.410 . S
C1851 C1859 1.503 . S
C1852 C1851 1.410 . S
C1852 C1853 1.392 . S
C1852 C1855 1.511 . S
C1853 C1849 1.376 . S
C1853 C1852 1.392 . S
C1853 H1865 0.929 . S
C1854 C1850 1.531 . S
C1854 H1866 0.960 . S
C1854 H1867 0.962 1_655 S
C1854 H1868 0.962 1_556 S
C1855 C1852 1.511 . S
C1855 H1869 0.961 . S
C1855 H1870 0.961 . S
C1855 H1871 0.961 . S
C1856 C1857 1.370 . S
C1856 C1858 1.363 . S
C1856 H1872 0.931 1_655 S
C1857 C1856 1.370 . S
C1857 C1861 1.408 . S
C1858 C1856 1.363 . S
C1858 C1859 1.370 . S
C1858 C1862 1.524 1_655 S
C1859 C1851 1.503 . S
C1859 C1858 1.370 . S
C1859 C1860 1.403 . S
C1860 C1859 1.403 . S
C1860 C1861 1.404 . S
C1860 C1863 1.539 . S
C1861 C1857 1.408 . S
C1861 C1860 1.404 . S
C1861 H1873 0.930 . S
C1862 C1858 1.524 1_455 S
C1862 H1874 0.956 . S
C1862 H1875 0.961 1_455 S
C1862 H1876 0.961 . S
C1863 C1860 1.539 . S
C1863 H1877 0.958 . S
C1863 H1878 0.961 . S
C1863 H1879 0.960 . S
H1864 C1848 0.931 1_554 S
H1865 C1853 0.929 . S
H1866 C1854 0.960 . S
H1867 C1854 0.962 1_455 S
H1868 C1854 0.962 1_554 S
H1869 C1855 0.961 . S
H1870 C1855 0.961 . S
H1871 C1855 0.961 . S
H1872 C1856 0.931 1_455 S
H1873 C1861 0.930 . S
H1874 C1862 0.956 . S
H1875 C1862 0.961 1_655 S
H1876 C1862 0.961 . S
H1877 C1863 0.958 . S
H1878 C1863 0.961 . S
H1879 C1863 0.960 . S
C1880 C1881 1.391 . S
C1880 C1882 1.394 . S
C1880 H1896 0.931 . S
C1881 C1880 1.391 . S
C1881 C1885 1.376 . S
C1882 C1880 1.394 . S
C1882 C1883 1.369 . S
C1882 C1886 1.531 . S
C1883 C1882 1.369 . S
C1883 C1884 1.410 . S
C1883 C1891 1.503 . S
C1884 C1883 1.410 . S
C1884 C1885 1.392 . S
C1884 C1887 1.511 . S
C1885 C1881 1.376 . S
C1885 C1884 1.392 . S
C1885 H1897 0.929 . S
C1886 C1882 1.531 . S
C1886 H1898 0.960 . S
C1886 H1899 0.962 . S
C1886 H1900 0.960 . S
C1887 C1884 1.511 . S
C1887 H1901 0.961 . S
C1887 H1902 0.961 . S
C1887 H1903 0.961 . S
C1888 C1889 1.370 . S
C1888 C1890 1.363 . S
C1888 H1904 0.931 . S
C1889 C1888 1.370 . S
C1889 C1893 1.408 . S
C1890 C1888 1.363 . S
C1890 C1891 1.370 . S
C1890 C1894 1.524 . S
C1891 C1883 1.503 . S
C1891 C1890 1.370 . S
C1891 C1892 1.403 . S
C1892 C1891 1.403 . S
C1892 C1893 1.404 . S
C1892 C1895 1.539 . S
C1893 C1889 1.408 . S
C1893 C1892 1.404 . S
C1893 H1905 0.930 . S
C1894 C1890 1.524 . S
C1894 H1906 0.956 . S
C1894 H1907 0.961 . S
C1894 H1908 0.961 . S
C1895 C1892 1.539 . S
C1895 H1909 0.958 . S
C1895 H1910 0.961 . S
C1895 H1911 0.960 . S
H1896 C1880 0.931 . S
H1897 C1885 0.929 . S
H1898 C1886 0.960 . S
H1899 C1886 0.962 . S
H1900 C1886 0.960 . S
H1901 C1887 0.961 . S
H1902 C1887 0.961 . S
H1903 C1887 0.961 . S
H1904 C1888 0.931 . S
H1905 C1893 0.930 . S
H1906 C1894 0.956 . S
H1907 C1894 0.961 . S
H1908 C1894 0.961 . S
H1909 C1895 0.958 . S
H1910 C1895 0.961 . S
H1911 C1895 0.960 . S
C1912 C1913 1.391 . S
C1912 C1914 1.394 . S
C1912 H1928 0.931 1_556 S
C1913 C1912 1.391 . S
C1913 C1917 1.376 . S
C1914 C1912 1.394 . S
C1914 C1915 1.369 . S
C1914 C1918 1.531 . S
C1915 C1914 1.369 . S
C1915 C1916 1.410 . S
C1915 C1923 1.503 . S
C1916 C1915 1.410 . S
C1916 C1917 1.392 . S
C1916 C1919 1.511 . S
C1917 C1913 1.376 . S
C1917 C1916 1.392 . S
C1917 H1929 0.929 . S
C1918 C1914 1.531 . S
C1918 H1930 0.960 . S
C1918 H1931 0.962 . S
C1918 H1932 0.965 . S
C1919 C1916 1.511 . S
C1919 H1933 0.961 . S
C1919 H1934 0.961 . S
C1919 H1935 0.961 . S
C1920 C1921 1.370 1_655 S
C1920 C1922 1.363 1_655 S
C1920 H1936 0.931 . S
C1921 C1920 1.370 1_455 S
C1921 C1925 1.408 . S
C1922 C1920 1.363 1_455 S
C1922 C1923 1.370 . S
C1922 C1926 1.524 1_455 S
C1923 C1915 1.503 . S
C1923 C1922 1.370 . S
C1923 C1924 1.403 . S
C1924 C1923 1.403 . S
C1924 C1925 1.404 . S
C1924 C1927 1.539 . S
C1925 C1921 1.408 . S
C1925 C1924 1.404 . S
C1925 H1937 0.930 . S
C1926 C1922 1.524 1_655 S
C1926 H1938 0.956 . S
C1926 H1939 0.961 . S
C1926 H1940 0.961 . S
C1927 C1924 1.539 . S
C1927 H1941 0.958 . S
C1927 H1942 0.961 . S
C1927 H1943 0.960 . S
H1928 C1912 0.931 1_554 S
H1929 C1917 0.929 . S
H1930 C1918 0.960 . S
H1931 C1918 0.962 . S
H1932 C1918 0.965 . S
H1933 C1919 0.961 . S
H1934 C1919 0.961 . S
H1935 C1919 0.961 . S
H1936 C1920 0.931 . S
H1937 C1925 0.930 . S
H1938 C1926 0.956 . S
H1939 C1926 0.961 . S
H1940 C1926 0.961 . S
H1941 C1927 0.958 . S
H1942 C1927 0.961 . S
H1943 C1927 0.960 . S
C1944 C1945 1.391 . S
C1944 C1946 1.394 . S
C1944 H1960 0.931 . S
C1945 C1944 1.391 . S
C1945 C1949 1.376 . S
C1946 C1944 1.394 . S
C1946 C1947 1.369 . S
C1946 C1950 1.531 . S
C1947 C1946 1.369 . S
C1947 C1948 1.410 . S
C1947 C1955 1.503 . S
C1948 C1947 1.410 . S
C1948 C1949 1.392 . S
C1948 C1951 1.511 . S
C1949 C1945 1.376 . S
C1949 C1948 1.392 . S
C1949 H1961 0.929 . S
C1950 C1946 1.531 . S
C1950 H1962 0.960 . S
C1950 H1963 0.962 . S
C1950 H1964 0.960 . S
C1951 C1948 1.511 . S
C1951 H1965 0.961 . S
C1951 H1966 0.961 . S
C1951 H1967 0.961 . S
C1952 C1953 1.370 . S
C1952 C1954 1.363 . S
C1952 H1968 0.931 . S
C1953 C1952 1.370 . S
C1953 C1957 1.408 . S
C1954 C1952 1.363 . S
C1954 C1955 1.370 . S
C1954 C1958 1.524 . S
C1955 C1947 1.503 . S
C1955 C1954 1.370 . S
C1955 C1956 1.403 . S
C1956 C1955 1.403 . S
C1956 C1957 1.404 . S
C1956 C1959 1.539 . S
C1957 C1953 1.408 . S
C1957 C1956 1.404 . S
C1957 H1969 0.930 . S
C1958 C1954 1.524 . S
C1958 H1970 0.956 . S
C1958 H1971 0.961 . S
C1958 H1972 0.961 . S
C1959 C1956 1.539 . S
C1959 H1973 0.958 . S
C1959 H1974 0.961 . S
C1959 H1975 0.960 . S
H1960 C1944 0.931 . S
H1961 C1949 0.929 . S
H1962 C1950 0.960 . S
H1963 C1950 0.962 . S
H1964 C1950 0.960 . S
H1965 C1951 0.961 . S
H1966 C1951 0.961 . S
H1967 C1951 0.961 . S
H1968 C1952 0.931 . S
H1969 C1957 0.930 . S
H1970 C1958 0.956 . S
H1971 C1958 0.961 . S
H1972 C1958 0.961 . S
H1973 C1959 0.958 . S
H1974 C1959 0.961 . S
H1975 C1959 0.960 . S
C1976 C1977 1.391 . S
C1976 C1978 1.394 . S
C1976 H1992 0.931 . S
C1977 C1976 1.391 . S
C1977 C1981 1.376 . S
C1978 C1976 1.394 . S
C1978 C1979 1.369 . S
C1978 C1982 1.531 . S
C1979 C1978 1.369 . S
C1979 C1980 1.410 . S
C1979 C1987 1.503 . S
C1980 C1979 1.410 . S
C1980 C1981 1.392 . S
C1980 C1983 1.511 . S
C1981 C1977 1.376 . S
C1981 C1980 1.392 . S
C1981 H1993 0.929 . S
C1982 C1978 1.531 . S
C1982 H1994 0.960 . S
C1982 H1995 0.962 . S
C1982 H1996 0.960 . S
C1983 C1980 1.511 . S
C1983 H1997 0.961 . S
C1983 H1998 0.961 . S
C1983 H1999 0.961 . S
C1984 C1985 1.370 . S
C1984 C1986 1.363 . S
C1984 H2000 0.931 . S
C1985 C1984 1.370 . S
C1985 C1989 1.408 . S
C1986 C1984 1.363 . S
C1986 C1987 1.370 . S
C1986 C1990 1.524 . S
C1987 C1979 1.503 . S
C1987 C1986 1.370 . S
C1987 C1988 1.403 . S
C1988 C1987 1.403 . S
C1988 C1989 1.404 . S
C1988 C1991 1.539 . S
C1989 C1985 1.408 . S
C1989 C1988 1.404 . S
C1989 H2001 0.930 . S
C1990 C1986 1.524 . S
C1990 H2002 0.956 . S
C1990 H2003 0.961 . S
C1990 H2004 0.961 . S
C1991 C1988 1.539 . S
C1991 H2005 0.958 . S
C1991 H2006 0.961 . S
C1991 H2007 0.960 . S
H1992 C1976 0.931 . S
H1993 C1981 0.929 . S
H1994 C1982 0.960 . S
H1995 C1982 0.962 . S
H1996 C1982 0.960 . S
H1997 C1983 0.961 . S
H1998 C1983 0.961 . S
H1999 C1983 0.961 . S
H2000 C1984 0.931 . S
H2001 C1989 0.930 . S
H2002 C1990 0.956 . S
H2003 C1990 0.961 . S
H2004 C1990 0.961 . S
H2005 C1991 0.958 . S
H2006 C1991 0.961 . S
H2007 C1991 0.960 . S
C2008 C2009 1.391 . S
C2008 C2010 1.394 . S
C2008 H2024 0.931 . S
C2009 C2008 1.391 . S
C2009 C2013 1.376 . S
C2010 C2008 1.394 . S
C2010 C2011 1.369 . S
C2010 C2014 1.531 . S
C2011 C2010 1.369 . S
C2011 C2012 1.410 . S
C2011 C2019 1.503 . S
C2012 C2011 1.410 . S
C2012 C2013 1.392 . S
C2012 C2015 1.511 . S
C2013 C2009 1.376 . S
C2013 C2012 1.392 . S
C2013 H2025 0.929 . S
C2014 C2010 1.531 . S
C2014 H2026 0.960 . S
C2014 H2027 0.962 . S
C2014 H2028 0.960 . S
C2015 C2012 1.511 . S
C2015 H2029 0.961 . S
C2015 H2030 0.961 . S
C2015 H2031 0.961 . S
C2016 C2017 1.370 . S
C2016 C2018 1.363 . S
C2016 H2032 0.931 . S
C2017 C2016 1.370 . S
C2017 C2021 1.408 . S
C2018 C2016 1.363 . S
C2018 C2019 1.370 . S
C2018 C2022 1.524 . S
C2019 C2011 1.503 . S
C2019 C2018 1.370 . S
C2019 C2020 1.403 . S
C2020 C2019 1.403 . S
C2020 C2021 1.404 . S
C2020 C2023 1.539 . S
C2021 C2017 1.408 . S
C2021 C2020 1.404 . S
C2021 H2033 0.930 . S
C2022 C2018 1.524 . S
C2022 H2034 0.956 . S
C2022 H2035 0.961 . S
C2022 H2036 0.961 . S
C2023 C2020 1.539 . S
C2023 H2037 0.958 . S
C2023 H2038 0.961 . S
C2023 H2039 0.960 . S
H2024 C2008 0.931 . S
H2025 C2013 0.929 . S
H2026 C2014 0.960 . S
H2027 C2014 0.962 . S
H2028 C2014 0.960 . S
H2029 C2015 0.961 . S
H2030 C2015 0.961 . S
H2031 C2015 0.961 . S
H2032 C2016 0.931 . S
H2033 C2021 0.930 . S
H2034 C2022 0.956 . S
H2035 C2022 0.961 . S
H2036 C2022 0.961 . S
H2037 C2023 0.958 . S
H2038 C2023 0.961 . S
H2039 C2023 0.960 . S
C2040 C2041 1.391 . S
C2040 C2042 1.394 . S
C2040 H2056 0.931 . S
C2041 C2040 1.391 . S
C2041 C2045 1.376 . S
C2042 C2040 1.394 . S
C2042 C2043 1.369 . S
C2042 C2046 1.531 . S
C2043 C2042 1.369 . S
C2043 C2044 1.410 . S
C2043 C2051 1.503 . S
C2044 C2043 1.410 . S
C2044 C2045 1.392 . S
C2044 C2047 1.511 . S
C2045 C2041 1.376 . S
C2045 C2044 1.392 . S
C2045 H2057 0.929 . S
C2046 C2042 1.531 . S
C2046 H2058 0.960 . S
C2046 H2059 0.962 . S
C2046 H2060 0.960 . S
C2047 C2044 1.511 . S
C2047 H2061 0.961 . S
C2047 H2062 0.961 . S
C2047 H2063 0.961 . S
C2048 C2049 1.370 . S
C2048 C2050 1.363 . S
C2048 H2064 0.931 . S
C2049 C2048 1.370 . S
C2049 C2053 1.408 . S
C2050 C2048 1.363 . S
C2050 C2051 1.370 . S
C2050 C2054 1.524 . S
C2051 C2043 1.503 . S
C2051 C2050 1.370 . S
C2051 C2052 1.403 . S
C2052 C2051 1.403 . S
C2052 C2053 1.404 . S
C2052 C2055 1.539 . S
C2053 C2049 1.408 . S
C2053 C2052 1.404 . S
C2053 H2065 0.930 . S
C2054 C2050 1.524 . S
C2054 H2066 0.956 . S
C2054 H2067 0.961 . S
C2054 H2068 0.961 . S
C2055 C2052 1.539 . S
C2055 H2069 0.958 . S
C2055 H2070 0.961 . S
C2055 H2071 0.960 . S
H2056 C2040 0.931 . S
H2057 C2045 0.929 . S
H2058 C2046 0.960 . S
H2059 C2046 0.962 . S
H2060 C2046 0.960 . S
H2061 C2047 0.961 . S
H2062 C2047 0.961 . S
H2063 C2047 0.961 . S
H2064 C2048 0.931 . S
H2065 C2053 0.930 . S
H2066 C2054 0.956 . S
H2067 C2054 0.961 . S
H2068 C2054 0.961 . S
H2069 C2055 0.958 . S
H2070 C2055 0.961 . S
H2071 C2055 0.960 . S
C2072 C2073 1.391 . S
C2072 C2074 1.394 . S
C2072 H2088 0.931 . S
C2073 C2072 1.391 . S
C2073 C2077 1.376 . S
C2074 C2072 1.394 . S
C2074 C2075 1.369 . S
C2074 C2078 1.531 . S
C2075 C2074 1.369 . S
C2075 C2076 1.410 . S
C2075 C2083 1.503 . S
C2076 C2075 1.410 . S
C2076 C2077 1.392 . S
C2076 C2079 1.511 . S
C2077 C2073 1.376 . S
C2077 C2076 1.392 . S
C2077 H2089 0.929 . S
C2078 C2074 1.531 . S
C2078 H2090 0.960 . S
C2078 H2091 0.962 . S
C2078 H2092 0.960 . S
C2079 C2076 1.511 . S
C2079 H2093 0.961 . S
C2079 H2094 0.961 . S
C2079 H2095 0.961 . S
C2080 C2081 1.370 . S
C2080 C2082 1.363 . S
C2080 H2096 0.931 . S
C2081 C2080 1.370 . S
C2081 C2085 1.408 . S
C2082 C2080 1.363 . S
C2082 C2083 1.370 . S
C2082 C2086 1.524 . S
C2083 C2075 1.503 . S
C2083 C2082 1.370 . S
C2083 C2084 1.403 . S
C2084 C2083 1.403 . S
C2084 C2085 1.404 . S
C2084 C2087 1.539 . S
C2085 C2081 1.408 . S
C2085 C2084 1.404 . S
C2085 H2097 0.930 . S
C2086 C2082 1.524 . S
C2086 H2098 0.956 . S
C2086 H2099 0.961 . S
C2086 H2100 0.961 . S
C2087 C2084 1.539 . S
C2087 H2101 0.958 . S
C2087 H2102 0.961 . S
C2087 H2103 0.960 . S
H2088 C2072 0.931 . S
H2089 C2077 0.929 . S
H2090 C2078 0.960 . S
H2091 C2078 0.962 . S
H2092 C2078 0.960 . S
H2093 C2079 0.961 . S
H2094 C2079 0.961 . S
H2095 C2079 0.961 . S
H2096 C2080 0.931 . S
H2097 C2085 0.930 . S
H2098 C2086 0.956 . S
H2099 C2086 0.961 . S
H2100 C2086 0.961 . S
H2101 C2087 0.958 . S
H2102 C2087 0.961 . S
H2103 C2087 0.960 . S
C2104 C2105 1.391 . S
C2104 C2106 1.394 . S
C2104 H2120 0.931 . S
C2105 C2104 1.391 . S
C2105 C2109 1.376 . S
C2106 C2104 1.394 . S
C2106 C2107 1.369 . S
C2106 C2110 1.531 . S
C2107 C2106 1.369 . S
C2107 C2108 1.410 . S
C2107 C2115 1.503 . S
C2108 C2107 1.410 . S
C2108 C2109 1.392 . S
C2108 C2111 1.511 . S
C2109 C2105 1.376 . S
C2109 C2108 1.392 . S
C2109 H2121 0.929 . S
C2110 C2106 1.531 . S
C2110 H2122 0.960 . S
C2110 H2123 0.962 . S
C2110 H2124 0.960 . S
C2111 C2108 1.511 . S
C2111 H2125 0.961 . S
C2111 H2126 0.961 . S
C2111 H2127 0.961 . S
C2112 C2113 1.370 . S
C2112 C2114 1.363 . S
C2112 H2128 0.931 . S
C2113 C2112 1.370 . S
C2113 C2117 1.408 . S
C2114 C2112 1.363 . S
C2114 C2115 1.370 . S
C2114 C2118 1.524 . S
C2115 C2107 1.503 . S
C2115 C2114 1.370 . S
C2115 C2116 1.403 . S
C2116 C2115 1.403 . S
C2116 C2117 1.404 . S
C2116 C2119 1.539 . S
C2117 C2113 1.408 . S
C2117 C2116 1.404 . S
C2117 H2129 0.930 . S
C2118 C2114 1.524 . S
C2118 H2130 0.956 . S
C2118 H2131 0.961 . S
C2118 H2132 0.961 . S
C2119 C2116 1.539 . S
C2119 H2133 0.958 . S
C2119 H2134 0.961 . S
C2119 H2135 0.960 . S
H2120 C2104 0.931 . S
H2121 C2109 0.929 . S
H2122 C2110 0.960 . S
H2123 C2110 0.962 . S
H2124 C2110 0.960 . S
H2125 C2111 0.961 . S
H2126 C2111 0.961 . S
H2127 C2111 0.961 . S
H2128 C2112 0.931 . S
H2129 C2117 0.930 . S
H2130 C2118 0.956 . S
H2131 C2118 0.961 . S
H2132 C2118 0.961 . S
H2133 C2119 0.958 . S
H2134 C2119 0.961 . S
H2135 C2119 0.960 . S
C2136 C2137 1.391 . S
C2136 C2138 1.394 . S
C2136 H2152 0.931 . S
C2137 C2136 1.391 . S
C2137 C2141 1.376 . S
C2138 C2136 1.394 . S
C2138 C2139 1.369 . S
C2138 C2142 1.531 . S
C2139 C2138 1.369 . S
C2139 C2140 1.410 . S
C2139 C2147 1.503 . S
C2140 C2139 1.410 . S
C2140 C2141 1.392 . S
C2140 C2143 1.511 . S
C2141 C2137 1.376 . S
C2141 C2140 1.392 . S
C2141 H2153 0.929 . S
C2142 C2138 1.531 . S
C2142 H2154 0.960 . S
C2142 H2155 0.962 . S
C2142 H2156 0.960 . S
C2143 C2140 1.511 . S
C2143 H2157 0.961 . S
C2143 H2158 0.961 . S
C2143 H2159 0.961 . S
C2144 C2145 1.370 . S
C2144 C2146 1.363 . S
C2144 H2160 0.931 . S
C2145 C2144 1.370 . S
C2145 C2149 1.408 . S
C2146 C2144 1.363 . S
C2146 C2147 1.370 . S
C2146 C2150 1.524 . S
C2147 C2139 1.503 . S
C2147 C2146 1.370 . S
C2147 C2148 1.403 . S
C2148 C2147 1.403 . S
C2148 C2149 1.404 . S
C2148 C2151 1.539 . S
C2149 C2145 1.408 . S
C2149 C2148 1.404 . S
C2149 H2161 0.930 . S
C2150 C2146 1.524 . S
C2150 H2162 0.956 . S
C2150 H2163 0.961 . S
C2150 H2164 0.961 . S
C2151 C2148 1.539 . S
C2151 H2165 0.958 . S
C2151 H2166 0.961 . S
C2151 H2167 0.960 . S
H2152 C2136 0.931 . S
H2153 C2141 0.929 . S
H2154 C2142 0.960 . S
H2155 C2142 0.962 . S
H2156 C2142 0.960 . S
H2157 C2143 0.961 . S
H2158 C2143 0.961 . S
H2159 C2143 0.961 . S
H2160 C2144 0.931 . S
H2161 C2149 0.930 . S
H2162 C2150 0.956 . S
H2163 C2150 0.961 . S
H2164 C2150 0.961 . S
H2165 C2151 0.958 . S
H2166 C2151 0.961 . S
H2167 C2151 0.960 . S
C2168 C2169 1.391 . S
C2168 C2170 1.394 . S
C2168 H2184 0.931 . S
C2169 C2168 1.391 . S
C2169 C2173 1.376 . S
C2170 C2168 1.394 . S
C2170 C2171 1.369 . S
C2170 C2174 1.531 . S
C2171 C2170 1.369 . S
C2171 C2172 1.410 . S
C2171 C2179 1.503 . S
C2172 C2171 1.410 . S
C2172 C2173 1.392 . S
C2172 C2175 1.511 . S
C2173 C2169 1.376 . S
C2173 C2172 1.392 . S
C2173 H2185 0.929 . S
C2174 C2170 1.531 . S
C2174 H2186 0.960 . S
C2174 H2187 0.962 . S
C2174 H2188 0.960 . S
C2175 C2172 1.511 . S
C2175 H2189 0.961 . S
C2175 H2190 0.961 . S
C2175 H2191 0.961 . S
C2176 C2177 1.370 . S
C2176 C2178 1.363 . S
C2176 H2192 0.931 . S
C2177 C2176 1.370 . S
C2177 C2181 1.408 . S
C2178 C2176 1.363 . S
C2178 C2179 1.370 . S
C2178 C2182 1.524 . S
C2179 C2171 1.503 . S
C2179 C2178 1.370 . S
C2179 C2180 1.403 . S
C2180 C2179 1.403 . S
C2180 C2181 1.404 . S
C2180 C2183 1.539 . S
C2181 C2177 1.408 . S
C2181 C2180 1.404 . S
C2181 H2193 0.930 . S
C2182 C2178 1.524 . S
C2182 H2194 0.956 . S
C2182 H2195 0.961 . S
C2182 H2196 0.961 . S
C2183 C2180 1.539 . S
C2183 H2197 0.958 . S
C2183 H2198 0.961 . S
C2183 H2199 0.960 . S
H2184 C2168 0.931 . S
H2185 C2173 0.929 . S
H2186 C2174 0.960 . S
H2187 C2174 0.962 . S
H2188 C2174 0.960 . S
H2189 C2175 0.961 . S
H2190 C2175 0.961 . S
H2191 C2175 0.961 . S
H2192 C2176 0.931 . S
H2193 C2181 0.930 . S
H2194 C2182 0.956 . S
H2195 C2182 0.961 . S
H2196 C2182 0.961 . S
H2197 C2183 0.958 . S
H2198 C2183 0.961 . S
H2199 C2183 0.960 . S
C2200 C2201 1.391 . S
C2200 C2202 1.394 . S
C2200 H2216 0.931 . S
C2201 C2200 1.391 . S
C2201 C2205 1.376 . S
C2202 C2200 1.394 . S
C2202 C2203 1.369 . S
C2202 C2206 1.531 . S
C2203 C2202 1.369 . S
C2203 C2204 1.410 . S
C2203 C2211 1.503 . S
C2204 C2203 1.410 . S
C2204 C2205 1.392 . S
C2204 C2207 1.511 . S
C2205 C2201 1.376 . S
C2205 C2204 1.392 . S
C2205 H2217 0.929 . S
C2206 C2202 1.531 . S
C2206 H2218 0.960 1_556 S
C2206 H2219 0.962 . S
C2206 H2220 0.935 1_556 S
C2207 C2204 1.511 . S
C2207 H2221 0.961 . S
C2207 H2222 0.961 . S
C2207 H2223 0.961 . S
C2208 C2209 1.370 . S
C2208 C2210 1.363 . S
C2208 H2224 0.931 . S
C2209 C2208 1.370 . S
C2209 C2213 1.408 1_556 S
C2210 C2208 1.363 . S
C2210 C2211 1.370 . S
C2210 C2214 1.524 . S
C2211 C2203 1.503 . S
C2211 C2210 1.370 . S
C2211 C2212 1.403 1_556 S
C2212 C2211 1.403 1_554 S
C2212 C2213 1.404 . S
C2212 C2215 1.539 . S
C2213 C2209 1.408 1_554 S
C2213 C2212 1.404 . S
C2213 H2225 0.930 . S
C2214 C2210 1.524 . S
C2214 H2226 0.956 . S
C2214 H2227 0.961 . S
C2214 H2228 0.961 . S
C2215 C2212 1.539 . S
C2215 H2229 0.958 . S
C2215 H2230 0.961 . S
C2215 H2231 0.960 . S
H2216 C2200 0.931 . S
H2217 C2205 0.929 . S
H2218 C2206 0.960 1_554 S
H2219 C2206 0.962 . S
H2220 C2206 0.935 1_554 S
H2221 C2207 0.961 . S
H2222 C2207 0.961 . S
H2223 C2207 0.961 . S
H2224 C2208 0.931 . S
H2225 C2213 0.930 . S
H2226 C2214 0.956 . S
H2227 C2214 0.961 . S
H2228 C2214 0.961 . S
H2229 C2215 0.958 . S
H2230 C2215 0.961 . S
H2231 C2215 0.960 . S
C2232 C2233 1.391 . S
C2232 C2234 1.394 . S
C2232 H2248 0.931 . S
C2233 C2232 1.391 . S
C2233 C2237 1.376 . S
C2234 C2232 1.394 . S
C2234 C2235 1.369 . S
C2234 C2238 1.531 . S
C2235 C2234 1.369 . S
C2235 C2236 1.410 . S
C2235 C2243 1.503 . S
C2236 C2235 1.410 . S
C2236 C2237 1.392 . S
C2236 C2239 1.511 . S
C2237 C2233 1.376 . S
C2237 C2236 1.392 . S
C2237 H2249 0.929 . S
C2238 C2234 1.531 . S
C2238 H2250 0.960 . S
C2238 H2251 0.962 . S
C2238 H2252 0.960 . S
C2239 C2236 1.511 . S
C2239 H2253 0.961 . S
C2239 H2254 0.961 . S
C2239 H2255 0.961 . S
C2240 C2241 1.370 . S
C2240 C2242 1.363 . S
C2240 H2256 0.931 . S
C2241 C2240 1.370 . S
C2241 C2245 1.408 . S
C2242 C2240 1.363 . S
C2242 C2243 1.370 . S
C2242 C2246 1.524 . S
C2243 C2235 1.503 . S
C2243 C2242 1.370 . S
C2243 C2244 1.403 . S
C2244 C2243 1.403 . S
C2244 C2245 1.404 . S
C2244 C2247 1.539 . S
C2245 C2241 1.408 . S
C2245 C2244 1.404 . S
C2245 H2257 0.930 . S
C2246 C2242 1.524 . S
C2246 H2258 0.956 . S
C2246 H2259 0.961 . S
C2246 H2260 0.961 . S
C2247 C2244 1.539 . S
C2247 H2261 0.958 . S
C2247 H2262 0.961 . S
C2247 H2263 0.960 . S
H2248 C2232 0.931 . S
H2249 C2237 0.929 . S
H2250 C2238 0.960 . S
H2251 C2238 0.962 . S
H2252 C2238 0.960 . S
H2253 C2239 0.961 . S
H2254 C2239 0.961 . S
H2255 C2239 0.961 . S
H2256 C2240 0.931 . S
H2257 C2245 0.930 . S
H2258 C2246 0.956 . S
H2259 C2246 0.961 . S
H2260 C2246 0.961 . S
H2261 C2247 0.958 . S
H2262 C2247 0.961 . S
H2263 C2247 0.960 . S
C2264 C2265 1.391 . S
C2264 C2266 1.394 . S
C2264 H2280 0.931 . S
C2265 C2264 1.391 . S
C2265 C2269 1.376 . S
C2266 C2264 1.394 . S
C2266 C2267 1.369 . S
C2266 C2270 1.531 . S
C2267 C2266 1.369 . S
C2267 C2268 1.410 . S
C2267 C2275 1.503 . S
C2268 C2267 1.410 . S
C2268 C2269 1.392 . S
C2268 C2271 1.511 . S
C2269 C2265 1.376 . S
C2269 C2268 1.392 . S
C2269 H2281 0.929 . S
C2270 C2266 1.531 . S
C2270 H2282 0.960 . S
C2270 H2283 0.962 1_554 S
C2270 H2284 0.960 . S
C2271 C2268 1.511 . S
C2271 H2285 0.961 . S
C2271 H2286 0.961 . S
C2271 H2287 0.961 . S
C2272 C2273 1.370 . S
C2272 C2274 1.363 . S
C2272 H2288 0.931 1_554 S
C2273 C2272 1.370 . S
C2273 C2277 1.408 . S
C2274 C2272 1.363 . S
C2274 C2275 1.370 . S
C2274 C2278 1.524 . S
C2275 C2267 1.503 . S
C2275 C2274 1.370 . S
C2275 C2276 1.403 . S
C2276 C2275 1.403 . S
C2276 C2277 1.404 . S
C2276 C2279 1.539 . S
C2277 C2273 1.408 . S
C2277 C2276 1.404 . S
C2277 H2289 0.930 . S
C2278 C2274 1.524 . S
C2278 H2290 0.956 1_554 S
C2278 H2291 0.961 . S
C2278 H2292 0.961 1_554 S
C2279 C2276 1.539 . S
C2279 H2293 0.958 . S
C2279 H2294 0.961 . S
C2279 H2295 0.960 . S
H2280 C2264 0.931 . S
H2281 C2269 0.929 . S
H2282 C2270 0.960 . S
H2283 C2270 0.962 1_556 S
H2284 C2270 0.960 . S
H2285 C2271 0.961 . S
H2286 C2271 0.961 . S
H2287 C2271 0.961 . S
H2288 C2272 0.931 1_556 S
H2289 C2277 0.930 . S
H2290 C2278 0.956 1_556 S
H2291 C2278 0.961 . S
H2292 C2278 0.961 1_556 S
H2293 C2279 0.958 . S
H2294 C2279 0.961 . S
H2295 C2279 0.960 . S
C2296 C2297 1.391 . S
C2296 C2298 1.394 . S
C2296 H2312 0.931 . S
C2297 C2296 1.391 . S
C2297 C2301 1.376 . S
C2298 C2296 1.394 . S
C2298 C2299 1.369 . S
C2298 C2302 1.531 . S
C2299 C2298 1.369 . S
C2299 C2300 1.410 . S
C2299 C2307 1.503 . S
C2300 C2299 1.410 . S
C2300 C2301 1.392 . S
C2300 C2303 1.511 . S
C2301 C2297 1.376 . S
C2301 C2300 1.392 . S
C2301 H2313 0.891 1_565 S
C2302 C2298 1.531 . S
C2302 H2314 0.960 . S
C2302 H2315 0.962 . S
C2302 H2316 0.960 . S
C2303 C2300 1.511 . S
C2303 H2317 0.961 . S
C2303 H2318 0.961 . S
C2303 H2319 0.961 . S
C2304 C2305 1.370 . S
C2304 C2306 1.363 . S
C2304 H2320 0.931 . S
C2305 C2304 1.370 . S
C2305 C2309 1.408 1_554 S
C2306 C2304 1.363 . S
C2306 C2307 1.370 . S
C2306 C2310 1.524 . S
C2307 C2299 1.503 . S
C2307 C2306 1.370 . S
C2307 C2308 1.403 1_554 S
C2308 C2307 1.403 1_556 S
C2308 C2309 1.404 . S
C2308 C2311 1.539 . S
C2309 C2305 1.408 1_556 S
C2309 C2308 1.404 . S
C2309 H2321 0.930 . S
C2310 C2306 1.524 . S
C2310 H2322 0.956 . S
C2310 H2323 0.961 . S
C2310 H2324 0.961 . S
C2311 C2308 1.539 . S
C2311 H2325 0.958 . S
C2311 H2326 0.961 . S
C2311 H2327 0.960 . S
H2312 C2296 0.931 . S
H2313 C2301 0.891 1_545 S
H2314 C2302 0.960 . S
H2315 C2302 0.962 . S
H2316 C2302 0.960 . S
H2317 C2303 0.961 . S
H2318 C2303 0.961 . S
H2319 C2303 0.961 . S
H2320 C2304 0.931 . S
H2321 C2309 0.930 . S
H2322 C2310 0.956 . S
H2323 C2310 0.961 . S
H2324 C2310 0.961 . S
H2325 C2311 0.958 . S
H2326 C2311 0.961 . S
H2327 C2311 0.960 . S
C801 C632 1.483 . S
C793 C211 1.509 . S
C833 C645 1.470 . S
C825 C255 1.474 . S
C857 C274 1.652 . S
C865 C665 1.531 . S
C897 C679 1.358 . S
C889 C157 1.434 1_655 S
C929 C691 1.522 . S
C921 C391 1.524 . S
C961 C705 1.426 . S
C953 C484 1.423 . S
C985 C450 1.478 . S
C993 C715 1.482 . S
C1025 C730 1.518 . S
C1017 C352 1.547 . S
C1049 C430 1.512 . S
C1057 C744 1.495 . S
C1089 C763 1.394 . S
C1081 C367 1.455 . S
C1113 C411 1.504 . S
C1121 C743 1.497 . S
C1153 C761 1.422 . S
C1145 C469 1.423 . S
C1177 C294 1.634 . S
C1185 C777 1.553 . S
C1209 C177 1.485 . S
C1217 C771 1.479 . S
C1241 C196 1.514 . S
C1249 C775 1.514 . S
C1273 C235 1.534 . S
C1281 C772 1.516 . S
C1305 C133 1.516 . S
C1313 C674 1.483 . S
C1337 C567 1.483 . S
C1345 C673 1.481 . S
C1377 C637 1.381 . S
C1369 C601 1.438 1_565 S
C1409 C651 1.549 . S
C1401 C328 1.646 . S
C1433 C172 1.533 . S
C1441 C688 1.514 . S
C1473 C733 1.511 . S
C1465 C445 1.515 . S
C1505 C687 1.500 . S
C1497 C372 1.504 . S
C1537 C719 1.417 . S
C1529 C489 1.416 . S
C1569 C716 1.477 . S
C1561 C562 1.508 . S
C1593 C606 1.481 . S
C1601 C729 1.480 . S
C1625 C313 1.641 . S
C1633 C693 1.556 . S
C1665 C707 1.386 . S
C1657 C508 1.449 . S
C1689 C118 1.524 . S
C1697 C663 1.520 . S
C1729 C677 1.426 . S
C1721 C16 1.420 . S
C1761 C631 1.482 . S
C1753 C60 1.477 . S
C1793 C646 1.519 . S
C1785 C79 1.547 . S
C1817 C40 1.507 . S
C1825 C758 1.476 . S
C1849 C94 1.455 1_556 S
C1857 C749 1.391 . S
C1881 C138 1.505 . S
C1889 C757 1.493 . S
C1913 C1 1.417 . S
C1921 C747 1.419 . S
C1953 C791 1.542 . S
C1945 C333 1.635 . S
C1985 C785 1.479 . S
C1977 C528 1.477 . S
C2017 C789 1.512 . S
C2009 C547 1.513 . S
C2041 C586 1.539 . S
C2049 C786 1.498 . S
C2073 C406 1.517 . S
C2081 C702 1.501 . S
C2113 C701 1.478 . S
C2105 C216 1.484 . S
C2145 C721 1.351 . S
C2137 C250 1.426 . S
C2177 C735 1.547 . S
C2169 C289 1.646 . S
C2201 C523 1.538 . S
C2209 C660 1.517 . S
C2241 C649 1.517 . S
C2233 C55 1.517 . S
C2265 C99 1.504 . S
C2273 C659 1.501 . S
C2305 C635 1.417 . S
C2297 C21 1.416 . S
