# Generated by pormake.
# Topology ssb, (4,4)-cn, num edge types: 1
# Building blocks:
#     Node 0, Type 0, BuildingBlock: NAWXER_clean_linker_0, # of connection points: 4
#     Node 1, Type 0, BuildingBlock: NAWXER_clean_linker_0, # of connection points: 4
#     Node 2, Type 0, BuildingBlock: NAWXER_clean_linker_0, # of connection points: 4
#     Node 3, Type 0, BuildingBlock: NAWXER_clean_linker_0, # of connection points: 4
#     Node 4, Type 0, BuildingBlock: NAWXER_clean_linker_0, # of connection points: 4
#     Node 5, Type 0, BuildingBlock: NAWXER_clean_linker_0, # of connection points: 4
#     Node 6, Type 0, BuildingBlock: NAWXER_clean_linker_0, # of connection points: 4
#     Node 7, Type 0, BuildingBlock: NAWXER_clean_linker_0, # of connection points: 4
#     Node 8, Type 1, BuildingBlock: NAWXER_clean_sbu_0, # of connection points: 4
#     Node 9, Type 1, BuildingBlock: NAWXER_clean_sbu_0, # of connection points: 4
#     Node 10, Type 1, BuildingBlock: NAWXER_clean_sbu_0, # of connection points: 4
#     Node 11, Type 1, BuildingBlock: NAWXER_clean_sbu_0, # of connection points: 4
#     Node 12, Type 1, BuildingBlock: NAWXER_clean_sbu_0, # of connection points: 4
#     Node 13, Type 1, BuildingBlock: NAWXER_clean_sbu_0, # of connection points: 4
#     Node 14, Type 1, BuildingBlock: NAWXER_clean_sbu_0, # of connection points: 4
#     Node 15, Type 1, BuildingBlock: NAWXER_clean_sbu_0, # of connection points: 4
#     Edge 16, Type (0, 1), BuildingBlock: TEMPAE_clean_linker_10, # of connection points: 2
#     Edge 17, Type (0, 1), BuildingBlock: TEMPAE_clean_linker_10, # of connection points: 2
#     Edge 18, Type (0, 1), BuildingBlock: TEMPAE_clean_linker_10, # of connection points: 2
#     Edge 19, Type (0, 1), BuildingBlock: TEMPAE_clean_linker_10, # of connection points: 2
#     Edge 20, Type (0, 1), BuildingBlock: TEMPAE_clean_linker_10, # of connection points: 2
#     Edge 21, Type (0, 1), BuildingBlock: TEMPAE_clean_linker_10, # of connection points: 2
#     Edge 22, Type (0, 1), BuildingBlock: TEMPAE_clean_linker_10, # of connection points: 2
#     Edge 23, Type (0, 1), BuildingBlock: TEMPAE_clean_linker_10, # of connection points: 2
#     Edge 24, Type (0, 1), BuildingBlock: TEMPAE_clean_linker_10, # of connection points: 2
#     Edge 25, Type (0, 1), BuildingBlock: TEMPAE_clean_linker_10, # of connection points: 2
#     Edge 26, Type (0, 1), BuildingBlock: TEMPAE_clean_linker_10, # of connection points: 2
#     Edge 27, Type (0, 1), BuildingBlock: TEMPAE_clean_linker_10, # of connection points: 2
#     Edge 28, Type (0, 1), BuildingBlock: TEMPAE_clean_linker_10, # of connection points: 2
#     Edge 29, Type (0, 1), BuildingBlock: TEMPAE_clean_linker_10, # of connection points: 2
#     Edge 30, Type (0, 1), BuildingBlock: TEMPAE_clean_linker_10, # of connection points: 2
#     Edge 31, Type (0, 1), BuildingBlock: TEMPAE_clean_linker_10, # of connection points: 2
#     Edge 32, Type (0, 1), BuildingBlock: TEMPAE_clean_linker_10, # of connection points: 2
#     Edge 33, Type (0, 1), BuildingBlock: TEMPAE_clean_linker_10, # of connection points: 2
#     Edge 34, Type (0, 1), BuildingBlock: TEMPAE_clean_linker_10, # of connection points: 2
#     Edge 35, Type (0, 1), BuildingBlock: TEMPAE_clean_linker_10, # of connection points: 2
#     Edge 36, Type (0, 1), BuildingBlock: TEMPAE_clean_linker_10, # of connection points: 2
#     Edge 37, Type (0, 1), BuildingBlock: TEMPAE_clean_linker_10, # of connection points: 2
#     Edge 38, Type (0, 1), BuildingBlock: TEMPAE_clean_linker_10, # of connection points: 2
#     Edge 39, Type (0, 1), BuildingBlock: TEMPAE_clean_linker_10, # of connection points: 2
#     Edge 40, Type (0, 1), BuildingBlock: TEMPAE_clean_linker_10, # of connection points: 2
#     Edge 41, Type (0, 1), BuildingBlock: TEMPAE_clean_linker_10, # of connection points: 2
#     Edge 42, Type (0, 1), BuildingBlock: TEMPAE_clean_linker_10, # of connection points: 2
#     Edge 43, Type (0, 1), BuildingBlock: TEMPAE_clean_linker_10, # of connection points: 2
#     Edge 44, Type (0, 1), BuildingBlock: TEMPAE_clean_linker_10, # of connection points: 2
#     Edge 45, Type (0, 1), BuildingBlock: TEMPAE_clean_linker_10, # of connection points: 2
#     Edge 46, Type (0, 1), BuildingBlock: TEMPAE_clean_linker_10, # of connection points: 2
#     Edge 47, Type (0, 1), BuildingBlock: TEMPAE_clean_linker_10, # of connection points: 2
# Relax obj value: 0.000
# Max RMSD: 0.001
# Mean RMSD: 0.001
data_MOF--net-ssb--node1-NAWXER_clean_sbu_0--node2-NAWXER_clean_linker_0--edge1-TEMPAE_clean_linker_10
_symmetry_space_group_name_H-M    P1
_symmetry_Int_Tables_number       1
_symmetry_cell_setting            triclinic
loop_
_symmetry_equiv_pos_as_xyz
'x, y, z'
_cell_length_a     54.522885
_cell_length_b     54.650553
_cell_length_c     47.665171
_cell_angle_alpha  90.000768
_cell_angle_beta   90.019609
_cell_angle_gamma 89.99618
loop_
_atom_site_label
_atom_site_type_symbol
_atom_site_fract_x
_atom_site_fract_y
_atom_site_fract_z
_atom_type_partial_charge
C0 C 0.29384 0.22701 0.14761 0.0
C1 C 0.31803 0.22774 0.15806 0.0
C2 C 0.27378 0.23025 0.16559 0.0
C3 C 0.27748 0.23422 0.19438 0.0
C4 C 0.32151 0.2316 0.187 0.0
C5 C 0.30147 0.23453 0.20495 0.0
C6 C 0.25659 0.23728 0.2139 0.0
C7 C 0.25497 0.30604 0.15968 0.0
C8 C 0.23183 0.31199 0.14863 0.0
C9 C 0.25745 0.28686 0.17896 0.0
C10 C 0.2369 0.27292 0.18688 0.0
C11 C 0.21144 0.29779 0.1561 0.0
C12 C 0.21398 0.27841 0.17492 0.0
C13 C 0.23792 0.25498 0.2102 0.0
C14 C 0.1866 0.25338 0.32195 0.0
C15 C 0.16286 0.25982 0.313 0.0
C16 C 0.20471 0.24711 0.30249 0.0
C17 C 0.19936 0.2466 0.27365 0.0
C18 C 0.15767 0.25967 0.28409 0.0
C19 C 0.17572 0.25316 0.26467 0.0
C20 C 0.21873 0.24156 0.25257 0.0
C21 C 0.21244 0.17187 0.30142 0.0
C22 C 0.23282 0.16681 0.3185 0.0
C23 C 0.21363 0.19026 0.28108 0.0
C24 C 0.23525 0.20388 0.27738 0.0
C25 C 0.25448 0.18039 0.31469 0.0
C26 C 0.25575 0.19859 0.29409 0.0
C27 C 0.23666 0.22308 0.25552 0.0
H28 H 0.29035 0.22365 0.12559 0.0
H29 H 0.25538 0.22943 0.15706 0.0
H30 H 0.33977 0.23277 0.19583 0.0
H31 H 0.30474 0.2375 0.22712 0.0
H32 H 0.27089 0.31699 0.15447 0.0
H33 H 0.27517 0.28378 0.18858 0.0
H34 H 0.19344 0.30201 0.14777 0.0
H35 H 0.19779 0.26812 0.18081 0.0
H36 H 0.19122 0.25307 0.34405 0.0
H37 H 0.22299 0.24312 0.31006 0.0
H38 H 0.13974 0.26491 0.27639 0.0
H39 H 0.17123 0.25339 0.24253 0.0
H40 H 0.19552 0.16172 0.30394 0.0
H41 H 0.1977 0.1937 0.26807 0.0
H42 H 0.27056 0.17666 0.32734 0.0
H43 H 0.27267 0.20872 0.2914 0.0
N44 N 0.25514 0.22194 0.23636 0.0
N45 N 0.21994 0.25644 0.22984 0.0
C46 C 0.67224 0.29062 0.20269 0.0
C47 C 0.66117 0.27058 0.18935 0.0
C48 C 0.69236 0.2871 0.22043 0.0
C49 C 0.70239 0.26358 0.22415 0.0
C50 C 0.67029 0.24695 0.19429 0.0
C51 C 0.69076 0.24349 0.21148 0.0
C52 C 0.72473 0.25952 0.24137 0.0
C53 C 0.74245 0.30932 0.17115 0.0
C54 C 0.7468 0.33345 0.18019 0.0
C55 C 0.74354 0.28986 0.1901 0.0
C56 C 0.74845 0.29414 0.21861 0.0
C57 C 0.75319 0.33745 0.20845 0.0
C58 C 0.75407 0.31795 0.22747 0.0
C59 C 0.74606 0.27417 0.23943 0.0
C60 C 0.81717 0.21842 0.31424 0.0
C61 C 0.82937 0.23828 0.32661 0.0
C62 C 0.79664 0.22228 0.29718 0.0
C63 C 0.78731 0.24603 0.29299 0.0
C64 C 0.82076 0.2621 0.32146 0.0
C65 C 0.79991 0.26592 0.30488 0.0
C66 C 0.76502 0.25047 0.27562 0.0
C67 C 0.73765 0.20041 0.34512 0.0
C68 C 0.73307 0.17653 0.33522 0.0
C69 C 0.74158 0.21967 0.32634 0.0
C70 C 0.74072 0.21548 0.29734 0.0
C71 C 0.73239 0.17255 0.30603 0.0
C72 C 0.73583 0.19189 0.28734 0.0
C73 C 0.74371 0.23575 0.27724 0.0
H74 H 0.66526 0.30896 0.19944 0.0
H75 H 0.70023 0.3028 0.23094 0.0
H76 H 0.662 0.23123 0.18419 0.0
H77 H 0.69786 0.22515 0.21433 0.0
H78 H 0.73738 0.30551 0.14963 0.0
H79 H 0.73959 0.27154 0.18269 0.0
H80 H 0.75725 0.3557 0.21599 0.0
H81 H 0.75819 0.32161 0.2493 0.0
H82 H 0.82372 0.19991 0.31746 0.0
H83 H 0.78824 0.20663 0.28714 0.0
H84 H 0.82987 0.27774 0.33077 0.0
H85 H 0.79341 0.28445 0.3017 0.0
H86 H 0.73787 0.20435 0.36737 0.0
H87 H 0.74491 0.2379 0.33442 0.0
H88 H 0.72949 0.15442 0.29751 0.0
H89 H 0.73504 0.18836 0.26498 0.0
N90 N 0.72455 0.24076 0.26 0.0
N91 N 0.76527 0.26928 0.25683 0.0
C92 C 0.70857 0.76967 0.1536 0.0
C93 C 0.68437 0.76788 0.16381 0.0
C94 C 0.72863 0.76683 0.17166 0.0
C95 C 0.72492 0.76231 0.20033 0.0
C96 C 0.68087 0.76344 0.19265 0.0
C97 C 0.70091 0.76097 0.21071 0.0
C98 C 0.74582 0.75952 0.21985 0.0
C99 C 0.74802 0.69114 0.1652 0.0
C100 C 0.77119 0.68555 0.15403 0.0
C101 C 0.7454 0.71009 0.18474 0.0
C102 C 0.76583 0.72416 0.19277 0.0
C103 C 0.79147 0.69983 0.16166 0.0
C104 C 0.78878 0.71899 0.18073 0.0
C105 C 0.76464 0.74201 0.21615 0.0
C106 C 0.81657 0.74467 0.32758 0.0
C107 C 0.84025 0.73821 0.31846 0.0
C108 C 0.79829 0.75073 0.30822 0.0
C109 C 0.8034 0.75098 0.27933 0.0
C110 C 0.8452 0.73813 0.28951 0.0
C111 C 0.82699 0.74442 0.2702 0.0
C112 C 0.78385 0.75574 0.25836 0.0
C113 C 0.79008 0.82603 0.306 0.0
C114 C 0.76973 0.83135 0.32302 0.0
C115 C 0.78887 0.8073 0.2861 0.0
C116 C 0.76728 0.79356 0.2828 0.0
C117 C 0.74811 0.81763 0.31963 0.0
C118 C 0.74682 0.79907 0.29948 0.0
C119 C 0.7658 0.7741 0.26126 0.0
H120 H 0.71207 0.77353 0.13169 0.0
H121 H 0.74703 0.76839 0.1633 0.0
H122 H 0.66262 0.76145 0.20131 0.0
H123 H 0.69765 0.75753 0.23278 0.0
H124 H 0.73219 0.6801 0.15985 0.0
H125 H 0.72767 0.7129 0.19442 0.0
H126 H 0.80949 0.69586 0.15324 0.0
H127 H 0.80488 0.7294 0.18671 0.0
H128 H 0.81213 0.74517 0.34971 0.0
H129 H 0.78005 0.75474 0.31592 0.0
H130 H 0.86309 0.73286 0.28169 0.0
H131 H 0.83132 0.74401 0.24802 0.0
H132 H 0.80697 0.83629 0.30819 0.0
H133 H 0.80474 0.8037 0.27307 0.0
H134 H 0.73207 0.82156 0.33225 0.0
H135 H 0.72992 0.78885 0.29708 0.0
N136 N 0.74722 0.77499 0.24219 0.0
N137 N 0.78269 0.74076 0.23572 0.0
C138 C 0.32947 0.71437 0.20065 0.0
C139 C 0.33594 0.73308 0.18183 0.0
C140 C 0.31017 0.71775 0.21957 0.0
C141 C 0.29706 0.73989 0.21995 0.0
C142 C 0.32316 0.75541 0.18276 0.0
C143 C 0.30402 0.75884 0.20182 0.0
C144 C 0.27586 0.74334 0.23886 0.0
C145 C 0.25779 0.69018 0.17222 0.0
C146 C 0.25503 0.66618 0.18242 0.0
C147 C 0.25667 0.71015 0.19043 0.0
C148 C 0.25337 0.70658 0.21936 0.0
C149 C 0.25037 0.66278 0.21123 0.0
C150 C 0.24951 0.68282 0.22951 0.0
C151 C 0.25545 0.72743 0.2391 0.0
C152 C 0.18547 0.78253 0.31559 0.0
C153 C 0.174 0.76256 0.32863 0.0
C154 C 0.20569 0.77889 0.29803 0.0
C155 C 0.21547 0.7553 0.29398 0.0
C156 C 0.18307 0.73888 0.32373 0.0
C157 C 0.20364 0.7353 0.30665 0.0
C158 C 0.23724 0.75114 0.27572 0.0
C159 C 0.26594 0.80183 0.34348 0.0
C160 C 0.27012 0.82578 0.33361 0.0
C161 C 0.26153 0.78267 0.3247 0.0
C162 C 0.26145 0.78702 0.29571 0.0
C163 C 0.26992 0.82995 0.30445 0.0
C164 C 0.26597 0.8107 0.28572 0.0
C165 C 0.25796 0.76678 0.27562 0.0
H166 H 0.33902 0.69699 0.20037 0.0
H167 H 0.30531 0.70302 0.23372 0.0
H168 H 0.32804 0.77027 0.16879 0.0
H169 H 0.29425 0.77611 0.20195 0.0
H170 H 0.26155 0.69358 0.15026 0.0
H171 H 0.25914 0.72838 0.18199 0.0
H172 H 0.24758 0.64461 0.21972 0.0
H173 H 0.24667 0.67968 0.25172 0.0
H174 H 0.17853 0.80091 0.31863 0.0
H175 H 0.21345 0.79459 0.28743 0.0
H176 H 0.1745 0.72318 0.33355 0.0
H177 H 0.21048 0.71688 0.30359 0.0
H178 H 0.26642 0.79775 0.36569 0.0
H179 H 0.25857 0.76438 0.33278 0.0
H180 H 0.27253 0.84814 0.29599 0.0
H181 H 0.26606 0.81438 0.26338 0.0
N182 N 0.27629 0.76243 0.25701 0.0
N183 N 0.23694 0.73183 0.2576 0.0
C184 C 0.17029 0.76381 0.69675 0.0
C185 C 0.16961 0.74187 0.68135 0.0
C186 C 0.18932 0.76832 0.71571 0.0
C187 C 0.20801 0.75097 0.71952 0.0
C188 C 0.18831 0.72452 0.68528 0.0
C189 C 0.20721 0.72895 0.7044 0.0
C190 C 0.22759 0.75483 0.74047 0.0
C191 C 0.23802 0.80946 0.67184 0.0
C192 C 0.23814 0.83409 0.68048 0.0
C193 C 0.24006 0.79056 0.69144 0.0
C194 C 0.24143 0.79574 0.72028 0.0
C195 C 0.2405 0.83923 0.70931 0.0
C196 C 0.2421 0.82027 0.72895 0.0
C197 C 0.24266 0.77585 0.74148 0.0
C198 C 0.31642 0.74726 0.83112 0.0
C199 C 0.32178 0.77074 0.8413 0.0
C200 C 0.29721 0.7437 0.81213 0.0
C201 C 0.28233 0.76343 0.8037 0.0
C202 C 0.30747 0.79062 0.83238 0.0
C203 C 0.28785 0.78697 0.81388 0.0
C204 C 0.26231 0.76018 0.78275 0.0
C205 C 0.23792 0.70642 0.85086 0.0
C206 C 0.23839 0.6818 0.84213 0.0
C207 C 0.24186 0.72533 0.83155 0.0
C208 C 0.2463 0.71992 0.80322 0.0
C209 C 0.2437 0.67657 0.81387 0.0
C210 C 0.24733 0.69542 0.79461 0.0
C211 C 0.24685 0.73939 0.78176 0.0
H212 H 0.15618 0.77756 0.69398 0.0
H213 H 0.18932 0.78521 0.72759 0.0
H214 H 0.1881 0.70737 0.6739 0.0
H215 H 0.2213 0.7152 0.70733 0.0
H216 H 0.23612 0.80467 0.64991 0.0
H217 H 0.24051 0.77187 0.68394 0.0
H218 H 0.24133 0.85791 0.71679 0.0
H219 H 0.2436 0.82481 0.75102 0.0
H220 H 0.32757 0.73174 0.83726 0.0
H221 H 0.29453 0.72557 0.80357 0.0
H222 H 0.31138 0.80892 0.83987 0.0
H223 H 0.27702 0.80261 0.80745 0.0
H224 H 0.23369 0.71113 0.87238 0.0
H225 H 0.24049 0.74416 0.83851 0.0
H226 H 0.24484 0.65786 0.8065 0.0
H227 H 0.25064 0.69087 0.77281 0.0
N228 N 0.23036 0.73751 0.76056 0.0
N229 N 0.25939 0.77768 0.76263 0.0
C230 C 0.33234 0.29067 0.79898 0.0
C231 C 0.33846 0.27201 0.81802 0.0
C232 C 0.31332 0.28731 0.77968 0.0
C233 C 0.30009 0.26525 0.77914 0.0
C234 C 0.3256 0.24972 0.81689 0.0
C235 C 0.30671 0.24632 0.79748 0.0
C236 C 0.27903 0.26197 0.75992 0.0
C237 C 0.26018 0.31426 0.82686 0.0
C238 C 0.25848 0.33854 0.81726 0.0
C239 C 0.25911 0.29474 0.80804 0.0
C240 C 0.2569 0.29901 0.7791 0.0
C241 C 0.25498 0.34271 0.78835 0.0
C242 C 0.25414 0.32309 0.76945 0.0
C243 C 0.25906 0.27845 0.75899 0.0
C244 C 0.18717 0.22472 0.68548 0.0
C245 C 0.17949 0.24321 0.66697 0.0
C246 C 0.20706 0.22857 0.70348 0.0
C247 C 0.21969 0.25099 0.70336 0.0
C248 C 0.19197 0.26576 0.66714 0.0
C249 C 0.21175 0.26967 0.68535 0.0
C250 C 0.241 0.25499 0.72218 0.0
C251 C 0.26801 0.20165 0.6567 0.0
C252 C 0.27075 0.17772 0.66726 0.0
C253 C 0.26433 0.22137 0.67487 0.0
C254 C 0.26359 0.21762 0.70396 0.0
C255 C 0.26984 0.17414 0.69651 0.0
C256 C 0.26662 0.19394 0.71466 0.0
C257 C 0.26095 0.2385 0.72334 0.0
H258 H 0.34194 0.30802 0.79937 0.0
H259 H 0.30875 0.30203 0.76538 0.0
H260 H 0.33021 0.23488 0.83101 0.0
H261 H 0.29685 0.22911 0.79724 0.0
H262 H 0.26307 0.31027 0.84886 0.0
H263 H 0.26077 0.27627 0.81605 0.0
H264 H 0.25306 0.36113 0.78029 0.0
H265 H 0.25219 0.32677 0.74723 0.0
H266 H 0.17797 0.20715 0.68581 0.0
H267 H 0.21252 0.21402 0.7176 0.0
H268 H 0.18625 0.28048 0.6534 0.0
H269 H 0.22108 0.28717 0.68507 0.0
H270 H 0.26909 0.20526 0.6344 0.0
H271 H 0.26253 0.23962 0.66624 0.0
H272 H 0.27138 0.156 0.70546 0.0
H273 H 0.26617 0.19074 0.73709 0.0
N274 N 0.27913 0.24252 0.74224 0.0
N275 N 0.24082 0.2745 0.73998 0.0
C276 C 0.83452 0.24119 0.69354 0.0
C277 C 0.83496 0.26281 0.67754 0.0
C278 C 0.81537 0.23673 0.71235 0.0
C279 C 0.79632 0.25379 0.7154 0.0
C280 C 0.81593 0.2799 0.68077 0.0
C281 C 0.7969 0.27552 0.69973 0.0
C282 C 0.77647 0.24992 0.73603 0.0
C283 C 0.76782 0.19371 0.6687 0.0
C284 C 0.76787 0.16924 0.67793 0.0
C285 C 0.76546 0.21293 0.68782 0.0
C286 C 0.76393 0.20824 0.71676 0.0
C287 C 0.76548 0.16459 0.70686 0.0
C288 C 0.76356 0.18387 0.72603 0.0
C289 C 0.76197 0.22849 0.73742 0.0
C290 C 0.68315 0.25765 0.81871 0.0
C291 C 0.68038 0.236 0.83431 0.0
C292 C 0.70307 0.26063 0.8006 0.0
C293 C 0.72066 0.24202 0.79768 0.0
C294 C 0.698 0.21738 0.83142 0.0
C295 C 0.71782 0.22027 0.81303 0.0
C296 C 0.74115 0.2447 0.77749 0.0
C297 C 0.76223 0.2995 0.84507 0.0
C298 C 0.76227 0.32404 0.83603 0.0
C299 C 0.75877 0.28047 0.82585 0.0
C300 C 0.75536 0.28563 0.79727 0.0
C301 C 0.75786 0.32906 0.80752 0.0
C302 C 0.75472 0.31005 0.78833 0.0
C303 C 0.7559 0.26589 0.77614 0.0
H304 H 0.84889 0.22764 0.69133 0.0
H305 H 0.81555 0.22007 0.72467 0.0
H306 H 0.81594 0.29681 0.66892 0.0
H307 H 0.78253 0.28905 0.70205 0.0
H308 H 0.76976 0.19812 0.64667 0.0
H309 H 0.76477 0.23147 0.67987 0.0
H310 H 0.76479 0.14603 0.71477 0.0
H311 H 0.76195 0.17972 0.74818 0.0
H312 H 0.66994 0.27236 0.82062 0.0
H313 H 0.70449 0.27734 0.7885 0.0
H314 H 0.69621 0.20042 0.84301 0.0
H315 H 0.73101 0.20556 0.81088 0.0
H316 H 0.76583 0.29493 0.86679 0.0
H317 H 0.75992 0.26172 0.83311 0.0
H318 H 0.75716 0.34772 0.79991 0.0
H319 H 0.75222 0.31441 0.76633 0.0
N320 N 0.7728 0.26772 0.75539 0.0
N321 N 0.74488 0.2267 0.75818 0.0
C322 C 0.79706 0.75565 0.6524 0.0
C323 C 0.82102 0.7556 0.66347 0.0
C324 C 0.77682 0.75118 0.66968 0.0
C325 C 0.77998 0.74717 0.69859 0.0
C326 C 0.82413 0.75061 0.69224 0.0
C327 C 0.80385 0.74643 0.70956 0.0
C328 C 0.75863 0.74376 0.71754 0.0
C329 C 0.75239 0.81915 0.6802 0.0
C330 C 0.73018 0.82372 0.66631 0.0
C331 C 0.75494 0.79849 0.69722 0.0
C332 C 0.73561 0.78157 0.69967 0.0
C333 C 0.71053 0.80746 0.66963 0.0
C334 C 0.71326 0.7865 0.6861 0.0
C335 C 0.73783 0.75941 0.71741 0.0
C336 C 0.68486 0.73063 0.82166 0.0
C337 C 0.66068 0.7264 0.81249 0.0
C338 C 0.70386 0.73357 0.80236 0.0
C339 C 0.69911 0.73251 0.77348 0.0
C340 C 0.65601 0.72552 0.78343 0.0
C341 C 0.67504 0.72879 0.7641 0.0
C342 C 0.71939 0.7352 0.75319 0.0
C343 C 0.72094 0.66141 0.79034 0.0
C344 C 0.73902 0.65943 0.81122 0.0
C345 C 0.72189 0.68032 0.77068 0.0
C346 C 0.74086 0.69769 0.77157 0.0
C347 C 0.75859 0.67624 0.81132 0.0
C348 C 0.75957 0.69515 0.79153 0.0
C349 C 0.73991 0.71954 0.75327 0.0
H350 H 0.79386 0.7595 0.63042 0.0
H351 H 0.75865 0.75117 0.66048 0.0
H352 H 0.84228 0.74978 0.70142 0.0
H353 H 0.80681 0.743 0.73169 0.0
H354 H 0.76764 0.83174 0.67814 0.0
H355 H 0.77199 0.7958 0.70845 0.0
H356 H 0.69323 0.81079 0.6591 0.0
H357 H 0.69794 0.77399 0.68803 0.0
H358 H 0.68911 0.73208 0.84378 0.0
H359 H 0.72229 0.73684 0.80999 0.0
H360 H 0.6377 0.72205 0.77557 0.0
H361 H 0.67107 0.72791 0.74185 0.0
H362 H 0.70559 0.64884 0.78975 0.0
H363 H 0.70737 0.68183 0.75524 0.0
H364 H 0.773 0.67493 0.82689 0.0
H365 H 0.77438 0.70833 0.79252 0.0
N366 N 0.75891 0.72446 0.73567 0.0
N367 N 0.71901 0.75439 0.73519 0.0
C368 C 0.9706 0.26975 0.53486 0.0
C369 C 0.03408 0.27174 0.46238 0.0
O370 O 0.9802 0.28886 0.52421 0.0
Zn371 Zn 0.00205 0.27199 0.49856 0.0
O372 O 0.97785 0.24854 0.52686 0.0
Zn373 Zn 0.00346 0.23261 0.49811 0.0
O374 O 0.02627 0.21568 0.52299 0.0
O375 O 0.02776 0.25589 0.52707 0.0
O376 O 0.02812 0.25017 0.47029 0.0
O377 O 0.02308 0.29017 0.47275 0.0
O378 O 0.97629 0.25474 0.4712 0.0
O379 O 0.98194 0.21475 0.47243 0.0
C380 C 0.03539 0.23466 0.53447 0.0
C381 C 0.97034 0.23322 0.463 0.0
C382 C 0.76574 0.03077 0.53819 0.0
C383 C 0.76462 0.96847 0.46464 0.0
O384 O 0.78412 0.0215 0.52567 0.0
Zn385 Zn 0.76581 0.99981 0.50127 0.0
O386 O 0.744 0.02419 0.53125 0.0
Zn387 Zn 0.72677 1.00018 0.50153 0.0
O388 O 0.70861 0.97799 0.52522 0.0
O389 O 0.74881 0.9751 0.53036 0.0
O390 O 0.74309 0.9755 0.47189 0.0
O391 O 0.78329 0.97768 0.47663 0.0
O392 O 0.74916 0.02506 0.47266 0.0
O393 O 0.70897 0.02299 0.47814 0.0
C394 C 0.72708 0.96843 0.53725 0.0
C395 C 0.72754 0.03231 0.4661 0.0
C396 C 0.96895 0.76726 0.53738 0.0
C397 C 0.03382 0.7678 0.46591 0.0
O398 O 0.9779 0.78607 0.52541 0.0
Zn399 Zn 1.00084 0.76879 0.50108 0.0
O400 O 0.97674 0.74593 0.53061 0.0
Zn401 Zn 0.00251 0.72945 0.50248 0.0
O402 O 0.02448 0.7132 0.52847 0.0
O403 O 0.02661 0.75357 0.5302 0.0
O404 O 0.02806 0.74638 0.47463 0.0
O405 O 0.02211 0.78634 0.47495 0.0
O406 O 0.97622 0.75055 0.47381 0.0
O407 O 0.98151 0.71064 0.47721 0.0
C408 C 0.03399 0.73253 0.53866 0.0
C409 C 0.97035 0.72881 0.46647 0.0
C410 C 0.27644 0.03364 0.53611 0.0
C411 C 0.2768 0.96926 0.46535 0.0
O412 O 0.29508 0.02423 0.52426 0.0
Zn413 Zn 0.27729 0.00151 0.50071 0.0
O414 O 0.25484 0.02655 0.52923 0.0
Zn415 Zn 0.23818 0.00134 0.50052 0.0
O416 O 0.22036 0.97945 0.52523 0.0
O417 O 0.26053 0.97744 0.53065 0.0
O418 O 0.25514 0.97627 0.472 0.0
O419 O 0.29532 0.97879 0.47733 0.0
O420 O 0.26052 0.02571 0.47084 0.0
O421 O 0.22035 0.02307 0.47564 0.0
C422 C 0.23893 0.97054 0.53775 0.0
C423 C 0.2389 0.03239 0.4635 0.0
C424 C 0.47188 0.7322 0.03943 0.0
C425 C 0.53149 0.7317 0.96318 0.0
O426 O 0.479 0.75372 0.03247 0.0
Zn427 Zn 0.50274 0.77036 0.00214 0.0
O428 O 0.48018 0.71373 0.02631 0.0
Zn429 Zn 0.50142 0.73145 0.00093 0.0
O430 O 0.52872 0.74684 0.02858 0.0
O431 O 0.52654 0.7871 0.02534 0.0
O432 O 0.52102 0.71333 0.97431 0.0
O433 O 0.52619 0.75335 0.97163 0.0
O434 O 0.4798 0.78932 0.97966 0.0
O435 O 0.47575 0.74946 0.97392 0.0
C436 C 0.53648 0.76811 0.03578 0.0
C437 C 0.4692 0.77135 0.96785 0.0
C438 C 0.26283 0.52838 0.04244 0.0
C439 C 0.26412 0.47262 0.96195 0.0
O440 O 0.28178 0.5202 0.03001 0.0
Zn441 Zn 0.26466 0.50034 0.00239 0.0
O442 O 0.24146 0.52218 0.03377 0.0
Zn443 Zn 0.22528 0.50061 0.00126 0.0
O444 O 0.20711 0.47587 0.02184 0.0
O445 O 0.24724 0.47318 0.02763 0.0
O446 O 0.24252 0.47908 0.96953 0.0
O447 O 0.28266 0.48035 0.97554 0.0
O448 O 0.24857 0.52772 0.97627 0.0
O449 O 0.20821 0.52538 0.97947 0.0
C450 C 0.22555 0.46552 0.03308 0.0
C451 C 0.22726 0.53557 0.9694 0.0
C452 C 0.53638 0.23534 0.9674 0.0
C453 C 0.46767 0.23202 0.0336 0.0
O454 O 0.52909 0.25655 0.97548 0.0
Zn455 Zn 0.50118 0.27191 0.00232 0.0
O456 O 0.5254 0.21631 0.97627 0.0
Zn457 Zn 0.50194 0.23296 1.00008 0.0
O458 O 0.47896 0.25044 0.96982 0.0
O459 O 0.48073 0.29033 0.97649 0.0
O460 O 0.47839 0.21406 0.02189 0.0
O461 O 0.47466 0.25387 0.02804 0.0
O462 O 0.52043 0.28921 0.02998 0.0
O463 O 0.52554 0.2491 0.03121 0.0
C464 C 0.47233 0.27212 0.96296 0.0
C465 C 0.53087 0.27051 0.04044 0.0
C466 C 0.77801 0.53471 0.03438 0.0
C467 C 0.77594 0.46743 0.96707 0.0
O468 O 0.79643 0.52461 0.02279 0.0
Zn469 Zn 0.77813 0.50094 0.0009 0.0
O470 O 0.75627 0.52747 0.02843 0.0
Zn471 Zn 0.73869 0.50135 0.00187 0.0
O472 O 0.72149 0.48051 0.0285 0.0
O473 O 0.7618 0.47821 0.03216 0.0
O474 O 0.75468 0.47507 0.97439 0.0
O475 O 0.79505 0.47704 0.97773 0.0
O476 O 0.76104 0.524 0.97054 0.0
O477 O 0.72088 0.52234 0.9758 0.0
C478 C 0.74041 0.47177 0.04051 0.0
C479 C 0.73954 0.53079 0.963 0.0
C480 C 0.14932 0.27999 0.35783 0.0
C481 C 0.14353 0.26629 0.33379 0.0
C482 C 0.13169 0.28447 0.37868 0.0
C483 C 0.10763 0.27522 0.37531 0.0
C484 C 0.10133 0.26248 0.35046 0.0
C485 C 0.11937 0.25805 0.33011 0.0
C486 C 0.13915 0.29805 0.40491 0.0
C487 C 0.07584 0.25238 0.34601 0.0
C488 C 0.07128 0.25551 0.43895 0.0
C489 C 0.05399 0.27438 0.44156 0.0
C490 C 0.08932 0.25612 0.41812 0.0
C491 C 0.08998 0.27596 0.39908 0.0
C492 C 0.07306 0.29549 0.40207 0.0
C493 C 0.0553 0.29457 0.42349 0.0
C494 C 0.10724 0.23509 0.416 0.0
C495 C 0.07315 0.31686 0.38202 0.0
H496 H 0.16778 0.28692 0.36059 0.0
H497 H 0.11471 0.24727 0.31179 0.0
H498 H 0.12569 0.31264 0.40984 0.0
H499 H 0.13935 0.2852 0.42294 0.0
H500 H 0.15764 0.30641 0.40297 0.0
H501 H 0.07311 0.2455 0.3243 0.0
H502 H 0.07257 0.23707 0.36083 0.0
H503 H 0.06186 0.26663 0.35039 0.0
H504 H 0.07058 0.24001 0.45313 0.0
H505 H 0.04193 0.30915 0.42544 0.0
H506 H 0.12635 0.24206 0.41606 0.0
H507 H 0.10442 0.22521 0.39592 0.0
H508 H 0.10517 0.22181 0.4335 0.0
H509 H 0.09183 0.32478 0.38044 0.0
H510 H 0.06019 0.33148 0.38852 0.0
H511 H 0.06794 0.31045 0.36075 0.0
C512 C 0.71304 0.13668 0.34847 0.0
C513 C 0.72931 0.15578 0.35509 0.0
C514 C 0.71058 0.11623 0.36604 0.0
C515 C 0.72421 0.1151 0.39125 0.0
C516 C 0.73987 0.13471 0.39869 0.0
C517 C 0.74248 0.15464 0.38037 0.0
C518 C 0.69402 0.09547 0.35717 0.0
C519 C 0.75442 0.13436 0.42566 0.0
C520 C 0.70647 0.06987 0.4484 0.0
C521 C 0.7248 0.05211 0.44535 0.0
C522 C 0.70577 0.09041 0.43067 0.0
C523 C 0.72341 0.09275 0.40901 0.0
C524 C 0.74119 0.07419 0.40507 0.0
C525 C 0.74188 0.05428 0.42356 0.0
C526 C 0.6869 0.1101 0.4359 0.0
C527 C 0.75989 0.07566 0.38175 0.0
H528 H 0.70229 0.13757 0.32939 0.0
H529 H 0.75537 0.16901 0.38562 0.0
H530 H 0.70507 0.07864 0.35402 0.0
H531 H 0.68044 0.09146 0.37386 0.0
H532 H 0.68401 0.09956 0.33741 0.0
H533 H 0.76392 0.15201 0.42964 0.0
H534 H 0.74219 0.13034 0.44369 0.0
H535 H 0.76839 0.11962 0.42478 0.0
H536 H 0.69341 0.0683 0.46545 0.0
H537 H 0.75596 0.04042 0.42109 0.0
H538 H 0.67661 0.11417 0.41637 0.0
H539 H 0.69626 0.12723 0.44235 0.0
H540 H 0.67363 0.10487 0.45253 0.0
H541 H 0.75061 0.07882 0.36135 0.0
H542 H 0.77112 0.05875 0.38014 0.0
H543 H 0.77237 0.09136 0.38546 0.0
C544 C 0.85424 0.71848 0.36337 0.0
C545 C 0.85978 0.73199 0.33912 0.0
C546 C 0.87207 0.71426 0.38408 0.0
C547 C 0.89606 0.72359 0.38035 0.0
C548 C 0.9021 0.73611 0.35528 0.0
C549 C 0.88387 0.74029 0.33508 0.0
C550 C 0.86489 0.7009 0.41056 0.0
C551 C 0.9275 0.74629 0.35045 0.0
C552 C 0.93276 0.74436 0.44326 0.0
C553 C 0.95026 0.72569 0.44596 0.0
C554 C 0.91453 0.74333 0.42267 0.0
C555 C 0.91388 0.72324 0.40397 0.0
C556 C 0.93098 0.70389 0.40709 0.0
C557 C 0.94895 0.70525 0.42827 0.0
C558 C 0.89642 0.76418 0.42041 0.0
C559 C 0.93089 0.68227 0.3874 0.0
H560 H 0.83583 0.71151 0.3664 0.0
H561 H 0.88833 0.75093 0.31658 0.0
H562 H 0.87851 0.68648 0.4156 0.0
H563 H 0.86468 0.71395 0.42839 0.0
H564 H 0.84646 0.69235 0.40886 0.0
H565 H 0.93004 0.75292 0.32862 0.0
H566 H 0.93079 0.76179 0.365 0.0
H567 H 0.94159 0.73216 0.35492 0.0
H568 H 0.93347 0.76004 0.45718 0.0
H569 H 0.96247 0.69082 0.43031 0.0
H570 H 0.87737 0.75705 0.42075 0.0
H571 H 0.899 0.77385 0.40016 0.0
H572 H 0.8985 0.77767 0.43769 0.0
H573 H 0.91224 0.67424 0.38608 0.0
H574 H 0.94397 0.66781 0.39407 0.0
H575 H 0.93595 0.68843 0.36599 0.0
C576 C 0.2904 0.86559 0.34662 0.0
C577 C 0.27432 0.84641 0.35354 0.0
C578 C 0.29323 0.88593 0.36432 0.0
C579 C 0.28014 0.88688 0.38991 0.0
C580 C 0.26471 0.86717 0.39762 0.0
C581 C 0.26176 0.84735 0.37922 0.0
C582 C 0.30956 0.90676 0.35517 0.0
C583 C 0.25071 0.86734 0.42496 0.0
C584 C 0.29822 0.93207 0.44702 0.0
C585 C 0.27964 0.94963 0.44439 0.0
C586 C 0.29895 0.91165 0.42909 0.0
C587 C 0.28106 0.90921 0.4077 0.0
C588 C 0.26305 0.92761 0.40415 0.0
C589 C 0.26236 0.94741 0.42278 0.0
C590 C 0.31812 0.89216 0.43386 0.0
C591 C 0.24403 0.92603 0.38115 0.0
H592 H 0.30068 0.86486 0.32719 0.0
H593 H 0.24903 0.8329 0.38472 0.0
H594 H 0.29836 0.92351 0.35212 0.0
H595 H 0.32329 0.91091 0.37166 0.0
H596 H 0.31937 0.9027 0.33528 0.0
H597 H 0.24142 0.84961 0.4291 0.0
H598 H 0.26326 0.8714 0.44269 0.0
H599 H 0.23662 0.88197 0.42447 0.0
H600 H 0.31145 0.9337 0.4639 0.0
H601 H 0.2481 0.96111 0.42062 0.0
H602 H 0.32803 0.88814 0.41408 0.0
H603 H 0.30906 0.87497 0.44062 0.0
H604 H 0.33168 0.89757 0.45012 0.0
H605 H 0.25305 0.92299 0.36058 0.0
H606 H 0.23264 0.94285 0.37979 0.0
H607 H 0.23175 0.91022 0.38504 0.0
C608 C 0.15469 0.72866 0.63405 0.0
C609 C 0.14947 0.73713 0.66116 0.0
C610 C 0.13593 0.72543 0.61423 0.0
C611 C 0.11137 0.73062 0.62182 0.0
C612 C 0.1059 0.73827 0.6495 0.0
C613 C 0.12505 0.74157 0.6688 0.0
C614 C 0.14253 0.71754 0.58482 0.0
C615 C 0.07992 0.74377 0.65846 0.0
C616 C 0.0678 0.75246 0.56528 0.0
C617 C 0.05395 0.73138 0.55968 0.0
C618 C 0.08669 0.75228 0.58516 0.0
C619 C 0.09177 0.73052 0.60013 0.0
C620 C 0.07798 0.70908 0.59457 0.0
C621 C 0.05927 0.70972 0.57423 0.0
C622 C 0.10115 0.77546 0.59021 0.0
C623 C 0.08281 0.68562 0.61034 0.0
H624 H 0.17358 0.72535 0.62804 0.0
H625 H 0.12094 0.74775 0.6899 0.0
H626 H 0.13098 0.70184 0.57823 0.0
H627 H 0.13887 0.73275 0.56999 0.0
H628 H 0.16213 0.71222 0.58296 0.0
H629 H 0.0785 0.74728 0.68136 0.0
H630 H 0.07312 0.76014 0.6471 0.0
H631 H 0.06766 0.7283 0.65297 0.0
H632 H 0.064 0.76924 0.55395 0.0
H633 H 0.04862 0.69338 0.57003 0.0
H634 H 0.12098 0.77202 0.58676 0.0
H635 H 0.09891 0.78144 0.6123 0.0
H636 H 0.09529 0.79065 0.57624 0.0
H637 H 0.10217 0.67993 0.60747 0.0
H638 H 0.07067 0.67048 0.60332 0.0
H639 H 0.07996 0.6886 0.63313 0.0
C640 C 0.26226 0.15585 0.62189 0.0
C641 C 0.27433 0.15658 0.6479 0.0
C642 C 0.26494 0.13581 0.60376 0.0
C643 C 0.27957 0.11568 0.61208 0.0
C644 C 0.29202 0.11632 0.6381 0.0
C645 C 0.28949 0.13687 0.65554 0.0
C646 C 0.25159 0.13593 0.57598 0.0
C647 C 0.30748 0.09503 0.64787 0.0
C648 C 0.2613 0.0557 0.57824 0.0
C649 C 0.27907 0.0532 0.55721 0.0
C650 C 0.26195 0.07539 0.59703 0.0
C651 C 0.28047 0.09337 0.59425 0.0
C652 C 0.29885 0.09062 0.57348 0.0
C653 C 0.29811 0.07033 0.55537 0.0
C654 C 0.24236 0.07731 0.61934 0.0
C655 C 0.3186 0.10967 0.56955 0.0
H656 H 0.2502 0.1707 0.61587 0.0
H657 H 0.29935 0.1374 0.67526 0.0
H658 H 0.26451 0.13169 0.55867 0.0
H659 H 0.23725 0.12154 0.57595 0.0
H660 H 0.24271 0.15383 0.57159 0.0
H661 H 0.31666 0.09874 0.66824 0.0
H662 H 0.29578 0.07855 0.65022 0.0
H663 H 0.3217 0.09066 0.63201 0.0
H664 H 0.24669 0.0423 0.57984 0.0
H665 H 0.31175 0.06849 0.53896 0.0
H666 H 0.23054 0.09341 0.6151 0.0
H667 H 0.25088 0.08008 0.64024 0.0
H668 H 0.23057 0.06075 0.6202 0.0
H669 H 0.31014 0.12714 0.56268 0.0
H670 H 0.33243 0.10406 0.55369 0.0
H671 H 0.32811 0.11329 0.5897 0.0
C672 C 0.84993 0.27526 0.63 0.0
C673 C 0.85514 0.26742 0.65737 0.0
C674 C 0.86871 0.27823 0.61017 0.0
C675 C 0.8933 0.27342 0.61801 0.0
C676 C 0.89875 0.26646 0.64594 0.0
C677 C 0.87958 0.26341 0.66525 0.0
C678 C 0.86213 0.2854 0.58052 0.0
C679 C 0.92476 0.26137 0.65516 0.0
C680 C 0.93693 0.25037 0.56221 0.0
C681 C 0.95069 0.27136 0.5559 0.0
C682 C 0.91809 0.25097 0.58211 0.0
C683 C 0.91292 0.27307 0.59636 0.0
C684 C 0.92662 0.29441 0.59009 0.0
C685 C 0.9453 0.29335 0.56976 0.0
C686 C 0.90374 0.22785 0.58794 0.0
C687 C 0.92169 0.31824 0.60507 0.0
H688 H 0.83102 0.27823 0.6238 0.0
H689 H 0.88369 0.25772 0.68653 0.0
H690 H 0.87364 0.30095 0.57345 0.0
H691 H 0.86582 0.26983 0.56619 0.0
H692 H 0.84251 0.29062 0.57845 0.0
H693 H 0.92617 0.25849 0.67818 0.0
H694 H 0.93167 0.24474 0.64441 0.0
H695 H 0.93694 0.27676 0.64914 0.0
H696 H 0.94079 0.23333 0.55144 0.0
H697 H 0.95588 0.30962 0.565 0.0
H698 H 0.8839 0.23109 0.58433 0.0
H699 H 0.90599 0.22247 0.61024 0.0
H700 H 0.9097 0.21232 0.57453 0.0
H701 H 0.90231 0.32379 0.60197 0.0
H702 H 0.93379 0.33324 0.59759 0.0
H703 H 0.92452 0.31584 0.62796 0.0
C704 C 0.74135 0.84687 0.62334 0.0
C705 C 0.72763 0.8453 0.64804 0.0
C706 C 0.73918 0.86724 0.60565 0.0
C707 C 0.72339 0.88671 0.61333 0.0
C708 C 0.7095 0.88515 0.63837 0.0
C709 C 0.71156 0.86423 0.65531 0.0
C710 C 0.75394 0.868 0.57885 0.0
C711 C 0.69297 0.9058 0.64759 0.0
C712 C 0.74094 0.94732 0.58056 0.0
C713 C 0.72407 0.9491 0.55848 0.0
C714 C 0.74006 0.92773 0.59948 0.0
C715 C 0.72236 0.90909 0.59566 0.0
C716 C 0.70484 0.91113 0.57381 0.0
C717 C 0.7057 0.93137 0.55566 0.0
C718 C 0.75862 0.92658 0.62298 0.0
C719 C 0.68604 0.89134 0.56872 0.0
H720 H 0.75362 0.83202 0.6178 0.0
H721 H 0.70105 0.86287 0.67455 0.0
H722 H 0.74167 0.87151 0.5607 0.0
H723 H 0.76736 0.88323 0.57975 0.0
H724 H 0.76408 0.85068 0.57506 0.0
H725 H 0.68305 0.9015 0.66734 0.0
H726 H 0.704 0.92262 0.65087 0.0
H727 H 0.67931 0.90993 0.631 0.0
H728 H 0.75502 0.96119 0.58285 0.0
H729 H 0.69278 0.93268 0.53842 0.0
H730 H 0.77147 0.91118 0.61929 0.0
H731 H 0.74929 0.92312 0.64328 0.0
H732 H 0.76945 0.94373 0.62477 0.0
H733 H 0.69548 0.8742 0.56243 0.0
H734 H 0.67277 0.89641 0.55201 0.0
H735 H 0.67574 0.88737 0.58825 0.0
C736 C 0.8434 0.75128 0.61755 0.0
C737 C 0.84268 0.76038 0.64509 0.0
C738 C 0.86399 0.75493 0.60034 0.0
C739 C 0.8846 0.7677 0.61097 0.0
C740 C 0.88386 0.77736 0.63851 0.0
C741 C 0.86289 0.77372 0.65515 0.0
C742 C 0.86396 0.74443 0.57103 0.0
C743 C 0.90551 0.79093 0.6507 0.0
C744 C 0.94506 0.75002 0.57727 0.0
C745 C 0.94888 0.7692 0.55822 0.0
C746 C 0.92475 0.74986 0.59528 0.0
C747 C 0.90752 0.76919 0.59398 0.0
C748 C 0.91164 0.78905 0.57542 0.0
C749 C 0.93242 0.78892 0.55787 0.0
C750 C 0.92133 0.72854 0.61508 0.0
C751 C 0.89357 0.80988 0.57325 0.0
H752 H 0.82811 0.74069 0.6096 0.0
H753 H 0.86239 0.78129 0.67615 0.0
H754 H 0.86907 0.75874 0.55559 0.0
H755 H 0.87785 0.72965 0.56951 0.0
H756 H 0.84581 0.73678 0.56509 0.0
H757 H 0.90153 0.79852 0.67183 0.0
H758 H 0.92144 0.77838 0.65238 0.0
H759 H 0.91098 0.80614 0.63663 0.0
H760 H 0.95785 0.73482 0.57783 0.0
H761 H 0.93521 0.80372 0.54307 0.0
H762 H 0.90471 0.71807 0.60907 0.0
H763 H 0.91851 0.73524 0.63682 0.0
H764 H 0.93728 0.71588 0.61495 0.0
H765 H 0.87594 0.80296 0.56474 0.0
H766 H 0.9003 0.82478 0.55939 0.0
H767 H 0.88973 0.8176 0.59431 0.0
C768 C 0.24725 0.8522 0.63304 0.0
C769 C 0.23613 0.85431 0.65951 0.0
C770 C 0.24578 0.87115 0.61324 0.0
C771 C 0.23337 0.89307 0.62021 0.0
C772 C 0.22197 0.89536 0.64675 0.0
C773 C 0.22328 0.87589 0.66595 0.0
C774 C 0.25798 0.8679 0.58504 0.0
C775 C 0.20885 0.91857 0.6551 0.0
C776 C 0.25467 0.94921 0.58026 0.0
C777 C 0.23617 0.95193 0.56006 0.0
C778 C 0.2535 0.93067 0.60054 0.0
C779 C 0.23358 0.91406 0.60026 0.0
C780 C 0.21459 0.91696 0.58022 0.0
C781 C 0.21597 0.93607 0.56051 0.0
C782 C 0.27386 0.92856 0.6219 0.0
C783 C 0.19329 0.89935 0.57896 0.0
H784 H 0.25759 0.83588 0.62789 0.0
H785 H 0.21418 0.87762 0.68605 0.0
H786 H 0.24476 0.8719 0.56793 0.0
H787 H 0.27339 0.88101 0.58294 0.0
H788 H 0.26523 0.84908 0.58206 0.0
H789 H 0.20041 0.91722 0.67626 0.0
H790 H 0.22196 0.9341 0.65508 0.0
H791 H 0.19428 0.92294 0.63965 0.0
H792 H 0.27022 0.96159 0.58015 0.0
H793 H 0.20172 0.93803 0.54481 0.0
H794 H 0.28395 0.91115 0.61874 0.0
H795 H 0.26611 0.92817 0.64342 0.0
H796 H 0.28713 0.94393 0.62047 0.0
H797 H 0.20011 0.88075 0.57382 0.0
H798 H 0.17948 0.90476 0.56298 0.0
H799 H 0.18414 0.8982 0.5997 0.0
C800 C 0.13664 0.22843 0.65757 0.0
C801 C 0.1584 0.2391 0.64769 0.0
C802 C 0.11624 0.22541 0.63985 0.0
C803 C 0.11769 0.23305 0.61151 0.0
C804 C 0.13987 0.24315 0.60122 0.0
C805 C 0.15989 0.24616 0.61946 0.0
C806 C 0.09286 0.21484 0.65173 0.0
C807 C 0.14227 0.25132 0.57109 0.0
C808 C 0.07009 0.21209 0.55789 0.0
C809 C 0.05523 0.23295 0.55571 0.0
C810 C 0.09029 0.21161 0.57632 0.0
C811 C 0.09551 0.23236 0.59316 0.0
C812 C 0.08 0.25308 0.59173 0.0
C813 C 0.0602 0.25317 0.57296 0.0
C814 C 0.1065 0.18924 0.57713 0.0
C815 C 0.08466 0.27547 0.60956 0.0
H816 H 0.13532 0.22309 0.67942 0.0
H817 H 0.17678 0.25407 0.61161 0.0
H818 H 0.07827 0.229 0.65153 0.0
H819 H 0.08638 0.19942 0.63855 0.0
H820 H 0.09523 0.20822 0.67361 0.0
H821 H 0.16125 0.25713 0.56585 0.0
H822 H 0.13685 0.23629 0.55672 0.0
H823 H 0.1297 0.2669 0.56708 0.0
H824 H 0.06641 0.19645 0.54455 0.0
H825 H 0.04869 0.2693 0.57162 0.0
H826 H 0.10839 0.18253 0.59899 0.0
H827 H 0.12515 0.19407 0.56964 0.0
H828 H 0.09926 0.17415 0.56389 0.0
H829 H 0.08579 0.27027 0.63202 0.0
H830 H 0.0701 0.28952 0.60709 0.0
H831 H 0.1025 0.28378 0.60373 0.0
C832 C 0.75866 0.15029 0.63099 0.0
C833 C 0.76992 0.14868 0.65744 0.0
C834 C 0.76004 0.13097 0.61168 0.0
C835 C 0.7725 0.1092 0.61914 0.0
C836 C 0.78407 0.10743 0.64564 0.0
C837 C 0.78285 0.12726 0.66435 0.0
C838 C 0.74768 0.13367 0.58348 0.0
C839 C 0.79724 0.08439 0.6545 0.0
C840 C 0.75063 0.05255 0.58065 0.0
C841 C 0.7689 0.0495 0.56026 0.0
C842 C 0.75212 0.07133 0.6006 0.0
C843 C 0.77211 0.08783 0.59977 0.0
C844 C 0.7909 0.08456 0.57958 0.0
C845 C 0.78921 0.06522 0.56021 0.0
C846 C 0.73197 0.07384 0.62215 0.0
C847 C 0.81227 0.10205 0.57773 0.0
H848 H 0.74826 0.16648 0.6255 0.0
H849 H 0.79203 0.12593 0.68444 0.0
H850 H 0.76077 0.12928 0.56639 0.0
H851 H 0.73221 0.12055 0.58186 0.0
H852 H 0.74045 0.15244 0.58005 0.0
H853 H 0.80589 0.08618 0.6755 0.0
H854 H 0.7841 0.06889 0.65509 0.0
H855 H 0.81164 0.07965 0.63899 0.0
H856 H 0.73501 0.04027 0.58092 0.0
H857 H 0.80328 0.06299 0.54435 0.0
H858 H 0.72182 0.09117 0.61864 0.0
H859 H 0.73992 0.07469 0.64356 0.0
H860 H 0.7187 0.05843 0.62128 0.0
H861 H 0.80549 0.12055 0.57205 0.0
H862 H 0.826 0.09623 0.56187 0.0
H863 H 0.82149 0.10365 0.5984 0.0
C864 C 0.8491 0.2183 0.36816 0.0
C865 C 0.85085 0.23421 0.34518 0.0
C866 C 0.86869 0.21564 0.38711 0.0
C867 C 0.89072 0.22882 0.38261 0.0
C868 C 0.8929 0.24409 0.3587 0.0
C869 C 0.87283 0.24683 0.34047 0.0
C870 C 0.86538 0.19962 0.41263 0.0
C871 C 0.91619 0.25812 0.35282 0.0
C872 C 0.93035 0.24773 0.44436 0.0
C873 C 0.94943 0.23055 0.44341 0.0
C874 C 0.9108 0.2468 0.42529 0.0
C875 C 0.91056 0.22859 0.40418 0.0
C876 C 0.92963 0.21093 0.4033 0.0
C877 C 0.94873 0.21193 0.42322 0.0
C878 C 0.89059 0.26562 0.42749 0.0
C879 C 0.93025 0.19153 0.3808 0.0
H880 H 0.83204 0.20864 0.37189 0.0
H881 H 0.87427 0.25894 0.32253 0.0
H882 H 0.88079 0.18647 0.41448 0.0
H883 H 0.86553 0.21114 0.4318 0.0
H884 H 0.84788 0.18922 0.41202 0.0
H885 H 0.91586 0.26712 0.33193 0.0
H886 H 0.91883 0.27241 0.36908 0.0
H887 H 0.93227 0.2457 0.35381 0.0
H888 H 0.93067 0.262 0.46016 0.0
H889 H 0.96353 0.19871 0.42236 0.0
H890 H 0.87246 0.25643 0.42853 0.0
H891 H 0.89056 0.27739 0.40853 0.0
H892 H 0.89266 0.27751 0.44624 0.0
H893 H 0.91287 0.181 0.38076 0.0
H894 H 0.94578 0.17859 0.38361 0.0
H895 H 0.93196 0.20033 0.35991 0.0
C896 C 0.77997 0.87451 0.3362 0.0
C897 C 0.77092 0.85146 0.3439 0.0
C898 C 0.78038 0.89397 0.35544 0.0
C899 C 0.77182 0.89016 0.38314 0.0
C900 C 0.76321 0.86674 0.39121 0.0
C901 C 0.76269 0.84771 0.37143 0.0
C902 C 0.78934 0.91875 0.34591 0.0
C903 C 0.75421 0.86187 0.42064 0.0
C904 C 0.78896 0.93572 0.44036 0.0
C905 C 0.76724 0.94929 0.44287 0.0
C906 C 0.79082 0.91646 0.42089 0.0
C907 C 0.77061 0.91096 0.40328 0.0
C908 C 0.74891 0.92505 0.40524 0.0
C909 C 0.74743 0.9439 0.42513 0.0
C910 C 0.81416 0.90165 0.4196 0.0
C911 C 0.72709 0.92004 0.38656 0.0
H912 H 0.78614 0.87751 0.31485 0.0
H913 H 0.75595 0.82982 0.37751 0.0
H914 H 0.77417 0.93223 0.34728 0.0
H915 H 0.80424 0.92529 0.35989 0.0
H916 H 0.79627 0.91844 0.324 0.0
H917 H 0.74945 0.84232 0.42401 0.0
H918 H 0.76844 0.86722 0.43612 0.0
H919 H 0.73771 0.87314 0.42496 0.0
H920 H 0.80429 0.93971 0.4541 0.0
H921 H 0.73064 0.95443 0.42679 0.0
H922 H 0.82172 0.90193 0.398 0.0
H923 H 0.81018 0.88228 0.42486 0.0
H924 H 0.82838 0.90859 0.43428 0.0
H925 H 0.73269 0.92074 0.3642 0.0
H926 H 0.71198 0.93335 0.38991 0.0
H927 H 0.71996 0.90136 0.39065 0.0
C928 C 0.15448 0.78248 0.37029 0.0
C929 C 0.1527 0.76641 0.34746 0.0
C930 C 0.13501 0.7851 0.38937 0.0
C931 C 0.11306 0.77171 0.38514 0.0
C932 C 0.11086 0.75623 0.36141 0.0
C933 C 0.13083 0.75353 0.34306 0.0
C934 C 0.13834 0.80133 0.41471 0.0
C935 C 0.08764 0.74199 0.35582 0.0
C936 C 0.07376 0.7532 0.44726 0.0
C937 C 0.05461 0.7703 0.44617 0.0
C938 C 0.09323 0.75403 0.4281 0.0
C939 C 0.0933 0.77204 0.40677 0.0
C940 C 0.07416 0.7896 0.40573 0.0
C941 C 0.05514 0.78872 0.42573 0.0
C942 C 0.11354 0.73533 0.43045 0.0
C943 C 0.07336 0.80879 0.38298 0.0
H944 H 0.17147 0.79234 0.37375 0.0
H945 H 0.12938 0.7413 0.32522 0.0
H946 H 0.12291 0.81447 0.41644 0.0
H947 H 0.13823 0.78997 0.43401 0.0
H948 H 0.15582 0.81175 0.41397 0.0
H949 H 0.08796 0.73276 0.33506 0.0
H950 H 0.08514 0.72787 0.37229 0.0
H951 H 0.07149 0.75432 0.35669 0.0
H952 H 0.07356 0.73909 0.46326 0.0
H953 H 0.04028 0.80187 0.42477 0.0
H954 H 0.13162 0.74462 0.43132 0.0
H955 H 0.11356 0.72338 0.41164 0.0
H956 H 0.11159 0.7236 0.44936 0.0
H957 H 0.09068 0.81943 0.38279 0.0
H958 H 0.05775 0.82164 0.38566 0.0
H959 H 0.07168 0.79977 0.36221 0.0
C960 C 0.22256 0.12394 0.3329 0.0
C961 C 0.23164 0.14715 0.33995 0.0
C962 C 0.22222 0.10488 0.35266 0.0
C963 C 0.23087 0.10924 0.38023 0.0
C964 C 0.23948 0.13283 0.38764 0.0
C965 C 0.23993 0.15145 0.36734 0.0
C966 C 0.21327 0.0799 0.34381 0.0
C967 C 0.24856 0.13831 0.41691 0.0
C968 C 0.21425 0.06463 0.43866 0.0
C969 C 0.23605 0.05121 0.44136 0.0
C970 C 0.2122 0.08353 0.41875 0.0
C971 C 0.23227 0.08882 0.40087 0.0
C972 C 0.25406 0.07487 0.40305 0.0
C973 C 0.25574 0.0564 0.42337 0.0
C974 C 0.18878 0.0982 0.41726 0.0
C975 C 0.27575 0.07965 0.38411 0.0
H976 H 0.21633 0.12051 0.31166 0.0
H977 H 0.24669 0.16946 0.37292 0.0
H978 H 0.22849 0.0665 0.34538 0.0
H979 H 0.1985 0.07357 0.35807 0.0
H980 H 0.20619 0.07978 0.32196 0.0
H981 H 0.2532 0.15794 0.41977 0.0
H982 H 0.23444 0.13315 0.43258 0.0
H983 H 0.26516 0.12723 0.42141 0.0
H984 H 0.19902 0.0608 0.45259 0.0
H985 H 0.27259 0.04598 0.42517 0.0
H986 H 0.18109 0.09749 0.39572 0.0
H987 H 0.1927 0.11769 0.42202 0.0
H988 H 0.17468 0.09147 0.43221 0.0
H989 H 0.27004 0.0785 0.36181 0.0
H990 H 0.29095 0.06647 0.38768 0.0
H991 H 0.28281 0.09843 0.3877 0.0
C992 C 0.64458 0.71152 0.85885 0.0
C993 C 0.64046 0.72361 0.83327 0.0
C994 C 0.62645 0.71073 0.87972 0.0
C995 C 0.60343 0.72185 0.8747 0.0
C996 C 0.59867 0.73296 0.84843 0.0
C997 C 0.6173 0.73392 0.82814 0.0
C998 C 0.63233 0.69892 0.90757 0.0
C999 C 0.57421 0.74473 0.84215 0.0
C1000 C 0.5503 0.70761 0.92389 0.0
C1001 C 0.55007 0.72854 0.94091 0.0
C1002 C 0.56751 0.70515 0.90209 0.0
C1003 C 0.58514 0.72381 0.89773 0.0
C1004 C 0.58526 0.7447 0.91528 0.0
C1005 C 0.56758 0.74691 0.93643 0.0
C1006 C 0.56656 0.68285 0.88344 0.0
C1007 C 0.60406 0.76477 0.9117 0.0
H1008 H 0.66217 0.70296 0.8628 0.0
H1009 H 0.61392 0.74352 0.80863 0.0
H1010 H 0.63232 0.71305 0.9243 0.0
H1011 H 0.61809 0.68527 0.9131 0.0
H1012 H 0.6505 0.68973 0.9075 0.0
H1013 H 0.5725 0.75013 0.81976 0.0
H1014 H 0.55902 0.73202 0.84742 0.0
H1015 H 0.57191 0.76131 0.85531 0.0
H1016 H 0.53671 0.69344 0.92721 0.0
H1017 H 0.56762 0.76302 0.94972 0.0
H1018 H 0.58438 0.67308 0.88403 0.0
H1019 H 0.56337 0.68853 0.86139 0.0
H1020 H 0.55183 0.66992 0.88973 0.0
H1021 H 0.62283 0.75702 0.9131 0.0
H1022 H 0.60217 0.77938 0.92777 0.0
H1023 H 0.60217 0.77319 0.89064 0.0
C1024 C 0.21953 0.64104 0.85314 0.0
C1025 C 0.23302 0.66151 0.86206 0.0
C1026 C 0.21594 0.62084 0.87082 0.0
C1027 C 0.22571 0.62124 0.8983 0.0
C1028 C 0.23823 0.64232 0.90798 0.0
C1029 C 0.24188 0.66214 0.8897 0.0
C1030 C 0.20266 0.59864 0.85961 0.0
C1031 C 0.24869 0.64353 0.93728 0.0
C1032 C 0.20555 0.57275 0.95091 0.0
C1033 C 0.22552 0.55662 0.95005 0.0
C1034 C 0.20523 0.59394 0.93414 0.0
C1035 C 0.22513 0.59872 0.9158 0.0
C1036 C 0.24491 0.58201 0.91426 0.0
C1037 C 0.24495 0.56132 0.93156 0.0
C1038 C 0.184 0.61153 0.93657 0.0
C1039 C 0.26623 0.58614 0.89458 0.0
H1040 H 0.21201 0.64062 0.8321 0.0
H1041 H 0.25242 0.67778 0.89679 0.0
H1042 H 0.21567 0.58308 0.85798 0.0
H1043 H 0.18787 0.59302 0.87421 0.0
H1044 H 0.19452 0.60195 0.83858 0.0
H1045 H 0.25541 0.66215 0.94264 0.0
H1046 H 0.23465 0.63803 0.9529 0.0
H1047 H 0.26422 0.63052 0.93917 0.0
H1048 H 0.1906 0.56923 0.96534 0.0
H1049 H 0.26033 0.54877 0.93065 0.0
H1050 H 0.17564 0.61471 0.91567 0.0
H1051 H 0.19071 0.62947 0.94431 0.0
H1052 H 0.16959 0.60477 0.9511 0.0
H1053 H 0.2595 0.58823 0.87274 0.0
H1054 H 0.27968 0.57086 0.89514 0.0
H1055 H 0.27588 0.60331 0.90026 0.0
C1056 C 0.35439 0.26873 0.86706 0.0
C1057 C 0.35816 0.27567 0.83909 0.0
C1058 C 0.37321 0.27078 0.88698 0.0
C1059 C 0.39644 0.27982 0.87867 0.0
C1060 C 0.40013 0.28758 0.85064 0.0
C1061 C 0.38089 0.28549 0.83118 0.0
C1062 C 0.36846 0.26251 0.91672 0.0
C1063 C 0.42469 0.29712 0.84094 0.0
C1064 C 0.441 0.29708 0.93693 0.0
C1065 C 0.45437 0.27531 0.93994 0.0
C1066 C 0.42241 0.29913 0.91658 0.0
C1067 C 0.41734 0.27902 0.89873 0.0
C1068 C 0.43145 0.25738 0.90101 0.0
C1069 C 0.44968 0.25577 0.92162 0.0
C1070 C 0.40764 0.32244 0.91483 0.0
C1071 C 0.42681 0.23561 0.88219 0.0
H1072 H 0.3367 0.26152 0.87334 0.0
H1073 H 0.3839 0.29077 0.80953 0.0
H1074 H 0.37981 0.24617 0.92147 0.0
H1075 H 0.37383 0.27706 0.93175 0.0
H1076 H 0.3489 0.25778 0.92031 0.0
H1077 H 0.42396 0.30438 0.81918 0.0
H1078 H 0.43122 0.31184 0.85513 0.0
H1079 H 0.43844 0.28217 0.84171 0.0
H1080 H 0.4445 0.31223 0.95106 0.0
H1081 H 0.4601 0.23896 0.92361 0.0
H1082 H 0.38835 0.31867 0.92083 0.0
H1083 H 0.40743 0.3294 0.89297 0.0
H1084 H 0.41497 0.33696 0.92881 0.0
H1085 H 0.40821 0.22818 0.88626 0.0
H1086 H 0.4404 0.22074 0.88551 0.0
H1087 H 0.42745 0.24125 0.85985 0.0
C1088 C 0.7817 0.36447 0.8474 0.0
C1089 C 0.76752 0.34435 0.85596 0.0
C1090 C 0.78571 0.38443 0.86532 0.0
C1091 C 0.77563 0.38413 0.89265 0.0
C1092 C 0.76223 0.36345 0.90189 0.0
C1093 C 0.75818 0.34389 0.88338 0.0
C1094 C 0.79991 0.40624 0.8546 0.0
C1095 C 0.75137 0.36238 0.93101 0.0
C1096 C 0.79696 0.43051 0.94707 0.0
C1097 C 0.77751 0.44727 0.94656 0.0
C1098 C 0.79682 0.40988 0.92941 0.0
C1099 C 0.77701 0.40634 0.91057 0.0
C1100 C 0.75789 0.4238 0.90926 0.0
C1101 C 0.75828 0.4439 0.92743 0.0
C1102 C 0.81736 0.39147 0.93158 0.0
C1103 C 0.73669 0.42099 0.88907 0.0
H1104 H 0.78955 0.36475 0.82652 0.0
H1105 H 0.74709 0.32854 0.89017 0.0
H1106 H 0.78757 0.42234 0.85322 0.0
H1107 H 0.81487 0.41102 0.86939 0.0
H1108 H 0.80799 0.4029 0.83355 0.0
H1109 H 0.74365 0.34407 0.93594 0.0
H1110 H 0.7655 0.36695 0.94692 0.0
H1111 H 0.73651 0.37615 0.93292 0.0
H1112 H 0.81175 0.43302 0.962 0.0
H1113 H 0.74332 0.45697 0.9268 0.0
H1114 H 0.82559 0.38817 0.91065 0.0
H1115 H 0.80996 0.37373 0.9391 0.0
H1116 H 0.83202 0.39752 0.94621 0.0
H1117 H 0.74364 0.41886 0.86733 0.0
H1118 H 0.724 0.43689 0.88967 0.0
H1119 H 0.72614 0.40423 0.89424 0.0
C1120 C 0.61854 0.26174 0.17323 0.0
C1121 C 0.64071 0.27422 0.16944 0.0
C1122 C 0.5997 0.26345 0.15326 0.0
C1123 C 0.60347 0.27743 0.1286 0.0
C1124 C 0.62566 0.29056 0.12506 0.0
C1125 C 0.64394 0.289 0.14573 0.0
C1126 C 0.57611 0.24962 0.1581 0.0
C1127 C 0.63061 0.3052 0.09881 0.0
C1128 C 0.56837 0.25559 0.06467 0.0
C1129 C 0.54965 0.27307 0.06257 0.0
C1130 C 0.58631 0.25722 0.08563 0.0
C1131 C 0.58515 0.27645 0.10548 0.0
C1132 C 0.56627 0.29419 0.10349 0.0
C1133 C 0.5489 0.29248 0.08176 0.0
C1134 C 0.60648 0.23827 0.08657 0.0
C1135 C 0.56413 0.31462 0.12467 0.0
H1136 H 0.61607 0.25044 0.19171 0.0
H1137 H 0.66123 0.29847 0.14279 0.0
H1138 H 0.5601 0.26182 0.15471 0.0
H1139 H 0.57464 0.23439 0.14281 0.0
H1140 H 0.57503 0.24187 0.17961 0.0
H1141 H 0.64799 0.31574 0.10019 0.0
H1142 H 0.63177 0.29266 0.08054 0.0
H1143 H 0.61534 0.31811 0.09468 0.0
H1144 H 0.56916 0.24071 0.04965 0.0
H1145 H 0.53434 0.30593 0.08023 0.0
H1146 H 0.60525 0.22765 0.10635 0.0
H1147 H 0.62467 0.24736 0.08632 0.0
H1148 H 0.60552 0.2253 0.06865 0.0
H1149 H 0.56149 0.3068 0.14594 0.0
H1150 H 0.54858 0.3271 0.11999 0.0
H1151 H 0.58132 0.32547 0.12518 0.0
C1152 C 0.7607 0.66085 0.11157 0.0
C1153 C 0.77462 0.66382 0.136 0.0
C1154 C 0.7635 0.63995 0.09475 0.0
C1155 C 0.78015 0.62138 0.10306 0.0
C1156 C 0.79434 0.62442 0.12768 0.0
C1157 C 0.79157 0.64576 0.14371 0.0
C1158 C 0.74838 0.63755 0.06836 0.0
C1159 C 0.81179 0.60478 0.1376 0.0
C1160 C 0.76431 0.55817 0.07603 0.0
C1161 C 0.78093 0.55542 0.05385 0.0
C1162 C 0.76459 0.57913 0.09293 0.0
C1163 C 0.78145 0.59811 0.08696 0.0
C1164 C 0.79872 0.59517 0.065 0.0
C1165 C 0.79846 0.57363 0.04887 0.0
C1166 C 0.74634 0.58124 0.11665 0.0
C1167 C 0.81666 0.61522 0.05771 0.0
H1168 H 0.74772 0.67495 0.10559 0.0
H1169 H 0.80216 0.64804 0.16279 0.0
H1170 H 0.76042 0.6334 0.05021 0.0
H1171 H 0.73531 0.62212 0.07055 0.0
H1172 H 0.73779 0.65444 0.06369 0.0
H1173 H 0.82222 0.61044 0.15655 0.0
H1174 H 0.80136 0.5879 0.14261 0.0
H1175 H 0.825 0.60008 0.12076 0.0
H1176 H 0.75083 0.54398 0.07994 0.0
H1177 H 0.81112 0.57159 0.03149 0.0
H1178 H 0.73311 0.59613 0.11209 0.0
H1179 H 0.75589 0.58603 0.13646 0.0
H1180 H 0.73591 0.56401 0.11995 0.0
H1181 H 0.80647 0.6316 0.05039 0.0
H1182 H 0.82971 0.60958 0.04103 0.0
H1183 H 0.82725 0.62073 0.07655 0.0
C1184 C 0.37863 0.71984 0.16957 0.0
C1185 C 0.35595 0.72945 0.16117 0.0
C1186 C 0.39817 0.71786 0.1505 0.0
C1187 C 0.39481 0.72549 0.12237 0.0
C1188 C 0.37164 0.73433 0.11356 0.0
C1189 C 0.35253 0.7363 0.1331 0.0
C1190 C 0.42266 0.70854 0.16072 0.0
C1191 C 0.36723 0.74241 0.08368 0.0
C1192 C 0.44853 0.74918 0.07995 0.0
C1193 C 0.4535 0.72941 0.06206 0.0
C1194 C 0.43003 0.74778 0.10027 0.0
C1195 C 0.41592 0.72615 0.10263 0.0
C1196 C 0.42122 0.70586 0.08516 0.0
C1197 C 0.44008 0.70768 0.06514 0.0
C1198 C 0.42514 0.76974 0.1187 0.0
C1199 C 0.40645 0.68255 0.08698 0.0
H1200 H 0.38135 0.71464 0.1913 0.0
H1201 H 0.33487 0.74336 0.12646 0.0
H1202 H 0.4294 0.69369 0.14686 0.0
H1203 H 0.43636 0.72354 0.15991 0.0
H1204 H 0.42173 0.70154 0.18258 0.0
H1205 H 0.34771 0.74708 0.07972 0.0
H1206 H 0.37861 0.75873 0.07898 0.0
H1207 H 0.37281 0.72777 0.06886 0.0
H1208 H 0.45897 0.76597 0.07789 0.0
H1209 H 0.44379 0.69236 0.05134 0.0
H1210 H 0.42552 0.76433 0.14112 0.0
H1211 H 0.40658 0.7771 0.11423 0.0
H1212 H 0.43874 0.7846 0.11539 0.0
H1213 H 0.40609 0.67575 0.1089 0.0
H1214 H 0.41388 0.66792 0.07321 0.0
H1215 H 0.38719 0.68627 0.08076 0.0
C1216 C 0.2426 0.33737 0.10675 0.0
C1217 C 0.22854 0.33402 0.131 0.0
C1218 C 0.23995 0.35857 0.09037 0.0
C1219 C 0.22331 0.37706 0.09894 0.0
C1220 C 0.20897 0.37362 0.12337 0.0
C1221 C 0.21159 0.352 0.13895 0.0
C1222 C 0.25524 0.36137 0.06416 0.0
C1223 C 0.19151 0.39313 0.13359 0.0
C1224 C 0.23932 0.44086 0.07382 0.0
C1225 C 0.22274 0.44417 0.05169 0.0
C1226 C 0.23903 0.41948 0.09002 0.0
C1227 C 0.22219 0.40063 0.0834 0.0
C1228 C 0.20501 0.4041 0.06142 0.0
C1229 C 0.20528 0.42605 0.04601 0.0
C1230 C 0.25718 0.41682 0.11378 0.0
C1231 C 0.1871 0.38423 0.05342 0.0
H1232 H 0.25559 0.32335 0.10056 0.0
H1233 H 0.20089 0.34945 0.1579 0.0
H1234 H 0.24332 0.36591 0.04602 0.0
H1235 H 0.26835 0.37671 0.06683 0.0
H1236 H 0.26577 0.34453 0.05918 0.0
H1237 H 0.18095 0.38718 0.15231 0.0
H1238 H 0.20196 0.40989 0.13909 0.0
H1239 H 0.17842 0.39817 0.11675 0.0
H1240 H 0.25275 0.45497 0.0783 0.0
H1241 H 0.19265 0.42853 0.02866 0.0
H1242 H 0.27034 0.40192 0.10895 0.0
H1243 H 0.24752 0.41172 0.13342 0.0
H1244 H 0.26771 0.43391 0.11756 0.0
H1245 H 0.19732 0.36795 0.04586 0.0
H1246 H 0.17423 0.39019 0.03669 0.0
H1247 H 0.17631 0.37843 0.07197 0.0
C1248 C 0.36088 0.21283 0.14801 0.0
C1249 C 0.33958 0.225 0.13895 0.0
C1250 C 0.38196 0.21175 0.1311 0.0
C1251 C 0.38168 0.22271 0.1042 0.0
C1252 C 0.35997 0.23409 0.0944 0.0
C1253 C 0.33929 0.23528 0.11194 0.0
C1254 C 0.4048 0.19965 0.14245 0.0
C1255 C 0.35883 0.24576 0.06572 0.0
C1256 C 0.44084 0.24665 0.07245 0.0
C1257 C 0.44675 0.22833 0.05299 0.0
C1258 C 0.42014 0.24465 0.08974 0.0
C1259 C 0.40461 0.22401 0.08719 0.0
C1260 C 0.41067 0.20521 0.0679 0.0
C1261 C 0.43185 0.20748 0.05119 0.0
C1262 C 0.41466 0.26488 0.11041 0.0
C1263 C 0.39438 0.18311 0.06429 0.0
H1264 H 0.36121 0.20431 0.16853 0.0
H1265 H 0.32314 0.24497 0.10474 0.0
H1266 H 0.41157 0.18564 0.12751 0.0
H1267 H 0.41953 0.2135 0.14486 0.0
H1268 H 0.40163 0.1908 0.16311 0.0
H1269 H 0.33997 0.25178 0.06017 0.0
H1270 H 0.37112 0.26193 0.06509 0.0
H1271 H 0.36536 0.23274 0.0495 0.0
H1272 H 0.45241 0.26273 0.0741 0.0
H1273 H 0.43625 0.19335 0.03605 0.0
H1274 H 0.41254 0.2572 0.13182 0.0
H1275 H 0.39708 0.27388 0.10483 0.0
H1276 H 0.42929 0.27902 0.11089 0.0
H1277 H 0.39145 0.17393 0.08477 0.0
H1278 H 0.40217 0.16963 0.0493 0.0
H1279 H 0.37612 0.18897 0.0565 0.0
C1280 C 0.75199 0.35224 0.13243 0.0
C1281 C 0.74409 0.35435 0.16034 0.0
C1282 C 0.74935 0.3717 0.11346 0.0
C1283 C 0.73881 0.39399 0.12265 0.0
C1284 C 0.7306 0.39622 0.1507 0.0
C1285 C 0.73323 0.37635 0.16916 0.0
C1286 C 0.75831 0.36858 0.08369 0.0
C1287 C 0.71941 0.41973 0.16133 0.0
C1288 C 0.75847 0.44991 0.0814 0.0
C1289 C 0.73847 0.45352 0.06335 0.0
C1290 C 0.75838 0.43117 0.10145 0.0
C1291 C 0.73789 0.41538 0.10333 0.0
C1292 C 0.71727 0.41936 0.08579 0.0
C1293 C 0.71773 0.43855 0.06608 0.0
C1294 C 0.78059 0.42781 0.12003 0.0
C1295 C 0.69517 0.40278 0.08706 0.0
H1296 H 0.76066 0.33546 0.12546 0.0
H1297 H 0.72661 0.37803 0.1905 0.0
H1298 H 0.74347 0.37322 0.06867 0.0
H1299 H 0.77375 0.38131 0.07965 0.0
H1300 H 0.76462 0.34962 0.07938 0.0
H1301 H 0.71312 0.41822 0.18342 0.0
H1302 H 0.73307 0.43473 0.15994 0.0
H1303 H 0.70358 0.42502 0.14803 0.0
H1304 H 0.77448 0.46158 0.07959 0.0
H1305 H 0.70227 0.44119 0.0521 0.0
H1306 H 0.78954 0.41007 0.11521 0.0
H1307 H 0.77499 0.4273 0.1424 0.0
H1308 H 0.7943 0.44265 0.11723 0.0
H1309 H 0.70045 0.38407 0.08031 0.0
H1310 H 0.68 0.40929 0.0734 0.0
H1311 H 0.68833 0.40139 0.10892 0.0
C1312 C 0.64107 0.78145 0.15375 0.0
C1313 C 0.66285 0.77026 0.14456 0.0
C1314 C 0.62022 0.78253 0.13646 0.0
C1315 C 0.62123 0.77266 0.10904 0.0
C1316 C 0.64335 0.76209 0.09925 0.0
C1317 C 0.66377 0.76081 0.11718 0.0
C1318 C 0.59691 0.79369 0.14782 0.0
C1319 C 0.64528 0.75163 0.07001 0.0
C1320 C 0.56284 0.75062 0.07362 0.0
C1321 C 0.55734 0.77013 0.05557 0.0
C1322 C 0.58322 0.7515 0.09158 0.0
C1323 C 0.59883 0.7722 0.09109 0.0
C1324 C 0.59328 0.79208 0.07308 0.0
C1325 C 0.57243 0.79091 0.05572 0.0
C1326 C 0.58817 0.73015 0.11088 0.0
C1327 C 0.60971 0.81427 0.0716 0.0
H1328 H 0.64021 0.78932 0.17458 0.0
H1329 H 0.68028 0.75181 0.10988 0.0
H1330 H 0.59059 0.80868 0.13389 0.0
H1331 H 0.58218 0.77968 0.14825 0.0
H1332 H 0.59928 0.8011 0.16935 0.0
H1333 H 0.66427 0.74579 0.06483 0.0
H1334 H 0.63297 0.73556 0.06799 0.0
H1335 H 0.63925 0.76537 0.05432 0.0
H1336 H 0.55114 0.73458 0.07375 0.0
H1337 H 0.56837 0.80597 0.04166 0.0
H1338 H 0.58959 0.7366 0.1329 0.0
H1339 H 0.60595 0.72154 0.10538 0.0
H1340 H 0.5736 0.71598 0.1097 0.0
H1341 H 0.61173 0.82256 0.09271 0.0
H1342 H 0.60257 0.82839 0.05696 0.0
H1343 H 0.6283 0.80871 0.06456 0.0
C1344 C 0.24833 0.64609 0.13561 0.0
C1345 C 0.2575 0.64486 0.16309 0.0
C1346 C 0.2511 0.62646 0.11691 0.0
C1347 C 0.26301 0.60483 0.12596 0.0
C1348 C 0.27225 0.60336 0.15366 0.0
C1349 C 0.26953 0.62343 0.17183 0.0
C1350 C 0.24103 0.62879 0.0875 0.0
C1351 C 0.28482 0.58051 0.16417 0.0
C1352 C 0.24512 0.54826 0.08482 0.0
C1353 C 0.26473 0.54594 0.06595 0.0
C1354 C 0.24492 0.56664 0.10531 0.0
C1355 C 0.26464 0.58342 0.10672 0.0
C1356 C 0.28495 0.58064 0.08844 0.0
C1357 C 0.28485 0.56176 0.06837 0.0
C1358 C 0.22312 0.56866 0.12472 0.0
C1359 C 0.3062 0.59834 0.08914 0.0
H1360 H 0.23868 0.66235 0.12873 0.0
H1361 H 0.27708 0.62241 0.19283 0.0
H1362 H 0.25566 0.62492 0.07193 0.0
H1363 H 0.22628 0.61512 0.08418 0.0
H1364 H 0.23345 0.6473 0.08326 0.0
H1365 H 0.2913 0.58241 0.18616 0.0
H1366 H 0.27199 0.56478 0.16301 0.0
H1367 H 0.30075 0.57608 0.15063 0.0
H1368 H 0.22962 0.53591 0.08322 0.0
H1369 H 0.29998 0.56011 0.05373 0.0
H1370 H 0.21284 0.5857 0.12006 0.0
H1371 H 0.22931 0.56977 0.14686 0.0
H1372 H 0.21038 0.55291 0.12258 0.0
H1373 H 0.29983 0.61671 0.08242 0.0
H1374 H 0.32142 0.59255 0.07514 0.0
H1375 H 0.31337 0.60017 0.11081 0.0
C1376 C 0.36208 0.79002 0.85316 0.0
C1377 C 0.34276 0.77441 0.86059 0.0
C1378 C 0.38306 0.792 0.87016 0.0
C1379 C 0.38442 0.77846 0.89547 0.0
C1380 C 0.36442 0.76347 0.90358 0.0
C1381 C 0.34397 0.76138 0.88584 0.0
C1382 C 0.40418 0.8077 0.86044 0.0
C1383 C 0.36489 0.74914 0.93066 0.0
C1384 C 0.44544 0.75822 0.92592 0.0
C1385 C 0.44891 0.77507 0.94772 0.0
C1386 C 0.42511 0.75985 0.90799 0.0
C1387 C 0.40738 0.77839 0.91247 0.0
C1388 C 0.41106 0.79581 0.93411 0.0
C1389 C 0.43201 0.79414 0.95128 0.0
C1390 C 0.42227 0.7413 0.88472 0.0
C1391 C 0.39234 0.8155 0.93993 0.0
H1392 H 0.36115 0.79995 0.83349 0.0
H1393 H 0.32892 0.74943 0.89161 0.0
H1394 H 0.40964 0.82072 0.87717 0.0
H1395 H 0.42031 0.79594 0.85601 0.0
H1396 H 0.39965 0.81823 0.84118 0.0
H1397 H 0.34701 0.74022 0.93516 0.0
H1398 H 0.37921 0.73476 0.92951 0.0
H1399 H 0.36966 0.76134 0.94845 0.0
H1400 H 0.4586 0.74356 0.923 0.0
H1401 H 0.43457 0.80705 0.96829 0.0
H1402 H 0.41886 0.75069 0.86445 0.0
H1403 H 0.40619 0.72944 0.88902 0.0
H1404 H 0.43873 0.72948 0.88247 0.0
H1405 H 0.38823 0.82591 0.92051 0.0
H1406 H 0.39859 0.82852 0.95634 0.0
H1407 H 0.37494 0.80694 0.94697 0.0
C1408 C 0.27389 0.38053 0.82999 0.0
C1409 C 0.26084 0.35932 0.83736 0.0
C1410 C 0.27653 0.40003 0.84897 0.0
C1411 C 0.26613 0.3982 0.87609 0.0
C1412 C 0.25319 0.37677 0.88378 0.0
C1413 C 0.25054 0.35772 0.86429 0.0
C1414 C 0.29024 0.4227 0.83992 0.0
C1415 C 0.24184 0.37406 0.91252 0.0
C1416 C 0.28647 0.43926 0.93632 0.0
C1417 C 0.26668 0.45555 0.93805 0.0
C1418 C 0.28701 0.42089 0.91564 0.0
C1419 C 0.2675 0.41912 0.89606 0.0
C1420 C 0.2482 0.4364 0.89685 0.0
C1421 C 0.24793 0.45425 0.91794 0.0
C1422 C 0.30779 0.40264 0.91561 0.0
C1423 C 0.22727 0.43546 0.8761 0.0
H1424 H 0.28228 0.38181 0.80944 0.0
H1425 H 0.2401 0.34162 0.8701 0.0
H1426 H 0.27784 0.43879 0.84076 0.0
H1427 H 0.30564 0.42636 0.85454 0.0
H1428 H 0.29767 0.42107 0.81831 0.0
H1429 H 0.23358 0.3557 0.91575 0.0
H1430 H 0.25589 0.37715 0.92899 0.0
H1431 H 0.22734 0.38807 0.91545 0.0
H1432 H 0.30093 0.44014 0.9519 0.0
H1433 H 0.23271 0.46698 0.91901 0.0
H1434 H 0.31583 0.40106 0.89432 0.0
H1435 H 0.30066 0.38431 0.92143 0.0
H1436 H 0.32254 0.40771 0.93061 0.0
H1437 H 0.23443 0.43468 0.85434 0.0
H1438 H 0.21489 0.45152 0.87799 0.0
H1439 H 0.21632 0.41862 0.8796 0.0
C1440 C 0.63539 0.23908 0.84435 0.0
C1441 C 0.65907 0.23297 0.85345 0.0
C1442 C 0.61521 0.23755 0.86255 0.0
C1443 C 0.61883 0.22999 0.89067 0.0
C1444 C 0.64262 0.22326 0.89981 0.0
C1445 C 0.66245 0.22469 0.88103 0.0
C1446 C 0.59011 0.24461 0.85188 0.0
C1447 C 0.64729 0.21538 0.92969 0.0
C1448 C 0.57282 0.25389 0.94381 0.0
C1449 C 0.5577 0.23345 0.94817 0.0
C1450 C 0.59296 0.25281 0.92556 0.0
C1451 C 0.59803 0.23084 0.91095 0.0
C1452 C 0.58293 0.21008 0.9153 0.0
C1453 C 0.56302 0.21158 0.93402 0.0
C1454 C 0.60874 0.2753 0.92179 0.0
C1455 C 0.58761 0.18641 0.89987 0.0
H1456 H 0.63265 0.24515 0.82292 0.0
H1457 H 0.68075 0.22011 0.88819 0.0
H1458 H 0.57673 0.22981 0.85631 0.0
H1459 H 0.58364 0.26125 0.86297 0.0
H1460 H 0.59009 0.24835 0.82897 0.0
H1461 H 0.66652 0.20932 0.93303 0.0
H1462 H 0.64341 0.23084 0.94412 0.0
H1463 H 0.6348 0.2002 0.93553 0.0
H1464 H 0.56899 0.27082 0.95482 0.0
H1465 H 0.55141 0.19573 0.93722 0.0
H1466 H 0.608 0.28146 0.89963 0.0
H1467 H 0.62815 0.2709 0.92662 0.0
H1468 H 0.60284 0.29068 0.93545 0.0
H1469 H 0.58619 0.18951 0.87692 0.0
H1470 H 0.57445 0.17182 0.90591 0.0
H1471 H 0.60651 0.17988 0.90417 0.0
C1472 C 0.74139 0.6462 0.86148 0.0
C1473 C 0.73705 0.6403 0.83328 0.0
C1474 C 0.73972 0.62835 0.88257 0.0
C1475 C 0.73365 0.60397 0.87528 0.0
C1476 C 0.72876 0.598 0.84691 0.0
C1477 C 0.7305 0.61624 0.82626 0.0
C1478 C 0.74499 0.63548 0.91258 0.0
C1479 C 0.72241 0.57218 0.83828 0.0
C1480 C 0.75792 0.55461 0.92369 0.0
C1481 C 0.73716 0.54865 0.93973 0.0
C1482 C 0.75683 0.57224 0.90242 0.0
C1483 C 0.73444 0.5844 0.89699 0.0
C1484 C 0.71325 0.57825 0.9127 0.0
C1485 C 0.71483 0.56035 0.93389 0.0
C1486 C 0.77983 0.57814 0.88606 0.0
C1487 C 0.68907 0.59089 0.90748 0.0
H1488 H 0.746 0.66486 0.8671 0.0
H1489 H 0.72725 0.61154 0.80448 0.0
H1490 H 0.72959 0.62984 0.92635 0.0
H1491 H 0.76165 0.62581 0.92007 0.0
H1492 H 0.74792 0.65548 0.91501 0.0
H1493 H 0.71746 0.57089 0.81572 0.0
H1494 H 0.73829 0.55997 0.84228 0.0
H1495 H 0.70686 0.56524 0.85098 0.0
H1496 H 0.77524 0.54557 0.92786 0.0
H1497 H 0.69873 0.55588 0.94619 0.0
H1498 H 0.78495 0.59757 0.88939 0.0
H1499 H 0.7765 0.57566 0.86328 0.0
H1500 H 0.79559 0.56645 0.8923 0.0
H1501 H 0.69092 0.61075 0.91182 0.0
H1502 H 0.67411 0.58343 0.92079 0.0
H1503 H 0.68374 0.58897 0.88512 0.0
loop_
_geom_bond_atom_site_label_1
_geom_bond_atom_site_label_2
_geom_bond_distance
_geom_bond_site_symmetry_2
_ccdc_geom_bond_type
C0 C1 1.384 . S
C0 C2 1.384 . S
C0 H28 0.931 . S
C1 C0 1.384 . S
C1 C4 1.382 . S
C2 C0 1.384 . S
C2 C3 1.381 . S
C2 H29 0.930 . S
C3 C2 1.381 . S
C3 C5 1.381 . S
C3 C6 1.487 . S
C4 C1 1.382 . S
C4 C5 1.387 . S
C4 H30 0.930 . S
C5 C3 1.381 . S
C5 C4 1.387 . S
C5 H31 0.931 . S
C6 C3 1.487 . S
C6 C13 1.399 . S
C6 N44 1.343 . S
C7 C8 1.384 . S
C7 C9 1.384 . S
C7 H32 0.931 . S
C8 C7 1.384 . S
C8 C11 1.382 . S
C9 C7 1.384 . S
C9 C10 1.381 . S
C9 H33 0.930 . S
C10 C9 1.381 . S
C10 C12 1.381 . S
C10 C13 1.487 . S
C11 C8 1.382 . S
C11 C12 1.387 . S
C11 H34 0.930 . S
C12 C10 1.381 . S
C12 C11 1.387 . S
C12 H35 0.931 . S
C13 C6 1.399 . S
C13 C10 1.487 . S
C13 N45 1.343 . S
C14 C15 1.384 . S
C14 C16 1.384 . S
C14 H36 0.931 . S
C15 C14 1.384 . S
C15 C18 1.382 . S
C16 C14 1.384 . S
C16 C17 1.381 . S
C16 H37 0.930 . S
C17 C16 1.381 . S
C17 C19 1.381 . S
C17 C20 1.487 . S
C18 C15 1.382 . S
C18 C19 1.387 . S
C18 H38 0.930 . S
C19 C17 1.381 . S
C19 C18 1.387 . S
C19 H39 0.931 . S
C20 C17 1.487 . S
C20 C27 1.399 . S
C20 N45 1.343 . S
C21 C22 1.384 . S
C21 C23 1.384 . S
C21 H40 0.931 . S
C22 C21 1.384 . S
C22 C25 1.382 . S
C23 C21 1.384 . S
C23 C24 1.381 . S
C23 H41 0.930 . S
C24 C23 1.381 . S
C24 C26 1.381 . S
C24 C27 1.487 . S
C25 C22 1.382 . S
C25 C26 1.387 . S
C25 H42 0.930 . S
C26 C24 1.381 . S
C26 C25 1.387 . S
C26 H43 0.931 . S
C27 C20 1.399 . S
C27 C24 1.487 . S
C27 N44 1.343 . S
H28 C0 0.931 . S
H29 C2 0.930 . S
H30 C4 0.930 . S
H31 C5 0.931 . S
H32 C7 0.931 . S
H33 C9 0.930 . S
H34 C11 0.930 . S
H35 C12 0.931 . S
H36 C14 0.931 . S
H37 C16 0.930 . S
H38 C18 0.930 . S
H39 C19 0.931 . S
H40 C21 0.931 . S
H41 C23 0.930 . S
H42 C25 0.930 . S
H43 C26 0.931 . S
N44 C6 1.343 . S
N44 C27 1.343 . S
N45 C13 1.343 . S
N45 C20 1.343 . S
C46 C47 1.384 . S
C46 C48 1.384 . S
C46 H74 0.931 . S
C47 C46 1.384 . S
C47 C50 1.382 . S
C48 C46 1.384 . S
C48 C49 1.381 . S
C48 H75 0.930 . S
C49 C48 1.381 . S
C49 C51 1.381 . S
C49 C52 1.487 . S
C50 C47 1.382 . S
C50 C51 1.387 . S
C50 H76 0.930 . S
C51 C49 1.381 . S
C51 C50 1.387 . S
C51 H77 0.931 . S
C52 C49 1.487 . S
C52 C59 1.399 . S
C52 N90 1.343 . S
C53 C54 1.384 . S
C53 C55 1.384 . S
C53 H78 0.931 . S
C54 C53 1.384 . S
C54 C57 1.382 . S
C55 C53 1.384 . S
C55 C56 1.381 . S
C55 H79 0.930 . S
C56 C55 1.381 . S
C56 C58 1.381 . S
C56 C59 1.487 . S
C57 C54 1.382 . S
C57 C58 1.387 . S
C57 H80 0.930 . S
C58 C56 1.381 . S
C58 C57 1.387 . S
C58 H81 0.931 . S
C59 C52 1.399 . S
C59 C56 1.487 . S
C59 N91 1.343 . S
C60 C61 1.384 . S
C60 C62 1.384 . S
C60 H82 0.931 . S
C61 C60 1.384 . S
C61 C64 1.382 . S
C62 C60 1.384 . S
C62 C63 1.381 . S
C62 H83 0.930 . S
C63 C62 1.381 . S
C63 C65 1.381 . S
C63 C66 1.487 . S
C64 C61 1.382 . S
C64 C65 1.387 . S
C64 H84 0.930 . S
C65 C63 1.381 . S
C65 C64 1.387 . S
C65 H85 0.931 . S
C66 C63 1.487 . S
C66 C73 1.399 . S
C66 N91 1.343 . S
C67 C68 1.384 . S
C67 C69 1.384 . S
C67 H86 0.931 . S
C68 C67 1.384 . S
C68 C71 1.382 . S
C69 C67 1.384 . S
C69 C70 1.381 . S
C69 H87 0.930 . S
C70 C69 1.381 . S
C70 C72 1.381 . S
C70 C73 1.487 . S
C71 C68 1.382 . S
C71 C72 1.387 . S
C71 H88 0.930 . S
C72 C70 1.381 . S
C72 C71 1.387 . S
C72 H89 0.931 . S
C73 C66 1.399 . S
C73 C70 1.487 . S
C73 N90 1.343 . S
H74 C46 0.931 . S
H75 C48 0.930 . S
H76 C50 0.930 . S
H77 C51 0.931 . S
H78 C53 0.931 . S
H79 C55 0.930 . S
H80 C57 0.930 . S
H81 C58 0.931 . S
H82 C60 0.931 . S
H83 C62 0.930 . S
H84 C64 0.930 . S
H85 C65 0.931 . S
H86 C67 0.931 . S
H87 C69 0.930 . S
H88 C71 0.930 . S
H89 C72 0.931 . S
N90 C52 1.343 . S
N90 C73 1.343 . S
N91 C59 1.343 . S
N91 C66 1.343 . S
C92 C93 1.384 . S
C92 C94 1.384 . S
C92 H120 0.931 . S
C93 C92 1.384 . S
C93 C96 1.382 . S
C94 C92 1.384 . S
C94 C95 1.381 . S
C94 H121 0.930 . S
C95 C94 1.381 . S
C95 C97 1.381 . S
C95 C98 1.487 . S
C96 C93 1.382 . S
C96 C97 1.387 . S
C96 H122 0.930 . S
C97 C95 1.381 . S
C97 C96 1.387 . S
C97 H123 0.931 . S
C98 C95 1.487 . S
C98 C105 1.399 . S
C98 N136 1.343 . S
C99 C100 1.384 . S
C99 C101 1.384 . S
C99 H124 0.931 . S
C100 C99 1.384 . S
C100 C103 1.382 . S
C101 C99 1.384 . S
C101 C102 1.381 . S
C101 H125 0.930 . S
C102 C101 1.381 . S
C102 C104 1.381 . S
C102 C105 1.487 . S
C103 C100 1.382 . S
C103 C104 1.387 . S
C103 H126 0.930 . S
C104 C102 1.381 . S
C104 C103 1.387 . S
C104 H127 0.931 . S
C105 C98 1.399 . S
C105 C102 1.487 . S
C105 N137 1.343 . S
C106 C107 1.384 . S
C106 C108 1.384 . S
C106 H128 0.931 . S
C107 C106 1.384 . S
C107 C110 1.382 . S
C108 C106 1.384 . S
C108 C109 1.381 . S
C108 H129 0.930 . S
C109 C108 1.381 . S
C109 C111 1.381 . S
C109 C112 1.487 . S
C110 C107 1.382 . S
C110 C111 1.387 . S
C110 H130 0.930 . S
C111 C109 1.381 . S
C111 C110 1.387 . S
C111 H131 0.931 . S
C112 C109 1.487 . S
C112 C119 1.399 . S
C112 N137 1.343 . S
C113 C114 1.384 . S
C113 C115 1.384 . S
C113 H132 0.931 . S
C114 C113 1.384 . S
C114 C117 1.382 . S
C115 C113 1.384 . S
C115 C116 1.381 . S
C115 H133 0.930 . S
C116 C115 1.381 . S
C116 C118 1.381 . S
C116 C119 1.487 . S
C117 C114 1.382 . S
C117 C118 1.387 . S
C117 H134 0.930 . S
C118 C116 1.381 . S
C118 C117 1.387 . S
C118 H135 0.931 . S
C119 C112 1.399 . S
C119 C116 1.487 . S
C119 N136 1.343 . S
H120 C92 0.931 . S
H121 C94 0.930 . S
H122 C96 0.930 . S
H123 C97 0.931 . S
H124 C99 0.931 . S
H125 C101 0.930 . S
H126 C103 0.930 . S
H127 C104 0.931 . S
H128 C106 0.931 . S
H129 C108 0.930 . S
H130 C110 0.930 . S
H131 C111 0.931 . S
H132 C113 0.931 . S
H133 C115 0.930 . S
H134 C117 0.930 . S
H135 C118 0.931 . S
N136 C98 1.343 . S
N136 C119 1.343 . S
N137 C105 1.343 . S
N137 C112 1.343 . S
C138 C139 1.384 . S
C138 C140 1.384 . S
C138 H166 0.931 . S
C139 C138 1.384 . S
C139 C142 1.382 . S
C140 C138 1.384 . S
C140 C141 1.381 . S
C140 H167 0.930 . S
C141 C140 1.381 . S
C141 C143 1.381 . S
C141 C144 1.487 . S
C142 C139 1.382 . S
C142 C143 1.387 . S
C142 H168 0.930 . S
C143 C141 1.381 . S
C143 C142 1.387 . S
C143 H169 0.931 . S
C144 C141 1.487 . S
C144 C151 1.399 . S
C144 N182 1.343 . S
C145 C146 1.384 . S
C145 C147 1.384 . S
C145 H170 0.931 . S
C146 C145 1.384 . S
C146 C149 1.382 . S
C147 C145 1.384 . S
C147 C148 1.381 . S
C147 H171 0.930 . S
C148 C147 1.381 . S
C148 C150 1.381 . S
C148 C151 1.487 . S
C149 C146 1.382 . S
C149 C150 1.387 . S
C149 H172 0.930 . S
C150 C148 1.381 . S
C150 C149 1.387 . S
C150 H173 0.931 . S
C151 C144 1.399 . S
C151 C148 1.487 . S
C151 N183 1.343 . S
C152 C153 1.384 . S
C152 C154 1.384 . S
C152 H174 0.931 . S
C153 C152 1.384 . S
C153 C156 1.382 . S
C154 C152 1.384 . S
C154 C155 1.381 . S
C154 H175 0.930 . S
C155 C154 1.381 . S
C155 C157 1.381 . S
C155 C158 1.487 . S
C156 C153 1.382 . S
C156 C157 1.387 . S
C156 H176 0.930 . S
C157 C155 1.381 . S
C157 C156 1.387 . S
C157 H177 0.931 . S
C158 C155 1.487 . S
C158 C165 1.399 . S
C158 N183 1.343 . S
C159 C160 1.384 . S
C159 C161 1.384 . S
C159 H178 0.931 . S
C160 C159 1.384 . S
C160 C163 1.382 . S
C161 C159 1.384 . S
C161 C162 1.381 . S
C161 H179 0.930 . S
C162 C161 1.381 . S
C162 C164 1.381 . S
C162 C165 1.487 . S
C163 C160 1.382 . S
C163 C164 1.387 . S
C163 H180 0.930 . S
C164 C162 1.381 . S
C164 C163 1.387 . S
C164 H181 0.931 . S
C165 C158 1.399 . S
C165 C162 1.487 . S
C165 N182 1.343 . S
H166 C138 0.931 . S
H167 C140 0.930 . S
H168 C142 0.930 . S
H169 C143 0.931 . S
H170 C145 0.931 . S
H171 C147 0.930 . S
H172 C149 0.930 . S
H173 C150 0.931 . S
H174 C152 0.931 . S
H175 C154 0.930 . S
H176 C156 0.930 . S
H177 C157 0.931 . S
H178 C159 0.931 . S
H179 C161 0.930 . S
H180 C163 0.930 . S
H181 C164 0.931 . S
N182 C144 1.343 . S
N182 C165 1.343 . S
N183 C151 1.343 . S
N183 C158 1.343 . S
C184 C185 1.384 . S
C184 C186 1.384 . S
C184 H212 0.931 . S
C185 C184 1.384 . S
C185 C188 1.382 . S
C186 C184 1.384 . S
C186 C187 1.381 . S
C186 H213 0.930 . S
C187 C186 1.381 . S
C187 C189 1.381 . S
C187 C190 1.487 . S
C188 C185 1.382 . S
C188 C189 1.387 . S
C188 H214 0.930 . S
C189 C187 1.381 . S
C189 C188 1.387 . S
C189 H215 0.931 . S
C190 C187 1.487 . S
C190 C197 1.399 . S
C190 N228 1.343 . S
C191 C192 1.384 . S
C191 C193 1.384 . S
C191 H216 0.931 . S
C192 C191 1.384 . S
C192 C195 1.382 . S
C193 C191 1.384 . S
C193 C194 1.381 . S
C193 H217 0.930 . S
C194 C193 1.381 . S
C194 C196 1.381 . S
C194 C197 1.487 . S
C195 C192 1.382 . S
C195 C196 1.387 . S
C195 H218 0.930 . S
C196 C194 1.381 . S
C196 C195 1.387 . S
C196 H219 0.931 . S
C197 C190 1.399 . S
C197 C194 1.487 . S
C197 N229 1.343 . S
C198 C199 1.384 . S
C198 C200 1.384 . S
C198 H220 0.931 . S
C199 C198 1.384 . S
C199 C202 1.382 . S
C200 C198 1.384 . S
C200 C201 1.381 . S
C200 H221 0.930 . S
C201 C200 1.381 . S
C201 C203 1.381 . S
C201 C204 1.487 . S
C202 C199 1.382 . S
C202 C203 1.387 . S
C202 H222 0.930 . S
C203 C201 1.381 . S
C203 C202 1.387 . S
C203 H223 0.931 . S
C204 C201 1.487 . S
C204 C211 1.399 . S
C204 N229 1.343 . S
C205 C206 1.384 . S
C205 C207 1.384 . S
C205 H224 0.931 . S
C206 C205 1.384 . S
C206 C209 1.382 . S
C207 C205 1.384 . S
C207 C208 1.381 . S
C207 H225 0.930 . S
C208 C207 1.381 . S
C208 C210 1.381 . S
C208 C211 1.487 . S
C209 C206 1.382 . S
C209 C210 1.387 . S
C209 H226 0.930 . S
C210 C208 1.381 . S
C210 C209 1.387 . S
C210 H227 0.931 . S
C211 C204 1.399 . S
C211 C208 1.487 . S
C211 N228 1.343 . S
H212 C184 0.931 . S
H213 C186 0.930 . S
H214 C188 0.930 . S
H215 C189 0.931 . S
H216 C191 0.931 . S
H217 C193 0.930 . S
H218 C195 0.930 . S
H219 C196 0.931 . S
H220 C198 0.931 . S
H221 C200 0.930 . S
H222 C202 0.930 . S
H223 C203 0.931 . S
H224 C205 0.931 . S
H225 C207 0.930 . S
H226 C209 0.930 . S
H227 C210 0.931 . S
N228 C190 1.343 . S
N228 C211 1.343 . S
N229 C197 1.343 . S
N229 C204 1.343 . S
C230 C231 1.384 . S
C230 C232 1.384 . S
C230 H258 0.931 . S
C231 C230 1.384 . S
C231 C234 1.382 . S
C232 C230 1.384 . S
C232 C233 1.381 . S
C232 H259 0.930 . S
C233 C232 1.381 . S
C233 C235 1.381 . S
C233 C236 1.487 . S
C234 C231 1.382 . S
C234 C235 1.387 . S
C234 H260 0.930 . S
C235 C233 1.381 . S
C235 C234 1.387 . S
C235 H261 0.931 . S
C236 C233 1.487 . S
C236 C243 1.399 . S
C236 N274 1.343 . S
C237 C238 1.384 . S
C237 C239 1.384 . S
C237 H262 0.931 . S
C238 C237 1.384 . S
C238 C241 1.382 . S
C239 C237 1.384 . S
C239 C240 1.381 . S
C239 H263 0.930 . S
C240 C239 1.381 . S
C240 C242 1.381 . S
C240 C243 1.487 . S
C241 C238 1.382 . S
C241 C242 1.387 . S
C241 H264 0.930 . S
C242 C240 1.381 . S
C242 C241 1.387 . S
C242 H265 0.931 . S
C243 C236 1.399 . S
C243 C240 1.487 . S
C243 N275 1.343 . S
C244 C245 1.384 . S
C244 C246 1.384 . S
C244 H266 0.931 . S
C245 C244 1.384 . S
C245 C248 1.382 . S
C246 C244 1.384 . S
C246 C247 1.381 . S
C246 H267 0.930 . S
C247 C246 1.381 . S
C247 C249 1.381 . S
C247 C250 1.487 . S
C248 C245 1.382 . S
C248 C249 1.387 . S
C248 H268 0.930 . S
C249 C247 1.381 . S
C249 C248 1.387 . S
C249 H269 0.931 . S
C250 C247 1.487 . S
C250 C257 1.399 . S
C250 N275 1.343 . S
C251 C252 1.384 . S
C251 C253 1.384 . S
C251 H270 0.931 . S
C252 C251 1.384 . S
C252 C255 1.382 . S
C253 C251 1.384 . S
C253 C254 1.381 . S
C253 H271 0.930 . S
C254 C253 1.381 . S
C254 C256 1.381 . S
C254 C257 1.487 . S
C255 C252 1.382 . S
C255 C256 1.387 . S
C255 H272 0.930 . S
C256 C254 1.381 . S
C256 C255 1.387 . S
C256 H273 0.931 . S
C257 C250 1.399 . S
C257 C254 1.487 . S
C257 N274 1.343 . S
H258 C230 0.931 . S
H259 C232 0.930 . S
H260 C234 0.930 . S
H261 C235 0.931 . S
H262 C237 0.931 . S
H263 C239 0.930 . S
H264 C241 0.930 . S
H265 C242 0.931 . S
H266 C244 0.931 . S
H267 C246 0.930 . S
H268 C248 0.930 . S
H269 C249 0.931 . S
H270 C251 0.931 . S
H271 C253 0.930 . S
H272 C255 0.930 . S
H273 C256 0.931 . S
N274 C236 1.343 . S
N274 C257 1.343 . S
N275 C243 1.343 . S
N275 C250 1.343 . S
C276 C277 1.384 . S
C276 C278 1.384 . S
C276 H304 0.931 . S
C277 C276 1.384 . S
C277 C280 1.382 . S
C278 C276 1.384 . S
C278 C279 1.381 . S
C278 H305 0.930 . S
C279 C278 1.381 . S
C279 C281 1.381 . S
C279 C282 1.487 . S
C280 C277 1.382 . S
C280 C281 1.387 . S
C280 H306 0.930 . S
C281 C279 1.381 . S
C281 C280 1.387 . S
C281 H307 0.931 . S
C282 C279 1.487 . S
C282 C289 1.399 . S
C282 N320 1.343 . S
C283 C284 1.384 . S
C283 C285 1.384 . S
C283 H308 0.931 . S
C284 C283 1.384 . S
C284 C287 1.382 . S
C285 C283 1.384 . S
C285 C286 1.381 . S
C285 H309 0.930 . S
C286 C285 1.381 . S
C286 C288 1.381 . S
C286 C289 1.487 . S
C287 C284 1.382 . S
C287 C288 1.387 . S
C287 H310 0.930 . S
C288 C286 1.381 . S
C288 C287 1.387 . S
C288 H311 0.931 . S
C289 C282 1.399 . S
C289 C286 1.487 . S
C289 N321 1.343 . S
C290 C291 1.384 . S
C290 C292 1.384 . S
C290 H312 0.931 . S
C291 C290 1.384 . S
C291 C294 1.382 . S
C292 C290 1.384 . S
C292 C293 1.381 . S
C292 H313 0.930 . S
C293 C292 1.381 . S
C293 C295 1.381 . S
C293 C296 1.487 . S
C294 C291 1.382 . S
C294 C295 1.387 . S
C294 H314 0.930 . S
C295 C293 1.381 . S
C295 C294 1.387 . S
C295 H315 0.931 . S
C296 C293 1.487 . S
C296 C303 1.399 . S
C296 N321 1.343 . S
C297 C298 1.384 . S
C297 C299 1.384 . S
C297 H316 0.931 . S
C298 C297 1.384 . S
C298 C301 1.382 . S
C299 C297 1.384 . S
C299 C300 1.381 . S
C299 H317 0.930 . S
C300 C299 1.381 . S
C300 C302 1.381 . S
C300 C303 1.487 . S
C301 C298 1.382 . S
C301 C302 1.387 . S
C301 H318 0.930 . S
C302 C300 1.381 . S
C302 C301 1.387 . S
C302 H319 0.931 . S
C303 C296 1.399 . S
C303 C300 1.487 . S
C303 N320 1.343 . S
H304 C276 0.931 . S
H305 C278 0.930 . S
H306 C280 0.930 . S
H307 C281 0.931 . S
H308 C283 0.931 . S
H309 C285 0.930 . S
H310 C287 0.930 . S
H311 C288 0.931 . S
H312 C290 0.931 . S
H313 C292 0.930 . S
H314 C294 0.930 . S
H315 C295 0.931 . S
H316 C297 0.931 . S
H317 C299 0.930 . S
H318 C301 0.930 . S
H319 C302 0.931 . S
N320 C282 1.343 . S
N320 C303 1.343 . S
N321 C289 1.343 . S
N321 C296 1.343 . S
C322 C323 1.384 . S
C322 C324 1.384 . S
C322 H350 0.931 . S
C323 C322 1.384 . S
C323 C326 1.382 . S
C324 C322 1.384 . S
C324 C325 1.381 . S
C324 H351 0.930 . S
C325 C324 1.381 . S
C325 C327 1.381 . S
C325 C328 1.487 . S
C326 C323 1.382 . S
C326 C327 1.387 . S
C326 H352 0.930 . S
C327 C325 1.381 . S
C327 C326 1.387 . S
C327 H353 0.931 . S
C328 C325 1.487 . S
C328 C335 1.399 . S
C328 N366 1.343 . S
C329 C330 1.384 . S
C329 C331 1.384 . S
C329 H354 0.931 . S
C330 C329 1.384 . S
C330 C333 1.382 . S
C331 C329 1.384 . S
C331 C332 1.381 . S
C331 H355 0.930 . S
C332 C331 1.381 . S
C332 C334 1.381 . S
C332 C335 1.487 . S
C333 C330 1.382 . S
C333 C334 1.387 . S
C333 H356 0.930 . S
C334 C332 1.381 . S
C334 C333 1.387 . S
C334 H357 0.931 . S
C335 C328 1.399 . S
C335 C332 1.487 . S
C335 N367 1.343 . S
C336 C337 1.384 . S
C336 C338 1.384 . S
C336 H358 0.931 . S
C337 C336 1.384 . S
C337 C340 1.382 . S
C338 C336 1.384 . S
C338 C339 1.381 . S
C338 H359 0.930 . S
C339 C338 1.381 . S
C339 C341 1.381 . S
C339 C342 1.487 . S
C340 C337 1.382 . S
C340 C341 1.387 . S
C340 H360 0.930 . S
C341 C339 1.381 . S
C341 C340 1.387 . S
C341 H361 0.931 . S
C342 C339 1.487 . S
C342 C349 1.399 . S
C342 N367 1.343 . S
C343 C344 1.384 . S
C343 C345 1.384 . S
C343 H362 0.931 . S
C344 C343 1.384 . S
C344 C347 1.382 . S
C345 C343 1.384 . S
C345 C346 1.381 . S
C345 H363 0.930 . S
C346 C345 1.381 . S
C346 C348 1.381 . S
C346 C349 1.487 . S
C347 C344 1.382 . S
C347 C348 1.387 . S
C347 H364 0.930 . S
C348 C346 1.381 . S
C348 C347 1.387 . S
C348 H365 0.931 . S
C349 C342 1.399 . S
C349 C346 1.487 . S
C349 N366 1.343 . S
H350 C322 0.931 . S
H351 C324 0.930 . S
H352 C326 0.930 . S
H353 C327 0.931 . S
H354 C329 0.931 . S
H355 C331 0.930 . S
H356 C333 0.930 . S
H357 C334 0.931 . S
H358 C336 0.931 . S
H359 C338 0.930 . S
H360 C340 0.930 . S
H361 C341 0.931 . S
H362 C343 0.931 . S
H363 C345 0.930 . S
H364 C347 0.930 . S
H365 C348 0.931 . S
N366 C328 1.343 . S
N366 C349 1.343 . S
N367 C335 1.343 . S
N367 C342 1.343 . S
C368 O370 1.247 . S
C368 O372 1.258 . S
C369 O376 1.247 . S
C369 O377 1.258 . S
O370 C368 1.247 . S
O370 Zn371 2.028 . S
Zn371 O370 2.028 . S
Zn371 O375 2.035 1_655 S
Zn371 O377 2.035 1_655 S
Zn371 O378 2.028 . S
O372 C368 1.258 . S
O372 Zn373 2.028 1_655 S
Zn373 O372 2.028 1_455 S
Zn373 O374 2.035 . S
Zn373 O376 2.035 . S
Zn373 O379 2.028 1_455 S
O374 Zn373 2.035 . S
O374 C380 1.247 . S
O375 Zn371 2.035 1_455 S
O375 C380 1.258 . S
O376 C369 1.247 . S
O376 Zn373 2.035 . S
O377 C369 1.258 . S
O377 Zn371 2.035 1_455 S
O378 Zn371 2.028 . S
O378 C381 1.247 . S
O379 Zn373 2.028 1_655 S
O379 C381 1.258 . S
C380 O374 1.247 . S
C380 O375 1.258 . S
C381 O378 1.247 . S
C381 O379 1.258 . S
C382 O384 1.247 . S
C382 O386 1.258 . S
C383 O390 1.247 . S
C383 O391 1.258 . S
O384 C382 1.247 . S
O384 Zn385 2.035 . S
Zn385 O384 2.035 . S
Zn385 O389 2.028 1_545 S
Zn385 O391 2.028 1_545 S
Zn385 O392 2.035 . S
O386 C382 1.258 . S
O386 Zn387 2.036 1_545 S
Zn387 O386 2.036 1_565 S
Zn387 O388 2.028 . S
Zn387 O390 2.028 . S
Zn387 O393 2.036 1_565 S
O388 Zn387 2.028 . S
O388 C394 1.247 . S
O389 Zn385 2.028 1_565 S
O389 C394 1.258 . S
O390 C383 1.247 . S
O390 Zn387 2.028 . S
O391 C383 1.258 . S
O391 Zn385 2.028 1_565 S
O392 Zn385 2.035 . S
O392 C395 1.247 . S
O393 Zn387 2.036 1_545 S
O393 C395 1.258 . S
C394 O388 1.247 . S
C394 O389 1.258 . S
C395 O392 1.247 . S
C395 O393 1.258 . S
C396 O398 1.247 . S
C396 O400 1.258 . S
C397 O404 1.247 . S
C397 O405 1.258 . S
O398 C396 1.247 . S
O398 Zn399 2.028 . S
Zn399 O398 2.028 . S
Zn399 O403 2.035 1_655 S
Zn399 O405 2.035 1_655 S
Zn399 O406 2.028 . S
O400 C396 1.258 . S
O400 Zn401 2.028 1_655 S
Zn401 O400 2.028 1_455 S
Zn401 O402 2.035 . S
Zn401 O404 2.035 . S
Zn401 O407 2.028 1_455 S
O402 Zn401 2.035 . S
O402 C408 1.247 . S
O403 Zn399 2.035 1_455 S
O403 C408 1.258 . S
O404 C397 1.247 . S
O404 Zn401 2.035 . S
O405 C397 1.258 . S
O405 Zn399 2.035 1_455 S
O406 Zn399 2.028 . S
O406 C409 1.247 . S
O407 Zn401 2.028 1_655 S
O407 C409 1.258 . S
C408 O402 1.247 . S
C408 O403 1.258 . S
C409 O406 1.247 . S
C409 O407 1.258 . S
C410 O412 1.247 . S
C410 O414 1.258 . S
C411 O418 1.247 . S
C411 O419 1.258 . S
O412 C410 1.247 . S
O412 Zn413 2.035 . S
Zn413 O412 2.035 . S
Zn413 O417 2.028 1_545 S
Zn413 O419 2.028 1_545 S
Zn413 O420 2.035 . S
O414 C410 1.258 . S
O414 Zn415 2.036 1_545 S
Zn415 O414 2.036 1_565 S
Zn415 O416 2.027 . S
Zn415 O418 2.027 . S
Zn415 O421 2.036 1_565 S
O416 Zn415 2.027 . S
O416 C422 1.247 . S
O417 Zn413 2.028 1_565 S
O417 C422 1.258 . S
O418 C411 1.247 . S
O418 Zn415 2.027 . S
O419 C411 1.258 . S
O419 Zn413 2.028 1_565 S
O420 Zn413 2.035 . S
O420 C423 1.247 . S
O421 Zn415 2.036 1_545 S
O421 C423 1.258 . S
C422 O416 1.247 . S
C422 O417 1.258 . S
C423 O420 1.247 . S
C423 O421 1.258 . S
C424 O426 1.247 . S
C424 O428 1.258 . S
C425 O432 1.247 . S
C425 O433 1.258 . S
O426 C424 1.247 . S
O426 Zn427 2.028 . S
Zn427 O426 2.028 . S
Zn427 O431 2.035 . S
Zn427 O433 2.035 1_554 S
Zn427 O434 2.028 1_554 S
O428 C424 1.258 . S
O428 Zn429 2.035 . S
Zn429 O428 2.035 . S
Zn429 O430 2.028 . S
Zn429 O432 2.028 1_554 S
Zn429 O435 2.035 1_554 S
O430 Zn429 2.028 . S
O430 C436 1.247 . S
O431 Zn427 2.035 . S
O431 C436 1.258 . S
O432 C425 1.247 . S
O432 Zn429 2.028 1_556 S
O433 C425 1.258 . S
O433 Zn427 2.035 1_556 S
O434 Zn427 2.028 1_556 S
O434 C437 1.247 . S
O435 Zn429 2.035 1_556 S
O435 C437 1.258 . S
C436 O430 1.247 . S
C436 O431 1.258 . S
C437 O434 1.247 . S
C437 O435 1.258 . S
C438 O440 1.247 . S
C438 O442 1.258 . S
C439 O446 1.247 . S
C439 O447 1.258 . S
O440 C438 1.247 . S
O440 Zn441 2.028 . S
Zn441 O440 2.028 . S
Zn441 O445 2.035 . S
Zn441 O447 2.035 1_554 S
Zn441 O448 2.028 1_554 S
O442 C438 1.258 . S
O442 Zn443 2.035 . S
Zn443 O442 2.035 . S
Zn443 O444 2.028 . S
Zn443 O446 2.028 1_554 S
Zn443 O449 2.035 1_554 S
O444 Zn443 2.028 . S
O444 C450 1.247 . S
O445 Zn441 2.035 . S
O445 C450 1.258 . S
O446 C439 1.247 . S
O446 Zn443 2.028 1_556 S
O447 C439 1.258 . S
O447 Zn441 2.035 1_556 S
O448 Zn441 2.028 1_556 S
O448 C451 1.247 . S
O449 Zn443 2.035 1_556 S
O449 C451 1.258 . S
C450 O444 1.247 . S
C450 O445 1.258 . S
C451 O448 1.247 . S
C451 O449 1.258 . S
C452 O454 1.247 . S
C452 O456 1.258 . S
C453 O460 1.247 . S
C453 O461 1.258 . S
O454 C452 1.247 . S
O454 Zn455 2.028 1_556 S
Zn455 O454 2.028 1_554 S
Zn455 O459 2.035 1_554 S
Zn455 O461 2.035 . S
Zn455 O462 2.028 . S
O456 C452 1.258 . S
O456 Zn457 2.035 1_556 S
Zn457 O456 2.035 1_554 S
Zn457 O458 2.028 1_554 S
Zn457 O460 2.028 . S
Zn457 O463 2.035 . S
O458 Zn457 2.028 1_556 S
O458 C464 1.247 . S
O459 Zn455 2.035 1_556 S
O459 C464 1.258 . S
O460 C453 1.247 . S
O460 Zn457 2.028 . S
O461 C453 1.258 . S
O461 Zn455 2.035 . S
O462 Zn455 2.028 . S
O462 C465 1.247 . S
O463 Zn457 2.035 . S
O463 C465 1.258 . S
C464 O458 1.247 . S
C464 O459 1.258 . S
C465 O462 1.247 . S
C465 O463 1.258 . S
C466 O468 1.247 . S
C466 O470 1.258 . S
C467 O474 1.247 . S
C467 O475 1.258 . S
O468 C466 1.247 . S
O468 Zn469 2.028 . S
Zn469 O468 2.028 . S
Zn469 O473 2.035 . S
Zn469 O475 2.035 1_554 S
Zn469 O476 2.028 1_554 S
O470 C466 1.258 . S
O470 Zn471 2.035 . S
Zn471 O470 2.035 . S
Zn471 O472 2.028 . S
Zn471 O474 2.028 1_554 S
Zn471 O477 2.035 1_554 S
O472 Zn471 2.028 . S
O472 C478 1.247 . S
O473 Zn469 2.035 . S
O473 C478 1.258 . S
O474 C467 1.247 . S
O474 Zn471 2.028 1_556 S
O475 C467 1.258 . S
O475 Zn469 2.035 1_556 S
O476 Zn469 2.028 1_556 S
O476 C479 1.247 . S
O477 Zn471 2.035 1_556 S
O477 C479 1.258 . S
C478 O472 1.247 . S
C478 O473 1.258 . S
C479 O476 1.247 . S
C479 O477 1.258 . S
C480 C481 1.391 . S
C480 C482 1.394 . S
C480 H496 0.931 . S
C481 C480 1.391 . S
C481 C485 1.376 . S
C482 C480 1.394 . S
C482 C483 1.369 . S
C482 C486 1.531 . S
C483 C482 1.369 . S
C483 C484 1.410 . S
C483 C491 1.503 . S
C484 C483 1.410 . S
C484 C485 1.392 . S
C484 C487 1.511 . S
C485 C481 1.376 . S
C485 C484 1.392 . S
C485 H497 0.929 . S
C486 C482 1.531 . S
C486 H498 0.960 . S
C486 H499 0.962 . S
C486 H500 0.960 . S
C487 C484 1.511 . S
C487 H501 0.961 . S
C487 H502 0.961 . S
C487 H503 0.961 . S
C488 C489 1.370 . S
C488 C490 1.363 . S
C488 H504 0.931 . S
C489 C488 1.370 . S
C489 C493 1.408 . S
C490 C488 1.363 . S
C490 C491 1.370 . S
C490 C494 1.524 . S
C491 C483 1.503 . S
C491 C490 1.370 . S
C491 C492 1.403 . S
C492 C491 1.403 . S
C492 C493 1.404 . S
C492 C495 1.539 . S
C493 C489 1.408 . S
C493 C492 1.404 . S
C493 H505 0.930 . S
C494 C490 1.524 . S
C494 H506 0.956 . S
C494 H507 0.961 . S
C494 H508 0.961 . S
C495 C492 1.539 . S
C495 H509 0.958 . S
C495 H510 0.961 . S
C495 H511 0.960 . S
H496 C480 0.931 . S
H497 C485 0.929 . S
H498 C486 0.960 . S
H499 C486 0.962 . S
H500 C486 0.960 . S
H501 C487 0.961 . S
H502 C487 0.961 . S
H503 C487 0.961 . S
H504 C488 0.931 . S
H505 C493 0.930 . S
H506 C494 0.956 . S
H507 C494 0.961 . S
H508 C494 0.961 . S
H509 C495 0.958 . S
H510 C495 0.961 . S
H511 C495 0.960 . S
C512 C513 1.391 . S
C512 C514 1.394 . S
C512 H528 0.931 . S
C513 C512 1.391 . S
C513 C517 1.376 . S
C514 C512 1.394 . S
C514 C515 1.369 . S
C514 C518 1.531 . S
C515 C514 1.369 . S
C515 C516 1.410 . S
C515 C523 1.503 . S
C516 C515 1.410 . S
C516 C517 1.392 . S
C516 C519 1.511 . S
C517 C513 1.376 . S
C517 C516 1.392 . S
C517 H529 0.929 . S
C518 C514 1.531 . S
C518 H530 0.960 . S
C518 H531 0.962 . S
C518 H532 0.960 . S
C519 C516 1.511 . S
C519 H533 0.961 . S
C519 H534 0.961 . S
C519 H535 0.961 . S
C520 C521 1.370 . S
C520 C522 1.363 . S
C520 H536 0.931 . S
C521 C520 1.370 . S
C521 C525 1.408 . S
C522 C520 1.363 . S
C522 C523 1.370 . S
C522 C526 1.524 . S
C523 C515 1.503 . S
C523 C522 1.370 . S
C523 C524 1.403 . S
C524 C523 1.403 . S
C524 C525 1.404 . S
C524 C527 1.539 . S
C525 C521 1.408 . S
C525 C524 1.404 . S
C525 H537 0.930 . S
C526 C522 1.524 . S
C526 H538 0.956 . S
C526 H539 0.961 . S
C526 H540 0.961 . S
C527 C524 1.539 . S
C527 H541 0.958 . S
C527 H542 0.961 . S
C527 H543 0.960 . S
H528 C512 0.931 . S
H529 C517 0.929 . S
H530 C518 0.960 . S
H531 C518 0.962 . S
H532 C518 0.960 . S
H533 C519 0.961 . S
H534 C519 0.961 . S
H535 C519 0.961 . S
H536 C520 0.931 . S
H537 C525 0.930 . S
H538 C526 0.956 . S
H539 C526 0.961 . S
H540 C526 0.961 . S
H541 C527 0.958 . S
H542 C527 0.961 . S
H543 C527 0.960 . S
C544 C545 1.391 . S
C544 C546 1.394 . S
C544 H560 0.931 . S
C545 C544 1.391 . S
C545 C549 1.376 . S
C546 C544 1.394 . S
C546 C547 1.369 . S
C546 C550 1.531 . S
C547 C546 1.369 . S
C547 C548 1.410 . S
C547 C555 1.503 . S
C548 C547 1.410 . S
C548 C549 1.392 . S
C548 C551 1.511 . S
C549 C545 1.376 . S
C549 C548 1.392 . S
C549 H561 0.929 . S
C550 C546 1.531 . S
C550 H562 0.960 . S
C550 H563 0.962 . S
C550 H564 0.960 . S
C551 C548 1.511 . S
C551 H565 0.961 . S
C551 H566 0.961 . S
C551 H567 0.961 . S
C552 C553 1.370 . S
C552 C554 1.363 . S
C552 H568 0.931 . S
C553 C552 1.370 . S
C553 C557 1.408 . S
C554 C552 1.363 . S
C554 C555 1.370 . S
C554 C558 1.524 . S
C555 C547 1.503 . S
C555 C554 1.370 . S
C555 C556 1.403 . S
C556 C555 1.403 . S
C556 C557 1.404 . S
C556 C559 1.539 . S
C557 C553 1.408 . S
C557 C556 1.404 . S
C557 H569 0.930 . S
C558 C554 1.524 . S
C558 H570 0.956 . S
C558 H571 0.961 . S
C558 H572 0.961 . S
C559 C556 1.539 . S
C559 H573 0.958 . S
C559 H574 0.961 . S
C559 H575 0.960 . S
H560 C544 0.931 . S
H561 C549 0.929 . S
H562 C550 0.960 . S
H563 C550 0.962 . S
H564 C550 0.960 . S
H565 C551 0.961 . S
H566 C551 0.961 . S
H567 C551 0.961 . S
H568 C552 0.931 . S
H569 C557 0.930 . S
H570 C558 0.956 . S
H571 C558 0.961 . S
H572 C558 0.961 . S
H573 C559 0.958 . S
H574 C559 0.961 . S
H575 C559 0.960 . S
C576 C577 1.391 . S
C576 C578 1.394 . S
C576 H592 0.931 . S
C577 C576 1.391 . S
C577 C581 1.376 . S
C578 C576 1.394 . S
C578 C579 1.369 . S
C578 C582 1.531 . S
C579 C578 1.369 . S
C579 C580 1.410 . S
C579 C587 1.503 . S
C580 C579 1.410 . S
C580 C581 1.392 . S
C580 C583 1.511 . S
C581 C577 1.376 . S
C581 C580 1.392 . S
C581 H593 0.929 . S
C582 C578 1.531 . S
C582 H594 0.960 . S
C582 H595 0.962 . S
C582 H596 0.960 . S
C583 C580 1.511 . S
C583 H597 0.961 . S
C583 H598 0.961 . S
C583 H599 0.961 . S
C584 C585 1.370 . S
C584 C586 1.363 . S
C584 H600 0.931 . S
C585 C584 1.370 . S
C585 C589 1.408 . S
C586 C584 1.363 . S
C586 C587 1.370 . S
C586 C590 1.524 . S
C587 C579 1.503 . S
C587 C586 1.370 . S
C587 C588 1.403 . S
C588 C587 1.403 . S
C588 C589 1.404 . S
C588 C591 1.539 . S
C589 C585 1.408 . S
C589 C588 1.404 . S
C589 H601 0.930 . S
C590 C586 1.524 . S
C590 H602 0.956 . S
C590 H603 0.961 . S
C590 H604 0.961 . S
C591 C588 1.539 . S
C591 H605 0.958 . S
C591 H606 0.961 . S
C591 H607 0.960 . S
H592 C576 0.931 . S
H593 C581 0.929 . S
H594 C582 0.960 . S
H595 C582 0.962 . S
H596 C582 0.960 . S
H597 C583 0.961 . S
H598 C583 0.961 . S
H599 C583 0.961 . S
H600 C584 0.931 . S
H601 C589 0.930 . S
H602 C590 0.956 . S
H603 C590 0.961 . S
H604 C590 0.961 . S
H605 C591 0.958 . S
H606 C591 0.961 . S
H607 C591 0.960 . S
C608 C609 1.391 . S
C608 C610 1.394 . S
C608 H624 0.931 . S
C609 C608 1.391 . S
C609 C613 1.376 . S
C610 C608 1.394 . S
C610 C611 1.369 . S
C610 C614 1.531 . S
C611 C610 1.369 . S
C611 C612 1.410 . S
C611 C619 1.503 . S
C612 C611 1.410 . S
C612 C613 1.392 . S
C612 C615 1.511 . S
C613 C609 1.376 . S
C613 C612 1.392 . S
C613 H625 0.929 . S
C614 C610 1.531 . S
C614 H626 0.960 . S
C614 H627 0.962 . S
C614 H628 0.960 . S
C615 C612 1.511 . S
C615 H629 0.961 . S
C615 H630 0.961 . S
C615 H631 0.961 . S
C616 C617 1.370 . S
C616 C618 1.363 . S
C616 H632 0.931 . S
C617 C616 1.370 . S
C617 C621 1.408 . S
C618 C616 1.363 . S
C618 C619 1.370 . S
C618 C622 1.524 . S
C619 C611 1.503 . S
C619 C618 1.370 . S
C619 C620 1.403 . S
C620 C619 1.403 . S
C620 C621 1.404 . S
C620 C623 1.539 . S
C621 C617 1.408 . S
C621 C620 1.404 . S
C621 H633 0.930 . S
C622 C618 1.524 . S
C622 H634 0.956 . S
C622 H635 0.961 . S
C622 H636 0.961 . S
C623 C620 1.539 . S
C623 H637 0.958 . S
C623 H638 0.961 . S
C623 H639 0.960 . S
H624 C608 0.931 . S
H625 C613 0.929 . S
H626 C614 0.960 . S
H627 C614 0.962 . S
H628 C614 0.960 . S
H629 C615 0.961 . S
H630 C615 0.961 . S
H631 C615 0.961 . S
H632 C616 0.931 . S
H633 C621 0.930 . S
H634 C622 0.956 . S
H635 C622 0.961 . S
H636 C622 0.961 . S
H637 C623 0.958 . S
H638 C623 0.961 . S
H639 C623 0.960 . S
C640 C641 1.391 . S
C640 C642 1.394 . S
C640 H656 0.931 . S
C641 C640 1.391 . S
C641 C645 1.376 . S
C642 C640 1.394 . S
C642 C643 1.369 . S
C642 C646 1.531 . S
C643 C642 1.369 . S
C643 C644 1.410 . S
C643 C651 1.503 . S
C644 C643 1.410 . S
C644 C645 1.392 . S
C644 C647 1.511 . S
C645 C641 1.376 . S
C645 C644 1.392 . S
C645 H657 0.929 . S
C646 C642 1.531 . S
C646 H658 0.960 . S
C646 H659 0.962 . S
C646 H660 0.960 . S
C647 C644 1.511 . S
C647 H661 0.961 . S
C647 H662 0.961 . S
C647 H663 0.961 . S
C648 C649 1.370 . S
C648 C650 1.363 . S
C648 H664 0.931 . S
C649 C648 1.370 . S
C649 C653 1.408 . S
C650 C648 1.363 . S
C650 C651 1.370 . S
C650 C654 1.524 . S
C651 C643 1.503 . S
C651 C650 1.370 . S
C651 C652 1.403 . S
C652 C651 1.403 . S
C652 C653 1.404 . S
C652 C655 1.539 . S
C653 C649 1.408 . S
C653 C652 1.404 . S
C653 H665 0.930 . S
C654 C650 1.524 . S
C654 H666 0.956 . S
C654 H667 0.961 . S
C654 H668 0.961 . S
C655 C652 1.539 . S
C655 H669 0.958 . S
C655 H670 0.961 . S
C655 H671 0.960 . S
H656 C640 0.931 . S
H657 C645 0.929 . S
H658 C646 0.960 . S
H659 C646 0.962 . S
H660 C646 0.960 . S
H661 C647 0.961 . S
H662 C647 0.961 . S
H663 C647 0.961 . S
H664 C648 0.931 . S
H665 C653 0.930 . S
H666 C654 0.956 . S
H667 C654 0.961 . S
H668 C654 0.961 . S
H669 C655 0.958 . S
H670 C655 0.961 . S
H671 C655 0.960 . S
C672 C673 1.391 . S
C672 C674 1.394 . S
C672 H688 0.931 . S
C673 C672 1.391 . S
C673 C677 1.376 . S
C674 C672 1.394 . S
C674 C675 1.369 . S
C674 C678 1.531 . S
C675 C674 1.369 . S
C675 C676 1.410 . S
C675 C683 1.503 . S
C676 C675 1.410 . S
C676 C677 1.392 . S
C676 C679 1.511 . S
C677 C673 1.376 . S
C677 C676 1.392 . S
C677 H689 0.929 . S
C678 C674 1.531 . S
C678 H690 0.960 . S
C678 H691 0.962 . S
C678 H692 0.960 . S
C679 C676 1.511 . S
C679 H693 0.961 . S
C679 H694 0.961 . S
C679 H695 0.961 . S
C680 C681 1.370 . S
C680 C682 1.363 . S
C680 H696 0.931 . S
C681 C680 1.370 . S
C681 C685 1.408 . S
C682 C680 1.363 . S
C682 C683 1.370 . S
C682 C686 1.524 . S
C683 C675 1.503 . S
C683 C682 1.370 . S
C683 C684 1.403 . S
C684 C683 1.403 . S
C684 C685 1.404 . S
C684 C687 1.539 . S
C685 C681 1.408 . S
C685 C684 1.404 . S
C685 H697 0.930 . S
C686 C682 1.524 . S
C686 H698 0.956 . S
C686 H699 0.961 . S
C686 H700 0.961 . S
C687 C684 1.539 . S
C687 H701 0.958 . S
C687 H702 0.961 . S
C687 H703 0.960 . S
H688 C672 0.931 . S
H689 C677 0.929 . S
H690 C678 0.960 . S
H691 C678 0.962 . S
H692 C678 0.960 . S
H693 C679 0.961 . S
H694 C679 0.961 . S
H695 C679 0.961 . S
H696 C680 0.931 . S
H697 C685 0.930 . S
H698 C686 0.956 . S
H699 C686 0.961 . S
H700 C686 0.961 . S
H701 C687 0.958 . S
H702 C687 0.961 . S
H703 C687 0.960 . S
C704 C705 1.391 . S
C704 C706 1.394 . S
C704 H720 0.931 . S
C705 C704 1.391 . S
C705 C709 1.376 . S
C706 C704 1.394 . S
C706 C707 1.369 . S
C706 C710 1.531 . S
C707 C706 1.369 . S
C707 C708 1.410 . S
C707 C715 1.503 . S
C708 C707 1.410 . S
C708 C709 1.392 . S
C708 C711 1.511 . S
C709 C705 1.376 . S
C709 C708 1.392 . S
C709 H721 0.929 . S
C710 C706 1.531 . S
C710 H722 0.960 . S
C710 H723 0.962 . S
C710 H724 0.960 . S
C711 C708 1.511 . S
C711 H725 0.961 . S
C711 H726 0.961 . S
C711 H727 0.961 . S
C712 C713 1.370 . S
C712 C714 1.363 . S
C712 H728 0.931 . S
C713 C712 1.370 . S
C713 C717 1.408 . S
C714 C712 1.363 . S
C714 C715 1.370 . S
C714 C718 1.524 . S
C715 C707 1.503 . S
C715 C714 1.370 . S
C715 C716 1.403 . S
C716 C715 1.403 . S
C716 C717 1.404 . S
C716 C719 1.539 . S
C717 C713 1.408 . S
C717 C716 1.404 . S
C717 H729 0.930 . S
C718 C714 1.524 . S
C718 H730 0.956 . S
C718 H731 0.961 . S
C718 H732 0.961 . S
C719 C716 1.539 . S
C719 H733 0.958 . S
C719 H734 0.961 . S
C719 H735 0.960 . S
H720 C704 0.931 . S
H721 C709 0.929 . S
H722 C710 0.960 . S
H723 C710 0.962 . S
H724 C710 0.960 . S
H725 C711 0.961 . S
H726 C711 0.961 . S
H727 C711 0.961 . S
H728 C712 0.931 . S
H729 C717 0.930 . S
H730 C718 0.956 . S
H731 C718 0.961 . S
H732 C718 0.961 . S
H733 C719 0.958 . S
H734 C719 0.961 . S
H735 C719 0.960 . S
C736 C737 1.391 . S
C736 C738 1.394 . S
C736 H752 0.931 . S
C737 C736 1.391 . S
C737 C741 1.376 . S
C738 C736 1.394 . S
C738 C739 1.369 . S
C738 C742 1.531 . S
C739 C738 1.369 . S
C739 C740 1.410 . S
C739 C747 1.503 . S
C740 C739 1.410 . S
C740 C741 1.392 . S
C740 C743 1.511 . S
C741 C737 1.376 . S
C741 C740 1.392 . S
C741 H753 0.929 . S
C742 C738 1.531 . S
C742 H754 0.960 . S
C742 H755 0.962 . S
C742 H756 0.960 . S
C743 C740 1.511 . S
C743 H757 0.961 . S
C743 H758 0.961 . S
C743 H759 0.961 . S
C744 C745 1.370 . S
C744 C746 1.363 . S
C744 H760 0.931 . S
C745 C744 1.370 . S
C745 C749 1.408 . S
C746 C744 1.363 . S
C746 C747 1.370 . S
C746 C750 1.524 . S
C747 C739 1.503 . S
C747 C746 1.370 . S
C747 C748 1.403 . S
C748 C747 1.403 . S
C748 C749 1.404 . S
C748 C751 1.539 . S
C749 C745 1.408 . S
C749 C748 1.404 . S
C749 H761 0.930 . S
C750 C746 1.524 . S
C750 H762 0.956 . S
C750 H763 0.961 . S
C750 H764 0.961 . S
C751 C748 1.539 . S
C751 H765 0.958 . S
C751 H766 0.961 . S
C751 H767 0.960 . S
H752 C736 0.931 . S
H753 C741 0.929 . S
H754 C742 0.960 . S
H755 C742 0.962 . S
H756 C742 0.960 . S
H757 C743 0.961 . S
H758 C743 0.961 . S
H759 C743 0.961 . S
H760 C744 0.931 . S
H761 C749 0.930 . S
H762 C750 0.956 . S
H763 C750 0.961 . S
H764 C750 0.961 . S
H765 C751 0.958 . S
H766 C751 0.961 . S
H767 C751 0.960 . S
C768 C769 1.391 . S
C768 C770 1.394 . S
C768 H784 0.931 . S
C769 C768 1.391 . S
C769 C773 1.376 . S
C770 C768 1.394 . S
C770 C771 1.369 . S
C770 C774 1.531 . S
C771 C770 1.369 . S
C771 C772 1.410 . S
C771 C779 1.503 . S
C772 C771 1.410 . S
C772 C773 1.392 . S
C772 C775 1.511 . S
C773 C769 1.376 . S
C773 C772 1.392 . S
C773 H785 0.929 . S
C774 C770 1.531 . S
C774 H786 0.960 . S
C774 H787 0.962 . S
C774 H788 0.960 . S
C775 C772 1.511 . S
C775 H789 0.961 . S
C775 H790 0.961 . S
C775 H791 0.961 . S
C776 C777 1.370 . S
C776 C778 1.363 . S
C776 H792 0.931 . S
C777 C776 1.370 . S
C777 C781 1.408 . S
C778 C776 1.363 . S
C778 C779 1.370 . S
C778 C782 1.524 . S
C779 C771 1.503 . S
C779 C778 1.370 . S
C779 C780 1.403 . S
C780 C779 1.403 . S
C780 C781 1.404 . S
C780 C783 1.539 . S
C781 C777 1.408 . S
C781 C780 1.404 . S
C781 H793 0.930 . S
C782 C778 1.524 . S
C782 H794 0.956 . S
C782 H795 0.961 . S
C782 H796 0.961 . S
C783 C780 1.539 . S
C783 H797 0.958 . S
C783 H798 0.961 . S
C783 H799 0.960 . S
H784 C768 0.931 . S
H785 C773 0.929 . S
H786 C774 0.960 . S
H787 C774 0.962 . S
H788 C774 0.960 . S
H789 C775 0.961 . S
H790 C775 0.961 . S
H791 C775 0.961 . S
H792 C776 0.931 . S
H793 C781 0.930 . S
H794 C782 0.956 . S
H795 C782 0.961 . S
H796 C782 0.961 . S
H797 C783 0.958 . S
H798 C783 0.961 . S
H799 C783 0.960 . S
C800 C801 1.391 . S
C800 C802 1.394 . S
C800 H816 0.931 . S
C801 C800 1.391 . S
C801 C805 1.376 . S
C802 C800 1.394 . S
C802 C803 1.369 . S
C802 C806 1.531 . S
C803 C802 1.369 . S
C803 C804 1.410 . S
C803 C811 1.503 . S
C804 C803 1.410 . S
C804 C805 1.392 . S
C804 C807 1.511 . S
C805 C801 1.376 . S
C805 C804 1.392 . S
C805 H817 0.929 . S
C806 C802 1.531 . S
C806 H818 0.960 . S
C806 H819 0.962 . S
C806 H820 0.960 . S
C807 C804 1.511 . S
C807 H821 0.961 . S
C807 H822 0.961 . S
C807 H823 0.961 . S
C808 C809 1.370 . S
C808 C810 1.363 . S
C808 H824 0.931 . S
C809 C808 1.370 . S
C809 C813 1.408 . S
C810 C808 1.363 . S
C810 C811 1.370 . S
C810 C814 1.524 . S
C811 C803 1.503 . S
C811 C810 1.370 . S
C811 C812 1.403 . S
C812 C811 1.403 . S
C812 C813 1.404 . S
C812 C815 1.539 . S
C813 C809 1.408 . S
C813 C812 1.404 . S
C813 H825 0.930 . S
C814 C810 1.524 . S
C814 H826 0.956 . S
C814 H827 0.961 . S
C814 H828 0.961 . S
C815 C812 1.539 . S
C815 H829 0.958 . S
C815 H830 0.961 . S
C815 H831 0.960 . S
H816 C800 0.931 . S
H817 C805 0.929 . S
H818 C806 0.960 . S
H819 C806 0.962 . S
H820 C806 0.960 . S
H821 C807 0.961 . S
H822 C807 0.961 . S
H823 C807 0.961 . S
H824 C808 0.931 . S
H825 C813 0.930 . S
H826 C814 0.956 . S
H827 C814 0.961 . S
H828 C814 0.961 . S
H829 C815 0.958 . S
H830 C815 0.961 . S
H831 C815 0.960 . S
C832 C833 1.391 . S
C832 C834 1.394 . S
C832 H848 0.931 . S
C833 C832 1.391 . S
C833 C837 1.376 . S
C834 C832 1.394 . S
C834 C835 1.369 . S
C834 C838 1.531 . S
C835 C834 1.369 . S
C835 C836 1.410 . S
C835 C843 1.503 . S
C836 C835 1.410 . S
C836 C837 1.392 . S
C836 C839 1.511 . S
C837 C833 1.376 . S
C837 C836 1.392 . S
C837 H849 0.929 . S
C838 C834 1.531 . S
C838 H850 0.960 . S
C838 H851 0.962 . S
C838 H852 0.960 . S
C839 C836 1.511 . S
C839 H853 0.961 . S
C839 H854 0.961 . S
C839 H855 0.961 . S
C840 C841 1.370 . S
C840 C842 1.363 . S
C840 H856 0.931 . S
C841 C840 1.370 . S
C841 C845 1.408 . S
C842 C840 1.363 . S
C842 C843 1.370 . S
C842 C846 1.524 . S
C843 C835 1.503 . S
C843 C842 1.370 . S
C843 C844 1.403 . S
C844 C843 1.403 . S
C844 C845 1.404 . S
C844 C847 1.539 . S
C845 C841 1.408 . S
C845 C844 1.404 . S
C845 H857 0.930 . S
C846 C842 1.524 . S
C846 H858 0.956 . S
C846 H859 0.961 . S
C846 H860 0.961 . S
C847 C844 1.539 . S
C847 H861 0.958 . S
C847 H862 0.961 . S
C847 H863 0.960 . S
H848 C832 0.931 . S
H849 C837 0.929 . S
H850 C838 0.960 . S
H851 C838 0.962 . S
H852 C838 0.960 . S
H853 C839 0.961 . S
H854 C839 0.961 . S
H855 C839 0.961 . S
H856 C840 0.931 . S
H857 C845 0.930 . S
H858 C846 0.956 . S
H859 C846 0.961 . S
H860 C846 0.961 . S
H861 C847 0.958 . S
H862 C847 0.961 . S
H863 C847 0.960 . S
C864 C865 1.391 . S
C864 C866 1.394 . S
C864 H880 0.931 . S
C865 C864 1.391 . S
C865 C869 1.376 . S
C866 C864 1.394 . S
C866 C867 1.369 . S
C866 C870 1.531 . S
C867 C866 1.369 . S
C867 C868 1.410 . S
C867 C875 1.503 . S
C868 C867 1.410 . S
C868 C869 1.392 . S
C868 C871 1.511 . S
C869 C865 1.376 . S
C869 C868 1.392 . S
C869 H881 0.929 . S
C870 C866 1.531 . S
C870 H882 0.960 . S
C870 H883 0.962 . S
C870 H884 0.960 . S
C871 C868 1.511 . S
C871 H885 0.961 . S
C871 H886 0.961 . S
C871 H887 0.961 . S
C872 C873 1.370 . S
C872 C874 1.363 . S
C872 H888 0.931 . S
C873 C872 1.370 . S
C873 C877 1.408 . S
C874 C872 1.363 . S
C874 C875 1.370 . S
C874 C878 1.524 . S
C875 C867 1.503 . S
C875 C874 1.370 . S
C875 C876 1.403 . S
C876 C875 1.403 . S
C876 C877 1.404 . S
C876 C879 1.539 . S
C877 C873 1.408 . S
C877 C876 1.404 . S
C877 H889 0.930 . S
C878 C874 1.524 . S
C878 H890 0.956 . S
C878 H891 0.961 . S
C878 H892 0.961 . S
C879 C876 1.539 . S
C879 H893 0.958 . S
C879 H894 0.961 . S
C879 H895 0.960 . S
H880 C864 0.931 . S
H881 C869 0.929 . S
H882 C870 0.960 . S
H883 C870 0.962 . S
H884 C870 0.960 . S
H885 C871 0.961 . S
H886 C871 0.961 . S
H887 C871 0.961 . S
H888 C872 0.931 . S
H889 C877 0.930 . S
H890 C878 0.956 . S
H891 C878 0.961 . S
H892 C878 0.961 . S
H893 C879 0.958 . S
H894 C879 0.961 . S
H895 C879 0.960 . S
C896 C897 1.391 . S
C896 C898 1.394 . S
C896 H912 0.931 . S
C897 C896 1.391 . S
C897 C901 1.376 . S
C898 C896 1.394 . S
C898 C899 1.369 . S
C898 C902 1.531 . S
C899 C898 1.369 . S
C899 C900 1.410 . S
C899 C907 1.503 . S
C900 C899 1.410 . S
C900 C901 1.392 . S
C900 C903 1.511 . S
C901 C897 1.376 . S
C901 C900 1.392 . S
C901 H913 0.929 . S
C902 C898 1.531 . S
C902 H914 0.960 . S
C902 H915 0.962 . S
C902 H916 0.960 . S
C903 C900 1.511 . S
C903 H917 0.961 . S
C903 H918 0.961 . S
C903 H919 0.961 . S
C904 C905 1.370 . S
C904 C906 1.363 . S
C904 H920 0.931 . S
C905 C904 1.370 . S
C905 C909 1.408 . S
C906 C904 1.363 . S
C906 C907 1.370 . S
C906 C910 1.524 . S
C907 C899 1.503 . S
C907 C906 1.370 . S
C907 C908 1.403 . S
C908 C907 1.403 . S
C908 C909 1.404 . S
C908 C911 1.539 . S
C909 C905 1.408 . S
C909 C908 1.404 . S
C909 H921 0.930 . S
C910 C906 1.524 . S
C910 H922 0.956 . S
C910 H923 0.961 . S
C910 H924 0.961 . S
C911 C908 1.539 . S
C911 H925 0.958 . S
C911 H926 0.961 . S
C911 H927 0.960 . S
H912 C896 0.931 . S
H913 C901 0.929 . S
H914 C902 0.960 . S
H915 C902 0.962 . S
H916 C902 0.960 . S
H917 C903 0.961 . S
H918 C903 0.961 . S
H919 C903 0.961 . S
H920 C904 0.931 . S
H921 C909 0.930 . S
H922 C910 0.956 . S
H923 C910 0.961 . S
H924 C910 0.961 . S
H925 C911 0.958 . S
H926 C911 0.961 . S
H927 C911 0.960 . S
C928 C929 1.391 . S
C928 C930 1.394 . S
C928 H944 0.931 . S
C929 C928 1.391 . S
C929 C933 1.376 . S
C930 C928 1.394 . S
C930 C931 1.369 . S
C930 C934 1.531 . S
C931 C930 1.369 . S
C931 C932 1.410 . S
C931 C939 1.503 . S
C932 C931 1.410 . S
C932 C933 1.392 . S
C932 C935 1.511 . S
C933 C929 1.376 . S
C933 C932 1.392 . S
C933 H945 0.929 . S
C934 C930 1.531 . S
C934 H946 0.960 . S
C934 H947 0.962 . S
C934 H948 0.960 . S
C935 C932 1.511 . S
C935 H949 0.961 . S
C935 H950 0.961 . S
C935 H951 0.961 . S
C936 C937 1.370 . S
C936 C938 1.363 . S
C936 H952 0.931 . S
C937 C936 1.370 . S
C937 C941 1.408 . S
C938 C936 1.363 . S
C938 C939 1.370 . S
C938 C942 1.524 . S
C939 C931 1.503 . S
C939 C938 1.370 . S
C939 C940 1.403 . S
C940 C939 1.403 . S
C940 C941 1.404 . S
C940 C943 1.539 . S
C941 C937 1.408 . S
C941 C940 1.404 . S
C941 H953 0.930 . S
C942 C938 1.524 . S
C942 H954 0.956 . S
C942 H955 0.961 . S
C942 H956 0.961 . S
C943 C940 1.539 . S
C943 H957 0.958 . S
C943 H958 0.961 . S
C943 H959 0.960 . S
H944 C928 0.931 . S
H945 C933 0.929 . S
H946 C934 0.960 . S
H947 C934 0.962 . S
H948 C934 0.960 . S
H949 C935 0.961 . S
H950 C935 0.961 . S
H951 C935 0.961 . S
H952 C936 0.931 . S
H953 C941 0.930 . S
H954 C942 0.956 . S
H955 C942 0.961 . S
H956 C942 0.961 . S
H957 C943 0.958 . S
H958 C943 0.961 . S
H959 C943 0.960 . S
C960 C961 1.391 . S
C960 C962 1.394 . S
C960 H976 0.931 . S
C961 C960 1.391 . S
C961 C965 1.376 . S
C962 C960 1.394 . S
C962 C963 1.369 . S
C962 C966 1.531 . S
C963 C962 1.369 . S
C963 C964 1.410 . S
C963 C971 1.503 . S
C964 C963 1.410 . S
C964 C965 1.392 . S
C964 C967 1.511 . S
C965 C961 1.376 . S
C965 C964 1.392 . S
C965 H977 0.929 . S
C966 C962 1.531 . S
C966 H978 0.960 . S
C966 H979 0.962 . S
C966 H980 0.960 . S
C967 C964 1.511 . S
C967 H981 0.961 . S
C967 H982 0.961 . S
C967 H983 0.961 . S
C968 C969 1.370 . S
C968 C970 1.363 . S
C968 H984 0.931 . S
C969 C968 1.370 . S
C969 C973 1.408 . S
C970 C968 1.363 . S
C970 C971 1.370 . S
C970 C974 1.524 . S
C971 C963 1.503 . S
C971 C970 1.370 . S
C971 C972 1.403 . S
C972 C971 1.403 . S
C972 C973 1.404 . S
C972 C975 1.539 . S
C973 C969 1.408 . S
C973 C972 1.404 . S
C973 H985 0.930 . S
C974 C970 1.524 . S
C974 H986 0.956 . S
C974 H987 0.961 . S
C974 H988 0.961 . S
C975 C972 1.539 . S
C975 H989 0.958 . S
C975 H990 0.961 . S
C975 H991 0.960 . S
H976 C960 0.931 . S
H977 C965 0.929 . S
H978 C966 0.960 . S
H979 C966 0.962 . S
H980 C966 0.960 . S
H981 C967 0.961 . S
H982 C967 0.961 . S
H983 C967 0.961 . S
H984 C968 0.931 . S
H985 C973 0.930 . S
H986 C974 0.956 . S
H987 C974 0.961 . S
H988 C974 0.961 . S
H989 C975 0.958 . S
H990 C975 0.961 . S
H991 C975 0.960 . S
C992 C993 1.391 . S
C992 C994 1.394 . S
C992 H1008 0.931 . S
C993 C992 1.391 . S
C993 C997 1.376 . S
C994 C992 1.394 . S
C994 C995 1.369 . S
C994 C998 1.531 . S
C995 C994 1.369 . S
C995 C996 1.410 . S
C995 C1003 1.503 . S
C996 C995 1.410 . S
C996 C997 1.392 . S
C996 C999 1.511 . S
C997 C993 1.376 . S
C997 C996 1.392 . S
C997 H1009 0.929 . S
C998 C994 1.531 . S
C998 H1010 0.960 . S
C998 H1011 0.962 . S
C998 H1012 0.960 . S
C999 C996 1.511 . S
C999 H1013 0.961 . S
C999 H1014 0.961 . S
C999 H1015 0.961 . S
C1000 C1001 1.370 . S
C1000 C1002 1.363 . S
C1000 H1016 0.931 . S
C1001 C1000 1.370 . S
C1001 C1005 1.408 . S
C1002 C1000 1.363 . S
C1002 C1003 1.370 . S
C1002 C1006 1.524 . S
C1003 C995 1.503 . S
C1003 C1002 1.370 . S
C1003 C1004 1.403 . S
C1004 C1003 1.403 . S
C1004 C1005 1.404 . S
C1004 C1007 1.539 . S
C1005 C1001 1.408 . S
C1005 C1004 1.404 . S
C1005 H1017 0.930 . S
C1006 C1002 1.524 . S
C1006 H1018 0.956 . S
C1006 H1019 0.961 . S
C1006 H1020 0.961 . S
C1007 C1004 1.539 . S
C1007 H1021 0.958 . S
C1007 H1022 0.961 . S
C1007 H1023 0.960 . S
H1008 C992 0.931 . S
H1009 C997 0.929 . S
H1010 C998 0.960 . S
H1011 C998 0.962 . S
H1012 C998 0.960 . S
H1013 C999 0.961 . S
H1014 C999 0.961 . S
H1015 C999 0.961 . S
H1016 C1000 0.931 . S
H1017 C1005 0.930 . S
H1018 C1006 0.956 . S
H1019 C1006 0.961 . S
H1020 C1006 0.961 . S
H1021 C1007 0.958 . S
H1022 C1007 0.961 . S
H1023 C1007 0.960 . S
C1024 C1025 1.391 . S
C1024 C1026 1.394 . S
C1024 H1040 0.931 . S
C1025 C1024 1.391 . S
C1025 C1029 1.376 . S
C1026 C1024 1.394 . S
C1026 C1027 1.369 . S
C1026 C1030 1.531 . S
C1027 C1026 1.369 . S
C1027 C1028 1.410 . S
C1027 C1035 1.503 . S
C1028 C1027 1.410 . S
C1028 C1029 1.392 . S
C1028 C1031 1.511 . S
C1029 C1025 1.376 . S
C1029 C1028 1.392 . S
C1029 H1041 0.929 . S
C1030 C1026 1.531 . S
C1030 H1042 0.960 . S
C1030 H1043 0.962 . S
C1030 H1044 0.960 . S
C1031 C1028 1.511 . S
C1031 H1045 0.961 . S
C1031 H1046 0.961 . S
C1031 H1047 0.961 . S
C1032 C1033 1.370 . S
C1032 C1034 1.363 . S
C1032 H1048 0.931 . S
C1033 C1032 1.370 . S
C1033 C1037 1.408 . S
C1034 C1032 1.363 . S
C1034 C1035 1.370 . S
C1034 C1038 1.524 . S
C1035 C1027 1.503 . S
C1035 C1034 1.370 . S
C1035 C1036 1.403 . S
C1036 C1035 1.403 . S
C1036 C1037 1.404 . S
C1036 C1039 1.539 . S
C1037 C1033 1.408 . S
C1037 C1036 1.404 . S
C1037 H1049 0.930 . S
C1038 C1034 1.524 . S
C1038 H1050 0.956 . S
C1038 H1051 0.961 . S
C1038 H1052 0.961 . S
C1039 C1036 1.539 . S
C1039 H1053 0.958 . S
C1039 H1054 0.961 . S
C1039 H1055 0.960 . S
H1040 C1024 0.931 . S
H1041 C1029 0.929 . S
H1042 C1030 0.960 . S
H1043 C1030 0.962 . S
H1044 C1030 0.960 . S
H1045 C1031 0.961 . S
H1046 C1031 0.961 . S
H1047 C1031 0.961 . S
H1048 C1032 0.931 . S
H1049 C1037 0.930 . S
H1050 C1038 0.956 . S
H1051 C1038 0.961 . S
H1052 C1038 0.961 . S
H1053 C1039 0.958 . S
H1054 C1039 0.961 . S
H1055 C1039 0.960 . S
C1056 C1057 1.391 . S
C1056 C1058 1.394 . S
C1056 H1072 0.931 . S
C1057 C1056 1.391 . S
C1057 C1061 1.376 . S
C1058 C1056 1.394 . S
C1058 C1059 1.369 . S
C1058 C1062 1.531 . S
C1059 C1058 1.369 . S
C1059 C1060 1.410 . S
C1059 C1067 1.503 . S
C1060 C1059 1.410 . S
C1060 C1061 1.392 . S
C1060 C1063 1.511 . S
C1061 C1057 1.376 . S
C1061 C1060 1.392 . S
C1061 H1073 0.929 . S
C1062 C1058 1.531 . S
C1062 H1074 0.960 . S
C1062 H1075 0.962 . S
C1062 H1076 0.960 . S
C1063 C1060 1.511 . S
C1063 H1077 0.961 . S
C1063 H1078 0.961 . S
C1063 H1079 0.961 . S
C1064 C1065 1.370 . S
C1064 C1066 1.363 . S
C1064 H1080 0.931 . S
C1065 C1064 1.370 . S
C1065 C1069 1.408 . S
C1066 C1064 1.363 . S
C1066 C1067 1.370 . S
C1066 C1070 1.524 . S
C1067 C1059 1.503 . S
C1067 C1066 1.370 . S
C1067 C1068 1.403 . S
C1068 C1067 1.403 . S
C1068 C1069 1.404 . S
C1068 C1071 1.539 . S
C1069 C1065 1.408 . S
C1069 C1068 1.404 . S
C1069 H1081 0.930 . S
C1070 C1066 1.524 . S
C1070 H1082 0.956 . S
C1070 H1083 0.961 . S
C1070 H1084 0.961 . S
C1071 C1068 1.539 . S
C1071 H1085 0.958 . S
C1071 H1086 0.961 . S
C1071 H1087 0.960 . S
H1072 C1056 0.931 . S
H1073 C1061 0.929 . S
H1074 C1062 0.960 . S
H1075 C1062 0.962 . S
H1076 C1062 0.960 . S
H1077 C1063 0.961 . S
H1078 C1063 0.961 . S
H1079 C1063 0.961 . S
H1080 C1064 0.931 . S
H1081 C1069 0.930 . S
H1082 C1070 0.956 . S
H1083 C1070 0.961 . S
H1084 C1070 0.961 . S
H1085 C1071 0.958 . S
H1086 C1071 0.961 . S
H1087 C1071 0.960 . S
C1088 C1089 1.391 . S
C1088 C1090 1.394 . S
C1088 H1104 0.931 . S
C1089 C1088 1.391 . S
C1089 C1093 1.376 . S
C1090 C1088 1.394 . S
C1090 C1091 1.369 . S
C1090 C1094 1.531 . S
C1091 C1090 1.369 . S
C1091 C1092 1.410 . S
C1091 C1099 1.503 . S
C1092 C1091 1.410 . S
C1092 C1093 1.392 . S
C1092 C1095 1.511 . S
C1093 C1089 1.376 . S
C1093 C1092 1.392 . S
C1093 H1105 0.929 . S
C1094 C1090 1.531 . S
C1094 H1106 0.960 . S
C1094 H1107 0.962 . S
C1094 H1108 0.960 . S
C1095 C1092 1.511 . S
C1095 H1109 0.961 . S
C1095 H1110 0.961 . S
C1095 H1111 0.961 . S
C1096 C1097 1.370 . S
C1096 C1098 1.363 . S
C1096 H1112 0.931 . S
C1097 C1096 1.370 . S
C1097 C1101 1.408 . S
C1098 C1096 1.363 . S
C1098 C1099 1.370 . S
C1098 C1102 1.524 . S
C1099 C1091 1.503 . S
C1099 C1098 1.370 . S
C1099 C1100 1.403 . S
C1100 C1099 1.403 . S
C1100 C1101 1.404 . S
C1100 C1103 1.539 . S
C1101 C1097 1.408 . S
C1101 C1100 1.404 . S
C1101 H1113 0.930 . S
C1102 C1098 1.524 . S
C1102 H1114 0.956 . S
C1102 H1115 0.961 . S
C1102 H1116 0.961 . S
C1103 C1100 1.539 . S
C1103 H1117 0.958 . S
C1103 H1118 0.961 . S
C1103 H1119 0.960 . S
H1104 C1088 0.931 . S
H1105 C1093 0.929 . S
H1106 C1094 0.960 . S
H1107 C1094 0.962 . S
H1108 C1094 0.960 . S
H1109 C1095 0.961 . S
H1110 C1095 0.961 . S
H1111 C1095 0.961 . S
H1112 C1096 0.931 . S
H1113 C1101 0.930 . S
H1114 C1102 0.956 . S
H1115 C1102 0.961 . S
H1116 C1102 0.961 . S
H1117 C1103 0.958 . S
H1118 C1103 0.961 . S
H1119 C1103 0.960 . S
C1120 C1121 1.391 . S
C1120 C1122 1.394 . S
C1120 H1136 0.931 . S
C1121 C1120 1.391 . S
C1121 C1125 1.376 . S
C1122 C1120 1.394 . S
C1122 C1123 1.369 . S
C1122 C1126 1.531 . S
C1123 C1122 1.369 . S
C1123 C1124 1.410 . S
C1123 C1131 1.503 . S
C1124 C1123 1.410 . S
C1124 C1125 1.392 . S
C1124 C1127 1.511 . S
C1125 C1121 1.376 . S
C1125 C1124 1.392 . S
C1125 H1137 0.929 . S
C1126 C1122 1.531 . S
C1126 H1138 0.960 . S
C1126 H1139 0.962 . S
C1126 H1140 0.960 . S
C1127 C1124 1.511 . S
C1127 H1141 0.961 . S
C1127 H1142 0.961 . S
C1127 H1143 0.961 . S
C1128 C1129 1.370 . S
C1128 C1130 1.363 . S
C1128 H1144 0.931 . S
C1129 C1128 1.370 . S
C1129 C1133 1.408 . S
C1130 C1128 1.363 . S
C1130 C1131 1.370 . S
C1130 C1134 1.524 . S
C1131 C1123 1.503 . S
C1131 C1130 1.370 . S
C1131 C1132 1.403 . S
C1132 C1131 1.403 . S
C1132 C1133 1.404 . S
C1132 C1135 1.539 . S
C1133 C1129 1.408 . S
C1133 C1132 1.404 . S
C1133 H1145 0.930 . S
C1134 C1130 1.524 . S
C1134 H1146 0.956 . S
C1134 H1147 0.961 . S
C1134 H1148 0.961 . S
C1135 C1132 1.539 . S
C1135 H1149 0.958 . S
C1135 H1150 0.961 . S
C1135 H1151 0.960 . S
H1136 C1120 0.931 . S
H1137 C1125 0.929 . S
H1138 C1126 0.960 . S
H1139 C1126 0.962 . S
H1140 C1126 0.960 . S
H1141 C1127 0.961 . S
H1142 C1127 0.961 . S
H1143 C1127 0.961 . S
H1144 C1128 0.931 . S
H1145 C1133 0.930 . S
H1146 C1134 0.956 . S
H1147 C1134 0.961 . S
H1148 C1134 0.961 . S
H1149 C1135 0.958 . S
H1150 C1135 0.961 . S
H1151 C1135 0.960 . S
C1152 C1153 1.391 . S
C1152 C1154 1.394 . S
C1152 H1168 0.931 . S
C1153 C1152 1.391 . S
C1153 C1157 1.376 . S
C1154 C1152 1.394 . S
C1154 C1155 1.369 . S
C1154 C1158 1.531 . S
C1155 C1154 1.369 . S
C1155 C1156 1.410 . S
C1155 C1163 1.503 . S
C1156 C1155 1.410 . S
C1156 C1157 1.392 . S
C1156 C1159 1.511 . S
C1157 C1153 1.376 . S
C1157 C1156 1.392 . S
C1157 H1169 0.929 . S
C1158 C1154 1.531 . S
C1158 H1170 0.960 . S
C1158 H1171 0.962 . S
C1158 H1172 0.960 . S
C1159 C1156 1.511 . S
C1159 H1173 0.961 . S
C1159 H1174 0.961 . S
C1159 H1175 0.961 . S
C1160 C1161 1.370 . S
C1160 C1162 1.363 . S
C1160 H1176 0.931 . S
C1161 C1160 1.370 . S
C1161 C1165 1.408 . S
C1162 C1160 1.363 . S
C1162 C1163 1.370 . S
C1162 C1166 1.524 . S
C1163 C1155 1.503 . S
C1163 C1162 1.370 . S
C1163 C1164 1.403 . S
C1164 C1163 1.403 . S
C1164 C1165 1.404 . S
C1164 C1167 1.539 . S
C1165 C1161 1.408 . S
C1165 C1164 1.404 . S
C1165 H1177 0.930 . S
C1166 C1162 1.524 . S
C1166 H1178 0.956 . S
C1166 H1179 0.961 . S
C1166 H1180 0.961 . S
C1167 C1164 1.539 . S
C1167 H1181 0.958 . S
C1167 H1182 0.961 . S
C1167 H1183 0.960 . S
H1168 C1152 0.931 . S
H1169 C1157 0.929 . S
H1170 C1158 0.960 . S
H1171 C1158 0.962 . S
H1172 C1158 0.960 . S
H1173 C1159 0.961 . S
H1174 C1159 0.961 . S
H1175 C1159 0.961 . S
H1176 C1160 0.931 . S
H1177 C1165 0.930 . S
H1178 C1166 0.956 . S
H1179 C1166 0.961 . S
H1180 C1166 0.961 . S
H1181 C1167 0.958 . S
H1182 C1167 0.961 . S
H1183 C1167 0.960 . S
C1184 C1185 1.391 . S
C1184 C1186 1.394 . S
C1184 H1200 0.931 . S
C1185 C1184 1.391 . S
C1185 C1189 1.376 . S
C1186 C1184 1.394 . S
C1186 C1187 1.369 . S
C1186 C1190 1.531 . S
C1187 C1186 1.369 . S
C1187 C1188 1.410 . S
C1187 C1195 1.503 . S
C1188 C1187 1.410 . S
C1188 C1189 1.392 . S
C1188 C1191 1.511 . S
C1189 C1185 1.376 . S
C1189 C1188 1.392 . S
C1189 H1201 0.929 . S
C1190 C1186 1.531 . S
C1190 H1202 0.960 . S
C1190 H1203 0.962 . S
C1190 H1204 0.960 . S
C1191 C1188 1.511 . S
C1191 H1205 0.961 . S
C1191 H1206 0.961 . S
C1191 H1207 0.961 . S
C1192 C1193 1.370 . S
C1192 C1194 1.363 . S
C1192 H1208 0.931 . S
C1193 C1192 1.370 . S
C1193 C1197 1.408 . S
C1194 C1192 1.363 . S
C1194 C1195 1.370 . S
C1194 C1198 1.524 . S
C1195 C1187 1.503 . S
C1195 C1194 1.370 . S
C1195 C1196 1.403 . S
C1196 C1195 1.403 . S
C1196 C1197 1.404 . S
C1196 C1199 1.539 . S
C1197 C1193 1.408 . S
C1197 C1196 1.404 . S
C1197 H1209 0.930 . S
C1198 C1194 1.524 . S
C1198 H1210 0.956 . S
C1198 H1211 0.961 . S
C1198 H1212 0.961 . S
C1199 C1196 1.539 . S
C1199 H1213 0.958 . S
C1199 H1214 0.961 . S
C1199 H1215 0.960 . S
H1200 C1184 0.931 . S
H1201 C1189 0.929 . S
H1202 C1190 0.960 . S
H1203 C1190 0.962 . S
H1204 C1190 0.960 . S
H1205 C1191 0.961 . S
H1206 C1191 0.961 . S
H1207 C1191 0.961 . S
H1208 C1192 0.931 . S
H1209 C1197 0.930 . S
H1210 C1198 0.956 . S
H1211 C1198 0.961 . S
H1212 C1198 0.961 . S
H1213 C1199 0.958 . S
H1214 C1199 0.961 . S
H1215 C1199 0.960 . S
C1216 C1217 1.391 . S
C1216 C1218 1.394 . S
C1216 H1232 0.931 . S
C1217 C1216 1.391 . S
C1217 C1221 1.376 . S
C1218 C1216 1.394 . S
C1218 C1219 1.369 . S
C1218 C1222 1.531 . S
C1219 C1218 1.369 . S
C1219 C1220 1.410 . S
C1219 C1227 1.503 . S
C1220 C1219 1.410 . S
C1220 C1221 1.392 . S
C1220 C1223 1.511 . S
C1221 C1217 1.376 . S
C1221 C1220 1.392 . S
C1221 H1233 0.929 . S
C1222 C1218 1.531 . S
C1222 H1234 0.960 . S
C1222 H1235 0.962 . S
C1222 H1236 0.960 . S
C1223 C1220 1.511 . S
C1223 H1237 0.961 . S
C1223 H1238 0.961 . S
C1223 H1239 0.961 . S
C1224 C1225 1.370 . S
C1224 C1226 1.363 . S
C1224 H1240 0.931 . S
C1225 C1224 1.370 . S
C1225 C1229 1.408 . S
C1226 C1224 1.363 . S
C1226 C1227 1.370 . S
C1226 C1230 1.524 . S
C1227 C1219 1.503 . S
C1227 C1226 1.370 . S
C1227 C1228 1.403 . S
C1228 C1227 1.403 . S
C1228 C1229 1.404 . S
C1228 C1231 1.539 . S
C1229 C1225 1.408 . S
C1229 C1228 1.404 . S
C1229 H1241 0.930 . S
C1230 C1226 1.524 . S
C1230 H1242 0.956 . S
C1230 H1243 0.961 . S
C1230 H1244 0.961 . S
C1231 C1228 1.539 . S
C1231 H1245 0.958 . S
C1231 H1246 0.961 . S
C1231 H1247 0.960 . S
H1232 C1216 0.931 . S
H1233 C1221 0.929 . S
H1234 C1222 0.960 . S
H1235 C1222 0.962 . S
H1236 C1222 0.960 . S
H1237 C1223 0.961 . S
H1238 C1223 0.961 . S
H1239 C1223 0.961 . S
H1240 C1224 0.931 . S
H1241 C1229 0.930 . S
H1242 C1230 0.956 . S
H1243 C1230 0.961 . S
H1244 C1230 0.961 . S
H1245 C1231 0.958 . S
H1246 C1231 0.961 . S
H1247 C1231 0.960 . S
C1248 C1249 1.391 . S
C1248 C1250 1.394 . S
C1248 H1264 0.931 . S
C1249 C1248 1.391 . S
C1249 C1253 1.376 . S
C1250 C1248 1.394 . S
C1250 C1251 1.369 . S
C1250 C1254 1.531 . S
C1251 C1250 1.369 . S
C1251 C1252 1.410 . S
C1251 C1259 1.503 . S
C1252 C1251 1.410 . S
C1252 C1253 1.392 . S
C1252 C1255 1.511 . S
C1253 C1249 1.376 . S
C1253 C1252 1.392 . S
C1253 H1265 0.929 . S
C1254 C1250 1.531 . S
C1254 H1266 0.960 . S
C1254 H1267 0.962 . S
C1254 H1268 0.960 . S
C1255 C1252 1.511 . S
C1255 H1269 0.961 . S
C1255 H1270 0.961 . S
C1255 H1271 0.961 . S
C1256 C1257 1.370 . S
C1256 C1258 1.363 . S
C1256 H1272 0.931 . S
C1257 C1256 1.370 . S
C1257 C1261 1.408 . S
C1258 C1256 1.363 . S
C1258 C1259 1.370 . S
C1258 C1262 1.524 . S
C1259 C1251 1.503 . S
C1259 C1258 1.370 . S
C1259 C1260 1.403 . S
C1260 C1259 1.403 . S
C1260 C1261 1.404 . S
C1260 C1263 1.539 . S
C1261 C1257 1.408 . S
C1261 C1260 1.404 . S
C1261 H1273 0.930 . S
C1262 C1258 1.524 . S
C1262 H1274 0.956 . S
C1262 H1275 0.961 . S
C1262 H1276 0.961 . S
C1263 C1260 1.539 . S
C1263 H1277 0.958 . S
C1263 H1278 0.961 . S
C1263 H1279 0.960 . S
H1264 C1248 0.931 . S
H1265 C1253 0.929 . S
H1266 C1254 0.960 . S
H1267 C1254 0.962 . S
H1268 C1254 0.960 . S
H1269 C1255 0.961 . S
H1270 C1255 0.961 . S
H1271 C1255 0.961 . S
H1272 C1256 0.931 . S
H1273 C1261 0.930 . S
H1274 C1262 0.956 . S
H1275 C1262 0.961 . S
H1276 C1262 0.961 . S
H1277 C1263 0.958 . S
H1278 C1263 0.961 . S
H1279 C1263 0.960 . S
C1280 C1281 1.391 . S
C1280 C1282 1.394 . S
C1280 H1296 0.931 . S
C1281 C1280 1.391 . S
C1281 C1285 1.376 . S
C1282 C1280 1.394 . S
C1282 C1283 1.369 . S
C1282 C1286 1.531 . S
C1283 C1282 1.369 . S
C1283 C1284 1.410 . S
C1283 C1291 1.503 . S
C1284 C1283 1.410 . S
C1284 C1285 1.392 . S
C1284 C1287 1.511 . S
C1285 C1281 1.376 . S
C1285 C1284 1.392 . S
C1285 H1297 0.929 . S
C1286 C1282 1.531 . S
C1286 H1298 0.960 . S
C1286 H1299 0.962 . S
C1286 H1300 0.960 . S
C1287 C1284 1.511 . S
C1287 H1301 0.961 . S
C1287 H1302 0.961 . S
C1287 H1303 0.961 . S
C1288 C1289 1.370 . S
C1288 C1290 1.363 . S
C1288 H1304 0.931 . S
C1289 C1288 1.370 . S
C1289 C1293 1.408 . S
C1290 C1288 1.363 . S
C1290 C1291 1.370 . S
C1290 C1294 1.524 . S
C1291 C1283 1.503 . S
C1291 C1290 1.370 . S
C1291 C1292 1.403 . S
C1292 C1291 1.403 . S
C1292 C1293 1.404 . S
C1292 C1295 1.539 . S
C1293 C1289 1.408 . S
C1293 C1292 1.404 . S
C1293 H1305 0.930 . S
C1294 C1290 1.524 . S
C1294 H1306 0.956 . S
C1294 H1307 0.961 . S
C1294 H1308 0.961 . S
C1295 C1292 1.539 . S
C1295 H1309 0.958 . S
C1295 H1310 0.961 . S
C1295 H1311 0.960 . S
H1296 C1280 0.931 . S
H1297 C1285 0.929 . S
H1298 C1286 0.960 . S
H1299 C1286 0.962 . S
H1300 C1286 0.960 . S
H1301 C1287 0.961 . S
H1302 C1287 0.961 . S
H1303 C1287 0.961 . S
H1304 C1288 0.931 . S
H1305 C1293 0.930 . S
H1306 C1294 0.956 . S
H1307 C1294 0.961 . S
H1308 C1294 0.961 . S
H1309 C1295 0.958 . S
H1310 C1295 0.961 . S
H1311 C1295 0.960 . S
C1312 C1313 1.391 . S
C1312 C1314 1.394 . S
C1312 H1328 0.931 . S
C1313 C1312 1.391 . S
C1313 C1317 1.376 . S
C1314 C1312 1.394 . S
C1314 C1315 1.369 . S
C1314 C1318 1.531 . S
C1315 C1314 1.369 . S
C1315 C1316 1.410 . S
C1315 C1323 1.503 . S
C1316 C1315 1.410 . S
C1316 C1317 1.392 . S
C1316 C1319 1.511 . S
C1317 C1313 1.376 . S
C1317 C1316 1.392 . S
C1317 H1329 0.929 . S
C1318 C1314 1.531 . S
C1318 H1330 0.960 . S
C1318 H1331 0.962 . S
C1318 H1332 0.960 . S
C1319 C1316 1.511 . S
C1319 H1333 0.961 . S
C1319 H1334 0.961 . S
C1319 H1335 0.961 . S
C1320 C1321 1.370 . S
C1320 C1322 1.363 . S
C1320 H1336 0.931 . S
C1321 C1320 1.370 . S
C1321 C1325 1.408 . S
C1322 C1320 1.363 . S
C1322 C1323 1.370 . S
C1322 C1326 1.524 . S
C1323 C1315 1.503 . S
C1323 C1322 1.370 . S
C1323 C1324 1.403 . S
C1324 C1323 1.403 . S
C1324 C1325 1.404 . S
C1324 C1327 1.539 . S
C1325 C1321 1.408 . S
C1325 C1324 1.404 . S
C1325 H1337 0.930 . S
C1326 C1322 1.524 . S
C1326 H1338 0.956 . S
C1326 H1339 0.961 . S
C1326 H1340 0.961 . S
C1327 C1324 1.539 . S
C1327 H1341 0.958 . S
C1327 H1342 0.961 . S
C1327 H1343 0.960 . S
H1328 C1312 0.931 . S
H1329 C1317 0.929 . S
H1330 C1318 0.960 . S
H1331 C1318 0.962 . S
H1332 C1318 0.960 . S
H1333 C1319 0.961 . S
H1334 C1319 0.961 . S
H1335 C1319 0.961 . S
H1336 C1320 0.931 . S
H1337 C1325 0.930 . S
H1338 C1326 0.956 . S
H1339 C1326 0.961 . S
H1340 C1326 0.961 . S
H1341 C1327 0.958 . S
H1342 C1327 0.961 . S
H1343 C1327 0.960 . S
C1344 C1345 1.391 . S
C1344 C1346 1.394 . S
C1344 H1360 0.931 . S
C1345 C1344 1.391 . S
C1345 C1349 1.376 . S
C1346 C1344 1.394 . S
C1346 C1347 1.369 . S
C1346 C1350 1.531 . S
C1347 C1346 1.369 . S
C1347 C1348 1.410 . S
C1347 C1355 1.503 . S
C1348 C1347 1.410 . S
C1348 C1349 1.392 . S
C1348 C1351 1.511 . S
C1349 C1345 1.376 . S
C1349 C1348 1.392 . S
C1349 H1361 0.929 . S
C1350 C1346 1.531 . S
C1350 H1362 0.960 . S
C1350 H1363 0.962 . S
C1350 H1364 0.960 . S
C1351 C1348 1.511 . S
C1351 H1365 0.961 . S
C1351 H1366 0.961 . S
C1351 H1367 0.961 . S
C1352 C1353 1.370 . S
C1352 C1354 1.363 . S
C1352 H1368 0.931 . S
C1353 C1352 1.370 . S
C1353 C1357 1.408 . S
C1354 C1352 1.363 . S
C1354 C1355 1.370 . S
C1354 C1358 1.524 . S
C1355 C1347 1.503 . S
C1355 C1354 1.370 . S
C1355 C1356 1.403 . S
C1356 C1355 1.403 . S
C1356 C1357 1.404 . S
C1356 C1359 1.539 . S
C1357 C1353 1.408 . S
C1357 C1356 1.404 . S
C1357 H1369 0.930 . S
C1358 C1354 1.524 . S
C1358 H1370 0.956 . S
C1358 H1371 0.961 . S
C1358 H1372 0.961 . S
C1359 C1356 1.539 . S
C1359 H1373 0.958 . S
C1359 H1374 0.961 . S
C1359 H1375 0.960 . S
H1360 C1344 0.931 . S
H1361 C1349 0.929 . S
H1362 C1350 0.960 . S
H1363 C1350 0.962 . S
H1364 C1350 0.960 . S
H1365 C1351 0.961 . S
H1366 C1351 0.961 . S
H1367 C1351 0.961 . S
H1368 C1352 0.931 . S
H1369 C1357 0.930 . S
H1370 C1358 0.956 . S
H1371 C1358 0.961 . S
H1372 C1358 0.961 . S
H1373 C1359 0.958 . S
H1374 C1359 0.961 . S
H1375 C1359 0.960 . S
C1376 C1377 1.391 . S
C1376 C1378 1.394 . S
C1376 H1392 0.931 . S
C1377 C1376 1.391 . S
C1377 C1381 1.376 . S
C1378 C1376 1.394 . S
C1378 C1379 1.369 . S
C1378 C1382 1.531 . S
C1379 C1378 1.369 . S
C1379 C1380 1.410 . S
C1379 C1387 1.503 . S
C1380 C1379 1.410 . S
C1380 C1381 1.392 . S
C1380 C1383 1.511 . S
C1381 C1377 1.376 . S
C1381 C1380 1.392 . S
C1381 H1393 0.929 . S
C1382 C1378 1.531 . S
C1382 H1394 0.960 . S
C1382 H1395 0.962 . S
C1382 H1396 0.960 . S
C1383 C1380 1.511 . S
C1383 H1397 0.961 . S
C1383 H1398 0.961 . S
C1383 H1399 0.961 . S
C1384 C1385 1.370 . S
C1384 C1386 1.363 . S
C1384 H1400 0.931 . S
C1385 C1384 1.370 . S
C1385 C1389 1.408 . S
C1386 C1384 1.363 . S
C1386 C1387 1.370 . S
C1386 C1390 1.524 . S
C1387 C1379 1.503 . S
C1387 C1386 1.370 . S
C1387 C1388 1.403 . S
C1388 C1387 1.403 . S
C1388 C1389 1.404 . S
C1388 C1391 1.539 . S
C1389 C1385 1.408 . S
C1389 C1388 1.404 . S
C1389 H1401 0.930 . S
C1390 C1386 1.524 . S
C1390 H1402 0.956 . S
C1390 H1403 0.961 . S
C1390 H1404 0.961 . S
C1391 C1388 1.539 . S
C1391 H1405 0.958 . S
C1391 H1406 0.961 . S
C1391 H1407 0.960 . S
H1392 C1376 0.931 . S
H1393 C1381 0.929 . S
H1394 C1382 0.960 . S
H1395 C1382 0.962 . S
H1396 C1382 0.960 . S
H1397 C1383 0.961 . S
H1398 C1383 0.961 . S
H1399 C1383 0.961 . S
H1400 C1384 0.931 . S
H1401 C1389 0.930 . S
H1402 C1390 0.956 . S
H1403 C1390 0.961 . S
H1404 C1390 0.961 . S
H1405 C1391 0.958 . S
H1406 C1391 0.961 . S
H1407 C1391 0.960 . S
C1408 C1409 1.391 . S
C1408 C1410 1.394 . S
C1408 H1424 0.931 . S
C1409 C1408 1.391 . S
C1409 C1413 1.376 . S
C1410 C1408 1.394 . S
C1410 C1411 1.369 . S
C1410 C1414 1.531 . S
C1411 C1410 1.369 . S
C1411 C1412 1.410 . S
C1411 C1419 1.503 . S
C1412 C1411 1.410 . S
C1412 C1413 1.392 . S
C1412 C1415 1.511 . S
C1413 C1409 1.376 . S
C1413 C1412 1.392 . S
C1413 H1425 0.929 . S
C1414 C1410 1.531 . S
C1414 H1426 0.960 . S
C1414 H1427 0.962 . S
C1414 H1428 0.960 . S
C1415 C1412 1.511 . S
C1415 H1429 0.961 . S
C1415 H1430 0.961 . S
C1415 H1431 0.961 . S
C1416 C1417 1.370 . S
C1416 C1418 1.363 . S
C1416 H1432 0.931 . S
C1417 C1416 1.370 . S
C1417 C1421 1.408 . S
C1418 C1416 1.363 . S
C1418 C1419 1.370 . S
C1418 C1422 1.524 . S
C1419 C1411 1.503 . S
C1419 C1418 1.370 . S
C1419 C1420 1.403 . S
C1420 C1419 1.403 . S
C1420 C1421 1.404 . S
C1420 C1423 1.539 . S
C1421 C1417 1.408 . S
C1421 C1420 1.404 . S
C1421 H1433 0.930 . S
C1422 C1418 1.524 . S
C1422 H1434 0.956 . S
C1422 H1435 0.961 . S
C1422 H1436 0.961 . S
C1423 C1420 1.539 . S
C1423 H1437 0.958 . S
C1423 H1438 0.961 . S
C1423 H1439 0.960 . S
H1424 C1408 0.931 . S
H1425 C1413 0.929 . S
H1426 C1414 0.960 . S
H1427 C1414 0.962 . S
H1428 C1414 0.960 . S
H1429 C1415 0.961 . S
H1430 C1415 0.961 . S
H1431 C1415 0.961 . S
H1432 C1416 0.931 . S
H1433 C1421 0.930 . S
H1434 C1422 0.956 . S
H1435 C1422 0.961 . S
H1436 C1422 0.961 . S
H1437 C1423 0.958 . S
H1438 C1423 0.961 . S
H1439 C1423 0.960 . S
C1440 C1441 1.391 . S
C1440 C1442 1.394 . S
C1440 H1456 0.931 . S
C1441 C1440 1.391 . S
C1441 C1445 1.376 . S
C1442 C1440 1.394 . S
C1442 C1443 1.369 . S
C1442 C1446 1.531 . S
C1443 C1442 1.369 . S
C1443 C1444 1.410 . S
C1443 C1451 1.503 . S
C1444 C1443 1.410 . S
C1444 C1445 1.392 . S
C1444 C1447 1.511 . S
C1445 C1441 1.376 . S
C1445 C1444 1.392 . S
C1445 H1457 0.929 . S
C1446 C1442 1.531 . S
C1446 H1458 0.960 . S
C1446 H1459 0.962 . S
C1446 H1460 0.960 . S
C1447 C1444 1.511 . S
C1447 H1461 0.961 . S
C1447 H1462 0.961 . S
C1447 H1463 0.961 . S
C1448 C1449 1.370 . S
C1448 C1450 1.363 . S
C1448 H1464 0.931 . S
C1449 C1448 1.370 . S
C1449 C1453 1.408 . S
C1450 C1448 1.363 . S
C1450 C1451 1.370 . S
C1450 C1454 1.524 . S
C1451 C1443 1.503 . S
C1451 C1450 1.370 . S
C1451 C1452 1.403 . S
C1452 C1451 1.403 . S
C1452 C1453 1.404 . S
C1452 C1455 1.539 . S
C1453 C1449 1.408 . S
C1453 C1452 1.404 . S
C1453 H1465 0.930 . S
C1454 C1450 1.524 . S
C1454 H1466 0.956 . S
C1454 H1467 0.961 . S
C1454 H1468 0.961 . S
C1455 C1452 1.539 . S
C1455 H1469 0.958 . S
C1455 H1470 0.961 . S
C1455 H1471 0.960 . S
H1456 C1440 0.931 . S
H1457 C1445 0.929 . S
H1458 C1446 0.960 . S
H1459 C1446 0.962 . S
H1460 C1446 0.960 . S
H1461 C1447 0.961 . S
H1462 C1447 0.961 . S
H1463 C1447 0.961 . S
H1464 C1448 0.931 . S
H1465 C1453 0.930 . S
H1466 C1454 0.956 . S
H1467 C1454 0.961 . S
H1468 C1454 0.961 . S
H1469 C1455 0.958 . S
H1470 C1455 0.961 . S
H1471 C1455 0.960 . S
C1472 C1473 1.391 . S
C1472 C1474 1.394 . S
C1472 H1488 0.931 . S
C1473 C1472 1.391 . S
C1473 C1477 1.376 . S
C1474 C1472 1.394 . S
C1474 C1475 1.369 . S
C1474 C1478 1.531 . S
C1475 C1474 1.369 . S
C1475 C1476 1.410 . S
C1475 C1483 1.503 . S
C1476 C1475 1.410 . S
C1476 C1477 1.392 . S
C1476 C1479 1.511 . S
C1477 C1473 1.376 . S
C1477 C1476 1.392 . S
C1477 H1489 0.929 . S
C1478 C1474 1.531 . S
C1478 H1490 0.960 . S
C1478 H1491 0.962 . S
C1478 H1492 0.960 . S
C1479 C1476 1.511 . S
C1479 H1493 0.961 . S
C1479 H1494 0.961 . S
C1479 H1495 0.961 . S
C1480 C1481 1.370 . S
C1480 C1482 1.363 . S
C1480 H1496 0.931 . S
C1481 C1480 1.370 . S
C1481 C1485 1.408 . S
C1482 C1480 1.363 . S
C1482 C1483 1.370 . S
C1482 C1486 1.524 . S
C1483 C1475 1.503 . S
C1483 C1482 1.370 . S
C1483 C1484 1.403 . S
C1484 C1483 1.403 . S
C1484 C1485 1.404 . S
C1484 C1487 1.539 . S
C1485 C1481 1.408 . S
C1485 C1484 1.404 . S
C1485 H1497 0.930 . S
C1486 C1482 1.524 . S
C1486 H1498 0.956 . S
C1486 H1499 0.961 . S
C1486 H1500 0.961 . S
C1487 C1484 1.539 . S
C1487 H1501 0.958 . S
C1487 H1502 0.961 . S
C1487 H1503 0.960 . S
H1488 C1472 0.931 . S
H1489 C1477 0.929 . S
H1490 C1478 0.960 . S
H1491 C1478 0.962 . S
H1492 C1478 0.960 . S
H1493 C1479 0.961 . S
H1494 C1479 0.961 . S
H1495 C1479 0.961 . S
H1496 C1480 0.931 . S
H1497 C1485 0.930 . S
H1498 C1486 0.956 . S
H1499 C1486 0.961 . S
H1500 C1486 0.961 . S
H1501 C1487 0.958 . S
H1502 C1487 0.961 . S
H1503 C1487 0.960 . S
C489 C369 1.510 . S
C481 C15 1.512 . S
C521 C395 1.508 . S
C513 C68 1.509 . S
C553 C409 1.514 . S
C545 C107 1.516 . S
C585 C411 1.509 . S
C577 C160 1.511 . S
C609 C185 1.515 . S
C617 C408 1.511 . S
C649 C410 1.516 . S
C641 C252 1.514 . S
C681 C368 1.515 . S
C673 C277 1.511 . S
C713 C394 1.516 . S
C705 C330 1.510 . S
C745 C396 1.509 . S
C737 C323 1.510 . S
C777 C422 1.513 . S
C769 C192 1.512 . S
C809 C380 1.515 . S
C801 C245 1.510 . S
C841 C382 1.513 . S
C833 C284 1.510 . S
C873 C381 1.511 . S
C865 C61 1.516 . S
C905 C383 1.513 . S
C897 C114 1.516 . S
C937 C397 1.509 . S
C929 C153 1.512 . S
C969 C423 1.514 . S
C961 C22 1.513 . S
C1001 C425 1.516 . S
C993 C337 1.517 . S
C1025 C206 1.510 . S
C1033 C451 1.511 . S
C1057 C231 1.515 . S
C1065 C464 1.514 . S
C1089 C298 1.510 . S
C1097 C467 1.511 . S
C1121 C47 1.516 . S
C1129 C465 1.506 . S
C1153 C100 1.508 . S
C1161 C466 1.513 . S
C1185 C139 1.511 . S
C1193 C424 1.508 . S
C1225 C450 1.515 . S
C1217 C8 1.504 . S
C1257 C453 1.516 . S
C1249 C1 1.511 . S
C1281 C54 1.510 . S
C1289 C478 1.508 . S
C1313 C93 1.515 . S
C1321 C436 1.513 . S
C1345 C146 1.511 . S
C1353 C438 1.510 . S
C1385 C437 1.515 . S
C1377 C199 1.510 . S
C1417 C439 1.513 . S
C1409 C238 1.516 . S
C1441 C291 1.514 . S
C1449 C452 1.516 . S
C1481 C479 1.513 . S
C1473 C344 1.511 . S
