# Generated by pormake.
# Topology pyr, (3,6)-cn, num edge types: 1
# Building blocks:
#     Node 0, Type 0, BuildingBlock: QEWDON_clean_linker_0, # of connection points: 3
#     Node 1, Type 0, BuildingBlock: QEWDON_clean_linker_0, # of connection points: 3
#     Node 2, Type 0, BuildingBlock: QEWDON_clean_linker_0, # of connection points: 3
#     Node 3, Type 0, BuildingBlock: QEWDON_clean_linker_0, # of connection points: 3
#     Node 4, Type 0, BuildingBlock: QEWDON_clean_linker_0, # of connection points: 3
#     Node 5, Type 0, BuildingBlock: QEWDON_clean_linker_0, # of connection points: 3
#     Node 6, Type 0, BuildingBlock: QEWDON_clean_linker_0, # of connection points: 3
#     Node 7, Type 0, BuildingBlock: QEWDON_clean_linker_0, # of connection points: 3
#     Node 8, Type 1, BuildingBlock: BETFEN_clean_sbu_0, # of connection points: 6
#     Node 9, Type 1, BuildingBlock: BETFEN_clean_sbu_0, # of connection points: 6
#     Node 10, Type 1, BuildingBlock: BETFEN_clean_sbu_0, # of connection points: 6
#     Node 11, Type 1, BuildingBlock: BETFEN_clean_sbu_0, # of connection points: 6
#     Edge 12, Type (0, 1), BuildingBlock: MIFKUJ_clean_linker_0, # of connection points: 2
#     Edge 13, Type (0, 1), BuildingBlock: MIFKUJ_clean_linker_0, # of connection points: 2
#     Edge 14, Type (0, 1), BuildingBlock: MIFKUJ_clean_linker_0, # of connection points: 2
#     Edge 15, Type (0, 1), BuildingBlock: MIFKUJ_clean_linker_0, # of connection points: 2
#     Edge 16, Type (0, 1), BuildingBlock: MIFKUJ_clean_linker_0, # of connection points: 2
#     Edge 17, Type (0, 1), BuildingBlock: MIFKUJ_clean_linker_0, # of connection points: 2
#     Edge 18, Type (0, 1), BuildingBlock: MIFKUJ_clean_linker_0, # of connection points: 2
#     Edge 19, Type (0, 1), BuildingBlock: MIFKUJ_clean_linker_0, # of connection points: 2
#     Edge 20, Type (0, 1), BuildingBlock: MIFKUJ_clean_linker_0, # of connection points: 2
#     Edge 21, Type (0, 1), BuildingBlock: MIFKUJ_clean_linker_0, # of connection points: 2
#     Edge 22, Type (0, 1), BuildingBlock: MIFKUJ_clean_linker_0, # of connection points: 2
#     Edge 23, Type (0, 1), BuildingBlock: MIFKUJ_clean_linker_0, # of connection points: 2
#     Edge 24, Type (0, 1), BuildingBlock: MIFKUJ_clean_linker_0, # of connection points: 2
#     Edge 25, Type (0, 1), BuildingBlock: MIFKUJ_clean_linker_0, # of connection points: 2
#     Edge 26, Type (0, 1), BuildingBlock: MIFKUJ_clean_linker_0, # of connection points: 2
#     Edge 27, Type (0, 1), BuildingBlock: MIFKUJ_clean_linker_0, # of connection points: 2
#     Edge 28, Type (0, 1), BuildingBlock: MIFKUJ_clean_linker_0, # of connection points: 2
#     Edge 29, Type (0, 1), BuildingBlock: MIFKUJ_clean_linker_0, # of connection points: 2
#     Edge 30, Type (0, 1), BuildingBlock: MIFKUJ_clean_linker_0, # of connection points: 2
#     Edge 31, Type (0, 1), BuildingBlock: MIFKUJ_clean_linker_0, # of connection points: 2
#     Edge 32, Type (0, 1), BuildingBlock: MIFKUJ_clean_linker_0, # of connection points: 2
#     Edge 33, Type (0, 1), BuildingBlock: MIFKUJ_clean_linker_0, # of connection points: 2
#     Edge 34, Type (0, 1), BuildingBlock: MIFKUJ_clean_linker_0, # of connection points: 2
#     Edge 35, Type (0, 1), BuildingBlock: MIFKUJ_clean_linker_0, # of connection points: 2
# Relax obj value: 0.148
# Max RMSD: 0.290
# Mean RMSD: 0.179
data_MOF--net-pyr--node1-BETFEN_clean_sbu_0--node2-QEWDON_clean_linker_0--edge1-MIFKUJ_clean_linker_0
_symmetry_space_group_name_H-M    P1
_symmetry_Int_Tables_number       1
_symmetry_cell_setting            triclinic
loop_
_symmetry_equiv_pos_as_xyz
'x, y, z'
_cell_length_a     47.467359
_cell_length_b     52.097371
_cell_length_c     52.561059
_cell_angle_alpha  90.941052
_cell_angle_beta   100.03956
_cell_angle_gamma 118.28906
loop_
_atom_site_label
_atom_site_type_symbol
_atom_site_fract_x
_atom_site_fract_y
_atom_site_fract_z
_atom_type_partial_charge
H0 H 0.37812 0.34308 0.22485 0.0
C1 C 0.36231 0.335 0.23875 0.0
C2 C 0.3512 0.30614 0.24493 0.0
C3 C 0.35273 0.3534 0.25009 0.0
H4 H 0.32113 0.27337 0.267 0.0
C5 C 0.33063 0.29595 0.26286 0.0
C6 C 0.32131 0.31422 0.27483 0.0
C7 C 0.33224 0.34291 0.2681 0.0
C8 C 0.3634 0.38332 0.24248 0.0
H9 H 0.32541 0.35736 0.27723 0.0
C10 C 0.34018 0.39246 0.23406 0.0
C11 C 0.34969 0.42028 0.22549 0.0
C12 C 0.39649 0.40242 0.24263 0.0
H13 H 0.41482 0.39583 0.24909 0.0
C14 C 0.40618 0.43025 0.23456 0.0
H15 H 0.31452 0.37739 0.23319 0.0
C16 C 0.38297 0.43915 0.22594 0.0
H17 H 0.39106 0.46081 0.21972 0.0
H18 H 0.43176 0.44491 0.23485 0.0
H19 H 0.30529 0.90539 0.73921 0.0
C20 C 0.31715 0.89533 0.73033 0.0
C21 C 0.34573 0.8962 0.74457 0.0
C22 C 0.30241 0.87971 0.70535 0.0
H23 H 0.38191 0.88236 0.74377 0.0
C24 C 0.35992 0.88181 0.73307 0.0
C25 C 0.34546 0.86582 0.70828 0.0
C26 C 0.31685 0.8651 0.69452 0.0
C27 C 0.27025 0.87612 0.69159 0.0
H28 H 0.30567 0.853 0.67529 0.0
C29 C 0.26368 0.89995 0.69029 0.0
C30 C 0.23258 0.89544 0.67781 0.0
C31 C 0.24533 0.84805 0.68018 0.0
H32 H 0.24933 0.82925 0.6812 0.0
C33 C 0.21467 0.84369 0.66786 0.0
H34 H 0.28251 0.92177 0.69888 0.0
C35 C 0.20827 0.86717 0.66672 0.0
H36 H 0.18426 0.8633 0.65707 0.0
H37 H 0.1957 0.82196 0.65927 0.0
H38 H 0.63263 0.39439 0.84634 0.0
C39 C 0.6263 0.37233 0.85086 0.0
C40 C 0.65052 0.36723 0.86538 0.0
C41 C 0.59382 0.34953 0.8434 0.0
H42 H 0.66052 0.33594 0.88547 0.0
C43 C 0.64217 0.33918 0.87272 0.0
C44 C 0.60979 0.31628 0.86611 0.0
C45 C 0.58597 0.32142 0.85077 0.0
C46 C 0.56769 0.3558 0.83022 0.0
H47 H 0.56104 0.30369 0.84529 0.0
C48 C 0.5737 0.37584 0.81151 0.0
C49 C 0.54996 0.38371 0.80088 0.0
C50 C 0.5371 0.34311 0.83749 0.0
H51 H 0.5318 0.32812 0.85219 0.0
C52 C 0.51326 0.35042 0.82652 0.0
H53 H 0.59706 0.38583 0.80562 0.0
C54 C 0.51967 0.37076 0.80847 0.0
H55 H 0.50094 0.37635 0.80039 0.0
H56 H 0.48989 0.34063 0.83235 0.0
H57 H 0.87727 0.7559 0.33579 0.0
C58 C 0.86165 0.7428 0.34856 0.0
C59 C 0.86144 0.75647 0.37185 0.0
C60 C 0.83933 0.71279 0.34059 0.0
H61 H 0.83996 0.75023 0.40557 0.0
C62 C 0.83986 0.73968 0.38757 0.0
C63 C 0.81739 0.70991 0.38008 0.0
C64 C 0.8176 0.69648 0.35673 0.0
C65 C 0.83384 0.69986 0.31346 0.0
H66 H 0.79953 0.67375 0.35029 0.0
C67 C 0.85889 0.69903 0.30276 0.0
C68 C 0.85208 0.68703 0.27661 0.0
C69 C 0.80241 0.68861 0.29775 0.0
H70 H 0.78287 0.68921 0.30531 0.0
C71 C 0.79583 0.67696 0.27204 0.0
H72 H 0.88325 0.70754 0.31459 0.0
C73 C 0.82041 0.67621 0.26153 0.0
H74 H 0.8146 0.66684 0.24151 0.0
H75 H 0.77152 0.66848 0.26019 0.0
H76 H 0.67339 0.72665 0.86635 0.0
C77 C 0.68487 0.73686 0.85046 0.0
C78 C 0.71614 0.74109 0.84944 0.0
C79 C 0.66882 0.74672 0.83144 0.0
H80 H 0.75519 0.75854 0.8283 0.0
C81 C 0.73095 0.75503 0.82905 0.0
C82 C 0.71514 0.76508 0.80999 0.0
C83 C 0.68392 0.76074 0.81128 0.0
C84 C 0.63724 0.74443 0.83352 0.0
H85 H 0.67147 0.76856 0.7968 0.0
C86 C 0.63662 0.76608 0.84923 0.0
C87 C 0.60695 0.76572 0.84978 0.0
C88 C 0.60799 0.72196 0.81859 0.0
H89 H 0.60819 0.70524 0.80621 0.0
C90 C 0.57833 0.7212 0.81937 0.0
H91 H 0.65943 0.78381 0.86024 0.0
C92 C 0.57776 0.74305 0.83473 0.0
H93 H 0.55456 0.74225 0.83487 0.0
H94 H 0.55577 0.70383 0.80781 0.0
H95 H 0.75369 0.20953 0.45589 0.0
C96 C 0.74535 0.20878 0.43523 0.0
C97 C 0.75835 0.19925 0.41737 0.0
C98 C 0.72055 0.21622 0.42684 0.0
H99 H 0.75537 0.18987 0.37657 0.0
C100 C 0.74601 0.19746 0.39061 0.0
C101 C 0.72076 0.20421 0.38169 0.0
C102 C 0.70871 0.21421 0.40005 0.0
C103 C 0.70484 0.22299 0.44629 0.0
H104 H 0.68918 0.21932 0.39356 0.0
C105 C 0.6983 0.24685 0.44519 0.0
C106 C 0.6843 0.25302 0.46452 0.0
C107 C 0.69617 0.20499 0.46635 0.0
H108 H 0.70014 0.18617 0.46741 0.0
C109 C 0.68186 0.21071 0.4851 0.0
H110 H 0.70495 0.26099 0.42993 0.0
C111 C 0.67606 0.23451 0.48429 0.0
H112 H 0.66468 0.23825 0.49907 0.0
H113 H 0.67519 0.19658 0.50035 0.0
H114 H 0.47242 0.8199 0.28493 0.0
C115 C 0.44722 0.80437 0.27621 0.0
C116 C 0.42843 0.81371 0.25936 0.0
C117 C 0.43416 0.77486 0.28108 0.0
H118 H 0.38168 0.79994 0.23399 0.0
C119 C 0.39605 0.79328 0.24785 0.0
C120 C 0.38262 0.76375 0.25244 0.0
C121 C 0.40153 0.7547 0.26954 0.0
C122 C 0.45589 0.7647 0.29578 0.0
H123 H 0.39169 0.7317 0.27238 0.0
C124 C 0.44636 0.74666 0.31572 0.0
C125 C 0.46765 0.73772 0.32979 0.0
C126 C 0.48653 0.77309 0.28964 0.0
H127 H 0.49422 0.78656 0.27409 0.0
C128 C 0.5074 0.76384 0.30321 0.0
H129 H 0.42294 0.74041 0.32077 0.0
C130 C 0.49812 0.74633 0.32318 0.0
H131 H 0.51473 0.73932 0.33336 0.0
H132 H 0.53086 0.77026 0.29823 0.0
H133 H 0.22677 0.46798 0.7729 0.0
C134 C 0.2103 0.44555 0.76429 0.0
C135 C 0.21234 0.43616 0.73971 0.0
C136 C 0.1882 0.42575 0.7785 0.0
H137 H 0.19441 0.39871 0.71131 0.0
C138 C 0.19211 0.40658 0.72965 0.0
C139 C 0.17046 0.38636 0.74361 0.0
C140 C 0.16803 0.39616 0.76785 0.0
C141 C 0.19228 0.43429 0.80658 0.0
H142 H 0.15248 0.38042 0.77928 0.0
C143 C 0.16982 0.44006 0.81676 0.0
C144 C 0.17505 0.44754 0.8439 0.0
C145 C 0.21978 0.43639 0.82357 0.0
H146 H 0.23726 0.4321 0.81619 0.0
C147 C 0.22496 0.44378 0.85017 0.0
H148 H 0.14854 0.43856 0.80381 0.0
C149 C 0.20284 0.44925 0.86028 0.0
H150 H 0.20773 0.45524 0.88104 0.0
H151 H 0.24628 0.44531 0.86305 0.0
Pr152 Pr 0.99219 0.04829 0.56397 0.0
Pr153 Pr 0.0509 0.09471 0.54771 0.0
C154 C 0.94283 0.99823 0.57409 0.0
C155 C 0.93186 0.97993 0.59506 0.0
C156 C 0.93727 0.99253 0.62046 0.0
C157 C 0.92327 0.97485 0.63932 0.0
C158 C 0.90382 0.94428 0.63313 0.0
C159 C 0.89974 0.93167 0.60799 0.0
C160 C 0.91359 0.94938 0.58911 0.0
C161 C 0.02087 0.10179 0.5957 0.0
C162 C 0.06482 0.0537 0.58837 0.0
C163 C 0.09903 0.14405 0.53515 0.0
C164 C 0.10977 0.15698 0.51161 0.0
C165 C 0.11019 0.1399 0.49087 0.0
C166 C 0.12267 0.1529 0.4695 0.0
C167 C 0.1347 0.18315 0.46835 0.0
C168 C 0.13309 0.19999 0.48865 0.0
C169 C 0.1208 0.18699 0.51015 0.0
C170 C 0.02174 0.04154 0.51544 0.0
C171 C 0.97843 0.0904 0.52539 0.0
O172 O 0.96724 0.99892 0.56523 0.0
O173 O 0.9436 0.02362 0.57572 0.0
O174 O 0.03653 0.09059 0.58751 0.0
O175 O 0.98959 0.08449 0.58899 0.0
O176 O 0.07828 0.07996 0.58045 0.0
O177 O 0.03284 0.03644 0.58281 0.0
O178 O 0.07202 0.14236 0.53963 0.0
O179 O 0.10191 0.12088 0.54043 0.0
O180 O 1.00634 0.05278 0.52399 0.0
O181 O 0.05299 0.05875 0.52197 0.0
O182 O 0.96527 0.0633 0.5314 0.0
O183 O 1.01031 0.10796 0.53201 0.0
H184 H 0.95154 0.01609 0.62552 0.0
H185 H 0.92721 0.98511 0.65864 0.0
H186 H 0.88468 0.90824 0.60257 0.0
H187 H 0.90915 0.9393 0.56959 0.0
H188 H 0.1014 0.11659 0.49136 0.0
H189 H 0.12316 0.13932 0.45393 0.0
H190 H 0.14232 0.22337 0.48833 0.0
H191 H 0.12046 0.20046 0.52589 0.0
Pr192 Pr 0.49766 0.05296 0.06827 0.0
Pr193 Pr 0.56308 0.06651 0.05495 0.0
C194 C 0.44538 0.0398 0.08942 0.0
C195 C 0.4348 0.05879 0.10085 0.0
C196 C 0.44816 0.08822 0.09594 0.0
C197 C 0.43878 0.10674 0.10691 0.0
C198 C 0.41607 0.09626 0.12321 0.0
C199 C 0.40293 0.0668 0.12832 0.0
C200 C 0.4122 0.04814 0.11712 0.0
C201 C 0.5259 0.10457 0.04517 0.0
C202 C 0.56608 0.0897 0.11343 0.0
C203 C 0.61389 0.07781 0.03252 0.0
C204 C 0.62177 0.0575 0.01946 0.0
C205 C 0.61687 0.03134 0.02978 0.0
C206 C 0.62037 0.01032 0.01595 0.0
C207 C 0.62857 0.01484 0.99138 0.0
C208 C 0.63411 0.0413 0.98126 0.0
C209 C 0.63076 0.06248 0.99522 0.0
C210 C 0.53379 0.01422 0.0771 0.0
C211 C 0.49456 0.02959 0.01016 0.0
O212 O 0.47229 0.04122 0.10244 0.0
O213 O 0.44437 0.04003 0.06442 0.0
O214 O 0.54166 0.09651 0.06186 0.0
O215 O 0.49469 0.08757 0.04199 0.0
O216 O 0.58288 0.09633 0.09471 0.0
O217 O 0.53452 0.07074 0.10857 0.0
O218 O 0.58794 0.07879 0.0205 0.0
O219 O 0.61568 0.07735 0.05761 0.0
O220 O 0.51883 0.02307 0.0606 0.0
O221 O 0.56509 0.03109 0.08088 0.0
O222 O 0.4784 0.02228 0.02923 0.0
O223 O 0.52587 0.04926 0.01475 0.0
H224 H 0.46602 0.09692 0.08369 0.0
H225 H 0.44977 0.12945 0.10302 0.0
H226 H 0.38532 0.05815 0.14077 0.0
H227 H 0.40185 0.02551 0.12122 0.0
H228 H 0.60924 0.02661 0.04819 0.0
H229 H 0.61533 0.98997 0.02408 0.0
H230 H 0.64062 0.04545 0.96242 0.0
H231 H 0.63425 0.08235 0.98678 0.0
Pr232 Pr 0.53373 0.60313 0.57774 0.0
Pr233 Pr 0.51095 0.53759 0.55645 0.0
C234 C 0.53474 0.65454 0.588 0.0
C235 C 0.51736 0.66721 0.60008 0.0
C236 C 0.53454 0.68959 0.6209 0.0
C237 C 0.51942 0.70379 0.63092 0.0
C238 C 0.48676 0.69627 0.62012 0.0
C239 C 0.46927 0.67302 0.59987 0.0
C240 C 0.48435 0.65871 0.58997 0.0
C241 C 0.56182 0.57527 0.60885 0.0
C242 C 0.46593 0.54765 0.59235 0.0
C243 C 0.50617 0.48484 0.54422 0.0
C244 C 0.52302 0.47073 0.53372 0.0
C245 C 0.50488 0.44121 0.52322 0.0
C246 C 0.52027 0.42666 0.51435 0.0
C247 C 0.55429 0.44133 0.51579 0.0
C248 C 0.57237 0.47122 0.52583 0.0
C249 C 0.55688 0.48578 0.53477 0.0
C250 C 0.48362 0.56638 0.52578 0.0
C251 C 0.57921 0.59324 0.54257 0.0
O252 O 0.5191 0.63729 0.56616 0.0
O253 O 0.55296 0.64611 0.6033 0.0
O254 O 0.53241 0.56351 0.59685 0.0
O255 O 0.57711 0.60339 0.60722 0.0
O256 O 0.47193 0.52787 0.58203 0.0
O257 O 0.48392 0.57613 0.59131 0.0
O258 O 0.5197 0.49975 0.56731 0.0
O259 O 0.49315 0.49703 0.52808 0.0
O260 O 0.51299 0.57721 0.53746 0.0
O261 O 0.467 0.53862 0.52843 0.0
O262 O 0.57102 0.61237 0.55093 0.0
O263 O 0.56288 0.56495 0.5455 0.0
H264 H 0.55997 0.69653 0.62915 0.0
H265 H 0.53357 0.72087 0.64704 0.0
H266 H 0.44424 0.66653 0.59079 0.0
H267 H 0.4703 0.64153 0.57389 0.0
H268 H 0.47872 0.42923 0.52214 0.0
H269 H 0.50544 0.40386 0.50631 0.0
H270 H 0.5986 0.48317 0.5274 0.0
H271 H 0.57138 0.50861 0.54282 0.0
Pr272 Pr 0.01908 0.59757 0.04279 0.0
Pr273 Pr 1.00911 0.54636 0.07225 0.0
C274 C 0.0146 0.64007 0.01677 0.0
C275 C 0.99035 0.65002 0.01035 0.0
C276 C 0.99778 0.67495 0.99735 0.0
C277 C 0.97395 0.68328 0.98934 0.0
C278 C 0.94228 0.66671 0.99418 0.0
C279 C 0.93528 0.64219 1.00796 0.0
C280 C 0.95915 0.63389 0.01597 0.0
C281 C 0.07635 0.60555 0.07563 0.0
C282 C 0.9882 0.59097 0.09627 0.0
C283 C 0.01389 0.50391 0.09813 0.0
C284 C 0.03913 0.4951 0.10451 0.0
C285 C 0.03235 0.46932 0.116 0.0
C286 C 0.05705 0.46191 0.12359 0.0
C287 C 0.089 0.48029 0.11992 0.0
C288 C 0.09523 0.50568 0.10756 0.0
C289 C 0.07054 0.51302 0.09996 0.0
C290 C 0.95188 0.53861 0.03946 0.0
C291 C 0.04042 0.5532 0.01889 0.0
O292 O 1.00611 0.61415 1.00559 0.0
O293 O 0.02894 0.64449 0.04124 0.0
O294 O 0.0486 0.59449 0.08138 0.0
O295 O 0.07552 0.61425 0.05266 0.0
O296 O 0.99912 0.57246 0.10264 0.0
O297 O 0.98827 0.59994 0.07286 0.0
O298 O 0.02132 0.52945 0.10949 0.0
O299 O 0.99986 0.49958 0.07359 0.0
O300 O 0.9796 0.54942 0.0337 0.0
O301 O 0.95265 0.52984 0.06241 0.0
O302 O 0.02961 0.57178 0.01251 0.0
O303 O 0.04006 0.54406 0.04223 0.0
H304 H 0.02182 0.68763 0.99295 0.0
H305 H 0.9802 0.70249 0.97908 0.0
H306 H 0.91104 0.62879 0.01173 0.0
H307 H 0.95305 0.61448 0.02595 0.0
H308 H 1.00811 0.45517 0.11946 0.0
H309 H 0.05112 0.44186 0.13249 0.0
H310 H 0.11936 0.52042 0.10437 0.0
H311 H 0.07612 0.53304 0.09104 0.0
H312 H 0.27038 0.32348 0.28133 0.0
H313 H 0.23452 0.30297 0.31243 0.0
H314 H 0.28792 0.25853 0.34266 0.0
H315 H 0.32441 0.27956 0.31244 0.0
H316 H 0.21939 0.22211 0.32992 0.0
H317 H 0.30039 0.31739 0.37654 0.0
H318 H 0.33129 0.37146 0.38163 0.0
H319 H 0.24164 0.37508 0.37298 0.0
H320 H 0.21017 0.32097 0.36747 0.0
H321 H 0.17954 0.17527 0.44842 0.0
H322 H 0.20621 0.19864 0.41321 0.0
H323 H 0.15213 0.24627 0.40392 0.0
H324 H 0.12571 0.22321 0.43973 0.0
H325 H 0.21343 0.28144 0.40153 0.0
H326 H 0.13221 0.18737 0.35967 0.0
H327 H 0.09968 0.13339 0.35346 0.0
H328 H 0.18604 0.127 0.3507 0.0
H329 H 0.21921 0.18095 0.35727 0.0
C330 C 0.2748 0.30971 0.29486 0.0
C331 C 0.30015 0.303 0.29425 0.0
C332 C 0.25418 0.29789 0.3125 0.0
C333 C 0.25854 0.27915 0.3297 0.0
C334 C 0.284 0.27273 0.32934 0.0
C335 C 0.30473 0.28469 0.31196 0.0
C336 C 0.23648 0.26569 0.34798 0.0
C337 C 0.21817 0.23501 0.34569 0.0
C338 C 0.23399 0.28267 0.36785 0.0
C339 C 0.25292 0.31516 0.37128 0.0
C340 C 0.28725 0.32971 0.37549 0.0
C341 C 0.30487 0.36037 0.3785 0.0
C342 C 0.28843 0.3767 0.37754 0.0
C343 C 0.25433 0.3624 0.37366 0.0
C344 C 0.2366 0.33175 0.37061 0.0
C345 C 0.17305 0.19048 0.4387 0.0
C346 C 0.15031 0.1972 0.44663 0.0
C347 C 0.18828 0.20381 0.41854 0.0
C348 C 0.18069 0.22378 0.40554 0.0
C349 C 0.15823 0.23082 0.41359 0.0
C350 C 0.14319 0.21767 0.43401 0.0
C351 C 0.197 0.23767 0.38401 0.0
C352 C 0.21415 0.26843 0.38558 0.0
C353 C 0.19811 0.22075 0.36322 0.0
C354 C 0.17824 0.18825 0.35913 0.0
C355 C 0.14432 0.17447 0.35791 0.0
C356 C 0.12575 0.14386 0.3543 0.0
C357 C 0.14079 0.12678 0.35173 0.0
C358 C 0.17442 0.14027 0.3527 0.0
C359 C 0.19311 0.17086 0.35633 0.0
H360 H 0.12637 0.10309 0.34894 0.0
H361 H 0.30211 0.40043 0.37988 0.0
H362 H 0.35006 0.947 0.76596 0.0
H363 H 0.37249 0.96964 0.81105 0.0
H364 H 0.39689 0.90136 0.83008 0.0
H365 H 0.37257 0.87758 0.78576 0.0
H366 H 0.37478 0.9115 0.86734 0.0
H367 H 0.4548 0.97301 0.81978 0.0
H368 H 0.47571 0.00477 0.78575 0.0
H369 H 0.44822 0.06516 0.81524 0.0
H370 H 0.42674 0.03354 0.84926 0.0
H371 H 0.5227 0.03174 0.96864 0.0
H372 H 0.49571 0.00941 0.92408 0.0
H373 H 0.40159 0.97523 0.94527 0.0
H374 H 0.42863 0.99673 0.9903 0.0
H375 H 0.45764 0.01677 0.88795 0.0
H376 H 0.34649 0.91192 0.90773 0.0
H377 H 0.33205 0.87852 0.94174 0.0
H378 H 0.43299 0.9018 0.96761 0.0
H379 H 0.44795 0.93504 0.93357 0.0
C380 C 0.35985 0.93659 0.77979 0.0
C381 C 0.35976 0.91056 0.77197 0.0
C382 C 0.37305 0.94979 0.80556 0.0
C383 C 0.38694 0.93753 0.82401 0.0
C384 C 0.38648 0.91138 0.8163 0.0
C385 C 0.37293 0.898 0.79072 0.0
C386 C 0.40205 0.95175 0.85132 0.0
C387 C 0.39282 0.93456 0.87179 0.0
C388 C 0.42601 0.98173 0.85733 0.0
C389 C 0.43881 1.00074 0.83686 0.0
C390 C 0.45297 0.99294 0.81887 0.0
C391 C 0.46497 0.01094 0.79961 0.0
C392 C 0.4632 0.03692 0.79828 0.0
C393 C 0.44951 0.045 0.81626 0.0
C394 C 0.43743 0.02705 0.83554 0.0
C395 C 0.49624 0.01935 0.96391 0.0
C396 C 0.47782 0.01581 0.98312 0.0
C397 C 0.4808 0.00668 0.93831 0.0
C398 C 0.44656 0.99032 0.93122 0.0
C399 C 0.42805 0.98721 0.95029 0.0
C400 C 0.44353 0.99958 0.97604 0.0
C401 C 0.4305 0.97646 0.90392 0.0
C402 C 0.43944 0.99376 0.88348 0.0
C403 C 0.40712 0.94632 0.89791 0.0
C404 C 0.39835 0.9262 0.9183 0.0
C405 C 0.36557 0.90983 0.92064 0.0
C406 C 0.35731 0.89094 0.93992 0.0
C407 C 0.3816 0.88812 0.95688 0.0
C408 C 0.41421 0.9041 0.95453 0.0
C409 C 0.4226 0.92299 0.93527 0.0
H410 H 0.37515 0.87351 0.97181 0.0
H411 H 0.47252 0.05083 0.78337 0.0
H412 H 0.5425 0.43217 0.8039 0.0
H413 H 0.55182 0.46828 0.77281 0.0
H414 H 0.58186 0.42153 0.72494 0.0
H415 H 0.5736 0.38585 0.75665 0.0
H416 H 0.61892 0.47803 0.72478 0.0
H417 H 0.50391 0.41396 0.7108 0.0
H418 H 0.44986 0.38679 0.72231 0.0
H419 H 0.45502 0.46797 0.74765 0.0
H420 H 0.50936 0.49563 0.73665 0.0
H421 H 0.57293 0.5291 0.6045 0.0
H422 H 0.57938 0.5004 0.63952 0.0
H423 H 0.57785 0.56107 0.69539 0.0
H424 H 0.57198 0.59002 0.66044 0.0
H425 H 0.52802 0.49847 0.69125 0.0
H426 H 0.64415 0.56179 0.70202 0.0
H427 H 0.69625 0.58629 0.68711 0.0
H428 H 0.68582 0.50253 0.66309 0.0
H429 H 0.63336 0.4775 0.67751 0.0
C430 C 0.55114 0.42967 0.78675 0.0
C431 C 0.55697 0.40609 0.78245 0.0
C432 C 0.55642 0.45026 0.76898 0.0
C433 C 0.56686 0.44728 0.74622 0.0
C434 C 0.57369 0.42423 0.7423 0.0
C435 C 0.56891 0.40384 0.76035 0.0
C436 C 0.56957 0.4677 0.72623 0.0
C437 C 0.5989 0.48224 0.71726 0.0
C438 C 0.54355 0.47342 0.71649 0.0
C439 C 0.51087 0.45686 0.72315 0.0
C440 C 0.49364 0.42601 0.71902 0.0
C441 C 0.46294 0.41052 0.72543 0.0
C442 C 0.44906 0.42564 0.73577 0.0
C443 C 0.46583 0.45629 0.73968 0.0
C444 C 0.49658 0.47189 0.73335 0.0
C445 C 0.57476 0.53656 0.62437 0.0
C446 C 0.57208 0.56161 0.63 0.0
C447 C 0.57853 0.5203 0.64429 0.0
C448 C 0.57909 0.5287 0.66996 0.0
C449 C 0.57764 0.5544 0.67569 0.0
C450 C 0.57448 0.57094 0.65584 0.0
C451 C 0.57739 0.50894 0.69017 0.0
C452 C 0.54807 0.49434 0.69897 0.0
C453 C 0.6031 0.50277 0.69926 0.0
C454 C 0.63464 0.51777 0.69059 0.0
C455 C 0.65278 0.54858 0.69331 0.0
C456 C 0.68243 0.56257 0.68501 0.0
C457 C 0.6943 0.54598 0.67409 0.0
C458 C 0.67658 0.51535 0.67152 0.0
C459 C 0.6469 0.50126 0.67978 0.0
H460 H 0.71726 0.55685 0.66768 0.0
H461 H 0.42527 0.41361 0.7407 0.0
H462 H 0.87712 0.715 0.2363 0.0
H463 H 0.90561 0.702 0.20825 0.0
H464 H 0.9082 0.63848 0.25885 0.0
H465 H 0.88029 0.65212 0.28737 0.0
H466 H 0.96314 0.66361 0.23827 0.0
H467 H 0.84728 0.61819 0.20528 0.0
H468 H 0.79456 0.61755 0.19139 0.0
H469 H 0.83164 0.67172 0.13163 0.0
H470 H 0.88481 0.6731 0.14546 0.0
H471 H 0.9795 0.57381 0.14468 0.0
H472 H 0.96071 0.59261 0.17711 0.0
H473 H 0.95116 0.65261 0.12524 0.0
H474 H 0.96917 0.63334 0.09239 0.0
H475 H 0.90061 0.62958 0.14724 0.0
H476 H 0.01647 0.67457 0.17978 0.0
H477 H 0.06934 0.67554 0.19395 0.0
H478 H 0.03258 0.62227 0.2543 0.0
H479 H 0.97932 0.62064 0.24027 0.0
C480 C 0.88481 0.699 0.2419 0.0
C481 C 0.87675 0.68475 0.26412 0.0
C482 C 0.90077 0.69131 0.2257 0.0
C483 C 0.90842 0.6687 0.231 0.0
C484 C 0.90248 0.65588 0.25422 0.0
C485 C 0.88671 0.66381 0.27062 0.0
C486 C 0.91995 0.65691 0.21128 0.0
C487 C 0.94929 0.65588 0.21844 0.0
C488 C 0.90224 0.64718 0.1852 0.0
C489 C 0.87011 0.64596 0.17656 0.0
C490 C 0.84425 0.63011 0.18927 0.0
C491 C 0.81429 0.62961 0.18141 0.0
C492 C 0.80977 0.64463 0.16067 0.0
C493 C 0.83519 0.66012 0.14771 0.0
C494 C 0.86524 0.66076 0.15555 0.0
C495 C 0.9734 0.591 0.14009 0.0
C496 C 0.97601 0.60207 0.11584 0.0
C497 C 0.96283 0.60192 0.15882 0.0
C498 C 0.955 0.62451 0.15399 0.0
C499 C 0.95713 0.63529 0.12962 0.0
C500 C 0.96749 0.62424 0.11079 0.0
C501 C 0.94405 0.6365 0.17407 0.0
C502 C 0.91464 0.63743 0.16701 0.0
C503 C 0.96172 0.64611 0.2002 0.0
C504 C 0.99381 0.64726 0.20882 0.0
C505 C 0.01959 0.6629 0.19597 0.0
C506 C 0.04964 0.66359 0.20399 0.0
C507 C 0.05429 0.64892 0.22497 0.0
C508 C 0.02893 0.63359 0.23803 0.0
C509 C 0.99882 0.6328 0.23007 0.0
H510 H 0.07756 0.64947 0.23115 0.0
H511 H 0.78656 0.64423 0.15461 0.0
H512 H 0.35307 0.29898 0.19363 0.0
H513 H 0.36487 0.26397 0.17257 0.0
H514 H 0.38019 0.23249 0.24636 0.0
H515 H 0.36956 0.26812 0.26768 0.0
H516 H 0.42537 0.23785 0.21945 0.0
H517 H 0.30821 0.19499 0.20236 0.0
H518 H 0.25535 0.1936 0.18676 0.0
H519 H 0.27443 0.20414 0.10963 0.0
H520 H 0.32765 0.20602 0.12486 0.0
H521 H 0.41136 0.10279 0.17375 0.0
H522 H 0.39995 0.13862 0.19397 0.0
H523 H 0.38943 0.17137 0.12004 0.0
H524 H 0.40026 0.13531 0.09963 0.0
H525 H 0.34213 0.16573 0.14641 0.0
H526 H 0.45895 0.208 0.1634 0.0
H527 H 0.51171 0.20921 0.17893 0.0
H528 H 0.49317 0.19963 0.25626 0.0
H529 H 0.44003 0.19792 0.24109 0.0
C530 C 0.35946 0.28492 0.20543 0.0
C531 C 0.36018 0.28617 0.23229 0.0
C532 C 0.36587 0.26473 0.19333 0.0
C533 C 0.37288 0.24532 0.20785 0.0
C534 C 0.37464 0.24716 0.23478 0.0
C535 C 0.36831 0.26736 0.24689 0.0
C536 C 0.37781 0.22268 0.19496 0.0
C537 C 0.40701 0.22186 0.20369 0.0
C538 C 0.35411 0.20221 0.17403 0.0
C539 C 0.32205 0.20094 0.16481 0.0
C540 C 0.30125 0.19724 0.18211 0.0
C541 C 0.2712 0.19633 0.17333 0.0
C542 C 0.26158 0.19886 0.14723 0.0
C543 C 0.28194 0.20223 0.12985 0.0
C544 C 0.31204 0.2032 0.13854 0.0
C545 C 0.40614 0.11735 0.16176 0.0
C546 C 0.40688 0.1164 0.13516 0.0
C547 C 0.39991 0.13794 0.17336 0.0
C548 C 0.39429 0.15786 0.15854 0.0
C549 C 0.39387 0.15627 0.13181 0.0
C550 C 0.40025 0.13581 0.12024 0.0
C551 C 0.38959 0.18084 0.17101 0.0
C552 C 0.36047 0.18174 0.16217 0.0
C553 C 0.41334 0.20137 0.19184 0.0
C554 C 0.44535 0.20253 0.20105 0.0
C555 C 0.46599 0.20591 0.18367 0.0
C556 C 0.49599 0.20672 0.19242 0.0
C557 C 0.50575 0.20442 0.21855 0.0
C558 C 0.48556 0.20137 0.23601 0.0
C559 C 0.4555 0.20049 0.22735 0.0
H560 H 0.52898 0.20506 0.22529 0.0
H561 H 0.23831 0.19814 0.14047 0.0
H562 H 0.24916 0.93709 0.64432 0.0
H563 H 0.22533 0.96946 0.63448 0.0
H564 H 0.17243 0.93929 0.69638 0.0
H565 H 0.19547 0.90628 0.70549 0.0
H566 H 0.13237 0.9354 0.65504 0.0
H567 H 0.23728 0.01205 0.69816 0.0
H568 H 0.29741 0.04164 0.7075 0.0
H569 H 0.29431 0.06562 0.62971 0.0
H570 H 0.23417 0.03585 0.61977 0.0
H571 H 0.05613 0.02359 0.63095 0.0
H572 H 0.08962 0.00302 0.65264 0.0
H573 H 0.15267 0.03579 0.59738 0.0
H574 H 0.12092 0.05865 0.57739 0.0
H575 H 0.18867 0.03985 0.63938 0.0
H576 H 0.08259 0.95862 0.59598 0.0
H577 H 0.02248 0.92886 0.58823 0.0
H578 H 0.02821 0.91306 0.66829 0.0
H579 H 0.08829 0.94314 0.67674 0.0
C580 C 0.23323 0.93814 0.65627 0.0
C581 C 0.22446 0.91961 0.67589 0.0
C582 C 0.21956 0.95662 0.65067 0.0
C583 C 0.19711 0.95708 0.66477 0.0
C584 C 0.1896 0.93942 0.68517 0.0
C585 C 0.20298 0.92076 0.69056 0.0
C586 C 0.17911 0.97365 0.65672 0.0
C587 C 0.14479 0.9584 0.65204 0.0
C588 C 0.19504 0.00351 0.65223 0.0
C589 C 0.23121 0.0215 0.65816 0.0
C590 C 0.24943 0.02345 0.68298 0.0
C591 C 0.28352 0.04029 0.68839 0.0
C592 C 0.29967 0.05545 0.66919 0.0
C593 C 0.28177 0.05385 0.64455 0.0
C594 C 0.24767 0.03702 0.63903 0.0
C595 C 0.07742 0.02665 0.62373 0.0
C596 C 0.08594 0.04263 0.6025 0.0
C597 C 0.0964 0.01458 0.63592 0.0
C598 C 0.12327 0.01682 0.62623 0.0
C599 C 0.13212 0.03349 0.60533 0.0
C600 C 0.11392 0.04654 0.59383 0.0
C601 C 0.1418 1.00145 0.63726 0.0
C602 C 0.17624 0.01689 0.64248 0.0
C603 C 0.12598 0.9717 0.64232 0.0
C604 C 0.08989 0.95336 0.63703 0.0
C605 C 0.07101 0.94891 0.61195 0.0
C606 C 0.03696 0.93199 0.60743 0.0
C607 C 0.02154 0.91912 0.62771 0.0
C608 C 0.04016 0.92308 0.6526 0.0
C609 C 0.0742 0.94006 0.65728 0.0
H610 H 0.99517 0.90605 0.62412 0.0
H611 H 0.32607 0.06848 0.67342 0.0
H612 H 0.66655 0.41824 0.89349 0.0
H613 H 0.72055 0.45416 0.91814 0.0
H614 H 0.76314 0.40717 0.88616 0.0
H615 H 0.7088 0.37056 0.86226 0.0
H616 H 0.78112 0.41511 0.93568 0.0
H617 H 0.78227 0.48033 0.87169 0.0
H618 H 0.75831 0.50533 0.84333 0.0
H619 H 0.74866 0.54641 0.91033 0.0
H620 H 0.77286 0.52186 0.93909 0.0
H621 H 0.94564 0.55 0.9889 0.0
H622 H 0.8955 0.52778 0.95506 0.0
H623 H 0.8395 0.48378 0.01228 0.0
H624 H 0.88944 0.50574 0.04611 0.0
H625 H 0.8323 0.52377 0.94638 0.0
H626 H 0.79225 0.41247 0.98737 0.0
H627 H 0.81702 0.38673 0.01376 0.0
H628 H 0.90679 0.43655 0.9877 0.0
H629 H 0.88239 0.46223 0.96086 0.0
C630 C 0.68761 0.4161 0.89119 0.0
C631 C 0.68366 0.39173 0.87602 0.0
C632 C 0.7185 0.43668 0.90522 0.0
C633 C 0.74604 0.43354 0.9039 0.0
C634 C 0.74227 0.41004 0.88754 0.0
C635 C 0.71132 0.38921 0.87385 0.0
C636 C 0.77784 0.45255 0.92184 0.0
C637 C 0.79236 0.43886 0.93778 0.0
C638 C 0.79271 0.48357 0.92464 0.0
C639 C 0.77926 0.49919 0.90751 0.0
C640 C 0.77506 0.49473 0.88035 0.0
C641 C 0.76149 0.50885 0.86422 0.0
C642 C 0.75192 0.52741 0.87502 0.0
C643 C 0.75606 0.532 0.90199 0.0
C644 C 0.76993 0.51817 0.91823 0.0
C645 C 0.92253 0.53597 0.9943 0.0
C646 C 0.92141 0.52908 0.01999 0.0
C647 C 0.89393 0.52348 0.975 0.0
C648 C 0.86396 0.50387 0.98115 0.0
C649 C 0.86252 0.49866 1.00714 0.0
C650 C 0.89103 0.51116 0.02642 0.0
C651 C 0.835 0.48612 0.96022 0.0
C652 C 0.82108 0.50002 0.94393 0.0
C653 C 0.82088 0.45522 0.95667 0.0
C654 C 0.83558 0.43946 0.97233 0.0
C655 C 0.81722 0.41782 0.98719 0.0
C656 C 0.8312 0.40325 1.00223 0.0
C657 C 0.86349 0.41007 1.00247 0.0
C658 C 0.88182 0.43136 0.98757 0.0
C659 C 0.86794 0.44595 0.97246 0.0
H660 H 0.87429 0.3988 0.01416 0.0
H661 H 0.74137 0.53829 0.86251 0.0
H662 H 0.79604 0.65445 0.39558 0.0
H663 H 0.7569 0.63092 0.42401 0.0
H664 H 0.74229 0.70643 0.42792 0.0
H665 H 0.78102 0.7298 0.39981 0.0
H666 H 0.75267 0.69138 0.47527 0.0
H667 H 0.68495 0.64042 0.3912 0.0
H668 H 0.67056 0.6097 0.34984 0.0
H669 H 0.67037 0.5396 0.39179 0.0
H670 H 0.68519 0.57006 0.43341 0.0
H671 H 0.61055 0.64675 0.52494 0.0
H672 H 0.65197 0.66281 0.49852 0.0
H673 H 0.65051 0.57943 0.50011 0.0
H674 H 0.60807 0.56276 0.52604 0.0
H675 H 0.65201 0.5948 0.4528 0.0
H676 H 0.71512 0.64378 0.53681 0.0
H677 H 0.72969 0.67416 0.57838 0.0
H678 H 0.7398 0.74765 0.53732 0.0
H679 H 0.72486 0.7176 0.49547 0.0
C680 C 0.78418 0.66582 0.40233 0.0
C681 C 0.79201 0.69416 0.39571 0.0
C682 C 0.76183 0.65239 0.41859 0.0
C683 C 0.74665 0.66693 0.42825 0.0
C684 C 0.75388 0.69486 0.42103 0.0
C685 C 0.77613 0.70824 0.40495 0.0
C686 C 0.72387 0.65385 0.44643 0.0
C687 C 0.73053 0.67035 0.47024 0.0
C688 C 0.69554 0.62594 0.4404 0.0
C689 C 0.68655 0.60763 0.4154 0.0
C690 C 0.68211 0.61854 0.39159 0.0
C691 C 0.67382 0.60116 0.36811 0.0
C692 C 0.66966 0.57275 0.36819 0.0
C693 C 0.67367 0.56163 0.39176 0.0
C694 C 0.682 0.57893 0.4153 0.0
C695 C 0.61917 0.63183 0.51994 0.0
C696 C 0.60604 0.60348 0.52785 0.0
C697 C 0.64304 0.64112 0.50483 0.0
C698 C 0.65494 0.62258 0.49759 0.0
C699 C 0.6419 0.59424 0.50546 0.0
C700 C 0.6177 0.58478 0.52041 0.0
C701 C 0.68037 0.63274 0.48135 0.0
C702 C 0.67431 0.61568 0.45799 0.0
C703 C 0.70941 0.66013 0.48782 0.0
C704 C 0.71865 0.67835 0.51298 0.0
C705 C 0.72026 0.66637 0.53663 0.0
C706 C 0.7286 0.68354 0.56025 0.0
C707 C 0.73561 0.7128 0.56049 0.0
C708 C 0.73436 0.72498 0.53711 0.0
C709 C 0.726 0.70789 0.51343 0.0
H710 H 0.74205 0.72606 0.57879 0.0
H711 H 0.66324 0.55933 0.34998 0.0
H712 H 0.297 0.41222 0.24551 0.0
H713 H 0.25377 0.4235 0.22694 0.0
H714 H 0.30239 0.45912 0.16377 0.0
H715 H 0.34572 0.44782 0.1822 0.0
H716 H 0.27965 0.49324 0.18176 0.0
H717 H 0.23728 0.39121 0.15467 0.0
H718 H 0.223 0.33993 0.16062 0.0
H719 H 0.15737 0.3358 0.20922 0.0
H720 H 0.17163 0.38723 0.20388 0.0
H721 H 0.14136 0.48953 0.09824 0.0
H722 H 0.18733 0.48181 0.1166 0.0
H723 H 0.14399 0.44855 0.18262 0.0
H724 H 0.09845 0.45699 0.16494 0.0
H725 H 0.16441 0.41327 0.16166 0.0
H726 H 0.21557 0.51716 0.19596 0.0
H727 H 0.23314 0.56972 0.19323 0.0
H728 H 0.28004 0.56915 0.13055 0.0
H729 H 0.26382 0.51687 0.13363 0.0
C730 C 0.29845 0.42241 0.22764 0.0
C731 C 0.32465 0.42895 0.21523 0.0
C732 C 0.27376 0.42885 0.21706 0.0
C733 C 0.27463 0.44173 0.19376 0.0
C734 C 0.30124 0.44914 0.18174 0.0
C735 C 0.32602 0.44276 0.19235 0.0
C736 C 0.24746 0.44701 0.18175 0.0
C737 C 0.25451 0.47565 0.17702 0.0
C738 C 0.21459 0.42418 0.17597 0.0
C739 C 0.20576 0.39317 0.17906 0.0
C740 C 0.21999 0.37944 0.16678 0.0
C741 C 0.21187 0.35033 0.17002 0.0
C742 C 0.18936 0.33464 0.18534 0.0
C743 C 0.17484 0.348 0.19739 0.0
C744 C 0.18291 0.37712 0.19424 0.0
C745 C 0.14167 0.48082 0.11679 0.0
C746 C 0.11604 0.47385 0.13004 0.0
C747 C 0.16803 0.47647 0.12726 0.0
C748 C 0.16921 0.46492 0.1511 0.0
C749 C 0.14351 0.45749 0.16418 0.0
C750 C 0.11727 0.46201 0.15385 0.0
C751 C 0.19662 0.4595 0.16196 0.0
C752 C 0.18958 0.43079 0.16636 0.0
C753 C 0.22946 0.48219 0.1674 0.0
C754 C 0.23825 0.51318 0.16485 0.0
C755 C 0.22952 0.52827 0.18154 0.0
C756 C 0.23944 0.55802 0.18007 0.0
C757 C 0.25742 0.57269 0.16157 0.0
C758 C 0.266 0.55774 0.14479 0.0
C759 C 0.25673 0.52814 0.14655 0.0
H760 H 0.26477 0.59564 0.16032 0.0
H761 H 0.1831 0.31211 0.18782 0.0
H762 H 0.55616 0.28676 0.88739 0.0
H763 H 0.54643 0.24859 0.91611 0.0
H764 H 0.63301 0.24662 0.90422 0.0
H765 H 0.64251 0.28444 0.87455 0.0
H766 H 0.58059 0.19015 0.91015 0.0
H767 H 0.64286 0.28747 0.95385 0.0
H768 H 0.65596 0.33877 0.964 0.0
H769 H 0.56658 0.30941 0.99128 0.0
H770 H 0.55264 0.25788 0.98084 0.0
H771 H 0.5869 0.12948 0.0338 0.0
H772 H 0.60695 0.16515 1.00234 0.0
H773 H 0.5175 0.17008 0.99052 0.0
H774 H 0.49696 0.13383 0.02094 0.0
H775 H 0.58115 0.22673 0.99823 0.0
H776 H 0.51671 0.12948 0.94841 0.0
H777 H 0.50463 0.07827 0.9393 0.0
H778 H 0.60139 0.10844 0.92555 0.0
H779 H 0.61416 0.15987 0.93494 0.0
C780 C 0.57253 0.27753 0.89001 0.0
C781 C 0.60033 0.2889 0.87883 0.0
C782 C 0.56706 0.25585 0.90665 0.0
C783 C 0.58937 0.24526 0.91265 0.0
C784 C 0.61565 0.2547 0.89993 0.0
C785 C 0.62114 0.27642 0.88316 0.0
C786 C 0.58702 0.22711 0.93438 0.0
C787 C 0.5813 0.19829 0.92951 0.0
C788 C 0.58811 0.23782 0.95967 0.0
C789 C 0.59659 0.26879 0.96637 0.0
C790 C 0.62588 0.29194 0.96184 0.0
C791 C 0.63347 0.32106 0.96766 0.0
C792 C 0.61209 0.32734 0.97824 0.0
C793 C 0.58311 0.3045 0.98307 0.0
C794 C 0.57536 0.27533 0.97722 0.0
C795 C 0.57179 0.13848 0.02465 0.0
C796 C 0.54037 0.1289 0.02956 0.0
C797 C 0.58318 0.15871 1.00673 0.0
C798 C 0.56354 0.17 0.99414 0.0
C799 C 0.53292 0.16154 1.00009 0.0
C800 C 0.52125 0.14087 0.01742 0.0
C801 C 0.57384 0.18966 0.97381 0.0
C802 C 0.58108 0.21882 0.97898 0.0
C803 C 0.57443 0.17931 0.94898 0.0
C804 C 0.5665 0.14848 0.94265 0.0
C805 C 0.53548 0.12518 0.94362 0.0
C806 C 0.52849 0.09612 0.93838 0.0
C807 C 0.55226 0.09011 0.93193 0.0
C808 C 0.58302 0.11314 0.93059 0.0
C809 C 0.59013 0.14224 0.93584 0.0
H810 H 0.54683 0.0676 0.92791 0.0
H811 H 0.618 0.34991 0.98273 0.0
H812 H 0.83818 0.79329 0.38141 0.0
H813 H 0.86904 0.84435 0.40054 0.0
H814 H 0.95936 0.84395 0.39872 0.0
H815 H 0.92813 0.79215 0.37975 0.0
H816 H 0.96054 0.86543 0.44581 0.0
H817 H 0.93459 0.88509 0.35938 0.0
H818 H 0.89967 0.8798 0.31684 0.0
H819 H 0.84241 0.90638 0.35395 0.0
H820 H 0.87669 0.91142 0.39678 0.0
H821 H 0.05278 0.01644 0.49477 0.0
H822 H 0.02843 0.97077 0.46581 0.0
H823 H 0.93214 0.9586 0.46645 0.0
H824 H 0.95652 0.00459 0.49546 0.0
H825 H 0.93842 0.94558 0.41709 0.0
H826 H 0.96041 0.92092 0.5031 0.0
H827 H 0.99473 0.92653 0.54583 0.0
H828 H 0.05897 0.90894 0.50929 0.0
H829 H 0.02517 0.90375 0.46612 0.0
C830 C 0.86464 0.80424 0.38465 0.0
C831 C 0.88079 0.78876 0.37916 0.0
C832 C 0.88228 0.83353 0.39548 0.0
C833 C 0.9166 0.84823 0.40096 0.0
C834 C 0.93289 0.83313 0.39461 0.0
C835 C 0.9151 0.80365 0.38361 0.0
C836 C 0.93497 0.87839 0.41526 0.0
C837 C 0.95626 0.88314 0.43917 0.0
C838 C 0.92878 0.90138 0.40708 0.0
C839 C 0.90811 0.89844 0.38134 0.0
C840 C 0.9144 0.8896 0.3585 0.0
C841 C 0.89474 0.88668 0.33433 0.0
C842 C 0.8688 0.8927 0.3327 0.0
C843 C 0.86251 0.90171 0.35524 0.0
C844 C 0.88208 0.90465 0.37948 0.0
C845 C 0.02641 0.00412 0.48869 0.0
C846 C 1.00655 0.01408 0.49745 0.0
C847 C 0.01251 0.97796 0.47215 0.0
C848 C 0.97842 0.96107 0.46406 0.0
C849 C 0.95851 0.97126 0.47238 0.0
C850 C 0.97243 0.99746 0.48904 0.0
C851 C 0.96362 0.93237 0.44763 0.0
C852 C 0.94299 0.92794 0.42344 0.0
C853 C 0.97036 0.90963 0.45552 0.0
C854 C 0.99049 0.91229 0.48139 0.0
C855 C 0.982 0.91846 0.50416 0.0
C856 C 1.00137 0.92154 0.52848 0.0
C857 C 0.02914 0.91817 0.53034 0.0
C858 C 0.0375 0.9116 0.50783 0.0
C859 C 0.01823 0.90859 0.48342 0.0
H860 H 0.04416 0.92056 0.54919 0.0
H861 H 0.85361 0.89043 0.31396 0.0
H862 H 0.40988 0.88286 0.70872 0.0
H863 H 0.43266 0.85355 0.69327 0.0
H864 H 0.33545 0.78046 0.66812 0.0
H865 H 0.31252 0.80949 0.68399 0.0
H866 H 0.37755 0.76311 0.69425 0.0
H867 H 0.37635 0.82079 0.62415 0.0
H868 H 0.38819 0.86636 0.60416 0.0
H869 H 0.49121 0.89859 0.63068 0.0
H870 H 0.47996 0.85336 0.65116 0.0
H871 H 0.42185 0.67675 0.62185 0.0
H872 H 0.39722 0.70506 0.63518 0.0
H873 H 0.49196 0.78252 0.65342 0.0
H874 H 0.51655 0.75496 0.63842 0.0
H875 H 0.44978 0.79702 0.63039 0.0
H876 H 0.45171 0.74004 0.70097 0.0
H877 H 0.44047 0.69414 0.7202 0.0
H878 H 0.33731 0.66089 0.69352 0.0
H879 H 0.34794 0.7064 0.67371 0.0
C880 C 0.39333 0.86054 0.69992 0.0
C881 C 0.35934 0.84859 0.69752 0.0
C882 C 0.40638 0.84384 0.69095 0.0
C883 C 0.38578 0.81481 0.67935 0.0
C884 C 0.35185 0.8028 0.67696 0.0
C885 C 0.33876 0.81954 0.6858 0.0
C886 C 0.39968 0.79696 0.6699 0.0
C887 C 0.39301 0.77034 0.68004 0.0
C888 C 0.42046 0.80663 0.65178 0.0
C889 C 0.42729 0.8338 0.6394 0.0
C890 C 0.40152 0.83769 0.6259 0.0
C891 C 0.40813 0.86344 0.61444 0.0
C892 C 0.44043 0.88539 0.6162 0.0
C893 C 0.4662 0.88159 0.62936 0.0
C894 C 0.45972 0.85589 0.64087 0.0
C895 C 0.43759 0.69984 0.62845 0.0
C896 C 0.47149 0.71326 0.62923 0.0
C897 C 0.4234 0.716 0.63641 0.0
C898 C 0.44274 0.74591 0.64584 0.0
C899 C 0.47645 0.75945 0.64643 0.0
C900 C 0.4906 0.74342 0.63815 0.0
C901 C 0.42792 0.7632 0.65487 0.0
C902 C 0.43438 0.78975 0.64464 0.0
C903 C 0.40713 0.75353 0.67303 0.0
C904 C 0.40064 0.72654 0.68567 0.0
C905 C 0.42662 0.7229 0.69911 0.0
C906 C 0.42037 0.69694 0.7101 0.0
C907 C 0.3882 0.67459 0.70803 0.0
C908 C 0.36222 0.67821 0.69507 0.0
C909 C 0.36834 0.70409 0.68398 0.0
H910 H 0.38341 0.65449 0.7165 0.0
H911 H 0.4455 0.90531 0.60732 0.0
H912 H 0.71977 0.81615 0.79365 0.0
H913 H 0.7509 0.84484 0.76229 0.0
H914 H 0.7803 0.77984 0.74921 0.0
H915 H 0.74933 0.75113 0.78075 0.0
H916 H 0.83135 0.83324 0.7562 0.0
H917 H 0.72342 0.78649 0.70353 0.0
H918 H 0.66457 0.77108 0.69223 0.0
H919 H 0.68664 0.86125 0.6961 0.0
H920 H 0.74563 0.87721 0.70778 0.0
H921 H 0.8969 0.89074 0.64456 0.0
H922 H 0.86437 0.85905 0.67399 0.0
H923 H 0.83804 0.92434 0.69399 0.0
H924 H 0.86999 0.95586 0.66431 0.0
H925 H 0.785 0.86915 0.68224 0.0
H926 H 0.89319 0.91539 0.73608 0.0
H927 H 0.9519 0.93022 0.7469 0.0
H928 H 0.9288 0.83979 0.73994 0.0
H929 H 0.86992 0.82442 0.72871 0.0
C930 C 0.73242 0.80774 0.78376 0.0
C931 C 0.73207 0.78137 0.7896 0.0
C932 C 0.75024 0.82416 0.76587 0.0
C933 C 0.76771 0.81436 0.75322 0.0
C934 C 0.76705 0.78784 0.75878 0.0
C935 C 0.74938 0.77149 0.77678 0.0
C936 C 0.78766 0.83234 0.73498 0.0
C937 C 0.82108 0.84069 0.73977 0.0
C938 C 0.77442 0.84256 0.71386 0.0
C939 C 0.73895 0.83304 0.70676 0.0
C940 C 0.71572 0.80303 0.70217 0.0
C941 C 0.68233 0.7942 0.69566 0.0
C942 C 0.67187 0.81517 0.69351 0.0
C943 C 0.69478 0.84503 0.6978 0.0
C944 C 0.72819 0.85398 0.70434 0.0
C945 C 0.88421 0.89832 0.65528 0.0
C946 C 0.88607 0.92581 0.65221 0.0
C947 C 0.8658 0.88029 0.67216 0.0
C948 C 0.84893 0.88943 0.68623 0.0
C949 C 0.85091 0.91691 0.68331 0.0
C950 C 0.86942 0.935 0.66656 0.0
C951 C 0.82862 0.87012 0.7036 0.0
C952 C 0.79516 0.86155 0.69861 0.0
C953 C 0.84178 0.85958 0.72445 0.0
C954 C 0.87716 0.86877 0.73128 0.0
C955 C 0.90063 0.89867 0.73663 0.0
C956 C 0.93394 0.90717 0.74289 0.0
C957 C 0.94408 0.88596 0.74403 0.0
C958 C 0.92091 0.85619 0.739 0.0
C959 C 0.88757 0.84758 0.73271 0.0
H960 H 0.96988 0.89259 0.74888 0.0
H961 H 0.64601 0.80829 0.68846 0.0
H962 H 0.75009 0.21264 0.33938 0.0
H963 H 0.7234 0.19576 0.29372 0.0
H964 H 0.62926 0.16581 0.31382 0.0
H965 H 0.65556 0.18087 0.35964 0.0
H966 H 0.62606 0.12499 0.28382 0.0
H967 H 0.66633 0.22764 0.27945 0.0
H968 H 0.7073 0.28015 0.28571 0.0
H969 H 0.76192 0.26301 0.23722 0.0
H970 H 0.72149 0.21031 0.23094 0.0
H971 H 0.53783 0.09844 0.15108 0.0
H972 H 0.56334 0.11987 0.1961 0.0
H973 H 0.65589 0.13223 0.18303 0.0
H974 H 0.63071 0.11198 0.13726 0.0
H975 H 0.65832 0.18175 0.20936 0.0
H976 H 0.62837 0.07754 0.24533 0.0
H977 H 0.58763 0.02562 0.24545 0.0
H978 H 0.51059 0.04811 0.2336 0.0
H979 H 0.55112 0.10034 0.23511 0.0
C980 C 0.72369 0.20249 0.33414 0.0
C981 C 0.70507 0.19801 0.3534 0.0
C982 C 0.70844 0.19316 0.30788 0.0
C983 C 0.67422 0.17963 0.30013 0.0
C984 C 0.65568 0.17616 0.3192 0.0
C985 C 0.67086 0.18516 0.34548 0.0
C986 C 0.65757 0.16713 0.27256 0.0
C987 C 0.63286 0.13769 0.26763 0.0
C988 C 0.66666 0.18329 0.25121 0.0
C989 C 0.69102 0.21497 0.25492 0.0
C990 C 0.68721 0.23503 0.27028 0.0
C991 C 0.71031 0.26484 0.2738 0.0
C992 C 0.73724 0.2749 0.26192 0.0
C993 C 0.74107 0.25518 0.24644 0.0
C994 C 0.71805 0.22534 0.24287 0.0
C995 C 0.56362 0.10559 0.15777 0.0
C996 C 0.58224 0.10341 0.1406 0.0
C997 C 0.57806 0.1174 0.18372 0.0
C998 C 0.61125 0.12657 0.19335 0.0
C999 C 0.63008 0.12483 0.17616 0.0
C1000 C 0.61575 0.11344 0.14999 0.0
C1001 C 0.62674 0.13983 0.22083 0.0
C1002 C 0.65145 0.16931 0.22568 0.0
C1003 C 0.61727 0.12395 0.24221 0.0
C1004 C 0.59255 0.09257 0.2391 0.0
C1005 C 0.60268 0.07129 0.24242 0.0
C1006 C 0.5797 0.0419 0.24264 0.0
C1007 C 0.54649 0.03349 0.23913 0.0
C1008 C 0.53627 0.05457 0.23594 0.0
C1009 C 0.55925 0.08409 0.23637 0.0
H1010 H 0.52873 0.01068 0.23903 0.0
H1011 H 0.7551 0.29799 0.26467 0.0
H1012 H 0.50607 0.74584 0.3773 0.0
H1013 H 0.49407 0.71396 0.41179 0.0
H1014 H 0.39682 0.6577 0.36685 0.0
H1015 H 0.40914 0.68933 0.33169 0.0
H1016 H 0.45019 0.69639 0.44232 0.0
H1017 H 0.37731 0.58615 0.37919 0.0
H1018 H 0.36788 0.5645 0.33433 0.0
H1019 H 0.46459 0.62938 0.32821 0.0
H1020 H 0.47467 0.65115 0.3731 0.0
H1021 H 0.42224 0.54632 0.49581 0.0
H1022 H 0.40416 0.573 0.46472 0.0
H1023 H 0.50008 0.64893 0.48524 0.0
H1024 H 0.51814 0.62258 0.51585 0.0
H1025 H 0.42903 0.59468 0.42221 0.0
H1026 H 0.49685 0.71064 0.48146 0.0
H1027 H 0.50789 0.73289 0.52629 0.0
H1028 H 0.42405 0.65677 0.54135 0.0
H1029 H 0.41231 0.63414 0.49656 0.0
C1030 C 0.48211 0.72669 0.37474 0.0
C1031 C 0.45872 0.71981 0.35164 0.0
C1032 C 0.47515 0.70865 0.39458 0.0
C1033 C 0.44467 0.6833 0.3918 0.0
C1034 C 0.42063 0.67701 0.36927 0.0
C1035 C 0.42762 0.69515 0.3493 0.0
C1036 C 0.4395 0.66289 0.412 0.0
C1037 C 0.44545 0.6741 0.43797 0.0
C1038 C 0.43212 0.63347 0.40621 0.0
C1039 C 0.42652 0.62048 0.37931 0.0
C1040 C 0.39653 0.59574 0.36824 0.0
C1041 C 0.39109 0.58346 0.34283 0.0
C1042 C 0.41557 0.59564 0.32839 0.0
C1043 C 0.4456 0.62005 0.33937 0.0
C1044 C 0.45118 0.63238 0.36478 0.0
C1045 C 0.43924 0.56883 0.49384 0.0
C1046 C 0.47151 0.58246 0.50831 0.0
C1047 C 0.4289 0.58401 0.47616 0.0
C1048 C 0.4506 0.61311 0.473 0.0
C1049 C 0.48265 0.62677 0.4878 0.0
C1050 C 0.49299 0.61162 0.50523 0.0
C1051 C 0.44137 0.6287 0.45267 0.0
C1052 C 0.43268 0.6166 0.42663 0.0
C1053 C 0.44652 0.65741 0.45843 0.0
C1054 C 0.45372 0.67067 0.4856 0.0
C1055 C 0.48068 0.69868 0.49429 0.0
C1056 C 0.48711 0.71134 0.51973 0.0
C1057 C 0.46668 0.69628 0.53665 0.0
C1058 C 0.4399 0.66841 0.52824 0.0
C1059 C 0.4334 0.65561 0.50284 0.0
H1060 H 0.47157 0.7063 0.55624 0.0
H1061 H 0.4113 0.58611 0.30871 0.0
H1062 H 0.14735 0.4236 0.88472 0.0
H1063 H 0.12007 0.44058 0.91049 0.0
H1064 H 0.12578 0.50438 0.85746 0.0
H1065 H 0.15373 0.4875 0.83166 0.0
H1066 H 0.14689 0.52977 0.90662 0.0
H1067 H 0.05168 0.445 0.86154 0.0
H1068 H 0.01666 0.39296 0.844 0.0
H1069 H 0.02039 0.36794 0.92143 0.0
H1070 H 0.05585 0.41983 0.93944 0.0
H1071 H 0.05188 0.57218 0.97143 0.0
H1072 H 0.07083 0.55347 0.93897 0.0
H1073 H 0.07579 0.49049 0.98916 0.0
H1074 H 0.05688 0.50914 0.02184 0.0
H1075 H 0.04635 0.46543 0.93841 0.0
H1076 H 0.14464 0.55065 0.98273 0.0
H1077 H 0.17911 0.60293 0.99973 0.0
H1078 H 0.16826 0.62718 0.9224 0.0
H1079 H 0.13331 0.57502 0.90497 0.0
C1080 C 0.14219 0.44084 0.87821 0.0
C1081 C 0.15264 0.45413 0.85607 0.0
C1082 C 0.12648 0.45054 0.89297 0.0
C1083 C 0.12061 0.47376 0.886 0.0
C1084 C 0.12995 0.48642 0.86331 0.0
C1085 C 0.14561 0.47656 0.84839 0.0
C1086 C 0.10677 0.48583 0.90346 0.0
C1087 C 0.12452 0.51576 0.91312 0.0
C1088 C 0.07796 0.46759 0.91256 0.0
C1089 C 0.05667 0.43632 0.90183 0.0
C1090 C 0.04527 0.4284 0.87483 0.0
C1091 C 0.02529 0.39892 0.8648 0.0
C1092 C 0.01636 0.37715 0.88159 0.0
C1093 C 0.02735 0.38483 0.90845 0.0
C1094 C 0.04736 0.41428 0.91858 0.0
C1095 C 0.05708 0.55441 0.97568 0.0
C1096 C 0.05288 0.54227 0.9994 0.0
C1097 C 0.06802 0.54375 0.95705 0.0
C1098 C 0.07496 0.52062 0.96157 0.0
C1099 C 0.07061 0.50833 0.98514 0.0
C1100 C 0.05992 0.51914 1.00391 0.0
C1101 C 0.08666 0.50921 0.94171 0.0
C1102 C 0.06853 0.47943 0.93168 0.0
C1103 C 0.11501 0.5276 0.93216 0.0
C1104 C 0.13606 0.55895 0.94259 0.0
C1105 C 0.14937 0.56715 0.96938 0.0
C1106 C 0.16903 0.59675 0.97908 0.0
C1107 C 0.17579 0.61837 0.96216 0.0
C1108 C 0.16296 0.61041 0.93549 0.0
C1109 C 0.14324 0.58083 0.92568 0.0
H1110 H 0.19103 0.64128 0.96971 0.0
H1111 H 1.00088 0.35435 0.87378 0.0
H1112 H 0.57653 0.79757 0.83377 0.0
H1113 H 0.58004 0.83994 0.85798 0.0
H1114 H 0.64109 0.83084 0.92429 0.0
H1115 H 0.63768 0.78844 0.90015 0.0
H1116 H 0.59162 0.84176 0.93688 0.0
H1117 H 0.67691 0.88035 0.88788 0.0
H1118 H 0.69931 0.88635 0.84812 0.0
H1119 H 0.63753 0.92121 0.81398 0.0
H1120 H 0.61436 0.91497 0.85342 0.0
H1121 H 0.65528 0.98022 1.00832 0.0
H1122 H 0.65139 0.93788 0.98397 0.0
H1123 H 0.59939 0.95324 0.91533 0.0
H1124 H 0.60311 0.9956 0.93961 0.0
H1125 H 0.64346 0.93871 0.90355 0.0
H1126 H 0.55826 0.90087 0.95187 0.0
H1127 H 0.53432 0.89415 0.99089 0.0
H1128 H 0.5937 0.85716 0.02547 0.0
H1129 H 0.61838 0.86407 0.98679 0.0
C1130 C 0.59031 0.80437 0.85363 0.0
C1131 C 0.60691 0.78982 0.8651 0.0
C1132 C 0.59247 0.82864 0.86735 0.0
C1133 C 0.61105 0.83861 0.89281 0.0
C1134 C 0.6267 0.82349 0.90463 0.0
C1135 C 0.62486 0.79942 0.89082 0.0
C1136 C 0.61506 0.86539 0.9068 0.0
C1137 C 0.6033 0.86304 0.92981 0.0
C1138 C 0.6296 0.89294 0.89715 0.0
C1139 C 0.64365 0.8969 0.87349 0.0
C1140 C 0.66789 0.88905 0.8718 0.0
C1141 C 0.68076 0.89254 0.84934 0.0
C1142 C 0.66979 0.90408 0.8285 0.0
C1143 C 0.64597 0.91223 0.83012 0.0
C1144 C 0.63297 0.90874 0.85253 0.0
C1145 C 0.64309 0.97462 0.98802 0.0
C1146 C 0.62931 0.99113 0.97593 0.0
C1147 C 0.64086 0.95042 0.97414 0.0
C1148 C 0.6246 0.94212 0.94796 0.0
C1149 C 0.61198 0.95924 0.93554 0.0
C1150 C 0.61426 0.98351 0.9494 0.0
C1151 C 0.6201 0.91518 0.93375 0.0
C1152 C 0.63175 0.91746 0.91066 0.0
C1153 C 0.60525 0.88751 0.94326 0.0
C1154 C 0.59043 0.88328 0.96654 0.0
C1155 C 0.56643 0.89153 0.96789 0.0
C1156 C 0.55269 0.88765 0.98993 0.0
C1157 C 0.56255 0.87531 0.01067 0.0
C1158 C 0.58613 0.86676 0.0094 0.0
C1159 C 0.59999 0.87064 0.98741 0.0
H1160 H 0.55187 0.87231 0.02772 0.0
H1161 H 0.67979 0.90677 0.81113 0.0
H1162 H 0.80675 0.21983 0.4622 0.0
H1163 H 0.84413 0.20149 0.47855 0.0
H1164 H 0.80666 0.14021 0.40921 0.0
H1165 H 0.76661 0.1559 0.39416 0.0
H1166 H 0.81491 0.11331 0.44451 0.0
H1167 H 0.88626 0.20787 0.42398 0.0
H1168 H 0.9116 0.26156 0.424 0.0
H1169 H 0.94591 0.2733 0.50674 0.0
H1170 H 0.9204 0.21965 0.50726 0.0
H1171 H 0.9931 0.13393 0.49325 0.0
H1172 H 0.95712 0.1523 0.47189 0.0
H1173 H 0.88028 0.0924 0.50866 0.0
H1174 H 0.91533 0.07274 0.5284 0.0
H1175 H 0.93104 0.18009 0.48556 0.0
H1176 H 0.80588 0.07347 0.47665 0.0
H1177 H 0.78341 0.01987 0.4691 0.0
H1178 H 0.86158 0.03234 0.43139 0.0
H1179 H 0.88427 0.08599 0.43841 0.0
C1180 C 0.80593 0.20212 0.45049 0.0
C1181 C 0.78326 0.18956 0.42667 0.0
C1182 C 0.82799 0.19199 0.45972 0.0
C1183 C 0.82897 0.16974 0.44499 0.0
C1184 C 0.8067 0.15742 0.42108 0.0
C1185 C 0.784 0.16691 0.41221 0.0
C1186 C 0.85224 0.15853 0.45483 0.0
C1187 C 0.84033 0.12803 0.45336 0.0
C1188 C 0.88578 0.17743 0.46587 0.0
C1189 C 0.90116 0.20972 0.46568 0.0
C1190 C 0.89901 0.22189 0.4422 0.0
C1191 C 0.91344 0.25232 0.44211 0.0
C1192 C 0.93028 0.27083 0.46536 0.0
C1193 C 0.93282 0.25894 0.48875 0.0
C1194 C 0.91841 0.22852 0.48895 0.0
C1195 C 0.96836 0.12448 0.49646 0.0
C1196 C 0.95687 0.10159 0.51217 0.0
C1197 C 0.9478 0.13509 0.48435 0.0
C1198 C 0.91552 0.12346 0.48812 0.0
C1199 C 0.90451 0.10116 0.50452 0.0
C1200 C 0.92469 0.08999 0.51598 0.0
C1201 C 0.89358 0.13493 0.47541 0.0
C1202 C 0.90569 0.16542 0.47648 0.0
C1203 C 0.86061 0.11604 0.46283 0.0
C1204 C 0.84692 0.08377 0.45828 0.0
C1205 C 0.81819 0.06477 0.46665 0.0
C1206 C 0.80543 0.03438 0.46248 0.0
C1207 C 0.82111 0.02271 0.44984 0.0
C1208 C 0.84952 0.04141 0.44126 0.0
C1209 C 0.86235 0.07181 0.44535 0.0
H1210 H 0.81121 0.99918 0.44666 0.0
H1211 H 0.94144 0.29438 0.46526 0.0
H1212 H 0.36297 0.75738 0.20017 0.0
H1213 H 0.30854 0.72581 0.17402 0.0
H1214 H 0.27446 0.68974 0.24287 0.0
H1215 H 0.32961 0.72154 0.26934 0.0
H1216 H 0.24833 0.64746 0.20104 0.0
H1217 H 0.25806 0.74045 0.21953 0.0
H1218 H 0.28226 0.79427 0.22382 0.0
H1219 H 0.2758 0.79343 0.14129 0.0
H1220 H 0.25253 0.73968 0.13656 0.0
H1221 H 0.08287 0.59475 0.12639 0.0
H1222 H 0.13332 0.61634 0.1599 0.0
H1223 H 0.18888 0.65969 0.10222 0.0
H1224 H 0.13864 0.63839 0.06877 0.0
H1225 H 0.19934 0.69747 0.14446 0.0
H1226 H 0.19927 0.60334 0.13041 0.0
H1227 H 0.17409 0.54946 0.12865 0.0
H1228 H 0.15641 0.55348 0.20561 0.0
H1229 H 0.1823 0.60749 0.20806 0.0
C1230 C 0.3439 0.74271 0.20975 0.0
C1231 C 0.35023 0.74227 0.23681 0.0
C1232 C 0.31284 0.72466 0.1948 0.0
C1233 C 0.28729 0.70594 0.20659 0.0
C1234 C 0.29384 0.70424 0.23346 0.0
C1235 C 0.32521 0.72233 0.24852 0.0
C1236 C 0.25376 0.68917 0.1906 0.0
C1237 C 0.23737 0.65843 0.18899 0.0
C1238 C 0.23934 0.70347 0.17497 0.0
C1239 C 0.25375 0.73595 0.17772 0.0
C1240 C 0.26215 0.75174 0.20231 0.0
C1241 C 0.27571 0.78226 0.20483 0.0
C1242 C 0.28062 0.79727 0.18285 0.0
C1243 C 0.272 0.78178 0.15831 0.0
C1244 C 0.2587 0.75128 0.1557 0.0
C1245 C 0.10594 0.60855 0.12084 0.0
C1246 C 0.10688 0.61525 0.09508 0.0
C1247 C 0.13472 0.62073 0.13996 0.0
C1248 C 0.16481 0.63965 0.13353 0.0
C1249 C 0.16587 0.64522 0.10757 0.0
C1250 C 0.13718 0.63303 0.08849 0.0
C1251 C 0.19481 0.65585 0.15398 0.0
C1252 C 0.21031 0.68659 0.15663 0.0
C1253 C 0.20798 0.6416 0.17086 0.0
C1254 C 0.19235 0.60928 0.1693 0.0
C1255 C 0.18976 0.59266 0.14685 0.0
C1256 C 0.17534 0.56213 0.14572 0.0
C1257 C 0.16315 0.54804 0.16684 0.0
C1258 C 0.16565 0.56444 0.18922 0.0
C1259 C 0.1804 0.595 0.19056 0.0
H1260 H 0.15231 0.5245 0.16612 0.0
H1261 H 0.29105 0.8209 0.18484 0.0
H1262 H 0.20564 0.43992 0.68728 0.0
H1263 H 0.24924 0.46323 0.66305 0.0
H1264 H 0.32045 0.50018 0.73498 0.0
H1265 H 0.27703 0.47598 0.75952 0.0
H1266 H 0.3297 0.53866 0.69115 0.0
H1267 H 0.31391 0.44292 0.71151 0.0
H1268 H 0.27949 0.38988 0.71293 0.0
H1269 H 0.24832 0.37714 0.6298 0.0
H1270 H 0.28209 0.43024 0.62795 0.0
H1271 H 0.47041 0.57135 0.6401 0.0
H1272 H 0.42823 0.55605 0.66594 0.0
H1273 H 0.35959 0.48895 0.60363 0.0
H1274 H 0.40295 0.50273 0.57883 0.0
H1275 H 0.34844 0.46677 0.64386 0.0
H1276 H 0.36459 0.56158 0.62188 0.0
H1277 H 0.39525 0.61493 0.6196 0.0
H1278 H 0.42208 0.63047 0.70294 0.0
H1279 H 0.39218 0.57726 0.70574 0.0
C1280 C 0.23052 0.45326 0.69803 0.0
C1281 C 0.23781 0.45565 0.7254 0.0
C1282 C 0.25539 0.46669 0.68411 0.0
C1283 C 0.2881 0.48315 0.6972 0.0
C1284 C 0.29533 0.48757 0.72451 0.0
C1285 C 0.27042 0.47382 0.73851 0.0
C1286 C 0.31473 0.49306 0.68235 0.0
C1287 C 0.33418 0.5231 0.68097 0.0
C1288 C 0.31988 0.47262 0.6686 0.0
C1289 C 0.30028 0.44059 0.66962 0.0
C1290 C 0.29953 0.42884 0.69355 0.0
C1291 C 0.28015 0.39876 0.69443 0.0
C1292 C 0.26166 0.38016 0.67148 0.0
C1293 C 0.26262 0.39158 0.64758 0.0
C1294 C 0.28189 0.42167 0.6466 0.0
C1295 C 0.44626 0.55331 0.63198 0.0
C1296 C 0.43981 0.53827 0.60745 0.0
C1297 C 0.42195 0.54475 0.64666 0.0
C1298 C 0.3901 0.52182 0.63662 0.0
C1299 C 0.38378 0.50676 0.61198 0.0
C1300 C 0.4085 0.51464 0.59771 0.0
C1301 C 0.36377 0.51278 0.65208 0.0
C1302 C 0.34422 0.48267 0.65374 0.0
C1303 C 0.35831 0.53329 0.66576 0.0
C1304 C 0.37637 0.56535 0.664 0.0
C1305 C 0.37723 0.57635 0.63971 0.0
C1306 C 0.39447 0.60658 0.63833 0.0
C1307 C 0.41065 0.62605 0.66111 0.0
C1308 C 0.40959 0.61536 0.68532 0.0
C1309 C 0.39251 0.58517 0.68681 0.0
H1310 H 0.424 0.64942 0.66008 0.0
H1311 H 0.24663 0.35688 0.6722 0.0
H1312 H 0.69323 0.68842 0.86957 0.0
H1313 H 0.72459 0.67216 0.90092 0.0
H1314 H 0.81066 0.75644 0.90603 0.0
H1315 H 0.77946 0.77286 0.87527 0.0
H1316 H 0.77641 0.66637 0.8947 0.0
H1317 H 0.85861 0.77419 0.96534 0.0
H1318 H 0.85361 0.81469 0.98514 0.0
H1319 H 0.75005 0.75888 0.97602 0.0
H1320 H 0.75446 0.7179 0.95652 0.0
H1321 H 0.92997 0.68251 0.94605 0.0
H1322 H 0.88555 0.69209 0.92745 0.0
H1323 H 0.85018 0.6758 0.99892 0.0
H1324 H 0.89529 0.66686 0.01803 0.0
H1325 H 0.84878 0.72369 0.97839 0.0
H1326 H 0.81367 0.62445 0.95027 0.0
H1327 H 0.81981 0.58399 0.93201 0.0
H1328 H 0.82425 0.61861 0.85838 0.0
H1329 H 0.81956 0.66005 0.8765 0.0
C1330 C 0.71869 0.70358 0.87778 0.0
C1331 C 0.734 0.73181 0.86988 0.0
C1332 C 0.73658 0.69425 0.89555 0.0
C1333 C 0.76988 0.71316 0.90594 0.0
C1334 C 0.78489 0.74161 0.89857 0.0
C1335 C 0.76713 0.75087 0.88078 0.0
C1336 C 0.78987 0.7028 0.92294 0.0
C1337 C 0.79196 0.67868 0.91314 0.0
C1338 C 0.80966 0.71854 0.94725 0.0
C1339 C 0.80687 0.743 0.95932 0.0
C1340 C 0.83479 0.77048 0.9677 0.0
C1341 C 0.83206 0.79355 0.97884 0.0
C1342 C 0.80153 0.78938 0.98179 0.0
C1343 C 0.77367 0.76211 0.97366 0.0
C1344 C 0.77627 0.73896 0.96252 0.0
C1345 C 0.91309 0.68141 0.958 0.0
C1346 C 0.91613 0.67391 0.98352 0.0
C1347 C 0.88754 0.68663 0.94725 0.0
C1348 C 0.86436 0.68424 0.9617 0.0
C1349 C 0.86775 0.67758 0.98743 0.0
C1350 C 0.89336 0.6723 0.99823 0.0
C1351 C 0.83633 0.6882 0.94949 0.0
C1352 C 0.83276 0.71106 0.9602 0.0
C1353 C 0.81486 0.67104 0.92618 0.0
C1354 C 0.81649 0.64555 0.91485 0.0
C1355 C 0.81622 0.62361 0.93024 0.0
C1356 C 0.81953 0.60053 0.91993 0.0
C1357 C 0.82242 0.59873 0.89405 0.0
C1358 C 0.82203 0.62005 0.87843 0.0
C1359 C 0.81914 0.6434 0.88875 0.0
H1360 H 0.82487 0.58077 0.88608 0.0
H1361 H 0.79946 0.80727 0.99039 0.0
H1362 H 0.4022 0.85049 0.25066 0.0
H1363 H 0.42031 0.89139 0.22425 0.0
H1364 H 0.50668 0.88455 0.22104 0.0
H1365 H 0.48848 0.84331 0.24679 0.0
H1366 H 0.51592 0.94381 0.22025 0.0
H1367 H 0.44432 0.84398 0.17754 0.0
H1368 H 0.39417 0.7961 0.17188 0.0
H1369 H 0.33554 0.83841 0.15421 0.0
H1370 H 0.38542 0.88661 0.16028 0.0
H1371 H 0.56098 0.98506 0.1041 0.0
H1372 H 0.53984 0.9528 0.13714 0.0
H1373 H 0.45171 0.96003 0.12107 0.0
H1374 H 0.47211 0.99106 0.08669 0.0
H1375 H 0.43981 0.90554 0.13405 0.0
H1376 H 0.51334 0.00543 0.16961 0.0
H1377 H 0.56461 0.05142 0.17116 0.0
H1378 H 0.62023 0.00915 0.20067 0.0
H1379 H 0.56921 0.96269 0.19898 0.0
C1380 C 0.42548 0.85821 0.2449 0.0
C1381 C 0.44356 0.84326 0.25035 0.0
C1382 C 0.43588 0.88169 0.23 0.0
C1383 C 0.46455 0.89061 0.22044 0.0
C1384 C 0.48451 0.87798 0.22832 0.0
C1385 C 0.47404 0.85438 0.24309 0.0
C1386 C 0.47048 0.9086 0.19852 0.0
C1387 C 0.49927 0.93558 0.20146 0.0
C1388 C 0.44852 0.8979 0.17407 0.0
C1389 C 0.41854 0.86888 0.16965 0.0
C1390 C 0.42071 0.84306 0.17262 0.0
C1391 C 0.39234 0.81587 0.16938 0.0
C1392 C 0.36165 0.81418 0.16285 0.0
C1393 C 0.3593 0.83971 0.1594 0.0
C1394 C 0.38761 0.86698 0.16274 0.0
C1395 C 0.53679 0.97921 0.10722 0.0
C1396 C 0.51838 0.99091 0.09335 0.0
C1397 C 0.5248 0.96092 0.12614 0.0
C1398 C 0.49474 0.95492 0.13213 0.0
C1399 C 0.47516 0.96476 0.11694 0.0
C1400 C 0.48685 0.98252 0.09744 0.0
C1401 C 0.48544 0.94056 0.15563 0.0
C1402 C 0.45606 0.91422 0.15299 0.0
C1403 C 0.50682 0.95193 0.18033 0.0
C1404 C 0.53744 0.98053 0.18406 0.0
C1405 C 0.53651 0.00595 0.17649 0.0
C1406 C 0.56552 0.03205 0.1772 0.0
C1407 C 0.59567 0.03314 0.18571 0.0
C1408 C 0.59685 0.00822 0.19392 0.0
C1409 C 0.56787 0.98201 0.1932 0.0
H1410 H 0.61811 0.0534 0.18625 0.0
H1411 H 0.33974 0.79309 0.16037 0.0
H1412 H 0.10453 0.34701 0.73284 0.0
H1413 H 0.07759 0.29708 0.7099 0.0
H1414 H 0.17202 0.30498 0.70859 0.0
H1415 H 0.19867 0.35468 0.73086 0.0
H1416 H 0.13545 0.28589 0.66222 0.0
H1417 H 0.12027 0.2597 0.74803 0.0
H1418 H 0.10203 0.25987 0.78916 0.0
H1419 H 1.00279 0.22387 0.74721 0.0
H1420 H 0.02051 0.22385 0.70578 0.0
H1421 H 0.08595 0.13904 0.61535 0.0
H1422 H 0.11035 0.18593 0.64282 0.0
H1423 H 0.01419 0.17534 0.64115 0.0
H1424 H 0.98976 0.12823 0.61425 0.0
H1425 H 0.05012 0.19565 0.68872 0.0
H1426 H 0.06572 0.22111 0.60285 0.0
H1427 H 0.08447 0.22116 0.56192 0.0
H1428 H 0.18371 0.25906 0.60431 0.0
H1429 H 0.16552 0.25874 0.64554 0.0
C1430 C 0.11939 0.33775 0.72805 0.0
C1431 C 0.15363 0.35471 0.73351 0.0
C1432 C 0.10404 0.30925 0.71493 0.0
C1433 C 0.12274 0.29714 0.70741 0.0
C1434 C 0.15697 0.31377 0.71391 0.0
C1435 C 0.1722 0.34216 0.72675 0.0
C1436 C 0.10708 0.26792 0.69155 0.0
C1437 C 0.11711 0.26611 0.66825 0.0
C1438 C 0.08247 0.24213 0.69891 0.0
C1439 C 0.07177 0.24207 0.72379 0.0
C1440 C 0.09459 0.25204 0.74756 0.0
C1441 C 0.08434 0.25207 0.77093 0.0
C1442 C 0.05128 0.24197 0.77079 0.0
C1443 C 0.02839 0.23174 0.74729 0.0
C1444 C 0.03852 0.23169 0.72386 0.0
C1445 C 0.07006 0.1467 0.62094 0.0
C1446 C 0.03595 0.12998 0.61262 0.0
C1447 C 0.08401 0.17358 0.63655 0.0
C1448 C 0.06417 0.18447 0.64387 0.0
C1449 C 0.03007 0.16751 0.63584 0.0
C1450 C 0.01613 0.1406 0.62037 0.0
C1451 C 0.07884 0.21363 0.6596 0.0
C1452 C 0.06852 0.21545 0.68275 0.0
C1453 C 0.10326 0.23948 0.65215 0.0
C1454 C 0.1142 0.23965 0.62732 0.0
C1455 C 0.09151 0.22922 0.60347 0.0
C1456 C 0.10204 0.22932 0.58021 0.0
C1457 C 0.13525 0.24008 0.58053 0.0
C1458 C 0.15799 0.25071 0.6041 0.0
C1459 C 0.14759 0.25058 0.62742 0.0
H1460 H 0.14341 0.24029 0.56251 0.0
H1461 H 0.04339 0.242 0.78891 0.0
H1462 H 0.65513 0.27079 0.42388 0.0
H1463 H 0.63795 0.30833 0.42637 0.0
H1464 H 0.68044 0.3289 0.50849 0.0
H1465 H 0.6983 0.29231 0.50592 0.0
H1466 H 0.59559 0.30927 0.45186 0.0
H1467 H 0.7034 0.39785 0.53022 0.0
H1468 H 0.76345 0.42027 0.54217 0.0
H1469 H 0.76625 0.3976 0.46409 0.0
H1470 H 0.70627 0.37541 0.45155 0.0
H1471 H 0.54192 0.38553 0.52413 0.0
H1472 H 0.5674 0.3584 0.50968 0.0
H1473 H 0.62961 0.43301 0.47416 0.0
H1474 H 0.60406 0.46044 0.48862 0.0
H1475 H 0.66408 0.40964 0.49858 0.0
H1476 H 0.56441 0.37268 0.43666 0.0
H1477 H 0.50499 0.35208 0.42093 0.0
H1478 H 0.48749 0.27502 0.45875 0.0
H1479 H 0.5468 0.29534 0.47504 0.0
C1480 C 0.66149 0.28388 0.44228 0.0
C1481 C 0.67791 0.27844 0.46472 0.0
C1482 C 0.65144 0.30516 0.44375 0.0
C1483 C 0.65796 0.32165 0.46761 0.0
C1484 C 0.67546 0.31693 0.48976 0.0
C1485 C 0.68544 0.29575 0.48831 0.0
C1486 C 0.64447 0.34211 0.4701 0.0
C1487 C 0.61066 0.33129 0.4619 0.0
C1488 C 0.66409 0.37116 0.48268 0.0
C1489 C 0.70026 0.38477 0.49 0.0
C1490 C 0.71682 0.39778 0.51555 0.0
C1491 C 0.75086 0.41042 0.52244 0.0
C1492 C 0.76864 0.4103 0.50392 0.0
C1493 C 0.75243 0.3976 0.47844 0.0
C1494 C 0.71841 0.38495 0.47145 0.0
C1495 C 0.56077 0.39615 0.51301 0.0
C1496 C 0.57064 0.42514 0.50733 0.0
C1497 C 0.57538 0.38056 0.50474 0.0
C1498 C 0.60009 0.39339 0.49039 0.0
C1499 C 0.61053 0.42254 0.48512 0.0
C1500 C 0.59595 0.43824 0.49347 0.0
C1501 C 0.61508 0.3763 0.48127 0.0
C1502 C 0.64912 0.38775 0.48826 0.0
C1503 C 0.59578 0.34806 0.46707 0.0
C1504 C 0.56007 0.33564 0.45721 0.0
C1505 C 0.54788 0.35143 0.44177 0.0
C1506 C 0.51422 0.33979 0.43273 0.0
C1507 C 0.49248 0.31228 0.43887 0.0
C1508 C 0.50436 0.29633 0.45402 0.0
C1509 C 0.53801 0.30788 0.46313 0.0
H1510 H 0.46642 0.30331 0.43186 0.0
H1511 H 0.79499 0.42008 0.50929 0.0
loop_
_geom_bond_atom_site_label_1
_geom_bond_atom_site_label_2
_geom_bond_distance
_geom_bond_site_symmetry_2
_ccdc_geom_bond_type
H0 C1 0.949 . S
C1 H0 0.949 . S
C1 C2 1.395 . S
C1 C3 1.391 . S
C2 C1 1.395 . S
C2 C5 1.390 . S
C3 C1 1.391 . S
C3 C7 1.387 . S
C3 C8 1.491 . S
H4 C5 0.950 . S
C5 C2 1.390 . S
C5 H4 0.950 . S
C5 C6 1.378 . S
C6 C5 1.378 . S
C6 C7 1.409 . S
C7 C3 1.387 . S
C7 C6 1.409 . S
C7 H9 0.951 . S
C8 C3 1.491 . S
C8 C10 1.382 . S
C8 C12 1.404 . S
H9 C7 0.951 . S
C10 C8 1.382 . S
C10 C11 1.390 . S
C10 H15 0.949 . S
C11 C10 1.390 . S
C11 C16 1.399 . S
C12 C8 1.404 . S
C12 H13 0.950 . S
C12 C14 1.375 . S
H13 C12 0.950 . S
C14 C12 1.375 . S
C14 C16 1.382 . S
C14 H18 0.950 . S
H15 C10 0.949 . S
C16 C11 1.399 . S
C16 C14 1.382 . S
C16 H17 0.952 . S
H17 C16 0.952 . S
H18 C14 0.950 . S
H19 C20 0.949 . S
C20 H19 0.949 . S
C20 C21 1.395 . S
C20 C22 1.391 . S
C21 C20 1.395 . S
C21 C24 1.390 . S
C22 C20 1.391 . S
C22 C26 1.387 . S
C22 C27 1.491 . S
H23 C24 0.950 . S
C24 C21 1.390 . S
C24 H23 0.950 . S
C24 C25 1.378 . S
C25 C24 1.378 . S
C25 C26 1.409 . S
C26 C22 1.387 . S
C26 C25 1.409 . S
C26 H28 0.951 . S
C27 C22 1.491 . S
C27 C29 1.382 . S
C27 C31 1.404 . S
H28 C26 0.951 . S
C29 C27 1.382 . S
C29 C30 1.390 . S
C29 H34 0.949 . S
C30 C29 1.390 . S
C30 C35 1.399 . S
C31 C27 1.404 . S
C31 H32 0.950 . S
C31 C33 1.375 . S
H32 C31 0.950 . S
C33 C31 1.375 . S
C33 C35 1.382 . S
C33 H37 0.950 . S
H34 C29 0.949 . S
C35 C30 1.399 . S
C35 C33 1.382 . S
C35 H36 0.952 . S
H36 C35 0.952 . S
H37 C33 0.950 . S
H38 C39 0.949 . S
C39 H38 0.949 . S
C39 C40 1.395 . S
C39 C41 1.391 . S
C40 C39 1.395 . S
C40 C43 1.390 . S
C41 C39 1.391 . S
C41 C45 1.387 . S
C41 C46 1.491 . S
H42 C43 0.950 . S
C43 C40 1.390 . S
C43 H42 0.950 . S
C43 C44 1.378 . S
C44 C43 1.378 . S
C44 C45 1.409 . S
C45 C41 1.387 . S
C45 C44 1.409 . S
C45 H47 0.951 . S
C46 C41 1.491 . S
C46 C48 1.382 . S
C46 C50 1.404 . S
H47 C45 0.951 . S
C48 C46 1.382 . S
C48 C49 1.390 . S
C48 H53 0.949 . S
C49 C48 1.390 . S
C49 C54 1.399 . S
C50 C46 1.404 . S
C50 H51 0.950 . S
C50 C52 1.375 . S
H51 C50 0.950 . S
C52 C50 1.375 . S
C52 C54 1.382 . S
C52 H56 0.950 . S
H53 C48 0.949 . S
C54 C49 1.399 . S
C54 C52 1.382 . S
C54 H55 0.952 . S
H55 C54 0.952 . S
H56 C52 0.950 . S
H57 C58 0.949 . S
C58 H57 0.949 . S
C58 C59 1.395 . S
C58 C60 1.391 . S
C59 C58 1.395 . S
C59 C62 1.390 . S
C60 C58 1.391 . S
C60 C64 1.387 . S
C60 C65 1.491 . S
H61 C62 0.950 . S
C62 C59 1.390 . S
C62 H61 0.950 . S
C62 C63 1.378 . S
C63 C62 1.378 . S
C63 C64 1.409 . S
C64 C60 1.387 . S
C64 C63 1.409 . S
C64 H66 0.951 . S
C65 C60 1.491 . S
C65 C67 1.382 . S
C65 C69 1.404 . S
H66 C64 0.951 . S
C67 C65 1.382 . S
C67 C68 1.390 . S
C67 H72 0.949 . S
C68 C67 1.390 . S
C68 C73 1.399 . S
C69 C65 1.404 . S
C69 H70 0.950 . S
C69 C71 1.375 . S
H70 C69 0.950 . S
C71 C69 1.375 . S
C71 C73 1.382 . S
C71 H75 0.950 . S
H72 C67 0.949 . S
C73 C68 1.399 . S
C73 C71 1.382 . S
C73 H74 0.952 . S
H74 C73 0.952 . S
H75 C71 0.950 . S
H76 C77 0.949 . S
C77 H76 0.949 . S
C77 C78 1.395 . S
C77 C79 1.391 . S
C78 C77 1.395 . S
C78 C81 1.390 . S
C79 C77 1.391 . S
C79 C83 1.387 . S
C79 C84 1.491 . S
H80 C81 0.950 . S
C81 C78 1.390 . S
C81 H80 0.950 . S
C81 C82 1.378 . S
C82 C81 1.378 . S
C82 C83 1.409 . S
C83 C79 1.387 . S
C83 C82 1.409 . S
C83 H85 0.951 . S
C84 C79 1.491 . S
C84 C86 1.382 . S
C84 C88 1.404 . S
H85 C83 0.951 . S
C86 C84 1.382 . S
C86 C87 1.390 . S
C86 H91 0.949 . S
C87 C86 1.390 . S
C87 C92 1.399 . S
C88 C84 1.404 . S
C88 H89 0.950 . S
C88 C90 1.375 . S
H89 C88 0.950 . S
C90 C88 1.375 . S
C90 C92 1.382 . S
C90 H94 0.950 . S
H91 C86 0.949 . S
C92 C87 1.399 . S
C92 C90 1.382 . S
C92 H93 0.952 . S
H93 C92 0.952 . S
H94 C90 0.950 . S
H95 C96 0.949 . S
C96 H95 0.949 . S
C96 C97 1.395 . S
C96 C98 1.391 . S
C97 C96 1.395 . S
C97 C100 1.390 . S
C98 C96 1.391 . S
C98 C102 1.387 . S
C98 C103 1.491 . S
H99 C100 0.950 . S
C100 C97 1.390 . S
C100 H99 0.950 . S
C100 C101 1.378 . S
C101 C100 1.378 . S
C101 C102 1.409 . S
C102 C98 1.387 . S
C102 C101 1.409 . S
C102 H104 0.951 . S
C103 C98 1.491 . S
C103 C105 1.382 . S
C103 C107 1.404 . S
H104 C102 0.951 . S
C105 C103 1.382 . S
C105 C106 1.390 . S
C105 H110 0.949 . S
C106 C105 1.390 . S
C106 C111 1.399 . S
C107 C103 1.404 . S
C107 H108 0.950 . S
C107 C109 1.375 . S
H108 C107 0.950 . S
C109 C107 1.375 . S
C109 C111 1.382 . S
C109 H113 0.950 . S
H110 C105 0.949 . S
C111 C106 1.399 . S
C111 C109 1.382 . S
C111 H112 0.952 . S
H112 C111 0.952 . S
H113 C109 0.950 . S
H114 C115 0.949 . S
C115 H114 0.949 . S
C115 C116 1.395 . S
C115 C117 1.391 . S
C116 C115 1.395 . S
C116 C119 1.390 . S
C117 C115 1.391 . S
C117 C121 1.387 . S
C117 C122 1.491 . S
H118 C119 0.950 . S
C119 C116 1.390 . S
C119 H118 0.950 . S
C119 C120 1.378 . S
C120 C119 1.378 . S
C120 C121 1.409 . S
C121 C117 1.387 . S
C121 C120 1.409 . S
C121 H123 0.951 . S
C122 C117 1.491 . S
C122 C124 1.382 . S
C122 C126 1.404 . S
H123 C121 0.951 . S
C124 C122 1.382 . S
C124 C125 1.390 . S
C124 H129 0.949 . S
C125 C124 1.390 . S
C125 C130 1.399 . S
C126 C122 1.404 . S
C126 H127 0.950 . S
C126 C128 1.375 . S
H127 C126 0.950 . S
C128 C126 1.375 . S
C128 C130 1.382 . S
C128 H132 0.950 . S
H129 C124 0.949 . S
C130 C125 1.399 . S
C130 C128 1.382 . S
C130 H131 0.952 . S
H131 C130 0.952 . S
H132 C128 0.950 . S
H133 C134 0.949 . S
C134 H133 0.949 . S
C134 C135 1.395 . S
C134 C136 1.391 . S
C135 C134 1.395 . S
C135 C138 1.390 . S
C136 C134 1.391 . S
C136 C140 1.387 . S
C136 C141 1.491 . S
H137 C138 0.950 . S
C138 C135 1.390 . S
C138 H137 0.950 . S
C138 C139 1.378 . S
C139 C138 1.378 . S
C139 C140 1.409 . S
C140 C136 1.387 . S
C140 C139 1.409 . S
C140 H142 0.951 . S
C141 C136 1.491 . S
C141 C143 1.382 . S
C141 C145 1.404 . S
H142 C140 0.951 . S
C143 C141 1.382 . S
C143 C144 1.390 . S
C143 H148 0.949 . S
C144 C143 1.390 . S
C144 C149 1.399 . S
C145 C141 1.404 . S
C145 H146 0.950 . S
C145 C147 1.375 . S
H146 C145 0.950 . S
C147 C145 1.375 . S
C147 C149 1.382 . S
C147 H151 0.950 . S
H148 C143 0.949 . S
C149 C144 1.399 . S
C149 C147 1.382 . S
C149 H150 0.952 . S
H150 C149 0.952 . S
H151 C147 0.950 . S
Pr152 C154 2.880 1_545 S
Pr152 O172 2.562 1_545 S
Pr152 O173 2.490 . S
Pr152 O174 2.695 1_655 S
Pr152 O175 2.512 1_655 S
Pr152 O177 2.437 1_655 S
Pr152 O180 2.436 . S
Pr152 O182 2.438 . S
Pr153 C163 2.880 . S
Pr153 O174 2.436 . S
Pr153 O176 2.438 . S
Pr153 O178 2.562 . S
Pr153 O179 2.490 . S
Pr153 O180 2.695 1_455 S
Pr153 O181 2.512 . S
Pr153 O183 2.437 1_455 S
C154 Pr152 2.880 1_565 S
C154 C155 1.491 . S
C154 O172 1.254 . S
C154 O173 1.225 1_565 S
C155 C154 1.491 . S
C155 C156 1.392 . S
C155 C160 1.356 . S
C156 C155 1.392 . S
C156 C157 1.368 . S
C156 H184 0.929 . S
C157 C156 1.368 . S
C157 C158 1.386 . S
C157 H185 0.929 . S
C158 C157 1.386 . S
C158 C159 1.373 . S
C159 C158 1.373 . S
C159 C160 1.409 . S
C159 H186 0.931 . S
C160 C155 1.356 . S
C160 C159 1.409 . S
C160 H187 0.930 . S
C161 O174 1.270 . S
C161 O175 1.248 . S
C162 O176 1.267 . S
C162 O177 1.278 . S
C163 Pr153 2.880 . S
C163 C164 1.491 . S
C163 O178 1.254 . S
C163 O179 1.225 . S
C164 C163 1.491 . S
C164 C165 1.392 . S
C164 C169 1.356 . S
C165 C164 1.392 . S
C165 C166 1.368 . S
C165 H188 0.929 . S
C166 C165 1.368 . S
C166 C167 1.386 . S
C166 H189 0.929 . S
C167 C166 1.386 . S
C167 C168 1.373 . S
C168 C167 1.373 . S
C168 C169 1.409 . S
C168 H190 0.931 . S
C169 C164 1.356 . S
C169 C168 1.409 . S
C169 H191 0.930 . S
C170 O180 1.270 1_565 S
C170 O181 1.248 1_665 S
C171 O182 1.267 . S
C171 O183 1.277 . S
O172 Pr152 2.562 1_565 S
O172 C154 1.254 . S
O173 Pr152 2.490 . S
O173 C154 1.225 1_545 S
O174 Pr152 2.695 1_455 S
O174 Pr153 2.436 . S
O174 C161 1.270 . S
O175 Pr152 2.512 1_455 S
O175 C161 1.248 . S
O176 Pr153 2.438 . S
O176 C162 1.267 . S
O177 Pr152 2.437 1_455 S
O177 C162 1.278 . S
O178 Pr153 2.562 . S
O178 C163 1.254 . S
O179 Pr153 2.490 . S
O179 C163 1.225 . S
O180 Pr152 2.436 . S
O180 Pr153 2.695 1_655 S
O180 C170 1.270 1_545 S
O181 Pr153 2.512 . S
O181 C170 1.248 1_445 S
O182 Pr152 2.438 . S
O182 C171 1.267 . S
O183 Pr153 2.437 1_655 S
O183 C171 1.277 . S
H184 C156 0.929 . S
H185 C157 0.929 . S
H186 C159 0.931 . S
H187 C160 0.930 . S
H188 C165 0.929 . S
H189 C166 0.929 . S
H190 C168 0.931 . S
H191 C169 0.930 . S
Pr192 C194 2.880 . S
Pr192 O212 2.562 . S
Pr192 O213 2.490 . S
Pr192 O214 2.695 . S
Pr192 O215 2.512 . S
Pr192 O217 2.437 . S
Pr192 O220 2.436 . S
Pr192 O222 2.438 . S
Pr193 C203 2.880 1_545 S
Pr193 O214 2.436 . S
Pr193 O216 2.438 . S
Pr193 O218 2.562 . S
Pr193 O219 2.490 1_545 S
Pr193 O220 2.695 . S
Pr193 O221 2.512 1_545 S
Pr193 O223 2.437 1_545 S
C194 Pr192 2.880 . S
C194 C195 1.491 . S
C194 O212 1.254 . S
C194 O213 1.225 . S
C195 C194 1.491 . S
C195 C196 1.392 . S
C195 C200 1.356 . S
C196 C195 1.392 . S
C196 C197 1.368 . S
C196 H224 0.929 . S
C197 C196 1.368 . S
C197 C198 1.386 . S
C197 H225 0.929 . S
C198 C197 1.386 . S
C198 C199 1.373 . S
C199 C198 1.373 . S
C199 C200 1.409 . S
C199 H226 0.931 . S
C200 C195 1.356 . S
C200 C199 1.409 . S
C200 H227 0.930 . S
C201 O214 1.270 . S
C201 O215 1.248 . S
C202 O216 1.267 . S
C202 O217 1.278 . S
C203 Pr193 2.880 1_565 S
C203 C204 1.491 . S
C203 O218 1.254 1_565 S
C203 O219 1.225 . S
C204 C203 1.491 . S
C204 C205 1.392 . S
C204 C209 1.356 . S
C205 C204 1.392 . S
C205 C206 1.368 . S
C205 H228 0.929 . S
C206 C205 1.368 . S
C206 C207 1.386 1_554 S
C206 H229 0.929 . S
C207 C206 1.386 1_556 S
C207 C208 1.373 . S
C208 C207 1.373 . S
C208 C209 1.409 1_556 S
C208 H230 0.931 . S
C209 C204 1.356 . S
C209 C208 1.409 1_554 S
C209 H231 0.930 1_554 S
C210 O220 1.270 1_565 S
C210 O221 1.248 . S
C211 O222 1.267 1_565 S
C211 O223 1.278 . S
O212 Pr192 2.562 . S
O212 C194 1.254 . S
O213 Pr192 2.490 . S
O213 C194 1.225 . S
O214 Pr192 2.695 . S
O214 Pr193 2.436 . S
O214 C201 1.270 . S
O215 Pr192 2.512 . S
O215 C201 1.248 . S
O216 Pr193 2.438 . S
O216 C202 1.267 . S
O217 Pr192 2.437 . S
O217 C202 1.278 . S
O218 Pr193 2.562 . S
O218 C203 1.254 1_545 S
O219 Pr193 2.490 1_565 S
O219 C203 1.225 . S
O220 Pr192 2.436 . S
O220 Pr193 2.695 . S
O220 C210 1.270 1_545 S
O221 Pr193 2.512 1_565 S
O221 C210 1.248 . S
O222 Pr192 2.438 . S
O222 C211 1.267 1_545 S
O223 Pr193 2.437 1_565 S
O223 C211 1.278 . S
H224 C196 0.929 . S
H225 C197 0.929 . S
H226 C199 0.931 . S
H227 C200 0.930 . S
H228 C205 0.929 . S
H229 C206 0.929 . S
H230 C208 0.931 . S
H231 C209 0.930 1_556 S
Pr232 C234 2.880 . S
Pr232 O252 2.562 . S
Pr232 O253 2.490 . S
Pr232 O254 2.695 . S
Pr232 O255 2.512 . S
Pr232 O257 2.437 . S
Pr232 O260 2.436 . S
Pr232 O262 2.438 . S
Pr233 C243 2.880 . S
Pr233 O254 2.436 . S
Pr233 O256 2.438 . S
Pr233 O258 2.562 . S
Pr233 O259 2.490 . S
Pr233 O260 2.695 . S
Pr233 O261 2.512 . S
Pr233 O263 2.437 . S
C234 Pr232 2.880 . S
C234 C235 1.491 . S
C234 O252 1.254 . S
C234 O253 1.225 . S
C235 C234 1.491 . S
C235 C236 1.392 . S
C235 C240 1.356 . S
C236 C235 1.392 . S
C236 C237 1.368 . S
C236 H264 0.929 . S
C237 C236 1.368 . S
C237 C238 1.386 . S
C237 H265 0.929 . S
C238 C237 1.386 . S
C238 C239 1.373 . S
C239 C238 1.373 . S
C239 C240 1.409 . S
C239 H266 0.931 . S
C240 C235 1.356 . S
C240 C239 1.409 . S
C240 H267 0.930 . S
C241 O254 1.270 . S
C241 O255 1.248 . S
C242 O256 1.267 . S
C242 O257 1.278 . S
C243 Pr233 2.880 . S
C243 C244 1.491 . S
C243 O258 1.254 . S
C243 O259 1.225 . S
C244 C243 1.491 . S
C244 C245 1.392 . S
C244 C249 1.356 . S
C245 C244 1.392 . S
C245 C246 1.368 . S
C245 H268 0.929 . S
C246 C245 1.368 . S
C246 C247 1.386 . S
C246 H269 0.929 . S
C247 C246 1.386 . S
C247 C248 1.373 . S
C248 C247 1.373 . S
C248 C249 1.409 . S
C248 H270 0.931 . S
C249 C244 1.356 . S
C249 C248 1.409 . S
C249 H271 0.930 . S
C250 O260 1.270 . S
C250 O261 1.248 . S
C251 O262 1.267 . S
C251 O263 1.278 . S
O252 Pr232 2.562 . S
O252 C234 1.254 . S
O253 Pr232 2.490 . S
O253 C234 1.225 . S
O254 Pr232 2.695 . S
O254 Pr233 2.436 . S
O254 C241 1.270 . S
O255 Pr232 2.512 . S
O255 C241 1.248 . S
O256 Pr233 2.438 . S
O256 C242 1.267 . S
O257 Pr232 2.437 . S
O257 C242 1.278 . S
O258 Pr233 2.562 . S
O258 C243 1.254 . S
O259 Pr233 2.490 . S
O259 C243 1.225 . S
O260 Pr232 2.436 . S
O260 Pr233 2.695 . S
O260 C250 1.270 . S
O261 Pr233 2.512 . S
O261 C250 1.248 . S
O262 Pr232 2.438 . S
O262 C251 1.267 . S
O263 Pr233 2.437 . S
O263 C251 1.278 . S
H264 C236 0.929 . S
H265 C237 0.929 . S
H266 C239 0.931 . S
H267 C240 0.930 . S
H268 C245 0.929 . S
H269 C246 0.929 . S
H270 C248 0.931 . S
H271 C249 0.930 . S
Pr272 C274 2.880 . S
Pr272 O292 2.562 1_455 S
Pr272 O293 2.490 . S
Pr272 O294 2.695 1_556 S
Pr272 O295 2.512 1_556 S
Pr272 O297 2.437 1_556 S
Pr272 O300 2.436 . S
Pr272 O302 2.438 . S
Pr273 C283 2.880 . S
Pr273 O294 2.436 . S
Pr273 O296 2.438 . S
Pr273 O298 2.562 . S
Pr273 O299 2.490 . S
Pr273 O300 2.695 1_554 S
Pr273 O301 2.512 1_455 S
Pr273 O303 2.437 1_554 S
C274 Pr272 2.880 . S
C274 C275 1.491 1_455 S
C274 O292 1.254 1_455 S
C274 O293 1.225 . S
C275 C274 1.491 1_655 S
C275 C276 1.392 1_655 S
C275 C280 1.356 . S
C276 C275 1.392 1_455 S
C276 C277 1.368 1_455 S
C276 H304 0.929 . S
C277 C276 1.368 1_655 S
C277 C278 1.386 . S
C277 H305 0.929 1_655 S
C278 C277 1.386 . S
C278 C279 1.373 . S
C279 C278 1.373 . S
C279 C280 1.409 . S
C279 H306 0.931 . S
C280 C275 1.356 . S
C280 C279 1.409 . S
C280 H307 0.930 . S
C281 O294 1.270 . S
C281 O295 1.248 . S
C282 O296 1.268 1_655 S
C282 O297 1.279 1_655 S
C283 Pr273 2.880 . S
C283 C284 1.491 . S
C283 O298 1.254 . S
C283 O299 1.225 . S
C284 C283 1.491 . S
C284 C285 1.392 . S
C284 C289 1.356 . S
C285 C284 1.392 . S
C285 C286 1.368 . S
C285 H308 0.929 . S
C286 C285 1.368 . S
C286 C287 1.386 . S
C286 H309 0.929 . S
C287 C286 1.386 . S
C287 C288 1.373 . S
C288 C287 1.373 . S
C288 C289 1.409 . S
C288 H310 0.931 . S
C289 C284 1.356 . S
C289 C288 1.409 . S
C289 H311 0.930 . S
C290 O300 1.270 1_655 S
C290 O301 1.248 1_556 S
C291 O302 1.267 . S
C291 O303 1.278 . S
O292 Pr272 2.562 1_655 S
O292 C274 1.254 1_655 S
O293 Pr272 2.490 . S
O293 C274 1.225 . S
O294 Pr272 2.695 1_554 S
O294 Pr273 2.436 . S
O294 C281 1.270 . S
O295 Pr272 2.512 1_554 S
O295 C281 1.248 . S
O296 Pr273 2.438 . S
O296 C282 1.268 1_455 S
O297 Pr272 2.437 1_554 S
O297 C282 1.279 1_455 S
O298 Pr273 2.562 . S
O298 C283 1.254 . S
O299 Pr273 2.490 . S
O299 C283 1.225 . S
O300 Pr272 2.436 . S
O300 Pr273 2.695 1_556 S
O300 C290 1.270 1_455 S
O301 Pr273 2.512 1_655 S
O301 C290 1.248 1_554 S
O302 Pr272 2.438 . S
O302 C291 1.267 . S
O303 Pr273 2.437 1_556 S
O303 C291 1.278 . S
H304 C276 0.929 . S
H305 C277 0.929 1_455 S
H306 C279 0.931 . S
H307 C280 0.930 . S
H308 C285 0.929 . S
H309 C286 0.929 . S
H310 C288 0.931 . S
H311 C289 0.930 . S
H312 C330 0.951 . S
H313 C332 0.951 . S
H314 C334 0.950 . S
H315 C335 0.950 . S
H316 C337 0.950 . S
H317 C340 0.950 . S
H318 C341 0.950 . S
H319 C343 0.950 . S
H320 C344 0.950 . S
H321 C345 0.951 . S
H322 C347 0.951 . S
H323 C349 0.950 . S
H324 C350 0.950 . S
H325 C352 0.950 . S
H326 C355 0.950 . S
H327 C356 0.950 . S
H328 C358 0.950 . S
H329 C359 0.950 . S
C330 H312 0.951 . S
C330 C331 1.366 . S
C330 C332 1.388 . S
C331 C330 1.366 . S
C331 C335 1.385 . S
C332 H313 0.951 . S
C332 C330 1.388 . S
C332 C333 1.366 . S
C333 C332 1.366 . S
C333 C334 1.414 . S
C333 C336 1.499 . S
C334 H314 0.950 . S
C334 C333 1.414 . S
C334 C335 1.374 . S
C335 H315 0.950 . S
C335 C331 1.385 . S
C335 C334 1.374 . S
C336 C333 1.499 . S
C336 C337 1.373 . S
C336 C338 1.389 . S
C337 H316 0.950 . S
C337 C336 1.373 . S
C337 C353 1.377 . S
C338 C336 1.389 . S
C338 C339 1.524 . S
C338 C352 1.377 . S
C339 C338 1.524 . S
C339 C340 1.397 . S
C339 C344 1.363 . S
C340 H317 0.950 . S
C340 C339 1.397 . S
C340 C341 1.334 . S
C341 H318 0.950 . S
C341 C340 1.334 . S
C341 C342 1.287 . S
C342 C341 1.287 . S
C342 C343 1.524 . S
C342 H361 0.913 . S
C343 H319 0.950 . S
C343 C342 1.524 . S
C343 C344 1.415 . S
C344 H320 0.950 . S
C344 C339 1.363 . S
C344 C343 1.415 . S
C345 H321 0.951 . S
C345 C346 1.366 . S
C345 C347 1.388 . S
C346 C345 1.366 . S
C346 C350 1.385 . S
C347 H322 0.951 . S
C347 C345 1.388 . S
C347 C348 1.366 . S
C348 C347 1.366 . S
C348 C349 1.414 . S
C348 C351 1.499 . S
C349 H323 0.950 . S
C349 C348 1.414 . S
C349 C350 1.374 . S
C350 H324 0.950 . S
C350 C346 1.385 . S
C350 C349 1.374 . S
C351 C348 1.499 . S
C351 C352 1.373 . S
C351 C353 1.389 . S
C352 H325 0.950 . S
C352 C338 1.377 . S
C352 C351 1.373 . S
C353 C337 1.377 . S
C353 C351 1.389 . S
C353 C354 1.524 . S
C354 C353 1.524 . S
C354 C355 1.397 . S
C354 C359 1.363 . S
C355 H326 0.950 . S
C355 C354 1.397 . S
C355 C356 1.334 . S
C356 H327 0.950 . S
C356 C355 1.334 . S
C356 C357 1.287 . S
C357 C356 1.287 . S
C357 C358 1.524 . S
C357 H360 0.999 . S
C358 H328 0.950 . S
C358 C357 1.524 . S
C358 C359 1.415 . S
C359 H329 0.950 . S
C359 C354 1.363 . S
C359 C358 1.415 . S
H360 C357 0.999 . S
H361 C342 0.913 . S
H362 C380 0.951 . S
H363 C382 0.951 . S
H364 C384 0.950 . S
H365 C385 0.950 . S
H366 C387 0.950 . S
H367 C390 0.950 . S
H368 C391 0.950 . S
H369 C393 0.950 . S
H370 C394 0.950 . S
H371 C395 0.951 1_554 S
H372 C397 0.951 . S
H373 C399 0.950 . S
H374 C400 0.950 . S
H375 C402 0.950 . S
H376 C405 0.950 . S
H377 C406 0.950 1_554 S
H378 C408 0.950 . S
H379 C409 0.950 . S
C380 H362 0.951 . S
C380 C381 1.366 . S
C380 C382 1.388 . S
C381 C380 1.366 . S
C381 C385 1.385 . S
C382 H363 0.951 . S
C382 C380 1.388 . S
C382 C383 1.366 . S
C383 C382 1.366 . S
C383 C384 1.414 . S
C383 C386 1.499 . S
C384 H364 0.950 . S
C384 C383 1.414 . S
C384 C385 1.374 . S
C385 H365 0.950 . S
C385 C381 1.385 . S
C385 C384 1.374 . S
C386 C383 1.499 . S
C386 C387 1.373 . S
C386 C388 1.389 . S
C387 H366 0.950 . S
C387 C386 1.373 . S
C387 C403 1.377 . S
C388 C386 1.389 . S
C388 C389 1.524 . S
C388 C402 1.377 . S
C389 C388 1.524 . S
C389 C390 1.397 . S
C389 C394 1.363 . S
C390 H367 0.950 . S
C390 C389 1.397 . S
C390 C391 1.334 . S
C391 H368 0.950 . S
C391 C390 1.334 . S
C391 C392 1.287 . S
C392 C391 1.287 . S
C392 C393 1.524 . S
C392 H411 0.913 . S
C393 H369 0.950 . S
C393 C392 1.524 . S
C393 C394 1.415 . S
C394 H370 0.950 . S
C394 C389 1.363 . S
C394 C393 1.415 . S
C395 H371 0.951 1_556 S
C395 C396 1.366 1_556 S
C395 C397 1.388 . S
C396 C395 1.366 1_554 S
C396 C400 1.385 1_554 S
C397 H372 0.951 . S
C397 C395 1.388 . S
C397 C398 1.366 . S
C398 C397 1.366 . S
C398 C399 1.414 . S
C398 C401 1.499 . S
C399 H373 0.950 . S
C399 C398 1.414 . S
C399 C400 1.374 . S
C400 H374 0.950 . S
C400 C396 1.385 1_556 S
C400 C399 1.374 . S
C401 C398 1.499 . S
C401 C402 1.373 . S
C401 C403 1.389 . S
C402 H375 0.950 . S
C402 C388 1.377 . S
C402 C401 1.373 . S
C403 C387 1.377 . S
C403 C401 1.389 . S
C403 C404 1.524 . S
C404 C403 1.524 . S
C404 C405 1.397 . S
C404 C409 1.363 . S
C405 H376 0.950 . S
C405 C404 1.397 . S
C405 C406 1.334 . S
C406 H377 0.950 1_556 S
C406 C405 1.334 . S
C406 C407 1.287 . S
C407 C406 1.287 . S
C407 C408 1.524 . S
C407 H410 0.999 1_556 S
C408 H378 0.950 . S
C408 C407 1.524 . S
C408 C409 1.415 . S
C409 H379 0.950 . S
C409 C404 1.363 . S
C409 C408 1.415 . S
H410 C407 0.999 1_554 S
H411 C392 0.913 . S
H412 C430 0.951 . S
H413 C432 0.951 . S
H414 C434 0.950 . S
H415 C435 0.950 . S
H416 C437 0.950 . S
H417 C440 0.950 . S
H418 C441 0.950 . S
H419 C443 0.950 . S
H420 C444 0.950 . S
H421 C445 0.951 . S
H422 C447 0.951 . S
H423 C449 0.950 . S
H424 C450 0.950 . S
H425 C452 0.950 . S
H426 C455 0.950 . S
H427 C456 0.950 . S
H428 C458 0.950 . S
H429 C459 0.950 . S
C430 H412 0.951 . S
C430 C431 1.366 . S
C430 C432 1.388 . S
C431 C430 1.366 . S
C431 C435 1.385 . S
C432 H413 0.951 . S
C432 C430 1.388 . S
C432 C433 1.366 . S
C433 C432 1.366 . S
C433 C434 1.414 . S
C433 C436 1.499 . S
C434 H414 0.950 . S
C434 C433 1.414 . S
C434 C435 1.374 . S
C435 H415 0.950 . S
C435 C431 1.385 . S
C435 C434 1.374 . S
C436 C433 1.499 . S
C436 C437 1.373 . S
C436 C438 1.389 . S
C437 H416 0.950 . S
C437 C436 1.373 . S
C437 C453 1.377 . S
C438 C436 1.389 . S
C438 C439 1.524 . S
C438 C452 1.377 . S
C439 C438 1.524 . S
C439 C440 1.397 . S
C439 C444 1.363 . S
C440 H417 0.950 . S
C440 C439 1.397 . S
C440 C441 1.334 . S
C441 H418 0.950 . S
C441 C440 1.334 . S
C441 C442 1.287 . S
C442 C441 1.287 . S
C442 C443 1.524 . S
C442 H461 0.913 . S
C443 H419 0.950 . S
C443 C442 1.524 . S
C443 C444 1.415 . S
C444 H420 0.950 . S
C444 C439 1.363 . S
C444 C443 1.415 . S
C445 H421 0.951 . S
C445 C446 1.366 . S
C445 C447 1.388 . S
C446 C445 1.366 . S
C446 C450 1.385 . S
C447 H422 0.951 . S
C447 C445 1.388 . S
C447 C448 1.366 . S
C448 C447 1.366 . S
C448 C449 1.414 . S
C448 C451 1.499 . S
C449 H423 0.950 . S
C449 C448 1.414 . S
C449 C450 1.374 . S
C450 H424 0.950 . S
C450 C446 1.385 . S
C450 C449 1.374 . S
C451 C448 1.499 . S
C451 C452 1.373 . S
C451 C453 1.389 . S
C452 H425 0.950 . S
C452 C438 1.377 . S
C452 C451 1.373 . S
C453 C437 1.377 . S
C453 C451 1.389 . S
C453 C454 1.524 . S
C454 C453 1.524 . S
C454 C455 1.397 . S
C454 C459 1.363 . S
C455 H426 0.950 . S
C455 C454 1.397 . S
C455 C456 1.334 . S
C456 H427 0.950 . S
C456 C455 1.334 . S
C456 C457 1.287 . S
C457 C456 1.287 . S
C457 C458 1.524 . S
C457 H460 0.999 . S
C458 H428 0.950 . S
C458 C457 1.524 . S
C458 C459 1.415 . S
C459 H429 0.950 . S
C459 C454 1.363 . S
C459 C458 1.415 . S
H460 C457 0.999 . S
H461 C442 0.913 . S
H462 C480 0.951 . S
H463 C482 0.951 . S
H464 C484 0.950 . S
H465 C485 0.950 . S
H466 C487 0.950 . S
H467 C490 0.950 . S
H468 C491 0.950 . S
H469 C493 0.950 . S
H470 C494 0.950 . S
H471 C495 0.951 . S
H472 C497 0.951 . S
H473 C499 0.950 . S
H474 C500 0.950 . S
H475 C502 0.950 . S
H476 C505 0.950 . S
H477 C506 0.950 1_455 S
H478 C508 0.950 . S
H479 C509 0.950 . S
C480 H462 0.951 . S
C480 C481 1.366 . S
C480 C482 1.388 . S
C481 C480 1.366 . S
C481 C485 1.385 . S
C482 H463 0.951 . S
C482 C480 1.388 . S
C482 C483 1.366 . S
C483 C482 1.366 . S
C483 C484 1.414 . S
C483 C486 1.499 . S
C484 H464 0.950 . S
C484 C483 1.414 . S
C484 C485 1.374 . S
C485 H465 0.950 . S
C485 C481 1.385 . S
C485 C484 1.374 . S
C486 C483 1.499 . S
C486 C487 1.373 . S
C486 C488 1.389 . S
C487 H466 0.950 . S
C487 C486 1.373 . S
C487 C503 1.377 . S
C488 C486 1.389 . S
C488 C489 1.524 . S
C488 C502 1.377 . S
C489 C488 1.524 . S
C489 C490 1.397 . S
C489 C494 1.363 . S
C490 H467 0.950 . S
C490 C489 1.397 . S
C490 C491 1.334 . S
C491 H468 0.950 . S
C491 C490 1.334 . S
C491 C492 1.287 . S
C492 C491 1.287 . S
C492 C493 1.524 . S
C492 H511 0.913 . S
C493 H469 0.950 . S
C493 C492 1.524 . S
C493 C494 1.415 . S
C494 H470 0.950 . S
C494 C489 1.363 . S
C494 C493 1.415 . S
C495 H471 0.951 . S
C495 C496 1.366 . S
C495 C497 1.388 . S
C496 C495 1.366 . S
C496 C500 1.385 . S
C497 H472 0.951 . S
C497 C495 1.388 . S
C497 C498 1.366 . S
C498 C497 1.366 . S
C498 C499 1.414 . S
C498 C501 1.499 . S
C499 H473 0.950 . S
C499 C498 1.414 . S
C499 C500 1.374 . S
C500 H474 0.950 . S
C500 C496 1.385 . S
C500 C499 1.374 . S
C501 C498 1.499 . S
C501 C502 1.373 . S
C501 C503 1.389 . S
C502 H475 0.950 . S
C502 C488 1.377 . S
C502 C501 1.373 . S
C503 C487 1.377 . S
C503 C501 1.389 . S
C503 C504 1.524 . S
C504 C503 1.524 . S
C504 C505 1.397 . S
C504 C509 1.363 . S
C505 H476 0.950 . S
C505 C504 1.397 . S
C505 C506 1.334 . S
C506 H477 0.950 1_655 S
C506 C505 1.334 . S
C506 C507 1.287 . S
C507 C506 1.287 . S
C507 C508 1.524 . S
C507 H510 0.999 . S
C508 H478 0.950 . S
C508 C507 1.524 . S
C508 C509 1.415 . S
C509 H479 0.950 . S
C509 C504 1.363 . S
C509 C508 1.415 . S
H510 C507 0.999 . S
H511 C492 0.913 . S
H512 C530 0.951 . S
H513 C532 0.951 . S
H514 C534 0.950 . S
H515 C535 0.950 . S
H516 C537 0.950 . S
H517 C540 0.950 . S
H518 C541 0.950 . S
H519 C543 0.950 . S
H520 C544 0.950 . S
H521 C545 0.951 . S
H522 C547 0.951 . S
H523 C549 0.950 . S
H524 C550 0.950 . S
H525 C552 0.950 . S
H526 C555 0.950 . S
H527 C556 0.950 . S
H528 C558 0.950 . S
H529 C559 0.950 . S
C530 H512 0.951 . S
C530 C531 1.366 . S
C530 C532 1.388 . S
C531 C530 1.366 . S
C531 C535 1.385 . S
C532 H513 0.951 . S
C532 C530 1.388 . S
C532 C533 1.366 . S
C533 C532 1.366 . S
C533 C534 1.414 . S
C533 C536 1.499 . S
C534 H514 0.950 . S
C534 C533 1.414 . S
C534 C535 1.374 . S
C535 H515 0.950 . S
C535 C531 1.385 . S
C535 C534 1.374 . S
C536 C533 1.499 . S
C536 C537 1.373 . S
C536 C538 1.389 . S
C537 H516 0.950 . S
C537 C536 1.373 . S
C537 C553 1.377 . S
C538 C536 1.389 . S
C538 C539 1.524 . S
C538 C552 1.377 . S
C539 C538 1.524 . S
C539 C540 1.397 . S
C539 C544 1.363 . S
C540 H517 0.950 . S
C540 C539 1.397 . S
C540 C541 1.334 . S
C541 H518 0.950 . S
C541 C540 1.334 . S
C541 C542 1.287 . S
C542 C541 1.287 . S
C542 C543 1.524 . S
C542 H561 0.913 . S
C543 H519 0.950 . S
C543 C542 1.524 . S
C543 C544 1.415 . S
C544 H520 0.950 . S
C544 C539 1.363 . S
C544 C543 1.415 . S
C545 H521 0.951 . S
C545 C546 1.366 . S
C545 C547 1.388 . S
C546 C545 1.366 . S
C546 C550 1.385 . S
C547 H522 0.951 . S
C547 C545 1.388 . S
C547 C548 1.366 . S
C548 C547 1.366 . S
C548 C549 1.414 . S
C548 C551 1.499 . S
C549 H523 0.950 . S
C549 C548 1.414 . S
C549 C550 1.374 . S
C550 H524 0.950 . S
C550 C546 1.385 . S
C550 C549 1.374 . S
C551 C548 1.499 . S
C551 C552 1.373 . S
C551 C553 1.389 . S
C552 H525 0.950 . S
C552 C538 1.377 . S
C552 C551 1.373 . S
C553 C537 1.377 . S
C553 C551 1.389 . S
C553 C554 1.524 . S
C554 C553 1.524 . S
C554 C555 1.397 . S
C554 C559 1.363 . S
C555 H526 0.950 . S
C555 C554 1.397 . S
C555 C556 1.334 . S
C556 H527 0.950 . S
C556 C555 1.334 . S
C556 C557 1.287 . S
C557 C556 1.287 . S
C557 C558 1.524 . S
C557 H560 0.999 . S
C558 H528 0.950 . S
C558 C557 1.524 . S
C558 C559 1.415 . S
C559 H529 0.950 . S
C559 C554 1.363 . S
C559 C558 1.415 . S
H560 C557 0.999 . S
H561 C542 0.913 . S
H562 C580 0.951 . S
H563 C582 0.951 . S
H564 C584 0.950 . S
H565 C585 0.950 . S
H566 C587 0.950 . S
H567 C590 0.950 . S
H568 C591 0.950 . S
H569 C593 0.950 . S
H570 C594 0.950 . S
H571 C595 0.951 . S
H572 C597 0.951 . S
H573 C599 0.950 . S
H574 C600 0.950 . S
H575 C602 0.950 . S
H576 C605 0.950 1_455 S
H577 C606 0.950 . S
H578 C608 0.950 . S
H579 C609 0.950 . S
C580 H562 0.951 . S
C580 C581 1.366 . S
C580 C582 1.388 . S
C581 C580 1.366 . S
C581 C585 1.385 . S
C582 H563 0.951 . S
C582 C580 1.388 . S
C582 C583 1.366 . S
C583 C582 1.366 . S
C583 C584 1.414 . S
C583 C586 1.499 . S
C584 H564 0.950 . S
C584 C583 1.414 . S
C584 C585 1.374 . S
C585 H565 0.950 . S
C585 C581 1.385 . S
C585 C584 1.374 . S
C586 C583 1.499 . S
C586 C587 1.373 . S
C586 C588 1.389 . S
C587 H566 0.950 . S
C587 C586 1.373 . S
C587 C603 1.377 . S
C588 C586 1.389 . S
C588 C589 1.524 . S
C588 C602 1.377 . S
C589 C588 1.524 . S
C589 C590 1.397 . S
C589 C594 1.363 . S
C590 H567 0.950 . S
C590 C589 1.397 . S
C590 C591 1.334 . S
C591 H568 0.950 . S
C591 C590 1.334 . S
C591 C592 1.287 . S
C592 C591 1.287 . S
C592 C593 1.524 . S
C592 H611 0.913 . S
C593 H569 0.950 . S
C593 C592 1.524 . S
C593 C594 1.415 . S
C594 H570 0.950 . S
C594 C589 1.363 . S
C594 C593 1.415 . S
C595 H571 0.951 . S
C595 C596 1.366 . S
C595 C597 1.388 . S
C596 C595 1.366 . S
C596 C600 1.385 . S
C597 H572 0.951 . S
C597 C595 1.388 . S
C597 C598 1.366 . S
C598 C597 1.366 . S
C598 C599 1.414 . S
C598 C601 1.499 . S
C599 H573 0.950 . S
C599 C598 1.414 . S
C599 C600 1.374 . S
C600 H574 0.950 . S
C600 C596 1.385 . S
C600 C599 1.374 . S
C601 C598 1.499 . S
C601 C602 1.373 . S
C601 C603 1.389 . S
C602 H575 0.950 . S
C602 C588 1.377 . S
C602 C601 1.373 . S
C603 C587 1.377 . S
C603 C601 1.389 . S
C603 C604 1.524 . S
C604 C603 1.524 . S
C604 C605 1.397 1_455 S
C604 C609 1.363 . S
C605 H576 0.950 1_655 S
C605 C604 1.397 1_655 S
C605 C606 1.334 . S
C606 H577 0.950 . S
C606 C605 1.334 . S
C606 C607 1.287 . S
C607 C606 1.287 . S
C607 C608 1.524 . S
C607 H610 0.999 . S
C608 H578 0.950 . S
C608 C607 1.524 . S
C608 C609 1.415 1_655 S
C609 H579 0.950 . S
C609 C604 1.363 . S
C609 C608 1.415 1_455 S
H610 C607 0.999 . S
H611 C592 0.913 . S
H612 C630 0.951 . S
H613 C632 0.951 . S
H614 C634 0.950 . S
H615 C635 0.950 . S
H616 C637 0.950 . S
H617 C640 0.950 . S
H618 C641 0.950 . S
H619 C643 0.950 . S
H620 C644 0.950 . S
H621 C645 0.951 . S
H622 C647 0.951 . S
H623 C649 0.950 . S
H624 C650 0.950 . S
H625 C652 0.950 . S
H626 C655 0.950 . S
H627 C656 0.950 . S
H628 C658 0.950 . S
H629 C659 0.950 . S
C630 H612 0.951 . S
C630 C631 1.366 . S
C630 C632 1.388 . S
C631 C630 1.366 . S
C631 C635 1.385 . S
C632 H613 0.951 . S
C632 C630 1.388 . S
C632 C633 1.366 . S
C633 C632 1.366 . S
C633 C634 1.414 . S
C633 C636 1.499 . S
C634 H614 0.950 . S
C634 C633 1.414 . S
C634 C635 1.374 . S
C635 H615 0.950 . S
C635 C631 1.385 . S
C635 C634 1.374 . S
C636 C633 1.499 . S
C636 C637 1.373 . S
C636 C638 1.389 . S
C637 H616 0.950 . S
C637 C636 1.373 . S
C637 C653 1.377 . S
C638 C636 1.389 . S
C638 C639 1.524 . S
C638 C652 1.377 . S
C639 C638 1.524 . S
C639 C640 1.397 . S
C639 C644 1.363 . S
C640 H617 0.950 . S
C640 C639 1.397 . S
C640 C641 1.334 . S
C641 H618 0.950 . S
C641 C640 1.334 . S
C641 C642 1.287 . S
C642 C641 1.287 . S
C642 C643 1.524 . S
C642 H661 0.913 . S
C643 H619 0.950 . S
C643 C642 1.524 . S
C643 C644 1.415 . S
C644 H620 0.950 . S
C644 C639 1.363 . S
C644 C643 1.415 . S
C645 H621 0.951 . S
C645 C646 1.366 . S
C645 C647 1.388 . S
C646 C645 1.366 . S
C646 C650 1.385 . S
C647 H622 0.951 . S
C647 C645 1.388 . S
C647 C648 1.366 . S
C648 C647 1.366 . S
C648 C649 1.414 . S
C648 C651 1.499 . S
C649 H623 0.950 . S
C649 C648 1.414 . S
C649 C650 1.374 . S
C650 H624 0.950 . S
C650 C646 1.385 . S
C650 C649 1.374 . S
C651 C648 1.499 . S
C651 C652 1.373 . S
C651 C653 1.389 . S
C652 H625 0.950 . S
C652 C638 1.377 . S
C652 C651 1.373 . S
C653 C637 1.377 . S
C653 C651 1.389 . S
C653 C654 1.524 . S
C654 C653 1.524 . S
C654 C655 1.397 . S
C654 C659 1.363 . S
C655 H626 0.950 . S
C655 C654 1.397 . S
C655 C656 1.334 1_556 S
C656 H627 0.950 . S
C656 C655 1.334 1_554 S
C656 C657 1.287 . S
C657 C656 1.287 . S
C657 C658 1.524 1_554 S
C657 H660 0.999 . S
C658 H628 0.950 . S
C658 C657 1.524 1_556 S
C658 C659 1.415 . S
C659 H629 0.950 . S
C659 C654 1.363 . S
C659 C658 1.415 . S
H660 C657 0.999 . S
H661 C642 0.913 . S
H662 C680 0.951 . S
H663 C682 0.951 . S
H664 C684 0.950 . S
H665 C685 0.950 . S
H666 C687 0.950 . S
H667 C690 0.950 . S
H668 C691 0.950 . S
H669 C693 0.950 . S
H670 C694 0.950 . S
H671 C695 0.951 . S
H672 C697 0.951 . S
H673 C699 0.950 . S
H674 C700 0.950 . S
H675 C702 0.950 . S
H676 C705 0.950 . S
H677 C706 0.950 . S
H678 C708 0.950 . S
H679 C709 0.950 . S
C680 H662 0.951 . S
C680 C681 1.366 . S
C680 C682 1.388 . S
C681 C680 1.366 . S
C681 C685 1.385 . S
C682 H663 0.951 . S
C682 C680 1.388 . S
C682 C683 1.366 . S
C683 C682 1.366 . S
C683 C684 1.414 . S
C683 C686 1.499 . S
C684 H664 0.950 . S
C684 C683 1.414 . S
C684 C685 1.374 . S
C685 H665 0.950 . S
C685 C681 1.385 . S
C685 C684 1.374 . S
C686 C683 1.499 . S
C686 C687 1.373 . S
C686 C688 1.389 . S
C687 H666 0.950 . S
C687 C686 1.373 . S
C687 C703 1.377 . S
C688 C686 1.389 . S
C688 C689 1.524 . S
C688 C702 1.377 . S
C689 C688 1.524 . S
C689 C690 1.397 . S
C689 C694 1.363 . S
C690 H667 0.950 . S
C690 C689 1.397 . S
C690 C691 1.334 . S
C691 H668 0.950 . S
C691 C690 1.334 . S
C691 C692 1.287 . S
C692 C691 1.287 . S
C692 C693 1.524 . S
C692 H711 0.913 . S
C693 H669 0.950 . S
C693 C692 1.524 . S
C693 C694 1.415 . S
C694 H670 0.950 . S
C694 C689 1.363 . S
C694 C693 1.415 . S
C695 H671 0.951 . S
C695 C696 1.366 . S
C695 C697 1.388 . S
C696 C695 1.366 . S
C696 C700 1.385 . S
C697 H672 0.951 . S
C697 C695 1.388 . S
C697 C698 1.366 . S
C698 C697 1.366 . S
C698 C699 1.414 . S
C698 C701 1.499 . S
C699 H673 0.950 . S
C699 C698 1.414 . S
C699 C700 1.374 . S
C700 H674 0.950 . S
C700 C696 1.385 . S
C700 C699 1.374 . S
C701 C698 1.499 . S
C701 C702 1.373 . S
C701 C703 1.389 . S
C702 H675 0.950 . S
C702 C688 1.377 . S
C702 C701 1.373 . S
C703 C687 1.377 . S
C703 C701 1.389 . S
C703 C704 1.524 . S
C704 C703 1.524 . S
C704 C705 1.397 . S
C704 C709 1.363 . S
C705 H676 0.950 . S
C705 C704 1.397 . S
C705 C706 1.334 . S
C706 H677 0.950 . S
C706 C705 1.334 . S
C706 C707 1.287 . S
C707 C706 1.287 . S
C707 C708 1.524 . S
C707 H710 0.999 . S
C708 H678 0.950 . S
C708 C707 1.524 . S
C708 C709 1.415 . S
C709 H679 0.950 . S
C709 C704 1.363 . S
C709 C708 1.415 . S
H710 C707 0.999 . S
H711 C692 0.913 . S
H712 C730 0.951 . S
H713 C732 0.951 . S
H714 C734 0.950 . S
H715 C735 0.950 . S
H716 C737 0.950 . S
H717 C740 0.950 . S
H718 C741 0.950 . S
H719 C743 0.950 . S
H720 C744 0.950 . S
H721 C745 0.951 . S
H722 C747 0.951 . S
H723 C749 0.950 . S
H724 C750 0.950 . S
H725 C752 0.950 . S
H726 C755 0.950 . S
H727 C756 0.950 . S
H728 C758 0.950 . S
H729 C759 0.950 . S
C730 H712 0.951 . S
C730 C731 1.366 . S
C730 C732 1.388 . S
C731 C730 1.366 . S
C731 C735 1.385 . S
C732 H713 0.951 . S
C732 C730 1.388 . S
C732 C733 1.366 . S
C733 C732 1.366 . S
C733 C734 1.414 . S
C733 C736 1.499 . S
C734 H714 0.950 . S
C734 C733 1.414 . S
C734 C735 1.374 . S
C735 H715 0.950 . S
C735 C731 1.385 . S
C735 C734 1.374 . S
C736 C733 1.499 . S
C736 C737 1.373 . S
C736 C738 1.389 . S
C737 H716 0.950 . S
C737 C736 1.373 . S
C737 C753 1.377 . S
C738 C736 1.389 . S
C738 C739 1.524 . S
C738 C752 1.377 . S
C739 C738 1.524 . S
C739 C740 1.397 . S
C739 C744 1.363 . S
C740 H717 0.950 . S
C740 C739 1.397 . S
C740 C741 1.334 . S
C741 H718 0.950 . S
C741 C740 1.334 . S
C741 C742 1.287 . S
C742 C741 1.287 . S
C742 C743 1.524 . S
C742 H761 0.913 . S
C743 H719 0.950 . S
C743 C742 1.524 . S
C743 C744 1.415 . S
C744 H720 0.950 . S
C744 C739 1.363 . S
C744 C743 1.415 . S
C745 H721 0.951 . S
C745 C746 1.366 . S
C745 C747 1.388 . S
C746 C745 1.366 . S
C746 C750 1.385 . S
C747 H722 0.951 . S
C747 C745 1.388 . S
C747 C748 1.366 . S
C748 C747 1.366 . S
C748 C749 1.414 . S
C748 C751 1.499 . S
C749 H723 0.950 . S
C749 C748 1.414 . S
C749 C750 1.374 . S
C750 H724 0.950 . S
C750 C746 1.385 . S
C750 C749 1.374 . S
C751 C748 1.499 . S
C751 C752 1.373 . S
C751 C753 1.389 . S
C752 H725 0.950 . S
C752 C738 1.377 . S
C752 C751 1.373 . S
C753 C737 1.377 . S
C753 C751 1.389 . S
C753 C754 1.524 . S
C754 C753 1.524 . S
C754 C755 1.397 . S
C754 C759 1.363 . S
C755 H726 0.950 . S
C755 C754 1.397 . S
C755 C756 1.334 . S
C756 H727 0.950 . S
C756 C755 1.334 . S
C756 C757 1.287 . S
C757 C756 1.287 . S
C757 C758 1.524 . S
C757 H760 0.999 . S
C758 H728 0.950 . S
C758 C757 1.524 . S
C758 C759 1.415 . S
C759 H729 0.950 . S
C759 C754 1.363 . S
C759 C758 1.415 . S
H760 C757 0.999 . S
H761 C742 0.913 . S
H762 C780 0.951 . S
H763 C782 0.951 . S
H764 C784 0.950 . S
H765 C785 0.950 . S
H766 C787 0.950 . S
H767 C790 0.950 . S
H768 C791 0.950 . S
H769 C793 0.950 . S
H770 C794 0.976 . S
H771 C795 0.951 . S
H772 C797 0.951 . S
H773 C799 0.950 . S
H774 C800 0.950 . S
H775 C802 0.950 . S
H776 C805 0.950 . S
H777 C806 0.950 . S
H778 C808 0.950 . S
H779 C809 0.950 . S
C780 H762 0.951 . S
C780 C781 1.366 . S
C780 C782 1.388 . S
C781 C780 1.366 . S
C781 C785 1.385 . S
C782 H763 0.951 . S
C782 C780 1.388 . S
C782 C783 1.366 . S
C783 C782 1.366 . S
C783 C784 1.414 . S
C783 C786 1.499 . S
C784 H764 0.950 . S
C784 C783 1.414 . S
C784 C785 1.374 . S
C785 H765 0.950 . S
C785 C781 1.385 . S
C785 C784 1.374 . S
C786 C783 1.499 . S
C786 C787 1.373 . S
C786 C788 1.389 . S
C787 H766 0.950 . S
C787 C786 1.373 . S
C787 C803 1.377 . S
C788 C786 1.389 . S
C788 C789 1.524 . S
C788 C802 1.377 . S
C789 C788 1.524 . S
C789 C790 1.397 . S
C789 C794 1.363 . S
C790 H767 0.950 . S
C790 C789 1.397 . S
C790 C791 1.334 . S
C791 H768 0.950 . S
C791 C790 1.334 . S
C791 C792 1.287 . S
C792 C791 1.287 . S
C792 C793 1.524 1_556 S
C792 H811 0.917 . S
C793 H769 0.950 . S
C793 C792 1.524 1_554 S
C793 C794 1.415 1_554 S
C794 H770 0.976 . S
C794 C789 1.363 . S
C794 C793 1.415 1_556 S
C795 H771 0.951 . S
C795 C796 1.366 1_556 S
C795 C797 1.388 . S
C796 C795 1.366 1_554 S
C796 C800 1.385 . S
C797 H772 0.951 . S
C797 C795 1.388 . S
C797 C798 1.366 . S
C798 C797 1.366 . S
C798 C799 1.414 1_556 S
C798 C801 1.499 . S
C799 H773 0.950 . S
C799 C798 1.414 1_554 S
C799 C800 1.374 . S
C800 H774 0.950 . S
C800 C796 1.385 . S
C800 C799 1.374 . S
C801 C798 1.499 . S
C801 C802 1.373 . S
C801 C803 1.389 . S
C802 H775 0.950 . S
C802 C788 1.377 . S
C802 C801 1.373 . S
C803 C787 1.377 . S
C803 C801 1.389 . S
C803 C804 1.524 . S
C804 C803 1.524 . S
C804 C805 1.397 . S
C804 C809 1.363 . S
C805 H776 0.950 . S
C805 C804 1.397 . S
C805 C806 1.334 . S
C806 H777 0.950 . S
C806 C805 1.334 . S
C806 C807 1.287 . S
C807 C806 1.287 . S
C807 C808 1.524 . S
C807 H810 0.999 . S
C808 H778 0.950 . S
C808 C807 1.524 . S
C808 C809 1.415 . S
C809 H779 0.950 . S
C809 C804 1.363 . S
C809 C808 1.415 . S
H810 C807 0.999 . S
H811 C792 0.917 . S
H812 C830 0.951 . S
H813 C832 0.951 . S
H814 C834 0.950 . S
H815 C835 0.950 . S
H816 C837 0.950 . S
H817 C840 0.950 . S
H818 C841 0.950 . S
H819 C843 0.950 . S
H820 C844 0.950 . S
H821 C845 0.951 . S
H822 C847 0.951 . S
H823 C849 0.950 . S
H824 C850 0.950 . S
H825 C852 0.950 . S
H826 C855 0.950 . S
H827 C856 0.950 . S
H828 C858 0.950 1_455 S
H829 C859 0.950 . S
C830 H812 0.951 . S
C830 C831 1.366 . S
C830 C832 1.388 . S
C831 C830 1.366 . S
C831 C835 1.385 . S
C832 H813 0.951 . S
C832 C830 1.388 . S
C832 C833 1.366 . S
C833 C832 1.366 . S
C833 C834 1.414 . S
C833 C836 1.499 . S
C834 H814 0.950 . S
C834 C833 1.414 . S
C834 C835 1.374 . S
C835 H815 0.950 . S
C835 C831 1.385 . S
C835 C834 1.374 . S
C836 C833 1.499 . S
C836 C837 1.373 . S
C836 C838 1.389 . S
C837 H816 0.950 . S
C837 C836 1.373 . S
C837 C853 1.377 . S
C838 C836 1.389 . S
C838 C839 1.524 . S
C838 C852 1.377 . S
C839 C838 1.524 . S
C839 C840 1.397 . S
C839 C844 1.363 . S
C840 H817 0.950 . S
C840 C839 1.397 . S
C840 C841 1.334 . S
C841 H818 0.950 . S
C841 C840 1.334 . S
C841 C842 1.287 . S
C842 C841 1.287 . S
C842 C843 1.524 . S
C842 H861 0.913 . S
C843 H819 0.950 . S
C843 C842 1.524 . S
C843 C844 1.415 . S
C844 H820 0.950 . S
C844 C839 1.363 . S
C844 C843 1.415 . S
C845 H821 0.951 . S
C845 C846 1.366 . S
C845 C847 1.388 . S
C846 C845 1.366 . S
C846 C850 1.385 . S
C847 H822 0.951 . S
C847 C845 1.388 . S
C847 C848 1.366 . S
C848 C847 1.366 . S
C848 C849 1.414 . S
C848 C851 1.499 . S
C849 H823 0.950 . S
C849 C848 1.414 . S
C849 C850 1.374 . S
C850 H824 0.950 . S
C850 C846 1.385 . S
C850 C849 1.374 . S
C851 C848 1.499 . S
C851 C852 1.373 . S
C851 C853 1.389 . S
C852 H825 0.950 . S
C852 C838 1.377 . S
C852 C851 1.373 . S
C853 C837 1.377 . S
C853 C851 1.389 . S
C853 C854 1.524 . S
C854 C853 1.524 . S
C854 C855 1.397 . S
C854 C859 1.363 . S
C855 H826 0.950 . S
C855 C854 1.397 . S
C855 C856 1.334 . S
C856 H827 0.950 . S
C856 C855 1.334 . S
C856 C857 1.287 . S
C857 C856 1.287 . S
C857 C858 1.524 . S
C857 H860 0.999 1_655 S
C858 H828 0.950 1_655 S
C858 C857 1.524 . S
C858 C859 1.415 . S
C859 H829 0.950 . S
C859 C854 1.363 . S
C859 C858 1.415 . S
H860 C857 0.999 1_455 S
H861 C842 0.913 . S
H862 C880 0.951 . S
H863 C882 0.951 . S
H864 C884 0.950 . S
H865 C885 0.950 . S
H866 C887 0.950 . S
H867 C890 0.950 . S
H868 C891 0.950 . S
H869 C893 0.950 . S
H870 C894 0.950 . S
H871 C895 0.951 . S
H872 C897 0.951 . S
H873 C899 0.950 . S
H874 C900 0.950 . S
H875 C902 0.950 . S
H876 C905 0.950 . S
H877 C906 0.950 . S
H878 C908 0.950 . S
H879 C909 0.950 . S
C880 H862 0.951 . S
C880 C881 1.366 . S
C880 C882 1.388 . S
C881 C880 1.366 . S
C881 C885 1.385 . S
C882 H863 0.951 . S
C882 C880 1.388 . S
C882 C883 1.366 . S
C883 C882 1.366 . S
C883 C884 1.414 . S
C883 C886 1.499 . S
C884 H864 0.950 . S
C884 C883 1.414 . S
C884 C885 1.374 . S
C885 H865 0.950 . S
C885 C881 1.385 . S
C885 C884 1.374 . S
C886 C883 1.499 . S
C886 C887 1.373 . S
C886 C888 1.389 . S
C887 H866 0.950 . S
C887 C886 1.373 . S
C887 C903 1.377 . S
C888 C886 1.389 . S
C888 C889 1.524 . S
C888 C902 1.377 . S
C889 C888 1.524 . S
C889 C890 1.397 . S
C889 C894 1.363 . S
C890 H867 0.950 . S
C890 C889 1.397 . S
C890 C891 1.334 . S
C891 H868 0.950 . S
C891 C890 1.334 . S
C891 C892 1.287 . S
C892 C891 1.287 . S
C892 C893 1.524 . S
C892 H911 0.913 . S
C893 H869 0.950 . S
C893 C892 1.524 . S
C893 C894 1.415 . S
C894 H870 0.950 . S
C894 C889 1.363 . S
C894 C893 1.415 . S
C895 H871 0.951 . S
C895 C896 1.366 . S
C895 C897 1.388 . S
C896 C895 1.366 . S
C896 C900 1.385 . S
C897 H872 0.951 . S
C897 C895 1.388 . S
C897 C898 1.366 . S
C898 C897 1.366 . S
C898 C899 1.414 . S
C898 C901 1.499 . S
C899 H873 0.950 . S
C899 C898 1.414 . S
C899 C900 1.374 . S
C900 H874 0.950 . S
C900 C896 1.385 . S
C900 C899 1.374 . S
C901 C898 1.499 . S
C901 C902 1.373 . S
C901 C903 1.389 . S
C902 H875 0.950 . S
C902 C888 1.377 . S
C902 C901 1.373 . S
C903 C887 1.377 . S
C903 C901 1.389 . S
C903 C904 1.524 . S
C904 C903 1.524 . S
C904 C905 1.397 . S
C904 C909 1.363 . S
C905 H876 0.950 . S
C905 C904 1.397 . S
C905 C906 1.334 . S
C906 H877 0.950 . S
C906 C905 1.334 . S
C906 C907 1.287 . S
C907 C906 1.287 . S
C907 C908 1.524 . S
C907 H910 0.999 . S
C908 H878 0.950 . S
C908 C907 1.524 . S
C908 C909 1.415 . S
C909 H879 0.950 . S
C909 C904 1.363 . S
C909 C908 1.415 . S
H910 C907 0.999 . S
H911 C892 0.913 . S
H912 C930 0.951 . S
H913 C932 0.951 . S
H914 C934 0.950 . S
H915 C935 0.950 . S
H916 C937 0.950 . S
H917 C940 0.950 . S
H918 C941 0.950 . S
H919 C943 0.950 . S
H920 C944 0.950 . S
H921 C945 0.951 . S
H922 C947 0.951 . S
H923 C949 0.950 . S
H924 C950 0.950 . S
H925 C952 0.950 . S
H926 C955 0.950 . S
H927 C956 0.950 . S
H928 C958 0.950 . S
H929 C959 0.950 . S
C930 H912 0.951 . S
C930 C931 1.366 . S
C930 C932 1.388 . S
C931 C930 1.366 . S
C931 C935 1.385 . S
C932 H913 0.951 . S
C932 C930 1.388 . S
C932 C933 1.366 . S
C933 C932 1.366 . S
C933 C934 1.414 . S
C933 C936 1.499 . S
C934 H914 0.950 . S
C934 C933 1.414 . S
C934 C935 1.374 . S
C935 H915 0.950 . S
C935 C931 1.385 . S
C935 C934 1.374 . S
C936 C933 1.499 . S
C936 C937 1.373 . S
C936 C938 1.389 . S
C937 H916 0.950 . S
C937 C936 1.373 . S
C937 C953 1.377 . S
C938 C936 1.389 . S
C938 C939 1.524 . S
C938 C952 1.377 . S
C939 C938 1.524 . S
C939 C940 1.397 . S
C939 C944 1.363 . S
C940 H917 0.950 . S
C940 C939 1.397 . S
C940 C941 1.334 . S
C941 H918 0.950 . S
C941 C940 1.334 . S
C941 C942 1.287 . S
C942 C941 1.287 . S
C942 C943 1.524 . S
C942 H961 0.913 . S
C943 H919 0.950 . S
C943 C942 1.524 . S
C943 C944 1.415 . S
C944 H920 0.950 . S
C944 C939 1.363 . S
C944 C943 1.415 . S
C945 H921 0.951 . S
C945 C946 1.366 . S
C945 C947 1.388 . S
C946 C945 1.366 . S
C946 C950 1.385 . S
C947 H922 0.951 . S
C947 C945 1.388 . S
C947 C948 1.366 . S
C948 C947 1.366 . S
C948 C949 1.414 . S
C948 C951 1.499 . S
C949 H923 0.950 . S
C949 C948 1.414 . S
C949 C950 1.374 . S
C950 H924 0.950 . S
C950 C946 1.385 . S
C950 C949 1.374 . S
C951 C948 1.499 . S
C951 C952 1.373 . S
C951 C953 1.389 . S
C952 H925 0.950 . S
C952 C938 1.377 . S
C952 C951 1.373 . S
C953 C937 1.377 . S
C953 C951 1.389 . S
C953 C954 1.524 . S
C954 C953 1.524 . S
C954 C955 1.397 . S
C954 C959 1.363 . S
C955 H926 0.950 . S
C955 C954 1.397 . S
C955 C956 1.334 . S
C956 H927 0.950 . S
C956 C955 1.334 . S
C956 C957 1.287 . S
C957 C956 1.287 . S
C957 C958 1.524 . S
C957 H960 0.999 . S
C958 H928 0.950 . S
C958 C957 1.524 . S
C958 C959 1.415 . S
C959 H929 0.950 . S
C959 C954 1.363 . S
C959 C958 1.415 . S
H960 C957 0.999 . S
H961 C942 0.913 . S
H962 C980 0.951 . S
H963 C982 0.951 . S
H964 C984 0.950 . S
H965 C985 0.950 . S
H966 C987 0.950 . S
H967 C990 0.950 . S
H968 C991 0.950 . S
H969 C993 0.950 . S
H970 C994 0.950 . S
H971 C995 0.951 . S
H972 C997 0.951 . S
H973 C999 0.950 . S
H974 C1000 0.950 . S
H975 C1002 0.950 . S
H976 C1005 0.950 . S
H977 C1006 0.950 . S
H978 C1008 0.950 . S
H979 C1009 0.950 . S
C980 H962 0.951 . S
C980 C981 1.366 . S
C980 C982 1.388 . S
C981 C980 1.366 . S
C981 C985 1.385 . S
C982 H963 0.951 . S
C982 C980 1.388 . S
C982 C983 1.366 . S
C983 C982 1.366 . S
C983 C984 1.414 . S
C983 C986 1.499 . S
C984 H964 0.950 . S
C984 C983 1.414 . S
C984 C985 1.374 . S
C985 H965 0.950 . S
C985 C981 1.385 . S
C985 C984 1.374 . S
C986 C983 1.499 . S
C986 C987 1.373 . S
C986 C988 1.389 . S
C987 H966 0.950 . S
C987 C986 1.373 . S
C987 C1003 1.377 . S
C988 C986 1.389 . S
C988 C989 1.524 . S
C988 C1002 1.377 . S
C989 C988 1.524 . S
C989 C990 1.397 . S
C989 C994 1.363 . S
C990 H967 0.950 . S
C990 C989 1.397 . S
C990 C991 1.334 . S
C991 H968 0.950 . S
C991 C990 1.334 . S
C991 C992 1.287 . S
C992 C991 1.287 . S
C992 C993 1.524 . S
C992 H1011 0.913 . S
C993 H969 0.950 . S
C993 C992 1.524 . S
C993 C994 1.415 . S
C994 H970 0.950 . S
C994 C989 1.363 . S
C994 C993 1.415 . S
C995 H971 0.951 . S
C995 C996 1.366 . S
C995 C997 1.388 . S
C996 C995 1.366 . S
C996 C1000 1.385 . S
C997 H972 0.951 . S
C997 C995 1.388 . S
C997 C998 1.366 . S
C998 C997 1.366 . S
C998 C999 1.414 . S
C998 C1001 1.499 . S
C999 H973 0.950 . S
C999 C998 1.414 . S
C999 C1000 1.374 . S
C1000 H974 0.950 . S
C1000 C996 1.385 . S
C1000 C999 1.374 . S
C1001 C998 1.499 . S
C1001 C1002 1.373 . S
C1001 C1003 1.389 . S
C1002 H975 0.950 . S
C1002 C988 1.377 . S
C1002 C1001 1.373 . S
C1003 C987 1.377 . S
C1003 C1001 1.389 . S
C1003 C1004 1.524 . S
C1004 C1003 1.524 . S
C1004 C1005 1.397 . S
C1004 C1009 1.363 . S
C1005 H976 0.950 . S
C1005 C1004 1.397 . S
C1005 C1006 1.334 . S
C1006 H977 0.950 . S
C1006 C1005 1.334 . S
C1006 C1007 1.287 . S
C1007 C1006 1.287 . S
C1007 C1008 1.524 . S
C1007 H1010 0.999 . S
C1008 H978 0.950 . S
C1008 C1007 1.524 . S
C1008 C1009 1.415 . S
C1009 H979 0.950 . S
C1009 C1004 1.363 . S
C1009 C1008 1.415 . S
H1010 C1007 0.999 . S
H1011 C992 0.913 . S
H1012 C1030 0.951 . S
H1013 C1032 0.951 . S
H1014 C1034 0.950 . S
H1015 C1035 0.950 . S
H1016 C1037 0.950 . S
H1017 C1040 0.950 . S
H1018 C1041 0.950 . S
H1019 C1043 0.950 . S
H1020 C1044 0.950 . S
H1021 C1045 0.951 . S
H1022 C1047 0.951 . S
H1023 C1049 0.950 . S
H1024 C1050 0.950 . S
H1025 C1052 0.950 . S
H1026 C1055 0.950 . S
H1027 C1056 0.950 . S
H1028 C1058 0.950 . S
H1029 C1059 0.950 . S
C1030 H1012 0.951 . S
C1030 C1031 1.366 . S
C1030 C1032 1.388 . S
C1031 C1030 1.366 . S
C1031 C1035 1.385 . S
C1032 H1013 0.951 . S
C1032 C1030 1.388 . S
C1032 C1033 1.366 . S
C1033 C1032 1.366 . S
C1033 C1034 1.414 . S
C1033 C1036 1.499 . S
C1034 H1014 0.950 . S
C1034 C1033 1.414 . S
C1034 C1035 1.374 . S
C1035 H1015 0.950 . S
C1035 C1031 1.385 . S
C1035 C1034 1.374 . S
C1036 C1033 1.499 . S
C1036 C1037 1.373 . S
C1036 C1038 1.389 . S
C1037 H1016 0.950 . S
C1037 C1036 1.373 . S
C1037 C1053 1.377 . S
C1038 C1036 1.389 . S
C1038 C1039 1.524 . S
C1038 C1052 1.377 . S
C1039 C1038 1.524 . S
C1039 C1040 1.397 . S
C1039 C1044 1.363 . S
C1040 H1017 0.950 . S
C1040 C1039 1.397 . S
C1040 C1041 1.334 . S
C1041 H1018 0.950 . S
C1041 C1040 1.334 . S
C1041 C1042 1.287 . S
C1042 C1041 1.287 . S
C1042 C1043 1.524 . S
C1042 H1061 0.913 . S
C1043 H1019 0.950 . S
C1043 C1042 1.524 . S
C1043 C1044 1.415 . S
C1044 H1020 0.950 . S
C1044 C1039 1.363 . S
C1044 C1043 1.415 . S
C1045 H1021 0.951 . S
C1045 C1046 1.366 . S
C1045 C1047 1.388 . S
C1046 C1045 1.366 . S
C1046 C1050 1.385 . S
C1047 H1022 0.951 . S
C1047 C1045 1.388 . S
C1047 C1048 1.366 . S
C1048 C1047 1.366 . S
C1048 C1049 1.414 . S
C1048 C1051 1.499 . S
C1049 H1023 0.950 . S
C1049 C1048 1.414 . S
C1049 C1050 1.374 . S
C1050 H1024 0.950 . S
C1050 C1046 1.385 . S
C1050 C1049 1.374 . S
C1051 C1048 1.499 . S
C1051 C1052 1.373 . S
C1051 C1053 1.389 . S
C1052 H1025 0.950 . S
C1052 C1038 1.377 . S
C1052 C1051 1.373 . S
C1053 C1037 1.377 . S
C1053 C1051 1.389 . S
C1053 C1054 1.524 . S
C1054 C1053 1.524 . S
C1054 C1055 1.397 . S
C1054 C1059 1.363 . S
C1055 H1026 0.950 . S
C1055 C1054 1.397 . S
C1055 C1056 1.334 . S
C1056 H1027 0.950 . S
C1056 C1055 1.334 . S
C1056 C1057 1.287 . S
C1057 C1056 1.287 . S
C1057 C1058 1.524 . S
C1057 H1060 0.999 . S
C1058 H1028 0.950 . S
C1058 C1057 1.524 . S
C1058 C1059 1.415 . S
C1059 H1029 0.950 . S
C1059 C1054 1.363 . S
C1059 C1058 1.415 . S
H1060 C1057 0.999 . S
H1061 C1042 0.913 . S
H1062 C1080 0.951 . S
H1063 C1082 0.951 . S
H1064 C1084 0.950 . S
H1065 C1085 0.950 . S
H1066 C1087 0.950 . S
H1067 C1090 0.950 . S
H1068 C1091 0.950 . S
H1069 C1093 0.950 . S
H1070 C1094 0.950 . S
H1071 C1095 0.951 . S
H1072 C1097 0.951 . S
H1073 C1099 0.950 . S
H1074 C1100 0.950 . S
H1075 C1102 0.950 . S
H1076 C1105 0.950 . S
H1077 C1106 0.950 1_554 S
H1078 C1108 0.950 . S
H1079 C1109 0.950 . S
C1080 H1062 0.951 . S
C1080 C1081 1.366 . S
C1080 C1082 1.388 . S
C1081 C1080 1.366 . S
C1081 C1085 1.385 . S
C1082 H1063 0.951 . S
C1082 C1080 1.388 . S
C1082 C1083 1.366 . S
C1083 C1082 1.366 . S
C1083 C1084 1.414 . S
C1083 C1086 1.499 . S
C1084 H1064 0.950 . S
C1084 C1083 1.414 . S
C1084 C1085 1.374 . S
C1085 H1065 0.950 . S
C1085 C1081 1.385 . S
C1085 C1084 1.374 . S
C1086 C1083 1.499 . S
C1086 C1087 1.373 . S
C1086 C1088 1.389 . S
C1087 H1066 0.950 . S
C1087 C1086 1.373 . S
C1087 C1103 1.377 . S
C1088 C1086 1.389 . S
C1088 C1089 1.524 . S
C1088 C1102 1.377 . S
C1089 C1088 1.524 . S
C1089 C1090 1.397 . S
C1089 C1094 1.363 . S
C1090 H1067 0.950 . S
C1090 C1089 1.397 . S
C1090 C1091 1.334 . S
C1091 H1068 0.950 . S
C1091 C1090 1.334 . S
C1091 C1092 1.287 . S
C1092 C1091 1.287 . S
C1092 C1093 1.524 . S
C1092 H1111 0.913 . S
C1093 H1069 0.950 . S
C1093 C1092 1.524 . S
C1093 C1094 1.415 . S
C1094 H1070 0.950 . S
C1094 C1089 1.363 . S
C1094 C1093 1.415 . S
C1095 H1071 0.951 . S
C1095 C1096 1.366 . S
C1095 C1097 1.388 . S
C1096 C1095 1.366 . S
C1096 C1100 1.385 . S
C1097 H1072 0.951 . S
C1097 C1095 1.388 . S
C1097 C1098 1.366 . S
C1098 C1097 1.366 . S
C1098 C1099 1.414 . S
C1098 C1101 1.499 . S
C1099 H1073 0.950 . S
C1099 C1098 1.414 . S
C1099 C1100 1.374 . S
C1100 H1074 0.950 . S
C1100 C1096 1.385 . S
C1100 C1099 1.374 . S
C1101 C1098 1.499 . S
C1101 C1102 1.373 . S
C1101 C1103 1.389 . S
C1102 H1075 0.950 . S
C1102 C1088 1.377 . S
C1102 C1101 1.373 . S
C1103 C1087 1.377 . S
C1103 C1101 1.389 . S
C1103 C1104 1.524 . S
C1104 C1103 1.524 . S
C1104 C1105 1.397 . S
C1104 C1109 1.363 . S
C1105 H1076 0.950 . S
C1105 C1104 1.397 . S
C1105 C1106 1.334 . S
C1106 H1077 0.950 1_556 S
C1106 C1105 1.334 . S
C1106 C1107 1.287 . S
C1107 C1106 1.287 . S
C1107 C1108 1.524 . S
C1107 H1110 0.999 . S
C1108 H1078 0.950 . S
C1108 C1107 1.524 . S
C1108 C1109 1.415 . S
C1109 H1079 0.950 . S
C1109 C1104 1.363 . S
C1109 C1108 1.415 . S
H1110 C1107 0.999 . S
H1111 C1092 0.913 . S
H1112 C1130 0.951 . S
H1113 C1132 0.951 . S
H1114 C1134 0.950 . S
H1115 C1135 0.950 . S
H1116 C1137 0.950 . S
H1117 C1140 0.950 . S
H1118 C1141 0.950 . S
H1119 C1143 0.950 . S
H1120 C1144 0.950 . S
H1121 C1145 0.948 1_554 S
H1122 C1147 0.951 . S
H1123 C1149 0.950 . S
H1124 C1150 0.950 . S
H1125 C1152 0.950 . S
H1126 C1155 0.950 . S
H1127 C1156 0.950 . S
H1128 C1158 0.950 1_554 S
H1129 C1159 0.950 . S
C1130 H1112 0.951 . S
C1130 C1131 1.366 . S
C1130 C1132 1.388 . S
C1131 C1130 1.366 . S
C1131 C1135 1.385 . S
C1132 H1113 0.951 . S
C1132 C1130 1.388 . S
C1132 C1133 1.366 . S
C1133 C1132 1.366 . S
C1133 C1134 1.414 . S
C1133 C1136 1.499 . S
C1134 H1114 0.950 . S
C1134 C1133 1.414 . S
C1134 C1135 1.374 . S
C1135 H1115 0.950 . S
C1135 C1131 1.385 . S
C1135 C1134 1.374 . S
C1136 C1133 1.499 . S
C1136 C1137 1.373 . S
C1136 C1138 1.389 . S
C1137 H1116 0.950 . S
C1137 C1136 1.373 . S
C1137 C1153 1.377 . S
C1138 C1136 1.389 . S
C1138 C1139 1.524 . S
C1138 C1152 1.377 . S
C1139 C1138 1.524 . S
C1139 C1140 1.397 . S
C1139 C1144 1.363 . S
C1140 H1117 0.950 . S
C1140 C1139 1.397 . S
C1140 C1141 1.334 . S
C1141 H1118 0.950 . S
C1141 C1140 1.334 . S
C1141 C1142 1.287 . S
C1142 C1141 1.287 . S
C1142 C1143 1.524 . S
C1142 H1161 0.913 . S
C1143 H1119 0.950 . S
C1143 C1142 1.524 . S
C1143 C1144 1.415 . S
C1144 H1120 0.950 . S
C1144 C1139 1.363 . S
C1144 C1143 1.415 . S
C1145 H1121 0.948 1_556 S
C1145 C1146 1.367 . S
C1145 C1147 1.390 . S
C1146 C1145 1.367 . S
C1146 C1150 1.385 . S
C1147 H1122 0.951 . S
C1147 C1145 1.390 . S
C1147 C1148 1.366 . S
C1148 C1147 1.366 . S
C1148 C1149 1.414 . S
C1148 C1151 1.499 . S
C1149 H1123 0.950 . S
C1149 C1148 1.414 . S
C1149 C1150 1.374 . S
C1150 H1124 0.950 . S
C1150 C1146 1.385 . S
C1150 C1149 1.374 . S
C1151 C1148 1.499 . S
C1151 C1152 1.373 . S
C1151 C1153 1.389 . S
C1152 H1125 0.950 . S
C1152 C1138 1.377 . S
C1152 C1151 1.373 . S
C1153 C1137 1.377 . S
C1153 C1151 1.389 . S
C1153 C1154 1.524 . S
C1154 C1153 1.524 . S
C1154 C1155 1.397 . S
C1154 C1159 1.363 . S
C1155 H1126 0.950 . S
C1155 C1154 1.397 . S
C1155 C1156 1.334 . S
C1156 H1127 0.950 . S
C1156 C1155 1.334 . S
C1156 C1157 1.287 . S
C1157 C1156 1.287 . S
C1157 C1158 1.524 . S
C1157 H1160 0.999 . S
C1158 H1128 0.950 1_556 S
C1158 C1157 1.524 . S
C1158 C1159 1.415 . S
C1159 H1129 0.950 . S
C1159 C1154 1.363 . S
C1159 C1158 1.415 . S
H1160 C1157 0.999 . S
H1161 C1142 0.913 . S
H1162 C1180 0.951 . S
H1163 C1182 0.951 . S
H1164 C1184 0.950 . S
H1165 C1185 0.950 . S
H1166 C1187 0.950 . S
H1167 C1190 0.950 . S
H1168 C1191 0.950 . S
H1169 C1193 0.950 . S
H1170 C1194 0.950 . S
H1171 C1195 0.951 . S
H1172 C1197 0.951 . S
H1173 C1199 0.950 . S
H1174 C1200 0.950 . S
H1175 C1202 0.950 . S
H1176 C1205 0.950 . S
H1177 C1206 0.950 . S
H1178 C1208 0.950 . S
H1179 C1209 0.950 . S
C1180 H1162 0.951 . S
C1180 C1181 1.366 . S
C1180 C1182 1.388 . S
C1181 C1180 1.366 . S
C1181 C1185 1.385 . S
C1182 H1163 0.951 . S
C1182 C1180 1.388 . S
C1182 C1183 1.366 . S
C1183 C1182 1.366 . S
C1183 C1184 1.414 . S
C1183 C1186 1.499 . S
C1184 H1164 0.950 . S
C1184 C1183 1.414 . S
C1184 C1185 1.374 . S
C1185 H1165 0.950 . S
C1185 C1181 1.385 . S
C1185 C1184 1.374 . S
C1186 C1183 1.499 . S
C1186 C1187 1.373 . S
C1186 C1188 1.389 . S
C1187 H1166 0.950 . S
C1187 C1186 1.373 . S
C1187 C1203 1.377 . S
C1188 C1186 1.389 . S
C1188 C1189 1.524 . S
C1188 C1202 1.377 . S
C1189 C1188 1.524 . S
C1189 C1190 1.397 . S
C1189 C1194 1.363 . S
C1190 H1167 0.950 . S
C1190 C1189 1.397 . S
C1190 C1191 1.334 . S
C1191 H1168 0.950 . S
C1191 C1190 1.334 . S
C1191 C1192 1.287 . S
C1192 C1191 1.287 . S
C1192 C1193 1.524 . S
C1192 H1211 0.914 . S
C1193 H1169 0.950 . S
C1193 C1192 1.524 . S
C1193 C1194 1.415 . S
C1194 H1170 0.950 . S
C1194 C1189 1.363 . S
C1194 C1193 1.415 . S
C1195 H1171 0.951 . S
C1195 C1196 1.366 . S
C1195 C1197 1.388 . S
C1196 C1195 1.366 . S
C1196 C1200 1.385 . S
C1197 H1172 0.951 . S
C1197 C1195 1.388 . S
C1197 C1198 1.366 . S
C1198 C1197 1.366 . S
C1198 C1199 1.414 . S
C1198 C1201 1.499 . S
C1199 H1173 0.950 . S
C1199 C1198 1.414 . S
C1199 C1200 1.374 . S
C1200 H1174 0.950 . S
C1200 C1196 1.385 . S
C1200 C1199 1.374 . S
C1201 C1198 1.499 . S
C1201 C1202 1.373 . S
C1201 C1203 1.389 . S
C1202 H1175 0.950 . S
C1202 C1188 1.377 . S
C1202 C1201 1.373 . S
C1203 C1187 1.377 . S
C1203 C1201 1.389 . S
C1203 C1204 1.524 . S
C1204 C1203 1.524 . S
C1204 C1205 1.397 . S
C1204 C1209 1.363 . S
C1205 H1176 0.950 . S
C1205 C1204 1.397 . S
C1205 C1206 1.334 . S
C1206 H1177 0.950 . S
C1206 C1205 1.334 . S
C1206 C1207 1.287 . S
C1207 C1206 1.287 . S
C1207 C1208 1.524 . S
C1207 H1210 0.999 . S
C1208 H1178 0.950 . S
C1208 C1207 1.524 . S
C1208 C1209 1.415 . S
C1209 H1179 0.950 . S
C1209 C1204 1.363 . S
C1209 C1208 1.415 . S
H1210 C1207 0.999 . S
H1211 C1192 0.914 . S
H1212 C1230 0.951 . S
H1213 C1232 0.951 . S
H1214 C1234 0.950 . S
H1215 C1235 0.950 . S
H1216 C1237 0.950 . S
H1217 C1240 0.950 . S
H1218 C1241 0.950 . S
H1219 C1243 0.950 . S
H1220 C1244 0.950 . S
H1221 C1245 0.951 . S
H1222 C1247 0.951 . S
H1223 C1249 0.950 . S
H1224 C1250 0.950 . S
H1225 C1252 0.950 . S
H1226 C1255 0.950 . S
H1227 C1256 0.950 . S
H1228 C1258 0.950 . S
H1229 C1259 0.950 . S
C1230 H1212 0.951 . S
C1230 C1231 1.366 . S
C1230 C1232 1.388 . S
C1231 C1230 1.366 . S
C1231 C1235 1.385 . S
C1232 H1213 0.951 . S
C1232 C1230 1.388 . S
C1232 C1233 1.366 . S
C1233 C1232 1.366 . S
C1233 C1234 1.414 . S
C1233 C1236 1.499 . S
C1234 H1214 0.950 . S
C1234 C1233 1.414 . S
C1234 C1235 1.374 . S
C1235 H1215 0.950 . S
C1235 C1231 1.385 . S
C1235 C1234 1.374 . S
C1236 C1233 1.499 . S
C1236 C1237 1.373 . S
C1236 C1238 1.389 . S
C1237 H1216 0.950 . S
C1237 C1236 1.373 . S
C1237 C1253 1.377 . S
C1238 C1236 1.389 . S
C1238 C1239 1.524 . S
C1238 C1252 1.377 . S
C1239 C1238 1.524 . S
C1239 C1240 1.397 . S
C1239 C1244 1.363 . S
C1240 H1217 0.950 . S
C1240 C1239 1.397 . S
C1240 C1241 1.334 . S
C1241 H1218 0.950 . S
C1241 C1240 1.334 . S
C1241 C1242 1.287 . S
C1242 C1241 1.287 . S
C1242 C1243 1.524 . S
C1242 H1261 0.913 . S
C1243 H1219 0.950 . S
C1243 C1242 1.524 . S
C1243 C1244 1.415 . S
C1244 H1220 0.950 . S
C1244 C1239 1.363 . S
C1244 C1243 1.415 . S
C1245 H1221 0.951 . S
C1245 C1246 1.366 . S
C1245 C1247 1.388 . S
C1246 C1245 1.366 . S
C1246 C1250 1.385 . S
C1247 H1222 0.951 . S
C1247 C1245 1.388 . S
C1247 C1248 1.366 . S
C1248 C1247 1.366 . S
C1248 C1249 1.414 . S
C1248 C1251 1.499 . S
C1249 H1223 0.950 . S
C1249 C1248 1.414 . S
C1249 C1250 1.374 . S
C1250 H1224 0.950 . S
C1250 C1246 1.385 . S
C1250 C1249 1.374 . S
C1251 C1248 1.499 . S
C1251 C1252 1.373 . S
C1251 C1253 1.389 . S
C1252 H1225 0.950 . S
C1252 C1238 1.377 . S
C1252 C1251 1.373 . S
C1253 C1237 1.377 . S
C1253 C1251 1.389 . S
C1253 C1254 1.524 . S
C1254 C1253 1.524 . S
C1254 C1255 1.397 . S
C1254 C1259 1.363 . S
C1255 H1226 0.950 . S
C1255 C1254 1.397 . S
C1255 C1256 1.334 . S
C1256 H1227 0.950 . S
C1256 C1255 1.334 . S
C1256 C1257 1.287 . S
C1257 C1256 1.287 . S
C1257 C1258 1.524 . S
C1257 H1260 0.999 . S
C1258 H1228 0.950 . S
C1258 C1257 1.524 . S
C1258 C1259 1.415 . S
C1259 H1229 0.950 . S
C1259 C1254 1.363 . S
C1259 C1258 1.415 . S
H1260 C1257 0.999 . S
H1261 C1242 0.913 . S
H1262 C1280 0.951 . S
H1263 C1282 0.951 . S
H1264 C1284 0.950 . S
H1265 C1285 0.950 . S
H1266 C1287 0.950 . S
H1267 C1290 0.950 . S
H1268 C1291 0.950 . S
H1269 C1293 0.950 . S
H1270 C1294 0.950 . S
H1271 C1295 0.951 . S
H1272 C1297 0.951 . S
H1273 C1299 0.950 . S
H1274 C1300 0.950 . S
H1275 C1302 0.950 . S
H1276 C1305 0.950 . S
H1277 C1306 0.950 . S
H1278 C1308 0.950 . S
H1279 C1309 0.950 . S
C1280 H1262 0.951 . S
C1280 C1281 1.366 . S
C1280 C1282 1.388 . S
C1281 C1280 1.366 . S
C1281 C1285 1.385 . S
C1282 H1263 0.951 . S
C1282 C1280 1.388 . S
C1282 C1283 1.366 . S
C1283 C1282 1.366 . S
C1283 C1284 1.414 . S
C1283 C1286 1.499 . S
C1284 H1264 0.950 . S
C1284 C1283 1.414 . S
C1284 C1285 1.374 . S
C1285 H1265 0.950 . S
C1285 C1281 1.385 . S
C1285 C1284 1.374 . S
C1286 C1283 1.499 . S
C1286 C1287 1.373 . S
C1286 C1288 1.389 . S
C1287 H1266 0.950 . S
C1287 C1286 1.373 . S
C1287 C1303 1.377 . S
C1288 C1286 1.389 . S
C1288 C1289 1.524 . S
C1288 C1302 1.377 . S
C1289 C1288 1.524 . S
C1289 C1290 1.397 . S
C1289 C1294 1.363 . S
C1290 H1267 0.950 . S
C1290 C1289 1.397 . S
C1290 C1291 1.334 . S
C1291 H1268 0.950 . S
C1291 C1290 1.334 . S
C1291 C1292 1.287 . S
C1292 C1291 1.287 . S
C1292 C1293 1.524 . S
C1292 H1311 0.913 . S
C1293 H1269 0.950 . S
C1293 C1292 1.524 . S
C1293 C1294 1.415 . S
C1294 H1270 0.950 . S
C1294 C1289 1.363 . S
C1294 C1293 1.415 . S
C1295 H1271 0.951 . S
C1295 C1296 1.366 . S
C1295 C1297 1.388 . S
C1296 C1295 1.366 . S
C1296 C1300 1.385 . S
C1297 H1272 0.951 . S
C1297 C1295 1.388 . S
C1297 C1298 1.366 . S
C1298 C1297 1.366 . S
C1298 C1299 1.414 . S
C1298 C1301 1.499 . S
C1299 H1273 0.950 . S
C1299 C1298 1.414 . S
C1299 C1300 1.374 . S
C1300 H1274 0.950 . S
C1300 C1296 1.385 . S
C1300 C1299 1.374 . S
C1301 C1298 1.499 . S
C1301 C1302 1.373 . S
C1301 C1303 1.389 . S
C1302 H1275 0.950 . S
C1302 C1288 1.377 . S
C1302 C1301 1.373 . S
C1303 C1287 1.377 . S
C1303 C1301 1.389 . S
C1303 C1304 1.524 . S
C1304 C1303 1.524 . S
C1304 C1305 1.397 . S
C1304 C1309 1.363 . S
C1305 H1276 0.950 . S
C1305 C1304 1.397 . S
C1305 C1306 1.334 . S
C1306 H1277 0.950 . S
C1306 C1305 1.334 . S
C1306 C1307 1.287 . S
C1307 C1306 1.287 . S
C1307 C1308 1.524 . S
C1307 H1310 0.999 . S
C1308 H1278 0.950 . S
C1308 C1307 1.524 . S
C1308 C1309 1.415 . S
C1309 H1279 0.950 . S
C1309 C1304 1.363 . S
C1309 C1308 1.415 . S
H1310 C1307 0.999 . S
H1311 C1292 0.913 . S
H1312 C1330 0.951 . S
H1313 C1332 0.951 . S
H1314 C1334 0.950 . S
H1315 C1335 0.950 . S
H1316 C1337 0.950 . S
H1317 C1340 0.950 . S
H1318 C1341 0.950 . S
H1319 C1343 0.950 . S
H1320 C1344 0.950 . S
H1321 C1345 0.951 . S
H1322 C1347 0.951 . S
H1323 C1349 0.950 . S
H1324 C1350 0.950 . S
H1325 C1352 0.950 . S
H1326 C1355 0.950 . S
H1327 C1356 0.950 . S
H1328 C1358 0.950 . S
H1329 C1359 0.950 . S
C1330 H1312 0.951 . S
C1330 C1331 1.366 . S
C1330 C1332 1.388 . S
C1331 C1330 1.366 . S
C1331 C1335 1.385 . S
C1332 H1313 0.951 . S
C1332 C1330 1.388 . S
C1332 C1333 1.366 . S
C1333 C1332 1.366 . S
C1333 C1334 1.414 . S
C1333 C1336 1.499 . S
C1334 H1314 0.950 . S
C1334 C1333 1.414 . S
C1334 C1335 1.374 . S
C1335 H1315 0.950 . S
C1335 C1331 1.385 . S
C1335 C1334 1.374 . S
C1336 C1333 1.499 . S
C1336 C1337 1.373 . S
C1336 C1338 1.389 . S
C1337 H1316 0.950 . S
C1337 C1336 1.373 . S
C1337 C1353 1.377 . S
C1338 C1336 1.389 . S
C1338 C1339 1.524 . S
C1338 C1352 1.377 . S
C1339 C1338 1.524 . S
C1339 C1340 1.397 . S
C1339 C1344 1.363 . S
C1340 H1317 0.950 . S
C1340 C1339 1.397 . S
C1340 C1341 1.334 . S
C1341 H1318 0.950 . S
C1341 C1340 1.334 . S
C1341 C1342 1.287 . S
C1342 C1341 1.287 . S
C1342 C1343 1.524 . S
C1342 H1361 0.913 . S
C1343 H1319 0.950 . S
C1343 C1342 1.524 . S
C1343 C1344 1.415 . S
C1344 H1320 0.950 . S
C1344 C1339 1.363 . S
C1344 C1343 1.415 . S
C1345 H1321 0.951 . S
C1345 C1346 1.366 . S
C1345 C1347 1.388 . S
C1346 C1345 1.366 . S
C1346 C1350 1.385 . S
C1347 H1322 0.951 . S
C1347 C1345 1.388 . S
C1347 C1348 1.366 . S
C1348 C1347 1.366 . S
C1348 C1349 1.414 . S
C1348 C1351 1.499 . S
C1349 H1323 0.950 . S
C1349 C1348 1.414 . S
C1349 C1350 1.374 . S
C1350 H1324 0.950 . S
C1350 C1346 1.385 . S
C1350 C1349 1.374 . S
C1351 C1348 1.499 . S
C1351 C1352 1.373 . S
C1351 C1353 1.389 . S
C1352 H1325 0.950 . S
C1352 C1338 1.377 . S
C1352 C1351 1.373 . S
C1353 C1337 1.377 . S
C1353 C1351 1.389 . S
C1353 C1354 1.524 . S
C1354 C1353 1.524 . S
C1354 C1355 1.397 . S
C1354 C1359 1.363 . S
C1355 H1326 0.950 . S
C1355 C1354 1.397 . S
C1355 C1356 1.334 . S
C1356 H1327 0.950 . S
C1356 C1355 1.334 . S
C1356 C1357 1.287 . S
C1357 C1356 1.287 . S
C1357 C1358 1.524 . S
C1357 H1360 0.999 . S
C1358 H1328 0.950 . S
C1358 C1357 1.524 . S
C1358 C1359 1.415 . S
C1359 H1329 0.950 . S
C1359 C1354 1.363 . S
C1359 C1358 1.415 . S
H1360 C1357 0.999 . S
H1361 C1342 0.913 . S
H1362 C1380 0.951 . S
H1363 C1382 0.951 . S
H1364 C1384 0.950 . S
H1365 C1385 0.950 . S
H1366 C1387 0.950 . S
H1367 C1390 0.950 . S
H1368 C1391 0.950 . S
H1369 C1393 0.950 . S
H1370 C1394 0.950 . S
H1371 C1395 0.951 . S
H1372 C1397 0.951 . S
H1373 C1399 0.950 . S
H1374 C1400 0.950 1_545 S
H1375 C1402 0.950 . S
H1376 C1405 0.950 . S
H1377 C1406 0.950 . S
H1378 C1408 0.950 . S
H1379 C1409 0.950 . S
C1380 H1362 0.951 . S
C1380 C1381 1.366 . S
C1380 C1382 1.388 . S
C1381 C1380 1.366 . S
C1381 C1385 1.385 . S
C1382 H1363 0.951 . S
C1382 C1380 1.388 . S
C1382 C1383 1.366 . S
C1383 C1382 1.366 . S
C1383 C1384 1.414 . S
C1383 C1386 1.499 . S
C1384 H1364 0.950 . S
C1384 C1383 1.414 . S
C1384 C1385 1.374 . S
C1385 H1365 0.950 . S
C1385 C1381 1.385 . S
C1385 C1384 1.374 . S
C1386 C1383 1.499 . S
C1386 C1387 1.373 . S
C1386 C1388 1.389 . S
C1387 H1366 0.950 . S
C1387 C1386 1.373 . S
C1387 C1403 1.377 . S
C1388 C1386 1.389 . S
C1388 C1389 1.524 . S
C1388 C1402 1.377 . S
C1389 C1388 1.524 . S
C1389 C1390 1.397 . S
C1389 C1394 1.363 . S
C1390 H1367 0.950 . S
C1390 C1389 1.397 . S
C1390 C1391 1.334 . S
C1391 H1368 0.950 . S
C1391 C1390 1.334 . S
C1391 C1392 1.287 . S
C1392 C1391 1.287 . S
C1392 C1393 1.524 . S
C1392 H1411 0.913 . S
C1393 H1369 0.950 . S
C1393 C1392 1.524 . S
C1393 C1394 1.415 . S
C1394 H1370 0.950 . S
C1394 C1389 1.363 . S
C1394 C1393 1.415 . S
C1395 H1371 0.951 . S
C1395 C1396 1.366 . S
C1395 C1397 1.388 . S
C1396 C1395 1.366 . S
C1396 C1400 1.385 . S
C1397 H1372 0.951 . S
C1397 C1395 1.388 . S
C1397 C1398 1.366 . S
C1398 C1397 1.366 . S
C1398 C1399 1.414 . S
C1398 C1401 1.499 . S
C1399 H1373 0.950 . S
C1399 C1398 1.414 . S
C1399 C1400 1.374 . S
C1400 H1374 0.950 1_565 S
C1400 C1396 1.385 . S
C1400 C1399 1.374 . S
C1401 C1398 1.499 . S
C1401 C1402 1.373 . S
C1401 C1403 1.389 . S
C1402 H1375 0.950 . S
C1402 C1388 1.377 . S
C1402 C1401 1.373 . S
C1403 C1387 1.377 . S
C1403 C1401 1.389 . S
C1403 C1404 1.524 . S
C1404 C1403 1.524 . S
C1404 C1405 1.397 . S
C1404 C1409 1.363 . S
C1405 H1376 0.950 . S
C1405 C1404 1.397 . S
C1405 C1406 1.334 . S
C1406 H1377 0.950 . S
C1406 C1405 1.334 . S
C1406 C1407 1.287 . S
C1407 C1406 1.287 . S
C1407 C1408 1.524 . S
C1407 H1410 0.999 . S
C1408 H1378 0.950 . S
C1408 C1407 1.524 . S
C1408 C1409 1.415 . S
C1409 H1379 0.950 . S
C1409 C1404 1.363 . S
C1409 C1408 1.415 . S
H1410 C1407 0.999 . S
H1411 C1392 0.913 . S
H1412 C1430 0.951 . S
H1413 C1432 0.951 . S
H1414 C1434 0.950 . S
H1415 C1435 0.950 . S
H1416 C1437 0.950 . S
H1417 C1440 0.950 . S
H1418 C1441 0.950 . S
H1419 C1443 0.950 . S
H1420 C1444 0.950 . S
H1421 C1445 0.951 . S
H1422 C1447 0.951 . S
H1423 C1449 0.950 . S
H1424 C1450 0.950 . S
H1425 C1452 0.950 . S
H1426 C1455 0.950 . S
H1427 C1456 0.950 . S
H1428 C1458 0.950 . S
H1429 C1459 0.950 . S
C1430 H1412 0.951 . S
C1430 C1431 1.366 . S
C1430 C1432 1.388 . S
C1431 C1430 1.366 . S
C1431 C1435 1.385 . S
C1432 H1413 0.951 . S
C1432 C1430 1.388 . S
C1432 C1433 1.366 . S
C1433 C1432 1.366 . S
C1433 C1434 1.414 . S
C1433 C1436 1.499 . S
C1434 H1414 0.950 . S
C1434 C1433 1.414 . S
C1434 C1435 1.374 . S
C1435 H1415 0.950 . S
C1435 C1431 1.385 . S
C1435 C1434 1.374 . S
C1436 C1433 1.499 . S
C1436 C1437 1.373 . S
C1436 C1438 1.389 . S
C1437 H1416 0.950 . S
C1437 C1436 1.373 . S
C1437 C1453 1.377 . S
C1438 C1436 1.389 . S
C1438 C1439 1.524 . S
C1438 C1452 1.377 . S
C1439 C1438 1.524 . S
C1439 C1440 1.397 . S
C1439 C1444 1.363 . S
C1440 H1417 0.950 . S
C1440 C1439 1.397 . S
C1440 C1441 1.334 . S
C1441 H1418 0.950 . S
C1441 C1440 1.334 . S
C1441 C1442 1.287 . S
C1442 C1441 1.287 . S
C1442 C1443 1.524 . S
C1442 H1461 0.913 . S
C1443 H1419 0.950 . S
C1443 C1442 1.524 . S
C1443 C1444 1.415 . S
C1444 H1420 0.950 . S
C1444 C1439 1.363 . S
C1444 C1443 1.415 . S
C1445 H1421 0.951 . S
C1445 C1446 1.366 . S
C1445 C1447 1.388 . S
C1446 C1445 1.366 . S
C1446 C1450 1.385 . S
C1447 H1422 0.951 . S
C1447 C1445 1.388 . S
C1447 C1448 1.366 . S
C1448 C1447 1.366 . S
C1448 C1449 1.414 . S
C1448 C1451 1.499 . S
C1449 H1423 0.950 . S
C1449 C1448 1.414 . S
C1449 C1450 1.374 . S
C1450 H1424 0.950 . S
C1450 C1446 1.385 . S
C1450 C1449 1.374 . S
C1451 C1448 1.499 . S
C1451 C1452 1.373 . S
C1451 C1453 1.389 . S
C1452 H1425 0.950 . S
C1452 C1438 1.377 . S
C1452 C1451 1.373 . S
C1453 C1437 1.377 . S
C1453 C1451 1.389 . S
C1453 C1454 1.524 . S
C1454 C1453 1.524 . S
C1454 C1455 1.397 . S
C1454 C1459 1.363 . S
C1455 H1426 0.950 . S
C1455 C1454 1.397 . S
C1455 C1456 1.334 . S
C1456 H1427 0.950 . S
C1456 C1455 1.334 . S
C1456 C1457 1.287 . S
C1457 C1456 1.287 . S
C1457 C1458 1.524 . S
C1457 H1460 0.999 . S
C1458 H1428 0.950 . S
C1458 C1457 1.524 . S
C1458 C1459 1.415 . S
C1459 H1429 0.950 . S
C1459 C1454 1.363 . S
C1459 C1458 1.415 . S
H1460 C1457 0.999 . S
H1461 C1442 0.913 . S
H1462 C1480 0.951 . S
H1463 C1482 0.951 . S
H1464 C1484 0.950 . S
H1465 C1485 0.950 . S
H1466 C1487 0.950 . S
H1467 C1490 0.950 . S
H1468 C1491 0.950 . S
H1469 C1493 0.950 . S
H1470 C1494 0.950 . S
H1471 C1495 0.951 . S
H1472 C1497 0.951 . S
H1473 C1499 0.950 . S
H1474 C1500 0.950 . S
H1475 C1502 0.950 . S
H1476 C1505 0.950 . S
H1477 C1506 0.950 . S
H1478 C1508 0.950 . S
H1479 C1509 0.950 . S
C1480 H1462 0.951 . S
C1480 C1481 1.366 . S
C1480 C1482 1.388 . S
C1481 C1480 1.366 . S
C1481 C1485 1.385 . S
C1482 H1463 0.951 . S
C1482 C1480 1.388 . S
C1482 C1483 1.366 . S
C1483 C1482 1.366 . S
C1483 C1484 1.414 . S
C1483 C1486 1.499 . S
C1484 H1464 0.950 . S
C1484 C1483 1.414 . S
C1484 C1485 1.374 . S
C1485 H1465 0.950 . S
C1485 C1481 1.385 . S
C1485 C1484 1.374 . S
C1486 C1483 1.499 . S
C1486 C1487 1.373 . S
C1486 C1488 1.389 . S
C1487 H1466 0.950 . S
C1487 C1486 1.373 . S
C1487 C1503 1.377 . S
C1488 C1486 1.389 . S
C1488 C1489 1.524 . S
C1488 C1502 1.377 . S
C1489 C1488 1.524 . S
C1489 C1490 1.397 . S
C1489 C1494 1.363 . S
C1490 H1467 0.950 . S
C1490 C1489 1.397 . S
C1490 C1491 1.334 . S
C1491 H1468 0.950 . S
C1491 C1490 1.334 . S
C1491 C1492 1.287 . S
C1492 C1491 1.287 . S
C1492 C1493 1.524 . S
C1492 H1511 0.913 . S
C1493 H1469 0.950 . S
C1493 C1492 1.524 . S
C1493 C1494 1.415 . S
C1494 H1470 0.950 . S
C1494 C1489 1.363 . S
C1494 C1493 1.415 . S
C1495 H1471 0.951 . S
C1495 C1496 1.366 . S
C1495 C1497 1.388 . S
C1496 C1495 1.366 . S
C1496 C1500 1.385 . S
C1497 H1472 0.951 . S
C1497 C1495 1.388 . S
C1497 C1498 1.366 . S
C1498 C1497 1.366 . S
C1498 C1499 1.414 . S
C1498 C1501 1.499 . S
C1499 H1473 0.950 . S
C1499 C1498 1.414 . S
C1499 C1500 1.374 . S
C1500 H1474 0.950 . S
C1500 C1496 1.385 . S
C1500 C1499 1.374 . S
C1501 C1498 1.499 . S
C1501 C1502 1.373 . S
C1501 C1503 1.389 . S
C1502 H1475 0.950 . S
C1502 C1488 1.377 . S
C1502 C1501 1.373 . S
C1503 C1487 1.377 . S
C1503 C1501 1.389 . S
C1503 C1504 1.524 . S
C1504 C1503 1.524 . S
C1504 C1505 1.397 . S
C1504 C1509 1.363 . S
C1505 H1476 0.950 . S
C1505 C1504 1.397 . S
C1505 C1506 1.334 . S
C1506 H1477 0.950 . S
C1506 C1505 1.334 . S
C1506 C1507 1.287 . S
C1507 C1506 1.287 . S
C1507 C1508 1.524 . S
C1507 H1510 0.999 . S
C1508 H1478 0.950 . S
C1508 C1507 1.524 . S
C1508 C1509 1.415 . S
C1509 H1479 0.950 . S
C1509 C1504 1.363 . S
C1509 C1508 1.415 . S
H1510 C1507 0.999 . S
H1511 C1492 0.913 . S
C331 C6 1.162 . S
C346 C167 1.170 . S
C381 C21 2.037 . S
C396 C211 2.066 . S
C446 C241 1.502 . S
C431 C49 1.404 . S
C481 C68 2.527 . S
C496 C282 2.555 . S
C546 C198 1.636 . S
C531 C2 1.599 . S
C596 C162 2.163 1_565 S
C581 C30 2.105 . S
C646 C290 1.014 . S
C631 C40 1.041 . S
C696 C251 2.051 . S
C681 C63 2.122 . S
C731 C11 0.785 . S
C746 C287 0.793 . S
C796 C201 2.272 . S
C781 C44 2.330 . S
C831 C59 1.645 . S
C846 C170 1.637 . S
C881 C25 2.532 . S
C896 C238 2.496 . S
C946 C158 1.519 . S
C931 C82 1.521 . S
C981 C101 1.478 . S
C996 C202 1.481 . S
C1031 C125 1.524 . S
C1046 C250 1.703 . S
C1081 C144 2.077 . S
C1096 C291 2.112 . S
C1131 C87 0.624 . S
C1146 C207 0.570 . S
C1196 C171 3.407 . S
C1181 C97 3.366 . S
C1246 C281 0.921 . S
C1231 C120 0.909 . S
C1296 C242 1.657 . S
C1281 C135 1.665 . S
C1331 C78 1.390 . S
C1346 C278 1.416 . S
C1396 C210 1.213 . S
C1381 C116 1.207 . S
C1446 C161 2.289 . S
C1431 C139 2.362 . S
C1481 C106 1.634 . S
C1496 C247 1.923 . S
