# Generated by pormake.
# Topology apo, (3,6)-cn, num edge types: 1
# Building blocks:
#     Node 0, Type 0, BuildingBlock: CUQRIR_clean_linker_1, # of connection points: 3
#     Node 1, Type 0, BuildingBlock: CUQRIR_clean_linker_1, # of connection points: 3
#     Node 2, Type 0, BuildingBlock: CUQRIR_clean_linker_1, # of connection points: 3
#     Node 3, Type 0, BuildingBlock: CUQRIR_clean_linker_1, # of connection points: 3
#     Node 4, Type 0, BuildingBlock: CUQRIR_clean_linker_1, # of connection points: 3
#     Node 5, Type 0, BuildingBlock: CUQRIR_clean_linker_1, # of connection points: 3
#     Node 6, Type 0, BuildingBlock: CUQRIR_clean_linker_1, # of connection points: 3
#     Node 7, Type 0, BuildingBlock: CUQRIR_clean_linker_1, # of connection points: 3
#     Node 8, Type 1, BuildingBlock: KUMBUR_clean_sbu_1, # of connection points: 6
#     Node 9, Type 1, BuildingBlock: KUMBUR_clean_sbu_1, # of connection points: 6
#     Node 10, Type 1, BuildingBlock: KUMBUR_clean_sbu_1, # of connection points: 6
#     Node 11, Type 1, BuildingBlock: KUMBUR_clean_sbu_1, # of connection points: 6
#     Edge 12, Type (0, 1), BuildingBlock: AJUNOK_clean_linker_0, # of connection points: 2
#     Edge 13, Type (0, 1), BuildingBlock: AJUNOK_clean_linker_0, # of connection points: 2
#     Edge 14, Type (0, 1), BuildingBlock: AJUNOK_clean_linker_0, # of connection points: 2
#     Edge 15, Type (0, 1), BuildingBlock: AJUNOK_clean_linker_0, # of connection points: 2
#     Edge 16, Type (0, 1), BuildingBlock: AJUNOK_clean_linker_0, # of connection points: 2
#     Edge 17, Type (0, 1), BuildingBlock: AJUNOK_clean_linker_0, # of connection points: 2
#     Edge 18, Type (0, 1), BuildingBlock: AJUNOK_clean_linker_0, # of connection points: 2
#     Edge 19, Type (0, 1), BuildingBlock: AJUNOK_clean_linker_0, # of connection points: 2
#     Edge 20, Type (0, 1), BuildingBlock: AJUNOK_clean_linker_0, # of connection points: 2
#     Edge 21, Type (0, 1), BuildingBlock: AJUNOK_clean_linker_0, # of connection points: 2
#     Edge 22, Type (0, 1), BuildingBlock: AJUNOK_clean_linker_0, # of connection points: 2
#     Edge 23, Type (0, 1), BuildingBlock: AJUNOK_clean_linker_0, # of connection points: 2
#     Edge 24, Type (0, 1), BuildingBlock: AJUNOK_clean_linker_0, # of connection points: 2
#     Edge 25, Type (0, 1), BuildingBlock: AJUNOK_clean_linker_0, # of connection points: 2
#     Edge 26, Type (0, 1), BuildingBlock: AJUNOK_clean_linker_0, # of connection points: 2
#     Edge 27, Type (0, 1), BuildingBlock: AJUNOK_clean_linker_0, # of connection points: 2
#     Edge 28, Type (0, 1), BuildingBlock: AJUNOK_clean_linker_0, # of connection points: 2
#     Edge 29, Type (0, 1), BuildingBlock: AJUNOK_clean_linker_0, # of connection points: 2
#     Edge 30, Type (0, 1), BuildingBlock: AJUNOK_clean_linker_0, # of connection points: 2
#     Edge 31, Type (0, 1), BuildingBlock: AJUNOK_clean_linker_0, # of connection points: 2
#     Edge 32, Type (0, 1), BuildingBlock: AJUNOK_clean_linker_0, # of connection points: 2
#     Edge 33, Type (0, 1), BuildingBlock: AJUNOK_clean_linker_0, # of connection points: 2
#     Edge 34, Type (0, 1), BuildingBlock: AJUNOK_clean_linker_0, # of connection points: 2
#     Edge 35, Type (0, 1), BuildingBlock: AJUNOK_clean_linker_0, # of connection points: 2
# Relax obj value: 0.043
# Max RMSD: 0.250
# Mean RMSD: 0.192
data_MOF--net-apo--node1-KUMBUR_clean_sbu_1--node2-CUQRIR_clean_linker_1--edge1-AJUNOK_clean_linker_0
_symmetry_space_group_name_H-M    P1
_symmetry_Int_Tables_number       1
_symmetry_cell_setting            triclinic
loop_
_symmetry_equiv_pos_as_xyz
'x, y, z'
_cell_length_a     18.975113
_cell_length_b     27.762652
_cell_length_c     34.94879
_cell_angle_alpha  89.491216
_cell_angle_beta   90.17508
_cell_angle_gamma 90.902518
loop_
_atom_site_label
_atom_site_type_symbol
_atom_site_fract_x
_atom_site_fract_y
_atom_site_fract_z
_atom_type_partial_charge
C0 C 0.239 0.32736 0.42658 0.0
N1 N 0.2786 0.36788 0.43103 0.0
N2 N 0.23694 0.31436 0.38946 0.0
C3 C 0.20177 0.30059 0.45843 0.0
C4 C 0.27655 0.34833 0.37132 0.0
N5 N 0.30262 0.38076 0.39669 0.0
C6 C 0.28538 0.35179 0.3286 0.0
H7 H 0.23385 0.30143 0.48503 0.0
H8 H 0.19048 0.26263 0.45047 0.0
H9 H 0.15105 0.3184 0.46431 0.0
H10 H 0.24348 0.3312 0.31336 0.0
H11 H 0.33717 0.33677 0.3208 0.0
H12 H 0.28474 0.38996 0.31901 0.0
C13 C 0.25847 0.18037 0.93945 0.0
N14 N 0.21929 0.13906 0.94045 0.0
N15 N 0.27138 0.19414 0.90296 0.0
C16 C 0.28402 0.20754 0.97393 0.0
C17 C 0.23953 0.15985 0.88162 0.0
N18 N 0.20701 0.12648 0.90428 0.0
C19 C 0.24498 0.15715 0.83873 0.0
H20 H 0.24671 0.20287 0.99812 0.0
H21 H 0.29081 0.24646 0.96712 0.0
H22 H 0.33596 0.19337 0.98282 0.0
H23 H 0.29294 0.17627 0.82813 0.0
H24 H 0.19835 0.17445 0.82563 0.0
H25 H 0.24625 0.11908 0.82944 0.0
C26 C 0.75285 0.19527 0.65545 0.0
N27 N 0.79752 0.15766 0.65425 0.0
N28 N 0.73625 0.20546 0.69205 0.0
C29 C 0.7253 0.22195 0.6209 0.0
C30 C 0.77264 0.1733 0.71318 0.0
N31 N 0.81076 0.14463 0.69026 0.0
C32 C 0.77107 0.16974 0.75628 0.0
H33 H 0.76727 0.22659 0.59907 0.0
H34 H 0.70446 0.25767 0.62828 0.0
H35 H 0.6814 0.20076 0.60805 0.0
H36 H 0.728 0.19062 0.76902 0.0
H37 H 0.82147 0.18419 0.76792 0.0
H38 H 0.7657 0.13148 0.76544 0.0
C39 C 0.77606 0.34082 0.15536 0.0
N40 N 0.73428 0.37964 0.15094 0.0
N41 N 0.7915 0.33349 0.19271 0.0
C42 C 0.8048 0.31136 0.1232 0.0
C43 C 0.7579 0.36899 0.21102 0.0
N44 N 0.72381 0.39744 0.18566 0.0
C45 C 0.75616 0.37465 0.25385 0.0
H46 H 0.76527 0.28327 0.1153 0.0
H47 H 0.85413 0.2933 0.13194 0.0
H48 H 0.81532 0.33432 0.09764 0.0
H49 H 0.80039 0.39882 0.26245 0.0
H50 H 0.76256 0.33946 0.26864 0.0
H51 H 0.70649 0.39104 0.26351 0.0
C52 C 0.77327 0.681 0.64995 0.0
N53 N 0.73343 0.64027 0.64641 0.0
N54 N 0.77662 0.69485 0.6869 0.0
C55 C 0.80894 0.70745 0.61749 0.0
C56 C 0.73795 0.66125 0.70592 0.0
N57 N 0.7115 0.62805 0.68139 0.0
C58 C 0.73175 0.65872 0.74878 0.0
H59 H 0.86133 0.69145 0.61261 0.0
H60 H 0.81697 0.74609 0.6244 0.0
H61 H 0.77751 0.70411 0.59079 0.0
H62 H 0.73007 0.69542 0.76096 0.0
H63 H 0.77918 0.64084 0.76042 0.0
H64 H 0.68442 0.6378 0.75795 0.0
C65 C 0.72641 0.8343 0.15245 0.0
N66 N 0.76016 0.87719 0.14672 0.0
N67 N 0.71263 0.82712 0.19004 0.0
C68 C 0.70353 0.80064 0.12114 0.0
C69 C 0.73803 0.8673 0.20704 0.0
N70 N 0.76646 0.89794 0.18081 0.0
C71 C 0.7358 0.87668 0.24932 0.0
H72 H 0.66365 0.77392 0.1314 0.0
H73 H 0.75017 0.7811 0.11072 0.0
H74 H 0.68155 0.82136 0.09668 0.0
H75 H 0.78976 0.8851 0.25991 0.0
H76 H 0.71381 0.84549 0.26563 0.0
H77 H 0.70309 0.90873 0.25453 0.0
C78 C 0.25996 0.82927 0.42507 0.0
N79 N 0.21309 0.86555 0.42646 0.0
N80 N 0.28401 0.8239 0.38905 0.0
C81 C 0.2801 0.79762 0.45847 0.0
C82 C 0.24901 0.85701 0.36825 0.0
N83 N 0.20514 0.88204 0.39085 0.0
C84 C 0.25665 0.86409 0.32565 0.0
H85 H 0.32546 0.81448 0.47363 0.0
H86 H 0.29639 0.7615 0.44896 0.0
H87 H 0.23577 0.79347 0.47893 0.0
H88 H 0.30787 0.85093 0.31521 0.0
H89 H 0.25172 0.90271 0.31779 0.0
H90 H 0.21417 0.84347 0.31093 0.0
C91 C 0.24162 0.68636 0.92237 0.0
N92 N 0.28656 0.64928 0.92704 0.0
N93 N 0.22349 0.6915 0.88506 0.0
C94 C 0.21813 0.71892 0.95403 0.0
C95 C 0.25916 0.65663 0.86713 0.0
N96 N 0.2984 0.63145 0.89252 0.0
C97 C 0.25799 0.64848 0.82453 0.0
H98 H 0.18074 0.69899 0.97287 0.0
H99 H 0.19079 0.75121 0.9431 0.0
H100 H 0.26412 0.73018 0.9717 0.0
H101 H 0.30145 0.6698 0.81116 0.0
H102 H 0.20788 0.66017 0.8114 0.0
H103 H 0.26559 0.60987 0.81797 0.0
Tb104 Tb 0.06149 0.10484 0.24438 0.0
C105 C 0.76587 0.08048 0.31395 0.0
N106 N 0.81072 0.11886 0.31754 0.0
C107 C 0.71512 0.17267 0.30517 0.0
C108 C 0.69407 0.08671 0.30488 0.0
C109 C 0.78539 0.16471 0.31524 0.0
C110 C 0.66942 0.1335 0.29949 0.0
C111 C 0.74559 0.99427 0.32061 0.0
C112 C 0.79104 0.03486 0.32169 0.0
C113 C 0.67471 1.00006 0.31013 0.0
C114 C 0.64893 0.0462 0.30242 0.0
Tb115 Tb 0.92444 0.10045 0.33379 0.0
N116 N 0.85976 0.03058 0.33186 0.0
C117 C 0.77224 0.94939 0.33143 0.0
C118 C 0.88467 0.9876 0.34527 0.0
C119 C 0.84185 0.94616 0.34428 0.0
H120 H 0.8186 0.19552 0.32177 0.0
H121 H 0.86229 0.91189 0.35378 0.0
H122 H 0.19319 0.04272 0.2802 0.0
H123 H 0.05299 0.28305 0.1798 0.0
H124 H 0.9381 0.98538 0.35582 0.0
H125 H 0.73893 0.91734 0.33113 0.0
H126 H 0.00907 0.20076 0.19275 0.0
H127 H 0.69593 0.20907 0.30254 0.0
H128 H 0.63902 0.96926 0.30879 0.0
H129 H 0.59377 0.05026 0.29517 0.0
H130 H 0.3175 0.05775 0.29839 0.0
H131 H 0.61475 0.13981 0.29224 0.0
H132 H 0.17105 0.30867 0.20284 0.0
N133 N 0.17657 0.11477 0.26156 0.0
C134 C 0.20616 0.1587 0.25422 0.0
C135 C 0.28659 0.08658 0.28626 0.0
C136 C 0.27681 0.16902 0.26409 0.0
C137 C 0.21603 0.07825 0.2762 0.0
C138 C 0.31698 0.13228 0.28052 0.0
N139 N 0.09794 0.18099 0.22663 0.0
C140 C 0.05925 0.21184 0.20461 0.0
C141 C 0.19321 0.23961 0.22911 0.0
C142 C 0.16487 0.19335 0.23701 0.0
C143 C 0.1514 0.27269 0.20938 0.0
C144 C 0.08468 0.25838 0.19641 0.0
H145 H 0.3715 0.13869 0.28854 0.0
H146 H 0.35851 0.22446 0.26539 0.0
H147 H 0.28524 0.28638 0.23478 0.0
O148 O 0.09291 0.10923 0.18632 0.0
O149 O 0.09502 0.13224 0.30086 0.0
O150 O 0.99628 0.16283 0.33002 0.0
O151 O 0.08426 0.04011 0.21613 0.0
O152 O 0.96265 0.14468 0.23893 0.0
O153 O 0.92845 0.16777 0.29995 0.0
O154 O 0.95754 0.07992 0.38898 0.0
O155 O 0.9234 0.04588 0.28819 0.0
O156 O 0.95079 0.08782 0.23368 0.0
O157 O 0.86665 0.12364 0.38146 0.0
O158 O 0.02749 0.06888 0.341 0.0
O159 O 0.06022 0.04012 0.28169 0.0
C160 C 0.06425 0.1647 0.32219 0.0
C161 C 0.11855 0.03759 0.14876 0.0
C162 C 0.14805 0.03851 0.08063 0.0
C163 C 0.15309 0.98821 0.08159 0.0
C164 C 0.12353 0.98713 0.14894 0.0
C165 C 0.14067 0.96271 0.11556 0.0
C166 C 0.13073 0.06322 0.11427 0.0
C167 C 0.93246 0.17466 0.26261 0.0
C168 C 0.09745 0.0627 0.18406 0.0
C169 C 0.30463 0.21554 0.25751 0.0
C170 C 0.26281 0.25084 0.24019 0.0
C171 C 0.91643 0.0531 0.25127 0.0
C172 C 0.93129 0.1331 0.43866 0.0
C173 C 0.92522 0.15033 0.50713 0.0
C174 C 0.96833 0.19146 0.50071 0.0
C175 C 0.97465 0.17379 0.43314 0.0
C176 C 0.90844 0.12068 0.4757 0.0
C177 C 0.9934 0.20267 0.4641 0.0
C178 C 0.05764 0.03694 0.31943 0.0
C179 C 0.90853 0.10354 0.40609 0.0
H180 H 0.1668 0.96871 0.05601 0.0
H181 H 0.11376 0.96641 0.17485 0.0
H182 H 0.14439 0.92385 0.11603 0.0
H183 H 0.12699 0.10214 0.11351 0.0
H184 H 0.98155 0.21571 0.52383 0.0
H185 H 0.99365 0.18315 0.40493 0.0
H186 H 0.8774 0.08798 0.47974 0.0
H187 H 0.02647 0.23435 0.45959 0.0
Tb188 Tb 0.41787 0.41084 0.75427 0.0
C189 C 0.73574 0.42287 0.80745 0.0
N190 N 0.68995 0.38525 0.81257 0.0
C191 C 0.7805 0.32978 0.79623 0.0
C192 C 0.80592 0.41544 0.79623 0.0
C193 C 0.71147 0.33898 0.80772 0.0
C194 C 0.82788 0.36817 0.79031 0.0
C195 C 0.75821 0.50905 0.81046 0.0
C196 C 0.71228 0.46904 0.81437 0.0
C197 C 0.82808 0.50198 0.79885 0.0
C198 C 0.85185 0.4553 0.79168 0.0
Tb199 Tb 0.57872 0.40517 0.83054 0.0
N200 N 0.6438 0.47451 0.82469 0.0
C201 C 0.7325 0.55482 0.81862 0.0
C202 C 0.61916 0.51869 0.83407 0.0
C203 C 0.66277 0.55961 0.83066 0.0
H204 H 0.67558 0.30905 0.81296 0.0
H205 H 0.64283 0.59475 0.83768 0.0
H206 H 0.31456 0.50241 0.77474 0.0
H207 H 0.36905 0.21902 0.74512 0.0
H208 H 0.56631 0.52237 0.8445 0.0
H209 H 0.7663 0.58649 0.81637 0.0
H210 H 0.43959 0.29396 0.73888 0.0
H211 H 0.79715 0.29309 0.79203 0.0
H212 H 0.86423 0.53232 0.79551 0.0
H213 H 0.906 0.45037 0.78298 0.0
H214 H 0.19096 0.51345 0.79431 0.0
H215 H 0.88137 0.36091 0.78154 0.0
H216 H 0.24452 0.22243 0.76556 0.0
N217 N 0.30484 0.42606 0.77163 0.0
C218 C 0.26168 0.38677 0.77538 0.0
C219 C 0.21024 0.47762 0.78912 0.0
C220 C 0.19062 0.39141 0.78605 0.0
C221 C 0.28038 0.4712 0.77833 0.0
C222 C 0.16512 0.43758 0.79296 0.0
N223 N 0.35854 0.33882 0.759 0.0
C224 C 0.38666 0.29572 0.74942 0.0
C225 C 0.24628 0.29997 0.77177 0.0
C226 C 0.28928 0.34162 0.76871 0.0
C227 C 0.27585 0.25532 0.76375 0.0
C228 C 0.34621 0.25325 0.75228 0.0
H229 H 0.11077 0.44271 0.80121 0.0
H230 H 0.09277 0.35273 0.79771 0.0
H231 H 0.14144 0.2727 0.78505 0.0
O232 O 0.4355 0.39465 0.69639 0.0
O233 O 0.39747 0.37749 0.81101 0.0
O234 O 0.50279 0.34529 0.8305 0.0
O235 O 0.35714 0.44571 0.71197 0.0
O236 O 0.51356 0.37188 0.73914 0.0
O237 O 0.55681 0.34186 0.79614 0.0
O238 O 0.56705 0.42597 0.88803 0.0
O239 O 0.5979 0.44148 0.77441 0.0
O240 O 0.491 0.47183 0.75551 0.0
O241 O 0.63515 0.368 0.87307 0.0
O242 O 0.48401 0.44491 0.84608 0.0
O243 O 0.43599 0.47457 0.78959 0.0
C244 C 0.43379 0.34746 0.83241 0.0
C245 C 0.33699 0.40084 0.65559 0.0
C246 C 0.29793 0.39092 0.58942 0.0
C247 C 0.24518 0.35851 0.60213 0.0
C248 C 0.28326 0.3689 0.66742 0.0
C249 C 0.238 0.34763 0.64087 0.0
C250 C 0.34473 0.41157 0.61627 0.0
C251 C 0.55425 0.34281 0.7587 0.0
C252 C 0.3855 0.42237 0.68398 0.0
C253 C 0.14759 0.34992 0.78956 0.0
C254 C 0.17532 0.30433 0.7824 0.0
C255 C 0.55992 0.47079 0.7531 0.0
C256 C 0.66687 0.41367 0.92736 0.0
C257 C 0.70626 0.42761 0.9932 0.0
C258 C 0.77208 0.44339 0.97883 0.0
C259 C 0.73254 0.43026 0.914 0.0
C260 C 0.65364 0.41279 0.96699 0.0
C261 C 0.78458 0.44526 0.93958 0.0
C262 C 0.44427 0.4752 0.82705 0.0
C263 C 0.61304 0.3952 0.9005 0.0
H264 H 0.20955 0.34138 0.58192 0.0
H265 H 0.27604 0.36031 0.69711 0.0
H266 H 0.19712 0.3227 0.65038 0.0
H267 H 0.38616 0.43613 0.6067 0.0
H268 H 0.81512 0.45275 0.99789 0.0
H269 H 0.74445 0.43055 0.88393 0.0
H270 H 0.60299 0.39975 0.97737 0.0
H271 H 0.83554 0.45719 0.92897 0.0
Tb272 Tb 0.07085 0.91951 0.74481 0.0
C273 C 0.78152 0.86598 0.81659 0.0
N274 N 0.81664 0.90888 0.81341 0.0
C275 C 0.71164 0.9462 0.78986 0.0
C276 C 0.71044 0.86116 0.80521 0.0
C277 C 0.78228 0.94914 0.80127 0.0
C278 C 0.67566 0.90197 0.79158 0.0
C279 C 0.78428 0.78095 0.83274 0.0
C280 C 0.81801 0.82648 0.83021 0.0
C281 C 0.71363 0.77579 0.82109 0.0
C282 C 0.67676 0.81582 0.80745 0.0
Tb283 Tb 0.93129 0.90939 0.83355 0.0
N284 N 0.88655 0.83278 0.84088 0.0
C285 C 0.82242 0.74209 0.84719 0.0
C286 C 0.92235 0.79564 0.85731 0.0
C287 C 0.89145 0.74963 0.86 0.0
H288 H 0.80816 0.98396 0.80125 0.0
H289 H 0.92061 0.72016 0.87244 0.0
H290 H 0.18139 0.8265 0.75074 0.0
H291 H 0.13066 0.10913 0.72876 0.0
H292 H 0.97405 0.80135 0.86937 0.0
H293 H 0.79855 0.70645 0.84942 0.0
H294 H 0.05837 0.03443 0.72164 0.0
H295 H 0.68483 0.97816 0.78006 0.0
H296 H 0.6869 0.74106 0.82274 0.0
H297 H 0.62226 0.81132 0.79866 0.0
H298 H 0.30366 0.81346 0.77184 0.0
H299 H 0.62099 0.89982 0.78263 0.0
H300 H 0.24987 0.10499 0.75751 0.0
N301 N 0.18508 0.90219 0.76093 0.0
C302 C 0.22743 0.94088 0.7685 0.0
C303 C 0.28261 0.84947 0.77151 0.0
C304 C 0.29819 0.93525 0.77986 0.0
C305 C 0.21284 0.857 0.76013 0.0
C306 C 0.32506 0.88867 0.78223 0.0
N307 N 0.13428 0.98992 0.74851 0.0
C308 C 0.11003 0.03281 0.73461 0.0
C309 C 0.2448 0.02759 0.76591 0.0
C310 C 0.20148 0.98637 0.76152 0.0
C311 C 0.21811 0.07241 0.75487 0.0
C312 C 0.15086 0.0749 0.73852 0.0
H313 H 0.37917 0.88275 0.79082 0.0
H314 H 0.39476 0.97273 0.79601 0.0
H315 H 0.34782 0.05372 0.78388 0.0
O316 O 0.03345 0.93903 0.69018 0.0
O317 O 0.06918 0.97371 0.79052 0.0
O318 O 0.04072 0.93121 0.84459 0.0
O319 O 0.12981 0.90085 0.69627 0.0
O320 O 0.96529 0.94861 0.74018 0.0
O321 O 0.93461 0.97705 0.79974 0.0
O322 O 0.91377 0.89331 0.89161 0.0
O323 O 0.90321 0.88105 0.77654 0.0
O324 O 0.00491 0.85407 0.74808 0.0
O325 O 0.89385 0.96417 0.86949 0.0
O326 O 0.03084 0.8703 0.83968 0.0
O327 O 0.07257 0.85232 0.77859 0.0
C328 C 0.07319 0.96728 0.82768 0.0
C329 C 0.06457 0.88802 0.63974 0.0
C330 C 0.07514 0.86981 0.57158 0.0
C331 C 0.03273 0.82831 0.57761 0.0
C332 C 0.02259 0.84654 0.64501 0.0
C333 C 0.00626 0.81709 0.61396 0.0
C334 C 0.0892 0.90015 0.60296 0.0
C335 C 0.93755 0.98133 0.76201 0.0
C336 C 0.08458 0.91855 0.6723 0.0
C337 C 0.34056 0.97631 0.78671 0.0
C338 C 0.31389 0.02243 0.77974 0.0
C339 C 0.93705 0.84956 0.75576 0.0
C340 C 0.82777 0.93691 0.92388 0.0
C341 C 0.77557 0.93076 0.9879 0.0
C342 C 0.70827 0.93256 0.97089 0.0
C343 C 0.76012 0.93963 0.90789 0.0
C344 C 0.8353 0.93252 0.96395 0.0
C345 C 0.70081 0.93738 0.93131 0.0
C346 C 0.06889 0.84484 0.81586 0.0
C347 C 0.891 0.93588 0.89946 0.0
H348 H 0.02143 0.8037 0.55444 0.0
H349 H 0.00285 0.83684 0.67306 0.0
H350 H 0.97409 0.78494 0.61823 0.0
H351 H 0.11981 0.93308 0.59906 0.0
H352 H 0.66107 0.92926 0.98811 0.0
H353 H 0.75286 0.9429 0.87738 0.0
H354 H 0.88756 0.93026 0.9764 0.0
H355 H 0.64871 0.93874 0.91868 0.0
Tb356 Tb 0.42257 0.60139 0.24811 0.0
C357 C 0.73301 0.59091 0.31677 0.0
N358 N 0.67722 0.5601 0.32135 0.0
C359 C 0.75337 0.49277 0.31263 0.0
C360 C 0.80055 0.57384 0.30779 0.0
C361 C 0.68739 0.51139 0.32133 0.0
C362 C 0.8099 0.52411 0.30502 0.0
C363 C 0.77995 0.67272 0.31924 0.0
C364 C 0.72326 0.63963 0.32303 0.0
C365 C 0.8466 0.6561 0.30866 0.0
C366 C 0.85694 0.60676 0.3031 0.0
Tb367 Tb 0.57258 0.59616 0.33502 0.0
N368 N 0.65813 0.65451 0.33325 0.0
C369 C 0.76799 0.72143 0.32653 0.0
C370 C 0.64685 0.70152 0.34207 0.0
C371 C 0.70128 0.73581 0.33832 0.0
H372 H 0.64474 0.48653 0.32821 0.0
H373 H 0.69183 0.77325 0.34465 0.0
H374 H 0.32878 0.70295 0.25299 0.0
H375 H 0.32222 0.42008 0.22861 0.0
H376 H 0.59597 0.71256 0.35188 0.0
H377 H 0.81008 0.74805 0.32372 0.0
H378 H 0.4065 0.48864 0.21927 0.0
H379 H 0.76073 0.45425 0.31234 0.0
H380 H 0.89079 0.68098 0.30539 0.0
H381 H 0.90906 0.59434 0.29587 0.0
H382 H 0.21195 0.72607 0.27706 0.0
H383 H 0.86102 0.50951 0.2984 0.0
H384 H 0.21068 0.43267 0.26354 0.0
N385 N 0.31301 0.6281 0.26508 0.0
C386 C 0.26538 0.59311 0.27475 0.0
C387 C 0.22656 0.68854 0.27697 0.0
C388 C 0.19754 0.60452 0.2879 0.0
C389 C 0.29284 0.67528 0.26358 0.0
C390 C 0.17927 0.65307 0.29007 0.0
N391 N 0.34602 0.53705 0.2518 0.0
C392 C 0.35856 0.49358 0.2352 0.0
C393 C 0.23192 0.50856 0.27284 0.0
C394 C 0.28218 0.54584 0.26745 0.0
C395 C 0.24793 0.46235 0.26002 0.0
C396 C 0.31081 0.45511 0.24023 0.0
H397 H 0.1277 0.66338 0.30005 0.0
H398 H 0.09703 0.57514 0.30713 0.0
H399 H 0.12721 0.49095 0.29389 0.0
O400 O 0.4516 0.58007 0.19272 0.0
O401 O 0.42322 0.542 0.28946 0.0
O402 O 0.4595 0.58364 0.34144 0.0
O403 O 0.36679 0.62867 0.20068 0.0
O404 O 0.5281 0.57317 0.24023 0.0
O405 O 0.5583 0.53491 0.29638 0.0
O406 O 0.60316 0.61572 0.39119 0.0
O407 O 0.59744 0.63674 0.28159 0.0
O408 O 0.49393 0.66362 0.25203 0.0
O409 O 0.56937 0.54331 0.37831 0.0
O410 O 0.4973 0.65414 0.34302 0.0
O411 O 0.4216 0.66098 0.28937 0.0
C412 C 0.42738 0.54657 0.32652 0.0
C413 C 0.42926 0.6352 0.14276 0.0
C414 C 0.42148 0.65141 0.07396 0.0
C415 C 0.46554 0.69223 0.07911 0.0
C416 C 0.47296 0.6759 0.14725 0.0
C417 C 0.49162 0.70395 0.1154 0.0
C418 C 0.40564 0.62225 0.10611 0.0
C419 C 0.55543 0.53687 0.25882 0.0
C420 C 0.40507 0.60666 0.17589 0.0
C421 C 0.14904 0.56717 0.29641 0.0
C422 C 0.16621 0.51921 0.28886 0.0
C423 C 0.5616 0.66814 0.2607 0.0
C424 C 0.64487 0.55309 0.43247 0.0
C425 C 0.69442 0.55299 0.49758 0.0
C426 C 0.73202 0.51137 0.48848 0.0
C427 C 0.68285 0.51137 0.42452 0.0
C428 C 0.65131 0.57398 0.46905 0.0
C429 C 0.72647 0.491 0.45224 0.0
C430 C 0.4468 0.67497 0.32298 0.0
C431 C 0.59303 0.57234 0.40466 0.0
H432 H 0.47843 0.71595 0.05531 0.0
H433 H 0.49193 0.68618 0.17529 0.0
H434 H 0.52505 0.73557 0.11898 0.0
H435 H 0.37408 0.58967 0.10297 0.0
H436 H 0.7651 0.49402 0.50963 0.0
H437 H 0.67774 0.49366 0.39728 0.0
H438 H 0.62242 0.60633 0.47524 0.0
H439 H 0.75521 0.4587 0.44581 0.0
C440 C 0.11257 0.91144 0.34769 0.0
C441 C 0.15999 0.91999 0.37802 0.0
C442 C 0.08043 0.94959 0.32821 0.0
C443 C 0.09332 0.99734 0.33926 0.0
H444 H 0.10275 0.875 0.33802 0.0
H445 H 0.04515 0.94173 0.30456 0.0
S446 S 0.21028 0.03859 0.41798 0.0
N447 N 0.21718 0.97933 0.41852 0.0
N448 N 0.15388 0.05127 0.38336 0.0
C449 C 0.13788 1.00624 0.37072 0.0
C450 C 0.17173 0.96743 0.38992 0.0
C451 C 0.3967 0.60115 0.8549 0.0
C452 C 0.34507 0.59317 0.88309 0.0
C453 C 0.42942 0.5626 0.83714 0.0
C454 C 0.41363 0.51499 0.84823 0.0
H455 H 0.40837 0.63742 0.8449 0.0
H456 H 0.46631 0.57001 0.81414 0.0
S457 S 0.28701 0.4752 0.92283 0.0
N458 N 0.28185 0.5346 0.92241 0.0
N459 N 0.34706 0.46171 0.89065 0.0
C460 C 0.36599 0.50657 0.87824 0.0
C461 C 0.33105 0.54589 0.89553 0.0
C462 C 0.70379 0.54262 0.70078 0.0
C463 C 0.67044 0.58622 0.69227 0.0
C464 C 0.6674 0.50489 0.71973 0.0
C465 C 0.59641 0.50963 0.73076 0.0
H466 H 0.75917 0.53867 0.69435 0.0
H467 H 0.69561 0.47233 0.72657 0.0
S468 S 0.48718 0.61823 0.71546 0.0
N469 N 0.56441 0.63288 0.69673 0.0
N470 N 0.49471 0.56232 0.7312 0.0
C471 C 0.56238 0.55302 0.72136 0.0
C472 C 0.59977 0.59125 0.70248 0.0
C473 C 0.87827 0.9366 0.1994 0.0
C474 C 0.80649 0.94064 0.1901 0.0
C475 C 0.9145 0.97384 0.21848 0.0
C476 C 0.88016 0.01652 0.22802 0.0
H477 H 0.90504 0.90317 0.19407 0.0
H478 H 0.96893 0.96867 0.22683 0.0
S479 S 0.69433 0.04603 0.2078 0.0
N480 N 0.70273 0.99043 0.19222 0.0
N481 N 0.7728 0.0625 0.22412 0.0
C482 C 0.80977 0.02208 0.21698 0.0
C483 C 0.77229 0.98352 0.19902 0.0
C484 C 0.90174 0.10947 0.73156 0.0
C485 C 0.84999 0.10364 0.70304 0.0
C486 C 0.92829 0.06975 0.75153 0.0
C487 C 0.90588 0.02284 0.74259 0.0
H488 H 0.91968 0.14525 0.73943 0.0
H489 H 0.96715 0.07582 0.77365 0.0
S490 S 0.77441 0.98803 0.66887 0.0
N491 N 0.77804 0.0475 0.66651 0.0
N492 N 0.8318 0.97227 0.70218 0.0
C493 C 0.85688 0.01629 0.71281 0.0
C494 C 0.82827 0.05686 0.69329 0.0
C495 C 0.70207 0.48127 0.20286 0.0
C496 C 0.67597 0.43448 0.19607 0.0
C497 C 0.66131 0.51505 0.22197 0.0
C498 C 0.59526 0.50187 0.23703 0.0
H499 H 0.75566 0.49097 0.19521 0.0
H500 H 0.68305 0.55083 0.22682 0.0
S501 S 0.50773 0.38211 0.23144 0.0
N502 N 0.58141 0.37636 0.20691 0.0
N503 N 0.50779 0.4383 0.24661 0.0
C504 C 0.56937 0.45497 0.23144 0.0
C505 C 0.60909 0.42157 0.21005 0.0
C506 C 0.40524 0.42151 0.36768 0.0
C507 C 0.34057 0.42435 0.38695 0.0
C508 C 0.4353 0.46211 0.34962 0.0
C509 C 0.40203 0.50686 0.35092 0.0
H510 H 0.43042 0.387 0.36477 0.0
H511 H 0.48336 0.4581 0.33337 0.0
S512 S 0.23187 0.53312 0.39691 0.0
N513 N 0.24392 0.4752 0.40551 0.0
N514 N 0.302 0.55213 0.37291 0.0
C515 C 0.33901 0.5107 0.3713 0.0
C516 C 0.30786 0.46921 0.38913 0.0
C517 C 0.11377 0.0929 0.86307 0.0
C518 C 0.16654 0.08558 0.89073 0.0
C519 C 0.0833 0.05426 0.84326 0.0
C520 C 0.10237 1.00665 0.85136 0.0
H521 H 0.09826 0.12913 0.85553 0.0
H522 H 0.04511 0.06175 0.82115 0.0
S523 S 0.23355 0.96755 0.92343 0.0
N524 N 0.23544 0.02694 0.92591 0.0
N525 N 0.17327 0.95379 0.89092 0.0
C526 C 0.15155 0.99844 0.88073 0.0
C527 C 0.18471 0.03805 0.89999 0.0
C528 C 0.25231 0.09669 0.99991 0.0
C529 C 0.19968 0.11229 0.97444 0.0
C530 C 0.23496 0.07318 1.03436 0.0
C531 C 0.16434 0.06486 0.04467 0.0
H532 H 0.30732 0.10273 0.99296 0.0
H533 H 0.27703 0.06147 0.05312 0.0
S534 S 0.00703 0.09776 0.9877 0.0
N535 N 0.07431 0.11732 0.96159 0.0
N536 N 0.04142 0.07287 1.0265 0.0
C537 C 0.11116 0.07982 1.01936 0.0
C538 C 0.12892 0.10356 0.98413 0.0
C539 C 0.35592 0.37957 0.48673 0.0
C540 C 0.29347 0.39061 0.46701 0.0
C541 C 0.36065 0.38479 0.5267 0.0
C542 C 0.30288 0.40123 0.54781 0.0
H543 H 0.3984 0.36234 0.47172 0.0
H544 H 0.40697 0.37169 0.54143 0.0
S545 S 0.13222 0.44185 0.50839 0.0
N546 N 0.17636 0.42355 0.4707 0.0
N547 N 0.18556 0.43478 0.54538 0.0
C548 C 0.24328 0.41714 0.52771 0.0
C549 C 0.23846 0.41147 0.48735 0.0
C550 C 0.6728 0.36762 0.08959 0.0
C551 C 0.70911 0.39841 0.11488 0.0
C552 C 0.66697 0.37895 0.05049 0.0
C553 C 0.69638 0.42197 1.03541 0.0
H554 H 0.65383 0.33278 0.09964 0.0
H555 H 0.64407 0.35213 1.03168 0.0
S556 S 0.78424 0.51891 0.09135 0.0
N557 N 0.76824 0.4756 0.12295 0.0
N558 N 0.75152 0.49931 0.05042 0.0
C559 C 0.72555 0.45542 0.06136 0.0
C560 C 0.73325 0.44312 0.10089 0.0
C561 C 0.90487 0.15176 0.61561 0.0
C562 C 0.83295 0.14129 0.6205 0.0
C563 C 0.93562 0.15111 0.57911 0.0
C564 C 0.89513 0.14075 0.5461 0.0
H565 H 0.93615 0.16403 0.63971 0.0
H566 H 0.99075 0.16127 0.57656 0.0
S567 S 0.70589 0.10356 0.54573 0.0
N568 N 0.72455 0.1129 0.59124 0.0
N569 N 0.77971 0.11489 0.52222 0.0
C570 C 0.82416 0.12624 0.55145 0.0
C571 C 0.79379 0.1257 0.58877 0.0
C572 C 0.82231 0.87534 0.08478 0.0
C573 C 0.77613 0.89847 0.10984 0.0
C574 C 0.82542 0.88797 0.04571 0.0
C575 C 0.78215 0.92417 1.03029 0.0
H576 H 0.85314 0.8454 0.09513 0.0
H577 H 0.85869 0.86724 1.02711 0.0
S578 S 0.65702 0.99839 0.08486 0.0
N579 N 0.68858 0.96017 0.11678 0.0
N580 N 0.69751 0.98643 0.04438 0.0
C581 C 0.73947 0.94971 0.05576 0.0
C582 C 0.73566 0.93624 0.09525 0.0
C583 C 0.77828 0.59712 0.59051 0.0
C584 C 0.72093 0.6141 0.61146 0.0
C585 C 0.76903 0.5776 0.55392 0.0
C586 C 0.70181 0.57408 0.53671 0.0
H587 H 0.83102 0.60009 0.60226 0.0
H588 H 0.81533 0.56612 0.53866 0.0
S589 S 0.53398 0.61218 0.58081 0.0
N590 N 0.59483 0.62616 0.61291 0.0
N591 N 0.57624 0.58754 0.54483 0.0
C592 C 0.64367 0.59006 0.55792 0.0
C593 C 0.65346 0.61033 0.59516 0.0
C594 C 0.39536 0.64884 0.9656 0.0
C595 C 0.32336 0.63761 0.96192 0.0
C596 C 0.42779 0.6504 1.00179 0.0
C597 C 0.38897 0.64154 1.03564 0.0
H598 H 0.42558 0.65937 0.94057 0.0
H599 H 0.48305 0.66057 1.00331 0.0
S600 S 0.19948 0.60523 1.03976 0.0
N601 N 0.21616 0.61159 0.99366 0.0
N602 N 0.27436 0.61789 0.06192 0.0
C603 C 0.31754 0.6273 1.03172 0.0
C604 C 0.28548 0.62453 0.9948 0.0
C605 C 0.10292 0.86913 0.46339 0.0
C606 C 0.17512 0.87983 0.46003 0.0
C607 C 0.06974 0.86904 0.49933 0.0
C608 C 0.10793 0.87906 0.53322 0.0
H609 H 0.07324 0.85757 0.43851 0.0
H610 H 0.01448 0.85886 0.50076 0.0
S611 S 0.29761 0.91434 0.53796 0.0
N612 N 0.28199 0.90613 0.49198 0.0
N613 N 0.22192 0.90339 0.55976 0.0
C614 C 0.17938 0.89307 0.52948 0.0
C615 C 0.21233 0.8941 0.49282 0.0
C616 C 0.22363 0.23515 0.35913 0.0
C617 C 0.19358 0.27746 0.37266 0.0
C618 C 0.18118 0.19835 0.34364 0.0
C619 C 0.10767 0.20338 0.34008 0.0
H620 H 0.28002 0.2303 0.36121 0.0
H621 H 0.20606 0.16544 0.33505 0.0
S622 S 0.00476 0.30791 0.37339 0.0
N623 N 0.08744 0.32235 0.38342 0.0
N624 N 0.00704 0.25434 0.35332 0.0
C625 C 0.07736 0.2458 0.35415 0.0
C626 C 0.12058 0.28268 0.37049 0.0
C627 C 0.282 0.27699 0.8781 0.0
C628 C 0.31375 0.23391 0.88939 0.0
C629 C 0.32186 0.31434 0.86109 0.0
C630 C 0.39449 0.30929 0.85397 0.0
H631 H 0.22584 0.28131 0.88184 0.0
H632 H 0.29514 0.34701 0.85283 0.0
S633 S 0.50118 0.2024 0.87954 0.0
N634 N 0.42064 0.18802 0.89386 0.0
N635 N 0.49629 0.25722 0.86109 0.0
C636 C 0.42681 0.26633 0.86619 0.0
C637 C 0.38612 0.22877 0.88393 0.0
C638 C 0.6266 0.22548 0.72473 0.0
C639 C 0.68814 0.24056 0.70563 0.0
C640 C 0.58245 0.25901 0.74158 0.0
C641 C 0.59697 0.30854 0.73801 0.0
H642 H 0.61432 0.18742 0.72781 0.0
H643 H 0.53741 0.2461 0.75789 0.0
S644 S 0.7518 0.36607 0.69128 0.0
N645 N 0.76315 0.30767 0.68555 0.0
N646 N 0.67629 0.37127 0.71419 0.0
C647 C 0.657 0.32414 0.71792 0.0
C648 C 0.70361 0.28992 0.70233 0.0
C649 C 0.80382 0.24665 0.20429 0.0
C650 C 0.82847 0.29407 0.20965 0.0
C651 C 0.83765 0.20789 0.22193 0.0
C652 C 0.89615 0.21578 0.24585 0.0
H653 H 0.75782 0.23977 0.18664 0.0
H654 H 0.81772 0.17163 0.21716 0.0
S655 S 0.984 0.33273 0.26631 0.0
N656 N 0.91699 0.34658 0.23822 0.0
N657 N 0.9797 0.27365 0.27232 0.0
C658 C 0.92156 0.26289 0.25115 0.0
C659 C 0.88786 0.30217 0.23273 0.0
C660 C 0.78501 0.77642 0.7136 0.0
C661 C 0.81752 0.73355 0.70306 0.0
C662 C 0.82416 0.81405 0.7303 0.0
C663 C 0.89684 0.80961 0.7376 0.0
H664 H 0.72907 0.78073 0.70874 0.0
H665 H 0.7974 0.847 0.73711 0.0
S666 S 0.00514 0.70314 0.71548 0.0
N667 N 0.92509 0.68811 0.70065 0.0
N668 N -0.00084 0.75801 0.73293 0.0
C669 C 0.92963 0.76653 0.72702 0.0
C670 C 0.88975 0.72862 0.70964 0.0
C671 C 0.70921 0.74493 0.21717 0.0
C672 C 0.67472 0.78774 0.20767 0.0
C673 C 0.67259 0.70645 0.23485 0.0
C674 C 0.60024 0.70964 0.24329 0.0
H675 H 0.76471 0.74139 0.21089 0.0
H676 H 0.70086 0.67377 0.24131 0.0
S677 S 0.48779 0.81577 0.22473 0.0
N678 N 0.56623 0.83222 0.20842 0.0
N679 N 0.49645 0.76031 0.24137 0.0
C680 C 0.56569 0.75281 0.23398 0.0
C681 C 0.60322 0.79182 0.21626 0.0
C682 C 0.29996 0.73978 0.37114 0.0
C683 C 0.3276 0.78663 0.37476 0.0
C684 C 0.34008 0.70355 0.35487 0.0
C685 C 0.4085 0.71347 0.34147 0.0
H686 H 0.24671 0.73154 0.38047 0.0
H687 H 0.3172 0.66769 0.35228 0.0
S688 S 0.50302 0.83107 0.34335 0.0
N689 N 0.42637 0.84144 0.36383 0.0
N690 N 0.50146 0.77345 0.33184 0.0
C691 C 0.43666 0.76017 0.34489 0.0
C692 C 0.39606 0.79689 0.36189 0.0
C693 C 0.12202 0.72064 0.84801 0.0
C694 C 0.18562 0.73004 0.86738 0.0
C695 C 0.08541 0.75796 0.82998 0.0
C696 C 0.11025 0.80574 0.83223 0.0
H697 H 0.10085 0.68423 0.84683 0.0
H698 H 0.03669 0.74963 0.81505 0.0
S699 S 0.27582 0.8483 0.87779 0.0
N700 N 0.27451 0.78946 0.88528 0.0
N701 N 0.20261 0.86037 0.8541 0.0
C702 C 0.17378 0.81548 0.85132 0.0
C703 C 0.21227 0.77735 0.86834 0.0
loop_
_geom_bond_atom_site_label_1
_geom_bond_atom_site_label_2
_geom_bond_distance
_geom_bond_site_symmetry_2
_ccdc_geom_bond_type
C0 N1 1.317 . S
C0 N2 1.348 . S
C0 C3 1.485 . S
N1 C0 1.317 . S
N1 N5 1.370 . S
N2 C0 1.348 . S
N2 C4 1.346 . S
C3 C0 1.485 . S
C3 H7 0.960 . S
C3 H8 0.961 . S
C3 H9 0.960 . S
C4 N2 1.346 . S
C4 N5 1.307 . S
C4 C6 1.486 . S
N5 N1 1.370 . S
N5 C4 1.307 . S
C6 C4 1.486 . S
C6 H10 0.960 . S
C6 H11 0.960 . S
C6 H12 0.959 . S
H7 C3 0.960 . S
H8 C3 0.961 . S
H9 C3 0.960 . S
H10 C6 0.960 . S
H11 C6 0.960 . S
H12 C6 0.959 . S
C13 N14 1.317 . S
C13 N15 1.348 . S
C13 C16 1.485 . S
N14 C13 1.317 . S
N14 N18 1.370 . S
N15 C13 1.348 . S
N15 C17 1.346 . S
C16 C13 1.485 . S
C16 H20 0.960 . S
C16 H21 0.961 . S
C16 H22 0.960 . S
C17 N15 1.346 . S
C17 N18 1.307 . S
C17 C19 1.486 . S
N18 N14 1.370 . S
N18 C17 1.307 . S
C19 C17 1.486 . S
C19 H23 0.960 . S
C19 H24 0.960 . S
C19 H25 0.959 . S
H20 C16 0.960 . S
H21 C16 0.961 . S
H22 C16 0.960 . S
H23 C19 0.960 . S
H24 C19 0.960 . S
H25 C19 0.959 . S
C26 N27 1.317 . S
C26 N28 1.348 . S
C26 C29 1.485 . S
N27 C26 1.317 . S
N27 N31 1.370 . S
N28 C26 1.348 . S
N28 C30 1.346 . S
C29 C26 1.485 . S
C29 H33 0.960 . S
C29 H34 0.961 . S
C29 H35 0.960 . S
C30 N28 1.346 . S
C30 N31 1.307 . S
C30 C32 1.486 . S
N31 N27 1.370 . S
N31 C30 1.307 . S
C32 C30 1.486 . S
C32 H36 0.960 . S
C32 H37 0.960 . S
C32 H38 0.959 . S
H33 C29 0.960 . S
H34 C29 0.961 . S
H35 C29 0.960 . S
H36 C32 0.960 . S
H37 C32 0.960 . S
H38 C32 0.959 . S
C39 N40 1.317 . S
C39 N41 1.348 . S
C39 C42 1.485 . S
N40 C39 1.317 . S
N40 N44 1.370 . S
N41 C39 1.348 . S
N41 C43 1.346 . S
C42 C39 1.485 . S
C42 H46 0.960 . S
C42 H47 0.961 . S
C42 H48 0.960 . S
C43 N41 1.346 . S
C43 N44 1.307 . S
C43 C45 1.486 . S
N44 N40 1.370 . S
N44 C43 1.307 . S
C45 C43 1.486 . S
C45 H49 0.960 . S
C45 H50 0.960 . S
C45 H51 0.959 . S
H46 C42 0.960 . S
H47 C42 0.961 . S
H48 C42 0.960 . S
H49 C45 0.960 . S
H50 C45 0.960 . S
H51 C45 0.959 . S
C52 N53 1.317 . S
C52 N54 1.348 . S
C52 C55 1.485 . S
N53 C52 1.317 . S
N53 N57 1.370 . S
N54 C52 1.348 . S
N54 C56 1.346 . S
C55 C52 1.485 . S
C55 H59 0.960 . S
C55 H60 0.961 . S
C55 H61 0.960 . S
C56 N54 1.346 . S
C56 N57 1.307 . S
C56 C58 1.486 . S
N57 N53 1.370 . S
N57 C56 1.307 . S
C58 C56 1.486 . S
C58 H62 0.960 . S
C58 H63 0.960 . S
C58 H64 0.959 . S
H59 C55 0.960 . S
H60 C55 0.961 . S
H61 C55 0.960 . S
H62 C58 0.960 . S
H63 C58 0.960 . S
H64 C58 0.959 . S
C65 N66 1.317 . S
C65 N67 1.348 . S
C65 C68 1.485 . S
N66 C65 1.317 . S
N66 N70 1.370 . S
N67 C65 1.348 . S
N67 C69 1.346 . S
C68 C65 1.485 . S
C68 H72 0.960 . S
C68 H73 0.961 . S
C68 H74 0.960 . S
C69 N67 1.346 . S
C69 N70 1.307 . S
C69 C71 1.486 . S
N70 N66 1.370 . S
N70 C69 1.307 . S
C71 C69 1.486 . S
C71 H75 0.960 . S
C71 H76 0.960 . S
C71 H77 0.959 . S
H72 C68 0.960 . S
H73 C68 0.961 . S
H74 C68 0.960 . S
H75 C71 0.960 . S
H76 C71 0.960 . S
H77 C71 0.959 . S
C78 N79 1.317 . S
C78 N80 1.348 . S
C78 C81 1.485 . S
N79 C78 1.317 . S
N79 N83 1.370 . S
N80 C78 1.348 . S
N80 C82 1.346 . S
C81 C78 1.485 . S
C81 H85 0.960 . S
C81 H86 0.961 . S
C81 H87 0.960 . S
C82 N80 1.346 . S
C82 N83 1.307 . S
C82 C84 1.486 . S
N83 N79 1.370 . S
N83 C82 1.307 . S
C84 C82 1.486 . S
C84 H88 0.960 . S
C84 H89 0.960 . S
C84 H90 0.959 . S
H85 C81 0.960 . S
H86 C81 0.961 . S
H87 C81 0.960 . S
H88 C84 0.960 . S
H89 C84 0.960 . S
H90 C84 0.959 . S
C91 N92 1.317 . S
C91 N93 1.348 . S
C91 C94 1.485 . S
N92 C91 1.317 . S
N92 N96 1.370 . S
N93 C91 1.348 . S
N93 C95 1.346 . S
C94 C91 1.485 . S
C94 H98 0.960 . S
C94 H99 0.961 . S
C94 H100 0.960 . S
C95 N93 1.346 . S
C95 N96 1.307 . S
C95 C97 1.486 . S
N96 N92 1.370 . S
N96 C95 1.307 . S
C97 C95 1.486 . S
C97 H101 0.960 . S
C97 H102 0.960 . S
C97 H103 0.959 . S
H98 C94 0.960 . S
H99 C94 0.961 . S
H100 C94 0.960 . S
H101 C97 0.960 . S
H102 C97 0.960 . S
H103 C97 0.959 . S
Tb104 N133 2.617 . S
Tb104 N139 2.572 . S
Tb104 O148 2.465 . S
Tb104 O149 2.387 . S
Tb104 O151 2.428 . S
Tb104 O152 2.308 1_455 S
Tb104 O156 2.349 1_455 S
Tb104 O159 2.393 . S
Tb104 C168 2.802 . S
C105 N106 1.379 . S
C105 C108 1.416 . S
C105 C112 1.424 . S
N106 C105 1.379 . S
N106 C109 1.334 . S
N106 Tb115 2.617 . S
C107 C109 1.390 . S
C107 C110 1.339 . S
C107 H127 0.930 . S
C108 C105 1.416 . S
C108 C110 1.416 . S
C108 C114 1.448 . S
C109 N106 1.334 . S
C109 C107 1.390 . S
C109 H120 0.930 . S
C110 C107 1.339 . S
C110 C108 1.416 . S
C110 H131 0.930 . S
C111 C112 1.413 1_565 S
C111 C113 1.427 . S
C111 C117 1.416 . S
C112 C105 1.424 . S
C112 C111 1.413 1_545 S
C112 N116 1.361 . S
C113 C111 1.427 . S
C113 C114 1.328 1_565 S
C113 H128 0.929 . S
C114 C108 1.448 . S
C114 C113 1.328 1_545 S
C114 H129 0.930 . S
Tb115 N106 2.617 . S
Tb115 N116 2.572 . S
Tb115 O150 2.349 1_655 S
Tb115 O153 2.393 . S
Tb115 O154 2.465 . S
Tb115 O155 2.387 . S
Tb115 O157 2.428 . S
Tb115 O158 2.308 1_655 S
Tb115 C179 2.802 . S
N116 C112 1.361 . S
N116 Tb115 2.572 . S
N116 C118 1.340 1_545 S
C117 C111 1.416 . S
C117 C119 1.332 . S
C117 H125 0.931 . S
C118 N116 1.340 1_565 S
C118 C119 1.407 . S
C118 H124 0.930 . S
C119 C117 1.332 . S
C119 C118 1.407 . S
C119 H121 0.929 . S
H120 C109 0.930 . S
H121 C119 0.929 . S
H122 C137 0.930 . S
H123 C144 0.929 . S
H124 C118 0.930 . S
H125 C117 0.931 . S
H126 C140 0.930 . S
H127 C107 0.930 . S
H128 C113 0.929 . S
H129 C114 0.930 . S
H130 C135 0.930 . S
H131 C110 0.930 . S
H132 C143 0.931 . S
N133 Tb104 2.617 . S
N133 C134 1.379 . S
N133 C137 1.334 . S
C134 N133 1.379 . S
C134 C136 1.416 . S
C134 C142 1.424 . S
C135 H130 0.930 . S
C135 C137 1.390 . S
C135 C138 1.339 . S
C136 C134 1.416 . S
C136 C138 1.416 . S
C136 C169 1.448 . S
C137 H122 0.930 . S
C137 N133 1.334 . S
C137 C135 1.390 . S
C138 C135 1.339 . S
C138 C136 1.416 . S
C138 H145 0.930 . S
N139 Tb104 2.572 . S
N139 C140 1.340 . S
N139 C142 1.361 . S
C140 H126 0.930 . S
C140 N139 1.340 . S
C140 C144 1.407 . S
C141 C142 1.413 . S
C141 C143 1.416 . S
C141 C170 1.427 . S
C142 C134 1.424 . S
C142 N139 1.361 . S
C142 C141 1.413 . S
C143 H132 0.931 . S
C143 C141 1.416 . S
C143 C144 1.332 . S
C144 H123 0.929 . S
C144 C140 1.407 . S
C144 C143 1.332 . S
H145 C138 0.930 . S
H146 C169 0.930 . S
H147 C170 0.929 . S
O148 Tb104 2.465 . S
O148 C168 1.264 . S
O149 Tb104 2.387 . S
O149 C160 1.264 . S
O150 Tb115 2.349 1_455 S
O150 C160 1.243 . S
O151 Tb104 2.428 . S
O151 C168 1.256 . S
O152 Tb104 2.308 1_655 S
O152 C167 1.266 . S
O153 Tb115 2.393 . S
O153 C167 1.248 . S
O154 Tb115 2.465 . S
O154 C179 1.264 . S
O155 Tb115 2.387 . S
O155 C171 1.264 . S
O156 Tb104 2.349 1_655 S
O156 C171 1.243 . S
O157 Tb115 2.428 . S
O157 C179 1.256 . S
O158 Tb115 2.308 1_455 S
O158 C178 1.266 . S
O159 Tb104 2.393 . S
O159 C178 1.248 . S
C160 O149 1.264 . S
C160 O150 1.243 . S
C161 C164 1.399 . S
C161 C166 1.383 . S
C161 C168 1.496 . S
C162 C163 1.399 . S
C162 C166 1.389 . S
C163 C162 1.399 . S
C163 C165 1.380 . S
C163 H180 0.929 . S
C164 C161 1.399 . S
C164 C165 1.392 . S
C164 H181 0.929 . S
C165 C163 1.380 . S
C165 C164 1.392 . S
C165 H182 0.929 1_545 S
C166 C161 1.383 . S
C166 C162 1.389 . S
C166 H183 0.931 . S
C167 O152 1.266 . S
C167 O153 1.248 . S
C168 Tb104 2.802 . S
C168 O148 1.264 . S
C168 O151 1.256 . S
C168 C161 1.496 . S
C169 C136 1.448 . S
C169 H146 0.930 . S
C169 C170 1.328 . S
C170 C141 1.427 . S
C170 H147 0.929 . S
C170 C169 1.328 . S
C171 O155 1.264 . S
C171 O156 1.243 . S
C172 C175 1.399 . S
C172 C176 1.383 . S
C172 C179 1.496 . S
C173 C174 1.399 . S
C173 C176 1.389 . S
C174 C173 1.399 . S
C174 C177 1.380 . S
C174 H184 0.929 . S
C175 C172 1.399 . S
C175 C177 1.392 . S
C175 H185 0.929 . S
C176 C172 1.383 . S
C176 C173 1.389 . S
C176 H186 0.931 . S
C177 C174 1.380 . S
C177 C175 1.392 . S
C177 H187 0.929 . S
C178 O158 1.266 . S
C178 O159 1.248 . S
C179 Tb115 2.802 . S
C179 O154 1.264 . S
C179 O157 1.256 . S
C179 C172 1.496 . S
H180 C163 0.929 . S
H181 C164 0.929 . S
H182 C165 0.929 1_565 S
H183 C166 0.931 . S
H184 C174 0.929 . S
H185 C175 0.929 . S
H186 C176 0.931 . S
H187 C177 0.929 . S
Tb188 N217 2.617 . S
Tb188 N223 2.572 . S
Tb188 O232 2.465 . S
Tb188 O233 2.387 . S
Tb188 O235 2.428 . S
Tb188 O236 2.308 . S
Tb188 O240 2.349 . S
Tb188 O243 2.393 . S
Tb188 C252 2.802 . S
C189 N190 1.379 . S
C189 C192 1.416 . S
C189 C196 1.424 . S
N190 C189 1.379 . S
N190 C193 1.334 . S
N190 Tb199 2.617 . S
C191 C193 1.390 . S
C191 C194 1.339 . S
C191 H211 0.930 . S
C192 C189 1.416 . S
C192 C194 1.416 . S
C192 C198 1.448 . S
C193 N190 1.334 . S
C193 C191 1.390 . S
C193 H204 0.930 . S
C194 C191 1.339 . S
C194 C192 1.416 . S
C194 H215 0.930 . S
C195 C196 1.413 . S
C195 C197 1.427 . S
C195 C201 1.416 . S
C196 C189 1.424 . S
C196 C195 1.413 . S
C196 N200 1.361 . S
C197 C195 1.427 . S
C197 C198 1.328 . S
C197 H212 0.929 . S
C198 C192 1.448 . S
C198 C197 1.328 . S
C198 H213 0.930 . S
Tb199 N190 2.617 . S
Tb199 N200 2.572 . S
Tb199 O234 2.349 . S
Tb199 O237 2.393 . S
Tb199 O238 2.465 . S
Tb199 O239 2.387 . S
Tb199 O241 2.428 . S
Tb199 O242 2.308 . S
Tb199 C263 2.802 . S
N200 C196 1.361 . S
N200 Tb199 2.572 . S
N200 C202 1.340 . S
C201 C195 1.416 . S
C201 C203 1.332 . S
C201 H209 0.931 . S
C202 N200 1.340 . S
C202 C203 1.407 . S
C202 H208 0.930 . S
C203 C201 1.332 . S
C203 C202 1.407 . S
C203 H205 0.929 . S
H204 C193 0.930 . S
H205 C203 0.929 . S
H206 C221 0.930 . S
H207 C228 0.929 . S
H208 C202 0.930 . S
H209 C201 0.931 . S
H210 C224 0.930 . S
H211 C191 0.930 . S
H212 C197 0.929 . S
H213 C198 0.930 . S
H214 C219 0.930 . S
H215 C194 0.930 . S
H216 C227 0.931 . S
N217 Tb188 2.617 . S
N217 C218 1.379 . S
N217 C221 1.334 . S
C218 N217 1.379 . S
C218 C220 1.416 . S
C218 C226 1.424 . S
C219 H214 0.930 . S
C219 C221 1.390 . S
C219 C222 1.339 . S
C220 C218 1.416 . S
C220 C222 1.416 . S
C220 C253 1.448 . S
C221 H206 0.930 . S
C221 N217 1.334 . S
C221 C219 1.390 . S
C222 C219 1.339 . S
C222 C220 1.416 . S
C222 H229 0.930 . S
N223 Tb188 2.572 . S
N223 C224 1.340 . S
N223 C226 1.361 . S
C224 H210 0.930 . S
C224 N223 1.340 . S
C224 C228 1.407 . S
C225 C226 1.413 . S
C225 C227 1.416 . S
C225 C254 1.427 . S
C226 C218 1.424 . S
C226 N223 1.361 . S
C226 C225 1.413 . S
C227 H216 0.931 . S
C227 C225 1.416 . S
C227 C228 1.332 . S
C228 H207 0.929 . S
C228 C224 1.407 . S
C228 C227 1.332 . S
H229 C222 0.930 . S
H230 C253 0.930 . S
H231 C254 0.929 . S
O232 Tb188 2.465 . S
O232 C252 1.264 . S
O233 Tb188 2.387 . S
O233 C244 1.264 . S
O234 Tb199 2.349 . S
O234 C244 1.243 . S
O235 Tb188 2.428 . S
O235 C252 1.256 . S
O236 Tb188 2.308 . S
O236 C251 1.266 . S
O237 Tb199 2.393 . S
O237 C251 1.248 . S
O238 Tb199 2.465 . S
O238 C263 1.264 . S
O239 Tb199 2.387 . S
O239 C255 1.264 . S
O240 Tb188 2.349 . S
O240 C255 1.243 . S
O241 Tb199 2.428 . S
O241 C263 1.256 . S
O242 Tb199 2.308 . S
O242 C262 1.266 . S
O243 Tb188 2.393 . S
O243 C262 1.248 . S
C244 O233 1.264 . S
C244 O234 1.243 . S
C245 C248 1.399 . S
C245 C250 1.383 . S
C245 C252 1.496 . S
C246 C247 1.399 . S
C246 C250 1.389 . S
C247 C246 1.399 . S
C247 C249 1.380 . S
C247 H264 0.929 . S
C248 C245 1.399 . S
C248 C249 1.392 . S
C248 H265 0.929 . S
C249 C247 1.380 . S
C249 C248 1.392 . S
C249 H266 0.929 . S
C250 C245 1.383 . S
C250 C246 1.389 . S
C250 H267 0.931 . S
C251 O236 1.266 . S
C251 O237 1.248 . S
C252 Tb188 2.802 . S
C252 O232 1.264 . S
C252 O235 1.256 . S
C252 C245 1.496 . S
C253 C220 1.448 . S
C253 H230 0.930 . S
C253 C254 1.328 . S
C254 C225 1.427 . S
C254 H231 0.929 . S
C254 C253 1.328 . S
C255 O239 1.264 . S
C255 O240 1.243 . S
C256 C259 1.399 . S
C256 C260 1.383 . S
C256 C263 1.496 . S
C257 C258 1.399 . S
C257 C260 1.389 . S
C258 C257 1.399 . S
C258 C261 1.380 . S
C258 H268 0.929 . S
C259 C256 1.399 . S
C259 C261 1.392 . S
C259 H269 0.929 . S
C260 C256 1.383 . S
C260 C257 1.389 . S
C260 H270 0.931 . S
C261 C258 1.380 . S
C261 C259 1.392 . S
C261 H271 0.929 . S
C262 O242 1.266 . S
C262 O243 1.248 . S
C263 Tb199 2.802 . S
C263 O238 1.264 . S
C263 O241 1.256 . S
C263 C256 1.496 . S
H264 C247 0.929 . S
H265 C248 0.929 . S
H266 C249 0.929 . S
H267 C250 0.931 . S
H268 C258 0.929 . S
H269 C259 0.929 . S
H270 C260 0.931 . S
H271 C261 0.929 . S
Tb272 N301 2.617 . S
Tb272 N307 2.572 . S
Tb272 O316 2.465 . S
Tb272 O317 2.387 . S
Tb272 O319 2.428 . S
Tb272 O320 2.299 1_455 S
Tb272 O324 2.351 . S
Tb272 O327 2.393 . S
Tb272 C336 2.802 . S
C273 N274 1.379 . S
C273 C276 1.416 . S
C273 C280 1.424 . S
N274 C273 1.379 . S
N274 C277 1.334 . S
N274 Tb283 2.617 . S
C275 C277 1.390 . S
C275 C278 1.339 . S
C275 H295 0.930 . S
C276 C273 1.416 . S
C276 C278 1.416 . S
C276 C282 1.448 . S
C277 N274 1.334 . S
C277 C275 1.390 . S
C277 H288 0.930 . S
C278 C275 1.339 . S
C278 C276 1.416 . S
C278 H299 0.930 . S
C279 C280 1.413 . S
C279 C281 1.427 . S
C279 C285 1.416 . S
C280 C273 1.424 . S
C280 C279 1.413 . S
C280 N284 1.361 . S
C281 C279 1.427 . S
C281 C282 1.328 . S
C281 H296 0.929 . S
C282 C276 1.448 . S
C282 C281 1.328 . S
C282 H297 0.930 . S
Tb283 N274 2.617 . S
Tb283 N284 2.572 . S
Tb283 O318 2.349 1_655 S
Tb283 O321 2.393 . S
Tb283 O322 2.465 . S
Tb283 O323 2.387 . S
Tb283 O325 2.428 . S
Tb283 O326 2.308 1_655 S
Tb283 C347 2.802 . S
N284 C280 1.361 . S
N284 Tb283 2.572 . S
N284 C286 1.340 . S
C285 C279 1.416 . S
C285 C287 1.332 . S
C285 H293 0.931 . S
C286 N284 1.340 . S
C286 C287 1.407 . S
C286 H292 0.930 . S
C287 C285 1.332 . S
C287 C286 1.407 . S
C287 H289 0.929 . S
H288 C277 0.930 . S
H289 C287 0.929 . S
H290 C305 0.930 . S
H291 C312 0.929 . S
H292 C286 0.930 . S
H293 C285 0.931 . S
H294 C308 0.930 . S
H295 C275 0.930 . S
H296 C281 0.929 . S
H297 C282 0.930 . S
H298 C303 0.930 . S
H299 C278 0.930 . S
H300 C311 0.931 . S
N301 Tb272 2.617 . S
N301 C302 1.379 . S
N301 C305 1.334 . S
C302 N301 1.379 . S
C302 C304 1.416 . S
C302 C310 1.424 . S
C303 H298 0.930 . S
C303 C305 1.390 . S
C303 C306 1.339 . S
C304 C302 1.416 . S
C304 C306 1.416 . S
C304 C337 1.448 . S
C305 H290 0.930 . S
C305 N301 1.334 . S
C305 C303 1.390 . S
C306 C303 1.339 . S
C306 C304 1.416 . S
C306 H313 0.930 . S
N307 Tb272 2.572 . S
N307 C308 1.340 1_565 S
N307 C310 1.361 . S
C308 H294 0.930 . S
C308 N307 1.340 1_545 S
C308 C312 1.407 . S
C309 C310 1.413 1_545 S
C309 C311 1.416 . S
C309 C338 1.427 . S
C310 C302 1.424 . S
C310 N307 1.361 . S
C310 C309 1.413 1_565 S
C311 H300 0.931 . S
C311 C309 1.416 . S
C311 C312 1.332 . S
C312 H291 0.929 . S
C312 C308 1.407 . S
C312 C311 1.332 . S
H313 C306 0.930 . S
H314 C337 0.930 . S
H315 C338 0.929 . S
O316 Tb272 2.465 . S
O316 C336 1.264 . S
O317 Tb272 2.387 . S
O317 C328 1.264 . S
O318 Tb283 2.349 1_455 S
O318 C328 1.243 . S
O319 Tb272 2.428 . S
O319 C336 1.256 . S
O320 Tb272 2.299 1_655 S
O320 C335 1.276 . S
O321 Tb283 2.393 . S
O321 C335 1.248 . S
O322 Tb283 2.465 . S
O322 C347 1.264 . S
O323 Tb283 2.387 . S
O323 C339 1.264 . S
O324 Tb272 2.351 . S
O324 C339 1.241 1_455 S
O325 Tb283 2.428 . S
O325 C347 1.256 . S
O326 Tb283 2.308 1_455 S
O326 C346 1.266 . S
O327 Tb272 2.393 . S
O327 C346 1.248 . S
C328 O317 1.264 . S
C328 O318 1.243 . S
C329 C332 1.399 . S
C329 C334 1.383 . S
C329 C336 1.496 . S
C330 C331 1.399 . S
C330 C334 1.389 . S
C331 C330 1.399 . S
C331 C333 1.380 . S
C331 H348 0.929 . S
C332 C329 1.399 . S
C332 C333 1.392 . S
C332 H349 0.929 . S
C333 C331 1.380 . S
C333 C332 1.392 . S
C333 H350 0.929 . S
C334 C329 1.383 . S
C334 C330 1.389 . S
C334 H351 0.931 . S
C335 O320 1.276 . S
C335 O321 1.248 . S
C336 Tb272 2.802 . S
C336 O316 1.264 . S
C336 O319 1.256 . S
C336 C329 1.496 . S
C337 C304 1.448 . S
C337 H314 0.930 . S
C337 C338 1.328 1_565 S
C338 C309 1.427 . S
C338 H315 0.929 . S
C338 C337 1.328 1_545 S
C339 O323 1.264 . S
C339 O324 1.241 1_655 S
C340 C343 1.399 . S
C340 C344 1.383 . S
C340 C347 1.496 . S
C341 C342 1.399 . S
C341 C344 1.389 . S
C342 C341 1.399 . S
C342 C345 1.380 . S
C342 H352 0.929 . S
C343 C340 1.399 . S
C343 C345 1.392 . S
C343 H353 0.929 . S
C344 C340 1.383 . S
C344 C341 1.389 . S
C344 H354 0.931 . S
C345 C342 1.380 . S
C345 C343 1.392 . S
C345 H355 0.929 1_565 S
C346 O326 1.266 . S
C346 O327 1.248 . S
C347 Tb283 2.802 . S
C347 O322 1.264 . S
C347 O325 1.256 . S
C347 C340 1.496 . S
H348 C331 0.929 . S
H349 C332 0.929 . S
H350 C333 0.929 . S
H351 C334 0.931 . S
H352 C342 0.929 . S
H353 C343 0.929 . S
H354 C344 0.931 . S
H355 C345 0.929 1_545 S
Tb356 N385 2.617 . S
Tb356 N391 2.572 . S
Tb356 O400 2.465 . S
Tb356 O401 2.387 . S
Tb356 O403 2.428 . S
Tb356 O404 2.308 . S
Tb356 O408 2.349 . S
Tb356 O411 2.393 . S
Tb356 C420 2.802 . S
C357 N358 1.379 . S
C357 C360 1.416 . S
C357 C364 1.424 . S
N358 C357 1.379 . S
N358 C361 1.334 . S
N358 Tb367 2.617 . S
C359 C361 1.390 . S
C359 C362 1.339 . S
C359 H379 0.930 . S
C360 C357 1.416 . S
C360 C362 1.416 . S
C360 C366 1.448 . S
C361 N358 1.334 . S
C361 C359 1.390 . S
C361 H372 0.930 . S
C362 C359 1.339 . S
C362 C360 1.416 . S
C362 H383 0.930 . S
C363 C364 1.413 . S
C363 C365 1.427 . S
C363 C369 1.416 . S
C364 C357 1.424 . S
C364 C363 1.413 . S
C364 N368 1.361 . S
C365 C363 1.427 . S
C365 C366 1.328 . S
C365 H380 0.929 . S
C366 C360 1.448 . S
C366 C365 1.328 . S
C366 H381 0.930 . S
Tb367 N358 2.617 . S
Tb367 N368 2.572 . S
Tb367 O402 2.349 . S
Tb367 O405 2.393 . S
Tb367 O406 2.465 . S
Tb367 O407 2.387 . S
Tb367 O409 2.428 . S
Tb367 O410 2.308 . S
Tb367 C431 2.802 . S
N368 C364 1.361 . S
N368 Tb367 2.572 . S
N368 C370 1.340 . S
C369 C363 1.416 . S
C369 C371 1.332 . S
C369 H377 0.931 . S
C370 N368 1.340 . S
C370 C371 1.407 . S
C370 H376 0.930 . S
C371 C369 1.332 . S
C371 C370 1.407 . S
C371 H373 0.929 . S
H372 C361 0.930 . S
H373 C371 0.929 . S
H374 C389 0.930 . S
H375 C396 0.929 . S
H376 C370 0.930 . S
H377 C369 0.931 . S
H378 C392 0.930 . S
H379 C359 0.930 . S
H380 C365 0.929 . S
H381 C366 0.930 . S
H382 C387 0.930 . S
H383 C362 0.930 . S
H384 C395 0.931 . S
N385 Tb356 2.617 . S
N385 C386 1.379 . S
N385 C389 1.334 . S
C386 N385 1.379 . S
C386 C388 1.416 . S
C386 C394 1.424 . S
C387 H382 0.930 . S
C387 C389 1.390 . S
C387 C390 1.339 . S
C388 C386 1.416 . S
C388 C390 1.416 . S
C388 C421 1.448 . S
C389 H374 0.930 . S
C389 N385 1.334 . S
C389 C387 1.390 . S
C390 C387 1.339 . S
C390 C388 1.416 . S
C390 H397 0.930 . S
N391 Tb356 2.572 . S
N391 C392 1.340 . S
N391 C394 1.361 . S
C392 H378 0.930 . S
C392 N391 1.340 . S
C392 C396 1.407 . S
C393 C394 1.413 . S
C393 C395 1.416 . S
C393 C422 1.427 . S
C394 C386 1.424 . S
C394 N391 1.361 . S
C394 C393 1.413 . S
C395 H384 0.931 . S
C395 C393 1.416 . S
C395 C396 1.332 . S
C396 H375 0.929 . S
C396 C392 1.407 . S
C396 C395 1.332 . S
H397 C390 0.930 . S
H398 C421 0.930 . S
H399 C422 0.929 . S
O400 Tb356 2.465 . S
O400 C420 1.264 . S
O401 Tb356 2.387 . S
O401 C412 1.264 . S
O402 Tb367 2.349 . S
O402 C412 1.243 . S
O403 Tb356 2.428 . S
O403 C420 1.256 . S
O404 Tb356 2.308 . S
O404 C419 1.266 . S
O405 Tb367 2.393 . S
O405 C419 1.248 . S
O406 Tb367 2.465 . S
O406 C431 1.264 . S
O407 Tb367 2.387 . S
O407 C423 1.264 . S
O408 Tb356 2.349 . S
O408 C423 1.243 . S
O409 Tb367 2.428 . S
O409 C431 1.256 . S
O410 Tb367 2.308 . S
O410 C430 1.266 . S
O411 Tb356 2.393 . S
O411 C430 1.248 . S
C412 O401 1.264 . S
C412 O402 1.243 . S
C413 C416 1.399 . S
C413 C418 1.383 . S
C413 C420 1.496 . S
C414 C415 1.399 . S
C414 C418 1.389 . S
C415 C414 1.399 . S
C415 C417 1.380 . S
C415 H432 0.929 . S
C416 C413 1.399 . S
C416 C417 1.392 . S
C416 H433 0.929 . S
C417 C415 1.380 . S
C417 C416 1.392 . S
C417 H434 0.929 . S
C418 C413 1.383 . S
C418 C414 1.389 . S
C418 H435 0.931 . S
C419 O404 1.266 . S
C419 O405 1.248 . S
C420 Tb356 2.802 . S
C420 O400 1.264 . S
C420 O403 1.256 . S
C420 C413 1.496 . S
C421 C388 1.448 . S
C421 H398 0.930 . S
C421 C422 1.328 . S
C422 C393 1.427 . S
C422 H399 0.929 . S
C422 C421 1.328 . S
C423 O407 1.264 . S
C423 O408 1.243 . S
C424 C427 1.399 . S
C424 C428 1.383 . S
C424 C431 1.496 . S
C425 C426 1.399 . S
C425 C428 1.389 . S
C426 C425 1.399 . S
C426 C429 1.380 . S
C426 H436 0.929 . S
C427 C424 1.399 . S
C427 C429 1.392 . S
C427 H437 0.929 . S
C428 C424 1.383 . S
C428 C425 1.389 . S
C428 H438 0.931 . S
C429 C426 1.380 . S
C429 C427 1.392 . S
C429 H439 0.929 . S
C430 O410 1.266 . S
C430 O411 1.248 . S
C431 Tb367 2.802 . S
C431 O406 1.264 . S
C431 O409 1.256 . S
C431 C424 1.496 . S
H432 C415 0.929 . S
H433 C416 0.929 . S
H434 C417 0.929 . S
H435 C418 0.931 . S
H436 C426 0.929 . S
H437 C427 0.929 . S
H438 C428 0.931 . S
H439 C429 0.929 . S
C440 C441 1.369 . S
C440 C442 1.419 . S
C440 H444 0.930 . S
C441 C440 1.369 . S
C441 C450 1.429 . S
C442 C440 1.419 . S
C442 C443 1.363 . S
C442 H445 0.929 . S
C443 C442 1.363 . S
C443 C449 1.428 . S
H444 C440 0.930 . S
H445 C442 0.929 . S
S446 N447 1.613 . S
S446 N448 1.610 . S
N447 S446 1.613 . S
N447 C450 1.350 . S
N448 S446 1.610 . S
N448 C449 1.351 . S
C449 C443 1.428 . S
C449 N448 1.351 . S
C449 C450 1.434 . S
C450 C441 1.429 . S
C450 N447 1.350 . S
C450 C449 1.434 . S
C451 C452 1.369 . S
C451 C453 1.419 . S
C451 H455 0.930 . S
C452 C451 1.369 . S
C452 C461 1.429 . S
C453 C451 1.419 . S
C453 C454 1.363 . S
C453 H456 0.929 . S
C454 C453 1.363 . S
C454 C460 1.428 . S
H455 C451 0.930 . S
H456 C453 0.929 . S
S457 N458 1.613 . S
S457 N459 1.610 . S
N458 S457 1.613 . S
N458 C461 1.350 . S
N459 S457 1.610 . S
N459 C460 1.351 . S
C460 C454 1.428 . S
C460 N459 1.351 . S
C460 C461 1.434 . S
C461 C452 1.429 . S
C461 N458 1.350 . S
C461 C460 1.434 . S
C462 C463 1.369 . S
C462 C464 1.419 . S
C462 H466 0.930 . S
C463 C462 1.369 . S
C463 C472 1.429 . S
C464 C462 1.419 . S
C464 C465 1.363 . S
C464 H467 0.929 . S
C465 C464 1.363 . S
C465 C471 1.428 . S
H466 C462 0.930 . S
H467 C464 0.929 . S
S468 N469 1.613 . S
S468 N470 1.610 . S
N469 S468 1.613 . S
N469 C472 1.350 . S
N470 S468 1.610 . S
N470 C471 1.351 . S
C471 C465 1.428 . S
C471 N470 1.351 . S
C471 C472 1.434 . S
C472 C463 1.429 . S
C472 N469 1.350 . S
C472 C471 1.434 . S
C473 C474 1.369 . S
C473 C475 1.419 . S
C473 H477 0.930 . S
C474 C473 1.369 . S
C474 C483 1.429 . S
C475 C473 1.419 . S
C475 C476 1.363 . S
C475 H478 0.929 . S
C476 C475 1.363 . S
C476 C482 1.428 . S
H477 C473 0.930 . S
H478 C475 0.929 . S
S479 N480 1.613 1_545 S
S479 N481 1.610 . S
N480 S479 1.613 1_565 S
N480 C483 1.350 . S
N481 S479 1.610 . S
N481 C482 1.351 1_545 S
C482 C476 1.428 . S
C482 N481 1.351 1_565 S
C482 C483 1.434 . S
C483 C474 1.429 . S
C483 N480 1.350 . S
C483 C482 1.434 . S
C484 C485 1.369 . S
C484 C486 1.419 . S
C484 H488 0.930 . S
C485 C484 1.369 . S
C485 C494 1.429 . S
C486 C484 1.419 . S
C486 C487 1.363 . S
C486 H489 0.929 . S
C487 C486 1.363 . S
C487 C493 1.428 1_545 S
H488 C484 0.930 . S
H489 C486 0.929 . S
S490 N491 1.613 1_565 S
S490 N492 1.610 . S
N491 S490 1.613 1_545 S
N491 C494 1.350 . S
N492 S490 1.610 . S
N492 C493 1.351 . S
C493 C487 1.428 1_565 S
C493 N492 1.351 . S
C493 C494 1.434 1_565 S
C494 C485 1.429 . S
C494 N491 1.350 . S
C494 C493 1.434 1_545 S
C495 C496 1.369 . S
C495 C497 1.419 . S
C495 H499 0.930 . S
C496 C495 1.369 . S
C496 C505 1.429 . S
C497 C495 1.419 . S
C497 C498 1.363 . S
C497 H500 0.929 . S
C498 C497 1.363 . S
C498 C504 1.428 . S
H499 C495 0.930 . S
H500 C497 0.929 . S
S501 N502 1.613 . S
S501 N503 1.610 . S
N502 S501 1.613 . S
N502 C505 1.350 . S
N503 S501 1.610 . S
N503 C504 1.351 . S
C504 C498 1.428 . S
C504 N503 1.351 . S
C504 C505 1.434 . S
C505 C496 1.429 . S
C505 N502 1.350 . S
C505 C504 1.434 . S
C506 C507 1.369 . S
C506 C508 1.419 . S
C506 H510 0.930 . S
C507 C506 1.369 . S
C507 C516 1.429 . S
C508 C506 1.419 . S
C508 C509 1.363 . S
C508 H511 0.929 . S
C509 C508 1.363 . S
C509 C515 1.428 . S
H510 C506 0.930 . S
H511 C508 0.929 . S
S512 N513 1.613 . S
S512 N514 1.610 . S
N513 S512 1.613 . S
N513 C516 1.350 . S
N514 S512 1.610 . S
N514 C515 1.351 . S
C515 C509 1.428 . S
C515 N514 1.351 . S
C515 C516 1.434 . S
C516 C507 1.429 . S
C516 N513 1.350 . S
C516 C515 1.434 . S
C517 C518 1.369 . S
C517 C519 1.419 . S
C517 H521 0.930 . S
C518 C517 1.369 . S
C518 C527 1.429 . S
C519 C517 1.419 . S
C519 C520 1.363 . S
C519 H522 0.929 . S
C520 C519 1.363 . S
C520 C526 1.428 . S
H521 C517 0.930 . S
H522 C519 0.929 . S
S523 N524 1.613 1_565 S
S523 N525 1.610 . S
N524 S523 1.613 1_545 S
N524 C527 1.350 . S
N525 S523 1.610 . S
N525 C526 1.351 1_565 S
C526 C520 1.428 . S
C526 N525 1.351 1_545 S
C526 C527 1.434 . S
C527 C518 1.429 . S
C527 N524 1.350 . S
C527 C526 1.434 . S
C528 C529 1.369 . S
C528 C530 1.419 1_556 S
C528 H532 0.930 . S
C529 C528 1.369 . S
C529 C538 1.429 . S
C530 C528 1.419 1_554 S
C530 C531 1.363 . S
C530 H533 0.929 . S
C531 C530 1.363 . S
C531 C537 1.428 1_554 S
H532 C528 0.930 . S
H533 C530 0.929 . S
S534 N535 1.613 . S
S534 N536 1.610 . S
N535 S534 1.613 . S
N535 C538 1.350 . S
N536 S534 1.610 . S
N536 C537 1.351 . S
C537 C531 1.428 1_556 S
C537 N536 1.351 . S
C537 C538 1.434 . S
C538 C529 1.429 . S
C538 N535 1.350 . S
C538 C537 1.434 . S
C539 C540 1.369 . S
C539 C541 1.419 . S
C539 H543 0.930 . S
C540 C539 1.369 . S
C540 C549 1.429 . S
C541 C539 1.419 . S
C541 C542 1.363 . S
C541 H544 0.929 . S
C542 C541 1.363 . S
C542 C548 1.428 . S
H543 C539 0.930 . S
H544 C541 0.929 . S
S545 N546 1.613 . S
S545 N547 1.610 . S
N546 S545 1.613 . S
N546 C549 1.350 . S
N547 S545 1.610 . S
N547 C548 1.351 . S
C548 C542 1.428 . S
C548 N547 1.351 . S
C548 C549 1.434 . S
C549 C540 1.429 . S
C549 N546 1.350 . S
C549 C548 1.434 . S
C550 C551 1.369 . S
C550 C552 1.419 . S
C550 H554 0.930 . S
C551 C550 1.369 . S
C551 C560 1.429 . S
C552 C550 1.419 . S
C552 C553 1.363 1_554 S
C552 H555 0.929 . S
C553 C552 1.363 1_556 S
C553 C559 1.428 1_556 S
H554 C550 0.930 . S
H555 C552 0.929 . S
S556 N557 1.613 . S
S556 N558 1.610 1_554 S
N557 S556 1.613 . S
N557 C560 1.350 . S
N558 S556 1.610 1_556 S
N558 C559 1.351 1_556 S
C559 C553 1.428 1_554 S
C559 N558 1.351 1_554 S
C559 C560 1.434 . S
C560 C551 1.429 . S
C560 N557 1.350 . S
C560 C559 1.434 . S
C561 C562 1.369 . S
C561 C563 1.419 . S
C561 H565 0.930 . S
C562 C561 1.369 . S
C562 C571 1.429 . S
C563 C561 1.419 . S
C563 C564 1.363 . S
C563 H566 0.929 . S
C564 C563 1.363 . S
C564 C570 1.428 . S
H565 C561 0.930 . S
H566 C563 0.929 . S
S567 N568 1.613 1_565 S
S567 N569 1.610 1_565 S
N568 S567 1.613 1_545 S
N568 C571 1.350 . S
N569 S567 1.610 1_545 S
N569 C570 1.351 . S
C570 C564 1.428 . S
C570 N569 1.351 . S
C570 C571 1.434 . S
C571 C562 1.429 . S
C571 N568 1.350 . S
C571 C570 1.434 . S
C572 C573 1.369 . S
C572 C574 1.419 . S
C572 H576 0.930 . S
C573 C572 1.369 . S
C573 C582 1.429 . S
C574 C572 1.419 . S
C574 C575 1.363 1_554 S
C574 H577 0.929 1_554 S
C575 C574 1.363 1_556 S
C575 C581 1.428 1_556 S
H576 C572 0.930 . S
H577 C574 0.929 1_556 S
S578 N579 1.613 1_545 S
S578 N580 1.610 1_545 S
N579 S578 1.613 1_565 S
N579 C582 1.350 . S
N580 S578 1.610 1_565 S
N580 C581 1.351 . S
C581 C575 1.428 1_554 S
C581 N580 1.351 . S
C581 C582 1.434 . S
C582 C573 1.429 . S
C582 N579 1.350 . S
C582 C581 1.434 . S
C583 C584 1.369 . S
C583 C585 1.419 . S
C583 H587 0.930 . S
C584 C583 1.369 . S
C584 C593 1.429 . S
C585 C583 1.419 . S
C585 C586 1.363 . S
C585 H588 0.929 . S
C586 C585 1.363 . S
C586 C592 1.428 . S
H587 C583 0.930 . S
H588 C585 0.929 . S
S589 N590 1.613 . S
S589 N591 1.610 . S
N590 S589 1.613 . S
N590 C593 1.350 . S
N591 S589 1.610 . S
N591 C592 1.351 . S
C592 C586 1.428 . S
C592 N591 1.351 . S
C592 C593 1.434 . S
C593 C584 1.429 . S
C593 N590 1.350 . S
C593 C592 1.434 . S
C594 C595 1.369 . S
C594 C596 1.419 . S
C594 H598 0.930 . S
C595 C594 1.369 . S
C595 C604 1.429 . S
C596 C594 1.419 . S
C596 C597 1.363 1_556 S
C596 H599 0.929 . S
C597 C596 1.363 1_554 S
C597 C603 1.428 1_554 S
H598 C594 0.930 . S
H599 C596 0.929 . S
S600 N601 1.613 . S
S600 N602 1.610 1_556 S
N601 S600 1.613 . S
N601 C604 1.350 . S
N602 S600 1.610 1_554 S
N602 C603 1.351 1_554 S
C603 C597 1.428 1_556 S
C603 N602 1.351 1_556 S
C603 C604 1.434 . S
C604 C595 1.429 . S
C604 N601 1.350 . S
C604 C603 1.434 . S
C605 C606 1.369 . S
C605 C607 1.419 . S
C605 H609 0.930 . S
C606 C605 1.369 . S
C606 C615 1.429 . S
C607 C605 1.419 . S
C607 C608 1.363 . S
C607 H610 0.929 . S
C608 C607 1.363 . S
C608 C614 1.428 . S
H609 C605 0.930 . S
H610 C607 0.929 . S
S611 N612 1.613 . S
S611 N613 1.610 . S
N612 S611 1.613 . S
N612 C615 1.350 . S
N613 S611 1.610 . S
N613 C614 1.351 . S
C614 C608 1.428 . S
C614 N613 1.351 . S
C614 C615 1.434 . S
C615 C606 1.429 . S
C615 N612 1.350 . S
C615 C614 1.434 . S
C616 C617 1.369 . S
C616 C618 1.419 . S
C616 H620 0.930 . S
C617 C616 1.369 . S
C617 C626 1.429 . S
C618 C616 1.419 . S
C618 C619 1.363 . S
C618 H621 0.929 . S
C619 C618 1.363 . S
C619 C625 1.428 . S
H620 C616 0.930 . S
H621 C618 0.929 . S
S622 N623 1.613 1_655 S
S622 N624 1.610 . S
N623 S622 1.613 1_455 S
N623 C626 1.350 . S
N624 S622 1.610 . S
N624 C625 1.351 1_655 S
C625 C619 1.428 . S
C625 N624 1.351 1_455 S
C625 C626 1.434 . S
C626 C617 1.429 . S
C626 N623 1.350 . S
C626 C625 1.434 . S
C627 C628 1.369 . S
C627 C629 1.419 . S
C627 H631 0.930 . S
C628 C627 1.369 . S
C628 C637 1.429 . S
C629 C627 1.419 . S
C629 C630 1.363 . S
C629 H632 0.929 . S
C630 C629 1.363 . S
C630 C636 1.428 . S
H631 C627 0.930 . S
H632 C629 0.929 . S
S633 N634 1.613 . S
S633 N635 1.610 . S
N634 S633 1.613 . S
N634 C637 1.350 . S
N635 S633 1.610 . S
N635 C636 1.351 . S
C636 C630 1.428 . S
C636 N635 1.351 . S
C636 C637 1.434 . S
C637 C628 1.429 . S
C637 N634 1.350 . S
C637 C636 1.434 . S
C638 C639 1.369 . S
C638 C640 1.419 . S
C638 H642 0.930 . S
C639 C638 1.369 . S
C639 C648 1.429 . S
C640 C638 1.419 . S
C640 C641 1.363 . S
C640 H643 0.929 . S
C641 C640 1.363 . S
C641 C647 1.428 . S
H642 C638 0.930 . S
H643 C640 0.929 . S
S644 N645 1.613 . S
S644 N646 1.610 . S
N645 S644 1.613 . S
N645 C648 1.350 . S
N646 S644 1.610 . S
N646 C647 1.351 . S
C647 C641 1.428 . S
C647 N646 1.351 . S
C647 C648 1.434 . S
C648 C639 1.429 . S
C648 N645 1.350 . S
C648 C647 1.434 . S
C649 C650 1.369 . S
C649 C651 1.419 . S
C649 H653 0.930 . S
C650 C649 1.369 . S
C650 C659 1.429 . S
C651 C649 1.419 . S
C651 C652 1.363 . S
C651 H654 0.929 . S
C652 C651 1.363 . S
C652 C658 1.428 . S
H653 C649 0.930 . S
H654 C651 0.929 . S
S655 N656 1.613 1_455 S
S655 N657 1.610 . S
N656 S655 1.613 1_655 S
N656 C659 1.350 . S
N657 S655 1.610 . S
N657 C658 1.351 1_455 S
C658 C652 1.428 . S
C658 N657 1.351 1_655 S
C658 C659 1.434 . S
C659 C650 1.429 . S
C659 N656 1.350 . S
C659 C658 1.434 . S
C660 C661 1.369 . S
C660 C662 1.419 . S
C660 H664 0.930 . S
C661 C660 1.369 . S
C661 C670 1.429 . S
C662 C660 1.419 . S
C662 C663 1.363 . S
C662 H665 0.929 . S
C663 C662 1.363 . S
C663 C669 1.428 . S
H664 C660 0.930 . S
H665 C662 0.929 . S
S666 N667 1.613 . S
S666 N668 1.610 . S
N667 S666 1.613 . S
N667 C670 1.350 . S
N668 S666 1.610 . S
N668 C669 1.351 . S
C669 C663 1.428 . S
C669 N668 1.351 . S
C669 C670 1.434 . S
C670 C661 1.429 . S
C670 N667 1.350 . S
C670 C669 1.434 . S
C671 C672 1.369 . S
C671 C673 1.419 . S
C671 H675 0.930 . S
C672 C671 1.369 . S
C672 C681 1.429 . S
C673 C671 1.419 . S
C673 C674 1.363 . S
C673 H676 0.929 . S
C674 C673 1.363 . S
C674 C680 1.428 . S
H675 C671 0.930 . S
H676 C673 0.929 . S
S677 N678 1.613 . S
S677 N679 1.610 . S
N678 S677 1.613 . S
N678 C681 1.350 . S
N679 S677 1.610 . S
N679 C680 1.351 . S
C680 C674 1.428 . S
C680 N679 1.351 . S
C680 C681 1.434 . S
C681 C672 1.429 . S
C681 N678 1.350 . S
C681 C680 1.434 . S
C682 C683 1.369 . S
C682 C684 1.419 . S
C682 H686 0.930 . S
C683 C682 1.369 . S
C683 C692 1.429 . S
C684 C682 1.419 . S
C684 C685 1.363 . S
C684 H687 0.929 . S
C685 C684 1.363 . S
C685 C691 1.428 . S
H686 C682 0.930 . S
H687 C684 0.929 . S
S688 N689 1.613 . S
S688 N690 1.610 . S
N689 S688 1.613 . S
N689 C692 1.350 . S
N690 S688 1.610 . S
N690 C691 1.351 . S
C691 C685 1.428 . S
C691 N690 1.351 . S
C691 C692 1.434 . S
C692 C683 1.429 . S
C692 N689 1.350 . S
C692 C691 1.434 . S
C693 C694 1.369 . S
C693 C695 1.419 . S
C693 H697 0.930 . S
C694 C693 1.369 . S
C694 C703 1.429 . S
C695 C693 1.419 . S
C695 C696 1.363 . S
C695 H698 0.929 . S
C696 C695 1.363 . S
C696 C702 1.428 . S
H697 C693 0.930 . S
H698 C695 0.929 . S
S699 N700 1.613 . S
S699 N701 1.610 . S
N700 S699 1.613 . S
N700 C703 1.350 . S
N701 S699 1.610 . S
N701 C702 1.351 . S
C702 C696 1.428 . S
C702 N701 1.351 . S
C702 C703 1.434 . S
C703 C694 1.429 . S
C703 N700 1.350 . S
C703 C702 1.434 . S
C441 N83 1.625 . S
C443 C178 1.627 1_565 S
C454 C262 1.628 . S
C452 N96 1.627 . S
C465 C255 1.639 . S
C463 N57 1.620 . S
C474 N70 1.621 . S
C476 C171 1.639 1_565 S
C487 C335 1.629 1_545 S
C485 N31 1.630 . S
C498 C419 1.629 . S
C496 N44 1.628 . S
C507 N5 1.625 . S
C509 C412 1.638 . S
C518 N18 1.624 . S
C520 C328 1.637 1_545 S
C531 C162 1.452 . S
C529 N14 1.624 . S
C542 C246 1.446 . S
C540 N1 1.625 . S
C553 C257 1.352 . S
C551 N40 1.614 . S
C564 C173 1.355 . S
C562 N27 1.615 . S
C575 C341 1.444 . S
C573 N66 1.617 . S
C584 N53 1.616 . S
C586 C425 1.448 . S
C597 C414 1.347 . S
C595 N92 1.608 . S
C606 N79 1.606 . S
C608 C330 1.344 . S
C619 C160 1.525 . S
C617 N2 1.524 . S
C630 C244 1.525 . S
C628 N15 1.523 . S
C639 N28 1.519 . S
C641 C251 1.493 . S
C652 C167 1.494 . S
C650 N41 1.520 . S
C663 C339 1.525 . S
C661 N54 1.516 . S
C672 N67 1.516 . S
C674 C423 1.525 . S
C683 N80 1.517 . S
C685 C430 1.495 . S
C694 N93 1.514 . S
C696 C346 1.496 . S
