# Generated by pormake.
# Topology zzz, (3,6)-cn, num edge types: 1
# Building blocks:
#     Node 0, Type 0, BuildingBlock: KAKCAD_clean_linker_0, # of connection points: 3
#     Node 1, Type 0, BuildingBlock: KAKCAD_clean_linker_0, # of connection points: 3
#     Node 2, Type 0, BuildingBlock: KAKCAD_clean_linker_0, # of connection points: 3
#     Node 3, Type 0, BuildingBlock: KAKCAD_clean_linker_0, # of connection points: 3
#     Node 4, Type 0, BuildingBlock: KAKCAD_clean_linker_0, # of connection points: 3
#     Node 5, Type 0, BuildingBlock: KAKCAD_clean_linker_0, # of connection points: 3
#     Node 6, Type 0, BuildingBlock: KAKCAD_clean_linker_0, # of connection points: 3
#     Node 7, Type 0, BuildingBlock: KAKCAD_clean_linker_0, # of connection points: 3
#     Node 8, Type 1, BuildingBlock: PAMTOO_clean_sbu_0, # of connection points: 6
#     Node 9, Type 1, BuildingBlock: PAMTOO_clean_sbu_0, # of connection points: 6
#     Node 10, Type 1, BuildingBlock: PAMTOO_clean_sbu_0, # of connection points: 6
#     Node 11, Type 1, BuildingBlock: PAMTOO_clean_sbu_0, # of connection points: 6
#     Edge 12, Type (0, 1), BuildingBlock: TEMPAE_clean_linker_10, # of connection points: 2
#     Edge 13, Type (0, 1), BuildingBlock: TEMPAE_clean_linker_10, # of connection points: 2
#     Edge 14, Type (0, 1), BuildingBlock: TEMPAE_clean_linker_10, # of connection points: 2
#     Edge 15, Type (0, 1), BuildingBlock: TEMPAE_clean_linker_10, # of connection points: 2
#     Edge 16, Type (0, 1), BuildingBlock: TEMPAE_clean_linker_10, # of connection points: 2
#     Edge 17, Type (0, 1), BuildingBlock: TEMPAE_clean_linker_10, # of connection points: 2
#     Edge 18, Type (0, 1), BuildingBlock: TEMPAE_clean_linker_10, # of connection points: 2
#     Edge 19, Type (0, 1), BuildingBlock: TEMPAE_clean_linker_10, # of connection points: 2
#     Edge 20, Type (0, 1), BuildingBlock: TEMPAE_clean_linker_10, # of connection points: 2
#     Edge 21, Type (0, 1), BuildingBlock: TEMPAE_clean_linker_10, # of connection points: 2
#     Edge 22, Type (0, 1), BuildingBlock: TEMPAE_clean_linker_10, # of connection points: 2
#     Edge 23, Type (0, 1), BuildingBlock: TEMPAE_clean_linker_10, # of connection points: 2
#     Edge 24, Type (0, 1), BuildingBlock: TEMPAE_clean_linker_10, # of connection points: 2
#     Edge 25, Type (0, 1), BuildingBlock: TEMPAE_clean_linker_10, # of connection points: 2
#     Edge 26, Type (0, 1), BuildingBlock: TEMPAE_clean_linker_10, # of connection points: 2
#     Edge 27, Type (0, 1), BuildingBlock: TEMPAE_clean_linker_10, # of connection points: 2
#     Edge 28, Type (0, 1), BuildingBlock: TEMPAE_clean_linker_10, # of connection points: 2
#     Edge 29, Type (0, 1), BuildingBlock: TEMPAE_clean_linker_10, # of connection points: 2
#     Edge 30, Type (0, 1), BuildingBlock: TEMPAE_clean_linker_10, # of connection points: 2
#     Edge 31, Type (0, 1), BuildingBlock: TEMPAE_clean_linker_10, # of connection points: 2
#     Edge 32, Type (0, 1), BuildingBlock: TEMPAE_clean_linker_10, # of connection points: 2
#     Edge 33, Type (0, 1), BuildingBlock: TEMPAE_clean_linker_10, # of connection points: 2
#     Edge 34, Type (0, 1), BuildingBlock: TEMPAE_clean_linker_10, # of connection points: 2
#     Edge 35, Type (0, 1), BuildingBlock: TEMPAE_clean_linker_10, # of connection points: 2
# Relax obj value: 0.346
# Max RMSD: 0.276
# Mean RMSD: 0.218
data_MOF--net-zzz--node1-PAMTOO_clean_sbu_0--node2-KAKCAD_clean_linker_0--edge1-TEMPAE_clean_linker_10
_symmetry_space_group_name_H-M    P1
_symmetry_Int_Tables_number       1
_symmetry_cell_setting            triclinic
loop_
_symmetry_equiv_pos_as_xyz
'x, y, z'
_cell_length_a     65.289646
_cell_length_b     56.576977
_cell_length_c     21.171161
_cell_angle_alpha  91.469665
_cell_angle_beta   81.758555
_cell_angle_gamma 84.791681
loop_
_atom_site_label
_atom_site_type_symbol
_atom_site_fract_x
_atom_site_fract_y
_atom_site_fract_z
_atom_type_partial_charge
C0 C 0.80086 0.56231 0.18238 0.0
C1 C 0.82194 0.55425 0.18012 0.0
C2 C 0.78698 0.56118 0.23893 0.0
C3 C 0.79391 0.55136 0.29357 0.0
C4 C 0.81537 0.54533 0.29216 0.0
C5 C 0.82919 0.547 0.23647 0.0
C6 C 0.779 0.54381 0.34781 0.0
C7 C 0.76047 0.53482 0.33646 0.0
C8 C 0.74856 0.52284 0.38358 0.0
C9 C 0.7557 0.51894 0.44267 0.0
C10 C 0.77409 0.52836 0.45523 0.0
C11 C 0.78487 0.5417 0.40876 0.0
C12 C 0.78466 0.52183 0.51094 0.0
C13 C 0.7916 0.53977 0.54747 0.0
C14 C 0.79282 0.49823 0.51604 0.0
C15 C 0.80897 0.493 0.55218 0.0
C16 C 0.81724 0.51126 0.58415 0.0
C17 C 0.72938 0.5137 0.36678 0.0
C18 C 0.71024 0.52746 0.38236 0.0
C19 C 0.73101 0.49465 0.32191 0.0
C20 C 0.71416 0.49022 0.2906 0.0
C21 C 0.69535 0.50496 0.3029 0.0
C22 C 0.69338 0.52312 0.35083 0.0
C23 C 0.80765 0.53455 0.58373 0.0
H24 H 0.79492 0.56812 0.13955 0.0
H25 H 0.77069 0.56669 0.23856 0.0
H26 H 0.82155 0.53726 0.33211 0.0
H27 H 0.84528 0.54027 0.23613 0.0
H28 H 0.75565 0.53598 0.28967 0.0
H29 H 0.79897 0.54886 0.41868 0.0
H30 H 0.74731 0.5084 0.47779 0.0
H31 H 0.78579 0.55816 0.5437 0.0
H32 H 0.78801 0.4841 0.48765 0.0
H33 H 0.81571 0.47479 0.55234 0.0
H34 H 0.70875 0.54257 0.41573 0.0
H35 H 0.74579 0.48418 0.30796 0.0
H36 H 0.8136 0.54912 0.60733 0.0
H37 H 0.67906 0.53463 0.3621 0.0
H38 H 0.71636 0.47625 0.25365 0.0
C39 C 0.04972 0.7357 0.06841 0.0
C40 C 0.06627 0.74945 0.07441 0.0
C41 C 0.0395 0.72538 0.12172 0.0
C42 C 0.04576 0.7284 0.18203 0.0
C43 C 0.06349 0.7403 0.18674 0.0
C44 C 0.07361 0.75078 0.13356 0.0
C45 C 0.03274 0.72112 0.2404 0.0
C46 C 0.02314 0.70005 0.2402 0.0
C47 C 0.00937 0.69412 0.29319 0.0
C48 C 1.0054 0.70937 0.34832 0.0
C49 C 0.01548 0.73044 0.35 0.0
C50 C 0.02878 0.73616 0.29528 0.0
C51 C 0.0123 0.74737 0.40674 0.0
C52 C 0.99237 0.75492 0.43926 0.0
C53 C 0.02933 0.75837 0.42357 0.0
C54 C 0.02647 0.77759 0.46757 0.0
C55 C 1.00646 0.78621 0.4978 0.0
C56 C 0.99936 0.67193 0.28688 0.0
C57 C 0.98132 0.67246 0.25775 0.0
C58 C 0.01116 0.65012 0.29022 0.0
C59 C 1.00609 0.62961 0.25994 0.0
C60 C 0.98919 0.63056 0.22527 0.0
C61 C 0.9762 0.65193 0.22745 0.0
C62 C 0.98949 0.77406 0.48444 0.0
H63 H 0.0439 0.73408 0.02324 0.0
H64 H 0.0259 0.71633 0.11628 0.0
H65 H 0.069 0.74245 0.23225 0.0
H66 H 0.08623 0.76134 0.14004 0.0
H67 H 0.02618 0.68818 0.19814 0.0
H68 H 0.03554 0.75297 0.29459 0.0
H69 H 0.99484 0.70474 0.38942 0.0
H70 H 0.97891 0.74683 0.42758 0.0
H71 H 0.04498 0.75277 0.40035 0.0
H72 H 0.04001 0.78636 0.47516 0.0
H73 H 0.9723 0.68921 0.25312 0.0
H74 H 0.02538 0.64939 0.31122 0.0
H75 H 0.97387 0.77967 0.50761 0.0
H76 H 0.96317 0.65335 0.20092 0.0
H77 H 0.01624 0.61336 0.25994 0.0
C78 C 0.72421 0.04133 0.04699 0.0
C79 C 0.70893 0.06039 0.06473 0.0
C80 C 0.73669 0.0324 0.09094 0.0
C81 C 0.734 0.04235 0.15338 0.0
C82 C 0.71992 0.0626 0.16937 0.0
C83 C 0.70751 0.07157 0.1254 0.0
C84 C 0.74401 0.03005 0.20351 0.0
C85 C 0.76498 0.02136 0.19238 0.0
C86 C 0.7741 0.00847 0.23859 0.0
C87 C 0.76182 0.0039 0.29699 0.0
C88 C 0.74056 0.01272 0.30867 0.0
C89 C 0.73202 0.02574 0.26157 0.0
C90 C 0.7262 0.00847 0.36784 0.0
C91 C 0.72122 0.98542 0.38312 0.0
C92 C 0.71389 0.02794 0.40058 0.0
C93 C 0.69607 0.02461 0.44334 0.0
C94 C 0.6901 0.0017 0.45505 0.0
C95 C 0.79661 1.00058 0.22296 0.0
C96 C 0.8032 0.98203 0.17716 0.0
C97 C 0.81126 0.01544 0.23949 0.0
C98 C 0.83182 0.01268 0.20805 0.0
C99 C 0.83817 0.99504 0.15921 0.0
C100 C 0.82377 0.97917 0.14597 0.0
C101 C 0.70336 0.98206 0.42662 0.0
H102 H 0.72573 0.03252 1.00029 0.0
H103 H 0.74743 0.01677 0.07736 0.0
H104 H 0.71777 0.07079 0.21698 0.0
H105 H 0.69579 0.08619 0.14059 0.0
H106 H 0.77435 0.02479 0.14755 0.0
H107 H 0.71558 0.03184 0.26932 0.0
H108 H 0.7687 0.99382 0.33274 0.0
H109 H 0.73021 0.97011 0.35796 0.0
H110 H 0.71729 0.0459 0.38971 0.0
H111 H 0.68641 0.04008 0.46523 0.0
H112 H 0.79206 0.97078 0.16226 0.0
H113 H 0.80643 0.03024 0.27345 0.0
H114 H 0.69918 0.96418 0.43471 0.0
H115 H 0.82797 0.96554 0.10831 0.0
H116 H 0.84253 0.02504 0.22007 0.0
C117 C 0.50108 0.69071 0.39351 0.0
C118 C 0.51991 0.6839 0.41601 0.0
C119 C 0.50032 0.70703 0.34538 0.0
C120 C 0.51833 0.71702 0.31862 0.0
C121 C 0.53688 0.71158 0.34365 0.0
C122 C 0.53768 0.69514 0.39201 0.0
C123 C 0.51842 0.72862 0.25677 0.0
C124 C 0.52079 0.75295 0.24968 0.0
C125 C 0.5189 0.76325 0.19056 0.0
C126 C 0.51529 0.74899 0.13868 0.0
C127 C 0.51367 0.72464 0.14493 0.0
C128 C 0.51512 0.71469 0.20416 0.0
C129 C 0.51007 0.70938 0.09049 0.0
C130 C 0.49426 0.71605 0.05403 0.0
C131 C 0.52163 0.68721 0.07746 0.0
C132 C 0.51696 0.67159 0.03079 0.0
C133 C 0.50058 0.67775 0.99607 0.0
C134 C 0.52002 0.78897 0.18143 0.0
C135 C 0.50291 0.80252 0.16323 0.0
C136 C 0.53883 0.79918 0.18108 0.0
C137 C 0.54081 0.82218 0.15915 0.0
C138 C 0.52392 0.83537 0.13797 0.0
C139 C 0.50479 0.82549 0.14209 0.0
C140 C 0.48948 0.70031 0.00739 0.0
H141 H 0.48714 0.68229 0.40999 0.0
H142 H 0.48591 0.71073 0.32611 0.0
H143 H 0.55102 0.71883 0.32305 0.0
H144 H 0.55238 0.69056 0.40882 0.0
H145 H 0.52327 0.76388 0.29017 0.0
H146 H 0.51328 0.69596 0.20983 0.0
H147 H 0.51405 0.75685 0.09302 0.0
H148 H 0.48507 0.73303 0.06334 0.0
H149 H 0.53402 0.68173 0.10447 0.0
H150 H 0.52563 0.65424 0.02387 0.0
H151 H 0.4883 0.79488 0.16259 0.0
H152 H 0.55229 0.78891 0.19427 0.0
H153 H 0.47686 0.70557 0.98109 0.0
H154 H 0.49154 0.83496 0.12537 0.0
H155 H 0.55572 0.82935 0.15682 0.0
C156 C 0.21514 0.54716 0.30995 0.0
C157 C 0.19567 0.54027 0.3359 0.0
C158 C 0.2257 0.5364 0.25289 0.0
C159 C 0.21689 0.51872 0.22067 0.0
C160 C 0.19758 0.51164 0.24714 0.0
C161 C 0.18708 0.5223 0.30408 0.0
C162 C 0.2277 0.50776 0.1593 0.0
C163 C 0.24892 0.50058 0.15213 0.0
C164 C 0.2595 0.49021 0.09445 0.0
C165 C 0.24847 0.48672 0.04256 0.0
C166 C 0.22694 0.49429 0.0491 0.0
C167 C 0.21684 0.50456 0.10783 0.0
C168 C 0.21416 0.49249 0.99644 0.0
C169 C 0.20217 0.51291 0.98122 0.0
C170 C 0.2105 0.47033 0.97087 0.0
C171 C 0.19414 0.46856 0.93468 0.0
C172 C 0.18112 0.48889 0.92403 0.0
C173 C 0.28215 0.48412 0.0923 0.0
C174 C 0.29489 0.50282 0.09274 0.0
C175 C 0.28931 0.46191 0.11299 0.0
C176 C 0.30795 0.45908 0.13901 0.0
C177 C 0.31966 0.47852 0.14578 0.0
C178 C 0.31339 0.5001 0.1192 0.0
C179 C 0.18586 0.51113 0.94576 0.0
H180 H 0.2221 0.56096 0.33348 0.0
H181 H 0.24055 0.54229 0.23323 0.0
H182 H 0.19054 0.49789 0.22368 0.0
H183 H 0.1719 0.51692 0.32223 0.0
H184 H 0.25735 0.50291 0.19212 0.0
H185 H 0.20037 0.51037 0.11327 0.0
H186 H 0.25656 0.47887 0.99762 0.0
H187 H 0.20463 0.53022 1.00023 0.0
H188 H 0.21929 0.45428 0.9825 0.0
H189 H 0.19088 0.45116 0.91853 0.0
H190 H 0.28944 0.52031 0.07877 0.0
H191 H 0.27957 0.44736 0.11457 0.0
H192 H 0.17637 0.52716 0.93748 0.0
H193 H 0.32174 0.51559 0.1237 0.0
H194 H 0.31248 0.44201 0.1574 0.0
C195 C 0.0358 0.25202 0.36606 0.0
C196 C 0.0415 0.22749 0.3657 0.0
C197 C 0.04021 0.26455 0.31069 0.0
C198 C 0.05065 0.25282 0.25414 0.0
C199 C 0.05875 0.22905 0.25644 0.0
C200 C 0.05414 0.21645 0.31166 0.0
C201 C 0.04948 0.26397 0.19189 0.0
C202 C 0.05039 0.28841 0.18653 0.0
C203 C 0.04383 0.30019 0.13444 0.0
C204 C 0.03724 0.28699 0.08469 0.0
C205 C 0.03733 0.26206 0.088 0.0
C206 C 0.04356 0.25089 0.14155 0.0
C207 C 0.02943 0.24694 0.04003 0.0
C208 C 0.01357 0.23251 0.06089 0.0
C209 C 0.04008 0.24318 0.97761 0.0
C210 C 0.03587 0.22425 0.93849 0.0
C211 C 0.02099 0.20867 0.96118 0.0
C212 C 0.0409 0.32644 0.14121 0.0
C213 C 0.02128 0.3372 0.16826 0.0
C214 C 0.05838 0.33902 0.1434 0.0
C215 C 0.05657 0.36075 0.17788 0.0
C216 C 0.03728 0.37017 0.2118 0.0
C217 C 0.01947 0.35881 0.20336 0.0
C218 C 0.00946 0.21363 0.02229 0.0
H219 H 0.02641 0.26109 0.40747 0.0
H220 H 0.0337 0.28286 0.3109 0.0
H221 H 0.06726 0.21968 0.21407 0.0
H222 H 0.05884 0.19755 0.30976 0.0
H223 H 0.05475 0.29869 0.22562 0.0
H224 H 0.04249 0.23196 0.14562 0.0
H225 H 0.03144 0.29604 0.04542 0.0
H226 H 1.0052 0.23492 0.10902 0.0
H227 H 0.05251 0.25389 0.96056 0.0
H228 H 0.04481 0.22137 0.89131 0.0
H229 H 0.00764 0.3276 0.1686 0.0
H230 H 0.07373 0.33092 0.12385 0.0
H231 H 0.99809 0.20207 0.04232 0.0
H232 H 1.00435 0.36534 0.2288 0.0
H233 H 0.07056 0.36927 0.18182 0.0
C234 C 0.28102 0.9486 0.40524 0.0
C235 C 0.29711 0.96139 0.42148 0.0
C236 C 0.2686 0.9574 0.36089 0.0
C237 C 0.27237 0.97889 0.33155 0.0
C238 C 0.2879 0.99206 0.34963 0.0
C239 C 0.30009 0.98345 0.39433 0.0
C240 C 0.26112 0.98695 0.27918 0.0
C241 C 0.23943 0.98904 0.28703 0.0
C242 C 0.22869 0.99727 0.23782 0.0
C243 C 0.24007 0.00296 0.17885 0.0
C244 C 0.26209 1.00035 0.1704 0.0
C245 C 0.27229 0.99261 0.22105 0.0
C246 C 0.27553 0.00472 0.10979 0.0
C247 C 0.28218 0.98577 0.06528 0.0
C248 C 0.28648 0.02503 0.10582 0.0
C249 C 0.30436 0.02585 0.06067 0.0
C250 C 0.31194 0.00621 0.01894 0.0
C251 C 0.20563 1.0001 0.25206 0.0
C252 C 0.19491 0.97984 0.26362 0.0
C253 C 0.19519 0.0225 0.27111 0.0
C254 C 0.17488 0.02447 0.30469 0.0
C255 C 0.16458 0.00405 0.31997 0.0
C256 C 0.17461 0.98178 0.29678 0.0
C257 C 0.30014 0.9865 0.02033 0.0
H258 H 0.27844 0.93154 0.42552 0.0
H259 H 0.25669 0.94695 0.34743 0.0
H260 H 0.29095 0.00876 0.3279 0.0
H261 H 0.31258 0.99352 0.40516 0.0
H262 H 0.23082 0.98484 0.33244 0.0
H263 H 0.28916 0.99054 0.21467 0.0
H264 H 0.23196 0.00915 0.14032 0.0
H265 H 0.2744 0.96963 0.06841 0.0
H266 H 0.28209 0.03958 0.14085 0.0
H267 H 0.31307 0.04124 0.06164 0.0
H268 H 0.2028 0.96232 0.25092 0.0
H269 H 0.20327 0.03835 0.26419 0.0
H270 H 0.30531 0.97117 0.98849 0.0
H271 H 0.16736 0.96564 0.30803 0.0
H272 H 0.16757 0.04193 0.32102 0.0
C273 C 0.48241 0.29906 0.09789 0.0
C274 C 0.49783 0.30498 0.0488 0.0
C275 C 0.48739 0.28303 0.14405 0.0
C276 C 0.50786 0.27272 0.14197 0.0
C277 C 0.52297 0.27753 0.09106 0.0
C278 C 0.51799 0.29336 0.0447 0.0
C279 C 0.5145 0.26147 0.1989 0.0
C280 C 0.51038 0.23821 0.21502 0.0
C281 C 0.51733 0.22824 0.26955 0.0
C282 C 0.52785 0.24214 0.30816 0.0
C283 C 0.53165 0.2655 0.29323 0.0
C284 C 0.52505 0.27488 0.23808 0.0
C285 C 0.54137 0.28061 0.33698 0.0
C286 C 0.53605 0.27962 0.40357 0.0
C287 C 0.55497 0.29721 0.3127 0.0
C288 C 0.56197 0.31342 0.35374 0.0
C289 C 0.55566 0.31328 0.42007 0.0
C290 C 0.5135 0.20365 0.28854 0.0
C291 C 0.49392 0.19514 0.28873 0.0
C292 C 0.52905 0.18935 0.31294 0.0
C293 C 0.5248 0.16797 0.34097 0.0
C294 C 0.50493 0.15987 0.34437 0.0
C295 C 0.48969 0.17345 0.31624 0.0
C296 C 0.54323 0.29564 0.44458 0.0
H297 H 0.46671 0.30758 0.10211 0.0
H298 H 0.47559 0.27988 0.1836 0.0
H299 H 0.53894 0.27011 0.08931 0.0
H300 H 0.53031 0.29769 0.00814 0.0
H301 H 0.50221 0.22786 0.18474 0.0
H302 H 0.52748 0.29306 0.22635 0.0
H303 H 0.5329 0.23481 0.35076 0.0
H304 H 0.52552 0.26721 0.42415 0.0
H305 H 0.55974 0.29815 0.26175 0.0
H306 H 0.57142 0.32684 0.33313 0.0
H307 H 0.48159 0.20571 0.27031 0.0
H308 H 0.54444 0.19513 0.31253 0.0
H309 H 0.53835 0.2948 0.49551 0.0
H310 H 0.47432 0.16764 0.31674 0.0
H311 H 0.53695 0.1584 0.3626 0.0
Dy312 Dy 0.98778 0.00639 0.69588 0.0
Dy313 Dy 0.01851 0.98682 0.79554 0.0
C314 C 0.03637 1.0003 0.65378 0.0
O315 O 0.99727 0.96838 0.66517 0.0
O316 O 1.00536 0.9545 0.76019 0.0
O317 O 0.97958 0.00859 0.60087 0.0
O318 O 0.95857 0.02502 0.68164 0.0
O319 O 0.98789 0.99883 0.85474 0.0
O320 O 0.96814 0.9912 0.77768 0.0
O321 O 0.01925 0.02612 0.80568 0.0
O322 O 0.99348 0.03962 0.74783 0.0
O323 O 0.02397 0.96782 0.87929 0.0
O324 O 0.04937 0.98307 0.82213 0.0
C325 C 1.00094 0.95075 0.70237 0.0
O326 O 0.01955 0.01489 0.6539 0.0
O327 O 0.03701 0.9841 0.69706 0.0
C328 C 0.96342 0.04699 0.58834 0.0
C329 C 0.97063 0.09254 0.54481 0.0
C330 C 0.98076 0.07213 0.51059 0.0
C331 C 0.97711 0.04959 0.53192 0.0
C332 C 0.95197 0.06731 0.61945 0.0
C333 C 0.9556 0.0899 0.598 0.0
C334 C 0.96352 0.02392 0.61959 0.0
C335 C 0.96987 0.99477 0.83812 0.0
C336 C 0.00728 0.04342 0.78557 0.0
C337 C 0.05686 0.94666 0.86869 0.0
C338 C 0.07761 0.90167 0.88122 0.0
C339 C 0.06381 0.90496 0.83622 0.0
C340 C 0.05355 0.92732 0.82992 0.0
C341 C 0.0716 0.94388 0.91048 0.0
C342 C 0.082 0.92154 0.91653 0.0
C343 C 0.044 0.96925 0.86874 0.0
H344 H 0.99251 0.07353 0.46957 0.0
H345 H 0.98603 0.03431 0.50636 0.0
H346 H 0.94106 0.06587 0.66252 0.0
H347 H 0.94726 0.10531 0.62451 0.0
H348 H 0.05988 0.89003 0.80882 0.0
H349 H 0.04229 0.92927 0.79699 0.0
H350 H 0.07446 0.95875 0.94022 0.0
H351 H 0.09276 0.91961 0.95094 0.0
Dy352 Dy 0.499 0.97649 0.69865 0.0
Dy353 Dy 0.50686 0.0198 0.79536 0.0
C354 C 0.49278 0.03069 0.66004 0.0
O355 O 0.53376 0.97566 0.68879 0.0
O356 O 0.536 0.01389 0.72437 0.0
O357 O 0.50142 0.95901 0.60553 0.0
O358 O 0.4875 0.94219 0.68951 0.0
O359 O 0.52202 0.98693 0.83224 0.0
O360 O 0.50123 0.96147 0.79389 0.0
O361 O 0.47494 0.00954 0.8311 0.0
O362 O 0.46719 0.9938 0.73755 0.0
O363 O 0.50965 0.03364 0.88964 0.0
O364 O 0.51228 0.05646 0.80911 0.0
C365 C 0.54449 0.99404 0.69397 0.0
O366 O 0.49882 0.0087 0.63991 0.0
O367 O 0.49033 0.03709 0.72088 0.0
C368 C 0.47212 0.93813 0.59765 0.0
C369 C 0.43369 0.9321 0.55741 0.0
C370 C 0.44172 0.95433 0.55407 0.0
C371 C 0.4607 0.95736 0.57435 0.0
C372 C 0.46445 0.91576 0.59949 0.0
C373 C 0.44529 0.91276 0.57969 0.0
C374 C 0.49055 0.94196 0.62741 0.0
C375 C 0.51412 0.96643 0.83327 0.0
C376 C 0.4613 0.00241 0.79637 0.0
C377 C 0.53486 0.0608 0.88334 0.0
C378 C 0.57353 0.07389 0.90788 0.0
C379 C 0.57249 0.05463 0.86566 0.0
C380 C 0.55331 0.04807 0.85387 0.0
C381 C 0.53573 0.08015 0.92514 0.0
C382 C 0.55499 0.08659 0.93773 0.0
C383 C 0.51494 0.054 0.86846 0.0
H384 H 0.43291 0.96962 0.53809 0.0
H385 H 0.4661 0.97493 0.57383 0.0
H386 H 0.47295 0.90082 0.61819 0.0
H387 H 0.43942 0.89546 0.58257 0.0
H388 H 0.58651 0.04423 0.8431 0.0
H389 H 0.55284 0.03293 0.82201 0.0
H390 H 0.52158 0.09018 0.94807 0.0
H391 H 0.55544 0.10144 0.97067 0.0
Dy392 Dy 0.52433 0.49946 0.77617 0.0
Dy393 Dy 0.48836 0.48636 0.6811 0.0
C394 C 0.50115 0.45255 0.7936 0.0
O395 O 0.54331 0.47527 0.70055 0.0
O396 O 0.51746 0.4637 0.64458 0.0
O397 O 0.55276 0.51322 0.79678 0.0
O398 O 0.5291 0.50509 0.87405 0.0
O399 O 0.5045 0.5156 0.63186 0.0
O400 O 0.52113 0.53014 0.7123 0.0
O401 O 0.47725 0.52113 0.73165 0.0
O402 O 0.4913 0.50962 0.81818 0.0
O403 O 0.45599 0.48403 0.66912 0.0
O404 O 0.48098 0.4708 0.59434 0.0
C405 C 0.53688 0.46275 0.65523 0.0
O406 O 0.51889 0.46186 0.79292 0.0
O407 O 0.48596 0.46249 0.76526 0.0
C408 C 0.56392 0.50533 0.89822 0.0
C409 C 0.59314 0.49869 0.98513 0.0
C410 C 0.57491 0.48686 0.99241 0.0
C411 C 0.56045 0.49016 0.94953 0.0
C412 C 0.58241 0.51652 0.88977 0.0
C413 C 0.59684 0.51322 0.93247 0.0
C414 C 0.54751 0.51234 0.85852 0.0
C415 C 0.51465 0.53194 0.65625 0.0
C416 C 0.47971 0.52518 0.79098 0.0
C417 C 0.44782 0.481 0.56135 0.0
C418 C 0.42175 0.48451 0.46464 0.0
C419 C 0.44351 0.48113 0.44859 0.0
C420 C 0.45637 0.47939 0.49623 0.0
C421 C 0.42611 0.48528 0.57742 0.0
C422 C 0.41325 0.48715 0.5297 0.0
C423 C 0.46092 0.47442 0.61148 0.0
H424 H 0.57164 0.4753 0.03184 0.0
H425 H 0.54631 0.48135 0.95774 0.0
H426 H 0.58535 0.52862 0.85137 0.0
H427 H 0.61051 0.5229 0.92564 0.0
H428 H 0.45062 0.47934 0.39903 0.0
H429 H 0.47298 0.47587 0.48181 0.0
H430 H 0.41898 0.48617 0.62699 0.0
H431 H 0.39656 0.48955 0.54388 0.0
Dy432 Dy 1.00498 0.51876 0.70601 0.0
Dy433 Dy 0.99831 0.46803 0.77324 0.0
C434 C 0.0143 0.47014 0.62168 0.0
O435 O 0.97464 0.50905 0.6808 0.0
O436 O 0.96632 0.48471 0.76368 0.0
O437 O 0.00987 0.5419 0.62643 0.0
O438 O 1.00625 0.55623 0.72345 0.0
O439 O 0.99744 0.49553 0.85185 0.0
O440 O 0.98441 0.5265 0.79919 0.0
O441 O 0.03285 0.46848 0.75775 0.0
O442 O 0.03386 0.50882 0.74963 0.0
O443 O 0.99958 0.44555 0.85403 0.0
O444 O 0.98776 0.43293 0.77074 0.0
C445 C 0.96101 0.49748 0.71642 0.0
O446 O 0.01957 0.49181 0.62945 0.0
O447 O 1.00396 0.45932 0.66846 0.0
C448 C 0.03038 0.57223 0.64801 0.0
C449 C 0.06861 0.58996 0.60608 0.0
C450 C 0.06686 0.57406 0.65605 0.0
C451 C 0.04792 0.56525 0.67672 0.0
C452 C 0.03163 0.58933 0.60132 0.0
C453 C 0.05063 0.59823 0.58059 0.0
C454 C 0.0114 0.56029 0.66329 0.0
C455 C 0.9883 0.51713 0.85255 0.0
C456 C 0.04286 0.48762 0.75867 0.0
C457 C 0.96768 0.42858 0.87084 0.0
C458 C 0.92809 0.44609 0.93187 0.0
C459 C 0.94498 0.44453 0.96622 0.0
C460 C 0.96469 0.43568 0.93594 0.0
C461 C 0.95009 0.4264 0.84039 0.0
C462 C 0.93044 0.43533 0.87061 0.0
C463 C 0.98809 0.43055 0.83169 0.0
H464 H 0.08043 0.56703 0.67604 0.0
H465 H 0.04722 0.55211 0.71307 0.0
H466 H 0.01817 0.59499 0.579 0.0
H467 H 0.05151 0.6106 0.5423 0.0
H468 H 0.94345 0.45253 0.01392 0.0
H469 H 0.97787 0.43711 0.96116 0.0
H470 H 0.95173 0.42041 0.79075 0.0
H471 H 0.91743 0.43582 0.84409 0.0
C472 C 0.12883 0.9909 0.35505 0.0
C473 C 0.14444 0.00558 0.3647 0.0
C474 C 0.11069 0.99066 0.39996 0.0
C475 C 0.10801 0.00537 0.45633 0.0
C476 C 0.12345 0.02066 0.46561 0.0
C477 C 0.14139 0.02059 0.41985 0.0
C478 C 0.09459 0.97424 0.38772 0.0
C479 C 0.12133 0.03658 0.52497 0.0
C480 C 0.05389 0.01791 0.55422 0.0
C481 C 0.05466 0.00167 0.60319 0.0
C482 C 0.07103 0.01926 0.50611 0.0
C483 C 0.08951 0.00408 0.50677 0.0
C484 C 0.09038 0.98769 0.55609 0.0
C485 C 0.073 0.98666 0.60345 0.0
C486 C 0.06936 0.03696 0.45453 0.0
C487 C 0.10973 0.97121 0.55895 0.0
H488 H 0.13087 0.97941 0.31243 0.0
H489 H 0.15343 0.03173 0.42856 0.0
H490 H 0.09328 0.96086 0.42513 0.0
H491 H 0.07912 0.98442 0.39042 0.0
H492 H 0.09846 0.96478 0.34028 0.0
H493 H 0.13415 0.04827 0.52368 0.0
H494 H 0.10632 0.04785 0.53094 0.0
H495 H 0.1213 0.02558 0.56764 0.0
H496 H 0.03984 0.02959 0.55328 0.0
H497 H 0.07386 0.97406 0.6409 0.0
H498 H 0.07219 0.02762 0.40692 0.0
H499 H 0.08145 0.0495 0.45519 0.0
H500 H 0.05388 0.04733 0.46025 0.0
H501 H 0.11358 0.95993 0.51444 0.0
H502 H 0.10796 0.9595 0.6003 0.0
H503 H 0.12311 0.98171 0.56238 0.0
C504 C 0.51547 0.11951 0.38354 0.0
C505 C 0.50003 0.13835 0.38128 0.0
C506 C 0.51238 0.10115 0.42625 0.0
C507 C 0.49307 0.10102 0.46632 0.0
C508 C 0.47683 0.11887 0.46078 0.0
C509 C 0.48057 0.13747 0.41905 0.0
C510 C 0.53023 0.08265 0.43101 0.0
C511 C 0.45579 0.11896 0.50112 0.0
C512 C 0.48528 0.04345 0.55237 0.0
C513 C 0.49047 0.04916 0.61259 0.0
C514 C 0.48496 0.06051 0.50519 0.0
C515 C 0.49069 0.08353 0.51787 0.0
C516 C 0.49554 0.08947 0.5791 0.0
C517 C 0.49506 0.07233 0.62594 0.0
C518 C 0.47897 0.05372 0.44138 0.0
C519 C 0.5022 0.1136 0.5943 0.0
H520 H 0.53033 0.11946 0.35328 0.0
H521 H 0.46848 0.15186 0.41836 0.0
H522 H 0.53499 0.08409 0.47914 0.0
H523 H 0.52536 0.06455 0.4251 0.0
H524 H 0.54396 0.08466 0.39466 0.0
H525 H 0.44396 0.13165 0.48412 0.0
H526 H 0.45033 0.10095 0.50095 0.0
H527 H 0.45698 0.12407 0.5513 0.0
H528 H 0.48159 0.02558 0.54201 0.0
H529 H 0.49929 0.07678 0.67219 0.0
H530 H 0.49283 0.05279 0.40404 0.0
H531 H 0.46733 0.06742 0.42757 0.0
H532 H 0.47245 0.03625 0.44183 0.0
H533 H 0.51666 0.11652 0.56214 0.0
H534 H 0.5051 0.11554 0.64453 0.0
H535 H 0.49011 0.12776 0.58586 0.0
C536 C 0.35397 0.49037 0.17301 0.0
C537 C 0.33664 0.47733 0.18686 0.0
C538 C 0.36865 0.49157 0.21544 0.0
C539 C 0.36619 0.47923 0.27305 0.0
C540 C 0.34919 0.46537 0.28628 0.0
C541 C 0.33462 0.46471 0.24346 0.0
C542 C 0.38653 0.50658 0.1994 0.0
C543 C 0.34603 0.45173 0.34675 0.0
C544 C 0.41229 0.46666 0.36374 0.0
C545 C 0.40799 0.48393 0.41396 0.0
C546 C 0.39902 0.46511 0.31722 0.0
C547 C 0.381 0.4813 0.32046 0.0
C548 C 0.37675 0.49904 0.37037 0.0
C549 C 0.3902 0.50006 0.41658 0.0
C550 C 0.40405 0.44576 0.26541 0.0
C551 C 0.35784 0.51682 0.37536 0.0
H552 H 0.35595 0.49995 0.12923 0.0
H553 H 0.32119 0.45493 0.25578 0.0
H554 H 0.38553 0.52113 0.23618 0.0
H555 H 0.40153 0.49572 0.19982 0.0
H556 H 0.38664 0.51452 0.15191 0.0
H557 H 0.3328 0.44062 0.34821 0.0
H558 H 0.36031 0.44005 0.35124 0.0
H559 H 0.34303 0.4643 0.38885 0.0
H560 H 0.4258 0.45388 0.36173 0.0
H561 H 0.38684 0.5136 0.45475 0.0
H562 H 0.40484 0.45357 0.2177 0.0
H563 H 0.39149 0.43368 0.26935 0.0
H564 H 0.41903 0.4351 0.2681 0.0
H565 H 0.35787 0.52638 0.33024 0.0
H566 H 0.35714 0.53007 0.41546 0.0
H567 H 0.34353 0.50746 0.38252 0.0
C568 C 0.01875 0.40608 0.27647 0.0
C569 C 0.03615 0.38927 0.26287 0.0
C570 C 0.01611 0.42153 0.33086 0.0
C571 C 0.03124 0.42027 0.37277 0.0
C572 C 0.04939 0.40434 0.35733 0.0
C573 C 0.05158 0.38903 0.30295 0.0
C574 C 0.99655 0.43831 0.34533 0.0
C575 C 0.06596 0.40238 0.40043 0.0
C576 C 0.02954 0.46823 0.50471 0.0
C577 C 0.01928 0.4575 0.55784 0.0
C578 C 0.0335 0.45645 0.44404 0.0
C579 C 0.02703 0.43344 0.43619 0.0
C580 C 0.01674 0.42255 0.48966 0.0
C581 C 0.01305 0.43464 0.54952 0.0
C582 C 0.04459 0.46862 0.38832 0.0
C583 C 0.00958 0.39804 0.4837 0.0
H584 H 1.00686 0.40671 0.24555 0.0
H585 H 0.06495 0.37594 0.294 0.0
H586 H 0.98659 0.43238 0.3878 0.0
H587 H 1.00038 0.45647 0.35694 0.0
H588 H 0.98746 0.4391 0.30477 0.0
H589 H 0.08022 0.39136 0.37795 0.0
H590 H 0.07023 0.42024 0.4132 0.0
H591 H 0.05984 0.39419 0.4455 0.0
H592 H 0.03439 0.48588 0.51037 0.0
H593 H 1.00508 0.42609 0.5899 0.0
H594 H 0.03471 0.47042 0.34992 0.0
H595 H 0.05912 0.45766 0.36802 0.0
H596 H 0.04857 0.48653 0.40211 0.0
H597 H 0.99874 0.39779 0.44786 0.0
H598 H 1.00159 0.39215 0.52971 0.0
H599 H 0.02308 0.38498 0.46665 0.0
C600 C 0.87062 0.973 0.09743 0.0
C601 C 0.8589 0.99458 0.11808 0.0
C602 C 0.88931 0.97242 0.05456 0.0
C603 C 0.89648 0.9939 0.03109 0.0
C604 C 0.88494 0.01575 0.05273 0.0
C605 C 0.8664 0.01583 0.09589 0.0
C606 C 0.90119 0.94874 0.03335 0.0
C607 C 0.89184 0.03908 0.0287 0.0
C608 C 0.95294 0.9956 0.95318 0.0
C609 C 0.95123 0.99412 0.88782 0.0
C610 C 0.93536 0.99524 1.00028 0.0
C611 C 0.91549 0.99354 0.98183 0.0
C612 C 0.9137 0.99197 0.91596 0.0
C613 C 0.93152 0.9922 0.86995 0.0
C614 C 0.93803 0.99682 0.06985 0.0
C615 C 0.89286 0.99029 0.89395 0.0
H616 H 0.8651 0.9565 0.1146 0.0
H617 H 0.85735 0.03258 0.1105 0.0
H618 H 0.9015 0.94567 0.98124 0.0
H619 H 0.91755 0.94871 0.04203 0.0
H620 H 0.89421 0.93375 0.05853 0.0
H621 H 0.88168 0.05458 0.0522 0.0
H622 H 0.90803 0.04084 0.03706 0.0
H623 H 0.89169 0.03959 0.97641 0.0
H624 H 0.96805 0.99703 0.96772 0.0
H625 H 0.92993 0.9911 0.81973 0.0
H626 H 0.93193 0.98132 0.09472 0.0
H627 H 0.92891 0.01299 0.09327 0.0
H628 H 0.95455 0.9974 0.07649 0.0
H629 H 0.88575 0.9745 0.91391 0.0
H630 H 0.89407 0.989 0.84107 0.0
H631 H 0.88214 0.00614 0.91194 0.0
C632 C 0.54347 0.85999 0.05744 0.0
C633 C 0.52648 0.85816 0.10528 0.0
C634 C 0.54407 0.87946 0.01748 0.0
C635 C 0.5273 0.89752 0.02553 0.0
C636 C 0.51094 0.89666 0.07692 0.0
C637 C 0.51072 0.877 0.11609 0.0
C638 C 0.56186 0.8797 0.9635 0.0
C639 C 0.49283 0.91561 0.08766 0.0
C640 C 0.52967 0.95418 0.93135 0.0
C641 C 0.51879 0.9487 0.88112 0.0
C642 C 0.53294 0.93762 0.97839 0.0
C643 C 0.52518 0.91509 0.97493 0.0
C644 C 0.51462 0.90934 0.92351 0.0
C645 C 0.51157 0.92615 0.87747 0.0
C646 C 0.54432 0.94436 0.03238 0.0
C647 C 0.50616 0.88551 0.91762 0.0
H648 H 0.55566 0.84547 0.04842 0.0
H649 H 0.49772 0.87588 0.15364 0.0
H650 H 0.55645 0.87515 0.91775 0.0
H651 H 0.5674 0.89764 0.95952 0.0
H652 H 0.57515 0.8667 0.96982 0.0
H653 H 0.48293 0.91414 0.13439 0.0
H654 H 0.49841 0.93356 0.08553 0.0
H655 H 0.48307 0.91396 0.04924 0.0
H656 H 0.53531 0.97155 0.93462 0.0
H657 H 0.50328 0.92159 0.83871 0.0
H658 H 0.55742 0.93077 0.036 0.0
H659 H 0.53365 0.94492 0.07829 0.0
H660 H 0.55049 0.96195 0.02619 0.0
H661 H 0.51883 0.87099 0.91674 0.0
H662 H 0.49881 0.88359 0.8738 0.0
H663 H 0.49439 0.88314 0.95972 0.0
C664 C 0.67359 0.48049 0.24203 0.0
C665 C 0.67876 0.50282 0.26165 0.0
C666 C 0.65917 0.47838 0.19911 0.0
C667 C 0.64974 0.49908 0.17469 0.0
C668 C 0.65461 0.52167 0.19521 0.0
C669 C 0.66898 0.52326 0.23835 0.0
C670 C 0.6543 0.45397 0.17901 0.0
C671 C 0.64505 0.54421 0.17024 0.0
C672 C 0.62934 0.49594 0.01482 0.0
C673 C 0.60774 0.49697 0.0337 0.0
C674 C 0.64316 0.49608 0.06009 0.0
C675 C 0.63529 0.49723 0.12618 0.0
C676 C 0.61356 0.49765 0.14562 0.0
C677 C 0.60009 0.49754 0.0993 0.0
C678 C 0.66619 0.49552 0.03711 0.0
C679 C 0.60449 0.49888 0.21548 0.0
H680 H 0.68091 0.4646 0.26007 0.0
H681 H 0.67309 0.54059 0.25216 0.0
H682 H 0.63729 0.45267 0.18855 0.0
H683 H 0.65918 0.45086 0.12685 0.0
H684 H 0.66224 0.43968 0.20429 0.0
H685 H 0.64986 0.56041 0.19256 0.0
H686 H 0.6497 0.5445 0.11778 0.0
H687 H 0.62784 0.54486 0.17929 0.0
H688 H 0.63548 0.49513 0.96438 0.0
H689 H 0.58346 0.49867 0.11464 0.0
H690 H 0.67469 0.48047 0.05793 0.0
H691 H 0.67207 0.51207 0.05345 0.0
H692 H 0.6699 0.49375 0.98423 0.0
H693 H 0.61204 0.48433 0.24074 0.0
H694 H 0.58744 0.49759 0.22286 0.0
H695 H 0.60757 0.51589 0.23789 0.0
C696 C 0.96757 0.60347 0.17162 0.0
C697 C 0.98709 0.61076 0.17936 0.0
C698 C 0.96554 0.58654 0.12338 0.0
C699 C 0.9834 0.57704 0.08116 0.0
C700 C 1.00317 0.58389 0.08991 0.0
C701 C 1.00476 0.60052 0.13888 0.0
C702 C 0.94424 0.57937 0.1164 0.0
C703 C 0.0226 0.57449 0.04563 0.0
C704 C 0.98598 0.52191 0.97193 0.0
C705 C 0.98423 0.53199 0.9128 0.0
C706 C 0.98449 0.53627 0.02805 0.0
C707 C 0.98153 0.56131 0.02484 0.0
C708 C 0.97886 0.57148 0.96576 0.0
C709 C 0.98008 0.55672 0.9107 0.0
C710 C 0.98697 0.52467 0.09025 0.0
C711 C 0.97586 0.59808 0.95987 0.0
H712 H 0.95385 0.61121 0.20283 0.0
H713 H 0.01985 0.60635 0.14356 0.0
H714 H 0.93951 0.58622 0.0715 0.0
H715 H 0.94453 0.55974 0.11314 0.0
H716 H 0.9323 0.58634 0.15692 0.0
H717 H 0.03688 0.58077 0.06056 0.0
H718 H 0.02421 0.55479 0.04383 0.0
H719 H 0.02148 0.58028 0.99645 0.0
H720 H 0.98899 0.50282 0.97419 0.0
H721 H 0.9787 0.56473 0.86536 0.0
H722 H 0.97462 0.53223 0.12884 0.0
H723 H 1.00213 0.52828 0.10449 0.0
H724 H 0.98639 0.50512 0.08659 0.0
H725 H 0.96287 0.60596 0.99594 0.0
H726 H 0.97257 0.60312 0.91169 0.0
H727 H 0.99011 0.60602 0.96928 0.0
C728 C 0.00932 0.2169 0.43256 0.0
C729 C 0.03094 0.21269 0.41467 0.0
C730 C 0.99796 0.19993 0.46488 0.0
C731 C 0.00848 0.17825 0.47922 0.0
C732 C 0.03046 0.17492 0.46722 0.0
C733 C 0.04148 0.19223 0.43492 0.0
C734 C 0.97456 0.20432 0.47836 0.0
C735 C 0.04221 0.15222 0.48363 0.0
C736 C 0.98095 0.13214 0.57682 0.0
C737 C 0.9774 0.1162 0.52849 0.0
C738 C 0.99035 0.15301 0.56179 0.0
C739 C 0.9965 0.15781 0.497 0.0
C740 C 0.99197 0.14243 0.44808 0.0
C741 C 0.98238 0.12186 0.46447 0.0
C742 C 0.99461 0.16914 0.61533 0.0
C743 C 0.99796 0.1472 0.37827 0.0
H744 H 1.00097 0.23258 0.41683 0.0
H745 H 0.05821 0.18912 0.42223 0.0
H746 H 0.96764 0.19349 0.44398 0.0
H747 H 0.96869 0.19887 0.52709 0.0
H748 H 0.96909 0.22329 0.47383 0.0
H749 H 0.05923 0.15359 0.4785 0.0
H750 H 0.03664 0.14756 0.53333 0.0
H751 H 0.03934 0.13746 0.45148 0.0
H752 H 0.97724 0.12782 0.62646 0.0
H753 H 0.97929 0.10983 0.42704 0.0
H754 H 0.99305 0.18808 0.60293 0.0
H755 H 0.01079 0.16465 0.62457 0.0
H756 H 0.98393 0.16694 0.66011 0.0
H757 H 0.99131 0.16517 0.36778 0.0
H758 H 0.99254 0.13399 0.34626 0.0
H759 H 0.01513 0.14675 0.36686 0.0
C760 C 0.31972 0.96506 0.5059 0.0
C761 C 0.31249 0.95089 0.4602 0.0
C762 C 0.33803 0.9578 0.53017 0.0
C763 C 0.34925 0.93585 0.50806 0.0
C764 C 0.34073 0.92032 0.46764 0.0
C765 C 0.32239 0.92806 0.44396 0.0
C766 C 0.34643 0.97472 0.57413 0.0
C767 C 0.35204 0.89658 0.44414 0.0
C768 C 0.40721 0.93974 0.48505 0.0
C769 C 0.41275 0.92976 0.5407 0.0
C770 C 0.38669 0.94077 0.47262 0.0
C771 C 0.37136 0.93156 0.51701 0.0
C772 C 0.37708 0.92023 0.57155 0.0
C773 C 0.39779 0.9195 0.58286 0.0
C774 C 0.38127 0.95282 0.41347 0.0
C775 C 0.3612 0.91008 0.61965 0.0
H776 H 0.31182 0.98254 0.51936 0.0
H777 H 0.31682 0.91703 0.40866 0.0
H778 H 0.35226 0.96517 0.61405 0.0
H779 H 0.35972 0.98282 0.54712 0.0
H780 H 0.33449 0.98924 0.59429 0.0
H781 H 0.3416 0.88478 0.42443 0.0
H782 H 0.36499 0.89935 0.4058 0.0
H783 H 0.35888 0.88749 0.48313 0.0
H784 H 0.41886 0.94736 0.45206 0.0
H785 H 0.40206 0.91191 0.62619 0.0
H786 H 0.37068 0.96916 0.42748 0.0
H787 H 0.37298 0.94097 0.38549 0.0
H788 H 0.39523 0.95781 0.38212 0.0
H789 H 0.35177 0.92479 0.64911 0.0
H790 H 0.36865 0.898 0.65207 0.0
H791 H 0.3504 0.90023 0.59543 0.0
C792 C 0.57882 0.34327 0.45305 0.0
C793 C 0.5598 0.33316 0.46235 0.0
C794 C 0.58147 0.36429 0.4866 0.0
C795 C 0.56462 0.3755 0.52976 0.0
C796 C 0.5459 0.36449 0.54239 0.0
C797 C 0.54372 0.34354 0.50851 0.0
C798 C 0.60183 0.37515 0.47293 0.0
C799 C 0.5275 0.37575 0.58828 0.0
C800 C 0.56191 0.42666 0.64913 0.0
C801 C 0.55114 0.44425 0.61792 0.0
C802 C 0.56891 0.40452 0.6181 0.0
C803 C 0.56495 0.4002 0.55494 0.0
C804 C 0.55662 0.41911 0.52092 0.0
C805 C 0.5497 0.44091 0.55307 0.0
C806 C 0.57825 0.38502 0.65542 0.0
C807 C 0.55241 0.41548 0.4532 0.0
H808 H 0.59144 0.33513 0.4182 0.0
H809 H 0.52888 0.3361 0.51557 0.0
H810 H 0.60035 0.38939 0.43837 0.0
H811 H 0.60603 0.38328 0.51698 0.0
H812 H 0.61467 0.36178 0.45185 0.0
H813 H 0.51473 0.36397 0.59649 0.0
H814 H 0.5323 0.38019 0.63499 0.0
H815 H 0.52131 0.39256 0.56895 0.0
H816 H 0.56293 0.42925 0.69948 0.0
H817 H 0.54146 0.45466 0.52903 0.0
H818 H 0.59034 0.37329 0.62428 0.0
H819 H 0.56589 0.37396 0.67551 0.0
H820 H 0.58521 0.39239 0.69571 0.0
H821 H 0.54897 0.43262 0.43061 0.0
H822 H 0.53881 0.40504 0.4533 0.0
H823 H 0.56588 0.40536 0.42351 0.0
C824 C 0.17178 0.53985 0.43861 0.0
C825 C 0.18333 0.55279 0.3931 0.0
C826 C 0.15586 0.55127 0.48317 0.0
C827 C 0.15165 0.57626 0.4825 0.0
C828 C 0.16513 0.58964 0.44269 0.0
C829 C 0.18077 0.57769 0.39773 0.0
C830 C 0.14211 0.53631 0.52585 0.0
C831 C 0.16178 0.61637 0.44309 0.0
C832 C 0.09379 0.59039 0.50675 0.0
C833 C 0.08954 0.59391 0.57323 0.0
C834 C 0.11425 0.58688 0.47561 0.0
C835 C 0.13085 0.58711 0.5119 0.0
C836 C 0.1267 0.59348 0.57783 0.0
C837 C 0.106 0.59664 0.60799 0.0
C838 C 0.11794 0.58023 0.40498 0.0
C839 C 0.14394 0.5949 0.61777 0.0
H840 H 0.17424 0.52061 0.43641 0.0
H841 H 0.18985 0.58784 0.36316 0.0
H842 H 0.13965 0.54355 0.57579 0.0
H843 H 0.12665 0.53669 0.50965 0.0
H844 H 0.14877 0.51751 0.52524 0.0
H845 H 0.17623 0.62419 0.42327 0.0
H846 H 0.14962 0.62173 0.41325 0.0
H847 H 0.1564 0.62391 0.49221 0.0
H848 H 0.08119 0.58812 0.47957 0.0
H849 H 0.10275 0.59981 0.65933 0.0
H850 H 0.12403 0.56124 0.39768 0.0
H851 H 0.12971 0.59089 0.37943 0.0
H852 H 0.1035 0.58294 0.38292 0.0
H853 H 0.1478 0.57715 0.63645 0.0
H854 H 0.13906 0.60753 0.65939 0.0
H855 H 0.15823 0.60046 0.58944 0.0
C856 C 0.05845 0.77918 0.99451 0.0
C857 C 0.07335 0.7657 0.02354 0.0
C858 C 0.06369 0.79884 0.95906 0.0
C859 C 0.08435 0.80515 0.95237 0.0
C860 C 0.09993 0.79012 0.97539 0.0
C861 C 0.09422 0.77058 0.01121 0.0
C862 C 0.04657 0.81428 0.93489 0.0
C863 C 0.12227 0.79579 0.9671 0.0
C864 C 0.09006 0.85893 0.85125 0.0
C865 C 0.08458 0.87726 0.89824 0.0
C866 C 0.09212 0.83507 0.86813 0.0
C867 C 0.0883 0.82957 0.93332 0.0
C868 C 0.08461 0.84811 0.98096 0.0
C869 C 0.08283 0.8717 0.96281 0.0
C870 C 0.09673 0.81585 0.81601 0.0
C871 C 0.08048 0.84307 0.05119 0.0
H872 H 0.04227 0.77569 0.00399 0.0
H873 H 0.10588 0.75991 0.03242 0.0
H874 H 0.04326 0.83112 0.96417 0.0
H875 H 0.05142 0.81891 0.88475 0.0
H876 H 0.03195 0.80548 0.93737 0.0
H877 H 0.13299 0.77984 0.97287 0.0
H878 H 0.12687 0.80302 0.91947 0.0
H879 H 0.12415 0.80948 0.00374 0.0
H880 H 0.09181 0.86316 0.80122 0.0
H881 H 0.07841 0.88569 0.99948 0.0
H882 H 0.08192 0.8095 0.80573 0.0
H883 H 0.10643 0.80042 0.83076 0.0
H884 H 0.10479 0.82256 0.77116 0.0
H885 H 0.06537 0.83539 0.06181 0.0
H886 H 0.0799 0.85935 0.08212 0.0
H887 H 0.09269 0.82989 0.06401 0.0
C888 C 0.68219 0.0475 1.00233 0.0
C889 C 0.69234 0.06604 0.02508 0.0
C890 C 0.66383 0.05215 0.97606 0.0
C891 C 0.65553 0.07596 0.97186 0.0
C892 C 0.66653 0.09482 0.99024 0.0
C893 C 0.68476 0.08962 0.01728 0.0
C894 C 0.65253 0.03149 0.9573 0.0
C895 C 0.65842 0.12041 0.98483 0.0
C896 C 0.61093 0.08018 0.87567 0.0
C897 C 0.59395 0.07924 0.924 0.0
C898 C 0.63108 0.08113 0.89064 0.0
C899 C 0.63426 0.08066 0.95532 0.0
C900 C 0.61697 0.08129 0.00436 0.0
C901 C 0.59697 0.08072 0.98804 0.0
C902 C 0.64906 0.08102 0.83715 0.0
C903 C 0.61972 0.08062 0.07396 0.0
H904 H 0.68781 0.02924 0.00902 0.0
H905 H 0.69271 0.10399 0.03438 0.0
H906 H 0.63767 0.03128 0.99006 0.0
H907 H 0.64867 0.0334 0.90826 0.0
H908 H 0.66181 0.01414 0.95926 0.0
H909 H 0.67044 0.13271 0.99036 0.0
H910 H 0.65295 0.12316 0.93806 0.0
H911 H 0.64494 0.12513 0.02261 0.0
H912 H 0.60852 0.07932 0.82607 0.0
H913 H 0.58386 0.07984 0.02538 0.0
H914 H 0.65751 0.063 0.83069 0.0
H915 H 0.66025 0.09353 0.84874 0.0
H916 H 0.64376 0.08587 0.79119 0.0
H917 H 0.62757 0.06311 0.08343 0.0
H918 H 0.60464 0.08342 0.10624 0.0
H919 H 0.62973 0.0944 0.08593 0.0
C920 C 0.47322 0.65565 0.95577 0.0
C921 C 0.49422 0.65974 0.95247 0.0
C922 C 0.46737 0.63584 0.9239 0.0
C923 C 0.48291 0.61974 0.88846 0.0
C924 C 0.50395 0.6248 0.88092 0.0
C925 C 0.50933 0.64479 0.91293 0.0
C926 C 0.44474 0.63126 0.932 0.0
C927 C 0.52101 0.60818 0.84303 0.0
C928 C 0.47802 0.55374 0.88319 0.0
C929 C 0.47565 0.54958 0.81927 0.0
C930 C 0.47913 0.57678 0.90733 0.0
C931 C 0.4778 0.59613 0.8665 0.0
C932 C 0.47387 0.59225 0.80324 0.0
C933 C 0.47278 0.56896 0.78032 0.0
C934 C 0.48329 0.58017 0.97521 0.0
C935 C 0.47234 0.61243 0.75843 0.0
H936 H 0.46145 0.6671 0.98639 0.0
H937 H 0.52554 0.64816 0.90924 0.0
H938 H 0.44029 0.62548 0.8858 0.0
H939 H 0.44212 0.61672 0.96556 0.0
H940 H 0.43438 0.64725 0.9513 0.0
H941 H 0.53603 0.61619 0.83481 0.0
H942 H 0.52326 0.59165 0.86935 0.0
H943 H 0.5167 0.60308 0.79612 0.0
H944 H 0.48013 0.53883 0.91354 0.0
H945 H 0.47103 0.56589 0.7307 0.0
H946 H 0.47215 0.59437 1.00093 0.0
H947 H 0.49915 0.5858 0.97489 0.0
H948 H 0.48214 0.56364 1.00221 0.0
H949 H 0.46682 0.60693 0.71352 0.0
H950 H 0.48787 0.61897 0.74601 0.0
H951 H 0.46167 0.62751 0.78187 0.0
C952 C 0.82866 0.53311 0.0741 0.0
C953 C 0.83555 0.54811 0.11875 0.0
C954 C 0.84295 0.51897 0.02986 0.0
C955 C 0.86447 0.52 0.03077 0.0
C956 C 0.87133 0.53767 0.06914 0.0
C957 C 0.8567 0.55164 0.11274 0.0
C958 C 0.83505 0.50085 0.98811 0.0
C959 C 0.89417 0.53981 0.07019 0.0
C960 C 0.89906 0.46211 0.01597 0.0
C961 C 0.90982 0.46302 0.95427 0.0
C962 C 0.8837 0.48025 0.04043 0.0
C963 C 0.87938 0.49991 1.00248 0.0
C964 C 0.88992 0.5006 0.93955 0.0
C965 C 0.90497 0.48205 0.9161 0.0
C966 C 0.87262 0.47877 0.10774 0.0
C967 C 0.88618 0.52146 0.89825 0.0
H968 H 0.8123 0.53037 0.07832 0.0
H969 H 0.86199 0.56357 0.14656 0.0
H970 H 0.84424 0.49944 0.93963 0.0
H971 H 0.83672 0.48317 0.00932 0.0
H972 H 0.81839 0.50532 0.98378 0.0
H973 H 0.89684 0.55706 0.09237 0.0
H974 H 0.9005 0.52533 0.09836 0.0
H975 H 0.90301 0.53797 0.02126 0.0
H976 H 0.903 0.44747 0.04544 0.0
H977 H 0.91376 0.48306 0.86898 0.0
H978 H 0.85555 0.48044 0.10797 0.0
H979 H 0.87627 0.49368 0.13802 0.0
H980 H 0.87714 0.46181 0.12968 0.0
H981 H 0.8693 0.52663 0.90021 0.0
H982 H 0.89327 0.51759 0.8477 0.0
H983 H 0.89314 0.53698 0.91642 0.0
C984 C 0.03593 0.17295 0.88946 0.0
C985 C 0.01856 0.18624 0.92456 0.0
C986 C 0.03429 0.15047 0.86147 0.0
C987 C 0.01492 0.14064 0.8697 0.0
C988 C 0.99718 0.15431 0.90266 0.0
C989 C 0.99916 0.17694 0.92897 0.0
C990 C 0.05341 0.13694 0.82427 0.0
C991 C 0.97618 0.14469 0.9119 0.0
C992 C 1.00531 0.08722 0.76727 0.0
C993 C 0.00944 0.06826 0.80644 0.0
C994 C 0.00766 0.11076 0.78613 0.0
C995 C 0.01342 0.11564 0.84688 0.0
C996 C 0.0174 0.09653 0.88684 0.0
C997 C 0.01569 0.07309 0.86574 0.0
C998 C 1.00366 0.13025 0.74092 0.0
C999 C 0.02314 0.10086 0.95247 0.0
H1000 H 0.05106 0.17966 0.88576 0.0
H1001 H 0.98547 0.18718 0.95423 0.0
H1002 H 0.05777 0.12074 0.84961 0.0
H1003 H 0.0501 0.13111 0.7766 0.0
H1004 H 0.06689 0.14775 0.81763 0.0
H1005 H 0.96388 0.15747 0.93876 0.0
H1006 H 0.9716 0.14034 0.86481 0.0
H1007 H 0.97702 0.12799 0.93822 0.0
H1008 H 1.00059 0.08363 0.72116 0.0
H1009 H 0.01877 0.05855 0.89646 0.0
H1010 H 0.01342 0.14506 0.74581 0.0
H1011 H 0.98711 0.13746 0.75141 0.0
H1012 H 1.00669 0.12334 0.69053 0.0
H1013 H 0.03766 0.10982 0.94866 0.0
H1014 H 0.02542 0.08415 0.9781 0.0
H1015 H 0.01072 0.11286 0.98156 0.0
C1016 C 0.34688 0.98478 0.97519 0.0
C1017 C 0.33296 0.0054 0.9789 0.0
C1018 C 0.36731 0.9842 0.94246 0.0
C1019 C 0.37417 0.0047 0.9121 0.0
C1020 C 0.36004 0.02539 0.91412 0.0
C1021 C 0.33971 0.02553 0.94763 0.0
C1022 C 0.38179 0.9618 0.94219 0.0
C1023 C 0.36654 0.04758 0.88197 0.0
C1024 C 0.43253 0.01122 0.88912 0.0
C1025 C 0.43885 0.00369 0.82494 0.0
C1026 C 0.41161 0.01182 0.91762 0.0
C1027 C 0.39639 0.00483 0.88128 0.0
C1028 C 0.40259 0.99748 0.81625 0.0
C1029 C 0.42367 0.99693 0.78898 0.0
C1030 C 0.40585 0.01964 0.98712 0.0
C1031 C 0.38695 0.98997 0.77553 0.0
H1032 H 0.34206 0.96923 0.99994 0.0
H1033 H 0.3291 0.0415 0.9496 0.0
H1034 H 0.38849 0.95602 0.89248 0.0
H1035 H 0.39493 0.96534 0.96788 0.0
H1036 H 0.37386 0.94702 0.96526 0.0
H1037 H 0.35344 0.06171 0.88458 0.0
H1038 H 0.37911 0.05459 0.90494 0.0
H1039 H 0.37288 0.0434 0.83103 0.0
H1040 H 0.44401 0.01645 0.91764 0.0
H1041 H 0.42826 0.99108 0.73941 0.0
H1042 H 0.39912 0.00505 0.01464 0.0
H1043 H 0.39379 0.03497 0.99227 0.0
H1044 H 0.41941 0.02482 0.00866 0.0
H1045 H 0.37969 0.97433 0.79591 0.0
H1046 H 0.39408 0.98533 0.72539 0.0
H1047 H 0.3743 0.00446 0.77545 0.0
C1048 C 0.48329 0.34662 0.03279 0.0
C1049 C 0.49376 0.32504 0.00654 0.0
C1050 C 0.48215 0.36693 0.99612 0.0
C1051 C 0.49164 0.36568 0.93147 0.0
C1052 C 0.50114 0.34361 0.90364 0.0
C1053 C 0.50215 0.32359 0.94154 0.0
C1054 C 0.47196 0.3901 0.02784 0.0
C1055 C 0.51124 0.34141 0.83472 0.0
C1056 C 0.48083 0.41783 0.826 0.0
C1057 C 0.49832 0.43035 0.82875 0.0
C1058 C 0.47842 0.39666 0.85879 0.0
C1059 C 0.49379 0.38789 0.89547 0.0
C1060 C 0.51142 0.40049 0.89847 0.0
C1061 C 0.51348 0.42144 0.86508 0.0
C1062 C 0.45949 0.38365 0.85413 0.0
C1063 C 0.52814 0.3919 0.93724 0.0
H1064 H 0.47698 0.34803 0.0831 0.0
H1065 H 0.51004 0.30692 0.9207 0.0
H1066 H 0.48404 0.40233 0.03299 0.0
H1067 H 0.46109 0.39886 0.99799 0.0
H1068 H 0.46329 0.3876 0.07594 0.0
H1069 H 0.51569 0.3226 0.81823 0.0
H1070 H 0.50061 0.34971 0.80338 0.0
H1071 H 0.52544 0.351 0.82894 0.0
H1072 H 0.46907 0.42447 0.79791 0.0
H1073 H 0.52705 0.4309 0.86782 0.0
H1074 H 0.45059 0.38223 0.90239 0.0
H1075 H 0.46432 0.36529 0.83457 0.0
H1076 H 0.44904 0.39265 0.82324 0.0
H1077 H 0.5213 0.39061 0.98797 0.0
H1078 H 0.54081 0.40383 0.93495 0.0
H1079 H 0.53502 0.37386 0.91968 0.0
C1080 C 0.14277 0.49865 0.92666 0.0
C1081 C 0.16159 0.48706 0.89565 0.0
C1082 C 0.12409 0.49758 0.90132 0.0
C1083 C 0.12413 0.48487 0.84275 0.0
C1084 C 0.14309 0.47308 0.81111 0.0
C1085 C 0.16155 0.4741 0.83827 0.0
C1086 C 0.10428 0.51006 0.93749 0.0
C1087 C 0.14392 0.45968 0.74813 0.0
C1088 C 0.07149 0.46676 0.81032 0.0
C1089 C 0.06446 0.48564 0.7747 0.0
C1090 C 0.09108 0.46591 0.83122 0.0
C1091 C 0.10424 0.48413 0.81515 0.0
C1092 C 0.0976 0.50265 0.77667 0.0
C1093 C 0.07776 0.50331 0.75759 0.0
C1094 C 0.0973 0.44604 0.87292 0.0
C1095 C 0.1112 0.5222 0.75716 0.0
H1096 H 0.1426 0.5084 0.97151 0.0
H1097 H 0.17604 0.46518 0.81395 0.0
H1098 H 0.09775 0.5239 0.90785 0.0
H1099 H 0.09248 0.4972 0.94788 0.0
H1100 H 0.10675 0.51859 0.98328 0.0
H1101 H 0.15981 0.45148 0.72949 0.0
H1102 H 0.13319 0.4455 0.75346 0.0
H1103 H 0.13862 0.47189 0.71228 0.0
H1104 H 0.06132 0.45307 0.82413 0.0
H1105 H 0.0726 0.51783 0.7295 0.0
H1106 H 0.0985 0.45343 0.92118 0.0
H1107 H 0.11283 0.43721 0.85297 0.0
H1108 H 0.08596 0.43247 0.87792 0.0
H1109 H 0.11253 0.53348 0.79976 0.0
H1110 H 0.10491 0.53368 0.72128 0.0
H1111 H 0.12713 0.51457 0.73699 0.0
C1112 C 0.98578 0.82489 0.53977 0.0
C1113 C 1.0035 0.80868 0.53898 0.0
C1114 C 0.98403 0.84726 0.57191 0.0
C1115 C 1.00064 0.85405 0.60254 0.0
C1116 C 0.01819 0.83755 0.60402 0.0
C1117 C 0.01921 0.81501 0.5735 0.0
C1118 C 0.96471 0.86398 0.57093 0.0
C1119 C 0.03644 0.84412 0.63509 0.0
C1120 C 0.00722 0.92024 0.61252 0.0
C1121 C 1.00066 0.92604 0.67748 0.0
C1122 C 0.00752 0.89688 0.5879 0.0
C1123 C 1.00037 0.87894 0.62872 0.0
C1124 C 0.99334 0.88481 0.69424 0.0
C1125 C 0.99394 0.90819 0.71808 0.0
C1126 C 0.01579 0.89134 0.51826 0.0
C1127 C 0.98494 0.86648 0.73896 0.0
H1128 H 0.97354 0.82059 0.51318 0.0
H1129 H 0.03268 0.80255 0.57546 0.0
H1130 H 0.95885 0.87174 0.61954 0.0
H1131 H 0.96847 0.87887 0.53957 0.0
H1132 H 0.95212 0.85498 0.55304 0.0
H1133 H 0.04862 0.82901 0.63422 0.0
H1134 H 0.04351 0.85901 0.60982 0.0
H1135 H 0.03122 0.85032 0.6854 0.0
H1136 H 0.01263 0.93393 0.58108 0.0
H1137 H 0.98871 0.91265 0.76826 0.0
H1138 H 1.00345 0.88479 0.49341 0.0
H1139 H 0.02876 0.877 0.51378 0.0
H1140 H 0.02149 0.90707 0.49349 0.0
H1141 H 0.97196 0.85859 0.72014 0.0
H1142 H 0.97924 0.8741 0.78787 0.0
H1143 H 0.99719 0.85182 0.74202 0.0
C1144 C 0.65151 0.01207 0.47666 0.0
C1145 C 0.66923 0.99873 0.4919 0.0
C1146 C 0.63162 0.00995 0.5104 0.0
C1147 C 0.62924 0.99435 0.56169 0.0
C1148 C 0.64706 0.98074 0.57729 0.0
C1149 C 0.6668 0.98289 0.54177 0.0
C1150 C 0.61312 0.02449 0.4911 0.0
C1151 C 0.64532 0.96422 0.63221 0.0
C1152 C 0.57988 0.00915 0.68162 0.0
C1153 C 0.56665 0.99283 0.66316 0.0
C1154 C 0.6005 0.00913 0.65097 0.0
C1155 C 0.60811 0.99277 0.59929 0.0
C1156 C 0.59494 0.97599 0.58102 0.0
C1157 C 0.5745 0.97607 0.61352 0.0
C1158 C 0.61401 0.02705 0.67308 0.0
C1159 C 0.6022 0.95851 0.52554 0.0
H1160 H 0.6532 0.02407 0.43753 0.0
H1161 H 0.68041 0.97258 0.55391 0.0
H1162 H 0.60131 0.01267 0.48028 0.0
H1163 H 0.60571 0.03682 0.53116 0.0
H1164 H 0.61746 0.03508 0.44858 0.0
H1165 H 0.66055 0.95474 0.63803 0.0
H1166 H 0.63893 0.97445 0.67723 0.0
H1167 H 0.63435 0.95089 0.62479 0.0
H1168 H 0.5741 0.02211 0.71999 0.0
H1169 H 0.56443 0.96346 0.59855 0.0
H1170 H 0.61749 0.03987 0.63512 0.0
H1171 H 0.62906 0.01802 0.68208 0.0
H1172 H 0.60646 0.03713 0.71733 0.0
H1173 H 0.60535 0.96826 0.4809 0.0
H1174 H 0.59053 0.94586 0.51922 0.0
H1175 H 0.61696 0.94827 0.53247 0.0
C1176 C 0.50464 0.66027 0.50729 0.0
C1177 C 0.52121 0.66351 0.45918 0.0
C1178 C 0.50425 0.63941 0.54193 0.0
C1179 C 0.52104 0.62145 0.5291 0.0
C1180 C 0.53832 0.62512 0.48299 0.0
C1181 C 0.53816 0.64601 0.4484 0.0
C1182 C 0.48568 0.63649 0.59148 0.0
C1183 C 0.55666 0.60658 0.46856 0.0
C1184 C 0.52594 0.57323 0.65001 0.0
C1185 C 0.51723 0.55442 0.62217 0.0
C1186 C 0.52749 0.59504 0.62014 0.0
C1187 C 0.52 0.59828 0.56114 0.0
C1188 C 0.51126 0.57938 0.53268 0.0
C1189 C 0.51003 0.55771 0.56337 0.0
C1190 C 0.53682 0.6147 0.65242 0.0
C1191 C 0.50282 0.58221 0.47023 0.0
H1192 H 0.49168 0.67388 0.51702 0.0
H1193 H 0.55095 0.64813 0.41095 0.0
H1194 H 0.47969 0.61901 0.58461 0.0
H1195 H 0.49047 0.6371 0.63958 0.0
H1196 H 0.47285 0.65069 0.59018 0.0
H1197 H 0.56953 0.61284 0.4349 0.0
H1198 H 0.56266 0.60157 0.51333 0.0
H1199 H 0.5517 0.5903 0.4473 0.0
H1200 H 0.53138 0.57108 0.69573 0.0
H1201 H 0.50315 0.54343 0.54151 0.0
H1202 H 0.52436 0.6288 0.67125 0.0
H1203 H 0.54823 0.62291 0.61781 0.0
H1204 H 0.54468 0.60828 0.69279 0.0
H1205 H 0.49017 0.59693 0.4754 0.0
H1206 H 0.49662 0.5658 0.45412 0.0
H1207 H 0.51522 0.58698 0.43251 0.0
C1208 C 0.84007 0.51852 0.66816 0.0
C1209 C 0.83709 0.50669 0.61151 0.0
C1210 C 0.85952 0.51651 0.69005 0.0
C1211 C 0.87649 0.50221 0.65475 0.0
C1212 C 0.87335 0.48945 0.59902 0.0
C1213 C 0.85379 0.49189 0.57803 0.0
C1214 C 0.86176 0.52959 0.75123 0.0
C1215 C 0.89085 0.47362 0.5606 0.0
C1216 C 0.93212 0.51638 0.66247 0.0
C1217 C 0.9391 0.49913 0.70303 0.0
C1218 C 0.91171 0.51785 0.64777 0.0
C1219 C 0.89782 0.50153 0.6736 0.0
C1220 C 0.90467 0.48423 0.71518 0.0
C1221 C 0.92516 0.48329 0.7295 0.0
C1222 C 0.90501 0.53687 0.60424 0.0
C1223 C 0.89038 0.46679 0.74516 0.0
H1224 H 0.8272 0.5296 0.69518 0.0
H1225 H 0.85184 0.48285 0.53386 0.0
H1226 H 0.86213 0.51662 0.78949 0.0
H1227 H 0.87649 0.5382 0.74654 0.0
H1228 H 0.84858 0.54334 0.76626 0.0
H1229 H 0.88565 0.46388 0.52044 0.0
H1230 H 0.90343 0.48445 0.54085 0.0
H1231 H 0.89758 0.46051 0.59191 0.0
H1232 H 0.94264 0.52885 0.64204 0.0
H1233 H 0.93037 0.46983 0.76064 0.0
H1234 H 0.89105 0.5479 0.62867 0.0
H1235 H 0.90064 0.52854 0.56068 0.0
H1236 H 0.91741 0.54866 0.58957 0.0
H1237 H 0.88029 0.47558 0.78744 0.0
H1238 H 0.89922 0.45094 0.76123 0.0
H1239 H 0.88019 0.46075 0.71154 0.0
loop_
_geom_bond_atom_site_label_1
_geom_bond_atom_site_label_2
_geom_bond_distance
_geom_bond_site_symmetry_2
_ccdc_geom_bond_type
C0 C1 1.386 . S
C0 C2 1.397 . S
C0 H24 0.931 . S
C1 C0 1.386 . S
C1 C5 1.397 . S
C2 C0 1.397 . S
C2 C3 1.384 . S
C2 H25 0.930 . S
C3 C2 1.384 . S
C3 C4 1.377 . S
C3 C6 1.481 . S
C4 C3 1.377 . S
C4 C5 1.389 . S
C4 H26 0.929 . S
C5 C1 1.397 . S
C5 C4 1.389 . S
C5 H27 0.931 . S
C6 C3 1.481 . S
C6 C7 1.387 . S
C6 C11 1.390 . S
C7 C6 1.387 . S
C7 C8 1.401 . S
C7 H28 0.930 . S
C8 C7 1.401 . S
C8 C9 1.376 . S
C8 C17 1.511 . S
C9 C8 1.376 . S
C9 C10 1.392 . S
C9 H30 0.931 . S
C10 C9 1.392 . S
C10 C11 1.361 . S
C10 C12 1.500 . S
C11 C6 1.390 . S
C11 C10 1.361 . S
C11 H29 0.931 . S
C12 C10 1.500 . S
C12 C13 1.371 . S
C12 C14 1.365 . S
C13 C12 1.371 . S
C13 C23 1.386 . S
C13 H31 0.931 . S
C14 C12 1.365 . S
C14 C15 1.409 . S
C14 H32 0.929 . S
C15 C14 1.409 . S
C15 C16 1.380 . S
C15 H33 0.930 . S
C16 C15 1.380 . S
C16 C23 1.357 . S
C17 C8 1.511 . S
C17 C18 1.341 . S
C17 C19 1.371 . S
C18 C17 1.341 . S
C18 C22 1.394 . S
C18 H34 0.930 . S
C19 C17 1.371 . S
C19 C20 1.392 . S
C19 H35 0.931 . S
C20 C19 1.392 . S
C20 C21 1.331 . S
C20 H38 0.932 . S
C21 C20 1.331 . S
C21 C22 1.336 . S
C22 C18 1.394 . S
C22 C21 1.336 . S
C22 H37 0.929 . S
C23 C13 1.386 . S
C23 C16 1.357 . S
C23 H36 0.928 . S
H24 C0 0.931 . S
H25 C2 0.930 . S
H26 C4 0.929 . S
H27 C5 0.931 . S
H28 C7 0.930 . S
H29 C11 0.931 . S
H30 C9 0.931 . S
H31 C13 0.931 . S
H32 C14 0.929 . S
H33 C15 0.930 . S
H34 C18 0.930 . S
H35 C19 0.931 . S
H36 C23 0.928 . S
H37 C22 0.929 . S
H38 C20 0.932 . S
C39 C40 1.386 . S
C39 C41 1.397 . S
C39 H63 0.931 . S
C40 C39 1.386 . S
C40 C44 1.397 1_655 S
C41 C39 1.397 . S
C41 C42 1.384 . S
C41 H64 0.930 . S
C42 C41 1.384 . S
C42 C43 1.377 1_655 S
C42 C45 1.481 . S
C43 C42 1.377 1_455 S
C43 C44 1.389 . S
C43 H65 0.929 . S
C44 C40 1.397 1_455 S
C44 C43 1.389 . S
C44 H66 0.931 . S
C45 C42 1.481 . S
C45 C46 1.387 . S
C45 C50 1.390 . S
C46 C45 1.387 . S
C46 C47 1.401 . S
C46 H67 0.930 . S
C47 C46 1.401 . S
C47 C48 1.376 . S
C47 C56 1.511 . S
C48 C47 1.376 . S
C48 C49 1.392 . S
C48 H69 0.931 . S
C49 C48 1.392 . S
C49 C50 1.361 . S
C49 C51 1.500 . S
C50 C45 1.390 . S
C50 C49 1.361 . S
C50 H68 0.931 . S
C51 C49 1.500 . S
C51 C52 1.371 . S
C51 C53 1.365 1_655 S
C52 C51 1.371 . S
C52 C62 1.386 . S
C52 H70 0.931 . S
C53 C51 1.365 1_455 S
C53 C54 1.409 . S
C53 H71 0.929 . S
C54 C53 1.409 . S
C54 C55 1.380 1_455 S
C54 H72 0.930 . S
C55 C54 1.380 1_655 S
C55 C62 1.357 . S
C56 C47 1.511 . S
C56 C57 1.341 . S
C56 C58 1.371 . S
C57 C56 1.341 . S
C57 C61 1.394 . S
C57 H73 0.930 . S
C58 C56 1.371 . S
C58 C59 1.389 . S
C58 H74 0.931 1_655 S
C59 C58 1.389 . S
C59 C60 1.346 . S
C59 H77 0.921 1_655 S
C60 C59 1.346 . S
C60 C61 1.336 . S
C61 C57 1.394 . S
C61 C60 1.336 . S
C61 H76 0.929 . S
C62 C52 1.386 . S
C62 C55 1.357 . S
C62 H75 0.928 . S
H63 C39 0.931 . S
H64 C41 0.930 . S
H65 C43 0.929 . S
H66 C44 0.931 . S
H67 C46 0.930 . S
H68 C50 0.931 . S
H69 C48 0.931 . S
H70 C52 0.931 . S
H71 C53 0.929 . S
H72 C54 0.930 . S
H73 C57 0.930 . S
H74 C58 0.931 1_455 S
H75 C62 0.928 . S
H76 C61 0.929 . S
H77 C59 0.921 1_455 S
C78 C79 1.393 . S
C78 C80 1.397 . S
C78 H102 0.931 . S
C79 C78 1.393 . S
C79 C83 1.389 1_565 S
C80 C78 1.397 . S
C80 C81 1.388 . S
C80 H103 0.930 . S
C81 C80 1.388 . S
C81 C82 1.373 1_565 S
C81 C84 1.482 . S
C82 C81 1.373 1_545 S
C82 C83 1.389 . S
C82 H104 0.929 . S
C83 C79 1.389 1_545 S
C83 C82 1.389 . S
C83 H105 0.931 . S
C84 C81 1.482 . S
C84 C85 1.385 . S
C84 C89 1.391 . S
C85 C84 1.385 . S
C85 C86 1.404 . S
C85 H106 0.930 . S
C86 C85 1.404 . S
C86 C87 1.375 . S
C86 C95 1.509 . S
C87 C86 1.375 . S
C87 C88 1.396 . S
C87 H108 0.932 . S
C88 C87 1.396 . S
C88 C89 1.361 . S
C88 C90 1.501 1_565 S
C89 C84 1.391 . S
C89 C88 1.361 . S
C89 H107 0.932 . S
C90 C88 1.501 1_545 S
C90 C91 1.363 1_545 S
C90 C92 1.373 . S
C91 C90 1.363 1_565 S
C91 C101 1.386 . S
C91 H109 0.931 . S
C92 C90 1.373 . S
C92 C93 1.409 . S
C92 H110 0.929 . S
C93 C92 1.409 . S
C93 C94 1.379 . S
C93 H111 0.930 . S
C94 C93 1.379 . S
C94 C101 1.358 1_545 S
C95 C86 1.509 . S
C95 C96 1.341 . S
C95 C97 1.371 1_565 S
C96 C95 1.341 . S
C96 C100 1.394 . S
C96 H112 0.930 . S
C97 C95 1.371 1_545 S
C97 C98 1.392 . S
C97 H113 0.931 . S
C98 C97 1.392 . S
C98 C99 1.324 1_545 S
C98 H116 0.932 . S
C99 C98 1.324 1_565 S
C99 C100 1.347 . S
C100 C96 1.394 . S
C100 C99 1.347 . S
C100 H115 0.929 . S
C101 C91 1.386 . S
C101 C94 1.358 1_565 S
C101 H114 0.928 . S
H102 C78 0.931 . S
H103 C80 0.930 . S
H104 C82 0.929 . S
H105 C83 0.931 . S
H106 C85 0.930 . S
H107 C89 0.932 . S
H108 C87 0.932 . S
H109 C91 0.931 . S
H110 C92 0.929 . S
H111 C93 0.930 . S
H112 C96 0.930 . S
H113 C97 0.931 . S
H114 C101 0.928 . S
H115 C100 0.929 . S
H116 C98 0.932 . S
C117 C118 1.386 . S
C117 C119 1.397 . S
C117 H141 0.931 . S
C118 C117 1.386 . S
C118 C122 1.397 . S
C119 C117 1.397 . S
C119 C120 1.384 . S
C119 H142 0.930 . S
C120 C119 1.384 . S
C120 C121 1.377 . S
C120 C123 1.481 . S
C121 C120 1.377 . S
C121 C122 1.389 . S
C121 H143 0.929 . S
C122 C118 1.397 . S
C122 C121 1.389 . S
C122 H144 0.931 . S
C123 C120 1.481 . S
C123 C124 1.387 . S
C123 C128 1.390 . S
C124 C123 1.387 . S
C124 C125 1.401 . S
C124 H145 0.930 . S
C125 C124 1.401 . S
C125 C126 1.376 . S
C125 C134 1.511 . S
C126 C125 1.376 . S
C126 C127 1.392 . S
C126 H147 0.931 . S
C127 C126 1.392 . S
C127 C128 1.361 . S
C127 C129 1.500 . S
C128 C123 1.390 . S
C128 C127 1.361 . S
C128 H146 0.931 . S
C129 C127 1.500 . S
C129 C130 1.371 1_554 S
C129 C131 1.365 . S
C130 C129 1.371 1_556 S
C130 C140 1.386 . S
C130 H148 0.931 . S
C131 C129 1.365 . S
C131 C132 1.409 1_554 S
C131 H149 0.929 . S
C132 C131 1.409 1_556 S
C132 C133 1.380 . S
C132 H150 0.930 . S
C133 C132 1.380 . S
C133 C140 1.357 . S
C134 C125 1.511 . S
C134 C135 1.341 . S
C134 C136 1.371 . S
C135 C134 1.341 . S
C135 C139 1.394 . S
C135 H151 0.930 . S
C136 C134 1.371 . S
C136 C137 1.392 . S
C136 H152 0.931 1_554 S
C137 C136 1.392 . S
C137 C138 1.331 . S
C137 H155 0.932 1_554 S
C138 C137 1.331 . S
C138 C139 1.336 . S
C139 C135 1.394 . S
C139 C138 1.336 . S
C139 H154 0.929 . S
C140 C130 1.386 . S
C140 C133 1.357 . S
C140 H153 0.928 . S
H141 C117 0.931 . S
H142 C119 0.930 . S
H143 C121 0.929 . S
H144 C122 0.931 . S
H145 C124 0.930 . S
H146 C128 0.931 . S
H147 C126 0.931 . S
H148 C130 0.931 . S
H149 C131 0.929 . S
H150 C132 0.930 . S
H151 C135 0.930 . S
H152 C136 0.931 1_556 S
H153 C140 0.928 . S
H154 C139 0.929 . S
H155 C137 0.932 1_556 S
C156 C157 1.386 . S
C156 C158 1.397 . S
C156 H180 0.931 . S
C157 C156 1.386 . S
C157 C161 1.397 . S
C158 C156 1.397 . S
C158 C159 1.384 . S
C158 H181 0.930 . S
C159 C158 1.384 . S
C159 C160 1.377 . S
C159 C162 1.481 . S
C160 C159 1.377 . S
C160 C161 1.389 . S
C160 H182 0.929 . S
C161 C157 1.397 . S
C161 C160 1.389 . S
C161 H183 0.931 . S
C162 C159 1.481 . S
C162 C163 1.387 . S
C162 C167 1.390 1_554 S
C163 C162 1.387 . S
C163 C164 1.401 . S
C163 H184 0.930 . S
C164 C163 1.401 . S
C164 C165 1.376 1_554 S
C164 C173 1.511 . S
C165 C164 1.376 1_556 S
C165 C166 1.392 . S
C165 H186 0.931 . S
C166 C165 1.392 . S
C166 C167 1.361 . S
C166 C168 1.500 . S
C167 C162 1.390 1_556 S
C167 C166 1.361 . S
C167 H185 0.931 . S
C168 C166 1.500 . S
C168 C169 1.371 . S
C168 C170 1.365 . S
C169 C168 1.371 . S
C169 C179 1.386 . S
C169 H187 0.931 . S
C170 C168 1.365 . S
C170 C171 1.409 . S
C170 H188 0.929 . S
C171 C170 1.409 . S
C171 C172 1.380 . S
C171 H189 0.930 . S
C172 C171 1.380 . S
C172 C179 1.357 . S
C173 C164 1.511 . S
C173 C174 1.341 . S
C173 C175 1.371 1_554 S
C174 C173 1.341 . S
C174 C178 1.394 . S
C174 H190 0.930 . S
C175 C173 1.371 1_556 S
C175 C176 1.392 . S
C175 H191 0.931 . S
C176 C175 1.392 . S
C176 C177 1.331 1_556 S
C176 H194 0.932 . S
C177 C176 1.331 1_554 S
C177 C178 1.336 . S
C178 C174 1.394 . S
C178 C177 1.336 . S
C178 H193 0.929 . S
C179 C169 1.386 . S
C179 C172 1.357 . S
C179 H192 0.928 . S
H180 C156 0.931 . S
H181 C158 0.930 . S
H182 C160 0.929 . S
H183 C161 0.931 . S
H184 C163 0.930 . S
H185 C167 0.931 . S
H186 C165 0.931 . S
H187 C169 0.931 . S
H188 C170 0.929 . S
H189 C171 0.930 . S
H190 C174 0.930 . S
H191 C175 0.931 . S
H192 C179 0.928 . S
H193 C178 0.929 . S
H194 C176 0.932 . S
C195 C196 1.384 . S
C195 C197 1.397 1_455 S
C195 H219 0.932 1_455 S
C196 C195 1.384 . S
C196 C200 1.397 . S
C197 C195 1.397 1_655 S
C197 C198 1.387 1_655 S
C197 H220 0.927 . S
C198 C197 1.387 1_455 S
C198 C199 1.377 . S
C198 C201 1.481 . S
C199 C198 1.377 . S
C199 C200 1.389 . S
C199 H221 0.929 . S
C200 C196 1.397 . S
C200 C199 1.389 . S
C200 H222 0.931 . S
C201 C198 1.481 . S
C201 C202 1.387 . S
C201 C206 1.390 . S
C202 C201 1.387 . S
C202 C203 1.401 . S
C202 H223 0.930 . S
C203 C202 1.401 . S
C203 C204 1.376 . S
C203 C212 1.511 . S
C204 C203 1.376 . S
C204 C205 1.392 . S
C204 H225 0.931 . S
C205 C204 1.392 . S
C205 C206 1.361 . S
C205 C207 1.500 1_554 S
C206 C201 1.390 . S
C206 C205 1.361 . S
C206 H224 0.931 . S
C207 C205 1.500 1_556 S
C207 C208 1.371 . S
C207 C209 1.365 . S
C208 C207 1.371 . S
C208 C218 1.386 . S
C208 H226 0.931 1_455 S
C209 C207 1.365 . S
C209 C210 1.409 . S
C209 H227 0.929 . S
C210 C209 1.409 . S
C210 C211 1.380 . S
C210 H228 0.930 . S
C211 C210 1.380 . S
C211 C218 1.357 . S
C212 C203 1.511 . S
C212 C213 1.341 . S
C212 C214 1.371 . S
C213 C212 1.341 . S
C213 C217 1.394 . S
C213 H229 0.930 . S
C214 C212 1.371 . S
C214 C215 1.392 . S
C214 H230 0.931 . S
C215 C214 1.392 . S
C215 C216 1.331 . S
C215 H233 0.932 . S
C216 C215 1.331 . S
C216 C217 1.336 . S
C217 C213 1.394 . S
C217 C216 1.336 . S
C217 H232 0.929 . S
C218 C208 1.386 . S
C218 C211 1.357 . S
C218 H231 0.928 1_455 S
H219 C195 0.932 1_655 S
H220 C197 0.927 . S
H221 C199 0.929 . S
H222 C200 0.931 . S
H223 C202 0.930 . S
H224 C206 0.931 . S
H225 C204 0.931 . S
H226 C208 0.931 1_655 S
H227 C209 0.929 . S
H228 C210 0.930 . S
H229 C213 0.930 . S
H230 C214 0.931 . S
H231 C218 0.928 1_655 S
H232 C217 0.929 . S
H233 C215 0.932 . S
C234 C235 1.388 . S
C234 C236 1.397 . S
C234 H258 0.931 . S
C235 C234 1.388 . S
C235 C239 1.395 1_565 S
C236 C234 1.397 . S
C236 C237 1.382 . S
C236 H259 0.930 . S
C237 C236 1.382 . S
C237 C238 1.380 1_565 S
C237 C240 1.479 . S
C238 C237 1.380 1_545 S
C238 C239 1.389 . S
C238 H260 0.929 . S
C239 C235 1.395 1_545 S
C239 C238 1.389 . S
C239 H261 0.931 . S
C240 C237 1.479 . S
C240 C241 1.390 . S
C240 C245 1.389 . S
C241 C240 1.390 . S
C241 C242 1.401 . S
C241 H262 0.930 . S
C242 C241 1.401 . S
C242 C243 1.377 . S
C242 C251 1.514 . S
C243 C242 1.377 . S
C243 C244 1.388 1_565 S
C243 H264 0.935 . S
C244 C243 1.388 1_545 S
C244 C245 1.361 1_545 S
C244 C246 1.497 . S
C245 C240 1.389 . S
C245 C244 1.361 1_565 S
C245 H263 0.930 . S
C246 C244 1.497 . S
C246 C247 1.356 1_545 S
C246 C248 1.383 . S
C247 C246 1.356 1_565 S
C247 C257 1.386 1_554 S
C247 H265 0.931 . S
C248 C246 1.383 . S
C248 C249 1.409 1_554 S
C248 H266 0.929 . S
C249 C248 1.409 1_556 S
C249 C250 1.385 . S
C249 H267 0.930 . S
C250 C249 1.385 . S
C250 C257 1.352 1_545 S
C251 C242 1.514 . S
C251 C252 1.341 . S
C251 C253 1.371 1_565 S
C252 C251 1.341 . S
C252 C256 1.394 . S
C252 H268 0.930 . S
C253 C251 1.371 1_545 S
C253 C254 1.392 . S
C253 H269 0.931 . S
C254 C253 1.392 . S
C254 C255 1.324 1_545 S
C254 H272 0.932 . S
C255 C254 1.324 1_565 S
C255 C256 1.341 . S
C256 C252 1.394 . S
C256 C255 1.341 . S
C256 H271 0.929 . S
C257 C247 1.386 1_556 S
C257 C250 1.352 1_565 S
C257 H270 0.928 . S
H258 C234 0.931 . S
H259 C236 0.930 . S
H260 C238 0.929 . S
H261 C239 0.931 . S
H262 C241 0.930 . S
H263 C245 0.930 . S
H264 C243 0.935 . S
H265 C247 0.931 . S
H266 C248 0.929 . S
H267 C249 0.930 . S
H268 C252 0.930 . S
H269 C253 0.931 . S
H270 C257 0.928 . S
H271 C256 0.929 . S
H272 C254 0.932 . S
C273 C274 1.386 . S
C273 C275 1.397 . S
C273 H297 0.931 . S
C274 C273 1.386 . S
C274 C278 1.397 . S
C275 C273 1.397 . S
C275 C276 1.384 . S
C275 H298 0.930 . S
C276 C275 1.384 . S
C276 C277 1.377 . S
C276 C279 1.481 . S
C277 C276 1.377 . S
C277 C278 1.389 . S
C277 H299 0.929 . S
C278 C274 1.397 . S
C278 C277 1.389 . S
C278 H300 0.931 . S
C279 C276 1.481 . S
C279 C280 1.387 . S
C279 C284 1.390 . S
C280 C279 1.387 . S
C280 C281 1.401 . S
C280 H301 0.930 . S
C281 C280 1.401 . S
C281 C282 1.376 . S
C281 C290 1.511 . S
C282 C281 1.376 . S
C282 C283 1.392 . S
C282 H303 0.931 . S
C283 C282 1.392 . S
C283 C284 1.361 . S
C283 C285 1.500 . S
C284 C279 1.390 . S
C284 C283 1.361 . S
C284 H302 0.931 . S
C285 C283 1.500 . S
C285 C286 1.371 . S
C285 C287 1.365 . S
C286 C285 1.371 . S
C286 C296 1.386 . S
C286 H304 0.931 . S
C287 C285 1.365 . S
C287 C288 1.409 . S
C287 H305 0.929 . S
C288 C287 1.409 . S
C288 C289 1.380 . S
C288 H306 0.930 . S
C289 C288 1.380 . S
C289 C296 1.357 . S
C290 C281 1.511 . S
C290 C291 1.341 . S
C290 C292 1.371 . S
C291 C290 1.341 . S
C291 C295 1.394 . S
C291 H307 0.930 . S
C292 C290 1.371 . S
C292 C293 1.392 . S
C292 H308 0.931 . S
C293 C292 1.392 . S
C293 C294 1.331 . S
C293 H311 0.932 . S
C294 C293 1.331 . S
C294 C295 1.336 . S
C295 C291 1.394 . S
C295 C294 1.336 . S
C295 H310 0.929 . S
C296 C286 1.386 . S
C296 C289 1.357 . S
C296 H309 0.928 . S
H297 C273 0.931 . S
H298 C275 0.930 . S
H299 C277 0.929 . S
H300 C278 0.931 . S
H301 C280 0.930 . S
H302 C284 0.931 . S
H303 C282 0.931 . S
H304 C286 0.931 . S
H305 C287 0.929 . S
H306 C288 0.930 . S
H307 C291 0.930 . S
H308 C292 0.931 . S
H309 C296 0.928 . S
H310 C295 0.929 . S
H311 C293 0.932 . S
Dy312 O315 2.307 1_545 S
Dy312 O317 2.395 1_655 S
Dy312 O318 2.379 . S
Dy312 O320 2.339 . S
Dy312 O322 2.298 . S
Dy312 O326 2.275 1_655 S
Dy312 C334 2.738 . S
Dy313 O316 2.298 . S
Dy313 O319 2.275 1_455 S
Dy313 O321 2.307 1_565 S
Dy313 O323 2.412 . S
Dy313 O324 2.379 . S
Dy313 O327 2.339 . S
Dy313 C343 2.738 . S
C314 O326 1.254 1_565 S
C314 O327 1.257 . S
O315 Dy312 2.307 1_565 S
O315 C325 1.266 . S
O316 Dy313 2.298 . S
O316 C325 1.236 1_455 S
O317 Dy312 2.395 1_455 S
O317 C334 1.255 1_455 S
O318 Dy312 2.379 . S
O318 C334 1.249 . S
O319 Dy313 2.275 1_655 S
O319 C335 1.254 1_565 S
O320 Dy312 2.339 . S
O320 C335 1.257 . S
O321 Dy313 2.307 1_545 S
O321 C336 1.266 . S
O322 Dy312 2.298 . S
O322 C336 1.236 1_655 S
O323 Dy313 2.412 . S
O323 C343 1.291 . S
O324 Dy313 2.379 . S
O324 C343 1.249 . S
C325 O315 1.266 . S
C325 O316 1.236 1_655 S
O326 Dy312 2.275 1_455 S
O326 C314 1.254 1_545 S
O327 Dy313 2.339 . S
O327 C314 1.257 . S
C328 C331 1.344 1_655 S
C328 C332 1.328 . S
C328 C334 1.516 . S
C329 C330 1.304 1_655 S
C329 C333 1.323 . S
C330 C329 1.304 1_455 S
C330 C331 1.371 . S
C330 H344 0.930 . S
C331 C328 1.344 1_455 S
C331 C330 1.371 . S
C331 H345 0.931 . S
C332 C328 1.328 . S
C332 C333 1.433 . S
C332 H346 0.931 . S
C333 C329 1.323 . S
C333 C332 1.433 . S
C333 H347 0.933 . S
C334 Dy312 2.738 . S
C334 O317 1.255 1_655 S
C334 O318 1.249 . S
C334 C328 1.516 . S
C335 O319 1.254 1_545 S
C335 O320 1.257 . S
C336 O321 1.266 . S
C336 O322 1.236 1_455 S
C337 C340 1.344 . S
C337 C341 1.328 . S
C337 C343 1.516 . S
C338 C339 1.304 . S
C338 C342 1.323 . S
C339 C338 1.304 . S
C339 C340 1.371 . S
C339 H348 0.930 1_455 S
C340 C337 1.344 . S
C340 C339 1.371 . S
C340 H349 0.931 1_455 S
C341 C337 1.328 . S
C341 C342 1.433 . S
C341 H350 0.931 . S
C342 C338 1.323 . S
C342 C341 1.433 . S
C342 H351 0.933 . S
C343 Dy313 2.738 . S
C343 O323 1.291 . S
C343 O324 1.249 . S
C343 C337 1.516 . S
H344 C330 0.930 . S
H345 C331 0.931 . S
H346 C332 0.931 . S
H347 C333 0.933 . S
H348 C339 0.930 1_655 S
H349 C340 0.931 1_655 S
H350 C341 0.931 . S
H351 C342 0.933 . S
Dy352 O355 2.307 . S
Dy352 O357 2.395 1_565 S
Dy352 O358 2.379 . S
Dy352 O360 2.339 . S
Dy352 O362 2.298 . S
Dy352 O366 2.275 1_565 S
Dy352 C374 2.738 . S
Dy353 O356 2.298 . S
Dy353 O359 2.275 1_545 S
Dy353 O361 2.307 . S
Dy353 O363 2.395 1_545 S
Dy353 O364 2.379 . S
Dy353 O367 2.339 . S
Dy353 C383 2.738 . S
C354 O366 1.254 . S
C354 O367 1.257 . S
O355 Dy352 2.307 . S
O355 C365 1.266 . S
O356 Dy353 2.298 . S
O356 C365 1.236 1_545 S
O357 Dy352 2.395 1_545 S
O357 C374 1.255 1_545 S
O358 Dy352 2.379 . S
O358 C374 1.249 . S
O359 Dy353 2.275 1_565 S
O359 C375 1.254 . S
O360 Dy352 2.339 . S
O360 C375 1.257 . S
O361 Dy353 2.307 . S
O361 C376 1.266 . S
O362 Dy352 2.298 . S
O362 C376 1.236 1_565 S
O363 Dy353 2.395 1_565 S
O363 C383 1.255 1_565 S
O364 Dy353 2.379 . S
O364 C383 1.249 . S
C365 O355 1.266 . S
C365 O356 1.236 1_565 S
O366 Dy352 2.275 1_545 S
O366 C354 1.254 . S
O367 Dy353 2.339 . S
O367 C354 1.257 . S
C368 C371 1.325 1_565 S
C368 C372 1.328 . S
C368 C374 1.516 . S
C369 C370 1.304 . S
C369 C373 1.323 . S
C370 C369 1.304 . S
C370 C371 1.368 1_565 S
C370 H384 0.930 1_565 S
C371 C368 1.325 1_545 S
C371 C370 1.368 1_545 S
C371 H385 0.953 . S
C372 C368 1.328 . S
C372 C373 1.433 . S
C372 H386 0.931 . S
C373 C369 1.323 . S
C373 C372 1.433 . S
C373 H387 0.933 . S
C374 Dy352 2.738 . S
C374 O357 1.255 1_565 S
C374 O358 1.249 . S
C374 C368 1.516 . S
C375 O359 1.254 . S
C375 O360 1.257 . S
C376 O361 1.266 . S
C376 O362 1.236 1_545 S
C377 C380 1.334 1_545 S
C377 C381 1.328 . S
C377 C383 1.516 . S
C378 C379 1.304 . S
C378 C382 1.323 . S
C379 C378 1.304 . S
C379 C380 1.369 1_545 S
C379 H388 0.930 1_545 S
C380 C377 1.334 1_565 S
C380 C379 1.369 1_565 S
C380 H389 0.943 . S
C381 C377 1.328 . S
C381 C382 1.433 . S
C381 H390 0.931 . S
C382 C378 1.323 . S
C382 C381 1.433 . S
C382 H391 0.933 . S
C383 Dy353 2.738 . S
C383 O363 1.255 1_545 S
C383 O364 1.249 . S
C383 C377 1.516 . S
H384 C370 0.930 1_545 S
H385 C371 0.953 . S
H386 C372 0.931 . S
H387 C373 0.933 . S
H388 C379 0.930 1_565 S
H389 C380 0.943 . S
H390 C381 0.931 . S
H391 C382 0.933 . S
Dy392 O395 2.307 . S
Dy392 O397 2.395 . S
Dy392 O398 2.379 . S
Dy392 O400 2.339 . S
Dy392 O402 2.298 . S
Dy392 O406 2.275 . S
Dy392 C414 2.738 . S
Dy393 O396 2.298 . S
Dy393 O399 2.275 . S
Dy393 O401 2.307 . S
Dy393 O403 2.395 . S
Dy393 O404 2.379 . S
Dy393 O407 2.339 . S
Dy393 C423 2.738 . S
C394 O406 1.254 . S
C394 O407 1.257 . S
O395 Dy392 2.307 . S
O395 C405 1.266 . S
O396 Dy393 2.298 . S
O396 C405 1.236 . S
O397 Dy392 2.395 . S
O397 C414 1.255 . S
O398 Dy392 2.379 . S
O398 C414 1.249 . S
O399 Dy393 2.275 . S
O399 C415 1.254 . S
O400 Dy392 2.339 . S
O400 C415 1.257 . S
O401 Dy393 2.307 . S
O401 C416 1.266 . S
O402 Dy392 2.298 . S
O402 C416 1.236 . S
O403 Dy393 2.395 . S
O403 C423 1.255 . S
O404 Dy393 2.379 . S
O404 C423 1.249 . S
C405 O395 1.266 . S
C405 O396 1.236 . S
O406 Dy392 2.275 . S
O406 C394 1.254 . S
O407 Dy393 2.339 . S
O407 C394 1.257 . S
C408 C411 1.344 . S
C408 C412 1.328 . S
C408 C414 1.516 . S
C409 C410 1.304 . S
C409 C413 1.323 . S
C410 C409 1.304 . S
C410 C411 1.371 . S
C410 H424 0.930 . S
C411 C408 1.344 . S
C411 C410 1.371 . S
C411 H425 0.931 . S
C412 C408 1.328 . S
C412 C413 1.433 . S
C412 H426 0.931 . S
C413 C409 1.323 . S
C413 C412 1.433 . S
C413 H427 0.933 . S
C414 Dy392 2.738 . S
C414 O397 1.255 . S
C414 O398 1.249 . S
C414 C408 1.516 . S
C415 O399 1.254 . S
C415 O400 1.257 . S
C416 O401 1.266 . S
C416 O402 1.236 . S
C417 C420 1.344 . S
C417 C421 1.328 . S
C417 C423 1.516 . S
C418 C419 1.304 . S
C418 C422 1.323 . S
C419 C418 1.304 . S
C419 C420 1.371 . S
C419 H428 0.930 . S
C420 C417 1.344 . S
C420 C419 1.371 . S
C420 H429 0.931 . S
C421 C417 1.328 . S
C421 C422 1.433 . S
C421 H430 0.931 . S
C422 C418 1.323 . S
C422 C421 1.433 . S
C422 H431 0.933 . S
C423 Dy393 2.738 . S
C423 O403 1.255 . S
C423 O404 1.249 . S
C423 C417 1.516 . S
H424 C410 0.930 . S
H425 C411 0.931 . S
H426 C412 0.931 . S
H427 C413 0.933 . S
H428 C419 0.930 . S
H429 C420 0.931 . S
H430 C421 0.931 . S
H431 C422 0.933 . S
Dy432 O435 2.307 1_455 S
Dy432 O437 2.395 . S
Dy432 O438 2.379 . S
Dy432 O440 2.339 . S
Dy432 O442 2.298 . S
Dy432 O446 2.275 . S
Dy432 C454 2.738 . S
Dy433 O436 2.298 . S
Dy433 O439 2.285 . S
Dy433 O441 2.307 1_655 S
Dy433 O443 2.395 . S
Dy433 O444 2.379 . S
Dy433 O447 2.339 . S
Dy433 C463 2.738 . S
C434 O446 1.254 . S
C434 O447 1.257 1_455 S
O435 Dy432 2.307 1_655 S
O435 C445 1.266 . S
O436 Dy433 2.298 . S
O436 C445 1.236 . S
O437 Dy432 2.395 . S
O437 C454 1.255 . S
O438 Dy432 2.379 . S
O438 C454 1.249 . S
O439 Dy433 2.285 . S
O439 C455 1.246 1_655 S
O440 Dy432 2.339 . S
O440 C455 1.257 . S
O441 Dy433 2.307 1_455 S
O441 C456 1.266 . S
O442 Dy432 2.298 . S
O442 C456 1.236 . S
O443 Dy433 2.395 . S
O443 C463 1.255 . S
O444 Dy433 2.379 . S
O444 C463 1.249 . S
C445 O435 1.266 . S
C445 O436 1.236 . S
O446 Dy432 2.275 . S
O446 C434 1.254 . S
O447 Dy433 2.339 . S
O447 C434 1.257 1_655 S
C448 C451 1.344 . S
C448 C452 1.328 . S
C448 C454 1.516 . S
C449 C450 1.304 . S
C449 C453 1.323 . S
C450 C449 1.304 . S
C450 C451 1.371 . S
C450 H464 0.930 . S
C451 C448 1.344 . S
C451 C450 1.371 . S
C451 H465 0.931 . S
C452 C448 1.328 . S
C452 C453 1.433 . S
C452 H466 0.931 . S
C453 C449 1.323 . S
C453 C452 1.433 . S
C453 H467 0.933 . S
C454 Dy432 2.738 . S
C454 O437 1.255 . S
C454 O438 1.249 . S
C454 C448 1.516 . S
C455 O439 1.246 1_455 S
C455 O440 1.257 . S
C456 O441 1.266 . S
C456 O442 1.236 . S
C457 C460 1.344 . S
C457 C461 1.328 . S
C457 C463 1.516 . S
C458 C459 1.307 . S
C458 C462 1.329 . S
C459 C458 1.307 . S
C459 C460 1.371 . S
C459 H468 0.930 1_556 S
C460 C457 1.344 . S
C460 C459 1.371 . S
C460 H469 0.931 . S
C461 C457 1.328 . S
C461 C462 1.433 . S
C461 H470 0.931 . S
C462 C458 1.329 . S
C462 C461 1.433 . S
C462 H471 0.933 . S
C463 Dy433 2.738 . S
C463 O443 1.255 . S
C463 O444 1.249 . S
C463 C457 1.516 . S
H464 C450 0.930 . S
H465 C451 0.931 . S
H466 C452 0.931 . S
H467 C453 0.933 . S
H468 C459 0.930 1_554 S
H469 C460 0.931 . S
H470 C461 0.931 . S
H471 C462 0.933 . S
C472 C473 1.391 . S
C472 C474 1.394 . S
C472 H488 0.931 . S
C473 C472 1.391 . S
C473 C477 1.376 1_565 S
C474 C472 1.394 . S
C474 C475 1.369 . S
C474 C478 1.531 . S
C475 C474 1.369 . S
C475 C476 1.410 1_565 S
C475 C483 1.503 . S
C476 C475 1.410 1_545 S
C476 C477 1.392 . S
C476 C479 1.511 . S
C477 C473 1.376 1_545 S
C477 C476 1.392 . S
C477 H489 0.929 . S
C478 C474 1.531 . S
C478 H490 0.960 . S
C478 H491 0.962 . S
C478 H492 0.960 . S
C479 C476 1.511 . S
C479 H493 0.961 . S
C479 H494 0.961 . S
C479 H495 0.947 1_545 S
C480 C481 1.364 1_545 S
C480 C482 1.363 . S
C480 H496 0.931 . S
C481 C480 1.364 1_565 S
C481 C485 1.414 . S
C482 C480 1.363 . S
C482 C483 1.370 1_545 S
C482 C486 1.524 . S
C483 C475 1.503 . S
C483 C482 1.370 1_565 S
C483 C484 1.403 . S
C484 C483 1.403 . S
C484 C485 1.404 . S
C484 C487 1.539 . S
C485 C481 1.414 . S
C485 C484 1.404 . S
C485 H497 0.930 . S
C486 C482 1.524 . S
C486 H498 0.956 . S
C486 H499 0.961 . S
C486 H500 0.961 . S
C487 C484 1.539 . S
C487 H501 0.958 . S
C487 H502 0.961 . S
C487 H503 0.960 . S
H488 C472 0.931 . S
H489 C477 0.929 . S
H490 C478 0.960 . S
H491 C478 0.962 . S
H492 C478 0.960 . S
H493 C479 0.961 . S
H494 C479 0.961 . S
H495 C479 0.947 1_565 S
H496 C480 0.931 . S
H497 C485 0.930 . S
H498 C486 0.956 . S
H499 C486 0.961 . S
H500 C486 0.961 . S
H501 C487 0.958 . S
H502 C487 0.961 . S
H503 C487 0.960 . S
C504 C505 1.391 . S
C504 C506 1.394 . S
C504 H520 0.931 . S
C505 C504 1.391 . S
C505 C509 1.376 . S
C506 C504 1.394 . S
C506 C507 1.369 . S
C506 C510 1.531 . S
C507 C506 1.369 . S
C507 C508 1.410 . S
C507 C515 1.503 . S
C508 C507 1.410 . S
C508 C509 1.392 . S
C508 C511 1.511 . S
C509 C505 1.376 . S
C509 C508 1.392 . S
C509 H521 0.929 . S
C510 C506 1.531 . S
C510 H522 0.960 . S
C510 H523 0.962 . S
C510 H524 0.960 . S
C511 C508 1.511 . S
C511 H525 0.961 . S
C511 H526 0.961 . S
C511 H527 0.961 . S
C512 C513 1.370 . S
C512 C514 1.363 . S
C512 H528 0.931 . S
C513 C512 1.370 . S
C513 C517 1.408 . S
C514 C512 1.363 . S
C514 C515 1.370 . S
C514 C518 1.524 . S
C515 C507 1.503 . S
C515 C514 1.370 . S
C515 C516 1.403 . S
C516 C515 1.403 . S
C516 C517 1.404 . S
C516 C519 1.539 . S
C517 C513 1.408 . S
C517 C516 1.404 . S
C517 H529 0.930 . S
C518 C514 1.524 . S
C518 H530 0.956 . S
C518 H531 0.961 . S
C518 H532 0.961 . S
C519 C516 1.539 . S
C519 H533 0.958 . S
C519 H534 0.961 . S
C519 H535 0.960 . S
H520 C504 0.931 . S
H521 C509 0.929 . S
H522 C510 0.960 . S
H523 C510 0.962 . S
H524 C510 0.960 . S
H525 C511 0.961 . S
H526 C511 0.961 . S
H527 C511 0.961 . S
H528 C512 0.931 . S
H529 C517 0.930 . S
H530 C518 0.956 . S
H531 C518 0.961 . S
H532 C518 0.961 . S
H533 C519 0.958 . S
H534 C519 0.961 . S
H535 C519 0.960 . S
C536 C537 1.391 . S
C536 C538 1.394 . S
C536 H552 0.931 . S
C537 C536 1.391 . S
C537 C541 1.376 . S
C538 C536 1.394 . S
C538 C539 1.369 . S
C538 C542 1.531 . S
C539 C538 1.369 . S
C539 C540 1.410 . S
C539 C547 1.503 . S
C540 C539 1.410 . S
C540 C541 1.392 . S
C540 C543 1.511 . S
C541 C537 1.376 . S
C541 C540 1.392 . S
C541 H553 0.929 . S
C542 C538 1.531 . S
C542 H554 0.960 . S
C542 H555 0.962 . S
C542 H556 0.960 . S
C543 C540 1.511 . S
C543 H557 0.961 . S
C543 H558 0.961 . S
C543 H559 0.961 . S
C544 C545 1.370 . S
C544 C546 1.363 . S
C544 H560 0.931 . S
C545 C544 1.370 . S
C545 C549 1.408 . S
C546 C544 1.363 . S
C546 C547 1.370 . S
C546 C550 1.524 . S
C547 C539 1.503 . S
C547 C546 1.370 . S
C547 C548 1.403 . S
C548 C547 1.403 . S
C548 C549 1.404 . S
C548 C551 1.539 . S
C549 C545 1.408 . S
C549 C548 1.404 . S
C549 H561 0.930 . S
C550 C546 1.524 . S
C550 H562 0.956 . S
C550 H563 0.961 . S
C550 H564 0.961 . S
C551 C548 1.539 . S
C551 H565 0.958 . S
C551 H566 0.961 . S
C551 H567 0.960 . S
H552 C536 0.931 . S
H553 C541 0.929 . S
H554 C542 0.960 . S
H555 C542 0.962 . S
H556 C542 0.960 . S
H557 C543 0.961 . S
H558 C543 0.961 . S
H559 C543 0.961 . S
H560 C544 0.931 . S
H561 C549 0.930 . S
H562 C550 0.956 . S
H563 C550 0.961 . S
H564 C550 0.961 . S
H565 C551 0.958 . S
H566 C551 0.961 . S
H567 C551 0.960 . S
C568 C569 1.391 1_655 S
C568 C570 1.394 . S
C568 H584 0.931 . S
C569 C568 1.391 1_455 S
C569 C573 1.376 . S
C570 C568 1.394 . S
C570 C571 1.369 1_655 S
C570 C574 1.531 . S
C571 C570 1.369 1_455 S
C571 C572 1.410 . S
C571 C579 1.503 . S
C572 C571 1.410 . S
C572 C573 1.392 . S
C572 C575 1.511 . S
C573 C569 1.376 . S
C573 C572 1.392 . S
C573 H585 0.929 . S
C574 C570 1.531 . S
C574 H586 0.960 . S
C574 H587 0.962 . S
C574 H588 0.960 . S
C575 C572 1.511 . S
C575 H589 0.961 . S
C575 H590 0.961 . S
C575 H591 0.961 . S
C576 C577 1.370 . S
C576 C578 1.363 . S
C576 H592 0.931 . S
C577 C576 1.370 . S
C577 C581 1.408 1_455 S
C578 C576 1.363 . S
C578 C579 1.370 . S
C578 C582 1.524 . S
C579 C571 1.503 . S
C579 C578 1.370 . S
C579 C580 1.403 1_455 S
C580 C579 1.403 1_655 S
C580 C581 1.404 . S
C580 C583 1.539 . S
C581 C577 1.408 1_655 S
C581 C580 1.404 . S
C581 H593 0.930 . S
C582 C578 1.524 . S
C582 H594 0.956 . S
C582 H595 0.961 . S
C582 H596 0.961 . S
C583 C580 1.539 . S
C583 H597 0.958 . S
C583 H598 0.961 . S
C583 H599 0.960 . S
H584 C568 0.931 . S
H585 C573 0.929 . S
H586 C574 0.960 . S
H587 C574 0.962 . S
H588 C574 0.960 . S
H589 C575 0.961 . S
H590 C575 0.961 . S
H591 C575 0.961 . S
H592 C576 0.931 . S
H593 C581 0.930 . S
H594 C582 0.956 . S
H595 C582 0.961 . S
H596 C582 0.961 . S
H597 C583 0.958 . S
H598 C583 0.961 . S
H599 C583 0.960 . S
C600 C601 1.391 . S
C600 C602 1.394 . S
C600 H616 0.931 . S
C601 C600 1.391 . S
C601 C605 1.376 1_565 S
C602 C600 1.394 . S
C602 C603 1.369 . S
C602 C606 1.531 . S
C603 C602 1.369 . S
C603 C604 1.410 1_565 S
C603 C611 1.503 1_554 S
C604 C603 1.410 1_545 S
C604 C605 1.392 . S
C604 C607 1.511 1_554 S
C605 C601 1.376 1_545 S
C605 C604 1.392 . S
C605 H617 0.929 . S
C606 C602 1.531 . S
C606 H618 0.960 . S
C606 H619 0.962 . S
C606 H620 0.960 . S
C607 C604 1.511 1_556 S
C607 H621 0.961 . S
C607 H622 0.961 . S
C607 H623 0.967 . S
C608 C609 1.370 1_545 S
C608 C610 1.363 . S
C608 H624 0.931 . S
C609 C608 1.370 1_565 S
C609 C613 1.408 . S
C610 C608 1.363 . S
C610 C611 1.370 1_545 S
C610 C614 1.524 1_556 S
C611 C603 1.503 1_556 S
C611 C610 1.370 1_565 S
C611 C612 1.403 . S
C612 C611 1.403 . S
C612 C613 1.404 . S
C612 C615 1.539 . S
C613 C609 1.408 . S
C613 C612 1.404 . S
C613 H625 0.930 . S
C614 C610 1.524 1_554 S
C614 H626 0.956 . S
C614 H627 0.961 . S
C614 H628 0.961 1_554 S
C615 C612 1.539 . S
C615 H629 0.958 . S
C615 H630 0.961 . S
C615 H631 0.960 . S
H616 C600 0.931 . S
H617 C605 0.929 . S
H618 C606 0.960 . S
H619 C606 0.962 . S
H620 C606 0.960 . S
H621 C607 0.961 . S
H622 C607 0.961 . S
H623 C607 0.967 . S
H624 C608 0.931 . S
H625 C613 0.930 . S
H626 C614 0.956 . S
H627 C614 0.961 . S
H628 C614 0.961 1_556 S
H629 C615 0.958 . S
H630 C615 0.961 . S
H631 C615 0.960 . S
C632 C633 1.391 1_556 S
C632 C634 1.394 . S
C632 H648 0.931 . S
C633 C632 1.391 1_554 S
C633 C637 1.376 . S
C634 C632 1.394 . S
C634 C635 1.369 . S
C634 C638 1.531 . S
C635 C634 1.369 . S
C635 C636 1.410 . S
C635 C643 1.503 . S
C636 C635 1.410 . S
C636 C637 1.392 1_556 S
C636 C639 1.511 1_556 S
C637 C633 1.376 . S
C637 C636 1.392 1_554 S
C637 H649 0.929 . S
C638 C634 1.531 . S
C638 H650 0.960 . S
C638 H651 0.962 . S
C638 H652 0.960 . S
C639 C636 1.511 1_554 S
C639 H653 0.961 . S
C639 H654 0.961 1_554 S
C639 H655 0.961 1_554 S
C640 C641 1.370 . S
C640 C642 1.363 . S
C640 H656 0.931 . S
C641 C640 1.370 . S
C641 C645 1.408 . S
C642 C640 1.363 . S
C642 C643 1.370 . S
C642 C646 1.524 . S
C643 C635 1.503 . S
C643 C642 1.370 . S
C643 C644 1.403 . S
C644 C643 1.403 . S
C644 C645 1.404 . S
C644 C647 1.539 . S
C645 C641 1.408 . S
C645 C644 1.404 . S
C645 H657 0.930 . S
C646 C642 1.524 . S
C646 H658 0.956 . S
C646 H659 0.961 . S
C646 H660 0.961 . S
C647 C644 1.539 . S
C647 H661 0.958 . S
C647 H662 0.961 . S
C647 H663 0.960 . S
H648 C632 0.931 . S
H649 C637 0.929 . S
H650 C638 0.960 . S
H651 C638 0.962 . S
H652 C638 0.960 . S
H653 C639 0.961 . S
H654 C639 0.961 1_556 S
H655 C639 0.961 1_556 S
H656 C640 0.931 . S
H657 C645 0.930 . S
H658 C646 0.956 . S
H659 C646 0.961 . S
H660 C646 0.961 . S
H661 C647 0.958 . S
H662 C647 0.961 . S
H663 C647 0.960 . S
C664 C665 1.391 . S
C664 C666 1.394 . S
C664 H680 0.931 . S
C665 C664 1.391 . S
C665 C669 1.376 . S
C666 C664 1.394 . S
C666 C667 1.369 . S
C666 C670 1.531 . S
C667 C666 1.369 . S
C667 C668 1.410 . S
C667 C675 1.503 . S
C668 C667 1.410 . S
C668 C669 1.392 . S
C668 C671 1.511 . S
C669 C665 1.376 . S
C669 C668 1.392 . S
C669 H681 0.929 . S
C670 C666 1.531 . S
C670 H682 0.960 . S
C670 H683 0.962 . S
C670 H684 0.960 . S
C671 C668 1.511 . S
C671 H685 0.961 . S
C671 H686 0.961 . S
C671 H687 0.961 . S
C672 C673 1.370 . S
C672 C674 1.363 . S
C672 H688 0.931 . S
C673 C672 1.370 . S
C673 C677 1.408 . S
C674 C672 1.363 . S
C674 C675 1.370 . S
C674 C678 1.524 . S
C675 C667 1.503 . S
C675 C674 1.370 . S
C675 C676 1.403 . S
C676 C675 1.403 . S
C676 C677 1.404 . S
C676 C679 1.539 . S
C677 C673 1.408 . S
C677 C676 1.404 . S
C677 H689 0.930 . S
C678 C674 1.524 . S
C678 H690 0.956 . S
C678 H691 0.961 . S
C678 H692 0.961 . S
C679 C676 1.539 . S
C679 H693 0.958 . S
C679 H694 0.961 . S
C679 H695 0.960 . S
H680 C664 0.931 . S
H681 C669 0.929 . S
H682 C670 0.960 . S
H683 C670 0.962 . S
H684 C670 0.960 . S
H685 C671 0.961 . S
H686 C671 0.961 . S
H687 C671 0.961 . S
H688 C672 0.931 . S
H689 C677 0.930 . S
H690 C678 0.956 . S
H691 C678 0.961 . S
H692 C678 0.961 . S
H693 C679 0.958 . S
H694 C679 0.961 . S
H695 C679 0.960 . S
C696 C697 1.391 . S
C696 C698 1.394 . S
C696 H712 0.931 . S
C697 C696 1.391 . S
C697 C701 1.376 1_655 S
C698 C696 1.394 . S
C698 C699 1.369 . S
C698 C702 1.531 . S
C699 C698 1.369 . S
C699 C700 1.410 1_655 S
C699 C707 1.503 . S
C700 C699 1.410 1_455 S
C700 C701 1.392 . S
C700 C703 1.511 . S
C701 C697 1.376 1_455 S
C701 C700 1.392 . S
C701 H713 0.929 . S
C702 C698 1.531 . S
C702 H714 0.960 . S
C702 H715 0.962 . S
C702 H716 0.960 . S
C703 C700 1.511 . S
C703 H717 0.961 . S
C703 H718 0.961 . S
C703 H719 0.961 . S
C704 C705 1.331 1_455 S
C704 C706 1.363 . S
C704 H720 0.931 . S
C705 C704 1.331 1_655 S
C705 C709 1.446 . S
C706 C704 1.363 . S
C706 C707 1.370 1_456 S
C706 C710 1.524 1_556 S
C707 C699 1.503 . S
C707 C706 1.370 1_654 S
C707 C708 1.403 1_554 S
C708 C707 1.403 1_556 S
C708 C709 1.404 . S
C708 C711 1.539 . S
C709 C705 1.446 . S
C709 C708 1.404 . S
C709 H721 0.930 . S
C710 C706 1.524 1_554 S
C710 H722 0.956 . S
C710 H723 0.961 . S
C710 H724 0.961 1_554 S
C711 C708 1.539 . S
C711 H725 0.958 1_556 S
C711 H726 0.961 . S
C711 H727 0.960 1_556 S
H712 C696 0.931 . S
H713 C701 0.929 . S
H714 C702 0.960 . S
H715 C702 0.962 . S
H716 C702 0.960 . S
H717 C703 0.961 . S
H718 C703 0.961 . S
H719 C703 0.961 . S
H720 C704 0.931 . S
H721 C709 0.930 . S
H722 C710 0.956 . S
H723 C710 0.961 . S
H724 C710 0.961 1_556 S
H725 C711 0.958 1_554 S
H726 C711 0.961 . S
H727 C711 0.960 1_554 S
C728 C729 1.391 . S
C728 C730 1.394 1_455 S
C728 H744 0.931 1_455 S
C729 C728 1.391 . S
C729 C733 1.376 . S
C730 C728 1.394 1_655 S
C730 C731 1.369 1_655 S
C730 C734 1.531 . S
C731 C730 1.369 1_455 S
C731 C732 1.410 . S
C731 C739 1.503 1_455 S
C732 C731 1.410 . S
C732 C733 1.392 . S
C732 C735 1.511 . S
C733 C729 1.376 . S
C733 C732 1.392 . S
C733 H745 0.929 . S
C734 C730 1.531 . S
C734 H746 0.960 . S
C734 H747 0.962 . S
C734 H748 0.960 . S
C735 C732 1.511 . S
C735 H749 0.961 . S
C735 H750 0.961 . S
C735 H751 0.961 . S
C736 C737 1.370 . S
C736 C738 1.363 . S
C736 H752 0.931 . S
C737 C736 1.370 . S
C737 C741 1.408 . S
C738 C736 1.363 . S
C738 C739 1.370 . S
C738 C742 1.524 . S
C739 C731 1.503 1_655 S
C739 C738 1.370 . S
C739 C740 1.403 1_655 S
C740 C739 1.403 1_455 S
C740 C741 1.404 1_455 S
C740 C743 1.539 . S
C741 C737 1.408 . S
C741 C740 1.404 1_655 S
C741 H753 0.930 1_655 S
C742 C738 1.524 . S
C742 H754 0.956 . S
C742 H755 0.961 . S
C742 H756 0.961 . S
C743 C740 1.539 . S
C743 H757 0.958 . S
C743 H758 0.961 . S
C743 H759 0.960 . S
H744 C728 0.931 1_655 S
H745 C733 0.929 . S
H746 C734 0.960 . S
H747 C734 0.962 . S
H748 C734 0.960 . S
H749 C735 0.961 . S
H750 C735 0.961 . S
H751 C735 0.961 . S
H752 C736 0.931 . S
H753 C741 0.930 1_455 S
H754 C742 0.956 . S
H755 C742 0.961 . S
H756 C742 0.961 . S
H757 C743 0.958 . S
H758 C743 0.961 . S
H759 C743 0.960 . S
C760 C761 1.391 . S
C760 C762 1.394 . S
C760 H776 0.931 1_565 S
C761 C760 1.391 . S
C761 C765 1.376 . S
C762 C760 1.394 . S
C762 C763 1.369 . S
C762 C766 1.531 . S
C763 C762 1.369 . S
C763 C764 1.410 . S
C763 C771 1.503 . S
C764 C763 1.410 . S
C764 C765 1.392 . S
C764 C767 1.511 . S
C765 C761 1.376 . S
C765 C764 1.392 . S
C765 H777 0.929 . S
C766 C762 1.531 . S
C766 H778 0.960 . S
C766 H779 0.962 1_565 S
C766 H780 0.960 . S
C767 C764 1.511 . S
C767 H781 0.961 . S
C767 H782 0.961 . S
C767 H783 0.961 . S
C768 C769 1.370 . S
C768 C770 1.363 1_565 S
C768 H784 0.931 1_565 S
C769 C768 1.370 . S
C769 C773 1.408 . S
C770 C768 1.363 1_545 S
C770 C771 1.370 1_545 S
C770 C774 1.525 . S
C771 C763 1.503 . S
C771 C770 1.370 1_565 S
C771 C772 1.403 . S
C772 C771 1.403 . S
C772 C773 1.404 . S
C772 C775 1.539 . S
C773 C769 1.408 . S
C773 C772 1.404 . S
C773 H785 0.930 . S
C774 C770 1.525 . S
C774 H786 0.956 . S
C774 H787 0.961 . S
C774 H788 0.961 . S
C775 C772 1.539 . S
C775 H789 0.958 . S
C775 H790 0.961 . S
C775 H791 0.960 . S
H776 C760 0.931 1_545 S
H777 C765 0.929 . S
H778 C766 0.960 . S
H779 C766 0.962 1_545 S
H780 C766 0.960 . S
H781 C767 0.961 . S
H782 C767 0.961 . S
H783 C767 0.961 . S
H784 C768 0.931 1_545 S
H785 C773 0.930 . S
H786 C774 0.956 . S
H787 C774 0.961 . S
H788 C774 0.961 . S
H789 C775 0.958 . S
H790 C775 0.961 . S
H791 C775 0.960 . S
C792 C793 1.391 . S
C792 C794 1.394 . S
C792 H808 0.931 . S
C793 C792 1.391 . S
C793 C797 1.376 . S
C794 C792 1.394 . S
C794 C795 1.369 . S
C794 C798 1.531 . S
C795 C794 1.369 . S
C795 C796 1.410 . S
C795 C803 1.503 . S
C796 C795 1.410 . S
C796 C797 1.392 . S
C796 C799 1.511 . S
C797 C793 1.376 . S
C797 C796 1.392 . S
C797 H809 0.929 . S
C798 C794 1.531 . S
C798 H810 0.960 . S
C798 H811 0.962 . S
C798 H812 0.960 . S
C799 C796 1.511 . S
C799 H813 0.961 . S
C799 H814 0.961 . S
C799 H815 0.961 . S
C800 C801 1.370 . S
C800 C802 1.363 . S
C800 H816 0.931 . S
C801 C800 1.370 . S
C801 C805 1.408 . S
C802 C800 1.363 . S
C802 C803 1.370 . S
C802 C806 1.524 . S
C803 C795 1.503 . S
C803 C802 1.370 . S
C803 C804 1.403 . S
C804 C803 1.403 . S
C804 C805 1.404 . S
C804 C807 1.539 . S
C805 C801 1.408 . S
C805 C804 1.404 . S
C805 H817 0.930 . S
C806 C802 1.524 . S
C806 H818 0.956 . S
C806 H819 0.961 . S
C806 H820 0.961 . S
C807 C804 1.539 . S
C807 H821 0.958 . S
C807 H822 0.961 . S
C807 H823 0.960 . S
H808 C792 0.931 . S
H809 C797 0.929 . S
H810 C798 0.960 . S
H811 C798 0.962 . S
H812 C798 0.960 . S
H813 C799 0.961 . S
H814 C799 0.961 . S
H815 C799 0.961 . S
H816 C800 0.931 . S
H817 C805 0.930 . S
H818 C806 0.956 . S
H819 C806 0.961 . S
H820 C806 0.961 . S
H821 C807 0.958 . S
H822 C807 0.961 . S
H823 C807 0.960 . S
C824 C825 1.391 . S
C824 C826 1.394 . S
C824 H840 0.931 . S
C825 C824 1.391 . S
C825 C829 1.376 . S
C826 C824 1.394 . S
C826 C827 1.369 . S
C826 C830 1.531 . S
C827 C826 1.369 . S
C827 C828 1.410 . S
C827 C835 1.503 . S
C828 C827 1.410 . S
C828 C829 1.392 . S
C828 C831 1.511 . S
C829 C825 1.376 . S
C829 C828 1.392 . S
C829 H841 0.929 . S
C830 C826 1.531 . S
C830 H842 0.960 . S
C830 H843 0.962 . S
C830 H844 0.960 . S
C831 C828 1.511 . S
C831 H845 0.961 . S
C831 H846 0.961 . S
C831 H847 0.961 . S
C832 C833 1.370 . S
C832 C834 1.363 . S
C832 H848 0.931 . S
C833 C832 1.370 . S
C833 C837 1.408 . S
C834 C832 1.363 . S
C834 C835 1.370 . S
C834 C838 1.524 . S
C835 C827 1.503 . S
C835 C834 1.370 . S
C835 C836 1.403 . S
C836 C835 1.403 . S
C836 C837 1.404 . S
C836 C839 1.539 . S
C837 C833 1.408 . S
C837 C836 1.404 . S
C837 H849 0.930 . S
C838 C834 1.524 . S
C838 H850 0.956 . S
C838 H851 0.961 . S
C838 H852 0.961 . S
C839 C836 1.539 . S
C839 H853 0.958 . S
C839 H854 0.961 . S
C839 H855 0.960 . S
H840 C824 0.931 . S
H841 C829 0.929 . S
H842 C830 0.960 . S
H843 C830 0.962 . S
H844 C830 0.960 . S
H845 C831 0.961 . S
H846 C831 0.961 . S
H847 C831 0.961 . S
H848 C832 0.931 . S
H849 C837 0.930 . S
H850 C838 0.956 . S
H851 C838 0.961 . S
H852 C838 0.961 . S
H853 C839 0.958 . S
H854 C839 0.961 . S
H855 C839 0.960 . S
C856 C857 1.391 . S
C856 C858 1.394 . S
C856 H872 0.931 . S
C857 C856 1.391 . S
C857 C861 1.376 1_655 S
C858 C856 1.394 . S
C858 C859 1.369 1_655 S
C858 C862 1.531 . S
C859 C858 1.369 1_455 S
C859 C860 1.410 . S
C859 C867 1.503 . S
C860 C859 1.410 . S
C860 C861 1.392 . S
C860 C863 1.511 . S
C861 C857 1.376 1_455 S
C861 C860 1.392 . S
C861 H873 0.929 . S
C862 C858 1.531 . S
C862 H874 0.960 . S
C862 H875 0.962 . S
C862 H876 0.960 . S
C863 C860 1.511 . S
C863 H877 0.967 . S
C863 H878 0.961 1_554 S
C863 H879 0.961 . S
C864 C865 1.370 . S
C864 C866 1.363 . S
C864 H880 0.931 . S
C865 C864 1.370 . S
C865 C869 1.408 1_556 S
C866 C864 1.363 . S
C866 C867 1.370 1_556 S
C866 C870 1.524 1_455 S
C867 C859 1.503 . S
C867 C866 1.370 1_554 S
C867 C868 1.403 . S
C868 C867 1.403 . S
C868 C869 1.404 . S
C868 C871 1.539 . S
C869 C865 1.408 1_554 S
C869 C868 1.404 . S
C869 H881 0.930 . S
C870 C866 1.524 1_655 S
C870 H882 0.963 . S
C870 H883 0.961 . S
C870 H884 0.961 . S
C871 C868 1.539 . S
C871 H885 0.958 . S
C871 H886 0.961 . S
C871 H887 0.960 . S
H872 C856 0.931 . S
H873 C861 0.929 . S
H874 C862 0.960 . S
H875 C862 0.962 . S
H876 C862 0.960 . S
H877 C863 0.967 . S
H878 C863 0.961 1_556 S
H879 C863 0.961 . S
H880 C864 0.931 . S
H881 C869 0.930 . S
H882 C870 0.963 . S
H883 C870 0.961 . S
H884 C870 0.961 . S
H885 C871 0.958 . S
H886 C871 0.961 . S
H887 C871 0.960 . S
C888 C889 1.391 1_565 S
C888 C890 1.394 1_565 S
C888 H904 0.931 . S
C889 C888 1.391 1_545 S
C889 C893 1.376 . S
C890 C888 1.394 1_545 S
C890 C891 1.369 . S
C890 C894 1.529 1_545 S
C891 C890 1.369 . S
C891 C892 1.410 1_554 S
C891 C899 1.503 . S
C892 C891 1.410 1_556 S
C892 C893 1.392 1_556 S
C892 C895 1.511 . S
C893 C889 1.376 . S
C893 C892 1.392 1_554 S
C893 H905 0.929 1_554 S
C894 C890 1.529 1_565 S
C894 H906 0.957 1_565 S
C894 H907 0.966 . S
C894 H908 0.959 1_565 S
C895 C892 1.511 . S
C895 H909 0.961 . S
C895 H910 0.961 . S
C895 H911 0.961 . S
C896 C897 1.370 . S
C896 C898 1.368 . S
C896 H912 0.931 1_545 S
C897 C896 1.370 . S
C897 C901 1.408 . S
C898 C896 1.368 . S
C898 C899 1.406 1_556 S
C898 C902 1.485 1_545 S
C899 C891 1.503 . S
C899 C898 1.406 1_554 S
C899 C900 1.403 . S
C900 C899 1.403 . S
C900 C901 1.404 1_554 S
C900 C903 1.539 . S
C901 C897 1.408 . S
C901 C900 1.404 1_556 S
C901 H913 0.930 . S
C902 C898 1.485 1_565 S
C902 H914 0.956 . S
C902 H915 0.961 . S
C902 H916 0.961 . S
C903 C900 1.539 . S
C903 H917 0.958 . S
C903 H918 0.961 . S
C903 H919 0.960 . S
H904 C888 0.931 . S
H905 C893 0.929 1_556 S
H906 C894 0.957 1_545 S
H907 C894 0.966 . S
H908 C894 0.959 1_545 S
H909 C895 0.961 . S
H910 C895 0.961 . S
H911 C895 0.961 . S
H912 C896 0.931 1_565 S
H913 C901 0.930 . S
H914 C902 0.956 . S
H915 C902 0.961 . S
H916 C902 0.961 . S
H917 C903 0.958 . S
H918 C903 0.961 . S
H919 C903 0.960 . S
C920 C921 1.391 . S
C920 C922 1.394 . S
C920 H936 0.931 . S
C921 C920 1.391 . S
C921 C925 1.376 . S
C922 C920 1.394 . S
C922 C923 1.369 . S
C922 C926 1.531 . S
C923 C922 1.369 . S
C923 C924 1.410 . S
C923 C931 1.503 . S
C924 C923 1.410 . S
C924 C925 1.392 . S
C924 C927 1.511 . S
C925 C921 1.376 . S
C925 C924 1.392 . S
C925 H937 0.929 . S
C926 C922 1.531 . S
C926 H938 0.960 . S
C926 H939 0.962 . S
C926 H940 0.960 . S
C927 C924 1.511 . S
C927 H941 0.961 . S
C927 H942 0.961 . S
C927 H943 0.961 . S
C928 C929 1.370 . S
C928 C930 1.363 . S
C928 H944 0.931 . S
C929 C928 1.370 . S
C929 C933 1.408 . S
C930 C928 1.363 . S
C930 C931 1.370 . S
C930 C934 1.524 . S
C931 C923 1.503 . S
C931 C930 1.370 . S
C931 C932 1.403 . S
C932 C931 1.403 . S
C932 C933 1.404 . S
C932 C935 1.539 . S
C933 C929 1.408 . S
C933 C932 1.404 . S
C933 H945 0.930 . S
C934 C930 1.524 . S
C934 H946 0.956 . S
C934 H947 0.961 . S
C934 H948 0.961 . S
C935 C932 1.539 . S
C935 H949 0.958 . S
C935 H950 0.961 . S
C935 H951 0.960 . S
H936 C920 0.931 . S
H937 C925 0.929 . S
H938 C926 0.960 . S
H939 C926 0.962 . S
H940 C926 0.960 . S
H941 C927 0.961 . S
H942 C927 0.961 . S
H943 C927 0.961 . S
H944 C928 0.931 . S
H945 C933 0.930 . S
H946 C934 0.956 . S
H947 C934 0.961 . S
H948 C934 0.961 . S
H949 C935 0.958 . S
H950 C935 0.961 . S
H951 C935 0.960 . S
C952 C953 1.391 . S
C952 C954 1.394 . S
C952 H968 0.931 . S
C953 C952 1.391 . S
C953 C957 1.376 . S
C954 C952 1.394 . S
C954 C955 1.369 . S
C954 C958 1.531 . S
C955 C954 1.369 . S
C955 C956 1.410 . S
C955 C963 1.503 . S
C956 C955 1.410 . S
C956 C957 1.392 . S
C956 C959 1.511 . S
C957 C953 1.376 . S
C957 C956 1.392 . S
C957 H969 0.929 . S
C958 C954 1.531 . S
C958 H970 0.960 . S
C958 H971 0.962 . S
C958 H972 0.960 . S
C959 C956 1.511 . S
C959 H973 0.961 . S
C959 H974 0.961 . S
C959 H975 0.961 . S
C960 C961 1.370 . S
C960 C962 1.363 . S
C960 H976 0.931 . S
C961 C960 1.370 . S
C961 C965 1.408 . S
C962 C960 1.363 . S
C962 C963 1.370 . S
C962 C966 1.524 . S
C963 C955 1.503 . S
C963 C962 1.370 . S
C963 C964 1.403 . S
C964 C963 1.403 . S
C964 C965 1.404 . S
C964 C967 1.539 . S
C965 C961 1.408 . S
C965 C964 1.404 . S
C965 H977 0.930 1_554 S
C966 C962 1.524 . S
C966 H978 0.956 . S
C966 H979 0.961 . S
C966 H980 0.961 . S
C967 C964 1.539 . S
C967 H981 0.958 . S
C967 H982 0.961 . S
C967 H983 0.960 . S
H968 C952 0.931 . S
H969 C957 0.929 . S
H970 C958 0.960 . S
H971 C958 0.962 . S
H972 C958 0.960 . S
H973 C959 0.961 . S
H974 C959 0.961 . S
H975 C959 0.961 . S
H976 C960 0.931 . S
H977 C965 0.930 1_556 S
H978 C966 0.956 . S
H979 C966 0.961 . S
H980 C966 0.961 . S
H981 C967 0.958 . S
H982 C967 0.961 . S
H983 C967 0.960 . S
C984 C985 1.391 . S
C984 C986 1.394 . S
C984 H1000 0.931 . S
C985 C984 1.391 . S
C985 C989 1.376 1_455 S
C986 C984 1.394 . S
C986 C987 1.369 . S
C986 C990 1.531 . S
C987 C986 1.369 . S
C987 C988 1.410 1_455 S
C987 C995 1.503 . S
C988 C987 1.410 1_655 S
C988 C989 1.392 . S
C988 C991 1.511 . S
C989 C985 1.376 1_655 S
C989 C988 1.392 . S
C989 H1001 0.929 . S
C990 C986 1.531 . S
C990 H1002 0.960 . S
C990 H1003 0.962 . S
C990 H1004 0.960 . S
C991 C988 1.511 . S
C991 H1005 0.961 . S
C991 H1006 0.961 . S
C991 H1007 0.961 . S
C992 C993 1.370 . S
C992 C994 1.363 . S
C992 H1008 0.931 . S
C993 C992 1.370 . S
C993 C997 1.408 . S
C994 C992 1.363 . S
C994 C995 1.370 . S
C994 C998 1.524 . S
C995 C987 1.503 . S
C995 C994 1.370 . S
C995 C996 1.403 . S
C996 C995 1.403 . S
C996 C997 1.404 . S
C996 C999 1.544 . S
C997 C993 1.408 . S
C997 C996 1.404 . S
C997 H1009 0.930 . S
C998 C994 1.524 . S
C998 H1010 0.956 . S
C998 H1011 0.961 . S
C998 H1012 0.961 . S
C999 C996 1.544 . S
C999 H1013 0.992 . S
C999 H1014 0.937 1_455 S
C999 H1015 0.947 1_455 S
H1000 C984 0.931 . S
H1001 C989 0.929 . S
H1002 C990 0.960 . S
H1003 C990 0.962 . S
H1004 C990 0.960 . S
H1005 C991 0.961 . S
H1006 C991 0.961 . S
H1007 C991 0.961 . S
H1008 C992 0.931 . S
H1009 C997 0.930 . S
H1010 C998 0.956 . S
H1011 C998 0.961 . S
H1012 C998 0.961 . S
H1013 C999 0.992 . S
H1014 C999 0.937 1_655 S
H1015 C999 0.947 1_655 S
C1016 C1017 1.394 . S
C1016 C1018 1.394 . S
C1016 H1032 0.931 . S
C1017 C1016 1.394 . S
C1017 C1021 1.373 1_565 S
C1018 C1016 1.394 . S
C1018 C1019 1.369 . S
C1018 C1022 1.531 . S
C1019 C1018 1.369 . S
C1019 C1020 1.410 1_565 S
C1019 C1027 1.503 1_565 S
C1020 C1019 1.410 1_545 S
C1020 C1021 1.392 . S
C1020 C1023 1.511 . S
C1021 C1017 1.373 1_545 S
C1021 C1020 1.392 . S
C1021 H1033 0.929 . S
C1022 C1018 1.531 . S
C1022 H1034 0.960 . S
C1022 H1035 0.962 1_565 S
C1022 H1036 0.960 . S
C1023 C1020 1.511 . S
C1023 H1037 0.961 . S
C1023 H1038 0.961 . S
C1023 H1039 0.961 1_545 S
C1024 C1025 1.370 . S
C1024 C1026 1.363 . S
C1024 H1040 0.931 . S
C1025 C1024 1.370 . S
C1025 C1029 1.408 1_545 S
C1026 C1024 1.363 . S
C1026 C1027 1.370 . S
C1026 C1030 1.524 . S
C1027 C1019 1.503 1_545 S
C1027 C1026 1.370 . S
C1027 C1028 1.403 1_545 S
C1028 C1027 1.403 1_565 S
C1028 C1029 1.404 . S
C1028 C1031 1.539 . S
C1029 C1025 1.408 1_565 S
C1029 C1028 1.404 . S
C1029 H1041 0.930 . S
C1030 C1026 1.524 . S
C1030 H1042 0.956 . S
C1030 H1043 0.961 . S
C1030 H1044 0.961 . S
C1031 C1028 1.539 . S
C1031 H1045 0.958 . S
C1031 H1046 0.961 . S
C1031 H1047 0.960 . S
H1032 C1016 0.931 . S
H1033 C1021 0.929 . S
H1034 C1022 0.960 . S
H1035 C1022 0.962 1_545 S
H1036 C1022 0.960 . S
H1037 C1023 0.961 . S
H1038 C1023 0.961 . S
H1039 C1023 0.961 1_565 S
H1040 C1024 0.931 . S
H1041 C1029 0.930 . S
H1042 C1030 0.956 . S
H1043 C1030 0.961 . S
H1044 C1030 0.961 . S
H1045 C1031 0.958 . S
H1046 C1031 0.961 . S
H1047 C1031 0.960 . S
C1048 C1049 1.391 . S
C1048 C1050 1.394 . S
C1048 H1064 0.931 . S
C1049 C1048 1.391 . S
C1049 C1053 1.376 . S
C1050 C1048 1.394 . S
C1050 C1051 1.369 1_554 S
C1050 C1054 1.531 . S
C1051 C1050 1.369 1_556 S
C1051 C1052 1.410 . S
C1051 C1059 1.503 . S
C1052 C1051 1.410 . S
C1052 C1053 1.392 1_556 S
C1052 C1055 1.511 . S
C1053 C1049 1.376 . S
C1053 C1052 1.392 1_554 S
C1053 H1065 0.929 . S
C1054 C1050 1.531 . S
C1054 H1066 0.960 . S
C1054 H1067 0.962 1_554 S
C1054 H1068 0.960 . S
C1055 C1052 1.511 . S
C1055 H1069 0.961 . S
C1055 H1070 0.961 . S
C1055 H1071 0.961 . S
C1056 C1057 1.370 . S
C1056 C1058 1.363 . S
C1056 H1072 0.931 . S
C1057 C1056 1.370 . S
C1057 C1061 1.408 . S
C1058 C1056 1.363 . S
C1058 C1059 1.370 . S
C1058 C1062 1.524 . S
C1059 C1051 1.503 . S
C1059 C1058 1.370 . S
C1059 C1060 1.403 . S
C1060 C1059 1.403 . S
C1060 C1061 1.404 . S
C1060 C1063 1.539 1_556 S
C1061 C1057 1.408 . S
C1061 C1060 1.404 . S
C1061 H1073 0.930 . S
C1062 C1058 1.524 . S
C1062 H1074 0.956 . S
C1062 H1075 0.961 . S
C1062 H1076 0.961 . S
C1063 C1060 1.539 1_554 S
C1063 H1077 0.958 . S
C1063 H1078 0.961 . S
C1063 H1079 0.960 . S
H1064 C1048 0.931 . S
H1065 C1053 0.929 . S
H1066 C1054 0.960 . S
H1067 C1054 0.962 1_556 S
H1068 C1054 0.960 . S
H1069 C1055 0.961 . S
H1070 C1055 0.961 . S
H1071 C1055 0.961 . S
H1072 C1056 0.931 . S
H1073 C1061 0.930 . S
H1074 C1062 0.956 . S
H1075 C1062 0.961 . S
H1076 C1062 0.961 . S
H1077 C1063 0.958 . S
H1078 C1063 0.961 . S
H1079 C1063 0.960 . S
C1080 C1081 1.391 . S
C1080 C1082 1.394 . S
C1080 H1096 0.931 . S
C1081 C1080 1.391 . S
C1081 C1085 1.376 . S
C1082 C1080 1.394 . S
C1082 C1083 1.369 . S
C1082 C1086 1.531 . S
C1083 C1082 1.369 . S
C1083 C1084 1.410 . S
C1083 C1091 1.503 . S
C1084 C1083 1.410 . S
C1084 C1085 1.392 . S
C1084 C1087 1.511 . S
C1085 C1081 1.376 . S
C1085 C1084 1.392 . S
C1085 H1097 0.929 . S
C1086 C1082 1.531 . S
C1086 H1098 0.960 . S
C1086 H1099 0.962 . S
C1086 H1100 0.960 . S
C1087 C1084 1.511 . S
C1087 H1101 0.961 . S
C1087 H1102 0.961 . S
C1087 H1103 0.961 . S
C1088 C1089 1.370 . S
C1088 C1090 1.363 . S
C1088 H1104 0.931 . S
C1089 C1088 1.370 . S
C1089 C1093 1.408 . S
C1090 C1088 1.363 . S
C1090 C1091 1.370 . S
C1090 C1094 1.524 . S
C1091 C1083 1.503 . S
C1091 C1090 1.370 . S
C1091 C1092 1.403 . S
C1092 C1091 1.403 . S
C1092 C1093 1.404 . S
C1092 C1095 1.539 . S
C1093 C1089 1.408 . S
C1093 C1092 1.404 . S
C1093 H1105 0.930 . S
C1094 C1090 1.524 . S
C1094 H1106 0.956 . S
C1094 H1107 0.961 . S
C1094 H1108 0.961 . S
C1095 C1092 1.539 . S
C1095 H1109 0.958 . S
C1095 H1110 0.961 . S
C1095 H1111 0.960 . S
H1096 C1080 0.931 . S
H1097 C1085 0.929 . S
H1098 C1086 0.960 . S
H1099 C1086 0.962 . S
H1100 C1086 0.960 . S
H1101 C1087 0.961 . S
H1102 C1087 0.961 . S
H1103 C1087 0.961 . S
H1104 C1088 0.931 . S
H1105 C1093 0.930 . S
H1106 C1094 0.956 . S
H1107 C1094 0.961 . S
H1108 C1094 0.961 . S
H1109 C1095 0.958 . S
H1110 C1095 0.961 . S
H1111 C1095 0.960 . S
C1112 C1113 1.391 . S
C1112 C1114 1.394 . S
C1112 H1128 0.931 . S
C1113 C1112 1.391 . S
C1113 C1117 1.376 1_655 S
C1114 C1112 1.394 . S
C1114 C1115 1.369 . S
C1114 C1118 1.531 . S
C1115 C1114 1.369 . S
C1115 C1116 1.410 1_655 S
C1115 C1123 1.503 . S
C1116 C1115 1.410 1_455 S
C1116 C1117 1.392 . S
C1116 C1119 1.511 . S
C1117 C1113 1.376 1_455 S
C1117 C1116 1.392 . S
C1117 H1129 0.929 . S
C1118 C1114 1.531 . S
C1118 H1130 0.960 . S
C1118 H1131 0.962 . S
C1118 H1132 0.960 . S
C1119 C1116 1.511 . S
C1119 H1133 0.961 . S
C1119 H1134 0.961 . S
C1119 H1135 0.961 . S
C1120 C1121 1.370 1_455 S
C1120 C1122 1.363 . S
C1120 H1136 0.931 . S
C1121 C1120 1.370 1_655 S
C1121 C1125 1.408 . S
C1122 C1120 1.363 . S
C1122 C1123 1.370 1_455 S
C1122 C1126 1.524 . S
C1123 C1115 1.503 . S
C1123 C1122 1.370 1_655 S
C1123 C1124 1.403 . S
C1124 C1123 1.403 . S
C1124 C1125 1.404 . S
C1124 C1127 1.539 . S
C1125 C1121 1.408 . S
C1125 C1124 1.404 . S
C1125 H1137 0.930 . S
C1126 C1122 1.524 . S
C1126 H1138 0.956 . S
C1126 H1139 0.961 . S
C1126 H1140 0.961 . S
C1127 C1124 1.539 . S
C1127 H1141 0.958 . S
C1127 H1142 0.961 . S
C1127 H1143 0.960 . S
H1128 C1112 0.931 . S
H1129 C1117 0.929 . S
H1130 C1118 0.960 . S
H1131 C1118 0.962 . S
H1132 C1118 0.960 . S
H1133 C1119 0.961 . S
H1134 C1119 0.961 . S
H1135 C1119 0.961 . S
H1136 C1120 0.931 . S
H1137 C1125 0.930 . S
H1138 C1126 0.956 . S
H1139 C1126 0.961 . S
H1140 C1126 0.961 . S
H1141 C1127 0.958 . S
H1142 C1127 0.961 . S
H1143 C1127 0.960 . S
C1144 C1145 1.391 1_545 S
C1144 C1146 1.394 . S
C1144 H1160 0.931 . S
C1145 C1144 1.391 1_565 S
C1145 C1149 1.376 . S
C1146 C1144 1.394 . S
C1146 C1147 1.369 1_545 S
C1146 C1150 1.531 . S
C1147 C1146 1.369 1_565 S
C1147 C1148 1.410 . S
C1147 C1155 1.503 . S
C1148 C1147 1.410 . S
C1148 C1149 1.392 . S
C1148 C1151 1.511 . S
C1149 C1145 1.376 . S
C1149 C1148 1.392 . S
C1149 H1161 0.929 . S
C1150 C1146 1.531 . S
C1150 H1162 0.960 . S
C1150 H1163 0.962 . S
C1150 H1164 0.960 . S
C1151 C1148 1.511 . S
C1151 H1165 0.961 . S
C1151 H1166 0.961 . S
C1151 H1167 0.961 . S
C1152 C1153 1.370 1_545 S
C1152 C1154 1.363 . S
C1152 H1168 0.931 . S
C1153 C1152 1.370 1_565 S
C1153 C1157 1.408 . S
C1154 C1152 1.363 . S
C1154 C1155 1.370 1_545 S
C1154 C1158 1.524 . S
C1155 C1147 1.503 . S
C1155 C1154 1.370 1_565 S
C1155 C1156 1.403 . S
C1156 C1155 1.403 . S
C1156 C1157 1.404 . S
C1156 C1159 1.539 . S
C1157 C1153 1.408 . S
C1157 C1156 1.404 . S
C1157 H1169 0.930 . S
C1158 C1154 1.524 . S
C1158 H1170 0.956 . S
C1158 H1171 0.961 . S
C1158 H1172 0.961 . S
C1159 C1156 1.539 . S
C1159 H1173 0.958 . S
C1159 H1174 0.961 . S
C1159 H1175 0.960 . S
H1160 C1144 0.931 . S
H1161 C1149 0.929 . S
H1162 C1150 0.960 . S
H1163 C1150 0.962 . S
H1164 C1150 0.960 . S
H1165 C1151 0.961 . S
H1166 C1151 0.961 . S
H1167 C1151 0.961 . S
H1168 C1152 0.931 . S
H1169 C1157 0.930 . S
H1170 C1158 0.956 . S
H1171 C1158 0.961 . S
H1172 C1158 0.961 . S
H1173 C1159 0.958 . S
H1174 C1159 0.961 . S
H1175 C1159 0.960 . S
C1176 C1177 1.391 . S
C1176 C1178 1.394 . S
C1176 H1192 0.931 . S
C1177 C1176 1.391 . S
C1177 C1181 1.376 . S
C1178 C1176 1.394 . S
C1178 C1179 1.369 . S
C1178 C1182 1.531 . S
C1179 C1178 1.369 . S
C1179 C1180 1.410 . S
C1179 C1187 1.503 . S
C1180 C1179 1.410 . S
C1180 C1181 1.392 . S
C1180 C1183 1.511 . S
C1181 C1177 1.376 . S
C1181 C1180 1.392 . S
C1181 H1193 0.929 . S
C1182 C1178 1.531 . S
C1182 H1194 0.960 . S
C1182 H1195 0.962 . S
C1182 H1196 0.960 . S
C1183 C1180 1.511 . S
C1183 H1197 0.961 . S
C1183 H1198 0.961 . S
C1183 H1199 0.961 . S
C1184 C1185 1.370 . S
C1184 C1186 1.363 . S
C1184 H1200 0.931 . S
C1185 C1184 1.370 . S
C1185 C1189 1.408 . S
C1186 C1184 1.363 . S
C1186 C1187 1.370 . S
C1186 C1190 1.524 . S
C1187 C1179 1.503 . S
C1187 C1186 1.370 . S
C1187 C1188 1.403 . S
C1188 C1187 1.403 . S
C1188 C1189 1.404 . S
C1188 C1191 1.539 . S
C1189 C1185 1.408 . S
C1189 C1188 1.404 . S
C1189 H1201 0.930 . S
C1190 C1186 1.524 . S
C1190 H1202 0.956 . S
C1190 H1203 0.961 . S
C1190 H1204 0.961 . S
C1191 C1188 1.539 . S
C1191 H1205 0.958 . S
C1191 H1206 0.961 . S
C1191 H1207 0.960 . S
H1192 C1176 0.931 . S
H1193 C1181 0.929 . S
H1194 C1182 0.960 . S
H1195 C1182 0.962 . S
H1196 C1182 0.960 . S
H1197 C1183 0.961 . S
H1198 C1183 0.961 . S
H1199 C1183 0.961 . S
H1200 C1184 0.931 . S
H1201 C1189 0.930 . S
H1202 C1190 0.956 . S
H1203 C1190 0.961 . S
H1204 C1190 0.961 . S
H1205 C1191 0.958 . S
H1206 C1191 0.961 . S
H1207 C1191 0.960 . S
C1208 C1209 1.391 . S
C1208 C1210 1.394 . S
C1208 H1224 0.931 . S
C1209 C1208 1.391 . S
C1209 C1213 1.376 . S
C1210 C1208 1.394 . S
C1210 C1211 1.369 . S
C1210 C1214 1.531 . S
C1211 C1210 1.369 . S
C1211 C1212 1.410 . S
C1211 C1219 1.503 . S
C1212 C1211 1.410 . S
C1212 C1213 1.392 . S
C1212 C1215 1.511 . S
C1213 C1209 1.376 . S
C1213 C1212 1.392 . S
C1213 H1225 0.929 . S
C1214 C1210 1.531 . S
C1214 H1226 0.960 . S
C1214 H1227 0.962 . S
C1214 H1228 0.960 . S
C1215 C1212 1.511 . S
C1215 H1229 0.961 . S
C1215 H1230 0.961 . S
C1215 H1231 0.961 . S
C1216 C1217 1.370 . S
C1216 C1218 1.363 . S
C1216 H1232 0.931 . S
C1217 C1216 1.370 . S
C1217 C1221 1.408 . S
C1218 C1216 1.363 . S
C1218 C1219 1.370 . S
C1218 C1222 1.524 . S
C1219 C1211 1.503 . S
C1219 C1218 1.370 . S
C1219 C1220 1.403 . S
C1220 C1219 1.403 . S
C1220 C1221 1.404 . S
C1220 C1223 1.539 . S
C1221 C1217 1.408 . S
C1221 C1220 1.404 . S
C1221 H1233 0.930 . S
C1222 C1218 1.524 . S
C1222 H1234 0.956 . S
C1222 H1235 0.961 . S
C1222 H1236 0.961 . S
C1223 C1220 1.539 . S
C1223 H1237 0.958 . S
C1223 H1238 0.961 . S
C1223 H1239 0.960 . S
H1224 C1208 0.931 . S
H1225 C1213 0.929 . S
H1226 C1214 0.960 . S
H1227 C1214 0.962 . S
H1228 C1214 0.960 . S
H1229 C1215 0.961 . S
H1230 C1215 0.961 . S
H1231 C1215 0.961 . S
H1232 C1216 0.931 . S
H1233 C1221 0.930 . S
H1234 C1222 0.956 . S
H1235 C1222 0.961 . S
H1236 C1222 0.961 . S
H1237 C1223 0.958 . S
H1238 C1223 0.961 . S
H1239 C1223 0.960 . S
C473 C255 2.030 . S
C481 C314 2.134 . S
C513 C354 2.162 . S
C505 C294 2.075 . S
C545 C418 2.523 . S
C537 C177 2.383 . S
C577 C434 2.181 . S
C569 C216 1.950 . S
C609 C335 2.141 1_565 S
C601 C99 2.026 . S
C633 C138 2.053 . S
C641 C375 2.161 . S
C665 C21 2.447 . S
C673 C409 2.507 1_554 S
C697 C60 1.952 . S
C705 C455 2.190 1_655 S
C737 C329 0.368 . S
C729 C196 0.354 . S
C769 C369 0.583 . S
C761 C235 0.528 . S
C801 C405 0.570 . S
C793 C289 0.423 . S
C825 C157 0.679 . S
C833 C449 0.666 . S
C857 C40 0.200 . S
C865 C338 0.446 . S
C897 C378 0.584 . S
C889 C79 0.501 1_545 S
C929 C416 0.484 . S
C921 C133 0.611 . S
C953 C1 0.720 . S
C961 C458 0.619 1_554 S
C985 C211 2.567 . S
C993 C336 2.935 . S
C1017 C250 2.438 1_565 S
C1025 C376 2.715 . S
C1057 C394 1.976 . S
C1049 C274 1.880 . S
C1089 C456 3.341 . S
C1081 C172 2.948 . S
C1113 C55 2.624 . S
C1121 C325 2.942 . S
C1153 C365 2.725 . S
C1145 C94 2.399 1_565 S
C1185 C415 1.969 . S
C1177 C118 1.907 . S
C1209 C16 2.968 . S
C1217 C445 3.341 . S
