# Generated by pormake.
# Topology pyr, (3,6)-cn, num edge types: 1
# Building blocks:
#     Node 0, Type 0, BuildingBlock: BETDAH_clean_linker_0, # of connection points: 3
#     Node 1, Type 0, BuildingBlock: BETDAH_clean_linker_0, # of connection points: 3
#     Node 2, Type 0, BuildingBlock: BETDAH_clean_linker_0, # of connection points: 3
#     Node 3, Type 0, BuildingBlock: BETDAH_clean_linker_0, # of connection points: 3
#     Node 4, Type 0, BuildingBlock: BETDAH_clean_linker_0, # of connection points: 3
#     Node 5, Type 0, BuildingBlock: BETDAH_clean_linker_0, # of connection points: 3
#     Node 6, Type 0, BuildingBlock: BETDAH_clean_linker_0, # of connection points: 3
#     Node 7, Type 0, BuildingBlock: BETDAH_clean_linker_0, # of connection points: 3
#     Node 8, Type 1, BuildingBlock: BETFEN_clean_sbu_0, # of connection points: 6
#     Node 9, Type 1, BuildingBlock: BETFEN_clean_sbu_0, # of connection points: 6
#     Node 10, Type 1, BuildingBlock: BETFEN_clean_sbu_0, # of connection points: 6
#     Node 11, Type 1, BuildingBlock: BETFEN_clean_sbu_0, # of connection points: 6
#     Edge 12, Type (0, 1), BuildingBlock: OJICUG_clean_linker_0, # of connection points: 2
#     Edge 13, Type (0, 1), BuildingBlock: OJICUG_clean_linker_0, # of connection points: 2
#     Edge 14, Type (0, 1), BuildingBlock: OJICUG_clean_linker_0, # of connection points: 2
#     Edge 15, Type (0, 1), BuildingBlock: OJICUG_clean_linker_0, # of connection points: 2
#     Edge 16, Type (0, 1), BuildingBlock: OJICUG_clean_linker_0, # of connection points: 2
#     Edge 17, Type (0, 1), BuildingBlock: OJICUG_clean_linker_0, # of connection points: 2
#     Edge 18, Type (0, 1), BuildingBlock: OJICUG_clean_linker_0, # of connection points: 2
#     Edge 19, Type (0, 1), BuildingBlock: OJICUG_clean_linker_0, # of connection points: 2
#     Edge 20, Type (0, 1), BuildingBlock: OJICUG_clean_linker_0, # of connection points: 2
#     Edge 21, Type (0, 1), BuildingBlock: OJICUG_clean_linker_0, # of connection points: 2
#     Edge 22, Type (0, 1), BuildingBlock: OJICUG_clean_linker_0, # of connection points: 2
#     Edge 23, Type (0, 1), BuildingBlock: OJICUG_clean_linker_0, # of connection points: 2
#     Edge 24, Type (0, 1), BuildingBlock: OJICUG_clean_linker_0, # of connection points: 2
#     Edge 25, Type (0, 1), BuildingBlock: OJICUG_clean_linker_0, # of connection points: 2
#     Edge 26, Type (0, 1), BuildingBlock: OJICUG_clean_linker_0, # of connection points: 2
#     Edge 27, Type (0, 1), BuildingBlock: OJICUG_clean_linker_0, # of connection points: 2
#     Edge 28, Type (0, 1), BuildingBlock: OJICUG_clean_linker_0, # of connection points: 2
#     Edge 29, Type (0, 1), BuildingBlock: OJICUG_clean_linker_0, # of connection points: 2
#     Edge 30, Type (0, 1), BuildingBlock: OJICUG_clean_linker_0, # of connection points: 2
#     Edge 31, Type (0, 1), BuildingBlock: OJICUG_clean_linker_0, # of connection points: 2
#     Edge 32, Type (0, 1), BuildingBlock: OJICUG_clean_linker_0, # of connection points: 2
#     Edge 33, Type (0, 1), BuildingBlock: OJICUG_clean_linker_0, # of connection points: 2
#     Edge 34, Type (0, 1), BuildingBlock: OJICUG_clean_linker_0, # of connection points: 2
#     Edge 35, Type (0, 1), BuildingBlock: OJICUG_clean_linker_0, # of connection points: 2
# Relax obj value: 0.226
# Max RMSD: 0.329
# Mean RMSD: 0.148
data_MOF--net-pyr--node1-BETFEN_clean_sbu_0--node2-BETDAH_clean_linker_0--edge1-OJICUG_clean_linker_0
_symmetry_space_group_name_H-M    P1
_symmetry_Int_Tables_number       1
_symmetry_cell_setting            triclinic
loop_
_symmetry_equiv_pos_as_xyz
'x, y, z'
_cell_length_a     26.706638
_cell_length_b     30.370468
_cell_length_c     27.197174
_cell_angle_alpha  92.822518
_cell_angle_beta   101.41311
_cell_angle_gamma 118.99747
loop_
_atom_site_label
_atom_site_type_symbol
_atom_site_fract_x
_atom_site_fract_y
_atom_site_fract_z
_atom_type_partial_charge
H0 H 0.41499 0.32867 0.36256 0.0
H1 H 0.55571 0.45204 0.3161 0.0
H2 H 0.43429 0.47772 0.37927 0.0
C3 C 0.43922 0.36877 0.35937 0.0
C4 C 0.41915 0.40107 0.37359 0.0
C5 C 0.48837 0.38681 0.33895 0.0
C6 C 0.51917 0.43834 0.33395 0.0
C7 C 0.49975 0.47127 0.34801 0.0
C8 C 0.44976 0.45259 0.36838 0.0
N9 N 0.52558 0.52077 0.33499 0.0
C10 C 0.4881 0.53643 0.31006 0.0
H11 H 0.3599 0.82331 0.81797 0.0
H12 H 0.21779 0.85572 0.78531 0.0
H13 H 0.25163 0.78425 0.66549 0.0
C14 C 0.32266 0.82156 0.79137 0.0
C15 C 0.30963 0.80119 0.74013 0.0
C16 C 0.28954 0.84079 0.80842 0.0
C17 C 0.24337 0.84062 0.77284 0.0
C18 C 0.22969 0.82025 0.72118 0.0
C19 C 0.26198 0.79951 0.70536 0.0
N20 N 0.18428 0.82065 0.68416 0.0
C21 C 0.16454 0.85503 0.6895 0.0
H22 H 0.68677 0.33177 0.99685 0.0
H23 H 0.68921 0.41144 0.87013 0.0
H24 H 0.54546 0.25824 0.86123 0.0
C25 C 0.6655 0.33359 0.95927 0.0
C26 C 0.61208 0.29079 0.9327 0.0
C27 C 0.69369 0.37723 0.93745 0.0
C28 C 0.66736 0.37809 0.88751 0.0
C29 C 0.61351 0.33511 0.85984 0.0
C30 C 0.58662 0.29138 0.8825 0.0
N31 N 0.58582 0.3337 0.80891 0.0
C32 C 0.59949 0.37564 0.78396 0.0
H33 H 0.86516 0.76321 0.47468 0.0
H34 H 0.96474 0.75834 0.36961 0.0
H35 H 0.84343 0.61989 0.41417 0.0
C36 C 0.87596 0.74134 0.45057 0.0
C37 C 0.84858 0.68823 0.44835 0.0
C38 C 0.9183 0.76737 0.42318 0.0
C39 C 0.932 0.73888 0.39067 0.0
C40 C 0.90326 0.68501 0.38643 0.0
C41 C 0.86302 0.66081 0.41611 0.0
N42 N 0.91407 0.65259 0.35541 0.0
C43 C 0.94349 0.66189 0.31641 0.0
H44 H 0.71686 0.66717 0.83148 0.0
H45 H 0.55522 0.58068 0.87706 0.0
H46 H 0.56886 0.68652 0.77403 0.0
C47 C 0.67138 0.65708 0.82897 0.0
C48 C 0.64705 0.68173 0.79971 0.0
C49 C 0.63849 0.62062 0.85657 0.0
C50 C 0.58018 0.60806 0.8548 0.0
C51 C 0.5553 0.63295 0.82592 0.0
C52 C 0.58876 0.66911 0.79805 0.0
N53 N 0.49805 0.62347 0.82714 0.0
C54 C 0.48561 0.66294 0.826 0.0
H55 H 0.8346 0.15076 0.33381 0.0
H56 H 0.92209 0.25554 0.47606 0.0
H57 H 0.79377 0.26841 0.36432 0.0
C58 C 0.84246 0.18382 0.35844 0.0
C59 C 0.81018 0.20822 0.34298 0.0
C60 C 0.88295 0.20047 0.40645 0.0
C61 C 0.89205 0.24289 0.43845 0.0
C62 C 0.8594 0.26695 0.42396 0.0
C63 C 0.81882 0.2497 0.37601 0.0
N64 N 0.86647 0.30693 0.45913 0.0
C65 C 0.82387 0.32118 0.45637 0.0
H66 H 0.37155 0.77785 0.20222 0.0
H67 H 0.38759 0.69201 0.31884 0.0
H68 H 0.53332 0.84204 0.3201 0.0
C69 C 0.39786 0.77531 0.23669 0.0
C70 C 0.45523 0.81585 0.25844 0.0
C71 C 0.37323 0.73119 0.25842 0.0
C72 C 0.40702 0.72611 0.30193 0.0
C73 C 0.46527 0.76633 0.32426 0.0
C74 C 0.48888 0.81097 0.30238 0.0
N75 N 0.50092 0.76438 0.3695 0.0
C76 C 0.48903 0.72118 0.39185 0.0
H77 H 0.20337 0.3224 0.66532 0.0
H78 H 0.27558 0.46725 0.7611 0.0
H79 H 0.13106 0.3327 0.79074 0.0
C80 C 0.20404 0.34545 0.6974 0.0
C81 C 0.16375 0.32113 0.72698 0.0
C82 C 0.24482 0.39826 0.70863 0.0
C83 C 0.24323 0.4269 0.75009 0.0
C84 C 0.20179 0.40436 0.77925 0.0
C85 C 0.16149 0.35101 0.76742 0.0
N86 N 0.20795 0.43672 0.82292 0.0
C87 C 0.16665 0.43267 0.84989 0.0
Pr88 Pr 0.97104 0.00867 0.58064 0.0
Pr89 Pr 0.09396 0.07617 0.57349 0.0
C90 C 0.86309 0.93372 0.58442 0.0
C91 C 0.83374 0.89687 0.61658 0.0
C92 C 0.77564 0.8829 0.61716 0.0
C93 C 0.74677 0.84848 0.6479 0.0
C94 C 0.77561 0.82737 0.67851 0.0
C95 C 0.83385 0.84121 0.67758 0.0
C96 C 0.86284 0.87592 0.64697 0.0
C97 C 0.02952 0.10454 0.64447 0.0
C98 C 0.07936 0.99184 0.64508 0.0
C99 C 0.19747 0.15602 0.56831 0.0
C100 C 0.2166 0.19574 0.53586 0.0
C101 C 0.22815 0.18579 0.48969 0.0
C102 C 0.24762 0.2234 0.45949 0.0
C103 C 0.2563 0.27204 0.4747 0.0
C104 C 0.24384 0.28187 0.52052 0.0
C105 C 0.22421 0.24406 0.55087 0.0
C106 C 0.03785 0.98149 0.50938 0.0
C107 C 0.98493 0.08705 0.50264 0.0
O108 O 0.89753 0.92608 0.56152 0.0
O109 O 0.88428 0.98173 0.60219 0.0
O110 O 0.05179 0.07665 0.63887 0.0
O111 O 0.97514 0.08242 0.61765 0.0
O112 O 0.11751 0.0381 0.63926 0.0
O113 O 0.02218 0.97117 0.62389 0.0
O114 O 0.16684 0.15873 0.5991 0.0
O115 O 0.17801 0.10922 0.54705 0.0
O116 O 1.01363 0.00788 0.51518 0.0
O117 O 0.0928 0.005 0.53517 0.0
O118 O 0.94846 0.04056 0.50894 0.0
O119 O 0.0412 0.11097 0.52759 0.0
H120 H 0.75257 0.89871 0.59383 0.0
H121 H 0.70166 0.83799 0.64732 0.0
H122 H 0.85727 0.82583 0.70112 0.0
H123 H 0.90793 0.88655 0.64721 0.0
H124 H 0.22331 0.1492 0.47719 0.0
H125 H 0.25848 0.21491 0.42525 0.0
H126 H 0.25037 0.31905 0.53337 0.0
H127 H 0.21584 0.25293 0.58639 0.0
Pr128 Pr 0.48064 0.04887 0.10277 0.0
Pr129 Pr 0.55743 0.02951 0.05636 0.0
C130 C 0.40985 0.06213 0.15123 0.0
C131 C 0.4218 0.11097 0.17735 0.0
C132 C 0.45357 0.15587 0.15826 0.0
C133 C 0.47363 0.20342 0.18617 0.0
C134 C 0.46107 0.20729 0.23339 0.0
C135 C 0.42786 0.16212 0.25198 0.0
C136 C 0.40889 0.11432 0.22435 0.0
C137 C 0.54137 0.12719 0.05037 0.0
C138 C 0.62104 0.10917 0.16003 0.0
C139 C 0.60338 0.00589 0.98735 0.0
C140 C 0.57924 0.95569 0.95628 0.0
C141 C 0.54977 0.91121 0.97675 0.0
C142 C 0.52398 0.86325 0.94714 0.0
C143 C 0.52631 0.85857 0.89609 0.0
C144 C 0.55398 0.90326 0.87507 0.0
C145 C 0.58034 0.95148 0.90503 0.0
C146 C 0.53117 0.9756 0.13661 0.0
C147 C 0.41535 0.95761 1.005 0.0
O148 O 0.44529 0.0463 0.1724 0.0
O149 O 0.40111 0.05757 0.10174 0.0
O150 O 0.51716 0.08016 1.03367 0.0
O151 O 0.53729 0.13473 0.09621 0.0
O152 O 0.62916 0.10281 0.11456 0.0
O153 O 0.56764 0.08437 0.16759 0.0
O154 O 0.57131 0.02735 0.97692 0.0
O155 O 0.62295 0.00939 1.03622 0.0
O156 O 0.49365 0.97957 0.1034 0.0
O157 O 0.5835 0.99872 0.12831 0.0
O158 O 0.4086 0.9906 1.03175 0.0
O159 O 0.46665 0.95983 1.01263 0.0
H160 H 0.46413 0.15447 0.12206 0.0
H161 H 0.49967 0.23713 0.17084 0.0
H162 H 0.41618 0.16354 0.2877 0.0
H163 H 0.385 0.08013 0.23996 0.0
H164 H 0.54685 0.91345 1.01589 0.0
H165 H 0.50401 0.82991 0.96498 0.0
H166 H 0.55577 0.90098 0.83565 0.0
H167 H 0.60139 0.98541 0.8882 0.0
Pr168 Pr 0.57083 0.5932 0.61612 0.0
Pr169 Pr 0.5265 0.49584 0.54169 0.0
C170 C 0.57937 0.67829 0.66133 0.0
C171 C 0.53884 0.69558 0.67101 0.0
C172 C 0.55456 0.74663 0.66983 0.0
C173 C 0.51652 0.76381 0.67831 0.0
C174 C 0.4619 0.73021 0.68828 0.0
C175 C 0.44622 0.67886 0.68922 0.0
C176 C 0.48423 0.66167 0.68045 0.0
C177 C 0.59735 0.52305 0.65956 0.0
C178 C 0.43297 0.49366 0.6033 0.0
C179 C 0.51777 0.41361 0.48923 0.0
C180 C 0.55922 0.39782 0.47794 0.0
C181 C 0.60288 0.42726 0.45306 0.0
C182 C 0.64415 0.4136 0.44559 0.0
C183 C 0.64256 0.3701 0.46264 0.0
C184 C 0.59772 0.3398 0.48609 0.0
C185 C 0.55651 0.35357 0.49368 0.0
C186 C 0.5011 0.56802 0.50136 0.0
C187 C 0.66556 0.59205 0.55744 0.0
O188 O 0.58051 0.67144 0.61389 0.0
O189 O 0.58124 0.64294 0.68587 0.0
O190 O 0.54972 0.51282 0.62866 0.0
O191 O 0.63366 0.57233 0.6713 0.0
O192 O 0.44668 0.46445 0.57827 0.0
O193 O 0.46836 0.54398 0.61395 0.0
O194 O 0.51384 0.416 0.53634 0.0
O195 O 0.51755 0.45144 0.46854 0.0
O196 O 0.54908 0.57648 0.52981 0.0
O197 O 0.4626 0.51934 0.49106 0.0
O198 O 0.65351 0.62247 0.58269 0.0
O199 O 0.62862 0.54219 0.54625 0.0
H200 H 0.59627 0.77323 0.66213 0.0
H201 H 0.52976 0.80339 0.67659 0.0
H202 H 0.40509 0.65214 0.6977 0.0
H203 H 0.47126 0.62207 0.68164 0.0
H204 H 0.60568 0.46121 0.43984 0.0
H205 H 0.67753 0.43727 0.42667 0.0
H206 H 0.59553 0.30625 0.49996 0.0
H207 H 0.5231 0.33011 0.5127 0.0
Pr208 Pr 0.04233 0.58321 0.0452 0.0
Pr209 Pr 0.04476 0.50788 0.10946 0.0
C210 C 1.00729 0.6277 0.97476 0.0
C211 C 0.95023 0.62583 0.96362 0.0
C212 C 0.91875 0.61706 0.91309 0.0
C213 C 0.86029 0.60641 0.90207 0.0
C214 C 0.83233 0.60408 0.94148 0.0
C215 C 0.86428 0.61354 0.99211 0.0
C216 C 0.92265 0.62416 1.00307 0.0
C217 C 0.147 0.6231 0.12136 0.0
C218 C 1.01334 0.59004 0.15524 0.0
C219 C 0.07618 0.45301 0.16864 0.0
C220 C 0.134 0.45676 0.18198 0.0
C221 C 0.15287 0.44456 0.2283 0.0
C222 C 0.21241 0.45946 0.24664 0.0
C223 C 0.25384 0.48724 0.21905 0.0
C224 C 0.23407 0.49714 0.17145 0.0
C225 C 0.1746 0.48209 0.15311 0.0
C226 C 0.93069 0.4832 0.05737 0.0
C227 C 0.08528 0.50719 1.00004 0.0
O228 O 1.00315 0.58359 0.96367 0.0
O229 O 0.04368 0.65335 1.01899 0.0
O230 O 0.12138 0.57975 0.09403 0.0
O231 O 0.12105 0.64882 0.10759 0.0
O232 O 0.04622 0.56898 0.16766 0.0
O233 O 0.99328 0.58961 0.10662 0.0
O234 O 0.07724 0.49415 0.18684 0.0
O235 O 0.04615 0.43506 0.121 0.0
O236 O 0.97498 0.49926 1.03958 0.0
O237 O 0.94299 0.47569 0.10366 0.0
O238 O 0.08152 0.54867 0.99483 0.0
O239 O 0.07292 0.48417 1.03972 0.0
H240 H 0.93889 0.61719 0.88216 0.0
H241 H 0.83714 0.60043 0.86267 0.0
H242 H 0.84389 0.612 1.02317 0.0
H243 H 0.94566 0.62977 1.0424 0.0
H244 H 0.12221 0.42574 0.25134 0.0
H245 H 0.22631 0.45039 0.28302 0.0
H246 H 0.26496 0.51875 0.14956 0.0
H247 H 0.161 0.49287 0.11773 0.0
C248 C 0.31479 0.33548 0.36744 0.0
C249 C 0.36705 0.37933 0.395 0.0
H250 H 0.23661 0.26729 0.3712 0.0
C251 C 0.37411 0.39354 0.44678 0.0
H252 H 0.30817 0.32393 0.32725 0.0
C253 C 0.33399 0.36084 0.47226 0.0
C254 C 0.28592 0.31349 0.44598 0.0
H255 H 0.41377 0.42676 0.46891 0.0
H256 H 0.34432 0.37031 0.51326 0.0
C257 C 0.27425 0.30291 0.3927 0.0
C258 C 0.33009 0.84442 0.90082 0.0
C259 C 0.30725 0.86439 0.86275 0.0
H260 H 0.38308 0.85905 0.97646 0.0
C261 C 0.30945 0.91075 0.87624 0.0
H262 H 0.32741 0.80802 0.89224 0.0
C263 C 0.33935 0.93896 0.92535 0.0
C264 C 0.36823 0.92157 0.9611 0.0
H265 H 0.29247 0.92734 0.84798 0.0
H266 H 0.34475 0.9765 0.93366 0.0
C267 C 0.36128 0.87321 0.94925 0.0
C268 C 0.5531 0.39947 0.71124 0.0
C269 C 0.60213 0.41293 0.75169 0.0
H270 H 0.51369 0.42338 0.65013 0.0
C271 C 0.65179 0.46218 0.76038 0.0
H272 H 0.51446 0.36152 0.70365 0.0
C273 C 0.65138 0.49823 0.7299 0.0
C274 C 0.60146 0.48506 0.68999 0.0
H275 H 0.6904 0.47289 0.79098 0.0
H276 H 0.68953 0.53644 0.73806 0.0
C277 C 0.55282 0.43497 0.68058 0.0
C278 C 0.94024 0.64753 0.22402 0.0
C279 C 0.96725 0.65234 0.2755 0.0
H280 H 0.9336 0.62458 0.14566 0.0
C281 C 1.01106 0.63875 0.28688 0.0
H282 H 0.90535 0.65659 0.21405 0.0
C283 C 0.02663 0.61966 0.24793 0.0
C284 C 0.99875 0.61346 0.19626 0.0
H285 H 0.03181 0.641 0.32615 0.0
H286 H 0.05983 0.60873 0.25851 0.0
C287 C 0.95612 0.62871 0.18484 0.0
C288 C 0.50408 0.31252 0.34137 0.0
C289 C 0.49883 0.34891 0.31442 0.0
H290 H 0.4982 0.23965 0.33697 0.0
C291 C 0.48909 0.3417 0.26142 0.0
H292 H 0.51106 0.31728 0.3823 0.0
C293 C 0.47923 0.29653 0.23523 0.0
C294 C 0.48007 0.25812 0.26174 0.0
H295 H 0.4837 0.36888 0.23986 0.0
H296 H 0.467 0.29052 0.19405 0.0
C297 C 0.49543 0.26769 0.31527 0.0
C298 C 0.08286 0.8732 0.67675 0.0
C299 C 0.14368 0.89094 0.68823 0.0
H300 H 1.01456 0.89158 0.65531 0.0
C301 C 0.18364 0.94319 0.69243 0.0
H302 H 0.05135 0.83286 0.67318 0.0
C303 C 0.16284 0.97703 0.68223 0.0
C304 C 0.10163 0.95898 0.66739 0.0
H305 H 0.23084 0.95748 0.70113 0.0
H306 H 0.19471 0.01675 0.6832 0.0
C307 C 0.06194 0.90694 0.66659 0.0
C308 C 0.76627 0.43096 1.01937 0.0
C309 C 0.75376 0.41808 0.96614 0.0
H310 H 0.83247 0.46053 0.0903 0.0
C311 C 0.80097 0.43549 0.94292 0.0
H312 H 0.73069 0.41912 1.03821 0.0
C313 C 0.85925 0.45996 0.97283 0.0
C314 C 0.87089 0.4666 1.02624 0.0
H315 H 0.79285 0.42631 0.9021 0.0
H316 H 0.89476 0.47026 0.95416 0.0
C317 C 0.82433 0.45432 0.04924 0.0
C318 C 0.75664 0.61175 0.46121 0.0
C319 C 0.80468 0.66179 0.47931 0.0
H320 H 0.67647 0.55059 0.47203 0.0
C321 C 0.80891 0.68692 0.52644 0.0
H322 H 0.75059 0.59102 0.42497 0.0
C323 C 0.76496 0.66392 0.5529 0.0
C324 C 0.71652 0.6145 0.53389 0.0
H325 H 0.84586 0.72477 0.54294 0.0
H326 H 0.76857 0.68509 0.58793 0.0
C327 C 0.71369 0.58835 0.48833 0.0
C328 C 0.4016 0.54225 0.31451 0.0
C329 C 0.43566 0.53632 0.28487 0.0
H330 H 0.31729 0.53223 0.31684 0.0
C331 C 0.41184 0.51817 0.23255 0.0
H332 H 0.419 0.5543 0.35512 0.0
C333 C 0.35309 0.50388 0.21048 0.0
C334 C 0.31765 0.50724 0.24078 0.0
H335 H 0.43732 0.51201 0.20944 0.0
H336 H 0.33456 0.48763 0.17041 0.0
C337 C 0.34313 0.52828 0.2927 0.0
C338 C 0.582 0.25458 1.00915 0.0
C339 C 0.58541 0.24622 0.95894 0.0
H340 H 0.56659 0.2241 0.07723 0.0
C341 C 0.57113 0.19715 0.93764 0.0
H342 H 0.59243 0.29192 1.02649 0.0
C343 C 0.55623 0.15789 0.967 0.0
C344 C 0.55555 0.16728 1.018 0.0
H345 H 0.57403 0.18982 0.89922 0.0
H346 H 0.54659 0.12065 0.95024 0.0
C347 C 0.56759 0.21578 1.03835 0.0
C348 C 0.91817 0.85027 0.43457 0.0
C349 C 0.95015 0.82455 0.43356 0.0
H350 H 0.92039 0.91978 0.45904 0.0
C351 C 1.01191 0.85277 0.45257 0.0
H352 H 0.87044 0.82959 0.42034 0.0
C353 C 0.04038 0.90432 0.47522 0.0
C354 C 1.0079 0.92907 0.47914 0.0
H355 H 0.03776 0.83411 0.45315 0.0
H356 H 0.08774 0.9242 0.49166 0.0
C357 C 0.94667 0.90189 0.457 0.0
C358 C 0.32355 0.73614 0.69296 0.0
C359 C 0.34795 0.78389 0.7236 0.0
H360 H 0.34029 0.68162 0.65766 0.0
C361 C 0.40984 0.81452 0.74072 0.0
H362 H 0.27601 0.71171 0.67937 0.0
C363 C 0.44652 0.79746 0.72843 0.0
C364 C 0.42237 0.74905 0.69909 0.0
H365 H 0.43002 0.85176 0.76401 0.0
H366 H 0.4939 0.8219 0.74301 0.0
C367 C 0.36039 0.71876 0.68105 0.0
C368 C 0.71659 0.71108 0.74298 0.0
C369 C 0.68247 0.72032 0.77076 0.0
H370 H 0.77196 0.73732 0.69134 0.0
C371 C 0.68095 0.76581 0.76934 0.0
H372 H 0.71793 0.67599 0.74275 0.0
C373 C 0.71169 0.80078 0.73981 0.0
C374 C 0.7448 0.79106 0.71124 0.0
H375 H 0.65604 0.77442 0.79108 0.0
H376 H 0.70964 0.83552 0.7394 0.0
C377 C 0.74739 0.74609 0.71346 0.0
C378 C 0.70731 0.17982 0.29336 0.0
C379 C 0.7638 0.18761 0.29429 0.0
H380 H 0.61818 0.14935 0.24997 0.0
C381 C 0.7744 0.17318 0.24924 0.0
H382 H 0.69765 0.19014 0.32755 0.0
C383 C 0.72875 0.14996 0.20447 0.0
C384 C 0.67165 0.14018 0.20435 0.0
H385 H 0.81774 0.17917 0.24887 0.0
H386 H 0.73755 0.1378 0.17066 0.0
C387 C 0.66171 0.15621 0.24896 0.0
C388 C 0.54455 0.68961 0.44658 0.0
C389 C 0.4898 0.68227 0.42011 0.0
H390 H 0.59079 0.65943 0.49317 0.0
C391 C 0.43765 0.63789 0.42189 0.0
H392 H 0.58527 0.72384 0.44604 0.0
C393 C 0.44067 0.60056 0.449 0.0
C394 C 0.49584 0.60743 0.4745 0.0
H395 H 0.39488 0.63173 0.40182 0.0
H396 H 0.40012 0.56613 0.44933 0.0
C397 C 0.54759 0.65276 0.47366 0.0
C398 C 0.12845 0.48697 0.87803 0.0
C399 C 0.13886 0.44624 0.8847 0.0
H400 H 0.10392 0.53814 0.90858 0.0
C401 C 0.13057 0.42489 0.92916 0.0
H402 H 0.13563 0.50494 0.84467 0.0
C403 C 0.11264 0.44413 0.96627 0.0
C404 C 0.10325 0.48571 0.96017 0.0
H405 H 0.13947 0.3942 0.93592 0.0
H406 H 0.10728 0.427 1.00025 0.0
C407 C 0.11086 0.50638 0.9151 0.0
C408 C 0.44725 0.71481 0.85788 0.0
C409 C 0.48518 0.71012 0.83193 0.0
H410 H 0.42872 0.76615 0.89678 0.0
C411 C 0.53005 0.75375 0.81986 0.0
H412 H 0.41224 0.68143 0.86749 0.0
C413 C 0.54079 0.80204 0.83775 0.0
C414 C 0.50608 0.80753 0.86742 0.0
H415 H 0.55953 0.75129 0.79945 0.0
H416 H 0.57887 0.83502 0.83115 0.0
C417 C 0.45719 0.76327 0.87505 0.0
C418 C 0.87738 0.11735 0.42024 0.0
C419 C 0.91138 0.1708 0.42536 0.0
H420 H 0.87393 0.04887 0.44037 0.0
C421 C 0.97132 0.19577 0.45206 0.0
H422 H 0.8309 0.09706 0.4003 0.0
C423 C 0.9961 0.16812 0.47488 0.0
C424 C 0.96125 0.11496 0.47197 0.0
H425 H 0.99871 0.23686 0.45624 0.0
H426 H 0.04195 0.18879 0.49655 0.0
C427 C 0.90198 0.08975 0.44342 0.0
C428 C 0.26859 0.708 0.23669 0.0
C429 C 0.31061 0.69317 0.23533 0.0
H430 H 0.18383 0.69745 0.2009 0.0
C431 C 0.29528 0.65015 0.20067 0.0
H432 H 0.27996 0.74152 0.26275 0.0
C433 C 0.24012 0.62492 0.16499 0.0
C434 C 0.20056 0.64314 0.16337 0.0
H435 H 0.32756 0.63877 0.19844 0.0
H436 H 0.23029 0.59373 0.1365 0.0
C437 C 0.21414 0.68338 0.20082 0.0
C438 C 0.31401 0.47416 0.6723 0.0
C439 C 0.29066 0.42259 0.67873 0.0
H440 H 0.37654 0.537 0.64343 0.0
C441 C 0.31264 0.39451 0.65705 0.0
H442 H 0.29789 0.49715 0.68725 0.0
C443 C 0.35644 0.41707 0.63058 0.0
C444 C 0.38097 0.46886 0.62567 0.0
H445 H 0.29763 0.35525 0.66174 0.0
H446 H 0.37277 0.39415 0.61574 0.0
C447 C 0.35886 0.49706 0.64656 0.0
C448 C 0.67792 0.56251 0.86661 0.0
C449 C 0.66939 0.59988 0.88937 0.0
H450 H 0.73711 0.53394 0.86648 0.0
C451 C 0.70774 0.63023 0.93605 0.0
H452 H 0.64893 0.53921 0.83031 0.0
C453 C 0.75871 0.62818 0.95604 0.0
C454 C 0.77154 0.59563 0.92944 0.0
H455 H 0.70226 0.65991 0.9536 0.0
H456 H 0.79078 0.65577 0.9892 0.0
C457 C 0.72875 0.56027 0.88669 0.0
C458 C 0.53604 0.88537 0.2266 0.0
C459 C 0.47859 0.86221 0.23387 0.0
H460 H 0.59788 0.9397 0.19009 0.0
C461 C 0.44099 0.88049 0.21286 0.0
H462 H 0.56602 0.87218 0.24206 0.0
C463 C 0.45871 0.91825 0.18236 0.0
C464 C 0.51483 0.93934 0.17284 0.0
H465 H 0.39696 0.86447 0.21878 0.0
H466 H 0.42796 0.93018 0.16536 0.0
C467 C 0.55408 0.92376 0.19651 0.0
C468 C 0.06566 0.23902 0.69502 0.0
C469 C 0.12721 0.26408 0.71519 0.0
H470 H 0.98668 0.16908 0.65661 0.0
C471 C 0.15549 0.23508 0.71586 0.0
H472 H 0.04279 0.26041 0.69316 0.0
C473 C 0.12354 0.18282 0.69515 0.0
C474 C 0.06252 0.1583 0.67237 0.0
H475 H 0.20303 0.25345 0.73071 0.0
H476 H 0.14708 0.16213 0.69524 0.0
C477 C 0.03372 0.18677 0.6737 0.0
C478 C 0.79315 0.38455 0.46859 0.0
C479 C 0.77816 0.33381 0.45506 0.0
H480 H 0.7618 0.43584 0.48182 0.0
C481 C 0.7186 0.29505 0.44209 0.0
H482 H 0.83907 0.41489 0.47889 0.0
C483 C 0.67429 0.30683 0.44363 0.0
C484 C 0.68902 0.35764 0.45806 0.0
H485 H 0.70639 0.25561 0.43141 0.0
H486 H 0.62855 0.2762 0.43366 0.0
C487 C 0.74893 0.39644 0.46998 0.0
loop_
_geom_bond_atom_site_label_1
_geom_bond_atom_site_label_2
_geom_bond_distance
_geom_bond_site_symmetry_2
_ccdc_geom_bond_type
H0 C3 0.929 . S
H1 C6 0.929 . S
H2 C8 0.930 . S
C3 H0 0.929 . S
C3 C4 1.398 . S
C3 C5 1.396 . S
C4 C3 1.398 . S
C4 C8 1.407 . S
C5 C3 1.396 . S
C5 C6 1.394 . S
C6 H1 0.929 . S
C6 C5 1.394 . S
C6 C7 1.382 . S
C7 C6 1.382 . S
C7 C8 1.392 . S
C7 N9 1.420 . S
C8 H2 0.930 . S
C8 C4 1.407 . S
C8 C7 1.392 . S
N9 C7 1.420 . S
N9 C10 1.244 . S
C10 N9 1.244 . S
H11 C14 0.929 . S
H12 C17 0.929 . S
H13 C19 0.930 . S
C14 H11 0.929 . S
C14 C15 1.398 . S
C14 C16 1.396 . S
C15 C14 1.398 . S
C15 C19 1.407 . S
C16 C14 1.396 . S
C16 C17 1.394 . S
C17 H12 0.929 . S
C17 C16 1.394 . S
C17 C18 1.382 . S
C18 C17 1.382 . S
C18 C19 1.392 . S
C18 N20 1.420 . S
C19 H13 0.930 . S
C19 C15 1.407 . S
C19 C18 1.392 . S
N20 C18 1.420 . S
N20 C21 1.244 . S
C21 N20 1.244 . S
H22 C25 0.929 . S
H23 C28 0.929 . S
H24 C30 0.930 . S
C25 H22 0.929 . S
C25 C26 1.398 . S
C25 C27 1.396 . S
C26 C25 1.398 . S
C26 C30 1.407 . S
C27 C25 1.396 . S
C27 C28 1.394 . S
C28 H23 0.929 . S
C28 C27 1.394 . S
C28 C29 1.382 . S
C29 C28 1.382 . S
C29 C30 1.392 . S
C29 N31 1.420 . S
C30 H24 0.930 . S
C30 C26 1.407 . S
C30 C29 1.392 . S
N31 C29 1.420 . S
N31 C32 1.244 . S
C32 N31 1.244 . S
H33 C36 0.929 . S
H34 C39 0.929 . S
H35 C41 0.930 . S
C36 H33 0.929 . S
C36 C37 1.398 . S
C36 C38 1.396 . S
C37 C36 1.398 . S
C37 C41 1.407 . S
C38 C36 1.396 . S
C38 C39 1.394 . S
C39 H34 0.929 . S
C39 C38 1.394 . S
C39 C40 1.382 . S
C40 C39 1.382 . S
C40 C41 1.392 . S
C40 N42 1.420 . S
C41 H35 0.930 . S
C41 C37 1.407 . S
C41 C40 1.392 . S
N42 C40 1.420 . S
N42 C43 1.244 . S
C43 N42 1.244 . S
H44 C47 0.929 . S
H45 C50 0.929 . S
H46 C52 0.930 . S
C47 H44 0.929 . S
C47 C48 1.398 . S
C47 C49 1.396 . S
C48 C47 1.398 . S
C48 C52 1.407 . S
C49 C47 1.396 . S
C49 C50 1.394 . S
C50 H45 0.929 . S
C50 C49 1.394 . S
C50 C51 1.382 . S
C51 C50 1.382 . S
C51 C52 1.392 . S
C51 N53 1.420 . S
C52 H46 0.930 . S
C52 C48 1.407 . S
C52 C51 1.392 . S
N53 C51 1.420 . S
N53 C54 1.244 . S
C54 N53 1.244 . S
H55 C58 0.929 . S
H56 C61 0.929 . S
H57 C63 0.930 . S
C58 H55 0.929 . S
C58 C59 1.398 . S
C58 C60 1.396 . S
C59 C58 1.398 . S
C59 C63 1.407 . S
C60 C58 1.396 . S
C60 C61 1.394 . S
C61 H56 0.929 . S
C61 C60 1.394 . S
C61 C62 1.382 . S
C62 C61 1.382 . S
C62 C63 1.392 . S
C62 N64 1.420 . S
C63 H57 0.930 . S
C63 C59 1.407 . S
C63 C62 1.392 . S
N64 C62 1.420 . S
N64 C65 1.244 . S
C65 N64 1.244 . S
H66 C69 0.929 . S
H67 C72 0.929 . S
H68 C74 0.930 . S
C69 H66 0.929 . S
C69 C70 1.398 . S
C69 C71 1.396 . S
C70 C69 1.398 . S
C70 C74 1.407 . S
C71 C69 1.396 . S
C71 C72 1.394 . S
C72 H67 0.929 . S
C72 C71 1.394 . S
C72 C73 1.382 . S
C73 C72 1.382 . S
C73 C74 1.392 . S
C73 N75 1.420 . S
C74 H68 0.930 . S
C74 C70 1.407 . S
C74 C73 1.392 . S
N75 C73 1.420 . S
N75 C76 1.244 . S
C76 N75 1.244 . S
H77 C80 0.929 . S
H78 C83 0.929 . S
H79 C85 0.930 . S
C80 H77 0.929 . S
C80 C81 1.398 . S
C80 C82 1.396 . S
C81 C80 1.398 . S
C81 C85 1.407 . S
C82 C80 1.396 . S
C82 C83 1.394 . S
C83 H78 0.929 . S
C83 C82 1.394 . S
C83 C84 1.382 . S
C84 C83 1.382 . S
C84 C85 1.392 . S
C84 N86 1.420 . S
C85 H79 0.930 . S
C85 C81 1.407 . S
C85 C84 1.392 . S
N86 C84 1.420 . S
N86 C87 1.244 . S
C87 N86 1.244 . S
Pr88 C90 2.880 . S
Pr88 O108 2.562 . S
Pr88 O109 2.490 . S
Pr88 O110 2.695 1_665 S
Pr88 O111 2.512 1_665 S
Pr88 O113 2.437 1_655 S
Pr88 O116 2.436 . S
Pr88 O118 2.438 1_565 S
Pr89 C99 2.880 . S
Pr89 O110 2.436 . S
Pr89 O112 2.438 1_545 S
Pr89 O114 2.562 . S
Pr89 O115 2.490 . S
Pr89 O116 2.695 1_445 S
Pr89 O117 2.512 1_545 S
Pr89 O119 2.437 . S
C90 Pr88 2.880 . S
C90 C91 1.491 . S
C90 O108 1.254 . S
C90 O109 1.225 . S
C91 C90 1.491 . S
C91 C92 1.392 . S
C91 C96 1.356 . S
C92 C91 1.392 . S
C92 C93 1.368 . S
C92 H120 0.929 . S
C93 C92 1.368 . S
C93 C94 1.386 . S
C93 H121 0.929 . S
C94 C93 1.386 . S
C94 C95 1.373 . S
C95 C94 1.373 . S
C95 C96 1.409 . S
C95 H122 0.931 . S
C96 C91 1.356 . S
C96 C95 1.409 . S
C96 H123 0.930 . S
C97 O110 1.270 . S
C97 O111 1.248 . S
C98 O112 1.267 . S
C98 O113 1.278 . S
C99 Pr89 2.880 . S
C99 C100 1.491 . S
C99 O114 1.254 . S
C99 O115 1.225 . S
C100 C99 1.491 . S
C100 C101 1.392 . S
C100 C105 1.356 . S
C101 C100 1.392 . S
C101 C102 1.368 . S
C101 H124 0.929 . S
C102 C101 1.368 . S
C102 C103 1.386 . S
C102 H125 0.929 . S
C103 C102 1.386 . S
C103 C104 1.373 . S
C104 C103 1.373 . S
C104 C105 1.409 . S
C104 H126 0.931 . S
C105 C100 1.356 . S
C105 C104 1.409 . S
C105 H127 0.930 . S
C106 O116 1.270 . S
C106 O117 1.248 1_655 S
C107 O118 1.267 . S
C107 O119 1.278 1_655 S
O108 Pr88 2.562 . S
O108 C90 1.254 . S
O109 Pr88 2.490 . S
O109 C90 1.225 . S
O110 Pr88 2.695 1_445 S
O110 Pr89 2.436 . S
O110 C97 1.270 . S
O111 Pr88 2.512 1_445 S
O111 C97 1.248 . S
O112 Pr89 2.438 1_565 S
O112 C98 1.267 . S
O113 Pr88 2.437 1_455 S
O113 C98 1.278 . S
O114 Pr89 2.562 . S
O114 C99 1.254 . S
O115 Pr89 2.490 . S
O115 C99 1.225 . S
O116 Pr88 2.436 . S
O116 Pr89 2.695 1_665 S
O116 C106 1.270 . S
O117 Pr89 2.512 1_565 S
O117 C106 1.248 1_455 S
O118 Pr88 2.438 1_545 S
O118 C107 1.267 . S
O119 Pr89 2.437 . S
O119 C107 1.278 1_455 S
H120 C92 0.929 . S
H121 C93 0.929 . S
H122 C95 0.931 . S
H123 C96 0.930 . S
H124 C101 0.929 . S
H125 C102 0.929 . S
H126 C104 0.931 . S
H127 C105 0.930 . S
Pr128 C130 2.880 . S
Pr128 O148 2.562 . S
Pr128 O149 2.490 . S
Pr128 O150 2.695 . S
Pr128 O151 2.512 . S
Pr128 O153 2.437 . S
Pr128 O156 2.436 1_545 S
Pr128 O158 2.438 1_544 S
Pr129 C139 2.880 1_554 S
Pr129 O150 2.436 1_565 S
Pr129 O152 2.438 1_565 S
Pr129 O154 2.562 1_554 S
Pr129 O155 2.490 . S
Pr129 O156 2.695 . S
Pr129 O157 2.512 . S
Pr129 O159 2.437 1_554 S
C130 Pr128 2.880 . S
C130 C131 1.491 . S
C130 O148 1.254 . S
C130 O149 1.225 . S
C131 C130 1.491 . S
C131 C132 1.392 . S
C131 C136 1.356 . S
C132 C131 1.392 . S
C132 C133 1.368 . S
C132 H160 0.929 . S
C133 C132 1.368 . S
C133 C134 1.386 . S
C133 H161 0.929 . S
C134 C133 1.386 . S
C134 C135 1.373 . S
C135 C134 1.373 . S
C135 C136 1.409 . S
C135 H162 0.931 . S
C136 C131 1.356 . S
C136 C135 1.409 . S
C136 H163 0.930 . S
C137 O150 1.270 1_556 S
C137 O151 1.248 1_556 S
C138 O152 1.267 . S
C138 O153 1.278 . S
C139 Pr129 2.880 1_556 S
C139 C140 1.491 . S
C139 O154 1.254 . S
C139 O155 1.225 1_556 S
C140 C139 1.491 . S
C140 C141 1.392 . S
C140 C145 1.356 . S
C141 C140 1.392 . S
C141 C142 1.368 . S
C141 H164 0.929 . S
C142 C141 1.368 . S
C142 C143 1.386 . S
C142 H165 0.929 . S
C143 C142 1.386 . S
C143 C144 1.373 . S
C144 C143 1.373 . S
C144 C145 1.409 . S
C144 H166 0.931 . S
C145 C140 1.356 . S
C145 C144 1.409 . S
C145 H167 0.930 . S
C146 O156 1.270 . S
C146 O157 1.248 . S
C147 O158 1.267 . S
C147 O159 1.278 . S
O148 Pr128 2.562 . S
O148 C130 1.254 . S
O149 Pr128 2.490 . S
O149 C130 1.225 . S
O150 Pr128 2.695 . S
O150 Pr129 2.436 1_545 S
O150 C137 1.270 1_554 S
O151 Pr128 2.512 . S
O151 C137 1.248 1_554 S
O152 Pr129 2.438 1_545 S
O152 C138 1.267 . S
O153 Pr128 2.437 . S
O153 C138 1.278 . S
O154 Pr129 2.562 1_556 S
O154 C139 1.254 . S
O155 Pr129 2.490 . S
O155 C139 1.225 1_554 S
O156 Pr128 2.436 1_565 S
O156 Pr129 2.695 . S
O156 C146 1.270 . S
O157 Pr129 2.512 . S
O157 C146 1.248 . S
O158 Pr128 2.438 1_566 S
O158 C147 1.267 . S
O159 Pr129 2.437 1_556 S
O159 C147 1.278 . S
H160 C132 0.929 . S
H161 C133 0.929 . S
H162 C135 0.931 . S
H163 C136 0.930 . S
H164 C141 0.929 . S
H165 C142 0.929 . S
H166 C144 0.931 . S
H167 C145 0.930 . S
Pr168 C170 2.880 . S
Pr168 O188 2.562 . S
Pr168 O189 2.490 . S
Pr168 O190 2.695 . S
Pr168 O191 2.512 . S
Pr168 O193 2.437 . S
Pr168 O196 2.436 . S
Pr168 O198 2.438 . S
Pr169 C179 2.880 . S
Pr169 O190 2.436 . S
Pr169 O192 2.438 . S
Pr169 O194 2.562 . S
Pr169 O195 2.490 . S
Pr169 O196 2.695 . S
Pr169 O197 2.512 . S
Pr169 O199 2.437 . S
C170 Pr168 2.880 . S
C170 C171 1.491 . S
C170 O188 1.254 . S
C170 O189 1.225 . S
C171 C170 1.491 . S
C171 C172 1.392 . S
C171 C176 1.356 . S
C172 C171 1.392 . S
C172 C173 1.368 . S
C172 H200 0.929 . S
C173 C172 1.368 . S
C173 C174 1.386 . S
C173 H201 0.929 . S
C174 C173 1.386 . S
C174 C175 1.373 . S
C175 C174 1.373 . S
C175 C176 1.409 . S
C175 H202 0.931 . S
C176 C171 1.356 . S
C176 C175 1.409 . S
C176 H203 0.930 . S
C177 O190 1.270 . S
C177 O191 1.248 . S
C178 O192 1.267 . S
C178 O193 1.278 . S
C179 Pr169 2.880 . S
C179 C180 1.491 . S
C179 O194 1.254 . S
C179 O195 1.225 . S
C180 C179 1.491 . S
C180 C181 1.392 . S
C180 C185 1.356 . S
C181 C180 1.392 . S
C181 C182 1.368 . S
C181 H204 0.929 . S
C182 C181 1.368 . S
C182 C183 1.386 . S
C182 H205 0.929 . S
C183 C182 1.386 . S
C183 C184 1.373 . S
C184 C183 1.373 . S
C184 C185 1.409 . S
C184 H206 0.931 . S
C185 C180 1.356 . S
C185 C184 1.409 . S
C185 H207 0.930 . S
C186 O196 1.270 . S
C186 O197 1.248 . S
C187 O198 1.267 . S
C187 O199 1.278 . S
O188 Pr168 2.562 . S
O188 C170 1.254 . S
O189 Pr168 2.490 . S
O189 C170 1.225 . S
O190 Pr168 2.695 . S
O190 Pr169 2.436 . S
O190 C177 1.270 . S
O191 Pr168 2.512 . S
O191 C177 1.248 . S
O192 Pr169 2.438 . S
O192 C178 1.267 . S
O193 Pr168 2.437 . S
O193 C178 1.278 . S
O194 Pr169 2.562 . S
O194 C179 1.254 . S
O195 Pr169 2.490 . S
O195 C179 1.225 . S
O196 Pr168 2.436 . S
O196 Pr169 2.695 . S
O196 C186 1.270 . S
O197 Pr169 2.512 . S
O197 C186 1.248 . S
O198 Pr168 2.438 . S
O198 C187 1.267 . S
O199 Pr169 2.437 . S
O199 C187 1.278 . S
H200 C172 0.929 . S
H201 C173 0.929 . S
H202 C175 0.931 . S
H203 C176 0.930 . S
H204 C181 0.929 . S
H205 C182 0.929 . S
H206 C184 0.931 . S
H207 C185 0.930 . S
Pr208 C210 2.880 1_455 S
Pr208 O228 2.562 1_455 S
Pr208 O229 2.490 . S
Pr208 O230 2.695 1_556 S
Pr208 O231 2.512 1_556 S
Pr208 O233 2.437 1_556 S
Pr208 O236 2.436 1_455 S
Pr208 O238 2.438 . S
Pr209 C219 2.880 . S
Pr209 O230 2.436 . S
Pr209 O232 2.438 . S
Pr209 O234 2.562 . S
Pr209 O235 2.490 . S
Pr209 O236 2.695 1_454 S
Pr209 O237 2.512 1_454 S
Pr209 O239 2.437 1_554 S
C210 Pr208 2.880 1_655 S
C210 C211 1.491 . S
C210 O228 1.254 . S
C210 O229 1.225 1_655 S
C211 C210 1.491 . S
C211 C212 1.392 . S
C211 C216 1.356 . S
C212 C211 1.392 . S
C212 C213 1.368 . S
C212 H240 0.929 1_655 S
C213 C212 1.368 . S
C213 C214 1.386 . S
C213 H241 0.929 . S
C214 C213 1.386 . S
C214 C215 1.373 . S
C215 C214 1.373 . S
C215 C216 1.409 . S
C215 H242 0.931 . S
C216 C211 1.356 . S
C216 C215 1.409 . S
C216 H243 0.930 . S
C217 O230 1.270 . S
C217 O231 1.248 . S
C218 O232 1.267 1_655 S
C218 O233 1.278 1_655 S
C219 Pr209 2.880 . S
C219 C220 1.491 . S
C219 O234 1.254 . S
C219 O235 1.225 . S
C220 C219 1.491 . S
C220 C221 1.392 . S
C220 C225 1.356 . S
C221 C220 1.392 . S
C221 C222 1.368 . S
C221 H244 0.929 . S
C222 C221 1.368 . S
C222 C223 1.386 . S
C222 H245 0.929 . S
C223 C222 1.386 . S
C223 C224 1.373 . S
C224 C223 1.373 . S
C224 C225 1.409 . S
C224 H246 0.931 . S
C225 C220 1.356 . S
C225 C224 1.409 . S
C225 H247 0.930 . S
C226 O236 1.270 . S
C226 O237 1.248 . S
C227 O238 1.267 . S
C227 O239 1.278 . S
O228 Pr208 2.562 1_655 S
O228 C210 1.254 . S
O229 Pr208 2.490 . S
O229 C210 1.225 1_455 S
O230 Pr208 2.695 1_554 S
O230 Pr209 2.436 . S
O230 C217 1.270 . S
O231 Pr208 2.512 1_554 S
O231 C217 1.248 . S
O232 Pr209 2.438 . S
O232 C218 1.267 1_455 S
O233 Pr208 2.437 1_554 S
O233 C218 1.278 1_455 S
O234 Pr209 2.562 . S
O234 C219 1.254 . S
O235 Pr209 2.490 . S
O235 C219 1.225 . S
O236 Pr208 2.436 1_655 S
O236 Pr209 2.695 1_656 S
O236 C226 1.270 . S
O237 Pr209 2.512 1_656 S
O237 C226 1.248 . S
O238 Pr208 2.438 . S
O238 C227 1.267 . S
O239 Pr209 2.437 1_556 S
O239 C227 1.278 . S
H240 C212 0.929 1_455 S
H241 C213 0.929 . S
H242 C215 0.931 . S
H243 C216 0.930 . S
H244 C221 0.929 . S
H245 C222 0.929 . S
H246 C224 0.931 . S
H247 C225 0.930 . S
C248 C249 1.387 . S
C248 H252 0.950 . S
C248 C257 1.390 . S
C249 C248 1.387 . S
C249 C251 1.387 . S
H250 C257 0.950 . S
C251 C249 1.387 . S
C251 C253 1.390 . S
C251 H255 0.950 . S
H252 C248 0.950 . S
C253 C251 1.390 . S
C253 C254 1.387 . S
C253 H256 0.950 . S
C254 C253 1.387 . S
C254 C257 1.387 . S
H255 C251 0.950 . S
H256 C253 0.950 . S
C257 C248 1.390 . S
C257 H250 0.950 . S
C257 C254 1.387 . S
C258 C259 1.387 . S
C258 H262 0.950 . S
C258 C267 1.390 . S
C259 C258 1.387 . S
C259 C261 1.387 . S
H260 C267 0.950 . S
C261 C259 1.387 . S
C261 C263 1.390 . S
C261 H265 0.950 . S
H262 C258 0.950 . S
C263 C261 1.390 . S
C263 C264 1.387 . S
C263 H266 0.950 . S
C264 C263 1.387 . S
C264 C267 1.387 . S
H265 C261 0.950 . S
H266 C263 0.950 . S
C267 C258 1.390 . S
C267 H260 0.950 . S
C267 C264 1.387 . S
C268 C269 1.387 . S
C268 H272 0.950 . S
C268 C277 1.390 . S
C269 C268 1.387 . S
C269 C271 1.387 . S
H270 C277 0.950 . S
C271 C269 1.387 . S
C271 C273 1.390 . S
C271 H275 0.950 . S
H272 C268 0.950 . S
C273 C271 1.390 . S
C273 C274 1.387 . S
C273 H276 0.950 . S
C274 C273 1.387 . S
C274 C277 1.387 . S
H275 C271 0.950 . S
H276 C273 0.950 . S
C277 C268 1.390 . S
C277 H270 0.950 . S
C277 C274 1.387 . S
C278 C279 1.387 . S
C278 H282 0.950 . S
C278 C287 1.390 . S
C279 C278 1.387 . S
C279 C281 1.387 . S
H280 C287 0.950 . S
C281 C279 1.387 . S
C281 C283 1.390 . S
C281 H285 0.950 . S
H282 C278 0.950 . S
C283 C281 1.390 . S
C283 C284 1.387 . S
C283 H286 0.950 . S
C284 C283 1.387 . S
C284 C287 1.387 . S
H285 C281 0.950 . S
H286 C283 0.950 . S
C287 C278 1.390 . S
C287 H280 0.950 . S
C287 C284 1.387 . S
C288 C289 1.387 . S
C288 H292 0.950 . S
C288 C297 1.390 . S
C289 C288 1.387 . S
C289 C291 1.387 . S
H290 C297 0.950 . S
C291 C289 1.387 . S
C291 C293 1.390 . S
C291 H295 0.950 . S
H292 C288 0.950 . S
C293 C291 1.390 . S
C293 C294 1.387 . S
C293 H296 0.950 . S
C294 C293 1.387 . S
C294 C297 1.387 . S
H295 C291 0.950 . S
H296 C293 0.950 . S
C297 C288 1.390 . S
C297 H290 0.950 . S
C297 C294 1.387 . S
C298 C299 1.387 . S
C298 H302 0.950 1_455 S
C298 C307 1.390 . S
C299 C298 1.387 . S
C299 C301 1.387 . S
H300 C307 0.950 1_655 S
C301 C299 1.387 . S
C301 C303 1.390 . S
C301 H305 0.950 . S
H302 C298 0.950 1_655 S
C303 C301 1.390 . S
C303 C304 1.387 . S
C303 H306 0.950 . S
C304 C303 1.387 . S
C304 C307 1.387 . S
H305 C301 0.950 . S
H306 C303 0.950 . S
C307 C298 1.390 . S
C307 H300 0.950 1_455 S
C307 C304 1.387 . S
C308 C309 1.387 . S
C308 H312 0.950 . S
C308 C317 1.390 . S
C309 C308 1.387 . S
C309 C311 1.387 . S
H310 C317 0.950 . S
C311 C309 1.387 . S
C311 C313 1.390 . S
C311 H315 0.950 . S
H312 C308 0.950 . S
C313 C311 1.390 . S
C313 C314 1.387 . S
C313 H316 0.950 . S
C314 C313 1.387 . S
C314 C317 1.387 . S
H315 C311 0.950 . S
H316 C313 0.950 . S
C317 C308 1.390 . S
C317 H310 0.950 . S
C317 C314 1.387 . S
C318 C319 1.387 . S
C318 H322 0.950 . S
C318 C327 1.390 . S
C319 C318 1.387 . S
C319 C321 1.387 . S
H320 C327 0.950 . S
C321 C319 1.387 . S
C321 C323 1.390 . S
C321 H325 0.950 . S
H322 C318 0.950 . S
C323 C321 1.390 . S
C323 C324 1.387 . S
C323 H326 0.950 . S
C324 C323 1.387 . S
C324 C327 1.387 . S
H325 C321 0.950 . S
H326 C323 0.950 . S
C327 C318 1.390 . S
C327 H320 0.950 . S
C327 C324 1.387 . S
C328 C329 1.387 . S
C328 H332 0.950 . S
C328 C337 1.390 . S
C329 C328 1.387 . S
C329 C331 1.387 . S
H330 C337 0.950 . S
C331 C329 1.387 . S
C331 C333 1.390 . S
C331 H335 0.950 . S
H332 C328 0.950 . S
C333 C331 1.390 . S
C333 C334 1.387 . S
C333 H336 0.950 . S
C334 C333 1.387 . S
C334 C337 1.387 . S
H335 C331 0.950 . S
H336 C333 0.950 . S
C337 C328 1.390 . S
C337 H330 0.950 . S
C337 C334 1.387 . S
C338 C339 1.387 . S
C338 H342 0.950 . S
C338 C347 1.390 . S
C339 C338 1.387 . S
C339 C341 1.387 . S
H340 C347 0.950 . S
C341 C339 1.387 . S
C341 C343 1.390 . S
C341 H345 0.950 . S
H342 C338 0.950 . S
C343 C341 1.390 . S
C343 C344 1.387 . S
C343 H346 0.950 . S
C344 C343 1.387 . S
C344 C347 1.387 . S
H345 C341 0.950 . S
H346 C343 0.950 . S
C347 C338 1.390 . S
C347 H340 0.950 . S
C347 C344 1.387 . S
C348 C349 1.387 . S
C348 H352 0.950 . S
C348 C357 1.390 . S
C349 C348 1.387 . S
C349 C351 1.387 . S
H350 C357 0.950 . S
C351 C349 1.387 . S
C351 C353 1.390 . S
C351 H355 0.950 . S
H352 C348 0.950 . S
C353 C351 1.390 . S
C353 C354 1.387 . S
C353 H356 0.950 . S
C354 C353 1.387 . S
C354 C357 1.387 . S
H355 C351 0.950 . S
H356 C353 0.950 . S
C357 C348 1.390 . S
C357 H350 0.950 . S
C357 C354 1.387 . S
C358 C359 1.387 . S
C358 H362 0.950 . S
C358 C367 1.390 . S
C359 C358 1.387 . S
C359 C361 1.387 . S
H360 C367 0.950 . S
C361 C359 1.387 . S
C361 C363 1.390 . S
C361 H365 0.950 . S
H362 C358 0.950 . S
C363 C361 1.390 . S
C363 C364 1.387 . S
C363 H366 0.950 . S
C364 C363 1.387 . S
C364 C367 1.387 . S
H365 C361 0.950 . S
H366 C363 0.950 . S
C367 C358 1.390 . S
C367 H360 0.950 . S
C367 C364 1.387 . S
C368 C369 1.387 . S
C368 H372 0.950 . S
C368 C377 1.390 . S
C369 C368 1.387 . S
C369 C371 1.387 . S
H370 C377 0.950 . S
C371 C369 1.387 . S
C371 C373 1.390 . S
C371 H375 0.950 . S
H372 C368 0.950 . S
C373 C371 1.390 . S
C373 C374 1.387 . S
C373 H376 0.950 . S
C374 C373 1.387 . S
C374 C377 1.387 . S
H375 C371 0.950 . S
H376 C373 0.950 . S
C377 C368 1.390 . S
C377 H370 0.950 . S
C377 C374 1.387 . S
C378 C379 1.387 . S
C378 H382 0.950 . S
C378 C387 1.390 . S
C379 C378 1.387 . S
C379 C381 1.387 . S
H380 C387 0.950 . S
C381 C379 1.387 . S
C381 C383 1.390 . S
C381 H385 0.950 . S
H382 C378 0.950 . S
C383 C381 1.390 . S
C383 C384 1.387 . S
C383 H386 0.950 . S
C384 C383 1.387 . S
C384 C387 1.387 . S
H385 C381 0.950 . S
H386 C383 0.950 . S
C387 C378 1.390 . S
C387 H380 0.950 . S
C387 C384 1.387 . S
C388 C389 1.387 . S
C388 H392 0.950 . S
C388 C397 1.390 . S
C389 C388 1.387 . S
C389 C391 1.387 . S
H390 C397 0.950 . S
C391 C389 1.387 . S
C391 C393 1.390 . S
C391 H395 0.950 . S
H392 C388 0.950 . S
C393 C391 1.390 . S
C393 C394 1.387 . S
C393 H396 0.950 . S
C394 C393 1.387 . S
C394 C397 1.387 . S
H395 C391 0.950 . S
H396 C393 0.950 . S
C397 C388 1.390 . S
C397 H390 0.950 . S
C397 C394 1.387 . S
C398 C399 1.387 . S
C398 H402 0.950 . S
C398 C407 1.390 . S
C399 C398 1.387 . S
C399 C401 1.387 . S
H400 C407 0.950 . S
C401 C399 1.387 . S
C401 C403 1.390 . S
C401 H405 0.950 . S
H402 C398 0.950 . S
C403 C401 1.390 . S
C403 C404 1.387 . S
C403 H406 0.950 . S
C404 C403 1.387 . S
C404 C407 1.387 . S
H405 C401 0.950 . S
H406 C403 0.950 . S
C407 C398 1.390 . S
C407 H400 0.950 . S
C407 C404 1.387 . S
C408 C409 1.387 . S
C408 H412 0.950 . S
C408 C417 1.390 . S
C409 C408 1.387 . S
C409 C411 1.387 . S
H410 C417 0.950 . S
C411 C409 1.387 . S
C411 C413 1.390 . S
C411 H415 0.950 . S
H412 C408 0.950 . S
C413 C411 1.390 . S
C413 C414 1.387 . S
C413 H416 0.950 . S
C414 C413 1.387 . S
C414 C417 1.387 . S
H415 C411 0.950 . S
H416 C413 0.950 . S
C417 C408 1.390 . S
C417 H410 0.950 . S
C417 C414 1.387 . S
C418 C419 1.387 . S
C418 H422 0.950 . S
C418 C427 1.390 . S
C419 C418 1.387 . S
C419 C421 1.387 . S
H420 C427 0.950 . S
C421 C419 1.387 . S
C421 C423 1.390 . S
C421 H425 0.950 . S
H422 C418 0.950 . S
C423 C421 1.390 . S
C423 C424 1.387 . S
C423 H426 0.950 . S
C424 C423 1.387 . S
C424 C427 1.387 . S
H425 C421 0.950 . S
H426 C423 0.950 . S
C427 C418 1.390 . S
C427 H420 0.950 . S
C427 C424 1.387 . S
C428 C429 1.387 . S
C428 H432 0.950 . S
C428 C437 1.390 . S
C429 C428 1.387 . S
C429 C431 1.387 . S
H430 C437 0.950 . S
C431 C429 1.387 . S
C431 C433 1.390 . S
C431 H435 0.950 . S
H432 C428 0.950 . S
C433 C431 1.390 . S
C433 C434 1.387 . S
C433 H436 0.950 . S
C434 C433 1.387 . S
C434 C437 1.387 . S
H435 C431 0.950 . S
H436 C433 0.950 . S
C437 C428 1.390 . S
C437 H430 0.950 . S
C437 C434 1.387 . S
C438 C439 1.387 . S
C438 H442 0.950 . S
C438 C447 1.390 . S
C439 C438 1.387 . S
C439 C441 1.387 . S
H440 C447 0.950 . S
C441 C439 1.387 . S
C441 C443 1.390 . S
C441 H445 0.950 . S
H442 C438 0.950 . S
C443 C441 1.390 . S
C443 C444 1.387 . S
C443 H446 0.950 . S
C444 C443 1.387 . S
C444 C447 1.387 . S
H445 C441 0.950 . S
H446 C443 0.950 . S
C447 C438 1.390 . S
C447 H440 0.950 . S
C447 C444 1.387 . S
C448 C449 1.387 . S
C448 H452 0.950 . S
C448 C457 1.390 . S
C449 C448 1.387 . S
C449 C451 1.387 . S
H450 C457 0.950 . S
C451 C449 1.387 . S
C451 C453 1.390 . S
C451 H455 0.950 . S
H452 C448 0.950 . S
C453 C451 1.390 . S
C453 C454 1.387 . S
C453 H456 0.950 . S
C454 C453 1.387 . S
C454 C457 1.387 . S
H455 C451 0.950 . S
H456 C453 0.950 . S
C457 C448 1.390 . S
C457 H450 0.950 . S
C457 C454 1.387 . S
C458 C459 1.387 . S
C458 H462 0.950 . S
C458 C467 1.390 . S
C459 C458 1.387 . S
C459 C461 1.387 . S
H460 C467 0.950 . S
C461 C459 1.387 . S
C461 C463 1.390 . S
C461 H465 0.950 . S
H462 C458 0.950 . S
C463 C461 1.390 . S
C463 C464 1.387 . S
C463 H466 0.950 . S
C464 C463 1.387 . S
C464 C467 1.387 . S
H465 C461 0.950 . S
H466 C463 0.950 . S
C467 C458 1.390 . S
C467 H460 0.950 . S
C467 C464 1.387 . S
C468 C469 1.387 . S
C468 H472 0.950 . S
C468 C477 1.390 . S
C469 C468 1.387 . S
C469 C471 1.387 . S
H470 C477 0.950 . S
C471 C469 1.387 . S
C471 C473 1.390 . S
C471 H475 0.950 . S
H472 C468 0.950 . S
C473 C471 1.390 . S
C473 C474 1.387 . S
C473 H476 0.950 . S
C474 C473 1.387 . S
C474 C477 1.387 . S
H475 C471 0.950 . S
H476 C473 0.950 . S
C477 C468 1.390 . S
C477 H470 0.950 . S
C477 C474 1.387 . S
C478 C479 1.387 . S
C478 H482 0.950 . S
C478 C487 1.390 . S
C479 C478 1.387 . S
C479 C481 1.387 . S
H480 C487 0.950 . S
C481 C479 1.387 . S
C481 C483 1.390 . S
C481 H485 0.950 . S
H482 C478 0.950 . S
C483 C481 1.390 . S
C483 C484 1.387 . S
C483 H486 0.950 . S
C484 C483 1.387 . S
C484 C487 1.387 . S
H485 C481 0.950 . S
H486 C483 0.950 . S
C487 C478 1.390 . S
C487 H480 0.950 . S
C487 C484 1.387 . S
C249 C4 1.139 . S
C254 C103 1.215 . S
C259 C16 1.540 . S
C264 C147 1.591 . S
C274 C177 2.216 . S
C269 C32 2.073 . S
C279 C43 2.652 . S
C284 C218 2.643 . S
C294 C134 1.425 . S
C289 C5 1.309 . S
C304 C98 2.065 . S
C299 C21 1.983 . S
C314 C226 1.210 . S
C309 C27 1.261 . S
C324 C187 2.366 . S
C319 C37 2.427 . S
C329 C10 1.464 . S
C334 C223 1.524 . S
C344 C137 2.261 . S
C339 C26 2.319 . S
C349 C38 1.657 . S
C354 C106 1.656 . S
C359 C15 2.448 . S
C364 C174 2.406 . S
C374 C94 1.298 . S
C369 C48 1.229 . S
C379 C59 1.375 . S
C384 C138 1.386 . S
C389 C76 2.044 . S
C394 C186 2.070 . S
C399 C87 2.535 . S
C404 C227 2.478 . S
C409 C54 0.938 . S
C414 C143 0.982 . S
C424 C107 2.682 . S
C419 C60 2.635 . S
C434 C217 1.291 . S
C429 C71 1.160 . S
C444 C178 1.999 . S
C439 C82 2.024 . S
C449 C49 2.026 . S
C454 C214 2.115 . S
C464 C146 1.602 . S
C459 C70 1.625 . S
C474 C97 2.033 . S
C469 C81 2.087 . S
C479 C65 2.079 . S
C484 C183 2.049 . S
