# Generated by pormake.
# Topology apo, (3,6)-cn, num edge types: 1
# Building blocks:
#     Node 0, Type 0, BuildingBlock: BELTOD_clean_linker_0, # of connection points: 3
#     Node 1, Type 0, BuildingBlock: BELTOD_clean_linker_0, # of connection points: 3
#     Node 2, Type 0, BuildingBlock: BELTOD_clean_linker_0, # of connection points: 3
#     Node 3, Type 0, BuildingBlock: BELTOD_clean_linker_0, # of connection points: 3
#     Node 4, Type 0, BuildingBlock: BELTOD_clean_linker_0, # of connection points: 3
#     Node 5, Type 0, BuildingBlock: BELTOD_clean_linker_0, # of connection points: 3
#     Node 6, Type 0, BuildingBlock: BELTOD_clean_linker_0, # of connection points: 3
#     Node 7, Type 0, BuildingBlock: BELTOD_clean_linker_0, # of connection points: 3
#     Node 8, Type 1, BuildingBlock: MIDCAF_clean_sbu_0, # of connection points: 6
#     Node 9, Type 1, BuildingBlock: MIDCAF_clean_sbu_0, # of connection points: 6
#     Node 10, Type 1, BuildingBlock: MIDCAF_clean_sbu_0, # of connection points: 6
#     Node 11, Type 1, BuildingBlock: MIDCAF_clean_sbu_0, # of connection points: 6
#     Edge 12, Type (0, 1), None
#     Edge 13, Type (0, 1), None
#     Edge 14, Type (0, 1), None
#     Edge 15, Type (0, 1), None
#     Edge 16, Type (0, 1), None
#     Edge 17, Type (0, 1), None
#     Edge 18, Type (0, 1), None
#     Edge 19, Type (0, 1), None
#     Edge 20, Type (0, 1), None
#     Edge 21, Type (0, 1), None
#     Edge 22, Type (0, 1), None
#     Edge 23, Type (0, 1), None
#     Edge 24, Type (0, 1), None
#     Edge 25, Type (0, 1), None
#     Edge 26, Type (0, 1), None
#     Edge 27, Type (0, 1), None
#     Edge 28, Type (0, 1), None
#     Edge 29, Type (0, 1), None
#     Edge 30, Type (0, 1), None
#     Edge 31, Type (0, 1), None
#     Edge 32, Type (0, 1), None
#     Edge 33, Type (0, 1), None
#     Edge 34, Type (0, 1), None
#     Edge 35, Type (0, 1), None
# Relax obj value: 0.076
# Max RMSD: 0.096
# Mean RMSD: 0.086
data_MOF--net-apo--node1-MIDCAF_clean_sbu_0--node2-BELTOD_clean_linker_0--edge1-none
_symmetry_space_group_name_H-M    P1
_symmetry_Int_Tables_number       1
_symmetry_cell_setting            triclinic
loop_
_symmetry_equiv_pos_as_xyz
'x, y, z'
_cell_length_a     20.812302
_cell_length_b     24.795689
_cell_length_c     19.79971
_cell_angle_alpha  87.272662
_cell_angle_beta   89.50099
_cell_angle_gamma 91.820492
loop_
_atom_site_label
_atom_site_type_symbol
_atom_site_fract_x
_atom_site_fract_y
_atom_site_fract_z
_atom_type_partial_charge
P0 P 0.31371 0.25425 0.43563 0.0
H1 H 0.38143 0.18578 0.53478 0.0
H2 H 0.43396 0.20854 0.64 0.0
H3 H 0.3361 0.35908 0.63766 0.0
H4 H 0.28211 0.33579 0.53332 0.0
H5 H 0.24661 0.23292 0.30996 0.0
H6 H 0.14813 0.18004 0.28633 0.0
H7 H 0.11264 0.15608 0.50126 0.0
H8 H 0.21004 0.20846 0.52404 0.0
H9 H 0.43131 0.30959 0.38601 0.0
H10 H 0.23121 0.34644 0.4058 0.0
O11 O 0.36715 0.21315 0.40409 0.0
H12 H 0.45775 0.4047 0.35763 0.0
H13 H 0.25785 0.442 0.37653 0.0
C14 C 0.32985 0.26005 0.52472 0.0
C15 C 0.36868 0.22249 0.55844 0.0
C16 C 0.39793 0.23511 0.61934 0.0
C17 C 0.38888 0.28548 0.64704 0.0
C18 C 0.34302 0.31958 0.61809 0.0
C19 C 0.31315 0.30668 0.55753 0.0
C20 C 0.23535 0.22508 0.41872 0.0
C21 C 0.21676 0.21704 0.35179 0.0
C22 C 0.16082 0.18641 0.3384 0.0
C23 C 0.12296 0.16304 0.39184 0.0
C24 C 0.14084 0.17296 0.45875 0.0
C25 C 0.19653 0.20342 0.47196 0.0
C26 C 0.32899 0.32062 0.39633 0.0
C27 C 0.39267 0.33772 0.38123 0.0
C28 C 0.40788 0.39207 0.36442 0.0
C29 C 0.35975 0.43034 0.36288 0.0
C30 C 0.29571 0.41301 0.37635 0.0
C31 C 0.28038 0.35847 0.3926 0.0
P32 P 0.25223 0.11368 0.98595 0.0
H33 H 0.16553 0.10523 0.87008 0.0
H34 H 0.11029 0.02698 0.82235 0.0
H35 H 0.20977 0.92064 0.96173 0.0
H36 H 0.26464 -0.00184 1.00867 0.0
H37 H 0.33614 0.12507 0.86648 0.0
H38 H 0.39638 0.20432 0.81697 0.0
H39 H 0.28398 0.30739 0.93824 0.0
H40 H 0.22569 0.22902 0.98811 0.0
H41 H 0.24244 0.09672 0.13367 0.0
H42 H 0.1256 0.15933 0.97104 0.0
O43 O 0.31782 0.09456 1.02742 0.0
H44 H 0.15122 0.09947 0.21167 0.0
H45 H 0.03431 0.16253 0.04858 0.0
C46 C 0.22031 0.05733 0.94179 0.0
C47 C 0.17609 0.06493 0.88942 0.0
C48 C 0.14372 0.02036 0.8629 0.0
C49 C 0.15478 0.96778 0.88874 0.0
C50 C 0.20007 0.96058 0.94044 0.0
C51 C 0.23202 0.00492 0.96703 0.0
C52 C 0.27648 0.17099 0.93118 0.0
C53 C 0.32266 0.16499 0.88009 0.0
C54 C 0.35688 0.21031 0.85152 0.0
C55 C 0.34542 0.26192 0.87445 0.0
C56 C 0.29413 0.26803 0.91989 0.0
C57 C 0.26046 0.22299 0.9485 0.0
C58 C 0.19085 0.12815 0.04654 0.0
C59 C 0.19771 0.11263 0.11513 0.0
C60 C 0.14547 0.11431 0.15993 0.0
C61 C 0.08536 0.13096 0.13641 0.0
C62 C 0.07993 0.14934 0.0684 0.0
C63 C 0.13207 0.14766 1.02386 0.0
P64 P 0.88936 0.19417 0.72101 0.0
H65 H 0.90154 0.24334 0.58235 0.0
H66 H 0.89837 0.2037 0.47138 0.0
H67 H 0.8369 0.05007 0.56677 0.0
H68 H 0.8411 0.08948 0.6766 0.0
H69 H 0.85117 0.28779 0.79585 0.0
H70 H 0.74478 0.32007 0.8244 0.0
H71 H 0.65857 0.16909 0.76531 0.0
H72 H 0.76439 0.13686 0.7378 0.0
H73 H 0.01911 0.15946 0.70373 0.0
H74 H 0.85359 0.10988 0.82646 0.0
O75 O 0.93738 0.24934 0.71257 0.0
H76 H 0.06024 0.06882 0.71744 0.0
H77 H 0.89553 0.01926 0.8411 0.0
C78 C 0.87258 0.1693 0.63813 0.0
C79 C 0.88593 0.20148 0.57917 0.0
C80 C 0.88364 0.17877 0.51557 0.0
C81 C 0.86799 0.12344 0.51005 0.0
C82 C 0.84932 0.09272 0.56889 0.0
C83 C 0.85182 0.11535 0.63213 0.0
C84 C 0.8155 0.21062 0.76239 0.0
C85 C 0.8096 0.26089 0.79125 0.0
C86 C 0.74882 0.27911 0.80843 0.0
C87 C 0.69349 0.24731 0.79612 0.0
C88 C 0.7005 0.19452 0.77491 0.0
C89 C 0.76108 0.17627 0.75836 0.0
C90 C 0.93302 0.14135 0.76352 0.0
C91 C -0.00619 0.13026 0.73757 0.0
C92 C 0.01765 0.07843 0.74579 0.0
C93 C 0.98143 0.03741 0.78105 0.0
C94 C 0.92504 0.05065 0.81508 0.0
C95 C 0.90074 0.10245 0.80618 0.0
P96 P 0.72546 0.36558 0.1957 0.0
H97 H 0.67872 0.42918 0.30495 0.0
H98 H 0.57508 0.47052 0.31921 0.0
H99 H 0.49399 0.37108 0.16639 0.0
H100 H 0.59593 0.32744 0.15539 0.0
H101 H 0.85077 0.3475 0.25581 0.0
H102 H 0.89876 0.26481 0.30075 0.0
H103 H 0.71528 0.18009 0.28794 0.0
H104 H 0.66683 0.26305 0.24496 0.0
H105 H 0.73524 0.43813 0.07672 0.0
H106 H 0.69766 0.26777 0.11876 0.0
O107 O 0.77232 0.42052 0.20537 0.0
H108 H 0.68099 0.43221 0.96899 0.0
H109 H 0.64051 0.26251 1.01163 0.0
C110 C 0.64605 0.37833 0.22559 0.0
C111 C 0.63788 0.41445 0.27684 0.0
C112 C 0.57823 0.43727 0.28583 0.0
C113 C 0.52762 0.42509 0.24193 0.0
C114 C 0.5328 0.38157 0.19996 0.0
C115 C 0.59193 0.35779 0.19231 0.0
C116 C 0.75588 0.31057 0.24546 0.0
C117 C 0.82026 0.31173 0.26543 0.0
C118 C 0.84735 0.26487 0.29241 0.0
C119 C 0.81041 0.2166 0.2974 0.0
C120 C 0.74422 0.21727 0.28501 0.0
C121 C 0.71694 0.26428 0.25924 0.0
C122 C 0.71981 0.35366 0.10654 0.0
C123 C 0.71877 0.39876 0.06127 0.0
C124 C 0.68777 0.39533 0.99937 0.0
C125 C 0.65649 0.34697 0.98234 0.0
C126 C 0.66518 0.30004 1.02319 0.0
C127 C 0.69763 0.30323 0.0848 0.0
P128 P 0.74371 0.64029 0.58974 0.0
H129 H 0.74096 0.62848 0.44324 0.0
H130 H 0.65067 0.6216 0.36604 0.0
H131 H 0.52474 0.67845 0.5199 0.0
H132 H 0.61518 0.68457 0.59723 0.0
H133 H 0.82917 0.63541 0.70518 0.0
H134 H 0.88968 0.70692 0.76075 0.0
H135 H 0.77177 0.82578 0.6603 0.0
H136 H 0.71365 0.75464 0.60327 0.0
H137 H 0.75539 0.52754 0.56351 0.0
H138 H 0.65125 0.62194 0.70254 0.0
O139 O 0.81132 0.62417 0.55057 0.0
H140 H 0.69754 0.4465 0.60564 0.0
H141 H 0.59244 0.53984 0.74603 0.0
C142 C 0.6852 0.65776 0.52608 0.0
C143 C 0.69458 0.64188 0.45952 0.0
C144 C 0.64274 0.63787 0.41511 0.0
C145 C 0.58044 0.64927 0.43673 0.0
C146 C 0.57218 0.66922 0.50164 0.0
C147 C 0.62402 0.67331 0.54587 0.0
C148 C 0.76742 0.6898 0.64942 0.0
C149 C 0.81469 0.6768 0.69735 0.0
C150 C 0.84905 0.71768 0.72963 0.0
C151 C 0.83637 0.7721 0.71416 0.0
C152 C 0.78323 0.7842 0.67286 0.0
C153 C 0.74971 0.74349 0.63998 0.0
C154 C 0.70904 0.58037 0.63133 0.0
C155 C 0.72099 0.53058 0.60441 0.0
C156 C 0.68712 0.48423 0.62823 0.0
C157 C 0.63977 0.48663 0.67914 0.0
C158 C 0.62799 0.53669 0.70649 0.0
C159 C 0.66227 0.58341 0.68241 0.0
P160 P 0.83327 0.75457 0.16517 0.0
H161 H 0.93039 0.80647 0.24941 0.0
H162 H 0.94572 0.89951 0.28385 0.0
H163 H 0.76458 0.94006 0.19331 0.0
H164 H 0.74808 0.84642 0.16144 0.0
H165 H 0.76431 0.67566 0.08677 0.0
H166 H 0.66354 0.62509 0.1045 0.0
H167 H 0.6307 0.70662 0.28923 0.0
H168 H 0.73354 0.75706 0.27154 0.0
H169 H 0.90001 0.68352 0.0767 0.0
H170 H 0.8126 0.83871 0.05584 0.0
O171 O 0.8859 0.71475 0.2043 0.0
H172 H 0.94799 0.69819 0.96411 0.0
H173 H 0.86165 0.85365 0.94344 0.0
C174 C 0.8382 0.81963 0.20237 0.0
C175 C 0.8929 0.83487 0.2389 0.0
C176 C 0.90151 0.88798 0.25908 0.0
C177 C 0.85626 0.92683 0.24136 0.0
C178 C 0.80003 0.91073 0.20787 0.0
C179 C 0.79073 0.85739 0.18928 0.0
C180 C 0.75552 0.7215 0.17656 0.0
C181 C 0.73536 0.6834 0.1307 0.0
C182 C 0.67767 0.65415 0.14121 0.0
C183 C 0.63908 0.66181 0.1984 0.0
C184 C 0.65973 0.69945 0.24512 0.0
C185 C 0.71793 0.72884 0.23448 0.0
C186 C 0.85507 0.76099 0.07619 0.0
C187 C 0.8896 0.72011 0.04734 0.0
C188 C 0.91577 0.72794 0.98222 0.0
C189 C 0.90789 0.77677 0.94465 0.0
C190 C 0.86724 0.8151 0.97053 0.0
C191 C 0.84063 0.80711 1.03579 0.0
P192 P 0.25655 0.87028 0.37431 0.0
H193 H 0.28274 0.8639 0.52161 0.0
H194 H 0.21016 0.85929 0.62089 0.0
H195 H 0.04767 0.8413 0.48907 0.0
H196 H 0.11888 0.84561 0.39165 0.0
H197 H 0.35531 0.8438 0.27727 0.0
H198 H 0.38505 0.75723 0.23369 0.0
H199 H 0.21089 0.68279 0.31963 0.0
H200 H 0.18159 0.76851 0.36322 0.0
H201 H 0.25688 -0.01233 0.37102 0.0
H202 H 0.16205 0.85871 0.26736 0.0
O203 O 0.3277 0.89641 0.39662 0.0
H204 H 0.16913 0.04687 0.34108 0.0
H205 H 0.07255 0.91678 0.24148 0.0
C206 C 0.20636 0.85618 0.44874 0.0
C207 C 0.23159 0.85778 0.51433 0.0
C208 C 0.19024 0.85464 0.57112 0.0
C209 C 0.12334 0.85023 0.56257 0.0
C210 C 0.09902 0.84508 0.4972 0.0
C211 C 0.13996 0.84789 0.44114 0.0
C212 C 0.2685 0.81149 0.3271 0.0
C213 C 0.32265 0.80912 0.28494 0.0
C214 C 0.33868 0.76006 0.25838 0.0
C215 C 0.30083 0.71337 0.27491 0.0
C216 C 0.24099 0.71834 0.30681 0.0
C217 C 0.22514 0.76716 0.33343 0.0
C218 C 0.21538 0.91869 0.32235 0.0
C219 C 0.21917 0.97301 0.33861 0.0
C220 C 0.16903 0.00682 0.3214 0.0
C221 C 0.11432 -0.01434 0.28993 0.0
C222 C 0.11474 0.93368 0.26547 0.0
C223 C 0.16591 0.90052 0.28057 0.0
P224 P 0.39637 0.70888 0.84047 0.0
H225 H 0.38175 0.62874 0.73225 0.0
H226 H 0.41687 0.53501 0.72923 0.0
H227 H 0.53228 0.55888 0.90572 0.0
H228 H 0.497 0.65138 0.9094 0.0
H229 H 0.35075 0.80897 0.77613 0.0
H230 H 0.24362 0.83462 0.74081 0.0
H231 H 0.17801 0.66793 0.76335 0.0
H232 H 0.28515 0.64225 0.79824 0.0
H233 H 0.45307 0.7539 0.96277 0.0
H234 H 0.29411 0.64693 0.91577 0.0
O235 O 0.4511 0.75905 0.82757 0.0
H236 H 0.44714 0.7201 0.08083 0.0
H237 H 0.28833 0.6135 1.03288 0.0
C238 C 0.43426 0.64627 0.82319 0.0
C239 C 0.41531 0.61413 0.76972 0.0
C240 C 0.43631 0.56091 0.7671 0.0
C241 C 0.47705 0.54001 0.81737 0.0
C242 C 0.50101 0.57425 0.86627 0.0
C243 C 0.48026 0.62698 0.86877 0.0
C244 C 0.32605 0.72372 0.79078 0.0
C245 C 0.31429 0.77746 0.77032 0.0
C246 C 0.25304 0.7921 0.74896 0.0
C247 C 0.20241 0.75326 0.74923 0.0
C248 C 0.2163 0.69863 0.76207 0.0
C249 C 0.27758 0.68401 0.78292 0.0
C250 C 0.37433 0.70286 0.92962 0.0
C251 C 0.41452 0.72553 0.97822 0.0
C252 C 0.41052 0.7067 0.04626 0.0
C253 C 0.36701 0.66428 0.06629 0.0
C254 C 0.32161 0.64683 1.01927 0.0
C255 C 0.32545 0.6657 0.9516 0.0
Zn256 Zn 0.97529 0.04139 0.40439 0.0
Zn257 Zn 0.89353 0.09144 0.20152 0.0
Zn258 Zn 0.94692 0.08388 0.30752 0.0
C259 C 0.02662 0.12166 0.17864 0.0
C260 C 0.87282 -0.01512 0.24526 0.0
O261 O 0.90798 0.12257 0.39565 0.0
O262 O 0.88854 0.04466 0.45033 0.0
C263 C 0.0659 0.12741 0.37964 0.0
O264 O 0.02987 0.10882 0.24243 0.0
O265 O 0.97284 0.11872 0.14933 0.0
O266 O 0.86153 0.0156 0.19436 0.0
O267 O 0.90361 0.00351 0.29513 0.0
O268 O 0.03708 0.10344 0.42961 0.0
O269 O 0.04786 0.1155 0.31954 0.0
O270 O 0.0439 0.05958 0.28894 0.0
O271 O 0.01591 -0.01548 0.34712 0.0
C272 C 0.05291 0.00939 0.3039 0.0
O273 O 0.88952 0.15186 0.32505 0.0
O274 O 0.832 0.14402 0.23284 0.0
C275 C 0.88365 0.09567 0.44732 0.0
C276 C 0.84314 0.16672 0.28744 0.0
Zn277 Zn 0.56429 0.33085 0.70242 0.0
Zn278 Zn 0.47641 0.38712 0.9082 0.0
Zn279 Zn 0.52524 0.36039 0.80072 0.0
C280 C 0.48141 0.48142 0.83114 0.0
C281 C 0.39499 0.30586 0.86665 0.0
O282 O 0.61554 0.31509 0.81751 0.0
O283 O 0.60002 0.26106 0.73406 0.0
C284 C 0.60538 0.43606 0.70313 0.0
O285 O 0.51185 0.45046 0.79205 0.0
O286 O 0.45739 0.46254 0.88624 0.0
O287 O 0.40382 0.33499 0.91645 0.0
O288 O 0.43367 0.31092 0.81518 0.0
O289 O 0.62597 0.39194 0.68394 0.0
O290 O 0.55595 0.43525 0.74294 0.0
O291 O 0.44913 0.31204 0.74592 0.0
O292 O 0.49013 0.32723 0.64354 0.0
C293 C 0.44399 0.31032 0.68105 0.0
O294 O 0.59745 0.33863 0.8785 0.0
O295 O 0.55202 0.37512 0.96582 0.0
C296 C 0.63142 0.27325 0.7856 0.0
C297 C 0.59883 0.35174 0.94056 0.0
Zn298 Zn 0.07989 0.81429 0.85736 0.0
Zn299 Zn 0.96721 0.8987 0.67645 0.0
Zn300 Zn 0.02732 0.85774 0.77081 0.0
C301 C -0.0139 -0.01764 0.75829 0.0
C302 C 0.88678 0.81491 0.72261 0.0
O303 O 0.11627 0.81616 0.73795 0.0
O304 O 0.10868 0.74888 0.81378 0.0
C305 C 0.1205 0.91998 0.86259 0.0
O306 O 0.01891 0.94584 0.78957 0.0
O307 O 0.95629 0.97181 0.70524 0.0
O308 O 0.89002 0.85235 0.6773 0.0
O309 O 0.93236 0.81075 0.76651 0.0
O310 O 0.1436 0.87395 0.87389 0.0
O311 O 0.06737 0.92377 0.82987 0.0
O312 O 0.95502 0.80745 0.83523 0.0
O313 O 0.01478 0.80191 0.92657 0.0
C314 C 0.961 0.79562 0.89913 0.0
O315 O 0.08591 0.84274 0.67938 0.0
O316 O 0.02925 0.88751 0.60303 0.0
C317 C 0.13655 0.77061 0.76227 0.0
C318 C 0.07754 0.85997 0.61782 0.0
Zn319 Zn 0.47352 0.56091 0.15679 0.0
Zn320 Zn 0.39334 0.59251 0.38239 0.0
Zn321 Zn 0.45218 0.59057 0.2677 0.0
C322 C 0.52323 0.63239 0.39762 0.0
C323 C 0.37685 0.48862 0.35622 0.0
O324 O 0.40372 0.63809 0.17972 0.0
O325 O 0.40111 0.57931 0.09981 0.0
C326 C 0.57694 0.63148 0.2063 0.0
O327 O 0.52612 0.62629 0.33338 0.0
O328 O 0.472 0.61932 0.43019 0.0
O329 O 0.35674 0.51882 0.40066 0.0
O330 O 0.41398 0.50848 0.3079 0.0
O331 O 0.55201 0.61184 0.15428 0.0
O332 O 0.54811 0.62463 0.26377 0.0
O333 O 0.46672 0.50219 0.26317 0.0
O334 O 0.49428 0.48578 0.15852 0.0
C335 C 0.48812 0.46995 0.21954 0.0
O336 O 0.3763 0.64662 0.24784 0.0
O337 O 0.33224 0.64547 0.34977 0.0
C338 C 0.38675 0.62481 0.11975 0.0
C339 C 0.33437 0.66336 0.28908 0.0
loop_
_geom_bond_atom_site_label_1
_geom_bond_atom_site_label_2
_geom_bond_distance
_geom_bond_site_symmetry_2
_ccdc_geom_bond_type
P0 O11 1.490 . S
P0 C14 1.812 . S
P0 C20 1.803 . S
P0 C26 1.819 . S
H1 C15 0.941 . S
H2 C16 0.939 . S
H3 C18 0.940 . S
H4 C19 0.940 . S
H5 C21 0.939 . S
H6 C22 0.942 . S
H7 C24 0.940 . S
H8 C25 0.939 . S
H9 C27 0.941 . S
H10 C31 0.939 . S
O11 P0 1.490 . S
H12 C28 0.939 . S
H13 C30 0.940 . S
C14 P0 1.812 . S
C14 C15 1.389 . S
C14 C19 1.391 . S
C15 H1 0.941 . S
C15 C14 1.389 . S
C15 C16 1.397 . S
C16 H2 0.939 . S
C16 C15 1.397 . S
C16 C17 1.378 . S
C17 C16 1.378 . S
C17 C18 1.378 . S
C18 H3 0.940 . S
C18 C17 1.378 . S
C18 C19 1.396 . S
C19 H4 0.940 . S
C19 C14 1.391 . S
C19 C18 1.396 . S
C20 P0 1.803 . S
C20 C21 1.378 . S
C20 C25 1.400 . S
C21 H5 0.939 . S
C21 C20 1.378 . S
C21 C22 1.361 . S
C22 H6 0.942 . S
C22 C21 1.361 . S
C22 C23 1.369 . S
C23 C22 1.369 . S
C23 C24 1.404 . S
C24 H7 0.940 . S
C24 C23 1.404 . S
C24 C25 1.389 . S
C25 H8 0.939 . S
C25 C20 1.400 . S
C25 C24 1.389 . S
C26 P0 1.819 . S
C26 C27 1.391 . S
C26 C31 1.391 . S
C27 H9 0.941 . S
C27 C26 1.391 . S
C27 C28 1.396 . S
C28 H12 0.939 . S
C28 C27 1.396 . S
C28 C29 1.397 . S
C29 C28 1.397 . S
C29 C30 1.385 . S
C30 H13 0.940 . S
C30 C29 1.385 . S
C30 C31 1.388 . S
C31 H10 0.939 . S
C31 C26 1.391 . S
C31 C30 1.388 . S
P32 O43 1.490 . S
P32 C46 1.812 . S
P32 C52 1.803 . S
P32 C58 1.819 . S
H33 C47 0.941 . S
H34 C48 0.939 . S
H35 C50 0.940 . S
H36 C51 0.940 . S
H37 C53 0.939 . S
H38 C54 0.942 . S
H39 C56 0.940 . S
H40 C57 0.939 . S
H41 C59 0.941 . S
H42 C63 0.939 . S
O43 P32 1.490 . S
H44 C60 0.939 . S
H45 C62 0.940 . S
C46 P32 1.812 . S
C46 C47 1.389 . S
C46 C51 1.391 . S
C47 H33 0.941 . S
C47 C46 1.389 . S
C47 C48 1.397 1_545 S
C48 H34 0.939 . S
C48 C47 1.397 1_565 S
C48 C49 1.378 1_565 S
C49 C48 1.378 1_545 S
C49 C50 1.378 . S
C50 H35 0.940 . S
C50 C49 1.378 . S
C50 C51 1.396 . S
C51 H36 0.940 . S
C51 C46 1.391 . S
C51 C50 1.396 . S
C52 P32 1.803 . S
C52 C53 1.378 . S
C52 C57 1.400 . S
C53 H37 0.939 . S
C53 C52 1.378 . S
C53 C54 1.361 . S
C54 H38 0.942 . S
C54 C53 1.361 . S
C54 C55 1.369 . S
C55 C54 1.369 . S
C55 C56 1.404 . S
C56 H39 0.940 . S
C56 C55 1.404 . S
C56 C57 1.389 . S
C57 H40 0.939 . S
C57 C52 1.400 . S
C57 C56 1.389 . S
C58 P32 1.819 . S
C58 C59 1.391 1_556 S
C58 C63 1.391 . S
C59 H41 0.941 . S
C59 C58 1.391 1_554 S
C59 C60 1.396 . S
C60 H44 0.939 . S
C60 C59 1.396 . S
C60 C61 1.397 . S
C61 C60 1.397 . S
C61 C62 1.385 . S
C62 H45 0.940 . S
C62 C61 1.385 . S
C62 C63 1.388 1_554 S
C63 H42 0.939 . S
C63 C58 1.391 . S
C63 C62 1.388 1_556 S
P64 O75 1.490 . S
P64 C78 1.812 . S
P64 C84 1.803 . S
P64 C90 1.819 . S
H65 C79 0.941 . S
H66 C80 0.939 . S
H67 C82 0.940 . S
H68 C83 0.940 . S
H69 C85 0.939 . S
H70 C86 0.942 . S
H71 C88 0.940 . S
H72 C89 0.939 . S
H73 C91 0.941 1_455 S
H74 C95 0.939 . S
O75 P64 1.490 . S
H76 C92 0.939 1_455 S
H77 C94 0.940 . S
C78 P64 1.812 . S
C78 C79 1.389 . S
C78 C83 1.391 . S
C79 H65 0.941 . S
C79 C78 1.389 . S
C79 C80 1.397 . S
C80 H66 0.939 . S
C80 C79 1.397 . S
C80 C81 1.378 . S
C81 C80 1.378 . S
C81 C82 1.378 . S
C82 H67 0.940 . S
C82 C81 1.378 . S
C82 C83 1.396 . S
C83 H68 0.940 . S
C83 C78 1.391 . S
C83 C82 1.396 . S
C84 P64 1.803 . S
C84 C85 1.378 . S
C84 C89 1.400 . S
C85 H69 0.939 . S
C85 C84 1.378 . S
C85 C86 1.361 . S
C86 H70 0.942 . S
C86 C85 1.361 . S
C86 C87 1.369 . S
C87 C86 1.369 . S
C87 C88 1.404 . S
C88 H71 0.940 . S
C88 C87 1.404 . S
C88 C89 1.389 . S
C89 H72 0.939 . S
C89 C84 1.400 . S
C89 C88 1.389 . S
C90 P64 1.819 . S
C90 C91 1.391 . S
C90 C95 1.391 . S
C91 H73 0.941 1_655 S
C91 C90 1.391 . S
C91 C92 1.396 . S
C92 H76 0.939 1_655 S
C92 C91 1.396 . S
C92 C93 1.397 . S
C93 C92 1.397 . S
C93 C94 1.385 . S
C94 H77 0.940 . S
C94 C93 1.385 . S
C94 C95 1.388 . S
C95 H74 0.939 . S
C95 C90 1.391 . S
C95 C94 1.388 . S
P96 O107 1.490 . S
P96 C110 1.812 . S
P96 C116 1.803 . S
P96 C122 1.819 . S
H97 C111 0.941 . S
H98 C112 0.939 . S
H99 C114 0.940 . S
H100 C115 0.940 . S
H101 C117 0.939 . S
H102 C118 0.942 . S
H103 C120 0.940 . S
H104 C121 0.939 . S
H105 C123 0.941 . S
H106 C127 0.939 . S
O107 P96 1.490 . S
H108 C124 0.939 . S
H109 C126 0.940 . S
C110 P96 1.812 . S
C110 C111 1.389 . S
C110 C115 1.391 . S
C111 H97 0.941 . S
C111 C110 1.389 . S
C111 C112 1.397 . S
C112 H98 0.939 . S
C112 C111 1.397 . S
C112 C113 1.378 . S
C113 C112 1.378 . S
C113 C114 1.378 . S
C114 H99 0.940 . S
C114 C113 1.378 . S
C114 C115 1.396 . S
C115 H100 0.940 . S
C115 C110 1.391 . S
C115 C114 1.396 . S
C116 P96 1.803 . S
C116 C117 1.378 . S
C116 C121 1.400 . S
C117 H101 0.939 . S
C117 C116 1.378 . S
C117 C118 1.361 . S
C118 H102 0.942 . S
C118 C117 1.361 . S
C118 C119 1.369 . S
C119 C118 1.369 . S
C119 C120 1.404 . S
C120 H103 0.940 . S
C120 C119 1.404 . S
C120 C121 1.389 . S
C121 H104 0.939 . S
C121 C116 1.400 . S
C121 C120 1.389 . S
C122 P96 1.819 . S
C122 C123 1.391 1_554 S
C122 C127 1.391 . S
C123 H105 0.941 . S
C123 C122 1.391 1_556 S
C123 C124 1.396 . S
C124 H108 0.939 . S
C124 C123 1.396 . S
C124 C125 1.397 . S
C125 C124 1.397 . S
C125 C126 1.385 . S
C126 H109 0.940 . S
C126 C125 1.385 . S
C126 C127 1.388 1_556 S
C127 H106 0.939 . S
C127 C122 1.391 . S
C127 C126 1.388 1_554 S
P128 O139 1.490 . S
P128 C142 1.812 . S
P128 C148 1.803 . S
P128 C154 1.819 . S
H129 C143 0.941 . S
H130 C144 0.939 . S
H131 C146 0.940 . S
H132 C147 0.940 . S
H133 C149 0.939 . S
H134 C150 0.942 . S
H135 C152 0.940 . S
H136 C153 0.939 . S
H137 C155 0.941 . S
H138 C159 0.939 . S
O139 P128 1.490 . S
H140 C156 0.939 . S
H141 C158 0.940 . S
C142 P128 1.812 . S
C142 C143 1.389 . S
C142 C147 1.391 . S
C143 H129 0.941 . S
C143 C142 1.389 . S
C143 C144 1.397 . S
C144 H130 0.939 . S
C144 C143 1.397 . S
C144 C145 1.378 . S
C145 C144 1.378 . S
C145 C146 1.378 . S
C146 H131 0.940 . S
C146 C145 1.378 . S
C146 C147 1.396 . S
C147 H132 0.940 . S
C147 C142 1.391 . S
C147 C146 1.396 . S
C148 P128 1.803 . S
C148 C149 1.378 . S
C148 C153 1.400 . S
C149 H133 0.939 . S
C149 C148 1.378 . S
C149 C150 1.361 . S
C150 H134 0.942 . S
C150 C149 1.361 . S
C150 C151 1.369 . S
C151 C150 1.369 . S
C151 C152 1.404 . S
C152 H135 0.940 . S
C152 C151 1.404 . S
C152 C153 1.389 . S
C153 H136 0.939 . S
C153 C148 1.400 . S
C153 C152 1.389 . S
C154 P128 1.819 . S
C154 C155 1.391 . S
C154 C159 1.391 . S
C155 H137 0.941 . S
C155 C154 1.391 . S
C155 C156 1.396 . S
C156 H140 0.939 . S
C156 C155 1.396 . S
C156 C157 1.397 . S
C157 C156 1.397 . S
C157 C158 1.385 . S
C158 H141 0.940 . S
C158 C157 1.385 . S
C158 C159 1.388 . S
C159 H138 0.939 . S
C159 C154 1.391 . S
C159 C158 1.388 . S
P160 O171 1.490 . S
P160 C174 1.812 . S
P160 C180 1.803 . S
P160 C186 1.819 . S
H161 C175 0.941 . S
H162 C176 0.939 . S
H163 C178 0.944 . S
H164 C179 0.940 . S
H165 C181 0.939 . S
H166 C182 0.942 . S
H167 C184 0.940 . S
H168 C185 0.939 . S
H169 C187 0.943 . S
H170 C191 0.939 . S
O171 P160 1.490 . S
H172 C188 0.939 1_455 S
H173 C190 0.940 . S
C174 P160 1.812 . S
C174 C175 1.389 . S
C174 C179 1.391 . S
C175 H161 0.941 . S
C175 C174 1.389 . S
C175 C176 1.397 . S
C176 H162 0.939 . S
C176 C175 1.397 . S
C176 C177 1.378 . S
C177 C176 1.378 . S
C177 C178 1.378 . S
C178 H163 0.944 . S
C178 C177 1.378 . S
C178 C179 1.396 . S
C179 H164 0.940 . S
C179 C174 1.391 . S
C179 C178 1.396 . S
C180 P160 1.803 . S
C180 C181 1.378 . S
C180 C185 1.400 . S
C181 H165 0.939 . S
C181 C180 1.378 . S
C181 C182 1.361 . S
C182 H166 0.942 . S
C182 C181 1.361 . S
C182 C183 1.369 . S
C183 C182 1.369 . S
C183 C184 1.404 . S
C184 H167 0.940 . S
C184 C183 1.404 . S
C184 C185 1.389 . S
C185 H168 0.939 . S
C185 C180 1.400 . S
C185 C184 1.389 . S
C186 P160 1.819 . S
C186 C187 1.391 . S
C186 C191 1.391 . S
C187 H169 0.943 . S
C187 C186 1.391 . S
C187 C188 1.396 1_554 S
C188 H172 0.939 1_655 S
C188 C187 1.396 1_556 S
C188 C189 1.397 . S
C189 C188 1.397 . S
C189 C190 1.385 . S
C190 H173 0.940 . S
C190 C189 1.385 . S
C190 C191 1.388 1_556 S
C191 H170 0.939 . S
C191 C186 1.391 . S
C191 C190 1.388 1_554 S
P192 O203 1.490 . S
P192 C206 1.812 . S
P192 C212 1.803 . S
P192 C218 1.819 . S
H193 C207 0.941 . S
H194 C208 0.939 . S
H195 C210 0.940 . S
H196 C211 0.940 . S
H197 C213 0.939 . S
H198 C214 0.942 . S
H199 C216 0.940 . S
H200 C217 0.939 . S
H201 C219 0.941 . S
H202 C223 0.939 . S
O203 P192 1.490 . S
H204 C220 0.939 . S
H205 C222 0.940 . S
C206 P192 1.812 . S
C206 C207 1.389 . S
C206 C211 1.391 . S
C207 H193 0.941 . S
C207 C206 1.389 . S
C207 C208 1.397 . S
C208 H194 0.939 . S
C208 C207 1.397 . S
C208 C209 1.378 . S
C209 C208 1.378 . S
C209 C210 1.378 . S
C210 H195 0.940 . S
C210 C209 1.378 . S
C210 C211 1.396 . S
C211 H196 0.940 . S
C211 C206 1.391 . S
C211 C210 1.396 . S
C212 P192 1.803 . S
C212 C213 1.378 . S
C212 C217 1.400 . S
C213 H197 0.939 . S
C213 C212 1.378 . S
C213 C214 1.361 . S
C214 H198 0.942 . S
C214 C213 1.361 . S
C214 C215 1.369 . S
C215 C214 1.369 . S
C215 C216 1.404 . S
C216 H199 0.940 . S
C216 C215 1.404 . S
C216 C217 1.389 . S
C217 H200 0.939 . S
C217 C212 1.400 . S
C217 C216 1.389 . S
C218 P192 1.819 . S
C218 C219 1.391 . S
C218 C223 1.391 . S
C219 H201 0.941 . S
C219 C218 1.391 . S
C219 C220 1.396 1_565 S
C220 H204 0.939 . S
C220 C219 1.396 1_545 S
C220 C221 1.397 1_545 S
C221 C220 1.397 1_565 S
C221 C222 1.385 . S
C222 H205 0.940 . S
C222 C221 1.385 . S
C222 C223 1.388 . S
C223 H202 0.939 . S
C223 C218 1.391 . S
C223 C222 1.388 . S
P224 O235 1.490 . S
P224 C238 1.812 . S
P224 C244 1.803 . S
P224 C250 1.819 . S
H225 C239 0.941 . S
H226 C240 0.939 . S
H227 C242 0.940 . S
H228 C243 0.940 . S
H229 C245 0.939 . S
H230 C246 0.942 . S
H231 C248 0.940 . S
H232 C249 0.939 . S
H233 C251 0.941 . S
H234 C255 0.939 . S
O235 P224 1.490 . S
H236 C252 0.939 . S
H237 C254 0.940 . S
C238 P224 1.812 . S
C238 C239 1.389 . S
C238 C243 1.391 . S
C239 H225 0.941 . S
C239 C238 1.389 . S
C239 C240 1.397 . S
C240 H226 0.939 . S
C240 C239 1.397 . S
C240 C241 1.378 . S
C241 C240 1.378 . S
C241 C242 1.378 . S
C242 H227 0.940 . S
C242 C241 1.378 . S
C242 C243 1.396 . S
C243 H228 0.940 . S
C243 C238 1.391 . S
C243 C242 1.396 . S
C244 P224 1.803 . S
C244 C245 1.378 . S
C244 C249 1.400 . S
C245 H229 0.939 . S
C245 C244 1.378 . S
C245 C246 1.361 . S
C246 H230 0.942 . S
C246 C245 1.361 . S
C246 C247 1.369 . S
C247 C246 1.369 . S
C247 C248 1.404 . S
C248 H231 0.940 . S
C248 C247 1.404 . S
C248 C249 1.389 . S
C249 H232 0.939 . S
C249 C244 1.400 . S
C249 C248 1.389 . S
C250 P224 1.819 . S
C250 C251 1.391 . S
C250 C255 1.391 . S
C251 H233 0.941 . S
C251 C250 1.391 . S
C251 C252 1.396 1_556 S
C252 H236 0.939 . S
C252 C251 1.396 1_554 S
C252 C253 1.397 . S
C253 C252 1.397 . S
C253 C254 1.385 . S
C254 H237 0.940 . S
C254 C253 1.385 . S
C254 C255 1.388 1_554 S
C255 H234 0.939 . S
C255 C250 1.391 . S
C255 C254 1.388 1_556 S
Zn256 O262 1.920 . S
Zn256 O268 1.898 . S
Zn256 O271 1.905 . S
Zn257 O265 1.905 1_655 S
Zn257 O266 1.898 . S
Zn257 O274 1.920 . S
Zn258 O261 2.080 1_455 S
Zn258 O264 2.114 . S
Zn258 O267 2.120 1_455 S
Zn258 O269 2.120 . S
Zn258 O270 2.114 . S
Zn258 O273 2.080 1_455 S
C259 O264 1.166 . S
C259 O265 1.182 . S
C260 O266 1.167 . S
C260 O267 1.299 . S
O261 Zn258 2.080 1_655 S
O261 C275 1.305 . S
O262 Zn256 1.920 . S
O262 C275 1.234 1_455 S
C263 O268 1.167 . S
C263 O269 1.299 . S
O264 Zn258 2.114 . S
O264 C259 1.166 . S
O265 Zn257 1.905 1_455 S
O265 C259 1.182 . S
O266 Zn257 1.898 . S
O266 C260 1.167 . S
O267 Zn258 2.120 1_655 S
O267 C260 1.299 . S
O268 Zn256 1.898 . S
O268 C263 1.167 . S
O269 Zn258 2.120 . S
O269 C263 1.299 . S
O270 Zn258 2.114 . S
O270 C272 1.166 . S
O271 Zn256 1.905 . S
O271 C272 1.182 . S
C272 O270 1.166 . S
C272 O271 1.182 . S
O273 Zn258 2.080 1_655 S
O273 C276 1.305 . S
O274 Zn257 1.920 . S
O274 C276 1.234 . S
C275 O261 1.305 . S
C275 O262 1.234 1_655 S
C276 O273 1.305 . S
C276 O274 1.234 . S
Zn277 O283 1.920 . S
Zn277 O289 1.898 . S
Zn277 O292 1.905 . S
Zn278 O286 1.905 . S
Zn278 O287 1.898 . S
Zn278 O295 1.920 . S
Zn279 O282 2.080 . S
Zn279 O285 2.114 . S
Zn279 O288 2.120 . S
Zn279 O290 2.120 . S
Zn279 O291 2.114 . S
Zn279 O294 2.080 . S
C280 O285 1.166 . S
C280 O286 1.182 . S
C281 O287 1.167 . S
C281 O288 1.299 . S
O282 Zn279 2.080 . S
O282 C296 1.305 . S
O283 Zn277 1.920 . S
O283 C296 1.234 . S
C284 O289 1.167 . S
C284 O290 1.299 . S
O285 Zn279 2.114 . S
O285 C280 1.166 . S
O286 Zn278 1.905 . S
O286 C280 1.182 . S
O287 Zn278 1.898 . S
O287 C281 1.167 . S
O288 Zn279 2.120 . S
O288 C281 1.299 . S
O289 Zn277 1.898 . S
O289 C284 1.167 . S
O290 Zn279 2.120 . S
O290 C284 1.299 . S
O291 Zn279 2.114 . S
O291 C293 1.166 . S
O292 Zn277 1.905 . S
O292 C293 1.182 . S
C293 O291 1.166 . S
C293 O292 1.182 . S
O294 Zn279 2.080 . S
O294 C297 1.305 . S
O295 Zn278 1.920 . S
O295 C297 1.234 . S
C296 O282 1.305 . S
C296 O283 1.234 . S
C297 O294 1.305 . S
C297 O295 1.234 . S
Zn298 O304 1.920 . S
Zn298 O310 1.898 . S
Zn298 O313 1.905 1_455 S
Zn299 O307 1.905 . S
Zn299 O308 1.898 . S
Zn299 O316 1.920 1_655 S
Zn300 O303 2.080 . S
Zn300 O306 2.114 1_455 S
Zn300 O309 2.120 1_455 S
Zn300 O311 2.120 . S
Zn300 O312 2.114 1_455 S
Zn300 O315 2.080 . S
C301 O306 1.166 . S
C301 O307 1.182 . S
C302 O308 1.167 . S
C302 O309 1.299 . S
O303 Zn300 2.080 . S
O303 C317 1.305 . S
O304 Zn298 1.920 . S
O304 C317 1.234 . S
C305 O310 1.167 . S
C305 O311 1.299 . S
O306 Zn300 2.114 1_655 S
O306 C301 1.166 . S
O307 Zn299 1.905 . S
O307 C301 1.182 . S
O308 Zn299 1.898 . S
O308 C302 1.167 . S
O309 Zn300 2.120 1_655 S
O309 C302 1.299 . S
O310 Zn298 1.898 . S
O310 C305 1.167 . S
O311 Zn300 2.120 . S
O311 C305 1.299 . S
O312 Zn300 2.114 1_655 S
O312 C314 1.166 . S
O313 Zn298 1.905 1_655 S
O313 C314 1.182 . S
C314 O312 1.166 . S
C314 O313 1.182 . S
O315 Zn300 2.080 . S
O315 C318 1.305 . S
O316 Zn299 1.920 1_455 S
O316 C318 1.234 . S
C317 O303 1.305 . S
C317 O304 1.234 . S
C318 O315 1.305 . S
C318 O316 1.234 . S
Zn319 O325 1.920 . S
Zn319 O331 1.898 . S
Zn319 O334 1.905 . S
Zn320 O328 1.905 . S
Zn320 O329 1.898 . S
Zn320 O337 1.920 . S
Zn321 O324 2.080 . S
Zn321 O327 2.114 . S
Zn321 O330 2.120 . S
Zn321 O332 2.120 . S
Zn321 O333 2.114 . S
Zn321 O336 2.080 . S
C322 O327 1.166 . S
C322 O328 1.182 . S
C323 O329 1.167 . S
C323 O330 1.299 . S
O324 Zn321 2.080 . S
O324 C338 1.305 . S
O325 Zn319 1.920 . S
O325 C338 1.234 . S
C326 O331 1.167 . S
C326 O332 1.299 . S
O327 Zn321 2.114 . S
O327 C322 1.166 . S
O328 Zn320 1.905 . S
O328 C322 1.182 . S
O329 Zn320 1.898 . S
O329 C323 1.167 . S
O330 Zn321 2.120 . S
O330 C323 1.299 . S
O331 Zn319 1.898 . S
O331 C326 1.167 . S
O332 Zn321 2.120 . S
O332 C326 1.299 . S
O333 Zn321 2.114 . S
O333 C335 1.166 . S
O334 Zn319 1.905 . S
O334 C335 1.182 . S
C335 O333 1.166 . S
C335 O334 1.182 . S
O336 Zn321 2.080 . S
O336 C339 1.305 . S
O337 Zn320 1.920 . S
O337 C339 1.234 . S
C338 O324 1.305 . S
C338 O325 1.234 . S
C339 O336 1.305 . S
C339 O337 1.234 . S
C221 C272 1.752 1_565 S
C280 C241 1.998 . S
C284 C157 1.724 . S
C177 C260 1.985 1_565 S
C301 C93 2.066 1_565 S
C335 C113 1.746 . S
C29 C323 2.055 . S
C49 C305 1.717 1_545 S
C259 C61 1.364 . S
C293 C17 1.335 . S
C297 C125 1.382 . S
C275 C81 1.313 . S
C314 C189 1.317 . S
C145 C322 1.347 . S
C338 C253 1.297 . S
C209 C318 1.357 . S
C263 C23 1.299 . S
C281 C55 1.144 . S
C87 C296 1.289 . S
C276 C119 1.156 . S
C302 C151 1.135 . S
C183 C326 1.315 . S
C215 C339 1.145 . S
C247 C317 1.305 . S
