# Generated by pormake.
# Topology nom, (4,4)-cn, num edge types: 1
# Building blocks:
#     Node 0, Type 0, BuildingBlock: NAHDIM_clean_linker_0, # of connection points: 4
#     Node 1, Type 0, BuildingBlock: NAHDIM_clean_linker_0, # of connection points: 4
#     Node 2, Type 0, BuildingBlock: NAHDIM_clean_linker_0, # of connection points: 4
#     Node 3, Type 0, BuildingBlock: NAHDIM_clean_linker_0, # of connection points: 4
#     Node 4, Type 0, BuildingBlock: NAHDIM_clean_linker_0, # of connection points: 4
#     Node 5, Type 0, BuildingBlock: NAHDIM_clean_linker_0, # of connection points: 4
#     Node 6, Type 1, BuildingBlock: QUQFOY_clean_sbu_3, # of connection points: 4
#     Node 7, Type 1, BuildingBlock: QUQFOY_clean_sbu_3, # of connection points: 4
#     Node 8, Type 1, BuildingBlock: QUQFOY_clean_sbu_3, # of connection points: 4
#     Node 9, Type 1, BuildingBlock: QUQFOY_clean_sbu_3, # of connection points: 4
#     Node 10, Type 1, BuildingBlock: QUQFOY_clean_sbu_3, # of connection points: 4
#     Node 11, Type 1, BuildingBlock: QUQFOY_clean_sbu_3, # of connection points: 4
#     Edge 12, Type (0, 1), BuildingBlock: UVAHIK_clean_linker_0, # of connection points: 2
#     Edge 13, Type (0, 1), BuildingBlock: UVAHIK_clean_linker_0, # of connection points: 2
#     Edge 14, Type (0, 1), BuildingBlock: UVAHIK_clean_linker_0, # of connection points: 2
#     Edge 15, Type (0, 1), BuildingBlock: UVAHIK_clean_linker_0, # of connection points: 2
#     Edge 16, Type (0, 1), BuildingBlock: UVAHIK_clean_linker_0, # of connection points: 2
#     Edge 17, Type (0, 1), BuildingBlock: UVAHIK_clean_linker_0, # of connection points: 2
#     Edge 18, Type (0, 1), BuildingBlock: UVAHIK_clean_linker_0, # of connection points: 2
#     Edge 19, Type (0, 1), BuildingBlock: UVAHIK_clean_linker_0, # of connection points: 2
#     Edge 20, Type (0, 1), BuildingBlock: UVAHIK_clean_linker_0, # of connection points: 2
#     Edge 21, Type (0, 1), BuildingBlock: UVAHIK_clean_linker_0, # of connection points: 2
#     Edge 22, Type (0, 1), BuildingBlock: UVAHIK_clean_linker_0, # of connection points: 2
#     Edge 23, Type (0, 1), BuildingBlock: UVAHIK_clean_linker_0, # of connection points: 2
#     Edge 24, Type (0, 1), BuildingBlock: UVAHIK_clean_linker_0, # of connection points: 2
#     Edge 25, Type (0, 1), BuildingBlock: UVAHIK_clean_linker_0, # of connection points: 2
#     Edge 26, Type (0, 1), BuildingBlock: UVAHIK_clean_linker_0, # of connection points: 2
#     Edge 27, Type (0, 1), BuildingBlock: UVAHIK_clean_linker_0, # of connection points: 2
#     Edge 28, Type (0, 1), BuildingBlock: UVAHIK_clean_linker_0, # of connection points: 2
#     Edge 29, Type (0, 1), BuildingBlock: UVAHIK_clean_linker_0, # of connection points: 2
#     Edge 30, Type (0, 1), BuildingBlock: UVAHIK_clean_linker_0, # of connection points: 2
#     Edge 31, Type (0, 1), BuildingBlock: UVAHIK_clean_linker_0, # of connection points: 2
#     Edge 32, Type (0, 1), BuildingBlock: UVAHIK_clean_linker_0, # of connection points: 2
#     Edge 33, Type (0, 1), BuildingBlock: UVAHIK_clean_linker_0, # of connection points: 2
#     Edge 34, Type (0, 1), BuildingBlock: UVAHIK_clean_linker_0, # of connection points: 2
#     Edge 35, Type (0, 1), BuildingBlock: UVAHIK_clean_linker_0, # of connection points: 2
# Relax obj value: 0.047
# Max RMSD: 0.129
# Mean RMSD: 0.099
data_MOF--net-nom--node1-QUQFOY_clean_sbu_3--node2-NAHDIM_clean_linker_0--edge1-UVAHIK_clean_linker_0
_symmetry_space_group_name_H-M    P1
_symmetry_Int_Tables_number       1
_symmetry_cell_setting            triclinic
loop_
_symmetry_equiv_pos_as_xyz
'x, y, z'
_cell_length_a     69.943375
_cell_length_b     71.335944
_cell_length_c     85.410233
_cell_angle_alpha  90.109742
_cell_angle_beta   90.091994
_cell_angle_gamma 120.0605
loop_
_atom_site_label
_atom_site_type_symbol
_atom_site_fract_x
_atom_site_fract_y
_atom_site_fract_z
_atom_type_partial_charge
C0 C 0.12669 0.58334 0.2533 0.0
C1 C 0.13689 0.58742 0.26973 0.0
C2 C 0.1038 0.5766 0.28546 0.0
C3 C 0.09799 0.5551 0.28872 0.0
C4 C 0.07654 0.53999 0.29356 0.0
C5 C 0.06051 0.54645 0.29498 0.0
C6 C 0.06646 0.56823 0.29206 0.0
C7 C 0.08821 0.58312 0.28761 0.0
C8 C 0.07093 0.51702 0.29693 0.0
C9 C 0.04974 0.57565 0.29322 0.0
C10 C 0.98431 0.45064 0.21008 0.0
C11 C 0.97265 0.46037 0.21935 0.0
C12 C 0.97328 0.46198 0.24773 0.0
C13 C 0.97336 0.48156 0.24971 0.0
C14 C 0.98179 0.4938 0.26345 0.0
C15 C 0.99038 0.48631 0.27535 0.0
C16 C 0.98925 0.46602 0.27369 0.0
C17 C 0.98033 0.45393 0.25994 0.0
C18 C 0.98215 0.51504 0.26506 0.0
C19 C -0.00166 0.45758 0.28611 0.0
C20 C 0.89622 0.44234 0.35242 0.0
C21 C 0.90221 0.46387 0.3491 0.0
C22 C 0.9245 0.48018 0.34879 0.0
C23 C 0.94105 0.47482 0.35193 0.0
C24 C 0.93496 0.45345 0.35637 0.0
C25 C 0.91253 0.43748 0.35667 0.0
C26 C 0.93043 0.50297 0.34448 0.0
C27 C 0.9522 0.4473 0.36006 0.0
C28 C 0.09679 0.61062 0.39888 0.0
C29 C 0.08123 0.58662 0.4023 0.0
C30 C 0.04346 0.56568 0.39256 0.0
C31 C 0.02775 0.56916 0.3851 0.0
C32 C 0.01234 0.55374 0.3747 0.0
C33 C 0.01246 0.53422 0.37206 0.0
C34 C 0.02706 0.5298 0.38067 0.0
C35 C 0.04251 0.54566 0.39082 0.0
C36 C 0.99676 0.5588 0.36589 0.0
C37 C 0.02707 0.50882 0.37852 0.0
C38 C 0.03726 0.53008 0.29858 0.0
C39 C 0.02436 0.51657 0.2864 0.0
C40 C 0.00241 0.50056 0.2888 0.0
C41 C 0.99276 0.49809 0.30372 0.0
C42 C 0.97056 0.4825 0.30643 0.0
C43 C 0.96129 0.48007 0.32121 0.0
C44 C 0.97386 0.4932 0.33384 0.0
C45 C 0.96456 0.49091 0.34892 0.0
C46 C 0.97749 0.50423 0.36121 0.0
C47 C -0.0004 0.51994 0.35883 0.0
C48 C 0.0092 0.52247 0.34385 0.0
C49 C 0.03142 0.53816 0.34106 0.0
C50 C 0.04071 0.54056 0.3263 0.0
C51 C 0.02808 0.52758 0.31368 0.0
C52 C 0.0057 0.5116 0.31623 0.0
C53 C 0.99626 0.50906 0.33133 0.0
C54 C 0.84929 0.40324 0.33191 0.0
C55 C 0.85931 0.42475 0.34084 0.0
O56 O 0.12417 0.59143 0.28018 0.0
O57 O 0.05959 0.58215 0.401 0.0
O58 O 0.875 0.42585 0.35133 0.0
O59 O 0.96715 0.45089 0.23402 0.0
H60 H 0.13775 0.57294 0.27342 0.0
H61 H 0.10996 0.56873 0.25335 0.0
H62 H 0.1252 0.59741 0.24938 0.0
H63 H 0.13703 0.58056 0.2448 0.0
H64 H 0.11011 0.54999 0.28766 0.0
H65 H 0.09293 0.59981 0.28523 0.0
H66 H 0.05987 0.50615 0.28758 0.0
H67 H 0.08586 0.51533 0.29744 0.0
H68 H 0.06196 0.51149 0.30821 0.0
H69 H 0.05656 0.59266 0.28932 0.0
H70 H 0.03497 0.56502 0.286 0.0
H71 H 0.0442 0.5744 0.30554 0.0
H72 H 0.98478 0.47804 0.22034 0.0
H73 H 0.98866 0.45788 0.1982 0.0
H74 H -0.00022 0.45413 0.2162 0.0
H75 H 0.97365 0.43279 0.20896 0.0
H76 H 0.96715 0.4874 0.24042 0.0
H77 H 0.97987 0.43864 0.25833 0.0
H78 H -0.00055 0.52859 0.26424 0.0
H79 H 0.97221 0.51717 0.25581 0.0
H80 H 0.97571 0.5161 0.27671 0.0
H81 H 0.99682 0.44182 0.28278 0.0
H82 H 0.01604 0.4695 0.28827 0.0
H83 H 0.98939 0.45546 0.29727 0.0
H84 H 0.86711 0.43756 0.33174 0.0
H85 H 0.88955 0.46792 0.34652 0.0
H86 H 0.90769 0.42089 0.35953 0.0
H87 H 0.93899 0.50723 0.333 0.0
H88 H 0.91567 0.50492 0.34368 0.0
H89 H 0.94202 0.51459 0.3533 0.0
H90 H 0.94478 0.43038 0.36433 0.0
H91 H 0.96197 0.44904 0.34938 0.0
H92 H 0.96381 0.45842 0.36909 0.0
H93 H 0.08482 0.57744 0.39332 0.0
H94 H 0.11428 0.61459 0.39977 0.0
H95 H 0.09384 0.6144 0.38681 0.0
H96 H 0.09397 0.62096 0.40723 0.0
H97 H 0.02837 0.58452 0.3868 0.0
H98 H 0.05409 0.54257 0.39714 0.0
H99 H 0.00038 0.55981 0.35317 0.0
H100 H 0.97947 0.54556 0.36758 0.0
H101 H -0.00186 0.57432 0.36975 0.0
H102 H 0.03713 0.50656 0.38759 0.0
H103 H 0.00992 0.4949 0.37892 0.0
H104 H 0.03396 0.50871 0.36683 0.0
H105 H 0.03161 0.51839 0.27487 0.0
H106 H 0.9601 0.47201 0.29714 0.0
H107 H 0.94413 0.46775 0.32258 0.0
H108 H 0.97022 0.50248 0.37271 0.0
H109 H 0.04196 0.54878 0.35026 0.0
H110 H 0.0579 0.5528 0.32488 0.0
H111 H 0.83622 0.40177 0.32374 0.0
H112 H 0.86234 0.40258 0.32494 0.0
H113 H 0.8421 0.38926 0.34006 0.0
C114 C 0.40606 0.89721 0.55312 0.0
C115 C 0.41519 0.88504 0.54375 0.0
C116 C 0.43379 0.91118 0.52331 0.0
C117 C 0.45606 0.91694 0.52369 0.0
C118 C 0.47253 0.9377 0.51907 0.0
C119 C 0.46649 0.95306 0.51432 0.0
C120 C 0.44386 0.94711 0.51391 0.0
C121 C 0.42776 0.92601 0.51806 0.0
C122 C 0.49639 0.94331 0.51946 0.0
C123 C 0.43659 0.96307 0.50944 0.0
C124 C 0.53121 0.07345 0.60265 0.0
C125 C 0.52036 0.05696 0.59001 0.0
C126 C 0.52846 0.04817 0.56409 0.0
C127 C 0.50784 0.04171 0.55716 0.0
C128 C 0.50201 0.03077 0.54279 0.0
C129 C 0.5167 0.02532 0.53544 0.0
C130 C 0.53751 0.03179 0.54233 0.0
C131 C 0.54332 0.04361 0.55642 0.0
C132 C 0.47985 0.02462 0.53563 0.0
C133 C 0.55328 0.02572 0.53503 0.0
C134 C 0.56706 0.11436 0.45133 0.0
C135 C 0.54614 0.107 0.45788 0.0
C136 C 0.53177 0.08481 0.46046 0.0
C137 C 0.5388 0.06982 0.45677 0.0
C138 C 0.55977 0.07726 0.44985 0.0
C139 C 0.57349 0.09947 0.44698 0.0
C140 C 0.50913 0.07745 0.46711 0.0
C141 C 0.56778 0.06181 0.44565 0.0
C142 C 0.40543 0.91726 0.40673 0.0
C143 C 0.43067 0.93017 0.40651 0.0
C144 C 0.45351 0.96758 0.41476 0.0
C145 C 0.4499 0.98354 0.42115 0.0
C146 C 0.46469 0.99844 0.4321 0.0
C147 C 0.48391 0.99769 0.43625 0.0
C148 C 0.48863 0.98281 0.42866 0.0
C149 C 0.47315 0.96762 0.41815 0.0
C150 C 0.45923 0.01427 0.43976 0.0
C151 C 0.5095 0.98229 0.43218 0.0
C152 C 0.4838 0.97568 0.51075 0.0
C153 C 0.49463 0.98939 0.52339 0.0
C154 C 0.50929 0.01147 0.52122 0.0
C155 C 0.51398 0.02017 0.50593 0.0
C156 C 0.52879 0.04228 0.50329 0.0
C157 C 0.53268 0.05078 0.48821 0.0
C158 C 0.52136 0.03765 0.47525 0.0
C159 C 0.52416 0.04637 0.45998 0.0
C160 C 0.51232 0.03285 0.44744 0.0
C161 C 0.49762 0.01078 0.44968 0.0
C162 C 0.49482 0.00172 0.46481 0.0
C163 C 0.48018 0.97955 0.46748 0.0
C164 C 0.47715 0.97085 0.48241 0.0
C165 C 0.48801 0.9841 0.49538 0.0
C166 C 0.5031 0.00645 0.49297 0.0
C167 C 0.50661 0.01524 0.47764 0.0
C168 C 0.61128 0.16161 0.46422 0.0
C169 C 0.58681 0.15177 0.46014 0.0
O170 O 0.41789 0.89145 0.52822 0.0
O171 O 0.43751 0.95203 0.40567 0.0
O172 O 0.58122 0.13574 0.44894 0.0
O173 O 0.53462 0.05892 0.57801 0.0
H174 H 0.43145 0.88888 0.54881 0.0
H175 H 0.41786 0.91492 0.55278 0.0
H176 H 0.39001 0.89401 0.54813 0.0
H177 H 0.40365 0.89215 0.56559 0.0
H178 H 0.46047 0.90516 0.52761 0.0
H179 H 0.41041 0.92122 0.51781 0.0
H180 H 0.50502 0.95479 0.52923 0.0
H181 H 0.49808 0.92877 0.52116 0.0
H182 H 0.50477 0.95143 0.50841 0.0
H183 H 0.41917 0.95727 0.5128 0.0
H184 H 0.44728 0.97904 0.51508 0.0
H185 H 0.43798 0.96549 0.49658 0.0
H186 H 0.50994 0.0399 0.59403 0.0
H187 H 0.51524 0.09175 0.60146 0.0
H188 H 0.5305 0.06389 0.61333 0.0
H189 H 0.54958 0.08083 0.60103 0.0
H190 H 0.49616 0.04522 0.56275 0.0
H191 H 0.55923 0.0487 0.56181 0.0
H192 H 0.48158 0.02838 0.52292 0.0
H193 H 0.46857 0.00693 0.53695 0.0
H194 H 0.47209 0.03317 0.54132 0.0
H195 H 0.56861 0.03151 0.54206 0.0
H196 H 0.54509 0.00783 0.53381 0.0
H197 H 0.55783 0.03269 0.5231 0.0
H198 H 0.57732 0.14477 0.47114 0.0
H199 H 0.541 0.1186 0.4608 0.0
H200 H 0.5896 0.10539 0.44173 0.0
H201 H 0.50852 0.07222 0.47942 0.0
H202 H 0.50493 0.09054 0.46695 0.0
H203 H 0.49634 0.06335 0.46041 0.0
H204 H 0.58531 0.07039 0.44182 0.0
H205 H 0.56606 0.05145 0.45586 0.0
H206 H 0.55746 0.05098 0.43602 0.0
H207 H 0.43644 0.92655 0.41769 0.0
H208 H 0.39946 0.89964 0.40766 0.0
H209 H 0.39923 0.92219 0.41701 0.0
H210 H 0.39853 0.92028 0.39592 0.0
H211 H 0.43483 0.98354 0.41817 0.0
H212 H 0.47623 0.95564 0.41275 0.0
H213 H 0.45872 0.01235 0.45268 0.0
H214 H 0.47234 0.03108 0.43705 0.0
H215 H 0.44312 0.01208 0.43573 0.0
H216 H 0.51284 0.97305 0.42317 0.0
H217 H 0.52388 0.999 0.43288 0.0
H218 H 0.50787 0.97445 0.44369 0.0
H219 H 0.49069 0.98298 0.53521 0.0
H220 H 0.53755 0.05325 0.51286 0.0
H221 H 0.54436 0.06789 0.48689 0.0
H222 H 0.51419 0.0397 0.43582 0.0
H223 H 0.47079 0.96858 0.45807 0.0
H224 H 0.46581 0.95366 0.48372 0.0
H225 H 0.62169 0.16898 0.45369 0.0
H226 H 0.61617 0.17424 0.47343 0.0
H227 H 0.61442 0.1488 0.46873 0.0
C228 C 0.53825 0.4317 0.72452 0.0
C229 C 0.55137 0.43248 0.70994 0.0
C230 C 0.53482 0.44498 0.69063 0.0
C231 C 0.55197 0.4661 0.68764 0.0
C232 C 0.54736 0.48205 0.68234 0.0
C233 C 0.52514 0.47677 0.68019 0.0
C234 C 0.50785 0.45526 0.68276 0.0
C235 C 0.513 0.43953 0.68767 0.0
C236 C 0.56624 0.50464 0.67933 0.0
C237 C 0.48393 0.44903 0.68084 0.0
C238 C 0.54679 0.57641 0.76518 0.0
C239 C 0.52555 0.56446 0.75551 0.0
C240 C 0.52457 0.56232 0.72717 0.0
C241 C 0.50522 0.54222 0.72529 0.0
C242 C 0.50163 0.52993 0.71164 0.0
C243 C 0.51789 0.53783 0.69976 0.0
C244 C 0.53702 0.5585 0.7014 0.0
C245 C 0.53988 0.57067 0.71502 0.0
C246 C 0.48075 0.50826 0.71007 0.0
C247 C 0.55481 0.56738 0.68905 0.0
C248 C 0.46675 0.58093 0.62256 0.0
C249 C 0.45128 0.55943 0.62643 0.0
C250 C 0.45742 0.5435 0.62688 0.0
C251 C 0.47944 0.54921 0.62336 0.0
C252 C 0.49463 0.57051 0.61845 0.0
C253 C 0.48799 0.58609 0.61799 0.0
C254 C 0.44062 0.52074 0.63167 0.0
C255 C 0.51811 0.57701 0.61434 0.0
C256 C 0.49684 0.41436 0.57725 0.0
C257 C 0.50571 0.43803 0.57275 0.0
C258 C 0.4894 0.45905 0.58229 0.0
C259 C 0.47025 0.45537 0.58999 0.0
C260 C 0.47067 0.47073 0.60046 0.0
C261 C 0.4907 0.49037 0.60295 0.0
C262 C 0.50963 0.49498 0.5941 0.0
C263 C 0.50881 0.47919 0.58386 0.0
C264 C 0.45008 0.46549 0.6095 0.0
C265 C 0.531 0.51611 0.59607 0.0
C266 C 0.51992 0.49405 0.67641 0.0
C267 C 0.52107 0.50766 0.6886 0.0
C268 C 0.51568 0.52383 0.68622 0.0
C269 C 0.50854 0.5264 0.67131 0.0
C270 C 0.50221 0.54197 0.66866 0.0
C271 C 0.49528 0.54441 0.65391 0.0
C272 C 0.49434 0.5313 0.64125 0.0
C273 C 0.48704 0.53348 0.62625 0.0
C274 C 0.48632 0.52022 0.61391 0.0
C275 C 0.49257 0.50463 0.61621 0.0
C276 C 0.49981 0.50213 0.63114 0.0
C277 C 0.50606 0.48647 0.63385 0.0
C278 C 0.51288 0.48394 0.64861 0.0
C279 C 0.51353 0.49683 0.66127 0.0
C280 C 0.50763 0.51294 0.65876 0.0
C281 C 0.50066 0.51552 0.64369 0.0
C282 C 0.45839 0.62037 0.64168 0.0
C283 C 0.44721 0.59808 0.63379 0.0
O284 O 0.53885 0.42967 0.69659 0.0
O285 O 0.48873 0.44267 0.57379 0.0
O286 O 0.46188 0.5971 0.62338 0.0
O287 O 0.5292 0.57365 0.74075 0.0
H288 H 0.5668 0.44852 0.70963 0.0
H289 H 0.53446 0.44506 0.72419 0.0
H290 H 0.52245 0.41603 0.72509 0.0
H291 H 0.54802 0.43367 0.7353 0.0
H292 H 0.56894 0.47014 0.6894 0.0
H293 H 0.49993 0.42308 0.68988 0.0
H294 H 0.56661 0.51569 0.68865 0.0
H295 H 0.58246 0.50532 0.67924 0.0
H296 H 0.56387 0.51072 0.66795 0.0
H297 H 0.47247 0.43221 0.68479 0.0
H298 H 0.48044 0.46029 0.68761 0.0
H299 H 0.48044 0.45033 0.66834 0.0
H300 H 0.52179 0.54733 0.75469 0.0
H301 H 0.54413 0.56945 0.77714 0.0
H302 H 0.56009 0.57467 0.75949 0.0
H303 H 0.55236 0.59395 0.76609 0.0
H304 H 0.49304 0.53607 0.73455 0.0
H305 H 0.55464 0.58633 0.71657 0.0
H306 H 0.48481 0.49514 0.71114 0.0
H307 H 0.46843 0.50585 0.7192 0.0
H308 H 0.47318 0.50674 0.69835 0.0
H309 H 0.56933 0.58306 0.69261 0.0
H310 H 0.5604 0.55558 0.68662 0.0
H311 H 0.54805 0.56984 0.67798 0.0
H312 H 0.44313 0.58621 0.64346 0.0
H313 H 0.43449 0.55512 0.6293 0.0
H314 H 0.49967 0.60264 0.61472 0.0
H315 H 0.44541 0.51704 0.64316 0.0
H316 H 0.42373 0.51842 0.63268 0.0
H317 H 0.44029 0.50895 0.62301 0.0
H318 H 0.5276 0.59392 0.61 0.0
H319 H 0.5266 0.57547 0.62485 0.0
H320 H 0.51822 0.56594 0.60523 0.0
H321 H 0.51912 0.44793 0.58128 0.0
H322 H 0.5102 0.41026 0.57656 0.0
H323 H 0.49058 0.41165 0.58946 0.0
H324 H 0.48308 0.40335 0.56936 0.0
H325 H 0.45525 0.43992 0.5884 0.0
H326 H 0.52342 0.48242 0.57734 0.0
H327 H 0.45299 0.46452 0.62219 0.0
H328 H 0.44612 0.47862 0.60795 0.0
H329 H 0.43561 0.4499 0.60574 0.0
H330 H 0.54325 0.51841 0.58691 0.0
H331 H 0.52786 0.5299 0.59565 0.0
H332 H 0.53825 0.51643 0.60771 0.0
H333 H 0.52621 0.50559 0.70017 0.0
H334 H 0.5025 0.55242 0.67797 0.0
H335 H 0.49065 0.5567 0.65259 0.0
H336 H 0.48058 0.52187 0.60247 0.0
H337 H 0.50573 0.4759 0.62461 0.0
H338 H 0.51755 0.47167 0.64999 0.0
H339 H 0.44674 0.62167 0.64985 0.0
H340 H 0.47295 0.62267 0.64852 0.0
H341 H 0.46415 0.63353 0.63288 0.0
C342 C 0.1173 0.51351 0.89887 0.0
C343 C 0.12082 0.52806 0.88476 0.0
C344 C 0.09405 0.51557 0.86319 0.0
C345 C 0.0924 0.53429 0.86152 0.0
C346 C 0.07408 0.53331 0.854 0.0
C347 C 0.05728 0.51328 0.84797 0.0
C348 C 0.06002 0.4949 0.84835 0.0
C349 C 0.07858 0.49643 0.85584 0.0
C350 C 0.07217 0.55343 0.85314 0.0
C351 C 0.04306 0.47341 0.8414 0.0
C352 C 0.92601 0.44363 0.92852 0.0
C353 C 0.9409 0.44899 0.91485 0.0
C354 C 0.95933 0.47662 0.89493 0.0
C355 C 0.96321 0.46309 0.88506 0.0
C356 C 0.97541 0.47103 0.8713 0.0
C357 C 0.98431 0.49311 0.86738 0.0
C358 C 0.98022 0.50677 0.87709 0.0
C359 C 0.96758 0.49827 0.89074 0.0
C360 C 0.97964 0.4559 0.86141 0.0
C361 C 0.98962 0.53038 0.87322 0.0
C362 C 0.89808 0.47097 0.78635 0.0
C363 C 0.90341 0.45562 0.79183 0.0
C364 C 0.92551 0.46065 0.79281 0.0
C365 C 0.94256 0.48171 0.78872 0.0
C366 C 0.93712 0.49685 0.78256 0.0
C367 C 0.91484 0.49109 0.7812 0.0
C368 C 0.93059 0.44366 0.79865 0.0
C369 C 0.95481 0.51935 0.77794 0.0
C370 C 0.09697 0.4949 0.74275 0.0
C371 C 0.08358 0.50639 0.74118 0.0
C372 C 0.04527 0.49202 0.7488 0.0
C373 C 0.02809 0.47292 0.755 0.0
C374 C 0.01271 0.47341 0.76525 0.0
C375 C 0.01432 0.49352 0.76893 0.0
C376 C 0.03039 0.51263 0.76143 0.0
C377 C 0.0459 0.51173 0.75154 0.0
C378 C 0.99557 0.45265 0.77283 0.0
C379 C 0.03193 0.53416 0.76457 0.0
C380 C 0.03547 0.51064 0.84388 0.0
C381 C 0.02136 0.50766 0.85636 0.0
C382 C -0.0006 0.50189 0.85382 0.0
C383 C 0.99146 0.50028 0.83839 0.0
C384 C 0.96965 0.49528 0.83547 0.0
C385 C 0.96152 0.49225 0.82025 0.0
C386 C 0.97466 0.49331 0.80743 0.0
C387 C 0.96598 0.48842 0.79203 0.0
C388 C 0.97939 0.48922 0.77962 0.0
C389 C 0.00139 0.49488 0.78217 0.0
C390 C 0.01046 0.50014 0.79745 0.0
C391 C 0.03259 0.50595 0.80042 0.0
C392 C 0.04108 0.5102 0.81556 0.0
C393 C 0.02762 0.50819 0.82835 0.0
C394 C 0.00547 0.50292 0.82561 0.0
C395 C 0.99694 0.49906 0.81012 0.0
C396 C 0.84763 0.46654 0.79998 0.0
C397 C 0.86093 0.45519 0.79704 0.0
O398 O 0.11003 0.51514 0.87191 0.0
O399 O 0.06132 0.49097 0.74065 0.0
O400 O 0.87697 0.46693 0.78595 0.0
O401 O 0.94799 0.46935 0.90858 0.0
H402 H 0.11382 0.5385 0.88805 0.0
H403 H 0.09938 0.50375 0.90154 0.0
H404 H 0.1236 0.50226 0.89645 0.0
H405 H 0.12593 0.52349 0.90934 0.0
H406 H 0.10512 0.54959 0.86627 0.0
H407 H 0.08052 0.48231 0.85672 0.0
H408 H 0.06003 0.55235 0.86197 0.0
H409 H 0.08821 0.56834 0.85551 0.0
H410 H 0.06607 0.55477 0.84142 0.0
H411 H 0.04583 0.46001 0.84503 0.0
H412 H 0.0261 0.46924 0.84482 0.0
H413 H 0.04399 0.47452 0.82845 0.0
H414 H 0.95464 0.44546 0.91639 0.0
H415 H 0.93543 0.44198 0.93862 0.0
H416 H 0.92777 0.45937 0.93281 0.0
H417 H 0.89593 0.41775 0.92041 0.0
H418 H 0.95701 0.44631 0.88806 0.0
H419 H 0.96448 0.50861 0.89838 0.0
H420 H 0.97724 0.45782 0.84879 0.0
H421 H 0.997 0.4599 0.86315 0.0
H422 H 0.96868 0.43865 0.86463 0.0
H423 H 0.98414 0.53868 0.88158 0.0
H424 H 0.00794 0.53867 0.87342 0.0
H425 H 0.98456 0.53201 0.8612 0.0
H426 H 0.86886 0.45516 0.80837 0.0
H427 H 0.89035 0.43975 0.79536 0.0
H428 H 0.91044 0.50265 0.77675 0.0
H429 H 0.93603 0.44709 0.81105 0.0
H430 H 0.91589 0.42714 0.798 0.0
H431 H 0.94419 0.44393 0.79177 0.0
H432 H 0.94781 0.52954 0.77408 0.0
H433 H 0.96613 0.52744 0.78798 0.0
H434 H 0.96478 0.51831 0.76824 0.0
H435 H 0.0873 0.51684 0.75178 0.0
H436 H 0.11492 0.50694 0.74337 0.0
H437 H 0.09221 0.48515 0.75366 0.0
H438 H 0.09384 0.48389 0.73264 0.0
H439 H 0.02755 0.45776 0.75252 0.0
H440 H 0.05876 0.52644 0.74624 0.0
H441 H -0.00204 0.45388 0.78573 0.0
H442 H 0.9788 0.45002 0.7704 0.0
H443 H 0.99638 0.43834 0.76858 0.0
H444 H 0.04251 0.54658 0.75586 0.0
H445 H 0.01523 0.5324 0.76441 0.0
H446 H 0.03911 0.54 0.77639 0.0
H447 H 0.02712 0.50826 0.86827 0.0
H448 H 0.95864 0.49362 0.84495 0.0
H449 H 0.9446 0.48851 0.81873 0.0
H450 H 0.97251 0.48497 0.76789 0.0
H451 H 0.04361 0.50714 0.79111 0.0
H452 H 0.05818 0.51457 0.81718 0.0
H453 H 0.83908 0.46688 0.7891 0.0
H454 H 0.83515 0.4581 0.8093 0.0
H455 H 0.85886 0.48347 0.80389 0.0
C456 C 0.46069 0.89792 0.91344 0.0
C457 C 0.45295 0.88663 0.92931 0.0
C458 C 0.47227 0.91806 0.94658 0.0
C459 C 0.45527 0.92269 0.94933 0.0
C460 C 0.46005 0.94314 0.95484 0.0
C461 C 0.48229 0.95935 0.95746 0.0
C462 C 0.49942 0.9546 0.95492 0.0
C463 C 0.4941 0.93382 0.94981 0.0
C464 C 0.44132 0.94746 0.95776 0.0
C465 C 0.52337 0.97155 0.95731 0.0
C466 C 0.46379 0.04603 0.88007 0.0
C467 C 0.48674 0.05348 0.8869 0.0
C468 C 0.49 0.05245 0.91488 0.0
C469 C 0.50865 0.05044 0.91738 0.0
C470 C 0.51003 0.0394 0.93053 0.0
C471 C 0.49211 0.02983 0.94113 0.0
C472 C 0.47335 0.03213 0.93868 0.0
C473 C 0.47274 0.04383 0.92567 0.0
C474 C 0.53042 0.03759 0.9329 0.0
C475 C 0.45369 0.02168 0.94948 0.0
C476 C 0.53172 0.11251 0.02771 0.0
C477 C 0.54723 0.1085 0.02034 0.0
C478 C 0.54229 0.08722 0.01717 0.0
C479 C 0.52117 0.06971 0.02104 0.0
C480 C 0.50578 0.07374 0.02891 0.0
C481 C 0.51145 0.09514 0.03238 0.0
C482 C 0.55956 0.08352 0.0095 0.0
C483 C 0.48318 0.05549 0.03332 0.0
C484 C 0.51804 0.92371 0.06651 0.0
C485 C 0.5048 0.93532 0.06846 0.0
C486 C 0.51671 0.97133 0.05812 0.0
C487 C 0.53547 0.98822 0.05119 0.0
C488 C 0.53372 0.00212 0.04046 0.0
C489 C 0.51266 0.99938 0.03702 0.0
C490 C 0.49375 0.98322 0.04487 0.0
C491 C 0.49595 0.96918 0.05525 0.0
C492 C 0.55428 0.01929 0.03245 0.0
C493 C 0.4712 0.98048 0.04198 0.0
C494 C 0.48762 0.98148 0.96226 0.0
C495 C 0.48746 0.9952 0.95068 0.0
C496 C 0.49245 0.01631 0.95421 0.0
C497 C 0.4978 0.02411 0.96975 0.0
C498 C 0.50296 0.04527 0.97372 0.0
C499 C 0.50818 0.05276 0.98906 0.0
C500 C 0.50895 0.03955 0.00097 0.0
C501 C 0.51497 0.04725 0.01652 0.0
C502 C 0.51556 0.03367 0.02805 0.0
C503 C 0.51038 0.0125 0.0245 0.0
C504 C 0.50428 0.00449 0.00904 0.0
C505 C 0.49899 0.98326 0.00507 0.0
C506 C 0.49315 0.97556 0.98983 0.0
C507 C 0.49288 0.98894 0.97788 0.0
C508 C 0.49806 0.01036 0.98162 0.0
C509 C 0.50368 0.01811 -0.00276 0.0
C510 C 0.5338 0.1623 0.01917 0.0
C511 C 0.54654 0.15008 0.0201 0.0
O512 O 0.46828 0.89865 0.94083 0.0
O513 O 0.51926 0.95742 0.06748 0.0
O514 O 0.53577 0.13292 0.03038 0.0
O515 O 0.48807 0.06194 0.90174 0.0
H516 H 0.43668 0.88498 0.93212 0.0
H517 H 0.46208 0.91411 0.91386 0.0
H518 H 0.4771 0.90002 0.91038 0.0
H519 H 0.44863 0.88828 0.9041 0.0
H520 H 0.43823 0.91038 0.94741 0.0
H521 H 0.50707 0.93 0.9478 0.0
H522 H 0.44188 0.95912 0.94894 0.0
H523 H 0.42491 0.93248 0.95703 0.0
H524 H 0.44313 0.95491 0.9695 0.0
H525 H 0.53475 0.966 0.95315 0.0
H526 H 0.52721 0.98666 0.95103 0.0
H527 H 0.52657 0.97557 0.96995 0.0
H528 H 0.48866 0.03888 0.88752 0.0
H529 H 0.46235 0.03915 0.86815 0.0
H530 H 0.45101 0.03327 0.88763 0.0
H531 H 0.46056 0.05975 0.8794 0.0
H532 H 0.52199 0.05738 0.90896 0.0
H533 H 0.45841 0.04552 0.92352 0.0
H534 H 0.52627 0.02058 0.93084 0.0
H535 H 0.54397 0.04824 0.92482 0.0
H536 H 0.53643 0.04186 0.94516 0.0
H537 H 0.43977 0.02366 0.94527 0.0
H538 H 0.44785 0.00411 0.9506 0.0
H539 H 0.45859 0.02898 0.96133 0.0
H540 H 0.54641 0.14389 0.00807 0.0
H541 H 0.5632 0.12198 0.01714 0.0
H542 H 0.49974 0.09848 0.03825 0.0
H543 H 0.55487 0.07863 -0.00288 0.0
H544 H 0.57615 0.09832 0.00971 0.0
H545 H 0.56058 0.07022 0.01546 0.0
H546 H 0.47252 0.06148 0.03825 0.0
H547 H 0.47484 0.04529 0.02289 0.0
H548 H 0.48487 0.04503 0.04216 0.0
H549 H 0.4925 0.9297 0.05873 0.0
H550 H 0.50693 0.90586 0.06662 0.0
H551 H 0.52687 0.92823 0.05513 0.0
H552 H 0.53042 0.92836 0.07607 0.0
H553 H 0.55145 0.9899 0.05375 0.0
H554 H 0.4815 0.95656 0.0611 0.0
H555 H 0.55223 0.01734 0.01955 0.0
H556 H 0.55689 0.03556 0.03545 0.0
H557 H 0.56925 0.01863 0.0359 0.0
H558 H 0.45881 0.96934 0.05056 0.0
H559 H 0.47201 0.99641 0.04258 0.0
H560 H 0.46549 0.9738 0.03004 0.0
H561 H 0.48344 0.98937 0.93871 0.0
H562 H 0.50297 0.05628 0.96501 0.0
H563 H 0.5118 0.06913 0.99143 0.0
H564 H 0.52043 0.03975 0.03989 0.0
H565 H 0.49924 0.97229 0.0137 0.0
H566 H 0.48906 0.95904 0.98751 0.0
H567 H 0.53308 0.16881 0.03085 0.0
H568 H 0.54184 0.17592 0.01075 0.0
H569 H 0.51666 0.15118 0.01508 0.0
C570 C 0.58107 0.46783 0.08153 0.0
C571 C 0.5813 0.45846 0.09761 0.0
C572 C 0.56882 0.47806 0.1145 0.0
C573 C 0.54608 0.46297 0.11455 0.0
C574 C 0.5309 0.46884 0.11997 0.0
C575 C 0.5386 0.4903 0.12517 0.0
C576 C 0.56153 0.50548 0.12522 0.0
C577 C 0.57635 0.49896 0.12018 0.0
C578 C 0.5066 0.45216 0.12005 0.0
C579 C 0.57044 0.52868 0.13034 0.0
C580 C 0.48492 0.56896 0.04593 0.0
C581 C 0.49452 0.564 0.05973 0.0
C582 C 0.48467 0.53651 0.07982 0.0
C583 C 0.50267 0.54982 0.08957 0.0
C584 C 0.50676 0.54168 0.10327 0.0
C585 C 0.49263 0.51973 0.10731 0.0
C586 C 0.4742 0.50638 0.09777 0.0
C587 C 0.47039 0.51501 0.08413 0.0
C588 C 0.5267 0.55641 0.11313 0.0
C589 C 0.45889 0.48293 0.10181 0.0
C590 C 0.44385 0.55457 0.19094 0.0
C591 C 0.46531 0.56778 0.18525 0.0
C592 C 0.47975 0.55963 0.18353 0.0
C593 C 0.47228 0.53767 0.18722 0.0
C594 C 0.45099 0.52467 0.19367 0.0
C595 C 0.43714 0.53346 0.19567 0.0
C596 C 0.50272 0.57431 0.17732 0.0
C597 C 0.44257 0.5013 0.19788 0.0
C598 C 0.60219 0.50387 0.22633 0.0
C599 C 0.57843 0.4962 0.23137 0.0
C600 C 0.55852 0.51462 0.2234 0.0
C601 C 0.56313 0.53423 0.21666 0.0
C602 C 0.54755 0.53556 0.20711 0.0
C603 C 0.52667 0.51685 0.20465 0.0
C604 C 0.52121 0.49744 0.21263 0.0
C605 C 0.53729 0.49647 0.22189 0.0
C606 C 0.55384 0.55663 0.19897 0.0
C607 C 0.49883 0.47745 0.21067 0.0
C608 C 0.52259 0.49719 0.12963 0.0
C609 C 0.51246 0.50215 0.11754 0.0
C610 C 0.49865 0.51055 0.12069 0.0
C611 C 0.494 0.5133 0.13633 0.0
C612 C 0.47955 0.521 0.13987 0.0
C613 C 0.47627 0.52504 0.1553 0.0
C614 C 0.48783 0.52213 0.16769 0.0
C615 C 0.48607 0.52791 0.18327 0.0
C616 C 0.49824 0.5253 0.19523 0.0
C617 C 0.51208 0.51687 0.19204 0.0
C618 C 0.51363 0.51052 0.17662 0.0
C619 C 0.52716 0.50168 0.17307 0.0
C620 C 0.52945 0.4965 0.15776 0.0
C621 C 0.51888 0.5006 0.14535 0.0
C622 C 0.50462 0.50883 0.1487 0.0
C623 C 0.50179 0.51357 0.16438 0.0
C624 C 0.40153 0.5614 0.17561 0.0
C625 C 0.42592 0.57345 0.1803 0.0
O626 O 0.58408 0.47316 0.10925 0.0
O627 O 0.57503 0.51375 0.23107 0.0
O628 O 0.4292 0.5617 0.19184 0.0
O629 O 0.48077 0.54379 0.06617 0.0
H630 H 0.56557 0.443 0.09924 0.0
H631 H 0.56691 0.47073 0.0807 0.0
H632 H 0.5966 0.48346 0.07965 0.0
H633 H 0.5793 0.45632 0.07209 0.0
H634 H 0.53999 0.44654 0.11061 0.0
H635 H 0.59396 0.51039 0.1202 0.0
H636 H 0.49795 0.45639 0.11103 0.0
H637 H 0.50353 0.43559 0.11756 0.0
H638 H 0.49928 0.45213 0.13159 0.0
H639 H 0.58817 0.53911 0.12734 0.0
H640 H 0.56092 0.53552 0.1248 0.0
H641 H 0.56872 0.52928 0.14321 0.0
H642 H 0.51183 0.56745 0.05819 0.0
H643 H 0.49593 0.57037 0.03586 0.0
H644 H 0.47058 0.55309 0.04181 0.0
H645 H 0.48127 0.59497 0.05358 0.0
H646 H 0.51384 0.56653 0.08648 0.0
H647 H 0.45648 0.50488 0.0766 0.0
H648 H 0.52159 0.55675 0.12538 0.0
H649 H 0.53832 0.55009 0.11334 0.0
H650 H 0.53563 0.57327 0.10864 0.0
H651 H 0.4443 0.47514 0.09391 0.0
H652 H 0.468 0.47393 0.10097 0.0
H653 H 0.45312 0.48159 0.11408 0.0
H654 H 0.43553 0.57457 0.16958 0.0
H655 H 0.47071 0.5844 0.1821 0.0
H656 H 0.42062 0.52356 0.2003 0.0
H657 H 0.50352 0.57015 0.1649 0.0
H658 H 0.50737 0.59164 0.17791 0.0
H659 H 0.51505 0.57205 0.184 0.0
H660 H 0.42531 0.49316 0.20227 0.0
H661 H 0.44329 0.49232 0.18747 0.0
H662 H 0.45331 0.50036 0.20706 0.0
H663 H 0.56743 0.48355 0.22281 0.0
H664 H 0.60536 0.49008 0.22614 0.0
H665 H 0.60498 0.51081 0.21436 0.0
H666 H 0.61411 0.51653 0.23447 0.0
H667 H 0.57944 0.54824 0.21823 0.0
H668 H 0.53339 0.4815 0.22771 0.0
H669 H 0.55357 0.55433 0.18609 0.0
H670 H 0.54162 0.56174 0.20175 0.0
H671 H 0.57054 0.56983 0.20245 0.0
H672 H 0.49594 0.46485 0.21947 0.0
H673 H 0.48559 0.48166 0.2117 0.0
H674 H 0.4976 0.47055 0.19881 0.0
H675 H 0.51629 0.50052 0.10548 0.0
H676 H 0.47071 0.52407 0.13074 0.0
H677 H 0.46495 0.53097 0.15731 0.0
H678 H 0.49738 0.5304 0.20705 0.0
H679 H 0.5363 0.49878 0.18204 0.0
H680 H 0.54009 0.48977 0.15573 0.0
H681 H 0.39096 0.55979 0.1858 0.0
H682 H 0.39845 0.57017 0.16608 0.0
H683 H 0.3968 0.54494 0.17127 0.0
C684 C 0.67049 0.42872 0.4034 0.0
O685 O 0.67053 0.44604 0.40689 0.0
Cd686 Cd 0.63757 0.44647 0.41442 0.0
O687 O 0.65259 0.41056 0.4036 0.0
Cd688 Cd 0.61279 0.39526 0.40886 0.0
C689 C 0.60574 0.42506 0.38125 0.0
O690 O 0.61594 0.41716 0.43172 0.0
O691 O 0.58352 0.39896 0.42111 0.0
O692 O 0.61044 0.36605 0.42456 0.0
C693 C 0.59551 0.41114 0.43215 0.0
O694 O 0.61633 0.44083 0.39068 0.0
C695 C 0.59868 0.3508 0.41514 0.0
O696 O 0.60324 0.40642 0.38412 0.0
O697 O 0.59319 0.35602 0.40238 0.0
C698 C 0.2472 0.58169 0.57408 0.0
O699 O 0.22926 0.56412 0.57167 0.0
Cd700 Cd 0.19572 0.56388 0.56449 0.0
O701 O 0.24778 0.59977 0.57332 0.0
Cd702 Cd 0.2228 0.61419 0.56874 0.0
C703 C 0.1861 0.58559 0.59715 0.0
O704 O 0.20332 0.59204 0.54588 0.0
O705 O 0.18984 0.61058 0.55634 0.0
O706 O 0.25058 0.64537 0.55424 0.0
C707 C 0.18935 0.59845 0.54528 0.0
O708 O 0.17981 0.56927 0.58816 0.0
C709 C 0.25321 0.65935 0.56449 0.0
O710 O 0.20271 0.60383 0.5936 0.0
O711 O 0.24151 0.65242 0.57677 0.0
C712 C 0.67928 0.25493 0.74304 0.0
O713 O 0.67977 0.23936 0.73624 0.0
Cd714 Cd 0.64574 0.20747 0.729 0.0
O715 O 0.66121 0.25504 0.74443 0.0
Cd716 Cd 0.6221 0.23405 0.73619 0.0
C717 C 0.61499 0.19662 0.76291 0.0
O718 O 0.62531 0.21768 0.71188 0.0
O719 O 0.59282 0.20316 0.72224 0.0
O720 O 0.62512 0.26653 0.72461 0.0
C721 C 0.60482 0.20406 0.71082 0.0
O722 O 0.62545 0.19133 0.75332 0.0
C723 C 0.60968 0.26641 0.73247 0.0
O724 O 0.61221 0.21263 0.76007 0.0
O725 O 0.59991 0.25119 0.74233 0.0
C726 C 0.34217 0.59259 0.89779 0.0
O727 O 0.34157 0.57519 0.9018 0.0
Cd728 Cd 0.37392 0.57392 0.90904 0.0
O729 O 0.36032 0.61048 0.89769 0.0
Cd730 Cd 0.39973 0.62471 0.90343 0.0
C731 C 0.40289 0.59342 0.87485 0.0
O732 O 0.39469 0.60338 0.9268 0.0
O733 O 0.42802 0.62138 0.91785 0.0
O734 O 0.39843 0.65417 0.91634 0.0
C735 C 0.41505 0.60976 0.92862 0.0
O736 O 0.39235 0.5777 0.88422 0.0
C737 C 0.41368 0.66932 0.90848 0.0
O738 O 0.40724 0.61249 0.87849 0.0
O739 O 0.42277 0.66382 0.89793 0.0
C740 C 0.76022 0.41875 0.07619 0.0
O741 O 0.77769 0.43507 0.07119 0.0
Cd742 Cd 0.80937 0.43383 0.06275 0.0
O743 O 0.75832 0.40005 0.07647 0.0
Cd744 Cd 0.78047 0.38291 0.06975 0.0
C745 C 0.81787 0.41405 0.0972 0.0
O746 O 0.7969 0.40308 0.04609 0.0
O747 O 0.81162 0.38492 0.0551 0.0
O748 O 0.74985 0.35456 0.0556 0.0
C749 C 0.81041 0.39635 0.04419 0.0
O750 O 0.82349 0.42935 0.08742 0.0
C751 C 0.74739 0.33892 0.06404 0.0
O752 O 0.80206 0.395 0.09419 0.0
O753 O 0.76018 0.34352 0.0758 0.0
C754 C 0.35251 0.77241 0.24469 0.0
O755 O 0.35316 0.79026 0.24215 0.0
Cd756 Cd 0.38547 0.82289 0.23383 0.0
O757 O 0.36977 0.77087 0.24304 0.0
Cd758 Cd 0.40913 0.79417 0.23581 0.0
C759 C 0.42071 0.83123 0.26455 0.0
O760 O 0.40291 0.81291 0.21431 0.0
O761 O 0.43697 0.82505 0.22102 0.0
O762 O 0.4094 0.76655 0.21945 0.0
C763 C 0.42322 0.82593 0.21177 0.0
O764 O 0.40957 0.83736 0.25642 0.0
C765 C 0.42231 0.7633 0.22795 0.0
O766 O 0.42216 0.81477 0.2605 0.0
O767 O 0.42918 0.77428 0.24052 0.0
C768 C 0.17807 0.6031 0.26697 0.0
C769 C 0.16018 0.60653 0.26936 0.0
C770 C 0.19954 0.62061 0.26568 0.0
C771 C 0.23403 0.67911 0.27421 0.0
H772 H 0.2713 0.67755 0.24125 0.0
C773 C 0.31291 0.75515 0.25295 0.0
C774 C 0.3314 0.75315 0.24929 0.0
C775 C 0.29275 0.73691 0.25672 0.0
C776 C 0.26123 0.67811 0.25066 0.0
H777 H 0.15067 0.63102 0.2717 0.0
H778 H 0.18822 0.66168 0.26953 0.0
H779 H 0.23463 0.64634 0.24531 0.0
H780 H 0.34328 0.7304 0.24702 0.0
H781 H 0.30802 0.69855 0.25359 0.0
H782 H 0.26056 0.71104 0.27939 0.0
C783 C 0.18569 0.64541 0.26903 0.0
C784 C 0.24022 0.66023 0.25299 0.0
C785 C 0.16419 0.62788 0.27025 0.0
C786 C 0.32936 0.73252 0.24974 0.0
C787 C 0.30914 0.71425 0.25342 0.0
C788 C 0.25505 0.69701 0.27187 0.0
C789 C 0.20359 0.64197 0.26665 0.0
C790 C 0.2263 0.6606 0.26469 0.0
C791 C 0.29058 0.71623 0.25684 0.0
C792 C 0.2688 0.69678 0.25997 0.0
H793 H 0.17539 0.58681 0.26596 0.0
H794 H 0.21299 0.61742 0.26393 0.0
H795 H 0.22383 0.67975 0.28349 0.0
H796 H 0.31392 0.77081 0.25277 0.0
H797 H 0.2787 0.73895 0.25914 0.0
C798 C 0.58493 0.17523 0.43838 0.0
C799 C 0.58236 0.16925 0.45427 0.0
C800 C 0.58334 0.19314 0.43353 0.0
C801 C 0.59413 0.2452 0.44828 0.0
H802 H 0.56006 0.24653 0.41287 0.0
C803 C 0.59168 0.3223 0.43469 0.0
C804 C 0.59235 0.32825 0.41897 0.0
C805 C 0.58777 0.30172 0.4386 0.0
C806 C 0.56988 0.24651 0.42267 0.0
H807 H 0.57625 0.17737 0.47746 0.0
H808 H 0.57374 0.20878 0.46903 0.0
H809 H 0.55817 0.21246 0.4202 0.0
H810 H 0.58876 0.31714 0.39496 0.0
H811 H 0.5828 0.28127 0.40172 0.0
H812 H 0.60663 0.27913 0.45053 0.0
C813 C 0.57667 0.19944 0.46033 0.0
C814 C 0.5687 0.22697 0.42689 0.0
C815 C 0.57798 0.18142 0.46514 0.0
C816 C 0.58828 0.31292 0.40719 0.0
C817 C 0.58479 0.29235 0.41109 0.0
C818 C 0.59557 0.2647 0.44396 0.0
C819 C 0.57967 0.20567 0.44453 0.0
C820 C 0.58068 0.22614 0.43983 0.0
C821 C 0.58495 0.28666 0.42687 0.0
C822 C 0.58331 0.26564 0.4312 0.0
H823 H 0.58877 0.16644 0.42979 0.0
H824 H 0.58597 0.19777 0.42131 0.0
H825 H 0.6039 0.24512 0.4581 0.0
H826 H 0.59442 0.33369 0.44403 0.0
H827 H 0.58729 0.29775 0.45087 0.0
C828 C 0.40564 0.57723 0.63036 0.0
C829 C 0.4264 0.59381 0.62531 0.0
C830 C 0.38628 0.57427 0.62328 0.0
C831 C 0.36477 0.60493 0.60411 0.0
H832 H 0.31674 0.5496 0.58983 0.0
C833 C 0.28827 0.59957 0.575 0.0
C834 C 0.26758 0.58139 0.57812 0.0
C835 C 0.30766 0.59997 0.57949 0.0
C836 C 0.32985 0.56513 0.59396 0.0
H837 H 0.44322 0.61962 0.60844 0.0
H838 H 0.40929 0.61485 0.59636 0.0
H839 H 0.35054 0.55197 0.60009 0.0
H840 H 0.25089 0.54927 0.58824 0.0
H841 H 0.28471 0.55028 0.59676 0.0
H842 H 0.34408 0.61808 0.59879 0.0
C843 C 0.40808 0.60418 0.6058 0.0
C844 C 0.34924 0.56646 0.59973 0.0
C845 C 0.42743 0.60691 0.6127 0.0
C846 C 0.26665 0.56345 0.58561 0.0
C847 C 0.28608 0.56402 0.59041 0.0
C848 C 0.34531 0.60355 0.59862 0.0
C849 C 0.38734 0.58802 0.61117 0.0
C850 C 0.36689 0.58641 0.60478 0.0
C851 C 0.30686 0.5824 0.58756 0.0
C852 C 0.3276 0.58367 0.59337 0.0
H853 H 0.40438 0.56684 0.64001 0.0
H854 H 0.37047 0.56175 0.62766 0.0
H855 H 0.37801 0.62043 0.6082 0.0
H856 H 0.2895 0.61353 0.56906 0.0
H857 H 0.32329 0.61416 0.57666 0.0
C858 C 0.84298 0.42615 0.77582 0.0
C859 C 0.84569 0.43206 0.79176 0.0
C860 C 0.82708 0.40522 0.77118 0.0
C861 C 0.7729 0.36523 0.78 0.0
H862 H 0.78218 0.32234 0.7588 0.0
C863 C 0.69881 0.28301 0.76351 0.0
C864 C 0.69967 0.27315 0.74953 0.0
C865 C 0.71776 0.30087 0.76947 0.0
C866 C 0.77924 0.33423 0.76449 0.0
H867 H 0.83406 0.4207 0.81523 0.0
H868 H 0.80564 0.38431 0.80699 0.0
H869 H 0.814 0.35663 0.76727 0.0
H870 H 0.7209 0.27387 0.73086 0.0
H871 H 0.75384 0.30598 0.74067 0.0
H872 H 0.73846 0.34398 0.77654 0.0
C873 C 0.81624 0.39578 0.79824 0.0
C874 C 0.79749 0.35374 0.76944 0.0
C875 C 0.83242 0.41651 0.80291 0.0
C876 C 0.71989 0.28121 0.7417 0.0
C877 C 0.73879 0.29954 0.74743 0.0
C878 C 0.75472 0.34605 0.77475 0.0
C879 C 0.81329 0.39009 0.78233 0.0
C880 C 0.79437 0.36927 0.77729 0.0
C881 C 0.73793 0.3098 0.76132 0.0
C882 C 0.75756 0.33017 0.767 0.0
H883 H 0.85272 0.4378 0.7669 0.0
H884 H 0.82483 0.40116 0.75883 0.0
H885 H 0.7702 0.37719 0.78587 0.0
H886 H 0.68345 0.27682 0.76989 0.0
H887 H 0.71647 0.30773 0.78046 0.0
C888 C 0.42972 0.8469 0.92288 0.0
C889 C 0.44986 0.86407 0.92835 0.0
C890 C 0.42679 0.82616 0.92115 0.0
C891 C 0.42018 0.78162 0.92671 0.0
H892 H 0.46789 0.77388 0.91128 0.0
C893 C 0.4118 0.69746 0.92467 0.0
C894 C 0.42005 0.69213 0.91145 0.0
C895 C 0.41673 0.71872 0.92728 0.0
C896 C 0.45434 0.77575 0.91548 0.0
H897 H 0.4831 0.87314 0.93572 0.0
H898 H 0.47772 0.83672 0.93332 0.0
H899 H 0.47364 0.81033 0.9144 0.0
H900 H 0.44035 0.705 0.89074 0.0
H901 H 0.44857 0.7422 0.89507 0.0
H902 H 0.40059 0.74713 0.9272 0.0
C903 C 0.4642 0.83931 0.93023 0.0
C904 C 0.45773 0.79667 0.91748 0.0
C905 C 0.4672 0.86013 0.9318 0.0
C906 C 0.43376 0.70864 0.90104 0.0
C907 C 0.43856 0.72996 0.90358 0.0
C908 C 0.41675 0.76076 0.9246 0.0
C909 C 0.44394 0.82205 0.92488 0.0
C910 C 0.44065 0.79986 0.92307 0.0
C911 C 0.42986 0.7352 0.91664 0.0
C912 C 0.43378 0.75753 0.91897 0.0
H913 H 0.41627 0.84961 0.91976 0.0
H914 H 0.41115 0.81343 0.91663 0.0
H915 H 0.40674 0.78341 0.93125 0.0
H916 H 0.40138 0.68515 0.93302 0.0
H917 H 0.41017 0.72222 0.93765 0.0
C918 C 0.59633 0.43308 0.09437 0.0
C919 C 0.59999 0.4537 0.09846 0.0
C920 C 0.61374 0.4288 0.0945 0.0
C921 C 0.67381 0.4567 0.09072 0.0
H922 H 0.66746 0.40238 0.10525 0.0
C923 C 0.7466 0.44193 0.08768 0.0
C924 C 0.74205 0.42169 0.0819 0.0
C925 C 0.72945 0.44526 0.09233 0.0
C926 C 0.66942 0.41757 0.10107 0.0
H927 H 0.62483 0.48619 0.10552 0.0
H928 H 0.65511 0.47859 0.1061 0.0
H929 H 0.63685 0.4094 0.10837 0.0
H930 H 0.71621 0.38878 0.07697 0.0
H931 H 0.68604 0.39483 0.08447 0.0
H932 H 0.70598 0.46475 0.08302 0.0
C933 C 0.63879 0.46573 0.10278 0.0
C934 C 0.65193 0.42158 0.10287 0.0
C935 C 0.62144 0.47003 0.10257 0.0
C936 C 0.72011 0.40457 0.08135 0.0
C937 C 0.70288 0.40801 0.08576 0.0
C938 C 0.69119 0.45268 0.08888 0.0
C939 C 0.63516 0.44514 0.09861 0.0
C940 C 0.65393 0.44114 0.09759 0.0
C941 C 0.70737 0.42853 0.091 0.0
C942 C 0.68918 0.43303 0.09393 0.0
H943 H 0.58004 0.42036 0.09087 0.0
H944 H 0.61055 0.41291 0.09093 0.0
H945 H 0.67571 0.47175 0.08628 0.0
H946 H 0.76343 0.45527 0.08854 0.0
H947 H 0.7335 0.46109 0.09672 0.0
C948 C 0.39885 0.85032 0.5592 0.0
C949 C 0.39959 0.86083 0.54511 0.0
C950 C 0.38339 0.82841 0.56128 0.0
C951 C 0.35061 0.77752 0.54138 0.0
H952 H 0.30868 0.76203 0.57536 0.0
C953 C 0.27692 0.69075 0.54726 0.0
C954 C 0.26949 0.68251 0.56232 0.0
C955 C 0.29272 0.71255 0.54516 0.0
C956 C 0.32047 0.76591 0.56598 0.0
H957 H 0.38448 0.85639 0.52212 0.0
H958 H 0.3582 0.81786 0.52558 0.0
H959 H 0.33732 0.79972 0.57184 0.0
H960 H 0.27289 0.69046 0.58702 0.0
H961 H 0.30123 0.7282 0.58352 0.0
H962 H 0.33459 0.74383 0.53579 0.0
C963 C 0.36959 0.82676 0.53499 0.0
C964 C 0.33677 0.78756 0.56394 0.0
C965 C 0.38469 0.8488 0.53303 0.0
C966 C 0.27818 0.69645 0.57526 0.0
C967 C 0.29436 0.71815 0.57321 0.0
C968 C 0.33463 0.75581 0.54361 0.0
C969 C 0.36865 0.81649 0.5492 0.0
C970 C 0.35185 0.79352 0.55157 0.0
C971 C 0.30187 0.72654 0.55811 0.0
C972 C 0.31919 0.74968 0.55588 0.0
H973 H 0.40998 0.85923 0.56874 0.0
H974 H 0.38294 0.82076 0.57233 0.0
H975 H 0.36222 0.7818 0.53182 0.0
H976 H 0.27035 0.68039 0.53705 0.0
H977 H 0.2976 0.7184 0.53333 0.0
C978 C 0.54302 0.3937 0.70601 0.0
C979 C 0.55763 0.41504 0.71095 0.0
C980 C 0.54851 0.37749 0.70796 0.0
C981 C 0.55808 0.34381 0.7218 0.0
H982 H 0.6189 0.35768 0.71704 0.0
C983 C 0.58759 0.2841 0.73965 0.0
C984 C 0.60337 0.28314 0.73004 0.0
C985 C 0.58178 0.30002 0.73724 0.0
C986 C 0.60179 0.35344 0.71827 0.0
H987 H 0.58891 0.43587 0.72243 0.0
H988 H 0.59838 0.40761 0.72608 0.0
H989 H 0.60914 0.38543 0.71226 0.0
H990 H 0.62521 0.29796 0.71025 0.0
H991 H 0.61479 0.32533 0.70585 0.0
H992 H 0.55065 0.3116 0.72736 0.0
C993 C 0.58303 0.40349 0.7202 0.0
C994 C 0.59623 0.36947 0.71573 0.0
C995 C 0.5776 0.41969 0.71816 0.0
C996 C 0.6131 0.29834 0.71793 0.0
C997 C 0.60721 0.31414 0.71547 0.0
C998 C 0.56362 0.32772 0.72426 0.0
C999 C 0.56857 0.38217 0.71512 0.0
C1000 C 0.57433 0.3649 0.71751 0.0
C1001 C 0.59154 0.31526 0.72512 0.0
C1002 C 0.58556 0.33234 0.72255 0.0
H1003 H 0.52728 0.38951 0.70073 0.0
H1004 H 0.53705 0.36131 0.70379 0.0
H1005 H 0.54109 0.33975 0.72347 0.0
H1006 H 0.57983 0.27266 0.7491 0.0
H1007 H 0.56987 0.30057 0.74503 0.0
C1008 C 0.15635 0.53251 0.87391 0.0
C1009 C 0.14513 0.54177 0.88128 0.0
C1010 C 0.17919 0.54434 0.87218 0.0
C1011 C 0.22764 0.58773 0.89159 0.0
H1012 H 0.25752 0.57608 0.85798 0.0
C1013 C 0.31977 0.61076 0.89431 0.0
C1014 C 0.32166 0.59209 0.89307 0.0
C1015 C 0.30002 0.60999 0.89027 0.0
C1016 C 0.24942 0.57972 0.86733 0.0
H1017 H 0.14884 0.57077 0.89232 0.0
H1018 H 0.18901 0.59169 0.88916 0.0
H1019 H 0.21877 0.56588 0.85488 0.0
H1020 H 0.3048 0.55827 0.88617 0.0
H1021 H 0.27048 0.55706 0.87883 0.0
H1022 H 0.25823 0.60097 0.90418 0.0
C1023 C 0.18008 0.57524 0.88476 0.0
C1024 C 0.22727 0.57382 0.86561 0.0
C1025 C 0.15714 0.56334 0.88651 0.0
C1026 C 0.30374 0.57285 0.88733 0.0
C1027 C 0.28422 0.57221 0.88299 0.0
C1028 C 0.2499 0.59389 0.89321 0.0
C1029 C 0.19139 0.5657 0.87783 0.0
C1030 C 0.21585 0.57676 0.87803 0.0
C1031 C 0.28212 0.5907 0.88457 0.0
C1032 C 0.26061 0.589 0.88138 0.0
H1033 H 0.14752 0.51581 0.86998 0.0
H1034 H 0.18737 0.53629 0.86711 0.0
H1035 H 0.21934 0.59013 0.90142 0.0
H1036 H 0.33336 0.6258 0.89875 0.0
H1037 H 0.29866 0.62437 0.89166 0.0
C1038 C 0.58642 0.17645 0.01396 0.0
C1039 C 0.57008 0.16528 0.02529 0.0
C1040 C 0.60748 0.19279 0.01838 0.0
C1041 C 0.64683 0.21721 0.05105 0.0
H1042 H 0.66476 0.27073 0.02875 0.0
C1043 C 0.71878 0.30105 0.07159 0.0
C1044 C 0.73033 0.31658 0.06 0.0
C1045 C 0.70073 0.28084 0.06748 0.0
C1046 C 0.66037 0.25588 0.03492 0.0
H1047 H 0.56305 0.16222 0.05016 0.0
H1048 H 0.60009 0.19075 0.05793 0.0
H1049 H 0.63101 0.23823 0.02124 0.0
H1050 H 0.73344 0.32272 0.03505 0.0
H1051 H 0.70298 0.28737 0.02781 0.0
H1052 H 0.67641 0.23493 0.06467 0.0
C1053 C 0.59661 0.18661 0.04564 0.0
C1054 C 0.64091 0.23723 0.03063 0.0
C1055 C 0.57544 0.17033 0.0412 0.0
C1056 C 0.72451 0.31116 0.04424 0.0
C1057 C 0.70692 0.29092 0.04012 0.0
C1058 C 0.66659 0.2359 0.05524 0.0
C1059 C 0.61264 0.19836 0.03424 0.0
C1060 C 0.63389 0.21772 0.03864 0.0
C1061 C 0.69424 0.27576 0.05169 0.0
C1062 C 0.6736 0.2555 0.04721 0.0
H1063 H 0.58265 0.17302 0.00162 0.0
H1064 H 0.61957 0.20151 0.00936 0.0
H1065 H 0.64177 0.20232 0.0574 0.0
H1066 H 0.72299 0.3049 0.08384 0.0
H1067 H 0.69134 0.26964 0.07673 0.0
C1068 C 0.4388 0.61273 0.17499 0.0
C1069 C 0.43256 0.59603 0.18596 0.0
C1070 C 0.442 0.63289 0.17959 0.0
C1071 C 0.45177 0.66929 0.2128 0.0
H1072 H 0.41545 0.68627 0.1893 0.0
C1073 C 0.43309 0.73559 0.23453 0.0
C1074 C 0.42865 0.74724 0.22329 0.0
C1075 C 0.43678 0.71881 0.2299 0.0
C1076 C 0.42615 0.68219 0.19582 0.0
H1077 H 0.42501 0.58746 0.21044 0.0
H1078 H 0.43114 0.62297 0.21854 0.0
H1079 H 0.41718 0.65453 0.1813 0.0
H1080 H 0.42616 0.75172 0.19846 0.0
H1081 H 0.43381 0.7235 0.19032 0.0
H1082 H 0.46103 0.69715 0.22723 0.0
C1083 C 0.43373 0.62043 0.2064 0.0
C1084 C 0.42701 0.66386 0.19125 0.0
C1085 C 0.43022 0.60013 0.20176 0.0
C1086 C 0.42917 0.7427 0.20737 0.0
C1087 C 0.43338 0.72637 0.20273 0.0
C1088 C 0.45124 0.68794 0.21725 0.0
C1089 C 0.43912 0.63681 0.19529 0.0
C1090 C 0.43965 0.65712 0.19975 0.0
C1091 C 0.43654 0.7137 0.21392 0.0
C1092 C 0.43825 0.69454 0.20889 0.0
H1093 H 0.44043 0.6099 0.16272 0.0
H1094 H 0.44619 0.64528 0.17081 0.0
H1095 H 0.46171 0.66443 0.21951 0.0
H1096 H 0.43274 0.7388 0.24689 0.0
H1097 H 0.43894 0.70936 0.23889 0.0
C1098 C 0.8289 0.41209 0.36112 0.0
C1099 C 0.8417 0.42701 0.34947 0.0
C1100 C 0.81152 0.41322 0.36819 0.0
C1101 C 0.78953 0.44876 0.37721 0.0
H1102 H 0.73218 0.39658 0.37466 0.0
C1103 C 0.70879 0.44846 0.39241 0.0
C1104 C 0.69122 0.42952 0.39876 0.0
C1105 C 0.72789 0.44873 0.38724 0.0
C1106 C 0.74808 0.4112 0.3758 0.0
H1107 H 0.84716 0.45554 0.33675 0.0
H1108 H 0.817 0.45781 0.34944 0.0
H1109 H 0.76463 0.39629 0.36481 0.0
H1110 H 0.68018 0.3963 0.40529 0.0
H1111 H 0.71376 0.39701 0.39702 0.0
H1112 H 0.77322 0.46362 0.38855 0.0
C1113 C 0.82029 0.44509 0.35288 0.0
C1114 C 0.76666 0.41102 0.37006 0.0
C1115 C 0.83745 0.44373 0.34561 0.0
C1116 C 0.69336 0.41106 0.40026 0.0
C1117 C 0.7126 0.41145 0.3954 0.0
C1118 C 0.77099 0.44886 0.38323 0.0
C1119 C 0.80691 0.42958 0.364 0.0
C1120 C 0.78751 0.4298 0.37064 0.0
C1121 C 0.73001 0.43017 0.38857 0.0
C1122 C 0.74997 0.43009 0.38254 0.0
H1123 H 0.83206 0.39927 0.36451 0.0
H1124 H 0.80156 0.40123 0.37686 0.0
H1125 H 0.8055 0.46342 0.37785 0.0
H1126 H 0.70753 0.46289 0.39101 0.0
H1127 H 0.74073 0.46335 0.38183 0.0
C1128 C 0.09925 0.57216 0.42051 0.0
C1129 C 0.08558 0.58117 0.41851 0.0
C1130 C 0.10569 0.56967 0.43549 0.0
C1131 C 0.1156 0.5949 0.47408 0.0
H1132 H 0.12468 0.54773 0.48669 0.0
C1133 C 0.15658 0.59764 0.53287 0.0
C1134 C 0.17319 0.59207 0.53237 0.0
C1135 C 0.14211 0.59284 0.52027 0.0
C1136 C 0.1223 0.56105 0.4833 0.0
H1137 H 0.06751 0.59418 0.43057 0.0
H1138 H 0.07853 0.58958 0.45678 0.0
H1139 H 0.10551 0.54512 0.46211 0.0
H1140 H 0.18718 0.57638 0.51854 0.0
H1141 H 0.16228 0.56845 0.49635 0.0
H1142 H 0.13297 0.6112 0.49488 0.0
C1143 C 0.08435 0.58453 0.44677 0.0
C1144 C 0.1113 0.55953 0.46926 0.0
C1145 C 0.07791 0.58703 0.4318 0.0
C1146 C 0.17457 0.58093 0.51924 0.0
C1147 C 0.16018 0.57623 0.50658 0.0
C1148 C 0.12661 0.59644 0.48806 0.0
C1149 C 0.09873 0.5763 0.44876 0.0
C1150 C 0.10815 0.57661 0.46439 0.0
C1151 C 0.14404 0.58249 0.50684 0.0
C1152 C 0.13042 0.5797 0.49273 0.0
H1153 H 0.10557 0.56775 0.41045 0.0
H1154 H 0.11702 0.56355 0.43661 0.0
H1155 H 0.1138 0.60851 0.47055 0.0
H1156 H 0.15492 0.60601 0.54292 0.0
H1157 H 0.12961 0.59752 0.52096 0.0
C1158 C 0.49416 0.06183 0.60646 0.0
C1159 C 0.50913 0.06837 0.58749 0.0
C1160 C 0.5098 0.07933 0.6224 0.0
C1161 C 0.56014 0.14052 0.6302 0.0
H1162 H 0.55385 0.11611 0.67168 0.0
C1163 C 0.60818 0.19221 0.68387 0.0
C1164 C 0.59554 0.18902 0.69741 0.0
C1165 C 0.59925 0.17808 0.67113 0.0
C1166 C 0.55565 0.12314 0.66017 0.0
H1167 H 0.5394 0.09987 0.57105 0.0
H1168 H 0.56197 0.12722 0.59758 0.0
H1169 H 0.53648 0.09211 0.64929 0.0
H1170 H 0.56378 0.1684 0.70834 0.0
H1171 H 0.54826 0.14368 0.68612 0.0
H1172 H 0.57924 0.17158 0.6411 0.0
C1173 C 0.54669 0.11219 0.59936 0.0
C1174 C 0.54567 0.10942 0.64735 0.0
C1175 C 0.53229 0.09582 0.58265 0.0
C1176 C 0.57391 0.1713 0.69804 0.0
C1177 C 0.56507 0.15706 0.68537 0.0
C1178 C 0.5702 0.15424 0.64299 0.0
C1179 C 0.53595 0.10366 0.61891 0.0
C1180 C 0.54766 0.118 0.63228 0.0
C1181 C 0.57761 0.16037 0.67176 0.0
C1182 C 0.56788 0.1457 0.65812 0.0
H1183 H 0.47955 0.04632 0.60858 0.0
H1184 H 0.50325 0.07524 0.63413 0.0
H1185 H 0.56158 0.14773 0.61882 0.0
H1186 H 0.6249 0.20573 0.68305 0.0
H1187 H 0.60932 0.18093 0.66081 0.0
C1188 C 0.48932 0.54664 0.7701 0.0
C1189 C 0.50679 0.56542 0.7635 0.0
C1190 C 0.47347 0.54787 0.77926 0.0
C1191 C 0.45281 0.58454 0.79228 0.0
H1192 H 0.4416 0.55228 0.83092 0.0
C1193 C 0.42483 0.60633 0.84997 0.0
C1194 C 0.41028 0.58922 0.85968 0.0
C1195 C 0.43289 0.60212 0.83621 0.0
C1196 C 0.44419 0.56112 0.8201 0.0
H1197 H 0.52063 0.59995 0.76043 0.0
H1198 H 0.49339 0.6023 0.77688 0.0
H1199 H 0.46181 0.54685 0.8101 0.0
H1200 H 0.39172 0.55421 0.86204 0.0
H1201 H 0.40562 0.54695 0.8381 0.0
H1202 H 0.43575 0.59937 0.80272 0.0
C1203 C 0.49168 0.58655 0.77481 0.0
C1204 C 0.45576 0.55797 0.8081 0.0
C1205 C 0.5074 0.58527 0.7655 0.0
C1206 C 0.4032 0.56781 0.85498 0.0
C1207 C 0.41117 0.56363 0.84125 0.0
C1208 C 0.44126 0.58777 0.80437 0.0
C1209 C 0.47491 0.56795 0.78219 0.0
C1210 C 0.46051 0.56984 0.79412 0.0
C1211 C 0.4265 0.58073 0.8319 0.0
C1212 C 0.43709 0.57628 0.81848 0.0
H1213 H 0.4883 0.53109 0.76859 0.0
H1214 H 0.46046 0.53315 0.78445 0.0
H1215 H 0.45594 0.59374 0.78158 0.0
H1216 H 0.43052 0.623 0.85321 0.0
H1217 H 0.44481 0.61566 0.8293 0.0
C1218 C 0.90285 0.44402 0.90928 0.0
C1219 C 0.92167 0.4327 0.9076 0.0
C1220 C 0.88953 0.43977 0.928 0.0
C1221 C 0.87177 0.39936 0.96548 0.0
H1222 H 0.86798 0.44703 0.98407 0.0
C1223 C 0.83904 0.39431 0.02795 0.0
C1224 C 0.82404 0.40175 0.02996 0.0
C1225 C 0.85105 0.39855 0.01408 0.0
C1226 C 0.86876 0.43352 0.97896 0.0
H1227 H 0.92866 0.40238 0.91776 0.0
H1228 H 0.90526 0.39585 0.94676 0.0
H1229 H 0.88595 0.45186 0.95874 0.0
H1230 H 0.81019 0.41988 0.01921 0.0
H1231 H 0.83089 0.42701 0.99496 0.0
H1232 H 0.85443 0.38092 0.98558 0.0
C1233 C 0.90491 0.40672 0.93811 0.0
C1234 C 0.87898 0.43627 0.96444 0.0
C1235 C 0.91873 0.40988 0.91978 0.0
C1236 C 0.82164 0.41392 0.018 0.0
C1237 C 0.8336 0.41814 0.00414 0.0
C1238 C 0.86152 0.39659 0.97996 0.0
C1239 C 0.89128 0.42202 0.94231 0.0
C1240 C 0.88054 0.41919 0.95759 0.0
C1241 C 0.84825 0.41029 0.00196 0.0
C1242 C 0.85987 0.41361 0.98685 0.0
H1243 H 0.90338 0.45582 0.90109 0.0
H1244 H 0.88038 0.44792 0.9306 0.0
H1245 H 0.87227 0.38574 0.96034 0.0
H1246 H 0.84133 0.38499 0.037 0.0
H1247 H 0.86247 0.39257 0.01282 0.0
C1248 C 0.47393 0.90872 0.08562 0.0
C1249 C 0.49276 0.92925 0.08398 0.0
C1250 C 0.46433 0.90134 0.10028 0.0
C1251 C 0.44252 0.88966 0.13187 0.0
H1252 H 0.48439 0.90494 0.16597 0.0
C1253 C 0.41559 0.84665 0.19155 0.0
C1254 C 0.43047 0.84156 0.19877 0.0
C1255 C 0.42227 0.86084 0.17885 0.0
C1256 C 0.47246 0.90034 0.15657 0.0
H1257 H 0.5157 0.95866 0.09642 0.0
H1258 H 0.49824 0.94632 0.1218 0.0
H1259 H 0.49688 0.9229 0.14099 0.0
H1260 H 0.46399 0.84742 0.19854 0.0
H1261 H 0.4754 0.87128 0.17599 0.0
H1262 H 0.41853 0.8658 0.14707 0.0
C1263 C 0.49127 0.93554 0.11186 0.0
C1264 C 0.47955 0.911 0.14225 0.0
C1265 C 0.50115 0.94274 0.09723 0.0
C1266 C 0.45221 0.85115 0.19323 0.0
C1267 C 0.45878 0.86501 0.18037 0.0
C1268 C 0.43553 0.87869 0.1461 0.0
C1269 C 0.47315 0.91447 0.11368 0.0
C1270 C 0.46482 0.90541 0.12955 0.0
C1271 C 0.44386 0.86995 0.17291 0.0
C1272 C 0.45056 0.88349 0.15851 0.0
H1273 H 0.46724 0.89795 0.07563 0.0
H1274 H 0.45067 0.8849 0.10115 0.0
H1275 H 0.43053 0.88527 0.12252 0.0
H1276 H 0.39877 0.83965 0.19572 0.0
H1277 H 0.41043 0.86455 0.17364 0.0
C1278 C 0.56906 0.46487 0.24948 0.0
C1279 C 0.57451 0.48655 0.2476 0.0
C1280 C 0.56834 0.4565 0.26439 0.0
C1281 C 0.59237 0.47574 0.30349 0.0
H1282 H 0.5523 0.41648 0.31613 0.0
C1283 C 0.59581 0.44817 0.36532 0.0
C1284 C 0.59687 0.42908 0.3667 0.0
C1285 C 0.58957 0.45341 0.35126 0.0
C1286 C 0.56363 0.43303 0.31269 0.0
H1287 H 0.58309 0.51639 0.25993 0.0
H1288 H 0.58096 0.50162 0.28591 0.0
H1289 H 0.5473 0.42926 0.29067 0.0
H1290 H 0.59094 0.39986 0.35463 0.0
H1291 H 0.58026 0.40927 0.32978 0.0
H1292 H 0.60878 0.47959 0.32533 0.0
C1293 C 0.5776 0.49112 0.27586 0.0
C1294 C 0.5608 0.44035 0.29814 0.0
C1295 C 0.57858 0.49954 0.26097 0.0
C1296 C 0.59041 0.41475 0.35389 0.0
C1297 C 0.5842 0.42007 0.33971 0.0
C1298 C 0.5951 0.46849 0.31798 0.0
C1299 C 0.57309 0.46969 0.27773 0.0
C1300 C 0.57517 0.46182 0.29338 0.0
C1301 C 0.58433 0.43977 0.33817 0.0
C1302 C 0.58079 0.44709 0.32276 0.0
H1303 H 0.56618 0.45464 0.23933 0.0
H1304 H 0.56507 0.44003 0.26537 0.0
H1305 H 0.60413 0.49218 0.30006 0.0
H1306 H 0.60025 0.45938 0.37504 0.0
H1307 H 0.58933 0.46845 0.35052 0.0
C1308 C 0.44017 0.93159 0.37774 0.0
C1309 C 0.43925 0.9232 0.39276 0.0
C1310 C 0.44559 0.92322 0.36479 0.0
C1311 C 0.44074 0.87266 0.3512 0.0
H1312 H 0.47359 0.90762 0.31564 0.0
C1313 C 0.43707 0.83371 0.29126 0.0
C1314 C 0.43128 0.84322 0.27912 0.0
C1315 C 0.44454 0.84439 0.30567 0.0
C1316 C 0.46447 0.89763 0.32551 0.0
H1317 H 0.44332 0.8996 0.40604 0.0
H1318 H 0.45279 0.88489 0.38334 0.0
H1319 H 0.47469 0.92519 0.34046 0.0
H1320 H 0.43021 0.87193 0.27219 0.0
H1321 H 0.44304 0.89035 0.29711 0.0
H1322 H 0.42957 0.84519 0.33607 0.0
C1323 C 0.44949 0.89805 0.38163 0.0
C1324 C 0.46508 0.90769 0.33969 0.0
C1325 C 0.4442 0.90652 0.3946 0.0
C1326 C 0.43431 0.86406 0.28135 0.0
C1327 C 0.44193 0.87475 0.29562 0.0
C1328 C 0.44007 0.8626 0.337 0.0
C1329 C 0.44989 0.90608 0.36655 0.0
C1330 C 0.45259 0.89536 0.35251 0.0
C1331 C 0.44662 0.86485 0.30808 0.0
C1332 C 0.45126 0.87504 0.32384 0.0
H1333 H 0.43601 0.94415 0.37594 0.0
H1334 H 0.44534 0.92948 0.35329 0.0
H1335 H 0.43079 0.86271 0.36083 0.0
H1336 H 0.43496 0.81768 0.28986 0.0
H1337 H 0.44818 0.83643 0.31504 0.0
C1338 C 0.50062 0.43515 0.54332 0.0
C1339 C 0.51487 0.44203 0.55633 0.0
C1340 C 0.50889 0.43623 0.52828 0.0
C1341 C 0.56036 0.45838 0.50483 0.0
H1342 H 0.52764 0.40434 0.48195 0.0
C1343 C 0.59938 0.4308 0.45729 0.0
C1344 C 0.58625 0.41866 0.44455 0.0
C1345 C 0.59028 0.43696 0.46941 0.0
C1346 C 0.53679 0.41973 0.48798 0.0
H1347 H 0.5489 0.45585 0.56383 0.0
H1348 H 0.56337 0.45754 0.53757 0.0
H1349 H 0.51231 0.40982 0.50583 0.0
H1350 H 0.55357 0.4043 0.43415 0.0
H1351 H 0.53777 0.41528 0.45521 0.0
H1352 H 0.58515 0.46799 0.48711 0.0
C1353 C 0.54589 0.45172 0.53892 0.0
C1354 C 0.52798 0.42288 0.5017 0.0
C1355 C 0.53762 0.45066 0.55396 0.0
C1356 C 0.56405 0.41344 0.44391 0.0
C1357 C 0.55498 0.41968 0.45599 0.0
C1358 C 0.56918 0.45524 0.49105 0.0
C1359 C 0.53153 0.44402 0.52597 0.0
C1360 C 0.53984 0.44205 0.51044 0.0
C1361 C 0.56788 0.43117 0.46901 0.0
C1362 C 0.55767 0.43569 0.48265 0.0
H1363 H 0.48299 0.42827 0.54484 0.0
H1364 H 0.49746 0.43038 0.5185 0.0
H1365 H 0.56975 0.47344 0.51122 0.0
H1366 H 0.61657 0.43512 0.45808 0.0
H1367 H 0.60061 0.44557 0.47936 0.0
C1368 C 0.1064 0.54219 0.72746 0.0
C1369 C 0.09034 0.52013 0.72658 0.0
C1370 C 0.11479 0.5544 0.71383 0.0
C1371 C 0.10592 0.55382 0.67087 0.0
H1372 H 0.16993 0.58481 0.66907 0.0
C1373 C 0.15361 0.56404 0.61445 0.0
C1374 C 0.1738 0.58311 0.6118 0.0
C1375 C 0.14222 0.56108 0.62844 0.0
C1376 C 0.15207 0.57668 0.66944 0.0
H1377 H 0.07026 0.49357 0.71082 0.0
H1378 H 0.08488 0.51478 0.68702 0.0
H1379 H 0.15151 0.57102 0.69404 0.0
H1380 H 0.19754 0.61437 0.6216 0.0
H1381 H 0.17763 0.60903 0.64624 0.0
H1382 H 0.10654 0.55866 0.64611 0.0
C1383 C 0.0907 0.52283 0.69822 0.0
C1384 C 0.14148 0.56877 0.68376 0.0
C1385 C 0.08238 0.51063 0.71184 0.0
C1386 C 0.18208 0.59944 0.62333 0.0
C1387 C 0.17071 0.59639 0.63742 0.0
C1388 C 0.11651 0.56173 0.65655 0.0
C1389 C 0.10733 0.54473 0.69905 0.0
C1390 C 0.11831 0.55657 0.68453 0.0
C1391 C 0.15076 0.57706 0.64016 0.0
C1392 C 0.13968 0.57253 0.6556 0.0
H1393 H 0.11294 0.54983 0.7387 0.0
H1394 H 0.12751 0.57127 0.71484 0.0
H1395 H 0.08804 0.54485 0.67116 0.0
H1396 H 0.14666 0.55119 0.6058 0.0
H1397 H 0.12708 0.54587 0.63028 0.0
C1398 C 0.51627 0.06414 0.86632 0.0
C1399 C 0.50442 0.07019 0.87638 0.0
C1400 C 0.53095 0.07875 0.85538 0.0
C1401 C 0.56138 0.13685 0.84412 0.0
H1402 H 0.55798 0.11334 0.80256 0.0
C1403 C 0.59481 0.18967 0.78844 0.0
C1404 C 0.60535 0.18354 0.77722 0.0
C1405 C 0.5847 0.17665 0.8015 0.0
C1406 C 0.55938 0.12013 0.81415 0.0
H1407 H 0.4988 0.09635 0.88302 0.0
H1408 H 0.52427 0.12191 0.86375 0.0
H1409 H 0.53656 0.08924 0.82373 0.0
H1410 H 0.61404 0.15916 0.77119 0.0
H1411 H 0.59641 0.13652 0.79394 0.0
H1412 H 0.58388 0.16787 0.83432 0.0
C1413 C 0.52255 0.10598 0.86451 0.0
C1414 C 0.54712 0.1063 0.82631 0.0
C1415 C 0.50791 0.09136 0.87551 0.0
C1416 C 0.606 0.16435 0.77955 0.0
C1417 C 0.5958 0.1513 0.79256 0.0
C1418 C 0.5736 0.15072 0.83191 0.0
C1419 C 0.53395 0.09971 0.85412 0.0
C1420 C 0.54787 0.11448 0.84143 0.0
C1421 C 0.58482 0.15717 0.80358 0.0
C1422 C 0.57264 0.1425 0.81677 0.0
H1423 H 0.51383 0.0479 0.86669 0.0
H1424 H 0.53971 0.0735 0.84773 0.0
H1425 H 0.56255 0.14363 0.85567 0.0
H1426 H 0.59406 0.20438 0.78703 0.0
H1427 H 0.57621 0.18152 0.80972 0.0
C1428 C 0.46164 0.56904 0.06517 0.0
C1429 C 0.49207 0.58052 0.06668 0.0
C1430 C 0.45225 0.57261 0.04638 0.0
C1431 C 0.47473 0.61128 0.00792 0.0
H1432 H 0.42233 0.5622 0.99038 0.0
C1433 C 0.44601 0.61257 0.94505 0.0
C1434 C 0.42332 0.60479 0.94301 0.0
C1435 C 0.45396 0.60914 0.95912 0.0
C1436 C 0.43687 0.57611 0.99519 0.0
H1437 H 0.52979 0.61064 0.05603 0.0
H1438 H 0.51241 0.61611 0.02688 0.0
H1439 H 0.43595 0.55898 0.01597 0.0
H1440 H 0.39109 0.58677 0.95391 0.0
H1441 H 0.405 0.58103 0.97853 0.0
H1442 H 0.47562 0.6285 0.98723 0.0
C1443 C 0.50116 0.60552 0.03573 0.0
C1444 C 0.44463 0.57429 0.00986 0.0
C1445 C 0.51215 0.60301 0.05413 0.0
C1446 C 0.40868 0.59298 0.95514 0.0
C1447 C 0.41663 0.58959 0.96921 0.0
C1448 C 0.46697 0.61314 0.99328 0.0
C1449 C 0.47182 0.58994 0.03176 0.0
C1450 C 0.46359 0.59187 0.01634 0.0
C1451 C 0.43938 0.59789 0.97144 0.0
C1452 C 0.44794 0.59558 0.98676 0.0
H1453 H 0.45031 0.55746 0.07354 0.0
H1454 H 0.43474 0.56426 0.04389 0.0
H1455 H 0.48915 0.62526 0.01274 0.0
H1456 H 0.45768 0.62161 0.93587 0.0
H1457 H 0.47155 0.61543 0.9604 0.0
C1458 C 0.93399 0.43591 0.20889 0.0
C1459 C 0.95219 0.45687 0.21081 0.0
C1460 C 0.91644 0.43236 0.19911 0.0
C1461 C 0.90704 0.45684 0.1645 0.0
H1462 H 0.84588 0.4119 0.16968 0.0
C1463 C 0.84354 0.44079 0.11676 0.0
C1464 C 0.82978 0.41905 0.11232 0.0
C1465 C 0.85582 0.44601 0.13054 0.0
C1466 C 0.86293 0.42443 0.16808 0.0
H1467 H 0.96561 0.49071 0.205 0.0
H1468 H 0.93475 0.48463 0.18822 0.0
H1469 H 0.872 0.42067 0.19136 0.0
H1470 H 0.81735 0.3857 0.11923 0.0
H1471 H 0.83936 0.39488 0.1433 0.0
H1472 H 0.89828 0.46038 0.14122 0.0
C1473 C 0.93427 0.47085 0.19393 0.0
C1474 C 0.87786 0.42948 0.18048 0.0
C1475 C 0.95188 0.47437 0.20359 0.0
C1476 C 0.82792 0.40259 0.1223 0.0
C1477 C 0.84039 0.40785 0.13612 0.0
C1478 C 0.89218 0.45185 0.15219 0.0
C1479 C 0.91673 0.44972 0.19114 0.0
C1480 C 0.90015 0.4456 0.17874 0.0
C1481 C 0.85481 0.42964 0.14019 0.0
C1482 C 0.87002 0.43546 0.15376 0.0
H1483 H 0.93381 0.42217 0.2144 0.0
H1484 H 0.90328 0.41587 0.19715 0.0
H1485 H 0.92416 0.46899 0.16261 0.0
H1486 H 0.84505 0.4539 0.10951 0.0
H1487 H 0.86639 0.46293 0.13353 0.0
loop_
_geom_bond_atom_site_label_1
_geom_bond_atom_site_label_2
_geom_bond_distance
_geom_bond_site_symmetry_2
_ccdc_geom_bond_type
C0 C1 1.560 . S
C0 H61 0.959 . S
C0 H62 0.959 . S
C0 H63 0.960 . S
C1 C0 1.560 . S
C1 O56 1.426 . S
C1 H60 0.980 . S
C2 C3 1.407 . S
C2 C7 1.418 . S
C2 O56 1.334 . S
C3 C2 1.407 . S
C3 C4 1.360 . S
C3 H64 0.929 . S
C4 C3 1.360 . S
C4 C5 1.401 . S
C4 C8 1.527 . S
C5 C4 1.401 . S
C5 C6 1.405 . S
C5 C38 1.587 . S
C6 C5 1.405 . S
C6 C7 1.332 . S
C6 C9 1.496 . S
C7 C2 1.418 . S
C7 C6 1.332 . S
C7 H65 0.929 . S
C8 C4 1.527 . S
C8 H66 0.959 . S
C8 H67 0.961 . S
C8 H68 0.961 . S
C9 C6 1.496 . S
C9 H69 0.960 . S
C9 H70 0.960 . S
C9 H71 0.961 . S
C10 C11 1.517 . S
C10 H73 0.961 . S
C10 H74 0.960 . S
C10 H75 0.959 . S
C11 C10 1.517 . S
C11 O59 1.468 . S
C11 H72 0.980 . S
C12 C13 1.349 . S
C12 C17 1.367 . S
C12 O59 1.408 . S
C13 C12 1.349 . S
C13 C14 1.407 . S
C13 H76 0.930 . S
C14 C13 1.407 . S
C14 C15 1.449 . S
C14 C18 1.535 . S
C15 C14 1.449 . S
C15 C16 1.384 . S
C15 C40 1.553 1_655 S
C16 C15 1.384 . S
C16 C17 1.364 . S
C16 C19 1.450 . S
C17 C12 1.367 . S
C17 C16 1.364 . S
C17 H77 0.931 . S
C18 C14 1.535 . S
C18 H78 0.959 1_655 S
C18 H79 0.961 1_655 S
C18 H80 0.959 . S
C19 C16 1.450 . S
C19 H81 0.960 . S
C19 H82 0.960 1_655 S
C19 H83 0.960 . S
C20 C21 1.309 . S
C20 C25 1.304 . S
C20 O58 1.435 . S
C21 C20 1.309 . S
C21 C22 1.476 . S
C21 H85 0.930 . S
C22 C21 1.476 . S
C22 C23 1.400 . S
C22 C26 1.567 . S
C23 C22 1.400 . S
C23 C24 1.373 . S
C23 C45 1.432 . S
C24 C23 1.373 . S
C24 C25 1.339 . S
C24 C27 1.530 . S
C25 C20 1.304 . S
C25 C24 1.339 . S
C25 H86 0.930 . S
C26 C22 1.567 . S
C26 H87 0.961 . S
C26 H88 0.960 . S
C26 H89 0.958 . S
C27 C24 1.530 . S
C27 H90 0.961 . S
C27 H91 0.960 . S
C27 H92 0.960 . S
C28 C29 1.530 . S
C28 H94 0.961 . S
C28 H95 0.961 . S
C28 H96 0.959 . S
C29 C28 1.530 . S
C29 O57 1.412 . S
C29 H93 0.980 . S
C30 C31 1.288 . S
C30 C35 1.377 . S
C30 O57 1.393 . S
C31 C30 1.288 . S
C31 C32 1.369 . S
C31 H97 0.932 . S
C32 C31 1.369 . S
C32 C33 1.398 . S
C32 C36 1.527 . S
C33 C32 1.398 . S
C33 C34 1.380 . S
C33 C47 1.497 . S
C34 C33 1.380 . S
C34 C35 1.383 . S
C34 C37 1.603 . S
C35 C30 1.377 . S
C35 C34 1.383 . S
C35 H98 0.929 . S
C36 C32 1.527 . S
C36 H99 0.961 . S
C36 H100 0.959 1_455 S
C36 H101 0.959 . S
C37 C34 1.603 . S
C37 H102 0.960 . S
C37 H103 0.962 . S
C37 H104 0.961 . S
C38 C5 1.587 . S
C38 C39 1.360 . S
C38 C51 1.412 . S
C39 C38 1.360 . S
C39 C40 1.365 . S
C39 H105 0.929 . S
C40 C15 1.553 1_455 S
C40 C39 1.365 . S
C40 C41 1.404 . S
C41 C40 1.404 . S
C41 C42 1.395 1_455 S
C41 C52 1.451 . S
C42 C41 1.395 1_655 S
C42 C43 1.322 . S
C42 H106 0.930 . S
C43 C42 1.322 . S
C43 C44 1.459 . S
C43 H107 0.929 . S
C44 C43 1.459 . S
C44 C45 1.445 . S
C44 C53 1.395 1_655 S
C45 C23 1.432 . S
C45 C44 1.445 . S
C45 C46 1.370 . S
C46 C45 1.370 . S
C46 C47 1.438 1_655 S
C46 H108 0.930 . S
C47 C33 1.497 . S
C47 C46 1.438 1_455 S
C47 C48 1.360 . S
C48 C47 1.360 . S
C48 C49 1.401 . S
C48 C53 1.446 . S
C49 C48 1.401 . S
C49 C50 1.347 . S
C49 H109 0.929 . S
C50 C49 1.347 . S
C50 C51 1.455 . S
C50 H110 0.930 . S
C51 C38 1.412 . S
C51 C50 1.455 . S
C51 C52 1.331 . S
C52 C41 1.451 . S
C52 C51 1.331 . S
C52 C53 1.497 . S
C53 C44 1.395 1_455 S
C53 C48 1.446 . S
C53 C52 1.497 . S
C54 C55 1.582 . S
C54 H111 0.962 . S
C54 H112 0.959 . S
C54 H113 0.958 . S
C55 C54 1.582 . S
C55 O58 1.458 . S
C55 H84 0.980 . S
O56 C1 1.426 . S
O56 C2 1.334 . S
O57 C29 1.412 . S
O57 C30 1.393 . S
O58 C20 1.435 . S
O58 C55 1.458 . S
O59 C11 1.468 . S
O59 C12 1.408 . S
H60 C1 0.980 . S
H61 C0 0.959 . S
H62 C0 0.959 . S
H63 C0 0.960 . S
H64 C3 0.929 . S
H65 C7 0.929 . S
H66 C8 0.959 . S
H67 C8 0.961 . S
H68 C8 0.961 . S
H69 C9 0.960 . S
H70 C9 0.960 . S
H71 C9 0.961 . S
H72 C11 0.980 . S
H73 C10 0.961 . S
H74 C10 0.960 . S
H75 C10 0.959 . S
H76 C13 0.930 . S
H77 C17 0.931 . S
H78 C18 0.959 1_455 S
H79 C18 0.961 1_455 S
H80 C18 0.959 . S
H81 C19 0.960 . S
H82 C19 0.960 1_455 S
H83 C19 0.960 . S
H84 C55 0.980 . S
H85 C21 0.930 . S
H86 C25 0.930 . S
H87 C26 0.961 . S
H88 C26 0.960 . S
H89 C26 0.958 . S
H90 C27 0.961 . S
H91 C27 0.960 . S
H92 C27 0.960 . S
H93 C29 0.980 . S
H94 C28 0.961 . S
H95 C28 0.961 . S
H96 C28 0.959 . S
H97 C31 0.932 . S
H98 C35 0.929 . S
H99 C36 0.961 . S
H100 C36 0.959 1_655 S
H101 C36 0.959 . S
H102 C37 0.960 . S
H103 C37 0.962 . S
H104 C37 0.961 . S
H105 C39 0.929 . S
H106 C42 0.930 . S
H107 C43 0.929 . S
H108 C46 0.930 . S
H109 C49 0.929 . S
H110 C50 0.930 . S
H111 C54 0.962 . S
H112 C54 0.959 . S
H113 C54 0.958 . S
C114 C115 1.560 . S
C114 H175 0.959 . S
C114 H176 0.959 . S
C114 H177 0.960 . S
C115 C114 1.560 . S
C115 O170 1.426 . S
C115 H174 0.980 . S
C116 C117 1.407 . S
C116 C121 1.418 . S
C116 O170 1.334 . S
C117 C116 1.407 . S
C117 C118 1.360 . S
C117 H178 0.929 . S
C118 C117 1.360 . S
C118 C119 1.401 . S
C118 C122 1.527 . S
C119 C118 1.401 . S
C119 C120 1.405 . S
C119 C152 1.587 . S
C120 C119 1.405 . S
C120 C121 1.332 . S
C120 C123 1.496 . S
C121 C116 1.418 . S
C121 C120 1.332 . S
C121 H179 0.929 . S
C122 C118 1.527 . S
C122 H180 0.959 . S
C122 H181 0.961 . S
C122 H182 0.961 . S
C123 C120 1.496 . S
C123 H183 0.960 . S
C123 H184 0.960 . S
C123 H185 0.961 . S
C124 C125 1.517 . S
C124 H187 0.961 . S
C124 H188 0.960 . S
C124 H189 0.959 . S
C125 C124 1.517 . S
C125 O173 1.468 . S
C125 H186 0.980 . S
C126 C127 1.349 . S
C126 C131 1.367 . S
C126 O173 1.408 . S
C127 C126 1.349 . S
C127 C128 1.407 . S
C127 H190 0.930 . S
C128 C127 1.407 . S
C128 C129 1.449 . S
C128 C132 1.535 . S
C129 C128 1.449 . S
C129 C130 1.384 . S
C129 C154 1.553 . S
C130 C129 1.384 . S
C130 C131 1.364 . S
C130 C133 1.450 . S
C131 C126 1.367 . S
C131 C130 1.364 . S
C131 H191 0.931 . S
C132 C128 1.535 . S
C132 H192 0.959 . S
C132 H193 0.961 . S
C132 H194 0.959 . S
C133 C130 1.450 . S
C133 H195 0.960 . S
C133 H196 0.960 . S
C133 H197 0.960 . S
C134 C135 1.309 . S
C134 C139 1.304 . S
C134 O172 1.435 . S
C135 C134 1.309 . S
C135 C136 1.476 . S
C135 H199 0.930 . S
C136 C135 1.476 . S
C136 C137 1.400 . S
C136 C140 1.567 . S
C137 C136 1.400 . S
C137 C138 1.373 . S
C137 C159 1.432 . S
C138 C137 1.373 . S
C138 C139 1.339 . S
C138 C141 1.530 . S
C139 C134 1.304 . S
C139 C138 1.339 . S
C139 H200 0.930 . S
C140 C136 1.567 . S
C140 H201 0.961 . S
C140 H202 0.960 . S
C140 H203 0.958 . S
C141 C138 1.530 . S
C141 H204 0.961 . S
C141 H205 0.960 . S
C141 H206 0.960 . S
C142 C143 1.530 . S
C142 H208 0.961 . S
C142 H209 0.961 . S
C142 H210 0.959 . S
C143 C142 1.530 . S
C143 O171 1.412 . S
C143 H207 0.980 . S
C144 C145 1.288 . S
C144 C149 1.377 . S
C144 O171 1.393 . S
C145 C144 1.288 . S
C145 C146 1.369 . S
C145 H211 0.932 . S
C146 C145 1.369 . S
C146 C147 1.398 . S
C146 C150 1.527 1_565 S
C147 C146 1.398 . S
C147 C148 1.380 . S
C147 C161 1.497 1_565 S
C148 C147 1.380 . S
C148 C149 1.383 . S
C148 C151 1.603 . S
C149 C144 1.377 . S
C149 C148 1.383 . S
C149 H212 0.929 . S
C150 C146 1.527 1_545 S
C150 H213 0.961 . S
C150 H214 0.959 . S
C150 H215 0.959 1_545 S
C151 C148 1.603 . S
C151 H216 0.960 . S
C151 H217 0.962 . S
C151 H218 0.961 . S
C152 C119 1.587 . S
C152 C153 1.360 . S
C152 C165 1.412 . S
C153 C152 1.360 . S
C153 C154 1.365 1_565 S
C153 H219 0.929 . S
C154 C129 1.553 . S
C154 C153 1.365 1_545 S
C154 C155 1.404 . S
C155 C154 1.404 . S
C155 C156 1.395 . S
C155 C166 1.451 . S
C156 C155 1.395 . S
C156 C157 1.322 . S
C156 H220 0.930 . S
C157 C156 1.322 . S
C157 C158 1.459 . S
C157 H221 0.929 . S
C158 C157 1.459 . S
C158 C159 1.445 . S
C158 C167 1.395 . S
C159 C137 1.432 . S
C159 C158 1.445 . S
C159 C160 1.370 . S
C160 C159 1.370 . S
C160 C161 1.438 . S
C160 H222 0.930 . S
C161 C147 1.497 1_545 S
C161 C160 1.438 . S
C161 C162 1.347 1_545 S
C162 C161 1.347 1_565 S
C162 C163 1.428 . S
C162 C167 1.431 1_565 S
C163 C162 1.428 . S
C163 C164 1.347 . S
C163 H223 0.929 . S
C164 C163 1.347 . S
C164 C165 1.455 . S
C164 H224 0.930 . S
C165 C152 1.412 . S
C165 C164 1.455 . S
C165 C166 1.331 1_565 S
C166 C155 1.451 . S
C166 C165 1.331 1_545 S
C166 C167 1.497 . S
C167 C158 1.395 . S
C167 C162 1.431 1_545 S
C167 C166 1.497 . S
C168 C169 1.582 . S
C168 H225 0.962 . S
C168 H226 0.959 . S
C168 H227 0.958 . S
C169 C168 1.582 . S
C169 O172 1.458 . S
C169 H198 0.980 . S
O170 C115 1.426 . S
O170 C116 1.334 . S
O171 C143 1.412 . S
O171 C144 1.393 . S
O172 C134 1.435 . S
O172 C169 1.458 . S
O173 C125 1.468 . S
O173 C126 1.408 . S
H174 C115 0.980 . S
H175 C114 0.959 . S
H176 C114 0.959 . S
H177 C114 0.960 . S
H178 C117 0.929 . S
H179 C121 0.929 . S
H180 C122 0.959 . S
H181 C122 0.961 . S
H182 C122 0.961 . S
H183 C123 0.960 . S
H184 C123 0.960 . S
H185 C123 0.961 . S
H186 C125 0.980 . S
H187 C124 0.961 . S
H188 C124 0.960 . S
H189 C124 0.959 . S
H190 C127 0.930 . S
H191 C131 0.931 . S
H192 C132 0.959 . S
H193 C132 0.961 . S
H194 C132 0.959 . S
H195 C133 0.960 . S
H196 C133 0.960 . S
H197 C133 0.960 . S
H198 C169 0.980 . S
H199 C135 0.930 . S
H200 C139 0.930 . S
H201 C140 0.961 . S
H202 C140 0.960 . S
H203 C140 0.958 . S
H204 C141 0.961 . S
H205 C141 0.960 . S
H206 C141 0.960 . S
H207 C143 0.980 . S
H208 C142 0.961 . S
H209 C142 0.961 . S
H210 C142 0.959 . S
H211 C145 0.932 . S
H212 C149 0.929 . S
H213 C150 0.961 . S
H214 C150 0.959 . S
H215 C150 0.959 1_565 S
H216 C151 0.960 . S
H217 C151 0.962 . S
H218 C151 0.961 . S
H219 C153 0.929 . S
H220 C156 0.930 . S
H221 C157 0.929 . S
H222 C160 0.930 . S
H223 C163 0.929 . S
H224 C164 0.930 . S
H225 C168 0.962 . S
H226 C168 0.959 . S
H227 C168 0.958 . S
C228 C229 1.560 . S
C228 H289 0.959 . S
C228 H290 0.959 . S
C228 H291 0.960 . S
C229 C228 1.560 . S
C229 O284 1.426 . S
C229 H288 0.980 . S
C230 C231 1.407 . S
C230 C235 1.418 . S
C230 O284 1.334 . S
C231 C230 1.407 . S
C231 C232 1.360 . S
C231 H292 0.929 . S
C232 C231 1.360 . S
C232 C233 1.401 . S
C232 C236 1.527 . S
C233 C232 1.401 . S
C233 C234 1.405 . S
C233 C266 1.587 . S
C234 C233 1.405 . S
C234 C235 1.332 . S
C234 C237 1.496 . S
C235 C230 1.418 . S
C235 C234 1.332 . S
C235 H293 0.929 . S
C236 C232 1.527 . S
C236 H294 0.959 . S
C236 H295 0.961 . S
C236 H296 0.961 . S
C237 C234 1.496 . S
C237 H297 0.960 . S
C237 H298 0.960 . S
C237 H299 0.961 . S
C238 C239 1.517 . S
C238 H301 0.961 . S
C238 H302 0.960 . S
C238 H303 0.959 . S
C239 C238 1.517 . S
C239 O287 1.468 . S
C239 H300 0.980 . S
C240 C241 1.349 . S
C240 C245 1.367 . S
C240 O287 1.408 . S
C241 C240 1.349 . S
C241 C242 1.407 . S
C241 H304 0.930 . S
C242 C241 1.407 . S
C242 C243 1.449 . S
C242 C246 1.535 . S
C243 C242 1.449 . S
C243 C244 1.384 . S
C243 C268 1.553 . S
C244 C243 1.384 . S
C244 C245 1.364 . S
C244 C247 1.450 . S
C245 C240 1.367 . S
C245 C244 1.364 . S
C245 H305 0.931 . S
C246 C242 1.535 . S
C246 H306 0.959 . S
C246 H307 0.961 . S
C246 H308 0.959 . S
C247 C244 1.450 . S
C247 H309 0.960 . S
C247 H310 0.960 . S
C247 H311 0.960 . S
C248 C249 1.309 . S
C248 C253 1.304 . S
C248 O286 1.435 . S
C249 C248 1.309 . S
C249 C250 1.476 . S
C249 H313 0.930 . S
C250 C249 1.476 . S
C250 C251 1.400 . S
C250 C254 1.567 . S
C251 C250 1.400 . S
C251 C252 1.373 . S
C251 C273 1.432 . S
C252 C251 1.373 . S
C252 C253 1.339 . S
C252 C255 1.530 . S
C253 C248 1.304 . S
C253 C252 1.339 . S
C253 H314 0.930 . S
C254 C250 1.567 . S
C254 H315 0.961 . S
C254 H316 0.960 . S
C254 H317 0.958 . S
C255 C252 1.530 . S
C255 H318 0.961 . S
C255 H319 0.960 . S
C255 H320 0.960 . S
C256 C257 1.530 . S
C256 H322 0.961 . S
C256 H323 0.961 . S
C256 H324 0.959 . S
C257 C256 1.530 . S
C257 O285 1.412 . S
C257 H321 0.980 . S
C258 C259 1.288 . S
C258 C263 1.377 . S
C258 O285 1.393 . S
C259 C258 1.288 . S
C259 C260 1.369 . S
C259 H325 0.932 . S
C260 C259 1.369 . S
C260 C261 1.398 . S
C260 C264 1.527 . S
C261 C260 1.398 . S
C261 C262 1.380 . S
C261 C275 1.497 . S
C262 C261 1.380 . S
C262 C263 1.383 . S
C262 C265 1.603 . S
C263 C258 1.377 . S
C263 C262 1.383 . S
C263 H326 0.929 . S
C264 C260 1.527 . S
C264 H327 0.961 . S
C264 H328 0.959 . S
C264 H329 0.959 . S
C265 C262 1.603 . S
C265 H330 0.960 . S
C265 H331 0.962 . S
C265 H332 0.961 . S
C266 C233 1.587 . S
C266 C267 1.360 . S
C266 C279 1.412 . S
C267 C266 1.360 . S
C267 C268 1.365 . S
C267 H333 0.929 . S
C268 C243 1.553 . S
C268 C267 1.365 . S
C268 C269 1.404 . S
C269 C268 1.404 . S
C269 C270 1.395 . S
C269 C280 1.451 . S
C270 C269 1.395 . S
C270 C271 1.322 . S
C270 H334 0.930 . S
C271 C270 1.322 . S
C271 C272 1.459 . S
C271 H335 0.929 . S
C272 C271 1.459 . S
C272 C273 1.445 . S
C272 C281 1.395 . S
C273 C251 1.432 . S
C273 C272 1.445 . S
C273 C274 1.370 . S
C274 C273 1.370 . S
C274 C275 1.438 . S
C274 H336 0.930 . S
C275 C261 1.497 . S
C275 C274 1.438 . S
C275 C276 1.360 . S
C276 C275 1.360 . S
C276 C277 1.401 . S
C276 C281 1.446 . S
C277 C276 1.401 . S
C277 C278 1.347 . S
C277 H337 0.929 . S
C278 C277 1.347 . S
C278 C279 1.455 . S
C278 H338 0.930 . S
C279 C266 1.412 . S
C279 C278 1.455 . S
C279 C280 1.331 . S
C280 C269 1.451 . S
C280 C279 1.331 . S
C280 C281 1.497 . S
C281 C272 1.395 . S
C281 C276 1.446 . S
C281 C280 1.497 . S
C282 C283 1.582 . S
C282 H339 0.962 . S
C282 H340 0.959 . S
C282 H341 0.958 . S
C283 C282 1.582 . S
C283 O286 1.458 . S
C283 H312 0.980 . S
O284 C229 1.426 . S
O284 C230 1.334 . S
O285 C257 1.412 . S
O285 C258 1.393 . S
O286 C248 1.435 . S
O286 C283 1.458 . S
O287 C239 1.468 . S
O287 C240 1.408 . S
H288 C229 0.980 . S
H289 C228 0.959 . S
H290 C228 0.959 . S
H291 C228 0.960 . S
H292 C231 0.929 . S
H293 C235 0.929 . S
H294 C236 0.959 . S
H295 C236 0.961 . S
H296 C236 0.961 . S
H297 C237 0.960 . S
H298 C237 0.960 . S
H299 C237 0.961 . S
H300 C239 0.980 . S
H301 C238 0.961 . S
H302 C238 0.960 . S
H303 C238 0.959 . S
H304 C241 0.930 . S
H305 C245 0.931 . S
H306 C246 0.959 . S
H307 C246 0.961 . S
H308 C246 0.959 . S
H309 C247 0.960 . S
H310 C247 0.960 . S
H311 C247 0.960 . S
H312 C283 0.980 . S
H313 C249 0.930 . S
H314 C253 0.930 . S
H315 C254 0.961 . S
H316 C254 0.960 . S
H317 C254 0.958 . S
H318 C255 0.961 . S
H319 C255 0.960 . S
H320 C255 0.960 . S
H321 C257 0.980 . S
H322 C256 0.961 . S
H323 C256 0.961 . S
H324 C256 0.959 . S
H325 C259 0.932 . S
H326 C263 0.929 . S
H327 C264 0.961 . S
H328 C264 0.959 . S
H329 C264 0.959 . S
H330 C265 0.960 . S
H331 C265 0.962 . S
H332 C265 0.961 . S
H333 C267 0.929 . S
H334 C270 0.930 . S
H335 C271 0.929 . S
H336 C274 0.930 . S
H337 C277 0.929 . S
H338 C278 0.930 . S
H339 C282 0.962 . S
H340 C282 0.959 . S
H341 C282 0.958 . S
C342 C343 1.560 . S
C342 H403 0.959 . S
C342 H404 0.959 . S
C342 H405 0.960 . S
C343 C342 1.560 . S
C343 O398 1.426 . S
C343 H402 0.980 . S
C344 C345 1.407 . S
C344 C349 1.418 . S
C344 O398 1.334 . S
C345 C344 1.407 . S
C345 C346 1.360 . S
C345 H406 0.929 . S
C346 C345 1.360 . S
C346 C347 1.401 . S
C346 C350 1.527 . S
C347 C346 1.401 . S
C347 C348 1.405 . S
C347 C380 1.587 . S
C348 C347 1.405 . S
C348 C349 1.332 . S
C348 C351 1.496 . S
C349 C344 1.418 . S
C349 C348 1.332 . S
C349 H407 0.929 . S
C350 C346 1.527 . S
C350 H408 0.959 . S
C350 H409 0.961 . S
C350 H410 0.961 . S
C351 C348 1.496 . S
C351 H411 0.960 . S
C351 H412 0.960 . S
C351 H413 0.961 . S
C352 C353 1.517 . S
C352 H415 0.961 . S
C352 H416 0.960 . S
C352 H417 0.959 . S
C353 C352 1.517 . S
C353 O401 1.468 . S
C353 H414 0.980 . S
C354 C355 1.349 . S
C354 C359 1.367 . S
C354 O401 1.408 . S
C355 C354 1.349 . S
C355 C356 1.407 . S
C355 H418 0.930 . S
C356 C355 1.407 . S
C356 C357 1.449 . S
C356 C360 1.535 . S
C357 C356 1.449 . S
C357 C358 1.384 . S
C357 C382 1.553 1_655 S
C358 C357 1.384 . S
C358 C359 1.364 . S
C358 C361 1.450 . S
C359 C354 1.367 . S
C359 C358 1.364 . S
C359 H419 0.931 . S
C360 C356 1.535 . S
C360 H420 0.959 1_655 S
C360 H421 0.968 . S
C360 H422 0.959 . S
C361 C358 1.450 . S
C361 H423 0.960 . S
C361 H424 0.960 1_655 S
C361 H425 0.960 . S
C362 C363 1.309 . S
C362 C367 1.304 . S
C362 O400 1.435 . S
C363 C362 1.309 . S
C363 C364 1.476 . S
C363 H427 0.930 . S
C364 C363 1.476 . S
C364 C365 1.400 . S
C364 C368 1.567 . S
C365 C364 1.400 . S
C365 C366 1.373 . S
C365 C387 1.432 . S
C366 C365 1.373 . S
C366 C367 1.339 . S
C366 C369 1.530 . S
C367 C362 1.304 . S
C367 C366 1.339 . S
C367 H428 0.930 . S
C368 C364 1.567 . S
C368 H429 0.961 . S
C368 H430 0.960 . S
C368 H431 0.958 . S
C369 C366 1.530 . S
C369 H432 0.961 . S
C369 H433 0.960 . S
C369 H434 0.960 . S
C370 C371 1.530 . S
C370 H436 0.961 . S
C370 H437 0.961 . S
C370 H438 0.959 . S
C371 C370 1.530 . S
C371 O399 1.412 . S
C371 H435 0.980 . S
C372 C373 1.288 . S
C372 C377 1.377 . S
C372 O399 1.393 . S
C373 C372 1.288 . S
C373 C374 1.369 . S
C373 H439 0.932 . S
C374 C373 1.369 . S
C374 C375 1.398 . S
C374 C378 1.527 . S
C375 C374 1.398 . S
C375 C376 1.380 . S
C375 C389 1.497 . S
C376 C375 1.380 . S
C376 C377 1.383 . S
C376 C379 1.603 . S
C377 C372 1.377 . S
C377 C376 1.383 . S
C377 H440 0.929 . S
C378 C374 1.527 . S
C378 H441 0.961 . S
C378 H442 0.959 1_455 S
C378 H443 0.959 . S
C379 C376 1.603 . S
C379 H444 0.960 . S
C379 H445 0.962 . S
C379 H446 0.961 . S
C380 C347 1.587 . S
C380 C381 1.360 . S
C380 C393 1.412 . S
C381 C380 1.360 . S
C381 C382 1.365 . S
C381 H447 0.929 . S
C382 C357 1.553 1_455 S
C382 C381 1.365 . S
C382 C383 1.404 1_455 S
C383 C382 1.404 1_655 S
C383 C384 1.395 . S
C383 C394 1.451 1_655 S
C384 C383 1.395 . S
C384 C385 1.322 . S
C384 H448 0.930 . S
C385 C384 1.322 . S
C385 C386 1.459 . S
C385 H449 0.929 . S
C386 C385 1.459 . S
C386 C387 1.445 . S
C386 C395 1.395 1_655 S
C387 C365 1.432 . S
C387 C386 1.445 . S
C387 C388 1.370 . S
C388 C387 1.370 . S
C388 C389 1.438 1_655 S
C388 H450 0.930 . S
C389 C375 1.497 . S
C389 C388 1.438 1_455 S
C389 C390 1.360 . S
C390 C389 1.360 . S
C390 C391 1.401 . S
C390 C395 1.446 . S
C391 C390 1.401 . S
C391 C392 1.347 . S
C391 H451 0.929 . S
C392 C391 1.347 . S
C392 C393 1.455 . S
C392 H452 0.930 . S
C393 C380 1.412 . S
C393 C392 1.455 . S
C393 C394 1.331 . S
C394 C383 1.451 1_455 S
C394 C393 1.331 . S
C394 C395 1.497 . S
C395 C386 1.395 1_455 S
C395 C390 1.446 . S
C395 C394 1.497 . S
C396 C397 1.582 . S
C396 H453 0.962 . S
C396 H454 0.959 . S
C396 H455 0.958 . S
C397 C396 1.582 . S
C397 O400 1.458 . S
C397 H426 0.980 . S
O398 C343 1.426 . S
O398 C344 1.334 . S
O399 C371 1.412 . S
O399 C372 1.393 . S
O400 C362 1.435 . S
O400 C397 1.458 . S
O401 C353 1.468 . S
O401 C354 1.408 . S
H402 C343 0.980 . S
H403 C342 0.959 . S
H404 C342 0.959 . S
H405 C342 0.960 . S
H406 C345 0.929 . S
H407 C349 0.929 . S
H408 C350 0.959 . S
H409 C350 0.961 . S
H410 C350 0.961 . S
H411 C351 0.960 . S
H412 C351 0.960 . S
H413 C351 0.961 . S
H414 C353 0.980 . S
H415 C352 0.961 . S
H416 C352 0.960 . S
H417 C352 0.959 . S
H418 C355 0.930 . S
H419 C359 0.931 . S
H420 C360 0.959 1_455 S
H421 C360 0.968 . S
H422 C360 0.959 . S
H423 C361 0.960 . S
H424 C361 0.960 1_455 S
H425 C361 0.960 . S
H426 C397 0.980 . S
H427 C363 0.930 . S
H428 C367 0.930 . S
H429 C368 0.961 . S
H430 C368 0.960 . S
H431 C368 0.958 . S
H432 C369 0.961 . S
H433 C369 0.960 . S
H434 C369 0.960 . S
H435 C371 0.980 . S
H436 C370 0.961 . S
H437 C370 0.961 . S
H438 C370 0.959 . S
H439 C373 0.932 . S
H440 C377 0.929 . S
H441 C378 0.961 . S
H442 C378 0.959 1_655 S
H443 C378 0.959 . S
H444 C379 0.960 . S
H445 C379 0.962 . S
H446 C379 0.961 . S
H447 C381 0.929 . S
H448 C384 0.930 . S
H449 C385 0.929 . S
H450 C388 0.930 . S
H451 C391 0.929 . S
H452 C392 0.930 . S
H453 C396 0.962 . S
H454 C396 0.959 . S
H455 C396 0.958 . S
C456 C457 1.560 . S
C456 H517 0.959 . S
C456 H518 0.959 . S
C456 H519 0.960 . S
C457 C456 1.560 . S
C457 O512 1.426 . S
C457 H516 0.980 . S
C458 C459 1.407 . S
C458 C463 1.418 . S
C458 O512 1.334 . S
C459 C458 1.407 . S
C459 C460 1.360 . S
C459 H520 0.929 . S
C460 C459 1.360 . S
C460 C461 1.401 . S
C460 C464 1.527 . S
C461 C460 1.401 . S
C461 C462 1.405 . S
C461 C494 1.587 . S
C462 C461 1.405 . S
C462 C463 1.332 . S
C462 C465 1.496 . S
C463 C458 1.418 . S
C463 C462 1.332 . S
C463 H521 0.929 . S
C464 C460 1.527 . S
C464 H522 0.959 . S
C464 H523 0.961 . S
C464 H524 0.961 . S
C465 C462 1.496 . S
C465 H525 0.960 . S
C465 H526 0.960 . S
C465 H527 0.961 . S
C466 C467 1.517 . S
C466 H529 0.961 . S
C466 H530 0.960 . S
C466 H531 0.959 . S
C467 C466 1.517 . S
C467 O515 1.468 . S
C467 H528 0.980 . S
C468 C469 1.349 . S
C468 C473 1.367 . S
C468 O515 1.408 . S
C469 C468 1.349 . S
C469 C470 1.407 . S
C469 H532 0.930 . S
C470 C469 1.407 . S
C470 C471 1.449 . S
C470 C474 1.535 . S
C471 C470 1.449 . S
C471 C472 1.384 . S
C471 C496 1.553 . S
C472 C471 1.384 . S
C472 C473 1.364 . S
C472 C475 1.450 . S
C473 C468 1.367 . S
C473 C472 1.364 . S
C473 H533 0.931 . S
C474 C470 1.535 . S
C474 H534 0.959 . S
C474 H535 0.961 . S
C474 H536 0.959 . S
C475 C472 1.450 . S
C475 H537 0.960 . S
C475 H538 0.960 . S
C475 H539 0.960 . S
C476 C477 1.309 . S
C476 C481 1.304 . S
C476 O514 1.435 . S
C477 C476 1.309 . S
C477 C478 1.476 . S
C477 H541 0.930 . S
C478 C477 1.476 . S
C478 C479 1.400 . S
C478 C482 1.567 . S
C479 C478 1.400 . S
C479 C480 1.373 . S
C479 C501 1.432 . S
C480 C479 1.373 . S
C480 C481 1.339 . S
C480 C483 1.530 . S
C481 C476 1.304 . S
C481 C480 1.339 . S
C481 H542 0.930 . S
C482 C478 1.567 . S
C482 H543 0.961 . S
C482 H544 0.960 . S
C482 H545 0.958 . S
C483 C480 1.530 . S
C483 H546 0.961 . S
C483 H547 0.960 . S
C483 H548 0.960 . S
C484 C485 1.530 . S
C484 H550 0.961 . S
C484 H551 0.961 . S
C484 H552 0.959 . S
C485 C484 1.530 . S
C485 O513 1.412 . S
C485 H549 0.980 . S
C486 C487 1.288 . S
C486 C491 1.377 . S
C486 O513 1.393 . S
C487 C486 1.288 . S
C487 C488 1.369 . S
C487 H553 0.932 . S
C488 C487 1.369 . S
C488 C489 1.398 . S
C488 C492 1.527 1_565 S
C489 C488 1.398 . S
C489 C490 1.380 . S
C489 C503 1.497 1_565 S
C490 C489 1.380 . S
C490 C491 1.383 . S
C490 C493 1.603 . S
C491 C486 1.377 . S
C491 C490 1.383 . S
C491 H554 0.929 . S
C492 C488 1.527 1_545 S
C492 H555 0.964 . S
C492 H556 0.959 . S
C492 H557 0.959 1_545 S
C493 C490 1.603 . S
C493 H558 0.960 . S
C493 H559 0.962 . S
C493 H560 0.961 . S
C494 C461 1.587 . S
C494 C495 1.360 . S
C494 C507 1.412 . S
C495 C494 1.360 . S
C495 C496 1.365 1_565 S
C495 H561 0.929 . S
C496 C471 1.553 . S
C496 C495 1.365 1_545 S
C496 C497 1.404 . S
C497 C496 1.404 . S
C497 C498 1.395 . S
C497 C508 1.470 . S
C498 C497 1.395 . S
C498 C499 1.322 . S
C498 H562 0.930 . S
C499 C498 1.322 . S
C499 C500 1.498 . S
C499 H563 0.929 . S
C500 C499 1.498 . S
C500 C501 1.400 1_556 S
C500 C509 1.402 . S
C501 C479 1.432 . S
C501 C500 1.400 1_554 S
C501 C502 1.370 . S
C502 C501 1.370 . S
C502 C503 1.438 . S
C502 H564 0.930 . S
C503 C489 1.497 1_545 S
C503 C502 1.438 . S
C503 C504 1.360 1_545 S
C504 C503 1.360 1_565 S
C504 C505 1.401 . S
C504 C509 1.446 1_564 S
C505 C504 1.401 . S
C505 C506 1.347 1_554 S
C505 H565 0.929 . S
C506 C505 1.347 1_556 S
C506 C507 1.455 . S
C506 H566 0.930 . S
C507 C494 1.412 . S
C507 C506 1.455 . S
C507 C508 1.304 1_565 S
C508 C497 1.470 . S
C508 C507 1.304 1_545 S
C508 C509 1.507 . S
C509 C500 1.402 . S
C509 C504 1.446 1_546 S
C509 C508 1.507 . S
C510 C511 1.582 . S
C510 H567 0.962 . S
C510 H568 0.959 . S
C510 H569 0.958 . S
C511 C510 1.582 . S
C511 O514 1.458 . S
C511 H540 0.980 . S
O512 C457 1.426 . S
O512 C458 1.334 . S
O513 C485 1.412 . S
O513 C486 1.393 . S
O514 C476 1.435 . S
O514 C511 1.458 . S
O515 C467 1.468 . S
O515 C468 1.408 . S
H516 C457 0.980 . S
H517 C456 0.959 . S
H518 C456 0.959 . S
H519 C456 0.960 . S
H520 C459 0.929 . S
H521 C463 0.929 . S
H522 C464 0.959 . S
H523 C464 0.961 . S
H524 C464 0.961 . S
H525 C465 0.960 . S
H526 C465 0.960 . S
H527 C465 0.961 . S
H528 C467 0.980 . S
H529 C466 0.961 . S
H530 C466 0.960 . S
H531 C466 0.959 . S
H532 C469 0.930 . S
H533 C473 0.931 . S
H534 C474 0.959 . S
H535 C474 0.961 . S
H536 C474 0.959 . S
H537 C475 0.960 . S
H538 C475 0.960 . S
H539 C475 0.960 . S
H540 C511 0.980 . S
H541 C477 0.930 . S
H542 C481 0.930 . S
H543 C482 0.961 . S
H544 C482 0.960 . S
H545 C482 0.958 . S
H546 C483 0.961 . S
H547 C483 0.960 . S
H548 C483 0.960 . S
H549 C485 0.980 . S
H550 C484 0.961 . S
H551 C484 0.961 . S
H552 C484 0.959 . S
H553 C487 0.932 . S
H554 C491 0.929 . S
H555 C492 0.964 . S
H556 C492 0.959 . S
H557 C492 0.959 1_565 S
H558 C493 0.960 . S
H559 C493 0.962 . S
H560 C493 0.961 . S
H561 C495 0.929 . S
H562 C498 0.930 . S
H563 C499 0.929 . S
H564 C502 0.930 . S
H565 C505 0.929 . S
H566 C506 0.930 . S
H567 C510 0.962 . S
H568 C510 0.959 . S
H569 C510 0.958 . S
C570 C571 1.560 . S
C570 H631 0.959 . S
C570 H632 0.959 . S
C570 H633 0.960 . S
C571 C570 1.560 . S
C571 O626 1.426 . S
C571 H630 0.980 . S
C572 C573 1.407 . S
C572 C577 1.418 . S
C572 O626 1.334 . S
C573 C572 1.407 . S
C573 C574 1.360 . S
C573 H634 0.929 . S
C574 C573 1.360 . S
C574 C575 1.401 . S
C574 C578 1.527 . S
C575 C574 1.401 . S
C575 C576 1.405 . S
C575 C608 1.587 . S
C576 C575 1.405 . S
C576 C577 1.332 . S
C576 C579 1.496 . S
C577 C572 1.418 . S
C577 C576 1.332 . S
C577 H635 0.929 . S
C578 C574 1.527 . S
C578 H636 0.959 . S
C578 H637 0.961 . S
C578 H638 0.961 . S
C579 C576 1.496 . S
C579 H639 0.960 . S
C579 H640 0.960 . S
C579 H641 0.961 . S
C580 C581 1.517 . S
C580 H643 0.961 . S
C580 H644 0.960 . S
C580 H645 0.959 . S
C581 C580 1.517 . S
C581 O629 1.468 . S
C581 H642 0.980 . S
C582 C583 1.349 . S
C582 C587 1.367 . S
C582 O629 1.408 . S
C583 C582 1.349 . S
C583 C584 1.407 . S
C583 H646 0.930 . S
C584 C583 1.407 . S
C584 C585 1.449 . S
C584 C588 1.535 . S
C585 C584 1.449 . S
C585 C586 1.384 . S
C585 C610 1.553 . S
C586 C585 1.384 . S
C586 C587 1.364 . S
C586 C589 1.450 . S
C587 C582 1.367 . S
C587 C586 1.364 . S
C587 H647 0.931 . S
C588 C584 1.535 . S
C588 H648 0.959 . S
C588 H649 0.961 . S
C588 H650 0.959 . S
C589 C586 1.450 . S
C589 H651 0.960 . S
C589 H652 0.960 . S
C589 H653 0.960 . S
C590 C591 1.309 . S
C590 C595 1.304 . S
C590 O628 1.435 . S
C591 C590 1.309 . S
C591 C592 1.476 . S
C591 H655 0.930 . S
C592 C591 1.476 . S
C592 C593 1.400 . S
C592 C596 1.567 . S
C593 C592 1.400 . S
C593 C594 1.373 . S
C593 C615 1.432 . S
C594 C593 1.373 . S
C594 C595 1.339 . S
C594 C597 1.530 . S
C595 C590 1.304 . S
C595 C594 1.339 . S
C595 H656 0.930 . S
C596 C592 1.567 . S
C596 H657 0.961 . S
C596 H658 0.960 . S
C596 H659 0.958 . S
C597 C594 1.530 . S
C597 H660 0.961 . S
C597 H661 0.960 . S
C597 H662 0.960 . S
C598 C599 1.530 . S
C598 H664 0.961 . S
C598 H665 0.961 . S
C598 H666 0.959 . S
C599 C598 1.530 . S
C599 O627 1.412 . S
C599 H663 0.980 . S
C600 C601 1.288 . S
C600 C605 1.377 . S
C600 O627 1.393 . S
C601 C600 1.288 . S
C601 C602 1.369 . S
C601 H667 0.932 . S
C602 C601 1.369 . S
C602 C603 1.398 . S
C602 C606 1.527 . S
C603 C602 1.398 . S
C603 C604 1.380 . S
C603 C617 1.497 . S
C604 C603 1.380 . S
C604 C605 1.383 . S
C604 C607 1.603 . S
C605 C600 1.377 . S
C605 C604 1.383 . S
C605 H668 0.929 . S
C606 C602 1.527 . S
C606 H669 0.961 . S
C606 H670 0.959 . S
C606 H671 0.959 . S
C607 C604 1.603 . S
C607 H672 0.960 . S
C607 H673 0.962 . S
C607 H674 0.961 . S
C608 C575 1.587 . S
C608 C609 1.360 . S
C608 C621 1.412 . S
C609 C608 1.360 . S
C609 C610 1.365 . S
C609 H675 0.929 . S
C610 C585 1.553 . S
C610 C609 1.365 . S
C610 C611 1.404 . S
C611 C610 1.404 . S
C611 C612 1.395 . S
C611 C622 1.451 . S
C612 C611 1.395 . S
C612 C613 1.322 . S
C612 H676 0.930 . S
C613 C612 1.322 . S
C613 C614 1.459 . S
C613 H677 0.929 . S
C614 C613 1.459 . S
C614 C615 1.445 . S
C614 C623 1.395 . S
C615 C593 1.432 . S
C615 C614 1.445 . S
C615 C616 1.370 . S
C616 C615 1.370 . S
C616 C617 1.438 . S
C616 H678 0.930 . S
C617 C603 1.497 . S
C617 C616 1.438 . S
C617 C618 1.360 . S
C618 C617 1.360 . S
C618 C619 1.401 . S
C618 C623 1.446 . S
C619 C618 1.401 . S
C619 C620 1.347 . S
C619 H679 0.929 . S
C620 C619 1.347 . S
C620 C621 1.455 . S
C620 H680 0.930 . S
C621 C608 1.412 . S
C621 C620 1.455 . S
C621 C622 1.331 . S
C622 C611 1.451 . S
C622 C621 1.331 . S
C622 C623 1.497 . S
C623 C614 1.395 . S
C623 C618 1.446 . S
C623 C622 1.497 . S
C624 C625 1.582 . S
C624 H681 0.962 . S
C624 H682 0.959 . S
C624 H683 0.958 . S
C625 C624 1.582 . S
C625 O628 1.458 . S
C625 H654 0.980 . S
O626 C571 1.426 . S
O626 C572 1.334 . S
O627 C599 1.412 . S
O627 C600 1.393 . S
O628 C590 1.435 . S
O628 C625 1.458 . S
O629 C581 1.468 . S
O629 C582 1.408 . S
H630 C571 0.980 . S
H631 C570 0.959 . S
H632 C570 0.959 . S
H633 C570 0.960 . S
H634 C573 0.929 . S
H635 C577 0.929 . S
H636 C578 0.959 . S
H637 C578 0.961 . S
H638 C578 0.961 . S
H639 C579 0.960 . S
H640 C579 0.960 . S
H641 C579 0.961 . S
H642 C581 0.980 . S
H643 C580 0.961 . S
H644 C580 0.960 . S
H645 C580 0.959 . S
H646 C583 0.930 . S
H647 C587 0.931 . S
H648 C588 0.959 . S
H649 C588 0.961 . S
H650 C588 0.959 . S
H651 C589 0.960 . S
H652 C589 0.960 . S
H653 C589 0.960 . S
H654 C625 0.980 . S
H655 C591 0.930 . S
H656 C595 0.930 . S
H657 C596 0.961 . S
H658 C596 0.960 . S
H659 C596 0.958 . S
H660 C597 0.961 . S
H661 C597 0.960 . S
H662 C597 0.960 . S
H663 C599 0.980 . S
H664 C598 0.961 . S
H665 C598 0.961 . S
H666 C598 0.959 . S
H667 C601 0.932 . S
H668 C605 0.929 . S
H669 C606 0.961 . S
H670 C606 0.959 . S
H671 C606 0.959 . S
H672 C607 0.960 . S
H673 C607 0.962 . S
H674 C607 0.961 . S
H675 C609 0.929 . S
H676 C612 0.930 . S
H677 C613 0.929 . S
H678 C616 0.930 . S
H679 C619 0.929 . S
H680 C620 0.930 . S
H681 C624 0.962 . S
H682 C624 0.959 . S
H683 C624 0.958 . S
C684 O685 1.306 . S
C684 O687 1.160 . S
O685 C684 1.306 . S
O685 Cd686 2.228 . S
Cd686 O685 2.228 . S
Cd686 O690 2.273 . S
Cd686 O694 2.277 . S
O687 C684 1.160 . S
O687 Cd688 2.203 . S
Cd688 O687 2.203 . S
Cd688 O690 2.411 . S
Cd688 O691 2.333 . S
Cd688 O692 2.352 . S
Cd688 O696 2.277 . S
Cd688 O697 2.356 . S
C689 O694 1.209 . S
C689 O696 1.226 . S
O690 Cd686 2.273 . S
O690 Cd688 2.411 . S
O690 C693 1.320 . S
O691 Cd688 2.333 . S
O691 C693 1.214 . S
O692 Cd688 2.352 . S
O692 C695 1.258 . S
C693 O690 1.320 . S
C693 O691 1.214 . S
O694 Cd686 2.277 . S
O694 C689 1.209 . S
C695 O692 1.258 . S
C695 O697 1.282 . S
O696 Cd688 2.277 . S
O696 C689 1.226 . S
O697 Cd688 2.356 . S
O697 C695 1.282 . S
C698 O699 1.306 . S
C698 O701 1.160 . S
O699 C698 1.306 . S
O699 Cd700 2.228 . S
Cd700 O699 2.228 . S
Cd700 O704 2.273 . S
Cd700 O708 2.277 . S
O701 C698 1.160 . S
O701 Cd702 2.203 . S
Cd702 O701 2.203 . S
Cd702 O704 2.411 . S
Cd702 O705 2.333 . S
Cd702 O706 2.352 . S
Cd702 O710 2.277 . S
Cd702 O711 2.356 . S
C703 O708 1.209 . S
C703 O710 1.226 . S
O704 Cd700 2.273 . S
O704 Cd702 2.411 . S
O704 C707 1.320 . S
O705 Cd702 2.333 . S
O705 C707 1.214 . S
O706 Cd702 2.352 . S
O706 C709 1.258 . S
C707 O704 1.320 . S
C707 O705 1.214 . S
O708 Cd700 2.277 . S
O708 C703 1.209 . S
C709 O706 1.258 . S
C709 O711 1.282 . S
O710 Cd702 2.277 . S
O710 C703 1.226 . S
O711 Cd702 2.356 . S
O711 C709 1.282 . S
C712 O713 1.306 . S
C712 O715 1.160 . S
O713 C712 1.306 . S
O713 Cd714 2.228 . S
Cd714 O713 2.228 . S
Cd714 O718 2.273 . S
Cd714 O722 2.277 . S
O715 C712 1.160 . S
O715 Cd716 2.203 . S
Cd716 O715 2.203 . S
Cd716 O718 2.411 . S
Cd716 O719 2.333 . S
Cd716 O720 2.352 . S
Cd716 O724 2.277 . S
Cd716 O725 2.356 . S
C717 O722 1.209 . S
C717 O724 1.226 . S
O718 Cd714 2.273 . S
O718 Cd716 2.411 . S
O718 C721 1.320 . S
O719 Cd716 2.333 . S
O719 C721 1.214 . S
O720 Cd716 2.352 . S
O720 C723 1.258 . S
C721 O718 1.320 . S
C721 O719 1.214 . S
O722 Cd714 2.277 . S
O722 C717 1.209 . S
C723 O720 1.258 . S
C723 O725 1.282 . S
O724 Cd716 2.277 . S
O724 C717 1.226 . S
O725 Cd716 2.356 . S
O725 C723 1.282 . S
C726 O727 1.306 . S
C726 O729 1.160 . S
O727 C726 1.306 . S
O727 Cd728 2.228 . S
Cd728 O727 2.228 . S
Cd728 O732 2.273 . S
Cd728 O736 2.277 . S
O729 C726 1.160 . S
O729 Cd730 2.203 . S
Cd730 O729 2.203 . S
Cd730 O732 2.411 . S
Cd730 O733 2.333 . S
Cd730 O734 2.352 . S
Cd730 O738 2.277 . S
Cd730 O739 2.356 . S
C731 O736 1.209 . S
C731 O738 1.226 . S
O732 Cd728 2.273 . S
O732 Cd730 2.411 . S
O732 C735 1.320 . S
O733 Cd730 2.333 . S
O733 C735 1.214 . S
O734 Cd730 2.352 . S
O734 C737 1.258 . S
C735 O732 1.320 . S
C735 O733 1.214 . S
O736 Cd728 2.277 . S
O736 C731 1.209 . S
C737 O734 1.258 . S
C737 O739 1.282 . S
O738 Cd730 2.277 . S
O738 C731 1.226 . S
O739 Cd730 2.356 . S
O739 C737 1.282 . S
C740 O741 1.306 . S
C740 O743 1.160 . S
O741 C740 1.306 . S
O741 Cd742 2.228 . S
Cd742 O741 2.228 . S
Cd742 O746 2.273 . S
Cd742 O750 2.277 . S
O743 C740 1.160 . S
O743 Cd744 2.203 . S
Cd744 O743 2.203 . S
Cd744 O746 2.411 . S
Cd744 O747 2.333 . S
Cd744 O748 2.352 . S
Cd744 O752 2.277 . S
Cd744 O753 2.356 . S
C745 O750 1.209 . S
C745 O752 1.226 . S
O746 Cd742 2.273 . S
O746 Cd744 2.411 . S
O746 C749 1.320 . S
O747 Cd744 2.333 . S
O747 C749 1.214 . S
O748 Cd744 2.352 . S
O748 C751 1.258 . S
C749 O746 1.320 . S
C749 O747 1.214 . S
O750 Cd742 2.277 . S
O750 C745 1.209 . S
C751 O748 1.258 . S
C751 O753 1.282 . S
O752 Cd744 2.277 . S
O752 C745 1.226 . S
O753 Cd744 2.356 . S
O753 C751 1.282 . S
C754 O755 1.306 . S
C754 O757 1.160 . S
O755 C754 1.306 . S
O755 Cd756 2.228 . S
Cd756 O755 2.228 . S
Cd756 O760 2.273 . S
Cd756 O764 2.277 . S
O757 C754 1.160 . S
O757 Cd758 2.203 . S
Cd758 O757 2.203 . S
Cd758 O760 2.411 . S
Cd758 O761 2.333 . S
Cd758 O762 2.352 . S
Cd758 O766 2.277 . S
Cd758 O767 2.356 . S
C759 O764 1.209 . S
C759 O766 1.226 . S
O760 Cd756 2.273 . S
O760 Cd758 2.411 . S
O760 C763 1.320 . S
O761 Cd758 2.333 . S
O761 C763 1.214 . S
O762 Cd758 2.352 . S
O762 C765 1.258 . S
C763 O760 1.320 . S
C763 O761 1.214 . S
O764 Cd756 2.277 . S
O764 C759 1.209 . S
C765 O762 1.258 . S
C765 O767 1.282 . S
O766 Cd758 2.277 . S
O766 C759 1.226 . S
O767 Cd758 2.356 . S
O767 C765 1.282 . S
C768 C769 1.349 . S
C768 C770 1.327 . S
C768 H793 0.950 . S
C769 C768 1.349 . S
C769 C785 1.349 . S
C770 C768 1.327 . S
C770 C789 1.429 . S
C770 H794 0.950 . S
C771 C788 1.574 . S
C771 C790 1.368 . S
C771 H795 0.949 . S
H772 C776 0.949 . S
C773 C774 1.349 . S
C773 C775 1.327 . S
C773 H796 0.950 . S
C774 C773 1.349 . S
C774 C786 1.349 . S
C775 C773 1.327 . S
C775 C791 1.429 . S
C775 H797 0.950 . S
C776 H772 0.949 . S
C776 C784 1.574 . S
C776 C792 1.368 . S
H777 C785 0.950 . S
H778 C783 0.950 . S
H779 C784 0.949 . S
H780 C786 0.950 . S
H781 C787 0.950 . S
H782 C788 0.949 . S
C783 H778 0.950 . S
C783 C785 1.327 . S
C783 C789 1.429 . S
C784 C776 1.574 . S
C784 H779 0.949 . S
C784 C790 1.368 . S
C785 C769 1.349 . S
C785 H777 0.950 . S
C785 C783 1.327 . S
C786 C774 1.349 . S
C786 H780 0.950 . S
C786 C787 1.327 . S
C787 H781 0.950 . S
C787 C786 1.327 . S
C787 C791 1.429 . S
C788 C771 1.574 . S
C788 H782 0.949 . S
C788 C792 1.368 . S
C789 C770 1.429 . S
C789 C783 1.429 . S
C789 C790 1.523 . S
C790 C771 1.368 . S
C790 C784 1.368 . S
C790 C789 1.523 . S
C791 C775 1.429 . S
C791 C787 1.429 . S
C791 C792 1.523 . S
C792 C776 1.368 . S
C792 C788 1.368 . S
C792 C791 1.523 . S
H793 C768 0.950 . S
H794 C770 0.950 . S
H795 C771 0.949 . S
H796 C773 0.950 . S
H797 C775 0.950 . S
C798 C799 1.349 . S
C798 C800 1.327 . S
C798 H823 0.950 . S
C799 C798 1.349 . S
C799 C815 1.349 . S
C800 C798 1.327 . S
C800 C819 1.429 . S
C800 H824 0.950 . S
C801 C818 1.574 . S
C801 C820 1.368 . S
C801 H825 0.949 . S
H802 C806 0.949 . S
C803 C804 1.349 . S
C803 C805 1.327 . S
C803 H826 0.950 . S
C804 C803 1.349 . S
C804 C816 1.349 . S
C805 C803 1.327 . S
C805 C821 1.429 . S
C805 H827 0.950 . S
C806 H802 0.949 . S
C806 C814 1.574 . S
C806 C822 1.368 . S
H807 C815 0.950 . S
H808 C813 0.950 . S
H809 C814 0.949 . S
H810 C816 0.950 . S
H811 C817 0.950 . S
H812 C818 0.949 . S
C813 H808 0.950 . S
C813 C815 1.327 . S
C813 C819 1.429 . S
C814 C806 1.574 . S
C814 H809 0.949 . S
C814 C820 1.368 . S
C815 C799 1.349 . S
C815 H807 0.950 . S
C815 C813 1.327 . S
C816 C804 1.349 . S
C816 H810 0.950 . S
C816 C817 1.327 . S
C817 H811 0.950 . S
C817 C816 1.327 . S
C817 C821 1.429 . S
C818 C801 1.574 . S
C818 H812 0.949 . S
C818 C822 1.368 . S
C819 C800 1.429 . S
C819 C813 1.429 . S
C819 C820 1.523 . S
C820 C801 1.368 . S
C820 C814 1.368 . S
C820 C819 1.523 . S
C821 C805 1.429 . S
C821 C817 1.429 . S
C821 C822 1.523 . S
C822 C806 1.368 . S
C822 C818 1.368 . S
C822 C821 1.523 . S
H823 C798 0.950 . S
H824 C800 0.950 . S
H825 C801 0.949 . S
H826 C803 0.950 . S
H827 C805 0.950 . S
C828 C829 1.349 . S
C828 C830 1.327 . S
C828 H853 0.950 . S
C829 C828 1.349 . S
C829 C845 1.349 . S
C830 C828 1.327 . S
C830 C849 1.429 . S
C830 H854 0.950 . S
C831 C848 1.574 . S
C831 C850 1.368 . S
C831 H855 0.949 . S
H832 C836 0.949 . S
C833 C834 1.349 . S
C833 C835 1.327 . S
C833 H856 0.950 . S
C834 C833 1.349 . S
C834 C846 1.349 . S
C835 C833 1.327 . S
C835 C851 1.429 . S
C835 H857 0.950 . S
C836 H832 0.949 . S
C836 C844 1.574 . S
C836 C852 1.368 . S
H837 C845 0.950 . S
H838 C843 0.950 . S
H839 C844 0.949 . S
H840 C846 0.950 . S
H841 C847 0.950 . S
H842 C848 0.949 . S
C843 H838 0.950 . S
C843 C845 1.327 . S
C843 C849 1.429 . S
C844 C836 1.574 . S
C844 H839 0.949 . S
C844 C850 1.368 . S
C845 C829 1.349 . S
C845 H837 0.950 . S
C845 C843 1.327 . S
C846 C834 1.349 . S
C846 H840 0.950 . S
C846 C847 1.327 . S
C847 H841 0.950 . S
C847 C846 1.327 . S
C847 C851 1.429 . S
C848 C831 1.574 . S
C848 H842 0.949 . S
C848 C852 1.368 . S
C849 C830 1.429 . S
C849 C843 1.429 . S
C849 C850 1.523 . S
C850 C831 1.368 . S
C850 C844 1.368 . S
C850 C849 1.523 . S
C851 C835 1.429 . S
C851 C847 1.429 . S
C851 C852 1.523 . S
C852 C836 1.368 . S
C852 C848 1.368 . S
C852 C851 1.523 . S
H853 C828 0.950 . S
H854 C830 0.950 . S
H855 C831 0.949 . S
H856 C833 0.950 . S
H857 C835 0.950 . S
C858 C859 1.349 . S
C858 C860 1.327 . S
C858 H883 0.950 . S
C859 C858 1.349 . S
C859 C875 1.349 . S
C860 C858 1.327 . S
C860 C879 1.429 . S
C860 H884 0.950 . S
C861 C878 1.574 . S
C861 C880 1.368 . S
C861 H885 0.949 . S
H862 C866 0.949 . S
C863 C864 1.349 . S
C863 C865 1.327 . S
C863 H886 0.950 . S
C864 C863 1.349 . S
C864 C876 1.349 . S
C865 C863 1.327 . S
C865 C881 1.429 . S
C865 H887 0.950 . S
C866 H862 0.949 . S
C866 C874 1.574 . S
C866 C882 1.368 . S
H867 C875 0.950 . S
H868 C873 0.950 . S
H869 C874 0.949 . S
H870 C876 0.950 . S
H871 C877 0.950 . S
H872 C878 0.949 . S
C873 H868 0.950 . S
C873 C875 1.327 . S
C873 C879 1.429 . S
C874 C866 1.574 . S
C874 H869 0.949 . S
C874 C880 1.368 . S
C875 C859 1.349 . S
C875 H867 0.950 . S
C875 C873 1.327 . S
C876 C864 1.349 . S
C876 H870 0.950 . S
C876 C877 1.327 . S
C877 H871 0.950 . S
C877 C876 1.327 . S
C877 C881 1.429 . S
C878 C861 1.574 . S
C878 H872 0.949 . S
C878 C882 1.368 . S
C879 C860 1.429 . S
C879 C873 1.429 . S
C879 C880 1.523 . S
C880 C861 1.368 . S
C880 C874 1.368 . S
C880 C879 1.523 . S
C881 C865 1.429 . S
C881 C877 1.429 . S
C881 C882 1.523 . S
C882 C866 1.368 . S
C882 C878 1.368 . S
C882 C881 1.523 . S
H883 C858 0.950 . S
H884 C860 0.950 . S
H885 C861 0.949 . S
H886 C863 0.950 . S
H887 C865 0.950 . S
C888 C889 1.349 . S
C888 C890 1.327 . S
C888 H913 0.950 . S
C889 C888 1.349 . S
C889 C905 1.349 . S
C890 C888 1.327 . S
C890 C909 1.429 . S
C890 H914 0.950 . S
C891 C908 1.574 . S
C891 C910 1.368 . S
C891 H915 0.949 . S
H892 C896 0.949 . S
C893 C894 1.349 . S
C893 C895 1.327 . S
C893 H916 0.950 . S
C894 C893 1.349 . S
C894 C906 1.349 . S
C895 C893 1.327 . S
C895 C911 1.429 . S
C895 H917 0.950 . S
C896 H892 0.949 . S
C896 C904 1.574 . S
C896 C912 1.368 . S
H897 C905 0.950 . S
H898 C903 0.950 . S
H899 C904 0.949 . S
H900 C906 0.950 . S
H901 C907 0.950 . S
H902 C908 0.949 . S
C903 H898 0.950 . S
C903 C905 1.327 . S
C903 C909 1.429 . S
C904 C896 1.574 . S
C904 H899 0.949 . S
C904 C910 1.368 . S
C905 C889 1.349 . S
C905 H897 0.950 . S
C905 C903 1.327 . S
C906 C894 1.349 . S
C906 H900 0.950 . S
C906 C907 1.327 . S
C907 H901 0.950 . S
C907 C906 1.327 . S
C907 C911 1.429 . S
C908 C891 1.574 . S
C908 H902 0.949 . S
C908 C912 1.368 . S
C909 C890 1.429 . S
C909 C903 1.429 . S
C909 C910 1.523 . S
C910 C891 1.368 . S
C910 C904 1.368 . S
C910 C909 1.523 . S
C911 C895 1.429 . S
C911 C907 1.429 . S
C911 C912 1.523 . S
C912 C896 1.368 . S
C912 C908 1.368 . S
C912 C911 1.523 . S
H913 C888 0.950 . S
H914 C890 0.950 . S
H915 C891 0.949 . S
H916 C893 0.950 . S
H917 C895 0.950 . S
C918 C919 1.349 . S
C918 C920 1.327 . S
C918 H943 0.950 . S
C919 C918 1.349 . S
C919 C935 1.349 . S
C920 C918 1.327 . S
C920 C939 1.429 . S
C920 H944 0.950 . S
C921 C938 1.574 . S
C921 C940 1.368 . S
C921 H945 0.949 . S
H922 C926 0.949 . S
C923 C924 1.349 . S
C923 C925 1.327 . S
C923 H946 0.950 . S
C924 C923 1.349 . S
C924 C936 1.349 . S
C925 C923 1.327 . S
C925 C941 1.429 . S
C925 H947 0.950 . S
C926 H922 0.949 . S
C926 C934 1.574 . S
C926 C942 1.368 . S
H927 C935 0.950 . S
H928 C933 0.950 . S
H929 C934 0.949 . S
H930 C936 0.950 . S
H931 C937 0.950 . S
H932 C938 0.949 . S
C933 H928 0.950 . S
C933 C935 1.327 . S
C933 C939 1.429 . S
C934 C926 1.574 . S
C934 H929 0.949 . S
C934 C940 1.368 . S
C935 C919 1.349 . S
C935 H927 0.950 . S
C935 C933 1.327 . S
C936 C924 1.349 . S
C936 H930 0.950 . S
C936 C937 1.327 . S
C937 H931 0.950 . S
C937 C936 1.327 . S
C937 C941 1.429 . S
C938 C921 1.574 . S
C938 H932 0.949 . S
C938 C942 1.368 . S
C939 C920 1.429 . S
C939 C933 1.429 . S
C939 C940 1.523 . S
C940 C921 1.368 . S
C940 C934 1.368 . S
C940 C939 1.523 . S
C941 C925 1.429 . S
C941 C937 1.429 . S
C941 C942 1.523 . S
C942 C926 1.368 . S
C942 C938 1.368 . S
C942 C941 1.523 . S
H943 C918 0.950 . S
H944 C920 0.950 . S
H945 C921 0.949 . S
H946 C923 0.950 . S
H947 C925 0.950 . S
C948 C949 1.349 . S
C948 C950 1.327 . S
C948 H973 0.950 . S
C949 C948 1.349 . S
C949 C965 1.349 . S
C950 C948 1.327 . S
C950 C969 1.429 . S
C950 H974 0.950 . S
C951 C968 1.574 . S
C951 C970 1.368 . S
C951 H975 0.949 . S
H952 C956 0.949 . S
C953 C954 1.349 . S
C953 C955 1.327 . S
C953 H976 0.950 . S
C954 C953 1.349 . S
C954 C966 1.349 . S
C955 C953 1.327 . S
C955 C971 1.429 . S
C955 H977 0.950 . S
C956 H952 0.949 . S
C956 C964 1.574 . S
C956 C972 1.368 . S
H957 C965 0.950 . S
H958 C963 0.950 . S
H959 C964 0.949 . S
H960 C966 0.950 . S
H961 C967 0.950 . S
H962 C968 0.949 . S
C963 H958 0.950 . S
C963 C965 1.327 . S
C963 C969 1.429 . S
C964 C956 1.574 . S
C964 H959 0.949 . S
C964 C970 1.368 . S
C965 C949 1.349 . S
C965 H957 0.950 . S
C965 C963 1.327 . S
C966 C954 1.349 . S
C966 H960 0.950 . S
C966 C967 1.327 . S
C967 H961 0.950 . S
C967 C966 1.327 . S
C967 C971 1.429 . S
C968 C951 1.574 . S
C968 H962 0.949 . S
C968 C972 1.368 . S
C969 C950 1.429 . S
C969 C963 1.429 . S
C969 C970 1.523 . S
C970 C951 1.368 . S
C970 C964 1.368 . S
C970 C969 1.523 . S
C971 C955 1.429 . S
C971 C967 1.429 . S
C971 C972 1.523 . S
C972 C956 1.368 . S
C972 C968 1.368 . S
C972 C971 1.523 . S
H973 C948 0.950 . S
H974 C950 0.950 . S
H975 C951 0.949 . S
H976 C953 0.950 . S
H977 C955 0.950 . S
C978 C979 1.349 . S
C978 C980 1.327 . S
C978 H1003 0.950 . S
C979 C978 1.349 . S
C979 C995 1.349 . S
C980 C978 1.327 . S
C980 C999 1.429 . S
C980 H1004 0.950 . S
C981 C998 1.574 . S
C981 C1000 1.368 . S
C981 H1005 0.949 . S
H982 C986 0.949 . S
C983 C984 1.349 . S
C983 C985 1.327 . S
C983 H1006 0.950 . S
C984 C983 1.349 . S
C984 C996 1.349 . S
C985 C983 1.327 . S
C985 C1001 1.429 . S
C985 H1007 0.950 . S
C986 H982 0.949 . S
C986 C994 1.574 . S
C986 C1002 1.368 . S
H987 C995 0.950 . S
H988 C993 0.950 . S
H989 C994 0.949 . S
H990 C996 0.950 . S
H991 C997 0.950 . S
H992 C998 0.949 . S
C993 H988 0.950 . S
C993 C995 1.327 . S
C993 C999 1.429 . S
C994 C986 1.574 . S
C994 H989 0.949 . S
C994 C1000 1.368 . S
C995 C979 1.349 . S
C995 H987 0.950 . S
C995 C993 1.327 . S
C996 C984 1.349 . S
C996 H990 0.950 . S
C996 C997 1.327 . S
C997 H991 0.950 . S
C997 C996 1.327 . S
C997 C1001 1.429 . S
C998 C981 1.574 . S
C998 H992 0.949 . S
C998 C1002 1.368 . S
C999 C980 1.429 . S
C999 C993 1.429 . S
C999 C1000 1.523 . S
C1000 C981 1.368 . S
C1000 C994 1.368 . S
C1000 C999 1.523 . S
C1001 C985 1.429 . S
C1001 C997 1.429 . S
C1001 C1002 1.523 . S
C1002 C986 1.368 . S
C1002 C998 1.368 . S
C1002 C1001 1.523 . S
H1003 C978 0.950 . S
H1004 C980 0.950 . S
H1005 C981 0.949 . S
H1006 C983 0.950 . S
H1007 C985 0.950 . S
C1008 C1009 1.349 . S
C1008 C1010 1.327 . S
C1008 H1033 0.950 . S
C1009 C1008 1.349 . S
C1009 C1025 1.349 . S
C1010 C1008 1.327 . S
C1010 C1029 1.429 . S
C1010 H1034 0.950 . S
C1011 C1028 1.574 . S
C1011 C1030 1.368 . S
C1011 H1035 0.949 . S
H1012 C1016 0.949 . S
C1013 C1014 1.349 . S
C1013 C1015 1.327 . S
C1013 H1036 0.950 . S
C1014 C1013 1.349 . S
C1014 C1026 1.349 . S
C1015 C1013 1.327 . S
C1015 C1031 1.429 . S
C1015 H1037 0.950 . S
C1016 H1012 0.949 . S
C1016 C1024 1.574 . S
C1016 C1032 1.368 . S
H1017 C1025 0.950 . S
H1018 C1023 0.950 . S
H1019 C1024 0.949 . S
H1020 C1026 0.950 . S
H1021 C1027 0.950 . S
H1022 C1028 0.949 . S
C1023 H1018 0.950 . S
C1023 C1025 1.327 . S
C1023 C1029 1.429 . S
C1024 C1016 1.574 . S
C1024 H1019 0.949 . S
C1024 C1030 1.368 . S
C1025 C1009 1.349 . S
C1025 H1017 0.950 . S
C1025 C1023 1.327 . S
C1026 C1014 1.349 . S
C1026 H1020 0.950 . S
C1026 C1027 1.327 . S
C1027 H1021 0.950 . S
C1027 C1026 1.327 . S
C1027 C1031 1.429 . S
C1028 C1011 1.574 . S
C1028 H1022 0.949 . S
C1028 C1032 1.368 . S
C1029 C1010 1.429 . S
C1029 C1023 1.429 . S
C1029 C1030 1.523 . S
C1030 C1011 1.368 . S
C1030 C1024 1.368 . S
C1030 C1029 1.523 . S
C1031 C1015 1.429 . S
C1031 C1027 1.429 . S
C1031 C1032 1.523 . S
C1032 C1016 1.368 . S
C1032 C1028 1.368 . S
C1032 C1031 1.523 . S
H1033 C1008 0.950 . S
H1034 C1010 0.950 . S
H1035 C1011 0.949 . S
H1036 C1013 0.950 . S
H1037 C1015 0.950 . S
C1038 C1039 1.349 . S
C1038 C1040 1.327 . S
C1038 H1063 0.950 . S
C1039 C1038 1.349 . S
C1039 C1055 1.349 . S
C1040 C1038 1.327 . S
C1040 C1059 1.429 . S
C1040 H1064 0.950 . S
C1041 C1058 1.574 . S
C1041 C1060 1.368 . S
C1041 H1065 0.949 . S
H1042 C1046 0.949 . S
C1043 C1044 1.349 . S
C1043 C1045 1.327 . S
C1043 H1066 0.950 . S
C1044 C1043 1.349 . S
C1044 C1056 1.349 . S
C1045 C1043 1.327 . S
C1045 C1061 1.429 . S
C1045 H1067 0.950 . S
C1046 H1042 0.949 . S
C1046 C1054 1.574 . S
C1046 C1062 1.368 . S
H1047 C1055 0.950 . S
H1048 C1053 0.950 . S
H1049 C1054 0.949 . S
H1050 C1056 0.950 . S
H1051 C1057 0.950 . S
H1052 C1058 0.949 . S
C1053 H1048 0.950 . S
C1053 C1055 1.327 . S
C1053 C1059 1.429 . S
C1054 C1046 1.574 . S
C1054 H1049 0.949 . S
C1054 C1060 1.368 . S
C1055 C1039 1.349 . S
C1055 H1047 0.950 . S
C1055 C1053 1.327 . S
C1056 C1044 1.349 . S
C1056 H1050 0.950 . S
C1056 C1057 1.327 . S
C1057 H1051 0.950 . S
C1057 C1056 1.327 . S
C1057 C1061 1.429 . S
C1058 C1041 1.574 . S
C1058 H1052 0.949 . S
C1058 C1062 1.368 . S
C1059 C1040 1.429 . S
C1059 C1053 1.429 . S
C1059 C1060 1.523 . S
C1060 C1041 1.368 . S
C1060 C1054 1.368 . S
C1060 C1059 1.523 . S
C1061 C1045 1.429 . S
C1061 C1057 1.429 . S
C1061 C1062 1.523 . S
C1062 C1046 1.368 . S
C1062 C1058 1.368 . S
C1062 C1061 1.523 . S
H1063 C1038 0.950 . S
H1064 C1040 0.950 . S
H1065 C1041 0.949 . S
H1066 C1043 0.950 . S
H1067 C1045 0.950 . S
C1068 C1069 1.349 . S
C1068 C1070 1.327 . S
C1068 H1093 0.950 . S
C1069 C1068 1.349 . S
C1069 C1085 1.349 . S
C1070 C1068 1.327 . S
C1070 C1089 1.429 . S
C1070 H1094 0.950 . S
C1071 C1088 1.574 . S
C1071 C1090 1.368 . S
C1071 H1095 0.949 . S
H1072 C1076 0.949 . S
C1073 C1074 1.349 . S
C1073 C1075 1.327 . S
C1073 H1096 0.950 . S
C1074 C1073 1.349 . S
C1074 C1086 1.349 . S
C1075 C1073 1.327 . S
C1075 C1091 1.429 . S
C1075 H1097 0.950 . S
C1076 H1072 0.949 . S
C1076 C1084 1.574 . S
C1076 C1092 1.368 . S
H1077 C1085 0.950 . S
H1078 C1083 0.950 . S
H1079 C1084 0.949 . S
H1080 C1086 0.950 . S
H1081 C1087 0.950 . S
H1082 C1088 0.949 . S
C1083 H1078 0.950 . S
C1083 C1085 1.327 . S
C1083 C1089 1.429 . S
C1084 C1076 1.574 . S
C1084 H1079 0.949 . S
C1084 C1090 1.368 . S
C1085 C1069 1.349 . S
C1085 H1077 0.950 . S
C1085 C1083 1.327 . S
C1086 C1074 1.349 . S
C1086 H1080 0.950 . S
C1086 C1087 1.327 . S
C1087 H1081 0.950 . S
C1087 C1086 1.327 . S
C1087 C1091 1.429 . S
C1088 C1071 1.574 . S
C1088 H1082 0.949 . S
C1088 C1092 1.368 . S
C1089 C1070 1.429 . S
C1089 C1083 1.429 . S
C1089 C1090 1.523 . S
C1090 C1071 1.368 . S
C1090 C1084 1.368 . S
C1090 C1089 1.523 . S
C1091 C1075 1.429 . S
C1091 C1087 1.429 . S
C1091 C1092 1.523 . S
C1092 C1076 1.368 . S
C1092 C1088 1.368 . S
C1092 C1091 1.523 . S
H1093 C1068 0.950 . S
H1094 C1070 0.950 . S
H1095 C1071 0.949 . S
H1096 C1073 0.950 . S
H1097 C1075 0.950 . S
C1098 C1099 1.349 . S
C1098 C1100 1.327 . S
C1098 H1123 0.950 . S
C1099 C1098 1.349 . S
C1099 C1115 1.349 . S
C1100 C1098 1.327 . S
C1100 C1119 1.429 . S
C1100 H1124 0.950 . S
C1101 C1118 1.574 . S
C1101 C1120 1.368 . S
C1101 H1125 0.949 . S
H1102 C1106 0.949 . S
C1103 C1104 1.349 . S
C1103 C1105 1.327 . S
C1103 H1126 0.950 . S
C1104 C1103 1.349 . S
C1104 C1116 1.349 . S
C1105 C1103 1.327 . S
C1105 C1121 1.429 . S
C1105 H1127 0.950 . S
C1106 H1102 0.949 . S
C1106 C1114 1.574 . S
C1106 C1122 1.368 . S
H1107 C1115 0.950 . S
H1108 C1113 0.950 . S
H1109 C1114 0.949 . S
H1110 C1116 0.950 . S
H1111 C1117 0.950 . S
H1112 C1118 0.949 . S
C1113 H1108 0.950 . S
C1113 C1115 1.327 . S
C1113 C1119 1.429 . S
C1114 C1106 1.574 . S
C1114 H1109 0.949 . S
C1114 C1120 1.368 . S
C1115 C1099 1.349 . S
C1115 H1107 0.950 . S
C1115 C1113 1.327 . S
C1116 C1104 1.349 . S
C1116 H1110 0.950 . S
C1116 C1117 1.327 . S
C1117 H1111 0.950 . S
C1117 C1116 1.327 . S
C1117 C1121 1.429 . S
C1118 C1101 1.574 . S
C1118 H1112 0.949 . S
C1118 C1122 1.368 . S
C1119 C1100 1.429 . S
C1119 C1113 1.429 . S
C1119 C1120 1.523 . S
C1120 C1101 1.368 . S
C1120 C1114 1.368 . S
C1120 C1119 1.523 . S
C1121 C1105 1.429 . S
C1121 C1117 1.429 . S
C1121 C1122 1.523 . S
C1122 C1106 1.368 . S
C1122 C1118 1.368 . S
C1122 C1121 1.523 . S
H1123 C1098 0.950 . S
H1124 C1100 0.950 . S
H1125 C1101 0.949 . S
H1126 C1103 0.950 . S
H1127 C1105 0.950 . S
C1128 C1129 1.349 . S
C1128 C1130 1.327 . S
C1128 H1153 0.950 . S
C1129 C1128 1.349 . S
C1129 C1145 1.349 . S
C1130 C1128 1.327 . S
C1130 C1149 1.429 . S
C1130 H1154 0.950 . S
C1131 C1148 1.574 . S
C1131 C1150 1.368 . S
C1131 H1155 0.949 . S
H1132 C1136 0.949 . S
C1133 C1134 1.349 . S
C1133 C1135 1.327 . S
C1133 H1156 0.950 . S
C1134 C1133 1.349 . S
C1134 C1146 1.349 . S
C1135 C1133 1.327 . S
C1135 C1151 1.429 . S
C1135 H1157 0.950 . S
C1136 H1132 0.949 . S
C1136 C1144 1.574 . S
C1136 C1152 1.368 . S
H1137 C1145 0.950 . S
H1138 C1143 0.950 . S
H1139 C1144 0.949 . S
H1140 C1146 0.950 . S
H1141 C1147 0.950 . S
H1142 C1148 0.949 . S
C1143 H1138 0.950 . S
C1143 C1145 1.327 . S
C1143 C1149 1.429 . S
C1144 C1136 1.574 . S
C1144 H1139 0.949 . S
C1144 C1150 1.368 . S
C1145 C1129 1.349 . S
C1145 H1137 0.950 . S
C1145 C1143 1.327 . S
C1146 C1134 1.349 . S
C1146 H1140 0.950 . S
C1146 C1147 1.327 . S
C1147 H1141 0.950 . S
C1147 C1146 1.327 . S
C1147 C1151 1.429 . S
C1148 C1131 1.574 . S
C1148 H1142 0.949 . S
C1148 C1152 1.368 . S
C1149 C1130 1.429 . S
C1149 C1143 1.429 . S
C1149 C1150 1.523 . S
C1150 C1131 1.368 . S
C1150 C1144 1.368 . S
C1150 C1149 1.523 . S
C1151 C1135 1.429 . S
C1151 C1147 1.429 . S
C1151 C1152 1.523 . S
C1152 C1136 1.368 . S
C1152 C1148 1.368 . S
C1152 C1151 1.523 . S
H1153 C1128 0.950 . S
H1154 C1130 0.950 . S
H1155 C1131 0.949 . S
H1156 C1133 0.950 . S
H1157 C1135 0.950 . S
C1158 C1159 1.349 . S
C1158 C1160 1.327 . S
C1158 H1183 0.950 . S
C1159 C1158 1.349 . S
C1159 C1175 1.349 . S
C1160 C1158 1.327 . S
C1160 C1179 1.429 . S
C1160 H1184 0.950 . S
C1161 C1178 1.574 . S
C1161 C1180 1.368 . S
C1161 H1185 0.949 . S
H1162 C1166 0.949 . S
C1163 C1164 1.349 . S
C1163 C1165 1.327 . S
C1163 H1186 0.950 . S
C1164 C1163 1.349 . S
C1164 C1176 1.349 . S
C1165 C1163 1.327 . S
C1165 C1181 1.429 . S
C1165 H1187 0.950 . S
C1166 H1162 0.949 . S
C1166 C1174 1.574 . S
C1166 C1182 1.368 . S
H1167 C1175 0.950 . S
H1168 C1173 0.950 . S
H1169 C1174 0.949 . S
H1170 C1176 0.950 . S
H1171 C1177 0.950 . S
H1172 C1178 0.949 . S
C1173 H1168 0.950 . S
C1173 C1175 1.327 . S
C1173 C1179 1.429 . S
C1174 C1166 1.574 . S
C1174 H1169 0.949 . S
C1174 C1180 1.368 . S
C1175 C1159 1.349 . S
C1175 H1167 0.950 . S
C1175 C1173 1.327 . S
C1176 C1164 1.349 . S
C1176 H1170 0.950 . S
C1176 C1177 1.327 . S
C1177 H1171 0.950 . S
C1177 C1176 1.327 . S
C1177 C1181 1.429 . S
C1178 C1161 1.574 . S
C1178 H1172 0.949 . S
C1178 C1182 1.368 . S
C1179 C1160 1.429 . S
C1179 C1173 1.429 . S
C1179 C1180 1.523 . S
C1180 C1161 1.368 . S
C1180 C1174 1.368 . S
C1180 C1179 1.523 . S
C1181 C1165 1.429 . S
C1181 C1177 1.429 . S
C1181 C1182 1.523 . S
C1182 C1166 1.368 . S
C1182 C1178 1.368 . S
C1182 C1181 1.523 . S
H1183 C1158 0.950 . S
H1184 C1160 0.950 . S
H1185 C1161 0.949 . S
H1186 C1163 0.950 . S
H1187 C1165 0.950 . S
C1188 C1189 1.349 . S
C1188 C1190 1.327 . S
C1188 H1213 0.950 . S
C1189 C1188 1.349 . S
C1189 C1205 1.349 . S
C1190 C1188 1.327 . S
C1190 C1209 1.429 . S
C1190 H1214 0.950 . S
C1191 C1208 1.574 . S
C1191 C1210 1.368 . S
C1191 H1215 0.949 . S
H1192 C1196 0.949 . S
C1193 C1194 1.349 . S
C1193 C1195 1.327 . S
C1193 H1216 0.950 . S
C1194 C1193 1.349 . S
C1194 C1206 1.349 . S
C1195 C1193 1.327 . S
C1195 C1211 1.429 . S
C1195 H1217 0.950 . S
C1196 H1192 0.949 . S
C1196 C1204 1.574 . S
C1196 C1212 1.368 . S
H1197 C1205 0.950 . S
H1198 C1203 0.950 . S
H1199 C1204 0.949 . S
H1200 C1206 0.950 . S
H1201 C1207 0.950 . S
H1202 C1208 0.949 . S
C1203 H1198 0.950 . S
C1203 C1205 1.327 . S
C1203 C1209 1.429 . S
C1204 C1196 1.574 . S
C1204 H1199 0.949 . S
C1204 C1210 1.368 . S
C1205 C1189 1.349 . S
C1205 H1197 0.950 . S
C1205 C1203 1.327 . S
C1206 C1194 1.349 . S
C1206 H1200 0.950 . S
C1206 C1207 1.327 . S
C1207 H1201 0.950 . S
C1207 C1206 1.327 . S
C1207 C1211 1.429 . S
C1208 C1191 1.574 . S
C1208 H1202 0.949 . S
C1208 C1212 1.368 . S
C1209 C1190 1.429 . S
C1209 C1203 1.429 . S
C1209 C1210 1.523 . S
C1210 C1191 1.368 . S
C1210 C1204 1.368 . S
C1210 C1209 1.523 . S
C1211 C1195 1.429 . S
C1211 C1207 1.429 . S
C1211 C1212 1.523 . S
C1212 C1196 1.368 . S
C1212 C1208 1.368 . S
C1212 C1211 1.523 . S
H1213 C1188 0.950 . S
H1214 C1190 0.950 . S
H1215 C1191 0.949 . S
H1216 C1193 0.950 . S
H1217 C1195 0.950 . S
C1218 C1219 1.349 . S
C1218 C1220 1.327 . S
C1218 H1243 0.950 . S
C1219 C1218 1.349 . S
C1219 C1235 1.349 . S
C1220 C1218 1.327 . S
C1220 C1239 1.429 . S
C1220 H1244 0.950 . S
C1221 C1238 1.574 . S
C1221 C1240 1.368 . S
C1221 H1245 0.949 . S
H1222 C1226 0.949 . S
C1223 C1224 1.349 . S
C1223 C1225 1.327 . S
C1223 H1246 0.950 . S
C1224 C1223 1.349 . S
C1224 C1236 1.349 . S
C1225 C1223 1.327 . S
C1225 C1241 1.429 . S
C1225 H1247 0.950 . S
C1226 H1222 0.949 . S
C1226 C1234 1.574 . S
C1226 C1242 1.368 . S
H1227 C1235 0.950 . S
H1228 C1233 0.950 . S
H1229 C1234 0.949 . S
H1230 C1236 0.950 . S
H1231 C1237 0.950 . S
H1232 C1238 0.949 . S
C1233 H1228 0.950 . S
C1233 C1235 1.327 . S
C1233 C1239 1.429 . S
C1234 C1226 1.574 . S
C1234 H1229 0.949 . S
C1234 C1240 1.368 . S
C1235 C1219 1.349 . S
C1235 H1227 0.950 . S
C1235 C1233 1.327 . S
C1236 C1224 1.349 . S
C1236 H1230 0.950 . S
C1236 C1237 1.327 . S
C1237 H1231 0.950 . S
C1237 C1236 1.327 . S
C1237 C1241 1.429 . S
C1238 C1221 1.574 . S
C1238 H1232 0.949 . S
C1238 C1242 1.368 . S
C1239 C1220 1.429 . S
C1239 C1233 1.429 . S
C1239 C1240 1.523 . S
C1240 C1221 1.368 . S
C1240 C1234 1.368 . S
C1240 C1239 1.523 . S
C1241 C1225 1.429 . S
C1241 C1237 1.429 . S
C1241 C1242 1.523 1_554 S
C1242 C1226 1.368 . S
C1242 C1238 1.368 . S
C1242 C1241 1.523 1_556 S
H1243 C1218 0.950 . S
H1244 C1220 0.950 . S
H1245 C1221 0.949 . S
H1246 C1223 0.950 . S
H1247 C1225 0.950 . S
C1248 C1249 1.349 . S
C1248 C1250 1.327 . S
C1248 H1273 0.950 . S
C1249 C1248 1.349 . S
C1249 C1265 1.349 . S
C1250 C1248 1.327 . S
C1250 C1269 1.429 . S
C1250 H1274 0.950 . S
C1251 C1268 1.574 . S
C1251 C1270 1.368 . S
C1251 H1275 0.949 . S
H1252 C1256 0.949 . S
C1253 C1254 1.349 . S
C1253 C1255 1.327 . S
C1253 H1276 0.950 . S
C1254 C1253 1.349 . S
C1254 C1266 1.349 . S
C1255 C1253 1.327 . S
C1255 C1271 1.429 . S
C1255 H1277 0.950 . S
C1256 H1252 0.949 . S
C1256 C1264 1.574 . S
C1256 C1272 1.368 . S
H1257 C1265 0.950 . S
H1258 C1263 0.950 . S
H1259 C1264 0.949 . S
H1260 C1266 0.950 . S
H1261 C1267 0.950 . S
H1262 C1268 0.949 . S
C1263 H1258 0.950 . S
C1263 C1265 1.327 . S
C1263 C1269 1.429 . S
C1264 C1256 1.574 . S
C1264 H1259 0.949 . S
C1264 C1270 1.368 . S
C1265 C1249 1.349 . S
C1265 H1257 0.950 . S
C1265 C1263 1.327 . S
C1266 C1254 1.349 . S
C1266 H1260 0.950 . S
C1266 C1267 1.327 . S
C1267 H1261 0.950 . S
C1267 C1266 1.327 . S
C1267 C1271 1.429 . S
C1268 C1251 1.574 . S
C1268 H1262 0.949 . S
C1268 C1272 1.368 . S
C1269 C1250 1.429 . S
C1269 C1263 1.429 . S
C1269 C1270 1.523 . S
C1270 C1251 1.368 . S
C1270 C1264 1.368 . S
C1270 C1269 1.523 . S
C1271 C1255 1.429 . S
C1271 C1267 1.429 . S
C1271 C1272 1.523 . S
C1272 C1256 1.368 . S
C1272 C1268 1.368 . S
C1272 C1271 1.523 . S
H1273 C1248 0.950 . S
H1274 C1250 0.950 . S
H1275 C1251 0.949 . S
H1276 C1253 0.950 . S
H1277 C1255 0.950 . S
C1278 C1279 1.349 . S
C1278 C1280 1.327 . S
C1278 H1303 0.950 . S
C1279 C1278 1.349 . S
C1279 C1295 1.349 . S
C1280 C1278 1.327 . S
C1280 C1299 1.429 . S
C1280 H1304 0.950 . S
C1281 C1298 1.574 . S
C1281 C1300 1.368 . S
C1281 H1305 0.949 . S
H1282 C1286 0.949 . S
C1283 C1284 1.349 . S
C1283 C1285 1.327 . S
C1283 H1306 0.950 . S
C1284 C1283 1.349 . S
C1284 C1296 1.349 . S
C1285 C1283 1.327 . S
C1285 C1301 1.429 . S
C1285 H1307 0.950 . S
C1286 H1282 0.949 . S
C1286 C1294 1.574 . S
C1286 C1302 1.368 . S
H1287 C1295 0.950 . S
H1288 C1293 0.950 . S
H1289 C1294 0.949 . S
H1290 C1296 0.950 . S
H1291 C1297 0.950 . S
H1292 C1298 0.949 . S
C1293 H1288 0.950 . S
C1293 C1295 1.327 . S
C1293 C1299 1.429 . S
C1294 C1286 1.574 . S
C1294 H1289 0.949 . S
C1294 C1300 1.368 . S
C1295 C1279 1.349 . S
C1295 H1287 0.950 . S
C1295 C1293 1.327 . S
C1296 C1284 1.349 . S
C1296 H1290 0.950 . S
C1296 C1297 1.327 . S
C1297 H1291 0.950 . S
C1297 C1296 1.327 . S
C1297 C1301 1.429 . S
C1298 C1281 1.574 . S
C1298 H1292 0.949 . S
C1298 C1302 1.368 . S
C1299 C1280 1.429 . S
C1299 C1293 1.429 . S
C1299 C1300 1.523 . S
C1300 C1281 1.368 . S
C1300 C1294 1.368 . S
C1300 C1299 1.523 . S
C1301 C1285 1.429 . S
C1301 C1297 1.429 . S
C1301 C1302 1.523 . S
C1302 C1286 1.368 . S
C1302 C1298 1.368 . S
C1302 C1301 1.523 . S
H1303 C1278 0.950 . S
H1304 C1280 0.950 . S
H1305 C1281 0.949 . S
H1306 C1283 0.950 . S
H1307 C1285 0.950 . S
C1308 C1309 1.349 . S
C1308 C1310 1.327 . S
C1308 H1333 0.950 . S
C1309 C1308 1.349 . S
C1309 C1325 1.349 . S
C1310 C1308 1.327 . S
C1310 C1329 1.429 . S
C1310 H1334 0.950 . S
C1311 C1328 1.574 . S
C1311 C1330 1.368 . S
C1311 H1335 0.949 . S
H1312 C1316 0.949 . S
C1313 C1314 1.349 . S
C1313 C1315 1.327 . S
C1313 H1336 0.950 . S
C1314 C1313 1.349 . S
C1314 C1326 1.349 . S
C1315 C1313 1.327 . S
C1315 C1331 1.429 . S
C1315 H1337 0.950 . S
C1316 H1312 0.949 . S
C1316 C1324 1.574 . S
C1316 C1332 1.368 . S
H1317 C1325 0.950 . S
H1318 C1323 0.950 . S
H1319 C1324 0.949 . S
H1320 C1326 0.950 . S
H1321 C1327 0.950 . S
H1322 C1328 0.949 . S
C1323 H1318 0.950 . S
C1323 C1325 1.327 . S
C1323 C1329 1.429 . S
C1324 C1316 1.574 . S
C1324 H1319 0.949 . S
C1324 C1330 1.368 . S
C1325 C1309 1.349 . S
C1325 H1317 0.950 . S
C1325 C1323 1.327 . S
C1326 C1314 1.349 . S
C1326 H1320 0.950 . S
C1326 C1327 1.327 . S
C1327 H1321 0.950 . S
C1327 C1326 1.327 . S
C1327 C1331 1.429 . S
C1328 C1311 1.574 . S
C1328 H1322 0.949 . S
C1328 C1332 1.368 . S
C1329 C1310 1.429 . S
C1329 C1323 1.429 . S
C1329 C1330 1.523 . S
C1330 C1311 1.368 . S
C1330 C1324 1.368 . S
C1330 C1329 1.523 . S
C1331 C1315 1.429 . S
C1331 C1327 1.429 . S
C1331 C1332 1.523 . S
C1332 C1316 1.368 . S
C1332 C1328 1.368 . S
C1332 C1331 1.523 . S
H1333 C1308 0.950 . S
H1334 C1310 0.950 . S
H1335 C1311 0.949 . S
H1336 C1313 0.950 . S
H1337 C1315 0.950 . S
C1338 C1339 1.349 . S
C1338 C1340 1.327 . S
C1338 H1363 0.950 . S
C1339 C1338 1.349 . S
C1339 C1355 1.349 . S
C1340 C1338 1.327 . S
C1340 C1359 1.429 . S
C1340 H1364 0.950 . S
C1341 C1358 1.574 . S
C1341 C1360 1.368 . S
C1341 H1365 0.949 . S
H1342 C1346 0.949 . S
C1343 C1344 1.349 . S
C1343 C1345 1.327 . S
C1343 H1366 0.950 . S
C1344 C1343 1.349 . S
C1344 C1356 1.349 . S
C1345 C1343 1.327 . S
C1345 C1361 1.429 . S
C1345 H1367 0.950 . S
C1346 H1342 0.949 . S
C1346 C1354 1.574 . S
C1346 C1362 1.368 . S
H1347 C1355 0.950 . S
H1348 C1353 0.950 . S
H1349 C1354 0.949 . S
H1350 C1356 0.950 . S
H1351 C1357 0.950 . S
H1352 C1358 0.949 . S
C1353 H1348 0.950 . S
C1353 C1355 1.327 . S
C1353 C1359 1.429 . S
C1354 C1346 1.574 . S
C1354 H1349 0.949 . S
C1354 C1360 1.368 . S
C1355 C1339 1.349 . S
C1355 H1347 0.950 . S
C1355 C1353 1.327 . S
C1356 C1344 1.349 . S
C1356 H1350 0.950 . S
C1356 C1357 1.327 . S
C1357 H1351 0.950 . S
C1357 C1356 1.327 . S
C1357 C1361 1.429 . S
C1358 C1341 1.574 . S
C1358 H1352 0.949 . S
C1358 C1362 1.368 . S
C1359 C1340 1.429 . S
C1359 C1353 1.429 . S
C1359 C1360 1.523 . S
C1360 C1341 1.368 . S
C1360 C1354 1.368 . S
C1360 C1359 1.523 . S
C1361 C1345 1.429 . S
C1361 C1357 1.429 . S
C1361 C1362 1.523 . S
C1362 C1346 1.368 . S
C1362 C1358 1.368 . S
C1362 C1361 1.523 . S
H1363 C1338 0.950 . S
H1364 C1340 0.950 . S
H1365 C1341 0.949 . S
H1366 C1343 0.950 . S
H1367 C1345 0.950 . S
C1368 C1369 1.349 . S
C1368 C1370 1.327 . S
C1368 H1393 0.950 . S
C1369 C1368 1.349 . S
C1369 C1385 1.349 . S
C1370 C1368 1.327 . S
C1370 C1389 1.429 . S
C1370 H1394 0.950 . S
C1371 C1388 1.574 . S
C1371 C1390 1.368 . S
C1371 H1395 0.949 . S
H1372 C1376 0.949 . S
C1373 C1374 1.349 . S
C1373 C1375 1.327 . S
C1373 H1396 0.950 . S
C1374 C1373 1.349 . S
C1374 C1386 1.349 . S
C1375 C1373 1.327 . S
C1375 C1391 1.429 . S
C1375 H1397 0.950 . S
C1376 H1372 0.949 . S
C1376 C1384 1.574 . S
C1376 C1392 1.368 . S
H1377 C1385 0.950 . S
H1378 C1383 0.950 . S
H1379 C1384 0.949 . S
H1380 C1386 0.950 . S
H1381 C1387 0.950 . S
H1382 C1388 0.949 . S
C1383 H1378 0.950 . S
C1383 C1385 1.327 . S
C1383 C1389 1.429 . S
C1384 C1376 1.574 . S
C1384 H1379 0.949 . S
C1384 C1390 1.368 . S
C1385 C1369 1.349 . S
C1385 H1377 0.950 . S
C1385 C1383 1.327 . S
C1386 C1374 1.349 . S
C1386 H1380 0.950 . S
C1386 C1387 1.327 . S
C1387 H1381 0.950 . S
C1387 C1386 1.327 . S
C1387 C1391 1.429 . S
C1388 C1371 1.574 . S
C1388 H1382 0.949 . S
C1388 C1392 1.368 . S
C1389 C1370 1.429 . S
C1389 C1383 1.429 . S
C1389 C1390 1.523 . S
C1390 C1371 1.368 . S
C1390 C1384 1.368 . S
C1390 C1389 1.523 . S
C1391 C1375 1.429 . S
C1391 C1387 1.429 . S
C1391 C1392 1.523 . S
C1392 C1376 1.368 . S
C1392 C1388 1.368 . S
C1392 C1391 1.523 . S
H1393 C1368 0.950 . S
H1394 C1370 0.950 . S
H1395 C1371 0.949 . S
H1396 C1373 0.950 . S
H1397 C1375 0.950 . S
C1398 C1399 1.349 . S
C1398 C1400 1.327 . S
C1398 H1423 0.950 . S
C1399 C1398 1.349 . S
C1399 C1415 1.349 . S
C1400 C1398 1.327 . S
C1400 C1419 1.429 . S
C1400 H1424 0.950 . S
C1401 C1418 1.574 . S
C1401 C1420 1.368 . S
C1401 H1425 0.949 . S
H1402 C1406 0.949 . S
C1403 C1404 1.349 . S
C1403 C1405 1.327 . S
C1403 H1426 0.950 . S
C1404 C1403 1.349 . S
C1404 C1416 1.349 . S
C1405 C1403 1.327 . S
C1405 C1421 1.429 . S
C1405 H1427 0.950 . S
C1406 H1402 0.949 . S
C1406 C1414 1.574 . S
C1406 C1422 1.368 . S
H1407 C1415 0.950 . S
H1408 C1413 0.950 . S
H1409 C1414 0.949 . S
H1410 C1416 0.950 . S
H1411 C1417 0.950 . S
H1412 C1418 0.949 . S
C1413 H1408 0.950 . S
C1413 C1415 1.327 . S
C1413 C1419 1.429 . S
C1414 C1406 1.574 . S
C1414 H1409 0.949 . S
C1414 C1420 1.368 . S
C1415 C1399 1.349 . S
C1415 H1407 0.950 . S
C1415 C1413 1.327 . S
C1416 C1404 1.349 . S
C1416 H1410 0.950 . S
C1416 C1417 1.327 . S
C1417 H1411 0.950 . S
C1417 C1416 1.327 . S
C1417 C1421 1.429 . S
C1418 C1401 1.574 . S
C1418 H1412 0.949 . S
C1418 C1422 1.368 . S
C1419 C1400 1.429 . S
C1419 C1413 1.429 . S
C1419 C1420 1.523 . S
C1420 C1401 1.368 . S
C1420 C1414 1.368 . S
C1420 C1419 1.523 . S
C1421 C1405 1.429 . S
C1421 C1417 1.429 . S
C1421 C1422 1.523 . S
C1422 C1406 1.368 . S
C1422 C1418 1.368 . S
C1422 C1421 1.523 . S
H1423 C1398 0.950 . S
H1424 C1400 0.950 . S
H1425 C1401 0.949 . S
H1426 C1403 0.950 . S
H1427 C1405 0.950 . S
C1428 C1429 1.349 . S
C1428 C1430 1.327 . S
C1428 H1453 0.950 . S
C1429 C1428 1.349 . S
C1429 C1445 1.349 . S
C1430 C1428 1.327 . S
C1430 C1449 1.429 . S
C1430 H1454 0.950 . S
C1431 C1448 1.574 1_554 S
C1431 C1450 1.368 . S
C1431 H1455 0.949 . S
H1432 C1436 0.949 . S
C1433 C1434 1.349 . S
C1433 C1435 1.327 . S
C1433 H1456 0.950 . S
C1434 C1433 1.349 . S
C1434 C1446 1.349 . S
C1435 C1433 1.327 . S
C1435 C1451 1.429 . S
C1435 H1457 0.950 . S
C1436 H1432 0.949 . S
C1436 C1444 1.574 1_556 S
C1436 C1452 1.368 . S
H1437 C1445 0.950 . S
H1438 C1443 0.950 . S
H1439 C1444 0.949 . S
H1440 C1446 0.950 . S
H1441 C1447 0.950 . S
H1442 C1448 0.949 . S
C1443 H1438 0.950 . S
C1443 C1445 1.327 . S
C1443 C1449 1.429 . S
C1444 C1436 1.574 1_554 S
C1444 H1439 0.949 . S
C1444 C1450 1.368 . S
C1445 C1429 1.349 . S
C1445 H1437 0.950 . S
C1445 C1443 1.327 . S
C1446 C1434 1.349 . S
C1446 H1440 0.950 . S
C1446 C1447 1.327 . S
C1447 H1441 0.950 . S
C1447 C1446 1.327 . S
C1447 C1451 1.429 . S
C1448 C1431 1.574 1_556 S
C1448 H1442 0.949 . S
C1448 C1452 1.368 . S
C1449 C1430 1.429 . S
C1449 C1443 1.429 . S
C1449 C1450 1.523 . S
C1450 C1431 1.368 . S
C1450 C1444 1.368 . S
C1450 C1449 1.523 . S
C1451 C1435 1.429 . S
C1451 C1447 1.429 . S
C1451 C1452 1.523 . S
C1452 C1436 1.368 . S
C1452 C1448 1.368 . S
C1452 C1451 1.523 . S
H1453 C1428 0.950 . S
H1454 C1430 0.950 . S
H1455 C1431 0.949 . S
H1456 C1433 0.950 . S
H1457 C1435 0.950 . S
C1458 C1459 1.349 . S
C1458 C1460 1.327 . S
C1458 H1483 0.950 . S
C1459 C1458 1.349 . S
C1459 C1475 1.349 . S
C1460 C1458 1.327 . S
C1460 C1479 1.429 . S
C1460 H1484 0.950 . S
C1461 C1478 1.574 . S
C1461 C1480 1.368 . S
C1461 H1485 0.949 . S
H1462 C1466 0.949 . S
C1463 C1464 1.349 . S
C1463 C1465 1.327 . S
C1463 H1486 0.950 . S
C1464 C1463 1.349 . S
C1464 C1476 1.349 . S
C1465 C1463 1.327 . S
C1465 C1481 1.429 . S
C1465 H1487 0.950 . S
C1466 H1462 0.949 . S
C1466 C1474 1.574 . S
C1466 C1482 1.368 . S
H1467 C1475 0.950 . S
H1468 C1473 0.950 . S
H1469 C1474 0.949 . S
H1470 C1476 0.950 . S
H1471 C1477 0.950 . S
H1472 C1478 0.949 . S
C1473 H1468 0.950 . S
C1473 C1475 1.327 . S
C1473 C1479 1.429 . S
C1474 C1466 1.574 . S
C1474 H1469 0.949 . S
C1474 C1480 1.368 . S
C1475 C1459 1.349 . S
C1475 H1467 0.950 . S
C1475 C1473 1.327 . S
C1476 C1464 1.349 . S
C1476 H1470 0.950 . S
C1476 C1477 1.327 . S
C1477 H1471 0.950 . S
C1477 C1476 1.327 . S
C1477 C1481 1.429 . S
C1478 C1461 1.574 . S
C1478 H1472 0.949 . S
C1478 C1482 1.368 . S
C1479 C1460 1.429 . S
C1479 C1473 1.429 . S
C1479 C1480 1.523 . S
C1480 C1461 1.368 . S
C1480 C1474 1.368 . S
C1480 C1479 1.523 . S
C1481 C1465 1.429 . S
C1481 C1477 1.429 . S
C1481 C1482 1.523 . S
C1482 C1466 1.368 . S
C1482 C1478 1.368 . S
C1482 C1481 1.523 . S
H1483 C1458 0.950 . S
H1484 C1460 0.950 . S
H1485 C1461 0.949 . S
H1486 C1463 0.950 . S
H1487 C1465 0.950 . S
C774 C754 1.693 . S
C769 C1 1.272 . S
C799 C169 1.443 . S
C804 C695 1.780 . S
C829 C283 1.456 . S
C834 C698 1.797 . S
C859 C397 1.250 . S
C864 C712 1.583 . S
C894 C737 1.542 . S
C889 C457 1.151 . S
C919 C571 1.103 . S
C924 C740 1.456 . S
C949 C115 1.185 . S
C954 C709 1.576 . S
C979 C229 1.137 . S
C984 C723 1.529 . S
C1009 C343 1.063 . S
C1014 C726 1.387 . S
C1044 C751 1.636 . S
C1039 C511 1.328 . S
C1074 C765 1.706 . S
C1069 C625 1.369 . S
C1104 C684 1.787 . S
C1099 C55 1.447 . S
C1129 C29 1.119 . S
C1134 C707 1.379 . S
C1159 C125 0.951 . S
C1164 C721 1.523 . S
C1194 C731 1.457 . S
C1189 C239 0.909 . S
C1219 C353 0.876 . S
C1224 C749 1.413 . S
C1254 C763 1.352 . S
C1249 C485 1.073 . S
C1284 C689 1.418 . S
C1279 C599 1.144 . S
C1314 C759 1.466 . S
C1309 C143 1.175 . S
C1339 C257 1.133 . S
C1344 C693 1.424 . S
C1374 C703 1.357 . S
C1369 C371 1.099 . S
C1399 C467 0.959 . S
C1404 C717 1.497 . S
C1429 C581 0.909 . S
C1434 C735 1.458 . S
C1459 C11 0.953 . S
C1464 C745 1.532 . S
