# Generated by pormake.
# Topology tsx, (6,3)-cn, num edge types: 1
# Building blocks:
#     Node 0, Type 0, BuildingBlock: MIDCAF_clean_sbu_0, # of connection points: 6
#     Node 1, Type 0, BuildingBlock: MIDCAF_clean_sbu_0, # of connection points: 6
#     Node 2, Type 1, BuildingBlock: INOVEN_clean_linker_0, # of connection points: 3
#     Node 3, Type 1, BuildingBlock: INOVEN_clean_linker_0, # of connection points: 3
#     Node 4, Type 1, BuildingBlock: INOVEN_clean_linker_0, # of connection points: 3
#     Node 5, Type 1, BuildingBlock: INOVEN_clean_linker_0, # of connection points: 3
#     Edge 6, Type (0, 1), BuildingBlock: XIVTED_clean_linker_0, # of connection points: 2
#     Edge 7, Type (0, 1), BuildingBlock: XIVTED_clean_linker_0, # of connection points: 2
#     Edge 8, Type (0, 1), BuildingBlock: XIVTED_clean_linker_0, # of connection points: 2
#     Edge 9, Type (0, 1), BuildingBlock: XIVTED_clean_linker_0, # of connection points: 2
#     Edge 10, Type (0, 1), BuildingBlock: XIVTED_clean_linker_0, # of connection points: 2
#     Edge 11, Type (0, 1), BuildingBlock: XIVTED_clean_linker_0, # of connection points: 2
#     Edge 12, Type (0, 1), BuildingBlock: XIVTED_clean_linker_0, # of connection points: 2
#     Edge 13, Type (0, 1), BuildingBlock: XIVTED_clean_linker_0, # of connection points: 2
#     Edge 14, Type (0, 1), BuildingBlock: XIVTED_clean_linker_0, # of connection points: 2
#     Edge 15, Type (0, 1), BuildingBlock: XIVTED_clean_linker_0, # of connection points: 2
#     Edge 16, Type (0, 1), BuildingBlock: XIVTED_clean_linker_0, # of connection points: 2
#     Edge 17, Type (0, 1), BuildingBlock: XIVTED_clean_linker_0, # of connection points: 2
# Relax obj value: 0.076
# Max RMSD: 0.148
# Mean RMSD: 0.105
data_MOF--net-tsx--node1-MIDCAF_clean_sbu_0--node2-INOVEN_clean_linker_0--edge1-XIVTED_clean_linker_0
_symmetry_space_group_name_H-M    P1
_symmetry_Int_Tables_number       1
_symmetry_cell_setting            triclinic
loop_
_symmetry_equiv_pos_as_xyz
'x, y, z'
_cell_length_a     19.985482
_cell_length_b     21.010548
_cell_length_c     35.878521
_cell_angle_alpha  90.384935
_cell_angle_beta   105.12007
_cell_angle_gamma 90.212244
loop_
_atom_site_label
_atom_site_type_symbol
_atom_site_fract_x
_atom_site_fract_y
_atom_site_fract_z
_atom_type_partial_charge
Zn0 Zn 0.93989 0.99199 0.93656 0.0
Zn1 Zn 0.15174 0.00348 0.06408 0.0
Zn2 Zn 0.04241 -0.00209 0.00249 0.0
C3 C 0.11466 0.1285 0.04275 0.0
C4 C 0.19663 0.93752 0.00931 0.0
O5 O 0.95538 0.94353 0.01496 0.0
O6 O 0.87963 0.93553 0.95765 0.0
C7 C 0.96003 0.1203 0.95968 0.0
O8 O 0.06979 0.0991 0.01576 0.0
O9 O 0.15565 0.09762 0.06911 0.0
O10 O 0.22152 0.96045 0.04265 0.0
O11 O 0.13255 0.94683 0.99139 0.0
O12 O 0.92275 0.08571 0.93331 0.0
O13 O 1.00773 0.09542 0.98681 0.0
O14 O 0.08104 0.95144 0.95658 0.0
O15 O 0.99338 0.95157 0.90402 0.0
C16 C 0.05544 0.93815 0.92055 0.0
O17 O 0.00889 0.95425 0.05031 0.0
O18 O 0.10591 0.95491 0.09755 0.0
C19 C 0.89759 0.92224 0.99312 0.0
C20 C 0.04231 0.94149 0.08527 0.0
Zn21 Zn 0.68403 0.53177 0.55787 0.0
Zn22 Zn 0.44185 0.53196 0.45203 0.0
Zn23 Zn 0.56391 0.53514 0.5048 0.0
C24 C 0.53904 0.47523 0.41901 0.0
C25 C 0.47801 0.66022 0.47037 0.0
O26 O 0.5451 0.49622 0.55786 0.0
O27 O 0.64695 0.5027 0.60099 0.0
C28 C 0.69912 0.45327 0.49871 0.0
O29 O 0.57951 0.48799 0.45255 0.0
O30 O 0.47543 0.48866 0.41135 0.0
O31 O 0.43049 0.62571 0.44982 0.0
O32 O 0.53281 0.63517 0.49235 0.0
O33 O 0.73099 0.46962 0.5326 0.0
O34 O 0.638 0.47517 0.4832 0.0
O35 O 0.60092 0.63499 0.51503 0.0
O36 O 0.70648 0.62267 0.55342 0.0
C37 C 0.66003 0.65819 0.53361 0.0
O38 O 0.48645 0.48198 0.52762 0.0
O39 O 0.38908 0.48118 0.4809 0.0
C40 C 0.5831 0.4894 0.59257 0.0
C41 C 0.42263 0.46447 0.51424 0.0
H42 H 0.119 0.03102 0.45055 0.0
H43 H 0.13003 0.91475 0.35323 0.0
H44 H 0.94513 0.01996 0.3503 0.0
N45 N 0.99418 0.0781 0.4192 0.0
N46 N 0.93427 0.09586 0.40276 0.0
C47 C 0.09497 0.01143 0.42217 0.0
C48 C 0.1321 0.96954 0.40445 0.0
C49 C 0.02775 0.0303 0.40262 0.0
C50 C 0.99694 0.0055 0.36553 0.0
C51 C 0.03351 0.96402 0.34734 0.0
C52 C 0.10084 0.94603 0.36719 0.0
H53 H 1.00623 0.04843 0.57217 0.0
H54 H 1.00081 0.92204 0.66507 0.0
H55 H 0.17988 0.0401 0.67256 0.0
N56 N 0.12875 0.09978 0.60468 0.0
N57 N 0.18815 0.11954 0.62114 0.0
C58 C 0.03087 0.0282 0.60007 0.0
C59 C 0.99591 0.98204 0.6161 0.0
C60 C 0.0969 0.04979 0.62041 0.0
C61 C 0.12886 0.02372 0.65675 0.0
C62 C 0.09473 0.97738 0.67311 0.0
C63 C 0.02825 0.95702 0.65251 0.0
H64 H 0.64585 0.52958 0.96528 0.0
H65 H 0.65563 0.43386 0.86045 0.0
H66 H 0.48704 0.56016 0.86018 0.0
N67 N 0.53051 0.59446 0.93394 0.0
N68 N 0.50989 0.64613 0.91828 0.0
C69 C 0.6241 0.51946 0.93485 0.0
C70 C 0.65859 0.47853 0.915 0.0
C71 C 0.56325 0.55014 0.91472 0.0
C72 C 0.53486 0.53727 0.87523 0.0
C73 C 0.56699 0.49421 0.85553 0.0
C74 C 0.62919 0.4658 0.87564 0.0
H75 H 0.43603 0.53006 0.04518 0.0
H76 H 0.42601 0.42757 0.14702 0.0
H77 H 0.60574 0.54028 0.1476 0.0
N78 N 0.5579 0.58554 0.07565 0.0
N79 N 0.60758 0.61803 0.09478 0.0
C80 C 0.45931 0.51616 0.07475 0.0
C81 C 0.42328 0.47562 0.09384 0.0
C82 C 0.52437 0.54088 0.09434 0.0
C83 C 0.55477 0.52254 0.13273 0.0
C84 C 0.51997 0.48132 0.15199 0.0
C85 C 0.45406 0.45856 0.13229 0.0
H86 H 0.11406 0.20061 0.97946 0.0
H87 H 0.38245 0.41683 0.02299 0.0
H88 H 0.14331 0.21226 0.10266 0.0
H89 H 0.30773 0.47214 0.12079 0.0
H90 H 0.28026 0.34862 0.00024 0.0
H91 H 0.16806 0.30627 0.98113 0.0
C92 C 0.12986 0.22636 0.00663 0.0
C93 C 0.1257 0.19758 0.04113 0.0
C94 C 0.28463 0.37751 0.02585 0.0
C95 C 0.18839 0.31682 0.04342 0.0
C96 C 0.34322 0.41636 0.03889 0.0
C97 C 0.35421 0.44883 0.07427 0.0
C98 C 0.2373 0.37114 0.04859 0.0
C99 C 0.30199 0.44645 0.09387 0.0
C100 C 0.16151 0.28614 0.00765 0.0
C101 C 0.14675 0.2326 0.07556 0.0
N102 N 0.24674 0.40694 0.08131 0.0
N103 N 0.17791 0.2901 0.0759 0.0
H104 H 0.16236 0.82611 0.96948 0.0
H105 H 0.50951 0.77174 0.91097 0.0
H106 H 0.33189 0.95778 0.0111 0.0
H107 H 0.41779 0.61769 0.95938 0.0
H108 H 0.43197 0.84683 0.93211 0.0
H109 H 0.24188 0.75388 0.94803 0.0
C110 C 0.216 0.84015 0.97347 0.0
C111 C 0.24102 0.89762 0.99203 0.0
C112 C 0.4294 0.79661 0.93826 0.0
C113 C 0.33101 0.8163 0.96756 0.0
C114 C 0.47344 0.75417 0.92643 0.0
C115 C 0.47036 0.68926 0.9341 0.0
C116 C 0.38034 0.77313 0.95643 0.0
C117 C 0.42228 0.66781 0.95361 0.0
C118 C 0.26118 0.79888 0.96163 0.0
C119 C 0.31099 0.91363 -0.00303 0.0
N120 N 0.37824 0.7097 0.9637 0.0
N121 N 0.35369 0.87328 0.98452 0.0
H122 H 0.87289 0.92315 0.06431 0.0
H123 H 0.59455 0.63986 0.01803 0.0
H124 H 0.81484 0.82681 0.95451 0.0
H125 H 0.70299 0.69763 0.13352 0.0
H126 H 0.66319 0.71724 0.99234 0.0
H127 H 0.80018 0.84932 0.08914 0.0
C128 C 0.84635 0.88537 0.04595 0.0
C129 C 0.85223 0.87947 0.00817 0.0
C130 C 0.67185 0.71302 0.0233 0.0
C131 C 0.76571 0.7968 0.035 0.0
C132 C 0.63263 0.66911 0.0379 0.0
C133 C 0.64376 0.66288 0.07799 0.0
C134 C 0.72167 0.7509 0.04901 0.0
C135 C 0.6935 0.70152 0.1025 0.0
C136 C 0.80378 0.84392 0.05969 0.0
C137 C 0.81237 0.83255 0.98413 0.0
N138 N 0.73066 0.74404 0.0877 0.0
N139 N 0.77087 0.79284 -0.00203 0.0
H140 H 0.95949 0.19258 0.02324 0.0
H141 H 0.69138 0.41202 0.98298 0.0
H142 H 0.91947 0.20114 0.89934 0.0
H143 H 0.77579 0.47288 0.88997 0.0
H144 H 0.78817 0.33767 0.00347 0.0
H145 H 0.90483 0.29736 0.02299 0.0
C146 C 0.94087 0.21734 -0.00386 0.0
C147 C 0.94289 0.18817 0.96114 0.0
C148 C 0.7869 0.36898 0.97945 0.0
C149 C 0.88041 0.30669 0.96066 0.0
C150 C 0.73159 0.41133 0.96775 0.0
C151 C 0.72492 0.44741 0.93425 0.0
C152 C 0.83498 0.36272 0.95717 0.0
C153 C 0.77822 0.44458 0.91541 0.0
C154 C 0.90913 0.27661 -0.00398 0.0
C155 C 0.91797 0.22183 0.92683 0.0
N156 N 0.82992 0.40161 0.92645 0.0
N157 N 0.88742 0.27922 0.92743 0.0
H158 H 0.61641 0.76254 0.56658 0.0
H159 H 0.88164 0.96915 0.64379 0.0
H160 H 0.74896 0.70392 0.49557 0.0
H161 H 0.95212 0.93957 0.54129 0.0
H162 H 0.77681 0.90901 0.61441 0.0
H163 H 0.67888 0.86452 0.57878 0.0
C164 C 0.65731 0.77222 0.55262 0.0
C165 C 0.67826 0.72519 0.53034 0.0
C166 C 0.81354 0.91723 0.59752 0.0
C167 C 0.75257 0.83927 0.5458 0.0
C168 C 0.87403 0.95115 0.6146 0.0
C169 C 0.92612 0.95827 0.59519 0.0
C170 C 0.80524 0.88965 0.56076 0.0
C171 C 0.91339 0.93482 0.55731 0.0
C172 C 0.694 0.82984 0.56017 0.0
C173 C 0.7317 0.73929 0.51306 0.0
N174 N 0.85495 0.9003 0.54168 0.0
N175 N 0.76776 0.79465 0.52163 0.0
H176 H 0.63708 0.3655 0.44292 0.0
H177 H 0.99008 0.17557 0.46327 0.0
H178 H 0.83669 0.43102 0.51104 0.0
H179 H 0.80424 0.13234 0.37424 0.0
H180 H 0.93164 0.26643 0.48344 0.0
H181 H 0.69461 0.27878 0.41754 0.0
C182 C 0.69301 0.36273 0.4517 0.0
C183 C 0.73218 0.40595 0.47876 0.0
C184 C 0.90346 0.23714 0.45948 0.0
C185 C 0.79798 0.30559 0.4513 0.0
C186 C 0.9367 0.18504 0.44818 0.0
C187 C 0.90133 0.14654 0.41714 0.0
C188 C 0.83444 0.25058 0.43977 0.0
C189 C 0.83259 0.16111 0.3984 0.0
C190 C 0.72578 0.31271 0.43766 0.0
C191 C 0.80442 0.39863 0.49029 0.0
N192 N 0.8011 0.21197 0.41001 0.0
N193 N 0.83486 0.3492 0.47675 0.0
H194 H 0.48404 0.37939 0.57049 0.0
H195 H 0.1293 0.19774 0.56124 0.0
H196 H 0.2843 0.44658 0.50532 0.0
H197 H 0.318 0.15917 0.64845 0.0
H198 H 0.18681 0.28717 0.53889 0.0
H199 H 0.42598 0.29835 0.59962 0.0
C200 C 0.42802 0.37836 0.56315 0.0
C201 C 0.38901 0.42054 0.53591 0.0
C202 C 0.21572 0.25933 0.56299 0.0
C203 C 0.32227 0.32599 0.56765 0.0
C204 C 0.183 0.20808 0.57559 0.0
C205 C 0.21957 0.17107 0.60662 0.0
C206 C 0.28547 0.27328 0.58133 0.0
C207 C 0.28868 0.18674 0.62434 0.0
C208 C 0.39487 0.33146 0.57937 0.0
C209 C 0.31647 0.41506 0.52622 0.0
N210 N 0.31971 0.23651 0.61136 0.0
N211 N 0.28551 0.36836 0.54181 0.0
H212 H 0.47361 0.74465 0.41322 0.0
H213 H 0.18229 0.92406 0.47795 0.0
H214 H 0.44592 0.72802 0.52776 0.0
H215 H 0.24482 0.96956 0.37493 0.0
H216 H 0.29291 0.86944 0.50317 0.0
H217 H 0.4087 0.84403 0.40498 0.0
C218 C 0.45619 0.76361 0.43722 0.0
C219 C 0.46497 0.72871 0.47118 0.0
C220 C 0.28318 0.89267 0.47544 0.0
C221 C 0.38711 0.84006 0.46136 0.0
C222 C 0.22008 0.92395 0.46111 0.0
C223 C 0.2038 0.94974 0.4239 0.0
C224 C 0.32973 0.8869 0.45217 0.0
C225 C 0.25463 0.94858 0.40332 0.0
C226 C 0.41848 0.82001 0.43247 0.0
C227 C 0.44037 0.75421 0.50123 0.0
N228 N 0.31465 0.91657 0.41738 0.0
N229 N 0.40078 0.80759 0.49527 0.0
H230 H 0.94421 0.00968 0.10639 0.0
H231 H 0.04417 0.84855 0.31248 0.0
H232 H 0.06527 0.83889 0.13274 0.0
H233 H 0.95898 0.03693 0.28798 0.0
H234 H 0.01889 0.82735 0.24305 0.0
H235 H 0.91376 0.00105 0.16783 0.0
C236 C 0.96186 0.9688 0.12451 0.0
C237 C 1.00608 0.9242 0.11439 0.0
C238 C 1.00444 0.87279 0.25298 0.0
C239 C 0.97507 0.91596 0.18558 0.0
C240 C 0.01921 0.88511 0.29258 0.0
C241 C 1.00526 0.9452 0.30618 0.0
C242 C 0.97546 0.92088 0.22682 0.0
C243 C 0.97095 0.98998 0.27904 0.0
C244 C 0.94521 0.96424 0.15975 0.0
C245 C 0.03 0.87351 0.1394 0.0
N246 N 0.95829 0.97725 0.24071 0.0
N247 N 0.01506 0.87124 0.17422 0.0
H248 H 0.17794 0.98912 0.91537 0.0
H249 H 0.09153 0.856 0.70082 0.0
H250 H 0.02974 0.84088 0.86871 0.0
H251 H 0.16668 0.0455 0.73668 0.0
H252 H 0.11572 0.8255 0.76867 0.0
H253 H 0.22137 0.98199 0.85747 0.0
C254 C 0.15693 0.95295 0.89378 0.0
C255 C 0.0995 0.91629 0.89615 0.0
C256 C 0.12859 0.87324 0.76156 0.0
C257 C 0.14789 0.90842 0.83025 0.0
C258 C 0.11428 0.8909 0.72289 0.0
C259 C 0.12486 0.95405 0.71301 0.0
C260 C 0.15381 0.91897 0.79055 0.0
C261 C 0.15685 -0.00349 0.74282 0.0
C262 C 0.18122 0.94931 0.86065 0.0
C263 C 0.07357 0.87048 0.86746 0.0
N264 N 0.16888 0.97856 0.78029 0.0
N265 N 0.09707 0.86861 0.83526 0.0
H266 H 0.46883 0.53993 0.60914 0.0
H267 H 0.56278 0.38031 0.8171 0.0
H268 H 0.62955 0.4009 0.64771 0.0
H269 H 0.50705 0.5781 0.79802 0.0
H270 H 0.54139 0.36499 0.74737 0.0
H271 H 0.43798 0.52974 0.67098 0.0
C272 C 0.49588 0.50572 0.63013 0.0
C273 C 0.5523 0.47176 0.62395 0.0
C274 C 0.53233 0.41129 0.75856 0.0
C275 C 0.51708 0.45941 0.69363 0.0
C276 C 0.54506 0.42032 0.79828 0.0
C277 C 0.53902 0.48117 0.81356 0.0
C278 C 0.51246 0.46316 0.73389 0.0
C279 C 0.51316 0.53056 0.78765 0.0
C280 C 0.47854 0.50018 0.66527 0.0
C281 C 0.58623 0.42832 0.65184 0.0
N282 N 0.5019 0.52073 0.74901 0.0
N283 N 0.56844 0.42368 0.6857 0.0
H284 H 0.65272 0.51883 0.3984 0.0
H285 H 0.51297 0.36713 0.18798 0.0
H286 H 0.48498 0.38309 0.36636 0.0
H287 H 0.59556 0.55795 0.21062 0.0
H288 H 0.54289 0.34806 0.25751 0.0
H289 H 0.67293 0.50606 0.33402 0.0
C290 C 0.62211 0.48445 0.37834 0.0
C291 C 0.5665 0.45259 0.38714 0.0
C292 C 0.55573 0.39356 0.24705 0.0
C293 C 0.58909 0.43789 0.31422 0.0
C294 C 0.53809 0.40481 0.20743 0.0
C295 C 0.54982 0.46494 0.19331 0.0
C296 C 0.58607 0.44245 0.27277 0.0
C297 C 0.58505 0.51098 0.21998 0.0
C298 C 0.63325 0.4776 0.34165 0.0
C299 C 0.52784 0.40896 0.36027 0.0
N300 N 0.60102 0.49907 0.25847 0.0
N301 N 0.53928 0.40343 0.32475 0.0
loop_
_geom_bond_atom_site_label_1
_geom_bond_atom_site_label_2
_geom_bond_distance
_geom_bond_site_symmetry_2
_ccdc_geom_bond_type
Zn0 O6 1.920 1_545 S
Zn0 O12 1.898 . S
Zn0 O15 1.905 1_545 S
Zn1 O9 1.905 . S
Zn1 O10 1.898 1_545 S
Zn1 O18 1.920 1_545 S
Zn2 O5 2.080 1_445 S
Zn2 O8 2.114 . S
Zn2 O11 2.120 1_545 S
Zn2 O13 2.120 1_455 S
Zn2 O14 2.114 1_554 S
Zn2 O17 2.080 . S
C3 O8 1.166 . S
C3 O9 1.182 . S
C4 O10 1.167 . S
C4 O11 1.299 . S
O5 Zn2 2.080 1_665 S
O5 C19 1.305 . S
O6 Zn0 1.920 1_565 S
O6 C19 1.234 1_556 S
C7 O12 1.167 . S
C7 O13 1.299 1_556 S
O8 Zn2 2.114 . S
O8 C3 1.166 . S
O9 Zn1 1.905 . S
O9 C3 1.182 . S
O10 Zn1 1.898 1_565 S
O10 C4 1.167 . S
O11 Zn2 2.120 1_565 S
O11 C4 1.299 . S
O12 Zn0 1.898 . S
O12 C7 1.167 . S
O13 Zn2 2.120 1_655 S
O13 C7 1.299 1_554 S
O14 Zn2 2.114 1_556 S
O14 C16 1.160 1_445 S
O15 Zn0 1.905 1_565 S
O15 C16 1.199 . S
C16 O14 1.160 1_665 S
C16 O15 1.199 . S
O17 Zn2 2.080 . S
O17 C20 1.305 1_545 S
O18 Zn1 1.920 1_565 S
O18 C20 1.234 . S
C19 O5 1.305 . S
C19 O6 1.234 1_554 S
C20 O17 1.305 1_565 S
C20 O18 1.234 . S
Zn21 O27 1.920 . S
Zn21 O33 1.898 . S
Zn21 O36 1.905 . S
Zn22 O30 1.905 . S
Zn22 O31 1.898 . S
Zn22 O39 1.920 . S
Zn23 O26 2.080 . S
Zn23 O29 2.114 . S
Zn23 O32 2.120 . S
Zn23 O34 2.120 . S
Zn23 O35 2.114 . S
Zn23 O38 2.080 . S
C24 O29 1.166 . S
C24 O30 1.182 . S
C25 O31 1.167 . S
C25 O32 1.299 . S
O26 Zn23 2.080 . S
O26 C40 1.305 . S
O27 Zn21 1.920 . S
O27 C40 1.234 . S
C28 O33 1.167 . S
C28 O34 1.299 . S
O29 Zn23 2.114 . S
O29 C24 1.166 . S
O30 Zn22 1.905 . S
O30 C24 1.182 . S
O31 Zn22 1.898 . S
O31 C25 1.167 . S
O32 Zn23 2.120 . S
O32 C25 1.299 . S
O33 Zn21 1.898 . S
O33 C28 1.167 . S
O34 Zn23 2.120 . S
O34 C28 1.299 . S
O35 Zn23 2.114 . S
O35 C37 1.166 . S
O36 Zn21 1.905 . S
O36 C37 1.182 . S
C37 O35 1.166 . S
C37 O36 1.182 . S
O38 Zn23 2.080 . S
O38 C41 1.305 . S
O39 Zn22 1.920 . S
O39 C41 1.234 . S
C40 O26 1.305 . S
C40 O27 1.234 . S
C41 O38 1.305 . S
C41 O39 1.234 . S
H42 C47 0.929 1_565 S
H43 C52 0.931 . S
H44 C50 0.930 . S
N45 N46 1.234 . S
N45 C49 1.453 . S
N46 N45 1.234 . S
C47 H42 0.929 1_545 S
C47 C48 1.373 1_545 S
C47 C49 1.368 . S
C48 C47 1.373 1_565 S
C48 C52 1.397 . S
C49 N45 1.453 . S
C49 C47 1.368 . S
C49 C50 1.373 . S
C50 H44 0.930 . S
C50 C49 1.373 . S
C50 C51 1.371 . S
C51 C50 1.371 . S
C51 C52 1.383 1_545 S
C52 H43 0.931 . S
C52 C48 1.397 . S
C52 C51 1.383 1_565 S
H53 C58 0.927 1_565 S
H54 C63 0.931 . S
H55 C61 0.930 . S
N56 N57 1.234 . S
N56 C60 1.453 . S
N57 N56 1.234 . S
C58 H53 0.927 1_545 S
C58 C59 1.368 1_545 S
C58 C60 1.376 1_655 S
C59 C58 1.368 1_565 S
C59 C63 1.397 . S
C60 N56 1.453 . S
C60 C58 1.376 1_455 S
C60 C61 1.373 . S
C61 H55 0.930 . S
C61 C60 1.373 . S
C61 C62 1.371 1_455 S
C62 C61 1.371 1_655 S
C62 C63 1.383 1_545 S
C63 H54 0.931 . S
C63 C59 1.397 . S
C63 C62 1.383 1_565 S
H64 C69 0.929 . S
H65 C74 0.931 . S
H66 C72 0.930 . S
N67 N68 1.234 . S
N67 C71 1.453 . S
N68 N67 1.234 . S
C69 H64 0.929 . S
C69 C70 1.373 . S
C69 C71 1.368 . S
C70 C69 1.373 . S
C70 C74 1.397 . S
C71 N67 1.453 . S
C71 C69 1.368 . S
C71 C72 1.373 . S
C72 H66 0.930 . S
C72 C71 1.373 . S
C72 C73 1.371 . S
C73 C72 1.371 . S
C73 C74 1.383 . S
C74 H65 0.931 . S
C74 C70 1.397 . S
C74 C73 1.383 . S
H75 C80 0.929 . S
H76 C85 0.931 . S
H77 C83 0.930 . S
N78 N79 1.234 . S
N78 C82 1.453 . S
N79 N78 1.234 . S
C80 H75 0.929 . S
C80 C81 1.373 . S
C80 C82 1.368 . S
C81 C80 1.373 . S
C81 C85 1.397 . S
C82 N78 1.453 . S
C82 C80 1.368 . S
C82 C83 1.373 . S
C83 H77 0.930 . S
C83 C82 1.373 . S
C83 C84 1.371 . S
C84 C83 1.371 . S
C84 C85 1.383 . S
C85 H76 0.931 . S
C85 C81 1.397 . S
C85 C84 1.383 . S
H86 C92 0.930 1_556 S
H87 C96 0.930 . S
H88 C101 0.929 . S
H89 C99 0.929 . S
H90 C94 0.929 . S
H91 C100 0.929 . S
C92 H86 0.930 1_554 S
C92 C93 1.367 . S
C92 C100 1.378 . S
C93 C92 1.367 . S
C93 C101 1.433 . S
C94 H90 0.929 . S
C94 C96 1.378 . S
C94 C98 1.350 . S
C95 C98 1.463 . S
C95 C100 1.350 . S
C95 N103 1.427 . S
C96 H87 0.930 . S
C96 C94 1.378 . S
C96 C97 1.367 . S
C97 C96 1.367 . S
C97 C99 1.433 . S
C98 C94 1.350 . S
C98 C95 1.463 . S
C98 N102 1.427 . S
C99 H89 0.929 . S
C99 C97 1.433 . S
C99 N102 1.384 . S
C100 H91 0.929 . S
C100 C92 1.378 . S
C100 C95 1.350 . S
C101 H88 0.929 . S
C101 C93 1.433 . S
C101 N103 1.384 . S
N102 C98 1.427 . S
N102 C99 1.384 . S
N103 C95 1.427 . S
N103 C101 1.384 . S
H104 C110 0.930 . S
H105 C114 0.930 . S
H106 C119 0.929 1_554 S
H107 C117 0.929 . S
H108 C112 0.929 . S
H109 C118 0.929 . S
C110 H104 0.930 . S
C110 C111 1.367 . S
C110 C118 1.378 . S
C111 C110 1.367 . S
C111 C119 1.433 . S
C112 H108 0.929 . S
C112 C114 1.378 . S
C112 C116 1.350 . S
C113 C116 1.463 . S
C113 C118 1.350 . S
C113 N121 1.427 . S
C114 H105 0.930 . S
C114 C112 1.378 . S
C114 C115 1.367 . S
C115 C114 1.367 . S
C115 C117 1.433 . S
C116 C112 1.350 . S
C116 C113 1.463 . S
C116 N120 1.427 . S
C117 H107 0.929 . S
C117 C115 1.433 . S
C117 N120 1.384 . S
C118 H109 0.929 . S
C118 C110 1.378 . S
C118 C113 1.350 . S
C119 H106 0.929 1_556 S
C119 C111 1.433 . S
C119 N121 1.384 . S
N120 C116 1.427 . S
N120 C117 1.384 . S
N121 C113 1.427 . S
N121 C119 1.384 . S
H122 C128 0.930 . S
H123 C132 0.930 . S
H124 C137 0.929 . S
H125 C135 0.929 . S
H126 C130 0.929 . S
H127 C136 0.929 . S
C128 H122 0.930 . S
C128 C129 1.367 . S
C128 C136 1.378 . S
C129 C128 1.367 . S
C129 C137 1.433 . S
C130 H126 0.929 . S
C130 C132 1.378 . S
C130 C134 1.350 . S
C131 C134 1.463 . S
C131 C136 1.350 . S
C131 N139 1.427 . S
C132 H123 0.930 . S
C132 C130 1.378 . S
C132 C133 1.367 . S
C133 C132 1.367 . S
C133 C135 1.433 . S
C134 C130 1.350 . S
C134 C131 1.463 . S
C134 N138 1.427 . S
C135 H125 0.929 . S
C135 C133 1.433 . S
C135 N138 1.384 . S
C136 H127 0.929 . S
C136 C128 1.378 . S
C136 C131 1.350 . S
C137 H124 0.929 . S
C137 C129 1.433 . S
C137 N139 1.384 . S
N138 C134 1.427 . S
N138 C135 1.384 . S
N139 C131 1.427 . S
N139 C137 1.384 . S
H140 C146 0.930 . S
H141 C150 0.930 . S
H142 C155 0.929 . S
H143 C153 0.929 1_554 S
H144 C148 0.929 . S
H145 C154 0.929 . S
C146 H140 0.930 . S
C146 C147 1.367 1_554 S
C146 C154 1.378 . S
C147 C146 1.367 1_556 S
C147 C155 1.433 . S
C148 H144 0.929 . S
C148 C150 1.378 . S
C148 C152 1.350 . S
C149 C152 1.463 . S
C149 C154 1.350 1_556 S
C149 N157 1.427 . S
C150 H141 0.930 . S
C150 C148 1.378 . S
C150 C151 1.367 . S
C151 C150 1.367 . S
C151 C153 1.433 . S
C152 C148 1.350 . S
C152 C149 1.463 . S
C152 N156 1.427 . S
C153 H143 0.929 1_556 S
C153 C151 1.433 . S
C153 N156 1.384 . S
C154 H145 0.929 . S
C154 C146 1.378 . S
C154 C149 1.350 1_554 S
C155 H142 0.929 . S
C155 C147 1.433 . S
C155 N157 1.384 . S
N156 C152 1.427 . S
N156 C153 1.384 . S
N157 C149 1.427 . S
N157 C155 1.384 . S
H158 C164 0.930 . S
H159 C168 0.930 . S
H160 C173 0.929 . S
H161 C171 0.929 . S
H162 C166 0.929 . S
H163 C172 0.929 . S
C164 H158 0.930 . S
C164 C165 1.367 . S
C164 C172 1.378 . S
C165 C164 1.367 . S
C165 C173 1.433 . S
C166 H162 0.929 . S
C166 C168 1.378 . S
C166 C170 1.350 . S
C167 C170 1.463 . S
C167 C172 1.350 . S
C167 N175 1.427 . S
C168 H159 0.930 . S
C168 C166 1.378 . S
C168 C169 1.367 . S
C169 C168 1.367 . S
C169 C171 1.433 . S
C170 C166 1.350 . S
C170 C167 1.463 . S
C170 N174 1.427 . S
C171 H161 0.929 . S
C171 C169 1.433 . S
C171 N174 1.384 . S
C172 H163 0.929 . S
C172 C164 1.378 . S
C172 C167 1.350 . S
C173 H160 0.929 . S
C173 C165 1.433 . S
C173 N175 1.384 . S
N174 C170 1.427 . S
N174 C171 1.384 . S
N175 C167 1.427 . S
N175 C173 1.384 . S
H176 C182 0.930 . S
H177 C186 0.930 . S
H178 C191 0.929 . S
H179 C189 0.929 . S
H180 C184 0.929 . S
H181 C190 0.929 . S
C182 H176 0.930 . S
C182 C183 1.367 . S
C182 C190 1.378 . S
C183 C182 1.367 . S
C183 C191 1.433 . S
C184 H180 0.929 . S
C184 C186 1.378 . S
C184 C188 1.350 . S
C185 C188 1.463 . S
C185 C190 1.350 . S
C185 N193 1.427 . S
C186 H177 0.930 . S
C186 C184 1.378 . S
C186 C187 1.367 . S
C187 C186 1.367 . S
C187 C189 1.433 . S
C188 C184 1.350 . S
C188 C185 1.463 . S
C188 N192 1.427 . S
C189 H179 0.929 . S
C189 C187 1.433 . S
C189 N192 1.384 . S
C190 H181 0.929 . S
C190 C182 1.378 . S
C190 C185 1.350 . S
C191 H178 0.929 . S
C191 C183 1.433 . S
C191 N193 1.384 . S
N192 C188 1.427 . S
N192 C189 1.384 . S
N193 C185 1.427 . S
N193 C191 1.384 . S
H194 C200 0.930 . S
H195 C204 0.930 . S
H196 C209 0.929 . S
H197 C207 0.929 . S
H198 C202 0.929 . S
H199 C208 0.929 . S
C200 H194 0.930 . S
C200 C201 1.367 . S
C200 C208 1.378 . S
C201 C200 1.367 . S
C201 C209 1.433 . S
C202 H198 0.929 . S
C202 C204 1.378 . S
C202 C206 1.350 . S
C203 C206 1.463 . S
C203 C208 1.350 . S
C203 N211 1.427 . S
C204 H195 0.930 . S
C204 C202 1.378 . S
C204 C205 1.367 . S
C205 C204 1.367 . S
C205 C207 1.433 . S
C206 C202 1.350 . S
C206 C203 1.463 . S
C206 N210 1.427 . S
C207 H197 0.929 . S
C207 C205 1.433 . S
C207 N210 1.384 . S
C208 H199 0.929 . S
C208 C200 1.378 . S
C208 C203 1.350 . S
C209 H196 0.929 . S
C209 C201 1.433 . S
C209 N211 1.384 . S
N210 C206 1.427 . S
N210 C207 1.384 . S
N211 C203 1.427 . S
N211 C209 1.384 . S
H212 C218 0.930 . S
H213 C222 0.930 . S
H214 C227 0.929 . S
H215 C225 0.929 . S
H216 C220 0.929 . S
H217 C226 0.929 . S
C218 H212 0.930 . S
C218 C219 1.367 . S
C218 C226 1.378 . S
C219 C218 1.367 . S
C219 C227 1.433 . S
C220 H216 0.929 . S
C220 C222 1.378 . S
C220 C224 1.350 . S
C221 C224 1.463 . S
C221 C226 1.350 . S
C221 N229 1.427 . S
C222 H213 0.930 . S
C222 C220 1.378 . S
C222 C223 1.367 . S
C223 C222 1.367 . S
C223 C225 1.433 . S
C224 C220 1.350 . S
C224 C221 1.463 . S
C224 N228 1.427 . S
C225 H215 0.929 . S
C225 C223 1.433 . S
C225 N228 1.384 . S
C226 H217 0.929 . S
C226 C218 1.378 . S
C226 C221 1.350 . S
C227 H214 0.929 . S
C227 C219 1.433 . S
C227 N229 1.384 . S
N228 C224 1.427 . S
N228 C225 1.384 . S
N229 C221 1.427 . S
N229 C227 1.384 . S
H230 C236 0.930 . S
H231 C240 0.930 . S
H232 C245 0.929 . S
H233 C243 0.929 . S
H234 C238 0.929 . S
H235 C244 0.929 . S
C236 H230 0.930 . S
C236 C237 1.367 1_545 S
C236 C244 1.378 . S
C237 C236 1.367 1_565 S
C237 C245 1.433 . S
C238 H234 0.929 . S
C238 C240 1.378 . S
C238 C242 1.350 1_565 S
C239 C242 1.463 . S
C239 C244 1.350 . S
C239 N247 1.427 1_545 S
C240 H231 0.930 . S
C240 C238 1.378 . S
C240 C241 1.367 1_565 S
C241 C240 1.367 1_545 S
C241 C243 1.433 . S
C242 C238 1.350 1_545 S
C242 C239 1.463 . S
C242 N246 1.427 . S
C243 H233 0.929 . S
C243 C241 1.433 . S
C243 N246 1.384 . S
C244 H235 0.929 . S
C244 C236 1.378 . S
C244 C239 1.350 . S
C245 H232 0.929 . S
C245 C237 1.433 . S
C245 N247 1.384 . S
N246 C242 1.427 . S
N246 C243 1.384 . S
N247 C239 1.427 1_565 S
N247 C245 1.384 . S
H248 C254 0.930 . S
H249 C258 0.930 . S
H250 C263 0.929 . S
H251 C261 0.929 . S
H252 C256 0.929 . S
H253 C262 0.929 . S
C254 H248 0.930 . S
C254 C255 1.367 1_545 S
C254 C262 1.378 . S
C255 C254 1.367 1_565 S
C255 C263 1.433 1_455 S
C256 H252 0.929 . S
C256 C258 1.378 . S
C256 C260 1.350 1_665 S
C257 C260 1.463 . S
C257 C262 1.350 . S
C257 N265 1.427 1_445 S
C258 H249 0.930 . S
C258 C256 1.378 . S
C258 C259 1.367 1_565 S
C259 C258 1.367 1_545 S
C259 C261 1.433 1_655 S
C260 C256 1.350 1_445 S
C260 C257 1.463 . S
C260 N264 1.427 . S
C261 H251 0.929 . S
C261 C259 1.433 1_455 S
C261 N264 1.384 . S
C262 H253 0.929 . S
C262 C254 1.378 . S
C262 C257 1.350 . S
C263 H250 0.929 . S
C263 C255 1.433 1_655 S
C263 N265 1.384 . S
N264 C260 1.427 . S
N264 C261 1.384 . S
N265 C257 1.427 1_665 S
N265 C263 1.384 . S
H266 C272 0.930 . S
H267 C276 0.930 . S
H268 C281 0.929 . S
H269 C279 0.929 . S
H270 C274 0.929 . S
H271 C280 0.929 . S
C272 H266 0.930 . S
C272 C273 1.367 . S
C272 C280 1.378 . S
C273 C272 1.367 . S
C273 C281 1.433 . S
C274 H270 0.929 . S
C274 C276 1.378 . S
C274 C278 1.350 . S
C275 C278 1.463 . S
C275 C280 1.350 . S
C275 N283 1.427 . S
C276 H267 0.930 . S
C276 C274 1.378 . S
C276 C277 1.367 . S
C277 C276 1.367 . S
C277 C279 1.433 . S
C278 C274 1.350 . S
C278 C275 1.463 . S
C278 N282 1.427 . S
C279 H269 0.929 . S
C279 C277 1.433 . S
C279 N282 1.384 . S
C280 H271 0.929 . S
C280 C272 1.378 . S
C280 C275 1.350 . S
C281 H268 0.929 . S
C281 C273 1.433 . S
C281 N283 1.384 . S
N282 C278 1.427 . S
N282 C279 1.384 . S
N283 C275 1.427 . S
N283 C281 1.384 . S
H284 C290 0.930 . S
H285 C294 0.930 . S
H286 C299 0.929 . S
H287 C297 0.929 . S
H288 C292 0.929 . S
H289 C298 0.929 . S
C290 H284 0.930 . S
C290 C291 1.367 . S
C290 C298 1.378 . S
C291 C290 1.367 . S
C291 C299 1.433 . S
C292 H288 0.929 . S
C292 C294 1.378 . S
C292 C296 1.350 . S
C293 C296 1.463 . S
C293 C298 1.350 . S
C293 N301 1.427 . S
C294 H285 0.930 . S
C294 C292 1.378 . S
C294 C295 1.367 . S
C295 C294 1.367 . S
C295 C297 1.433 . S
C296 C292 1.350 . S
C296 C293 1.463 . S
C296 N300 1.427 . S
C297 H287 0.929 . S
C297 C295 1.433 . S
C297 N300 1.384 . S
C298 H289 0.929 . S
C298 C290 1.378 . S
C298 C293 1.350 . S
C299 H286 0.929 . S
C299 C291 1.433 . S
C299 N301 1.384 . S
N300 C296 1.427 . S
N300 C297 1.384 . S
N301 C293 1.427 . S
N301 C299 1.384 . S
C97 C81 1.324 . S
C93 C3 1.230 . S
C111 C4 1.448 1_556 S
C115 N68 1.520 . S
C129 C19 1.458 . S
C133 N79 1.535 . S
C147 C7 1.226 . S
C151 C70 1.331 . S
C165 C37 1.211 . S
C169 C59 1.333 . S
C183 C28 1.441 . S
C187 N46 1.522 1_655 S
C205 N57 1.541 . S
C201 C41 1.468 . S
C223 C48 1.332 . S
C219 C25 1.231 . S
C237 C20 1.357 . S
C241 C51 1.482 . S
C255 C16 1.395 1_455 S
C259 C62 1.525 . S
C277 C73 1.483 . S
C273 C40 1.361 . S
C291 C24 1.392 . S
C295 C84 1.525 . S
