# Generated by pormake.
# Topology csq, (4,8)-cn, num edge types: 1
# Building blocks:
#     Node 0, Type 0, BuildingBlock: KUFVIS_clean_linker_0, # of connection points: 4
#     Node 1, Type 0, BuildingBlock: KUFVIS_clean_linker_0, # of connection points: 4
#     Node 2, Type 0, BuildingBlock: KUFVIS_clean_linker_0, # of connection points: 4
#     Node 3, Type 0, BuildingBlock: KUFVIS_clean_linker_0, # of connection points: 4
#     Node 4, Type 0, BuildingBlock: KUFVIS_clean_linker_0, # of connection points: 4
#     Node 5, Type 0, BuildingBlock: KUFVIS_clean_linker_0, # of connection points: 4
#     Node 6, Type 1, BuildingBlock: TAGTUT_clean_sbu_3, # of connection points: 8
#     Node 7, Type 1, BuildingBlock: TAGTUT_clean_sbu_3, # of connection points: 8
#     Node 8, Type 1, BuildingBlock: TAGTUT_clean_sbu_3, # of connection points: 8
#     Edge 9, Type (0, 1), BuildingBlock: TEMPAE_clean_linker_10, # of connection points: 2
#     Edge 10, Type (0, 1), BuildingBlock: TEMPAE_clean_linker_10, # of connection points: 2
#     Edge 11, Type (0, 1), BuildingBlock: TEMPAE_clean_linker_10, # of connection points: 2
#     Edge 12, Type (0, 1), BuildingBlock: TEMPAE_clean_linker_10, # of connection points: 2
#     Edge 13, Type (0, 1), BuildingBlock: TEMPAE_clean_linker_10, # of connection points: 2
#     Edge 14, Type (0, 1), BuildingBlock: TEMPAE_clean_linker_10, # of connection points: 2
#     Edge 15, Type (0, 1), BuildingBlock: TEMPAE_clean_linker_10, # of connection points: 2
#     Edge 16, Type (0, 1), BuildingBlock: TEMPAE_clean_linker_10, # of connection points: 2
#     Edge 17, Type (0, 1), BuildingBlock: TEMPAE_clean_linker_10, # of connection points: 2
#     Edge 18, Type (0, 1), BuildingBlock: TEMPAE_clean_linker_10, # of connection points: 2
#     Edge 19, Type (0, 1), BuildingBlock: TEMPAE_clean_linker_10, # of connection points: 2
#     Edge 20, Type (0, 1), BuildingBlock: TEMPAE_clean_linker_10, # of connection points: 2
#     Edge 21, Type (0, 1), BuildingBlock: TEMPAE_clean_linker_10, # of connection points: 2
#     Edge 22, Type (0, 1), BuildingBlock: TEMPAE_clean_linker_10, # of connection points: 2
#     Edge 23, Type (0, 1), BuildingBlock: TEMPAE_clean_linker_10, # of connection points: 2
#     Edge 24, Type (0, 1), BuildingBlock: TEMPAE_clean_linker_10, # of connection points: 2
#     Edge 25, Type (0, 1), BuildingBlock: TEMPAE_clean_linker_10, # of connection points: 2
#     Edge 26, Type (0, 1), BuildingBlock: TEMPAE_clean_linker_10, # of connection points: 2
#     Edge 27, Type (0, 1), BuildingBlock: TEMPAE_clean_linker_10, # of connection points: 2
#     Edge 28, Type (0, 1), BuildingBlock: TEMPAE_clean_linker_10, # of connection points: 2
#     Edge 29, Type (0, 1), BuildingBlock: TEMPAE_clean_linker_10, # of connection points: 2
#     Edge 30, Type (0, 1), BuildingBlock: TEMPAE_clean_linker_10, # of connection points: 2
#     Edge 31, Type (0, 1), BuildingBlock: TEMPAE_clean_linker_10, # of connection points: 2
#     Edge 32, Type (0, 1), BuildingBlock: TEMPAE_clean_linker_10, # of connection points: 2
# Relax obj value: 0.036
# Max RMSD: 0.113
# Mean RMSD: 0.086
data_MOF--net-csq--node1-TAGTUT_clean_sbu_3--node2-KUFVIS_clean_linker_0--edge1-TEMPAE_clean_linker_10
_symmetry_space_group_name_H-M    P1
_symmetry_Int_Tables_number       1
_symmetry_cell_setting            triclinic
loop_
_symmetry_equiv_pos_as_xyz
'x, y, z'
_cell_length_a     55.108967
_cell_length_b     54.519342
_cell_length_c     18.075943
_cell_angle_alpha  92.477425
_cell_angle_beta   92.636114
_cell_angle_gamma 119.85907
loop_
_atom_site_label
_atom_site_type_symbol
_atom_site_fract_x
_atom_site_fract_y
_atom_site_fract_z
_atom_type_partial_charge
H0 H 0.34214 0.52628 0.18906 0.0
H1 H 0.26295 0.4985 0.27937 0.0
H2 H 0.2707 0.5069 0.0429 0.0
H3 H 0.22587 0.47328 0.03892 0.0
H4 H 0.15267 0.46974 0.1194 0.0
H5 H 0.23009 0.51247 0.25678 0.0
C6 C 0.32039 0.52114 0.18131 0.0
C7 C 0.30817 0.51737 0.10962 0.0
C8 C 0.30419 0.51411 0.24212 0.0
C9 C 0.2755 0.5052 0.23205 0.0
C10 C 0.26293 0.50352 0.16048 0.0
C11 C 0.27964 0.5092 0.09906 0.0
C12 C 0.23221 0.49406 0.14966 0.0
C13 C 0.21635 0.4787 0.08302 0.0
C14 C 0.18775 0.46987 0.07284 0.0
C15 C 0.17463 0.47591 0.1292 0.0
C16 C 0.1895 0.49091 0.19609 0.0
C17 C 0.21844 0.50032 0.20573 0.0
H18 H 0.68124 0.17568 0.10492 0.0
H19 H 0.76386 0.23341 0.20132 0.0
H20 H 0.73028 0.25463 0.00797 0.0
H21 H 0.77691 0.27623 0.98425 0.0
H22 H 0.85124 0.34334 0.1032 0.0
H23 H 0.78637 0.28181 0.22508 0.0
C24 C 0.70029 0.19617 0.10544 0.0
C25 C 0.703 0.21454 0.05091 0.0
C26 C 0.72193 0.20293 0.15928 0.0
C27 C 0.74703 0.22884 0.15991 0.0
C28 C 0.75058 0.24807 0.10544 0.0
C29 C 0.72825 0.2405 0.05055 0.0
C30 C 0.77787 0.27532 0.10473 0.0
C31 C 0.78851 0.28676 0.03681 0.0
C32 C 0.81496 0.31126 0.03633 0.0
C33 C 0.83079 0.32437 0.10346 0.0
C34 C 0.8207 0.31371 0.17106 0.0
C35 C 0.79412 0.28953 0.17202 0.0
H36 H 0.53863 0.85764 0.07757 0.0
H37 H 0.53769 0.7871 0.17586 0.0
H38 H 0.5328 0.79022 0.93639 0.0
H39 H 0.55242 0.76496 0.93366 0.0
H40 H 0.54534 0.69064 0.02114 0.0
H41 H 0.52452 0.74316 0.15489 0.0
C42 C 0.53723 0.83708 0.07209 0.0
C43 C 0.53618 0.8254 0.00116 0.0
C44 C 0.53637 0.82271 0.13529 0.0
C45 C 0.53686 0.79717 0.12654 0.0
C46 C 0.53636 0.78497 0.05509 0.0
C47 C 0.53488 0.79914 0.99241 0.0
C48 C 0.53817 0.75824 0.04591 0.0
C49 C 0.54691 0.75148 0.97929 0.0
C50 C 0.54913 0.72711 0.97056 0.0
C51 C 0.54384 0.70968 0.02904 0.0
C52 C 0.53563 0.71575 0.09623 0.0
C53 C 0.53196 0.73952 0.10366 0.0
H54 H 0.86648 0.55368 0.02631 0.0
H55 H 0.80954 0.5688 0.146 0.0
H56 H 0.77835 0.50395 0.96265 0.0
H57 H 0.74674 0.52149 0.9495 0.0
H58 H 0.68661 0.51958 0.09459 0.0
H59 H 0.76753 0.53877 0.18747 0.0
C60 C 0.84519 0.54915 0.03323 0.0
C61 C 0.82317 0.52744 0.9878 0.0
C62 C 0.84034 0.56359 0.0908 0.0
C63 C 0.81283 0.55714 0.10139 0.0
C64 C 0.78995 0.5359 0.05497 0.0
C65 C 0.79543 0.52096 -0.00232 0.0
C66 C 0.76071 0.52963 0.06697 0.0
C67 C 0.74097 0.52253 0.00556 0.0
C68 C 0.71431 0.51881 0.01599 0.0
C69 C 0.70698 0.52159 0.08734 0.0
C70 C 0.72616 0.52922 0.1488 0.0
C71 C 0.75292 0.53296 0.13906 0.0
H72 H 0.33427 0.86167 0.08702 0.0
H73 H 0.27852 0.79353 0.21306 0.0
H74 H 0.24748 0.81334 0.01266 0.0
H75 H 0.22112 0.7658 0.00071 0.0
H76 H 0.15454 0.71141 0.12829 0.0
H77 H 0.23322 0.77458 0.24085 0.0
C78 C 0.31349 0.84413 0.09433 0.0
C79 C 0.29159 0.83836 0.04193 0.0
C80 C 0.30894 0.82846 0.15673 0.0
C81 C 0.28171 0.80619 0.16611 0.0
C82 C 0.25907 0.7999 0.11391 0.0
C83 C 0.26433 0.81692 0.05279 0.0
C84 C 0.23034 0.77499 0.12031 0.0
C85 C 0.21323 0.76032 0.0549 0.0
C86 C 0.18597 0.73785 0.05833 0.0
C87 C 0.17577 0.72902 0.12707 0.0
C88 C 0.19312 0.74078 0.19316 0.0
C89 C 0.22014 0.76465 0.18985 0.0
H90 H 0.44531 0.30577 0.16634 0.0
H91 H 0.47251 0.25635 0.28228 0.0
H92 H 0.46304 0.24875 0.0415 0.0
H93 H 0.49525 0.23776 0.05026 0.0
H94 H 0.51329 0.18013 0.15831 0.0
H95 H 0.46882 0.2143 0.27147 0.0
C96 C 0.45054 0.28904 0.16394 0.0
C97 C 0.45402 0.27866 0.09534 0.0
C98 C 0.45626 0.28017 0.23064 0.0
C99 C 0.46615 0.26101 0.22969 0.0
C100 C 0.46892 0.24915 0.16194 0.0
C101 C 0.46201 0.25778 0.09479 0.0
C102 C 0.48087 0.22958 0.16174 0.0
C103 C 0.4939 0.22661 0.09925 0.0
C104 C 0.50504 0.20857 0.09791 0.0
C105 C 0.5051 0.19458 0.16066 0.0
C106 C 0.49248 0.19696 0.22386 0.0
C107 C 0.47968 0.21381 0.22359 0.0
C108 C 0.05399 0.50539 0.51796 0.0
C109 C 0.03674 0.45495 0.76666 0.0
C110 C 0.95478 0.44995 0.73845 0.0
Mg111 Mg 0.0262 0.54271 0.45313 0.0
Mg112 Mg 0.00812 0.57733 0.57401 0.0
O113 O 1.00357 0.5424 0.53698 0.0
Mg114 Mg 0.01307 0.52096 0.60721 0.0
O115 O 0.02283 0.49833 0.67307 0.0
Mg116 Mg 1.00302 0.46072 0.61362 0.0
Mg117 Mg 0.01499 0.49805 0.77272 0.0
C118 C 0.97045 0.53715 0.69372 0.0
O119 O 0.04347 0.56045 0.68444 0.0
O120 O 1.00231 0.56195 0.38784 0.0
O121 O 0.03756 0.54379 0.79816 0.0
O122 O 0.06222 0.58866 0.4864 0.0
O123 O 0.99062 0.5842 0.47555 0.0
O124 O 0.05157 0.61012 0.57683 0.0
O125 O 0.98324 0.48028 0.53708 0.0
O126 O 0.99016 0.49658 0.42445 0.0
C127 C 0.97772 0.47616 0.46655 0.0
C128 C 0.99105 0.57682 0.40764 0.0
O129 O 0.97773 0.51875 0.67607 0.0
O130 O 0.02657 0.44681 0.69873 0.0
O131 O 0.98183 0.56183 0.66808 0.0
O132 O 0.96384 0.44246 0.68284 0.0
O133 O 0.03417 0.47388 0.80438 0.0
O134 O 0.97053 0.47291 0.77849 0.0
O135 O 0.047 0.52425 0.53212 0.0
O136 O 0.04145 0.48112 0.54514 0.0
C137 C 0.06873 0.61007 0.53176 0.0
C138 C 0.04833 0.5643 0.75552 0.0
C139 C 0.50406 0.04686 0.48447 0.0
C140 C 0.59477 0.04183 0.42822 0.0
C141 C 0.5498 0.95942 0.51648 0.0
Mg142 Mg 0.46345 0.01922 0.61847 0.0
Mg143 Mg 0.48716 0.00481 0.77102 0.0
O144 O 0.48023 0.9981 0.6678 0.0
Mg145 Mg 0.51375 0.01062 0.60992 0.0
O146 O 0.54584 0.02317 0.54754 0.0
Mg147 Mg 0.52525 1.00135 0.45206 0.0
Mg148 Mg 0.57666 0.01996 0.58396 0.0
C149 C 0.52049 0.97259 0.74098 0.0
O150 O 0.5447 0.04573 0.69607 0.0
O151 O 0.42528 0.99423 0.69258 0.0
O152 O 0.58515 0.04507 0.68952 0.0
O153 O 0.48482 0.05782 0.70638 0.0
O154 O 0.44439 0.98661 0.79568 0.0
O155 O 0.50778 0.04923 0.79722 0.0
O156 O 0.48514 0.97747 0.51803 0.0
O157 O 0.44711 0.98215 0.52879 0.0
C158 C 0.45977 0.97052 0.49739 0.0
C159 C 0.4232 0.98433 0.75701 0.0
O160 O 0.52292 0.9791 0.67296 0.0
O161 O 0.56886 0.02904 0.40182 0.0
O162 O 0.50958 0.98204 0.7874 0.0
O163 O 0.53618 0.96644 0.47138 0.0
O164 O 0.60197 0.04072 0.49583 0.0
O165 O 0.56603 0.97618 0.5708 0.0
O166 O 0.50275 0.0409 0.55256 0.0
O167 O 0.51323 0.03572 0.43758 0.0
C168 C 0.50163 0.06595 0.76507 0.0
C169 C 0.57038 0.05472 0.71843 0.0
C170 C 0.52645 0.5616 0.72032 0.0
C171 C 0.4409 0.48185 0.82982 0.0
C172 C 0.47298 0.42606 0.75725 0.0
Mg173 Mg 0.55776 0.56054 0.5735 0.0
Mg174 Mg 0.52342 0.51412 0.43143 0.0
O175 O 0.53359 0.52006 0.53348 0.0
Mg176 Mg 0.50531 0.50499 0.60971 0.0
O177 O 0.47956 0.49195 0.69061 0.0
Mg178 Mg 0.50537 0.49862 0.77965 0.0
Mg179 Mg 0.4468 0.45643 0.6789 0.0
C180 C 0.48677 0.45157 0.48591 0.0
O181 O 0.46824 0.50329 0.53858 0.0
O182 O 0.59023 0.56292 0.4902 0.0
O183 O 0.43165 0.46272 0.57303 0.0
O184 O 0.53783 0.57741 0.48807 0.0
O185 O 0.56533 0.52945 0.39723 0.0
O186 O 0.50944 0.54328 0.40185 0.0
O187 O 0.53809 0.50389 0.69202 0.0
O188 O 0.5756 0.54241 0.65675 0.0
C189 C 0.56463 0.52108 0.69623 0.0
C190 C 0.58878 0.54888 0.42939 0.0
O191 O 0.48999 0.46032 0.5549 0.0
O192 O 0.46756 0.49397 0.84733 0.0
O193 O 0.49546 0.46854 0.43348 0.0
O194 O 0.49054 0.45086 0.78676 0.0
O195 O 0.42917 0.46605 0.76983 0.0
O196 O 0.45467 0.42255 0.70565 0.0
O197 O 0.52281 0.55138 0.65316 0.0
O198 O 0.52037 0.54549 0.77387 0.0
C199 C 0.52023 0.56864 0.43093 0.0
C200 C 0.44197 0.48427 0.53373 0.0
C201 C 0.1847 0.52391 0.28935 0.0
C202 C 0.17404 0.49676 0.25355 0.0
C203 C 0.16825 0.52999 0.33615 0.0
C204 C 0.14047 0.5085 0.34668 0.0
C205 C 0.13 0.48092 0.3122 0.0
C206 C 0.14696 0.47536 0.26706 0.0
C207 C 0.18036 0.55948 0.3732 0.0
C208 C 0.10059 0.45726 0.32189 0.0
C209 C 0.09893 0.50581 0.51007 0.0
C210 C 0.07919 0.51214 0.47834 0.0
C211 C 0.12063 0.50707 0.46982 0.0
C212 C 0.12219 0.51407 0.39505 0.0
C213 C 0.10328 0.52217 0.36412 0.0
C214 C 0.08208 0.52139 0.40658 0.0
C215 C 0.14061 0.49892 0.50582 0.0
C216 C 0.10401 0.52949 0.28443 0.0
H217 H 0.2055 0.54061 0.27888 0.0
H218 H 0.13874 0.45419 0.24077 0.0
H219 H 0.16831 0.56939 0.35208 0.0
H220 H 0.17848 0.5585 0.434 0.0
H221 H 0.20279 0.5733 0.36308 0.0
H222 H 0.09535 0.43726 0.28933 0.0
H223 H 0.0982 0.45299 0.38133 0.0
H224 H 0.08512 0.46365 0.30418 0.0
H225 H 0.0968 0.49887 0.56596 0.0
H226 H 0.06672 0.52615 0.38203 0.0
H227 H 0.16252 0.51389 0.49365 0.0
H228 H 0.13531 0.47748 0.48284 0.0
H229 H 0.13953 0.49855 0.56702 0.0
H230 H 0.12579 0.54465 0.27175 0.0
H231 H 0.09054 0.53883 0.2717 0.0
H232 H 0.09652 0.50998 0.24712 0.0
C233 C 0.70584 0.1839 0.28002 0.0
C234 C 0.71673 0.18172 0.21332 0.0
C235 C 0.68929 0.15964 0.31739 0.0
C236 C 0.68358 0.13273 0.28681 0.0
C237 C 0.69701 0.13095 0.22363 0.0
C238 C 0.71346 0.15555 0.1875 0.0
C239 C 0.67566 0.1625 0.38528 0.0
C240 C 0.69177 0.10279 0.18965 0.0
C241 C 0.64558 0.0715 0.40739 0.0
C242 C 0.61736 0.06131 0.38294 0.0
C243 C 0.6675 0.09392 0.3745 0.0
C244 C 0.6611 0.10651 0.31572 0.0
C245 C 0.6328 0.09517 0.28753 0.0
C246 C 0.61124 0.07262 0.32141 0.0
C247 C 0.69738 0.1051 0.40534 0.0
C248 C 0.62517 0.10785 0.22411 0.0
H249 H 0.70792 0.20407 0.29892 0.0
H250 H 0.72148 0.15389 0.13496 0.0
H251 H 0.65291 0.15376 0.37085 0.0
H252 H 0.67776 0.15018 0.42987 0.0
H253 H 0.68492 0.18496 0.4072 0.0
H254 H 0.70758 0.10548 0.14998 0.0
H255 H 0.69203 0.08917 0.23316 0.0
H256 H 0.6707 0.09147 0.15914 0.0
H257 H 0.65058 0.06267 0.45439 0.0
H258 H 0.58955 0.06493 0.3022 0.0
H259 H 0.7055 0.12635 0.43458 0.0
H260 H 0.71109 0.10765 0.35979 0.0
H261 H 0.6991 0.09095 0.44507 0.0
H262 H 0.63055 0.12985 0.24163 0.0
H263 H 0.60247 0.09545 0.20554 0.0
H264 H 0.63744 0.10898 0.17611 0.0
C265 C 0.50692 0.68585 0.19646 0.0
C266 C 0.53118 0.69679 0.15743 0.0
C267 C 0.50145 0.66527 0.24781 0.0
C268 C 0.52063 0.65538 0.25992 0.0
C269 C 0.54561 0.6672 0.22262 0.0
C270 C 0.55063 0.68781 0.17249 0.0
C271 C 0.47478 0.65345 0.2872 0.0
C272 C 0.56675 0.65745 0.2338 0.0
C273 C 0.52623 0.61728 0.42486 0.0
C274 C 0.51497 0.58944 0.39295 0.0
C275 C 0.52612 0.63861 0.38408 0.0
C276 C 0.51467 0.63206 0.30937 0.0
C277 C 0.50125 0.60356 0.2789 0.0
C278 C 0.50145 0.58259 0.32113 0.0
C279 C 0.54012 0.66857 0.41928 0.0
C280 C 0.48866 0.59556 0.1996 0.0
H281 H 0.49174 0.69258 0.18486 0.0
H282 H 0.56966 0.69655 0.14351 0.0
H283 H 0.46049 0.631 0.26661 0.0
H284 H 0.4794 0.65379 0.34775 0.0
H285 H 0.46366 0.6655 0.27818 0.0
H286 H 0.58533 0.66914 0.20144 0.0
H287 H 0.57406 0.6604 0.29343 0.0
H288 H 0.55676 0.63448 0.21666 0.0
H289 H 0.53633 0.62279 0.48072 0.0
H290 H 0.49241 0.56113 0.29605 0.0
H291 H 0.52726 0.67855 0.40647 0.0
H292 H 0.56072 0.68145 0.39622 0.0
H293 H 0.5437 0.66939 0.4805 0.0
H294 H 0.47544 0.60517 0.18729 0.0
H295 H 0.47569 0.5722 0.18757 0.0
H296 H 0.50576 0.6039 0.1614 0.0
C297 C 0.89029 0.60017 0.12219 0.0
C298 C 0.864 0.58106 0.14636 0.0
C299 C 0.91505 0.6068 0.16433 0.0
C300 C 0.91318 0.59417 0.23207 0.0
C301 C 0.88675 0.57832 0.26147 0.0
C302 C 0.86234 0.57202 0.21811 0.0
C303 C 0.94284 0.62446 0.132 0.0
C304 C 0.88394 0.56505 0.33451 0.0
C305 C 0.96135 0.56644 0.28922 0.0
C306 C 0.9762 0.58466 0.35207 0.0
C307 C 0.94197 0.5705 0.24618 0.0
C308 C 0.93774 0.59347 0.26648 0.0
C309 C 0.95471 0.61344 0.32547 0.0
C310 C 0.97366 0.6087 0.36788 0.0
C311 C 0.92448 0.54897 0.18258 0.0
C312 C 0.95139 0.63858 0.34749 0.0
H313 H 0.89148 0.60732 0.06671 0.0
H314 H 0.84203 0.55725 0.23679 0.0
H315 H 0.95959 0.63794 0.17597 0.0
H316 H 0.94907 0.61018 0.10379 0.0
H317 H 0.94148 0.63823 0.09039 0.0
H318 H 0.86256 0.55662 0.35388 0.0
H319 H 0.88827 0.54728 0.32794 0.0
H320 H 0.89942 0.58069 0.37801 0.0
H321 H 0.96336 0.54792 0.27685 0.0
H322 H 0.98557 0.62316 0.41582 0.0
H323 H 0.92472 0.55978 0.13177 0.0
H324 H 0.90235 0.53667 0.19675 0.0
H325 H 0.93204 0.5339 0.16992 0.0
H326 H 0.94863 0.64845 0.2978 0.0
H327 H 0.96973 0.65493 0.38363 0.0
H328 H 0.93236 0.63139 0.37849 0.0
C329 C 0.35988 0.84681 0.19074 0.0
C330 C 0.3328 0.83753 0.21346 0.0
C331 C 0.38374 0.86444 0.23851 0.0
C332 C 0.38033 0.87221 0.31126 0.0
C333 C 0.3532 0.8593 0.33781 0.0
C334 C 0.32962 0.84228 0.28825 0.0
C335 C 0.41225 0.87744 0.20802 0.0
C336 C 0.34884 0.866 0.41627 0.0
C337 C 0.44306 0.92095 0.44669 0.0
C338 C 0.44322 0.94662 0.44177 0.0
C339 C 0.42319 0.89641 0.40316 0.0
C340 C 0.40361 0.89799 0.35285 0.0
C341 C 0.40517 0.92446 0.34432 0.0
C342 C 0.42465 0.94832 0.38981 0.0
C343 C 0.42209 0.86866 0.41496 0.0
C344 C 0.38545 0.92741 0.28927 0.0
H345 H 0.36243 0.84241 0.13343 0.0
H346 H 0.30879 0.83491 0.30653 0.0
H347 H 0.41879 0.89946 0.19453 0.0
H348 H 0.42827 0.87855 0.24959 0.0
H349 H 0.41199 0.86535 0.15663 0.0
H350 H 0.32773 0.85031 0.43255 0.0
H351 H 0.36503 0.8664 0.456 0.0
H352 H 0.35087 0.88731 0.42087 0.0
H353 H 0.45728 0.91963 0.48773 0.0
H354 H 0.42495 0.96827 0.38605 0.0
H355 H 0.41651 0.85519 0.36223 0.0
H356 H 0.40568 0.85679 0.45333 0.0
H357 H 0.44243 0.87207 0.44008 0.0
H358 H 0.38543 0.91809 0.23345 0.0
H359 H 0.39123 0.94991 0.28464 0.0
H360 H 0.36373 0.91569 0.30672 0.0
C361 C 0.43115 0.29426 0.31833 0.0
C362 C 0.45586 0.29478 0.30058 0.0
C363 C 0.43217 0.31497 0.36914 0.0
C364 C 0.45856 0.33705 0.39984 0.0
C365 C 0.483 0.33529 0.38975 0.0
C366 C 0.48133 0.31397 0.34009 0.0
C367 C 0.40549 0.31512 0.38323 0.0
C368 C 0.51142 0.35798 0.42371 0.0
C369 C 0.4715 0.41148 0.39025 0.0
C370 C 0.47518 0.42097 0.46541 0.0
C371 C 0.46511 0.38388 0.36876 0.0
C372 C 0.46176 0.36493 0.42382 0.0
C373 C 0.46375 0.37372 0.49979 0.0
C374 C 0.4704 0.40171 0.51974 0.0
C375 C 0.46344 0.37557 0.28689 0.0
C376 C 0.45923 0.35401 0.56043 0.0
H377 H 0.41139 0.27905 0.28824 0.0
H378 H 0.50037 0.31415 0.3264 0.0
H379 H 0.40588 0.32207 0.44215 0.0
H380 H 0.40357 0.33033 0.348 0.0
H381 H 0.38669 0.29383 0.36981 0.0
H382 H 0.5275 0.35146 0.41942 0.0
H383 H 0.51832 0.37763 0.39452 0.0
H384 H 0.51028 0.36308 0.48309 0.0
H385 H 0.47473 0.42601 0.34771 0.0
H386 H 0.47287 0.40871 0.578 0.0
H387 H 0.44256 0.35698 0.26932 0.0
H388 H 0.47945 0.36942 0.27623 0.0
H389 H 0.46691 0.39302 0.25147 0.0
H390 H 0.43704 0.34416 0.57425 0.0
H391 H 0.47275 0.36589 0.61158 0.0
H392 H 0.46345 0.33674 0.54394 0.0
C393 C 0.51091 0.83764 0.90557 0.0
C394 C 0.5363 0.84145 0.9373 0.0
C395 C 0.51048 0.8578 0.86049 0.0
C396 C 0.53604 0.88238 0.84783 0.0
C397 C 0.56182 0.88484 0.8741 0.0
C398 C 0.56164 0.86443 0.91929 0.0
C399 C 0.48261 0.85398 0.83146 0.0
C400 C 0.58948 0.91011 0.85912 0.0
C401 C 0.53102 0.93304 0.71667 0.0
C402 C 0.52838 0.9518 0.76691 0.0
C403 C 0.53476 0.91094 0.74176 0.0
C404 C 0.53551 0.90734 0.81889 0.0
C405 C 0.53411 0.927 0.86983 0.0
C406 C 0.53068 0.94894 0.8433 0.0
C407 C 0.53663 0.89103 0.68474 0.0
C408 C 0.53509 0.92423 0.95263 0.0
H409 H 0.49135 0.81994 0.9202 0.0
H410 H 0.58125 0.86737 0.94441 0.0
H411 H 0.47872 0.86975 0.86144 0.0
H412 H 0.48293 0.8578 0.77159 0.0
H413 H 0.46495 0.83239 0.83877 0.0
H414 H 0.60747 0.90697 0.87409 0.0
H415 H 0.58956 0.91431 0.79954 0.0
H416 H 0.59247 0.92921 0.89201 0.0
H417 H 0.52901 0.93482 0.65759 0.0
H418 H 0.52898 0.96346 0.88277 0.0
H419 H 0.51544 0.87673 0.65674 0.0
H420 H 0.54471 0.87789 0.7089 0.0
H421 H 0.55053 0.90327 0.64154 0.0
H422 H 0.51677 0.90395 0.96585 0.0
H423 H 0.53483 0.9419 0.9849 0.0
H424 H 0.5543 0.92377 0.97139 0.0
C425 C 0.69126 0.53974 0.94367 0.0
C426 C 0.69501 0.51651 0.95364 0.0
C427 C 0.66878 0.53694 0.89782 0.0
C428 C 0.64974 0.51026 0.86045 0.0
C429 C 0.65422 0.48699 0.86752 0.0
C430 C 0.67683 0.49035 0.91484 0.0
C431 C 0.66483 0.56232 0.89179 0.0
C432 C 0.63458 0.4584 0.82745 0.0
C433 C 0.57934 0.50377 0.80632 0.0
C434 C 0.58397 0.51391 0.73563 0.0
C435 C 0.6 0.50066 0.84652 0.0
C436 C 0.62535 0.50729 0.8141 0.0
C437 C 0.62893 0.51527 0.74033 0.0
C438 C 0.60833 0.51877 0.70234 0.0
C439 C 0.59555 0.49226 0.92534 0.0
C440 C 0.6553 0.52192 0.7031 0.0
H441 H 0.70523 0.55981 0.97495 0.0
H442 H 0.67958 0.47233 0.92406 0.0
H443 H 0.66468 0.56722 0.83291 0.0
H444 H 0.64427 0.55748 0.9118 0.0
H445 H 0.6816 0.58153 0.92456 0.0
H446 H 0.64252 0.44335 0.83306 0.0
H447 H 0.61374 0.44914 0.85035 0.0
H448 H 0.63147 0.46064 0.76757 0.0
H449 H 0.56037 0.49981 0.8316 0.0
H450 H 0.6116 0.52598 0.64674 0.0
H451 H 0.6096 0.51092 0.96422 0.0
H452 H 0.60101 0.47558 0.9349 0.0
H453 H 0.57353 0.48437 0.93896 0.0
H454 H 0.673 0.54234 0.72824 0.0
H455 H 0.65302 0.52371 0.64247 0.0
H456 H 0.66096 0.50531 0.71171 0.0
C457 C 0.14288 0.7172 0.97193 0.0
C458 C 0.16915 0.72018 0.9912 0.0
C459 C 0.12354 0.69501 0.92132 0.0
C460 C 0.13043 0.67494 0.89203 0.0
C461 C 0.1578 0.67929 0.90693 0.0
C462 C 0.17699 0.70211 0.95608 0.0
C463 C 0.09509 0.69187 0.90326 0.0
C464 C 0.16598 0.65845 0.87638 0.0
C465 C 0.07202 0.59833 0.86736 0.0
C466 C 0.06805 0.59323 0.78983 0.0
C467 C 0.09204 0.62497 0.90094 0.0
C468 C 0.10801 0.64737 0.85597 0.0
C469 C 0.10346 0.64271 0.77774 0.0
C470 C 0.08401 0.61552 0.74576 0.0
C471 C 0.0967 0.62886 0.98471 0.0
C472 C 0.11961 0.66587 0.72712 0.0
H473 H 0.13697 0.7313 -0.00056 0.0
H474 H 0.1973 0.70442 0.97183 0.0
H475 H 0.08906 0.68668 0.84275 0.0
H476 H 0.07908 0.67414 0.93255 0.0
H477 H 0.09466 0.71147 0.92033 0.0
H478 H 0.18862 0.66592 0.8891 0.0
H479 H 0.15349 0.63778 0.90059 0.0
H480 H 0.16126 0.65472 0.8153 0.0
H481 H 0.05993 0.58129 0.90214 0.0
H482 H 0.08192 0.61163 0.68615 0.0
H483 H 0.09285 0.6459 0.00605 0.0
H484 H 0.11885 0.63548 0.00187 0.0
H485 H 0.0828 0.60918 0.01153 0.0
H486 H 0.12669 0.68731 0.75383 0.0
H487 H 0.10662 0.6629 0.67503 0.0
H488 H 0.13836 0.66488 0.71157 0.0
C489 C 0.53811 0.20676 0.01074 0.0
C490 C 0.51076 0.19904 0.02704 0.0
C491 C 0.5427 0.19194 0.95262 0.0
C492 C 0.51937 0.16811 0.91391 0.0
C493 C 0.49179 0.16207 0.92626 0.0
C494 C 0.48789 0.17796 0.98222 0.0
C495 C 0.57233 0.20042 0.93629 0.0
C496 C 0.46625 0.13692 0.88621 0.0
C497 C 0.51413 0.11665 0.75943 0.0
C498 C 0.51224 0.09465 0.80058 0.0
C499 C 0.52006 0.14262 0.7952 0.0
C500 C 0.5229 0.14595 0.87377 0.0
C501 C 0.5233 0.12459 0.91495 0.0
C502 C 0.51848 0.09941 0.87758 0.0
C503 C 0.52141 0.16549 0.74864 0.0
C504 C 0.52577 0.12689 -0.00104 0.0
H505 H 0.55574 0.22333 0.04548 0.0
H506 H 0.46679 0.17221 0.99548 0.0
H507 H 0.57851 0.18609 0.96218 0.0
H508 H 0.57391 0.19855 0.87552 0.0
H509 H 0.58746 0.2225 0.95855 0.0
H510 H 0.44638 0.13592 0.9004 0.0
H511 H 0.46749 0.13789 0.82531 0.0
H512 H 0.46542 0.11698 0.90103 0.0
H513 H 0.51027 0.11336 0.69951 0.0
H514 H 0.51742 0.08256 0.90949 0.0
H515 H 0.53311 0.18681 0.77885 0.0
H516 H 0.49979 0.16083 0.73228 0.0
H517 H 0.53159 0.16586 0.69674 0.0
H518 H 0.54416 0.14733 0.02093 0.0
H519 H 0.52789 0.10943 0.02208 0.0
H520 H 0.50679 0.1262 0.01965 0.0
C521 C 0.35094 0.53928 0.03939 0.0
C522 C 0.3245 0.51594 0.04868 0.0
C523 C 0.37092 0.5359 0.00159 0.0
C524 C 0.36445 0.50841 0.97412 0.0
C525 C 0.33722 0.48505 0.97997 0.0
C526 C 0.31747 0.48917 0.01659 0.0
C527 C 0.3994 0.56148 0.99452 0.0
C528 C 0.32951 0.45538 0.95182 0.0
C529 C 0.4055 0.49699 0.82788 0.0
C530 C 0.42332 0.49051 0.87015 0.0
C531 C 0.38713 0.50396 0.86132 0.0
C532 C 0.38601 0.5039 0.93918 0.0
C533 C 0.40449 0.49813 0.98274 0.0
C534 C 0.42331 0.49184 0.94759 0.0
C535 C 0.36848 0.51077 0.81296 0.0
C536 C 0.40371 0.49769 0.06604 0.0
H537 H 0.35654 0.55985 0.06575 0.0
H538 H 0.29732 0.47102 0.02568 0.0
H539 H 0.41545 0.56002 0.03036 0.0
H540 H 0.40535 0.56217 0.93651 0.0
H541 H 0.39998 0.58164 0.01115 0.0
H542 H 0.30727 0.43963 0.95915 0.0
H543 H 0.33307 0.45474 0.89205 0.0
H544 H 0.34318 0.44893 0.98205 0.0
H545 H 0.40589 0.49656 0.76789 0.0
H546 H 0.43717 0.48697 0.98019 0.0
H547 H 0.3703 0.53109 0.83404 0.0
H548 H 0.34623 0.494 0.81484 0.0
H549 H 0.37374 0.51238 0.75411 0.0
H550 H 0.40715 0.51827 0.09067 0.0
H551 H 0.4198 0.49347 0.09205 0.0
H552 H 0.38268 0.48105 0.08019 0.0
C553 C 0.81568 0.33678 0.92389 0.0
C554 C 0.82731 0.32391 0.96715 0.0
C555 C 0.83144 0.35581 0.87167 0.0
C556 C 0.85941 0.36216 0.86374 0.0
C557 C 0.87019 0.34724 0.90297 0.0
C558 C 0.85392 0.32821 0.95385 0.0
C559 C 0.81888 0.3706 0.8294 0.0
C560 C 0.89989 0.3533 0.89658 0.0
C561 C 0.90886 0.40415 0.7206 0.0
C562 C 0.92659 0.42992 0.76235 0.0
C563 C 0.88497 0.38259 0.75002 0.0
C564 C 0.87899 0.38679 0.82323 0.0
C565 C 0.89526 0.41372 0.8627 0.0
C566 C 0.91867 0.43505 0.83143 0.0
C567 C 0.86746 0.35461 0.70498 0.0
C568 C 0.88937 0.41928 0.94059 0.0
H569 H 0.79513 0.33356 0.93458 0.0
H570 H 0.86283 0.3182 0.9875 0.0
H571 H 0.82587 0.39169 0.85821 0.0
H572 H 0.82585 0.37401 0.77225 0.0
H573 H 0.79557 0.35832 0.82619 0.0
H574 H 0.9043 0.33843 0.92667 0.0
H575 H 0.90393 0.35183 0.83749 0.0
H576 H 0.91487 0.37524 0.91999 0.0
H577 H 0.91439 0.40021 0.66642 0.0
H578 H 0.9318 0.45513 0.86346 0.0
H579 H 0.8448 0.34605 0.7118 0.0
H580 H 0.87309 0.33898 0.72481 0.0
H581 H 0.87097 0.3566 0.64501 0.0
H582 H 0.86754 0.41513 0.94112 0.0
H583 H 0.90389 0.44142 0.96351 0.0
H584 H 0.89144 0.4047 0.978 0.0
C585 C 0.84649 0.49967 0.96121 0.0
C586 C 0.83112 0.51197 0.93351 0.0
C587 C 0.86645 0.49777 0.91956 0.0
C588 C 0.8703 0.50737 0.84719 0.0
C589 C 0.85166 0.51555 0.81498 0.0
C590 C 0.83253 0.51821 0.85901 0.0
C591 C 0.88586 0.48934 0.95767 0.0
C592 C 0.85401 0.52449 0.73663 0.0
C593 C 0.9443 0.54903 0.78481 0.0
C594 C 0.94609 0.52869 0.73904 0.0
C595 C 0.92013 0.54195 0.82223 0.0
C596 C 0.89665 0.51407 0.81144 0.0
C597 C 0.89854 0.49325 0.76645 0.0
C598 C 0.9234 0.50072 0.7316 0.0
C599 C 0.91965 0.56449 0.87279 0.0
C600 C 0.87407 0.46336 0.75332 0.0
H601 H 0.84558 0.49504 0.01913 0.0
H602 H 0.82084 0.52786 0.83747 0.0
H603 H 0.89402 0.4797 0.91794 0.0
H604 H 0.90407 0.50858 0.98633 0.0
H605 H 0.87513 0.47417 0.00021 0.0
H606 H 0.83482 0.52448 0.71488 0.0
H607 H 0.87214 0.54627 0.73552 0.0
H608 H 0.8577 0.5102 0.69914 0.0
H609 H 0.96184 0.57058 0.79117 0.0
H610 H 0.92457 0.48494 0.69576 0.0
H611 H 0.91346 0.55656 0.92832 0.0
H612 H 0.90385 0.56961 0.84964 0.0
H613 H 0.94035 0.58434 0.87995 0.0
H614 H 0.8677 0.45371 0.80692 0.0
H615 H 0.87903 0.44957 0.71764 0.0
H616 H 0.85577 0.46375 0.72638 0.0
C617 C 0.29068 0.87549 0.9666 0.0
C618 C 0.29854 0.85494 0.9756 0.0
C619 C 0.30424 0.8969 0.91758 0.0
C620 C 0.32631 0.89781 0.87817 0.0
C621 C 0.33201 0.87522 0.88147 0.0
C622 C 0.31801 0.85407 0.93008 0.0
C623 C 0.29673 0.91991 0.91347 0.0
C624 C 0.35518 0.87506 0.84036 0.0
C625 C 0.3712 0.94965 0.74096 0.0
C626 C 0.3955 0.96742 0.78732 0.0
C627 C 0.34702 0.92828 0.77047 0.0
C628 C 0.34745 0.92459 0.84764 0.0
C629 C 0.37098 0.94438 0.8951 0.0
C630 C 0.39455 0.96557 0.86438 0.0
C631 C 0.322 0.90834 0.71825 0.0
C632 C 0.3725 0.94156 0.9778 0.0
H633 H 0.2756 0.87615 0.00189 0.0
H634 H 0.32395 0.83804 0.93706 0.0
H635 H 0.31148 0.93835 0.95202 0.0
H636 H 0.29846 0.92727 0.85665 0.0
H637 H 0.2751 0.9125 0.92981 0.0
H638 H 0.3547 0.85446 0.84182 0.0
H639 H 0.35359 0.87943 0.78157 0.0
H640 H 0.37582 0.89203 0.86609 0.0
H641 H 0.3717 0.95104 0.68135 0.0
H642 H 0.41308 0.97962 0.90067 0.0
H643 H 0.30208 0.90138 0.74494 0.0
H644 H 0.32336 0.88919 0.70255 0.0
H645 H 0.32139 0.91839 0.66656 0.0
H646 H 0.3535 0.9395 0.00197 0.0
H647 H 0.39125 0.96 0.0075 0.0
H648 H 0.37338 0.92209 0.9882 0.0
C649 C 0.43354 0.30244 0.01845 0.0
C650 C 0.45251 0.2924 0.02647 0.0
C651 C 0.43615 0.32121 0.96441 0.0
C652 C 0.45769 0.32952 0.91505 0.0
C653 C 0.47508 0.31722 0.91778 0.0
C654 C 0.47252 0.2991 0.97391 0.0
C655 C 0.41723 0.33387 0.96422 0.0
C656 C 0.49766 0.32467 0.86467 0.0
C657 C 0.45348 0.37323 0.76045 0.0
C658 C 0.47185 0.40103 0.79087 0.0
C659 C 0.44989 0.34959 0.79781 0.0
C660 C 0.46428 0.35382 0.86843 0.0
C661 C 0.48359 0.38181 0.89799 0.0
C662 C 0.48739 0.40494 0.85853 0.0
C663 C 0.42997 0.32013 0.76292 0.0
C664 C 0.49916 0.38749 0.97344 0.0
H665 H 0.41745 0.2968 0.05714 0.0
H666 H 0.48738 0.29162 0.97912 0.0
H667 H 0.42982 0.35682 0.98216 0.0
H668 H 0.40769 0.33195 0.90739 0.0
H669 H 0.40015 0.32358 0.00202 0.0
H670 H 0.50531 0.30928 0.86366 0.0
H671 H 0.48985 0.32535 0.80753 0.0
H672 H 0.51572 0.34604 0.88197 0.0
H673 H 0.44137 0.3699 0.70828 0.0
H674 H 0.50167 0.42623 0.88286 0.0
H675 H 0.41068 0.31026 0.79326 0.0
H676 H 0.43963 0.30654 0.76686 0.0
H677 H 0.42385 0.32033 0.70362 0.0
H678 H 0.48393 0.37949 0.01672 0.0
H679 H 0.51406 0.41043 0.98757 0.0
H680 H 0.51107 0.37604 0.97554 0.0
C681 C 0.17407 0.47501 0.94515 0.0
C682 C 0.17126 0.45706 0.00114 0.0
C683 C 0.15176 0.46766 0.89186 0.0
C684 C 0.12635 0.44164 0.89474 0.0
C685 C 0.12533 0.42162 0.94362 0.0
C686 C 0.14769 0.42979 -0.00252 0.0
C687 C 0.15398 0.48949 0.83987 0.0
C688 C 0.09927 0.39302 0.94546 0.0
C689 C 0.0638 0.45232 0.87695 0.0
C690 C 0.05521 0.44529 0.80106 0.0
C691 C 0.08602 0.44981 0.90852 0.0
C692 C 0.09971 0.43927 0.86355 0.0
C693 C 0.08944 0.42952 0.78857 0.0
C694 C 0.06741 0.4329 0.75785 0.0
C695 C 0.09605 0.46039 0.98902 0.0
C696 C 0.1026 0.4171 0.73931 0.0
H697 H 0.19231 0.49614 0.94839 0.0
H698 H 0.14561 0.4159 0.04093 0.0
H699 H 0.14498 0.47943 0.78324 0.0
H700 H 0.14183 0.49934 0.85992 0.0
H701 H 0.17609 0.50653 0.83664 0.0
H702 H 0.10413 0.37765 0.97108 0.0
H703 H 0.084 0.39522 0.97897 0.0
H704 H 0.08913 0.38437 0.88866 0.0
H705 H 0.05416 0.46139 0.91125 0.0
H706 H 0.06083 0.4272 0.69923 0.0
H707 H 0.11799 0.47833 0.99287 0.0
H708 H 0.09586 0.44335 0.02074 0.0
H709 H 0.08287 0.46771 0.01627 0.0
H710 H 0.11991 0.4344 0.71203 0.0
H711 H 0.08708 0.40195 0.6949 0.0
H712 H 0.1114 0.40603 0.7714 0.0
C713 C 0.68545 0.19985 0.91809 0.0
C714 C 0.67995 0.20371 0.99119 0.0
C715 C 0.6642 0.17879 0.86828 0.0
C716 C 0.6373 0.16097 0.89326 0.0
C717 C 0.63078 0.16748 0.96352 0.0
C718 C 0.6521 0.18938 0.01095 0.0
C719 C 0.67147 0.17349 0.79203 0.0
C720 C 0.60264 0.1489 0.99327 0.0
C721 C 0.57973 0.10283 0.76096 0.0
C722 C 0.58488 0.08034 0.7702 0.0
C723 C 0.59652 0.1293 0.80057 0.0
C724 C 0.61825 0.13294 0.85254 0.0
C725 C 0.62249 0.10976 0.86487 0.0
C726 C 0.60612 0.0839 0.82236 0.0
C727 C 0.5915 0.15348 0.78522 0.0
C728 C 0.64481 0.11245 0.92179 0.0
H729 H 0.70687 0.21103 0.90229 0.0
H730 H 0.64777 0.19269 0.06731 0.0
H731 H 0.67501 0.15515 0.79172 0.0
H732 H 0.65397 0.16823 0.74985 0.0
H733 H 0.69082 0.19218 0.77575 0.0
H734 H 0.59878 0.16012 0.03999 0.0
H735 H 0.58528 0.14151 0.94936 0.0
H736 H 0.60222 0.12985 0.01412 0.0
H737 H 0.56355 0.10021 0.71967 0.0
H738 H 0.61008 0.06651 0.82932 0.0
H739 H 0.61154 0.17288 0.77634 0.0
H740 H 0.58277 0.15846 0.83386 0.0
H741 H 0.57659 0.14835 0.73579 0.0
H742 H 0.6659 0.12764 0.90454 0.0
H743 H 0.64381 0.09184 0.92891 0.0
H744 H 0.64255 0.12092 0.9764 0.0
C745 C 0.53168 0.70247 0.84564 0.0
C746 C 0.55436 0.71747 0.89874 0.0
C747 C 0.53133 0.68227 0.79416 0.0
C748 C 0.55428 0.67735 0.79641 0.0
C749 C 0.57917 0.69623 0.84075 0.0
C750 C 0.57874 0.71582 0.89282 0.0
C751 C 0.50459 0.66308 0.74664 0.0
C752 C 0.60464 0.69271 0.84178 0.0
C753 C 0.53276 0.6004 0.81006 0.0
C754 C 0.53544 0.59185 0.73808 0.0
C755 C 0.53902 0.62811 0.829 0.0
C756 C 0.54886 0.64832 0.77498 0.0
C757 C 0.55256 0.64024 0.70263 0.0
C758 C 0.54542 0.6119 0.68464 0.0
C759 C 0.5345 0.63548 0.90702 0.0
C760 C 0.5634 0.66116 0.64377 0.0
H761 H 0.51286 0.7039 0.8504 0.0
H762 H 0.59635 0.72765 0.93381 0.0
H763 H 0.5092 0.65772 0.69115 0.0
H764 H 0.49242 0.64299 0.77366 0.0
H765 H 0.4913 0.67298 0.7395 0.0
H766 H 0.62394 0.71271 0.86259 0.0
H767 H 0.60182 0.67603 0.87926 0.0
H768 H 0.60749 0.68602 0.78551 0.0
H769 H 0.525 0.58515 0.85186 0.0
H770 H 0.54758 0.60548 0.62891 0.0
H771 H 0.51988 0.64393 0.90516 0.0
H772 H 0.55469 0.65215 0.93556 0.0
H773 H 0.52572 0.61691 0.94119 0.0
H774 H 0.54578 0.66289 0.61757 0.0
H775 H 0.57247 0.65419 0.59949 0.0
H776 H 0.57955 0.68258 0.66789 0.0
C777 C 0.46572 0.15803 0.30706 0.0
C778 C 0.49144 0.1798 0.28663 0.0
C779 C 0.46469 0.13704 0.35189 0.0
C780 C 0.48995 0.13795 0.37662 0.0
C781 C 0.51599 0.16144 0.36177 0.0
C782 C 0.5164 0.18195 0.31667 0.0
C783 C 0.43653 0.11271 0.36772 0.0
C784 C 0.54346 0.16366 0.3881 0.0
C785 C 0.49463 0.08727 0.5089 0.0
C786 C 0.49653 0.06799 0.45875 0.0
C787 C 0.49105 0.10946 0.48342 0.0
C788 C 0.4894 0.11245 0.40603 0.0
C789 C 0.48981 0.09211 0.3554 0.0
C790 C 0.49335 0.07025 0.38229 0.0
C791 C 0.49059 0.13046 0.53966 0.0
C792 C 0.4879 0.09417 0.27242 0.0
H793 H 0.44638 0.15623 0.28363 0.0
H794 H 0.53631 0.19886 0.30115 0.0
H795 H 0.43205 0.09347 0.33272 0.0
H796 H 0.43664 0.10779 0.42663 0.0
H797 H 0.41932 0.11733 0.35567 0.0
H798 H 0.56172 0.1848 0.38016 0.0
H799 H 0.5436 0.15972 0.44777 0.0
H800 H 0.54601 0.14726 0.35663 0.0
H801 H 0.49707 0.08575 0.56807 0.0
H802 H 0.4944 0.0553 0.34293 0.0
H803 H 0.48345 0.12094 0.59313 0.0
H804 H 0.47674 0.13847 0.5191 0.0
H805 H 0.51214 0.14887 0.5506 0.0
H806 H 0.46919 0.09578 0.25522 0.0
H807 H 0.48661 0.07563 0.24051 0.0
H808 H 0.50666 0.11366 0.2571 0.0
C809 C 0.31312 0.48323 0.31978 0.0
C810 C 0.31714 0.51031 0.3104 0.0
C811 C 0.33323 0.47976 0.36102 0.0
C812 C 0.35749 0.50398 0.39507 0.0
C813 C 0.36018 0.53112 0.39192 0.0
C814 C 0.34008 0.53402 0.3486 0.0
C815 C 0.32968 0.45048 0.36256 0.0
C816 C 0.38525 0.55732 0.42965 0.0
C817 C 0.39957 0.48846 0.5371 0.0
C818 C 0.42149 0.49041 0.49655 0.0
C819 C 0.3793 0.49399 0.50571 0.0
C820 C 0.38049 0.50085 0.43105 0.0
C821 C 0.40289 0.50334 0.38992 0.0
C822 C 0.42354 0.49856 0.42382 0.0
C823 C 0.3565 0.49226 0.55232 0.0
C824 C 0.40461 0.5103 0.30971 0.0
H825 H 0.29576 0.46505 0.28841 0.0
H826 H 0.34345 0.555 0.33972 0.0
H827 H 0.3463 0.44964 0.33197 0.0
H828 H 0.33208 0.44563 0.42047 0.0
H829 H 0.3089 0.43374 0.33686 0.0
H830 H 0.38197 0.57586 0.43179 0.0
H831 H 0.38983 0.55352 0.48708 0.0
H832 H 0.40401 0.56271 0.3988 0.0
H833 H 0.39846 0.48288 0.59424 0.0
H834 H 0.44071 0.50035 0.39303 0.0
H835 H 0.33577 0.47475 0.52891 0.0
H836 H 0.35571 0.51219 0.55133 0.0
H837 H 0.35972 0.48856 0.61101 0.0
H838 H 0.38559 0.49376 0.27614 0.0
H839 H 0.42344 0.5117 0.28581 0.0
H840 H 0.40519 0.53078 0.30459 0.0
C841 C 0.86416 0.32852 0.25111 0.0
C842 C 0.83897 0.32872 0.2392 0.0
C843 C 0.88614 0.34919 0.29978 0.0
C844 C 0.88289 0.37076 0.33629 0.0
C845 C 0.85649 0.36936 0.32979 0.0
C846 C 0.83477 0.34831 0.28094 0.0
C847 C 0.91363 0.3494 0.30698 0.0
C848 C 0.85202 0.39158 0.36919 0.0
C849 C 0.93986 0.4256 0.47745 0.0
C850 C 0.95482 0.44823 0.43323 0.0
C851 C 0.91674 0.39992 0.4468 0.0
C852 C 0.90811 0.397 0.37037 0.0
C853 C 0.92351 0.41954 0.32524 0.0
C854 C 0.94667 0.44473 0.35707 0.0
C855 C 0.90118 0.3765 0.49713 0.0
C856 C 0.91518 0.41729 0.24329 0.0
H857 H 0.86738 0.31342 0.21817 0.0
H858 H 0.81536 0.34859 0.27091 0.0
H859 H 0.92936 0.36687 0.27639 0.0
H860 H 0.92185 0.35332 0.36609 0.0
H861 H 0.91151 0.32912 0.28416 0.0
H862 H 0.82953 0.3856 0.36592 0.0
H863 H 0.85991 0.39505 0.42847 0.0
H864 H 0.86407 0.41202 0.34361 0.0
H865 H 0.94587 0.42801 0.53635 0.0
H866 H 0.95801 0.46199 0.32222 0.0
H867 H 0.89208 0.35519 0.46744 0.0
H868 H 0.88373 0.37861 0.5187 0.0
H869 H 0.91515 0.37786 0.54534 0.0
H870 H 0.91517 0.39883 0.21492 0.0
H871 H 0.9295 0.43664 0.21583 0.0
H872 H 0.89355 0.41376 0.23535 0.0
C873 C 0.52046 0.84994 0.21474 0.0
C874 C 0.53514 0.83508 0.2095 0.0
C875 C 0.52282 0.86613 0.27965 0.0
C876 C 0.53878 0.86605 0.34321 0.0
C877 C 0.55091 0.84844 0.3413 0.0
C878 C 0.54957 0.83371 0.27391 0.0
C879 C 0.50962 0.88471 0.27821 0.0
C880 C 0.56636 0.84598 0.40906 0.0
C881 C 0.57278 0.93708 0.45211 0.0
C882 C 0.55089 0.93387 0.49424 0.0
C883 C 0.57021 0.91425 0.40697 0.0
C884 C 0.54557 0.88734 0.40664 0.0
C885 C 0.5251 0.88331 0.45685 0.0
C886 C 0.52748 0.90694 0.49814 0.0
C887 C 0.59234 0.91984 0.35336 0.0
C888 C 0.49958 0.85462 0.46284 0.0
H889 H 0.50796 0.84996 0.16671 0.0
H890 H 0.56075 0.82207 0.27147 0.0
H891 H 0.49326 0.87792 0.31832 0.0
H892 H 0.52568 0.90711 0.2948 0.0
H893 H 0.49974 0.88385 0.22245 0.0
H894 H 0.56389 0.82446 0.40867 0.0
H895 H 0.5891 0.8614 0.40862 0.0
H896 H 0.55884 0.85027 0.46131 0.0
H897 H 0.59063 0.95813 0.44853 0.0
H898 H 0.51046 0.90458 0.53053 0.0
H899 H 0.58306 0.91661 0.29546 0.0
H900 H 0.60011 0.90475 0.35925 0.0
H901 H 0.61053 0.94176 0.36218 0.0
H902 H 0.48212 0.8521 0.42426 0.0
H903 H 0.49245 0.85261 0.5199 0.0
H904 H 0.50386 0.83718 0.44868 0.0
C905 C 0.69771 0.51474 0.2579 0.0
C906 C 0.71806 0.53652 0.21973 0.0
C907 C 0.68094 0.51994 0.30513 0.0
C908 C 0.68425 0.54746 0.31296 0.0
C909 C 0.70669 0.57006 0.28035 0.0
C910 C 0.7234 0.5643 0.23417 0.0
C911 C 0.6577 0.4953 0.34001 0.0
C912 C 0.71108 0.5997 0.28706 0.0
C913 C 0.61497 0.5463 0.32298 0.0
C914 C 0.61494 0.55282 0.39881 0.0
C915 C 0.63793 0.54571 0.29427 0.0
C916 C 0.66136 0.55125 0.34276 0.0
C917 C 0.6619 0.55881 0.41907 0.0
C918 C 0.63876 0.55973 0.44613 0.0
C919 C 0.6366 0.53808 0.21221 0.0
C920 C 0.68624 0.56451 0.47277 0.0
H921 H 0.69323 0.49317 0.2456 0.0
H922 H 0.73873 0.58104 0.20334 0.0
H923 H 0.65608 0.5015 0.39804 0.0
H924 H 0.63738 0.48869 0.30839 0.0
H925 H 0.66097 0.47677 0.33987 0.0
H926 H 0.73216 0.61561 0.27105 0.0
H927 H 0.695 0.60061 0.24985 0.0
H928 H 0.70862 0.60561 0.34455 0.0
H929 H 0.59668 0.54102 0.28612 0.0
H930 H 0.63872 0.56439 0.50502 0.0
H931 H 0.63607 0.51753 0.20393 0.0
H932 H 0.65561 0.55433 0.18769 0.0
H933 H 0.61779 0.53624 0.18134 0.0
H934 H 0.68634 0.54444 0.47975 0.0
H935 H 0.68503 0.57328 0.52823 0.0
H936 H 0.70645 0.57954 0.45078 0.0
C937 C 0.18734 0.74084 0.33224 0.0
C938 C 0.18278 0.72607 0.26273 0.0
C939 C 0.17428 0.72633 0.3946 0.0
C940 C 0.1554 0.69659 0.38635 0.0
C941 C 0.15193 0.68157 0.31717 0.0
C942 C 0.1664 0.69631 0.25766 0.0
C943 C 0.18009 0.74322 0.46801 0.0
C944 C 0.13164 0.65001 0.3041 0.0
C945 C 0.12035 0.63993 0.52006 0.0
C946 C 0.09365 0.63712 0.51779 0.0
C947 C 0.1424 0.66232 0.48671 0.0
C948 C 0.13694 0.68092 0.4459 0.0
C949 C 0.11062 0.6795 0.44931 0.0
C950 C 0.08947 0.65791 0.48654 0.0
C951 C 0.17085 0.66462 0.49021 0.0
C952 C 0.10364 0.69865 0.40655 0.0
H953 H 0.20031 0.76375 0.3376 0.0
H954 H 0.16388 0.68438 0.20554 0.0
H955 H 0.16686 0.75327 0.46897 0.0
H956 H 0.17565 0.72986 0.51575 0.0
H957 H 0.20234 0.76056 0.4751 0.0
H958 H 0.12967 0.6421 0.2452 0.0
H959 H 0.13873 0.6382 0.33896 0.0
H960 H 0.11049 0.64492 0.3199 0.0
H961 H 0.12364 0.62396 0.54483 0.0
H962 H 0.06871 0.65556 0.48453 0.0
H963 H 0.18782 0.6871 0.49084 0.0
H964 H 0.17241 0.6529 0.44068 0.0
H965 H 0.17426 0.65528 0.54032 0.0
H966 H 0.11967 0.72116 0.42124 0.0
H967 H 0.08271 0.69568 0.41764 0.0
H968 H 0.1038 0.69424 0.34608 0.0
loop_
_geom_bond_atom_site_label_1
_geom_bond_atom_site_label_2
_geom_bond_distance
_geom_bond_site_symmetry_2
_ccdc_geom_bond_type
H0 C6 0.930 . S
H1 C9 0.931 . S
H2 C11 0.931 . S
H3 C13 0.930 . S
H4 C15 0.930 . S
H5 C17 0.931 . S
C6 H0 0.930 . S
C6 C7 1.380 . S
C6 C8 1.394 . S
C7 C6 1.380 . S
C7 C11 1.382 . S
C8 C6 1.394 . S
C8 C9 1.400 . S
C9 H1 0.931 . S
C9 C8 1.400 . S
C9 C10 1.375 . S
C10 C9 1.375 . S
C10 C11 1.415 . S
C10 C12 1.501 . S
C11 H2 0.931 . S
C11 C7 1.382 . S
C11 C10 1.415 . S
C12 C10 1.501 . S
C12 C13 1.384 . S
C12 C17 1.408 . S
C13 H3 0.930 . S
C13 C12 1.384 . S
C13 C14 1.389 . S
C14 C13 1.389 . S
C14 C15 1.405 . S
C15 H4 0.930 . S
C15 C14 1.405 . S
C15 C16 1.364 . S
C16 C15 1.364 . S
C16 C17 1.400 . S
C17 H5 0.931 . S
C17 C12 1.408 . S
C17 C16 1.400 . S
H18 C24 0.930 . S
H19 C27 0.931 . S
H20 C29 0.931 1_556 S
H21 C31 0.930 1_556 S
H22 C33 0.930 . S
H23 C35 0.931 . S
C24 H18 0.930 . S
C24 C25 1.380 . S
C24 C26 1.394 . S
C25 C24 1.380 . S
C25 C29 1.382 . S
C26 C24 1.394 . S
C26 C27 1.400 . S
C27 H19 0.931 . S
C27 C26 1.400 . S
C27 C28 1.375 . S
C28 C27 1.375 . S
C28 C29 1.415 . S
C28 C30 1.501 . S
C29 H20 0.931 1_554 S
C29 C25 1.382 . S
C29 C28 1.415 . S
C30 C28 1.501 . S
C30 C31 1.384 . S
C30 C35 1.408 . S
C31 H21 0.930 1_554 S
C31 C30 1.384 . S
C31 C32 1.389 . S
C32 C31 1.389 . S
C32 C33 1.405 . S
C33 H22 0.930 . S
C33 C32 1.405 . S
C33 C34 1.364 . S
C34 C33 1.364 . S
C34 C35 1.400 . S
C35 H23 0.931 . S
C35 C30 1.408 . S
C35 C34 1.400 . S
H36 C42 0.930 . S
H37 C45 0.931 . S
H38 C47 0.931 . S
H39 C49 0.930 . S
H40 C51 0.930 . S
H41 C53 0.931 . S
C42 H36 0.930 . S
C42 C43 1.380 1_554 S
C42 C44 1.394 . S
C43 C42 1.380 1_556 S
C43 C47 1.382 . S
C44 C42 1.394 . S
C44 C45 1.400 . S
C45 H37 0.931 . S
C45 C44 1.400 . S
C45 C46 1.375 . S
C46 C45 1.375 . S
C46 C47 1.415 1_554 S
C46 C48 1.501 . S
C47 H38 0.931 . S
C47 C43 1.382 . S
C47 C46 1.415 1_556 S
C48 C46 1.501 . S
C48 C49 1.384 1_554 S
C48 C53 1.408 . S
C49 H39 0.930 . S
C49 C48 1.384 1_556 S
C49 C50 1.389 . S
C50 C49 1.389 . S
C50 C51 1.405 1_556 S
C51 H40 0.930 . S
C51 C50 1.405 1_554 S
C51 C52 1.364 . S
C52 C51 1.364 . S
C52 C53 1.400 . S
C53 H41 0.931 . S
C53 C48 1.408 . S
C53 C52 1.400 . S
H54 C60 0.930 . S
H55 C63 0.931 . S
H56 C65 0.931 . S
H57 C67 0.930 . S
H58 C69 0.930 . S
H59 C71 0.931 . S
C60 H54 0.930 . S
C60 C61 1.380 1_554 S
C60 C62 1.394 . S
C61 C60 1.380 1_556 S
C61 C65 1.382 . S
C62 C60 1.394 . S
C62 C63 1.400 . S
C63 H55 0.931 . S
C63 C62 1.400 . S
C63 C64 1.375 . S
C64 C63 1.375 . S
C64 C65 1.415 1_554 S
C64 C66 1.501 . S
C65 H56 0.931 . S
C65 C61 1.382 . S
C65 C64 1.415 1_556 S
C66 C64 1.501 . S
C66 C67 1.384 1_554 S
C66 C71 1.408 . S
C67 H57 0.930 . S
C67 C66 1.384 1_556 S
C67 C68 1.389 . S
C68 C67 1.389 . S
C68 C69 1.405 1_556 S
C69 H58 0.930 . S
C69 C68 1.405 1_554 S
C69 C70 1.364 . S
C70 C69 1.364 . S
C70 C71 1.400 . S
C71 H59 0.931 . S
C71 C66 1.408 . S
C71 C70 1.400 . S
H72 C78 0.930 . S
H73 C81 0.931 . S
H74 C83 0.931 . S
H75 C85 0.930 . S
H76 C87 0.930 . S
H77 C89 0.931 . S
C78 H72 0.930 . S
C78 C79 1.380 . S
C78 C80 1.394 . S
C79 C78 1.380 . S
C79 C83 1.382 . S
C80 C78 1.394 . S
C80 C81 1.400 . S
C81 H73 0.931 . S
C81 C80 1.400 . S
C81 C82 1.375 . S
C82 C81 1.375 . S
C82 C83 1.415 . S
C82 C84 1.501 . S
C83 H74 0.931 . S
C83 C79 1.382 . S
C83 C82 1.415 . S
C84 C82 1.501 . S
C84 C85 1.384 . S
C84 C89 1.408 . S
C85 H75 0.930 . S
C85 C84 1.384 . S
C85 C86 1.389 . S
C86 C85 1.389 . S
C86 C87 1.405 . S
C87 H76 0.930 . S
C87 C86 1.405 . S
C87 C88 1.364 . S
C88 C87 1.364 . S
C88 C89 1.400 . S
C89 H77 0.931 . S
C89 C84 1.408 . S
C89 C88 1.400 . S
H90 C96 0.930 . S
H91 C99 0.931 . S
H92 C101 0.931 . S
H93 C103 0.930 . S
H94 C105 0.930 . S
H95 C107 0.931 . S
C96 H90 0.930 . S
C96 C97 1.380 . S
C96 C98 1.394 . S
C97 C96 1.380 . S
C97 C101 1.382 . S
C98 C96 1.394 . S
C98 C99 1.400 . S
C99 H91 0.931 . S
C99 C98 1.400 . S
C99 C100 1.375 . S
C100 C99 1.375 . S
C100 C101 1.415 . S
C100 C102 1.501 . S
C101 H92 0.931 . S
C101 C97 1.382 . S
C101 C100 1.415 . S
C102 C100 1.501 . S
C102 C103 1.384 . S
C102 C107 1.408 . S
C103 H93 0.930 . S
C103 C102 1.384 . S
C103 C104 1.389 . S
C104 C103 1.389 . S
C104 C105 1.405 . S
C105 H94 0.930 . S
C105 C104 1.405 . S
C105 C106 1.364 . S
C106 C105 1.364 . S
C106 C107 1.400 . S
C107 H95 0.931 . S
C107 C102 1.408 . S
C107 C106 1.400 . S
C108 O135 1.312 . S
C108 O136 1.208 . S
C109 O130 1.331 . S
C109 O133 1.244 . S
C110 O132 1.264 . S
C110 O134 1.273 . S
Mg111 O113 1.936 1_455 S
Mg111 O120 2.081 1_455 S
Mg111 O122 2.023 . S
Mg111 O126 2.031 1_455 S
Mg111 O135 2.291 . S
Mg112 O113 1.963 . S
Mg112 O123 1.942 . S
Mg112 O124 1.955 1_655 S
Mg112 O131 1.986 . S
O113 Mg111 1.936 1_655 S
O113 Mg112 1.963 . S
O113 Mg114 1.915 1_655 S
Mg114 O113 1.915 1_455 S
Mg114 O115 1.915 . S
Mg114 O119 2.013 . S
Mg114 O125 2.114 1_455 S
Mg114 O129 2.013 1_455 S
Mg114 O135 2.114 . S
O115 Mg114 1.915 . S
O115 Mg116 1.936 . S
O115 Mg117 1.963 . S
Mg116 O115 1.936 . S
Mg116 O125 2.291 1_455 S
Mg116 O130 2.081 . S
Mg116 O132 2.023 1_455 S
Mg116 O136 2.031 . S
Mg117 O115 1.963 . S
Mg117 O121 1.986 . S
Mg117 O133 1.942 . S
Mg117 O134 1.955 1_455 S
C118 O129 1.191 . S
C118 O131 1.307 . S
O119 Mg114 2.013 . S
O119 C138 1.191 . S
O120 Mg111 2.081 1_655 S
O120 C128 1.331 . S
O121 Mg117 1.986 . S
O121 C138 1.307 . S
O122 Mg111 2.023 . S
O122 C137 1.264 . S
O123 Mg112 1.942 . S
O123 C128 1.244 . S
O124 Mg112 1.955 1_455 S
O124 C137 1.273 . S
O125 Mg114 2.114 1_655 S
O125 Mg116 2.291 1_655 S
O125 C127 1.312 . S
O126 Mg111 2.031 1_655 S
O126 C127 1.208 . S
C127 O125 1.312 . S
C127 O126 1.208 . S
C128 O120 1.331 . S
C128 O123 1.244 . S
O129 Mg114 2.013 1_655 S
O129 C118 1.191 . S
O130 C109 1.331 . S
O130 Mg116 2.081 . S
O131 Mg112 1.986 . S
O131 C118 1.307 . S
O132 C110 1.264 . S
O132 Mg116 2.023 1_655 S
O133 C109 1.244 . S
O133 Mg117 1.942 . S
O134 C110 1.273 . S
O134 Mg117 1.955 1_655 S
O135 C108 1.312 . S
O135 Mg111 2.291 . S
O135 Mg114 2.114 . S
O136 C108 1.208 . S
O136 Mg116 2.031 . S
C137 O122 1.264 . S
C137 O124 1.273 . S
C138 O119 1.191 . S
C138 O121 1.307 . S
C139 O166 1.312 . S
C139 O167 1.208 . S
C140 O161 1.331 . S
C140 O164 1.244 . S
C141 O163 1.264 . S
C141 O165 1.273 . S
Mg142 O144 1.936 . S
Mg142 O151 2.081 1_545 S
Mg142 O153 2.023 . S
Mg142 O157 2.031 1_545 S
Mg142 O166 2.291 . S
Mg143 O144 1.963 . S
Mg143 O154 1.942 1_545 S
Mg143 O155 1.955 . S
Mg143 O162 1.986 1_545 S
O144 Mg142 1.936 . S
O144 Mg143 1.963 . S
O144 Mg145 1.915 . S
Mg145 O144 1.915 . S
Mg145 O146 1.915 . S
Mg145 O150 2.013 . S
Mg145 O156 2.114 1_545 S
Mg145 O160 2.013 1_545 S
Mg145 O166 2.114 . S
O146 Mg145 1.915 . S
O146 Mg147 1.936 . S
O146 Mg148 1.963 . S
Mg147 O146 1.936 . S
Mg147 O156 2.291 1_545 S
Mg147 O161 2.081 . S
Mg147 O163 2.023 1_545 S
Mg147 O167 2.031 . S
Mg148 O146 1.963 . S
Mg148 O152 1.986 . S
Mg148 O164 1.942 . S
Mg148 O165 1.955 1_545 S
C149 O160 1.191 . S
C149 O162 1.307 . S
O150 Mg145 2.013 . S
O150 C169 1.191 . S
O151 Mg142 2.081 1_565 S
O151 C159 1.331 . S
O152 Mg148 1.986 . S
O152 C169 1.307 . S
O153 Mg142 2.023 . S
O153 C168 1.264 . S
O154 Mg143 1.942 1_565 S
O154 C159 1.244 . S
O155 Mg143 1.955 . S
O155 C168 1.273 . S
O156 Mg145 2.114 1_565 S
O156 Mg147 2.291 1_565 S
O156 C158 1.312 . S
O157 Mg142 2.031 1_565 S
O157 C158 1.208 . S
C158 O156 1.312 . S
C158 O157 1.208 . S
C159 O151 1.331 . S
C159 O154 1.244 . S
O160 Mg145 2.013 1_565 S
O160 C149 1.191 . S
O161 C140 1.331 . S
O161 Mg147 2.081 . S
O162 Mg143 1.986 1_565 S
O162 C149 1.307 . S
O163 C141 1.264 . S
O163 Mg147 2.023 1_565 S
O164 C140 1.244 . S
O164 Mg148 1.942 . S
O165 C141 1.273 . S
O165 Mg148 1.955 1_565 S
O166 C139 1.312 . S
O166 Mg142 2.291 . S
O166 Mg145 2.114 . S
O167 C139 1.208 . S
O167 Mg147 2.031 . S
C168 O153 1.264 . S
C168 O155 1.273 . S
C169 O150 1.191 . S
C169 O152 1.307 . S
C170 O197 1.312 . S
C170 O198 1.208 . S
C171 O192 1.331 . S
C171 O195 1.244 . S
C172 O194 1.264 . S
C172 O196 1.273 . S
Mg173 O175 1.936 . S
Mg173 O182 2.081 . S
Mg173 O184 2.023 . S
Mg173 O188 2.031 . S
Mg173 O197 2.291 . S
Mg174 O175 1.963 . S
Mg174 O185 1.942 . S
Mg174 O186 1.955 . S
Mg174 O193 1.986 . S
O175 Mg173 1.936 . S
O175 Mg174 1.963 . S
O175 Mg176 1.915 . S
Mg176 O175 1.915 . S
Mg176 O177 1.915 . S
Mg176 O181 2.013 . S
Mg176 O187 2.114 . S
Mg176 O191 2.013 . S
Mg176 O197 2.114 . S
O177 Mg176 1.915 . S
O177 Mg178 1.936 . S
O177 Mg179 1.963 . S
Mg178 O177 1.936 . S
Mg178 O187 2.291 . S
Mg178 O192 2.081 . S
Mg178 O194 2.023 . S
Mg178 O198 2.031 . S
Mg179 O177 1.963 . S
Mg179 O183 1.986 . S
Mg179 O195 1.942 . S
Mg179 O196 1.955 . S
C180 O191 1.191 . S
C180 O193 1.307 . S
O181 Mg176 2.013 . S
O181 C200 1.191 . S
O182 Mg173 2.081 . S
O182 C190 1.331 . S
O183 Mg179 1.986 . S
O183 C200 1.307 . S
O184 Mg173 2.023 . S
O184 C199 1.264 . S
O185 Mg174 1.942 . S
O185 C190 1.244 . S
O186 Mg174 1.955 . S
O186 C199 1.273 . S
O187 Mg176 2.114 . S
O187 Mg178 2.291 . S
O187 C189 1.312 . S
O188 Mg173 2.031 . S
O188 C189 1.208 . S
C189 O187 1.312 . S
C189 O188 1.208 . S
C190 O182 1.331 . S
C190 O185 1.244 . S
O191 Mg176 2.013 . S
O191 C180 1.191 . S
O192 C171 1.331 . S
O192 Mg178 2.081 . S
O193 Mg174 1.986 . S
O193 C180 1.307 . S
O194 C172 1.264 . S
O194 Mg178 2.023 . S
O195 C171 1.244 . S
O195 Mg179 1.942 . S
O196 C172 1.273 . S
O196 Mg179 1.955 . S
O197 C170 1.312 . S
O197 Mg173 2.291 . S
O197 Mg176 2.114 . S
O198 C170 1.208 . S
O198 Mg178 2.031 . S
C199 O184 1.264 . S
C199 O186 1.273 . S
C200 O181 1.191 . S
C200 O183 1.307 . S
C201 C202 1.391 . S
C201 C203 1.394 . S
C201 H217 0.931 . S
C202 C201 1.391 . S
C202 C206 1.376 . S
C203 C201 1.394 . S
C203 C204 1.369 . S
C203 C207 1.531 . S
C204 C203 1.369 . S
C204 C205 1.410 . S
C204 C212 1.503 . S
C205 C204 1.410 . S
C205 C206 1.392 . S
C205 C208 1.511 . S
C206 C202 1.376 . S
C206 C205 1.392 . S
C206 H218 0.929 . S
C207 C203 1.531 . S
C207 H219 0.960 . S
C207 H220 0.962 . S
C207 H221 0.960 . S
C208 C205 1.511 . S
C208 H222 0.961 . S
C208 H223 0.961 . S
C208 H224 0.961 . S
C209 C210 1.370 . S
C209 C211 1.363 . S
C209 H225 0.931 . S
C210 C209 1.370 . S
C210 C214 1.408 . S
C211 C209 1.363 . S
C211 C212 1.370 . S
C211 C215 1.524 . S
C212 C204 1.503 . S
C212 C211 1.370 . S
C212 C213 1.403 . S
C213 C212 1.403 . S
C213 C214 1.404 . S
C213 C216 1.539 . S
C214 C210 1.408 . S
C214 C213 1.404 . S
C214 H226 0.930 . S
C215 C211 1.524 . S
C215 H227 0.956 . S
C215 H228 0.961 . S
C215 H229 0.961 . S
C216 C213 1.539 . S
C216 H230 0.958 . S
C216 H231 0.961 . S
C216 H232 0.960 . S
H217 C201 0.931 . S
H218 C206 0.929 . S
H219 C207 0.960 . S
H220 C207 0.962 . S
H221 C207 0.960 . S
H222 C208 0.961 . S
H223 C208 0.961 . S
H224 C208 0.961 . S
H225 C209 0.931 . S
H226 C214 0.930 . S
H227 C215 0.956 . S
H228 C215 0.961 . S
H229 C215 0.961 . S
H230 C216 0.958 . S
H231 C216 0.961 . S
H232 C216 0.960 . S
C233 C234 1.391 . S
C233 C235 1.394 . S
C233 H249 0.931 . S
C234 C233 1.391 . S
C234 C238 1.376 . S
C235 C233 1.394 . S
C235 C236 1.369 . S
C235 C239 1.531 . S
C236 C235 1.369 . S
C236 C237 1.410 . S
C236 C244 1.503 . S
C237 C236 1.410 . S
C237 C238 1.392 . S
C237 C240 1.511 . S
C238 C234 1.376 . S
C238 C237 1.392 . S
C238 H250 0.929 . S
C239 C235 1.531 . S
C239 H251 0.960 . S
C239 H252 0.962 . S
C239 H253 0.960 . S
C240 C237 1.511 . S
C240 H254 0.961 . S
C240 H255 0.961 . S
C240 H256 0.961 . S
C241 C242 1.370 . S
C241 C243 1.363 . S
C241 H257 0.931 . S
C242 C241 1.370 . S
C242 C246 1.408 . S
C243 C241 1.363 . S
C243 C244 1.370 . S
C243 C247 1.524 . S
C244 C236 1.503 . S
C244 C243 1.370 . S
C244 C245 1.403 . S
C245 C244 1.403 . S
C245 C246 1.404 . S
C245 C248 1.539 . S
C246 C242 1.408 . S
C246 C245 1.404 . S
C246 H258 0.930 . S
C247 C243 1.524 . S
C247 H259 0.956 . S
C247 H260 0.961 . S
C247 H261 0.961 . S
C248 C245 1.539 . S
C248 H262 0.958 . S
C248 H263 0.961 . S
C248 H264 0.960 . S
H249 C233 0.931 . S
H250 C238 0.929 . S
H251 C239 0.960 . S
H252 C239 0.962 . S
H253 C239 0.960 . S
H254 C240 0.961 . S
H255 C240 0.961 . S
H256 C240 0.961 . S
H257 C241 0.931 . S
H258 C246 0.930 . S
H259 C247 0.956 . S
H260 C247 0.961 . S
H261 C247 0.961 . S
H262 C248 0.958 . S
H263 C248 0.961 . S
H264 C248 0.960 . S
C265 C266 1.391 . S
C265 C267 1.394 . S
C265 H281 0.931 . S
C266 C265 1.391 . S
C266 C270 1.376 . S
C267 C265 1.394 . S
C267 C268 1.369 . S
C267 C271 1.531 . S
C268 C267 1.369 . S
C268 C269 1.410 . S
C268 C276 1.503 . S
C269 C268 1.410 . S
C269 C270 1.392 . S
C269 C272 1.511 . S
C270 C266 1.376 . S
C270 C269 1.392 . S
C270 H282 0.929 . S
C271 C267 1.531 . S
C271 H283 0.960 . S
C271 H284 0.962 . S
C271 H285 0.960 . S
C272 C269 1.511 . S
C272 H286 0.961 . S
C272 H287 0.961 . S
C272 H288 0.961 . S
C273 C274 1.370 . S
C273 C275 1.363 . S
C273 H289 0.931 . S
C274 C273 1.370 . S
C274 C278 1.408 . S
C275 C273 1.363 . S
C275 C276 1.370 . S
C275 C279 1.524 . S
C276 C268 1.503 . S
C276 C275 1.370 . S
C276 C277 1.403 . S
C277 C276 1.403 . S
C277 C278 1.404 . S
C277 C280 1.539 . S
C278 C274 1.408 . S
C278 C277 1.404 . S
C278 H290 0.930 . S
C279 C275 1.524 . S
C279 H291 0.956 . S
C279 H292 0.961 . S
C279 H293 0.961 . S
C280 C277 1.539 . S
C280 H294 0.958 . S
C280 H295 0.961 . S
C280 H296 0.960 . S
H281 C265 0.931 . S
H282 C270 0.929 . S
H283 C271 0.960 . S
H284 C271 0.962 . S
H285 C271 0.960 . S
H286 C272 0.961 . S
H287 C272 0.961 . S
H288 C272 0.961 . S
H289 C273 0.931 . S
H290 C278 0.930 . S
H291 C279 0.956 . S
H292 C279 0.961 . S
H293 C279 0.961 . S
H294 C280 0.958 . S
H295 C280 0.961 . S
H296 C280 0.960 . S
C297 C298 1.391 . S
C297 C299 1.394 . S
C297 H313 0.931 . S
C298 C297 1.391 . S
C298 C302 1.376 . S
C299 C297 1.394 . S
C299 C300 1.369 . S
C299 C303 1.531 . S
C300 C299 1.369 . S
C300 C301 1.410 . S
C300 C308 1.503 . S
C301 C300 1.410 . S
C301 C302 1.392 . S
C301 C304 1.511 . S
C302 C298 1.376 . S
C302 C301 1.392 . S
C302 H314 0.929 . S
C303 C299 1.531 . S
C303 H315 0.960 . S
C303 H316 0.962 . S
C303 H317 0.960 . S
C304 C301 1.511 . S
C304 H318 0.961 . S
C304 H319 0.961 . S
C304 H320 0.961 . S
C305 C306 1.370 . S
C305 C307 1.363 . S
C305 H321 0.931 . S
C306 C305 1.370 . S
C306 C310 1.408 . S
C307 C305 1.363 . S
C307 C308 1.370 . S
C307 C311 1.524 . S
C308 C300 1.503 . S
C308 C307 1.370 . S
C308 C309 1.403 . S
C309 C308 1.403 . S
C309 C310 1.404 . S
C309 C312 1.539 . S
C310 C306 1.408 . S
C310 C309 1.404 . S
C310 H322 0.930 . S
C311 C307 1.524 . S
C311 H323 0.956 . S
C311 H324 0.961 . S
C311 H325 0.961 . S
C312 C309 1.539 . S
C312 H326 0.958 . S
C312 H327 0.961 . S
C312 H328 0.960 . S
H313 C297 0.931 . S
H314 C302 0.929 . S
H315 C303 0.960 . S
H316 C303 0.962 . S
H317 C303 0.960 . S
H318 C304 0.961 . S
H319 C304 0.961 . S
H320 C304 0.961 . S
H321 C305 0.931 . S
H322 C310 0.930 . S
H323 C311 0.956 . S
H324 C311 0.961 . S
H325 C311 0.961 . S
H326 C312 0.958 . S
H327 C312 0.961 . S
H328 C312 0.960 . S
C329 C330 1.391 . S
C329 C331 1.394 . S
C329 H345 0.931 . S
C330 C329 1.391 . S
C330 C334 1.376 . S
C331 C329 1.394 . S
C331 C332 1.369 . S
C331 C335 1.531 . S
C332 C331 1.369 . S
C332 C333 1.410 . S
C332 C340 1.503 . S
C333 C332 1.410 . S
C333 C334 1.392 . S
C333 C336 1.511 . S
C334 C330 1.376 . S
C334 C333 1.392 . S
C334 H346 0.929 . S
C335 C331 1.531 . S
C335 H347 0.960 . S
C335 H348 0.962 . S
C335 H349 0.960 . S
C336 C333 1.511 . S
C336 H350 0.961 . S
C336 H351 0.961 . S
C336 H352 0.961 . S
C337 C338 1.370 . S
C337 C339 1.363 . S
C337 H353 0.931 . S
C338 C337 1.370 . S
C338 C342 1.408 . S
C339 C337 1.363 . S
C339 C340 1.370 . S
C339 C343 1.524 . S
C340 C332 1.503 . S
C340 C339 1.370 . S
C340 C341 1.403 . S
C341 C340 1.403 . S
C341 C342 1.404 . S
C341 C344 1.539 . S
C342 C338 1.408 . S
C342 C341 1.404 . S
C342 H354 0.930 . S
C343 C339 1.524 . S
C343 H355 0.956 . S
C343 H356 0.961 . S
C343 H357 0.961 . S
C344 C341 1.539 . S
C344 H358 0.958 . S
C344 H359 0.961 . S
C344 H360 0.960 . S
H345 C329 0.931 . S
H346 C334 0.929 . S
H347 C335 0.960 . S
H348 C335 0.962 . S
H349 C335 0.960 . S
H350 C336 0.961 . S
H351 C336 0.961 . S
H352 C336 0.961 . S
H353 C337 0.931 . S
H354 C342 0.930 . S
H355 C343 0.956 . S
H356 C343 0.961 . S
H357 C343 0.961 . S
H358 C344 0.958 . S
H359 C344 0.961 . S
H360 C344 0.960 . S
C361 C362 1.391 . S
C361 C363 1.394 . S
C361 H377 0.931 . S
C362 C361 1.391 . S
C362 C366 1.376 . S
C363 C361 1.394 . S
C363 C364 1.369 . S
C363 C367 1.531 . S
C364 C363 1.369 . S
C364 C365 1.410 . S
C364 C372 1.503 . S
C365 C364 1.410 . S
C365 C366 1.392 . S
C365 C368 1.511 . S
C366 C362 1.376 . S
C366 C365 1.392 . S
C366 H378 0.929 . S
C367 C363 1.531 . S
C367 H379 0.960 . S
C367 H380 0.962 . S
C367 H381 0.960 . S
C368 C365 1.511 . S
C368 H382 0.961 . S
C368 H383 0.961 . S
C368 H384 0.961 . S
C369 C370 1.370 . S
C369 C371 1.363 . S
C369 H385 0.931 . S
C370 C369 1.370 . S
C370 C374 1.408 . S
C371 C369 1.363 . S
C371 C372 1.370 . S
C371 C375 1.524 . S
C372 C364 1.503 . S
C372 C371 1.370 . S
C372 C373 1.403 . S
C373 C372 1.403 . S
C373 C374 1.404 . S
C373 C376 1.539 . S
C374 C370 1.408 . S
C374 C373 1.404 . S
C374 H386 0.930 . S
C375 C371 1.524 . S
C375 H387 0.956 . S
C375 H388 0.961 . S
C375 H389 0.961 . S
C376 C373 1.539 . S
C376 H390 0.958 . S
C376 H391 0.961 . S
C376 H392 0.960 . S
H377 C361 0.931 . S
H378 C366 0.929 . S
H379 C367 0.960 . S
H380 C367 0.962 . S
H381 C367 0.960 . S
H382 C368 0.961 . S
H383 C368 0.961 . S
H384 C368 0.961 . S
H385 C369 0.931 . S
H386 C374 0.930 . S
H387 C375 0.956 . S
H388 C375 0.961 . S
H389 C375 0.961 . S
H390 C376 0.958 . S
H391 C376 0.961 . S
H392 C376 0.960 . S
C393 C394 1.391 . S
C393 C395 1.394 . S
C393 H409 0.931 . S
C394 C393 1.391 . S
C394 C398 1.376 . S
C395 C393 1.394 . S
C395 C396 1.369 . S
C395 C399 1.531 . S
C396 C395 1.369 . S
C396 C397 1.410 . S
C396 C404 1.503 . S
C397 C396 1.410 . S
C397 C398 1.392 . S
C397 C400 1.511 . S
C398 C394 1.376 . S
C398 C397 1.392 . S
C398 H410 0.929 . S
C399 C395 1.531 . S
C399 H411 0.960 . S
C399 H412 0.962 . S
C399 H413 0.960 . S
C400 C397 1.511 . S
C400 H414 0.961 . S
C400 H415 0.961 . S
C400 H416 0.961 . S
C401 C402 1.370 . S
C401 C403 1.363 . S
C401 H417 0.931 . S
C402 C401 1.370 . S
C402 C406 1.408 . S
C403 C401 1.363 . S
C403 C404 1.370 . S
C403 C407 1.524 . S
C404 C396 1.503 . S
C404 C403 1.370 . S
C404 C405 1.403 . S
C405 C404 1.403 . S
C405 C406 1.404 . S
C405 C408 1.539 . S
C406 C402 1.408 . S
C406 C405 1.404 . S
C406 H418 0.930 . S
C407 C403 1.524 . S
C407 H419 0.956 . S
C407 H420 0.961 . S
C407 H421 0.961 . S
C408 C405 1.539 . S
C408 H422 0.958 . S
C408 H423 0.961 . S
C408 H424 0.960 . S
H409 C393 0.931 . S
H410 C398 0.929 . S
H411 C399 0.960 . S
H412 C399 0.962 . S
H413 C399 0.960 . S
H414 C400 0.961 . S
H415 C400 0.961 . S
H416 C400 0.961 . S
H417 C401 0.931 . S
H418 C406 0.930 . S
H419 C407 0.956 . S
H420 C407 0.961 . S
H421 C407 0.961 . S
H422 C408 0.958 . S
H423 C408 0.961 . S
H424 C408 0.960 . S
C425 C426 1.391 . S
C425 C427 1.394 . S
C425 H441 0.931 . S
C426 C425 1.391 . S
C426 C430 1.376 . S
C427 C425 1.394 . S
C427 C428 1.369 . S
C427 C431 1.531 . S
C428 C427 1.369 . S
C428 C429 1.410 . S
C428 C436 1.503 . S
C429 C428 1.410 . S
C429 C430 1.392 . S
C429 C432 1.511 . S
C430 C426 1.376 . S
C430 C429 1.392 . S
C430 H442 0.929 . S
C431 C427 1.531 . S
C431 H443 0.960 . S
C431 H444 0.962 . S
C431 H445 0.960 . S
C432 C429 1.511 . S
C432 H446 0.961 . S
C432 H447 0.961 . S
C432 H448 0.961 . S
C433 C434 1.370 . S
C433 C435 1.363 . S
C433 H449 0.931 . S
C434 C433 1.370 . S
C434 C438 1.408 . S
C435 C433 1.363 . S
C435 C436 1.370 . S
C435 C439 1.524 . S
C436 C428 1.503 . S
C436 C435 1.370 . S
C436 C437 1.403 . S
C437 C436 1.403 . S
C437 C438 1.404 . S
C437 C440 1.539 . S
C438 C434 1.408 . S
C438 C437 1.404 . S
C438 H450 0.930 . S
C439 C435 1.524 . S
C439 H451 0.956 . S
C439 H452 0.961 . S
C439 H453 0.961 . S
C440 C437 1.539 . S
C440 H454 0.958 . S
C440 H455 0.961 . S
C440 H456 0.960 . S
H441 C425 0.931 . S
H442 C430 0.929 . S
H443 C431 0.960 . S
H444 C431 0.962 . S
H445 C431 0.960 . S
H446 C432 0.961 . S
H447 C432 0.961 . S
H448 C432 0.961 . S
H449 C433 0.931 . S
H450 C438 0.930 . S
H451 C439 0.956 . S
H452 C439 0.961 . S
H453 C439 0.961 . S
H454 C440 0.958 . S
H455 C440 0.961 . S
H456 C440 0.960 . S
C457 C458 1.391 . S
C457 C459 1.394 . S
C457 H473 0.931 . S
C458 C457 1.391 . S
C458 C462 1.376 . S
C459 C457 1.394 . S
C459 C460 1.369 . S
C459 C463 1.531 . S
C460 C459 1.369 . S
C460 C461 1.410 . S
C460 C468 1.503 . S
C461 C460 1.410 . S
C461 C462 1.392 . S
C461 C464 1.511 . S
C462 C458 1.376 . S
C462 C461 1.392 . S
C462 H474 0.929 1_556 S
C463 C459 1.531 . S
C463 H475 0.960 . S
C463 H476 0.962 . S
C463 H477 0.960 . S
C464 C461 1.511 . S
C464 H478 0.961 . S
C464 H479 0.961 . S
C464 H480 0.961 . S
C465 C466 1.370 . S
C465 C467 1.363 . S
C465 H481 0.931 . S
C466 C465 1.370 . S
C466 C470 1.408 . S
C467 C465 1.363 . S
C467 C468 1.370 . S
C467 C471 1.524 . S
C468 C460 1.503 . S
C468 C467 1.370 . S
C468 C469 1.403 . S
C469 C468 1.403 . S
C469 C470 1.404 . S
C469 C472 1.539 . S
C470 C466 1.408 . S
C470 C469 1.404 . S
C470 H482 0.930 . S
C471 C467 1.524 . S
C471 H483 0.956 . S
C471 H484 0.961 . S
C471 H485 0.961 . S
C472 C469 1.539 . S
C472 H486 0.958 . S
C472 H487 0.961 . S
C472 H488 0.960 . S
H473 C457 0.931 . S
H474 C462 0.929 1_554 S
H475 C463 0.960 . S
H476 C463 0.962 . S
H477 C463 0.960 . S
H478 C464 0.961 . S
H479 C464 0.961 . S
H480 C464 0.961 . S
H481 C465 0.931 . S
H482 C470 0.930 . S
H483 C471 0.956 . S
H484 C471 0.961 . S
H485 C471 0.961 . S
H486 C472 0.958 . S
H487 C472 0.961 . S
H488 C472 0.960 . S
C489 C490 1.391 . S
C489 C491 1.394 . S
C489 H505 0.931 . S
C490 C489 1.391 . S
C490 C494 1.376 . S
C491 C489 1.394 . S
C491 C492 1.369 1_554 S
C491 C495 1.531 . S
C492 C491 1.369 1_556 S
C492 C493 1.410 . S
C492 C500 1.503 . S
C493 C492 1.410 . S
C493 C494 1.392 1_556 S
C493 C496 1.511 . S
C494 C490 1.376 . S
C494 C493 1.392 1_554 S
C494 H506 0.929 . S
C495 C491 1.531 . S
C495 H507 0.960 . S
C495 H508 0.962 1_554 S
C495 H509 0.960 . S
C496 C493 1.511 . S
C496 H510 0.961 . S
C496 H511 0.961 . S
C496 H512 0.961 . S
C497 C498 1.370 . S
C497 C499 1.363 . S
C497 H513 0.931 . S
C498 C497 1.370 . S
C498 C502 1.408 . S
C499 C497 1.363 . S
C499 C500 1.370 . S
C499 C503 1.524 . S
C500 C492 1.503 . S
C500 C499 1.370 . S
C500 C501 1.403 . S
C501 C500 1.403 . S
C501 C502 1.404 . S
C501 C504 1.539 1_556 S
C502 C498 1.408 . S
C502 C501 1.404 . S
C502 H514 0.930 . S
C503 C499 1.524 . S
C503 H515 0.956 . S
C503 H516 0.961 . S
C503 H517 0.961 . S
C504 C501 1.539 1_554 S
C504 H518 0.958 . S
C504 H519 0.961 . S
C504 H520 0.960 . S
H505 C489 0.931 . S
H506 C494 0.929 . S
H507 C495 0.960 . S
H508 C495 0.962 1_556 S
H509 C495 0.960 . S
H510 C496 0.961 . S
H511 C496 0.961 . S
H512 C496 0.961 . S
H513 C497 0.931 . S
H514 C502 0.930 . S
H515 C503 0.956 . S
H516 C503 0.961 . S
H517 C503 0.961 . S
H518 C504 0.958 . S
H519 C504 0.961 . S
H520 C504 0.960 . S
C521 C522 1.391 . S
C521 C523 1.394 . S
C521 H537 0.931 . S
C522 C521 1.391 . S
C522 C526 1.376 . S
C523 C521 1.394 . S
C523 C524 1.363 1_554 S
C523 C527 1.531 . S
C524 C523 1.363 1_556 S
C524 C525 1.408 1_556 S
C524 C532 1.512 . S
C525 C524 1.408 1_554 S
C525 C526 1.392 . S
C525 C528 1.511 1_554 S
C526 C522 1.376 . S
C526 C525 1.392 . S
C526 H538 0.929 . S
C527 C523 1.531 . S
C527 H539 0.960 . S
C527 H540 0.962 1_554 S
C527 H541 0.960 . S
C528 C525 1.511 1_556 S
C528 H542 0.961 . S
C528 H543 0.961 . S
C528 H544 0.955 1_556 S
C529 C530 1.370 . S
C529 C531 1.363 . S
C529 H545 0.931 . S
C530 C529 1.370 . S
C530 C534 1.408 . S
C531 C529 1.363 . S
C531 C532 1.370 . S
C531 C535 1.524 . S
C532 C524 1.512 . S
C532 C531 1.370 . S
C532 C533 1.403 . S
C533 C532 1.403 . S
C533 C534 1.404 . S
C533 C536 1.539 1_556 S
C534 C530 1.408 . S
C534 C533 1.404 . S
C534 H546 0.930 . S
C535 C531 1.524 . S
C535 H547 0.956 . S
C535 H548 0.961 . S
C535 H549 0.961 . S
C536 C533 1.539 1_554 S
C536 H550 0.958 . S
C536 H551 0.961 . S
C536 H552 0.960 . S
H537 C521 0.931 . S
H538 C526 0.929 . S
H539 C527 0.960 . S
H540 C527 0.962 1_556 S
H541 C527 0.960 . S
H542 C528 0.961 . S
H543 C528 0.961 . S
H544 C528 0.955 1_554 S
H545 C529 0.931 . S
H546 C534 0.930 . S
H547 C535 0.956 . S
H548 C535 0.961 . S
H549 C535 0.961 . S
H550 C536 0.958 . S
H551 C536 0.961 . S
H552 C536 0.960 . S
C553 C554 1.391 1_554 S
C553 C555 1.394 1_554 S
C553 H569 0.931 . S
C554 C553 1.391 1_556 S
C554 C558 1.376 . S
C555 C553 1.394 1_556 S
C555 C556 1.369 . S
C555 C559 1.531 1_556 S
C556 C555 1.369 . S
C556 C557 1.410 . S
C556 C564 1.503 . S
C557 C556 1.410 . S
C557 C558 1.392 . S
C557 C560 1.511 . S
C558 C554 1.376 . S
C558 C557 1.392 . S
C558 H570 0.929 . S
C559 C555 1.531 1_554 S
C559 H571 0.960 . S
C559 H572 0.962 . S
C559 H573 0.960 . S
C560 C557 1.511 . S
C560 H574 0.961 . S
C560 H575 0.961 . S
C560 H576 0.961 . S
C561 C562 1.370 . S
C561 C563 1.363 . S
C561 H577 0.931 . S
C562 C561 1.370 . S
C562 C566 1.408 . S
C563 C561 1.363 . S
C563 C564 1.370 . S
C563 C567 1.524 . S
C564 C556 1.503 . S
C564 C563 1.370 . S
C564 C565 1.403 . S
C565 C564 1.403 . S
C565 C566 1.404 . S
C565 C568 1.539 . S
C566 C562 1.408 . S
C566 C565 1.404 . S
C566 H578 0.930 . S
C567 C563 1.524 . S
C567 H579 0.956 . S
C567 H580 0.961 . S
C567 H581 0.961 . S
C568 C565 1.539 . S
C568 H582 0.958 . S
C568 H583 0.961 . S
C568 H584 0.960 . S
H569 C553 0.931 . S
H570 C558 0.929 . S
H571 C559 0.960 . S
H572 C559 0.962 . S
H573 C559 0.960 . S
H574 C560 0.961 . S
H575 C560 0.961 . S
H576 C560 0.961 . S
H577 C561 0.931 . S
H578 C566 0.930 . S
H579 C567 0.956 . S
H580 C567 0.961 . S
H581 C567 0.961 . S
H582 C568 0.958 . S
H583 C568 0.961 . S
H584 C568 0.960 . S
C585 C586 1.391 . S
C585 C587 1.394 . S
C585 H601 0.931 . S
C586 C585 1.391 . S
C586 C590 1.376 . S
C587 C585 1.394 . S
C587 C588 1.369 . S
C587 C591 1.531 . S
C588 C587 1.369 . S
C588 C589 1.410 . S
C588 C596 1.503 . S
C589 C588 1.410 . S
C589 C590 1.392 . S
C589 C592 1.511 . S
C590 C586 1.376 . S
C590 C589 1.392 . S
C590 H602 0.929 . S
C591 C587 1.531 . S
C591 H603 0.960 . S
C591 H604 0.962 . S
C591 H605 0.960 . S
C592 C589 1.511 . S
C592 H606 0.961 . S
C592 H607 0.961 . S
C592 H608 0.961 . S
C593 C594 1.370 . S
C593 C595 1.363 . S
C593 H609 0.931 . S
C594 C593 1.370 . S
C594 C598 1.408 . S
C595 C593 1.363 . S
C595 C596 1.370 . S
C595 C599 1.524 . S
C596 C588 1.503 . S
C596 C595 1.370 . S
C596 C597 1.403 . S
C597 C596 1.403 . S
C597 C598 1.404 . S
C597 C600 1.539 . S
C598 C594 1.408 . S
C598 C597 1.404 . S
C598 H610 0.930 . S
C599 C595 1.524 . S
C599 H611 0.956 . S
C599 H612 0.961 . S
C599 H613 0.961 . S
C600 C597 1.539 . S
C600 H614 0.958 . S
C600 H615 0.961 . S
C600 H616 0.960 . S
H601 C585 0.931 . S
H602 C590 0.929 . S
H603 C591 0.960 . S
H604 C591 0.962 . S
H605 C591 0.960 . S
H606 C592 0.961 . S
H607 C592 0.961 . S
H608 C592 0.961 . S
H609 C593 0.931 . S
H610 C598 0.930 . S
H611 C599 0.956 . S
H612 C599 0.961 . S
H613 C599 0.961 . S
H614 C600 0.958 . S
H615 C600 0.961 . S
H616 C600 0.960 . S
C617 C618 1.391 1_556 S
C617 C619 1.394 . S
C617 H633 0.931 . S
C618 C617 1.391 1_554 S
C618 C622 1.376 . S
C619 C617 1.394 . S
C619 C620 1.369 . S
C619 C623 1.531 . S
C620 C619 1.369 . S
C620 C621 1.410 . S
C620 C628 1.503 . S
C621 C620 1.410 . S
C621 C622 1.392 1_556 S
C621 C624 1.511 . S
C622 C618 1.376 . S
C622 C621 1.392 1_554 S
C622 H634 0.929 . S
C623 C619 1.531 . S
C623 H635 0.960 . S
C623 H636 0.962 . S
C623 H637 0.960 . S
C624 C621 1.511 . S
C624 H638 0.961 1_556 S
C624 H639 0.961 . S
C624 H640 0.961 1_556 S
C625 C626 1.370 . S
C625 C627 1.363 . S
C625 H641 0.931 . S
C626 C625 1.370 . S
C626 C630 1.408 . S
C627 C625 1.363 . S
C627 C628 1.370 . S
C627 C631 1.524 . S
C628 C620 1.503 . S
C628 C627 1.370 . S
C628 C629 1.403 . S
C629 C628 1.403 . S
C629 C630 1.404 . S
C629 C632 1.539 . S
C630 C626 1.408 . S
C630 C629 1.404 . S
C630 H642 0.930 . S
C631 C627 1.524 . S
C631 H643 0.956 . S
C631 H644 0.961 . S
C631 H645 0.961 . S
C632 C629 1.539 . S
C632 H646 0.958 . S
C632 H647 0.961 1_556 S
C632 H648 0.960 1_556 S
H633 C617 0.931 . S
H634 C622 0.929 . S
H635 C623 0.960 . S
H636 C623 0.962 . S
H637 C623 0.960 . S
H638 C624 0.961 1_554 S
H639 C624 0.961 . S
H640 C624 0.961 1_554 S
H641 C625 0.931 . S
H642 C630 0.930 . S
H643 C631 0.956 . S
H644 C631 0.961 . S
H645 C631 0.961 . S
H646 C632 0.958 . S
H647 C632 0.961 1_554 S
H648 C632 0.960 1_554 S
C649 C650 1.391 . S
C649 C651 1.394 . S
C649 H665 0.931 . S
C650 C649 1.391 . S
C650 C654 1.376 . S
C651 C649 1.394 . S
C651 C652 1.369 1_554 S
C651 C655 1.531 . S
C652 C651 1.369 1_556 S
C652 C653 1.410 . S
C652 C660 1.503 . S
C653 C652 1.410 . S
C653 C654 1.392 1_556 S
C653 C656 1.511 . S
C654 C650 1.376 . S
C654 C653 1.392 1_554 S
C654 H666 0.929 . S
C655 C651 1.531 . S
C655 H667 0.960 . S
C655 H668 0.962 1_554 S
C655 H669 0.960 . S
C656 C653 1.511 . S
C656 H670 0.961 . S
C656 H671 0.961 . S
C656 H672 0.961 . S
C657 C658 1.370 . S
C657 C659 1.363 . S
C657 H673 0.931 . S
C658 C657 1.370 . S
C658 C662 1.408 . S
C659 C657 1.363 . S
C659 C660 1.370 . S
C659 C663 1.524 . S
C660 C652 1.503 . S
C660 C659 1.370 . S
C660 C661 1.403 . S
C661 C660 1.403 . S
C661 C662 1.404 . S
C661 C664 1.539 1_556 S
C662 C658 1.408 . S
C662 C661 1.404 . S
C662 H674 0.930 . S
C663 C659 1.524 . S
C663 H675 0.956 . S
C663 H676 0.961 . S
C663 H677 0.961 . S
C664 C661 1.539 1_554 S
C664 H678 0.958 . S
C664 H679 0.961 . S
C664 H680 0.960 . S
H665 C649 0.931 . S
H666 C654 0.929 . S
H667 C655 0.960 . S
H668 C655 0.962 1_556 S
H669 C655 0.960 . S
H670 C656 0.961 . S
H671 C656 0.961 . S
H672 C656 0.961 . S
H673 C657 0.931 . S
H674 C662 0.930 . S
H675 C663 0.956 . S
H676 C663 0.961 . S
H677 C663 0.961 . S
H678 C664 0.958 . S
H679 C664 0.961 . S
H680 C664 0.960 . S
C681 C682 1.391 1_556 S
C681 C683 1.394 . S
C681 H697 0.931 . S
C682 C681 1.391 1_554 S
C682 C686 1.376 . S
C683 C681 1.394 . S
C683 C684 1.369 . S
C683 C687 1.531 . S
C684 C683 1.369 . S
C684 C685 1.410 1_556 S
C684 C692 1.503 . S
C685 C684 1.410 1_554 S
C685 C686 1.392 . S
C685 C688 1.511 . S
C686 C682 1.376 . S
C686 C685 1.392 . S
C686 H698 0.929 . S
C687 C683 1.531 . S
C687 H699 0.960 . S
C687 H700 0.962 . S
C687 H701 0.960 . S
C688 C685 1.511 . S
C688 H702 0.961 . S
C688 H703 0.961 . S
C688 H704 0.961 . S
C689 C690 1.370 . S
C689 C691 1.363 . S
C689 H705 0.931 . S
C690 C689 1.370 . S
C690 C694 1.408 . S
C691 C689 1.363 . S
C691 C692 1.370 . S
C691 C695 1.524 . S
C692 C684 1.503 . S
C692 C691 1.370 . S
C692 C693 1.403 . S
C693 C692 1.403 . S
C693 C694 1.404 . S
C693 C696 1.539 . S
C694 C690 1.408 . S
C694 C693 1.404 . S
C694 H706 0.930 . S
C695 C691 1.524 . S
C695 H707 0.956 . S
C695 H708 0.961 . S
C695 H709 0.961 . S
C696 C693 1.539 . S
C696 H710 0.958 . S
C696 H711 0.961 . S
C696 H712 0.960 . S
H697 C681 0.931 . S
H698 C686 0.929 . S
H699 C687 0.960 . S
H700 C687 0.962 . S
H701 C687 0.960 . S
H702 C688 0.961 . S
H703 C688 0.961 . S
H704 C688 0.961 . S
H705 C689 0.931 . S
H706 C694 0.930 . S
H707 C695 0.956 . S
H708 C695 0.961 . S
H709 C695 0.961 . S
H710 C696 0.958 . S
H711 C696 0.961 . S
H712 C696 0.960 . S
C713 C714 1.391 . S
C713 C715 1.394 . S
C713 H729 0.924 1_556 S
C714 C713 1.391 . S
C714 C718 1.376 . S
C715 C713 1.394 . S
C715 C716 1.369 . S
C715 C719 1.531 . S
C716 C715 1.369 . S
C716 C717 1.410 . S
C716 C724 1.503 . S
C717 C716 1.410 . S
C717 C718 1.392 . S
C717 C720 1.511 . S
C718 C714 1.376 . S
C718 C717 1.392 . S
C718 H730 0.929 . S
C719 C715 1.531 . S
C719 H731 0.960 . S
C719 H732 0.962 . S
C719 H733 0.960 . S
C720 C717 1.511 . S
C720 H734 0.961 . S
C720 H735 0.961 . S
C720 H736 0.961 . S
C721 C722 1.370 . S
C721 C723 1.363 . S
C721 H737 0.931 . S
C722 C721 1.370 . S
C722 C726 1.408 . S
C723 C721 1.363 . S
C723 C724 1.370 . S
C723 C727 1.524 . S
C724 C716 1.503 . S
C724 C723 1.370 . S
C724 C725 1.403 . S
C725 C724 1.403 . S
C725 C726 1.404 . S
C725 C728 1.539 . S
C726 C722 1.408 . S
C726 C725 1.404 . S
C726 H738 0.930 . S
C727 C723 1.524 . S
C727 H739 0.956 . S
C727 H740 0.961 . S
C727 H741 0.961 . S
C728 C725 1.539 . S
C728 H742 0.958 . S
C728 H743 0.961 . S
C728 H744 0.960 . S
H729 C713 0.924 1_554 S
H730 C718 0.929 . S
H731 C719 0.960 . S
H732 C719 0.962 . S
H733 C719 0.960 . S
H734 C720 0.961 . S
H735 C720 0.961 . S
H736 C720 0.961 . S
H737 C721 0.931 . S
H738 C726 0.930 . S
H739 C727 0.956 . S
H740 C727 0.961 . S
H741 C727 0.961 . S
H742 C728 0.958 . S
H743 C728 0.961 . S
H744 C728 0.960 . S
C745 C746 1.391 . S
C745 C747 1.394 . S
C745 H761 0.931 . S
C746 C745 1.391 . S
C746 C750 1.376 . S
C747 C745 1.394 . S
C747 C748 1.369 . S
C747 C751 1.531 . S
C748 C747 1.369 . S
C748 C749 1.410 . S
C748 C756 1.503 . S
C749 C748 1.410 . S
C749 C750 1.392 . S
C749 C752 1.511 . S
C750 C746 1.376 . S
C750 C749 1.392 . S
C750 H762 0.929 . S
C751 C747 1.531 . S
C751 H763 0.960 . S
C751 H764 0.962 . S
C751 H765 0.960 . S
C752 C749 1.511 . S
C752 H766 0.961 . S
C752 H767 0.961 . S
C752 H768 0.961 . S
C753 C754 1.370 . S
C753 C755 1.363 . S
C753 H769 0.931 . S
C754 C753 1.370 . S
C754 C758 1.408 . S
C755 C753 1.363 . S
C755 C756 1.370 . S
C755 C759 1.524 . S
C756 C748 1.503 . S
C756 C755 1.370 . S
C756 C757 1.403 . S
C757 C756 1.403 . S
C757 C758 1.404 . S
C757 C760 1.539 . S
C758 C754 1.408 . S
C758 C757 1.404 . S
C758 H770 0.930 . S
C759 C755 1.524 . S
C759 H771 0.956 . S
C759 H772 0.961 . S
C759 H773 0.961 . S
C760 C757 1.539 . S
C760 H774 0.958 . S
C760 H775 0.961 . S
C760 H776 0.960 . S
H761 C745 0.931 . S
H762 C750 0.929 . S
H763 C751 0.960 . S
H764 C751 0.962 . S
H765 C751 0.960 . S
H766 C752 0.961 . S
H767 C752 0.961 . S
H768 C752 0.961 . S
H769 C753 0.931 . S
H770 C758 0.930 . S
H771 C759 0.956 . S
H772 C759 0.961 . S
H773 C759 0.961 . S
H774 C760 0.958 . S
H775 C760 0.961 . S
H776 C760 0.960 . S
C777 C778 1.391 . S
C777 C779 1.394 . S
C777 H793 0.931 . S
C778 C777 1.391 . S
C778 C782 1.376 . S
C779 C777 1.394 . S
C779 C780 1.369 . S
C779 C783 1.531 . S
C780 C779 1.369 . S
C780 C781 1.410 . S
C780 C788 1.503 . S
C781 C780 1.410 . S
C781 C782 1.392 . S
C781 C784 1.511 . S
C782 C778 1.376 . S
C782 C781 1.392 . S
C782 H794 0.929 . S
C783 C779 1.531 . S
C783 H795 0.960 . S
C783 H796 0.962 . S
C783 H797 0.960 . S
C784 C781 1.511 . S
C784 H798 0.961 . S
C784 H799 0.961 . S
C784 H800 0.961 . S
C785 C786 1.370 . S
C785 C787 1.363 . S
C785 H801 0.931 . S
C786 C785 1.370 . S
C786 C790 1.408 . S
C787 C785 1.363 . S
C787 C788 1.370 . S
C787 C791 1.524 . S
C788 C780 1.503 . S
C788 C787 1.370 . S
C788 C789 1.403 . S
C789 C788 1.403 . S
C789 C790 1.404 . S
C789 C792 1.539 . S
C790 C786 1.408 . S
C790 C789 1.404 . S
C790 H802 0.930 . S
C791 C787 1.524 . S
C791 H803 0.956 . S
C791 H804 0.961 . S
C791 H805 0.961 . S
C792 C789 1.539 . S
C792 H806 0.958 . S
C792 H807 0.961 . S
C792 H808 0.960 . S
H793 C777 0.931 . S
H794 C782 0.929 . S
H795 C783 0.960 . S
H796 C783 0.962 . S
H797 C783 0.960 . S
H798 C784 0.961 . S
H799 C784 0.961 . S
H800 C784 0.961 . S
H801 C785 0.931 . S
H802 C790 0.930 . S
H803 C791 0.956 . S
H804 C791 0.961 . S
H805 C791 0.961 . S
H806 C792 0.958 . S
H807 C792 0.961 . S
H808 C792 0.960 . S
C809 C810 1.391 . S
C809 C811 1.394 . S
C809 H825 0.931 . S
C810 C809 1.391 . S
C810 C814 1.376 . S
C811 C809 1.394 . S
C811 C812 1.369 . S
C811 C815 1.531 . S
C812 C811 1.369 . S
C812 C813 1.410 . S
C812 C820 1.503 . S
C813 C812 1.410 . S
C813 C814 1.392 . S
C813 C816 1.511 . S
C814 C810 1.376 . S
C814 C813 1.392 . S
C814 H826 0.929 . S
C815 C811 1.531 . S
C815 H827 0.960 . S
C815 H828 0.962 . S
C815 H829 0.960 . S
C816 C813 1.511 . S
C816 H830 0.961 . S
C816 H831 0.961 . S
C816 H832 0.961 . S
C817 C818 1.370 . S
C817 C819 1.363 . S
C817 H833 0.931 . S
C818 C817 1.370 . S
C818 C822 1.408 . S
C819 C817 1.363 . S
C819 C820 1.370 . S
C819 C823 1.524 . S
C820 C812 1.503 . S
C820 C819 1.370 . S
C820 C821 1.403 . S
C821 C820 1.403 . S
C821 C822 1.404 . S
C821 C824 1.539 . S
C822 C818 1.408 . S
C822 C821 1.404 . S
C822 H834 0.930 . S
C823 C819 1.524 . S
C823 H835 0.956 . S
C823 H836 0.961 . S
C823 H837 0.961 . S
C824 C821 1.539 . S
C824 H838 0.958 . S
C824 H839 0.961 . S
C824 H840 0.960 . S
H825 C809 0.931 . S
H826 C814 0.929 . S
H827 C815 0.960 . S
H828 C815 0.962 . S
H829 C815 0.960 . S
H830 C816 0.961 . S
H831 C816 0.961 . S
H832 C816 0.961 . S
H833 C817 0.931 . S
H834 C822 0.930 . S
H835 C823 0.956 . S
H836 C823 0.961 . S
H837 C823 0.961 . S
H838 C824 0.958 . S
H839 C824 0.961 . S
H840 C824 0.960 . S
C841 C842 1.391 . S
C841 C843 1.394 . S
C841 H857 0.931 . S
C842 C841 1.391 . S
C842 C846 1.376 . S
C843 C841 1.394 . S
C843 C844 1.369 . S
C843 C847 1.531 . S
C844 C843 1.369 . S
C844 C845 1.410 . S
C844 C852 1.503 . S
C845 C844 1.410 . S
C845 C846 1.392 . S
C845 C848 1.511 . S
C846 C842 1.376 . S
C846 C845 1.392 . S
C846 H858 0.929 . S
C847 C843 1.531 . S
C847 H859 0.960 . S
C847 H860 0.962 . S
C847 H861 0.960 . S
C848 C845 1.511 . S
C848 H862 0.961 . S
C848 H863 0.961 . S
C848 H864 0.961 . S
C849 C850 1.370 . S
C849 C851 1.363 . S
C849 H865 0.931 . S
C850 C849 1.370 . S
C850 C854 1.408 . S
C851 C849 1.363 . S
C851 C852 1.370 . S
C851 C855 1.524 . S
C852 C844 1.503 . S
C852 C851 1.370 . S
C852 C853 1.403 . S
C853 C852 1.403 . S
C853 C854 1.404 . S
C853 C856 1.539 . S
C854 C850 1.408 . S
C854 C853 1.404 . S
C854 H866 0.930 . S
C855 C851 1.524 . S
C855 H867 0.956 . S
C855 H868 0.961 . S
C855 H869 0.961 . S
C856 C853 1.539 . S
C856 H870 0.958 . S
C856 H871 0.961 . S
C856 H872 0.960 . S
H857 C841 0.931 . S
H858 C846 0.929 . S
H859 C847 0.960 . S
H860 C847 0.962 . S
H861 C847 0.960 . S
H862 C848 0.961 . S
H863 C848 0.961 . S
H864 C848 0.961 . S
H865 C849 0.931 . S
H866 C854 0.930 . S
H867 C855 0.956 . S
H868 C855 0.961 . S
H869 C855 0.961 . S
H870 C856 0.958 . S
H871 C856 0.961 . S
H872 C856 0.960 . S
C873 C874 1.391 . S
C873 C875 1.394 . S
C873 H889 0.931 . S
C874 C873 1.391 . S
C874 C878 1.376 . S
C875 C873 1.394 . S
C875 C876 1.369 . S
C875 C879 1.531 . S
C876 C875 1.369 . S
C876 C877 1.410 . S
C876 C884 1.503 . S
C877 C876 1.410 . S
C877 C878 1.392 . S
C877 C880 1.511 . S
C878 C874 1.376 . S
C878 C877 1.392 . S
C878 H890 0.929 . S
C879 C875 1.531 . S
C879 H891 0.960 . S
C879 H892 0.962 . S
C879 H893 0.960 . S
C880 C877 1.511 . S
C880 H894 0.961 . S
C880 H895 0.961 . S
C880 H896 0.961 . S
C881 C882 1.370 . S
C881 C883 1.363 . S
C881 H897 0.931 . S
C882 C881 1.370 . S
C882 C886 1.408 . S
C883 C881 1.363 . S
C883 C884 1.370 . S
C883 C887 1.524 . S
C884 C876 1.503 . S
C884 C883 1.370 . S
C884 C885 1.403 . S
C885 C884 1.403 . S
C885 C886 1.404 . S
C885 C888 1.539 . S
C886 C882 1.408 . S
C886 C885 1.404 . S
C886 H898 0.930 . S
C887 C883 1.524 . S
C887 H899 0.956 . S
C887 H900 0.961 . S
C887 H901 0.961 . S
C888 C885 1.539 . S
C888 H902 0.958 . S
C888 H903 0.961 . S
C888 H904 0.960 . S
H889 C873 0.931 . S
H890 C878 0.929 . S
H891 C879 0.960 . S
H892 C879 0.962 . S
H893 C879 0.960 . S
H894 C880 0.961 . S
H895 C880 0.961 . S
H896 C880 0.961 . S
H897 C881 0.931 . S
H898 C886 0.930 . S
H899 C887 0.956 . S
H900 C887 0.961 . S
H901 C887 0.961 . S
H902 C888 0.958 . S
H903 C888 0.961 . S
H904 C888 0.960 . S
C905 C906 1.391 . S
C905 C907 1.394 . S
C905 H921 0.931 . S
C906 C905 1.391 . S
C906 C910 1.376 . S
C907 C905 1.394 . S
C907 C908 1.369 . S
C907 C911 1.531 . S
C908 C907 1.369 . S
C908 C909 1.410 . S
C908 C916 1.503 . S
C909 C908 1.410 . S
C909 C910 1.392 . S
C909 C912 1.511 . S
C910 C906 1.376 . S
C910 C909 1.392 . S
C910 H922 0.929 . S
C911 C907 1.531 . S
C911 H923 0.960 . S
C911 H924 0.962 . S
C911 H925 0.960 . S
C912 C909 1.511 . S
C912 H926 0.961 . S
C912 H927 0.961 . S
C912 H928 0.961 . S
C913 C914 1.370 . S
C913 C915 1.363 . S
C913 H929 0.931 . S
C914 C913 1.370 . S
C914 C918 1.408 . S
C915 C913 1.363 . S
C915 C916 1.370 . S
C915 C919 1.524 . S
C916 C908 1.503 . S
C916 C915 1.370 . S
C916 C917 1.403 . S
C917 C916 1.403 . S
C917 C918 1.404 . S
C917 C920 1.539 . S
C918 C914 1.408 . S
C918 C917 1.404 . S
C918 H930 0.930 . S
C919 C915 1.524 . S
C919 H931 0.956 . S
C919 H932 0.961 . S
C919 H933 0.961 . S
C920 C917 1.539 . S
C920 H934 0.958 . S
C920 H935 0.961 . S
C920 H936 0.960 . S
H921 C905 0.931 . S
H922 C910 0.929 . S
H923 C911 0.960 . S
H924 C911 0.962 . S
H925 C911 0.960 . S
H926 C912 0.961 . S
H927 C912 0.961 . S
H928 C912 0.961 . S
H929 C913 0.931 . S
H930 C918 0.930 . S
H931 C919 0.956 . S
H932 C919 0.961 . S
H933 C919 0.961 . S
H934 C920 0.958 . S
H935 C920 0.961 . S
H936 C920 0.960 . S
C937 C938 1.391 . S
C937 C939 1.394 . S
C937 H953 0.931 . S
C938 C937 1.391 . S
C938 C942 1.376 . S
C939 C937 1.394 . S
C939 C940 1.369 . S
C939 C943 1.531 . S
C940 C939 1.369 . S
C940 C941 1.410 . S
C940 C948 1.503 . S
C941 C940 1.410 . S
C941 C942 1.392 . S
C941 C944 1.511 . S
C942 C938 1.376 . S
C942 C941 1.392 . S
C942 H954 0.929 . S
C943 C939 1.531 . S
C943 H955 0.960 . S
C943 H956 0.962 . S
C943 H957 0.960 . S
C944 C941 1.511 . S
C944 H958 0.961 . S
C944 H959 0.961 . S
C944 H960 0.961 . S
C945 C946 1.370 . S
C945 C947 1.363 . S
C945 H961 0.931 . S
C946 C945 1.370 . S
C946 C950 1.408 . S
C947 C945 1.363 . S
C947 C948 1.370 . S
C947 C951 1.524 . S
C948 C940 1.503 . S
C948 C947 1.370 . S
C948 C949 1.403 . S
C949 C948 1.403 . S
C949 C950 1.404 . S
C949 C952 1.539 . S
C950 C946 1.408 . S
C950 C949 1.404 . S
C950 H962 0.930 . S
C951 C947 1.524 . S
C951 H963 0.956 . S
C951 H964 0.961 . S
C951 H965 0.961 . S
C952 C949 1.539 . S
C952 H966 0.958 . S
C952 H967 0.961 . S
C952 H968 0.960 . S
H953 C937 0.931 . S
H954 C942 0.929 . S
H955 C943 0.960 . S
H956 C943 0.962 . S
H957 C943 0.960 . S
H958 C944 0.961 . S
H959 C944 0.961 . S
H960 C944 0.961 . S
H961 C945 0.931 . S
H962 C950 0.930 . S
H963 C951 0.956 . S
H964 C951 0.961 . S
H965 C951 0.961 . S
H966 C952 0.958 . S
H967 C952 0.961 . S
H968 C952 0.960 . S
C202 C16 1.698 . S
C210 C108 1.757 . S
C234 C26 1.491 . S
C242 C140 1.560 . S
C274 C199 1.886 . S
C266 C52 1.859 . S
C306 C128 1.440 . S
C298 C62 1.465 . S
C330 C80 1.632 . S
C338 C158 1.621 . S
C370 C180 1.318 . S
C362 C98 1.289 . S
C402 C149 1.736 . S
C394 C43 1.655 . S
C426 C68 1.370 . S
C434 C189 1.324 . S
C466 C138 1.633 . S
C458 C86 1.625 1_556 S
C490 C104 1.495 . S
C498 C168 1.513 . S
C522 C7 1.785 . S
C530 C171 1.816 . S
C562 C110 1.627 . S
C554 C32 1.596 1_556 S
C594 C118 1.668 . S
C586 C61 1.658 . S
C626 C159 1.509 . S
C618 C79 1.471 . S
C658 C172 1.883 . S
C650 C97 1.877 . S
C690 C109 1.435 . S
C682 C14 1.448 . S
C722 C169 1.564 . S
C714 C25 1.533 1_556 S
C746 C50 1.287 . S
C754 C170 1.282 . S
C786 C139 1.639 . S
C778 C106 1.632 . S
C818 C200 1.260 . S
C810 C8 1.243 . S
C850 C127 1.546 . S
C842 C34 1.566 . S
C882 C141 1.530 . S
C874 C44 1.534 . S
C906 C70 1.812 . S
C914 C190 1.789 . S
C938 C88 1.587 . S
C946 C137 1.602 . S
