# Generated by pormake.
# Topology anh, (6,3)-cn, num edge types: 1
# Building blocks:
#     Node 0, Type 0, BuildingBlock: MIFKUJ_clean_sbu_0, # of connection points: 6
#     Node 1, Type 0, BuildingBlock: MIFKUJ_clean_sbu_0, # of connection points: 6
#     Node 2, Type 0, BuildingBlock: MIFKUJ_clean_sbu_0, # of connection points: 6
#     Node 3, Type 1, BuildingBlock: QEWDON_clean_linker_0, # of connection points: 3
#     Node 4, Type 1, BuildingBlock: QEWDON_clean_linker_0, # of connection points: 3
#     Node 5, Type 1, BuildingBlock: QEWDON_clean_linker_0, # of connection points: 3
#     Node 6, Type 1, BuildingBlock: QEWDON_clean_linker_0, # of connection points: 3
#     Node 7, Type 1, BuildingBlock: QEWDON_clean_linker_0, # of connection points: 3
#     Node 8, Type 1, BuildingBlock: QEWDON_clean_linker_0, # of connection points: 3
#     Edge 9, Type (0, 1), BuildingBlock: EZIPEK_clean_linker_0, # of connection points: 2
#     Edge 10, Type (0, 1), BuildingBlock: EZIPEK_clean_linker_0, # of connection points: 2
#     Edge 11, Type (0, 1), BuildingBlock: EZIPEK_clean_linker_0, # of connection points: 2
#     Edge 12, Type (0, 1), BuildingBlock: EZIPEK_clean_linker_0, # of connection points: 2
#     Edge 13, Type (0, 1), BuildingBlock: EZIPEK_clean_linker_0, # of connection points: 2
#     Edge 14, Type (0, 1), BuildingBlock: EZIPEK_clean_linker_0, # of connection points: 2
#     Edge 15, Type (0, 1), BuildingBlock: EZIPEK_clean_linker_0, # of connection points: 2
#     Edge 16, Type (0, 1), BuildingBlock: EZIPEK_clean_linker_0, # of connection points: 2
#     Edge 17, Type (0, 1), BuildingBlock: EZIPEK_clean_linker_0, # of connection points: 2
#     Edge 18, Type (0, 1), BuildingBlock: EZIPEK_clean_linker_0, # of connection points: 2
#     Edge 19, Type (0, 1), BuildingBlock: EZIPEK_clean_linker_0, # of connection points: 2
#     Edge 20, Type (0, 1), BuildingBlock: EZIPEK_clean_linker_0, # of connection points: 2
#     Edge 21, Type (0, 1), BuildingBlock: EZIPEK_clean_linker_0, # of connection points: 2
#     Edge 22, Type (0, 1), BuildingBlock: EZIPEK_clean_linker_0, # of connection points: 2
#     Edge 23, Type (0, 1), BuildingBlock: EZIPEK_clean_linker_0, # of connection points: 2
#     Edge 24, Type (0, 1), BuildingBlock: EZIPEK_clean_linker_0, # of connection points: 2
#     Edge 25, Type (0, 1), BuildingBlock: EZIPEK_clean_linker_0, # of connection points: 2
#     Edge 26, Type (0, 1), BuildingBlock: EZIPEK_clean_linker_0, # of connection points: 2
# Relax obj value: 0.062
# Max RMSD: 0.126
# Mean RMSD: 0.110
data_MOF--net-anh--node1-MIFKUJ_clean_sbu_0--node2-QEWDON_clean_linker_0--edge1-EZIPEK_clean_linker_0
_symmetry_space_group_name_H-M    P1
_symmetry_Int_Tables_number       1
_symmetry_cell_setting            triclinic
loop_
_symmetry_equiv_pos_as_xyz
'x, y, z'
_cell_length_a     26.065426
_cell_length_b     25.974126
_cell_length_c     32.554493
_cell_angle_alpha  98.137703
_cell_angle_beta   94.770631
_cell_angle_gamma 120.16336
loop_
_atom_site_label
_atom_site_type_symbol
_atom_site_fract_x
_atom_site_fract_y
_atom_site_fract_z
_atom_type_partial_charge
Zn0 Zn 0.1003 0.60947 0.16871 0.0
Zn1 Zn 0.90835 0.50889 0.15596 0.0
C2 C 0.20023 0.60062 0.18059 0.0
O3 O 0.21241 0.64745 0.20998 0.0
C4 C 0.80681 0.52315 0.14468 0.0
O5 O 0.78772 0.47446 0.11503 0.0
O6 O 0.1465 0.69822 0.16655 0.0
O7 O 0.02055 0.567 0.13364 0.0
O8 O 0.93068 0.51764 0.09738 0.0
C9 C 0.17246 0.71568 0.13558 0.0
O10 O 0.16959 0.67398 0.1059 0.0
O11 O 0.14946 0.57182 0.15607 0.0
C12 C 0.81918 0.40183 0.17874 0.0
O13 O 0.82617 0.44313 0.21072 0.0
O14 O 0.85535 0.41862 0.15299 0.0
O15 O 0.98197 0.54797 0.20413 0.0
O16 O 0.0811 0.60042 0.22625 0.0
O17 O 0.85896 0.54832 0.1671 0.0
C18 C -0.01304 0.54699 0.09809 0.0
C19 C 0.0276 0.57218 0.23385 0.0
Zn20 Zn 0.57126 0.1348 0.50174 0.0
Zn21 Zn 0.47726 0.94225 0.49701 0.0
C22 C 0.68217 0.23534 0.5147 0.0
O23 O 0.65458 0.24775 0.54295 0.0
C24 C 0.36165 0.83799 0.4966 0.0
O25 O 0.38214 0.81215 0.47071 0.0
O26 O 0.53817 0.1893 0.49614 0.0
O27 O 0.52133 0.05292 0.46128 0.0
O28 O 0.46727 0.95411 0.43705 0.0
C29 C 0.53855 0.20903 0.46249 0.0
O30 O 0.5506 0.18524 0.42913 0.0
O31 O 0.65551 0.18238 0.49125 0.0
C32 C 0.50807 0.85975 0.52333 0.0
O33 O 0.47994 0.86473 0.55389 0.0
O34 O 0.51998 0.8956 0.49811 0.0
O35 O 0.52538 0.02597 0.53302 0.0
O36 O 0.5768 0.1224 0.56197 0.0
O37 O 0.39467 0.89457 0.51305 0.0
C38 C 0.49204 0.00791 0.43026 0.0
C39 C 0.55202 0.06751 0.56607 0.0
Zn40 Zn 0.60356 0.46737 0.83822 0.0
Zn41 Zn 0.51343 0.56599 0.8306 0.0
C42 C 0.57631 0.35561 0.85341 0.0
O43 O 0.61544 0.39549 0.88666 0.0
C44 C 0.5417 0.68129 0.82741 0.0
O45 O 0.50016 0.6464 0.79378 0.0
O46 O 0.69246 0.50027 0.84337 0.0
O47 O 0.57491 0.49991 0.79292 0.0
O48 O 0.52965 0.54758 0.77297 0.0
C49 C 0.71085 0.47906 0.81444 0.0
O50 O 0.67247 0.44031 0.78048 0.0
O51 O 0.56365 0.37648 0.82365 0.0
C52 C 0.40416 0.54208 0.86178 0.0
O53 O 0.44021 0.56567 0.89865 0.0
O54 O 0.42473 0.53491 0.82879 0.0
O55 O 0.54476 0.52726 0.86316 0.0
O56 O 0.58454 0.48602 0.896 0.0
O57 O 0.56003 0.65665 0.85085 0.0
C58 C 0.55746 0.51978 0.76452 0.0
C59 C 0.55585 0.51333 0.89683 0.0
H60 H 0.52349 0.10398 0.2511 0.0
C61 C 0.48382 0.06176 0.2339 0.0
C62 C 0.4523 0.01481 0.25519 0.0
C63 C 0.46172 0.05578 0.19147 0.0
H64 H 0.37573 0.9245 0.25009 0.0
C65 C 0.40014 0.96069 0.23356 0.0
C66 C 0.37825 0.95362 0.19113 0.0
C67 C 0.40883 0.00135 0.17029 0.0
C68 C 0.49029 0.10838 0.17069 0.0
H69 H 0.39093 -0.00384 0.1377 0.0
C70 C 0.55352 0.14465 0.17501 0.0
C71 C 0.58001 0.19804 0.15883 0.0
C72 C 0.45399 0.12465 0.14832 0.0
H73 H 0.40531 0.09805 0.14487 0.0
C74 C 0.48012 0.17667 0.13139 0.0
H75 H 0.5821 0.13222 0.1916 0.0
C76 C 0.54267 0.21349 0.13692 0.0
H77 H 0.56209 0.25432 0.12414 0.0
H78 H 0.45179 0.18906 0.11453 0.0
H79 H 0.52962 0.55507 0.58624 0.0
C80 C 0.53602 0.52191 0.56684 0.0
C81 C 0.55651 0.48898 0.58628 0.0
C82 C 0.5185 0.50824 0.52282 0.0
H83 H 0.57624 0.41739 0.57618 0.0
C84 C 0.56212 0.44412 0.56123 0.0
C85 C 0.54276 0.42868 0.51747 0.0
C86 C 0.52215 0.46151 0.49822 0.0
C87 C 0.48678 0.53531 0.50366 0.0
H88 H 0.5057 0.44826 0.46447 0.0
C89 C 0.51168 0.59883 0.51199 0.0
C90 C 0.47778 0.62309 0.49724 0.0
C91 C 0.42868 0.49661 0.47939 0.0
H92 H 0.40832 0.44759 0.47302 0.0
C93 C 0.39531 0.52059 0.46446 0.0
H94 H 0.55674 0.62913 0.53029 0.0
C95 C 0.41938 0.5833 0.47358 0.0
H96 H 0.39248 0.60099 0.46196 0.0
H97 H 0.35033 0.4904 0.44618 0.0
H98 H 0.10704 0.56435 0.91981 0.0
C99 C 0.06338 0.55307 0.90405 0.0
C100 C 0.02084 0.55018 0.92895 0.0
C101 C 0.04895 0.54104 0.8595 0.0
H102 H 0.93219 0.53629 0.92914 0.0
C103 C 0.96491 0.53826 0.90987 0.0
C104 C 0.95001 0.52701 0.86612 0.0
C105 C -0.00889 0.527 0.84103 0.0
C106 C 0.09331 0.54283 0.83218 0.0
H107 H 0.97679 0.5149 0.80716 0.0
C108 C 0.14005 0.53314 0.84627 0.0
C109 C 0.18223 0.53702 0.82066 0.0
C110 C 0.08997 0.55555 0.79157 0.0
H111 H 0.05704 0.56599 0.77969 0.0
C112 C 0.13032 0.55671 0.76562 0.0
H113 H 0.14482 0.52348 0.87713 0.0
C114 C 0.17635 0.5477 0.78006 0.0
H115 H 0.2087 0.55107 0.7601 0.0
H116 H 0.12685 0.56631 0.73455 0.0
H117 H 0.95339 0.53402 0.42047 0.0
C118 C -0.0006 0.56655 0.43645 0.0
C119 C 0.04472 0.59304 0.4126 0.0
C120 C 0.01261 0.58482 0.48066 0.0
H121 H 0.13862 0.658 0.41465 0.0
C122 C 0.10374 0.63647 0.43316 0.0
C123 C 0.11709 0.6563 0.47707 0.0
C124 C 0.07152 0.63043 0.50091 0.0
C125 C 0.96349 0.55933 0.50503 0.0
H126 H 0.08168 0.64649 0.53485 0.0
C127 C 0.92486 0.49596 0.49888 0.0
C128 C 0.87562 0.47172 0.51982 0.0
C129 C 0.95307 0.59822 0.53287 0.0
H130 H 0.98198 0.64724 0.53766 0.0
C131 C 0.90406 0.57404 0.55378 0.0
H132 H 0.93275 0.46551 0.47767 0.0
C133 C 0.86534 0.51104 0.54725 0.0
H134 H 0.82736 0.49286 0.56357 0.0
H135 H 0.89584 0.6042 0.57486 0.0
H136 H 0.54911 0.97661 0.75037 0.0
C137 C 0.55427 0.01947 0.76511 0.0
C138 C 0.56313 0.06276 0.74073 0.0
C139 C 0.54556 0.02887 0.80697 0.0
H140 H 0.57417 0.15057 0.7401 0.0
C141 C 0.56781 0.11737 0.75907 0.0
C142 C 0.55978 0.12746 0.80076 0.0
C143 C 0.54848 0.08309 0.82455 0.0
C144 C 0.52457 0.97857 0.82991 0.0
H145 H 0.54026 0.09014 0.85638 0.0
C146 C 0.55244 0.94423 0.83058 0.0
C147 C 0.52591 0.8904 0.84616 0.0
C148 C 0.47261 0.9612 0.848 0.0
H149 H 0.44995 0.98652 0.84759 0.0
C150 C 0.44765 0.90925 0.86503 0.0
H151 H 0.59299 0.9577 0.81725 0.0
C152 C 0.47348 0.87349 0.86356 0.0
H153 H 0.45216 0.83211 0.87565 0.0
H154 H 0.40716 0.89572 0.87835 0.0
H155 H 0.48409 0.58804 0.08307 0.0
C156 C 0.52017 0.58217 0.09576 0.0
C157 C 0.54757 0.56185 0.06802 0.0
C158 C 0.54244 0.59932 0.13946 0.0
H159 H 0.61646 0.54021 0.06211 0.0
C160 C 0.59519 0.55567 0.08385 0.0
C161 C 0.6183 0.57298 0.1271 0.0
C162 C 0.59223 0.59538 0.15492 0.0
C163 C 0.51682 0.62621 0.16809 0.0
H164 H 0.61086 0.60987 0.18835 0.0
C165 C 0.45399 0.6001 0.16358 0.0
C166 C 0.42996 0.62979 0.18706 0.0
C167 C 0.55517 0.68075 0.19796 0.0
H168 H 0.60372 0.70222 0.20171 0.0
C169 C 0.53122 0.70944 0.22214 0.0
H170 H 0.4238 0.55775 0.14096 0.0
C171 C 0.46898 0.68446 0.21651 0.0
H172 H 0.45117 0.70794 0.23491 0.0
H173 H 0.56105 0.75178 0.24472 0.0
C174 C 0.27584 0.58027 0.21412 0.0
C175 C 0.24676 0.58421 0.17692 0.0
C176 C 0.33282 0.60419 0.14263 0.0
C177 C 0.36391 0.60477 0.18087 0.0
N178 N 0.3593 0.57505 0.2479 0.0
N179 N 0.23679 0.57426 0.10135 0.0
C180 C 0.3333 0.58653 0.21498 0.0
C181 C 0.27139 0.58706 0.13955 0.0
N182 N 0.24883 0.57206 0.24885 0.0
N183 N 0.36287 0.62439 0.11039 0.0
H184 H 0.19139 0.56053 0.09764 0.0
H185 H 0.25109 0.57011 0.07279 0.0
H186 H 0.40826 0.63892 0.1114 0.0
H187 H 0.34412 0.63162 0.08392 0.0
H188 H 0.27045 0.57669 0.27868 0.0
H189 H 0.20452 0.56195 0.24778 0.0
H190 H 0.33768 0.55726 0.27237 0.0
H191 H 0.401 0.57837 0.24881 0.0
C192 C 0.74872 0.30835 0.47317 0.0
C193 C 0.74211 0.28467 0.51031 0.0
C194 C 0.83616 0.37655 0.54774 0.0
C195 C 0.83487 0.40494 0.51389 0.0
N196 N 0.79032 0.39908 0.444 0.0
N197 N 0.78169 0.29187 0.58171 0.0
C198 C 0.79208 0.37086 0.47605 0.0
C199 C 0.78718 0.31724 0.54707 0.0
N200 N 0.71329 0.27162 0.43544 0.0
N201 N 0.88441 0.40643 0.58025 0.0
H202 H 0.74882 0.24663 0.58086 0.0
H203 H 0.80819 0.31575 0.61137 0.0
H204 H 0.92117 0.44983 0.58123 0.0
H205 H 0.89064 0.3866 0.60432 0.0
H206 H 0.71994 0.28498 0.40671 0.0
H207 H 0.68105 0.22567 0.43206 0.0
H208 H 0.75582 0.37845 0.41777 0.0
H209 H 0.82123 0.44481 0.44482 0.0
C210 C 0.56921 0.776 0.80294 0.0
C211 C 0.56265 0.74712 0.83746 0.0
C212 C 0.56306 0.8323 0.88087 0.0
C213 C 0.55064 0.84957 0.84359 0.0
N214 N 0.53843 0.83368 0.76719 0.0
N215 N 0.5564 0.75038 0.91173 0.0
C216 C 0.55431 0.82152 0.80405 0.0
C217 C 0.56207 0.77665 0.87755 0.0
N218 N 0.58796 0.75838 0.76867 0.0
N219 N 0.5752 0.86892 0.91931 0.0
H220 H 0.55788 0.71119 0.91196 0.0
H221 H 0.54712 0.76619 0.93968 0.0
H222 H 0.57721 0.91049 0.92236 0.0
H223 H 0.58944 0.86128 0.94746 0.0
H224 H 0.59806 0.78117 0.74385 0.0
H225 H 0.59982 0.72537 0.76773 0.0
H226 H 0.535 0.80949 0.73764 0.0
H227 H 0.52292 0.86337 0.76558 0.0
C228 C 0.72049 0.52224 0.17324 0.0
C229 C 0.76783 0.54885 0.15023 0.0
C230 C 0.72666 0.60802 0.12628 0.0
C231 C 0.6731 0.57163 0.14167 0.0
N232 N 0.61743 0.49172 0.17868 0.0
N233 N 0.81739 0.61757 0.10472 0.0
C234 C 0.66987 0.52881 0.16559 0.0
C235 C 0.77188 0.59268 0.12718 0.0
N236 N 0.72426 0.491 0.20252 0.0
N237 N 0.73399 0.65717 0.11091 0.0
H238 H 0.85255 0.6091 0.10612 0.0
H239 H 0.8186 0.64395 0.08309 0.0
H240 H 0.70192 0.67001 0.11064 0.0
H241 H 0.77391 0.68839 0.10229 0.0
H242 H 0.69381 0.47499 0.22305 0.0
H243 H 0.76189 0.48739 0.20939 0.0
H244 H 0.61047 0.45502 0.19197 0.0
H245 H 0.57909 0.49467 0.17355 0.0
C246 C 0.25376 0.81115 0.48867 0.0
C247 C 0.29947 0.80086 0.50453 0.0
C248 C 0.22307 0.7006 0.51485 0.0
C249 C 0.17777 0.70938 0.49633 0.0
N250 N 0.14761 0.77852 0.47941 0.0
N251 N 0.3285 0.74635 0.54542 0.0
C252 C 0.19255 0.76695 0.48822 0.0
C253 C 0.28427 0.74895 0.52196 0.0
N254 N 0.26827 0.86056 0.4712 0.0
N255 N 0.20787 0.6452 0.52346 0.0
H256 H 0.37338 0.78187 0.5516 0.0
H257 H 0.32008 0.71234 0.5621 0.0
H258 H 0.1632 0.60965 0.51983 0.0
H259 H 0.23934 0.63353 0.53236 0.0
H260 H 0.23633 0.86621 0.45439 0.0
H261 H 0.31254 0.89442 0.47119 0.0
H262 H 0.15551 0.82121 0.47651 0.0
H263 H 0.10245 0.74662 0.47926 0.0
C264 C 0.59172 0.27293 0.87227 0.0
C265 C 0.55782 0.28984 0.84717 0.0
C266 C 0.51068 0.18955 0.79936 0.0
C267 C 0.55704 0.18189 0.81803 0.0
N268 N 0.64598 0.22033 0.8708 0.0
N269 N 0.47295 0.25685 0.79223 0.0
C270 C 0.59866 0.22453 0.85424 0.0
C271 C 0.51344 0.24578 0.81223 0.0
N272 N 0.61387 0.29993 0.91398 0.0
N273 N 0.46284 0.14219 0.77087 0.0
H274 H 0.46557 0.29092 0.8057 0.0
H275 H 0.44625 0.23189 0.76277 0.0
H276 H 0.4581 0.09959 0.76214 0.0
H277 H 0.42508 0.14289 0.75864 0.0
H278 H 0.63596 0.28616 0.93383 0.0
H279 H 0.60116 0.32818 0.93006 0.0
H280 H 0.68042 0.25412 0.8949 0.0
H281 H 0.65391 0.18642 0.85789 0.0
C282 C 0.50281 0.77074 0.47401 0.0
C283 C 0.5168 0.80686 0.51538 0.0
C284 C 0.51555 0.72528 0.54598 0.0
C285 C 0.5024 0.68998 0.50481 0.0
N286 N 0.50728 0.68932 0.43126 0.0
N287 N 0.55892 0.82674 0.58872 0.0
C288 C 0.50455 0.71655 0.46944 0.0
C289 C 0.53078 0.78683 0.55071 0.0
N290 N 0.48293 0.78415 0.43918 0.0
N291 N 0.50993 0.69955 0.58041 0.0
H292 H 0.57292 0.87278 0.59265 0.0
H293 H 0.57446 0.81576 0.61467 0.0
H294 H 0.49735 0.65424 0.57852 0.0
H295 H 0.51288 0.72198 0.6105 0.0
H296 H 0.46538 0.75425 0.40981 0.0
H297 H 0.47812 0.82145 0.43933 0.0
H298 H 0.51428 0.7096 0.40519 0.0
H299 H 0.50933 0.64983 0.4272 0.0
C300 C 0.78035 0.44201 0.83182 0.0
C301 C 0.77238 0.48964 0.82251 0.0
C302 C 0.88177 0.5611 0.83848 0.0
C303 C 0.88968 0.51315 0.84694 0.0
N304 N 0.84902 0.40626 0.8443 0.0
N305 N 0.81411 0.5907 0.80915 0.0
C306 C 0.83964 0.45296 0.84114 0.0
C307 C 0.82279 0.54814 0.82346 0.0
N308 N 0.73139 0.3873 0.83392 0.0
N309 N 0.93046 0.61931 0.84625 0.0
H310 H 0.77136 0.58248 0.79809 0.0
H311 H 0.84901 0.63218 0.805 0.0
H312 H 0.97454 0.63008 0.85586 0.0
H313 H 0.92712 0.65746 0.84553 0.0
H314 H 0.73447 0.35357 0.84576 0.0
H315 H 0.68708 0.37679 0.82652 0.0
H316 H 0.81497 0.36047 0.83613 0.0
H317 H 0.89191 0.4129 0.85184 0.0
C318 C 0.21302 0.82647 0.16814 0.0
C319 C 0.21522 0.78241 0.1382 0.0
C320 C 0.3204 0.85555 0.1363 0.0
C321 C 0.32068 0.89734 0.1696 0.0
N322 N 0.26438 0.93094 0.20859 0.0
N323 N 0.25865 0.77083 0.07749 0.0
C324 C 0.26583 0.88543 0.18283 0.0
C325 C 0.26501 0.80168 0.11698 0.0
N326 N 0.16011 0.81189 0.18175 0.0
N327 N 0.3731 0.86563 0.12426 0.0
H328 H 0.21659 0.73678 0.06004 0.0
H329 H 0.29297 0.78558 0.05971 0.0
H330 H 0.415 0.90416 0.13792 0.0
H331 H 0.37553 0.83312 0.10315 0.0
H332 H 0.15633 0.83785 0.20738 0.0
H333 H 0.11908 0.77332 0.1664 0.0
H334 H 0.2255 0.92705 0.21768 0.0
H335 H 0.30202 0.97489 0.21876 0.0
C336 C 0.57663 0.31733 0.45493 0.0
C337 C 0.53017 0.26179 0.46323 0.0
C338 C 0.48222 0.31533 0.49338 0.0
C339 C 0.53502 0.37165 0.49328 0.0
N340 N 0.63272 0.42787 0.4742 0.0
N341 N 0.43463 0.20576 0.48538 0.0
C342 C 0.58194 0.37313 0.47354 0.0
C343 C 0.4813 0.26018 0.48055 0.0
N344 N 0.61523 0.31716 0.42907 0.0
N345 N 0.43307 0.31488 0.50561 0.0
H346 H 0.42981 0.1641 0.47246 0.0
H347 H 0.40161 0.20171 0.50286 0.0
H348 H 0.43235 0.35456 0.51502 0.0
H349 H 0.39136 0.27546 0.50329 0.0
H350 H 0.64616 0.35569 0.41903 0.0
H351 H 0.61196 0.27771 0.41329 0.0
H352 H 0.67196 0.43206 0.46544 0.0
H353 H 0.63695 0.46957 0.48608 0.0
C354 C 0.34746 0.59574 0.85686 0.0
C355 C 0.34638 0.54055 0.85699 0.0
C356 C 0.23592 0.4822 0.83744 0.0
C357 C 0.23725 0.53755 0.8376 0.0
N358 N 0.29161 0.64728 0.8565 0.0
N359 N 0.29075 0.43304 0.85553 0.0
C360 C 0.2923 0.59442 0.85024 0.0
C361 C 0.29081 0.48421 0.84984 0.0
N362 N 0.40132 0.6492 0.8613 0.0
N363 N 0.18256 0.42789 0.82399 0.0
H364 H 0.33039 0.43341 0.86435 0.0
H365 H 0.25179 0.39151 0.85476 0.0
H366 H 0.14154 0.42512 0.81584 0.0
H367 H 0.17909 0.38571 0.81876 0.0
H368 H 0.40515 0.68935 0.85565 0.0
H369 H 0.44282 0.65274 0.86814 0.0
H370 H 0.32946 0.68994 0.86983 0.0
H371 H 0.25197 0.64813 0.85187 0.0
C372 C 0.74511 0.31474 0.2073 0.0
C373 C 0.76557 0.33864 0.17138 0.0
C374 C 0.67272 0.25156 0.12748 0.0
C375 C 0.64672 0.23879 0.16403 0.0
N376 N 0.65841 0.26238 0.24013 0.0
N377 N 0.74442 0.32883 0.09522 0.0
C378 C 0.68316 0.27067 0.20447 0.0
C379 C 0.72894 0.30626 0.13066 0.0
N380 N 0.78501 0.33417 0.24409 0.0
N381 N 0.64332 0.2115 0.08964 0.0
H382 H 0.7846 0.36786 0.09418 0.0
H383 H 0.71459 0.31044 0.06649 0.0
H384 H 0.6024 0.1706 0.08663 0.0
H385 H 0.66267 0.21567 0.0626 0.0
H386 H 0.77333 0.3147 0.27029 0.0
H387 H 0.83118 0.36459 0.24647 0.0
H388 H 0.68236 0.28949 0.26985 0.0
H389 H 0.61283 0.23239 0.23981 0.0
C390 C 0.03274 0.6084 0.04401 0.0
C391 C 0.01149 0.55345 0.05861 0.0
C392 C 0.01382 0.50126 0.99075 0.0
C393 C 0.03134 0.55499 0.97518 0.0
N394 N 0.07297 0.66313 0.98854 0.0
N395 N -0.00091 0.4542 0.05152 0.0
C396 C 0.04634 0.60995 0.00258 0.0
C397 C 0.00791 0.50203 0.03376 0.0
N398 N 0.037 0.65785 0.06898 0.0
N399 N -0.00057 0.44864 0.96379 0.0
H400 H -0.0053 0.45378 0.08308 0.0
H401 H 0.00156 0.41765 0.03636 0.0
H402 H 0.00548 0.44694 0.93246 0.0
H403 H 0.97889 0.40612 0.97175 0.0
H404 H 0.04606 0.69732 0.05879 0.0
H405 H 0.02903 0.65851 0.09988 0.0
H406 H 0.08963 0.70585 0.00766 0.0
H407 H 0.08308 0.66478 0.95821 0.0
C408 C 0.5149 -0.00462 0.35778 0.0
C409 C 0.48875 0.0173 0.38657 0.0
C410 C 0.4529 0.05196 0.33075 0.0
C411 C 0.47156 0.02231 0.30092 0.0
N412 N 0.51867 0.96422 0.2848 0.0
N413 N 0.42922 0.06275 0.40078 0.0
C414 C 0.50251 -0.00609 0.31415 0.0
C415 C 0.4575 0.04547 0.37334 0.0
N416 N 0.55309 0.97771 0.37245 0.0
N417 N 0.43043 0.08597 0.31826 0.0
H418 H 0.43156 0.05884 0.43223 0.0
H419 H 0.40011 0.07727 0.39192 0.0
H420 H 0.42397 0.08968 0.28704 0.0
H421 H 0.42261 0.11438 0.33922 0.0
H422 H 0.57835 0.96694 0.35381 0.0
H423 H 0.56386 0.97903 0.40433 0.0
H424 H 0.53426 0.93596 0.29161 0.0
H425 H 0.51351 0.96528 0.25285 0.0
C426 C 0.5328 0.45111 0.69475 0.0
C427 C 0.56776 0.51004 0.72092 0.0
C428 C 0.60656 0.55232 0.65983 0.0
C429 C 0.56352 0.49542 0.63292 0.0
N430 N 0.47719 0.39338 0.62503 0.0
N431 N 0.63737 0.61797 0.72921 0.0
C432 C 0.52486 0.44517 0.65039 0.0
C433 C 0.60478 0.56106 0.70371 0.0
N434 N 0.50576 0.40085 0.71206 0.0
N435 N 0.64976 0.59738 0.64357 0.0
H436 H 0.64041 0.62549 0.76191 0.0
H437 H 0.65896 0.65782 0.7178 0.0
H438 H 0.65282 0.59192 0.61167 0.0
H439 H 0.68566 0.63792 0.66209 0.0
H440 H 0.48528 0.35654 0.69433 0.0
H441 H 0.50872 0.40322 0.74446 0.0
H442 H 0.44424 0.35804 0.6367 0.0
H443 H 0.46627 0.38824 0.59263 0.0
C444 C 0.6107 0.07617 0.63392 0.0
C445 C 0.55382 0.05358 0.60846 0.0
C446 C 0.50333 0.01739 0.66751 0.0
C447 C 0.56049 0.04938 0.69454 0.0
N448 N 0.66886 0.10819 0.7046 0.0
N449 N 0.44555 0.00465 0.60061 0.0
C450 C 0.61436 0.0778 0.67793 0.0
C451 C 0.4998 0.0234 0.62481 0.0
N452 N 0.66089 0.09514 0.61571 0.0
N453 N 0.45236 0.98236 0.68292 0.0
H454 H 0.44087 0.00865 0.56932 0.0
H455 H 0.40546 0.98909 0.61224 0.0
H456 H 0.45274 0.97891 0.71442 0.0
H457 H 0.41027 0.95262 0.6639 0.0
H458 H 0.70294 0.10724 0.63168 0.0
H459 H 0.65932 0.09362 0.58339 0.0
H460 H 0.70966 0.13638 0.69557 0.0
H461 H 0.67293 0.10719 0.7366 0.0
C462 C 0.57581 0.59095 0.96063 0.0
C463 C 0.53959 0.53063 0.93648 0.0
C464 C 0.49273 0.49494 0.99675 0.0
C465 C 0.53291 0.55394 0.02185 0.0
N466 N 0.5992 0.66147 0.02671 0.0
N467 N 0.45179 0.43028 0.92636 0.0
C468 C 0.56952 0.60326 0.0032 0.0
C469 C 0.49379 0.48425 0.9529 0.0
N470 N 0.6188 0.63525 0.94371 0.0
N471 N 0.4561 0.44886 0.01541 0.0
H472 H 0.45178 0.42211 0.89402 0.0
H473 H 0.41431 0.39599 0.93544 0.0
H474 H 0.45289 0.45647 0.04719 0.0
H475 H 0.43053 0.40322 2e-05 0.0
H476 H 0.65162 0.67837 0.96103 0.0
H477 H 0.62342 0.62802 0.91225 0.0
H478 H 0.62279 0.70009 0.01434 0.0
H479 H 0.59589 0.67144 0.05821 0.0
C480 C 0.03751 0.62991 0.30489 0.0
C481 C 0.01976 0.57344 0.27824 0.0
C482 C 0.01189 0.52663 0.33949 0.0
C483 C 0.0296 0.58322 0.3661 0.0
N484 N 0.04178 0.68272 0.37376 0.0
N485 N 0.97616 0.46488 0.26827 0.0
C486 C 0.03695 0.63304 0.34861 0.0
C487 C 0.00192 0.52055 0.29494 0.0
N488 N 0.05606 0.68089 0.2885 0.0
N489 N 0.00797 0.47999 0.35669 0.0
H490 H 0.96961 0.45925 0.23552 0.0
H491 H 0.95664 0.42392 0.27844 0.0
H492 H 0.01524 0.48294 0.38915 0.0
H493 H 0.0017 0.43998 0.33897 0.0
H494 H 0.07758 0.72478 0.30703 0.0
H495 H 0.05281 0.67975 0.25619 0.0
H496 H 0.042 0.71823 0.36226 0.0
H497 H 0.03932 0.68564 0.40575 0.0
loop_
_geom_bond_atom_site_label_1
_geom_bond_atom_site_label_2
_geom_bond_distance
_geom_bond_site_symmetry_2
_ccdc_geom_bond_type
Zn0 O6 1.969 . S
Zn0 O7 1.965 . S
Zn0 O11 2.024 . S
Zn0 O16 1.969 . S
Zn1 O8 1.969 . S
Zn1 O14 1.969 . S
Zn1 O15 1.965 . S
Zn1 O17 2.024 . S
C2 O3 1.229 . S
C2 O11 1.058 . S
O3 C2 1.229 . S
C4 O5 1.229 . S
C4 O17 1.058 . S
O5 C4 1.229 . S
O6 Zn0 1.969 . S
O6 C9 1.267 . S
O7 Zn0 1.965 . S
O7 C18 1.260 . S
O8 Zn1 1.969 . S
O8 C18 1.258 1_655 S
C9 O6 1.267 . S
C9 O10 1.228 . S
O10 C9 1.228 . S
O11 Zn0 2.024 . S
O11 C2 1.058 . S
C12 O13 1.228 . S
C12 O14 1.267 . S
O13 C12 1.228 . S
O14 Zn1 1.969 . S
O14 C12 1.267 . S
O15 Zn1 1.965 . S
O15 C19 1.260 1_655 S
O16 Zn0 1.969 . S
O16 C19 1.258 . S
O17 Zn1 2.024 . S
O17 C4 1.058 . S
C18 O7 1.260 . S
C18 O8 1.258 1_455 S
C19 O15 1.260 1_455 S
C19 O16 1.258 . S
Zn20 O26 1.969 . S
Zn20 O27 1.965 . S
Zn20 O31 2.024 . S
Zn20 O36 1.969 . S
Zn21 O28 1.969 . S
Zn21 O34 1.969 . S
Zn21 O35 1.965 1_565 S
Zn21 O37 2.024 . S
C22 O23 1.229 . S
C22 O31 1.058 . S
O23 C22 1.229 . S
C24 O25 1.229 . S
C24 O37 1.058 . S
O25 C24 1.229 . S
O26 Zn20 1.969 . S
O26 C29 1.267 . S
O27 Zn20 1.965 . S
O27 C38 1.260 . S
O28 Zn21 1.969 . S
O28 C38 1.258 1_565 S
C29 O26 1.267 . S
C29 O30 1.228 . S
O30 C29 1.228 . S
O31 Zn20 2.024 . S
O31 C22 1.058 . S
C32 O33 1.228 . S
C32 O34 1.267 . S
O33 C32 1.228 . S
O34 Zn21 1.969 . S
O34 C32 1.267 . S
O35 Zn21 1.965 1_545 S
O35 C39 1.260 . S
O36 Zn20 1.969 . S
O36 C39 1.258 . S
O37 Zn21 2.024 . S
O37 C24 1.058 . S
C38 O27 1.260 . S
C38 O28 1.258 1_545 S
C39 O35 1.260 . S
C39 O36 1.258 . S
Zn40 O46 1.969 . S
Zn40 O47 1.965 . S
Zn40 O51 2.024 . S
Zn40 O56 1.969 . S
Zn41 O48 1.969 . S
Zn41 O54 1.969 . S
Zn41 O55 1.965 . S
Zn41 O57 2.024 . S
C42 O43 1.229 . S
C42 O51 1.058 . S
O43 C42 1.229 . S
C44 O45 1.229 . S
C44 O57 1.058 . S
O45 C44 1.229 . S
O46 Zn40 1.969 . S
O46 C49 1.267 . S
O47 Zn40 1.965 . S
O47 C58 1.260 . S
O48 Zn41 1.969 . S
O48 C58 1.258 . S
C49 O46 1.267 . S
C49 O50 1.228 . S
O50 C49 1.228 . S
O51 Zn40 2.024 . S
O51 C42 1.058 . S
C52 O53 1.228 . S
C52 O54 1.267 . S
O53 C52 1.228 . S
O54 Zn41 1.969 . S
O54 C52 1.267 . S
O55 Zn41 1.965 . S
O55 C59 1.260 . S
O56 Zn40 1.969 . S
O56 C59 1.258 . S
O57 Zn41 2.024 . S
O57 C44 1.058 . S
C58 O47 1.260 . S
C58 O48 1.258 . S
C59 O55 1.260 . S
C59 O56 1.258 . S
H60 C61 0.949 . S
C61 H60 0.949 . S
C61 C62 1.395 . S
C61 C63 1.391 . S
C62 C61 1.395 . S
C62 C65 1.390 1_545 S
C63 C61 1.391 . S
C63 C67 1.387 . S
C63 C68 1.491 . S
H64 C65 0.950 . S
C65 C62 1.390 1_565 S
C65 H64 0.950 . S
C65 C66 1.378 . S
C66 C65 1.378 . S
C66 C67 1.409 1_565 S
C67 C63 1.387 . S
C67 C66 1.409 1_545 S
C67 H69 0.951 . S
C68 C63 1.491 . S
C68 C70 1.382 . S
C68 C72 1.404 . S
H69 C67 0.951 . S
C70 C68 1.382 . S
C70 C71 1.390 . S
C70 H75 0.949 . S
C71 C70 1.390 . S
C71 C76 1.399 . S
C72 C68 1.404 . S
C72 H73 0.950 . S
C72 C74 1.375 . S
H73 C72 0.950 . S
C74 C72 1.375 . S
C74 C76 1.382 . S
C74 H78 0.950 . S
H75 C70 0.949 . S
C76 C71 1.399 . S
C76 C74 1.382 . S
C76 H77 0.952 . S
H77 C76 0.952 . S
H78 C74 0.950 . S
H79 C80 0.949 . S
C80 H79 0.949 . S
C80 C81 1.395 . S
C80 C82 1.391 . S
C81 C80 1.395 . S
C81 C84 1.390 . S
C82 C80 1.391 . S
C82 C86 1.387 . S
C82 C87 1.491 . S
H83 C84 0.950 . S
C84 C81 1.390 . S
C84 H83 0.950 . S
C84 C85 1.378 . S
C85 C84 1.378 . S
C85 C86 1.409 . S
C86 C82 1.387 . S
C86 C85 1.409 . S
C86 H88 0.951 . S
C87 C82 1.491 . S
C87 C89 1.382 . S
C87 C91 1.404 . S
H88 C86 0.951 . S
C89 C87 1.382 . S
C89 C90 1.390 . S
C89 H94 0.949 . S
C90 C89 1.390 . S
C90 C95 1.399 . S
C91 C87 1.404 . S
C91 H92 0.950 . S
C91 C93 1.375 . S
H92 C91 0.950 . S
C93 C91 1.375 . S
C93 C95 1.382 . S
C93 H97 0.950 . S
H94 C89 0.949 . S
C95 C90 1.399 . S
C95 C93 1.382 . S
C95 H96 0.952 . S
H96 C95 0.952 . S
H97 C93 0.950 . S
H98 C99 0.949 . S
C99 H98 0.949 . S
C99 C100 1.395 . S
C99 C101 1.391 . S
C100 C99 1.395 . S
C100 C103 1.390 1_455 S
C101 C99 1.391 . S
C101 C105 1.387 . S
C101 C106 1.491 . S
H102 C103 0.950 . S
C103 C100 1.390 1_655 S
C103 H102 0.950 . S
C103 C104 1.378 . S
C104 C103 1.378 . S
C104 C105 1.409 1_655 S
C105 C101 1.387 . S
C105 C104 1.409 1_455 S
C105 H107 0.951 1_455 S
C106 C101 1.491 . S
C106 C108 1.382 . S
C106 C110 1.404 . S
H107 C105 0.951 1_655 S
C108 C106 1.382 . S
C108 C109 1.390 . S
C108 H113 0.949 . S
C109 C108 1.390 . S
C109 C114 1.399 . S
C110 C106 1.404 . S
C110 H111 0.950 . S
C110 C112 1.375 . S
H111 C110 0.950 . S
C112 C110 1.375 . S
C112 C114 1.382 . S
C112 H116 0.950 . S
H113 C108 0.949 . S
C114 C109 1.399 . S
C114 C112 1.382 . S
C114 H115 0.952 . S
H115 C114 0.952 . S
H116 C112 0.950 . S
H117 C118 0.949 1_655 S
C118 H117 0.949 1_455 S
C118 C119 1.395 . S
C118 C120 1.391 . S
C119 C118 1.395 . S
C119 C122 1.390 . S
C120 C118 1.391 . S
C120 C124 1.387 . S
C120 C125 1.491 1_455 S
H121 C122 0.950 . S
C122 C119 1.390 . S
C122 H121 0.950 . S
C122 C123 1.378 . S
C123 C122 1.378 . S
C123 C124 1.409 . S
C124 C120 1.387 . S
C124 C123 1.409 . S
C124 H126 0.951 . S
C125 C120 1.491 1_655 S
C125 C127 1.382 . S
C125 C129 1.404 . S
H126 C124 0.951 . S
C127 C125 1.382 . S
C127 C128 1.390 . S
C127 H132 0.949 . S
C128 C127 1.390 . S
C128 C133 1.399 . S
C129 C125 1.404 . S
C129 H130 0.951 . S
C129 C131 1.375 . S
H130 C129 0.951 . S
C131 C129 1.375 . S
C131 C133 1.382 . S
C131 H135 0.950 . S
H132 C127 0.949 . S
C133 C128 1.399 . S
C133 C131 1.382 . S
C133 H134 0.952 . S
H134 C133 0.952 . S
H135 C131 0.950 . S
H136 C137 0.949 1_565 S
C137 H136 0.949 1_545 S
C137 C138 1.395 . S
C137 C139 1.391 . S
C138 C137 1.395 . S
C138 C141 1.390 . S
C139 C137 1.391 . S
C139 C143 1.387 . S
C139 C144 1.491 1_545 S
H140 C141 0.950 . S
C141 C138 1.390 . S
C141 H140 0.950 . S
C141 C142 1.378 . S
C142 C141 1.378 . S
C142 C143 1.409 . S
C143 C139 1.387 . S
C143 C142 1.409 . S
C143 H145 0.951 . S
C144 C139 1.491 1_565 S
C144 C146 1.382 . S
C144 C148 1.404 . S
H145 C143 0.951 . S
C146 C144 1.382 . S
C146 C147 1.390 . S
C146 H151 0.949 . S
C147 C146 1.390 . S
C147 C152 1.399 . S
C148 C144 1.404 . S
C148 H149 0.950 1_565 S
C148 C150 1.375 . S
H149 C148 0.950 1_545 S
C150 C148 1.375 . S
C150 C152 1.382 . S
C150 H154 0.950 . S
H151 C146 0.949 . S
C152 C147 1.399 . S
C152 C150 1.382 . S
C152 H153 0.952 . S
H153 C152 0.952 . S
H154 C150 0.950 . S
H155 C156 0.949 . S
C156 H155 0.949 . S
C156 C157 1.395 . S
C156 C158 1.391 . S
C157 C156 1.395 . S
C157 C160 1.390 . S
C158 C156 1.391 . S
C158 C162 1.387 . S
C158 C163 1.491 . S
H159 C160 0.950 . S
C160 C157 1.390 . S
C160 H159 0.950 . S
C160 C161 1.378 . S
C161 C160 1.378 . S
C161 C162 1.409 . S
C162 C158 1.387 . S
C162 C161 1.409 . S
C162 H164 0.951 . S
C163 C158 1.491 . S
C163 C165 1.382 . S
C163 C167 1.404 . S
H164 C162 0.951 . S
C165 C163 1.382 . S
C165 C166 1.390 . S
C165 H170 0.949 . S
C166 C165 1.390 . S
C166 C171 1.399 . S
C167 C163 1.404 . S
C167 H168 0.950 . S
C167 C169 1.375 . S
H168 C167 0.950 . S
C169 C167 1.375 . S
C169 C171 1.382 . S
C169 H173 0.950 . S
H170 C165 0.949 . S
C171 C166 1.399 . S
C171 C169 1.382 . S
C171 H172 0.952 . S
H172 C171 0.952 . S
H173 C169 0.950 . S
C174 C175 1.363 . S
C174 C180 1.379 . S
C174 N182 1.356 . S
C175 C174 1.363 . S
C175 C181 1.363 . S
C176 C177 1.363 . S
C176 C181 1.379 . S
C176 N183 1.356 . S
C177 C176 1.363 . S
C177 C180 1.363 . S
N178 C180 1.356 . S
N178 H190 0.984 . S
N178 H191 0.985 . S
N179 C181 1.356 . S
N179 H184 0.984 . S
N179 H185 0.985 . S
C180 C174 1.379 . S
C180 C177 1.363 . S
C180 N178 1.356 . S
C181 C175 1.363 . S
C181 C176 1.379 . S
C181 N179 1.356 . S
N182 C174 1.356 . S
N182 H188 0.984 . S
N182 H189 0.984 . S
N183 C176 1.356 . S
N183 H186 0.984 . S
N183 H187 0.985 . S
H184 N179 0.984 . S
H185 N179 0.985 . S
H186 N183 0.984 . S
H187 N183 0.985 . S
H188 N182 0.984 . S
H189 N182 0.984 . S
H190 N178 0.984 . S
H191 N178 0.985 . S
C192 C193 1.363 . S
C192 C198 1.379 . S
C192 N200 1.356 . S
C193 C192 1.363 . S
C193 C199 1.363 . S
C194 C195 1.363 . S
C194 C199 1.379 . S
C194 N201 1.356 . S
C195 C194 1.363 . S
C195 C198 1.363 . S
N196 C198 1.356 . S
N196 H208 0.984 . S
N196 H209 0.985 . S
N197 C199 1.356 . S
N197 H202 0.984 . S
N197 H203 0.985 . S
C198 C192 1.379 . S
C198 C195 1.363 . S
C198 N196 1.356 . S
C199 C193 1.363 . S
C199 C194 1.379 . S
C199 N197 1.356 . S
N200 C192 1.356 . S
N200 H206 0.984 . S
N200 H207 0.984 . S
N201 C194 1.356 . S
N201 H204 0.984 . S
N201 H205 0.985 . S
H202 N197 0.984 . S
H203 N197 0.985 . S
H204 N201 0.984 . S
H205 N201 0.985 . S
H206 N200 0.984 . S
H207 N200 0.984 . S
H208 N196 0.984 . S
H209 N196 0.985 . S
C210 C211 1.363 . S
C210 C216 1.379 . S
C210 N218 1.356 . S
C211 C210 1.363 . S
C211 C217 1.363 . S
C212 C213 1.363 . S
C212 C217 1.379 . S
C212 N219 1.356 . S
C213 C212 1.363 . S
C213 C216 1.363 . S
N214 C216 1.356 . S
N214 H226 0.984 . S
N214 H227 0.985 . S
N215 C217 1.356 . S
N215 H220 0.984 . S
N215 H221 0.985 . S
C216 C210 1.379 . S
C216 C213 1.363 . S
C216 N214 1.356 . S
C217 C211 1.363 . S
C217 C212 1.379 . S
C217 N215 1.356 . S
N218 C210 1.356 . S
N218 H224 0.984 . S
N218 H225 0.984 . S
N219 C212 1.356 . S
N219 H222 0.984 . S
N219 H223 0.985 . S
H220 N215 0.984 . S
H221 N215 0.985 . S
H222 N219 0.984 . S
H223 N219 0.985 . S
H224 N218 0.984 . S
H225 N218 0.984 . S
H226 N214 0.984 . S
H227 N214 0.985 . S
C228 C229 1.363 . S
C228 C234 1.379 . S
C228 N236 1.356 . S
C229 C228 1.363 . S
C229 C235 1.363 . S
C230 C231 1.363 . S
C230 C235 1.379 . S
C230 N237 1.356 . S
C231 C230 1.363 . S
C231 C234 1.363 . S
N232 C234 1.356 . S
N232 H244 0.984 . S
N232 H245 0.985 . S
N233 C235 1.356 . S
N233 H238 0.984 . S
N233 H239 0.985 . S
C234 C228 1.379 . S
C234 C231 1.363 . S
C234 N232 1.356 . S
C235 C229 1.363 . S
C235 C230 1.379 . S
C235 N233 1.356 . S
N236 C228 1.356 . S
N236 H242 0.984 . S
N236 H243 0.984 . S
N237 C230 1.356 . S
N237 H240 0.984 . S
N237 H241 0.985 . S
H238 N233 0.984 . S
H239 N233 0.985 . S
H240 N237 0.984 . S
H241 N237 0.985 . S
H242 N236 0.984 . S
H243 N236 0.984 . S
H244 N232 0.984 . S
H245 N232 0.985 . S
C246 C247 1.363 . S
C246 C252 1.379 . S
C246 N254 1.356 . S
C247 C246 1.363 . S
C247 C253 1.363 . S
C248 C249 1.363 . S
C248 C253 1.379 . S
C248 N255 1.356 . S
C249 C248 1.363 . S
C249 C252 1.363 . S
N250 C252 1.356 . S
N250 H262 0.984 . S
N250 H263 0.985 . S
N251 C253 1.356 . S
N251 H256 0.984 . S
N251 H257 0.985 . S
C252 C246 1.379 . S
C252 C249 1.363 . S
C252 N250 1.356 . S
C253 C247 1.363 . S
C253 C248 1.379 . S
C253 N251 1.356 . S
N254 C246 1.356 . S
N254 H260 0.984 . S
N254 H261 0.984 . S
N255 C248 1.356 . S
N255 H258 0.984 . S
N255 H259 0.985 . S
H256 N251 0.984 . S
H257 N251 0.985 . S
H258 N255 0.984 . S
H259 N255 0.985 . S
H260 N254 0.984 . S
H261 N254 0.984 . S
H262 N250 0.984 . S
H263 N250 0.985 . S
C264 C265 1.363 . S
C264 C270 1.379 . S
C264 N272 1.356 . S
C265 C264 1.363 . S
C265 C271 1.363 . S
C266 C267 1.363 . S
C266 C271 1.379 . S
C266 N273 1.356 . S
C267 C266 1.363 . S
C267 C270 1.363 . S
N268 C270 1.356 . S
N268 H280 0.984 . S
N268 H281 0.985 . S
N269 C271 1.356 . S
N269 H274 0.984 . S
N269 H275 0.985 . S
C270 C264 1.379 . S
C270 C267 1.363 . S
C270 N268 1.356 . S
C271 C265 1.363 . S
C271 C266 1.379 . S
C271 N269 1.356 . S
N272 C264 1.356 . S
N272 H278 0.984 . S
N272 H279 0.984 . S
N273 C266 1.356 . S
N273 H276 0.984 . S
N273 H277 0.985 . S
H274 N269 0.984 . S
H275 N269 0.985 . S
H276 N273 0.984 . S
H277 N273 0.985 . S
H278 N272 0.984 . S
H279 N272 0.984 . S
H280 N268 0.984 . S
H281 N268 0.985 . S
C282 C283 1.363 . S
C282 C288 1.379 . S
C282 N290 1.356 . S
C283 C282 1.363 . S
C283 C289 1.363 . S
C284 C285 1.363 . S
C284 C289 1.379 . S
C284 N291 1.356 . S
C285 C284 1.363 . S
C285 C288 1.363 . S
N286 C288 1.356 . S
N286 H298 0.984 . S
N286 H299 0.985 . S
N287 C289 1.356 . S
N287 H292 0.984 . S
N287 H293 0.985 . S
C288 C282 1.379 . S
C288 C285 1.363 . S
C288 N286 1.356 . S
C289 C283 1.363 . S
C289 C284 1.379 . S
C289 N287 1.356 . S
N290 C282 1.356 . S
N290 H296 0.984 . S
N290 H297 0.984 . S
N291 C284 1.356 . S
N291 H294 0.984 . S
N291 H295 0.985 . S
H292 N287 0.984 . S
H293 N287 0.985 . S
H294 N291 0.984 . S
H295 N291 0.985 . S
H296 N290 0.984 . S
H297 N290 0.984 . S
H298 N286 0.984 . S
H299 N286 0.985 . S
C300 C301 1.363 . S
C300 C306 1.379 . S
C300 N308 1.356 . S
C301 C300 1.363 . S
C301 C307 1.363 . S
C302 C303 1.363 . S
C302 C307 1.379 . S
C302 N309 1.356 . S
C303 C302 1.363 . S
C303 C306 1.363 . S
N304 C306 1.356 . S
N304 H316 0.984 . S
N304 H317 0.985 . S
N305 C307 1.356 . S
N305 H310 0.984 . S
N305 H311 0.985 . S
C306 C300 1.379 . S
C306 C303 1.363 . S
C306 N304 1.356 . S
C307 C301 1.363 . S
C307 C302 1.379 . S
C307 N305 1.356 . S
N308 C300 1.356 . S
N308 H314 0.984 . S
N308 H315 0.984 . S
N309 C302 1.356 . S
N309 H312 0.994 . S
N309 H313 0.985 . S
H310 N305 0.984 . S
H311 N305 0.985 . S
H312 N309 0.994 . S
H313 N309 0.985 . S
H314 N308 0.984 . S
H315 N308 0.984 . S
H316 N304 0.984 . S
H317 N304 0.985 . S
C318 C319 1.363 . S
C318 C324 1.379 . S
C318 N326 1.356 . S
C319 C318 1.363 . S
C319 C325 1.363 . S
C320 C321 1.363 . S
C320 C325 1.379 . S
C320 N327 1.356 . S
C321 C320 1.363 . S
C321 C324 1.363 . S
N322 C324 1.356 . S
N322 H334 0.984 . S
N322 H335 0.985 . S
N323 C325 1.356 . S
N323 H328 0.984 . S
N323 H329 0.985 . S
C324 C318 1.379 . S
C324 C321 1.363 . S
C324 N322 1.356 . S
C325 C319 1.363 . S
C325 C320 1.379 . S
C325 N323 1.356 . S
N326 C318 1.356 . S
N326 H332 0.984 . S
N326 H333 0.984 . S
N327 C320 1.356 . S
N327 H330 0.984 . S
N327 H331 0.985 . S
H328 N323 0.984 . S
H329 N323 0.985 . S
H330 N327 0.984 . S
H331 N327 0.985 . S
H332 N326 0.984 . S
H333 N326 0.984 . S
H334 N322 0.984 . S
H335 N322 0.985 . S
C336 C337 1.363 . S
C336 C342 1.379 . S
C336 N344 1.356 . S
C337 C336 1.363 . S
C337 C343 1.363 . S
C338 C339 1.363 . S
C338 C343 1.379 . S
C338 N345 1.356 . S
C339 C338 1.363 . S
C339 C342 1.363 . S
N340 C342 1.356 . S
N340 H352 0.984 . S
N340 H353 0.985 . S
N341 C343 1.356 . S
N341 H346 0.984 . S
N341 H347 0.985 . S
C342 C336 1.379 . S
C342 C339 1.363 . S
C342 N340 1.356 . S
C343 C337 1.363 . S
C343 C338 1.379 . S
C343 N341 1.356 . S
N344 C336 1.356 . S
N344 H350 0.984 . S
N344 H351 0.984 . S
N345 C338 1.356 . S
N345 H348 0.984 . S
N345 H349 0.985 . S
H346 N341 0.984 . S
H347 N341 0.985 . S
H348 N345 0.984 . S
H349 N345 0.985 . S
H350 N344 0.984 . S
H351 N344 0.984 . S
H352 N340 0.984 . S
H353 N340 0.985 . S
C354 C355 1.363 . S
C354 C360 1.379 . S
C354 N362 1.356 . S
C355 C354 1.363 . S
C355 C361 1.363 . S
C356 C357 1.363 . S
C356 C361 1.379 . S
C356 N363 1.356 . S
C357 C356 1.363 . S
C357 C360 1.363 . S
N358 C360 1.356 . S
N358 H370 0.984 . S
N358 H371 0.985 . S
N359 C361 1.356 . S
N359 H364 0.984 . S
N359 H365 0.985 . S
C360 C354 1.379 . S
C360 C357 1.363 . S
C360 N358 1.356 . S
C361 C355 1.363 . S
C361 C356 1.379 . S
C361 N359 1.356 . S
N362 C354 1.356 . S
N362 H368 0.984 . S
N362 H369 0.984 . S
N363 C356 1.356 . S
N363 H366 0.984 . S
N363 H367 0.985 . S
H364 N359 0.984 . S
H365 N359 0.985 . S
H366 N363 0.984 . S
H367 N363 0.985 . S
H368 N362 0.984 . S
H369 N362 0.984 . S
H370 N358 0.984 . S
H371 N358 0.985 . S
C372 C373 1.363 . S
C372 C378 1.379 . S
C372 N380 1.356 . S
C373 C372 1.363 . S
C373 C379 1.363 . S
C374 C375 1.363 . S
C374 C379 1.379 . S
C374 N381 1.356 . S
C375 C374 1.363 . S
C375 C378 1.363 . S
N376 C378 1.356 . S
N376 H388 0.984 . S
N376 H389 0.985 . S
N377 C379 1.356 . S
N377 H382 0.984 . S
N377 H383 0.985 . S
C378 C372 1.379 . S
C378 C375 1.363 . S
C378 N376 1.356 . S
C379 C373 1.363 . S
C379 C374 1.379 . S
C379 N377 1.356 . S
N380 C372 1.356 . S
N380 H386 0.984 . S
N380 H387 0.984 . S
N381 C374 1.356 . S
N381 H384 0.984 . S
N381 H385 0.985 . S
H382 N377 0.984 . S
H383 N377 0.985 . S
H384 N381 0.984 . S
H385 N381 0.985 . S
H386 N380 0.984 . S
H387 N380 0.984 . S
H388 N376 0.984 . S
H389 N376 0.985 . S
C390 C391 1.363 . S
C390 C396 1.379 1_554 S
C390 N398 1.356 . S
C391 C390 1.363 . S
C391 C397 1.363 . S
C392 C393 1.363 . S
C392 C397 1.379 1_556 S
C392 N399 1.356 1_455 S
C393 C392 1.363 . S
C393 C396 1.363 . S
N394 C396 1.356 . S
N394 H406 0.984 . S
N394 H407 0.985 . S
N395 C397 1.356 1_655 S
N395 H400 0.984 . S
N395 H401 0.985 . S
C396 C390 1.379 1_556 S
C396 C393 1.363 . S
C396 N394 1.356 . S
C397 C391 1.363 . S
C397 C392 1.379 1_554 S
C397 N395 1.356 1_455 S
N398 C390 1.356 . S
N398 H404 0.984 . S
N398 H405 0.984 . S
N399 C392 1.356 1_655 S
N399 H402 0.984 1_655 S
N399 H403 0.985 . S
H400 N395 0.984 . S
H401 N395 0.985 . S
H402 N399 0.984 1_455 S
H403 N399 0.985 . S
H404 N398 0.984 . S
H405 N398 0.984 . S
H406 N394 0.984 . S
H407 N394 0.985 . S
C408 C409 1.363 1_565 S
C408 C414 1.379 . S
C408 N416 1.356 . S
C409 C408 1.363 1_545 S
C409 C415 1.363 . S
C410 C411 1.363 . S
C410 C415 1.379 . S
C410 N417 1.356 . S
C411 C410 1.363 . S
C411 C414 1.363 1_545 S
N412 C414 1.356 . S
N412 H424 0.984 . S
N412 H425 0.985 . S
N413 C415 1.356 . S
N413 H418 0.984 . S
N413 H419 0.985 . S
C414 C408 1.379 . S
C414 C411 1.363 1_565 S
C414 N412 1.356 . S
C415 C409 1.363 . S
C415 C410 1.379 . S
C415 N413 1.356 . S
N416 C408 1.356 . S
N416 H422 0.984 . S
N416 H423 0.984 . S
N417 C410 1.356 . S
N417 H420 0.984 . S
N417 H421 0.985 . S
H418 N413 0.984 . S
H419 N413 0.985 . S
H420 N417 0.984 . S
H421 N417 0.985 . S
H422 N416 0.984 . S
H423 N416 0.984 . S
H424 N412 0.984 . S
H425 N412 0.985 . S
C426 C427 1.363 . S
C426 C432 1.379 . S
C426 N434 1.356 . S
C427 C426 1.363 . S
C427 C433 1.363 . S
C428 C429 1.363 . S
C428 C433 1.379 . S
C428 N435 1.356 . S
C429 C428 1.363 . S
C429 C432 1.363 . S
N430 C432 1.356 . S
N430 H442 0.984 . S
N430 H443 0.985 . S
N431 C433 1.356 . S
N431 H436 0.984 . S
N431 H437 0.985 . S
C432 C426 1.379 . S
C432 C429 1.363 . S
C432 N430 1.356 . S
C433 C427 1.363 . S
C433 C428 1.379 . S
C433 N431 1.356 . S
N434 C426 1.356 . S
N434 H440 0.984 . S
N434 H441 0.984 . S
N435 C428 1.356 . S
N435 H438 0.984 . S
N435 H439 0.985 . S
H436 N431 0.984 . S
H437 N431 0.985 . S
H438 N435 0.984 . S
H439 N435 0.985 . S
H440 N434 0.984 . S
H441 N434 0.984 . S
H442 N430 0.984 . S
H443 N430 0.985 . S
C444 C445 1.363 . S
C444 C450 1.379 . S
C444 N452 1.356 . S
C445 C444 1.363 . S
C445 C451 1.363 . S
C446 C447 1.363 . S
C446 C451 1.379 . S
C446 N453 1.356 1_545 S
C447 C446 1.363 . S
C447 C450 1.363 . S
N448 C450 1.356 . S
N448 H460 0.984 . S
N448 H461 0.985 . S
N449 C451 1.356 1_565 S
N449 H454 0.984 . S
N449 H455 0.985 . S
C450 C444 1.379 . S
C450 C447 1.363 . S
C450 N448 1.356 . S
C451 C445 1.363 . S
C451 C446 1.379 . S
C451 N449 1.356 1_545 S
N452 C444 1.356 . S
N452 H458 0.984 . S
N452 H459 0.984 . S
N453 C446 1.356 1_565 S
N453 H456 0.984 1_565 S
N453 H457 0.985 . S
H454 N449 0.984 . S
H455 N449 0.985 . S
H456 N453 0.984 1_545 S
H457 N453 0.985 . S
H458 N452 0.984 . S
H459 N452 0.984 . S
H460 N448 0.984 . S
H461 N448 0.985 . S
C462 C463 1.363 . S
C462 C468 1.379 1_556 S
C462 N470 1.356 . S
C463 C462 1.363 . S
C463 C469 1.363 . S
C464 C465 1.363 1_556 S
C464 C469 1.379 . S
C464 N471 1.356 1_556 S
C465 C464 1.363 1_554 S
C465 C468 1.363 . S
N466 C468 1.356 . S
N466 H478 0.984 . S
N466 H479 0.985 . S
N467 C469 1.356 . S
N467 H472 0.984 . S
N467 H473 0.985 . S
C468 C462 1.379 1_554 S
C468 C465 1.363 . S
C468 N466 1.356 . S
C469 C463 1.363 . S
C469 C464 1.379 . S
C469 N467 1.356 . S
N470 C462 1.356 . S
N470 H476 0.984 . S
N470 H477 0.984 . S
N471 C464 1.356 1_554 S
N471 H474 0.984 . S
N471 H475 0.985 . S
H472 N467 0.984 . S
H473 N467 0.985 . S
H474 N471 0.984 . S
H475 N471 0.985 . S
H476 N470 0.984 . S
H477 N470 0.984 . S
H478 N466 0.984 . S
H479 N466 0.985 . S
C480 C481 1.363 . S
C480 C486 1.379 . S
C480 N488 1.356 . S
C481 C480 1.363 . S
C481 C487 1.363 1_455 S
C482 C483 1.363 1_655 S
C482 C487 1.379 . S
C482 N489 1.356 . S
C483 C482 1.363 1_455 S
C483 C486 1.363 . S
N484 C486 1.356 . S
N484 H496 0.984 . S
N484 H497 0.985 . S
N485 C487 1.356 . S
N485 H490 0.984 . S
N485 H491 0.985 . S
C486 C480 1.379 . S
C486 C483 1.363 . S
C486 N484 1.356 . S
C487 C481 1.363 1_655 S
C487 C482 1.379 . S
C487 N485 1.356 . S
N488 C480 1.356 . S
N488 H494 0.984 . S
N488 H495 0.984 . S
N489 C482 1.356 . S
N489 H492 0.984 . S
N489 H493 0.985 . S
H490 N485 0.984 . S
H491 N485 0.985 . S
H492 N489 0.984 . S
H493 N489 0.985 . S
H494 N488 0.984 . S
H495 N488 0.984 . S
H496 N484 0.984 . S
H497 N484 0.985 . S
C175 C2 1.538 . S
C177 C166 1.557 . S
C193 C22 1.537 . S
C195 C128 1.558 . S
C211 C44 1.557 . S
C213 C147 1.576 . S
C229 C4 1.446 . S
C231 C161 1.543 . S
C249 C123 1.541 . S
C247 C24 1.461 . S
C267 C142 1.523 . S
C265 C42 1.421 . S
C283 C32 1.502 . S
C285 C90 1.421 . S
C301 C49 1.192 . S
C303 C104 1.218 . S
C319 C9 1.182 . S
C321 C66 1.215 . S
C339 C85 1.257 . S
C337 C29 1.194 . S
C357 C109 1.396 . S
C355 C52 1.381 . S
C373 C12 1.393 . S
C375 C71 1.383 . S
C393 C100 1.531 . S
C391 C18 1.548 . S
C409 C38 1.517 . S
C411 C62 1.502 . S
C427 C58 1.497 . S
C429 C81 1.530 . S
C447 C138 1.547 . S
C445 C39 1.536 . S
C465 C157 1.552 . S
C463 C59 1.555 . S
C481 C19 1.539 . S
C483 C119 1.568 . S
