# Generated by pormake.
# Topology rtl, (3,6)-cn, num edge types: 1
# Building blocks:
#     Node 0, Type 0, BuildingBlock: CUQRIR_clean_linker_1, # of connection points: 3
#     Node 1, Type 0, BuildingBlock: CUQRIR_clean_linker_1, # of connection points: 3
#     Node 2, Type 0, BuildingBlock: CUQRIR_clean_linker_1, # of connection points: 3
#     Node 3, Type 0, BuildingBlock: CUQRIR_clean_linker_1, # of connection points: 3
#     Node 4, Type 1, BuildingBlock: KUMBUR_clean_sbu_1, # of connection points: 6
#     Node 5, Type 1, BuildingBlock: KUMBUR_clean_sbu_1, # of connection points: 6
#     Edge 6, Type (0, 1), BuildingBlock: XIVTED_clean_linker_0, # of connection points: 2
#     Edge 7, Type (0, 1), BuildingBlock: XIVTED_clean_linker_0, # of connection points: 2
#     Edge 8, Type (0, 1), BuildingBlock: XIVTED_clean_linker_0, # of connection points: 2
#     Edge 9, Type (0, 1), BuildingBlock: XIVTED_clean_linker_0, # of connection points: 2
#     Edge 10, Type (0, 1), BuildingBlock: XIVTED_clean_linker_0, # of connection points: 2
#     Edge 11, Type (0, 1), BuildingBlock: XIVTED_clean_linker_0, # of connection points: 2
#     Edge 12, Type (0, 1), BuildingBlock: XIVTED_clean_linker_0, # of connection points: 2
#     Edge 13, Type (0, 1), BuildingBlock: XIVTED_clean_linker_0, # of connection points: 2
#     Edge 14, Type (0, 1), BuildingBlock: XIVTED_clean_linker_0, # of connection points: 2
#     Edge 15, Type (0, 1), BuildingBlock: XIVTED_clean_linker_0, # of connection points: 2
#     Edge 16, Type (0, 1), BuildingBlock: XIVTED_clean_linker_0, # of connection points: 2
#     Edge 17, Type (0, 1), BuildingBlock: XIVTED_clean_linker_0, # of connection points: 2
# Relax obj value: 0.064
# Max RMSD: 0.226
# Mean RMSD: 0.176
data_MOF--net-rtl--node1-KUMBUR_clean_sbu_1--node2-CUQRIR_clean_linker_1--edge1-XIVTED_clean_linker_0
_symmetry_space_group_name_H-M    P1
_symmetry_Int_Tables_number       1
_symmetry_cell_setting            triclinic
loop_
_symmetry_equiv_pos_as_xyz
'x, y, z'
_cell_length_a     33.122528
_cell_length_b     33.335336
_cell_length_c     24.923847
_cell_angle_alpha  76.521481
_cell_angle_beta   98.634945
_cell_angle_gamma 91.512311
loop_
_atom_site_label
_atom_site_type_symbol
_atom_site_fract_x
_atom_site_fract_y
_atom_site_fract_z
_atom_type_partial_charge
C0 C 0.23045 0.78922 1.00271 0.0
N1 N 0.20421 0.81395 0.01672 0.0
N2 N 0.25124 0.76451 0.04894 0.0
C3 C 0.23412 0.78782 0.94366 0.0
C4 C 0.23626 0.77489 0.09168 0.0
N5 N 0.2073 0.80488 0.07198 0.0
C6 C 0.25257 0.75849 0.15235 0.0
H7 H 0.24402 0.75679 0.94145 0.0
H8 H 0.2571 0.81071 0.92814 0.0
H9 H 0.20463 0.79593 0.91584 0.0
H10 H 0.28488 0.7484 0.1578 0.0
H11 H 0.2342 0.73151 0.16941 0.0
H12 H 0.25038 0.78221 0.1765 0.0
C13 C 0.73052 0.72548 0.69045 0.0
N14 N 0.70533 0.69423 0.68127 0.0
N15 N 0.7511 0.73953 0.64668 0.0
C16 C 0.73716 0.74016 0.74374 0.0
C17 C 0.7374 0.71568 0.61063 0.0
N18 N 0.71013 0.68777 0.63196 0.0
C19 C 0.74758 0.72234 0.55227 0.0
H20 H 0.71512 0.76545 0.74025 0.0
H21 H 0.76856 0.75208 0.75154 0.0
H22 H 0.73196 0.7149 0.77976 0.0
H23 H 0.77362 0.70198 0.55262 0.0
H24 H 0.75623 0.75482 0.5362 0.0
H25 H 0.72124 0.71455 0.52346 0.0
C26 C 0.77438 0.19102 0.14415 0.0
N27 N 0.80268 0.16717 0.13257 0.0
N28 N 0.75364 0.21416 0.09664 0.0
C29 C 0.76846 0.1932 0.20207 0.0
C30 C 0.77064 0.20375 0.05551 0.0
N31 N 0.80082 0.17535 0.0775 0.0
C32 C 0.75909 0.22277 0.99432 0.0
H33 H 0.7747 0.16274 0.23155 0.0
H34 H 0.73695 0.20342 0.20272 0.0
H35 H 0.7903 0.2157 0.21636 0.0
H36 H 0.77834 0.25025 0.98264 0.0
H37 H 0.72672 0.23294 0.98441 0.0
H38 H 0.76427 0.20062 0.96895 0.0
C39 C 0.29956 0.29132 0.42304 0.0
N40 N 0.32899 0.31936 0.43079 0.0
N41 N 0.28498 0.27473 0.47142 0.0
C42 C 0.28749 0.27773 0.36941 0.0
C43 C 0.30677 0.2937 0.50883 0.0
N44 N 0.33385 0.32033 0.48437 0.0
C45 C 0.29897 0.28924 0.56794 0.0
H46 H 0.26205 0.29764 0.34368 0.0
H47 H 0.27712 0.24525 0.37763 0.0
H48 H 0.31341 0.28074 0.34528 0.0
H49 H 0.31952 0.26493 0.59598 0.0
H50 H 0.26689 0.28039 0.5722 0.0
H51 H 0.30537 0.31846 0.58158 0.0
Tb52 Tb 0.0505 0.96954 0.54537 0.0
C53 C 0.96887 0.14085 0.54609 0.0
N54 N 1.00012 0.11941 0.58197 0.0
C55 C 0.03705 0.1822 0.58281 0.0
C56 C 0.97073 0.18395 0.52638 0.0
C57 C 0.03367 0.13946 0.60141 0.0
C58 C 1.00554 0.20454 0.54491 0.0
C59 C 0.9017 0.1402 0.4919 0.0
C60 C 0.93485 0.11936 0.52911 0.0
C61 C 0.90341 0.18316 0.47183 0.0
C62 C 0.93785 0.20498 0.48901 0.0
Tb63 Tb 0.99169 0.04973 0.60763 0.0
N64 N 0.93501 0.07763 0.54781 0.0
C65 C 0.86799 0.11716 0.47586 0.0
C66 C 0.90155 0.05518 0.53418 0.0
C67 C 0.8678 0.07452 0.49747 0.0
H68 H 0.05757 0.12255 0.63198 0.0
H69 H 0.84165 0.05654 0.4859 0.0
H70 H 1.00728 0.87861 0.57776 0.0
H71 H 0.20361 0.02134 0.608 0.0
H72 H 0.90089 0.02237 0.55097 0.0
H73 H 0.84189 0.13199 0.44723 0.0
H74 H 0.13811 0.02397 0.54667 0.0
H75 H 0.06383 0.19791 0.598 0.0
H76 H 0.87828 0.19978 0.44303 0.0
H77 H 0.93873 0.23811 0.47325 0.0
H78 H 0.02281 0.81183 0.64541 0.0
H79 H 1.00821 0.23766 0.53068 0.0
H80 H 0.22131 0.96079 0.68643 0.0
N81 N 0.06294 0.90614 0.60409 0.0
C82 C 0.09953 0.90092 0.63794 0.0
C83 C 0.04459 0.83671 0.64389 0.0
C84 C 0.10962 0.86357 0.6775 0.0
C85 C 0.03577 0.87455 0.60574 0.0
C86 C 0.08156 0.83126 0.6802 0.0
N87 N 0.11487 0.96953 0.59549 0.0
C88 C 0.1435 0.99926 0.58341 0.0
C89 C 0.16425 0.9299 0.66875 0.0
C90 C 0.12607 0.93394 0.63412 0.0
C91 C 0.19165 0.96263 0.66079 0.0
C92 C 0.18161 0.99701 0.61694 0.0
H93 H 0.08814 0.80205 0.71005 0.0
H94 H 0.15517 0.83163 0.74451 0.0
H95 H 0.20323 0.88958 0.73646 0.0
O96 O 0.0909 0.97222 0.48719 0.0
O97 O 0.03945 0.95514 0.63262 0.0
O98 O 0.04684 0.01757 0.65569 0.0
O99 O 0.04453 0.92647 0.49448 0.0
O100 O 0.06491 0.03581 0.52436 0.0
O101 O 0.05718 0.05461 0.60503 0.0
O102 O 0.95293 0.02698 0.66698 0.0
O103 O 0.98591 0.0617 0.51629 0.0
O104 O 0.99709 1.00052 0.49062 0.0
O105 O 0.98604 0.08304 0.66853 0.0
O106 O 0.96412 0.98844 0.61037 0.0
O107 O 0.98532 0.95628 0.54488 0.0
C108 C 0.05088 0.97732 0.66913 0.0
C109 C 0.06201 0.95369 0.40482 0.0
C110 C 0.07039 0.94276 0.31347 0.0
C111 C 0.04382 0.97631 0.28808 0.0
C112 C 0.03657 0.98774 0.37835 0.0
C113 C 0.02707 0.99857 0.32042 0.0
C114 C 0.07885 0.93117 0.37224 0.0
C115 C 0.0717 0.06151 0.55758 0.0
C116 C 0.07285 0.94323 0.46605 0.0
C117 C 0.14698 0.85994 0.71343 0.0
C118 C 0.17424 0.89303 0.70906 0.0
C119 C 0.98239 0.03827 0.48006 0.0
C120 C 0.97139 0.0431 0.75463 0.0
C121 C 0.96052 0.05014 0.84685 0.0
C122 C 0.98766 0.01689 0.87122 0.0
C123 C 0.99768 0.00961 0.77985 0.0
C124 C 0.95293 0.06341 0.78823 0.0
C125 C 1.00613 0.99684 0.83781 0.0
C126 C 0.96011 0.96059 0.57976 0.0
C127 C 0.96178 0.05621 0.69346 0.0
H128 H 0.03617 0.98551 0.24311 0.0
H129 H 0.02467 0.00646 0.40231 0.0
H130 H 1.00713 0.02472 0.30048 0.0
H131 H 0.09955 0.90566 0.39253 0.0
H132 H 0.99457 0.00633 0.91613 0.0
H133 H 0.01108 0.99306 0.75463 0.0
H134 H 0.93176 0.08866 0.76865 0.0
H135 H 0.02669 0.97104 0.85685 0.0
Tb136 Tb 0.47372 0.48841 0.9938 0.0
C137 C 0.61364 0.59476 0.04474 0.0
N138 N 0.61339 0.55482 0.07304 0.0
C139 C 0.68124 0.5451 0.05552 0.0
C140 C 0.64711 0.61117 0.01828 0.0
C141 C 0.64709 0.53025 0.08079 0.0
C142 C 0.68102 0.58558 0.02339 0.0
C143 C 0.58021 0.66147 0.0172 0.0
C144 C 0.58051 0.61921 0.04378 0.0
C145 C 0.61239 0.67772 0.988 0.0
C146 C 0.64581 0.65257 0.98852 0.0
Tb147 Tb 0.5552 0.53187 0.10839 0.0
N148 N 0.55028 0.60224 0.07289 0.0
C149 C 0.54863 0.68641 0.02306 0.0
C150 C 0.52239 0.62754 0.0842 0.0
C151 C 0.52024 0.66956 0.058 0.0
H152 H 0.64707 0.4989 0.10523 0.0
H153 H 0.49709 0.68904 0.06556 0.0
H154 H 0.42788 0.57062 0.90789 0.0
H155 H 0.40508 0.34358 0.0819 0.0
H156 H 0.50176 0.61577 0.11376 0.0
H157 H 0.54721 0.71905 1.00335 0.0
H158 H 0.45935 0.38816 0.04158 0.0
H159 H 0.70757 0.5253 0.06058 0.0
H160 H 0.61238 0.70997 0.96656 0.0
H161 H 0.67093 0.6657 0.9671 0.0
H162 H 0.35999 0.60479 0.89033 0.0
H163 H 0.70739 0.59697 1.00365 0.0
H164 H 0.33867 0.37432 0.08608 0.0
N165 N 0.41116 0.52011 0.96976 0.0
C166 C 0.38045 0.50026 0.99496 0.0
C167 C 0.36542 0.5755 0.92025 0.0
C168 C 0.34121 0.51805 0.98597 0.0
C169 C 0.40372 0.55616 0.93023 0.0
C170 C 0.33427 0.55683 0.94929 0.0
N171 N 0.42464 0.44349 0.02674 0.0
C172 C 0.43038 0.40163 0.04351 0.0
C173 C 0.35538 0.43611 0.04611 0.0
C174 C 0.38743 0.46014 0.02455 0.0
C175 C 0.36244 0.39392 0.06891 0.0
C176 C 0.39984 0.37643 0.06641 0.0
H177 H 0.30456 0.57168 0.94122 0.0
H178 H 0.27956 0.50885 1.00568 0.0
H179 H 0.292 0.43683 0.05845 0.0
O180 O 0.50753 0.47226 0.93669 0.0
O181 O 0.48009 0.45411 0.08171 0.0
O182 O 0.50031 0.50085 0.13653 0.0
O183 O 0.44224 0.47166 0.92242 0.0
O184 O 0.52556 0.44683 0.03376 0.0
O185 O 0.57142 0.47016 0.10199 0.0
O186 O 0.57816 0.56174 0.17251 0.0
O187 O 0.56868 0.52475 0.0269 0.0
O188 O 0.50876 0.54438 0.97014 0.0
O189 O 0.58642 0.49685 0.18393 0.0
O190 O 0.49039 0.54852 0.09831 0.0
O191 O 0.47334 0.5515 1.0055 0.0
C192 C 0.4832 0.46612 0.12883 0.0
C193 C 0.47522 0.48859 0.84309 0.0
C194 C 0.46351 0.48592 0.74466 0.0
C195 C 0.47379 0.52791 0.73027 0.0
C196 C 0.48471 0.53053 0.82772 0.0
C197 C 0.48431 0.54996 0.77159 0.0
C198 C 0.46457 0.46645 0.80156 0.0
C199 C 0.5588 0.44316 0.07171 0.0
C200 C 0.47527 0.46768 0.90203 0.0
C201 C 0.30983 0.49555 1.0113 0.0
C202 C 0.31691 0.45454 0.04135 0.0
C203 C 0.54871 0.54361 0.9784 0.0
C204 C 0.57448 0.52078 0.26238 0.0
C205 C 0.57792 0.53486 0.35514 0.0
C206 C 0.54349 0.50992 0.36372 0.0
C207 C 0.54021 0.49602 0.27225 0.0
C208 C 0.59338 0.54006 0.30412 0.0
C209 C 0.52489 0.49061 0.32255 0.0
C210 C 0.465 0.5596 0.05153 0.0
C211 C 0.58967 0.52758 0.20812 0.0
H212 H 0.47386 0.54371 0.68708 0.0
H213 H 0.49219 0.54823 0.85905 0.0
H214 H 0.49198 0.58229 0.76005 0.0
H215 H 0.45623 0.4343 0.81364 0.0
H216 H 0.53123 0.50487 0.40265 0.0
H217 H 0.52522 0.48083 0.24108 0.0
H218 H 0.61958 0.5596 0.29648 0.0
H219 H 0.49849 0.47134 0.32964 0.0
H220 H 0.21005 0.27338 0.41035 0.0
H221 H 0.12936 0.08848 0.63101 0.0
H222 H 0.28857 0.20624 0.55541 0.0
H223 H 0.08224 0.10945 0.45579 0.0
H224 H 0.18147 0.14095 0.60895 0.0
H225 H 0.15666 0.22161 0.43012 0.0
C226 C 0.2161 0.24758 0.44607 0.0
C227 C 0.2537 0.24402 0.48137 0.0
C228 C 0.1596 0.13416 0.5754 0.0
C229 C 0.19262 0.18575 0.50517 0.0
C230 C 0.12973 0.10457 0.58797 0.0
C231 C 0.1015 0.09489 0.5451 0.0
C232 C 0.16075 0.15475 0.51968 0.0
C233 C 0.1036 0.1161 0.48993 0.0
C234 C 0.18565 0.21827 0.45748 0.0
C235 C 0.25977 0.21042 0.52773 0.0
N236 N 0.13259 0.14532 0.47874 0.0
N237 N 0.22944 0.18279 0.53862 0.0
H238 H 0.31809 0.77801 0.99774 0.0
H239 H 0.41295 0.55345 0.12719 0.0
H240 H 0.25619 0.68457 0.10554 0.0
H241 H 0.44231 0.63038 0.9737 0.0
H242 H 0.35974 0.60321 0.12759 0.0
H243 H 0.36933 0.72669 0.99656 0.0
C244 C 0.31541 0.74656 0.02108 0.0
C245 C 0.2829 0.73519 0.05136 0.0
C246 C 0.3776 0.609 0.09361 0.0
C247 C 0.34141 0.67664 0.05105 0.0
C248 C 0.40784 0.58073 0.0934 0.0
C249 C 0.4314 0.58785 0.05 0.0
C250 C 0.37179 0.64502 0.05082 0.0
C251 C 0.42417 0.62367 1.00739 0.0
C252 C 0.34452 0.71736 0.02043 0.0
C253 C 0.28104 0.69438 0.08199 0.0
N254 N 0.39513 0.65118 1.00905 0.0
N255 N 0.31 0.66645 0.08116 0.0
H256 H 0.82508 0.73413 0.61588 0.0
H257 H 0.902 0.95547 0.64935 0.0
H258 H 0.74657 0.81723 0.66226 0.0
H259 H 0.94066 0.89675 0.52801 0.0
H260 H 0.85024 0.90209 0.66678 0.0
H261 H 0.87456 0.78972 0.59736 0.0
C262 C 0.81834 0.76417 0.6221 0.0
C263 C 0.78159 0.77132 0.63999 0.0
C264 C 0.87012 0.90107 0.63635 0.0
C265 C 0.83831 0.83473 0.62017 0.0
C266 C 0.89973 0.93149 0.62629 0.0
C267 C 0.92647 0.93035 0.5878 0.0
C268 C 0.86762 0.86889 0.60845 0.0
C269 C 0.92155 0.89857 0.55897 0.0
C270 C 0.84651 0.7958 0.6116 0.0
C271 C 0.77469 0.81049 0.64881 0.0
N272 N 0.89313 0.86888 0.5704 0.0
N273 N 0.80287 0.84081 0.63895 0.0
H274 H 0.76899 0.28256 0.13527 0.0
H275 H 0.54527 0.37792 0.02127 0.0
H276 H 0.67446 0.21979 0.04928 0.0
H277 H 0.6327 0.42438 0.13872 0.0
H278 H 0.59219 0.32117 0.02765 0.0
H279 H 0.72001 0.33712 0.13239 0.0
C280 C 0.73779 0.2806 0.11559 0.0
C281 C 0.72548 0.24717 0.09215 0.0
C282 C 0.60094 0.34371 0.05219 0.0
C283 C 0.66933 0.30896 0.08858 0.0
C284 C 0.57416 0.37618 0.04866 0.0
C285 C 0.5851 0.40641 0.07909 0.0
C286 C 0.63908 0.34157 0.08605 0.0
C287 C 0.62294 0.4022 0.11403 0.0
C288 C 0.70985 0.3115 0.11404 0.0
C289 C 0.68492 0.24558 0.06705 0.0
N290 N 0.64863 0.37062 0.11619 0.0
N291 N 0.65817 0.27617 0.06576 0.0
H292 H 0.202 0.88676 0.06437 0.0
H293 H 0.08175 0.85936 0.32657 0.0
H294 H 0.16386 0.76873 0.15362 0.0
H295 H 0.1044 0.97725 0.22019 0.0
H296 H 0.11394 0.82519 0.26649 0.0
H297 H 0.16745 0.92046 0.12252 0.0
C298 C 0.18581 0.86808 0.09582 0.0
C299 C 0.18547 0.82507 0.10423 0.0
C300 C 0.11174 0.85853 0.25626 0.0
C301 C 0.14673 0.86302 0.17185 0.0
C302 C 0.09361 0.87803 0.29073 0.0
C303 C 0.0902 0.92121 0.27824 0.0
C304 C 0.12687 0.8824 0.20927 0.0
C305 C 0.10581 0.94387 0.23098 0.0
C306 C 0.16638 0.88719 0.12932 0.0
C307 C 0.16495 0.802 0.14635 0.0
N308 N 0.1235 0.92423 0.19836 0.0
N309 N 0.14649 0.82123 0.17881 0.0
H310 H 0.64235 0.72385 0.71754 0.0
H311 H 0.62184 0.521 0.95533 0.0
H312 H 0.71061 0.61303 0.73147 0.0
H313 H 0.52678 0.61354 0.89827 0.0
H314 H 0.65874 0.55655 0.87957 0.0
H315 H 0.60265 0.68615 0.78888 0.0
C316 C 0.64851 0.69137 0.73545 0.0
C317 C 0.67939 0.67125 0.71884 0.0
C318 C 0.62969 0.56891 0.88344 0.0
C319 C 0.63505 0.62813 0.8009 0.0
C320 C 0.60878 0.54879 0.92677 0.0
C321 C 0.57122 0.56434 0.93278 0.0
C322 C 0.61314 0.60515 0.84641 0.0
C323 C 0.55554 0.60039 0.89471 0.0
C324 C 0.62602 0.66989 0.77604 0.0
C325 C 0.6867 0.62928 0.74316 0.0
N326 N 0.57667 0.61973 0.85337 0.0
N327 N 0.66496 0.60911 0.78347 0.0
H328 H 0.87342 0.19882 0.17028 0.0
H329 H 0.93899 0.99605 0.40905 0.0
H330 H 0.80308 0.08755 0.1881 0.0
H331 H 0.97394 0.11905 0.42401 0.0
H332 H 0.89956 0.02529 0.31734 0.0
H333 H 0.92214 0.16562 0.25223 0.0
C334 C 0.86914 0.16693 0.19083 0.0
C335 C 0.83499 0.1454 0.17268 0.0
C336 C 0.91602 0.04578 0.34071 0.0
C337 C 0.8894 0.10762 0.26614 0.0
C338 C 0.93854 0.02917 0.39286 0.0
C339 C 0.95949 0.05525 0.42418 0.0
C340 C 0.91494 0.08867 0.31956 0.0
C341 C 0.95785 0.09791 0.40142 0.0
C342 C 0.89647 0.14818 0.23763 0.0
C343 C 0.82966 0.10457 0.20081 0.0
N344 N 0.93597 0.11332 0.35041 0.0
N345 N 0.85659 0.08688 0.24645 0.0
H346 H 0.33461 0.40368 0.46029 0.0
H347 H 0.48286 0.40616 0.7451 0.0
H348 H 0.39347 0.29575 0.57105 0.0
H349 H 0.41492 0.51277 0.64338 0.0
H350 H 0.45785 0.36742 0.67504 0.0
H351 H 0.3722 0.44668 0.51876 0.0
C352 C 0.35629 0.38933 0.49625 0.0
C353 C 0.36113 0.34639 0.51132 0.0
C354 C 0.44861 0.39938 0.66782 0.0
C355 C 0.40344 0.39468 0.57877 0.0
C356 C 0.46269 0.42147 0.70805 0.0
C357 C 0.45069 0.46274 0.70056 0.0
C358 C 0.42218 0.41855 0.61958 0.0
C359 C 0.42521 0.48114 0.65093 0.0
C360 C 0.37742 0.41365 0.52987 0.0
C361 C 0.38904 0.32886 0.55851 0.0
N362 N 0.41158 0.45885 0.6126 0.0
N363 N 0.40888 0.35299 0.59088 0.0
H364 H 0.62854 0.68055 0.60438 0.0
H365 H 0.65957 0.54074 0.39252 0.0
H366 H 0.7443 0.62911 0.59503 0.0
H367 H 0.54074 0.5746 0.41966 0.0
H368 H 0.69089 0.57269 0.46741 0.0
H369 H 0.59477 0.63967 0.54027 0.0
C370 C 0.64657 0.65977 0.5898 0.0
C371 C 0.68908 0.65805 0.6045 0.0
C372 C 0.65794 0.573 0.45718 0.0
C373 C 0.65133 0.61234 0.53037 0.0
C374 C 0.64008 0.5551 0.41404 0.0
C375 C 0.59749 0.55504 0.39968 0.0
C376 C 0.63309 0.5914 0.48599 0.0
C377 C 0.5737 0.5736 0.42964 0.0
C378 C 0.6275 0.63681 0.55287 0.0
C379 C 0.71142 0.63125 0.58414 0.0
N380 N 0.59181 0.59119 0.47113 0.0
N381 N 0.6924 0.60983 0.54759 0.0
H382 H 0.81243 0.09446 0.08562 0.0
H383 H 0.94636 0.13267 0.83659 0.0
H384 H 0.84782 0.21528 1.00193 0.0
H385 H 0.92565 0.01233 0.93825 0.0
H386 H 0.90956 0.16382 0.89515 0.0
H387 H 0.8539 0.06374 0.0318 0.0
C388 C 0.82939 0.11439 0.05623 0.0
C389 C 0.82675 0.15727 0.04785 0.0
C390 C 0.91325 0.13061 0.90478 0.0
C391 C 0.87358 0.12277 0.98534 0.0
C392 C 0.93404 0.11281 0.87117 0.0
C393 C 0.93913 0.06982 0.88254 0.0
C394 C 0.89712 0.10522 0.94983 0.0
C395 C 0.92291 0.04562 0.92831 0.0
C396 C 0.85282 0.09698 0.02526 0.0
C397 C 0.8487 0.18203 1.00877 0.0
N398 N 0.90252 0.06362 0.96005 0.0
N399 N 0.87105 0.16445 0.97865 0.0
H400 H 0.29769 0.37096 0.33415 0.0
H401 H 0.51255 0.40582 0.21938 0.0
H402 H 0.4109 0.32107 0.43247 0.0
H403 H 0.40354 0.47497 0.1379 0.0
H404 H 0.47547 0.37104 0.29553 0.0
H405 H 0.33536 0.40679 0.25958 0.0
C406 C 0.33062 0.36789 0.33989 0.0
C407 C 0.35139 0.34319 0.3891 0.0
C408 C 0.45957 0.39367 0.26089 0.0
C409 C 0.39476 0.38357 0.30424 0.0
C410 C 0.48063 0.41323 0.21745 0.0
C411 C 0.46076 0.44284 0.17253 0.0
C412 C 0.41828 0.40366 0.2589 0.0
C413 C 0.41964 0.45192 0.17177 0.0
C414 C 0.35212 0.38825 0.29752 0.0
C415 C 0.39401 0.34012 0.39509 0.0
N416 N 0.39968 0.43232 0.21425 0.0
N417 N 0.41435 0.35985 0.35294 0.0
H418 H 0.12397 0.80497 0.98499 0.0
H419 H 0.11052 0.00776 0.73641 0.0
H420 H 0.22439 0.88792 0.95834 0.0
H421 H 0.0362 0.90043 0.72916 0.0
H422 H 0.14433 0.97211 0.82914 0.0
H423 H 0.08219 0.84859 0.90303 0.0
C424 C 0.13655 0.83317 0.96266 0.0
C425 C 0.1771 0.84353 0.97803 0.0
C426 C 0.12046 0.95652 0.8073 0.0
C427 C 0.13059 0.89272 0.88474 0.0
C428 C 0.1012 0.97679 0.75461 0.0
C429 C 0.07094 0.9567 0.72521 0.0
C430 C 0.10877 0.91624 0.83095 0.0
C431 C 0.05984 0.91666 0.75039 0.0
C432 C 0.11311 0.85769 0.91581 0.0
C433 C 0.19291 0.8796 0.94758 0.0
N434 N 0.07877 0.89767 0.80193 0.0
N435 N 0.16965 0.90295 0.90209 0.0
loop_
_geom_bond_atom_site_label_1
_geom_bond_atom_site_label_2
_geom_bond_distance
_geom_bond_site_symmetry_2
_ccdc_geom_bond_type
C0 N1 1.317 . S
C0 N2 1.348 1_556 S
C0 C3 1.485 . S
N1 C0 1.317 . S
N1 N5 1.370 1_556 S
N2 C0 1.348 1_554 S
N2 C4 1.346 . S
C3 C0 1.485 . S
C3 H7 0.960 . S
C3 H8 0.961 . S
C3 H9 0.960 . S
C4 N2 1.346 . S
C4 N5 1.307 . S
C4 C6 1.486 . S
N5 N1 1.370 1_554 S
N5 C4 1.307 . S
C6 C4 1.486 . S
C6 H10 0.960 . S
C6 H11 0.960 . S
C6 H12 0.959 . S
H7 C3 0.960 . S
H8 C3 0.961 . S
H9 C3 0.960 . S
H10 C6 0.960 . S
H11 C6 0.960 . S
H12 C6 0.959 . S
C13 N14 1.317 . S
C13 N15 1.348 . S
C13 C16 1.485 . S
N14 C13 1.317 . S
N14 N18 1.370 . S
N15 C13 1.348 . S
N15 C17 1.346 . S
C16 C13 1.485 . S
C16 H20 0.960 . S
C16 H21 0.961 . S
C16 H22 0.960 . S
C17 N15 1.346 . S
C17 N18 1.307 . S
C17 C19 1.486 . S
N18 N14 1.370 . S
N18 C17 1.307 . S
C19 C17 1.486 . S
C19 H23 0.960 . S
C19 H24 0.960 . S
C19 H25 0.959 . S
H20 C16 0.960 . S
H21 C16 0.961 . S
H22 C16 0.960 . S
H23 C19 0.960 . S
H24 C19 0.960 . S
H25 C19 0.959 . S
C26 N27 1.317 . S
C26 N28 1.348 . S
C26 C29 1.485 . S
N27 C26 1.317 . S
N27 N31 1.370 . S
N28 C26 1.348 . S
N28 C30 1.346 . S
C29 C26 1.485 . S
C29 H33 0.960 . S
C29 H34 0.961 . S
C29 H35 0.960 . S
C30 N28 1.346 . S
C30 N31 1.307 . S
C30 C32 1.486 1_554 S
N31 N27 1.370 . S
N31 C30 1.307 . S
C32 C30 1.486 1_556 S
C32 H36 0.960 . S
C32 H37 0.960 . S
C32 H38 0.959 . S
H33 C29 0.960 . S
H34 C29 0.961 . S
H35 C29 0.960 . S
H36 C32 0.960 . S
H37 C32 0.960 . S
H38 C32 0.959 . S
C39 N40 1.317 . S
C39 N41 1.348 . S
C39 C42 1.485 . S
N40 C39 1.317 . S
N40 N44 1.370 . S
N41 C39 1.348 . S
N41 C43 1.346 . S
C42 C39 1.485 . S
C42 H46 0.960 . S
C42 H47 0.961 . S
C42 H48 0.960 . S
C43 N41 1.346 . S
C43 N44 1.307 . S
C43 C45 1.486 . S
N44 N40 1.370 . S
N44 C43 1.307 . S
C45 C43 1.486 . S
C45 H49 0.960 . S
C45 H50 0.960 . S
C45 H51 0.959 . S
H46 C42 0.960 . S
H47 C42 0.961 . S
H48 C42 0.960 . S
H49 C45 0.960 . S
H50 C45 0.960 . S
H51 C45 0.959 . S
Tb52 N81 2.617 . S
Tb52 N87 2.572 . S
Tb52 O96 2.465 . S
Tb52 O97 2.387 . S
Tb52 O99 2.428 . S
Tb52 O100 2.308 1_565 S
Tb52 O104 2.349 1_465 S
Tb52 O107 2.393 1_455 S
Tb52 C116 2.802 . S
C53 N54 1.379 . S
C53 C56 1.416 . S
C53 C60 1.424 . S
N54 C53 1.379 . S
N54 C57 1.334 1_655 S
N54 Tb63 2.617 . S
C55 C57 1.390 . S
C55 C58 1.339 1_455 S
C55 H75 0.930 . S
C56 C53 1.416 . S
C56 C58 1.416 . S
C56 C62 1.448 . S
C57 N54 1.334 1_455 S
C57 C55 1.390 . S
C57 H68 0.930 . S
C58 C55 1.339 1_655 S
C58 C56 1.416 . S
C58 H79 0.930 . S
C59 C60 1.413 . S
C59 C61 1.427 . S
C59 C65 1.416 . S
C60 C53 1.424 . S
C60 C59 1.413 . S
C60 N64 1.361 . S
C61 C59 1.427 . S
C61 C62 1.328 . S
C61 H76 0.929 . S
C62 C56 1.448 . S
C62 C61 1.328 . S
C62 H77 0.930 . S
Tb63 N54 2.617 . S
Tb63 N64 2.572 . S
Tb63 O98 2.349 1_655 S
Tb63 O101 2.393 1_655 S
Tb63 O102 2.465 . S
Tb63 O103 2.387 . S
Tb63 O105 2.428 . S
Tb63 O106 2.308 1_545 S
Tb63 C127 2.802 . S
N64 C60 1.361 . S
N64 Tb63 2.572 . S
N64 C66 1.340 . S
C65 C59 1.416 . S
C65 C67 1.332 . S
C65 H73 0.931 . S
C66 N64 1.340 . S
C66 C67 1.407 . S
C66 H72 0.930 . S
C67 C65 1.332 . S
C67 C66 1.407 . S
C67 H69 0.929 . S
H68 C57 0.930 . S
H69 C67 0.929 . S
H70 C85 0.930 1_655 S
H71 C92 0.929 . S
H72 C66 0.930 . S
H73 C65 0.931 . S
H74 C88 0.930 . S
H75 C55 0.930 . S
H76 C61 0.929 . S
H77 C62 0.930 . S
H78 C83 0.930 1_655 S
H79 C58 0.930 . S
H80 C91 0.931 . S
N81 Tb52 2.617 . S
N81 C82 1.379 . S
N81 C85 1.334 . S
C82 N81 1.379 . S
C82 C84 1.416 . S
C82 C90 1.424 . S
C83 H78 0.930 1_455 S
C83 C85 1.390 . S
C83 C86 1.339 . S
C84 C82 1.416 . S
C84 C86 1.416 . S
C84 C117 1.448 . S
C85 H70 0.930 1_455 S
C85 N81 1.334 . S
C85 C83 1.390 . S
C86 C83 1.339 . S
C86 C84 1.416 . S
C86 H93 0.930 . S
N87 Tb52 2.572 . S
N87 C88 1.340 . S
N87 C90 1.361 . S
C88 H74 0.930 . S
C88 N87 1.340 . S
C88 C92 1.407 . S
C89 C90 1.413 . S
C89 C91 1.416 . S
C89 C118 1.427 . S
C90 C82 1.424 . S
C90 N87 1.361 . S
C90 C89 1.413 . S
C91 H80 0.931 . S
C91 C89 1.416 . S
C91 C92 1.332 . S
C92 H71 0.929 . S
C92 C88 1.407 . S
C92 C91 1.332 . S
H93 C86 0.930 . S
H94 C117 0.930 . S
H95 C118 0.929 . S
O96 Tb52 2.465 . S
O96 C116 1.264 . S
O97 Tb52 2.387 . S
O97 C108 1.264 . S
O98 Tb63 2.349 1_455 S
O98 C108 1.243 1_545 S
O99 Tb52 2.428 . S
O99 C116 1.256 . S
O100 Tb52 2.308 1_545 S
O100 C115 1.266 . S
O101 Tb63 2.393 1_455 S
O101 C115 1.248 . S
O102 Tb63 2.465 . S
O102 C127 1.264 . S
O103 Tb63 2.387 . S
O103 C119 1.264 . S
O104 Tb52 2.349 1_645 S
O104 C119 1.243 . S
O105 Tb63 2.428 . S
O105 C127 1.256 . S
O106 Tb63 2.308 1_565 S
O106 C126 1.266 . S
O107 Tb52 2.393 1_655 S
O107 C126 1.248 . S
C108 O97 1.264 . S
C108 O98 1.243 1_565 S
C109 C112 1.399 . S
C109 C114 1.383 . S
C109 C116 1.496 . S
C110 C111 1.399 . S
C110 C114 1.389 . S
C111 C110 1.399 . S
C111 C113 1.380 . S
C111 H128 0.929 . S
C112 C109 1.399 . S
C112 C113 1.392 . S
C112 H129 0.929 . S
C113 C111 1.380 . S
C113 C112 1.392 . S
C113 H130 0.929 . S
C114 C109 1.383 . S
C114 C110 1.389 . S
C114 H131 0.931 . S
C115 O100 1.266 . S
C115 O101 1.248 . S
C116 Tb52 2.802 . S
C116 O96 1.264 . S
C116 O99 1.256 . S
C116 C109 1.496 . S
C117 C84 1.448 . S
C117 H94 0.930 . S
C117 C118 1.328 . S
C118 C89 1.427 . S
C118 H95 0.929 . S
C118 C117 1.328 . S
C119 O103 1.264 . S
C119 O104 1.243 . S
C120 C123 1.399 . S
C120 C124 1.383 . S
C120 C127 1.496 . S
C121 C122 1.399 . S
C121 C124 1.389 . S
C122 C121 1.399 . S
C122 C125 1.380 . S
C122 H132 0.929 . S
C123 C120 1.399 . S
C123 C125 1.392 . S
C123 H133 0.929 . S
C124 C120 1.383 . S
C124 C121 1.389 . S
C124 H134 0.931 . S
C125 C122 1.380 . S
C125 C123 1.392 . S
C125 H135 0.929 . S
C126 O106 1.266 . S
C126 O107 1.248 . S
C127 Tb63 2.802 . S
C127 O102 1.264 . S
C127 O105 1.256 . S
C127 C120 1.496 . S
H128 C111 0.929 . S
H129 C112 0.929 . S
H130 C113 0.929 . S
H131 C114 0.931 . S
H132 C122 0.929 . S
H133 C123 0.929 . S
H134 C124 0.931 . S
H135 C125 0.929 . S
Tb136 N165 2.616 1_556 S
Tb136 N171 2.572 1_556 S
Tb136 O180 2.465 . S
Tb136 O181 2.387 1_556 S
Tb136 O183 2.428 . S
Tb136 O184 2.308 1_556 S
Tb136 O188 2.349 . S
Tb136 O191 2.393 1_556 S
Tb136 C200 2.802 . S
C137 N138 1.379 . S
C137 C140 1.416 . S
C137 C144 1.424 . S
N138 C137 1.379 . S
N138 C141 1.334 . S
N138 Tb147 2.617 . S
C139 C141 1.390 . S
C139 C142 1.339 . S
C139 H159 0.930 . S
C140 C137 1.416 . S
C140 C142 1.416 . S
C140 C146 1.448 . S
C141 N138 1.334 . S
C141 C139 1.390 . S
C141 H152 0.930 . S
C142 C139 1.339 . S
C142 C140 1.416 . S
C142 H163 0.930 . S
C143 C144 1.413 . S
C143 C145 1.427 . S
C143 C149 1.416 . S
C144 C137 1.424 . S
C144 C143 1.413 . S
C144 N148 1.361 . S
C145 C143 1.427 . S
C145 C146 1.328 . S
C145 H160 0.929 . S
C146 C140 1.448 . S
C146 C145 1.328 . S
C146 H161 0.930 . S
Tb147 N138 2.617 . S
Tb147 N148 2.572 . S
Tb147 O182 2.349 . S
Tb147 O185 2.393 . S
Tb147 O186 2.465 . S
Tb147 O187 2.387 . S
Tb147 O189 2.428 . S
Tb147 O190 2.308 . S
Tb147 C211 2.802 . S
N148 C144 1.361 . S
N148 Tb147 2.572 . S
N148 C150 1.340 . S
C149 C143 1.416 . S
C149 C151 1.332 . S
C149 H157 0.931 . S
C150 N148 1.340 . S
C150 C151 1.407 . S
C150 H156 0.930 . S
C151 C149 1.332 . S
C151 C150 1.407 . S
C151 H153 0.929 . S
H152 C141 0.930 . S
H153 C151 0.929 . S
H154 C169 0.930 . S
H155 C176 0.929 . S
H156 C150 0.930 . S
H157 C149 0.931 . S
H158 C172 0.930 . S
H159 C139 0.930 . S
H160 C145 0.929 . S
H161 C146 0.930 . S
H162 C167 0.930 . S
H163 C142 0.930 . S
H164 C175 0.931 . S
N165 Tb136 2.616 1_554 S
N165 C166 1.380 . S
N165 C169 1.335 1_554 S
C166 N165 1.380 . S
C166 C168 1.416 . S
C166 C174 1.424 . S
C167 H162 0.930 . S
C167 C169 1.390 . S
C167 C170 1.339 1_556 S
C168 C166 1.416 . S
C168 C170 1.416 . S
C168 C201 1.448 . S
C169 H154 0.930 . S
C169 N165 1.335 1_556 S
C169 C167 1.390 . S
C170 C167 1.339 1_554 S
C170 C168 1.416 . S
C170 H177 0.930 . S
N171 Tb136 2.572 1_554 S
N171 C172 1.340 . S
N171 C174 1.361 . S
C172 H158 0.930 . S
C172 N171 1.340 . S
C172 C176 1.407 . S
C173 C174 1.413 . S
C173 C175 1.416 . S
C173 C202 1.427 . S
C174 C166 1.424 . S
C174 N171 1.361 . S
C174 C173 1.413 . S
C175 H164 0.931 . S
C175 C173 1.416 . S
C175 C176 1.332 . S
C176 H155 0.929 . S
C176 C172 1.407 . S
C176 C175 1.332 . S
H177 C170 0.930 . S
H178 C201 0.930 . S
H179 C202 0.929 . S
O180 Tb136 2.465 . S
O180 C200 1.264 . S
O181 Tb136 2.387 1_554 S
O181 C192 1.264 . S
O182 Tb147 2.349 . S
O182 C192 1.243 . S
O183 Tb136 2.428 . S
O183 C200 1.256 . S
O184 Tb136 2.308 1_554 S
O184 C199 1.266 . S
O185 Tb147 2.393 . S
O185 C199 1.248 . S
O186 Tb147 2.465 . S
O186 C211 1.264 . S
O187 Tb147 2.387 . S
O187 C203 1.264 1_554 S
O188 Tb136 2.349 . S
O188 C203 1.243 . S
O189 Tb147 2.428 . S
O189 C211 1.256 . S
O190 Tb147 2.308 . S
O190 C210 1.266 . S
O191 Tb136 2.393 1_554 S
O191 C210 1.248 . S
C192 O181 1.264 . S
C192 O182 1.243 . S
C193 C196 1.399 . S
C193 C198 1.383 . S
C193 C200 1.496 . S
C194 C195 1.399 . S
C194 C198 1.389 . S
C195 C194 1.399 . S
C195 C197 1.380 . S
C195 H212 0.929 . S
C196 C193 1.399 . S
C196 C197 1.392 . S
C196 H213 0.929 . S
C197 C195 1.380 . S
C197 C196 1.392 . S
C197 H214 0.929 . S
C198 C193 1.383 . S
C198 C194 1.389 . S
C198 H215 0.931 . S
C199 O184 1.266 . S
C199 O185 1.248 . S
C200 Tb136 2.802 . S
C200 O180 1.264 . S
C200 O183 1.256 . S
C200 C193 1.496 . S
C201 C168 1.448 . S
C201 H178 0.930 . S
C201 C202 1.328 . S
C202 C173 1.427 . S
C202 H179 0.929 . S
C202 C201 1.328 . S
C203 O187 1.264 1_556 S
C203 O188 1.243 . S
C204 C207 1.399 . S
C204 C208 1.383 . S
C204 C211 1.496 . S
C205 C206 1.399 . S
C205 C208 1.389 . S
C206 C205 1.399 . S
C206 C209 1.380 . S
C206 H216 0.929 . S
C207 C204 1.399 . S
C207 C209 1.392 . S
C207 H217 0.929 . S
C208 C204 1.383 . S
C208 C205 1.389 . S
C208 H218 0.931 . S
C209 C206 1.380 . S
C209 C207 1.392 . S
C209 H219 0.929 . S
C210 O190 1.266 . S
C210 O191 1.248 . S
C211 Tb147 2.802 . S
C211 O186 1.264 . S
C211 O189 1.256 . S
C211 C204 1.496 . S
H212 C195 0.929 . S
H213 C196 0.929 . S
H214 C197 0.929 . S
H215 C198 0.931 . S
H216 C206 0.929 . S
H217 C207 0.929 . S
H218 C208 0.931 . S
H219 C209 0.929 . S
H220 C226 0.930 . S
H221 C230 0.930 . S
H222 C235 0.929 . S
H223 C233 0.929 . S
H224 C228 0.929 . S
H225 C234 0.929 . S
C226 H220 0.930 . S
C226 C227 1.367 . S
C226 C234 1.378 . S
C227 C226 1.367 . S
C227 C235 1.433 . S
C228 H224 0.929 . S
C228 C230 1.378 . S
C228 C232 1.350 . S
C229 C232 1.463 . S
C229 C234 1.350 . S
C229 N237 1.427 . S
C230 H221 0.930 . S
C230 C228 1.378 . S
C230 C231 1.367 . S
C231 C230 1.367 . S
C231 C233 1.433 . S
C232 C228 1.350 . S
C232 C229 1.463 . S
C232 N236 1.427 . S
C233 H223 0.929 . S
C233 C231 1.433 . S
C233 N236 1.384 . S
C234 H225 0.929 . S
C234 C226 1.378 . S
C234 C229 1.350 . S
C235 H222 0.929 . S
C235 C227 1.433 . S
C235 N237 1.384 . S
N236 C232 1.427 . S
N236 C233 1.384 . S
N237 C229 1.427 . S
N237 C235 1.384 . S
H238 C244 0.930 . S
H239 C248 0.930 . S
H240 C253 0.929 . S
H241 C251 0.925 1_556 S
H242 C246 0.929 . S
H243 C252 0.929 . S
C244 H238 0.930 . S
C244 C245 1.367 1_556 S
C244 C252 1.378 . S
C245 C244 1.367 1_554 S
C245 C253 1.433 . S
C246 H242 0.929 . S
C246 C248 1.378 . S
C246 C250 1.350 . S
C247 C250 1.463 . S
C247 C252 1.350 1_554 S
C247 N255 1.427 . S
C248 H239 0.930 . S
C248 C246 1.378 . S
C248 C249 1.367 . S
C249 C248 1.367 . S
C249 C251 1.436 . S
C250 C246 1.350 . S
C250 C247 1.463 . S
C250 N254 1.426 . S
C251 H241 0.925 1_554 S
C251 C249 1.436 . S
C251 N254 1.385 . S
C252 H243 0.929 . S
C252 C244 1.378 . S
C252 C247 1.350 1_556 S
C253 H240 0.929 . S
C253 C245 1.433 . S
C253 N255 1.384 . S
N254 C250 1.426 . S
N254 C251 1.385 . S
N255 C247 1.427 . S
N255 C253 1.384 . S
H256 C262 0.930 . S
H257 C266 0.930 . S
H258 C271 0.929 . S
H259 C269 0.929 . S
H260 C264 0.929 . S
H261 C270 0.929 . S
C262 H256 0.930 . S
C262 C263 1.367 . S
C262 C270 1.378 . S
C263 C262 1.367 . S
C263 C271 1.433 . S
C264 H260 0.929 . S
C264 C266 1.378 . S
C264 C268 1.350 . S
C265 C268 1.463 . S
C265 C270 1.350 . S
C265 N273 1.427 . S
C266 H257 0.930 . S
C266 C264 1.378 . S
C266 C267 1.367 . S
C267 C266 1.367 . S
C267 C269 1.433 . S
C268 C264 1.350 . S
C268 C265 1.463 . S
C268 N272 1.427 . S
C269 H259 0.929 . S
C269 C267 1.433 . S
C269 N272 1.384 . S
C270 H261 0.929 . S
C270 C262 1.378 . S
C270 C265 1.350 . S
C271 H258 0.929 . S
C271 C263 1.433 . S
C271 N273 1.384 . S
N272 C268 1.427 . S
N272 C269 1.384 . S
N273 C265 1.427 . S
N273 C271 1.384 . S
H274 C280 0.930 . S
H275 C284 0.930 . S
H276 C289 0.929 . S
H277 C287 0.929 . S
H278 C282 0.929 . S
H279 C288 0.929 . S
C280 H274 0.930 . S
C280 C281 1.367 . S
C280 C288 1.378 . S
C281 C280 1.367 . S
C281 C289 1.433 . S
C282 H278 0.929 . S
C282 C284 1.378 . S
C282 C286 1.350 . S
C283 C286 1.463 . S
C283 C288 1.350 . S
C283 N291 1.427 . S
C284 H275 0.930 . S
C284 C282 1.378 . S
C284 C285 1.367 . S
C285 C284 1.367 . S
C285 C287 1.433 . S
C286 C282 1.350 . S
C286 C283 1.463 . S
C286 N290 1.427 . S
C287 H277 0.929 . S
C287 C285 1.433 . S
C287 N290 1.384 . S
C288 H279 0.929 . S
C288 C280 1.378 . S
C288 C283 1.350 . S
C289 H276 0.929 . S
C289 C281 1.433 . S
C289 N291 1.384 . S
N290 C286 1.427 . S
N290 C287 1.384 . S
N291 C283 1.427 . S
N291 C289 1.384 . S
H292 C298 0.930 . S
H293 C302 0.930 . S
H294 C307 0.929 . S
H295 C305 0.929 1_545 S
H296 C300 0.929 . S
H297 C306 0.929 . S
C298 H292 0.930 . S
C298 C299 1.367 . S
C298 C306 1.378 . S
C299 C298 1.367 . S
C299 C307 1.433 . S
C300 H296 0.929 . S
C300 C302 1.378 . S
C300 C304 1.350 . S
C301 C304 1.463 . S
C301 C306 1.350 . S
C301 N309 1.427 . S
C302 H293 0.930 . S
C302 C300 1.378 . S
C302 C303 1.367 . S
C303 C302 1.367 . S
C303 C305 1.433 . S
C304 C300 1.350 . S
C304 C301 1.463 . S
C304 N308 1.427 . S
C305 H295 0.929 1_565 S
C305 C303 1.433 . S
C305 N308 1.384 . S
C306 H297 0.929 . S
C306 C298 1.378 . S
C306 C301 1.350 . S
C307 H294 0.929 . S
C307 C299 1.433 . S
C307 N309 1.384 . S
N308 C304 1.427 . S
N308 C305 1.384 . S
N309 C301 1.427 . S
N309 C307 1.384 . S
H310 C316 0.930 . S
H311 C320 0.930 . S
H312 C325 0.929 . S
H313 C323 0.929 . S
H314 C318 0.929 . S
H315 C324 0.929 . S
C316 H310 0.930 . S
C316 C317 1.367 . S
C316 C324 1.378 . S
C317 C316 1.367 . S
C317 C325 1.433 . S
C318 H314 0.929 . S
C318 C320 1.378 . S
C318 C322 1.350 . S
C319 C322 1.463 . S
C319 C324 1.350 . S
C319 N327 1.427 . S
C320 H311 0.930 . S
C320 C318 1.378 . S
C320 C321 1.367 . S
C321 C320 1.367 . S
C321 C323 1.433 . S
C322 C318 1.350 . S
C322 C319 1.463 . S
C322 N326 1.427 . S
C323 H313 0.929 . S
C323 C321 1.433 . S
C323 N326 1.384 . S
C324 H315 0.929 . S
C324 C316 1.378 . S
C324 C319 1.350 . S
C325 H312 0.929 . S
C325 C317 1.433 . S
C325 N327 1.384 . S
N326 C322 1.427 . S
N326 C323 1.384 . S
N327 C319 1.427 . S
N327 C325 1.384 . S
H328 C334 0.930 . S
H329 C338 0.930 . S
H330 C343 0.929 . S
H331 C341 0.929 . S
H332 C336 0.929 . S
H333 C342 0.929 . S
C334 H328 0.930 . S
C334 C335 1.367 . S
C334 C342 1.378 . S
C335 C334 1.367 . S
C335 C343 1.433 . S
C336 H332 0.929 . S
C336 C338 1.378 . S
C336 C340 1.350 . S
C337 C340 1.463 . S
C337 C342 1.350 . S
C337 N345 1.427 . S
C338 H329 0.930 . S
C338 C336 1.378 . S
C338 C339 1.367 . S
C339 C338 1.367 . S
C339 C341 1.433 . S
C340 C336 1.350 . S
C340 C337 1.463 . S
C340 N344 1.427 . S
C341 H331 0.929 . S
C341 C339 1.433 . S
C341 N344 1.384 . S
C342 H333 0.929 . S
C342 C334 1.378 . S
C342 C337 1.350 . S
C343 H330 0.929 . S
C343 C335 1.433 . S
C343 N345 1.384 . S
N344 C340 1.427 . S
N344 C341 1.384 . S
N345 C337 1.427 . S
N345 C343 1.384 . S
H346 C352 0.930 . S
H347 C356 0.930 . S
H348 C361 0.929 . S
H349 C359 0.929 . S
H350 C354 0.929 . S
H351 C360 0.929 . S
C352 H346 0.930 . S
C352 C353 1.367 . S
C352 C360 1.378 . S
C353 C352 1.367 . S
C353 C361 1.433 . S
C354 H350 0.929 . S
C354 C356 1.378 . S
C354 C358 1.350 . S
C355 C358 1.463 . S
C355 C360 1.350 . S
C355 N363 1.427 . S
C356 H347 0.930 . S
C356 C354 1.378 . S
C356 C357 1.367 . S
C357 C356 1.367 . S
C357 C359 1.433 . S
C358 C354 1.350 . S
C358 C355 1.463 . S
C358 N362 1.427 . S
C359 H349 0.929 . S
C359 C357 1.433 . S
C359 N362 1.384 . S
C360 H351 0.929 . S
C360 C352 1.378 . S
C360 C355 1.350 . S
C361 H348 0.929 . S
C361 C353 1.433 . S
C361 N363 1.384 . S
N362 C358 1.427 . S
N362 C359 1.384 . S
N363 C355 1.427 . S
N363 C361 1.384 . S
H364 C370 0.930 . S
H365 C374 0.930 . S
H366 C379 0.929 . S
H367 C377 0.929 . S
H368 C372 0.929 . S
H369 C378 0.929 . S
C370 H364 0.930 . S
C370 C371 1.367 . S
C370 C378 1.378 . S
C371 C370 1.367 . S
C371 C379 1.433 . S
C372 H368 0.929 . S
C372 C374 1.378 . S
C372 C376 1.350 . S
C373 C376 1.463 . S
C373 C378 1.350 . S
C373 N381 1.427 . S
C374 H365 0.930 . S
C374 C372 1.378 . S
C374 C375 1.367 . S
C375 C374 1.367 . S
C375 C377 1.433 . S
C376 C372 1.350 . S
C376 C373 1.463 . S
C376 N380 1.427 . S
C377 H367 0.929 . S
C377 C375 1.433 . S
C377 N380 1.384 . S
C378 H369 0.929 . S
C378 C370 1.378 . S
C378 C373 1.350 . S
C379 H366 0.929 . S
C379 C371 1.433 . S
C379 N381 1.384 . S
N380 C376 1.427 . S
N380 C377 1.384 . S
N381 C373 1.427 . S
N381 C379 1.384 . S
H382 C388 0.932 . S
H383 C392 0.930 . S
H384 C397 0.929 . S
H385 C395 0.929 . S
H386 C390 0.929 . S
H387 C396 0.929 . S
C388 H382 0.932 . S
C388 C389 1.368 . S
C388 C396 1.375 1_554 S
C389 C388 1.368 . S
C389 C397 1.433 1_554 S
C390 H386 0.929 . S
C390 C392 1.378 . S
C390 C394 1.350 . S
C391 C394 1.463 . S
C391 C396 1.350 . S
C391 N399 1.427 . S
C392 H383 0.930 . S
C392 C390 1.378 . S
C392 C393 1.367 . S
C393 C392 1.367 . S
C393 C395 1.433 . S
C394 C390 1.350 . S
C394 C391 1.463 . S
C394 N398 1.427 . S
C395 H385 0.929 . S
C395 C393 1.433 . S
C395 N398 1.384 . S
C396 H387 0.929 . S
C396 C388 1.375 1_556 S
C396 C391 1.350 . S
C397 H384 0.929 . S
C397 C389 1.433 1_556 S
C397 N399 1.384 . S
N398 C394 1.427 . S
N398 C395 1.384 . S
N399 C391 1.427 . S
N399 C397 1.384 . S
H400 C406 0.930 . S
H401 C410 0.930 . S
H402 C415 0.929 . S
H403 C413 0.929 . S
H404 C408 0.929 . S
H405 C414 0.929 . S
C406 H400 0.930 . S
C406 C407 1.367 . S
C406 C414 1.378 . S
C407 C406 1.367 . S
C407 C415 1.433 . S
C408 H404 0.929 . S
C408 C410 1.378 . S
C408 C412 1.350 . S
C409 C412 1.463 . S
C409 C414 1.350 . S
C409 N417 1.427 . S
C410 H401 0.930 . S
C410 C408 1.378 . S
C410 C411 1.367 . S
C411 C410 1.367 . S
C411 C413 1.433 . S
C412 C408 1.350 . S
C412 C409 1.463 . S
C412 N416 1.427 . S
C413 H403 0.929 . S
C413 C411 1.433 . S
C413 N416 1.384 . S
C414 H405 0.929 . S
C414 C406 1.378 . S
C414 C409 1.350 . S
C415 H402 0.929 . S
C415 C407 1.433 . S
C415 N417 1.384 . S
N416 C412 1.427 . S
N416 C413 1.384 . S
N417 C409 1.427 . S
N417 C415 1.384 . S
H418 C424 0.930 . S
H419 C428 0.930 . S
H420 C433 0.929 . S
H421 C431 0.929 . S
H422 C426 0.929 . S
H423 C432 0.929 . S
C424 H418 0.930 . S
C424 C425 1.367 . S
C424 C432 1.378 . S
C425 C424 1.367 . S
C425 C433 1.433 . S
C426 H422 0.929 . S
C426 C428 1.378 . S
C426 C430 1.350 . S
C427 C430 1.463 . S
C427 C432 1.350 . S
C427 N435 1.427 . S
C428 H419 0.930 . S
C428 C426 1.378 . S
C428 C429 1.367 . S
C429 C428 1.367 . S
C429 C431 1.433 . S
C430 C426 1.350 . S
C430 C427 1.463 . S
C430 N434 1.427 . S
C431 H421 0.929 . S
C431 C429 1.433 . S
C431 N434 1.384 . S
C432 H423 0.929 . S
C432 C424 1.378 . S
C432 C427 1.350 . S
C433 H420 0.929 . S
C433 C425 1.433 . S
C433 N435 1.384 . S
N434 C430 1.427 . S
N434 C431 1.384 . S
N435 C427 1.427 . S
N435 C433 1.384 . S
C231 C115 1.657 . S
C227 N41 1.695 . S
C245 N2 1.640 . S
C249 C210 1.630 . S
C263 N15 1.686 . S
C267 C126 1.667 . S
C281 N28 1.631 . S
C285 C199 1.629 . S
C303 C110 1.392 . S
C299 N5 1.598 . S
C321 C203 1.669 . S
C317 N14 1.663 . S
C335 N27 1.575 . S
C339 C119 1.613 . S
C353 N44 1.575 . S
C357 C194 1.430 . S
C375 C205 1.410 . S
C371 N18 1.579 . S
C393 C121 1.391 . S
C389 N31 1.597 . S
C411 C192 1.672 . S
C407 N40 1.669 . S
C425 N1 1.589 . S
C429 C108 1.614 . S
