# Generated by pormake.
# Topology anh, (6,3)-cn, num edge types: 1
# Building blocks:
#     Node 0, Type 0, BuildingBlock: CUKXOW_clean_sbu_0, # of connection points: 6
#     Node 1, Type 0, BuildingBlock: CUKXOW_clean_sbu_0, # of connection points: 6
#     Node 2, Type 0, BuildingBlock: CUKXOW_clean_sbu_0, # of connection points: 6
#     Node 3, Type 1, BuildingBlock: KAKCAD_clean_linker_0, # of connection points: 3
#     Node 4, Type 1, BuildingBlock: KAKCAD_clean_linker_0, # of connection points: 3
#     Node 5, Type 1, BuildingBlock: KAKCAD_clean_linker_0, # of connection points: 3
#     Node 6, Type 1, BuildingBlock: KAKCAD_clean_linker_0, # of connection points: 3
#     Node 7, Type 1, BuildingBlock: KAKCAD_clean_linker_0, # of connection points: 3
#     Node 8, Type 1, BuildingBlock: KAKCAD_clean_linker_0, # of connection points: 3
#     Edge 9, Type (0, 1), BuildingBlock: AJUNOK_clean_linker_0, # of connection points: 2
#     Edge 10, Type (0, 1), BuildingBlock: AJUNOK_clean_linker_0, # of connection points: 2
#     Edge 11, Type (0, 1), BuildingBlock: AJUNOK_clean_linker_0, # of connection points: 2
#     Edge 12, Type (0, 1), BuildingBlock: AJUNOK_clean_linker_0, # of connection points: 2
#     Edge 13, Type (0, 1), BuildingBlock: AJUNOK_clean_linker_0, # of connection points: 2
#     Edge 14, Type (0, 1), BuildingBlock: AJUNOK_clean_linker_0, # of connection points: 2
#     Edge 15, Type (0, 1), BuildingBlock: AJUNOK_clean_linker_0, # of connection points: 2
#     Edge 16, Type (0, 1), BuildingBlock: AJUNOK_clean_linker_0, # of connection points: 2
#     Edge 17, Type (0, 1), BuildingBlock: AJUNOK_clean_linker_0, # of connection points: 2
#     Edge 18, Type (0, 1), BuildingBlock: AJUNOK_clean_linker_0, # of connection points: 2
#     Edge 19, Type (0, 1), BuildingBlock: AJUNOK_clean_linker_0, # of connection points: 2
#     Edge 20, Type (0, 1), BuildingBlock: AJUNOK_clean_linker_0, # of connection points: 2
#     Edge 21, Type (0, 1), BuildingBlock: AJUNOK_clean_linker_0, # of connection points: 2
#     Edge 22, Type (0, 1), BuildingBlock: AJUNOK_clean_linker_0, # of connection points: 2
#     Edge 23, Type (0, 1), BuildingBlock: AJUNOK_clean_linker_0, # of connection points: 2
#     Edge 24, Type (0, 1), BuildingBlock: AJUNOK_clean_linker_0, # of connection points: 2
#     Edge 25, Type (0, 1), BuildingBlock: AJUNOK_clean_linker_0, # of connection points: 2
#     Edge 26, Type (0, 1), BuildingBlock: AJUNOK_clean_linker_0, # of connection points: 2
# Relax obj value: 0.136
# Max RMSD: 0.194
# Mean RMSD: 0.140
data_MOF--net-anh--node1-CUKXOW_clean_sbu_0--node2-KAKCAD_clean_linker_0--edge1-AJUNOK_clean_linker_0
_symmetry_space_group_name_H-M    P1
_symmetry_Int_Tables_number       1
_symmetry_cell_setting            triclinic
loop_
_symmetry_equiv_pos_as_xyz
'x, y, z'
_cell_length_a     27.109988
_cell_length_b     26.234078
_cell_length_c     51.248511
_cell_angle_alpha  96.160381
_cell_angle_beta   90.020634
_cell_angle_gamma 112.87926
loop_
_atom_site_label
_atom_site_type_symbol
_atom_site_fract_x
_atom_site_fract_y
_atom_site_fract_z
_atom_type_partial_charge
Tb0 Tb 0.08865 0.55157 0.14575 0.0
C1 C 0.05932 0.51637 0.20215 0.0
Tb2 Tb 1.01961 0.4269 0.1521 0.0
O3 O 1.0224 0.57597 0.15802 0.0
O4 O 1.00585 0.49603 0.13997 0.0
O5 O 0.09429 0.55256 0.18822 0.0
C6 C 0.93425 0.33695 0.16065 0.0
O7 O 1.02246 0.46876 0.19126 0.0
C8 C 0.12466 0.44792 0.15452 0.0
C9 C 0.04647 0.46201 0.09522 0.0
O10 O 0.95376 0.38325 0.17613 0.0
O11 O 0.96312 0.34085 0.14011 0.0
O12 O 0.08713 0.39944 0.15694 0.0
O13 O 0.10027 0.47931 0.15173 0.0
O14 O 1.01409 0.42515 0.10985 0.0
O15 O 0.08049 0.51285 0.10502 0.0
C16 C 0.17546 0.64343 0.14098 0.0
O17 O 0.12649 0.63734 0.13533 0.0
O18 O 0.17486 0.59809 0.14898 0.0
C19 C 0.9844 0.52705 0.15147 0.0
Tb20 Tb 0.50932 0.0146 0.50507 0.0
C21 C 0.55738 0.04771 0.4513 0.0
Tb22 Tb 0.62488 0.09751 0.50583 0.0
O23 O 0.48059 0.07697 0.4935 0.0
O24 O 0.55107 0.10098 0.51644 0.0
O25 O 0.52098 1.00843 0.46325 0.0
C26 C 0.71302 0.18789 0.50113 0.0
O27 O 0.59841 0.08898 0.46445 0.0
C28 C 0.61143 0.99377 0.50807 0.0
C29 C 0.57584 0.06474 0.55969 0.0
O30 O 0.70988 0.13695 0.49766 0.0
O31 O 0.66662 0.18772 0.50729 0.0
O32 O 0.65221 0.03606 0.51925 0.0
O33 O 0.58326 0.01101 0.49474 0.0
O34 O 0.61409 0.10272 0.54786 0.0
O35 O 0.53377 0.02462 0.54672 0.0
C36 C 0.42367 0.92156 0.5093 0.0
O37 O 0.42246 0.9697 0.50655 0.0
O38 O 0.47294 0.92608 0.5096 0.0
C39 C 0.5224 0.119 0.504 0.0
Tb40 Tb 0.5441 0.59969 0.83651 0.0
C41 C 0.59812 0.61749 0.89193 0.0
Tb42 Tb 0.66548 0.62177 0.84011 0.0
O43 O 0.52457 0.51855 0.85061 0.0
O44 O 0.59254 0.55285 0.82941 0.0
O45 O 0.55823 0.62233 0.8787 0.0
C46 C 0.74906 0.59489 0.84609 0.0
O47 O 0.63916 0.61045 0.8802 0.0
C48 C 0.65176 0.71651 0.84363 0.0
C49 C 0.60982 0.61089 0.78521 0.0
O50 O 0.71173 0.58904 0.86268 0.0
O51 O 0.74022 0.61773 0.82628 0.0
O52 O 0.69882 0.71395 0.84406 0.0
O53 O 0.61784 0.66733 0.84157 0.0
O54 O 0.64874 0.60317 0.79776 0.0
O55 O 0.57116 0.62101 0.79766 0.0
C56 C 0.44629 0.5857 0.82029 0.0
O57 O 0.47247 0.55585 0.81165 0.0
O58 O 0.47522 0.62396 0.83877 0.0
C59 C 0.56752 0.51296 0.84229 0.0
C60 C 0.56204 0.08212 0.32428 0.0
C61 C 0.54795 0.03396 0.33704 0.0
C62 C 0.56077 0.07826 0.29684 0.0
C63 C 0.54555 0.02615 0.28164 0.0
C64 C 0.5321 0.9781 0.29449 0.0
C65 C 0.53342 0.98199 0.32188 0.0
C66 C 0.54438 0.02175 0.25248 0.0
C67 C 0.58581 0.05962 0.23951 0.0
C68 C 0.58619 0.05426 0.21196 0.0
C69 C 0.54437 1.01065 0.19719 0.0
C70 C 0.50217 0.9727 0.20988 0.0
C71 C 0.50252 0.97874 0.23749 0.0
C72 C 0.45786 0.92598 0.19468 0.0
C73 C 0.4317 0.93462 0.1729 0.0
C74 C 0.43992 0.87249 0.20276 0.0
C75 C 0.3959 0.82896 0.1899 0.0
C76 C 0.36865 0.83774 0.16862 0.0
C77 C 0.63183 0.09364 0.19911 0.0
C78 C 0.64773 0.15113 0.20605 0.0
C79 C 0.66286 0.07422 0.182 0.0
C80 C 0.71081 0.11171 0.17322 0.0
C81 C 0.72796 0.16917 0.18117 0.0
C82 C 0.6951 0.18851 0.19705 0.0
C83 C 0.38729 0.89085 0.16001 0.0
H84 H 0.5733 0.12268 0.33553 0.0
H85 H 0.57099 0.116 0.28752 0.0
H86 H 0.52133 0.93749 0.28336 0.0
H87 H 0.52364 0.94434 0.33123 0.0
H88 H 0.61899 0.09228 0.25088 0.0
H89 H 0.46962 0.95019 0.24738 0.0
H90 H 0.54493 1.00606 0.17593 0.0
H91 H 0.44463 0.9755 0.1663 0.0
H92 H 0.45968 0.86436 0.21925 0.0
H93 H 0.38232 0.78856 0.19707 0.0
H94 H 0.62419 0.16704 0.21906 0.0
H95 H 0.65154 0.02994 0.17661 0.0
H96 H 0.36742 0.89855 0.14345 0.0
H97 H 0.70691 0.23261 0.20318 0.0
H98 H 0.73565 0.09552 0.16132 0.0
C99 C 0.56723 0.6139 0.65861 0.0
C100 C 0.59935 0.59179 0.67101 0.0
C101 C 0.56212 0.60878 0.63129 0.0
C102 C 0.58985 0.58234 0.61561 0.0
C103 C 0.62331 0.5616 0.62805 0.0
C104 C 0.62803 0.56632 0.6555 0.0
C105 C 0.5827 0.57577 0.58647 0.0
C106 C 0.57733 0.61818 0.57377 0.0
C107 C 0.56616 0.61144 0.54654 0.0
C108 C 0.56211 0.56138 0.53157 0.0
C109 C 0.56872 0.51884 0.54405 0.0
C110 C 0.57882 0.52645 0.57137 0.0
C111 C 0.56381 0.46491 0.52958 0.0
C112 C 0.51311 0.42366 0.52176 0.0
C113 C 0.60863 0.45065 0.52846 0.0
C114 C 0.60269 0.3957 0.52076 0.0
C115 C 0.55168 0.35343 0.5143 0.0
C116 C 0.55967 0.65818 0.53477 0.0
C117 C 0.5294 0.68559 0.54766 0.0
C118 C 0.58962 0.68115 0.51344 0.0
C119 C 0.59259 0.73276 0.50663 0.0
C120 C 0.56584 0.76206 0.52111 0.0
C121 C 0.53282 0.73709 0.54106 0.0
C122 C 0.50704 0.36839 0.51428 0.0
H123 H 0.54559 0.63488 0.67006 0.0
H124 H 0.53548 0.62468 0.6225 0.0
H125 H 0.64586 0.54173 0.61658 0.0
H126 H 0.65324 0.54909 0.66458 0.0
H127 H 0.58238 0.65727 0.5852 0.0
H128 H 0.58197 0.49284 0.58093 0.0
H129 H 0.5536 0.55542 0.51055 0.0
H130 H 0.4778 0.43342 0.52312 0.0
H131 H 0.64802 0.48159 0.53482 0.0
H132 H 0.6379 0.38587 0.52086 0.0
H133 H 0.5053 0.66858 0.56392 0.0
H134 H 0.61353 0.6612 0.50324 0.0
H135 H 0.46699 0.33692 0.51005 0.0
H136 H 0.51151 0.75868 0.55236 0.0
H137 H 0.61838 0.75136 0.49116 0.0
C138 C 0.07858 0.42567 0.9677 0.0
C139 C 0.03425 0.39905 0.98243 0.0
C140 C 0.07557 0.41382 0.94045 0.0
C141 C 1.02814 0.37486 0.92727 0.0
C142 C 0.98408 0.34732 0.9421 0.0
C143 C 0.98708 0.35937 0.96945 0.0
C144 C 1.02334 0.36888 0.89814 0.0
C145 C 0.06793 0.37236 0.88345 0.0
C146 C 0.07149 0.38705 0.85775 0.0
C147 C 1.02631 0.38901 0.84535 0.0
C148 C 0.98059 0.38369 0.85942 0.0
C149 C 0.97905 0.37281 0.88572 0.0
C150 C 0.94141 0.40411 0.84933 0.0
C151 C 0.96017 0.45492 0.83843 0.0
C152 C 0.88679 0.37856 0.85429 0.0
C153 C 0.85256 0.40563 0.85042 0.0
C154 C 0.8727 0.45862 0.8417 0.0
C155 C 0.1249 0.41484 0.84689 0.0
C156 C 0.1678 0.45068 0.86399 0.0
C157 C 0.13186 0.41288 0.81962 0.0
C158 C 0.18022 0.44697 0.8098 0.0
C159 C 0.22274 0.48269 0.82711 0.0
C160 C 0.21607 0.48353 0.85425 0.0
C161 C 0.92603 0.4818 0.83457 0.0
H162 H 0.11543 0.45629 0.97724 0.0
H163 H 0.10986 0.43705 0.92967 0.0
H164 H 0.94694 0.31743 0.9325 0.0
H165 H 0.95201 0.33884 0.98035 0.0
H166 H 0.10238 0.3698 0.89306 0.0
H167 H 0.94607 0.37407 0.89735 0.0
H168 H 1.02876 0.40137 0.82574 0.0
H169 H 1.0022 0.47634 0.83482 0.0
H170 H 0.87131 0.33922 0.86248 0.0
H171 H 0.81107 0.38657 0.85551 0.0
H172 H 0.1639 0.4552 0.88504 0.0
H173 H 0.09967 0.38589 0.80586 0.0
H174 H 0.9424 0.52269 0.82788 0.0
H175 H 0.2484 0.5097 0.86816 0.0
H176 H 0.18407 0.44572 0.78874 0.0
C177 C 1.01791 0.54072 0.33006 0.0
C178 C 0.06459 0.54744 0.31642 0.0
C179 C 1.01807 0.54039 0.35729 0.0
C180 C 0.06492 0.54673 0.37141 0.0
C181 C 0.11173 0.55395 0.35776 0.0
C182 C 0.11152 0.55417 0.33053 0.0
C183 C 0.06509 0.54565 0.40029 0.0
C184 C 1.0225 0.50606 0.41196 0.0
C185 C 1.02303 0.50465 0.4393 0.0
C186 C 0.06657 0.54364 0.45503 0.0
C187 C 0.10935 0.58331 0.44359 0.0
C188 C 0.10828 0.58408 0.41627 0.0
C189 C 0.15504 0.62505 0.45993 0.0
C190 C 0.14642 0.65694 0.48191 0.0
C191 C 0.2076 0.63625 0.4523 0.0
C192 C 0.25059 0.68033 0.46554 0.0
C193 C 0.24187 0.71399 0.48673 0.0
C194 C 0.9785 0.46178 0.45128 0.0
C195 C 0.92511 0.44956 0.44337 0.0
C196 C 0.98908 0.43176 0.47014 0.0
C197 C 0.94706 0.38962 0.48055 0.0
C198 C 0.89377 0.37725 0.47247 0.0
C199 C 0.88315 0.4077 0.45388 0.0
C200 C 0.18955 0.70136 0.49513 0.0
H201 H 0.98121 0.5355 0.31962 0.0
H202 H 0.9816 0.53544 0.36732 0.0
H203 H 0.14823 0.5581 0.36806 0.0
H204 H 0.14767 0.55796 0.32044 0.0
H205 H 0.98961 0.47525 0.39967 0.0
H206 H 0.14069 0.61567 0.40748 0.0
H207 H 0.06722 0.54309 0.47615 0.0
H208 H 0.10617 0.64927 0.48807 0.0
H209 H 0.21528 0.61196 0.43552 0.0
H210 H 0.29037 0.6898 0.45831 0.0
H211 H 0.91579 0.4723 0.429 0.0
H212 H 1.02991 0.43993 0.47638 0.0
H213 H 0.18191 0.72694 0.51136 0.0
H214 H 0.8424 0.39827 0.44701 0.0
H215 H 0.95616 0.36649 0.4948 0.0
C216 C 0.54458 0.03767 0.68639 0.0
C217 C 0.58738 0.07402 0.67334 0.0
C218 C 0.54655 0.04067 0.71381 0.0
C219 C 0.59102 0.08053 0.72854 0.0
C220 C 0.63432 0.11581 0.71555 0.0
C221 C 0.63283 0.11211 0.6882 0.0
C222 C 0.59189 0.08711 0.75749 0.0
C223 C 0.58813 0.04311 0.77151 0.0
C224 C 0.59191 0.0503 0.79916 0.0
C225 C 0.59941 0.10286 0.81267 0.0
C226 C 0.6027 0.14749 0.79862 0.0
C227 C 0.59837 0.13854 0.77101 0.0
C228 C 0.60924 0.20339 0.81194 0.0
C229 C 0.58209 0.20903 0.83474 0.0
C230 C 0.63857 0.25159 0.80011 0.0
C231 C 0.63579 0.30251 0.80887 0.0
C232 C 0.60518 0.30752 0.83039 0.0
C233 C 0.59154 1.00325 0.81314 0.0
C234 C 0.55706 0.94827 0.80397 0.0
C235 C 0.62987 0.01189 0.83341 0.0
C236 C 0.63644 0.9665 0.84269 0.0
C237 C 0.60523 0.91166 0.83168 0.0
C238 C 0.56399 0.90306 0.81302 0.0
C239 C 0.58077 0.26075 0.84409 0.0
H240 H 0.50905 1.00786 0.67546 0.0
H241 H 0.51274 0.01312 0.72354 0.0
H242 H 0.66933 0.1463 0.72662 0.0
H243 H 0.66725 0.13927 0.67871 0.0
H244 H 0.58447 1.00383 0.76073 0.0
H245 H 0.59916 0.17147 0.75972 0.0
H246 H 0.60299 0.109 0.83393 0.0
H247 H 0.55966 0.17311 0.84463 0.0
H248 H 0.66187 0.24958 0.78316 0.0
H249 H 0.65563 0.33725 0.79779 0.0
H250 H 0.52628 0.94015 0.78878 0.0
H251 H 0.65694 0.05365 0.841 0.0
H252 H 0.55915 0.26346 0.86157 0.0
H253 H 0.53898 0.8614 0.80425 0.0
H254 H 0.66745 0.97442 0.85771 0.0
C255 C 0.5934 0.53584 0.00869 0.0
C256 C 0.57693 0.5773 0.00169 0.0
C257 C 0.58901 0.52185 0.03435 0.0
C258 C 0.56792 0.5489 0.05369 0.0
C259 C 0.54997 0.58934 0.0465 0.0
C260 C 0.55432 0.60329 0.0207 0.0
C261 C 0.56511 0.53477 0.08119 0.0
C262 C 0.60777 0.52629 0.09275 0.0
C263 C 0.60555 0.50961 0.11807 0.0
C264 C 0.55855 0.5026 0.13238 0.0
C265 C 0.51516 0.51217 0.12104 0.0
C266 C 0.51954 0.52823 0.09556 0.0
C267 C 0.46334 0.50449 0.13408 0.0
C268 C 0.42473 0.45094 0.13652 0.0
C269 C 0.44721 0.54965 0.13824 0.0
C270 C 0.39399 0.54149 0.1439 0.0
C271 C 0.35456 0.48772 0.14538 0.0
C272 C 0.65348 0.49981 0.12794 0.0
C273 C 0.67673 0.47033 0.11089 0.0
C274 C 0.68171 0.52678 0.15189 0.0
C275 C 0.73264 0.52641 0.15787 0.0
C276 C 0.75694 0.49894 0.14013 0.0
C277 C 0.72741 0.47037 0.11668 0.0
C278 C 0.37121 0.44264 0.14199 0.0
H279 H 0.60969 0.51409 0.99425 0.0
H280 H 0.60193 0.48952 0.03902 0.0
H281 H 0.53368 0.61107 0.06093 0.0
H282 H 0.5412 0.6353 0.01576 0.0
H283 H 0.64366 0.53331 0.08185 0.0
H284 H 0.48618 0.53395 0.0865 0.0
H285 H 0.55558 0.48955 0.15186 0.0
H286 H 0.43507 0.415 0.13254 0.0
H287 H 0.47546 0.59134 0.13592 0.0
H288 H 0.38343 0.57745 0.14651 0.0
H289 H 0.65661 0.44912 0.09219 0.0
H290 H 0.66576 0.55054 0.16541 0.0
H291 H 0.34232 0.40036 0.1422 0.0
H292 H 0.74442 0.45007 0.10197 0.0
H293 H 0.75357 0.5488 0.17621 0.0
C294 C 0.21743 0.49947 0.13779 0.0
C295 C 0.18379 0.46056 0.15361 0.0
C296 C 0.27224 0.50851 0.13559 0.0
C297 C 0.2962 0.47883 0.14899 0.0
H298 H 0.20091 0.5216 0.12615 0.0
H299 H 0.29563 0.53799 0.12261 0.0
S300 S 0.2261 0.3745 0.19431 0.0
N301 N 0.17903 0.39339 0.18358 0.0
N302 N 0.2812 0.41077 0.17993 0.0
C303 C 0.26292 0.44043 0.16521 0.0
C304 C 0.20717 0.43118 0.16734 0.0
C305 C 0.80684 0.23154 0.48715 0.0
C306 C 0.76033 0.23755 0.49636 0.0
C307 C 0.85066 0.2774 0.4803 0.0
C308 C 0.8493 0.33071 0.48232 0.0
H309 H 0.80894 0.19092 0.48459 0.0
H310 H 0.8851 0.27074 0.4725 0.0
S311 S 0.73923 0.36953 0.50784 0.0
N312 N 0.717 0.30162 0.50892 0.0
N313 N 0.7996 0.38781 0.49606 0.0
C314 C 0.80391 0.33765 0.49245 0.0
C315 C 0.75935 0.29104 0.4995 0.0
C316 C 0.58849 0.76523 0.84402 0.0
C317 C 0.64104 0.76745 0.84267 0.0
C318 C 0.57734 0.81252 0.84151 0.0
C319 C 0.61843 0.86382 0.83749 0.0
H320 H 0.55555 0.72644 0.84672 0.0
H321 H 0.53621 0.80872 0.84232 0.0
S322 S 0.76292 0.89106 0.83216 0.0
N323 N 0.73467 0.82506 0.83737 0.0
N324 N 0.71379 0.91336 0.83195 0.0
C325 C 0.67131 0.86662 0.83653 0.0
C326 C 0.68261 0.81861 0.83927 0.0
C327 C 0.90888 0.56066 0.15809 0.0
C328 C 0.92559 0.51693 0.15001 0.0
C329 C 0.85469 0.55406 0.15556 0.0
C330 C 0.81394 0.50316 0.14493 0.0
H331 H 0.93822 0.60112 0.16598 0.0
H332 H 0.84505 0.58992 0.16128 0.0
S333 S 0.83522 0.37346 0.12315 0.0
N334 N 0.89601 0.41985 0.13209 0.0
N335 N 0.7946 0.40648 0.12836 0.0
C336 C 0.82992 0.45837 0.13771 0.0
C337 C 0.88532 0.46542 0.14001 0.0
C338 C 0.32522 0.86762 0.50325 0.0
C339 C 0.37657 0.86862 0.50824 0.0
C340 C 0.28089 0.81705 0.49803 0.0
C341 C 0.28654 0.7659 0.49761 0.0
H342 H 0.3196 0.90603 0.50212 0.0
H343 H 0.2426 0.81806 0.49276 0.0
S344 S 0.41098 0.74615 0.51329 0.0
N345 N 0.42962 0.81438 0.51529 0.0
N346 N 0.34604 0.71927 0.50556 0.0
C347 C 0.33697 0.76642 0.50435 0.0
C348 C 0.3821 0.81787 0.50967 0.0
C349 C 0.62773 0.46113 0.83541 0.0
C350 C 0.57743 0.46114 0.84183 0.0
C351 C 0.63734 0.4121 0.83357 0.0
C352 C 0.59618 0.36023 0.83683 0.0
H353 H 0.65976 0.49909 0.83122 0.0
H354 H 0.67713 0.41482 0.82881 0.0
S355 S 0.45574 0.33753 0.85252 0.0
N356 N 0.48586 0.4054 0.85181 0.0
N357 N 0.50211 0.3124 0.84606 0.0
C358 C 0.54544 0.3598 0.84332 0.0
C359 C 0.5364 0.4103 0.84621 0.0
C360 C 0.572 0.89168 0.49144 0.0
C361 C 0.59897 0.93478 0.51159 0.0
C362 C 0.56179 0.8357 0.49435 0.0
C363 C 0.57701 0.82103 0.51775 0.0
H364 H 0.55952 0.9014 0.47318 0.0
H365 H 0.5414 0.80368 0.47836 0.0
S366 S 0.64582 0.91779 0.57683 0.0
N367 N 0.63933 0.95864 0.55587 0.0
N368 N 0.61889 0.85379 0.56158 0.0
C369 C 0.60292 0.86365 0.53816 0.0
C370 C 0.61424 0.92045 0.53502 0.0
C371 C 0.80935 0.55583 0.82298 0.0
C372 C 0.78486 0.56502 0.84615 0.0
C373 C 0.83699 0.52041 0.82145 0.0
C374 C 0.84071 0.49303 0.84302 0.0
H375 H 0.80591 0.57482 0.80568 0.0
H376 H 0.85511 0.51393 0.80322 0.0
S377 S 0.78726 0.50705 0.90881 0.0
N378 N 0.76838 0.54647 0.89152 0.0
N379 N 0.82091 0.48035 0.88873 0.0
C380 C 0.81754 0.50304 0.8665 0.0
C381 C 0.78955 0.53909 0.86806 0.0
C382 C 0.27434 0.69103 0.14356 0.0
C383 C 0.22422 0.69511 0.14242 0.0
C384 C 0.32137 0.73813 0.15029 0.0
C385 C 0.32008 0.79114 0.15638 0.0
H386 H 0.27706 0.6507 0.14034 0.0
H387 H 0.35882 0.73264 0.15189 0.0
S388 S 0.19929 0.82468 0.15439 0.0
N389 N 0.17623 0.75663 0.14602 0.0
N390 N 0.26478 0.84548 0.15925 0.0
C391 C 0.2706 0.79635 0.15375 0.0
C392 C 0.22256 0.74819 0.14664 0.0
C393 C 0.56542 0.21767 0.52489 0.0
C394 C 0.53031 0.17854 0.50539 0.0
C395 C 0.57248 0.2739 0.52728 0.0
C396 C 0.54494 0.29365 0.5102 0.0
H397 H 0.5869 0.20461 0.53882 0.0
H398 H 0.59892 0.3019 0.54312 0.0
S399 S 0.45177 0.2087 0.45434 0.0
N400 N 0.46961 0.16368 0.46786 0.0
N401 N 0.48357 0.26956 0.47199 0.0
C402 C 0.51059 0.25505 0.4902 0.0
C403 C 0.50316 0.19757 0.48789 0.0
C404 C 0.36047 0.59603 0.82928 0.0
C405 C 0.38858 0.56864 0.81474 0.0
C406 C 0.3048 0.57051 0.83058 0.0
C407 C 0.27594 0.51646 0.81782 0.0
H408 H 0.38182 0.63513 0.84139 0.0
H409 H 0.28487 0.59109 0.84353 0.0
S410 S 0.33024 0.43391 0.77204 0.0
N411 N 0.38284 0.49058 0.78279 0.0
N412 N 0.27854 0.44118 0.78643 0.0
C413 C 0.3029 0.49206 0.80055 0.0
C414 C 0.3594 0.51859 0.79878 0.0
C415 C 0.86434 0.288 0.19053 0.0
C416 C 0.8841 0.29026 0.16518 0.0
C417 C 0.81443 0.24794 0.19543 0.0
C418 C 0.78187 0.20893 0.17511 0.0
H419 H 0.88737 0.3179 0.20674 0.0
H420 H 0.80105 0.24784 0.21535 0.0
S421 S 0.8153 0.19758 0.1051 0.0
N422 N 0.86813 0.24983 0.11949 0.0
N423 N 0.77314 0.175 0.12856 0.0
C424 C 0.80158 0.21002 0.14968 0.0
C425 C 0.85298 0.25064 0.14474 0.0
C426 C 0.05983 0.48584 0.04904 0.0
C427 C 0.04347 0.44528 0.06658 0.0
C428 C 0.05656 0.47051 0.02184 0.0
C429 C 0.03709 0.41411 0.01124 0.0
H430 H 0.07461 0.52972 0.0563 0.0
H431 H 0.06884 0.50306 0.00899 0.0
S432 S 0.99364 0.29197 0.04872 0.0
N433 N 1.00972 0.34618 0.07137 0.0
N434 N 1.00424 0.31783 0.02031 0.0
C435 C 1.0215 0.37322 0.02853 0.0
C436 C 1.02458 0.3887 0.05619 0.0
C437 C 0.59647 0.07891 0.40861 0.0
C438 C 0.55332 0.04438 0.4222 0.0
C439 C 0.59421 0.07573 0.38112 0.0
C440 C 0.5488 0.03789 0.36614 0.0
H441 H 0.63267 0.10822 0.4192 0.0
H442 H 0.62872 0.10244 0.37149 0.0
S443 S 0.42322 0.94153 0.39191 0.0
N444 N 0.46242 0.97312 0.41834 0.0
N445 N 0.45847 0.96766 0.36677 0.0
C446 C 0.50495 1.004 0.3794 0.0
C447 C 0.50713 1.00715 0.40737 0.0
C448 C 0.6538 0.61845 0.74189 0.0
C449 C 0.60695 0.60478 0.75615 0.0
C450 C 0.65121 0.61357 0.7143 0.0
C451 C 0.60166 0.59439 0.70009 0.0
H452 H 0.69273 0.63403 0.75211 0.0
H453 H 0.68825 0.62588 0.70405 0.0
S454 S 0.46708 0.54566 0.72807 0.0
N455 N 0.50941 0.5667 0.7539 0.0
N456 N 0.50463 0.55645 0.70226 0.0
C457 C 0.55453 0.57852 0.71414 0.0
C458 C 0.55715 0.58399 0.7421 0.0
C459 C 0.56261 0.01909 0.60077 0.0
C460 C 0.57906 0.06811 0.58852 0.0
C461 C 0.5656 0.02131 0.6282 0.0
C462 C 0.58442 0.07263 0.64431 0.0
H463 H 0.54818 0.97874 0.58907 0.0
H464 H 0.55365 0.98256 0.63681 0.0
S465 S 0.62681 0.21263 0.62162 0.0
N466 N 0.61213 0.1691 0.59431 0.0
N467 N 0.61585 0.17346 0.64587 0.0
C468 C 0.5997 0.12191 0.6322 0.0
C469 C 0.59748 0.1196 0.60429 0.0
C470 C 0.54596 0.60344 0.93306 0.0
C471 C 0.59494 0.61426 0.92075 0.0
C472 C 0.54069 0.5933 0.95952 0.0
C473 C 0.58413 0.5934 0.97459 0.0
H474 H 0.51083 0.60075 0.92198 0.0
H475 H 0.50187 0.58329 0.96795 0.0
S476 S 0.72268 0.62663 0.95304 0.0
N477 N 0.68914 0.62973 0.92679 0.0
N478 N 0.6788 0.61048 0.97621 0.0
C479 C 0.63385 0.6068 0.96297 0.0
C480 C 0.63937 0.6173 0.93616 0.0
C481 C 1.02118 0.49056 0.24545 0.0
C482 C 0.06092 0.52804 0.23122 0.0
C483 C 1.02227 0.49801 0.27287 0.0
C484 C 0.06309 0.54316 0.28733 0.0
H485 H 0.98906 0.45451 0.23545 0.0
H486 H 0.99147 0.46722 0.28287 0.0
S487 S 0.17471 0.65556 0.26005 0.0
N488 N 0.14121 0.61372 0.23395 0.0
N489 N 0.14273 0.62771 0.28569 0.0
C490 C 0.10244 0.58181 0.27355 0.0
C491 C 0.10138 0.57432 0.24548 0.0
loop_
_geom_bond_atom_site_label_1
_geom_bond_atom_site_label_2
_geom_bond_distance
_geom_bond_site_symmetry_2
_ccdc_geom_bond_type
Tb0 O3 2.453 1_455 S
Tb0 O4 2.596 1_455 S
Tb0 O5 2.374 . S
Tb0 O13 2.343 . S
Tb0 O15 2.353 . S
Tb0 O17 2.427 . S
Tb0 O18 2.513 . S
C1 O5 1.251 . S
C1 O7 1.263 . S
Tb2 O4 2.343 1_455 S
Tb2 O7 2.353 . S
Tb2 O10 2.427 1_455 S
Tb2 O11 2.513 1_455 S
Tb2 O12 2.453 . S
Tb2 O13 2.596 . S
Tb2 O14 2.374 . S
O3 Tb0 2.453 1_655 S
O3 C19 1.245 . S
O4 Tb0 2.596 1_655 S
O4 Tb2 2.343 1_655 S
O4 C19 1.259 . S
O5 Tb0 2.374 . S
O5 C1 1.251 . S
C6 O10 1.275 . S
C6 O11 1.246 . S
O7 C1 1.263 . S
O7 Tb2 2.353 . S
C8 O12 1.245 . S
C8 O13 1.259 . S
C9 O14 1.250 . S
C9 O15 1.263 . S
O10 Tb2 2.427 1_655 S
O10 C6 1.275 . S
O11 Tb2 2.513 1_655 S
O11 C6 1.246 . S
O12 Tb2 2.453 . S
O12 C8 1.245 . S
O13 Tb0 2.343 . S
O13 Tb2 2.596 . S
O13 C8 1.259 . S
O14 Tb2 2.374 . S
O14 C9 1.250 . S
O15 Tb0 2.353 . S
O15 C9 1.263 . S
C16 O17 1.275 . S
C16 O18 1.246 . S
O17 Tb0 2.427 . S
O17 C16 1.275 . S
O18 Tb0 2.513 . S
O18 C16 1.246 . S
C19 O3 1.245 . S
C19 O4 1.259 . S
Tb20 O23 2.453 . S
Tb20 O24 2.596 . S
Tb20 O25 2.374 . S
Tb20 O33 2.343 1_545 S
Tb20 O35 2.353 . S
Tb20 O37 2.427 1_545 S
Tb20 O38 2.513 1_545 S
C21 O25 1.251 . S
C21 O27 1.263 . S
Tb22 O24 2.343 . S
Tb22 O27 2.353 . S
Tb22 O30 2.427 . S
Tb22 O31 2.513 . S
Tb22 O32 2.453 1_545 S
Tb22 O33 2.596 1_545 S
Tb22 O34 2.374 . S
O23 Tb20 2.453 . S
O23 C39 1.245 . S
O24 Tb20 2.596 . S
O24 Tb22 2.343 . S
O24 C39 1.259 . S
O25 Tb20 2.374 . S
O25 C21 1.251 . S
C26 O30 1.275 . S
C26 O31 1.246 . S
O27 C21 1.263 . S
O27 Tb22 2.353 . S
C28 O32 1.245 . S
C28 O33 1.259 . S
C29 O34 1.250 . S
C29 O35 1.263 . S
O30 Tb22 2.427 . S
O30 C26 1.275 . S
O31 Tb22 2.513 . S
O31 C26 1.246 . S
O32 Tb22 2.453 1_565 S
O32 C28 1.245 . S
O33 Tb20 2.343 1_565 S
O33 Tb22 2.596 1_565 S
O33 C28 1.259 . S
O34 Tb22 2.374 . S
O34 C29 1.250 . S
O35 Tb20 2.353 . S
O35 C29 1.263 . S
C36 O37 1.275 . S
C36 O38 1.246 . S
O37 Tb20 2.427 1_565 S
O37 C36 1.275 . S
O38 Tb20 2.513 1_565 S
O38 C36 1.246 . S
C39 O23 1.245 . S
C39 O24 1.259 . S
Tb40 O43 2.453 . S
Tb40 O44 2.596 . S
Tb40 O45 2.374 . S
Tb40 O53 2.343 . S
Tb40 O55 2.353 . S
Tb40 O57 2.427 . S
Tb40 O58 2.513 . S
C41 O45 1.251 . S
C41 O47 1.263 . S
Tb42 O44 2.343 . S
Tb42 O47 2.353 . S
Tb42 O50 2.427 . S
Tb42 O51 2.513 . S
Tb42 O52 2.453 . S
Tb42 O53 2.596 . S
Tb42 O54 2.374 . S
O43 Tb40 2.453 . S
O43 C59 1.245 . S
O44 Tb40 2.596 . S
O44 Tb42 2.343 . S
O44 C59 1.259 . S
O45 Tb40 2.374 . S
O45 C41 1.251 . S
C46 O50 1.275 . S
C46 O51 1.246 . S
O47 C41 1.263 . S
O47 Tb42 2.353 . S
C48 O52 1.245 . S
C48 O53 1.259 . S
C49 O54 1.250 . S
C49 O55 1.263 . S
O50 Tb42 2.427 . S
O50 C46 1.275 . S
O51 Tb42 2.513 . S
O51 C46 1.246 . S
O52 Tb42 2.453 . S
O52 C48 1.245 . S
O53 Tb40 2.343 . S
O53 Tb42 2.596 . S
O53 C48 1.259 . S
O54 Tb42 2.374 . S
O54 C49 1.250 . S
O55 Tb40 2.353 . S
O55 C49 1.263 . S
C56 O57 1.275 . S
C56 O58 1.246 . S
O57 Tb40 2.427 . S
O57 C56 1.275 . S
O58 Tb40 2.513 . S
O58 C56 1.246 . S
C59 O43 1.245 . S
C59 O44 1.259 . S
C60 C61 1.386 . S
C60 C62 1.397 . S
C60 H84 0.931 . S
C61 C60 1.386 . S
C61 C65 1.397 . S
C62 C60 1.397 . S
C62 C63 1.384 . S
C62 H85 0.930 . S
C63 C62 1.384 . S
C63 C64 1.377 . S
C63 C66 1.481 . S
C64 C63 1.377 . S
C64 C65 1.389 . S
C64 H86 0.929 1_545 S
C65 C61 1.397 . S
C65 C64 1.389 . S
C65 H87 0.931 1_545 S
C66 C63 1.481 . S
C66 C67 1.387 . S
C66 C71 1.390 . S
C67 C66 1.387 . S
C67 C68 1.401 . S
C67 H88 0.930 . S
C68 C67 1.401 . S
C68 C69 1.376 . S
C68 C77 1.511 . S
C69 C68 1.376 . S
C69 C70 1.392 1_545 S
C69 H90 0.931 . S
C70 C69 1.392 1_565 S
C70 C71 1.361 1_565 S
C70 C72 1.500 . S
C71 C66 1.390 . S
C71 C70 1.361 1_545 S
C71 H89 0.931 1_545 S
C72 C70 1.500 . S
C72 C73 1.371 . S
C72 C74 1.365 . S
C73 C72 1.371 . S
C73 C83 1.386 . S
C73 H91 0.931 . S
C74 C72 1.365 . S
C74 C75 1.409 . S
C74 H92 0.929 . S
C75 C74 1.409 . S
C75 C76 1.380 . S
C75 H93 0.930 . S
C76 C75 1.380 . S
C76 C83 1.357 . S
C77 C68 1.511 . S
C77 C78 1.341 . S
C77 C79 1.371 . S
C78 C77 1.341 . S
C78 C82 1.394 . S
C78 H94 0.930 . S
C79 C77 1.371 . S
C79 C80 1.392 . S
C79 H95 0.931 . S
C80 C79 1.392 . S
C80 C81 1.331 . S
C80 H98 0.932 . S
C81 C80 1.331 . S
C81 C82 1.336 . S
C82 C78 1.394 . S
C82 C81 1.336 . S
C82 H97 0.929 . S
C83 C73 1.386 . S
C83 C76 1.357 . S
C83 H96 0.928 . S
H84 C60 0.931 . S
H85 C62 0.930 . S
H86 C64 0.929 1_565 S
H87 C65 0.931 1_565 S
H88 C67 0.930 . S
H89 C71 0.931 1_565 S
H90 C69 0.931 . S
H91 C73 0.931 . S
H92 C74 0.929 . S
H93 C75 0.930 . S
H94 C78 0.930 . S
H95 C79 0.931 . S
H96 C83 0.928 . S
H97 C82 0.929 . S
H98 C80 0.932 . S
C99 C100 1.386 . S
C99 C101 1.397 . S
C99 H123 0.931 . S
C100 C99 1.386 . S
C100 C104 1.397 . S
C101 C99 1.397 . S
C101 C102 1.384 . S
C101 H124 0.930 . S
C102 C101 1.384 . S
C102 C103 1.377 . S
C102 C105 1.481 . S
C103 C102 1.377 . S
C103 C104 1.389 . S
C103 H125 0.929 . S
C104 C100 1.397 . S
C104 C103 1.389 . S
C104 H126 0.931 . S
C105 C102 1.481 . S
C105 C106 1.387 . S
C105 C110 1.390 . S
C106 C105 1.387 . S
C106 C107 1.401 . S
C106 H127 0.930 . S
C107 C106 1.401 . S
C107 C108 1.376 . S
C107 C116 1.511 . S
C108 C107 1.376 . S
C108 C109 1.392 . S
C108 H129 0.931 . S
C109 C108 1.392 . S
C109 C110 1.361 . S
C109 C111 1.500 . S
C110 C105 1.390 . S
C110 C109 1.361 . S
C110 H128 0.931 . S
C111 C109 1.500 . S
C111 C112 1.371 . S
C111 C113 1.365 . S
C112 C111 1.371 . S
C112 C122 1.386 . S
C112 H130 0.931 . S
C113 C111 1.365 . S
C113 C114 1.409 . S
C113 H131 0.929 . S
C114 C113 1.409 . S
C114 C115 1.380 . S
C114 H132 0.930 . S
C115 C114 1.380 . S
C115 C122 1.357 . S
C116 C107 1.511 . S
C116 C117 1.341 . S
C116 C118 1.371 . S
C117 C116 1.341 . S
C117 C121 1.394 . S
C117 H133 0.930 . S
C118 C116 1.371 . S
C118 C119 1.392 . S
C118 H134 0.931 . S
C119 C118 1.392 . S
C119 C120 1.331 . S
C119 H137 0.932 . S
C120 C119 1.331 . S
C120 C121 1.336 . S
C121 C117 1.394 . S
C121 C120 1.336 . S
C121 H136 0.929 . S
C122 C112 1.386 . S
C122 C115 1.357 . S
C122 H135 0.928 . S
H123 C99 0.931 . S
H124 C101 0.930 . S
H125 C103 0.929 . S
H126 C104 0.931 . S
H127 C106 0.930 . S
H128 C110 0.931 . S
H129 C108 0.931 . S
H130 C112 0.931 . S
H131 C113 0.929 . S
H132 C114 0.930 . S
H133 C117 0.930 . S
H134 C118 0.931 . S
H135 C122 0.928 . S
H136 C121 0.929 . S
H137 C119 0.932 . S
C138 C139 1.384 1_556 S
C138 C140 1.397 . S
C138 H162 0.931 1_556 S
C139 C138 1.384 1_554 S
C139 C143 1.395 1_554 S
C140 C138 1.397 . S
C140 C141 1.384 . S
C140 H163 0.930 . S
C141 C140 1.384 . S
C141 C142 1.377 . S
C141 C144 1.481 . S
C142 C141 1.377 . S
C142 C143 1.389 . S
C142 H164 0.929 1_455 S
C143 C139 1.395 1_556 S
C143 C142 1.389 . S
C143 H165 0.931 1_455 S
C144 C141 1.481 . S
C144 C145 1.387 . S
C144 C149 1.390 . S
C145 C144 1.387 . S
C145 C146 1.401 . S
C145 H166 0.930 . S
C146 C145 1.401 . S
C146 C147 1.376 . S
C146 C155 1.511 . S
C147 C146 1.376 . S
C147 C148 1.392 . S
C147 H168 0.931 . S
C148 C147 1.392 . S
C148 C149 1.361 . S
C148 C150 1.500 1_455 S
C149 C144 1.390 . S
C149 C148 1.361 . S
C149 H167 0.950 . S
C150 C148 1.500 1_655 S
C150 C151 1.371 . S
C150 C152 1.365 . S
C151 C150 1.371 . S
C151 C161 1.386 . S
C151 H169 0.931 1_655 S
C152 C150 1.365 . S
C152 C153 1.409 . S
C152 H170 0.929 . S
C153 C152 1.409 . S
C153 C154 1.380 . S
C153 H171 0.930 . S
C154 C153 1.380 . S
C154 C161 1.357 . S
C155 C146 1.511 . S
C155 C156 1.341 . S
C155 C157 1.371 . S
C156 C155 1.341 . S
C156 C160 1.394 . S
C156 H172 0.930 . S
C157 C155 1.371 . S
C157 C158 1.392 . S
C157 H173 0.931 . S
C158 C157 1.392 . S
C158 C159 1.331 . S
C158 H176 0.932 . S
C159 C158 1.331 . S
C159 C160 1.336 . S
C160 C156 1.394 . S
C160 C159 1.336 . S
C160 H175 0.929 . S
C161 C151 1.386 . S
C161 C154 1.357 . S
C161 H174 0.928 . S
H162 C138 0.931 1_554 S
H163 C140 0.930 . S
H164 C142 0.929 1_655 S
H165 C143 0.931 1_655 S
H166 C145 0.930 . S
H167 C149 0.950 . S
H168 C147 0.931 . S
H169 C151 0.931 1_455 S
H170 C152 0.929 . S
H171 C153 0.930 . S
H172 C156 0.930 . S
H173 C157 0.931 . S
H174 C161 0.928 . S
H175 C160 0.929 . S
H176 C158 0.932 . S
C177 C178 1.386 . S
C177 C179 1.397 . S
C177 H201 0.931 . S
C178 C177 1.386 . S
C178 C182 1.397 1_655 S
C179 C177 1.397 . S
C179 C180 1.384 . S
C179 H202 0.930 . S
C180 C179 1.384 . S
C180 C181 1.377 1_655 S
C180 C183 1.481 . S
C181 C180 1.377 1_455 S
C181 C182 1.389 . S
C181 H203 0.929 . S
C182 C178 1.397 1_455 S
C182 C181 1.389 . S
C182 H204 0.931 . S
C183 C180 1.481 . S
C183 C184 1.387 . S
C183 C188 1.390 1_655 S
C184 C183 1.387 . S
C184 C185 1.401 . S
C184 H205 0.930 . S
C185 C184 1.401 . S
C185 C186 1.369 1_655 S
C185 C194 1.511 . S
C186 C185 1.369 1_455 S
C186 C187 1.401 . S
C186 H207 0.930 . S
C187 C186 1.401 . S
C187 C188 1.361 . S
C187 C189 1.500 . S
C188 C183 1.390 1_455 S
C188 C187 1.361 . S
C188 H206 0.931 . S
C189 C187 1.500 . S
C189 C190 1.371 . S
C189 C191 1.365 . S
C190 C189 1.371 . S
C190 C200 1.386 . S
C190 H208 0.931 . S
C191 C189 1.365 . S
C191 C192 1.409 . S
C191 H209 0.929 . S
C192 C191 1.409 . S
C192 C193 1.380 . S
C192 H210 0.930 . S
C193 C192 1.380 . S
C193 C200 1.357 . S
C194 C185 1.511 . S
C194 C195 1.341 . S
C194 C196 1.371 . S
C195 C194 1.341 . S
C195 C199 1.394 . S
C195 H211 0.930 . S
C196 C194 1.371 . S
C196 C197 1.392 . S
C196 H212 0.931 . S
C197 C196 1.392 . S
C197 C198 1.331 . S
C197 H215 0.932 . S
C198 C197 1.331 . S
C198 C199 1.336 . S
C199 C195 1.394 . S
C199 C198 1.336 . S
C199 H214 0.929 . S
C200 C190 1.386 . S
C200 C193 1.357 . S
C200 H213 0.928 . S
H201 C177 0.931 . S
H202 C179 0.930 . S
H203 C181 0.929 . S
H204 C182 0.931 . S
H205 C184 0.930 . S
H206 C188 0.931 . S
H207 C186 0.930 . S
H208 C190 0.931 . S
H209 C191 0.929 . S
H210 C192 0.930 . S
H211 C195 0.930 . S
H212 C196 0.931 . S
H213 C200 0.928 . S
H214 C199 0.929 . S
H215 C197 0.932 . S
C216 C217 1.386 1_565 S
C216 C218 1.397 . S
C216 H240 0.931 . S
C217 C216 1.386 1_545 S
C217 C221 1.397 . S
C218 C216 1.397 . S
C218 C219 1.384 1_565 S
C218 H241 0.930 . S
C219 C218 1.384 1_545 S
C219 C220 1.377 . S
C219 C222 1.481 . S
C220 C219 1.377 . S
C220 C221 1.389 . S
C220 H242 0.929 . S
C221 C217 1.397 . S
C221 C220 1.389 . S
C221 H243 0.931 . S
C222 C219 1.481 . S
C222 C223 1.387 1_545 S
C222 C227 1.390 . S
C223 C222 1.387 1_565 S
C223 C224 1.401 . S
C223 H244 0.930 . S
C224 C223 1.401 . S
C224 C225 1.376 1_565 S
C224 C233 1.511 . S
C225 C224 1.376 1_545 S
C225 C226 1.392 . S
C225 H246 0.931 . S
C226 C225 1.392 . S
C226 C227 1.361 . S
C226 C228 1.500 . S
C227 C222 1.390 . S
C227 C226 1.361 . S
C227 H245 0.931 . S
C228 C226 1.500 . S
C228 C229 1.371 . S
C228 C230 1.365 . S
C229 C228 1.371 . S
C229 C239 1.386 . S
C229 H247 0.931 . S
C230 C228 1.365 . S
C230 C231 1.409 . S
C230 H248 0.929 . S
C231 C230 1.409 . S
C231 C232 1.380 . S
C231 H249 0.930 . S
C232 C231 1.380 . S
C232 C239 1.357 . S
C233 C224 1.511 . S
C233 C234 1.341 . S
C233 C235 1.371 . S
C234 C233 1.341 . S
C234 C238 1.394 . S
C234 H250 0.930 . S
C235 C233 1.371 . S
C235 C236 1.392 . S
C235 H251 0.931 . S
C236 C235 1.392 . S
C236 C237 1.331 . S
C236 H254 0.932 . S
C237 C236 1.331 . S
C237 C238 1.336 . S
C238 C234 1.394 . S
C238 C237 1.336 . S
C238 H253 0.929 . S
C239 C229 1.386 . S
C239 C232 1.357 . S
C239 H252 0.928 . S
H240 C216 0.931 . S
H241 C218 0.930 . S
H242 C220 0.929 . S
H243 C221 0.931 . S
H244 C223 0.930 . S
H245 C227 0.931 . S
H246 C225 0.931 . S
H247 C229 0.931 . S
H248 C230 0.929 . S
H249 C231 0.930 . S
H250 C234 0.930 . S
H251 C235 0.931 . S
H252 C239 0.928 . S
H253 C238 0.929 . S
H254 C236 0.932 . S
C255 C256 1.386 1_554 S
C255 C257 1.397 . S
C255 H279 0.931 1_554 S
C256 C255 1.386 1_556 S
C256 C260 1.397 1_556 S
C257 C255 1.397 . S
C257 C258 1.384 . S
C257 H280 0.930 . S
C258 C257 1.384 . S
C258 C259 1.377 . S
C258 C261 1.481 . S
C259 C258 1.377 . S
C259 C260 1.389 . S
C259 H281 0.929 . S
C260 C256 1.397 1_554 S
C260 C259 1.389 . S
C260 H282 0.931 . S
C261 C258 1.481 . S
C261 C262 1.387 . S
C261 C266 1.390 . S
C262 C261 1.387 . S
C262 C263 1.401 . S
C262 H283 0.930 . S
C263 C262 1.401 . S
C263 C264 1.376 . S
C263 C272 1.511 . S
C264 C263 1.376 . S
C264 C265 1.392 . S
C264 H285 0.931 . S
C265 C264 1.392 . S
C265 C266 1.361 . S
C265 C267 1.500 . S
C266 C261 1.390 . S
C266 C265 1.361 . S
C266 H284 0.931 . S
C267 C265 1.500 . S
C267 C268 1.371 . S
C267 C269 1.365 . S
C268 C267 1.371 . S
C268 C278 1.386 . S
C268 H286 0.931 . S
C269 C267 1.365 . S
C269 C270 1.409 . S
C269 H287 0.929 . S
C270 C269 1.409 . S
C270 C271 1.380 . S
C270 H288 0.930 . S
C271 C270 1.380 . S
C271 C278 1.357 . S
C272 C263 1.511 . S
C272 C273 1.341 . S
C272 C274 1.371 . S
C273 C272 1.341 . S
C273 C277 1.394 . S
C273 H289 0.930 . S
C274 C272 1.371 . S
C274 C275 1.392 . S
C274 H290 0.931 . S
C275 C274 1.392 . S
C275 C276 1.331 . S
C275 H293 0.932 . S
C276 C275 1.331 . S
C276 C277 1.336 . S
C277 C273 1.394 . S
C277 C276 1.336 . S
C277 H292 0.929 . S
C278 C268 1.386 . S
C278 C271 1.357 . S
C278 H291 0.928 . S
H279 C255 0.931 1_556 S
H280 C257 0.930 . S
H281 C259 0.929 . S
H282 C260 0.931 . S
H283 C262 0.930 . S
H284 C266 0.931 . S
H285 C264 0.931 . S
H286 C268 0.931 . S
H287 C269 0.929 . S
H288 C270 0.930 . S
H289 C273 0.930 . S
H290 C274 0.931 . S
H291 C278 0.928 . S
H292 C277 0.929 . S
H293 C275 0.932 . S
C294 C295 1.369 . S
C294 C296 1.419 . S
C294 H298 0.930 . S
C295 C294 1.369 . S
C295 C304 1.429 . S
C296 C294 1.419 . S
C296 C297 1.363 . S
C296 H299 0.929 . S
C297 C296 1.363 . S
C297 C303 1.428 . S
H298 C294 0.930 . S
H299 C296 0.929 . S
S300 N301 1.613 . S
S300 N302 1.610 . S
N301 S300 1.613 . S
N301 C304 1.350 . S
N302 S300 1.610 . S
N302 C303 1.351 . S
C303 C297 1.428 . S
C303 N302 1.351 . S
C303 C304 1.434 . S
C304 C295 1.429 . S
C304 N301 1.350 . S
C304 C303 1.434 . S
C305 C306 1.369 . S
C305 C307 1.419 . S
C305 H309 0.930 . S
C306 C305 1.369 . S
C306 C315 1.429 . S
C307 C305 1.419 . S
C307 C308 1.363 . S
C307 H310 0.929 . S
C308 C307 1.363 . S
C308 C314 1.428 . S
H309 C305 0.930 . S
H310 C307 0.929 . S
S311 N312 1.613 . S
S311 N313 1.610 . S
N312 S311 1.613 . S
N312 C315 1.350 . S
N313 S311 1.610 . S
N313 C314 1.351 . S
C314 C308 1.428 . S
C314 N313 1.351 . S
C314 C315 1.434 . S
C315 C306 1.429 . S
C315 N312 1.350 . S
C315 C314 1.434 . S
C316 C317 1.369 . S
C316 C318 1.419 . S
C316 H320 0.930 . S
C317 C316 1.369 . S
C317 C326 1.429 . S
C318 C316 1.419 . S
C318 C319 1.363 . S
C318 H321 0.929 . S
C319 C318 1.363 . S
C319 C325 1.428 . S
H320 C316 0.930 . S
H321 C318 0.929 . S
S322 N323 1.613 . S
S322 N324 1.610 . S
N323 S322 1.613 . S
N323 C326 1.350 . S
N324 S322 1.610 . S
N324 C325 1.351 . S
C325 C319 1.428 . S
C325 N324 1.351 . S
C325 C326 1.434 . S
C326 C317 1.429 . S
C326 N323 1.350 . S
C326 C325 1.434 . S
C327 C328 1.369 . S
C327 C329 1.419 . S
C327 H331 0.930 . S
C328 C327 1.369 . S
C328 C337 1.429 . S
C329 C327 1.419 . S
C329 C330 1.363 . S
C329 H332 0.929 . S
C330 C329 1.363 . S
C330 C336 1.428 . S
H331 C327 0.930 . S
H332 C329 0.929 . S
S333 N334 1.613 . S
S333 N335 1.610 . S
N334 S333 1.613 . S
N334 C337 1.350 . S
N335 S333 1.610 . S
N335 C336 1.351 . S
C336 C330 1.428 . S
C336 N335 1.351 . S
C336 C337 1.434 . S
C337 C328 1.429 . S
C337 N334 1.350 . S
C337 C336 1.434 . S
C338 C339 1.369 . S
C338 C340 1.419 . S
C338 H342 0.930 . S
C339 C338 1.369 . S
C339 C348 1.429 . S
C340 C338 1.419 . S
C340 C341 1.363 . S
C340 H343 0.929 . S
C341 C340 1.363 . S
C341 C347 1.428 . S
H342 C338 0.930 . S
H343 C340 0.929 . S
S344 N345 1.613 . S
S344 N346 1.610 . S
N345 S344 1.613 . S
N345 C348 1.350 . S
N346 S344 1.610 . S
N346 C347 1.351 . S
C347 C341 1.428 . S
C347 N346 1.351 . S
C347 C348 1.434 . S
C348 C339 1.429 . S
C348 N345 1.350 . S
C348 C347 1.434 . S
C349 C350 1.369 . S
C349 C351 1.419 . S
C349 H353 0.930 . S
C350 C349 1.369 . S
C350 C359 1.429 . S
C351 C349 1.419 . S
C351 C352 1.363 . S
C351 H354 0.929 . S
C352 C351 1.363 . S
C352 C358 1.428 . S
H353 C349 0.930 . S
H354 C351 0.929 . S
S355 N356 1.613 . S
S355 N357 1.610 . S
N356 S355 1.613 . S
N356 C359 1.350 . S
N357 S355 1.610 . S
N357 C358 1.351 . S
C358 C352 1.428 . S
C358 N357 1.351 . S
C358 C359 1.434 . S
C359 C350 1.429 . S
C359 N356 1.350 . S
C359 C358 1.434 . S
C360 C361 1.369 . S
C360 C362 1.419 . S
C360 H364 0.930 . S
C361 C360 1.369 . S
C361 C370 1.429 . S
C362 C360 1.419 . S
C362 C363 1.363 . S
C362 H365 0.929 . S
C363 C362 1.363 . S
C363 C369 1.428 . S
H364 C360 0.930 . S
H365 C362 0.929 . S
S366 N367 1.613 . S
S366 N368 1.610 . S
N367 S366 1.613 . S
N367 C370 1.350 . S
N368 S366 1.610 . S
N368 C369 1.351 . S
C369 C363 1.428 . S
C369 N368 1.351 . S
C369 C370 1.434 . S
C370 C361 1.429 . S
C370 N367 1.350 . S
C370 C369 1.434 . S
C371 C372 1.369 . S
C371 C373 1.419 . S
C371 H375 0.930 . S
C372 C371 1.369 . S
C372 C381 1.429 . S
C373 C371 1.419 . S
C373 C374 1.363 . S
C373 H376 0.929 . S
C374 C373 1.363 . S
C374 C380 1.428 . S
H375 C371 0.930 . S
H376 C373 0.929 . S
S377 N378 1.613 . S
S377 N379 1.610 . S
N378 S377 1.613 . S
N378 C381 1.350 . S
N379 S377 1.610 . S
N379 C380 1.351 . S
C380 C374 1.428 . S
C380 N379 1.351 . S
C380 C381 1.434 . S
C381 C372 1.429 . S
C381 N378 1.350 . S
C381 C380 1.434 . S
C382 C383 1.369 . S
C382 C384 1.419 . S
C382 H386 0.930 . S
C383 C382 1.369 . S
C383 C392 1.429 . S
C384 C382 1.419 . S
C384 C385 1.363 . S
C384 H387 0.929 . S
C385 C384 1.363 . S
C385 C391 1.428 . S
H386 C382 0.930 . S
H387 C384 0.929 . S
S388 N389 1.613 . S
S388 N390 1.610 . S
N389 S388 1.613 . S
N389 C392 1.350 . S
N390 S388 1.610 . S
N390 C391 1.351 . S
C391 C385 1.428 . S
C391 N390 1.351 . S
C391 C392 1.434 . S
C392 C383 1.429 . S
C392 N389 1.350 . S
C392 C391 1.434 . S
C393 C394 1.369 . S
C393 C395 1.419 . S
C393 H397 0.930 . S
C394 C393 1.369 . S
C394 C403 1.429 . S
C395 C393 1.419 . S
C395 C396 1.363 . S
C395 H398 0.929 . S
C396 C395 1.363 . S
C396 C402 1.428 . S
H397 C393 0.930 . S
H398 C395 0.929 . S
S399 N400 1.613 . S
S399 N401 1.610 . S
N400 S399 1.613 . S
N400 C403 1.350 . S
N401 S399 1.610 . S
N401 C402 1.351 . S
C402 C396 1.428 . S
C402 N401 1.351 . S
C402 C403 1.434 . S
C403 C394 1.429 . S
C403 N400 1.350 . S
C403 C402 1.434 . S
C404 C405 1.369 . S
C404 C406 1.419 . S
C404 H408 0.930 . S
C405 C404 1.369 . S
C405 C414 1.429 . S
C406 C404 1.419 . S
C406 C407 1.363 . S
C406 H409 0.929 . S
C407 C406 1.363 . S
C407 C413 1.428 . S
H408 C404 0.930 . S
H409 C406 0.929 . S
S410 N411 1.613 . S
S410 N412 1.610 . S
N411 S410 1.613 . S
N411 C414 1.350 . S
N412 S410 1.610 . S
N412 C413 1.351 . S
C413 C407 1.428 . S
C413 N412 1.351 . S
C413 C414 1.434 . S
C414 C405 1.429 . S
C414 N411 1.350 . S
C414 C413 1.434 . S
C415 C416 1.369 . S
C415 C417 1.419 . S
C415 H419 0.930 . S
C416 C415 1.369 . S
C416 C425 1.429 . S
C417 C415 1.419 . S
C417 C418 1.363 . S
C417 H420 0.929 . S
C418 C417 1.363 . S
C418 C424 1.428 . S
H419 C415 0.930 . S
H420 C417 0.929 . S
S421 N422 1.613 . S
S421 N423 1.610 . S
N422 S421 1.613 . S
N422 C425 1.350 . S
N423 S421 1.610 . S
N423 C424 1.351 . S
C424 C418 1.428 . S
C424 N423 1.351 . S
C424 C425 1.434 . S
C425 C416 1.429 . S
C425 N422 1.350 . S
C425 C424 1.434 . S
C426 C427 1.369 . S
C426 C428 1.419 . S
C426 H430 0.930 . S
C427 C426 1.369 . S
C427 C436 1.429 . S
C428 C426 1.419 . S
C428 C429 1.363 . S
C428 H431 0.929 . S
C429 C428 1.363 . S
C429 C435 1.428 . S
H430 C426 0.930 . S
H431 C428 0.929 . S
S432 N433 1.613 . S
S432 N434 1.610 . S
N433 S432 1.613 . S
N433 C436 1.350 1_655 S
N434 S432 1.610 . S
N434 C435 1.351 1_655 S
C435 C429 1.428 . S
C435 N434 1.351 1_455 S
C435 C436 1.434 . S
C436 C427 1.429 . S
C436 N433 1.350 1_455 S
C436 C435 1.434 . S
C437 C438 1.369 . S
C437 C439 1.419 . S
C437 H441 0.930 . S
C438 C437 1.369 . S
C438 C447 1.429 . S
C439 C437 1.419 . S
C439 C440 1.363 . S
C439 H442 0.929 . S
C440 C439 1.363 . S
C440 C446 1.428 . S
H441 C437 0.930 . S
H442 C439 0.929 . S
S443 N444 1.613 . S
S443 N445 1.610 . S
N444 S443 1.613 . S
N444 C447 1.350 1_565 S
N445 S443 1.610 . S
N445 C446 1.351 1_565 S
C446 C440 1.428 . S
C446 N445 1.351 1_545 S
C446 C447 1.434 . S
C447 C438 1.429 . S
C447 N444 1.350 1_545 S
C447 C446 1.434 . S
C448 C449 1.369 . S
C448 C450 1.419 . S
C448 H452 0.930 . S
C449 C448 1.369 . S
C449 C458 1.429 . S
C450 C448 1.419 . S
C450 C451 1.363 . S
C450 H453 0.929 . S
C451 C450 1.363 . S
C451 C457 1.428 . S
H452 C448 0.930 . S
H453 C450 0.929 . S
S454 N455 1.613 . S
S454 N456 1.610 . S
N455 S454 1.613 . S
N455 C458 1.350 . S
N456 S454 1.610 . S
N456 C457 1.351 . S
C457 C451 1.428 . S
C457 N456 1.351 . S
C457 C458 1.434 . S
C458 C449 1.429 . S
C458 N455 1.350 . S
C458 C457 1.434 . S
C459 C460 1.369 1_565 S
C459 C461 1.419 . S
C459 H463 0.930 . S
C460 C459 1.369 1_545 S
C460 C469 1.429 . S
C461 C459 1.419 . S
C461 C462 1.363 1_565 S
C461 H464 0.929 . S
C462 C461 1.363 1_545 S
C462 C468 1.428 . S
H463 C459 0.930 . S
H464 C461 0.929 . S
S465 N466 1.613 . S
S465 N467 1.610 . S
N466 S465 1.613 . S
N466 C469 1.350 . S
N467 S465 1.610 . S
N467 C468 1.351 . S
C468 C462 1.428 . S
C468 N467 1.351 . S
C468 C469 1.434 . S
C469 C460 1.429 . S
C469 N466 1.350 . S
C469 C468 1.434 . S
C470 C471 1.369 . S
C470 C472 1.419 . S
C470 H474 0.930 . S
C471 C470 1.369 . S
C471 C480 1.429 . S
C472 C470 1.419 . S
C472 C473 1.363 . S
C472 H475 0.929 . S
C473 C472 1.363 . S
C473 C479 1.428 . S
H474 C470 0.930 . S
H475 C472 0.929 . S
S476 N477 1.613 . S
S476 N478 1.610 . S
N477 S476 1.613 . S
N477 C480 1.350 . S
N478 S476 1.610 . S
N478 C479 1.351 . S
C479 C473 1.428 . S
C479 N478 1.351 . S
C479 C480 1.434 . S
C480 C471 1.429 . S
C480 N477 1.350 . S
C480 C479 1.434 . S
C481 C482 1.369 1_655 S
C481 C483 1.419 . S
C481 H485 0.930 . S
C482 C481 1.369 1_455 S
C482 C491 1.429 . S
C483 C481 1.419 . S
C483 C484 1.363 1_655 S
C483 H486 0.929 . S
C484 C483 1.363 1_455 S
C484 C490 1.428 . S
H485 C481 0.930 . S
H486 C483 0.929 . S
S487 N488 1.613 . S
S487 N489 1.610 . S
N488 S487 1.613 . S
N488 C491 1.350 . S
N489 S487 1.610 . S
N489 C490 1.351 . S
C490 C484 1.428 . S
C490 N489 1.351 . S
C490 C491 1.434 . S
C491 C482 1.429 . S
C491 N488 1.350 . S
C491 C490 1.434 . S
C295 C8 2.071 . S
C297 C271 2.123 . S
C306 C26 1.424 . S
C308 C198 1.404 . S
C317 C48 1.582 . S
C319 C237 1.616 . S
C328 C19 1.961 . S
C330 C276 1.940 . S
C341 C193 1.558 . S
C339 C36 1.577 . S
C352 C232 1.818 . S
C350 C59 1.817 . S
C361 C28 1.609 . S
C363 C120 1.638 . S
C372 C46 1.299 . S
C374 C154 1.291 . S
C383 C16 1.642 . S
C385 C76 1.633 . S
C396 C115 1.783 . S
C394 C39 1.799 . S
C407 C159 1.110 . S
C405 C56 1.112 . S
C416 C6 1.488 . S
C418 C81 1.457 . S
C429 C139 1.451 . S
C427 C9 1.409 . S
C438 C21 1.513 . S
C440 C61 1.521 . S
C449 C49 1.480 . S
C451 C100 1.493 . S
C462 C217 1.480 . S
C460 C29 1.477 . S
C473 C256 1.593 . S
C471 C41 1.576 . S
C482 C1 1.503 . S
C484 C178 1.515 1_455 S
