# Generated by pormake.
# Topology rtl, (3,6)-cn, num edge types: 1
# Building blocks:
#     Node 0, Type 0, BuildingBlock: PAMTOO_clean_linker_0, # of connection points: 3
#     Node 1, Type 0, BuildingBlock: PAMTOO_clean_linker_0, # of connection points: 3
#     Node 2, Type 0, BuildingBlock: PAMTOO_clean_linker_0, # of connection points: 3
#     Node 3, Type 0, BuildingBlock: PAMTOO_clean_linker_0, # of connection points: 3
#     Node 4, Type 1, BuildingBlock: FUNLAD_clean_sbu_0, # of connection points: 6
#     Node 5, Type 1, BuildingBlock: FUNLAD_clean_sbu_0, # of connection points: 6
#     Edge 6, Type (0, 1), BuildingBlock: KIFKEQ_clean_linker_1, # of connection points: 2
#     Edge 7, Type (0, 1), BuildingBlock: KIFKEQ_clean_linker_1, # of connection points: 2
#     Edge 8, Type (0, 1), BuildingBlock: KIFKEQ_clean_linker_1, # of connection points: 2
#     Edge 9, Type (0, 1), BuildingBlock: KIFKEQ_clean_linker_1, # of connection points: 2
#     Edge 10, Type (0, 1), BuildingBlock: KIFKEQ_clean_linker_1, # of connection points: 2
#     Edge 11, Type (0, 1), BuildingBlock: KIFKEQ_clean_linker_1, # of connection points: 2
#     Edge 12, Type (0, 1), BuildingBlock: KIFKEQ_clean_linker_1, # of connection points: 2
#     Edge 13, Type (0, 1), BuildingBlock: KIFKEQ_clean_linker_1, # of connection points: 2
#     Edge 14, Type (0, 1), BuildingBlock: KIFKEQ_clean_linker_1, # of connection points: 2
#     Edge 15, Type (0, 1), BuildingBlock: KIFKEQ_clean_linker_1, # of connection points: 2
#     Edge 16, Type (0, 1), BuildingBlock: KIFKEQ_clean_linker_1, # of connection points: 2
#     Edge 17, Type (0, 1), BuildingBlock: KIFKEQ_clean_linker_1, # of connection points: 2
# Relax obj value: 0.003
# Max RMSD: 0.041
# Mean RMSD: 0.031
data_MOF--net-rtl--node1-FUNLAD_clean_sbu_0--node2-PAMTOO_clean_linker_0--edge1-KIFKEQ_clean_linker_1
_symmetry_space_group_name_H-M    P1
_symmetry_Int_Tables_number       1
_symmetry_cell_setting            triclinic
loop_
_symmetry_equiv_pos_as_xyz
'x, y, z'
_cell_length_a     40.537303
_cell_length_b     40.62605
_cell_length_c     21.467329
_cell_angle_alpha  92.459558
_cell_angle_beta   91.015627
_cell_angle_gamma 90.087675
loop_
_atom_site_label
_atom_site_type_symbol
_atom_site_fract_x
_atom_site_fract_y
_atom_site_fract_z
_atom_type_partial_charge
H0 H 0.13073 0.89206 -0.00012 0.0
H1 H 0.19137 0.82368 0.09774 0.0
H2 H 0.19757 0.82829 0.89863 0.0
H3 H 0.19545 0.76104 0.95188 0.0
C4 C 0.21113 0.76623 0.99429 0.0
O5 O 0.21988 0.79913 -0.00252 0.0
H6 H 0.19677 0.76046 0.03616 0.0
C7 C 0.14937 0.87292 -0.0006 0.0
C8 C 0.16319 0.86228 0.94263 0.0
C9 C 0.15909 0.85908 0.05552 0.0
C10 C 0.18349 0.83461 0.05479 0.0
C11 C 0.19701 0.82328 -0.00189 0.0
C12 C 0.1868 0.83702 0.94211 0.0
H13 H 0.62663 0.62558 0.51966 0.0
H14 H 0.68758 0.69473 0.4276 0.0
H15 H 0.69722 0.68523 0.62568 0.0
H16 H 0.70473 0.75197 0.59273 0.0
C17 C 0.71192 0.74875 0.5431 0.0
O18 O 0.71879 0.71598 0.52946 0.0
H19 H 0.69098 0.75669 0.51299 0.0
C20 C 0.64573 0.64434 0.52167 0.0
C21 C 0.66075 0.65345 0.57919 0.0
C22 C 0.65505 0.65904 0.46672 0.0
C23 C 0.68 0.68312 0.46956 0.0
C24 C 0.69494 0.69267 0.52695 0.0
C25 C 0.68535 0.67786 0.58164 0.0
H26 H 0.88883 0.12171 0.01415 0.0
H27 H 0.83032 0.19172 0.91602 0.0
H28 H 0.82699 0.1903 0.11588 0.0
H29 H 0.76329 0.19449 0.05042 0.0
C30 C 0.77025 0.21053 0.01193 0.0
O31 O 0.80343 0.218 0.01647 0.0
H32 H 0.76485 0.19662 0.96708 0.0
C33 C 0.87109 0.14168 0.01462 0.0
C34 C 0.85908 0.15412 0.07175 0.0
C35 C 0.86098 0.15493 0.95818 0.0
C36 C 0.83882 0.18146 0.9592 0.0
C37 C 0.82644 0.19397 0.01605 0.0
C38 C 0.8369 0.18063 0.07227 0.0
H39 H 0.39535 0.38548 0.49085 0.0
H40 H 0.33327 0.31781 0.58409 0.0
H41 H 0.3252 0.32507 0.38529 0.0
H42 H 0.26198 0.31878 0.4447 0.0
C43 C 0.26945 0.30521 0.48661 0.0
O44 O 0.30214 0.29618 0.48245 0.0
H45 H 0.26589 0.32202 0.52831 0.0
C46 C 0.37626 0.3667 0.48906 0.0
C47 C 0.36148 0.35717 0.43153 0.0
C48 C 0.36654 0.35259 0.54433 0.0
C49 C 0.34134 0.32879 0.54182 0.0
C50 C 0.32658 0.31886 0.48446 0.0
C51 C 0.33693 0.33272 0.42932 0.0
C52 C 0.0434 0.97194 0.41479 0.0
N53 N 0.06465 0.06307 0.50792 0.0
C54 C 0.09716 0.05488 0.50517 0.0
C55 C 0.12134 0.07945 0.50482 0.0
C56 C 0.11199 0.11276 0.50764 0.0
C57 C 0.07826 0.12044 0.5106 0.0
C58 C 0.05494 0.09514 0.51059 0.0
Zn59 Zn 0.02932 0.02694 0.5074 0.0
C60 C 0.97443 0.03998 0.41838 0.0
N61 N 0.95518 0.9517 0.50575 0.0
C62 C 0.9633 0.91931 0.50916 0.0
C63 C 0.92308 0.96138 0.50275 0.0
C64 C 0.89769 0.93817 0.5028 0.0
C65 C 0.90529 0.90462 0.5067 0.0
C66 C 0.9386 0.89525 0.51009 0.0
Zn67 Zn 0.99112 0.9873 0.50615 0.0
O68 O 0.05431 0.99968 0.43593 0.0
C69 C 0.04624 0.97447 0.59517 0.0
O70 O 0.01671 0.9607 0.43578 0.0
H71 H 0.91708 0.98724 0.50072 0.0
H72 H 0.10437 0.02924 0.50322 0.0
H73 H 0.98895 0.91211 0.51135 0.0
O74 O 0.05649 1.00159 0.57518 0.0
O75 O 0.01883 0.96268 0.57483 0.0
H76 H 0.02898 0.10114 0.51242 0.0
O77 O 0.966 0.01439 0.57641 0.0
O78 O 1.00356 0.05337 0.579 0.0
O79 O 0.96427 0.01266 0.43754 0.0
O80 O 1.00163 0.05179 0.43948 0.0
C81 C 0.97664 0.04195 0.59868 0.0
H82 H 0.14708 0.07243 0.50309 0.0
H83 H 0.06991 0.14576 0.51192 0.0
H84 H 0.87232 0.94646 0.50099 0.0
H85 H 0.94546 0.86959 0.51277 0.0
C86 C 0.47867 0.47004 0.91066 0.0
N87 N 0.56553 0.45235 0.01225 0.0
C88 C 0.55626 0.42014 0.01171 0.0
C89 C 0.57995 0.39534 0.01456 0.0
C90 C 0.6136 0.40368 0.01788 0.0
C91 C 0.6225 0.43713 0.01815 0.0
C92 C 0.59794 0.46118 0.01542 0.0
Zn93 Zn 0.52958 0.48757 0.00793 0.0
C94 C 0.54617 0.53969 0.9204 0.0
N95 N 0.45377 0.56055 -0.00081 0.0
C96 C 0.42192 0.5503 0.99142 0.0
C97 C 0.46146 0.59319 0.0045 0.0
C98 C 0.43659 0.61695 0.0024 0.0
C99 C 0.40355 0.60701 0.99407 0.0
C100 C 0.39637 0.57319 0.98841 0.0
Zn101 Zn 0.49022 0.52575 0.00347 0.0
O102 O 0.50535 0.45984 0.93496 0.0
C103 C 0.47366 0.47355 0.09099 0.0
O104 O 0.4668 0.49749 0.92992 0.0
H105 H 0.48693 0.60083 0.01042 0.0
H106 H 0.5304 0.4136 0.00886 0.0
H107 H 0.41626 0.52426 0.98781 0.0
O108 O 0.50163 0.46276 0.07391 0.0
O109 O 0.46272 0.50007 0.06909 0.0
H110 H 0.60478 0.48694 0.01592 0.0
O111 O 0.51434 0.55326 0.07702 0.0
O112 O 0.55332 0.51592 0.08076 0.0
O113 O 0.5184 0.5509 0.93795 0.0
O114 O 0.5568 0.51295 0.94191 0.0
C115 C 0.54128 0.5432 0.10063 0.0
H116 H 0.57198 0.36987 0.01326 0.0
H117 H 0.64813 0.44466 0.02122 0.0
H118 H 0.44317 0.64281 0.00648 0.0
H119 H 0.37118 0.56449 0.98274 0.0
H120 H 0.24538 0.26475 0.39132 0.0
H121 H 0.24697 0.27734 0.59181 0.0
H122 H 0.20907 0.21685 0.3978 0.0
H123 H 0.21105 0.2292 0.5988 0.0
H124 H 0.11381 0.17041 0.57821 0.0
H125 H 0.15341 0.2154 0.57377 0.0
H126 H 0.2072 0.16018 0.43242 0.0
H127 H 0.16695 0.11551 0.43552 0.0
C128 C 0.23797 0.25708 0.43673 0.0
C129 C 0.24826 0.275 0.49098 0.0
C130 C 0.21743 0.22958 0.44056 0.0
C131 C 0.20693 0.21938 0.49882 0.0
C132 C 0.21819 0.23679 0.55319 0.0
C133 C 0.23879 0.26423 0.54929 0.0
C134 C 0.13401 0.16792 0.54598 0.0
C135 C 0.13712 0.13944 0.50699 0.0
C136 C 0.15692 0.19355 0.54395 0.0
C137 C 0.18348 0.19139 0.50273 0.0
C138 C 0.18685 0.16274 0.46427 0.0
C139 C 0.16398 0.13701 0.46649 0.0
H140 H 0.27748 0.7815 0.01864 0.0
H141 H 0.21191 0.70065 0.96693 0.0
H142 H 0.32431 0.74403 0.01554 0.0
H143 H 0.25855 0.6628 0.96626 0.0
H144 H 0.35151 0.6081 0.91173 0.0
H145 H 0.30627 0.64748 0.90956 0.0
H146 H 0.34901 0.70047 0.07038 0.0
H147 H 0.39469 0.66145 0.07129 0.0
C148 C 0.27304 0.75573 0.00634 0.0
C149 C 0.241 0.74406 0.99171 0.0
C150 C 0.29991 0.73414 0.0052 0.0
C151 C 0.29534 0.70034 0.99034 0.0
C152 C 0.26319 0.68873 0.97654 0.0
C153 C 0.23642 0.71034 0.97723 0.0
C154 C 0.35118 0.62817 0.94661 0.0
C155 C 0.37658 0.63164 0.99178 0.0
C156 C 0.32519 0.65071 0.94554 0.0
C157 C 0.32378 0.67712 0.99002 0.0
C158 C 0.34946 0.68076 0.03481 0.0
C159 C 0.37563 0.65836 0.0355 0.0
H160 H 0.71253 0.81282 0.51108 0.0
H161 H 0.77813 0.73352 0.55671 0.0
H162 H 0.7597 0.84933 0.50082 0.0
H163 H 0.82556 0.76948 0.54379 0.0
H164 H 0.89954 0.85384 0.58532 0.0
H165 H 0.85362 0.81533 0.59207 0.0
H166 H 0.80492 0.86054 0.43671 0.0
H167 H 0.85041 0.89953 0.43146 0.0
C168 C 0.73714 0.80307 0.51765 0.0
C169 C 0.74166 0.77013 0.53295 0.0
C170 C 0.76423 0.82391 0.51151 0.0
C171 C 0.79659 0.81233 0.52077 0.0
C172 C 0.80106 0.77936 0.53667 0.0
C173 C 0.77389 0.75859 0.54335 0.0
C174 C 0.87913 0.85527 0.55231 0.0
C175 C 0.87845 0.87979 0.50813 0.0
C176 C 0.85281 0.83316 0.556 0.0
C177 C 0.82536 0.83486 0.51515 0.0
C178 C 0.82523 0.8589 0.46985 0.0
C179 C 0.85136 0.88119 0.46662 0.0
H180 H 0.74408 0.24186 0.11506 0.0
H181 H 0.75231 0.24943 0.91621 0.0
H182 H 0.70886 0.29076 0.11953 0.0
H183 H 0.71667 0.29802 0.92005 0.0
H184 H 0.67214 0.39976 0.95604 0.0
H185 H 0.71288 0.35554 0.95771 0.0
H186 H 0.65276 0.30373 0.08591 0.0
H187 H 0.61268 0.34832 0.08583 0.0
C188 C 0.73828 0.2541 0.07237 0.0
C189 C 0.7502 0.24164 0.01511 0.0
C190 C 0.71807 0.28196 0.0748 0.0
C191 C 0.70965 0.29807 0.02004 0.0
C192 C 0.72281 0.28631 0.96311 0.0
C193 C 0.74298 0.25841 0.96075 0.0
C194 C 0.66788 0.37914 0.98526 0.0
C195 C 0.6391 0.37749 0.02061 0.0
C196 C 0.69106 0.35367 0.98573 0.0
C197 C 0.68604 0.32607 0.02181 0.0
C198 C 0.65757 0.32478 0.0581 0.0
C199 C 0.63439 0.35016 0.05747 0.0
H200 H 0.09346 0.86509 0.07586 0.0
H201 H 0.18867 0.87906 0.16645 0.0
H202 H 0.06673 0.89003 0.16689 0.0
H203 H 0.16179 0.9037 0.25869 0.0
H204 H 0.10245 0.98726 0.36316 0.0
H205 H 0.13164 0.95616 0.28152 0.0
H206 H 0.05534 0.88172 0.27696 0.0
H207 H 0.0259 0.91292 0.35787 0.0
C208 C 0.10861 0.87319 0.11572 0.0
C209 C 0.14311 0.87042 0.11406 0.0
C210 C 0.0933 0.88724 0.16803 0.0
C211 C 0.11217 0.89895 0.21986 0.0
C212 C 0.14666 0.89518 0.21912 0.0
C213 C 0.16201 0.88084 0.16673 0.0
C214 C 0.09194 0.96422 0.34486 0.0
C215 C 0.06168 0.95273 0.36658 0.0
C216 C 0.10884 0.94626 0.29852 0.0
C217 C 0.09577 0.91652 0.2728 0.0
C218 C 0.06585 0.90474 0.29542 0.0
C219 C 0.04902 0.92261 0.34184 0.0
H220 H 0.6539 0.58786 0.59557 0.0
H221 H 0.64264 0.68297 0.69021 0.0
H222 H 0.62893 0.56144 0.683 0.0
H223 H 0.61796 0.65643 0.7787 0.0
H224 H 0.60493 0.52096 0.86967 0.0
H225 H 0.63702 0.54969 0.79376 0.0
H226 H 0.56456 0.62753 0.79365 0.0
H227 H 0.53257 0.59903 0.87014 0.0
C228 C 0.64647 0.60303 0.63562 0.0
C229 C 0.64996 0.63744 0.63607 0.0
C230 C 0.63238 0.5879 0.68585 0.0
C231 C 0.62131 0.60687 0.73758 0.0
C232 C 0.62596 0.64123 0.73912 0.0
C233 C 0.64034 0.65638 0.6889 0.0
C234 C 0.59588 0.54428 0.8537 0.0
C235 C 0.56603 0.55757 0.87556 0.0
C236 C 0.61426 0.56069 0.81015 0.0
C237 C 0.6033 0.59084 0.78769 0.0
C238 C 0.57386 0.60453 0.81064 0.0
C239 C 0.55538 0.58805 0.85403 0.0
H240 H 0.86101 0.08883 0.0938 0.0
H241 H 0.882 0.18464 0.18029 0.0
H242 H 0.88623 0.0626 0.18248 0.0
H243 H 0.90664 0.1583 0.27055 0.0
H244 H 0.98965 0.09805 0.36566 0.0
H245 H 0.95747 0.12706 0.28837 0.0
H246 H 0.88147 0.05253 0.29225 0.0
H247 H 0.91393 0.02312 0.36856 0.0
C248 C 0.87064 0.10425 0.13238 0.0
C249 C 0.86993 0.13875 0.12995 0.0
C250 C 0.88484 0.08924 0.18346 0.0
C251 C 0.89865 0.10836 0.23341 0.0
C252 C 0.89658 0.14292 0.23234 0.0
C253 C 0.88221 0.158 0.1811 0.0
C254 C 0.96604 0.08789 0.35014 0.0
C255 C 0.95452 0.05808 0.37273 0.0
C256 C 0.94744 0.1047 0.3063 0.0
C257 C 0.91691 0.0921 0.28414 0.0
C258 C 0.90508 0.06267 0.30782 0.0
C259 C 0.92368 0.04584 0.35159 0.0
H260 H 0.43223 0.35927 0.56963 0.0
H261 H 0.33675 0.37181 0.65323 0.0
H262 H 0.45849 0.38509 0.66233 0.0
H263 H 0.36313 0.39718 0.74702 0.0
H264 H 0.41964 0.48299 0.85327 0.0
H265 H 0.39175 0.4504 0.77004 0.0
H266 H 0.47022 0.37865 0.77364 0.0
H267 H 0.49839 0.41141 0.85633 0.0
C268 C 0.41693 0.36716 0.60835 0.0
C269 C 0.38246 0.36381 0.60416 0.0
C270 C 0.43198 0.38172 0.66161 0.0
C271 C 0.41286 0.39337 0.71182 0.0
C272 C 0.37845 0.38879 0.70871 0.0
C273 C 0.36338 0.37398 0.65541 0.0
C274 C 0.43092 0.46023 0.83642 0.0
C275 C 0.46138 0.44995 0.86105 0.0
C276 C 0.41477 0.4414 0.78914 0.0
C277 C 0.42877 0.41194 0.76534 0.0
C278 C 0.45897 0.4014 0.79064 0.0
C279 C 0.47508 0.42016 0.83806 0.0
H280 H 0.68419 0.64094 0.35659 0.0
H281 H 0.58923 0.65245 0.44264 0.0
H282 H 0.65732 0.61617 0.26275 0.0
H283 H 0.56248 0.62724 0.34987 0.0
H284 H 0.52142 0.60147 0.15638 0.0
H285 H 0.5499 0.63409 0.23894 0.0
H286 H 0.62895 0.56291 0.23946 0.0
H287 H 0.60077 0.53048 0.15644 0.0
C288 C 0.65756 0.63868 0.35494 0.0
C289 C 0.63878 0.64835 0.4069 0.0
C290 C 0.64222 0.62423 0.30161 0.0
C291 C 0.60781 0.6195 0.29916 0.0
C292 C 0.58897 0.63072 0.35007 0.0
C293 C 0.6043 0.64493 0.40337 0.0
C294 C 0.54493 0.59282 0.17395 0.0
C295 C 0.5587 0.56324 0.15015 0.0
C296 C 0.56121 0.6115 0.22129 0.0
C297 C 0.59168 0.60109 0.24568 0.0
C298 C 0.60573 0.57183 0.22107 0.0
C299 C 0.58941 0.55309 0.1739 0.0
H300 H 0.86369 0.08994 0.92391 0.0
H301 H 0.88659 0.18639 0.85932 0.0
H302 H 0.88995 0.06448 0.83318 0.0
H303 H 0.91229 0.1608 0.76671 0.0
H304 H 0.99373 0.09937 0.66309 0.0
H305 H 0.96253 0.12852 0.74458 0.0
H306 H 0.8845 0.05622 0.72163 0.0
H307 H 0.91586 0.02673 0.64157 0.0
C308 C 0.87407 0.10569 0.88977 0.0
C309 C 0.87341 0.14012 0.89888 0.0
C310 C 0.88887 0.09112 0.83745 0.0
C311 C 0.9033 0.11061 0.79276 0.0
C312 C 0.90169 0.14514 0.80073 0.0
C313 C 0.88671 0.15978 0.85326 0.0
C314 C 0.96988 0.08977 0.67538 0.0
C315 C 0.95748 0.06051 0.64644 0.0
C316 C 0.95188 0.10664 0.72166 0.0
C317 C 0.92111 0.0946 0.73977 0.0
C318 C 0.90836 0.06585 0.70947 0.0
C319 C 0.92635 0.04897 0.66349 0.0
H320 H 0.38013 0.32803 0.32041 0.0
H321 H 0.36688 0.42283 0.41515 0.0
H322 H 0.40397 0.35519 0.23175 0.0
H323 H 0.39099 0.44986 0.32759 0.0
H324 H 0.41442 0.49117 0.14139 0.0
H325 H 0.38274 0.46165 0.21692 0.0
H326 H 0.45665 0.38518 0.21693 0.0
H327 H 0.48818 0.41442 0.14093 0.0
C328 C 0.38184 0.35466 0.32173 0.0
C329 C 0.37195 0.37336 0.37463 0.0
C330 C 0.39571 0.37017 0.27139 0.0
C331 C 0.39955 0.40464 0.27292 0.0
C332 C 0.38816 0.42332 0.32473 0.0
C333 C 0.37459 0.40784 0.37506 0.0
C334 C 0.42385 0.46799 0.15727 0.0
C335 C 0.45398 0.45529 0.13557 0.0
C336 C 0.40571 0.45111 0.20058 0.0
C337 C 0.41721 0.42111 0.22289 0.0
C338 C 0.44693 0.40803 0.20004 0.0
C339 C 0.46515 0.42496 0.15694 0.0
H340 H 0.15841 0.92763 0.92256 0.0
H341 H 0.1424 0.8317 0.83275 0.0
H342 H 0.1327 0.9535 0.83381 0.0
H343 H 0.11708 0.85768 0.74268 0.0
H344 H 0.03219 0.91577 0.64695 0.0
H345 H 0.06472 0.88739 0.7248 0.0
H346 H 0.13862 0.96407 0.72366 0.0
H347 H 0.10594 0.99274 0.64668 0.0
C348 C 0.14979 0.91214 0.88323 0.0
C349 C 0.15212 0.87769 0.88461 0.0
C350 C 0.13528 0.92694 0.8322 0.0
C351 C 0.12267 0.90762 0.78136 0.0
C352 C 0.12623 0.87317 0.78155 0.0
C353 C 0.141 0.85833 0.83267 0.0
C354 C 0.05542 0.92653 0.66318 0.0
C355 C 0.0663 0.95669 0.6411 0.0
C356 C 0.07421 0.9101 0.70735 0.0
C357 C 0.10423 0.92351 0.73041 0.0
C358 C 0.11541 0.95331 0.70731 0.0
C359 C 0.09668 0.96971 0.66315 0.0
loop_
_geom_bond_atom_site_label_1
_geom_bond_atom_site_label_2
_geom_bond_distance
_geom_bond_site_symmetry_2
_ccdc_geom_bond_type
H0 C7 0.929 . S
H1 C10 0.930 . S
H2 C12 0.929 . S
H3 C4 0.969 . S
C4 H3 0.969 . S
C4 O5 1.550 1_554 S
C4 H6 0.973 . S
O5 C4 1.550 1_556 S
O5 C11 1.412 1_556 S
H6 C4 0.973 . S
C7 H0 0.929 . S
C7 C8 1.400 1_554 S
C7 C9 1.364 . S
C8 C7 1.400 1_556 S
C8 C12 1.377 . S
C9 C7 1.364 . S
C9 C10 1.374 . S
C10 H1 0.930 . S
C10 C9 1.374 . S
C10 C11 1.383 . S
C11 O5 1.412 1_554 S
C11 C10 1.383 . S
C11 C12 1.394 1_554 S
C12 H2 0.929 . S
C12 C8 1.377 . S
C12 C11 1.394 1_556 S
H13 C20 0.929 . S
H14 C23 0.930 . S
H15 C25 0.929 . S
H16 C17 0.969 . S
C17 H16 0.969 . S
C17 O18 1.550 . S
C17 H19 0.973 . S
O18 C17 1.550 . S
O18 C24 1.412 . S
H19 C17 0.973 . S
C20 H13 0.929 . S
C20 C21 1.400 . S
C20 C22 1.364 . S
C21 C20 1.400 . S
C21 C25 1.377 . S
C22 C20 1.364 . S
C22 C23 1.374 . S
C23 H14 0.930 . S
C23 C22 1.374 . S
C23 C24 1.383 . S
C24 O18 1.412 . S
C24 C23 1.383 . S
C24 C25 1.394 . S
C25 H15 0.929 . S
C25 C21 1.377 . S
C25 C24 1.394 . S
H26 C33 0.929 . S
H27 C36 0.930 . S
H28 C38 0.929 . S
H29 C30 0.969 . S
C30 H29 0.969 . S
C30 O31 1.550 1_556 S
C30 H32 0.973 . S
O31 C30 1.550 1_554 S
O31 C37 1.412 . S
H32 C30 0.973 . S
C33 H26 0.929 . S
C33 C34 1.400 . S
C33 C35 1.364 1_554 S
C34 C33 1.400 . S
C34 C38 1.377 . S
C35 C33 1.364 1_556 S
C35 C36 1.374 . S
C36 H27 0.930 . S
C36 C35 1.374 . S
C36 C37 1.383 1_556 S
C37 O31 1.412 . S
C37 C36 1.383 1_554 S
C37 C38 1.394 . S
C38 H28 0.929 . S
C38 C34 1.377 . S
C38 C37 1.394 . S
H39 C46 0.929 . S
H40 C49 0.930 . S
H41 C51 0.929 . S
H42 C43 0.969 . S
C43 H42 0.969 . S
C43 O44 1.550 . S
C43 H45 0.973 . S
O44 C43 1.550 . S
O44 C50 1.412 . S
H45 C43 0.973 . S
C46 H39 0.929 . S
C46 C47 1.400 . S
C46 C48 1.364 . S
C47 C46 1.400 . S
C47 C51 1.377 . S
C48 C46 1.364 . S
C48 C49 1.374 . S
C49 H40 0.930 . S
C49 C48 1.374 . S
C49 C50 1.383 . S
C50 O44 1.412 . S
C50 C49 1.383 . S
C50 C51 1.394 . S
C51 H41 0.929 . S
C51 C47 1.377 . S
C51 C50 1.394 . S
C52 O68 1.251 . S
C52 O70 1.254 . S
N53 C54 1.333 . S
N53 C58 1.307 . S
N53 Zn59 2.020 . S
C54 N53 1.333 . S
C54 C55 1.379 . S
C54 H72 0.952 . S
C55 C54 1.379 . S
C55 C56 1.390 . S
C55 H82 0.949 . S
C56 C55 1.390 . S
C56 C57 1.357 . S
C57 C56 1.357 . S
C57 C58 1.370 . S
C57 H83 0.950 . S
C58 N53 1.307 . S
C58 C57 1.370 . S
C58 H76 0.948 . S
Zn59 N53 2.020 . S
Zn59 O68 2.039 1_545 S
Zn59 O74 2.034 1_545 S
Zn59 O78 2.025 1_455 S
Zn59 O80 2.024 1_455 S
C60 O79 1.246 . S
C60 O80 1.249 . S
N61 C62 1.307 . S
N61 C63 1.333 . S
N61 Zn67 2.020 . S
C62 N61 1.307 . S
C62 C66 1.370 . S
C62 H73 0.948 . S
C63 N61 1.333 . S
C63 C64 1.379 . S
C63 H71 0.952 . S
C64 C63 1.379 . S
C64 C65 1.390 . S
C64 H84 0.949 . S
C65 C64 1.390 . S
C65 C66 1.357 . S
C66 C62 1.370 . S
C66 C65 1.357 . S
C66 H85 0.950 . S
Zn67 N61 2.020 . S
Zn67 O70 2.025 1_655 S
Zn67 O75 2.024 1_655 S
Zn67 O77 2.039 1_565 S
Zn67 O79 2.034 1_565 S
O68 C52 1.251 . S
O68 Zn59 2.039 1_565 S
C69 O74 1.246 . S
C69 O75 1.249 . S
O70 C52 1.254 . S
O70 Zn67 2.025 1_455 S
H71 C63 0.952 . S
H72 C54 0.952 . S
H73 C62 0.948 . S
O74 Zn59 2.034 1_565 S
O74 C69 1.246 . S
O75 Zn67 2.024 1_455 S
O75 C69 1.249 . S
H76 C58 0.948 . S
O77 Zn67 2.039 1_545 S
O77 C81 1.251 . S
O78 Zn59 2.025 1_655 S
O78 C81 1.254 . S
O79 C60 1.246 . S
O79 Zn67 2.034 1_545 S
O80 Zn59 2.024 1_655 S
O80 C60 1.249 . S
C81 O77 1.251 . S
C81 O78 1.254 . S
H82 C55 0.949 . S
H83 C57 0.950 . S
H84 C64 0.949 . S
H85 C66 0.950 . S
C86 O102 1.251 . S
C86 O104 1.254 . S
N87 C88 1.333 1_554 S
N87 C92 1.307 . S
N87 Zn93 2.020 . S
C88 N87 1.333 1_556 S
C88 C89 1.379 . S
C88 H106 0.952 . S
C89 C88 1.379 . S
C89 C90 1.390 1_556 S
C89 H116 0.949 . S
C90 C89 1.390 1_554 S
C90 C91 1.357 . S
C91 C90 1.357 . S
C91 C92 1.370 . S
C91 H117 0.950 . S
C92 N87 1.307 . S
C92 C91 1.370 . S
C92 H110 0.948 . S
Zn93 N87 2.020 . S
Zn93 O102 2.039 1_554 S
Zn93 O108 2.034 . S
Zn93 O112 2.025 . S
Zn93 O114 2.024 1_554 S
C94 O113 1.246 . S
C94 O114 1.249 . S
N95 C96 1.307 1_554 S
N95 C97 1.333 . S
N95 Zn101 2.020 . S
C96 N95 1.307 1_556 S
C96 C100 1.370 . S
C96 H107 0.948 . S
C97 N95 1.333 . S
C97 C98 1.379 . S
C97 H105 0.952 . S
C98 C97 1.379 . S
C98 C99 1.390 . S
C98 H118 0.949 . S
C99 C98 1.390 . S
C99 C100 1.356 1_554 S
C100 C96 1.370 . S
C100 C99 1.356 1_556 S
C100 H119 0.951 . S
Zn101 N95 2.020 . S
Zn101 O104 2.025 1_554 S
Zn101 O109 2.024 . S
Zn101 O111 2.039 . S
Zn101 O113 2.034 1_554 S
O102 C86 1.251 . S
O102 Zn93 2.039 1_556 S
C103 O108 1.246 . S
C103 O109 1.249 . S
O104 C86 1.254 . S
O104 Zn101 2.025 1_556 S
H105 C97 0.952 . S
H106 C88 0.952 . S
H107 C96 0.948 . S
O108 Zn93 2.034 . S
O108 C103 1.246 . S
O109 Zn101 2.024 . S
O109 C103 1.249 . S
H110 C92 0.948 . S
O111 Zn101 2.039 . S
O111 C115 1.251 . S
O112 Zn93 2.025 . S
O112 C115 1.254 . S
O113 C94 1.246 . S
O113 Zn101 2.034 1_556 S
O114 Zn93 2.024 1_556 S
O114 C94 1.249 . S
C115 O111 1.251 . S
C115 O112 1.254 . S
H116 C89 0.949 . S
H117 C91 0.950 . S
H118 C98 0.949 . S
H119 C100 0.951 . S
H120 C128 0.950 . S
H121 C133 0.950 . S
H122 C130 0.950 . S
H123 C132 0.950 . S
H124 C134 0.950 . S
H125 C136 0.950 . S
H126 C138 0.950 . S
H127 C139 0.950 . S
C128 H120 0.950 . S
C128 C129 1.386 . S
C128 C130 1.391 . S
C129 C128 1.386 . S
C129 C133 1.393 . S
C130 H122 0.950 . S
C130 C128 1.391 . S
C130 C131 1.400 . S
C131 C130 1.400 . S
C131 C132 1.398 . S
C131 C137 1.491 . S
C132 H123 0.950 . S
C132 C131 1.398 . S
C132 C133 1.391 . S
C133 H121 0.950 . S
C133 C129 1.393 . S
C133 C132 1.391 . S
C134 H124 0.950 . S
C134 C135 1.386 . S
C134 C136 1.391 . S
C135 C134 1.386 . S
C135 C139 1.393 . S
C136 H125 0.950 . S
C136 C134 1.391 . S
C136 C137 1.400 . S
C137 C131 1.491 . S
C137 C136 1.400 . S
C137 C138 1.398 . S
C138 H126 0.950 . S
C138 C137 1.398 . S
C138 C139 1.391 . S
C139 H127 0.950 . S
C139 C135 1.393 . S
C139 C138 1.391 . S
H140 C148 0.950 . S
H141 C153 0.950 . S
H142 C150 0.950 . S
H143 C152 0.950 . S
H144 C154 0.950 . S
H145 C156 0.950 . S
H146 C158 0.950 . S
H147 C159 0.950 . S
C148 H140 0.950 . S
C148 C149 1.386 . S
C148 C150 1.391 . S
C149 C148 1.386 . S
C149 C153 1.393 1_554 S
C150 H142 0.950 . S
C150 C148 1.391 . S
C150 C151 1.400 . S
C151 C150 1.400 . S
C151 C152 1.398 1_554 S
C151 C157 1.491 . S
C152 H143 0.950 . S
C152 C151 1.398 1_556 S
C152 C153 1.391 . S
C153 H141 0.950 . S
C153 C149 1.393 1_556 S
C153 C152 1.391 . S
C154 H144 0.950 . S
C154 C155 1.386 1_556 S
C154 C156 1.391 . S
C155 C154 1.386 1_554 S
C155 C159 1.393 . S
C156 H145 0.950 . S
C156 C154 1.391 . S
C156 C157 1.400 1_556 S
C157 C151 1.491 . S
C157 C156 1.400 1_554 S
C157 C158 1.398 . S
C158 H146 0.950 . S
C158 C157 1.398 . S
C158 C159 1.391 . S
C159 H147 0.950 . S
C159 C155 1.393 . S
C159 C158 1.391 . S
H160 C168 0.950 . S
H161 C173 0.950 . S
H162 C170 0.950 . S
H163 C172 0.950 . S
H164 C174 0.950 . S
H165 C176 0.950 . S
H166 C178 0.950 . S
H167 C179 0.950 . S
C168 H160 0.950 . S
C168 C169 1.386 . S
C168 C170 1.391 . S
C169 C168 1.386 . S
C169 C173 1.393 . S
C170 H162 0.950 . S
C170 C168 1.391 . S
C170 C171 1.400 . S
C171 C170 1.400 . S
C171 C172 1.398 . S
C171 C177 1.491 . S
C172 H163 0.950 . S
C172 C171 1.398 . S
C172 C173 1.391 . S
C173 H161 0.950 . S
C173 C169 1.393 . S
C173 C172 1.391 . S
C174 H164 0.950 . S
C174 C175 1.386 . S
C174 C176 1.391 . S
C175 C174 1.386 . S
C175 C179 1.393 . S
C176 H165 0.950 . S
C176 C174 1.391 . S
C176 C177 1.400 . S
C177 C171 1.491 . S
C177 C176 1.400 . S
C177 C178 1.398 . S
C178 H166 0.950 . S
C178 C177 1.398 . S
C178 C179 1.391 . S
C179 H167 0.950 . S
C179 C175 1.393 . S
C179 C178 1.391 . S
H180 C188 0.950 . S
H181 C193 0.950 . S
H182 C190 0.950 . S
H183 C192 0.950 . S
H184 C194 0.950 . S
H185 C196 0.950 . S
H186 C198 0.950 . S
H187 C199 0.950 . S
C188 H180 0.950 . S
C188 C189 1.390 . S
C188 C190 1.391 . S
C189 C188 1.390 . S
C189 C193 1.389 1_554 S
C190 H182 0.950 . S
C190 C188 1.391 . S
C190 C191 1.400 . S
C191 C190 1.400 . S
C191 C192 1.398 1_554 S
C191 C197 1.491 1_554 S
C192 H183 0.950 . S
C192 C191 1.398 1_556 S
C192 C193 1.391 . S
C193 H181 0.950 . S
C193 C189 1.389 1_556 S
C193 C192 1.391 . S
C194 H184 0.950 . S
C194 C195 1.384 1_556 S
C194 C196 1.391 . S
C195 C194 1.384 1_554 S
C195 C199 1.394 . S
C196 H185 0.950 . S
C196 C194 1.391 . S
C196 C197 1.400 . S
C197 C191 1.491 1_556 S
C197 C196 1.400 . S
C197 C198 1.399 1_556 S
C198 H186 0.950 . S
C198 C197 1.399 1_554 S
C198 C199 1.391 . S
C199 H187 0.950 . S
C199 C195 1.394 . S
C199 C198 1.391 . S
H200 C208 0.950 . S
H201 C213 0.950 . S
H202 C210 0.950 . S
H203 C212 0.950 . S
H204 C214 0.950 . S
H205 C216 0.950 . S
H206 C218 0.950 . S
H207 C219 0.950 . S
C208 H200 0.950 . S
C208 C209 1.386 . S
C208 C210 1.391 . S
C209 C208 1.386 . S
C209 C213 1.393 . S
C210 H202 0.950 . S
C210 C208 1.391 . S
C210 C211 1.400 . S
C211 C210 1.400 . S
C211 C212 1.398 . S
C211 C217 1.491 . S
C212 H203 0.950 . S
C212 C211 1.398 . S
C212 C213 1.391 . S
C213 H201 0.950 . S
C213 C209 1.393 . S
C213 C212 1.391 . S
C214 H204 0.950 . S
C214 C215 1.386 . S
C214 C216 1.391 . S
C215 C214 1.386 . S
C215 C219 1.393 . S
C216 H205 0.950 . S
C216 C214 1.391 . S
C216 C217 1.400 . S
C217 C211 1.491 . S
C217 C216 1.400 . S
C217 C218 1.398 . S
C218 H206 0.950 . S
C218 C217 1.398 . S
C218 C219 1.391 . S
C219 H207 0.950 . S
C219 C215 1.393 . S
C219 C218 1.391 . S
H220 C228 0.950 . S
H221 C233 0.950 . S
H222 C230 0.950 . S
H223 C232 0.950 . S
H224 C234 0.950 . S
H225 C236 0.950 . S
H226 C238 0.950 . S
H227 C239 0.950 . S
C228 H220 0.950 . S
C228 C229 1.386 . S
C228 C230 1.391 . S
C229 C228 1.386 . S
C229 C233 1.393 . S
C230 H222 0.950 . S
C230 C228 1.391 . S
C230 C231 1.400 . S
C231 C230 1.400 . S
C231 C232 1.398 . S
C231 C237 1.491 . S
C232 H223 0.950 . S
C232 C231 1.398 . S
C232 C233 1.391 . S
C233 H221 0.950 . S
C233 C229 1.393 . S
C233 C232 1.391 . S
C234 H224 0.950 . S
C234 C235 1.386 . S
C234 C236 1.391 . S
C235 C234 1.386 . S
C235 C239 1.393 . S
C236 H225 0.950 . S
C236 C234 1.391 . S
C236 C237 1.400 . S
C237 C231 1.491 . S
C237 C236 1.400 . S
C237 C238 1.398 . S
C238 H226 0.950 . S
C238 C237 1.398 . S
C238 C239 1.391 . S
C239 H227 0.950 . S
C239 C235 1.393 . S
C239 C238 1.391 . S
H240 C248 0.950 . S
H241 C253 0.950 . S
H242 C250 0.950 . S
H243 C252 0.950 . S
H244 C254 0.950 . S
H245 C256 0.950 . S
H246 C258 0.950 . S
H247 C259 0.950 . S
C248 H240 0.950 . S
C248 C249 1.386 . S
C248 C250 1.391 . S
C249 C248 1.386 . S
C249 C253 1.393 . S
C250 H242 0.950 . S
C250 C248 1.391 . S
C250 C251 1.400 . S
C251 C250 1.400 . S
C251 C252 1.398 . S
C251 C257 1.491 . S
C252 H243 0.950 . S
C252 C251 1.398 . S
C252 C253 1.391 . S
C253 H241 0.950 . S
C253 C249 1.393 . S
C253 C252 1.391 . S
C254 H244 0.950 . S
C254 C255 1.386 . S
C254 C256 1.391 . S
C255 C254 1.386 . S
C255 C259 1.393 . S
C256 H245 0.950 . S
C256 C254 1.391 . S
C256 C257 1.400 . S
C257 C251 1.491 . S
C257 C256 1.400 . S
C257 C258 1.398 . S
C258 H246 0.950 . S
C258 C257 1.398 . S
C258 C259 1.391 . S
C259 H247 0.950 . S
C259 C255 1.393 . S
C259 C258 1.391 . S
H260 C268 0.950 . S
H261 C273 0.950 . S
H262 C270 0.950 . S
H263 C272 0.950 . S
H264 C274 0.950 . S
H265 C276 0.950 . S
H266 C278 0.950 . S
H267 C279 0.950 . S
C268 H260 0.950 . S
C268 C269 1.386 . S
C268 C270 1.391 . S
C269 C268 1.386 . S
C269 C273 1.393 . S
C270 H262 0.950 . S
C270 C268 1.391 . S
C270 C271 1.400 . S
C271 C270 1.400 . S
C271 C272 1.398 . S
C271 C277 1.491 . S
C272 H263 0.950 . S
C272 C271 1.398 . S
C272 C273 1.391 . S
C273 H261 0.950 . S
C273 C269 1.393 . S
C273 C272 1.391 . S
C274 H264 0.950 . S
C274 C275 1.386 . S
C274 C276 1.391 . S
C275 C274 1.386 . S
C275 C279 1.393 . S
C276 H265 0.950 . S
C276 C274 1.391 . S
C276 C277 1.400 . S
C277 C271 1.491 . S
C277 C276 1.400 . S
C277 C278 1.398 . S
C278 H266 0.950 . S
C278 C277 1.398 . S
C278 C279 1.391 . S
C279 H267 0.950 . S
C279 C275 1.393 . S
C279 C278 1.391 . S
H280 C288 0.950 . S
H281 C293 0.950 . S
H282 C290 0.950 . S
H283 C292 0.950 . S
H284 C294 0.950 . S
H285 C296 0.950 . S
H286 C298 0.950 . S
H287 C299 0.950 . S
C288 H280 0.950 . S
C288 C289 1.386 . S
C288 C290 1.391 . S
C289 C288 1.386 . S
C289 C293 1.393 . S
C290 H282 0.950 . S
C290 C288 1.391 . S
C290 C291 1.400 . S
C291 C290 1.400 . S
C291 C292 1.398 . S
C291 C297 1.491 . S
C292 H283 0.950 . S
C292 C291 1.398 . S
C292 C293 1.391 . S
C293 H281 0.950 . S
C293 C289 1.393 . S
C293 C292 1.391 . S
C294 H284 0.950 . S
C294 C295 1.386 . S
C294 C296 1.391 . S
C295 C294 1.386 . S
C295 C299 1.393 . S
C296 H285 0.950 . S
C296 C294 1.391 . S
C296 C297 1.400 . S
C297 C291 1.491 . S
C297 C296 1.400 . S
C297 C298 1.398 . S
C298 H286 0.950 . S
C298 C297 1.398 . S
C298 C299 1.391 . S
C299 H287 0.950 . S
C299 C295 1.393 . S
C299 C298 1.391 . S
H300 C308 0.950 . S
H301 C313 0.950 . S
H302 C310 0.950 . S
H303 C312 0.950 . S
H304 C314 0.950 . S
H305 C316 0.950 . S
H306 C318 0.950 . S
H307 C319 0.950 . S
C308 H300 0.950 . S
C308 C309 1.386 . S
C308 C310 1.391 . S
C309 C308 1.386 . S
C309 C313 1.393 . S
C310 H302 0.950 . S
C310 C308 1.391 . S
C310 C311 1.400 . S
C311 C310 1.400 . S
C311 C312 1.398 . S
C311 C317 1.491 . S
C312 H303 0.950 . S
C312 C311 1.398 . S
C312 C313 1.391 . S
C313 H301 0.950 . S
C313 C309 1.393 . S
C313 C312 1.391 . S
C314 H304 0.950 . S
C314 C315 1.386 . S
C314 C316 1.391 . S
C315 C314 1.386 . S
C315 C319 1.393 . S
C316 H305 0.950 . S
C316 C314 1.391 . S
C316 C317 1.400 . S
C317 C311 1.491 . S
C317 C316 1.400 . S
C317 C318 1.398 . S
C318 H306 0.950 . S
C318 C317 1.398 . S
C318 C319 1.391 . S
C319 H307 0.950 . S
C319 C315 1.393 . S
C319 C318 1.391 . S
H320 C328 0.950 . S
H321 C333 0.950 . S
H322 C330 0.950 . S
H323 C332 0.950 . S
H324 C334 0.950 . S
H325 C336 0.950 . S
H326 C338 0.950 . S
H327 C339 0.950 . S
C328 H320 0.950 . S
C328 C329 1.386 . S
C328 C330 1.391 . S
C329 C328 1.386 . S
C329 C333 1.393 . S
C330 H322 0.950 . S
C330 C328 1.391 . S
C330 C331 1.400 . S
C331 C330 1.400 . S
C331 C332 1.398 . S
C331 C337 1.491 . S
C332 H323 0.950 . S
C332 C331 1.398 . S
C332 C333 1.391 . S
C333 H321 0.950 . S
C333 C329 1.393 . S
C333 C332 1.391 . S
C334 H324 0.950 . S
C334 C335 1.386 . S
C334 C336 1.391 . S
C335 C334 1.386 . S
C335 C339 1.393 . S
C336 H325 0.950 . S
C336 C334 1.391 . S
C336 C337 1.400 . S
C337 C331 1.491 . S
C337 C336 1.400 . S
C337 C338 1.398 . S
C338 H326 0.950 . S
C338 C337 1.398 . S
C338 C339 1.391 . S
C339 H327 0.950 . S
C339 C335 1.393 . S
C339 C338 1.391 . S
H340 C348 0.950 . S
H341 C353 0.950 . S
H342 C350 0.950 . S
H343 C352 0.950 . S
H344 C354 0.950 . S
H345 C356 0.950 . S
H346 C358 0.950 . S
H347 C359 0.950 . S
C348 H340 0.950 . S
C348 C349 1.386 . S
C348 C350 1.391 . S
C349 C348 1.386 . S
C349 C353 1.393 . S
C350 H342 0.950 . S
C350 C348 1.391 . S
C350 C351 1.400 . S
C351 C350 1.400 . S
C351 C352 1.398 . S
C351 C357 1.491 . S
C352 H343 0.950 . S
C352 C351 1.398 . S
C352 C353 1.391 . S
C353 H341 0.950 . S
C353 C349 1.393 . S
C353 C352 1.391 . S
C354 H344 0.950 . S
C354 C355 1.386 . S
C354 C356 1.391 . S
C355 C354 1.386 . S
C355 C359 1.393 . S
C356 H345 0.950 . S
C356 C354 1.391 . S
C356 C357 1.400 . S
C357 C351 1.491 . S
C357 C356 1.400 . S
C357 C358 1.398 . S
C358 H346 0.950 . S
C358 C357 1.398 . S
C358 C359 1.391 . S
C359 H347 0.950 . S
C359 C355 1.393 . S
C359 C358 1.391 . S
C135 C56 1.505 . S
C129 C43 1.463 . S
C149 C4 1.447 . S
C155 C99 1.508 . S
C169 C17 1.467 . S
C175 C65 1.505 . S
C189 C30 1.473 1_554 S
C195 C90 1.512 . S
C215 C52 1.511 . S
C209 C9 1.496 . S
C235 C94 1.509 . S
C229 C21 1.507 . S
C249 C34 1.505 . S
C255 C60 1.506 . S
C269 C48 1.484 . S
C275 C86 1.508 . S
C295 C115 1.508 . S
C289 C22 1.484 . S
C315 C81 1.511 . S
C309 C35 1.497 . S
C335 C103 1.509 . S
C329 C47 1.509 . S
C349 C8 1.507 . S
C355 C69 1.510 . S
