# Generated by pormake.
# Topology eea, (3,6)-cn, num edge types: 1
# Building blocks:
#     Node 0, Type 0, BuildingBlock: QEWDON_clean_linker_0, # of connection points: 3
#     Node 1, Type 0, BuildingBlock: QEWDON_clean_linker_0, # of connection points: 3
#     Node 2, Type 0, BuildingBlock: QEWDON_clean_linker_0, # of connection points: 3
#     Node 3, Type 0, BuildingBlock: QEWDON_clean_linker_0, # of connection points: 3
#     Node 4, Type 0, BuildingBlock: QEWDON_clean_linker_0, # of connection points: 3
#     Node 5, Type 0, BuildingBlock: QEWDON_clean_linker_0, # of connection points: 3
#     Node 6, Type 0, BuildingBlock: QEWDON_clean_linker_0, # of connection points: 3
#     Node 7, Type 0, BuildingBlock: QEWDON_clean_linker_0, # of connection points: 3
#     Node 8, Type 0, BuildingBlock: QEWDON_clean_linker_0, # of connection points: 3
#     Node 9, Type 0, BuildingBlock: QEWDON_clean_linker_0, # of connection points: 3
#     Node 10, Type 0, BuildingBlock: QEWDON_clean_linker_0, # of connection points: 3
#     Node 11, Type 0, BuildingBlock: QEWDON_clean_linker_0, # of connection points: 3
#     Node 12, Type 0, BuildingBlock: QEWDON_clean_linker_0, # of connection points: 3
#     Node 13, Type 0, BuildingBlock: QEWDON_clean_linker_0, # of connection points: 3
#     Node 14, Type 0, BuildingBlock: QEWDON_clean_linker_0, # of connection points: 3
#     Node 15, Type 0, BuildingBlock: QEWDON_clean_linker_0, # of connection points: 3
#     Node 16, Type 0, BuildingBlock: QEWDON_clean_linker_0, # of connection points: 3
#     Node 17, Type 0, BuildingBlock: QEWDON_clean_linker_0, # of connection points: 3
#     Node 18, Type 1, BuildingBlock: KUMJIN_clean_sbu_0, # of connection points: 6
#     Node 19, Type 1, BuildingBlock: KUMJIN_clean_sbu_0, # of connection points: 6
#     Node 20, Type 1, BuildingBlock: KUMJIN_clean_sbu_0, # of connection points: 6
#     Node 21, Type 1, BuildingBlock: KUMJIN_clean_sbu_0, # of connection points: 6
#     Node 22, Type 1, BuildingBlock: KUMJIN_clean_sbu_0, # of connection points: 6
#     Node 23, Type 1, BuildingBlock: KUMJIN_clean_sbu_0, # of connection points: 6
#     Node 24, Type 1, BuildingBlock: KUMJIN_clean_sbu_0, # of connection points: 6
#     Node 25, Type 1, BuildingBlock: KUMJIN_clean_sbu_0, # of connection points: 6
#     Node 26, Type 1, BuildingBlock: KUMJIN_clean_sbu_0, # of connection points: 6
#     Edge 27, Type (0, 1), BuildingBlock: CIFDUS_clean_linker_0, # of connection points: 2
#     Edge 28, Type (0, 1), BuildingBlock: CIFDUS_clean_linker_0, # of connection points: 2
#     Edge 29, Type (0, 1), BuildingBlock: CIFDUS_clean_linker_0, # of connection points: 2
#     Edge 30, Type (0, 1), BuildingBlock: CIFDUS_clean_linker_0, # of connection points: 2
#     Edge 31, Type (0, 1), BuildingBlock: CIFDUS_clean_linker_0, # of connection points: 2
#     Edge 32, Type (0, 1), BuildingBlock: CIFDUS_clean_linker_0, # of connection points: 2
#     Edge 33, Type (0, 1), BuildingBlock: CIFDUS_clean_linker_0, # of connection points: 2
#     Edge 34, Type (0, 1), BuildingBlock: CIFDUS_clean_linker_0, # of connection points: 2
#     Edge 35, Type (0, 1), BuildingBlock: CIFDUS_clean_linker_0, # of connection points: 2
#     Edge 36, Type (0, 1), BuildingBlock: CIFDUS_clean_linker_0, # of connection points: 2
#     Edge 37, Type (0, 1), BuildingBlock: CIFDUS_clean_linker_0, # of connection points: 2
#     Edge 38, Type (0, 1), BuildingBlock: CIFDUS_clean_linker_0, # of connection points: 2
#     Edge 39, Type (0, 1), BuildingBlock: CIFDUS_clean_linker_0, # of connection points: 2
#     Edge 40, Type (0, 1), BuildingBlock: CIFDUS_clean_linker_0, # of connection points: 2
#     Edge 41, Type (0, 1), BuildingBlock: CIFDUS_clean_linker_0, # of connection points: 2
#     Edge 42, Type (0, 1), BuildingBlock: CIFDUS_clean_linker_0, # of connection points: 2
#     Edge 43, Type (0, 1), BuildingBlock: CIFDUS_clean_linker_0, # of connection points: 2
#     Edge 44, Type (0, 1), BuildingBlock: CIFDUS_clean_linker_0, # of connection points: 2
#     Edge 45, Type (0, 1), BuildingBlock: CIFDUS_clean_linker_0, # of connection points: 2
#     Edge 46, Type (0, 1), BuildingBlock: CIFDUS_clean_linker_0, # of connection points: 2
#     Edge 47, Type (0, 1), BuildingBlock: CIFDUS_clean_linker_0, # of connection points: 2
#     Edge 48, Type (0, 1), BuildingBlock: CIFDUS_clean_linker_0, # of connection points: 2
#     Edge 49, Type (0, 1), BuildingBlock: CIFDUS_clean_linker_0, # of connection points: 2
#     Edge 50, Type (0, 1), BuildingBlock: CIFDUS_clean_linker_0, # of connection points: 2
#     Edge 51, Type (0, 1), BuildingBlock: CIFDUS_clean_linker_0, # of connection points: 2
#     Edge 52, Type (0, 1), BuildingBlock: CIFDUS_clean_linker_0, # of connection points: 2
#     Edge 53, Type (0, 1), BuildingBlock: CIFDUS_clean_linker_0, # of connection points: 2
#     Edge 54, Type (0, 1), BuildingBlock: CIFDUS_clean_linker_0, # of connection points: 2
#     Edge 55, Type (0, 1), BuildingBlock: CIFDUS_clean_linker_0, # of connection points: 2
#     Edge 56, Type (0, 1), BuildingBlock: CIFDUS_clean_linker_0, # of connection points: 2
#     Edge 57, Type (0, 1), BuildingBlock: CIFDUS_clean_linker_0, # of connection points: 2
#     Edge 58, Type (0, 1), BuildingBlock: CIFDUS_clean_linker_0, # of connection points: 2
#     Edge 59, Type (0, 1), BuildingBlock: CIFDUS_clean_linker_0, # of connection points: 2
#     Edge 60, Type (0, 1), BuildingBlock: CIFDUS_clean_linker_0, # of connection points: 2
#     Edge 61, Type (0, 1), BuildingBlock: CIFDUS_clean_linker_0, # of connection points: 2
#     Edge 62, Type (0, 1), BuildingBlock: CIFDUS_clean_linker_0, # of connection points: 2
#     Edge 63, Type (0, 1), BuildingBlock: CIFDUS_clean_linker_0, # of connection points: 2
#     Edge 64, Type (0, 1), BuildingBlock: CIFDUS_clean_linker_0, # of connection points: 2
#     Edge 65, Type (0, 1), BuildingBlock: CIFDUS_clean_linker_0, # of connection points: 2
#     Edge 66, Type (0, 1), BuildingBlock: CIFDUS_clean_linker_0, # of connection points: 2
#     Edge 67, Type (0, 1), BuildingBlock: CIFDUS_clean_linker_0, # of connection points: 2
#     Edge 68, Type (0, 1), BuildingBlock: CIFDUS_clean_linker_0, # of connection points: 2
#     Edge 69, Type (0, 1), BuildingBlock: CIFDUS_clean_linker_0, # of connection points: 2
#     Edge 70, Type (0, 1), BuildingBlock: CIFDUS_clean_linker_0, # of connection points: 2
#     Edge 71, Type (0, 1), BuildingBlock: CIFDUS_clean_linker_0, # of connection points: 2
#     Edge 72, Type (0, 1), BuildingBlock: CIFDUS_clean_linker_0, # of connection points: 2
#     Edge 73, Type (0, 1), BuildingBlock: CIFDUS_clean_linker_0, # of connection points: 2
#     Edge 74, Type (0, 1), BuildingBlock: CIFDUS_clean_linker_0, # of connection points: 2
#     Edge 75, Type (0, 1), BuildingBlock: CIFDUS_clean_linker_0, # of connection points: 2
#     Edge 76, Type (0, 1), BuildingBlock: CIFDUS_clean_linker_0, # of connection points: 2
#     Edge 77, Type (0, 1), BuildingBlock: CIFDUS_clean_linker_0, # of connection points: 2
#     Edge 78, Type (0, 1), BuildingBlock: CIFDUS_clean_linker_0, # of connection points: 2
#     Edge 79, Type (0, 1), BuildingBlock: CIFDUS_clean_linker_0, # of connection points: 2
#     Edge 80, Type (0, 1), BuildingBlock: CIFDUS_clean_linker_0, # of connection points: 2
# Relax obj value: 0.045
# Max RMSD: 0.215
# Mean RMSD: 0.154
data_MOF--net-eea--node1-KUMJIN_clean_sbu_0--node2-QEWDON_clean_linker_0--edge1-CIFDUS_clean_linker_0
_symmetry_space_group_name_H-M    P1
_symmetry_Int_Tables_number       1
_symmetry_cell_setting            triclinic
loop_
_symmetry_equiv_pos_as_xyz
'x, y, z'
_cell_length_a     50.560997
_cell_length_b     51.90433
_cell_length_c     57.497461
_cell_angle_alpha  90.022327
_cell_angle_beta   89.810383
_cell_angle_gamma 119.7968
loop_
_atom_site_label
_atom_site_type_symbol
_atom_site_fract_x
_atom_site_fract_y
_atom_site_fract_z
_atom_type_partial_charge
H0 H 0.21757 0.12335 0.44936 0.0
C1 C 0.2173 0.10636 0.43822 0.0
C2 C 0.23319 0.09188 0.44488 0.0
C3 C 0.19863 0.09687 0.41851 0.0
H4 H 0.24222 0.05654 0.43773 0.0
C5 C 0.23102 0.06835 0.43146 0.0
C6 C 0.21356 0.05925 0.41096 0.0
C7 C 0.19753 0.07399 0.40462 0.0
C8 C 0.17563 0.10624 0.41528 0.0
H9 H 0.18324 0.06724 0.38931 0.0
C10 C 0.18375 0.13594 0.41043 0.0
C11 C 0.16086 0.14381 0.40799 0.0
C12 C 0.1448 0.08482 0.41821 0.0
H13 H 0.13818 0.06199 0.42221 0.0
C14 C 0.12231 0.09272 0.41662 0.0
H15 H 0.2075 0.15244 0.40788 0.0
C16 C 0.1302 0.12192 0.41164 0.0
H17 H 0.11214 0.12735 0.41053 0.0
H18 H 0.09863 0.07612 0.41923 0.0
H19 H 0.89086 0.10331 0.43018 0.0
C20 C 0.91029 0.12158 0.42166 0.0
C21 C 0.92154 0.15067 0.42998 0.0
C22 C 0.9249 0.1157 0.40333 0.0
H23 H 0.95671 0.1965 0.42619 0.0
C24 C 0.9477 0.17415 0.41956 0.0
C25 C 0.9624 0.16879 0.40082 0.0
C26 C 0.95056 0.13952 0.39279 0.0
C27 C 0.91475 0.08462 0.39604 0.0
H28 H 0.9614 0.13521 0.37818 0.0
C29 C 0.88354 0.06331 0.39356 0.0
C30 C 0.87481 0.03438 0.3859 0.0
C31 C 0.93675 0.07616 0.3915 0.0
H32 H 0.9608 0.09173 0.39377 0.0
C33 C 0.92805 0.04744 0.38422 0.0
H34 H 0.86623 0.0694 0.3968 0.0
C35 C 0.89734 0.02673 0.38128 0.0
H36 H 0.89109 0.00458 0.37544 0.0
H37 H 0.9452 0.04124 0.38076 0.0
H38 H 0.9223 0.79447 0.41772 0.0
C39 C 0.90309 0.79552 0.41056 0.0
C40 C 0.87504 0.7814 0.42266 0.0
C41 C 0.9067 0.81197 0.39007 0.0
H42 H 0.82887 0.77368 0.42365 0.0
C43 C 0.85034 0.784 0.41426 0.0
C44 C 0.85327 0.80014 0.39394 0.0
C45 C 0.88107 0.81338 0.38177 0.0
C46 C 0.93721 0.82907 0.37796 0.0
H47 H 0.88242 0.82496 0.36578 0.0
C48 C 0.96007 0.82066 0.37906 0.0
C49 C 0.98855 0.83764 0.36755 0.0
C50 C 0.94395 0.85497 0.36537 0.0
H51 H 0.92838 0.86357 0.36495 0.0
C52 C 0.97118 0.87079 0.3532 0.0
H53 H 0.956 0.80129 0.38893 0.0
C54 C 0.99306 0.86209 0.35401 0.0
H55 H 0.0138 0.87487 0.34404 0.0
H56 H 0.97551 0.8902 0.34323 0.0
H57 H 0.14252 0.22707 0.60905 0.0
C58 C 0.12355 0.22785 0.61716 0.0
C59 C 0.11217 0.24499 0.60693 0.0
C60 C 0.10937 0.21007 0.63679 0.0
H61 H 0.07788 0.25796 0.60915 0.0
C62 C 0.08668 0.24479 0.61703 0.0
C63 C 0.07227 0.22768 0.63699 0.0
C64 C 0.08369 0.21016 0.64661 0.0
C65 C 0.11928 0.18894 0.64521 0.0
H66 H 0.07271 0.19668 0.66182 0.0
C67 C 0.1505 0.19738 0.64774 0.0
C68 C 0.15937 0.17613 0.65357 0.0
C69 C 0.09706 0.1592 0.64901 0.0
H70 H 0.07308 0.1519 0.6469 0.0
C71 C 0.10546 0.13815 0.65443 0.0
H72 H 0.16758 0.22045 0.64531 0.0
C73 C 0.1361 0.1463 0.65633 0.0
H74 H 0.14126 0.12875 0.65951 0.0
H75 H 0.08806 0.11514 0.65669 0.0
H76 H 0.8095 0.92545 0.59165 0.0
C77 C 0.8075 0.90535 0.59908 0.0
C78 C 0.78753 0.87768 0.58907 0.0
C79 C 0.82622 0.90734 0.61777 0.0
H80 H 0.77039 0.83057 0.59066 0.0
C81 C 0.78574 0.85184 0.59848 0.0
C82 C 0.80471 0.8533 0.61688 0.0
C83 C 0.82475 0.88129 0.6265 0.0
C84 C 0.85015 0.93679 0.62624 0.0
H85 H 0.84024 0.88311 0.64021 0.0
C86 C 0.84314 0.95844 0.63433 0.0
C87 C 0.86644 0.98575 0.64309 0.0
C88 C 0.8806 0.94318 0.62622 0.0
H89 H 0.88657 0.92708 0.61982 0.0
C90 C 0.9037 0.97043 0.63421 0.0
H91 H 0.81968 0.95361 0.63466 0.0
C92 C 0.89673 0.99151 0.64266 0.0
H93 H 0.91513 0.01244 0.64896 0.0
H94 H 0.92711 0.97516 0.63401 0.0
H95 H 0.11031 0.88439 0.61039 0.0
C96 C 0.13025 0.90289 0.618 0.0
C97 C 0.15796 0.91657 0.60541 0.0
C98 C 0.12836 0.91322 0.64034 0.0
H99 H 0.20363 0.95383 0.60449 0.0
C100 C 0.18322 0.94174 0.61493 0.0
C101 C 0.18236 0.95178 0.63744 0.0
C102 C 0.15512 0.9366 0.6502 0.0
C103 C 0.09871 0.90115 0.65337 0.0
H104 H 0.15474 0.94318 0.668 0.0
C105 C 0.07504 0.87115 0.65167 0.0
C106 C 0.04773 0.86075 0.66473 0.0
C107 C 0.09398 0.92047 0.66783 0.0
H108 H 0.11055 0.94389 0.66884 0.0
C109 C 0.06779 0.91011 0.6813 0.0
H110 H 0.07775 0.85605 0.64025 0.0
C111 C 0.04512 0.88054 0.68008 0.0
H112 H 0.02537 0.87328 0.69123 0.0
H113 H 0.06499 0.92517 0.69273 0.0
H114 H 0.8869 0.46001 0.76602 0.0
C115 C 0.88645 0.44135 0.75716 0.0
C116 C 0.9011 0.42705 0.76709 0.0
C117 C 0.8689 0.42988 0.73698 0.0
H118 H 0.90888 0.3901 0.76489 0.0
C119 C 0.89855 0.40153 0.75643 0.0
C120 C 0.88204 0.39021 0.73569 0.0
C121 C 0.86773 0.40508 0.72597 0.0
C122 C 0.84709 0.43966 0.72978 0.0
H123 H 0.85461 0.39695 0.71014 0.0
C124 C 0.85649 0.46901 0.72251 0.0
C125 C 0.83458 0.47645 0.71482 0.0
C126 C 0.81587 0.41851 0.73012 0.0
H127 H 0.80813 0.39598 0.73588 0.0
C128 C 0.79429 0.4261 0.7232 0.0
H129 H 0.88051 0.48544 0.72198 0.0
C130 C 0.80352 0.45475 0.7155 0.0
H131 H 0.78628 0.46001 0.70993 0.0
H132 H 0.7703 0.40962 0.72361 0.0
H133 H 0.56579 0.44083 0.75818 0.0
C134 C 0.58356 0.46125 0.7506 0.0
C135 C 0.59239 0.48812 0.76223 0.0
C136 C 0.59788 0.46048 0.72979 0.0
H137 H 0.62395 0.53514 0.76255 0.0
C138 C 0.61676 0.51451 0.75334 0.0
C139 C 0.63172 0.51451 0.73263 0.0
C140 C 0.62176 0.48745 0.72084 0.0
C141 C 0.58819 0.43158 0.71761 0.0
H142 H 0.63235 0.48764 0.70441 0.0
C143 C 0.55773 0.40778 0.7188 0.0
C144 C 0.54907 0.38082 0.70725 0.0
C145 C 0.60962 0.4274 0.70485 0.0
H146 H 0.63337 0.44446 0.70411 0.0
C147 C 0.60089 0.40083 0.69314 0.0
H148 H 0.54051 0.41018 0.72822 0.0
C149 C 0.57082 0.37774 0.69422 0.0
H150 H 0.56463 0.35716 0.68522 0.0
H151 H 0.61762 0.39803 0.68337 0.0
H152 H 0.58664 0.11728 0.76648 0.0
C153 C 0.56735 0.11802 0.75913 0.0
C154 C 0.53849 0.10158 0.76981 0.0
C155 C 0.57102 0.13518 0.73897 0.0
H156 H 0.49191 0.09172 0.76974 0.0
C157 C 0.51366 0.10334 0.76079 0.0
C158 C 0.5163 0.11962 0.74062 0.0
C159 C 0.54494 0.1351 0.72969 0.0
C160 C 0.60171 0.1539 0.72758 0.0
H161 H 0.54666 0.14671 0.71362 0.0
C162 C 0.62478 0.14574 0.72698 0.0
C163 C 0.65287 0.16369 0.7151 0.0
C164 C 0.60788 0.1807 0.71679 0.0
H165 H 0.59185 0.18875 0.71772 0.0
C166 C 0.63475 0.19771 0.70449 0.0
H167 H 0.62092 0.12566 0.73563 0.0
C168 C 0.6567 0.18911 0.70327 0.0
H169 H 0.67683 0.20267 0.6929 0.0
H170 H 0.6386 0.21778 0.69578 0.0
H171 H 0.80882 0.56099 0.94298 0.0
C172 C 0.78998 0.56234 0.95075 0.0
C173 C 0.78006 0.58057 0.94046 0.0
C174 C 0.7746 0.54434 0.96997 0.0
H175 H 0.7468 0.59481 0.94165 0.0
C176 C 0.75463 0.58105 0.94989 0.0
C177 C 0.73918 0.5639 0.96962 0.0
C178 C 0.74934 0.54541 0.97943 0.0
C179 C 0.78308 0.52217 0.97826 0.0
H180 H 0.73772 0.53187 0.99447 0.0
C181 C 0.81393 0.52965 0.98089 0.0
C182 C 0.8221 0.50754 0.98526 0.0
C183 C 0.76018 0.49253 0.98118 0.0
H184 H 0.73639 0.48603 0.97903 0.0
C185 C 0.76773 0.47062 0.98555 0.0
H186 H 0.83122 0.55275 0.97942 0.0
C187 C 0.79815 0.47781 0.98708 0.0
H188 H 0.80242 0.45953 0.98914 0.0
H189 H 0.74984 0.44768 0.98707 0.0
H190 H 0.47456 0.25619 0.9519 0.0
C191 C 0.47029 0.23519 0.95911 0.0
C192 C 0.45206 0.20892 0.94656 0.0
C193 C 0.48383 0.2346 0.98026 0.0
H194 H 0.43637 0.16207 0.94442 0.0
C195 C 0.44911 0.18198 0.95464 0.0
C196 C 0.46258 0.18073 0.97572 0.0
C197 C 0.47821 0.20693 0.98891 0.0
C198 C 0.50568 0.26272 0.99257 0.0
H199 H 0.48654 0.20586 1.00597 0.0
C200 C 0.50344 0.28885 0.99121 0.0
C201 C 0.52567 0.31545 1.00169 0.0
C202 C 0.5303 0.2639 1.00497 0.0
H203 H 0.53386 0.24501 1.00575 0.0
C204 C 0.55144 0.28977 0.01612 0.0
H205 H 0.48501 0.28885 0.98169 0.0
C206 C 0.54921 0.31532 0.01453 0.0
H207 H 0.56622 0.33523 0.02318 0.0
H208 H 0.57005 0.29016 0.02569 0.0
H209 H 0.77062 0.20647 0.9469 0.0
C210 C 0.79014 0.22555 0.95439 0.0
C211 C 0.81844 0.23894 0.94253 0.0
C212 C 0.78688 0.23717 0.97572 0.0
H213 H 0.86483 0.27538 0.94303 0.0
C214 C 0.8433 0.26439 0.95226 0.0
C215 C 0.84069 0.27615 0.97359 0.0
C216 C 0.81264 0.26186 0.98534 0.0
C217 C 0.7566 0.22545 0.98763 0.0
H218 H 0.81055 0.27076 1.00183 0.0
C219 C 0.73453 0.1948 0.98844 0.0
C220 C 0.70686 0.18487 1.0009 0.0
C221 C 0.74992 0.24576 0.99877 0.0
H222 H 0.76532 0.26947 0.99766 0.0
C223 C 0.72341 0.23601 0.01171 0.0
H224 H 0.73879 0.17888 0.97945 0.0
C225 C 0.70237 0.20593 0.01314 0.0
H226 H 0.6823 0.19925 0.02381 0.0
H227 H 0.71912 0.25192 0.02068 0.0
H228 H 0.58253 0.80439 0.10417 0.0
C229 C 0.58372 0.78569 0.09705 0.0
C230 C 0.60023 0.77442 0.10891 0.0
C231 C 0.56853 0.77265 0.07613 0.0
H232 H 0.61017 0.73861 0.11041 0.0
C233 C 0.59981 0.74879 0.10026 0.0
C234 C 0.58542 0.73581 0.07913 0.0
C235 C 0.57157 0.74922 0.06669 0.0
C236 C 0.54741 0.78126 0.06474 0.0
H237 H 0.56233 0.74089 0.04962 0.0
C238 C 0.55241 0.81066 0.06506 0.0
C239 C 0.5315 0.81745 0.05422 0.0
C240 C 0.52099 0.75902 0.0537 0.0
H241 H 0.51536 0.73598 0.05392 0.0
C242 C 0.50108 0.76586 0.04234 0.0
H243 H 0.57217 0.82806 0.07378 0.0
C244 C 0.50638 0.79478 0.04236 0.0
H245 H 0.49052 0.79933 0.03309 0.0
H246 H 0.48125 0.74857 0.0336 0.0
H247 H 0.22691 0.76988 0.09606 0.0
C248 C 0.24643 0.78826 0.08775 0.0
C249 C 0.25735 0.81717 0.09631 0.0
C250 C 0.26164 0.78266 0.06966 0.0
H251 H 0.29291 0.86281 0.09377 0.0
C252 C 0.284 0.84074 0.08661 0.0
C253 C 0.29949 0.8359 0.06818 0.0
C254 C 0.28762 0.80679 0.05959 0.0
C255 C 0.25232 0.75148 0.06289 0.0
H256 H 0.29888 0.80277 0.04514 0.0
C257 C 0.22133 0.72889 0.06217 0.0
C258 C 0.21345 0.69925 0.05755 0.0
C259 C 0.27493 0.74376 0.05848 0.0
H260 H 0.29891 0.7602 0.0594 0.0
C261 C 0.26704 0.7145 0.05359 0.0
H262 H 0.20344 0.73418 0.06541 0.0
C263 C 0.23653 0.69234 0.05326 0.0
H264 H 0.23089 0.66968 0.04963 0.0
H265 H 0.28469 0.7089 0.05035 0.0
H266 H 0.25495 0.45895 0.09164 0.0
C267 C 0.23521 0.45834 0.08381 0.0
C268 C 0.20675 0.44317 0.09533 0.0
C269 C 0.23818 0.47279 0.0623 0.0
H270 H 0.15986 0.43311 0.09453 0.0
C271 C 0.18148 0.44335 0.08535 0.0
C272 C 0.18358 0.45693 0.06384 0.0
C273 C 0.21181 0.47126 0.05236 0.0
C274 C 0.26852 0.49027 0.05023 0.0
H275 H 0.21292 0.48083 0.0354 0.0
C276 C 0.29179 0.4825 0.05144 0.0
C277 C 0.31977 0.49929 0.03927 0.0
C278 C 0.27427 0.51548 0.03711 0.0
H279 H 0.258 0.52326 0.0365 0.0
C280 C 0.30112 0.53129 0.0245 0.0
H281 H 0.28825 0.46363 0.06178 0.0
C282 C 0.32341 0.52311 0.02525 0.0
H283 H 0.34369 0.5357 0.01476 0.0
H284 H 0.30474 0.55015 0.01408 0.0
H285 H 0.46118 0.86622 0.27743 0.0
C286 C 0.443 0.86784 0.28604 0.0
C287 C 0.43034 0.88354 0.27495 0.0
C288 C 0.43114 0.85305 0.30744 0.0
H289 H 0.39514 0.8956 0.27685 0.0
C290 C 0.40539 0.88413 0.28542 0.0
C291 C 0.39305 0.86959 0.30658 0.0
C292 C 0.40674 0.85515 0.31775 0.0
C293 C 0.44211 0.83357 0.31848 0.0
H294 H 0.3979 0.84539 0.33462 0.0
C295 C 0.47205 0.83786 0.31519 0.0
C296 C 0.48063 0.81833 0.32575 0.0
C297 C 0.42147 0.80923 0.33225 0.0
H298 H 0.3979 0.80347 0.33424 0.0
C299 C 0.43042 0.79118 0.34353 0.0
H300 H 0.48837 0.85574 0.30429 0.0
C301 C 0.45968 0.79581 0.34054 0.0
H302 H 0.46575 0.78112 0.34951 0.0
H303 H 0.41431 0.77305 0.35436 0.0
H304 H 0.14183 0.59517 0.26422 0.0
C305 C 0.14115 0.57682 0.27373 0.0
C306 C 0.1196 0.54759 0.26766 0.0
C307 C 0.16316 0.58251 0.29081 0.0
H308 H 0.10219 0.5014 0.27513 0.0
C309 C 0.1195 0.52384 0.27945 0.0
C310 C 0.14137 0.52887 0.29666 0.0
C311 C 0.16313 0.55843 0.30213 0.0
C312 C 0.18773 0.61352 0.29526 0.0
H313 H 0.18063 0.56286 0.31485 0.0
C314 C 0.1812 0.63691 0.29727 0.0
C315 C 0.20494 0.66644 0.29977 0.0
C316 C 0.21825 0.62011 0.2963 0.0
H317 H 0.22406 0.60273 0.29448 0.0
C318 C 0.24175 0.64933 0.29896 0.0
H319 H 0.1578 0.63224 0.29661 0.0
C320 C 0.23521 0.67239 0.30053 0.0
H321 H 0.25382 0.69493 0.30257 0.0
H322 H 0.26517 0.65415 0.29959 0.0
H323 H 0.42748 0.53967 0.28207 0.0
C324 C 0.44621 0.56006 0.28874 0.0
C325 C 0.47327 0.57476 0.27551 0.0
C326 C 0.44312 0.57218 0.30989 0.0
H327 H 0.51726 0.61425 0.27247 0.0
C328 C 0.49692 0.60244 0.28305 0.0
C329 C 0.49459 0.6149 0.30408 0.0
C330 C 0.46831 0.59889 0.31776 0.0
C331 C 0.41362 0.55836 0.3234 0.0
H332 H 0.46766 0.6076 0.33471 0.0
C333 C 0.39164 0.52768 0.322 0.0
C334 C 0.3639 0.51587 0.33456 0.0
C335 C 0.4068 0.57658 0.33756 0.0
H336 H 0.42159 0.60037 0.3383 0.0
C337 C 0.38036 0.56467 0.3509 0.0
H338 H 0.39563 0.51306 0.31096 0.0
C339 C 0.35925 0.53461 0.34963 0.0
H340 H 0.33881 0.52612 0.36019 0.0
H341 H 0.37593 0.57897 0.362 0.0
Eu342 Eu 0.49278 0.99244 0.9994 0.0
C343 C 0.55689 0.08676 0.07641 0.0
C344 C 0.6094 0.09864 0.07251 0.0
C345 C 0.59776 0.13684 0.08446 0.0
C346 C 0.57794 0.07824 0.07073 0.0
C347 C 0.56649 0.11595 0.08391 0.0
C348 C 0.6192 0.1282 0.07876 0.0
C349 C 0.51373 0.10087 0.09164 0.0
N350 N 0.52696 0.06595 0.07587 0.0
C351 C 0.50539 0.07219 0.08416 0.0
C352 C 0.54439 0.12298 0.09121 0.0
Eu353 Eu 0.51407 0.01877 0.06053 0.0
N354 N 0.5676 0.0495 0.06488 0.0
C355 C 0.58753 0.03911 0.06237 0.0
C356 C 0.63 0.08846 0.06873 0.0
C357 C 0.61897 0.05842 0.06412 0.0
H358 H 0.48163 0.05521 0.0842 0.0
H359 H 0.63468 0.05018 0.06162 0.0
H360 H 0.64328 0.1443 0.07989 0.0
H361 H 0.49651 0.10593 0.09765 0.0
H362 H 0.57948 0.01607 0.05851 0.0
H363 H 0.37187 0.95693 0.9907 0.0
H364 H 0.65435 0.1034 0.06991 0.0
H365 H 0.53037 0.95781 0.98176 0.0
H366 H 0.42634 0.99258 0.99708 0.0
H367 H 0.51864 0.90769 0.96889 0.0
H368 H 0.60561 0.15949 0.08989 0.0
H369 H 0.35521 0.90445 0.98168 0.0
H370 H 0.36933 0.86526 0.9733 0.0
H371 H 0.55081 0.14517 0.09707 0.0
H372 H 0.40922 0.85185 0.96732 0.0
N373 N 0.44035 0.9605 0.99217 0.0
C374 C 0.41942 0.96979 0.99301 0.0
C375 C 0.37917 0.92002 0.9844 0.0
C376 C 0.40098 0.91102 0.98233 0.0
C377 C 0.3885 0.94964 0.98943 0.0
C378 C 0.43186 0.93213 0.98617 0.0
H379 H 0.46497 0.86762 0.96531 0.0
N380 N 0.48383 0.94574 0.9859 0.0
C381 C 0.50033 0.91209 0.9729 0.0
C382 C 0.45426 0.92451 0.98292 0.0
C383 C 0.50691 0.9404 0.98008 0.0
C384 C 0.46999 0.88952 0.97095 0.0
C385 C 0.44649 0.89568 0.97562 0.0
O386 O 0.52154 0.00909 0.96848 0.0
O387 O 0.52754 0.02491 0.02336 0.0
O388 O 0.50897 0.05363 0.04067 0.0
O389 O 0.47951 0.02782 0.00829 0.0
O390 O 0.54436 0.0106 0.99726 0.0
O391 O 0.47865 0.00874 0.96932 0.0
O392 O 0.48983 0.00598 0.09388 0.0
O393 O 0.47784 0.98748 0.03652 0.0
O394 O 0.4922 0.95587 0.02103 0.0
O395 O 0.52653 0.98327 0.05027 0.0
O396 O 0.46366 1.00397 0.06343 0.0
O397 O 0.52485 0.99485 0.08672 0.0
C398 C 0.55207 0.02903 0.01437 0.0
C399 C 0.49713 1.0031 0.93258 0.0
C400 C 0.506 0.01281 0.8906 0.0
C401 C 0.50851 0.02321 0.91373 0.0
C402 C 0.49227 0.98189 0.88704 0.0
C403 C 0.4827 0.97255 0.92823 0.0
C404 C 0.48044 0.96207 0.90563 0.0
C405 C 0.49176 0.05116 0.02248 0.0
C406 C 0.50244 0.01399 0.9568 0.0
C407 C 0.41568 0.87423 0.97269 0.0
C408 C 0.39296 0.88187 0.97608 0.0
C409 C 0.45464 0.98659 0.04565 0.0
C410 C 0.51757 1.00346 0.12595 0.0
C411 C 0.50612 0.9827 0.14436 0.0
C412 C 0.51782 0.99107 0.16712 0.0
C413 C 0.54084 0.02063 0.17101 0.0
C414 C 0.54058 0.03264 0.13037 0.0
C415 C 0.55206 0.04114 0.15279 0.0
C416 C 0.51081 0.95856 0.0381 0.0
C417 C 0.50574 0.99459 0.10213 0.0
H418 H 0.51918 0.04679 0.91719 0.0
H419 H 0.49086 0.97279 0.86986 0.0
H420 H 0.4737 0.95678 0.94233 0.0
H421 H 0.46979 0.93842 0.90252 0.0
H422 H 0.48852 0.96006 0.14088 0.0
H423 H 0.54998 0.02807 0.18827 0.0
H424 H 0.54967 0.04885 0.11648 0.0
H425 H 0.56973 0.06377 0.15608 0.0
Eu426 Eu 0.03084 0.50587 0.98195 0.0
C427 C 0.93282 0.46683 0.06103 0.0
C428 C 0.92131 0.50686 0.05995 0.0
C429 C 0.88275 0.45783 0.07303 0.0
C430 C 0.94176 0.49614 0.05631 0.0
C431 C 0.90344 0.44749 0.06995 0.0
C432 C 0.89165 0.48745 0.06801 0.0
C433 C 0.91799 0.40988 0.07394 0.0
N434 N 0.95333 0.45755 0.0579 0.0
C435 C 0.94687 0.42996 0.06519 0.0
C436 C 0.89602 0.41856 0.07606 0.0
Eu437 Eu 1.00186 0.4924 0.04294 0.0
N438 N 0.97051 0.51424 0.04833 0.0
C439 C 0.98066 0.54376 0.04474 0.0
C440 C 0.93129 0.53679 0.05548 0.0
C441 C 0.96118 0.55535 0.04803 0.0
H442 H 0.96394 0.42326 0.06368 0.0
H443 H 0.96921 0.5786 0.04468 0.0
H444 H 0.87556 0.49523 0.0707 0.0
H445 H 0.91275 0.38778 0.07911 0.0
H446 H 1.00346 0.5585 0.03867 0.0
H447 H 0.08369 0.43617 0.97648 0.0
H448 H 0.91623 0.54583 0.05792 0.0
H449 H 0.05641 0.57301 0.95805 0.0
H450 H 0.04147 0.44664 0.98093 0.0
H451 H 0.10514 0.61524 0.94406 0.0
H452 H 0.85999 0.44324 0.07966 0.0
H453 H 0.13597 0.47719 0.96876 0.0
H454 H 0.17069 0.53124 0.9598 0.0
H455 H 0.8737 0.40303 0.08296 0.0
H456 H 0.17662 0.58025 0.95102 0.0
N457 N 0.06962 0.49335 0.9766 0.0
C458 C 0.06411 0.46479 0.9775 0.0
C459 C 0.11751 0.48195 0.97074 0.0
C460 C 0.12258 0.51086 0.9681 0.0
C461 C 0.08802 0.45873 0.975 0.0
C462 C 0.09778 0.51587 0.97097 0.0
H463 H 0.15214 0.61164 0.9446 0.0
N464 N 0.0762 0.54668 0.9673 0.0
C465 C 0.10441 0.59528 0.95042 0.0
C466 C 0.1012 0.54347 0.9662 0.0
C467 C 0.07692 0.57139 0.95826 0.0
C468 C 0.13092 0.5932 0.95085 0.0
C469 C 0.12938 0.56678 0.95822 0.0
O470 O 0.01232 0.51392 0.95023 0.0
O471 O 0.99344 0.49898 1.00606 0.0
O472 O 0.97106 0.45034 0.02248 0.0
O473 O 0.99972 0.45642 0.98871 0.0
O474 O 1.00354 0.53005 0.98031 0.0
O475 O 0.01861 0.47576 0.95228 0.0
O476 O 1.01169 0.47672 0.07539 0.0
O477 O 0.0391 0.49768 0.01893 0.0
O478 O 0.06083 0.54846 1.00091 0.0
O479 O 0.03874 0.5412 0.038 0.0
O480 O 0.02302 0.463 0.04262 0.0
O481 O 0.02363 0.52273 0.07195 0.0
C482 C 0.98529 0.51622 0.99736 0.0
C483 C 0.02376 0.49782 0.91533 0.0
C484 C 0.01592 0.49826 0.87345 0.0
C485 C 1.00415 0.49132 0.89625 0.0
C486 C 0.04762 0.51185 0.87006 0.0
C487 C 0.05525 0.51098 0.91152 0.0
C488 C 0.06708 0.51804 0.889 0.0
C489 C 0.97623 0.44038 1.00268 0.0
C490 C 1.01117 0.49156 0.93907 0.0
C491 C 0.15466 0.56248 0.9568 0.0
C492 C 0.15127 0.53456 0.96177 0.0
C493 C 0.04319 0.4771 0.02671 0.0
C494 C 1.01112 0.50181 0.10956 0.0
C495 C 0.02973 0.50519 0.12874 0.0
C496 C 0.01974 0.50584 0.15156 0.0
C497 C 0.99066 0.50263 0.15483 0.0
C498 C 0.98233 0.49886 0.11326 0.0
C499 C 0.97212 0.49912 0.13578 0.0
C500 C 0.05887 0.55783 0.02185 0.0
C501 C 0.02233 0.50225 0.08582 0.0
H502 H 0.9798 0.48119 0.89919 0.0
H503 H 0.05731 0.51714 0.85271 0.0
H504 H 0.07067 0.5158 0.9259 0.0
H505 H 0.09142 0.52824 0.8862 0.0
H506 H 0.05221 0.50797 0.12585 0.0
H507 H 0.98215 0.50262 0.17214 0.0
H508 H 0.96786 0.49664 0.09879 0.0
H509 H 0.94981 0.49674 0.13847 0.0
Eu510 Eu 0.53586 0.51367 0.05081 0.0
C511 C 0.48033 0.55447 0.97307 0.0
C512 C 0.42655 0.51821 0.97474 0.0
C513 C 0.44284 0.56905 0.96337 0.0
C514 C 0.4573 0.52595 0.97778 0.0
C515 C 0.47343 0.5762 0.96527 0.0
C516 C 0.41943 0.54009 0.96811 0.0
C517 C 0.52743 0.6096 0.9599 0.0
N518 N 0.50959 0.56056 0.97494 0.0
C519 C 0.53308 0.58725 0.96762 0.0
C520 C 0.49748 0.60419 0.95902 0.0
Eu521 Eu 0.51764 0.52253 0.98993 0.0
N522 N 0.46502 0.50536 0.98408 0.0
C523 C 0.44318 0.47613 0.98587 0.0
C524 C 0.40397 0.48855 0.97778 0.0
C525 C 0.41238 0.46733 0.98293 0.0
H526 H 0.55628 0.59155 0.96852 0.0
H527 H 0.39512 0.44424 0.9849 0.0
H528 H 0.39592 0.53466 0.96599 0.0
H529 H 0.54614 0.63097 0.95469 0.0
H530 H 0.4492 0.45947 0.9901 0.0
H531 H 0.65908 0.58645 0.05747 0.0
H532 H 0.38008 0.48171 0.97566 0.0
H533 H 0.49272 0.44404 0.07033 0.0
H534 H 0.60589 0.57412 0.05111 0.0
H535 H 0.49941 0.40274 0.08483 0.0
H536 H 0.43705 0.58552 0.95766 0.0
H537 H 0.67067 0.54705 0.06846 0.0
H538 H 0.6514 0.49365 0.07911 0.0
H539 H 0.49314 0.62151 0.95296 0.0
H540 H 0.60801 0.44371 0.0866 0.0
N541 N 0.58745 0.52802 0.05786 0.0
C542 C 0.61055 0.55671 0.05599 0.0
C543 C 0.64723 0.54149 0.06571 0.0
C544 C 0.62329 0.5124 0.06882 0.0
C545 C 0.64078 0.5638 0.05956 0.0
C546 C 0.59321 0.50633 0.06488 0.0
H547 H 0.55126 0.40969 0.08903 0.0
N548 N 0.54021 0.47356 0.06593 0.0
C549 C 0.51913 0.42382 0.08037 0.0
C550 C 0.56885 0.47823 0.06905 0.0
C551 C 0.5154 0.44722 0.07226 0.0
C552 C 0.54844 0.42782 0.08267 0.0
C553 C 0.57378 0.4554 0.07732 0.0
O554 O 0.50876 0.50542 0.08239 0.0
O555 O 0.50286 0.51582 0.02678 0.0
O556 O 0.5244 0.56249 0.01037 0.0
O557 O 0.55393 0.5627 0.04163 0.0
O558 O 0.48375 0.48523 0.05286 0.0
O559 O 0.55223 0.54595 0.07922 0.0
O560 O 0.54388 0.53319 0.95758 0.0
O561 O 0.55151 0.52108 0.01382 0.0
O562 O 0.53135 0.47482 0.03017 0.0
O563 O 0.50105 0.47362 0.99912 0.0
O564 O 0.56903 0.55295 0.98821 0.0
O565 O 0.50398 0.48985 0.96204 0.0
C566 C 0.47764 0.49709 0.03549 0.0
C567 C 0.53534 0.5264 0.11706 0.0
C568 C 0.52827 0.53236 0.1584 0.0
C569 C 0.52388 0.53674 0.13486 0.0
C570 C 0.54446 0.51759 0.16381 0.0
C571 C 0.55161 0.51195 0.12283 0.0
C572 C 0.55613 0.5076 0.14611 0.0
C573 C 0.54246 0.57567 0.02833 0.0
C574 C 0.52891 0.52966 0.09266 0.0
C575 C 0.60373 0.46103 0.08045 0.0
C576 C 0.62844 0.48947 0.07619 0.0
C577 C 0.57611 0.54135 1.00521 0.0
C578 C 0.51584 0.50958 0.92393 0.0
C579 C 0.53257 0.50795 0.90498 0.0
C580 C 0.5239 0.50953 0.88198 0.0
C581 C 0.49831 0.51296 0.87833 0.0
C582 C 0.49045 0.51306 0.91988 0.0
C583 C 0.48178 0.51474 0.89717 0.0
C584 C 0.51301 0.46124 0.01252 0.0
C585 C 0.52531 0.50793 0.94779 0.0
H586 H 0.51108 0.5477 0.13038 0.0
H587 H 0.54852 0.5142 0.18174 0.0
H588 H 0.56064 0.5039 0.10939 0.0
H589 H 0.56869 0.4964 0.15046 0.0
H590 H 0.55207 0.50508 0.90817 0.0
H591 H 0.49128 0.51467 0.86089 0.0
H592 H 0.47734 0.51443 0.93423 0.0
H593 H 0.46221 0.51749 0.89416 0.0
Eu594 Eu 0.14876 0.32303 0.31652 0.0
C595 C 0.21574 0.41998 0.39102 0.0
C596 C 0.26584 0.4248 0.39004 0.0
C597 C 0.26053 0.46775 0.39906 0.0
C598 C 0.23396 0.40754 0.38731 0.0
C599 C 0.2287 0.45 0.39767 0.0
C600 C 0.27909 0.45516 0.39525 0.0
C601 C 0.17775 0.44176 0.40363 0.0
N602 N 0.18514 0.40215 0.38976 0.0
C603 C 0.16603 0.41214 0.39698 0.0
C604 C 0.20923 0.46094 0.40356 0.0
Eu605 Eu 0.16653 0.35266 0.37714 0.0
N606 N 0.22037 0.37817 0.38222 0.0
C607 C 0.2373 0.36427 0.38114 0.0
C608 C 0.28335 0.41088 0.38807 0.0
C609 C 0.26895 0.38039 0.38396 0.0
H610 H 0.14163 0.39738 0.39677 0.0
H611 H 0.28224 0.36932 0.38268 0.0
H612 H 0.30357 0.46889 0.39699 0.0
H613 H 0.16249 0.44979 0.40868 0.0
H614 H 0.22679 0.34086 0.37765 0.0
H615 H 0.02651 0.28072 0.3077 0.0
H616 H 0.30789 0.42335 0.39005 0.0
H617 H 0.1898 0.29112 0.30094 0.0
H618 H 0.08033 0.31881 0.31362 0.0
H619 H 0.18104 0.24169 0.28884 0.0
H620 H 0.27096 0.49097 0.40379 0.0
H621 H 0.0128 0.22871 0.29968 0.0
H622 H 0.02998 0.19161 0.29196 0.0
H623 H 0.21828 0.48386 0.40877 0.0
H624 H 0.07199 0.18106 0.28653 0.0
N625 N 0.09683 0.28851 0.30976 0.0
C626 C 0.07465 0.29621 0.31012 0.0
C627 C 0.03646 0.24533 0.30232 0.0
C628 C 0.05954 0.23798 0.30058 0.0
C629 C 0.04411 0.27467 0.30678 0.0
C630 C 0.08995 0.26041 0.30429 0.0
H631 H 0.12839 0.19968 0.28501 0.0
N632 N 0.14261 0.27679 0.30439 0.0
C633 C 0.16188 0.24494 0.29241 0.0
C634 C 0.11354 0.2544 0.3013 0.0
C635 C 0.16678 0.27286 0.29919 0.0
C636 C 0.1321 0.22127 0.29028 0.0
C637 C 0.10747 0.22591 0.29443 0.0
O638 O 0.17691 0.33848 0.28515 0.0
O639 O 0.18176 0.35696 0.34053 0.0
O640 O 0.15986 0.38566 0.35502 0.0
O641 O 0.13373 0.3572 0.32248 0.0
O642 O 0.20073 0.3432 0.31556 0.0
O643 O 0.13352 0.33711 0.28583 0.0
O644 O 0.14213 0.34754 0.40988 0.0
O645 O 0.13175 0.31951 0.35317 0.0
O646 O 0.14838 0.28759 0.33886 0.0
O647 O 0.17342 0.31203 0.37291 0.0
O648 O 0.11644 0.33885 0.37706 0.0
O649 O 0.17134 0.32843 0.40636 0.0
C650 C 0.20687 0.36163 0.33247 0.0
C651 C 0.15098 0.32953 0.24946 0.0
C652 C 0.15292 0.33579 0.20712 0.0
C653 C 0.15848 0.34809 0.22972 0.0
C654 C 0.14058 0.30492 0.20471 0.0
C655 C 0.13824 0.29884 0.2464 0.0
C656 C 0.13327 0.28667 0.22419 0.0
C657 C 0.14435 0.38154 0.33538 0.0
C658 C 0.15711 0.34208 0.27319 0.0
C659 C 0.07715 0.2032 0.29157 0.0
C660 C 0.05323 0.2092 0.29468 0.0
C661 C 0.10811 0.31925 0.36077 0.0
C662 C 0.16613 0.34371 0.44392 0.0
C663 C 0.15236 0.32493 0.4632 0.0
C664 C 0.16396 0.33421 0.48586 0.0
C665 C 0.18946 0.3627 0.48876 0.0
C666 C 0.19159 0.37187 0.44732 0.0
C667 C 0.20311 0.38129 0.46963 0.0
C668 C 0.1614 0.28852 0.35892 0.0
C669 C 0.15412 0.33354 0.42034 0.0
H670 H 0.16803 0.37181 0.23196 0.0
H671 H 0.13655 0.2948 0.18765 0.0
H672 H 0.13228 0.28422 0.26113 0.0
H673 H 0.12365 0.26295 0.22207 0.0
H674 H 0.13295 0.30299 0.46046 0.0
H675 H 0.19866 0.37085 0.50589 0.0
H676 H 0.20258 0.38653 0.43274 0.0
H677 H 0.2227 0.40313 0.47212 0.0
Eu678 Eu 0.69927 0.83418 0.30938 0.0
C679 C 0.59628 0.79805 0.37934 0.0
C680 C 0.58278 0.83685 0.37951 0.0
C681 C 0.5435 0.78552 0.38533 0.0
C682 C 0.6047 0.82778 0.37661 0.0
C683 C 0.56571 0.77682 0.38445 0.0
C684 C 0.55204 0.81549 0.38297 0.0
C685 C 0.58172 0.7406 0.39061 0.0
N686 N 0.61826 0.79022 0.37868 0.0
C687 C 0.61171 0.76237 0.38564 0.0
C688 C 0.55851 0.74768 0.38953 0.0
Eu689 Eu 0.66788 0.8287 0.36796 0.0
N690 N 0.63456 0.84807 0.37286 0.0
C691 C 0.64437 0.87776 0.37432 0.0
C692 C 0.59254 0.86722 0.37973 0.0
C693 C 0.62353 0.88775 0.37762 0.0
H694 H 0.62927 0.75634 0.38589 0.0
H695 H 0.63139 0.9113 0.37837 0.0
H696 H 0.53484 0.82203 0.38463 0.0
H697 H 0.5765 0.7183 0.39509 0.0
H698 H 0.66819 0.89407 0.37302 0.0
H699 H 0.63375 0.74977 0.24391 0.0
H700 H 0.57643 0.87505 0.38207 0.0
H701 H 0.77194 0.85921 0.32511 0.0
H702 H 0.64665 0.79266 0.2693 0.0
H703 H 0.8107 0.84374 0.32296 0.0
H704 H 0.51985 0.76941 0.3888 0.0
H705 H 0.66678 0.72714 0.24311 0.0
H706 H 0.71489 0.72858 0.25628 0.0
H707 H 0.53529 0.73075 0.39345 0.0
H708 H 0.76306 0.75407 0.27804 0.0
N709 N 0.68607 0.79377 0.28349 0.0
C710 C 0.66125 0.78301 0.26918 0.0
C711 C 0.67252 0.74593 0.25437 0.0
C712 C 0.69895 0.75827 0.26791 0.0
C713 C 0.65384 0.75867 0.25474 0.0
C714 C 0.70535 0.78272 0.28226 0.0
H715 H 0.79921 0.7973 0.30269 0.0
N716 N 0.73827 0.82146 0.3069 0.0
C717 C 0.78864 0.83022 0.31499 0.0
C718 C 0.73226 0.79694 0.2945 0.0
C719 C 0.7665 0.83887 0.31622 0.0
C720 C 0.78204 0.80396 0.30361 0.0
C721 C 0.75381 0.78728 0.29272 0.0
O722 O 0.7387 0.86912 0.29093 0.0
O723 O 0.67033 0.84607 0.33223 0.0
O724 O 0.6356 0.78828 0.34599 0.0
O725 O 0.66597 0.78568 0.31636 0.0
O726 O 0.65356 0.82888 0.29942 0.0
O727 O 0.69361 0.85768 0.27989 0.0
O728 O 0.704 0.84068 0.39385 0.0
O729 O 0.70486 0.82765 0.34715 0.0
O730 O 0.73195 0.87123 0.33288 0.0
O731 O 0.70057 0.87746 0.35883 0.0
O732 O 0.68101 0.79294 0.37036 0.0
O733 O 0.66183 0.83719 0.40443 0.0
C734 C 0.6484 0.83895 0.31828 0.0
C735 C 0.73213 0.87353 0.25077 0.0
C736 C 0.7219 0.85656 0.21035 0.0
C737 C 0.71175 0.85515 0.23343 0.0
C738 C 0.75256 0.87667 0.20487 0.0
C739 C 0.76254 0.89341 0.24475 0.0
C740 C 0.77265 0.8949 0.22196 0.0
C741 C 0.64081 0.7739 0.32907 0.0
C742 C 0.72252 0.87277 0.27517 0.0
C743 C 0.74694 0.76202 0.27942 0.0
C744 C 0.71954 0.74753 0.26701 0.0
C745 C 0.7033 0.80438 0.35564 0.0
C746 C 0.68631 0.82226 0.43154 0.0
C747 C 0.69576 0.83508 0.45372 0.0
C748 C 0.69349 0.81723 0.47299 0.0
C749 C 0.68198 0.78663 0.46964 0.0
C750 C 0.67499 0.7917 0.42877 0.0
C751 C 0.67285 0.77404 0.44768 0.0
C752 C 0.72657 0.88796 0.3472 0.0
C753 C 0.68767 0.84043 0.41136 0.0
H754 H 0.68826 0.83957 0.23787 0.0
H755 H 0.76096 0.8786 0.18723 0.0
H756 H 0.77852 0.90784 0.25775 0.0
H757 H 0.79615 0.91035 0.21749 0.0
H758 H 0.70449 0.85868 0.45599 0.0
H759 H 0.68052 0.77243 0.48397 0.0
H760 H 0.66782 0.7814 0.412 0.0
H761 H 0.66417 0.7505 0.44529 0.0
Eu762 Eu 0.20439 0.85015 0.38153 0.0
C763 C 0.14304 0.8898 0.30798 0.0
C764 C 0.09105 0.84901 0.30832 0.0
C765 C 0.10123 0.89911 0.30037 0.0
C766 C 0.12258 0.85995 0.31112 0.0
C767 C 0.13267 0.90962 0.30199 0.0
C768 C 0.08045 0.86885 0.30353 0.0
C769 C 0.18525 0.94811 0.29748 0.0
N770 N 0.17322 0.89919 0.30951 0.0
C771 C 0.19438 0.92755 0.30333 0.0
C772 C 0.15425 0.93921 0.29714 0.0
Eu773 Eu 0.18706 0.86381 0.32138 0.0
N774 N 0.13357 0.84142 0.31594 0.0
C775 C 0.11435 0.81141 0.31666 0.0
C776 C 0.07118 0.8184 0.30991 0.0
C777 C 0.08295 0.79949 0.31373 0.0
H778 H 0.21839 0.9345 0.30383 0.0
H779 H 0.0678 0.77574 0.31473 0.0
H780 H 0.05628 0.86091 0.3017 0.0
H781 H 0.2021 0.97077 0.29327 0.0
H782 H 0.12285 0.79642 0.31996 0.0
H783 H 0.32777 0.92243 0.38785 0.0
H784 H 0.04682 0.80912 0.30788 0.0
H785 H 0.16276 0.78097 0.4026 0.0
H786 H 0.27432 0.91053 0.38406 0.0
H787 H 0.16991 0.73882 0.41403 0.0
H788 H 0.09279 0.91406 0.29608 0.0
H789 H 0.33985 0.88211 0.39326 0.0
H790 H 0.32099 0.82778 0.39975 0.0
H791 H 0.14721 0.95514 0.29251 0.0
H792 H 0.27785 0.77756 0.40685 0.0
N793 N 0.25624 0.86384 0.38664 0.0
C794 C 0.27921 0.89272 0.38654 0.0
C795 C 0.31632 0.87675 0.39163 0.0
C796 C 0.29252 0.84737 0.39336 0.0
C797 C 0.30958 0.89957 0.38866 0.0
C798 C 0.2623 0.8416 0.39099 0.0
H799 H 0.2214 0.74429 0.41274 0.0
N800 N 0.20947 0.8093 0.39414 0.0
C801 C 0.18926 0.7596 0.4085 0.0
C802 C 0.23812 0.81337 0.39482 0.0
C803 C 0.18528 0.78345 0.40212 0.0
C804 C 0.21835 0.76274 0.40765 0.0
C805 C 0.24335 0.7901 0.40131 0.0
O806 O 0.17815 0.84023 0.41385 0.0
O807 O 0.17183 0.85401 0.35809 0.0
O808 O 0.19328 0.90206 0.34404 0.0
O809 O 0.22222 0.89966 0.3747 0.0
O810 O 0.15218 0.82277 0.38364 0.0
O811 O 0.22158 0.88044 0.41129 0.0
O812 O 0.21348 0.88143 0.28936 0.0
O813 O 0.22099 0.86061 0.34444 0.0
O814 O 0.19537 0.80987 0.36077 0.0
O815 O 0.17597 0.81555 0.32534 0.0
O816 O 0.23775 0.8959 0.32131 0.0
O817 O 0.17786 0.83536 0.29104 0.0
C818 C 0.14642 0.83525 0.36653 0.0
C819 C 0.20688 0.85749 0.44826 0.0
C820 C 0.20762 0.86268 0.49064 0.0
C821 C 0.19985 0.86847 0.46842 0.0
C822 C 0.22155 0.84506 0.49228 0.0
C823 C 0.22145 0.84065 0.45052 0.0
C824 C 0.22846 0.83425 0.47237 0.0
C825 C 0.21119 0.91377 0.3623 0.0
C826 C 0.19891 0.86331 0.42492 0.0
C827 C 0.27336 0.79526 0.40223 0.0
C828 C 0.29792 0.82387 0.39822 0.0
C829 C 0.24522 0.88253 0.33665 0.0
C830 C 0.189 0.85863 0.2542 0.0
C831 C 0.20439 0.8548 0.23529 0.0
C832 C 0.19572 0.85619 0.21225 0.0
C833 C 0.17141 0.86161 0.20853 0.0
C834 C 0.16486 0.86401 0.25011 0.0
C835 C 0.15618 0.86552 0.22735 0.0
C836 C 0.18246 0.80009 0.34034 0.0
C837 C 0.19826 0.85657 0.27801 0.0
H838 H 0.18907 0.88195 0.46678 0.0
H839 H 0.22728 0.8397 0.50906 0.0
H840 H 0.22744 0.83241 0.43541 0.0
H841 H 0.23945 0.82098 0.47388 0.0
H842 H 0.2228 0.85027 0.23856 0.0
H843 H 0.16439 0.86319 0.19106 0.0
H844 H 0.15272 0.86693 0.26447 0.0
H845 H 0.13756 0.86975 0.22428 0.0
Eu846 Eu 0.83175 0.66762 0.65112 0.0
C847 C 0.88707 0.7591 0.7321 0.0
C848 C 0.94065 0.77433 0.72938 0.0
C849 C 0.92522 0.80882 0.74402 0.0
C850 C 0.90975 0.75289 0.72603 0.0
C851 C 0.89449 0.78675 0.74195 0.0
C852 C 0.94828 0.80264 0.73768 0.0
C853 C 0.84084 0.76737 0.7496 0.0
N854 N 0.8577 0.73719 0.73012 0.0
C855 C 0.83467 0.74038 0.73958 0.0
C856 C 0.87084 0.79088 0.75036 0.0
Eu857 Eu 0.84861 0.69224 0.71278 0.0
N858 N 0.90151 0.72514 0.71846 0.0
C859 C 0.92296 0.71667 0.71573 0.0
C860 C 0.96285 0.7663 0.72517 0.0
C861 C 0.95391 0.73716 0.71878 0.0
H862 H 0.81142 0.72232 0.73873 0.0
H863 H 0.97086 0.73052 0.71598 0.0
H864 H 0.9719 0.81954 0.74005 0.0
H865 H 0.82246 0.77008 0.75657 0.0
H866 H 0.91653 0.69436 0.71055 0.0
H867 H 0.70844 0.62142 0.64668 0.0
H868 H 0.98684 0.78214 0.72746 0.0
H869 H 0.87409 0.64111 0.62777 0.0
H870 H 0.76192 0.66051 0.65239 0.0
H871 H 0.86696 0.59416 0.61086 0.0
H872 H 0.93139 0.83037 0.75124 0.0
H873 H 0.69644 0.57085 0.63505 0.0
H874 H 0.71535 0.53631 0.62278 0.0
H875 H 0.87558 0.81176 0.75813 0.0
H876 H 0.75852 0.52889 0.61291 0.0
N877 N 0.77996 0.63213 0.64483 0.0
C878 C 0.75699 0.63856 0.64726 0.0
C879 C 0.71996 0.58791 0.63758 0.0
C880 C 0.74377 0.58202 0.63365 0.0
C881 C 0.72664 0.61645 0.64406 0.0
C882 C 0.77397 0.60496 0.63733 0.0
H883 H 0.81513 0.55055 0.60788 0.0
N884 N 0.82691 0.62378 0.63461 0.0
C885 C 0.84745 0.59564 0.61687 0.0
C886 C 0.79819 0.60065 0.632 0.0
C887 C 0.85142 0.62214 0.62639 0.0
C888 C 0.81815 0.57104 0.61527 0.0
C889 C 0.79302 0.57348 0.62254 0.0
O890 O 0.85827 0.6861 0.61924 0.0
O891 O 0.86391 0.70113 0.6759 0.0
O892 O 0.84016 0.726 0.69413 0.0
O893 O 0.81507 0.70023 0.66032 0.0
O894 O 0.88367 0.68987 0.64951 0.0
O895 O 0.81471 0.68396 0.62309 0.0
O896 O 0.82176 0.67616 0.74486 0.0
O897 O 0.81564 0.6587 0.68805 0.0
O898 O 0.83819 0.63309 0.67027 0.0
O899 O 0.86392 0.65847 0.70386 0.0
O900 O 0.79733 0.6729 0.71368 0.0
O901 O 0.86175 0.67176 0.74021 0.0
C902 C 0.88922 0.70711 0.66718 0.0
C903 C 0.83047 0.68057 0.58487 0.0
C904 C 0.83374 0.69206 0.54325 0.0
C905 C 0.83947 0.7015 0.56666 0.0
C906 C 0.81869 0.66145 0.53845 0.0
C907 C 0.81519 0.65022 0.57954 0.0
C908 C 0.8094 0.64076 0.55649 0.0
C909 C 0.82448 0.72307 0.67486 0.0
C910 C 0.83772 0.69049 0.60925 0.0
C911 C 0.76298 0.55007 0.61988 0.0
C912 C 0.7384 0.55431 0.62549 0.0
C913 C 0.79081 0.65469 0.69655 0.0
C914 C 0.84965 0.679 0.77853 0.0
C915 C 0.83366 0.66049 0.79745 0.0
C916 C 0.84264 0.67012 0.82053 0.0
C917 C 0.86763 0.69871 0.82425 0.0
C918 C 0.87457 0.70729 0.78276 0.0
C919 C 0.8834 0.71708 0.80549 0.0
C920 C 0.85385 0.63555 0.68938 0.0
C921 C 0.84026 0.66869 0.7545 0.0
H922 H 0.85129 0.72501 0.57068 0.0
H923 H 0.8136 0.65348 0.52071 0.0
H924 H 0.80778 0.6338 0.59317 0.0
H925 H 0.79762 0.61725 0.55258 0.0
H926 H 0.81461 0.63849 0.79416 0.0
H927 H 0.8748 0.70705 0.84171 0.0
H928 H 0.88726 0.72179 0.76851 0.0
H929 H 0.90258 0.73901 0.80859 0.0
Eu930 Eu 0.36349 0.16669 0.65821 0.0
C931 C 0.27532 0.14693 0.74149 0.0
C932 C 0.26221 0.18542 0.73546 0.0
C933 C 0.2265 0.13969 0.75516 0.0
C934 C 0.28277 0.17464 0.73293 0.0
C935 C 0.24736 0.12938 0.75311 0.0
C936 C 0.23389 0.16763 0.74632 0.0
C937 C 0.26358 0.09368 0.76128 0.0
N938 N 0.29589 0.13757 0.73922 0.0
C939 C 0.29103 0.11193 0.7497 0.0
C940 C 0.24148 0.10227 0.76277 0.0
Eu941 Eu 0.34182 0.16946 0.71942 0.0
N942 N 0.31025 0.19121 0.72237 0.0
C943 C 0.31914 0.21939 0.71498 0.0
C944 C 0.27077 0.21381 0.7271 0.0
C945 C 0.29947 0.23095 0.71699 0.0
H946 H 0.30815 0.10528 0.74855 0.0
H947 H 0.30641 0.25305 0.71064 0.0
H948 H 0.21772 0.17544 0.74823 0.0
H949 H 0.25952 0.07305 0.76908 0.0
H950 H 0.34105 0.23291 0.7069 0.0
H951 H 0.40871 0.09044 0.66355 0.0
H952 H 0.25556 0.22281 0.72857 0.0
H953 H 0.38963 0.22624 0.62365 0.0
H954 H 0.36937 0.10512 0.66559 0.0
H955 H 0.43783 0.26239 0.60426 0.0
H956 H 0.2048 0.12642 0.76386 0.0
H957 H 0.46136 0.12706 0.65181 0.0
H958 H 0.49784 0.17786 0.63622 0.0
H959 H 0.22027 0.08815 0.77182 0.0
H960 H 0.5059 0.2251 0.61998 0.0
N961 N 0.39949 0.15003 0.65579 0.0
C962 C 0.39215 0.12138 0.66033 0.0
C963 C 0.44416 0.13369 0.65269 0.0
C964 C 0.45093 0.16232 0.64625 0.0
C965 C 0.41444 0.11292 0.6592 0.0
C966 C 0.4277 0.16981 0.64778 0.0
H967 H 0.48335 0.25648 0.60734 0.0
N968 N 0.40837 0.20131 0.63835 0.0
C969 C 0.4367 0.24408 0.61409 0.0
C970 C 0.4323 0.19638 0.63874 0.0
C971 C 0.40949 0.22361 0.62499 0.0
C972 C 0.46238 0.24075 0.61597 0.0
C973 C 0.46014 0.21619 0.62783 0.0
O974 O 0.34351 0.16881 0.62513 0.0
O975 O 0.3296 0.16805 0.68214 0.0
O976 O 0.30603 0.12537 0.70446 0.0
O977 O 0.3315 0.12005 0.67245 0.0
O978 O 0.33781 0.19206 0.65206 0.0
O979 O 0.34626 0.12968 0.6337 0.0
O980 O 0.35828 0.16221 0.75254 0.0
O981 O 0.37612 0.16767 0.69575 0.0
O982 O 0.39649 0.21289 0.6706 0.0
O983 O 0.37722 0.21617 0.70697 0.0
O984 O 0.3611 0.13874 0.72383 0.0
O985 O 0.36383 0.20542 0.7446 0.0
C986 C 0.32147 0.18373 0.67075 0.0
C987 C 0.35264 0.14468 0.59425 0.0
C988 C 0.34716 0.14464 0.55213 0.0
C989 C 0.33491 0.14165 0.57462 0.0
C990 C 0.37738 0.15077 0.5495 0.0
C991 C 0.38257 0.15019 0.59127 0.0
C992 C 0.39489 0.15334 0.56901 0.0
C993 C 0.30846 0.10939 0.68747 0.0
C994 C 0.34027 0.14375 0.61763 0.0
C995 C 0.48417 0.20993 0.62794 0.0
C996 C 0.47957 0.18302 0.63717 0.0
C997 C 0.3798 0.1484 0.70649 0.0
C998 C 0.35688 0.19045 0.78411 0.0
C999 C 0.37459 0.191 0.80311 0.0
C1000 C 0.36536 0.19211 0.82609 0.0
C1001 C 0.33792 0.19236 0.82965 0.0
C1002 C 0.32984 0.19108 0.78812 0.0
C1003 C 0.3204 0.19192 0.81078 0.0
C1004 C 0.3963 0.2279 0.68912 0.0
C1005 C 0.36668 0.18877 0.76029 0.0
H1006 H 0.31179 0.13744 0.57685 0.0
H1007 H 0.38723 0.15297 0.53235 0.0
H1008 H 0.39648 0.15218 0.60609 0.0
H1009 H 0.41805 0.15775 0.56687 0.0
H1010 H 0.3957 0.19094 0.79992 0.0
H1011 H 0.32977 0.19258 0.84705 0.0
H1012 H 0.31605 0.19098 0.77379 0.0
H1013 H 0.29937 0.19217 0.81374 0.0
Eu1014 Eu 0.86723 0.17384 0.71834 0.0
C1015 C 0.81274 0.21963 0.64422 0.0
C1016 C 0.75921 0.18242 0.64511 0.0
C1017 C 0.77445 0.23382 0.63653 0.0
C1018 C 0.79012 0.19054 0.64772 0.0
C1019 C 0.80522 0.24147 0.63801 0.0
C1020 C 0.75147 0.20434 0.64008 0.0
C1021 C 0.85903 0.27611 0.63313 0.0
N1022 N 0.84221 0.22624 0.64568 0.0
C1023 C 0.86531 0.25363 0.63924 0.0
C1024 C 0.82886 0.27013 0.63285 0.0
Eu1025 Eu 0.85114 0.18777 0.65814 0.0
N1026 N 0.79839 0.16993 0.65256 0.0
C1027 C 0.777 0.14047 0.65333 0.0
C1028 C 0.73706 0.15242 0.64703 0.0
C1029 C 0.74606 0.13131 0.65074 0.0
H1030 H 0.88867 0.25834 0.63973 0.0
H1031 H 0.72914 0.108 0.65188 0.0
H1032 H 0.72783 0.19858 0.63832 0.0
H1033 H 0.87743 0.29803 0.6287 0.0
H1034 H 0.78349 0.12391 0.65651 0.0
H1035 H 0.99073 0.24426 0.72562 0.0
H1036 H 0.71307 0.14528 0.6452 0.0
H1037 H 0.82326 0.10397 0.73691 0.0
H1038 H 0.93777 0.23334 0.72035 0.0
H1039 H 0.82898 0.06159 0.75013 0.0
H1040 H 0.76819 0.25035 0.63205 0.0
H1041 H 1.00139 0.20345 0.7335 0.0
H1042 H 0.98117 0.14925 0.7417 0.0
H1043 H 0.82404 0.28756 0.62805 0.0
H1044 H 0.93713 0.09951 0.74855 0.0
N1045 N 0.91862 0.18668 0.72444 0.0
C1046 C 0.94206 0.21532 0.72382 0.0
C1047 C 0.97808 0.1985 0.73115 0.0
C1048 C 0.95377 0.16941 0.73321 0.0
C1049 C 0.97214 0.22161 0.72678 0.0
C1050 C 0.92388 0.16416 0.72983 0.0
H1051 H 0.8803 0.06679 0.75232 0.0
N1052 N 0.87073 0.13234 0.73124 0.0
C1053 C 0.84889 0.08237 0.74535 0.0
C1054 C 0.89917 0.13611 0.73342 0.0
C1055 C 0.8457 0.10635 0.73792 0.0
C1056 C 0.8779 0.08538 0.74652 0.0
C1057 C 0.90354 0.11263 0.74086 0.0
O1058 O 0.84077 0.16378 0.75057 0.0
O1059 O 0.83509 0.17842 0.69482 0.0
O1060 O 0.85778 0.22634 0.68038 0.0
O1061 O 0.88592 0.22363 0.7115 0.0
O1062 O 0.81508 0.14613 0.7196 0.0
O1063 O 0.88415 0.20418 0.7481 0.0
O1064 O 0.87847 0.20222 0.62627 0.0
O1065 O 0.884 0.18366 0.68154 0.0
O1066 O 0.86165 0.13546 0.69623 0.0
O1067 O 0.83605 0.13845 0.66349 0.0
O1068 O 0.90256 0.21791 0.65781 0.0
O1069 O 0.83837 0.15862 0.62785 0.0
C1070 C 0.80954 0.15935 0.70292 0.0
C1071 C 0.86922 0.18135 0.78518 0.0
C1072 C 0.87002 0.18697 0.82757 0.0
C1073 C 0.86231 0.19263 0.80525 0.0
C1074 C 0.88382 0.16925 0.82939 0.0
C1075 C 0.88354 0.16432 0.78768 0.0
C1076 C 0.89055 0.15812 0.8096 0.0
C1077 C 0.87543 0.23799 0.69877 0.0
C1078 C 0.86139 0.18698 0.76168 0.0
C1079 C 0.93328 0.11738 0.74315 0.0
C1080 C 0.95836 0.14571 0.73927 0.0
C1081 C 0.90896 0.20441 0.67375 0.0
C1082 C 0.85228 0.18236 0.5911 0.0
C1083 C 0.86808 0.17976 0.57187 0.0
C1084 C 0.86048 0.18355 0.54901 0.0
C1085 C 0.83697 0.19028 0.54584 0.0
C1086 C 0.82893 0.18903 0.58748 0.0
C1087 C 0.8214 0.19301 0.56495 0.0
C1088 C 0.84628 0.1243 0.67674 0.0
C1089 C 0.86042 0.17816 0.61481 0.0
H1090 H 0.85163 0.20618 0.80348 0.0
H1091 H 0.88949 0.16398 0.84622 0.0
H1092 H 0.8893 0.15573 0.77271 0.0
H1093 H 0.90138 0.14471 0.81124 0.0
H1094 H 0.88594 0.17432 0.57471 0.0
H1095 H 0.83082 0.19376 0.52858 0.0
H1096 H 0.81651 0.1911 0.60203 0.0
H1097 H 0.80341 0.19825 0.56228 0.0
H1098 H 0.31627 0.89468 0.06258 0.0
H1099 H 0.35001 0.83345 0.05334 0.0
H1100 H 0.39957 0.87424 0.04176 0.0
H1101 H 0.43528 0.92805 0.03867 0.0
H1102 H 0.40324 0.98947 0.05185 0.0
H1103 H 0.35136 0.94814 0.05764 0.0
C1104 C 0.33442 0.89014 0.05817 0.0
C1105 C 0.32908 0.86077 0.0591 0.0
C1106 C 0.36341 0.91392 0.05235 0.0
C1107 C 0.35295 0.85556 0.05261 0.0
C1108 C 0.38157 0.879 0.04618 0.0
C1109 C 0.41682 0.93225 0.04242 0.0
C1110 C 0.42296 0.96166 0.04463 0.0
C1111 C 0.3873 0.90833 0.04656 0.0
C1112 C 0.39893 0.96695 0.04983 0.0
C1113 C 0.36933 0.94333 0.05327 0.0
H1114 H 0.1773 0.50246 0.04548 0.0
H1115 H 0.12736 0.40836 0.05945 0.0
H1116 H 0.08015 0.40613 0.04712 0.0
H1117 H 0.05221 0.43134 0.03553 0.0
H1118 H 0.10079 0.5256 0.02287 0.0
H1119 H 0.14929 0.52737 0.03105 0.0
C1120 C 0.15614 0.48143 0.04544 0.0
C1121 C 0.15583 0.45565 0.05363 0.0
C1122 C 0.1288 0.48036 0.0386 0.0
C1123 C 0.12818 0.42858 0.05358 0.0
C1124 C 0.10116 0.42726 0.04649 0.0
C1125 C 0.07351 0.45219 0.03425 0.0
C1126 C 0.073 0.47819 0.0283 0.0
C1127 C 0.10107 0.45308 0.03948 0.0
C1128 C 0.10066 0.50517 0.02698 0.0
C1129 C 0.12835 0.5062 0.03185 0.0
H1130 H 0.53951 0.6919 0.05358 0.0
H1131 H 0.62584 0.71483 0.0854 0.0
H1132 H 0.61991 0.66725 0.07318 0.0
H1133 H 0.58987 0.61863 0.05348 0.0
H1134 H 0.50726 0.59995 0.01765 0.0
H1135 H 0.513 0.64701 0.03061 0.0
C1136 C 0.5577 0.68724 0.05738 0.0
C1137 C 0.58313 0.70743 0.07055 0.0
C1138 C 0.5549 0.66045 0.04944 0.0
C1139 C 0.60561 0.6998 0.07578 0.0
C1140 C 0.60242 0.67259 0.06858 0.0
C1141 C 0.57325 0.62498 0.04844 0.0
C1142 C 0.54799 0.60556 0.03484 0.0
C1143 C 0.57705 0.65264 0.05548 0.0
C1144 C 0.52688 0.61431 0.02816 0.0
C1145 C 0.53007 0.64125 0.03562 0.0
H1146 H 0.88153 0.32523 0.94924 0.0
H1147 H 0.8581 0.29109 0.01928 0.0
H1148 H 0.8973 0.33873 0.03462 0.0
H1149 H 0.938 0.39068 0.02813 0.0
H1150 H 0.96292 0.42292 0.95781 0.0
H1151 H 0.92411 0.37524 0.94272 0.0
C1152 C 0.88531 0.3278 0.96785 0.0
C1153 C 0.86651 0.30438 0.98298 0.0
C1154 C 0.90834 0.35506 0.97659 0.0
C1155 C 0.87165 0.30874 1.00711 0.0
C1156 C 0.89426 0.33599 0.01595 0.0
C1157 C 0.9349 0.38726 0.00955 0.0
C1158 C 0.95336 0.41048 0.9942 0.0
C1159 C 0.91258 0.35945 1.00086 0.0
C1160 C 0.94929 0.40545 0.97009 0.0
C1161 C 0.92694 0.37816 0.96139 0.0
H1162 H 0.68623 0.51855 0.98882 0.0
H1163 H 0.73115 0.61227 0.9729 0.0
H1164 H 0.6855 0.6138 0.98399 0.0
H1165 H 0.63136 0.58795 0.9952 0.0
H1166 H 0.58692 0.49525 0.01315 0.0
H1167 H 0.63386 0.49409 1.00504 0.0
C1168 C 0.68637 0.53949 0.98819 0.0
C1169 C 0.71217 0.56509 0.97934 0.0
C1170 C 0.65998 0.54043 0.99502 0.0
C1171 C 0.71151 0.59191 0.97876 0.0
C1172 C 0.68541 0.59293 0.98533 0.0
C1173 C 0.63217 0.56763 0.9977 0.0
C1174 C 0.60564 0.54168 1.0047 0.0
C1175 C 0.65929 0.56721 0.99295 0.0
C1176 C 0.60696 0.5155 0.00782 0.0
C1177 C 0.63384 0.51484 1.00307 0.0
H1178 H 0.506 0.176 1.0006 0.0
H1179 H 0.41829 0.1219 0.96822 0.0
H1180 H 0.41985 0.07723 0.97905 0.0
H1181 H 0.44646 0.05329 0.99775 0.0
H1182 H 0.53092 0.10845 0.03392 0.0
H1183 H 0.52943 0.15268 0.02236 0.0
C1184 C 0.48661 0.1546 0.99638 0.0
C1185 C 0.46206 0.15283 0.98349 0.0
C1186 C 0.48697 0.12892 1.00348 0.0
C1187 C 0.43791 0.12443 0.97767 0.0
C1188 C 0.4386 0.09868 0.98407 0.0
C1189 C 0.46441 0.07501 1.00317 0.0
C1190 C 0.48887 0.07745 0.01654 0.0
C1191 C 0.46312 0.10065 0.9969 0.0
C1192 C 0.51177 0.10576 0.02367 0.0
C1193 C 0.51104 0.13119 0.01698 0.0
H1194 H 0.64609 0.16435 1.0 0.0
H1195 H 0.71101 0.13342 1.00223 0.0
H1196 H 0.66895 0.08202 1.00576 0.0
H1197 H 0.61293 0.04589 0.0099 0.0
H1198 H 0.55086 0.08011 0.01059 0.0
H1199 H 0.5925 0.1301 1.00536 0.0
C1200 C 0.65137 0.14659 1.0017 0.0
C1201 C 0.68191 0.15307 1.00124 0.0
C1202 C 0.62739 0.11753 1.00473 0.0
C1203 C 0.68781 0.12929 1.00242 0.0
C1204 C 0.66373 0.09986 1.00466 0.0
C1205 C 0.60875 0.06443 0.00911 0.0
C1206 C 0.57876 0.0593 0.01176 0.0
C1207 C 0.63334 0.0937 1.00611 0.0
C1208 C 0.5736 0.08341 0.01004 0.0
C1209 C 0.5975 0.11211 1.00658 0.0
H1210 H 0.84545 0.47448 1.00554 0.0
H1211 H 0.87498 0.5576 0.96925 0.0
H1212 H 0.92734 0.5685 0.97191 0.0
H1213 H 0.96532 0.55357 0.98272 0.0
H1214 H 0.93327 0.46578 0.01027 0.0
H1215 H 0.8814 0.45707 0.0116 0.0
C1216 C 0.86271 0.49468 0.99742 0.0
C1217 C 0.85504 0.51487 0.98709 0.0
C1218 C 0.89284 0.50002 0.99732 0.0
C1219 C 0.87917 0.5415 0.97788 0.0
C1220 C 0.90951 0.54775 0.97906 0.0
C1221 C 0.94694 0.53261 0.98911 0.0
C1222 C 0.95354 0.51098 0.99768 0.0
C1223 C 0.91662 0.52706 0.98856 0.0
C1224 C 0.92926 0.48341 1.00477 0.0
C1225 C 0.89942 0.47829 1.0053 0.0
H1226 H 0.4782 0.32672 1.00692 0.0
H1227 H 0.57386 0.36848 0.98962 0.0
H1228 H 0.57758 0.41704 0.98974 0.0
H1229 H 0.55506 0.4481 0.99796 0.0
H1230 H 0.45981 0.40815 0.015 0.0
H1231 H 0.45419 0.35838 0.01142 0.0
C1232 C 0.49966 0.34643 1.00278 0.0
C1233 C 0.52586 0.34402 0.9987 0.0
C1234 C 0.50171 0.37457 1.00292 0.0
C1235 C 0.55353 0.36977 0.99332 0.0
C1236 C 0.55569 0.39757 0.99332 0.0
C1237 C 0.53302 0.42846 1.00059 0.0
C1238 C 0.50791 0.43152 1.00675 0.0
C1239 C 0.53017 0.40029 0.99864 0.0
C1240 C 0.47935 0.40608 0.01002 0.0
C1241 C 0.47625 0.37773 0.00813 0.0
H1242 H 0.17109 0.68745 0.0243 0.0
H1243 H 0.18521 0.65566 0.08961 0.0
H1244 H 0.13592 0.60999 0.08591 0.0
H1245 H 0.09184 0.57657 0.06166 0.0
H1246 H 0.0793 0.60741 0.99531 0.0
H1247 H 0.12458 0.65578 1.0017 0.0
C1248 C 0.16287 0.67079 0.03795 0.0
C1249 C 0.1814 0.67486 0.0573 0.0
C1250 C 0.13498 0.6442 0.03529 0.0
C1251 C 0.17102 0.65297 0.0747 0.0
C1252 C 0.14298 0.62682 0.0725 0.0
C1253 C 0.09867 0.59417 0.04891 0.0
C1254 C 0.08257 0.58838 0.0279 0.0
C1255 C 0.12515 0.6218 0.05255 0.0
C1256 C 0.09178 0.6112 0.01138 0.0
C1257 C 0.11759 0.63891 0.01507 0.0
H1258 H 0.38057 0.53935 0.03936 0.0
H1259 H 0.3179 0.44504 0.0431 0.0
H1260 H 0.36102 0.43583 0.04321 0.0
H1261 H 0.4172 0.45491 0.04055 0.0
H1262 H 0.4776 0.54917 0.03384 0.0
H1263 H 0.43481 0.5579 0.03561 0.0
C1264 C 0.37601 0.51663 0.03978 0.0
C1265 C 0.34568 0.49297 0.04089 0.0
C1266 C 0.40072 0.51145 0.03894 0.0
C1267 C 0.34082 0.46383 0.0424 0.0
C1268 C 0.36553 0.45851 0.04225 0.0
C1269 C 0.42081 0.47729 0.03938 0.0
C1270 C 0.45064 0.50132 0.03619 0.0
C1271 C 0.39566 0.48217 0.04028 0.0
C1272 C 0.45503 0.53022 0.0352 0.0
C1273 C 0.43047 0.53527 0.03655 0.0
H1274 H 0.48661 0.83062 0.06074 0.0
H1275 H 0.58368 0.8723 0.04978 0.0
H1276 H 0.58667 0.92084 0.0462 0.0
H1277 H 0.56032 0.95062 0.0423 0.0
H1278 H 0.46249 0.90589 0.04897 0.0
H1279 H 0.46099 0.85936 0.05754 0.0
C1280 C 0.50849 0.85024 0.05742 0.0
C1281 C 0.53478 0.84764 0.05509 0.0
C1282 C 0.50978 0.87758 0.05434 0.0
C1283 C 0.56305 0.87358 0.05166 0.0
C1284 C 0.56471 0.90131 0.04938 0.0
C1285 C 0.53884 0.93067 0.04593 0.0
C1286 C 0.51149 0.93158 0.04504 0.0
C1287 C 0.53806 0.90348 0.05013 0.0
C1288 C 0.48373 0.90567 0.04945 0.0
C1289 C 0.48287 0.87904 0.0544 0.0
H1290 H 0.9747 0.22495 0.38969 0.0
H1291 H 0.01401 0.1678 0.38769 0.0
H1292 H 0.06108 0.20803 0.37137 0.0
H1293 H 0.09301 0.26094 0.36133 0.0
H1294 H 0.05484 0.31877 0.36541 0.0
H1295 H 1.00549 0.27694 0.37697 0.0
C1296 C 0.99357 0.2213 0.38572 0.0
C1297 C 0.99072 0.19334 0.3901 0.0
C1298 C 0.02084 0.24471 0.37658 0.0
C1299 C 0.01533 0.18895 0.3844 0.0
C1300 C 0.04239 0.21202 0.37513 0.0
C1301 C 0.07365 0.26415 0.36409 0.0
C1302 C 0.0774 0.29279 0.36227 0.0
C1303 C 0.04562 0.24015 0.37151 0.0
C1304 C 0.05232 0.29681 0.3665 0.0
C1305 C 0.0242 0.27296 0.37329 0.0
H1306 H 0.79727 0.76023 0.37642 0.0
H1307 H 0.85355 0.85235 0.39464 0.0
H1308 H 0.81261 0.86224 0.38384 0.0
H1309 H 0.76001 0.84434 0.37041 0.0
H1310 H 0.70431 0.75297 0.35013 0.0
H1311 H 0.74551 0.74301 0.36036 0.0
C1312 C 0.80046 0.78243 0.37792 0.0
C1313 C 0.82826 0.80553 0.38646 0.0
C1314 C 0.77693 0.78806 0.37122 0.0
C1315 C 0.83232 0.83427 0.38815 0.0
C1316 C 0.80891 0.8399 0.38201 0.0
C1317 C 0.7572 0.82241 0.36783 0.0
C1318 C 0.72955 0.79956 0.35893 0.0
C1319 C 0.78106 0.81697 0.37364 0.0
C1320 C 0.72571 0.77101 0.35642 0.0
C1321 C 0.7492 0.76531 0.36238 0.0
H1322 H 0.25494 0.03968 0.40641 0.0
H1323 H 0.16428 0.01844 0.38518 0.0
H1324 H 0.15773 0.97419 0.36571 0.0
H1325 H 0.17558 0.93896 0.35743 0.0
H1326 H 0.26213 0.95559 0.38452 0.0
H1327 H 0.27199 1.00371 0.39947 0.0
C1328 C 0.23345 0.0253 0.39792 0.0
C1329 C 0.21022 0.03292 0.39758 0.0
C1330 C 0.22891 0.99868 0.38793 0.0
C1331 C 0.18306 0.01405 0.38556 0.0
C1332 C 0.17902 0.9883 0.37458 0.0
C1333 C 0.19665 0.95314 0.36655 0.0
C1334 C 0.21805 0.94367 0.36996 0.0
C1335 C 0.20153 0.98011 0.37603 0.0
C1336 C 0.24522 0.96231 0.38181 0.0
C1337 C 0.25086 0.98981 0.39034 0.0
H1338 H 0.55661 0.64043 0.29878 0.0
H1339 H 0.48728 0.65808 0.32561 0.0
H1340 H 0.52626 0.7079 0.33683 0.0
H1341 H 0.57983 0.74739 0.33759 0.0
H1342 H 0.6489 0.73085 0.30878 0.0
H1343 H 0.61016 0.68011 0.29918 0.0
C1344 C 0.5499 0.65518 0.30687 0.0
C1345 C 0.51887 0.64518 0.31138 0.0
C1346 C 0.57241 0.68422 0.31276 0.0
C1347 C 0.51091 0.66472 0.3223 0.0
C1348 C 0.5332 0.69342 0.32855 0.0
C1349 C 0.58644 0.7326 0.32942 0.0
C1350 C 0.61722 0.74291 0.32396 0.0
C1351 C 0.56399 0.70348 0.32375 0.0
C1352 C 0.62533 0.72356 0.31304 0.0
C1353 C 0.60319 0.69448 0.30761 0.0
H1354 H 0.37967 0.91431 0.31176 0.0
H1355 H 0.34201 0.82036 0.32282 0.0
H1356 H 0.29342 0.81587 0.33493 0.0
H1357 H 0.25997 0.83807 0.33907 0.0
H1358 H 0.29857 0.93228 0.32883 0.0
H1359 H 0.34803 0.93716 0.31962 0.0
C1360 C 0.36088 0.89288 0.31693 0.0
C1361 C 0.36452 0.8677 0.31616 0.0
C1362 C 0.33295 0.89044 0.32391 0.0
C1363 C 0.33998 0.84017 0.3233 0.0
C1364 C 0.31206 0.83753 0.3301 0.0
C1365 C 0.27943 0.85972 0.33538 0.0
C1366 C 0.27567 0.88487 0.33491 0.0
C1367 C 0.30804 0.86242 0.33007 0.0
C1368 C 0.30094 0.91266 0.32949 0.0
C1369 C 0.32923 0.91546 0.32414 0.0
H1370 H 0.12703 0.47521 0.27751 0.0
H1371 H 0.15814 0.52469 0.3416 0.0
H1372 H 0.16215 0.484 0.35919 0.0
H1373 H 0.15745 0.43442 0.35614 0.0
H1374 H 0.12179 0.384 0.29293 0.0
H1375 H 0.11815 0.4247 0.27567 0.0
C1376 C 0.13401 0.47706 0.29551 0.0
C1377 C 0.14234 0.50335 0.30802 0.0
C1378 C 0.13538 0.45323 0.30583 0.0
C1379 C 0.15214 0.50517 0.33121 0.0
C1380 C 0.1542 0.48173 0.34142 0.0
C1381 C 0.14852 0.43212 0.33875 0.0
C1382 C 0.13996 0.40592 0.32605 0.0
C1383 C 0.14601 0.45566 0.32885 0.0
C1384 C 0.12858 0.40367 0.30335 0.0
C1385 C 0.12652 0.42706 0.29332 0.0
H1386 H 0.304 0.49753 0.3307 0.0
H1387 H 0.36679 0.46403 0.33115 0.0
H1388 H 0.32377 0.41294 0.32908 0.0
H1389 H 0.26745 0.37764 0.32939 0.0
H1390 H 0.20688 0.41368 0.33116 0.0
H1391 H 0.24968 0.46367 0.33066 0.0
C1392 C 0.30845 0.47912 0.33058 0.0
C1393 C 0.33863 0.48469 0.33146 0.0
C1394 C 0.28382 0.45011 0.33005 0.0
C1395 C 0.34381 0.46046 0.33046 0.0
C1396 C 0.31919 0.43123 0.32941 0.0
C1397 C 0.26381 0.39654 0.32969 0.0
C1398 C 0.23391 0.39183 0.33138 0.0
C1399 C 0.28898 0.42574 0.32953 0.0
C1400 C 0.22946 0.41647 0.3311 0.0
C1401 C 0.25404 0.44522 0.33048 0.0
H1402 H 0.53953 0.86651 0.32567 0.0
H1403 H 0.48841 0.77166 0.31529 0.0
H1404 H 0.53531 0.76954 0.31373 0.0
H1405 H 0.59087 0.79395 0.31617 0.0
H1406 H 0.64352 0.88869 0.32389 0.0
H1407 H 0.59651 0.89176 0.32493 0.0
C1408 C 0.53874 0.84552 0.32263 0.0
C1409 C 0.51026 0.81922 0.32104 0.0
C1410 C 0.56615 0.84437 0.32145 0.0
C1411 C 0.50984 0.7922 0.31709 0.0
C1412 C 0.5367 0.7909 0.31615 0.0
C1413 C 0.59193 0.81516 0.31861 0.0
C1414 C 0.62038 0.84083 0.32146 0.0
C1415 C 0.56493 0.81669 0.31874 0.0
C1416 C 0.62168 0.86844 0.323 0.0
C1417 C 0.59482 0.87021 0.32323 0.0
H1418 H 0.16971 0.67362 0.33195 0.0
H1419 H 0.227 0.71539 0.27229 0.0
H1420 H 0.22176 0.75941 0.27784 0.0
H1421 H 0.20481 0.78785 0.30189 0.0
H1422 H 0.15097 0.74768 0.36332 0.0
H1423 H 0.15063 0.70125 0.35496 0.0
C1424 C 0.18053 0.6922 0.31998 0.0
C1425 C 0.19863 0.69136 0.30172 0.0
C1426 C 0.17818 0.71778 0.32373 0.0
C1427 C 0.213 0.71567 0.28648 0.0
C1428 C 0.21003 0.74081 0.28966 0.0
C1429 C 0.19243 0.76862 0.31307 0.0
C1430 C 0.17785 0.77093 0.33312 0.0
C1431 C 0.1932 0.74237 0.30851 0.0
C1432 C 0.16244 0.74627 0.34785 0.0
C1433 C 0.16227 0.71978 0.34306 0.0
H1434 H 0.85018 0.00797 0.34536 0.0
H1435 H 0.82773 0.00985 0.41736 0.0
H1436 H 0.7773 0.96581 0.41143 0.0
H1437 H 0.74227 0.9231 0.38637 0.0
H1438 H 0.76711 0.92223 0.3146 0.0
H1439 H 0.81352 0.96951 0.31968 0.0
C1440 C 0.83394 0.99902 0.35961 0.0
C1441 C 0.84251 0.01185 0.38174 0.0
C1442 C 0.80548 0.97365 0.35612 0.0
C1443 C 0.82143 1.00029 0.40013 0.0
C1444 C 0.79274 0.97501 0.39676 0.0
C1445 C 0.75758 0.93366 0.3718 0.0
C1446 C 0.75145 0.91895 0.35022 0.0
C1447 C 0.78483 0.96093 0.37494 0.0
C1448 C 0.77152 0.93282 0.33148 0.0
C1449 C 0.79811 0.95991 0.33433 0.0
H1450 H 0.04921 0.87747 0.37031 0.0
H1451 H 0.98634 0.78312 0.3697 0.0
H1452 H 0.0294 0.77376 0.37035 0.0
H1453 H 0.08569 0.79288 0.36931 0.0
H1454 H 0.1465 0.88737 0.36749 0.0
H1455 H 0.10369 0.89615 0.36875 0.0
C1456 C 0.04464 0.85474 0.36996 0.0
C1457 C 0.01428 0.83108 0.36961 0.0
C1458 C 0.06938 0.84956 0.36955 0.0
C1459 C 1.00929 0.80187 0.37009 0.0
C1460 C 0.03399 0.79649 0.37028 0.0
C1461 C 0.0894 0.81532 0.36907 0.0
C1462 C 0.11939 0.83949 0.36721 0.0
C1463 C 0.06422 0.82021 0.36975 0.0
C1464 C 0.12386 0.86842 0.3676 0.0
C1465 C 0.09926 0.87346 0.36871 0.0
H1466 H 0.13095 0.157 0.37586 0.0
H1467 H 0.20666 0.19862 0.42315 0.0
H1468 H 0.21425 0.24775 0.41236 0.0
H1469 H 0.19743 0.27871 0.3901 0.0
H1470 H 0.11927 0.23375 0.34502 0.0
H1471 H 0.1144 0.18645 0.35461 0.0
C1472 C 0.14903 0.17676 0.38401 0.0
C1473 C 0.16789 0.17408 0.40053 0.0
C1474 C 0.15276 0.20452 0.37813 0.0
C1475 C 0.19179 0.20005 0.41034 0.0
C1476 C 0.19597 0.22812 0.4043 0.0
C1477 C 0.17939 0.25852 0.38247 0.0
C1478 C 0.15921 0.26012 0.3664 0.0
C1479 C 0.17628 0.23064 0.38837 0.0
C1480 C 0.13581 0.23361 0.3568 0.0
C1481 C 0.13275 0.20629 0.36242 0.0
H1482 H 0.68497 0.52314 0.71277 0.0
H1483 H 0.63726 0.56977 0.73172 0.0
H1484 H 0.68145 0.61677 0.72042 0.0
H1485 H 0.73498 0.64525 0.70784 0.0
H1486 H 0.78293 0.59905 0.68897 0.0
H1487 H 0.73718 0.55139 0.69677 0.0
C1488 C 0.68398 0.54349 0.71405 0.0
C1489 C 0.65782 0.54279 0.72351 0.0
C1490 C 0.70957 0.57061 0.7074 0.0
C1491 C 0.65724 0.56956 0.72512 0.0
C1492 C 0.68247 0.59651 0.71849 0.0
C1493 C 0.73519 0.62467 0.70509 0.0
C1494 C 0.76218 0.62569 0.69757 0.0
C1495 C 0.70896 0.59739 0.71006 0.0
C1496 C 0.76233 0.59892 0.69432 0.0
C1497 C 0.7362 0.57163 0.699 0.0
H1498 H 0.51203 0.16633 0.72149 0.0
H1499 H 0.45802 0.07312 0.73834 0.0
H1500 H 0.41168 0.07394 0.7287 0.0
H1501 H 0.38576 0.10154 0.71827 0.0
H1502 H 0.43848 0.19373 0.69903 0.0
H1503 H 0.48587 0.19284 0.70645 0.0
C1504 C 0.4902 0.14608 0.72267 0.0
C1505 C 0.48871 0.11989 0.73132 0.0
C1506 C 0.46328 0.14653 0.71676 0.0
C1507 C 0.46002 0.09387 0.73254 0.0
C1508 C 0.43338 0.09422 0.7269 0.0
C1509 C 0.40768 0.12134 0.71545 0.0
C1510 C 0.40867 0.14756 0.70795 0.0
C1511 C 0.43466 0.12053 0.71955 0.0
C1512 C 0.43716 0.17315 0.70448 0.0
C1513 C 0.46423 0.17265 0.70885 0.0
H1514 H 0.921 0.36724 0.73742 0.0
H1515 H 0.83295 0.34776 0.71087 0.0
H1516 H 0.82517 0.30115 0.69529 0.0
H1517 H 0.84135 0.26415 0.69111 0.0
H1518 H 0.92529 0.27954 0.72261 0.0
H1519 H 0.93604 0.32901 0.73499 0.0
C1520 C 0.8998 0.35279 0.7286 0.0
C1521 C 0.87782 0.36175 0.72539 0.0
C1522 C 0.89448 0.32491 0.72073 0.0
C1523 C 0.85094 0.34249 0.71322 0.0
C1524 C 0.84614 0.31537 0.7045 0.0
C1525 C 0.86207 0.27832 0.70064 0.0
C1526 C 0.88253 0.26818 0.70591 0.0
C1527 C 0.86755 0.30621 0.70839 0.0
C1528 C 0.90913 0.28678 0.71841 0.0
C1529 C 0.91529 0.31507 0.72545 0.0
H1530 H 0.18352 0.99384 0.66721 0.0
H1531 H 0.24321 0.97059 0.63011 0.0
H1532 H 0.28727 0.0166 0.64279 0.0
H1533 H 0.30892 0.06471 0.66284 0.0
H1534 H 0.24966 0.0858 0.70269 0.0
H1535 H 0.20565 0.03881 0.69121 0.0
C1536 C 0.2061 0.99829 0.66226 0.0
C1537 C 0.20961 0.97865 0.64724 0.0
C1538 C 0.23161 0.02448 0.67021 0.0
C1539 C 0.23938 0.98547 0.64096 0.0
C1540 C 0.26477 0.01174 0.64842 0.0
C1541 C 0.28642 0.05889 0.66924 0.0
C1542 C 0.28265 0.079 0.68338 0.0
C1543 C 0.26114 0.03164 0.66274 0.0
C1544 C 0.25334 0.07087 0.69174 0.0
C1545 C 0.22807 0.04401 0.68508 0.0
H1546 H 0.01859 0.18098 0.654 0.0
H1547 H 0.06477 0.27581 0.64319 0.0
H1548 H 0.01918 0.27703 0.6552 0.0
H1549 H 0.96491 0.25097 0.6658 0.0
H1550 H 0.91805 0.15641 0.6769 0.0
H1551 H 0.96504 0.15537 0.6684 0.0
C1552 C 0.01887 0.20198 0.65466 0.0
C1553 C 0.04514 0.2282 0.6472 0.0
C1554 C 0.99232 0.2026 0.66168 0.0
C1555 C 0.04482 0.25515 0.6482 0.0
C1556 C 0.01873 0.25593 0.6552 0.0
C1557 C 0.96515 0.23021 0.6667 0.0
C1558 C 0.93809 0.20389 0.67223 0.0
C1559 C 0.99216 0.22976 0.66146 0.0
C1560 C 0.93864 0.17708 0.6731 0.0
C1561 C 0.96551 0.17646 0.66803 0.0
H1562 H 0.81334 0.83839 0.66097 0.0
H1563 H 0.79833 0.8067 0.59008 0.0
H1564 H 0.80028 0.76281 0.60212 0.0
H1565 H 0.80873 0.73429 0.63225 0.0
H1566 H 0.8286 0.76818 0.70228 0.0
H1567 H 0.82267 0.81019 0.69105 0.0
C1568 C 0.81068 0.82204 0.64807 0.0
C1569 C 0.80534 0.82603 0.62463 0.0
C1570 C 0.81278 0.79707 0.65495 0.0
C1571 C 0.80164 0.80417 0.60834 0.0
C1572 C 0.80307 0.77905 0.61516 0.0
C1573 C 0.81142 0.75063 0.64518 0.0
C1574 C 0.81878 0.74765 0.66827 0.0
C1575 C 0.80882 0.77533 0.63839 0.0
C1576 C 0.82269 0.76952 0.68453 0.0
C1577 C 0.8194 0.79374 0.67805 0.0
H1578 H 0.98725 0.84294 0.66673 0.0
H1579 H 0.04854 0.80827 0.65771 0.0
H1580 H 1.0049 0.7577 0.65667 0.0
H1581 H 0.94889 0.72303 0.66004 0.0
H1582 H 0.88979 0.75933 0.67266 0.0
H1583 H 0.93304 0.80936 0.67145 0.0
C1584 C 0.99139 0.82445 0.66496 0.0
C1585 C 0.02145 0.82971 0.66262 0.0
C1586 C 0.96644 0.79553 0.66532 0.0
C1587 C 0.02581 0.80518 0.65938 0.0
C1588 C 1.00082 0.77615 0.659 0.0
C1589 C 0.94567 0.74198 0.6626 0.0
C1590 C 0.91619 0.73737 0.66709 0.0
C1591 C 0.971 0.77103 0.66219 0.0
C1592 C 0.91218 0.76208 0.66996 0.0
C1593 C 0.93696 0.79081 0.66904 0.0
H1594 H 0.18299 0.14837 0.68038 0.0
H1595 H 0.21143 0.22234 0.6331 0.0
H1596 H 0.26399 0.23277 0.63598 0.0
H1597 H 0.3019 0.21881 0.64996 0.0
H1598 H 0.26969 0.13904 0.69061 0.0
H1599 H 0.21882 0.13235 0.69145 0.0
C1600 C 0.20021 0.16641 0.67009 0.0
C1601 C 0.19236 0.18411 0.65622 0.0
C1602 C 0.23015 0.17124 0.67059 0.0
C1603 C 0.21613 0.20827 0.64417 0.0
C1604 C 0.2464 0.21412 0.64558 0.0
C1605 C 0.28374 0.20011 0.65914 0.0
C1606 C 0.29027 0.18026 0.67128 0.0
C1607 C 0.25367 0.19547 0.65848 0.0
C1608 C 0.26608 0.15549 0.68214 0.0
C1609 C 0.23666 0.15146 0.68241 0.0
H1610 H 0.83366 0.01043 0.6251 0.0
H1611 H 0.88516 0.01157 0.68516 0.0
H1612 H 0.88191 0.05331 0.70126 0.0
H1613 H 0.86887 0.09199 0.6967 0.0
H1614 H 0.81679 0.09213 0.63753 0.0
H1615 H 0.81604 0.04755 0.62253 0.0
C1616 C 0.84362 0.01953 0.6419 0.0
C1617 C 0.85996 0.00814 0.6538 0.0
C1618 C 0.84192 0.04394 0.65106 0.0
C1619 C 0.87286 0.02021 0.67552 0.0
C1620 C 0.87102 0.04408 0.68475 0.0
C1621 C 0.8566 0.08203 0.68087 0.0
C1622 C 0.84273 0.09551 0.66849 0.0
C1623 C 0.85625 0.05653 0.67243 0.0
C1624 C 0.82766 0.08235 0.64756 0.0
C1625 C 0.82725 0.05681 0.63894 0.0
H1626 H 0.50912 0.35468 0.67218 0.0
H1627 H 0.51928 0.34951 0.74604 0.0
H1628 H 0.47086 0.30238 0.74772 0.0
H1629 H 0.42833 0.26001 0.72709 0.0
H1630 H 0.41757 0.26743 0.65355 0.0
H1631 H 0.4633 0.3161 0.65269 0.0
C1632 C 0.50037 0.34343 0.68867 0.0
C1633 C 0.51763 0.35531 0.70893 0.0
C1634 C 0.47263 0.31651 0.68945 0.0
C1635 C 0.50618 0.34073 0.73026 0.0
C1636 C 0.47863 0.31373 0.73118 0.0
C1637 C 0.43572 0.27258 0.71101 0.0
C1638 C 0.42029 0.25959 0.69016 0.0
C1639 C 0.46199 0.30101 0.71076 0.0
C1640 C 0.42993 0.27626 0.66953 0.0
C1641 C 0.45591 0.3043 0.6691 0.0
H1642 H 0.71414 0.20311 0.71412 0.0
H1643 H 0.6504 0.10888 0.71521 0.0
H1644 H 0.69294 0.09903 0.71208 0.0
H1645 H 0.74889 0.11757 0.70775 0.0
H1646 H 0.81018 0.2119 0.70331 0.0
H1647 H 0.76796 0.22118 0.70785 0.0
C1648 C 0.7091 0.18027 0.71315 0.0
C1649 C 0.6786 0.15685 0.71459 0.0
C1650 C 0.73346 0.17476 0.71034 0.0
C1651 C 0.67338 0.12753 0.71436 0.0
C1652 C 0.69778 0.12184 0.71233 0.0
C1653 C 0.75283 0.14009 0.70759 0.0
C1654 C 0.78277 0.16401 0.70442 0.0
C1655 C 0.72799 0.14531 0.7101 0.0
C1656 C 0.78753 0.19307 0.70474 0.0
C1657 C 0.76329 0.19841 0.70767 0.0
H1658 H 0.86678 0.53122 0.73536 0.0
H1659 H 0.81997 0.48753 0.67235 0.0
H1660 H 0.82368 0.53352 0.65823 0.0
H1661 H 0.83464 0.58391 0.66573 0.0
H1662 H 0.88205 0.62917 0.72815 0.0
H1663 H 0.88347 0.58483 0.74066 0.0
C1664 C 0.85815 0.5321 0.71832 0.0
C1665 C 0.84298 0.50601 0.70495 0.0
C1666 C 0.85995 0.5587 0.71039 0.0
C1667 C 0.83161 0.50731 0.68297 0.0
C1668 C 0.83359 0.53355 0.67494 0.0
C1669 C 0.84606 0.58458 0.68175 0.0
C1670 C 0.85825 0.6101 0.69583 0.0
C1671 C 0.84688 0.5591 0.68879 0.0
C1672 C 0.87238 0.60995 0.71686 0.0
C1673 C 0.8732 0.58452 0.72408 0.0
H1674 H 0.48981 0.91838 0.26131 0.0
H1675 H 0.3976 0.88301 0.23694 0.0
H1676 H 0.41631 0.9117 0.20108 0.0
H1677 H 0.45874 0.94945 0.17754 0.0
H1678 H 0.55101 0.98437 0.20167 0.0
H1679 H 0.53246 0.95328 0.23638 0.0
C1680 C 0.47383 0.9166 0.24801 0.0
C1681 C 0.44229 0.89881 0.25208 0.0
C1682 C 0.48476 0.93332 0.22733 0.0
C1683 C 0.42197 0.89696 0.23459 0.0
C1684 C 0.43265 0.91329 0.21397 0.0
C1685 C 0.47483 0.94991 0.19019 0.0
C1686 C 0.50625 0.96959 0.18701 0.0
C1687 C 0.46399 0.93197 0.21029 0.0
C1688 C 0.52667 0.96994 0.20379 0.0
C1689 C 0.51609 0.95204 0.22366 0.0
H1690 H 0.10787 0.51007 0.23128 0.0
H1691 H 0.08448 0.57308 0.25971 0.0
H1692 H 0.05149 0.56566 0.22636 0.0
H1693 H 0.03009 0.54195 0.1888 0.0
H1694 H 0.05402 0.47944 0.16003 0.0
H1695 H 0.08622 0.48614 0.19372 0.0
C1696 C 0.09524 0.52189 0.23028 0.0
C1697 C 0.09843 0.54196 0.24799 0.0
C1698 C 0.07665 0.51779 0.21091 0.0
C1699 C 0.08243 0.55758 0.24626 0.0
C1700 C 0.06358 0.55332 0.22722 0.0
C1701 C 0.04214 0.52959 0.19 0.0
C1702 C 0.03958 0.51016 0.17194 0.0
C1703 C 0.06063 0.53359 0.2094 0.0
C1704 C 0.05581 0.49474 0.17357 0.0
C1705 C 0.07408 0.49843 0.1929 0.0
H1706 H 0.49576 0.60131 0.23352 0.0
H1707 H 0.46063 0.51762 0.26944 0.0
H1708 H 0.4732 0.4966 0.23596 0.0
H1709 H 0.49744 0.50308 0.19752 0.0
H1710 H 0.53293 0.58692 0.16178 0.0
H1711 H 0.517 0.6068 0.19409 0.0
C1712 C 0.49076 0.57843 0.23397 0.0
C1713 C 0.47751 0.56114 0.25404 0.0
C1714 C 0.49831 0.56658 0.21474 0.0
C1715 C 0.47065 0.53136 0.25418 0.0
C1716 C 0.47806 0.5194 0.23511 0.0
C1717 C 0.50164 0.52569 0.19682 0.0
C1718 C 0.51658 0.54357 0.17735 0.0
C1719 C 0.49243 0.53697 0.21548 0.0
C1720 C 0.52136 0.57265 0.1765 0.0
C1721 C 0.51239 0.58408 0.19502 0.0
H1722 H 0.94734 0.48215 0.77803 0.0
H1723 H 0.89142 0.39432 0.80627 0.0
H1724 H 0.92074 0.40915 0.84234 0.0
H1725 H 0.96428 0.44611 0.86488 0.0
H1726 H 0.02173 0.53346 0.83623 0.0
H1727 H 0.98997 0.51992 0.80138 0.0
C1728 C 0.94144 0.46647 0.79225 0.0
C1729 C 0.91741 0.4372 0.78954 0.0
C1730 C 0.95882 0.475 0.81277 0.0
C1731 C 0.91004 0.41692 0.80795 0.0
C1732 C 0.92676 0.42538 0.82855 0.0
C1733 C 0.96956 0.4623 0.85115 0.0
C1734 C 0.99533 0.49071 0.85311 0.0
C1735 C 0.95149 0.45421 0.83103 0.0
C1736 C 1.00216 0.51134 0.83502 0.0
C1737 C 0.98397 0.50364 0.81512 0.0
H1738 H 0.61569 0.51764 0.80316 0.0
H1739 H 0.53088 0.45955 0.76863 0.0
H1740 H 0.5024 0.46041 0.80268 0.0
H1741 H 0.50139 0.4782 0.84199 0.0
H1742 H 0.5859 0.53682 0.87661 0.0
H1743 H 0.61463 0.53507 0.84292 0.0
C1744 C 0.59098 0.50531 0.80306 0.0
C1745 C 0.57547 0.48855 0.78334 0.0
C1746 C 0.57467 0.50593 0.82274 0.0
C1747 C 0.54342 0.47235 0.78365 0.0
C1748 C 0.52709 0.47295 0.80307 0.0
C1749 C 0.5261 0.49075 0.84212 0.0
C1750 C 0.54143 0.50772 0.86178 0.0
C1751 C 0.54245 0.48975 0.82267 0.0
C1752 C 0.57349 0.52338 0.86181 0.0
C1753 C 0.58995 0.52253 0.84248 0.0
H1754 H 0.56737 0.11325 0.8124 0.0
H1755 H 0.49565 0.04375 0.772 0.0
H1756 H 0.47901 0.01091 0.80564 0.0
H1757 H 0.4822 1.00287 0.84678 0.0
H1758 H 0.55547 0.07 0.88779 0.0
H1759 H 0.5733 0.10306 0.854 0.0
C1760 C 0.54851 0.09073 0.81094 0.0
C1761 C 0.53264 0.08103 0.78973 0.0
C1762 C 0.53882 0.07174 0.83059 0.0
C1763 C 0.50808 0.05183 0.78814 0.0
C1764 C 0.49846 0.03305 0.80741 0.0
C1765 C 0.50255 0.0244 0.84843 0.0
C1766 C 0.51736 0.03356 0.87009 0.0
C1767 C 0.51327 0.04292 0.8288 0.0
C1768 C 0.54309 0.06221 0.87163 0.0
C1769 C 0.55358 0.08112 0.85216 0.0
H1770 H 0.08373 0.25015 0.56827 0.0
H1771 H 0.17293 0.27926 0.59698 0.0
H1772 H 0.19664 0.30828 0.5619 0.0
H1773 H 0.19216 0.32611 0.52334 0.0
H1774 H 0.10302 0.29821 0.49499 0.0
H1775 H 0.07927 0.26787 0.52952 0.0
C1776 C 0.10836 0.26305 0.56696 0.0
C1777 C 0.12648 0.26258 0.58537 0.0
C1778 C 0.1219 0.27983 0.54672 0.0
C1779 C 0.15839 0.27898 0.58308 0.0
C1780 C 0.17198 0.29571 0.56303 0.0
C1781 C 0.16752 0.31358 0.52474 0.0
C1782 C 0.14948 0.31464 0.50652 0.0
C1783 C 0.15398 0.29641 0.54479 0.0
C1784 C 0.11756 0.29766 0.50854 0.0
C1785 C 0.10392 0.28044 0.5284 0.0
H1786 H 0.72818 0.83944 0.57872 0.0
H1787 H 0.81103 0.91075 0.5497 0.0
H1788 H 0.78771 0.90087 0.51116 0.0
H1789 H 0.74627 0.86727 0.4849 0.0
H1790 H 0.6639 0.79538 0.51415 0.0
H1791 H 0.68445 0.81011 0.55327 0.0
C1792 C 0.74091 0.8531 0.564 0.0
C1793 C 0.77133 0.87559 0.56701 0.0
C1794 C 0.72758 0.8469 0.54184 0.0
C1795 C 0.7875 0.8934 0.54787 0.0
C1796 C 0.77427 0.88758 0.52577 0.0
C1797 C 0.73255 0.85532 0.49988 0.0
C1798 C 0.70383 0.82995 0.49659 0.0
C1799 C 0.74468 0.86373 0.52241 0.0
C1800 C 0.68634 0.81463 0.51619 0.0
C1801 C 0.69805 0.82305 0.53858 0.0
H1802 H 0.20714 0.91378 0.58985 0.0
H1803 H 0.11657 0.89262 0.56923 0.0
H1804 H 0.12389 0.87471 0.53162 0.0
H1805 H 0.15659 0.86511 0.50443 0.0
H1806 H 0.24794 0.88951 0.52559 0.0
H1807 H 0.23998 0.90693 0.56278 0.0
C1808 C 0.18906 0.90576 0.57706 0.0
C1809 C 0.16142 0.90487 0.58246 0.0
C1810 C 0.19366 0.8962 0.55539 0.0
C1811 C 0.13802 0.8934 0.56577 0.0
C1812 C 0.1423 0.88337 0.54413 0.0
C1813 C 0.1748 0.87457 0.5171 0.0
C1814 C 0.20271 0.87562 0.51228 0.0
C1815 C 0.17011 0.88474 0.53869 0.0
C1816 C 0.22606 0.88788 0.52895 0.0
C1817 C 0.22158 0.89793 0.55025 0.0
H1818 H 0.65565 0.7823 0.12106 0.0
H1819 H 0.58528 0.80011 0.14491 0.0
H1820 H 0.61599 0.82592 0.17891 0.0
H1821 H 0.66387 0.84494 0.20128 0.0
H1822 H 0.73302 0.8254 0.17745 0.0
H1823 H 0.70138 0.79816 0.14438 0.0
C1824 C 0.64668 0.79134 0.13385 0.0
C1825 C 0.61814 0.78925 0.13026 0.0
C1826 C 0.66428 0.80585 0.15346 0.0
C1827 C 0.60734 0.80174 0.14691 0.0
C1828 C 0.62482 0.81633 0.1665 0.0
C1829 C 0.67177 0.83433 0.18902 0.0
C1830 C 0.70093 0.83749 0.19172 0.0
C1831 C 0.65345 0.81873 0.16988 0.0
C1832 C 0.71092 0.82376 0.17558 0.0
C1833 C 0.69281 0.80811 0.15668 0.0
H1834 H 0.28262 0.85017 0.13539 0.0
H1835 H 0.19626 0.79547 0.10171 0.0
H1836 H 0.16965 0.80266 0.13444 0.0
H1837 H 0.1708 0.82402 0.17283 0.0
H1838 H 0.25713 0.87885 0.20655 0.0
H1839 H 0.28379 0.87198 0.1737 0.0
C1840 C 0.258 0.8401 0.13511 0.0
C1841 C 0.24146 0.82237 0.11608 0.0
C1842 C 0.24281 0.84421 0.15407 0.0
C1843 C 0.20951 0.80903 0.1162 0.0
C1844 C 0.19429 0.8132 0.13489 0.0
C1845 C 0.19548 0.83471 0.17291 0.0
C1846 C 0.2119 0.85196 0.19217 0.0
C1847 C 0.21068 0.83068 0.15394 0.0
C1848 C 0.24385 0.86519 0.19211 0.0
C1849 C 0.25915 0.86142 0.17326 0.0
H1850 H 0.15826 0.3904 0.10822 0.0
H1851 H 0.24583 0.45861 0.13293 0.0
H1852 H 0.23694 0.43211 0.16997 0.0
H1853 H 0.20352 0.38927 0.19565 0.0
H1854 H 0.11498 0.32354 0.17047 0.0
H1855 H 0.12468 0.34993 0.13371 0.0
C1856 C 0.17534 0.39988 0.12177 0.0
C1857 C 0.20259 0.42673 0.11769 0.0
C1858 C 0.16975 0.38501 0.14314 0.0
C1859 C 0.22473 0.43791 0.13536 0.0
C1860 C 0.21953 0.42288 0.15668 0.0
C1861 C 0.18627 0.38099 0.18219 0.0
C1862 C 0.15866 0.35422 0.18578 0.0
C1863 C 0.19198 0.39644 0.16085 0.0
C1864 C 0.13661 0.34375 0.16809 0.0
C1865 C 0.1421 0.35885 0.14703 0.0
H1866 H 0.75489 0.58677 0.90031 0.0
H1867 H 0.84134 0.61473 0.93355 0.0
H1868 H 0.86815 0.64396 0.89927 0.0
H1869 H 0.86718 0.6619 0.86001 0.0
H1870 H 0.78095 0.63468 0.82666 0.0
H1871 H 0.75397 0.60462 0.86066 0.0
C1872 C 0.77959 0.59948 0.90011 0.0
C1873 C 0.79607 0.59863 0.91953 0.0
C1874 C 0.79492 0.61622 0.88025 0.0
C1875 C 0.8281 0.61481 0.9188 0.0
C1876 C 0.84345 0.63161 0.89923 0.0
C1877 C 0.84246 0.64957 0.86022 0.0
C1878 C 0.82616 0.65073 0.8408 0.0
C1879 C 0.82711 0.63252 0.87988 0.0
C1880 C 0.79413 0.63404 0.84123 0.0
C1881 C 0.77867 0.61699 0.86076 0.0
H1882 H 0.44471 0.17919 0.90545 0.0
H1883 H 0.42307 0.24066 0.93944 0.0
H1884 H 0.39579 0.2419 0.905 0.0
H1885 H 0.377 0.22481 0.86565 0.0
H1886 H 0.396 0.16132 0.83214 0.0
H1887 H 0.42544 0.16173 0.86591 0.0
C1888 C 0.43382 0.19267 0.90542 0.0
C1889 C 0.43603 0.20981 0.92511 0.0
C1890 C 0.41771 0.19298 0.88561 0.0
C1891 C 0.42218 0.22756 0.92449 0.0
C1892 C 0.40636 0.22814 0.90483 0.0
C1893 C 0.38731 0.21082 0.86577 0.0
C1894 C 0.38409 0.19296 0.84636 0.0
C1895 C 0.40381 0.21081 0.88537 0.0
C1896 C 0.3983 0.17553 0.84669 0.0
C1897 C 0.41499 0.17559 0.86608 0.0
H1898 H 0.86819 0.23641 0.9273 0.0
H1899 H 0.7777 0.21498 0.90612 0.0
H1900 H 0.78562 0.19779 0.86847 0.0
H1901 H 0.81877 0.18899 0.84126 0.0
H1902 H 0.91016 0.21395 0.86264 0.0
H1903 H 0.90165 0.23054 0.90005 0.0
C1904 C 0.85024 0.22846 0.9144 0.0
C1905 C 0.82241 0.22722 0.91973 0.0
C1906 C 0.85523 0.21943 0.89259 0.0
C1907 C 0.79925 0.2159 0.90282 0.0
C1908 C 0.80388 0.20633 0.88111 0.0
C1909 C 0.83689 0.19843 0.85402 0.0
C1910 C 0.86496 0.19986 0.84919 0.0
C1911 C 0.83187 0.20809 0.87573 0.0
C1912 C 0.88817 0.21207 0.866 0.0
C1913 C 0.88335 0.22162 0.88743 0.0
H1914 H 0.28582 0.1417 0.45582 0.0
H1915 H 0.21719 0.05748 0.48334 0.0
H1916 H 0.24548 0.06725 0.51981 0.0
H1917 H 0.29104 0.09866 0.54299 0.0
H1918 H 0.36147 0.18153 0.5147 0.0
H1919 H 0.33139 0.17358 0.47939 0.0
C1920 C 0.27709 0.12575 0.46997 0.0
C1921 C 0.2496 0.09903 0.46717 0.0
C1922 C 0.29388 0.13123 0.4906 0.0
C1923 C 0.2384 0.0782 0.48533 0.0
C1924 C 0.25454 0.08377 0.50609 0.0
C1925 C 0.29956 0.11509 0.52918 0.0
C1926 C 0.32829 0.14064 0.53137 0.0
C1927 C 0.28247 0.11004 0.50881 0.0
C1928 C 0.33942 0.16162 0.51326 0.0
C1929 C 0.32224 0.1571 0.49313 0.0
H1930 H 0.94732 0.18153 0.46986 0.0
H1931 H 0.861 0.13111 0.43511 0.0
H1932 H 0.83462 0.13689 0.46867 0.0
H1933 H 0.83582 0.15511 0.50824 0.0
H1934 H 0.92183 0.20492 0.54358 0.0
H1935 H 0.94851 0.20025 0.50966 0.0
C1936 C 0.92278 0.17213 0.46959 0.0
C1937 C 0.90613 0.15599 0.45 0.0
C1938 C 0.90767 0.17516 0.48915 0.0
C1939 C 0.87429 0.14352 0.45001 0.0
C1940 C 0.8592 0.14682 0.4692 0.0
C1941 C 0.86044 0.16519 0.50847 0.0
C1942 C 0.87676 0.18041 0.52846 0.0
C1943 C 0.87561 0.1624 0.48892 0.0
C1944 C 0.90863 0.19283 0.52855 0.0
C1945 C 0.92393 0.19033 0.50909 0.0
H1946 H 0.85137 0.78483 0.46461 0.0
H1947 H 0.89103 0.73894 0.42903 0.0
H1948 H 0.88317 0.70831 0.4635 0.0
H1949 H 0.86298 0.69302 0.50316 0.0
H1950 H 0.82421 0.73936 0.53925 0.0
H1951 H 0.83407 0.77156 0.50538 0.0
C1952 C 0.85828 0.76811 0.46445 0.0
C1953 C 0.87155 0.76399 0.4442 0.0
C1954 C 0.85391 0.75071 0.48445 0.0
C1955 C 0.88086 0.7426 0.44438 0.0
C1956 C 0.87627 0.72501 0.46407 0.0
C1957 C 0.85679 0.71026 0.50363 0.0
C1958 C 0.84266 0.71363 0.52365 0.0
C1959 C 0.86254 0.72866 0.4841 0.0
C1960 C 0.83524 0.73638 0.52413 0.0
C1961 C 0.84069 0.75466 0.50469 0.0
loop_
_geom_bond_atom_site_label_1
_geom_bond_atom_site_label_2
_geom_bond_distance
_geom_bond_site_symmetry_2
_ccdc_geom_bond_type
H0 C1 0.949 . S
C1 H0 0.949 . S
C1 C2 1.395 . S
C1 C3 1.391 . S
C2 C1 1.395 . S
C2 C5 1.390 . S
C3 C1 1.391 . S
C3 C7 1.387 . S
C3 C8 1.491 . S
H4 C5 0.950 . S
C5 C2 1.390 . S
C5 H4 0.950 . S
C5 C6 1.378 . S
C6 C5 1.378 . S
C6 C7 1.409 . S
C7 C3 1.387 . S
C7 C6 1.409 . S
C7 H9 0.951 . S
C8 C3 1.491 . S
C8 C10 1.382 . S
C8 C12 1.404 . S
H9 C7 0.951 . S
C10 C8 1.382 . S
C10 C11 1.390 . S
C10 H15 0.949 . S
C11 C10 1.390 . S
C11 C16 1.399 . S
C12 C8 1.404 . S
C12 H13 0.950 . S
C12 C14 1.375 . S
H13 C12 0.950 . S
C14 C12 1.375 . S
C14 C16 1.382 . S
C14 H18 0.950 . S
H15 C10 0.949 . S
C16 C11 1.399 . S
C16 C14 1.382 . S
C16 H17 0.952 . S
H17 C16 0.952 . S
H18 C14 0.950 . S
H19 C20 0.949 . S
C20 H19 0.949 . S
C20 C21 1.395 . S
C20 C22 1.391 . S
C21 C20 1.395 . S
C21 C24 1.390 . S
C22 C20 1.391 . S
C22 C26 1.387 . S
C22 C27 1.491 . S
H23 C24 0.950 . S
C24 C21 1.390 . S
C24 H23 0.950 . S
C24 C25 1.378 . S
C25 C24 1.378 . S
C25 C26 1.409 . S
C26 C22 1.387 . S
C26 C25 1.409 . S
C26 H28 0.951 . S
C27 C22 1.491 . S
C27 C29 1.382 . S
C27 C31 1.404 . S
H28 C26 0.951 . S
C29 C27 1.382 . S
C29 C30 1.390 . S
C29 H34 0.949 . S
C30 C29 1.390 . S
C30 C35 1.415 . S
C31 C27 1.404 . S
C31 H32 0.950 . S
C31 C33 1.375 . S
H32 C31 0.950 . S
C33 C31 1.375 . S
C33 C35 1.387 . S
C33 H37 0.950 . S
H34 C29 0.949 . S
C35 C30 1.415 . S
C35 C33 1.387 . S
C35 H36 0.931 1_545 S
H36 C35 0.931 1_565 S
H37 C33 0.950 . S
H38 C39 0.949 . S
C39 H38 0.949 . S
C39 C40 1.395 . S
C39 C41 1.391 . S
C40 C39 1.395 . S
C40 C43 1.390 . S
C41 C39 1.391 . S
C41 C45 1.387 . S
C41 C46 1.491 . S
H42 C43 0.950 . S
C43 C40 1.390 . S
C43 H42 0.950 . S
C43 C44 1.378 . S
C44 C43 1.378 . S
C44 C45 1.409 . S
C45 C41 1.387 . S
C45 C44 1.409 . S
C45 H47 0.951 . S
C46 C41 1.491 . S
C46 C48 1.382 . S
C46 C50 1.404 . S
H47 C45 0.951 . S
C48 C46 1.382 . S
C48 C49 1.390 1_655 S
C48 H53 0.949 . S
C49 C48 1.390 1_455 S
C49 C54 1.399 . S
C50 C46 1.404 . S
C50 H51 0.950 . S
C50 C52 1.375 . S
H51 C50 0.950 . S
C52 C50 1.375 . S
C52 C54 1.382 1_655 S
C52 H56 0.950 . S
H53 C48 0.949 . S
C54 C49 1.399 . S
C54 C52 1.382 1_455 S
C54 H55 0.952 . S
H55 C54 0.952 . S
H56 C52 0.950 . S
H57 C58 0.949 . S
C58 H57 0.949 . S
C58 C59 1.395 . S
C58 C60 1.391 . S
C59 C58 1.395 . S
C59 C62 1.390 . S
C60 C58 1.391 . S
C60 C64 1.387 . S
C60 C65 1.491 . S
H61 C62 0.950 . S
C62 C59 1.390 . S
C62 H61 0.950 . S
C62 C63 1.378 . S
C63 C62 1.378 . S
C63 C64 1.409 . S
C64 C60 1.387 . S
C64 C63 1.409 . S
C64 H66 0.951 . S
C65 C60 1.491 . S
C65 C67 1.382 . S
C65 C69 1.404 . S
H66 C64 0.951 . S
C67 C65 1.382 . S
C67 C68 1.390 . S
C67 H72 0.949 . S
C68 C67 1.390 . S
C68 C73 1.399 . S
C69 C65 1.404 . S
C69 H70 0.950 . S
C69 C71 1.375 . S
H70 C69 0.950 . S
C71 C69 1.375 . S
C71 C73 1.382 . S
C71 H75 0.950 . S
H72 C67 0.949 . S
C73 C68 1.399 . S
C73 C71 1.382 . S
C73 H74 0.952 . S
H74 C73 0.952 . S
H75 C71 0.950 . S
H76 C77 0.949 . S
C77 H76 0.949 . S
C77 C78 1.395 . S
C77 C79 1.391 . S
C78 C77 1.395 . S
C78 C81 1.390 . S
C79 C77 1.391 . S
C79 C83 1.387 . S
C79 C84 1.491 . S
H80 C81 0.950 . S
C81 C78 1.390 . S
C81 H80 0.950 . S
C81 C82 1.378 . S
C82 C81 1.378 . S
C82 C83 1.409 . S
C83 C79 1.387 . S
C83 C82 1.409 . S
C83 H85 0.951 . S
C84 C79 1.491 . S
C84 C86 1.382 . S
C84 C88 1.404 . S
H85 C83 0.951 . S
C86 C84 1.382 . S
C86 C87 1.390 . S
C86 H91 0.949 . S
C87 C86 1.390 . S
C87 C92 1.399 1_565 S
C88 C84 1.404 . S
C88 H89 0.950 . S
C88 C90 1.375 . S
H89 C88 0.950 . S
C90 C88 1.375 . S
C90 C92 1.382 1_565 S
C90 H94 0.950 . S
H91 C86 0.949 . S
C92 C87 1.399 1_545 S
C92 C90 1.382 1_545 S
C92 H93 0.952 . S
H93 C92 0.952 . S
H94 C90 0.950 . S
H95 C96 0.949 . S
C96 H95 0.949 . S
C96 C97 1.395 . S
C96 C98 1.391 . S
C97 C96 1.395 . S
C97 C100 1.390 . S
C98 C96 1.391 . S
C98 C102 1.387 . S
C98 C103 1.491 . S
H99 C100 0.950 . S
C100 C97 1.390 . S
C100 H99 0.950 . S
C100 C101 1.378 . S
C101 C100 1.378 . S
C101 C102 1.409 . S
C102 C98 1.387 . S
C102 C101 1.409 . S
C102 H104 0.951 . S
C103 C98 1.491 . S
C103 C105 1.382 . S
C103 C107 1.404 . S
H104 C102 0.951 . S
C105 C103 1.382 . S
C105 C106 1.390 . S
C105 H110 0.949 . S
C106 C105 1.390 . S
C106 C111 1.399 1_455 S
C107 C103 1.404 . S
C107 H108 0.950 . S
C107 C109 1.375 . S
H108 C107 0.950 . S
C109 C107 1.375 . S
C109 C111 1.382 1_455 S
C109 H113 0.950 . S
H110 C105 0.949 . S
C111 C106 1.399 1_655 S
C111 C109 1.382 1_655 S
C111 H112 0.952 . S
H112 C111 0.952 . S
H113 C109 0.950 . S
H114 C115 0.949 . S
C115 H114 0.949 . S
C115 C116 1.395 . S
C115 C117 1.391 . S
C116 C115 1.395 . S
C116 C119 1.390 . S
C117 C115 1.391 . S
C117 C121 1.387 . S
C117 C122 1.491 . S
H118 C119 0.950 . S
C119 C116 1.390 . S
C119 H118 0.950 . S
C119 C120 1.378 . S
C120 C119 1.378 . S
C120 C121 1.409 . S
C121 C117 1.387 . S
C121 C120 1.409 . S
C121 H123 0.951 . S
C122 C117 1.491 . S
C122 C124 1.382 . S
C122 C126 1.404 . S
H123 C121 0.951 . S
C124 C122 1.382 . S
C124 C125 1.390 . S
C124 H129 0.949 . S
C125 C124 1.390 . S
C125 C130 1.399 . S
C126 C122 1.404 . S
C126 H127 0.950 . S
C126 C128 1.375 . S
H127 C126 0.950 . S
C128 C126 1.375 . S
C128 C130 1.382 . S
C128 H132 0.950 . S
H129 C124 0.949 . S
C130 C125 1.399 . S
C130 C128 1.382 . S
C130 H131 0.952 . S
H131 C130 0.952 . S
H132 C128 0.950 . S
H133 C134 0.949 . S
C134 H133 0.949 . S
C134 C135 1.395 . S
C134 C136 1.391 . S
C135 C134 1.395 . S
C135 C138 1.390 . S
C136 C134 1.391 . S
C136 C140 1.387 . S
C136 C141 1.491 . S
H137 C138 0.950 . S
C138 C135 1.390 . S
C138 H137 0.950 . S
C138 C139 1.378 . S
C139 C138 1.378 . S
C139 C140 1.409 . S
C140 C136 1.387 . S
C140 C139 1.409 . S
C140 H142 0.951 . S
C141 C136 1.491 . S
C141 C143 1.382 . S
C141 C145 1.404 . S
H142 C140 0.951 . S
C143 C141 1.382 . S
C143 C144 1.390 . S
C143 H148 0.949 . S
C144 C143 1.390 . S
C144 C149 1.399 . S
C145 C141 1.404 . S
C145 H146 0.950 . S
C145 C147 1.375 . S
H146 C145 0.950 . S
C147 C145 1.375 . S
C147 C149 1.382 . S
C147 H151 0.950 . S
H148 C143 0.949 . S
C149 C144 1.399 . S
C149 C147 1.382 . S
C149 H150 0.952 . S
H150 C149 0.952 . S
H151 C147 0.950 . S
H152 C153 0.949 . S
C153 H152 0.949 . S
C153 C154 1.395 . S
C153 C155 1.391 . S
C154 C153 1.395 . S
C154 C157 1.390 . S
C155 C153 1.391 . S
C155 C159 1.387 . S
C155 C160 1.491 . S
H156 C157 0.950 . S
C157 C154 1.390 . S
C157 H156 0.950 . S
C157 C158 1.378 . S
C158 C157 1.378 . S
C158 C159 1.409 . S
C159 C155 1.387 . S
C159 C158 1.409 . S
C159 H161 0.951 . S
C160 C155 1.491 . S
C160 C162 1.382 . S
C160 C164 1.404 . S
H161 C159 0.951 . S
C162 C160 1.382 . S
C162 C163 1.390 . S
C162 H167 0.949 . S
C163 C162 1.390 . S
C163 C168 1.399 . S
C164 C160 1.404 . S
C164 H165 0.950 . S
C164 C166 1.375 . S
H165 C164 0.950 . S
C166 C164 1.375 . S
C166 C168 1.382 . S
C166 H170 0.950 . S
H167 C162 0.949 . S
C168 C163 1.399 . S
C168 C166 1.382 . S
C168 H169 0.952 . S
H169 C168 0.952 . S
H170 C166 0.950 . S
H171 C172 0.949 . S
C172 H171 0.949 . S
C172 C173 1.395 . S
C172 C174 1.391 . S
C173 C172 1.395 . S
C173 C176 1.390 . S
C174 C172 1.391 . S
C174 C178 1.387 . S
C174 C179 1.491 . S
H175 C176 0.950 . S
C176 C173 1.390 . S
C176 H175 0.950 . S
C176 C177 1.378 . S
C177 C176 1.378 . S
C177 C178 1.409 . S
C178 C174 1.387 . S
C178 C177 1.409 . S
C178 H180 0.951 . S
C179 C174 1.491 . S
C179 C181 1.382 . S
C179 C183 1.404 . S
H180 C178 0.951 . S
C181 C179 1.382 . S
C181 C182 1.390 . S
C181 H186 0.949 . S
C182 C181 1.390 . S
C182 C187 1.399 . S
C183 C179 1.404 . S
C183 H184 0.950 . S
C183 C185 1.375 . S
H184 C183 0.950 . S
C185 C183 1.375 . S
C185 C187 1.382 . S
C185 H189 0.949 1_556 S
H186 C181 0.949 . S
C187 C182 1.399 . S
C187 C185 1.382 . S
C187 H188 0.952 . S
H188 C187 0.952 . S
H189 C185 0.949 1_554 S
H190 C191 0.949 . S
C191 H190 0.949 . S
C191 C192 1.395 . S
C191 C193 1.391 . S
C192 C191 1.395 . S
C192 C195 1.390 . S
C193 C191 1.391 . S
C193 C197 1.387 . S
C193 C198 1.491 . S
H194 C195 0.950 . S
C195 C192 1.390 . S
C195 H194 0.950 . S
C195 C196 1.378 . S
C196 C195 1.378 . S
C196 C197 1.409 . S
C197 C193 1.387 . S
C197 C196 1.409 . S
C197 H199 0.951 . S
C198 C193 1.491 . S
C198 C200 1.382 . S
C198 C202 1.404 . S
H199 C197 0.951 . S
C200 C198 1.382 . S
C200 C201 1.390 . S
C200 H205 0.949 . S
C201 C200 1.390 . S
C201 C206 1.395 1_556 S
C202 C198 1.404 . S
C202 H203 0.950 . S
C202 C204 1.375 1_556 S
H203 C202 0.950 . S
C204 C202 1.375 1_554 S
C204 C206 1.383 . S
C204 H208 0.950 . S
H205 C200 0.949 . S
C206 C201 1.395 1_554 S
C206 C204 1.383 . S
C206 H207 0.955 . S
H207 C206 0.955 . S
H208 C204 0.950 . S
H209 C210 0.949 . S
C210 H209 0.949 . S
C210 C211 1.395 . S
C210 C212 1.391 . S
C211 C210 1.395 . S
C211 C214 1.390 . S
C212 C210 1.391 . S
C212 C216 1.387 . S
C212 C217 1.491 . S
H213 C214 0.950 . S
C214 C211 1.390 . S
C214 H213 0.950 . S
C214 C215 1.378 . S
C215 C214 1.378 . S
C215 C216 1.409 . S
C216 C212 1.387 . S
C216 C215 1.409 . S
C216 H218 0.951 . S
C217 C212 1.491 . S
C217 C219 1.382 . S
C217 C221 1.404 . S
H218 C216 0.951 . S
C219 C217 1.382 . S
C219 C220 1.390 . S
C219 H224 0.949 . S
C220 C219 1.390 . S
C220 C225 1.399 . S
C221 C217 1.404 . S
C221 H222 0.950 . S
C221 C223 1.375 . S
H222 C221 0.950 . S
C223 C221 1.375 . S
C223 C225 1.382 . S
C223 H227 0.950 1_556 S
H224 C219 0.949 . S
C225 C220 1.399 . S
C225 C223 1.382 . S
C225 H226 0.952 1_556 S
H226 C225 0.952 1_554 S
H227 C223 0.950 1_554 S
H228 C229 0.949 . S
C229 H228 0.949 . S
C229 C230 1.395 . S
C229 C231 1.391 . S
C230 C229 1.395 . S
C230 C233 1.390 . S
C231 C229 1.391 . S
C231 C235 1.387 . S
C231 C236 1.491 . S
H232 C233 0.950 . S
C233 C230 1.390 . S
C233 H232 0.950 . S
C233 C234 1.378 . S
C234 C233 1.378 . S
C234 C235 1.409 . S
C235 C231 1.387 . S
C235 C234 1.409 . S
C235 H237 0.951 . S
C236 C231 1.491 . S
C236 C238 1.382 . S
C236 C240 1.404 . S
H237 C235 0.951 . S
C238 C236 1.382 . S
C238 C239 1.390 . S
C238 H243 0.949 . S
C239 C238 1.390 . S
C239 C244 1.399 . S
C240 C236 1.404 . S
C240 H241 0.950 . S
C240 C242 1.375 . S
H241 C240 0.950 . S
C242 C240 1.375 . S
C242 C244 1.382 . S
C242 H246 0.950 . S
H243 C238 0.949 . S
C244 C239 1.399 . S
C244 C242 1.382 . S
C244 H245 0.952 . S
H245 C244 0.952 . S
H246 C242 0.950 . S
H247 C248 0.949 . S
C248 H247 0.949 . S
C248 C249 1.395 . S
C248 C250 1.391 . S
C249 C248 1.395 . S
C249 C252 1.390 . S
C250 C248 1.391 . S
C250 C254 1.387 . S
C250 C255 1.491 . S
H251 C252 0.950 . S
C252 C249 1.390 . S
C252 H251 0.950 . S
C252 C253 1.378 . S
C253 C252 1.378 . S
C253 C254 1.409 . S
C254 C250 1.387 . S
C254 C253 1.409 . S
C254 H256 0.951 . S
C255 C250 1.491 . S
C255 C257 1.382 . S
C255 C259 1.404 . S
H256 C254 0.951 . S
C257 C255 1.382 . S
C257 C258 1.390 . S
C257 H262 0.949 . S
C258 C257 1.390 . S
C258 C263 1.399 . S
C259 C255 1.404 . S
C259 H260 0.950 . S
C259 C261 1.375 . S
H260 C259 0.950 . S
C261 C259 1.375 . S
C261 C263 1.382 . S
C261 H265 0.950 . S
H262 C257 0.949 . S
C263 C258 1.399 . S
C263 C261 1.382 . S
C263 H264 0.952 . S
H264 C263 0.952 . S
H265 C261 0.950 . S
H266 C267 0.949 . S
C267 H266 0.949 . S
C267 C268 1.395 . S
C267 C269 1.391 . S
C268 C267 1.395 . S
C268 C271 1.390 . S
C269 C267 1.391 . S
C269 C273 1.387 . S
C269 C274 1.491 . S
H270 C271 0.950 . S
C271 C268 1.390 . S
C271 H270 0.950 . S
C271 C272 1.378 . S
C272 C271 1.378 . S
C272 C273 1.409 . S
C273 C269 1.387 . S
C273 C272 1.409 . S
C273 H275 0.951 . S
C274 C269 1.491 . S
C274 C276 1.382 . S
C274 C278 1.404 . S
H275 C273 0.951 . S
C276 C274 1.382 . S
C276 C277 1.390 . S
C276 H281 0.949 . S
C277 C276 1.390 . S
C277 C282 1.399 . S
C278 C274 1.404 . S
C278 H279 0.950 . S
C278 C280 1.375 . S
H279 C278 0.950 . S
C280 C278 1.375 . S
C280 C282 1.382 . S
C280 H284 0.950 . S
H281 C276 0.949 . S
C282 C277 1.399 . S
C282 C280 1.382 . S
C282 H283 0.952 . S
H283 C282 0.952 . S
H284 C280 0.950 . S
H285 C286 0.949 . S
C286 H285 0.949 . S
C286 C287 1.395 . S
C286 C288 1.391 . S
C287 C286 1.395 . S
C287 C290 1.390 . S
C288 C286 1.391 . S
C288 C292 1.387 . S
C288 C293 1.491 . S
H289 C290 0.950 . S
C290 C287 1.390 . S
C290 H289 0.950 . S
C290 C291 1.378 . S
C291 C290 1.378 . S
C291 C292 1.409 . S
C292 C288 1.387 . S
C292 C291 1.409 . S
C292 H294 0.951 . S
C293 C288 1.491 . S
C293 C295 1.382 . S
C293 C297 1.404 . S
H294 C292 0.951 . S
C295 C293 1.382 . S
C295 C296 1.390 . S
C295 H300 0.949 . S
C296 C295 1.390 . S
C296 C301 1.399 . S
C297 C293 1.404 . S
C297 H298 0.950 . S
C297 C299 1.375 . S
H298 C297 0.950 . S
C299 C297 1.375 . S
C299 C301 1.382 . S
C299 H303 0.950 . S
H300 C295 0.949 . S
C301 C296 1.399 . S
C301 C299 1.382 . S
C301 H302 0.952 . S
H302 C301 0.952 . S
H303 C299 0.950 . S
H304 C305 0.949 . S
C305 H304 0.949 . S
C305 C306 1.395 . S
C305 C307 1.391 . S
C306 C305 1.395 . S
C306 C309 1.390 . S
C307 C305 1.391 . S
C307 C311 1.387 . S
C307 C312 1.491 . S
H308 C309 0.950 . S
C309 C306 1.390 . S
C309 H308 0.950 . S
C309 C310 1.378 . S
C310 C309 1.378 . S
C310 C311 1.409 . S
C311 C307 1.387 . S
C311 C310 1.409 . S
C311 H313 0.951 . S
C312 C307 1.491 . S
C312 C314 1.382 . S
C312 C316 1.404 . S
H313 C311 0.951 . S
C314 C312 1.382 . S
C314 C315 1.390 . S
C314 H319 0.949 . S
C315 C314 1.390 . S
C315 C320 1.399 . S
C316 C312 1.404 . S
C316 H317 0.950 . S
C316 C318 1.375 . S
H317 C316 0.950 . S
C318 C316 1.375 . S
C318 C320 1.382 . S
C318 H322 0.950 . S
H319 C314 0.949 . S
C320 C315 1.399 . S
C320 C318 1.382 . S
C320 H321 0.952 . S
H321 C320 0.952 . S
H322 C318 0.950 . S
H323 C324 0.949 . S
C324 H323 0.949 . S
C324 C325 1.395 . S
C324 C326 1.391 . S
C325 C324 1.395 . S
C325 C328 1.390 . S
C326 C324 1.391 . S
C326 C330 1.387 . S
C326 C331 1.491 . S
H327 C328 0.950 . S
C328 C325 1.390 . S
C328 H327 0.950 . S
C328 C329 1.378 . S
C329 C328 1.378 . S
C329 C330 1.409 . S
C330 C326 1.387 . S
C330 C329 1.409 . S
C330 H332 0.951 . S
C331 C326 1.491 . S
C331 C333 1.382 . S
C331 C335 1.404 . S
H332 C330 0.951 . S
C333 C331 1.382 . S
C333 C334 1.390 . S
C333 H338 0.949 . S
C334 C333 1.390 . S
C334 C339 1.399 . S
C335 C331 1.404 . S
C335 H336 0.950 . S
C335 C337 1.375 . S
H336 C335 0.950 . S
C337 C335 1.375 . S
C337 C339 1.382 . S
C337 H341 0.950 . S
H338 C333 0.949 . S
C339 C334 1.399 . S
C339 C337 1.382 . S
C339 H340 0.952 . S
H340 C339 0.952 . S
H341 C337 0.950 . S
Eu342 N373 2.657 . S
Eu342 N380 2.609 . S
Eu342 O386 2.558 . S
Eu342 O387 2.612 1_566 S
Eu342 O389 2.339 1_565 S
Eu342 O390 2.563 1_565 S
Eu342 O391 2.419 1_565 S
Eu342 O393 2.380 1_556 S
Eu342 O394 2.432 . S
Eu342 C406 2.848 1_565 S
C343 C346 1.429 . S
C343 C347 1.411 . S
C343 N350 1.377 . S
C344 C346 1.420 . S
C344 C348 1.423 . S
C344 C356 1.392 . S
C345 C347 1.420 . S
C345 C348 1.351 . S
C345 H368 0.931 . S
C346 C343 1.429 . S
C346 C344 1.420 . S
C346 N354 1.362 . S
C347 C343 1.411 . S
C347 C345 1.420 . S
C347 C352 1.395 . S
C348 C344 1.423 . S
C348 C345 1.351 . S
C348 H360 0.930 . S
C349 C351 1.400 . S
C349 C352 1.386 . S
C349 H361 0.930 . S
N350 C343 1.377 . S
N350 C351 1.321 . S
N350 Eu353 2.609 . S
C351 C349 1.400 . S
C351 N350 1.321 . S
C351 H358 0.930 . S
C352 C347 1.395 . S
C352 C349 1.386 . S
C352 H371 0.930 . S
Eu353 N350 2.609 . S
Eu353 N354 2.657 . S
Eu353 O387 2.380 . S
Eu353 O388 2.432 . S
Eu353 O392 2.558 . S
Eu353 O393 2.612 1_545 S
Eu353 O395 2.339 1_545 S
Eu353 O396 2.563 1_545 S
Eu353 O397 2.419 1_545 S
Eu353 C417 2.846 1_545 S
N354 C346 1.362 . S
N354 Eu353 2.657 . S
N354 C355 1.334 . S
C355 N354 1.334 . S
C355 C357 1.413 . S
C355 H362 0.929 . S
C356 C344 1.392 . S
C356 C357 1.367 . S
C356 H364 0.930 . S
C357 C355 1.413 . S
C357 C356 1.367 . S
C357 H359 0.930 . S
H358 C351 0.930 . S
H359 C357 0.930 . S
H360 C348 0.930 . S
H361 C349 0.930 . S
H362 C355 0.929 . S
H363 C377 0.930 . S
H364 C356 0.930 . S
H365 C383 0.930 . S
H366 C374 0.947 . S
H367 C381 0.930 . S
H368 C345 0.931 . S
H369 C375 0.930 . S
H370 C408 0.930 . S
H371 C352 0.930 . S
H372 C407 0.931 . S
N373 Eu342 2.657 . S
N373 C374 1.334 . S
N373 C378 1.362 . S
C374 H366 0.947 . S
C374 N373 1.334 . S
C374 C377 1.413 . S
C375 H369 0.930 . S
C375 C376 1.392 . S
C375 C377 1.367 . S
C376 C375 1.392 . S
C376 C378 1.420 . S
C376 C408 1.423 . S
C377 H363 0.930 . S
C377 C374 1.413 . S
C377 C375 1.367 . S
C378 N373 1.362 . S
C378 C376 1.420 . S
C378 C382 1.429 . S
H379 C384 0.930 . S
N380 Eu342 2.609 . S
N380 C382 1.377 . S
N380 C383 1.321 . S
C381 H367 0.930 . S
C381 C383 1.400 . S
C381 C384 1.386 . S
C382 C378 1.429 . S
C382 N380 1.377 . S
C382 C385 1.411 . S
C383 H365 0.930 . S
C383 N380 1.321 . S
C383 C381 1.400 . S
C384 H379 0.930 . S
C384 C381 1.386 . S
C384 C385 1.395 . S
C385 C382 1.411 . S
C385 C384 1.395 . S
C385 C407 1.420 . S
O386 Eu342 2.558 . S
O386 C406 1.257 1_565 S
O387 Eu342 2.612 1_544 S
O387 Eu353 2.380 . S
O387 C398 1.276 1_554 S
O388 Eu353 2.432 . S
O388 C405 1.264 . S
O389 Eu342 2.339 1_545 S
O389 C405 1.254 1_556 S
O390 Eu342 2.563 1_545 S
O390 C398 1.235 . S
O391 Eu342 2.419 1_545 S
O391 C406 1.249 . S
O392 Eu353 2.558 . S
O392 C417 1.247 1_545 S
O393 Eu342 2.380 1_554 S
O393 Eu353 2.612 1_565 S
O393 C409 1.276 . S
O394 Eu342 2.432 . S
O394 C416 1.264 1_556 S
O395 Eu353 2.339 1_565 S
O395 C416 1.254 . S
O396 Eu353 2.563 1_565 S
O396 C409 1.235 . S
O397 Eu353 2.419 1_565 S
O397 C417 1.257 . S
C398 O387 1.276 1_556 S
C398 O390 1.235 . S
C399 C401 1.393 . S
C399 C403 1.395 1_545 S
C399 C406 1.492 . S
C400 C401 1.392 . S
C400 C402 1.386 . S
C401 C399 1.393 . S
C401 C400 1.392 . S
C401 H418 0.930 . S
C402 C400 1.386 . S
C402 C404 1.395 . S
C402 H419 0.930 . S
C403 C399 1.395 1_565 S
C403 C404 1.379 1_565 S
C403 H420 0.930 . S
C404 C402 1.395 . S
C404 C403 1.379 1_545 S
C404 H421 0.930 1_545 S
C405 O388 1.264 . S
C405 O389 1.254 1_554 S
C406 Eu342 2.848 1_545 S
C406 O386 1.257 1_545 S
C406 O391 1.249 . S
C406 C399 1.492 . S
C407 H372 0.931 . S
C407 C385 1.420 . S
C407 C408 1.351 . S
C408 H370 0.930 . S
C408 C376 1.423 . S
C408 C407 1.351 . S
C409 O393 1.276 . S
C409 O396 1.235 . S
C410 C411 1.393 . S
C410 C414 1.395 1_565 S
C410 C417 1.494 . S
C411 C410 1.393 . S
C411 C412 1.392 . S
C411 H422 0.930 . S
C412 C411 1.392 . S
C412 C413 1.386 . S
C413 C412 1.386 . S
C413 C415 1.395 . S
C413 H423 0.930 . S
C414 C410 1.395 1_545 S
C414 C415 1.379 1_545 S
C414 H424 0.930 . S
C415 C413 1.395 . S
C415 C414 1.379 1_565 S
C415 H425 0.930 1_565 S
C416 O394 1.264 1_554 S
C416 O395 1.254 . S
C417 Eu353 2.846 1_565 S
C417 O392 1.247 1_565 S
C417 O397 1.257 . S
C417 C410 1.494 . S
H418 C401 0.930 . S
H419 C402 0.930 . S
H420 C403 0.930 . S
H421 C404 0.930 1_565 S
H422 C411 0.930 . S
H423 C413 0.930 . S
H424 C414 0.930 . S
H425 C415 0.930 1_545 S
Eu426 N457 2.657 . S
Eu426 N464 2.609 . S
Eu426 O470 2.558 . S
Eu426 O471 2.612 1_456 S
Eu426 O473 2.339 1_455 S
Eu426 O474 2.563 1_455 S
Eu426 O475 2.419 1_455 S
Eu426 O477 2.380 1_556 S
Eu426 O478 2.432 . S
Eu426 C490 2.848 . S
C427 C430 1.429 . S
C427 C431 1.411 . S
C427 N434 1.377 . S
C428 C430 1.420 . S
C428 C432 1.423 . S
C428 C440 1.392 . S
C429 C431 1.420 . S
C429 C432 1.351 . S
C429 H452 0.931 . S
C430 C427 1.429 . S
C430 C428 1.420 . S
C430 N438 1.362 . S
C431 C427 1.411 . S
C431 C429 1.420 . S
C431 C436 1.395 . S
C432 C428 1.423 . S
C432 C429 1.351 . S
C432 H444 0.930 . S
C433 C435 1.400 . S
C433 C436 1.386 . S
C433 H445 0.930 . S
N434 C427 1.377 . S
N434 C435 1.321 . S
N434 Eu437 2.609 . S
C435 C433 1.400 . S
C435 N434 1.321 . S
C435 H442 0.930 . S
C436 C431 1.395 . S
C436 C433 1.386 . S
C436 H455 0.930 . S
Eu437 N434 2.609 . S
Eu437 N438 2.657 . S
Eu437 O471 2.380 . S
Eu437 O472 2.432 . S
Eu437 O476 2.558 . S
Eu437 O477 2.612 1_655 S
Eu437 O479 2.339 1_655 S
Eu437 O480 2.563 1_655 S
Eu437 O481 2.419 1_655 S
Eu437 C501 2.848 1_655 S
N438 C430 1.362 . S
N438 Eu437 2.657 . S
N438 C439 1.334 . S
C439 N438 1.334 . S
C439 C441 1.413 . S
C439 H446 0.933 1_655 S
C440 C428 1.392 . S
C440 C441 1.367 . S
C440 H448 0.930 . S
C441 C439 1.413 . S
C441 C440 1.367 . S
C441 H443 0.930 . S
H442 C435 0.930 . S
H443 C441 0.930 . S
H444 C432 0.930 . S
H445 C433 0.930 . S
H446 C439 0.933 1_455 S
H447 C461 0.930 . S
H448 C440 0.930 . S
H449 C467 0.930 . S
H450 C458 0.929 . S
H451 C465 0.930 . S
H452 C429 0.931 . S
H453 C459 0.930 . S
H454 C492 0.930 . S
H455 C436 0.930 . S
H456 C491 0.931 . S
N457 Eu426 2.657 . S
N457 C458 1.334 . S
N457 C462 1.362 . S
C458 H450 0.929 . S
C458 N457 1.334 . S
C458 C461 1.413 . S
C459 H453 0.930 . S
C459 C460 1.392 . S
C459 C461 1.367 . S
C460 C459 1.392 . S
C460 C462 1.420 . S
C460 C492 1.423 . S
C461 H447 0.930 . S
C461 C458 1.413 . S
C461 C459 1.367 . S
C462 N457 1.362 . S
C462 C460 1.420 . S
C462 C466 1.429 . S
H463 C468 0.930 . S
N464 Eu426 2.609 . S
N464 C466 1.377 . S
N464 C467 1.321 . S
C465 H451 0.930 . S
C465 C467 1.400 . S
C465 C468 1.386 . S
C466 C462 1.429 . S
C466 N464 1.377 . S
C466 C469 1.411 . S
C467 H449 0.930 . S
C467 N464 1.321 . S
C467 C465 1.400 . S
C468 H463 0.930 . S
C468 C465 1.386 . S
C468 C469 1.395 . S
C469 C466 1.411 . S
C469 C468 1.395 . S
C469 C491 1.420 . S
O470 Eu426 2.558 . S
O470 C490 1.257 . S
O471 Eu426 2.612 1_654 S
O471 Eu437 2.380 . S
O471 C482 1.276 1_554 S
O472 Eu437 2.432 . S
O472 C489 1.264 . S
O473 Eu426 2.339 1_655 S
O473 C489 1.254 1_556 S
O474 Eu426 2.563 1_655 S
O474 C482 1.235 . S
O475 Eu426 2.419 1_655 S
O475 C490 1.249 1_655 S
O476 Eu437 2.558 . S
O476 C501 1.257 1_655 S
O477 Eu426 2.380 1_554 S
O477 Eu437 2.612 1_455 S
O477 C493 1.276 . S
O478 Eu426 2.432 . S
O478 C500 1.264 1_556 S
O479 Eu437 2.339 1_455 S
O479 C500 1.254 . S
O480 Eu437 2.563 1_455 S
O480 C493 1.235 . S
O481 Eu437 2.419 1_455 S
O481 C501 1.249 . S
C482 O471 1.276 1_556 S
C482 O474 1.235 . S
C483 C485 1.393 . S
C483 C487 1.395 1_655 S
C483 C490 1.492 1_655 S
C484 C485 1.392 . S
C484 C486 1.386 . S
C485 C483 1.393 . S
C485 C484 1.392 . S
C485 H502 0.930 . S
C486 C484 1.386 . S
C486 C488 1.395 1_655 S
C486 H503 0.930 . S
C487 C483 1.395 1_455 S
C487 C488 1.379 . S
C487 H504 0.930 . S
C488 C486 1.395 1_455 S
C488 C487 1.379 . S
C488 H505 0.930 . S
C489 O472 1.264 . S
C489 O473 1.254 1_554 S
C490 Eu426 2.848 . S
C490 O470 1.257 . S
C490 O475 1.249 1_455 S
C490 C483 1.492 1_455 S
C491 H456 0.931 . S
C491 C469 1.420 . S
C491 C492 1.351 . S
C492 H454 0.930 . S
C492 C460 1.423 . S
C492 C491 1.351 . S
C493 O477 1.276 . S
C493 O480 1.235 . S
C494 C495 1.393 . S
C494 C498 1.395 1_455 S
C494 C501 1.492 . S
C495 C494 1.393 . S
C495 C496 1.392 . S
C495 H506 0.930 . S
C496 C495 1.392 . S
C496 C497 1.386 . S
C497 C496 1.386 . S
C497 C499 1.395 . S
C497 H507 0.930 . S
C498 C494 1.395 1_655 S
C498 C499 1.379 1_655 S
C498 H508 0.930 . S
C499 C497 1.395 . S
C499 C498 1.379 1_455 S
C499 H509 0.930 1_455 S
C500 O478 1.264 1_554 S
C500 O479 1.254 . S
C501 Eu437 2.848 1_455 S
C501 O476 1.257 1_455 S
C501 O481 1.249 . S
C501 C494 1.492 . S
H502 C485 0.930 . S
H503 C486 0.930 . S
H504 C487 0.930 . S
H505 C488 0.930 . S
H506 C495 0.930 . S
H507 C497 0.930 . S
H508 C498 0.930 . S
H509 C499 0.930 1_655 S
Eu510 N541 2.657 . S
Eu510 N548 2.609 . S
Eu510 O554 2.558 . S
Eu510 O555 2.612 . S
Eu510 O557 2.339 . S
Eu510 O558 2.563 . S
Eu510 O559 2.419 . S
Eu510 O561 2.380 . S
Eu510 O562 2.432 . S
Eu510 C574 2.848 . S
C511 C514 1.429 . S
C511 C515 1.411 . S
C511 N518 1.377 . S
C512 C514 1.420 . S
C512 C516 1.423 . S
C512 C524 1.392 . S
C513 C515 1.420 . S
C513 C516 1.351 . S
C513 H536 0.931 . S
C514 C511 1.429 . S
C514 C512 1.420 . S
C514 N522 1.362 . S
C515 C511 1.411 . S
C515 C513 1.420 . S
C515 C520 1.395 . S
C516 C512 1.423 . S
C516 C513 1.351 . S
C516 H528 0.930 . S
C517 C519 1.400 . S
C517 C520 1.386 . S
C517 H529 0.930 . S
N518 C511 1.377 . S
N518 C519 1.321 . S
N518 Eu521 2.609 . S
C519 C517 1.400 . S
C519 N518 1.321 . S
C519 H526 0.930 . S
C520 C515 1.395 . S
C520 C517 1.386 . S
C520 H539 0.930 . S
Eu521 N518 2.609 . S
Eu521 N522 2.657 . S
Eu521 O555 2.380 1_556 S
Eu521 O556 2.432 . S
Eu521 O560 2.558 . S
Eu521 O561 2.612 1_556 S
Eu521 O563 2.339 . S
Eu521 O564 2.563 . S
Eu521 O565 2.419 . S
Eu521 C585 2.848 . S
N522 C514 1.362 . S
N522 Eu521 2.657 . S
N522 C523 1.334 . S
C523 N522 1.334 . S
C523 C525 1.413 . S
C523 H530 0.929 . S
C524 C512 1.392 . S
C524 C525 1.367 . S
C524 H532 0.930 . S
C525 C523 1.413 . S
C525 C524 1.367 . S
C525 H527 0.930 . S
H526 C519 0.930 . S
H527 C525 0.930 . S
H528 C516 0.930 . S
H529 C517 0.930 . S
H530 C523 0.929 . S
H531 C545 0.930 . S
H532 C524 0.930 . S
H533 C551 0.930 . S
H534 C542 0.929 . S
H535 C549 0.930 . S
H536 C513 0.931 . S
H537 C543 0.930 . S
H538 C576 0.930 . S
H539 C520 0.930 . S
H540 C575 0.931 . S
N541 Eu510 2.657 . S
N541 C542 1.334 . S
N541 C546 1.362 . S
C542 H534 0.929 . S
C542 N541 1.334 . S
C542 C545 1.413 . S
C543 H537 0.930 . S
C543 C544 1.392 . S
C543 C545 1.367 . S
C544 C543 1.392 . S
C544 C546 1.420 . S
C544 C576 1.423 . S
C545 H531 0.930 . S
C545 C542 1.413 . S
C545 C543 1.367 . S
C546 N541 1.362 . S
C546 C544 1.420 . S
C546 C550 1.429 . S
H547 C552 0.930 . S
N548 Eu510 2.609 . S
N548 C550 1.377 . S
N548 C551 1.321 . S
C549 H535 0.930 . S
C549 C551 1.400 . S
C549 C552 1.386 . S
C550 C546 1.429 . S
C550 N548 1.377 . S
C550 C553 1.411 . S
C551 H533 0.930 . S
C551 N548 1.321 . S
C551 C549 1.400 . S
C552 H547 0.930 . S
C552 C549 1.386 . S
C552 C553 1.395 . S
C553 C550 1.411 . S
C553 C552 1.395 . S
C553 C575 1.420 . S
O554 Eu510 2.558 . S
O554 C574 1.257 . S
O555 Eu510 2.612 . S
O555 Eu521 2.380 1_554 S
O555 C566 1.276 . S
O556 Eu521 2.432 . S
O556 C573 1.264 1_556 S
O557 Eu510 2.339 . S
O557 C573 1.254 . S
O558 Eu510 2.563 . S
O558 C566 1.235 . S
O559 Eu510 2.419 . S
O559 C574 1.249 . S
O560 Eu521 2.558 . S
O560 C585 1.257 . S
O561 Eu510 2.380 . S
O561 Eu521 2.612 1_554 S
O561 C577 1.276 1_554 S
O562 Eu510 2.432 . S
O562 C584 1.264 . S
O563 Eu521 2.339 . S
O563 C584 1.254 1_556 S
O564 Eu521 2.563 . S
O564 C577 1.235 . S
O565 Eu521 2.419 . S
O565 C585 1.249 . S
C566 O555 1.276 . S
C566 O558 1.235 . S
C567 C569 1.393 . S
C567 C571 1.395 . S
C567 C574 1.492 . S
C568 C569 1.392 . S
C568 C570 1.386 . S
C569 C567 1.393 . S
C569 C568 1.392 . S
C569 H586 0.930 . S
C570 C568 1.386 . S
C570 C572 1.395 . S
C570 H587 0.930 . S
C571 C567 1.395 . S
C571 C572 1.379 . S
C571 H588 0.930 . S
C572 C570 1.395 . S
C572 C571 1.379 . S
C572 H589 0.930 . S
C573 O556 1.264 1_554 S
C573 O557 1.254 . S
C574 Eu510 2.848 . S
C574 O554 1.257 . S
C574 O559 1.249 . S
C574 C567 1.492 . S
C575 H540 0.931 . S
C575 C553 1.420 . S
C575 C576 1.351 . S
C576 H538 0.930 . S
C576 C544 1.423 . S
C576 C575 1.351 . S
C577 O561 1.276 1_556 S
C577 O564 1.235 . S
C578 C579 1.393 . S
C578 C582 1.395 . S
C578 C585 1.492 . S
C579 C578 1.393 . S
C579 C580 1.392 . S
C579 H590 0.930 . S
C580 C579 1.392 . S
C580 C581 1.386 . S
C581 C580 1.386 . S
C581 C583 1.395 . S
C581 H591 0.930 . S
C582 C578 1.395 . S
C582 C583 1.379 . S
C582 H592 0.930 . S
C583 C581 1.395 . S
C583 C582 1.379 . S
C583 H593 0.930 . S
C584 O562 1.264 . S
C584 O563 1.254 1_554 S
C585 Eu521 2.848 . S
C585 O560 1.257 . S
C585 O565 1.249 . S
C585 C578 1.492 . S
H586 C569 0.930 . S
H587 C570 0.930 . S
H588 C571 0.930 . S
H589 C572 0.930 . S
H590 C579 0.930 . S
H591 C581 0.930 . S
H592 C582 0.930 . S
H593 C583 0.930 . S
Eu594 N625 2.657 . S
Eu594 N632 2.609 . S
Eu594 O638 2.558 . S
Eu594 O639 2.612 . S
Eu594 O641 2.339 . S
Eu594 O642 2.563 . S
Eu594 O643 2.419 . S
Eu594 O645 2.380 . S
Eu594 O646 2.432 . S
Eu594 C658 2.848 . S
C595 C598 1.429 . S
C595 C599 1.411 . S
C595 N602 1.377 . S
C596 C598 1.420 . S
C596 C600 1.423 . S
C596 C608 1.392 . S
C597 C599 1.420 . S
C597 C600 1.351 . S
C597 H620 0.931 . S
C598 C595 1.429 . S
C598 C596 1.420 . S
C598 N606 1.362 . S
C599 C595 1.411 . S
C599 C597 1.420 . S
C599 C604 1.395 . S
C600 C596 1.423 . S
C600 C597 1.351 . S
C600 H612 0.930 . S
C601 C603 1.400 . S
C601 C604 1.386 . S
C601 H613 0.930 . S
N602 C595 1.377 . S
N602 C603 1.321 . S
N602 Eu605 2.609 . S
C603 C601 1.400 . S
C603 N602 1.321 . S
C603 H610 0.930 . S
C604 C599 1.395 . S
C604 C601 1.386 . S
C604 H623 0.930 . S
Eu605 N602 2.609 . S
Eu605 N606 2.657 . S
Eu605 O639 2.380 . S
Eu605 O640 2.432 . S
Eu605 O644 2.558 . S
Eu605 O645 2.612 . S
Eu605 O647 2.339 . S
Eu605 O648 2.563 . S
Eu605 O649 2.419 . S
Eu605 C669 2.848 . S
N606 C598 1.362 . S
N606 Eu605 2.657 . S
N606 C607 1.334 . S
C607 N606 1.334 . S
C607 C609 1.413 . S
C607 H614 0.929 . S
C608 C596 1.392 . S
C608 C609 1.367 . S
C608 H616 0.930 . S
C609 C607 1.413 . S
C609 C608 1.367 . S
C609 H611 0.930 . S
H610 C603 0.930 . S
H611 C609 0.930 . S
H612 C600 0.930 . S
H613 C601 0.930 . S
H614 C607 0.929 . S
H615 C629 0.921 1_655 S
H616 C608 0.930 . S
H617 C635 0.930 . S
H618 C626 0.929 . S
H619 C633 0.930 . S
H620 C597 0.931 . S
H621 C627 0.930 . S
H622 C660 0.930 . S
H623 C604 0.930 . S
H624 C659 0.931 . S
N625 Eu594 2.657 . S
N625 C626 1.334 . S
N625 C630 1.362 . S
C626 H618 0.929 . S
C626 N625 1.334 . S
C626 C629 1.413 . S
C627 H621 0.930 . S
C627 C628 1.392 1_655 S
C627 C629 1.367 1_655 S
C628 C627 1.392 1_455 S
C628 C630 1.420 . S
C628 C660 1.423 1_455 S
C629 H615 0.921 1_455 S
C629 C626 1.413 . S
C629 C627 1.367 1_455 S
C630 N625 1.362 . S
C630 C628 1.420 . S
C630 C634 1.429 . S
H631 C636 0.930 . S
N632 Eu594 2.609 . S
N632 C634 1.377 . S
N632 C635 1.321 . S
C633 H619 0.930 . S
C633 C635 1.400 . S
C633 C636 1.386 . S
C634 C630 1.429 . S
C634 N632 1.377 . S
C634 C637 1.411 . S
C635 H617 0.930 . S
C635 N632 1.321 . S
C635 C633 1.400 . S
C636 H631 0.930 . S
C636 C633 1.386 . S
C636 C637 1.395 . S
C637 C634 1.411 . S
C637 C636 1.395 . S
C637 C659 1.420 . S
O638 Eu594 2.558 . S
O638 C658 1.257 . S
O639 Eu594 2.612 . S
O639 Eu605 2.380 . S
O639 C650 1.276 . S
O640 Eu605 2.432 . S
O640 C657 1.264 . S
O641 Eu594 2.339 . S
O641 C657 1.254 . S
O642 Eu594 2.563 . S
O642 C650 1.235 . S
O643 Eu594 2.419 . S
O643 C658 1.249 . S
O644 Eu605 2.558 . S
O644 C669 1.257 . S
O645 Eu594 2.380 . S
O645 Eu605 2.612 . S
O645 C661 1.276 . S
O646 Eu594 2.432 . S
O646 C668 1.264 . S
O647 Eu605 2.339 . S
O647 C668 1.254 . S
O648 Eu605 2.563 . S
O648 C661 1.235 . S
O649 Eu605 2.419 . S
O649 C669 1.249 . S
C650 O639 1.276 . S
C650 O642 1.235 . S
C651 C653 1.393 . S
C651 C655 1.395 . S
C651 C658 1.492 . S
C652 C653 1.392 . S
C652 C654 1.386 . S
C653 C651 1.393 . S
C653 C652 1.392 . S
C653 H670 0.930 . S
C654 C652 1.386 . S
C654 C656 1.395 . S
C654 H671 0.930 . S
C655 C651 1.395 . S
C655 C656 1.379 . S
C655 H672 0.930 . S
C656 C654 1.395 . S
C656 C655 1.379 . S
C656 H673 0.930 . S
C657 O640 1.264 . S
C657 O641 1.254 . S
C658 Eu594 2.848 . S
C658 O638 1.257 . S
C658 O643 1.249 . S
C658 C651 1.492 . S
C659 H624 0.931 . S
C659 C637 1.420 . S
C659 C660 1.351 1_455 S
C660 H622 0.930 . S
C660 C628 1.423 1_655 S
C660 C659 1.351 1_655 S
C661 O645 1.276 . S
C661 O648 1.235 . S
C662 C663 1.393 . S
C662 C666 1.395 . S
C662 C669 1.492 . S
C663 C662 1.393 . S
C663 C664 1.392 . S
C663 H674 0.930 . S
C664 C663 1.392 . S
C664 C665 1.386 . S
C665 C664 1.386 . S
C665 C667 1.395 . S
C665 H675 0.930 . S
C666 C662 1.395 . S
C666 C667 1.379 . S
C666 H676 0.930 . S
C667 C665 1.395 . S
C667 C666 1.379 . S
C667 H677 0.930 . S
C668 O646 1.264 . S
C668 O647 1.254 . S
C669 Eu605 2.848 . S
C669 O644 1.257 . S
C669 O649 1.249 . S
C669 C662 1.492 . S
H670 C653 0.930 . S
H671 C654 0.930 . S
H672 C655 0.930 . S
H673 C656 0.930 . S
H674 C663 0.930 . S
H675 C665 0.930 . S
H676 C666 0.930 . S
H677 C667 0.930 . S
Eu678 N709 2.657 . S
Eu678 N716 2.609 . S
Eu678 O722 2.558 . S
Eu678 O723 2.612 . S
Eu678 O725 2.339 . S
Eu678 O726 2.563 . S
Eu678 O727 2.419 . S
Eu678 O729 2.380 . S
Eu678 O730 2.432 . S
Eu678 C742 2.848 . S
C679 C682 1.429 . S
C679 C683 1.411 . S
C679 N686 1.377 . S
C680 C682 1.420 . S
C680 C684 1.423 . S
C680 C692 1.392 . S
C681 C683 1.420 . S
C681 C684 1.351 . S
C681 H704 0.931 . S
C682 C679 1.429 . S
C682 C680 1.420 . S
C682 N690 1.362 . S
C683 C679 1.411 . S
C683 C681 1.420 . S
C683 C688 1.395 . S
C684 C680 1.423 . S
C684 C681 1.351 . S
C684 H696 0.930 . S
C685 C687 1.400 . S
C685 C688 1.386 . S
C685 H697 0.930 . S
N686 C679 1.377 . S
N686 C687 1.321 . S
N686 Eu689 2.609 . S
C687 C685 1.400 . S
C687 N686 1.321 . S
C687 H694 0.930 . S
C688 C683 1.395 . S
C688 C685 1.386 . S
C688 H707 0.930 . S
Eu689 N686 2.609 . S
Eu689 N690 2.657 . S
Eu689 O723 2.380 . S
Eu689 O724 2.432 . S
Eu689 O728 2.558 . S
Eu689 O729 2.612 . S
Eu689 O731 2.339 . S
Eu689 O732 2.563 . S
Eu689 O733 2.419 . S
Eu689 C753 2.848 . S
N690 C682 1.362 . S
N690 Eu689 2.657 . S
N690 C691 1.334 . S
C691 N690 1.334 . S
C691 C693 1.413 . S
C691 H698 0.929 . S
C692 C680 1.392 . S
C692 C693 1.367 . S
C692 H700 0.930 . S
C693 C691 1.413 . S
C693 C692 1.367 . S
C693 H695 0.930 . S
H694 C687 0.930 . S
H695 C693 0.930 . S
H696 C684 0.930 . S
H697 C685 0.930 . S
H698 C691 0.929 . S
H699 C713 0.930 . S
H700 C692 0.930 . S
H701 C719 0.930 . S
H702 C710 0.929 . S
H703 C717 0.930 . S
H704 C681 0.931 . S
H705 C711 0.930 . S
H706 C744 0.930 . S
H707 C688 0.930 . S
H708 C743 0.931 . S
N709 Eu678 2.657 . S
N709 C710 1.334 . S
N709 C714 1.362 . S
C710 H702 0.929 . S
C710 N709 1.334 . S
C710 C713 1.413 . S
C711 H705 0.930 . S
C711 C712 1.392 . S
C711 C713 1.367 . S
C712 C711 1.392 . S
C712 C714 1.420 . S
C712 C744 1.423 . S
C713 H699 0.930 . S
C713 C710 1.413 . S
C713 C711 1.367 . S
C714 N709 1.362 . S
C714 C712 1.420 . S
C714 C718 1.429 . S
H715 C720 0.930 . S
N716 Eu678 2.609 . S
N716 C718 1.377 . S
N716 C719 1.321 . S
C717 H703 0.930 . S
C717 C719 1.400 . S
C717 C720 1.386 . S
C718 C714 1.429 . S
C718 N716 1.377 . S
C718 C721 1.411 . S
C719 H701 0.930 . S
C719 N716 1.321 . S
C719 C717 1.400 . S
C720 H715 0.930 . S
C720 C717 1.386 . S
C720 C721 1.395 . S
C721 C718 1.411 . S
C721 C720 1.395 . S
C721 C743 1.420 . S
O722 Eu678 2.558 . S
O722 C742 1.257 . S
O723 Eu678 2.612 . S
O723 Eu689 2.380 . S
O723 C734 1.276 . S
O724 Eu689 2.432 . S
O724 C741 1.264 . S
O725 Eu678 2.339 . S
O725 C741 1.254 . S
O726 Eu678 2.563 . S
O726 C734 1.235 . S
O727 Eu678 2.419 . S
O727 C742 1.249 . S
O728 Eu689 2.558 . S
O728 C753 1.257 . S
O729 Eu678 2.380 . S
O729 Eu689 2.612 . S
O729 C745 1.276 . S
O730 Eu678 2.432 . S
O730 C752 1.264 . S
O731 Eu689 2.339 . S
O731 C752 1.254 . S
O732 Eu689 2.563 . S
O732 C745 1.235 . S
O733 Eu689 2.419 . S
O733 C753 1.249 . S
C734 O723 1.276 . S
C734 O726 1.235 . S
C735 C737 1.393 . S
C735 C739 1.395 . S
C735 C742 1.492 . S
C736 C737 1.392 . S
C736 C738 1.386 . S
C737 C735 1.393 . S
C737 C736 1.392 . S
C737 H754 0.930 . S
C738 C736 1.386 . S
C738 C740 1.395 . S
C738 H755 0.930 . S
C739 C735 1.395 . S
C739 C740 1.379 . S
C739 H756 0.930 . S
C740 C738 1.395 . S
C740 C739 1.379 . S
C740 H757 0.930 . S
C741 O724 1.264 . S
C741 O725 1.254 . S
C742 Eu678 2.848 . S
C742 O722 1.257 . S
C742 O727 1.249 . S
C742 C735 1.492 . S
C743 H708 0.931 . S
C743 C721 1.420 . S
C743 C744 1.351 . S
C744 H706 0.930 . S
C744 C712 1.423 . S
C744 C743 1.351 . S
C745 O729 1.276 . S
C745 O732 1.235 . S
C746 C747 1.393 . S
C746 C750 1.395 . S
C746 C753 1.492 . S
C747 C746 1.393 . S
C747 C748 1.392 . S
C747 H758 0.930 . S
C748 C747 1.392 . S
C748 C749 1.386 . S
C749 C748 1.386 . S
C749 C751 1.395 . S
C749 H759 0.930 . S
C750 C746 1.395 . S
C750 C751 1.379 . S
C750 H760 0.930 . S
C751 C749 1.395 . S
C751 C750 1.379 . S
C751 H761 0.930 . S
C752 O730 1.264 . S
C752 O731 1.254 . S
C753 Eu689 2.848 . S
C753 O728 1.257 . S
C753 O733 1.249 . S
C753 C746 1.492 . S
H754 C737 0.930 . S
H755 C738 0.930 . S
H756 C739 0.930 . S
H757 C740 0.930 . S
H758 C747 0.930 . S
H759 C749 0.930 . S
H760 C750 0.930 . S
H761 C751 0.930 . S
Eu762 N793 2.657 . S
Eu762 N800 2.609 . S
Eu762 O806 2.558 . S
Eu762 O807 2.612 . S
Eu762 O809 2.339 . S
Eu762 O810 2.563 . S
Eu762 O811 2.419 . S
Eu762 O813 2.380 . S
Eu762 O814 2.432 . S
Eu762 C826 2.848 . S
C763 C766 1.429 . S
C763 C767 1.411 . S
C763 N770 1.377 . S
C764 C766 1.420 . S
C764 C768 1.423 . S
C764 C776 1.392 . S
C765 C767 1.420 . S
C765 C768 1.351 . S
C765 H788 0.931 . S
C766 C763 1.429 . S
C766 C764 1.420 . S
C766 N774 1.362 . S
C767 C763 1.411 . S
C767 C765 1.420 . S
C767 C772 1.395 . S
C768 C764 1.423 . S
C768 C765 1.351 . S
C768 H780 0.930 . S
C769 C771 1.400 . S
C769 C772 1.386 . S
C769 H781 0.930 . S
N770 C763 1.377 . S
N770 C771 1.321 . S
N770 Eu773 2.609 . S
C771 C769 1.400 . S
C771 N770 1.321 . S
C771 H778 0.930 . S
C772 C767 1.395 . S
C772 C769 1.386 . S
C772 H791 0.930 . S
Eu773 N770 2.609 . S
Eu773 N774 2.657 . S
Eu773 O807 2.380 . S
Eu773 O808 2.432 . S
Eu773 O812 2.558 . S
Eu773 O813 2.612 . S
Eu773 O815 2.339 . S
Eu773 O816 2.563 . S
Eu773 O817 2.419 . S
Eu773 C837 2.848 . S
N774 C766 1.362 . S
N774 Eu773 2.657 . S
N774 C775 1.334 . S
C775 N774 1.334 . S
C775 C777 1.413 . S
C775 H782 0.929 . S
C776 C764 1.392 . S
C776 C777 1.367 . S
C776 H784 0.930 . S
C777 C775 1.413 . S
C777 C776 1.367 . S
C777 H779 0.930 . S
H778 C771 0.930 . S
H779 C777 0.930 . S
H780 C768 0.930 . S
H781 C769 0.930 . S
H782 C775 0.929 . S
H783 C797 0.930 . S
H784 C776 0.930 . S
H785 C803 0.930 . S
H786 C794 0.929 . S
H787 C801 0.930 . S
H788 C765 0.931 . S
H789 C795 0.930 . S
H790 C828 0.930 . S
H791 C772 0.930 . S
H792 C827 0.931 . S
N793 Eu762 2.657 . S
N793 C794 1.334 . S
N793 C798 1.362 . S
C794 H786 0.929 . S
C794 N793 1.334 . S
C794 C797 1.413 . S
C795 H789 0.930 . S
C795 C796 1.392 . S
C795 C797 1.367 . S
C796 C795 1.392 . S
C796 C798 1.420 . S
C796 C828 1.423 . S
C797 H783 0.930 . S
C797 C794 1.413 . S
C797 C795 1.367 . S
C798 N793 1.362 . S
C798 C796 1.420 . S
C798 C802 1.429 . S
H799 C804 0.930 . S
N800 Eu762 2.609 . S
N800 C802 1.377 . S
N800 C803 1.321 . S
C801 H787 0.930 . S
C801 C803 1.400 . S
C801 C804 1.386 . S
C802 C798 1.429 . S
C802 N800 1.377 . S
C802 C805 1.411 . S
C803 H785 0.930 . S
C803 N800 1.321 . S
C803 C801 1.400 . S
C804 H799 0.930 . S
C804 C801 1.386 . S
C804 C805 1.395 . S
C805 C802 1.411 . S
C805 C804 1.395 . S
C805 C827 1.420 . S
O806 Eu762 2.558 . S
O806 C826 1.257 . S
O807 Eu762 2.612 . S
O807 Eu773 2.380 . S
O807 C818 1.276 . S
O808 Eu773 2.432 . S
O808 C825 1.264 . S
O809 Eu762 2.339 . S
O809 C825 1.254 . S
O810 Eu762 2.563 . S
O810 C818 1.235 . S
O811 Eu762 2.419 . S
O811 C826 1.249 . S
O812 Eu773 2.558 . S
O812 C837 1.257 . S
O813 Eu762 2.380 . S
O813 Eu773 2.612 . S
O813 C829 1.276 . S
O814 Eu762 2.432 . S
O814 C836 1.264 . S
O815 Eu773 2.339 . S
O815 C836 1.254 . S
O816 Eu773 2.563 . S
O816 C829 1.235 . S
O817 Eu773 2.419 . S
O817 C837 1.249 . S
C818 O807 1.276 . S
C818 O810 1.235 . S
C819 C821 1.393 . S
C819 C823 1.395 . S
C819 C826 1.492 . S
C820 C821 1.392 . S
C820 C822 1.386 . S
C821 C819 1.393 . S
C821 C820 1.392 . S
C821 H838 0.930 . S
C822 C820 1.386 . S
C822 C824 1.395 . S
C822 H839 0.930 . S
C823 C819 1.395 . S
C823 C824 1.379 . S
C823 H840 0.930 . S
C824 C822 1.395 . S
C824 C823 1.379 . S
C824 H841 0.930 . S
C825 O808 1.264 . S
C825 O809 1.254 . S
C826 Eu762 2.848 . S
C826 O806 1.257 . S
C826 O811 1.249 . S
C826 C819 1.492 . S
C827 H792 0.931 . S
C827 C805 1.420 . S
C827 C828 1.351 . S
C828 H790 0.930 . S
C828 C796 1.423 . S
C828 C827 1.351 . S
C829 O813 1.276 . S
C829 O816 1.235 . S
C830 C831 1.393 . S
C830 C834 1.395 . S
C830 C837 1.492 . S
C831 C830 1.393 . S
C831 C832 1.392 . S
C831 H842 0.930 . S
C832 C831 1.392 . S
C832 C833 1.386 . S
C833 C832 1.386 . S
C833 C835 1.395 . S
C833 H843 0.930 . S
C834 C830 1.395 . S
C834 C835 1.379 . S
C834 H844 0.930 . S
C835 C833 1.395 . S
C835 C834 1.379 . S
C835 H845 0.930 . S
C836 O814 1.264 . S
C836 O815 1.254 . S
C837 Eu773 2.848 . S
C837 O812 1.257 . S
C837 O817 1.249 . S
C837 C830 1.492 . S
H838 C821 0.930 . S
H839 C822 0.930 . S
H840 C823 0.930 . S
H841 C824 0.930 . S
H842 C831 0.930 . S
H843 C833 0.930 . S
H844 C834 0.930 . S
H845 C835 0.930 . S
Eu846 N877 2.657 . S
Eu846 N884 2.609 . S
Eu846 O890 2.558 . S
Eu846 O891 2.612 . S
Eu846 O893 2.339 . S
Eu846 O894 2.563 . S
Eu846 O895 2.419 . S
Eu846 O897 2.380 . S
Eu846 O898 2.432 . S
Eu846 C910 2.848 . S
C847 C850 1.429 . S
C847 C851 1.411 . S
C847 N854 1.377 . S
C848 C850 1.420 . S
C848 C852 1.423 . S
C848 C860 1.392 . S
C849 C851 1.420 . S
C849 C852 1.351 . S
C849 H872 0.931 . S
C850 C847 1.429 . S
C850 C848 1.420 . S
C850 N858 1.362 . S
C851 C847 1.411 . S
C851 C849 1.420 . S
C851 C856 1.395 . S
C852 C848 1.423 . S
C852 C849 1.351 . S
C852 H864 0.930 . S
C853 C855 1.400 . S
C853 C856 1.386 . S
C853 H865 0.930 . S
N854 C847 1.377 . S
N854 C855 1.321 . S
N854 Eu857 2.609 . S
C855 C853 1.400 . S
C855 N854 1.321 . S
C855 H862 0.930 . S
C856 C851 1.395 . S
C856 C853 1.386 . S
C856 H875 0.930 . S
Eu857 N854 2.609 . S
Eu857 N858 2.657 . S
Eu857 O891 2.380 . S
Eu857 O892 2.432 . S
Eu857 O896 2.558 . S
Eu857 O897 2.612 . S
Eu857 O899 2.339 . S
Eu857 O900 2.563 . S
Eu857 O901 2.419 . S
Eu857 C921 2.848 . S
N858 C850 1.362 . S
N858 Eu857 2.657 . S
N858 C859 1.334 . S
C859 N858 1.334 . S
C859 C861 1.413 . S
C859 H866 0.929 . S
C860 C848 1.392 . S
C860 C861 1.367 . S
C860 H868 0.930 . S
C861 C859 1.413 . S
C861 C860 1.367 . S
C861 H863 0.930 . S
H862 C855 0.930 . S
H863 C861 0.930 . S
H864 C852 0.930 . S
H865 C853 0.930 . S
H866 C859 0.929 . S
H867 C881 0.930 . S
H868 C860 0.930 . S
H869 C887 0.930 . S
H870 C878 0.929 . S
H871 C885 0.930 . S
H872 C849 0.931 . S
H873 C879 0.930 . S
H874 C912 0.930 . S
H875 C856 0.930 . S
H876 C911 0.931 . S
N877 Eu846 2.657 . S
N877 C878 1.334 . S
N877 C882 1.362 . S
C878 H870 0.929 . S
C878 N877 1.334 . S
C878 C881 1.413 . S
C879 H873 0.930 . S
C879 C880 1.392 . S
C879 C881 1.367 . S
C880 C879 1.392 . S
C880 C882 1.420 . S
C880 C912 1.423 . S
C881 H867 0.930 . S
C881 C878 1.413 . S
C881 C879 1.367 . S
C882 N877 1.362 . S
C882 C880 1.420 . S
C882 C886 1.429 . S
H883 C888 0.930 . S
N884 Eu846 2.609 . S
N884 C886 1.377 . S
N884 C887 1.321 . S
C885 H871 0.930 . S
C885 C887 1.400 . S
C885 C888 1.386 . S
C886 C882 1.429 . S
C886 N884 1.377 . S
C886 C889 1.411 . S
C887 H869 0.930 . S
C887 N884 1.321 . S
C887 C885 1.400 . S
C888 H883 0.930 . S
C888 C885 1.386 . S
C888 C889 1.395 . S
C889 C886 1.411 . S
C889 C888 1.395 . S
C889 C911 1.420 . S
O890 Eu846 2.558 . S
O890 C910 1.257 . S
O891 Eu846 2.612 . S
O891 Eu857 2.380 . S
O891 C902 1.276 . S
O892 Eu857 2.432 . S
O892 C909 1.264 . S
O893 Eu846 2.339 . S
O893 C909 1.254 . S
O894 Eu846 2.563 . S
O894 C902 1.235 . S
O895 Eu846 2.419 . S
O895 C910 1.249 . S
O896 Eu857 2.558 . S
O896 C921 1.257 . S
O897 Eu846 2.380 . S
O897 Eu857 2.612 . S
O897 C913 1.276 . S
O898 Eu846 2.432 . S
O898 C920 1.264 . S
O899 Eu857 2.339 . S
O899 C920 1.254 . S
O900 Eu857 2.563 . S
O900 C913 1.235 . S
O901 Eu857 2.419 . S
O901 C921 1.249 . S
C902 O891 1.276 . S
C902 O894 1.235 . S
C903 C905 1.393 . S
C903 C907 1.395 . S
C903 C910 1.492 . S
C904 C905 1.392 . S
C904 C906 1.386 . S
C905 C903 1.393 . S
C905 C904 1.392 . S
C905 H922 0.930 . S
C906 C904 1.386 . S
C906 C908 1.395 . S
C906 H923 0.930 . S
C907 C903 1.395 . S
C907 C908 1.379 . S
C907 H924 0.930 . S
C908 C906 1.395 . S
C908 C907 1.379 . S
C908 H925 0.930 . S
C909 O892 1.264 . S
C909 O893 1.254 . S
C910 Eu846 2.848 . S
C910 O890 1.257 . S
C910 O895 1.249 . S
C910 C903 1.492 . S
C911 H876 0.931 . S
C911 C889 1.420 . S
C911 C912 1.351 . S
C912 H874 0.930 . S
C912 C880 1.423 . S
C912 C911 1.351 . S
C913 O897 1.276 . S
C913 O900 1.235 . S
C914 C915 1.393 . S
C914 C918 1.395 . S
C914 C921 1.492 . S
C915 C914 1.393 . S
C915 C916 1.392 . S
C915 H926 0.930 . S
C916 C915 1.392 . S
C916 C917 1.386 . S
C917 C916 1.386 . S
C917 C919 1.395 . S
C917 H927 0.930 . S
C918 C914 1.395 . S
C918 C919 1.379 . S
C918 H928 0.930 . S
C919 C917 1.395 . S
C919 C918 1.379 . S
C919 H929 0.930 . S
C920 O898 1.264 . S
C920 O899 1.254 . S
C921 Eu857 2.848 . S
C921 O896 1.257 . S
C921 O901 1.249 . S
C921 C914 1.492 . S
H922 C905 0.930 . S
H923 C906 0.930 . S
H924 C907 0.930 . S
H925 C908 0.930 . S
H926 C915 0.930 . S
H927 C917 0.930 . S
H928 C918 0.930 . S
H929 C919 0.930 . S
Eu930 N961 2.657 . S
Eu930 N968 2.609 . S
Eu930 O974 2.558 . S
Eu930 O975 2.612 . S
Eu930 O977 2.339 . S
Eu930 O978 2.563 . S
Eu930 O979 2.419 . S
Eu930 O981 2.380 . S
Eu930 O982 2.432 . S
Eu930 C994 2.848 . S
C931 C934 1.429 . S
C931 C935 1.411 . S
C931 N938 1.377 . S
C932 C934 1.420 . S
C932 C936 1.423 . S
C932 C944 1.392 . S
C933 C935 1.420 . S
C933 C936 1.351 . S
C933 H956 0.931 . S
C934 C931 1.429 . S
C934 C932 1.420 . S
C934 N942 1.362 . S
C935 C931 1.411 . S
C935 C933 1.420 . S
C935 C940 1.395 . S
C936 C932 1.423 . S
C936 C933 1.351 . S
C936 H948 0.930 . S
C937 C939 1.400 . S
C937 C940 1.386 . S
C937 H949 0.930 . S
N938 C931 1.377 . S
N938 C939 1.321 . S
N938 Eu941 2.609 . S
C939 C937 1.400 . S
C939 N938 1.321 . S
C939 H946 0.930 . S
C940 C935 1.395 . S
C940 C937 1.386 . S
C940 H959 0.930 . S
Eu941 N938 2.609 . S
Eu941 N942 2.657 . S
Eu941 O975 2.380 . S
Eu941 O976 2.432 . S
Eu941 O980 2.558 . S
Eu941 O981 2.612 . S
Eu941 O983 2.339 . S
Eu941 O984 2.563 . S
Eu941 O985 2.419 . S
Eu941 C1005 2.848 . S
N942 C934 1.362 . S
N942 Eu941 2.657 . S
N942 C943 1.334 . S
C943 N942 1.334 . S
C943 C945 1.413 . S
C943 H950 0.929 . S
C944 C932 1.392 . S
C944 C945 1.367 . S
C944 H952 0.930 . S
C945 C943 1.413 . S
C945 C944 1.367 . S
C945 H947 0.930 . S
H946 C939 0.930 . S
H947 C945 0.930 . S
H948 C936 0.930 . S
H949 C937 0.930 . S
H950 C943 0.929 . S
H951 C965 0.930 . S
H952 C944 0.930 . S
H953 C971 0.930 . S
H954 C962 0.929 . S
H955 C969 0.930 . S
H956 C933 0.931 . S
H957 C963 0.930 . S
H958 C996 0.930 . S
H959 C940 0.930 . S
H960 C995 0.931 . S
N961 Eu930 2.657 . S
N961 C962 1.334 . S
N961 C966 1.362 . S
C962 H954 0.929 . S
C962 N961 1.334 . S
C962 C965 1.413 . S
C963 H957 0.930 . S
C963 C964 1.392 . S
C963 C965 1.367 . S
C964 C963 1.392 . S
C964 C966 1.420 . S
C964 C996 1.423 . S
C965 H951 0.930 . S
C965 C962 1.413 . S
C965 C963 1.367 . S
C966 N961 1.362 . S
C966 C964 1.420 . S
C966 C970 1.429 . S
H967 C972 0.930 . S
N968 Eu930 2.609 . S
N968 C970 1.377 . S
N968 C971 1.321 . S
C969 H955 0.930 . S
C969 C971 1.400 . S
C969 C972 1.386 . S
C970 C966 1.429 . S
C970 N968 1.377 . S
C970 C973 1.411 . S
C971 H953 0.930 . S
C971 N968 1.321 . S
C971 C969 1.400 . S
C972 H967 0.930 . S
C972 C969 1.386 . S
C972 C973 1.395 . S
C973 C970 1.411 . S
C973 C972 1.395 . S
C973 C995 1.420 . S
O974 Eu930 2.558 . S
O974 C994 1.257 . S
O975 Eu930 2.612 . S
O975 Eu941 2.380 . S
O975 C986 1.276 . S
O976 Eu941 2.432 . S
O976 C993 1.264 . S
O977 Eu930 2.339 . S
O977 C993 1.254 . S
O978 Eu930 2.563 . S
O978 C986 1.235 . S
O979 Eu930 2.419 . S
O979 C994 1.249 . S
O980 Eu941 2.558 . S
O980 C1005 1.257 . S
O981 Eu930 2.380 . S
O981 Eu941 2.612 . S
O981 C997 1.276 . S
O982 Eu930 2.432 . S
O982 C1004 1.264 . S
O983 Eu941 2.339 . S
O983 C1004 1.254 . S
O984 Eu941 2.563 . S
O984 C997 1.235 . S
O985 Eu941 2.419 . S
O985 C1005 1.249 . S
C986 O975 1.276 . S
C986 O978 1.235 . S
C987 C989 1.393 . S
C987 C991 1.395 . S
C987 C994 1.492 . S
C988 C989 1.392 . S
C988 C990 1.386 . S
C989 C987 1.393 . S
C989 C988 1.392 . S
C989 H1006 0.930 . S
C990 C988 1.386 . S
C990 C992 1.395 . S
C990 H1007 0.930 . S
C991 C987 1.395 . S
C991 C992 1.379 . S
C991 H1008 0.930 . S
C992 C990 1.395 . S
C992 C991 1.379 . S
C992 H1009 0.930 . S
C993 O976 1.264 . S
C993 O977 1.254 . S
C994 Eu930 2.848 . S
C994 O974 1.257 . S
C994 O979 1.249 . S
C994 C987 1.492 . S
C995 H960 0.931 . S
C995 C973 1.420 . S
C995 C996 1.351 . S
C996 H958 0.930 . S
C996 C964 1.423 . S
C996 C995 1.351 . S
C997 O981 1.276 . S
C997 O984 1.235 . S
C998 C999 1.393 . S
C998 C1002 1.395 . S
C998 C1005 1.492 . S
C999 C998 1.393 . S
C999 C1000 1.392 . S
C999 H1010 0.930 . S
C1000 C999 1.392 . S
C1000 C1001 1.386 . S
C1001 C1000 1.386 . S
C1001 C1003 1.395 . S
C1001 H1011 0.930 . S
C1002 C998 1.395 . S
C1002 C1003 1.379 . S
C1002 H1012 0.930 . S
C1003 C1001 1.395 . S
C1003 C1002 1.379 . S
C1003 H1013 0.930 . S
C1004 O982 1.264 . S
C1004 O983 1.254 . S
C1005 Eu941 2.848 . S
C1005 O980 1.257 . S
C1005 O985 1.249 . S
C1005 C998 1.492 . S
H1006 C989 0.930 . S
H1007 C990 0.930 . S
H1008 C991 0.930 . S
H1009 C992 0.930 . S
H1010 C999 0.930 . S
H1011 C1001 0.930 . S
H1012 C1002 0.930 . S
H1013 C1003 0.930 . S
Eu1014 N1045 2.657 . S
Eu1014 N1052 2.609 . S
Eu1014 O1058 2.558 . S
Eu1014 O1059 2.612 . S
Eu1014 O1061 2.339 . S
Eu1014 O1062 2.563 . S
Eu1014 O1063 2.419 . S
Eu1014 O1065 2.380 . S
Eu1014 O1066 2.432 . S
Eu1014 C1078 2.848 . S
C1015 C1018 1.429 . S
C1015 C1019 1.411 . S
C1015 N1022 1.377 . S
C1016 C1018 1.420 . S
C1016 C1020 1.423 . S
C1016 C1028 1.392 . S
C1017 C1019 1.420 . S
C1017 C1020 1.351 . S
C1017 H1040 0.931 . S
C1018 C1015 1.429 . S
C1018 C1016 1.420 . S
C1018 N1026 1.362 . S
C1019 C1015 1.411 . S
C1019 C1017 1.420 . S
C1019 C1024 1.395 . S
C1020 C1016 1.423 . S
C1020 C1017 1.351 . S
C1020 H1032 0.930 . S
C1021 C1023 1.400 . S
C1021 C1024 1.386 . S
C1021 H1033 0.930 . S
N1022 C1015 1.377 . S
N1022 C1023 1.321 . S
N1022 Eu1025 2.609 . S
C1023 C1021 1.400 . S
C1023 N1022 1.321 . S
C1023 H1030 0.930 . S
C1024 C1019 1.395 . S
C1024 C1021 1.386 . S
C1024 H1043 0.930 . S
Eu1025 N1022 2.609 . S
Eu1025 N1026 2.657 . S
Eu1025 O1059 2.380 . S
Eu1025 O1060 2.432 . S
Eu1025 O1064 2.558 . S
Eu1025 O1065 2.612 . S
Eu1025 O1067 2.339 . S
Eu1025 O1068 2.563 . S
Eu1025 O1069 2.419 . S
Eu1025 C1089 2.848 . S
N1026 C1018 1.362 . S
N1026 Eu1025 2.657 . S
N1026 C1027 1.334 . S
C1027 N1026 1.334 . S
C1027 C1029 1.413 . S
C1027 H1034 0.929 . S
C1028 C1016 1.392 . S
C1028 C1029 1.367 . S
C1028 H1036 0.930 . S
C1029 C1027 1.413 . S
C1029 C1028 1.367 . S
C1029 H1031 0.930 . S
H1030 C1023 0.930 . S
H1031 C1029 0.930 . S
H1032 C1020 0.930 . S
H1033 C1021 0.930 . S
H1034 C1027 0.929 . S
H1035 C1049 0.930 1_455 S
H1036 C1028 0.930 . S
H1037 C1055 0.930 . S
H1038 C1046 0.929 . S
H1039 C1053 0.930 . S
H1040 C1017 0.931 . S
H1041 C1047 0.930 . S
H1042 C1080 0.930 . S
H1043 C1024 0.930 . S
H1044 C1079 0.931 1_455 S
N1045 Eu1014 2.657 . S
N1045 C1046 1.334 . S
N1045 C1050 1.362 . S
C1046 H1038 0.929 . S
C1046 N1045 1.334 . S
C1046 C1049 1.413 . S
C1047 H1041 0.930 . S
C1047 C1048 1.392 1_455 S
C1047 C1049 1.367 1_455 S
C1048 C1047 1.392 1_655 S
C1048 C1050 1.420 . S
C1048 C1080 1.423 1_655 S
C1049 H1035 0.930 1_655 S
C1049 C1046 1.413 . S
C1049 C1047 1.367 1_655 S
C1050 N1045 1.362 . S
C1050 C1048 1.420 . S
C1050 C1054 1.429 . S
H1051 C1056 0.930 . S
N1052 Eu1014 2.609 . S
N1052 C1054 1.377 . S
N1052 C1055 1.321 . S
C1053 H1039 0.930 . S
C1053 C1055 1.400 . S
C1053 C1056 1.386 . S
C1054 C1050 1.429 . S
C1054 N1052 1.377 . S
C1054 C1057 1.411 . S
C1055 H1037 0.930 . S
C1055 N1052 1.321 . S
C1055 C1053 1.400 . S
C1056 H1051 0.930 . S
C1056 C1053 1.386 . S
C1056 C1057 1.395 . S
C1057 C1054 1.411 . S
C1057 C1056 1.395 . S
C1057 C1079 1.420 . S
O1058 Eu1014 2.558 . S
O1058 C1078 1.257 . S
O1059 Eu1014 2.612 . S
O1059 Eu1025 2.380 . S
O1059 C1070 1.276 . S
O1060 Eu1025 2.432 . S
O1060 C1077 1.264 . S
O1061 Eu1014 2.339 . S
O1061 C1077 1.254 . S
O1062 Eu1014 2.563 . S
O1062 C1070 1.235 . S
O1063 Eu1014 2.419 . S
O1063 C1078 1.249 . S
O1064 Eu1025 2.558 . S
O1064 C1089 1.257 . S
O1065 Eu1014 2.380 . S
O1065 Eu1025 2.612 . S
O1065 C1081 1.276 . S
O1066 Eu1014 2.432 . S
O1066 C1088 1.264 . S
O1067 Eu1025 2.339 . S
O1067 C1088 1.254 . S
O1068 Eu1025 2.563 . S
O1068 C1081 1.235 . S
O1069 Eu1025 2.419 . S
O1069 C1089 1.249 . S
C1070 O1059 1.276 . S
C1070 O1062 1.235 . S
C1071 C1073 1.393 . S
C1071 C1075 1.395 . S
C1071 C1078 1.492 . S
C1072 C1073 1.392 . S
C1072 C1074 1.386 . S
C1073 C1071 1.393 . S
C1073 C1072 1.392 . S
C1073 H1090 0.930 . S
C1074 C1072 1.386 . S
C1074 C1076 1.395 . S
C1074 H1091 0.930 . S
C1075 C1071 1.395 . S
C1075 C1076 1.379 . S
C1075 H1092 0.930 . S
C1076 C1074 1.395 . S
C1076 C1075 1.379 . S
C1076 H1093 0.930 . S
C1077 O1060 1.264 . S
C1077 O1061 1.254 . S
C1078 Eu1014 2.848 . S
C1078 O1058 1.257 . S
C1078 O1063 1.249 . S
C1078 C1071 1.492 . S
C1079 H1044 0.931 1_655 S
C1079 C1057 1.420 . S
C1079 C1080 1.351 1_655 S
C1080 H1042 0.930 . S
C1080 C1048 1.423 1_455 S
C1080 C1079 1.351 1_455 S
C1081 O1065 1.276 . S
C1081 O1068 1.235 . S
C1082 C1083 1.393 . S
C1082 C1086 1.395 . S
C1082 C1089 1.492 . S
C1083 C1082 1.393 . S
C1083 C1084 1.392 . S
C1083 H1094 0.930 . S
C1084 C1083 1.392 . S
C1084 C1085 1.386 . S
C1085 C1084 1.386 . S
C1085 C1087 1.395 . S
C1085 H1095 0.930 . S
C1086 C1082 1.395 . S
C1086 C1087 1.379 . S
C1086 H1096 0.930 . S
C1087 C1085 1.395 . S
C1087 C1086 1.379 . S
C1087 H1097 0.930 . S
C1088 O1066 1.264 . S
C1088 O1067 1.254 . S
C1089 Eu1025 2.848 . S
C1089 O1064 1.257 . S
C1089 O1069 1.249 . S
C1089 C1082 1.492 . S
H1090 C1073 0.930 . S
H1091 C1074 0.930 . S
H1092 C1075 0.930 . S
H1093 C1076 0.930 . S
H1094 C1083 0.930 . S
H1095 C1085 0.930 . S
H1096 C1086 0.930 . S
H1097 C1087 0.930 . S
H1098 C1104 0.930 . S
H1099 C1107 0.930 . S
H1100 C1108 0.930 . S
H1101 C1109 0.930 . S
H1102 C1112 0.930 1_556 S
H1103 C1113 0.918 1_556 S
C1104 H1098 0.930 . S
C1104 C1105 1.355 . S
C1104 C1106 1.415 . S
C1105 C1104 1.355 . S
C1105 C1107 1.419 . S
C1106 C1104 1.415 . S
C1106 C1111 1.425 . S
C1106 C1113 1.409 . S
C1107 H1099 0.930 . S
C1107 C1105 1.419 . S
C1107 C1108 1.362 . S
C1108 H1100 0.930 . S
C1108 C1107 1.362 . S
C1108 C1111 1.409 . S
C1109 H1101 0.930 . S
C1109 C1110 1.355 . S
C1109 C1111 1.415 . S
C1110 C1109 1.355 . S
C1110 C1112 1.419 . S
C1111 C1106 1.425 . S
C1111 C1108 1.409 . S
C1111 C1109 1.415 . S
C1112 H1102 0.930 1_554 S
C1112 C1110 1.419 . S
C1112 C1113 1.362 . S
C1113 H1103 0.918 1_554 S
C1113 C1106 1.409 . S
C1113 C1112 1.362 . S
H1114 C1120 0.930 . S
H1115 C1123 0.930 . S
H1116 C1124 0.930 . S
H1117 C1125 0.930 . S
H1118 C1128 0.930 1_556 S
H1119 C1129 0.930 1_556 S
C1120 H1114 0.930 . S
C1120 C1121 1.355 . S
C1120 C1122 1.415 . S
C1121 C1120 1.355 . S
C1121 C1123 1.419 . S
C1122 C1120 1.415 . S
C1122 C1127 1.425 . S
C1122 C1129 1.409 . S
C1123 H1115 0.930 . S
C1123 C1121 1.419 . S
C1123 C1124 1.362 . S
C1124 H1116 0.930 . S
C1124 C1123 1.362 . S
C1124 C1127 1.409 . S
C1125 H1117 0.930 . S
C1125 C1126 1.355 . S
C1125 C1127 1.415 . S
C1126 C1125 1.355 . S
C1126 C1128 1.419 . S
C1127 C1122 1.425 . S
C1127 C1124 1.409 . S
C1127 C1125 1.415 . S
C1128 H1118 0.930 1_554 S
C1128 C1126 1.419 . S
C1128 C1129 1.362 . S
C1129 H1119 0.930 1_554 S
C1129 C1122 1.409 . S
C1129 C1128 1.362 . S
H1130 C1136 0.930 . S
H1131 C1139 0.930 . S
H1132 C1140 0.930 . S
H1133 C1141 0.930 . S
H1134 C1144 0.930 . S
H1135 C1145 0.930 . S
C1136 H1130 0.930 . S
C1136 C1137 1.355 . S
C1136 C1138 1.415 . S
C1137 C1136 1.355 . S
C1137 C1139 1.419 . S
C1138 C1136 1.415 . S
C1138 C1143 1.425 . S
C1138 C1145 1.409 . S
C1139 H1131 0.930 . S
C1139 C1137 1.419 . S
C1139 C1140 1.362 . S
C1140 H1132 0.930 . S
C1140 C1139 1.362 . S
C1140 C1143 1.409 . S
C1141 H1133 0.930 . S
C1141 C1142 1.355 . S
C1141 C1143 1.415 . S
C1142 C1141 1.355 . S
C1142 C1144 1.419 . S
C1143 C1138 1.425 . S
C1143 C1140 1.409 . S
C1143 C1141 1.415 . S
C1144 H1134 0.930 . S
C1144 C1142 1.419 . S
C1144 C1145 1.362 . S
C1145 H1135 0.930 . S
C1145 C1138 1.409 . S
C1145 C1144 1.362 . S
H1146 C1152 0.930 . S
H1147 C1155 0.919 1_554 S
H1148 C1156 0.930 . S
H1149 C1157 0.930 . S
H1150 C1160 0.930 . S
H1151 C1161 0.930 . S
C1152 H1146 0.930 . S
C1152 C1153 1.355 . S
C1152 C1154 1.415 . S
C1153 C1152 1.355 . S
C1153 C1155 1.438 . S
C1154 C1152 1.415 . S
C1154 C1159 1.425 . S
C1154 C1161 1.409 . S
C1155 H1147 0.919 1_556 S
C1155 C1153 1.438 . S
C1155 C1156 1.354 1_556 S
C1156 H1148 0.930 . S
C1156 C1155 1.354 1_554 S
C1156 C1159 1.409 1_554 S
C1157 H1149 0.930 . S
C1157 C1158 1.355 1_554 S
C1157 C1159 1.415 1_554 S
C1158 C1157 1.355 1_556 S
C1158 C1160 1.419 . S
C1159 C1154 1.425 . S
C1159 C1156 1.409 1_556 S
C1159 C1157 1.415 1_556 S
C1160 H1150 0.930 . S
C1160 C1158 1.419 . S
C1160 C1161 1.362 . S
C1161 H1151 0.930 . S
C1161 C1154 1.409 . S
C1161 C1160 1.362 . S
H1162 C1168 0.930 1_554 S
H1163 C1171 0.930 . S
H1164 C1172 0.930 . S
H1165 C1173 0.930 . S
H1166 C1176 0.930 . S
H1167 C1177 0.930 . S
C1168 H1162 0.930 1_556 S
C1168 C1169 1.355 . S
C1168 C1170 1.415 . S
C1169 C1168 1.355 . S
C1169 C1171 1.419 . S
C1170 C1168 1.415 . S
C1170 C1175 1.425 . S
C1170 C1177 1.409 1_556 S
C1171 H1163 0.930 . S
C1171 C1169 1.419 . S
C1171 C1172 1.362 . S
C1172 H1164 0.930 . S
C1172 C1171 1.362 . S
C1172 C1175 1.409 . S
C1173 H1165 0.930 . S
C1173 C1174 1.355 . S
C1173 C1175 1.415 . S
C1174 C1173 1.355 . S
C1174 C1176 1.419 1_556 S
C1175 C1170 1.425 . S
C1175 C1172 1.409 . S
C1175 C1173 1.415 . S
C1176 H1166 0.930 . S
C1176 C1174 1.419 1_554 S
C1176 C1177 1.362 . S
C1177 H1167 0.930 . S
C1177 C1170 1.409 1_554 S
C1177 C1176 1.362 . S
H1178 C1184 0.930 . S
H1179 C1187 0.930 . S
H1180 C1188 0.930 . S
H1181 C1189 0.930 1_554 S
H1182 C1192 0.930 . S
H1183 C1193 0.930 . S
C1184 H1178 0.930 . S
C1184 C1185 1.355 . S
C1184 C1186 1.415 . S
C1185 C1184 1.355 . S
C1185 C1187 1.419 . S
C1186 C1184 1.415 . S
C1186 C1191 1.425 . S
C1186 C1193 1.409 . S
C1187 H1179 0.930 . S
C1187 C1185 1.419 . S
C1187 C1188 1.362 . S
C1188 H1180 0.930 . S
C1188 C1187 1.362 . S
C1188 C1191 1.409 . S
C1189 H1181 0.930 1_556 S
C1189 C1190 1.355 . S
C1189 C1191 1.415 . S
C1190 C1189 1.355 . S
C1190 C1192 1.419 . S
C1191 C1186 1.425 . S
C1191 C1188 1.409 . S
C1191 C1189 1.415 . S
C1192 H1182 0.930 . S
C1192 C1190 1.419 . S
C1192 C1193 1.362 . S
C1193 H1183 0.930 . S
C1193 C1186 1.409 . S
C1193 C1192 1.362 . S
H1194 C1200 0.930 . S
H1195 C1203 0.930 . S
H1196 C1204 0.930 . S
H1197 C1205 0.930 . S
H1198 C1208 0.930 . S
H1199 C1209 0.930 . S
C1200 H1194 0.930 . S
C1200 C1201 1.355 . S
C1200 C1202 1.415 . S
C1201 C1200 1.355 . S
C1201 C1203 1.419 1_556 S
C1202 C1200 1.415 . S
C1202 C1207 1.425 1_556 S
C1202 C1209 1.409 . S
C1203 H1195 0.930 . S
C1203 C1201 1.419 1_554 S
C1203 C1204 1.362 . S
C1204 H1196 0.930 . S
C1204 C1203 1.362 . S
C1204 C1207 1.409 . S
C1205 H1197 0.930 . S
C1205 C1206 1.355 1_554 S
C1205 C1207 1.415 . S
C1206 C1205 1.355 1_556 S
C1206 C1208 1.419 . S
C1207 C1202 1.425 1_554 S
C1207 C1204 1.409 . S
C1207 C1205 1.415 . S
C1208 H1198 0.930 . S
C1208 C1206 1.419 . S
C1208 C1209 1.362 . S
C1209 H1199 0.930 . S
C1209 C1202 1.409 . S
C1209 C1208 1.362 . S
H1210 C1216 0.930 . S
H1211 C1219 0.930 . S
H1212 C1220 0.930 . S
H1213 C1221 0.930 . S
H1214 C1224 0.930 . S
H1215 C1225 0.930 . S
C1216 H1210 0.930 . S
C1216 C1217 1.355 . S
C1216 C1218 1.415 . S
C1217 C1216 1.355 . S
C1217 C1219 1.419 . S
C1218 C1216 1.415 . S
C1218 C1223 1.425 . S
C1218 C1225 1.409 1_556 S
C1219 H1211 0.930 . S
C1219 C1217 1.419 . S
C1219 C1220 1.362 . S
C1220 H1212 0.930 . S
C1220 C1219 1.362 . S
C1220 C1223 1.409 . S
C1221 H1213 0.930 . S
C1221 C1222 1.355 . S
C1221 C1223 1.415 . S
C1222 C1221 1.355 . S
C1222 C1224 1.419 1_556 S
C1223 C1218 1.425 . S
C1223 C1220 1.409 . S
C1223 C1221 1.415 . S
C1224 H1214 0.930 . S
C1224 C1222 1.419 1_554 S
C1224 C1225 1.362 . S
C1225 H1215 0.930 . S
C1225 C1218 1.409 1_554 S
C1225 C1224 1.362 . S
H1226 C1232 0.930 . S
H1227 C1235 0.927 1_554 S
H1228 C1236 0.930 . S
H1229 C1237 0.930 . S
H1230 C1240 0.930 . S
H1231 C1241 0.930 . S
C1232 H1226 0.930 . S
C1232 C1233 1.355 . S
C1232 C1234 1.415 . S
C1233 C1232 1.355 . S
C1233 C1235 1.425 . S
C1234 C1232 1.415 . S
C1234 C1239 1.441 . S
C1234 C1241 1.409 . S
C1235 H1227 0.927 1_556 S
C1235 C1233 1.425 . S
C1235 C1236 1.360 1_556 S
C1236 H1228 0.930 . S
C1236 C1235 1.360 1_554 S
C1236 C1239 1.402 1_554 S
C1237 H1229 0.930 . S
C1237 C1238 1.355 1_554 S
C1237 C1239 1.408 1_554 S
C1238 C1237 1.355 1_556 S
C1238 C1240 1.419 . S
C1239 C1234 1.441 . S
C1239 C1236 1.402 1_556 S
C1239 C1237 1.408 1_556 S
C1240 H1230 0.930 . S
C1240 C1238 1.419 . S
C1240 C1241 1.362 . S
C1241 H1231 0.930 . S
C1241 C1234 1.409 . S
C1241 C1240 1.362 . S
H1242 C1248 0.930 . S
H1243 C1251 0.930 . S
H1244 C1252 0.930 . S
H1245 C1253 0.930 . S
H1246 C1256 0.930 . S
H1247 C1257 0.930 . S
C1248 H1242 0.930 . S
C1248 C1249 1.355 . S
C1248 C1250 1.415 . S
C1249 C1248 1.355 . S
C1249 C1251 1.419 . S
C1250 C1248 1.415 . S
C1250 C1255 1.425 . S
C1250 C1257 1.409 . S
C1251 H1243 0.930 . S
C1251 C1249 1.419 . S
C1251 C1252 1.362 . S
C1252 H1244 0.930 . S
C1252 C1251 1.362 . S
C1252 C1255 1.409 . S
C1253 H1245 0.930 . S
C1253 C1254 1.355 . S
C1253 C1255 1.415 . S
C1254 C1253 1.355 . S
C1254 C1256 1.419 . S
C1255 C1250 1.425 . S
C1255 C1252 1.409 . S
C1255 C1253 1.415 . S
C1256 H1246 0.930 . S
C1256 C1254 1.419 . S
C1256 C1257 1.362 . S
C1257 H1247 0.930 . S
C1257 C1250 1.409 . S
C1257 C1256 1.362 . S
H1258 C1264 0.930 . S
H1259 C1267 0.930 . S
H1260 C1268 0.930 . S
H1261 C1269 0.930 . S
H1262 C1272 0.930 . S
H1263 C1273 0.930 . S
C1264 H1258 0.930 . S
C1264 C1265 1.355 . S
C1264 C1266 1.415 . S
C1265 C1264 1.355 . S
C1265 C1267 1.419 . S
C1266 C1264 1.415 . S
C1266 C1271 1.425 . S
C1266 C1273 1.409 . S
C1267 H1259 0.930 . S
C1267 C1265 1.419 . S
C1267 C1268 1.362 . S
C1268 H1260 0.930 . S
C1268 C1267 1.362 . S
C1268 C1271 1.409 . S
C1269 H1261 0.930 . S
C1269 C1270 1.355 . S
C1269 C1271 1.415 . S
C1270 C1269 1.355 . S
C1270 C1272 1.419 . S
C1271 C1266 1.425 . S
C1271 C1268 1.409 . S
C1271 C1269 1.415 . S
C1272 H1262 0.930 . S
C1272 C1270 1.419 . S
C1272 C1273 1.362 . S
C1273 H1263 0.930 . S
C1273 C1266 1.409 . S
C1273 C1272 1.362 . S
H1274 C1280 0.930 . S
H1275 C1283 0.930 . S
H1276 C1284 0.930 . S
H1277 C1285 0.930 . S
H1278 C1288 0.930 . S
H1279 C1289 0.930 . S
C1280 H1274 0.930 . S
C1280 C1281 1.355 . S
C1280 C1282 1.415 . S
C1281 C1280 1.355 . S
C1281 C1283 1.419 . S
C1282 C1280 1.415 . S
C1282 C1287 1.425 . S
C1282 C1289 1.409 . S
C1283 H1275 0.930 . S
C1283 C1281 1.419 . S
C1283 C1284 1.362 . S
C1284 H1276 0.930 . S
C1284 C1283 1.362 . S
C1284 C1287 1.409 . S
C1285 H1277 0.930 . S
C1285 C1286 1.355 . S
C1285 C1287 1.415 . S
C1286 C1285 1.355 . S
C1286 C1288 1.419 . S
C1287 C1282 1.425 . S
C1287 C1284 1.409 . S
C1287 C1285 1.415 . S
C1288 H1278 0.930 . S
C1288 C1286 1.419 . S
C1288 C1289 1.362 . S
C1289 H1279 0.930 . S
C1289 C1282 1.409 . S
C1289 C1288 1.362 . S
H1290 C1296 0.930 . S
H1291 C1299 0.930 . S
H1292 C1300 0.930 . S
H1293 C1301 0.930 . S
H1294 C1304 0.930 . S
H1295 C1305 0.930 . S
C1296 H1290 0.930 . S
C1296 C1297 1.355 . S
C1296 C1298 1.415 . S
C1297 C1296 1.355 . S
C1297 C1299 1.419 . S
C1298 C1296 1.415 . S
C1298 C1303 1.425 1_655 S
C1298 C1305 1.409 1_655 S
C1299 H1291 0.930 . S
C1299 C1297 1.419 . S
C1299 C1300 1.362 . S
C1300 H1292 0.930 . S
C1300 C1299 1.362 . S
C1300 C1303 1.409 1_655 S
C1301 H1293 0.930 . S
C1301 C1302 1.355 . S
C1301 C1303 1.415 . S
C1302 C1301 1.355 . S
C1302 C1304 1.419 . S
C1303 C1298 1.425 1_455 S
C1303 C1300 1.409 1_455 S
C1303 C1301 1.415 . S
C1304 H1294 0.930 . S
C1304 C1302 1.419 . S
C1304 C1305 1.362 . S
C1305 H1295 0.930 . S
C1305 C1298 1.409 1_455 S
C1305 C1304 1.362 . S
H1306 C1312 0.930 . S
H1307 C1315 0.930 . S
H1308 C1316 0.930 . S
H1309 C1317 0.930 . S
H1310 C1320 0.930 . S
H1311 C1321 0.930 . S
C1312 H1306 0.930 . S
C1312 C1313 1.355 . S
C1312 C1314 1.415 . S
C1313 C1312 1.355 . S
C1313 C1315 1.419 . S
C1314 C1312 1.415 . S
C1314 C1319 1.425 . S
C1314 C1321 1.409 . S
C1315 H1307 0.930 . S
C1315 C1313 1.419 . S
C1315 C1316 1.362 . S
C1316 H1308 0.930 . S
C1316 C1315 1.362 . S
C1316 C1319 1.409 . S
C1317 H1309 0.930 . S
C1317 C1318 1.355 . S
C1317 C1319 1.415 . S
C1318 C1317 1.355 . S
C1318 C1320 1.419 . S
C1319 C1314 1.425 . S
C1319 C1316 1.409 . S
C1319 C1317 1.415 . S
C1320 H1310 0.930 . S
C1320 C1318 1.419 . S
C1320 C1321 1.362 . S
C1321 H1311 0.930 . S
C1321 C1314 1.409 . S
C1321 C1320 1.362 . S
H1322 C1328 0.930 . S
H1323 C1331 0.930 . S
H1324 C1332 0.930 1_565 S
H1325 C1333 0.930 . S
H1326 C1336 0.930 . S
H1327 C1337 0.930 . S
C1328 H1322 0.930 . S
C1328 C1329 1.355 . S
C1328 C1330 1.415 . S
C1329 C1328 1.355 . S
C1329 C1331 1.419 . S
C1330 C1328 1.415 . S
C1330 C1335 1.425 1_545 S
C1330 C1337 1.409 . S
C1331 H1323 0.930 . S
C1331 C1329 1.419 . S
C1331 C1332 1.362 . S
C1332 H1324 0.930 1_545 S
C1332 C1331 1.362 . S
C1332 C1335 1.409 1_545 S
C1333 H1325 0.930 . S
C1333 C1334 1.355 . S
C1333 C1335 1.415 . S
C1334 C1333 1.355 . S
C1334 C1336 1.419 . S
C1335 C1330 1.425 1_565 S
C1335 C1332 1.409 1_565 S
C1335 C1333 1.415 . S
C1336 H1326 0.930 . S
C1336 C1334 1.419 . S
C1336 C1337 1.362 1_565 S
C1337 H1327 0.930 . S
C1337 C1330 1.409 . S
C1337 C1336 1.362 1_545 S
H1338 C1344 0.930 . S
H1339 C1347 0.930 . S
H1340 C1348 0.930 . S
H1341 C1349 0.930 . S
H1342 C1352 0.930 . S
H1343 C1353 0.930 . S
C1344 H1338 0.930 . S
C1344 C1345 1.355 . S
C1344 C1346 1.415 . S
C1345 C1344 1.355 . S
C1345 C1347 1.419 . S
C1346 C1344 1.415 . S
C1346 C1351 1.425 . S
C1346 C1353 1.409 . S
C1347 H1339 0.930 . S
C1347 C1345 1.419 . S
C1347 C1348 1.362 . S
C1348 H1340 0.930 . S
C1348 C1347 1.362 . S
C1348 C1351 1.409 . S
C1349 H1341 0.930 . S
C1349 C1350 1.355 . S
C1349 C1351 1.415 . S
C1350 C1349 1.355 . S
C1350 C1352 1.419 . S
C1351 C1346 1.425 . S
C1351 C1348 1.409 . S
C1351 C1349 1.415 . S
C1352 H1342 0.930 . S
C1352 C1350 1.419 . S
C1352 C1353 1.362 . S
C1353 H1343 0.930 . S
C1353 C1346 1.409 . S
C1353 C1352 1.362 . S
H1354 C1360 0.930 . S
H1355 C1363 0.930 . S
H1356 C1364 0.930 . S
H1357 C1365 0.930 . S
H1358 C1368 0.930 . S
H1359 C1369 0.930 . S
C1360 H1354 0.930 . S
C1360 C1361 1.355 . S
C1360 C1362 1.415 . S
C1361 C1360 1.355 . S
C1361 C1363 1.419 . S
C1362 C1360 1.415 . S
C1362 C1367 1.425 . S
C1362 C1369 1.409 . S
C1363 H1355 0.930 . S
C1363 C1361 1.419 . S
C1363 C1364 1.362 . S
C1364 H1356 0.930 . S
C1364 C1363 1.362 . S
C1364 C1367 1.409 . S
C1365 H1357 0.930 . S
C1365 C1366 1.355 . S
C1365 C1367 1.415 . S
C1366 C1365 1.355 . S
C1366 C1368 1.419 . S
C1367 C1362 1.425 . S
C1367 C1364 1.409 . S
C1367 C1365 1.415 . S
C1368 H1358 0.930 . S
C1368 C1366 1.419 . S
C1368 C1369 1.362 . S
C1369 H1359 0.930 . S
C1369 C1362 1.409 . S
C1369 C1368 1.362 . S
H1370 C1376 0.930 . S
H1371 C1379 0.930 . S
H1372 C1380 0.930 . S
H1373 C1381 0.930 . S
H1374 C1384 0.930 . S
H1375 C1385 0.930 . S
C1376 H1370 0.930 . S
C1376 C1377 1.355 . S
C1376 C1378 1.415 . S
C1377 C1376 1.355 . S
C1377 C1379 1.419 . S
C1378 C1376 1.415 . S
C1378 C1383 1.425 . S
C1378 C1385 1.409 . S
C1379 H1371 0.930 . S
C1379 C1377 1.419 . S
C1379 C1380 1.362 . S
C1380 H1372 0.930 . S
C1380 C1379 1.362 . S
C1380 C1383 1.409 . S
C1381 H1373 0.930 . S
C1381 C1382 1.355 . S
C1381 C1383 1.415 . S
C1382 C1381 1.355 . S
C1382 C1384 1.419 . S
C1383 C1378 1.425 . S
C1383 C1380 1.409 . S
C1383 C1381 1.415 . S
C1384 H1374 0.930 . S
C1384 C1382 1.419 . S
C1384 C1385 1.362 . S
C1385 H1375 0.930 . S
C1385 C1378 1.409 . S
C1385 C1384 1.362 . S
H1386 C1392 0.930 . S
H1387 C1395 0.930 . S
H1388 C1396 0.930 . S
H1389 C1397 0.930 . S
H1390 C1400 0.930 . S
H1391 C1401 0.930 . S
C1392 H1386 0.930 . S
C1392 C1393 1.355 . S
C1392 C1394 1.415 . S
C1393 C1392 1.355 . S
C1393 C1395 1.419 . S
C1394 C1392 1.415 . S
C1394 C1399 1.425 . S
C1394 C1401 1.409 . S
C1395 H1387 0.930 . S
C1395 C1393 1.419 . S
C1395 C1396 1.362 . S
C1396 H1388 0.930 . S
C1396 C1395 1.362 . S
C1396 C1399 1.409 . S
C1397 H1389 0.930 . S
C1397 C1398 1.355 . S
C1397 C1399 1.415 . S
C1398 C1397 1.355 . S
C1398 C1400 1.419 . S
C1399 C1394 1.425 . S
C1399 C1396 1.409 . S
C1399 C1397 1.415 . S
C1400 H1390 0.930 . S
C1400 C1398 1.419 . S
C1400 C1401 1.362 . S
C1401 H1391 0.930 . S
C1401 C1394 1.409 . S
C1401 C1400 1.362 . S
H1402 C1408 0.930 . S
H1403 C1411 0.930 . S
H1404 C1412 0.930 . S
H1405 C1413 0.930 . S
H1406 C1416 0.930 . S
H1407 C1417 0.930 . S
C1408 H1402 0.930 . S
C1408 C1409 1.355 . S
C1408 C1410 1.415 . S
C1409 C1408 1.355 . S
C1409 C1411 1.419 . S
C1410 C1408 1.415 . S
C1410 C1415 1.425 . S
C1410 C1417 1.409 . S
C1411 H1403 0.930 . S
C1411 C1409 1.419 . S
C1411 C1412 1.362 . S
C1412 H1404 0.930 . S
C1412 C1411 1.362 . S
C1412 C1415 1.409 . S
C1413 H1405 0.930 . S
C1413 C1414 1.355 . S
C1413 C1415 1.415 . S
C1414 C1413 1.355 . S
C1414 C1416 1.419 . S
C1415 C1410 1.425 . S
C1415 C1412 1.409 . S
C1415 C1413 1.415 . S
C1416 H1406 0.930 . S
C1416 C1414 1.419 . S
C1416 C1417 1.362 . S
C1417 H1407 0.930 . S
C1417 C1410 1.409 . S
C1417 C1416 1.362 . S
H1418 C1424 0.930 . S
H1419 C1427 0.930 . S
H1420 C1428 0.930 . S
H1421 C1429 0.930 . S
H1422 C1432 0.930 . S
H1423 C1433 0.930 . S
C1424 H1418 0.930 . S
C1424 C1425 1.355 . S
C1424 C1426 1.415 . S
C1425 C1424 1.355 . S
C1425 C1427 1.419 . S
C1426 C1424 1.415 . S
C1426 C1431 1.425 . S
C1426 C1433 1.409 . S
C1427 H1419 0.930 . S
C1427 C1425 1.419 . S
C1427 C1428 1.362 . S
C1428 H1420 0.930 . S
C1428 C1427 1.362 . S
C1428 C1431 1.409 . S
C1429 H1421 0.930 . S
C1429 C1430 1.355 . S
C1429 C1431 1.415 . S
C1430 C1429 1.355 . S
C1430 C1432 1.419 . S
C1431 C1426 1.425 . S
C1431 C1428 1.409 . S
C1431 C1429 1.415 . S
C1432 H1422 0.930 . S
C1432 C1430 1.419 . S
C1432 C1433 1.362 . S
C1433 H1423 0.930 . S
C1433 C1426 1.409 . S
C1433 C1432 1.362 . S
H1434 C1440 0.930 . S
H1435 C1443 0.930 . S
H1436 C1444 0.930 . S
H1437 C1445 0.930 . S
H1438 C1448 0.930 . S
H1439 C1449 0.930 . S
C1440 H1434 0.930 . S
C1440 C1441 1.355 . S
C1440 C1442 1.415 . S
C1441 C1440 1.355 . S
C1441 C1443 1.419 . S
C1442 C1440 1.415 . S
C1442 C1447 1.425 . S
C1442 C1449 1.409 . S
C1443 H1435 0.930 . S
C1443 C1441 1.419 . S
C1443 C1444 1.362 . S
C1444 H1436 0.930 . S
C1444 C1443 1.362 . S
C1444 C1447 1.409 . S
C1445 H1437 0.930 . S
C1445 C1446 1.355 . S
C1445 C1447 1.415 . S
C1446 C1445 1.355 . S
C1446 C1448 1.419 . S
C1447 C1442 1.425 . S
C1447 C1444 1.409 . S
C1447 C1445 1.415 . S
C1448 H1438 0.930 . S
C1448 C1446 1.419 . S
C1448 C1449 1.362 . S
C1449 H1439 0.930 . S
C1449 C1442 1.409 . S
C1449 C1448 1.362 . S
H1450 C1456 0.930 . S
H1451 C1459 0.930 . S
H1452 C1460 0.930 . S
H1453 C1461 0.930 . S
H1454 C1464 0.930 . S
H1455 C1465 0.930 . S
C1456 H1450 0.930 . S
C1456 C1457 1.355 . S
C1456 C1458 1.415 . S
C1457 C1456 1.355 . S
C1457 C1459 1.419 . S
C1458 C1456 1.415 . S
C1458 C1463 1.425 . S
C1458 C1465 1.409 . S
C1459 H1451 0.930 . S
C1459 C1457 1.419 . S
C1459 C1460 1.362 . S
C1460 H1452 0.930 . S
C1460 C1459 1.362 . S
C1460 C1463 1.409 . S
C1461 H1453 0.930 . S
C1461 C1462 1.355 . S
C1461 C1463 1.415 . S
C1462 C1461 1.355 . S
C1462 C1464 1.419 . S
C1463 C1458 1.425 . S
C1463 C1460 1.409 . S
C1463 C1461 1.415 . S
C1464 H1454 0.930 . S
C1464 C1462 1.419 . S
C1464 C1465 1.362 . S
C1465 H1455 0.930 . S
C1465 C1458 1.409 . S
C1465 C1464 1.362 . S
H1466 C1472 0.930 . S
H1467 C1475 0.930 . S
H1468 C1476 0.930 . S
H1469 C1477 0.930 . S
H1470 C1480 0.930 . S
H1471 C1481 0.930 . S
C1472 H1466 0.930 . S
C1472 C1473 1.355 . S
C1472 C1474 1.415 . S
C1473 C1472 1.355 . S
C1473 C1475 1.419 . S
C1474 C1472 1.415 . S
C1474 C1479 1.425 . S
C1474 C1481 1.409 . S
C1475 H1467 0.930 . S
C1475 C1473 1.419 . S
C1475 C1476 1.362 . S
C1476 H1468 0.930 . S
C1476 C1475 1.362 . S
C1476 C1479 1.409 . S
C1477 H1469 0.930 . S
C1477 C1478 1.355 . S
C1477 C1479 1.415 . S
C1478 C1477 1.355 . S
C1478 C1480 1.419 . S
C1479 C1474 1.425 . S
C1479 C1476 1.409 . S
C1479 C1477 1.415 . S
C1480 H1470 0.930 . S
C1480 C1478 1.419 . S
C1480 C1481 1.362 . S
C1481 H1471 0.930 . S
C1481 C1474 1.409 . S
C1481 C1480 1.362 . S
H1482 C1488 0.930 . S
H1483 C1491 0.930 . S
H1484 C1492 0.930 . S
H1485 C1493 0.930 . S
H1486 C1496 0.930 . S
H1487 C1497 0.930 . S
C1488 H1482 0.930 . S
C1488 C1489 1.355 . S
C1488 C1490 1.415 . S
C1489 C1488 1.355 . S
C1489 C1491 1.419 . S
C1490 C1488 1.415 . S
C1490 C1495 1.425 . S
C1490 C1497 1.409 . S
C1491 H1483 0.930 . S
C1491 C1489 1.419 . S
C1491 C1492 1.362 . S
C1492 H1484 0.930 . S
C1492 C1491 1.362 . S
C1492 C1495 1.409 . S
C1493 H1485 0.930 . S
C1493 C1494 1.355 . S
C1493 C1495 1.415 . S
C1494 C1493 1.355 . S
C1494 C1496 1.419 . S
C1495 C1490 1.425 . S
C1495 C1492 1.409 . S
C1495 C1493 1.415 . S
C1496 H1486 0.930 . S
C1496 C1494 1.419 . S
C1496 C1497 1.362 . S
C1497 H1487 0.930 . S
C1497 C1490 1.409 . S
C1497 C1496 1.362 . S
H1498 C1504 0.930 . S
H1499 C1507 0.930 . S
H1500 C1508 0.930 . S
H1501 C1509 0.930 . S
H1502 C1512 0.930 . S
H1503 C1513 0.930 . S
C1504 H1498 0.930 . S
C1504 C1505 1.355 . S
C1504 C1506 1.415 . S
C1505 C1504 1.355 . S
C1505 C1507 1.419 . S
C1506 C1504 1.415 . S
C1506 C1511 1.425 . S
C1506 C1513 1.409 . S
C1507 H1499 0.930 . S
C1507 C1505 1.419 . S
C1507 C1508 1.362 . S
C1508 H1500 0.930 . S
C1508 C1507 1.362 . S
C1508 C1511 1.409 . S
C1509 H1501 0.930 . S
C1509 C1510 1.355 . S
C1509 C1511 1.415 . S
C1510 C1509 1.355 . S
C1510 C1512 1.419 . S
C1511 C1506 1.425 . S
C1511 C1508 1.409 . S
C1511 C1509 1.415 . S
C1512 H1502 0.930 . S
C1512 C1510 1.419 . S
C1512 C1513 1.362 . S
C1513 H1503 0.930 . S
C1513 C1506 1.409 . S
C1513 C1512 1.362 . S
H1514 C1520 0.930 . S
H1515 C1523 0.930 . S
H1516 C1524 0.930 . S
H1517 C1525 0.930 . S
H1518 C1528 0.930 . S
H1519 C1529 0.930 . S
C1520 H1514 0.930 . S
C1520 C1521 1.355 . S
C1520 C1522 1.415 . S
C1521 C1520 1.355 . S
C1521 C1523 1.419 . S
C1522 C1520 1.415 . S
C1522 C1527 1.425 . S
C1522 C1529 1.409 . S
C1523 H1515 0.930 . S
C1523 C1521 1.419 . S
C1523 C1524 1.362 . S
C1524 H1516 0.930 . S
C1524 C1523 1.362 . S
C1524 C1527 1.409 . S
C1525 H1517 0.930 . S
C1525 C1526 1.355 . S
C1525 C1527 1.415 . S
C1526 C1525 1.355 . S
C1526 C1528 1.419 . S
C1527 C1522 1.425 . S
C1527 C1524 1.409 . S
C1527 C1525 1.415 . S
C1528 H1518 0.930 . S
C1528 C1526 1.419 . S
C1528 C1529 1.362 . S
C1529 H1519 0.930 . S
C1529 C1522 1.409 . S
C1529 C1528 1.362 . S
H1530 C1536 0.930 . S
H1531 C1539 0.930 . S
H1532 C1540 0.930 . S
H1533 C1541 0.930 . S
H1534 C1544 0.930 . S
H1535 C1545 0.930 . S
C1536 H1530 0.930 . S
C1536 C1537 1.355 . S
C1536 C1538 1.415 1_565 S
C1537 C1536 1.355 . S
C1537 C1539 1.419 . S
C1538 C1536 1.415 1_545 S
C1538 C1543 1.425 1_545 S
C1538 C1545 1.409 . S
C1539 H1531 0.930 . S
C1539 C1537 1.419 . S
C1539 C1540 1.362 . S
C1540 H1532 0.930 . S
C1540 C1539 1.362 . S
C1540 C1543 1.409 . S
C1541 H1533 0.930 . S
C1541 C1542 1.355 . S
C1541 C1543 1.415 1_545 S
C1542 C1541 1.355 . S
C1542 C1544 1.419 . S
C1543 C1538 1.425 1_565 S
C1543 C1540 1.409 . S
C1543 C1541 1.415 1_565 S
C1544 H1534 0.930 . S
C1544 C1542 1.419 . S
C1544 C1545 1.362 . S
C1545 H1535 0.930 . S
C1545 C1538 1.409 . S
C1545 C1544 1.362 . S
H1546 C1552 0.930 . S
H1547 C1555 0.930 . S
H1548 C1556 0.930 1_655 S
H1549 C1557 0.930 . S
H1550 C1560 0.930 . S
H1551 C1561 0.930 1_455 S
C1552 H1546 0.930 . S
C1552 C1553 1.355 . S
C1552 C1554 1.415 . S
C1553 C1552 1.355 . S
C1553 C1555 1.419 . S
C1554 C1552 1.415 . S
C1554 C1559 1.425 1_455 S
C1554 C1561 1.409 1_455 S
C1555 H1547 0.930 . S
C1555 C1553 1.419 . S
C1555 C1556 1.362 . S
C1556 H1548 0.930 1_455 S
C1556 C1555 1.362 . S
C1556 C1559 1.409 1_455 S
C1557 H1549 0.930 . S
C1557 C1558 1.355 . S
C1557 C1559 1.415 . S
C1558 C1557 1.355 . S
C1558 C1560 1.419 . S
C1559 C1554 1.425 1_655 S
C1559 C1556 1.409 1_655 S
C1559 C1557 1.415 . S
C1560 H1550 0.930 . S
C1560 C1558 1.419 . S
C1560 C1561 1.362 . S
C1561 H1551 0.930 1_655 S
C1561 C1554 1.409 1_655 S
C1561 C1560 1.362 . S
H1562 C1568 0.930 . S
H1563 C1571 0.930 . S
H1564 C1572 0.930 . S
H1565 C1573 0.930 . S
H1566 C1576 0.930 . S
H1567 C1577 0.930 . S
C1568 H1562 0.930 . S
C1568 C1569 1.355 . S
C1568 C1570 1.415 . S
C1569 C1568 1.355 . S
C1569 C1571 1.419 . S
C1570 C1568 1.415 . S
C1570 C1575 1.425 . S
C1570 C1577 1.409 . S
C1571 H1563 0.930 . S
C1571 C1569 1.419 . S
C1571 C1572 1.362 . S
C1572 H1564 0.930 . S
C1572 C1571 1.362 . S
C1572 C1575 1.409 . S
C1573 H1565 0.930 . S
C1573 C1574 1.355 . S
C1573 C1575 1.415 . S
C1574 C1573 1.355 . S
C1574 C1576 1.419 . S
C1575 C1570 1.425 . S
C1575 C1572 1.409 . S
C1575 C1573 1.415 . S
C1576 H1566 0.930 . S
C1576 C1574 1.419 . S
C1576 C1577 1.362 . S
C1577 H1567 0.930 . S
C1577 C1570 1.409 . S
C1577 C1576 1.362 . S
H1578 C1584 0.930 . S
H1579 C1587 0.930 . S
H1580 C1588 0.930 . S
H1581 C1589 0.930 . S
H1582 C1592 0.930 . S
H1583 C1593 0.930 . S
C1584 H1578 0.930 . S
C1584 C1585 1.355 . S
C1584 C1586 1.415 . S
C1585 C1584 1.355 . S
C1585 C1587 1.419 . S
C1586 C1584 1.415 . S
C1586 C1591 1.425 . S
C1586 C1593 1.409 . S
C1587 H1579 0.930 . S
C1587 C1585 1.419 . S
C1587 C1588 1.362 . S
C1588 H1580 0.930 . S
C1588 C1587 1.362 . S
C1588 C1591 1.409 . S
C1589 H1581 0.930 . S
C1589 C1590 1.355 . S
C1589 C1591 1.415 . S
C1590 C1589 1.355 . S
C1590 C1592 1.419 . S
C1591 C1586 1.425 . S
C1591 C1588 1.409 . S
C1591 C1589 1.415 . S
C1592 H1582 0.930 . S
C1592 C1590 1.419 . S
C1592 C1593 1.362 . S
C1593 H1583 0.930 . S
C1593 C1586 1.409 . S
C1593 C1592 1.362 . S
H1594 C1600 0.930 . S
H1595 C1603 0.930 . S
H1596 C1604 0.930 . S
H1597 C1605 0.930 . S
H1598 C1608 0.930 . S
H1599 C1609 0.930 . S
C1600 H1594 0.930 . S
C1600 C1601 1.355 . S
C1600 C1602 1.415 . S
C1601 C1600 1.355 . S
C1601 C1603 1.419 . S
C1602 C1600 1.415 . S
C1602 C1607 1.425 . S
C1602 C1609 1.409 . S
C1603 H1595 0.930 . S
C1603 C1601 1.419 . S
C1603 C1604 1.362 . S
C1604 H1596 0.930 . S
C1604 C1603 1.362 . S
C1604 C1607 1.409 . S
C1605 H1597 0.930 . S
C1605 C1606 1.355 . S
C1605 C1607 1.415 . S
C1606 C1605 1.355 . S
C1606 C1608 1.419 . S
C1607 C1602 1.425 . S
C1607 C1604 1.409 . S
C1607 C1605 1.415 . S
C1608 H1598 0.930 . S
C1608 C1606 1.419 . S
C1608 C1609 1.362 . S
C1609 H1599 0.930 . S
C1609 C1602 1.409 . S
C1609 C1608 1.362 . S
H1610 C1616 0.930 . S
H1611 C1619 0.930 . S
H1612 C1620 0.930 . S
H1613 C1621 0.930 . S
H1614 C1624 0.930 . S
H1615 C1625 0.930 . S
C1616 H1610 0.930 . S
C1616 C1617 1.355 . S
C1616 C1618 1.415 . S
C1617 C1616 1.355 . S
C1617 C1619 1.419 . S
C1618 C1616 1.415 . S
C1618 C1623 1.425 . S
C1618 C1625 1.409 . S
C1619 H1611 0.930 . S
C1619 C1617 1.419 . S
C1619 C1620 1.362 . S
C1620 H1612 0.930 . S
C1620 C1619 1.362 . S
C1620 C1623 1.409 . S
C1621 H1613 0.930 . S
C1621 C1622 1.355 . S
C1621 C1623 1.415 . S
C1622 C1621 1.355 . S
C1622 C1624 1.419 . S
C1623 C1618 1.425 . S
C1623 C1620 1.409 . S
C1623 C1621 1.415 . S
C1624 H1614 0.930 . S
C1624 C1622 1.419 . S
C1624 C1625 1.362 . S
C1625 H1615 0.930 . S
C1625 C1618 1.409 . S
C1625 C1624 1.362 . S
H1626 C1632 0.930 . S
H1627 C1635 0.930 . S
H1628 C1636 0.930 . S
H1629 C1637 0.930 . S
H1630 C1640 0.930 . S
H1631 C1641 0.930 . S
C1632 H1626 0.930 . S
C1632 C1633 1.355 . S
C1632 C1634 1.415 . S
C1633 C1632 1.355 . S
C1633 C1635 1.419 . S
C1634 C1632 1.415 . S
C1634 C1639 1.425 . S
C1634 C1641 1.409 . S
C1635 H1627 0.930 . S
C1635 C1633 1.419 . S
C1635 C1636 1.362 . S
C1636 H1628 0.930 . S
C1636 C1635 1.362 . S
C1636 C1639 1.409 . S
C1637 H1629 0.930 . S
C1637 C1638 1.355 . S
C1637 C1639 1.415 . S
C1638 C1637 1.355 . S
C1638 C1640 1.419 . S
C1639 C1634 1.425 . S
C1639 C1636 1.409 . S
C1639 C1637 1.415 . S
C1640 H1630 0.930 . S
C1640 C1638 1.419 . S
C1640 C1641 1.362 . S
C1641 H1631 0.930 . S
C1641 C1634 1.409 . S
C1641 C1640 1.362 . S
H1642 C1648 0.930 . S
H1643 C1651 0.930 . S
H1644 C1652 0.930 . S
H1645 C1653 0.930 . S
H1646 C1656 0.930 . S
H1647 C1657 0.930 . S
C1648 H1642 0.930 . S
C1648 C1649 1.355 . S
C1648 C1650 1.415 . S
C1649 C1648 1.355 . S
C1649 C1651 1.419 . S
C1650 C1648 1.415 . S
C1650 C1655 1.425 . S
C1650 C1657 1.409 . S
C1651 H1643 0.930 . S
C1651 C1649 1.419 . S
C1651 C1652 1.362 . S
C1652 H1644 0.930 . S
C1652 C1651 1.362 . S
C1652 C1655 1.409 . S
C1653 H1645 0.930 . S
C1653 C1654 1.355 . S
C1653 C1655 1.415 . S
C1654 C1653 1.355 . S
C1654 C1656 1.419 . S
C1655 C1650 1.425 . S
C1655 C1652 1.409 . S
C1655 C1653 1.415 . S
C1656 H1646 0.930 . S
C1656 C1654 1.419 . S
C1656 C1657 1.362 . S
C1657 H1647 0.930 . S
C1657 C1650 1.409 . S
C1657 C1656 1.362 . S
H1658 C1664 0.930 . S
H1659 C1667 0.930 . S
H1660 C1668 0.930 . S
H1661 C1669 0.930 . S
H1662 C1672 0.930 . S
H1663 C1673 0.930 . S
C1664 H1658 0.930 . S
C1664 C1665 1.355 . S
C1664 C1666 1.415 . S
C1665 C1664 1.355 . S
C1665 C1667 1.419 . S
C1666 C1664 1.415 . S
C1666 C1671 1.425 . S
C1666 C1673 1.409 . S
C1667 H1659 0.930 . S
C1667 C1665 1.419 . S
C1667 C1668 1.362 . S
C1668 H1660 0.930 . S
C1668 C1667 1.362 . S
C1668 C1671 1.409 . S
C1669 H1661 0.930 . S
C1669 C1670 1.355 . S
C1669 C1671 1.415 . S
C1670 C1669 1.355 . S
C1670 C1672 1.419 . S
C1671 C1666 1.425 . S
C1671 C1668 1.409 . S
C1671 C1669 1.415 . S
C1672 H1662 0.930 . S
C1672 C1670 1.419 . S
C1672 C1673 1.362 . S
C1673 H1663 0.930 . S
C1673 C1666 1.409 . S
C1673 C1672 1.362 . S
H1674 C1680 0.930 . S
H1675 C1683 0.930 . S
H1676 C1684 0.930 . S
H1677 C1685 0.930 . S
H1678 C1688 0.930 . S
H1679 C1689 0.930 . S
C1680 H1674 0.930 . S
C1680 C1681 1.355 . S
C1680 C1682 1.415 . S
C1681 C1680 1.355 . S
C1681 C1683 1.419 . S
C1682 C1680 1.415 . S
C1682 C1687 1.425 . S
C1682 C1689 1.409 . S
C1683 H1675 0.930 . S
C1683 C1681 1.419 . S
C1683 C1684 1.362 . S
C1684 H1676 0.930 . S
C1684 C1683 1.362 . S
C1684 C1687 1.409 . S
C1685 H1677 0.930 . S
C1685 C1686 1.355 . S
C1685 C1687 1.415 . S
C1686 C1685 1.355 . S
C1686 C1688 1.419 . S
C1687 C1682 1.425 . S
C1687 C1684 1.409 . S
C1687 C1685 1.415 . S
C1688 H1678 0.930 . S
C1688 C1686 1.419 . S
C1688 C1689 1.362 . S
C1689 H1679 0.930 . S
C1689 C1682 1.409 . S
C1689 C1688 1.362 . S
H1690 C1696 0.930 . S
H1691 C1699 0.930 . S
H1692 C1700 0.930 . S
H1693 C1701 0.930 . S
H1694 C1704 0.930 . S
H1695 C1705 0.930 . S
C1696 H1690 0.930 . S
C1696 C1697 1.355 . S
C1696 C1698 1.415 . S
C1697 C1696 1.355 . S
C1697 C1699 1.419 . S
C1698 C1696 1.415 . S
C1698 C1703 1.425 . S
C1698 C1705 1.409 . S
C1699 H1691 0.930 . S
C1699 C1697 1.419 . S
C1699 C1700 1.362 . S
C1700 H1692 0.930 . S
C1700 C1699 1.362 . S
C1700 C1703 1.409 . S
C1701 H1693 0.930 . S
C1701 C1702 1.355 . S
C1701 C1703 1.415 . S
C1702 C1701 1.355 . S
C1702 C1704 1.419 . S
C1703 C1698 1.425 . S
C1703 C1700 1.409 . S
C1703 C1701 1.415 . S
C1704 H1694 0.930 . S
C1704 C1702 1.419 . S
C1704 C1705 1.362 . S
C1705 H1695 0.930 . S
C1705 C1698 1.409 . S
C1705 C1704 1.362 . S
H1706 C1712 0.930 . S
H1707 C1715 0.930 . S
H1708 C1716 0.930 . S
H1709 C1717 0.930 . S
H1710 C1720 0.930 . S
H1711 C1721 0.930 . S
C1712 H1706 0.930 . S
C1712 C1713 1.355 . S
C1712 C1714 1.415 . S
C1713 C1712 1.355 . S
C1713 C1715 1.419 . S
C1714 C1712 1.415 . S
C1714 C1719 1.425 . S
C1714 C1721 1.409 . S
C1715 H1707 0.930 . S
C1715 C1713 1.419 . S
C1715 C1716 1.362 . S
C1716 H1708 0.930 . S
C1716 C1715 1.362 . S
C1716 C1719 1.409 . S
C1717 H1709 0.930 . S
C1717 C1718 1.355 . S
C1717 C1719 1.415 . S
C1718 C1717 1.355 . S
C1718 C1720 1.419 . S
C1719 C1714 1.425 . S
C1719 C1716 1.409 . S
C1719 C1717 1.415 . S
C1720 H1710 0.930 . S
C1720 C1718 1.419 . S
C1720 C1721 1.362 . S
C1721 H1711 0.930 . S
C1721 C1714 1.409 . S
C1721 C1720 1.362 . S
H1722 C1728 0.930 . S
H1723 C1731 0.930 . S
H1724 C1732 0.930 . S
H1725 C1733 0.930 . S
H1726 C1736 0.930 . S
H1727 C1737 0.930 . S
C1728 H1722 0.930 . S
C1728 C1729 1.355 . S
C1728 C1730 1.415 . S
C1729 C1728 1.355 . S
C1729 C1731 1.419 . S
C1730 C1728 1.415 . S
C1730 C1735 1.425 . S
C1730 C1737 1.409 . S
C1731 H1723 0.930 . S
C1731 C1729 1.419 . S
C1731 C1732 1.362 . S
C1732 H1724 0.930 . S
C1732 C1731 1.362 . S
C1732 C1735 1.409 . S
C1733 H1725 0.930 . S
C1733 C1734 1.355 . S
C1733 C1735 1.415 . S
C1734 C1733 1.355 . S
C1734 C1736 1.419 . S
C1735 C1730 1.425 . S
C1735 C1732 1.409 . S
C1735 C1733 1.415 . S
C1736 H1726 0.930 . S
C1736 C1734 1.419 . S
C1736 C1737 1.362 . S
C1737 H1727 0.930 . S
C1737 C1730 1.409 . S
C1737 C1736 1.362 . S
H1738 C1744 0.930 . S
H1739 C1747 0.930 . S
H1740 C1748 0.930 . S
H1741 C1749 0.930 . S
H1742 C1752 0.930 . S
H1743 C1753 0.930 . S
C1744 H1738 0.930 . S
C1744 C1745 1.355 . S
C1744 C1746 1.415 . S
C1745 C1744 1.355 . S
C1745 C1747 1.419 . S
C1746 C1744 1.415 . S
C1746 C1751 1.425 . S
C1746 C1753 1.409 . S
C1747 H1739 0.930 . S
C1747 C1745 1.419 . S
C1747 C1748 1.362 . S
C1748 H1740 0.930 . S
C1748 C1747 1.362 . S
C1748 C1751 1.409 . S
C1749 H1741 0.930 . S
C1749 C1750 1.355 . S
C1749 C1751 1.415 . S
C1750 C1749 1.355 . S
C1750 C1752 1.419 . S
C1751 C1746 1.425 . S
C1751 C1748 1.409 . S
C1751 C1749 1.415 . S
C1752 H1742 0.930 . S
C1752 C1750 1.419 . S
C1752 C1753 1.362 . S
C1753 H1743 0.930 . S
C1753 C1746 1.409 . S
C1753 C1752 1.362 . S
H1754 C1760 0.930 . S
H1755 C1763 0.930 . S
H1756 C1764 0.930 . S
H1757 C1765 0.930 . S
H1758 C1768 0.930 . S
H1759 C1769 0.930 . S
C1760 H1754 0.930 . S
C1760 C1761 1.355 . S
C1760 C1762 1.415 . S
C1761 C1760 1.355 . S
C1761 C1763 1.419 . S
C1762 C1760 1.415 . S
C1762 C1767 1.425 . S
C1762 C1769 1.409 . S
C1763 H1755 0.930 . S
C1763 C1761 1.419 . S
C1763 C1764 1.362 . S
C1764 H1756 0.930 . S
C1764 C1763 1.362 . S
C1764 C1767 1.409 . S
C1765 H1757 0.930 . S
C1765 C1766 1.355 . S
C1765 C1767 1.415 . S
C1766 C1765 1.355 . S
C1766 C1768 1.419 . S
C1767 C1762 1.425 . S
C1767 C1764 1.409 . S
C1767 C1765 1.415 . S
C1768 H1758 0.930 . S
C1768 C1766 1.419 . S
C1768 C1769 1.362 . S
C1769 H1759 0.930 . S
C1769 C1762 1.409 . S
C1769 C1768 1.362 . S
H1770 C1776 0.930 . S
H1771 C1779 0.930 . S
H1772 C1780 0.930 . S
H1773 C1781 0.930 . S
H1774 C1784 0.930 . S
H1775 C1785 0.930 . S
C1776 H1770 0.930 . S
C1776 C1777 1.355 . S
C1776 C1778 1.415 . S
C1777 C1776 1.355 . S
C1777 C1779 1.419 . S
C1778 C1776 1.415 . S
C1778 C1783 1.425 . S
C1778 C1785 1.409 . S
C1779 H1771 0.930 . S
C1779 C1777 1.419 . S
C1779 C1780 1.362 . S
C1780 H1772 0.930 . S
C1780 C1779 1.362 . S
C1780 C1783 1.409 . S
C1781 H1773 0.930 . S
C1781 C1782 1.355 . S
C1781 C1783 1.415 . S
C1782 C1781 1.355 . S
C1782 C1784 1.419 . S
C1783 C1778 1.425 . S
C1783 C1780 1.409 . S
C1783 C1781 1.415 . S
C1784 H1774 0.930 . S
C1784 C1782 1.419 . S
C1784 C1785 1.362 . S
C1785 H1775 0.930 . S
C1785 C1778 1.409 . S
C1785 C1784 1.362 . S
H1786 C1792 0.930 . S
H1787 C1795 0.930 . S
H1788 C1796 0.930 . S
H1789 C1797 0.930 . S
H1790 C1800 0.930 . S
H1791 C1801 0.930 . S
C1792 H1786 0.930 . S
C1792 C1793 1.355 . S
C1792 C1794 1.415 . S
C1793 C1792 1.355 . S
C1793 C1795 1.419 . S
C1794 C1792 1.415 . S
C1794 C1799 1.425 . S
C1794 C1801 1.409 . S
C1795 H1787 0.930 . S
C1795 C1793 1.419 . S
C1795 C1796 1.362 . S
C1796 H1788 0.930 . S
C1796 C1795 1.362 . S
C1796 C1799 1.409 . S
C1797 H1789 0.930 . S
C1797 C1798 1.355 . S
C1797 C1799 1.415 . S
C1798 C1797 1.355 . S
C1798 C1800 1.419 . S
C1799 C1794 1.425 . S
C1799 C1796 1.409 . S
C1799 C1797 1.415 . S
C1800 H1790 0.930 . S
C1800 C1798 1.419 . S
C1800 C1801 1.362 . S
C1801 H1791 0.930 . S
C1801 C1794 1.409 . S
C1801 C1800 1.362 . S
H1802 C1808 0.930 . S
H1803 C1811 0.930 . S
H1804 C1812 0.930 . S
H1805 C1813 0.930 . S
H1806 C1816 0.930 . S
H1807 C1817 0.930 . S
C1808 H1802 0.930 . S
C1808 C1809 1.355 . S
C1808 C1810 1.415 . S
C1809 C1808 1.355 . S
C1809 C1811 1.419 . S
C1810 C1808 1.415 . S
C1810 C1815 1.425 . S
C1810 C1817 1.409 . S
C1811 H1803 0.930 . S
C1811 C1809 1.419 . S
C1811 C1812 1.362 . S
C1812 H1804 0.930 . S
C1812 C1811 1.362 . S
C1812 C1815 1.409 . S
C1813 H1805 0.930 . S
C1813 C1814 1.355 . S
C1813 C1815 1.415 . S
C1814 C1813 1.355 . S
C1814 C1816 1.419 . S
C1815 C1810 1.425 . S
C1815 C1812 1.409 . S
C1815 C1813 1.415 . S
C1816 H1806 0.930 . S
C1816 C1814 1.419 . S
C1816 C1817 1.362 . S
C1817 H1807 0.930 . S
C1817 C1810 1.409 . S
C1817 C1816 1.362 . S
H1818 C1824 0.930 . S
H1819 C1827 0.930 . S
H1820 C1828 0.930 . S
H1821 C1829 0.930 . S
H1822 C1832 0.930 . S
H1823 C1833 0.930 . S
C1824 H1818 0.930 . S
C1824 C1825 1.355 . S
C1824 C1826 1.415 . S
C1825 C1824 1.355 . S
C1825 C1827 1.419 . S
C1826 C1824 1.415 . S
C1826 C1831 1.425 . S
C1826 C1833 1.409 . S
C1827 H1819 0.930 . S
C1827 C1825 1.419 . S
C1827 C1828 1.362 . S
C1828 H1820 0.930 . S
C1828 C1827 1.362 . S
C1828 C1831 1.409 . S
C1829 H1821 0.930 . S
C1829 C1830 1.355 . S
C1829 C1831 1.415 . S
C1830 C1829 1.355 . S
C1830 C1832 1.419 . S
C1831 C1826 1.425 . S
C1831 C1828 1.409 . S
C1831 C1829 1.415 . S
C1832 H1822 0.930 . S
C1832 C1830 1.419 . S
C1832 C1833 1.362 . S
C1833 H1823 0.930 . S
C1833 C1826 1.409 . S
C1833 C1832 1.362 . S
H1834 C1840 0.930 . S
H1835 C1843 0.930 . S
H1836 C1844 0.930 . S
H1837 C1845 0.930 . S
H1838 C1848 0.930 . S
H1839 C1849 0.930 . S
C1840 H1834 0.930 . S
C1840 C1841 1.355 . S
C1840 C1842 1.415 . S
C1841 C1840 1.355 . S
C1841 C1843 1.419 . S
C1842 C1840 1.415 . S
C1842 C1847 1.425 . S
C1842 C1849 1.409 . S
C1843 H1835 0.930 . S
C1843 C1841 1.419 . S
C1843 C1844 1.362 . S
C1844 H1836 0.930 . S
C1844 C1843 1.362 . S
C1844 C1847 1.409 . S
C1845 H1837 0.930 . S
C1845 C1846 1.355 . S
C1845 C1847 1.415 . S
C1846 C1845 1.355 . S
C1846 C1848 1.419 . S
C1847 C1842 1.425 . S
C1847 C1844 1.409 . S
C1847 C1845 1.415 . S
C1848 H1838 0.930 . S
C1848 C1846 1.419 . S
C1848 C1849 1.362 . S
C1849 H1839 0.930 . S
C1849 C1842 1.409 . S
C1849 C1848 1.362 . S
H1850 C1856 0.930 . S
H1851 C1859 0.930 . S
H1852 C1860 0.930 . S
H1853 C1861 0.930 . S
H1854 C1864 0.930 . S
H1855 C1865 0.930 . S
C1856 H1850 0.930 . S
C1856 C1857 1.355 . S
C1856 C1858 1.415 . S
C1857 C1856 1.355 . S
C1857 C1859 1.419 . S
C1858 C1856 1.415 . S
C1858 C1863 1.425 . S
C1858 C1865 1.409 . S
C1859 H1851 0.930 . S
C1859 C1857 1.419 . S
C1859 C1860 1.362 . S
C1860 H1852 0.930 . S
C1860 C1859 1.362 . S
C1860 C1863 1.409 . S
C1861 H1853 0.930 . S
C1861 C1862 1.355 . S
C1861 C1863 1.415 . S
C1862 C1861 1.355 . S
C1862 C1864 1.419 . S
C1863 C1858 1.425 . S
C1863 C1860 1.409 . S
C1863 C1861 1.415 . S
C1864 H1854 0.930 . S
C1864 C1862 1.419 . S
C1864 C1865 1.362 . S
C1865 H1855 0.930 . S
C1865 C1858 1.409 . S
C1865 C1864 1.362 . S
H1866 C1872 0.930 . S
H1867 C1875 0.930 . S
H1868 C1876 0.930 . S
H1869 C1877 0.930 . S
H1870 C1880 0.930 . S
H1871 C1881 0.930 . S
C1872 H1866 0.930 . S
C1872 C1873 1.355 . S
C1872 C1874 1.415 . S
C1873 C1872 1.355 . S
C1873 C1875 1.419 . S
C1874 C1872 1.415 . S
C1874 C1879 1.425 . S
C1874 C1881 1.409 . S
C1875 H1867 0.930 . S
C1875 C1873 1.419 . S
C1875 C1876 1.362 . S
C1876 H1868 0.930 . S
C1876 C1875 1.362 . S
C1876 C1879 1.409 . S
C1877 H1869 0.930 . S
C1877 C1878 1.355 . S
C1877 C1879 1.415 . S
C1878 C1877 1.355 . S
C1878 C1880 1.419 . S
C1879 C1874 1.425 . S
C1879 C1876 1.409 . S
C1879 C1877 1.415 . S
C1880 H1870 0.930 . S
C1880 C1878 1.419 . S
C1880 C1881 1.362 . S
C1881 H1871 0.930 . S
C1881 C1874 1.409 . S
C1881 C1880 1.362 . S
H1882 C1888 0.930 . S
H1883 C1891 0.930 . S
H1884 C1892 0.930 . S
H1885 C1893 0.930 . S
H1886 C1896 0.930 . S
H1887 C1897 0.930 . S
C1888 H1882 0.930 . S
C1888 C1889 1.355 . S
C1888 C1890 1.415 . S
C1889 C1888 1.355 . S
C1889 C1891 1.419 . S
C1890 C1888 1.415 . S
C1890 C1895 1.425 . S
C1890 C1897 1.409 . S
C1891 H1883 0.930 . S
C1891 C1889 1.419 . S
C1891 C1892 1.362 . S
C1892 H1884 0.930 . S
C1892 C1891 1.362 . S
C1892 C1895 1.409 . S
C1893 H1885 0.930 . S
C1893 C1894 1.355 . S
C1893 C1895 1.415 . S
C1894 C1893 1.355 . S
C1894 C1896 1.419 . S
C1895 C1890 1.425 . S
C1895 C1892 1.409 . S
C1895 C1893 1.415 . S
C1896 H1886 0.930 . S
C1896 C1894 1.419 . S
C1896 C1897 1.362 . S
C1897 H1887 0.930 . S
C1897 C1890 1.409 . S
C1897 C1896 1.362 . S
H1898 C1904 0.930 . S
H1899 C1907 0.930 . S
H1900 C1908 0.930 . S
H1901 C1909 0.930 . S
H1902 C1912 0.930 . S
H1903 C1913 0.930 . S
C1904 H1898 0.930 . S
C1904 C1905 1.355 . S
C1904 C1906 1.415 . S
C1905 C1904 1.355 . S
C1905 C1907 1.419 . S
C1906 C1904 1.415 . S
C1906 C1911 1.425 . S
C1906 C1913 1.409 . S
C1907 H1899 0.930 . S
C1907 C1905 1.419 . S
C1907 C1908 1.362 . S
C1908 H1900 0.930 . S
C1908 C1907 1.362 . S
C1908 C1911 1.409 . S
C1909 H1901 0.930 . S
C1909 C1910 1.355 . S
C1909 C1911 1.415 . S
C1910 C1909 1.355 . S
C1910 C1912 1.419 . S
C1911 C1906 1.425 . S
C1911 C1908 1.409 . S
C1911 C1909 1.415 . S
C1912 H1902 0.930 . S
C1912 C1910 1.419 . S
C1912 C1913 1.362 . S
C1913 H1903 0.930 . S
C1913 C1906 1.409 . S
C1913 C1912 1.362 . S
H1914 C1920 0.930 . S
H1915 C1923 0.930 . S
H1916 C1924 0.930 . S
H1917 C1925 0.930 . S
H1918 C1928 0.930 . S
H1919 C1929 0.930 . S
C1920 H1914 0.930 . S
C1920 C1921 1.355 . S
C1920 C1922 1.415 . S
C1921 C1920 1.355 . S
C1921 C1923 1.419 . S
C1922 C1920 1.415 . S
C1922 C1927 1.425 . S
C1922 C1929 1.409 . S
C1923 H1915 0.930 . S
C1923 C1921 1.419 . S
C1923 C1924 1.362 . S
C1924 H1916 0.930 . S
C1924 C1923 1.362 . S
C1924 C1927 1.409 . S
C1925 H1917 0.930 . S
C1925 C1926 1.355 . S
C1925 C1927 1.415 . S
C1926 C1925 1.355 . S
C1926 C1928 1.419 . S
C1927 C1922 1.425 . S
C1927 C1924 1.409 . S
C1927 C1925 1.415 . S
C1928 H1918 0.930 . S
C1928 C1926 1.419 . S
C1928 C1929 1.362 . S
C1929 H1919 0.930 . S
C1929 C1922 1.409 . S
C1929 C1928 1.362 . S
H1930 C1936 0.930 . S
H1931 C1939 0.930 . S
H1932 C1940 0.930 . S
H1933 C1941 0.930 . S
H1934 C1944 0.930 . S
H1935 C1945 0.930 . S
C1936 H1930 0.930 . S
C1936 C1937 1.355 . S
C1936 C1938 1.415 . S
C1937 C1936 1.355 . S
C1937 C1939 1.419 . S
C1938 C1936 1.415 . S
C1938 C1943 1.425 . S
C1938 C1945 1.409 . S
C1939 H1931 0.930 . S
C1939 C1937 1.419 . S
C1939 C1940 1.362 . S
C1940 H1932 0.930 . S
C1940 C1939 1.362 . S
C1940 C1943 1.409 . S
C1941 H1933 0.930 . S
C1941 C1942 1.355 . S
C1941 C1943 1.415 . S
C1942 C1941 1.355 . S
C1942 C1944 1.419 . S
C1943 C1938 1.425 . S
C1943 C1940 1.409 . S
C1943 C1941 1.415 . S
C1944 H1934 0.930 . S
C1944 C1942 1.419 . S
C1944 C1945 1.362 . S
C1945 H1935 0.930 . S
C1945 C1938 1.409 . S
C1945 C1944 1.362 . S
H1946 C1952 0.930 . S
H1947 C1955 0.930 . S
H1948 C1956 0.930 . S
H1949 C1957 0.930 . S
H1950 C1960 0.930 . S
H1951 C1961 0.930 . S
C1952 H1946 0.930 . S
C1952 C1953 1.355 . S
C1952 C1954 1.415 . S
C1953 C1952 1.355 . S
C1953 C1955 1.419 . S
C1954 C1952 1.415 . S
C1954 C1959 1.425 . S
C1954 C1961 1.409 . S
C1955 H1947 0.930 . S
C1955 C1953 1.419 . S
C1955 C1956 1.362 . S
C1956 H1948 0.930 . S
C1956 C1955 1.362 . S
C1956 C1959 1.409 . S
C1957 H1949 0.930 . S
C1957 C1958 1.355 . S
C1957 C1959 1.415 . S
C1958 C1957 1.355 . S
C1958 C1960 1.419 . S
C1959 C1954 1.425 . S
C1959 C1956 1.409 . S
C1959 C1957 1.415 . S
C1960 H1950 0.930 . S
C1960 C1958 1.419 . S
C1960 C1961 1.362 . S
C1961 H1951 0.930 . S
C1961 C1954 1.409 . S
C1961 C1960 1.362 . S
C1105 C253 1.472 . S
C1110 C409 1.449 . S
C1121 C272 1.500 . S
C1126 C493 1.494 . S
C1137 C234 1.457 . S
C1142 C573 1.479 . S
C1153 C215 1.470 . S
C1158 C489 1.475 1_556 S
C1174 C577 1.457 . S
C1169 C177 1.466 . S
C1185 C196 1.424 . S
C1190 C405 1.445 1_556 S
C1206 C398 1.455 . S
C1201 C220 1.437 . S
C1222 C482 1.540 . S
C1217 C182 1.527 . S
C1233 C201 1.425 . S
C1238 C584 1.476 1_556 S
C1249 C258 1.431 . S
C1254 C500 1.450 . S
C1265 C277 1.440 . S
C1270 C566 1.442 . S
C1286 C416 1.498 . S
C1281 C239 1.448 . S
C1302 C661 1.381 . S
C1297 C25 1.489 . S
C1313 C44 1.524 . S
C1318 C745 1.436 . S
C1329 C6 1.482 . S
C1334 C825 1.475 . S
C1345 C329 1.474 . S
C1350 C741 1.467 . S
C1361 C291 1.474 . S
C1366 C829 1.448 . S
C1377 C310 1.436 . S
C1382 C657 1.447 . S
C1393 C334 1.463 . S
C1398 C650 1.469 . S
C1409 C296 1.495 . S
C1414 C734 1.539 . S
C1430 C836 1.472 . S
C1425 C315 1.429 . S
C1441 C30 1.443 1_565 S
C1446 C752 1.457 . S
C1462 C818 1.489 . S
C1457 C49 1.483 . S
C1473 C11 1.474 . S
C1478 C668 1.493 . S
C1494 C913 1.383 . S
C1489 C139 1.484 . S
C1505 C158 1.499 . S
C1510 C997 1.447 . S
C1526 C1077 1.472 . S
C1521 C120 1.479 . S
C1542 C993 1.469 . S
C1537 C101 1.443 . S
C1558 C1081 1.456 . S
C1553 C63 1.466 . S
C1569 C82 1.438 . S
C1574 C909 1.432 . S
C1585 C106 1.494 1_655 S
C1590 C902 1.498 . S
C1601 C68 1.518 . S
C1606 C986 1.548 . S
C1622 C1088 1.530 . S
C1617 C87 1.469 1_545 S
C1633 C144 1.402 . S
C1638 C1004 1.449 . S
C1649 C163 1.451 . S
C1654 C1070 1.450 . S
C1665 C125 1.378 . S
C1670 C920 1.435 . S
C1681 C287 1.624 . S
C1686 C412 1.575 . S
C1702 C496 1.538 . S
C1697 C306 1.727 . S
C1713 C325 1.670 . S
C1718 C568 1.502 . S
C1729 C116 1.641 . S
C1734 C484 1.419 . S
C1745 C135 1.664 . S
C1750 C580 1.591 . S
C1766 C400 1.437 . S
C1761 C154 1.584 . S
C1777 C59 1.657 . S
C1782 C664 1.585 . S
C1793 C78 1.707 . S
C1798 C748 1.525 . S
C1809 C97 1.655 . S
C1814 C820 1.400 . S
C1825 C230 1.664 . S
C1830 C736 1.394 . S
C1846 C832 1.588 . S
C1841 C249 1.669 . S
C1857 C268 1.618 . S
C1862 C652 1.380 . S
C1873 C173 1.675 . S
C1878 C916 1.539 . S
C1889 C192 1.698 . S
C1894 C1000 1.623 . S
C1910 C1072 1.387 . S
C1905 C211 1.644 . S
C1921 C2 1.641 . S
C1926 C988 1.417 . S
C1937 C21 1.686 . S
C1942 C1084 1.563 . S
C1953 C40 1.629 . S
C1958 C904 1.474 . S
