# Generated by pormake.
# Topology pyr, (3,6)-cn, num edge types: 1
# Building blocks:
#     Node 0, Type 0, BuildingBlock: BETDIP_clean_linker_0, # of connection points: 3
#     Node 1, Type 0, BuildingBlock: BETDIP_clean_linker_0, # of connection points: 3
#     Node 2, Type 0, BuildingBlock: BETDIP_clean_linker_0, # of connection points: 3
#     Node 3, Type 0, BuildingBlock: BETDIP_clean_linker_0, # of connection points: 3
#     Node 4, Type 0, BuildingBlock: BETDIP_clean_linker_0, # of connection points: 3
#     Node 5, Type 0, BuildingBlock: BETDIP_clean_linker_0, # of connection points: 3
#     Node 6, Type 0, BuildingBlock: BETDIP_clean_linker_0, # of connection points: 3
#     Node 7, Type 0, BuildingBlock: BETDIP_clean_linker_0, # of connection points: 3
#     Node 8, Type 1, BuildingBlock: BETDIP_clean_sbu_0, # of connection points: 6
#     Node 9, Type 1, BuildingBlock: BETDIP_clean_sbu_0, # of connection points: 6
#     Node 10, Type 1, BuildingBlock: BETDIP_clean_sbu_0, # of connection points: 6
#     Node 11, Type 1, BuildingBlock: BETDIP_clean_sbu_0, # of connection points: 6
#     Edge 12, Type (0, 1), BuildingBlock: ZUJKAS_clean_linker_0, # of connection points: 2
#     Edge 13, Type (0, 1), BuildingBlock: ZUJKAS_clean_linker_0, # of connection points: 2
#     Edge 14, Type (0, 1), BuildingBlock: ZUJKAS_clean_linker_0, # of connection points: 2
#     Edge 15, Type (0, 1), BuildingBlock: ZUJKAS_clean_linker_0, # of connection points: 2
#     Edge 16, Type (0, 1), BuildingBlock: ZUJKAS_clean_linker_0, # of connection points: 2
#     Edge 17, Type (0, 1), BuildingBlock: ZUJKAS_clean_linker_0, # of connection points: 2
#     Edge 18, Type (0, 1), BuildingBlock: ZUJKAS_clean_linker_0, # of connection points: 2
#     Edge 19, Type (0, 1), BuildingBlock: ZUJKAS_clean_linker_0, # of connection points: 2
#     Edge 20, Type (0, 1), BuildingBlock: ZUJKAS_clean_linker_0, # of connection points: 2
#     Edge 21, Type (0, 1), BuildingBlock: ZUJKAS_clean_linker_0, # of connection points: 2
#     Edge 22, Type (0, 1), BuildingBlock: ZUJKAS_clean_linker_0, # of connection points: 2
#     Edge 23, Type (0, 1), BuildingBlock: ZUJKAS_clean_linker_0, # of connection points: 2
#     Edge 24, Type (0, 1), BuildingBlock: ZUJKAS_clean_linker_0, # of connection points: 2
#     Edge 25, Type (0, 1), BuildingBlock: ZUJKAS_clean_linker_0, # of connection points: 2
#     Edge 26, Type (0, 1), BuildingBlock: ZUJKAS_clean_linker_0, # of connection points: 2
#     Edge 27, Type (0, 1), BuildingBlock: ZUJKAS_clean_linker_0, # of connection points: 2
#     Edge 28, Type (0, 1), BuildingBlock: ZUJKAS_clean_linker_0, # of connection points: 2
#     Edge 29, Type (0, 1), BuildingBlock: ZUJKAS_clean_linker_0, # of connection points: 2
#     Edge 30, Type (0, 1), BuildingBlock: ZUJKAS_clean_linker_0, # of connection points: 2
#     Edge 31, Type (0, 1), BuildingBlock: ZUJKAS_clean_linker_0, # of connection points: 2
#     Edge 32, Type (0, 1), BuildingBlock: ZUJKAS_clean_linker_0, # of connection points: 2
#     Edge 33, Type (0, 1), BuildingBlock: ZUJKAS_clean_linker_0, # of connection points: 2
#     Edge 34, Type (0, 1), BuildingBlock: ZUJKAS_clean_linker_0, # of connection points: 2
#     Edge 35, Type (0, 1), BuildingBlock: ZUJKAS_clean_linker_0, # of connection points: 2
# Relax obj value: 0.137
# Max RMSD: 0.228
# Mean RMSD: 0.150
data_MOF--net-pyr--node1-BETDIP_clean_sbu_0--node2-BETDIP_clean_linker_0--edge1-ZUJKAS_clean_linker_0
_symmetry_space_group_name_H-M    P1
_symmetry_Int_Tables_number       1
_symmetry_cell_setting            triclinic
loop_
_symmetry_equiv_pos_as_xyz
'x, y, z'
_cell_length_a     45.906518
_cell_length_b     49.970646
_cell_length_c     51.061207
_cell_angle_alpha  89.742607
_cell_angle_beta   90.614279
_cell_angle_gamma 109.29992
loop_
_atom_site_label
_atom_site_type_symbol
_atom_site_fract_x
_atom_site_fract_y
_atom_site_fract_z
_atom_type_partial_charge
H0 H 0.2957 0.26839 0.2352 0.0
H1 H 0.34743 0.26133 0.16748 0.0
H2 H 0.34996 0.21289 0.23677 0.0
H3 H 0.33124 0.29477 0.15 0.0
C4 C 0.31258 0.29712 0.1616 0.0
C5 C 0.31183 0.25981 0.22593 0.0
C6 C 0.32216 0.24003 0.2393 0.0
C7 C 0.32064 0.26765 0.20014 0.0
C8 C 0.34058 0.25576 0.18749 0.0
C9 C 0.35157 0.23617 0.20075 0.0
C10 C 0.34223 0.22848 0.22664 0.0
N11 N 0.30726 0.28622 0.1875 0.0
H12 H 0.18027 0.79402 0.7352 0.0
H13 H 0.17443 0.74327 0.66632 0.0
H14 H 0.24317 0.74757 0.72542 0.0
H15 H 0.13988 0.76163 0.65198 0.0
C16 C 0.13697 0.77708 0.66564 0.0
C17 C 0.18844 0.7796 0.72397 0.0
C18 C 0.21314 0.77161 0.73345 0.0
C19 C 0.17452 0.76989 0.69977 0.0
C20 C 0.18499 0.75119 0.68498 0.0
C21 C 0.20945 0.74256 0.69438 0.0
C22 C 0.22335 0.75295 0.71862 0.0
N23 N 0.15128 0.78083 0.69079 0.0
H24 H 0.68641 0.4054 0.8411 0.0
H25 H 0.60996 0.32735 0.83266 0.0
H26 H 0.67993 0.33468 0.89147 0.0
H27 H 0.59751 0.34731 0.79709 0.0
C28 C 0.61172 0.36933 0.79483 0.0
C29 C 0.67431 0.38381 0.84722 0.0
C30 C 0.68658 0.37183 0.86774 0.0
C31 C 0.64702 0.36808 0.83393 0.0
C32 C 0.63119 0.33985 0.84219 0.0
C33 C 0.64317 0.32748 0.86289 0.0
C34 C 0.67089 0.34372 0.87525 0.0
N35 N 0.63691 0.38166 0.81251 0.0
H36 H 0.82455 0.66205 0.32826 0.0
H37 H 0.90434 0.73764 0.32433 0.0
H38 H 0.84006 0.72669 0.3871 0.0
H39 H 0.91062 0.72263 0.28483 0.0
C40 C 0.89766 0.70026 0.28266 0.0
C41 C 0.83835 0.68237 0.33632 0.0
C42 C 0.82879 0.69249 0.35919 0.0
C43 C 0.86528 0.69841 0.3233 0.0
C44 C 0.88317 0.72507 0.33361 0.0
C45 C 0.87418 0.73524 0.35679 0.0
C46 C 0.84701 0.71884 0.36928 0.0
N47 N 0.87359 0.68646 0.30039 0.0
H48 H 0.65764 0.78245 0.89796 0.0
H49 H 0.7083 0.76605 0.83321 0.0
H50 H 0.67333 0.83582 0.82955 0.0
H51 H 0.68853 0.72004 0.85047 0.0
C52 C 0.69516 0.7261 0.87066 0.0
C53 C 0.6666 0.78751 0.87834 0.0
C54 C 0.66299 0.81084 0.8649 0.0
C55 C 0.68253 0.77105 0.86695 0.0
C56 C 0.69526 0.77819 0.8419 0.0
C57 C 0.69205 0.80154 0.82824 0.0
C58 C 0.67566 0.8176 0.83982 0.0
N59 N 0.68763 0.74891 0.8819 0.0
H60 H 0.84141 0.26694 0.33808 0.0
H61 H 0.83285 0.31835 0.40293 0.0
H62 H 0.77524 0.31066 0.33439 0.0
H63 H 0.89305 0.282 0.3548 0.0
C64 C 0.88599 0.27564 0.37477 0.0
C65 C 0.83123 0.28149 0.34671 0.0
C66 C 0.80772 0.28797 0.33308 0.0
C67 C 0.84068 0.29275 0.3718 0.0
C68 C 0.82608 0.31027 0.38334 0.0
C69 C 0.80292 0.31743 0.36968 0.0
C70 C 0.79411 0.30635 0.34449 0.0
N71 N 0.86304 0.28489 0.3865 0.0
H72 H 0.33956 0.65224 0.22823 0.0
H73 H 0.41491 0.73058 0.23883 0.0
H74 H 0.34894 0.72252 0.17637 0.0
H75 H 0.4185 0.71279 0.27943 0.0
C76 C 0.40876 0.68983 0.27891 0.0
C77 C 0.35163 0.67391 0.22234 0.0
C78 C 0.34096 0.68538 0.20046 0.0
C79 C 0.378 0.68988 0.23666 0.0
C80 C 0.39426 0.71803 0.2285 0.0
C81 C 0.38367 0.73008 0.20675 0.0
C82 C 0.35709 0.71347 0.19309 0.0
N83 N 0.38743 0.67639 0.25851 0.0
H84 H 0.10007 0.31121 0.7382 0.0
H85 H 0.17988 0.38658 0.73676 0.0
H86 H 0.16684 0.32399 0.67664 0.0
H87 H 0.17383 0.38122 0.78144 0.0
C88 C 0.14906 0.37656 0.78307 0.0
C89 C 0.12145 0.32369 0.72905 0.0
C90 C 0.13112 0.31415 0.70579 0.0
C91 C 0.13925 0.3494 0.74075 0.0
C92 C 0.16648 0.36632 0.72843 0.0
C93 C 0.17648 0.3573 0.7052 0.0
C94 C 0.15888 0.33109 0.69434 0.0
N95 N 0.12892 0.35811 0.76448 0.0
Tb96 Tb 0.96649 1.00811 0.53462 0.0
Tb97 Tb 0.03403 0.03995 0.52924 0.0
C98 C 0.91404 0.9706 0.5359 0.0
C99 C 0.89657 0.95118 0.55615 0.0
C100 C 0.86653 0.93322 0.55076 0.0
C101 C 0.84881 0.91633 0.57058 0.0
C102 C 0.8609 0.91723 0.59614 0.0
C103 C 0.89143 0.93477 0.60121 0.0
C104 C 0.90911 0.95161 0.58137 0.0
C105 C 0.98856 0.05055 0.56798 0.0
C106 C 0.01603 0.98744 0.56534 0.0
C107 C 0.08699 0.07661 0.5273 0.0
C108 C 0.10597 0.09327 0.50619 0.0
C109 C 0.13458 0.11363 0.51204 0.0
C110 C 0.15369 0.12828 0.49186 0.0
C111 C 0.14447 0.12259 0.46553 0.0
C112 C 0.1154 0.10255 0.45983 0.0
C113 C 0.09628 0.08804 0.48001 0.0
C114 C 0.01155 0.99744 0.49597 0.0
C115 C 0.98443 0.06119 0.49905 0.0
O116 O 0.93878 0.96598 0.5275 0.0
O117 O 0.91895 0.99745 0.54047 0.0
O118 O 1.00213 0.03398 0.56026 0.0
O119 O 0.96046 0.04164 0.55932 0.0
O120 O 0.98823 0.98037 0.55446 0.0
O121 O 0.03624 1.01314 0.56228 0.0
O122 O 0.06207 0.08257 0.53282 0.0
O123 O 0.08175 0.04931 0.52598 0.0
O124 O 0.99843 1.01438 0.50356 0.0
O125 O 0.03952 1.00584 0.50492 0.0
O126 O 0.01247 0.06785 0.50944 0.0
O127 O 0.96371 0.03581 0.50252 0.0
H128 H 0.85657 0.93266 0.53135 0.0
H129 H 0.82555 0.90278 0.56596 0.0
H130 H 0.90132 0.93625 0.62072 0.0
H131 H 0.93228 0.96551 0.58586 0.0
H132 H 0.14238 0.11782 0.53218 0.0
H133 H 0.17604 0.14343 0.49683 0.0
H134 H 0.10751 0.09802 0.43976 0.0
H135 H 0.07414 0.07241 0.47521 0.0
Tb136 Tb 0.54503 0.04219 0.03984 0.0
Tb137 Tb 0.47967 1.01318 0.0262 0.0
C138 C 0.59737 0.07817 0.04861 0.0
C139 C 0.61245 0.09678 0.07037 0.0
C140 C 0.64023 0.11877 0.06607 0.0
C141 C 0.6555 0.13607 0.0868 0.0
C142 C 0.64322 0.13149 0.11218 0.0
C143 C 0.61503 0.10966 0.11629 0.0
C144 C 0.59968 0.09249 0.0955 0.0
C145 C 0.51904 0.9943 0.06602 0.0
C146 C 0.49248 0.05912 0.06906 0.0
C147 C 0.42726 0.97745 1.01699 0.0
C148 C 0.41306 0.95722 0.99609 0.0
C149 C 0.38309 0.93826 0.99927 0.0
C150 C 0.36859 0.91978 0.97905 0.0
C151 C 0.38389 0.91999 0.95528 0.0
C152 C 0.41428 0.93868 0.95242 0.0
C153 C 0.42875 0.95716 0.97269 0.0
C154 C 0.50592 0.06134 1.00043 0.0
C155 C 0.53209 0.99628 0.99709 0.0
O156 O 0.57484 0.0842 0.0369 0.0
O157 O 0.59061 0.051 0.0529 0.0
O158 O 0.50669 1.01269 0.06024 0.0
O159 O 0.54759 1.00363 0.05893 0.0
O160 O 0.52178 0.06674 0.06208 0.0
O161 O 0.47211 0.03535 0.06042 0.0
O162 O 0.44861 0.97191 0.03097 0.0
O163 O 0.43515 1.0042 1.01051 0.0
O164 O 0.518 0.04268 1.00588 0.0
O165 O 0.47745 0.05223 1.00779 0.0
O166 O 0.50303 0.98822 1.00472 0.0
O167 O 0.55215 0.0205 1.0051 0.0
H168 H 0.65031 0.12233 0.04674 0.0
H169 H 0.67729 0.15256 0.08311 0.0
H170 H 0.60485 0.1059 0.13558 0.0
H171 H 0.57806 0.07569 0.09907 0.0
H172 H 0.3707 0.9381 1.01725 0.0
H173 H 0.34507 0.90591 0.98177 0.0
H174 H 0.42681 0.93911 0.93449 0.0
H175 H 0.452 0.97166 0.96997 0.0
Tb176 Tb 0.50813 0.55598 0.55032 0.0
Tb177 Tb 0.5037 0.49742 0.52694 0.0
C178 C 0.49837 0.60007 0.56514 0.0
C179 C 0.47089 0.60777 0.57109 0.0
C180 C 0.44289 0.59556 0.55746 0.0
C181 C 0.41684 0.60265 0.56405 0.0
C182 C 0.41832 0.62175 0.58456 0.0
C183 C 0.44641 0.63384 0.59813 0.0
C184 C 0.47245 0.62694 0.5914 0.0
C185 C 0.53413 0.52466 0.57803 0.0
C186 C 0.44645 0.5024 0.55676 0.0
C187 C 0.51466 0.45175 0.52262 0.0
C188 C 0.53399 0.4414 0.50547 0.0
C189 C 0.53848 0.41563 0.51125 0.0
C190 C 0.55998 0.40722 0.49728 0.0
C191 C 0.57745 0.42456 0.47733 0.0
C192 C 0.57217 0.45005 0.47111 0.0
C193 C 0.55061 0.45841 0.4851 0.0
C194 C 0.48548 0.52844 0.49146 0.0
C195 C 0.56136 0.55266 0.51412 0.0
O196 O 0.50229 0.59467 0.54059 0.0
O197 O 0.50397 0.58188 0.58125 0.0
O198 O 0.5092 0.51609 0.56508 0.0
O199 O 0.54507 0.55211 0.57624 0.0
O200 O 0.4596 0.5304 0.55662 0.0
O201 O 0.4606 0.48505 0.54806 0.0
O202 O 0.5302 0.47246 0.5382 0.0
O203 O 0.49052 0.45609 0.51178 0.0
O204 O 0.49489 0.53447 0.51466 0.0
O205 O 0.48566 0.50283 0.48749 0.0
O206 O 0.55006 0.5246 0.51584 0.0
O207 O 0.54736 0.56945 0.52432 0.0
H208 H 0.4411 0.58044 0.54187 0.0
H209 H 0.39542 0.59283 0.55343 0.0
H210 H 0.44833 0.64888 0.61381 0.0
H211 H 0.49383 0.63647 0.60218 0.0
H212 H 0.5261 0.40246 0.52716 0.0
H213 H 0.56376 0.38768 0.50282 0.0
H214 H 0.58498 0.46371 0.45567 0.0
H215 H 0.54753 0.47851 0.48052 0.0
Tb216 Tb 0.01534 0.55487 1.01561 0.0
Tb217 Tb 0.01199 0.50657 0.05125 0.0
C218 C 1.00302 0.59098 0.98711 0.0
C219 C 0.97755 0.6025 0.98476 0.0
C220 C 0.94861 0.58824 0.99569 0.0
C221 C 0.92389 0.59827 0.99142 0.0
C222 C 0.92776 0.62275 0.97622 0.0
C223 C 0.95708 0.6373 0.96592 0.0
C224 C 0.98173 0.62723 0.97016 0.0
C225 C 0.06715 0.56044 0.04194 0.0
C226 C 0.98505 0.5515 0.07207 0.0
C227 C 0.02406 0.47004 0.0794 0.0
C228 C 0.04783 0.4563 0.07972 0.0
C229 C 0.07449 0.46684 0.06451 0.0
C230 C 0.09757 0.45432 0.06595 0.0
C231 C 0.09446 0.43116 0.08276 0.0
C232 C 0.06745 0.42054 0.09771 0.0
C233 C 0.04434 0.43298 0.09614 0.0
C234 C 0.96017 0.5015 0.02523 0.0
C235 C 0.04207 0.5099 0.99457 0.0
O236 O 0.99607 0.56421 0.98096 0.0
O237 O 0.02002 0.59754 1.00838 0.0
O238 O 0.03999 0.55004 0.0502 0.0
O239 O 0.06598 0.57012 1.01849 0.0
O240 O 0.98555 0.56008 0.04741 0.0
O241 O 0.99726 0.532 0.079 0.0
O242 O 0.03393 0.49721 0.08445 0.0
O243 O 1.00449 0.46364 0.05974 0.0
O244 O 0.98729 0.51141 1.01676 0.0
O245 O 0.96134 0.49219 0.04883 0.0
O246 O 0.04099 0.50076 1.01907 0.0
O247 O 0.03043 0.52981 0.98783 0.0
H248 H 0.94498 0.56906 1.00705 0.0
H249 H 0.9017 0.58676 0.99984 0.0
H250 H 0.96077 0.65596 0.95382 0.0
H251 H 1.00389 0.63838 0.96149 0.0
H252 H 0.07769 0.48498 0.05182 0.0
H253 H 0.11787 0.46285 0.05395 0.0
H254 H 0.06448 0.40307 0.11119 0.0
H255 H 0.02398 0.42471 0.10813 0.0
H256 H 0.31576 0.2719 0.28091 0.0
H257 H 0.29092 0.25477 0.32282 0.0
H258 H 0.27529 0.1685 0.29863 0.0
H259 H 0.30023 0.18545 0.2569 0.0
H260 H 0.23144 0.2214 0.32912 0.0
H261 H 0.30885 0.16789 0.37204 0.0
H262 H 0.32004 0.19209 0.34474 0.0
H263 H 0.29631 0.15579 0.3395 0.0
C264 C 0.30734 0.24929 0.2847 0.0
C265 C 0.31003 0.23001 0.26568 0.0
C266 C 0.29325 0.23956 0.30864 0.0
C267 C 0.28166 0.21039 0.31401 0.0
C268 C 0.28481 0.19113 0.29522 0.0
H269 H 0.15737 0.09843 0.42127 0.0
H270 H 0.19191 0.12172 0.38571 0.0
C271 C 0.29903 0.20084 0.27135 0.0
C272 C 0.26399 0.19992 0.33823 0.0
H273 H 0.25826 0.15578 0.39059 0.0
C274 C 0.23756 0.2074 0.34278 0.0
C275 C 0.27202 0.18164 0.35601 0.0
C276 C 0.30103 0.17411 0.35299 0.0
C277 C 0.21827 0.1962 0.36408 0.0
C278 C 0.22578 0.17724 0.38133 0.0
C279 C 0.25256 0.17026 0.37719 0.0
C280 C 0.20534 0.16345 0.40314 0.0
C281 C 0.18938 0.20386 0.36748 0.0
C282 C 0.20171 0.17927 0.42474 0.0
C283 C 0.18195 0.16604 0.44507 0.0
C284 C 0.16546 0.13681 0.44404 0.0
C285 C 0.16939 0.12106 0.42242 0.0
C286 C 0.18926 0.13426 0.40221 0.0
H287 H 0.18434 0.21515 0.35012 0.0
H288 H 0.16923 0.18453 0.37103 0.0
H289 H 0.19222 0.21788 0.38479 0.0
H290 H 0.21417 0.20181 0.42585 0.0
H291 H 0.17929 0.17873 0.46144 0.0
H292 H 0.23024 0.82688 0.74898 0.0
H293 H 0.25887 0.84812 0.78849 0.0
H294 H 0.26224 0.7664 0.81272 0.0
H295 H 0.23341 0.74487 0.77314 0.0
H296 H 0.2439 0.83533 0.84127 0.0
H297 H 0.3533 0.81745 0.8148 0.0
H298 H 0.32265 0.81417 0.7913 0.0
H299 H 0.31938 0.78645 0.81474 0.0
C300 C 0.23674 0.81334 0.76285 0.0
C301 C 0.22956 0.78418 0.75796 0.0
C302 C 0.25324 0.82554 0.78534 0.0
C303 C 0.26298 0.80889 0.80332 0.0
C304 C 0.25543 0.77969 0.7988 0.0
H305 H 0.34591 0.8646 0.95723 0.0
H306 H 0.3163 0.83575 0.92105 0.0
C307 C 0.23895 0.76744 0.77624 0.0
C308 C 0.28103 0.82234 0.82676 0.0
H309 H 0.3522 0.83888 0.85579 0.0
C310 C 0.26749 0.83593 0.84456 0.0
C311 C 0.31189 0.82324 0.83082 0.0
C312 C 0.32786 0.80977 0.81185 0.0
C313 C 0.28411 0.85059 0.86626 0.0
C314 C 0.31492 0.85161 0.87018 0.0
C315 C 0.32843 0.83781 0.85264 0.0
C316 C 0.33389 0.86828 0.89174 0.0
C317 C 0.26904 0.86557 0.88457 0.0
C318 C 0.35369 0.89589 0.88697 0.0
C319 C 0.37041 0.91248 0.90753 0.0
C320 C 0.36764 0.90166 0.93321 0.0
C321 C 0.34823 0.87367 0.93774 0.0
C322 C 0.33146 0.85712 0.91714 0.0
H323 H 0.24509 0.86339 0.87836 0.0
H324 H 0.26845 0.85675 0.90463 0.0
H325 H 0.28286 0.88846 0.88552 0.0
H326 H 0.35565 0.90481 0.86742 0.0
H327 H 0.38478 0.93407 0.90344 0.0
H328 H 0.64192 0.42507 0.77998 0.0
H329 H 0.62924 0.45099 0.74298 0.0
H330 H 0.55321 0.37658 0.72159 0.0
H331 H 0.56556 0.35077 0.75864 0.0
H332 H 0.62676 0.44072 0.6895 0.0
H333 H 0.51102 0.43615 0.7235 0.0
H334 H 0.53847 0.42756 0.74459 0.0
H335 H 0.51572 0.40198 0.72135 0.0
C336 C 0.6224 0.41425 0.76749 0.0
C337 C 0.60461 0.38581 0.77245 0.0
C338 C 0.61518 0.42912 0.74624 0.0
C339 C 0.58987 0.41603 0.72956 0.0
C340 C 0.57238 0.38753 0.73438 0.0
H341 H 0.50607 0.46878 0.59174 0.0
H342 H 0.52054 0.44233 0.62739 0.0
C343 C 0.57959 0.37268 0.75554 0.0
C344 C 0.58208 0.4319 0.7069 0.0
H345 H 0.524 0.4524 0.68001 0.0
C346 C 0.60434 0.4434 0.68754 0.0
C347 C 0.55278 0.43543 0.70406 0.0
C348 C 0.5282 0.42488 0.72458 0.0
C349 C 0.59797 0.45767 0.66538 0.0
C350 C 0.56866 0.4612 0.66254 0.0
C351 C 0.54643 0.44971 0.68193 0.0
C352 C 0.56069 0.47703 0.63993 0.0
C353 C 0.62252 0.46816 0.64484 0.0
C354 C 0.57824 0.50548 0.63486 0.0
C355 C 0.57005 0.5206 0.61438 0.0
C356 C 0.54395 0.50778 0.59849 0.0
C357 C 0.52645 0.47928 0.60343 0.0
C358 C 0.53466 0.46415 0.62394 0.0
H359 H 0.63949 0.45666 0.64577 0.0
H360 H 0.61222 0.46574 0.62485 0.0
H361 H 0.63526 0.49098 0.64822 0.0
H362 H 0.59797 0.5163 0.64713 0.0
H363 H 0.5839 0.54257 0.61132 0.0
H364 H 0.94083 0.72128 0.24525 0.0
H365 H 0.95325 0.69616 0.20811 0.0
H366 H 0.88339 0.61891 0.23248 0.0
H367 H 0.87062 0.64396 0.26939 0.0
H368 H 0.9742 0.65073 0.20857 0.0
H369 H 0.86241 0.6229 0.15507 0.0
H370 H 0.87273 0.64877 0.18111 0.0
H371 H 0.85887 0.61152 0.18864 0.0
C372 C 0.92801 0.69897 0.24257 0.0
C373 C 0.90469 0.68468 0.26017 0.0
C374 C 0.93513 0.68464 0.22136 0.0
C375 C 0.91894 0.65572 0.21721 0.0
C376 C 0.89573 0.64135 0.23489 0.0
H377 H 0.98078 0.5398 0.12459 0.0
H378 H 0.9639 0.56488 0.15906 0.0
C379 C 0.88859 0.65568 0.25611 0.0
C380 C 0.92722 0.64044 0.195 0.0
H381 H 0.89811 0.60098 0.14028 0.0
C382 C 0.95757 0.63994 0.1936 0.0
C383 C 0.90566 0.62665 0.17524 0.0
C384 C 0.87317 0.62765 0.17486 0.0
C385 C 0.96677 0.62561 0.17336 0.0
C386 C 0.94493 0.61094 0.15414 0.0
C387 C 0.91475 0.61194 0.15517 0.0
C388 C 0.95313 0.59451 0.13286 0.0
C389 C 0.99998 0.62663 0.17254 0.0
C390 C 0.95155 0.60205 0.10647 0.0
C391 C 0.96105 0.5876 0.08658 0.0
C392 C 0.97217 0.56519 0.0927 0.0
C393 C 0.97258 0.55704 0.1191 0.0
C394 C 0.96309 0.57149 0.13891 0.0
H395 H 0.01531 0.64456 0.18425 0.0
H396 H 1.00176 0.60666 0.18084 0.0
H397 H 0.00847 0.6287 0.15209 0.0
H398 H 0.94372 0.61962 0.10132 0.0
H399 H 0.96031 0.59442 0.06649 0.0
H400 H 0.34435 0.21404 0.15127 0.0
H401 H 0.37374 0.18691 0.1309 0.0
H402 H 0.43242 0.19947 0.19943 0.0
H403 H 0.40314 0.22663 0.21995 0.0
H404 H 0.43671 0.20008 0.11936 0.0
H405 H 0.39737 0.11284 0.19226 0.0
H406 H 0.3798 0.14011 0.18903 0.0
H407 H 0.41618 0.14744 0.20585 0.0
C408 C 0.36383 0.21143 0.16183 0.0
C409 C 0.37129 0.22227 0.1873 0.0
C410 C 0.38051 0.19583 0.15021 0.0
C411 C 0.40488 0.19076 0.16386 0.0
C412 C 0.41326 0.20261 0.18881 0.0
H413 H 0.52697 0.11054 0.08976 0.0
H414 H 0.50825 0.14338 0.11448 0.0
C415 C 0.39654 0.21814 0.20047 0.0
C416 C 0.42069 0.17222 0.15226 0.0
H417 H 0.43232 0.1086 0.16031 0.0
C418 C 0.43595 0.18016 0.12836 0.0
C419 C 0.41932 0.1461 0.16396 0.0
C420 C 0.40209 0.1359 0.18907 0.0
C421 C 0.44968 0.16254 0.11568 0.0
C422 C 0.44846 0.13651 0.12746 0.0
C423 C 0.43346 0.12871 0.15149 0.0
C424 C 0.46054 0.11609 0.1142 0.0
C425 C 0.46439 0.17144 0.08934 0.0
C426 C 0.44012 0.08945 0.10677 0.0
C427 C 0.45072 0.07058 0.09284 0.0
C428 C 0.48202 0.07795 0.08613 0.0
C429 C 0.50268 0.10425 0.09448 0.0
C430 C 0.49202 0.12314 0.10846 0.0
H431 H 0.45776 0.18902 0.08058 0.0
H432 H 0.48988 0.17883 0.0917 0.0
H433 H 0.45777 0.1533 0.07549 0.0
H434 H 0.41576 0.08355 0.11114 0.0
H435 H 0.43417 0.0505 0.08681 0.0
H436 H 0.11006 0.77811 0.61814 0.0
H437 H 0.08553 0.81212 0.6025 0.0
H438 H 0.10229 0.85365 0.67771 0.0
H439 H 0.12621 0.81963 0.69356 0.0
H440 H 0.04375 0.84701 0.65746 0.0
H441 H 0.13523 0.89441 0.58432 0.0
H442 H 0.11648 0.85683 0.58108 0.0
H443 H 0.13936 0.87075 0.6098 0.0
C444 C 0.10825 0.79438 0.63134 0.0
C445 C 0.12026 0.79634 0.65694 0.0
C446 C 0.09442 0.81386 0.62237 0.0
C447 C 0.09259 0.83568 0.63883 0.0
C448 C 0.1036 0.83704 0.66468 0.0
H449 H 0.07071 0.9941 0.59083 0.0
H450 H 0.08764 0.95709 0.6107 0.0
C451 C 0.11735 0.81759 0.67366 0.0
C452 C 0.08012 0.85771 0.62902 0.0
H453 H 0.09283 0.91126 0.58436 0.0
C454 C 0.05441 0.86106 0.64145 0.0
C455 C 0.09443 0.87628 0.60844 0.0
C456 C 0.12307 0.87466 0.59525 0.0
C457 C 0.04245 0.8824 0.63369 0.0
C458 C 0.05635 0.90054 0.6127 0.0
C459 C 0.08215 0.89725 0.60039 0.0
C460 C 0.04473 0.92321 0.60311 0.0
C461 C 0.0155 0.88571 0.64837 0.0
C462 C 0.01482 0.91649 0.59258 0.0
C463 C 1.00498 0.93763 0.58134 0.0
C464 C 0.02502 0.96584 0.58018 0.0
C465 C 0.05467 0.97262 0.59141 0.0
C466 C 0.06443 0.95148 0.60272 0.0
H467 H 0.01299 0.87552 0.66798 0.0
H468 H 0.01806 0.90844 0.65089 0.0
H469 H 0.99393 0.87543 0.63707 0.0
H470 H 0.99943 0.89474 0.59222 0.0
H471 H 0.98204 0.93163 0.57275 0.0
H472 H 0.73678 0.35563 0.87841 0.0
H473 H 0.78301 0.38097 0.90389 0.0
H474 H 0.74825 0.4504 0.91502 0.0
H475 H 0.70233 0.42541 0.88862 0.0
H476 H 0.80851 0.47058 0.90735 0.0
H477 H 0.78673 0.38569 0.98167 0.0
H478 H 0.79017 0.37264 0.94964 0.0
H479 H 0.75879 0.3856 0.95658 0.0
C480 C 0.73903 0.37634 0.88624 0.0
C481 C 0.71572 0.38837 0.8817 0.0
C482 C 0.76541 0.39076 0.90099 0.0
C483 C 0.76888 0.41732 0.91218 0.0
C484 C 0.74613 0.42986 0.90687 0.0
H485 H 0.90038 0.48109 0.04117 0.0
H486 H 0.85372 0.4638 1.01391 0.0
C487 C 0.71988 0.41558 0.89173 0.0
C488 C 0.79603 0.43174 0.92954 0.0
H489 H 0.83662 0.42095 0.9828 0.0
C490 C 0.81452 0.45977 0.92395 0.0
C491 C 0.8037 0.41805 0.95166 0.0
C492 C 0.7836 0.38897 0.96043 0.0
C493 C 0.84071 0.47409 0.93934 0.0
C494 C 0.84937 0.45976 0.96053 0.0
C495 C 0.83043 0.43198 0.96644 0.0
C496 C 0.87776 0.47289 0.97695 0.0
C497 C 0.85837 0.50465 0.93302 0.0
C498 C 0.90706 0.48419 0.96548 0.0
C499 C 0.93376 0.49454 0.98112 0.0
C500 C 0.93185 0.49324 1.00859 0.0
C501 C 0.9026 0.48232 1.02007 0.0
C502 C 0.8759 0.47236 1.00445 0.0
H503 H 0.84349 0.51502 0.92274 0.0
H504 H 0.86803 0.51697 0.95098 0.0
H505 H 0.87771 0.50555 0.91981 0.0
H506 H 0.90947 0.48422 0.94442 0.0
H507 H 0.956 0.50262 0.97169 0.0
H508 H 0.80727 0.63527 0.36933 0.0
H509 H 0.76085 0.6086 0.3936 0.0
H510 H 0.73947 0.68552 0.40491 0.0
H511 H 0.78503 0.71203 0.38004 0.0
H512 H 0.74706 0.61645 0.44506 0.0
H513 H 0.65766 0.63132 0.37844 0.0
H514 H 0.69713 0.63848 0.36849 0.0
H515 H 0.6866 0.66416 0.38734 0.0
C516 C 0.79236 0.64639 0.37657 0.0
C517 C 0.79988 0.67579 0.37275 0.0
C518 C 0.76596 0.63116 0.39059 0.0
C519 C 0.74647 0.645 0.4008 0.0
C520 C 0.75382 0.67428 0.39681 0.0
H521 H 0.58951 0.60877 0.50218 0.0
H522 H 0.63493 0.62961 0.475 0.0
C523 C 0.78011 0.68947 0.38284 0.0
C524 C 0.71922 0.62926 0.41668 0.0
H525 H 0.64145 0.61529 0.42179 0.0
C526 C 0.7239 0.61588 0.43983 0.0
C527 C 0.68901 0.62854 0.40983 0.0
C528 C 0.68219 0.64115 0.38454 0.0
C529 C 0.69938 0.60272 0.45679 0.0
C530 C 0.66935 0.60269 0.45025 0.0
C531 C 0.66455 0.61554 0.42685 0.0
C532 C 0.64261 0.58989 0.46762 0.0
C533 C 0.70593 0.58978 0.48199 0.0
C534 C 0.63186 0.56061 0.4725 0.0
C535 C 0.60587 0.54857 0.48806 0.0
C536 C 0.59006 0.56561 0.499 0.0
C537 C 0.60114 0.595 0.49423 0.0
C538 C 0.62706 0.60697 0.47861 0.0
H539 H 0.73099 0.59687 0.48678 0.0
H540 H 0.6935 0.5953 0.49855 0.0
H541 H 0.69771 0.56635 0.48005 0.0
H542 H 0.64322 0.54697 0.46387 0.0
H543 H 0.59796 0.52586 0.49118 0.0
H544 H 0.26125 0.30395 0.18337 0.0
H545 H 0.22837 0.32891 0.16497 0.0
H546 H 0.28595 0.35067 0.09663 0.0
H547 H 0.31892 0.32498 0.11486 0.0
H548 H 0.24354 0.3849 0.15193 0.0
H549 H 0.19956 0.3165 0.06482 0.0
H550 H 0.21958 0.30608 0.09152 0.0
H551 H 0.24084 0.33138 0.06769 0.0
C552 C 0.26701 0.31396 0.1644 0.0
C553 C 0.29272 0.31251 0.1505 0.0
C554 C 0.24814 0.32825 0.15391 0.0
C555 C 0.2545 0.34141 0.12932 0.0
C556 C 0.28029 0.34022 0.11543 0.0
H557 H 0.15695 0.4591 0.08389 0.0
H558 H 0.19805 0.43894 0.09173 0.0
C559 C 0.29918 0.32573 0.1259 0.0
C560 C 0.23417 0.3567 0.11883 0.0
H561 H 0.18231 0.35568 0.07005 0.0
C562 C 0.23032 0.37868 0.13391 0.0
C563 C 0.21677 0.34833 0.09544 0.0
C564 C 0.2191 0.32414 0.07897 0.0
C565 C 0.20901 0.39209 0.12664 0.0
C566 C 0.19159 0.38374 0.10325 0.0
C567 C 0.19589 0.36216 0.08785 0.0
C568 C 0.16722 0.39576 0.09554 0.0
C569 C 0.20438 0.41417 0.14469 0.0
C570 C 0.13637 0.378 0.09386 0.0
C571 C 0.11284 0.38937 0.08893 0.0
C572 C 0.11969 0.41877 0.0856 0.0
C573 C 0.1508 0.43636 0.08622 0.0
C574 C 0.17434 0.42492 0.09101 0.0
H575 H 0.21417 0.4133 0.16455 0.0
H576 H 0.21617 0.43557 0.13647 0.0
H577 H 0.17949 0.4114 0.14662 0.0
H578 H 0.13038 0.35538 0.09711 0.0
H579 H 0.08922 0.37513 0.08804 0.0
H580 H 0.58165 0.30158 0.87469 0.0
H581 H 0.55791 0.25549 0.89633 0.0
H582 H 0.64498 0.24031 0.89439 0.0
H583 H 0.66874 0.28621 0.87319 0.0
H584 H 0.55048 0.19988 0.88405 0.0
H585 H 0.62621 0.23127 0.97165 0.0
H586 H 0.62392 0.25648 0.94699 0.0
H587 H 0.64734 0.23437 0.94181 0.0
C588 C 0.59559 0.28822 0.87855 0.0
C589 C 0.62722 0.29783 0.87247 0.0
C590 C 0.58205 0.26191 0.89108 0.0
C591 C 0.5998 0.24461 0.89778 0.0
C592 C 0.63092 0.25351 0.89031 0.0
H593 H 0.56471 0.08235 0.98044 0.0
H594 H 0.58724 0.12614 0.95494 0.0
C595 C 0.64446 0.27976 0.87799 0.0
C596 C 0.58613 0.21755 0.91287 0.0
H597 H 0.59535 0.18272 0.96872 0.0
C598 C 0.56022 0.19624 0.90262 0.0
C599 C 0.59871 0.21255 0.9372 0.0
C600 C 0.62538 0.23496 0.95022 0.0
C601 C 0.54706 0.17008 0.91564 0.0
C602 C 0.55978 0.16506 0.93987 0.0
C603 C 0.58565 0.18635 0.95012 0.0
C604 C 0.5461 0.13823 0.95522 0.0
C605 C 0.51999 0.14777 0.90303 0.0
C606 C 0.51565 0.13051 0.96433 0.0
C607 C 0.50285 0.10562 0.97897 0.0
C608 C 0.52015 0.08777 0.98498 0.0
C609 C 0.55074 0.09558 0.97611 0.0
C610 C 0.56362 0.12062 0.96152 0.0
H611 H 0.51842 0.15161 0.88169 0.0
H612 H 0.5216 0.12626 0.90591 0.0
H613 H 0.49834 0.14824 0.91216 0.0
H614 H 0.50179 0.14391 0.96034 0.0
H615 H 0.4793 0.10039 0.98564 0.0
H616 H 0.89604 0.78716 0.3327 0.0
H617 H 0.92052 0.83342 0.35368 0.0
H618 H 0.9182 0.79185 0.42824 0.0
H619 H 0.8933 0.74587 0.40749 0.0
H620 H 0.89536 0.83455 0.43196 0.0
H621 H 0.0074 0.87232 0.38039 0.0
H622 H 0.97436 0.86303 0.35891 0.0
H623 H 0.98198 0.83606 0.37853 0.0
C624 C 0.90134 0.78794 0.35346 0.0
C625 C 0.89271 0.76294 0.36847 0.0
C626 C 0.91536 0.81437 0.36545 0.0
C627 C 0.92142 0.81618 0.39257 0.0
C628 C 0.91369 0.79108 0.40734 0.0
H629 H 0.03625 0.9565 0.48478 0.0
H630 H 0.01328 0.91345 0.45893 0.0
C631 C 0.8995 0.7648 0.39545 0.0
C632 C 0.93418 0.84408 0.40604 0.0
H633 H 0.9961 0.90519 0.40846 0.0
C634 C 0.9174 0.85001 0.4268 0.0
C635 C 0.96304 0.86417 0.39947 0.0
C636 C 0.98292 0.85855 0.37828 0.0
C637 C 0.92873 0.87523 0.44131 0.0
C638 C 0.95735 0.89557 0.43446 0.0
C639 C 0.97404 0.88975 0.41357 0.0
C640 C 0.97122 0.92224 0.44965 0.0
C641 C 0.91041 0.87932 0.46443 0.0
C642 C 0.95542 0.94179 0.45288 0.0
C643 C 0.96842 0.96632 0.46795 0.0
C644 C 0.99764 0.97193 0.47968 0.0
C645 C 0.01368 0.95271 0.47595 0.0
C646 C 1.0006 0.92813 0.46113 0.0
H647 H 0.89368 0.8589 0.47121 0.0
H648 H 0.92582 0.88932 0.4811 0.0
H649 H 0.89713 0.89338 0.45862 0.0
H650 H 0.93305 0.93811 0.44373 0.0
H651 H 0.95567 0.98092 0.47036 0.0
H652 H 0.21978 0.74496 0.64145 0.0
H653 H 0.24626 0.71838 0.61646 0.0
H654 H 0.25611 0.67356 0.6866 0.0
H655 H 0.22839 0.69893 0.71135 0.0
H656 H 0.30452 0.72161 0.62429 0.0
H657 H 0.23178 0.60954 0.63527 0.0
H658 H 0.21794 0.63843 0.643 0.0
H659 H 0.24061 0.62661 0.66654 0.0
C660 C 0.2267 0.72879 0.65137 0.0
C661 C 0.22205 0.72414 0.67843 0.0
C662 C 0.24202 0.71374 0.63709 0.0
C663 C 0.25287 0.69371 0.64955 0.0
C664 C 0.24734 0.68838 0.67637 0.0
H665 H 0.39669 0.62449 0.63366 0.0
H666 H 0.3536 0.64024 0.6461 0.0
C667 C 0.23188 0.70325 0.6906 0.0
C668 C 0.27297 0.68074 0.63544 0.0
H669 H 0.28564 0.61796 0.62527 0.0
C670 C 0.30002 0.6989 0.62399 0.0
C671 C 0.26713 0.65109 0.63503 0.0
C672 C 0.2376 0.63032 0.64539 0.0
C673 C 0.32214 0.68834 0.61344 0.0
C674 C 0.31701 0.65889 0.61432 0.0
C675 C 0.28949 0.64058 0.62479 0.0
C676 C 0.34117 0.64717 0.6063 0.0
C677 C 0.35156 0.70879 0.60253 0.0
C678 C 0.34799 0.64548 0.57978 0.0
C679 C 0.37259 0.63647 0.57261 0.0
C680 C 0.39082 0.62926 0.5919 0.0
C681 C 0.3833 0.63028 0.61841 0.0
C682 C 0.35861 0.63906 0.62553 0.0
H683 H 0.35314 0.73126 0.60532 0.0
H684 H 0.37188 0.70535 0.61209 0.0
H685 H 0.35271 0.70486 0.58125 0.0
H686 H 0.33468 0.65166 0.56471 0.0
H687 H 0.37795 0.63601 0.55204 0.0
H688 H 0.75015 0.80397 0.81404 0.0
H689 H 0.77597 0.82037 0.77246 0.0
H690 H 0.69433 0.83522 0.74283 0.0
H691 H 0.66818 0.8186 0.78433 0.0
H692 H 0.75895 0.80088 0.72023 0.0
H693 H 0.7633 0.9124 0.7344 0.0
H694 H 0.75489 0.88685 0.76075 0.0
H695 H 0.72562 0.88622 0.73689 0.0
C696 C 0.73751 0.81034 0.79856 0.0
C697 C 0.70714 0.81009 0.80251 0.0
C698 C 0.75236 0.81982 0.77487 0.0
C699 C 0.73719 0.82936 0.75476 0.0
C700 C 0.70661 0.82844 0.75833 0.0
H701 H 0.80028 0.91039 0.60532 0.0
H702 H 0.76891 0.88648 0.64232 0.0
C703 C 0.69173 0.81897 0.78202 0.0
C704 C 0.75368 0.84081 0.73028 0.0
H705 H 0.78147 0.90141 0.69417 0.0
C706 C 0.76388 0.82284 0.71447 0.0
C707 C 0.76005 0.86947 0.7229 0.0
C708 C 0.75066 0.88999 0.73968 0.0
C709 C 0.7801 0.83275 0.69127 0.0
C710 C 0.78671 0.86148 0.68403 0.0
C711 C 0.77627 0.87936 0.69975 0.0
C712 C 0.80504 0.87377 0.66056 0.0
C713 C 0.78963 0.81229 0.67456 0.0
C714 C 0.83574 0.87445 0.6585 0.0
C715 C 0.85368 0.8879 0.63725 0.0
C716 C 0.8413 0.90112 0.61775 0.0
C717 C 0.81039 0.90004 0.61974 0.0
C718 C 0.79248 0.88656 0.64097 0.0
H719 H 0.7756 0.78993 0.67876 0.0
H720 H 0.78739 0.81653 0.6534 0.0
H721 H 0.81415 0.81481 0.67879 0.0
H722 H 0.84608 0.86518 0.67365 0.0
H723 H 0.87733 0.88818 0.63621 0.0
H724 H 0.79243 0.23171 0.32188 0.0
H725 H 0.76674 0.20709 0.28236 0.0
H726 H 0.76799 0.28674 0.24871 0.0
H727 H 0.79394 0.31164 0.2882 0.0
H728 H 0.70647 0.21364 0.26323 0.0
H729 H 0.80179 0.24283 0.19074 0.0
H730 H 0.80896 0.24238 0.22559 0.0
H731 H 0.79749 0.27032 0.21152 0.0
C732 C 0.78788 0.24406 0.30584 0.0
C733 C 0.79525 0.2736 0.30806 0.0
C734 C 0.77305 0.22996 0.28338 0.0
C735 C 0.76569 0.24518 0.26269 0.0
C736 C 0.77378 0.27473 0.26446 0.0
H737 H 0.67128 0.18903 0.11383 0.0
H738 H 0.70025 0.21746 0.15046 0.0
C739 C 0.78842 0.28886 0.28701 0.0
C740 C 0.74753 0.22982 0.24012 0.0
H741 H 0.75238 0.21521 0.17546 0.0
C742 C 0.71643 0.21393 0.244 0.0
C743 C 0.76065 0.23063 0.21515 0.0
C744 C 0.7941 0.24732 0.21031 0.0
C745 C 0.69793 0.19869 0.22343 0.0
C746 C 0.71123 0.1988 0.19854 0.0
C747 C 0.74229 0.21509 0.19459 0.0
C748 C 0.69345 0.18166 0.1765 0.0
C749 C 0.66423 0.18304 0.22848 0.0
C750 C 0.68035 0.15212 0.17894 0.0
C751 C 0.6637 0.1359 0.15816 0.0
C752 C 0.66022 0.14889 0.13441 0.0
C753 C 0.67371 0.17845 0.13188 0.0
C754 C 0.69019 0.19469 0.15277 0.0
H755 H 0.65579 0.19199 0.24554 0.0
H756 H 0.64975 0.1838 0.21111 0.0
H757 H 0.6611 0.1605 0.2329 0.0
H758 H 0.6833 0.14154 0.19684 0.0
H759 H 0.65408 0.11311 0.16048 0.0
H760 H 0.39191 0.63154 0.28539 0.0
H761 H 0.40465 0.60553 0.3223 0.0
H762 H 0.45521 0.68465 0.35967 0.0
H763 H 0.44257 0.71069 0.32287 0.0
H764 H 0.46387 0.60789 0.34198 0.0
H765 H 0.39789 0.64117 0.41836 0.0
H766 H 0.39145 0.64495 0.38379 0.0
H767 H 0.42412 0.66969 0.4001 0.0
C768 C 0.40563 0.64343 0.3015 0.0
C769 C 0.41608 0.6733 0.30116 0.0
C770 C 0.41295 0.6285 0.32264 0.0
C771 C 0.43055 0.643 0.34415 0.0
C772 C 0.44112 0.67282 0.34371 0.0
H773 H 0.49647 0.58654 0.491 0.0
H774 H 0.48377 0.61481 0.4558 0.0
C775 C 0.43401 0.68773 0.32252 0.0
C776 C 0.43858 0.62705 0.36661 0.0
H777 H 0.43014 0.61548 0.43281 0.0
C778 C 0.45635 0.60949 0.3618 0.0
C779 C 0.42919 0.62924 0.39267 0.0
C780 C 0.40939 0.64708 0.39914 0.0
C781 C 0.46521 0.59444 0.38215 0.0
C782 C 0.45533 0.59616 0.40817 0.0
C783 C 0.43778 0.61396 0.41302 0.0
C784 C 0.46222 0.57905 0.43032 0.0
C785 C 0.48583 0.5774 0.37553 0.0
C786 C 0.45376 0.54939 0.42835 0.0
C787 C 0.46104 0.53333 0.44842 0.0
C788 C 0.47653 0.54626 0.47137 0.0
C789 C 0.48422 0.57583 0.47382 0.0
C790 C 0.47708 0.59203 0.45356 0.0
H791 H 0.49931 0.5855 0.35753 0.0
H792 H 0.5022 0.57777 0.3918 0.0
H793 H 0.47138 0.55506 0.37184 0.0
H794 H 0.4415 0.53854 0.41117 0.0
H795 H 0.45456 0.51059 0.44587 0.0
H796 H 0.1829 0.40731 0.8229 0.0
H797 H 0.16528 0.42836 0.86013 0.0
H798 H 0.07162 0.39482 0.83116 0.0
H799 H 0.08912 0.37313 0.79414 0.0
H800 H 0.13796 0.46809 0.8604 0.0
H801 H 0.06067 0.37045 0.90711 0.0
H802 H 0.08751 0.36964 0.8818 0.0
H803 H 0.05118 0.37399 0.87337 0.0
C804 C 0.1585 0.40421 0.82462 0.0
C805 C 0.1374 0.38844 0.80571 0.0
C806 C 0.14845 0.41628 0.84588 0.0
C807 C 0.11704 0.41289 0.84875 0.0
C808 C 0.09586 0.3972 0.82978 0.0
H809 H 0.04419 0.52056 0.94191 0.0
H810 H 0.06315 0.49718 0.90746 0.0
C811 C 0.10592 0.38494 0.80852 0.0
C812 C 0.10691 0.42683 0.87099 0.0
H813 H 0.05824 0.41431 0.92327 0.0
C814 C 0.1206 0.45628 0.87419 0.0
C815 C 0.08462 0.41144 0.8893 0.0
C816 C 0.07034 0.3796 0.88795 0.0
C817 C 0.11228 0.47077 0.8948 0.0
C818 C 0.08909 0.45556 0.91247 0.0
C819 C 0.07581 0.42603 0.90962 0.0
C820 C 0.07793 0.46997 0.93372 0.0
C821 C 0.12883 0.50221 0.89766 0.0
C822 C 0.07924 0.4621 0.96006 0.0
C823 C 0.06814 0.47534 0.97994 0.0
C824 C 0.05537 0.49667 0.97386 0.0
C825 C 0.05413 0.50446 0.94744 0.0
C826 C 0.06511 0.49117 0.92764 0.0
H827 H 0.15167 0.50884 0.88796 0.0
H828 H 0.11479 0.51394 0.88822 0.0
H829 H 0.13231 0.5085 0.91859 0.0
H830 H 0.08888 0.4457 0.96525 0.0
H831 H 0.06934 0.46868 1.00002 0.0
H832 H 0.60815 0.79397 0.89111 0.0
H833 H 0.58268 0.82429 0.9122 0.0
H834 H 0.65682 0.89864 0.88817 0.0
H835 H 0.68246 0.8686 0.86721 0.0
H836 H 0.63764 0.89238 0.94543 0.0
H837 H 0.54238 0.88012 0.87306 0.0
H838 H 0.55043 0.8488 0.88365 0.0
H839 H 0.57812 0.87484 0.86426 0.0
C840 C 0.61898 0.81678 0.89035 0.0
C841 C 0.64721 0.82894 0.87743 0.0
C842 C 0.60433 0.83402 0.90222 0.0
C843 C 0.61779 0.86363 0.90145 0.0
C844 C 0.64601 0.87581 0.88873 0.0
H845 H 0.58775 1.00842 0.97285 0.0
H846 H 0.60718 0.97584 0.94878 0.0
C847 C 0.66053 0.85864 0.8767 0.0
C848 C 0.6032 0.88203 0.91481 0.0
H849 H 0.54386 0.90875 0.90996 0.0
C850 C 0.61712 0.89598 0.93774 0.0
C851 C 0.57631 0.88635 0.90477 0.0
C852 C 0.56084 0.87191 0.88001 0.0
C853 C 0.60484 0.91427 0.951 0.0
C854 C 0.57845 0.91936 0.94055 0.0
C855 C 0.56421 0.90498 0.91781 0.0
C856 C 0.56553 0.9397 0.95296 0.0
C857 C 0.61998 0.92758 0.97631 0.0
C858 C 0.53507 0.93059 0.96205 0.0
C859 C 0.5237 0.94931 0.97552 0.0
C860 C 0.54266 0.97744 0.98014 0.0
C861 C 0.57267 0.98681 0.96992 0.0
C862 C 0.5839 0.96816 0.95629 0.0
H863 H 0.63371 0.91531 0.9854 0.0
H864 H 0.63594 0.94928 0.97229 0.0
H865 H 0.60257 0.92914 0.99063 0.0
H866 H 0.52042 0.90877 0.95945 0.0
H867 H 0.50043 0.94144 0.98306 0.0
H868 H 0.93013 0.25564 0.35704 0.0
H869 H 0.94906 0.21999 0.37749 0.0
H870 H 0.88858 0.21423 0.4429 0.0
H871 H 0.87007 0.25027 0.42283 0.0
H872 H 0.94678 0.21547 0.45819 0.0
H873 H 0.90006 0.1356 0.37993 0.0
H874 H 0.92548 0.16899 0.36821 0.0
H875 H 0.88935 0.1671 0.38276 0.0
C876 C 0.92107 0.24687 0.37588 0.0
C877 C 0.89859 0.25559 0.38829 0.0
C878 C 0.9317 0.22639 0.38742 0.0
C879 C 0.91976 0.21405 0.41144 0.0
C880 C 0.89795 0.22336 0.42426 0.0
H881 H 0.92761 0.05765 0.47938 0.0
H882 H 0.91288 0.09508 0.45778 0.0
C883 C 0.8874 0.24395 0.41278 0.0
C884 C 0.9298 0.1913 0.42315 0.0
H885 H 0.93209 0.12467 0.41209 0.0
C886 C 0.94358 0.19561 0.44814 0.0
C887 C 0.92517 0.16525 0.41013 0.0
C888 C 0.90894 0.15875 0.38389 0.0
C889 C 0.95313 0.17465 0.46038 0.0
C890 C 0.94934 0.14894 0.44702 0.0
C891 C 0.93529 0.14453 0.42214 0.0
C892 C 0.95884 0.12596 0.45891 0.0
C893 C 0.96649 0.17998 0.48776 0.0
C894 C 0.98973 0.13068 0.46607 0.0
C895 C 0.99823 0.10936 0.47851 0.0
C896 C 0.97601 0.08283 0.48377 0.0
C897 C 0.9453 0.07783 0.47564 0.0
C898 C 0.93682 0.09921 0.46331 0.0
H899 H 0.96045 0.19718 0.49765 0.0
H900 H 0.95819 0.1605 0.49992 0.0
H901 H 0.99202 0.18651 0.48678 0.0
H902 H 0.00723 0.15095 0.46227 0.0
H903 H 0.02213 0.11386 0.48432 0.0
H904 H 0.28533 0.64975 0.2188 0.0
H905 H 0.23888 0.6242 0.1933 0.0
H906 H 0.28651 0.65775 0.1219 0.0
H907 H 0.33305 0.68262 0.14707 0.0
H908 H 0.20471 0.64693 0.16019 0.0
H909 H 0.24905 0.57397 0.10447 0.0
H910 H 0.26879 0.59308 0.13294 0.0
H911 H 0.27283 0.61043 0.10159 0.0
C912 C 0.28609 0.65128 0.19764 0.0
C913 C 0.31304 0.66833 0.18506 0.0
C914 C 0.25942 0.63679 0.18307 0.0
C915 C 0.25918 0.63869 0.15558 0.0
C916 C 0.28615 0.65543 0.143 0.0
H917 H 0.12663 0.58867 0.02764 0.0
H918 H 0.17234 0.6061 0.05611 0.0
C919 C 0.31272 0.66996 0.15751 0.0
C920 C 0.23043 0.62444 0.14006 0.0
H921 H 0.20164 0.57866 0.08913 0.0
C922 C 0.20393 0.63176 0.14486 0.0
C923 C 0.22934 0.60467 0.11994 0.0
C924 C 0.25642 0.59483 0.11455 0.0
C925 C 0.17687 0.62068 0.12959 0.0
C926 C 0.17592 0.60124 0.10919 0.0
C927 C 0.20227 0.59358 0.10467 0.0
C928 C 0.14818 0.58931 0.09187 0.0
C929 C 0.14991 0.63076 0.13483 0.0
C930 C 0.11938 0.57342 0.10227 0.0
C931 C 0.09318 0.56349 0.08601 0.0
C932 C 0.09523 0.56904 0.05893 0.0
C933 C 0.12424 0.58413 0.04842 0.0
C934 C 0.15042 0.59408 0.06469 0.0
H935 H 0.15694 0.65073 0.14636 0.0
H936 H 0.13898 0.63435 0.11623 0.0
H937 H 0.13233 0.61435 0.14623 0.0
H938 H 0.11708 0.56887 0.12305 0.0
H939 H 0.0712 0.55193 0.09473 0.0
H940 H 0.22152 0.34043 0.68286 0.0
H941 H 0.26554 0.36903 0.65721 0.0
H942 H 0.2402 0.44339 0.67132 0.0
H943 H 0.19561 0.41479 0.69667 0.0
H944 H 0.26059 0.40211 0.61103 0.0
H945 H 0.33443 0.46741 0.69025 0.0
H946 H 0.3041 0.43436 0.69684 0.0
H947 H 0.2946 0.46555 0.68906 0.0
C948 C 0.22525 0.36287 0.68053 0.0
C949 C 0.20489 0.37527 0.69171 0.0
C950 C 0.2505 0.37919 0.66595 0.0
C951 C 0.25618 0.40831 0.66245 0.0
C952 C 0.23643 0.421 0.67407 0.0
H953 H 0.41028 0.53015 0.57917 0.0
H954 H 0.36203 0.50904 0.60299 0.0
C955 C 0.21102 0.40463 0.68861 0.0
C956 C 0.28203 0.42494 0.64564 0.0
H957 H 0.35323 0.47583 0.6472 0.0
C958 C 0.2808 0.41833 0.61888 0.0
C959 C 0.30816 0.44628 0.65592 0.0
C960 C 0.31071 0.45385 0.68461 0.0
C961 C 0.30524 0.43222 0.60215 0.0
C962 C 0.33196 0.4528 0.61259 0.0
C963 C 0.33277 0.46003 0.63922 0.0
C964 C 0.36004 0.46568 0.59665 0.0
C965 C 0.30213 0.42475 0.57342 0.0
C966 C 0.37495 0.44835 0.58513 0.0
C967 C 0.40238 0.46028 0.57142 0.0
C968 C 0.41579 0.4899 0.56915 0.0
C969 C 0.4006 0.50726 0.58042 0.0
C970 C 0.37304 0.49525 0.59412 0.0
H971 H 0.27751 0.41621 0.56721 0.0
H972 H 0.31401 0.44347 0.5611 0.0
H973 H 0.31269 0.40812 0.56974 0.0
H974 H 0.36578 0.42553 0.58732 0.0
H975 H 0.41346 0.44622 0.5632 0.0
H976 H 0.71545 0.68476 0.85255 0.0
H977 H 0.75151 0.66456 0.87389 0.0
H978 H 0.75565 0.71692 0.94169 0.0
H979 H 0.71937 0.73697 0.92057 0.0
H980 H 0.81131 0.69636 0.88949 0.0
H981 H 0.74321 0.63805 0.97358 0.0
H982 H 0.72562 0.64909 0.94558 0.0
H983 H 0.74465 0.6743 0.97045 0.0
C984 C 0.7237 0.69161 0.87217 0.0
C985 C 0.71464 0.71238 0.88489 0.0
C986 C 0.74428 0.68011 0.88431 0.0
C987 C 0.75601 0.68905 0.90945 0.0
C988 C 0.74644 0.70935 0.92247 0.0
H989 H 0.92655 0.67718 0.97499 0.0
H990 H 0.88416 0.6932 0.96021 0.0
C991 C 0.72584 0.72089 0.91032 0.0
C992 C 0.78006 0.67876 0.92107 0.0
H993 H 0.79652 0.64286 0.97316 0.0
C994 C 0.80806 0.6846 0.90775 0.0
C995 C 0.77563 0.66329 0.94481 0.0
C996 C 0.74557 0.65554 0.95939 0.0
C997 C 0.83191 0.67563 0.91764 0.0
C998 C 0.82779 0.66075 0.94167 0.0
C999 C 0.79966 0.65454 0.95487 0.0
C1000 C 0.85236 0.65098 0.95296 0.0
C1001 C 0.86118 0.68178 0.90207 0.0
C1002 C 0.84811 0.62191 0.95458 0.0
C1003 C 0.8723 0.61268 0.96293 0.0
C1004 C 0.90114 0.6324 0.9699 0.0
C1005 C 0.90482 0.66149 0.9693 0.0
C1006 C 0.88063 0.67067 0.96093 0.0
H1007 H 0.85804 0.68774 0.88151 0.0
H1008 H 0.87958 0.6997 0.91128 0.0
H1009 H 0.86917 0.6631 0.90194 0.0
H1010 H 0.82641 0.6064 0.94851 0.0
H1011 H 0.86878 0.59015 0.96293 0.0
H1012 H 0.35829 0.77089 0.19392 0.0
H1013 H 0.38294 0.81649 0.17239 0.0
H1014 H 0.47057 0.80241 0.17631 0.0
H1015 H 0.4458 0.75632 0.19763 0.0
H1016 H 0.43176 0.86542 0.18652 0.0
H1017 H 0.46037 0.81571 0.09772 0.0
H1018 H 0.434 0.79552 0.12218 0.0
H1019 H 0.47493 0.80647 0.12801 0.0
C1020 C 0.38288 0.77754 0.19038 0.0
C1021 C 0.39998 0.75972 0.19733 0.0
C1022 C 0.39698 0.80372 0.17808 0.0
C1023 C 0.42855 0.81281 0.17215 0.0
C1024 C 0.44605 0.79571 0.18015 0.0
H1025 H 0.54624 0.95596 0.08164 0.0
H1026 H 0.52446 0.91312 0.10797 0.0
C1027 C 0.43194 0.76948 0.19264 0.0
C1028 C 0.44264 0.83972 0.157 0.0
H1029 H 0.47736 0.86569 0.09889 0.0
C1030 C 0.44176 0.86547 0.16736 0.0
C1031 C 0.45562 0.83994 0.13191 0.0
C1032 C 0.45614 0.81295 0.1191 0.0
C1033 C 0.45391 0.89132 0.15364 0.0
C1034 C 0.46668 0.89152 0.12843 0.0
C1035 C 0.46761 0.86574 0.11813 0.0
C1036 C 0.47976 0.91817 0.11258 0.0
C1037 C 0.45361 0.91828 0.16665 0.0
C1038 C 0.46197 0.93547 0.10593 0.0
C1039 C 0.47455 0.96025 0.0909 0.0
C1040 C 0.5051 0.96813 0.08193 0.0
C1041 C 0.52268 0.95062 0.08829 0.0
C1042 C 0.51019 0.926 0.10335 0.0
H1043 H 0.45155 0.91582 0.18826 0.0
H1044 H 0.47487 0.93621 0.16218 0.0
H1045 H 0.43344 0.92373 0.15931 0.0
H1046 H 0.43821 0.9297 0.11212 0.0
H1047 H 0.46034 0.97318 0.08626 0.0
H1048 H 0.09732 0.26378 0.72957 0.0
H1049 H 0.07013 0.21837 0.70857 0.0
H1050 H 0.09809 0.25603 0.63279 0.0
H1051 H 0.1227 0.30178 0.6533 0.0
H1052 H 0.04308 0.22294 0.62874 0.0
H1053 H 0.10776 0.16332 0.68192 0.0
H1054 H 0.08671 0.17817 0.70358 0.0
H1055 H 0.11781 0.20125 0.68451 0.0
C1056 C 0.09725 0.26256 0.70841 0.0
C1057 C 0.11283 0.28657 0.69327 0.0
C1058 C 0.08214 0.23635 0.69641 0.0
C1059 C 0.08284 0.23336 0.66906 0.0
C1060 C 0.09747 0.2575 0.65393 0.0
H1061 H 0.04883 0.0751 0.58362 0.0
H1062 H 0.07108 0.11941 0.60812 0.0
C1063 C 0.11195 0.28373 0.6658 0.0
C1064 C 0.0682 0.20541 0.65588 0.0
H1065 H 0.06593 0.1363 0.65508 0.0
C1066 C 0.0482 0.20404 0.63451 0.0
C1067 C 0.07517 0.18071 0.66298 0.0
C1068 C 0.09828 0.18094 0.68431 0.0
C1069 C 0.03525 0.17901 0.62001 0.0
C1070 C 0.04114 0.15399 0.62781 0.0
C1071 C 0.06106 0.15529 0.64922 0.0
C1072 C 0.02746 0.12653 0.61365 0.0
C1073 C 0.0164 0.18011 0.59585 0.0
C1074 C 0.99548 0.11524 0.60906 0.0
C1075 C 0.98294 0.09044 0.59439 0.0
C1076 C 1.00197 0.07587 0.58466 0.0
C1077 C 0.03371 0.0862 0.59045 0.0
C1078 C 0.04638 0.11143 0.60462 0.0
H1079 H 0.02263 0.20201 0.58792 0.0
H1080 H 0.01966 0.16607 0.58017 0.0
H1081 H 0.99159 0.17317 0.601 0.0
H1082 H 0.98015 0.12573 0.61664 0.0
H1083 H 0.9583 0.08272 0.5906 0.0
H1084 H 0.78805 0.36134 0.3481 0.0
H1085 H 0.75411 0.38529 0.36625 0.0
H1086 H 0.7447 0.33553 0.43686 0.0
H1087 H 0.77884 0.31173 0.4189 0.0
H1088 H 0.69439 0.35904 0.37868 0.0
H1089 H 0.75859 0.41407 0.46616 0.0
H1090 H 0.77665 0.40032 0.44067 0.0
H1091 H 0.75438 0.37708 0.46555 0.0
C1092 C 0.77911 0.35586 0.36767 0.0
C1093 C 0.78606 0.33467 0.3821 0.0
C1094 C 0.75979 0.36956 0.37801 0.0
C1095 C 0.74708 0.36238 0.40299 0.0
C1096 C 0.75479 0.34189 0.41779 0.0
H1097 H 0.57545 0.37193 0.46071 0.0
H1098 H 0.61724 0.35852 0.44164 0.0
C1099 C 0.77428 0.32827 0.40751 0.0
C1100 C 0.72357 0.37435 0.41248 0.0
H1101 H 0.70471 0.40852 0.464 0.0
C1102 C 0.6968 0.37013 0.39721 0.0
C1103 C 0.72688 0.38908 0.43651 0.0
C1104 C 0.75582 0.39568 0.45305 0.0
C1105 C 0.67283 0.37946 0.40568 0.0
C1106 C 0.67544 0.39287 0.43033 0.0
C1107 C 0.70262 0.39794 0.44523 0.0
C1108 C 0.64994 0.4012 0.44128 0.0
C1109 C 0.64498 0.37494 0.38811 0.0
C1110 C 0.65464 0.42955 0.44783 0.0
C1111 C 0.6309 0.43724 0.45902 0.0
C1112 C 0.60206 0.41665 0.46402 0.0
C1113 C 0.59742 0.38827 0.45728 0.0
C1114 C 0.62118 0.38062 0.44612 0.0
H1115 H 0.65039 0.37223 0.36733 0.0
H1116 H 0.62643 0.3554 0.39427 0.0
H1117 H 0.63604 0.393 0.38939 0.0
H1118 H 0.67675 0.44572 0.44442 0.0
H1119 H 0.63541 0.4592 0.46438 0.0
loop_
_geom_bond_atom_site_label_1
_geom_bond_atom_site_label_2
_geom_bond_distance
_geom_bond_site_symmetry_2
_ccdc_geom_bond_type
H0 C5 0.930 . S
H1 C8 0.930 . S
H2 C10 0.930 . S
H3 C4 1.016 . S
C4 H3 1.016 . S
C4 N11 1.286 . S
C5 H0 0.930 . S
C5 C6 1.397 . S
C5 C7 1.361 . S
C6 C5 1.397 . S
C6 C10 1.390 . S
C7 C5 1.361 . S
C7 C8 1.393 . S
C7 N11 1.413 . S
C8 H1 0.930 . S
C8 C7 1.393 . S
C8 C9 1.399 . S
C9 C8 1.399 . S
C9 C10 1.381 . S
C10 H2 0.930 . S
C10 C6 1.390 . S
C10 C9 1.381 . S
N11 C4 1.286 . S
N11 C7 1.413 . S
H12 C17 0.930 . S
H13 C20 0.930 . S
H14 C22 0.930 . S
H15 C16 1.016 . S
C16 H15 1.016 . S
C16 N23 1.286 . S
C17 H12 0.930 . S
C17 C18 1.397 . S
C17 C19 1.361 . S
C18 C17 1.397 . S
C18 C22 1.390 . S
C19 C17 1.361 . S
C19 C20 1.393 . S
C19 N23 1.413 . S
C20 H13 0.930 . S
C20 C19 1.393 . S
C20 C21 1.399 . S
C21 C20 1.399 . S
C21 C22 1.381 . S
C22 H14 0.930 . S
C22 C18 1.390 . S
C22 C21 1.381 . S
N23 C16 1.286 . S
N23 C19 1.413 . S
H24 C29 0.930 . S
H25 C32 0.930 . S
H26 C34 0.930 . S
H27 C28 1.016 . S
C28 H27 1.016 . S
C28 N35 1.286 . S
C29 H24 0.930 . S
C29 C30 1.397 . S
C29 C31 1.361 . S
C30 C29 1.397 . S
C30 C34 1.390 . S
C31 C29 1.361 . S
C31 C32 1.393 . S
C31 N35 1.413 . S
C32 H25 0.930 . S
C32 C31 1.393 . S
C32 C33 1.399 . S
C33 C32 1.399 . S
C33 C34 1.381 . S
C34 H26 0.930 . S
C34 C30 1.390 . S
C34 C33 1.381 . S
N35 C28 1.286 . S
N35 C31 1.413 . S
H36 C41 0.930 . S
H37 C44 0.930 . S
H38 C46 0.930 . S
H39 C40 1.016 . S
C40 H39 1.016 . S
C40 N47 1.286 . S
C41 H36 0.930 . S
C41 C42 1.397 . S
C41 C43 1.361 . S
C42 C41 1.397 . S
C42 C46 1.390 . S
C43 C41 1.361 . S
C43 C44 1.393 . S
C43 N47 1.413 . S
C44 H37 0.930 . S
C44 C43 1.393 . S
C44 C45 1.399 . S
C45 C44 1.399 . S
C45 C46 1.381 . S
C46 H38 0.930 . S
C46 C42 1.390 . S
C46 C45 1.381 . S
N47 C40 1.286 . S
N47 C43 1.413 . S
H48 C53 0.930 . S
H49 C56 0.930 . S
H50 C58 0.930 . S
H51 C52 1.016 . S
C52 H51 1.016 . S
C52 N59 1.286 . S
C53 H48 0.930 . S
C53 C54 1.397 . S
C53 C55 1.361 . S
C54 C53 1.397 . S
C54 C58 1.390 . S
C55 C53 1.361 . S
C55 C56 1.393 . S
C55 N59 1.413 . S
C56 H49 0.930 . S
C56 C55 1.393 . S
C56 C57 1.399 . S
C57 C56 1.399 . S
C57 C58 1.381 . S
C58 H50 0.930 . S
C58 C54 1.390 . S
C58 C57 1.381 . S
N59 C52 1.286 . S
N59 C55 1.413 . S
H60 C65 0.930 . S
H61 C68 0.930 . S
H62 C70 0.930 . S
H63 C64 1.016 . S
C64 H63 1.016 . S
C64 N71 1.286 . S
C65 H60 0.930 . S
C65 C66 1.397 . S
C65 C67 1.361 . S
C66 C65 1.397 . S
C66 C70 1.390 . S
C67 C65 1.361 . S
C67 C68 1.393 . S
C67 N71 1.413 . S
C68 H61 0.930 . S
C68 C67 1.393 . S
C68 C69 1.399 . S
C69 C68 1.399 . S
C69 C70 1.381 . S
C70 H62 0.930 . S
C70 C66 1.390 . S
C70 C69 1.381 . S
N71 C64 1.286 . S
N71 C67 1.413 . S
H72 C77 0.930 . S
H73 C80 0.930 . S
H74 C82 0.930 . S
H75 C76 1.016 . S
C76 H75 1.016 . S
C76 N83 1.286 . S
C77 H72 0.930 . S
C77 C78 1.397 . S
C77 C79 1.361 . S
C78 C77 1.397 . S
C78 C82 1.390 . S
C79 C77 1.361 . S
C79 C80 1.393 . S
C79 N83 1.413 . S
C80 H73 0.930 . S
C80 C79 1.393 . S
C80 C81 1.399 . S
C81 C80 1.399 . S
C81 C82 1.381 . S
C82 H74 0.930 . S
C82 C78 1.390 . S
C82 C81 1.381 . S
N83 C76 1.286 . S
N83 C79 1.413 . S
H84 C89 0.930 . S
H85 C92 0.930 . S
H86 C94 0.930 . S
H87 C88 1.016 . S
C88 H87 1.016 . S
C88 N95 1.286 . S
C89 H84 0.930 . S
C89 C90 1.397 . S
C89 C91 1.361 . S
C90 C89 1.397 . S
C90 C94 1.390 . S
C91 C89 1.361 . S
C91 C92 1.393 . S
C91 N95 1.413 . S
C92 H85 0.930 . S
C92 C91 1.393 . S
C92 C93 1.399 . S
C93 C92 1.399 . S
C93 C94 1.381 . S
C94 H86 0.930 . S
C94 C90 1.390 . S
C94 C93 1.381 . S
N95 C88 1.286 . S
N95 C91 1.413 . S
Tb96 C98 2.809 . S
Tb96 O116 2.484 . S
Tb96 O117 2.440 . S
Tb96 O118 2.658 1_665 S
Tb96 O119 2.409 1_565 S
Tb96 O120 2.378 1_655 S
Tb96 O124 2.325 . S
Tb96 O127 2.341 1_565 S
Tb97 C107 2.809 . S
Tb97 O118 2.325 . S
Tb97 O121 2.341 1_545 S
Tb97 O122 2.484 . S
Tb97 O123 2.440 . S
Tb97 O124 2.658 1_445 S
Tb97 O125 2.409 1_545 S
Tb97 O126 2.378 1_455 S
C98 Tb96 2.809 . S
C98 C99 1.514 . S
C98 O116 1.248 . S
C98 O117 1.266 . S
C99 C98 1.514 . S
C99 C100 1.359 . S
C99 C104 1.348 . S
C100 C99 1.359 . S
C100 C101 1.380 . S
C100 H128 0.929 . S
C101 C100 1.380 . S
C101 C102 1.347 . S
C101 H129 0.931 . S
C102 C101 1.347 . S
C102 C103 1.369 . S
C103 C102 1.369 . S
C103 C104 1.408 . S
C103 H130 0.930 . S
C104 C99 1.348 . S
C104 C103 1.408 . S
C104 H131 0.930 . S
C105 O118 1.281 . S
C105 O119 1.254 1_455 S
C106 O120 1.236 . S
C106 O121 1.266 . S
C107 Tb97 2.809 . S
C107 C108 1.514 . S
C107 O122 1.248 . S
C107 O123 1.266 . S
C108 C107 1.514 . S
C108 C109 1.359 . S
C108 C113 1.348 . S
C109 C108 1.359 . S
C109 C110 1.380 . S
C109 H132 0.929 . S
C110 C109 1.380 . S
C110 C111 1.347 . S
C110 H133 0.931 . S
C111 C110 1.347 . S
C111 C112 1.369 . S
C112 C111 1.369 . S
C112 C113 1.408 . S
C112 H134 0.930 . S
C113 C108 1.348 . S
C113 C112 1.408 . S
C113 H135 0.930 . S
C114 O124 1.281 . S
C114 O125 1.254 1_655 S
C115 O126 1.236 . S
C115 O127 1.266 . S
O116 Tb96 2.484 . S
O116 C98 1.248 . S
O117 Tb96 2.440 . S
O117 C98 1.266 . S
O118 Tb96 2.658 1_445 S
O118 Tb97 2.325 . S
O118 C105 1.281 . S
O119 Tb96 2.409 1_545 S
O119 C105 1.254 1_655 S
O120 Tb96 2.378 1_455 S
O120 C106 1.236 . S
O121 Tb97 2.341 1_565 S
O121 C106 1.266 . S
O122 Tb97 2.484 . S
O122 C107 1.248 . S
O123 Tb97 2.440 . S
O123 C107 1.266 . S
O124 Tb96 2.325 . S
O124 Tb97 2.658 1_665 S
O124 C114 1.281 . S
O125 Tb97 2.409 1_565 S
O125 C114 1.254 1_455 S
O126 Tb97 2.378 1_655 S
O126 C115 1.236 . S
O127 Tb96 2.341 1_545 S
O127 C115 1.266 . S
H128 C100 0.929 . S
H129 C101 0.931 . S
H130 C103 0.930 . S
H131 C104 0.930 . S
H132 C109 0.929 . S
H133 C110 0.931 . S
H134 C112 0.930 . S
H135 C113 0.930 . S
Tb136 C138 2.809 . S
Tb136 O156 2.484 . S
Tb136 O157 2.440 . S
Tb136 O158 2.658 1_545 S
Tb136 O159 2.409 1_545 S
Tb136 O160 2.378 . S
Tb136 O164 2.325 1_554 S
Tb136 O167 2.341 1_544 S
Tb137 C147 2.809 1_545 S
Tb137 O158 2.325 1_546 S
Tb137 O161 2.341 1_556 S
Tb137 O162 2.484 1_545 S
Tb137 O163 2.440 1_545 S
Tb137 O164 2.658 . S
Tb137 O165 2.409 . S
Tb137 O166 2.378 1_545 S
C138 Tb136 2.809 . S
C138 C139 1.514 . S
C138 O156 1.248 . S
C138 O157 1.266 . S
C139 C138 1.514 . S
C139 C140 1.359 . S
C139 C144 1.348 . S
C140 C139 1.359 . S
C140 C141 1.380 . S
C140 H168 0.929 . S
C141 C140 1.380 . S
C141 C142 1.347 . S
C141 H169 0.931 . S
C142 C141 1.347 . S
C142 C143 1.369 . S
C143 C142 1.369 . S
C143 C144 1.408 . S
C143 H170 0.930 . S
C144 C139 1.348 . S
C144 C143 1.408 . S
C144 H171 0.930 . S
C145 O158 1.281 . S
C145 O159 1.254 . S
C146 O160 1.236 . S
C146 O161 1.266 . S
C147 Tb137 2.809 1_565 S
C147 C148 1.514 . S
C147 O162 1.248 . S
C147 O163 1.266 . S
C148 C147 1.514 . S
C148 C149 1.359 . S
C148 C153 1.348 . S
C149 C148 1.359 . S
C149 C150 1.380 . S
C149 H172 0.929 . S
C150 C149 1.380 . S
C150 C151 1.347 . S
C150 H173 0.931 . S
C151 C150 1.347 . S
C151 C152 1.369 . S
C152 C151 1.369 . S
C152 C153 1.408 . S
C152 H174 0.930 . S
C153 C148 1.348 . S
C153 C152 1.408 . S
C153 H175 0.930 . S
C154 O164 1.281 . S
C154 O165 1.254 . S
C155 O166 1.236 . S
C155 O167 1.266 . S
O156 Tb136 2.484 . S
O156 C138 1.248 . S
O157 Tb136 2.440 . S
O157 C138 1.266 . S
O158 Tb136 2.658 1_565 S
O158 Tb137 2.325 1_564 S
O158 C145 1.281 . S
O159 Tb136 2.409 1_565 S
O159 C145 1.254 . S
O160 Tb136 2.378 . S
O160 C146 1.236 . S
O161 Tb137 2.341 1_554 S
O161 C146 1.266 . S
O162 Tb137 2.484 1_565 S
O162 C147 1.248 . S
O163 Tb137 2.440 1_565 S
O163 C147 1.266 . S
O164 Tb136 2.325 1_556 S
O164 Tb137 2.658 . S
O164 C154 1.281 . S
O165 Tb137 2.409 . S
O165 C154 1.254 . S
O166 Tb137 2.378 1_565 S
O166 C155 1.236 . S
O167 Tb136 2.341 1_566 S
O167 C155 1.266 . S
H168 C140 0.929 . S
H169 C141 0.931 . S
H170 C143 0.930 . S
H171 C144 0.930 . S
H172 C149 0.929 . S
H173 C150 0.931 . S
H174 C152 0.930 . S
H175 C153 0.930 . S
Tb176 C178 2.809 . S
Tb176 O196 2.484 . S
Tb176 O197 2.440 . S
Tb176 O198 2.658 . S
Tb176 O199 2.409 . S
Tb176 O200 2.378 . S
Tb176 O204 2.325 . S
Tb176 O207 2.341 . S
Tb177 C187 2.809 . S
Tb177 O198 2.325 . S
Tb177 O201 2.341 . S
Tb177 O202 2.484 . S
Tb177 O203 2.440 . S
Tb177 O204 2.658 . S
Tb177 O205 2.409 . S
Tb177 O206 2.378 . S
C178 Tb176 2.809 . S
C178 C179 1.514 . S
C178 O196 1.248 . S
C178 O197 1.266 . S
C179 C178 1.514 . S
C179 C180 1.359 . S
C179 C184 1.348 . S
C180 C179 1.359 . S
C180 C181 1.380 . S
C180 H208 0.929 . S
C181 C180 1.380 . S
C181 C182 1.347 . S
C181 H209 0.931 . S
C182 C181 1.347 . S
C182 C183 1.369 . S
C183 C182 1.369 . S
C183 C184 1.408 . S
C183 H210 0.930 . S
C184 C179 1.348 . S
C184 C183 1.408 . S
C184 H211 0.930 . S
C185 O198 1.281 . S
C185 O199 1.254 . S
C186 O200 1.236 . S
C186 O201 1.266 . S
C187 Tb177 2.809 . S
C187 C188 1.514 . S
C187 O202 1.248 . S
C187 O203 1.266 . S
C188 C187 1.514 . S
C188 C189 1.359 . S
C188 C193 1.348 . S
C189 C188 1.359 . S
C189 C190 1.380 . S
C189 H212 0.929 . S
C190 C189 1.380 . S
C190 C191 1.347 . S
C190 H213 0.931 . S
C191 C190 1.347 . S
C191 C192 1.369 . S
C192 C191 1.369 . S
C192 C193 1.408 . S
C192 H214 0.930 . S
C193 C188 1.348 . S
C193 C192 1.408 . S
C193 H215 0.930 . S
C194 O204 1.281 . S
C194 O205 1.254 . S
C195 O206 1.236 . S
C195 O207 1.266 . S
O196 Tb176 2.484 . S
O196 C178 1.248 . S
O197 Tb176 2.440 . S
O197 C178 1.266 . S
O198 Tb176 2.658 . S
O198 Tb177 2.325 . S
O198 C185 1.281 . S
O199 Tb176 2.409 . S
O199 C185 1.254 . S
O200 Tb176 2.378 . S
O200 C186 1.236 . S
O201 Tb177 2.341 . S
O201 C186 1.266 . S
O202 Tb177 2.484 . S
O202 C187 1.248 . S
O203 Tb177 2.440 . S
O203 C187 1.266 . S
O204 Tb176 2.325 . S
O204 Tb177 2.658 . S
O204 C194 1.281 . S
O205 Tb177 2.409 . S
O205 C194 1.254 . S
O206 Tb177 2.378 . S
O206 C195 1.236 . S
O207 Tb176 2.341 . S
O207 C195 1.266 . S
H208 C180 0.929 . S
H209 C181 0.931 . S
H210 C183 0.930 . S
H211 C184 0.930 . S
H212 C189 0.929 . S
H213 C190 0.931 . S
H214 C192 0.930 . S
H215 C193 0.930 . S
Tb216 C218 2.809 1_455 S
Tb216 O236 2.484 1_455 S
Tb216 O237 2.440 . S
Tb216 O238 2.658 1_556 S
Tb216 O239 2.409 1_556 S
Tb216 O240 2.378 1_456 S
Tb216 O244 2.325 1_455 S
Tb216 O247 2.341 . S
Tb217 C227 2.809 . S
Tb217 O238 2.325 . S
Tb217 O241 2.341 1_455 S
Tb217 O242 2.484 . S
Tb217 O243 2.440 . S
Tb217 O244 2.658 1_454 S
Tb217 O245 2.393 1_454 S
Tb217 O246 2.378 1_554 S
C218 Tb216 2.809 1_655 S
C218 C219 1.514 . S
C218 O236 1.248 . S
C218 O237 1.266 1_655 S
C219 C218 1.514 . S
C219 C220 1.359 . S
C219 C224 1.348 . S
C220 C219 1.359 . S
C220 C221 1.380 . S
C220 H248 0.929 . S
C221 C220 1.380 . S
C221 C222 1.347 . S
C221 H249 0.931 . S
C222 C221 1.347 . S
C222 C223 1.369 . S
C223 C222 1.369 . S
C223 C224 1.408 . S
C223 H250 0.930 . S
C224 C219 1.348 . S
C224 C223 1.408 . S
C224 H251 0.930 1_655 S
C225 O238 1.281 . S
C225 O239 1.254 . S
C226 O240 1.236 . S
C226 O241 1.266 . S
C227 Tb217 2.809 . S
C227 C228 1.514 . S
C227 O242 1.248 . S
C227 O243 1.266 . S
C228 C227 1.514 . S
C228 C229 1.359 . S
C228 C233 1.348 . S
C229 C228 1.359 . S
C229 C230 1.380 . S
C229 H252 0.929 . S
C230 C229 1.380 . S
C230 C231 1.347 . S
C230 H253 0.931 . S
C231 C230 1.347 . S
C231 C232 1.369 . S
C232 C231 1.369 . S
C232 C233 1.408 . S
C232 H254 0.930 . S
C233 C228 1.348 . S
C233 C232 1.408 . S
C233 H255 0.930 . S
C234 O244 1.281 . S
C234 O245 1.270 . S
C235 O246 1.236 . S
C235 O247 1.266 . S
O236 Tb216 2.484 1_655 S
O236 C218 1.248 . S
O237 Tb216 2.440 . S
O237 C218 1.266 1_455 S
O238 Tb216 2.658 1_554 S
O238 Tb217 2.325 . S
O238 C225 1.281 . S
O239 Tb216 2.409 1_554 S
O239 C225 1.254 . S
O240 Tb216 2.378 1_654 S
O240 C226 1.236 . S
O241 Tb217 2.341 1_655 S
O241 C226 1.266 . S
O242 Tb217 2.484 . S
O242 C227 1.248 . S
O243 Tb217 2.440 . S
O243 C227 1.266 . S
O244 Tb216 2.325 1_655 S
O244 Tb217 2.658 1_656 S
O244 C234 1.281 . S
O245 Tb217 2.393 1_656 S
O245 C234 1.270 . S
O246 Tb217 2.378 1_556 S
O246 C235 1.236 . S
O247 Tb216 2.341 . S
O247 C235 1.266 . S
H248 C220 0.929 . S
H249 C221 0.931 . S
H250 C223 0.930 . S
H251 C224 0.930 1_455 S
H252 C229 0.929 . S
H253 C230 0.931 . S
H254 C232 0.930 . S
H255 C233 0.930 . S
H256 C264 0.929 . S
H257 C266 0.930 . S
H258 C268 0.930 . S
H259 C271 0.929 . S
H260 C274 0.930 . S
H261 C276 0.960 . S
H262 C276 0.960 . S
H263 C276 0.960 . S
C264 H256 0.929 . S
C264 C265 1.377 . S
C264 C266 1.384 . S
C265 C264 1.377 . S
C265 C271 1.390 . S
C266 H257 0.930 . S
C266 C264 1.384 . S
C266 C267 1.372 . S
C267 C266 1.372 . S
C267 C268 1.400 . S
C267 C272 1.490 . S
C268 H258 0.930 . S
C268 C267 1.400 . S
C268 C271 1.386 . S
H269 C285 0.930 . S
H270 C286 0.931 . S
C271 H259 0.929 . S
C271 C265 1.390 . S
C271 C268 1.386 . S
C272 C267 1.490 . S
C272 C274 1.395 . S
C272 C275 1.403 . S
H273 C279 0.930 . S
C274 H260 0.930 . S
C274 C272 1.395 . S
C274 C277 1.403 . S
C275 C272 1.403 . S
C275 C276 1.524 . S
C275 C279 1.400 . S
C276 H261 0.960 . S
C276 H262 0.960 . S
C276 H263 0.960 . S
C276 C275 1.524 . S
C277 C274 1.403 . S
C277 C278 1.392 . S
C277 C281 1.495 . S
C278 C277 1.392 . S
C278 C279 1.385 . S
C278 C280 1.478 . S
C279 H273 0.930 . S
C279 C275 1.400 . S
C279 C278 1.385 . S
C280 C278 1.478 . S
C280 C282 1.381 . S
C280 C286 1.383 . S
C281 C277 1.495 . S
C281 H287 0.959 . S
C281 H288 0.961 . S
C281 H289 0.960 . S
C282 C280 1.381 . S
C282 C283 1.394 . S
C282 H290 0.930 . S
C283 C282 1.394 . S
C283 C284 1.383 . S
C283 H291 0.929 . S
C284 C283 1.383 . S
C284 C285 1.377 . S
C285 H269 0.930 . S
C285 C284 1.377 . S
C285 C286 1.379 . S
C286 H270 0.931 . S
C286 C280 1.383 . S
C286 C285 1.379 . S
H287 C281 0.959 . S
H288 C281 0.961 . S
H289 C281 0.960 . S
H290 C282 0.930 . S
H291 C283 0.929 . S
H292 C300 0.929 . S
H293 C302 0.930 . S
H294 C304 0.930 . S
H295 C307 0.929 . S
H296 C310 0.930 . S
H297 C312 0.960 . S
H298 C312 0.960 . S
H299 C312 0.960 . S
C300 H292 0.929 . S
C300 C301 1.377 . S
C300 C302 1.384 . S
C301 C300 1.377 . S
C301 C307 1.390 . S
C302 H293 0.930 . S
C302 C300 1.384 . S
C302 C303 1.372 . S
C303 C302 1.372 . S
C303 C304 1.400 . S
C303 C308 1.490 . S
C304 H294 0.930 . S
C304 C303 1.400 . S
C304 C307 1.386 . S
H305 C321 0.930 . S
H306 C322 0.931 . S
C307 H295 0.929 . S
C307 C301 1.390 . S
C307 C304 1.386 . S
C308 C303 1.490 . S
C308 C310 1.395 . S
C308 C311 1.403 . S
H309 C315 0.930 . S
C310 H296 0.930 . S
C310 C308 1.395 . S
C310 C313 1.403 . S
C311 C308 1.403 . S
C311 C312 1.524 . S
C311 C315 1.400 . S
C312 H297 0.960 . S
C312 H298 0.960 . S
C312 H299 0.960 . S
C312 C311 1.524 . S
C313 C310 1.403 . S
C313 C314 1.392 . S
C313 C317 1.495 . S
C314 C313 1.392 . S
C314 C315 1.385 . S
C314 C316 1.478 . S
C315 H309 0.930 . S
C315 C311 1.400 . S
C315 C314 1.385 . S
C316 C314 1.478 . S
C316 C318 1.381 . S
C316 C322 1.383 . S
C317 C313 1.495 . S
C317 H323 0.959 . S
C317 H324 0.961 . S
C317 H325 0.960 . S
C318 C316 1.381 . S
C318 C319 1.394 . S
C318 H326 0.930 . S
C319 C318 1.394 . S
C319 C320 1.383 . S
C319 H327 0.929 . S
C320 C319 1.383 . S
C320 C321 1.377 . S
C321 H305 0.930 . S
C321 C320 1.377 . S
C321 C322 1.379 . S
C322 H306 0.931 . S
C322 C316 1.383 . S
C322 C321 1.379 . S
H323 C317 0.959 . S
H324 C317 0.961 . S
H325 C317 0.960 . S
H326 C318 0.930 . S
H327 C319 0.929 . S
H328 C336 0.929 . S
H329 C338 0.930 . S
H330 C340 0.930 . S
H331 C343 0.929 . S
H332 C346 0.930 . S
H333 C348 0.960 . S
H334 C348 0.960 . S
H335 C348 0.960 . S
C336 H328 0.929 . S
C336 C337 1.377 . S
C336 C338 1.384 . S
C337 C336 1.377 . S
C337 C343 1.390 . S
C338 H329 0.930 . S
C338 C336 1.384 . S
C338 C339 1.372 . S
C339 C338 1.372 . S
C339 C340 1.400 . S
C339 C344 1.490 . S
C340 H330 0.930 . S
C340 C339 1.400 . S
C340 C343 1.386 . S
H341 C357 0.930 . S
H342 C358 0.931 . S
C343 H331 0.929 . S
C343 C337 1.390 . S
C343 C340 1.386 . S
C344 C339 1.490 . S
C344 C346 1.395 . S
C344 C347 1.403 . S
H345 C351 0.930 . S
C346 H332 0.930 . S
C346 C344 1.395 . S
C346 C349 1.403 . S
C347 C344 1.403 . S
C347 C348 1.524 . S
C347 C351 1.400 . S
C348 H333 0.960 . S
C348 H334 0.960 . S
C348 H335 0.960 . S
C348 C347 1.524 . S
C349 C346 1.403 . S
C349 C350 1.392 . S
C349 C353 1.495 . S
C350 C349 1.392 . S
C350 C351 1.385 . S
C350 C352 1.478 . S
C351 H345 0.930 . S
C351 C347 1.400 . S
C351 C350 1.385 . S
C352 C350 1.478 . S
C352 C354 1.381 . S
C352 C358 1.383 . S
C353 C349 1.495 . S
C353 H359 0.959 . S
C353 H360 0.961 . S
C353 H361 0.960 . S
C354 C352 1.381 . S
C354 C355 1.394 . S
C354 H362 0.930 . S
C355 C354 1.394 . S
C355 C356 1.383 . S
C355 H363 0.929 . S
C356 C355 1.383 . S
C356 C357 1.377 . S
C357 H341 0.930 . S
C357 C356 1.377 . S
C357 C358 1.379 . S
C358 H342 0.931 . S
C358 C352 1.383 . S
C358 C357 1.379 . S
H359 C353 0.959 . S
H360 C353 0.961 . S
H361 C353 0.960 . S
H362 C354 0.930 . S
H363 C355 0.929 . S
H364 C372 0.929 . S
H365 C374 0.930 . S
H366 C376 0.930 . S
H367 C379 0.929 . S
H368 C382 0.930 . S
H369 C384 0.960 . S
H370 C384 0.960 . S
H371 C384 0.960 . S
C372 H364 0.929 . S
C372 C373 1.377 . S
C372 C374 1.384 . S
C373 C372 1.377 . S
C373 C379 1.390 . S
C374 H365 0.930 . S
C374 C372 1.384 . S
C374 C375 1.372 . S
C375 C374 1.372 . S
C375 C376 1.400 . S
C375 C380 1.490 . S
C376 H366 0.930 . S
C376 C375 1.400 . S
C376 C379 1.386 . S
H377 C393 0.930 . S
H378 C394 0.931 . S
C379 H367 0.929 . S
C379 C373 1.390 . S
C379 C376 1.386 . S
C380 C375 1.490 . S
C380 C382 1.395 . S
C380 C383 1.403 . S
H381 C387 0.930 . S
C382 H368 0.930 . S
C382 C380 1.395 . S
C382 C385 1.403 . S
C383 C380 1.403 . S
C383 C384 1.524 . S
C383 C387 1.400 . S
C384 H369 0.960 . S
C384 H370 0.960 . S
C384 H371 0.960 . S
C384 C383 1.524 . S
C385 C382 1.403 . S
C385 C386 1.392 . S
C385 C389 1.495 . S
C386 C385 1.392 . S
C386 C387 1.385 . S
C386 C388 1.478 . S
C387 H381 0.930 . S
C387 C383 1.400 . S
C387 C386 1.385 . S
C388 C386 1.478 . S
C388 C390 1.381 . S
C388 C394 1.383 . S
C389 C385 1.495 . S
C389 H395 0.959 . S
C389 H396 0.961 . S
C389 H397 0.960 . S
C390 C388 1.381 . S
C390 C391 1.394 . S
C390 H398 0.930 . S
C391 C390 1.394 . S
C391 C392 1.383 . S
C391 H399 0.929 . S
C392 C391 1.383 . S
C392 C393 1.377 . S
C393 H377 0.930 . S
C393 C392 1.377 . S
C393 C394 1.379 . S
C394 H378 0.931 . S
C394 C388 1.383 . S
C394 C393 1.379 . S
H395 C389 0.959 . S
H396 C389 0.961 . S
H397 C389 0.960 . S
H398 C390 0.930 . S
H399 C391 0.929 . S
H400 C408 0.929 . S
H401 C410 0.930 . S
H402 C412 0.930 . S
H403 C415 0.929 . S
H404 C418 0.930 . S
H405 C420 0.960 . S
H406 C420 0.960 . S
H407 C420 0.960 . S
C408 H400 0.929 . S
C408 C409 1.377 . S
C408 C410 1.384 . S
C409 C408 1.377 . S
C409 C415 1.390 . S
C410 H401 0.930 . S
C410 C408 1.384 . S
C410 C411 1.372 . S
C411 C410 1.372 . S
C411 C412 1.400 . S
C411 C416 1.490 . S
C412 H402 0.930 . S
C412 C411 1.400 . S
C412 C415 1.386 . S
H413 C429 0.930 . S
H414 C430 0.931 . S
C415 H403 0.929 . S
C415 C409 1.390 . S
C415 C412 1.386 . S
C416 C411 1.490 . S
C416 C418 1.395 . S
C416 C419 1.403 . S
H417 C423 0.930 . S
C418 H404 0.930 . S
C418 C416 1.395 . S
C418 C421 1.403 . S
C419 C416 1.403 . S
C419 C420 1.524 . S
C419 C423 1.400 . S
C420 H405 0.960 . S
C420 H406 0.960 . S
C420 H407 0.960 . S
C420 C419 1.524 . S
C421 C418 1.403 . S
C421 C422 1.392 . S
C421 C425 1.495 . S
C422 C421 1.392 . S
C422 C423 1.385 . S
C422 C424 1.478 . S
C423 H417 0.930 . S
C423 C419 1.400 . S
C423 C422 1.385 . S
C424 C422 1.478 . S
C424 C426 1.381 . S
C424 C430 1.383 . S
C425 C421 1.495 . S
C425 H431 0.959 . S
C425 H432 0.961 . S
C425 H433 0.960 . S
C426 C424 1.381 . S
C426 C427 1.394 . S
C426 H434 0.930 . S
C427 C426 1.394 . S
C427 C428 1.383 . S
C427 H435 0.929 . S
C428 C427 1.383 . S
C428 C429 1.377 . S
C429 H413 0.930 . S
C429 C428 1.377 . S
C429 C430 1.379 . S
C430 H414 0.931 . S
C430 C424 1.383 . S
C430 C429 1.379 . S
H431 C425 0.959 . S
H432 C425 0.961 . S
H433 C425 0.960 . S
H434 C426 0.930 . S
H435 C427 0.929 . S
H436 C444 0.929 . S
H437 C446 0.930 . S
H438 C448 0.930 . S
H439 C451 0.929 . S
H440 C454 0.930 . S
H441 C456 0.960 . S
H442 C456 0.960 . S
H443 C456 0.960 . S
C444 H436 0.929 . S
C444 C445 1.377 . S
C444 C446 1.384 . S
C445 C444 1.377 . S
C445 C451 1.390 . S
C446 H437 0.930 . S
C446 C444 1.384 . S
C446 C447 1.372 . S
C447 C446 1.372 . S
C447 C448 1.400 . S
C447 C452 1.490 . S
C448 H438 0.930 . S
C448 C447 1.400 . S
C448 C451 1.386 . S
H449 C465 0.930 . S
H450 C466 0.931 . S
C451 H439 0.929 . S
C451 C445 1.390 . S
C451 C448 1.386 . S
C452 C447 1.490 . S
C452 C454 1.395 . S
C452 C455 1.403 . S
H453 C459 0.930 . S
C454 H440 0.930 . S
C454 C452 1.395 . S
C454 C457 1.403 . S
C455 C452 1.403 . S
C455 C456 1.524 . S
C455 C459 1.400 . S
C456 H441 0.960 . S
C456 H442 0.960 . S
C456 H443 0.960 . S
C456 C455 1.524 . S
C457 C454 1.403 . S
C457 C458 1.392 . S
C457 C461 1.495 1_455 S
C458 C457 1.392 . S
C458 C459 1.385 . S
C458 C460 1.478 . S
C459 H453 0.930 . S
C459 C455 1.400 . S
C459 C458 1.385 . S
C460 C458 1.478 . S
C460 C462 1.381 . S
C460 C466 1.383 . S
C461 C457 1.495 1_655 S
C461 H467 0.959 . S
C461 H468 0.961 . S
C461 H469 0.960 . S
C462 C460 1.381 . S
C462 C463 1.394 . S
C462 H470 0.930 . S
C463 C462 1.394 . S
C463 C464 1.383 . S
C463 H471 0.929 . S
C464 C463 1.383 . S
C464 C465 1.377 . S
C465 H449 0.930 . S
C465 C464 1.377 . S
C465 C466 1.379 . S
C466 H450 0.931 . S
C466 C460 1.383 . S
C466 C465 1.379 . S
H467 C461 0.959 . S
H468 C461 0.961 . S
H469 C461 0.960 . S
H470 C462 0.930 . S
H471 C463 0.929 . S
H472 C480 0.929 . S
H473 C482 0.930 . S
H474 C484 0.930 . S
H475 C487 0.929 . S
H476 C490 0.930 . S
H477 C492 0.960 . S
H478 C492 0.960 . S
H479 C492 0.960 . S
C480 H472 0.929 . S
C480 C481 1.377 . S
C480 C482 1.384 . S
C481 C480 1.377 . S
C481 C487 1.390 . S
C482 H473 0.930 . S
C482 C480 1.384 . S
C482 C483 1.372 . S
C483 C482 1.372 . S
C483 C484 1.400 . S
C483 C488 1.490 . S
C484 H474 0.930 . S
C484 C483 1.400 . S
C484 C487 1.386 . S
H485 C501 0.930 . S
H486 C502 0.931 . S
C487 H475 0.929 . S
C487 C481 1.390 . S
C487 C484 1.386 . S
C488 C483 1.490 . S
C488 C490 1.395 . S
C488 C491 1.403 . S
H489 C495 0.930 . S
C490 H476 0.930 . S
C490 C488 1.395 . S
C490 C493 1.403 . S
C491 C488 1.403 . S
C491 C492 1.524 . S
C491 C495 1.400 . S
C492 H477 0.960 . S
C492 H478 0.960 . S
C492 H479 0.960 . S
C492 C491 1.524 . S
C493 C490 1.403 . S
C493 C494 1.392 . S
C493 C497 1.495 . S
C494 C493 1.392 . S
C494 C495 1.385 . S
C494 C496 1.478 . S
C495 H489 0.930 . S
C495 C491 1.400 . S
C495 C494 1.385 . S
C496 C494 1.478 . S
C496 C498 1.381 . S
C496 C502 1.383 . S
C497 C493 1.495 . S
C497 H503 0.959 . S
C497 H504 0.961 . S
C497 H505 0.960 . S
C498 C496 1.381 . S
C498 C499 1.394 . S
C498 H506 0.930 . S
C499 C498 1.394 . S
C499 C500 1.383 . S
C499 H507 0.929 . S
C500 C499 1.383 . S
C500 C501 1.377 . S
C501 H485 0.930 . S
C501 C500 1.377 . S
C501 C502 1.379 . S
C502 H486 0.931 . S
C502 C496 1.383 . S
C502 C501 1.379 . S
H503 C497 0.959 . S
H504 C497 0.961 . S
H505 C497 0.960 . S
H506 C498 0.930 . S
H507 C499 0.929 . S
H508 C516 0.929 . S
H509 C518 0.930 . S
H510 C520 0.930 . S
H511 C523 0.929 . S
H512 C526 0.930 . S
H513 C528 0.960 . S
H514 C528 0.960 . S
H515 C528 0.960 . S
C516 H508 0.929 . S
C516 C517 1.377 . S
C516 C518 1.384 . S
C517 C516 1.377 . S
C517 C523 1.390 . S
C518 H509 0.930 . S
C518 C516 1.384 . S
C518 C519 1.372 . S
C519 C518 1.372 . S
C519 C520 1.400 . S
C519 C524 1.490 . S
C520 H510 0.930 . S
C520 C519 1.400 . S
C520 C523 1.386 . S
H521 C537 0.930 . S
H522 C538 0.931 . S
C523 H511 0.929 . S
C523 C517 1.390 . S
C523 C520 1.386 . S
C524 C519 1.490 . S
C524 C526 1.395 . S
C524 C527 1.403 . S
H525 C531 0.930 . S
C526 H512 0.930 . S
C526 C524 1.395 . S
C526 C529 1.403 . S
C527 C524 1.403 . S
C527 C528 1.524 . S
C527 C531 1.400 . S
C528 H513 0.960 . S
C528 H514 0.960 . S
C528 H515 0.960 . S
C528 C527 1.524 . S
C529 C526 1.403 . S
C529 C530 1.392 . S
C529 C533 1.495 . S
C530 C529 1.392 . S
C530 C531 1.385 . S
C530 C532 1.478 . S
C531 H525 0.930 . S
C531 C527 1.400 . S
C531 C530 1.385 . S
C532 C530 1.478 . S
C532 C534 1.381 . S
C532 C538 1.383 . S
C533 C529 1.495 . S
C533 H539 0.959 . S
C533 H540 0.961 . S
C533 H541 0.960 . S
C534 C532 1.381 . S
C534 C535 1.394 . S
C534 H542 0.930 . S
C535 C534 1.394 . S
C535 C536 1.383 . S
C535 H543 0.929 . S
C536 C535 1.383 . S
C536 C537 1.377 . S
C537 H521 0.930 . S
C537 C536 1.377 . S
C537 C538 1.379 . S
C538 H522 0.931 . S
C538 C532 1.383 . S
C538 C537 1.379 . S
H539 C533 0.959 . S
H540 C533 0.961 . S
H541 C533 0.960 . S
H542 C534 0.930 . S
H543 C535 0.929 . S
H544 C552 0.929 . S
H545 C554 0.930 . S
H546 C556 0.930 . S
H547 C559 0.929 . S
H548 C562 0.930 . S
H549 C564 0.960 . S
H550 C564 0.960 . S
H551 C564 0.960 . S
C552 H544 0.929 . S
C552 C553 1.377 . S
C552 C554 1.384 . S
C553 C552 1.377 . S
C553 C559 1.390 . S
C554 H545 0.930 . S
C554 C552 1.384 . S
C554 C555 1.372 . S
C555 C554 1.372 . S
C555 C556 1.400 . S
C555 C560 1.490 . S
C556 H546 0.930 . S
C556 C555 1.400 . S
C556 C559 1.386 . S
H557 C573 0.930 . S
H558 C574 0.931 . S
C559 H547 0.929 . S
C559 C553 1.390 . S
C559 C556 1.386 . S
C560 C555 1.490 . S
C560 C562 1.395 . S
C560 C563 1.403 . S
H561 C567 0.930 . S
C562 H548 0.930 . S
C562 C560 1.395 . S
C562 C565 1.403 . S
C563 C560 1.403 . S
C563 C564 1.524 . S
C563 C567 1.400 . S
C564 H549 0.960 . S
C564 H550 0.960 . S
C564 H551 0.960 . S
C564 C563 1.524 . S
C565 C562 1.403 . S
C565 C566 1.392 . S
C565 C569 1.495 . S
C566 C565 1.392 . S
C566 C567 1.385 . S
C566 C568 1.478 . S
C567 H561 0.930 . S
C567 C563 1.400 . S
C567 C566 1.385 . S
C568 C566 1.478 . S
C568 C570 1.381 . S
C568 C574 1.383 . S
C569 C565 1.495 . S
C569 H575 0.959 . S
C569 H576 0.961 . S
C569 H577 0.960 . S
C570 C568 1.381 . S
C570 C571 1.394 . S
C570 H578 0.930 . S
C571 C570 1.394 . S
C571 C572 1.383 . S
C571 H579 0.929 . S
C572 C571 1.383 . S
C572 C573 1.377 . S
C573 H557 0.930 . S
C573 C572 1.377 . S
C573 C574 1.379 . S
C574 H558 0.931 . S
C574 C568 1.383 . S
C574 C573 1.379 . S
H575 C569 0.959 . S
H576 C569 0.961 . S
H577 C569 0.960 . S
H578 C570 0.930 . S
H579 C571 0.929 . S
H580 C588 0.929 . S
H581 C590 0.930 . S
H582 C592 0.930 . S
H583 C595 0.929 . S
H584 C598 0.930 . S
H585 C600 0.960 . S
H586 C600 0.960 . S
H587 C600 0.960 . S
C588 H580 0.929 . S
C588 C589 1.377 . S
C588 C590 1.384 . S
C589 C588 1.377 . S
C589 C595 1.390 . S
C590 H581 0.930 . S
C590 C588 1.384 . S
C590 C591 1.372 . S
C591 C590 1.372 . S
C591 C592 1.400 . S
C591 C596 1.490 . S
C592 H582 0.930 . S
C592 C591 1.400 . S
C592 C595 1.386 . S
H593 C609 0.930 . S
H594 C610 0.931 . S
C595 H583 0.929 . S
C595 C589 1.390 . S
C595 C592 1.386 . S
C596 C591 1.490 . S
C596 C598 1.395 . S
C596 C599 1.403 . S
H597 C603 0.930 . S
C598 H584 0.930 . S
C598 C596 1.395 . S
C598 C601 1.403 . S
C599 C596 1.403 . S
C599 C600 1.524 . S
C599 C603 1.400 . S
C600 H585 0.960 . S
C600 H586 0.960 . S
C600 H587 0.960 . S
C600 C599 1.524 . S
C601 C598 1.403 . S
C601 C602 1.392 . S
C601 C605 1.495 . S
C602 C601 1.392 . S
C602 C603 1.385 . S
C602 C604 1.478 . S
C603 H597 0.930 . S
C603 C599 1.400 . S
C603 C602 1.385 . S
C604 C602 1.478 . S
C604 C606 1.381 . S
C604 C610 1.383 . S
C605 C601 1.495 . S
C605 H611 0.959 . S
C605 H612 0.961 . S
C605 H613 0.960 . S
C606 C604 1.381 . S
C606 C607 1.394 . S
C606 H614 0.930 . S
C607 C606 1.394 . S
C607 C608 1.383 . S
C607 H615 0.929 . S
C608 C607 1.383 . S
C608 C609 1.377 . S
C609 H593 0.930 . S
C609 C608 1.377 . S
C609 C610 1.379 . S
C610 H594 0.931 . S
C610 C604 1.383 . S
C610 C609 1.379 . S
H611 C605 0.959 . S
H612 C605 0.961 . S
H613 C605 0.960 . S
H614 C606 0.930 . S
H615 C607 0.929 . S
H616 C624 0.929 . S
H617 C626 0.930 . S
H618 C628 0.930 . S
H619 C631 0.929 . S
H620 C634 0.930 . S
H621 C636 0.960 . S
H622 C636 0.960 . S
H623 C636 0.960 . S
C624 H616 0.929 . S
C624 C625 1.377 . S
C624 C626 1.384 . S
C625 C624 1.377 . S
C625 C631 1.390 . S
C626 H617 0.930 . S
C626 C624 1.384 . S
C626 C627 1.372 . S
C627 C626 1.372 . S
C627 C628 1.400 . S
C627 C632 1.490 . S
C628 H618 0.930 . S
C628 C627 1.400 . S
C628 C631 1.386 . S
H629 C645 0.930 . S
H630 C646 0.931 . S
C631 H619 0.929 . S
C631 C625 1.390 . S
C631 C628 1.386 . S
C632 C627 1.490 . S
C632 C634 1.395 . S
C632 C635 1.403 . S
H633 C639 0.930 . S
C634 H620 0.930 . S
C634 C632 1.395 . S
C634 C637 1.403 . S
C635 C632 1.403 . S
C635 C636 1.524 . S
C635 C639 1.400 . S
C636 H621 0.960 . S
C636 H622 0.960 . S
C636 H623 0.960 . S
C636 C635 1.524 . S
C637 C634 1.403 . S
C637 C638 1.392 . S
C637 C641 1.495 . S
C638 C637 1.392 . S
C638 C639 1.385 . S
C638 C640 1.478 . S
C639 H633 0.930 . S
C639 C635 1.400 . S
C639 C638 1.385 . S
C640 C638 1.478 . S
C640 C642 1.381 . S
C640 C646 1.383 . S
C641 C637 1.495 . S
C641 H647 0.959 . S
C641 H648 0.961 . S
C641 H649 0.960 . S
C642 C640 1.381 . S
C642 C643 1.394 . S
C642 H650 0.930 . S
C643 C642 1.394 . S
C643 C644 1.383 . S
C643 H651 0.929 . S
C644 C643 1.383 . S
C644 C645 1.377 . S
C645 H629 0.930 . S
C645 C644 1.377 . S
C645 C646 1.379 . S
C646 H630 0.931 . S
C646 C640 1.383 . S
C646 C645 1.379 . S
H647 C641 0.959 . S
H648 C641 0.961 . S
H649 C641 0.960 . S
H650 C642 0.930 . S
H651 C643 0.929 . S
H652 C660 0.929 . S
H653 C662 0.930 . S
H654 C664 0.930 . S
H655 C667 0.929 . S
H656 C670 0.930 . S
H657 C672 0.960 . S
H658 C672 0.960 . S
H659 C672 0.960 . S
C660 H652 0.929 . S
C660 C661 1.377 . S
C660 C662 1.384 . S
C661 C660 1.377 . S
C661 C667 1.390 . S
C662 H653 0.930 . S
C662 C660 1.384 . S
C662 C663 1.372 . S
C663 C662 1.372 . S
C663 C664 1.400 . S
C663 C668 1.490 . S
C664 H654 0.930 . S
C664 C663 1.400 . S
C664 C667 1.386 . S
H665 C681 0.930 . S
H666 C682 0.931 . S
C667 H655 0.929 . S
C667 C661 1.390 . S
C667 C664 1.386 . S
C668 C663 1.490 . S
C668 C670 1.395 . S
C668 C671 1.403 . S
H669 C675 0.930 . S
C670 H656 0.930 . S
C670 C668 1.395 . S
C670 C673 1.403 . S
C671 C668 1.403 . S
C671 C672 1.524 . S
C671 C675 1.400 . S
C672 H657 0.960 . S
C672 H658 0.960 . S
C672 H659 0.960 . S
C672 C671 1.524 . S
C673 C670 1.403 . S
C673 C674 1.392 . S
C673 C677 1.495 . S
C674 C673 1.392 . S
C674 C675 1.385 . S
C674 C676 1.478 . S
C675 H669 0.930 . S
C675 C671 1.400 . S
C675 C674 1.385 . S
C676 C674 1.478 . S
C676 C678 1.381 . S
C676 C682 1.383 . S
C677 C673 1.495 . S
C677 H683 0.959 . S
C677 H684 0.961 . S
C677 H685 0.960 . S
C678 C676 1.381 . S
C678 C679 1.394 . S
C678 H686 0.930 . S
C679 C678 1.394 . S
C679 C680 1.383 . S
C679 H687 0.929 . S
C680 C679 1.383 . S
C680 C681 1.377 . S
C681 H665 0.930 . S
C681 C680 1.377 . S
C681 C682 1.379 . S
C682 H666 0.931 . S
C682 C676 1.383 . S
C682 C681 1.379 . S
H683 C677 0.959 . S
H684 C677 0.961 . S
H685 C677 0.960 . S
H686 C678 0.930 . S
H687 C679 0.929 . S
H688 C696 0.929 . S
H689 C698 0.930 . S
H690 C700 0.930 . S
H691 C703 0.929 . S
H692 C706 0.930 . S
H693 C708 0.960 . S
H694 C708 0.960 . S
H695 C708 0.960 . S
C696 H688 0.929 . S
C696 C697 1.377 . S
C696 C698 1.384 . S
C697 C696 1.377 . S
C697 C703 1.390 . S
C698 H689 0.930 . S
C698 C696 1.384 . S
C698 C699 1.372 . S
C699 C698 1.372 . S
C699 C700 1.400 . S
C699 C704 1.490 . S
C700 H690 0.930 . S
C700 C699 1.400 . S
C700 C703 1.386 . S
H701 C717 0.930 . S
H702 C718 0.931 . S
C703 H691 0.929 . S
C703 C697 1.390 . S
C703 C700 1.386 . S
C704 C699 1.490 . S
C704 C706 1.395 . S
C704 C707 1.403 . S
H705 C711 0.930 . S
C706 H692 0.930 . S
C706 C704 1.395 . S
C706 C709 1.403 . S
C707 C704 1.403 . S
C707 C708 1.524 . S
C707 C711 1.400 . S
C708 H693 0.960 . S
C708 H694 0.960 . S
C708 H695 0.960 . S
C708 C707 1.524 . S
C709 C706 1.403 . S
C709 C710 1.392 . S
C709 C713 1.495 . S
C710 C709 1.392 . S
C710 C711 1.385 . S
C710 C712 1.478 . S
C711 H705 0.930 . S
C711 C707 1.400 . S
C711 C710 1.385 . S
C712 C710 1.478 . S
C712 C714 1.381 . S
C712 C718 1.383 . S
C713 C709 1.495 . S
C713 H719 0.959 . S
C713 H720 0.961 . S
C713 H721 0.960 . S
C714 C712 1.381 . S
C714 C715 1.394 . S
C714 H722 0.930 . S
C715 C714 1.394 . S
C715 C716 1.383 . S
C715 H723 0.929 . S
C716 C715 1.383 . S
C716 C717 1.377 . S
C717 H701 0.930 . S
C717 C716 1.377 . S
C717 C718 1.379 . S
C718 H702 0.931 . S
C718 C712 1.383 . S
C718 C717 1.379 . S
H719 C713 0.959 . S
H720 C713 0.961 . S
H721 C713 0.960 . S
H722 C714 0.930 . S
H723 C715 0.929 . S
H724 C732 0.929 . S
H725 C734 0.930 . S
H726 C736 0.930 . S
H727 C739 0.929 . S
H728 C742 0.930 . S
H729 C744 0.960 . S
H730 C744 0.960 . S
H731 C744 0.960 . S
C732 H724 0.929 . S
C732 C733 1.377 . S
C732 C734 1.384 . S
C733 C732 1.377 . S
C733 C739 1.390 . S
C734 H725 0.930 . S
C734 C732 1.384 . S
C734 C735 1.372 . S
C735 C734 1.372 . S
C735 C736 1.400 . S
C735 C740 1.490 . S
C736 H726 0.930 . S
C736 C735 1.400 . S
C736 C739 1.386 . S
H737 C753 0.930 . S
H738 C754 0.931 . S
C739 H727 0.929 . S
C739 C733 1.390 . S
C739 C736 1.386 . S
C740 C735 1.490 . S
C740 C742 1.395 . S
C740 C743 1.403 . S
H741 C747 0.930 . S
C742 H728 0.930 . S
C742 C740 1.395 . S
C742 C745 1.403 . S
C743 C740 1.403 . S
C743 C744 1.524 . S
C743 C747 1.400 . S
C744 H729 0.960 . S
C744 H730 0.960 . S
C744 H731 0.960 . S
C744 C743 1.524 . S
C745 C742 1.403 . S
C745 C746 1.392 . S
C745 C749 1.495 . S
C746 C745 1.392 . S
C746 C747 1.385 . S
C746 C748 1.478 . S
C747 H741 0.930 . S
C747 C743 1.400 . S
C747 C746 1.385 . S
C748 C746 1.478 . S
C748 C750 1.381 . S
C748 C754 1.383 . S
C749 C745 1.495 . S
C749 H755 0.959 . S
C749 H756 0.961 . S
C749 H757 0.960 . S
C750 C748 1.381 . S
C750 C751 1.394 . S
C750 H758 0.930 . S
C751 C750 1.394 . S
C751 C752 1.383 . S
C751 H759 0.929 . S
C752 C751 1.383 . S
C752 C753 1.377 . S
C753 H737 0.930 . S
C753 C752 1.377 . S
C753 C754 1.379 . S
C754 H738 0.931 . S
C754 C748 1.383 . S
C754 C753 1.379 . S
H755 C749 0.959 . S
H756 C749 0.961 . S
H757 C749 0.960 . S
H758 C750 0.930 . S
H759 C751 0.929 . S
H760 C768 0.929 . S
H761 C770 0.930 . S
H762 C772 0.930 . S
H763 C775 0.929 . S
H764 C778 0.930 . S
H765 C780 0.960 . S
H766 C780 0.960 . S
H767 C780 0.960 . S
C768 H760 0.929 . S
C768 C769 1.377 . S
C768 C770 1.384 . S
C769 C768 1.377 . S
C769 C775 1.390 . S
C770 H761 0.930 . S
C770 C768 1.384 . S
C770 C771 1.372 . S
C771 C770 1.372 . S
C771 C772 1.400 . S
C771 C776 1.490 . S
C772 H762 0.930 . S
C772 C771 1.400 . S
C772 C775 1.386 . S
H773 C789 0.930 . S
H774 C790 0.931 . S
C775 H763 0.929 . S
C775 C769 1.390 . S
C775 C772 1.386 . S
C776 C771 1.490 . S
C776 C778 1.395 . S
C776 C779 1.403 . S
H777 C783 0.930 . S
C778 H764 0.930 . S
C778 C776 1.395 . S
C778 C781 1.403 . S
C779 C776 1.403 . S
C779 C780 1.524 . S
C779 C783 1.400 . S
C780 H765 0.960 . S
C780 H766 0.960 . S
C780 H767 0.960 . S
C780 C779 1.524 . S
C781 C778 1.403 . S
C781 C782 1.392 . S
C781 C785 1.495 . S
C782 C781 1.392 . S
C782 C783 1.385 . S
C782 C784 1.478 . S
C783 H777 0.930 . S
C783 C779 1.400 . S
C783 C782 1.385 . S
C784 C782 1.478 . S
C784 C786 1.381 . S
C784 C790 1.383 . S
C785 C781 1.495 . S
C785 H791 0.959 . S
C785 H792 0.961 . S
C785 H793 0.960 . S
C786 C784 1.381 . S
C786 C787 1.394 . S
C786 H794 0.930 . S
C787 C786 1.394 . S
C787 C788 1.383 . S
C787 H795 0.929 . S
C788 C787 1.383 . S
C788 C789 1.377 . S
C789 H773 0.930 . S
C789 C788 1.377 . S
C789 C790 1.379 . S
C790 H774 0.931 . S
C790 C784 1.383 . S
C790 C789 1.379 . S
H791 C785 0.959 . S
H792 C785 0.961 . S
H793 C785 0.960 . S
H794 C786 0.930 . S
H795 C787 0.929 . S
H796 C804 0.929 . S
H797 C806 0.930 . S
H798 C808 0.930 . S
H799 C811 0.929 . S
H800 C814 0.930 . S
H801 C816 0.960 . S
H802 C816 0.960 . S
H803 C816 0.960 . S
C804 H796 0.929 . S
C804 C805 1.377 . S
C804 C806 1.384 . S
C805 C804 1.377 . S
C805 C811 1.390 . S
C806 H797 0.930 . S
C806 C804 1.384 . S
C806 C807 1.372 . S
C807 C806 1.372 . S
C807 C808 1.400 . S
C807 C812 1.490 . S
C808 H798 0.930 . S
C808 C807 1.400 . S
C808 C811 1.386 . S
H809 C825 0.930 . S
H810 C826 0.931 . S
C811 H799 0.929 . S
C811 C805 1.390 . S
C811 C808 1.386 . S
C812 C807 1.490 . S
C812 C814 1.395 . S
C812 C815 1.403 . S
H813 C819 0.930 . S
C814 H800 0.930 . S
C814 C812 1.395 . S
C814 C817 1.403 . S
C815 C812 1.403 . S
C815 C816 1.524 . S
C815 C819 1.400 . S
C816 H801 0.960 . S
C816 H802 0.960 . S
C816 H803 0.960 . S
C816 C815 1.524 . S
C817 C814 1.403 . S
C817 C818 1.392 . S
C817 C821 1.495 . S
C818 C817 1.392 . S
C818 C819 1.385 . S
C818 C820 1.478 . S
C819 H813 0.930 . S
C819 C815 1.400 . S
C819 C818 1.385 . S
C820 C818 1.478 . S
C820 C822 1.381 . S
C820 C826 1.383 . S
C821 C817 1.495 . S
C821 H827 0.959 . S
C821 H828 0.961 . S
C821 H829 0.960 . S
C822 C820 1.381 . S
C822 C823 1.394 . S
C822 H830 0.930 . S
C823 C822 1.394 . S
C823 C824 1.383 . S
C823 H831 0.929 . S
C824 C823 1.383 . S
C824 C825 1.377 . S
C825 H809 0.930 . S
C825 C824 1.377 . S
C825 C826 1.379 . S
C826 H810 0.931 . S
C826 C820 1.383 . S
C826 C825 1.379 . S
H827 C821 0.959 . S
H828 C821 0.961 . S
H829 C821 0.960 . S
H830 C822 0.930 . S
H831 C823 0.929 . S
H832 C840 0.929 . S
H833 C842 0.930 . S
H834 C844 0.930 . S
H835 C847 0.929 . S
H836 C850 0.930 . S
H837 C852 0.960 . S
H838 C852 0.960 . S
H839 C852 0.960 . S
C840 H832 0.929 . S
C840 C841 1.377 . S
C840 C842 1.384 . S
C841 C840 1.377 . S
C841 C847 1.390 . S
C842 H833 0.930 . S
C842 C840 1.384 . S
C842 C843 1.372 . S
C843 C842 1.372 . S
C843 C844 1.400 . S
C843 C848 1.490 . S
C844 H834 0.930 . S
C844 C843 1.400 . S
C844 C847 1.386 . S
H845 C861 0.930 . S
H846 C862 0.931 . S
C847 H835 0.929 . S
C847 C841 1.390 . S
C847 C844 1.386 . S
C848 C843 1.490 . S
C848 C850 1.395 . S
C848 C851 1.403 . S
H849 C855 0.930 . S
C850 H836 0.930 . S
C850 C848 1.395 . S
C850 C853 1.403 . S
C851 C848 1.403 . S
C851 C852 1.524 . S
C851 C855 1.400 . S
C852 H837 0.960 . S
C852 H838 0.960 . S
C852 H839 0.960 . S
C852 C851 1.524 . S
C853 C850 1.403 . S
C853 C854 1.392 . S
C853 C857 1.495 . S
C854 C853 1.392 . S
C854 C855 1.385 . S
C854 C856 1.478 . S
C855 H849 0.930 . S
C855 C851 1.400 . S
C855 C854 1.385 . S
C856 C854 1.478 . S
C856 C858 1.381 . S
C856 C862 1.383 . S
C857 C853 1.495 . S
C857 H863 0.959 . S
C857 H864 0.961 . S
C857 H865 0.960 . S
C858 C856 1.381 . S
C858 C859 1.394 . S
C858 H866 0.930 . S
C859 C858 1.394 . S
C859 C860 1.383 . S
C859 H867 0.929 . S
C860 C859 1.383 . S
C860 C861 1.377 . S
C861 H845 0.930 . S
C861 C860 1.377 . S
C861 C862 1.379 . S
C862 H846 0.931 . S
C862 C856 1.383 . S
C862 C861 1.379 . S
H863 C857 0.959 . S
H864 C857 0.961 . S
H865 C857 0.960 . S
H866 C858 0.930 . S
H867 C859 0.929 . S
H868 C876 0.929 . S
H869 C878 0.930 . S
H870 C880 0.930 . S
H871 C883 0.929 . S
H872 C886 0.930 . S
H873 C888 0.960 . S
H874 C888 0.960 . S
H875 C888 0.960 . S
C876 H868 0.929 . S
C876 C877 1.377 . S
C876 C878 1.384 . S
C877 C876 1.377 . S
C877 C883 1.390 . S
C878 H869 0.930 . S
C878 C876 1.384 . S
C878 C879 1.372 . S
C879 C878 1.372 . S
C879 C880 1.400 . S
C879 C884 1.490 . S
C880 H870 0.930 . S
C880 C879 1.400 . S
C880 C883 1.386 . S
H881 C897 0.930 . S
H882 C898 0.931 . S
C883 H871 0.929 . S
C883 C877 1.390 . S
C883 C880 1.386 . S
C884 C879 1.490 . S
C884 C886 1.395 . S
C884 C887 1.403 . S
H885 C891 0.930 . S
C886 H872 0.930 . S
C886 C884 1.395 . S
C886 C889 1.403 . S
C887 C884 1.403 . S
C887 C888 1.524 . S
C887 C891 1.400 . S
C888 H873 0.960 . S
C888 H874 0.960 . S
C888 H875 0.960 . S
C888 C887 1.524 . S
C889 C886 1.403 . S
C889 C890 1.392 . S
C889 C893 1.495 . S
C890 C889 1.392 . S
C890 C891 1.385 . S
C890 C892 1.478 . S
C891 H885 0.930 . S
C891 C887 1.400 . S
C891 C890 1.385 . S
C892 C890 1.478 . S
C892 C894 1.381 . S
C892 C898 1.383 . S
C893 C889 1.495 . S
C893 H899 0.959 . S
C893 H900 0.961 . S
C893 H901 0.960 . S
C894 C892 1.381 . S
C894 C895 1.394 . S
C894 H902 0.930 1_655 S
C895 C894 1.394 . S
C895 C896 1.383 . S
C895 H903 0.929 1_655 S
C896 C895 1.383 . S
C896 C897 1.377 . S
C897 H881 0.930 . S
C897 C896 1.377 . S
C897 C898 1.379 . S
C898 H882 0.931 . S
C898 C892 1.383 . S
C898 C897 1.379 . S
H899 C893 0.959 . S
H900 C893 0.961 . S
H901 C893 0.960 . S
H902 C894 0.930 1_455 S
H903 C895 0.929 1_455 S
H904 C912 0.929 . S
H905 C914 0.930 . S
H906 C916 0.930 . S
H907 C919 0.929 . S
H908 C922 0.930 . S
H909 C924 0.960 . S
H910 C924 0.960 . S
H911 C924 0.960 . S
C912 H904 0.929 . S
C912 C913 1.377 . S
C912 C914 1.384 . S
C913 C912 1.377 . S
C913 C919 1.390 . S
C914 H905 0.930 . S
C914 C912 1.384 . S
C914 C915 1.372 . S
C915 C914 1.372 . S
C915 C916 1.400 . S
C915 C920 1.490 . S
C916 H906 0.930 . S
C916 C915 1.400 . S
C916 C919 1.386 . S
H917 C933 0.930 . S
H918 C934 0.931 . S
C919 H907 0.929 . S
C919 C913 1.390 . S
C919 C916 1.386 . S
C920 C915 1.490 . S
C920 C922 1.395 . S
C920 C923 1.403 . S
H921 C927 0.930 . S
C922 H908 0.930 . S
C922 C920 1.395 . S
C922 C925 1.403 . S
C923 C920 1.403 . S
C923 C924 1.524 . S
C923 C927 1.400 . S
C924 H909 0.960 . S
C924 H910 0.960 . S
C924 H911 0.960 . S
C924 C923 1.524 . S
C925 C922 1.403 . S
C925 C926 1.392 . S
C925 C929 1.495 . S
C926 C925 1.392 . S
C926 C927 1.385 . S
C926 C928 1.478 . S
C927 H921 0.930 . S
C927 C923 1.400 . S
C927 C926 1.385 . S
C928 C926 1.478 . S
C928 C930 1.381 . S
C928 C934 1.383 . S
C929 C925 1.495 . S
C929 H935 0.959 . S
C929 H936 0.961 . S
C929 H937 0.960 . S
C930 C928 1.381 . S
C930 C931 1.394 . S
C930 H938 0.930 . S
C931 C930 1.394 . S
C931 C932 1.383 . S
C931 H939 0.929 . S
C932 C931 1.383 . S
C932 C933 1.377 . S
C933 H917 0.930 . S
C933 C932 1.377 . S
C933 C934 1.379 . S
C934 H918 0.931 . S
C934 C928 1.383 . S
C934 C933 1.379 . S
H935 C929 0.959 . S
H936 C929 0.961 . S
H937 C929 0.960 . S
H938 C930 0.930 . S
H939 C931 0.929 . S
H940 C948 0.929 . S
H941 C950 0.930 . S
H942 C952 0.930 . S
H943 C955 0.929 . S
H944 C958 0.930 . S
H945 C960 0.960 . S
H946 C960 0.960 . S
H947 C960 0.960 . S
C948 H940 0.929 . S
C948 C949 1.377 . S
C948 C950 1.384 . S
C949 C948 1.377 . S
C949 C955 1.390 . S
C950 H941 0.930 . S
C950 C948 1.384 . S
C950 C951 1.372 . S
C951 C950 1.372 . S
C951 C952 1.400 . S
C951 C956 1.490 . S
C952 H942 0.930 . S
C952 C951 1.400 . S
C952 C955 1.386 . S
H953 C969 0.930 . S
H954 C970 0.931 . S
C955 H943 0.929 . S
C955 C949 1.390 . S
C955 C952 1.386 . S
C956 C951 1.490 . S
C956 C958 1.395 . S
C956 C959 1.403 . S
H957 C963 0.930 . S
C958 H944 0.930 . S
C958 C956 1.395 . S
C958 C961 1.403 . S
C959 C956 1.403 . S
C959 C960 1.524 . S
C959 C963 1.400 . S
C960 H945 0.960 . S
C960 H946 0.960 . S
C960 H947 0.960 . S
C960 C959 1.524 . S
C961 C958 1.403 . S
C961 C962 1.392 . S
C961 C965 1.495 . S
C962 C961 1.392 . S
C962 C963 1.385 . S
C962 C964 1.478 . S
C963 H957 0.930 . S
C963 C959 1.400 . S
C963 C962 1.385 . S
C964 C962 1.478 . S
C964 C966 1.381 . S
C964 C970 1.383 . S
C965 C961 1.495 . S
C965 H971 0.959 . S
C965 H972 0.961 . S
C965 H973 0.960 . S
C966 C964 1.381 . S
C966 C967 1.394 . S
C966 H974 0.930 . S
C967 C966 1.394 . S
C967 C968 1.383 . S
C967 H975 0.929 . S
C968 C967 1.383 . S
C968 C969 1.377 . S
C969 H953 0.930 . S
C969 C968 1.377 . S
C969 C970 1.379 . S
C970 H954 0.931 . S
C970 C964 1.383 . S
C970 C969 1.379 . S
H971 C965 0.959 . S
H972 C965 0.961 . S
H973 C965 0.960 . S
H974 C966 0.930 . S
H975 C967 0.929 . S
H976 C984 0.929 . S
H977 C986 0.930 . S
H978 C988 0.930 . S
H979 C991 0.929 . S
H980 C994 0.930 . S
H981 C996 0.960 . S
H982 C996 0.960 . S
H983 C996 0.960 . S
C984 H976 0.929 . S
C984 C985 1.377 . S
C984 C986 1.384 . S
C985 C984 1.377 . S
C985 C991 1.390 . S
C986 H977 0.930 . S
C986 C984 1.384 . S
C986 C987 1.372 . S
C987 C986 1.372 . S
C987 C988 1.400 . S
C987 C992 1.490 . S
C988 H978 0.930 . S
C988 C987 1.400 . S
C988 C991 1.386 . S
H989 C1005 0.930 . S
H990 C1006 0.931 . S
C991 H979 0.929 . S
C991 C985 1.390 . S
C991 C988 1.386 . S
C992 C987 1.490 . S
C992 C994 1.395 . S
C992 C995 1.403 . S
H993 C999 0.930 . S
C994 H980 0.930 . S
C994 C992 1.395 . S
C994 C997 1.403 . S
C995 C992 1.403 . S
C995 C996 1.524 . S
C995 C999 1.400 . S
C996 H981 0.960 . S
C996 H982 0.960 . S
C996 H983 0.960 . S
C996 C995 1.524 . S
C997 C994 1.403 . S
C997 C998 1.392 . S
C997 C1001 1.495 . S
C998 C997 1.392 . S
C998 C999 1.385 . S
C998 C1000 1.478 . S
C999 H993 0.930 . S
C999 C995 1.400 . S
C999 C998 1.385 . S
C1000 C998 1.478 . S
C1000 C1002 1.381 . S
C1000 C1006 1.383 . S
C1001 C997 1.495 . S
C1001 H1007 0.959 . S
C1001 H1008 0.961 . S
C1001 H1009 0.960 . S
C1002 C1000 1.381 . S
C1002 C1003 1.394 . S
C1002 H1010 0.930 . S
C1003 C1002 1.394 . S
C1003 C1004 1.383 . S
C1003 H1011 0.929 . S
C1004 C1003 1.383 . S
C1004 C1005 1.377 . S
C1005 H989 0.930 . S
C1005 C1004 1.377 . S
C1005 C1006 1.379 . S
C1006 H990 0.931 . S
C1006 C1000 1.383 . S
C1006 C1005 1.379 . S
H1007 C1001 0.959 . S
H1008 C1001 0.961 . S
H1009 C1001 0.960 . S
H1010 C1002 0.930 . S
H1011 C1003 0.929 . S
H1012 C1020 0.929 . S
H1013 C1022 0.930 . S
H1014 C1024 0.930 . S
H1015 C1027 0.929 . S
H1016 C1030 0.930 . S
H1017 C1032 0.960 . S
H1018 C1032 0.960 . S
H1019 C1032 0.960 . S
C1020 H1012 0.929 . S
C1020 C1021 1.377 . S
C1020 C1022 1.384 . S
C1021 C1020 1.377 . S
C1021 C1027 1.390 . S
C1022 H1013 0.930 . S
C1022 C1020 1.384 . S
C1022 C1023 1.372 . S
C1023 C1022 1.372 . S
C1023 C1024 1.400 . S
C1023 C1028 1.490 . S
C1024 H1014 0.930 . S
C1024 C1023 1.400 . S
C1024 C1027 1.386 . S
H1025 C1041 0.930 . S
H1026 C1042 0.931 . S
C1027 H1015 0.929 . S
C1027 C1021 1.390 . S
C1027 C1024 1.386 . S
C1028 C1023 1.490 . S
C1028 C1030 1.395 . S
C1028 C1031 1.403 . S
H1029 C1035 0.930 . S
C1030 H1016 0.930 . S
C1030 C1028 1.395 . S
C1030 C1033 1.403 . S
C1031 C1028 1.403 . S
C1031 C1032 1.524 . S
C1031 C1035 1.400 . S
C1032 H1017 0.960 . S
C1032 H1018 0.960 . S
C1032 H1019 0.960 . S
C1032 C1031 1.524 . S
C1033 C1030 1.403 . S
C1033 C1034 1.392 . S
C1033 C1037 1.495 . S
C1034 C1033 1.392 . S
C1034 C1035 1.385 . S
C1034 C1036 1.478 . S
C1035 H1029 0.930 . S
C1035 C1031 1.400 . S
C1035 C1034 1.385 . S
C1036 C1034 1.478 . S
C1036 C1038 1.381 . S
C1036 C1042 1.383 . S
C1037 C1033 1.495 . S
C1037 H1043 0.959 . S
C1037 H1044 0.961 . S
C1037 H1045 0.960 . S
C1038 C1036 1.381 . S
C1038 C1039 1.394 . S
C1038 H1046 0.930 . S
C1039 C1038 1.394 . S
C1039 C1040 1.383 . S
C1039 H1047 0.929 . S
C1040 C1039 1.383 . S
C1040 C1041 1.377 . S
C1041 H1025 0.930 . S
C1041 C1040 1.377 . S
C1041 C1042 1.379 . S
C1042 H1026 0.931 . S
C1042 C1036 1.383 . S
C1042 C1041 1.379 . S
H1043 C1037 0.959 . S
H1044 C1037 0.961 . S
H1045 C1037 0.960 . S
H1046 C1038 0.930 . S
H1047 C1039 0.929 . S
H1048 C1056 0.929 . S
H1049 C1058 0.930 . S
H1050 C1060 0.930 . S
H1051 C1063 0.929 . S
H1052 C1066 0.930 . S
H1053 C1068 0.960 . S
H1054 C1068 0.960 . S
H1055 C1068 0.960 . S
C1056 H1048 0.929 . S
C1056 C1057 1.377 . S
C1056 C1058 1.384 . S
C1057 C1056 1.377 . S
C1057 C1063 1.390 . S
C1058 H1049 0.930 . S
C1058 C1056 1.384 . S
C1058 C1059 1.372 . S
C1059 C1058 1.372 . S
C1059 C1060 1.400 . S
C1059 C1064 1.490 . S
C1060 H1050 0.930 . S
C1060 C1059 1.400 . S
C1060 C1063 1.386 . S
H1061 C1077 0.930 . S
H1062 C1078 0.931 . S
C1063 H1051 0.929 . S
C1063 C1057 1.390 . S
C1063 C1060 1.386 . S
C1064 C1059 1.490 . S
C1064 C1066 1.395 . S
C1064 C1067 1.403 . S
H1065 C1071 0.930 . S
C1066 H1052 0.930 . S
C1066 C1064 1.395 . S
C1066 C1069 1.403 . S
C1067 C1064 1.403 . S
C1067 C1068 1.524 . S
C1067 C1071 1.400 . S
C1068 H1053 0.960 . S
C1068 H1054 0.960 . S
C1068 H1055 0.960 . S
C1068 C1067 1.524 . S
C1069 C1066 1.403 . S
C1069 C1070 1.392 . S
C1069 C1073 1.495 . S
C1070 C1069 1.392 . S
C1070 C1071 1.385 . S
C1070 C1072 1.478 . S
C1071 H1065 0.930 . S
C1071 C1067 1.400 . S
C1071 C1070 1.385 . S
C1072 C1070 1.478 . S
C1072 C1074 1.381 . S
C1072 C1078 1.383 . S
C1073 C1069 1.495 . S
C1073 H1079 0.959 . S
C1073 H1080 0.961 . S
C1073 H1081 0.960 . S
C1074 C1072 1.381 . S
C1074 C1075 1.394 . S
C1074 H1082 0.930 . S
C1075 C1074 1.394 . S
C1075 C1076 1.383 . S
C1075 H1083 0.929 . S
C1076 C1075 1.383 . S
C1076 C1077 1.377 . S
C1077 H1061 0.930 . S
C1077 C1076 1.377 . S
C1077 C1078 1.379 . S
C1078 H1062 0.931 . S
C1078 C1072 1.383 . S
C1078 C1077 1.379 . S
H1079 C1073 0.959 . S
H1080 C1073 0.961 . S
H1081 C1073 0.960 . S
H1082 C1074 0.930 . S
H1083 C1075 0.929 . S
H1084 C1092 0.929 . S
H1085 C1094 0.930 . S
H1086 C1096 0.930 . S
H1087 C1099 0.929 . S
H1088 C1102 0.930 . S
H1089 C1104 0.960 . S
H1090 C1104 0.960 . S
H1091 C1104 0.960 . S
C1092 H1084 0.929 . S
C1092 C1093 1.377 . S
C1092 C1094 1.384 . S
C1093 C1092 1.377 . S
C1093 C1099 1.390 . S
C1094 H1085 0.930 . S
C1094 C1092 1.384 . S
C1094 C1095 1.372 . S
C1095 C1094 1.372 . S
C1095 C1096 1.400 . S
C1095 C1100 1.490 . S
C1096 H1086 0.930 . S
C1096 C1095 1.400 . S
C1096 C1099 1.386 . S
H1097 C1113 0.930 . S
H1098 C1114 0.931 . S
C1099 H1087 0.929 . S
C1099 C1093 1.390 . S
C1099 C1096 1.386 . S
C1100 C1095 1.490 . S
C1100 C1102 1.395 . S
C1100 C1103 1.403 . S
H1101 C1107 0.930 . S
C1102 H1088 0.930 . S
C1102 C1100 1.395 . S
C1102 C1105 1.403 . S
C1103 C1100 1.403 . S
C1103 C1104 1.524 . S
C1103 C1107 1.400 . S
C1104 H1089 0.960 . S
C1104 H1090 0.960 . S
C1104 H1091 0.960 . S
C1104 C1103 1.524 . S
C1105 C1102 1.403 . S
C1105 C1106 1.392 . S
C1105 C1109 1.495 . S
C1106 C1105 1.392 . S
C1106 C1107 1.385 . S
C1106 C1108 1.478 . S
C1107 H1101 0.930 . S
C1107 C1103 1.400 . S
C1107 C1106 1.385 . S
C1108 C1106 1.478 . S
C1108 C1110 1.381 . S
C1108 C1114 1.383 . S
C1109 C1105 1.495 . S
C1109 H1115 0.959 . S
C1109 H1116 0.961 . S
C1109 H1117 0.960 . S
C1110 C1108 1.381 . S
C1110 C1111 1.394 . S
C1110 H1118 0.930 . S
C1111 C1110 1.394 . S
C1111 C1112 1.383 . S
C1111 H1119 0.929 . S
C1112 C1111 1.383 . S
C1112 C1113 1.377 . S
C1113 H1097 0.930 . S
C1113 C1112 1.377 . S
C1113 C1114 1.379 . S
C1114 H1098 0.931 . S
C1114 C1108 1.383 . S
C1114 C1113 1.379 . S
H1115 C1109 0.959 . S
H1116 C1109 0.961 . S
H1117 C1109 0.960 . S
H1118 C1110 0.930 . S
H1119 C1111 0.929 . S
C265 C6 1.261 . S
C284 C111 1.279 . S
C301 C18 1.336 . S
C320 C151 1.323 . S
C356 C185 2.294 . S
C337 C28 2.318 . S
C373 C40 1.947 . S
C392 C226 1.887 . S
C428 C146 1.671 . S
C409 C9 1.637 . S
C464 C106 2.017 . S
C445 C16 1.946 . S
C500 C234 1.452 . S
C481 C30 1.452 . S
C536 C195 1.397 . S
C517 C42 1.406 . S
C553 C4 1.181 . S
C572 C231 1.171 . S
C608 C154 2.137 . S
C589 C33 2.200 . S
C625 C45 2.125 . S
C644 C114 2.087 . S
C661 C21 1.694 . S
C680 C182 1.720 . S
C716 C102 1.336 . S
C697 C57 1.320 . S
C733 C66 1.299 . S
C752 C142 1.319 . S
C769 C76 2.369 . S
C788 C194 2.339 . S
C805 C88 1.841 . S
C824 C235 1.820 . S
C841 C54 1.644 . S
C860 C155 1.651 . S
C896 C115 2.111 . S
C877 C64 2.075 . S
C932 C225 1.343 . S
C913 C78 1.351 . S
C968 C186 1.434 . S
C949 C93 1.468 . S
C985 C52 1.188 . S
C1004 C222 1.189 . S
C1040 C145 2.136 . S
C1021 C81 2.191 . S
C1076 C105 2.011 . S
C1057 C90 2.089 . S
C1093 C69 1.698 . S
C1112 C191 1.753 . S
