# Generated by pormake.
# Topology the, (3,8)-cn, num edge types: 1
# Building blocks:
#     Node 0, Type 0, BuildingBlock: BELTOD_clean_linker_0, # of connection points: 3
#     Node 1, Type 0, BuildingBlock: BELTOD_clean_linker_0, # of connection points: 3
#     Node 2, Type 0, BuildingBlock: BELTOD_clean_linker_0, # of connection points: 3
#     Node 3, Type 0, BuildingBlock: BELTOD_clean_linker_0, # of connection points: 3
#     Node 4, Type 0, BuildingBlock: BELTOD_clean_linker_0, # of connection points: 3
#     Node 5, Type 0, BuildingBlock: BELTOD_clean_linker_0, # of connection points: 3
#     Node 6, Type 0, BuildingBlock: BELTOD_clean_linker_0, # of connection points: 3
#     Node 7, Type 0, BuildingBlock: BELTOD_clean_linker_0, # of connection points: 3
#     Node 8, Type 1, BuildingBlock: GIZVER_clean_sbu_0, # of connection points: 8
#     Node 9, Type 1, BuildingBlock: GIZVER_clean_sbu_0, # of connection points: 8
#     Node 10, Type 1, BuildingBlock: GIZVER_clean_sbu_0, # of connection points: 8
#     Edge 11, Type (0, 1), None
#     Edge 12, Type (0, 1), None
#     Edge 13, Type (0, 1), None
#     Edge 14, Type (0, 1), None
#     Edge 15, Type (0, 1), None
#     Edge 16, Type (0, 1), None
#     Edge 17, Type (0, 1), None
#     Edge 18, Type (0, 1), None
#     Edge 19, Type (0, 1), None
#     Edge 20, Type (0, 1), None
#     Edge 21, Type (0, 1), None
#     Edge 22, Type (0, 1), None
#     Edge 23, Type (0, 1), None
#     Edge 24, Type (0, 1), None
#     Edge 25, Type (0, 1), None
#     Edge 26, Type (0, 1), None
#     Edge 27, Type (0, 1), None
#     Edge 28, Type (0, 1), None
#     Edge 29, Type (0, 1), None
#     Edge 30, Type (0, 1), None
#     Edge 31, Type (0, 1), None
#     Edge 32, Type (0, 1), None
#     Edge 33, Type (0, 1), None
#     Edge 34, Type (0, 1), None
# Relax obj value: 0.060
# Max RMSD: 0.141
# Mean RMSD: 0.093
data_MOF--net-the--node1-GIZVER_clean_sbu_0--node2-BELTOD_clean_linker_0--edge1-none
_symmetry_space_group_name_H-M    P1
_symmetry_Int_Tables_number       1
_symmetry_cell_setting            triclinic
loop_
_symmetry_equiv_pos_as_xyz
'x, y, z'
_cell_length_a     25.439957
_cell_length_b     24.122084
_cell_length_c     21.845569
_cell_angle_alpha  85.859567
_cell_angle_beta   99.376122
_cell_angle_gamma 112.19492
loop_
_atom_site_label
_atom_site_type_symbol
_atom_site_fract_x
_atom_site_fract_y
_atom_site_fract_z
_atom_type_partial_charge
P0 P 0.35236 0.36518 0.4376 0.0
H1 H 0.32267 0.41984 0.533 0.0
H2 H 0.23508 0.42992 0.54678 0.0
H3 H 0.14278 0.30947 0.3946 0.0
H4 H 0.23283 0.30153 0.37896 0.0
H5 H 0.45548 0.34482 0.48759 0.0
H6 H 0.48138 0.25808 0.49249 0.0
H7 H 0.30699 0.1487 0.41803 0.0
H8 H 0.28082 0.23692 0.41421 0.0
H9 H 0.40906 0.48186 0.38237 0.0
H10 H 0.30701 0.30236 0.31867 0.0
O11 O 0.40359 0.41755 0.48298 0.0
H12 H 0.42879 0.51285 0.27747 0.0
H13 H 0.32552 0.33357 0.21292 0.0
C14 C 0.28442 0.35971 0.45521 0.0
C15 C 0.28368 0.39426 0.50334 0.0
C16 C 0.2331 0.39996 0.51125 0.0
C17 C 0.18178 0.37026 0.47189 0.0
C18 C 0.18162 0.3324 0.42597 0.0
C19 C 0.23303 0.32768 0.41721 0.0
C20 C 0.36619 0.29748 0.45083 0.0
C21 C 0.42227 0.30214 0.47354 0.0
C22 C 0.4371 0.25222 0.47603 0.0
C23 C 0.39626 0.19651 0.45502 0.0
C24 C 0.33939 0.1912 0.43409 0.0
C25 C 0.3244 0.24156 0.43214 0.0
C26 C 0.35809 0.3894 0.3586 0.0
C27 C 0.39015 0.44928 0.34566 0.0
C28 C 0.40101 0.46712 0.28545 0.0
C29 C 0.3791 0.42553 0.23705 0.0
C30 C 0.34291 0.36665 0.24926 0.0
C31 C 0.3327 0.34863 0.30985 0.0
P32 P 0.71824 0.31871 0.25784 0.0
H33 H 0.84098 0.33741 0.28442 0.0
H34 H 0.92085 0.40096 0.35814 0.0
H35 H 0.80512 0.46784 0.42444 0.0
H36 H 0.72597 0.40448 0.35064 0.0
H37 H 0.6035 0.22948 0.22054 0.0
H38 H 0.53798 0.14731 0.2759 0.0
H39 H 0.6686 0.1816 0.43723 0.0
H40 H 0.73328 0.26447 0.38211 0.0
H41 H 0.72121 0.38544 0.13873 0.0
H42 H 0.61929 0.33995 0.28761 0.0
O43 O 0.74427 0.29326 0.20539 0.0
H44 H 0.65508 0.42917 0.07914 0.0
H45 H 0.55256 0.38112 0.228 0.0
C46 C 0.77761 0.36709 0.31107 0.0
C47 C 0.83293 0.36612 0.31454 0.0
C48 C 0.87862 0.4023 0.35701 0.0
C49 C 0.86975 0.43982 0.3973 0.0
C50 C 0.81388 0.43977 0.39415 0.0
C51 C 0.76839 0.40373 0.35165 0.0
C52 C 0.67274 0.25438 0.29769 0.0
C53 C 0.61805 0.21931 0.26785 0.0
C54 C 0.58064 0.17214 0.29947 0.0
C55 C 0.59779 0.158 0.36115 0.0
C56 C 0.65391 0.19115 0.38973 0.0
C57 C 0.69095 0.23897 0.35834 0.0
C58 C 0.6745 0.35812 0.2171 0.0
C59 C 0.68476 0.38493 0.15867 0.0
C60 C 0.64688 0.40972 0.12454 0.0
C61 C 0.59772 0.40717 0.14806 0.0
C62 C 0.58915 0.38245 0.20771 0.0
C63 C 0.62753 0.35907 0.24212 0.0
P64 P 0.77863 0.79902 0.27826 0.0
H65 H 0.8108 0.9172 0.33287 0.0
H66 H 0.76104 0.95921 0.39285 0.0
H67 H 0.61869 0.78877 0.38399 0.0
H68 H 0.66777 0.74801 0.32488 0.0
H69 H 0.89027 0.79468 0.26717 0.0
H70 H 0.94513 0.73822 0.32572 0.0
H71 H 0.8229 0.67898 0.45497 0.0
H72 H 0.76991 0.73743 0.39856 0.0
H73 H 0.7303 0.79069 0.14574 0.0
H74 H 0.71253 0.673 0.30587 0.0
O75 O 0.81666 0.853 0.23294 0.0
H76 H 0.65617 0.70953 0.08313 0.0
H77 H 0.63799 0.59288 0.24437 0.0
C78 C 0.74256 0.82981 0.32302 0.0
C79 C 0.76873 0.88915 0.34377 0.0
C80 C 0.74039 0.91306 0.37821 0.0
C81 C 0.68565 0.87761 0.39277 0.0
C82 C 0.66059 0.81771 0.37329 0.0
C83 C 0.68873 0.79414 0.339 0.0
C84 C 0.82616 0.77044 0.32869 0.0
C85 C 0.87651 0.77136 0.30942 0.0
C86 C 0.9078 0.7392 0.34274 0.0
C87 C 0.88789 0.70442 0.39445 0.0
C88 C 0.83898 0.70569 0.41518 0.0
C89 C 0.80878 0.73913 0.38301 0.0
C90 C 0.72735 0.73811 0.23057 0.0
C91 C 0.711 0.74739 0.16736 0.0
C92 C 0.66868 0.70093 0.13159 0.0
C93 C 0.64114 0.64487 0.15894 0.0
C94 C 0.65826 0.63559 0.222 0.0
C95 C 0.70121 0.68152 0.25724 0.0
P96 P 0.30293 0.71738 0.28593 0.0
H97 H 0.35636 0.84788 0.2707 0.0
H98 H 0.43038 0.9265 0.33596 0.0
H99 H 0.4384 0.79442 0.47772 0.0
H100 H 0.36257 0.71624 0.41317 0.0
H101 H 0.28072 0.66011 0.16525 0.0
H102 H 0.33055 0.6088 0.11758 0.0
H103 H 0.45431 0.63624 0.28435 0.0
H104 H 0.40428 0.68619 0.33157 0.0
H105 H 0.24444 0.73157 0.38587 0.0
H106 H 0.23223 0.5899 0.26824 0.0
O107 O 0.27206 0.74944 0.22854 0.0
H108 H 0.16344 0.66255 0.43432 0.0
H109 H 0.15173 0.521 0.31589 0.0
C110 C 0.35387 0.77599 0.33693 0.0
C111 C 0.37324 0.83585 0.31624 0.0
C112 C 0.4156 0.8809 0.35363 0.0
C113 C 0.44049 0.86668 0.41184 0.0
C114 C 0.42034 0.80678 0.43289 0.0
C115 C 0.37699 0.76203 0.39607 0.0
C116 C 0.33939 0.67845 0.25159 0.0
C117 C 0.31867 0.65511 0.19147 0.0
C118 C 0.34699 0.62547 0.16433 0.0
C119 C 0.3968 0.61892 0.1968 0.0
C120 C 0.41647 0.64106 0.25759 0.0
C121 C 0.38783 0.66999 0.2848 0.0
C122 C 0.24582 0.66554 0.32483 0.0
C123 C 0.22477 0.68548 0.37088 0.0
C124 C 0.178 0.64605 0.39812 0.0
C125 C 0.15085 0.58598 0.37922 0.0
C126 C 0.17131 0.56681 0.33181 0.0
C127 C 0.21803 0.60618 0.30482 0.0
P128 P 0.38153 0.69452 0.70532 0.0
H129 H 0.31367 0.71504 0.59197 0.0
H130 H 0.21424 0.66106 0.54685 0.0
H131 H 0.1808 0.56746 0.72026 0.0
H132 H 0.28045 0.62247 0.76617 0.0
H133 H 0.50294 0.75292 0.70395 0.0
H134 H 0.56435 0.85262 0.6751 0.0
H135 H 0.41695 0.90391 0.63203 0.0
H136 H 0.35549 0.80403 0.66581 0.0
H137 H 0.36066 0.58057 0.77248 0.0
H138 H 0.4621 0.76691 0.81022 0.0
O139 O 0.39834 0.653 0.65971 0.0
H140 H 0.4187 0.55203 0.86006 0.0
H141 H 0.52387 0.73813 0.89326 0.0
C142 C 0.30476 0.67384 0.683 0.0
C143 C 0.2843 0.68581 0.62176 0.0
C144 C 0.22721 0.65496 0.59582 0.0
C145 C 0.18936 0.61125 0.63047 0.0
C146 C 0.20853 0.60243 0.69317 0.0
C147 C 0.2658 0.63356 0.71929 0.0
C148 C 0.4246 0.7708 0.68684 0.0
C149 C 0.48381 0.78593 0.68982 0.0
C150 C 0.51904 0.84328 0.67382 0.0
C151 C 0.49558 0.88644 0.65204 0.0
C152 C 0.43618 0.87165 0.64941 0.0
C153 C 0.40099 0.81442 0.66795 0.0
C154 C 0.40735 0.67586 0.78347 0.0
C155 C 0.39417 0.61546 0.80055 0.0
C156 C 0.42795 0.59915 0.8503 0.0
C157 C 0.47688 0.64288 0.88226 0.0
C158 C 0.48703 0.70347 0.86872 0.0
C159 C 0.45163 0.71981 0.82081 0.0
P160 P 0.33074 0.30739 0.68577 0.0
H161 H 0.38707 0.43597 0.70073 0.0
H162 H 0.44964 0.4987 0.78531 0.0
H163 H 0.42452 0.34318 0.90524 0.0
H164 H 0.36115 0.27934 0.81851 0.0
H165 H 0.27839 0.19209 0.61801 0.0
H166 H 0.32482 0.13138 0.58013 0.0
H167 H 0.48355 0.23209 0.69434 0.0
H168 H 0.4381 0.29236 0.73101 0.0
H169 H 0.26546 0.33561 0.77012 0.0
H170 H 0.23067 0.25677 0.58953 0.0
O171 O 0.3506 0.35008 0.62371 0.0
H172 H 0.1864 0.36956 0.74096 0.0
H173 H 0.14677 0.28432 0.56382 0.0
C174 C 0.37127 0.35275 0.75255 0.0
C175 C 0.39458 0.41497 0.74503 0.0
C176 C 0.43004 0.45097 0.79385 0.0
C177 C 0.44243 0.42582 0.85189 0.0
C178 C 0.41558 0.36376 0.8611 0.0
C179 C 0.37999 0.32733 0.81152 0.0
C180 C 0.3541 0.24642 0.67857 0.0
C181 C 0.32245 0.19953 0.63689 0.0
C182 C 0.34907 0.16482 0.61506 0.0
C183 C 0.40791 0.1774 0.63395 0.0
C184 C 0.4382 0.22149 0.67871 0.0
C185 C 0.41171 0.25558 0.70057 0.0
C186 C 0.25545 0.29454 0.68163 0.0
C187 C 0.23891 0.32185 0.72576 0.0
C188 C 0.19301 0.34094 0.70939 0.0
C189 C 0.16154 0.33085 0.64957 0.0
C190 C 0.17098 0.29337 0.60996 0.0
C191 C 0.21876 0.27671 0.62516 0.0
P192 P 0.7718 0.32775 0.7576 0.0
H193 H 0.71924 0.19593 0.76698 0.0
H194 H 0.65235 0.11891 0.69412 0.0
H195 H 0.65029 0.25673 0.55723 0.0
H196 H 0.71829 0.33293 0.62911 0.0
H197 H 0.84507 0.45482 0.77605 0.0
H198 H 0.92262 0.52362 0.72397 0.0
H199 H 0.90799 0.38011 0.60656 0.0
H200 H 0.83064 0.31127 0.65952 0.0
H201 H 0.79059 0.38563 0.87689 0.0
H202 H 0.67624 0.3661 0.70402 0.0
O203 O 0.79959 0.29493 0.81696 0.0
H204 H 0.74526 0.44573 0.91754 0.0
H205 H 0.63068 0.42532 0.7442 0.0
C206 C 0.72321 0.27043 0.70384 0.0
C207 C 0.70477 0.20953 0.72109 0.0
C208 C 0.66687 0.16542 0.67929 0.0
C209 C 0.64601 0.18173 0.62 0.0
C210 C 0.66538 0.24271 0.6027 0.0
C211 C 0.70393 0.28644 0.64394 0.0
C212 C 0.83047 0.37826 0.72022 0.0
C213 C 0.85832 0.438 0.73909 0.0
C214 C 0.9032 0.47735 0.70952 0.0
C215 C 0.9213 0.45761 0.66061 0.0
C216 C 0.89487 0.397 0.64367 0.0
C217 C 0.85024 0.35762 0.67363 0.0
C218 C 0.73598 0.36983 0.78787 0.0
C219 C 0.75544 0.39379 0.84779 0.0
C220 C 0.72989 0.42875 0.87079 0.0
C221 C 0.68424 0.44039 0.83424 0.0
C222 C 0.66562 0.41719 0.7738 0.0
C223 C 0.69149 0.38272 0.75076 0.0
P224 P 0.83302 0.79062 0.69111 0.0
H225 H 0.93383 0.83809 0.63003 0.0
H226 H 0.98425 0.78803 0.58283 0.0
H227 H 0.83981 0.62063 0.58725 0.0
H228 H 0.78979 0.67081 0.6354 0.0
H229 H 0.83815 0.90885 0.71484 0.0
H230 H 0.78089 0.9663 0.67193 0.0
H231 H 0.67889 0.82457 0.54249 0.0
H232 H 0.73899 0.76717 0.5852 0.0
H233 H 0.86144 0.75633 0.81908 0.0
H234 H 0.71415 0.7024 0.67568 0.0
O235 O 0.89089 0.83725 0.73486 0.0
H236 H 0.80338 0.69153 0.89337 0.0
H237 H 0.65591 0.63646 0.7499 0.0
C238 C 0.85912 0.75763 0.63812 0.0
C239 C 0.91242 0.7909 0.61953 0.0
C240 C 0.94123 0.7623 0.5927 0.0
C241 C 0.91645 0.7003 0.5832 0.0
C242 C 0.86004 0.66843 0.59486 0.0
C243 C 0.83149 0.69704 0.62254 0.0
C244 C 0.793 0.83387 0.65311 0.0
C245 C 0.80429 0.89026 0.6765 0.0
C246 C 0.7712 0.92318 0.65178 0.0
C247 C 0.72511 0.89993 0.6038 0.0
C248 C 0.71399 0.84347 0.57962 0.0
C249 C 0.74819 0.81075 0.60392 0.0
C250 C 0.79169 0.73563 0.7423 0.0
C251 C 0.81677 0.73009 0.80328 0.0
C252 C 0.78363 0.69273 0.8457 0.0
C253 C 0.72506 0.65954 0.8275 0.0
C254 C 0.70101 0.66155 0.76515 0.0
C255 C 0.73412 0.69972 0.72286 0.0
Co256 Co 0.1126 0.44154 0.57837 0.0
Co257 Co 0.0685 0.42646 0.45942 0.0
Co258 Co 0.03035 0.52138 0.51579 0.0
O259 O 0.04422 0.44479 0.52992 0.0
H260 H 1.01042 0.41184 0.53957 0.0
O261 O 1.01587 0.59673 0.50025 0.0
Co262 Co 0.94268 0.59768 0.46302 0.0
Co263 Co 1.00032 0.61449 0.57468 0.0
H264 H 0.04786 0.62943 0.48658 0.0
O265 O 0.08135 0.35579 0.44517 0.0
O266 O 0.14014 0.43458 0.50214 0.0
O267 O 0.08496 0.4878 0.39597 0.0
O268 O 0.09211 0.55835 0.4602 0.0
O269 O 0.9696 0.48273 0.44376 0.0
O270 O 0.87811 0.60542 0.42779 0.0
O271 O 0.96727 0.67663 0.44239 0.0
O272 O 0.90767 0.51413 0.47581 0.0
O273 O 0.9701 0.48472 0.57231 0.0
O274 O 0.98751 0.55503 0.64074 0.0
O275 O 0.92862 0.61554 0.54499 0.0
O276 O 1.00696 0.69056 0.59022 0.0
C277 C 0.13722 0.37534 0.62266 0.0
C278 C 0.14028 0.56293 0.59699 0.0
C279 C 0.10481 0.54223 0.4118 0.0
C280 C 0.13163 0.3856 0.475 0.0
C281 C 0.91252 0.66064 0.42188 0.0
C282 C 0.91802 0.48013 0.44138 0.0
C283 C 0.96398 0.5008 0.62427 0.0
C284 C 0.95223 0.66825 0.57028 0.0
O285 O 0.17165 0.43116 0.6247 0.0
O286 O 0.08566 0.36024 0.59107 0.0
O287 O 0.08938 0.56225 0.5887 0.0
O288 O 0.15164 0.52428 0.57172 0.0
Co289 Co 0.60371 0.93255 0.46953 0.0
Co290 Co 0.634 0.97934 0.57739 0.0
Co291 Co 0.54364 0.02643 0.51057 0.0
O292 O 0.61105 1.00678 0.5022 0.0
H293 H 0.64234 0.04057 0.48889 0.0
O294 O 0.47599 0.04732 0.51733 0.0
Co295 Co 0.48849 0.12055 0.55722 0.0
Co296 Co 0.45151 0.0799 0.44186 0.0
H297 H 0.44456 1.0137 0.53067 0.0
O298 O 0.70793 0.99049 0.59866 0.0
O299 O 0.63613 0.90862 0.5532 0.0
O300 O 0.58578 0.96061 0.64105 0.0
O301 O 0.51168 0.95952 0.57177 0.0
O302 O 0.59248 0.08177 0.58045 0.0
O303 O 0.4932 0.18431 0.59617 0.0
O304 O 0.41649 0.09837 0.57748 0.0
O305 O 0.56493 0.1542 0.54225 0.0
O306 O 0.57537 0.09317 0.44878 0.0
O307 O 0.50293 0.09977 0.38011 0.0
O308 O 0.46686 0.15286 0.47722 0.0
O309 O 0.38241 0.09635 0.42561 0.0
C310 C 0.65312 0.90199 0.42642 0.0
C311 C 0.48948 0.91309 0.44881 0.0
C312 C 0.53219 0.94204 0.62335 0.0
C313 C 0.68858 0.93471 0.58222 0.0
C314 C 0.44035 0.15147 0.6023 0.0
C315 C 0.60037 0.13717 0.57789 0.0
C316 C 0.55631 0.11246 0.3972 0.0
C317 C 0.41506 0.146 0.45327 0.0
O318 O 0.60205 0.86717 0.43675 0.0
O319 O 0.67437 0.95724 0.44585 0.0
O320 O 0.49614 0.96854 0.44296 0.0
O321 O 0.52626 0.89728 0.48511 0.0
Co322 Co 0.47891 0.55604 0.12889 0.0
Co323 Co 0.4488 0.44409 0.10524 0.0
Co324 Co 0.53794 0.52566 0.01329 0.0
O325 O 0.46917 0.51148 0.05496 0.0
H326 H 0.43626 0.51127 0.02564 0.0
O327 O 0.60764 0.54129 0.9746 0.0
Co328 Co 0.60373 0.50705 0.89847 0.0
Co329 Co 0.62793 0.61309 0.93377 0.0
H330 H 0.63972 0.5402 1.00451 0.0
O331 O 0.3764 0.40711 0.12966 0.0
O332 O 0.4526 0.48167 0.17754 0.0
O333 O 0.50413 0.40767 0.12426 0.0
O334 O 0.5714 0.47463 0.07438 0.0
O335 O 0.49185 0.45565 0.95633 0.0
O336 O 0.60466 0.47233 0.82965 0.0
O337 O 0.67289 0.49962 0.91339 0.0
O338 O 0.52967 0.50677 0.87536 0.0
O339 O 0.504 0.57523 0.95258 0.0
O340 O 0.5731 0.65259 0.917 0.0
O341 O 0.63767 0.5886 0.85959 0.0
O342 O 0.70316 0.65441 0.92979 0.0
C343 C 0.4298 0.59133 0.16764 0.0
C344 C 0.59253 0.59734 0.12336 0.0
C345 C 0.55511 0.43017 0.11213 0.0
C346 C 0.40149 0.44119 0.17749 0.0
C347 C 0.65331 0.47274 0.8599 0.0
C348 C 0.48955 0.46434 0.89736 0.0
C349 C 0.52065 0.62457 0.92233 0.0
C350 C 0.68821 0.63046 0.87509 0.0
O351 O 0.48147 0.59782 0.19383 0.0
O352 O 0.40804 0.56027 0.11672 0.0
O353 O 0.58497 0.59821 0.0645 0.0
O354 O 0.55484 0.55913 0.15188 0.0
loop_
_geom_bond_atom_site_label_1
_geom_bond_atom_site_label_2
_geom_bond_distance
_geom_bond_site_symmetry_2
_ccdc_geom_bond_type
P0 O11 1.490 . S
P0 C14 1.812 . S
P0 C20 1.803 . S
P0 C26 1.819 . S
H1 C15 0.941 . S
H2 C16 0.939 . S
H3 C18 0.940 . S
H4 C19 0.940 . S
H5 C21 0.939 . S
H6 C22 0.942 . S
H7 C24 0.940 . S
H8 C25 0.939 . S
H9 C27 0.941 . S
H10 C31 0.939 . S
O11 P0 1.490 . S
H12 C28 0.939 . S
H13 C30 0.940 . S
C14 P0 1.812 . S
C14 C15 1.389 . S
C14 C19 1.391 . S
C15 H1 0.941 . S
C15 C14 1.389 . S
C15 C16 1.397 . S
C16 H2 0.939 . S
C16 C15 1.397 . S
C16 C17 1.378 . S
C17 C16 1.378 . S
C17 C18 1.378 . S
C18 H3 0.940 . S
C18 C17 1.378 . S
C18 C19 1.396 . S
C19 H4 0.940 . S
C19 C14 1.391 . S
C19 C18 1.396 . S
C20 P0 1.803 . S
C20 C21 1.378 . S
C20 C25 1.400 . S
C21 H5 0.939 . S
C21 C20 1.378 . S
C21 C22 1.361 . S
C22 H6 0.942 . S
C22 C21 1.361 . S
C22 C23 1.369 . S
C23 C22 1.369 . S
C23 C24 1.404 . S
C24 H7 0.940 . S
C24 C23 1.404 . S
C24 C25 1.389 . S
C25 H8 0.939 . S
C25 C20 1.400 . S
C25 C24 1.389 . S
C26 P0 1.819 . S
C26 C27 1.391 . S
C26 C31 1.391 . S
C27 H9 0.941 . S
C27 C26 1.391 . S
C27 C28 1.396 . S
C28 H12 0.939 . S
C28 C27 1.396 . S
C28 C29 1.397 . S
C29 C28 1.397 . S
C29 C30 1.385 . S
C30 H13 0.940 . S
C30 C29 1.385 . S
C30 C31 1.388 . S
C31 H10 0.939 . S
C31 C26 1.391 . S
C31 C30 1.388 . S
P32 O43 1.490 . S
P32 C46 1.812 . S
P32 C52 1.803 . S
P32 C58 1.819 . S
H33 C47 0.941 . S
H34 C48 0.939 . S
H35 C50 0.940 . S
H36 C51 0.940 . S
H37 C53 0.939 . S
H38 C54 0.942 . S
H39 C56 0.940 . S
H40 C57 0.939 . S
H41 C59 0.941 . S
H42 C63 0.939 . S
O43 P32 1.490 . S
H44 C60 0.939 . S
H45 C62 0.940 . S
C46 P32 1.812 . S
C46 C47 1.389 . S
C46 C51 1.391 . S
C47 H33 0.941 . S
C47 C46 1.389 . S
C47 C48 1.397 . S
C48 H34 0.939 . S
C48 C47 1.397 . S
C48 C49 1.378 . S
C49 C48 1.378 . S
C49 C50 1.378 . S
C50 H35 0.940 . S
C50 C49 1.378 . S
C50 C51 1.396 . S
C51 H36 0.940 . S
C51 C46 1.391 . S
C51 C50 1.396 . S
C52 P32 1.803 . S
C52 C53 1.378 . S
C52 C57 1.400 . S
C53 H37 0.939 . S
C53 C52 1.378 . S
C53 C54 1.361 . S
C54 H38 0.942 . S
C54 C53 1.361 . S
C54 C55 1.369 . S
C55 C54 1.369 . S
C55 C56 1.404 . S
C56 H39 0.940 . S
C56 C55 1.404 . S
C56 C57 1.389 . S
C57 H40 0.939 . S
C57 C52 1.400 . S
C57 C56 1.389 . S
C58 P32 1.819 . S
C58 C59 1.391 . S
C58 C63 1.391 . S
C59 H41 0.941 . S
C59 C58 1.391 . S
C59 C60 1.396 . S
C60 H44 0.939 . S
C60 C59 1.396 . S
C60 C61 1.397 . S
C61 C60 1.397 . S
C61 C62 1.385 . S
C62 H45 0.940 . S
C62 C61 1.385 . S
C62 C63 1.388 . S
C63 H42 0.939 . S
C63 C58 1.391 . S
C63 C62 1.388 . S
P64 O75 1.490 . S
P64 C78 1.812 . S
P64 C84 1.803 . S
P64 C90 1.819 . S
H65 C79 0.941 . S
H66 C80 0.939 . S
H67 C82 0.940 . S
H68 C83 0.940 . S
H69 C85 0.939 . S
H70 C86 0.942 . S
H71 C88 0.940 . S
H72 C89 0.939 . S
H73 C91 0.941 . S
H74 C95 0.939 . S
O75 P64 1.490 . S
H76 C92 0.939 . S
H77 C94 0.940 . S
C78 P64 1.812 . S
C78 C79 1.389 . S
C78 C83 1.391 . S
C79 H65 0.941 . S
C79 C78 1.389 . S
C79 C80 1.397 . S
C80 H66 0.939 . S
C80 C79 1.397 . S
C80 C81 1.378 . S
C81 C80 1.378 . S
C81 C82 1.378 . S
C82 H67 0.940 . S
C82 C81 1.378 . S
C82 C83 1.396 . S
C83 H68 0.940 . S
C83 C78 1.391 . S
C83 C82 1.396 . S
C84 P64 1.803 . S
C84 C85 1.378 . S
C84 C89 1.400 . S
C85 H69 0.939 . S
C85 C84 1.378 . S
C85 C86 1.361 . S
C86 H70 0.942 . S
C86 C85 1.361 . S
C86 C87 1.369 . S
C87 C86 1.369 . S
C87 C88 1.404 . S
C88 H71 0.940 . S
C88 C87 1.404 . S
C88 C89 1.389 . S
C89 H72 0.939 . S
C89 C84 1.400 . S
C89 C88 1.389 . S
C90 P64 1.819 . S
C90 C91 1.391 . S
C90 C95 1.391 . S
C91 H73 0.941 . S
C91 C90 1.391 . S
C91 C92 1.396 . S
C92 H76 0.939 . S
C92 C91 1.396 . S
C92 C93 1.397 . S
C93 C92 1.397 . S
C93 C94 1.385 . S
C94 H77 0.940 . S
C94 C93 1.385 . S
C94 C95 1.388 . S
C95 H74 0.939 . S
C95 C90 1.391 . S
C95 C94 1.388 . S
P96 O107 1.490 . S
P96 C110 1.812 . S
P96 C116 1.803 . S
P96 C122 1.819 . S
H97 C111 0.941 . S
H98 C112 0.939 . S
H99 C114 0.940 . S
H100 C115 0.940 . S
H101 C117 0.939 . S
H102 C118 0.942 . S
H103 C120 0.940 . S
H104 C121 0.939 . S
H105 C123 0.941 . S
H106 C127 0.939 . S
O107 P96 1.490 . S
H108 C124 0.939 . S
H109 C126 0.940 . S
C110 P96 1.812 . S
C110 C111 1.389 . S
C110 C115 1.391 . S
C111 H97 0.941 . S
C111 C110 1.389 . S
C111 C112 1.397 . S
C112 H98 0.939 . S
C112 C111 1.397 . S
C112 C113 1.378 . S
C113 C112 1.378 . S
C113 C114 1.378 . S
C114 H99 0.940 . S
C114 C113 1.378 . S
C114 C115 1.396 . S
C115 H100 0.940 . S
C115 C110 1.391 . S
C115 C114 1.396 . S
C116 P96 1.803 . S
C116 C117 1.378 . S
C116 C121 1.400 . S
C117 H101 0.939 . S
C117 C116 1.378 . S
C117 C118 1.361 . S
C118 H102 0.942 . S
C118 C117 1.361 . S
C118 C119 1.369 . S
C119 C118 1.369 . S
C119 C120 1.404 . S
C120 H103 0.940 . S
C120 C119 1.404 . S
C120 C121 1.389 . S
C121 H104 0.939 . S
C121 C116 1.400 . S
C121 C120 1.389 . S
C122 P96 1.819 . S
C122 C123 1.391 . S
C122 C127 1.391 . S
C123 H105 0.941 . S
C123 C122 1.391 . S
C123 C124 1.396 . S
C124 H108 0.939 . S
C124 C123 1.396 . S
C124 C125 1.397 . S
C125 C124 1.397 . S
C125 C126 1.385 . S
C126 H109 0.940 . S
C126 C125 1.385 . S
C126 C127 1.388 . S
C127 H106 0.939 . S
C127 C122 1.391 . S
C127 C126 1.388 . S
P128 O139 1.490 . S
P128 C142 1.812 . S
P128 C148 1.803 . S
P128 C154 1.819 . S
H129 C143 0.941 . S
H130 C144 0.939 . S
H131 C146 0.940 . S
H132 C147 0.940 . S
H133 C149 0.939 . S
H134 C150 0.942 . S
H135 C152 0.940 . S
H136 C153 0.939 . S
H137 C155 0.941 . S
H138 C159 0.939 . S
O139 P128 1.490 . S
H140 C156 0.939 . S
H141 C158 0.940 . S
C142 P128 1.812 . S
C142 C143 1.389 . S
C142 C147 1.391 . S
C143 H129 0.941 . S
C143 C142 1.389 . S
C143 C144 1.397 . S
C144 H130 0.939 . S
C144 C143 1.397 . S
C144 C145 1.378 . S
C145 C144 1.378 . S
C145 C146 1.378 . S
C146 H131 0.940 . S
C146 C145 1.378 . S
C146 C147 1.396 . S
C147 H132 0.940 . S
C147 C142 1.391 . S
C147 C146 1.396 . S
C148 P128 1.803 . S
C148 C149 1.378 . S
C148 C153 1.400 . S
C149 H133 0.939 . S
C149 C148 1.378 . S
C149 C150 1.361 . S
C150 H134 0.942 . S
C150 C149 1.361 . S
C150 C151 1.369 . S
C151 C150 1.369 . S
C151 C152 1.404 . S
C152 H135 0.940 . S
C152 C151 1.404 . S
C152 C153 1.389 . S
C153 H136 0.939 . S
C153 C148 1.400 . S
C153 C152 1.389 . S
C154 P128 1.819 . S
C154 C155 1.391 . S
C154 C159 1.391 . S
C155 H137 0.941 . S
C155 C154 1.391 . S
C155 C156 1.396 . S
C156 H140 0.939 . S
C156 C155 1.396 . S
C156 C157 1.397 . S
C157 C156 1.397 . S
C157 C158 1.385 . S
C158 H141 0.940 . S
C158 C157 1.385 . S
C158 C159 1.388 . S
C159 H138 0.939 . S
C159 C154 1.391 . S
C159 C158 1.388 . S
P160 O171 1.490 . S
P160 C174 1.812 . S
P160 C180 1.803 . S
P160 C186 1.819 . S
H161 C175 0.941 . S
H162 C176 0.939 . S
H163 C178 0.940 . S
H164 C179 0.940 . S
H165 C181 0.939 . S
H166 C182 0.942 . S
H167 C184 0.940 . S
H168 C185 0.939 . S
H169 C187 0.941 . S
H170 C191 0.939 . S
O171 P160 1.490 . S
H172 C188 0.939 . S
H173 C190 0.940 . S
C174 P160 1.812 . S
C174 C175 1.389 . S
C174 C179 1.391 . S
C175 H161 0.941 . S
C175 C174 1.389 . S
C175 C176 1.397 . S
C176 H162 0.939 . S
C176 C175 1.397 . S
C176 C177 1.378 . S
C177 C176 1.378 . S
C177 C178 1.378 . S
C178 H163 0.940 . S
C178 C177 1.378 . S
C178 C179 1.396 . S
C179 H164 0.940 . S
C179 C174 1.391 . S
C179 C178 1.396 . S
C180 P160 1.803 . S
C180 C181 1.378 . S
C180 C185 1.400 . S
C181 H165 0.939 . S
C181 C180 1.378 . S
C181 C182 1.361 . S
C182 H166 0.942 . S
C182 C181 1.361 . S
C182 C183 1.369 . S
C183 C182 1.369 . S
C183 C184 1.404 . S
C184 H167 0.940 . S
C184 C183 1.404 . S
C184 C185 1.389 . S
C185 H168 0.939 . S
C185 C180 1.400 . S
C185 C184 1.389 . S
C186 P160 1.819 . S
C186 C187 1.391 . S
C186 C191 1.391 . S
C187 H169 0.941 . S
C187 C186 1.391 . S
C187 C188 1.396 . S
C188 H172 0.939 . S
C188 C187 1.396 . S
C188 C189 1.397 . S
C189 C188 1.397 . S
C189 C190 1.385 . S
C190 H173 0.940 . S
C190 C189 1.385 . S
C190 C191 1.388 . S
C191 H170 0.939 . S
C191 C186 1.391 . S
C191 C190 1.388 . S
P192 O203 1.490 . S
P192 C206 1.812 . S
P192 C212 1.803 . S
P192 C218 1.819 . S
H193 C207 0.941 . S
H194 C208 0.939 . S
H195 C210 0.940 . S
H196 C211 0.940 . S
H197 C213 0.939 . S
H198 C214 0.942 . S
H199 C216 0.940 . S
H200 C217 0.939 . S
H201 C219 0.941 . S
H202 C223 0.939 . S
O203 P192 1.490 . S
H204 C220 0.939 . S
H205 C222 0.940 . S
C206 P192 1.812 . S
C206 C207 1.389 . S
C206 C211 1.391 . S
C207 H193 0.941 . S
C207 C206 1.389 . S
C207 C208 1.397 . S
C208 H194 0.939 . S
C208 C207 1.397 . S
C208 C209 1.378 . S
C209 C208 1.378 . S
C209 C210 1.378 . S
C210 H195 0.940 . S
C210 C209 1.378 . S
C210 C211 1.396 . S
C211 H196 0.940 . S
C211 C206 1.391 . S
C211 C210 1.396 . S
C212 P192 1.803 . S
C212 C213 1.378 . S
C212 C217 1.400 . S
C213 H197 0.939 . S
C213 C212 1.378 . S
C213 C214 1.361 . S
C214 H198 0.942 . S
C214 C213 1.361 . S
C214 C215 1.369 . S
C215 C214 1.369 . S
C215 C216 1.404 . S
C216 H199 0.940 . S
C216 C215 1.404 . S
C216 C217 1.389 . S
C217 H200 0.939 . S
C217 C212 1.400 . S
C217 C216 1.389 . S
C218 P192 1.819 . S
C218 C219 1.391 . S
C218 C223 1.391 . S
C219 H201 0.941 . S
C219 C218 1.391 . S
C219 C220 1.396 . S
C220 H204 0.939 . S
C220 C219 1.396 . S
C220 C221 1.397 . S
C221 C220 1.397 . S
C221 C222 1.385 . S
C222 H205 0.940 . S
C222 C221 1.385 . S
C222 C223 1.388 . S
C223 H202 0.939 . S
C223 C218 1.391 . S
C223 C222 1.388 . S
P224 O235 1.490 . S
P224 C238 1.812 . S
P224 C244 1.803 . S
P224 C250 1.819 . S
H225 C239 0.941 . S
H226 C240 0.939 . S
H227 C242 0.940 . S
H228 C243 0.940 . S
H229 C245 0.939 . S
H230 C246 0.942 . S
H231 C248 0.940 . S
H232 C249 0.939 . S
H233 C251 0.941 . S
H234 C255 0.939 . S
O235 P224 1.490 . S
H236 C252 0.939 . S
H237 C254 0.940 . S
C238 P224 1.812 . S
C238 C239 1.389 . S
C238 C243 1.391 . S
C239 H225 0.941 . S
C239 C238 1.389 . S
C239 C240 1.397 . S
C240 H226 0.939 . S
C240 C239 1.397 . S
C240 C241 1.378 . S
C241 C240 1.378 . S
C241 C242 1.378 . S
C242 H227 0.940 . S
C242 C241 1.378 . S
C242 C243 1.396 . S
C243 H228 0.940 . S
C243 C238 1.391 . S
C243 C242 1.396 . S
C244 P224 1.803 . S
C244 C245 1.378 . S
C244 C249 1.400 . S
C245 H229 0.939 . S
C245 C244 1.378 . S
C245 C246 1.361 . S
C246 H230 0.942 . S
C246 C245 1.361 . S
C246 C247 1.369 . S
C247 C246 1.369 . S
C247 C248 1.404 . S
C248 H231 0.940 . S
C248 C247 1.404 . S
C248 C249 1.389 . S
C249 H232 0.939 . S
C249 C244 1.400 . S
C249 C248 1.389 . S
C250 P224 1.819 . S
C250 C251 1.391 . S
C250 C255 1.391 . S
C251 H233 0.941 . S
C251 C250 1.391 . S
C251 C252 1.396 . S
C252 H236 0.939 . S
C252 C251 1.396 . S
C252 C253 1.397 . S
C253 C252 1.397 . S
C253 C254 1.385 . S
C254 H237 0.940 . S
C254 C253 1.385 . S
C254 C255 1.388 . S
C255 H234 0.939 . S
C255 C250 1.391 . S
C255 C254 1.388 . S
Co256 O259 2.042 . S
Co256 O266 2.264 . S
Co256 O285 2.286 . S
Co256 O286 2.069 . S
Co256 O288 2.015 . S
Co257 O259 2.122 . S
Co257 O265 2.073 . S
Co257 O266 2.327 . S
Co257 O267 1.976 . S
Co258 O259 2.087 . S
Co258 O261 2.087 1_455 S
Co258 O268 2.111 . S
Co258 O269 2.143 1_455 S
Co258 O273 2.111 1_455 S
Co258 O287 2.143 . S
O259 Co256 2.042 . S
O259 Co257 2.122 . S
O259 Co258 2.087 . S
O259 H260 0.980 . S
H260 O259 0.980 . S
O261 Co258 2.087 1_655 S
O261 Co262 2.042 . S
O261 Co263 2.122 . S
O261 H264 0.980 1_655 S
Co262 O261 2.042 . S
Co262 O270 2.286 . S
Co262 O271 2.069 . S
Co262 O272 2.015 . S
Co262 O275 2.264 . S
Co263 O261 2.122 . S
Co263 O274 1.976 . S
Co263 O275 2.327 . S
Co263 O276 2.073 . S
H264 O261 0.980 1_455 S
O265 Co257 2.073 . S
O265 C280 1.245 . S
O266 Co256 2.264 . S
O266 Co257 2.327 . S
O266 C280 1.257 . S
O267 Co257 1.976 . S
O267 C279 1.251 . S
O268 Co258 2.111 . S
O268 C279 1.274 . S
O269 Co258 2.143 1_655 S
O269 C282 1.246 . S
O270 Co262 2.286 . S
O270 C281 1.259 . S
O271 Co262 2.069 . S
O271 C281 1.289 . S
O272 Co262 2.015 . S
O272 C282 1.257 . S
O273 Co258 2.111 1_655 S
O273 C283 1.274 . S
O274 Co263 1.976 . S
O274 C283 1.251 . S
O275 Co262 2.264 . S
O275 Co263 2.327 . S
O275 C284 1.257 . S
O276 Co263 2.073 . S
O276 C284 1.245 . S
C277 O285 1.259 . S
C277 O286 1.289 . S
C278 O287 1.246 . S
C278 O288 1.257 . S
C279 O267 1.251 . S
C279 O268 1.274 . S
C280 O265 1.245 . S
C280 O266 1.257 . S
C281 O270 1.259 . S
C281 O271 1.289 . S
C282 O269 1.246 . S
C282 O272 1.257 . S
C283 O273 1.274 . S
C283 O274 1.251 . S
C284 O275 1.257 . S
C284 O276 1.245 . S
O285 Co256 2.286 . S
O285 C277 1.259 . S
O286 Co256 2.069 . S
O286 C277 1.289 . S
O287 Co258 2.143 . S
O287 C278 1.246 . S
O288 Co256 2.015 . S
O288 C278 1.257 . S
Co289 O292 2.042 . S
Co289 O299 2.264 . S
Co289 O318 2.286 . S
Co289 O319 2.069 . S
Co289 O321 2.015 . S
Co290 O292 2.122 . S
Co290 O298 2.073 . S
Co290 O299 2.327 . S
Co290 O300 1.976 . S
Co291 O292 2.087 1_545 S
Co291 O294 2.087 . S
Co291 O301 2.111 1_545 S
Co291 O302 2.143 . S
Co291 O306 2.111 . S
Co291 O320 2.143 1_545 S
O292 Co289 2.042 . S
O292 Co290 2.122 . S
O292 Co291 2.087 1_565 S
O292 H293 0.980 . S
H293 O292 0.980 . S
O294 Co291 2.087 . S
O294 Co295 2.042 . S
O294 Co296 2.122 . S
O294 H297 0.980 . S
Co295 O294 2.042 . S
Co295 O303 2.286 . S
Co295 O304 2.069 . S
Co295 O305 2.015 . S
Co295 O308 2.264 . S
Co296 O294 2.122 . S
Co296 O307 1.976 . S
Co296 O308 2.327 . S
Co296 O309 2.073 . S
H297 O294 0.980 . S
O298 Co290 2.073 . S
O298 C313 1.245 . S
O299 Co289 2.264 . S
O299 Co290 2.327 . S
O299 C313 1.257 . S
O300 Co290 1.976 . S
O300 C312 1.251 . S
O301 Co291 2.111 1_565 S
O301 C312 1.274 . S
O302 Co291 2.143 . S
O302 C315 1.246 . S
O303 Co295 2.286 . S
O303 C314 1.259 . S
O304 Co295 2.069 . S
O304 C314 1.289 . S
O305 Co295 2.015 . S
O305 C315 1.257 . S
O306 Co291 2.111 . S
O306 C316 1.274 . S
O307 Co296 1.976 . S
O307 C316 1.251 . S
O308 Co295 2.264 . S
O308 Co296 2.327 . S
O308 C317 1.257 . S
O309 Co296 2.073 . S
O309 C317 1.245 . S
C310 O318 1.259 . S
C310 O319 1.289 . S
C311 O320 1.246 . S
C311 O321 1.257 . S
C312 O300 1.251 . S
C312 O301 1.274 . S
C313 O298 1.245 . S
C313 O299 1.257 . S
C314 O303 1.259 . S
C314 O304 1.289 . S
C315 O302 1.246 . S
C315 O305 1.257 . S
C316 O306 1.274 . S
C316 O307 1.251 . S
C317 O308 1.257 . S
C317 O309 1.245 . S
O318 Co289 2.286 . S
O318 C310 1.259 . S
O319 Co289 2.069 . S
O319 C310 1.289 . S
O320 Co291 2.143 1_565 S
O320 C311 1.246 . S
O321 Co289 2.015 . S
O321 C311 1.257 . S
Co322 O325 2.042 . S
Co322 O332 2.264 . S
Co322 O351 2.286 . S
Co322 O352 2.069 . S
Co322 O354 2.015 . S
Co323 O325 2.122 . S
Co323 O331 2.073 . S
Co323 O332 2.327 . S
Co323 O333 1.976 . S
Co324 O325 2.087 . S
Co324 O327 2.087 1_554 S
Co324 O334 2.111 . S
Co324 O335 2.143 1_554 S
Co324 O339 2.111 1_554 S
Co324 O353 2.143 . S
O325 Co322 2.042 . S
O325 Co323 2.122 . S
O325 Co324 2.087 . S
O325 H326 0.980 . S
H326 O325 0.980 . S
O327 Co324 2.087 1_556 S
O327 Co328 2.042 . S
O327 Co329 2.122 . S
O327 H330 0.980 . S
Co328 O327 2.042 . S
Co328 O336 2.286 . S
Co328 O337 2.069 . S
Co328 O338 2.015 . S
Co328 O341 2.264 . S
Co329 O327 2.122 . S
Co329 O340 1.976 . S
Co329 O341 2.327 . S
Co329 O342 2.073 . S
H330 O327 0.980 . S
O331 Co323 2.073 . S
O331 C346 1.245 . S
O332 Co322 2.264 . S
O332 Co323 2.327 . S
O332 C346 1.257 . S
O333 Co323 1.976 . S
O333 C345 1.251 . S
O334 Co324 2.111 . S
O334 C345 1.274 . S
O335 Co324 2.143 1_556 S
O335 C348 1.246 . S
O336 Co328 2.286 . S
O336 C347 1.259 . S
O337 Co328 2.069 . S
O337 C347 1.289 . S
O338 Co328 2.015 . S
O338 C348 1.257 . S
O339 Co324 2.111 1_556 S
O339 C349 1.274 . S
O340 Co329 1.976 . S
O340 C349 1.251 . S
O341 Co328 2.264 . S
O341 Co329 2.327 . S
O341 C350 1.257 . S
O342 Co329 2.073 . S
O342 C350 1.245 . S
C343 O351 1.259 . S
C343 O352 1.289 . S
C344 O353 1.246 . S
C344 O354 1.257 . S
C345 O333 1.251 . S
C345 O334 1.274 . S
C346 O331 1.245 . S
C346 O332 1.257 . S
C347 O336 1.259 . S
C347 O337 1.289 . S
C348 O335 1.246 . S
C348 O338 1.257 . S
C349 O339 1.274 . S
C349 O340 1.251 . S
C350 O341 1.257 . S
C350 O342 1.245 . S
O351 Co322 2.286 . S
O351 C343 1.259 . S
O352 Co322 2.069 . S
O352 C343 1.289 . S
O353 Co324 2.143 . S
O353 C344 1.246 . S
O354 Co322 2.015 . S
O354 C344 1.257 . S
C280 C17 1.071 . S
C316 C55 1.971 . S
C281 C87 1.668 . S
C311 C113 1.847 . S
C278 C145 1.506 . S
C183 C314 1.777 . S
C215 C283 1.198 . S
C313 C247 1.889 . S
C317 C23 1.688 . S
C282 C49 1.913 . S
C310 C81 2.268 . S
C279 C125 1.230 . S
C312 C151 1.635 . S
C189 C277 1.301 . S
C209 C315 1.863 . S
C284 C241 1.252 . S
C346 C29 1.500 . S
C157 C349 2.240 . S
C348 C177 2.017 . S
C221 C347 2.635 . S
C350 C253 1.734 . S
C93 C344 2.571 . S
C343 C119 2.465 . S
C61 C345 2.571 . S
