# Generated by pormake.
# Topology zzz, (3,6)-cn, num edge types: 1
# Building blocks:
#     Node 0, Type 0, BuildingBlock: CUQRIR_clean_linker_1, # of connection points: 3
#     Node 1, Type 0, BuildingBlock: CUQRIR_clean_linker_1, # of connection points: 3
#     Node 2, Type 0, BuildingBlock: CUQRIR_clean_linker_1, # of connection points: 3
#     Node 3, Type 0, BuildingBlock: CUQRIR_clean_linker_1, # of connection points: 3
#     Node 4, Type 0, BuildingBlock: CUQRIR_clean_linker_1, # of connection points: 3
#     Node 5, Type 0, BuildingBlock: CUQRIR_clean_linker_1, # of connection points: 3
#     Node 6, Type 0, BuildingBlock: CUQRIR_clean_linker_1, # of connection points: 3
#     Node 7, Type 0, BuildingBlock: CUQRIR_clean_linker_1, # of connection points: 3
#     Node 8, Type 1, BuildingBlock: HISSIN_clean_sbu_0, # of connection points: 6
#     Node 9, Type 1, BuildingBlock: HISSIN_clean_sbu_0, # of connection points: 6
#     Node 10, Type 1, BuildingBlock: HISSIN_clean_sbu_0, # of connection points: 6
#     Node 11, Type 1, BuildingBlock: HISSIN_clean_sbu_0, # of connection points: 6
#     Edge 12, Type (0, 1), BuildingBlock: EZIPEK_clean_linker_0, # of connection points: 2
#     Edge 13, Type (0, 1), BuildingBlock: EZIPEK_clean_linker_0, # of connection points: 2
#     Edge 14, Type (0, 1), BuildingBlock: EZIPEK_clean_linker_0, # of connection points: 2
#     Edge 15, Type (0, 1), BuildingBlock: EZIPEK_clean_linker_0, # of connection points: 2
#     Edge 16, Type (0, 1), BuildingBlock: EZIPEK_clean_linker_0, # of connection points: 2
#     Edge 17, Type (0, 1), BuildingBlock: EZIPEK_clean_linker_0, # of connection points: 2
#     Edge 18, Type (0, 1), BuildingBlock: EZIPEK_clean_linker_0, # of connection points: 2
#     Edge 19, Type (0, 1), BuildingBlock: EZIPEK_clean_linker_0, # of connection points: 2
#     Edge 20, Type (0, 1), BuildingBlock: EZIPEK_clean_linker_0, # of connection points: 2
#     Edge 21, Type (0, 1), BuildingBlock: EZIPEK_clean_linker_0, # of connection points: 2
#     Edge 22, Type (0, 1), BuildingBlock: EZIPEK_clean_linker_0, # of connection points: 2
#     Edge 23, Type (0, 1), BuildingBlock: EZIPEK_clean_linker_0, # of connection points: 2
#     Edge 24, Type (0, 1), BuildingBlock: EZIPEK_clean_linker_0, # of connection points: 2
#     Edge 25, Type (0, 1), BuildingBlock: EZIPEK_clean_linker_0, # of connection points: 2
#     Edge 26, Type (0, 1), BuildingBlock: EZIPEK_clean_linker_0, # of connection points: 2
#     Edge 27, Type (0, 1), BuildingBlock: EZIPEK_clean_linker_0, # of connection points: 2
#     Edge 28, Type (0, 1), BuildingBlock: EZIPEK_clean_linker_0, # of connection points: 2
#     Edge 29, Type (0, 1), BuildingBlock: EZIPEK_clean_linker_0, # of connection points: 2
#     Edge 30, Type (0, 1), BuildingBlock: EZIPEK_clean_linker_0, # of connection points: 2
#     Edge 31, Type (0, 1), BuildingBlock: EZIPEK_clean_linker_0, # of connection points: 2
#     Edge 32, Type (0, 1), BuildingBlock: EZIPEK_clean_linker_0, # of connection points: 2
#     Edge 33, Type (0, 1), BuildingBlock: EZIPEK_clean_linker_0, # of connection points: 2
#     Edge 34, Type (0, 1), BuildingBlock: EZIPEK_clean_linker_0, # of connection points: 2
#     Edge 35, Type (0, 1), BuildingBlock: EZIPEK_clean_linker_0, # of connection points: 2
# Relax obj value: 0.454
# Max RMSD: 0.226
# Mean RMSD: 0.116
data_MOF--net-zzz--node1-HISSIN_clean_sbu_0--node2-CUQRIR_clean_linker_1--edge1-EZIPEK_clean_linker_0
_symmetry_space_group_name_H-M    P1
_symmetry_Int_Tables_number       1
_symmetry_cell_setting            triclinic
loop_
_symmetry_equiv_pos_as_xyz
'x, y, z'
_cell_length_a     33.534987
_cell_length_b     33.656673
_cell_length_c     10.871612
_cell_angle_alpha  89.580413
_cell_angle_beta   92.107111
_cell_angle_gamma 90.611911
loop_
_atom_site_label
_atom_site_type_symbol
_atom_site_fract_x
_atom_site_fract_y
_atom_site_fract_z
_atom_type_partial_charge
C0 C 0.76029 0.55195 0.42948 0.0
N1 N 0.79925 0.53879 0.44304 0.0
N2 N 0.74428 0.5462 0.31041 0.0
C3 C 0.73745 0.5674 0.53429 0.0
C4 C 0.77601 0.53049 0.25451 0.0
N5 N 0.80697 0.52393 0.3344 0.0
C6 C 0.77783 0.52173 0.119 0.0
H7 H 0.74047 0.54668 0.61386 0.0
H8 H 0.70546 0.57122 0.50805 0.0
H9 H 0.75052 0.59639 0.56361 0.0
H10 H 0.75482 0.53821 0.06407 0.0
H11 H 0.774 0.48936 0.10356 0.0
H12 H 0.80776 0.53011 0.0862 0.0
C13 C 1.00571 0.7541 0.39614 0.0
N14 N 0.03123 0.7865 0.42109 0.0
N15 N 0.02139 0.72689 0.31413 0.0
C16 C 0.96601 0.74851 0.4531 0.0
C17 C 0.0572 0.74399 0.29305 0.0
N18 N 0.06289 0.77869 0.35452 0.0
C19 C 0.08568 0.72889 0.19963 0.0
H20 H 0.97064 0.73379 0.54405 0.0
H21 H 0.94614 0.7294 0.39433 0.0
H22 H 0.95164 0.77733 0.46982 0.0
H23 H 0.08205 0.69651 0.18432 0.0
H24 H 0.11708 0.73506 0.22916 0.0
H25 H 0.07993 0.74456 0.11072 0.0
C26 C 0.79923 1.00435 0.38288 0.0
N27 N 0.76042 0.01888 0.38897 0.0
N28 N 0.81661 1.01231 0.26948 0.0
C29 C 0.82058 0.98401 0.48845 0.0
C30 C 0.78585 0.03049 0.20805 0.0
N31 N 0.75448 0.0366 0.28057 0.0
C32 C 0.78642 0.04358 0.07439 0.0
H33 H 0.811 0.9959 0.57734 0.0
H34 H 0.85338 0.98737 0.48129 0.0
H35 H 0.81274 0.95192 0.48649 0.0
H36 H 0.81122 0.03029 0.02482 0.0
H37 H 0.78826 0.07648 0.06868 0.0
H38 H 0.75868 0.03426 0.0243 0.0
C39 C 0.55975 0.8026 0.38477 0.0
N40 N 0.53562 0.76987 0.41078 0.0
N41 N 0.54207 0.82796 0.29744 0.0
C42 C 0.60089 0.80922 0.44016 0.0
C43 C 0.50653 0.80973 0.27391 0.0
N44 N 0.50286 0.77548 0.33935 0.0
C45 C 0.47732 0.82252 0.17222 0.0
H46 H 0.605 0.84035 0.47055 0.0
H47 H 0.62307 0.80418 0.3688 0.0
H48 H 0.60684 0.78891 0.51939 0.0
H49 H 0.48109 0.85432 0.14752 0.0
H50 H 0.44612 0.81786 0.19888 0.0
H51 H 0.48196 0.80427 0.08947 0.0
C52 C 0.31954 0.50584 0.18295 0.0
N53 N 0.28 0.51757 0.17824 0.0
N54 N 0.33808 0.51233 0.29799 0.0
C55 C 0.34025 0.48979 0.07475 0.0
C56 C 0.3076 0.52683 0.36174 0.0
N57 N 0.27446 0.532 0.28929 0.0
C58 C 0.31018 0.53781 0.49604 0.0
H59 H 0.32827 0.45963 0.05396 0.0
H60 H 0.37294 0.48817 0.09361 0.0
H61 H 0.33386 0.50881 0.99273 0.0
H62 H 0.31204 0.5706 0.5051 0.0
H63 H 0.3364 0.52426 0.54453 0.0
H64 H 0.28257 0.52787 0.54097 0.0
C65 C 0.0816 0.3012 0.21425 0.0
N66 N 0.05845 0.26821 0.17841 0.0
N67 N 0.06286 0.32547 0.29893 0.0
C68 C 0.12255 0.30912 0.16927 0.0
C69 C 0.02803 0.30521 0.31229 0.0
N70 N 0.02567 0.2722 0.24186 0.0
C71 C 0.99714 0.31529 0.4041 0.0
H72 H 0.13872 0.33118 0.22843 0.0
H73 H 0.11995 0.3209 0.07375 0.0
H74 H 0.1396 0.28111 0.16654 0.0
H75 H 0.99849 0.34709 0.42961 0.0
H76 H 1.00234 0.29726 0.48883 0.0
H77 H 0.96682 0.30775 0.36643 0.0
C78 C 0.27071 0.04715 0.25648 0.0
N79 N 0.2993 0.02022 0.21979 0.0
N80 N 0.24263 0.03011 0.33329 0.0
C81 C 0.27134 0.09031 0.22243 0.0
C82 C 0.25535 0.99217 0.34035 0.0
N83 N 0.28858 0.98624 0.27468 0.0
C84 C 0.23911 0.96179 0.42925 0.0
H85 H 0.29179 0.10642 0.28768 0.0
H86 H 0.24128 0.1034 0.22858 0.0
H87 H 0.28255 0.09438 0.12833 0.0
H88 H 0.20747 0.96725 0.44856 0.0
H89 H 0.25626 0.96372 0.5182 0.0
H90 H 0.24245 0.93122 0.39387 0.0
C91 C 0.51024 0.25608 0.1768 0.0
N92 N 0.52178 0.29588 0.1714 0.0
N93 N 0.51572 0.23975 0.29501 0.0
C94 C 0.49407 0.23332 0.06791 0.0
C95 C 0.52945 0.27175 0.35909 0.0
N96 N 0.5349 0.30352 0.28506 0.0
C97 C 0.53914 0.27218 0.49599 0.0
H98 H 0.49558 0.20084 0.08545 0.0
H99 H 0.51058 0.24119 0.98459 0.0
H100 H 0.46247 0.24165 0.04972 0.0
H101 H 0.57199 0.27252 0.51243 0.0
H102 H 0.52589 0.24635 0.54408 0.0
H103 H 0.52773 0.29962 0.53729 0.0
Eu104 Eu 1.00749 0.03925 0.72042 0.0
Eu105 Eu 0.06371 1.01008 0.91827 0.0
C106 C 0.04625 0.10855 0.91516 0.0
C107 C 0.93917 0.07356 0.44685 0.0
C108 C 0.91594 0.10782 0.44595 0.0
C109 C 0.96159 0.08989 0.24442 0.0
C110 C 0.92001 0.13541 0.35203 0.0
C111 C 0.95882 0.06266 0.34063 0.0
C112 C 0.94691 0.12819 0.25908 0.0
C113 C 0.94822 0.05452 0.56489 0.0
O114 O 1.00551 1.00921 0.03136 0.0
O115 O 0.96333 0.01974 0.86866 0.0
C116 C 0.96835 1.01248 0.98721 0.0
O117 O 0.02255 0.97632 0.6448 0.0
O118 O 0.08257 0.97734 0.08243 0.0
O119 O 0.12462 0.0168 0.99352 0.0
O120 O 0.04752 0.94895 0.82083 0.0
C121 C 0.03434 0.94377 0.70455 0.0
O122 O 0.06581 0.05553 0.62204 0.0
O123 O 0.10446 0.01699 0.74883 0.0
O124 O 0.05915 0.07677 0.9768 0.0
O125 O 0.96906 0.02219 0.56378 0.0
O126 O 0.96001 0.07822 0.65373 0.0
O127 O 0.02763 0.10138 0.8065 0.0
C128 C 0.15037 0.96437 0.1182 0.0
C129 C 0.16817 0.9403 0.03123 0.0
C130 C 0.16846 0.91795 0.27892 0.0
C131 C 0.18234 0.9029 0.06819 0.0
C132 C 0.15452 0.95492 0.24308 0.0
C133 C 0.17549 0.88968 0.1889 0.0
C134 C 0.11879 0.99198 0.08361 0.0
C135 C 0.10099 0.03908 0.64725 0.0
H136 H 0.8992 0.11577 0.52542 0.0
H137 H 0.98077 0.08342 0.16917 0.0
H138 H 0.90729 0.16459 0.36294 0.0
H139 H 0.9755 0.03534 0.33695 0.0
H140 H 0.16579 0.94761 0.93405 0.0
H141 H 0.16453 0.90896 0.37376 0.0
H142 H 0.18934 0.88171 0.99786 0.0
H143 H 0.14111 0.97307 0.31155 0.0
Eu144 Eu 0.54136 0.05875 0.87111 0.0
Eu145 Eu 0.50956 0.99884 0.68898 0.0
C146 C 0.5455 0.96694 0.9653 0.0
C147 C 0.56743 0.14176 0.11047 0.0
C148 C 0.57549 0.11627 0.20979 0.0
C149 C 0.62588 0.18112 0.16156 0.0
C150 C 0.6116 0.12062 0.27474 0.0
C151 C 0.58891 0.17755 0.0999 0.0
C152 C 0.63909 0.14952 0.23603 0.0
C153 C 0.55477 0.1238 0.99512 0.0
O154 O 0.45115 1.01405 0.79597 0.0
O155 O 0.48339 0.03767 0.96588 0.0
C156 C 0.44921 0.02563 0.91304 0.0
O157 O 0.52058 0.09856 0.71006 0.0
O158 O 0.51498 0.93854 0.61983 0.0
O159 O 0.4718 0.97904 0.53405 0.0
O160 O 0.50746 0.05397 0.56028 0.0
C161 C 0.51155 0.09124 0.59439 0.0
O162 O 0.602 0.04342 0.77896 0.0
O163 O 0.57502 1.00692 0.62277 0.0
O164 O 0.5238 0.96016 0.8629 0.0
O165 O 0.5822 0.10374 0.94126 0.0
O166 O 0.52015 0.1062 0.98792 0.0
O167 O 0.55952 1.00341 0.9858 0.0
C168 C 0.46369 0.91102 0.48813 0.0
C169 C 0.45381 0.90953 0.36224 0.0
C170 C 0.41154 0.86328 0.52652 0.0
C171 C 0.42005 0.88866 0.32142 0.0
C172 C 0.44506 0.88486 0.56902 0.0
C173 C 0.39486 0.87154 0.40822 0.0
C174 C 0.48847 0.94422 0.53093 0.0
C175 C 0.60732 0.02386 0.67466 0.0
H176 H 0.55838 0.08906 0.22099 0.0
H177 H 0.64653 0.20409 0.13311 0.0
H178 H 0.62135 0.09644 0.33477 0.0
H179 H 0.58192 0.19812 0.0252 0.0
H180 H 0.46897 0.92843 0.29749 0.0
H181 H 0.39534 0.84546 0.59144 0.0
H182 H 0.40984 0.89343 0.22682 0.0
H183 H 0.45385 0.88394 0.66586 0.0
Eu184 Eu 0.50406 0.54412 0.88148 0.0
Eu185 Eu 0.57504 0.52468 0.73035 0.0
C186 C 0.59342 0.55193 1.00546 0.0
C187 C 0.41189 0.59338 0.98871 0.0
C188 C 0.42415 0.62714 0.92378 0.0
C189 C 0.37826 0.63519 0.1298 0.0
C190 C 0.41806 0.66457 0.97286 0.0
C191 C 0.38413 0.59752 0.0804 0.0
C192 C 0.40111 0.66711 0.08868 0.0
C193 C 0.43887 0.55955 0.99513 0.0
O194 O 0.56506 0.46451 0.84051 0.0
O195 O 0.50272 0.4759 0.90178 0.0
C196 C 0.53265 0.45104 0.89557 0.0
O197 O 0.47671 0.53954 0.68832 0.0
O198 O 0.62838 0.49028 0.70251 0.0
O199 O 0.62203 0.54756 0.61515 0.0
O200 O 0.52367 0.50299 0.59608 0.0
C201 C 0.48674 0.51687 0.59721 0.0
O202 O 0.52141 0.60679 0.79747 0.0
O203 O 0.55517 0.58333 0.63702 0.0
O204 O 0.60086 0.56061 0.89158 0.0
O205 O 0.43946 0.5377 0.89729 0.0
O206 O 0.47484 0.56789 0.03864 0.0
O207 O 0.55742 0.53735 0.02509 0.0
C208 C 0.65609 0.49841 0.51204 0.0
C209 C 0.63052 0.50214 0.40765 0.0
C210 C 0.67309 0.43228 0.45378 0.0
C211 C 0.62278 0.46904 0.33534 0.0
C212 C 0.68177 0.46592 0.52337 0.0
C213 C 0.64042 0.43293 0.3698 0.0
C214 C 0.64351 0.51578 0.62589 0.0
C215 C 0.53863 0.6138 0.69032 0.0
H216 H 0.44502 0.62428 0.8516 0.0
H217 H 0.36277 0.63832 0.21409 0.0
H218 H 0.43465 0.68955 0.93639 0.0
H219 H 0.37273 0.57153 0.12659 0.0
H220 H 0.61145 0.52772 0.39446 0.0
H221 H 0.68735 0.40454 0.47936 0.0
H222 H 0.5981 0.46986 0.26809 0.0
H223 H 0.70253 0.46337 0.60176 0.0
Eu224 Eu 0.05103 0.55894 0.72797 0.0
Eu225 Eu 0.02586 0.49281 0.89701 0.0
C226 C 0.12222 0.5223 0.9087 0.0
C227 C 0.09852 0.64946 0.58462 0.0
C228 C 0.1335 0.64148 0.65429 0.0
C229 C 0.13685 0.66359 0.40667 0.0
C230 C 0.16929 0.63918 0.59463 0.0
C231 C 0.10114 0.66608 0.46692 0.0
C232 C 0.16907 0.64496 0.46687 0.0
C233 C 0.06338 0.6254 0.60867 0.0
O234 O 1.00425 0.54774 1.00773 0.0
O235 O 0.04536 0.59076 0.91354 0.0
C236 C 1.02029 0.58396 1.00175 0.0
O237 O 0.98438 0.54961 0.66702 0.0
O238 O 1.01364 0.46279 0.06873 0.0
O239 O 0.02248 0.42801 0.90659 0.0
O240 O 0.96296 0.50715 0.81445 0.0
C241 C 0.95469 0.52966 0.71659 0.0
O242 O 0.0718 0.50453 0.61289 0.0
O243 O 0.03408 0.45987 0.71389 0.0
O244 O 0.09223 0.50353 0.96109 0.0
O245 O 0.06296 0.59034 0.5584 0.0
O246 O 0.05281 0.62381 0.72214 0.0
O247 O 0.11408 0.54382 0.80848 0.0
C248 C 0.97745 0.40389 0.04887 0.0
C249 C 0.94139 0.41364 0.98783 0.0
C250 C 0.94263 0.38656 0.2317 0.0
C251 C 0.90699 0.41483 0.05479 0.0
C252 C 0.97701 0.38509 0.16399 0.0
C253 C 0.90969 0.40672 0.18145 0.0
C254 C 1.01259 0.42738 0.02079 0.0
C255 C 0.05753 0.4676 0.62188 0.0
H256 H 0.13204 0.62978 0.74688 0.0
H257 H 0.13692 0.66852 0.30823 0.0
H258 H 0.19465 0.62563 0.64258 0.0
H259 H 0.07457 0.67325 0.41369 0.0
H260 H 0.94114 0.42723 0.89737 0.0
H261 H 0.94442 0.37979 0.32913 0.0
H262 H 0.88096 0.42944 1.01426 0.0
H263 H 1.00452 0.37669 0.21029 0.0
C264 C 0.21256 0.04602 0.53916 0.0
C265 C 0.20905 0.04525 0.40772 0.0
C266 C 0.13452 0.04612 0.42967 0.0
C267 C 0.13792 0.04492 0.56221 0.0
N268 N 0.18253 0.05795 0.73659 0.0
N269 N 0.16612 0.05642 0.23165 0.0
C270 C 0.17774 0.0489 0.61461 0.0
C271 C 0.1698 0.04951 0.35499 0.0
N272 N 0.24984 0.04342 0.5927 0.0
N273 N 0.0978 0.04101 0.373 0.0
H274 H 0.19057 0.05613 0.17511 0.0
H275 H 0.13971 0.06589 0.18828 0.0
H276 H 0.07194 0.03534 0.42019 0.0
H277 H 0.09313 0.03882 0.27823 0.0
H278 H 0.25535 0.03784 0.68608 0.0
H279 H 0.27534 0.04525 0.54081 0.0
H280 H 0.21001 0.06462 0.77955 0.0
H281 H 0.15857 0.06356 0.79208 0.0
C282 C 0.47828 0.17731 0.36481 0.0
C283 C 0.5149 0.19851 0.34826 0.0
C284 C 0.54893 0.14699 0.4836 0.0
C285 C 0.51229 0.12632 0.50148 0.0
N286 N 0.44116 0.12499 0.47139 0.0
N287 N 0.58525 0.20305 0.39809 0.0
C288 C 0.47683 0.14209 0.44347 0.0
C289 C 0.55013 0.18281 0.40947 0.0
N290 N 0.44443 0.19164 0.30787 0.0
N291 N 0.58323 0.13158 0.53613 0.0
H292 H 0.58856 0.22561 0.33372 0.0
H293 H 0.61094 0.19856 0.45245 0.0
H294 H 0.58394 0.10478 0.58462 0.0
H295 H 0.61171 0.14338 0.52698 0.0
H296 H 0.41733 0.17634 0.30273 0.0
H297 H 0.44397 0.21868 0.26067 0.0
H298 H 0.41351 0.13695 0.44691 0.0
H299 H 0.43922 0.09944 0.52589 0.0
C300 C 0.39887 0.4755 0.38487 0.0
C301 C 0.38043 0.51172 0.34556 0.0
C302 C 0.44018 0.5474 0.43614 0.0
C303 C 0.45555 0.51225 0.49107 0.0
N304 N 0.44543 0.44265 0.5302 0.0
N305 N 0.38154 0.58305 0.37065 0.0
C306 C 0.43409 0.47604 0.46707 0.0
C307 C 0.40085 0.54784 0.38036 0.0
N308 N 0.38178 0.44046 0.3479 0.0
N309 N 0.46304 0.58124 0.43999 0.0
H310 H 0.35312 0.5854 0.3316 0.0
H311 H 0.39227 0.60921 0.41127 0.0
H312 H 0.49232 0.58156 0.47577 0.0
H313 H 0.45445 0.60775 0.39744 0.0
H314 H 0.3952 0.41301 0.36307 0.0
H315 H 0.35544 0.43939 0.29384 0.0
H316 H 0.42887 0.4163 0.52888 0.0
H317 H 0.47044 0.44225 0.59022 0.0
C318 C 0.07419 0.40098 0.32425 0.0
C319 C 0.07462 0.36157 0.37451 0.0
C320 C 0.07726 0.39377 0.58353 0.0
C321 C 0.06809 0.43239 0.53349 0.0
N322 N 0.06013 0.4718 0.34862 0.0
N323 N 0.08252 0.32186 0.5565 0.0
C324 C 0.06805 0.43572 0.40158 0.0
C325 C 0.07819 0.35877 0.50573 0.0
N326 N 0.08032 0.40534 0.20182 0.0
N327 N 0.0877 0.39079 0.70593 0.0
H328 H 0.08842 0.29726 0.50259 0.0
H329 H 0.07933 0.31549 0.64947 0.0
H330 H 0.09047 0.41548 0.76302 0.0
H331 H 0.0979 0.36485 0.74852 0.0
H332 H 0.0866 0.43257 0.16041 0.0
H333 H 0.08261 0.38096 0.14406 0.0
H334 H 0.05753 0.47659 0.25426 0.0
H335 H 0.05408 0.49699 0.3993 0.0
C336 C 0.88073 0.97622 0.20368 0.0
C337 C 0.85843 1.01171 0.22121 0.0
C338 C 0.90527 0.04512 0.07598 0.0
C339 C 0.93089 1.01154 0.07077 0.0
N340 N 0.94295 0.94499 0.14398 0.0
N341 N 0.85918 0.08255 0.19645 0.0
C342 C 0.91876 0.97727 0.14058 0.0
C343 C 0.87412 0.04675 0.16442 0.0
N344 N 0.86454 0.94095 0.23995 0.0
N345 N 0.91094 0.07666 0.99867 0.0
H346 H 0.83982 0.08522 0.26841 0.0
H347 H 0.86858 0.10957 0.16025 0.0
H348 H 0.93566 0.07992 0.94412 0.0
H349 H 0.88939 0.09838 0.9834 0.0
H350 H 0.87666 0.91346 0.22033 0.0
H351 H 0.83687 0.9393 0.28042 0.0
H352 H 0.93813 0.92042 0.20017 0.0
H353 H 0.96926 0.94399 0.09587 0.0
C354 C 0.55382 0.90205 0.27045 0.0
C355 C 0.55624 0.86278 0.22439 0.0
C356 C 0.56364 0.89338 1.01515 0.0
C357 C 0.55337 0.932 0.05807 0.0
N358 N 0.53754 0.97161 0.23401 0.0
N359 N 0.56597 0.82153 0.04999 0.0
C360 C 0.54919 0.93603 0.18826 0.0
C361 C 0.56241 0.85889 0.0958 0.0
N362 N 0.55581 0.90707 0.39436 0.0
N363 N 0.57642 0.8898 0.89788 0.0
H364 H 0.56819 0.79664 0.10751 0.0
H365 H 0.56494 0.81505 0.95645 0.0
H366 H 0.57988 0.91415 0.83921 0.0
H367 H 0.58763 0.86366 0.86286 0.0
H368 H 0.56215 0.93452 0.43432 0.0
H369 H 0.55457 0.88325 0.45589 0.0
H370 H 0.53064 0.97581 0.3255 0.0
H371 H 0.53128 0.9964 0.17928 0.0
C372 C 0.68808 0.51346 0.18511 0.0
C373 C 0.70295 0.54714 0.2529 0.0
C374 C 0.64073 0.582 0.17803 0.0
C375 C 0.62905 0.54962 0.09952 0.0
N376 N 0.64861 0.48758 1.01228 0.0
N377 N 0.69486 0.61675 0.29158 0.0
C378 C 0.65501 0.51651 0.09822 0.0
C379 C 0.67936 0.58229 0.24422 0.0
N380 N 0.70464 0.47731 0.20774 0.0
N381 N 0.61504 0.61279 0.18874 0.0
H382 H 0.72324 0.61821 0.33387 0.0
H383 H 0.68125 0.64423 0.27922 0.0
H384 H 0.58754 0.61364 0.14061 0.0
H385 H 0.61953 0.63549 0.25241 0.0
H386 H 0.69455 0.4512 0.16614 0.0
H387 H 0.72527 0.47285 0.27946 0.0
H388 H 0.66933 0.46568 0.9946 0.0
H389 H 0.62424 0.48756 0.95078 0.0
C390 C 1.00532 0.6521 0.29545 0.0
C391 C 1.006 0.69118 0.24299 0.0
C392 C 1.00112 0.65782 0.03613 0.0
C393 C 1.00988 0.61947 0.08816 0.0
N394 N 1.01706 0.58073 0.27441 0.0
N395 N 0.99817 0.73 0.05893 0.0
C396 C 1.01017 0.61678 0.21997 0.0
C397 C 1.00147 0.69328 0.11178 0.0
N398 N 0.99914 0.64863 0.418 0.0
N399 N 0.99019 0.66013 0.91399 0.0
H400 H 0.99414 0.75524 0.11181 0.0
H401 H 1.00063 0.73557 0.96522 0.0
H402 H 0.98681 0.63502 0.85875 0.0
H403 H 0.98022 0.68596 0.87021 0.0
H404 H 0.99773 0.67342 0.47435 0.0
H405 H 0.99194 0.62182 0.46055 0.0
H406 H 1.02019 0.57648 0.36896 0.0
H407 H 0.02149 0.55497 0.22448 0.0
C408 C 0.96658 0.2338 0.17783 0.0
C409 C 0.99935 0.23951 0.26083 0.0
C410 C 1.00617 0.16925 0.29354 0.0
C411 C 0.97068 0.16261 0.22115 0.0
N412 N 0.91655 0.18803 0.09347 0.0
N413 N 0.04131 0.21523 0.42737 0.0
C414 C 0.95069 0.19491 0.16223 0.0
C415 C 1.01528 0.20796 0.33072 0.0
N416 N 0.952 0.26547 0.1121 0.0
N417 N 0.03201 0.13926 0.32361 0.0
H418 H 0.04918 0.24393 0.45408 0.0
H419 H 0.05148 0.19305 0.48784 0.0
H420 H 0.0304 0.11126 0.28438 0.0
H421 H 0.05907 0.14395 0.37182 0.0
H422 H 0.93052 0.26314 0.04089 0.0
H423 H 0.963 0.29424 0.12703 0.0
H424 H 0.89819 0.21037 0.05775 0.0
H425 H 0.9066 0.15927 0.07408 0.0
C426 C 0.33286 0.95264 0.42339 0.0
C427 C 0.31436 0.95335 0.30429 0.0
C428 C 0.33317 0.88387 0.2786 0.0
C429 C 0.35268 0.88468 0.39621 0.0
N430 N 0.34266 0.90992 0.59949 0.0
N431 N 0.28546 0.91319 0.13815 0.0
C432 C 0.3434 0.91586 0.47559 0.0
C433 C 0.31074 0.91715 0.23769 0.0
N434 N 0.33777 0.98654 0.49004 0.0
N435 N 0.33689 0.85165 0.20524 0.0
H436 H 0.266 0.9355 0.1081 0.0
H437 H 0.266 0.9355 0.1081 0.0
H438 H 0.35338 0.82703 0.23501 0.0
H439 H 0.32377 0.85029 0.11671 0.0
H440 H 0.35317 0.98712 0.57522 0.0
H441 H 0.32906 1.01409 0.45551 0.0
H442 H 0.33349 0.93184 0.65925 0.0
H443 H 0.34504 0.88163 0.63842 0.0
C444 C 0.6019 0.33236 0.26923 0.0
C445 C 0.56268 0.33464 0.31298 0.0
C446 C 0.57861 0.39613 0.41642 0.0
C447 C 0.61572 0.39716 0.35686 0.0
N448 N 0.66335 0.36712 0.22637 0.0
N449 N 0.51181 0.36882 0.41745 0.0
C450 C 0.6278 0.36536 0.28375 0.0
C451 C 0.55047 0.36665 0.38337 0.0
N452 N 0.61447 0.29823 0.21668 0.0
N453 N 0.57108 0.4222 0.50836 0.0
H454 H 0.49102 0.34607 0.40069 0.0
H455 H 0.49982 0.39422 0.45437 0.0
H456 H 0.59239 0.44212 0.54365 0.0
H457 H 0.54541 0.42117 0.55925 0.0
H458 H 0.64399 0.29297 0.1958 0.0
H459 H 0.59568 0.27393 0.20068 0.0
H460 H 0.67132 0.34722 0.15887 0.0
H461 H 0.68436 0.38964 0.24258 0.0
C462 C 0.2538 0.60183 0.29672 0.0
C463 C 0.24503 0.56084 0.31453 0.0
C464 C 0.18082 0.57701 0.39178 0.0
C465 C 0.19269 0.6177 0.39586 0.0
N466 N 0.24008 0.66968 0.3538 0.0
N467 N 0.20007 0.50938 0.38227 0.0
C468 C 0.2289 0.63055 0.34715 0.0
C469 C 0.20864 0.54841 0.36198 0.0
N470 N 0.28557 0.61307 0.23005 0.0
N471 N 0.14309 0.56534 0.41901 0.0
H472 H 0.21998 0.48647 0.36696 0.0
H473 H 0.21998 0.48647 0.36696 0.0
H474 H 0.12045 0.5856 0.42999 0.0
H475 H 0.13396 0.53557 0.41952 0.0
H476 H 0.29073 0.64221 0.2015 0.0
H477 H 0.30453 0.59243 0.19341 0.0
H478 H 0.26845 0.68005 0.33314 0.0
H479 H 0.22145 0.69157 0.38648 0.0
C480 C 0.13185 0.80371 0.36166 0.0
C481 C 0.09207 0.80719 0.31605 0.0
C482 C 0.11388 0.85097 0.15194 0.0
C483 C 0.15264 0.85247 0.2082 0.0
N484 N 0.19987 0.83007 0.36418 0.0
N485 N 0.046 0.83094 0.15577 0.0
C486 C 0.16229 0.82811 0.31167 0.0
C487 C 0.08334 0.82984 0.20869 0.0
N488 N 0.13961 0.77495 0.44749 0.0
N489 N 0.10619 0.87213 0.04646 0.0
H490 H 0.02146 0.81596 0.19001 0.0
H491 H 0.02146 0.81596 0.19001 0.0
H492 H 0.0783 0.87336 1.00047 0.0
H493 H 0.0783 0.87336 1.00047 0.0
H494 H 0.16803 0.76739 0.48112 0.0
H495 H 0.16803 0.76739 0.48112 0.0
H496 H 0.20793 0.81717 0.44864 0.0
H497 H 0.22271 0.84637 0.32393 0.0
C498 C 0.70006 0.06899 0.16465 0.0
C499 C 0.72865 0.06976 0.26209 0.0
C500 C 0.70694 0.13563 0.32044 0.0
C501 C 0.67926 0.13456 0.22054 0.0
N502 N 0.66523 0.11004 1.01527 0.0
N503 N 0.76988 0.1107 0.3993 0.0
C504 C 0.68178 0.10476 0.13028 0.0
C505 C 0.73565 0.10533 0.33006 0.0
N506 N 0.68961 0.03424 0.10791 0.0
N507 N 0.7048 0.16443 0.40732 0.0
H508 H 0.79217 0.08945 0.40487 0.0
H509 H 0.77727 0.13749 0.44239 0.0
H510 H 0.68458 0.18774 0.39773 0.0
H511 H 0.72188 0.1639 0.48943 0.0
H512 H 0.66642 0.03231 0.0415 0.0
H513 H 0.70229 1.00721 0.13487 0.0
H514 H 0.66787 0.08906 0.94596 0.0
H515 H 0.65345 0.13725 0.98661 0.0
C516 C 0.49084 0.71179 0.23756 0.0
C517 C 0.47575 0.74434 0.30071 0.0
C518 C 0.40749 0.7232 0.24278 0.0
C519 C 0.42374 0.69037 0.18301 0.0
N520 N 0.47816 0.64383 0.18843 0.0
N521 N 0.41999 0.77669 0.38831 0.0
C522 C 0.46457 0.68136 0.20257 0.0
C523 C 0.43391 0.7483 0.31307 0.0
N524 N 0.5293 0.71125 0.20132 0.0
N525 N 0.36772 0.73091 0.22905 0.0
H526 H 0.43942 0.79615 0.43501 0.0
H527 H 0.39008 0.77924 0.40925 0.0
H528 H 0.34812 0.71236 0.17882 0.0
H529 H 0.35455 0.75617 0.26342 0.0
H530 H 0.54025 0.68855 0.14748 0.0
H531 H 0.54831 0.73572 0.21072 0.0
H532 H 0.50786 0.6361 0.20685 0.0
H533 H 0.45834 0.62006 0.17987 0.0
C534 C 0.82376 0.45279 0.33462 0.0
C535 C 0.83534 0.49321 0.31827 0.0
C536 C 0.90165 0.47327 0.27029 0.0
C537 C 0.88788 0.43324 0.26044 0.0
N538 N 0.83642 0.38399 0.2852 0.0
N539 N 0.88617 0.5416 0.26855 0.0
C540 C 0.84918 0.42254 0.29517 0.0
C541 C 0.87433 0.50332 0.28679 0.0
N542 N 0.78893 0.44358 0.3894 0.0
N543 N 0.94048 0.48412 0.25793 0.0
H544 H 0.86698 0.56572 0.27271 0.0
H545 H 0.86698 0.56572 0.27271 0.0
H546 H 0.96365 0.46396 0.25136 0.0
H547 H 0.96365 0.46396 0.25136 0.0
H548 H 0.78033 0.41476 0.4127 0.0
H549 H 0.77048 0.46533 0.4227 0.0
H550 H 0.80686 0.37505 0.29478 0.0
H551 H 0.85549 0.36112 0.26194 0.0
C552 C 0.08733 0.19873 0.13028 0.0
C553 C 0.06383 0.2325 0.09484 0.0
C554 C 0.02791 0.18599 0.94312 0.0
C555 C 0.05327 0.1525 0.97188 0.0
N556 N 0.11694 0.13617 0.07053 0.0
N557 N 1.01902 0.25831 0.93895 0.0
C558 C 0.08571 0.16169 0.05927 0.0
C559 C 0.03686 0.22587 0.99148 0.0
N560 N 0.11064 0.20114 0.23528 0.0
N561 N 0.99314 0.1799 0.87658 0.0
H562 H 0.02472 0.28692 0.97234 0.0
H563 H 1.00197 0.2571 0.85694 0.0
H564 H 0.98324 0.15197 0.84801 0.0
H565 H 0.97171 0.20185 0.86313 0.0
H566 H 0.125 0.17664 0.27503 0.0
H567 H 0.11268 0.227 0.28751 0.0
H568 H 0.14263 0.14237 0.12413 0.0
H569 H 0.11973 0.11174 1.01339 0.0
C570 C 0.36993 0.04772 0.17319 0.0
C571 C 0.3351 0.025 0.13867 0.0
C572 C 0.37495 1.00016 0.96174 0.0
C573 C 0.40882 0.02586 0.98847 0.0
N574 N 0.42857 0.084 0.10686 0.0
N575 N 0.30269 0.99093 0.96981 0.0
C576 C 0.40348 0.05215 0.09137 0.0
C577 C 0.33734 1.00449 0.0243 0.0
N578 N 0.3716 0.06549 0.28522 0.0
N579 N 0.3785 0.96979 0.88079 0.0
H580 H 0.27511 0.99675 1.00709 0.0
H581 H 0.30118 0.97872 0.88186 0.0
H582 H 0.40501 0.96333 0.83879 0.0
H583 H 0.35637 0.94807 0.86802 0.0
H584 H 0.39795 0.07733 0.32364 0.0
H585 H 0.34748 0.06555 0.34271 0.0
H586 H 0.42481 0.10569 0.17327 0.0
H587 H 0.44912 0.09218 0.0419 0.0
C588 C 0.49417 0.36209 0.10343 0.0
C589 C 0.51835 0.32892 0.07729 0.0
C590 C 0.54889 0.37314 0.91603 0.0
C591 C 0.52906 0.40824 0.95763 0.0
N592 N 0.49147 0.43349 0.12615 0.0
N593 N 0.5723 0.30547 0.9598 0.0
C594 C 0.50377 0.40177 0.06025 0.0
C595 C 0.54667 0.33533 0.98358 0.0
N596 N 0.46172 0.35575 0.17302 0.0
N597 N 0.56891 0.37498 0.80924 0.0
H598 H 0.56987 0.27756 1.0011 0.0
H599 H 0.59698 0.30915 0.90524 0.0
H600 H 0.57095 0.40074 0.75663 0.0
H601 H 0.58019 0.35005 0.76683 0.0
H602 H 0.44069 0.37763 0.18797 0.0
H603 H 0.45416 0.32738 0.20487 0.0
H604 H 0.47587 0.43033 0.20693 0.0
H605 H 0.50191 0.46234 0.11204 0.0
C606 C 0.23388 0.5482 1.01399 0.0
C607 C 0.24656 0.51431 0.0833 0.0
C608 C 0.18146 0.48236 1.0146 0.0
C609 C 0.16587 0.51912 0.96571 0.0
N610 N 0.17836 0.58968 0.94656 0.0
N611 N 0.23047 0.44831 0.14949 0.0
C612 C 0.19265 0.55264 0.972 0.0
C613 C 0.21965 0.48118 0.08283 0.0
N614 N 0.26179 0.57591 0.98413 0.0
N615 N 0.16076 0.44791 0.99148 0.0
H616 H 0.25851 0.44601 0.1938 0.0
H617 H 0.211 0.42481 0.16719 0.0
H618 H 0.13452 0.44687 0.93721 0.0
H619 H 0.17171 0.41989 1.01454 0.0
H620 H 0.25552 0.60012 0.92653 0.0
H621 H 0.29207 0.57122 1.00387 0.0
H622 H 0.19553 0.61541 0.95954 0.0
H623 H 0.14819 0.595 0.92825 0.0
C624 C 0.99974 0.8544 0.47723 0.0
C625 C 0.02802 0.82328 0.50137 0.0
C626 C 0.06103 0.87041 0.65637 0.0
C627 C 0.03186 0.90131 0.63755 0.0
N628 N 0.96633 0.91405 0.54712 0.0
N629 N 0.08223 0.8029 0.63948 0.0
C630 C 0.99942 0.89072 0.55195 0.0
C631 C 0.05712 0.83185 0.59799 0.0
N632 N 0.97322 0.85005 0.38022 0.0
N633 N 0.09435 0.87642 0.72925 0.0
H634 H 0.08021 0.77362 0.6091 0.0
H635 H 0.08021 0.77362 0.6091 0.0
H636 H 0.1018 0.90326 0.77148 0.0
H637 H 0.1018 0.90326 0.77148 0.0
H638 H 0.95487 0.87275 0.34724 0.0
H639 H 0.97126 0.82431 0.32792 0.0
H640 H 0.94016 0.90666 0.4976 0.0
H641 H 0.96297 0.93824 0.60478 0.0
C642 C 0.72104 0.04337 0.57425 0.0
C643 C 0.72714 1.0148 0.47989 0.0
C644 C 0.65941 0.98723 0.53475 0.0
C645 C 0.64992 0.0203 0.61214 0.0
N646 N 0.67432 0.08477 0.68069 0.0
N647 N 0.6968 0.9616 0.36359 0.0
C648 C 0.68171 0.0495 0.62549 0.0
C649 C 0.6945 0.98765 0.45837 0.0
N650 N 0.75328 0.06427 0.61907 0.0
N651 N 0.63653 0.95355 0.53955 0.0
H652 H 0.72233 0.95935 0.31204 0.0
H653 H 0.6726 0.94433 0.33201 0.0
H654 H 0.61409 0.94964 0.6024 0.0
H655 H 0.6434 0.92754 0.49377 0.0
H656 H 0.7522 0.08295 0.69489 0.0
H657 H 0.78188 0.05904 0.58881 0.0
H658 H 0.69464 0.10843 0.68192 0.0
H659 H 0.64652 0.09225 0.71225 0.0
C660 C 0.50947 0.72207 0.57267 0.0
C661 C 0.54086 0.7339 0.49415 0.0
C662 C 0.57459 0.67075 0.56551 0.0
C663 C 0.53984 0.65606 0.626 0.0
N664 N 0.4697 0.66698 0.64806 0.0
N665 N 0.60176 0.7127 0.40402 0.0
C666 C 0.50616 0.68176 0.61943 0.0
C667 C 0.57308 0.70632 0.48767 0.0
N668 N 0.48283 0.74991 0.60572 0.0
N669 N 0.60997 0.65169 0.58557 0.0
H670 H 0.60139 0.73687 0.34401 0.0
H671 H 0.62384 0.69217 0.3868 0.0
H672 H 0.61316 0.62776 0.64634 0.0
H673 H 0.63696 0.66255 0.55394 0.0
H674 H 0.46074 0.74412 0.66869 0.0
H675 H 0.48649 0.77978 0.58177 0.0
H676 H 0.44357 0.68333 0.63669 0.0
H677 H 0.4652 0.63679 0.66495 0.0
C678 C 0.84222 0.50682 0.6121 0.0
C679 C 0.83095 0.54129 0.5433 0.0
C680 C 0.89745 0.57044 0.60963 0.0
C681 C 0.91116 0.53345 0.65998 0.0
N682 N 0.89596 0.46355 0.68328 0.0
N683 N 0.84753 0.60586 0.47691 0.0
C684 C 0.88312 0.50098 0.6556 0.0
C685 C 0.85871 0.57342 0.54451 0.0
N686 N 0.81327 0.4798 0.63858 0.0
N687 N 0.92206 0.60241 0.62825 0.0
H688 H 0.86574 0.63041 0.46035 0.0
H689 H 0.86574 0.63041 0.46035 0.0
H690 H 0.91506 0.63162 0.60416 0.0
H691 H 0.91506 0.63162 0.60416 0.0
H692 H 0.81825 0.45524 0.69583 0.0
H693 H 0.78333 0.48528 0.6156 0.0
H694 H 0.87795 0.43836 0.67128 0.0
H695 H 0.92584 0.45716 0.70276 0.0
loop_
_geom_bond_atom_site_label_1
_geom_bond_atom_site_label_2
_geom_bond_distance
_geom_bond_site_symmetry_2
_ccdc_geom_bond_type
C0 N1 1.317 . S
C0 N2 1.348 . S
C0 C3 1.485 . S
N1 C0 1.317 . S
N1 N5 1.370 . S
N2 C0 1.348 . S
N2 C4 1.346 . S
C3 C0 1.485 . S
C3 H7 0.960 . S
C3 H8 0.961 . S
C3 H9 0.960 . S
C4 N2 1.346 . S
C4 N5 1.307 . S
C4 C6 1.486 . S
N5 N1 1.370 . S
N5 C4 1.307 . S
C6 C4 1.486 . S
C6 H10 0.960 . S
C6 H11 0.960 . S
C6 H12 0.959 . S
H7 C3 0.960 . S
H8 C3 0.961 . S
H9 C3 0.960 . S
H10 C6 0.960 . S
H11 C6 0.960 . S
H12 C6 0.959 . S
C13 N14 1.317 . S
C13 N15 1.348 . S
C13 C16 1.485 . S
N14 C13 1.317 . S
N14 N18 1.370 . S
N15 C13 1.348 . S
N15 C17 1.346 . S
C16 C13 1.485 . S
C16 H20 0.960 1_655 S
C16 H21 0.961 . S
C16 H22 0.960 . S
C17 N15 1.346 . S
C17 N18 1.307 . S
C17 C19 1.486 . S
N18 N14 1.370 . S
N18 C17 1.307 . S
C19 C17 1.486 . S
C19 H23 0.960 . S
C19 H24 0.960 1_655 S
C19 H25 0.959 . S
H20 C16 0.960 1_455 S
H21 C16 0.961 . S
H22 C16 0.960 . S
H23 C19 0.960 . S
H24 C19 0.960 1_455 S
H25 C19 0.959 . S
C26 N27 1.317 . S
C26 N28 1.348 . S
C26 C29 1.485 . S
N27 C26 1.317 . S
N27 N31 1.370 . S
N28 C26 1.348 . S
N28 C30 1.346 . S
C29 C26 1.485 . S
C29 H33 0.960 1_565 S
C29 H34 0.961 . S
C29 H35 0.960 . S
C30 N28 1.346 . S
C30 N31 1.307 . S
C30 C32 1.486 . S
N31 N27 1.370 . S
N31 C30 1.307 . S
C32 C30 1.486 . S
C32 H36 0.960 . S
C32 H37 0.960 1_565 S
C32 H38 0.959 . S
H33 C29 0.960 1_545 S
H34 C29 0.961 . S
H35 C29 0.960 . S
H36 C32 0.960 . S
H37 C32 0.960 1_545 S
H38 C32 0.959 . S
C39 N40 1.317 . S
C39 N41 1.348 . S
C39 C42 1.485 . S
N40 C39 1.317 . S
N40 N44 1.370 . S
N41 C39 1.348 . S
N41 C43 1.346 . S
C42 C39 1.485 . S
C42 H46 0.960 . S
C42 H47 0.961 . S
C42 H48 0.960 . S
C43 N41 1.346 . S
C43 N44 1.307 . S
C43 C45 1.486 . S
N44 N40 1.370 . S
N44 C43 1.307 . S
C45 C43 1.486 . S
C45 H49 0.960 . S
C45 H50 0.960 . S
C45 H51 0.959 . S
H46 C42 0.960 . S
H47 C42 0.961 . S
H48 C42 0.960 . S
H49 C45 0.960 . S
H50 C45 0.960 . S
H51 C45 0.959 . S
C52 N53 1.317 . S
C52 N54 1.348 . S
C52 C55 1.485 1_554 S
N53 C52 1.317 . S
N53 N57 1.370 . S
N54 C52 1.348 . S
N54 C56 1.346 . S
C55 C52 1.485 1_556 S
C55 H59 0.960 . S
C55 H60 0.961 . S
C55 H61 0.960 . S
C56 N54 1.346 . S
C56 N57 1.307 . S
C56 C58 1.486 . S
N57 N53 1.370 . S
N57 C56 1.307 . S
C58 C56 1.486 . S
C58 H62 0.960 . S
C58 H63 0.960 . S
C58 H64 0.959 . S
H59 C55 0.960 . S
H60 C55 0.961 . S
H61 C55 0.960 . S
H62 C58 0.960 . S
H63 C58 0.960 . S
H64 C58 0.959 . S
C65 N66 1.317 . S
C65 N67 1.348 1_556 S
C65 C68 1.485 . S
N66 C65 1.317 . S
N66 N70 1.370 1_556 S
N67 C65 1.348 1_554 S
N67 C69 1.346 . S
C68 C65 1.485 . S
C68 H72 0.960 . S
C68 H73 0.961 . S
C68 H74 0.960 . S
C69 N67 1.346 . S
C69 N70 1.307 . S
C69 C71 1.486 . S
N70 N66 1.370 1_554 S
N70 C69 1.307 . S
C71 C69 1.486 . S
C71 H75 0.960 . S
C71 H76 0.960 . S
C71 H77 0.959 . S
H72 C68 0.960 . S
H73 C68 0.961 . S
H74 C68 0.960 . S
H75 C71 0.960 . S
H76 C71 0.960 . S
H77 C71 0.959 . S
C78 N79 1.317 . S
C78 N80 1.348 1_556 S
C78 C81 1.485 . S
N79 C78 1.317 . S
N79 N83 1.370 1_556 S
N80 C78 1.348 1_554 S
N80 C82 1.346 . S
C81 C78 1.485 . S
C81 H85 0.960 . S
C81 H86 0.961 . S
C81 H87 0.960 . S
C82 N80 1.346 . S
C82 N83 1.307 . S
C82 C84 1.486 . S
N83 N79 1.370 1_554 S
N83 C82 1.307 . S
C84 C82 1.486 . S
C84 H88 0.960 . S
C84 H89 0.960 . S
C84 H90 0.959 . S
H85 C81 0.960 . S
H86 C81 0.961 . S
H87 C81 0.960 . S
H88 C84 0.960 . S
H89 C84 0.960 . S
H90 C84 0.959 . S
C91 N92 1.317 . S
C91 N93 1.348 . S
C91 C94 1.485 1_554 S
N92 C91 1.317 . S
N92 N96 1.370 . S
N93 C91 1.348 . S
N93 C95 1.346 . S
C94 C91 1.485 1_556 S
C94 H98 0.960 . S
C94 H99 0.961 . S
C94 H100 0.960 . S
C95 N93 1.346 . S
C95 N96 1.307 . S
C95 C97 1.486 . S
N96 N92 1.370 . S
N96 C95 1.307 . S
C97 C95 1.486 . S
C97 H101 0.960 . S
C97 H102 0.960 . S
C97 H103 0.959 . S
H98 C94 0.960 . S
H99 C94 0.961 . S
H100 C94 0.960 . S
H101 C97 0.960 . S
H102 C97 0.960 . S
H103 C97 0.959 . S
Eu104 C113 2.828 . S
Eu104 O115 2.392 . S
Eu104 O117 2.418 1_545 S
Eu104 O122 2.373 1_655 S
Eu104 O125 2.488 . S
Eu104 O126 2.471 . S
Eu104 O127 2.349 1_655 S
Eu105 O114 2.373 1_455 S
Eu105 O118 2.488 1_556 S
Eu105 O119 2.471 . S
Eu105 O120 2.349 . S
Eu105 O123 2.392 1_565 S
Eu105 O124 2.418 1_565 S
Eu105 C134 2.828 1_556 S
C106 O124 1.244 . S
C106 O127 1.265 . S
C107 C108 1.379 1_655 S
C107 C111 1.373 . S
C107 C113 1.505 . S
C108 C107 1.379 1_455 S
C108 C110 1.369 . S
C108 H136 0.930 . S
C109 C111 1.383 . S
C109 C112 1.382 . S
C109 H137 0.930 . S
C110 C108 1.369 . S
C110 C112 1.392 1_455 S
C110 H138 0.930 . S
C111 C107 1.373 . S
C111 C109 1.383 . S
C111 H139 0.931 . S
C112 C109 1.382 . S
C112 C110 1.392 1_655 S
C113 Eu104 2.828 . S
C113 C107 1.505 . S
C113 O125 1.249 . S
C113 O126 1.244 . S
O114 Eu105 2.373 1_655 S
O114 C116 1.255 1_565 S
O115 Eu104 2.392 . S
O115 C116 1.248 . S
C116 O114 1.255 1_545 S
C116 O115 1.248 . S
O117 Eu104 2.418 1_565 S
O117 C121 1.244 . S
O118 Eu105 2.488 1_554 S
O118 C134 1.249 . S
O119 Eu105 2.471 . S
O119 C134 1.244 1_556 S
O120 Eu105 2.349 . S
O120 C121 1.265 1_455 S
C121 O117 1.244 . S
C121 O120 1.265 1_655 S
O122 Eu104 2.373 1_455 S
O122 C135 1.258 . S
O123 Eu105 2.392 1_545 S
O123 C135 1.242 . S
O124 Eu105 2.418 1_545 S
O124 C106 1.244 . S
O125 Eu104 2.488 . S
O125 C113 1.249 . S
O126 Eu104 2.471 . S
O126 C113 1.244 . S
O127 Eu104 2.349 1_455 S
O127 C106 1.265 . S
C128 C129 1.379 . S
C128 C132 1.373 . S
C128 C134 1.505 . S
C129 C128 1.379 . S
C129 C131 1.369 . S
C129 H140 0.930 . S
C130 C132 1.383 . S
C130 C133 1.382 . S
C130 H141 0.930 . S
C131 C129 1.369 . S
C131 C133 1.392 . S
C131 H142 0.930 1_455 S
C132 C128 1.373 . S
C132 C130 1.383 . S
C132 H143 0.931 . S
C133 C130 1.382 . S
C133 C131 1.392 . S
C134 Eu105 2.828 1_554 S
C134 O118 1.249 . S
C134 O119 1.244 1_554 S
C134 C128 1.505 . S
C135 O122 1.258 . S
C135 O123 1.242 . S
H136 C108 0.930 . S
H137 C109 0.930 . S
H138 C110 0.930 . S
H139 C111 0.931 . S
H140 C129 0.930 . S
H141 C130 0.930 . S
H142 C131 0.930 1_655 S
H143 C132 0.931 . S
Eu144 C153 2.828 1_556 S
Eu144 O155 2.392 . S
Eu144 O157 2.418 . S
Eu144 O162 2.373 . S
Eu144 O165 2.488 . S
Eu144 O166 2.471 1_556 S
Eu144 O167 2.349 1_545 S
Eu145 O154 2.373 1_565 S
Eu145 O158 2.488 . S
Eu145 O159 2.467 1_565 S
Eu145 O160 2.349 1_565 S
Eu145 O163 2.392 . S
Eu145 O164 2.418 . S
Eu145 C174 2.828 . S
C146 O164 1.244 . S
C146 O167 1.265 . S
C147 C148 1.379 . S
C147 C151 1.373 . S
C147 C153 1.505 . S
C148 C147 1.379 . S
C148 C150 1.369 . S
C148 H176 0.930 1_545 S
C149 C151 1.383 . S
C149 C152 1.382 . S
C149 H177 0.930 . S
C150 C148 1.369 . S
C150 C152 1.392 . S
C150 H178 0.930 1_545 S
C151 C147 1.373 . S
C151 C149 1.383 . S
C151 H179 0.931 . S
C152 C149 1.382 . S
C152 C150 1.392 . S
C153 Eu144 2.828 1_554 S
C153 C147 1.505 . S
C153 O165 1.249 1_554 S
C153 O166 1.244 . S
O154 Eu145 2.373 1_545 S
O154 C156 1.258 . S
O155 Eu144 2.392 . S
O155 C156 1.242 . S
C156 O154 1.258 . S
C156 O155 1.242 . S
O157 Eu144 2.418 . S
O157 C161 1.244 . S
O158 Eu145 2.488 . S
O158 C174 1.249 . S
O159 Eu145 2.467 1_545 S
O159 C174 1.233 1_545 S
O160 Eu145 2.349 1_545 S
O160 C161 1.265 . S
C161 O157 1.244 . S
C161 O160 1.265 . S
O162 Eu144 2.373 . S
O162 C175 1.258 1_545 S
O163 Eu145 2.392 . S
O163 C175 1.242 . S
O164 Eu145 2.418 . S
O164 C146 1.244 . S
O165 Eu144 2.488 . S
O165 C153 1.249 1_556 S
O166 Eu144 2.471 1_554 S
O166 C153 1.244 . S
O167 Eu144 2.349 1_565 S
O167 C146 1.265 . S
C168 C169 1.379 1_565 S
C168 C172 1.373 . S
C168 C174 1.505 . S
C169 C168 1.379 1_545 S
C169 C171 1.369 . S
C169 H180 0.930 . S
C170 C172 1.383 . S
C170 C173 1.382 . S
C170 H181 0.930 . S
C171 C169 1.369 . S
C171 C173 1.392 1_545 S
C171 H182 0.930 . S
C172 C168 1.373 . S
C172 C170 1.383 . S
C172 H183 0.931 . S
C173 C170 1.382 . S
C173 C171 1.392 1_565 S
C174 Eu145 2.828 . S
C174 O158 1.249 . S
C174 O159 1.233 1_565 S
C174 C168 1.505 . S
C175 O162 1.258 1_565 S
C175 O163 1.242 . S
H176 C148 0.930 1_565 S
H177 C149 0.930 . S
H178 C150 0.930 1_565 S
H179 C151 0.931 . S
H180 C169 0.930 . S
H181 C170 0.930 . S
H182 C171 0.930 . S
H183 C172 0.931 . S
Eu184 C193 2.828 1_556 S
Eu184 O195 2.392 . S
Eu184 O197 2.418 . S
Eu184 O202 2.373 . S
Eu184 O205 2.488 . S
Eu184 O206 2.471 1_556 S
Eu184 O207 2.349 . S
Eu185 O194 2.373 . S
Eu185 O198 2.488 . S
Eu185 O199 2.471 . S
Eu185 O200 2.349 . S
Eu185 O203 2.392 . S
Eu185 O204 2.418 . S
Eu185 C214 2.828 . S
C186 O204 1.244 . S
C186 O207 1.265 . S
C187 C188 1.379 . S
C187 C191 1.373 . S
C187 C193 1.505 . S
C188 C187 1.379 . S
C188 C190 1.369 . S
C188 H216 0.930 . S
C189 C191 1.383 . S
C189 C192 1.382 . S
C189 H217 0.930 . S
C190 C188 1.369 . S
C190 C192 1.392 . S
C190 H218 0.930 . S
C191 C187 1.373 . S
C191 C189 1.383 . S
C191 H219 0.931 . S
C192 C189 1.382 . S
C192 C190 1.392 . S
C193 Eu184 2.828 1_554 S
C193 C187 1.505 . S
C193 O205 1.249 1_554 S
C193 O206 1.244 . S
O194 Eu185 2.373 . S
O194 C196 1.258 . S
O195 Eu184 2.392 . S
O195 C196 1.242 . S
C196 O194 1.258 . S
C196 O195 1.242 . S
O197 Eu184 2.418 . S
O197 C201 1.244 . S
O198 Eu185 2.488 . S
O198 C214 1.249 . S
O199 Eu185 2.471 . S
O199 C214 1.244 . S
O200 Eu185 2.349 . S
O200 C201 1.265 . S
C201 O197 1.244 . S
C201 O200 1.265 . S
O202 Eu184 2.373 . S
O202 C215 1.258 . S
O203 Eu185 2.392 . S
O203 C215 1.242 . S
O204 Eu185 2.418 . S
O204 C186 1.244 . S
O205 Eu184 2.488 . S
O205 C193 1.249 1_556 S
O206 Eu184 2.471 1_554 S
O206 C193 1.244 . S
O207 Eu184 2.349 . S
O207 C186 1.265 . S
C208 C209 1.379 . S
C208 C212 1.373 . S
C208 C214 1.505 . S
C209 C208 1.379 . S
C209 C211 1.369 . S
C209 H220 0.930 . S
C210 C212 1.383 . S
C210 C213 1.382 . S
C210 H221 0.930 . S
C211 C209 1.369 . S
C211 C213 1.392 . S
C211 H222 0.930 . S
C212 C208 1.373 . S
C212 C210 1.383 . S
C212 H223 0.931 . S
C213 C210 1.382 . S
C213 C211 1.392 . S
C214 Eu185 2.828 . S
C214 O198 1.249 . S
C214 O199 1.244 . S
C214 C208 1.505 . S
C215 O202 1.258 . S
C215 O203 1.242 . S
H216 C188 0.930 . S
H217 C189 0.930 . S
H218 C190 0.930 . S
H219 C191 0.931 . S
H220 C209 0.930 . S
H221 C210 0.930 . S
H222 C211 0.930 . S
H223 C212 0.931 . S
Eu224 C233 2.828 . S
Eu224 O235 2.392 . S
Eu224 O237 2.418 1_455 S
Eu224 O242 2.373 . S
Eu224 O245 2.488 . S
Eu224 O246 2.471 . S
Eu224 O247 2.349 . S
Eu225 O234 2.373 . S
Eu225 O238 2.488 1_556 S
Eu225 O239 2.471 . S
Eu225 O240 2.349 . S
Eu225 O243 2.392 1_655 S
Eu225 O244 2.418 1_655 S
Eu225 C254 2.828 1_556 S
C226 O244 1.244 . S
C226 O247 1.265 . S
C227 C228 1.379 . S
C227 C231 1.373 . S
C227 C233 1.505 . S
C228 C227 1.379 . S
C228 C230 1.369 . S
C228 H256 0.930 . S
C229 C231 1.383 . S
C229 C232 1.382 . S
C229 H257 0.930 . S
C230 C228 1.369 . S
C230 C232 1.392 . S
C230 H258 0.930 . S
C231 C227 1.373 . S
C231 C229 1.383 . S
C231 H259 0.931 . S
C232 C229 1.382 . S
C232 C230 1.392 . S
C233 Eu224 2.828 . S
C233 C227 1.505 . S
C233 O245 1.249 . S
C233 O246 1.244 . S
O234 Eu225 2.373 . S
O234 C236 1.255 1_655 S
O235 Eu224 2.392 . S
O235 C236 1.252 . S
C236 O234 1.255 1_455 S
C236 O235 1.252 . S
O237 Eu224 2.418 1_655 S
O237 C241 1.244 . S
O238 Eu225 2.488 1_554 S
O238 C254 1.249 . S
O239 Eu225 2.471 . S
O239 C254 1.244 1_556 S
O240 Eu225 2.349 . S
O240 C241 1.265 . S
C241 O237 1.244 . S
C241 O240 1.265 . S
O242 Eu224 2.373 . S
O242 C255 1.258 . S
O243 Eu225 2.392 1_455 S
O243 C255 1.242 . S
O244 Eu225 2.418 1_455 S
O244 C226 1.244 . S
O245 Eu224 2.488 . S
O245 C233 1.249 . S
O246 Eu224 2.471 . S
O246 C233 1.244 . S
O247 Eu224 2.349 . S
O247 C226 1.265 . S
C248 C249 1.379 . S
C248 C252 1.373 . S
C248 C254 1.505 . S
C249 C248 1.379 . S
C249 C251 1.369 . S
C249 H260 0.930 . S
C250 C252 1.383 . S
C250 C253 1.382 . S
C250 H261 0.930 . S
C251 C249 1.369 . S
C251 C253 1.392 . S
C251 H262 0.930 . S
C252 C248 1.373 . S
C252 C250 1.383 . S
C252 H263 0.931 . S
C253 C250 1.382 . S
C253 C251 1.392 . S
C254 Eu225 2.828 1_554 S
C254 O238 1.249 . S
C254 O239 1.244 1_554 S
C254 C248 1.505 . S
C255 O242 1.258 . S
C255 O243 1.242 . S
H256 C228 0.930 . S
H257 C229 0.930 . S
H258 C230 0.930 . S
H259 C231 0.931 . S
H260 C249 0.930 . S
H261 C250 0.930 . S
H262 C251 0.930 . S
H263 C252 0.931 . S
C264 C265 1.363 . S
C264 C270 1.379 . S
C264 N272 1.356 . S
C265 C264 1.363 . S
C265 C271 1.363 . S
C266 C267 1.364 1_565 S
C266 C271 1.379 1_565 S
C266 N273 1.356 . S
C267 C266 1.364 1_545 S
C267 C270 1.363 . S
N268 C270 1.356 . S
N268 H280 0.984 . S
N268 H281 0.985 . S
N269 C271 1.356 1_565 S
N269 H274 0.984 . S
N269 H275 0.985 . S
C270 C264 1.379 . S
C270 C267 1.363 . S
C270 N268 1.356 . S
C271 C265 1.363 . S
C271 C266 1.379 1_545 S
C271 N269 1.356 1_545 S
N272 C264 1.356 . S
N272 H278 0.984 . S
N272 H279 0.984 . S
N273 C266 1.356 . S
N273 H276 0.984 . S
N273 H277 0.985 . S
H274 N269 0.984 . S
H275 N269 0.985 . S
H276 N273 0.984 . S
H277 N273 0.985 . S
H278 N272 0.984 . S
H279 N272 0.984 . S
H280 N268 0.984 . S
H281 N268 0.985 . S
C282 C283 1.363 . S
C282 C288 1.379 . S
C282 N290 1.356 . S
C283 C282 1.363 . S
C283 C289 1.363 . S
C284 C285 1.363 . S
C284 C289 1.379 . S
C284 N291 1.356 . S
C285 C284 1.363 . S
C285 C288 1.363 . S
N286 C288 1.356 . S
N286 H298 0.984 . S
N286 H299 0.985 . S
N287 C289 1.356 . S
N287 H292 0.984 . S
N287 H293 0.985 . S
C288 C282 1.379 . S
C288 C285 1.363 . S
C288 N286 1.356 . S
C289 C283 1.363 . S
C289 C284 1.379 . S
C289 N287 1.356 . S
N290 C282 1.356 . S
N290 H296 0.984 . S
N290 H297 0.984 . S
N291 C284 1.356 . S
N291 H294 0.984 . S
N291 H295 0.985 . S
H292 N287 0.984 . S
H293 N287 0.985 . S
H294 N291 0.984 . S
H295 N291 0.985 . S
H296 N290 0.984 . S
H297 N290 0.984 . S
H298 N286 0.984 . S
H299 N286 0.985 . S
C300 C301 1.363 . S
C300 C306 1.379 . S
C300 N308 1.356 . S
C301 C300 1.363 . S
C301 C307 1.363 . S
C302 C303 1.363 . S
C302 C307 1.379 . S
C302 N309 1.356 . S
C303 C302 1.363 . S
C303 C306 1.363 . S
N304 C306 1.356 . S
N304 H316 0.984 . S
N304 H317 0.985 . S
N305 C307 1.356 . S
N305 H310 0.984 . S
N305 H311 0.985 . S
C306 C300 1.379 . S
C306 C303 1.363 . S
C306 N304 1.356 . S
C307 C301 1.363 . S
C307 C302 1.379 . S
C307 N305 1.356 . S
N308 C300 1.356 . S
N308 H314 0.984 . S
N308 H315 0.984 . S
N309 C302 1.356 . S
N309 H312 0.984 . S
N309 H313 0.985 . S
H310 N305 0.984 . S
H311 N305 0.985 . S
H312 N309 0.984 . S
H313 N309 0.985 . S
H314 N308 0.984 . S
H315 N308 0.984 . S
H316 N304 0.984 . S
H317 N304 0.985 . S
C318 C319 1.363 . S
C318 C324 1.379 . S
C318 N326 1.356 . S
C319 C318 1.363 . S
C319 C325 1.363 . S
C320 C321 1.363 . S
C320 C325 1.379 . S
C320 N327 1.356 . S
C321 C320 1.363 . S
C321 C324 1.363 . S
N322 C324 1.356 . S
N322 H334 0.984 1_455 S
N322 H335 0.985 . S
N323 C325 1.356 . S
N323 H328 0.984 . S
N323 H329 0.985 . S
C324 C318 1.379 . S
C324 C321 1.363 . S
C324 N322 1.356 . S
C325 C319 1.363 . S
C325 C320 1.379 . S
C325 N323 1.356 . S
N326 C318 1.356 . S
N326 H332 0.984 . S
N326 H333 0.984 . S
N327 C320 1.356 . S
N327 H330 0.984 . S
N327 H331 0.985 . S
H328 N323 0.984 . S
H329 N323 0.985 . S
H330 N327 0.984 . S
H331 N327 0.985 . S
H332 N326 0.984 . S
H333 N326 0.984 . S
H334 N322 0.984 1_655 S
H335 N322 0.985 . S
C336 C337 1.363 . S
C336 C342 1.379 . S
C336 N344 1.356 . S
C337 C336 1.363 . S
C337 C343 1.363 1_565 S
C338 C339 1.363 1_545 S
C338 C343 1.379 . S
C338 N345 1.356 . S
C339 C338 1.363 1_565 S
C339 C342 1.363 . S
N340 C342 1.356 . S
N340 H352 0.984 . S
N340 H353 0.985 . S
N341 C343 1.356 . S
N341 H346 0.984 . S
N341 H347 0.985 . S
C342 C336 1.379 . S
C342 C339 1.363 . S
C342 N340 1.356 . S
C343 C337 1.363 1_545 S
C343 C338 1.379 . S
C343 N341 1.356 . S
N344 C336 1.356 . S
N344 H350 0.984 . S
N344 H351 0.984 . S
N345 C338 1.356 . S
N345 H348 0.984 1_554 S
N345 H349 0.985 . S
H346 N341 0.984 . S
H347 N341 0.985 . S
H348 N345 0.984 1_556 S
H349 N345 0.985 . S
H350 N344 0.984 . S
H351 N344 0.984 . S
H352 N340 0.984 . S
H353 N340 0.985 . S
C354 C355 1.363 . S
C354 C360 1.379 . S
C354 N362 1.356 . S
C355 C354 1.363 . S
C355 C361 1.363 . S
C356 C357 1.363 . S
C356 C361 1.379 . S
C356 N363 1.356 . S
C357 C356 1.363 . S
C357 C360 1.363 . S
N358 C360 1.356 . S
N358 H370 0.984 . S
N358 H371 0.985 . S
N359 C361 1.356 . S
N359 H364 0.984 . S
N359 H365 0.985 . S
C360 C354 1.379 . S
C360 C357 1.363 . S
C360 N358 1.356 . S
C361 C355 1.363 . S
C361 C356 1.379 . S
C361 N359 1.356 . S
N362 C354 1.356 . S
N362 H368 0.984 . S
N362 H369 0.984 . S
N363 C356 1.356 . S
N363 H366 0.984 1_554 S
N363 H367 0.985 . S
H364 N359 0.984 . S
H365 N359 0.985 . S
H366 N363 0.984 1_556 S
H367 N363 0.985 . S
H368 N362 0.984 . S
H369 N362 0.984 . S
H370 N358 0.984 . S
H371 N358 0.985 . S
C372 C373 1.363 . S
C372 C378 1.379 . S
C372 N380 1.356 . S
C373 C372 1.363 . S
C373 C379 1.363 . S
C374 C375 1.363 . S
C374 C379 1.379 . S
C374 N381 1.356 . S
C375 C374 1.363 . S
C375 C378 1.363 . S
N376 C378 1.356 . S
N376 H388 0.984 . S
N376 H389 0.985 1_554 S
N377 C379 1.356 . S
N377 H382 0.984 . S
N377 H383 0.985 . S
C378 C372 1.379 . S
C378 C375 1.363 . S
C378 N376 1.356 . S
C379 C373 1.363 . S
C379 C374 1.379 . S
C379 N377 1.356 . S
N380 C372 1.356 . S
N380 H386 0.984 . S
N380 H387 0.984 . S
N381 C374 1.356 . S
N381 H384 0.984 . S
N381 H385 0.985 . S
H382 N377 0.984 . S
H383 N377 0.985 . S
H384 N381 0.984 . S
H385 N381 0.985 . S
H386 N380 0.984 . S
H387 N380 0.984 . S
H388 N376 0.984 . S
H389 N376 0.985 1_556 S
C390 C391 1.363 1_455 S
C390 C396 1.379 . S
C390 N398 1.356 . S
C391 C390 1.363 1_655 S
C391 C397 1.363 . S
C392 C393 1.363 . S
C392 C397 1.379 . S
C392 N399 1.356 1_554 S
C393 C392 1.363 . S
C393 C396 1.363 1_655 S
N394 C396 1.356 . S
N394 H406 0.984 . S
N394 H407 0.985 . S
N395 C397 1.356 . S
N395 H400 0.984 . S
N395 H401 0.985 . S
C396 C390 1.379 . S
C396 C393 1.363 1_455 S
C396 N394 1.356 . S
C397 C391 1.363 . S
C397 C392 1.379 . S
C397 N395 1.356 . S
N398 C390 1.356 . S
N398 H404 0.984 . S
N398 H405 0.984 . S
N399 C392 1.356 1_556 S
N399 H402 0.984 . S
N399 H403 0.985 . S
H400 N395 0.984 . S
H401 N395 0.985 . S
H402 N399 0.984 . S
H403 N399 0.985 . S
H404 N398 0.984 . S
H405 N398 0.984 . S
H406 N394 0.984 . S
H407 N394 0.985 . S
C408 C409 1.363 . S
C408 C414 1.379 1_455 S
C408 N416 1.356 1_554 S
C409 C408 1.363 . S
C409 C415 1.363 . S
C410 C411 1.363 1_455 S
C410 C415 1.379 . S
C410 N417 1.356 . S
C411 C410 1.363 1_655 S
C411 C414 1.363 . S
N412 C414 1.356 1_556 S
N412 H424 0.984 . S
N412 H425 0.985 . S
N413 C415 1.356 . S
N413 H418 0.984 . S
N413 H419 0.985 . S
C414 C408 1.379 1_655 S
C414 C411 1.363 . S
C414 N412 1.356 1_554 S
C415 C409 1.363 . S
C415 C410 1.379 . S
C415 N413 1.356 . S
N416 C408 1.356 1_556 S
N416 H422 0.984 1_455 S
N416 H423 0.984 1_556 S
N417 C410 1.356 . S
N417 H420 0.984 . S
N417 H421 0.985 . S
H418 N413 0.984 . S
H419 N413 0.985 . S
H420 N417 0.984 . S
H421 N417 0.985 . S
H422 N416 0.984 1_655 S
H423 N416 0.984 1_554 S
H424 N412 0.984 . S
H425 N412 0.985 . S
C426 C427 1.363 . S
C426 C432 1.379 . S
C426 N434 1.356 . S
C427 C426 1.363 . S
C427 C433 1.363 1_545 S
C428 C429 1.363 . S
C428 C433 1.379 . S
C428 N435 1.356 . S
C429 C428 1.363 . S
C429 C432 1.363 1_565 S
N430 C432 1.356 . S
N430 H442 0.984 . S
N430 H443 0.985 1_545 S
N431 C433 1.356 . S
N431 H436 0.984 1_565 S
N431 H437 0.985 . S
C432 C426 1.379 . S
C432 C429 1.363 1_545 S
C432 N430 1.356 . S
C433 C427 1.363 1_565 S
C433 C428 1.379 . S
C433 N431 1.356 . S
N434 C426 1.356 . S
N434 H440 0.984 . S
N434 H441 0.984 . S
N435 C428 1.356 . S
N435 H438 0.984 . S
N435 H439 0.985 . S
H436 N431 0.984 1_545 S
H437 N431 0.985 . S
H438 N435 0.984 . S
H439 N435 0.985 . S
H440 N434 0.984 . S
H441 N434 0.984 . S
H442 N430 0.984 . S
H443 N430 0.985 1_565 S
C444 C445 1.363 . S
C444 C450 1.379 . S
C444 N452 1.356 . S
C445 C444 1.363 . S
C445 C451 1.363 . S
C446 C447 1.363 . S
C446 C451 1.379 . S
C446 N453 1.356 . S
C447 C446 1.363 . S
C447 C450 1.363 . S
N448 C450 1.356 . S
N448 H460 0.984 . S
N448 H461 0.985 . S
N449 C451 1.356 . S
N449 H454 0.984 . S
N449 H455 0.985 . S
C450 C444 1.379 . S
C450 C447 1.363 . S
C450 N448 1.356 . S
C451 C445 1.363 . S
C451 C446 1.379 . S
C451 N449 1.356 . S
N452 C444 1.356 . S
N452 H458 0.984 . S
N452 H459 0.984 . S
N453 C446 1.356 . S
N453 H456 0.984 . S
N453 H457 0.985 . S
H454 N449 0.984 . S
H455 N449 0.985 . S
H456 N453 0.984 . S
H457 N453 0.985 . S
H458 N452 0.984 . S
H459 N452 0.984 . S
H460 N448 0.984 . S
H461 N448 0.985 . S
C462 C463 1.363 . S
C462 C468 1.379 . S
C462 N470 1.356 . S
C463 C462 1.363 . S
C463 C469 1.363 . S
C464 C465 1.363 . S
C464 C469 1.379 . S
C464 N471 1.356 1_554 S
C465 C464 1.363 . S
C465 C468 1.363 . S
N466 C468 1.356 . S
N466 H478 0.984 . S
N466 H479 0.985 . S
N467 C469 1.356 . S
N467 H472 0.984 . S
N467 H473 0.985 1_554 S
C468 C462 1.379 . S
C468 C465 1.363 . S
C468 N466 1.356 . S
C469 C463 1.363 . S
C469 C464 1.379 . S
C469 N467 1.356 . S
N470 C462 1.356 . S
N470 H476 0.984 . S
N470 H477 0.984 . S
N471 C464 1.356 1_556 S
N471 H474 0.984 . S
N471 H475 0.985 . S
H472 N467 0.984 . S
H473 N467 0.985 1_556 S
H474 N471 0.984 . S
H475 N471 0.985 . S
H476 N470 0.984 . S
H477 N470 0.984 . S
H478 N466 0.984 . S
H479 N466 0.985 . S
C480 C481 1.363 1_455 S
C480 C486 1.379 . S
C480 N488 1.356 . S
C481 C480 1.363 1_655 S
C481 C487 1.363 . S
C482 C483 1.363 . S
C482 C487 1.379 1_455 S
C482 N489 1.356 . S
C483 C482 1.363 . S
C483 C486 1.363 . S
N484 C486 1.356 . S
N484 H496 0.984 . S
N484 H497 0.985 . S
N485 C487 1.356 . S
N485 H490 0.984 . S
N485 H491 0.985 . S
C486 C480 1.379 . S
C486 C483 1.363 . S
C486 N484 1.356 . S
C487 C481 1.363 . S
C487 C482 1.379 1_655 S
C487 N485 1.356 . S
N488 C480 1.356 . S
N488 H494 0.984 . S
N488 H495 0.984 1_455 S
N489 C482 1.356 . S
N489 H492 0.984 . S
N489 H493 0.985 1_455 S
H490 N485 0.984 . S
H491 N485 0.985 . S
H492 N489 0.984 . S
H493 N489 0.985 1_655 S
H494 N488 0.984 . S
H495 N488 0.984 1_655 S
H496 N484 0.984 . S
H497 N484 0.985 . S
C498 C499 1.363 . S
C498 C504 1.379 1_565 S
C498 N506 1.356 . S
C499 C498 1.363 . S
C499 C505 1.363 1_565 S
C500 C501 1.363 . S
C500 C505 1.379 . S
C500 N507 1.356 . S
C501 C500 1.363 . S
C501 C504 1.363 . S
N502 C504 1.356 . S
N502 H514 0.984 1_545 S
N502 H515 0.985 . S
N503 C505 1.356 . S
N503 H508 0.984 . S
N503 H509 0.985 . S
C504 C498 1.379 1_545 S
C504 C501 1.363 . S
C504 N502 1.356 . S
C505 C499 1.363 1_545 S
C505 C500 1.379 . S
C505 N503 1.356 . S
N506 C498 1.356 . S
N506 H512 0.984 . S
N506 H513 0.984 . S
N507 C500 1.356 . S
N507 H510 0.984 . S
N507 H511 0.985 . S
H508 N503 0.984 . S
H509 N503 0.985 . S
H510 N507 0.984 . S
H511 N507 0.985 . S
H512 N506 0.984 . S
H513 N506 0.984 . S
H514 N502 0.984 1_565 S
H515 N502 0.985 . S
C516 C517 1.363 . S
C516 C522 1.379 . S
C516 N524 1.356 . S
C517 C516 1.363 . S
C517 C523 1.363 . S
C518 C519 1.363 . S
C518 C523 1.379 . S
C518 N525 1.356 . S
C519 C518 1.363 . S
C519 C522 1.363 . S
N520 C522 1.356 . S
N520 H532 0.984 . S
N520 H533 0.985 . S
N521 C523 1.356 . S
N521 H526 0.984 . S
N521 H527 0.985 . S
C522 C516 1.379 . S
C522 C519 1.363 . S
C522 N520 1.356 . S
C523 C517 1.363 . S
C523 C518 1.379 . S
C523 N521 1.356 . S
N524 C516 1.356 . S
N524 H530 0.984 . S
N524 H531 0.984 . S
N525 C518 1.356 . S
N525 H528 0.984 . S
N525 H529 0.985 . S
H526 N521 0.984 . S
H527 N521 0.985 . S
H528 N525 0.984 . S
H529 N525 0.985 . S
H530 N524 0.984 . S
H531 N524 0.984 . S
H532 N520 0.984 . S
H533 N520 0.985 . S
C534 C535 1.363 . S
C534 C540 1.379 . S
C534 N542 1.356 . S
C535 C534 1.363 . S
C535 C541 1.363 . S
C536 C537 1.363 . S
C536 C541 1.379 . S
C536 N543 1.356 . S
C537 C536 1.363 . S
C537 C540 1.363 . S
N538 C540 1.356 . S
N538 H550 0.984 . S
N538 H551 0.985 . S
N539 C541 1.356 . S
N539 H544 0.984 . S
N539 H545 0.985 . S
C540 C534 1.379 . S
C540 C537 1.363 . S
C540 N538 1.356 . S
C541 C535 1.363 . S
C541 C536 1.379 . S
C541 N539 1.356 . S
N542 C534 1.356 . S
N542 H548 0.984 . S
N542 H549 0.984 . S
N543 C536 1.356 . S
N543 H546 0.984 . S
N543 H547 0.985 . S
H544 N539 0.984 . S
H545 N539 0.985 . S
H546 N543 0.984 . S
H547 N543 0.985 . S
H548 N542 0.984 . S
H549 N542 0.984 . S
H550 N538 0.984 . S
H551 N538 0.985 . S
C552 C553 1.363 1_554 S
C552 C558 1.379 . S
C552 N560 1.356 . S
C553 C552 1.363 1_556 S
C553 C559 1.363 . S
C554 C555 1.363 . S
C554 C559 1.379 . S
C554 N561 1.356 . S
C555 C554 1.363 . S
C555 C558 1.363 1_556 S
N556 C558 1.356 . S
N556 H568 0.984 . S
N556 H569 0.985 . S
N557 C559 1.356 . S
N557 H562 0.984 . S
N557 H563 0.985 1_455 S
C558 C552 1.379 . S
C558 C555 1.363 1_554 S
C558 N556 1.356 . S
C559 C553 1.363 . S
C559 C554 1.379 . S
C559 N557 1.356 . S
N560 C552 1.356 . S
N560 H566 0.984 . S
N560 H567 0.984 . S
N561 C554 1.356 . S
N561 H564 0.984 . S
N561 H565 0.985 1_455 S
H562 N557 0.984 . S
H563 N557 0.985 1_655 S
H564 N561 0.984 . S
H565 N561 0.985 1_655 S
H566 N560 0.984 . S
H567 N560 0.984 . S
H568 N556 0.984 . S
H569 N556 0.985 . S
C570 C571 1.363 . S
C570 C576 1.379 . S
C570 N578 1.356 . S
C571 C570 1.363 . S
C571 C577 1.363 . S
C572 C573 1.363 . S
C572 C577 1.379 . S
C572 N579 1.356 1_545 S
C573 C572 1.363 . S
C573 C576 1.363 . S
N574 C576 1.356 . S
N574 H586 0.984 . S
N574 H587 0.985 . S
N575 C577 1.356 1_565 S
N575 H580 0.984 . S
N575 H581 0.985 1_556 S
C576 C570 1.379 . S
C576 C573 1.363 . S
C576 N574 1.356 . S
C577 C571 1.363 . S
C577 C572 1.379 . S
C577 N575 1.356 1_545 S
N578 C570 1.356 . S
N578 H584 0.984 . S
N578 H585 0.984 . S
N579 C572 1.356 1_565 S
N579 H582 0.984 . S
N579 H583 0.985 . S
H580 N575 0.984 . S
H581 N575 0.985 1_554 S
H582 N579 0.984 . S
H583 N579 0.985 . S
H584 N578 0.984 . S
H585 N578 0.984 . S
H586 N574 0.984 . S
H587 N574 0.985 . S
C588 C589 1.363 1_554 S
C588 C594 1.379 1_554 S
C588 N596 1.356 . S
C589 C588 1.363 1_556 S
C589 C595 1.363 . S
C590 C591 1.363 . S
C590 C595 1.379 . S
C590 N597 1.356 . S
C591 C590 1.363 . S
C591 C594 1.363 . S
N592 C594 1.356 1_554 S
N592 H604 0.984 . S
N592 H605 0.985 . S
N593 C595 1.356 . S
N593 H598 0.984 . S
N593 H599 0.985 . S
C594 C588 1.379 1_556 S
C594 C591 1.363 . S
C594 N592 1.356 1_556 S
C595 C589 1.363 . S
C595 C590 1.379 . S
C595 N593 1.356 . S
N596 C588 1.356 . S
N596 H602 0.984 . S
N596 H603 0.984 . S
N597 C590 1.356 . S
N597 H600 0.984 . S
N597 H601 0.985 . S
H598 N593 0.984 . S
H599 N593 0.985 . S
H600 N597 0.984 . S
H601 N597 0.985 . S
H602 N596 0.984 . S
H603 N596 0.984 . S
H604 N592 0.984 . S
H605 N592 0.985 . S
C606 C607 1.363 . S
C606 C612 1.379 . S
C606 N614 1.356 1_556 S
C607 C606 1.363 . S
C607 C613 1.363 . S
C608 C609 1.363 . S
C608 C613 1.379 . S
C608 N615 1.356 . S
C609 C608 1.363 . S
C609 C612 1.363 . S
N610 C612 1.356 . S
N610 H622 0.984 . S
N610 H623 0.985 . S
N611 C613 1.356 . S
N611 H616 0.984 . S
N611 H617 0.985 . S
C612 C606 1.379 . S
C612 C609 1.363 . S
C612 N610 1.356 . S
C613 C607 1.363 . S
C613 C608 1.379 . S
C613 N611 1.356 . S
N614 C606 1.356 1_554 S
N614 H620 0.984 . S
N614 H621 0.984 . S
N615 C608 1.356 . S
N615 H618 0.984 . S
N615 H619 0.985 . S
H616 N611 0.984 . S
H617 N611 0.985 . S
H618 N615 0.984 . S
H619 N615 0.985 . S
H620 N614 0.984 . S
H621 N614 0.984 . S
H622 N610 0.984 . S
H623 N610 0.985 . S
C624 C625 1.363 . S
C624 C630 1.379 . S
C624 N632 1.356 . S
C625 C624 1.363 . S
C625 C631 1.363 1_655 S
C626 C627 1.363 1_455 S
C626 C631 1.379 . S
C626 N633 1.356 . S
C627 C626 1.363 1_655 S
C627 C630 1.363 . S
N628 C630 1.356 . S
N628 H640 0.984 . S
N628 H641 0.985 . S
N629 C631 1.356 . S
N629 H634 0.984 . S
N629 H635 0.985 . S
C630 C624 1.379 . S
C630 C627 1.363 . S
C630 N628 1.356 . S
C631 C625 1.363 1_455 S
C631 C626 1.379 . S
C631 N629 1.356 . S
N632 C624 1.356 . S
N632 H638 0.984 . S
N632 H639 0.984 . S
N633 C626 1.356 . S
N633 H636 0.984 . S
N633 H637 0.985 . S
H634 N629 0.984 . S
H635 N629 0.985 . S
H636 N633 0.984 . S
H637 N633 0.985 . S
H638 N632 0.984 . S
H639 N632 0.984 . S
H640 N628 0.984 . S
H641 N628 0.985 . S
C642 C643 1.363 1_545 S
C642 C648 1.379 . S
C642 N650 1.356 . S
C643 C642 1.363 1_565 S
C643 C649 1.363 . S
C644 C645 1.363 . S
C644 C649 1.379 . S
C644 N651 1.356 . S
C645 C644 1.363 . S
C645 C648 1.363 1_565 S
N646 C648 1.356 . S
N646 H658 0.984 . S
N646 H659 0.985 . S
N647 C649 1.356 . S
N647 H652 0.984 . S
N647 H653 0.985 . S
C648 C642 1.379 . S
C648 C645 1.363 1_545 S
C648 N646 1.356 . S
C649 C643 1.363 . S
C649 C644 1.379 . S
C649 N647 1.356 . S
N650 C642 1.356 . S
N650 H656 0.984 . S
N650 H657 0.984 . S
N651 C644 1.356 . S
N651 H654 0.984 . S
N651 H655 0.985 . S
H652 N647 0.984 . S
H653 N647 0.985 . S
H654 N651 0.984 . S
H655 N651 0.985 . S
H656 N650 0.984 . S
H657 N650 0.984 . S
H658 N646 0.984 . S
H659 N646 0.985 . S
C660 C661 1.363 . S
C660 C666 1.379 . S
C660 N668 1.356 . S
C661 C660 1.363 . S
C661 C667 1.363 . S
C662 C663 1.363 . S
C662 C667 1.379 . S
C662 N669 1.356 . S
C663 C662 1.363 . S
C663 C666 1.363 . S
N664 C666 1.356 . S
N664 H676 0.984 . S
N664 H677 0.985 . S
N665 C667 1.356 . S
N665 H670 0.984 . S
N665 H671 0.985 . S
C666 C660 1.379 . S
C666 C663 1.363 . S
C666 N664 1.356 . S
C667 C661 1.363 . S
C667 C662 1.379 . S
C667 N665 1.356 . S
N668 C660 1.356 . S
N668 H674 0.984 . S
N668 H675 0.984 . S
N669 C662 1.356 . S
N669 H672 0.984 . S
N669 H673 0.985 . S
H670 N665 0.984 . S
H671 N665 0.985 . S
H672 N669 0.984 . S
H673 N669 0.985 . S
H674 N668 0.984 . S
H675 N668 0.984 . S
H676 N664 0.984 . S
H677 N664 0.985 . S
C678 C679 1.363 . S
C678 C684 1.379 . S
C678 N686 1.356 . S
C679 C678 1.363 . S
C679 C685 1.363 . S
C680 C681 1.363 . S
C680 C685 1.379 . S
C680 N687 1.356 . S
C681 C680 1.363 . S
C681 C684 1.363 . S
N682 C684 1.356 . S
N682 H694 0.984 . S
N682 H695 0.985 . S
N683 C685 1.356 . S
N683 H688 0.984 . S
N683 H689 0.985 . S
C684 C678 1.379 . S
C684 C681 1.363 . S
C684 N682 1.356 . S
C685 C679 1.363 . S
C685 C680 1.379 . S
C685 N683 1.356 . S
N686 C678 1.356 . S
N686 H692 0.984 . S
N686 H693 0.984 . S
N687 C680 1.356 . S
N687 H690 0.984 . S
N687 H691 0.985 . S
H688 N683 0.984 . S
H689 N683 0.985 . S
H690 N687 0.984 . S
H691 N687 0.985 . S
H692 N686 0.984 . S
H693 N686 0.984 . S
H694 N682 0.984 . S
H695 N682 0.985 . S
C265 N80 2.246 . S
C267 C135 2.418 . S
C285 C161 2.177 . S
C283 N93 1.978 . S
C303 C201 2.186 . S
C301 N54 2.016 . S
C321 C255 2.421 . S
C319 N67 2.267 . S
C339 C116 2.417 1_564 S
C337 N28 2.249 . S
C355 N41 1.972 . S
C357 C146 2.177 1_554 S
C373 N2 2.017 . S
C375 C186 2.186 1_554 S
C391 N15 2.273 . S
C393 C236 2.415 1_654 S
C411 C112 0.903 . S
C409 N70 0.944 . S
C429 C173 0.886 . S
C427 N83 0.881 . S
C447 C213 0.766 . S
C445 N96 0.767 . S
C463 N57 0.858 . S
C465 C232 0.830 . S
C481 N18 0.947 . S
C483 C133 0.903 . S
C501 C152 0.886 . S
C499 N31 0.885 . S
C519 C192 0.766 . S
C517 N44 0.767 . S
C535 N5 0.859 . S
C537 C253 0.830 . S
C553 N66 2.209 . S
C555 C106 2.374 . S
C571 N79 2.559 . S
C573 C156 2.668 . S
C591 C196 2.521 . S
C589 N92 2.425 1_556 S
C609 C226 2.212 . S
C607 N53 2.066 1_556 S
C625 N14 2.215 . S
C627 C121 2.374 . S
C645 C175 2.668 . S
C643 N27 2.555 . S
C663 C215 2.521 . S
C661 N40 2.405 . S
C679 N1 2.063 . S
C681 C241 2.212 . S
