# Generated by pormake.
# Topology tbo, (3,4)-cn, num edge types: 1
# Building blocks:
#     Node 0, Type 0, BuildingBlock: WUSLED_clean_sbu_0, # of connection points: 3
#     Node 1, Type 0, BuildingBlock: WUSLED_clean_sbu_0, # of connection points: 3
#     Node 2, Type 0, BuildingBlock: WUSLED_clean_sbu_0, # of connection points: 3
#     Node 3, Type 0, BuildingBlock: WUSLED_clean_sbu_0, # of connection points: 3
#     Node 4, Type 0, BuildingBlock: WUSLED_clean_sbu_0, # of connection points: 3
#     Node 5, Type 0, BuildingBlock: WUSLED_clean_sbu_0, # of connection points: 3
#     Node 6, Type 0, BuildingBlock: WUSLED_clean_sbu_0, # of connection points: 3
#     Node 7, Type 0, BuildingBlock: WUSLED_clean_sbu_0, # of connection points: 3
#     Node 8, Type 0, BuildingBlock: WUSLED_clean_sbu_0, # of connection points: 3
#     Node 9, Type 0, BuildingBlock: WUSLED_clean_sbu_0, # of connection points: 3
#     Node 10, Type 0, BuildingBlock: WUSLED_clean_sbu_0, # of connection points: 3
#     Node 11, Type 0, BuildingBlock: WUSLED_clean_sbu_0, # of connection points: 3
#     Node 12, Type 0, BuildingBlock: WUSLED_clean_sbu_0, # of connection points: 3
#     Node 13, Type 0, BuildingBlock: WUSLED_clean_sbu_0, # of connection points: 3
#     Node 14, Type 0, BuildingBlock: WUSLED_clean_sbu_0, # of connection points: 3
#     Node 15, Type 0, BuildingBlock: WUSLED_clean_sbu_0, # of connection points: 3
#     Node 16, Type 0, BuildingBlock: WUSLED_clean_sbu_0, # of connection points: 3
#     Node 17, Type 0, BuildingBlock: WUSLED_clean_sbu_0, # of connection points: 3
#     Node 18, Type 0, BuildingBlock: WUSLED_clean_sbu_0, # of connection points: 3
#     Node 19, Type 0, BuildingBlock: WUSLED_clean_sbu_0, # of connection points: 3
#     Node 20, Type 0, BuildingBlock: WUSLED_clean_sbu_0, # of connection points: 3
#     Node 21, Type 0, BuildingBlock: WUSLED_clean_sbu_0, # of connection points: 3
#     Node 22, Type 0, BuildingBlock: WUSLED_clean_sbu_0, # of connection points: 3
#     Node 23, Type 0, BuildingBlock: WUSLED_clean_sbu_0, # of connection points: 3
#     Node 24, Type 0, BuildingBlock: WUSLED_clean_sbu_0, # of connection points: 3
#     Node 25, Type 0, BuildingBlock: WUSLED_clean_sbu_0, # of connection points: 3
#     Node 26, Type 0, BuildingBlock: WUSLED_clean_sbu_0, # of connection points: 3
#     Node 27, Type 0, BuildingBlock: WUSLED_clean_sbu_0, # of connection points: 3
#     Node 28, Type 0, BuildingBlock: WUSLED_clean_sbu_0, # of connection points: 3
#     Node 29, Type 0, BuildingBlock: WUSLED_clean_sbu_0, # of connection points: 3
#     Node 30, Type 0, BuildingBlock: WUSLED_clean_sbu_0, # of connection points: 3
#     Node 31, Type 0, BuildingBlock: WUSLED_clean_sbu_0, # of connection points: 3
#     Node 32, Type 1, BuildingBlock: GIZVER_clean_linker_0, # of connection points: 4
#     Node 33, Type 1, BuildingBlock: GIZVER_clean_linker_0, # of connection points: 4
#     Node 34, Type 1, BuildingBlock: GIZVER_clean_linker_0, # of connection points: 4
#     Node 35, Type 1, BuildingBlock: GIZVER_clean_linker_0, # of connection points: 4
#     Node 36, Type 1, BuildingBlock: GIZVER_clean_linker_0, # of connection points: 4
#     Node 37, Type 1, BuildingBlock: GIZVER_clean_linker_0, # of connection points: 4
#     Node 38, Type 1, BuildingBlock: GIZVER_clean_linker_0, # of connection points: 4
#     Node 39, Type 1, BuildingBlock: GIZVER_clean_linker_0, # of connection points: 4
#     Node 40, Type 1, BuildingBlock: GIZVER_clean_linker_0, # of connection points: 4
#     Node 41, Type 1, BuildingBlock: GIZVER_clean_linker_0, # of connection points: 4
#     Node 42, Type 1, BuildingBlock: GIZVER_clean_linker_0, # of connection points: 4
#     Node 43, Type 1, BuildingBlock: GIZVER_clean_linker_0, # of connection points: 4
#     Node 44, Type 1, BuildingBlock: GIZVER_clean_linker_0, # of connection points: 4
#     Node 45, Type 1, BuildingBlock: GIZVER_clean_linker_0, # of connection points: 4
#     Node 46, Type 1, BuildingBlock: GIZVER_clean_linker_0, # of connection points: 4
#     Node 47, Type 1, BuildingBlock: GIZVER_clean_linker_0, # of connection points: 4
#     Node 48, Type 1, BuildingBlock: GIZVER_clean_linker_0, # of connection points: 4
#     Node 49, Type 1, BuildingBlock: GIZVER_clean_linker_0, # of connection points: 4
#     Node 50, Type 1, BuildingBlock: GIZVER_clean_linker_0, # of connection points: 4
#     Node 51, Type 1, BuildingBlock: GIZVER_clean_linker_0, # of connection points: 4
#     Node 52, Type 1, BuildingBlock: GIZVER_clean_linker_0, # of connection points: 4
#     Node 53, Type 1, BuildingBlock: GIZVER_clean_linker_0, # of connection points: 4
#     Node 54, Type 1, BuildingBlock: GIZVER_clean_linker_0, # of connection points: 4
#     Node 55, Type 1, BuildingBlock: GIZVER_clean_linker_0, # of connection points: 4
#     Edge 56, Type (0, 1), BuildingBlock: XIVTED_clean_linker_0, # of connection points: 2
#     Edge 57, Type (0, 1), BuildingBlock: XIVTED_clean_linker_0, # of connection points: 2
#     Edge 58, Type (0, 1), BuildingBlock: XIVTED_clean_linker_0, # of connection points: 2
#     Edge 59, Type (0, 1), BuildingBlock: XIVTED_clean_linker_0, # of connection points: 2
#     Edge 60, Type (0, 1), BuildingBlock: XIVTED_clean_linker_0, # of connection points: 2
#     Edge 61, Type (0, 1), BuildingBlock: XIVTED_clean_linker_0, # of connection points: 2
#     Edge 62, Type (0, 1), BuildingBlock: XIVTED_clean_linker_0, # of connection points: 2
#     Edge 63, Type (0, 1), BuildingBlock: XIVTED_clean_linker_0, # of connection points: 2
#     Edge 64, Type (0, 1), BuildingBlock: XIVTED_clean_linker_0, # of connection points: 2
#     Edge 65, Type (0, 1), BuildingBlock: XIVTED_clean_linker_0, # of connection points: 2
#     Edge 66, Type (0, 1), BuildingBlock: XIVTED_clean_linker_0, # of connection points: 2
#     Edge 67, Type (0, 1), BuildingBlock: XIVTED_clean_linker_0, # of connection points: 2
#     Edge 68, Type (0, 1), BuildingBlock: XIVTED_clean_linker_0, # of connection points: 2
#     Edge 69, Type (0, 1), BuildingBlock: XIVTED_clean_linker_0, # of connection points: 2
#     Edge 70, Type (0, 1), BuildingBlock: XIVTED_clean_linker_0, # of connection points: 2
#     Edge 71, Type (0, 1), BuildingBlock: XIVTED_clean_linker_0, # of connection points: 2
#     Edge 72, Type (0, 1), BuildingBlock: XIVTED_clean_linker_0, # of connection points: 2
#     Edge 73, Type (0, 1), BuildingBlock: XIVTED_clean_linker_0, # of connection points: 2
#     Edge 74, Type (0, 1), BuildingBlock: XIVTED_clean_linker_0, # of connection points: 2
#     Edge 75, Type (0, 1), BuildingBlock: XIVTED_clean_linker_0, # of connection points: 2
#     Edge 76, Type (0, 1), BuildingBlock: XIVTED_clean_linker_0, # of connection points: 2
#     Edge 77, Type (0, 1), BuildingBlock: XIVTED_clean_linker_0, # of connection points: 2
#     Edge 78, Type (0, 1), BuildingBlock: XIVTED_clean_linker_0, # of connection points: 2
#     Edge 79, Type (0, 1), BuildingBlock: XIVTED_clean_linker_0, # of connection points: 2
#     Edge 80, Type (0, 1), BuildingBlock: XIVTED_clean_linker_0, # of connection points: 2
#     Edge 81, Type (0, 1), BuildingBlock: XIVTED_clean_linker_0, # of connection points: 2
#     Edge 82, Type (0, 1), BuildingBlock: XIVTED_clean_linker_0, # of connection points: 2
#     Edge 83, Type (0, 1), BuildingBlock: XIVTED_clean_linker_0, # of connection points: 2
#     Edge 84, Type (0, 1), BuildingBlock: XIVTED_clean_linker_0, # of connection points: 2
#     Edge 85, Type (0, 1), BuildingBlock: XIVTED_clean_linker_0, # of connection points: 2
#     Edge 86, Type (0, 1), BuildingBlock: XIVTED_clean_linker_0, # of connection points: 2
#     Edge 87, Type (0, 1), BuildingBlock: XIVTED_clean_linker_0, # of connection points: 2
#     Edge 88, Type (0, 1), BuildingBlock: XIVTED_clean_linker_0, # of connection points: 2
#     Edge 89, Type (0, 1), BuildingBlock: XIVTED_clean_linker_0, # of connection points: 2
#     Edge 90, Type (0, 1), BuildingBlock: XIVTED_clean_linker_0, # of connection points: 2
#     Edge 91, Type (0, 1), BuildingBlock: XIVTED_clean_linker_0, # of connection points: 2
#     Edge 92, Type (0, 1), BuildingBlock: XIVTED_clean_linker_0, # of connection points: 2
#     Edge 93, Type (0, 1), BuildingBlock: XIVTED_clean_linker_0, # of connection points: 2
#     Edge 94, Type (0, 1), BuildingBlock: XIVTED_clean_linker_0, # of connection points: 2
#     Edge 95, Type (0, 1), BuildingBlock: XIVTED_clean_linker_0, # of connection points: 2
#     Edge 96, Type (0, 1), BuildingBlock: XIVTED_clean_linker_0, # of connection points: 2
#     Edge 97, Type (0, 1), BuildingBlock: XIVTED_clean_linker_0, # of connection points: 2
#     Edge 98, Type (0, 1), BuildingBlock: XIVTED_clean_linker_0, # of connection points: 2
#     Edge 99, Type (0, 1), BuildingBlock: XIVTED_clean_linker_0, # of connection points: 2
#     Edge 100, Type (0, 1), BuildingBlock: XIVTED_clean_linker_0, # of connection points: 2
#     Edge 101, Type (0, 1), BuildingBlock: XIVTED_clean_linker_0, # of connection points: 2
#     Edge 102, Type (0, 1), BuildingBlock: XIVTED_clean_linker_0, # of connection points: 2
#     Edge 103, Type (0, 1), BuildingBlock: XIVTED_clean_linker_0, # of connection points: 2
#     Edge 104, Type (0, 1), BuildingBlock: XIVTED_clean_linker_0, # of connection points: 2
#     Edge 105, Type (0, 1), BuildingBlock: XIVTED_clean_linker_0, # of connection points: 2
#     Edge 106, Type (0, 1), BuildingBlock: XIVTED_clean_linker_0, # of connection points: 2
#     Edge 107, Type (0, 1), BuildingBlock: XIVTED_clean_linker_0, # of connection points: 2
#     Edge 108, Type (0, 1), BuildingBlock: XIVTED_clean_linker_0, # of connection points: 2
#     Edge 109, Type (0, 1), BuildingBlock: XIVTED_clean_linker_0, # of connection points: 2
#     Edge 110, Type (0, 1), BuildingBlock: XIVTED_clean_linker_0, # of connection points: 2
#     Edge 111, Type (0, 1), BuildingBlock: XIVTED_clean_linker_0, # of connection points: 2
#     Edge 112, Type (0, 1), BuildingBlock: XIVTED_clean_linker_0, # of connection points: 2
#     Edge 113, Type (0, 1), BuildingBlock: XIVTED_clean_linker_0, # of connection points: 2
#     Edge 114, Type (0, 1), BuildingBlock: XIVTED_clean_linker_0, # of connection points: 2
#     Edge 115, Type (0, 1), BuildingBlock: XIVTED_clean_linker_0, # of connection points: 2
#     Edge 116, Type (0, 1), BuildingBlock: XIVTED_clean_linker_0, # of connection points: 2
#     Edge 117, Type (0, 1), BuildingBlock: XIVTED_clean_linker_0, # of connection points: 2
#     Edge 118, Type (0, 1), BuildingBlock: XIVTED_clean_linker_0, # of connection points: 2
#     Edge 119, Type (0, 1), BuildingBlock: XIVTED_clean_linker_0, # of connection points: 2
#     Edge 120, Type (0, 1), BuildingBlock: XIVTED_clean_linker_0, # of connection points: 2
#     Edge 121, Type (0, 1), BuildingBlock: XIVTED_clean_linker_0, # of connection points: 2
#     Edge 122, Type (0, 1), BuildingBlock: XIVTED_clean_linker_0, # of connection points: 2
#     Edge 123, Type (0, 1), BuildingBlock: XIVTED_clean_linker_0, # of connection points: 2
#     Edge 124, Type (0, 1), BuildingBlock: XIVTED_clean_linker_0, # of connection points: 2
#     Edge 125, Type (0, 1), BuildingBlock: XIVTED_clean_linker_0, # of connection points: 2
#     Edge 126, Type (0, 1), BuildingBlock: XIVTED_clean_linker_0, # of connection points: 2
#     Edge 127, Type (0, 1), BuildingBlock: XIVTED_clean_linker_0, # of connection points: 2
#     Edge 128, Type (0, 1), BuildingBlock: XIVTED_clean_linker_0, # of connection points: 2
#     Edge 129, Type (0, 1), BuildingBlock: XIVTED_clean_linker_0, # of connection points: 2
#     Edge 130, Type (0, 1), BuildingBlock: XIVTED_clean_linker_0, # of connection points: 2
#     Edge 131, Type (0, 1), BuildingBlock: XIVTED_clean_linker_0, # of connection points: 2
#     Edge 132, Type (0, 1), BuildingBlock: XIVTED_clean_linker_0, # of connection points: 2
#     Edge 133, Type (0, 1), BuildingBlock: XIVTED_clean_linker_0, # of connection points: 2
#     Edge 134, Type (0, 1), BuildingBlock: XIVTED_clean_linker_0, # of connection points: 2
#     Edge 135, Type (0, 1), BuildingBlock: XIVTED_clean_linker_0, # of connection points: 2
#     Edge 136, Type (0, 1), BuildingBlock: XIVTED_clean_linker_0, # of connection points: 2
#     Edge 137, Type (0, 1), BuildingBlock: XIVTED_clean_linker_0, # of connection points: 2
#     Edge 138, Type (0, 1), BuildingBlock: XIVTED_clean_linker_0, # of connection points: 2
#     Edge 139, Type (0, 1), BuildingBlock: XIVTED_clean_linker_0, # of connection points: 2
#     Edge 140, Type (0, 1), BuildingBlock: XIVTED_clean_linker_0, # of connection points: 2
#     Edge 141, Type (0, 1), BuildingBlock: XIVTED_clean_linker_0, # of connection points: 2
#     Edge 142, Type (0, 1), BuildingBlock: XIVTED_clean_linker_0, # of connection points: 2
#     Edge 143, Type (0, 1), BuildingBlock: XIVTED_clean_linker_0, # of connection points: 2
#     Edge 144, Type (0, 1), BuildingBlock: XIVTED_clean_linker_0, # of connection points: 2
#     Edge 145, Type (0, 1), BuildingBlock: XIVTED_clean_linker_0, # of connection points: 2
#     Edge 146, Type (0, 1), BuildingBlock: XIVTED_clean_linker_0, # of connection points: 2
#     Edge 147, Type (0, 1), BuildingBlock: XIVTED_clean_linker_0, # of connection points: 2
#     Edge 148, Type (0, 1), BuildingBlock: XIVTED_clean_linker_0, # of connection points: 2
#     Edge 149, Type (0, 1), BuildingBlock: XIVTED_clean_linker_0, # of connection points: 2
#     Edge 150, Type (0, 1), BuildingBlock: XIVTED_clean_linker_0, # of connection points: 2
#     Edge 151, Type (0, 1), BuildingBlock: XIVTED_clean_linker_0, # of connection points: 2
# Relax obj value: 0.000
# Max RMSD: 0.035
# Mean RMSD: 0.017
data_MOF--net-tbo--node1-WUSLED_clean_sbu_0--node2-GIZVER_clean_linker_0--edge1-XIVTED_clean_linker_0
_symmetry_space_group_name_H-M    P1
_symmetry_Int_Tables_number       1
_symmetry_cell_setting            triclinic
loop_
_symmetry_equiv_pos_as_xyz
'x, y, z'
_cell_length_a     95.446087
_cell_length_b     95.567502
_cell_length_c     95.361412
_cell_angle_alpha  89.627585
_cell_angle_beta   90.230824
_cell_angle_gamma 90.91135
loop_
_atom_site_label
_atom_site_type_symbol
_atom_site_fract_x
_atom_site_fract_y
_atom_site_fract_z
_atom_type_partial_charge
C0 C 0.17566 0.13862 0.19937 0.0
C1 C 0.18673 0.1334 0.19141 0.0
C2 C 0.19111 0.11552 0.20927 0.0
C3 C 0.19439 0.12195 0.19631 0.0
C4 C 0.17995 0.12083 0.21713 0.0
C5 C 0.17231 0.13224 0.21222 0.0
U6 U 0.16932 0.16961 0.17443 0.0
O7 O 0.14945 0.17756 0.16589 0.0
O8 O 0.16267 0.19096 0.17925 0.0
C9 C 0.15065 0.18949 0.1726 0.0
C10 C 0.16759 0.15078 0.1946 0.0
C11 C 0.13819 0.19396 0.18036 0.0
C12 C 0.12353 0.19353 0.20117 0.0
C13 C 0.13503 0.18854 0.1937 0.0
C14 C 0.1181 0.20918 0.1819 0.0
C15 C 0.115 0.20404 0.19542 0.0
C16 C 0.12958 0.20419 0.17447 0.0
C17 C 0.19517 0.17712 0.14414 0.0
C18 C 0.1918 0.18818 0.1213 0.0
C19 C 0.21478 0.1884 0.13211 0.0
C20 C 0.20938 0.18101 0.14363 0.0
C21 C 0.2061 0.19201 0.12071 0.0
C22 C 0.18638 0.18083 0.13289 0.0
C23 C 0.18998 0.16891 0.15633 0.0
O24 O 0.17386 0.16302 0.19612 0.0
O25 O 0.16115 0.14945 0.18246 0.0
O26 O 0.17813 0.16188 0.15471 0.0
O27 O 0.19104 0.17509 0.16857 0.0
H28 H 0.18947 0.13821 0.18145 0.0
H29 H 0.20281 0.11808 0.18991 0.0
H30 H 0.17727 0.11636 0.22725 0.0
H31 H 0.16384 0.13618 0.21853 0.0
H32 H 0.12155 0.18942 0.2116 0.0
H33 H 0.14158 0.18063 0.19843 0.0
H34 H 0.11166 0.21709 0.17703 0.0
H35 H 0.13183 0.20846 0.16415 0.0
H36 H 0.1848 0.19064 0.11269 0.0
H37 H 0.22577 0.1914 0.13222 0.0
H38 H 0.21636 0.17829 0.15218 0.0
H39 H 0.17535 0.17798 0.13299 0.0
C40 C 0.82498 0.17799 0.1424 0.0
C41 C 0.83328 0.18885 0.1367 0.0
C42 C 0.81546 0.19324 0.11884 0.0
C43 C 0.82856 0.19641 0.12501 0.0
C44 C 0.80724 0.18232 0.12465 0.0
C45 C 0.81197 0.17477 0.13631 0.0
U46 U 0.85041 0.17186 0.17286 0.0
O47 O 0.84622 0.16565 0.19468 0.0
O48 O 0.85868 0.15207 0.18125 0.0
C49 C 0.85221 0.15343 0.1933 0.0
C50 C 0.82965 0.17001 0.15476 0.0
C51 C 0.84411 0.14105 0.19826 0.0
C52 C 0.8222 0.12974 0.20534 0.0
C53 C 0.8295 0.14139 0.19996 0.0
C54 C 0.84391 0.11707 0.20701 0.0
C55 C 0.82931 0.11744 0.20905 0.0
C56 C 0.85121 0.12876 0.20172 0.0
C57 C 0.8816 0.19708 0.17815 0.0
C58 C 0.89666 0.1967 0.19876 0.0
C59 C 0.90164 0.21297 0.17977 0.0
C60 C 0.89003 0.20776 0.17238 0.0
C61 C 0.90504 0.20761 0.19312 0.0
C62 C 0.88504 0.19148 0.19133 0.0
C63 C 0.86908 0.19222 0.17044 0.0
O64 O 0.84149 0.16334 0.15333 0.0
O65 O 0.82869 0.17651 0.16681 0.0
O66 O 0.85713 0.19353 0.17708 0.0
O67 O 0.87017 0.18016 0.16402 0.0
H68 H 0.84337 0.19147 0.1413 0.0
H69 H 0.83523 0.20465 0.12075 0.0
H70 H 0.797 0.17974 0.12037 0.0
H71 H 0.8054 0.16647 0.14063 0.0
H72 H 0.81101 0.13053 0.20693 0.0
H73 H 0.82373 0.15072 0.19734 0.0
H74 H 0.84973 0.10774 0.20948 0.0
H75 H 0.86246 0.12823 0.20044 0.0
H76 H 0.89887 0.19243 0.20906 0.0
H77 H 0.90797 0.22121 0.17501 0.0
H78 H 0.88755 0.21216 0.16218 0.0
H79 H 0.87862 0.18323 0.19595 0.0
C80 C 0.82743 0.84669 0.14287 0.0
C81 C 0.82697 0.83199 0.14312 0.0
C82 C 0.81749 0.83155 0.11929 0.0
C83 C 0.82201 0.82451 0.13148 0.0
C84 C 0.81833 0.84628 0.119 0.0
C85 C 0.82319 0.85374 0.13067 0.0
U86 U 0.8515 0.85349 0.17458 0.0
O87 O 0.85984 0.87336 0.18297 0.0
O88 O 0.84625 0.85994 0.19601 0.0
C89 C 0.85294 0.87201 0.19482 0.0
C90 C 0.83183 0.85487 0.15528 0.0
C91 C 0.84513 0.88434 0.19938 0.0
C92 C 0.82738 0.90199 0.19563 0.0
C93 C 0.8348 0.8904 0.19088 0.0
C94 C 0.84054 0.90152 0.21739 0.0
C95 C 0.83014 0.90769 0.20898 0.0
C96 C 0.84795 0.88999 0.21263 0.0
C97 C 0.88179 0.82823 0.18176 0.0
C98 C 0.89878 0.83089 0.20069 0.0
C99 C 0.89942 0.81056 0.18568 0.0
C100 C 0.88795 0.81557 0.17813 0.0
C101 C 0.90502 0.81815 0.19706 0.0
C102 C 0.88726 0.83589 0.19309 0.0
C103 C 0.86968 0.83314 0.1736 0.0
O104 O 0.82999 0.84879 0.16756 0.0
O105 O 0.8439 0.86163 0.15427 0.0
O106 O 0.87141 0.84513 0.16696 0.0
O107 O 0.85745 0.83191 0.1798 0.0
H108 H 0.83023 0.82626 0.15239 0.0
H109 H 0.82138 0.8132 0.13222 0.0
H110 H 0.81521 0.85208 0.10974 0.0
H111 H 0.82353 0.86508 0.13021 0.0
H112 H 0.81954 0.90652 0.18881 0.0
H113 H 0.83247 0.88616 0.18061 0.0
H114 H 0.84279 0.90541 0.22782 0.0
H115 H 0.85582 0.88539 0.21937 0.0
H116 H 0.90287 0.83707 0.20931 0.0
H117 H 0.90374 0.8006 0.18274 0.0
H118 H 0.88382 0.80948 0.16945 0.0
H119 H 0.88262 0.84572 0.19605 0.0
C120 C 0.13781 0.82942 0.17815 0.0
C121 C 0.13897 0.82733 0.19271 0.0
C122 C 0.11469 0.81896 0.19379 0.0
C123 C 0.12756 0.82212 0.20043 0.0
C124 C 0.11349 0.82144 0.17927 0.0
C125 C 0.12493 0.82656 0.17155 0.0
U126 U 0.16919 0.85392 0.17008 0.0
O127 O 0.19048 0.84881 0.1631 0.0
O128 O 0.17706 0.86193 0.14987 0.0
C129 C 0.1889 0.85512 0.15093 0.0
C130 C 0.14998 0.83394 0.16956 0.0
C131 C 0.19338 0.84719 0.13851 0.0
C132 C 0.18862 0.83574 0.11619 0.0
C133 C 0.18387 0.84278 0.12808 0.0
C134 C 0.21237 0.83721 0.12513 0.0
C135 C 0.20297 0.83292 0.11452 0.0
C136 C 0.20763 0.84429 0.13693 0.0
C137 C 0.17729 0.88501 0.1945 0.0
C138 C 0.19954 0.89617 0.20073 0.0
C139 C 0.17797 0.90887 0.20325 0.0
C140 C 0.1704 0.89729 0.19822 0.0
C141 C 0.19263 0.90842 0.20478 0.0
C142 C 0.19196 0.88461 0.19561 0.0
C143 C 0.16888 0.87266 0.19009 0.0
O144 O 0.1487 0.84582 0.16266 0.0
O145 O 0.16244 0.83243 0.17526 0.0
O146 O 0.17482 0.8604 0.19146 0.0
O147 O 0.16179 0.87399 0.17833 0.0
H148 H 0.14876 0.82947 0.19812 0.0
H149 H 0.12898 0.8202 0.21154 0.0
H150 H 0.10371 0.81939 0.17381 0.0
H151 H 0.12377 0.82812 0.16034 0.0
H152 H 0.18108 0.83271 0.10822 0.0
H153 H 0.1728 0.84487 0.12903 0.0
H154 H 0.22343 0.83498 0.12441 0.0
H155 H 0.21515 0.84755 0.14485 0.0
H156 H 0.21079 0.89534 0.20189 0.0
H157 H 0.17229 0.91818 0.206 0.0
H158 H 0.15909 0.89786 0.19741 0.0
H159 H 0.19757 0.87529 0.19278 0.0
C160 C 0.13621 0.83028 0.85051 0.0
C161 C 0.13113 0.83803 0.83909 0.0
C162 C 0.11302 0.82021 0.83483 0.0
C163 C 0.11961 0.83305 0.83132 0.0
C164 C 0.11819 0.81255 0.84635 0.0
C165 C 0.12966 0.81755 0.8541 0.0
U166 U 0.16785 0.85483 0.85629 0.0
O167 O 0.17642 0.86358 0.87593 0.0
O168 O 0.18922 0.84983 0.86305 0.0
C169 C 0.18815 0.85665 0.87491 0.0
C170 C 0.14853 0.83506 0.8586 0.0
C171 C 0.1926 0.84897 0.88755 0.0
C172 C 0.19257 0.82796 0.90208 0.0
C173 C 0.18749 0.83542 0.89048 0.0
C174 C 0.20762 0.84768 0.90813 0.0
C175 C 0.20285 0.83394 0.91095 0.0
C176 C 0.20255 0.8551 0.89653 0.0
C177 C 0.17656 0.88404 0.82966 0.0
C178 C 0.187 0.90741 0.83166 0.0
C179 C 0.19212 0.89314 0.81149 0.0
C180 C 0.18341 0.88249 0.81677 0.0
C181 C 0.1941 0.90569 0.8189 0.0
C182 C 0.17835 0.89667 0.83701 0.0
C183 C 0.16756 0.87242 0.83501 0.0
O184 O 0.16069 0.83318 0.85254 0.0
O185 O 0.14754 0.84738 0.86456 0.0
O186 O 0.16071 0.87453 0.84674 0.0
O187 O 0.173 0.85989 0.83436 0.0
H188 H 0.1361 0.84789 0.83615 0.0
H189 H 0.11585 0.83929 0.82261 0.0
H190 H 0.11358 0.80252 0.84922 0.0
H191 H 0.13351 0.81138 0.86284 0.0
H192 H 0.18876 0.81737 0.90383 0.0
H193 H 0.17979 0.83052 0.88364 0.0
H194 H 0.21533 0.85271 0.91485 0.0
H195 H 0.20657 0.86557 0.89446 0.0
H196 H 0.18838 0.91693 0.83764 0.0
H197 H 0.19726 0.89157 0.80153 0.0
H198 H 0.18208 0.87296 0.81078 0.0
H199 H 0.17317 0.89825 0.84694 0.0
C200 C 0.13496 0.17743 0.83306 0.0
C201 C 0.12084 0.17326 0.83454 0.0
C202 C 0.11309 0.19525 0.82416 0.0
C203 C 0.11004 0.18207 0.83019 0.0
C204 C 0.12723 0.19936 0.82263 0.0
C205 C 0.13801 0.19059 0.82702 0.0
U206 U 0.16526 0.16684 0.85737 0.0
O207 O 0.17133 0.14598 0.86517 0.0
O208 O 0.18602 0.15861 0.8525 0.0
C209 C 0.18335 0.14642 0.85848 0.0
C210 C 0.1463 0.16781 0.83734 0.0
C211 C 0.18691 0.13387 0.85029 0.0
C212 C 0.193 0.12272 0.82829 0.0
C213 C 0.18835 0.1344 0.83563 0.0
C214 C 0.19429 0.10961 0.85004 0.0
C215 C 0.19624 0.11021 0.83541 0.0
C216 C 0.18974 0.12132 0.85738 0.0
C217 C 0.17423 0.1913 0.88837 0.0
C218 C 0.19383 0.1885 0.90448 0.0
C219 C 0.17822 0.20804 0.90706 0.0
C220 C 0.1704 0.20337 0.89554 0.0
C221 C 0.19006 0.2007 0.91169 0.0
C222 C 0.18597 0.18383 0.89291 0.0
C223 C 0.16597 0.18699 0.87602 0.0
O224 O 0.15925 0.17249 0.83582 0.0
O225 O 0.14439 0.16087 0.84915 0.0
O226 O 0.15827 0.17555 0.87744 0.0
O227 O 0.1725 0.18777 0.86392 0.0
H228 H 0.11815 0.16314 0.83904 0.0
H229 H 0.09929 0.17858 0.83167 0.0
H230 H 0.13004 0.20928 0.81777 0.0
H231 H 0.14875 0.19413 0.82555 0.0
H232 H 0.1945 0.12368 0.81707 0.0
H233 H 0.18622 0.14394 0.82986 0.0
H234 H 0.19641 0.10011 0.85587 0.0
H235 H 0.18867 0.12065 0.86867 0.0
H236 H 0.20281 0.18252 0.90781 0.0
H237 H 0.17514 0.21761 0.91215 0.0
H238 H 0.16142 0.20932 0.89213 0.0
H239 H 0.18907 0.17446 0.88747 0.0
C240 C 0.82648 0.14147 0.85339 0.0
C241 C 0.83409 0.1365 0.84195 0.0
C242 C 0.81635 0.11824 0.83795 0.0
C243 C 0.82907 0.12498 0.83429 0.0
C244 C 0.80881 0.12333 0.84946 0.0
C245 C 0.81384 0.13482 0.85709 0.0
U246 U 0.85219 0.17198 0.85978 0.0
O247 O 0.84814 0.19352 0.86643 0.0
O248 O 0.86104 0.17991 0.87964 0.0
C249 C 0.85471 0.19197 0.87847 0.0
C250 C 0.83145 0.15364 0.86151 0.0
C251 C 0.8471 0.19664 0.89097 0.0
C252 C 0.82602 0.19741 0.90518 0.0
C253 C 0.83325 0.19226 0.89359 0.0
C254 C 0.84654 0.21108 0.91184 0.0
C255 C 0.83253 0.20703 0.91438 0.0
C256 C 0.85373 0.20595 0.90025 0.0
C257 C 0.88273 0.1781 0.83409 0.0
C258 C 0.89715 0.19928 0.83271 0.0
C259 C 0.90306 0.17909 0.81884 0.0
C260 C 0.89159 0.17172 0.82444 0.0
C261 C 0.9059 0.19303 0.82275 0.0
C262 C 0.88566 0.19188 0.83833 0.0
C263 C 0.87028 0.17033 0.83916 0.0
O264 O 0.84349 0.15215 0.86806 0.0
O265 O 0.83034 0.16583 0.85519 0.0
O266 O 0.85832 0.17691 0.83809 0.0
O267 O 0.87172 0.16361 0.85114 0.0
H268 H 0.84389 0.14152 0.83894 0.0
H269 H 0.83522 0.12128 0.82559 0.0
H270 H 0.79887 0.1186 0.85245 0.0
H271 H 0.80779 0.13857 0.86586 0.0
H272 H 0.81521 0.19416 0.90671 0.0
H273 H 0.82796 0.18505 0.88654 0.0
H274 H 0.85197 0.21827 0.9188 0.0
H275 H 0.86445 0.20939 0.89844 0.0
H276 H 0.89892 0.21003 0.83587 0.0
H277 H 0.9097 0.17385 0.81141 0.0
H278 H 0.88953 0.16107 0.82109 0.0
H279 H 0.87893 0.19697 0.84578 0.0
C280 C 0.84612 0.88435 0.8295 0.0
C281 C 0.83269 0.88715 0.8346 0.0
C282 C 0.83114 0.90756 0.81914 0.0
C283 C 0.82526 0.89866 0.82947 0.0
C284 C 0.84475 0.90482 0.81432 0.0
C285 C 0.85213 0.89333 0.81945 0.0
U286 U 0.85204 0.85284 0.85405 0.0
O287 O 0.85809 0.83138 0.84871 0.0
O288 O 0.87181 0.84428 0.86207 0.0
C289 C 0.87021 0.83246 0.85523 0.0
C290 C 0.85386 0.87191 0.83411 0.0
C291 C 0.88247 0.82777 0.8473 0.0
C292 C 0.90025 0.8313 0.82935 0.0
C293 C 0.88861 0.83609 0.83674 0.0
C294 C 0.89966 0.80983 0.84299 0.0
C295 C 0.90593 0.81809 0.83239 0.0
C296 C 0.88807 0.81464 0.85036 0.0
C297 C 0.8273 0.84541 0.88511 0.0
C298 C 0.82034 0.82324 0.89598 0.0
C299 C 0.81879 0.84472 0.90914 0.0
C300 C 0.82397 0.85226 0.89759 0.0
C301 C 0.81674 0.83012 0.90846 0.0
C302 C 0.8256 0.83079 0.88445 0.0
C303 C 0.83202 0.85377 0.87284 0.0
O304 O 0.86054 0.87296 0.84615 0.0
O305 O 0.84724 0.85985 0.83259 0.0
O306 O 0.83041 0.84796 0.86046 0.0
O307 O 0.84407 0.8605 0.87423 0.0
H308 H 0.82787 0.88032 0.84237 0.0
H309 H 0.81477 0.90036 0.83332 0.0
H310 H 0.84971 0.91155 0.80656 0.0
H311 H 0.86252 0.89136 0.81542 0.0
H312 H 0.90486 0.83799 0.82135 0.0
H313 H 0.88441 0.84628 0.83424 0.0
H314 H 0.90353 0.79952 0.84546 0.0
H315 H 0.88341 0.80804 0.85842 0.0
H316 H 0.81875 0.81206 0.89494 0.0
H317 H 0.81641 0.85038 0.91862 0.0
H318 H 0.82523 0.86352 0.89837 0.0
H319 H 0.82811 0.8252 0.87497 0.0
C320 C 0.17317 0.63845 0.69812 0.0
C321 C 0.18679 0.63583 0.69342 0.0
C322 C 0.18791 0.61507 0.70844 0.0
C323 C 0.1941 0.62424 0.69853 0.0
C324 C 0.17412 0.61761 0.71281 0.0
C325 C 0.16685 0.62919 0.70772 0.0
U326 U 0.16772 0.66981 0.67341 0.0
O327 O 0.14819 0.67893 0.66544 0.0
O328 O 0.16245 0.69154 0.67855 0.0
C329 C 0.15016 0.6907 0.67232 0.0
C330 C 0.16558 0.65101 0.69356 0.0
C331 C 0.13818 0.69596 0.68043 0.0
C332 C 0.11561 0.69266 0.69196 0.0
C333 C 0.12701 0.68717 0.6847 0.0
C334 C 0.12648 0.71569 0.691 0.0
C335 C 0.11516 0.70702 0.69514 0.0
C336 C 0.13781 0.71023 0.68369 0.0
C337 C 0.19277 0.67585 0.64239 0.0
C338 C 0.19002 0.69417 0.6248 0.0
C339 C 0.21086 0.68004 0.62495 0.0
C340 C 0.20574 0.67258 0.63655 0.0
C341 C 0.20308 0.69094 0.6189 0.0
C342 C 0.18491 0.68669 0.63646 0.0
C343 C 0.18775 0.66789 0.6547 0.0
O344 O 0.17246 0.66295 0.69493 0.0
O345 O 0.15874 0.65001 0.68162 0.0
O346 O 0.17543 0.66167 0.65339 0.0
O347 O 0.18947 0.67409 0.66686 0.0
H348 H 0.19185 0.64287 0.68599 0.0
H349 H 0.20474 0.62272 0.69503 0.0
H350 H 0.16892 0.61066 0.72023 0.0
H351 H 0.15632 0.63101 0.71142 0.0
H352 H 0.10705 0.68567 0.69486 0.0
H353 H 0.12703 0.6761 0.68235 0.0
H354 H 0.1267 0.72673 0.69349 0.0
H355 H 0.14631 0.7172 0.68055 0.0
H356 H 0.18368 0.70239 0.62036 0.0
H357 H 0.22107 0.67742 0.6209 0.0
H358 H 0.21199 0.6643 0.64105 0.0
H359 H 0.17485 0.68936 0.64084 0.0
C360 C 0.8249 0.67988 0.6414 0.0
C361 C 0.83383 0.68442 0.63056 0.0
C362 C 0.81412 0.69487 0.61816 0.0
C363 C 0.82849 0.69181 0.61903 0.0
C364 C 0.80528 0.69042 0.62916 0.0
C365 C 0.81061 0.68298 0.64061 0.0
U366 U 0.85147 0.67254 0.67093 0.0
O367 O 0.84776 0.6665 0.69287 0.0
O368 O 0.85896 0.65229 0.679 0.0
C369 C 0.85302 0.65397 0.69127 0.0
C370 C 0.83007 0.67175 0.65354 0.0
C371 C 0.84427 0.64214 0.69637 0.0
C372 C 0.82147 0.63175 0.70173 0.0
C373 C 0.82957 0.64266 0.69597 0.0
C374 C 0.8426 0.61935 0.70781 0.0
C375 C 0.82789 0.62004 0.70787 0.0
C376 C 0.8507 0.63033 0.70216 0.0
C377 C 0.88362 0.6967 0.67572 0.0
C378 C 0.89853 0.69649 0.69644 0.0
C379 C 0.90405 0.71212 0.67707 0.0
C380 C 0.89237 0.70698 0.66972 0.0
C381 C 0.90718 0.70708 0.69062 0.0
C382 C 0.88685 0.69134 0.68906 0.0
C383 C 0.87083 0.69222 0.6682 0.0
O384 O 0.84155 0.66457 0.65166 0.0
O385 O 0.82976 0.67814 0.66569 0.0
O386 O 0.85906 0.69395 0.67503 0.0
O387 O 0.87137 0.68013 0.66174 0.0
H388 H 0.84492 0.6822 0.63093 0.0
H389 H 0.83559 0.69493 0.61072 0.0
H390 H 0.79423 0.69282 0.62904 0.0
H391 H 0.80354 0.67963 0.64888 0.0
H392 H 0.81016 0.63251 0.70147 0.0
H393 H 0.82435 0.6516 0.69142 0.0
H394 H 0.84786 0.61053 0.71256 0.0
H395 H 0.86202 0.62972 0.70255 0.0
H396 H 0.90053 0.69247 0.70689 0.0
H397 H 0.91059 0.7201 0.67217 0.0
H398 H 0.89005 0.71121 0.65941 0.0
H399 H 0.88017 0.68341 0.69386 0.0
C400 C 0.82878 0.34678 0.64072 0.0
C401 C 0.82995 0.35119 0.62668 0.0
C402 C 0.81932 0.32927 0.61858 0.0
C403 C 0.82533 0.34253 0.61573 0.0
C404 C 0.81814 0.3249 0.63266 0.0
C405 C 0.82282 0.33352 0.64358 0.0
U406 U 0.85286 0.35687 0.67162 0.0
O407 O 0.86113 0.37759 0.67805 0.0
O408 O 0.84777 0.36524 0.69234 0.0
C409 C 0.85417 0.3773 0.68992 0.0
C410 C 0.83324 0.35631 0.6522 0.0
C411 C 0.84628 0.39001 0.69344 0.0
C412 C 0.82447 0.4016 0.69902 0.0
C413 C 0.83159 0.38981 0.69435 0.0
C414 C 0.84656 0.41417 0.70141 0.0
C415 C 0.83188 0.41389 0.70282 0.0
C416 C 0.85367 0.40235 0.69682 0.0
C417 C 0.88269 0.33146 0.68143 0.0
C418 C 0.90484 0.33548 0.69366 0.0
C419 C 0.89501 0.31203 0.69215 0.0
C420 C 0.8836 0.31716 0.6846 0.0
C421 C 0.90588 0.32107 0.69666 0.0
C422 C 0.89334 0.34063 0.68612 0.0
C423 C 0.87075 0.33626 0.67284 0.0
O424 O 0.83128 0.35175 0.6651 0.0
O425 O 0.84534 0.36289 0.65055 0.0
O426 O 0.87275 0.34759 0.66514 0.0
O427 O 0.85842 0.33575 0.67892 0.0
H428 H 0.83441 0.36139 0.62415 0.0
H429 H 0.82655 0.34621 0.60504 0.0
H430 H 0.81333 0.3149 0.63532 0.0
H431 H 0.82161 0.3298 0.65426 0.0
H432 H 0.8132 0.40088 0.70011 0.0
H433 H 0.8256 0.38045 0.69179 0.0
H434 H 0.85262 0.42349 0.70397 0.0
H435 H 0.865 0.40276 0.69617 0.0
H436 H 0.91303 0.34275 0.69689 0.0
H437 H 0.89525 0.30094 0.69451 0.0
H438 H 0.87548 0.30991 0.68113 0.0
H439 H 0.89288 0.35173 0.68383 0.0
C440 C 0.13543 0.33055 0.67867 0.0
C441 C 0.13246 0.33544 0.69217 0.0
C442 C 0.11199 0.31985 0.69353 0.0
C443 C 0.12085 0.33013 0.69954 0.0
C444 C 0.11487 0.31527 0.67985 0.0
C445 C 0.12648 0.32056 0.67252 0.0
U446 U 0.16679 0.35561 0.67352 0.0
O447 O 0.18853 0.35092 0.6678 0.0
O448 O 0.17586 0.36424 0.65406 0.0
C449 C 0.1877 0.35756 0.65573 0.0
C450 C 0.148 0.33537 0.67103 0.0
C451 C 0.19263 0.34979 0.64346 0.0
C452 C 0.18937 0.33193 0.62564 0.0
C453 C 0.18435 0.33929 0.6372 0.0
C454 C 0.211 0.3455 0.62654 0.0
C455 C 0.20279 0.33493 0.62016 0.0
C456 C 0.20596 0.35284 0.63806 0.0
C457 C 0.17286 0.38593 0.69913 0.0
C458 C 0.19371 0.4009 0.69892 0.0
C459 C 0.17501 0.4054 0.7153 0.0
C460 C 0.16737 0.39401 0.70994 0.0
C461 C 0.18833 0.40893 0.70995 0.0
C462 C 0.18604 0.38949 0.69356 0.0
C463 C 0.16481 0.37372 0.69402 0.0
O464 O 0.147 0.34748 0.66451 0.0
O465 O 0.15994 0.33393 0.67775 0.0
O466 O 0.171 0.36159 0.69538 0.0
O467 O 0.15858 0.3753 0.68181 0.0
H468 H 0.13927 0.34316 0.69709 0.0
H469 H 0.11906 0.33379 0.71009 0.0
H470 H 0.10817 0.30755 0.6748 0.0
H471 H 0.12857 0.31672 0.66208 0.0
H472 H 0.18271 0.32396 0.62093 0.0
H473 H 0.17402 0.33678 0.64126 0.0
H474 H 0.22147 0.34794 0.62282 0.0
H475 H 0.21254 0.36086 0.64282 0.0
H476 H 0.20399 0.40321 0.69465 0.0
H477 H 0.17043 0.41146 0.72362 0.0
H478 H 0.15718 0.39144 0.71432 0.0
H479 H 0.19045 0.38335 0.6852 0.0
C480 C 0.13719 0.32831 0.35024 0.0
C481 C 0.13715 0.32832 0.33551 0.0
C482 C 0.11378 0.31759 0.33526 0.0
C483 C 0.1256 0.32296 0.32811 0.0
C484 C 0.11376 0.31794 0.35002 0.0
C485 C 0.12537 0.3232 0.35742 0.0
U486 U 0.16815 0.35364 0.35577 0.0
O487 O 0.17666 0.36282 0.37519 0.0
O488 O 0.18984 0.34948 0.36225 0.0
C489 C 0.18864 0.35632 0.37409 0.0
C490 C 0.14952 0.33328 0.35828 0.0
C491 C 0.19337 0.34879 0.3867 0.0
C492 C 0.19072 0.33001 0.40385 0.0
C493 C 0.1858 0.33725 0.39205 0.0
C494 C 0.21077 0.34583 0.40508 0.0
C495 C 0.20331 0.33418 0.41049 0.0
C496 C 0.20583 0.35305 0.39331 0.0
C497 C 0.17425 0.38343 0.32926 0.0
C498 C 0.19502 0.39848 0.32927 0.0
C499 C 0.17618 0.40286 0.3128 0.0
C500 C 0.16864 0.39145 0.31831 0.0
C501 C 0.18952 0.40647 0.31812 0.0
C502 C 0.18744 0.38706 0.33479 0.0
C503 C 0.16629 0.37122 0.33457 0.0
O504 O 0.16176 0.33176 0.35223 0.0
O505 O 0.14825 0.34545 0.36447 0.0
O506 O 0.1598 0.37299 0.34654 0.0
O507 O 0.17269 0.35918 0.33382 0.0
H508 H 0.14613 0.33228 0.32971 0.0
H509 H 0.12611 0.32271 0.31677 0.0
H510 H 0.10478 0.31415 0.35591 0.0
H511 H 0.12515 0.32319 0.36878 0.0
H512 H 0.18465 0.32118 0.40781 0.0
H513 H 0.17613 0.33382 0.38706 0.0
H514 H 0.22061 0.3492 0.40974 0.0
H515 H 0.21185 0.36189 0.38926 0.0
H516 H 0.20532 0.40084 0.33352 0.0
H517 H 0.17152 0.40889 0.30438 0.0
H518 H 0.15843 0.38883 0.31396 0.0
H519 H 0.19194 0.38097 0.34326 0.0
C520 C 0.13862 0.6764 0.33164 0.0
C521 C 0.13963 0.69097 0.32964 0.0
C522 C 0.1154 0.69154 0.32135 0.0
C523 C 0.12817 0.69843 0.32451 0.0
C524 C 0.11435 0.677 0.32373 0.0
C525 C 0.12584 0.66953 0.32876 0.0
U526 U 0.17002 0.66932 0.35596 0.0
O527 O 0.17786 0.64936 0.36431 0.0
O528 O 0.19127 0.66249 0.35081 0.0
C529 C 0.18978 0.6505 0.3575 0.0
C530 C 0.15081 0.66809 0.33618 0.0
C531 C 0.19415 0.63804 0.34975 0.0
C532 C 0.1914 0.62155 0.33056 0.0
C533 C 0.18669 0.63318 0.338 0.0
C534 C 0.21099 0.61953 0.34663 0.0
C535 C 0.20366 0.6146 0.33476 0.0
C536 C 0.20627 0.63111 0.35403 0.0
C537 C 0.17794 0.69485 0.38632 0.0
C538 C 0.19039 0.69087 0.4083 0.0
C539 C 0.18782 0.71446 0.39936 0.0
C540 C 0.18045 0.70925 0.38776 0.0
C541 C 0.19279 0.70536 0.40987 0.0
C542 C 0.18306 0.68566 0.39663 0.0
C543 C 0.16966 0.68984 0.37416 0.0
O544 O 0.16326 0.67393 0.33439 0.0
O545 O 0.14955 0.66146 0.34824 0.0
O546 O 0.16256 0.67804 0.37582 0.0
O547 O 0.17581 0.69091 0.36189 0.0
H548 H 0.14934 0.69658 0.3318 0.0
H549 H 0.12947 0.70957 0.32267 0.0
H550 H 0.10465 0.67134 0.32168 0.0
H551 H 0.12479 0.65831 0.33027 0.0
H552 H 0.18541 0.61798 0.32156 0.0
H553 H 0.17729 0.63842 0.33454 0.0
H554 H 0.22059 0.61465 0.35004 0.0
H555 H 0.21222 0.63478 0.36303 0.0
H556 H 0.19395 0.68355 0.41621 0.0
H557 H 0.18972 0.72564 0.4 0.0
H558 H 0.17666 0.71653 0.37991 0.0
H559 H 0.18128 0.67447 0.39575 0.0
C560 C 0.82363 0.63838 0.34894 0.0
C561 C 0.83308 0.62861 0.34365 0.0
C562 C 0.81367 0.61468 0.33403 0.0
C563 C 0.82814 0.61686 0.33629 0.0
C564 C 0.80432 0.62465 0.3392 0.0
C565 C 0.80925 0.63632 0.34659 0.0
U566 U 0.8491 0.66909 0.35691 0.0
O567 O 0.84444 0.69072 0.36269 0.0
O568 O 0.85595 0.67737 0.37742 0.0
C569 C 0.84965 0.68936 0.3754 0.0
C570 C 0.82837 0.65067 0.35709 0.0
C571 C 0.84081 0.69426 0.387 0.0
C572 C 0.81806 0.70029 0.39648 0.0
C573 C 0.82613 0.69444 0.38585 0.0
C574 C 0.83914 0.70526 0.40988 0.0
C575 C 0.82449 0.70596 0.40853 0.0
C576 C 0.84721 0.69952 0.39919 0.0
C577 C 0.88162 0.67579 0.33386 0.0
C578 C 0.8931 0.69767 0.32687 0.0
C579 C 0.90584 0.676 0.32596 0.0
C580 C 0.89403 0.66871 0.33098 0.0
C581 C 0.90547 0.69055 0.3236 0.0
C582 C 0.88133 0.69038 0.33198 0.0
C583 C 0.86895 0.66766 0.338 0.0
O584 O 0.83986 0.64927 0.36461 0.0
O585 O 0.8277 0.6628 0.35058 0.0
O586 O 0.85685 0.67366 0.3357 0.0
O587 O 0.86953 0.66104 0.35011 0.0
H588 H 0.84425 0.62999 0.34529 0.0
H589 H 0.83565 0.60938 0.33258 0.0
H590 H 0.79315 0.62354 0.33742 0.0
H591 H 0.80179 0.64376 0.3505 0.0
H592 H 0.80679 0.7005 0.3952 0.0
H593 H 0.82091 0.69034 0.37661 0.0
H594 H 0.84442 0.70963 0.41896 0.0
H595 H 0.85851 0.69949 0.4003 0.0
H596 H 0.89232 0.70882 0.32505 0.0
H597 H 0.91523 0.67018 0.32384 0.0
H598 H 0.89452 0.65747 0.33238 0.0
H599 H 0.87191 0.69615 0.33414 0.0
C600 C 0.84708 0.3828 0.33052 0.0
C601 C 0.83237 0.3818 0.33059 0.0
C602 C 0.8308 0.40449 0.31886 0.0
C603 C 0.82433 0.39251 0.32476 0.0
C604 C 0.8455 0.40569 0.3193 0.0
C605 C 0.85355 0.39491 0.32502 0.0
U606 U 0.85525 0.35278 0.35615 0.0
O607 O 0.86226 0.33144 0.35197 0.0
O608 O 0.87564 0.34567 0.36431 0.0
C609 C 0.87453 0.33351 0.358 0.0
C610 C 0.85582 0.37111 0.33549 0.0
C611 C 0.8869 0.329 0.35001 0.0
C612 C 0.8982 0.32296 0.32807 0.0
C613 C 0.88675 0.32835 0.3353 0.0
C614 C 0.91032 0.31929 0.3501 0.0
C615 C 0.91008 0.31818 0.33537 0.0
C616 C 0.89884 0.3246 0.35731 0.0
C617 C 0.83026 0.34592 0.38724 0.0
C618 C 0.82893 0.32465 0.40138 0.0
C619 C 0.8157 0.34495 0.40809 0.0
C620 C 0.82106 0.35233 0.39654 0.0
C621 C 0.8194 0.33094 0.41057 0.0
C622 C 0.83431 0.33208 0.38982 0.0
C623 C 0.835 0.35373 0.37471 0.0
O624 O 0.86252 0.37307 0.34741 0.0
O625 O 0.85024 0.35849 0.33437 0.0
O626 O 0.83386 0.34707 0.36273 0.0
O627 O 0.84683 0.36084 0.37597 0.0
H628 H 0.82709 0.37263 0.3349 0.0
H629 H 0.81302 0.39135 0.32476 0.0
H630 H 0.85081 0.41473 0.31475 0.0
H631 H 0.86488 0.39591 0.32486 0.0
H632 H 0.89752 0.32214 0.31677 0.0
H633 H 0.87768 0.33171 0.32939 0.0
H634 H 0.91935 0.31598 0.35609 0.0
H635 H 0.89921 0.32505 0.36866 0.0
H636 H 0.83192 0.31386 0.40289 0.0
H637 H 0.8086 0.35022 0.41505 0.0
H638 H 0.81786 0.36302 0.39476 0.0
H639 H 0.84143 0.32695 0.38275 0.0
C640 C 0.67495 0.1374 0.69906 0.0
C641 C 0.68635 0.13241 0.69143 0.0
C642 C 0.69009 0.11414 0.70904 0.0
C643 C 0.69387 0.12088 0.69638 0.0
C644 C 0.67856 0.11919 0.71653 0.0
C645 C 0.67108 0.13068 0.71158 0.0
U646 U 0.66853 0.1682 0.67382 0.0
O647 O 0.64868 0.17688 0.66617 0.0
O648 O 0.66302 0.18993 0.67875 0.0
C649 C 0.6506 0.18877 0.67283 0.0
C650 C 0.66716 0.14978 0.69439 0.0
C651 C 0.63871 0.19394 0.68115 0.0
C652 C 0.61637 0.19042 0.69305 0.0
C653 C 0.6277 0.18505 0.68562 0.0
C654 C 0.62698 0.21357 0.69188 0.0
C655 C 0.61581 0.20479 0.69623 0.0
C656 C 0.63824 0.20821 0.6844 0.0
C657 C 0.69264 0.17424 0.64212 0.0
C658 C 0.6894 0.19283 0.62492 0.0
C659 C 0.71004 0.17845 0.62398 0.0
C660 C 0.7053 0.17088 0.63568 0.0
C661 C 0.70218 0.18957 0.61845 0.0
C662 C 0.68468 0.18524 0.63666 0.0
C663 C 0.68811 0.16632 0.65464 0.0
O664 O 0.67397 0.16179 0.69533 0.0
O665 O 0.66007 0.14846 0.68261 0.0
O666 O 0.67588 0.15987 0.65373 0.0
O667 O 0.69004 0.17271 0.66667 0.0
H668 H 0.68949 0.13749 0.68172 0.0
H669 H 0.70259 0.11721 0.69026 0.0
H670 H 0.67548 0.11447 0.72643 0.0
H671 H 0.66235 0.13444 0.71765 0.0
H672 H 0.60792 0.18335 0.69609 0.0
H673 H 0.62778 0.17397 0.68328 0.0
H674 H 0.62712 0.22461 0.69436 0.0
H675 H 0.64662 0.21526 0.6811 0.0
H676 H 0.683 0.20121 0.62088 0.0
H677 H 0.72004 0.17578 0.61948 0.0
H678 H 0.71162 0.16247 0.6398 0.0
H679 H 0.67486 0.18799 0.64151 0.0
C680 C 0.32414 0.17985 0.64153 0.0
C681 C 0.33322 0.18457 0.63087 0.0
C682 C 0.31374 0.19558 0.61859 0.0
C683 C 0.32806 0.19232 0.6195 0.0
C684 C 0.30476 0.19092 0.62939 0.0
C685 C 0.3099 0.18311 0.64067 0.0
U686 U 0.35008 0.17214 0.67147 0.0
O687 O 0.34598 0.16544 0.69315 0.0
O688 O 0.3578 0.15183 0.67919 0.0
C689 C 0.35155 0.15308 0.69136 0.0
C690 C 0.32915 0.1714 0.65352 0.0
C691 C 0.34292 0.14098 0.69602 0.0
C692 C 0.32018 0.1301 0.70067 0.0
C693 C 0.32823 0.14116 0.6951 0.0
C694 C 0.34138 0.11821 0.70752 0.0
C695 C 0.32666 0.1186 0.70713 0.0
C696 C 0.34943 0.12933 0.70206 0.0
C697 C 0.38143 0.19731 0.6778 0.0
C698 C 0.40405 0.19338 0.68894 0.0
C699 C 0.39422 0.21658 0.68875 0.0
C700 C 0.38254 0.21149 0.68141 0.0
C701 C 0.40519 0.20763 0.69258 0.0
C702 C 0.39228 0.18827 0.68165 0.0
C703 C 0.36892 0.19242 0.66994 0.0
O704 O 0.34083 0.16453 0.65173 0.0
O705 O 0.32835 0.17735 0.66587 0.0
O706 O 0.35692 0.19364 0.67648 0.0
O707 O 0.36992 0.18061 0.66301 0.0
H708 H 0.34428 0.18224 0.63128 0.0
H709 H 0.33528 0.19559 0.61134 0.0
H710 H 0.29374 0.19344 0.62924 0.0
H711 H 0.30272 0.17962 0.6488 0.0
H712 H 0.30887 0.13063 0.70006 0.0
H713 H 0.32296 0.14997 0.69036 0.0
H714 H 0.34668 0.10955 0.71252 0.0
H715 H 0.36074 0.12899 0.70286 0.0
H716 H 0.41233 0.1862 0.69158 0.0
H717 H 0.39453 0.22753 0.6916 0.0
H718 H 0.37428 0.21865 0.67859 0.0
H719 H 0.3917 0.17727 0.67902 0.0
C720 C 0.32814 0.84927 0.64002 0.0
C721 C 0.33307 0.83574 0.63761 0.0
C722 C 0.31746 0.83333 0.61738 0.0
C723 C 0.32778 0.82784 0.62638 0.0
C724 C 0.3128 0.84701 0.61974 0.0
C725 C 0.31808 0.85488 0.63094 0.0
U726 U 0.35292 0.85635 0.6712 0.0
O727 O 0.36164 0.87651 0.67867 0.0
O728 O 0.34804 0.86375 0.69236 0.0
C729 C 0.35462 0.87581 0.6905 0.0
C730 C 0.33305 0.8576 0.65207 0.0
C731 C 0.34686 0.88847 0.69442 0.0
C732 C 0.32509 0.9003 0.69959 0.0
C733 C 0.33215 0.88851 0.69487 0.0
C734 C 0.34729 0.91241 0.70301 0.0
C735 C 0.33256 0.91238 0.70389 0.0
C736 C 0.35434 0.90058 0.69838 0.0
C737 C 0.38255 0.83046 0.67959 0.0
C738 C 0.40439 0.83424 0.69243 0.0
C739 C 0.39502 0.81075 0.68957 0.0
C740 C 0.38366 0.81605 0.68204 0.0
C741 C 0.40563 0.81973 0.69476 0.0
C742 C 0.39295 0.83956 0.68493 0.0
C743 C 0.3706 0.83555 0.67119 0.0
O744 O 0.33127 0.85177 0.66447 0.0
O745 O 0.34535 0.86382 0.65066 0.0
O746 O 0.3726 0.84719 0.66397 0.0
O747 O 0.35829 0.83481 0.6773 0.0
H748 H 0.34085 0.83124 0.64453 0.0
H749 H 0.33152 0.8173 0.62497 0.0
H750 H 0.30505 0.85168 0.61291 0.0
H751 H 0.3142 0.86533 0.6326 0.0
H752 H 0.31377 0.89976 0.70027 0.0
H753 H 0.32609 0.87933 0.69184 0.0
H754 H 0.35341 0.92157 0.70596 0.0
H755 H 0.36569 0.90082 0.69806 0.0
H756 H 0.41239 0.84148 0.69617 0.0
H757 H 0.39539 0.79956 0.6914 0.0
H758 H 0.37572 0.80885 0.67808 0.0
H759 H 0.39232 0.85075 0.68321 0.0
C760 C 0.63629 0.82845 0.67864 0.0
C761 C 0.63379 0.83279 0.69242 0.0
C762 C 0.61282 0.81785 0.69354 0.0
C763 C 0.62216 0.82753 0.69982 0.0
C764 C 0.61523 0.81384 0.67959 0.0
C765 C 0.62685 0.81908 0.67224 0.0
U766 U 0.66787 0.85324 0.6729 0.0
O767 O 0.6895 0.84824 0.66701 0.0
O768 O 0.67681 0.86148 0.65322 0.0
C769 C 0.68862 0.85478 0.65488 0.0
C770 C 0.64886 0.83314 0.67091 0.0
C771 C 0.69352 0.84694 0.64265 0.0
C772 C 0.69015 0.8292 0.62472 0.0
C773 C 0.68518 0.8365 0.63635 0.0
C774 C 0.71182 0.8427 0.62564 0.0
C775 C 0.70355 0.83222 0.6192 0.0
C776 C 0.70684 0.84998 0.63722 0.0
C777 C 0.6747 0.88416 0.6977 0.0
C778 C 0.69697 0.8956 0.70339 0.0
C779 C 0.67525 0.90769 0.7073 0.0
C780 C 0.66772 0.89612 0.70219 0.0
C781 C 0.68999 0.90754 0.70814 0.0
C782 C 0.68942 0.88406 0.69818 0.0
C783 C 0.66642 0.87186 0.69296 0.0
O784 O 0.64791 0.84516 0.66421 0.0
O785 O 0.66084 0.83172 0.67758 0.0
O786 O 0.67228 0.85959 0.6946 0.0
O787 O 0.65994 0.87323 0.68085 0.0
H788 H 0.64097 0.84004 0.69754 0.0
H789 H 0.62073 0.83075 0.71057 0.0
H790 H 0.60816 0.80661 0.67433 0.0
H791 H 0.62857 0.81566 0.66158 0.0
H792 H 0.68344 0.82129 0.61997 0.0
H793 H 0.67485 0.83401 0.64042 0.0
H794 H 0.72228 0.84514 0.62189 0.0
H795 H 0.71346 0.85796 0.642 0.0
H796 H 0.70827 0.89498 0.70401 0.0
H797 H 0.6695 0.91676 0.7106 0.0
H798 H 0.65638 0.89646 0.70184 0.0
H799 H 0.69509 0.87498 0.69473 0.0
C800 C 0.63546 0.829 0.34975 0.0
C801 C 0.63015 0.83673 0.33842 0.0
C802 C 0.61256 0.81845 0.33397 0.0
C803 C 0.61879 0.83151 0.33059 0.0
C804 C 0.61799 0.81079 0.34536 0.0
C805 C 0.62932 0.81602 0.35316 0.0
U806 U 0.66558 0.8551 0.35654 0.0
O807 O 0.67305 0.86396 0.37658 0.0
O808 O 0.68709 0.85136 0.36378 0.0
C809 C 0.68513 0.8576 0.37585 0.0
C810 C 0.64744 0.83419 0.35807 0.0
C811 C 0.68941 0.84976 0.38853 0.0
C812 C 0.69481 0.82794 0.40055 0.0
C813 C 0.69004 0.83508 0.38864 0.0
C814 C 0.69794 0.84999 0.41261 0.0
C815 C 0.69896 0.8353 0.41267 0.0
C816 C 0.69327 0.85712 0.40065 0.0
C817 C 0.67216 0.88554 0.33087 0.0
C818 C 0.69305 0.90043 0.33133 0.0
C819 C 0.6744 0.90526 0.31479 0.0
C820 C 0.6667 0.89382 0.32004 0.0
C821 C 0.68774 0.90863 0.32025 0.0
C822 C 0.68533 0.88898 0.33659 0.0
C823 C 0.66419 0.87313 0.33569 0.0
O824 O 0.65975 0.8332 0.35207 0.0
O825 O 0.64568 0.84622 0.36437 0.0
O826 O 0.65723 0.87453 0.34745 0.0
O827 O 0.6708 0.86121 0.33492 0.0
H828 H 0.63479 0.84679 0.33564 0.0
H829 H 0.61481 0.83775 0.32198 0.0
H830 H 0.61367 0.8006 0.34811 0.0
H831 H 0.63334 0.80988 0.36184 0.0
H832 H 0.69561 0.81667 0.40008 0.0
H833 H 0.68705 0.82912 0.37944 0.0
H834 H 0.70078 0.85601 0.42179 0.0
H835 H 0.69278 0.86844 0.40084 0.0
H836 H 0.70335 0.90261 0.33569 0.0
H837 H 0.66988 0.91146 0.30642 0.0
H838 H 0.65653 0.89134 0.31553 0.0
H839 H 0.68971 0.88268 0.34496 0.0
C840 C 0.63776 0.1762 0.33138 0.0
C841 C 0.62784 0.18159 0.34068 0.0
C842 C 0.61453 0.19127 0.32104 0.0
C843 C 0.61633 0.18902 0.33556 0.0
C844 C 0.62462 0.18596 0.31183 0.0
C845 C 0.63605 0.17849 0.31695 0.0
U846 U 0.66805 0.16899 0.35711 0.0
O847 O 0.67601 0.14893 0.36502 0.0
O848 O 0.68968 0.16281 0.35256 0.0
C849 C 0.68814 0.15053 0.35868 0.0
C850 C 0.64989 0.1681 0.33634 0.0
C851 C 0.69289 0.13847 0.35053 0.0
C852 C 0.68998 0.12189 0.33143 0.0
C853 C 0.68512 0.13329 0.33911 0.0
C854 C 0.7104 0.12077 0.34654 0.0
C855 C 0.70271 0.11548 0.33505 0.0
C856 C 0.70553 0.13213 0.35418 0.0
C857 C 0.67417 0.19324 0.38869 0.0
C858 C 0.69547 0.19422 0.40277 0.0
C859 C 0.67527 0.20753 0.40966 0.0
C860 C 0.66783 0.20236 0.39808 0.0
C861 C 0.68926 0.20369 0.41206 0.0
C862 C 0.68799 0.18904 0.39119 0.0
C863 C 0.66636 0.1887 0.3761 0.0
O864 O 0.66214 0.1745 0.33543 0.0
O865 O 0.64827 0.16097 0.34809 0.0
O866 O 0.65961 0.17664 0.37709 0.0
O867 O 0.67295 0.19038 0.36412 0.0
H868 H 0.62895 0.18001 0.35189 0.0
H869 H 0.60874 0.19283 0.34297 0.0
H870 H 0.62381 0.18772 0.30064 0.0
H871 H 0.64361 0.1745 0.3096 0.0
H872 H 0.68372 0.11804 0.32275 0.0
H873 H 0.67532 0.13808 0.33613 0.0
H874 H 0.72035 0.11632 0.34949 0.0
H875 H 0.7117 0.13604 0.36292 0.0
H876 H 0.70625 0.19113 0.4042 0.0
H877 H 0.67006 0.21459 0.4167 0.0
H878 H 0.65715 0.20567 0.39636 0.0
H879 H 0.69307 0.18198 0.38404 0.0
C880 C 0.32625 0.14197 0.35177 0.0
C881 C 0.33403 0.13699 0.34044 0.0
C882 C 0.31658 0.11845 0.33652 0.0
C883 C 0.32923 0.12533 0.33287 0.0
C884 C 0.30889 0.12353 0.34793 0.0
C885 C 0.31369 0.13517 0.35546 0.0
U886 U 0.35191 0.17244 0.35855 0.0
O887 O 0.34779 0.19417 0.36447 0.0
O888 O 0.35991 0.18074 0.37863 0.0
C889 C 0.35359 0.19276 0.37693 0.0
C890 C 0.33097 0.1543 0.35978 0.0
C891 C 0.34542 0.19769 0.38903 0.0
C892 C 0.32352 0.205 0.39955 0.0
C893 C 0.33086 0.19955 0.38819 0.0
C894 C 0.34509 0.20643 0.41294 0.0
C895 C 0.33056 0.20864 0.41206 0.0
C896 C 0.35242 0.20107 0.40154 0.0
C897 C 0.38364 0.17776 0.33424 0.0
C898 C 0.39829 0.19881 0.3333 0.0
C899 C 0.40454 0.17848 0.31977 0.0
C900 C 0.39279 0.17125 0.32497 0.0
C901 C 0.40735 0.19242 0.32371 0.0
C902 C 0.38654 0.19154 0.33852 0.0
C903 C 0.37092 0.17016 0.33887 0.0
O904 O 0.34269 0.15286 0.36689 0.0
O905 O 0.33025 0.16634 0.35311 0.0
O906 O 0.35908 0.17679 0.33707 0.0
O907 O 0.37176 0.16372 0.35106 0.0
H908 H 0.34377 0.14214 0.33746 0.0
H909 H 0.33549 0.12164 0.32424 0.0
H910 H 0.299 0.11868 0.35089 0.0
H911 H 0.30752 0.13891 0.36414 0.0
H912 H 0.31239 0.2067 0.39838 0.0
H913 H 0.32515 0.197 0.37867 0.0
H914 H 0.35085 0.20886 0.42245 0.0
H915 H 0.36363 0.19969 0.40246 0.0
H916 H 0.40004 0.20956 0.33646 0.0
H917 H 0.41139 0.17315 0.31261 0.0
H918 H 0.39076 0.1606 0.32161 0.0
H919 H 0.37958 0.19673 0.34569 0.0
C920 C 0.3455 0.88268 0.32807 0.0
C921 C 0.34119 0.89315 0.33732 0.0
C922 C 0.33046 0.90603 0.31794 0.0
C923 C 0.33378 0.90472 0.3323 0.0
C924 C 0.33469 0.89541 0.30879 0.0
C925 C 0.34215 0.88392 0.31379 0.0
U926 U 0.35247 0.85192 0.35332 0.0
O927 O 0.3589 0.83045 0.34858 0.0
O928 O 0.3724 0.84394 0.36157 0.0
C929 C 0.37099 0.8319 0.35508 0.0
C930 C 0.35366 0.8705 0.33291 0.0
C931 C 0.38332 0.82711 0.34732 0.0
C932 C 0.4011 0.83027 0.32931 0.0
C933 C 0.38947 0.83523 0.33661 0.0
C934 C 0.4005 0.80907 0.34337 0.0
C935 C 0.40677 0.8171 0.33259 0.0
C936 C 0.38892 0.81404 0.35064 0.0
C937 C 0.32728 0.84498 0.38425 0.0
C938 C 0.33141 0.83293 0.40644 0.0
C939 C 0.30776 0.83511 0.39754 0.0
C940 C 0.31288 0.84236 0.3858 0.0
C941 C 0.31692 0.83038 0.40809 0.0
C942 C 0.33654 0.84014 0.39463 0.0
C943 C 0.33221 0.85299 0.37185 0.0
O944 O 0.36059 0.87188 0.34478 0.0
O945 O 0.3474 0.85822 0.33163 0.0
O946 O 0.33087 0.84662 0.35974 0.0
O947 O 0.34413 0.85996 0.37313 0.0
H948 H 0.3436 0.89246 0.34841 0.0
H949 H 0.33085 0.91272 0.33966 0.0
H950 H 0.3321 0.89585 0.29773 0.0
H951 H 0.34532 0.87596 0.30646 0.0
H952 H 0.40571 0.8368 0.32118 0.0
H953 H 0.38527 0.84536 0.33389 0.0
H954 H 0.40435 0.79879 0.34603 0.0
H955 H 0.38426 0.80759 0.35883 0.0
H956 H 0.33879 0.82957 0.41438 0.0
H957 H 0.29658 0.8331 0.39824 0.0
H958 H 0.30554 0.84594 0.3779 0.0
H959 H 0.34772 0.84199 0.39367 0.0
C960 C 0.67488 0.63616 0.19765 0.0
C961 C 0.6887 0.63402 0.19327 0.0
C962 C 0.68985 0.61274 0.20753 0.0
C963 C 0.69612 0.62241 0.19816 0.0
C964 C 0.67586 0.6148 0.21156 0.0
C965 C 0.66848 0.6264 0.20668 0.0
U966 U 0.66905 0.66828 0.17394 0.0
O967 O 0.64937 0.67724 0.16615 0.0
O968 O 0.66324 0.68967 0.17982 0.0
C969 C 0.65104 0.68881 0.17341 0.0
C970 C 0.66713 0.64872 0.19338 0.0
C971 C 0.63887 0.69365 0.18151 0.0
C972 C 0.61637 0.68962 0.19297 0.0
C973 C 0.62797 0.68451 0.18574 0.0
C974 C 0.62652 0.71298 0.19206 0.0
C975 C 0.61545 0.70396 0.19616 0.0
C976 C 0.63804 0.70788 0.18479 0.0
C977 C 0.69443 0.67629 0.14337 0.0
C978 C 0.69105 0.68758 0.12064 0.0
C979 C 0.71392 0.68814 0.13167 0.0
C980 C 0.70857 0.68048 0.14304 0.0
C981 C 0.70528 0.69171 0.12024 0.0
C982 C 0.68567 0.67997 0.13208 0.0
C983 C 0.68929 0.66773 0.15536 0.0
O984 O 0.67373 0.66074 0.19524 0.0
O985 O 0.66046 0.64799 0.18131 0.0
O986 O 0.67722 0.66108 0.15374 0.0
O987 O 0.69079 0.67336 0.16782 0.0
H988 H 0.69382 0.64145 0.18627 0.0
H989 H 0.7069 0.62126 0.19493 0.0
H990 H 0.6706 0.60747 0.21855 0.0
H991 H 0.6578 0.62784 0.21013 0.0
H992 H 0.60802 0.68237 0.19585 0.0
H993 H 0.62835 0.67346 0.18336 0.0
H994 H 0.62639 0.72401 0.19457 0.0
H995 H 0.64634 0.71512 0.18169 0.0
H996 H 0.68408 0.68999 0.112 0.0
H997 H 0.72485 0.69135 0.13191 0.0
H998 H 0.71554 0.67778 0.15161 0.0
H999 H 0.67471 0.67688 0.13201 0.0
C1000 C 0.32583 0.67711 0.14045 0.0
C1001 C 0.32759 0.69173 0.14062 0.0
C1002 C 0.31478 0.69368 0.11855 0.0
C1003 C 0.32206 0.69993 0.1298 0.0
C1004 C 0.3135 0.67901 0.11816 0.0
C1005 C 0.31892 0.67081 0.12906 0.0
U1006 U 0.35146 0.66953 0.17035 0.0
O1007 O 0.34756 0.66269 0.19202 0.0
O1008 O 0.35973 0.64943 0.17801 0.0
C1009 C 0.35346 0.65049 0.1902 0.0
C1010 C 0.33068 0.66837 0.15226 0.0
C1011 C 0.34534 0.63806 0.19499 0.0
C1012 C 0.32338 0.62683 0.20205 0.0
C1013 C 0.33071 0.6384 0.19656 0.0
C1014 C 0.34509 0.61419 0.20401 0.0
C1015 C 0.33049 0.6146 0.20601 0.0
C1016 C 0.35242 0.62581 0.19862 0.0
C1017 C 0.38241 0.69505 0.1763 0.0
C1018 C 0.39712 0.69526 0.19717 0.0
C1019 C 0.40261 0.71075 0.17768 0.0
C1020 C 0.39107 0.7054 0.17028 0.0
C1021 C 0.4057 0.70588 0.19129 0.0
C1022 C 0.38557 0.68989 0.18973 0.0
C1023 C 0.36991 0.69016 0.16857 0.0
O1024 O 0.34256 0.66191 0.15037 0.0
O1025 O 0.32963 0.67396 0.16477 0.0
O1026 O 0.35797 0.6911 0.17528 0.0
O1027 O 0.37115 0.67832 0.16179 0.0
H1028 H 0.33303 0.69682 0.14923 0.0
H1029 H 0.32336 0.7112 0.1303 0.0
H1030 H 0.30786 0.6739 0.1097 0.0
H1031 H 0.31749 0.65955 0.12873 0.0
H1032 H 0.3122 0.62765 0.20358 0.0
H1033 H 0.32495 0.64771 0.1938 0.0
H1034 H 0.35091 0.6049 0.20667 0.0
H1035 H 0.36369 0.62529 0.19744 0.0
H1036 H 0.39909 0.69137 0.20767 0.0
H1037 H 0.40911 0.71874 0.17273 0.0
H1038 H 0.38882 0.70946 0.15989 0.0
H1039 H 0.37897 0.68189 0.19455 0.0
C1040 C 0.33008 0.34627 0.14248 0.0
C1041 C 0.3292 0.33158 0.1431 0.0
C1042 C 0.31994 0.3308 0.1192 0.0
C1043 C 0.32415 0.32394 0.1316 0.0
C1044 C 0.32118 0.3455 0.11854 0.0
C1045 C 0.32614 0.35312 0.13007 0.0
U1046 U 0.35473 0.35426 0.17355 0.0
O1047 O 0.36258 0.37463 0.18133 0.0
O1048 O 0.3499 0.3609 0.19498 0.0
C1049 C 0.3559 0.37328 0.19331 0.0
C1050 C 0.33456 0.35467 0.15473 0.0
C1051 C 0.34774 0.38548 0.1978 0.0
C1052 C 0.32567 0.39635 0.20381 0.0
C1053 C 0.33304 0.38495 0.1986 0.0
C1054 C 0.34751 0.40914 0.20707 0.0
C1055 C 0.33281 0.40856 0.20827 0.0
C1056 C 0.35487 0.39772 0.20194 0.0
C1057 C 0.3861 0.33015 0.18033 0.0
C1058 C 0.39989 0.32907 0.20182 0.0
C1059 C 0.40715 0.31621 0.18137 0.0
C1060 C 0.39566 0.32129 0.17389 0.0
C1061 C 0.40933 0.31987 0.1955 0.0
C1062 C 0.38837 0.33417 0.1943 0.0
C1063 C 0.37364 0.3346 0.17241 0.0
O1064 O 0.33323 0.34869 0.16712 0.0
O1065 O 0.34636 0.36182 0.15332 0.0
O1066 O 0.37482 0.34654 0.16558 0.0
O1067 O 0.36156 0.33301 0.17885 0.0
H1068 H 0.33221 0.32599 0.15253 0.0
H1069 H 0.32321 0.31268 0.13261 0.0
H1070 H 0.3183 0.35115 0.10911 0.0
H1071 H 0.32677 0.36443 0.12932 0.0
H1072 H 0.31439 0.3954 0.20471 0.0
H1073 H 0.32726 0.37564 0.19544 0.0
H1074 H 0.35338 0.41843 0.21013 0.0
H1075 H 0.3662 0.39839 0.20137 0.0
H1076 H 0.40115 0.33201 0.21271 0.0
H1077 H 0.41432 0.30936 0.17607 0.0
H1078 H 0.39412 0.31813 0.16309 0.0
H1079 H 0.3811 0.34103 0.19946 0.0
C1080 C 0.63824 0.32713 0.17869 0.0
C1081 C 0.62825 0.33632 0.18401 0.0
C1082 C 0.61493 0.31663 0.19397 0.0
C1083 C 0.61668 0.33111 0.19154 0.0
C1084 C 0.62508 0.30753 0.1887 0.0
C1085 C 0.63656 0.31273 0.18112 0.0
U1086 U 0.66834 0.35341 0.17149 0.0
O1087 O 0.69022 0.34929 0.16572 0.0
O1088 O 0.67681 0.36133 0.15149 0.0
C1089 C 0.68887 0.35507 0.15326 0.0
C1090 C 0.65049 0.33221 0.17061 0.0
C1091 C 0.69408 0.34681 0.14133 0.0
C1092 C 0.69051 0.33472 0.11915 0.0
C1093 C 0.68515 0.34214 0.13051 0.0
C1094 C 0.71373 0.33632 0.12936 0.0
C1095 C 0.7049 0.33174 0.11839 0.0
C1096 C 0.70839 0.3438 0.14065 0.0
C1097 C 0.67314 0.38532 0.19559 0.0
C1098 C 0.69388 0.40043 0.19623 0.0
C1099 C 0.6737 0.40593 0.21037 0.0
C1100 C 0.66662 0.39414 0.20516 0.0
C1101 C 0.68749 0.40914 0.20613 0.0
C1102 C 0.68676 0.38861 0.19101 0.0
C1103 C 0.66574 0.3725 0.191 0.0
O1104 O 0.64891 0.34378 0.16326 0.0
O1105 O 0.66259 0.33171 0.17721 0.0
O1106 O 0.67253 0.36077 0.1929 0.0
O1107 O 0.65936 0.37318 0.17878 0.0
H1108 H 0.62934 0.3475 0.18233 0.0
H1109 H 0.60904 0.33844 0.19531 0.0
H1110 H 0.6243 0.29636 0.19059 0.0
H1111 H 0.64419 0.30547 0.17719 0.0
H1112 H 0.6834 0.33151 0.11086 0.0
H1113 H 0.67405 0.34429 0.13076 0.0
H1114 H 0.7248 0.334 0.12934 0.0
H1115 H 0.71547 0.34725 0.14888 0.0
H1116 H 0.70453 0.40248 0.19284 0.0
H1117 H 0.66837 0.41251 0.21778 0.0
H1118 H 0.65608 0.39179 0.20876 0.0
H1119 H 0.69197 0.3819 0.18362 0.0
C1120 C 0.63455 0.33192 0.84933 0.0
C1121 C 0.6297 0.33952 0.8377 0.0
C1122 C 0.61108 0.32211 0.83391 0.0
C1123 C 0.61804 0.33467 0.83005 0.0
C1124 C 0.61596 0.31468 0.8457 0.0
C1125 C 0.62756 0.31955 0.85332 0.0
U1126 U 0.66692 0.35572 0.8551 0.0
O1127 O 0.67671 0.36279 0.87485 0.0
O1128 O 0.68843 0.34966 0.86037 0.0
C1129 C 0.68804 0.35539 0.87285 0.0
C1130 C 0.64723 0.33629 0.85707 0.0
C1131 C 0.69288 0.34643 0.88461 0.0
C1132 C 0.69083 0.33732 0.90849 0.0
C1133 C 0.68588 0.34584 0.89758 0.0
C1134 C 0.70989 0.32995 0.89373 0.0
C1135 C 0.70282 0.32917 0.90663 0.0
C1136 C 0.70502 0.33851 0.8829 0.0
C1137 C 0.67581 0.38601 0.82972 0.0
C1138 C 0.68545 0.40976 0.83133 0.0
C1139 C 0.69272 0.39463 0.81255 0.0
C1140 C 0.68383 0.38402 0.8176 0.0
C1141 C 0.69372 0.4076 0.81939 0.0
C1142 C 0.67659 0.39907 0.83646 0.0
C1143 C 0.66649 0.37451 0.83487 0.0
O1144 O 0.65909 0.33451 0.85042 0.0
O1145 O 0.64668 0.34833 0.86362 0.0
O1146 O 0.66028 0.37626 0.84702 0.0
O1147 O 0.67124 0.36178 0.83326 0.0
H1148 H 0.63501 0.3491 0.83445 0.0
H1149 H 0.6145 0.34073 0.82113 0.0
H1150 H 0.61107 0.30485 0.84884 0.0
H1151 H 0.63124 0.31349 0.86221 0.0
H1152 H 0.68514 0.3369 0.91829 0.0
H1153 H 0.67656 0.35189 0.8993 0.0
H1154 H 0.7193 0.32401 0.89203 0.0
H1155 H 0.71077 0.33893 0.87313 0.0
H1156 H 0.68602 0.41962 0.83686 0.0
H1157 H 0.69874 0.39271 0.80317 0.0
H1158 H 0.68327 0.3742 0.812 0.0
H1159 H 0.67043 0.40104 0.84573 0.0
C1160 C 0.63443 0.67653 0.83112 0.0
C1161 C 0.62467 0.68215 0.84045 0.0
C1162 C 0.61158 0.69222 0.82087 0.0
C1163 C 0.61335 0.68988 0.83537 0.0
C1164 C 0.62155 0.68673 0.81163 0.0
C1165 C 0.63279 0.67896 0.8167 0.0
U1166 U 0.66472 0.66802 0.85649 0.0
O1167 O 0.67152 0.64751 0.86455 0.0
O1168 O 0.68586 0.66055 0.85191 0.0
C1169 C 0.68357 0.64831 0.85794 0.0
C1170 C 0.64621 0.66788 0.83602 0.0
C1171 C 0.68754 0.63583 0.84984 0.0
C1172 C 0.69379 0.62464 0.82791 0.0
C1173 C 0.68901 0.63631 0.83518 0.0
C1174 C 0.69521 0.61166 0.84973 0.0
C1175 C 0.69713 0.61219 0.8351 0.0
C1176 C 0.69052 0.62336 0.857 0.0
C1177 C 0.67253 0.69254 0.88758 0.0
C1178 C 0.69223 0.69004 0.90363 0.0
C1179 C 0.67622 0.70924 0.90637 0.0
C1180 C 0.66847 0.70448 0.89484 0.0
C1181 C 0.68824 0.70213 0.91091 0.0
C1182 C 0.68443 0.68528 0.89206 0.0
C1183 C 0.66441 0.68815 0.87516 0.0
O1184 O 0.65877 0.6736 0.83483 0.0
O1185 O 0.64441 0.661 0.84788 0.0
O1186 O 0.65705 0.67647 0.87643 0.0
O1187 O 0.67101 0.68921 0.86312 0.0
H1188 H 0.62571 0.68046 0.85165 0.0
H1189 H 0.60585 0.69383 0.8428 0.0
H1190 H 0.62076 0.68855 0.80044 0.0
H1191 H 0.64022 0.67478 0.80932 0.0
H1192 H 0.69527 0.62555 0.81669 0.0
H1193 H 0.68675 0.64578 0.82936 0.0
H1194 H 0.69741 0.60222 0.85562 0.0
H1195 H 0.68942 0.62273 0.8683 0.0
H1196 H 0.70134 0.68423 0.9069 0.0
H1197 H 0.67296 0.71871 0.91151 0.0
H1198 H 0.65936 0.71026 0.89147 0.0
H1199 H 0.68772 0.67602 0.88655 0.0
C1200 C 0.32432 0.64042 0.84944 0.0
C1201 C 0.33374 0.63086 0.84376 0.0
C1202 C 0.31425 0.61679 0.8345 0.0
C1203 C 0.32875 0.61913 0.83639 0.0
C1204 C 0.30491 0.62652 0.84012 0.0
C1205 C 0.3099 0.63816 0.84753 0.0
U1206 U 0.34982 0.67128 0.85618 0.0
O1207 O 0.34509 0.69299 0.86193 0.0
O1208 O 0.35766 0.67997 0.87607 0.0
C1209 C 0.35109 0.69185 0.87431 0.0
C1210 C 0.32916 0.65281 0.85739 0.0
C1211 C 0.34286 0.69689 0.88631 0.0
C1212 C 0.32961 0.69285 0.90778 0.0
C1213 C 0.33702 0.68767 0.89631 0.0
C1214 C 0.33356 0.71649 0.89926 0.0
C1215 C 0.32784 0.70736 0.90945 0.0
C1216 C 0.34101 0.71131 0.88787 0.0
C1217 C 0.38136 0.67718 0.8317 0.0
C1218 C 0.3956 0.6985 0.83055 0.0
C1219 C 0.40212 0.67826 0.81704 0.0
C1220 C 0.39057 0.67082 0.82237 0.0
C1221 C 0.4047 0.69226 0.8209 0.0
C1222 C 0.38403 0.69102 0.8359 0.0
C1223 C 0.36882 0.66934 0.83644 0.0
O1224 O 0.34089 0.65158 0.86456 0.0
O1225 O 0.3282 0.66486 0.85077 0.0
O1226 O 0.35682 0.67571 0.83466 0.0
O1227 O 0.36983 0.66297 0.84865 0.0
H1228 H 0.34494 0.63241 0.84505 0.0
H1229 H 0.33626 0.61183 0.83234 0.0
H1230 H 0.29371 0.62529 0.83864 0.0
H1231 H 0.30246 0.64546 0.85175 0.0
H1232 H 0.32548 0.68549 0.91546 0.0
H1233 H 0.33825 0.67647 0.89533 0.0
H1234 H 0.33218 0.72769 0.89997 0.0
H1235 H 0.34536 0.71861 0.88024 0.0
H1236 H 0.39717 0.70929 0.83367 0.0
H1237 H 0.40901 0.67304 0.80983 0.0
H1238 H 0.38871 0.66013 0.81905 0.0
H1239 H 0.37702 0.6961 0.84311 0.0
C1240 C 0.34538 0.38428 0.83026 0.0
C1241 C 0.33066 0.38396 0.82996 0.0
C1242 C 0.33035 0.40774 0.82042 0.0
C1243 C 0.32324 0.39554 0.82505 0.0
C1244 C 0.3451 0.4081 0.82107 0.0
C1245 C 0.35251 0.39648 0.82589 0.0
U1246 U 0.35243 0.3527 0.85441 0.0
O1247 O 0.35903 0.33145 0.8492 0.0
O1248 O 0.37258 0.34477 0.86233 0.0
C1249 C 0.3713 0.333 0.85535 0.0
C1250 C 0.35354 0.37195 0.83462 0.0
C1251 C 0.38366 0.32876 0.84719 0.0
C1252 C 0.3949 0.32324 0.82505 0.0
C1253 C 0.38338 0.32823 0.83246 0.0
C1254 C 0.40734 0.31968 0.84692 0.0
C1255 C 0.40699 0.31875 0.83219 0.0
C1256 C 0.39579 0.32458 0.85431 0.0
C1257 C 0.32746 0.34517 0.88533 0.0
C1258 C 0.33027 0.32628 0.90229 0.0
C1259 C 0.30994 0.34107 0.90336 0.0
C1260 C 0.31484 0.34867 0.89176 0.0
C1261 C 0.31757 0.32977 0.90881 0.0
C1262 C 0.33518 0.33393 0.89065 0.0
C1263 C 0.33224 0.35335 0.87306 0.0
O1264 O 0.36038 0.37308 0.84656 0.0
O1265 O 0.34742 0.35964 0.83297 0.0
O1266 O 0.33093 0.34712 0.86088 0.0
O1267 O 0.34423 0.36016 0.87451 0.0
H1268 H 0.32489 0.37468 0.8333 0.0
H1269 H 0.31192 0.39477 0.82456 0.0
H1270 H 0.35096 0.41736 0.81786 0.0
H1271 H 0.36386 0.39699 0.82609 0.0
H1272 H 0.39413 0.32254 0.81375 0.0
H1273 H 0.37416 0.33142 0.82667 0.0
H1274 H 0.41654 0.31658 0.85278 0.0
H1275 H 0.39627 0.32495 0.86566 0.0
H1276 H 0.33649 0.31773 0.90626 0.0
H1277 H 0.3 0.34391 0.90789 0.0
H1278 H 0.30871 0.35728 0.88775 0.0
H1279 H 0.34497 0.33107 0.8858 0.0
H1280 H 0.26738 0.2852 0.99928 0.0
H1281 H 0.23596 0.25246 1.00009 0.0
H1282 H 0.26196 0.25819 0.96374 0.0
H1283 H 0.24653 0.28674 0.01445 0.0
H1284 H 0.23393 0.27288 0.01516 0.0
H1285 H 0.26719 0.28664 0.02945 0.0
H1286 H 0.26578 0.25856 0.06485 0.0
H1287 H 0.23789 0.25192 0.02994 0.0
C1288 C 0.26238 0.27621 0.99439 0.0
C1289 C 0.26643 0.27219 0.98083 0.0
C1290 C 0.25141 0.26911 1.00141 0.0
C1291 C 0.24463 0.25771 0.99484 0.0
C1292 C 0.24847 0.25357 0.98126 0.0
C1293 C 0.25948 0.26079 0.97448 0.0
C1294 C 0.24539 0.27513 0.0147 0.0
C1295 C 0.25219 0.26956 0.02793 0.0
C1296 C 0.26307 0.27724 0.03447 0.0
C1297 C 0.2681 0.27331 0.0478 0.0
C1298 C 0.26243 0.26129 0.05431 0.0
C1299 C 0.25153 0.25351 0.04801 0.0
C1300 C 0.24654 0.25764 0.03474 0.0
H1301 H 0.76575 0.23821 0.0289 0.0
H1302 H 0.73611 0.27168 0.02882 0.0
H1303 H 0.76393 0.26629 0.06388 0.0
H1304 H 0.7447 0.23714 0.01404 0.0
H1305 H 0.73253 0.25104 0.0139 0.0
H1306 H 0.7679 0.24001 1.00129 0.0
H1307 H 0.76466 0.26493 0.96378 0.0
H1308 H 0.73395 0.26887 0.99625 0.0
C1309 C 0.76153 0.24742 0.03379 0.0
C1310 C 0.76648 0.25158 0.04707 0.0
C1311 C 0.75065 0.25468 0.02707 0.0
C1312 C 0.7448 0.26633 0.03372 0.0
C1313 C 0.74974 0.27071 0.04692 0.0
C1314 C 0.76066 0.26338 0.05338 0.0
C1315 C 0.74393 0.24874 0.01395 0.0
C1316 C 0.75055 0.25431 1.0006 0.0
C1317 C 0.76276 0.24815 0.9953 0.0
C1318 C 0.768 0.25207 0.98206 0.0
C1319 C 0.76091 0.26219 0.97417 0.0
C1320 C 0.74855 0.26818 0.97908 0.0
C1321 C 0.74364 0.26451 0.9925 0.0
H1322 H 0.73591 0.75265 0.02982 0.0
H1323 H 0.76472 0.78776 0.02927 0.0
H1324 H 0.76413 0.75938 0.06444 0.0
H1325 H 0.73145 0.77355 0.01521 0.0
H1326 H 0.74368 0.78774 0.01461 0.0
H1327 H 0.73377 0.75351 0.99977 0.0
H1328 H 0.75957 0.76029 0.96339 0.0
H1329 H 0.76439 0.78703 0.99919 0.0
C1330 C 0.74457 0.75842 0.03454 0.0
C1331 C 0.74974 0.75427 0.04773 0.0
C1332 C 0.75005 0.77041 0.02771 0.0
C1333 C 0.76083 0.77824 0.03424 0.0
C1334 C 0.76606 0.77428 0.04747 0.0
C1335 C 0.76063 0.76213 0.05396 0.0
C1336 C 0.74286 0.77611 0.01475 0.0
C1337 C 0.74875 0.77058 1.00118 0.0
C1338 C 0.74227 0.75905 0.99453 0.0
C1339 C 0.74614 0.75518 0.98088 0.0
C1340 C 0.757 0.76271 0.97416 0.0
C1341 C 0.76368 0.77418 0.98063 0.0
C1342 C 0.75958 0.77797 0.99423 0.0
H1343 H 0.26153 0.73581 0.0307 0.0
H1344 H 0.23411 0.77078 0.02523 0.0
H1345 H 0.25953 0.76766 0.0623 0.0
H1346 H 0.24384 0.73513 0.01274 0.0
H1347 H 0.23077 0.74821 0.01205 0.0
H1348 H 0.26477 0.73703 0.99806 0.0
H1349 H 0.26378 0.76685 0.96417 0.0
H1350 H 0.23423 0.76974 0.99789 0.0
C1351 C 0.25772 0.74578 0.0343 0.0
C1352 C 0.26175 0.75078 0.0476 0.0
C1353 C 0.24795 0.75308 0.02601 0.0
C1354 C 0.24216 0.76548 0.0312 0.0
C1355 C 0.24638 0.77078 0.04428 0.0
C1356 C 0.25643 0.7636 0.05214 0.0
C1357 C 0.24229 0.74665 0.01264 0.0
C1358 C 0.24901 0.75293 0.99965 0.0
C1359 C 0.26042 0.74633 0.99328 0.0
C1360 C 0.2659 0.75141 0.98053 0.0
C1361 C 0.25999 0.7633 0.97431 0.0
C1362 C 0.24853 0.76996 0.9804 0.0
C1363 C 0.24318 0.76479 0.99317 0.0
H1364 H 0.02595 0.23405 0.25625 0.0
H1365 H 0.02512 0.26257 0.29098 0.0
H1366 H 0.06077 0.26219 0.26361 0.0
H1367 H 0.00999 0.2299 0.27588 0.0
H1368 H 0.01041 0.241 0.29079 0.0
H1369 H 0.99499 0.2351 0.25578 0.0
H1370 H 0.96129 0.26344 0.26313 0.0
H1371 H 0.99645 0.26254 0.2914 0.0
C1372 C 0.03073 0.24257 0.2621 0.0
C1373 C 0.04404 0.24778 0.25822 0.0
C1374 C 0.02376 0.24798 0.27384 0.0
C1375 C 0.03025 0.25869 0.28169 0.0
C1376 C 0.04356 0.26397 0.27798 0.0
C1377 C 0.05024 0.2586 0.26612 0.0
C1378 C 0.01041 0.24107 0.27912 0.0
C1379 C 0.99737 0.24831 0.27392 0.0
C1380 C 0.99045 0.24348 0.26179 0.0
C1381 C 0.97743 0.24893 0.25777 0.0
C1382 C 0.97161 0.25964 0.26579 0.0
C1383 C 0.97834 0.26465 0.27792 0.0
C1384 C 0.9913 0.25898 0.28189 0.0
H1385 H 0.78597 0.02678 0.2609 0.0
H1386 H 0.75359 0.02589 0.29216 0.0
H1387 H 0.75937 0.06222 0.26581 0.0
H1388 H 0.78747 0.01138 0.28177 0.0
H1389 H 0.77361 0.01042 0.29414 0.0
H1390 H 0.7872 0.99674 0.26101 0.0
H1391 H 0.7584 0.96168 0.26157 0.0
H1392 H 0.75214 0.99631 0.28924 0.0
C1393 C 0.77705 0.03161 0.26581 0.0
C1394 C 0.77312 0.04515 0.26167 0.0
C1395 C 0.76999 0.02456 0.27675 0.0
C1396 C 0.75878 0.03115 0.28347 0.0
C1397 C 0.75475 0.04474 0.27952 0.0
C1398 C 0.76187 0.0515 0.26846 0.0
C1399 C 0.77585 0.01115 0.28271 0.0
C1400 C 0.77008 0.99816 0.27561 0.0
C1401 C 0.7777 0.99173 0.26487 0.0
C1402 C 0.7735 0.97857 0.25961 0.0
C1403 C 0.76131 0.97212 0.265 0.0
C1404 C 0.75351 0.97839 0.27565 0.0
C1405 C 0.75789 0.9915 0.28081 0.0
H1406 H 0.99487 0.73321 0.26952 0.0
H1407 H 0.9951 0.76578 0.2382 0.0
H1408 H 0.95973 0.76052 0.26567 0.0
H1409 H 0.00946 0.73147 0.24857 0.0
H1410 H 0.00936 0.74476 0.23547 0.0
H1411 H 0.02503 0.73325 0.26903 0.0
H1412 H 0.06115 0.76015 0.26347 0.0
H1413 H 0.02488 0.76531 0.23716 0.0
C1414 C 0.99 0.74226 0.26477 0.0
C1415 C 0.97672 0.74642 0.26934 0.0
C1416 C 0.99673 0.74924 0.25357 0.0
C1417 C 0.9901 0.76065 0.24707 0.0
C1418 C 0.97675 0.76491 0.25143 0.0
C1419 C 0.97031 0.75784 0.26272 0.0
C1420 C 0.00962 0.74303 0.24702 0.0
C1421 C 0.02322 0.74898 0.25282 0.0
C1422 C 0.0301 0.74214 0.26394 0.0
C1423 C 0.04378 0.74619 0.26795 0.0
C1424 C 0.05035 0.75747 0.26095 0.0
C1425 C 0.04369 0.76443 0.24979 0.0
C1426 C 0.03001 0.76024 0.24594 0.0
H1427 H 0.23561 0.99698 0.26009 0.0
H1428 H 0.26982 0.99611 0.28961 0.0
H1429 H 0.26406 0.96254 0.26029 0.0
H1430 H 0.23487 0.01053 0.28182 0.0
H1431 H 0.24905 0.01031 0.29394 0.0
H1432 H 0.23584 0.02583 0.26058 0.0
H1433 H 0.26126 0.06299 0.26578 0.0
H1434 H 0.26827 0.02705 0.29204 0.0
C1435 C 0.24501 0.99208 0.26404 0.0
C1436 C 0.24916 0.97917 0.25854 0.0
C1437 C 0.25249 0.99835 0.27517 0.0
C1438 C 0.26433 0.99161 0.2807 0.0
C1439 C 0.26869 0.97877 0.27522 0.0
C1440 C 0.26117 0.97279 0.26402 0.0
C1441 C 0.24651 0.01087 0.28255 0.0
C1442 C 0.25176 0.02474 0.27666 0.0
C1443 C 0.24453 0.03128 0.26557 0.0
C1444 C 0.24803 0.04507 0.26143 0.0
C1445 C 0.25906 0.05211 0.26835 0.0
C1446 C 0.26643 0.04578 0.27941 0.0
C1447 C 0.26284 0.03197 0.28336 0.0
H1448 H 0.99508 0.76757 0.78867 0.0
H1449 H 0.99508 0.73905 0.75394 0.0
H1450 H 0.96037 0.76646 0.75978 0.0
H1451 H 0.00972 0.74672 0.78917 0.0
H1452 H 0.0094 0.73468 0.77503 0.0
H1453 H 0.02465 0.76805 0.78821 0.0
H1454 H 0.06047 0.76545 0.76115 0.0
H1455 H 0.02518 0.73767 0.7551 0.0
C1456 C 0.9902 0.7636 0.77918 0.0
C1457 C 0.97708 0.76868 0.7749 0.0
C1458 C 0.9968 0.75296 0.77162 0.0
C1459 C 0.99022 0.7475 0.75957 0.0
C1460 C 0.97714 0.75247 0.75511 0.0
C1461 C 0.97078 0.76314 0.76276 0.0
C1462 C 0.00972 0.74604 0.77753 0.0
C1463 C 0.02323 0.75244 0.772 0.0
C1464 C 0.02981 0.76355 0.77923 0.0
C1465 C 0.04326 0.76839 0.77536 0.0
C1466 C 0.04985 0.76226 0.76382 0.0
C1467 C 0.04345 0.75121 0.75643 0.0
C1468 C 0.03007 0.7464 0.76053 0.0
H1469 H 0.25643 0.99482 0.78984 0.0
H1470 H 0.28891 1.00038 0.75898 0.0
H1471 H 0.26376 0.9627 0.7595 0.0
H1472 H 0.27592 0.0115 0.79352 0.0
H1473 H 0.28914 0.01398 0.78064 0.0
H1474 H 0.25359 0.02396 0.79194 0.0
H1475 H 0.25451 0.06174 0.76731 0.0
H1476 H 0.28654 0.03107 0.76197 0.0
C1477 C 0.26176 0.99121 0.78056 0.0
C1478 C 0.25866 0.9778 0.77527 0.0
C1479 C 0.27261 0.99949 0.77466 0.0
C1480 C 0.28018 0.99431 0.76319 0.0
C1481 C 0.27698 0.98105 0.75762 0.0
C1482 C 0.26602 0.97307 0.76354 0.0
C1483 C 0.27763 0.01263 0.78203 0.0
C1484 C 0.27039 0.02569 0.77688 0.0
C1485 C 0.25821 0.03029 0.78363 0.0
C1486 C 0.25247 0.04335 0.78027 0.0
C1487 C 0.25883 0.0516 0.76978 0.0
C1488 C 0.27128 0.04748 0.76324 0.0
C1489 C 0.27677 0.03428 0.7666 0.0
H1490 H 0.9948 0.28847 0.75815 0.0
H1491 H 0.99454 0.25593 0.78962 0.0
H1492 H 0.96019 0.25928 0.76051 0.0
H1493 H 0.00959 0.29045 0.77917 0.0
H1494 H 0.00916 0.27724 0.7924 0.0
H1495 H 0.02382 0.28733 0.75747 0.0
H1496 H 0.06013 0.26189 0.76362 0.0
H1497 H 0.02547 0.25803 0.79201 0.0
C1498 C 0.98993 0.27923 0.76279 0.0
C1499 C 0.97693 0.27435 0.75767 0.0
C1500 C 0.99645 0.27251 0.77421 0.0
C1501 C 0.98976 0.26087 0.78056 0.0
C1502 C 0.97669 0.25593 0.77561 0.0
C1503 C 0.97052 0.26262 0.76403 0.0
C1504 C 0.00946 0.27891 0.78084 0.0
C1505 C 0.02289 0.27302 0.7751 0.0
C1506 C 0.02917 0.27911 0.76312 0.0
C1507 C 0.04255 0.275 0.75878 0.0
C1508 C 0.04958 0.26473 0.76654 0.0
C1509 C 0.04354 0.25858 0.7785 0.0
C1510 C 0.03003 0.2625 0.78256 0.0
H1511 H 0.73391 0.9968 0.76188 0.0
H1512 H 0.76901 0.99659 0.79034 0.0
H1513 H 0.76204 0.96215 0.76224 0.0
H1514 H 0.7339 0.01114 0.78298 0.0
H1515 H 0.7481 0.01069 0.79506 0.0
H1516 H 0.73548 0.02592 0.76126 0.0
H1517 H 0.76104 0.06298 0.76646 0.0
H1518 H 0.76727 0.02734 0.79336 0.0
C1519 C 0.74339 0.99196 0.7657 0.0
C1520 C 0.74731 0.97888 0.76042 0.0
C1521 C 0.75124 0.99848 0.77642 0.0
C1522 C 0.76321 0.99183 0.78177 0.0
C1523 C 0.7673 0.97876 0.77658 0.0
C1524 C 0.75938 0.97253 0.76578 0.0
C1525 C 0.74554 0.01122 0.78368 0.0
C1526 C 0.75107 0.02493 0.77767 0.0
C1527 C 0.74412 0.03138 0.76635 0.0
C1528 C 0.74779 0.04508 0.76209 0.0
C1529 C 0.75873 0.05216 0.76914 0.0
C1530 C 0.76583 0.04593 0.78044 0.0
C1531 C 0.76207 0.03219 0.78449 0.0
H1532 H 0.25384 0.73791 0.49988 0.0
H1533 H 0.28577 0.77029 0.49928 0.0
H1534 H 0.25588 0.76725 0.46557 0.0
H1535 H 0.27557 0.73591 0.51408 0.0
H1536 H 0.28822 0.74979 0.51445 0.0
H1537 H 0.25516 0.73601 0.52948 0.0
H1538 H 0.25754 0.76374 0.56477 0.0
H1539 H 0.28491 0.77037 0.52962 0.0
C1540 C 0.25849 0.74715 0.49503 0.0
C1541 C 0.25321 0.75205 0.48215 0.0
C1542 C 0.2701 0.75384 0.50144 0.0
C1543 C 0.27652 0.76542 0.49469 0.0
C1544 C 0.27134 0.7704 0.48179 0.0
C1545 C 0.25955 0.76381 0.47579 0.0
C1546 C 0.27675 0.74751 0.51439 0.0
C1547 C 0.27047 0.75282 0.52787 0.0
C1548 C 0.25956 0.74523 0.5345 0.0
C1549 C 0.25473 0.74917 0.54782 0.0
C1550 C 0.26073 0.76102 0.55425 0.0
C1551 C 0.27159 0.76875 0.54783 0.0
C1552 C 0.27636 0.76464 0.53456 0.0
H1553 H 0.75588 0.7916 0.5289 0.0
H1554 H 0.78496 0.75765 0.52868 0.0
H1555 H 0.75722 0.76262 0.56358 0.0
H1556 H 0.77732 0.79264 0.51438 0.0
H1557 H 0.7889 0.77825 0.51389 0.0
H1558 H 0.75435 0.79155 0.50146 0.0
H1559 H 0.75528 0.76709 0.46388 0.0
H1560 H 0.78638 0.7609 0.49602 0.0
C1561 C 0.75995 0.7822 0.53373 0.0
C1562 C 0.75486 0.77776 0.5469 0.0
C1563 C 0.77074 0.77493 0.52704 0.0
C1564 C 0.77636 0.76303 0.53358 0.0
C1565 C 0.77138 0.75842 0.5467 0.0
C1566 C 0.76054 0.76574 0.55314 0.0
C1567 C 0.77761 0.78101 0.51404 0.0
C1568 C 0.77064 0.77616 0.5006 0.0
C1569 C 0.75884 0.78319 0.4954 0.0
C1570 C 0.75328 0.77997 0.48212 0.0
C1571 C 0.75946 0.76942 0.4742 0.0
C1572 C 0.77158 0.76262 0.47891 0.0
C1573 C 0.77688 0.7658 0.49234 0.0
H1574 H 0.78616 0.26724 0.53047 0.0
H1575 H 0.75373 0.23543 0.52822 0.0
H1576 H 0.75962 0.2593 0.56594 0.0
H1577 H 0.78759 0.24827 0.5135 0.0
H1578 H 0.77474 0.23462 0.5131 0.0
H1579 H 0.78513 0.26916 0.49901 0.0
H1580 H 0.75531 0.26652 0.4652 0.0
H1581 H 0.75274 0.23725 0.49954 0.0
C1582 C 0.77718 0.26189 0.53506 0.0
C1583 C 0.77343 0.26473 0.54897 0.0
C1584 C 0.77013 0.25125 0.52749 0.0
C1585 C 0.75893 0.24385 0.53387 0.0
C1586 C 0.75491 0.24681 0.54771 0.0
C1587 C 0.7622 0.25732 0.55508 0.0
C1588 C 0.77609 0.24619 0.51376 0.0
C1589 C 0.76937 0.25279 0.50098 0.0
C1590 C 0.77584 0.26442 0.49437 0.0
C1591 C 0.77074 0.26952 0.48148 0.0
C1592 C 0.75889 0.26305 0.47543 0.0
C1593 C 0.75231 0.25142 0.48181 0.0
C1594 C 0.75755 0.24641 0.49467 0.0
H1595 H 0.25547 0.29358 0.53053 0.0
H1596 H 0.28437 0.25948 0.53047 0.0
H1597 H 0.25621 0.26437 0.56504 0.0
H1598 H 0.27615 0.29458 0.51571 0.0
H1599 H 0.28884 0.28118 0.51658 0.0
H1600 H 0.255 0.29185 0.50065 0.0
H1601 H 0.26064 0.26534 0.46489 0.0
H1602 H 0.28775 0.26142 0.50072 0.0
C1603 C 0.25944 0.28414 0.53537 0.0
C1604 C 0.25419 0.27968 0.54846 0.0
C1605 C 0.27027 0.27686 0.52877 0.0
C1606 C 0.27573 0.26487 0.53529 0.0
C1607 C 0.27052 0.26019 0.54829 0.0
C1608 C 0.25967 0.26755 0.55467 0.0
C1609 C 0.27737 0.28302 0.51594 0.0
C1610 C 0.27171 0.27701 0.50237 0.0
C1611 C 0.26027 0.28329 0.49559 0.0
C1612 C 0.25612 0.27909 0.48206 0.0
C1613 C 0.26329 0.26816 0.47558 0.0
C1614 C 0.2747 0.26171 0.48218 0.0
C1615 C 0.27876 0.26611 0.49566 0.0
H1616 H 0.78704 0.53237 0.76206 0.0
H1617 H 0.7539 0.52535 0.79184 0.0
H1618 H 0.75522 0.56325 0.76741 0.0
H1619 H 0.78947 0.51512 0.78058 0.0
H1620 H 0.77629 0.51281 0.79352 0.0
H1621 H 0.78892 0.5015 0.75892 0.0
H1622 H 0.76365 0.4639 0.75995 0.0
H1623 H 0.75668 0.49628 0.79009 0.0
C1624 C 0.77724 0.53561 0.76663 0.0
C1625 C 0.77188 0.54888 0.76335 0.0
C1626 C 0.77068 0.52694 0.77675 0.0
C1627 C 0.75858 0.53165 0.78355 0.0
C1628 C 0.75296 0.54479 0.78024 0.0
C1629 C 0.75943 0.55305 0.76983 0.0
C1630 C 0.77794 0.51395 0.78202 0.0
C1631 C 0.77288 0.5007 0.77486 0.0
C1632 C 0.78025 0.49548 0.76327 0.0
C1633 C 0.77692 0.4822 0.75779 0.0
C1634 C 0.76599 0.4743 0.76388 0.0
C1635 C 0.75872 0.47917 0.77561 0.0
C1636 C 0.76196 0.49257 0.78081 0.0
H1637 H 0.25063 0.52782 0.74029 0.0
H1638 H 0.28324 0.52793 0.77165 0.0
H1639 H 0.25342 0.56112 0.77033 0.0
H1640 H 0.27134 0.51353 0.73732 0.0
H1641 H 0.2854 0.51437 0.74963 0.0
H1642 H 0.25061 0.498 0.74171 0.0
H1643 H 0.25852 0.46244 0.76826 0.0
H1644 H 0.28643 0.49816 0.76932 0.0
C1645 C 0.25551 0.53247 0.74946 0.0
C1646 C 0.25035 0.54508 0.75479 0.0
C1647 C 0.26727 0.5261 0.7556 0.0
C1648 C 0.27391 0.53251 0.76717 0.0
C1649 C 0.26882 0.54506 0.77265 0.0
C1650 C 0.25696 0.55111 0.76652 0.0
C1651 C 0.27378 0.51355 0.74874 0.0
C1652 C 0.26882 0.49981 0.75512 0.0
C1653 C 0.25673 0.49299 0.74985 0.0
C1654 C 0.25286 0.47954 0.75466 0.0
C1655 C 0.26107 0.47307 0.76501 0.0
C1656 C 0.27322 0.47962 0.77035 0.0
C1657 C 0.27695 0.49309 0.76545 0.0
H1658 H 0.28697 0.52585 0.26068 0.0
H1659 H 0.25454 0.52568 0.29186 0.0
H1660 H 0.26033 0.5614 0.26469 0.0
H1661 H 0.28845 0.51101 0.28209 0.0
H1662 H 0.27431 0.51005 0.29416 0.0
H1663 H 0.28876 0.49623 0.26141 0.0
H1664 H 0.25996 0.46121 0.26118 0.0
H1665 H 0.25311 0.49572 0.28892 0.0
C1666 C 0.27806 0.53082 0.26546 0.0
C1667 C 0.27412 0.54425 0.26099 0.0
C1668 C 0.27099 0.52402 0.27655 0.0
C1669 C 0.25976 0.53075 0.28309 0.0
C1670 C 0.25572 0.54424 0.27881 0.0
C1671 C 0.26286 0.55075 0.26761 0.0
C1672 C 0.27681 0.51071 0.28278 0.0
C1673 C 0.27128 0.49764 0.27563 0.0
C1674 C 0.27915 0.49124 0.26505 0.0
C1675 C 0.27502 0.47814 0.25965 0.0
C1676 C 0.26276 0.47163 0.26476 0.0
C1677 C 0.25479 0.4778 0.27536 0.0
C1678 C 0.25903 0.49094 0.28059 0.0
H1679 H 0.75286 0.52527 0.23866 0.0
H1680 H 0.78498 0.52518 0.27054 0.0
H1681 H 0.75519 0.55839 0.26891 0.0
H1682 H 0.77424 0.51141 0.23586 0.0
H1683 H 0.78746 0.51139 0.24908 0.0
H1684 H 0.7516 0.49763 0.23969 0.0
H1685 H 0.75711 0.45971 0.26331 0.0
H1686 H 0.78808 0.49279 0.26593 0.0
C1687 C 0.75759 0.52985 0.24795 0.0
C1688 C 0.75234 0.5424 0.2533 0.0
C1689 C 0.76925 0.52343 0.25425 0.0
C1690 C 0.77572 0.52979 0.26594 0.0
C1691 C 0.77058 0.54234 0.27138 0.0
C1692 C 0.75879 0.5484 0.26512 0.0
C1693 C 0.77591 0.51093 0.24741 0.0
C1694 C 0.77011 0.49708 0.25282 0.0
C1695 C 0.75748 0.49158 0.24728 0.0
C1696 C 0.75274 0.47809 0.25107 0.0
C1697 C 0.76068 0.47019 0.26055 0.0
C1698 C 0.77358 0.47519 0.2658 0.0
C1699 C 0.77804 0.48885 0.26218 0.0
H1700 H 0.52607 0.23595 0.75547 0.0
H1701 H 0.52439 0.26697 0.78789 0.0
H1702 H 0.56036 0.26506 0.76095 0.0
H1703 H 0.50997 0.23293 0.775 0.0
H1704 H 0.51042 0.24475 0.78933 0.0
H1705 H 0.49511 0.23741 0.75436 0.0
H1706 H 0.46069 0.26504 0.76089 0.0
H1707 H 0.49564 0.26546 0.78951 0.0
C1708 C 0.53063 0.24497 0.7607 0.0
C1709 C 0.54385 0.25015 0.75652 0.0
C1710 C 0.5235 0.25108 0.77196 0.0
C1711 C 0.52972 0.26249 0.77902 0.0
C1712 C 0.54302 0.2677 0.77508 0.0
C1713 C 0.54985 0.26157 0.76368 0.0
C1714 C 0.51028 0.24425 0.77768 0.0
C1715 C 0.49709 0.25103 0.77226 0.0
C1716 C 0.49037 0.2458 0.76017 0.0
C1717 C 0.47728 0.25092 0.75594 0.0
C1718 C 0.47109 0.26157 0.76375 0.0
C1719 C 0.47754 0.26685 0.77592 0.0
C1720 C 0.49066 0.26164 0.78001 0.0
H1721 H 0.49444 0.78791 0.75748 0.0
H1722 H 0.49381 0.75524 0.78883 0.0
H1723 H 0.45933 0.75932 0.75999 0.0
H1724 H 0.50974 0.78936 0.77823 0.0
H1725 H 0.50922 0.77607 0.7914 0.0
H1726 H 0.52421 0.78675 0.75705 0.0
H1727 H 0.55775 0.75735 0.76024 0.0
H1728 H 0.52372 0.7552 0.78955 0.0
C1729 C 0.48941 0.77877 0.76216 0.0
C1730 C 0.47628 0.77415 0.75711 0.0
C1731 C 0.4959 0.77187 0.7735 0.0
C1732 C 0.48904 0.76033 0.77986 0.0
C1733 C 0.47587 0.75564 0.77496 0.0
C1734 C 0.46972 0.76251 0.76347 0.0
C1735 C 0.50926 0.77782 0.77985 0.0
C1736 C 0.52228 0.77144 0.77372 0.0
C1737 C 0.52886 0.7777 0.76201 0.0
C1738 C 0.54165 0.77262 0.757 0.0
C1739 C 0.54762 0.76098 0.76366 0.0
C1740 C 0.54129 0.75466 0.7754 0.0
C1741 C 0.52856 0.75989 0.78035 0.0
H1742 H 0.52504 0.7349 0.25517 0.0
H1743 H 0.52438 0.76561 0.28798 0.0
H1744 H 0.55999 0.76323 0.26062 0.0
H1745 H 0.50927 0.73199 0.27517 0.0
H1746 H 0.50976 0.74405 0.2893 0.0
H1747 H 0.49459 0.73626 0.25439 0.0
H1748 H 0.46006 0.76381 0.2606 0.0
H1749 H 0.4952 0.765 0.28897 0.0
C1750 C 0.52984 0.74379 0.26045 0.0
C1751 C 0.54312 0.74874 0.25619 0.0
C1752 C 0.52295 0.74994 0.27184 0.0
C1753 C 0.52951 0.76112 0.27897 0.0
C1754 C 0.54288 0.76606 0.27497 0.0
C1755 C 0.54944 0.75994 0.26342 0.0
C1756 C 0.50966 0.74335 0.27765 0.0
C1757 C 0.49653 0.75014 0.27207 0.0
C1758 C 0.48981 0.74471 0.26008 0.0
C1759 C 0.47669 0.7497 0.25579 0.0
C1760 C 0.4705 0.76046 0.26345 0.0
C1761 C 0.47702 0.76609 0.27543 0.0
C1762 C 0.49015 0.76095 0.2796 0.0
H1763 H 0.497 0.28609 0.25795 0.0
H1764 H 0.49654 0.25393 0.28983 0.0
H1765 H 0.46205 0.25734 0.26096 0.0
H1766 H 0.51233 0.28792 0.27874 0.0
H1767 H 0.51205 0.27467 0.29197 0.0
H1768 H 0.52665 0.28542 0.2575 0.0
H1769 H 0.55995 0.25572 0.25987 0.0
H1770 H 0.52646 0.25374 0.28987 0.0
C1771 C 0.49201 0.27702 0.26279 0.0
C1772 C 0.4789 0.27225 0.25782 0.0
C1773 C 0.49853 0.27035 0.27424 0.0
C1774 C 0.49174 0.25887 0.28078 0.0
C1775 C 0.47862 0.25401 0.27593 0.0
C1776 C 0.47242 0.26067 0.26437 0.0
C1777 C 0.51192 0.27638 0.28042 0.0
C1778 C 0.52486 0.27002 0.27412 0.0
C1779 C 0.53129 0.27629 0.26234 0.0
C1780 C 0.54391 0.2711 0.25707 0.0
C1781 C 0.54993 0.2594 0.26355 0.0
C1782 C 0.5438 0.25312 0.27542 0.0
C1783 C 0.53118 0.25841 0.2806 0.0
H1784 H 0.19382 0.21269 0.10477 0.0
H1785 H 0.26355 0.23204 0.06263 0.0
H1786 H 0.23191 0.18912 0.10837 0.0
H1787 H 0.22339 0.24962 0.05255 0.0
H1788 H 0.252 0.21582 0.07902 0.0
H1789 H 0.20419 0.22595 0.08531 0.0
C1790 C 0.20429 0.21017 0.10141 0.0
C1791 C 0.212 0.19979 0.10838 0.0
C1792 C 0.24567 0.22309 0.0731 0.0
C1793 C 0.22405 0.21516 0.08615 0.0
C1794 C 0.25226 0.23234 0.06374 0.0
C1795 C 0.24442 0.2422 0.05623 0.0
C1796 C 0.23113 0.22382 0.07516 0.0
C1797 C 0.22982 0.24212 0.05804 0.0
C1798 C 0.21024 0.21781 0.09031 0.0
C1799 C 0.22563 0.19721 0.10359 0.0
N1800 N 0.22367 0.2332 0.06744 0.0
N1801 N 0.23123 0.20488 0.09288 0.0
H1802 H 0.80088 0.18365 0.09582 0.0
H1803 H 0.78845 0.26017 0.06382 0.0
H1804 H 0.81799 0.22156 0.1139 0.0
H1805 H 0.76689 0.22293 0.04931 0.0
H1806 H 0.80204 0.24578 0.08004 0.0
H1807 H 0.79086 0.1975 0.07676 0.0
C1808 C 0.80254 0.19489 0.0958 0.0
C1809 C 0.81019 0.20144 0.10661 0.0
C1810 C 0.79444 0.24074 0.0732 0.0
C1811 C 0.79885 0.21738 0.08464 0.0
C1812 C 0.78667 0.24895 0.06393 0.0
C1813 C 0.7764 0.24279 0.05525 0.0
C1814 C 0.79195 0.22622 0.07383 0.0
C1815 C 0.77474 0.22816 0.05571 0.0
C1816 C 0.79688 0.20278 0.08485 0.0
C1817 C 0.81226 0.21602 0.10579 0.0
N1818 N 0.78232 0.2204 0.06493 0.0
N1819 N 0.80655 0.22349 0.09506 0.0
H1820 H 0.82556 0.80604 0.10889 0.0
H1821 H 0.7649 0.80273 0.05055 0.0
H1822 H 0.79565 0.83883 0.10191 0.0
H1823 H 0.78912 0.76699 0.06309 0.0
H1824 H 0.77874 0.81729 0.06661 0.0
H1825 H 0.81462 0.79269 0.08988 0.0
C1826 C 0.8167 0.81046 0.1034 0.0
C1827 C 0.8115 0.8236 0.10715 0.0
C1828 C 0.78113 0.8063 0.06575 0.0
C1829 C 0.79905 0.80839 0.08514 0.0
C1830 C 0.77332 0.79799 0.05646 0.0
C1831 C 0.77581 0.78359 0.05549 0.0
C1832 C 0.79156 0.80019 0.07412 0.0
C1833 C 0.78674 0.77802 0.0636 0.0
C1834 C 0.81051 0.80285 0.09247 0.0
C1835 C 0.80017 0.82886 0.09936 0.0
N1836 N 0.79415 0.7863 0.07262 0.0
N1837 N 0.79432 0.82123 0.0888 0.0
H1838 H 0.19034 0.81118 0.10009 0.0
H1839 H 0.25826 0.79426 0.05579 0.0
H1840 H 0.22751 0.83753 0.10006 0.0
H1841 H 0.2183 0.77393 0.04846 0.0
H1842 H 0.24682 0.81108 0.07103 0.0
H1843 H 0.19986 0.79816 0.08041 0.0
C1844 C 0.20042 0.81437 0.09587 0.0
C1845 C 0.20817 0.82542 0.10192 0.0
C1846 C 0.24048 0.80311 0.0659 0.0
C1847 C 0.21925 0.81035 0.07945 0.0
C1848 C 0.24701 0.79355 0.05717 0.0
C1849 C 0.2392 0.78272 0.05087 0.0
C1850 C 0.22605 0.80168 0.06859 0.0
C1851 C 0.22467 0.78221 0.05304 0.0
C1852 C 0.20587 0.80688 0.08464 0.0
C1853 C 0.22127 0.82889 0.09603 0.0
N1854 N 0.21859 0.79141 0.0619 0.0
N1855 N 0.22643 0.82132 0.08524 0.0
H1856 H 0.1895 0.81565 0.92916 0.0
H1857 H 0.26071 0.79231 0.96674 0.0
H1858 H 0.23028 0.83333 0.9196 0.0
H1859 H 0.22037 0.77349 0.97591 0.0
H1860 H 0.24929 0.80899 0.9511 0.0
H1861 H 0.20018 0.80144 0.94766 0.0
C1862 C 0.20069 0.81657 0.93094 0.0
C1863 C 0.20899 0.8257 0.92274 0.0
C1864 C 0.24289 0.80131 0.95662 0.0
C1865 C 0.22128 0.80953 0.94403 0.0
C1866 C 0.24942 0.79178 0.96556 0.0
C1867 C 0.2415 0.78142 0.97258 0.0
C1868 C 0.22832 0.80047 0.95457 0.0
C1869 C 0.22688 0.78135 0.97078 0.0
C1870 C 0.20677 0.80851 0.94157 0.0
C1871 C 0.22341 0.82659 0.92572 0.0
N1872 N 0.22078 0.79062 0.96185 0.0
N1873 N 0.22908 0.81857 0.93604 0.0
H1874 H 0.18084 0.21259 0.93608 0.0
H1875 H 0.25783 0.23322 0.96346 0.0
H1876 H 0.21877 0.20122 0.91477 0.0
H1877 H 0.21985 0.24987 0.98066 0.0
H1878 H 0.2437 0.21848 0.94782 0.0
H1879 H 0.19498 0.22342 0.95457 0.0
C1880 C 0.19214 0.21234 0.93528 0.0
C1881 C 0.19859 0.20611 0.9237 0.0
C1882 C 0.23846 0.22525 0.95512 0.0
C1883 C 0.2149 0.2184 0.94502 0.0
C1884 C 0.24652 0.23369 0.96406 0.0
C1885 C 0.24006 0.24294 0.97334 0.0
C1886 C 0.22378 0.22601 0.95543 0.0
C1887 C 0.22534 0.24287 0.97378 0.0
C1888 C 0.20022 0.21847 0.9459 0.0
C1889 C 0.21331 0.20582 0.92348 0.0
N1890 N 0.21772 0.23466 0.96488 0.0
N1891 N 0.22095 0.21197 0.93391 0.0
H1892 H 0.83353 0.23415 0.92363 0.0
H1893 H 0.77205 0.2238 0.97987 0.0
H1894 H 0.81333 0.19426 0.93207 0.0
H1895 H 0.79069 0.26371 0.96873 0.0
H1896 H 0.7892 0.2122 0.96496 0.0
H1897 H 0.81991 0.24451 0.94233 0.0
C1898 C 0.82635 0.2275 0.92952 0.0
C1899 C 0.8246 0.21327 0.9262 0.0
C1900 C 0.78965 0.22348 0.96593 0.0
C1901 C 0.80871 0.22521 0.94763 0.0
C1902 C 0.77996 0.23009 0.97455 0.0
C1903 C 0.7799 0.24475 0.97547 0.0
C1904 C 0.79936 0.2316 0.95821 0.0
C1905 C 0.79028 0.2524 0.96821 0.0
C1906 C 0.81849 0.23347 0.94017 0.0
C1907 C 0.81491 0.2053 0.9341 0.0
N1908 N 0.79949 0.24576 0.95981 0.0
N1909 N 0.8073 0.21139 0.94439 0.0
H1910 H 0.82299 0.80359 0.91796 0.0
H1911 H 0.76453 0.80279 0.97813 0.0
H1912 H 0.79609 0.8384 0.92656 0.0
H1913 H 0.78525 0.76573 0.96389 0.0
H1914 H 0.77875 0.81686 0.96185 0.0
H1915 H 0.81162 0.79038 0.9369 0.0
C1916 C 0.8147 0.80849 0.92378 0.0
C1917 C 0.81048 0.82216 0.92051 0.0
C1918 C 0.78029 0.80567 0.96238 0.0
C1919 C 0.79755 0.80709 0.94245 0.0
C1920 C 0.77227 0.79764 0.97178 0.0
C1921 C 0.77366 0.78304 0.97235 0.0
C1922 C 0.78984 0.79908 0.9535 0.0
C1923 C 0.78373 0.77694 0.9637 0.0
C1924 C 0.80827 0.80094 0.93467 0.0
C1925 C 0.79986 0.82799 0.92873 0.0
N1926 N 0.79137 0.78496 0.95459 0.0
N1927 N 0.79376 0.82042 0.93925 0.0
H1928 H 0.09614 0.19027 0.2127 0.0
H1929 H 0.05953 0.26073 0.23763 0.0
H1930 H 0.10704 0.23146 0.19698 0.0
H1931 H 0.04772 0.21979 0.25327 0.0
H1932 H 0.07575 0.24987 0.22137 0.0
H1933 H 0.07747 0.20055 0.22663 0.0
C1934 C 0.09463 0.20147 0.21217 0.0
C1935 C 0.10324 0.20999 0.20363 0.0
C1936 C 0.06953 0.24322 0.22825 0.0
C1937 C 0.08175 0.22183 0.21949 0.0
C1938 C 0.06025 0.24943 0.23754 0.0
C1939 C 0.0523 0.24117 0.24688 0.0
C1940 C 0.07099 0.22861 0.22833 0.0
C1941 C 0.05357 0.22656 0.24619 0.0
C1942 C 0.0839 0.20732 0.22006 0.0
C1943 C 0.1006 0.22442 0.20324 0.0
N1944 N 0.06284 0.22076 0.23719 0.0
N1945 N 0.09017 0.22986 0.21108 0.0
H1946 H 0.83824 0.09962 0.22991 0.0
H1947 H 0.76403 0.06149 0.23982 0.0
H1948 H 0.80275 0.1074 0.20288 0.0
H1949 H 0.80168 0.04824 0.26086 0.0
H1950 H 0.77807 0.0779 0.22568 0.0
H1951 H 0.82518 0.08039 0.24089 0.0
C1952 C 0.82777 0.09721 0.22613 0.0
C1953 C 0.82163 0.10526 0.21542 0.0
C1954 C 0.7833 0.07128 0.23326 0.0
C1955 C 0.80645 0.08328 0.22824 0.0
C1956 C 0.77528 0.06192 0.24133 0.0
C1957 C 0.78169 0.05351 0.25155 0.0
C1958 C 0.79783 0.07239 0.23554 0.0
C1959 C 0.79632 0.05443 0.25302 0.0
C1960 C 0.82028 0.08624 0.23248 0.0
C1961 C 0.80788 0.10171 0.21125 0.0
N1962 N 0.80386 0.06382 0.24523 0.0
N1963 N 0.80074 0.09107 0.21771 0.0
H1964 H 0.90954 0.8188 0.2256 0.0
H1965 H 0.97531 0.76822 0.22281 0.0
H1966 H 0.92817 0.80468 0.18713 0.0
H1967 H 0.95929 0.78529 0.26124 0.0
H1968 H 0.9594 0.78306 0.20954 0.0
H1969 H 0.92866 0.80807 0.23876 0.0
C1970 C 0.91772 0.8136 0.21989 0.0
C1971 C 0.91712 0.81256 0.2052 0.0
C1972 C 0.95945 0.78369 0.22087 0.0
C1973 C 0.939 0.80005 0.22028 0.0
C1974 C 0.96867 0.77529 0.22848 0.0
C1975 C 0.96863 0.7754 0.24321 0.0
C1976 C 0.95002 0.79223 0.228 0.0
C1977 C 0.95954 0.78465 0.24991 0.0
C1978 C 0.92862 0.80741 0.22743 0.0
C1979 C 0.92799 0.80552 0.19844 0.0
N1980 N 0.95053 0.79257 0.24228 0.0
N1981 N 0.93839 0.79948 0.20602 0.0
H1982 H 0.21887 0.9187 0.19776 0.0
H1983 H 0.22061 0.97576 0.25898 0.0
H1984 H 0.18465 0.92556 0.22626 0.0
H1985 H 0.2571 0.9643 0.23538 0.0
H1986 H 0.20633 0.96003 0.24451 0.0
H1987 H 0.23216 0.93751 0.20924 0.0
C1988 C 0.21413 0.92413 0.20642 0.0
C1989 C 0.2006 0.92042 0.21106 0.0
C1990 C 0.21744 0.96105 0.24239 0.0
C1991 C 0.21574 0.94217 0.22414 0.0
C1992 C 0.22558 0.97016 0.25056 0.0
C1993 C 0.2401 0.97133 0.24844 0.0
C1994 C 0.22383 0.95303 0.23198 0.0
C1995 C 0.24598 0.9636 0.2375 0.0
C1996 C 0.22171 0.93494 0.21291 0.0
C1997 C 0.19494 0.9281 0.22216 0.0
N1998 N 0.23785 0.95473 0.22975 0.0
N1999 N 0.20255 0.93853 0.22833 0.0
H2000 H 0.08938 0.80614 0.84403 0.0
H2001 H 0.06052 0.79006 0.7667 0.0
H2002 H 0.10934 0.82131 0.8062 0.0
H2003 H 0.04451 0.7699 0.8041 0.0
H2004 H 0.07626 0.8043 0.78126 0.0
H2005 H 0.07088 0.79537 0.82979 0.0
C2006 C 0.08989 0.80723 0.83273 0.0
C2007 C 0.10107 0.81455 0.82633 0.0
C2008 C 0.0692 0.79686 0.78629 0.0
C2009 C 0.07973 0.80234 0.80993 0.0
C2010 C 0.06021 0.78871 0.77798 0.0
C2011 C 0.05124 0.77864 0.78415 0.0
C2012 C 0.06926 0.79497 0.80091 0.0
C2013 C 0.05114 0.77757 0.79886 0.0
C2014 C 0.07926 0.80113 0.82461 0.0
C2015 C 0.10092 0.81587 0.81164 0.0
N2016 N 0.0601 0.78552 0.80671 0.0
N2017 N 0.09049 0.80975 0.80395 0.0
H2018 H 0.1898 0.10069 0.80885 0.0
H2019 H 0.25058 0.04383 0.8089 0.0
H2020 H 0.21663 0.09214 0.84435 0.0
H2021 H 0.2292 0.0576 0.77147 0.0
H2022 H 0.23499 0.05814 0.82293 0.0
H2023 H 0.20132 0.08215 0.79588 0.0
C2024 C 0.19807 0.09493 0.81396 0.0
C2025 C 0.20228 0.09815 0.82773 0.0
C2026 C 0.23357 0.05788 0.81166 0.0
C2027 C 0.21541 0.07669 0.81294 0.0
C2028 C 0.24238 0.04958 0.80365 0.0
C2029 C 0.24126 0.04958 0.78896 0.0
C2030 C 0.22355 0.06625 0.80496 0.0
C2031 C 0.23054 0.05742 0.78274 0.0
C2032 C 0.20459 0.08427 0.80656 0.0
C2033 C 0.21288 0.09002 0.83385 0.0
N2034 N 0.22219 0.06554 0.79075 0.0
N2035 N 0.21911 0.07976 0.8264 0.0
H2036 H 0.91425 0.19265 0.79526 0.0
H2037 H 0.97293 0.25284 0.80401 0.0
H2038 H 0.92428 0.21198 0.83492 0.0
H2039 H 0.96174 0.23389 0.76451 0.0
H2040 H 0.9569 0.23647 0.81595 0.0
H2041 H 0.93303 0.20631 0.78429 0.0
C2042 C 0.92049 0.19965 0.80172 0.0
C2043 C 0.91763 0.20112 0.81608 0.0
C2044 C 0.95805 0.23581 0.80469 0.0
C2045 C 0.93916 0.21704 0.80344 0.0
C2046 C 0.96731 0.24507 0.79787 0.0
C2047 C 0.96864 0.24479 0.78321 0.0
C2048 C 0.95006 0.22618 0.79679 0.0
C2049 C 0.96092 0.2346 0.7758 0.0
C2050 C 0.9312 0.20753 0.79541 0.0
C2051 C 0.92596 0.21061 0.82379 0.0
N2052 N 0.95192 0.22579 0.78264 0.0
N2053 N 0.93631 0.21822 0.81738 0.0
H2054 H 0.83 0.91626 0.79168 0.0
H2055 H 0.77257 0.97499 0.80469 0.0
H2056 H 0.81357 0.92574 0.83257 0.0
H2057 H 0.78786 0.96374 0.76384 0.0
H2058 H 0.78925 0.95886 0.81541 0.0
H2059 H 0.81623 0.93515 0.78167 0.0
C2060 C 0.82361 0.9224 0.79861 0.0
C2061 C 0.82299 0.91935 0.81303 0.0
C2062 C 0.78905 0.96002 0.80411 0.0
C2063 C 0.80694 0.94101 0.80153 0.0
C2064 C 0.77962 0.96934 0.79798 0.0
C2065 C 0.77876 0.97068 0.78333 0.0
C2066 C 0.79771 0.95198 0.79553 0.0
C2067 C 0.78804 0.96292 0.77517 0.0
C2068 C 0.81566 0.93316 0.79285 0.0
C2069 C 0.81427 0.92756 0.82138 0.0
N2070 N 0.79704 0.95386 0.78137 0.0
N2071 N 0.80658 0.93798 0.81551 0.0
H2072 H 0.21958 0.1117 0.20761 0.0
H2073 H 0.21932 0.04515 0.25889 0.0
H2074 H 0.1818 0.09211 0.22365 0.0
H2075 H 0.25682 0.0632 0.24066 0.0
H2076 H 0.20526 0.06083 0.24439 0.0
H2077 H 0.2332 0.09287 0.21806 0.0
C2078 C 0.2141 0.10337 0.21317 0.0
C2079 C 0.19948 0.10361 0.21481 0.0
C2080 C 0.21656 0.06126 0.24344 0.0
C2081 C 0.21512 0.08203 0.22703 0.0
C2082 C 0.22461 0.0522 0.25164 0.0
C2083 C 0.23931 0.0529 0.2511 0.0
C2084 C 0.22324 0.07115 0.23466 0.0
C2085 C 0.24553 0.06243 0.24161 0.0
C2086 C 0.22192 0.09263 0.21922 0.0
C2087 C 0.19306 0.09256 0.22233 0.0
N2088 N 0.23749 0.07125 0.23389 0.0
N2089 N 0.20091 0.0823 0.22822 0.0
H2090 H 0.22009 0.90227 0.80776 0.0
H2091 H 0.23257 0.98284 0.78658 0.0
H2092 H 0.19033 0.93423 0.8176 0.0
H2093 H 0.26293 0.95031 0.78142 0.0
H2094 H 0.21682 0.96573 0.79815 0.0
H2095 H 0.23573 0.92015 0.79798 0.0
C2096 C 0.21682 0.91308 0.80781 0.0
C2097 C 0.20383 0.91673 0.81341 0.0
C2098 C 0.22695 0.96238 0.79447 0.0
C2099 C 0.2218 0.93741 0.80225 0.0
C2100 C 0.23593 0.97215 0.78791 0.0
C2101 C 0.24898 0.96796 0.78278 0.0
C2102 C 0.2311 0.94838 0.79595 0.0
C2103 C 0.25283 0.95396 0.78484 0.0
C2104 C 0.2258 0.92332 0.80229 0.0
C2105 C 0.20029 0.93096 0.81344 0.0
N2106 N 0.24393 0.94473 0.79117 0.0
N2107 N 0.20919 0.94079 0.80786 0.0
H2108 H 0.11203 0.22389 0.82588 0.0
H2109 H 0.03805 0.23132 0.78654 0.0
H2110 H 0.08795 0.18814 0.81141 0.0
H2111 H 0.06874 0.26466 0.79035 0.0
H2112 H 0.05407 0.21563 0.79924 0.0
H2113 H 0.09413 0.23924 0.8164 0.0
C2114 C 0.10301 0.21923 0.82069 0.0
C2115 C 0.10166 0.20465 0.8193 0.0
C2116 C 0.05722 0.22641 0.79737 0.0
C2117 C 0.08089 0.22228 0.80859 0.0
C2118 C 0.04807 0.23535 0.79022 0.0
C2119 C 0.05217 0.24923 0.78735 0.0
C2120 C 0.07041 0.23151 0.80181 0.0
C2121 C 0.06526 0.25398 0.79226 0.0
C2122 C 0.09273 0.22803 0.81534 0.0
C2123 C 0.08945 0.19929 0.81281 0.0
N2124 N 0.0739 0.24515 0.79922 0.0
N2125 N 0.07958 0.2081 0.80763 0.0
H2126 H 0.80299 0.09441 0.84769 0.0
H2127 H 0.78603 0.06452 0.77106 0.0
H2128 H 0.81692 0.1144 0.80937 0.0
H2129 H 0.76835 0.04726 0.80912 0.0
H2130 H 0.79986 0.08106 0.78509 0.0
H2131 H 0.79251 0.07549 0.83389 0.0
C2132 C 0.80385 0.09485 0.83637 0.0
C2133 C 0.81076 0.10615 0.82971 0.0
C2134 C 0.79306 0.07357 0.79039 0.0
C2135 C 0.79888 0.08432 0.81381 0.0
C2136 C 0.78515 0.06411 0.78238 0.0
C2137 C 0.7759 0.05452 0.78889 0.0
C2138 C 0.79175 0.07349 0.80505 0.0
C2139 C 0.77539 0.05436 0.80362 0.0
C2140 C 0.79793 0.08397 0.8285 0.0
C2141 C 0.8118 0.10591 0.81501 0.0
N2142 N 0.78309 0.06377 0.81117 0.0
N2143 N 0.80586 0.09524 0.80757 0.0
H2144 H 0.92819 0.80295 0.84234 0.0
H2145 H 0.96123 0.79094 0.76635 0.0
H2146 H 0.91162 0.82094 0.80422 0.0
H2147 H 0.97432 0.76875 0.80358 0.0
H2148 H 0.94521 0.80455 0.78059 0.0
H2149 H 0.94709 0.79272 0.82881 0.0
C2150 C 0.9285 0.80477 0.83112 0.0
C2151 C 0.91814 0.81272 0.82442 0.0
C2152 C 0.95169 0.7968 0.78568 0.0
C2153 C 0.93997 0.80114 0.80885 0.0
C2154 C 0.96084 0.78902 0.77755 0.0
C2155 C 0.96907 0.77856 0.78373 0.0
C2156 C 0.9507 0.79415 0.80015 0.0
C2157 C 0.96827 0.77673 0.79834 0.0
C2158 C 0.93937 0.79898 0.82342 0.0
C2159 C 0.91936 0.81497 0.80989 0.0
N2160 N 0.95916 0.78434 0.80602 0.0
N2161 N 0.93 0.80914 0.8026 0.0
H2162 H 0.80205 0.913 0.20554 0.0
H2163 H 0.80221 0.97653 0.25962 0.0
H2164 H 0.83961 0.92995 0.22476 0.0
H2165 H 0.76532 0.96225 0.23729 0.0
H2166 H 0.81636 0.96084 0.24559 0.0
H2167 H 0.78872 0.93197 0.21577 0.0
C2168 C 0.80756 0.92079 0.21176 0.0
C2169 C 0.82201 0.91975 0.21435 0.0
C2170 C 0.80518 0.96124 0.24365 0.0
C2171 C 0.80668 0.94147 0.22633 0.0
C2172 C 0.7971 0.97032 0.25159 0.0
C2173 C 0.78249 0.97068 0.24974 0.0
C2174 C 0.79865 0.95237 0.23381 0.0
C2175 C 0.77649 0.96216 0.23927 0.0
C2176 C 0.7999 0.9316 0.21768 0.0
C2177 C 0.82846 0.93011 0.22269 0.0
N2178 N 0.78455 0.95328 0.23182 0.0
N2179 N 0.82076 0.94045 0.22843 0.0
H2180 H 0.1065 0.82446 0.2209 0.0
H2181 H 0.04514 0.76622 0.22114 0.0
H2182 H 0.09565 0.79881 0.18523 0.0
H2183 H 0.06122 0.78571 0.25872 0.0
H2184 H 0.06106 0.7809 0.20719 0.0
H2185 H 0.08785 0.81278 0.23429 0.0
C2186 C 0.10023 0.81639 0.21585 0.0
C2187 C 0.10279 0.8126 0.20188 0.0
C2188 C 0.06102 0.78207 0.21848 0.0
C2189 C 0.0812 0.79933 0.21716 0.0
C2190 C 0.05181 0.77379 0.22645 0.0
C2191 C 0.05185 0.77469 0.24114 0.0
C2192 C 0.07034 0.79139 0.22521 0.0
C2193 C 0.06094 0.78455 0.24743 0.0
C2194 C 0.08951 0.80978 0.2235 0.0
C2195 C 0.09404 0.80226 0.19587 0.0
N2196 N 0.06985 0.79246 0.23945 0.0
N2197 N 0.08371 0.79597 0.20355 0.0
H2198 H 0.91311 0.23521 0.19527 0.0
H2199 H 0.9735 0.22107 0.25184 0.0
H2200 H 0.92424 0.19392 0.20967 0.0
H2201 H 0.9619 0.26223 0.23754 0.0
H2202 H 0.95715 0.21079 0.23486 0.0
H2203 H 0.93226 0.24509 0.20922 0.0
C2204 C 0.91967 0.22818 0.20124 0.0
C2205 C 0.917 0.21368 0.20128 0.0
C2206 C 0.95827 0.22207 0.23534 0.0
C2207 C 0.93894 0.22502 0.2175 0.0
C2208 C 0.96772 0.22795 0.24495 0.0
C2209 C 0.96904 0.24255 0.24618 0.0
C2210 C 0.95005 0.23083 0.22688 0.0
C2211 C 0.96108 0.25093 0.2371 0.0
C2212 C 0.93058 0.23386 0.20929 0.0
C2213 C 0.92575 0.20517 0.20946 0.0
N2214 N 0.95188 0.24496 0.22792 0.0
N2215 N 0.93629 0.21096 0.21726 0.0
H2216 H 0.21787 0.68125 0.59632 0.0
H2217 H 0.23275 0.75762 0.56404 0.0
H2218 H 0.20141 0.71923 0.6136 0.0
H2219 H 0.25361 0.72048 0.55016 0.0
H2220 H 0.21861 0.74323 0.58004 0.0
H2221 H 0.22864 0.69499 0.57743 0.0
C2222 C 0.21651 0.69247 0.59617 0.0
C2223 C 0.20881 0.69907 0.60672 0.0
C2224 C 0.22618 0.7382 0.5734 0.0
C2225 C 0.22101 0.71489 0.58491 0.0
C2226 C 0.23427 0.74641 0.56425 0.0
C2227 C 0.24451 0.74029 0.55582 0.0
C2228 C 0.22831 0.7237 0.57418 0.0
C2229 C 0.24581 0.72567 0.55639 0.0
C2230 C 0.2226 0.70031 0.58531 0.0
C2231 C 0.20715 0.71363 0.6057 0.0
N2232 N 0.23792 0.71791 0.56551 0.0
N2233 N 0.21326 0.72104 0.59507 0.0
H2234 H 0.78868 0.69104 0.60494 0.0
H2235 H 0.79948 0.75495 0.55109 0.0
H2236 H 0.82629 0.71672 0.60334 0.0
H2237 H 0.75918 0.7363 0.56067 0.0
H2238 H 0.81055 0.73819 0.56705 0.0
H2239 H 0.77878 0.70501 0.58593 0.0
C2240 C 0.79487 0.69962 0.60064 0.0
C2241 C 0.80832 0.70277 0.60594 0.0
C2242 C 0.7993 0.73767 0.56554 0.0
C2243 C 0.79707 0.71867 0.58389 0.0
C2244 C 0.793 0.74714 0.55633 0.0
C2245 C 0.77839 0.74703 0.55459 0.0
C2246 C 0.79095 0.72796 0.57299 0.0
C2247 C 0.77047 0.7368 0.56181 0.0
C2248 C 0.78922 0.70754 0.5897 0.0
C2249 C 0.81594 0.7138 0.5996 0.0
N2250 N 0.77684 0.72773 0.57073 0.0
N2251 N 0.81019 0.72138 0.58896 0.0
H2252 H 0.80598 0.3368 0.59397 0.0
H2253 H 0.78622 0.25819 0.57352 0.0
H2254 H 0.82073 0.30064 0.61668 0.0
H2255 H 0.78016 0.29261 0.54484 0.0
H2256 H 0.79871 0.27389 0.5895 0.0
H2257 H 0.79644 0.32126 0.57585 0.0
C2258 C 0.80737 0.32563 0.59511 0.0
C2259 C 0.8141 0.32007 0.60701 0.0
C2260 C 0.79477 0.27806 0.57968 0.0
C2261 C 0.80297 0.3022 0.58635 0.0
C2262 C 0.78761 0.26909 0.57058 0.0
C2263 C 0.78209 0.27416 0.55791 0.0
C2264 C 0.79631 0.2923 0.57623 0.0
C2265 C 0.78428 0.28833 0.55453 0.0
C2266 C 0.80185 0.31676 0.58476 0.0
C2267 C 0.81537 0.30546 0.60791 0.0
N2268 N 0.7911 0.29698 0.56372 0.0
N2269 N 0.80978 0.29707 0.59781 0.0
H2270 H 0.19971 0.30682 0.61457 0.0
H2271 H 0.25399 0.30831 0.55098 0.0
H2272 H 0.21874 0.34474 0.59812 0.0
H2273 H 0.23197 0.27094 0.56479 0.0
H2274 H 0.23985 0.32206 0.56693 0.0
H2275 H 0.21019 0.29375 0.59546 0.0
C2276 C 0.20594 0.31245 0.60687 0.0
C2277 C 0.2084 0.32693 0.60808 0.0
C2278 C 0.23799 0.31087 0.56637 0.0
C2279 C 0.22064 0.31192 0.58619 0.0
C2280 C 0.24599 0.303 0.55714 0.0
C2281 C 0.24426 0.28839 0.55657 0.0
C2282 C 0.22821 0.3041 0.57518 0.0
C2283 C 0.23386 0.28213 0.56504 0.0
C2284 C 0.212 0.30495 0.59597 0.0
C2285 C 0.21676 0.33357 0.59782 0.0
N2286 N 0.22634 0.28999 0.57407 0.0
N2287 N 0.22263 0.32601 0.58739 0.0
H2288 H 0.21634 0.34451 0.43411 0.0
H2289 H 0.23553 0.26885 0.4645 0.0
H2290 H 0.20318 0.30569 0.41486 0.0
H2291 H 0.25281 0.30756 0.48062 0.0
H2292 H 0.22088 0.28226 0.44836 0.0
H2293 H 0.22718 0.33122 0.45312 0.0
C2294 C 0.2157 0.33319 0.43387 0.0
C2295 C 0.20894 0.32624 0.42274 0.0
C2296 C 0.22777 0.28782 0.45553 0.0
C2297 C 0.22124 0.31092 0.44463 0.0
C2298 C 0.23614 0.28017 0.46475 0.0
C2299 C 0.24553 0.28706 0.47387 0.0
C2300 C 0.22876 0.3025 0.45538 0.0
C2301 C 0.24568 0.30177 0.47388 0.0
C2302 C 0.22184 0.32561 0.44479 0.0
C2303 C 0.20819 0.31154 0.42322 0.0
N2304 N 0.23755 0.30898 0.46468 0.0
N2305 N 0.21435 0.30439 0.43391 0.0
H2306 H 0.21543 0.69426 0.4239 0.0
H2307 H 0.2296 0.76242 0.46984 0.0
H2308 H 0.1877 0.72952 0.42439 0.0
H2309 H 0.25195 0.72405 0.47623 0.0
H2310 H 0.21365 0.75022 0.45374 0.0
H2311 H 0.22851 0.70454 0.4435 0.0
C2312 C 0.21197 0.70408 0.42819 0.0
C2313 C 0.20048 0.71107 0.42232 0.0
C2314 C 0.22191 0.74439 0.45879 0.0
C2315 C 0.21559 0.72301 0.4447 0.0
C2316 C 0.231 0.75135 0.468 0.0
C2317 C 0.24211 0.74423 0.47436 0.0
C2318 C 0.22406 0.73022 0.45572 0.0
C2319 C 0.24345 0.72989 0.47163 0.0
C2320 C 0.2195 0.70997 0.43937 0.0
C2321 C 0.19666 0.72387 0.42829 0.0
N2322 N 0.23466 0.7234 0.46236 0.0
N2323 N 0.20424 0.72945 0.43904 0.0
H2324 H 0.80357 0.7246 0.40391 0.0
H2325 H 0.78604 0.73826 0.48463 0.0
H2326 H 0.8263 0.7044 0.43737 0.0
H2327 H 0.77539 0.76631 0.45066 0.0
H2328 H 0.79878 0.72379 0.46784 0.0
H2329 H 0.7905 0.73765 0.42127 0.0
C2330 C 0.80571 0.72279 0.41493 0.0
C2331 C 0.81605 0.71337 0.41917 0.0
C2332 C 0.79357 0.7331 0.46413 0.0
C2333 C 0.80116 0.72844 0.4392 0.0
C2334 C 0.78634 0.74139 0.47369 0.0
C2335 C 0.77938 0.75345 0.46908 0.0
C2336 C 0.79377 0.73685 0.44985 0.0
C2337 C 0.78014 0.75691 0.45474 0.0
C2338 C 0.79832 0.73034 0.42485 0.0
C2339 C 0.8185 0.71164 0.43364 0.0
N2340 N 0.7871 0.74865 0.44569 0.0
N2341 N 0.81109 0.71909 0.44315 0.0
H2342 H 0.83171 0.31174 0.42828 0.0
H2343 H 0.75991 0.29207 0.46757 0.0
H2344 H 0.79222 0.33156 0.41979 0.0
H2345 H 0.79904 0.27188 0.47663 0.0
H2346 H 0.77214 0.30796 0.45142 0.0
H2347 H 0.82046 0.29807 0.44705 0.0
C2348 C 0.82068 0.31323 0.43034 0.0
C2349 C 0.81293 0.32284 0.42238 0.0
C2350 C 0.77811 0.30015 0.45703 0.0
C2351 C 0.79999 0.30729 0.44398 0.0
C2352 C 0.77112 0.29109 0.46627 0.0
C2353 C 0.77844 0.28058 0.47341 0.0
C2354 C 0.79256 0.29869 0.45479 0.0
C2355 C 0.79299 0.27988 0.47142 0.0
C2356 C 0.81429 0.30548 0.44113 0.0
C2357 C 0.79871 0.32444 0.42571 0.0
N2358 N 0.79955 0.28871 0.46219 0.0
N2359 N 0.79272 0.31673 0.43618 0.0
H2360 H 0.10285 0.73257 0.69109 0.0
H2361 H 0.0474 0.72302 0.75346 0.0
H2362 H 0.09957 0.69517 0.7166 0.0
H2363 H 0.05834 0.76287 0.73471 0.0
H2364 H 0.06354 0.71159 0.73735 0.0
H2365 H 0.08395 0.74279 0.70457 0.0
C2366 C 0.09821 0.72649 0.69954 0.0
C2367 C 0.10301 0.71301 0.70278 0.0
C2368 C 0.0623 0.72282 0.73667 0.0
C2369 C 0.08106 0.72463 0.71814 0.0
C2370 C 0.05299 0.72933 0.74577 0.0
C2371 C 0.05156 0.74393 0.74544 0.0
C2372 C 0.07015 0.73096 0.72711 0.0
C2373 C 0.05921 0.75161 0.73538 0.0
C2374 C 0.08733 0.73232 0.70718 0.0
C2375 C 0.09623 0.70555 0.71362 0.0
N2376 N 0.0682 0.74505 0.72667 0.0
N2377 N 0.08565 0.71147 0.72094 0.0
H2378 H 0.83039 0.5914 0.70651 0.0
H2379 H 0.77515 0.57709 0.76745 0.0
H2380 H 0.80598 0.62363 0.72574 0.0
H2381 H 0.78769 0.5442 0.73952 0.0
H2382 H 0.78812 0.59393 0.75328 0.0
H2383 H 0.81661 0.57364 0.71944 0.0
C2384 C 0.82213 0.59473 0.71342 0.0
C2385 C 0.81931 0.60902 0.71503 0.0
C2386 C 0.78797 0.58306 0.75015 0.0
C2387 C 0.80363 0.58882 0.72987 0.0
C2388 C 0.78043 0.57338 0.7582 0.0
C2389 C 0.78 0.55914 0.75456 0.0
C2390 C 0.79543 0.57857 0.73842 0.0
C2391 C 0.78768 0.55503 0.74275 0.0
C2392 C 0.81424 0.5846 0.72073 0.0
C2393 C 0.80842 0.61274 0.72404 0.0
N2394 N 0.79511 0.5647 0.73511 0.0
N2395 N 0.80107 0.60273 0.73118 0.0
H2396 H 0.92043 0.33267 0.71892 0.0
H2397 H 0.96421 0.26378 0.73422 0.0
H2398 H 0.91952 0.29643 0.69212 0.0
H2399 H 0.97152 0.30243 0.75632 0.0
H2400 H 0.94842 0.27594 0.71817 0.0
H2401 H 0.93967 0.3223 0.73226 0.0
C2402 C 0.92434 0.32261 0.71573 0.0
C2403 C 0.91817 0.31537 0.70444 0.0
C2404 C 0.95359 0.28184 0.72641 0.0
C2405 C 0.94013 0.30334 0.71981 0.0
C2406 C 0.96261 0.27489 0.73556 0.0
C2407 C 0.96915 0.2821 0.74662 0.0
C2408 C 0.95089 0.2961 0.72843 0.0
C2409 C 0.96676 0.2965 0.74787 0.0
C2410 C 0.93531 0.31667 0.72339 0.0
C2411 C 0.92366 0.30229 0.70093 0.0
N2412 N 0.95768 0.303 0.739 0.0
N2413 N 0.93421 0.29668 0.70863 0.0
H2414 H 0.20496 0.42856 0.69639 0.0
H2415 H 0.23252 0.46366 0.76762 0.0
H2416 H 0.1909 0.41613 0.73767 0.0
H2417 H 0.24685 0.47661 0.72664 0.0
H2418 H 0.21574 0.44757 0.75659 0.0
H2419 H 0.21921 0.44723 0.70701 0.0
C2420 C 0.20486 0.42973 0.70768 0.0
C2421 C 0.19671 0.42069 0.71613 0.0
C2422 C 0.22244 0.45401 0.74998 0.0
C2423 C 0.21293 0.44217 0.72835 0.0
C2424 C 0.23202 0.46322 0.75628 0.0
C2425 C 0.24117 0.47144 0.74805 0.0
C2426 C 0.22202 0.4529 0.73529 0.0
C2427 C 0.23995 0.47054 0.73339 0.0
C2428 C 0.21294 0.44046 0.71373 0.0
C2429 C 0.19686 0.4229 0.73069 0.0
N2430 N 0.23067 0.46133 0.72749 0.0
N2431 N 0.20487 0.43335 0.73631 0.0
H2432 H 0.10255 0.32592 0.30992 0.0
H2433 H 0.04644 0.26279 0.30653 0.0
H2434 H 0.09748 0.29467 0.34251 0.0
H2435 H 0.05879 0.2874 0.27044 0.0
H2436 H 0.06203 0.27716 0.32116 0.0
H2437 H 0.08386 0.31435 0.29653 0.0
C2438 C 0.09755 0.31664 0.31429 0.0
C2439 C 0.10175 0.31124 0.32736 0.0
C2440 C 0.06122 0.27951 0.31007 0.0
C2441 C 0.0801 0.29808 0.31213 0.0
C2442 C 0.05222 0.2714 0.30173 0.0
C2443 C 0.05135 0.27387 0.28723 0.0
C2444 C 0.06938 0.29023 0.30388 0.0
C2445 C 0.05925 0.28505 0.28155 0.0
C2446 C 0.0868 0.31009 0.30665 0.0
C2447 C 0.09456 0.29936 0.33258 0.0
N2448 N 0.06798 0.29277 0.28987 0.0
N2449 N 0.08415 0.29317 0.32493 0.0
H2450 H 0.21583 0.59063 0.34484 0.0
H2451 H 0.23544 0.56188 0.26877 0.0
H2452 H 0.20399 0.61099 0.30613 0.0
H2453 H 0.25239 0.54541 0.30741 0.0
H2454 H 0.22102 0.57776 0.28234 0.0
H2455 H 0.22654 0.57201 0.33134 0.0
C2456 C 0.21545 0.5912 0.3335 0.0
C2457 C 0.2091 0.60254 0.32665 0.0
C2458 C 0.22779 0.57058 0.28786 0.0
C2459 C 0.22126 0.58107 0.31108 0.0
C2460 C 0.23604 0.5615 0.28011 0.0
C2461 C 0.24528 0.55234 0.28692 0.0
C2462 C 0.22872 0.57054 0.30256 0.0
C2463 C 0.24539 0.55218 0.30166 0.0
C2464 C 0.22152 0.58051 0.32579 0.0
C2465 C 0.20867 0.60247 0.31191 0.0
N2466 N 0.23735 0.56122 0.30896 0.0
N2467 N 0.21475 0.59197 0.30464 0.0
H2468 H 0.92335 0.68134 0.3032 0.0
H2469 H 0.96104 0.75557 0.29144 0.0
H2470 H 0.91545 0.71723 0.32912 0.0
H2471 H 0.97348 0.71789 0.27052 0.0
H2472 H 0.945 0.74161 0.30606 0.0
H2473 H 0.94239 0.69433 0.29187 0.0
C2474 C 0.9257 0.69189 0.30668 0.0
C2475 C 0.91767 0.69816 0.31716 0.0
C2476 C 0.95137 0.73636 0.2984 0.0
C2477 C 0.93942 0.71327 0.30392 0.0
C2478 C 0.96052 0.74433 0.29005 0.0
C2479 C 0.96859 0.7379 0.27971 0.0
C2480 C 0.95014 0.72185 0.29631 0.0
C2481 C 0.96756 0.72329 0.27843 0.0
C2482 C 0.93657 0.69934 0.30011 0.0
C2483 C 0.92114 0.712 0.32094 0.0
N2484 N 0.95839 0.71579 0.28651 0.0
N2485 N 0.93167 0.7191 0.31427 0.0
H2486 H 0.80917 0.40019 0.30053 0.0
H2487 H 0.79062 0.48078 0.2888 0.0
H2488 H 0.83314 0.43327 0.32033 0.0
H2489 H 0.77785 0.4474 0.26101 0.0
H2490 H 0.80487 0.46396 0.30208 0.0
H2491 H 0.79562 0.4177 0.28796 0.0
C2492 C 0.8115 0.41116 0.30234 0.0
C2493 C 0.82228 0.41525 0.31154 0.0
C2494 C 0.7989 0.46038 0.29307 0.0
C2495 C 0.80683 0.43547 0.29702 0.0
C2496 C 0.79081 0.46997 0.28547 0.0
C2497 C 0.78276 0.46549 0.27391 0.0
C2498 C 0.79888 0.44623 0.28911 0.0
C2499 C 0.78346 0.45133 0.27009 0.0
C2500 C 0.80383 0.42117 0.29506 0.0
C2501 C 0.82497 0.42966 0.31326 0.0
N2502 N 0.79125 0.44225 0.2777 0.0
N2503 N 0.81726 0.43927 0.30611 0.0
H2504 H 0.2063 0.59749 0.69531 0.0
H2505 H 0.22789 0.55811 0.76644 0.0
H2506 H 0.18799 0.60565 0.7357 0.0
H2507 H 0.24729 0.55017 0.72656 0.0
H2508 H 0.21161 0.5739 0.75478 0.0
H2509 H 0.22011 0.57885 0.70603 0.0
C2510 C 0.20517 0.59538 0.70642 0.0
C2511 C 0.19596 0.60323 0.71459 0.0
C2512 C 0.21933 0.56862 0.74853 0.0
C2513 C 0.21167 0.58176 0.72692 0.0
C2514 C 0.22862 0.55958 0.75519 0.0
C2515 C 0.23904 0.55287 0.74749 0.0
C2516 C 0.22046 0.57108 0.73403 0.0
C2517 C 0.23938 0.55505 0.7329 0.0
C2518 C 0.21299 0.58466 0.71251 0.0
C2519 C 0.19479 0.59982 0.7289 0.0
N2520 N 0.23034 0.56408 0.72667 0.0
N2521 N 0.20258 0.58942 0.73459 0.0
H2522 H 0.19185 0.41371 0.29032 0.0
H2523 H 0.24881 0.47466 0.30335 0.0
H2524 H 0.20615 0.42612 0.33147 0.0
H2525 H 0.23437 0.46197 0.26235 0.0
H2526 H 0.23167 0.45856 0.31396 0.0
H2527 H 0.20593 0.43264 0.28006 0.0
C2528 C 0.19783 0.4205 0.29723 0.0
C2529 C 0.1978 0.41826 0.31181 0.0
C2530 C 0.23215 0.45939 0.30264 0.0
C2531 C 0.21417 0.43995 0.30005 0.0
C2532 C 0.24185 0.4687 0.29657 0.0
C2533 C 0.2431 0.46963 0.28192 0.0
C2534 C 0.22362 0.45093 0.29402 0.0
C2535 C 0.23392 0.46146 0.27368 0.0
C2536 C 0.20595 0.43129 0.29134 0.0
C2537 C 0.20599 0.4273 0.32017 0.0
N2538 N 0.22467 0.4524 0.27983 0.0
N2539 N 0.21387 0.4377 0.31418 0.0
H2540 H 0.10686 0.71834 0.32716 0.0
H2541 H 0.04549 0.71762 0.26953 0.0
H2542 H 0.09651 0.68272 0.30125 0.0
H2543 H 0.06122 0.75531 0.28911 0.0
H2544 H 0.06158 0.70395 0.28393 0.0
H2545 H 0.08807 0.73134 0.31578 0.0
C2546 C 0.10068 0.71322 0.31909 0.0
C2547 C 0.10342 0.69938 0.31514 0.0
C2548 C 0.06143 0.7152 0.28518 0.0
C2549 C 0.08165 0.71421 0.30221 0.0
C2550 C 0.05212 0.72301 0.27706 0.0
C2551 C 0.05202 0.73766 0.27808 0.0
C2552 C 0.07069 0.72206 0.29445 0.0
C2553 C 0.06105 0.74406 0.28788 0.0
C2554 C 0.08987 0.72065 0.31266 0.0
C2555 C 0.09476 0.69327 0.30481 0.0
N2556 N 0.07006 0.73624 0.29562 0.0
N2557 N 0.08434 0.70073 0.29869 0.0
H2558 H 0.78984 0.59899 0.33927 0.0
H2559 H 0.79861 0.54884 0.27295 0.0
H2560 H 0.82511 0.60166 0.31111 0.0
H2561 H 0.75971 0.554 0.29501 0.0
H2562 H 0.81013 0.56497 0.28945 0.0
H2563 H 0.78025 0.57963 0.32551 0.0
C2564 C 0.79558 0.59555 0.33018 0.0
C2565 C 0.80825 0.60218 0.32627 0.0
C2566 C 0.79911 0.56243 0.29078 0.0
C2567 C 0.79737 0.57971 0.31057 0.0
C2568 C 0.79257 0.55313 0.28145 0.0
C2569 C 0.77818 0.55012 0.2826 0.0
C2570 C 0.79121 0.56868 0.30138 0.0
C2571 C 0.77081 0.55613 0.2937 0.0
C2572 C 0.79012 0.58441 0.32238 0.0
C2573 C 0.81537 0.5969 0.3146 0.0
N2574 N 0.77738 0.56516 0.3026 0.0
N2575 N 0.8098 0.58604 0.30713 0.0
H2576 H 0.92603 0.29583 0.34366 0.0
H2577 H 0.96481 0.28857 0.27015 0.0
H2578 H 0.92113 0.3253 0.30955 0.0
H2579 H 0.97453 0.26326 0.3064 0.0
H2580 H 0.9496 0.30283 0.28468 0.0
H2581 H 0.94451 0.28445 0.33057 0.0
C2582 C 0.92893 0.30006 0.3335 0.0
C2583 C 0.9219 0.31158 0.32774 0.0
C2584 C 0.95518 0.29427 0.28952 0.0
C2585 C 0.943 0.29832 0.3125 0.0
C2586 C 0.96387 0.28613 0.28122 0.0
C2587 C 0.97091 0.27467 0.28705 0.0
C2588 C 0.95335 0.29085 0.30375 0.0
C2589 C 0.96938 0.27205 0.30148 0.0
C2590 C 0.93947 0.29347 0.32598 0.0
C2591 C 0.92602 0.31633 0.31436 0.0
N2592 N 0.96065 0.27996 0.30929 0.0
N2593 N 0.93621 0.30964 0.30719 0.0
H2594 H 0.80591 0.42408 0.69563 0.0
H2595 H 0.80556 0.48098 0.75703 0.0
H2596 H 0.84063 0.43155 0.72392 0.0
H2597 H 0.76853 0.46771 0.73439 0.0
H2598 H 0.81968 0.46617 0.74192 0.0
H2599 H 0.79314 0.44281 0.70704 0.0
C2600 C 0.81089 0.42964 0.70421 0.0
C2601 C 0.82437 0.42607 0.70885 0.0
C2602 C 0.80849 0.46664 0.74013 0.0
C2603 C 0.80982 0.44775 0.72185 0.0
C2604 C 0.80044 0.47522 0.74866 0.0
C2605 C 0.78583 0.47553 0.74702 0.0
C2606 C 0.80189 0.45834 0.72985 0.0
C2607 C 0.77974 0.46767 0.73611 0.0
C2608 C 0.8036 0.44041 0.71067 0.0
C2609 C 0.83035 0.43395 0.71983 0.0
N2610 N 0.78778 0.45932 0.72803 0.0
N2611 N 0.82302 0.44433 0.72599 0.0
H2612 H 0.10337 0.29234 0.69431 0.0
H2613 H 0.04527 0.3032 0.75349 0.0
H2614 H 0.09368 0.33273 0.71146 0.0
H2615 H 0.05716 0.263 0.73753 0.0
H2616 H 0.06079 0.31459 0.73627 0.0
H2617 H 0.0846 0.28185 0.70828 0.0
C2618 C 0.09719 0.29906 0.70088 0.0
C2619 C 0.10017 0.31348 0.70168 0.0
C2620 C 0.05988 0.30328 0.73644 0.0
C2621 C 0.07867 0.3014 0.71796 0.0
C2622 C 0.05093 0.29678 0.74617 0.0
C2623 C 0.05 0.28212 0.747 0.0
C2624 C 0.06794 0.29505 0.72744 0.0
C2625 C 0.0577 0.27432 0.73737 0.0
C2626 C 0.0865 0.29302 0.70895 0.0
C2627 C 0.09192 0.32155 0.71063 0.0
N2628 N 0.06639 0.28086 0.72808 0.0
N2629 N 0.08159 0.3154 0.71845 0.0
H2630 H 0.92594 0.69373 0.70798 0.0
H2631 H 0.9625 0.76507 0.73388 0.0
H2632 H 0.91545 0.73466 0.6921 0.0
H2633 H 0.97341 0.7244 0.75005 0.0
H2634 H 0.94672 0.75382 0.71699 0.0
H2635 H 0.94455 0.70446 0.72222 0.0
C2636 C 0.92754 0.70496 0.70747 0.0
C2637 C 0.91904 0.71328 0.69883 0.0
C2638 C 0.95266 0.74732 0.72412 0.0
C2639 C 0.94045 0.72564 0.71504 0.0
C2640 C 0.96168 0.75375 0.73377 0.0
C2641 C 0.96923 0.74568 0.74345 0.0
C2642 C 0.95106 0.73268 0.72419 0.0
C2643 C 0.96787 0.73104 0.74273 0.0
C2644 C 0.93824 0.71107 0.71554 0.0
C2645 C 0.9218 0.72777 0.69845 0.0
N2646 N 0.95884 0.72502 0.73337 0.0
N2647 N 0.93218 0.73347 0.70648 0.0
H2648 H 0.70071 0.21798 0.61403 0.0
H2649 H 0.75164 0.21817 0.54768 0.0
H2650 H 0.71614 0.18034 0.59511 0.0
H2651 H 0.7342 0.25547 0.56537 0.0
H2652 H 0.73683 0.20398 0.56331 0.0
H2653 H 0.71111 0.23167 0.59494 0.0
C2654 C 0.70612 0.21255 0.60578 0.0
C2655 C 0.70761 0.19795 0.6063 0.0
C2656 C 0.73611 0.21527 0.56366 0.0
C2657 C 0.71979 0.21367 0.58441 0.0
C2658 C 0.74448 0.22339 0.55463 0.0
C2659 C 0.74427 0.23806 0.55528 0.0
C2660 C 0.72748 0.22186 0.57345 0.0
C2661 C 0.73489 0.2442 0.56466 0.0
C2662 C 0.71214 0.2204 0.59489 0.0
C2663 C 0.71494 0.19158 0.59534 0.0
N2664 N 0.727 0.2361 0.57345 0.0
N2665 N 0.72082 0.19947 0.58493 0.0
H2666 H 0.32637 0.21768 0.60457 0.0
H2667 H 0.25788 0.23789 0.56153 0.0
H2668 H 0.28834 0.19258 0.60507 0.0
H2669 H 0.29849 0.25652 0.55332 0.0
H2670 H 0.2689 0.22096 0.57728 0.0
H2671 H 0.31653 0.23181 0.58562 0.0
C2672 C 0.31602 0.21501 0.60062 0.0
C2673 C 0.30817 0.20392 0.60657 0.0
C2674 C 0.27544 0.22863 0.57191 0.0
C2675 C 0.29673 0.2203 0.58496 0.0
C2676 C 0.26915 0.23828 0.56292 0.0
C2677 C 0.27728 0.24862 0.55613 0.0
C2678 C 0.28996 0.22944 0.57432 0.0
C2679 C 0.29185 0.24865 0.55826 0.0
C2680 C 0.31039 0.22315 0.58982 0.0
C2681 C 0.29471 0.20118 0.60109 0.0
N2682 N 0.2977 0.23932 0.5673 0.0
N2683 N 0.2894 0.20936 0.5907 0.0
H2684 H 0.33068 0.81521 0.59954 0.0
H2685 H 0.25932 0.7898 0.56243 0.0
H2686 H 0.28998 0.83174 0.60892 0.0
H2687 H 0.29979 0.77363 0.55169 0.0
H2688 H 0.27074 0.80643 0.5783 0.0
H2689 H 0.31994 0.80078 0.58115 0.0
C2690 C 0.3195 0.81581 0.59776 0.0
C2691 C 0.31125 0.82473 0.60584 0.0
C2692 C 0.27717 0.79935 0.57239 0.0
C2693 C 0.29888 0.8083 0.58468 0.0
C2694 C 0.27064 0.78986 0.56331 0.0
C2695 C 0.2786 0.78026 0.55577 0.0
C2696 C 0.2918 0.79922 0.57408 0.0
C2697 C 0.29325 0.7809 0.55723 0.0
C2698 C 0.31338 0.80763 0.58718 0.0
C2699 C 0.29682 0.82519 0.60288 0.0
N2700 N 0.29937 0.79011 0.56632 0.0
N2701 N 0.29112 0.81707 0.59261 0.0
H2702 H 0.70043 0.80417 0.61333 0.0
H2703 H 0.75438 0.80638 0.54943 0.0
H2704 H 0.71934 0.84227 0.59716 0.0
H2705 H 0.73279 0.76878 0.56327 0.0
H2706 H 0.74021 0.81996 0.56551 0.0
H2707 H 0.71084 0.7913 0.59403 0.0
C2708 C 0.70663 0.80988 0.60565 0.0
C2709 C 0.70908 0.82435 0.60699 0.0
C2710 C 0.73845 0.80876 0.56493 0.0
C2711 C 0.72123 0.80958 0.58489 0.0
C2712 C 0.74647 0.80099 0.55563 0.0
C2713 C 0.74488 0.78637 0.55504 0.0
C2714 C 0.72878 0.80187 0.57378 0.0
C2715 C 0.73457 0.77999 0.56354 0.0
C2716 C 0.71264 0.8025 0.59465 0.0
C2717 C 0.71738 0.8311 0.59675 0.0
N2718 N 0.72703 0.78775 0.57264 0.0
N2719 N 0.72321 0.82366 0.58622 0.0
H2720 H 0.69107 0.80951 0.42344 0.0
H2721 H 0.75242 0.80854 0.48097 0.0
H2722 H 0.72035 0.84374 0.43027 0.0
H2723 H 0.72982 0.77154 0.4675 0.0
H2724 H 0.73733 0.82276 0.46597 0.0
H2725 H 0.70218 0.7966 0.44258 0.0
C2726 C 0.69981 0.81435 0.42894 0.0
C2727 C 0.70483 0.82773 0.42506 0.0
C2728 C 0.73554 0.81155 0.46645 0.0
C2729 C 0.71745 0.81304 0.44722 0.0
C2730 C 0.74405 0.80344 0.47513 0.0
C2731 C 0.74243 0.78882 0.47542 0.0
C2732 C 0.72529 0.80501 0.45801 0.0
C2733 C 0.73152 0.78277 0.46746 0.0
C2734 C 0.70609 0.80699 0.43995 0.0
C2735 C 0.71598 0.83354 0.43289 0.0
N2736 N 0.72345 0.79087 0.459 0.0
N2737 N 0.72195 0.82614 0.44351 0.0
H2738 H 0.70848 0.1911 0.42956 0.0
H2739 H 0.7296 0.26251 0.46839 0.0
H2740 H 0.68888 0.23075 0.42147 0.0
H2741 H 0.74941 0.22317 0.47724 0.0
H2742 H 0.71321 0.25047 0.45266 0.0
H2743 H 0.72247 0.20211 0.44816 0.0
C2744 C 0.7071 0.20211 0.43168 0.0
C2745 C 0.69747 0.20999 0.42387 0.0
C2746 C 0.72104 0.24441 0.45814 0.0
C2747 C 0.7134 0.22264 0.44528 0.0
C2748 C 0.73039 0.25129 0.46714 0.0
C2749 C 0.74094 0.24385 0.47408 0.0
C2750 C 0.72227 0.22996 0.45593 0.0
C2751 C 0.74139 0.2293 0.47217 0.0
C2752 C 0.71503 0.20836 0.44238 0.0
C2753 C 0.69601 0.22418 0.42728 0.0
N2754 N 0.73229 0.22285 0.46316 0.0
N2755 N 0.70391 0.23003 0.43765 0.0
H2756 H 0.33975 0.22944 0.42984 0.0
H2757 H 0.26548 0.23965 0.46616 0.0
H2758 H 0.30375 0.20282 0.42139 0.0
H2759 H 0.30326 0.26115 0.47948 0.0
H2760 H 0.27939 0.22547 0.45029 0.0
H2761 H 0.32674 0.2406 0.44854 0.0
C2762 C 0.32917 0.22579 0.43199 0.0
C2763 C 0.32288 0.21514 0.42392 0.0
C2764 C 0.28468 0.23317 0.4568 0.0
C2765 C 0.30777 0.22816 0.44528 0.0
C2766 C 0.27673 0.24127 0.46586 0.0
C2767 C 0.28321 0.25163 0.47413 0.0
C2768 C 0.29921 0.23554 0.45586 0.0
C2769 C 0.29784 0.25321 0.47339 0.0
C2770 C 0.32171 0.23225 0.44267 0.0
C2771 C 0.309 0.21113 0.42712 0.0
N2772 N 0.30532 0.24538 0.4643 0.0
N2773 N 0.30191 0.21769 0.43747 0.0
H2774 H 0.32838 0.80811 0.42242 0.0
H2775 H 0.26047 0.79352 0.46897 0.0
H2776 H 0.29263 0.83523 0.42258 0.0
H2777 H 0.29933 0.772 0.47557 0.0
H2778 H 0.27234 0.80933 0.45242 0.0
H2779 H 0.31831 0.79514 0.44224 0.0
C2780 C 0.3185 0.81146 0.42668 0.0
C2781 C 0.31132 0.82276 0.42066 0.0
C2782 C 0.27834 0.80128 0.45761 0.0
C2783 C 0.29961 0.80775 0.4433 0.0
C2784 C 0.27157 0.79227 0.46707 0.0
C2785 C 0.27893 0.78143 0.47363 0.0
C2786 C 0.29255 0.79934 0.4545 0.0
C2787 C 0.29329 0.78029 0.47082 0.0
C2788 C 0.31272 0.80399 0.43799 0.0
C2789 C 0.29843 0.82642 0.4266 0.0
N2790 N 0.2996 0.78901 0.46133 0.0
N2791 N 0.29297 0.8189 0.43748 0.0
H2792 H 0.60072 0.19278 0.71793 0.0
H2793 H 0.55817 0.2619 0.7345 0.0
H2794 H 0.60317 0.23022 0.69241 0.0
H2795 H 0.54896 0.22209 0.7542 0.0
H2796 H 0.57448 0.25035 0.71877 0.0
H2797 H 0.5816 0.20308 0.73113 0.0
C2798 C 0.59718 0.2031 0.71498 0.0
C2799 C 0.60373 0.21065 0.70406 0.0
C2800 C 0.56878 0.24409 0.72641 0.0
C2801 C 0.58189 0.22261 0.71934 0.0
C2802 C 0.55947 0.25068 0.73539 0.0
C2803 C 0.55221 0.24295 0.74568 0.0
C2804 C 0.57104 0.22965 0.72783 0.0
C2805 C 0.55426 0.22843 0.74634 0.0
C2806 C 0.58627 0.209 0.72258 0.0
C2807 C 0.59873 0.22408 0.70092 0.0
N2808 N 0.5636 0.22228 0.73766 0.0
N2809 N 0.58821 0.22964 0.70856 0.0
H2810 H 0.32968 0.08998 0.70629 0.0
H2811 H 0.2742 0.0758 0.76693 0.0
H2812 H 0.30428 0.12208 0.7244 0.0
H2813 H 0.28708 0.04267 0.73943 0.0
H2814 H 0.28695 0.09259 0.7525 0.0
H2815 H 0.31598 0.07221 0.71931 0.0
C2816 C 0.32121 0.09328 0.71296 0.0
C2817 C 0.3181 0.10754 0.71424 0.0
C2818 C 0.28691 0.08167 0.74952 0.0
C2819 C 0.30253 0.08733 0.72919 0.0
C2820 C 0.2795 0.07202 0.75772 0.0
C2821 C 0.27923 0.05772 0.75428 0.0
C2822 C 0.29443 0.0771 0.73786 0.0
C2823 C 0.28695 0.05355 0.74252 0.0
C2824 C 0.31337 0.08314 0.72032 0.0
C2825 C 0.30696 0.11122 0.72296 0.0
N2826 N 0.29426 0.06319 0.73474 0.0
N2827 N 0.29967 0.10121 0.73016 0.0
H2828 H 0.41971 0.79546 0.68959 0.0
H2829 H 0.47142 0.80234 0.75572 0.0
H2830 H 0.4196 0.83067 0.71773 0.0
H2831 H 0.46326 0.76377 0.73372 0.0
H2832 H 0.45565 0.81441 0.73939 0.0
H2833 H 0.43856 0.7852 0.70337 0.0
C2834 C 0.4236 0.80104 0.69868 0.0
C2835 C 0.41784 0.81389 0.70258 0.0
C2836 C 0.45744 0.80333 0.73805 0.0
C2837 C 0.43973 0.80224 0.71832 0.0
C2838 C 0.46653 0.79648 0.74727 0.0
C2839 C 0.4686 0.78202 0.74608 0.0
C2840 C 0.45048 0.7957 0.72749 0.0
C2841 C 0.46187 0.7749 0.73507 0.0
C2842 C 0.43445 0.7952 0.7065 0.0
C2843 C 0.42369 0.82079 0.71425 0.0
N2844 N 0.45308 0.78178 0.72625 0.0
N2845 N 0.43425 0.81484 0.72175 0.0
H2846 H 0.71568 0.9185 0.70018 0.0
H2847 H 0.7188 0.97526 0.76168 0.0
H2848 H 0.68264 0.92413 0.73033 0.0
H2849 H 0.75473 0.96391 0.73719 0.0
H2850 H 0.70425 0.9593 0.74768 0.0
H2851 H 0.72908 0.93739 0.71139 0.0
C2852 C 0.71122 0.92367 0.70915 0.0
C2853 C 0.69799 0.91958 0.71433 0.0
C2854 C 0.71529 0.9604 0.74527 0.0
C2855 C 0.71325 0.94145 0.72709 0.0
C2856 C 0.72358 0.96963 0.75317 0.0
C2857 C 0.73803 0.9709 0.75064 0.0
C2858 C 0.72146 0.95239 0.73471 0.0
C2859 C 0.74367 0.96315 0.7396 0.0
C2860 C 0.71886 0.93453 0.71549 0.0
C2861 C 0.69268 0.92696 0.72582 0.0
N2862 N 0.7354 0.95418 0.7321 0.0
N2863 N 0.70033 0.93746 0.73182 0.0
H2864 H 0.58928 0.80394 0.34329 0.0
H2865 H 0.55991 0.78784 0.26617 0.0
H2866 H 0.60862 0.81969 0.30538 0.0
H2867 H 0.54432 0.76759 0.30369 0.0
H2868 H 0.57565 0.80221 0.28061 0.0
H2869 H 0.57078 0.79302 0.32916 0.0
C2870 C 0.58966 0.80511 0.33199 0.0
C2871 C 0.60066 0.81265 0.32554 0.0
C2872 C 0.56868 0.79472 0.28569 0.0
C2873 C 0.57932 0.80028 0.30926 0.0
C2874 C 0.55969 0.7865 0.27745 0.0
C2875 C 0.55084 0.77638 0.28369 0.0
C2876 C 0.56885 0.79284 0.30031 0.0
C2877 C 0.55086 0.7753 0.29839 0.0
C2878 C 0.57902 0.79894 0.32393 0.0
C2879 C 0.60035 0.81408 0.31086 0.0
N2880 N 0.55981 0.78332 0.30617 0.0
N2881 N 0.58992 0.80788 0.30323 0.0
H2882 H 0.70176 0.11165 0.30647 0.0
H2883 H 0.75168 0.0453 0.30817 0.0
H2884 H 0.71624 0.09207 0.34466 0.0
H2885 H 0.73449 0.06271 0.27006 0.0
H2886 H 0.73718 0.06103 0.32174 0.0
H2887 H 0.71218 0.0928 0.29304 0.0
C2888 C 0.70697 0.10332 0.31207 0.0
C2889 C 0.70819 0.10357 0.32676 0.0
C2890 C 0.73646 0.06132 0.31041 0.0
C2891 C 0.72036 0.08197 0.31137 0.0
C2892 C 0.74466 0.05222 0.30263 0.0
C2893 C 0.74442 0.05271 0.2879 0.0
C2894 C 0.72797 0.07107 0.30346 0.0
C2895 C 0.73522 0.06211 0.28137 0.0
C2896 C 0.713 0.09257 0.30437 0.0
C2897 C 0.71526 0.09251 0.33336 0.0
N2898 N 0.72749 0.07099 0.28918 0.0
N2899 N 0.72113 0.08225 0.32563 0.0
H2900 H 0.42546 0.21126 0.3364 0.0
H2901 H 0.46449 0.23159 0.26473 0.0
H2902 H 0.41656 0.19187 0.29652 0.0
H2903 H 0.47414 0.25126 0.30426 0.0
H2904 H 0.44836 0.21552 0.27678 0.0
H2905 H 0.44443 0.22488 0.32536 0.0
C2906 C 0.42748 0.20985 0.32533 0.0
C2907 C 0.41934 0.20039 0.31739 0.0
C2908 C 0.45409 0.22324 0.28288 0.0
C2909 C 0.44115 0.21588 0.30471 0.0
C2910 C 0.46332 0.23242 0.27599 0.0
C2911 C 0.4706 0.24284 0.28348 0.0
C2912 C 0.45201 0.22453 0.29739 0.0
C2913 C 0.46879 0.24334 0.29808 0.0
C2914 C 0.43838 0.21757 0.31906 0.0
C2915 C 0.42262 0.19887 0.30314 0.0
N2916 N 0.45956 0.23442 0.30454 0.0
N2917 N 0.43319 0.20657 0.29727 0.0
H2918 H 0.30899 0.9202 0.33058 0.0
H2919 H 0.29063 0.96565 0.26275 0.0
H2920 H 0.33381 0.92005 0.29282 0.0
H2921 H 0.27205 0.97276 0.30317 0.0
H2922 H 0.30685 0.94923 0.27369 0.0
H2923 H 0.29562 0.93966 0.32097 0.0
C2924 C 0.31176 0.92432 0.32034 0.0
C2925 C 0.32254 0.91832 0.3125 0.0
C2926 C 0.29936 0.95451 0.28022 0.0
C2927 C 0.30703 0.94055 0.30131 0.0
C2928 C 0.29011 0.96389 0.27398 0.0
C2929 C 0.27998 0.97058 0.28206 0.0
C2930 C 0.29835 0.95159 0.29465 0.0
C2931 C 0.27977 0.96793 0.29656 0.0
C2932 C 0.30405 0.93542 0.31483 0.0
C2933 C 0.32543 0.92405 0.29917 0.0
N2934 N 0.28869 0.95851 0.30237 0.0
N2935 N 0.31767 0.93474 0.29398 0.0
H2936 H 0.6804 0.09034 0.72248 0.0
H2937 H 0.75711 0.06278 0.7412 0.0
H2938 H 0.71867 0.11067 0.70864 0.0
H2939 H 0.71914 0.04538 0.75903 0.0
H2940 H 0.74302 0.07827 0.72654 0.0
H2941 H 0.69424 0.07193 0.73343 0.0
C2942 C 0.69171 0.09095 0.72171 0.0
C2943 C 0.69835 0.10221 0.71472 0.0
C2944 C 0.73776 0.07097 0.73355 0.0
C2945 C 0.7143 0.08099 0.72715 0.0
C2946 C 0.7458 0.06211 0.74193 0.0
C2947 C 0.73933 0.05282 0.75148 0.0
C2948 C 0.72309 0.0706 0.7347 0.0
C2949 C 0.72461 0.05228 0.75179 0.0
C2950 C 0.69961 0.08037 0.72791 0.0
C2951 C 0.71305 0.10219 0.71382 0.0
N2952 N 0.71701 0.06114 0.74364 0.0
N2953 N 0.72051 0.09182 0.72004 0.0
H2954 H 0.70464 0.9279 0.33384 0.0
H2955 H 0.73259 0.96331 0.26266 0.0
H2956 H 0.69037 0.91603 0.29252 0.0
H2957 H 0.74787 0.97487 0.30368 0.0
H2958 H 0.71549 0.94746 0.27365 0.0
H2959 H 0.71925 0.94637 0.32323 0.0
C2960 C 0.70457 0.92916 0.32254 0.0
C2961 C 0.69626 0.92033 0.31408 0.0
C2962 C 0.72249 0.95355 0.28027 0.0
C2963 C 0.71289 0.94158 0.30186 0.0
C2964 C 0.73225 0.96261 0.27399 0.0
C2965 C 0.74174 0.97037 0.28225 0.0
C2966 C 0.72222 0.95215 0.29495 0.0
C2967 C 0.7407 0.96917 0.2969 0.0
C2968 C 0.71285 0.93977 0.3165 0.0
C2969 C 0.69644 0.92265 0.29951 0.0
N2970 N 0.73122 0.96012 0.30278 0.0
N2971 N 0.70466 0.93297 0.29388 0.0
H2972 H 0.60176 0.21428 0.33238 0.0
H2973 H 0.55536 0.22957 0.26454 0.0
H2974 H 0.59935 0.18648 0.2969 0.0
H2975 H 0.55024 0.25165 0.30341 0.0
H2976 H 0.57112 0.21335 0.27643 0.0
H2977 H 0.58262 0.2278 0.32231 0.0
C2978 C 0.59714 0.21089 0.32256 0.0
C2979 C 0.60234 0.19923 0.31546 0.0
C2980 C 0.56642 0.22162 0.28243 0.0
C2981 C 0.58049 0.21488 0.30373 0.0
C2982 C 0.55742 0.23087 0.27564 0.0
C2983 C 0.55151 0.24197 0.283 0.0
C2984 C 0.56974 0.2236 0.29666 0.0
C2985 C 0.5545 0.24317 0.29738 0.0
C2986 C 0.58622 0.21868 0.31678 0.0
C2987 C 0.59598 0.19554 0.30265 0.0
N2988 N 0.56355 0.23421 0.3037 0.0
N2989 N 0.5855 0.20339 0.29717 0.0
H2990 H 0.3036 0.09448 0.34637 0.0
H2991 H 0.28642 0.06449 0.26986 0.0
H2992 H 0.31726 0.11449 0.30797 0.0
H2993 H 0.26937 0.04689 0.30805 0.0
H2994 H 0.30032 0.08106 0.2838 0.0
H2995 H 0.29335 0.07537 0.33266 0.0
C2996 C 0.30446 0.09487 0.33505 0.0
C2997 C 0.31121 0.10623 0.32834 0.0
C2998 C 0.29365 0.07348 0.28914 0.0
C2999 C 0.29958 0.08422 0.31253 0.0
C3000 C 0.28571 0.06401 0.28119 0.0
C3001 C 0.27661 0.05433 0.28776 0.0
C3002 C 0.2925 0.07332 0.30382 0.0
C3003 C 0.27629 0.05407 0.30249 0.0
C3004 C 0.29866 0.0839 0.32723 0.0
C3005 C 0.31225 0.10595 0.31364 0.0
N3006 N 0.284 0.06351 0.31001 0.0
N3007 N 0.30643 0.09519 0.30625 0.0
H3008 H 0.42897 0.80194 0.34269 0.0
H3009 H 0.46143 0.78846 0.26671 0.0
H3010 H 0.41236 0.81946 0.30436 0.0
H3011 H 0.47449 0.76659 0.30415 0.0
H3012 H 0.44569 0.80246 0.28086 0.0
H3013 H 0.4477 0.79132 0.32923 0.0
C3014 C 0.42924 0.80358 0.33144 0.0
C3015 C 0.41891 0.81152 0.32466 0.0
C3016 C 0.4521 0.7947 0.28601 0.0
C3017 C 0.44055 0.79948 0.30917 0.0
C3018 C 0.4611 0.78669 0.27793 0.0
C3019 C 0.46922 0.77621 0.28421 0.0
C3020 C 0.45116 0.79225 0.30052 0.0
C3021 C 0.46851 0.77458 0.29884 0.0
C3022 C 0.44001 0.79756 0.32377 0.0
C3023 C 0.42008 0.81352 0.31009 0.0
N3024 N 0.45954 0.78241 0.30647 0.0
N3025 N 0.43062 0.80748 0.30285 0.0
H3026 H 0.30706 0.92312 0.69586 0.0
H3027 H 0.30561 0.97968 0.75751 0.0
H3028 H 0.34083 0.92966 0.72549 0.0
H3029 H 0.26904 0.96678 0.73395 0.0
H3030 H 0.31998 0.96479 0.74272 0.0
H3031 H 0.29424 0.94198 0.70696 0.0
C3032 C 0.31182 0.92849 0.70467 0.0
C3033 C 0.32505 0.92462 0.70979 0.0
C3034 C 0.30884 0.96536 0.74066 0.0
C3035 C 0.31044 0.94647 0.72241 0.0
C3036 C 0.30066 0.97399 0.749 0.0
C3037 C 0.28609 0.97442 0.747 0.0
C3038 C 0.30243 0.95714 0.7302 0.0
C3039 C 0.28021 0.96665 0.73593 0.0
C3040 C 0.30451 0.93935 0.71095 0.0
C3041 C 0.33076 0.93228 0.72105 0.0
N3042 N 0.28837 0.95825 0.72802 0.0
N3043 N 0.3234 0.94276 0.72701 0.0
H3044 H 0.60312 0.79067 0.69315 0.0
H3045 H 0.54645 0.80088 0.75381 0.0
H3046 H 0.59542 0.83049 0.71254 0.0
H3047 H 0.55539 0.76121 0.73475 0.0
H3048 H 0.56252 0.81243 0.73725 0.0
H3049 H 0.58415 0.78024 0.70689 0.0
C3050 C 0.59735 0.79729 0.70018 0.0
C3051 C 0.60093 0.81153 0.70164 0.0
C3052 C 0.56086 0.80122 0.7366 0.0
C3053 C 0.57919 0.79951 0.71766 0.0
C3054 C 0.55158 0.79463 0.74597 0.0
C3055 C 0.54963 0.78004 0.74573 0.0
C3056 C 0.56824 0.79315 0.7269 0.0
C3057 C 0.55672 0.77246 0.73544 0.0
C3058 C 0.58654 0.79128 0.70811 0.0
C3059 C 0.59318 0.81945 0.71117 0.0
N3060 N 0.56575 0.77908 0.72653 0.0
N3061 N 0.58272 0.81333 0.71884 0.0
H3062 H 0.42016 0.19479 0.71369 0.0
H3063 H 0.46335 0.26364 0.73432 0.0
H3064 H 0.4186 0.23318 0.68964 0.0
H3065 H 0.47234 0.22297 0.75166 0.0
H3066 H 0.44722 0.2526 0.71755 0.0
H3067 H 0.43955 0.20469 0.7274 0.0
C3068 C 0.42397 0.20523 0.71115 0.0
C3069 C 0.41758 0.21317 0.70051 0.0
C3070 C 0.45285 0.24605 0.72489 0.0
C3071 C 0.4397 0.22468 0.71641 0.0
C3072 C 0.46205 0.25236 0.73446 0.0
C3073 C 0.46917 0.24421 0.7444 0.0
C3074 C 0.45056 0.2315 0.72539 0.0
C3075 C 0.46714 0.22963 0.7441 0.0
C3076 C 0.43503 0.2109 0.71905 0.0
C3077 C 0.42292 0.22674 0.69791 0.0
N3078 N 0.45789 0.22375 0.73488 0.0
N3079 N 0.43356 0.23209 0.70586 0.0
H3080 H 0.69269 0.71228 0.10439 0.0
H3081 H 0.76213 0.73293 0.06226 0.0
H3082 H 0.73125 0.6895 0.10808 0.0
H3083 H 0.72168 0.74999 0.05243 0.0
H3084 H 0.75088 0.71653 0.07867 0.0
H3085 H 0.70288 0.72582 0.08504 0.0
C3086 C 0.70324 0.71 0.10108 0.0
C3087 C 0.71112 0.69974 0.10803 0.0
C3088 C 0.74443 0.72373 0.07281 0.0
C3089 C 0.72296 0.71544 0.08591 0.0
C3090 C 0.75085 0.73308 0.06343 0.0
C3091 C 0.74284 0.74285 0.05598 0.0
C3092 C 0.72988 0.72424 0.07493 0.0
C3093 C 0.72825 0.74256 0.05786 0.0
C3094 C 0.70908 0.7178 0.09003 0.0
C3095 C 0.72484 0.69747 0.10331 0.0
N3096 N 0.72226 0.73354 0.06727 0.0
N3097 N 0.73032 0.7053 0.09264 0.0
H3098 H 0.29903 0.71683 0.12271 0.0
H3099 H 0.28423 0.7337 0.04185 0.0
H3100 H 0.31454 0.69048 0.08985 0.0
H3101 H 0.2584 0.74769 0.07595 0.0
H3102 H 0.29774 0.71972 0.05875 0.0
H3103 H 0.28679 0.73075 0.10513 0.0
C3104 C 0.29997 0.71405 0.11176 0.0
C3105 C 0.30783 0.70248 0.10774 0.0
C3106 C 0.28913 0.72593 0.06245 0.0
C3107 C 0.29372 0.71835 0.0875 0.0
C3108 C 0.28139 0.73387 0.05283 0.0
C3109 C 0.27027 0.74213 0.05745 0.0
C3110 C 0.28579 0.72635 0.07678 0.0
C3111 C 0.26713 0.74192 0.07186 0.0
C3112 C 0.29289 0.72194 0.10173 0.0
C3113 C 0.3085 0.69926 0.09339 0.0
N3114 N 0.27487 0.73426 0.08095 0.0
N3115 N 0.30157 0.70719 0.08376 0.0
H3116 H 0.32746 0.30486 0.10947 0.0
H3117 H 0.26739 0.30182 0.05052 0.0
H3118 H 0.29844 0.33822 0.10146 0.0
H3119 H 0.29082 0.26582 0.0638 0.0
H3120 H 0.28132 0.31636 0.06652 0.0
H3121 H 0.31641 0.29137 0.09062 0.0
C3122 C 0.31877 0.30937 0.10379 0.0
C3123 C 0.31387 0.32272 0.1072 0.0
C3124 C 0.28352 0.3053 0.06584 0.0
C3125 C 0.30129 0.30735 0.08537 0.0
C3126 C 0.27566 0.29701 0.05658 0.0
C3127 C 0.2779 0.28255 0.05584 0.0
C3128 C 0.29375 0.29912 0.07441 0.0
C3129 C 0.28864 0.27689 0.06415 0.0
C3130 C 0.31252 0.30168 0.09295 0.0
C3131 C 0.30275 0.32808 0.09918 0.0
N3132 N 0.29609 0.28516 0.07313 0.0
N3133 N 0.29682 0.32038 0.08871 0.0
H3134 H 0.69279 0.30985 0.10375 0.0
H3135 H 0.76177 0.2929 0.06065 0.0
H3136 H 0.73033 0.33562 0.10528 0.0
H3137 H 0.72165 0.27349 0.05181 0.0
H3138 H 0.75034 0.30891 0.07677 0.0
H3139 H 0.70296 0.29661 0.08457 0.0
C3140 C 0.7031 0.31285 0.1 0.0
C3141 C 0.71072 0.32387 0.1063 0.0
C3142 C 0.74399 0.30128 0.07118 0.0
C3143 C 0.72253 0.30853 0.08439 0.0
C3144 C 0.75051 0.29216 0.06197 0.0
C3145 C 0.74264 0.28186 0.05489 0.0
C3146 C 0.7295 0.29998 0.07353 0.0
C3147 C 0.72808 0.28135 0.05697 0.0
C3148 C 0.70893 0.30523 0.08905 0.0
C3149 C 0.72415 0.32705 0.10103 0.0
N3150 N 0.722 0.29016 0.06623 0.0
N3151 N 0.72964 0.31938 0.09048 0.0
H3152 H 0.71174 0.30234 0.90403 0.0
H3153 H 0.73601 0.29351 0.98422 0.0
H3154 H 0.70556 0.33441 0.93493 0.0
H3155 H 0.74182 0.2628 0.9519 0.0
H3156 H 0.72344 0.30822 0.96715 0.0
H3157 H 0.72151 0.2873 0.92217 0.0
C3158 C 0.71247 0.30623 0.91466 0.0
C3159 C 0.70797 0.31972 0.91792 0.0
C3160 C 0.72745 0.29824 0.96384 0.0
C3161 C 0.71914 0.30246 0.9389 0.0
C3162 C 0.73457 0.28985 0.97358 0.0
C3163 C 0.74017 0.27704 0.9694 0.0
C3164 C 0.72586 0.29369 0.94991 0.0
C3165 C 0.73798 0.27275 0.9555 0.0
C3166 C 0.718 0.29761 0.92506 0.0
C3167 C 0.70889 0.32407 0.93196 0.0
N3168 N 0.73108 0.28105 0.9463 0.0
N3169 N 0.71447 0.31551 0.94193 0.0
H3170 H 0.67894 0.71377 0.9354 0.0
H3171 H 0.75576 0.73532 0.96265 0.0
H3172 H 0.71696 0.70314 0.91385 0.0
H3173 H 0.71759 0.75096 0.98039 0.0
H3174 H 0.74178 0.72059 0.94685 0.0
H3175 H 0.693 0.72466 0.95392 0.0
C3176 C 0.69025 0.7137 0.93455 0.0
C3177 C 0.69673 0.70765 0.92291 0.0
C3178 C 0.73647 0.72714 0.9543 0.0
C3179 C 0.71296 0.72001 0.94426 0.0
C3180 C 0.74444 0.73557 0.96333 0.0
C3181 C 0.73788 0.74453 0.97282 0.0
C3182 C 0.72178 0.72762 0.95472 0.0
C3183 C 0.72316 0.74418 0.97336 0.0
C3184 C 0.69828 0.71987 0.94519 0.0
C3185 C 0.71146 0.70759 0.92262 0.0
N3186 N 0.71563 0.73599 0.96436 0.0
N3187 N 0.71906 0.71377 0.93306 0.0
H3188 H 0.33352 0.7313 0.92443 0.0
H3189 H 0.2667 0.72339 0.97467 0.0
H3190 H 0.30435 0.69635 0.92254 0.0
H3191 H 0.28972 0.76209 0.96838 0.0
H3192 H 0.28289 0.71172 0.95878 0.0
H3193 H 0.31981 0.74119 0.94338 0.0
C3194 C 0.32422 0.72569 0.92794 0.0
C3195 C 0.32003 0.71302 0.92167 0.0
C3196 C 0.28449 0.72272 0.96101 0.0
C3197 C 0.30439 0.72423 0.94368 0.0
C3198 C 0.27534 0.72935 0.97017 0.0
C3199 C 0.27685 0.74373 0.9728 0.0
C3200 C 0.2953 0.73051 0.95452 0.0
C3201 C 0.28812 0.75101 0.96654 0.0
C3202 C 0.31645 0.73132 0.93886 0.0
C3203 C 0.30808 0.70609 0.92705 0.0
N3204 N 0.29686 0.74434 0.95766 0.0
N3205 N 0.30065 0.71181 0.93768 0.0
H3206 H 0.30426 0.33948 0.93226 0.0
H3207 H 0.28701 0.26302 0.9632 0.0
H3208 H 0.31828 0.30129 0.91332 0.0
H3209 H 0.26894 0.30085 0.97905 0.0
H3210 H 0.30111 0.2771 0.94687 0.0
H3211 H 0.29369 0.32572 0.95124 0.0
C3212 C 0.30513 0.3282 0.93207 0.0
C3213 C 0.31207 0.32156 0.92103 0.0
C3214 C 0.29416 0.28234 0.95401 0.0
C3215 C 0.30008 0.3057 0.94293 0.0
C3216 C 0.2861 0.2743 0.96335 0.0
C3217 C 0.27666 0.28073 0.97246 0.0
C3218 C 0.29281 0.29695 0.95373 0.0
C3219 C 0.27612 0.29542 0.97231 0.0
C3220 C 0.29915 0.32035 0.94298 0.0
C3221 C 0.31313 0.30691 0.9216 0.0
N3222 N 0.28396 0.303 0.96301 0.0
N3223 N 0.30712 0.29949 0.93229 0.0
H3224 H 0.60023 0.69169 0.21765 0.0
H3225 H 0.55707 0.76044 0.23394 0.0
H3226 H 0.60234 0.72909 0.19204 0.0
H3227 H 0.5481 0.72066 0.25379 0.0
H3228 H 0.5733 0.74892 0.21812 0.0
H3229 H 0.58082 0.70175 0.23065 0.0
C3230 C 0.59655 0.70194 0.21463 0.0
C3231 C 0.6031 0.70957 0.20377 0.0
C3232 C 0.56766 0.74265 0.2258 0.0
C3233 C 0.58093 0.72125 0.21881 0.0
C3234 C 0.55839 0.74923 0.23482 0.0
C3235 C 0.55124 0.7415 0.24519 0.0
C3236 C 0.57001 0.72823 0.22727 0.0
C3237 C 0.55332 0.72699 0.24587 0.0
C3238 C 0.58548 0.7077 0.22212 0.0
C3239 C 0.5979 0.7229 0.20052 0.0
N3240 N 0.56264 0.72085 0.23716 0.0
N3241 N 0.58724 0.72833 0.20805 0.0
H3242 H 0.33943 0.59729 0.22729 0.0
H3243 H 0.26501 0.5601 0.23879 0.0
H3244 H 0.30389 0.60447 0.20016 0.0
H3245 H 0.30269 0.54717 0.25998 0.0
H3246 H 0.27909 0.57595 0.22406 0.0
H3247 H 0.3263 0.5785 0.2389 0.0
C3248 C 0.32894 0.59483 0.22361 0.0
C3249 C 0.3228 0.60259 0.21269 0.0
C3250 C 0.28431 0.56952 0.23181 0.0
C3251 C 0.30753 0.58113 0.22625 0.0
C3252 C 0.27627 0.56048 0.24022 0.0
C3253 C 0.28268 0.55232 0.25065 0.0
C3254 C 0.29886 0.57056 0.23395 0.0
C3255 C 0.29732 0.55317 0.252 0.0
C3256 C 0.3214 0.58411 0.23033 0.0
C3257 C 0.30901 0.599 0.20867 0.0
N3258 N 0.30489 0.56224 0.24387 0.0
N3259 N 0.30183 0.58862 0.2155 0.0
H3260 H 0.42655 0.33243 0.2152 0.0
H3261 H 0.4653 0.26122 0.23506 0.0
H3262 H 0.41881 0.29295 0.1946 0.0
H3263 H 0.47453 0.30051 0.25536 0.0
H3264 H 0.44959 0.27327 0.2189 0.0
H3265 H 0.44511 0.32149 0.22907 0.0
C3266 C 0.42874 0.32148 0.21358 0.0
C3267 C 0.42105 0.31362 0.20369 0.0
C3268 C 0.45514 0.27932 0.22678 0.0
C3269 C 0.4424 0.30105 0.21948 0.0
C3270 C 0.46413 0.27244 0.236 0.0
C3271 C 0.47117 0.27986 0.24662 0.0
C3272 C 0.45303 0.29376 0.22822 0.0
C3273 C 0.46936 0.2944 0.24728 0.0
C3274 C 0.43941 0.31526 0.22144 0.0
C3275 C 0.42453 0.29951 0.20193 0.0
N3276 N 0.46034 0.30085 0.23831 0.0
N3277 N 0.43486 0.29369 0.20977 0.0
H3278 H 0.68741 0.41768 0.23353 0.0
H3279 H 0.7469 0.47681 0.22294 0.0
H3280 H 0.70564 0.42796 0.19333 0.0
H3281 H 0.7311 0.46337 0.26321 0.0
H3282 H 0.72941 0.46161 0.21149 0.0
H3283 H 0.70105 0.43668 0.24407 0.0
C3284 C 0.69415 0.42403 0.22686 0.0
C3285 C 0.69537 0.42115 0.21249 0.0
C3286 C 0.72964 0.46214 0.22283 0.0
C3287 C 0.71125 0.44292 0.22462 0.0
C3288 C 0.73952 0.47092 0.22936 0.0
C3289 C 0.7405 0.47129 0.24405 0.0
C3290 C 0.72066 0.45368 0.23105 0.0
C3291 C 0.73079 0.4633 0.25186 0.0
C3292 C 0.70202 0.43486 0.23293 0.0
C3293 C 0.7045 0.42964 0.20448 0.0
N3294 N 0.72138 0.45475 0.24528 0.0
N3295 N 0.71212 0.4401 0.21066 0.0
H3296 H 0.58709 0.30872 0.84318 0.0
H3297 H 0.55973 0.28965 0.76602 0.0
H3298 H 0.60784 0.32235 0.80521 0.0
H3299 H 0.54392 0.27002 0.80378 0.0
H3300 H 0.5749 0.30471 0.78034 0.0
H3301 H 0.56885 0.29742 0.82899 0.0
C3302 C 0.58782 0.30938 0.83186 0.0
C3303 C 0.59916 0.31639 0.82542 0.0
C3304 C 0.568 0.29721 0.7855 0.0
C3305 C 0.57814 0.30357 0.80908 0.0
C3306 C 0.55934 0.28858 0.77732 0.0
C3307 C 0.5506 0.27841 0.78367 0.0
C3308 C 0.56794 0.29572 0.80015 0.0
C3309 C 0.55038 0.27773 0.79839 0.0
C3310 C 0.57734 0.30297 0.82377 0.0
C3311 C 0.5993 0.31716 0.81069 0.0
N3312 N 0.559 0.28616 0.80611 0.0
N3313 N 0.58902 0.31074 0.80304 0.0
H3314 H 0.69058 0.60251 0.80863 0.0
H3315 H 0.75109 0.54534 0.80886 0.0
H3316 H 0.71757 0.59418 0.84407 0.0
H3317 H 0.72977 0.55911 0.77139 0.0
H3318 H 0.7356 0.55982 0.82285 0.0
H3319 H 0.702 0.58384 0.79576 0.0
C3320 C 0.69887 0.59677 0.81374 0.0
C3321 C 0.70316 0.60009 0.82747 0.0
C3322 C 0.73417 0.55953 0.81158 0.0
C3323 C 0.71615 0.57847 0.81279 0.0
C3324 C 0.74291 0.55112 0.8036 0.0
C3325 C 0.74178 0.55107 0.78892 0.0
C3326 C 0.7242 0.56794 0.80486 0.0
C3327 C 0.73111 0.55896 0.78267 0.0
C3328 C 0.70533 0.58603 0.8064 0.0
C3329 C 0.71377 0.59199 0.8336 0.0
N3330 N 0.72283 0.56717 0.79065 0.0
N3331 N 0.71993 0.58165 0.8262 0.0
H3332 H 0.41367 0.6918 0.79362 0.0
H3333 H 0.47192 0.75232 0.80332 0.0
H3334 H 0.4226 0.71148 0.83335 0.0
H3335 H 0.46096 0.73374 0.76357 0.0
H3336 H 0.45577 0.73585 0.81501 0.0
H3337 H 0.43254 0.7056 0.78298 0.0
C3338 C 0.41969 0.69891 0.80017 0.0
C3339 C 0.41649 0.70044 0.81445 0.0
C3340 C 0.457 0.73529 0.80375 0.0
C3341 C 0.43813 0.71651 0.80219 0.0
C3342 C 0.46632 0.74461 0.79708 0.0
C3343 C 0.46774 0.74446 0.78242 0.0
C3344 C 0.44907 0.72574 0.79571 0.0
C3345 C 0.46007 0.73435 0.77487 0.0
C3346 C 0.43044 0.70688 0.79405 0.0
C3347 C 0.42455 0.71007 0.82228 0.0
N3348 N 0.45102 0.72548 0.78157 0.0
N3349 N 0.43496 0.71775 0.81605 0.0
H3350 H 0.30496 0.41805 0.82895 0.0
H3351 H 0.30169 0.47674 0.7686 0.0
H3352 H 0.33767 0.42518 0.79845 0.0
H3353 H 0.26602 0.46381 0.7934 0.0
H3354 H 0.31629 0.4606 0.78206 0.0
H3355 H 0.29171 0.43706 0.8183 0.0
C3356 C 0.30938 0.42357 0.82002 0.0
C3357 C 0.32247 0.41986 0.81457 0.0
C3358 C 0.3053 0.4614 0.78466 0.0
C3359 C 0.30738 0.44189 0.80245 0.0
C3360 C 0.29699 0.47072 0.77707 0.0
C3361 C 0.2826 0.47158 0.77984 0.0
C3362 C 0.29921 0.45292 0.79515 0.0
C3363 C 0.27704 0.46337 0.79082 0.0
C3364 C 0.30183 0.43451 0.81399 0.0
C3365 C 0.32773 0.42769 0.80315 0.0
N3366 N 0.28533 0.45434 0.79801 0.0
N3367 N 0.32016 0.43827 0.79746 0.0
H3368 H 0.70903 0.59603 0.19436 0.0
H3369 H 0.72955 0.55492 0.26482 0.0
H3370 H 0.68933 0.60238 0.23444 0.0
H3371 H 0.7497 0.54803 0.22512 0.0
H3372 H 0.71331 0.5708 0.25324 0.0
H3373 H 0.72289 0.57729 0.20485 0.0
C3374 C 0.7076 0.5935 0.20536 0.0
C3375 C 0.69798 0.60087 0.21351 0.0
C3376 C 0.72118 0.56573 0.247 0.0
C3377 C 0.71376 0.57929 0.22557 0.0
C3378 C 0.73044 0.55664 0.25362 0.0
C3379 C 0.74105 0.5502 0.24595 0.0
C3380 C 0.72254 0.56853 0.23258 0.0
C3381 C 0.74163 0.5527 0.23143 0.0
C3382 C 0.71546 0.58273 0.21132 0.0
C3383 C 0.69646 0.59693 0.22766 0.0
N3384 N 0.73261 0.56179 0.22524 0.0
N3385 N 0.70429 0.5865 0.23322 0.0
H3386 H 0.7206 0.40442 0.81042 0.0
H3387 H 0.73256 0.48439 0.78661 0.0
H3388 H 0.68935 0.43593 0.81639 0.0
H3389 H 0.76299 0.45181 0.78228 0.0
H3390 H 0.71673 0.46747 0.79835 0.0
H3391 H 0.73638 0.42221 0.80074 0.0
C3392 C 0.71703 0.4151 0.80965 0.0
C3393 C 0.70357 0.41864 0.81411 0.0
C3394 C 0.72688 0.46407 0.79482 0.0
C3395 C 0.72171 0.43924 0.80305 0.0
C3396 C 0.73592 0.47372 0.78816 0.0
C3397 C 0.74901 0.46945 0.78323 0.0
C3398 C 0.73105 0.45011 0.79662 0.0
C3399 C 0.75286 0.4555 0.78557 0.0
C3400 C 0.72609 0.4253 0.80418 0.0
C3401 C 0.69966 0.43275 0.81313 0.0
N3402 N 0.74393 0.44638 0.79202 0.0
N3403 N 0.70866 0.44252 0.80762 0.0
H3404 H 0.59916 0.71542 0.83222 0.0
H3405 H 0.55255 0.73097 0.76458 0.0
H3406 H 0.59626 0.68759 0.7968 0.0
H3407 H 0.54776 0.75322 0.80339 0.0
H3408 H 0.5682 0.71466 0.77645 0.0
H3409 H 0.5801 0.72913 0.82222 0.0
C3410 C 0.59445 0.71207 0.82243 0.0
C3411 C 0.59949 0.70035 0.81531 0.0
C3412 C 0.5636 0.72298 0.78245 0.0
C3413 C 0.57773 0.71619 0.80369 0.0
C3414 C 0.55465 0.73228 0.77567 0.0
C3415 C 0.54887 0.74346 0.78302 0.0
C3416 C 0.56701 0.72498 0.79665 0.0
C3417 C 0.55193 0.74468 0.79738 0.0
C3418 C 0.58358 0.71996 0.8167 0.0
C3419 C 0.59302 0.6967 0.80254 0.0
N3420 N 0.56094 0.73567 0.80369 0.0
N3421 N 0.58259 0.70464 0.79712 0.0
H3422 H 0.32538 0.60444 0.81105 0.0
H3423 H 0.25819 0.55618 0.79662 0.0
H3424 H 0.29063 0.60075 0.83977 0.0
H3425 H 0.29674 0.55209 0.77372 0.0
H3426 H 0.27013 0.57213 0.81287 0.0
H3427 H 0.31544 0.58501 0.79753 0.0
C3428 C 0.31576 0.59947 0.81464 0.0
C3429 C 0.3088 0.60441 0.82655 0.0
C3430 C 0.27605 0.56761 0.80442 0.0
C3431 C 0.29723 0.58222 0.81092 0.0
C3432 C 0.26924 0.5585 0.79515 0.0
C3433 C 0.27649 0.55283 0.78381 0.0
C3434 C 0.29019 0.5713 0.80221 0.0
C3435 C 0.2908 0.55616 0.78239 0.0
C3436 C 0.31006 0.58839 0.80686 0.0
C3437 C 0.29624 0.59759 0.83051 0.0
N3438 N 0.29714 0.56533 0.79136 0.0
N3439 N 0.29083 0.58696 0.82266 0.0
H3440 H 0.41756 0.32659 0.80636 0.0
H3441 H 0.47423 0.26559 0.80445 0.0
H3442 H 0.42379 0.29687 0.84003 0.0
H3443 H 0.4625 0.28993 0.76813 0.0
H3444 H 0.45848 0.2795 0.81874 0.0
H3445 H 0.43625 0.31546 0.79322 0.0
C3446 C 0.42282 0.31773 0.81102 0.0
C3447 C 0.41895 0.31265 0.82435 0.0
C3448 C 0.45945 0.28189 0.80767 0.0
C3449 C 0.44059 0.29997 0.80937 0.0
C3450 C 0.46856 0.27404 0.79953 0.0
C3451 C 0.46966 0.27655 0.78505 0.0
C3452 C 0.4514 0.29238 0.80132 0.0
C3453 C 0.46187 0.28753 0.77922 0.0
C3454 C 0.43357 0.31144 0.80352 0.0
C3455 C 0.42644 0.30131 0.8299 0.0
N3456 N 0.45302 0.29497 0.78735 0.0
N3457 N 0.43683 0.29534 0.82238 0.0
H3458 H 0.3409 0.42545 0.23021 0.0
H3459 H 0.26733 0.46352 0.23611 0.0
H3460 H 0.30687 0.41872 0.20092 0.0
H3461 H 0.30343 0.47455 0.26129 0.0
H3462 H 0.28188 0.44783 0.22241 0.0
H3463 H 0.32767 0.4441 0.24105 0.0
C3464 C 0.33072 0.42798 0.22591 0.0
C3465 C 0.32503 0.4204 0.21459 0.0
C3466 C 0.28667 0.4538 0.23082 0.0
C3467 C 0.30965 0.44171 0.22723 0.0
C3468 C 0.27836 0.46276 0.23864 0.0
C3469 C 0.28415 0.47033 0.2499 0.0
C3470 C 0.30087 0.45225 0.23435 0.0
C3471 C 0.29854 0.46901 0.25265 0.0
C3472 C 0.32313 0.43861 0.23219 0.0
C3473 C 0.31164 0.42406 0.20975 0.0
N3474 N 0.30636 0.46003 0.24504 0.0
N3475 N 0.30439 0.43437 0.21613 0.0
H3476 H 0.60204 0.32806 0.21696 0.0
H3477 H 0.55576 0.25995 0.23368 0.0
H3478 H 0.59986 0.29223 0.18962 0.0
H3479 H 0.55032 0.29908 0.25506 0.0
H3480 H 0.57163 0.27174 0.21715 0.0
H3481 H 0.58287 0.31791 0.23079 0.0
C3482 C 0.59746 0.31815 0.21374 0.0
C3483 C 0.60273 0.31097 0.20211 0.0
C3484 C 0.56683 0.27781 0.22534 0.0
C3485 C 0.58086 0.29917 0.21812 0.0
C3486 C 0.55778 0.27108 0.23476 0.0
C3487 C 0.55174 0.27855 0.24576 0.0
C3488 C 0.57008 0.2921 0.22703 0.0
C3489 C 0.55467 0.29296 0.24667 0.0
C3490 C 0.58653 0.31233 0.2217 0.0
C3491 C 0.59643 0.29804 0.19865 0.0
N3492 N 0.56377 0.29923 0.23754 0.0
N3493 N 0.58593 0.29253 0.20666 0.0
H3494 H 0.41381 0.73351 0.1925 0.0
H3495 H 0.47318 0.72161 0.25072 0.0
H3496 H 0.42449 0.6928 0.20882 0.0
H3497 H 0.46143 0.76218 0.23489 0.0
H3498 H 0.45718 0.71063 0.2338 0.0
H3499 H 0.43269 0.7439 0.20644 0.0
C3500 C 0.42022 0.72671 0.1989 0.0
C3501 C 0.41751 0.71223 0.19946 0.0
C3502 C 0.4582 0.72193 0.23393 0.0
C3503 C 0.43913 0.72416 0.21568 0.0
C3504 C 0.46744 0.72821 0.24351 0.0
C3505 C 0.4686 0.74285 0.24428 0.0
C3506 C 0.45004 0.73035 0.22505 0.0
C3507 C 0.46073 0.75086 0.23479 0.0
C3508 C 0.43097 0.73269 0.20693 0.0
C3509 C 0.42605 0.70403 0.20818 0.0
N3510 N 0.45173 0.74452 0.22566 0.0
N3511 N 0.43644 0.71011 0.21597 0.0
loop_
_geom_bond_atom_site_label_1
_geom_bond_atom_site_label_2
_geom_bond_distance
_geom_bond_site_symmetry_2
_ccdc_geom_bond_type
C0 C1 1.264 . S
C0 C5 1.479 . S
C0 C10 1.465 . S
C1 C0 1.264 . S
C1 C3 1.339 . S
C1 H28 0.931 . S
C2 C3 1.395 . S
C2 C4 1.320 . S
C3 C1 1.339 . S
C3 C2 1.395 . S
C3 H29 0.929 . S
C4 C2 1.320 . S
C4 C5 1.405 . S
C4 H30 0.930 . S
C5 C0 1.479 . S
C5 C4 1.405 . S
C5 H31 0.931 . S
U6 O7 2.454 . S
U6 O8 2.458 . S
U6 C9 2.984 . S
U6 C10 2.847 . S
U6 C23 2.882 . S
U6 O24 2.441 . S
U6 O25 2.420 . S
U6 O26 2.455 . S
U6 O27 2.449 . S
O7 U6 2.454 . S
O7 C9 1.353 . S
O8 U6 2.458 . S
O8 C9 1.286 . S
C9 U6 2.984 . S
C9 O7 1.353 . S
C9 O8 1.286 . S
C9 C11 1.363 . S
C10 C0 1.465 . S
C10 U6 2.847 . S
C10 O24 1.249 . S
C10 O25 1.202 . S
C11 C9 1.363 . S
C11 C13 1.408 . S
C11 C16 1.342 . S
C12 C13 1.310 . S
C12 C15 1.461 . S
C12 H32 0.932 . S
C13 C11 1.408 . S
C13 C12 1.310 . S
C13 H33 0.930 . S
C14 C15 1.474 . S
C14 C16 1.285 . S
C14 H34 0.929 . S
C15 C12 1.461 . S
C15 C14 1.474 . S
C16 C11 1.342 . S
C16 C14 1.285 . S
C16 H35 0.930 . S
C17 C20 1.424 . S
C17 C22 1.245 . S
C17 C23 1.428 . S
C18 C21 1.260 . S
C18 C22 1.477 . S
C18 H36 0.932 . S
C19 C20 1.384 . S
C19 C21 1.479 . S
C19 H37 0.929 . S
C20 C17 1.424 . S
C20 C19 1.384 . S
C20 H38 0.928 . S
C21 C18 1.260 . S
C21 C19 1.479 . S
C22 C17 1.245 . S
C22 C18 1.477 . S
C22 H39 0.932 . S
C23 U6 2.882 . S
C23 C17 1.428 . S
C23 O26 1.301 . S
C23 O27 1.282 . S
O24 U6 2.441 . S
O24 C10 1.249 . S
O25 U6 2.420 . S
O25 C10 1.202 . S
O26 U6 2.455 . S
O26 C23 1.301 . S
O27 U6 2.449 . S
O27 C23 1.282 . S
H28 C1 0.931 . S
H29 C3 0.929 . S
H30 C4 0.930 . S
H31 C5 0.931 . S
H32 C12 0.932 . S
H33 C13 0.930 . S
H34 C14 0.929 . S
H35 C16 0.930 . S
H36 C18 0.932 . S
H37 C19 0.929 . S
H38 C20 0.928 . S
H39 C22 0.932 . S
C40 C41 1.264 . S
C40 C45 1.479 . S
C40 C50 1.465 . S
C41 C40 1.264 . S
C41 C43 1.339 . S
C41 H68 0.931 . S
C42 C43 1.395 . S
C42 C44 1.320 . S
C43 C41 1.339 . S
C43 C42 1.395 . S
C43 H69 0.929 . S
C44 C42 1.320 . S
C44 C45 1.405 . S
C44 H70 0.930 . S
C45 C40 1.479 . S
C45 C44 1.405 . S
C45 H71 0.931 . S
U46 O47 2.454 . S
U46 O48 2.458 . S
U46 C49 2.984 . S
U46 C50 2.847 . S
U46 C63 2.882 . S
U46 O64 2.441 . S
U46 O65 2.420 . S
U46 O66 2.455 . S
U46 O67 2.449 . S
O47 U46 2.454 . S
O47 C49 1.353 . S
O48 U46 2.458 . S
O48 C49 1.286 . S
C49 U46 2.984 . S
C49 O47 1.353 . S
C49 O48 1.286 . S
C49 C51 1.363 . S
C50 C40 1.465 . S
C50 U46 2.847 . S
C50 O64 1.249 . S
C50 O65 1.202 . S
C51 C49 1.363 . S
C51 C53 1.408 . S
C51 C56 1.342 . S
C52 C53 1.310 . S
C52 C55 1.461 . S
C52 H72 0.932 . S
C53 C51 1.408 . S
C53 C52 1.310 . S
C53 H73 0.930 . S
C54 C55 1.474 . S
C54 C56 1.285 . S
C54 H74 0.929 . S
C55 C52 1.461 . S
C55 C54 1.474 . S
C56 C51 1.342 . S
C56 C54 1.285 . S
C56 H75 0.930 . S
C57 C60 1.424 . S
C57 C62 1.245 . S
C57 C63 1.428 . S
C58 C61 1.260 . S
C58 C62 1.477 . S
C58 H76 0.932 . S
C59 C60 1.384 . S
C59 C61 1.479 . S
C59 H77 0.929 . S
C60 C57 1.424 . S
C60 C59 1.384 . S
C60 H78 0.928 . S
C61 C58 1.260 . S
C61 C59 1.479 . S
C62 C57 1.245 . S
C62 C58 1.477 . S
C62 H79 0.932 . S
C63 U46 2.882 . S
C63 C57 1.428 . S
C63 O66 1.301 . S
C63 O67 1.282 . S
O64 U46 2.441 . S
O64 C50 1.249 . S
O65 U46 2.420 . S
O65 C50 1.202 . S
O66 U46 2.455 . S
O66 C63 1.301 . S
O67 U46 2.449 . S
O67 C63 1.282 . S
H68 C41 0.931 . S
H69 C43 0.929 . S
H70 C44 0.930 . S
H71 C45 0.931 . S
H72 C52 0.932 . S
H73 C53 0.930 . S
H74 C54 0.929 . S
H75 C56 0.930 . S
H76 C58 0.932 . S
H77 C59 0.929 . S
H78 C60 0.928 . S
H79 C62 0.932 . S
C80 C81 1.264 . S
C80 C85 1.479 . S
C80 C90 1.465 . S
C81 C80 1.264 . S
C81 C83 1.339 . S
C81 H108 0.931 . S
C82 C83 1.395 . S
C82 C84 1.320 . S
C83 C81 1.339 . S
C83 C82 1.395 . S
C83 H109 0.929 . S
C84 C82 1.320 . S
C84 C85 1.405 . S
C84 H110 0.930 . S
C85 C80 1.479 . S
C85 C84 1.405 . S
C85 H111 0.931 . S
U86 O87 2.454 . S
U86 O88 2.458 . S
U86 C89 2.984 . S
U86 C90 2.847 . S
U86 C103 2.882 . S
U86 O104 2.441 . S
U86 O105 2.420 . S
U86 O106 2.455 . S
U86 O107 2.449 . S
O87 U86 2.454 . S
O87 C89 1.353 . S
O88 U86 2.458 . S
O88 C89 1.286 . S
C89 U86 2.984 . S
C89 O87 1.353 . S
C89 O88 1.286 . S
C89 C91 1.363 . S
C90 C80 1.465 . S
C90 U86 2.847 . S
C90 O104 1.249 . S
C90 O105 1.202 . S
C91 C89 1.363 . S
C91 C93 1.408 . S
C91 C96 1.342 . S
C92 C93 1.310 . S
C92 C95 1.461 . S
C92 H112 0.932 . S
C93 C91 1.408 . S
C93 C92 1.310 . S
C93 H113 0.930 . S
C94 C95 1.474 . S
C94 C96 1.285 . S
C94 H114 0.929 . S
C95 C92 1.461 . S
C95 C94 1.474 . S
C96 C91 1.342 . S
C96 C94 1.285 . S
C96 H115 0.930 . S
C97 C100 1.424 . S
C97 C102 1.245 . S
C97 C103 1.428 . S
C98 C101 1.260 . S
C98 C102 1.477 . S
C98 H116 0.932 . S
C99 C100 1.384 . S
C99 C101 1.479 . S
C99 H117 0.929 . S
C100 C97 1.424 . S
C100 C99 1.384 . S
C100 H118 0.928 . S
C101 C98 1.260 . S
C101 C99 1.479 . S
C102 C97 1.245 . S
C102 C98 1.477 . S
C102 H119 0.932 . S
C103 U86 2.882 . S
C103 C97 1.428 . S
C103 O106 1.301 . S
C103 O107 1.282 . S
O104 U86 2.441 . S
O104 C90 1.249 . S
O105 U86 2.420 . S
O105 C90 1.202 . S
O106 U86 2.455 . S
O106 C103 1.301 . S
O107 U86 2.449 . S
O107 C103 1.282 . S
H108 C81 0.931 . S
H109 C83 0.929 . S
H110 C84 0.930 . S
H111 C85 0.931 . S
H112 C92 0.932 . S
H113 C93 0.930 . S
H114 C94 0.929 . S
H115 C96 0.930 . S
H116 C98 0.932 . S
H117 C99 0.929 . S
H118 C100 0.928 . S
H119 C102 0.932 . S
C120 C121 1.264 . S
C120 C125 1.479 . S
C120 C130 1.465 . S
C121 C120 1.264 . S
C121 C123 1.339 . S
C121 H148 0.931 . S
C122 C123 1.395 . S
C122 C124 1.320 . S
C123 C121 1.339 . S
C123 C122 1.395 . S
C123 H149 0.929 . S
C124 C122 1.320 . S
C124 C125 1.405 . S
C124 H150 0.930 . S
C125 C120 1.479 . S
C125 C124 1.405 . S
C125 H151 0.931 . S
U126 O127 2.454 . S
U126 O128 2.458 . S
U126 C129 2.984 . S
U126 C130 2.847 . S
U126 C143 2.882 . S
U126 O144 2.441 . S
U126 O145 2.420 . S
U126 O146 2.455 . S
U126 O147 2.449 . S
O127 U126 2.454 . S
O127 C129 1.353 . S
O128 U126 2.458 . S
O128 C129 1.286 . S
C129 U126 2.984 . S
C129 O127 1.353 . S
C129 O128 1.286 . S
C129 C131 1.363 . S
C130 C120 1.465 . S
C130 U126 2.847 . S
C130 O144 1.249 . S
C130 O145 1.202 . S
C131 C129 1.363 . S
C131 C133 1.408 . S
C131 C136 1.342 . S
C132 C133 1.310 . S
C132 C135 1.461 . S
C132 H152 0.932 . S
C133 C131 1.408 . S
C133 C132 1.310 . S
C133 H153 0.930 . S
C134 C135 1.474 . S
C134 C136 1.285 . S
C134 H154 0.929 . S
C135 C132 1.461 . S
C135 C134 1.474 . S
C136 C131 1.342 . S
C136 C134 1.285 . S
C136 H155 0.930 . S
C137 C140 1.424 . S
C137 C142 1.245 . S
C137 C143 1.428 . S
C138 C141 1.260 . S
C138 C142 1.477 . S
C138 H156 0.932 . S
C139 C140 1.384 . S
C139 C141 1.479 . S
C139 H157 0.929 . S
C140 C137 1.424 . S
C140 C139 1.384 . S
C140 H158 0.928 . S
C141 C138 1.260 . S
C141 C139 1.479 . S
C142 C137 1.245 . S
C142 C138 1.477 . S
C142 H159 0.932 . S
C143 U126 2.882 . S
C143 C137 1.428 . S
C143 O146 1.301 . S
C143 O147 1.282 . S
O144 U126 2.441 . S
O144 C130 1.249 . S
O145 U126 2.420 . S
O145 C130 1.202 . S
O146 U126 2.455 . S
O146 C143 1.301 . S
O147 U126 2.449 . S
O147 C143 1.282 . S
H148 C121 0.931 . S
H149 C123 0.929 . S
H150 C124 0.930 . S
H151 C125 0.931 . S
H152 C132 0.932 . S
H153 C133 0.930 . S
H154 C134 0.929 . S
H155 C136 0.930 . S
H156 C138 0.932 . S
H157 C139 0.929 . S
H158 C140 0.928 . S
H159 C142 0.932 . S
C160 C161 1.264 . S
C160 C165 1.479 . S
C160 C170 1.465 . S
C161 C160 1.264 . S
C161 C163 1.339 . S
C161 H188 0.931 . S
C162 C163 1.395 . S
C162 C164 1.320 . S
C163 C161 1.339 . S
C163 C162 1.395 . S
C163 H189 0.929 . S
C164 C162 1.320 . S
C164 C165 1.405 . S
C164 H190 0.930 . S
C165 C160 1.479 . S
C165 C164 1.405 . S
C165 H191 0.931 . S
U166 O167 2.454 . S
U166 O168 2.458 . S
U166 C169 2.984 . S
U166 C170 2.847 . S
U166 C183 2.882 . S
U166 O184 2.441 . S
U166 O185 2.420 . S
U166 O186 2.455 . S
U166 O187 2.449 . S
O167 U166 2.454 . S
O167 C169 1.353 . S
O168 U166 2.458 . S
O168 C169 1.286 . S
C169 U166 2.984 . S
C169 O167 1.353 . S
C169 O168 1.286 . S
C169 C171 1.363 . S
C170 C160 1.465 . S
C170 U166 2.847 . S
C170 O184 1.249 . S
C170 O185 1.202 . S
C171 C169 1.363 . S
C171 C173 1.408 . S
C171 C176 1.342 . S
C172 C173 1.310 . S
C172 C175 1.461 . S
C172 H192 0.932 . S
C173 C171 1.408 . S
C173 C172 1.310 . S
C173 H193 0.930 . S
C174 C175 1.474 . S
C174 C176 1.285 . S
C174 H194 0.929 . S
C175 C172 1.461 . S
C175 C174 1.474 . S
C176 C171 1.342 . S
C176 C174 1.285 . S
C176 H195 0.930 . S
C177 C180 1.424 . S
C177 C182 1.245 . S
C177 C183 1.428 . S
C178 C181 1.260 . S
C178 C182 1.477 . S
C178 H196 0.932 . S
C179 C180 1.384 . S
C179 C181 1.479 . S
C179 H197 0.929 . S
C180 C177 1.424 . S
C180 C179 1.384 . S
C180 H198 0.928 . S
C181 C178 1.260 . S
C181 C179 1.479 . S
C182 C177 1.245 . S
C182 C178 1.477 . S
C182 H199 0.932 . S
C183 U166 2.882 . S
C183 C177 1.428 . S
C183 O186 1.301 . S
C183 O187 1.282 . S
O184 U166 2.441 . S
O184 C170 1.249 . S
O185 U166 2.420 . S
O185 C170 1.202 . S
O186 U166 2.455 . S
O186 C183 1.301 . S
O187 U166 2.449 . S
O187 C183 1.282 . S
H188 C161 0.931 . S
H189 C163 0.929 . S
H190 C164 0.930 . S
H191 C165 0.931 . S
H192 C172 0.932 . S
H193 C173 0.930 . S
H194 C174 0.929 . S
H195 C176 0.930 . S
H196 C178 0.932 . S
H197 C179 0.929 . S
H198 C180 0.928 . S
H199 C182 0.932 . S
C200 C201 1.264 . S
C200 C205 1.479 . S
C200 C210 1.465 . S
C201 C200 1.264 . S
C201 C203 1.339 . S
C201 H228 0.931 . S
C202 C203 1.395 . S
C202 C204 1.320 . S
C203 C201 1.339 . S
C203 C202 1.395 . S
C203 H229 0.929 . S
C204 C202 1.320 . S
C204 C205 1.405 . S
C204 H230 0.930 . S
C205 C200 1.479 . S
C205 C204 1.405 . S
C205 H231 0.931 . S
U206 O207 2.454 . S
U206 O208 2.458 . S
U206 C209 2.984 . S
U206 C210 2.847 . S
U206 C223 2.882 . S
U206 O224 2.441 . S
U206 O225 2.420 . S
U206 O226 2.455 . S
U206 O227 2.449 . S
O207 U206 2.454 . S
O207 C209 1.353 . S
O208 U206 2.458 . S
O208 C209 1.286 . S
C209 U206 2.984 . S
C209 O207 1.353 . S
C209 O208 1.286 . S
C209 C211 1.363 . S
C210 C200 1.465 . S
C210 U206 2.847 . S
C210 O224 1.249 . S
C210 O225 1.202 . S
C211 C209 1.363 . S
C211 C213 1.408 . S
C211 C216 1.342 . S
C212 C213 1.310 . S
C212 C215 1.461 . S
C212 H232 0.932 . S
C213 C211 1.408 . S
C213 C212 1.310 . S
C213 H233 0.930 . S
C214 C215 1.474 . S
C214 C216 1.285 . S
C214 H234 0.929 . S
C215 C212 1.461 . S
C215 C214 1.474 . S
C216 C211 1.342 . S
C216 C214 1.285 . S
C216 H235 0.930 . S
C217 C220 1.424 . S
C217 C222 1.245 . S
C217 C223 1.428 . S
C218 C221 1.260 . S
C218 C222 1.477 . S
C218 H236 0.932 . S
C219 C220 1.384 . S
C219 C221 1.479 . S
C219 H237 0.929 . S
C220 C217 1.424 . S
C220 C219 1.384 . S
C220 H238 0.928 . S
C221 C218 1.260 . S
C221 C219 1.479 . S
C222 C217 1.245 . S
C222 C218 1.477 . S
C222 H239 0.932 . S
C223 U206 2.882 . S
C223 C217 1.428 . S
C223 O226 1.301 . S
C223 O227 1.282 . S
O224 U206 2.441 . S
O224 C210 1.249 . S
O225 U206 2.420 . S
O225 C210 1.202 . S
O226 U206 2.455 . S
O226 C223 1.301 . S
O227 U206 2.449 . S
O227 C223 1.282 . S
H228 C201 0.931 . S
H229 C203 0.929 . S
H230 C204 0.930 . S
H231 C205 0.931 . S
H232 C212 0.932 . S
H233 C213 0.930 . S
H234 C214 0.929 . S
H235 C216 0.930 . S
H236 C218 0.932 . S
H237 C219 0.929 . S
H238 C220 0.928 . S
H239 C222 0.932 . S
C240 C241 1.264 . S
C240 C245 1.479 . S
C240 C250 1.465 . S
C241 C240 1.264 . S
C241 C243 1.339 . S
C241 H268 0.931 . S
C242 C243 1.395 . S
C242 C244 1.320 . S
C243 C241 1.339 . S
C243 C242 1.395 . S
C243 H269 0.929 . S
C244 C242 1.320 . S
C244 C245 1.405 . S
C244 H270 0.930 . S
C245 C240 1.479 . S
C245 C244 1.405 . S
C245 H271 0.931 . S
U246 O247 2.454 . S
U246 O248 2.458 . S
U246 C249 2.984 . S
U246 C250 2.847 . S
U246 C263 2.882 . S
U246 O264 2.441 . S
U246 O265 2.420 . S
U246 O266 2.455 . S
U246 O267 2.449 . S
O247 U246 2.454 . S
O247 C249 1.353 . S
O248 U246 2.458 . S
O248 C249 1.286 . S
C249 U246 2.984 . S
C249 O247 1.353 . S
C249 O248 1.286 . S
C249 C251 1.363 . S
C250 C240 1.465 . S
C250 U246 2.847 . S
C250 O264 1.249 . S
C250 O265 1.202 . S
C251 C249 1.363 . S
C251 C253 1.408 . S
C251 C256 1.342 . S
C252 C253 1.310 . S
C252 C255 1.461 . S
C252 H272 0.932 . S
C253 C251 1.408 . S
C253 C252 1.310 . S
C253 H273 0.930 . S
C254 C255 1.474 . S
C254 C256 1.285 . S
C254 H274 0.929 . S
C255 C252 1.461 . S
C255 C254 1.474 . S
C256 C251 1.342 . S
C256 C254 1.285 . S
C256 H275 0.930 . S
C257 C260 1.424 . S
C257 C262 1.245 . S
C257 C263 1.428 . S
C258 C261 1.260 . S
C258 C262 1.477 . S
C258 H276 0.932 . S
C259 C260 1.384 . S
C259 C261 1.479 . S
C259 H277 0.929 . S
C260 C257 1.424 . S
C260 C259 1.384 . S
C260 H278 0.928 . S
C261 C258 1.260 . S
C261 C259 1.479 . S
C262 C257 1.245 . S
C262 C258 1.477 . S
C262 H279 0.932 . S
C263 U246 2.882 . S
C263 C257 1.428 . S
C263 O266 1.301 . S
C263 O267 1.282 . S
O264 U246 2.441 . S
O264 C250 1.249 . S
O265 U246 2.420 . S
O265 C250 1.202 . S
O266 U246 2.455 . S
O266 C263 1.301 . S
O267 U246 2.449 . S
O267 C263 1.282 . S
H268 C241 0.931 . S
H269 C243 0.929 . S
H270 C244 0.930 . S
H271 C245 0.931 . S
H272 C252 0.932 . S
H273 C253 0.930 . S
H274 C254 0.929 . S
H275 C256 0.930 . S
H276 C258 0.932 . S
H277 C259 0.929 . S
H278 C260 0.928 . S
H279 C262 0.932 . S
C280 C281 1.264 . S
C280 C285 1.479 . S
C280 C290 1.465 . S
C281 C280 1.264 . S
C281 C283 1.339 . S
C281 H308 0.931 . S
C282 C283 1.395 . S
C282 C284 1.320 . S
C283 C281 1.339 . S
C283 C282 1.395 . S
C283 H309 0.929 . S
C284 C282 1.320 . S
C284 C285 1.405 . S
C284 H310 0.930 . S
C285 C280 1.479 . S
C285 C284 1.405 . S
C285 H311 0.931 . S
U286 O287 2.454 . S
U286 O288 2.458 . S
U286 C289 2.984 . S
U286 C290 2.847 . S
U286 C303 2.882 . S
U286 O304 2.441 . S
U286 O305 2.420 . S
U286 O306 2.455 . S
U286 O307 2.449 . S
O287 U286 2.454 . S
O287 C289 1.353 . S
O288 U286 2.458 . S
O288 C289 1.286 . S
C289 U286 2.984 . S
C289 O287 1.353 . S
C289 O288 1.286 . S
C289 C291 1.363 . S
C290 C280 1.465 . S
C290 U286 2.847 . S
C290 O304 1.249 . S
C290 O305 1.202 . S
C291 C289 1.363 . S
C291 C293 1.408 . S
C291 C296 1.342 . S
C292 C293 1.310 . S
C292 C295 1.461 . S
C292 H312 0.932 . S
C293 C291 1.408 . S
C293 C292 1.310 . S
C293 H313 0.930 . S
C294 C295 1.474 . S
C294 C296 1.285 . S
C294 H314 0.929 . S
C295 C292 1.461 . S
C295 C294 1.474 . S
C296 C291 1.342 . S
C296 C294 1.285 . S
C296 H315 0.930 . S
C297 C300 1.424 . S
C297 C302 1.245 . S
C297 C303 1.428 . S
C298 C301 1.260 . S
C298 C302 1.477 . S
C298 H316 0.932 . S
C299 C300 1.384 . S
C299 C301 1.479 . S
C299 H317 0.929 . S
C300 C297 1.424 . S
C300 C299 1.384 . S
C300 H318 0.928 . S
C301 C298 1.260 . S
C301 C299 1.479 . S
C302 C297 1.245 . S
C302 C298 1.477 . S
C302 H319 0.932 . S
C303 U286 2.882 . S
C303 C297 1.428 . S
C303 O306 1.301 . S
C303 O307 1.282 . S
O304 U286 2.441 . S
O304 C290 1.249 . S
O305 U286 2.420 . S
O305 C290 1.202 . S
O306 U286 2.455 . S
O306 C303 1.301 . S
O307 U286 2.449 . S
O307 C303 1.282 . S
H308 C281 0.931 . S
H309 C283 0.929 . S
H310 C284 0.930 . S
H311 C285 0.931 . S
H312 C292 0.932 . S
H313 C293 0.930 . S
H314 C294 0.929 . S
H315 C296 0.930 . S
H316 C298 0.932 . S
H317 C299 0.929 . S
H318 C300 0.928 . S
H319 C302 0.932 . S
C320 C321 1.264 . S
C320 C325 1.479 . S
C320 C330 1.465 . S
C321 C320 1.264 . S
C321 C323 1.339 . S
C321 H348 0.931 . S
C322 C323 1.395 . S
C322 C324 1.320 . S
C323 C321 1.339 . S
C323 C322 1.395 . S
C323 H349 0.929 . S
C324 C322 1.320 . S
C324 C325 1.405 . S
C324 H350 0.930 . S
C325 C320 1.479 . S
C325 C324 1.405 . S
C325 H351 0.931 . S
U326 O327 2.454 . S
U326 O328 2.458 . S
U326 C329 2.984 . S
U326 C330 2.847 . S
U326 C343 2.882 . S
U326 O344 2.441 . S
U326 O345 2.420 . S
U326 O346 2.455 . S
U326 O347 2.449 . S
O327 U326 2.454 . S
O327 C329 1.353 . S
O328 U326 2.458 . S
O328 C329 1.286 . S
C329 U326 2.984 . S
C329 O327 1.353 . S
C329 O328 1.286 . S
C329 C331 1.363 . S
C330 C320 1.465 . S
C330 U326 2.847 . S
C330 O344 1.249 . S
C330 O345 1.202 . S
C331 C329 1.363 . S
C331 C333 1.408 . S
C331 C336 1.342 . S
C332 C333 1.310 . S
C332 C335 1.461 . S
C332 H352 0.932 . S
C333 C331 1.408 . S
C333 C332 1.310 . S
C333 H353 0.930 . S
C334 C335 1.474 . S
C334 C336 1.285 . S
C334 H354 0.929 . S
C335 C332 1.461 . S
C335 C334 1.474 . S
C336 C331 1.342 . S
C336 C334 1.285 . S
C336 H355 0.930 . S
C337 C340 1.424 . S
C337 C342 1.245 . S
C337 C343 1.428 . S
C338 C341 1.260 . S
C338 C342 1.477 . S
C338 H356 0.932 . S
C339 C340 1.384 . S
C339 C341 1.479 . S
C339 H357 0.929 . S
C340 C337 1.424 . S
C340 C339 1.384 . S
C340 H358 0.928 . S
C341 C338 1.260 . S
C341 C339 1.479 . S
C342 C337 1.245 . S
C342 C338 1.477 . S
C342 H359 0.932 . S
C343 U326 2.882 . S
C343 C337 1.428 . S
C343 O346 1.301 . S
C343 O347 1.282 . S
O344 U326 2.441 . S
O344 C330 1.249 . S
O345 U326 2.420 . S
O345 C330 1.202 . S
O346 U326 2.455 . S
O346 C343 1.301 . S
O347 U326 2.449 . S
O347 C343 1.282 . S
H348 C321 0.931 . S
H349 C323 0.929 . S
H350 C324 0.930 . S
H351 C325 0.931 . S
H352 C332 0.932 . S
H353 C333 0.930 . S
H354 C334 0.929 . S
H355 C336 0.930 . S
H356 C338 0.932 . S
H357 C339 0.929 . S
H358 C340 0.928 . S
H359 C342 0.932 . S
C360 C361 1.264 . S
C360 C365 1.479 . S
C360 C370 1.465 . S
C361 C360 1.264 . S
C361 C363 1.339 . S
C361 H388 0.931 . S
C362 C363 1.395 . S
C362 C364 1.320 . S
C363 C361 1.339 . S
C363 C362 1.395 . S
C363 H389 0.929 . S
C364 C362 1.320 . S
C364 C365 1.405 . S
C364 H390 0.930 . S
C365 C360 1.479 . S
C365 C364 1.405 . S
C365 H391 0.931 . S
U366 O367 2.454 . S
U366 O368 2.458 . S
U366 C369 2.984 . S
U366 C370 2.847 . S
U366 C383 2.882 . S
U366 O384 2.441 . S
U366 O385 2.420 . S
U366 O386 2.455 . S
U366 O387 2.449 . S
O367 U366 2.454 . S
O367 C369 1.353 . S
O368 U366 2.458 . S
O368 C369 1.286 . S
C369 U366 2.984 . S
C369 O367 1.353 . S
C369 O368 1.286 . S
C369 C371 1.363 . S
C370 C360 1.465 . S
C370 U366 2.847 . S
C370 O384 1.249 . S
C370 O385 1.202 . S
C371 C369 1.363 . S
C371 C373 1.408 . S
C371 C376 1.342 . S
C372 C373 1.310 . S
C372 C375 1.461 . S
C372 H392 0.932 . S
C373 C371 1.408 . S
C373 C372 1.310 . S
C373 H393 0.930 . S
C374 C375 1.474 . S
C374 C376 1.285 . S
C374 H394 0.929 . S
C375 C372 1.461 . S
C375 C374 1.474 . S
C376 C371 1.342 . S
C376 C374 1.285 . S
C376 H395 0.930 . S
C377 C380 1.424 . S
C377 C382 1.245 . S
C377 C383 1.428 . S
C378 C381 1.260 . S
C378 C382 1.477 . S
C378 H396 0.932 . S
C379 C380 1.384 . S
C379 C381 1.479 . S
C379 H397 0.929 . S
C380 C377 1.424 . S
C380 C379 1.384 . S
C380 H398 0.928 . S
C381 C378 1.260 . S
C381 C379 1.479 . S
C382 C377 1.245 . S
C382 C378 1.477 . S
C382 H399 0.932 . S
C383 U366 2.882 . S
C383 C377 1.428 . S
C383 O386 1.301 . S
C383 O387 1.282 . S
O384 U366 2.441 . S
O384 C370 1.249 . S
O385 U366 2.420 . S
O385 C370 1.202 . S
O386 U366 2.455 . S
O386 C383 1.301 . S
O387 U366 2.449 . S
O387 C383 1.282 . S
H388 C361 0.931 . S
H389 C363 0.929 . S
H390 C364 0.930 . S
H391 C365 0.931 . S
H392 C372 0.932 . S
H393 C373 0.930 . S
H394 C374 0.929 . S
H395 C376 0.930 . S
H396 C378 0.932 . S
H397 C379 0.929 . S
H398 C380 0.928 . S
H399 C382 0.932 . S
C400 C401 1.264 . S
C400 C405 1.479 . S
C400 C410 1.465 . S
C401 C400 1.264 . S
C401 C403 1.339 . S
C401 H428 0.931 . S
C402 C403 1.395 . S
C402 C404 1.320 . S
C403 C401 1.339 . S
C403 C402 1.395 . S
C403 H429 0.929 . S
C404 C402 1.320 . S
C404 C405 1.405 . S
C404 H430 0.930 . S
C405 C400 1.479 . S
C405 C404 1.405 . S
C405 H431 0.931 . S
U406 O407 2.454 . S
U406 O408 2.458 . S
U406 C409 2.984 . S
U406 C410 2.847 . S
U406 C423 2.882 . S
U406 O424 2.441 . S
U406 O425 2.420 . S
U406 O426 2.455 . S
U406 O427 2.449 . S
O407 U406 2.454 . S
O407 C409 1.353 . S
O408 U406 2.458 . S
O408 C409 1.286 . S
C409 U406 2.984 . S
C409 O407 1.353 . S
C409 O408 1.286 . S
C409 C411 1.363 . S
C410 C400 1.465 . S
C410 U406 2.847 . S
C410 O424 1.249 . S
C410 O425 1.202 . S
C411 C409 1.363 . S
C411 C413 1.408 . S
C411 C416 1.342 . S
C412 C413 1.310 . S
C412 C415 1.461 . S
C412 H432 0.932 . S
C413 C411 1.408 . S
C413 C412 1.310 . S
C413 H433 0.930 . S
C414 C415 1.474 . S
C414 C416 1.285 . S
C414 H434 0.929 . S
C415 C412 1.461 . S
C415 C414 1.474 . S
C416 C411 1.342 . S
C416 C414 1.285 . S
C416 H435 0.930 . S
C417 C420 1.424 . S
C417 C422 1.245 . S
C417 C423 1.428 . S
C418 C421 1.260 . S
C418 C422 1.477 . S
C418 H436 0.932 . S
C419 C420 1.384 . S
C419 C421 1.479 . S
C419 H437 0.929 . S
C420 C417 1.424 . S
C420 C419 1.384 . S
C420 H438 0.928 . S
C421 C418 1.260 . S
C421 C419 1.479 . S
C422 C417 1.245 . S
C422 C418 1.477 . S
C422 H439 0.932 . S
C423 U406 2.882 . S
C423 C417 1.428 . S
C423 O426 1.301 . S
C423 O427 1.282 . S
O424 U406 2.441 . S
O424 C410 1.249 . S
O425 U406 2.420 . S
O425 C410 1.202 . S
O426 U406 2.455 . S
O426 C423 1.301 . S
O427 U406 2.449 . S
O427 C423 1.282 . S
H428 C401 0.931 . S
H429 C403 0.929 . S
H430 C404 0.930 . S
H431 C405 0.931 . S
H432 C412 0.932 . S
H433 C413 0.930 . S
H434 C414 0.929 . S
H435 C416 0.930 . S
H436 C418 0.932 . S
H437 C419 0.929 . S
H438 C420 0.928 . S
H439 C422 0.932 . S
C440 C441 1.264 . S
C440 C445 1.479 . S
C440 C450 1.465 . S
C441 C440 1.264 . S
C441 C443 1.339 . S
C441 H468 0.931 . S
C442 C443 1.395 . S
C442 C444 1.320 . S
C443 C441 1.339 . S
C443 C442 1.395 . S
C443 H469 0.929 . S
C444 C442 1.320 . S
C444 C445 1.405 . S
C444 H470 0.930 . S
C445 C440 1.479 . S
C445 C444 1.405 . S
C445 H471 0.931 . S
U446 O447 2.454 . S
U446 O448 2.458 . S
U446 C449 2.984 . S
U446 C450 2.847 . S
U446 C463 2.882 . S
U446 O464 2.441 . S
U446 O465 2.420 . S
U446 O466 2.455 . S
U446 O467 2.449 . S
O447 U446 2.454 . S
O447 C449 1.353 . S
O448 U446 2.458 . S
O448 C449 1.286 . S
C449 U446 2.984 . S
C449 O447 1.353 . S
C449 O448 1.286 . S
C449 C451 1.363 . S
C450 C440 1.465 . S
C450 U446 2.847 . S
C450 O464 1.249 . S
C450 O465 1.202 . S
C451 C449 1.363 . S
C451 C453 1.408 . S
C451 C456 1.342 . S
C452 C453 1.310 . S
C452 C455 1.461 . S
C452 H472 0.932 . S
C453 C451 1.408 . S
C453 C452 1.310 . S
C453 H473 0.930 . S
C454 C455 1.474 . S
C454 C456 1.285 . S
C454 H474 0.929 . S
C455 C452 1.461 . S
C455 C454 1.474 . S
C456 C451 1.342 . S
C456 C454 1.285 . S
C456 H475 0.930 . S
C457 C460 1.424 . S
C457 C462 1.245 . S
C457 C463 1.428 . S
C458 C461 1.260 . S
C458 C462 1.477 . S
C458 H476 0.932 . S
C459 C460 1.384 . S
C459 C461 1.479 . S
C459 H477 0.929 . S
C460 C457 1.424 . S
C460 C459 1.384 . S
C460 H478 0.928 . S
C461 C458 1.260 . S
C461 C459 1.479 . S
C462 C457 1.245 . S
C462 C458 1.477 . S
C462 H479 0.932 . S
C463 U446 2.882 . S
C463 C457 1.428 . S
C463 O466 1.301 . S
C463 O467 1.282 . S
O464 U446 2.441 . S
O464 C450 1.249 . S
O465 U446 2.420 . S
O465 C450 1.202 . S
O466 U446 2.455 . S
O466 C463 1.301 . S
O467 U446 2.449 . S
O467 C463 1.282 . S
H468 C441 0.931 . S
H469 C443 0.929 . S
H470 C444 0.930 . S
H471 C445 0.931 . S
H472 C452 0.932 . S
H473 C453 0.930 . S
H474 C454 0.929 . S
H475 C456 0.930 . S
H476 C458 0.932 . S
H477 C459 0.929 . S
H478 C460 0.928 . S
H479 C462 0.932 . S
C480 C481 1.264 . S
C480 C485 1.479 . S
C480 C490 1.465 . S
C481 C480 1.264 . S
C481 C483 1.339 . S
C481 H508 0.931 . S
C482 C483 1.395 . S
C482 C484 1.320 . S
C483 C481 1.339 . S
C483 C482 1.395 . S
C483 H509 0.929 . S
C484 C482 1.320 . S
C484 C485 1.405 . S
C484 H510 0.930 . S
C485 C480 1.479 . S
C485 C484 1.405 . S
C485 H511 0.931 . S
U486 O487 2.454 . S
U486 O488 2.458 . S
U486 C489 2.984 . S
U486 C490 2.847 . S
U486 C503 2.882 . S
U486 O504 2.441 . S
U486 O505 2.420 . S
U486 O506 2.455 . S
U486 O507 2.449 . S
O487 U486 2.454 . S
O487 C489 1.353 . S
O488 U486 2.458 . S
O488 C489 1.286 . S
C489 U486 2.984 . S
C489 O487 1.353 . S
C489 O488 1.286 . S
C489 C491 1.363 . S
C490 C480 1.465 . S
C490 U486 2.847 . S
C490 O504 1.249 . S
C490 O505 1.202 . S
C491 C489 1.363 . S
C491 C493 1.408 . S
C491 C496 1.342 . S
C492 C493 1.310 . S
C492 C495 1.461 . S
C492 H512 0.932 . S
C493 C491 1.408 . S
C493 C492 1.310 . S
C493 H513 0.930 . S
C494 C495 1.474 . S
C494 C496 1.285 . S
C494 H514 0.929 . S
C495 C492 1.461 . S
C495 C494 1.474 . S
C496 C491 1.342 . S
C496 C494 1.285 . S
C496 H515 0.930 . S
C497 C500 1.424 . S
C497 C502 1.245 . S
C497 C503 1.428 . S
C498 C501 1.260 . S
C498 C502 1.477 . S
C498 H516 0.932 . S
C499 C500 1.384 . S
C499 C501 1.479 . S
C499 H517 0.929 . S
C500 C497 1.424 . S
C500 C499 1.384 . S
C500 H518 0.928 . S
C501 C498 1.260 . S
C501 C499 1.479 . S
C502 C497 1.245 . S
C502 C498 1.477 . S
C502 H519 0.932 . S
C503 U486 2.882 . S
C503 C497 1.428 . S
C503 O506 1.301 . S
C503 O507 1.282 . S
O504 U486 2.441 . S
O504 C490 1.249 . S
O505 U486 2.420 . S
O505 C490 1.202 . S
O506 U486 2.455 . S
O506 C503 1.301 . S
O507 U486 2.449 . S
O507 C503 1.282 . S
H508 C481 0.931 . S
H509 C483 0.929 . S
H510 C484 0.930 . S
H511 C485 0.931 . S
H512 C492 0.932 . S
H513 C493 0.930 . S
H514 C494 0.929 . S
H515 C496 0.930 . S
H516 C498 0.932 . S
H517 C499 0.929 . S
H518 C500 0.928 . S
H519 C502 0.932 . S
C520 C521 1.264 . S
C520 C525 1.479 . S
C520 C530 1.465 . S
C521 C520 1.264 . S
C521 C523 1.339 . S
C521 H548 0.931 . S
C522 C523 1.395 . S
C522 C524 1.320 . S
C523 C521 1.339 . S
C523 C522 1.395 . S
C523 H549 0.929 . S
C524 C522 1.320 . S
C524 C525 1.405 . S
C524 H550 0.930 . S
C525 C520 1.479 . S
C525 C524 1.405 . S
C525 H551 0.931 . S
U526 O527 2.454 . S
U526 O528 2.458 . S
U526 C529 2.984 . S
U526 C530 2.847 . S
U526 C543 2.882 . S
U526 O544 2.441 . S
U526 O545 2.420 . S
U526 O546 2.455 . S
U526 O547 2.449 . S
O527 U526 2.454 . S
O527 C529 1.353 . S
O528 U526 2.458 . S
O528 C529 1.286 . S
C529 U526 2.984 . S
C529 O527 1.353 . S
C529 O528 1.286 . S
C529 C531 1.363 . S
C530 C520 1.465 . S
C530 U526 2.847 . S
C530 O544 1.249 . S
C530 O545 1.202 . S
C531 C529 1.363 . S
C531 C533 1.408 . S
C531 C536 1.342 . S
C532 C533 1.310 . S
C532 C535 1.461 . S
C532 H552 0.932 . S
C533 C531 1.408 . S
C533 C532 1.310 . S
C533 H553 0.930 . S
C534 C535 1.474 . S
C534 C536 1.285 . S
C534 H554 0.929 . S
C535 C532 1.461 . S
C535 C534 1.474 . S
C536 C531 1.342 . S
C536 C534 1.285 . S
C536 H555 0.930 . S
C537 C540 1.424 . S
C537 C542 1.245 . S
C537 C543 1.428 . S
C538 C541 1.260 . S
C538 C542 1.477 . S
C538 H556 0.932 . S
C539 C540 1.384 . S
C539 C541 1.479 . S
C539 H557 0.929 . S
C540 C537 1.424 . S
C540 C539 1.384 . S
C540 H558 0.928 . S
C541 C538 1.260 . S
C541 C539 1.479 . S
C542 C537 1.245 . S
C542 C538 1.477 . S
C542 H559 0.932 . S
C543 U526 2.882 . S
C543 C537 1.428 . S
C543 O546 1.301 . S
C543 O547 1.282 . S
O544 U526 2.441 . S
O544 C530 1.249 . S
O545 U526 2.420 . S
O545 C530 1.202 . S
O546 U526 2.455 . S
O546 C543 1.301 . S
O547 U526 2.449 . S
O547 C543 1.282 . S
H548 C521 0.931 . S
H549 C523 0.929 . S
H550 C524 0.930 . S
H551 C525 0.931 . S
H552 C532 0.932 . S
H553 C533 0.930 . S
H554 C534 0.929 . S
H555 C536 0.930 . S
H556 C538 0.932 . S
H557 C539 0.929 . S
H558 C540 0.928 . S
H559 C542 0.932 . S
C560 C561 1.264 . S
C560 C565 1.479 . S
C560 C570 1.465 . S
C561 C560 1.264 . S
C561 C563 1.339 . S
C561 H588 0.931 . S
C562 C563 1.395 . S
C562 C564 1.320 . S
C563 C561 1.339 . S
C563 C562 1.395 . S
C563 H589 0.929 . S
C564 C562 1.320 . S
C564 C565 1.405 . S
C564 H590 0.930 . S
C565 C560 1.479 . S
C565 C564 1.405 . S
C565 H591 0.931 . S
U566 O567 2.454 . S
U566 O568 2.458 . S
U566 C569 2.984 . S
U566 C570 2.847 . S
U566 C583 2.882 . S
U566 O584 2.441 . S
U566 O585 2.420 . S
U566 O586 2.455 . S
U566 O587 2.449 . S
O567 U566 2.454 . S
O567 C569 1.353 . S
O568 U566 2.458 . S
O568 C569 1.286 . S
C569 U566 2.984 . S
C569 O567 1.353 . S
C569 O568 1.286 . S
C569 C571 1.363 . S
C570 C560 1.465 . S
C570 U566 2.847 . S
C570 O584 1.249 . S
C570 O585 1.202 . S
C571 C569 1.363 . S
C571 C573 1.408 . S
C571 C576 1.342 . S
C572 C573 1.310 . S
C572 C575 1.461 . S
C572 H592 0.932 . S
C573 C571 1.408 . S
C573 C572 1.310 . S
C573 H593 0.930 . S
C574 C575 1.474 . S
C574 C576 1.285 . S
C574 H594 0.929 . S
C575 C572 1.461 . S
C575 C574 1.474 . S
C576 C571 1.342 . S
C576 C574 1.285 . S
C576 H595 0.930 . S
C577 C580 1.424 . S
C577 C582 1.245 . S
C577 C583 1.428 . S
C578 C581 1.260 . S
C578 C582 1.477 . S
C578 H596 0.932 . S
C579 C580 1.384 . S
C579 C581 1.479 . S
C579 H597 0.929 . S
C580 C577 1.424 . S
C580 C579 1.384 . S
C580 H598 0.928 . S
C581 C578 1.260 . S
C581 C579 1.479 . S
C582 C577 1.245 . S
C582 C578 1.477 . S
C582 H599 0.932 . S
C583 U566 2.882 . S
C583 C577 1.428 . S
C583 O586 1.301 . S
C583 O587 1.282 . S
O584 U566 2.441 . S
O584 C570 1.249 . S
O585 U566 2.420 . S
O585 C570 1.202 . S
O586 U566 2.455 . S
O586 C583 1.301 . S
O587 U566 2.449 . S
O587 C583 1.282 . S
H588 C561 0.931 . S
H589 C563 0.929 . S
H590 C564 0.930 . S
H591 C565 0.931 . S
H592 C572 0.932 . S
H593 C573 0.930 . S
H594 C574 0.929 . S
H595 C576 0.930 . S
H596 C578 0.932 . S
H597 C579 0.929 . S
H598 C580 0.928 . S
H599 C582 0.932 . S
C600 C601 1.264 . S
C600 C605 1.479 . S
C600 C610 1.465 . S
C601 C600 1.264 . S
C601 C603 1.339 . S
C601 H628 0.931 . S
C602 C603 1.395 . S
C602 C604 1.320 . S
C603 C601 1.339 . S
C603 C602 1.395 . S
C603 H629 0.929 . S
C604 C602 1.320 . S
C604 C605 1.405 . S
C604 H630 0.930 . S
C605 C600 1.479 . S
C605 C604 1.405 . S
C605 H631 0.931 . S
U606 O607 2.454 . S
U606 O608 2.458 . S
U606 C609 2.984 . S
U606 C610 2.847 . S
U606 C623 2.882 . S
U606 O624 2.441 . S
U606 O625 2.420 . S
U606 O626 2.455 . S
U606 O627 2.449 . S
O607 U606 2.454 . S
O607 C609 1.353 . S
O608 U606 2.458 . S
O608 C609 1.286 . S
C609 U606 2.984 . S
C609 O607 1.353 . S
C609 O608 1.286 . S
C609 C611 1.363 . S
C610 C600 1.465 . S
C610 U606 2.847 . S
C610 O624 1.249 . S
C610 O625 1.202 . S
C611 C609 1.363 . S
C611 C613 1.408 . S
C611 C616 1.342 . S
C612 C613 1.310 . S
C612 C615 1.461 . S
C612 H632 0.932 . S
C613 C611 1.408 . S
C613 C612 1.310 . S
C613 H633 0.930 . S
C614 C615 1.474 . S
C614 C616 1.285 . S
C614 H634 0.929 . S
C615 C612 1.461 . S
C615 C614 1.474 . S
C616 C611 1.342 . S
C616 C614 1.285 . S
C616 H635 0.930 . S
C617 C620 1.424 . S
C617 C622 1.245 . S
C617 C623 1.428 . S
C618 C621 1.260 . S
C618 C622 1.477 . S
C618 H636 0.932 . S
C619 C620 1.384 . S
C619 C621 1.479 . S
C619 H637 0.929 . S
C620 C617 1.424 . S
C620 C619 1.384 . S
C620 H638 0.928 . S
C621 C618 1.260 . S
C621 C619 1.479 . S
C622 C617 1.245 . S
C622 C618 1.477 . S
C622 H639 0.932 . S
C623 U606 2.882 . S
C623 C617 1.428 . S
C623 O626 1.301 . S
C623 O627 1.282 . S
O624 U606 2.441 . S
O624 C610 1.249 . S
O625 U606 2.420 . S
O625 C610 1.202 . S
O626 U606 2.455 . S
O626 C623 1.301 . S
O627 U606 2.449 . S
O627 C623 1.282 . S
H628 C601 0.931 . S
H629 C603 0.929 . S
H630 C604 0.930 . S
H631 C605 0.931 . S
H632 C612 0.932 . S
H633 C613 0.930 . S
H634 C614 0.929 . S
H635 C616 0.930 . S
H636 C618 0.932 . S
H637 C619 0.929 . S
H638 C620 0.928 . S
H639 C622 0.932 . S
C640 C641 1.264 . S
C640 C645 1.479 . S
C640 C650 1.465 . S
C641 C640 1.264 . S
C641 C643 1.339 . S
C641 H668 0.931 . S
C642 C643 1.395 . S
C642 C644 1.320 . S
C643 C641 1.339 . S
C643 C642 1.395 . S
C643 H669 0.929 . S
C644 C642 1.320 . S
C644 C645 1.405 . S
C644 H670 0.930 . S
C645 C640 1.479 . S
C645 C644 1.405 . S
C645 H671 0.931 . S
U646 O647 2.454 . S
U646 O648 2.458 . S
U646 C649 2.984 . S
U646 C650 2.847 . S
U646 C663 2.882 . S
U646 O664 2.441 . S
U646 O665 2.420 . S
U646 O666 2.455 . S
U646 O667 2.449 . S
O647 U646 2.454 . S
O647 C649 1.353 . S
O648 U646 2.458 . S
O648 C649 1.286 . S
C649 U646 2.984 . S
C649 O647 1.353 . S
C649 O648 1.286 . S
C649 C651 1.363 . S
C650 C640 1.465 . S
C650 U646 2.847 . S
C650 O664 1.249 . S
C650 O665 1.202 . S
C651 C649 1.363 . S
C651 C653 1.408 . S
C651 C656 1.342 . S
C652 C653 1.310 . S
C652 C655 1.461 . S
C652 H672 0.932 . S
C653 C651 1.408 . S
C653 C652 1.310 . S
C653 H673 0.930 . S
C654 C655 1.474 . S
C654 C656 1.285 . S
C654 H674 0.929 . S
C655 C652 1.461 . S
C655 C654 1.474 . S
C656 C651 1.342 . S
C656 C654 1.285 . S
C656 H675 0.930 . S
C657 C660 1.424 . S
C657 C662 1.245 . S
C657 C663 1.428 . S
C658 C661 1.260 . S
C658 C662 1.477 . S
C658 H676 0.932 . S
C659 C660 1.384 . S
C659 C661 1.479 . S
C659 H677 0.929 . S
C660 C657 1.424 . S
C660 C659 1.384 . S
C660 H678 0.928 . S
C661 C658 1.260 . S
C661 C659 1.479 . S
C662 C657 1.245 . S
C662 C658 1.477 . S
C662 H679 0.932 . S
C663 U646 2.882 . S
C663 C657 1.428 . S
C663 O666 1.301 . S
C663 O667 1.282 . S
O664 U646 2.441 . S
O664 C650 1.249 . S
O665 U646 2.420 . S
O665 C650 1.202 . S
O666 U646 2.455 . S
O666 C663 1.301 . S
O667 U646 2.449 . S
O667 C663 1.282 . S
H668 C641 0.931 . S
H669 C643 0.929 . S
H670 C644 0.930 . S
H671 C645 0.931 . S
H672 C652 0.932 . S
H673 C653 0.930 . S
H674 C654 0.929 . S
H675 C656 0.930 . S
H676 C658 0.932 . S
H677 C659 0.929 . S
H678 C660 0.928 . S
H679 C662 0.932 . S
C680 C681 1.264 . S
C680 C685 1.479 . S
C680 C690 1.465 . S
C681 C680 1.264 . S
C681 C683 1.339 . S
C681 H708 0.931 . S
C682 C683 1.395 . S
C682 C684 1.320 . S
C683 C681 1.339 . S
C683 C682 1.395 . S
C683 H709 0.929 . S
C684 C682 1.320 . S
C684 C685 1.405 . S
C684 H710 0.930 . S
C685 C680 1.479 . S
C685 C684 1.405 . S
C685 H711 0.931 . S
U686 O687 2.454 . S
U686 O688 2.458 . S
U686 C689 2.984 . S
U686 C690 2.847 . S
U686 C703 2.882 . S
U686 O704 2.441 . S
U686 O705 2.420 . S
U686 O706 2.455 . S
U686 O707 2.449 . S
O687 U686 2.454 . S
O687 C689 1.353 . S
O688 U686 2.458 . S
O688 C689 1.286 . S
C689 U686 2.984 . S
C689 O687 1.353 . S
C689 O688 1.286 . S
C689 C691 1.363 . S
C690 C680 1.465 . S
C690 U686 2.847 . S
C690 O704 1.249 . S
C690 O705 1.202 . S
C691 C689 1.363 . S
C691 C693 1.408 . S
C691 C696 1.342 . S
C692 C693 1.310 . S
C692 C695 1.461 . S
C692 H712 0.932 . S
C693 C691 1.408 . S
C693 C692 1.310 . S
C693 H713 0.930 . S
C694 C695 1.474 . S
C694 C696 1.285 . S
C694 H714 0.929 . S
C695 C692 1.461 . S
C695 C694 1.474 . S
C696 C691 1.342 . S
C696 C694 1.285 . S
C696 H715 0.930 . S
C697 C700 1.424 . S
C697 C702 1.245 . S
C697 C703 1.428 . S
C698 C701 1.260 . S
C698 C702 1.477 . S
C698 H716 0.932 . S
C699 C700 1.384 . S
C699 C701 1.479 . S
C699 H717 0.929 . S
C700 C697 1.424 . S
C700 C699 1.384 . S
C700 H718 0.928 . S
C701 C698 1.260 . S
C701 C699 1.479 . S
C702 C697 1.245 . S
C702 C698 1.477 . S
C702 H719 0.932 . S
C703 U686 2.882 . S
C703 C697 1.428 . S
C703 O706 1.301 . S
C703 O707 1.282 . S
O704 U686 2.441 . S
O704 C690 1.249 . S
O705 U686 2.420 . S
O705 C690 1.202 . S
O706 U686 2.455 . S
O706 C703 1.301 . S
O707 U686 2.449 . S
O707 C703 1.282 . S
H708 C681 0.931 . S
H709 C683 0.929 . S
H710 C684 0.930 . S
H711 C685 0.931 . S
H712 C692 0.932 . S
H713 C693 0.930 . S
H714 C694 0.929 . S
H715 C696 0.930 . S
H716 C698 0.932 . S
H717 C699 0.929 . S
H718 C700 0.928 . S
H719 C702 0.932 . S
C720 C721 1.264 . S
C720 C725 1.479 . S
C720 C730 1.465 . S
C721 C720 1.264 . S
C721 C723 1.339 . S
C721 H748 0.931 . S
C722 C723 1.395 . S
C722 C724 1.320 . S
C723 C721 1.339 . S
C723 C722 1.395 . S
C723 H749 0.929 . S
C724 C722 1.320 . S
C724 C725 1.405 . S
C724 H750 0.930 . S
C725 C720 1.479 . S
C725 C724 1.405 . S
C725 H751 0.931 . S
U726 O727 2.454 . S
U726 O728 2.458 . S
U726 C729 2.984 . S
U726 C730 2.847 . S
U726 C743 2.882 . S
U726 O744 2.441 . S
U726 O745 2.420 . S
U726 O746 2.455 . S
U726 O747 2.449 . S
O727 U726 2.454 . S
O727 C729 1.353 . S
O728 U726 2.458 . S
O728 C729 1.286 . S
C729 U726 2.984 . S
C729 O727 1.353 . S
C729 O728 1.286 . S
C729 C731 1.363 . S
C730 C720 1.465 . S
C730 U726 2.847 . S
C730 O744 1.249 . S
C730 O745 1.202 . S
C731 C729 1.363 . S
C731 C733 1.408 . S
C731 C736 1.342 . S
C732 C733 1.310 . S
C732 C735 1.461 . S
C732 H752 0.932 . S
C733 C731 1.408 . S
C733 C732 1.310 . S
C733 H753 0.930 . S
C734 C735 1.474 . S
C734 C736 1.285 . S
C734 H754 0.929 . S
C735 C732 1.461 . S
C735 C734 1.474 . S
C736 C731 1.342 . S
C736 C734 1.285 . S
C736 H755 0.930 . S
C737 C740 1.424 . S
C737 C742 1.245 . S
C737 C743 1.428 . S
C738 C741 1.260 . S
C738 C742 1.477 . S
C738 H756 0.932 . S
C739 C740 1.384 . S
C739 C741 1.479 . S
C739 H757 0.929 . S
C740 C737 1.424 . S
C740 C739 1.384 . S
C740 H758 0.928 . S
C741 C738 1.260 . S
C741 C739 1.479 . S
C742 C737 1.245 . S
C742 C738 1.477 . S
C742 H759 0.932 . S
C743 U726 2.882 . S
C743 C737 1.428 . S
C743 O746 1.301 . S
C743 O747 1.282 . S
O744 U726 2.441 . S
O744 C730 1.249 . S
O745 U726 2.420 . S
O745 C730 1.202 . S
O746 U726 2.455 . S
O746 C743 1.301 . S
O747 U726 2.449 . S
O747 C743 1.282 . S
H748 C721 0.931 . S
H749 C723 0.929 . S
H750 C724 0.930 . S
H751 C725 0.931 . S
H752 C732 0.932 . S
H753 C733 0.930 . S
H754 C734 0.929 . S
H755 C736 0.930 . S
H756 C738 0.932 . S
H757 C739 0.929 . S
H758 C740 0.928 . S
H759 C742 0.932 . S
C760 C761 1.264 . S
C760 C765 1.479 . S
C760 C770 1.465 . S
C761 C760 1.264 . S
C761 C763 1.339 . S
C761 H788 0.931 . S
C762 C763 1.395 . S
C762 C764 1.320 . S
C763 C761 1.339 . S
C763 C762 1.395 . S
C763 H789 0.929 . S
C764 C762 1.320 . S
C764 C765 1.405 . S
C764 H790 0.930 . S
C765 C760 1.479 . S
C765 C764 1.405 . S
C765 H791 0.931 . S
U766 O767 2.454 . S
U766 O768 2.458 . S
U766 C769 2.984 . S
U766 C770 2.847 . S
U766 C783 2.882 . S
U766 O784 2.441 . S
U766 O785 2.420 . S
U766 O786 2.455 . S
U766 O787 2.449 . S
O767 U766 2.454 . S
O767 C769 1.353 . S
O768 U766 2.458 . S
O768 C769 1.286 . S
C769 U766 2.984 . S
C769 O767 1.353 . S
C769 O768 1.286 . S
C769 C771 1.363 . S
C770 C760 1.465 . S
C770 U766 2.847 . S
C770 O784 1.249 . S
C770 O785 1.202 . S
C771 C769 1.363 . S
C771 C773 1.408 . S
C771 C776 1.342 . S
C772 C773 1.310 . S
C772 C775 1.461 . S
C772 H792 0.932 . S
C773 C771 1.408 . S
C773 C772 1.310 . S
C773 H793 0.930 . S
C774 C775 1.474 . S
C774 C776 1.285 . S
C774 H794 0.929 . S
C775 C772 1.461 . S
C775 C774 1.474 . S
C776 C771 1.342 . S
C776 C774 1.285 . S
C776 H795 0.930 . S
C777 C780 1.424 . S
C777 C782 1.245 . S
C777 C783 1.428 . S
C778 C781 1.260 . S
C778 C782 1.477 . S
C778 H796 0.932 . S
C779 C780 1.384 . S
C779 C781 1.479 . S
C779 H797 0.929 . S
C780 C777 1.424 . S
C780 C779 1.384 . S
C780 H798 0.928 . S
C781 C778 1.260 . S
C781 C779 1.479 . S
C782 C777 1.245 . S
C782 C778 1.477 . S
C782 H799 0.932 . S
C783 U766 2.882 . S
C783 C777 1.428 . S
C783 O786 1.301 . S
C783 O787 1.282 . S
O784 U766 2.441 . S
O784 C770 1.249 . S
O785 U766 2.420 . S
O785 C770 1.202 . S
O786 U766 2.455 . S
O786 C783 1.301 . S
O787 U766 2.449 . S
O787 C783 1.282 . S
H788 C761 0.931 . S
H789 C763 0.929 . S
H790 C764 0.930 . S
H791 C765 0.931 . S
H792 C772 0.932 . S
H793 C773 0.930 . S
H794 C774 0.929 . S
H795 C776 0.930 . S
H796 C778 0.932 . S
H797 C779 0.929 . S
H798 C780 0.928 . S
H799 C782 0.932 . S
C800 C801 1.264 . S
C800 C805 1.479 . S
C800 C810 1.465 . S
C801 C800 1.264 . S
C801 C803 1.339 . S
C801 H828 0.931 . S
C802 C803 1.395 . S
C802 C804 1.320 . S
C803 C801 1.339 . S
C803 C802 1.395 . S
C803 H829 0.929 . S
C804 C802 1.320 . S
C804 C805 1.405 . S
C804 H830 0.930 . S
C805 C800 1.479 . S
C805 C804 1.405 . S
C805 H831 0.931 . S
U806 O807 2.454 . S
U806 O808 2.458 . S
U806 C809 2.984 . S
U806 C810 2.847 . S
U806 C823 2.882 . S
U806 O824 2.441 . S
U806 O825 2.420 . S
U806 O826 2.455 . S
U806 O827 2.449 . S
O807 U806 2.454 . S
O807 C809 1.353 . S
O808 U806 2.458 . S
O808 C809 1.286 . S
C809 U806 2.984 . S
C809 O807 1.353 . S
C809 O808 1.286 . S
C809 C811 1.363 . S
C810 C800 1.465 . S
C810 U806 2.847 . S
C810 O824 1.249 . S
C810 O825 1.202 . S
C811 C809 1.363 . S
C811 C813 1.408 . S
C811 C816 1.342 . S
C812 C813 1.310 . S
C812 C815 1.461 . S
C812 H832 0.932 . S
C813 C811 1.408 . S
C813 C812 1.310 . S
C813 H833 0.930 . S
C814 C815 1.474 . S
C814 C816 1.285 . S
C814 H834 0.929 . S
C815 C812 1.461 . S
C815 C814 1.474 . S
C816 C811 1.342 . S
C816 C814 1.285 . S
C816 H835 0.930 . S
C817 C820 1.424 . S
C817 C822 1.245 . S
C817 C823 1.428 . S
C818 C821 1.260 . S
C818 C822 1.477 . S
C818 H836 0.932 . S
C819 C820 1.384 . S
C819 C821 1.479 . S
C819 H837 0.929 . S
C820 C817 1.424 . S
C820 C819 1.384 . S
C820 H838 0.928 . S
C821 C818 1.260 . S
C821 C819 1.479 . S
C822 C817 1.245 . S
C822 C818 1.477 . S
C822 H839 0.932 . S
C823 U806 2.882 . S
C823 C817 1.428 . S
C823 O826 1.301 . S
C823 O827 1.282 . S
O824 U806 2.441 . S
O824 C810 1.249 . S
O825 U806 2.420 . S
O825 C810 1.202 . S
O826 U806 2.455 . S
O826 C823 1.301 . S
O827 U806 2.449 . S
O827 C823 1.282 . S
H828 C801 0.931 . S
H829 C803 0.929 . S
H830 C804 0.930 . S
H831 C805 0.931 . S
H832 C812 0.932 . S
H833 C813 0.930 . S
H834 C814 0.929 . S
H835 C816 0.930 . S
H836 C818 0.932 . S
H837 C819 0.929 . S
H838 C820 0.928 . S
H839 C822 0.932 . S
C840 C841 1.264 . S
C840 C845 1.479 . S
C840 C850 1.465 . S
C841 C840 1.264 . S
C841 C843 1.339 . S
C841 H868 0.931 . S
C842 C843 1.395 . S
C842 C844 1.320 . S
C843 C841 1.339 . S
C843 C842 1.395 . S
C843 H869 0.929 . S
C844 C842 1.320 . S
C844 C845 1.405 . S
C844 H870 0.930 . S
C845 C840 1.479 . S
C845 C844 1.405 . S
C845 H871 0.931 . S
U846 O847 2.454 . S
U846 O848 2.458 . S
U846 C849 2.984 . S
U846 C850 2.847 . S
U846 C863 2.882 . S
U846 O864 2.441 . S
U846 O865 2.420 . S
U846 O866 2.455 . S
U846 O867 2.449 . S
O847 U846 2.454 . S
O847 C849 1.353 . S
O848 U846 2.458 . S
O848 C849 1.286 . S
C849 U846 2.984 . S
C849 O847 1.353 . S
C849 O848 1.286 . S
C849 C851 1.363 . S
C850 C840 1.465 . S
C850 U846 2.847 . S
C850 O864 1.249 . S
C850 O865 1.202 . S
C851 C849 1.363 . S
C851 C853 1.408 . S
C851 C856 1.342 . S
C852 C853 1.310 . S
C852 C855 1.461 . S
C852 H872 0.932 . S
C853 C851 1.408 . S
C853 C852 1.310 . S
C853 H873 0.930 . S
C854 C855 1.474 . S
C854 C856 1.285 . S
C854 H874 0.929 . S
C855 C852 1.461 . S
C855 C854 1.474 . S
C856 C851 1.342 . S
C856 C854 1.285 . S
C856 H875 0.930 . S
C857 C860 1.424 . S
C857 C862 1.245 . S
C857 C863 1.428 . S
C858 C861 1.260 . S
C858 C862 1.477 . S
C858 H876 0.932 . S
C859 C860 1.384 . S
C859 C861 1.479 . S
C859 H877 0.929 . S
C860 C857 1.424 . S
C860 C859 1.384 . S
C860 H878 0.928 . S
C861 C858 1.260 . S
C861 C859 1.479 . S
C862 C857 1.245 . S
C862 C858 1.477 . S
C862 H879 0.932 . S
C863 U846 2.882 . S
C863 C857 1.428 . S
C863 O866 1.301 . S
C863 O867 1.282 . S
O864 U846 2.441 . S
O864 C850 1.249 . S
O865 U846 2.420 . S
O865 C850 1.202 . S
O866 U846 2.455 . S
O866 C863 1.301 . S
O867 U846 2.449 . S
O867 C863 1.282 . S
H868 C841 0.931 . S
H869 C843 0.929 . S
H870 C844 0.930 . S
H871 C845 0.931 . S
H872 C852 0.932 . S
H873 C853 0.930 . S
H874 C854 0.929 . S
H875 C856 0.930 . S
H876 C858 0.932 . S
H877 C859 0.929 . S
H878 C860 0.928 . S
H879 C862 0.932 . S
C880 C881 1.264 . S
C880 C885 1.479 . S
C880 C890 1.465 . S
C881 C880 1.264 . S
C881 C883 1.339 . S
C881 H908 0.931 . S
C882 C883 1.395 . S
C882 C884 1.320 . S
C883 C881 1.339 . S
C883 C882 1.395 . S
C883 H909 0.929 . S
C884 C882 1.320 . S
C884 C885 1.405 . S
C884 H910 0.930 . S
C885 C880 1.479 . S
C885 C884 1.405 . S
C885 H911 0.931 . S
U886 O887 2.454 . S
U886 O888 2.458 . S
U886 C889 2.984 . S
U886 C890 2.847 . S
U886 C903 2.882 . S
U886 O904 2.441 . S
U886 O905 2.420 . S
U886 O906 2.455 . S
U886 O907 2.449 . S
O887 U886 2.454 . S
O887 C889 1.353 . S
O888 U886 2.458 . S
O888 C889 1.286 . S
C889 U886 2.984 . S
C889 O887 1.353 . S
C889 O888 1.286 . S
C889 C891 1.363 . S
C890 C880 1.465 . S
C890 U886 2.847 . S
C890 O904 1.249 . S
C890 O905 1.202 . S
C891 C889 1.363 . S
C891 C893 1.408 . S
C891 C896 1.342 . S
C892 C893 1.310 . S
C892 C895 1.461 . S
C892 H912 0.932 . S
C893 C891 1.408 . S
C893 C892 1.310 . S
C893 H913 0.930 . S
C894 C895 1.474 . S
C894 C896 1.285 . S
C894 H914 0.929 . S
C895 C892 1.461 . S
C895 C894 1.474 . S
C896 C891 1.342 . S
C896 C894 1.285 . S
C896 H915 0.930 . S
C897 C900 1.424 . S
C897 C902 1.245 . S
C897 C903 1.428 . S
C898 C901 1.260 . S
C898 C902 1.477 . S
C898 H916 0.932 . S
C899 C900 1.384 . S
C899 C901 1.479 . S
C899 H917 0.929 . S
C900 C897 1.424 . S
C900 C899 1.384 . S
C900 H918 0.928 . S
C901 C898 1.260 . S
C901 C899 1.479 . S
C902 C897 1.245 . S
C902 C898 1.477 . S
C902 H919 0.932 . S
C903 U886 2.882 . S
C903 C897 1.428 . S
C903 O906 1.301 . S
C903 O907 1.282 . S
O904 U886 2.441 . S
O904 C890 1.249 . S
O905 U886 2.420 . S
O905 C890 1.202 . S
O906 U886 2.455 . S
O906 C903 1.301 . S
O907 U886 2.449 . S
O907 C903 1.282 . S
H908 C881 0.931 . S
H909 C883 0.929 . S
H910 C884 0.930 . S
H911 C885 0.931 . S
H912 C892 0.932 . S
H913 C893 0.930 . S
H914 C894 0.929 . S
H915 C896 0.930 . S
H916 C898 0.932 . S
H917 C899 0.929 . S
H918 C900 0.928 . S
H919 C902 0.932 . S
C920 C921 1.264 . S
C920 C925 1.479 . S
C920 C930 1.465 . S
C921 C920 1.264 . S
C921 C923 1.339 . S
C921 H948 0.931 . S
C922 C923 1.395 . S
C922 C924 1.320 . S
C923 C921 1.339 . S
C923 C922 1.395 . S
C923 H949 0.929 . S
C924 C922 1.320 . S
C924 C925 1.405 . S
C924 H950 0.930 . S
C925 C920 1.479 . S
C925 C924 1.405 . S
C925 H951 0.931 . S
U926 O927 2.454 . S
U926 O928 2.458 . S
U926 C929 2.984 . S
U926 C930 2.847 . S
U926 C943 2.882 . S
U926 O944 2.441 . S
U926 O945 2.420 . S
U926 O946 2.455 . S
U926 O947 2.449 . S
O927 U926 2.454 . S
O927 C929 1.353 . S
O928 U926 2.458 . S
O928 C929 1.286 . S
C929 U926 2.984 . S
C929 O927 1.353 . S
C929 O928 1.286 . S
C929 C931 1.363 . S
C930 C920 1.465 . S
C930 U926 2.847 . S
C930 O944 1.249 . S
C930 O945 1.202 . S
C931 C929 1.363 . S
C931 C933 1.408 . S
C931 C936 1.342 . S
C932 C933 1.310 . S
C932 C935 1.461 . S
C932 H952 0.932 . S
C933 C931 1.408 . S
C933 C932 1.310 . S
C933 H953 0.930 . S
C934 C935 1.474 . S
C934 C936 1.285 . S
C934 H954 0.929 . S
C935 C932 1.461 . S
C935 C934 1.474 . S
C936 C931 1.342 . S
C936 C934 1.285 . S
C936 H955 0.930 . S
C937 C940 1.424 . S
C937 C942 1.245 . S
C937 C943 1.428 . S
C938 C941 1.260 . S
C938 C942 1.477 . S
C938 H956 0.932 . S
C939 C940 1.384 . S
C939 C941 1.479 . S
C939 H957 0.929 . S
C940 C937 1.424 . S
C940 C939 1.384 . S
C940 H958 0.928 . S
C941 C938 1.260 . S
C941 C939 1.479 . S
C942 C937 1.245 . S
C942 C938 1.477 . S
C942 H959 0.932 . S
C943 U926 2.882 . S
C943 C937 1.428 . S
C943 O946 1.301 . S
C943 O947 1.282 . S
O944 U926 2.441 . S
O944 C930 1.249 . S
O945 U926 2.420 . S
O945 C930 1.202 . S
O946 U926 2.455 . S
O946 C943 1.301 . S
O947 U926 2.449 . S
O947 C943 1.282 . S
H948 C921 0.931 . S
H949 C923 0.929 . S
H950 C924 0.930 . S
H951 C925 0.931 . S
H952 C932 0.932 . S
H953 C933 0.930 . S
H954 C934 0.929 . S
H955 C936 0.930 . S
H956 C938 0.932 . S
H957 C939 0.929 . S
H958 C940 0.928 . S
H959 C942 0.932 . S
C960 C961 1.264 . S
C960 C965 1.479 . S
C960 C970 1.465 . S
C961 C960 1.264 . S
C961 C963 1.339 . S
C961 H988 0.931 . S
C962 C963 1.395 . S
C962 C964 1.320 . S
C963 C961 1.339 . S
C963 C962 1.395 . S
C963 H989 0.929 . S
C964 C962 1.320 . S
C964 C965 1.405 . S
C964 H990 0.930 . S
C965 C960 1.479 . S
C965 C964 1.405 . S
C965 H991 0.931 . S
U966 O967 2.454 . S
U966 O968 2.458 . S
U966 C969 2.984 . S
U966 C970 2.847 . S
U966 C983 2.882 . S
U966 O984 2.441 . S
U966 O985 2.420 . S
U966 O986 2.455 . S
U966 O987 2.449 . S
O967 U966 2.454 . S
O967 C969 1.353 . S
O968 U966 2.458 . S
O968 C969 1.286 . S
C969 U966 2.984 . S
C969 O967 1.353 . S
C969 O968 1.286 . S
C969 C971 1.363 . S
C970 C960 1.465 . S
C970 U966 2.847 . S
C970 O984 1.249 . S
C970 O985 1.202 . S
C971 C969 1.363 . S
C971 C973 1.408 . S
C971 C976 1.342 . S
C972 C973 1.310 . S
C972 C975 1.461 . S
C972 H992 0.932 . S
C973 C971 1.408 . S
C973 C972 1.310 . S
C973 H993 0.930 . S
C974 C975 1.474 . S
C974 C976 1.285 . S
C974 H994 0.929 . S
C975 C972 1.461 . S
C975 C974 1.474 . S
C976 C971 1.342 . S
C976 C974 1.285 . S
C976 H995 0.930 . S
C977 C980 1.424 . S
C977 C982 1.245 . S
C977 C983 1.428 . S
C978 C981 1.260 . S
C978 C982 1.477 . S
C978 H996 0.932 . S
C979 C980 1.384 . S
C979 C981 1.479 . S
C979 H997 0.929 . S
C980 C977 1.424 . S
C980 C979 1.384 . S
C980 H998 0.928 . S
C981 C978 1.260 . S
C981 C979 1.479 . S
C982 C977 1.245 . S
C982 C978 1.477 . S
C982 H999 0.932 . S
C983 U966 2.882 . S
C983 C977 1.428 . S
C983 O986 1.301 . S
C983 O987 1.282 . S
O984 U966 2.441 . S
O984 C970 1.249 . S
O985 U966 2.420 . S
O985 C970 1.202 . S
O986 U966 2.455 . S
O986 C983 1.301 . S
O987 U966 2.449 . S
O987 C983 1.282 . S
H988 C961 0.931 . S
H989 C963 0.929 . S
H990 C964 0.930 . S
H991 C965 0.931 . S
H992 C972 0.932 . S
H993 C973 0.930 . S
H994 C974 0.929 . S
H995 C976 0.930 . S
H996 C978 0.932 . S
H997 C979 0.929 . S
H998 C980 0.928 . S
H999 C982 0.932 . S
C1000 C1001 1.264 . S
C1000 C1005 1.479 . S
C1000 C1010 1.465 . S
C1001 C1000 1.264 . S
C1001 C1003 1.339 . S
C1001 H1028 0.931 . S
C1002 C1003 1.395 . S
C1002 C1004 1.320 . S
C1003 C1001 1.339 . S
C1003 C1002 1.395 . S
C1003 H1029 0.929 . S
C1004 C1002 1.320 . S
C1004 C1005 1.405 . S
C1004 H1030 0.930 . S
C1005 C1000 1.479 . S
C1005 C1004 1.405 . S
C1005 H1031 0.931 . S
U1006 O1007 2.454 . S
U1006 O1008 2.458 . S
U1006 C1009 2.984 . S
U1006 C1010 2.847 . S
U1006 C1023 2.882 . S
U1006 O1024 2.441 . S
U1006 O1025 2.420 . S
U1006 O1026 2.455 . S
U1006 O1027 2.449 . S
O1007 U1006 2.454 . S
O1007 C1009 1.353 . S
O1008 U1006 2.458 . S
O1008 C1009 1.286 . S
C1009 U1006 2.984 . S
C1009 O1007 1.353 . S
C1009 O1008 1.286 . S
C1009 C1011 1.363 . S
C1010 C1000 1.465 . S
C1010 U1006 2.847 . S
C1010 O1024 1.249 . S
C1010 O1025 1.202 . S
C1011 C1009 1.363 . S
C1011 C1013 1.408 . S
C1011 C1016 1.342 . S
C1012 C1013 1.310 . S
C1012 C1015 1.461 . S
C1012 H1032 0.932 . S
C1013 C1011 1.408 . S
C1013 C1012 1.310 . S
C1013 H1033 0.930 . S
C1014 C1015 1.474 . S
C1014 C1016 1.285 . S
C1014 H1034 0.929 . S
C1015 C1012 1.461 . S
C1015 C1014 1.474 . S
C1016 C1011 1.342 . S
C1016 C1014 1.285 . S
C1016 H1035 0.930 . S
C1017 C1020 1.424 . S
C1017 C1022 1.245 . S
C1017 C1023 1.428 . S
C1018 C1021 1.260 . S
C1018 C1022 1.477 . S
C1018 H1036 0.932 . S
C1019 C1020 1.384 . S
C1019 C1021 1.479 . S
C1019 H1037 0.929 . S
C1020 C1017 1.424 . S
C1020 C1019 1.384 . S
C1020 H1038 0.928 . S
C1021 C1018 1.260 . S
C1021 C1019 1.479 . S
C1022 C1017 1.245 . S
C1022 C1018 1.477 . S
C1022 H1039 0.932 . S
C1023 U1006 2.882 . S
C1023 C1017 1.428 . S
C1023 O1026 1.301 . S
C1023 O1027 1.282 . S
O1024 U1006 2.441 . S
O1024 C1010 1.249 . S
O1025 U1006 2.420 . S
O1025 C1010 1.202 . S
O1026 U1006 2.455 . S
O1026 C1023 1.301 . S
O1027 U1006 2.449 . S
O1027 C1023 1.282 . S
H1028 C1001 0.931 . S
H1029 C1003 0.929 . S
H1030 C1004 0.930 . S
H1031 C1005 0.931 . S
H1032 C1012 0.932 . S
H1033 C1013 0.930 . S
H1034 C1014 0.929 . S
H1035 C1016 0.930 . S
H1036 C1018 0.932 . S
H1037 C1019 0.929 . S
H1038 C1020 0.928 . S
H1039 C1022 0.932 . S
C1040 C1041 1.264 . S
C1040 C1045 1.479 . S
C1040 C1050 1.465 . S
C1041 C1040 1.264 . S
C1041 C1043 1.339 . S
C1041 H1068 0.931 . S
C1042 C1043 1.395 . S
C1042 C1044 1.320 . S
C1043 C1041 1.339 . S
C1043 C1042 1.395 . S
C1043 H1069 0.929 . S
C1044 C1042 1.320 . S
C1044 C1045 1.405 . S
C1044 H1070 0.930 . S
C1045 C1040 1.479 . S
C1045 C1044 1.405 . S
C1045 H1071 0.931 . S
U1046 O1047 2.454 . S
U1046 O1048 2.458 . S
U1046 C1049 2.984 . S
U1046 C1050 2.847 . S
U1046 C1063 2.882 . S
U1046 O1064 2.441 . S
U1046 O1065 2.420 . S
U1046 O1066 2.455 . S
U1046 O1067 2.449 . S
O1047 U1046 2.454 . S
O1047 C1049 1.353 . S
O1048 U1046 2.458 . S
O1048 C1049 1.286 . S
C1049 U1046 2.984 . S
C1049 O1047 1.353 . S
C1049 O1048 1.286 . S
C1049 C1051 1.363 . S
C1050 C1040 1.465 . S
C1050 U1046 2.847 . S
C1050 O1064 1.249 . S
C1050 O1065 1.202 . S
C1051 C1049 1.363 . S
C1051 C1053 1.408 . S
C1051 C1056 1.342 . S
C1052 C1053 1.310 . S
C1052 C1055 1.461 . S
C1052 H1072 0.932 . S
C1053 C1051 1.408 . S
C1053 C1052 1.310 . S
C1053 H1073 0.930 . S
C1054 C1055 1.474 . S
C1054 C1056 1.285 . S
C1054 H1074 0.929 . S
C1055 C1052 1.461 . S
C1055 C1054 1.474 . S
C1056 C1051 1.342 . S
C1056 C1054 1.285 . S
C1056 H1075 0.930 . S
C1057 C1060 1.424 . S
C1057 C1062 1.245 . S
C1057 C1063 1.428 . S
C1058 C1061 1.260 . S
C1058 C1062 1.477 . S
C1058 H1076 0.932 . S
C1059 C1060 1.384 . S
C1059 C1061 1.479 . S
C1059 H1077 0.929 . S
C1060 C1057 1.424 . S
C1060 C1059 1.384 . S
C1060 H1078 0.928 . S
C1061 C1058 1.260 . S
C1061 C1059 1.479 . S
C1062 C1057 1.245 . S
C1062 C1058 1.477 . S
C1062 H1079 0.932 . S
C1063 U1046 2.882 . S
C1063 C1057 1.428 . S
C1063 O1066 1.301 . S
C1063 O1067 1.282 . S
O1064 U1046 2.441 . S
O1064 C1050 1.249 . S
O1065 U1046 2.420 . S
O1065 C1050 1.202 . S
O1066 U1046 2.455 . S
O1066 C1063 1.301 . S
O1067 U1046 2.449 . S
O1067 C1063 1.282 . S
H1068 C1041 0.931 . S
H1069 C1043 0.929 . S
H1070 C1044 0.930 . S
H1071 C1045 0.931 . S
H1072 C1052 0.932 . S
H1073 C1053 0.930 . S
H1074 C1054 0.929 . S
H1075 C1056 0.930 . S
H1076 C1058 0.932 . S
H1077 C1059 0.929 . S
H1078 C1060 0.928 . S
H1079 C1062 0.932 . S
C1080 C1081 1.264 . S
C1080 C1085 1.479 . S
C1080 C1090 1.465 . S
C1081 C1080 1.264 . S
C1081 C1083 1.339 . S
C1081 H1108 0.931 . S
C1082 C1083 1.395 . S
C1082 C1084 1.320 . S
C1083 C1081 1.339 . S
C1083 C1082 1.395 . S
C1083 H1109 0.929 . S
C1084 C1082 1.320 . S
C1084 C1085 1.405 . S
C1084 H1110 0.930 . S
C1085 C1080 1.479 . S
C1085 C1084 1.405 . S
C1085 H1111 0.931 . S
U1086 O1087 2.454 . S
U1086 O1088 2.458 . S
U1086 C1089 2.984 . S
U1086 C1090 2.847 . S
U1086 C1103 2.882 . S
U1086 O1104 2.441 . S
U1086 O1105 2.420 . S
U1086 O1106 2.455 . S
U1086 O1107 2.449 . S
O1087 U1086 2.454 . S
O1087 C1089 1.353 . S
O1088 U1086 2.458 . S
O1088 C1089 1.286 . S
C1089 U1086 2.984 . S
C1089 O1087 1.353 . S
C1089 O1088 1.286 . S
C1089 C1091 1.363 . S
C1090 C1080 1.465 . S
C1090 U1086 2.847 . S
C1090 O1104 1.249 . S
C1090 O1105 1.202 . S
C1091 C1089 1.363 . S
C1091 C1093 1.408 . S
C1091 C1096 1.342 . S
C1092 C1093 1.310 . S
C1092 C1095 1.461 . S
C1092 H1112 0.932 . S
C1093 C1091 1.408 . S
C1093 C1092 1.310 . S
C1093 H1113 0.930 . S
C1094 C1095 1.474 . S
C1094 C1096 1.285 . S
C1094 H1114 0.929 . S
C1095 C1092 1.461 . S
C1095 C1094 1.474 . S
C1096 C1091 1.342 . S
C1096 C1094 1.285 . S
C1096 H1115 0.930 . S
C1097 C1100 1.424 . S
C1097 C1102 1.245 . S
C1097 C1103 1.428 . S
C1098 C1101 1.260 . S
C1098 C1102 1.477 . S
C1098 H1116 0.932 . S
C1099 C1100 1.384 . S
C1099 C1101 1.479 . S
C1099 H1117 0.929 . S
C1100 C1097 1.424 . S
C1100 C1099 1.384 . S
C1100 H1118 0.928 . S
C1101 C1098 1.260 . S
C1101 C1099 1.479 . S
C1102 C1097 1.245 . S
C1102 C1098 1.477 . S
C1102 H1119 0.932 . S
C1103 U1086 2.882 . S
C1103 C1097 1.428 . S
C1103 O1106 1.301 . S
C1103 O1107 1.282 . S
O1104 U1086 2.441 . S
O1104 C1090 1.249 . S
O1105 U1086 2.420 . S
O1105 C1090 1.202 . S
O1106 U1086 2.455 . S
O1106 C1103 1.301 . S
O1107 U1086 2.449 . S
O1107 C1103 1.282 . S
H1108 C1081 0.931 . S
H1109 C1083 0.929 . S
H1110 C1084 0.930 . S
H1111 C1085 0.931 . S
H1112 C1092 0.932 . S
H1113 C1093 0.930 . S
H1114 C1094 0.929 . S
H1115 C1096 0.930 . S
H1116 C1098 0.932 . S
H1117 C1099 0.929 . S
H1118 C1100 0.928 . S
H1119 C1102 0.932 . S
C1120 C1121 1.264 . S
C1120 C1125 1.479 . S
C1120 C1130 1.465 . S
C1121 C1120 1.264 . S
C1121 C1123 1.339 . S
C1121 H1148 0.931 . S
C1122 C1123 1.395 . S
C1122 C1124 1.320 . S
C1123 C1121 1.339 . S
C1123 C1122 1.395 . S
C1123 H1149 0.929 . S
C1124 C1122 1.320 . S
C1124 C1125 1.405 . S
C1124 H1150 0.930 . S
C1125 C1120 1.479 . S
C1125 C1124 1.405 . S
C1125 H1151 0.931 . S
U1126 O1127 2.454 . S
U1126 O1128 2.458 . S
U1126 C1129 2.984 . S
U1126 C1130 2.847 . S
U1126 C1143 2.882 . S
U1126 O1144 2.441 . S
U1126 O1145 2.420 . S
U1126 O1146 2.455 . S
U1126 O1147 2.449 . S
O1127 U1126 2.454 . S
O1127 C1129 1.353 . S
O1128 U1126 2.458 . S
O1128 C1129 1.286 . S
C1129 U1126 2.984 . S
C1129 O1127 1.353 . S
C1129 O1128 1.286 . S
C1129 C1131 1.363 . S
C1130 C1120 1.465 . S
C1130 U1126 2.847 . S
C1130 O1144 1.249 . S
C1130 O1145 1.202 . S
C1131 C1129 1.363 . S
C1131 C1133 1.408 . S
C1131 C1136 1.342 . S
C1132 C1133 1.310 . S
C1132 C1135 1.461 . S
C1132 H1152 0.932 . S
C1133 C1131 1.408 . S
C1133 C1132 1.310 . S
C1133 H1153 0.930 . S
C1134 C1135 1.474 . S
C1134 C1136 1.285 . S
C1134 H1154 0.929 . S
C1135 C1132 1.461 . S
C1135 C1134 1.474 . S
C1136 C1131 1.342 . S
C1136 C1134 1.285 . S
C1136 H1155 0.930 . S
C1137 C1140 1.424 . S
C1137 C1142 1.245 . S
C1137 C1143 1.428 . S
C1138 C1141 1.260 . S
C1138 C1142 1.477 . S
C1138 H1156 0.932 . S
C1139 C1140 1.384 . S
C1139 C1141 1.479 . S
C1139 H1157 0.929 . S
C1140 C1137 1.424 . S
C1140 C1139 1.384 . S
C1140 H1158 0.928 . S
C1141 C1138 1.260 . S
C1141 C1139 1.479 . S
C1142 C1137 1.245 . S
C1142 C1138 1.477 . S
C1142 H1159 0.932 . S
C1143 U1126 2.882 . S
C1143 C1137 1.428 . S
C1143 O1146 1.301 . S
C1143 O1147 1.282 . S
O1144 U1126 2.441 . S
O1144 C1130 1.249 . S
O1145 U1126 2.420 . S
O1145 C1130 1.202 . S
O1146 U1126 2.455 . S
O1146 C1143 1.301 . S
O1147 U1126 2.449 . S
O1147 C1143 1.282 . S
H1148 C1121 0.931 . S
H1149 C1123 0.929 . S
H1150 C1124 0.930 . S
H1151 C1125 0.931 . S
H1152 C1132 0.932 . S
H1153 C1133 0.930 . S
H1154 C1134 0.929 . S
H1155 C1136 0.930 . S
H1156 C1138 0.932 . S
H1157 C1139 0.929 . S
H1158 C1140 0.928 . S
H1159 C1142 0.932 . S
C1160 C1161 1.264 . S
C1160 C1165 1.479 . S
C1160 C1170 1.465 . S
C1161 C1160 1.264 . S
C1161 C1163 1.339 . S
C1161 H1188 0.931 . S
C1162 C1163 1.395 . S
C1162 C1164 1.320 . S
C1163 C1161 1.339 . S
C1163 C1162 1.395 . S
C1163 H1189 0.929 . S
C1164 C1162 1.320 . S
C1164 C1165 1.405 . S
C1164 H1190 0.930 . S
C1165 C1160 1.479 . S
C1165 C1164 1.405 . S
C1165 H1191 0.931 . S
U1166 O1167 2.454 . S
U1166 O1168 2.458 . S
U1166 C1169 2.984 . S
U1166 C1170 2.847 . S
U1166 C1183 2.882 . S
U1166 O1184 2.441 . S
U1166 O1185 2.420 . S
U1166 O1186 2.455 . S
U1166 O1187 2.449 . S
O1167 U1166 2.454 . S
O1167 C1169 1.353 . S
O1168 U1166 2.458 . S
O1168 C1169 1.286 . S
C1169 U1166 2.984 . S
C1169 O1167 1.353 . S
C1169 O1168 1.286 . S
C1169 C1171 1.363 . S
C1170 C1160 1.465 . S
C1170 U1166 2.847 . S
C1170 O1184 1.249 . S
C1170 O1185 1.202 . S
C1171 C1169 1.363 . S
C1171 C1173 1.408 . S
C1171 C1176 1.342 . S
C1172 C1173 1.310 . S
C1172 C1175 1.461 . S
C1172 H1192 0.932 . S
C1173 C1171 1.408 . S
C1173 C1172 1.310 . S
C1173 H1193 0.930 . S
C1174 C1175 1.474 . S
C1174 C1176 1.285 . S
C1174 H1194 0.929 . S
C1175 C1172 1.461 . S
C1175 C1174 1.474 . S
C1176 C1171 1.342 . S
C1176 C1174 1.285 . S
C1176 H1195 0.930 . S
C1177 C1180 1.424 . S
C1177 C1182 1.245 . S
C1177 C1183 1.428 . S
C1178 C1181 1.260 . S
C1178 C1182 1.477 . S
C1178 H1196 0.932 . S
C1179 C1180 1.384 . S
C1179 C1181 1.479 . S
C1179 H1197 0.929 . S
C1180 C1177 1.424 . S
C1180 C1179 1.384 . S
C1180 H1198 0.928 . S
C1181 C1178 1.260 . S
C1181 C1179 1.479 . S
C1182 C1177 1.245 . S
C1182 C1178 1.477 . S
C1182 H1199 0.932 . S
C1183 U1166 2.882 . S
C1183 C1177 1.428 . S
C1183 O1186 1.301 . S
C1183 O1187 1.282 . S
O1184 U1166 2.441 . S
O1184 C1170 1.249 . S
O1185 U1166 2.420 . S
O1185 C1170 1.202 . S
O1186 U1166 2.455 . S
O1186 C1183 1.301 . S
O1187 U1166 2.449 . S
O1187 C1183 1.282 . S
H1188 C1161 0.931 . S
H1189 C1163 0.929 . S
H1190 C1164 0.930 . S
H1191 C1165 0.931 . S
H1192 C1172 0.932 . S
H1193 C1173 0.930 . S
H1194 C1174 0.929 . S
H1195 C1176 0.930 . S
H1196 C1178 0.932 . S
H1197 C1179 0.929 . S
H1198 C1180 0.928 . S
H1199 C1182 0.932 . S
C1200 C1201 1.264 . S
C1200 C1205 1.479 . S
C1200 C1210 1.465 . S
C1201 C1200 1.264 . S
C1201 C1203 1.339 . S
C1201 H1228 0.931 . S
C1202 C1203 1.395 . S
C1202 C1204 1.320 . S
C1203 C1201 1.339 . S
C1203 C1202 1.395 . S
C1203 H1229 0.929 . S
C1204 C1202 1.320 . S
C1204 C1205 1.405 . S
C1204 H1230 0.930 . S
C1205 C1200 1.479 . S
C1205 C1204 1.405 . S
C1205 H1231 0.931 . S
U1206 O1207 2.454 . S
U1206 O1208 2.458 . S
U1206 C1209 2.984 . S
U1206 C1210 2.847 . S
U1206 C1223 2.882 . S
U1206 O1224 2.441 . S
U1206 O1225 2.420 . S
U1206 O1226 2.455 . S
U1206 O1227 2.449 . S
O1207 U1206 2.454 . S
O1207 C1209 1.353 . S
O1208 U1206 2.458 . S
O1208 C1209 1.286 . S
C1209 U1206 2.984 . S
C1209 O1207 1.353 . S
C1209 O1208 1.286 . S
C1209 C1211 1.363 . S
C1210 C1200 1.465 . S
C1210 U1206 2.847 . S
C1210 O1224 1.249 . S
C1210 O1225 1.202 . S
C1211 C1209 1.363 . S
C1211 C1213 1.408 . S
C1211 C1216 1.342 . S
C1212 C1213 1.310 . S
C1212 C1215 1.461 . S
C1212 H1232 0.932 . S
C1213 C1211 1.408 . S
C1213 C1212 1.310 . S
C1213 H1233 0.930 . S
C1214 C1215 1.474 . S
C1214 C1216 1.285 . S
C1214 H1234 0.929 . S
C1215 C1212 1.461 . S
C1215 C1214 1.474 . S
C1216 C1211 1.342 . S
C1216 C1214 1.285 . S
C1216 H1235 0.930 . S
C1217 C1220 1.424 . S
C1217 C1222 1.245 . S
C1217 C1223 1.428 . S
C1218 C1221 1.260 . S
C1218 C1222 1.477 . S
C1218 H1236 0.932 . S
C1219 C1220 1.384 . S
C1219 C1221 1.479 . S
C1219 H1237 0.929 . S
C1220 C1217 1.424 . S
C1220 C1219 1.384 . S
C1220 H1238 0.928 . S
C1221 C1218 1.260 . S
C1221 C1219 1.479 . S
C1222 C1217 1.245 . S
C1222 C1218 1.477 . S
C1222 H1239 0.932 . S
C1223 U1206 2.882 . S
C1223 C1217 1.428 . S
C1223 O1226 1.301 . S
C1223 O1227 1.282 . S
O1224 U1206 2.441 . S
O1224 C1210 1.249 . S
O1225 U1206 2.420 . S
O1225 C1210 1.202 . S
O1226 U1206 2.455 . S
O1226 C1223 1.301 . S
O1227 U1206 2.449 . S
O1227 C1223 1.282 . S
H1228 C1201 0.931 . S
H1229 C1203 0.929 . S
H1230 C1204 0.930 . S
H1231 C1205 0.931 . S
H1232 C1212 0.932 . S
H1233 C1213 0.930 . S
H1234 C1214 0.929 . S
H1235 C1216 0.930 . S
H1236 C1218 0.932 . S
H1237 C1219 0.929 . S
H1238 C1220 0.928 . S
H1239 C1222 0.932 . S
C1240 C1241 1.264 . S
C1240 C1245 1.479 . S
C1240 C1250 1.465 . S
C1241 C1240 1.264 . S
C1241 C1243 1.339 . S
C1241 H1268 0.931 . S
C1242 C1243 1.395 . S
C1242 C1244 1.320 . S
C1243 C1241 1.339 . S
C1243 C1242 1.395 . S
C1243 H1269 0.929 . S
C1244 C1242 1.320 . S
C1244 C1245 1.405 . S
C1244 H1270 0.930 . S
C1245 C1240 1.479 . S
C1245 C1244 1.405 . S
C1245 H1271 0.931 . S
U1246 O1247 2.454 . S
U1246 O1248 2.458 . S
U1246 C1249 2.984 . S
U1246 C1250 2.847 . S
U1246 C1263 2.882 . S
U1246 O1264 2.441 . S
U1246 O1265 2.420 . S
U1246 O1266 2.455 . S
U1246 O1267 2.449 . S
O1247 U1246 2.454 . S
O1247 C1249 1.353 . S
O1248 U1246 2.458 . S
O1248 C1249 1.286 . S
C1249 U1246 2.984 . S
C1249 O1247 1.353 . S
C1249 O1248 1.286 . S
C1249 C1251 1.363 . S
C1250 C1240 1.465 . S
C1250 U1246 2.847 . S
C1250 O1264 1.249 . S
C1250 O1265 1.202 . S
C1251 C1249 1.363 . S
C1251 C1253 1.408 . S
C1251 C1256 1.342 . S
C1252 C1253 1.310 . S
C1252 C1255 1.461 . S
C1252 H1272 0.932 . S
C1253 C1251 1.408 . S
C1253 C1252 1.310 . S
C1253 H1273 0.930 . S
C1254 C1255 1.474 . S
C1254 C1256 1.285 . S
C1254 H1274 0.929 . S
C1255 C1252 1.461 . S
C1255 C1254 1.474 . S
C1256 C1251 1.342 . S
C1256 C1254 1.285 . S
C1256 H1275 0.930 . S
C1257 C1260 1.424 . S
C1257 C1262 1.245 . S
C1257 C1263 1.428 . S
C1258 C1261 1.260 . S
C1258 C1262 1.477 . S
C1258 H1276 0.932 . S
C1259 C1260 1.384 . S
C1259 C1261 1.479 . S
C1259 H1277 0.929 . S
C1260 C1257 1.424 . S
C1260 C1259 1.384 . S
C1260 H1278 0.928 . S
C1261 C1258 1.260 . S
C1261 C1259 1.479 . S
C1262 C1257 1.245 . S
C1262 C1258 1.477 . S
C1262 H1279 0.932 . S
C1263 U1246 2.882 . S
C1263 C1257 1.428 . S
C1263 O1266 1.301 . S
C1263 O1267 1.282 . S
O1264 U1246 2.441 . S
O1264 C1250 1.249 . S
O1265 U1246 2.420 . S
O1265 C1250 1.202 . S
O1266 U1246 2.455 . S
O1266 C1263 1.301 . S
O1267 U1246 2.449 . S
O1267 C1263 1.282 . S
H1268 C1241 0.931 . S
H1269 C1243 0.929 . S
H1270 C1244 0.930 . S
H1271 C1245 0.931 . S
H1272 C1252 0.932 . S
H1273 C1253 0.930 . S
H1274 C1254 0.929 . S
H1275 C1256 0.930 . S
H1276 C1258 0.932 . S
H1277 C1259 0.929 . S
H1278 C1260 0.928 . S
H1279 C1262 0.932 . S
H1280 C1288 0.930 . S
H1281 C1291 0.930 . S
H1282 C1293 0.930 . S
H1283 C1294 0.970 . S
H1284 C1294 0.970 . S
H1285 C1296 0.930 . S
H1286 C1298 0.930 . S
H1287 C1300 0.930 . S
C1288 H1280 0.930 . S
C1288 C1289 1.382 . S
C1288 C1290 1.426 . S
C1289 C1288 1.382 . S
C1289 C1293 1.389 . S
C1290 C1288 1.426 . S
C1290 C1291 1.375 . S
C1290 C1294 1.532 1_556 S
C1291 H1281 0.930 . S
C1291 C1290 1.375 . S
C1291 C1292 1.416 . S
C1292 C1291 1.416 . S
C1292 C1293 1.371 . S
C1293 H1282 0.930 . S
C1293 C1289 1.389 . S
C1293 C1292 1.371 . S
C1294 H1283 0.970 . S
C1294 H1284 0.970 . S
C1294 C1290 1.532 1_554 S
C1294 C1295 1.499 . S
C1295 C1294 1.499 . S
C1295 C1296 1.370 . S
C1295 C1300 1.415 . S
C1296 H1285 0.930 . S
C1296 C1295 1.370 . S
C1296 C1297 1.407 . S
C1297 C1296 1.407 . S
C1297 C1298 1.365 . S
C1298 H1286 0.930 . S
C1298 C1297 1.365 . S
C1298 C1299 1.393 . S
C1299 C1298 1.393 . S
C1299 C1300 1.387 . S
C1300 H1287 0.930 . S
C1300 C1295 1.415 . S
C1300 C1299 1.387 . S
H1301 C1309 0.930 . S
H1302 C1312 0.930 . S
H1303 C1314 0.930 . S
H1304 C1315 0.970 . S
H1305 C1315 0.970 . S
H1306 C1317 0.930 . S
H1307 C1319 0.930 . S
H1308 C1321 0.930 . S
C1309 H1301 0.930 . S
C1309 C1310 1.382 . S
C1309 C1311 1.426 . S
C1310 C1309 1.382 . S
C1310 C1314 1.389 . S
C1311 C1309 1.426 . S
C1311 C1312 1.375 . S
C1311 C1315 1.532 . S
C1312 H1302 0.930 . S
C1312 C1311 1.375 . S
C1312 C1313 1.416 . S
C1313 C1312 1.416 . S
C1313 C1314 1.371 . S
C1314 H1303 0.930 . S
C1314 C1310 1.389 . S
C1314 C1313 1.371 . S
C1315 H1304 0.970 . S
C1315 H1305 0.970 . S
C1315 C1311 1.532 . S
C1315 C1316 1.499 1_554 S
C1316 C1315 1.499 1_556 S
C1316 C1317 1.370 . S
C1316 C1321 1.415 . S
C1317 H1306 0.930 . S
C1317 C1316 1.370 . S
C1317 C1318 1.407 . S
C1318 C1317 1.407 . S
C1318 C1319 1.365 . S
C1319 H1307 0.930 . S
C1319 C1318 1.365 . S
C1319 C1320 1.393 . S
C1320 C1319 1.393 . S
C1320 C1321 1.387 . S
C1321 H1308 0.930 . S
C1321 C1316 1.415 . S
C1321 C1320 1.387 . S
H1322 C1330 0.930 . S
H1323 C1333 0.930 . S
H1324 C1335 0.930 . S
H1325 C1336 0.970 . S
H1326 C1336 0.970 . S
H1327 C1338 0.930 . S
H1328 C1340 0.930 . S
H1329 C1342 0.930 . S
C1330 H1322 0.930 . S
C1330 C1331 1.382 . S
C1330 C1332 1.426 . S
C1331 C1330 1.382 . S
C1331 C1335 1.389 . S
C1332 C1330 1.426 . S
C1332 C1333 1.375 . S
C1332 C1336 1.532 . S
C1333 H1323 0.930 . S
C1333 C1332 1.375 . S
C1333 C1334 1.416 . S
C1334 C1333 1.416 . S
C1334 C1335 1.371 . S
C1335 H1324 0.930 . S
C1335 C1331 1.389 . S
C1335 C1334 1.371 . S
C1336 H1325 0.970 . S
C1336 H1326 0.970 . S
C1336 C1332 1.532 . S
C1336 C1337 1.499 1_554 S
C1337 C1336 1.499 1_556 S
C1337 C1338 1.370 . S
C1337 C1342 1.415 . S
C1338 H1327 0.930 . S
C1338 C1337 1.370 . S
C1338 C1339 1.407 . S
C1339 C1338 1.407 . S
C1339 C1340 1.365 . S
C1340 H1328 0.930 . S
C1340 C1339 1.365 . S
C1340 C1341 1.393 . S
C1341 C1340 1.393 . S
C1341 C1342 1.387 . S
C1342 H1329 0.930 . S
C1342 C1337 1.415 . S
C1342 C1341 1.387 . S
H1343 C1351 0.930 . S
H1344 C1354 0.930 . S
H1345 C1356 0.930 . S
H1346 C1357 0.970 . S
H1347 C1357 0.970 . S
H1348 C1359 0.930 . S
H1349 C1361 0.930 . S
H1350 C1363 0.930 . S
C1351 H1343 0.930 . S
C1351 C1352 1.382 . S
C1351 C1353 1.426 . S
C1352 C1351 1.382 . S
C1352 C1356 1.389 . S
C1353 C1351 1.426 . S
C1353 C1354 1.375 . S
C1353 C1357 1.532 . S
C1354 H1344 0.930 . S
C1354 C1353 1.375 . S
C1354 C1355 1.416 . S
C1355 C1354 1.416 . S
C1355 C1356 1.371 . S
C1356 H1345 0.930 . S
C1356 C1352 1.389 . S
C1356 C1355 1.371 . S
C1357 H1346 0.970 . S
C1357 H1347 0.970 . S
C1357 C1353 1.532 . S
C1357 C1358 1.499 1_554 S
C1358 C1357 1.499 1_556 S
C1358 C1359 1.370 . S
C1358 C1363 1.415 . S
C1359 H1348 0.930 . S
C1359 C1358 1.370 . S
C1359 C1360 1.407 . S
C1360 C1359 1.407 . S
C1360 C1361 1.365 . S
C1361 H1349 0.930 . S
C1361 C1360 1.365 . S
C1361 C1362 1.393 . S
C1362 C1361 1.393 . S
C1362 C1363 1.387 . S
C1363 H1350 0.930 . S
C1363 C1358 1.415 . S
C1363 C1362 1.387 . S
H1364 C1372 0.930 . S
H1365 C1375 0.930 . S
H1366 C1377 0.930 . S
H1367 C1378 0.970 . S
H1368 C1378 0.970 . S
H1369 C1380 0.930 . S
H1370 C1382 0.930 . S
H1371 C1384 0.930 . S
C1372 H1364 0.930 . S
C1372 C1373 1.382 . S
C1372 C1374 1.426 . S
C1373 C1372 1.382 . S
C1373 C1377 1.389 . S
C1374 C1372 1.426 . S
C1374 C1375 1.375 . S
C1374 C1378 1.532 . S
C1375 H1365 0.930 . S
C1375 C1374 1.375 . S
C1375 C1376 1.416 . S
C1376 C1375 1.416 . S
C1376 C1377 1.371 . S
C1377 H1366 0.930 . S
C1377 C1373 1.389 . S
C1377 C1376 1.371 . S
C1378 H1367 0.970 . S
C1378 H1368 0.970 . S
C1378 C1374 1.532 . S
C1378 C1379 1.499 1_455 S
C1379 C1378 1.499 1_655 S
C1379 C1380 1.370 . S
C1379 C1384 1.415 . S
C1380 H1369 0.930 . S
C1380 C1379 1.370 . S
C1380 C1381 1.407 . S
C1381 C1380 1.407 . S
C1381 C1382 1.365 . S
C1382 H1370 0.930 . S
C1382 C1381 1.365 . S
C1382 C1383 1.393 . S
C1383 C1382 1.393 . S
C1383 C1384 1.387 . S
C1384 H1371 0.930 . S
C1384 C1379 1.415 . S
C1384 C1383 1.387 . S
H1385 C1393 0.930 . S
H1386 C1396 0.930 . S
H1387 C1398 0.930 . S
H1388 C1399 0.970 . S
H1389 C1399 0.970 1_565 S
H1390 C1401 0.930 . S
H1391 C1403 0.930 . S
H1392 C1405 0.930 . S
C1393 H1385 0.930 . S
C1393 C1394 1.382 . S
C1393 C1395 1.426 . S
C1394 C1393 1.382 . S
C1394 C1398 1.389 . S
C1395 C1393 1.426 . S
C1395 C1396 1.375 . S
C1395 C1399 1.534 . S
C1396 H1386 0.930 . S
C1396 C1395 1.375 . S
C1396 C1397 1.416 . S
C1397 C1396 1.416 . S
C1397 C1398 1.371 . S
C1398 H1387 0.930 . S
C1398 C1394 1.389 . S
C1398 C1397 1.371 . S
C1399 H1388 0.970 . S
C1399 H1389 0.970 1_545 S
C1399 C1395 1.534 . S
C1399 C1400 1.498 1_545 S
C1400 C1399 1.498 1_565 S
C1400 C1401 1.370 . S
C1400 C1405 1.415 . S
C1401 H1390 0.930 . S
C1401 C1400 1.370 . S
C1401 C1402 1.407 . S
C1402 C1401 1.407 . S
C1402 C1403 1.365 . S
C1403 H1391 0.930 . S
C1403 C1402 1.365 . S
C1403 C1404 1.393 . S
C1404 C1403 1.393 . S
C1404 C1405 1.387 . S
C1405 H1392 0.930 . S
C1405 C1400 1.415 . S
C1405 C1404 1.387 . S
H1406 C1414 0.930 . S
H1407 C1417 0.930 . S
H1408 C1419 0.930 . S
H1409 C1420 0.970 . S
H1410 C1420 0.970 . S
H1411 C1422 0.930 . S
H1412 C1424 0.930 . S
H1413 C1426 0.930 . S
C1414 H1406 0.930 . S
C1414 C1415 1.382 . S
C1414 C1416 1.426 . S
C1415 C1414 1.382 . S
C1415 C1419 1.389 . S
C1416 C1414 1.426 . S
C1416 C1417 1.375 . S
C1416 C1420 1.527 1_655 S
C1417 H1407 0.930 . S
C1417 C1416 1.375 . S
C1417 C1418 1.416 . S
C1418 C1417 1.416 . S
C1418 C1419 1.371 . S
C1419 H1408 0.930 . S
C1419 C1415 1.389 . S
C1419 C1418 1.371 . S
C1420 H1409 0.970 . S
C1420 H1410 0.970 . S
C1420 C1416 1.527 1_455 S
C1420 C1421 1.505 . S
C1421 C1420 1.505 . S
C1421 C1422 1.370 . S
C1421 C1426 1.415 . S
C1422 H1411 0.930 . S
C1422 C1421 1.370 . S
C1422 C1423 1.407 . S
C1423 C1422 1.407 . S
C1423 C1424 1.365 . S
C1424 H1412 0.930 . S
C1424 C1423 1.365 . S
C1424 C1425 1.393 . S
C1425 C1424 1.393 . S
C1425 C1426 1.387 . S
C1426 H1413 0.930 . S
C1426 C1421 1.415 . S
C1426 C1425 1.387 . S
H1427 C1435 0.930 . S
H1428 C1438 0.930 . S
H1429 C1440 0.930 . S
H1430 C1441 0.970 . S
H1431 C1441 0.970 . S
H1432 C1443 0.930 . S
H1433 C1445 0.930 . S
H1434 C1447 0.930 . S
C1435 H1427 0.930 . S
C1435 C1436 1.382 . S
C1435 C1437 1.426 . S
C1436 C1435 1.382 . S
C1436 C1440 1.389 . S
C1437 C1435 1.426 . S
C1437 C1438 1.375 . S
C1437 C1441 1.532 1_565 S
C1438 H1428 0.930 . S
C1438 C1437 1.375 . S
C1438 C1439 1.416 . S
C1439 C1438 1.416 . S
C1439 C1440 1.371 . S
C1440 H1429 0.930 . S
C1440 C1436 1.389 . S
C1440 C1439 1.371 . S
C1441 H1430 0.970 . S
C1441 H1431 0.970 . S
C1441 C1437 1.532 1_545 S
C1441 C1442 1.499 . S
C1442 C1441 1.499 . S
C1442 C1443 1.370 . S
C1442 C1447 1.415 . S
C1443 H1432 0.930 . S
C1443 C1442 1.370 . S
C1443 C1444 1.407 . S
C1444 C1443 1.407 . S
C1444 C1445 1.365 . S
C1445 H1433 0.930 . S
C1445 C1444 1.365 . S
C1445 C1446 1.393 . S
C1446 C1445 1.393 . S
C1446 C1447 1.387 . S
C1447 H1434 0.930 . S
C1447 C1442 1.415 . S
C1447 C1446 1.387 . S
H1448 C1456 0.930 . S
H1449 C1459 0.930 . S
H1450 C1461 0.930 . S
H1451 C1462 0.970 . S
H1452 C1462 0.970 . S
H1453 C1464 0.930 . S
H1454 C1466 0.930 . S
H1455 C1468 0.930 . S
C1456 H1448 0.930 . S
C1456 C1457 1.382 . S
C1456 C1458 1.426 . S
C1457 C1456 1.382 . S
C1457 C1461 1.389 . S
C1458 C1456 1.426 . S
C1458 C1459 1.375 . S
C1458 C1462 1.532 1_655 S
C1459 H1449 0.930 . S
C1459 C1458 1.375 . S
C1459 C1460 1.416 . S
C1460 C1459 1.416 . S
C1460 C1461 1.371 . S
C1461 H1450 0.930 . S
C1461 C1457 1.389 . S
C1461 C1460 1.371 . S
C1462 H1451 0.970 . S
C1462 H1452 0.970 . S
C1462 C1458 1.532 1_455 S
C1462 C1463 1.499 . S
C1463 C1462 1.499 . S
C1463 C1464 1.370 . S
C1463 C1468 1.415 . S
C1464 H1453 0.930 . S
C1464 C1463 1.370 . S
C1464 C1465 1.407 . S
C1465 C1464 1.407 . S
C1465 C1466 1.365 . S
C1466 H1454 0.930 . S
C1466 C1465 1.365 . S
C1466 C1467 1.393 . S
C1467 C1466 1.393 . S
C1467 C1468 1.387 . S
C1468 H1455 0.930 . S
C1468 C1463 1.415 . S
C1468 C1467 1.387 . S
H1469 C1477 0.930 . S
H1470 C1480 0.930 . S
H1471 C1482 0.930 . S
H1472 C1483 0.970 . S
H1473 C1483 0.970 . S
H1474 C1485 0.930 . S
H1475 C1487 0.930 . S
H1476 C1489 0.930 . S
C1477 H1469 0.930 . S
C1477 C1478 1.382 . S
C1477 C1479 1.426 . S
C1478 C1477 1.382 . S
C1478 C1482 1.389 . S
C1479 C1477 1.426 . S
C1479 C1480 1.375 . S
C1479 C1483 1.532 1_565 S
C1480 H1470 0.930 . S
C1480 C1479 1.375 . S
C1480 C1481 1.416 . S
C1481 C1480 1.416 . S
C1481 C1482 1.371 . S
C1482 H1471 0.930 . S
C1482 C1478 1.389 . S
C1482 C1481 1.371 . S
C1483 H1472 0.970 . S
C1483 H1473 0.970 . S
C1483 C1479 1.532 1_545 S
C1483 C1484 1.499 . S
C1484 C1483 1.499 . S
C1484 C1485 1.370 . S
C1484 C1489 1.415 . S
C1485 H1474 0.930 . S
C1485 C1484 1.370 . S
C1485 C1486 1.407 . S
C1486 C1485 1.407 . S
C1486 C1487 1.365 . S
C1487 H1475 0.930 . S
C1487 C1486 1.365 . S
C1487 C1488 1.393 . S
C1488 C1487 1.393 . S
C1488 C1489 1.387 . S
C1489 H1476 0.930 . S
C1489 C1484 1.415 . S
C1489 C1488 1.387 . S
H1490 C1498 0.930 . S
H1491 C1501 0.930 . S
H1492 C1503 0.930 . S
H1493 C1504 0.970 . S
H1494 C1504 0.970 . S
H1495 C1506 0.930 . S
H1496 C1508 0.930 . S
H1497 C1510 0.930 . S
C1498 H1490 0.930 . S
C1498 C1499 1.382 . S
C1498 C1500 1.426 . S
C1499 C1498 1.382 . S
C1499 C1503 1.389 . S
C1500 C1498 1.426 . S
C1500 C1501 1.375 . S
C1500 C1504 1.532 1_655 S
C1501 H1491 0.930 . S
C1501 C1500 1.375 . S
C1501 C1502 1.416 . S
C1502 C1501 1.416 . S
C1502 C1503 1.371 . S
C1503 H1492 0.930 . S
C1503 C1499 1.389 . S
C1503 C1502 1.371 . S
C1504 H1493 0.970 . S
C1504 H1494 0.970 . S
C1504 C1500 1.532 1_455 S
C1504 C1505 1.499 . S
C1505 C1504 1.499 . S
C1505 C1506 1.370 . S
C1505 C1510 1.415 . S
C1506 H1495 0.930 . S
C1506 C1505 1.370 . S
C1506 C1507 1.407 . S
C1507 C1506 1.407 . S
C1507 C1508 1.365 . S
C1508 H1496 0.930 . S
C1508 C1507 1.365 . S
C1508 C1509 1.393 . S
C1509 C1508 1.393 . S
C1509 C1510 1.387 . S
C1510 H1497 0.930 . S
C1510 C1505 1.415 . S
C1510 C1509 1.387 . S
H1511 C1519 0.930 . S
H1512 C1522 0.930 . S
H1513 C1524 0.930 . S
H1514 C1525 0.970 . S
H1515 C1525 0.970 . S
H1516 C1527 0.930 . S
H1517 C1529 0.930 . S
H1518 C1531 0.930 . S
C1519 H1511 0.930 . S
C1519 C1520 1.382 . S
C1519 C1521 1.426 . S
C1520 C1519 1.382 . S
C1520 C1524 1.389 . S
C1521 C1519 1.426 . S
C1521 C1522 1.375 . S
C1521 C1525 1.532 1_565 S
C1522 H1512 0.930 . S
C1522 C1521 1.375 . S
C1522 C1523 1.416 . S
C1523 C1522 1.416 . S
C1523 C1524 1.371 . S
C1524 H1513 0.930 . S
C1524 C1520 1.389 . S
C1524 C1523 1.371 . S
C1525 H1514 0.970 . S
C1525 H1515 0.970 . S
C1525 C1521 1.532 1_545 S
C1525 C1526 1.499 . S
C1526 C1525 1.499 . S
C1526 C1527 1.370 . S
C1526 C1531 1.415 . S
C1527 H1516 0.930 . S
C1527 C1526 1.370 . S
C1527 C1528 1.407 . S
C1528 C1527 1.407 . S
C1528 C1529 1.365 . S
C1529 H1517 0.930 . S
C1529 C1528 1.365 . S
C1529 C1530 1.393 . S
C1530 C1529 1.393 . S
C1530 C1531 1.387 . S
C1531 H1518 0.930 . S
C1531 C1526 1.415 . S
C1531 C1530 1.387 . S
H1532 C1540 0.930 . S
H1533 C1543 0.930 . S
H1534 C1545 0.930 . S
H1535 C1546 0.970 . S
H1536 C1546 0.970 . S
H1537 C1548 0.930 . S
H1538 C1550 0.930 . S
H1539 C1552 0.930 . S
C1540 H1532 0.930 . S
C1540 C1541 1.382 . S
C1540 C1542 1.426 . S
C1541 C1540 1.382 . S
C1541 C1545 1.389 . S
C1542 C1540 1.426 . S
C1542 C1543 1.375 . S
C1542 C1546 1.532 . S
C1543 H1533 0.930 . S
C1543 C1542 1.375 . S
C1543 C1544 1.416 . S
C1544 C1543 1.416 . S
C1544 C1545 1.371 . S
C1545 H1534 0.930 . S
C1545 C1541 1.389 . S
C1545 C1544 1.371 . S
C1546 H1535 0.970 . S
C1546 H1536 0.970 . S
C1546 C1542 1.532 . S
C1546 C1547 1.499 . S
C1547 C1546 1.499 . S
C1547 C1548 1.370 . S
C1547 C1552 1.415 . S
C1548 H1537 0.930 . S
C1548 C1547 1.370 . S
C1548 C1549 1.407 . S
C1549 C1548 1.407 . S
C1549 C1550 1.365 . S
C1550 H1538 0.930 . S
C1550 C1549 1.365 . S
C1550 C1551 1.393 . S
C1551 C1550 1.393 . S
C1551 C1552 1.387 . S
C1552 H1539 0.930 . S
C1552 C1547 1.415 . S
C1552 C1551 1.387 . S
H1553 C1561 0.930 . S
H1554 C1564 0.930 . S
H1555 C1566 0.930 . S
H1556 C1567 0.970 . S
H1557 C1567 0.970 . S
H1558 C1569 0.930 . S
H1559 C1571 0.930 . S
H1560 C1573 0.930 . S
C1561 H1553 0.930 . S
C1561 C1562 1.382 . S
C1561 C1563 1.426 . S
C1562 C1561 1.382 . S
C1562 C1566 1.389 . S
C1563 C1561 1.426 . S
C1563 C1564 1.375 . S
C1563 C1567 1.532 . S
C1564 H1554 0.930 . S
C1564 C1563 1.375 . S
C1564 C1565 1.416 . S
C1565 C1564 1.416 . S
C1565 C1566 1.371 . S
C1566 H1555 0.930 . S
C1566 C1562 1.389 . S
C1566 C1565 1.371 . S
C1567 H1556 0.970 . S
C1567 H1557 0.970 . S
C1567 C1563 1.532 . S
C1567 C1568 1.499 . S
C1568 C1567 1.499 . S
C1568 C1569 1.370 . S
C1568 C1573 1.415 . S
C1569 H1558 0.930 . S
C1569 C1568 1.370 . S
C1569 C1570 1.407 . S
C1570 C1569 1.407 . S
C1570 C1571 1.365 . S
C1571 H1559 0.930 . S
C1571 C1570 1.365 . S
C1571 C1572 1.393 . S
C1572 C1571 1.393 . S
C1572 C1573 1.387 . S
C1573 H1560 0.930 . S
C1573 C1568 1.415 . S
C1573 C1572 1.387 . S
H1574 C1582 0.930 . S
H1575 C1585 0.930 . S
H1576 C1587 0.930 . S
H1577 C1588 0.970 . S
H1578 C1588 0.970 . S
H1579 C1590 0.930 . S
H1580 C1592 0.930 . S
H1581 C1594 0.930 . S
C1582 H1574 0.930 . S
C1582 C1583 1.382 . S
C1582 C1584 1.426 . S
C1583 C1582 1.382 . S
C1583 C1587 1.389 . S
C1584 C1582 1.426 . S
C1584 C1585 1.375 . S
C1584 C1588 1.532 . S
C1585 H1575 0.930 . S
C1585 C1584 1.375 . S
C1585 C1586 1.416 . S
C1586 C1585 1.416 . S
C1586 C1587 1.371 . S
C1587 H1576 0.930 . S
C1587 C1583 1.389 . S
C1587 C1586 1.371 . S
C1588 H1577 0.970 . S
C1588 H1578 0.970 . S
C1588 C1584 1.532 . S
C1588 C1589 1.499 . S
C1589 C1588 1.499 . S
C1589 C1590 1.370 . S
C1589 C1594 1.415 . S
C1590 H1579 0.930 . S
C1590 C1589 1.370 . S
C1590 C1591 1.407 . S
C1591 C1590 1.407 . S
C1591 C1592 1.365 . S
C1592 H1580 0.930 . S
C1592 C1591 1.365 . S
C1592 C1593 1.393 . S
C1593 C1592 1.393 . S
C1593 C1594 1.387 . S
C1594 H1581 0.930 . S
C1594 C1589 1.415 . S
C1594 C1593 1.387 . S
H1595 C1603 0.930 . S
H1596 C1606 0.930 . S
H1597 C1608 0.930 . S
H1598 C1609 0.970 . S
H1599 C1609 0.970 . S
H1600 C1611 0.930 . S
H1601 C1613 0.930 . S
H1602 C1615 0.930 . S
C1603 H1595 0.930 . S
C1603 C1604 1.382 . S
C1603 C1605 1.426 . S
C1604 C1603 1.382 . S
C1604 C1608 1.389 . S
C1605 C1603 1.426 . S
C1605 C1606 1.375 . S
C1605 C1609 1.532 . S
C1606 H1596 0.930 . S
C1606 C1605 1.375 . S
C1606 C1607 1.416 . S
C1607 C1606 1.416 . S
C1607 C1608 1.371 . S
C1608 H1597 0.930 . S
C1608 C1604 1.389 . S
C1608 C1607 1.371 . S
C1609 H1598 0.970 . S
C1609 H1599 0.970 . S
C1609 C1605 1.532 . S
C1609 C1610 1.499 . S
C1610 C1609 1.499 . S
C1610 C1611 1.370 . S
C1610 C1615 1.415 . S
C1611 H1600 0.930 . S
C1611 C1610 1.370 . S
C1611 C1612 1.407 . S
C1612 C1611 1.407 . S
C1612 C1613 1.365 . S
C1613 H1601 0.930 . S
C1613 C1612 1.365 . S
C1613 C1614 1.393 . S
C1614 C1613 1.393 . S
C1614 C1615 1.387 . S
C1615 H1602 0.930 . S
C1615 C1610 1.415 . S
C1615 C1614 1.387 . S
H1616 C1624 0.930 . S
H1617 C1627 0.930 . S
H1618 C1629 0.930 . S
H1619 C1630 0.970 . S
H1620 C1630 0.970 . S
H1621 C1632 0.930 . S
H1622 C1634 0.930 . S
H1623 C1636 0.930 . S
C1624 H1616 0.930 . S
C1624 C1625 1.382 . S
C1624 C1626 1.426 . S
C1625 C1624 1.382 . S
C1625 C1629 1.389 . S
C1626 C1624 1.426 . S
C1626 C1627 1.375 . S
C1626 C1630 1.532 . S
C1627 H1617 0.930 . S
C1627 C1626 1.375 . S
C1627 C1628 1.416 . S
C1628 C1627 1.416 . S
C1628 C1629 1.371 . S
C1629 H1618 0.930 . S
C1629 C1625 1.389 . S
C1629 C1628 1.371 . S
C1630 H1619 0.970 . S
C1630 H1620 0.970 . S
C1630 C1626 1.532 . S
C1630 C1631 1.499 . S
C1631 C1630 1.499 . S
C1631 C1632 1.370 . S
C1631 C1636 1.415 . S
C1632 H1621 0.930 . S
C1632 C1631 1.370 . S
C1632 C1633 1.407 . S
C1633 C1632 1.407 . S
C1633 C1634 1.365 . S
C1634 H1622 0.930 . S
C1634 C1633 1.365 . S
C1634 C1635 1.393 . S
C1635 C1634 1.393 . S
C1635 C1636 1.387 . S
C1636 H1623 0.930 . S
C1636 C1631 1.415 . S
C1636 C1635 1.387 . S
H1637 C1645 0.930 . S
H1638 C1648 0.930 . S
H1639 C1650 0.930 . S
H1640 C1651 0.970 . S
H1641 C1651 0.970 . S
H1642 C1653 0.930 . S
H1643 C1655 0.930 . S
H1644 C1657 0.930 . S
C1645 H1637 0.930 . S
C1645 C1646 1.382 . S
C1645 C1647 1.426 . S
C1646 C1645 1.382 . S
C1646 C1650 1.389 . S
C1647 C1645 1.426 . S
C1647 C1648 1.375 . S
C1647 C1651 1.532 . S
C1648 H1638 0.930 . S
C1648 C1647 1.375 . S
C1648 C1649 1.416 . S
C1649 C1648 1.416 . S
C1649 C1650 1.371 . S
C1650 H1639 0.930 . S
C1650 C1646 1.389 . S
C1650 C1649 1.371 . S
C1651 H1640 0.970 . S
C1651 H1641 0.970 . S
C1651 C1647 1.532 . S
C1651 C1652 1.499 . S
C1652 C1651 1.499 . S
C1652 C1653 1.370 . S
C1652 C1657 1.415 . S
C1653 H1642 0.930 . S
C1653 C1652 1.370 . S
C1653 C1654 1.407 . S
C1654 C1653 1.407 . S
C1654 C1655 1.365 . S
C1655 H1643 0.930 . S
C1655 C1654 1.365 . S
C1655 C1656 1.393 . S
C1656 C1655 1.393 . S
C1656 C1657 1.387 . S
C1657 H1644 0.930 . S
C1657 C1652 1.415 . S
C1657 C1656 1.387 . S
H1658 C1666 0.930 . S
H1659 C1669 0.930 . S
H1660 C1671 0.930 . S
H1661 C1672 0.970 . S
H1662 C1672 0.970 . S
H1663 C1674 0.930 . S
H1664 C1676 0.930 . S
H1665 C1678 0.930 . S
C1666 H1658 0.930 . S
C1666 C1667 1.382 . S
C1666 C1668 1.426 . S
C1667 C1666 1.382 . S
C1667 C1671 1.389 . S
C1668 C1666 1.426 . S
C1668 C1669 1.375 . S
C1668 C1672 1.532 . S
C1669 H1659 0.930 . S
C1669 C1668 1.375 . S
C1669 C1670 1.416 . S
C1670 C1669 1.416 . S
C1670 C1671 1.371 . S
C1671 H1660 0.930 . S
C1671 C1667 1.389 . S
C1671 C1670 1.371 . S
C1672 H1661 0.970 . S
C1672 H1662 0.970 . S
C1672 C1668 1.532 . S
C1672 C1673 1.499 . S
C1673 C1672 1.499 . S
C1673 C1674 1.370 . S
C1673 C1678 1.415 . S
C1674 H1663 0.930 . S
C1674 C1673 1.370 . S
C1674 C1675 1.407 . S
C1675 C1674 1.407 . S
C1675 C1676 1.365 . S
C1676 H1664 0.930 . S
C1676 C1675 1.365 . S
C1676 C1677 1.393 . S
C1677 C1676 1.393 . S
C1677 C1678 1.387 . S
C1678 H1665 0.930 . S
C1678 C1673 1.415 . S
C1678 C1677 1.387 . S
H1679 C1687 0.930 . S
H1680 C1690 0.930 . S
H1681 C1692 0.930 . S
H1682 C1693 0.970 . S
H1683 C1693 0.970 . S
H1684 C1695 0.930 . S
H1685 C1697 0.930 . S
H1686 C1699 0.930 . S
C1687 H1679 0.930 . S
C1687 C1688 1.382 . S
C1687 C1689 1.426 . S
C1688 C1687 1.382 . S
C1688 C1692 1.389 . S
C1689 C1687 1.426 . S
C1689 C1690 1.375 . S
C1689 C1693 1.532 . S
C1690 H1680 0.930 . S
C1690 C1689 1.375 . S
C1690 C1691 1.416 . S
C1691 C1690 1.416 . S
C1691 C1692 1.371 . S
C1692 H1681 0.930 . S
C1692 C1688 1.389 . S
C1692 C1691 1.371 . S
C1693 H1682 0.970 . S
C1693 H1683 0.970 . S
C1693 C1689 1.532 . S
C1693 C1694 1.499 . S
C1694 C1693 1.499 . S
C1694 C1695 1.370 . S
C1694 C1699 1.415 . S
C1695 H1684 0.930 . S
C1695 C1694 1.370 . S
C1695 C1696 1.407 . S
C1696 C1695 1.407 . S
C1696 C1697 1.365 . S
C1697 H1685 0.930 . S
C1697 C1696 1.365 . S
C1697 C1698 1.393 . S
C1698 C1697 1.393 . S
C1698 C1699 1.387 . S
C1699 H1686 0.930 . S
C1699 C1694 1.415 . S
C1699 C1698 1.387 . S
H1700 C1708 0.930 . S
H1701 C1711 0.930 . S
H1702 C1713 0.930 . S
H1703 C1714 0.970 . S
H1704 C1714 0.970 . S
H1705 C1716 0.930 . S
H1706 C1718 0.930 . S
H1707 C1720 0.930 . S
C1708 H1700 0.930 . S
C1708 C1709 1.382 . S
C1708 C1710 1.426 . S
C1709 C1708 1.382 . S
C1709 C1713 1.389 . S
C1710 C1708 1.426 . S
C1710 C1711 1.375 . S
C1710 C1714 1.532 . S
C1711 H1701 0.930 . S
C1711 C1710 1.375 . S
C1711 C1712 1.416 . S
C1712 C1711 1.416 . S
C1712 C1713 1.371 . S
C1713 H1702 0.930 . S
C1713 C1709 1.389 . S
C1713 C1712 1.371 . S
C1714 H1703 0.970 . S
C1714 H1704 0.970 . S
C1714 C1710 1.532 . S
C1714 C1715 1.499 . S
C1715 C1714 1.499 . S
C1715 C1716 1.370 . S
C1715 C1720 1.415 . S
C1716 H1705 0.930 . S
C1716 C1715 1.370 . S
C1716 C1717 1.407 . S
C1717 C1716 1.407 . S
C1717 C1718 1.365 . S
C1718 H1706 0.930 . S
C1718 C1717 1.365 . S
C1718 C1719 1.393 . S
C1719 C1718 1.393 . S
C1719 C1720 1.387 . S
C1720 H1707 0.930 . S
C1720 C1715 1.415 . S
C1720 C1719 1.387 . S
H1721 C1729 0.930 . S
H1722 C1732 0.930 . S
H1723 C1734 0.930 . S
H1724 C1735 0.970 . S
H1725 C1735 0.970 . S
H1726 C1737 0.930 . S
H1727 C1739 0.930 . S
H1728 C1741 0.930 . S
C1729 H1721 0.930 . S
C1729 C1730 1.382 . S
C1729 C1731 1.426 . S
C1730 C1729 1.382 . S
C1730 C1734 1.389 . S
C1731 C1729 1.426 . S
C1731 C1732 1.375 . S
C1731 C1735 1.532 . S
C1732 H1722 0.930 . S
C1732 C1731 1.375 . S
C1732 C1733 1.416 . S
C1733 C1732 1.416 . S
C1733 C1734 1.371 . S
C1734 H1723 0.930 . S
C1734 C1730 1.389 . S
C1734 C1733 1.371 . S
C1735 H1724 0.970 . S
C1735 H1725 0.970 . S
C1735 C1731 1.532 . S
C1735 C1736 1.499 . S
C1736 C1735 1.499 . S
C1736 C1737 1.370 . S
C1736 C1741 1.415 . S
C1737 H1726 0.930 . S
C1737 C1736 1.370 . S
C1737 C1738 1.407 . S
C1738 C1737 1.407 . S
C1738 C1739 1.365 . S
C1739 H1727 0.930 . S
C1739 C1738 1.365 . S
C1739 C1740 1.393 . S
C1740 C1739 1.393 . S
C1740 C1741 1.387 . S
C1741 H1728 0.930 . S
C1741 C1736 1.415 . S
C1741 C1740 1.387 . S
H1742 C1750 0.930 . S
H1743 C1753 0.930 . S
H1744 C1755 0.930 . S
H1745 C1756 0.970 . S
H1746 C1756 0.970 . S
H1747 C1758 0.930 . S
H1748 C1760 0.930 . S
H1749 C1762 0.930 . S
C1750 H1742 0.930 . S
C1750 C1751 1.382 . S
C1750 C1752 1.426 . S
C1751 C1750 1.382 . S
C1751 C1755 1.389 . S
C1752 C1750 1.426 . S
C1752 C1753 1.375 . S
C1752 C1756 1.532 . S
C1753 H1743 0.930 . S
C1753 C1752 1.375 . S
C1753 C1754 1.416 . S
C1754 C1753 1.416 . S
C1754 C1755 1.371 . S
C1755 H1744 0.930 . S
C1755 C1751 1.389 . S
C1755 C1754 1.371 . S
C1756 H1745 0.970 . S
C1756 H1746 0.970 . S
C1756 C1752 1.532 . S
C1756 C1757 1.499 . S
C1757 C1756 1.499 . S
C1757 C1758 1.370 . S
C1757 C1762 1.415 . S
C1758 H1747 0.930 . S
C1758 C1757 1.370 . S
C1758 C1759 1.407 . S
C1759 C1758 1.407 . S
C1759 C1760 1.365 . S
C1760 H1748 0.930 . S
C1760 C1759 1.365 . S
C1760 C1761 1.393 . S
C1761 C1760 1.393 . S
C1761 C1762 1.387 . S
C1762 H1749 0.930 . S
C1762 C1757 1.415 . S
C1762 C1761 1.387 . S
H1763 C1771 0.930 . S
H1764 C1774 0.930 . S
H1765 C1776 0.930 . S
H1766 C1777 0.970 . S
H1767 C1777 0.970 . S
H1768 C1779 0.930 . S
H1769 C1781 0.930 . S
H1770 C1783 0.930 . S
C1771 H1763 0.930 . S
C1771 C1772 1.382 . S
C1771 C1773 1.426 . S
C1772 C1771 1.382 . S
C1772 C1776 1.389 . S
C1773 C1771 1.426 . S
C1773 C1774 1.375 . S
C1773 C1777 1.532 . S
C1774 H1764 0.930 . S
C1774 C1773 1.375 . S
C1774 C1775 1.416 . S
C1775 C1774 1.416 . S
C1775 C1776 1.371 . S
C1776 H1765 0.930 . S
C1776 C1772 1.389 . S
C1776 C1775 1.371 . S
C1777 H1766 0.970 . S
C1777 H1767 0.970 . S
C1777 C1773 1.532 . S
C1777 C1778 1.499 . S
C1778 C1777 1.499 . S
C1778 C1779 1.370 . S
C1778 C1783 1.415 . S
C1779 H1768 0.930 . S
C1779 C1778 1.370 . S
C1779 C1780 1.407 . S
C1780 C1779 1.407 . S
C1780 C1781 1.365 . S
C1781 H1769 0.930 . S
C1781 C1780 1.365 . S
C1781 C1782 1.393 . S
C1782 C1781 1.393 . S
C1782 C1783 1.387 . S
C1783 H1770 0.930 . S
C1783 C1778 1.415 . S
C1783 C1782 1.387 . S
H1784 C1790 0.930 . S
H1785 C1794 0.930 . S
H1786 C1799 0.929 . S
H1787 C1797 0.929 . S
H1788 C1792 0.929 . S
H1789 C1798 0.929 . S
C1790 H1784 0.930 . S
C1790 C1791 1.367 . S
C1790 C1798 1.378 . S
C1791 C1790 1.367 . S
C1791 C1799 1.433 . S
C1792 H1788 0.929 . S
C1792 C1794 1.378 . S
C1792 C1796 1.350 . S
C1793 C1796 1.463 . S
C1793 C1798 1.350 . S
C1793 N1801 1.427 . S
C1794 H1785 0.930 . S
C1794 C1792 1.378 . S
C1794 C1795 1.367 . S
C1795 C1794 1.367 . S
C1795 C1797 1.433 . S
C1796 C1792 1.350 . S
C1796 C1793 1.463 . S
C1796 N1800 1.427 . S
C1797 H1787 0.929 . S
C1797 C1795 1.433 . S
C1797 N1800 1.384 . S
C1798 H1789 0.929 . S
C1798 C1790 1.378 . S
C1798 C1793 1.350 . S
C1799 H1786 0.929 . S
C1799 C1791 1.433 . S
C1799 N1801 1.384 . S
N1800 C1796 1.427 . S
N1800 C1797 1.384 . S
N1801 C1793 1.427 . S
N1801 C1799 1.384 . S
H1802 C1808 0.930 . S
H1803 C1812 0.930 . S
H1804 C1817 0.929 . S
H1805 C1815 0.929 . S
H1806 C1810 0.929 . S
H1807 C1816 0.929 . S
C1808 H1802 0.930 . S
C1808 C1809 1.367 . S
C1808 C1816 1.378 . S
C1809 C1808 1.367 . S
C1809 C1817 1.433 . S
C1810 H1806 0.929 . S
C1810 C1812 1.378 . S
C1810 C1814 1.350 . S
C1811 C1814 1.463 . S
C1811 C1816 1.350 . S
C1811 N1819 1.427 . S
C1812 H1803 0.930 . S
C1812 C1810 1.378 . S
C1812 C1813 1.367 . S
C1813 C1812 1.367 . S
C1813 C1815 1.433 . S
C1814 C1810 1.350 . S
C1814 C1811 1.463 . S
C1814 N1818 1.427 . S
C1815 H1805 0.929 . S
C1815 C1813 1.433 . S
C1815 N1818 1.384 . S
C1816 H1807 0.929 . S
C1816 C1808 1.378 . S
C1816 C1811 1.350 . S
C1817 H1804 0.929 . S
C1817 C1809 1.433 . S
C1817 N1819 1.384 . S
N1818 C1814 1.427 . S
N1818 C1815 1.384 . S
N1819 C1811 1.427 . S
N1819 C1817 1.384 . S
H1820 C1826 0.930 . S
H1821 C1830 0.930 . S
H1822 C1835 0.929 . S
H1823 C1833 0.929 . S
H1824 C1828 0.929 . S
H1825 C1834 0.929 . S
C1826 H1820 0.930 . S
C1826 C1827 1.367 . S
C1826 C1834 1.378 . S
C1827 C1826 1.367 . S
C1827 C1835 1.433 . S
C1828 H1824 0.929 . S
C1828 C1830 1.378 . S
C1828 C1832 1.350 . S
C1829 C1832 1.463 . S
C1829 C1834 1.350 . S
C1829 N1837 1.427 . S
C1830 H1821 0.930 . S
C1830 C1828 1.378 . S
C1830 C1831 1.367 . S
C1831 C1830 1.367 . S
C1831 C1833 1.433 . S
C1832 C1828 1.350 . S
C1832 C1829 1.463 . S
C1832 N1836 1.427 . S
C1833 H1823 0.929 . S
C1833 C1831 1.433 . S
C1833 N1836 1.384 . S
C1834 H1825 0.929 . S
C1834 C1826 1.378 . S
C1834 C1829 1.350 . S
C1835 H1822 0.929 . S
C1835 C1827 1.433 . S
C1835 N1837 1.384 . S
N1836 C1832 1.427 . S
N1836 C1833 1.384 . S
N1837 C1829 1.427 . S
N1837 C1835 1.384 . S
H1838 C1844 0.930 . S
H1839 C1848 0.930 . S
H1840 C1853 0.929 . S
H1841 C1851 0.929 . S
H1842 C1846 0.929 . S
H1843 C1852 0.929 . S
C1844 H1838 0.930 . S
C1844 C1845 1.367 . S
C1844 C1852 1.378 . S
C1845 C1844 1.367 . S
C1845 C1853 1.433 . S
C1846 H1842 0.929 . S
C1846 C1848 1.378 . S
C1846 C1850 1.350 . S
C1847 C1850 1.463 . S
C1847 C1852 1.350 . S
C1847 N1855 1.427 . S
C1848 H1839 0.930 . S
C1848 C1846 1.378 . S
C1848 C1849 1.367 . S
C1849 C1848 1.367 . S
C1849 C1851 1.433 . S
C1850 C1846 1.350 . S
C1850 C1847 1.463 . S
C1850 N1854 1.427 . S
C1851 H1841 0.929 . S
C1851 C1849 1.433 . S
C1851 N1854 1.384 . S
C1852 H1843 0.929 . S
C1852 C1844 1.378 . S
C1852 C1847 1.350 . S
C1853 H1840 0.929 . S
C1853 C1845 1.433 . S
C1853 N1855 1.384 . S
N1854 C1850 1.427 . S
N1854 C1851 1.384 . S
N1855 C1847 1.427 . S
N1855 C1853 1.384 . S
H1856 C1862 0.930 . S
H1857 C1866 0.930 . S
H1858 C1871 0.929 . S
H1859 C1869 0.929 . S
H1860 C1864 0.929 . S
H1861 C1870 0.929 . S
C1862 H1856 0.930 . S
C1862 C1863 1.367 . S
C1862 C1870 1.378 . S
C1863 C1862 1.367 . S
C1863 C1871 1.433 . S
C1864 H1860 0.929 . S
C1864 C1866 1.378 . S
C1864 C1868 1.350 . S
C1865 C1868 1.463 . S
C1865 C1870 1.350 . S
C1865 N1873 1.427 . S
C1866 H1857 0.930 . S
C1866 C1864 1.378 . S
C1866 C1867 1.367 . S
C1867 C1866 1.367 . S
C1867 C1869 1.433 . S
C1868 C1864 1.350 . S
C1868 C1865 1.463 . S
C1868 N1872 1.427 . S
C1869 H1859 0.929 . S
C1869 C1867 1.433 . S
C1869 N1872 1.384 . S
C1870 H1861 0.929 . S
C1870 C1862 1.378 . S
C1870 C1865 1.350 . S
C1871 H1858 0.929 . S
C1871 C1863 1.433 . S
C1871 N1873 1.384 . S
N1872 C1868 1.427 . S
N1872 C1869 1.384 . S
N1873 C1865 1.427 . S
N1873 C1871 1.384 . S
H1874 C1880 0.930 . S
H1875 C1884 0.930 . S
H1876 C1889 0.929 . S
H1877 C1887 0.929 . S
H1878 C1882 0.929 . S
H1879 C1888 0.929 . S
C1880 H1874 0.930 . S
C1880 C1881 1.367 . S
C1880 C1888 1.378 . S
C1881 C1880 1.367 . S
C1881 C1889 1.433 . S
C1882 H1878 0.929 . S
C1882 C1884 1.378 . S
C1882 C1886 1.350 . S
C1883 C1886 1.463 . S
C1883 C1888 1.350 . S
C1883 N1891 1.427 . S
C1884 H1875 0.930 . S
C1884 C1882 1.378 . S
C1884 C1885 1.367 . S
C1885 C1884 1.367 . S
C1885 C1887 1.433 . S
C1886 C1882 1.350 . S
C1886 C1883 1.463 . S
C1886 N1890 1.427 . S
C1887 H1877 0.929 . S
C1887 C1885 1.433 . S
C1887 N1890 1.384 . S
C1888 H1879 0.929 . S
C1888 C1880 1.378 . S
C1888 C1883 1.350 . S
C1889 H1876 0.929 . S
C1889 C1881 1.433 . S
C1889 N1891 1.384 . S
N1890 C1886 1.427 . S
N1890 C1887 1.384 . S
N1891 C1883 1.427 . S
N1891 C1889 1.384 . S
H1892 C1898 0.930 . S
H1893 C1902 0.930 . S
H1894 C1907 0.929 . S
H1895 C1905 0.929 . S
H1896 C1900 0.929 . S
H1897 C1906 0.929 . S
C1898 H1892 0.930 . S
C1898 C1899 1.367 . S
C1898 C1906 1.378 . S
C1899 C1898 1.367 . S
C1899 C1907 1.433 . S
C1900 H1896 0.929 . S
C1900 C1902 1.378 . S
C1900 C1904 1.350 . S
C1901 C1904 1.463 . S
C1901 C1906 1.350 . S
C1901 N1909 1.427 . S
C1902 H1893 0.930 . S
C1902 C1900 1.378 . S
C1902 C1903 1.367 . S
C1903 C1902 1.367 . S
C1903 C1905 1.433 . S
C1904 C1900 1.350 . S
C1904 C1901 1.463 . S
C1904 N1908 1.427 . S
C1905 H1895 0.929 . S
C1905 C1903 1.433 . S
C1905 N1908 1.384 . S
C1906 H1897 0.929 . S
C1906 C1898 1.378 . S
C1906 C1901 1.350 . S
C1907 H1894 0.929 . S
C1907 C1899 1.433 . S
C1907 N1909 1.384 . S
N1908 C1904 1.427 . S
N1908 C1905 1.384 . S
N1909 C1901 1.427 . S
N1909 C1907 1.384 . S
H1910 C1916 0.930 . S
H1911 C1920 0.930 . S
H1912 C1925 0.929 . S
H1913 C1923 0.929 . S
H1914 C1918 0.929 . S
H1915 C1924 0.929 . S
C1916 H1910 0.930 . S
C1916 C1917 1.367 . S
C1916 C1924 1.378 . S
C1917 C1916 1.367 . S
C1917 C1925 1.433 . S
C1918 H1914 0.929 . S
C1918 C1920 1.378 . S
C1918 C1922 1.350 . S
C1919 C1922 1.463 . S
C1919 C1924 1.350 . S
C1919 N1927 1.427 . S
C1920 H1911 0.930 . S
C1920 C1918 1.378 . S
C1920 C1921 1.367 . S
C1921 C1920 1.367 . S
C1921 C1923 1.433 . S
C1922 C1918 1.350 . S
C1922 C1919 1.463 . S
C1922 N1926 1.427 . S
C1923 H1913 0.929 . S
C1923 C1921 1.433 . S
C1923 N1926 1.384 . S
C1924 H1915 0.929 . S
C1924 C1916 1.378 . S
C1924 C1919 1.350 . S
C1925 H1912 0.929 . S
C1925 C1917 1.433 . S
C1925 N1927 1.384 . S
N1926 C1922 1.427 . S
N1926 C1923 1.384 . S
N1927 C1919 1.427 . S
N1927 C1925 1.384 . S
H1928 C1934 0.930 . S
H1929 C1938 0.930 . S
H1930 C1943 0.929 . S
H1931 C1941 0.929 . S
H1932 C1936 0.929 . S
H1933 C1942 0.929 . S
C1934 H1928 0.930 . S
C1934 C1935 1.367 . S
C1934 C1942 1.378 . S
C1935 C1934 1.367 . S
C1935 C1943 1.433 . S
C1936 H1932 0.929 . S
C1936 C1938 1.378 . S
C1936 C1940 1.350 . S
C1937 C1940 1.463 . S
C1937 C1942 1.350 . S
C1937 N1945 1.427 . S
C1938 H1929 0.930 . S
C1938 C1936 1.378 . S
C1938 C1939 1.367 . S
C1939 C1938 1.367 . S
C1939 C1941 1.433 . S
C1940 C1936 1.350 . S
C1940 C1937 1.463 . S
C1940 N1944 1.427 . S
C1941 H1931 0.929 . S
C1941 C1939 1.433 . S
C1941 N1944 1.384 . S
C1942 H1933 0.929 . S
C1942 C1934 1.378 . S
C1942 C1937 1.350 . S
C1943 H1930 0.929 . S
C1943 C1935 1.433 . S
C1943 N1945 1.384 . S
N1944 C1940 1.427 . S
N1944 C1941 1.384 . S
N1945 C1937 1.427 . S
N1945 C1943 1.384 . S
H1946 C1952 0.930 . S
H1947 C1956 0.930 . S
H1948 C1961 0.929 . S
H1949 C1959 0.929 . S
H1950 C1954 0.929 . S
H1951 C1960 0.929 . S
C1952 H1946 0.930 . S
C1952 C1953 1.367 . S
C1952 C1960 1.378 . S
C1953 C1952 1.367 . S
C1953 C1961 1.433 . S
C1954 H1950 0.929 . S
C1954 C1956 1.378 . S
C1954 C1958 1.350 . S
C1955 C1958 1.463 . S
C1955 C1960 1.350 . S
C1955 N1963 1.427 . S
C1956 H1947 0.930 . S
C1956 C1954 1.378 . S
C1956 C1957 1.367 . S
C1957 C1956 1.367 . S
C1957 C1959 1.433 . S
C1958 C1954 1.350 . S
C1958 C1955 1.463 . S
C1958 N1962 1.427 . S
C1959 H1949 0.929 . S
C1959 C1957 1.433 . S
C1959 N1962 1.384 . S
C1960 H1951 0.929 . S
C1960 C1952 1.378 . S
C1960 C1955 1.350 . S
C1961 H1948 0.929 . S
C1961 C1953 1.433 . S
C1961 N1963 1.384 . S
N1962 C1958 1.427 . S
N1962 C1959 1.384 . S
N1963 C1955 1.427 . S
N1963 C1961 1.384 . S
H1964 C1970 0.930 . S
H1965 C1974 0.930 . S
H1966 C1979 0.929 . S
H1967 C1977 0.929 . S
H1968 C1972 0.929 . S
H1969 C1978 0.929 . S
C1970 H1964 0.930 . S
C1970 C1971 1.367 . S
C1970 C1978 1.378 . S
C1971 C1970 1.367 . S
C1971 C1979 1.433 . S
C1972 H1968 0.929 . S
C1972 C1974 1.378 . S
C1972 C1976 1.350 . S
C1973 C1976 1.463 . S
C1973 C1978 1.350 . S
C1973 N1981 1.427 . S
C1974 H1965 0.930 . S
C1974 C1972 1.378 . S
C1974 C1975 1.367 . S
C1975 C1974 1.367 . S
C1975 C1977 1.433 . S
C1976 C1972 1.350 . S
C1976 C1973 1.463 . S
C1976 N1980 1.427 . S
C1977 H1967 0.929 . S
C1977 C1975 1.433 . S
C1977 N1980 1.384 . S
C1978 H1969 0.929 . S
C1978 C1970 1.378 . S
C1978 C1973 1.350 . S
C1979 H1966 0.929 . S
C1979 C1971 1.433 . S
C1979 N1981 1.384 . S
N1980 C1976 1.427 . S
N1980 C1977 1.384 . S
N1981 C1973 1.427 . S
N1981 C1979 1.384 . S
H1982 C1988 0.930 . S
H1983 C1992 0.930 . S
H1984 C1997 0.929 . S
H1985 C1995 0.929 . S
H1986 C1990 0.929 . S
H1987 C1996 0.929 . S
C1988 H1982 0.930 . S
C1988 C1989 1.367 . S
C1988 C1996 1.378 . S
C1989 C1988 1.367 . S
C1989 C1997 1.433 . S
C1990 H1986 0.929 . S
C1990 C1992 1.378 . S
C1990 C1994 1.350 . S
C1991 C1994 1.463 . S
C1991 C1996 1.350 . S
C1991 N1999 1.427 . S
C1992 H1983 0.930 . S
C1992 C1990 1.378 . S
C1992 C1993 1.367 . S
C1993 C1992 1.367 . S
C1993 C1995 1.433 . S
C1994 C1990 1.350 . S
C1994 C1991 1.463 . S
C1994 N1998 1.427 . S
C1995 H1985 0.929 . S
C1995 C1993 1.433 . S
C1995 N1998 1.384 . S
C1996 H1987 0.929 . S
C1996 C1988 1.378 . S
C1996 C1991 1.350 . S
C1997 H1984 0.929 . S
C1997 C1989 1.433 . S
C1997 N1999 1.384 . S
N1998 C1994 1.427 . S
N1998 C1995 1.384 . S
N1999 C1991 1.427 . S
N1999 C1997 1.384 . S
H2000 C2006 0.930 . S
H2001 C2010 0.930 . S
H2002 C2015 0.929 . S
H2003 C2013 0.929 . S
H2004 C2008 0.929 . S
H2005 C2014 0.929 . S
C2006 H2000 0.930 . S
C2006 C2007 1.367 . S
C2006 C2014 1.378 . S
C2007 C2006 1.367 . S
C2007 C2015 1.433 . S
C2008 H2004 0.929 . S
C2008 C2010 1.378 . S
C2008 C2012 1.350 . S
C2009 C2012 1.463 . S
C2009 C2014 1.350 . S
C2009 N2017 1.427 . S
C2010 H2001 0.930 . S
C2010 C2008 1.378 . S
C2010 C2011 1.367 . S
C2011 C2010 1.367 . S
C2011 C2013 1.433 . S
C2012 C2008 1.350 . S
C2012 C2009 1.463 . S
C2012 N2016 1.427 . S
C2013 H2003 0.929 . S
C2013 C2011 1.433 . S
C2013 N2016 1.384 . S
C2014 H2005 0.929 . S
C2014 C2006 1.378 . S
C2014 C2009 1.350 . S
C2015 H2002 0.929 . S
C2015 C2007 1.433 . S
C2015 N2017 1.384 . S
N2016 C2012 1.427 . S
N2016 C2013 1.384 . S
N2017 C2009 1.427 . S
N2017 C2015 1.384 . S
H2018 C2024 0.930 . S
H2019 C2028 0.930 . S
H2020 C2033 0.929 . S
H2021 C2031 0.929 . S
H2022 C2026 0.929 . S
H2023 C2032 0.929 . S
C2024 H2018 0.930 . S
C2024 C2025 1.367 . S
C2024 C2032 1.378 . S
C2025 C2024 1.367 . S
C2025 C2033 1.433 . S
C2026 H2022 0.929 . S
C2026 C2028 1.378 . S
C2026 C2030 1.350 . S
C2027 C2030 1.463 . S
C2027 C2032 1.350 . S
C2027 N2035 1.427 . S
C2028 H2019 0.930 . S
C2028 C2026 1.378 . S
C2028 C2029 1.367 . S
C2029 C2028 1.367 . S
C2029 C2031 1.433 . S
C2030 C2026 1.350 . S
C2030 C2027 1.463 . S
C2030 N2034 1.427 . S
C2031 H2021 0.929 . S
C2031 C2029 1.433 . S
C2031 N2034 1.384 . S
C2032 H2023 0.929 . S
C2032 C2024 1.378 . S
C2032 C2027 1.350 . S
C2033 H2020 0.929 . S
C2033 C2025 1.433 . S
C2033 N2035 1.384 . S
N2034 C2030 1.427 . S
N2034 C2031 1.384 . S
N2035 C2027 1.427 . S
N2035 C2033 1.384 . S
H2036 C2042 0.930 . S
H2037 C2046 0.930 . S
H2038 C2051 0.929 . S
H2039 C2049 0.929 . S
H2040 C2044 0.929 . S
H2041 C2050 0.929 . S
C2042 H2036 0.930 . S
C2042 C2043 1.367 . S
C2042 C2050 1.378 . S
C2043 C2042 1.367 . S
C2043 C2051 1.433 . S
C2044 H2040 0.929 . S
C2044 C2046 1.378 . S
C2044 C2048 1.350 . S
C2045 C2048 1.463 . S
C2045 C2050 1.350 . S
C2045 N2053 1.427 . S
C2046 H2037 0.930 . S
C2046 C2044 1.378 . S
C2046 C2047 1.367 . S
C2047 C2046 1.367 . S
C2047 C2049 1.433 . S
C2048 C2044 1.350 . S
C2048 C2045 1.463 . S
C2048 N2052 1.427 . S
C2049 H2039 0.929 . S
C2049 C2047 1.433 . S
C2049 N2052 1.384 . S
C2050 H2041 0.929 . S
C2050 C2042 1.378 . S
C2050 C2045 1.350 . S
C2051 H2038 0.929 . S
C2051 C2043 1.433 . S
C2051 N2053 1.384 . S
N2052 C2048 1.427 . S
N2052 C2049 1.384 . S
N2053 C2045 1.427 . S
N2053 C2051 1.384 . S
H2054 C2060 0.930 . S
H2055 C2064 0.930 . S
H2056 C2069 0.929 . S
H2057 C2067 0.929 . S
H2058 C2062 0.929 . S
H2059 C2068 0.929 . S
C2060 H2054 0.930 . S
C2060 C2061 1.367 . S
C2060 C2068 1.378 . S
C2061 C2060 1.367 . S
C2061 C2069 1.433 . S
C2062 H2058 0.929 . S
C2062 C2064 1.378 . S
C2062 C2066 1.350 . S
C2063 C2066 1.463 . S
C2063 C2068 1.350 . S
C2063 N2071 1.427 . S
C2064 H2055 0.930 . S
C2064 C2062 1.378 . S
C2064 C2065 1.367 . S
C2065 C2064 1.367 . S
C2065 C2067 1.433 . S
C2066 C2062 1.350 . S
C2066 C2063 1.463 . S
C2066 N2070 1.427 . S
C2067 H2057 0.929 . S
C2067 C2065 1.433 . S
C2067 N2070 1.384 . S
C2068 H2059 0.929 . S
C2068 C2060 1.378 . S
C2068 C2063 1.350 . S
C2069 H2056 0.929 . S
C2069 C2061 1.433 . S
C2069 N2071 1.384 . S
N2070 C2066 1.427 . S
N2070 C2067 1.384 . S
N2071 C2063 1.427 . S
N2071 C2069 1.384 . S
H2072 C2078 0.930 . S
H2073 C2082 0.930 . S
H2074 C2087 0.929 . S
H2075 C2085 0.929 . S
H2076 C2080 0.929 . S
H2077 C2086 0.929 . S
C2078 H2072 0.930 . S
C2078 C2079 1.367 . S
C2078 C2086 1.378 . S
C2079 C2078 1.367 . S
C2079 C2087 1.433 . S
C2080 H2076 0.929 . S
C2080 C2082 1.378 . S
C2080 C2084 1.350 . S
C2081 C2084 1.463 . S
C2081 C2086 1.350 . S
C2081 N2089 1.427 . S
C2082 H2073 0.930 . S
C2082 C2080 1.378 . S
C2082 C2083 1.367 . S
C2083 C2082 1.367 . S
C2083 C2085 1.433 . S
C2084 C2080 1.350 . S
C2084 C2081 1.463 . S
C2084 N2088 1.427 . S
C2085 H2075 0.929 . S
C2085 C2083 1.433 . S
C2085 N2088 1.384 . S
C2086 H2077 0.929 . S
C2086 C2078 1.378 . S
C2086 C2081 1.350 . S
C2087 H2074 0.929 . S
C2087 C2079 1.433 . S
C2087 N2089 1.384 . S
N2088 C2084 1.427 . S
N2088 C2085 1.384 . S
N2089 C2081 1.427 . S
N2089 C2087 1.384 . S
H2090 C2096 0.930 . S
H2091 C2100 0.930 . S
H2092 C2105 0.929 . S
H2093 C2103 0.929 . S
H2094 C2098 0.929 . S
H2095 C2104 0.929 . S
C2096 H2090 0.930 . S
C2096 C2097 1.367 . S
C2096 C2104 1.378 . S
C2097 C2096 1.367 . S
C2097 C2105 1.433 . S
C2098 H2094 0.929 . S
C2098 C2100 1.378 . S
C2098 C2102 1.350 . S
C2099 C2102 1.463 . S
C2099 C2104 1.350 . S
C2099 N2107 1.427 . S
C2100 H2091 0.930 . S
C2100 C2098 1.378 . S
C2100 C2101 1.367 . S
C2101 C2100 1.367 . S
C2101 C2103 1.433 . S
C2102 C2098 1.350 . S
C2102 C2099 1.463 . S
C2102 N2106 1.427 . S
C2103 H2093 0.929 . S
C2103 C2101 1.433 . S
C2103 N2106 1.384 . S
C2104 H2095 0.929 . S
C2104 C2096 1.378 . S
C2104 C2099 1.350 . S
C2105 H2092 0.929 . S
C2105 C2097 1.433 . S
C2105 N2107 1.384 . S
N2106 C2102 1.427 . S
N2106 C2103 1.384 . S
N2107 C2099 1.427 . S
N2107 C2105 1.384 . S
H2108 C2114 0.930 . S
H2109 C2118 0.930 . S
H2110 C2123 0.929 . S
H2111 C2121 0.929 . S
H2112 C2116 0.929 . S
H2113 C2122 0.929 . S
C2114 H2108 0.930 . S
C2114 C2115 1.367 . S
C2114 C2122 1.378 . S
C2115 C2114 1.367 . S
C2115 C2123 1.433 . S
C2116 H2112 0.929 . S
C2116 C2118 1.378 . S
C2116 C2120 1.350 . S
C2117 C2120 1.463 . S
C2117 C2122 1.350 . S
C2117 N2125 1.427 . S
C2118 H2109 0.930 . S
C2118 C2116 1.378 . S
C2118 C2119 1.367 . S
C2119 C2118 1.367 . S
C2119 C2121 1.433 . S
C2120 C2116 1.350 . S
C2120 C2117 1.463 . S
C2120 N2124 1.427 . S
C2121 H2111 0.929 . S
C2121 C2119 1.433 . S
C2121 N2124 1.384 . S
C2122 H2113 0.929 . S
C2122 C2114 1.378 . S
C2122 C2117 1.350 . S
C2123 H2110 0.929 . S
C2123 C2115 1.433 . S
C2123 N2125 1.384 . S
N2124 C2120 1.427 . S
N2124 C2121 1.384 . S
N2125 C2117 1.427 . S
N2125 C2123 1.384 . S
H2126 C2132 0.930 . S
H2127 C2136 0.930 . S
H2128 C2141 0.929 . S
H2129 C2139 0.929 . S
H2130 C2134 0.929 . S
H2131 C2140 0.929 . S
C2132 H2126 0.930 . S
C2132 C2133 1.367 . S
C2132 C2140 1.378 . S
C2133 C2132 1.367 . S
C2133 C2141 1.433 . S
C2134 H2130 0.929 . S
C2134 C2136 1.378 . S
C2134 C2138 1.350 . S
C2135 C2138 1.463 . S
C2135 C2140 1.350 . S
C2135 N2143 1.427 . S
C2136 H2127 0.930 . S
C2136 C2134 1.378 . S
C2136 C2137 1.367 . S
C2137 C2136 1.367 . S
C2137 C2139 1.433 . S
C2138 C2134 1.350 . S
C2138 C2135 1.463 . S
C2138 N2142 1.427 . S
C2139 H2129 0.929 . S
C2139 C2137 1.433 . S
C2139 N2142 1.384 . S
C2140 H2131 0.929 . S
C2140 C2132 1.378 . S
C2140 C2135 1.350 . S
C2141 H2128 0.929 . S
C2141 C2133 1.433 . S
C2141 N2143 1.384 . S
N2142 C2138 1.427 . S
N2142 C2139 1.384 . S
N2143 C2135 1.427 . S
N2143 C2141 1.384 . S
H2144 C2150 0.930 . S
H2145 C2154 0.930 . S
H2146 C2159 0.929 . S
H2147 C2157 0.929 . S
H2148 C2152 0.929 . S
H2149 C2158 0.929 . S
C2150 H2144 0.930 . S
C2150 C2151 1.367 . S
C2150 C2158 1.378 . S
C2151 C2150 1.367 . S
C2151 C2159 1.433 . S
C2152 H2148 0.929 . S
C2152 C2154 1.378 . S
C2152 C2156 1.350 . S
C2153 C2156 1.463 . S
C2153 C2158 1.350 . S
C2153 N2161 1.427 . S
C2154 H2145 0.930 . S
C2154 C2152 1.378 . S
C2154 C2155 1.367 . S
C2155 C2154 1.367 . S
C2155 C2157 1.433 . S
C2156 C2152 1.350 . S
C2156 C2153 1.463 . S
C2156 N2160 1.427 . S
C2157 H2147 0.929 . S
C2157 C2155 1.433 . S
C2157 N2160 1.384 . S
C2158 H2149 0.929 . S
C2158 C2150 1.378 . S
C2158 C2153 1.350 . S
C2159 H2146 0.929 . S
C2159 C2151 1.433 . S
C2159 N2161 1.384 . S
N2160 C2156 1.427 . S
N2160 C2157 1.384 . S
N2161 C2153 1.427 . S
N2161 C2159 1.384 . S
H2162 C2168 0.930 . S
H2163 C2172 0.930 . S
H2164 C2177 0.929 . S
H2165 C2175 0.929 . S
H2166 C2170 0.929 . S
H2167 C2176 0.929 . S
C2168 H2162 0.930 . S
C2168 C2169 1.367 . S
C2168 C2176 1.378 . S
C2169 C2168 1.367 . S
C2169 C2177 1.433 . S
C2170 H2166 0.929 . S
C2170 C2172 1.378 . S
C2170 C2174 1.350 . S
C2171 C2174 1.463 . S
C2171 C2176 1.350 . S
C2171 N2179 1.427 . S
C2172 H2163 0.930 . S
C2172 C2170 1.378 . S
C2172 C2173 1.367 . S
C2173 C2172 1.367 . S
C2173 C2175 1.433 . S
C2174 C2170 1.350 . S
C2174 C2171 1.463 . S
C2174 N2178 1.427 . S
C2175 H2165 0.929 . S
C2175 C2173 1.433 . S
C2175 N2178 1.384 . S
C2176 H2167 0.929 . S
C2176 C2168 1.378 . S
C2176 C2171 1.350 . S
C2177 H2164 0.929 . S
C2177 C2169 1.433 . S
C2177 N2179 1.384 . S
N2178 C2174 1.427 . S
N2178 C2175 1.384 . S
N2179 C2171 1.427 . S
N2179 C2177 1.384 . S
H2180 C2186 0.930 . S
H2181 C2190 0.930 . S
H2182 C2195 0.929 . S
H2183 C2193 0.929 . S
H2184 C2188 0.929 . S
H2185 C2194 0.929 . S
C2186 H2180 0.930 . S
C2186 C2187 1.367 . S
C2186 C2194 1.378 . S
C2187 C2186 1.367 . S
C2187 C2195 1.433 . S
C2188 H2184 0.929 . S
C2188 C2190 1.378 . S
C2188 C2192 1.350 . S
C2189 C2192 1.463 . S
C2189 C2194 1.350 . S
C2189 N2197 1.427 . S
C2190 H2181 0.930 . S
C2190 C2188 1.378 . S
C2190 C2191 1.367 . S
C2191 C2190 1.367 . S
C2191 C2193 1.433 . S
C2192 C2188 1.350 . S
C2192 C2189 1.463 . S
C2192 N2196 1.427 . S
C2193 H2183 0.929 . S
C2193 C2191 1.433 . S
C2193 N2196 1.384 . S
C2194 H2185 0.929 . S
C2194 C2186 1.378 . S
C2194 C2189 1.350 . S
C2195 H2182 0.929 . S
C2195 C2187 1.433 . S
C2195 N2197 1.384 . S
N2196 C2192 1.427 . S
N2196 C2193 1.384 . S
N2197 C2189 1.427 . S
N2197 C2195 1.384 . S
H2198 C2204 0.930 . S
H2199 C2208 0.930 . S
H2200 C2213 0.929 . S
H2201 C2211 0.929 . S
H2202 C2206 0.929 . S
H2203 C2212 0.929 . S
C2204 H2198 0.930 . S
C2204 C2205 1.367 . S
C2204 C2212 1.378 . S
C2205 C2204 1.367 . S
C2205 C2213 1.433 . S
C2206 H2202 0.929 . S
C2206 C2208 1.378 . S
C2206 C2210 1.350 . S
C2207 C2210 1.463 . S
C2207 C2212 1.350 . S
C2207 N2215 1.427 . S
C2208 H2199 0.930 . S
C2208 C2206 1.378 . S
C2208 C2209 1.367 . S
C2209 C2208 1.367 . S
C2209 C2211 1.433 . S
C2210 C2206 1.350 . S
C2210 C2207 1.463 . S
C2210 N2214 1.427 . S
C2211 H2201 0.929 . S
C2211 C2209 1.433 . S
C2211 N2214 1.384 . S
C2212 H2203 0.929 . S
C2212 C2204 1.378 . S
C2212 C2207 1.350 . S
C2213 H2200 0.929 . S
C2213 C2205 1.433 . S
C2213 N2215 1.384 . S
N2214 C2210 1.427 . S
N2214 C2211 1.384 . S
N2215 C2207 1.427 . S
N2215 C2213 1.384 . S
H2216 C2222 0.930 . S
H2217 C2226 0.930 . S
H2218 C2231 0.929 . S
H2219 C2229 0.929 . S
H2220 C2224 0.929 . S
H2221 C2230 0.929 . S
C2222 H2216 0.930 . S
C2222 C2223 1.367 . S
C2222 C2230 1.378 . S
C2223 C2222 1.367 . S
C2223 C2231 1.433 . S
C2224 H2220 0.929 . S
C2224 C2226 1.378 . S
C2224 C2228 1.350 . S
C2225 C2228 1.463 . S
C2225 C2230 1.350 . S
C2225 N2233 1.427 . S
C2226 H2217 0.930 . S
C2226 C2224 1.378 . S
C2226 C2227 1.367 . S
C2227 C2226 1.367 . S
C2227 C2229 1.433 . S
C2228 C2224 1.350 . S
C2228 C2225 1.463 . S
C2228 N2232 1.427 . S
C2229 H2219 0.929 . S
C2229 C2227 1.433 . S
C2229 N2232 1.384 . S
C2230 H2221 0.929 . S
C2230 C2222 1.378 . S
C2230 C2225 1.350 . S
C2231 H2218 0.929 . S
C2231 C2223 1.433 . S
C2231 N2233 1.384 . S
N2232 C2228 1.427 . S
N2232 C2229 1.384 . S
N2233 C2225 1.427 . S
N2233 C2231 1.384 . S
H2234 C2240 0.930 . S
H2235 C2244 0.930 . S
H2236 C2249 0.929 . S
H2237 C2247 0.929 . S
H2238 C2242 0.929 . S
H2239 C2248 0.929 . S
C2240 H2234 0.930 . S
C2240 C2241 1.367 . S
C2240 C2248 1.378 . S
C2241 C2240 1.367 . S
C2241 C2249 1.433 . S
C2242 H2238 0.929 . S
C2242 C2244 1.378 . S
C2242 C2246 1.350 . S
C2243 C2246 1.463 . S
C2243 C2248 1.350 . S
C2243 N2251 1.427 . S
C2244 H2235 0.930 . S
C2244 C2242 1.378 . S
C2244 C2245 1.367 . S
C2245 C2244 1.367 . S
C2245 C2247 1.433 . S
C2246 C2242 1.350 . S
C2246 C2243 1.463 . S
C2246 N2250 1.427 . S
C2247 H2237 0.929 . S
C2247 C2245 1.433 . S
C2247 N2250 1.384 . S
C2248 H2239 0.929 . S
C2248 C2240 1.378 . S
C2248 C2243 1.350 . S
C2249 H2236 0.929 . S
C2249 C2241 1.433 . S
C2249 N2251 1.384 . S
N2250 C2246 1.427 . S
N2250 C2247 1.384 . S
N2251 C2243 1.427 . S
N2251 C2249 1.384 . S
H2252 C2258 0.930 . S
H2253 C2262 0.930 . S
H2254 C2267 0.929 . S
H2255 C2265 0.929 . S
H2256 C2260 0.929 . S
H2257 C2266 0.929 . S
C2258 H2252 0.930 . S
C2258 C2259 1.367 . S
C2258 C2266 1.378 . S
C2259 C2258 1.367 . S
C2259 C2267 1.433 . S
C2260 H2256 0.929 . S
C2260 C2262 1.378 . S
C2260 C2264 1.350 . S
C2261 C2264 1.463 . S
C2261 C2266 1.350 . S
C2261 N2269 1.427 . S
C2262 H2253 0.930 . S
C2262 C2260 1.378 . S
C2262 C2263 1.367 . S
C2263 C2262 1.367 . S
C2263 C2265 1.433 . S
C2264 C2260 1.350 . S
C2264 C2261 1.463 . S
C2264 N2268 1.427 . S
C2265 H2255 0.929 . S
C2265 C2263 1.433 . S
C2265 N2268 1.384 . S
C2266 H2257 0.929 . S
C2266 C2258 1.378 . S
C2266 C2261 1.350 . S
C2267 H2254 0.929 . S
C2267 C2259 1.433 . S
C2267 N2269 1.384 . S
N2268 C2264 1.427 . S
N2268 C2265 1.384 . S
N2269 C2261 1.427 . S
N2269 C2267 1.384 . S
H2270 C2276 0.930 . S
H2271 C2280 0.930 . S
H2272 C2285 0.929 . S
H2273 C2283 0.929 . S
H2274 C2278 0.929 . S
H2275 C2284 0.929 . S
C2276 H2270 0.930 . S
C2276 C2277 1.367 . S
C2276 C2284 1.378 . S
C2277 C2276 1.367 . S
C2277 C2285 1.433 . S
C2278 H2274 0.929 . S
C2278 C2280 1.378 . S
C2278 C2282 1.350 . S
C2279 C2282 1.463 . S
C2279 C2284 1.350 . S
C2279 N2287 1.427 . S
C2280 H2271 0.930 . S
C2280 C2278 1.378 . S
C2280 C2281 1.367 . S
C2281 C2280 1.367 . S
C2281 C2283 1.433 . S
C2282 C2278 1.350 . S
C2282 C2279 1.463 . S
C2282 N2286 1.427 . S
C2283 H2273 0.929 . S
C2283 C2281 1.433 . S
C2283 N2286 1.384 . S
C2284 H2275 0.929 . S
C2284 C2276 1.378 . S
C2284 C2279 1.350 . S
C2285 H2272 0.929 . S
C2285 C2277 1.433 . S
C2285 N2287 1.384 . S
N2286 C2282 1.427 . S
N2286 C2283 1.384 . S
N2287 C2279 1.427 . S
N2287 C2285 1.384 . S
H2288 C2294 0.930 . S
H2289 C2298 0.930 . S
H2290 C2303 0.929 . S
H2291 C2301 0.929 . S
H2292 C2296 0.929 . S
H2293 C2302 0.929 . S
C2294 H2288 0.930 . S
C2294 C2295 1.367 . S
C2294 C2302 1.378 . S
C2295 C2294 1.367 . S
C2295 C2303 1.433 . S
C2296 H2292 0.929 . S
C2296 C2298 1.378 . S
C2296 C2300 1.350 . S
C2297 C2300 1.463 . S
C2297 C2302 1.350 . S
C2297 N2305 1.427 . S
C2298 H2289 0.930 . S
C2298 C2296 1.378 . S
C2298 C2299 1.367 . S
C2299 C2298 1.367 . S
C2299 C2301 1.433 . S
C2300 C2296 1.350 . S
C2300 C2297 1.463 . S
C2300 N2304 1.427 . S
C2301 H2291 0.929 . S
C2301 C2299 1.433 . S
C2301 N2304 1.384 . S
C2302 H2293 0.929 . S
C2302 C2294 1.378 . S
C2302 C2297 1.350 . S
C2303 H2290 0.929 . S
C2303 C2295 1.433 . S
C2303 N2305 1.384 . S
N2304 C2300 1.427 . S
N2304 C2301 1.384 . S
N2305 C2297 1.427 . S
N2305 C2303 1.384 . S
H2306 C2312 0.930 . S
H2307 C2316 0.930 . S
H2308 C2321 0.929 . S
H2309 C2319 0.929 . S
H2310 C2314 0.929 . S
H2311 C2320 0.929 . S
C2312 H2306 0.930 . S
C2312 C2313 1.367 . S
C2312 C2320 1.378 . S
C2313 C2312 1.367 . S
C2313 C2321 1.433 . S
C2314 H2310 0.929 . S
C2314 C2316 1.378 . S
C2314 C2318 1.350 . S
C2315 C2318 1.463 . S
C2315 C2320 1.350 . S
C2315 N2323 1.427 . S
C2316 H2307 0.930 . S
C2316 C2314 1.378 . S
C2316 C2317 1.367 . S
C2317 C2316 1.367 . S
C2317 C2319 1.433 . S
C2318 C2314 1.350 . S
C2318 C2315 1.463 . S
C2318 N2322 1.427 . S
C2319 H2309 0.929 . S
C2319 C2317 1.433 . S
C2319 N2322 1.384 . S
C2320 H2311 0.929 . S
C2320 C2312 1.378 . S
C2320 C2315 1.350 . S
C2321 H2308 0.929 . S
C2321 C2313 1.433 . S
C2321 N2323 1.384 . S
N2322 C2318 1.427 . S
N2322 C2319 1.384 . S
N2323 C2315 1.427 . S
N2323 C2321 1.384 . S
H2324 C2330 0.930 . S
H2325 C2334 0.930 . S
H2326 C2339 0.929 . S
H2327 C2337 0.929 . S
H2328 C2332 0.929 . S
H2329 C2338 0.929 . S
C2330 H2324 0.930 . S
C2330 C2331 1.367 . S
C2330 C2338 1.378 . S
C2331 C2330 1.367 . S
C2331 C2339 1.433 . S
C2332 H2328 0.929 . S
C2332 C2334 1.378 . S
C2332 C2336 1.350 . S
C2333 C2336 1.463 . S
C2333 C2338 1.350 . S
C2333 N2341 1.427 . S
C2334 H2325 0.930 . S
C2334 C2332 1.378 . S
C2334 C2335 1.367 . S
C2335 C2334 1.367 . S
C2335 C2337 1.433 . S
C2336 C2332 1.350 . S
C2336 C2333 1.463 . S
C2336 N2340 1.427 . S
C2337 H2327 0.929 . S
C2337 C2335 1.433 . S
C2337 N2340 1.384 . S
C2338 H2329 0.929 . S
C2338 C2330 1.378 . S
C2338 C2333 1.350 . S
C2339 H2326 0.929 . S
C2339 C2331 1.433 . S
C2339 N2341 1.384 . S
N2340 C2336 1.427 . S
N2340 C2337 1.384 . S
N2341 C2333 1.427 . S
N2341 C2339 1.384 . S
H2342 C2348 0.930 . S
H2343 C2352 0.930 . S
H2344 C2357 0.929 . S
H2345 C2355 0.929 . S
H2346 C2350 0.929 . S
H2347 C2356 0.929 . S
C2348 H2342 0.930 . S
C2348 C2349 1.367 . S
C2348 C2356 1.378 . S
C2349 C2348 1.367 . S
C2349 C2357 1.433 . S
C2350 H2346 0.929 . S
C2350 C2352 1.378 . S
C2350 C2354 1.350 . S
C2351 C2354 1.463 . S
C2351 C2356 1.350 . S
C2351 N2359 1.427 . S
C2352 H2343 0.930 . S
C2352 C2350 1.378 . S
C2352 C2353 1.367 . S
C2353 C2352 1.367 . S
C2353 C2355 1.433 . S
C2354 C2350 1.350 . S
C2354 C2351 1.463 . S
C2354 N2358 1.427 . S
C2355 H2345 0.929 . S
C2355 C2353 1.433 . S
C2355 N2358 1.384 . S
C2356 H2347 0.929 . S
C2356 C2348 1.378 . S
C2356 C2351 1.350 . S
C2357 H2344 0.929 . S
C2357 C2349 1.433 . S
C2357 N2359 1.384 . S
N2358 C2354 1.427 . S
N2358 C2355 1.384 . S
N2359 C2351 1.427 . S
N2359 C2357 1.384 . S
H2360 C2366 0.930 . S
H2361 C2370 0.930 . S
H2362 C2375 0.929 . S
H2363 C2373 0.929 . S
H2364 C2368 0.929 . S
H2365 C2374 0.929 . S
C2366 H2360 0.930 . S
C2366 C2367 1.367 . S
C2366 C2374 1.378 . S
C2367 C2366 1.367 . S
C2367 C2375 1.433 . S
C2368 H2364 0.929 . S
C2368 C2370 1.378 . S
C2368 C2372 1.350 . S
C2369 C2372 1.463 . S
C2369 C2374 1.350 . S
C2369 N2377 1.427 . S
C2370 H2361 0.930 . S
C2370 C2368 1.378 . S
C2370 C2371 1.367 . S
C2371 C2370 1.367 . S
C2371 C2373 1.433 . S
C2372 C2368 1.350 . S
C2372 C2369 1.463 . S
C2372 N2376 1.427 . S
C2373 H2363 0.929 . S
C2373 C2371 1.433 . S
C2373 N2376 1.384 . S
C2374 H2365 0.929 . S
C2374 C2366 1.378 . S
C2374 C2369 1.350 . S
C2375 H2362 0.929 . S
C2375 C2367 1.433 . S
C2375 N2377 1.384 . S
N2376 C2372 1.427 . S
N2376 C2373 1.384 . S
N2377 C2369 1.427 . S
N2377 C2375 1.384 . S
H2378 C2384 0.930 . S
H2379 C2388 0.930 . S
H2380 C2393 0.929 . S
H2381 C2391 0.929 . S
H2382 C2386 0.929 . S
H2383 C2392 0.929 . S
C2384 H2378 0.930 . S
C2384 C2385 1.367 . S
C2384 C2392 1.378 . S
C2385 C2384 1.367 . S
C2385 C2393 1.433 . S
C2386 H2382 0.929 . S
C2386 C2388 1.378 . S
C2386 C2390 1.350 . S
C2387 C2390 1.463 . S
C2387 C2392 1.350 . S
C2387 N2395 1.427 . S
C2388 H2379 0.930 . S
C2388 C2386 1.378 . S
C2388 C2389 1.367 . S
C2389 C2388 1.367 . S
C2389 C2391 1.433 . S
C2390 C2386 1.350 . S
C2390 C2387 1.463 . S
C2390 N2394 1.427 . S
C2391 H2381 0.929 . S
C2391 C2389 1.433 . S
C2391 N2394 1.384 . S
C2392 H2383 0.929 . S
C2392 C2384 1.378 . S
C2392 C2387 1.350 . S
C2393 H2380 0.929 . S
C2393 C2385 1.433 . S
C2393 N2395 1.384 . S
N2394 C2390 1.427 . S
N2394 C2391 1.384 . S
N2395 C2387 1.427 . S
N2395 C2393 1.384 . S
H2396 C2402 0.930 . S
H2397 C2406 0.930 . S
H2398 C2411 0.929 . S
H2399 C2409 0.929 . S
H2400 C2404 0.929 . S
H2401 C2410 0.929 . S
C2402 H2396 0.930 . S
C2402 C2403 1.367 . S
C2402 C2410 1.378 . S
C2403 C2402 1.367 . S
C2403 C2411 1.433 . S
C2404 H2400 0.929 . S
C2404 C2406 1.378 . S
C2404 C2408 1.350 . S
C2405 C2408 1.463 . S
C2405 C2410 1.350 . S
C2405 N2413 1.427 . S
C2406 H2397 0.930 . S
C2406 C2404 1.378 . S
C2406 C2407 1.367 . S
C2407 C2406 1.367 . S
C2407 C2409 1.433 . S
C2408 C2404 1.350 . S
C2408 C2405 1.463 . S
C2408 N2412 1.427 . S
C2409 H2399 0.929 . S
C2409 C2407 1.433 . S
C2409 N2412 1.384 . S
C2410 H2401 0.929 . S
C2410 C2402 1.378 . S
C2410 C2405 1.350 . S
C2411 H2398 0.929 . S
C2411 C2403 1.433 . S
C2411 N2413 1.384 . S
N2412 C2408 1.427 . S
N2412 C2409 1.384 . S
N2413 C2405 1.427 . S
N2413 C2411 1.384 . S
H2414 C2420 0.930 . S
H2415 C2424 0.930 . S
H2416 C2429 0.929 . S
H2417 C2427 0.929 . S
H2418 C2422 0.929 . S
H2419 C2428 0.929 . S
C2420 H2414 0.930 . S
C2420 C2421 1.367 . S
C2420 C2428 1.378 . S
C2421 C2420 1.367 . S
C2421 C2429 1.433 . S
C2422 H2418 0.929 . S
C2422 C2424 1.378 . S
C2422 C2426 1.350 . S
C2423 C2426 1.463 . S
C2423 C2428 1.350 . S
C2423 N2431 1.427 . S
C2424 H2415 0.930 . S
C2424 C2422 1.378 . S
C2424 C2425 1.367 . S
C2425 C2424 1.367 . S
C2425 C2427 1.433 . S
C2426 C2422 1.350 . S
C2426 C2423 1.463 . S
C2426 N2430 1.427 . S
C2427 H2417 0.929 . S
C2427 C2425 1.433 . S
C2427 N2430 1.384 . S
C2428 H2419 0.929 . S
C2428 C2420 1.378 . S
C2428 C2423 1.350 . S
C2429 H2416 0.929 . S
C2429 C2421 1.433 . S
C2429 N2431 1.384 . S
N2430 C2426 1.427 . S
N2430 C2427 1.384 . S
N2431 C2423 1.427 . S
N2431 C2429 1.384 . S
H2432 C2438 0.930 . S
H2433 C2442 0.930 . S
H2434 C2447 0.929 . S
H2435 C2445 0.929 . S
H2436 C2440 0.929 . S
H2437 C2446 0.929 . S
C2438 H2432 0.930 . S
C2438 C2439 1.367 . S
C2438 C2446 1.378 . S
C2439 C2438 1.367 . S
C2439 C2447 1.433 . S
C2440 H2436 0.929 . S
C2440 C2442 1.378 . S
C2440 C2444 1.350 . S
C2441 C2444 1.463 . S
C2441 C2446 1.350 . S
C2441 N2449 1.427 . S
C2442 H2433 0.930 . S
C2442 C2440 1.378 . S
C2442 C2443 1.367 . S
C2443 C2442 1.367 . S
C2443 C2445 1.433 . S
C2444 C2440 1.350 . S
C2444 C2441 1.463 . S
C2444 N2448 1.427 . S
C2445 H2435 0.929 . S
C2445 C2443 1.433 . S
C2445 N2448 1.384 . S
C2446 H2437 0.929 . S
C2446 C2438 1.378 . S
C2446 C2441 1.350 . S
C2447 H2434 0.929 . S
C2447 C2439 1.433 . S
C2447 N2449 1.384 . S
N2448 C2444 1.427 . S
N2448 C2445 1.384 . S
N2449 C2441 1.427 . S
N2449 C2447 1.384 . S
H2450 C2456 0.930 . S
H2451 C2460 0.930 . S
H2452 C2465 0.929 . S
H2453 C2463 0.929 . S
H2454 C2458 0.929 . S
H2455 C2464 0.929 . S
C2456 H2450 0.930 . S
C2456 C2457 1.367 . S
C2456 C2464 1.378 . S
C2457 C2456 1.367 . S
C2457 C2465 1.433 . S
C2458 H2454 0.929 . S
C2458 C2460 1.378 . S
C2458 C2462 1.350 . S
C2459 C2462 1.463 . S
C2459 C2464 1.350 . S
C2459 N2467 1.427 . S
C2460 H2451 0.930 . S
C2460 C2458 1.378 . S
C2460 C2461 1.367 . S
C2461 C2460 1.367 . S
C2461 C2463 1.433 . S
C2462 C2458 1.350 . S
C2462 C2459 1.463 . S
C2462 N2466 1.427 . S
C2463 H2453 0.929 . S
C2463 C2461 1.433 . S
C2463 N2466 1.384 . S
C2464 H2455 0.929 . S
C2464 C2456 1.378 . S
C2464 C2459 1.350 . S
C2465 H2452 0.929 . S
C2465 C2457 1.433 . S
C2465 N2467 1.384 . S
N2466 C2462 1.427 . S
N2466 C2463 1.384 . S
N2467 C2459 1.427 . S
N2467 C2465 1.384 . S
H2468 C2474 0.930 . S
H2469 C2478 0.930 . S
H2470 C2483 0.929 . S
H2471 C2481 0.929 . S
H2472 C2476 0.929 . S
H2473 C2482 0.929 . S
C2474 H2468 0.930 . S
C2474 C2475 1.367 . S
C2474 C2482 1.378 . S
C2475 C2474 1.367 . S
C2475 C2483 1.433 . S
C2476 H2472 0.929 . S
C2476 C2478 1.378 . S
C2476 C2480 1.350 . S
C2477 C2480 1.463 . S
C2477 C2482 1.350 . S
C2477 N2485 1.427 . S
C2478 H2469 0.930 . S
C2478 C2476 1.378 . S
C2478 C2479 1.367 . S
C2479 C2478 1.367 . S
C2479 C2481 1.433 . S
C2480 C2476 1.350 . S
C2480 C2477 1.463 . S
C2480 N2484 1.427 . S
C2481 H2471 0.929 . S
C2481 C2479 1.433 . S
C2481 N2484 1.384 . S
C2482 H2473 0.929 . S
C2482 C2474 1.378 . S
C2482 C2477 1.350 . S
C2483 H2470 0.929 . S
C2483 C2475 1.433 . S
C2483 N2485 1.384 . S
N2484 C2480 1.427 . S
N2484 C2481 1.384 . S
N2485 C2477 1.427 . S
N2485 C2483 1.384 . S
H2486 C2492 0.930 . S
H2487 C2496 0.930 . S
H2488 C2501 0.929 . S
H2489 C2499 0.929 . S
H2490 C2494 0.929 . S
H2491 C2500 0.929 . S
C2492 H2486 0.930 . S
C2492 C2493 1.367 . S
C2492 C2500 1.378 . S
C2493 C2492 1.367 . S
C2493 C2501 1.433 . S
C2494 H2490 0.929 . S
C2494 C2496 1.378 . S
C2494 C2498 1.350 . S
C2495 C2498 1.463 . S
C2495 C2500 1.350 . S
C2495 N2503 1.427 . S
C2496 H2487 0.930 . S
C2496 C2494 1.378 . S
C2496 C2497 1.367 . S
C2497 C2496 1.367 . S
C2497 C2499 1.433 . S
C2498 C2494 1.350 . S
C2498 C2495 1.463 . S
C2498 N2502 1.427 . S
C2499 H2489 0.929 . S
C2499 C2497 1.433 . S
C2499 N2502 1.384 . S
C2500 H2491 0.929 . S
C2500 C2492 1.378 . S
C2500 C2495 1.350 . S
C2501 H2488 0.929 . S
C2501 C2493 1.433 . S
C2501 N2503 1.384 . S
N2502 C2498 1.427 . S
N2502 C2499 1.384 . S
N2503 C2495 1.427 . S
N2503 C2501 1.384 . S
H2504 C2510 0.930 . S
H2505 C2514 0.930 . S
H2506 C2519 0.929 . S
H2507 C2517 0.929 . S
H2508 C2512 0.929 . S
H2509 C2518 0.929 . S
C2510 H2504 0.930 . S
C2510 C2511 1.367 . S
C2510 C2518 1.378 . S
C2511 C2510 1.367 . S
C2511 C2519 1.433 . S
C2512 H2508 0.929 . S
C2512 C2514 1.378 . S
C2512 C2516 1.350 . S
C2513 C2516 1.463 . S
C2513 C2518 1.350 . S
C2513 N2521 1.427 . S
C2514 H2505 0.930 . S
C2514 C2512 1.378 . S
C2514 C2515 1.367 . S
C2515 C2514 1.367 . S
C2515 C2517 1.433 . S
C2516 C2512 1.350 . S
C2516 C2513 1.463 . S
C2516 N2520 1.427 . S
C2517 H2507 0.929 . S
C2517 C2515 1.433 . S
C2517 N2520 1.384 . S
C2518 H2509 0.929 . S
C2518 C2510 1.378 . S
C2518 C2513 1.350 . S
C2519 H2506 0.929 . S
C2519 C2511 1.433 . S
C2519 N2521 1.384 . S
N2520 C2516 1.427 . S
N2520 C2517 1.384 . S
N2521 C2513 1.427 . S
N2521 C2519 1.384 . S
H2522 C2528 0.930 . S
H2523 C2532 0.930 . S
H2524 C2537 0.929 . S
H2525 C2535 0.929 . S
H2526 C2530 0.929 . S
H2527 C2536 0.929 . S
C2528 H2522 0.930 . S
C2528 C2529 1.367 . S
C2528 C2536 1.378 . S
C2529 C2528 1.367 . S
C2529 C2537 1.433 . S
C2530 H2526 0.929 . S
C2530 C2532 1.378 . S
C2530 C2534 1.350 . S
C2531 C2534 1.463 . S
C2531 C2536 1.350 . S
C2531 N2539 1.427 . S
C2532 H2523 0.930 . S
C2532 C2530 1.378 . S
C2532 C2533 1.367 . S
C2533 C2532 1.367 . S
C2533 C2535 1.433 . S
C2534 C2530 1.350 . S
C2534 C2531 1.463 . S
C2534 N2538 1.427 . S
C2535 H2525 0.929 . S
C2535 C2533 1.433 . S
C2535 N2538 1.384 . S
C2536 H2527 0.929 . S
C2536 C2528 1.378 . S
C2536 C2531 1.350 . S
C2537 H2524 0.929 . S
C2537 C2529 1.433 . S
C2537 N2539 1.384 . S
N2538 C2534 1.427 . S
N2538 C2535 1.384 . S
N2539 C2531 1.427 . S
N2539 C2537 1.384 . S
H2540 C2546 0.930 . S
H2541 C2550 0.930 . S
H2542 C2555 0.929 . S
H2543 C2553 0.929 . S
H2544 C2548 0.929 . S
H2545 C2554 0.929 . S
C2546 H2540 0.930 . S
C2546 C2547 1.367 . S
C2546 C2554 1.378 . S
C2547 C2546 1.367 . S
C2547 C2555 1.433 . S
C2548 H2544 0.929 . S
C2548 C2550 1.378 . S
C2548 C2552 1.350 . S
C2549 C2552 1.463 . S
C2549 C2554 1.350 . S
C2549 N2557 1.427 . S
C2550 H2541 0.930 . S
C2550 C2548 1.378 . S
C2550 C2551 1.367 . S
C2551 C2550 1.367 . S
C2551 C2553 1.433 . S
C2552 C2548 1.350 . S
C2552 C2549 1.463 . S
C2552 N2556 1.427 . S
C2553 H2543 0.929 . S
C2553 C2551 1.433 . S
C2553 N2556 1.384 . S
C2554 H2545 0.929 . S
C2554 C2546 1.378 . S
C2554 C2549 1.350 . S
C2555 H2542 0.929 . S
C2555 C2547 1.433 . S
C2555 N2557 1.384 . S
N2556 C2552 1.427 . S
N2556 C2553 1.384 . S
N2557 C2549 1.427 . S
N2557 C2555 1.384 . S
H2558 C2564 0.930 . S
H2559 C2568 0.930 . S
H2560 C2573 0.929 . S
H2561 C2571 0.929 . S
H2562 C2566 0.929 . S
H2563 C2572 0.929 . S
C2564 H2558 0.930 . S
C2564 C2565 1.367 . S
C2564 C2572 1.378 . S
C2565 C2564 1.367 . S
C2565 C2573 1.433 . S
C2566 H2562 0.929 . S
C2566 C2568 1.378 . S
C2566 C2570 1.350 . S
C2567 C2570 1.463 . S
C2567 C2572 1.350 . S
C2567 N2575 1.427 . S
C2568 H2559 0.930 . S
C2568 C2566 1.378 . S
C2568 C2569 1.367 . S
C2569 C2568 1.367 . S
C2569 C2571 1.433 . S
C2570 C2566 1.350 . S
C2570 C2567 1.463 . S
C2570 N2574 1.427 . S
C2571 H2561 0.929 . S
C2571 C2569 1.433 . S
C2571 N2574 1.384 . S
C2572 H2563 0.929 . S
C2572 C2564 1.378 . S
C2572 C2567 1.350 . S
C2573 H2560 0.929 . S
C2573 C2565 1.433 . S
C2573 N2575 1.384 . S
N2574 C2570 1.427 . S
N2574 C2571 1.384 . S
N2575 C2567 1.427 . S
N2575 C2573 1.384 . S
H2576 C2582 0.930 . S
H2577 C2586 0.930 . S
H2578 C2591 0.929 . S
H2579 C2589 0.929 . S
H2580 C2584 0.929 . S
H2581 C2590 0.929 . S
C2582 H2576 0.930 . S
C2582 C2583 1.367 . S
C2582 C2590 1.378 . S
C2583 C2582 1.367 . S
C2583 C2591 1.433 . S
C2584 H2580 0.929 . S
C2584 C2586 1.378 . S
C2584 C2588 1.350 . S
C2585 C2588 1.463 . S
C2585 C2590 1.350 . S
C2585 N2593 1.427 . S
C2586 H2577 0.930 . S
C2586 C2584 1.378 . S
C2586 C2587 1.367 . S
C2587 C2586 1.367 . S
C2587 C2589 1.433 . S
C2588 C2584 1.350 . S
C2588 C2585 1.463 . S
C2588 N2592 1.427 . S
C2589 H2579 0.929 . S
C2589 C2587 1.433 . S
C2589 N2592 1.384 . S
C2590 H2581 0.929 . S
C2590 C2582 1.378 . S
C2590 C2585 1.350 . S
C2591 H2578 0.929 . S
C2591 C2583 1.433 . S
C2591 N2593 1.384 . S
N2592 C2588 1.427 . S
N2592 C2589 1.384 . S
N2593 C2585 1.427 . S
N2593 C2591 1.384 . S
H2594 C2600 0.930 . S
H2595 C2604 0.930 . S
H2596 C2609 0.929 . S
H2597 C2607 0.929 . S
H2598 C2602 0.929 . S
H2599 C2608 0.929 . S
C2600 H2594 0.930 . S
C2600 C2601 1.367 . S
C2600 C2608 1.378 . S
C2601 C2600 1.367 . S
C2601 C2609 1.433 . S
C2602 H2598 0.929 . S
C2602 C2604 1.378 . S
C2602 C2606 1.350 . S
C2603 C2606 1.463 . S
C2603 C2608 1.350 . S
C2603 N2611 1.427 . S
C2604 H2595 0.930 . S
C2604 C2602 1.378 . S
C2604 C2605 1.367 . S
C2605 C2604 1.367 . S
C2605 C2607 1.433 . S
C2606 C2602 1.350 . S
C2606 C2603 1.463 . S
C2606 N2610 1.427 . S
C2607 H2597 0.929 . S
C2607 C2605 1.433 . S
C2607 N2610 1.384 . S
C2608 H2599 0.929 . S
C2608 C2600 1.378 . S
C2608 C2603 1.350 . S
C2609 H2596 0.929 . S
C2609 C2601 1.433 . S
C2609 N2611 1.384 . S
N2610 C2606 1.427 . S
N2610 C2607 1.384 . S
N2611 C2603 1.427 . S
N2611 C2609 1.384 . S
H2612 C2618 0.930 . S
H2613 C2622 0.930 . S
H2614 C2627 0.929 . S
H2615 C2625 0.929 . S
H2616 C2620 0.929 . S
H2617 C2626 0.929 . S
C2618 H2612 0.930 . S
C2618 C2619 1.367 . S
C2618 C2626 1.378 . S
C2619 C2618 1.367 . S
C2619 C2627 1.433 . S
C2620 H2616 0.929 . S
C2620 C2622 1.378 . S
C2620 C2624 1.350 . S
C2621 C2624 1.463 . S
C2621 C2626 1.350 . S
C2621 N2629 1.427 . S
C2622 H2613 0.930 . S
C2622 C2620 1.378 . S
C2622 C2623 1.367 . S
C2623 C2622 1.367 . S
C2623 C2625 1.433 . S
C2624 C2620 1.350 . S
C2624 C2621 1.463 . S
C2624 N2628 1.427 . S
C2625 H2615 0.929 . S
C2625 C2623 1.433 . S
C2625 N2628 1.384 . S
C2626 H2617 0.929 . S
C2626 C2618 1.378 . S
C2626 C2621 1.350 . S
C2627 H2614 0.929 . S
C2627 C2619 1.433 . S
C2627 N2629 1.384 . S
N2628 C2624 1.427 . S
N2628 C2625 1.384 . S
N2629 C2621 1.427 . S
N2629 C2627 1.384 . S
H2630 C2636 0.930 . S
H2631 C2640 0.930 . S
H2632 C2645 0.929 . S
H2633 C2643 0.929 . S
H2634 C2638 0.929 . S
H2635 C2644 0.929 . S
C2636 H2630 0.930 . S
C2636 C2637 1.367 . S
C2636 C2644 1.378 . S
C2637 C2636 1.367 . S
C2637 C2645 1.433 . S
C2638 H2634 0.929 . S
C2638 C2640 1.378 . S
C2638 C2642 1.350 . S
C2639 C2642 1.463 . S
C2639 C2644 1.350 . S
C2639 N2647 1.427 . S
C2640 H2631 0.930 . S
C2640 C2638 1.378 . S
C2640 C2641 1.367 . S
C2641 C2640 1.367 . S
C2641 C2643 1.433 . S
C2642 C2638 1.350 . S
C2642 C2639 1.463 . S
C2642 N2646 1.427 . S
C2643 H2633 0.929 . S
C2643 C2641 1.433 . S
C2643 N2646 1.384 . S
C2644 H2635 0.929 . S
C2644 C2636 1.378 . S
C2644 C2639 1.350 . S
C2645 H2632 0.929 . S
C2645 C2637 1.433 . S
C2645 N2647 1.384 . S
N2646 C2642 1.427 . S
N2646 C2643 1.384 . S
N2647 C2639 1.427 . S
N2647 C2645 1.384 . S
H2648 C2654 0.930 . S
H2649 C2658 0.930 . S
H2650 C2663 0.929 . S
H2651 C2661 0.929 . S
H2652 C2656 0.929 . S
H2653 C2662 0.929 . S
C2654 H2648 0.930 . S
C2654 C2655 1.367 . S
C2654 C2662 1.378 . S
C2655 C2654 1.367 . S
C2655 C2663 1.433 . S
C2656 H2652 0.929 . S
C2656 C2658 1.378 . S
C2656 C2660 1.350 . S
C2657 C2660 1.463 . S
C2657 C2662 1.350 . S
C2657 N2665 1.427 . S
C2658 H2649 0.930 . S
C2658 C2656 1.378 . S
C2658 C2659 1.367 . S
C2659 C2658 1.367 . S
C2659 C2661 1.433 . S
C2660 C2656 1.350 . S
C2660 C2657 1.463 . S
C2660 N2664 1.427 . S
C2661 H2651 0.929 . S
C2661 C2659 1.433 . S
C2661 N2664 1.384 . S
C2662 H2653 0.929 . S
C2662 C2654 1.378 . S
C2662 C2657 1.350 . S
C2663 H2650 0.929 . S
C2663 C2655 1.433 . S
C2663 N2665 1.384 . S
N2664 C2660 1.427 . S
N2664 C2661 1.384 . S
N2665 C2657 1.427 . S
N2665 C2663 1.384 . S
H2666 C2672 0.930 . S
H2667 C2676 0.930 . S
H2668 C2681 0.929 . S
H2669 C2679 0.929 . S
H2670 C2674 0.929 . S
H2671 C2680 0.929 . S
C2672 H2666 0.930 . S
C2672 C2673 1.367 . S
C2672 C2680 1.378 . S
C2673 C2672 1.367 . S
C2673 C2681 1.433 . S
C2674 H2670 0.929 . S
C2674 C2676 1.378 . S
C2674 C2678 1.350 . S
C2675 C2678 1.463 . S
C2675 C2680 1.350 . S
C2675 N2683 1.427 . S
C2676 H2667 0.930 . S
C2676 C2674 1.378 . S
C2676 C2677 1.367 . S
C2677 C2676 1.367 . S
C2677 C2679 1.433 . S
C2678 C2674 1.350 . S
C2678 C2675 1.463 . S
C2678 N2682 1.427 . S
C2679 H2669 0.929 . S
C2679 C2677 1.433 . S
C2679 N2682 1.384 . S
C2680 H2671 0.929 . S
C2680 C2672 1.378 . S
C2680 C2675 1.350 . S
C2681 H2668 0.929 . S
C2681 C2673 1.433 . S
C2681 N2683 1.384 . S
N2682 C2678 1.427 . S
N2682 C2679 1.384 . S
N2683 C2675 1.427 . S
N2683 C2681 1.384 . S
H2684 C2690 0.930 . S
H2685 C2694 0.930 . S
H2686 C2699 0.929 . S
H2687 C2697 0.929 . S
H2688 C2692 0.929 . S
H2689 C2698 0.929 . S
C2690 H2684 0.930 . S
C2690 C2691 1.367 . S
C2690 C2698 1.378 . S
C2691 C2690 1.367 . S
C2691 C2699 1.433 . S
C2692 H2688 0.929 . S
C2692 C2694 1.378 . S
C2692 C2696 1.350 . S
C2693 C2696 1.463 . S
C2693 C2698 1.350 . S
C2693 N2701 1.427 . S
C2694 H2685 0.930 . S
C2694 C2692 1.378 . S
C2694 C2695 1.367 . S
C2695 C2694 1.367 . S
C2695 C2697 1.433 . S
C2696 C2692 1.350 . S
C2696 C2693 1.463 . S
C2696 N2700 1.427 . S
C2697 H2687 0.929 . S
C2697 C2695 1.433 . S
C2697 N2700 1.384 . S
C2698 H2689 0.929 . S
C2698 C2690 1.378 . S
C2698 C2693 1.350 . S
C2699 H2686 0.929 . S
C2699 C2691 1.433 . S
C2699 N2701 1.384 . S
N2700 C2696 1.427 . S
N2700 C2697 1.384 . S
N2701 C2693 1.427 . S
N2701 C2699 1.384 . S
H2702 C2708 0.930 . S
H2703 C2712 0.930 . S
H2704 C2717 0.929 . S
H2705 C2715 0.929 . S
H2706 C2710 0.929 . S
H2707 C2716 0.929 . S
C2708 H2702 0.930 . S
C2708 C2709 1.367 . S
C2708 C2716 1.378 . S
C2709 C2708 1.367 . S
C2709 C2717 1.433 . S
C2710 H2706 0.929 . S
C2710 C2712 1.378 . S
C2710 C2714 1.350 . S
C2711 C2714 1.463 . S
C2711 C2716 1.350 . S
C2711 N2719 1.427 . S
C2712 H2703 0.930 . S
C2712 C2710 1.378 . S
C2712 C2713 1.367 . S
C2713 C2712 1.367 . S
C2713 C2715 1.433 . S
C2714 C2710 1.350 . S
C2714 C2711 1.463 . S
C2714 N2718 1.427 . S
C2715 H2705 0.929 . S
C2715 C2713 1.433 . S
C2715 N2718 1.384 . S
C2716 H2707 0.929 . S
C2716 C2708 1.378 . S
C2716 C2711 1.350 . S
C2717 H2704 0.929 . S
C2717 C2709 1.433 . S
C2717 N2719 1.384 . S
N2718 C2714 1.427 . S
N2718 C2715 1.384 . S
N2719 C2711 1.427 . S
N2719 C2717 1.384 . S
H2720 C2726 0.930 . S
H2721 C2730 0.930 . S
H2722 C2735 0.929 . S
H2723 C2733 0.929 . S
H2724 C2728 0.929 . S
H2725 C2734 0.929 . S
C2726 H2720 0.930 . S
C2726 C2727 1.367 . S
C2726 C2734 1.378 . S
C2727 C2726 1.367 . S
C2727 C2735 1.433 . S
C2728 H2724 0.929 . S
C2728 C2730 1.378 . S
C2728 C2732 1.350 . S
C2729 C2732 1.463 . S
C2729 C2734 1.350 . S
C2729 N2737 1.427 . S
C2730 H2721 0.930 . S
C2730 C2728 1.378 . S
C2730 C2731 1.367 . S
C2731 C2730 1.367 . S
C2731 C2733 1.433 . S
C2732 C2728 1.350 . S
C2732 C2729 1.463 . S
C2732 N2736 1.427 . S
C2733 H2723 0.929 . S
C2733 C2731 1.433 . S
C2733 N2736 1.384 . S
C2734 H2725 0.929 . S
C2734 C2726 1.378 . S
C2734 C2729 1.350 . S
C2735 H2722 0.929 . S
C2735 C2727 1.433 . S
C2735 N2737 1.384 . S
N2736 C2732 1.427 . S
N2736 C2733 1.384 . S
N2737 C2729 1.427 . S
N2737 C2735 1.384 . S
H2738 C2744 0.930 . S
H2739 C2748 0.930 . S
H2740 C2753 0.929 . S
H2741 C2751 0.929 . S
H2742 C2746 0.929 . S
H2743 C2752 0.929 . S
C2744 H2738 0.930 . S
C2744 C2745 1.367 . S
C2744 C2752 1.378 . S
C2745 C2744 1.367 . S
C2745 C2753 1.433 . S
C2746 H2742 0.929 . S
C2746 C2748 1.378 . S
C2746 C2750 1.350 . S
C2747 C2750 1.463 . S
C2747 C2752 1.350 . S
C2747 N2755 1.427 . S
C2748 H2739 0.930 . S
C2748 C2746 1.378 . S
C2748 C2749 1.367 . S
C2749 C2748 1.367 . S
C2749 C2751 1.433 . S
C2750 C2746 1.350 . S
C2750 C2747 1.463 . S
C2750 N2754 1.427 . S
C2751 H2741 0.929 . S
C2751 C2749 1.433 . S
C2751 N2754 1.384 . S
C2752 H2743 0.929 . S
C2752 C2744 1.378 . S
C2752 C2747 1.350 . S
C2753 H2740 0.929 . S
C2753 C2745 1.433 . S
C2753 N2755 1.384 . S
N2754 C2750 1.427 . S
N2754 C2751 1.384 . S
N2755 C2747 1.427 . S
N2755 C2753 1.384 . S
H2756 C2762 0.930 . S
H2757 C2766 0.930 . S
H2758 C2771 0.929 . S
H2759 C2769 0.929 . S
H2760 C2764 0.929 . S
H2761 C2770 0.929 . S
C2762 H2756 0.930 . S
C2762 C2763 1.367 . S
C2762 C2770 1.378 . S
C2763 C2762 1.367 . S
C2763 C2771 1.433 . S
C2764 H2760 0.929 . S
C2764 C2766 1.378 . S
C2764 C2768 1.350 . S
C2765 C2768 1.463 . S
C2765 C2770 1.350 . S
C2765 N2773 1.427 . S
C2766 H2757 0.930 . S
C2766 C2764 1.378 . S
C2766 C2767 1.367 . S
C2767 C2766 1.367 . S
C2767 C2769 1.433 . S
C2768 C2764 1.350 . S
C2768 C2765 1.463 . S
C2768 N2772 1.427 . S
C2769 H2759 0.929 . S
C2769 C2767 1.433 . S
C2769 N2772 1.384 . S
C2770 H2761 0.929 . S
C2770 C2762 1.378 . S
C2770 C2765 1.350 . S
C2771 H2758 0.929 . S
C2771 C2763 1.433 . S
C2771 N2773 1.384 . S
N2772 C2768 1.427 . S
N2772 C2769 1.384 . S
N2773 C2765 1.427 . S
N2773 C2771 1.384 . S
H2774 C2780 0.930 . S
H2775 C2784 0.930 . S
H2776 C2789 0.929 . S
H2777 C2787 0.929 . S
H2778 C2782 0.929 . S
H2779 C2788 0.929 . S
C2780 H2774 0.930 . S
C2780 C2781 1.367 . S
C2780 C2788 1.378 . S
C2781 C2780 1.367 . S
C2781 C2789 1.433 . S
C2782 H2778 0.929 . S
C2782 C2784 1.378 . S
C2782 C2786 1.350 . S
C2783 C2786 1.463 . S
C2783 C2788 1.350 . S
C2783 N2791 1.427 . S
C2784 H2775 0.930 . S
C2784 C2782 1.378 . S
C2784 C2785 1.367 . S
C2785 C2784 1.367 . S
C2785 C2787 1.433 . S
C2786 C2782 1.350 . S
C2786 C2783 1.463 . S
C2786 N2790 1.427 . S
C2787 H2777 0.929 . S
C2787 C2785 1.433 . S
C2787 N2790 1.384 . S
C2788 H2779 0.929 . S
C2788 C2780 1.378 . S
C2788 C2783 1.350 . S
C2789 H2776 0.929 . S
C2789 C2781 1.433 . S
C2789 N2791 1.384 . S
N2790 C2786 1.427 . S
N2790 C2787 1.384 . S
N2791 C2783 1.427 . S
N2791 C2789 1.384 . S
H2792 C2798 0.930 . S
H2793 C2802 0.930 . S
H2794 C2807 0.929 . S
H2795 C2805 0.929 . S
H2796 C2800 0.929 . S
H2797 C2806 0.929 . S
C2798 H2792 0.930 . S
C2798 C2799 1.367 . S
C2798 C2806 1.378 . S
C2799 C2798 1.367 . S
C2799 C2807 1.433 . S
C2800 H2796 0.929 . S
C2800 C2802 1.378 . S
C2800 C2804 1.350 . S
C2801 C2804 1.463 . S
C2801 C2806 1.350 . S
C2801 N2809 1.427 . S
C2802 H2793 0.930 . S
C2802 C2800 1.378 . S
C2802 C2803 1.367 . S
C2803 C2802 1.367 . S
C2803 C2805 1.433 . S
C2804 C2800 1.350 . S
C2804 C2801 1.463 . S
C2804 N2808 1.427 . S
C2805 H2795 0.929 . S
C2805 C2803 1.433 . S
C2805 N2808 1.384 . S
C2806 H2797 0.929 . S
C2806 C2798 1.378 . S
C2806 C2801 1.350 . S
C2807 H2794 0.929 . S
C2807 C2799 1.433 . S
C2807 N2809 1.384 . S
N2808 C2804 1.427 . S
N2808 C2805 1.384 . S
N2809 C2801 1.427 . S
N2809 C2807 1.384 . S
H2810 C2816 0.930 . S
H2811 C2820 0.930 . S
H2812 C2825 0.929 . S
H2813 C2823 0.929 . S
H2814 C2818 0.929 . S
H2815 C2824 0.929 . S
C2816 H2810 0.930 . S
C2816 C2817 1.367 . S
C2816 C2824 1.378 . S
C2817 C2816 1.367 . S
C2817 C2825 1.433 . S
C2818 H2814 0.929 . S
C2818 C2820 1.378 . S
C2818 C2822 1.350 . S
C2819 C2822 1.463 . S
C2819 C2824 1.350 . S
C2819 N2827 1.427 . S
C2820 H2811 0.930 . S
C2820 C2818 1.378 . S
C2820 C2821 1.367 . S
C2821 C2820 1.367 . S
C2821 C2823 1.433 . S
C2822 C2818 1.350 . S
C2822 C2819 1.463 . S
C2822 N2826 1.427 . S
C2823 H2813 0.929 . S
C2823 C2821 1.433 . S
C2823 N2826 1.384 . S
C2824 H2815 0.929 . S
C2824 C2816 1.378 . S
C2824 C2819 1.350 . S
C2825 H2812 0.929 . S
C2825 C2817 1.433 . S
C2825 N2827 1.384 . S
N2826 C2822 1.427 . S
N2826 C2823 1.384 . S
N2827 C2819 1.427 . S
N2827 C2825 1.384 . S
H2828 C2834 0.930 . S
H2829 C2838 0.930 . S
H2830 C2843 0.929 . S
H2831 C2841 0.929 . S
H2832 C2836 0.929 . S
H2833 C2842 0.929 . S
C2834 H2828 0.930 . S
C2834 C2835 1.367 . S
C2834 C2842 1.378 . S
C2835 C2834 1.367 . S
C2835 C2843 1.433 . S
C2836 H2832 0.929 . S
C2836 C2838 1.378 . S
C2836 C2840 1.350 . S
C2837 C2840 1.463 . S
C2837 C2842 1.350 . S
C2837 N2845 1.427 . S
C2838 H2829 0.930 . S
C2838 C2836 1.378 . S
C2838 C2839 1.367 . S
C2839 C2838 1.367 . S
C2839 C2841 1.433 . S
C2840 C2836 1.350 . S
C2840 C2837 1.463 . S
C2840 N2844 1.427 . S
C2841 H2831 0.929 . S
C2841 C2839 1.433 . S
C2841 N2844 1.384 . S
C2842 H2833 0.929 . S
C2842 C2834 1.378 . S
C2842 C2837 1.350 . S
C2843 H2830 0.929 . S
C2843 C2835 1.433 . S
C2843 N2845 1.384 . S
N2844 C2840 1.427 . S
N2844 C2841 1.384 . S
N2845 C2837 1.427 . S
N2845 C2843 1.384 . S
H2846 C2852 0.930 . S
H2847 C2856 0.930 . S
H2848 C2861 0.929 . S
H2849 C2859 0.929 . S
H2850 C2854 0.929 . S
H2851 C2860 0.929 . S
C2852 H2846 0.930 . S
C2852 C2853 1.367 . S
C2852 C2860 1.378 . S
C2853 C2852 1.367 . S
C2853 C2861 1.433 . S
C2854 H2850 0.929 . S
C2854 C2856 1.378 . S
C2854 C2858 1.350 . S
C2855 C2858 1.463 . S
C2855 C2860 1.350 . S
C2855 N2863 1.427 . S
C2856 H2847 0.930 . S
C2856 C2854 1.378 . S
C2856 C2857 1.367 . S
C2857 C2856 1.367 . S
C2857 C2859 1.433 . S
C2858 C2854 1.350 . S
C2858 C2855 1.463 . S
C2858 N2862 1.427 . S
C2859 H2849 0.929 . S
C2859 C2857 1.433 . S
C2859 N2862 1.384 . S
C2860 H2851 0.929 . S
C2860 C2852 1.378 . S
C2860 C2855 1.350 . S
C2861 H2848 0.929 . S
C2861 C2853 1.433 . S
C2861 N2863 1.384 . S
N2862 C2858 1.427 . S
N2862 C2859 1.384 . S
N2863 C2855 1.427 . S
N2863 C2861 1.384 . S
H2864 C2870 0.930 . S
H2865 C2874 0.930 . S
H2866 C2879 0.929 . S
H2867 C2877 0.929 . S
H2868 C2872 0.929 . S
H2869 C2878 0.929 . S
C2870 H2864 0.930 . S
C2870 C2871 1.367 . S
C2870 C2878 1.378 . S
C2871 C2870 1.367 . S
C2871 C2879 1.433 . S
C2872 H2868 0.929 . S
C2872 C2874 1.378 . S
C2872 C2876 1.350 . S
C2873 C2876 1.463 . S
C2873 C2878 1.350 . S
C2873 N2881 1.427 . S
C2874 H2865 0.930 . S
C2874 C2872 1.378 . S
C2874 C2875 1.367 . S
C2875 C2874 1.367 . S
C2875 C2877 1.433 . S
C2876 C2872 1.350 . S
C2876 C2873 1.463 . S
C2876 N2880 1.427 . S
C2877 H2867 0.929 . S
C2877 C2875 1.433 . S
C2877 N2880 1.384 . S
C2878 H2869 0.929 . S
C2878 C2870 1.378 . S
C2878 C2873 1.350 . S
C2879 H2866 0.929 . S
C2879 C2871 1.433 . S
C2879 N2881 1.384 . S
N2880 C2876 1.427 . S
N2880 C2877 1.384 . S
N2881 C2873 1.427 . S
N2881 C2879 1.384 . S
H2882 C2888 0.930 . S
H2883 C2892 0.930 . S
H2884 C2897 0.929 . S
H2885 C2895 0.929 . S
H2886 C2890 0.929 . S
H2887 C2896 0.929 . S
C2888 H2882 0.930 . S
C2888 C2889 1.367 . S
C2888 C2896 1.378 . S
C2889 C2888 1.367 . S
C2889 C2897 1.433 . S
C2890 H2886 0.929 . S
C2890 C2892 1.378 . S
C2890 C2894 1.350 . S
C2891 C2894 1.463 . S
C2891 C2896 1.350 . S
C2891 N2899 1.427 . S
C2892 H2883 0.930 . S
C2892 C2890 1.378 . S
C2892 C2893 1.367 . S
C2893 C2892 1.367 . S
C2893 C2895 1.433 . S
C2894 C2890 1.350 . S
C2894 C2891 1.463 . S
C2894 N2898 1.427 . S
C2895 H2885 0.929 . S
C2895 C2893 1.433 . S
C2895 N2898 1.384 . S
C2896 H2887 0.929 . S
C2896 C2888 1.378 . S
C2896 C2891 1.350 . S
C2897 H2884 0.929 . S
C2897 C2889 1.433 . S
C2897 N2899 1.384 . S
N2898 C2894 1.427 . S
N2898 C2895 1.384 . S
N2899 C2891 1.427 . S
N2899 C2897 1.384 . S
H2900 C2906 0.930 . S
H2901 C2910 0.930 . S
H2902 C2915 0.929 . S
H2903 C2913 0.929 . S
H2904 C2908 0.929 . S
H2905 C2914 0.929 . S
C2906 H2900 0.930 . S
C2906 C2907 1.367 . S
C2906 C2914 1.378 . S
C2907 C2906 1.367 . S
C2907 C2915 1.433 . S
C2908 H2904 0.929 . S
C2908 C2910 1.378 . S
C2908 C2912 1.350 . S
C2909 C2912 1.463 . S
C2909 C2914 1.350 . S
C2909 N2917 1.427 . S
C2910 H2901 0.930 . S
C2910 C2908 1.378 . S
C2910 C2911 1.367 . S
C2911 C2910 1.367 . S
C2911 C2913 1.433 . S
C2912 C2908 1.350 . S
C2912 C2909 1.463 . S
C2912 N2916 1.427 . S
C2913 H2903 0.929 . S
C2913 C2911 1.433 . S
C2913 N2916 1.384 . S
C2914 H2905 0.929 . S
C2914 C2906 1.378 . S
C2914 C2909 1.350 . S
C2915 H2902 0.929 . S
C2915 C2907 1.433 . S
C2915 N2917 1.384 . S
N2916 C2912 1.427 . S
N2916 C2913 1.384 . S
N2917 C2909 1.427 . S
N2917 C2915 1.384 . S
H2918 C2924 0.930 . S
H2919 C2928 0.930 . S
H2920 C2933 0.929 . S
H2921 C2931 0.929 . S
H2922 C2926 0.929 . S
H2923 C2932 0.929 . S
C2924 H2918 0.930 . S
C2924 C2925 1.367 . S
C2924 C2932 1.378 . S
C2925 C2924 1.367 . S
C2925 C2933 1.433 . S
C2926 H2922 0.929 . S
C2926 C2928 1.378 . S
C2926 C2930 1.350 . S
C2927 C2930 1.463 . S
C2927 C2932 1.350 . S
C2927 N2935 1.427 . S
C2928 H2919 0.930 . S
C2928 C2926 1.378 . S
C2928 C2929 1.367 . S
C2929 C2928 1.367 . S
C2929 C2931 1.433 . S
C2930 C2926 1.350 . S
C2930 C2927 1.463 . S
C2930 N2934 1.427 . S
C2931 H2921 0.929 . S
C2931 C2929 1.433 . S
C2931 N2934 1.384 . S
C2932 H2923 0.929 . S
C2932 C2924 1.378 . S
C2932 C2927 1.350 . S
C2933 H2920 0.929 . S
C2933 C2925 1.433 . S
C2933 N2935 1.384 . S
N2934 C2930 1.427 . S
N2934 C2931 1.384 . S
N2935 C2927 1.427 . S
N2935 C2933 1.384 . S
H2936 C2942 0.930 . S
H2937 C2946 0.930 . S
H2938 C2951 0.929 . S
H2939 C2949 0.929 . S
H2940 C2944 0.929 . S
H2941 C2950 0.929 . S
C2942 H2936 0.930 . S
C2942 C2943 1.367 . S
C2942 C2950 1.378 . S
C2943 C2942 1.367 . S
C2943 C2951 1.433 . S
C2944 H2940 0.929 . S
C2944 C2946 1.378 . S
C2944 C2948 1.350 . S
C2945 C2948 1.463 . S
C2945 C2950 1.350 . S
C2945 N2953 1.427 . S
C2946 H2937 0.930 . S
C2946 C2944 1.378 . S
C2946 C2947 1.367 . S
C2947 C2946 1.367 . S
C2947 C2949 1.433 . S
C2948 C2944 1.350 . S
C2948 C2945 1.463 . S
C2948 N2952 1.427 . S
C2949 H2939 0.929 . S
C2949 C2947 1.433 . S
C2949 N2952 1.384 . S
C2950 H2941 0.929 . S
C2950 C2942 1.378 . S
C2950 C2945 1.350 . S
C2951 H2938 0.929 . S
C2951 C2943 1.433 . S
C2951 N2953 1.384 . S
N2952 C2948 1.427 . S
N2952 C2949 1.384 . S
N2953 C2945 1.427 . S
N2953 C2951 1.384 . S
H2954 C2960 0.930 . S
H2955 C2964 0.930 . S
H2956 C2969 0.929 . S
H2957 C2967 0.929 . S
H2958 C2962 0.929 . S
H2959 C2968 0.929 . S
C2960 H2954 0.930 . S
C2960 C2961 1.367 . S
C2960 C2968 1.378 . S
C2961 C2960 1.367 . S
C2961 C2969 1.433 . S
C2962 H2958 0.929 . S
C2962 C2964 1.378 . S
C2962 C2966 1.350 . S
C2963 C2966 1.463 . S
C2963 C2968 1.350 . S
C2963 N2971 1.427 . S
C2964 H2955 0.930 . S
C2964 C2962 1.378 . S
C2964 C2965 1.367 . S
C2965 C2964 1.367 . S
C2965 C2967 1.433 . S
C2966 C2962 1.350 . S
C2966 C2963 1.463 . S
C2966 N2970 1.427 . S
C2967 H2957 0.929 . S
C2967 C2965 1.433 . S
C2967 N2970 1.384 . S
C2968 H2959 0.929 . S
C2968 C2960 1.378 . S
C2968 C2963 1.350 . S
C2969 H2956 0.929 . S
C2969 C2961 1.433 . S
C2969 N2971 1.384 . S
N2970 C2966 1.427 . S
N2970 C2967 1.384 . S
N2971 C2963 1.427 . S
N2971 C2969 1.384 . S
H2972 C2978 0.930 . S
H2973 C2982 0.930 . S
H2974 C2987 0.929 . S
H2975 C2985 0.929 . S
H2976 C2980 0.929 . S
H2977 C2986 0.929 . S
C2978 H2972 0.930 . S
C2978 C2979 1.367 . S
C2978 C2986 1.378 . S
C2979 C2978 1.367 . S
C2979 C2987 1.433 . S
C2980 H2976 0.929 . S
C2980 C2982 1.378 . S
C2980 C2984 1.350 . S
C2981 C2984 1.463 . S
C2981 C2986 1.350 . S
C2981 N2989 1.427 . S
C2982 H2973 0.930 . S
C2982 C2980 1.378 . S
C2982 C2983 1.367 . S
C2983 C2982 1.367 . S
C2983 C2985 1.433 . S
C2984 C2980 1.350 . S
C2984 C2981 1.463 . S
C2984 N2988 1.427 . S
C2985 H2975 0.929 . S
C2985 C2983 1.433 . S
C2985 N2988 1.384 . S
C2986 H2977 0.929 . S
C2986 C2978 1.378 . S
C2986 C2981 1.350 . S
C2987 H2974 0.929 . S
C2987 C2979 1.433 . S
C2987 N2989 1.384 . S
N2988 C2984 1.427 . S
N2988 C2985 1.384 . S
N2989 C2981 1.427 . S
N2989 C2987 1.384 . S
H2990 C2996 0.930 . S
H2991 C3000 0.930 . S
H2992 C3005 0.929 . S
H2993 C3003 0.929 . S
H2994 C2998 0.929 . S
H2995 C3004 0.929 . S
C2996 H2990 0.930 . S
C2996 C2997 1.367 . S
C2996 C3004 1.378 . S
C2997 C2996 1.367 . S
C2997 C3005 1.433 . S
C2998 H2994 0.929 . S
C2998 C3000 1.378 . S
C2998 C3002 1.350 . S
C2999 C3002 1.463 . S
C2999 C3004 1.350 . S
C2999 N3007 1.427 . S
C3000 H2991 0.930 . S
C3000 C2998 1.378 . S
C3000 C3001 1.367 . S
C3001 C3000 1.367 . S
C3001 C3003 1.433 . S
C3002 C2998 1.350 . S
C3002 C2999 1.463 . S
C3002 N3006 1.427 . S
C3003 H2993 0.929 . S
C3003 C3001 1.433 . S
C3003 N3006 1.384 . S
C3004 H2995 0.929 . S
C3004 C2996 1.378 . S
C3004 C2999 1.350 . S
C3005 H2992 0.929 . S
C3005 C2997 1.433 . S
C3005 N3007 1.384 . S
N3006 C3002 1.427 . S
N3006 C3003 1.384 . S
N3007 C2999 1.427 . S
N3007 C3005 1.384 . S
H3008 C3014 0.930 . S
H3009 C3018 0.930 . S
H3010 C3023 0.929 . S
H3011 C3021 0.929 . S
H3012 C3016 0.929 . S
H3013 C3022 0.929 . S
C3014 H3008 0.930 . S
C3014 C3015 1.367 . S
C3014 C3022 1.378 . S
C3015 C3014 1.367 . S
C3015 C3023 1.433 . S
C3016 H3012 0.929 . S
C3016 C3018 1.378 . S
C3016 C3020 1.350 . S
C3017 C3020 1.463 . S
C3017 C3022 1.350 . S
C3017 N3025 1.427 . S
C3018 H3009 0.930 . S
C3018 C3016 1.378 . S
C3018 C3019 1.367 . S
C3019 C3018 1.367 . S
C3019 C3021 1.433 . S
C3020 C3016 1.350 . S
C3020 C3017 1.463 . S
C3020 N3024 1.427 . S
C3021 H3011 0.929 . S
C3021 C3019 1.433 . S
C3021 N3024 1.384 . S
C3022 H3013 0.929 . S
C3022 C3014 1.378 . S
C3022 C3017 1.350 . S
C3023 H3010 0.929 . S
C3023 C3015 1.433 . S
C3023 N3025 1.384 . S
N3024 C3020 1.427 . S
N3024 C3021 1.384 . S
N3025 C3017 1.427 . S
N3025 C3023 1.384 . S
H3026 C3032 0.930 . S
H3027 C3036 0.930 . S
H3028 C3041 0.929 . S
H3029 C3039 0.929 . S
H3030 C3034 0.929 . S
H3031 C3040 0.929 . S
C3032 H3026 0.930 . S
C3032 C3033 1.367 . S
C3032 C3040 1.378 . S
C3033 C3032 1.367 . S
C3033 C3041 1.433 . S
C3034 H3030 0.929 . S
C3034 C3036 1.378 . S
C3034 C3038 1.350 . S
C3035 C3038 1.463 . S
C3035 C3040 1.350 . S
C3035 N3043 1.427 . S
C3036 H3027 0.930 . S
C3036 C3034 1.378 . S
C3036 C3037 1.367 . S
C3037 C3036 1.367 . S
C3037 C3039 1.433 . S
C3038 C3034 1.350 . S
C3038 C3035 1.463 . S
C3038 N3042 1.427 . S
C3039 H3029 0.929 . S
C3039 C3037 1.433 . S
C3039 N3042 1.384 . S
C3040 H3031 0.929 . S
C3040 C3032 1.378 . S
C3040 C3035 1.350 . S
C3041 H3028 0.929 . S
C3041 C3033 1.433 . S
C3041 N3043 1.384 . S
N3042 C3038 1.427 . S
N3042 C3039 1.384 . S
N3043 C3035 1.427 . S
N3043 C3041 1.384 . S
H3044 C3050 0.930 . S
H3045 C3054 0.930 . S
H3046 C3059 0.929 . S
H3047 C3057 0.929 . S
H3048 C3052 0.929 . S
H3049 C3058 0.929 . S
C3050 H3044 0.930 . S
C3050 C3051 1.367 . S
C3050 C3058 1.378 . S
C3051 C3050 1.367 . S
C3051 C3059 1.433 . S
C3052 H3048 0.929 . S
C3052 C3054 1.378 . S
C3052 C3056 1.350 . S
C3053 C3056 1.463 . S
C3053 C3058 1.350 . S
C3053 N3061 1.427 . S
C3054 H3045 0.930 . S
C3054 C3052 1.378 . S
C3054 C3055 1.367 . S
C3055 C3054 1.367 . S
C3055 C3057 1.433 . S
C3056 C3052 1.350 . S
C3056 C3053 1.463 . S
C3056 N3060 1.427 . S
C3057 H3047 0.929 . S
C3057 C3055 1.433 . S
C3057 N3060 1.384 . S
C3058 H3049 0.929 . S
C3058 C3050 1.378 . S
C3058 C3053 1.350 . S
C3059 H3046 0.929 . S
C3059 C3051 1.433 . S
C3059 N3061 1.384 . S
N3060 C3056 1.427 . S
N3060 C3057 1.384 . S
N3061 C3053 1.427 . S
N3061 C3059 1.384 . S
H3062 C3068 0.930 . S
H3063 C3072 0.930 . S
H3064 C3077 0.929 . S
H3065 C3075 0.929 . S
H3066 C3070 0.929 . S
H3067 C3076 0.929 . S
C3068 H3062 0.930 . S
C3068 C3069 1.367 . S
C3068 C3076 1.378 . S
C3069 C3068 1.367 . S
C3069 C3077 1.433 . S
C3070 H3066 0.929 . S
C3070 C3072 1.378 . S
C3070 C3074 1.350 . S
C3071 C3074 1.463 . S
C3071 C3076 1.350 . S
C3071 N3079 1.427 . S
C3072 H3063 0.930 . S
C3072 C3070 1.378 . S
C3072 C3073 1.367 . S
C3073 C3072 1.367 . S
C3073 C3075 1.433 . S
C3074 C3070 1.350 . S
C3074 C3071 1.463 . S
C3074 N3078 1.427 . S
C3075 H3065 0.929 . S
C3075 C3073 1.433 . S
C3075 N3078 1.384 . S
C3076 H3067 0.929 . S
C3076 C3068 1.378 . S
C3076 C3071 1.350 . S
C3077 H3064 0.929 . S
C3077 C3069 1.433 . S
C3077 N3079 1.384 . S
N3078 C3074 1.427 . S
N3078 C3075 1.384 . S
N3079 C3071 1.427 . S
N3079 C3077 1.384 . S
H3080 C3086 0.930 . S
H3081 C3090 0.930 . S
H3082 C3095 0.929 . S
H3083 C3093 0.929 . S
H3084 C3088 0.929 . S
H3085 C3094 0.929 . S
C3086 H3080 0.930 . S
C3086 C3087 1.367 . S
C3086 C3094 1.378 . S
C3087 C3086 1.367 . S
C3087 C3095 1.433 . S
C3088 H3084 0.929 . S
C3088 C3090 1.378 . S
C3088 C3092 1.350 . S
C3089 C3092 1.463 . S
C3089 C3094 1.350 . S
C3089 N3097 1.427 . S
C3090 H3081 0.930 . S
C3090 C3088 1.378 . S
C3090 C3091 1.367 . S
C3091 C3090 1.367 . S
C3091 C3093 1.433 . S
C3092 C3088 1.350 . S
C3092 C3089 1.463 . S
C3092 N3096 1.427 . S
C3093 H3083 0.929 . S
C3093 C3091 1.433 . S
C3093 N3096 1.384 . S
C3094 H3085 0.929 . S
C3094 C3086 1.378 . S
C3094 C3089 1.350 . S
C3095 H3082 0.929 . S
C3095 C3087 1.433 . S
C3095 N3097 1.384 . S
N3096 C3092 1.427 . S
N3096 C3093 1.384 . S
N3097 C3089 1.427 . S
N3097 C3095 1.384 . S
H3098 C3104 0.930 . S
H3099 C3108 0.930 . S
H3100 C3113 0.929 . S
H3101 C3111 0.929 . S
H3102 C3106 0.929 . S
H3103 C3112 0.929 . S
C3104 H3098 0.930 . S
C3104 C3105 1.367 . S
C3104 C3112 1.378 . S
C3105 C3104 1.367 . S
C3105 C3113 1.433 . S
C3106 H3102 0.929 . S
C3106 C3108 1.378 . S
C3106 C3110 1.350 . S
C3107 C3110 1.463 . S
C3107 C3112 1.350 . S
C3107 N3115 1.427 . S
C3108 H3099 0.930 . S
C3108 C3106 1.378 . S
C3108 C3109 1.367 . S
C3109 C3108 1.367 . S
C3109 C3111 1.433 . S
C3110 C3106 1.350 . S
C3110 C3107 1.463 . S
C3110 N3114 1.427 . S
C3111 H3101 0.929 . S
C3111 C3109 1.433 . S
C3111 N3114 1.384 . S
C3112 H3103 0.929 . S
C3112 C3104 1.378 . S
C3112 C3107 1.350 . S
C3113 H3100 0.929 . S
C3113 C3105 1.433 . S
C3113 N3115 1.384 . S
N3114 C3110 1.427 . S
N3114 C3111 1.384 . S
N3115 C3107 1.427 . S
N3115 C3113 1.384 . S
H3116 C3122 0.930 . S
H3117 C3126 0.930 . S
H3118 C3131 0.929 . S
H3119 C3129 0.929 . S
H3120 C3124 0.929 . S
H3121 C3130 0.929 . S
C3122 H3116 0.930 . S
C3122 C3123 1.367 . S
C3122 C3130 1.378 . S
C3123 C3122 1.367 . S
C3123 C3131 1.433 . S
C3124 H3120 0.929 . S
C3124 C3126 1.378 . S
C3124 C3128 1.350 . S
C3125 C3128 1.463 . S
C3125 C3130 1.350 . S
C3125 N3133 1.427 . S
C3126 H3117 0.930 . S
C3126 C3124 1.378 . S
C3126 C3127 1.367 . S
C3127 C3126 1.367 . S
C3127 C3129 1.433 . S
C3128 C3124 1.350 . S
C3128 C3125 1.463 . S
C3128 N3132 1.427 . S
C3129 H3119 0.929 . S
C3129 C3127 1.433 . S
C3129 N3132 1.384 . S
C3130 H3121 0.929 . S
C3130 C3122 1.378 . S
C3130 C3125 1.350 . S
C3131 H3118 0.929 . S
C3131 C3123 1.433 . S
C3131 N3133 1.384 . S
N3132 C3128 1.427 . S
N3132 C3129 1.384 . S
N3133 C3125 1.427 . S
N3133 C3131 1.384 . S
H3134 C3140 0.930 . S
H3135 C3144 0.930 . S
H3136 C3149 0.929 . S
H3137 C3147 0.929 . S
H3138 C3142 0.929 . S
H3139 C3148 0.929 . S
C3140 H3134 0.930 . S
C3140 C3141 1.367 . S
C3140 C3148 1.378 . S
C3141 C3140 1.367 . S
C3141 C3149 1.433 . S
C3142 H3138 0.929 . S
C3142 C3144 1.378 . S
C3142 C3146 1.350 . S
C3143 C3146 1.463 . S
C3143 C3148 1.350 . S
C3143 N3151 1.427 . S
C3144 H3135 0.930 . S
C3144 C3142 1.378 . S
C3144 C3145 1.367 . S
C3145 C3144 1.367 . S
C3145 C3147 1.433 . S
C3146 C3142 1.350 . S
C3146 C3143 1.463 . S
C3146 N3150 1.427 . S
C3147 H3137 0.929 . S
C3147 C3145 1.433 . S
C3147 N3150 1.384 . S
C3148 H3139 0.929 . S
C3148 C3140 1.378 . S
C3148 C3143 1.350 . S
C3149 H3136 0.929 . S
C3149 C3141 1.433 . S
C3149 N3151 1.384 . S
N3150 C3146 1.427 . S
N3150 C3147 1.384 . S
N3151 C3143 1.427 . S
N3151 C3149 1.384 . S
H3152 C3158 0.930 . S
H3153 C3162 0.930 . S
H3154 C3167 0.929 . S
H3155 C3165 0.929 . S
H3156 C3160 0.929 . S
H3157 C3166 0.929 . S
C3158 H3152 0.930 . S
C3158 C3159 1.367 . S
C3158 C3166 1.378 . S
C3159 C3158 1.367 . S
C3159 C3167 1.433 . S
C3160 H3156 0.929 . S
C3160 C3162 1.378 . S
C3160 C3164 1.350 . S
C3161 C3164 1.463 . S
C3161 C3166 1.350 . S
C3161 N3169 1.427 . S
C3162 H3153 0.930 . S
C3162 C3160 1.378 . S
C3162 C3163 1.367 . S
C3163 C3162 1.367 . S
C3163 C3165 1.433 . S
C3164 C3160 1.350 . S
C3164 C3161 1.463 . S
C3164 N3168 1.427 . S
C3165 H3155 0.929 . S
C3165 C3163 1.433 . S
C3165 N3168 1.384 . S
C3166 H3157 0.929 . S
C3166 C3158 1.378 . S
C3166 C3161 1.350 . S
C3167 H3154 0.929 . S
C3167 C3159 1.433 . S
C3167 N3169 1.384 . S
N3168 C3164 1.427 . S
N3168 C3165 1.384 . S
N3169 C3161 1.427 . S
N3169 C3167 1.384 . S
H3170 C3176 0.930 . S
H3171 C3180 0.930 . S
H3172 C3185 0.929 . S
H3173 C3183 0.929 . S
H3174 C3178 0.929 . S
H3175 C3184 0.929 . S
C3176 H3170 0.930 . S
C3176 C3177 1.367 . S
C3176 C3184 1.378 . S
C3177 C3176 1.367 . S
C3177 C3185 1.433 . S
C3178 H3174 0.929 . S
C3178 C3180 1.378 . S
C3178 C3182 1.350 . S
C3179 C3182 1.463 . S
C3179 C3184 1.350 . S
C3179 N3187 1.427 . S
C3180 H3171 0.930 . S
C3180 C3178 1.378 . S
C3180 C3181 1.367 . S
C3181 C3180 1.367 . S
C3181 C3183 1.433 . S
C3182 C3178 1.350 . S
C3182 C3179 1.463 . S
C3182 N3186 1.427 . S
C3183 H3173 0.929 . S
C3183 C3181 1.433 . S
C3183 N3186 1.384 . S
C3184 H3175 0.929 . S
C3184 C3176 1.378 . S
C3184 C3179 1.350 . S
C3185 H3172 0.929 . S
C3185 C3177 1.433 . S
C3185 N3187 1.384 . S
N3186 C3182 1.427 . S
N3186 C3183 1.384 . S
N3187 C3179 1.427 . S
N3187 C3185 1.384 . S
H3188 C3194 0.930 . S
H3189 C3198 0.930 . S
H3190 C3203 0.929 . S
H3191 C3201 0.929 . S
H3192 C3196 0.929 . S
H3193 C3202 0.929 . S
C3194 H3188 0.930 . S
C3194 C3195 1.367 . S
C3194 C3202 1.378 . S
C3195 C3194 1.367 . S
C3195 C3203 1.433 . S
C3196 H3192 0.929 . S
C3196 C3198 1.378 . S
C3196 C3200 1.350 . S
C3197 C3200 1.463 . S
C3197 C3202 1.350 . S
C3197 N3205 1.427 . S
C3198 H3189 0.930 . S
C3198 C3196 1.378 . S
C3198 C3199 1.367 . S
C3199 C3198 1.367 . S
C3199 C3201 1.433 . S
C3200 C3196 1.350 . S
C3200 C3197 1.463 . S
C3200 N3204 1.427 . S
C3201 H3191 0.929 . S
C3201 C3199 1.433 . S
C3201 N3204 1.384 . S
C3202 H3193 0.929 . S
C3202 C3194 1.378 . S
C3202 C3197 1.350 . S
C3203 H3190 0.929 . S
C3203 C3195 1.433 . S
C3203 N3205 1.384 . S
N3204 C3200 1.427 . S
N3204 C3201 1.384 . S
N3205 C3197 1.427 . S
N3205 C3203 1.384 . S
H3206 C3212 0.930 . S
H3207 C3216 0.930 . S
H3208 C3221 0.929 . S
H3209 C3219 0.929 . S
H3210 C3214 0.929 . S
H3211 C3220 0.929 . S
C3212 H3206 0.930 . S
C3212 C3213 1.367 . S
C3212 C3220 1.378 . S
C3213 C3212 1.367 . S
C3213 C3221 1.433 . S
C3214 H3210 0.929 . S
C3214 C3216 1.378 . S
C3214 C3218 1.350 . S
C3215 C3218 1.463 . S
C3215 C3220 1.350 . S
C3215 N3223 1.427 . S
C3216 H3207 0.930 . S
C3216 C3214 1.378 . S
C3216 C3217 1.367 . S
C3217 C3216 1.367 . S
C3217 C3219 1.433 . S
C3218 C3214 1.350 . S
C3218 C3215 1.463 . S
C3218 N3222 1.427 . S
C3219 H3209 0.929 . S
C3219 C3217 1.433 . S
C3219 N3222 1.384 . S
C3220 H3211 0.929 . S
C3220 C3212 1.378 . S
C3220 C3215 1.350 . S
C3221 H3208 0.929 . S
C3221 C3213 1.433 . S
C3221 N3223 1.384 . S
N3222 C3218 1.427 . S
N3222 C3219 1.384 . S
N3223 C3215 1.427 . S
N3223 C3221 1.384 . S
H3224 C3230 0.930 . S
H3225 C3234 0.930 . S
H3226 C3239 0.929 . S
H3227 C3237 0.929 . S
H3228 C3232 0.929 . S
H3229 C3238 0.929 . S
C3230 H3224 0.930 . S
C3230 C3231 1.367 . S
C3230 C3238 1.378 . S
C3231 C3230 1.367 . S
C3231 C3239 1.433 . S
C3232 H3228 0.929 . S
C3232 C3234 1.378 . S
C3232 C3236 1.350 . S
C3233 C3236 1.463 . S
C3233 C3238 1.350 . S
C3233 N3241 1.427 . S
C3234 H3225 0.930 . S
C3234 C3232 1.378 . S
C3234 C3235 1.367 . S
C3235 C3234 1.367 . S
C3235 C3237 1.433 . S
C3236 C3232 1.350 . S
C3236 C3233 1.463 . S
C3236 N3240 1.427 . S
C3237 H3227 0.929 . S
C3237 C3235 1.433 . S
C3237 N3240 1.384 . S
C3238 H3229 0.929 . S
C3238 C3230 1.378 . S
C3238 C3233 1.350 . S
C3239 H3226 0.929 . S
C3239 C3231 1.433 . S
C3239 N3241 1.384 . S
N3240 C3236 1.427 . S
N3240 C3237 1.384 . S
N3241 C3233 1.427 . S
N3241 C3239 1.384 . S
H3242 C3248 0.930 . S
H3243 C3252 0.930 . S
H3244 C3257 0.929 . S
H3245 C3255 0.929 . S
H3246 C3250 0.929 . S
H3247 C3256 0.929 . S
C3248 H3242 0.930 . S
C3248 C3249 1.367 . S
C3248 C3256 1.378 . S
C3249 C3248 1.367 . S
C3249 C3257 1.433 . S
C3250 H3246 0.929 . S
C3250 C3252 1.378 . S
C3250 C3254 1.350 . S
C3251 C3254 1.463 . S
C3251 C3256 1.350 . S
C3251 N3259 1.427 . S
C3252 H3243 0.930 . S
C3252 C3250 1.378 . S
C3252 C3253 1.367 . S
C3253 C3252 1.367 . S
C3253 C3255 1.433 . S
C3254 C3250 1.350 . S
C3254 C3251 1.463 . S
C3254 N3258 1.427 . S
C3255 H3245 0.929 . S
C3255 C3253 1.433 . S
C3255 N3258 1.384 . S
C3256 H3247 0.929 . S
C3256 C3248 1.378 . S
C3256 C3251 1.350 . S
C3257 H3244 0.929 . S
C3257 C3249 1.433 . S
C3257 N3259 1.384 . S
N3258 C3254 1.427 . S
N3258 C3255 1.384 . S
N3259 C3251 1.427 . S
N3259 C3257 1.384 . S
H3260 C3266 0.930 . S
H3261 C3270 0.930 . S
H3262 C3275 0.929 . S
H3263 C3273 0.929 . S
H3264 C3268 0.929 . S
H3265 C3274 0.929 . S
C3266 H3260 0.930 . S
C3266 C3267 1.367 . S
C3266 C3274 1.378 . S
C3267 C3266 1.367 . S
C3267 C3275 1.433 . S
C3268 H3264 0.929 . S
C3268 C3270 1.378 . S
C3268 C3272 1.350 . S
C3269 C3272 1.463 . S
C3269 C3274 1.350 . S
C3269 N3277 1.427 . S
C3270 H3261 0.930 . S
C3270 C3268 1.378 . S
C3270 C3271 1.367 . S
C3271 C3270 1.367 . S
C3271 C3273 1.433 . S
C3272 C3268 1.350 . S
C3272 C3269 1.463 . S
C3272 N3276 1.427 . S
C3273 H3263 0.929 . S
C3273 C3271 1.433 . S
C3273 N3276 1.384 . S
C3274 H3265 0.929 . S
C3274 C3266 1.378 . S
C3274 C3269 1.350 . S
C3275 H3262 0.929 . S
C3275 C3267 1.433 . S
C3275 N3277 1.384 . S
N3276 C3272 1.427 . S
N3276 C3273 1.384 . S
N3277 C3269 1.427 . S
N3277 C3275 1.384 . S
H3278 C3284 0.930 . S
H3279 C3288 0.930 . S
H3280 C3293 0.929 . S
H3281 C3291 0.929 . S
H3282 C3286 0.929 . S
H3283 C3292 0.929 . S
C3284 H3278 0.930 . S
C3284 C3285 1.367 . S
C3284 C3292 1.378 . S
C3285 C3284 1.367 . S
C3285 C3293 1.433 . S
C3286 H3282 0.929 . S
C3286 C3288 1.378 . S
C3286 C3290 1.350 . S
C3287 C3290 1.463 . S
C3287 C3292 1.350 . S
C3287 N3295 1.427 . S
C3288 H3279 0.930 . S
C3288 C3286 1.378 . S
C3288 C3289 1.367 . S
C3289 C3288 1.367 . S
C3289 C3291 1.433 . S
C3290 C3286 1.350 . S
C3290 C3287 1.463 . S
C3290 N3294 1.427 . S
C3291 H3281 0.929 . S
C3291 C3289 1.433 . S
C3291 N3294 1.384 . S
C3292 H3283 0.929 . S
C3292 C3284 1.378 . S
C3292 C3287 1.350 . S
C3293 H3280 0.929 . S
C3293 C3285 1.433 . S
C3293 N3295 1.384 . S
N3294 C3290 1.427 . S
N3294 C3291 1.384 . S
N3295 C3287 1.427 . S
N3295 C3293 1.384 . S
H3296 C3302 0.930 . S
H3297 C3306 0.930 . S
H3298 C3311 0.929 . S
H3299 C3309 0.929 . S
H3300 C3304 0.929 . S
H3301 C3310 0.929 . S
C3302 H3296 0.930 . S
C3302 C3303 1.367 . S
C3302 C3310 1.378 . S
C3303 C3302 1.367 . S
C3303 C3311 1.433 . S
C3304 H3300 0.929 . S
C3304 C3306 1.378 . S
C3304 C3308 1.350 . S
C3305 C3308 1.463 . S
C3305 C3310 1.350 . S
C3305 N3313 1.427 . S
C3306 H3297 0.930 . S
C3306 C3304 1.378 . S
C3306 C3307 1.367 . S
C3307 C3306 1.367 . S
C3307 C3309 1.433 . S
C3308 C3304 1.350 . S
C3308 C3305 1.463 . S
C3308 N3312 1.427 . S
C3309 H3299 0.929 . S
C3309 C3307 1.433 . S
C3309 N3312 1.384 . S
C3310 H3301 0.929 . S
C3310 C3302 1.378 . S
C3310 C3305 1.350 . S
C3311 H3298 0.929 . S
C3311 C3303 1.433 . S
C3311 N3313 1.384 . S
N3312 C3308 1.427 . S
N3312 C3309 1.384 . S
N3313 C3305 1.427 . S
N3313 C3311 1.384 . S
H3314 C3320 0.930 . S
H3315 C3324 0.930 . S
H3316 C3329 0.929 . S
H3317 C3327 0.929 . S
H3318 C3322 0.929 . S
H3319 C3328 0.929 . S
C3320 H3314 0.930 . S
C3320 C3321 1.367 . S
C3320 C3328 1.378 . S
C3321 C3320 1.367 . S
C3321 C3329 1.433 . S
C3322 H3318 0.929 . S
C3322 C3324 1.378 . S
C3322 C3326 1.350 . S
C3323 C3326 1.463 . S
C3323 C3328 1.350 . S
C3323 N3331 1.427 . S
C3324 H3315 0.930 . S
C3324 C3322 1.378 . S
C3324 C3325 1.367 . S
C3325 C3324 1.367 . S
C3325 C3327 1.433 . S
C3326 C3322 1.350 . S
C3326 C3323 1.463 . S
C3326 N3330 1.427 . S
C3327 H3317 0.929 . S
C3327 C3325 1.433 . S
C3327 N3330 1.384 . S
C3328 H3319 0.929 . S
C3328 C3320 1.378 . S
C3328 C3323 1.350 . S
C3329 H3316 0.929 . S
C3329 C3321 1.433 . S
C3329 N3331 1.384 . S
N3330 C3326 1.427 . S
N3330 C3327 1.384 . S
N3331 C3323 1.427 . S
N3331 C3329 1.384 . S
H3332 C3338 0.930 . S
H3333 C3342 0.930 . S
H3334 C3347 0.929 . S
H3335 C3345 0.929 . S
H3336 C3340 0.929 . S
H3337 C3346 0.929 . S
C3338 H3332 0.930 . S
C3338 C3339 1.367 . S
C3338 C3346 1.378 . S
C3339 C3338 1.367 . S
C3339 C3347 1.433 . S
C3340 H3336 0.929 . S
C3340 C3342 1.378 . S
C3340 C3344 1.350 . S
C3341 C3344 1.463 . S
C3341 C3346 1.350 . S
C3341 N3349 1.427 . S
C3342 H3333 0.930 . S
C3342 C3340 1.378 . S
C3342 C3343 1.367 . S
C3343 C3342 1.367 . S
C3343 C3345 1.433 . S
C3344 C3340 1.350 . S
C3344 C3341 1.463 . S
C3344 N3348 1.427 . S
C3345 H3335 0.929 . S
C3345 C3343 1.433 . S
C3345 N3348 1.384 . S
C3346 H3337 0.929 . S
C3346 C3338 1.378 . S
C3346 C3341 1.350 . S
C3347 H3334 0.929 . S
C3347 C3339 1.433 . S
C3347 N3349 1.384 . S
N3348 C3344 1.427 . S
N3348 C3345 1.384 . S
N3349 C3341 1.427 . S
N3349 C3347 1.384 . S
H3350 C3356 0.930 . S
H3351 C3360 0.930 . S
H3352 C3365 0.929 . S
H3353 C3363 0.929 . S
H3354 C3358 0.929 . S
H3355 C3364 0.929 . S
C3356 H3350 0.930 . S
C3356 C3357 1.367 . S
C3356 C3364 1.378 . S
C3357 C3356 1.367 . S
C3357 C3365 1.433 . S
C3358 H3354 0.929 . S
C3358 C3360 1.378 . S
C3358 C3362 1.350 . S
C3359 C3362 1.463 . S
C3359 C3364 1.350 . S
C3359 N3367 1.427 . S
C3360 H3351 0.930 . S
C3360 C3358 1.378 . S
C3360 C3361 1.367 . S
C3361 C3360 1.367 . S
C3361 C3363 1.433 . S
C3362 C3358 1.350 . S
C3362 C3359 1.463 . S
C3362 N3366 1.427 . S
C3363 H3353 0.929 . S
C3363 C3361 1.433 . S
C3363 N3366 1.384 . S
C3364 H3355 0.929 . S
C3364 C3356 1.378 . S
C3364 C3359 1.350 . S
C3365 H3352 0.929 . S
C3365 C3357 1.433 . S
C3365 N3367 1.384 . S
N3366 C3362 1.427 . S
N3366 C3363 1.384 . S
N3367 C3359 1.427 . S
N3367 C3365 1.384 . S
H3368 C3374 0.930 . S
H3369 C3378 0.930 . S
H3370 C3383 0.929 . S
H3371 C3381 0.929 . S
H3372 C3376 0.929 . S
H3373 C3382 0.929 . S
C3374 H3368 0.930 . S
C3374 C3375 1.367 . S
C3374 C3382 1.378 . S
C3375 C3374 1.367 . S
C3375 C3383 1.433 . S
C3376 H3372 0.929 . S
C3376 C3378 1.378 . S
C3376 C3380 1.350 . S
C3377 C3380 1.463 . S
C3377 C3382 1.350 . S
C3377 N3385 1.427 . S
C3378 H3369 0.930 . S
C3378 C3376 1.378 . S
C3378 C3379 1.367 . S
C3379 C3378 1.367 . S
C3379 C3381 1.433 . S
C3380 C3376 1.350 . S
C3380 C3377 1.463 . S
C3380 N3384 1.427 . S
C3381 H3371 0.929 . S
C3381 C3379 1.433 . S
C3381 N3384 1.384 . S
C3382 H3373 0.929 . S
C3382 C3374 1.378 . S
C3382 C3377 1.350 . S
C3383 H3370 0.929 . S
C3383 C3375 1.433 . S
C3383 N3385 1.384 . S
N3384 C3380 1.427 . S
N3384 C3381 1.384 . S
N3385 C3377 1.427 . S
N3385 C3383 1.384 . S
H3386 C3392 0.930 . S
H3387 C3396 0.930 . S
H3388 C3401 0.929 . S
H3389 C3399 0.929 . S
H3390 C3394 0.929 . S
H3391 C3400 0.929 . S
C3392 H3386 0.930 . S
C3392 C3393 1.367 . S
C3392 C3400 1.378 . S
C3393 C3392 1.367 . S
C3393 C3401 1.433 . S
C3394 H3390 0.929 . S
C3394 C3396 1.378 . S
C3394 C3398 1.350 . S
C3395 C3398 1.463 . S
C3395 C3400 1.350 . S
C3395 N3403 1.427 . S
C3396 H3387 0.930 . S
C3396 C3394 1.378 . S
C3396 C3397 1.367 . S
C3397 C3396 1.367 . S
C3397 C3399 1.433 . S
C3398 C3394 1.350 . S
C3398 C3395 1.463 . S
C3398 N3402 1.427 . S
C3399 H3389 0.929 . S
C3399 C3397 1.433 . S
C3399 N3402 1.384 . S
C3400 H3391 0.929 . S
C3400 C3392 1.378 . S
C3400 C3395 1.350 . S
C3401 H3388 0.929 . S
C3401 C3393 1.433 . S
C3401 N3403 1.384 . S
N3402 C3398 1.427 . S
N3402 C3399 1.384 . S
N3403 C3395 1.427 . S
N3403 C3401 1.384 . S
H3404 C3410 0.930 . S
H3405 C3414 0.930 . S
H3406 C3419 0.929 . S
H3407 C3417 0.929 . S
H3408 C3412 0.929 . S
H3409 C3418 0.929 . S
C3410 H3404 0.930 . S
C3410 C3411 1.367 . S
C3410 C3418 1.378 . S
C3411 C3410 1.367 . S
C3411 C3419 1.433 . S
C3412 H3408 0.929 . S
C3412 C3414 1.378 . S
C3412 C3416 1.350 . S
C3413 C3416 1.463 . S
C3413 C3418 1.350 . S
C3413 N3421 1.427 . S
C3414 H3405 0.930 . S
C3414 C3412 1.378 . S
C3414 C3415 1.367 . S
C3415 C3414 1.367 . S
C3415 C3417 1.433 . S
C3416 C3412 1.350 . S
C3416 C3413 1.463 . S
C3416 N3420 1.427 . S
C3417 H3407 0.929 . S
C3417 C3415 1.433 . S
C3417 N3420 1.384 . S
C3418 H3409 0.929 . S
C3418 C3410 1.378 . S
C3418 C3413 1.350 . S
C3419 H3406 0.929 . S
C3419 C3411 1.433 . S
C3419 N3421 1.384 . S
N3420 C3416 1.427 . S
N3420 C3417 1.384 . S
N3421 C3413 1.427 . S
N3421 C3419 1.384 . S
H3422 C3428 0.930 . S
H3423 C3432 0.930 . S
H3424 C3437 0.929 . S
H3425 C3435 0.929 . S
H3426 C3430 0.929 . S
H3427 C3436 0.929 . S
C3428 H3422 0.930 . S
C3428 C3429 1.367 . S
C3428 C3436 1.378 . S
C3429 C3428 1.367 . S
C3429 C3437 1.433 . S
C3430 H3426 0.929 . S
C3430 C3432 1.378 . S
C3430 C3434 1.350 . S
C3431 C3434 1.463 . S
C3431 C3436 1.350 . S
C3431 N3439 1.427 . S
C3432 H3423 0.930 . S
C3432 C3430 1.378 . S
C3432 C3433 1.367 . S
C3433 C3432 1.367 . S
C3433 C3435 1.433 . S
C3434 C3430 1.350 . S
C3434 C3431 1.463 . S
C3434 N3438 1.427 . S
C3435 H3425 0.929 . S
C3435 C3433 1.433 . S
C3435 N3438 1.384 . S
C3436 H3427 0.929 . S
C3436 C3428 1.378 . S
C3436 C3431 1.350 . S
C3437 H3424 0.929 . S
C3437 C3429 1.433 . S
C3437 N3439 1.384 . S
N3438 C3434 1.427 . S
N3438 C3435 1.384 . S
N3439 C3431 1.427 . S
N3439 C3437 1.384 . S
H3440 C3446 0.930 . S
H3441 C3450 0.930 . S
H3442 C3455 0.929 . S
H3443 C3453 0.929 . S
H3444 C3448 0.929 . S
H3445 C3454 0.929 . S
C3446 H3440 0.930 . S
C3446 C3447 1.367 . S
C3446 C3454 1.378 . S
C3447 C3446 1.367 . S
C3447 C3455 1.433 . S
C3448 H3444 0.929 . S
C3448 C3450 1.378 . S
C3448 C3452 1.350 . S
C3449 C3452 1.463 . S
C3449 C3454 1.350 . S
C3449 N3457 1.427 . S
C3450 H3441 0.930 . S
C3450 C3448 1.378 . S
C3450 C3451 1.367 . S
C3451 C3450 1.367 . S
C3451 C3453 1.433 . S
C3452 C3448 1.350 . S
C3452 C3449 1.463 . S
C3452 N3456 1.427 . S
C3453 H3443 0.929 . S
C3453 C3451 1.433 . S
C3453 N3456 1.384 . S
C3454 H3445 0.929 . S
C3454 C3446 1.378 . S
C3454 C3449 1.350 . S
C3455 H3442 0.929 . S
C3455 C3447 1.433 . S
C3455 N3457 1.384 . S
N3456 C3452 1.427 . S
N3456 C3453 1.384 . S
N3457 C3449 1.427 . S
N3457 C3455 1.384 . S
H3458 C3464 0.930 . S
H3459 C3468 0.930 . S
H3460 C3473 0.929 . S
H3461 C3471 0.929 . S
H3462 C3466 0.929 . S
H3463 C3472 0.929 . S
C3464 H3458 0.930 . S
C3464 C3465 1.367 . S
C3464 C3472 1.378 . S
C3465 C3464 1.367 . S
C3465 C3473 1.433 . S
C3466 H3462 0.929 . S
C3466 C3468 1.378 . S
C3466 C3470 1.350 . S
C3467 C3470 1.463 . S
C3467 C3472 1.350 . S
C3467 N3475 1.427 . S
C3468 H3459 0.930 . S
C3468 C3466 1.378 . S
C3468 C3469 1.367 . S
C3469 C3468 1.367 . S
C3469 C3471 1.433 . S
C3470 C3466 1.350 . S
C3470 C3467 1.463 . S
C3470 N3474 1.427 . S
C3471 H3461 0.929 . S
C3471 C3469 1.433 . S
C3471 N3474 1.384 . S
C3472 H3463 0.929 . S
C3472 C3464 1.378 . S
C3472 C3467 1.350 . S
C3473 H3460 0.929 . S
C3473 C3465 1.433 . S
C3473 N3475 1.384 . S
N3474 C3470 1.427 . S
N3474 C3471 1.384 . S
N3475 C3467 1.427 . S
N3475 C3473 1.384 . S
H3476 C3482 0.930 . S
H3477 C3486 0.930 . S
H3478 C3491 0.929 . S
H3479 C3489 0.929 . S
H3480 C3484 0.929 . S
H3481 C3490 0.929 . S
C3482 H3476 0.930 . S
C3482 C3483 1.367 . S
C3482 C3490 1.378 . S
C3483 C3482 1.367 . S
C3483 C3491 1.433 . S
C3484 H3480 0.929 . S
C3484 C3486 1.378 . S
C3484 C3488 1.350 . S
C3485 C3488 1.463 . S
C3485 C3490 1.350 . S
C3485 N3493 1.427 . S
C3486 H3477 0.930 . S
C3486 C3484 1.378 . S
C3486 C3487 1.367 . S
C3487 C3486 1.367 . S
C3487 C3489 1.433 . S
C3488 C3484 1.350 . S
C3488 C3485 1.463 . S
C3488 N3492 1.427 . S
C3489 H3479 0.929 . S
C3489 C3487 1.433 . S
C3489 N3492 1.384 . S
C3490 H3481 0.929 . S
C3490 C3482 1.378 . S
C3490 C3485 1.350 . S
C3491 H3478 0.929 . S
C3491 C3483 1.433 . S
C3491 N3493 1.384 . S
N3492 C3488 1.427 . S
N3492 C3489 1.384 . S
N3493 C3485 1.427 . S
N3493 C3491 1.384 . S
H3494 C3500 0.930 . S
H3495 C3504 0.930 . S
H3496 C3509 0.929 . S
H3497 C3507 0.929 . S
H3498 C3502 0.929 . S
H3499 C3508 0.929 . S
C3500 H3494 0.930 . S
C3500 C3501 1.367 . S
C3500 C3508 1.378 . S
C3501 C3500 1.367 . S
C3501 C3509 1.433 . S
C3502 H3498 0.929 . S
C3502 C3504 1.378 . S
C3502 C3506 1.350 . S
C3503 C3506 1.463 . S
C3503 C3508 1.350 . S
C3503 N3511 1.427 . S
C3504 H3495 0.930 . S
C3504 C3502 1.378 . S
C3504 C3505 1.367 . S
C3505 C3504 1.367 . S
C3505 C3507 1.433 . S
C3506 C3502 1.350 . S
C3506 C3503 1.463 . S
C3506 N3510 1.427 . S
C3507 H3497 0.929 . S
C3507 C3505 1.433 . S
C3507 N3510 1.384 . S
C3508 H3499 0.929 . S
C3508 C3500 1.378 . S
C3508 C3503 1.350 . S
C3509 H3496 0.929 . S
C3509 C3501 1.433 . S
C3509 N3511 1.384 . S
N3510 C3506 1.427 . S
N3510 C3507 1.384 . S
N3511 C3503 1.427 . S
N3511 C3509 1.384 . S
C1795 C1299 1.494 . S
C1791 C21 1.552 . S
C1813 C1310 1.408 . S
C1809 C42 1.516 . S
C1827 C82 1.541 . S
C1831 C1334 1.433 . S
C1849 C1355 1.420 . S
C1845 C135 1.545 . S
C1863 C175 1.491 . S
C1867 C1362 1.397 . S
C1881 C221 1.542 . S
C1885 C1292 1.446 . S
C1899 C255 1.542 . S
C1903 C1318 1.418 . S
C1921 C1341 1.490 . S
C1917 C301 1.592 . S
C1939 C1373 1.443 . S
C1935 C15 1.542 . S
C1953 C55 1.510 . S
C1957 C1394 1.412 . S
C1971 C101 1.564 . S
C1975 C1418 1.457 . S
C1993 C1436 1.429 . S
C1989 C141 1.550 . S
C2007 C162 1.493 . S
C2011 C1465 1.402 . S
C2029 C1486 1.427 . S
C2025 C215 1.553 . S
C2043 C261 1.570 . S
C2047 C1502 1.439 . S
C2065 C1523 1.438 . S
C2061 C282 1.557 . S
C2079 C2 1.531 . S
C2083 C1444 1.442 . S
C2097 C181 1.479 . S
C2101 C1478 1.413 . S
C2119 C1509 1.494 . S
C2115 C202 1.550 . S
C2133 C242 1.558 . S
C2137 C1530 1.469 . S
C2155 C1457 1.434 . S
C2151 C295 1.539 . S
C2173 C1402 1.448 . S
C2169 C95 1.568 . S
C2187 C122 1.546 . S
C2191 C1425 1.448 . S
C2209 C1381 1.405 . S
C2205 C61 1.528 . S
C2227 C1549 1.452 . S
C2223 C341 1.543 . S
C2241 C362 1.515 . S
C2245 C1565 1.377 . S
C2259 C402 1.528 . S
C2263 C1583 1.453 . S
C2281 C1604 1.455 . S
C2277 C455 1.555 . S
C2295 C495 1.495 . S
C2299 C1612 1.376 . S
C2313 C541 1.553 . S
C2317 C1541 1.487 . S
C2331 C575 1.534 . S
C2335 C1572 1.450 . S
C2349 C621 1.587 . S
C2353 C1591 1.469 . S
C2371 C1467 1.442 . S
C2367 C335 1.538 . S
C2385 C375 1.508 . S
C2389 C1625 1.396 . S
C2407 C1499 1.487 . S
C2403 C421 1.553 . S
C2421 C461 1.557 . S
C2425 C1654 1.434 . S
C2439 C482 1.500 . S
C2443 C1376 1.394 . S
C2461 C1670 1.437 . S
C2457 C535 1.563 . S
C2475 C581 1.554 . S
C2479 C1415 1.456 . S
C2497 C1698 1.471 . S
C2493 C602 1.554 . S
C2511 C322 1.529 . S
C2515 C1646 1.453 . S
C2533 C1677 1.417 . S
C2529 C501 1.477 . S
C2547 C522 1.552 . S
C2551 C1423 1.455 . S
C2569 C1691 1.411 . S
C2565 C562 1.552 . S
C2583 C615 1.538 . S
C2587 C1383 1.450 . S
C2601 C415 1.554 . S
C2605 C1633 1.427 . S
C2619 C442 1.560 . S
C2623 C1507 1.445 . S
C2637 C381 1.538 . S
C2641 C1460 1.393 . S
C2655 C661 1.558 . S
C2659 C1586 1.462 . S
C2677 C1607 1.398 . S
C2673 C682 1.519 . S
C2691 C722 1.529 . S
C2695 C1551 1.468 . S
C2709 C775 1.546 . S
C2713 C1562 1.443 . S
C2727 C815 1.495 . S
C2731 C1570 1.373 . S
C2745 C861 1.536 . S
C2749 C1593 1.480 . S
C2767 C1614 1.453 . S
C2763 C895 1.536 . S
C2781 C941 1.595 . S
C2785 C1544 1.475 . S
C2803 C1709 1.451 . S
C2799 C655 1.546 . S
C2817 C695 1.503 . S
C2821 C1488 1.405 . S
C2839 C1730 1.472 . S
C2835 C741 1.547 . S
C2853 C781 1.556 . S
C2857 C1520 1.437 . S
C2871 C802 1.497 . S
C2875 C1754 1.403 . S
C2889 C855 1.559 . S
C2893 C1397 1.436 . S
C2911 C1775 1.433 . S
C2907 C901 1.559 . S
C2925 C922 1.559 . S
C2929 C1439 1.438 . S
C2947 C1528 1.454 . S
C2943 C642 1.532 . S
C2965 C1404 1.419 . S
C2961 C821 1.473 . S
C2979 C842 1.550 . S
C2983 C1782 1.494 . S
C2997 C882 1.549 . S
C3001 C1446 1.460 . S
C3019 C1761 1.446 . S
C3015 C935 1.540 . S
C3037 C1481 1.421 . S
C3033 C735 1.556 . S
C3055 C1738 1.430 . S
C3051 C762 1.551 . S
C3073 C1717 1.408 . S
C3069 C701 1.531 . S
C3087 C981 1.550 . S
C3091 C1331 1.479 . S
C3105 C1002 1.514 . S
C3109 C1352 1.410 . S
C3127 C1297 1.433 . S
C3123 C1042 1.531 . S
C3145 C1313 1.429 . S
C3141 C1095 1.555 . S
C3163 C1320 1.408 . S
C3159 C1135 1.497 . S
C3181 C1339 1.452 . S
C3177 C1181 1.541 . S
C3199 C1360 1.406 . S
C3195 C1215 1.541 . S
C3213 C1261 1.586 . S
C3217 C1289 1.480 . S
C3231 C975 1.545 . S
C3235 C1751 1.452 . S
C3253 C1667 1.412 . S
C3249 C1015 1.511 . S
C3271 C1772 1.486 . S
C3267 C1061 1.555 . S
C3289 C1696 1.435 . S
C3285 C1101 1.556 . S
C3303 C1122 1.492 . S
C3307 C1712 1.399 . S
C3325 C1628 1.420 . S
C3321 C1175 1.553 . S
C3343 C1733 1.428 . S
C3339 C1221 1.566 . S
C3357 C1242 1.553 . S
C3361 C1656 1.452 . S
C3379 C1688 1.454 . S
C3375 C962 1.529 . S
C3397 C1635 1.421 . S
C3393 C1141 1.475 . S
C3415 C1740 1.495 . S
C3411 C1162 1.553 . S
C3429 C1202 1.567 . S
C3433 C1649 1.445 . S
C3447 C1255 1.531 . S
C3451 C1719 1.430 . S
C3465 C1055 1.568 . S
C3469 C1675 1.457 . S
C3483 C1082 1.559 . S
C3487 C1780 1.442 . S
C3505 C1759 1.394 . S
C3501 C1021 1.530 . S
