# Generated by pormake.
# Topology zzz, (3,6)-cn, num edge types: 1
# Building blocks:
#     Node 0, Type 0, BuildingBlock: VETTIZ_charged_linker_0, # of connection points: 3
#     Node 1, Type 0, BuildingBlock: VETTIZ_charged_linker_0, # of connection points: 3
#     Node 2, Type 0, BuildingBlock: VETTIZ_charged_linker_0, # of connection points: 3
#     Node 3, Type 0, BuildingBlock: VETTIZ_charged_linker_0, # of connection points: 3
#     Node 4, Type 0, BuildingBlock: VETTIZ_charged_linker_0, # of connection points: 3
#     Node 5, Type 0, BuildingBlock: VETTIZ_charged_linker_0, # of connection points: 3
#     Node 6, Type 0, BuildingBlock: VETTIZ_charged_linker_0, # of connection points: 3
#     Node 7, Type 0, BuildingBlock: VETTIZ_charged_linker_0, # of connection points: 3
#     Node 8, Type 1, BuildingBlock: LEVNOQ01_clean_sbu_1, # of connection points: 6
#     Node 9, Type 1, BuildingBlock: LEVNOQ01_clean_sbu_1, # of connection points: 6
#     Node 10, Type 1, BuildingBlock: LEVNOQ01_clean_sbu_1, # of connection points: 6
#     Node 11, Type 1, BuildingBlock: LEVNOQ01_clean_sbu_1, # of connection points: 6
#     Edge 12, Type (0, 1), None
#     Edge 13, Type (0, 1), None
#     Edge 14, Type (0, 1), None
#     Edge 15, Type (0, 1), None
#     Edge 16, Type (0, 1), None
#     Edge 17, Type (0, 1), None
#     Edge 18, Type (0, 1), None
#     Edge 19, Type (0, 1), None
#     Edge 20, Type (0, 1), None
#     Edge 21, Type (0, 1), None
#     Edge 22, Type (0, 1), None
#     Edge 23, Type (0, 1), None
#     Edge 24, Type (0, 1), None
#     Edge 25, Type (0, 1), None
#     Edge 26, Type (0, 1), None
#     Edge 27, Type (0, 1), None
#     Edge 28, Type (0, 1), None
#     Edge 29, Type (0, 1), None
#     Edge 30, Type (0, 1), None
#     Edge 31, Type (0, 1), None
#     Edge 32, Type (0, 1), None
#     Edge 33, Type (0, 1), None
#     Edge 34, Type (0, 1), None
#     Edge 35, Type (0, 1), None
# Relax obj value: 0.317
# Max RMSD: 0.222
# Mean RMSD: 0.209
data_MOF--net-zzz--node1-LEVNOQ01_clean_sbu_1--node2-VETTIZ_charged_linker_0--edge1-none
_symmetry_space_group_name_H-M    P1
_symmetry_Int_Tables_number       1
_symmetry_cell_setting            triclinic
loop_
_symmetry_equiv_pos_as_xyz
'x, y, z'
_cell_length_a     29.352447
_cell_length_b     30.708067
_cell_length_c     11.680285
_cell_angle_alpha  89.739556
_cell_angle_beta   89.870099
_cell_angle_gamma 88.166235
loop_
_atom_site_label
_atom_site_type_symbol
_atom_site_fract_x
_atom_site_fract_y
_atom_site_fract_z
_atom_type_partial_charge
C0 C 0.83933 0.56154 0.53585 0.0
C1 C 0.88604 0.5714 0.554 0.0
C2 C 0.90361 0.60777 0.49672 0.0
C3 C 0.84013 0.606 0.3681 0.0
C4 C 0.81575 0.58174 0.44334 0.0
C5 C 0.76872 0.57393 0.39274 0.0
H6 H 0.65753 0.55512 0.87285 0.0
C7 C 0.82163 0.5995 0.25434 0.0
C8 C 0.77619 0.58679 0.2666 0.0
H9 H 0.59414 0.54771 0.20425 0.0
H10 H 0.66549 0.56591 0.29619 0.0
H11 H 0.74759 0.61977 0.88418 0.0
H12 H 0.77251 0.48714 0.9825 0.0
H13 H 0.74769 0.50008 0.84382 0.0
H14 H 0.71329 0.48959 0.9652 0.0
H15 H 0.73009 0.57714 0.79014 0.0
H16 H 0.78886 0.58115 0.82961 0.0
C17 C 0.73441 0.6052 0.45304 0.0
C18 C 0.75587 0.52594 0.40606 0.0
C19 C 0.93472 0.51153 0.02187 0.0
C20 C 0.92798 0.48168 0.93392 0.0
C21 C 0.88587 0.48256 0.87567 0.0
C22 C 0.85142 0.51279 0.90471 0.0
C23 C 0.8571 0.53939 -0.00011 0.0
C24 C 0.89829 0.53894 0.05625 0.0
C25 C 0.89795 0.57017 0.15419 0.0
C26 C 0.84717 0.5835 0.15904 0.0
C27 C 0.82429 0.56644 0.06507 0.0
C28 C 0.92671 0.60906 0.1191 0.0
C29 C 0.91677 0.54608 0.26251 0.0
C30 C 0.65796 0.56146 0.96409 0.0
C31 C 0.61921 0.55416 0.02992 0.0
C32 C 0.62266 0.5565 0.15088 0.0
C33 C 0.66402 0.56665 0.2045 0.0
C34 C 0.70304 0.57154 0.13696 0.0
C35 C 0.69969 0.56708 0.01899 0.0
C36 C 0.74492 0.55539 0.96638 0.0
C37 C 0.77632 0.56543 0.06501 0.0
C38 C 0.75207 0.57396 0.16639 0.0
C39 C 0.75341 0.5849 0.86148 0.0
C40 C 0.74489 0.50575 0.93749 0.0
H41 H 0.89656 0.64854 0.34724 0.0
H42 H 0.82373 0.53565 0.58365 0.0
H43 H 0.78274 0.50408 0.36815 0.0
H44 H 0.7233 0.51965 0.36238 0.0
H45 H 0.75181 0.51722 0.49786 0.0
H46 H 0.74516 0.63948 0.44481 0.0
H47 H 0.73235 0.59712 0.54577 0.0
H48 H 0.69985 0.60378 0.41727 0.0
H49 H 0.96793 0.51383 0.06132 0.0
H50 H 0.88062 0.46197 0.80218 0.0
H51 H 0.8222 0.51522 0.85038 0.0
H52 H 0.9194 0.61932 0.02937 0.0
H53 H 0.96359 0.60035 0.12609 0.0
H54 H 0.91871 0.63776 0.17243 0.0
H55 H 0.94097 0.51869 0.24291 0.0
H56 H 0.88903 0.53164 0.3134 0.0
H57 H 0.93716 0.5678 0.31567 0.0
H58 H 0.93796 0.61801 0.51307 0.0
C59 C 0.88069 0.62481 0.40065 0.0
C60 C 0.03808 0.871 0.85234 0.0
C61 C 0.04306 0.91379 0.89358 0.0
C62 C 0.01226 0.93051 0.97522 0.0
C63 C 0.97772 0.8613 -0.01048 0.0
C64 C 0.00378 0.84532 0.90014 0.0
C65 C 0.99565 0.79737 0.88352 0.0
H66 H 0.06439 0.62986 0.06601 0.0
C67 C 0.96286 0.82492 0.05905 0.0
C68 C 0.97209 0.78715 -0.00291 0.0
H69 H 0.97664 0.64296 0.76829 0.0
H70 H 0.93954 0.7077 0.85434 0.0
H71 H 0.08129 0.73353 0.12497 0.0
H72 H 0.96427 0.6757 0.28731 0.0
H73 H 0.01134 0.69172 0.37156 0.0
H74 H 0.0169 0.64374 0.28485 0.0
H75 H 0.09027 0.68534 0.2117 0.0
H76 H 0.0741 0.73639 0.27717 0.0
C77 C 0.04177 0.77226 0.86615 0.0
C78 C 0.96232 0.79088 0.78275 0.0
C79 C 0.95334 0.8587 0.47651 0.0
C80 C 0.99074 0.85292 0.54816 0.0
C81 C 0.0179 0.81388 0.53696 0.0
C82 C 0.01084 0.78436 0.4462 0.0
C83 C 0.9792 0.79607 0.36078 0.0
C84 C 0.95436 0.83534 0.3738 0.0
C85 C 0.95241 0.8593 0.26235 0.0
C86 C 0.96333 0.8229 0.17995 0.0
C87 C 0.97981 0.78517 0.23651 0.0
C88 C 0.99077 0.89399 0.26452 0.0
C89 C 0.90402 0.87867 0.24321 0.0
C90 C 0.03566 0.64523 0.02209 0.0
C91 C 0.02386 0.63204 0.9087 0.0
C92 C 0.98635 0.65254 0.85382 0.0
C93 C 0.96577 0.68986 0.9012 0.0
C94 C 0.98216 0.70511 0.00516 0.0
C95 C 0.01165 0.68109 0.07273 0.0
C96 C 0.01841 0.70482 0.18755 0.0
C97 C 0.98861 0.74653 0.16983 0.0
C98 C 0.97436 0.74725 0.05577 0.0
C99 C 0.06893 0.71564 0.20131 0.0
C100 C 1.00179 0.67736 0.28858 0.0
H101 H 0.954 0.91907 0.07688 0.0
H102 H 0.06069 0.85811 0.7867 0.0
H103 H 0.92819 0.78104 0.81276 0.0
H104 H 0.9753 0.76557 0.72222 0.0
H105 H 0.95582 0.82149 0.73435 0.0
H106 H 0.06415 0.77608 0.94183 0.0
H107 H 0.05979 0.78431 0.78935 0.0
H108 H 0.03746 0.73717 0.85105 0.0
H109 H 0.93463 0.88974 0.47842 0.0
H110 H 0.04756 0.80868 0.59082 0.0
H111 H 0.03441 0.75707 0.43542 0.0
H112 H 0.00975 0.89559 0.34602 0.0
H113 H 0.97695 0.9277 0.25132 0.0
H114 H 0.01856 0.8862 0.20278 0.0
H115 H 0.89674 0.88497 0.15161 0.0
H116 H 0.89975 0.90964 0.29062 0.0
H117 H 0.8779 0.85575 0.27324 0.0
H118 H 0.01445 0.96368 0.00565 0.0
C119 C 0.97795 0.905 0.01776 0.0
C120 C 0.86166 0.97455 0.11032 0.0
C121 C 0.88047 0.96434 0.00036 0.0
C122 C 0.85838 0.93405 0.93113 0.0
C123 C 0.79589 0.93355 0.06533 0.0
C124 C 0.81946 0.95734 0.14283 0.0
C125 C 0.79056 0.96559 0.25043 0.0
H126 H 0.57939 0.93998 0.50248 0.0
C127 C 0.74977 0.92857 0.10665 0.0
C128 C 0.74625 0.94301 0.21955 0.0
H129 H 0.69002 0.01462 0.62979 0.0
H130 H 0.73865 0.98865 0.47612 0.0
H131 H 0.57039 0.97734 0.32946 0.0
H132 H 0.63124 0.85493 0.34151 0.0
H133 H 0.59548 0.86402 0.21936 0.0
H134 H 0.57419 0.87734 0.35975 0.0
H135 H 0.55452 0.94239 0.2218 0.0
H136 H 0.59826 0.98284 0.19774 0.0
C137 C 0.78297 0.01526 0.26422 0.0
C138 C 0.81426 0.94393 0.3543 0.0
C139 C 0.62519 0.99909 0.91067 0.0
C140 C 0.57904 1.00173 0.94487 0.0
C141 C 0.55888 0.96419 0.98715 0.0
C142 C 0.58611 0.92806 0.02044 0.0
C143 C 0.63308 0.9315 0.012 0.0
C144 C 0.65129 0.96127 0.93816 0.0
C145 C 0.70218 0.95392 0.93057 0.0
C146 C 0.71022 0.92708 0.04015 0.0
C147 C 0.66864 0.91867 0.09427 0.0
C148 C 0.72686 0.99778 0.9281 0.0
C149 C 0.71337 0.92676 0.82266 0.0
C150 C 0.61487 0.94872 0.50048 0.0
C151 C 0.63071 0.97901 0.5785 0.0
C152 C 0.67669 0.9913 0.57021 0.0
C153 C 0.70498 0.97635 0.48033 0.0
C154 C 0.6867 0.95046 0.39419 0.0
C155 C 0.64186 0.93779 0.40448 0.0
C156 C 0.62285 0.92377 0.29192 0.0
C157 C 0.66539 0.92443 0.2156 0.0
C158 C 0.70322 0.93955 0.27698 0.0
C159 C 0.58484 0.95804 0.2573 0.0
C160 C 0.60482 0.87739 0.30367 0.0
H161 H 0.7987 0.89579 0.90971 0.0
H162 H 0.87843 0.99666 0.16723 0.0
H163 H 0.82045 0.90866 0.33822 0.0
H164 H 0.79362 0.946 0.4329 0.0
H165 H 0.8472 0.95941 0.37179 0.0
H166 H 0.77362 0.03062 0.18076 0.0
H167 H 0.81447 0.03044 0.29532 0.0
H168 H 0.75488 0.02377 0.32359 0.0
H169 H 0.64088 0.02699 0.87236 0.0
H170 H 0.52339 0.9659 0.00935 0.0
H171 H 0.57136 0.90136 0.06591 0.0
H172 H 0.71839 0.01727 0.00567 0.0
H173 H 0.71706 0.01703 0.85081 0.0
H174 H 0.76431 0.99304 0.92289 0.0
H175 H 0.70729 0.89161 0.83716 0.0
H176 H 0.7491 0.93048 0.7945 0.0
H177 H 0.69162 0.93764 0.74998 0.0
H178 H 0.87254 0.92448 0.84898 0.0
C179 C 0.81593 0.9184 0.96384 0.0
C180 C 0.50001 0.69644 0.53005 0.0
C181 C 0.52341 0.65567 0.55027 0.0
C182 C 0.55806 0.64224 0.47294 0.0
C183 C 0.52783 0.69465 0.33814 0.0
C184 C 0.50549 0.71725 0.42281 0.0
C185 C 0.48061 0.75695 0.37035 0.0
H186 H 0.43061 0.8366 0.82134 0.0
C187 C 0.50701 0.70733 0.22982 0.0
C188 C 0.49001 0.75049 0.24126 0.0
H189 H 0.48279 0.91878 0.08553 0.0
H190 H 0.49568 0.85501 0.21004 0.0
H191 H 0.48395 0.7376 0.86428 0.0
H192 H 0.3623 0.80533 0.96114 0.0
H193 H 0.35585 0.75472 0.03249 0.0
H194 H 0.35935 0.75709 0.87838 0.0
H195 H 0.43791 0.76067 0.77956 0.0
H196 H 0.43261 0.70842 0.84431 0.0
C197 C 0.50136 0.79882 0.41524 0.0
C198 C 0.42918 0.75633 0.39748 0.0
C199 C 0.42721 0.58083 0.04628 0.0
C200 C 0.39684 0.5805 0.95352 0.0
C201 C 0.37025 0.61855 0.92933 0.0
C202 C 0.38186 0.65835 0.97749 0.0
C203 C 0.41972 0.65922 0.0498 0.0
C204 C 0.43949 0.62097 0.09045 0.0
C205 C 0.47971 0.62887 0.16616 0.0
C206 C 0.48045 0.67853 0.16421 0.0
C207 C 0.44553 0.69529 0.0942 0.0
C208 C 0.52252 0.60871 0.10915 0.0
C209 C 0.47035 0.60908 0.28565 0.0
C210 C 0.44619 0.84111 0.90431 0.0
C211 C 0.46062 0.88247 0.93719 0.0
C212 C 0.47713 0.88711 0.05055 0.0
C213 C 0.48213 0.85075 0.12524 0.0
C214 C 0.46594 0.8105 0.09037 0.0
C215 C 0.44735 0.80651 0.98248 0.0
C216 C 0.42584 0.76332 0.96574 0.0
C217 C 0.44096 0.74034 0.07537 0.0
C218 C 0.46242 0.76838 0.15111 0.0
C219 C 0.44622 0.74118 0.85755 0.0
C220 C 0.37322 0.77032 0.95905 0.0
H221 H 0.58169 0.64705 0.29937 0.0
H222 H 0.47438 0.70856 0.58968 0.0
H223 H 0.41457 0.7253 0.36838 0.0
H224 H 0.41073 0.78375 0.35346 0.0
H225 H 0.42298 0.7597 0.49093 0.0
H226 H 0.53721 0.80139 0.38566 0.0
H227 H 0.50108 0.79903 0.51043 0.0
H228 H 0.48131 0.82793 0.38571 0.0
H229 H 0.44707 0.55168 0.06871 0.0
H230 H 0.34536 0.61898 0.86096 0.0
H231 H 0.36374 0.68732 0.95014 0.0
H232 H 0.52364 0.61694 0.01632 0.0
H233 H 0.52277 0.57274 0.1186 0.0
H234 H 0.55384 0.62101 0.14692 0.0
H235 H 0.44948 0.63194 0.3393 0.0
H236 H 0.50227 0.59995 0.33075 0.0
H237 H 0.45173 0.57824 0.27902 0.0
H238 H 0.57806 0.61249 0.48789 0.0
C239 C 0.55935 0.66102 0.36364 0.0
C240 C 0.39726 0.47094 0.30954 0.0
C241 C 0.41296 0.46508 0.42388 0.0
C242 C 0.39685 0.42992 0.48893 0.0
C243 C 0.33904 0.41996 0.34718 0.0
C244 C 0.36064 0.44627 0.27086 0.0
C245 C 0.3329 0.45082 0.16076 0.0
H246 H 0.12361 0.41797 0.91296 0.0
C247 C 0.29308 0.41351 0.30732 0.0
C248 C 0.28963 0.42668 0.19306 0.0
H249 H 0.23413 0.49068 0.77541 0.0
H250 H 0.28376 0.46483 0.92775 0.0
H251 H 0.1773 0.3367 0.10577 0.0
H252 H 0.11536 0.46084 0.07454 0.0
H253 H 0.14109 0.46853 0.20684 0.0
H254 H 0.09709 0.4282 0.18582 0.0
H255 H 0.12308 0.35742 0.05614 0.0
H256 H 0.1339 0.35179 0.20764 0.0
C257 C 0.35975 0.42747 0.06469 0.0
C258 C 0.32292 0.49963 0.13603 0.0
C259 C 0.17137 0.48826 0.51396 0.0
C260 C 0.12552 0.49433 0.47971 0.0
C261 C 0.10366 0.45932 0.42769 0.0
C262 C 0.12893 0.4221 0.39403 0.0
C263 C 0.1761 0.42255 0.40363 0.0
C264 C 0.19592 0.4504 0.47918 0.0
C265 C 0.24671 0.44114 0.48468 0.0
C266 C 0.25334 0.41469 0.37461 0.0
C267 C 0.2113 0.4073 0.32269 0.0
C268 C 0.25813 0.41255 0.59084 0.0
C269 C 0.27243 0.4845 0.48608 0.0
C270 C 0.15928 0.42615 0.91248 0.0
C271 C 0.17474 0.45616 0.83295 0.0
C272 C 0.22108 0.46767 0.83696 0.0
C273 C 0.24973 0.45328 0.92658 0.0
C274 C 0.23099 0.42981 0.01741 0.0
C275 C 0.18607 0.41727 0.0098 0.0
C276 C 0.16643 0.40725 0.12493 0.0
C277 C 0.20843 0.4101 0.20096 0.0
C278 C 0.24675 0.42248 0.13666 0.0
C279 C 0.149 0.36063 0.12411 0.0
C280 C 0.12828 0.44263 0.15053 0.0
H281 H 0.34325 0.38391 0.50633 0.0
H282 H 0.4094 0.49748 0.25756 0.0
H283 H 0.31195 0.51679 0.21558 0.0
H284 H 0.29513 0.50521 0.0739 0.0
H285 H 0.35383 0.51536 0.10281 0.0
H286 H 0.36713 0.39306 0.08983 0.0
H287 H 0.39259 0.44353 0.04894 0.0
H288 H 0.34093 0.42669 0.98334 0.0
H289 H 0.18801 0.51375 0.55974 0.0
H290 H 0.06828 0.46251 0.4025 0.0
H291 H 0.11259 0.39629 0.34947 0.0
H292 H 0.25924 0.37726 0.56969 0.0
H293 H 0.23197 0.41689 0.65846 0.0
H294 H 0.29141 0.42068 0.62887 0.0
H295 H 0.26402 0.50443 0.40882 0.0
H296 H 0.30973 0.47943 0.49021 0.0
H297 H 0.26353 0.50368 0.56371 0.0
H298 H 0.40865 0.4244 0.5758 0.0
C299 C 0.35892 0.40752 0.45123 0.0
C300 C 0.93102 0.13964 0.59928 0.0
C301 C 0.91142 0.09989 0.57038 0.0
C302 C 0.89186 0.09507 0.46196 0.0
C303 C 0.92519 0.16271 0.40335 0.0
C304 C 0.93972 0.16966 0.51351 0.0
C305 C 0.97336 0.20553 0.52195 0.0
H306 H 0.00369 0.38894 0.28189 0.0
C307 C 0.95112 0.19122 0.32802 0.0
C308 C 0.97917 0.2168 0.39625 0.0
H309 H 0.04707 0.34969 0.62184 0.0
H310 H 0.04857 0.27404 0.56327 0.0
H311 H 0.0797 0.29542 0.13611 0.0
H312 H 0.9348 0.3093 0.21238 0.0
H313 H 0.9533 0.2988 0.06765 0.0
H314 H 0.96181 0.35124 0.13046 0.0
H315 H 0.04806 0.34438 0.09195 0.0
H316 H 0.03854 0.2935 0.02204 0.0
C317 C 0.01843 0.18709 0.57488 0.0
C318 C 0.95096 0.24281 0.59275 0.0
C319 C 0.97758 0.13974 0.93017 0.0
C320 C 0.02203 0.13245 0.88944 0.0
C321 C 0.05573 0.16218 0.92025 0.0
C322 C 0.04483 0.19736 -0.00483 0.0
C323 C 1.00113 0.20038 0.04533 0.0
C324 C 0.97005 0.16889 0.0196 0.0
C325 C 0.94045 0.15837 0.12118 0.0
C326 C 0.95756 0.19034 0.20826 0.0
C327 C 0.98873 0.21803 0.15862 0.0
C328 C 0.94991 0.10981 0.15881 0.0
C329 C 0.89031 0.16886 0.089 0.0
C330 C 0.01593 0.36427 0.3418 0.0
C331 C 0.02381 0.37514 0.4582 0.0
C332 C 0.04021 0.34223 0.53301 0.0
C333 C 0.0396 0.29848 0.50052 0.0
C334 C 0.02388 0.28812 0.39136 0.0
C335 C 0.01896 0.31998 0.30848 0.0
C336 C 0.00887 0.29936 0.19311 0.0
C337 C 0.00847 0.251 0.22463 0.0
C338 C 0.00874 0.24688 0.34402 0.0
C339 C 0.04619 0.30867 0.10566 0.0
C340 C 0.96192 0.31567 0.14839 0.0
H341 H 0.88122 0.12347 0.2976 0.0
H342 H 0.94612 0.14447 0.68262 0.0
H343 H 0.92278 0.25927 0.54402 0.0
H344 H 0.97525 0.26745 0.61871 0.0
H345 H 0.93651 0.22992 0.67373 0.0
H346 H 0.04839 0.20522 0.54695 0.0
H347 H 0.02558 0.15292 0.54717 0.0
H348 H 0.01676 0.18742 0.66991 0.0
H349 H 0.95222 0.11559 0.91596 0.0
H350 H 0.09075 0.15639 0.89357 0.0
H351 H 0.07167 0.21782 0.02484 0.0
H352 H 0.97623 0.0923 0.10689 0.0
H353 H 0.91877 0.09038 0.15312 0.0
H354 H 0.96417 0.10693 0.24629 0.0
H355 H 0.88702 0.20093 0.04455 0.0
H356 H 0.8679 0.17121 0.1651 0.0
H357 H 0.87733 0.14365 0.0306 0.0
H358 H 0.87554 0.06518 0.43925 0.0
C359 C 0.89654 0.12798 0.37957 0.0
C360 C 0.2974 0.07801 0.89391 0.0
C361 C 0.34304 0.08902 0.86784 0.0
C362 C 0.35857 0.12983 0.90316 0.0
C363 C 0.29571 0.13402 0.03436 0.0
C364 C 0.27311 0.10253 0.97706 0.0
C365 C 0.22967 0.09174 0.04186 0.0
H366 H 0.1363 0.07737 0.57885 0.0
C367 C 0.28078 0.13314 0.15279 0.0
C368 C 0.23811 0.11369 0.15742 0.0
H369 H 0.0786 0.03131 0.26604 0.0
H370 H 0.13512 0.06996 0.15518 0.0
H371 H 0.26088 0.03968 0.4783 0.0
H372 H 0.19511 0.16655 0.52354 0.0
H373 H 0.24875 0.14946 0.58129 0.0
H374 H 0.19731 0.12795 0.64005 0.0
H375 H 0.20557 0.03 0.52256 0.0
H376 H 0.24027 0.05767 0.61835 0.0
C377 C 0.22576 0.0419 0.05373 0.0
C378 C 0.1891 0.11352 0.97761 0.0
C379 C 0.4015 0.06761 0.40363 0.0
C380 C 0.3924 0.04135 0.4982 0.0
C381 C 0.35451 0.05214 0.56743 0.0
C382 C 0.32604 0.08789 0.5414 0.0
C383 C 0.32857 0.10562 0.432 0.0
C384 C 0.36727 0.0976 0.36675 0.0
C385 C 0.36037 0.11177 0.24524 0.0
C386 C 0.31013 0.12816 0.24838 0.0
C387 C 0.29113 0.1207 0.35668 0.0
C388 C 0.36775 0.0706 0.16996 0.0
C389 C 0.39466 0.14734 0.21688 0.0
C390 C 0.13361 0.07866 0.48623 0.0
C391 C 0.10225 0.05259 0.43156 0.0
C392 C 0.1019 0.052 0.31051 0.0
C393 C 0.13553 0.07344 0.24645 0.0
C394 C 0.1716 0.09281 0.30451 0.0
C395 C 0.17021 0.09456 0.42301 0.0
C396 C 0.21663 0.10019 0.47282 0.0
C397 C 0.24383 0.11184 0.36629 0.0
C398 C 0.21755 0.10662 0.2668 0.0
C399 C 0.23196 0.05509 0.52601 0.0
C400 C 0.21449 0.13798 0.5597 0.0
H401 H 0.34862 0.18115 0.02749 0.0
H402 H 0.28371 0.04807 0.86223 0.0
H403 H 0.19602 0.14813 0.95738 0.0
H404 H 0.15738 0.11393 0.02825 0.0
H405 H 0.183 0.09649 0.89553 0.0
H406 H 0.25799 0.02708 0.08827 0.0
H407 H 0.21885 0.02692 0.9694 0.0
H408 H 0.1982 0.03282 0.11254 0.0
H409 H 0.43129 0.06049 0.35131 0.0
H410 H 0.34542 0.03175 0.63819 0.0
H411 H 0.29988 0.09739 0.60102 0.0
H412 H 0.34523 0.04413 0.19826 0.0
H413 H 0.4037 0.05828 0.1722 0.0
H414 H 0.3608 0.07667 0.08009 0.0
H415 H 0.38098 0.18017 0.24131 0.0
H416 H 0.40449 0.14726 0.12547 0.0
H417 H 0.42722 0.14123 0.26304 0.0
H418 H 0.39216 0.14038 0.8793 0.0
C419 C 0.33449 0.1527 -0.01134 0.0
C420 C 0.46824 0.35846 -0.0019 0.0
C421 C 0.4936 0.38172 0.91446 0.0
C422 C 0.54023 0.37001 0.90098 0.0
C423 C 0.53868 0.33234 0.07976 0.0
C424 C 0.49224 0.33026 0.0754 0.0
C425 C 0.47629 0.30069 0.17252 0.0
H426 H 0.51779 0.21827 0.69676 0.0
C427 C 0.55499 0.31634 0.18873 0.0
C428 C 0.52167 0.2898 0.23466 0.0
H429 H 0.4837 0.13058 0.42594 0.0
H430 H 0.48781 0.19135 0.28635 0.0
H431 H 0.59424 0.22057 0.61265 0.0
H432 H 0.50183 0.33033 0.57011 0.0
H433 H 0.55599 0.34064 0.63245 0.0
H434 H 0.52015 0.30239 0.69869 0.0
H435 H 0.60462 0.27112 0.6803 0.0
H436 H 0.62666 0.25822 0.53909 0.0
C437 C 0.4548 0.25995 0.12287 0.0
C438 C 0.44241 0.3256 0.25126 0.0
C439 C 0.60663 0.43378 0.44981 0.0
C440 C 0.61534 0.43057 0.56864 0.0
C441 C 0.63542 0.39164 0.61226 0.0
C442 C 0.63439 0.35368 0.54749 0.0
C443 C 0.61349 0.35583 0.44026 0.0
C444 C 0.60709 0.3952 0.38523 0.0
C445 C 0.59149 0.38859 0.26329 0.0
C446 C 0.58318 0.33925 0.26448 0.0
C447 C 0.59069 0.32262 0.37476 0.0
C448 C 0.63024 0.40091 0.18147 0.0
C449 C 0.54775 0.41661 0.23939 0.0
C450 C 0.50747 0.21256 0.60908 0.0
C451 C 0.49887 0.17006 0.5736 0.0
C452 C 0.48839 0.16331 0.45688 0.0
C453 C 0.49059 0.19817 0.37665 0.0
C454 C 0.50489 0.23914 0.41331 0.0
C455 C 0.51679 0.24417 0.52694 0.0
C456 C 0.55296 0.27742 0.54193 0.0
C457 C 0.56111 0.29074 0.41814 0.0
C458 C 0.52875 0.27236 0.34645 0.0
C459 C 0.59668 0.25604 0.59669 0.0
C460 C 0.53177 0.31491 0.61444 0.0
H461 H 0.60032 0.34295 0.98432 0.0
H462 H 0.43198 0.36408 0.00684 0.0
H463 H 0.45755 0.35573 0.28443 0.0
H464 H 0.43302 0.30501 0.32559 0.0
H465 H 0.41069 0.3349 0.20423 0.0
H466 H 0.48061 0.23967 0.07573 0.0
H467 H 0.42688 0.26939 0.06268 0.0
H468 H 0.43984 0.24003 0.1919 0.0
H469 H 0.59408 0.46417 0.41263 0.0
H470 H 0.64561 0.38902 0.7012 0.0
H471 H 0.64644 0.32367 0.5855 0.0
H472 H 0.64226 0.43398 0.20172 0.0
H473 H 0.61872 0.40201 0.09144 0.0
H474 H 0.65967 0.37738 0.18898 0.0
H475 H 0.51992 0.40764 0.29882 0.0
H476 H 0.5358 0.41292 0.15034 0.0
H477 H 0.55404 0.45182 0.24969 0.0
H478 H 0.55987 0.38295 0.83194 0.0
C479 C 0.56361 0.34731 0.98747 0.0
O480 O 0.10866 0.92928 0.78565 0.0
Mg481 Mg 0.08643 0.95053 0.61846 0.0
O482 O 0.06154 0.98146 0.8231 0.0
Mg483 Mg 1.00069 0.99919 0.71195 0.0
O484 O 0.05651 0.01248 0.56983 0.0
O485 O 0.12067 0.98169 0.4954 0.0
O486 O 0.94243 0.02852 0.60216 0.0
O487 O 0.01684 0.07538 0.75517 0.0
Mg488 Mg 0.96894 0.03395 0.8651 0.0
O489 O 0.94184 0.97637 0.86051 0.0
O490 O 0.92931 0.07206 0.74888 0.0
O491 O 0.03201 0.05848 0.92887 0.0
O492 O 0.92834 0.02531 0.0011 0.0
C493 C 0.01172 0.89312 0.5913 0.0
C494 C 0.07655 0.94378 0.84796 0.0
C495 C 0.0903 0.01312 0.49623 0.0
C496 C 0.92301 0.06271 0.64471 0.0
C497 C 0.0326 0.08717 0.85121 0.0
C498 C 0.91938 0.98895 0.95313 0.0
O499 O 0.05212 0.8985 0.55872 0.0
O500 O 0.98904 0.92411 0.64328 0.0
O501 O 0.36511 0.01543 0.83509 0.0
Mg502 Mg 0.4127 0.97534 0.7511 0.0
O503 O 0.41711 0.06329 0.80085 0.0
Mg504 Mg 0.48647 0.02588 0.74407 0.0
O505 O 0.47109 0.95369 0.83696 0.0
O506 O 0.40582 0.91719 0.81867 0.0
O507 O 0.55785 0.99282 0.67448 0.0
O508 O 0.51186 0.04422 0.92005 0.0
Mg509 Mg 0.56147 0.08313 0.75521 0.0
O510 O 0.50029 0.09712 0.66522 0.0
O511 O 0.60756 0.04518 0.66291 0.0
O512 O 0.57421 0.07788 0.93259 0.0
O513 O 0.55722 0.1433 0.69591 0.0
C514 C 0.42202 1.00339 0.52664 0.0
C515 C 0.37656 0.05455 0.83185 0.0
C516 C 0.44596 0.91992 0.8618 0.0
C517 C 0.59757 0.0061 0.64603 0.0
C518 C 0.55304 0.04358 0.95159 0.0
C519 C 0.51896 0.13486 0.64776 0.0
O520 O 0.40238 0.9723 0.57453 0.0
O521 O 0.46129 0.01247 0.56198 0.0
O522 O 0.4808 0.4555 0.95028 0.0
Mg523 Mg 0.54148 0.48144 0.87345 0.0
O524 O 0.49272 0.43925 0.77559 0.0
Mg525 Mg 0.50852 0.51644 0.72579 0.0
O526 O 0.5623 0.5418 0.88132 0.0
O527 O 0.57855 0.49007 0.01422 0.0
O528 O 0.52422 0.58708 0.65153 0.0
O529 O 0.45173 0.54196 0.84727 0.0
Mg530 Mg 0.42944 0.55752 0.62992 0.0
O531 O 0.45855 0.49866 0.57159 0.0
O532 O 0.45857 0.61889 0.60807 0.0
O533 O 0.38459 0.55252 0.76905 0.0
O534 O 0.40426 0.53832 0.47869 0.0
C535 C 0.59074 0.4598 0.64927 0.0
C536 C 0.48004 0.42662 0.87464 0.0
C537 C 0.58301 0.52899 0.97595 0.0
C538 C 0.50126 0.62075 0.61666 0.0
C539 C 0.40939 0.5519 0.85723 0.0
C540 C 0.42883 0.50297 0.48839 0.0
O541 O 0.58542 0.4473 0.75208 0.0
O542 O 0.56621 0.49143 0.61199 0.0
O543 O 0.95883 0.42788 0.8172 0.0
Mg544 Mg 0.95513 0.45055 0.64934 0.0
O545 O 0.99587 0.4875 0.84493 0.0
Mg546 Mg 0.03006 0.50871 0.67843 0.0
O547 O 0.01721 0.44317 0.56747 0.0
O548 O 0.95495 0.40462 0.52837 0.0
O549 O 0.05921 0.53662 0.51672 0.0
O550 O 0.10143 0.47444 0.74428 0.0
Mg551 Mg 0.11239 0.57545 0.70658 0.0
O552 O 0.04708 0.57268 0.77916 0.0
O553 O 0.12247 0.5695 0.52551 0.0
O554 O 0.15141 0.52602 0.77866 0.0
O555 O 0.09525 0.62612 0.81396 0.0
C556 C 0.91858 0.53832 0.60424 0.0
C557 C 0.96743 0.46002 0.87957 0.0
C558 C 0.99767 0.41129 0.51334 0.0
C559 C 0.10092 0.53697 0.49113 0.0
C560 C 0.14112 0.48636 0.77759 0.0
C561 C 0.05691 0.60812 0.8345 0.0
O562 O 0.90583 0.49965 0.61232 0.0
O563 O 0.96078 0.54643 0.61964 0.0
loop_
_geom_bond_atom_site_label_1
_geom_bond_atom_site_label_2
_geom_bond_distance
_geom_bond_site_symmetry_2
_ccdc_geom_bond_type
C0 C1 1.391 . S
C0 C4 1.391 . S
C0 H42 0.948 . S
C1 C0 1.391 . S
C1 C2 1.391 . S
C2 C1 1.391 . S
C2 H58 0.947 . S
C2 C59 1.392 . S
C3 C4 1.391 . S
C3 C7 1.397 . S
C3 C59 1.419 . S
C4 C0 1.391 . S
C4 C3 1.391 . S
C4 C5 1.399 . S
C5 C4 1.399 . S
C5 C8 1.396 . S
C5 C17 1.453 . S
C5 C18 1.684 . S
H6 C30 0.948 . S
C7 C3 1.397 . S
C7 C8 1.394 . S
C7 C26 1.723 . S
C8 C5 1.396 . S
C8 C7 1.394 . S
C8 C38 1.723 . S
H9 C32 0.947 . S
H10 C33 0.948 . S
H11 C39 0.982 . S
H12 C40 0.979 . S
H13 C40 0.980 . S
H14 C40 0.983 . S
H15 C39 0.979 . S
H16 C39 0.977 . S
C17 C5 1.453 . S
C17 H46 0.982 . S
C17 H47 0.979 . S
C17 H48 0.977 . S
C18 C5 1.684 . S
C18 H43 0.979 . S
C18 H44 0.980 . S
C18 H45 0.983 . S
C19 C20 1.391 . S
C19 C24 1.391 . S
C19 H49 0.948 . S
C20 C19 1.391 . S
C20 C21 1.391 . S
C21 C20 1.391 . S
C21 C22 1.392 . S
C21 H50 0.947 . S
C22 C21 1.392 . S
C22 C23 1.419 . S
C22 H51 0.948 . S
C23 C22 1.419 . S
C23 C24 1.391 . S
C23 C27 1.397 1_556 S
C24 C19 1.391 . S
C24 C23 1.391 . S
C24 C25 1.399 1_556 S
C25 C24 1.399 1_554 S
C25 C26 1.396 . S
C25 C28 1.453 . S
C25 C29 1.684 . S
C26 C7 1.723 . S
C26 C25 1.396 . S
C26 C27 1.394 . S
C27 C23 1.397 1_554 S
C27 C26 1.394 . S
C27 C37 1.723 1_554 S
C28 C25 1.453 . S
C28 H52 0.982 . S
C28 H53 0.979 . S
C28 H54 0.977 . S
C29 C25 1.684 . S
C29 H55 0.979 . S
C29 H56 0.980 . S
C29 H57 0.983 . S
C30 H6 0.948 . S
C30 C31 1.391 1_556 S
C30 C35 1.391 . S
C31 C30 1.391 1_554 S
C31 C32 1.391 . S
C32 H9 0.947 . S
C32 C31 1.391 . S
C32 C33 1.392 . S
C33 H10 0.948 . S
C33 C32 1.392 . S
C33 C34 1.419 . S
C34 C33 1.419 . S
C34 C35 1.391 1_554 S
C34 C38 1.397 . S
C35 C30 1.391 . S
C35 C34 1.391 1_556 S
C35 C36 1.399 . S
C36 C35 1.399 . S
C36 C37 1.396 . S
C36 C39 1.453 . S
C36 C40 1.684 . S
C37 C27 1.723 1_556 S
C37 C36 1.396 . S
C37 C38 1.394 1_556 S
C38 C8 1.723 . S
C38 C34 1.397 . S
C38 C37 1.394 1_554 S
C39 H11 0.982 . S
C39 H15 0.979 . S
C39 H16 0.977 . S
C39 C36 1.453 . S
C40 H12 0.979 . S
C40 H13 0.980 . S
C40 H14 0.983 . S
C40 C36 1.684 . S
H41 C59 0.948 . S
H42 C0 0.948 . S
H43 C18 0.979 . S
H44 C18 0.980 . S
H45 C18 0.983 . S
H46 C17 0.982 . S
H47 C17 0.979 . S
H48 C17 0.977 . S
H49 C19 0.948 . S
H50 C21 0.947 . S
H51 C22 0.948 . S
H52 C28 0.982 . S
H53 C28 0.979 . S
H54 C28 0.977 . S
H55 C29 0.979 . S
H56 C29 0.980 . S
H57 C29 0.983 . S
H58 C2 0.947 . S
C59 C2 1.392 . S
C59 C3 1.419 . S
C59 H41 0.948 . S
C60 C61 1.391 . S
C60 C64 1.391 . S
C60 H102 0.948 . S
C61 C60 1.391 . S
C61 C62 1.391 . S
C62 C61 1.391 . S
C62 H118 0.947 . S
C62 C119 1.392 . S
C63 C64 1.391 . S
C63 C67 1.397 1_656 S
C63 C119 1.419 . S
C64 C60 1.391 . S
C64 C63 1.391 . S
C64 C65 1.399 . S
C65 C64 1.399 . S
C65 C68 1.396 1_655 S
C65 C77 1.453 1_655 S
C65 C78 1.684 . S
H66 C90 0.948 . S
C67 C63 1.397 1_454 S
C67 C68 1.394 1_554 S
C67 C86 1.723 . S
C68 C65 1.396 1_455 S
C68 C67 1.394 1_556 S
C68 C98 1.723 1_556 S
H69 C92 0.947 . S
H70 C93 0.948 . S
H71 C99 0.982 . S
H72 C100 0.979 . S
H73 C100 0.980 . S
H74 C100 0.983 . S
H75 C99 0.979 . S
H76 C99 0.977 . S
C77 C65 1.453 1_455 S
C77 H106 0.982 . S
C77 H107 0.979 . S
C77 H108 0.977 . S
C78 C65 1.684 . S
C78 H103 0.979 . S
C78 H104 0.980 . S
C78 H105 0.983 . S
C79 C80 1.391 . S
C79 C84 1.391 . S
C79 H109 0.948 . S
C80 C79 1.391 . S
C80 C81 1.391 . S
C81 C80 1.391 . S
C81 C82 1.392 . S
C81 H110 0.947 . S
C82 C81 1.392 . S
C82 C83 1.419 . S
C82 H111 0.948 . S
C83 C82 1.419 . S
C83 C84 1.391 . S
C83 C87 1.397 1_655 S
C84 C79 1.391 . S
C84 C83 1.391 . S
C84 C85 1.399 . S
C85 C84 1.399 . S
C85 C86 1.396 1_655 S
C85 C88 1.453 1_655 S
C85 C89 1.684 . S
C86 C67 1.723 . S
C86 C85 1.396 1_455 S
C86 C87 1.394 . S
C87 C83 1.397 1_455 S
C87 C86 1.394 . S
C87 C97 1.723 . S
C88 C85 1.453 1_455 S
C88 H112 0.982 . S
C88 H113 0.979 . S
C88 H114 0.977 . S
C89 C85 1.684 . S
C89 H115 0.979 . S
C89 H116 0.980 . S
C89 H117 0.983 . S
C90 H66 0.948 . S
C90 C91 1.391 1_554 S
C90 C95 1.391 . S
C91 C90 1.391 1_556 S
C91 C92 1.391 . S
C92 H69 0.947 . S
C92 C91 1.391 . S
C92 C93 1.392 . S
C93 H70 0.948 . S
C93 C92 1.392 . S
C93 C94 1.419 1_556 S
C94 C93 1.419 1_554 S
C94 C95 1.391 . S
C94 C98 1.397 1_655 S
C95 C90 1.391 . S
C95 C94 1.391 . S
C95 C96 1.399 . S
C96 C95 1.399 . S
C96 C97 1.396 1_655 S
C96 C99 1.453 1_655 S
C96 C100 1.684 . S
C97 C87 1.723 . S
C97 C96 1.396 1_455 S
C97 C98 1.394 . S
C98 C68 1.723 1_554 S
C98 C94 1.397 1_455 S
C98 C97 1.394 . S
C99 H71 0.982 . S
C99 H75 0.979 . S
C99 H76 0.977 . S
C99 C96 1.453 1_455 S
C100 H72 0.979 . S
C100 H73 0.980 . S
C100 H74 0.983 . S
C100 C96 1.684 . S
H101 C119 0.948 1_554 S
H102 C60 0.948 . S
H103 C78 0.979 . S
H104 C78 0.980 . S
H105 C78 0.983 . S
H106 C77 0.982 . S
H107 C77 0.979 . S
H108 C77 0.977 . S
H109 C79 0.948 . S
H110 C81 0.947 . S
H111 C82 0.948 . S
H112 C88 0.982 . S
H113 C88 0.979 . S
H114 C88 0.977 . S
H115 C89 0.979 . S
H116 C89 0.980 . S
H117 C89 0.983 . S
H118 C62 0.947 . S
C119 C62 1.392 . S
C119 C63 1.419 . S
C119 H101 0.948 1_556 S
C120 C121 1.391 1_554 S
C120 C124 1.391 . S
C120 H162 0.948 . S
C121 C120 1.391 1_556 S
C121 C122 1.391 . S
C122 C121 1.391 . S
C122 H178 0.947 . S
C122 C179 1.392 . S
C123 C124 1.391 . S
C123 C127 1.397 . S
C123 C179 1.419 1_554 S
C124 C120 1.391 . S
C124 C123 1.391 . S
C124 C125 1.399 . S
C125 C124 1.399 . S
C125 C128 1.396 . S
C125 C137 1.453 . S
C125 C138 1.684 . S
H126 C150 0.948 . S
C127 C123 1.397 . S
C127 C128 1.394 . S
C127 C146 1.723 1_554 S
C128 C125 1.396 . S
C128 C127 1.394 . S
C128 C158 1.723 . S
H129 C152 0.947 . S
H130 C153 0.948 . S
H131 C159 0.982 . S
H132 C160 0.979 . S
H133 C160 0.980 . S
H134 C160 0.983 . S
H135 C159 0.979 . S
H136 C159 0.977 . S
C137 C125 1.453 . S
C137 H166 0.982 . S
C137 H167 0.979 . S
C137 H168 0.977 . S
C138 C125 1.684 . S
C138 H163 0.979 . S
C138 H164 0.980 . S
C138 H165 0.983 . S
C139 C140 1.391 . S
C139 C144 1.391 . S
C139 H169 0.948 . S
C140 C139 1.391 . S
C140 C141 1.391 . S
C141 C140 1.391 . S
C141 C142 1.392 . S
C141 H170 0.947 . S
C142 C141 1.392 . S
C142 C143 1.419 . S
C142 H171 0.948 1_556 S
C143 C142 1.419 . S
C143 C144 1.391 . S
C143 C147 1.397 1_556 S
C144 C139 1.391 . S
C144 C143 1.391 . S
C144 C145 1.399 . S
C145 C144 1.399 . S
C145 C146 1.396 . S
C145 C148 1.453 . S
C145 C149 1.684 . S
C146 C127 1.723 1_556 S
C146 C145 1.396 . S
C146 C147 1.394 1_556 S
C147 C143 1.397 1_554 S
C147 C146 1.394 1_554 S
C147 C157 1.723 . S
C148 C145 1.453 . S
C148 H172 0.982 . S
C148 H173 0.979 . S
C148 H174 0.977 . S
C149 C145 1.684 . S
C149 H175 0.979 . S
C149 H176 0.980 . S
C149 H177 0.983 . S
C150 H126 0.948 . S
C150 C151 1.391 . S
C150 C155 1.391 . S
C151 C150 1.391 . S
C151 C152 1.391 . S
C152 H129 0.947 . S
C152 C151 1.391 . S
C152 C153 1.392 . S
C153 H130 0.948 . S
C153 C152 1.392 . S
C153 C154 1.419 . S
C154 C153 1.419 . S
C154 C155 1.391 . S
C154 C158 1.397 . S
C155 C150 1.391 . S
C155 C154 1.391 . S
C155 C156 1.399 . S
C156 C155 1.399 . S
C156 C157 1.396 . S
C156 C159 1.453 . S
C156 C160 1.684 . S
C157 C147 1.723 . S
C157 C156 1.396 . S
C157 C158 1.394 . S
C158 C128 1.723 . S
C158 C154 1.397 . S
C158 C157 1.394 . S
C159 H131 0.982 . S
C159 H135 0.979 . S
C159 H136 0.977 . S
C159 C156 1.453 . S
C160 H132 0.979 . S
C160 H133 0.980 . S
C160 H134 0.983 . S
C160 C156 1.684 . S
H161 C179 0.948 . S
H162 C120 0.948 . S
H163 C138 0.979 . S
H164 C138 0.980 . S
H165 C138 0.983 . S
H166 C137 0.982 . S
H167 C137 0.979 . S
H168 C137 0.977 . S
H169 C139 0.948 . S
H170 C141 0.947 . S
H171 C142 0.948 1_554 S
H172 C148 0.982 . S
H173 C148 0.979 . S
H174 C148 0.977 . S
H175 C149 0.979 . S
H176 C149 0.980 . S
H177 C149 0.983 . S
H178 C122 0.947 . S
C179 C122 1.392 . S
C179 C123 1.419 1_556 S
C179 H161 0.948 . S
C180 C181 1.391 . S
C180 C184 1.391 . S
C180 H222 0.948 . S
C181 C180 1.391 . S
C181 C182 1.391 . S
C182 C181 1.391 . S
C182 H238 0.947 . S
C182 C239 1.392 . S
C183 C184 1.391 . S
C183 C187 1.397 . S
C183 C239 1.419 . S
C184 C180 1.391 . S
C184 C183 1.391 . S
C184 C185 1.399 . S
C185 C184 1.399 . S
C185 C188 1.396 . S
C185 C197 1.453 . S
C185 C198 1.684 . S
H186 C210 0.948 . S
C187 C183 1.397 . S
C187 C188 1.394 . S
C187 C206 1.723 . S
C188 C185 1.396 . S
C188 C187 1.394 . S
C188 C218 1.723 . S
H189 C212 0.947 . S
H190 C213 0.948 . S
H191 C219 0.982 . S
H192 C220 0.979 . S
H193 C220 0.980 . S
H194 C220 0.983 . S
H195 C219 0.979 . S
H196 C219 0.977 . S
C197 C185 1.453 . S
C197 H226 0.982 . S
C197 H227 0.979 . S
C197 H228 0.977 . S
C198 C185 1.684 . S
C198 H223 0.979 . S
C198 H224 0.980 . S
C198 H225 0.983 . S
C199 C200 1.391 . S
C199 C204 1.391 . S
C199 H229 0.948 . S
C200 C199 1.391 . S
C200 C201 1.391 . S
C201 C200 1.391 . S
C201 C202 1.392 . S
C201 H230 0.947 . S
C202 C201 1.392 . S
C202 C203 1.419 . S
C202 H231 0.948 . S
C203 C202 1.419 . S
C203 C204 1.391 . S
C203 C207 1.397 1_556 S
C204 C199 1.391 . S
C204 C203 1.391 . S
C204 C205 1.399 1_556 S
C205 C204 1.399 1_554 S
C205 C206 1.396 . S
C205 C208 1.453 . S
C205 C209 1.684 . S
C206 C187 1.723 . S
C206 C205 1.396 . S
C206 C207 1.394 . S
C207 C203 1.397 1_554 S
C207 C206 1.394 . S
C207 C217 1.723 . S
C208 C205 1.453 . S
C208 H232 0.982 . S
C208 H233 0.979 . S
C208 H234 0.977 . S
C209 C205 1.684 . S
C209 H235 0.979 . S
C209 H236 0.980 . S
C209 H237 0.983 . S
C210 H186 0.948 . S
C210 C211 1.391 1_556 S
C210 C215 1.391 . S
C211 C210 1.391 1_554 S
C211 C212 1.391 . S
C212 H189 0.947 . S
C212 C211 1.391 . S
C212 C213 1.392 . S
C213 H190 0.948 . S
C213 C212 1.392 . S
C213 C214 1.419 . S
C214 C213 1.419 . S
C214 C215 1.391 1_554 S
C214 C218 1.397 . S
C215 C210 1.391 . S
C215 C214 1.391 1_556 S
C215 C216 1.399 . S
C216 C215 1.399 . S
C216 C217 1.396 1_556 S
C216 C219 1.453 . S
C216 C220 1.684 . S
C217 C207 1.723 . S
C217 C216 1.396 1_554 S
C217 C218 1.394 . S
C218 C188 1.723 . S
C218 C214 1.397 . S
C218 C217 1.394 . S
C219 H191 0.982 . S
C219 H195 0.979 . S
C219 H196 0.977 . S
C219 C216 1.453 . S
C220 H192 0.979 . S
C220 H193 0.980 . S
C220 H194 0.983 . S
C220 C216 1.684 . S
H221 C239 0.948 . S
H222 C180 0.948 . S
H223 C198 0.979 . S
H224 C198 0.980 . S
H225 C198 0.983 . S
H226 C197 0.982 . S
H227 C197 0.979 . S
H228 C197 0.977 . S
H229 C199 0.948 . S
H230 C201 0.947 . S
H231 C202 0.948 . S
H232 C208 0.982 . S
H233 C208 0.979 . S
H234 C208 0.977 . S
H235 C209 0.979 . S
H236 C209 0.980 . S
H237 C209 0.983 . S
H238 C182 0.947 . S
C239 C182 1.392 . S
C239 C183 1.419 . S
C239 H221 0.948 . S
C240 C241 1.391 . S
C240 C244 1.391 . S
C240 H282 0.948 . S
C241 C240 1.391 . S
C241 C242 1.391 . S
C242 C241 1.391 . S
C242 H298 0.947 . S
C242 C299 1.392 . S
C243 C244 1.391 . S
C243 C247 1.397 . S
C243 C299 1.419 . S
C244 C240 1.391 . S
C244 C243 1.391 . S
C244 C245 1.399 . S
C245 C244 1.399 . S
C245 C248 1.396 . S
C245 C257 1.453 . S
C245 C258 1.684 . S
H246 C270 0.948 . S
C247 C243 1.397 . S
C247 C248 1.394 . S
C247 C266 1.723 . S
C248 C245 1.396 . S
C248 C247 1.394 . S
C248 C278 1.723 . S
H249 C272 0.947 . S
H250 C273 0.948 . S
H251 C279 0.982 . S
H252 C280 0.979 . S
H253 C280 0.980 . S
H254 C280 0.983 . S
H255 C279 0.979 . S
H256 C279 0.977 . S
C257 C245 1.453 . S
C257 H286 0.982 . S
C257 H287 0.979 . S
C257 H288 0.977 . S
C258 C245 1.684 . S
C258 H283 0.979 . S
C258 H284 0.980 . S
C258 H285 0.983 . S
C259 C260 1.391 . S
C259 C264 1.391 . S
C259 H289 0.948 . S
C260 C259 1.391 . S
C260 C261 1.391 . S
C261 C260 1.391 . S
C261 C262 1.392 . S
C261 H290 0.947 . S
C262 C261 1.392 . S
C262 C263 1.419 . S
C262 H291 0.948 . S
C263 C262 1.419 . S
C263 C264 1.391 . S
C263 C267 1.397 . S
C264 C259 1.391 . S
C264 C263 1.391 . S
C264 C265 1.399 . S
C265 C264 1.399 . S
C265 C266 1.396 . S
C265 C268 1.453 . S
C265 C269 1.684 . S
C266 C247 1.723 . S
C266 C265 1.396 . S
C266 C267 1.394 . S
C267 C263 1.397 . S
C267 C266 1.394 . S
C267 C277 1.723 . S
C268 C265 1.453 . S
C268 H292 0.982 . S
C268 H293 0.979 . S
C268 H294 0.977 . S
C269 C265 1.684 . S
C269 H295 0.979 . S
C269 H296 0.980 . S
C269 H297 0.983 . S
C270 H246 0.948 . S
C270 C271 1.391 . S
C270 C275 1.391 1_556 S
C271 C270 1.391 . S
C271 C272 1.391 . S
C272 H249 0.947 . S
C272 C271 1.391 . S
C272 C273 1.392 1_556 S
C273 H250 0.948 . S
C273 C272 1.392 1_554 S
C273 C274 1.419 . S
C274 C273 1.419 . S
C274 C275 1.391 . S
C274 C278 1.397 . S
C275 C270 1.391 1_554 S
C275 C274 1.391 . S
C275 C276 1.399 . S
C276 C275 1.399 . S
C276 C277 1.396 . S
C276 C279 1.453 . S
C276 C280 1.684 . S
C277 C267 1.723 . S
C277 C276 1.396 . S
C277 C278 1.394 . S
C278 C248 1.723 . S
C278 C274 1.397 . S
C278 C277 1.394 . S
C279 H251 0.982 . S
C279 H255 0.979 . S
C279 H256 0.977 . S
C279 C276 1.453 . S
C280 H252 0.979 . S
C280 H253 0.980 . S
C280 H254 0.983 . S
C280 C276 1.684 . S
H281 C299 0.948 . S
H282 C240 0.948 . S
H283 C258 0.979 . S
H284 C258 0.980 . S
H285 C258 0.983 . S
H286 C257 0.982 . S
H287 C257 0.979 . S
H288 C257 0.977 . S
H289 C259 0.948 . S
H290 C261 0.947 . S
H291 C262 0.948 . S
H292 C268 0.982 . S
H293 C268 0.979 . S
H294 C268 0.977 . S
H295 C269 0.979 . S
H296 C269 0.980 . S
H297 C269 0.983 . S
H298 C242 0.947 . S
C299 C242 1.392 . S
C299 C243 1.419 . S
C299 H281 0.948 . S
C300 C301 1.391 . S
C300 C304 1.391 . S
C300 H342 0.948 . S
C301 C300 1.391 . S
C301 C302 1.391 . S
C302 C301 1.391 . S
C302 H358 0.947 . S
C302 C359 1.392 . S
C303 C304 1.391 . S
C303 C307 1.396 1_655 S
C303 C359 1.419 . S
C304 C300 1.391 . S
C304 C303 1.391 . S
C304 C305 1.399 . S
C305 C304 1.399 . S
C305 C308 1.396 1_655 S
C305 C317 1.453 1_655 S
C305 C318 1.684 . S
H306 C330 0.948 . S
C307 C303 1.396 1_455 S
C307 C308 1.395 . S
C307 C326 1.723 . S
C308 C305 1.396 1_455 S
C308 C307 1.395 . S
C308 C338 1.723 . S
H309 C332 0.947 . S
H310 C333 0.948 . S
H311 C339 0.982 . S
H312 C340 0.979 . S
H313 C340 0.980 . S
H314 C340 0.983 . S
H315 C339 0.979 . S
H316 C339 0.977 . S
C317 C305 1.453 1_455 S
C317 H346 0.982 . S
C317 H347 0.979 . S
C317 H348 0.977 . S
C318 C305 1.684 . S
C318 H343 0.979 . S
C318 H344 0.980 . S
C318 H345 0.983 . S
C319 C320 1.391 . S
C319 C324 1.391 1_556 S
C319 H349 0.948 . S
C320 C319 1.391 . S
C320 C321 1.391 . S
C321 C320 1.391 . S
C321 C322 1.392 . S
C321 H350 0.947 . S
C322 C321 1.392 . S
C322 C323 1.419 1_556 S
C322 H351 0.948 . S
C323 C322 1.419 1_554 S
C323 C324 1.391 . S
C323 C327 1.396 1_655 S
C324 C319 1.391 1_554 S
C324 C323 1.391 . S
C324 C325 1.399 . S
C325 C324 1.399 . S
C325 C326 1.396 1_655 S
C325 C328 1.453 1_655 S
C325 C329 1.684 . S
C326 C307 1.723 . S
C326 C325 1.396 1_455 S
C326 C327 1.394 . S
C327 C323 1.396 1_455 S
C327 C326 1.394 . S
C327 C337 1.723 . S
C328 C325 1.453 1_455 S
C328 H352 0.982 . S
C328 H353 0.979 . S
C328 H354 0.977 . S
C329 C325 1.684 . S
C329 H355 0.979 . S
C329 H356 0.980 . S
C329 H357 0.983 . S
C330 H306 0.948 . S
C330 C331 1.391 . S
C330 C335 1.391 . S
C331 C330 1.391 . S
C331 C332 1.391 . S
C332 H309 0.947 . S
C332 C331 1.391 . S
C332 C333 1.392 . S
C333 H310 0.948 . S
C333 C332 1.392 . S
C333 C334 1.419 . S
C334 C333 1.419 . S
C334 C335 1.391 . S
C334 C338 1.397 1_655 S
C335 C330 1.391 . S
C335 C334 1.391 . S
C335 C336 1.399 . S
C336 C335 1.399 . S
C336 C337 1.396 1_655 S
C336 C339 1.453 1_655 S
C336 C340 1.684 . S
C337 C327 1.723 . S
C337 C336 1.396 1_455 S
C337 C338 1.395 . S
C338 C308 1.723 . S
C338 C334 1.397 1_455 S
C338 C337 1.395 . S
C339 H311 0.982 . S
C339 H315 0.979 . S
C339 H316 0.977 . S
C339 C336 1.453 1_455 S
C340 H312 0.979 . S
C340 H313 0.980 . S
C340 H314 0.983 . S
C340 C336 1.684 . S
H341 C359 0.948 . S
H342 C300 0.948 . S
H343 C318 0.979 . S
H344 C318 0.980 . S
H345 C318 0.983 . S
H346 C317 0.982 . S
H347 C317 0.979 . S
H348 C317 0.977 . S
H349 C319 0.948 . S
H350 C321 0.947 . S
H351 C322 0.948 . S
H352 C328 0.982 . S
H353 C328 0.979 . S
H354 C328 0.977 . S
H355 C329 0.979 . S
H356 C329 0.980 . S
H357 C329 0.983 . S
H358 C302 0.947 . S
C359 C302 1.392 . S
C359 C303 1.419 . S
C359 H341 0.948 . S
C360 C361 1.391 . S
C360 C364 1.391 1_556 S
C360 H402 0.948 . S
C361 C360 1.391 . S
C361 C362 1.391 . S
C362 C361 1.391 . S
C362 H418 0.947 . S
C362 C419 1.392 1_556 S
C363 C364 1.391 . S
C363 C367 1.397 . S
C363 C419 1.419 . S
C364 C360 1.391 1_554 S
C364 C363 1.391 . S
C364 C365 1.399 . S
C365 C364 1.399 . S
C365 C368 1.396 . S
C365 C377 1.453 . S
C365 C378 1.684 . S
H366 C390 0.948 . S
C367 C363 1.397 . S
C367 C368 1.394 . S
C367 C386 1.723 . S
C368 C365 1.396 . S
C368 C367 1.394 . S
C368 C398 1.723 . S
H369 C392 0.947 . S
H370 C393 0.948 . S
H371 C399 0.982 . S
H372 C400 0.979 . S
H373 C400 0.980 . S
H374 C400 0.983 . S
H375 C399 0.979 . S
H376 C399 0.977 . S
C377 C365 1.453 . S
C377 H406 0.982 . S
C377 H407 0.979 1_554 S
C377 H408 0.977 . S
C378 C365 1.684 . S
C378 H403 0.979 . S
C378 H404 0.980 . S
C378 H405 0.983 1_554 S
C379 C380 1.391 . S
C379 C384 1.391 . S
C379 H409 0.948 . S
C380 C379 1.391 . S
C380 C381 1.391 . S
C381 C380 1.391 . S
C381 C382 1.392 . S
C381 H410 0.947 . S
C382 C381 1.392 . S
C382 C383 1.419 . S
C382 H411 0.948 . S
C383 C382 1.419 . S
C383 C384 1.391 . S
C383 C387 1.397 . S
C384 C379 1.391 . S
C384 C383 1.391 . S
C384 C385 1.399 . S
C385 C384 1.399 . S
C385 C386 1.396 . S
C385 C388 1.453 . S
C385 C389 1.684 . S
C386 C367 1.723 . S
C386 C385 1.396 . S
C386 C387 1.394 . S
C387 C383 1.397 . S
C387 C386 1.394 . S
C387 C397 1.723 . S
C388 C385 1.453 . S
C388 H412 0.982 . S
C388 H413 0.979 . S
C388 H414 0.977 . S
C389 C385 1.684 . S
C389 H415 0.979 . S
C389 H416 0.980 . S
C389 H417 0.983 . S
C390 H366 0.948 . S
C390 C391 1.391 . S
C390 C395 1.391 . S
C391 C390 1.391 . S
C391 C392 1.391 . S
C392 H369 0.947 . S
C392 C391 1.391 . S
C392 C393 1.392 . S
C393 H370 0.948 . S
C393 C392 1.392 . S
C393 C394 1.419 . S
C394 C393 1.419 . S
C394 C395 1.391 . S
C394 C398 1.397 . S
C395 C390 1.391 . S
C395 C394 1.391 . S
C395 C396 1.399 . S
C396 C395 1.399 . S
C396 C397 1.396 . S
C396 C399 1.453 . S
C396 C400 1.684 . S
C397 C387 1.723 . S
C397 C396 1.396 . S
C397 C398 1.394 . S
C398 C368 1.723 . S
C398 C394 1.397 . S
C398 C397 1.394 . S
C399 H371 0.982 . S
C399 H375 0.979 . S
C399 H376 0.977 . S
C399 C396 1.453 . S
C400 H372 0.979 . S
C400 H373 0.980 . S
C400 H374 0.983 . S
C400 C396 1.684 . S
H401 C419 0.948 . S
H402 C360 0.948 . S
H403 C378 0.979 . S
H404 C378 0.980 . S
H405 C378 0.983 1_556 S
H406 C377 0.982 . S
H407 C377 0.979 1_556 S
H408 C377 0.977 . S
H409 C379 0.948 . S
H410 C381 0.947 . S
H411 C382 0.948 . S
H412 C388 0.982 . S
H413 C388 0.979 . S
H414 C388 0.977 . S
H415 C389 0.979 . S
H416 C389 0.980 . S
H417 C389 0.983 . S
H418 C362 0.947 . S
C419 C362 1.392 1_554 S
C419 C363 1.419 . S
C419 H401 0.948 . S
C420 C421 1.391 . S
C420 C424 1.391 1_556 S
C420 H462 0.948 . S
C421 C420 1.391 . S
C421 C422 1.391 . S
C422 C421 1.391 . S
C422 H478 0.947 . S
C422 C479 1.392 1_556 S
C423 C424 1.391 . S
C423 C427 1.397 . S
C423 C479 1.419 . S
C424 C420 1.391 1_554 S
C424 C423 1.391 . S
C424 C425 1.399 . S
C425 C424 1.399 . S
C425 C428 1.396 . S
C425 C437 1.453 . S
C425 C438 1.684 . S
H426 C450 0.948 . S
C427 C423 1.397 . S
C427 C428 1.394 . S
C427 C446 1.723 . S
C428 C425 1.396 . S
C428 C427 1.394 . S
C428 C458 1.723 . S
H429 C452 0.947 . S
H430 C453 0.948 . S
H431 C459 0.982 . S
H432 C460 0.979 . S
H433 C460 0.980 . S
H434 C460 0.983 . S
H435 C459 0.979 . S
H436 C459 0.977 . S
C437 C425 1.453 . S
C437 H466 0.982 . S
C437 H467 0.979 1_554 S
C437 H468 0.977 . S
C438 C425 1.684 . S
C438 H463 0.979 . S
C438 H464 0.980 . S
C438 H465 0.983 1_554 S
C439 C440 1.391 . S
C439 C444 1.391 . S
C439 H469 0.948 . S
C440 C439 1.391 . S
C440 C441 1.391 . S
C441 C440 1.391 . S
C441 C442 1.392 . S
C441 H470 0.947 . S
C442 C441 1.392 . S
C442 C443 1.419 . S
C442 H471 0.948 . S
C443 C442 1.419 . S
C443 C444 1.391 . S
C443 C447 1.397 . S
C444 C439 1.391 . S
C444 C443 1.391 . S
C444 C445 1.399 . S
C445 C444 1.399 . S
C445 C446 1.396 . S
C445 C448 1.453 . S
C445 C449 1.684 . S
C446 C427 1.723 . S
C446 C445 1.396 . S
C446 C447 1.394 . S
C447 C443 1.397 . S
C447 C446 1.394 . S
C447 C457 1.723 . S
C448 C445 1.453 . S
C448 H472 0.982 . S
C448 H473 0.979 . S
C448 H474 0.977 . S
C449 C445 1.684 . S
C449 H475 0.979 . S
C449 H476 0.980 . S
C449 H477 0.983 . S
C450 H426 0.948 . S
C450 C451 1.391 . S
C450 C455 1.391 . S
C451 C450 1.391 . S
C451 C452 1.391 . S
C452 H429 0.947 . S
C452 C451 1.391 . S
C452 C453 1.392 . S
C453 H430 0.948 . S
C453 C452 1.392 . S
C453 C454 1.419 . S
C454 C453 1.419 . S
C454 C455 1.391 . S
C454 C458 1.397 . S
C455 C450 1.391 . S
C455 C454 1.391 . S
C455 C456 1.399 . S
C456 C455 1.399 . S
C456 C457 1.396 . S
C456 C459 1.453 . S
C456 C460 1.684 . S
C457 C447 1.723 . S
C457 C456 1.396 . S
C457 C458 1.394 . S
C458 C428 1.723 . S
C458 C454 1.397 . S
C458 C457 1.394 . S
C459 H431 0.982 . S
C459 H435 0.979 . S
C459 H436 0.977 . S
C459 C456 1.453 . S
C460 H432 0.979 . S
C460 H433 0.980 . S
C460 H434 0.983 . S
C460 C456 1.684 . S
H461 C479 0.948 . S
H462 C420 0.948 . S
H463 C438 0.979 . S
H464 C438 0.980 . S
H465 C438 0.983 1_556 S
H466 C437 0.982 . S
H467 C437 0.979 1_556 S
H468 C437 0.977 . S
H469 C439 0.948 . S
H470 C441 0.947 . S
H471 C442 0.948 . S
H472 C448 0.982 . S
H473 C448 0.979 . S
H474 C448 0.977 . S
H475 C449 0.979 . S
H476 C449 0.980 . S
H477 C449 0.983 . S
H478 C422 0.947 . S
C479 C422 1.392 1_554 S
C479 C423 1.419 . S
C479 H461 0.948 . S
O480 Mg481 1.990 . S
O480 C494 1.253 . S
Mg481 O480 1.990 . S
Mg481 O484 2.180 1_565 S
Mg481 O485 2.117 . S
Mg481 O499 2.030 . S
O482 Mg483 2.072 1_465 S
O482 C494 1.260 . S
Mg483 O482 2.072 1_645 S
Mg483 O484 2.099 1_655 S
Mg483 O486 2.079 . S
Mg483 O487 2.072 1_655 S
Mg483 O489 2.099 . S
Mg483 O500 2.079 1_545 S
O484 Mg481 2.180 1_545 S
O484 Mg483 2.099 1_455 S
O484 C495 1.279 . S
O485 Mg481 2.117 . S
O485 C495 1.250 1_565 S
O486 Mg483 2.079 . S
O486 C496 1.264 . S
O487 Mg483 2.072 1_455 S
O487 C497 1.260 . S
Mg488 O489 2.180 . S
Mg488 O490 2.030 . S
Mg488 O491 1.990 . S
Mg488 O492 2.117 . S
O489 Mg483 2.099 . S
O489 Mg488 2.180 . S
O489 C498 1.279 . S
O490 Mg488 2.030 . S
O490 C496 1.248 . S
O491 Mg488 1.990 . S
O491 C497 1.253 1_655 S
O492 Mg488 2.117 . S
O492 C498 1.250 . S
C493 O499 1.248 1_655 S
C493 O500 1.264 . S
C494 O480 1.253 . S
C494 O482 1.260 . S
C495 O484 1.279 . S
C495 O485 1.250 1_545 S
C496 O486 1.264 . S
C496 O490 1.248 . S
C497 O487 1.260 . S
C497 O491 1.253 1_455 S
C498 O489 1.279 . S
C498 O492 1.250 . S
O499 Mg481 2.030 . S
O499 C493 1.248 1_455 S
O500 Mg483 2.079 1_565 S
O500 C493 1.264 . S
O501 Mg502 1.990 1_545 S
O501 C515 1.253 . S
Mg502 O501 1.990 1_565 S
Mg502 O505 2.180 . S
Mg502 O506 2.117 . S
Mg502 O520 2.030 1_565 S
O503 Mg504 2.072 . S
O503 C515 1.260 . S
Mg504 O503 2.072 . S
Mg504 O505 2.099 1_545 S
Mg504 O507 2.079 1_545 S
Mg504 O508 2.072 1_545 S
Mg504 O510 2.099 . S
Mg504 O521 2.079 . S
O505 Mg502 2.180 . S
O505 Mg504 2.099 1_565 S
O505 C516 1.279 . S
O506 Mg502 2.117 . S
O506 C516 1.250 . S
O507 Mg504 2.079 1_565 S
O507 C517 1.264 . S
O508 Mg504 2.072 1_565 S
O508 C518 1.260 1_565 S
Mg509 O510 2.180 . S
Mg509 O511 2.030 1_545 S
Mg509 O512 1.990 . S
Mg509 O513 2.117 . S
O510 Mg504 2.099 . S
O510 Mg509 2.180 . S
O510 C519 1.279 . S
O511 Mg509 2.030 1_565 S
O511 C517 1.248 . S
O512 Mg509 1.990 . S
O512 C518 1.253 . S
O513 Mg509 2.117 . S
O513 C519 1.250 . S
C514 O520 1.248 . S
C514 O521 1.264 . S
C515 O501 1.253 . S
C515 O503 1.260 . S
C516 O505 1.279 . S
C516 O506 1.250 . S
C517 O507 1.264 . S
C517 O511 1.248 . S
C518 O508 1.260 1_545 S
C518 O512 1.253 . S
C519 O510 1.279 . S
C519 O513 1.250 . S
O520 Mg502 2.030 1_545 S
O520 C514 1.248 . S
O521 Mg504 2.079 . S
O521 C514 1.264 . S
O522 Mg523 1.990 . S
O522 C536 1.253 . S
Mg523 O522 1.990 . S
Mg523 O526 2.180 . S
Mg523 O527 2.117 . S
Mg523 O541 2.030 . S
O524 Mg525 2.072 . S
O524 C536 1.260 . S
Mg525 O524 2.072 . S
Mg525 O526 2.099 . S
Mg525 O528 2.079 . S
Mg525 O529 2.072 . S
Mg525 O531 2.099 . S
Mg525 O542 2.079 . S
O526 Mg523 2.180 . S
O526 Mg525 2.099 . S
O526 C537 1.279 . S
O527 Mg523 2.117 . S
O527 C537 1.250 . S
O528 Mg525 2.079 . S
O528 C538 1.264 . S
O529 Mg525 2.072 . S
O529 C539 1.260 . S
Mg530 O531 2.180 . S
Mg530 O532 2.030 . S
Mg530 O533 1.990 . S
Mg530 O534 2.117 . S
O531 Mg525 2.099 . S
O531 Mg530 2.180 . S
O531 C540 1.279 . S
O532 Mg530 2.030 . S
O532 C538 1.248 . S
O533 Mg530 1.990 . S
O533 C539 1.253 . S
O534 Mg530 2.117 . S
O534 C540 1.250 . S
C535 O541 1.248 . S
C535 O542 1.264 . S
C536 O522 1.253 . S
C536 O524 1.260 . S
C537 O526 1.279 . S
C537 O527 1.250 . S
C538 O528 1.264 . S
C538 O532 1.248 . S
C539 O529 1.260 . S
C539 O533 1.253 . S
C540 O531 1.279 . S
C540 O534 1.250 . S
O541 Mg523 2.030 . S
O541 C535 1.248 . S
O542 Mg525 2.079 . S
O542 C535 1.264 . S
O543 Mg544 1.990 . S
O543 C557 1.253 . S
Mg544 O543 1.990 . S
Mg544 O547 2.180 . S
Mg544 O548 2.117 . S
Mg544 O562 2.030 . S
O545 Mg546 2.072 1_655 S
O545 C557 1.260 . S
Mg546 O545 2.072 1_455 S
Mg546 O547 2.099 1_455 S
Mg546 O549 2.079 . S
Mg546 O550 2.072 . S
Mg546 O552 2.099 . S
Mg546 O563 2.079 1_455 S
O547 Mg544 2.180 . S
O547 Mg546 2.099 1_655 S
O547 C558 1.279 . S
O548 Mg544 2.117 . S
O548 C558 1.250 . S
O549 Mg546 2.079 . S
O549 C559 1.264 . S
O550 Mg546 2.072 . S
O550 C560 1.260 . S
Mg551 O552 2.180 . S
Mg551 O553 2.030 . S
Mg551 O554 1.990 . S
Mg551 O555 2.117 . S
O552 Mg546 2.099 . S
O552 Mg551 2.180 . S
O552 C561 1.279 . S
O553 Mg551 2.030 . S
O553 C559 1.248 . S
O554 Mg551 1.990 . S
O554 C560 1.253 . S
O555 Mg551 2.117 . S
O555 C561 1.250 . S
C556 O562 1.248 . S
C556 O563 1.264 . S
C557 O543 1.253 . S
C557 O545 1.260 . S
C558 O547 1.279 . S
C558 O548 1.250 . S
C559 O549 1.264 . S
C559 O553 1.248 . S
C560 O550 1.260 . S
C560 O554 1.253 . S
C561 O552 1.279 . S
C561 O555 1.250 . S
O562 Mg544 2.030 . S
O562 C556 1.248 . S
O563 Mg546 2.079 1_655 S
O563 C556 1.264 . S
C391 C495 4.108 . S
C519 C451 3.021 . S
C540 C241 3.514 . S
C558 C331 2.608 . S
C498 C121 3.425 1_545 S
C211 C516 2.312 1_554 S
C31 C537 3.364 1_554 S
C91 C561 2.116 1_655 S
C496 C301 1.258 . S
C514 C380 3.158 . S
C535 C440 1.601 . S
C260 C559 2.886 . S
C61 C494 1.467 1_655 S
C518 C140 3.084 1_545 S
C539 C200 1.543 . S
C20 C557 3.006 . S
C320 C497 3.550 1_655 S
C361 C515 3.522 . S
C536 C421 3.077 . S
C560 C271 3.751 . S
C80 C493 3.343 . S
C517 C151 3.692 . S
C538 C181 2.905 . S
C1 C556 3.178 . S
