# Generated by pormake.
# Topology rtl, (3,6)-cn, num edge types: 1
# Building blocks:
#     Node 0, Type 0, BuildingBlock: BETDAH_clean_linker_0, # of connection points: 3
#     Node 1, Type 0, BuildingBlock: BETDAH_clean_linker_0, # of connection points: 3
#     Node 2, Type 0, BuildingBlock: BETDAH_clean_linker_0, # of connection points: 3
#     Node 3, Type 0, BuildingBlock: BETDAH_clean_linker_0, # of connection points: 3
#     Node 4, Type 1, BuildingBlock: KUMJIN_clean_sbu_1, # of connection points: 6
#     Node 5, Type 1, BuildingBlock: KUMJIN_clean_sbu_1, # of connection points: 6
#     Edge 6, Type (0, 1), BuildingBlock: UVAHIK_clean_linker_0, # of connection points: 2
#     Edge 7, Type (0, 1), BuildingBlock: UVAHIK_clean_linker_0, # of connection points: 2
#     Edge 8, Type (0, 1), BuildingBlock: UVAHIK_clean_linker_0, # of connection points: 2
#     Edge 9, Type (0, 1), BuildingBlock: UVAHIK_clean_linker_0, # of connection points: 2
#     Edge 10, Type (0, 1), BuildingBlock: UVAHIK_clean_linker_0, # of connection points: 2
#     Edge 11, Type (0, 1), BuildingBlock: UVAHIK_clean_linker_0, # of connection points: 2
#     Edge 12, Type (0, 1), BuildingBlock: UVAHIK_clean_linker_0, # of connection points: 2
#     Edge 13, Type (0, 1), BuildingBlock: UVAHIK_clean_linker_0, # of connection points: 2
#     Edge 14, Type (0, 1), BuildingBlock: UVAHIK_clean_linker_0, # of connection points: 2
#     Edge 15, Type (0, 1), BuildingBlock: UVAHIK_clean_linker_0, # of connection points: 2
#     Edge 16, Type (0, 1), BuildingBlock: UVAHIK_clean_linker_0, # of connection points: 2
#     Edge 17, Type (0, 1), BuildingBlock: UVAHIK_clean_linker_0, # of connection points: 2
# Relax obj value: 0.047
# Max RMSD: 0.206
# Mean RMSD: 0.150
data_MOF--net-rtl--node1-KUMJIN_clean_sbu_1--node2-BETDAH_clean_linker_0--edge1-UVAHIK_clean_linker_0
_symmetry_space_group_name_H-M    P1
_symmetry_Int_Tables_number       1
_symmetry_cell_setting            triclinic
loop_
_symmetry_equiv_pos_as_xyz
'x, y, z'
_cell_length_a     45.47983
_cell_length_b     45.350561
_cell_length_c     34.246212
_cell_angle_alpha  81.019035
_cell_angle_beta   101.04817
_cell_angle_gamma 90.803161
loop_
_atom_site_label
_atom_site_type_symbol
_atom_site_fract_x
_atom_site_fract_y
_atom_site_fract_z
_atom_type_partial_charge
H0 H 0.16963 0.88355 0.00618 0.0
H1 H 0.22976 0.83035 0.10272 0.0
H2 H 0.23483 0.82514 0.97992 0.0
C3 C 0.18805 0.86756 0.01645 0.0
C4 C 0.20122 0.8558 0.98807 0.0
C5 C 0.19772 0.85803 0.05787 0.0
C6 C 0.22148 0.8373 0.07077 0.0
C7 C 0.23484 0.82524 0.04313 0.0
C8 C 0.22438 0.83411 1.00153 0.0
N9 N 0.25957 0.80538 0.05891 0.0
C10 C 0.27037 0.78443 0.03934 0.0
H11 H 0.65053 0.65755 0.61857 0.0
H12 H 0.68939 0.73609 0.56142 0.0
H13 H 0.67615 0.73053 0.68327 0.0
C14 C 0.66035 0.6794 0.61974 0.0
C15 C 0.66273 0.69184 0.65514 0.0
C16 C 0.66915 0.69536 0.58529 0.0
C17 C 0.68267 0.72336 0.58767 0.0
C18 C 0.68528 0.73593 0.62325 0.0
C19 C 0.67465 0.72041 0.65631 0.0
N20 N 0.69608 0.76516 0.62579 0.0
C21 C 0.7206 0.77699 0.61038 0.0
H22 H 0.85602 0.14783 0.06488 0.0
H23 H 0.77953 0.19082 0.0903 0.0
H24 H 0.78221 0.17866 0.96899 0.0
C25 C 0.83425 0.15874 0.05449 0.0
C26 C 0.82116 0.16214 0.01343 0.0
C27 C 0.81941 0.16886 0.08247 0.0
C28 C 0.79115 0.18306 0.06891 0.0
C29 C 0.77796 0.18692 0.02769 0.0
C30 C 0.79292 0.1762 1.00047 0.0
N31 N 0.74938 0.20068 0.0122 0.0
C32 C 0.73413 0.21816 0.03199 0.0
H33 H 0.38206 0.34331 0.46183 0.0
H34 H 0.31726 0.27907 0.49602 0.0
H35 H 0.32989 0.29639 0.37333 0.0
C36 C 0.36506 0.32715 0.45387 0.0
C37 C 0.35778 0.32191 0.41389 0.0
C38 C 0.35073 0.31178 0.4838 0.0
C39 C 0.32836 0.29108 0.47319 0.0
C40 C 0.32116 0.28535 0.43322 0.0
C41 C 0.33598 0.30069 0.40408 0.0
N42 N 0.2996 0.26408 0.42075 0.0
C43 C 0.27955 0.24972 0.44304 0.0
Eu44 Eu 0.02623 0.98027 0.50181 0.0
C45 C 0.96593 0.09639 0.50652 0.0
N46 N 0.99145 0.08462 0.53131 0.0
C47 C 0.01635 0.13109 0.51805 0.0
C48 C 0.96518 0.12559 0.48483 0.0
C49 C 0.0158 0.10221 0.53934 0.0
C50 C 0.99112 0.14263 0.49004 0.0
C51 C 0.91268 0.09191 0.48106 0.0
C52 C 0.93997 0.07984 0.50458 0.0
C53 C 0.91217 0.12042 0.45798 0.0
C54 C 0.93838 0.13719 0.45978 0.0
Eu55 Eu 0.98872 0.03441 0.5629 0.0
N56 N 0.94134 0.05194 0.52612 0.0
C57 C 0.88672 0.07498 0.48167 0.0
C58 C 0.91597 0.03585 0.52844 0.0
C59 C 0.88831 0.04699 0.5059 0.0
H60 H 0.03477 0.0943 0.56258 0.0
H61 H 0.8683 0.03396 0.50707 0.0
H62 H 0.00501 0.9122 0.53585 0.0
H63 H 0.13967 0.01914 0.49227 0.0
H64 H 0.91732 0.01418 0.54711 0.0
H65 H 0.86531 0.08347 0.46401 0.0
H66 H 0.08466 0.01902 0.47216 0.0
H67 H 0.03606 0.1446 0.52376 0.0
H68 H 0.89152 0.1299 0.43919 0.0
H69 H 0.93749 0.15943 0.44252 0.0
H70 H 0.02761 0.86545 0.57779 0.0
H71 H 0.99149 0.16513 0.4739 0.0
H72 H 0.16587 0.97851 0.54324 0.0
N73 N 0.04629 0.93505 0.5407 0.0
C74 C 0.07642 0.93333 0.55349 0.0
C75 C 0.04155 0.88445 0.57144 0.0
C76 C 0.09027 0.90737 0.57769 0.0
C77 C 0.02883 0.91082 0.5478 0.0
C78 C 0.07235 0.88288 0.58704 0.0
N79 N 0.07938 0.98064 0.51461 0.0
C80 C 0.09567 1.00192 0.49577 0.0
C81 C 0.12496 0.9556 0.55187 0.0
C82 C 0.09345 0.95709 0.54059 0.0
C83 C 0.14163 0.97878 0.53531 0.0
C84 C 0.12693 1.00176 0.50655 0.0
H85 H 0.08214 0.86249 0.60547 0.0
H86 H 0.13255 0.88684 0.60988 0.0
H87 H 0.16297 0.92914 0.58734 0.0
O88 O 0.04315 0.96444 0.45211 0.0
O89 O 0.02797 0.9672 0.56933 0.0
O90 O 0.03315 0.01173 0.59338 0.0
O91 O 0.99579 0.96068 0.45622 0.0
O92 O 0.04028 0.02902 0.49751 0.0
O93 O 0.03799 0.04185 0.55942 0.0
O94 O 0.96956 0.01993 0.6164 0.0
O95 O 0.96719 0.02562 0.49995 0.0
O96 O 0.00722 0.02511 0.46939 0.0
O97 O 0.98443 0.06517 0.60481 0.0
O98 O 0.97258 0.98663 0.56988 0.0
O99 O 0.97948 0.96772 0.5128 0.0
C100 C 0.03926 0.98306 0.59744 0.0
C101 C 0.00983 0.94143 0.40015 0.0
C102 C 0.02339 0.9279 0.33933 0.0
C103 C 0.99572 0.91352 0.33147 0.0
C104 C 0.98229 0.92715 0.39125 0.0
C105 C 0.97538 0.91326 0.3572 0.0
C106 C 0.03039 0.94171 0.37411 0.0
C107 C 0.0503 0.04398 0.52726 0.0
C108 C 0.01663 0.95579 0.43665 0.0
C109 C 0.1215 0.90642 0.59078 0.0
C110 C 0.13881 0.93053 0.57798 0.0
C111 C 0.97952 0.03308 0.46831 0.0
C112 C 0.9872 0.04365 0.67259 0.0
C113 C 0.98314 0.05262 0.73985 0.0
C114 C 0.01201 0.04007 0.7547 0.0
C115 C 0.01596 0.03133 0.68789 0.0
C116 C 0.97091 0.0543 0.69853 0.0
C117 C 0.02827 0.02954 0.72881 0.0
C118 C 0.96601 0.96793 0.54367 0.0
C119 C 0.97374 0.04526 0.62978 0.0
H120 H 0.98989 0.90205 0.30565 0.0
H121 H 0.9661 0.92648 0.41081 0.0
H122 H 0.95421 0.90209 0.35081 0.0
H123 H 0.0515 0.95303 0.38056 0.0
H124 H 0.02219 0.03874 0.78624 0.0
H125 H 0.02877 0.02309 0.6682 0.0
H126 H 0.94853 0.06347 0.68657 0.0
H127 H 0.0505 0.02001 0.74048 0.0
Eu128 Eu 0.4757 0.48977 0.99425 0.0
C129 C 0.588 0.56232 0.01492 0.0
N130 N 0.58519 0.53513 0.03694 0.0
C131 C 0.63193 0.51864 0.02466 0.0
C132 C 0.61281 0.56842 0.99592 0.0
C133 C 0.60686 0.51352 0.04272 0.0
C134 C 0.63484 0.54615 1.00097 0.0
C135 C 0.56807 0.61224 0.98789 0.0
C136 C 0.5656 0.58383 0.01063 0.0
C137 C 0.59239 0.61813 0.96816 0.0
C138 C 0.61468 0.5963 0.97216 0.0
Eu139 Eu 0.54202 0.52815 0.06572 0.0
N140 N 0.54201 0.57741 0.02961 0.0
C141 C 0.54642 0.63416 0.98647 0.0
C142 C 0.52284 0.59976 0.0318 0.0
C143 C 0.5241 0.62809 0.00928 0.0
H144 H 0.60452 0.49223 0.06092 0.0
H145 H 0.50825 0.64542 0.01026 0.0
H146 H 0.42393 0.54189 0.94723 0.0
H147 H 0.46346 0.38292 0.08799 0.0
H148 H 0.50702 0.59633 0.05173 0.0
H149 H 0.5475 0.65622 0.96932 0.0
H150 H 0.49016 0.42177 0.05007 0.0
H151 H 0.64892 0.50136 0.02889 0.0
H152 H 0.59439 0.6397 0.95019 0.0
H153 H 0.63338 0.60126 0.95691 0.0
H154 H 0.37047 0.55301 0.94501 0.0
H155 H 0.65418 0.54997 0.98675 0.0
H156 H 0.40986 0.39021 0.08927 0.0
N157 N 0.42447 0.50133 0.98781 0.0
C158 C 0.40834 0.48103 0.00814 0.0
C159 C 0.38088 0.53277 0.96304 0.0
C160 C 0.37769 0.48615 0.00717 0.0
C161 C 0.41118 0.52661 0.9647 0.0
C162 C 0.36409 0.51254 0.98455 0.0
N163 N 0.45225 0.45097 0.0309 0.0
C164 C 0.46681 0.42517 0.05044 0.0
C165 C 0.40637 0.43333 0.05106 0.0
C166 C 0.42249 0.45491 0.0298 0.0
C167 C 0.42143 0.40729 0.07245 0.0
C168 C 0.45172 0.40311 0.07188 0.0
H169 H 0.3406 0.51733 0.98312 0.0
H170 H 0.33805 0.46842 0.02834 0.0
H171 H 0.36317 0.42222 0.06677 0.0
O172 O 0.48908 0.46005 0.95621 0.0
O173 O 0.47089 0.48758 0.05941 0.0
O174 O 0.51764 0.49174 0.09971 0.0
O175 O 0.44649 0.48359 0.93757 0.0
O176 O 0.51933 0.4628 0.0172 0.0
O177 O 0.549 0.47824 0.07389 0.0
O178 O 0.54693 0.55511 0.11437 0.0
O179 O 0.54624 0.5169 0.00424 0.0
O180 O 0.49997 0.52898 0.96687 0.0
O181 O 0.58177 0.52384 0.11359 0.0
O182 O 0.49359 0.54446 0.05782 0.0
O183 O 0.4757 0.53978 0.99189 0.0
C184 C 0.48943 0.48362 0.0944 0.0
C185 C 0.4702 0.47177 0.88641 0.0
C186 C 0.46232 0.45781 0.81922 0.0
C187 C 0.48054 0.48157 0.80736 0.0
C188 C 0.48805 0.4955 0.87396 0.0
C189 C 0.4932 0.50033 0.83459 0.0
C190 C 0.45721 0.45312 0.85895 0.0
C191 C 0.54167 0.4589 0.0487 0.0
C192 C 0.46526 0.46584 0.92803 0.0
C193 C 0.3616 0.46482 0.02861 0.0
C194 C 0.37589 0.43848 0.05047 0.0
C195 C 0.52908 0.52863 0.97029 0.0
C196 C 0.57322 0.53115 0.17701 0.0
C197 C 0.58261 0.53999 0.24683 0.0
C198 C 0.57398 0.51053 0.25874 0.0
C199 C 0.56499 0.50179 0.18964 0.0
C200 C 0.58222 0.55016 0.2057 0.0
C201 C 0.56531 0.4916 0.23029 0.0
C202 C 0.47399 0.55157 0.02399 0.0
C203 C 0.57191 0.54212 0.13394 0.0
H204 H 0.48469 0.48586 0.77689 0.0
H205 H 0.49801 0.51018 0.89464 0.0
H206 H 0.50706 0.51866 0.82516 0.0
H207 H 0.44357 0.43465 0.86875 0.0
H208 H 0.57434 0.502 0.29019 0.0
H209 H 0.55843 0.48675 0.16804 0.0
H210 H 0.58845 0.5729 0.19595 0.0
H211 H 0.55888 0.46893 0.23978 0.0
C212 C 0.22999 0.22785 0.42926 0.0
C213 C 0.25559 0.23273 0.45729 0.0
C214 C 0.20737 0.20945 0.44105 0.0
C215 C 0.19365 0.14796 0.51981 0.0
H216 H 0.11082 0.16465 0.46745 0.0
C217 C 0.09394 0.07332 0.55644 0.0
C218 C 0.07407 0.06612 0.52261 0.0
C219 C 0.11609 0.09466 0.55184 0.0
C220 C 0.13387 0.15964 0.48223 0.0
H221 H 0.27802 0.22284 0.51958 0.0
H222 H 0.23799 0.19086 0.54086 0.0
H223 H 0.14901 0.20116 0.45472 0.0
H224 H 0.06151 0.07571 0.45756 0.0
H225 H 0.09995 0.1131 0.44952 0.0
H226 H 0.17818 0.10636 0.54738 0.0
C227 C 0.23546 0.20096 0.50957 0.0
C228 C 0.15581 0.18053 0.47489 0.0
C229 C 0.25824 0.21939 0.49759 0.0
C230 C 0.07666 0.08069 0.48415 0.0
C231 C 0.09849 0.10226 0.47959 0.0
C232 C 0.17158 0.12715 0.52746 0.0
C233 C 0.20981 0.19556 0.4813 0.0
C234 C 0.18612 0.17471 0.49282 0.0
C235 C 0.11843 0.10952 0.51335 0.0
C236 C 0.14156 0.13252 0.50806 0.0
H237 H 0.22776 0.23772 0.39787 0.0
H238 H 0.18839 0.20542 0.4182 0.0
H239 H 0.21674 0.14253 0.53386 0.0
H240 H 0.09241 0.06236 0.58643 0.0
H241 H 0.13107 0.0999 0.57839 0.0
C242 C 0.29641 0.76088 0.99429 0.0
C243 C 0.28532 0.75931 0.02999 0.0
C244 C 0.3139 0.73726 0.98846 0.0
C245 C 0.33682 0.65775 0.03029 0.0
H246 H 0.40726 0.67801 0.98399 0.0
C247 C 0.43878 0.57791 0.05527 0.0
C248 C 0.45086 0.57474 0.02138 0.0
C249 C 0.41668 0.59965 0.05271 0.0
C250 C 0.3875 0.67198 0.99659 0.0
H251 H 0.28324 0.7325 0.08737 0.0
H252 H 0.314 0.69173 0.07789 0.0
H253 H 0.3712 0.71717 0.98483 0.0
H254 H 0.45002 0.59219 0.95855 0.0
H255 H 0.4116 0.6305 0.95418 0.0
H256 H 0.35384 0.61274 0.0434 0.0
C257 C 0.30884 0.71046 0.05374 0.0
C258 C 0.36671 0.6944 0.99691 0.0
C259 C 0.29131 0.73388 0.05934 0.0
C260 C 0.4408 0.59398 0.98502 0.0
C261 C 0.419 0.61599 0.98259 0.0
C262 C 0.35776 0.63546 0.03039 0.0
C263 C 0.32071 0.7119 0.01844 0.0
C264 C 0.3413 0.68767 0.01435 0.0
C265 C 0.4066 0.61897 0.01637 0.0
C266 C 0.38352 0.64239 0.01404 0.0
H267 H 0.29214 0.78052 0.97142 0.0
H268 H 0.32235 0.73903 0.96072 0.0
H269 H 0.31722 0.65153 0.04314 0.0
H270 H 0.44619 0.56336 0.08365 0.0
H271 H 0.40778 0.60165 0.07935 0.0
C272 C 0.75689 0.79244 0.56554 0.0
C273 C 0.74695 0.79275 0.60176 0.0
C274 C 0.78211 0.80886 0.5578 0.0
C275 C 0.84864 0.84606 0.60962 0.0
H276 H 0.84721 0.89268 0.50424 0.0
C277 C 0.92917 0.94309 0.58372 0.0
C278 C 0.94215 0.94585 0.54923 0.0
C279 C 0.90662 0.92243 0.58897 0.0
C280 C 0.84811 0.8795 0.53369 0.0
H281 H 0.75483 0.81002 0.65817 0.0
H282 H 0.79839 0.83888 0.64474 0.0
H283 H 0.80567 0.85964 0.51529 0.0
H284 H 0.94135 0.92893 0.49311 0.0
H285 H 0.90186 0.89296 0.50234 0.0
H286 H 0.89069 0.8664 0.62827 0.0
C287 C 0.78743 0.82573 0.62249 0.0
C288 C 0.82433 0.8605 0.54002 0.0
C289 C 0.76237 0.80938 0.63013 0.0
C290 C 0.93191 0.92744 0.52007 0.0
C291 C 0.90916 0.9069 0.52522 0.0
C292 C 0.87226 0.86512 0.60336 0.0
C293 C 0.79768 0.82573 0.58625 0.0
C294 C 0.82407 0.84392 0.57827 0.0
C295 C 0.89632 0.90411 0.55979 0.0
C296 C 0.87208 0.88241 0.56551 0.0
H297 H 0.74514 0.7797 0.54328 0.0
H298 H 0.78952 0.80819 0.52972 0.0
H299 H 0.84955 0.83313 0.63923 0.0
H300 H 0.93639 0.95689 0.60679 0.0
H301 H 0.89691 0.92112 0.6157 0.0
C302 C 0.72578 0.25711 0.07222 0.0
C303 C 0.71459 0.23813 0.04445 0.0
C304 C 0.70697 0.27876 0.08021 0.0
C305 C 0.62638 0.30202 0.06498 0.0
H306 H 0.659 0.38105 0.07036 0.0
C307 C 0.55287 0.40909 0.03086 0.0
C308 C 0.56048 0.43136 0.05525 0.0
C309 C 0.57141 0.38396 0.03544 0.0
C310 C 0.64963 0.35902 0.06949 0.0
H311 H 0.67551 0.22619 1.00353 0.0
H312 H 0.64278 0.26402 0.01674 0.0
H313 H 0.69207 0.33964 0.06858 0.0
H314 H 0.59339 0.44402 0.10445 0.0
H315 H 0.62587 0.40033 0.11192 0.0
H316 H 0.58373 0.32178 0.06437 0.0
C317 C 0.66567 0.26208 0.03324 0.0
C318 C 0.66862 0.3352 0.06859 0.0
C319 C 0.68441 0.24047 0.02547 0.0
C320 C 0.58684 0.4275 0.0849 0.0
C321 C 0.60556 0.40249 0.08916 0.0
C322 C 0.60738 0.32588 0.06553 0.0
C323 C 0.67675 0.28183 0.0603 0.0
C324 C 0.65716 0.30647 0.06561 0.0
C325 C 0.59815 0.38055 0.06428 0.0
C326 C 0.61871 0.35474 0.06715 0.0
H327 H 0.74914 0.25568 0.08696 0.0
H328 H 0.71619 0.29332 0.10156 0.0
H329 H 0.61683 0.28012 0.06355 0.0
H330 H 0.53276 0.41118 0.00777 0.0
H331 H 0.56522 0.36759 0.01554 0.0
C332 C 0.17457 0.84877 0.11926 0.0
C333 C 0.18264 0.86901 0.0878 0.0
C334 C 0.16017 0.85874 0.14742 0.0
C335 C 0.11601 0.92265 0.16285 0.0
H336 H 0.13049 0.88121 0.27284 0.0
C337 C 0.03398 0.9308 0.26952 0.0
C338 C 0.04473 0.92786 0.3113 0.0
C339 C 0.05331 0.9277 0.24325 0.0
C340 C 0.12646 0.89345 0.24248 0.0
H341 H 0.18234 0.91566 0.06144 0.0
H342 H 0.15772 0.9333 0.11117 0.0
H343 H 0.16019 0.86818 0.226 0.0
H344 H 0.0847 0.92076 0.35793 0.0
H345 H 0.11871 0.91643 0.31191 0.0
H346 H 0.08275 0.9484 0.17961 0.0
C347 C 0.16195 0.90958 0.11365 0.0
C348 C 0.14321 0.8856 0.21533 0.0
C349 C 0.17612 0.89953 0.08518 0.0
C350 C 0.07564 0.92322 0.32594 0.0
C351 C 0.09509 0.92035 0.29956 0.0
C352 C 0.09946 0.93072 0.19012 0.0
C353 C 0.15372 0.88929 0.14513 0.0
C354 C 0.13776 0.89961 0.1749 0.0
C355 C 0.08407 0.92193 0.25792 0.0
C356 C 0.10399 0.91577 0.23009 0.0
H357 H 0.17888 0.82506 0.12167 0.0
H358 H 0.15356 0.84232 0.17053 0.0
H359 H 0.111 0.93388 0.13197 0.0
H360 H 0.0104 0.93497 0.25705 0.0
H361 H 0.04383 0.92878 0.21155 0.0
C362 C 0.63104 0.68921 0.70788 0.0
C363 C 0.65137 0.67543 0.69006 0.0
C364 C 0.61882 0.67314 0.7391 0.0
C365 C 0.60692 0.59503 0.78585 0.0
H366 H 0.58612 0.63425 0.86993 0.0
C367 C 0.56907 0.53285 0.92904 0.0
C368 C 0.54271 0.54413 0.93725 0.0
C369 C 0.58276 0.5484 0.89894 0.0
C370 C 0.59173 0.62309 0.8465 0.0
H371 H 0.6757 0.63444 0.69166 0.0
H372 H 0.65541 0.60664 0.74717 0.0
H373 H 0.61056 0.66249 0.81876 0.0
H374 H 0.50973 0.58012 0.92057 0.0
H375 H 0.53407 0.60771 0.86841 0.0
H376 H 0.58869 0.55543 0.81458 0.0
C377 C 0.648 0.62954 0.73631 0.0
C378 C 0.6056 0.63927 0.81701 0.0
C379 C 0.65983 0.64549 0.70468 0.0
C380 C 0.52999 0.57095 0.91458 0.0
C381 C 0.54401 0.5868 0.88507 0.0
C382 C 0.5935 0.57878 0.81573 0.0
C383 C 0.627 0.643 0.75365 0.0
C384 C 0.61318 0.62554 0.78602 0.0
C385 C 0.57055 0.57571 0.87706 0.0
C386 C 0.58554 0.59273 0.84608 0.0
H387 H 0.62388 0.71218 0.69681 0.0
H388 H 0.60236 0.68421 0.75104 0.0
H389 H 0.61181 0.58374 0.76216 0.0
H390 H 0.57919 0.51214 0.94614 0.0
H391 H 0.60329 0.53947 0.89343 0.0
C392 C 0.8177 0.1482 0.15441 0.0
C393 C 0.83344 0.16308 0.12584 0.0
C394 C 0.83263 0.13801 0.19389 0.0
C395 C 0.90888 0.11526 0.24837 0.0
H396 H 0.87453 0.1115 0.34423 0.0
C397 C 0.97694 0.06977 0.40533 0.0
C398 C 0.96223 0.05032 0.43106 0.0
C399 C 0.96076 0.08607 0.36992 0.0
C400 C 0.88431 0.11222 0.31765 0.0
H401 H 0.87641 0.18108 0.11682 0.0
H402 H 0.9023 0.16396 0.1857 0.0
H403 H 0.84672 0.13667 0.27948 0.0
H404 H 0.91925 0.03232 0.4399 0.0
H405 H 0.89084 0.06075 0.3779 0.0
H406 H 0.9462 0.09056 0.28609 0.0
C407 C 0.87869 0.15931 0.17751 0.0
C408 C 0.8684 0.12665 0.28059 0.0
C409 C 0.86384 0.16929 0.13813 0.0
C410 C 0.93104 0.0475 0.42081 0.0
C411 C 0.9148 0.06384 0.38538 0.0
C412 C 0.92472 0.10091 0.28528 0.0
C413 C 0.86355 0.14264 0.20552 0.0
C414 C 0.88052 0.12833 0.24547 0.0
C415 C 0.92952 0.08313 0.35932 0.0
C416 C 0.91266 0.09915 0.32038 0.0
H417 H 0.79428 0.14295 0.14564 0.0
H418 H 0.8203 0.12514 0.21461 0.0
H419 H 0.91862 0.11544 0.22185 0.0
H420 H 1.00096 0.07256 0.41275 0.0
H421 H 0.97274 0.10105 0.35085 0.0
C422 C 0.39009 0.32014 0.54269 0.0
C423 C 0.35961 0.31791 0.5258 0.0
C424 C 0.39885 0.32994 0.57976 0.0
C425 C 0.37108 0.376 0.64483 0.0
H426 H 0.44581 0.34988 0.71701 0.0
C427 C 0.41857 0.43004 0.78642 0.0
C428 C 0.4489 0.43788 0.79023 0.0
C429 C 0.40581 0.41195 0.75824 0.0
C430 C 0.4249 0.35742 0.69711 0.0
H431 H 0.31437 0.32264 0.53559 0.0
H432 H 0.32968 0.33934 0.60109 0.0
H433 H 0.42616 0.32269 0.66176 0.0
H434 H 0.48979 0.43228 0.76831 0.0
H435 H 0.46758 0.40072 0.7192 0.0
H436 H 0.37011 0.41097 0.68008 0.0
C437 C 0.34682 0.33399 0.58517 0.0
C438 C 0.41364 0.34188 0.66541 0.0
C439 C 0.33803 0.32413 0.5479 0.0
C440 C 0.46631 0.42683 0.76581 0.0
C441 C 0.45365 0.40851 0.73799 0.0
C442 C 0.38226 0.39142 0.67677 0.0
C443 C 0.37735 0.33764 0.60112 0.0
C444 C 0.38699 0.35144 0.6382 0.0
C445 C 0.42322 0.40103 0.73368 0.0
C446 C 0.40967 0.38274 0.70263 0.0
H447 H 0.40726 0.31513 0.5266 0.0
H448 H 0.42252 0.33273 0.59073 0.0
H449 H 0.3507 0.38425 0.62425 0.0
H450 H 0.40456 0.43837 0.80469 0.0
H451 H 0.38233 0.40645 0.75571 0.0
C452 C 0.63378 0.67029 0.53597 0.0
C453 C 0.6618 0.68337 0.54657 0.0
C454 C 0.62701 0.65688 0.50149 0.0
C455 C 0.64527 0.65258 0.40306 0.0
H456 H 0.61052 0.57409 0.41953 0.0
C457 C 0.61807 0.5767 0.27812 0.0
C458 C 0.5919 0.55977 0.27759 0.0
C459 C 0.62793 0.59333 0.30927 0.0
C460 C 0.61984 0.59613 0.41418 0.0
H461 H 0.70412 0.69406 0.52788 0.0
H462 H 0.69203 0.67061 0.46676 0.0
H463 H 0.62566 0.60054 0.4764 0.0
H464 H 0.55462 0.5484 0.3078 0.0
H465 H 0.57136 0.57767 0.36148 0.0
H466 H 0.63886 0.64826 0.34047 0.0
C467 C 0.67549 0.67066 0.48568 0.0
C468 C 0.62865 0.61123 0.44687 0.0
C469 C 0.68239 0.68406 0.52058 0.0
C470 C 0.57519 0.56074 0.30786 0.0
C471 C 0.58488 0.57745 0.33871 0.0
C472 C 0.63623 0.63747 0.37009 0.0
C473 C 0.64795 0.65634 0.47638 0.0
C474 C 0.64099 0.63981 0.44163 0.0
C475 C 0.61171 0.59345 0.34036 0.0
C476 C 0.62291 0.60925 0.37521 0.0
H477 H 0.617 0.6702 0.55458 0.0
H478 H 0.60532 0.64669 0.49458 0.0
H479 H 0.65466 0.67463 0.39816 0.0
H480 H 0.63148 0.57625 0.25527 0.0
H481 H 0.64875 0.60527 0.30969 0.0
C482 C 0.85205 0.12298 0.9945 0.0
C483 C 0.83684 0.15072 0.98428 0.0
C484 C 0.86708 0.11237 0.96737 0.0
C485 C 0.90022 0.13763 0.87746 0.0
H486 H 0.89782 0.05357 0.86756 0.0
C487 C 0.94939 0.09089 0.75535 0.0
C488 C 0.9658 0.06387 0.76733 0.0
C489 C 0.93315 0.1015 0.78122 0.0
C490 C 0.89895 0.07705 0.87026 0.0
H491 H 0.82559 0.18906 0.93737 0.0
H492 H 0.85128 0.17028 0.8897 0.0
H493 H 0.87017 0.07201 0.91344 0.0
H494 H 0.97765 0.02664 0.81578 0.0
H495 H 0.94964 0.04534 0.86112 0.0
H496 H 0.92899 0.14265 0.83423 0.0
C497 C 0.8519 0.15687 0.91895 0.0
C498 C 0.88311 0.08763 0.89658 0.0
C499 C 0.83687 0.16749 0.94611 0.0
C500 C 0.9655 0.04768 0.80577 0.0
C501 C 0.94917 0.05823 0.83158 0.0
C502 C 0.91601 0.12705 0.85108 0.0
C503 C 0.86726 0.12921 0.92928 0.0
C504 C 0.88364 0.11804 0.90064 0.0
C505 C 0.93283 0.08529 0.81964 0.0
C506 C 0.91566 0.09662 0.84726 0.0
H507 H 0.85218 0.10929 0.02344 0.0
H508 H 0.87893 0.09112 0.97652 0.0
H509 H 0.90152 0.16109 0.88028 0.0
H510 H 0.94937 0.10405 0.72609 0.0
H511 H 0.92059 0.12228 0.77094 0.0
C512 C 0.38154 0.32451 0.35281 0.0
C513 C 0.37272 0.3388 0.38241 0.0
C514 C 0.39533 0.34052 0.32308 0.0
C515 C 0.43842 0.37601 0.27666 0.0
H516 H 0.40875 0.45581 0.22895 0.0
C517 C 0.49639 0.4522 0.16281 0.0
C518 C 0.47748 0.46868 0.12955 0.0
C519 C 0.48456 0.4369 0.19494 0.0
C520 C 0.41722 0.43349 0.24177 0.0
H521 H 0.37137 0.38129 0.4037 0.0
H522 H 0.39602 0.40899 0.35257 0.0
H523 H 0.38599 0.42761 0.28165 0.0
H524 H 0.4314 0.48242 0.10415 0.0
H525 H 0.41073 0.45519 0.1594 0.0
H526 H 0.46907 0.38161 0.23586 0.0
C527 C 0.39198 0.38546 0.352 0.0
C528 C 0.40439 0.41744 0.27237 0.0
C529 C 0.37816 0.36948 0.38165 0.0
C530 C 0.44657 0.46977 0.12924 0.0
C531 C 0.43474 0.4544 0.16117 0.0
C532 C 0.45124 0.39207 0.24598 0.0
C533 C 0.40065 0.37122 0.32224 0.0
C534 C 0.41474 0.38845 0.29012 0.0
C535 C 0.45355 0.43771 0.19441 0.0
C536 C 0.44068 0.42096 0.22801 0.0
H537 H 0.37798 0.30085 0.35273 0.0
H538 H 0.4014 0.32889 0.30039 0.0
H539 H 0.44719 0.35388 0.28996 0.0
H540 H 0.5202 0.45048 0.1636 0.0
H541 H 0.49972 0.42447 0.22023 0.0
C542 C 0.18023 0.84659 0.91768 0.0
C543 C 0.19041 0.86662 0.94455 0.0
C544 C 0.16672 0.85728 0.87769 0.0
C545 C 0.15874 0.92357 0.79853 0.0
H546 H 0.0802 0.89284 0.76083 0.0
C547 C 0.07787 0.98514 0.65987 0.0
C548 C 0.05846 0.9683 0.6352 0.0
C549 C 0.09574 0.9713 0.69579 0.0
C550 C 0.10233 0.90136 0.77038 0.0
H551 H 0.19581 0.91334 0.95044 0.0
H552 H 0.17281 0.93199 0.88058 0.0
H553 H 0.10949 0.87057 0.8257 0.0
H554 H 0.04219 0.92384 0.62939 0.0
H555 H 0.07451 0.89937 0.69054 0.0
H556 H 0.15184 0.95423 0.74329 0.0
C557 C 0.17503 0.90809 0.89031 0.0
C558 C 0.1191 0.88857 0.80769 0.0
C559 C 0.18805 0.89744 0.93032 0.0
C560 C 0.05741 0.93732 0.64719 0.0
C561 C 0.07562 0.92338 0.68275 0.0
C562 C 0.14215 0.93613 0.76099 0.0
C563 C 0.16368 0.88817 0.86375 0.0
C564 C 0.14727 0.89984 0.82245 0.0
C565 C 0.09492 0.94019 0.70776 0.0
C566 C 0.11347 0.92554 0.74663 0.0
H567 H 0.18165 0.82273 0.928 0.0
H568 H 0.15833 0.84142 0.85779 0.0
H569 H 0.18054 0.93252 0.80897 0.0
H570 H 0.07923 0.00909 0.6515 0.0
H571 H 0.1098 0.98517 0.71448 0.0
loop_
_geom_bond_atom_site_label_1
_geom_bond_atom_site_label_2
_geom_bond_distance
_geom_bond_site_symmetry_2
_ccdc_geom_bond_type
H0 C3 0.929 . S
H1 C6 0.929 . S
H2 C8 0.930 . S
C3 H0 0.929 . S
C3 C4 1.398 1_554 S
C3 C5 1.396 . S
C4 C3 1.398 1_556 S
C4 C8 1.407 . S
C5 C3 1.396 . S
C5 C6 1.394 . S
C6 H1 0.929 . S
C6 C5 1.394 . S
C6 C7 1.382 . S
C7 C6 1.382 . S
C7 C8 1.392 1_554 S
C7 N9 1.420 . S
C8 H2 0.930 . S
C8 C4 1.407 . S
C8 C7 1.392 1_556 S
N9 C7 1.420 . S
N9 C10 1.244 . S
C10 N9 1.244 . S
H11 C14 0.929 . S
H12 C17 0.929 . S
H13 C19 0.930 . S
C14 H11 0.929 . S
C14 C15 1.398 . S
C14 C16 1.396 . S
C15 C14 1.398 . S
C15 C19 1.407 . S
C16 C14 1.396 . S
C16 C17 1.394 . S
C17 H12 0.929 . S
C17 C16 1.394 . S
C17 C18 1.382 . S
C18 C17 1.382 . S
C18 C19 1.392 . S
C18 N20 1.420 . S
C19 H13 0.930 . S
C19 C15 1.407 . S
C19 C18 1.392 . S
N20 C18 1.420 . S
N20 C21 1.244 . S
C21 N20 1.244 . S
H22 C25 0.929 . S
H23 C28 0.929 . S
H24 C30 0.930 . S
C25 H22 0.929 . S
C25 C26 1.398 1_554 S
C25 C27 1.396 . S
C26 C25 1.398 1_556 S
C26 C30 1.407 . S
C27 C25 1.396 . S
C27 C28 1.394 . S
C28 H23 0.929 . S
C28 C27 1.394 . S
C28 C29 1.382 . S
C29 C28 1.382 . S
C29 C30 1.392 1_554 S
C29 N31 1.420 . S
C30 H24 0.930 . S
C30 C26 1.407 . S
C30 C29 1.392 1_556 S
N31 C29 1.420 . S
N31 C32 1.244 . S
C32 N31 1.244 . S
H33 C36 0.929 . S
H34 C39 0.929 . S
H35 C41 0.930 . S
C36 H33 0.929 . S
C36 C37 1.398 . S
C36 C38 1.396 . S
C37 C36 1.398 . S
C37 C41 1.407 . S
C38 C36 1.396 . S
C38 C39 1.394 . S
C39 H34 0.929 . S
C39 C38 1.394 . S
C39 C40 1.382 . S
C40 C39 1.382 . S
C40 C41 1.392 . S
C40 N42 1.420 . S
C41 H35 0.930 . S
C41 C37 1.407 . S
C41 C40 1.392 . S
N42 C40 1.420 . S
N42 C43 1.244 . S
C43 N42 1.244 . S
Eu44 N73 2.600 . S
Eu44 N79 2.562 . S
Eu44 O88 2.462 . S
Eu44 O89 2.373 . S
Eu44 O91 2.432 . S
Eu44 O92 2.291 1_565 S
Eu44 O96 2.335 1_465 S
Eu44 O99 2.372 1_455 S
Eu44 C108 2.787 . S
C45 N46 1.365 . S
C45 C48 1.405 . S
C45 C52 1.448 . S
N46 C45 1.365 . S
N46 C49 1.319 1_655 S
N46 Eu55 2.600 . S
C47 C49 1.397 . S
C47 C50 1.367 1_455 S
C47 H67 0.931 . S
C48 C45 1.405 . S
C48 C50 1.403 . S
C48 C54 1.439 . S
C49 N46 1.319 1_455 S
C49 C47 1.397 . S
C49 H60 0.930 . S
C50 C47 1.367 1_655 S
C50 C48 1.403 . S
C50 H71 0.929 . S
C51 C52 1.430 . S
C51 C53 1.387 . S
C51 C57 1.404 . S
C52 C45 1.448 . S
C52 C51 1.430 . S
C52 N56 1.351 . S
C53 C51 1.387 . S
C53 C54 1.374 . S
C53 H68 0.931 . S
C54 C48 1.439 . S
C54 C53 1.374 . S
C54 H69 0.931 . S
Eu55 N46 2.600 . S
Eu55 N56 2.562 . S
Eu55 O90 2.335 1_655 S
Eu55 O93 2.372 1_655 S
Eu55 O94 2.462 . S
Eu55 O95 2.373 . S
Eu55 O97 2.432 . S
Eu55 O98 2.291 1_545 S
Eu55 C119 2.787 . S
N56 C52 1.351 . S
N56 Eu55 2.562 . S
N56 C58 1.325 . S
C57 C51 1.404 . S
C57 C59 1.366 . S
C57 H65 0.930 . S
C58 N56 1.325 . S
C58 C59 1.416 . S
C58 H64 0.929 . S
C59 C57 1.366 . S
C59 C58 1.416 . S
C59 H61 0.930 . S
H60 C49 0.930 . S
H61 C59 0.930 . S
H62 C77 0.930 1_655 S
H63 C84 0.930 . S
H64 C58 0.929 . S
H65 C57 0.930 . S
H66 C80 0.929 . S
H67 C47 0.931 . S
H68 C53 0.931 . S
H69 C54 0.931 . S
H70 C75 0.931 1_655 S
H71 C50 0.929 . S
H72 C83 0.930 . S
N73 Eu44 2.600 . S
N73 C74 1.365 . S
N73 C77 1.319 . S
C74 N73 1.365 . S
C74 C76 1.405 . S
C74 C82 1.448 . S
C75 H70 0.931 1_455 S
C75 C77 1.397 . S
C75 C78 1.367 . S
C76 C74 1.405 . S
C76 C78 1.403 . S
C76 C109 1.439 . S
C77 H62 0.930 1_455 S
C77 N73 1.319 . S
C77 C75 1.397 . S
C78 C75 1.367 . S
C78 C76 1.403 . S
C78 H85 0.929 . S
N79 Eu44 2.562 . S
N79 C80 1.325 . S
N79 C82 1.351 . S
C80 H66 0.929 . S
C80 N79 1.325 . S
C80 C84 1.416 . S
C81 C82 1.430 . S
C81 C83 1.404 . S
C81 C110 1.387 . S
C82 C74 1.448 . S
C82 N79 1.351 . S
C82 C81 1.430 . S
C83 H72 0.930 . S
C83 C81 1.404 . S
C83 C84 1.366 . S
C84 H63 0.930 . S
C84 C80 1.416 . S
C84 C83 1.366 . S
H85 C78 0.929 . S
H86 C109 0.931 . S
H87 C110 0.931 . S
O88 Eu44 2.462 . S
O88 C108 1.252 . S
O89 Eu44 2.373 . S
O89 C100 1.249 . S
O90 Eu55 2.335 1_455 S
O90 C100 1.264 1_545 S
O91 Eu44 2.432 . S
O91 C108 1.268 . S
O92 Eu44 2.291 1_545 S
O92 C107 1.255 . S
O93 Eu55 2.372 1_455 S
O93 C107 1.257 . S
O94 Eu55 2.462 . S
O94 C119 1.252 . S
O95 Eu55 2.373 . S
O95 C111 1.249 . S
O96 Eu44 2.335 1_645 S
O96 C111 1.264 . S
O97 Eu55 2.432 . S
O97 C119 1.268 . S
O98 Eu55 2.291 1_565 S
O98 C118 1.255 . S
O99 Eu44 2.372 1_655 S
O99 C118 1.257 . S
C100 O89 1.249 . S
C100 O90 1.264 1_565 S
C101 C104 1.382 . S
C101 C106 1.390 . S
C101 C108 1.506 . S
C102 C103 1.398 . S
C102 C106 1.392 . S
C103 C102 1.398 . S
C103 C105 1.372 . S
C103 H120 0.931 . S
C104 C101 1.382 . S
C104 C105 1.390 . S
C104 H121 0.931 . S
C105 C103 1.372 . S
C105 C104 1.390 . S
C105 H122 0.929 . S
C106 C101 1.390 . S
C106 C102 1.392 . S
C106 H123 0.930 . S
C107 O92 1.255 . S
C107 O93 1.257 . S
C108 Eu44 2.787 . S
C108 O88 1.252 . S
C108 O91 1.268 . S
C108 C101 1.506 . S
C109 C76 1.439 . S
C109 H86 0.931 . S
C109 C110 1.374 . S
C110 C81 1.387 . S
C110 H87 0.931 . S
C110 C109 1.374 . S
C111 O95 1.249 . S
C111 O96 1.264 . S
C112 C115 1.382 . S
C112 C116 1.390 . S
C112 C119 1.506 . S
C113 C114 1.398 . S
C113 C116 1.392 . S
C114 C113 1.398 . S
C114 C117 1.372 . S
C114 H124 0.931 . S
C115 C112 1.382 . S
C115 C117 1.390 . S
C115 H125 0.931 . S
C116 C112 1.390 . S
C116 C113 1.392 . S
C116 H126 0.930 . S
C117 C114 1.372 . S
C117 C115 1.390 . S
C117 H127 0.929 . S
C118 O98 1.255 . S
C118 O99 1.257 . S
C119 Eu55 2.787 . S
C119 O94 1.252 . S
C119 O97 1.268 . S
C119 C112 1.506 . S
H120 C103 0.931 . S
H121 C104 0.931 . S
H122 C105 0.929 . S
H123 C106 0.930 . S
H124 C114 0.931 . S
H125 C115 0.931 . S
H126 C116 0.930 . S
H127 C117 0.929 . S
Eu128 N157 2.599 1_556 S
Eu128 N163 2.562 1_556 S
Eu128 O172 2.462 . S
Eu128 O173 2.373 1_556 S
Eu128 O175 2.432 . S
Eu128 O176 2.291 1_556 S
Eu128 O180 2.335 . S
Eu128 O183 2.372 1_556 S
Eu128 C192 2.787 . S
C129 N130 1.365 . S
C129 C132 1.405 . S
C129 C136 1.448 . S
N130 C129 1.365 . S
N130 C133 1.319 . S
N130 Eu139 2.600 . S
C131 C133 1.397 . S
C131 C134 1.367 . S
C131 H151 0.931 . S
C132 C129 1.405 . S
C132 C134 1.403 . S
C132 C138 1.439 . S
C133 N130 1.319 . S
C133 C131 1.397 . S
C133 H144 0.930 . S
C134 C131 1.367 . S
C134 C132 1.403 . S
C134 H155 0.929 . S
C135 C136 1.430 . S
C135 C137 1.387 . S
C135 C141 1.404 . S
C136 C129 1.448 . S
C136 C135 1.430 . S
C136 N140 1.351 . S
C137 C135 1.387 . S
C137 C138 1.374 . S
C137 H152 0.931 . S
C138 C132 1.439 . S
C138 C137 1.374 . S
C138 H153 0.931 . S
Eu139 N130 2.600 . S
Eu139 N140 2.562 . S
Eu139 O174 2.335 . S
Eu139 O177 2.372 . S
Eu139 O178 2.462 . S
Eu139 O179 2.373 . S
Eu139 O181 2.432 . S
Eu139 O182 2.291 . S
Eu139 C203 2.787 . S
N140 C136 1.351 . S
N140 Eu139 2.562 . S
N140 C142 1.325 . S
C141 C135 1.404 . S
C141 C143 1.366 . S
C141 H149 0.930 . S
C142 N140 1.325 . S
C142 C143 1.416 . S
C142 H148 0.929 . S
C143 C141 1.366 . S
C143 C142 1.416 . S
C143 H145 0.930 . S
H144 C133 0.930 . S
H145 C143 0.930 . S
H146 C161 0.930 . S
H147 C168 0.930 . S
H148 C142 0.929 . S
H149 C141 0.930 . S
H150 C164 0.929 . S
H151 C131 0.931 . S
H152 C137 0.931 . S
H153 C138 0.931 . S
H154 C159 0.931 . S
H155 C134 0.929 . S
H156 C167 0.930 . S
N157 Eu128 2.599 1_554 S
N157 C158 1.366 . S
N157 C161 1.319 1_554 S
C158 N157 1.366 . S
C158 C160 1.405 . S
C158 C166 1.448 . S
C159 H154 0.931 . S
C159 C161 1.397 . S
C159 C162 1.367 1_556 S
C160 C158 1.405 . S
C160 C162 1.403 . S
C160 C193 1.439 . S
C161 H146 0.930 . S
C161 N157 1.319 1_556 S
C161 C159 1.397 . S
C162 C159 1.367 1_554 S
C162 C160 1.403 . S
C162 H169 0.929 . S
N163 Eu128 2.562 1_554 S
N163 C164 1.325 . S
N163 C166 1.351 . S
C164 H150 0.929 . S
C164 N163 1.325 . S
C164 C168 1.416 . S
C165 C166 1.430 . S
C165 C167 1.404 . S
C165 C194 1.387 . S
C166 C158 1.448 . S
C166 N163 1.351 . S
C166 C165 1.430 . S
C167 H156 0.930 . S
C167 C165 1.404 . S
C167 C168 1.366 . S
C168 H147 0.930 . S
C168 C164 1.416 . S
C168 C167 1.366 . S
H169 C162 0.929 . S
H170 C193 0.931 . S
H171 C194 0.931 . S
O172 Eu128 2.462 . S
O172 C192 1.252 . S
O173 Eu128 2.373 1_554 S
O173 C184 1.249 . S
O174 Eu139 2.335 . S
O174 C184 1.264 . S
O175 Eu128 2.432 . S
O175 C192 1.268 . S
O176 Eu128 2.291 1_554 S
O176 C191 1.255 . S
O177 Eu139 2.372 . S
O177 C191 1.257 . S
O178 Eu139 2.462 . S
O178 C203 1.252 . S
O179 Eu139 2.373 . S
O179 C195 1.249 1_554 S
O180 Eu128 2.335 . S
O180 C195 1.264 . S
O181 Eu139 2.432 . S
O181 C203 1.268 . S
O182 Eu139 2.291 . S
O182 C202 1.255 . S
O183 Eu128 2.372 1_554 S
O183 C202 1.257 . S
C184 O173 1.249 . S
C184 O174 1.264 . S
C185 C188 1.382 . S
C185 C190 1.390 . S
C185 C192 1.506 . S
C186 C187 1.398 . S
C186 C190 1.392 . S
C187 C186 1.398 . S
C187 C189 1.372 . S
C187 H204 0.931 . S
C188 C185 1.382 . S
C188 C189 1.390 . S
C188 H205 0.931 . S
C189 C187 1.372 . S
C189 C188 1.390 . S
C189 H206 0.929 . S
C190 C185 1.390 . S
C190 C186 1.392 . S
C190 H207 0.930 . S
C191 O176 1.255 . S
C191 O177 1.257 . S
C192 Eu128 2.787 . S
C192 O172 1.252 . S
C192 O175 1.268 . S
C192 C185 1.506 . S
C193 C160 1.439 . S
C193 H170 0.931 . S
C193 C194 1.374 . S
C194 C165 1.387 . S
C194 H171 0.931 . S
C194 C193 1.374 . S
C195 O179 1.249 1_556 S
C195 O180 1.264 . S
C196 C199 1.382 . S
C196 C200 1.390 . S
C196 C203 1.506 . S
C197 C198 1.398 . S
C197 C200 1.392 . S
C198 C197 1.398 . S
C198 C201 1.372 . S
C198 H208 0.931 . S
C199 C196 1.382 . S
C199 C201 1.390 . S
C199 H209 0.931 . S
C200 C196 1.390 . S
C200 C197 1.392 . S
C200 H210 0.930 . S
C201 C198 1.372 . S
C201 C199 1.390 . S
C201 H211 0.929 . S
C202 O182 1.255 . S
C202 O183 1.257 . S
C203 Eu139 2.787 . S
C203 O178 1.252 . S
C203 O181 1.268 . S
C203 C196 1.506 . S
H204 C187 0.931 . S
H205 C188 0.931 . S
H206 C189 0.929 . S
H207 C190 0.930 . S
H208 C198 0.931 . S
H209 C199 0.931 . S
H210 C200 0.930 . S
H211 C201 0.929 . S
C212 C213 1.349 . S
C212 C214 1.327 . S
C212 H237 0.950 . S
C213 C212 1.349 . S
C213 C229 1.349 . S
C214 C212 1.327 . S
C214 C233 1.429 . S
C214 H238 0.950 . S
C215 C232 1.574 . S
C215 C234 1.368 . S
C215 H239 0.949 . S
H216 C220 0.949 . S
C217 C218 1.349 . S
C217 C219 1.327 . S
C217 H240 0.950 . S
C218 C217 1.349 . S
C218 C230 1.349 . S
C219 C217 1.327 . S
C219 C235 1.429 . S
C219 H241 0.950 . S
C220 H216 0.949 . S
C220 C228 1.574 . S
C220 C236 1.368 . S
H221 C229 0.950 . S
H222 C227 0.950 . S
H223 C228 0.949 . S
H224 C230 0.950 . S
H225 C231 0.950 . S
H226 C232 0.949 . S
C227 H222 0.950 . S
C227 C229 1.327 . S
C227 C233 1.429 . S
C228 C220 1.574 . S
C228 H223 0.949 . S
C228 C234 1.368 . S
C229 C213 1.349 . S
C229 H221 0.950 . S
C229 C227 1.327 . S
C230 C218 1.349 . S
C230 H224 0.950 . S
C230 C231 1.327 . S
C231 H225 0.950 . S
C231 C230 1.327 . S
C231 C235 1.429 . S
C232 C215 1.574 . S
C232 H226 0.949 . S
C232 C236 1.368 . S
C233 C214 1.429 . S
C233 C227 1.429 . S
C233 C234 1.523 . S
C234 C215 1.368 . S
C234 C228 1.368 . S
C234 C233 1.523 . S
C235 C219 1.429 . S
C235 C231 1.429 . S
C235 C236 1.523 . S
C236 C220 1.368 . S
C236 C232 1.368 . S
C236 C235 1.523 . S
H237 C212 0.950 . S
H238 C214 0.950 . S
H239 C215 0.949 . S
H240 C217 0.950 . S
H241 C219 0.950 . S
C242 C243 1.349 . S
C242 C244 1.327 . S
C242 H267 0.950 1_554 S
C243 C242 1.349 . S
C243 C259 1.349 . S
C244 C242 1.327 . S
C244 C263 1.429 . S
C244 H268 0.950 1_554 S
C245 C262 1.574 . S
C245 C264 1.368 . S
C245 H269 0.949 . S
H246 C250 0.949 1_556 S
C247 C248 1.349 . S
C247 C249 1.327 . S
C247 H270 0.950 . S
C248 C247 1.349 . S
C248 C260 1.349 . S
C249 C247 1.327 . S
C249 C265 1.429 . S
C249 H271 0.950 . S
C250 H246 0.949 1_554 S
C250 C258 1.574 . S
C250 C266 1.368 . S
H251 C259 0.950 . S
H252 C257 0.950 . S
H253 C258 0.949 1_556 S
H254 C260 0.950 1_556 S
H255 C261 0.950 1_556 S
H256 C262 0.949 . S
C257 H252 0.950 . S
C257 C259 1.327 . S
C257 C263 1.429 . S
C258 C250 1.574 . S
C258 H253 0.949 1_554 S
C258 C264 1.368 . S
C259 C243 1.349 . S
C259 H251 0.950 . S
C259 C257 1.327 . S
C260 C248 1.349 . S
C260 H254 0.950 1_554 S
C260 C261 1.327 . S
C261 H255 0.950 1_554 S
C261 C260 1.327 . S
C261 C265 1.429 . S
C262 C245 1.574 . S
C262 H256 0.949 . S
C262 C266 1.368 . S
C263 C244 1.429 . S
C263 C257 1.429 . S
C263 C264 1.523 . S
C264 C245 1.368 . S
C264 C258 1.368 . S
C264 C263 1.523 . S
C265 C249 1.429 . S
C265 C261 1.429 . S
C265 C266 1.523 . S
C266 C250 1.368 . S
C266 C262 1.368 . S
C266 C265 1.523 . S
H267 C242 0.950 1_556 S
H268 C244 0.950 1_556 S
H269 C245 0.949 . S
H270 C247 0.950 . S
H271 C249 0.950 . S
C272 C273 1.349 . S
C272 C274 1.327 . S
C272 H297 0.950 . S
C273 C272 1.349 . S
C273 C289 1.349 . S
C274 C272 1.327 . S
C274 C293 1.429 . S
C274 H298 0.950 . S
C275 C292 1.574 . S
C275 C294 1.368 . S
C275 H299 0.949 . S
H276 C280 0.949 . S
C277 C278 1.349 . S
C277 C279 1.327 . S
C277 H300 0.950 . S
C278 C277 1.349 . S
C278 C290 1.349 . S
C279 C277 1.327 . S
C279 C295 1.429 . S
C279 H301 0.950 . S
C280 H276 0.949 . S
C280 C288 1.574 . S
C280 C296 1.368 . S
H281 C289 0.950 . S
H282 C287 0.950 . S
H283 C288 0.949 . S
H284 C290 0.950 . S
H285 C291 0.950 . S
H286 C292 0.949 . S
C287 H282 0.950 . S
C287 C289 1.327 . S
C287 C293 1.429 . S
C288 C280 1.574 . S
C288 H283 0.949 . S
C288 C294 1.368 . S
C289 C273 1.349 . S
C289 H281 0.950 . S
C289 C287 1.327 . S
C290 C278 1.349 . S
C290 H284 0.950 . S
C290 C291 1.327 . S
C291 H285 0.950 . S
C291 C290 1.327 . S
C291 C295 1.429 . S
C292 C275 1.574 . S
C292 H286 0.949 . S
C292 C296 1.368 . S
C293 C274 1.429 . S
C293 C287 1.429 . S
C293 C294 1.523 . S
C294 C275 1.368 . S
C294 C288 1.368 . S
C294 C293 1.523 . S
C295 C279 1.429 . S
C295 C291 1.429 . S
C295 C296 1.523 . S
C296 C280 1.368 . S
C296 C292 1.368 . S
C296 C295 1.523 . S
H297 C272 0.950 . S
H298 C274 0.950 . S
H299 C275 0.949 . S
H300 C277 0.950 . S
H301 C279 0.950 . S
C302 C303 1.349 . S
C302 C304 1.327 . S
C302 H327 0.950 . S
C303 C302 1.349 . S
C303 C319 1.349 1_554 S
C304 C302 1.327 . S
C304 C323 1.429 . S
C304 H328 0.950 . S
C305 C322 1.574 . S
C305 C324 1.368 1_556 S
C305 H329 0.949 . S
H306 C310 0.949 . S
C307 C308 1.348 . S
C307 C309 1.327 1_554 S
C307 H330 0.950 1_554 S
C308 C307 1.348 . S
C308 C320 1.349 . S
C309 C307 1.327 1_556 S
C309 C325 1.429 1_556 S
C309 H331 0.950 . S
C310 H306 0.949 . S
C310 C318 1.574 . S
C310 C326 1.368 . S
H311 C319 0.950 . S
H312 C317 0.950 . S
H313 C318 0.949 . S
H314 C320 0.950 . S
H315 C321 0.950 . S
H316 C322 0.949 . S
C317 H312 0.950 . S
C317 C319 1.327 . S
C317 C323 1.429 1_556 S
C318 C310 1.574 . S
C318 H313 0.949 . S
C318 C324 1.368 . S
C319 C303 1.349 1_556 S
C319 H311 0.950 . S
C319 C317 1.327 . S
C320 C308 1.349 . S
C320 H314 0.950 . S
C320 C321 1.327 . S
C321 H315 0.950 . S
C321 C320 1.327 . S
C321 C325 1.429 . S
C322 C305 1.574 . S
C322 H316 0.949 . S
C322 C326 1.368 1_556 S
C323 C304 1.429 . S
C323 C317 1.429 1_554 S
C323 C324 1.523 . S
C324 C305 1.368 1_554 S
C324 C318 1.368 . S
C324 C323 1.523 . S
C325 C309 1.429 1_554 S
C325 C321 1.429 . S
C325 C326 1.523 . S
C326 C310 1.368 . S
C326 C322 1.368 1_554 S
C326 C325 1.523 . S
H327 C302 0.950 . S
H328 C304 0.950 . S
H329 C305 0.949 . S
H330 C307 0.950 1_556 S
H331 C309 0.950 . S
C332 C333 1.349 . S
C332 C334 1.327 . S
C332 H357 0.950 . S
C333 C332 1.349 . S
C333 C349 1.349 . S
C334 C332 1.327 . S
C334 C353 1.429 . S
C334 H358 0.950 . S
C335 C352 1.574 . S
C335 C354 1.368 . S
C335 H359 0.949 . S
H336 C340 0.949 . S
C337 C338 1.349 . S
C337 C339 1.327 . S
C337 H360 0.950 . S
C338 C337 1.349 . S
C338 C350 1.349 . S
C339 C337 1.327 . S
C339 C355 1.429 . S
C339 H361 0.950 . S
C340 H336 0.949 . S
C340 C348 1.574 . S
C340 C356 1.368 . S
H341 C349 0.950 . S
H342 C347 0.950 . S
H343 C348 0.949 . S
H344 C350 0.950 . S
H345 C351 0.950 . S
H346 C352 0.949 . S
C347 H342 0.950 . S
C347 C349 1.327 . S
C347 C353 1.429 . S
C348 C340 1.574 . S
C348 H343 0.949 . S
C348 C354 1.368 . S
C349 C333 1.349 . S
C349 H341 0.950 . S
C349 C347 1.327 . S
C350 C338 1.349 . S
C350 H344 0.950 . S
C350 C351 1.327 . S
C351 H345 0.950 . S
C351 C350 1.327 . S
C351 C355 1.429 . S
C352 C335 1.574 . S
C352 H346 0.949 . S
C352 C356 1.368 . S
C353 C334 1.429 . S
C353 C347 1.429 . S
C353 C354 1.523 . S
C354 C335 1.368 . S
C354 C348 1.368 . S
C354 C353 1.523 . S
C355 C339 1.429 . S
C355 C351 1.429 . S
C355 C356 1.523 . S
C356 C340 1.368 . S
C356 C352 1.368 . S
C356 C355 1.523 . S
H357 C332 0.950 . S
H358 C334 0.950 . S
H359 C335 0.949 . S
H360 C337 0.950 . S
H361 C339 0.950 . S
C362 C363 1.349 . S
C362 C364 1.327 . S
C362 H387 0.950 . S
C363 C362 1.349 . S
C363 C379 1.349 . S
C364 C362 1.327 . S
C364 C383 1.429 . S
C364 H388 0.950 . S
C365 C382 1.574 . S
C365 C384 1.368 . S
C365 H389 0.949 . S
H366 C370 0.949 . S
C367 C368 1.349 . S
C367 C369 1.327 . S
C367 H390 0.950 . S
C368 C367 1.349 . S
C368 C380 1.349 . S
C369 C367 1.327 . S
C369 C385 1.429 . S
C369 H391 0.950 . S
C370 H366 0.949 . S
C370 C378 1.574 . S
C370 C386 1.368 . S
H371 C379 0.950 . S
H372 C377 0.950 . S
H373 C378 0.949 . S
H374 C380 0.950 . S
H375 C381 0.950 . S
H376 C382 0.949 . S
C377 H372 0.950 . S
C377 C379 1.327 . S
C377 C383 1.429 . S
C378 C370 1.574 . S
C378 H373 0.949 . S
C378 C384 1.368 . S
C379 C363 1.349 . S
C379 H371 0.950 . S
C379 C377 1.327 . S
C380 C368 1.349 . S
C380 H374 0.950 . S
C380 C381 1.327 . S
C381 H375 0.950 . S
C381 C380 1.327 . S
C381 C385 1.429 . S
C382 C365 1.574 . S
C382 H376 0.949 . S
C382 C386 1.368 . S
C383 C364 1.429 . S
C383 C377 1.429 . S
C383 C384 1.523 . S
C384 C365 1.368 . S
C384 C378 1.368 . S
C384 C383 1.523 . S
C385 C369 1.429 . S
C385 C381 1.429 . S
C385 C386 1.523 . S
C386 C370 1.368 . S
C386 C382 1.368 . S
C386 C385 1.523 . S
H387 C362 0.950 . S
H388 C364 0.950 . S
H389 C365 0.949 . S
H390 C367 0.950 . S
H391 C369 0.950 . S
C392 C393 1.349 . S
C392 C394 1.327 . S
C392 H417 0.950 . S
C393 C392 1.349 . S
C393 C409 1.349 . S
C394 C392 1.327 . S
C394 C413 1.429 . S
C394 H418 0.950 . S
C395 C412 1.574 . S
C395 C414 1.368 . S
C395 H419 0.949 . S
H396 C400 0.949 . S
C397 C398 1.349 . S
C397 C399 1.327 . S
C397 H420 0.950 . S
C398 C397 1.349 . S
C398 C410 1.349 . S
C399 C397 1.327 . S
C399 C415 1.429 . S
C399 H421 0.950 . S
C400 H396 0.949 . S
C400 C408 1.574 . S
C400 C416 1.368 . S
H401 C409 0.950 . S
H402 C407 0.950 . S
H403 C408 0.949 . S
H404 C410 0.950 . S
H405 C411 0.950 . S
H406 C412 0.949 . S
C407 H402 0.950 . S
C407 C409 1.327 . S
C407 C413 1.429 . S
C408 C400 1.574 . S
C408 H403 0.949 . S
C408 C414 1.368 . S
C409 C393 1.349 . S
C409 H401 0.950 . S
C409 C407 1.327 . S
C410 C398 1.349 . S
C410 H404 0.950 . S
C410 C411 1.327 . S
C411 H405 0.950 . S
C411 C410 1.327 . S
C411 C415 1.429 . S
C412 C395 1.574 . S
C412 H406 0.949 . S
C412 C416 1.368 . S
C413 C394 1.429 . S
C413 C407 1.429 . S
C413 C414 1.523 . S
C414 C395 1.368 . S
C414 C408 1.368 . S
C414 C413 1.523 . S
C415 C399 1.429 . S
C415 C411 1.429 . S
C415 C416 1.523 . S
C416 C400 1.368 . S
C416 C412 1.368 . S
C416 C415 1.523 . S
H417 C392 0.950 . S
H418 C394 0.950 . S
H419 C395 0.949 . S
H420 C397 0.950 . S
H421 C399 0.950 . S
C422 C423 1.349 . S
C422 C424 1.327 . S
C422 H447 0.950 . S
C423 C422 1.349 . S
C423 C439 1.349 . S
C424 C422 1.327 . S
C424 C443 1.429 . S
C424 H448 0.950 . S
C425 C442 1.574 . S
C425 C444 1.368 . S
C425 H449 0.949 . S
H426 C430 0.949 . S
C427 C428 1.349 . S
C427 C429 1.327 . S
C427 H450 0.950 . S
C428 C427 1.349 . S
C428 C440 1.349 . S
C429 C427 1.327 . S
C429 C445 1.429 . S
C429 H451 0.950 . S
C430 H426 0.949 . S
C430 C438 1.574 . S
C430 C446 1.368 . S
H431 C439 0.950 . S
H432 C437 0.950 . S
H433 C438 0.949 . S
H434 C440 0.950 . S
H435 C441 0.950 . S
H436 C442 0.949 . S
C437 H432 0.950 . S
C437 C439 1.327 . S
C437 C443 1.429 . S
C438 C430 1.574 . S
C438 H433 0.949 . S
C438 C444 1.368 . S
C439 C423 1.349 . S
C439 H431 0.950 . S
C439 C437 1.327 . S
C440 C428 1.349 . S
C440 H434 0.950 . S
C440 C441 1.327 . S
C441 H435 0.950 . S
C441 C440 1.327 . S
C441 C445 1.429 . S
C442 C425 1.574 . S
C442 H436 0.949 . S
C442 C446 1.368 . S
C443 C424 1.429 . S
C443 C437 1.429 . S
C443 C444 1.523 . S
C444 C425 1.368 . S
C444 C438 1.368 . S
C444 C443 1.523 . S
C445 C429 1.429 . S
C445 C441 1.429 . S
C445 C446 1.523 . S
C446 C430 1.368 . S
C446 C442 1.368 . S
C446 C445 1.523 . S
H447 C422 0.950 . S
H448 C424 0.950 . S
H449 C425 0.949 . S
H450 C427 0.950 . S
H451 C429 0.950 . S
C452 C453 1.349 . S
C452 C454 1.327 . S
C452 H477 0.950 . S
C453 C452 1.349 . S
C453 C469 1.349 . S
C454 C452 1.327 . S
C454 C473 1.429 . S
C454 H478 0.950 . S
C455 C472 1.574 . S
C455 C474 1.368 . S
C455 H479 0.949 . S
H456 C460 0.949 . S
C457 C458 1.349 . S
C457 C459 1.327 . S
C457 H480 0.950 . S
C458 C457 1.349 . S
C458 C470 1.349 . S
C459 C457 1.327 . S
C459 C475 1.429 . S
C459 H481 0.950 . S
C460 H456 0.949 . S
C460 C468 1.574 . S
C460 C476 1.368 . S
H461 C469 0.950 . S
H462 C467 0.950 . S
H463 C468 0.949 . S
H464 C470 0.950 . S
H465 C471 0.950 . S
H466 C472 0.949 . S
C467 H462 0.950 . S
C467 C469 1.327 . S
C467 C473 1.429 . S
C468 C460 1.574 . S
C468 H463 0.949 . S
C468 C474 1.368 . S
C469 C453 1.349 . S
C469 H461 0.950 . S
C469 C467 1.327 . S
C470 C458 1.349 . S
C470 H464 0.950 . S
C470 C471 1.327 . S
C471 H465 0.950 . S
C471 C470 1.327 . S
C471 C475 1.429 . S
C472 C455 1.574 . S
C472 H466 0.949 . S
C472 C476 1.368 . S
C473 C454 1.429 . S
C473 C467 1.429 . S
C473 C474 1.523 . S
C474 C455 1.368 . S
C474 C468 1.368 . S
C474 C473 1.523 . S
C475 C459 1.429 . S
C475 C471 1.429 . S
C475 C476 1.523 . S
C476 C460 1.368 . S
C476 C472 1.368 . S
C476 C475 1.523 . S
H477 C452 0.950 . S
H478 C454 0.950 . S
H479 C455 0.949 . S
H480 C457 0.950 . S
H481 C459 0.950 . S
C482 C483 1.349 . S
C482 C484 1.327 . S
C482 H507 0.950 . S
C483 C482 1.349 . S
C483 C499 1.349 . S
C484 C482 1.327 . S
C484 C503 1.429 . S
C484 H508 0.950 . S
C485 C502 1.574 . S
C485 C504 1.368 . S
C485 H509 0.949 . S
H486 C490 0.949 . S
C487 C488 1.349 . S
C487 C489 1.327 . S
C487 H510 0.950 . S
C488 C487 1.349 . S
C488 C500 1.349 . S
C489 C487 1.327 . S
C489 C505 1.429 . S
C489 H511 0.950 . S
C490 H486 0.949 . S
C490 C498 1.574 . S
C490 C506 1.368 . S
H491 C499 0.950 . S
H492 C497 0.950 . S
H493 C498 0.949 . S
H494 C500 0.950 . S
H495 C501 0.950 . S
H496 C502 0.949 . S
C497 H492 0.950 . S
C497 C499 1.327 . S
C497 C503 1.429 . S
C498 C490 1.574 . S
C498 H493 0.949 . S
C498 C504 1.368 . S
C499 C483 1.349 . S
C499 H491 0.950 . S
C499 C497 1.327 . S
C500 C488 1.349 . S
C500 H494 0.950 . S
C500 C501 1.327 . S
C501 H495 0.950 . S
C501 C500 1.327 . S
C501 C505 1.429 . S
C502 C485 1.574 . S
C502 H496 0.949 . S
C502 C506 1.368 . S
C503 C484 1.429 . S
C503 C497 1.429 . S
C503 C504 1.523 . S
C504 C485 1.368 . S
C504 C498 1.368 . S
C504 C503 1.523 . S
C505 C489 1.429 . S
C505 C501 1.429 . S
C505 C506 1.523 . S
C506 C490 1.368 . S
C506 C502 1.368 . S
C506 C505 1.523 . S
H507 C482 0.950 . S
H508 C484 0.950 . S
H509 C485 0.949 . S
H510 C487 0.950 . S
H511 C489 0.950 . S
C512 C513 1.349 . S
C512 C514 1.327 . S
C512 H537 0.950 . S
C513 C512 1.349 . S
C513 C529 1.349 . S
C514 C512 1.327 . S
C514 C533 1.429 . S
C514 H538 0.950 . S
C515 C532 1.574 . S
C515 C534 1.368 . S
C515 H539 0.949 . S
H516 C520 0.949 . S
C517 C518 1.349 . S
C517 C519 1.327 . S
C517 H540 0.950 . S
C518 C517 1.349 . S
C518 C530 1.349 . S
C519 C517 1.327 . S
C519 C535 1.429 . S
C519 H541 0.950 . S
C520 H516 0.949 . S
C520 C528 1.574 . S
C520 C536 1.368 . S
H521 C529 0.950 . S
H522 C527 0.950 . S
H523 C528 0.949 . S
H524 C530 0.950 . S
H525 C531 0.950 . S
H526 C532 0.949 . S
C527 H522 0.950 . S
C527 C529 1.327 . S
C527 C533 1.429 . S
C528 C520 1.574 . S
C528 H523 0.949 . S
C528 C534 1.368 . S
C529 C513 1.349 . S
C529 H521 0.950 . S
C529 C527 1.327 . S
C530 C518 1.349 . S
C530 H524 0.950 . S
C530 C531 1.327 . S
C531 H525 0.950 . S
C531 C530 1.327 . S
C531 C535 1.429 . S
C532 C515 1.574 . S
C532 H526 0.949 . S
C532 C536 1.368 . S
C533 C514 1.429 . S
C533 C527 1.429 . S
C533 C534 1.523 . S
C534 C515 1.368 . S
C534 C528 1.368 . S
C534 C533 1.523 . S
C535 C519 1.429 . S
C535 C531 1.429 . S
C535 C536 1.523 . S
C536 C520 1.368 . S
C536 C532 1.368 . S
C536 C535 1.523 . S
H537 C512 0.950 . S
H538 C514 0.950 . S
H539 C515 0.949 . S
H540 C517 0.950 . S
H541 C519 0.950 . S
C542 C543 1.349 . S
C542 C544 1.327 . S
C542 H567 0.950 . S
C543 C542 1.349 . S
C543 C559 1.349 . S
C544 C542 1.327 . S
C544 C563 1.429 . S
C544 H568 0.950 . S
C545 C562 1.574 . S
C545 C564 1.368 . S
C545 H569 0.949 . S
H546 C550 0.949 . S
C547 C548 1.349 . S
C547 C549 1.327 . S
C547 H570 0.950 1_565 S
C548 C547 1.349 . S
C548 C560 1.349 . S
C549 C547 1.327 . S
C549 C565 1.429 . S
C549 H571 0.950 . S
C550 H546 0.949 . S
C550 C558 1.574 . S
C550 C566 1.368 . S
H551 C559 0.950 . S
H552 C557 0.950 . S
H553 C558 0.949 . S
H554 C560 0.950 . S
H555 C561 0.950 . S
H556 C562 0.949 . S
C557 H552 0.950 . S
C557 C559 1.327 . S
C557 C563 1.429 . S
C558 C550 1.574 . S
C558 H553 0.949 . S
C558 C564 1.368 . S
C559 C543 1.349 . S
C559 H551 0.950 . S
C559 C557 1.327 . S
C560 C548 1.349 . S
C560 H554 0.950 . S
C560 C561 1.327 . S
C561 H555 0.950 . S
C561 C560 1.327 . S
C561 C565 1.429 . S
C562 C545 1.574 . S
C562 H556 0.949 . S
C562 C566 1.368 . S
C563 C544 1.429 . S
C563 C557 1.429 . S
C563 C564 1.523 . S
C564 C545 1.368 . S
C564 C558 1.368 . S
C564 C563 1.523 . S
C565 C549 1.429 . S
C565 C561 1.429 . S
C565 C566 1.523 . S
C566 C550 1.368 . S
C566 C562 1.368 . S
C566 C565 1.523 . S
H567 C542 0.950 . S
H568 C544 0.950 . S
H569 C545 0.949 . S
H570 C547 0.950 1_545 S
H571 C549 0.950 . S
C218 C107 1.674 . S
C213 C43 1.689 . S
C243 C10 1.687 . S
C248 C202 1.667 . S
C273 C21 1.693 . S
C278 C118 1.692 . S
C303 C32 1.661 . S
C308 C191 1.653 . S
C338 C102 1.467 . S
C333 C5 1.631 . S
C368 C195 1.735 . S
C363 C15 1.733 . S
C393 C27 1.655 . S
C398 C111 1.668 . S
C423 C38 1.623 . S
C428 C186 1.458 . S
C458 C197 1.405 . S
C453 C16 1.568 . S
C488 C113 1.405 . S
C483 C26 1.575 . S
C518 C184 1.646 . S
C513 C37 1.640 . S
C543 C4 1.579 . S
C548 C100 1.588 . S
