# Generated by pormake.
# Topology pyr, (3,6)-cn, num edge types: 1
# Building blocks:
#     Node 0, Type 0, BuildingBlock: BETDAH_clean_linker_0, # of connection points: 3
#     Node 1, Type 0, BuildingBlock: BETDAH_clean_linker_0, # of connection points: 3
#     Node 2, Type 0, BuildingBlock: BETDAH_clean_linker_0, # of connection points: 3
#     Node 3, Type 0, BuildingBlock: BETDAH_clean_linker_0, # of connection points: 3
#     Node 4, Type 0, BuildingBlock: BETDAH_clean_linker_0, # of connection points: 3
#     Node 5, Type 0, BuildingBlock: BETDAH_clean_linker_0, # of connection points: 3
#     Node 6, Type 0, BuildingBlock: BETDAH_clean_linker_0, # of connection points: 3
#     Node 7, Type 0, BuildingBlock: BETDAH_clean_linker_0, # of connection points: 3
#     Node 8, Type 1, BuildingBlock: BETDEL_clean_sbu_0, # of connection points: 6
#     Node 9, Type 1, BuildingBlock: BETDEL_clean_sbu_0, # of connection points: 6
#     Node 10, Type 1, BuildingBlock: BETDEL_clean_sbu_0, # of connection points: 6
#     Node 11, Type 1, BuildingBlock: BETDEL_clean_sbu_0, # of connection points: 6
#     Edge 12, Type (0, 1), BuildingBlock: EZIPEK_clean_linker_0, # of connection points: 2
#     Edge 13, Type (0, 1), BuildingBlock: EZIPEK_clean_linker_0, # of connection points: 2
#     Edge 14, Type (0, 1), BuildingBlock: EZIPEK_clean_linker_0, # of connection points: 2
#     Edge 15, Type (0, 1), BuildingBlock: EZIPEK_clean_linker_0, # of connection points: 2
#     Edge 16, Type (0, 1), BuildingBlock: EZIPEK_clean_linker_0, # of connection points: 2
#     Edge 17, Type (0, 1), BuildingBlock: EZIPEK_clean_linker_0, # of connection points: 2
#     Edge 18, Type (0, 1), BuildingBlock: EZIPEK_clean_linker_0, # of connection points: 2
#     Edge 19, Type (0, 1), BuildingBlock: EZIPEK_clean_linker_0, # of connection points: 2
#     Edge 20, Type (0, 1), BuildingBlock: EZIPEK_clean_linker_0, # of connection points: 2
#     Edge 21, Type (0, 1), BuildingBlock: EZIPEK_clean_linker_0, # of connection points: 2
#     Edge 22, Type (0, 1), BuildingBlock: EZIPEK_clean_linker_0, # of connection points: 2
#     Edge 23, Type (0, 1), BuildingBlock: EZIPEK_clean_linker_0, # of connection points: 2
#     Edge 24, Type (0, 1), BuildingBlock: EZIPEK_clean_linker_0, # of connection points: 2
#     Edge 25, Type (0, 1), BuildingBlock: EZIPEK_clean_linker_0, # of connection points: 2
#     Edge 26, Type (0, 1), BuildingBlock: EZIPEK_clean_linker_0, # of connection points: 2
#     Edge 27, Type (0, 1), BuildingBlock: EZIPEK_clean_linker_0, # of connection points: 2
#     Edge 28, Type (0, 1), BuildingBlock: EZIPEK_clean_linker_0, # of connection points: 2
#     Edge 29, Type (0, 1), BuildingBlock: EZIPEK_clean_linker_0, # of connection points: 2
#     Edge 30, Type (0, 1), BuildingBlock: EZIPEK_clean_linker_0, # of connection points: 2
#     Edge 31, Type (0, 1), BuildingBlock: EZIPEK_clean_linker_0, # of connection points: 2
#     Edge 32, Type (0, 1), BuildingBlock: EZIPEK_clean_linker_0, # of connection points: 2
#     Edge 33, Type (0, 1), BuildingBlock: EZIPEK_clean_linker_0, # of connection points: 2
#     Edge 34, Type (0, 1), BuildingBlock: EZIPEK_clean_linker_0, # of connection points: 2
#     Edge 35, Type (0, 1), BuildingBlock: EZIPEK_clean_linker_0, # of connection points: 2
# Relax obj value: 0.080
# Max RMSD: 0.185
# Mean RMSD: 0.131
data_MOF--net-pyr--node1-BETDEL_clean_sbu_0--node2-BETDAH_clean_linker_0--edge1-EZIPEK_clean_linker_0
_symmetry_space_group_name_H-M    P1
_symmetry_Int_Tables_number       1
_symmetry_cell_setting            triclinic
loop_
_symmetry_equiv_pos_as_xyz
'x, y, z'
_cell_length_a     25.875659
_cell_length_b     28.013733
_cell_length_c     26.817125
_cell_angle_alpha  92.511839
_cell_angle_beta   90.220256
_cell_angle_gamma 103.16308
loop_
_atom_site_label
_atom_site_type_symbol
_atom_site_fract_x
_atom_site_fract_y
_atom_site_fract_z
_atom_type_partial_charge
H0 H 0.23746 0.11664 0.23065 0.0
H1 H 0.31336 0.24269 0.15021 0.0
H2 H 0.18417 0.2511 0.24795 0.0
C3 C 0.24 0.15417 0.22059 0.0
C4 C 0.20639 0.18141 0.24313 0.0
C5 C 0.27868 0.17617 0.18698 0.0
C6 C 0.28314 0.2253 0.1757 0.0
C7 C 0.2483 0.25194 0.19636 0.0
C8 C 0.20986 0.22999 0.23023 0.0
N9 N 0.25377 0.30124 0.18361 0.0
C10 C 0.21025 0.32124 0.17588 0.0
H11 H 0.39615 0.83542 0.76458 0.0
H12 H 0.28628 0.91983 0.71733 0.0
H13 H 0.31098 0.79713 0.62556 0.0
C14 C 0.36714 0.84174 0.73784 0.0
C15 C 0.35567 0.8115 0.69454 0.0
C16 C 0.34224 0.88085 0.74612 0.0
C17 C 0.30509 0.88932 0.711 0.0
C18 C 0.29387 0.85885 0.66725 0.0
C19 C 0.31927 0.82026 0.65948 0.0
N20 N 0.25856 0.86597 0.62927 0.0
C21 C 0.2276 0.90037 0.63108 0.0
H22 H 0.72619 0.3282 0.98288 0.0
H23 H 0.71419 0.41938 0.85966 0.0
H24 H 0.59886 0.28388 0.87544 0.0
C25 C 0.70556 0.33538 0.94975 0.0
C26 C 0.65937 0.30178 0.93292 0.0
C27 C 0.72554 0.37792 0.9235 0.0
C28 C 0.69853 0.387 0.88036 0.0
C29 C 0.65275 0.35269 0.86299 0.0
C30 C 0.63387 0.3104 0.88925 0.0
N31 N 0.62648 0.35709 0.81752 0.0
C32 C 0.62211 0.40069 0.79701 0.0
H33 H 0.79354 0.74874 0.46841 0.0
H34 H 0.88818 0.72768 0.34065 0.0
H35 H 0.75463 0.61364 0.38003 0.0
C36 C 0.80161 0.72611 0.43685 0.0
C37 C 0.76922 0.67917 0.42771 0.0
C38 C 0.84455 0.74388 0.40563 0.0
C39 C 0.85506 0.71412 0.36472 0.0
C40 C 0.82225 0.66686 0.3555 0.0
C41 C 0.77974 0.65 0.38711 0.0
N42 N 0.82964 0.63441 0.31535 0.0
C43 C 0.86889 0.64216 0.27942 0.0
H44 H 0.91743 0.82609 0.83024 0.0
H45 H 0.87821 0.83972 0.98368 0.0
H46 H 0.83059 0.93356 0.88112 0.0
C47 C 0.89592 0.84244 0.85809 0.0
C48 C 0.86644 0.87734 0.84566 0.0
C49 C 0.89891 0.82806 0.90721 0.0
C50 C 0.87592 0.85079 0.94563 0.0
C51 C 0.85013 0.88782 0.93551 0.0
C52 C 0.84665 0.90192 0.88617 0.0
N53 N 0.82873 0.91081 0.976 0.0
C54 C 0.78482 0.93107 0.97144 0.0
H55 H 0.76493 0.12509 0.36653 0.0
H56 H 0.83528 0.25228 0.46033 0.0
H57 H 0.70996 0.25813 0.35678 0.0
C58 C 0.76728 0.16289 0.37897 0.0
C59 C 0.73466 0.1897 0.35642 0.0
C60 C 0.80388 0.18517 0.41656 0.0
C61 C 0.80705 0.23453 0.43149 0.0
C62 C 0.77175 0.26022 0.41191 0.0
C63 C 0.73591 0.23787 0.37377 0.0
N64 N 0.7729 0.30825 0.43153 0.0
C65 C 0.72846 0.32827 0.43212 0.0
H66 H 0.31889 0.76008 0.12591 0.0
H67 H 0.32031 0.66296 0.2461 0.0
H68 H 0.44101 0.79652 0.23912 0.0
C69 C 0.33741 0.75085 0.1594 0.0
C70 C 0.38321 0.7828 0.17913 0.0
C71 C 0.31485 0.70747 0.18308 0.0
C72 C 0.33837 0.69591 0.22721 0.0
C73 C 0.38417 0.72836 0.24748 0.0
C74 C 0.40608 0.77137 0.22318 0.0
N75 N 0.40785 0.72142 0.29366 0.0
C76 C 0.40448 0.67728 0.31664 0.0
H77 H 0.22116 0.31831 0.62597 0.0
H78 H 0.20617 0.44782 0.71251 0.0
H79 H 0.07664 0.32063 0.70336 0.0
C80 C 0.19881 0.33692 0.65127 0.0
C81 C 0.14737 0.31295 0.66473 0.0
C82 C 0.22035 0.38574 0.66813 0.0
C83 C 0.19052 0.40984 0.70041 0.0
C84 C 0.13859 0.38625 0.71318 0.0
C85 C 0.11732 0.33812 0.69495 0.0
N86 N 0.1041 0.41244 0.73717 0.0
C87 C 0.11329 0.43573 0.78431 0.0
Dy88 Dy 0.03171 0.04246 0.48395 0.0
C89 C 0.92617 0.96663 0.66187 0.0
C90 C 0.07883 0.08764 0.40242 0.0
Dy91 Dy 0.96947 0.01174 0.57869 0.0
O92 O 0.09749 0.05742 0.42856 0.0
O93 O 0.03418 0.0935 0.42064 0.0
O94 O 0.08058 0.98767 0.49714 0.0
O95 O 0.05223 0.02229 0.55838 0.0
C96 C 0.07609 0.98938 0.54531 0.0
C97 C 0.92671 0.06943 0.52186 0.0
O98 O 0.01974 0.08429 0.60794 0.0
O99 O 0.05476 0.11181 0.53163 0.0
O100 O 0.90012 0.98322 0.62781 0.0
O101 O 0.97611 0.97457 0.65071 0.0
O102 O 0.92004 0.06586 0.56966 0.0
O103 O 0.9496 0.03626 0.50621 0.0
O104 O 0.97851 0.9735 0.45224 0.0
O105 O 0.95074 0.94234 0.5291 0.0
C106 C 0.04743 0.11905 0.57999 0.0
C107 C 0.95423 0.93729 0.47985 0.0
Dy108 Dy 0.55035 0.05865 0.10248 0.0
C109 C 0.42916 0.98681 0.92708 0.0
C110 C 0.6066 0.10386 0.18426 0.0
Dy111 Dy 0.48536 0.02952 0.01031 0.0
O112 O 0.57142 0.06275 0.18421 0.0
O113 O 0.61107 0.12053 0.13973 0.0
O114 O 0.54332 0.97963 0.11709 0.0
O115 O 0.47853 1.00072 0.08495 0.0
C116 C 0.49576 0.96446 0.09848 0.0
C117 C 0.54217 0.1231 0.01384 0.0
O118 O 0.42307 0.04715 0.0608 0.0
O119 O 0.48391 0.09719 0.11444 0.0
O120 O 0.44511 0.03359 0.93651 0.0
O121 O 0.44319 0.96316 0.96335 0.0
O122 O 0.49505 0.10887 0.99427 0.0
O123 O 0.55766 0.0862 0.02763 0.0
O124 O 0.61305 0.03628 0.05715 0.0
O125 O 0.55584 0.99598 0.99401 0.0
C126 C 0.43476 0.08151 0.09713 0.0
C127 C 0.60317 0.00715 0.01656 0.0
Dy128 Dy 0.51425 0.49279 0.53228 0.0
C129 C 0.4512 0.65199 0.63423 0.0
C130 C 0.57078 0.4316 0.48828 0.0
Dy131 Dy 0.49306 0.58024 0.5902 0.0
O132 O 0.51931 0.42146 0.49163 0.0
O133 O 0.59061 0.47482 0.50824 0.0
O134 O 0.42796 0.45493 0.53138 0.0
O135 O 0.4596 0.50153 0.59271 0.0
C136 C 0.41718 0.47654 0.57269 0.0
C137 C 0.58985 0.59502 0.5493 0.0
O138 O 0.51737 0.54231 0.65492 0.0
O139 O 0.55378 0.48786 0.60667 0.0
O140 O 0.50146 0.65326 0.63113 0.0
O141 O 0.42354 0.61113 0.61409 0.0
O142 O 0.58026 0.61511 0.5917 0.0
O143 O 0.54672 0.57138 0.52975 0.0
O144 O 0.4871 0.52937 0.46779 0.0
O145 O 0.45396 0.58638 0.51567 0.0
C146 C 0.54589 0.50871 0.65053 0.0
C147 C 0.4608 0.56475 0.47186 0.0
Dy148 Dy 0.02746 0.50641 0.07098 0.0
C149 C 0.98907 0.67298 0.97744 0.0
C150 C 0.06573 0.43424 0.11381 0.0
Dy151 Dy 0.01893 0.59429 0.01543 0.0
O152 O 0.07584 0.47985 0.1291 0.0
O153 O 0.03298 0.42738 0.07612 0.0
O154 O 0.96232 0.51533 0.12257 0.0
O155 O 0.01182 0.57783 0.09449 0.0
C156 C 0.97035 0.56251 0.11926 0.0
C157 C 0.07585 0.53673 0.96652 0.0
O158 O 0.08828 0.6282 0.06521 0.0
O159 O 0.10987 0.55412 0.0773 0.0
O160 O 0.02533 0.65258 0.95881 0.0
O161 O 0.96932 0.65066 0.0167 0.0
O162 O 0.08461 0.58416 0.96464 0.0
O163 O 0.03428 0.52279 0.99169 0.0
O164 O 0.95487 0.47081 0.0264 0.0
O165 O 0.93935 0.5433 0.99742 0.0
C166 C 0.12159 0.6026 0.08141 0.0
C167 C 0.92473 0.49534 1.00312 0.0
C168 C 0.19313 0.16432 0.33343 0.0
C169 C 0.17156 0.16069 0.28432 0.0
C170 C 0.08685 0.11168 0.31304 0.0
C171 C 0.10836 0.11597 0.36222 0.0
N172 N 0.17616 0.15607 0.42177 0.0
N173 N 0.09621 0.13909 0.22809 0.0
C174 C 0.1599 0.14506 0.37316 0.0
C175 C 0.11772 0.13702 0.27438 0.0
N176 N 0.24569 0.18545 0.34196 0.0
N177 N 0.0381 0.08155 0.30288 0.0
H178 H 0.11826 0.15604 0.19862 0.0
H179 H 0.0559 0.12718 0.21971 0.0
H180 H 0.01419 0.06287 0.33031 0.0
H181 H 0.02256 0.07246 0.26697 0.0
H182 H 0.26538 0.18338 0.37545 0.0
H183 H 0.27078 0.20269 0.31454 0.0
H184 H 0.2111 0.18115 0.43241 0.0
H185 H 0.15223 0.14391 0.452 0.0
C186 C 0.40235 0.95373 0.78869 0.0
C187 C 0.35787 0.91369 0.79113 0.0
C188 C 0.35422 0.92833 0.88172 0.0
C189 C 0.403 0.96375 0.88001 0.0
N190 N 0.47759 0.00597 0.83263 0.0
N191 N 0.29223 0.86049 0.8392 0.0
C192 C 0.42787 0.97594 0.83365 0.0
C193 C 0.33373 0.90052 0.83745 0.0
N194 N 0.42044 0.9702 0.74329 0.0
N195 N 0.32675 0.92238 0.92532 0.0
H196 H 0.27463 0.84079 0.8072 0.0
H197 H 0.27708 0.8452 0.87228 0.0
H198 H 0.34025 0.94266 0.95826 0.0
H199 H 0.28853 0.90066 0.92793 0.0
H200 H 0.44909 1.00247 0.73903 0.0
H201 H 0.40343 0.95396 0.70957 0.0
H202 H 0.50012 0.01165 0.80045 0.0
H203 H 0.49879 0.02185 0.8646 0.0
C204 C 0.55264 0.44173 0.77033 0.0
C205 C 0.60635 0.43827 0.76881 0.0
C206 C 0.62244 0.49529 0.70107 0.0
C207 C 0.56692 0.49076 0.69597 0.0
N208 N 0.47809 0.45911 0.72545 0.0
N209 N 0.69355 0.46171 0.73405 0.0
C210 C 0.53168 0.46463 0.73112 0.0
C211 C 0.64184 0.4655 0.7349 0.0
N212 N 0.52172 0.42286 0.80921 0.0
N213 N 0.65643 0.52923 0.67461 0.0
H214 H 0.70928 0.44194 0.75997 0.0
H215 H 0.71998 0.47609 0.7064 0.0
H216 H 0.64291 0.55349 0.65219 0.0
H217 H 0.69753 0.53703 0.67908 0.0
H218 H 0.48359 0.42808 0.81509 0.0
H219 H 0.53625 0.4059 0.83837 0.0
H220 H 0.45022 0.4353 0.74598 0.0
H221 H 0.46098 0.47591 0.69795 0.0
C222 C 0.87962 0.63162 0.18822 0.0
C223 C 0.90194 0.6357 0.237 0.0
C224 C 0.9743 0.59941 0.20685 0.0
C225 C 0.95075 0.5931 0.15826 0.0
N226 N 0.88725 0.61067 0.10006 0.0
N227 N 0.97612 0.63611 0.29105 0.0
C228 C 0.90556 0.61203 0.14807 0.0
C229 C 0.95138 0.62388 0.24563 0.0
N230 N 0.83228 0.64441 0.18097 0.0
N231 N 0.01698 0.57988 0.21645 0.0
H232 H 0.95978 0.65415 0.31972 0.0
H233 H 0.01444 0.63256 0.29891 0.0
H234 H 0.0359 0.56306 0.18882 0.0
H235 H 0.03229 0.57811 0.25209 0.0
H236 H 0.81011 0.63714 0.14795 0.0
H237 H 0.81406 0.66132 0.20913 0.0
H238 H 0.85775 0.62781 0.08884 0.0
H239 H 0.90399 0.59453 0.07043 0.0
C240 C 0.3139 0.13743 0.1123 0.0
C241 C 0.31605 0.14856 0.16445 0.0
C242 C 0.38922 0.10741 0.1729 0.0
C243 C 0.39216 0.10257 0.12003 0.0
N244 N 0.36306 0.12239 0.03915 0.0
N245 N 0.36216 0.15214 0.24346 0.0
C246 C 0.35585 0.11982 0.08951 0.0
C247 C 0.35544 0.13572 0.19459 0.0
N248 N 0.2714 0.14302 0.08459 0.0
N249 N 0.41711 0.08351 0.20259 0.0
H250 H 0.3388 0.17364 0.26075 0.0
H251 H 0.39412 0.14835 0.26548 0.0
H252 H 0.44079 0.06089 0.18833 0.0
H253 H 0.41223 0.08188 0.24108 0.0
H254 H 0.2652 0.13076 0.04733 0.0
H255 H 0.2397 0.15548 0.10012 0.0
H256 H 0.3409 0.13946 0.01618 0.0
H257 H 0.39463 0.11227 0.02089 0.0
C258 C 0.1357 0.90994 0.62981 0.0
C259 C 0.19011 0.93052 0.62269 0.0
C260 C 0.16803 0.99858 0.57955 0.0
C261 C 0.11395 0.97287 0.57823 0.0
N262 N 0.0454 0.90435 0.60203 0.0
N263 N 0.25992 0.99506 0.59377 0.0
C264 C 0.09734 0.92906 0.60417 0.0
C265 C 0.2069 0.97557 0.59915 0.0
N266 N 0.12098 0.87198 0.66094 0.0
N267 N 0.18191 0.04486 0.56216 0.0
H268 H 0.28903 0.98008 0.61002 0.0
H269 H 0.27511 0.02465 0.57185 0.0
H270 H 0.15422 0.06257 0.54759 0.0
H271 H 0.21987 0.06732 0.56589 0.0
H272 H 0.08193 0.85794 0.67132 0.0
H273 H 0.14873 0.85761 0.68019 0.0
H274 H 0.03188 0.86902 0.61437 0.0
H275 H 0.01609 0.91831 0.58516 0.0
C276 C 0.77623 0.4427 0.98423 0.0
C277 C 0.77608 0.41172 0.94091 0.0
C278 C 0.8727 0.44116 0.93472 0.0
C279 C 0.87339 0.46781 0.98102 0.0
N280 N 0.82729 0.48939 0.05347 0.0
N281 N 0.82435 0.37642 0.87793 0.0
C282 C 0.8255 0.46757 0.00669 0.0
C283 C 0.82437 0.40975 0.91675 0.0
N284 N 0.72917 0.44889 1.00336 0.0
N285 N 0.91807 0.44667 0.90748 0.0
H286 H 0.78978 0.35319 0.86328 0.0
H287 H 0.85881 0.36917 0.86257 0.0
H288 H 0.9541 0.46934 0.91959 0.0
H289 H 0.91917 0.43218 0.87118 0.0
H290 H 0.72651 0.47473 0.03177 0.0
H291 H 0.69242 0.43108 0.98786 0.0
H292 H 0.7944 0.48616 0.07637 0.0
H293 H 0.86269 0.50746 0.0712 0.0
C294 C 0.72876 0.62358 0.49505 0.0
C295 C 0.72412 0.65969 0.46086 0.0
C296 C 0.63344 0.65714 0.48884 0.0
C297 C 0.63622 0.61743 0.51917 0.0
N298 N 0.68373 0.55868 0.54704 0.0
N299 N 0.67016 0.70624 0.41965 0.0
C300 C 0.68317 0.59952 0.5212 0.0
C301 C 0.67596 0.67536 0.45632 0.0
N302 N 0.77715 0.61327 0.50345 0.0
N303 N 0.59065 0.67813 0.49188 0.0
H304 H 0.7006 0.72087 0.3955 0.0
H305 H 0.63405 0.71436 0.41056 0.0
H306 H 0.55816 0.66535 0.51446 0.0
H307 H 0.589 0.71048 0.47491 0.0
H308 H 0.78443 0.59114 0.53162 0.0
H309 H 0.8114 0.63023 0.48498 0.0
H310 H 0.71454 0.54041 0.54543 0.0
H311 H 0.65125 0.54061 0.56706 0.0
C312 C 0.13953 0.36533 0.19719 0.0
C313 C 0.16749 0.34324 0.16103 0.0
C314 C 0.127 0.37859 0.0938 0.0
C315 C 0.09692 0.39923 0.12956 0.0
N316 N 0.06656 0.40475 0.21402 0.0
N317 N 0.17759 0.3173 0.07548 0.0
C318 C 0.10073 0.39027 0.181 0.0
C319 C 0.15751 0.34583 0.10951 0.0
N320 N 0.15104 0.36353 0.24676 0.0
N321 N 0.13034 0.39334 0.04575 0.0
H322 H 0.20062 0.2931 0.08575 0.0
H323 H 0.16704 0.31409 0.03773 0.0
H324 H 0.1121 0.42006 0.03305 0.0
H325 H 0.15618 0.3832 0.01978 0.0
H326 H 0.13641 0.38351 0.2748 0.0
H327 H 0.17785 0.34397 0.25967 0.0
H328 H 0.064 0.39545 0.25124 0.0
H329 H 0.03736 0.42257 0.20311 0.0
C330 C 0.64004 0.21035 0.93556 0.0
C331 C 0.6377 0.25602 0.95926 0.0
C332 C 0.5835 0.21289 0.02553 0.0
C333 C 0.57901 0.16801 0.9975 0.0
N334 N 0.59806 0.12421 0.9227 0.0
N335 N 0.60422 0.30178 0.02501 0.0
C336 C 0.60632 0.16664 0.95183 0.0
C337 C 0.60916 0.25764 0.00419 0.0
N338 N 0.675 0.20887 0.89775 0.0
N339 N 0.56341 0.21264 0.07258 0.0
H340 H 0.6228 0.33534 0.01081 0.0
H341 H 0.57884 0.30514 0.05433 0.0
H342 H 0.54408 0.18046 0.08894 0.0
H343 H 0.56993 0.24349 0.09689 0.0
H344 H 0.68231 0.17634 0.88225 0.0
H345 H 0.7006 0.24035 0.88531 0.0
H346 H 0.61193 0.12257 0.8864 0.0
H347 H 0.57422 0.09107 0.93332 0.0
C348 C 0.85948 0.83551 0.40336 0.0
C349 C 0.87804 0.79397 0.41721 0.0
C350 C 0.95269 0.84805 0.46318 0.0
C351 C 0.93002 0.88874 0.45509 0.0
N352 N 0.85967 0.92134 0.42081 0.0
N353 N 0.93994 0.7595 0.46311 0.0
C354 C 0.88312 0.88266 0.42554 0.0
C355 C 0.92431 0.79994 0.44758 0.0
N356 N 0.8193 0.82973 0.3688 0.0
N357 N 1.00208 0.85565 0.4846 0.0
H358 H 0.92126 0.72379 0.45111 0.0
H359 H 0.96926 0.76105 0.49022 0.0
H360 H 0.02428 0.89051 0.49545 0.0
H361 H 0.02311 0.82829 0.48734 0.0
H362 H 0.80722 0.8589 0.3533 0.0
H363 H 0.80099 0.79561 0.35228 0.0
H364 H 0.82238 0.91815 0.40455 0.0
H365 H 0.87576 0.95632 0.43649 0.0
C366 C 0.42778 0.78053 0.65194 0.0
C367 C 0.38359 0.77174 0.68397 0.0
C368 C 0.3891 0.68602 0.68944 0.0
C369 C 0.42898 0.69344 0.65257 0.0
N370 N 0.47967 0.74556 0.59186 0.0
N371 N 0.31845 0.71605 0.73032 0.0
C372 C 0.44701 0.74021 0.63223 0.0
C373 C 0.36325 0.72446 0.70212 0.0
N374 N 0.45148 0.8275 0.64053 0.0
N375 N 0.37727 0.64291 0.71349 0.0
H376 H 0.29956 0.74377 0.74172 0.0
H377 H 0.29804 0.68119 0.73974 0.0
H378 H 0.39596 0.6142 0.70566 0.0
H379 H 0.35244 0.63713 0.74417 0.0
H380 H 0.48731 0.83663 0.62176 0.0
H381 H 0.43793 0.85797 0.6538 0.0
H382 H 0.48933 0.7776 0.57225 0.0
H383 H 0.49297 0.71666 0.57449 0.0
C384 C 0.88001 0.86443 0.75177 0.0
C385 C 0.86249 0.89136 0.7917 0.0
C386 C 0.87121 0.96162 0.73922 0.0
C387 C 0.90138 0.93946 0.70499 0.0
N388 N 0.92784 0.86631 0.67421 0.0
N389 N 0.80021 0.94328 0.79798 0.0
C390 C 0.90361 0.88964 0.70972 0.0
C391 C 0.84591 0.93412 0.77895 0.0
N392 N 0.86716 0.81438 0.75114 0.0
N393 N 0.8676 0.00914 0.73501 0.0
H394 H 0.77483 0.9175 0.81894 0.0
H395 H 0.78397 0.97191 0.78656 0.0
H396 H 0.886 0.03113 0.70682 0.0
H397 H 0.84967 0.02753 0.76214 0.0
H398 H 0.87428 0.79212 0.72102 0.0
H399 H 0.8434 0.79557 0.77869 0.0
H400 H 0.93641 0.8322 0.67901 0.0
H401 H 0.94092 0.88186 0.64062 0.0
C402 C 0.72598 0.16393 0.26577 0.0
C403 C 0.70136 0.16822 0.31239 0.0
C404 C 0.61394 0.13574 0.27344 0.0
C405 C 0.63907 0.12665 0.22816 0.0
N406 N 0.71944 0.12272 0.18413 0.0
N407 N 0.62304 0.15216 0.363 0.0
C408 C 0.69523 0.13833 0.22497 0.0
C409 C 0.64558 0.15239 0.31696 0.0
N410 N 0.77851 0.18545 0.26007 0.0
N411 N 0.5601 0.13051 0.27438 0.0
H412 H 0.64502 0.16452 0.39562 0.0
H413 H 0.58335 0.1361 0.36941 0.0
H414 H 0.53565 0.11957 0.24299 0.0
H415 H 0.54016 0.1414 0.30495 0.0
H416 H 0.79704 0.18809 0.22556 0.0
H417 H 0.80252 0.20474 0.28903 0.0
H418 H 0.76023 0.12562 0.18233 0.0
H419 H 0.69861 0.10234 0.15397 0.0
C420 C 0.37571 0.61835 0.38361 0.0
C421 C 0.41376 0.63897 0.34817 0.0
C422 C 0.4815 0.60582 0.38985 0.0
C423 C 0.44352 0.58507 0.42578 0.0
N424 N 0.35168 0.55925 0.44798 0.0
N425 N 0.49741 0.64098 0.30862 0.0
C426 C 0.38963 0.58759 0.41992 0.0
C427 C 0.46478 0.62863 0.34827 0.0
N428 N 0.32685 0.62921 0.38339 0.0
N429 N 0.53412 0.6069 0.39696 0.0
H430 H 0.48611 0.6578 0.27771 0.0
H431 H 0.53314 0.63022 0.30409 0.0
H432 H 0.54877 0.59125 0.42684 0.0
H433 H 0.5641 0.62692 0.3754 0.0
H434 H 0.29944 0.62007 0.41172 0.0
H435 H 0.31485 0.64971 0.35579 0.0
H436 H 0.31115 0.55644 0.44309 0.0
H437 H 0.36068 0.53428 0.47242 0.0
C438 C 0.14428 0.50417 0.84774 0.0
C439 C 0.1116 0.45749 0.83448 0.0
C440 C 0.06846 0.45582 0.91593 0.0
C441 C 0.0953 0.50558 0.92647 0.0
N442 N 0.17449 0.56796 0.91228 0.0
N443 N 0.04107 0.38884 0.85419 0.0
C444 C 0.13797 0.52717 0.89521 0.0
C445 C 0.07375 0.43308 0.86833 0.0
N446 N 0.17972 0.52743 0.814 0.0
N447 N 0.04095 0.42904 0.95247 0.0
H448 H 0.04539 0.36963 0.82082 0.0
H449 H 0.00753 0.37265 0.87389 0.0
H450 H 0.04152 0.44267 0.98899 0.0
H451 H 0.02426 0.39153 0.9487 0.0
H452 H 0.19995 0.56404 0.81826 0.0
H453 H 0.1867 0.51075 0.77992 0.0
H454 H 0.20894 0.58325 0.89346 0.0
H455 H 0.17384 0.58324 0.94827 0.0
C456 C 0.688 0.91666 0.98093 0.0
C457 C 0.73698 0.94968 0.97265 0.0
C458 C 0.69406 0.01898 0.98028 0.0
C459 C 0.64715 0.9866 0.9964 0.0
N460 N 0.60171 0.90538 0.01875 0.0
N461 N 0.78843 0.03189 0.96374 0.0
C462 C 0.6443 0.93546 0.99775 0.0
C463 C 0.74045 1.00078 0.97154 0.0
N464 N 0.68345 0.86732 0.97308 0.0
N465 N 0.69388 0.06691 0.97286 0.0
H466 H 0.82244 0.01934 0.95488 0.0
H467 H 0.79525 0.06991 0.96826 0.0
H468 H 0.66074 0.0814 0.9796 0.0
H469 H 0.72488 0.09137 0.95654 0.0
H470 H 0.64738 0.84163 0.97388 0.0
H471 H 0.71505 0.85253 0.96097 0.0
H472 H 0.59987 0.86872 0.02558 0.0
H473 H 0.57032 0.91829 0.03398 0.0
C474 C 0.87103 0.1318 0.41399 0.0
C475 C 0.83763 0.15649 0.44178 0.0
C476 C 0.87747 0.13687 0.51826 0.0
C477 C 0.9015 0.10245 0.49171 0.0
N478 N 0.914 0.0642 0.41023 0.0
N479 N 0.79947 0.16987 0.52191 0.0
C480 C 0.89645 0.09891 0.43836 0.0
C481 C 0.83778 0.15508 0.49437 0.0
N482 N 0.88035 0.14098 0.36482 0.0
N483 N 0.89387 0.15464 0.56537 0.0
H484 H 0.76741 0.18064 0.50582 0.0
H485 H 0.79649 0.16575 0.56035 0.0
H486 H 0.9277 0.14848 0.58264 0.0
H487 H 0.87871 0.18188 0.58393 0.0
H488 H 0.90858 0.12755 0.34432 0.0
H489 H 0.86445 0.16637 0.34622 0.0
H490 H 0.90467 0.05729 0.37235 0.0
H491 H 0.93455 0.03998 0.42412 0.0
C492 C 0.21563 0.68757 0.17438 0.0
C493 C 0.26474 0.67615 0.16184 0.0
C494 C 0.22079 0.61804 0.09521 0.0
C495 C 0.17107 0.62799 0.10896 0.0
N496 N 0.11984 0.66326 0.16966 0.0
N497 N 0.31355 0.62495 0.11698 0.0
C498 C 0.16809 0.66033 0.15076 0.0
C499 C 0.26705 0.63945 0.1244 0.0
N500 N 0.21456 0.72538 0.20812 0.0
N501 N 0.22437 0.59006 0.05286 0.0
H502 H 0.34832 0.64062 0.13709 0.0
H503 H 0.31672 0.5948 0.09408 0.0
H504 H 0.19168 0.57365 0.03047 0.0
H505 H 0.26017 0.58617 0.03757 0.0
H506 H 0.18124 0.7398 0.2139 0.0
H507 H 0.24804 0.74454 0.22823 0.0
H508 H 0.11534 0.68166 0.20338 0.0
H509 H 0.08388 0.64348 0.15439 0.0
C510 C 0.27357 0.4508 0.61442 0.0
C511 C 0.27216 0.41253 0.64787 0.0
C512 C 0.36658 0.4163 0.63232 0.0
C513 C 0.36858 0.45664 0.60151 0.0
N514 N 0.32752 0.51957 0.57296 0.0
N515 N 0.31979 0.36604 0.69682 0.0
C516 C 0.32316 0.47622 0.59574 0.0
C517 C 0.31952 0.39746 0.65931 0.0
N518 N 0.22736 0.46114 0.59812 0.0
N519 N 0.40902 0.39497 0.63467 0.0
H520 H 0.28619 0.352 0.71762 0.0
H521 H 0.35423 0.35756 0.7104 0.0
H522 H 0.44467 0.40844 0.61663 0.0
H523 H 0.40777 0.36212 0.65187 0.0
H524 H 0.22577 0.48491 0.56964 0.0
H525 H 0.18997 0.44262 0.60953 0.0
H526 H 0.2971 0.53832 0.57207 0.0
H527 H 0.36339 0.53914 0.5593 0.0
C528 C 0.89452 0.73857 0.91505 0.0
C529 C 0.92479 0.78768 0.91892 0.0
C530 C 1.00071 0.76008 0.95284 0.0
C531 C 0.96843 0.71187 0.95415 0.0
N532 N 0.88518 0.65392 0.93696 0.0
N533 N 0.00543 0.84667 0.94198 0.0
C534 C 0.91553 0.70071 0.93514 0.0
C535 C 0.9778 0.79881 0.93752 0.0
N536 N 0.84593 0.72824 0.89156 0.0
N537 N 0.05315 0.76875 0.96643 0.0
H538 H 0.99072 0.87559 0.92891 0.0
H539 H 0.04177 0.8583 0.96059 0.0
H540 H 0.07066 0.74177 0.97996 0.0
H541 H 0.08035 0.80176 0.96156 0.0
H542 H 0.8241 0.69288 0.88252 0.0
H543 H 0.82855 0.75518 0.87775 0.0
H544 H 0.84447 0.64437 0.92997 0.0
H545 H 0.90028 0.62431 0.94749 0.0
C546 C 0.40684 0.87477 0.18175 0.0
C547 C 0.40629 0.82972 0.15526 0.0
C548 C 0.45209 0.87506 0.08593 0.0
C549 C 0.46054 0.91905 0.11602 0.0
N550 N 0.45139 0.96005 0.19553 0.0
N551 N 0.43401 0.7863 0.08413 0.0
C552 C 0.43917 0.9188 0.16471 0.0
C553 C 0.43 0.82959 0.10759 0.0
N554 N 0.37554 0.87559 0.22258 0.0
N555 N 0.46469 0.87674 0.03659 0.0
H556 H 0.41927 0.75221 0.09906 0.0
H557 H 0.45598 0.78442 0.05193 0.0
H558 H 0.48079 0.90958 0.01987 0.0
H559 H 0.45469 0.84648 0.01155 0.0
H560 H 0.37044 0.90794 0.24046 0.0
H561 H 0.35037 0.84409 0.23545 0.0
H562 H 0.44168 0.96041 0.23319 0.0
H563 H 0.47518 0.99301 0.18462 0.0
C564 C 0.12995 0.22068 0.66661 0.0
C565 C 0.12256 0.26306 0.64304 0.0
C566 C 0.062 0.2111 0.58156 0.0
C567 C 0.07222 0.16845 0.60294 0.0
N568 N 0.12473 0.1331 0.65917 0.0
N569 N 0.08894 0.29918 0.57357 0.0
C570 C 0.10842 0.1733 0.64388 0.0
C571 C 0.09071 0.25839 0.59918 0.0
N572 N 0.15697 0.22573 0.71113 0.0
N573 N 0.02344 0.20663 0.5455 0.0
H574 H 0.10848 0.33459 0.58576 0.0
H575 H 0.07178 0.29773 0.53819 0.0
H576 H 1.00179 0.17299 0.53078 0.0
H577 H 0.00955 0.23615 0.53303 0.0
H578 H 0.15857 0.1963 0.73305 0.0
H579 H 0.17463 0.25984 0.72804 0.0
H580 H 0.15528 0.13512 0.68512 0.0
H581 H 0.11134 0.09806 0.64257 0.0
C582 C 0.68549 0.39757 0.42025 0.0
C583 C 0.68295 0.35011 0.43757 0.0
C584 C 0.60082 0.35194 0.48189 0.0
C585 C 0.60366 0.39991 0.46519 0.0
N586 N 0.63929 0.46243 0.40766 0.0
N587 N 0.63218 0.27666 0.47262 0.0
C588 C 0.64314 0.42085 0.43088 0.0
C589 C 0.6384 0.3254 0.46419 0.0
N590 N 0.72913 0.42096 0.39502 0.0
N591 N 0.56491 0.33305 0.51724 0.0
H592 H 0.65936 0.25647 0.46035 0.0
H593 H 0.59794 0.2553 0.48751 0.0
H594 H 0.53681 0.35112 0.53152 0.0
H595 H 0.56534 0.30092 0.53518 0.0
H596 H 0.73647 0.45784 0.38674 0.0
H597 H 0.7597 0.40402 0.38464 0.0
H598 H 0.66414 0.47728 0.37909 0.0
H599 H 0.60774 0.47942 0.4135 0.0
loop_
_geom_bond_atom_site_label_1
_geom_bond_atom_site_label_2
_geom_bond_distance
_geom_bond_site_symmetry_2
_ccdc_geom_bond_type
H0 C3 0.929 . S
H1 C6 0.929 . S
H2 C8 0.930 . S
C3 H0 0.929 . S
C3 C4 1.398 . S
C3 C5 1.396 . S
C4 C3 1.398 . S
C4 C8 1.407 . S
C5 C3 1.396 . S
C5 C6 1.394 . S
C6 H1 0.929 . S
C6 C5 1.394 . S
C6 C7 1.382 . S
C7 C6 1.382 . S
C7 C8 1.392 . S
C7 N9 1.420 . S
C8 H2 0.930 . S
C8 C4 1.407 . S
C8 C7 1.392 . S
N9 C7 1.420 . S
N9 C10 1.244 . S
C10 N9 1.244 . S
H11 C14 0.929 . S
H12 C17 0.929 . S
H13 C19 0.930 . S
C14 H11 0.929 . S
C14 C15 1.398 . S
C14 C16 1.396 . S
C15 C14 1.398 . S
C15 C19 1.407 . S
C16 C14 1.396 . S
C16 C17 1.394 . S
C17 H12 0.929 . S
C17 C16 1.394 . S
C17 C18 1.382 . S
C18 C17 1.382 . S
C18 C19 1.392 . S
C18 N20 1.420 . S
C19 H13 0.930 . S
C19 C15 1.407 . S
C19 C18 1.392 . S
N20 C18 1.420 . S
N20 C21 1.244 . S
C21 N20 1.244 . S
H22 C25 0.929 . S
H23 C28 0.929 . S
H24 C30 0.930 . S
C25 H22 0.929 . S
C25 C26 1.398 . S
C25 C27 1.396 . S
C26 C25 1.398 . S
C26 C30 1.407 . S
C27 C25 1.396 . S
C27 C28 1.394 . S
C28 H23 0.929 . S
C28 C27 1.394 . S
C28 C29 1.382 . S
C29 C28 1.382 . S
C29 C30 1.392 . S
C29 N31 1.420 . S
C30 H24 0.930 . S
C30 C26 1.407 . S
C30 C29 1.392 . S
N31 C29 1.420 . S
N31 C32 1.244 . S
C32 N31 1.244 . S
H33 C36 0.929 . S
H34 C39 0.929 . S
H35 C41 0.930 . S
C36 H33 0.929 . S
C36 C37 1.398 . S
C36 C38 1.396 . S
C37 C36 1.398 . S
C37 C41 1.407 . S
C38 C36 1.396 . S
C38 C39 1.394 . S
C39 H34 0.929 . S
C39 C38 1.394 . S
C39 C40 1.382 . S
C40 C39 1.382 . S
C40 C41 1.392 . S
C40 N42 1.420 . S
C41 H35 0.930 . S
C41 C37 1.407 . S
C41 C40 1.392 . S
N42 C40 1.420 . S
N42 C43 1.244 . S
C43 N42 1.244 . S
H44 C47 0.929 . S
H45 C50 0.929 . S
H46 C52 0.930 . S
C47 H44 0.929 . S
C47 C48 1.398 . S
C47 C49 1.396 . S
C48 C47 1.398 . S
C48 C52 1.407 . S
C49 C47 1.396 . S
C49 C50 1.394 . S
C50 H45 0.929 . S
C50 C49 1.394 . S
C50 C51 1.382 . S
C51 C50 1.382 . S
C51 C52 1.392 . S
C51 N53 1.420 . S
C52 H46 0.930 . S
C52 C48 1.407 . S
C52 C51 1.392 . S
N53 C51 1.420 . S
N53 C54 1.244 . S
C54 N53 1.244 . S
H55 C58 0.929 . S
H56 C61 0.929 . S
H57 C63 0.930 . S
C58 H55 0.929 . S
C58 C59 1.398 . S
C58 C60 1.396 . S
C59 C58 1.398 . S
C59 C63 1.407 . S
C60 C58 1.396 . S
C60 C61 1.394 . S
C61 H56 0.929 . S
C61 C60 1.394 . S
C61 C62 1.382 . S
C62 C61 1.382 . S
C62 C63 1.392 . S
C62 N64 1.420 . S
C63 H57 0.930 . S
C63 C59 1.407 . S
C63 C62 1.392 . S
N64 C62 1.420 . S
N64 C65 1.244 . S
C65 N64 1.244 . S
H66 C69 0.929 . S
H67 C72 0.929 . S
H68 C74 0.930 . S
C69 H66 0.929 . S
C69 C70 1.398 . S
C69 C71 1.396 . S
C70 C69 1.398 . S
C70 C74 1.407 . S
C71 C69 1.396 . S
C71 C72 1.394 . S
C72 H67 0.929 . S
C72 C71 1.394 . S
C72 C73 1.382 . S
C73 C72 1.382 . S
C73 C74 1.392 . S
C73 N75 1.420 . S
C74 H68 0.930 . S
C74 C70 1.407 . S
C74 C73 1.392 . S
N75 C73 1.420 . S
N75 C76 1.244 . S
C76 N75 1.244 . S
H77 C80 0.929 . S
H78 C83 0.929 . S
H79 C85 0.930 . S
C80 H77 0.929 . S
C80 C81 1.398 . S
C80 C82 1.396 . S
C81 C80 1.398 . S
C81 C85 1.407 . S
C82 C80 1.396 . S
C82 C83 1.394 . S
C83 H78 0.929 . S
C83 C82 1.394 . S
C83 C84 1.382 . S
C84 C83 1.382 . S
C84 C85 1.392 . S
C84 N86 1.420 . S
C85 H79 0.930 . S
C85 C81 1.407 . S
C85 C84 1.392 . S
N86 C84 1.420 . S
N86 C87 1.244 . S
C87 N86 1.244 . S
Dy88 O92 2.398 . S
Dy88 O93 2.491 . S
Dy88 O94 2.403 . S
Dy88 O95 2.664 1_545 S
Dy88 O99 2.326 . S
Dy88 O103 2.310 1_455 S
Dy88 O104 2.351 1_445 S
C89 O100 1.185 . S
C89 O101 1.355 . S
C90 O92 1.185 . S
C90 O93 1.355 . S
Dy91 O95 2.310 1_645 S
Dy91 O98 2.351 1_655 S
Dy91 O100 2.398 1_545 S
Dy91 O101 2.491 1_545 S
Dy91 O102 2.403 . S
Dy91 O103 2.664 . S
Dy91 O105 2.326 1_545 S
O92 Dy88 2.398 . S
O92 C90 1.185 . S
O93 Dy88 2.491 . S
O93 C90 1.355 . S
O94 Dy88 2.403 . S
O94 C96 1.254 1_545 S
O95 Dy88 2.664 1_565 S
O95 Dy91 2.310 1_465 S
O95 C96 1.268 . S
C96 O94 1.254 1_565 S
C96 O95 1.268 . S
C97 O102 1.254 . S
C97 O103 1.268 . S
O98 Dy91 2.351 1_455 S
O98 C106 1.249 . S
O99 Dy88 2.326 . S
O99 C106 1.267 . S
O100 C89 1.185 . S
O100 Dy91 2.398 1_565 S
O101 C89 1.355 . S
O101 Dy91 2.491 1_565 S
O102 Dy91 2.403 . S
O102 C97 1.254 . S
O103 Dy88 2.310 1_655 S
O103 Dy91 2.664 . S
O103 C97 1.268 . S
O104 Dy88 2.351 1_665 S
O104 C107 1.249 . S
O105 Dy91 2.326 1_565 S
O105 C107 1.267 . S
C106 O98 1.249 . S
C106 O99 1.267 . S
C107 O104 1.249 . S
C107 O105 1.267 . S
Dy108 O112 2.398 . S
Dy108 O113 2.491 . S
Dy108 O114 2.403 1_545 S
Dy108 O115 2.664 1_545 S
Dy108 O119 2.326 . S
Dy108 O123 2.310 . S
Dy108 O124 2.351 1_545 S
C109 O120 1.185 1_565 S
C109 O121 1.355 . S
C110 O112 1.185 . S
C110 O113 1.355 . S
Dy111 O115 2.310 1_545 S
Dy111 O118 2.351 . S
Dy111 O120 2.398 1_554 S
Dy111 O121 2.491 1_544 S
Dy111 O122 2.403 1_554 S
Dy111 O123 2.664 . S
Dy111 O125 2.326 1_544 S
O112 Dy108 2.398 . S
O112 C110 1.185 . S
O113 Dy108 2.491 . S
O113 C110 1.355 . S
O114 Dy108 2.403 1_565 S
O114 C116 1.254 . S
O115 Dy108 2.664 1_565 S
O115 Dy111 2.310 1_565 S
O115 C116 1.268 . S
C116 O114 1.254 . S
C116 O115 1.268 . S
C117 O122 1.254 1_554 S
C117 O123 1.268 . S
O118 Dy111 2.351 . S
O118 C126 1.249 . S
O119 Dy108 2.326 . S
O119 C126 1.267 . S
O120 C109 1.185 1_545 S
O120 Dy111 2.398 1_556 S
O121 C109 1.355 . S
O121 Dy111 2.491 1_566 S
O122 Dy111 2.403 1_556 S
O122 C117 1.254 1_556 S
O123 Dy108 2.310 . S
O123 Dy111 2.664 . S
O123 C117 1.268 . S
O124 Dy108 2.351 1_565 S
O124 C127 1.249 . S
O125 Dy111 2.326 1_566 S
O125 C127 1.267 1_556 S
C126 O118 1.249 . S
C126 O119 1.267 . S
C127 O124 1.249 . S
C127 O125 1.267 1_554 S
Dy128 O132 2.398 . S
Dy128 O133 2.491 . S
Dy128 O134 2.403 . S
Dy128 O135 2.664 . S
Dy128 O139 2.326 . S
Dy128 O143 2.310 . S
Dy128 O144 2.351 . S
C129 O140 1.185 . S
C129 O141 1.355 . S
C130 O132 1.185 . S
C130 O133 1.355 . S
Dy131 O135 2.310 . S
Dy131 O138 2.351 . S
Dy131 O140 2.398 . S
Dy131 O141 2.491 . S
Dy131 O142 2.403 . S
Dy131 O143 2.664 . S
Dy131 O145 2.326 . S
O132 Dy128 2.398 . S
O132 C130 1.185 . S
O133 Dy128 2.491 . S
O133 C130 1.355 . S
O134 Dy128 2.403 . S
O134 C136 1.254 . S
O135 Dy128 2.664 . S
O135 Dy131 2.310 . S
O135 C136 1.268 . S
C136 O134 1.254 . S
C136 O135 1.268 . S
C137 O142 1.254 . S
C137 O143 1.268 . S
O138 Dy131 2.351 . S
O138 C146 1.249 . S
O139 Dy128 2.326 . S
O139 C146 1.267 . S
O140 C129 1.185 . S
O140 Dy131 2.398 . S
O141 C129 1.355 . S
O141 Dy131 2.491 . S
O142 Dy131 2.403 . S
O142 C137 1.254 . S
O143 Dy128 2.310 . S
O143 Dy131 2.664 . S
O143 C137 1.268 . S
O144 Dy128 2.351 . S
O144 C147 1.249 . S
O145 Dy131 2.326 . S
O145 C147 1.267 . S
C146 O138 1.249 . S
C146 O139 1.267 . S
C147 O144 1.249 . S
C147 O145 1.267 . S
Dy148 O152 2.398 . S
Dy148 O153 2.491 . S
Dy148 O154 2.403 1_455 S
Dy148 O155 2.664 1_455 S
Dy148 O159 2.326 . S
Dy148 O163 2.310 1_554 S
Dy148 O164 2.351 1_455 S
C149 O160 1.185 . S
C149 O161 1.355 . S
C150 O152 1.185 . S
C150 O153 1.355 . S
Dy151 O155 2.310 1_456 S
Dy151 O158 2.351 1_556 S
Dy151 O160 2.398 1_455 S
Dy151 O161 2.491 1_455 S
Dy151 O162 2.403 . S
Dy151 O163 2.664 . S
Dy151 O165 2.326 1_455 S
O152 Dy148 2.398 . S
O152 C150 1.185 . S
O153 Dy148 2.491 . S
O153 C150 1.355 . S
O154 Dy148 2.403 1_655 S
O154 C156 1.254 . S
O155 Dy148 2.664 1_655 S
O155 Dy151 2.310 1_654 S
O155 C156 1.268 . S
C156 O154 1.254 . S
C156 O155 1.268 . S
C157 O162 1.254 . S
C157 O163 1.268 . S
O158 Dy151 2.351 1_554 S
O158 C166 1.249 . S
O159 Dy148 2.326 . S
O159 C166 1.267 . S
O160 C149 1.185 . S
O160 Dy151 2.398 1_655 S
O161 C149 1.355 . S
O161 Dy151 2.491 1_655 S
O162 Dy151 2.403 . S
O162 C157 1.254 . S
O163 Dy148 2.310 1_556 S
O163 Dy151 2.664 . S
O163 C157 1.268 . S
O164 Dy148 2.351 1_655 S
O164 C167 1.249 1_554 S
O165 Dy151 2.326 1_655 S
O165 C167 1.267 . S
C166 O158 1.249 . S
C166 O159 1.267 . S
C167 O164 1.249 1_556 S
C167 O165 1.267 . S
C168 C169 1.363 . S
C168 C174 1.379 . S
C168 N176 1.356 . S
C169 C168 1.363 . S
C169 C175 1.363 . S
C170 C171 1.363 . S
C170 C175 1.379 . S
C170 N177 1.356 . S
C171 C170 1.363 . S
C171 C174 1.363 . S
N172 C174 1.356 . S
N172 H184 0.984 . S
N172 H185 0.985 . S
N173 C175 1.356 . S
N173 H178 0.984 . S
N173 H179 0.985 . S
C174 C168 1.379 . S
C174 C171 1.363 . S
C174 N172 1.356 . S
C175 C169 1.363 . S
C175 C170 1.379 . S
C175 N173 1.356 . S
N176 C168 1.356 . S
N176 H182 0.984 . S
N176 H183 0.984 . S
N177 C170 1.356 . S
N177 H180 0.984 . S
N177 H181 0.985 . S
H178 N173 0.984 . S
H179 N173 0.985 . S
H180 N177 0.984 . S
H181 N177 0.985 . S
H182 N176 0.984 . S
H183 N176 0.984 . S
H184 N172 0.984 . S
H185 N172 0.985 . S
C186 C187 1.363 . S
C186 C192 1.379 . S
C186 N194 1.356 . S
C187 C186 1.363 . S
C187 C193 1.363 . S
C188 C189 1.363 . S
C188 C193 1.379 . S
C188 N195 1.356 . S
C189 C188 1.363 . S
C189 C192 1.363 . S
N190 C192 1.367 . S
N190 H202 0.971 1_565 S
N190 H203 0.988 . S
N191 C193 1.356 . S
N191 H196 0.984 . S
N191 H197 0.985 . S
C192 C186 1.379 . S
C192 C189 1.363 . S
C192 N190 1.367 . S
C193 C187 1.363 . S
C193 C188 1.379 . S
C193 N191 1.356 . S
N194 C186 1.356 . S
N194 H200 0.984 1_565 S
N194 H201 0.984 . S
N195 C188 1.356 . S
N195 H198 0.984 . S
N195 H199 0.985 . S
H196 N191 0.984 . S
H197 N191 0.985 . S
H198 N195 0.984 . S
H199 N195 0.985 . S
H200 N194 0.984 1_545 S
H201 N194 0.984 . S
H202 N190 0.971 1_545 S
H203 N190 0.988 . S
C204 C205 1.363 . S
C204 C210 1.379 . S
C204 N212 1.356 . S
C205 C204 1.363 . S
C205 C211 1.363 . S
C206 C207 1.363 . S
C206 C211 1.379 . S
C206 N213 1.356 . S
C207 C206 1.363 . S
C207 C210 1.363 . S
N208 C210 1.356 . S
N208 H220 0.984 . S
N208 H221 0.985 . S
N209 C211 1.356 . S
N209 H214 0.984 . S
N209 H215 0.985 . S
C210 C204 1.379 . S
C210 C207 1.363 . S
C210 N208 1.356 . S
C211 C205 1.363 . S
C211 C206 1.379 . S
C211 N209 1.356 . S
N212 C204 1.356 . S
N212 H218 0.984 . S
N212 H219 0.984 . S
N213 C206 1.356 . S
N213 H216 0.984 . S
N213 H217 0.985 . S
H214 N209 0.984 . S
H215 N209 0.985 . S
H216 N213 0.984 . S
H217 N213 0.985 . S
H218 N212 0.984 . S
H219 N212 0.984 . S
H220 N208 0.984 . S
H221 N208 0.985 . S
C222 C223 1.363 . S
C222 C228 1.379 . S
C222 N230 1.356 . S
C223 C222 1.363 . S
C223 C229 1.363 . S
C224 C225 1.363 . S
C224 C229 1.379 . S
C224 N231 1.356 1_655 S
C225 C224 1.363 . S
C225 C228 1.363 . S
N226 C228 1.356 . S
N226 H238 0.984 . S
N226 H239 0.985 . S
N227 C229 1.356 . S
N227 H232 0.984 . S
N227 H233 0.985 1_655 S
C228 C222 1.379 . S
C228 C225 1.363 . S
C228 N226 1.356 . S
C229 C223 1.363 . S
C229 C224 1.379 . S
C229 N227 1.356 . S
N230 C222 1.356 . S
N230 H236 0.984 . S
N230 H237 0.984 . S
N231 C224 1.356 1_455 S
N231 H234 0.984 . S
N231 H235 0.985 . S
H232 N227 0.984 . S
H233 N227 0.985 1_455 S
H234 N231 0.984 . S
H235 N231 0.985 . S
H236 N230 0.984 . S
H237 N230 0.984 . S
H238 N226 0.984 . S
H239 N226 0.985 . S
C240 C241 1.363 . S
C240 C246 1.379 . S
C240 N248 1.356 . S
C241 C240 1.363 . S
C241 C247 1.363 . S
C242 C243 1.363 . S
C242 C247 1.379 . S
C242 N249 1.356 . S
C243 C242 1.363 . S
C243 C246 1.363 . S
N244 C246 1.356 . S
N244 H256 0.984 . S
N244 H257 0.985 . S
N245 C247 1.356 . S
N245 H250 0.984 . S
N245 H251 0.985 . S
C246 C240 1.379 . S
C246 C243 1.363 . S
C246 N244 1.356 . S
C247 C241 1.363 . S
C247 C242 1.379 . S
C247 N245 1.356 . S
N248 C240 1.356 . S
N248 H254 0.984 . S
N248 H255 0.984 . S
N249 C242 1.356 . S
N249 H252 0.984 . S
N249 H253 0.985 . S
H250 N245 0.984 . S
H251 N245 0.985 . S
H252 N249 0.984 . S
H253 N249 0.985 . S
H254 N248 0.984 . S
H255 N248 0.984 . S
H256 N244 0.984 . S
H257 N244 0.985 . S
C258 C259 1.363 . S
C258 C264 1.379 . S
C258 N266 1.356 . S
C259 C258 1.363 . S
C259 C265 1.363 . S
C260 C261 1.363 . S
C260 C265 1.379 . S
C260 N267 1.356 1_565 S
C261 C260 1.363 . S
C261 C264 1.363 . S
N262 C264 1.356 . S
N262 H274 0.984 . S
N262 H275 0.985 . S
N263 C265 1.356 . S
N263 H268 0.984 . S
N263 H269 0.985 1_565 S
C264 C258 1.379 . S
C264 C261 1.363 . S
C264 N262 1.356 . S
C265 C259 1.363 . S
C265 C260 1.379 . S
C265 N263 1.356 . S
N266 C258 1.356 . S
N266 H272 0.984 . S
N266 H273 0.984 . S
N267 C260 1.356 1_545 S
N267 H270 0.984 . S
N267 H271 0.985 . S
H268 N263 0.984 . S
H269 N263 0.985 1_545 S
H270 N267 0.984 . S
H271 N267 0.985 . S
H272 N266 0.984 . S
H273 N266 0.984 . S
H274 N262 0.984 . S
H275 N262 0.985 . S
C276 C277 1.363 . S
C276 C282 1.379 . S
C276 N284 1.356 . S
C277 C276 1.363 . S
C277 C283 1.363 . S
C278 C279 1.363 . S
C278 C283 1.379 . S
C278 N285 1.356 . S
C279 C278 1.363 . S
C279 C282 1.363 . S
N280 C282 1.356 . S
N280 H292 0.984 . S
N280 H293 0.985 . S
N281 C283 1.356 . S
N281 H286 0.984 . S
N281 H287 0.985 . S
C282 C276 1.379 . S
C282 C279 1.363 . S
C282 N280 1.356 . S
C283 C277 1.363 . S
C283 C278 1.379 . S
C283 N281 1.356 . S
N284 C276 1.356 . S
N284 H290 0.984 . S
N284 H291 0.984 . S
N285 C278 1.356 . S
N285 H288 0.984 . S
N285 H289 0.985 . S
H286 N281 0.984 . S
H287 N281 0.985 . S
H288 N285 0.984 . S
H289 N285 0.985 . S
H290 N284 0.984 . S
H291 N284 0.984 . S
H292 N280 0.984 . S
H293 N280 0.985 . S
C294 C295 1.363 . S
C294 C300 1.379 . S
C294 N302 1.356 . S
C295 C294 1.363 . S
C295 C301 1.363 . S
C296 C297 1.363 . S
C296 C301 1.379 . S
C296 N303 1.356 . S
C297 C296 1.363 . S
C297 C300 1.363 . S
N298 C300 1.356 . S
N298 H310 0.984 . S
N298 H311 0.985 . S
N299 C301 1.356 . S
N299 H304 0.984 . S
N299 H305 0.985 . S
C300 C294 1.379 . S
C300 C297 1.363 . S
C300 N298 1.356 . S
C301 C295 1.363 . S
C301 C296 1.379 . S
C301 N299 1.356 . S
N302 C294 1.356 . S
N302 H308 0.984 . S
N302 H309 0.984 . S
N303 C296 1.356 . S
N303 H306 0.984 . S
N303 H307 0.985 . S
H304 N299 0.984 . S
H305 N299 0.985 . S
H306 N303 0.984 . S
H307 N303 0.985 . S
H308 N302 0.984 . S
H309 N302 0.984 . S
H310 N298 0.984 . S
H311 N298 0.985 . S
C312 C313 1.363 . S
C312 C318 1.379 . S
C312 N320 1.356 . S
C313 C312 1.363 . S
C313 C319 1.363 . S
C314 C315 1.363 . S
C314 C319 1.379 . S
C314 N321 1.356 . S
C315 C314 1.363 . S
C315 C318 1.363 . S
N316 C318 1.356 . S
N316 H328 0.984 . S
N316 H329 0.985 . S
N317 C319 1.356 . S
N317 H322 0.984 . S
N317 H323 0.985 . S
C318 C312 1.379 . S
C318 C315 1.363 . S
C318 N316 1.356 . S
C319 C313 1.363 . S
C319 C314 1.379 . S
C319 N317 1.356 . S
N320 C312 1.356 . S
N320 H326 0.984 . S
N320 H327 0.984 . S
N321 C314 1.356 . S
N321 H324 0.984 . S
N321 H325 0.985 . S
H322 N317 0.984 . S
H323 N317 0.985 . S
H324 N321 0.984 . S
H325 N321 0.985 . S
H326 N320 0.984 . S
H327 N320 0.984 . S
H328 N316 0.984 . S
H329 N316 0.985 . S
C330 C331 1.363 . S
C330 C336 1.379 . S
C330 N338 1.356 . S
C331 C330 1.363 . S
C331 C337 1.353 1_556 S
C332 C333 1.363 1_554 S
C332 C337 1.383 . S
C332 N339 1.356 . S
C333 C332 1.363 1_556 S
C333 C336 1.363 . S
N334 C336 1.356 . S
N334 H346 0.984 . S
N334 H347 0.985 . S
N335 C337 1.359 . S
N335 H340 0.984 1_554 S
N335 H341 0.985 . S
C336 C330 1.379 . S
C336 C333 1.363 . S
C336 N334 1.356 . S
C337 C331 1.353 1_554 S
C337 C332 1.383 . S
C337 N335 1.359 . S
N338 C330 1.356 . S
N338 H344 0.984 . S
N338 H345 0.984 . S
N339 C332 1.356 . S
N339 H342 0.984 . S
N339 H343 0.985 . S
H340 N335 0.984 1_556 S
H341 N335 0.985 . S
H342 N339 0.984 . S
H343 N339 0.985 . S
H344 N338 0.984 . S
H345 N338 0.984 . S
H346 N334 0.984 . S
H347 N334 0.985 . S
C348 C349 1.363 . S
C348 C354 1.379 . S
C348 N356 1.356 . S
C349 C348 1.363 . S
C349 C355 1.363 . S
C350 C351 1.363 . S
C350 C355 1.379 . S
C350 N357 1.356 1_655 S
C351 C350 1.363 . S
C351 C354 1.363 . S
N352 C354 1.356 . S
N352 H364 0.984 . S
N352 H365 0.985 . S
N353 C355 1.356 . S
N353 H358 0.984 . S
N353 H359 1.005 . S
C354 C348 1.379 . S
C354 C351 1.363 . S
C354 N352 1.356 . S
C355 C349 1.363 . S
C355 C350 1.379 . S
C355 N353 1.356 . S
N356 C348 1.356 . S
N356 H362 0.984 . S
N356 H363 0.984 . S
N357 C350 1.356 1_455 S
N357 H360 0.984 . S
N357 H361 0.985 . S
H358 N353 0.984 . S
H359 N353 1.005 . S
H360 N357 0.984 . S
H361 N357 0.985 . S
H362 N356 0.984 . S
H363 N356 0.984 . S
H364 N352 0.984 . S
H365 N352 0.985 . S
C366 C367 1.363 . S
C366 C372 1.379 . S
C366 N374 1.356 . S
C367 C366 1.363 . S
C367 C373 1.363 . S
C368 C369 1.363 . S
C368 C373 1.379 . S
C368 N375 1.356 . S
C369 C368 1.363 . S
C369 C372 1.363 . S
N370 C372 1.356 . S
N370 H382 0.984 . S
N370 H383 0.985 . S
N371 C373 1.356 . S
N371 H376 0.984 . S
N371 H377 0.985 . S
C372 C366 1.379 . S
C372 C369 1.363 . S
C372 N370 1.356 . S
C373 C367 1.363 . S
C373 C368 1.379 . S
C373 N371 1.356 . S
N374 C366 1.356 . S
N374 H380 0.984 . S
N374 H381 0.984 . S
N375 C368 1.356 . S
N375 H378 0.984 . S
N375 H379 0.985 . S
H376 N371 0.984 . S
H377 N371 0.985 . S
H378 N375 0.984 . S
H379 N375 0.985 . S
H380 N374 0.984 . S
H381 N374 0.984 . S
H382 N370 0.984 . S
H383 N370 0.985 . S
C384 C385 1.363 . S
C384 C390 1.379 . S
C384 N392 1.356 . S
C385 C384 1.363 . S
C385 C391 1.363 . S
C386 C387 1.363 . S
C386 C391 1.379 . S
C386 N393 1.356 . S
C387 C386 1.363 . S
C387 C390 1.363 . S
N388 C390 1.356 . S
N388 H400 0.984 . S
N388 H401 0.985 . S
N389 C391 1.356 . S
N389 H394 0.984 . S
N389 H395 0.985 . S
C390 C384 1.379 . S
C390 C387 1.363 . S
C390 N388 1.356 . S
C391 C385 1.363 . S
C391 C386 1.379 . S
C391 N389 1.356 . S
N392 C384 1.356 . S
N392 H398 0.984 . S
N392 H399 0.984 . S
N393 C386 1.356 . S
N393 H396 0.984 . S
N393 H397 0.985 . S
H394 N389 0.984 . S
H395 N389 0.985 . S
H396 N393 0.984 . S
H397 N393 0.985 . S
H398 N392 0.984 . S
H399 N392 0.984 . S
H400 N388 0.984 . S
H401 N388 0.985 . S
C402 C403 1.363 . S
C402 C408 1.379 . S
C402 N410 1.356 . S
C403 C402 1.363 . S
C403 C409 1.363 . S
C404 C405 1.363 . S
C404 C409 1.379 . S
C404 N411 1.356 . S
C405 C404 1.363 . S
C405 C408 1.363 . S
N406 C408 1.356 . S
N406 H418 0.984 . S
N406 H419 0.985 . S
N407 C409 1.356 . S
N407 H412 0.984 . S
N407 H413 0.985 . S
C408 C402 1.379 . S
C408 C405 1.363 . S
C408 N406 1.356 . S
C409 C403 1.363 . S
C409 C404 1.379 . S
C409 N407 1.356 . S
N410 C402 1.356 . S
N410 H416 0.984 . S
N410 H417 0.984 . S
N411 C404 1.356 . S
N411 H414 0.984 . S
N411 H415 0.985 . S
H412 N407 0.984 . S
H413 N407 0.985 . S
H414 N411 0.984 . S
H415 N411 0.985 . S
H416 N410 0.984 . S
H417 N410 0.984 . S
H418 N406 0.984 . S
H419 N406 0.985 . S
C420 C421 1.363 . S
C420 C426 1.379 . S
C420 N428 1.356 . S
C421 C420 1.363 . S
C421 C427 1.363 . S
C422 C423 1.363 . S
C422 C427 1.379 . S
C422 N429 1.356 . S
C423 C422 1.363 . S
C423 C426 1.363 . S
N424 C426 1.356 . S
N424 H436 0.984 . S
N424 H437 0.985 . S
N425 C427 1.356 . S
N425 H430 0.984 . S
N425 H431 0.985 . S
C426 C420 1.379 . S
C426 C423 1.363 . S
C426 N424 1.356 . S
C427 C421 1.363 . S
C427 C422 1.379 . S
C427 N425 1.356 . S
N428 C420 1.356 . S
N428 H434 0.984 . S
N428 H435 0.984 . S
N429 C422 1.356 . S
N429 H432 0.984 . S
N429 H433 0.985 . S
H430 N425 0.984 . S
H431 N425 0.985 . S
H432 N429 0.984 . S
H433 N429 0.985 . S
H434 N428 0.984 . S
H435 N428 0.984 . S
H436 N424 0.984 . S
H437 N424 0.985 . S
C438 C439 1.363 . S
C438 C444 1.379 . S
C438 N446 1.356 . S
C439 C438 1.363 . S
C439 C445 1.363 . S
C440 C441 1.363 . S
C440 C445 1.379 . S
C440 N447 1.356 . S
C441 C440 1.363 . S
C441 C444 1.363 . S
N442 C444 1.356 . S
N442 H454 0.984 . S
N442 H455 0.985 . S
N443 C445 1.356 . S
N443 H448 0.984 . S
N443 H449 0.985 . S
C444 C438 1.379 . S
C444 C441 1.363 . S
C444 N442 1.356 . S
C445 C439 1.363 . S
C445 C440 1.379 . S
C445 N443 1.356 . S
N446 C438 1.356 . S
N446 H452 0.984 . S
N446 H453 0.984 . S
N447 C440 1.356 . S
N447 H450 0.984 . S
N447 H451 0.985 . S
H448 N443 0.984 . S
H449 N443 0.985 . S
H450 N447 0.984 . S
H451 N447 0.985 . S
H452 N446 0.984 . S
H453 N446 0.984 . S
H454 N442 0.984 . S
H455 N442 0.985 . S
C456 C457 1.363 . S
C456 C462 1.379 . S
C456 N464 1.356 . S
C457 C456 1.363 . S
C457 C463 1.363 . S
C458 C459 1.363 . S
C458 C463 1.379 . S
C458 N465 1.356 . S
C459 C458 1.363 . S
C459 C462 1.363 . S
N460 C462 1.356 1_554 S
N460 H472 0.984 . S
N460 H473 0.985 . S
N461 C463 1.356 . S
N461 H466 0.984 . S
N461 H467 0.985 . S
C462 C456 1.379 . S
C462 C459 1.363 . S
C462 N460 1.356 1_556 S
C463 C457 1.363 . S
C463 C458 1.379 . S
C463 N461 1.356 . S
N464 C456 1.356 . S
N464 H470 0.984 . S
N464 H471 0.984 . S
N465 C458 1.356 . S
N465 H468 0.984 1_565 S
N465 H469 0.985 1_565 S
H466 N461 0.984 . S
H467 N461 0.985 . S
H468 N465 0.984 1_545 S
H469 N465 0.985 1_545 S
H470 N464 0.984 . S
H471 N464 0.984 . S
H472 N460 0.984 . S
H473 N460 0.985 . S
C474 C475 1.363 . S
C474 C480 1.379 . S
C474 N482 1.356 . S
C475 C474 1.363 . S
C475 C481 1.363 . S
C476 C477 1.363 . S
C476 C481 1.379 . S
C476 N483 1.356 . S
C477 C476 1.363 . S
C477 C480 1.363 . S
N478 C480 1.356 . S
N478 H490 0.984 . S
N478 H491 0.985 . S
N479 C481 1.356 . S
N479 H484 0.984 . S
N479 H485 0.985 . S
C480 C474 1.379 . S
C480 C477 1.363 . S
C480 N478 1.356 . S
C481 C475 1.363 . S
C481 C476 1.379 . S
C481 N479 1.356 . S
N482 C474 1.356 . S
N482 H488 0.984 . S
N482 H489 0.984 . S
N483 C476 1.356 . S
N483 H486 0.984 . S
N483 H487 0.985 . S
H484 N479 0.984 . S
H485 N479 0.985 . S
H486 N483 0.984 . S
H487 N483 0.985 . S
H488 N482 0.984 . S
H489 N482 0.984 . S
H490 N478 0.984 . S
H491 N478 0.985 . S
C492 C493 1.363 . S
C492 C498 1.379 . S
C492 N500 1.356 . S
C493 C492 1.363 . S
C493 C499 1.363 . S
C494 C495 1.363 . S
C494 C499 1.379 . S
C494 N501 1.356 . S
C495 C494 1.363 . S
C495 C498 1.363 . S
N496 C498 1.356 . S
N496 H508 0.984 . S
N496 H509 0.985 . S
N497 C499 1.356 . S
N497 H502 0.984 . S
N497 H503 0.985 . S
C498 C492 1.379 . S
C498 C495 1.363 . S
C498 N496 1.356 . S
C499 C493 1.363 . S
C499 C494 1.379 . S
C499 N497 1.356 . S
N500 C492 1.356 . S
N500 H506 0.984 . S
N500 H507 0.984 . S
N501 C494 1.356 . S
N501 H504 0.984 . S
N501 H505 0.985 . S
H502 N497 0.984 . S
H503 N497 0.985 . S
H504 N501 0.984 . S
H505 N501 0.985 . S
H506 N500 0.984 . S
H507 N500 0.984 . S
H508 N496 0.984 . S
H509 N496 0.985 . S
C510 C511 1.363 . S
C510 C516 1.379 . S
C510 N518 1.356 . S
C511 C510 1.363 . S
C511 C517 1.363 . S
C512 C513 1.363 . S
C512 C517 1.379 . S
C512 N519 1.356 . S
C513 C512 1.363 . S
C513 C516 1.363 . S
N514 C516 1.356 . S
N514 H526 0.984 . S
N514 H527 0.985 . S
N515 C517 1.356 . S
N515 H520 0.984 . S
N515 H521 0.985 . S
C516 C510 1.379 . S
C516 C513 1.363 . S
C516 N514 1.356 . S
C517 C511 1.363 . S
C517 C512 1.379 . S
C517 N515 1.356 . S
N518 C510 1.356 . S
N518 H524 0.984 . S
N518 H525 0.984 . S
N519 C512 1.356 . S
N519 H522 0.984 . S
N519 H523 0.985 . S
H520 N515 0.984 . S
H521 N515 0.985 . S
H522 N519 0.984 . S
H523 N519 0.985 . S
H524 N518 0.984 . S
H525 N518 0.984 . S
H526 N514 0.984 . S
H527 N514 0.985 . S
C528 C529 1.363 . S
C528 C534 1.379 . S
C528 N536 1.356 . S
C529 C528 1.363 . S
C529 C535 1.363 . S
C530 C531 1.363 . S
C530 C535 1.379 . S
C530 N537 1.356 . S
C531 C530 1.363 . S
C531 C534 1.363 . S
N532 C534 1.356 . S
N532 H544 0.984 . S
N532 H545 0.985 . S
N533 C535 1.356 . S
N533 H538 0.984 . S
N533 H539 0.985 . S
C534 C528 1.379 . S
C534 C531 1.363 . S
C534 N532 1.356 . S
C535 C529 1.363 . S
C535 C530 1.379 . S
C535 N533 1.356 . S
N536 C528 1.356 . S
N536 H542 0.984 . S
N536 H543 0.984 . S
N537 C530 1.356 . S
N537 H540 0.984 . S
N537 H541 0.985 . S
H538 N533 0.984 . S
H539 N533 0.985 . S
H540 N537 0.984 . S
H541 N537 0.985 . S
H542 N536 0.984 . S
H543 N536 0.984 . S
H544 N532 0.984 . S
H545 N532 0.985 . S
C546 C547 1.363 . S
C546 C552 1.379 . S
C546 N554 1.356 . S
C547 C546 1.363 . S
C547 C553 1.363 . S
C548 C549 1.363 . S
C548 C553 1.379 . S
C548 N555 1.356 . S
C549 C548 1.363 . S
C549 C552 1.363 . S
N550 C552 1.356 . S
N550 H562 0.984 . S
N550 H563 0.985 . S
N551 C553 1.356 . S
N551 H556 0.984 . S
N551 H557 0.985 . S
C552 C546 1.379 . S
C552 C549 1.363 . S
C552 N550 1.356 . S
C553 C547 1.363 . S
C553 C548 1.379 . S
C553 N551 1.356 . S
N554 C546 1.356 . S
N554 H560 0.984 . S
N554 H561 0.984 . S
N555 C548 1.356 . S
N555 H558 0.984 . S
N555 H559 0.985 . S
H556 N551 0.984 . S
H557 N551 0.985 . S
H558 N555 0.984 . S
H559 N555 0.985 . S
H560 N554 0.984 . S
H561 N554 0.984 . S
H562 N550 0.984 . S
H563 N550 0.985 . S
C564 C565 1.363 . S
C564 C570 1.379 . S
C564 N572 1.356 . S
C565 C564 1.363 . S
C565 C571 1.363 . S
C566 C567 1.363 . S
C566 C571 1.379 . S
C566 N573 1.356 . S
C567 C566 1.363 . S
C567 C570 1.363 . S
N568 C570 1.356 . S
N568 H580 0.984 . S
N568 H581 0.985 . S
N569 C571 1.356 . S
N569 H574 0.984 . S
N569 H575 0.985 . S
C570 C564 1.379 . S
C570 C567 1.363 . S
C570 N568 1.356 . S
C571 C565 1.363 . S
C571 C566 1.379 . S
C571 N569 1.356 . S
N572 C564 1.356 . S
N572 H578 0.984 . S
N572 H579 0.984 . S
N573 C566 1.356 . S
N573 H576 0.984 . S
N573 H577 0.985 . S
H574 N569 0.984 . S
H575 N569 0.985 . S
H576 N573 0.984 . S
H577 N573 0.985 . S
H578 N572 0.984 . S
H579 N572 0.984 . S
H580 N568 0.984 . S
H581 N568 0.985 . S
C582 C583 1.363 . S
C582 C588 1.379 . S
C582 N590 1.356 . S
C583 C582 1.363 . S
C583 C589 1.363 . S
C584 C585 1.363 . S
C584 C589 1.379 . S
C584 N591 1.356 . S
C585 C584 1.363 . S
C585 C588 1.363 . S
N586 C588 1.356 . S
N586 H598 0.984 . S
N586 H599 0.985 . S
N587 C589 1.356 . S
N587 H592 0.984 . S
N587 H593 0.985 . S
C588 C582 1.379 . S
C588 C585 1.363 . S
C588 N586 1.356 . S
C589 C583 1.363 . S
C589 C584 1.379 . S
C589 N587 1.356 . S
N590 C582 1.356 . S
N590 H596 0.984 . S
N590 H597 0.984 . S
N591 C584 1.356 . S
N591 H594 0.984 . S
N591 H595 0.985 . S
H592 N587 0.984 . S
H593 N587 0.985 . S
H594 N591 0.984 . S
H595 N591 0.985 . S
H596 N590 0.984 . S
H597 N590 0.984 . S
H598 N586 0.984 . S
H599 N586 0.985 . S
C169 C4 1.475 . S
C171 C90 1.481 . S
C187 C16 1.524 . S
C189 C109 1.496 . S
C207 C146 1.484 . S
C205 C32 1.503 . S
C223 C43 1.644 . S
C225 C156 1.595 . S
C243 C126 2.129 . S
C241 C5 2.063 . S
C261 C96 1.188 . S
C259 C21 1.215 . S
C279 C167 1.525 . S
C277 C27 1.561 . S
C297 C137 1.439 . S
C295 C37 1.445 . S
C313 C10 1.563 . S
C315 C150 1.580 . S
C333 C117 1.819 1_556 S
C331 C26 1.877 . S
C349 C38 1.610 . S
C351 C107 1.609 . S
C367 C15 1.348 . S
C369 C129 1.333 . S
C387 C89 1.549 . S
C385 C48 1.543 . S
C403 C59 1.433 . S
C405 C110 1.395 . S
C421 C76 1.735 . S
C423 C147 1.705 . S
C439 C87 1.544 . S
C441 C157 1.530 . S
C457 C54 1.643 . S
C459 C127 1.693 1_556 S
C477 C97 1.716 . S
C475 C60 1.783 . S
C495 C166 1.441 . S
C493 C71 1.470 . S
C513 C136 1.377 . S
C511 C82 1.434 . S
C529 C49 1.723 . S
C531 C149 1.788 . S
C549 C116 1.486 . S
C547 C70 1.538 . S
C567 C106 1.867 . S
C565 C81 1.872 . S
C583 C65 1.319 . S
C585 C130 1.319 . S
