# Generated by pormake.
# Topology pyr, (3,6)-cn, num edge types: 1
# Building blocks:
#     Node 0, Type 0, BuildingBlock: BETDAH_clean_linker_0, # of connection points: 3
#     Node 1, Type 0, BuildingBlock: BETDAH_clean_linker_0, # of connection points: 3
#     Node 2, Type 0, BuildingBlock: BETDAH_clean_linker_0, # of connection points: 3
#     Node 3, Type 0, BuildingBlock: BETDAH_clean_linker_0, # of connection points: 3
#     Node 4, Type 0, BuildingBlock: BETDAH_clean_linker_0, # of connection points: 3
#     Node 5, Type 0, BuildingBlock: BETDAH_clean_linker_0, # of connection points: 3
#     Node 6, Type 0, BuildingBlock: BETDAH_clean_linker_0, # of connection points: 3
#     Node 7, Type 0, BuildingBlock: BETDAH_clean_linker_0, # of connection points: 3
#     Node 8, Type 1, BuildingBlock: PAMTUU_clean_sbu_0, # of connection points: 6
#     Node 9, Type 1, BuildingBlock: PAMTUU_clean_sbu_0, # of connection points: 6
#     Node 10, Type 1, BuildingBlock: PAMTUU_clean_sbu_0, # of connection points: 6
#     Node 11, Type 1, BuildingBlock: PAMTUU_clean_sbu_0, # of connection points: 6
#     Edge 12, Type (0, 1), BuildingBlock: AJUNOK_clean_linker_0, # of connection points: 2
#     Edge 13, Type (0, 1), BuildingBlock: AJUNOK_clean_linker_0, # of connection points: 2
#     Edge 14, Type (0, 1), BuildingBlock: AJUNOK_clean_linker_0, # of connection points: 2
#     Edge 15, Type (0, 1), BuildingBlock: AJUNOK_clean_linker_0, # of connection points: 2
#     Edge 16, Type (0, 1), BuildingBlock: AJUNOK_clean_linker_0, # of connection points: 2
#     Edge 17, Type (0, 1), BuildingBlock: AJUNOK_clean_linker_0, # of connection points: 2
#     Edge 18, Type (0, 1), BuildingBlock: AJUNOK_clean_linker_0, # of connection points: 2
#     Edge 19, Type (0, 1), BuildingBlock: AJUNOK_clean_linker_0, # of connection points: 2
#     Edge 20, Type (0, 1), BuildingBlock: AJUNOK_clean_linker_0, # of connection points: 2
#     Edge 21, Type (0, 1), BuildingBlock: AJUNOK_clean_linker_0, # of connection points: 2
#     Edge 22, Type (0, 1), BuildingBlock: AJUNOK_clean_linker_0, # of connection points: 2
#     Edge 23, Type (0, 1), BuildingBlock: AJUNOK_clean_linker_0, # of connection points: 2
#     Edge 24, Type (0, 1), BuildingBlock: AJUNOK_clean_linker_0, # of connection points: 2
#     Edge 25, Type (0, 1), BuildingBlock: AJUNOK_clean_linker_0, # of connection points: 2
#     Edge 26, Type (0, 1), BuildingBlock: AJUNOK_clean_linker_0, # of connection points: 2
#     Edge 27, Type (0, 1), BuildingBlock: AJUNOK_clean_linker_0, # of connection points: 2
#     Edge 28, Type (0, 1), BuildingBlock: AJUNOK_clean_linker_0, # of connection points: 2
#     Edge 29, Type (0, 1), BuildingBlock: AJUNOK_clean_linker_0, # of connection points: 2
#     Edge 30, Type (0, 1), BuildingBlock: AJUNOK_clean_linker_0, # of connection points: 2
#     Edge 31, Type (0, 1), BuildingBlock: AJUNOK_clean_linker_0, # of connection points: 2
#     Edge 32, Type (0, 1), BuildingBlock: AJUNOK_clean_linker_0, # of connection points: 2
#     Edge 33, Type (0, 1), BuildingBlock: AJUNOK_clean_linker_0, # of connection points: 2
#     Edge 34, Type (0, 1), BuildingBlock: AJUNOK_clean_linker_0, # of connection points: 2
#     Edge 35, Type (0, 1), BuildingBlock: AJUNOK_clean_linker_0, # of connection points: 2
# Relax obj value: 0.203
# Max RMSD: 0.181
# Mean RMSD: 0.136
data_MOF--net-pyr--node1-PAMTUU_clean_sbu_0--node2-BETDAH_clean_linker_0--edge1-AJUNOK_clean_linker_0
_symmetry_space_group_name_H-M    P1
_symmetry_Int_Tables_number       1
_symmetry_cell_setting            triclinic
loop_
_symmetry_equiv_pos_as_xyz
'x, y, z'
_cell_length_a     27.587982
_cell_length_b     29.449022
_cell_length_c     27.826899
_cell_angle_alpha  90.483443
_cell_angle_beta   90.136555
_cell_angle_gamma 109.4309
loop_
_atom_site_label
_atom_site_type_symbol
_atom_site_fract_x
_atom_site_fract_y
_atom_site_fract_z
_atom_type_partial_charge
H0 H 0.45547 0.27031 0.33292 0.0
H1 H 0.48433 0.33903 0.19547 0.0
H2 H 0.40444 0.39029 0.30443 0.0
C3 C 0.45455 0.29944 0.30974 0.0
C4 C 0.42956 0.33136 0.32503 0.0
C5 C 0.47371 0.30147 0.263 0.0
C6 C 0.47085 0.33793 0.23215 0.0
C7 C 0.44542 0.36969 0.24671 0.0
C8 C 0.42508 0.36651 0.29333 0.0
N9 N 0.43631 0.40132 0.21251 0.0
C10 C 0.38993 0.41019 0.21091 0.0
H11 H 0.26752 0.80645 0.81146 0.0
H12 H 0.13702 0.85399 0.80146 0.0
H13 H 0.15497 0.74941 0.69985 0.0
C14 C 0.23134 0.80404 0.79438 0.0
C15 C 0.21443 0.77407 0.75416 0.0
C16 C 0.2042 0.83351 0.81087 0.0
C17 C 0.15787 0.83095 0.78867 0.0
C18 C 0.13951 0.80023 0.74884 0.0
C19 C 0.16792 0.7717 0.73164 0.0
N20 N 0.09466 0.80039 0.72385 0.0
C21 C 0.08229 0.84236 0.72046 0.0
H22 H 0.74827 0.37718 1.01944 0.0
H23 H 0.74931 0.48389 0.91306 0.0
H24 H 0.62285 0.35026 0.91991 0.0
C25 C 0.73053 0.38853 0.9891 0.0
C26 C 0.68263 0.35803 0.97246 0.0
C27 C 0.75575 0.43366 0.96791 0.0
C28 C 0.73089 0.44924 0.92948 0.0
C29 C 0.68227 0.41886 0.91226 0.0
C30 C 0.65936 0.37371 0.93393 0.0
N31 N 0.65324 0.43041 0.87414 0.0
C32 C 0.66409 0.46888 0.84183 0.0
H33 H 0.8375 0.79723 0.51076 0.0
H34 H 0.97116 0.80162 0.4297 0.0
H35 H 0.84243 0.67 0.436 0.0
C36 C 0.85742 0.7794 0.48776 0.0
C37 C 0.83391 0.73022 0.47653 0.0
C38 C 0.90724 0.8055 0.47209 0.0
C39 C 0.93201 0.78264 0.44064 0.0
C40 C 0.9082 0.7343 0.42564 0.0
C41 C 0.85911 0.7081 0.44411 0.0
N42 N 0.93948 0.7104 0.40264 0.0
C43 C 0.93156 0.68664 0.35786 0.0
H44 H 0.78428 0.83266 0.923 0.0
H45 H 0.67029 0.7672 1.02963 0.0
H46 H 0.63714 0.85156 0.91603 0.0
C47 C 0.74563 0.82462 0.93692 0.0
C48 C 0.71186 0.84403 0.9145 0.0
C49 C 0.7312 0.79718 0.97847 0.0
C50 C 0.68133 0.78741 0.99675 0.0
C51 C 0.64724 0.80741 0.97457 0.0
C52 C 0.66263 0.83521 0.93294 0.0
N53 N 0.59987 0.80354 0.99686 0.0
C54 C 0.58248 0.84279 0.99754 0.0
H55 H 0.95233 0.26552 0.40733 0.0
H56 H 0.99261 0.35864 0.5314 0.0
H57 H 0.89564 0.38388 0.42043 0.0
C58 C 0.95289 0.29827 0.42591 0.0
C59 C 0.92335 0.32479 0.40803 0.0
C60 C 0.97755 0.30992 0.47046 0.0
C61 C 0.97513 0.35042 0.49605 0.0
C62 C 0.94598 0.37759 0.47812 0.0
C63 C 0.92021 0.36466 0.43376 0.0
N64 N 0.93855 0.4143 0.50745 0.0
C65 C 0.89289 0.42445 0.50579 0.0
H66 H 0.33778 0.79756 0.20625 0.0
H67 H 0.34666 0.67538 0.28603 0.0
H68 H 0.47445 0.80728 0.28604 0.0
C69 C 0.35875 0.78136 0.22973 0.0
C70 C 0.40869 0.80906 0.24468 0.0
C71 C 0.33561 0.73294 0.24348 0.0
C72 C 0.36248 0.71292 0.27626 0.0
C73 C 0.41214 0.74043 0.29308 0.0
C74 C 0.43499 0.78777 0.27607 0.0
N75 N 0.44434 0.71921 0.31854 0.0
C76 C 0.4344 0.69286 0.36142 0.0
H77 H 0.25139 0.3771 0.69735 0.0
H78 H 0.24913 0.48555 0.80269 0.0
H79 H 0.12506 0.35037 0.79449 0.0
C80 C 0.23341 0.38877 0.72742 0.0
C81 C 0.18585 0.35796 0.74354 0.0
C82 C 0.25728 0.43488 0.74811 0.0
C83 C 0.23183 0.45035 0.78631 0.0
C84 C 0.18352 0.41959 0.80288 0.0
C85 C 0.16166 0.3739 0.7813 0.0
N86 N 0.153 0.43223 0.8389 0.0
C87 C 0.16464 0.46931 0.87346 0.0
Tb88 Tb 0.1006 0.09273 0.57233 0.0
Tb89 Tb 0.99191 0.07821 0.62796 0.0
C90 C 1.00185 0.99963 0.55535 0.0
C91 C 0.22406 0.14972 0.51206 0.0
C92 C 0.29889 0.23033 0.47306 0.0
C93 C 0.30778 0.18612 0.47653 0.0
C94 C 0.27057 0.14609 0.49592 0.0
C95 C 0.21588 0.19428 0.51081 0.0
C96 C 0.25299 0.23433 0.49112 0.0
C97 C 0.18339 0.10647 0.52788 0.0
O98 O 0.07552 0.15128 0.54929 0.0
O99 O 0.99034 0.11063 0.55859 0.0
O100 O 0.0413 0.1506 0.64683 0.0
O101 O 0.12092 0.14542 0.63183 0.0
O102 O 0.91183 0.05915 0.62212 0.0
O103 O 0.95183 0.09025 0.6878 0.0
O104 O 0.03036 0.04039 0.67359 0.0
O105 O 0.0924 1.03413 0.62094 0.0
O106 O 0.04134 1.03265 0.53545 0.0
O107 O 0.98158 1.00846 0.59549 0.0
C108 C 0.02759 0.14787 0.54287 0.0
O109 O 0.17904 0.10059 0.57424 0.0
O110 O 0.13892 0.0981 0.50675 0.0
C111 C 0.09151 0.16804 0.65087 0.0
C112 C 0.86903 1.03525 0.69523 0.0
C113 C 0.80405 0.9713 0.75971 0.0
C114 C 0.80351 1.0186 0.75641 0.0
C115 C 0.83582 0.05042 0.72419 0.0
C116 C 0.86816 0.98739 0.69699 0.0
C117 C 0.83547 0.95539 0.729 0.0
C118 C 0.90732 0.07086 0.66678 0.0
C119 C 0.06598 1.02201 0.66072 0.0
H120 H 0.34228 0.18175 0.46177 0.0
H121 H 0.27734 0.1119 0.49671 0.0
H122 H 0.18012 0.19763 0.52351 0.0
H123 H 0.24519 0.26793 0.48848 0.0
H124 H 0.77957 1.03135 0.7801 0.0
H125 H 0.83638 0.08738 0.72322 0.0
H126 H 0.89402 0.97537 0.67501 0.0
H127 H 0.8367 0.9191 0.73162 0.0
Tb128 Tb 0.60019 0.09306 0.13803 0.0
Tb129 Tb 0.4887 0.07908 0.08871 0.0
C130 C 0.55935 1.02117 1.05013 0.0
C131 C 0.72522 0.14607 0.20014 0.0
C132 C 0.79498 0.21883 0.25489 0.0
C133 C 0.80447 0.17569 0.24556 0.0
C134 C 0.76967 0.1394 0.21825 0.0
C135 C 0.71736 0.19044 0.20674 0.0
C136 C 0.75213 0.22672 0.23429 0.0
C137 C 0.68474 0.10491 0.17954 0.0
O138 O 0.61754 0.14539 0.07954 0.0
O139 O 0.53768 0.1519 0.07049 0.0
O140 O 0.49061 0.10813 0.16083 0.0
O141 O 0.57568 0.15082 0.16575 0.0
O142 O 0.44517 0.09059 1.03124 0.0
O143 O 0.40932 0.06211 0.09854 0.0
O144 O 0.47905 1.00896 0.11915 0.0
O145 O 0.54266 1.03395 0.17627 0.0
O146 O 0.58951 1.03449 0.08782 0.0
O147 O 0.52211 0.03853 1.04054 0.0
C148 C 0.58756 0.16864 1.06344 0.0
O149 O 0.64075 0.09362 0.20164 0.0
O150 O 0.67934 0.10438 0.13298 0.0
C151 C 0.52819 0.14502 0.17748 0.0
C152 C 0.36303 1.03392 1.02756 0.0
C153 C 0.29848 0.96585 0.96477 0.0
C154 C 0.29198 1.01074 0.971 0.0
C155 C 0.32434 0.04481 1.00234 0.0
C156 C 0.36753 0.98804 1.02333 0.0
C157 C 0.33547 0.95417 0.99189 0.0
C158 C 0.40194 0.07179 1.05404 0.0
C159 C 0.50132 1.00097 0.15843 0.0
H160 H 0.83709 0.16898 0.26195 0.0
H161 H 0.77603 0.10526 0.21351 0.0
H162 H 0.68299 0.19593 0.19294 0.0
H163 H 0.744 0.25959 0.24192 0.0
H164 H 0.26398 1.02031 0.94968 0.0
H165 H 0.32075 0.08027 1.0052 0.0
H166 H 0.39734 0.97931 1.04267 0.0
H167 H 0.34113 0.91975 0.98692 0.0
Tb168 Tb 0.53983 0.53708 0.5792 0.0
Tb169 Tb 0.5453 0.63301 0.6384 0.0
C170 C 0.4936 0.6113 0.53425 0.0
C171 C 0.59716 0.4577 0.52455 0.0
C172 C 0.69283 0.44542 0.50893 0.0
C173 C 0.64703 0.40982 0.49365 0.0
C174 C 0.59934 0.41605 0.50127 0.0
C175 C 0.64288 0.49295 0.53987 0.0
C176 C 0.69012 0.48685 0.53232 0.0
C177 C 0.54821 0.46547 0.53437 0.0
O178 O 0.60336 0.59546 0.54895 0.0
O179 O 0.62428 0.6473 0.61318 0.0
O180 O 0.56878 0.5883 0.69019 0.0
O181 O 0.59717 0.54439 0.63632 0.0
O182 O 0.55755 0.70745 0.64061 0.0
O183 O 0.53332 0.66394 0.70363 0.0
O184 O 0.46516 0.58639 0.64171 0.0
O185 O 0.47693 0.51398 0.6311 0.0
O186 O 0.48673 0.56513 0.53986 0.0
O187 O 0.52221 0.64338 0.56497 0.0
C188 C 0.63635 0.63199 0.57168 0.0
O189 O 0.5363 0.46462 0.57969 0.0
O190 O 0.54267 0.50272 0.51322 0.0
C191 C 0.59443 0.55881 0.68081 0.0
C192 C 0.49064 0.71819 0.68701 0.0
C193 C 0.39389 0.72911 0.70038 0.0
C194 C 0.43181 0.7434 0.73658 0.0
C195 C 0.47983 0.73799 0.72992 0.0
C196 C 0.4531 0.7047 0.65044 0.0
C197 C 0.40524 0.71035 0.65698 0.0
C198 C 0.53717 0.70455 0.6832 0.0
C199 C 0.44954 0.53963 0.64776 0.0
H200 H 0.64819 0.37737 0.47581 0.0
H201 H 0.56443 0.38848 0.4893 0.0
H202 H 0.64209 0.52518 0.55825 0.0
H203 H 0.72454 0.51421 0.54571 0.0
H204 H 0.42404 0.75826 0.77029 0.0
H205 H 0.50786 0.74774 0.75885 0.0
H206 H 0.46005 0.68811 0.61746 0.0
H207 H 0.37649 0.69843 0.62883 0.0
Tb208 Tb 0.0463 0.63035 0.08147 0.0
Tb209 Tb 0.04066 0.53375 0.13828 0.0
C210 C 0.09597 0.55694 1.03748 0.0
C211 C 0.99684 0.72168 1.03987 0.0
C212 C 0.908 0.74804 1.03365 0.0
C213 C 0.95189 0.77228 1.00652 0.0
C214 C 0.99605 0.75907 1.00955 0.0
C215 C 0.9534 0.69804 1.06761 0.0
C216 C 0.90922 0.71092 1.06432 0.0
C217 C 0.04097 0.70446 1.04056 0.0
O218 O 0.96628 0.58303 0.07394 0.0
O219 O 0.97784 0.51067 0.08572 0.0
O220 O 0.98663 0.56068 0.17767 0.0
O221 O 1.02114 0.63917 0.15448 0.0
O222 O 0.03581 0.46096 0.13585 0.0
O223 O 0.04548 0.4993 0.20315 0.0
O224 O 0.10329 0.59211 0.17093 0.0
O225 O 0.12507 0.64404 0.10801 0.0
O226 O 0.07116 0.58714 1.02862 0.0
O227 O 0.09805 0.54173 0.08153 0.0
C228 C 0.95082 0.53605 1.068 0.0
O229 O 0.06239 0.70533 0.08248 0.0
O230 O 0.03311 0.66343 1.01856 0.0
C231 C 0.99264 0.60667 0.18413 0.0
C232 C 0.09771 0.45231 0.18894 0.0
C233 C 0.19186 0.43533 0.19791 0.0
C234 C 0.14591 0.40067 0.21335 0.0
C235 C 0.09891 0.40903 0.20861 0.0
C236 C 0.14381 0.48732 0.1749 0.0
C237 C 0.19035 0.47895 0.17934 0.0
C238 C 0.04919 0.46158 0.18082 0.0
C239 C 0.13641 0.62901 0.14974 0.0
H240 H 0.9515 0.8005 0.98196 0.0
H241 H 0.02904 0.7773 0.98756 0.0
H242 H 0.95333 0.66895 0.09119 0.0
H243 H 0.8759 0.69173 0.08549 0.0
H244 H 0.14629 0.36682 0.22797 0.0
H245 H 0.06369 0.38165 0.21966 0.0
H246 H 0.14381 0.52108 0.15988 0.0
H247 H 0.22528 0.50662 0.16807 0.0
C248 C 0.34606 0.31131 0.3674 0.0
C249 C 0.39942 0.32061 0.36987 0.0
C250 C 0.31373 0.28595 0.40386 0.0
C251 C 0.3338 0.2691 0.4438 0.0
H252 H 0.32864 0.31953 0.33515 0.0
H253 H 0.27254 0.27569 0.39851 0.0
S254 S 0.47153 0.29435 0.47239 0.0
N255 N 0.47158 0.31896 0.41925 0.0
N256 N 0.41054 0.27093 0.48789 0.0
C257 C 0.38739 0.28302 0.44925 0.0
C258 C 0.4203 0.30896 0.41222 0.0
C259 C 0.19892 0.87206 0.89032 0.0
C260 C 0.22696 0.86967 0.84876 0.0
C261 C 0.22178 0.90412 0.92792 0.0
C262 C 0.27309 0.93438 0.92465 0.0
H263 H 0.15969 0.84816 0.89426 0.0
H264 H 0.19978 0.90455 0.96001 0.0
S265 S 0.36089 0.94564 0.82172 0.0
N266 N 0.30712 0.9033 0.80505 0.0
N267 N 0.35014 0.96266 0.87621 0.0
C268 C 0.3008 0.93352 0.8828 0.0
C269 C 0.27768 0.90135 0.84461 0.0
C270 C 0.62998 0.5311 0.80889 0.0
C271 C 0.6561 0.49791 0.80158 0.0
C272 C 0.61208 0.55187 0.76988 0.0
C273 C 0.61888 0.54001 0.72152 0.0
H274 H 0.62139 0.5397 0.84514 0.0
H275 H 0.5911 0.57618 0.77791 0.0
S276 S 0.68673 0.45577 0.68312 0.0
N277 N 0.6892 0.45507 0.74244 0.0
N278 N 0.65619 0.49363 0.66946 0.0
C279 C 0.64653 0.50785 0.71397 0.0
C280 C 0.66483 0.48689 0.75376 0.0
C281 C 0.95668 0.69201 0.27159 0.0
C282 C 0.93825 0.66371 0.31234 0.0
C283 C 0.97204 0.67265 0.23001 0.0
C284 C 0.97006 0.62404 0.22716 0.0
H285 H 0.96104 0.72995 0.27239 0.0
H286 H 0.98698 0.69666 0.20023 0.0
S287 S 0.92287 0.53434 0.32431 0.0
N288 N 0.91745 0.58439 0.34716 0.0
N289 N 0.94586 0.5478 0.26952 0.0
C290 C 0.94994 0.59498 0.26741 0.0
C291 C 0.93435 0.61489 0.30979 0.0
C292 C 0.53701 0.2693 0.22291 0.0
C293 C 0.48883 0.26098 0.24431 0.0
C294 C 0.55053 0.23109 0.20342 0.0
C295 C 0.51594 0.18349 0.20402 0.0
H296 H 0.56415 0.30555 0.22092 0.0
H297 H 0.58762 0.23926 0.18622 0.0
S298 S 0.38497 0.14314 0.25625 0.0
N299 N 0.40654 0.20195 0.26527 0.0
N300 N 0.43189 0.13025 0.22892 0.0
C301 C 0.46793 0.17476 0.22606 0.0
C302 C 0.45438 0.21352 0.24608 0.0
C303 C 0.12054 0.92443 0.69167 0.0
C304 C 0.07898 0.88968 0.71326 0.0
C305 C 0.11736 0.96909 0.67871 0.0
C306 C 0.07232 0.98058 0.68672 0.0
H307 H 0.15514 0.91639 0.68299 0.0
H308 H 0.14969 0.9939 0.66004 0.0
S309 S 0.95562 0.90365 0.74947 0.0
N310 N 0.9938 0.87069 0.74753 0.0
N311 N 0.98732 0.95499 0.72307 0.0
C312 C 0.03184 0.94725 0.71187 0.0
C313 C 0.0352 0.90149 0.72497 0.0
C314 C 0.81907 0.50979 1.0054 0.0
C315 C 0.80819 0.46256 0.98726 0.0
C316 C 0.86526 0.5336 1.0309 0.0
C317 C 0.90236 0.51104 1.03978 0.0
H318 H 0.79089 0.5278 1.00147 0.0
H319 H 0.87128 0.56955 1.0448 0.0
S320 S 0.89508 0.38976 0.99455 0.0
N321 N 0.8409 0.39619 0.97602 0.0
N322 N 0.92617 0.43987 1.0241 0.0
C323 C 0.89262 0.46457 1.02001 0.0
C324 C 0.84614 0.44074 0.99377 0.0
C325 C 0.7423 0.67175 0.47635 0.0
C326 C 0.78487 0.70244 0.50187 0.0
C327 C 0.69486 0.64907 0.49926 0.0
C328 C 0.68765 0.65618 0.54876 0.0
H329 H 0.74519 0.66617 0.43807 0.0
H330 H 0.66326 0.62642 0.47762 0.0
S331 S 0.78895 0.72784 0.63337 0.0
N332 N 0.81798 0.73435 0.58082 0.0
N333 N 0.72905 0.6932 0.62309 0.0
C334 C 0.73042 0.68544 0.57495 0.0
C335 C 0.77883 0.70806 0.55183 0.0
C336 C 0.30825 0.40935 0.2477 0.0
C337 C 0.34025 0.41609 0.20734 0.0
C338 C 0.25947 0.41437 0.24427 0.0
C339 C 0.24161 0.42648 0.20042 0.0
H340 H 0.32097 0.40035 0.28208 0.0
H341 H 0.23608 0.40981 0.27626 0.0
S342 S 0.31012 0.4443 0.08384 0.0
N343 N 0.35037 0.4329 0.12213 0.0
N344 N 0.25891 0.44245 0.11545 0.0
C345 C 0.27318 0.43225 0.15972 0.0
C346 C 0.32254 0.42699 0.16325 0.0
C347 C 0.686 0.27908 1.00557 0.0
C348 C 0.65736 0.30963 0.99522 0.0
C349 C 0.66329 0.23374 1.02712 0.0
C350 C 0.61074 0.21663 1.0394 0.0
H351 H 0.72643 0.29011 0.99656 0.0
H352 H 0.68729 0.21195 1.03412 0.0
S353 S 0.51925 0.28401 1.02291 0.0
N354 N 0.57398 0.32023 1.00128 0.0
N355 N 0.53119 0.2355 1.04085 0.0
C356 C 0.58175 0.24709 1.02955 0.0
C357 C 0.60496 0.29327 1.00773 0.0
C358 C 0.95971 0.89459 0.46407 0.0
C359 C 0.93451 0.85469 0.49313 0.0
C360 C 0.98235 0.94132 0.48409 0.0
C361 C 0.98035 0.94999 0.53391 0.0
H362 H 0.96089 0.88988 0.4255 0.0
H363 H 1.00038 0.97097 0.46027 0.0
S364 S 0.92572 0.85657 0.62624 0.0
N365 N 0.91452 0.82653 0.57485 0.0
N366 N 0.9552 0.91333 0.612 0.0
C367 C 0.95701 0.90995 0.56331 0.0
C368 C 0.93466 0.86269 0.54312 0.0
C369 C 0.27058 0.72376 0.76337 0.0
C370 C 0.25035 0.75146 0.7335 0.0
C371 C 0.31578 0.71474 0.75121 0.0
C372 C 0.34235 0.73304 0.70873 0.0
H373 H 0.25316 0.71173 0.79789 0.0
H374 H 0.3312 0.69493 0.77619 0.0
S375 S 0.30321 0.80447 0.61665 0.0
N376 N 0.25837 0.79446 0.65827 0.0
N377 N 0.34332 0.77722 0.63516 0.0
C378 C 0.32064 0.75792 0.67696 0.0
C379 C 0.27456 0.76714 0.68941 0.0
C380 C 0.71516 0.86586 0.82791 0.0
C381 C 0.73117 0.87846 0.87556 0.0
C382 C 0.73828 0.89653 0.79009 0.0
C383 C 0.77721 0.94069 0.79934 0.0
H384 H 0.68598 0.83154 0.81984 0.0
H385 H 0.72625 0.88551 0.7535 0.0
S386 S 0.83179 0.98971 0.91812 0.0
N387 N 0.78744 0.93757 0.93016 0.0
N388 N 0.83052 0.99551 0.85919 0.0
C389 C 0.79253 0.95397 0.84696 0.0
C390 C 0.76951 0.92271 0.88516 0.0
C391 C 0.89876 0.31683 0.32106 0.0
C392 C 0.88682 0.30344 0.36906 0.0
C393 C 0.86748 0.2906 0.28348 0.0
C394 C 0.82394 0.25059 0.29345 0.0
H395 H 0.93336 0.34631 0.31258 0.0
H396 H 0.87833 0.3004 0.24664 0.0
S397 S 0.77588 0.20278 0.41319 0.0
N398 N 0.82808 0.24926 0.42461 0.0
N399 N 0.76948 0.19998 0.3541 0.0
C400 C 0.81086 0.23817 0.34132 0.0
C401 C 0.84235 0.26468 0.37923 0.0
C402 C 0.45906 0.6975 0.44799 0.0
C403 C 0.44047 0.66941 0.40652 0.0
C404 C 0.47411 0.67788 0.48931 0.0
C405 C 0.47161 0.62913 0.49125 0.0
H406 H 0.46382 0.73554 0.44797 0.0
H407 H 0.4892 0.70176 0.51964 0.0
S408 S 0.42383 0.53978 0.39205 0.0
N409 N 0.41901 0.59006 0.37008 0.0
N410 N 0.44676 0.55297 0.44725 0.0
C411 C 0.45133 0.60027 0.45028 0.0
C412 C 0.4361 0.62046 0.40813 0.0
C413 C 0.13654 0.53449 0.90939 0.0
C414 C 0.15739 0.49727 0.91523 0.0
C415 C 0.11875 0.55476 0.94909 0.0
C416 C 0.12053 0.53843 0.99655 0.0
H417 H 0.13187 0.54673 0.8736 0.0
H418 H 0.10187 0.58239 0.94215 0.0
S419 S 0.17244 0.44162 1.03081 0.0
N420 N 0.17957 0.44529 0.97191 0.0
N421 N 0.14677 0.48287 1.04623 0.0
C422 C 0.14288 0.50205 1.00273 0.0
C423 C 0.16099 0.48157 0.96226 0.0
C424 C 0.61797 0.93022 1.00684 0.0
C425 C 0.57478 0.88882 1.00086 0.0
C426 C 0.61245 0.97466 1.01805 0.0
C427 C 0.56351 0.97919 1.02323 0.0
H428 H 0.6563 0.92779 1.00541 0.0
H429 H 0.64675 1.00508 1.02564 0.0
S430 S 0.43847 0.88182 1.00542 0.0
N431 N 0.4818 0.8551 0.99656 0.0
N432 N 0.47111 0.93899 1.01708 0.0
C433 C 0.52003 0.93859 1.01351 0.0
C434 C 0.52575 0.89312 1.0026 0.0
C435 C 0.03441 0.25933 0.4724 0.0
C436 C 0.99533 0.2734 0.49355 0.0
C437 C 0.04514 0.21873 0.48877 0.0
C438 C 1.01577 0.19008 0.5255 0.0
H439 H 0.05594 0.27925 0.44238 0.0
H440 H 0.07559 0.20893 0.47174 0.0
S441 S 0.91062 0.21295 0.59362 0.0
N442 N 0.9287 0.25693 0.5542 0.0
N443 N 0.94791 0.18004 0.58426 0.0
C444 C 0.97725 0.20438 0.54745 0.0
C445 C 0.96726 0.24623 0.53162 0.0
C446 C 0.2761 0.70971 0.17105 0.0
C447 C 0.28503 0.70376 0.22038 0.0
C448 C 0.22838 0.68577 0.14871 0.0
C449 C 0.18717 0.65407 0.17421 0.0
H450 H 0.30638 0.73323 0.14925 0.0
H451 H 0.22401 0.69211 0.11087 0.0
S452 S 0.18964 0.62513 0.30406 0.0
N453 N 0.24765 0.66359 0.29393 0.0
N454 N 0.15889 0.61767 0.25207 0.0
C455 C 0.19572 0.64693 0.22339 0.0
C456 C 0.24429 0.67181 0.24625 0.0
C457 C 0.3454 0.4433 0.71636 0.0
C458 C 0.30838 0.46519 0.72781 0.0
C459 C 0.3902 0.46751 0.69058 0.0
C460 C 0.40101 0.51529 0.67524 0.0
H461 H 0.33924 0.40642 0.72668 0.0
H462 H 0.41659 0.44827 0.6826 0.0
S463 S 0.31858 0.59071 0.69808 0.0
N464 N 0.28676 0.53853 0.72283 0.0
N465 N 0.37153 0.58463 0.67573 0.0
C466 C 0.3654 0.53851 0.68801 0.0
C467 C 0.31924 0.51348 0.71401 0.0
C468 C 0.76997 0.73532 1.00286 0.0
C469 C 0.77123 0.78336 1.00366 0.0
C470 C 0.81386 0.72373 1.0151 0.0
C471 C 0.86023 0.75994 1.02801 0.0
H472 H 0.73607 0.70708 0.98983 0.0
H473 H 0.81235 0.6866 1.01178 0.0
S474 S 0.88062 0.89025 1.0416 0.0
N475 N 0.82047 0.86656 1.02302 0.0
N476 N 0.90287 0.84483 1.04584 0.0
C477 C 0.86072 0.80761 1.0319 0.0
C478 C 0.81615 0.81928 1.01983 0.0
C479 C 0.42699 0.8671 0.17516 0.0
C480 C 0.43405 0.85866 0.22415 0.0
C481 C 0.44869 0.91292 0.15477 0.0
C482 C 0.47933 0.95277 0.18193 0.0
H483 H 0.4047 0.83791 0.15199 0.0
H484 H 0.44163 0.91689 0.11697 0.0
S485 S 0.50921 0.95131 0.31198 0.0
N486 N 0.47314 0.89527 0.29967 0.0
N487 N 0.51521 0.98079 0.26089 0.0
C488 C 0.48736 0.94504 0.23083 0.0
C489 C 0.46455 0.89827 0.25188 0.0
C490 C 0.18973 0.27856 0.71093 0.0
C491 C 0.16113 0.30949 0.72013 0.0
C492 C 0.16724 0.23306 0.68875 0.0
C493 C 0.11504 0.21634 0.67483 0.0
H494 H 0.22986 0.28944 0.72137 0.0
H495 H 0.19094 0.21074 0.68275 0.0
S496 S 1.02447 0.28545 0.6866 0.0
N497 N 0.07866 0.32129 0.71044 0.0
N498 N 0.03625 0.23635 0.66963 0.0
C499 C 0.08628 0.2474 0.68318 0.0
C500 C 0.10924 0.29366 0.70558 0.0
C501 C 0.79997 0.39224 0.52028 0.0
C502 C 0.84285 0.42966 0.50378 0.0
C503 C 0.75094 0.39674 0.51997 0.0
C504 C 0.74351 0.43888 0.5032 0.0
H505 H 0.80448 0.35961 0.53422 0.0
H506 H 0.71902 0.36777 0.53446 0.0
S507 S 0.84354 0.54525 0.45221 0.0
N508 N 0.87504 0.5086 0.46754 0.0
N509 N 0.78288 0.5173 0.46654 0.0
C510 C 0.78615 0.47584 0.48502 0.0
C511 C 0.83594 0.47114 0.48539 0.0
loop_
_geom_bond_atom_site_label_1
_geom_bond_atom_site_label_2
_geom_bond_distance
_geom_bond_site_symmetry_2
_ccdc_geom_bond_type
H0 C3 0.929 . S
H1 C6 0.929 . S
H2 C8 0.930 . S
C3 H0 0.929 . S
C3 C4 1.398 . S
C3 C5 1.396 . S
C4 C3 1.398 . S
C4 C8 1.407 . S
C5 C3 1.396 . S
C5 C6 1.394 . S
C6 H1 0.929 . S
C6 C5 1.394 . S
C6 C7 1.382 . S
C7 C6 1.382 . S
C7 C8 1.392 . S
C7 N9 1.420 . S
C8 H2 0.930 . S
C8 C4 1.407 . S
C8 C7 1.392 . S
N9 C7 1.420 . S
N9 C10 1.244 . S
C10 N9 1.244 . S
H11 C14 0.929 . S
H12 C17 0.929 . S
H13 C19 0.930 . S
C14 H11 0.929 . S
C14 C15 1.398 . S
C14 C16 1.396 . S
C15 C14 1.398 . S
C15 C19 1.407 . S
C16 C14 1.396 . S
C16 C17 1.394 . S
C17 H12 0.929 . S
C17 C16 1.394 . S
C17 C18 1.382 . S
C18 C17 1.382 . S
C18 C19 1.392 . S
C18 N20 1.420 . S
C19 H13 0.930 . S
C19 C15 1.407 . S
C19 C18 1.392 . S
N20 C18 1.420 . S
N20 C21 1.244 . S
C21 N20 1.244 . S
H22 C25 0.929 . S
H23 C28 0.929 . S
H24 C30 0.930 . S
C25 H22 0.929 . S
C25 C26 1.398 . S
C25 C27 1.396 . S
C26 C25 1.398 . S
C26 C30 1.407 . S
C27 C25 1.396 . S
C27 C28 1.394 . S
C28 H23 0.929 . S
C28 C27 1.394 . S
C28 C29 1.382 . S
C29 C28 1.382 . S
C29 C30 1.392 . S
C29 N31 1.420 . S
C30 H24 0.930 . S
C30 C26 1.407 . S
C30 C29 1.392 . S
N31 C29 1.420 . S
N31 C32 1.244 . S
C32 N31 1.244 . S
H33 C36 0.929 . S
H34 C39 0.929 . S
H35 C41 0.930 . S
C36 H33 0.929 . S
C36 C37 1.398 . S
C36 C38 1.396 . S
C37 C36 1.398 . S
C37 C41 1.407 . S
C38 C36 1.396 . S
C38 C39 1.394 . S
C39 H34 0.929 . S
C39 C38 1.394 . S
C39 C40 1.382 . S
C40 C39 1.382 . S
C40 C41 1.392 . S
C40 N42 1.420 . S
C41 H35 0.930 . S
C41 C37 1.407 . S
C41 C40 1.392 . S
N42 C40 1.420 . S
N42 C43 1.244 . S
C43 N42 1.244 . S
H44 C47 0.929 . S
H45 C50 0.929 . S
H46 C52 0.930 . S
C47 H44 0.929 . S
C47 C48 1.398 . S
C47 C49 1.396 . S
C48 C47 1.398 . S
C48 C52 1.407 . S
C49 C47 1.396 . S
C49 C50 1.394 . S
C50 H45 0.929 . S
C50 C49 1.394 . S
C50 C51 1.382 . S
C51 C50 1.382 . S
C51 C52 1.392 . S
C51 N53 1.420 . S
C52 H46 0.930 . S
C52 C48 1.407 . S
C52 C51 1.392 . S
N53 C51 1.420 . S
N53 C54 1.244 . S
C54 N53 1.244 . S
H55 C58 0.929 . S
H56 C61 0.929 . S
H57 C63 0.930 . S
C58 H55 0.929 . S
C58 C59 1.398 . S
C58 C60 1.396 . S
C59 C58 1.398 . S
C59 C63 1.407 . S
C60 C58 1.396 . S
C60 C61 1.394 . S
C61 H56 0.929 . S
C61 C60 1.394 . S
C61 C62 1.382 . S
C62 C61 1.382 . S
C62 C63 1.392 . S
C62 N64 1.420 . S
C63 H57 0.930 . S
C63 C59 1.407 . S
C63 C62 1.392 . S
N64 C62 1.420 . S
N64 C65 1.244 . S
C65 N64 1.244 . S
H66 C69 0.929 . S
H67 C72 0.929 . S
H68 C74 0.930 . S
C69 H66 0.929 . S
C69 C70 1.398 . S
C69 C71 1.396 . S
C70 C69 1.398 . S
C70 C74 1.407 . S
C71 C69 1.396 . S
C71 C72 1.394 . S
C72 H67 0.929 . S
C72 C71 1.394 . S
C72 C73 1.382 . S
C73 C72 1.382 . S
C73 C74 1.392 . S
C73 N75 1.420 . S
C74 H68 0.930 . S
C74 C70 1.407 . S
C74 C73 1.392 . S
N75 C73 1.420 . S
N75 C76 1.244 . S
C76 N75 1.244 . S
H77 C80 0.929 . S
H78 C83 0.929 . S
H79 C85 0.930 . S
C80 H77 0.929 . S
C80 C81 1.398 . S
C80 C82 1.396 . S
C81 C80 1.398 . S
C81 C85 1.407 . S
C82 C80 1.396 . S
C82 C83 1.394 . S
C83 H78 0.929 . S
C83 C82 1.394 . S
C83 C84 1.382 . S
C84 C83 1.382 . S
C84 C85 1.392 . S
C84 N86 1.420 . S
C85 H79 0.930 . S
C85 C81 1.407 . S
C85 C84 1.392 . S
N86 C84 1.420 . S
N86 C87 1.244 . S
C87 N86 1.244 . S
Tb88 C97 2.764 . S
Tb88 O98 2.325 . S
Tb88 O101 2.303 . S
Tb88 O105 2.322 1_545 S
Tb88 O106 2.349 1_545 S
Tb88 O109 2.415 . S
Tb88 O110 2.399 . S
Tb89 O99 2.322 . S
Tb89 O100 2.349 1_655 S
Tb89 O102 2.415 1_545 S
Tb89 O103 2.399 . S
Tb89 O104 2.325 1_645 S
Tb89 O107 2.303 1_545 S
Tb89 C118 2.764 1_545 S
C90 O106 1.261 1_655 S
C90 O107 1.257 . S
C91 C94 1.358 . S
C91 C95 1.332 . S
C91 C97 1.504 . S
C92 C93 1.373 . S
C92 C96 1.308 . S
C93 C92 1.373 . S
C93 C94 1.429 . S
C93 H120 0.932 . S
C94 C91 1.358 . S
C94 C93 1.429 . S
C94 H121 0.930 . S
C95 C91 1.332 . S
C95 C96 1.394 . S
C95 H122 0.932 . S
C96 C92 1.308 . S
C96 C95 1.394 . S
C96 H123 0.929 . S
C97 Tb88 2.764 . S
C97 C91 1.504 . S
C97 O109 1.239 . S
C97 O110 1.263 . S
O98 Tb88 2.325 . S
O98 C108 1.236 1_455 S
O99 Tb89 2.322 . S
O99 C108 1.257 . S
O100 Tb89 2.349 1_455 S
O100 C111 1.261 . S
O101 Tb88 2.303 . S
O101 C111 1.257 . S
O102 Tb89 2.415 1_565 S
O102 C118 1.239 . S
O103 Tb89 2.399 . S
O103 C118 1.263 1_545 S
O104 Tb89 2.325 1_465 S
O104 C119 1.236 . S
O105 Tb88 2.322 1_565 S
O105 C119 1.257 . S
O106 Tb88 2.349 1_565 S
O106 C90 1.261 1_455 S
O107 Tb89 2.303 1_565 S
O107 C90 1.257 . S
C108 O98 1.236 1_655 S
C108 O99 1.257 . S
O109 Tb88 2.415 . S
O109 C97 1.239 . S
O110 Tb88 2.399 . S
O110 C97 1.263 . S
C111 O100 1.261 . S
C111 O101 1.257 . S
C112 C115 1.358 . S
C112 C116 1.332 . S
C112 C118 1.504 . S
C113 C114 1.373 . S
C113 C117 1.308 . S
C114 C113 1.373 . S
C114 C115 1.429 . S
C114 H124 0.932 . S
C115 C112 1.358 . S
C115 C114 1.429 . S
C115 H125 0.930 . S
C116 C112 1.332 . S
C116 C117 1.394 . S
C116 H126 0.932 . S
C117 C113 1.308 . S
C117 C116 1.394 . S
C117 H127 0.929 . S
C118 Tb89 2.764 1_565 S
C118 O102 1.239 . S
C118 O103 1.263 1_565 S
C118 C112 1.504 . S
C119 O104 1.236 . S
C119 O105 1.257 . S
H120 C93 0.932 . S
H121 C94 0.930 . S
H122 C95 0.932 . S
H123 C96 0.929 . S
H124 C114 0.932 . S
H125 C115 0.930 . S
H126 C116 0.932 . S
H127 C117 0.929 . S
Tb128 C137 2.764 . S
Tb128 O138 2.325 . S
Tb128 O141 2.303 . S
Tb128 O145 2.322 1_545 S
Tb128 O146 2.349 1_545 S
Tb128 O149 2.415 . S
Tb128 O150 2.399 . S
Tb129 O139 2.322 . S
Tb129 O140 2.349 . S
Tb129 O142 2.415 1_544 S
Tb129 O143 2.399 1_544 S
Tb129 O144 2.325 1_545 S
Tb129 O147 2.303 1_545 S
Tb129 C158 2.764 1_544 S
C130 O146 1.261 . S
C130 O147 1.257 . S
C131 C134 1.358 . S
C131 C135 1.332 . S
C131 C137 1.504 . S
C132 C133 1.373 . S
C132 C136 1.308 . S
C133 C132 1.373 . S
C133 C134 1.429 . S
C133 H160 0.932 . S
C134 C131 1.358 . S
C134 C133 1.429 . S
C134 H161 0.930 . S
C135 C131 1.332 . S
C135 C136 1.394 . S
C135 H162 0.932 . S
C136 C132 1.308 . S
C136 C135 1.394 . S
C136 H163 0.929 . S
C137 Tb128 2.764 . S
C137 C131 1.504 . S
C137 O149 1.239 . S
C137 O150 1.263 . S
O138 Tb128 2.325 . S
O138 C148 1.236 . S
O139 Tb129 2.322 . S
O139 C148 1.257 . S
O140 Tb129 2.349 . S
O140 C151 1.261 . S
O141 Tb128 2.303 . S
O141 C151 1.257 . S
O142 Tb129 2.415 1_566 S
O142 C158 1.239 . S
O143 Tb129 2.399 1_566 S
O143 C158 1.263 . S
O144 Tb129 2.325 1_565 S
O144 C159 1.236 . S
O145 Tb128 2.322 1_565 S
O145 C159 1.257 . S
O146 Tb128 2.349 1_565 S
O146 C130 1.261 . S
O147 Tb129 2.303 1_565 S
O147 C130 1.257 . S
C148 O138 1.236 . S
C148 O139 1.257 . S
O149 Tb128 2.415 . S
O149 C137 1.239 . S
O150 Tb128 2.399 . S
O150 C137 1.263 . S
C151 O140 1.261 . S
C151 O141 1.257 . S
C152 C155 1.358 . S
C152 C156 1.332 . S
C152 C158 1.504 . S
C153 C154 1.373 . S
C153 C157 1.308 . S
C154 C153 1.373 . S
C154 C155 1.429 . S
C154 H164 0.932 . S
C155 C152 1.358 . S
C155 C154 1.429 . S
C155 H165 0.930 . S
C156 C152 1.332 . S
C156 C157 1.394 . S
C156 H166 0.932 . S
C157 C153 1.308 . S
C157 C156 1.394 . S
C157 H167 0.929 . S
C158 Tb129 2.764 1_566 S
C158 O142 1.239 . S
C158 O143 1.263 . S
C158 C152 1.504 . S
C159 O144 1.236 . S
C159 O145 1.257 . S
H160 C133 0.932 . S
H161 C134 0.930 . S
H162 C135 0.932 . S
H163 C136 0.929 . S
H164 C154 0.932 . S
H165 C155 0.930 . S
H166 C156 0.932 . S
H167 C157 0.929 . S
Tb168 C177 2.764 . S
Tb168 O178 2.325 . S
Tb168 O181 2.303 . S
Tb168 O185 2.322 . S
Tb168 O186 2.349 . S
Tb168 O189 2.415 . S
Tb168 O190 2.399 . S
Tb169 O179 2.322 . S
Tb169 O180 2.349 . S
Tb169 O182 2.415 . S
Tb169 O183 2.399 . S
Tb169 O184 2.325 . S
Tb169 O187 2.303 . S
Tb169 C198 2.764 . S
C170 O186 1.261 . S
C170 O187 1.257 . S
C171 C174 1.358 . S
C171 C175 1.332 . S
C171 C177 1.504 . S
C172 C173 1.373 . S
C172 C176 1.308 . S
C173 C172 1.373 . S
C173 C174 1.429 . S
C173 H200 0.932 . S
C174 C171 1.358 . S
C174 C173 1.429 . S
C174 H201 0.930 . S
C175 C171 1.332 . S
C175 C176 1.394 . S
C175 H202 0.932 . S
C176 C172 1.308 . S
C176 C175 1.394 . S
C176 H203 0.929 . S
C177 Tb168 2.764 . S
C177 C171 1.504 . S
C177 O189 1.239 . S
C177 O190 1.263 . S
O178 Tb168 2.325 . S
O178 C188 1.236 . S
O179 Tb169 2.322 . S
O179 C188 1.257 . S
O180 Tb169 2.349 . S
O180 C191 1.261 . S
O181 Tb168 2.303 . S
O181 C191 1.257 . S
O182 Tb169 2.415 . S
O182 C198 1.239 . S
O183 Tb169 2.399 . S
O183 C198 1.263 . S
O184 Tb169 2.325 . S
O184 C199 1.236 . S
O185 Tb168 2.322 . S
O185 C199 1.257 . S
O186 Tb168 2.349 . S
O186 C170 1.261 . S
O187 Tb169 2.303 . S
O187 C170 1.257 . S
C188 O178 1.236 . S
C188 O179 1.257 . S
O189 Tb168 2.415 . S
O189 C177 1.239 . S
O190 Tb168 2.399 . S
O190 C177 1.263 . S
C191 O180 1.261 . S
C191 O181 1.257 . S
C192 C195 1.358 . S
C192 C196 1.332 . S
C192 C198 1.504 . S
C193 C194 1.373 . S
C193 C197 1.308 . S
C194 C193 1.373 . S
C194 C195 1.429 . S
C194 H204 0.932 . S
C195 C192 1.358 . S
C195 C194 1.429 . S
C195 H205 0.930 . S
C196 C192 1.332 . S
C196 C197 1.394 . S
C196 H206 0.932 . S
C197 C193 1.308 . S
C197 C196 1.394 . S
C197 H207 0.929 . S
C198 Tb169 2.764 . S
C198 O182 1.239 . S
C198 O183 1.263 . S
C198 C192 1.504 . S
C199 O184 1.236 . S
C199 O185 1.257 . S
H200 C173 0.932 . S
H201 C174 0.930 . S
H202 C175 0.932 . S
H203 C176 0.929 . S
H204 C194 0.932 . S
H205 C195 0.930 . S
H206 C196 0.932 . S
H207 C197 0.929 . S
Tb208 C217 2.764 1_455 S
Tb208 O218 2.325 1_455 S
Tb208 O221 2.303 1_556 S
Tb208 O225 2.322 1_556 S
Tb208 O226 2.349 . S
Tb208 O229 2.415 1_455 S
Tb208 O230 2.399 . S
Tb209 O219 2.322 1_455 S
Tb209 O220 2.349 . S
Tb209 O222 2.415 . S
Tb209 O223 2.399 . S
Tb209 O224 2.325 . S
Tb209 O227 2.303 1_554 S
Tb209 C238 2.764 . S
C210 O226 1.261 . S
C210 O227 1.257 . S
C211 C214 1.358 . S
C211 C215 1.332 . S
C211 C217 1.504 . S
C212 C213 1.373 . S
C212 C216 1.308 . S
C213 C212 1.373 . S
C213 C214 1.429 . S
C213 H240 0.932 . S
C214 C211 1.358 . S
C214 C213 1.429 . S
C214 H241 0.930 . S
C215 C211 1.332 . S
C215 C216 1.394 . S
C215 H242 0.932 . S
C216 C212 1.308 . S
C216 C215 1.394 . S
C216 H243 0.929 . S
C217 Tb208 2.764 1_655 S
C217 C211 1.504 . S
C217 O229 1.239 . S
C217 O230 1.263 1_655 S
O218 Tb208 2.325 1_655 S
O218 C228 1.236 . S
O219 Tb209 2.322 1_655 S
O219 C228 1.257 1_554 S
O220 Tb209 2.349 . S
O220 C231 1.261 . S
O221 Tb208 2.303 1_554 S
O221 C231 1.257 . S
O222 Tb209 2.415 . S
O222 C238 1.239 . S
O223 Tb209 2.399 . S
O223 C238 1.263 . S
O224 Tb209 2.325 . S
O224 C239 1.236 . S
O225 Tb208 2.322 1_554 S
O225 C239 1.257 . S
O226 Tb208 2.349 . S
O226 C210 1.261 . S
O227 Tb209 2.303 1_556 S
O227 C210 1.257 . S
C228 O218 1.236 . S
C228 O219 1.257 1_556 S
O229 Tb208 2.415 1_655 S
O229 C217 1.239 . S
O230 Tb208 2.399 . S
O230 C217 1.263 1_455 S
C231 O220 1.261 . S
C231 O221 1.257 . S
C232 C235 1.358 . S
C232 C236 1.332 . S
C232 C238 1.504 . S
C233 C234 1.373 . S
C233 C237 1.308 . S
C234 C233 1.373 . S
C234 C235 1.429 . S
C234 H244 0.932 . S
C235 C232 1.358 . S
C235 C234 1.429 . S
C235 H245 0.930 . S
C236 C232 1.332 . S
C236 C237 1.394 . S
C236 H246 0.932 . S
C237 C233 1.308 . S
C237 C236 1.394 . S
C237 H247 0.929 . S
C238 Tb209 2.764 . S
C238 O222 1.239 . S
C238 O223 1.263 . S
C238 C232 1.504 . S
C239 O224 1.236 . S
C239 O225 1.257 . S
H240 C213 0.932 . S
H241 C214 0.930 . S
H242 C215 0.932 . S
H243 C216 0.929 . S
H244 C234 0.932 . S
H245 C235 0.930 . S
H246 C236 0.932 . S
H247 C237 0.929 . S
C248 C249 1.369 . S
C248 C250 1.419 . S
C248 H252 0.930 . S
C249 C248 1.369 . S
C249 C258 1.429 . S
C250 C248 1.419 . S
C250 C251 1.363 . S
C250 H253 0.929 . S
C251 C250 1.363 . S
C251 C257 1.428 . S
H252 C248 0.930 . S
H253 C250 0.929 . S
S254 N255 1.613 . S
S254 N256 1.610 . S
N255 S254 1.613 . S
N255 C258 1.350 . S
N256 S254 1.610 . S
N256 C257 1.351 . S
C257 C251 1.428 . S
C257 N256 1.351 . S
C257 C258 1.434 . S
C258 C249 1.429 . S
C258 N255 1.350 . S
C258 C257 1.434 . S
C259 C260 1.369 . S
C259 C261 1.419 . S
C259 H263 0.930 . S
C260 C259 1.369 . S
C260 C269 1.429 . S
C261 C259 1.419 . S
C261 C262 1.363 . S
C261 H264 0.929 . S
C262 C261 1.363 . S
C262 C268 1.428 . S
H263 C259 0.930 . S
H264 C261 0.929 . S
S265 N266 1.613 . S
S265 N267 1.610 . S
N266 S265 1.613 . S
N266 C269 1.350 . S
N267 S265 1.610 . S
N267 C268 1.351 . S
C268 C262 1.428 . S
C268 N267 1.351 . S
C268 C269 1.434 . S
C269 C260 1.429 . S
C269 N266 1.350 . S
C269 C268 1.434 . S
C270 C271 1.369 . S
C270 C272 1.419 . S
C270 H274 0.930 . S
C271 C270 1.369 . S
C271 C280 1.429 . S
C272 C270 1.419 . S
C272 C273 1.363 . S
C272 H275 0.929 . S
C273 C272 1.363 . S
C273 C279 1.428 . S
H274 C270 0.930 . S
H275 C272 0.929 . S
S276 N277 1.613 . S
S276 N278 1.610 . S
N277 S276 1.613 . S
N277 C280 1.350 . S
N278 S276 1.610 . S
N278 C279 1.351 . S
C279 C273 1.428 . S
C279 N278 1.351 . S
C279 C280 1.434 . S
C280 C271 1.429 . S
C280 N277 1.350 . S
C280 C279 1.434 . S
C281 C282 1.369 . S
C281 C283 1.419 . S
C281 H285 0.930 . S
C282 C281 1.369 . S
C282 C291 1.429 . S
C283 C281 1.419 . S
C283 C284 1.363 . S
C283 H286 0.929 1_655 S
C284 C283 1.363 . S
C284 C290 1.428 . S
H285 C281 0.930 . S
H286 C283 0.929 1_455 S
S287 N288 1.613 . S
S287 N289 1.610 . S
N288 S287 1.613 . S
N288 C291 1.350 . S
N289 S287 1.610 . S
N289 C290 1.351 . S
C290 C284 1.428 . S
C290 N289 1.351 . S
C290 C291 1.434 . S
C291 C282 1.429 . S
C291 N288 1.350 . S
C291 C290 1.434 . S
C292 C293 1.369 . S
C292 C294 1.419 . S
C292 H296 0.930 . S
C293 C292 1.369 . S
C293 C302 1.429 . S
C294 C292 1.419 . S
C294 C295 1.363 . S
C294 H297 0.929 . S
C295 C294 1.363 . S
C295 C301 1.428 . S
H296 C292 0.930 . S
H297 C294 0.929 . S
S298 N299 1.613 . S
S298 N300 1.610 . S
N299 S298 1.613 . S
N299 C302 1.350 . S
N300 S298 1.610 . S
N300 C301 1.351 . S
C301 C295 1.428 . S
C301 N300 1.351 . S
C301 C302 1.434 . S
C302 C293 1.429 . S
C302 N299 1.350 . S
C302 C301 1.434 . S
C303 C304 1.369 . S
C303 C305 1.419 . S
C303 H307 0.930 . S
C304 C303 1.369 . S
C304 C313 1.429 1_455 S
C305 C303 1.419 . S
C305 C306 1.363 . S
C305 H308 0.929 . S
C306 C305 1.363 . S
C306 C312 1.428 . S
H307 C303 0.930 . S
H308 C305 0.929 . S
S309 N310 1.613 . S
S309 N311 1.610 . S
N310 S309 1.613 . S
N310 C313 1.350 . S
N311 S309 1.610 . S
N311 C312 1.351 1_655 S
C312 C306 1.428 . S
C312 N311 1.351 1_455 S
C312 C313 1.434 1_455 S
C313 C304 1.429 1_655 S
C313 N310 1.350 . S
C313 C312 1.434 1_655 S
C314 C315 1.369 . S
C314 C316 1.419 . S
C314 H318 0.930 . S
C315 C314 1.369 . S
C315 C324 1.429 . S
C316 C314 1.419 . S
C316 C317 1.363 . S
C316 H319 0.929 . S
C317 C316 1.363 . S
C317 C323 1.428 . S
H318 C314 0.930 . S
H319 C316 0.929 . S
S320 N321 1.613 . S
S320 N322 1.610 . S
N321 S320 1.613 . S
N321 C324 1.350 . S
N322 S320 1.610 . S
N322 C323 1.351 . S
C323 C317 1.428 . S
C323 N322 1.351 . S
C323 C324 1.434 . S
C324 C315 1.429 . S
C324 N321 1.350 . S
C324 C323 1.434 . S
C325 C326 1.369 . S
C325 C327 1.419 . S
C325 H329 0.930 . S
C326 C325 1.369 . S
C326 C335 1.429 . S
C327 C325 1.419 . S
C327 C328 1.363 . S
C327 H330 0.929 . S
C328 C327 1.363 . S
C328 C334 1.428 . S
H329 C325 0.930 . S
H330 C327 0.929 . S
S331 N332 1.613 . S
S331 N333 1.610 . S
N332 S331 1.613 . S
N332 C335 1.350 . S
N333 S331 1.610 . S
N333 C334 1.351 . S
C334 C328 1.428 . S
C334 N333 1.351 . S
C334 C335 1.434 . S
C335 C326 1.429 . S
C335 N332 1.350 . S
C335 C334 1.434 . S
C336 C337 1.369 . S
C336 C338 1.419 . S
C336 H340 0.930 . S
C337 C336 1.369 . S
C337 C346 1.429 . S
C338 C336 1.419 . S
C338 C339 1.363 . S
C338 H341 0.929 . S
C339 C338 1.363 . S
C339 C345 1.428 . S
H340 C336 0.930 . S
H341 C338 0.929 . S
S342 N343 1.613 . S
S342 N344 1.610 . S
N343 S342 1.613 . S
N343 C346 1.350 . S
N344 S342 1.610 . S
N344 C345 1.351 . S
C345 C339 1.428 . S
C345 N344 1.351 . S
C345 C346 1.434 . S
C346 C337 1.429 . S
C346 N343 1.350 . S
C346 C345 1.434 . S
C347 C348 1.365 1_554 S
C347 C349 1.420 . S
C347 H351 0.933 . S
C348 C347 1.365 1_556 S
C348 C357 1.429 . S
C349 C347 1.420 . S
C349 C350 1.363 1_554 S
C349 H352 0.929 . S
C350 C349 1.363 1_556 S
C350 C356 1.428 . S
H351 C347 0.933 . S
H352 C349 0.929 . S
S353 N354 1.613 . S
S353 N355 1.610 . S
N354 S353 1.613 . S
N354 C357 1.350 . S
N355 S353 1.610 . S
N355 C356 1.351 . S
C356 C350 1.428 . S
C356 N355 1.351 . S
C356 C357 1.434 . S
C357 C348 1.429 . S
C357 N354 1.350 . S
C357 C356 1.434 . S
C358 C359 1.369 . S
C358 C360 1.419 . S
C358 H362 0.930 . S
C359 C358 1.369 . S
C359 C368 1.429 . S
C360 C358 1.419 . S
C360 C361 1.363 . S
C360 H363 0.929 . S
C361 C360 1.363 . S
C361 C367 1.428 . S
H362 C358 0.930 . S
H363 C360 0.929 . S
S364 N365 1.613 . S
S364 N366 1.610 . S
N365 S364 1.613 . S
N365 C368 1.350 . S
N366 S364 1.610 . S
N366 C367 1.351 . S
C367 C361 1.428 . S
C367 N366 1.351 . S
C367 C368 1.434 . S
C368 C359 1.429 . S
C368 N365 1.350 . S
C368 C367 1.434 . S
C369 C370 1.369 . S
C369 C371 1.419 . S
C369 H373 0.930 . S
C370 C369 1.369 . S
C370 C379 1.429 . S
C371 C369 1.419 . S
C371 C372 1.363 . S
C371 H374 0.929 . S
C372 C371 1.363 . S
C372 C378 1.428 . S
H373 C369 0.930 . S
H374 C371 0.929 . S
S375 N376 1.613 . S
S375 N377 1.610 . S
N376 S375 1.613 . S
N376 C379 1.350 . S
N377 S375 1.610 . S
N377 C378 1.351 . S
C378 C372 1.428 . S
C378 N377 1.351 . S
C378 C379 1.434 . S
C379 C370 1.429 . S
C379 N376 1.350 . S
C379 C378 1.434 . S
C380 C381 1.369 . S
C380 C382 1.419 . S
C380 H384 0.930 . S
C381 C380 1.369 . S
C381 C390 1.429 . S
C382 C380 1.419 . S
C382 C383 1.363 . S
C382 H385 0.929 . S
C383 C382 1.363 . S
C383 C389 1.428 . S
H384 C380 0.930 . S
H385 C382 0.929 . S
S386 N387 1.613 . S
S386 N388 1.610 . S
N387 S386 1.613 . S
N387 C390 1.350 . S
N388 S386 1.610 . S
N388 C389 1.351 . S
C389 C383 1.428 . S
C389 N388 1.351 . S
C389 C390 1.434 . S
C390 C381 1.429 . S
C390 N387 1.350 . S
C390 C389 1.434 . S
C391 C392 1.369 . S
C391 C393 1.419 . S
C391 H395 0.930 . S
C392 C391 1.369 . S
C392 C401 1.429 . S
C393 C391 1.419 . S
C393 C394 1.363 . S
C393 H396 0.929 . S
C394 C393 1.363 . S
C394 C400 1.428 . S
H395 C391 0.930 . S
H396 C393 0.929 . S
S397 N398 1.613 . S
S397 N399 1.610 . S
N398 S397 1.613 . S
N398 C401 1.350 . S
N399 S397 1.610 . S
N399 C400 1.351 . S
C400 C394 1.428 . S
C400 N399 1.351 . S
C400 C401 1.434 . S
C401 C392 1.429 . S
C401 N398 1.350 . S
C401 C400 1.434 . S
C402 C403 1.369 . S
C402 C404 1.419 . S
C402 H406 0.930 . S
C403 C402 1.369 . S
C403 C412 1.429 . S
C404 C402 1.419 . S
C404 C405 1.363 . S
C404 H407 0.929 . S
C405 C404 1.363 . S
C405 C411 1.428 . S
H406 C402 0.930 . S
H407 C404 0.929 . S
S408 N409 1.613 . S
S408 N410 1.610 . S
N409 S408 1.613 . S
N409 C412 1.350 . S
N410 S408 1.610 . S
N410 C411 1.351 . S
C411 C405 1.428 . S
C411 N410 1.351 . S
C411 C412 1.434 . S
C412 C403 1.429 . S
C412 N409 1.350 . S
C412 C411 1.434 . S
C413 C414 1.369 . S
C413 C415 1.419 . S
C413 H417 0.930 . S
C414 C413 1.369 . S
C414 C423 1.429 . S
C415 C413 1.419 . S
C415 C416 1.363 . S
C415 H418 0.929 . S
C416 C415 1.363 . S
C416 C422 1.428 . S
H417 C413 0.930 . S
H418 C415 0.929 . S
S419 N420 1.613 . S
S419 N421 1.610 . S
N420 S419 1.613 . S
N420 C423 1.350 . S
N421 S419 1.610 . S
N421 C422 1.351 . S
C422 C416 1.428 . S
C422 N421 1.351 . S
C422 C423 1.434 . S
C423 C414 1.429 . S
C423 N420 1.350 . S
C423 C422 1.434 . S
C424 C425 1.369 . S
C424 C426 1.419 1_556 S
C424 H428 0.930 1_556 S
C425 C424 1.369 . S
C425 C434 1.429 . S
C426 C424 1.419 1_554 S
C426 C427 1.363 1_554 S
C426 H429 0.929 . S
C427 C426 1.363 1_556 S
C427 C433 1.428 . S
H428 C424 0.930 1_554 S
H429 C426 0.929 . S
S430 N431 1.613 . S
S430 N432 1.610 . S
N431 S430 1.613 . S
N431 C434 1.350 . S
N432 S430 1.610 . S
N432 C433 1.351 . S
C433 C427 1.428 . S
C433 N432 1.351 . S
C433 C434 1.434 . S
C434 C425 1.429 . S
C434 N431 1.350 . S
C434 C433 1.434 . S
C435 C436 1.369 . S
C435 C437 1.419 . S
C435 H439 0.930 . S
C436 C435 1.369 . S
C436 C445 1.429 . S
C437 C435 1.419 . S
C437 C438 1.363 . S
C437 H440 0.933 . S
C438 C437 1.363 . S
C438 C444 1.428 . S
H439 C435 0.930 . S
H440 C437 0.933 . S
S441 N442 1.613 . S
S441 N443 1.610 . S
N442 S441 1.613 . S
N442 C445 1.350 . S
N443 S441 1.610 . S
N443 C444 1.351 . S
C444 C438 1.428 . S
C444 N443 1.351 . S
C444 C445 1.434 . S
C445 C436 1.429 . S
C445 N442 1.350 . S
C445 C444 1.434 . S
C446 C447 1.369 . S
C446 C448 1.419 . S
C446 H450 0.930 . S
C447 C446 1.369 . S
C447 C456 1.429 . S
C448 C446 1.419 . S
C448 C449 1.363 . S
C448 H451 0.929 . S
C449 C448 1.363 . S
C449 C455 1.428 . S
H450 C446 0.930 . S
H451 C448 0.929 . S
S452 N453 1.613 . S
S452 N454 1.610 . S
N453 S452 1.613 . S
N453 C456 1.350 . S
N454 S452 1.610 . S
N454 C455 1.351 . S
C455 C449 1.428 . S
C455 N454 1.351 . S
C455 C456 1.434 . S
C456 C447 1.429 . S
C456 N453 1.350 . S
C456 C455 1.434 . S
C457 C458 1.369 . S
C457 C459 1.419 . S
C457 H461 0.930 . S
C458 C457 1.369 . S
C458 C467 1.429 . S
C459 C457 1.419 . S
C459 C460 1.363 . S
C459 H462 0.929 . S
C460 C459 1.363 . S
C460 C466 1.428 . S
H461 C457 0.930 . S
H462 C459 0.929 . S
S463 N464 1.613 . S
S463 N465 1.610 . S
N464 S463 1.613 . S
N464 C467 1.350 . S
N465 S463 1.610 . S
N465 C466 1.351 . S
C466 C460 1.428 . S
C466 N465 1.351 . S
C466 C467 1.434 . S
C467 C458 1.429 . S
C467 N464 1.350 . S
C467 C466 1.434 . S
C468 C469 1.369 . S
C468 C470 1.419 . S
C468 H472 0.930 . S
C469 C468 1.369 . S
C469 C478 1.429 . S
C470 C468 1.419 . S
C470 C471 1.363 . S
C470 H473 0.929 . S
C471 C470 1.363 . S
C471 C477 1.428 . S
H472 C468 0.930 . S
H473 C470 0.929 . S
S474 N475 1.613 . S
S474 N476 1.610 . S
N475 S474 1.613 . S
N475 C478 1.350 . S
N476 S474 1.610 . S
N476 C477 1.351 . S
C477 C471 1.428 . S
C477 N476 1.351 . S
C477 C478 1.434 . S
C478 C469 1.429 . S
C478 N475 1.350 . S
C478 C477 1.434 . S
C479 C480 1.369 . S
C479 C481 1.419 . S
C479 H483 0.930 . S
C480 C479 1.369 . S
C480 C489 1.429 . S
C481 C479 1.419 . S
C481 C482 1.363 . S
C481 H484 0.929 . S
C482 C481 1.363 . S
C482 C488 1.428 . S
H483 C479 0.930 . S
H484 C481 0.929 . S
S485 N486 1.613 . S
S485 N487 1.610 . S
N486 S485 1.613 . S
N486 C489 1.350 . S
N487 S485 1.610 . S
N487 C488 1.351 . S
C488 C482 1.428 . S
C488 N487 1.351 . S
C488 C489 1.434 . S
C489 C480 1.429 . S
C489 N486 1.350 . S
C489 C488 1.434 . S
C490 C491 1.369 . S
C490 C492 1.419 . S
C490 H494 0.930 . S
C491 C490 1.369 . S
C491 C500 1.429 . S
C492 C490 1.419 . S
C492 C493 1.363 . S
C492 H495 0.929 . S
C493 C492 1.363 . S
C493 C499 1.428 . S
H494 C490 0.930 . S
H495 C492 0.929 . S
S496 N497 1.613 1_655 S
S496 N498 1.610 1_655 S
N497 S496 1.613 1_455 S
N497 C500 1.350 . S
N498 S496 1.610 1_455 S
N498 C499 1.351 . S
C499 C493 1.428 . S
C499 N498 1.351 . S
C499 C500 1.434 . S
C500 C491 1.429 . S
C500 N497 1.350 . S
C500 C499 1.434 . S
C501 C502 1.369 . S
C501 C503 1.419 . S
C501 H505 0.930 . S
C502 C501 1.369 . S
C502 C511 1.429 . S
C503 C501 1.419 . S
C503 C504 1.363 . S
C503 H506 0.929 . S
C504 C503 1.363 . S
C504 C510 1.428 . S
H505 C501 0.930 . S
H506 C503 0.929 . S
S507 N508 1.613 . S
S507 N509 1.610 . S
N508 S507 1.613 . S
N508 C511 1.350 . S
N509 S507 1.610 . S
N509 C510 1.351 . S
C510 C504 1.428 . S
C510 N509 1.351 . S
C510 C511 1.434 . S
C511 C502 1.429 . S
C511 N508 1.350 . S
C511 C510 1.434 . S
C249 C4 0.994 . S
C251 C92 1.011 . S
C260 C16 1.244 . S
C262 C153 1.277 . S
C273 C191 2.245 . S
C271 C32 2.273 . S
C282 C43 2.381 . S
C284 C231 2.328 1_655 S
C295 C151 1.739 . S
C293 C5 1.657 . S
C306 C119 1.741 . S
C304 C21 1.598 . S
C317 C228 1.831 . S
C315 C27 1.846 . S
C328 C188 1.842 . S
C326 C37 1.887 . S
C337 C10 1.195 . S
C339 C233 1.204 . S
C350 C148 2.586 1_556 S
C348 C26 2.583 . S
C359 C38 2.028 . S
C361 C90 1.999 . S
C370 C15 1.610 . S
C372 C193 1.680 . S
C383 C113 1.070 . S
C381 C48 1.041 . S
C392 C59 1.115 . S
C394 C132 1.123 . S
C403 C76 2.535 . S
C405 C170 2.466 . S
C414 C87 2.189 . S
C416 C210 2.188 . S
C425 C54 1.128 . S
C427 C130 1.220 1_556 S
C438 C108 2.239 . S
C436 C60 2.125 . S
C449 C239 1.751 . S
C447 C71 1.766 . S
C460 C199 1.935 . S
C458 C82 1.945 . S
C469 C49 1.494 . S
C471 C212 1.591 . S
C482 C159 2.108 . S
C480 C70 2.114 . S
C493 C111 2.402 . S
C491 C81 2.454 . S
C502 C65 1.352 . S
C504 C172 1.401 . S
