# Generated by pormake.
# Topology rtl, (3,6)-cn, num edge types: 1
# Building blocks:
#     Node 0, Type 0, BuildingBlock: BETDIP_clean_linker_0, # of connection points: 3
#     Node 1, Type 0, BuildingBlock: BETDIP_clean_linker_0, # of connection points: 3
#     Node 2, Type 0, BuildingBlock: BETDIP_clean_linker_0, # of connection points: 3
#     Node 3, Type 0, BuildingBlock: BETDIP_clean_linker_0, # of connection points: 3
#     Node 4, Type 1, BuildingBlock: KUMJIN_clean_sbu_1, # of connection points: 6
#     Node 5, Type 1, BuildingBlock: KUMJIN_clean_sbu_1, # of connection points: 6
#     Edge 6, Type (0, 1), BuildingBlock: UVAHIK_clean_linker_0, # of connection points: 2
#     Edge 7, Type (0, 1), BuildingBlock: UVAHIK_clean_linker_0, # of connection points: 2
#     Edge 8, Type (0, 1), BuildingBlock: UVAHIK_clean_linker_0, # of connection points: 2
#     Edge 9, Type (0, 1), BuildingBlock: UVAHIK_clean_linker_0, # of connection points: 2
#     Edge 10, Type (0, 1), BuildingBlock: UVAHIK_clean_linker_0, # of connection points: 2
#     Edge 11, Type (0, 1), BuildingBlock: UVAHIK_clean_linker_0, # of connection points: 2
#     Edge 12, Type (0, 1), BuildingBlock: UVAHIK_clean_linker_0, # of connection points: 2
#     Edge 13, Type (0, 1), BuildingBlock: UVAHIK_clean_linker_0, # of connection points: 2
#     Edge 14, Type (0, 1), BuildingBlock: UVAHIK_clean_linker_0, # of connection points: 2
#     Edge 15, Type (0, 1), BuildingBlock: UVAHIK_clean_linker_0, # of connection points: 2
#     Edge 16, Type (0, 1), BuildingBlock: UVAHIK_clean_linker_0, # of connection points: 2
#     Edge 17, Type (0, 1), BuildingBlock: UVAHIK_clean_linker_0, # of connection points: 2
# Relax obj value: 0.051
# Max RMSD: 0.207
# Mean RMSD: 0.154
data_MOF--net-rtl--node1-KUMJIN_clean_sbu_1--node2-BETDIP_clean_linker_0--edge1-UVAHIK_clean_linker_0
_symmetry_space_group_name_H-M    P1
_symmetry_Int_Tables_number       1
_symmetry_cell_setting            triclinic
loop_
_symmetry_equiv_pos_as_xyz
'x, y, z'
_cell_length_a     45.531617
_cell_length_b     45.486629
_cell_length_c     34.237218
_cell_angle_alpha  80.74827
_cell_angle_beta   100.18691
_cell_angle_gamma 91.136982
loop_
_atom_site_label
_atom_site_type_symbol
_atom_site_fract_x
_atom_site_fract_y
_atom_site_fract_z
_atom_type_partial_charge
H0 H 0.2306 0.83773 0.95659 0.0
H1 H 0.23705 0.82275 0.08529 0.0
H2 H 0.17416 0.8868 0.01184 0.0
H3 H 0.27941 0.79888 0.08572 0.0
C4 C 0.27801 0.79135 0.05695 0.0
C5 C 0.22355 0.84299 0.98333 0.0
C6 C 0.20104 0.86434 0.97975 0.0
C7 C 0.23717 0.82825 0.02109 0.0
C8 C 0.22773 0.83467 0.05591 0.0
C9 C 0.20482 0.85568 0.0526 0.0
C10 C 0.19191 0.87066 0.01451 0.0
N11 N 0.259 0.8061 0.02219 0.0
H12 H 0.70455 0.71743 0.68679 0.0
H13 H 0.70519 0.71256 0.56226 0.0
H14 H 0.6582 0.6471 0.63151 0.0
H15 H 0.71146 0.76182 0.5583 0.0
C16 C 0.72724 0.76363 0.58557 0.0
C17 C 0.69773 0.70662 0.66069 0.0
C18 C 0.68067 0.68046 0.66379 0.0
C19 C 0.70628 0.71879 0.62401 0.0
C20 C 0.69781 0.70432 0.59032 0.0
C21 C 0.6806 0.67839 0.59291 0.0
C22 C 0.67215 0.6667 0.62968 0.0
N23 N 0.72433 0.74478 0.62213 0.0
H24 H 0.78189 0.19587 0.96391 0.0
H25 H 0.78035 0.17996 0.09082 0.0
H26 H 0.84003 0.1296 0.04337 0.0
H27 H 0.73258 0.19436 0.07039 0.0
C28 C 0.73385 0.21271 0.04618 0.0
C29 C 0.78977 0.18339 0.99353 0.0
C30 C 0.81288 0.16213 0.99938 0.0
C31 C 0.77706 0.18924 0.02602 0.0
C32 C 0.78853 0.17455 0.06501 0.0
C33 C 0.81115 0.15303 0.07118 0.0
C34 C 0.82266 0.14643 0.03827 0.0
N35 N 0.75384 0.21095 0.01903 0.0
H36 H 0.32405 0.2941 0.3887 0.0
H37 H 0.32033 0.30316 0.5111 0.0
H38 H 0.38231 0.35501 0.44841 0.0
H39 H 0.30311 0.25775 0.51502 0.0
C40 C 0.2898 0.25605 0.48589 0.0
C41 C 0.33201 0.30416 0.41521 0.0
C42 C 0.35483 0.32543 0.41464 0.0
C43 C 0.32001 0.29514 0.45027 0.0
C44 C 0.33003 0.30888 0.48429 0.0
C45 C 0.35269 0.33029 0.48406 0.0
C46 C 0.36516 0.33814 0.4492 0.0
N47 N 0.29772 0.27262 0.45032 0.0
Eu48 Eu 0.0279 0.97884 0.50354 0.0
C49 C 0.9487 0.0902 0.47691 0.0
N50 N 0.9764 0.08619 0.49977 0.0
C51 C 0.99127 0.13422 0.47006 0.0
C52 C 0.94146 0.11645 0.4489 0.0
C53 C 0.99755 0.10774 0.49716 0.0
C54 C 0.96315 0.13857 0.44573 0.0
C55 C 0.89924 0.07092 0.4565 0.0
C56 C 0.92793 0.06745 0.4805 0.0
C57 C 0.89215 0.09683 0.42813 0.0
C58 C 0.91316 0.11955 0.42442 0.0
Eu59 Eu 0.98501 0.04093 0.54451 0.0
N60 N 0.9355 0.04229 0.50783 0.0
C61 C 0.87824 0.04852 0.46234 0.0
C62 C 0.91411 0.02198 0.51627 0.0
C63 C 0.88552 0.02426 0.49294 0.0
H64 H 0.0192 0.10452 0.5162 0.0
H65 H 0.86892 0.00764 0.4992 0.0
H66 H 0.98567 0.91763 0.50239 0.0
H67 H 0.13948 0.99419 0.58819 0.0
H68 H 0.91841 0.00452 0.5418 0.0
H69 H 0.85598 0.05034 0.44452 0.0
H70 H 0.09416 0.00897 0.5387 0.0
H71 H 0.00812 0.15124 0.46791 0.0
H72 H 0.87033 0.09968 0.40922 0.0
H73 H 0.90731 0.13942 0.40244 0.0
H74 H 0.98762 0.86543 0.53677 0.0
H75 H 0.95844 0.15902 0.42452 0.0
H76 H 0.14496 0.94279 0.62558 0.0
N77 N 0.02814 0.92841 0.53343 0.0
C78 C 0.05308 0.91846 0.5601 0.0
C79 C 0.00612 0.88014 0.54373 0.0
C80 C 0.05523 0.88878 0.58022 0.0
C81 C 0.00494 0.90977 0.52463 0.0
C82 C 0.03132 0.86961 0.57174 0.0
N83 N 0.07304 0.96709 0.54943 0.0
C84 C 0.09571 0.9868 0.55544 0.0
C85 C 0.10205 0.92871 0.59643 0.0
C86 C 0.07623 0.93826 0.56817 0.0
C87 C 0.12481 0.94924 0.60402 0.0
C88 C 0.12173 0.97832 0.58315 0.0
H89 H 0.03213 0.84666 0.5866 0.0
H90 H 0.08293 0.85656 0.62418 0.0
H91 H 0.12388 0.89149 0.63837 0.0
O92 O 0.05755 0.9867 0.45947 0.0
O93 O 0.0273 0.97312 0.57052 0.0
O94 O 0.0266 0.02054 0.5857 0.0
O95 O 0.02999 0.9475 0.4619 0.0
O96 O 0.04531 0.02656 0.49504 0.0
O97 O 0.03441 0.04905 0.54709 0.0
O98 O 0.96172 0.03925 0.59564 0.0
O99 O 0.9897 0.04647 0.47857 0.0
O100 O 0.9857 0.99908 0.46441 0.0
O101 O 0.9839 0.07945 0.57467 0.0
O102 O 0.97082 0.99232 0.55727 0.0
O103 O 0.97826 0.97265 0.50168 0.0
C104 C 0.03337 0.9921 0.59586 0.0
C105 C 0.04151 0.96837 0.39894 0.0
C106 C 0.05385 0.96113 0.33466 0.0
C107 C 0.02916 0.97906 0.31474 0.0
C108 C 0.01697 0.98612 0.37861 0.0
C109 C 0.01082 0.99138 0.33667 0.0
C110 C 0.0598 0.95582 0.37695 0.0
C111 C 0.04987 0.04723 0.51846 0.0
C112 C 0.04875 0.96339 0.44299 0.0
C113 C 0.08093 0.87925 0.60837 0.0
C114 C 0.10425 0.89915 0.61645 0.0
C115 C 0.98048 0.0277 0.45384 0.0
C116 C 0.98272 0.06905 0.64372 0.0
C117 C 0.97609 0.08074 0.70886 0.0
C118 C 0.00726 0.07827 0.72172 0.0
C119 C 0.01362 0.06659 0.65723 0.0
C120 C 0.96404 0.07573 0.66964 0.0
C121 C 0.02576 0.071 0.69616 0.0
C122 C 0.96511 0.97233 0.53301 0.0
C123 C 0.96987 0.06588 0.60216 0.0
H124 H 0.02386 0.98327 0.28221 0.0
H125 H 1.00274 0.99598 0.39515 0.0
H126 H 0.99181 0.00509 0.32114 0.0
H127 H 0.07898 0.9424 0.39279 0.0
H128 H 0.01754 0.08257 0.75123 0.0
H129 H 0.02834 0.06178 0.63744 0.0
H130 H 0.94016 0.07711 0.65901 0.0
H131 H 0.04966 0.0693 0.70633 0.0
Eu132 Eu 0.47819 0.49119 0.99208 0.0
C133 C 0.6006 0.54222 0.0395 0.0
N134 N 0.58864 0.5178 0.05914 0.0
C135 C 0.63283 0.4895 0.06047 0.0
C136 C 0.62862 0.54074 0.02767 0.0
C137 C 0.6052 0.49226 0.07207 0.0
C138 C 0.64433 0.51366 0.03743 0.0
C139 C 0.59824 0.59548 0.01557 0.0
C140 C 0.58568 0.56926 0.03346 0.0
C141 C 0.6254 0.59383 0.00193 0.0
C142 C 0.64052 0.56649 0.00787 0.0
Eu143 Eu 0.54029 0.52423 0.07377 0.0
N144 N 0.55903 0.57002 0.04582 0.0
C145 C 0.5832 0.62259 0.01226 0.0
C146 C 0.54492 0.59646 0.04452 0.0
C147 C 0.55662 0.62312 0.02731 0.0
H148 H 0.5974 0.47401 0.09178 0.0
H149 H 0.54509 0.644 0.02548 0.0
H150 H 0.41378 0.51941 0.00268 0.0
H151 H 0.50918 0.37397 0.00172 0.0
H152 H 0.5243 0.59673 0.05601 0.0
H153 H 0.59211 0.64323 0.99868 0.0
H154 H 0.51138 0.42799 0.97888 0.0
H155 H 0.64545 0.46888 0.06985 0.0
H156 H 0.63516 0.61365 0.98745 0.0
H157 H 0.66182 0.56568 0.9981 0.0
H158 H 0.36801 0.50234 0.02926 0.0
H159 H 0.6659 0.51157 0.02886 0.0
H160 H 0.46969 0.35339 0.03923 0.0
N161 N 0.43382 0.47641 0.01585 0.0
C162 C 0.43072 0.44692 0.02886 0.0
C163 C 0.38556 0.48657 0.02956 0.0
C164 C 0.40525 0.43619 0.04457 0.0
C165 C 0.4114 0.49618 0.0146 0.0
C166 C 0.38264 0.4565 0.04513 0.0
N167 N 0.47602 0.43848 0.00766 0.0
C168 C 0.49508 0.41955 0.99712 0.0
C169 C 0.44986 0.39655 0.03759 0.0
C170 C 0.45278 0.42744 0.02539 0.0
C171 C 0.47111 0.37726 0.03029 0.0
C172 C 0.49346 0.38879 0.00922 0.0
H173 H 0.3627 0.44913 0.05692 0.0
H174 H 0.38382 0.39698 0.0714 0.0
H175 H 0.42288 0.36223 0.06523 0.0
O176 O 0.45875 0.4722 0.9386 0.0
O177 O 0.47041 0.49079 0.0561 0.0
O178 O 0.51686 0.48145 0.09403 0.0
O179 O 0.45482 0.51939 0.93837 0.0
O180 O 0.52619 0.47449 0.00157 0.0
O181 O 0.54412 0.47513 0.06876 0.0
O182 O 0.53016 0.54408 0.12384 0.0
O183 O 0.52815 0.54721 0.00866 0.0
O184 O 0.52171 0.50809 0.97434 0.0
O185 O 0.57387 0.52542 0.12776 0.0
O186 O 0.49368 0.54353 0.06529 0.0
O187 O 0.46969 0.53883 1.00056 0.0
C188 C 0.48781 0.47797 0.08889 0.0
C189 C 0.46148 0.50372 0.87775 0.0
C190 C 0.46048 0.49066 0.811 0.0
C191 C 0.48245 0.5122 0.80447 0.0
C192 C 0.48343 0.52508 0.87057 0.0
C193 C 0.49379 0.52926 0.8341 0.0
C194 C 0.45004 0.48666 0.84784 0.0
C195 C 0.54354 0.46369 0.03567 0.0
C196 C 0.45136 0.498 0.91687 0.0
C197 C 0.403 0.40562 0.05864 0.0
C198 C 0.42529 0.38585 0.05523 0.0
C199 C 0.53171 0.53489 0.97775 0.0
C200 C 0.5553 0.52354 0.18806 0.0
C201 C 0.56547 0.52651 0.25969 0.0
C202 C 0.55247 0.49833 0.26755 0.0
C203 C 0.54263 0.49541 0.19643 0.0
C204 C 0.56678 0.53896 0.21966 0.0
C205 C 0.5412 0.4829 0.23604 0.0
C206 C 0.47321 0.55172 0.03305 0.0
C207 C 0.55597 0.53743 0.14649 0.0
H208 H 0.49069 0.51607 0.7763 0.0
H209 H 0.49272 0.53843 0.89316 0.0
H210 H 0.51072 0.54575 0.82882 0.0
H211 H 0.43351 0.46979 0.85369 0.0
H212 H 0.55135 0.48808 0.29807 0.0
H213 H 0.53379 0.48326 0.17236 0.0
H214 H 0.57625 0.56087 0.21298 0.0
H215 H 0.53132 0.46119 0.24233 0.0
C216 C 0.24883 0.22729 0.44906 0.0
C217 C 0.26382 0.23591 0.48493 0.0
C218 C 0.22465 0.2077 0.44963 0.0
C219 C 0.16658 0.18124 0.50841 0.0
H220 H 0.16541 0.10985 0.45978 0.0
C221 C 0.08544 0.08581 0.5429 0.0
C222 C 0.07369 0.06933 0.51246 0.0
C223 C 0.10782 0.10674 0.53728 0.0
C224 C 0.16502 0.1299 0.47295 0.0
H225 H 0.26531 0.23113 0.5492 0.0
H226 H 0.22287 0.19755 0.55008 0.0
H227 H 0.20528 0.14598 0.45268 0.0
H228 H 0.07605 0.06213 0.45201 0.0
H229 H 0.11443 0.09925 0.44167 0.0
H230 H 0.12626 0.16573 0.52823 0.0
C231 C 0.22974 0.20578 0.52161 0.0
C232 C 0.18796 0.15056 0.46891 0.0
C233 C 0.25409 0.22487 0.52113 0.0
C234 C 0.08479 0.07431 0.47619 0.0
C235 C 0.10694 0.09553 0.47035 0.0
C236 C 0.14346 0.16085 0.512 0.0
C237 C 0.21478 0.19691 0.48594 0.0
C238 C 0.18921 0.17619 0.48717 0.0
C239 C 0.1188 0.11206 0.50083 0.0
C240 C 0.1426 0.13461 0.49492 0.0
H241 H 0.25592 0.23538 0.42072 0.0
H242 H 0.21345 0.20126 0.42168 0.0
H243 H 0.16677 0.20103 0.52234 0.0
H244 H 0.07759 0.08231 0.57136 0.0
H245 H 0.11677 0.11846 0.56184 0.0
C246 C 0.31798 0.75355 0.08731 0.0
C247 C 0.29748 0.76651 0.0537 0.0
C248 C 0.3365 0.73008 0.08457 0.0
C249 C 0.36734 0.69416 0.01059 0.0
H250 H 0.38354 0.62837 0.09891 0.0
C251 C 0.43093 0.58717 1.0006 0.0
C252 C 0.45257 0.57623 0.03424 0.0
C253 C 0.41144 0.61017 0.00226 0.0
C254 C 0.37942 0.6467 0.07413 0.0
H255 H 0.28001 0.76489 0.99083 0.0
H256 H 0.31195 0.72378 0.9862 0.0
H257 H 0.35072 0.66891 0.10343 0.0
H258 H 0.47066 0.58113 0.09598 0.0
H259 H 0.43687 0.62109 0.09864 0.0
H260 H 0.39601 0.6718 0.98128 0.0
C261 C 0.31416 0.73202 0.01454 0.0
C262 C 0.36066 0.66998 0.07675 0.0
C263 C 0.29572 0.75551 0.01728 0.0
C264 C 0.45426 0.58887 0.06947 0.0
C265 C 0.43474 0.6117 0.07115 0.0
C266 C 0.38603 0.67081 0.00792 0.0
C267 C 0.33482 0.71903 0.04812 0.0
C268 C 0.35451 0.69407 0.04511 0.0
C269 C 0.41308 0.62259 0.03764 0.0
C270 C 0.39242 0.64692 0.03977 0.0
H271 H 0.31978 0.76167 0.1157 0.0
H272 H 0.35243 0.72085 0.11089 0.0
H273 H 0.36341 0.71256 0.9859 0.0
H274 H 0.42897 0.57798 0.97298 0.0
H275 H 0.39481 0.61795 0.97603 0.0
C276 C 0.75619 0.79943 0.54487 0.0
C277 C 0.75179 0.78529 0.5829 0.0
C278 C 0.77944 0.81956 0.541 0.0
C279 C 0.85132 0.8439 0.59638 0.0
H280 H 0.83933 0.91138 0.50999 0.0
C281 C 0.9353 0.94119 0.57886 0.0
C282 C 0.94189 0.94985 0.54008 0.0
C283 C 0.91265 0.92071 0.58535 0.0
C284 C 0.84307 0.89252 0.53407 0.0
H285 H 0.76807 0.78134 0.64696 0.0
H286 H 0.80825 0.81731 0.64043 0.0
H287 H 0.79833 0.87742 0.51983 0.0
H288 H 0.92995 0.94393 0.47771 0.0
H289 H 0.8901 0.90843 0.48897 0.0
H290 H 0.89602 0.85972 0.61099 0.0
C291 C 0.79416 0.81232 0.61339 0.0
C292 C 0.8196 0.87293 0.53969 0.0
C293 C 0.771 0.79184 0.61721 0.0
C294 C 0.92548 0.93754 0.50796 0.0
C295 C 0.90255 0.9174 0.51435 0.0
C296 C 0.87471 0.86377 0.59104 0.0
C297 C 0.79871 0.82645 0.57517 0.0
C298 C 0.82346 0.84811 0.57061 0.0
C299 C 0.89582 0.90885 0.55308 0.0
C300 C 0.87091 0.88809 0.55955 0.0
H301 H 0.74181 0.79459 0.51792 0.0
H302 H 0.78251 0.82937 0.51104 0.0
H303 H 0.85535 0.82488 0.62016 0.0
H304 H 0.94765 0.95029 0.6042 0.0
H305 H 0.90784 0.91465 0.61547 0.0
C306 C 0.71236 0.26228 0.00993 0.0
C307 C 0.71495 0.23929 0.04311 0.0
C308 C 0.69445 0.2873 0.00817 0.0
C309 C 0.66255 0.3307 0.07226 0.0
H310 H 0.60477 0.35846 0.97643 0.0
C311 C 0.57223 0.41801 0.07131 0.0
C312 C 0.56396 0.4388 0.03624 0.0
C313 C 0.59131 0.39425 0.07161 0.0
C314 C 0.62111 0.35135 0.00323 0.0
H315 H 0.70107 0.22428 0.10028 0.0
H316 H 0.67011 0.26808 0.09746 0.0
H317 H 0.63739 0.31634 0.97742 0.0
H318 H 0.56949 0.45159 0.97426 0.0
H319 H 0.60342 0.41065 0.97495 0.0
H320 H 0.64676 0.36582 0.098 0.0
C321 C 0.68188 0.26684 0.07289 0.0
C322 C 0.63972 0.32715 0.00377 0.0
C323 C 0.69943 0.24174 0.0744 0.0
C324 C 0.5753 0.43564 0.00159 0.0
C325 C 0.59463 0.41209 0.00198 0.0
C326 C 0.64419 0.35508 0.07159 0.0
C327 C 0.67921 0.28989 0.03979 0.0
C328 C 0.66042 0.31641 0.03843 0.0
C329 C 0.6028 0.39098 0.03695 0.0
C330 C 0.62301 0.36557 0.0372 0.0
H331 H 0.72406 0.26095 0.98534 0.0
H332 H 0.69287 0.30483 0.98238 0.0
H333 H 0.6786 0.32312 0.09921 0.0
H334 H 0.56358 0.41987 0.09834 0.0
H335 H 0.59666 0.37819 0.09888 0.0
C336 C 0.2122 0.86898 0.12207 0.0
C337 C 0.19308 0.86126 0.08842 0.0
C338 C 0.20045 0.8767 0.15424 0.0
C339 C 0.16567 0.91349 0.19907 0.0
H340 H 0.09996 0.86989 0.23864 0.0
C341 C 0.08269 0.96555 0.27806 0.0
C342 C 0.0734 0.94813 0.31137 0.0
C343 C 0.10061 0.9532 0.25559 0.0
C344 C 0.11852 0.88212 0.22829 0.0
H345 H 0.14701 0.85413 0.06264 0.0
H346 H 0.12655 0.86733 0.11874 0.0
H347 H 0.12566 0.84983 0.19169 0.0
H348 H 0.07571 0.90417 0.34739 0.0
H349 H 0.10699 0.88254 0.30796 0.0
H350 H 0.15805 0.94615 0.23493 0.0
C351 C 0.15053 0.86756 0.12037 0.0
C352 C 0.13308 0.87075 0.20121 0.0
C353 C 0.1622 0.86024 0.08813 0.0
C354 C 0.08267 0.91817 0.322 0.0
C355 C 0.10039 0.90575 0.2993 0.0
C356 C 0.15093 0.925 0.2259 0.0
C357 C 0.16946 0.87631 0.15349 0.0
C358 C 0.15645 0.88656 0.18578 0.0
C359 C 0.10944 0.92311 0.26575 0.0
C360 C 0.12688 0.90968 0.24025 0.0
H361 H 0.23609 0.86997 0.12289 0.0
H362 H 0.21555 0.88322 0.17951 0.0
H363 H 0.18347 0.92626 0.18746 0.0
H364 H 0.07615 0.98877 0.2694 0.0
H365 H 0.10695 0.96706 0.22964 0.0
C366 C 0.67299 0.63634 0.71474 0.0
C367 C 0.67093 0.66729 0.70199 0.0
C368 C 0.66007 0.62303 0.74717 0.0
C369 C 0.62821 0.63692 0.8349 0.0
H370 H 0.58306 0.56578 0.81606 0.0
C371 C 0.54752 0.58199 0.93854 0.0
C372 C 0.54798 0.55076 0.94714 0.0
C373 C 0.56344 0.59691 0.91001 0.0
C374 C 0.59586 0.58539 0.82209 0.0
H375 H 0.65501 0.70875 0.71454 0.0
H376 H 0.63226 0.68541 0.7715 0.0
H377 H 0.61029 0.59064 0.76531 0.0
H378 H 0.565 0.51054 0.93245 0.0
H379 H 0.59274 0.53645 0.88265 0.0
H380 H 0.61358 0.63153 0.89184 0.0
C381 C 0.64402 0.67148 0.75639 0.0
C382 C 0.61151 0.59966 0.79296 0.0
C383 C 0.65707 0.68486 0.72383 0.0
C384 C 0.5642 0.53466 0.92629 0.0
C385 C 0.58005 0.54953 0.89774 0.0
C386 C 0.61255 0.62255 0.86419 0.0
C387 C 0.64467 0.6403 0.76768 0.0
C388 C 0.62803 0.62549 0.79906 0.0
C389 C 0.57987 0.58084 0.88922 0.0
C390 C 0.5963 0.59652 0.85816 0.0
H391 H 0.68401 0.62228 0.69892 0.0
H392 H 0.66165 0.59905 0.75571 0.0
H393 H 0.64086 0.65666 0.84062 0.0
H394 H 0.53468 0.59487 0.95366 0.0
H395 H 0.56246 0.62101 0.90377 0.0
C396 C 0.82687 0.10762 0.12191 0.0
C397 C 0.82429 0.13873 0.11228 0.0
C398 C 0.84126 0.09429 0.15994 0.0
C399 C 0.8711 0.1105 0.26326 0.0
H400 H 0.92024 0.04069 0.26903 0.0
C401 C 0.96494 0.06871 0.39639 0.0
C402 C 0.96271 0.03888 0.41404 0.0
C403 C 0.94659 0.07992 0.36013 0.0
C404 C 0.9064 0.06005 0.2678 0.0
H405 H 0.83452 0.18038 0.13441 0.0
H406 H 0.86065 0.15739 0.2002 0.0
H407 H 0.89025 0.06228 0.20494 0.0
H408 H 0.9407 0.9969 0.4067 0.0
H409 H 0.90939 0.01631 0.34218 0.0
H410 H 0.88862 0.10883 0.32601 0.0
C411 C 0.85078 0.14304 0.17916 0.0
C412 C 0.88904 0.07235 0.23119 0.0
C413 C 0.83593 0.1563 0.14139 0.0
C414 C 0.9428 0.02004 0.39381 0.0
C415 C 0.92487 0.0311 0.35707 0.0
C416 C 0.8889 0.0985 0.29967 0.0
C417 C 0.85389 0.11184 0.18887 0.0
C418 C 0.87125 0.09786 0.22834 0.0
C419 C 0.92631 0.06124 0.34031 0.0
C420 C 0.90678 0.07328 0.30214 0.0
H421 H 0.81785 0.09365 0.09991 0.0
H422 H 0.8426 0.07022 0.16651 0.0
H423 H 0.85725 0.12971 0.26257 0.0
H424 H 0.98074 0.08347 0.41077 0.0
H425 H 0.94838 0.10314 0.3474 0.0
C426 C 0.3427 0.35425 0.54177 0.0
C427 C 0.36318 0.34474 0.52001 0.0
C428 C 0.35256 0.36848 0.57495 0.0
C429 C 0.41976 0.38009 0.64933 0.0
H430 H 0.37617 0.44951 0.66138 0.0
C431 C 0.46814 0.46079 0.7579 0.0
C432 C 0.44875 0.47226 0.77957 0.0
C433 C 0.45714 0.44393 0.72787 0.0
C434 C 0.38838 0.42993 0.65878 0.0
H435 H 0.41015 0.34221 0.5166 0.0
H436 H 0.4273 0.36752 0.57395 0.0
H437 H 0.35801 0.42241 0.6061 0.0
H438 H 0.40253 0.4749 0.78666 0.0
H439 H 0.38335 0.4451 0.73455 0.0
H440 H 0.4503 0.38781 0.70179 0.0
C441 C 0.40363 0.36373 0.56564 0.0
C442 C 0.37796 0.41438 0.62707 0.0
C443 C 0.39377 0.34953 0.53246 0.0
C444 C 0.41809 0.46622 0.77073 0.0
C445 C 0.40707 0.4494 0.74059 0.0
C446 C 0.43019 0.39565 0.68101 0.0
C447 C 0.38314 0.37351 0.58719 0.0
C448 C 0.39364 0.38939 0.62179 0.0
C449 C 0.42646 0.43814 0.71871 0.0
C450 C 0.41474 0.42089 0.68595 0.0
H451 H 0.31897 0.35116 0.53275 0.0
H452 H 0.33621 0.37545 0.59112 0.0
H453 H 0.4321 0.36064 0.64655 0.0
H454 H 0.49192 0.46473 0.76429 0.0
H455 H 0.47266 0.43585 0.71134 0.0
C456 C 0.67294 0.63235 0.5609 0.0
C457 C 0.67106 0.66349 0.55727 0.0
C458 C 0.66246 0.61807 0.52801 0.0
C459 C 0.6406 0.63106 0.41689 0.0
H460 H 0.59826 0.55687 0.43686 0.0
C461 C 0.60522 0.55728 0.29414 0.0
C462 C 0.57755 0.54292 0.29311 0.0
C463 C 0.61673 0.57249 0.32581 0.0
C464 C 0.60976 0.57771 0.43064 0.0
H465 H 0.65701 0.70413 0.51623 0.0
H466 H 0.63832 0.6792 0.4588 0.0
H467 H 0.61803 0.58271 0.49262 0.0
H468 H 0.53989 0.53387 0.32395 0.0
H469 H 0.55972 0.5607 0.37894 0.0
H470 H 0.63151 0.62644 0.35468 0.0
C471 C 0.64834 0.66581 0.48691 0.0
C472 C 0.62151 0.59233 0.46275 0.0
C473 C 0.65901 0.68012 0.5198 0.0
C474 C 0.56149 0.54433 0.32424 0.0
C475 C 0.5729 0.55967 0.35578 0.0
C476 C 0.62873 0.61647 0.38471 0.0
C477 C 0.64966 0.63457 0.49073 0.0
C478 C 0.63716 0.61914 0.45633 0.0
C479 C 0.60074 0.57383 0.35709 0.0
C480 C 0.61319 0.58958 0.39119 0.0
H481 H 0.68255 0.61899 0.58925 0.0
H482 H 0.66444 0.59405 0.53183 0.0
H483 H 0.65274 0.65152 0.41088 0.0
H484 H 0.61828 0.55629 0.27082 0.0
H485 H 0.63843 0.58272 0.32614 0.0
C486 C 0.85878 0.15138 0.97283 0.0
C487 C 0.82786 0.15692 0.96572 0.0
C488 C 0.87302 0.14509 0.94227 0.0
C489 C 0.85824 0.12061 0.84214 0.0
H490 H 0.94123 0.14242 0.84405 0.0
C491 C 0.93089 0.10729 0.72027 0.0
C492 C 0.95648 0.08931 0.7359 0.0
C493 C 0.91326 0.11627 0.74589 0.0
C494 C 0.91805 0.13625 0.84323 0.0
H495 H 0.78786 0.16104 0.92009 0.0
H496 H 0.81305 0.15152 0.86601 0.0
H497 H 0.914 0.1592 0.89166 0.0
H498 H 0.98265 0.06589 0.79104 0.0
H499 H 0.95269 0.08296 0.83554 0.0
H500 H 0.86253 0.09841 0.79252 0.0
C501 C 0.82612 0.15111 0.89576 0.0
C502 C 0.90243 0.14563 0.87065 0.0
C503 C 0.81171 0.15698 0.92667 0.0
C504 C 0.96365 0.0803 0.77781 0.0
C505 C 0.94639 0.08983 0.80336 0.0
C506 C 0.87377 0.11176 0.81408 0.0
C507 C 0.85697 0.14484 0.90327 0.0
C508 C 0.87251 0.13734 0.87121 0.0
C509 C 0.92119 0.10799 0.78761 0.0
C510 C 0.90394 0.11902 0.81504 0.0
H511 H 0.87218 0.15182 0.00219 0.0
H512 H 0.89664 0.13989 0.94965 0.0
H513 H 0.83539 0.11349 0.84181 0.0
H514 H 0.92483 0.11517 0.68833 0.0
H515 H 0.89397 0.13045 0.73321 0.0
C516 C 0.39901 0.33371 0.38024 0.0
C517 C 0.36799 0.33508 0.3781 0.0
C518 C 0.41203 0.34592 0.34733 0.0
C519 C 0.39462 0.37776 0.23768 0.0
H520 H 0.47052 0.41695 0.2626 0.0
C521 C 0.44436 0.46411 0.12369 0.0
C522 C 0.47441 0.45994 0.12115 0.0
C523 C 0.43145 0.44674 0.1536 0.0
C524 C 0.44947 0.40585 0.25518 0.0
H525 H 0.32614 0.34969 0.33985 0.0
H526 H 0.3488 0.37207 0.28264 0.0
H527 H 0.44762 0.39041 0.31692 0.0
H528 H 0.51468 0.43455 0.14846 0.0
H529 H 0.49242 0.40502 0.20191 0.0
H530 H 0.39618 0.39458 0.1758 0.0
C531 C 0.36317 0.36086 0.30925 0.0
C532 C 0.43633 0.39044 0.28631 0.0
C533 C 0.3501 0.34812 0.34204 0.0
C534 C 0.49149 0.4384 0.14973 0.0
C535 C 0.47875 0.42143 0.1802 0.0
C536 C 0.40758 0.39362 0.20657 0.0
C537 C 0.39441 0.36041 0.31167 0.0
C538 C 0.4087 0.37613 0.27809 0.0
C539 C 0.44855 0.42534 0.1823 0.0
C540 C 0.43512 0.40782 0.21505 0.0
H541 H 0.41323 0.32355 0.40771 0.0
H542 H 0.43603 0.34431 0.35014 0.0
H543 H 0.37363 0.36669 0.22996 0.0
H544 H 0.43087 0.48108 0.10283 0.0
H545 H 0.40825 0.45053 0.15487 0.0
C546 C 0.17451 0.86176 0.90998 0.0
C547 C 0.18591 0.87897 0.9397 0.0
C548 C 0.15839 0.87524 0.87312 0.0
C549 C 0.14575 0.94517 0.80339 0.0
H550 H 0.06857 0.91165 0.76768 0.0
C551 C 0.06573 1.00007 0.66063 0.0
C552 C 0.04968 0.98079 0.63663 0.0
C553 C 0.08209 0.98881 0.69848 0.0
C554 C 0.09023 0.92108 0.77684 0.0
H555 H 0.1903 0.92374 0.95396 0.0
H556 H 0.16242 0.94748 0.88896 0.0
H557 H 0.09882 0.88943 0.8311 0.0
H558 H 0.03783 0.93466 0.63373 0.0
H559 H 0.06738 0.91495 0.69833 0.0
H560 H 0.13767 0.97629 0.74862 0.0
C561 C 0.16584 0.92356 0.8944 0.0
C562 C 0.10748 0.90838 0.81326 0.0
C563 C 0.18159 0.91001 0.93153 0.0
C564 C 0.05017 0.95012 0.65131 0.0
C565 C 0.06683 0.93883 0.68871 0.0
C566 C 0.12866 0.95766 0.76659 0.0
C567 C 0.15373 0.90622 0.86512 0.0
C568 C 0.13544 0.92019 0.82676 0.0
C569 C 0.08297 0.95799 0.71289 0.0
C570 C 0.10075 0.94564 0.75274 0.0
H571 H 0.17735 0.83777 0.91567 0.0
H572 H 0.14945 0.86144 0.85088 0.0
H573 H 0.16734 0.95457 0.81313 0.0
H574 H 0.06612 0.02376 0.64993 0.0
H575 H 0.09398 0.00427 0.71645 0.0
loop_
_geom_bond_atom_site_label_1
_geom_bond_atom_site_label_2
_geom_bond_distance
_geom_bond_site_symmetry_2
_ccdc_geom_bond_type
H0 C5 0.930 . S
H1 C8 0.930 . S
H2 C10 0.930 . S
H3 C4 1.016 . S
C4 H3 1.016 . S
C4 N11 1.286 . S
C5 H0 0.930 . S
C5 C6 1.397 . S
C5 C7 1.361 1_556 S
C6 C5 1.397 . S
C6 C10 1.390 1_556 S
C7 C5 1.361 1_554 S
C7 C8 1.393 . S
C7 N11 1.413 . S
C8 H1 0.930 . S
C8 C7 1.393 . S
C8 C9 1.399 . S
C9 C8 1.399 . S
C9 C10 1.381 . S
C10 H2 0.930 . S
C10 C6 1.390 1_554 S
C10 C9 1.381 . S
N11 C4 1.286 . S
N11 C7 1.413 . S
H12 C17 0.930 . S
H13 C20 0.930 . S
H14 C22 0.930 . S
H15 C16 1.016 . S
C16 H15 1.016 . S
C16 N23 1.286 . S
C17 H12 0.930 . S
C17 C18 1.397 . S
C17 C19 1.361 . S
C18 C17 1.397 . S
C18 C22 1.390 . S
C19 C17 1.361 . S
C19 C20 1.393 . S
C19 N23 1.413 . S
C20 H13 0.930 . S
C20 C19 1.393 . S
C20 C21 1.399 . S
C21 C20 1.399 . S
C21 C22 1.381 . S
C22 H14 0.930 . S
C22 C18 1.390 . S
C22 C21 1.381 . S
N23 C16 1.286 . S
N23 C19 1.413 . S
H24 C29 0.930 . S
H25 C32 0.930 . S
H26 C34 0.930 . S
H27 C28 1.016 . S
C28 H27 1.016 . S
C28 N35 1.286 . S
C29 H24 0.930 . S
C29 C30 1.397 . S
C29 C31 1.361 1_556 S
C30 C29 1.397 . S
C30 C34 1.390 1_556 S
C31 C29 1.361 1_554 S
C31 C32 1.393 . S
C31 N35 1.413 . S
C32 H25 0.930 . S
C32 C31 1.393 . S
C32 C33 1.399 . S
C33 C32 1.399 . S
C33 C34 1.381 . S
C34 H26 0.930 . S
C34 C30 1.390 1_554 S
C34 C33 1.381 . S
N35 C28 1.286 . S
N35 C31 1.413 . S
H36 C41 0.930 . S
H37 C44 0.930 . S
H38 C46 0.930 . S
H39 C40 1.016 . S
C40 H39 1.016 . S
C40 N47 1.286 . S
C41 H36 0.930 . S
C41 C42 1.397 . S
C41 C43 1.361 . S
C42 C41 1.397 . S
C42 C46 1.390 . S
C43 C41 1.361 . S
C43 C44 1.393 . S
C43 N47 1.413 . S
C44 H37 0.930 . S
C44 C43 1.393 . S
C44 C45 1.399 . S
C45 C44 1.399 . S
C45 C46 1.381 . S
C46 H38 0.930 . S
C46 C42 1.390 . S
C46 C45 1.381 . S
N47 C40 1.286 . S
N47 C43 1.413 . S
Eu48 N77 2.600 . S
Eu48 N83 2.562 . S
Eu48 O92 2.462 . S
Eu48 O93 2.373 . S
Eu48 O95 2.432 . S
Eu48 O96 2.291 1_565 S
Eu48 O100 2.335 1_465 S
Eu48 O103 2.372 1_455 S
Eu48 C112 2.787 . S
C49 N50 1.365 . S
C49 C52 1.405 . S
C49 C56 1.448 . S
N50 C49 1.365 . S
N50 C53 1.319 1_655 S
N50 Eu59 2.600 . S
C51 C53 1.397 . S
C51 C54 1.367 1_455 S
C51 H71 0.931 . S
C52 C49 1.405 . S
C52 C54 1.403 . S
C52 C58 1.439 . S
C53 N50 1.319 1_455 S
C53 C51 1.397 . S
C53 H64 0.930 . S
C54 C51 1.367 1_655 S
C54 C52 1.403 . S
C54 H75 0.929 . S
C55 C56 1.430 . S
C55 C57 1.387 . S
C55 C61 1.404 . S
C56 C49 1.448 . S
C56 C55 1.430 . S
C56 N60 1.351 . S
C57 C55 1.387 . S
C57 C58 1.374 . S
C57 H72 0.931 . S
C58 C52 1.439 . S
C58 C57 1.374 . S
C58 H73 0.931 . S
Eu59 N50 2.600 . S
Eu59 N60 2.562 . S
Eu59 O94 2.335 1_655 S
Eu59 O97 2.372 1_655 S
Eu59 O98 2.462 . S
Eu59 O99 2.373 . S
Eu59 O101 2.432 . S
Eu59 O102 2.291 1_545 S
Eu59 C123 2.787 . S
N60 C56 1.351 . S
N60 Eu59 2.562 . S
N60 C62 1.325 . S
C61 C55 1.404 . S
C61 C63 1.366 . S
C61 H69 0.930 . S
C62 N60 1.325 . S
C62 C63 1.416 . S
C62 H68 0.929 . S
C63 C61 1.366 . S
C63 C62 1.416 . S
C63 H65 0.930 . S
H64 C53 0.930 . S
H65 C63 0.930 . S
H66 C81 0.930 1_655 S
H67 C88 0.930 . S
H68 C62 0.929 . S
H69 C61 0.930 . S
H70 C84 0.929 . S
H71 C51 0.931 . S
H72 C57 0.931 . S
H73 C58 0.931 . S
H74 C79 0.931 1_655 S
H75 C54 0.929 . S
H76 C87 0.930 . S
N77 Eu48 2.600 . S
N77 C78 1.365 . S
N77 C81 1.319 . S
C78 N77 1.365 . S
C78 C80 1.405 . S
C78 C86 1.448 . S
C79 H74 0.931 1_455 S
C79 C81 1.397 . S
C79 C82 1.367 . S
C80 C78 1.405 . S
C80 C82 1.403 . S
C80 C113 1.439 . S
C81 H66 0.930 1_455 S
C81 N77 1.319 . S
C81 C79 1.397 . S
C82 C79 1.367 . S
C82 C80 1.403 . S
C82 H89 0.929 . S
N83 Eu48 2.562 . S
N83 C84 1.325 . S
N83 C86 1.351 . S
C84 H70 0.929 . S
C84 N83 1.325 . S
C84 C88 1.416 . S
C85 C86 1.430 . S
C85 C87 1.404 . S
C85 C114 1.387 . S
C86 C78 1.448 . S
C86 N83 1.351 . S
C86 C85 1.430 . S
C87 H76 0.930 . S
C87 C85 1.404 . S
C87 C88 1.366 . S
C88 H67 0.930 . S
C88 C84 1.416 . S
C88 C87 1.366 . S
H89 C82 0.929 . S
H90 C113 0.931 . S
H91 C114 0.931 . S
O92 Eu48 2.462 . S
O92 C112 1.252 . S
O93 Eu48 2.373 . S
O93 C104 1.249 . S
O94 Eu59 2.335 1_455 S
O94 C104 1.264 1_545 S
O95 Eu48 2.432 . S
O95 C112 1.268 . S
O96 Eu48 2.291 1_545 S
O96 C111 1.255 . S
O97 Eu59 2.372 1_455 S
O97 C111 1.257 . S
O98 Eu59 2.462 . S
O98 C123 1.252 . S
O99 Eu59 2.373 . S
O99 C115 1.249 . S
O100 Eu48 2.335 1_645 S
O100 C115 1.264 . S
O101 Eu59 2.432 . S
O101 C123 1.268 . S
O102 Eu59 2.291 1_565 S
O102 C122 1.255 . S
O103 Eu48 2.372 1_655 S
O103 C122 1.257 . S
C104 O93 1.249 . S
C104 O94 1.264 1_565 S
C105 C108 1.382 . S
C105 C110 1.390 . S
C105 C112 1.506 . S
C106 C107 1.398 . S
C106 C110 1.392 . S
C107 C106 1.398 . S
C107 C109 1.372 . S
C107 H124 0.931 . S
C108 C105 1.382 . S
C108 C109 1.390 . S
C108 H125 0.931 . S
C109 C107 1.372 . S
C109 C108 1.390 . S
C109 H126 0.929 . S
C110 C105 1.390 . S
C110 C106 1.392 . S
C110 H127 0.930 . S
C111 O96 1.255 . S
C111 O97 1.257 . S
C112 Eu48 2.787 . S
C112 O92 1.252 . S
C112 O95 1.268 . S
C112 C105 1.506 . S
C113 C80 1.439 . S
C113 H90 0.931 . S
C113 C114 1.374 . S
C114 C85 1.387 . S
C114 H91 0.931 . S
C114 C113 1.374 . S
C115 O99 1.249 . S
C115 O100 1.264 . S
C116 C119 1.382 . S
C116 C120 1.390 . S
C116 C123 1.506 . S
C117 C118 1.398 . S
C117 C120 1.392 . S
C118 C117 1.398 . S
C118 C121 1.372 . S
C118 H128 0.931 . S
C119 C116 1.382 . S
C119 C121 1.390 . S
C119 H129 0.931 . S
C120 C116 1.390 . S
C120 C117 1.392 . S
C120 H130 0.930 . S
C121 C118 1.372 . S
C121 C119 1.390 . S
C121 H131 0.929 . S
C122 O102 1.255 . S
C122 O103 1.257 . S
C123 Eu59 2.787 . S
C123 O98 1.252 . S
C123 O101 1.268 . S
C123 C116 1.506 . S
H124 C107 0.931 . S
H125 C108 0.931 . S
H126 C109 0.929 . S
H127 C110 0.930 . S
H128 C118 0.931 . S
H129 C119 0.931 . S
H130 C120 0.930 . S
H131 C121 0.929 . S
Eu132 N161 2.602 . S
Eu132 N167 2.562 1_556 S
Eu132 O176 2.462 . S
Eu132 O177 2.373 1_556 S
Eu132 O179 2.432 . S
Eu132 O180 2.291 1_556 S
Eu132 O184 2.335 . S
Eu132 O187 2.372 1_556 S
Eu132 C196 2.787 . S
C133 N134 1.365 . S
C133 C136 1.405 . S
C133 C140 1.448 . S
N134 C133 1.365 . S
N134 C137 1.319 . S
N134 Eu143 2.600 . S
C135 C137 1.397 . S
C135 C138 1.367 . S
C135 H155 0.931 . S
C136 C133 1.405 . S
C136 C138 1.403 . S
C136 C142 1.439 . S
C137 N134 1.319 . S
C137 C135 1.397 . S
C137 H148 0.930 . S
C138 C135 1.367 . S
C138 C136 1.403 . S
C138 H159 0.929 . S
C139 C140 1.430 . S
C139 C141 1.387 . S
C139 C145 1.404 . S
C140 C133 1.448 . S
C140 C139 1.430 . S
C140 N144 1.351 . S
C141 C139 1.387 . S
C141 C142 1.374 . S
C141 H156 0.931 . S
C142 C136 1.439 . S
C142 C141 1.374 . S
C142 H157 0.931 . S
Eu143 N134 2.600 . S
Eu143 N144 2.562 . S
Eu143 O178 2.335 . S
Eu143 O181 2.372 . S
Eu143 O182 2.462 . S
Eu143 O183 2.373 . S
Eu143 O185 2.432 . S
Eu143 O186 2.291 . S
Eu143 C207 2.787 . S
N144 C140 1.351 . S
N144 Eu143 2.562 . S
N144 C146 1.325 . S
C145 C139 1.404 . S
C145 C147 1.366 . S
C145 H153 0.930 . S
C146 N144 1.325 . S
C146 C147 1.416 . S
C146 H152 0.929 . S
C147 C145 1.366 . S
C147 C146 1.416 . S
C147 H149 0.930 . S
H148 C137 0.930 . S
H149 C147 0.930 . S
H150 C165 0.930 . S
H151 C172 0.930 . S
H152 C146 0.929 . S
H153 C145 0.930 . S
H154 C168 0.929 . S
H155 C135 0.931 . S
H156 C141 0.931 . S
H157 C142 0.931 . S
H158 C163 0.931 . S
H159 C138 0.929 . S
H160 C171 0.930 . S
N161 Eu132 2.602 . S
N161 C162 1.363 1_556 S
N161 C165 1.318 . S
C162 N161 1.363 1_554 S
C162 C164 1.405 . S
C162 C170 1.448 . S
C163 H158 0.931 . S
C163 C165 1.397 . S
C163 C166 1.367 1_556 S
C164 C162 1.405 . S
C164 C166 1.403 . S
C164 C197 1.439 . S
C165 H150 0.930 . S
C165 N161 1.318 . S
C165 C163 1.397 . S
C166 C163 1.367 1_554 S
C166 C164 1.403 . S
C166 H173 0.929 . S
N167 Eu132 2.562 1_554 S
N167 C168 1.325 . S
N167 C170 1.351 . S
C168 H154 0.929 . S
C168 N167 1.325 . S
C168 C172 1.416 . S
C169 C170 1.430 . S
C169 C171 1.404 . S
C169 C198 1.387 . S
C170 C162 1.448 . S
C170 N167 1.351 . S
C170 C169 1.430 . S
C171 H160 0.930 . S
C171 C169 1.404 . S
C171 C172 1.366 . S
C172 H151 0.930 . S
C172 C168 1.416 . S
C172 C171 1.366 . S
H173 C166 0.929 . S
H174 C197 0.931 . S
H175 C198 0.931 . S
O176 Eu132 2.462 . S
O176 C196 1.252 . S
O177 Eu132 2.373 1_554 S
O177 C188 1.249 . S
O178 Eu143 2.335 . S
O178 C188 1.264 . S
O179 Eu132 2.432 . S
O179 C196 1.268 . S
O180 Eu132 2.291 1_554 S
O180 C195 1.255 . S
O181 Eu143 2.372 . S
O181 C195 1.257 . S
O182 Eu143 2.462 . S
O182 C207 1.252 . S
O183 Eu143 2.373 . S
O183 C199 1.249 1_554 S
O184 Eu132 2.335 . S
O184 C199 1.264 . S
O185 Eu143 2.432 . S
O185 C207 1.268 . S
O186 Eu143 2.291 . S
O186 C206 1.255 . S
O187 Eu132 2.372 1_554 S
O187 C206 1.257 . S
C188 O177 1.249 . S
C188 O178 1.264 . S
C189 C192 1.382 . S
C189 C194 1.390 . S
C189 C196 1.506 . S
C190 C191 1.398 . S
C190 C194 1.392 . S
C191 C190 1.398 . S
C191 C193 1.372 . S
C191 H208 0.931 . S
C192 C189 1.382 . S
C192 C193 1.390 . S
C192 H209 0.931 . S
C193 C191 1.372 . S
C193 C192 1.390 . S
C193 H210 0.929 . S
C194 C189 1.390 . S
C194 C190 1.392 . S
C194 H211 0.930 . S
C195 O180 1.255 . S
C195 O181 1.257 . S
C196 Eu132 2.787 . S
C196 O176 1.252 . S
C196 O179 1.268 . S
C196 C189 1.506 . S
C197 C164 1.439 . S
C197 H174 0.931 . S
C197 C198 1.374 . S
C198 C169 1.387 . S
C198 H175 0.931 . S
C198 C197 1.374 . S
C199 O183 1.249 1_556 S
C199 O184 1.264 . S
C200 C203 1.382 . S
C200 C204 1.390 . S
C200 C207 1.506 . S
C201 C202 1.398 . S
C201 C204 1.392 . S
C202 C201 1.398 . S
C202 C205 1.372 . S
C202 H212 0.931 . S
C203 C200 1.382 . S
C203 C205 1.390 . S
C203 H213 0.931 . S
C204 C200 1.390 . S
C204 C201 1.392 . S
C204 H214 0.930 . S
C205 C202 1.372 . S
C205 C203 1.390 . S
C205 H215 0.929 . S
C206 O186 1.255 . S
C206 O187 1.257 . S
C207 Eu143 2.787 . S
C207 O182 1.252 . S
C207 O185 1.268 . S
C207 C200 1.506 . S
H208 C191 0.931 . S
H209 C192 0.931 . S
H210 C193 0.929 . S
H211 C194 0.930 . S
H212 C202 0.931 . S
H213 C203 0.931 . S
H214 C204 0.930 . S
H215 C205 0.929 . S
C216 C217 1.349 . S
C216 C218 1.327 . S
C216 H241 0.950 . S
C217 C216 1.349 . S
C217 C233 1.349 . S
C218 C216 1.327 . S
C218 C237 1.429 . S
C218 H242 0.950 . S
C219 C236 1.574 . S
C219 C238 1.368 . S
C219 H243 0.949 . S
H220 C224 0.949 . S
C221 C222 1.349 . S
C221 C223 1.327 . S
C221 H244 0.950 . S
C222 C221 1.349 . S
C222 C234 1.349 . S
C223 C221 1.327 . S
C223 C239 1.429 . S
C223 H245 0.950 . S
C224 H220 0.949 . S
C224 C232 1.574 . S
C224 C240 1.368 . S
H225 C233 0.950 . S
H226 C231 0.950 . S
H227 C232 0.949 . S
H228 C234 0.950 . S
H229 C235 0.950 . S
H230 C236 0.949 . S
C231 H226 0.950 . S
C231 C233 1.327 . S
C231 C237 1.429 . S
C232 C224 1.574 . S
C232 H227 0.949 . S
C232 C238 1.368 . S
C233 C217 1.349 . S
C233 H225 0.950 . S
C233 C231 1.327 . S
C234 C222 1.349 . S
C234 H228 0.950 . S
C234 C235 1.327 . S
C235 H229 0.950 . S
C235 C234 1.327 . S
C235 C239 1.429 . S
C236 C219 1.574 . S
C236 H230 0.949 . S
C236 C240 1.368 . S
C237 C218 1.429 . S
C237 C231 1.429 . S
C237 C238 1.523 . S
C238 C219 1.368 . S
C238 C232 1.368 . S
C238 C237 1.523 . S
C239 C223 1.429 . S
C239 C235 1.429 . S
C239 C240 1.523 . S
C240 C224 1.368 . S
C240 C236 1.368 . S
C240 C239 1.523 . S
H241 C216 0.950 . S
H242 C218 0.950 . S
H243 C219 0.949 . S
H244 C221 0.950 . S
H245 C223 0.950 . S
C246 C247 1.349 . S
C246 C248 1.327 . S
C246 H271 0.950 . S
C247 C246 1.349 . S
C247 C263 1.349 . S
C248 C246 1.327 . S
C248 C267 1.429 . S
C248 H272 0.950 . S
C249 C266 1.574 . S
C249 C268 1.368 . S
C249 H273 0.949 1_554 S
H250 C254 0.949 . S
C251 C252 1.349 . S
C251 C253 1.327 . S
C251 H274 0.950 1_554 S
C252 C251 1.349 . S
C252 C264 1.349 . S
C253 C251 1.327 . S
C253 C269 1.429 . S
C253 H275 0.950 1_554 S
C254 H250 0.949 . S
C254 C262 1.574 . S
C254 C270 1.368 . S
H255 C263 0.953 . S
H256 C261 0.950 1_556 S
H257 C262 0.949 . S
H258 C264 0.950 . S
H259 C265 0.950 . S
H260 C266 0.949 1_556 S
C261 H256 0.950 1_554 S
C261 C263 1.327 . S
C261 C267 1.429 . S
C262 C254 1.574 . S
C262 H257 0.949 . S
C262 C268 1.368 . S
C263 C247 1.349 . S
C263 H255 0.953 . S
C263 C261 1.327 . S
C264 C252 1.349 . S
C264 H258 0.950 . S
C264 C265 1.327 . S
C265 H259 0.950 . S
C265 C264 1.327 . S
C265 C269 1.429 . S
C266 C249 1.574 . S
C266 H260 0.949 1_554 S
C266 C270 1.368 . S
C267 C248 1.429 . S
C267 C261 1.429 . S
C267 C268 1.523 . S
C268 C249 1.368 . S
C268 C262 1.368 . S
C268 C267 1.523 . S
C269 C253 1.429 . S
C269 C265 1.429 . S
C269 C270 1.523 . S
C270 C254 1.368 . S
C270 C266 1.368 . S
C270 C269 1.523 . S
H271 C246 0.950 . S
H272 C248 0.950 . S
H273 C249 0.949 1_556 S
H274 C251 0.950 1_556 S
H275 C253 0.950 1_556 S
C276 C277 1.349 . S
C276 C278 1.327 . S
C276 H301 0.950 . S
C277 C276 1.349 . S
C277 C293 1.349 . S
C278 C276 1.327 . S
C278 C297 1.429 . S
C278 H302 0.950 . S
C279 C296 1.574 . S
C279 C298 1.368 . S
C279 H303 0.949 . S
H280 C284 0.949 . S
C281 C282 1.349 . S
C281 C283 1.327 . S
C281 H304 0.950 . S
C282 C281 1.349 . S
C282 C294 1.349 . S
C283 C281 1.327 . S
C283 C299 1.429 . S
C283 H305 0.950 . S
C284 H280 0.949 . S
C284 C292 1.574 . S
C284 C300 1.368 . S
H285 C293 0.950 . S
H286 C291 0.950 . S
H287 C292 0.949 . S
H288 C294 0.950 . S
H289 C295 0.950 . S
H290 C296 0.949 . S
C291 H286 0.950 . S
C291 C293 1.327 . S
C291 C297 1.429 . S
C292 C284 1.574 . S
C292 H287 0.949 . S
C292 C298 1.368 . S
C293 C277 1.349 . S
C293 H285 0.950 . S
C293 C291 1.327 . S
C294 C282 1.349 . S
C294 H288 0.950 . S
C294 C295 1.327 . S
C295 H289 0.950 . S
C295 C294 1.327 . S
C295 C299 1.429 . S
C296 C279 1.574 . S
C296 H290 0.949 . S
C296 C300 1.368 . S
C297 C278 1.429 . S
C297 C291 1.429 . S
C297 C298 1.523 . S
C298 C279 1.368 . S
C298 C292 1.368 . S
C298 C297 1.523 . S
C299 C283 1.429 . S
C299 C295 1.429 . S
C299 C300 1.523 . S
C300 C284 1.368 . S
C300 C296 1.368 . S
C300 C299 1.523 . S
H301 C276 0.950 . S
H302 C278 0.950 . S
H303 C279 0.949 . S
H304 C281 0.950 . S
H305 C283 0.950 . S
C306 C307 1.349 1_556 S
C306 C308 1.327 . S
C306 H331 0.950 . S
C307 C306 1.349 1_554 S
C307 C323 1.349 . S
C308 C306 1.327 . S
C308 C327 1.429 1_556 S
C308 H332 0.950 . S
C309 C326 1.574 . S
C309 C328 1.368 . S
C309 H333 0.949 . S
H310 C314 0.949 . S
C311 C312 1.349 . S
C311 C313 1.327 . S
C311 H334 0.950 . S
C312 C311 1.349 . S
C312 C324 1.349 1_554 S
C313 C311 1.327 . S
C313 C329 1.429 . S
C313 H335 0.950 . S
C314 H310 0.949 . S
C314 C322 1.574 . S
C314 C330 1.368 1_556 S
H315 C323 0.950 . S
H316 C321 0.950 . S
H317 C322 0.949 . S
H318 C324 0.950 . S
H319 C325 0.950 . S
H320 C326 0.949 . S
C321 H316 0.950 . S
C321 C323 1.327 . S
C321 C327 1.429 . S
C322 C314 1.574 . S
C322 H317 0.949 . S
C322 C328 1.368 1_556 S
C323 C307 1.349 . S
C323 H315 0.950 . S
C323 C321 1.327 . S
C324 C312 1.349 1_556 S
C324 H318 0.950 . S
C324 C325 1.327 . S
C325 H319 0.950 . S
C325 C324 1.327 . S
C325 C329 1.429 1_556 S
C326 C309 1.574 . S
C326 H320 0.949 . S
C326 C330 1.368 . S
C327 C308 1.429 1_554 S
C327 C321 1.429 . S
C327 C328 1.523 . S
C328 C309 1.368 . S
C328 C322 1.368 1_554 S
C328 C327 1.523 . S
C329 C313 1.429 . S
C329 C325 1.429 1_554 S
C329 C330 1.523 . S
C330 C314 1.368 1_554 S
C330 C326 1.368 . S
C330 C329 1.523 . S
H331 C306 0.950 . S
H332 C308 0.950 . S
H333 C309 0.949 . S
H334 C311 0.950 . S
H335 C313 0.950 . S
C336 C337 1.349 . S
C336 C338 1.327 . S
C336 H361 0.950 . S
C337 C336 1.349 . S
C337 C353 1.349 . S
C338 C336 1.327 . S
C338 C357 1.429 . S
C338 H362 0.950 . S
C339 C356 1.574 . S
C339 C358 1.368 . S
C339 H363 0.949 . S
H340 C344 0.949 . S
C341 C342 1.349 . S
C341 C343 1.327 . S
C341 H364 0.950 . S
C342 C341 1.349 . S
C342 C354 1.349 . S
C343 C341 1.327 . S
C343 C359 1.429 . S
C343 H365 0.950 . S
C344 H340 0.949 . S
C344 C352 1.574 . S
C344 C360 1.368 . S
H345 C353 0.950 . S
H346 C351 0.950 . S
H347 C352 0.949 . S
H348 C354 0.950 . S
H349 C355 0.950 . S
H350 C356 0.949 . S
C351 H346 0.950 . S
C351 C353 1.327 . S
C351 C357 1.429 . S
C352 C344 1.574 . S
C352 H347 0.949 . S
C352 C358 1.368 . S
C353 C337 1.349 . S
C353 H345 0.950 . S
C353 C351 1.327 . S
C354 C342 1.349 . S
C354 H348 0.950 . S
C354 C355 1.327 . S
C355 H349 0.950 . S
C355 C354 1.327 . S
C355 C359 1.429 . S
C356 C339 1.574 . S
C356 H350 0.949 . S
C356 C360 1.368 . S
C357 C338 1.429 . S
C357 C351 1.429 . S
C357 C358 1.523 . S
C358 C339 1.368 . S
C358 C352 1.368 . S
C358 C357 1.523 . S
C359 C343 1.429 . S
C359 C355 1.429 . S
C359 C360 1.523 . S
C360 C344 1.368 . S
C360 C356 1.368 . S
C360 C359 1.523 . S
H361 C336 0.950 . S
H362 C338 0.950 . S
H363 C339 0.949 . S
H364 C341 0.950 . S
H365 C343 0.950 . S
C366 C367 1.349 . S
C366 C368 1.327 . S
C366 H391 0.950 . S
C367 C366 1.349 . S
C367 C383 1.349 . S
C368 C366 1.327 . S
C368 C387 1.429 . S
C368 H392 0.950 . S
C369 C386 1.574 . S
C369 C388 1.368 . S
C369 H393 0.949 . S
H370 C374 0.949 . S
C371 C372 1.349 . S
C371 C373 1.327 . S
C371 H394 0.950 . S
C372 C371 1.349 . S
C372 C384 1.349 . S
C373 C371 1.327 . S
C373 C389 1.429 . S
C373 H395 0.950 . S
C374 H370 0.949 . S
C374 C382 1.574 . S
C374 C390 1.368 . S
H375 C383 0.950 . S
H376 C381 0.950 . S
H377 C382 0.949 . S
H378 C384 0.950 . S
H379 C385 0.950 . S
H380 C386 0.949 . S
C381 H376 0.950 . S
C381 C383 1.327 . S
C381 C387 1.429 . S
C382 C374 1.574 . S
C382 H377 0.949 . S
C382 C388 1.368 . S
C383 C367 1.349 . S
C383 H375 0.950 . S
C383 C381 1.327 . S
C384 C372 1.349 . S
C384 H378 0.950 . S
C384 C385 1.327 . S
C385 H379 0.950 . S
C385 C384 1.327 . S
C385 C389 1.429 . S
C386 C369 1.574 . S
C386 H380 0.949 . S
C386 C390 1.368 . S
C387 C368 1.429 . S
C387 C381 1.429 . S
C387 C388 1.523 . S
C388 C369 1.368 . S
C388 C382 1.368 . S
C388 C387 1.523 . S
C389 C373 1.429 . S
C389 C385 1.429 . S
C389 C390 1.523 . S
C390 C374 1.368 . S
C390 C386 1.368 . S
C390 C389 1.523 . S
H391 C366 0.950 . S
H392 C368 0.950 . S
H393 C369 0.949 . S
H394 C371 0.950 . S
H395 C373 0.950 . S
C396 C397 1.349 . S
C396 C398 1.327 . S
C396 H421 0.950 . S
C397 C396 1.349 . S
C397 C413 1.349 . S
C398 C396 1.327 . S
C398 C417 1.429 . S
C398 H422 0.950 . S
C399 C416 1.574 . S
C399 C418 1.368 . S
C399 H423 0.949 . S
H400 C404 0.949 . S
C401 C402 1.349 . S
C401 C403 1.327 . S
C401 H424 0.950 . S
C402 C401 1.349 . S
C402 C414 1.349 . S
C403 C401 1.327 . S
C403 C419 1.429 . S
C403 H425 0.950 . S
C404 H400 0.949 . S
C404 C412 1.574 . S
C404 C420 1.368 . S
H405 C413 0.950 . S
H406 C411 0.950 . S
H407 C412 0.949 . S
H408 C414 0.950 . S
H409 C415 0.950 . S
H410 C416 0.949 . S
C411 H406 0.950 . S
C411 C413 1.327 . S
C411 C417 1.429 . S
C412 C404 1.574 . S
C412 H407 0.949 . S
C412 C418 1.368 . S
C413 C397 1.349 . S
C413 H405 0.950 . S
C413 C411 1.327 . S
C414 C402 1.349 . S
C414 H408 0.950 . S
C414 C415 1.327 . S
C415 H409 0.950 . S
C415 C414 1.327 . S
C415 C419 1.429 . S
C416 C399 1.574 . S
C416 H410 0.949 . S
C416 C420 1.368 . S
C417 C398 1.429 . S
C417 C411 1.429 . S
C417 C418 1.523 . S
C418 C399 1.368 . S
C418 C412 1.368 . S
C418 C417 1.523 . S
C419 C403 1.429 . S
C419 C415 1.429 . S
C419 C420 1.523 . S
C420 C404 1.368 . S
C420 C416 1.368 . S
C420 C419 1.523 . S
H421 C396 0.950 . S
H422 C398 0.950 . S
H423 C399 0.949 . S
H424 C401 0.950 . S
H425 C403 0.950 . S
C426 C427 1.349 . S
C426 C428 1.327 . S
C426 H451 0.950 . S
C427 C426 1.349 . S
C427 C443 1.349 . S
C428 C426 1.327 . S
C428 C447 1.429 . S
C428 H452 0.950 . S
C429 C446 1.574 . S
C429 C448 1.368 . S
C429 H453 0.949 . S
H430 C434 0.949 . S
C431 C432 1.349 . S
C431 C433 1.327 . S
C431 H454 0.950 . S
C432 C431 1.349 . S
C432 C444 1.349 . S
C433 C431 1.327 . S
C433 C449 1.429 . S
C433 H455 0.950 . S
C434 H430 0.949 . S
C434 C442 1.574 . S
C434 C450 1.368 . S
H435 C443 0.950 . S
H436 C441 0.950 . S
H437 C442 0.949 . S
H438 C444 0.950 . S
H439 C445 0.950 . S
H440 C446 0.949 . S
C441 H436 0.950 . S
C441 C443 1.327 . S
C441 C447 1.429 . S
C442 C434 1.574 . S
C442 H437 0.949 . S
C442 C448 1.368 . S
C443 C427 1.349 . S
C443 H435 0.950 . S
C443 C441 1.327 . S
C444 C432 1.349 . S
C444 H438 0.950 . S
C444 C445 1.327 . S
C445 H439 0.950 . S
C445 C444 1.327 . S
C445 C449 1.429 . S
C446 C429 1.574 . S
C446 H440 0.949 . S
C446 C450 1.368 . S
C447 C428 1.429 . S
C447 C441 1.429 . S
C447 C448 1.523 . S
C448 C429 1.368 . S
C448 C442 1.368 . S
C448 C447 1.523 . S
C449 C433 1.429 . S
C449 C445 1.429 . S
C449 C450 1.523 . S
C450 C434 1.368 . S
C450 C446 1.368 . S
C450 C449 1.523 . S
H451 C426 0.950 . S
H452 C428 0.950 . S
H453 C429 0.949 . S
H454 C431 0.950 . S
H455 C433 0.950 . S
C456 C457 1.349 . S
C456 C458 1.327 . S
C456 H481 0.950 . S
C457 C456 1.349 . S
C457 C473 1.349 . S
C458 C456 1.327 . S
C458 C477 1.429 . S
C458 H482 0.950 . S
C459 C476 1.574 . S
C459 C478 1.368 . S
C459 H483 0.949 . S
H460 C464 0.949 . S
C461 C462 1.349 . S
C461 C463 1.327 . S
C461 H484 0.950 . S
C462 C461 1.349 . S
C462 C474 1.349 . S
C463 C461 1.327 . S
C463 C479 1.429 . S
C463 H485 0.950 . S
C464 H460 0.949 . S
C464 C472 1.574 . S
C464 C480 1.368 . S
H465 C473 0.950 . S
H466 C471 0.950 . S
H467 C472 0.949 . S
H468 C474 0.950 . S
H469 C475 0.950 . S
H470 C476 0.949 . S
C471 H466 0.950 . S
C471 C473 1.327 . S
C471 C477 1.429 . S
C472 C464 1.574 . S
C472 H467 0.949 . S
C472 C478 1.368 . S
C473 C457 1.349 . S
C473 H465 0.950 . S
C473 C471 1.327 . S
C474 C462 1.349 . S
C474 H468 0.950 . S
C474 C475 1.327 . S
C475 H469 0.950 . S
C475 C474 1.327 . S
C475 C479 1.429 . S
C476 C459 1.574 . S
C476 H470 0.949 . S
C476 C480 1.368 . S
C477 C458 1.429 . S
C477 C471 1.429 . S
C477 C478 1.523 . S
C478 C459 1.368 . S
C478 C472 1.368 . S
C478 C477 1.523 . S
C479 C463 1.429 . S
C479 C475 1.429 . S
C479 C480 1.523 . S
C480 C464 1.368 . S
C480 C476 1.368 . S
C480 C479 1.523 . S
H481 C456 0.950 . S
H482 C458 0.950 . S
H483 C459 0.949 . S
H484 C461 0.950 . S
H485 C463 0.950 . S
C486 C487 1.349 . S
C486 C488 1.327 . S
C486 H511 0.950 . S
C487 C486 1.349 . S
C487 C503 1.349 . S
C488 C486 1.327 . S
C488 C507 1.429 . S
C488 H512 0.950 . S
C489 C506 1.574 . S
C489 C508 1.368 . S
C489 H513 0.949 . S
H490 C494 0.949 . S
C491 C492 1.349 . S
C491 C493 1.327 . S
C491 H514 0.950 . S
C492 C491 1.349 . S
C492 C504 1.349 . S
C493 C491 1.327 . S
C493 C509 1.429 . S
C493 H515 0.950 . S
C494 H490 0.949 . S
C494 C502 1.574 . S
C494 C510 1.368 . S
H495 C503 0.950 . S
H496 C501 0.950 . S
H497 C502 0.949 . S
H498 C504 0.950 . S
H499 C505 0.950 . S
H500 C506 0.949 . S
C501 H496 0.950 . S
C501 C503 1.327 . S
C501 C507 1.429 . S
C502 C494 1.574 . S
C502 H497 0.949 . S
C502 C508 1.368 . S
C503 C487 1.349 . S
C503 H495 0.950 . S
C503 C501 1.327 . S
C504 C492 1.349 . S
C504 H498 0.950 . S
C504 C505 1.327 . S
C505 H499 0.950 . S
C505 C504 1.327 . S
C505 C509 1.429 . S
C506 C489 1.574 . S
C506 H500 0.949 . S
C506 C510 1.368 . S
C507 C488 1.429 . S
C507 C501 1.429 . S
C507 C508 1.523 . S
C508 C489 1.368 . S
C508 C502 1.368 . S
C508 C507 1.523 . S
C509 C493 1.429 . S
C509 C505 1.429 . S
C509 C510 1.523 . S
C510 C494 1.368 . S
C510 C506 1.368 . S
C510 C509 1.523 . S
H511 C486 0.950 . S
H512 C488 0.950 . S
H513 C489 0.949 . S
H514 C491 0.950 . S
H515 C493 0.950 . S
C516 C517 1.349 . S
C516 C518 1.327 . S
C516 H541 0.950 . S
C517 C516 1.349 . S
C517 C533 1.349 . S
C518 C516 1.327 . S
C518 C537 1.429 . S
C518 H542 0.950 . S
C519 C536 1.574 . S
C519 C538 1.368 . S
C519 H543 0.949 . S
H520 C524 0.949 . S
C521 C522 1.349 . S
C521 C523 1.327 . S
C521 H544 0.950 . S
C522 C521 1.349 . S
C522 C534 1.349 . S
C523 C521 1.327 . S
C523 C539 1.429 . S
C523 H545 0.950 . S
C524 H520 0.949 . S
C524 C532 1.574 . S
C524 C540 1.368 . S
H525 C533 0.950 . S
H526 C531 0.950 . S
H527 C532 0.949 . S
H528 C534 0.950 . S
H529 C535 0.950 . S
H530 C536 0.949 . S
C531 H526 0.950 . S
C531 C533 1.327 . S
C531 C537 1.429 . S
C532 C524 1.574 . S
C532 H527 0.949 . S
C532 C538 1.368 . S
C533 C517 1.349 . S
C533 H525 0.950 . S
C533 C531 1.327 . S
C534 C522 1.349 . S
C534 H528 0.950 . S
C534 C535 1.327 . S
C535 H529 0.950 . S
C535 C534 1.327 . S
C535 C539 1.429 . S
C536 C519 1.574 . S
C536 H530 0.949 . S
C536 C540 1.368 . S
C537 C518 1.429 . S
C537 C531 1.429 . S
C537 C538 1.523 . S
C538 C519 1.368 . S
C538 C532 1.368 . S
C538 C537 1.523 . S
C539 C523 1.429 . S
C539 C535 1.429 . S
C539 C540 1.523 . S
C540 C524 1.368 . S
C540 C536 1.368 . S
C540 C539 1.523 . S
H541 C516 0.950 . S
H542 C518 0.950 . S
H543 C519 0.949 . S
H544 C521 0.950 . S
H545 C523 0.950 . S
C546 C547 1.349 . S
C546 C548 1.327 . S
C546 H571 0.950 . S
C547 C546 1.349 . S
C547 C563 1.349 . S
C548 C546 1.327 . S
C548 C567 1.429 . S
C548 H572 0.950 . S
C549 C566 1.574 . S
C549 C568 1.368 . S
C549 H573 0.949 . S
H550 C554 0.949 . S
C551 C552 1.349 . S
C551 C553 1.327 . S
C551 H574 0.950 1_565 S
C552 C551 1.349 . S
C552 C564 1.349 . S
C553 C551 1.327 . S
C553 C569 1.429 . S
C553 H575 0.950 . S
C554 H550 0.949 . S
C554 C562 1.574 . S
C554 C570 1.368 . S
H555 C563 0.950 . S
H556 C561 0.950 . S
H557 C562 0.949 . S
H558 C564 0.950 . S
H559 C565 0.950 . S
H560 C566 0.949 . S
C561 H556 0.950 . S
C561 C563 1.327 . S
C561 C567 1.429 . S
C562 C554 1.574 . S
C562 H557 0.949 . S
C562 C568 1.368 . S
C563 C547 1.349 . S
C563 H555 0.950 . S
C563 C561 1.327 . S
C564 C552 1.349 . S
C564 H558 0.950 . S
C564 C565 1.327 . S
C565 H559 0.950 . S
C565 C564 1.327 . S
C565 C569 1.429 . S
C566 C549 1.574 . S
C566 H560 0.949 . S
C566 C570 1.368 . S
C567 C548 1.429 . S
C567 C561 1.429 . S
C567 C568 1.523 . S
C568 C549 1.368 . S
C568 C562 1.368 . S
C568 C567 1.523 . S
C569 C553 1.429 . S
C569 C565 1.429 . S
C569 C570 1.523 . S
C570 C554 1.368 . S
C570 C566 1.368 . S
C570 C569 1.523 . S
H571 C546 0.950 . S
H572 C548 0.950 . S
H573 C549 0.949 . S
H574 C551 0.950 1_545 S
H575 C553 0.950 . S
C222 C111 1.681 . S
C217 C40 1.689 . S
C247 C4 1.692 . S
C252 C206 1.671 . S
C277 C16 1.690 . S
C282 C122 1.697 . S
C307 C28 1.660 . S
C312 C195 1.658 . S
C342 C106 1.466 . S
C337 C9 1.632 . S
C372 C199 1.733 . S
C367 C18 1.734 . S
C397 C33 1.654 . S
C402 C115 1.666 . S
C427 C45 1.624 . S
C432 C190 1.458 . S
C462 C201 1.413 . S
C457 C21 1.579 . S
C492 C117 1.412 . S
C487 C30 1.584 . S
C522 C188 1.657 . S
C517 C42 1.649 . S
C547 C6 1.586 . S
C552 C104 1.598 . S
