# Generated by pormake.
# Topology anh, (6,3)-cn, num edge types: 1
# Building blocks:
#     Node 0, Type 0, BuildingBlock: BETGAK_clean_sbu_0, # of connection points: 6
#     Node 1, Type 0, BuildingBlock: BETGAK_clean_sbu_0, # of connection points: 6
#     Node 2, Type 0, BuildingBlock: BETGAK_clean_sbu_0, # of connection points: 6
#     Node 3, Type 1, BuildingBlock: VETTIZ_charged_linker_0, # of connection points: 3
#     Node 4, Type 1, BuildingBlock: VETTIZ_charged_linker_0, # of connection points: 3
#     Node 5, Type 1, BuildingBlock: VETTIZ_charged_linker_0, # of connection points: 3
#     Node 6, Type 1, BuildingBlock: VETTIZ_charged_linker_0, # of connection points: 3
#     Node 7, Type 1, BuildingBlock: VETTIZ_charged_linker_0, # of connection points: 3
#     Node 8, Type 1, BuildingBlock: VETTIZ_charged_linker_0, # of connection points: 3
#     Edge 9, Type (0, 1), BuildingBlock: MIFKUJ_clean_linker_0, # of connection points: 2
#     Edge 10, Type (0, 1), BuildingBlock: MIFKUJ_clean_linker_0, # of connection points: 2
#     Edge 11, Type (0, 1), BuildingBlock: MIFKUJ_clean_linker_0, # of connection points: 2
#     Edge 12, Type (0, 1), BuildingBlock: MIFKUJ_clean_linker_0, # of connection points: 2
#     Edge 13, Type (0, 1), BuildingBlock: MIFKUJ_clean_linker_0, # of connection points: 2
#     Edge 14, Type (0, 1), BuildingBlock: MIFKUJ_clean_linker_0, # of connection points: 2
#     Edge 15, Type (0, 1), BuildingBlock: MIFKUJ_clean_linker_0, # of connection points: 2
#     Edge 16, Type (0, 1), BuildingBlock: MIFKUJ_clean_linker_0, # of connection points: 2
#     Edge 17, Type (0, 1), BuildingBlock: MIFKUJ_clean_linker_0, # of connection points: 2
#     Edge 18, Type (0, 1), BuildingBlock: MIFKUJ_clean_linker_0, # of connection points: 2
#     Edge 19, Type (0, 1), BuildingBlock: MIFKUJ_clean_linker_0, # of connection points: 2
#     Edge 20, Type (0, 1), BuildingBlock: MIFKUJ_clean_linker_0, # of connection points: 2
#     Edge 21, Type (0, 1), BuildingBlock: MIFKUJ_clean_linker_0, # of connection points: 2
#     Edge 22, Type (0, 1), BuildingBlock: MIFKUJ_clean_linker_0, # of connection points: 2
#     Edge 23, Type (0, 1), BuildingBlock: MIFKUJ_clean_linker_0, # of connection points: 2
#     Edge 24, Type (0, 1), BuildingBlock: MIFKUJ_clean_linker_0, # of connection points: 2
#     Edge 25, Type (0, 1), BuildingBlock: MIFKUJ_clean_linker_0, # of connection points: 2
#     Edge 26, Type (0, 1), BuildingBlock: MIFKUJ_clean_linker_0, # of connection points: 2
# Relax obj value: 0.169
# Max RMSD: 0.199
# Mean RMSD: 0.153
data_MOF--net-anh--node1-BETGAK_clean_sbu_0--node2-VETTIZ_charged_linker_0--edge1-MIFKUJ_clean_linker_0
_symmetry_space_group_name_H-M    P1
_symmetry_Int_Tables_number       1
_symmetry_cell_setting            triclinic
loop_
_symmetry_equiv_pos_as_xyz
'x, y, z'
_cell_length_a     45.114086
_cell_length_b     51.928285
_cell_length_c     82.812571
_cell_angle_alpha  92.436926
_cell_angle_beta   89.159747
_cell_angle_gamma 127.24339
loop_
_atom_site_label
_atom_site_type_symbol
_atom_site_fract_x
_atom_site_fract_y
_atom_site_fract_z
_atom_type_partial_charge
La0 La 0.08789 0.51593 0.14984 0.0
La1 La 1.04855 0.54243 0.163 0.0
C2 C 0.13085 0.50884 0.13449 0.0
C3 C 0.17081 0.525 0.13768 0.0
C4 C 0.18153 0.5137 0.14969 0.0
C5 C 0.21871 0.53125 0.15441 0.0
C6 C 0.24619 0.56021 0.14706 0.0
C7 C 0.23592 0.57105 0.13463 0.0
C8 C 0.19845 0.5537 0.13006 0.0
C9 C 0.08311 0.51687 0.18146 0.0
C10 C 0.133 0.59317 0.15712 0.0
C11 C 1.00678 0.54917 0.17993 0.0
C12 C 0.96886 0.52442 0.18557 0.0
C13 C 0.94407 0.49668 0.17572 0.0
C14 C 0.9092 0.47181 0.18137 0.0
C15 C 0.89816 0.47416 0.19695 0.0
C16 C 0.92266 0.50214 0.20677 0.0
C17 C 0.95805 0.527 0.20117 0.0
C18 C 1.05486 0.54216 0.1314 0.0
C19 C 1.00456 0.46588 0.15604 0.0
O20 O 0.10798 0.48907 0.14548 0.0
O21 O 0.12229 0.52738 0.12974 0.0
O22 O 0.08327 0.49534 0.17313 0.0
O23 O 0.08879 0.53801 0.17227 0.0
O24 O 0.13194 0.56887 0.15047 0.0
O25 O 0.10378 0.58836 0.16435 0.0
O26 O 1.01029 0.55284 0.1643 0.0
O27 O 1.03249 0.54802 0.18604 0.0
O28 O 1.05569 0.56426 0.1398 0.0
O29 O 1.04795 0.52043 0.1405 0.0
O30 O 1.00809 0.48946 0.16495 0.0
O31 O 1.03127 0.47213 0.14617 0.0
H32 H 0.16112 0.49163 0.15577 0.0
H33 H 0.22604 0.52192 0.16373 0.0
H34 H 0.25675 0.59313 0.12865 0.0
H35 H 0.19104 0.56312 0.12084 0.0
H36 H 0.95171 0.49398 0.16366 0.0
H37 H 0.89054 0.45091 0.17337 0.0
H38 H 0.91454 0.5046 0.21877 0.0
H39 H 0.97699 0.54809 0.209 0.0
La40 La 0.6038 0.01913 0.48762 0.0
La41 La 0.55398 0.03798 0.48159 0.0
C42 C 0.63343 0.99524 0.49905 0.0
C43 C 0.62484 0.96326 0.50091 0.0
C44 C 0.65368 0.9604 0.49925 0.0
C45 C 0.64694 0.93073 0.50128 0.0
C46 C 0.61112 0.90319 0.50503 0.0
C47 C 0.58199 0.90595 0.5064 0.0
C48 C 0.58882 0.93579 0.5044 0.0
C49 C 0.59918 0.02968 0.45732 0.0
C50 C 0.5163 0.96432 0.481 0.0
C51 C 0.52449 0.06302 0.47157 0.0
C52 C 0.53014 0.09404 0.47428 0.0
C53 C 0.49984 0.09353 0.47906 0.0
C54 C 0.50453 0.12239 0.48248 0.0
C55 C 0.53969 0.15248 0.48117 0.0
C56 C 0.56993 0.153 0.47605 0.0
C57 C 0.56522 0.12405 0.47266 0.0
C58 C 0.55989 0.02813 0.5119 0.0
C59 C 0.64229 0.09301 0.48694 0.0
O60 O 0.63831 1.00488 0.48427 0.0
O61 O 0.61415 1.00201 0.50764 0.0
O62 O 0.6287 0.03561 0.46392 0.0
O63 O 0.57285 0.01586 0.46719 0.0
O64 O 0.54767 0.97221 0.4875 0.0
O65 O 0.51426 0.98661 0.47526 0.0
O66 O 0.51256 0.04457 0.48399 0.0
O67 O 0.55031 0.06356 0.46373 0.0
O68 O 0.52983 0.02133 0.50549 0.0
O69 O 0.58561 0.04203 0.50182 0.0
O70 O 0.60979 0.08509 0.48196 0.0
O71 O 0.64576 0.07098 0.49176 0.0
H72 H 0.68161 0.98126 0.49646 0.0
H73 H 0.66986 0.92934 0.49986 0.0
H74 H 0.55415 0.88526 0.50939 0.0
H75 H 0.56611 0.93745 0.50576 0.0
H76 H 0.4725 0.0707 0.48031 0.0
H77 H 0.48054 0.12112 0.48612 0.0
H78 H 0.59743 0.17575 0.47503 0.0
H79 H 0.58907 0.12519 0.46894 0.0
La80 La 0.61105 0.56373 0.84287 0.0
La81 La 0.5602 0.49203 0.84592 0.0
C82 C 0.64133 0.6202 0.83369 0.0
C83 C 0.63092 0.64198 0.83158 0.0
C84 C 0.62355 0.65502 0.84489 0.0
C85 C 0.61557 0.67681 0.84259 0.0
C86 C 0.6146 0.68586 0.82696 0.0
C87 C 0.6215 0.67247 0.81368 0.0
C88 C 0.62973 0.6509 0.81598 0.0
C89 C 0.60155 0.54378 0.8724 0.0
C90 C 0.52171 0.52608 0.84606 0.0
C91 C 0.53227 0.43547 0.8541 0.0
C92 C 0.54238 0.41367 0.85039 0.0
C93 C 0.5573 0.41398 0.83531 0.0
C94 C 0.56597 0.39271 0.83172 0.0
C95 C 0.56042 0.37107 0.84321 0.0
C96 C 0.54672 0.37157 0.85849 0.0
C97 C 0.53762 0.39262 0.86202 0.0
C98 C 0.57049 0.51157 0.8162 0.0
C99 C 0.64987 0.52999 0.84339 0.0
O100 O 0.64381 0.61364 0.84848 0.0
O101 O 0.62529 0.59463 0.82382 0.0
O102 O 0.6327 0.56918 0.86729 0.0
O103 O 0.57693 0.53202 0.86154 0.0
O104 O 0.55459 0.55201 0.84129 0.0
O105 O 0.51846 0.50036 0.85085 0.0
O106 O 0.52003 0.44199 0.84189 0.0
O107 O 0.55612 0.46136 0.86314 0.0
O108 O 0.53973 0.4858 0.82122 0.0
O109 O 0.59471 0.52358 0.82725 0.0
O110 O 0.61651 0.50352 0.84724 0.0
O111 O 0.65387 0.55635 0.83926 0.0
H112 H 0.62425 0.64867 0.85709 0.0
H113 H 0.61007 0.68653 0.85304 0.0
H114 H 0.62147 0.67929 0.8015 0.0
H115 H 0.63562 0.64145 0.80553 0.0
H116 H 0.56194 0.43046 0.82625 0.0
H117 H 0.57699 0.39313 0.81994 0.0
H118 H 0.54208 0.35506 0.86754 0.0
H119 H 0.52654 0.39227 0.87377 0.0
C120 C 0.65391 0.11861 0.18361 0.0
C121 C 0.68008 0.14844 0.192 0.0
C122 C 0.68041 0.1496 0.20902 0.0
C123 C 0.6293 0.0924 0.20921 0.0
C124 C 0.62851 0.0909 0.19249 0.0
C125 C 0.59753 0.05721 0.18588 0.0
H126 H 0.45927 0.89907 0.20195 0.0
C127 C 0.60001 0.05984 0.21496 0.0
C128 C 0.5811 0.0388 0.20139 0.0
H129 H 0.48762 0.94134 0.15525 0.0
H130 H 0.53685 0.99412 0.16764 0.0
H131 H 0.54286 0.93762 0.21635 0.0
H132 H 0.45954 0.95313 0.21896 0.0
H133 H 0.48174 0.96579 0.23794 0.0
H134 H 0.45737 0.92411 0.23098 0.0
H135 H 0.50144 0.9135 0.22808 0.0
H136 H 0.54325 0.9504 0.23638 0.0
C137 C 0.61494 0.04435 0.17538 0.0
C138 C 0.56938 0.05904 0.17662 0.0
C139 C 0.58523 0.04263 0.27545 0.0
C140 C 0.56177 0.01502 0.28457 0.0
C141 C 0.53615 0.98484 0.27643 0.0
C142 C 0.53382 0.9822 0.25952 0.0
C143 C 0.55738 0.01002 0.25056 0.0
C144 C 0.58264 0.03953 0.25854 0.0
C145 C 0.60595 0.06632 0.24703 0.0
C146 C 0.59004 0.04808 0.23082 0.0
C147 C 0.56164 0.01521 0.23299 0.0
C148 C 0.64715 0.07977 0.24944 0.0
C149 C 0.59842 0.09156 0.25012 0.0
C150 C 0.47641 0.91965 0.19438 0.0
C151 C 0.47017 0.91619 0.17766 0.0
C152 C 0.49227 0.9436 0.16819 0.0
C153 C 0.52065 0.9741 0.17541 0.0
C154 C 0.52635 0.97723 0.19229 0.0
C155 C 0.50399 0.95014 0.20141 0.0
C156 C 0.51164 0.95772 0.21919 0.0
C157 C 0.54256 0.99378 0.2194 0.0
C158 C 0.55171 1.00535 0.20364 0.0
C159 C 0.52529 0.93876 0.22548 0.0
C160 C 0.47583 0.94965 0.22732 0.0
H161 H 0.65739 0.12469 0.23053 0.0
H162 H 0.65287 0.11706 0.17052 0.0
H163 H 0.56603 0.07655 0.18284 0.0
H164 H 0.54115 0.0358 0.17606 0.0
H165 H 0.57891 0.06713 0.16414 0.0
H166 H 0.63908 0.04855 0.18182 0.0
H167 H 0.62503 0.05691 0.1638 0.0
H168 H 0.59536 0.01806 0.17264 0.0
H169 H 0.60562 0.06609 0.28133 0.0
H170 H 0.51756 0.96325 0.28317 0.0
H171 H 0.51367 0.95854 0.2541 0.0
H172 H 0.64914 0.06053 0.25318 0.0
H173 H 0.66126 0.09954 0.25894 0.0
H174 H 0.66335 0.08857 0.2382 0.0
H175 H 0.56888 0.07951 0.25346 0.0
H176 H 0.6025 0.10505 0.2393 0.0
H177 H 0.61622 0.10903 0.26017 0.0
H178 H 0.70056 0.17207 0.21575 0.0
C179 C 0.65537 0.12192 0.21761 0.0
C180 C 0.58269 0.60418 0.54481 0.0
C181 C 0.58673 0.6304 0.55314 0.0
C182 C 0.59114 0.63355 0.57008 0.0
C183 C 0.58879 0.58575 0.57019 0.0
C184 C 0.58412 0.58232 0.55357 0.0
C185 C 0.5821 0.55385 0.54675 0.0
H186 H 0.58542 0.4274 0.56061 0.0
C187 C 0.59033 0.5599 0.57567 0.0
C188 C 0.58669 0.54114 0.56201 0.0
H189 H 0.57056 0.45502 0.51467 0.0
H190 H 0.57662 0.50055 0.52792 0.0
H191 H 0.6503 0.49734 0.57369 0.0
H192 H 0.53192 0.43832 0.58054 0.0
H193 H 0.5533 0.4563 0.59946 0.0
H194 H 0.56123 0.42975 0.58916 0.0
H195 H 0.62725 0.46479 0.58734 0.0
H196 H 0.64387 0.50523 0.59373 0.0
C197 C 0.61499 0.56665 0.53509 0.0
C198 C 0.54326 0.52925 0.53876 0.0
C199 C 0.60362 0.55146 0.63573 0.0
C200 C 0.60667 0.53055 0.64457 0.0
C201 C 0.60753 0.5069 0.63603 0.0
C202 C 0.60445 0.50357 0.61914 0.0
C203 C 0.60058 0.52416 0.61055 0.0
C204 C 0.60082 0.54793 0.61883 0.0
C205 C 0.59773 0.56832 0.60765 0.0
C206 C 0.59479 0.55236 0.59131 0.0
C207 C 0.59618 0.5264 0.59312 0.0
C208 C 0.63396 0.60361 0.6094 0.0
C209 C 0.56159 0.56439 0.61174 0.0
C210 C 0.58314 0.44304 0.55338 0.0
C211 C 0.57717 0.43737 0.53658 0.0
C212 C 0.57531 0.4589 0.52762 0.0
C213 C 0.57861 0.48521 0.53535 0.0
C214 C 0.58395 0.49015 0.55223 0.0
C215 C 0.58632 0.46926 0.56088 0.0
C216 C 0.59201 0.47788 0.57867 0.0
C217 C 0.59239 0.50728 0.57938 0.0
C218 C 0.58764 0.5145 0.56388 0.0
C219 C 0.63015 0.48658 0.58377 0.0
C220 C 0.55812 0.44914 0.58756 0.0
H221 H 0.59561 0.61534 0.59148 0.0
H222 H 0.57953 0.6013 0.53177 0.0
H223 H 0.52133 0.52741 0.54616 0.0
H224 H 0.53499 0.50443 0.53774 0.0
H225 H 0.54216 0.53676 0.52655 0.0
H226 H 0.64055 0.58996 0.53993 0.0
H227 H 0.60858 0.57097 0.52305 0.0
H228 H 0.62277 0.55024 0.53351 0.0
H229 H 0.60266 0.56981 0.64182 0.0
H230 H 0.61072 0.49092 0.64242 0.0
H231 H 0.60502 0.48494 0.61344 0.0
H232 H 0.658 0.60432 0.61323 0.0
H233 H 0.63092 0.61809 0.61857 0.0
H234 H 0.64272 0.61607 0.59784 0.0
H235 H 0.53861 0.53882 0.61441 0.0
H236 H 0.55101 0.57008 0.60164 0.0
H237 H 0.56579 0.57976 0.62253 0.0
H238 H 0.59384 0.65329 0.57677 0.0
C239 C 0.5921 0.61143 0.57862 0.0
C240 C 0.17064 0.52582 0.85502 0.0
C241 C 0.19792 0.52517 0.86322 0.0
C242 C 0.19743 0.52533 0.88015 0.0
C243 C 0.14449 0.52667 0.88091 0.0
C244 C 0.14379 0.52637 0.86422 0.0
C245 C 0.11152 0.52643 0.85843 0.0
H246 H 0.96255 0.52627 0.88334 0.0
C247 C 0.11409 0.52729 0.88739 0.0
C248 C 0.09378 0.52699 0.8744 0.0
H249 H 0.99243 0.52723 0.83355 0.0
H250 H 1.04399 0.52643 0.84232 0.0
H251 H 0.97226 0.47599 0.89501 0.0
H252 H 1.04158 0.57952 0.89506 0.0
H253 H 1.0535 0.57128 0.9131 0.0
H254 H 1.00625 0.55715 0.90984 0.0
H255 H 0.96581 0.50012 0.90852 0.0
H256 H 0.99531 0.4891 0.91382 0.0
C257 C 0.08404 0.49532 0.84813 0.0
C258 C 0.12739 0.55709 0.84901 0.0
C259 C 0.10342 0.53252 0.94868 0.0
C260 C 0.07977 0.53504 0.95868 0.0
C261 C 1.05147 0.53481 0.95157 0.0
C262 C 1.0469 0.53238 0.93478 0.0
C263 C 0.07113 0.5305 0.92483 0.0
C264 C 0.09877 0.53059 0.93182 0.0
C265 C 0.1223 0.52913 0.91935 0.0
C266 C 0.10431 0.5283 0.90368 0.0
C267 C 0.07433 0.52888 0.90702 0.0
C268 C 0.1175 0.4972 0.92142 0.0
C269 C 0.16281 0.56064 0.92156 0.0
C270 C 0.98006 0.52677 0.87408 0.0
C271 C 0.97311 0.52747 0.85772 0.0
C272 C 0.99669 0.52682 0.84634 0.0
C273 C 1.02676 0.5265 0.85141 0.0
C274 C 1.03354 0.52673 0.86807 0.0
C275 C 1.0098 0.52685 0.87887 0.0
C276 C 1.01995 0.52815 0.89605 0.0
C277 C 1.05329 0.52817 0.89424 0.0
C278 C 0.06223 0.52729 0.87785 0.0
C279 C 0.98671 0.49695 0.90391 0.0
C280 C 1.03066 0.56047 0.90406 0.0
H281 H 0.17334 0.52622 0.90176 0.0
H282 H 0.17003 0.52552 0.84196 0.0
H283 H 0.14876 0.57907 0.85644 0.0
H284 H 0.10544 0.5594 0.84577 0.0
H285 H 0.14067 0.55665 0.8377 0.0
H286 H 0.07476 0.47364 0.85494 0.0
H287 H 0.09738 0.49495 0.83682 0.0
H288 H 0.05895 0.49314 0.84481 0.0
H289 H 0.12553 0.53277 0.95384 0.0
H290 H 1.03259 0.53626 0.95906 0.0
H291 H 1.02458 0.53212 0.93028 0.0
H292 H 0.08961 0.47802 0.92628 0.0
H293 H 0.1387 0.50091 0.92993 0.0
H294 H 0.11866 0.48645 0.90983 0.0
H295 H 0.16317 0.58129 0.92614 0.0
H296 H 0.17818 0.56893 0.9101 0.0
H297 H 0.17877 0.55766 0.93036 0.0
H298 H 0.21767 0.52488 0.88677 0.0
C299 C 0.17134 0.52611 0.88891 0.0
C300 C 0.98931 0.44085 0.45908 0.0
C301 C 0.95719 0.412 0.45229 0.0
C302 C 0.95044 0.40916 0.43557 0.0
C303 C 1.00723 0.46328 0.43239 0.0
C304 C 1.01397 0.46629 0.44886 0.0
C305 C 1.04943 0.49914 0.45373 0.0
H306 H 0.2005 0.64643 0.43005 0.0
C307 C 1.03766 0.49369 0.42507 0.0
C308 C 0.06265 0.51506 0.43748 0.0
H309 H 0.17447 0.61273 0.47872 0.0
H310 H 0.11768 0.56163 0.4689 0.0
H311 H 0.17949 0.58123 0.41326 0.0
H312 H 0.12003 0.62121 0.42036 0.0
H313 H 0.10709 0.60222 0.40102 0.0
H314 H 0.15527 0.63541 0.40536 0.0
H315 H 0.18927 0.61439 0.4021 0.0
H316 H 0.15469 0.5729 0.39523 0.0
C317 C 0.07677 0.49411 0.46111 0.0
C318 C 1.03927 0.51673 0.46535 0.0
C319 C 1.03732 0.50337 0.36415 0.0
C320 C 0.06168 0.52855 0.35381 0.0
C321 C 0.09307 0.55808 0.36052 0.0
C322 C 0.10023 0.56246 0.37718 0.0
C323 C 0.07583 0.53704 0.38737 0.0
C324 C 1.04489 0.50819 0.38083 0.0
C325 C 1.02192 0.48406 0.39356 0.0
C326 C 1.0444 0.50315 0.40878 0.0
C327 C 0.07595 0.53402 0.40504 0.0
C328 C 1.02142 0.45426 0.38995 0.0
C329 C 0.98297 0.47654 0.39358 0.0
C330 C 0.18293 0.62797 0.43863 0.0
C331 C 0.19237 0.63353 0.45515 0.0
C332 C 0.16791 0.60907 0.46591 0.0
C333 C 0.13503 0.5794 0.46018 0.0
C334 C 0.12635 0.57419 0.44352 0.0
C335 C 0.15024 0.59852 0.43314 0.0
C336 C 0.13705 0.58956 0.41589 0.0
C337 C 0.10133 0.55569 0.41745 0.0
C338 C 0.09491 0.54649 0.43363 0.0
C339 C 0.16657 0.58967 0.40597 0.0
C340 C 0.12965 0.61333 0.4102 0.0
H341 H 0.96836 0.43071 0.41296 0.0
H342 H 0.99489 0.44352 0.47195 0.0
H343 H 1.01331 0.51261 0.46119 0.0
H344 H 0.06067 0.54324 0.46591 0.0
H345 H 1.03454 0.50769 0.47776 0.0
H346 H 0.07655 0.47546 0.45385 0.0
H347 H 0.06888 0.48579 0.47365 0.0
H348 H 0.1059 0.51613 0.46119 0.0
H349 H 1.01279 0.48048 0.3594 0.0
H350 H 0.11264 0.5777 0.35282 0.0
H351 H 0.12474 0.58544 0.38145 0.0
H352 H 1.04881 0.46186 0.38531 0.0
H353 H 0.99992 0.43751 0.38065 0.0
H354 H 1.0168 0.44067 0.40079 0.0
H355 H 0.98466 0.49773 0.38986 0.0
H356 H 0.97055 0.47143 0.40572 0.0
H357 H 0.96341 0.45588 0.38508 0.0
H358 H 0.92579 0.38709 0.43021 0.0
C359 C 0.97521 0.43454 0.4256 0.0
C360 C 0.58792 0.95587 0.78561 0.0
C361 C 0.58534 0.93016 0.77748 0.0
C362 C 0.58573 0.92893 0.76045 0.0
C363 C 0.59045 0.97782 0.75983 0.0
C364 C 0.59027 0.97932 0.77653 0.0
C365 C 0.59241 1.00803 0.78301 0.0
H366 H 0.59789 0.1383 0.76728 0.0
C367 C 0.59326 1.00563 0.75394 0.0
C368 C 0.59453 0.02362 0.76744 0.0
H369 H 0.59348 0.10231 0.81403 0.0
H370 H 0.59576 0.06069 0.80123 0.0
H371 H 0.65911 0.13374 0.75295 0.0
H372 H 0.53961 0.06825 0.7491 0.0
H373 H 0.55788 0.0719 0.72968 0.0
H374 H 0.56767 0.10723 0.74032 0.0
H375 H 0.634 0.13967 0.73893 0.0
H376 H 0.64883 0.11499 0.73358 0.0
C377 C 0.6284 0.03021 0.79338 0.0
C378 C 0.55617 0.99513 0.79231 0.0
C379 C 0.59333 0.01868 0.69345 0.0
C380 C 0.59719 0.04265 0.68428 0.0
C381 C 0.60258 0.06972 0.69226 0.0
C382 C 0.60322 0.07249 0.70919 0.0
C383 C 0.59868 0.04804 0.71824 0.0
C384 C 0.59456 0.02204 0.71035 0.0
C385 C 0.59207 0.99928 0.72192 0.0
C386 C 0.59462 0.01557 0.73807 0.0
C387 C 0.59795 0.04382 0.73583 0.0
C388 C 0.62603 0.99906 0.71915 0.0
C389 C 0.55365 0.96583 0.71931 0.0
C390 C 0.59712 0.12131 0.77477 0.0
C391 C 0.59499 0.12332 0.79166 0.0
C392 C 0.59511 0.10126 0.80099 0.0
C393 C 0.59617 0.07699 0.79352 0.0
C394 C 0.59722 0.07479 0.77655 0.0
C395 C 0.59817 0.09707 0.76753 0.0
C396 C 0.59978 0.0916 0.74969 0.0
C397 C 0.59871 0.06185 0.7494 0.0
C398 C 0.59712 0.05194 0.76514 0.0
C399 C 0.63715 0.12151 0.74332 0.0
C400 C 0.56461 0.08453 0.74164 0.0
H401 H 0.58843 0.95004 0.73872 0.0
H402 H 0.5876 0.95744 0.79869 0.0
H403 H 0.53173 0.97307 0.786 0.0
H404 H 0.54961 0.01244 0.7931 0.0
H405 H 0.55765 0.98859 0.80472 0.0
H406 H 0.65177 0.03154 0.78771 0.0
H407 H 0.62447 0.02086 0.80566 0.0
H408 H 0.63812 0.05549 0.79451 0.0
H409 H 0.58977 0.99789 0.68759 0.0
H410 H 0.60552 0.08842 0.68538 0.0
H411 H 0.60691 0.09343 0.71456 0.0
H412 H 0.65034 0.02255 0.71462 0.0
H413 H 0.6194 0.97976 0.71011 0.0
H414 H 0.63637 0.99613 0.73042 0.0
H415 H 0.53163 0.96873 0.71691 0.0
H416 H 0.54408 0.95088 0.73003 0.0
H417 H 0.55408 0.95203 0.7088 0.0
H418 H 0.58455 0.90982 0.75389 0.0
C419 C 0.58827 0.95251 0.75162 0.0
C420 C 0.58202 0.40314 0.14122 0.0
C421 C 0.59798 0.38866 0.1349 0.0
C422 C 0.59919 0.385 0.11797 0.0
C423 C 0.57133 0.41232 0.11416 0.0
C424 C 0.56941 0.41503 0.13075 0.0
C425 C 0.55482 0.43346 0.13582 0.0
H426 H 0.48381 0.51065 0.11575 0.0
C427 C 0.5571 0.42848 0.10683 0.0
C428 C 0.54744 0.44084 0.11954 0.0
H429 H 0.50881 0.49768 0.16354 0.0
H430 H 0.53225 0.46975 0.15196 0.0
H431 H 0.56155 0.52974 0.0997 0.0
H432 H 0.44931 0.4425 0.10151 0.0
H433 H 0.46616 0.44043 0.08265 0.0
H434 H 0.46269 0.47284 0.0873 0.0
H435 H 0.523 0.52359 0.08926 0.0
H436 H 0.54927 0.51116 0.08022 0.0
C437 C 0.58598 0.46467 0.14553 0.0
C438 C 0.51842 0.41057 0.14526 0.0
C439 C 0.55484 0.43607 0.04567 0.0
C440 C 0.54089 0.44811 0.03588 0.0
C441 C 0.5229 0.46018 0.04311 0.0
C442 C 0.51974 0.4612 0.05989 0.0
C443 C 0.53457 0.4499 0.0696 0.0
C444 C 0.55086 0.43676 0.06251 0.0
C445 C 0.56273 0.42404 0.0749 0.0
C446 C 0.5522 0.43298 0.09053 0.0
C447 C 0.53628 0.44857 0.08727 0.0
C448 C 0.60529 0.44242 0.07368 0.0
C449 C 0.53957 0.38692 0.07195 0.0
C450 C 0.49451 0.50185 0.12368 0.0
C451 C 0.49441 0.50609 0.14053 0.0
C452 C 0.50888 0.49475 0.15051 0.0
C453 C 0.52223 0.4784 0.14375 0.0
C454 C 0.5214 0.47369 0.12684 0.0
C455 C 0.50824 0.48581 0.11712 0.0
C456 C 0.51032 0.47937 0.09944 0.0
C457 C 0.5267 0.46112 0.10013 0.0
C458 C 0.53278 0.45765 0.11617 0.0
C459 C 0.53719 0.51254 0.09159 0.0
C460 C 0.47021 0.45788 0.09221 0.0
H461 H 0.58829 0.39395 0.0948 0.0
H462 H 0.58038 0.4061 0.15415 0.0
H463 H 0.50113 0.38588 0.13936 0.0
H464 H 0.50043 0.41835 0.14564 0.0
H465 H 0.52457 0.40834 0.15785 0.0
H466 H 0.61416 0.47246 0.14207 0.0
H467 H 0.58321 0.46088 0.15873 0.0
H468 H 0.5865 0.48573 0.14312 0.0
H469 H 0.56834 0.42626 0.04034 0.0
H470 H 0.5121 0.46965 0.03576 0.0
H471 H 0.50619 0.47111 0.06464 0.0
H472 H 0.61963 0.46868 0.07219 0.0
H473 H 0.6122 0.4331 0.06312 0.0
H474 H 0.61776 0.44105 0.08466 0.0
H475 H 0.51075 0.3763 0.06787 0.0
H476 H 0.53603 0.37424 0.08301 0.0
H477 H 0.55227 0.38076 0.06247 0.0
H478 H 0.61175 0.37424 0.11279 0.0
C479 C 0.58588 0.39672 0.10756 0.0
H480 H 0.30393 0.57947 0.12712 0.0
H481 H 0.36268 0.5906 0.13496 0.0
H482 H 0.33601 0.58973 0.18528 0.0
H483 H 0.27672 0.57802 0.17743 0.0
H484 H 0.42642 0.62771 0.15406 0.0
H485 H 0.34365 0.53758 0.2021 0.0
H486 H 0.27874 0.4979 0.21086 0.0
H487 H 0.24067 0.47805 0.16147 0.0
H488 H 0.30533 0.5175 0.15247 0.0
H489 H 0.5238 0.55641 0.16305 0.0
H490 H 0.49475 0.58162 0.17319 0.0
H491 H 0.39711 0.51274 0.14379 0.0
H492 H 0.42579 0.48789 0.13371 0.0
H493 H 0.38083 0.5217 0.17531 0.0
H494 H 0.46217 0.58484 0.12977 0.0
H495 H 0.52409 0.62052 0.11745 0.0
H496 H 0.56178 0.68943 0.15742 0.0
H497 H 0.50012 0.65391 0.17005 0.0
C498 C 0.31133 0.58307 0.13984 0.0
C499 C 0.28558 0.57711 0.15169 0.0
C500 C 0.34502 0.58958 0.14433 0.0
C501 C 0.35326 0.59026 0.16071 0.0
C502 C 0.32989 0.58887 0.17259 0.0
C503 C 0.29601 0.58202 0.16809 0.0
C504 C 0.3803 0.5842 0.16475 0.0
C505 C 0.41691 0.60501 0.15917 0.0
C506 C 0.3679 0.55454 0.17139 0.0
C507 C 0.3291 0.53064 0.17667 0.0
C508 C 0.32136 0.52469 0.19314 0.0
C509 C 0.28466 0.50228 0.19814 0.0
C510 C 0.25559 0.48556 0.18674 0.0
C511 C 0.26318 0.49108 0.1703 0.0
C512 C 0.29982 0.51346 0.16524 0.0
C513 C 0.49599 0.54661 0.15895 0.0
C514 C 0.477 0.52047 0.14754 0.0
C515 C 0.47955 0.56098 0.16471 0.0
C516 C 0.44383 0.54893 0.15924 0.0
C517 C 0.42461 0.52223 0.14822 0.0
C518 C 0.44108 0.50823 0.14238 0.0
C519 C 0.42629 0.56453 0.16397 0.0
C520 C 0.39132 0.54539 0.1712 0.0
C521 C 0.44 0.59534 0.15857 0.0
C522 C 0.47682 0.61662 0.15093 0.0
C523 C 0.48378 0.6075 0.13597 0.0
C524 C 0.51878 0.6277 0.12893 0.0
C525 C 0.54689 0.65718 0.13667 0.0
C526 C 0.54001 0.66656 0.15145 0.0
C527 C 0.50507 0.64642 0.15856 0.0
H528 H 0.57397 0.67279 0.13119 0.0
H529 H 0.22719 0.46826 0.19063 0.0
H530 H 0.71566 0.11743 0.48797 0.0
H531 H 0.77029 0.17382 0.486 0.0
H532 H 0.69903 0.20314 0.48443 0.0
H533 H 0.6443 0.14668 0.48598 0.0
H534 H 0.74803 0.23141 0.46209 0.0
H535 H 0.75546 0.21865 0.51841 0.0
H536 H 0.75731 0.19293 0.54234 0.0
H537 H 0.85728 0.20879 0.52526 0.0
H538 H 0.85577 0.23422 0.50111 0.0
H539 H 0.89317 0.39799 0.46458 0.0
H540 H 0.84086 0.34606 0.475 0.0
H541 H 0.90607 0.31063 0.47112 0.0
H542 H 0.95859 0.36286 0.46093 0.0
H543 H 0.86003 0.28697 0.49771 0.0
H544 H 0.84959 0.29648 0.4407 0.0
H545 H 0.84793 0.32272 0.41696 0.0
H546 H 0.75255 0.31285 0.43591 0.0
H547 H 0.75405 0.28704 0.45991 0.0
C548 C 0.71162 0.13592 0.48739 0.0
C549 C 0.67555 0.12749 0.48706 0.0
C550 C 0.74296 0.16825 0.48633 0.0
C551 C 0.73899 0.19298 0.48523 0.0
C552 C 0.70296 0.18461 0.48523 0.0
C553 C 0.67162 0.15226 0.4861 0.0
C554 C 0.77214 0.22724 0.48315 0.0
C555 C 0.77216 0.24367 0.4701 0.0
C556 C 0.8042 0.24321 0.49332 0.0
C557 C 0.80531 0.2281 0.50788 0.0
C558 C 0.7777 0.21645 0.5197 0.0
C559 C 0.77871 0.20196 0.53331 0.0
C560 C 0.80735 0.19917 0.5353 0.0
C561 C 0.8351 0.21095 0.5237 0.0
C562 C 0.8342 0.22543 0.51005 0.0
C563 C 0.89664 0.37944 0.46652 0.0
C564 C 0.92984 0.38434 0.46217 0.0
C565 C 0.86673 0.34973 0.47233 0.0
C566 C 0.86933 0.32424 0.47361 0.0
C567 C 0.90342 0.32991 0.47026 0.0
C568 C 0.93341 0.35972 0.46449 0.0
C569 C 0.83558 0.29091 0.47675 0.0
C570 C 0.8356 0.27468 0.48988 0.0
C571 C 0.80342 0.27505 0.4667 0.0
C572 C 0.80216 0.29012 0.45216 0.0
C573 C 0.82841 0.3001 0.43985 0.0
C574 C 0.8275 0.31488 0.42635 0.0
C575 C 0.8002 0.31951 0.42494 0.0
C576 C 0.77371 0.30929 0.43702 0.0
C577 C 0.77457 0.29458 0.45057 0.0
H578 H 0.79953 0.33095 0.41448 0.0
H579 H 0.80807 0.18793 0.54585 0.0
H580 H 0.64418 0.74319 0.84389 0.0
H581 H 0.63608 0.78452 0.83833 0.0
H582 H 0.56101 0.72417 0.79878 0.0
H583 H 0.56933 0.68297 0.80419 0.0
H584 H 0.61097 0.78324 0.78942 0.0
H585 H 0.53041 0.73671 0.83505 0.0
H586 H 0.51379 0.71856 0.86298 0.0
H587 H 0.59768 0.8155 0.88136 0.0
H588 H 0.61509 0.83419 0.85351 0.0
H589 H 0.53882 0.86503 0.77101 0.0
H590 H 0.5413 0.82388 0.78256 0.0
H591 H 0.62843 0.89604 0.81559 0.0
H592 H 0.62633 0.93766 0.80393 0.0
H593 H 0.57505 0.83365 0.82932 0.0
H594 H 0.65467 0.87965 0.78332 0.0
H595 H 0.6696 0.8973 0.75527 0.0
H596 H 0.5858 0.79982 0.73755 0.0
H597 H 0.56993 0.78167 0.76553 0.0
C598 C 0.62549 0.73853 0.83417 0.0
C599 C 0.60749 0.70987 0.82443 0.0
C600 C 0.62086 0.76217 0.83101 0.0
C601 C 0.59776 0.75741 0.81819 0.0
C602 C 0.5791 0.72846 0.8087 0.0
C603 C 0.58392 0.70496 0.81178 0.0
C604 C 0.59458 0.78324 0.814 0.0
C605 C 0.60261 0.79388 0.79813 0.0
C606 C 0.5848 0.79793 0.82545 0.0
C607 C 0.5743 0.78678 0.8422 0.0
C608 C 0.54551 0.75411 0.84505 0.0
C609 C 0.53592 0.74373 0.86086 0.0
C610 C 0.55476 0.76583 0.87394 0.0
C611 C 0.58315 0.79839 0.87122 0.0
C612 C 0.59286 0.8089 0.85542 0.0
C613 C 0.55829 0.87213 0.78084 0.0
C614 C 0.58285 0.90468 0.78638 0.0
C615 C 0.55955 0.84857 0.78747 0.0
C616 C 0.58545 0.85703 0.79974 0.0
C617 C 0.60829 0.88906 0.8061 0.0
C618 C 0.60704 0.91277 0.79945 0.0
C619 C 0.59075 0.83296 0.80473 0.0
C620 C 0.58339 0.82288 0.8207 0.0
C621 C 0.60105 0.8186 0.79338 0.0
C622 C 0.61089 0.82936 0.77653 0.0
C623 C 0.63924 0.86202 0.77345 0.0
C624 C 0.64789 0.87211 0.75756 0.0
C625 C 0.6286 0.84971 0.74464 0.0
C626 C 0.60069 0.81715 0.74758 0.0
C627 C 0.59187 0.80694 0.76345 0.0
H628 H 0.63534 0.85757 0.73234 0.0
H629 H 0.54729 0.75774 0.88617 0.0
H630 H 0.8476 0.48193 0.20894 0.0
H631 H 0.7804 0.44133 0.20739 0.0
H632 H 0.794 0.36785 0.19386 0.0
H633 H 0.86167 0.40881 0.1954 0.0
H634 H 0.76329 0.37607 0.17033 0.0
H635 H 0.73332 0.35405 0.22472 0.0
H636 H 0.73625 0.36416 0.2542 0.0
H637 H 0.69987 0.42281 0.2481 0.0
H638 H 0.69726 0.41353 0.21857 0.0
H639 H 0.59664 0.33482 0.13383 0.0
H640 H 0.63121 0.32435 0.15157 0.0
H641 H 0.67556 0.41405 0.17846 0.0
H642 H 0.64169 0.42458 0.16098 0.0
H643 H 0.66065 0.36822 0.19858 0.0
H644 H 0.72135 0.40912 0.1458 0.0
H645 H 0.72391 0.40437 0.11611 0.0
H646 H 0.70667 0.31396 0.11991 0.0
H647 H 0.70358 0.31806 0.14963 0.0
C648 C 0.83628 0.45686 0.20647 0.0
C649 C 0.85964 0.44856 0.20188 0.0
C650 C 0.79771 0.43349 0.20564 0.0
C651 C 0.78203 0.40149 0.20033 0.0
C652 C 0.80545 0.39238 0.19789 0.0
C653 C 0.84405 0.4158 0.19869 0.0
C654 C 0.7438 0.38116 0.19333 0.0
C655 C 0.74026 0.37307 0.17671 0.0
C656 C 0.71374 0.3773 0.20155 0.0
C657 C 0.71499 0.38296 0.21936 0.0
C658 C 0.72609 0.36922 0.22964 0.0
C659 C 0.72769 0.37481 0.24638 0.0
C660 C 0.71821 0.39408 0.25302 0.0
C661 C 0.70709 0.4078 0.24294 0.0
C662 C 0.70544 0.4023 0.22619 0.0
C663 C 0.61355 0.35207 0.14363 0.0
C664 C 0.61641 0.38049 0.14601 0.0
C665 C 0.633 0.34596 0.15382 0.0
C666 C 0.65588 0.36839 0.16637 0.0
C667 C 0.65763 0.39612 0.16904 0.0
C668 C 0.63827 0.40216 0.15897 0.0
C669 C 0.68199 0.36599 0.17557 0.0
C670 C 0.68299 0.36956 0.19251 0.0
C671 C 0.71012 0.3662 0.16767 0.0
C672 C 0.71162 0.36361 0.14985 0.0
C673 C 0.71779 0.38811 0.14027 0.0
C674 C 0.71939 0.38556 0.12345 0.0
C675 C 0.71528 0.3588 0.11612 0.0
C676 C 0.70968 0.33459 0.1256 0.0
C677 C 0.70796 0.33699 0.14242 0.0
H678 H 0.71658 0.35689 0.10311 0.0
H679 H 0.71949 0.3984 0.26598 0.0
H680 H 0.44488 0.93967 0.47284 0.0
H681 H 0.3903 0.88293 0.47075 0.0
H682 H 0.45822 0.85375 0.48331 0.0
H683 H 0.51279 0.91054 0.4858 0.0
H684 H 0.37356 0.83507 0.45155 0.0
H685 H 0.40692 0.78274 0.50204 0.0
H686 H 0.44141 0.80074 0.52802 0.0
H687 H 0.42322 0.87257 0.53514 0.0
H688 H 0.38838 0.85483 0.50928 0.0
H689 H 0.26078 0.66619 0.44125 0.0
H690 H 0.31591 0.72125 0.44783 0.0
H691 H 0.25923 0.72767 0.48833 0.0
H692 H 0.20346 0.67238 0.48168 0.0
H693 H 0.33557 0.75776 0.49486 0.0
H694 H 0.26004 0.75843 0.45481 0.0
H695 H 0.22433 0.74108 0.42922 0.0
H696 H 0.32315 0.77467 0.4025 0.0
H697 H 0.35933 0.79172 0.42797 0.0
C698 C 0.44825 0.92122 0.4752 0.0
C699 C 0.48326 0.92974 0.47957 0.0
C700 C 0.41696 0.88872 0.47399 0.0
C701 C 0.41988 0.86392 0.47706 0.0
C702 C 0.45494 0.87235 0.48122 0.0
C703 C 0.48623 0.9049 0.48258 0.0
C704 C 0.38637 0.82934 0.47548 0.0
C705 C 0.36535 0.81827 0.46106 0.0
C706 C 0.37522 0.80726 0.48791 0.0
C707 C 0.39529 0.81759 0.50367 0.0
C708 C 0.41011 0.80225 0.5092 0.0
C709 C 0.42977 0.81244 0.52389 0.0
C710 C 0.43455 0.83781 0.53321 0.0
C711 C 0.41958 0.85298 0.52789 0.0
C712 C 0.39992 0.8429 0.51321 0.0
C713 C 0.26004 0.67919 0.45163 0.0
C714 C 0.22746 0.66506 0.46078 0.0
C715 C 0.29166 0.71064 0.45541 0.0
C716 C 0.29151 0.72878 0.46841 0.0
C717 C 0.25992 0.71412 0.47822 0.0
C718 C 0.2281 0.68251 0.47442 0.0
C719 C 0.32329 0.76368 0.47089 0.0
C720 C 0.34391 0.7747 0.48542 0.0
C721 C 0.3339 0.78591 0.45865 0.0
C722 C 0.31232 0.77608 0.44331 0.0
C723 C 0.2741 0.7619 0.44349 0.0
C724 C 0.25378 0.75214 0.429 0.0
C725 C 0.27144 0.7567 0.41424 0.0
C726 C 0.30949 0.77111 0.41394 0.0
C727 C 0.32993 0.78085 0.4284 0.0
H728 H 0.25566 0.74912 0.40304 0.0
H729 H 0.44982 0.84569 0.54457 0.0
H730 H 0.59998 0.35698 0.86049 0.0
H731 H 0.60963 0.31605 0.85348 0.0
H732 H 0.54525 0.28979 0.80962 0.0
H733 H 0.53618 0.33096 0.81636 0.0
H734 H 0.52315 0.23671 0.83083 0.0
H735 H 0.62939 0.32481 0.80216 0.0
H736 H 0.68791 0.37962 0.79897 0.0
H737 H 0.73842 0.36558 0.83771 0.0
H738 H 0.68026 0.31045 0.84096 0.0
H739 H 0.55041 0.13894 0.78204 0.0
H740 H 0.5469 0.18108 0.79347 0.0
H741 H 0.62811 0.2054 0.83008 0.0
H742 H 0.63223 0.16333 0.81844 0.0
H743 H 0.64367 0.25945 0.81599 0.0
H744 H 0.53924 0.16625 0.84049 0.0
H745 H 0.48151 0.11039 0.84158 0.0
H746 H 0.42615 0.1337 0.81051 0.0
H747 H 0.48372 0.18961 0.80904 0.0
C748 C 0.588 0.34248 0.84934 0.0
C749 C 0.5673 0.34706 0.83896 0.0
C750 C 0.59372 0.31933 0.84532 0.0
C751 C 0.57815 0.29999 0.83104 0.0
C752 C 0.55755 0.30457 0.82067 0.0
C753 C 0.55248 0.32811 0.82451 0.0
C754 C 0.5816 0.27379 0.82723 0.0
C755 C 0.54942 0.24161 0.82749 0.0
C756 C 0.61606 0.28027 0.82335 0.0
C757 C 0.65046 0.31374 0.82191 0.0
C758 C 0.65292 0.33353 0.81007 0.0
C759 C 0.6861 0.3645 0.80815 0.0
C760 C 0.71688 0.37606 0.81812 0.0
C761 C 0.71457 0.35658 0.82998 0.0
C762 C 0.68157 0.32542 0.83182 0.0
C763 C 0.56759 0.15327 0.79251 0.0
C764 C 0.59172 0.1479 0.7993 0.0
C765 C 0.56533 0.17718 0.79912 0.0
C766 C 0.587 0.19622 0.81272 0.0
C767 C 0.61105 0.1909 0.81961 0.0
C768 C 0.61319 0.16675 0.81303 0.0
C769 C 0.58503 0.2222 0.8193 0.0
C770 C 0.61745 0.25439 0.81959 0.0
C771 C 0.5507 0.21569 0.82368 0.0
C772 C 0.51592 0.18209 0.82457 0.0
C773 C 0.51485 0.15941 0.83379 0.0
C774 C 0.48213 0.12774 0.83449 0.0
C775 C 0.4502 0.11848 0.8261 0.0
C776 C 0.45091 0.14091 0.817 0.0
C777 C 0.48357 0.17261 0.81625 0.0
H778 H 0.4249 0.09395 0.82666 0.0
H779 H 0.74245 0.40016 0.8167 0.0
H780 H 0.5523 0.8416 0.49463 0.0
H781 H 0.54341 0.79089 0.49897 0.0
H782 H 0.64659 0.84397 0.52623 0.0
H783 H 0.65559 0.89442 0.52196 0.0
H784 H 0.6426 0.80155 0.50528 0.0
H785 H 0.56025 0.79988 0.54442 0.0
H786 H 0.50795 0.80051 0.55272 0.0
H787 H 0.43277 0.71471 0.52299 0.0
H788 H 0.48476 0.71383 0.51434 0.0
H789 H 0.6376 0.6957 0.55672 0.0
H790 H 0.6369 0.73713 0.54431 0.0
H791 H 0.53683 0.66299 0.51766 0.0
H792 H 0.5374 0.6211 0.53019 0.0
H793 H 0.53269 0.70987 0.53317 0.0
H794 H 0.61388 0.70725 0.49727 0.0
H795 H 0.66618 0.70644 0.4893 0.0
H796 H 0.74342 0.80003 0.51277 0.0
H797 H 0.69154 0.80121 0.5211 0.0
C798 C 0.57291 0.84237 0.50165 0.0
C799 C 0.60476 0.87208 0.50788 0.0
C800 C 0.56783 0.81339 0.5041 0.0
C801 C 0.59431 0.81359 0.51296 0.0
C802 C 0.62594 0.84321 0.51924 0.0
C803 C 0.63108 0.87207 0.51676 0.0
C804 C 0.5896 0.78321 0.51581 0.0
C805 C 0.61863 0.78157 0.51144 0.0
C806 C 0.55769 0.75658 0.52331 0.0
C807 C 0.52645 0.75701 0.52859 0.0
C808 C 0.53261 0.7813 0.53955 0.0
C809 C 0.50302 0.78168 0.54434 0.0
C810 C 0.46708 0.75771 0.53835 0.0
C811 C 0.46064 0.73328 0.52759 0.0
C812 C 0.49015 0.73283 0.52275 0.0
C813 C 0.61554 0.6882 0.54815 0.0
C814 C 0.58749 0.6552 0.54444 0.0
C815 C 0.61527 0.71189 0.541 0.0
C816 C 0.58693 0.70317 0.52999 0.0
C817 C 0.559 0.67022 0.5261 0.0
C818 C 0.55948 0.64638 0.53316 0.0
C819 C 0.58632 0.72883 0.52315 0.0
C820 C 0.55632 0.72958 0.52674 0.0
C821 C 0.61734 0.7547 0.51493 0.0
C822 C 0.64874 0.75422 0.5099 0.0
C823 C 0.64199 0.72756 0.50084 0.0
C824 C 0.67157 0.72705 0.49624 0.0
C825 C 0.7081 0.75315 0.50054 0.0
C826 C 0.71511 0.77983 0.50944 0.0
C827 C 0.68562 0.78045 0.51409 0.0
H828 H 0.73096 0.75271 0.49697 0.0
H829 H 0.44419 0.758 0.54209 0.0
H830 H 0.6577 0.48763 0.85806 0.0
H831 H 0.71186 0.48765 0.85876 0.0
H832 H 0.77179 0.57054 0.82884 0.0
H833 H 0.71827 0.57164 0.82895 0.0
H834 H 0.81912 0.57992 0.84799 0.0
H835 H 0.74106 0.44306 0.85679 0.0
H836 H 0.6791 0.39199 0.85006 0.0
H837 H 0.67052 0.4345 0.80878 0.0
H838 H 0.73241 0.48569 0.81519 0.0
H839 H 0.95187 0.56109 0.87414 0.0
H840 H 0.89786 0.5596 0.87005 0.0
H841 H 0.86866 0.4991 0.82687 0.0
H842 H 0.92211 0.49854 0.83165 0.0
H843 H 0.80648 0.47838 0.84068 0.0
H844 H 0.9085 0.58501 0.82739 0.0
H845 H 0.96959 0.63852 0.83079 0.0
H846 H 0.9317 0.65915 0.87374 0.0
H847 H 0.87052 0.60558 0.87072 0.0
C848 C 0.68235 0.50588 0.85158 0.0
C849 C 0.68315 0.52958 0.8434 0.0
C850 C 0.71354 0.50572 0.85186 0.0
C851 C 0.74649 0.52864 0.84355 0.0
C852 C 0.74724 0.5524 0.8354 0.0
C853 C 0.7163 0.55297 0.83541 0.0
C854 C 0.78016 0.52835 0.84361 0.0
C855 C 0.81606 0.55759 0.84637 0.0
C856 C 0.77735 0.49962 0.84105 0.0
C857 C 0.74122 0.46827 0.83656 0.0
C858 C 0.72605 0.44142 0.84622 0.0
C859 C 0.69084 0.41255 0.84253 0.0
C860 C 0.67078 0.41016 0.8291 0.0
C861 C 0.68599 0.43648 0.81924 0.0
C862 C 0.7211 0.46542 0.8229 0.0
C863 C 0.93402 0.54705 0.86378 0.0
C864 C 0.9418 0.52952 0.85339 0.0
C865 C 0.90299 0.54668 0.86129 0.0
C866 C 0.87866 0.52969 0.84795 0.0
C867 C 0.88656 0.51255 0.83729 0.0
C868 C 0.91764 0.51255 0.83993 0.0
C869 C 0.84532 0.52993 0.84548 0.0
C870 C 0.80951 0.5007 0.84225 0.0
C871 C 0.84832 0.55887 0.84706 0.0
C872 C 0.88501 0.59117 0.84889 0.0
C873 C 0.91327 0.60088 0.83761 0.0
C874 C 0.9479 0.63123 0.83947 0.0
C875 C 0.95454 0.65219 0.85249 0.0
C876 C 0.92652 0.64288 0.86367 0.0
C877 C 0.89185 0.61254 0.86188 0.0
H878 H 0.98138 0.67567 0.8539 0.0
H879 H 0.64367 0.38778 0.82618 0.0
H880 H 0.20327 0.61087 0.15274 0.0
H881 H 0.26213 0.66572 0.15345 0.0
H882 H 0.20234 0.70553 0.16155 0.0
H883 H 0.14331 0.6507 0.16124 0.0
H884 H 0.26326 0.73643 0.13638 0.0
H885 H 0.23814 0.70427 0.19238 0.0
H886 H 0.22336 0.66677 0.21384 0.0
H887 H 0.32209 0.67496 0.20305 0.0
H888 H 0.33717 0.7122 0.18136 0.0
H889 H 0.40511 0.89839 0.16434 0.0
H890 H 0.34945 0.84316 0.15796 0.0
H891 H 0.4102 0.80618 0.16915 0.0
H892 H 0.46511 0.86131 0.17634 0.0
H893 H 0.34923 0.77187 0.18312 0.0
H894 H 0.37905 0.80526 0.12907 0.0
H895 H 0.39536 0.83974 0.10592 0.0
H896 H 0.29204 0.82655 0.11028 0.0
H897 H 0.2753 0.79233 0.13362 0.0
C898 C 0.20258 0.63127 0.15461 0.0
C899 C 0.16858 0.62641 0.15704 0.0
C900 C 0.23625 0.66259 0.155 0.0
C901 C 0.23656 0.68965 0.15753 0.0
C902 C 0.20266 0.68495 0.15952 0.0
C903 C 0.16901 0.65361 0.15945 0.0
C904 C 0.27235 0.72278 0.15886 0.0
C905 C 0.28201 0.74445 0.14665 0.0
C906 C 0.2973 0.73268 0.17196 0.0
C907 C 0.28858 0.71075 0.18516 0.0
C908 C 0.25654 0.69788 0.19451 0.0
C909 C 0.24814 0.67672 0.20673 0.0
C910 C 0.27172 0.66843 0.20978 0.0
C911 C 0.30383 0.68138 0.20066 0.0
C912 C 0.31233 0.70254 0.18841 0.0
C913 C 0.40669 0.87845 0.16502 0.0
C914 C 0.43938 0.884 0.17063 0.0
C915 C 0.37489 0.84684 0.16136 0.0
C916 C 0.37542 0.8202 0.16291 0.0
C917 C 0.40879 0.82609 0.16788 0.0
C918 C 0.4403 0.85761 0.17184 0.0
C919 C 0.34064 0.78622 0.16063 0.0
C920 C 0.33094 0.76418 0.17271 0.0
C921 C 0.31612 0.77581 0.14719 0.0
C922 C 0.32608 0.79647 0.1332 0.0
C923 C 0.35993 0.80993 0.12518 0.0
C924 C 0.36923 0.82939 0.11201 0.0
C925 C 0.3448 0.8354 0.10666 0.0
C926 C 0.31096 0.8219 0.11446 0.0
C927 C 0.30153 0.80244 0.12764 0.0
H928 H 0.35204 0.85046 0.09646 0.0
H929 H 0.26516 0.65203 0.21924 0.0
H930 H 0.58006 0.20939 0.46518 0.0
H931 H 0.58716 0.2592 0.4722 0.0
H932 H 0.51794 0.21447 0.51382 0.0
H933 H 0.51068 0.16477 0.50687 0.0
H934 H 0.49786 0.24525 0.49804 0.0
H935 H 0.61395 0.27052 0.51694 0.0
H936 H 0.67242 0.2767 0.51397 0.0
H937 H 0.70912 0.34733 0.47813 0.0
H938 H 0.65062 0.34125 0.48073 0.0
H939 H 0.53702 0.37599 0.5474 0.0
H940 H 0.5316 0.32957 0.53547 0.0
H941 H 0.60002 0.38676 0.49574 0.0
H942 H 0.60651 0.4339 0.50795 0.0
H943 H 0.6211 0.3517 0.50722 0.0
H944 H 0.50703 0.32977 0.49017 0.0
H945 H 0.44856 0.32351 0.49331 0.0
H946 H 0.40791 0.24646 0.52566 0.0
H947 H 0.46636 0.25256 0.52291 0.0
C948 C 0.56662 0.21029 0.4759 0.0
C949 C 0.54472 0.18306 0.48544 0.0
C950 C 0.57067 0.23876 0.47989 0.0
C951 C 0.55326 0.24069 0.4936 0.0
C952 C 0.53147 0.21355 0.50314 0.0
C953 C 0.52728 0.1851 0.49912 0.0
C954 C 0.55724 0.27072 0.49806 0.0
C955 C 0.52482 0.26846 0.50018 0.0
C956 C 0.59243 0.30127 0.50035 0.0
C957 C 0.62774 0.30516 0.4989 0.0
C958 C 0.63438 0.2872 0.50834 0.0
C959 C 0.66754 0.29071 0.50674 0.0
C960 C 0.69442 0.31232 0.49583 0.0
C961 C 0.68825 0.33056 0.48655 0.0
C962 C 0.65511 0.32711 0.48809 0.0
C963 C 0.55108 0.37882 0.53616 0.0
C964 C 0.57234 0.40873 0.52867 0.0
C965 C 0.54765 0.35212 0.52926 0.0
C966 C 0.56508 0.35454 0.51461 0.0
C967 C 0.58623 0.38431 0.50703 0.0
C968 C 0.58966 0.41113 0.51394 0.0
C969 C 0.56167 0.32601 0.50756 0.0
C970 C 0.59417 0.32856 0.50492 0.0
C971 C 0.52653 0.29567 0.50479 0.0
C972 C 0.49122 0.29179 0.50642 0.0
C973 C 0.48573 0.31164 0.49805 0.0
C974 C 0.45257 0.3081 0.49974 0.0
C975 C 0.42457 0.28464 0.5097 0.0
C976 C 0.42963 0.26463 0.51796 0.0
C977 C 0.46276 0.26809 0.51632 0.0
H978 H 0.39891 0.28194 0.511 0.0
H979 H 0.72006 0.31498 0.4946 0.0
H980 H 0.51807 0.57586 0.83913 0.0
H981 H 0.46401 0.5762 0.83963 0.0
H982 H 0.39471 0.47753 0.85442 0.0
H983 H 0.44867 0.47696 0.8538 0.0
H984 H 0.35741 0.48406 0.83257 0.0
H985 H 0.42534 0.54517 0.88116 0.0
H986 H 0.48062 0.58882 0.89702 0.0
H987 H 0.4857 0.66012 0.86998 0.0
H988 H 0.43066 0.61686 0.85383 0.0
H989 H 0.20017 0.47384 0.861 0.0
H990 H 0.25428 0.47465 0.85603 0.0
H991 H 0.31901 0.57516 0.8445 0.0
H992 H 0.26461 0.57434 0.84987 0.0
H993 H 0.35985 0.5694 0.86328 0.0
H994 H 0.2912 0.50953 0.81536 0.0
H995 H 0.23699 0.46662 0.79875 0.0
H996 H 0.23427 0.39407 0.82333 0.0
H997 H 0.28818 0.43654 0.84024 0.0
C998 C 0.49141 0.55415 0.84254 0.0
C999 C 0.48828 0.5264 0.84649 0.0
C1000 C 0.46024 0.55443 0.84289 0.0
C1001 C 0.42467 0.52701 0.84726 0.0
C1002 C 0.42145 0.49916 0.85102 0.0
C1003 C 0.45263 0.4989 0.85072 0.0
C1004 C 0.391 0.52721 0.84786 0.0
C1005 C 0.35795 0.50256 0.83948 0.0
C1006 C 0.39128 0.55173 0.85639 0.0
C1007 C 0.4241 0.57777 0.86619 0.0
C1008 C 0.43838 0.57016 0.87854 0.0
C1009 C 0.46965 0.59483 0.88759 0.0
C1010 C 0.48672 0.62723 0.88448 0.0
C1011 C 0.47247 0.63502 0.87236 0.0
C1012 C 0.44122 0.61043 0.86327 0.0
C1013 C 0.22548 0.49579 0.85675 0.0
C1014 C 0.2273 0.52369 0.85528 0.0
C1015 C 0.25681 0.49635 0.854 0.0
C1016 C 0.29144 0.52489 0.84965 0.0
C1017 C 0.29303 0.55264 0.84775 0.0
C1018 C 0.26154 0.55206 0.85053 0.0
C1019 C 0.32601 0.52606 0.84806 0.0
C1020 C 0.35925 0.55094 0.85629 0.0
C1021 C 0.32598 0.50186 0.83929 0.0
C1022 C 0.29353 0.47622 0.82917 0.0
C1023 C 0.27886 0.48441 0.81731 0.0
C1024 C 0.24822 0.46017 0.80782 0.0
C1025 C 0.23214 0.42763 0.81001 0.0
C1026 C 0.24673 0.41928 0.82166 0.0
C1027 C 0.27735 0.44343 0.83119 0.0
H1028 H 0.20842 0.4089 0.80265 0.0
H1029 H 0.51094 0.6463 0.89149 0.0
H1030 H 0.9833 0.41086 0.13834 0.0
H1031 H 0.92717 0.35537 0.14163 0.0
H1032 H 0.89161 0.38939 0.18004 0.0
H1033 H 0.9483 0.44412 0.17747 0.0
H1034 H 0.88073 0.33882 0.18902 0.0
H1035 H 0.85163 0.36502 0.13961 0.0
H1036 H 0.86161 0.38267 0.11157 0.0
H1037 H 0.86201 0.30314 0.09554 0.0
H1038 H 0.85244 0.28522 0.12353 0.0
H1039 H 0.69481 0.20721 0.19728 0.0
H1040 H 0.74825 0.25935 0.18792 0.0
H1041 H 0.78247 0.211 0.15874 0.0
H1042 H 0.72855 0.15838 0.16811 0.0
H1043 H 0.79527 0.26606 0.14402 0.0
H1044 H 0.81978 0.23915 0.19469 0.0
H1045 H 0.80659 0.22234 0.2229 0.0
H1046 H 0.81236 0.30592 0.23679 0.0
H1047 H 0.82488 0.3229 0.20859 0.0
C1048 C 0.96343 0.4065 0.14744 0.0
C1049 C 0.97009 0.43217 0.15744 0.0
C1050 C 0.93111 0.37473 0.14923 0.0
C1051 C 0.90454 0.36804 0.1609 0.0
C1052 C 0.91135 0.39374 0.17087 0.0
C1053 C 0.94373 0.42525 0.16925 0.0
C1054 C 0.87036 0.33433 0.16335 0.0
C1055 C 0.86194 0.32319 0.17914 0.0
C1056 C 0.84603 0.31331 0.1505 0.0
C1057 C 0.85174 0.324 0.13368 0.0
C1058 C 0.85413 0.35144 0.13012 0.0
C1059 C 0.85965 0.36146 0.11424 0.0
C1060 C 0.86256 0.3441 0.10179 0.0
C1061 C 0.85982 0.3166 0.1052 0.0
C1062 C 0.85431 0.30649 0.12106 0.0
C1063 C 0.71331 0.20761 0.18863 0.0
C1064 C 0.70777 0.17876 0.18357 0.0
C1065 C 0.74387 0.23743 0.1833 0.0
C1066 C 0.7698 0.23916 0.17289 0.0
C1067 C 0.76289 0.21024 0.16683 0.0
C1068 C 0.73206 0.18021 0.17214 0.0
C1069 C 0.80554 0.27122 0.16967 0.0
C1070 C 0.81428 0.28186 0.1538 0.0
C1071 C 0.82998 0.29212 0.18248 0.0
C1072 C 0.82294 0.28213 0.19949 0.0
C1073 C 0.81796 0.25381 0.20373 0.0
C1074 C 0.81062 0.24426 0.21973 0.0
C1075 C 0.80855 0.26301 0.23162 0.0
C1076 C 0.81391 0.29139 0.22756 0.0
C1077 C 0.82114 0.301 0.21157 0.0
H1078 H 0.80288 0.25558 0.244 0.0
H1079 H 0.86685 0.3519 0.0895 0.0
H1080 H 1.05344 0.49689 0.11273 0.0
H1081 H 0.06183 0.49648 0.08345 0.0
H1082 H 0.07575 0.58607 0.0811 0.0
H1083 H 0.06767 0.58673 0.11041 0.0
H1084 H 1.02584 0.53923 0.05812 0.0
H1085 H 0.1503 0.58749 0.07764 0.0
H1086 H 0.19683 0.58973 0.09421 0.0
H1087 H 0.16547 0.5006 0.07125 0.0
H1088 H 0.11854 0.49774 0.0546 0.0
H1089 H 0.08494 0.58019 0.9789 0.0
H1090 H 0.08521 0.58209 0.00843 0.0
H1091 H 0.08347 0.49806 0.00824 0.0
H1092 H 0.0843 0.49671 0.97854 0.0
H1093 H 0.12637 0.53959 0.03265 0.0
H1094 H 1.00327 0.49067 0.01293 0.0
H1095 H 0.955 0.48617 0.99655 0.0
H1096 H 0.98034 0.57259 0.02036 0.0
H1097 H 1.02918 0.57789 0.03672 0.0
C1098 C 0.0585 0.51658 0.10597 0.0
C1099 C 0.06001 0.5419 0.1138 0.0
C1100 C 0.06338 0.51635 0.08927 0.0
C1101 C 0.06968 0.54137 0.08014 0.0
C1102 C 0.07097 0.56657 0.08795 0.0
C1103 C 0.06638 0.56694 0.10466 0.0
C1104 C 0.0739 0.54086 0.06238 0.0
C1105 C 1.04811 0.53976 0.05255 0.0
C1106 C 0.10218 0.54038 0.05514 0.0
C1107 C 0.1307 0.54226 0.06498 0.0
C1108 C 0.15317 0.56827 0.07619 0.0
C1109 C 0.17965 0.56967 0.08558 0.0
C1110 C 0.18401 0.54526 0.08383 0.0
C1111 C 0.16203 0.51948 0.07261 0.0
C1112 C 0.13554 0.51799 0.06317 0.0
C1113 C 0.08498 0.56232 0.98518 0.0
C1114 C 0.08413 0.53806 0.9765 0.0
C1115 C 0.08504 0.56336 0.00203 0.0
C1116 C 0.08342 0.53973 0.01055 0.0
C1117 C 0.0845 0.51642 0.00192 0.0
C1118 C 0.08497 0.51565 0.98499 0.0
C1119 C 0.07863 0.53853 0.02836 0.0
C1120 C 0.10411 0.53909 0.0382 0.0
C1121 C 1.04973 0.53811 0.03565 0.0
C1122 C 1.0201 0.53483 0.02595 0.0
C1123 C 0.99871 0.50883 0.0146 0.0
C1124 C 0.97123 0.50613 0.00533 0.0
C1125 C 0.96466 0.52912 0.00739 0.0
C1126 C 0.98549 0.55482 0.01876 0.0
C1127 C 1.01305 0.55767 0.02805 0.0
H1128 H 0.94338 0.52698 0.00019 0.0
H1129 H 0.20448 0.54636 0.09113 0.0
H1130 H 0.53798 0.01535 0.44135 0.0
H1131 H 0.53032 0.01593 0.41217 0.0
H1132 H 0.64253 0.04738 0.40492 0.0
H1133 H 0.65074 0.04817 0.43406 0.0
H1134 H 0.62978 0.07751 0.38556 0.0
H1135 H 0.56384 0.96623 0.39948 0.0
H1136 H 0.51775 0.91732 0.41434 0.0
H1137 H 0.42949 0.91719 0.39549 0.0
H1138 H 0.47514 0.96637 0.38069 0.0
H1139 H 0.56176 0.97482 0.30478 0.0
H1140 H 0.56657 0.97923 0.33427 0.0
H1141 H 0.57153 0.06487 0.33436 0.0
H1142 H 0.56711 0.06075 0.30481 0.0
H1143 H 0.52437 0.97681 0.35732 0.0
H1144 H 0.62732 0.11628 0.36558 0.0
H1145 H 0.67752 0.16323 0.35066 0.0
H1146 H 0.69906 0.10292 0.32466 0.0
H1147 H 0.64937 0.05575 0.33958 0.0
C1148 C 0.56109 0.02274 0.43351 0.0
C1149 C 0.59488 0.03156 0.43991 0.0
C1150 C 0.55664 0.02288 0.41685 0.0
C1151 C 0.58565 0.03118 0.4063 0.0
C1152 C 0.61974 0.04087 0.41278 0.0
C1153 C 0.62436 0.04117 0.42943 0.0
C1154 C 0.58034 0.02876 0.38849 0.0
C1155 C 0.60661 0.05554 0.37941 0.0
C1156 C 0.55044 0.99994 0.38039 0.0
C1157 C 0.52293 0.97015 0.38911 0.0
C1158 C 0.53462 0.95587 0.39858 0.0
C1159 C 0.50858 0.9281 0.40699 0.0
C1160 C 0.47073 0.91421 0.40589 0.0
C1161 C 0.45883 0.928 0.39635 0.0
C1162 C 0.48476 0.95581 0.38794 0.0
C1163 C 0.56362 0.99446 0.31109 0.0
C1164 C 0.5642 0.01751 0.30248 0.0
C1165 C 0.56637 0.99696 0.32794 0.0
C1166 C 0.56972 0.02252 0.33653 0.0
C1167 C 0.56961 0.04525 0.32798 0.0
C1168 C 0.56714 0.04291 0.3111 0.0
C1169 C 0.57389 0.02552 0.35441 0.0
C1170 C 0.54734 0.99888 0.3635 0.0
C1171 C 0.60409 0.05415 0.36248 0.0
C1172 C 0.63433 0.08244 0.35357 0.0
C1173 C 0.64285 0.11308 0.35671 0.0
C1174 C 0.67121 0.13973 0.34825 0.0
C1175 C 0.69137 0.13603 0.33668 0.0
C1176 C 0.68333 0.10572 0.33358 0.0
C1177 C 0.65504 0.07902 0.34203 0.0
H1178 H 0.71328 0.15668 0.33013 0.0
H1179 H 0.45062 0.89272 0.41242 0.0
H1180 H 0.51973 0.49001 0.79204 0.0
H1181 H 0.53173 0.50053 0.76325 0.0
H1182 H 0.65 0.56308 0.7731 0.0
H1183 H 0.6381 0.55281 0.80202 0.0
H1184 H 0.57114 0.55746 0.7455 0.0
H1185 H 0.68734 0.54321 0.74218 0.0
H1186 H 0.71074 0.51889 0.75746 0.0
H1187 H 0.60027 0.44621 0.77404 0.0
H1188 H 0.57619 0.46981 0.75868 0.0
H1189 H 0.64191 0.5852 0.66471 0.0
H1190 H 0.64114 0.58802 0.69429 0.0
H1191 H 0.57443 0.48397 0.69477 0.0
H1192 H 0.57391 0.48074 0.66531 0.0
H1193 H 0.6328 0.51531 0.71753 0.0
H1194 H 0.53313 0.51823 0.69934 0.0
H1195 H 0.50723 0.54055 0.68423 0.0
H1196 H 0.5795 0.6317 0.71056 0.0
H1197 H 0.60622 0.61002 0.72568 0.0
C1198 C 0.54827 0.5063 0.78808 0.0
C1199 C 0.578 0.5204 0.79917 0.0
C1200 C 0.55507 0.51243 0.77167 0.0
C1201 C 0.59172 0.53241 0.76607 0.0
C1202 C 0.62152 0.54747 0.77721 0.0
C1203 C 0.6147 0.54161 0.79368 0.0
C1204 C 0.59841 0.53533 0.74846 0.0
C1205 C 0.58499 0.5486 0.73939 0.0
C1206 C 0.61617 0.52348 0.74051 0.0
C1207 C 0.6301 0.50852 0.74944 0.0
C1208 C 0.66806 0.52196 0.74904 0.0
C1209 C 0.68143 0.50831 0.75771 0.0
C1210 C 0.65703 0.4811 0.76677 0.0
C1211 C 0.61917 0.46736 0.76708 0.0
C1212 C 0.60566 0.48088 0.7584 0.0
C1213 C 0.62684 0.56288 0.67109 0.0
C1214 C 0.6079 0.53272 0.66257 0.0
C1215 C 0.62667 0.56458 0.68799 0.0
C1216 C 0.60771 0.53619 0.69668 0.0
C1217 C 0.58949 0.50617 0.68827 0.0
C1218 C 0.58936 0.50441 0.67141 0.0
C1219 C 0.60548 0.53741 0.71453 0.0
C1220 C 0.61966 0.52482 0.72365 0.0
C1221 C 0.58818 0.54969 0.72251 0.0
C1222 C 0.57196 0.56263 0.7135 0.0
C1223 C 0.54371 0.54311 0.70181 0.0
C1224 C 0.52885 0.55563 0.69326 0.0
C1225 C 0.54179 0.58755 0.6964 0.0
C1226 C 0.56955 0.60699 0.70812 0.0
C1227 C 0.58456 0.5946 0.71669 0.0
H1228 H 0.53024 0.5972 0.68977 0.0
H1229 H 0.66745 0.47062 0.77351 0.0
H1230 H 0.50652 0.9881 0.53315 0.0
H1231 H 0.51383 0.98721 0.56228 0.0
H1232 H 0.63156 0.06456 0.55883 0.0
H1233 H 0.62455 0.06397 0.52951 0.0
H1234 H 0.62345 0.02663 0.57987 0.0
H1235 H 0.5647 0.07682 0.57158 0.0
H1236 H 0.51775 0.08186 0.56091 0.0
H1237 H 0.43181 0.99784 0.58599 0.0
H1238 H 0.47821 0.99205 0.59665 0.0
H1239 H 0.64615 0.08679 0.66265 0.0
H1240 H 0.64091 0.08131 0.63301 0.0
H1241 H 0.53712 0.98563 0.63619 0.0
H1242 H 0.54261 0.99072 0.6658 0.0
H1243 H 0.53837 0.03228 0.6158 0.0
H1244 H 0.60282 0.98616 0.62495 0.0
H1245 H 0.65351 0.9866 0.6361 0.0
H1246 H 0.73375 0.07105 0.60982 0.0
H1247 H 0.68356 0.0714 0.5987 0.0
C1248 C 0.53397 1.00467 0.53864 0.0
C1249 C 0.5649 0.02634 0.52921 0.0
C1250 C 0.53812 1.00433 0.55529 0.0
C1251 C 0.57308 0.02648 0.56288 0.0
C1252 C 0.60426 0.04737 0.55331 0.0
C1253 C 0.60025 0.04711 0.53658 0.0
C1254 C 0.57692 0.02846 0.58079 0.0
C1255 C 0.60506 0.02823 0.58768 0.0
C1256 C 0.55283 0.03032 0.5911 0.0
C1257 C 0.52488 0.03382 0.58478 0.0
C1258 C 0.53575 0.0593 0.57474 0.0
C1259 C 0.50925 0.0623 0.5687 0.0
C1260 C 0.47181 0.04014 0.57273 0.0
C1261 C 0.46081 0.01497 0.58285 0.0
C1262 C 0.4872 0.01183 0.58891 0.0
C1263 C 0.62235 0.06457 0.65698 0.0
C1264 C 0.59478 0.03915 0.66643 0.0
C1265 C 0.61947 0.06143 0.64012 0.0
C1266 C 0.58869 0.03304 0.6325 0.0
C1267 C 0.5611 1.00766 0.6419 0.0
C1268 C 0.56433 0.01054 0.65875 0.0
C1269 C 0.58461 0.03031 0.6147 0.0
C1270 C 0.55655 0.03055 0.6079 0.0
C1271 C 0.6093 0.02929 0.60452 0.0
C1272 C 0.63946 0.029 0.61113 0.0
C1273 C 0.63131 1.00501 0.62168 0.0
C1274 C 0.65994 1.00507 0.62796 0.0
C1275 C 0.69684 0.02889 0.62371 0.0
C1276 C 0.70516 0.05264 0.61313 0.0
C1277 C 0.67663 0.0527 0.60682 0.0
H1278 H 0.71897 0.02889 0.62859 0.0
H1279 H 0.45133 0.0425 0.56805 0.0
H1280 H 0.53575 0.49504 0.88526 0.0
H1281 H 0.52527 0.47395 0.91231 0.0
H1282 H 0.64294 0.54176 0.92301 0.0
H1283 H 0.65361 0.56288 0.89587 0.0
H1284 H 0.61048 0.47906 0.93361 0.0
H1285 H 0.58791 0.55899 0.93677 0.0
H1286 H 0.55838 0.58359 0.92815 0.0
H1287 H 0.45043 0.49599 0.93785 0.0
H1288 H 0.47931 0.4707 0.94631 0.0
H1289 H 0.60613 0.47747 0.01973 0.0
H1290 H 0.61594 0.48874 0.99094 0.0
H1291 H 0.49724 0.43383 0.98352 0.0
H1292 H 0.48769 0.42378 0.01242 0.0
H1293 H 0.52951 0.4883 0.97056 0.0
H1294 H 0.55011 0.40815 0.96839 0.0
H1295 H 0.57789 0.38167 0.97631 0.0
H1296 H 0.68644 0.46604 0.96424 0.0
H1297 H 0.65937 0.49322 0.95644 0.0
C1298 C 0.55939 0.50535 0.89337 0.0
C1299 C 0.59546 0.53071 0.88857 0.0
C1300 C 0.55337 0.49331 0.90879 0.0
C1301 C 0.58331 0.50648 0.91968 0.0
C1302 C 0.6195 0.53129 0.91477 0.0
C1303 C 0.62552 0.54344 0.89934 0.0
C1304 C 0.57658 0.49526 0.93641 0.0
C1305 C 0.5931 0.48131 0.94179 0.0
C1306 C 0.55311 0.49749 0.94687 0.0
C1307 C 0.53576 0.51286 0.94203 0.0
C1308 C 0.55786 0.5449 0.93696 0.0
C1309 C 0.54124 0.55898 0.93211 0.0
C1310 C 0.50254 0.54134 0.9324 0.0
C1311 C 0.4804 0.50961 0.9376 0.0
C1312 C 0.49688 0.49541 0.94244 0.0
C1313 C 0.58217 0.46722 0.01183 0.0
C1314 C 0.54619 0.44977 0.0182 0.0
C1315 C 0.58774 0.4736 0.99538 0.0
C1316 C 0.5573 0.462 0.98498 0.0
C1317 C 0.52118 0.44318 0.99128 0.0
C1318 C 0.51569 0.4373 0.00775 0.0
C1319 C 0.56322 0.47174 0.96791 0.0
C1320 C 0.54668 0.48566 0.96243 0.0
C1321 C 0.58637 0.46914 0.95734 0.0
C1322 C 0.60273 0.45282 0.96196 0.0
C1323 C 0.57994 0.42115 0.96753 0.0
C1324 C 0.59555 0.406 0.97198 0.0
C1325 C 0.63392 0.42219 0.97082 0.0
C1326 C 0.65673 0.45354 0.96515 0.0
C1327 C 0.64126 0.46882 0.9607 0.0
H1328 H 0.64595 0.41042 0.97427 0.0
H1329 H 0.48973 0.55227 0.92863 0.0
H1330 H 0.05918 0.46787 0.20152 0.0
H1331 H 1.05023 0.46794 0.23076 0.0
H1332 H 0.08637 0.56616 0.23009 0.0
H1333 H 0.09634 0.56644 0.20094 0.0
H1334 H 0.11886 0.55881 0.25424 0.0
H1335 H 0.99516 0.50201 0.23277 0.0
H1336 H 0.94091 0.4596 0.21605 0.0
H1337 H 0.92855 0.38617 0.24415 0.0
H1338 H 0.98356 0.42804 0.26073 0.0
H1339 H 0.06893 0.57137 0.33295 0.0
H1340 H 0.06623 0.56676 0.30343 0.0
H1341 H 1.03748 0.47115 0.30487 0.0
H1342 H 1.04037 0.47565 0.33447 0.0
H1343 H 0.99909 0.4763 0.28032 0.0
H1344 H 0.12481 0.53214 0.29994 0.0
H1345 H 0.18084 0.57388 0.31601 0.0
H1346 H 0.18897 0.64855 0.29089 0.0
H1347 H 0.1326 0.60722 0.27484 0.0
C1348 C 0.06524 0.48945 0.20765 0.0
C1349 C 0.07807 0.51704 0.19903 0.0
C1350 C 0.05987 0.48939 0.22431 0.0
C1351 C 0.06707 0.51688 0.23255 0.0
C1352 C 0.0804 0.54462 0.22394 0.0
C1353 C 0.08588 0.54471 0.20731 0.0
C1354 C 0.06181 0.51713 0.25024 0.0
C1355 C 0.09248 0.54107 0.2599 0.0
C1356 C 1.02759 0.49344 0.25763 0.0
C1357 C 0.9938 0.46823 0.24793 0.0
C1358 C 0.98109 0.47683 0.23534 0.0
C1359 C 0.95017 0.45288 0.22588 0.0
C1360 C 0.93126 0.42024 0.22905 0.0
C1361 C 0.94323 0.41147 0.2417 0.0
C1362 C 0.97434 0.43531 0.25112 0.0
C1363 C 0.06182 0.54928 0.32699 0.0
C1364 C 1.05541 0.52407 0.33603 0.0
C1365 C 0.06009 0.54662 0.31014 0.0
C1366 C 1.05216 0.5188 0.30199 0.0
C1367 C 1.04362 0.49281 0.31095 0.0
C1368 C 1.04529 0.49543 0.32785 0.0
C1369 C 1.05608 0.51814 0.28421 0.0
C1370 C 1.02529 0.49411 0.27458 0.0
C1371 C 0.09019 0.5417 0.27676 0.0
C1372 C 0.12427 0.5666 0.28631 0.0
C1373 C 0.13838 0.55746 0.29793 0.0
C1374 C 0.17022 0.58105 0.30703 0.0
C1375 C 0.18839 0.61385 0.30451 0.0
C1376 C 0.17482 0.62314 0.29285 0.0
C1377 C 0.14294 0.59964 0.28375 0.0
H1378 H 0.21305 0.63208 0.31155 0.0
H1379 H 0.90732 0.40176 0.2217 0.0
loop_
_geom_bond_atom_site_label_1
_geom_bond_atom_site_label_2
_geom_bond_distance
_geom_bond_site_symmetry_2
_ccdc_geom_bond_type
La0 C2 2.928 . S
La0 O20 2.521 . S
La0 O21 2.628 . S
La0 O22 2.554 . S
La0 O23 2.757 . S
La0 O24 2.470 . S
La0 O29 2.482 . S
La0 O31 2.503 1_455 S
La1 C11 2.928 . S
La1 O23 2.482 1_655 S
La1 O25 2.503 1_655 S
La1 O26 2.521 . S
La1 O27 2.628 . S
La1 O28 2.551 1_655 S
La1 O29 2.757 1_655 S
La1 O30 2.470 . S
C2 La0 2.928 . S
C2 C3 1.503 . S
C2 O20 1.261 . S
C2 O21 1.243 . S
C3 C2 1.503 . S
C3 C4 1.394 . S
C3 C8 1.373 . S
C4 C3 1.394 . S
C4 C5 1.380 . S
C4 H32 0.930 . S
C5 C4 1.380 . S
C5 C6 1.376 . S
C5 H33 0.930 . S
C6 C5 1.376 . S
C6 C7 1.370 . S
C7 C6 1.370 . S
C7 C8 1.396 . S
C7 H34 0.929 . S
C8 C3 1.373 . S
C8 C7 1.396 . S
C8 H35 0.929 . S
C9 O22 1.240 . S
C9 O23 1.289 . S
C10 O24 1.258 . S
C10 O25 1.256 . S
C11 La1 2.928 . S
C11 C12 1.503 . S
C11 O26 1.261 . S
C11 O27 1.243 . S
C12 C11 1.503 . S
C12 C13 1.394 . S
C12 C17 1.373 . S
C13 C12 1.394 . S
C13 C14 1.380 . S
C13 H36 0.930 . S
C14 C13 1.380 . S
C14 C15 1.376 . S
C14 H37 0.930 . S
C15 C14 1.376 . S
C15 C16 1.370 . S
C16 C15 1.370 . S
C16 C17 1.396 . S
C16 H38 0.929 . S
C17 C12 1.373 . S
C17 C16 1.396 . S
C17 H39 0.929 . S
C18 O28 1.253 . S
C18 O29 1.289 . S
C19 O30 1.258 . S
C19 O31 1.256 . S
O20 La0 2.521 . S
O20 C2 1.261 . S
O21 La0 2.628 . S
O21 C2 1.243 . S
O22 La0 2.554 . S
O22 C9 1.240 . S
O23 La0 2.757 . S
O23 La1 2.482 1_455 S
O23 C9 1.289 . S
O24 La0 2.470 . S
O24 C10 1.258 . S
O25 La1 2.503 1_455 S
O25 C10 1.256 . S
O26 La1 2.521 . S
O26 C11 1.261 . S
O27 La1 2.628 . S
O27 C11 1.243 . S
O28 La1 2.551 1_455 S
O28 C18 1.253 . S
O29 La0 2.482 . S
O29 La1 2.757 1_455 S
O29 C18 1.289 . S
O30 La1 2.470 . S
O30 C19 1.258 . S
O31 La0 2.503 1_655 S
O31 C19 1.256 . S
H32 C4 0.930 . S
H33 C5 0.930 . S
H34 C7 0.929 . S
H35 C8 0.929 . S
H36 C13 0.930 . S
H37 C14 0.930 . S
H38 C16 0.929 . S
H39 C17 0.929 . S
La40 C42 2.928 . S
La40 O60 2.521 . S
La40 O61 2.628 . S
La40 O62 2.554 . S
La40 O63 2.757 1_565 S
La40 O64 2.470 . S
La40 O69 2.491 . S
La40 O71 2.503 1_565 S
La41 C51 2.928 . S
La41 O63 2.482 . S
La41 O65 2.503 1_545 S
La41 O66 2.521 . S
La41 O67 2.628 . S
La41 O68 2.554 . S
La41 O69 2.743 1_545 S
La41 O70 2.470 . S
C42 La40 2.928 . S
C42 C43 1.503 . S
C42 O60 1.261 . S
C42 O61 1.243 . S
C43 C42 1.503 . S
C43 C44 1.394 . S
C43 C48 1.373 . S
C44 C43 1.394 . S
C44 C45 1.380 . S
C44 H72 0.930 . S
C45 C44 1.380 . S
C45 C46 1.376 . S
C45 H73 0.930 . S
C46 C45 1.376 . S
C46 C47 1.370 . S
C47 C46 1.370 . S
C47 C48 1.396 . S
C47 H74 0.929 . S
C48 C43 1.373 . S
C48 C47 1.396 . S
C48 H75 0.929 . S
C49 O62 1.240 1_545 S
C49 O63 1.289 . S
C50 O64 1.258 . S
C50 O65 1.256 . S
C51 La41 2.928 . S
C51 C52 1.503 . S
C51 O66 1.261 . S
C51 O67 1.243 . S
C52 C51 1.503 . S
C52 C53 1.394 . S
C52 C57 1.373 . S
C53 C52 1.394 . S
C53 C54 1.380 . S
C53 H76 0.930 . S
C54 C53 1.380 . S
C54 C55 1.376 . S
C54 H77 0.930 . S
C55 C54 1.376 . S
C55 C56 1.370 . S
C56 C55 1.370 . S
C56 C57 1.396 . S
C56 H78 0.929 . S
C57 C52 1.373 . S
C57 C56 1.396 . S
C57 H79 0.929 . S
C58 O68 1.240 . S
C58 O69 1.282 1_545 S
C59 O70 1.258 . S
C59 O71 1.256 . S
O60 La40 2.521 . S
O60 C42 1.261 . S
O61 La40 2.628 . S
O61 C42 1.243 . S
O62 La40 2.554 . S
O62 C49 1.240 1_565 S
O63 La40 2.757 1_545 S
O63 La41 2.482 . S
O63 C49 1.289 . S
O64 La40 2.470 . S
O64 C50 1.258 . S
O65 La41 2.503 1_565 S
O65 C50 1.256 . S
O66 La41 2.521 . S
O66 C51 1.261 . S
O67 La41 2.628 . S
O67 C51 1.243 . S
O68 La41 2.554 . S
O68 C58 1.240 . S
O69 La40 2.491 . S
O69 La41 2.743 1_565 S
O69 C58 1.282 1_565 S
O70 La41 2.470 . S
O70 C59 1.258 . S
O71 La40 2.503 1_545 S
O71 C59 1.256 . S
H72 C44 0.930 . S
H73 C45 0.930 . S
H74 C47 0.929 . S
H75 C48 0.929 . S
H76 C53 0.930 . S
H77 C54 0.930 . S
H78 C56 0.929 . S
H79 C57 0.929 . S
La80 C82 2.928 . S
La80 O100 2.521 . S
La80 O101 2.628 . S
La80 O102 2.554 . S
La80 O103 2.757 . S
La80 O104 2.470 . S
La80 O109 2.482 . S
La80 O111 2.503 . S
La81 C91 2.928 . S
La81 O103 2.482 . S
La81 O105 2.503 . S
La81 O106 2.521 . S
La81 O107 2.628 . S
La81 O108 2.554 . S
La81 O109 2.757 . S
La81 O110 2.470 . S
C82 La80 2.928 . S
C82 C83 1.503 . S
C82 O100 1.261 . S
C82 O101 1.243 . S
C83 C82 1.503 . S
C83 C84 1.394 . S
C83 C88 1.373 . S
C84 C83 1.394 . S
C84 C85 1.380 . S
C84 H112 0.930 . S
C85 C84 1.380 . S
C85 C86 1.376 . S
C85 H113 0.930 . S
C86 C85 1.376 . S
C86 C87 1.370 . S
C87 C86 1.370 . S
C87 C88 1.396 . S
C87 H114 0.929 . S
C88 C83 1.373 . S
C88 C87 1.396 . S
C88 H115 0.929 . S
C89 O102 1.240 . S
C89 O103 1.289 . S
C90 O104 1.258 . S
C90 O105 1.256 . S
C91 La81 2.928 . S
C91 C92 1.503 . S
C91 O106 1.261 . S
C91 O107 1.243 . S
C92 C91 1.503 . S
C92 C93 1.394 . S
C92 C97 1.373 . S
C93 C92 1.394 . S
C93 C94 1.380 . S
C93 H116 0.930 . S
C94 C93 1.380 . S
C94 C95 1.376 . S
C94 H117 0.930 . S
C95 C94 1.376 . S
C95 C96 1.370 . S
C96 C95 1.370 . S
C96 C97 1.396 . S
C96 H118 0.929 . S
C97 C92 1.373 . S
C97 C96 1.396 . S
C97 H119 0.929 . S
C98 O108 1.240 . S
C98 O109 1.289 . S
C99 O110 1.258 . S
C99 O111 1.256 . S
O100 La80 2.521 . S
O100 C82 1.261 . S
O101 La80 2.628 . S
O101 C82 1.243 . S
O102 La80 2.554 . S
O102 C89 1.240 . S
O103 La80 2.757 . S
O103 La81 2.482 . S
O103 C89 1.289 . S
O104 La80 2.470 . S
O104 C90 1.258 . S
O105 La81 2.503 . S
O105 C90 1.256 . S
O106 La81 2.521 . S
O106 C91 1.261 . S
O107 La81 2.628 . S
O107 C91 1.243 . S
O108 La81 2.554 . S
O108 C98 1.240 . S
O109 La80 2.482 . S
O109 La81 2.757 . S
O109 C98 1.289 . S
O110 La81 2.470 . S
O110 C99 1.258 . S
O111 La80 2.503 . S
O111 C99 1.256 . S
H112 C84 0.930 . S
H113 C85 0.930 . S
H114 C87 0.929 . S
H115 C88 0.929 . S
H116 C93 0.930 . S
H117 C94 0.930 . S
H118 C96 0.929 . S
H119 C97 0.929 . S
C120 C121 1.391 . S
C120 C124 1.391 . S
C120 H162 0.948 . S
C121 C120 1.391 . S
C121 C122 1.391 . S
C122 C121 1.391 . S
C122 H178 0.947 . S
C122 C179 1.392 . S
C123 C124 1.391 . S
C123 C127 1.397 . S
C123 C179 1.419 . S
C124 C120 1.391 . S
C124 C123 1.391 . S
C124 C125 1.399 . S
C125 C124 1.399 . S
C125 C128 1.396 . S
C125 C137 1.453 . S
C125 C138 1.684 . S
H126 C150 0.948 . S
C127 C123 1.397 . S
C127 C128 1.394 . S
C127 C146 1.723 . S
C128 C125 1.396 . S
C128 C127 1.394 . S
C128 C158 1.723 1_545 S
H129 C152 0.947 . S
H130 C153 0.948 . S
H131 C159 0.982 . S
H132 C160 0.979 . S
H133 C160 0.980 . S
H134 C160 0.983 . S
H135 C159 0.979 . S
H136 C159 0.977 . S
C137 C125 1.453 . S
C137 H166 0.982 . S
C137 H167 0.979 . S
C137 H168 0.967 1_545 S
C138 C125 1.684 . S
C138 H163 0.979 . S
C138 H164 0.980 . S
C138 H165 0.983 . S
C139 C140 1.391 . S
C139 C144 1.391 . S
C139 H169 0.948 . S
C140 C139 1.391 . S
C140 C141 1.391 1_545 S
C141 C140 1.391 1_565 S
C141 C142 1.392 . S
C141 H170 0.947 . S
C142 C141 1.392 . S
C142 C143 1.419 1_565 S
C142 H171 0.948 . S
C143 C142 1.419 1_545 S
C143 C144 1.391 . S
C143 C147 1.397 . S
C144 C139 1.391 . S
C144 C143 1.391 . S
C144 C145 1.399 . S
C145 C144 1.399 . S
C145 C146 1.396 . S
C145 C148 1.453 . S
C145 C149 1.684 . S
C146 C127 1.723 . S
C146 C145 1.396 . S
C146 C147 1.394 . S
C147 C143 1.397 . S
C147 C146 1.394 . S
C147 C157 1.723 1_545 S
C148 C145 1.453 . S
C148 H172 0.982 . S
C148 H173 0.979 . S
C148 H174 0.977 . S
C149 C145 1.684 . S
C149 H175 0.979 . S
C149 H176 0.980 . S
C149 H177 0.983 . S
C150 H126 0.948 . S
C150 C151 1.391 . S
C150 C155 1.391 . S
C151 C150 1.391 . S
C151 C152 1.391 . S
C152 H129 0.947 . S
C152 C151 1.391 . S
C152 C153 1.392 . S
C153 H130 0.948 . S
C153 C152 1.392 . S
C153 C154 1.419 . S
C154 C153 1.419 . S
C154 C155 1.391 . S
C154 C158 1.397 . S
C155 C150 1.391 . S
C155 C154 1.391 . S
C155 C156 1.399 . S
C156 C155 1.399 . S
C156 C157 1.396 . S
C156 C159 1.453 . S
C156 C160 1.684 . S
C157 C147 1.723 1_565 S
C157 C156 1.396 . S
C157 C158 1.394 . S
C158 C128 1.723 1_565 S
C158 C154 1.397 . S
C158 C157 1.394 . S
C159 H131 0.982 . S
C159 H135 0.979 . S
C159 H136 0.977 . S
C159 C156 1.453 . S
C160 H132 0.979 . S
C160 H133 0.980 . S
C160 H134 0.983 . S
C160 C156 1.684 . S
H161 C179 0.948 . S
H162 C120 0.948 . S
H163 C138 0.979 . S
H164 C138 0.980 . S
H165 C138 0.983 . S
H166 C137 0.982 . S
H167 C137 0.979 . S
H168 C137 0.967 1_565 S
H169 C139 0.948 . S
H170 C141 0.947 . S
H171 C142 0.948 . S
H172 C148 0.982 . S
H173 C148 0.979 . S
H174 C148 0.977 . S
H175 C149 0.979 . S
H176 C149 0.980 . S
H177 C149 0.983 . S
H178 C122 0.947 . S
C179 C122 1.392 . S
C179 C123 1.419 . S
C179 H161 0.948 . S
C180 C181 1.391 . S
C180 C184 1.391 . S
C180 H222 0.948 . S
C181 C180 1.391 . S
C181 C182 1.391 . S
C182 C181 1.391 . S
C182 H238 0.947 . S
C182 C239 1.392 . S
C183 C184 1.391 . S
C183 C187 1.397 . S
C183 C239 1.419 . S
C184 C180 1.391 . S
C184 C183 1.391 . S
C184 C185 1.399 . S
C185 C184 1.399 . S
C185 C188 1.396 . S
C185 C197 1.453 . S
C185 C198 1.684 . S
H186 C210 0.948 . S
C187 C183 1.397 . S
C187 C188 1.394 . S
C187 C206 1.723 . S
C188 C185 1.396 . S
C188 C187 1.394 . S
C188 C218 1.723 . S
H189 C212 0.947 . S
H190 C213 0.948 . S
H191 C219 0.982 . S
H192 C220 0.979 . S
H193 C220 0.980 . S
H194 C220 0.983 . S
H195 C219 0.979 . S
H196 C219 0.977 . S
C197 C185 1.453 . S
C197 H226 0.982 . S
C197 H227 0.979 . S
C197 H228 0.977 . S
C198 C185 1.684 . S
C198 H223 0.979 . S
C198 H224 0.980 . S
C198 H225 0.983 . S
C199 C200 1.391 . S
C199 C204 1.391 . S
C199 H229 0.948 . S
C200 C199 1.391 . S
C200 C201 1.391 . S
C201 C200 1.391 . S
C201 C202 1.392 . S
C201 H230 0.947 . S
C202 C201 1.392 . S
C202 C203 1.419 . S
C202 H231 0.948 . S
C203 C202 1.419 . S
C203 C204 1.391 . S
C203 C207 1.397 . S
C204 C199 1.391 . S
C204 C203 1.391 . S
C204 C205 1.399 . S
C205 C204 1.399 . S
C205 C206 1.396 . S
C205 C208 1.453 . S
C205 C209 1.684 . S
C206 C187 1.723 . S
C206 C205 1.396 . S
C206 C207 1.394 . S
C207 C203 1.397 . S
C207 C206 1.394 . S
C207 C217 1.723 . S
C208 C205 1.453 . S
C208 H232 0.982 . S
C208 H233 0.979 . S
C208 H234 0.977 . S
C209 C205 1.684 . S
C209 H235 0.979 . S
C209 H236 0.980 . S
C209 H237 0.983 . S
C210 H186 0.948 . S
C210 C211 1.391 . S
C210 C215 1.391 . S
C211 C210 1.391 . S
C211 C212 1.391 . S
C212 H189 0.947 . S
C212 C211 1.391 . S
C212 C213 1.392 . S
C213 H190 0.948 . S
C213 C212 1.392 . S
C213 C214 1.419 . S
C214 C213 1.419 . S
C214 C215 1.391 . S
C214 C218 1.397 . S
C215 C210 1.391 . S
C215 C214 1.391 . S
C215 C216 1.399 . S
C216 C215 1.399 . S
C216 C217 1.396 . S
C216 C219 1.453 . S
C216 C220 1.684 . S
C217 C207 1.723 . S
C217 C216 1.396 . S
C217 C218 1.394 . S
C218 C188 1.723 . S
C218 C214 1.397 . S
C218 C217 1.394 . S
C219 H191 0.982 . S
C219 H195 0.979 . S
C219 H196 0.977 . S
C219 C216 1.453 . S
C220 H192 0.979 . S
C220 H193 0.980 . S
C220 H194 0.983 . S
C220 C216 1.684 . S
H221 C239 0.948 . S
H222 C180 0.948 . S
H223 C198 0.979 . S
H224 C198 0.980 . S
H225 C198 0.983 . S
H226 C197 0.982 . S
H227 C197 0.979 . S
H228 C197 0.977 . S
H229 C199 0.948 . S
H230 C201 0.947 . S
H231 C202 0.948 . S
H232 C208 0.982 . S
H233 C208 0.979 . S
H234 C208 0.977 . S
H235 C209 0.979 . S
H236 C209 0.980 . S
H237 C209 0.983 . S
H238 C182 0.947 . S
C239 C182 1.392 . S
C239 C183 1.419 . S
C239 H221 0.948 . S
C240 C241 1.391 . S
C240 C244 1.391 . S
C240 H282 0.948 . S
C241 C240 1.391 . S
C241 C242 1.391 . S
C242 C241 1.391 . S
C242 H298 0.947 . S
C242 C299 1.392 . S
C243 C244 1.391 . S
C243 C247 1.397 . S
C243 C299 1.419 . S
C244 C240 1.391 . S
C244 C243 1.391 . S
C244 C245 1.399 . S
C245 C244 1.399 . S
C245 C248 1.396 . S
C245 C257 1.453 . S
C245 C258 1.684 . S
H246 C270 0.948 . S
C247 C243 1.397 . S
C247 C248 1.394 . S
C247 C266 1.723 . S
C248 C245 1.396 . S
C248 C247 1.394 . S
C248 C278 1.723 . S
H249 C272 0.947 . S
H250 C273 0.948 . S
H251 C279 0.982 . S
H252 C280 0.979 1_455 S
H253 C280 0.980 . S
H254 C280 0.983 . S
H255 C279 0.979 . S
H256 C279 0.977 . S
C257 C245 1.453 . S
C257 H286 0.982 . S
C257 H287 0.979 . S
C257 H288 0.977 . S
C258 C245 1.684 . S
C258 H283 0.979 . S
C258 H284 0.980 . S
C258 H285 0.983 . S
C259 C260 1.391 . S
C259 C264 1.391 . S
C259 H289 0.948 . S
C260 C259 1.391 . S
C260 C261 1.391 . S
C261 C260 1.391 . S
C261 C262 1.392 . S
C261 H290 0.947 1_455 S
C262 C261 1.392 . S
C262 C263 1.419 . S
C262 H291 0.948 1_455 S
C263 C262 1.419 . S
C263 C264 1.391 . S
C263 C267 1.397 . S
C264 C259 1.391 . S
C264 C263 1.391 . S
C264 C265 1.399 . S
C265 C264 1.399 . S
C265 C266 1.396 . S
C265 C268 1.453 . S
C265 C269 1.684 . S
C266 C247 1.723 . S
C266 C265 1.396 . S
C266 C267 1.394 . S
C267 C263 1.397 . S
C267 C266 1.394 . S
C267 C277 1.723 . S
C268 C265 1.453 . S
C268 H292 0.982 . S
C268 H293 0.979 . S
C268 H294 0.977 . S
C269 C265 1.684 . S
C269 H295 0.979 . S
C269 H296 0.980 . S
C269 H297 0.983 . S
C270 H246 0.948 . S
C270 C271 1.391 . S
C270 C275 1.391 . S
C271 C270 1.391 . S
C271 C272 1.391 . S
C272 H249 0.947 . S
C272 C271 1.391 . S
C272 C273 1.392 1_655 S
C273 H250 0.948 . S
C273 C272 1.392 1_455 S
C273 C274 1.419 1_455 S
C274 C273 1.419 1_655 S
C274 C275 1.400 . S
C274 C278 1.389 1_655 S
C275 C270 1.391 . S
C275 C274 1.400 . S
C275 C276 1.399 . S
C276 C275 1.399 . S
C276 C277 1.396 1_655 S
C276 C279 1.453 . S
C276 C280 1.684 . S
C277 C267 1.723 . S
C277 C276 1.396 1_455 S
C277 C278 1.394 . S
C278 C248 1.723 . S
C278 C274 1.389 1_455 S
C278 C277 1.394 . S
C279 H251 0.982 . S
C279 H255 0.979 . S
C279 H256 0.977 . S
C279 C276 1.453 . S
C280 H252 0.979 1_655 S
C280 H253 0.980 . S
C280 H254 0.983 . S
C280 C276 1.684 . S
H281 C299 0.948 . S
H282 C240 0.948 . S
H283 C258 0.979 . S
H284 C258 0.980 . S
H285 C258 0.983 . S
H286 C257 0.982 . S
H287 C257 0.979 . S
H288 C257 0.977 . S
H289 C259 0.948 . S
H290 C261 0.947 1_655 S
H291 C262 0.948 1_655 S
H292 C268 0.982 . S
H293 C268 0.979 . S
H294 C268 0.977 . S
H295 C269 0.979 . S
H296 C269 0.980 . S
H297 C269 0.983 . S
H298 C242 0.947 . S
C299 C242 1.392 . S
C299 C243 1.419 . S
C299 H281 0.948 . S
C300 C301 1.391 . S
C300 C304 1.391 . S
C300 H342 0.948 . S
C301 C300 1.391 . S
C301 C302 1.391 . S
C302 C301 1.391 . S
C302 H358 0.947 . S
C302 C359 1.392 . S
C303 C304 1.391 . S
C303 C307 1.397 . S
C303 C359 1.419 . S
C304 C300 1.391 . S
C304 C303 1.391 . S
C304 C305 1.399 . S
C305 C304 1.399 . S
C305 C308 1.396 . S
C305 C317 1.453 . S
C305 C318 1.684 . S
H306 C330 0.948 . S
C307 C303 1.397 . S
C307 C308 1.394 . S
C307 C326 1.723 . S
C308 C305 1.396 . S
C308 C307 1.394 . S
C308 C338 1.723 1_655 S
H309 C332 0.947 . S
H310 C333 0.948 . S
H311 C339 0.982 . S
H312 C340 0.979 . S
H313 C340 0.980 . S
H314 C340 0.983 . S
H315 C339 0.979 . S
H316 C339 0.977 . S
C317 C305 1.453 . S
C317 H346 0.982 1_655 S
C317 H347 0.979 . S
C317 H348 0.977 1_655 S
C318 C305 1.684 . S
C318 H343 0.979 . S
C318 H344 0.980 . S
C318 H345 0.983 . S
C319 C320 1.391 1_655 S
C319 C324 1.391 . S
C319 H349 0.948 . S
C320 C319 1.391 1_455 S
C320 C321 1.391 . S
C321 C320 1.391 . S
C321 C322 1.392 . S
C321 H350 0.947 . S
C322 C321 1.392 . S
C322 C323 1.419 . S
C322 H351 0.948 . S
C323 C322 1.419 . S
C323 C324 1.391 1_455 S
C323 C327 1.397 . S
C324 C319 1.391 . S
C324 C323 1.391 1_655 S
C324 C325 1.399 . S
C325 C324 1.399 . S
C325 C326 1.396 . S
C325 C328 1.453 . S
C325 C329 1.684 . S
C326 C307 1.723 . S
C326 C325 1.396 . S
C326 C327 1.394 1_655 S
C327 C323 1.397 . S
C327 C326 1.394 1_455 S
C327 C337 1.723 . S
C328 C325 1.453 . S
C328 H352 0.982 . S
C328 H353 0.979 . S
C328 H354 0.977 . S
C329 C325 1.684 . S
C329 H355 0.979 . S
C329 H356 0.980 . S
C329 H357 0.983 . S
C330 H306 0.948 . S
C330 C331 1.391 . S
C330 C335 1.391 . S
C331 C330 1.391 . S
C331 C332 1.391 . S
C332 H309 0.947 . S
C332 C331 1.391 . S
C332 C333 1.392 . S
C333 H310 0.948 . S
C333 C332 1.392 . S
C333 C334 1.419 . S
C334 C333 1.419 . S
C334 C335 1.391 . S
C334 C338 1.397 . S
C335 C330 1.391 . S
C335 C334 1.391 . S
C335 C336 1.399 . S
C336 C335 1.399 . S
C336 C337 1.396 . S
C336 C339 1.453 . S
C336 C340 1.684 . S
C337 C327 1.723 . S
C337 C336 1.396 . S
C337 C338 1.394 . S
C338 C308 1.723 1_455 S
C338 C334 1.397 . S
C338 C337 1.394 . S
C339 H311 0.982 . S
C339 H315 0.979 . S
C339 H316 0.977 . S
C339 C336 1.453 . S
C340 H312 0.979 . S
C340 H313 0.980 . S
C340 H314 0.983 . S
C340 C336 1.684 . S
H341 C359 0.948 . S
H342 C300 0.948 . S
H343 C318 0.979 . S
H344 C318 0.980 . S
H345 C318 0.983 . S
H346 C317 0.982 1_455 S
H347 C317 0.979 . S
H348 C317 0.977 1_455 S
H349 C319 0.948 . S
H350 C321 0.947 . S
H351 C322 0.948 . S
H352 C328 0.982 . S
H353 C328 0.979 . S
H354 C328 0.977 . S
H355 C329 0.979 . S
H356 C329 0.980 . S
H357 C329 0.983 . S
H358 C302 0.947 . S
C359 C302 1.392 . S
C359 C303 1.419 . S
C359 H341 0.948 . S
C360 C361 1.391 . S
C360 C364 1.391 . S
C360 H402 0.948 . S
C361 C360 1.391 . S
C361 C362 1.391 . S
C362 C361 1.391 . S
C362 H418 0.947 . S
C362 C419 1.392 . S
C363 C364 1.391 . S
C363 C367 1.397 . S
C363 C419 1.419 . S
C364 C360 1.391 . S
C364 C363 1.391 . S
C364 C365 1.399 . S
C365 C364 1.399 . S
C365 C368 1.396 . S
C365 C377 1.453 1_565 S
C365 C378 1.684 . S
H366 C390 0.948 . S
C367 C363 1.397 . S
C367 C368 1.394 . S
C367 C386 1.723 . S
C368 C365 1.396 . S
C368 C367 1.394 . S
C368 C398 1.723 1_565 S
H369 C392 0.947 . S
H370 C393 0.948 . S
H371 C399 0.982 . S
H372 C400 0.979 . S
H373 C400 0.980 . S
H374 C400 0.983 . S
H375 C399 0.979 . S
H376 C399 0.977 . S
C377 C365 1.453 1_545 S
C377 H406 0.982 . S
C377 H407 0.979 1_545 S
C377 H408 0.977 . S
C378 C365 1.684 . S
C378 H403 0.979 . S
C378 H404 0.980 . S
C378 H405 0.983 . S
C379 C380 1.384 1_565 S
C379 C384 1.391 . S
C379 H409 0.948 . S
C380 C379 1.384 1_545 S
C380 C381 1.399 . S
C381 C380 1.399 . S
C381 C382 1.392 . S
C381 H410 0.947 . S
C382 C381 1.392 . S
C382 C383 1.419 . S
C382 H411 0.948 . S
C383 C382 1.419 . S
C383 C384 1.391 1_545 S
C383 C387 1.397 . S
C384 C379 1.391 . S
C384 C383 1.391 1_565 S
C384 C385 1.399 . S
C385 C384 1.399 . S
C385 C386 1.396 . S
C385 C388 1.453 . S
C385 C389 1.684 . S
C386 C367 1.723 . S
C386 C385 1.396 . S
C386 C387 1.394 1_565 S
C387 C383 1.397 . S
C387 C386 1.394 1_545 S
C387 C397 1.723 . S
C388 C385 1.453 . S
C388 H412 0.982 . S
C388 H413 0.979 . S
C388 H414 0.977 . S
C389 C385 1.684 . S
C389 H415 0.979 . S
C389 H416 0.980 . S
C389 H417 0.983 . S
C390 H366 0.948 . S
C390 C391 1.391 . S
C390 C395 1.391 . S
C391 C390 1.391 . S
C391 C392 1.391 . S
C392 H369 0.947 . S
C392 C391 1.391 . S
C392 C393 1.392 . S
C393 H370 0.948 . S
C393 C392 1.392 . S
C393 C394 1.419 . S
C394 C393 1.419 . S
C394 C395 1.391 . S
C394 C398 1.397 . S
C395 C390 1.391 . S
C395 C394 1.391 . S
C395 C396 1.399 . S
C396 C395 1.399 . S
C396 C397 1.396 . S
C396 C399 1.453 . S
C396 C400 1.684 . S
C397 C387 1.723 . S
C397 C396 1.396 . S
C397 C398 1.394 . S
C398 C368 1.723 1_545 S
C398 C394 1.397 . S
C398 C397 1.394 . S
C399 H371 0.982 . S
C399 H375 0.979 . S
C399 H376 0.977 . S
C399 C396 1.453 . S
C400 H372 0.979 . S
C400 H373 0.980 . S
C400 H374 0.983 . S
C400 C396 1.684 . S
H401 C419 0.948 . S
H402 C360 0.948 . S
H403 C378 0.979 . S
H404 C378 0.980 . S
H405 C378 0.983 . S
H406 C377 0.982 . S
H407 C377 0.979 1_565 S
H408 C377 0.977 . S
H409 C379 0.948 . S
H410 C381 0.947 . S
H411 C382 0.948 . S
H412 C388 0.982 . S
H413 C388 0.979 . S
H414 C388 0.977 . S
H415 C389 0.979 . S
H416 C389 0.980 . S
H417 C389 0.983 . S
H418 C362 0.947 . S
C419 C362 1.392 . S
C419 C363 1.419 . S
C419 H401 0.948 . S
C420 C421 1.391 . S
C420 C424 1.391 . S
C420 H462 0.948 . S
C421 C420 1.391 . S
C421 C422 1.391 . S
C422 C421 1.391 . S
C422 H478 0.947 . S
C422 C479 1.392 . S
C423 C424 1.391 . S
C423 C427 1.397 . S
C423 C479 1.419 . S
C424 C420 1.391 . S
C424 C423 1.391 . S
C424 C425 1.399 . S
C425 C424 1.399 . S
C425 C428 1.396 . S
C425 C437 1.453 . S
C425 C438 1.684 . S
H426 C450 0.948 . S
C427 C423 1.397 . S
C427 C428 1.394 . S
C427 C446 1.723 . S
C428 C425 1.396 . S
C428 C427 1.394 . S
C428 C458 1.723 . S
H429 C452 0.947 . S
H430 C453 0.948 . S
H431 C459 0.982 . S
H432 C460 0.979 . S
H433 C460 0.980 . S
H434 C460 0.983 . S
H435 C459 0.979 . S
H436 C459 0.977 . S
C437 C425 1.453 . S
C437 H466 0.982 . S
C437 H467 0.979 . S
C437 H468 0.977 . S
C438 C425 1.684 . S
C438 H463 0.979 . S
C438 H464 0.980 . S
C438 H465 0.983 . S
C439 C440 1.391 . S
C439 C444 1.391 . S
C439 H469 0.948 . S
C440 C439 1.391 . S
C440 C441 1.391 . S
C441 C440 1.391 . S
C441 C442 1.392 . S
C441 H470 0.947 . S
C442 C441 1.392 . S
C442 C443 1.419 . S
C442 H471 0.948 . S
C443 C442 1.419 . S
C443 C444 1.391 . S
C443 C447 1.397 . S
C444 C439 1.391 . S
C444 C443 1.391 . S
C444 C445 1.399 . S
C445 C444 1.399 . S
C445 C446 1.396 . S
C445 C448 1.453 . S
C445 C449 1.684 . S
C446 C427 1.723 . S
C446 C445 1.396 . S
C446 C447 1.394 . S
C447 C443 1.397 . S
C447 C446 1.394 . S
C447 C457 1.723 . S
C448 C445 1.453 . S
C448 H472 0.982 . S
C448 H473 0.979 . S
C448 H474 0.977 . S
C449 C445 1.684 . S
C449 H475 0.979 . S
C449 H476 0.980 . S
C449 H477 0.983 . S
C450 H426 0.948 . S
C450 C451 1.391 . S
C450 C455 1.391 . S
C451 C450 1.391 . S
C451 C452 1.391 . S
C452 H429 0.947 . S
C452 C451 1.391 . S
C452 C453 1.392 . S
C453 H430 0.948 . S
C453 C452 1.392 . S
C453 C454 1.419 . S
C454 C453 1.419 . S
C454 C455 1.391 . S
C454 C458 1.397 . S
C455 C450 1.391 . S
C455 C454 1.391 . S
C455 C456 1.399 . S
C456 C455 1.399 . S
C456 C457 1.396 . S
C456 C459 1.453 . S
C456 C460 1.684 . S
C457 C447 1.723 . S
C457 C456 1.396 . S
C457 C458 1.394 . S
C458 C428 1.723 . S
C458 C454 1.397 . S
C458 C457 1.394 . S
C459 H431 0.982 . S
C459 H435 0.979 . S
C459 H436 0.977 . S
C459 C456 1.453 . S
C460 H432 0.979 . S
C460 H433 0.980 . S
C460 H434 0.983 . S
C460 C456 1.684 . S
H461 C479 0.948 . S
H462 C420 0.948 . S
H463 C438 0.979 . S
H464 C438 0.980 . S
H465 C438 0.983 . S
H466 C437 0.982 . S
H467 C437 0.979 . S
H468 C437 0.977 . S
H469 C439 0.948 . S
H470 C441 0.947 . S
H471 C442 0.948 . S
H472 C448 0.982 . S
H473 C448 0.979 . S
H474 C448 0.977 . S
H475 C449 0.979 . S
H476 C449 0.980 . S
H477 C449 0.983 . S
H478 C422 0.947 . S
C479 C422 1.392 . S
C479 C423 1.419 . S
C479 H461 0.948 . S
H480 C498 0.951 . S
H481 C500 0.951 . S
H482 C502 0.950 . S
H483 C503 0.950 . S
H484 C505 0.950 . S
H485 C508 0.950 . S
H486 C509 0.950 . S
H487 C511 0.950 . S
H488 C512 0.950 . S
H489 C513 0.951 . S
H490 C515 0.951 . S
H491 C517 0.950 . S
H492 C518 0.950 . S
H493 C520 0.950 . S
H494 C523 0.950 . S
H495 C524 0.950 . S
H496 C526 0.950 . S
H497 C527 0.950 . S
C498 H480 0.951 . S
C498 C499 1.366 . S
C498 C500 1.388 . S
C499 C498 1.366 . S
C499 C503 1.385 . S
C500 H481 0.951 . S
C500 C498 1.388 . S
C500 C501 1.366 . S
C501 C500 1.366 . S
C501 C502 1.414 . S
C501 C504 1.499 . S
C502 H482 0.950 . S
C502 C501 1.414 . S
C502 C503 1.374 . S
C503 H483 0.950 . S
C503 C499 1.385 . S
C503 C502 1.374 . S
C504 C501 1.499 . S
C504 C505 1.373 . S
C504 C506 1.389 . S
C505 H484 0.950 . S
C505 C504 1.373 . S
C505 C521 1.377 . S
C506 C504 1.389 . S
C506 C507 1.524 . S
C506 C520 1.377 . S
C507 C506 1.524 . S
C507 C508 1.397 . S
C507 C512 1.363 . S
C508 H485 0.950 . S
C508 C507 1.397 . S
C508 C509 1.334 . S
C509 H486 0.950 . S
C509 C508 1.334 . S
C509 C510 1.287 . S
C510 C509 1.287 . S
C510 C511 1.524 . S
C510 H529 0.913 . S
C511 H487 0.950 . S
C511 C510 1.524 . S
C511 C512 1.415 . S
C512 H488 0.950 . S
C512 C507 1.363 . S
C512 C511 1.415 . S
C513 H489 0.951 . S
C513 C514 1.366 . S
C513 C515 1.388 . S
C514 C513 1.366 . S
C514 C518 1.385 . S
C515 H490 0.951 . S
C515 C513 1.388 . S
C515 C516 1.366 . S
C516 C515 1.366 . S
C516 C517 1.414 . S
C516 C519 1.499 . S
C517 H491 0.950 . S
C517 C516 1.414 . S
C517 C518 1.374 . S
C518 H492 0.950 . S
C518 C514 1.385 . S
C518 C517 1.374 . S
C519 C516 1.499 . S
C519 C520 1.373 . S
C519 C521 1.389 . S
C520 H493 0.950 . S
C520 C506 1.377 . S
C520 C519 1.373 . S
C521 C505 1.377 . S
C521 C519 1.389 . S
C521 C522 1.524 . S
C522 C521 1.524 . S
C522 C523 1.397 . S
C522 C527 1.363 . S
C523 H494 0.950 . S
C523 C522 1.397 . S
C523 C524 1.334 . S
C524 H495 0.950 . S
C524 C523 1.334 . S
C524 C525 1.287 . S
C525 C524 1.287 . S
C525 C526 1.524 . S
C525 H528 0.999 . S
C526 H496 0.950 . S
C526 C525 1.524 . S
C526 C527 1.415 . S
C527 H497 0.950 . S
C527 C522 1.363 . S
C527 C526 1.415 . S
H528 C525 0.999 . S
H529 C510 0.913 . S
H530 C548 0.951 . S
H531 C550 0.951 . S
H532 C552 0.950 . S
H533 C553 0.950 . S
H534 C555 0.950 . S
H535 C558 0.950 . S
H536 C559 0.950 . S
H537 C561 0.950 . S
H538 C562 0.950 . S
H539 C563 0.951 . S
H540 C565 0.951 . S
H541 C567 0.950 . S
H542 C568 0.950 . S
H543 C570 0.950 . S
H544 C573 0.950 . S
H545 C574 0.950 . S
H546 C576 0.950 . S
H547 C577 0.950 . S
C548 H530 0.951 . S
C548 C549 1.366 . S
C548 C550 1.388 . S
C549 C548 1.366 . S
C549 C553 1.385 . S
C550 H531 0.951 . S
C550 C548 1.388 . S
C550 C551 1.366 . S
C551 C550 1.366 . S
C551 C552 1.414 . S
C551 C554 1.499 . S
C552 H532 0.950 . S
C552 C551 1.414 . S
C552 C553 1.374 . S
C553 H533 0.950 . S
C553 C549 1.385 . S
C553 C552 1.374 . S
C554 C551 1.499 . S
C554 C555 1.373 . S
C554 C556 1.389 . S
C555 H534 0.950 . S
C555 C554 1.373 . S
C555 C571 1.377 . S
C556 C554 1.389 . S
C556 C557 1.524 . S
C556 C570 1.377 . S
C557 C556 1.524 . S
C557 C558 1.397 . S
C557 C562 1.363 . S
C558 H535 0.950 . S
C558 C557 1.397 . S
C558 C559 1.334 . S
C559 H536 0.950 . S
C559 C558 1.334 . S
C559 C560 1.287 . S
C560 C559 1.287 . S
C560 C561 1.524 . S
C560 H579 0.913 . S
C561 H537 0.950 . S
C561 C560 1.524 . S
C561 C562 1.415 . S
C562 H538 0.950 . S
C562 C557 1.363 . S
C562 C561 1.415 . S
C563 H539 0.951 . S
C563 C564 1.366 . S
C563 C565 1.388 . S
C564 C563 1.366 . S
C564 C568 1.385 . S
C565 H540 0.951 . S
C565 C563 1.388 . S
C565 C566 1.366 . S
C566 C565 1.366 . S
C566 C567 1.414 . S
C566 C569 1.499 . S
C567 H541 0.950 . S
C567 C566 1.414 . S
C567 C568 1.374 . S
C568 H542 0.950 . S
C568 C564 1.385 . S
C568 C567 1.374 . S
C569 C566 1.499 . S
C569 C570 1.373 . S
C569 C571 1.389 . S
C570 H543 0.950 . S
C570 C556 1.377 . S
C570 C569 1.373 . S
C571 C555 1.377 . S
C571 C569 1.389 . S
C571 C572 1.524 . S
C572 C571 1.524 . S
C572 C573 1.397 . S
C572 C577 1.363 . S
C573 H544 0.950 . S
C573 C572 1.397 . S
C573 C574 1.334 . S
C574 H545 0.950 . S
C574 C573 1.334 . S
C574 C575 1.287 . S
C575 C574 1.287 . S
C575 C576 1.524 . S
C575 H578 0.999 . S
C576 H546 0.950 . S
C576 C575 1.524 . S
C576 C577 1.415 . S
C577 H547 0.950 . S
C577 C572 1.363 . S
C577 C576 1.415 . S
H578 C575 0.999 . S
H579 C560 0.913 . S
H580 C598 0.951 . S
H581 C600 0.951 . S
H582 C602 0.950 . S
H583 C603 0.950 . S
H584 C605 0.950 . S
H585 C608 0.950 . S
H586 C609 0.950 . S
H587 C611 0.950 . S
H588 C612 0.950 . S
H589 C613 0.951 . S
H590 C615 0.951 . S
H591 C617 0.950 . S
H592 C618 0.950 . S
H593 C620 0.950 . S
H594 C623 0.950 . S
H595 C624 0.950 . S
H596 C626 0.950 . S
H597 C627 0.950 . S
C598 H580 0.951 . S
C598 C599 1.366 . S
C598 C600 1.388 . S
C599 C598 1.366 . S
C599 C603 1.385 . S
C600 H581 0.951 . S
C600 C598 1.388 . S
C600 C601 1.366 . S
C601 C600 1.366 . S
C601 C602 1.414 . S
C601 C604 1.499 . S
C602 H582 0.950 . S
C602 C601 1.414 . S
C602 C603 1.374 . S
C603 H583 0.950 . S
C603 C599 1.385 . S
C603 C602 1.374 . S
C604 C601 1.499 . S
C604 C605 1.373 . S
C604 C606 1.389 . S
C605 H584 0.950 . S
C605 C604 1.373 . S
C605 C621 1.377 . S
C606 C604 1.389 . S
C606 C607 1.524 . S
C606 C620 1.377 . S
C607 C606 1.524 . S
C607 C608 1.397 . S
C607 C612 1.363 . S
C608 H585 0.950 . S
C608 C607 1.397 . S
C608 C609 1.334 . S
C609 H586 0.950 . S
C609 C608 1.334 . S
C609 C610 1.287 . S
C610 C609 1.287 . S
C610 C611 1.524 . S
C610 H629 0.913 . S
C611 H587 0.950 . S
C611 C610 1.524 . S
C611 C612 1.415 . S
C612 H588 0.950 . S
C612 C607 1.363 . S
C612 C611 1.415 . S
C613 H589 0.951 . S
C613 C614 1.366 . S
C613 C615 1.388 . S
C614 C613 1.366 . S
C614 C618 1.385 . S
C615 H590 0.951 . S
C615 C613 1.388 . S
C615 C616 1.366 . S
C616 C615 1.366 . S
C616 C617 1.414 . S
C616 C619 1.499 . S
C617 H591 0.950 . S
C617 C616 1.414 . S
C617 C618 1.374 . S
C618 H592 0.950 . S
C618 C614 1.385 . S
C618 C617 1.374 . S
C619 C616 1.499 . S
C619 C620 1.373 . S
C619 C621 1.389 . S
C620 H593 0.950 . S
C620 C606 1.377 . S
C620 C619 1.373 . S
C621 C605 1.377 . S
C621 C619 1.389 . S
C621 C622 1.524 . S
C622 C621 1.524 . S
C622 C623 1.397 . S
C622 C627 1.363 . S
C623 H594 0.950 . S
C623 C622 1.397 . S
C623 C624 1.334 . S
C624 H595 0.950 . S
C624 C623 1.334 . S
C624 C625 1.287 . S
C625 C624 1.287 . S
C625 C626 1.524 . S
C625 H628 0.999 . S
C626 H596 0.950 . S
C626 C625 1.524 . S
C626 C627 1.415 . S
C627 H597 0.950 . S
C627 C622 1.363 . S
C627 C626 1.415 . S
H628 C625 0.999 . S
H629 C610 0.913 . S
H630 C648 0.951 . S
H631 C650 0.951 . S
H632 C652 0.950 . S
H633 C653 0.950 . S
H634 C655 0.950 . S
H635 C658 0.950 . S
H636 C659 0.950 . S
H637 C661 0.950 . S
H638 C662 0.950 . S
H639 C663 0.951 . S
H640 C665 0.951 . S
H641 C667 0.950 . S
H642 C668 0.950 . S
H643 C670 0.950 . S
H644 C673 0.950 . S
H645 C674 0.950 . S
H646 C676 0.950 . S
H647 C677 0.950 . S
C648 H630 0.951 . S
C648 C649 1.366 . S
C648 C650 1.388 . S
C649 C648 1.366 . S
C649 C653 1.385 . S
C650 H631 0.951 . S
C650 C648 1.388 . S
C650 C651 1.366 . S
C651 C650 1.366 . S
C651 C652 1.414 . S
C651 C654 1.499 . S
C652 H632 0.950 . S
C652 C651 1.414 . S
C652 C653 1.374 . S
C653 H633 0.950 . S
C653 C649 1.385 . S
C653 C652 1.374 . S
C654 C651 1.499 . S
C654 C655 1.373 . S
C654 C656 1.389 . S
C655 H634 0.950 . S
C655 C654 1.373 . S
C655 C671 1.377 . S
C656 C654 1.389 . S
C656 C657 1.524 . S
C656 C670 1.377 . S
C657 C656 1.524 . S
C657 C658 1.397 . S
C657 C662 1.363 . S
C658 H635 0.950 . S
C658 C657 1.397 . S
C658 C659 1.334 . S
C659 H636 0.950 . S
C659 C658 1.334 . S
C659 C660 1.287 . S
C660 C659 1.287 . S
C660 C661 1.524 . S
C660 H679 0.913 . S
C661 H637 0.950 . S
C661 C660 1.524 . S
C661 C662 1.415 . S
C662 H638 0.950 . S
C662 C657 1.363 . S
C662 C661 1.415 . S
C663 H639 0.951 . S
C663 C664 1.366 . S
C663 C665 1.388 . S
C664 C663 1.366 . S
C664 C668 1.385 . S
C665 H640 0.951 . S
C665 C663 1.388 . S
C665 C666 1.366 . S
C666 C665 1.366 . S
C666 C667 1.414 . S
C666 C669 1.499 . S
C667 H641 0.950 . S
C667 C666 1.414 . S
C667 C668 1.374 . S
C668 H642 0.950 . S
C668 C664 1.385 . S
C668 C667 1.374 . S
C669 C666 1.499 . S
C669 C670 1.373 . S
C669 C671 1.389 . S
C670 H643 0.950 . S
C670 C656 1.377 . S
C670 C669 1.373 . S
C671 C655 1.377 . S
C671 C669 1.389 . S
C671 C672 1.524 . S
C672 C671 1.524 . S
C672 C673 1.397 . S
C672 C677 1.363 . S
C673 H644 0.950 . S
C673 C672 1.397 . S
C673 C674 1.334 . S
C674 H645 0.950 . S
C674 C673 1.334 . S
C674 C675 1.287 . S
C675 C674 1.287 . S
C675 C676 1.524 . S
C675 H678 0.999 . S
C676 H646 0.950 . S
C676 C675 1.524 . S
C676 C677 1.415 . S
C677 H647 0.950 . S
C677 C672 1.363 . S
C677 C676 1.415 . S
H678 C675 0.999 . S
H679 C660 0.913 . S
H680 C698 0.951 . S
H681 C700 0.951 . S
H682 C702 0.950 . S
H683 C703 0.950 . S
H684 C705 0.950 . S
H685 C708 0.950 . S
H686 C709 0.950 . S
H687 C711 0.950 . S
H688 C712 0.950 . S
H689 C713 0.951 . S
H690 C715 0.951 . S
H691 C717 0.950 . S
H692 C718 0.950 . S
H693 C720 0.950 . S
H694 C723 0.950 . S
H695 C724 0.950 . S
H696 C726 0.950 . S
H697 C727 0.950 . S
C698 H680 0.951 . S
C698 C699 1.366 . S
C698 C700 1.388 . S
C699 C698 1.366 . S
C699 C703 1.385 . S
C700 H681 0.951 . S
C700 C698 1.388 . S
C700 C701 1.366 . S
C701 C700 1.366 . S
C701 C702 1.414 . S
C701 C704 1.499 . S
C702 H682 0.950 . S
C702 C701 1.414 . S
C702 C703 1.374 . S
C703 H683 0.950 . S
C703 C699 1.385 . S
C703 C702 1.374 . S
C704 C701 1.499 . S
C704 C705 1.373 . S
C704 C706 1.389 . S
C705 H684 0.950 . S
C705 C704 1.373 . S
C705 C721 1.377 . S
C706 C704 1.389 . S
C706 C707 1.524 . S
C706 C720 1.377 . S
C707 C706 1.524 . S
C707 C708 1.397 . S
C707 C712 1.363 . S
C708 H685 0.950 . S
C708 C707 1.397 . S
C708 C709 1.334 . S
C709 H686 0.950 . S
C709 C708 1.334 . S
C709 C710 1.287 . S
C710 C709 1.287 . S
C710 C711 1.524 . S
C710 H729 0.913 . S
C711 H687 0.950 . S
C711 C710 1.524 . S
C711 C712 1.415 . S
C712 H688 0.950 . S
C712 C707 1.363 . S
C712 C711 1.415 . S
C713 H689 0.951 . S
C713 C714 1.366 . S
C713 C715 1.388 . S
C714 C713 1.366 . S
C714 C718 1.385 . S
C715 H690 0.951 . S
C715 C713 1.388 . S
C715 C716 1.366 . S
C716 C715 1.366 . S
C716 C717 1.414 . S
C716 C719 1.499 . S
C717 H691 0.950 . S
C717 C716 1.414 . S
C717 C718 1.374 . S
C718 H692 0.950 . S
C718 C714 1.385 . S
C718 C717 1.374 . S
C719 C716 1.499 . S
C719 C720 1.373 . S
C719 C721 1.389 . S
C720 H693 0.950 . S
C720 C706 1.377 . S
C720 C719 1.373 . S
C721 C705 1.377 . S
C721 C719 1.389 . S
C721 C722 1.524 . S
C722 C721 1.524 . S
C722 C723 1.397 . S
C722 C727 1.363 . S
C723 H694 0.950 . S
C723 C722 1.397 . S
C723 C724 1.334 . S
C724 H695 0.950 . S
C724 C723 1.334 . S
C724 C725 1.287 . S
C725 C724 1.287 . S
C725 C726 1.524 . S
C725 H728 0.999 . S
C726 H696 0.950 . S
C726 C725 1.524 . S
C726 C727 1.415 . S
C727 H697 0.950 . S
C727 C722 1.363 . S
C727 C726 1.415 . S
H728 C725 0.999 . S
H729 C710 0.913 . S
H730 C748 0.951 . S
H731 C750 0.951 . S
H732 C752 0.950 . S
H733 C753 0.950 . S
H734 C755 0.950 . S
H735 C758 0.950 . S
H736 C759 0.950 . S
H737 C761 0.950 . S
H738 C762 0.950 . S
H739 C763 0.951 . S
H740 C765 0.951 . S
H741 C767 0.950 . S
H742 C768 0.950 . S
H743 C770 0.950 . S
H744 C773 0.950 . S
H745 C774 0.950 . S
H746 C776 0.950 . S
H747 C777 0.950 . S
C748 H730 0.951 . S
C748 C749 1.366 . S
C748 C750 1.388 . S
C749 C748 1.366 . S
C749 C753 1.385 . S
C750 H731 0.951 . S
C750 C748 1.388 . S
C750 C751 1.366 . S
C751 C750 1.366 . S
C751 C752 1.414 . S
C751 C754 1.499 . S
C752 H732 0.950 . S
C752 C751 1.414 . S
C752 C753 1.374 . S
C753 H733 0.950 . S
C753 C749 1.385 . S
C753 C752 1.374 . S
C754 C751 1.499 . S
C754 C755 1.373 . S
C754 C756 1.389 . S
C755 H734 0.950 . S
C755 C754 1.373 . S
C755 C771 1.377 . S
C756 C754 1.389 . S
C756 C757 1.524 . S
C756 C770 1.377 . S
C757 C756 1.524 . S
C757 C758 1.397 . S
C757 C762 1.363 . S
C758 H735 0.950 . S
C758 C757 1.397 . S
C758 C759 1.334 . S
C759 H736 0.950 . S
C759 C758 1.334 . S
C759 C760 1.287 . S
C760 C759 1.287 . S
C760 C761 1.524 . S
C760 H779 0.913 . S
C761 H737 0.950 . S
C761 C760 1.524 . S
C761 C762 1.415 . S
C762 H738 0.950 . S
C762 C757 1.363 . S
C762 C761 1.415 . S
C763 H739 0.951 . S
C763 C764 1.366 . S
C763 C765 1.388 . S
C764 C763 1.366 . S
C764 C768 1.385 . S
C765 H740 0.951 . S
C765 C763 1.388 . S
C765 C766 1.366 . S
C766 C765 1.366 . S
C766 C767 1.414 . S
C766 C769 1.499 . S
C767 H741 0.950 . S
C767 C766 1.414 . S
C767 C768 1.374 . S
C768 H742 0.950 . S
C768 C764 1.385 . S
C768 C767 1.374 . S
C769 C766 1.499 . S
C769 C770 1.373 . S
C769 C771 1.389 . S
C770 H743 0.950 . S
C770 C756 1.377 . S
C770 C769 1.373 . S
C771 C755 1.377 . S
C771 C769 1.389 . S
C771 C772 1.524 . S
C772 C771 1.524 . S
C772 C773 1.397 . S
C772 C777 1.363 . S
C773 H744 0.950 . S
C773 C772 1.397 . S
C773 C774 1.334 . S
C774 H745 0.950 . S
C774 C773 1.334 . S
C774 C775 1.287 . S
C775 C774 1.287 . S
C775 C776 1.524 . S
C775 H778 0.999 . S
C776 H746 0.950 . S
C776 C775 1.524 . S
C776 C777 1.415 . S
C777 H747 0.950 . S
C777 C772 1.363 . S
C777 C776 1.415 . S
H778 C775 0.999 . S
H779 C760 0.913 . S
H780 C798 0.951 . S
H781 C800 0.951 . S
H782 C802 0.950 . S
H783 C803 0.950 . S
H784 C805 0.950 . S
H785 C808 0.950 . S
H786 C809 0.950 . S
H787 C811 0.950 . S
H788 C812 0.950 . S
H789 C813 0.951 . S
H790 C815 0.951 . S
H791 C817 0.950 . S
H792 C818 0.950 . S
H793 C820 0.950 . S
H794 C823 0.950 . S
H795 C824 0.950 . S
H796 C826 0.950 . S
H797 C827 0.950 . S
C798 H780 0.951 . S
C798 C799 1.366 . S
C798 C800 1.388 . S
C799 C798 1.366 . S
C799 C803 1.385 . S
C800 H781 0.951 . S
C800 C798 1.388 . S
C800 C801 1.366 . S
C801 C800 1.366 . S
C801 C802 1.414 . S
C801 C804 1.499 . S
C802 H782 0.950 . S
C802 C801 1.414 . S
C802 C803 1.374 . S
C803 H783 0.950 . S
C803 C799 1.385 . S
C803 C802 1.374 . S
C804 C801 1.499 . S
C804 C805 1.373 . S
C804 C806 1.389 . S
C805 H784 0.950 . S
C805 C804 1.373 . S
C805 C821 1.377 . S
C806 C804 1.389 . S
C806 C807 1.524 . S
C806 C820 1.377 . S
C807 C806 1.524 . S
C807 C808 1.397 . S
C807 C812 1.363 . S
C808 H785 0.950 . S
C808 C807 1.397 . S
C808 C809 1.334 . S
C809 H786 0.950 . S
C809 C808 1.334 . S
C809 C810 1.287 . S
C810 C809 1.287 . S
C810 C811 1.524 . S
C810 H829 0.913 . S
C811 H787 0.950 . S
C811 C810 1.524 . S
C811 C812 1.415 . S
C812 H788 0.950 . S
C812 C807 1.363 . S
C812 C811 1.415 . S
C813 H789 0.951 . S
C813 C814 1.366 . S
C813 C815 1.388 . S
C814 C813 1.366 . S
C814 C818 1.385 . S
C815 H790 0.951 . S
C815 C813 1.388 . S
C815 C816 1.366 . S
C816 C815 1.366 . S
C816 C817 1.414 . S
C816 C819 1.499 . S
C817 H791 0.950 . S
C817 C816 1.414 . S
C817 C818 1.374 . S
C818 H792 0.950 . S
C818 C814 1.385 . S
C818 C817 1.374 . S
C819 C816 1.499 . S
C819 C820 1.373 . S
C819 C821 1.389 . S
C820 H793 0.950 . S
C820 C806 1.377 . S
C820 C819 1.373 . S
C821 C805 1.377 . S
C821 C819 1.389 . S
C821 C822 1.524 . S
C822 C821 1.524 . S
C822 C823 1.397 . S
C822 C827 1.363 . S
C823 H794 0.950 . S
C823 C822 1.397 . S
C823 C824 1.334 . S
C824 H795 0.950 . S
C824 C823 1.334 . S
C824 C825 1.287 . S
C825 C824 1.287 . S
C825 C826 1.524 . S
C825 H828 0.999 . S
C826 H796 0.950 . S
C826 C825 1.524 . S
C826 C827 1.415 . S
C827 H797 0.950 . S
C827 C822 1.363 . S
C827 C826 1.415 . S
H828 C825 0.999 . S
H829 C810 0.913 . S
H830 C848 0.951 . S
H831 C850 0.951 . S
H832 C852 0.950 . S
H833 C853 0.950 . S
H834 C855 0.950 . S
H835 C858 0.950 . S
H836 C859 0.950 . S
H837 C861 0.950 . S
H838 C862 0.950 . S
H839 C863 0.951 . S
H840 C865 0.951 . S
H841 C867 0.950 . S
H842 C868 0.950 . S
H843 C870 0.950 . S
H844 C873 0.950 . S
H845 C874 0.950 . S
H846 C876 0.950 . S
H847 C877 0.950 . S
C848 H830 0.951 . S
C848 C849 1.366 . S
C848 C850 1.388 . S
C849 C848 1.366 . S
C849 C853 1.385 . S
C850 H831 0.951 . S
C850 C848 1.388 . S
C850 C851 1.366 . S
C851 C850 1.366 . S
C851 C852 1.414 . S
C851 C854 1.499 . S
C852 H832 0.950 . S
C852 C851 1.414 . S
C852 C853 1.374 . S
C853 H833 0.950 . S
C853 C849 1.385 . S
C853 C852 1.374 . S
C854 C851 1.499 . S
C854 C855 1.373 . S
C854 C856 1.389 . S
C855 H834 0.950 . S
C855 C854 1.373 . S
C855 C871 1.377 . S
C856 C854 1.389 . S
C856 C857 1.524 . S
C856 C870 1.377 . S
C857 C856 1.524 . S
C857 C858 1.397 . S
C857 C862 1.363 . S
C858 H835 0.950 . S
C858 C857 1.397 . S
C858 C859 1.334 . S
C859 H836 0.950 . S
C859 C858 1.334 . S
C859 C860 1.287 . S
C860 C859 1.287 . S
C860 C861 1.524 . S
C860 H879 0.913 . S
C861 H837 0.950 . S
C861 C860 1.524 . S
C861 C862 1.415 . S
C862 H838 0.950 . S
C862 C857 1.363 . S
C862 C861 1.415 . S
C863 H839 0.951 . S
C863 C864 1.366 . S
C863 C865 1.388 . S
C864 C863 1.366 . S
C864 C868 1.385 . S
C865 H840 0.951 . S
C865 C863 1.388 . S
C865 C866 1.366 . S
C866 C865 1.366 . S
C866 C867 1.414 . S
C866 C869 1.499 . S
C867 H841 0.950 . S
C867 C866 1.414 . S
C867 C868 1.374 . S
C868 H842 0.950 . S
C868 C864 1.385 . S
C868 C867 1.374 . S
C869 C866 1.499 . S
C869 C870 1.373 . S
C869 C871 1.389 . S
C870 H843 0.950 . S
C870 C856 1.377 . S
C870 C869 1.373 . S
C871 C855 1.377 . S
C871 C869 1.389 . S
C871 C872 1.524 . S
C872 C871 1.524 . S
C872 C873 1.397 . S
C872 C877 1.363 . S
C873 H844 0.950 . S
C873 C872 1.397 . S
C873 C874 1.334 . S
C874 H845 0.950 . S
C874 C873 1.334 . S
C874 C875 1.287 . S
C875 C874 1.287 . S
C875 C876 1.524 . S
C875 H878 0.999 . S
C876 H846 0.950 . S
C876 C875 1.524 . S
C876 C877 1.415 . S
C877 H847 0.950 . S
C877 C872 1.363 . S
C877 C876 1.415 . S
H878 C875 0.999 . S
H879 C860 0.913 . S
H880 C898 0.951 . S
H881 C900 0.951 . S
H882 C902 0.950 . S
H883 C903 0.950 . S
H884 C905 0.950 . S
H885 C908 0.950 . S
H886 C909 0.950 . S
H887 C911 0.950 . S
H888 C912 0.950 . S
H889 C913 0.951 . S
H890 C915 0.951 . S
H891 C917 0.950 . S
H892 C918 0.950 . S
H893 C920 0.950 . S
H894 C923 0.950 . S
H895 C924 0.950 . S
H896 C926 0.950 . S
H897 C927 0.950 . S
C898 H880 0.951 . S
C898 C899 1.366 . S
C898 C900 1.388 . S
C899 C898 1.366 . S
C899 C903 1.385 . S
C900 H881 0.951 . S
C900 C898 1.388 . S
C900 C901 1.366 . S
C901 C900 1.366 . S
C901 C902 1.414 . S
C901 C904 1.499 . S
C902 H882 0.950 . S
C902 C901 1.414 . S
C902 C903 1.374 . S
C903 H883 0.950 . S
C903 C899 1.385 . S
C903 C902 1.374 . S
C904 C901 1.499 . S
C904 C905 1.373 . S
C904 C906 1.389 . S
C905 H884 0.950 . S
C905 C904 1.373 . S
C905 C921 1.377 . S
C906 C904 1.389 . S
C906 C907 1.524 . S
C906 C920 1.377 . S
C907 C906 1.524 . S
C907 C908 1.397 . S
C907 C912 1.363 . S
C908 H885 0.950 . S
C908 C907 1.397 . S
C908 C909 1.334 . S
C909 H886 0.950 . S
C909 C908 1.334 . S
C909 C910 1.287 . S
C910 C909 1.287 . S
C910 C911 1.524 . S
C910 H929 0.913 . S
C911 H887 0.950 . S
C911 C910 1.524 . S
C911 C912 1.415 . S
C912 H888 0.950 . S
C912 C907 1.363 . S
C912 C911 1.415 . S
C913 H889 0.951 . S
C913 C914 1.366 . S
C913 C915 1.388 . S
C914 C913 1.366 . S
C914 C918 1.385 . S
C915 H890 0.951 . S
C915 C913 1.388 . S
C915 C916 1.366 . S
C916 C915 1.366 . S
C916 C917 1.414 . S
C916 C919 1.499 . S
C917 H891 0.950 . S
C917 C916 1.414 . S
C917 C918 1.374 . S
C918 H892 0.950 . S
C918 C914 1.385 . S
C918 C917 1.374 . S
C919 C916 1.499 . S
C919 C920 1.373 . S
C919 C921 1.389 . S
C920 H893 0.950 . S
C920 C906 1.377 . S
C920 C919 1.373 . S
C921 C905 1.377 . S
C921 C919 1.389 . S
C921 C922 1.524 . S
C922 C921 1.524 . S
C922 C923 1.397 . S
C922 C927 1.363 . S
C923 H894 0.950 . S
C923 C922 1.397 . S
C923 C924 1.334 . S
C924 H895 0.950 . S
C924 C923 1.334 . S
C924 C925 1.287 . S
C925 C924 1.287 . S
C925 C926 1.524 . S
C925 H928 0.999 . S
C926 H896 0.950 . S
C926 C925 1.524 . S
C926 C927 1.415 . S
C927 H897 0.950 . S
C927 C922 1.363 . S
C927 C926 1.415 . S
H928 C925 0.999 . S
H929 C910 0.913 . S
H930 C948 0.951 . S
H931 C950 0.951 . S
H932 C952 0.950 . S
H933 C953 0.950 . S
H934 C955 0.950 . S
H935 C958 0.950 . S
H936 C959 0.950 . S
H937 C961 0.950 . S
H938 C962 0.950 . S
H939 C963 0.951 . S
H940 C965 0.951 . S
H941 C967 0.950 . S
H942 C968 0.950 . S
H943 C970 0.950 . S
H944 C973 0.950 . S
H945 C974 0.950 . S
H946 C976 0.950 . S
H947 C977 0.950 . S
C948 H930 0.951 . S
C948 C949 1.366 . S
C948 C950 1.388 . S
C949 C948 1.366 . S
C949 C953 1.385 . S
C950 H931 0.951 . S
C950 C948 1.388 . S
C950 C951 1.366 . S
C951 C950 1.366 . S
C951 C952 1.414 . S
C951 C954 1.499 . S
C952 H932 0.950 . S
C952 C951 1.414 . S
C952 C953 1.374 . S
C953 H933 0.950 . S
C953 C949 1.385 . S
C953 C952 1.374 . S
C954 C951 1.499 . S
C954 C955 1.373 . S
C954 C956 1.389 . S
C955 H934 0.950 . S
C955 C954 1.373 . S
C955 C971 1.377 . S
C956 C954 1.389 . S
C956 C957 1.524 . S
C956 C970 1.377 . S
C957 C956 1.524 . S
C957 C958 1.397 . S
C957 C962 1.363 . S
C958 H935 0.950 . S
C958 C957 1.397 . S
C958 C959 1.334 . S
C959 H936 0.950 . S
C959 C958 1.334 . S
C959 C960 1.287 . S
C960 C959 1.287 . S
C960 C961 1.524 . S
C960 H979 0.913 . S
C961 H937 0.950 . S
C961 C960 1.524 . S
C961 C962 1.415 . S
C962 H938 0.950 . S
C962 C957 1.363 . S
C962 C961 1.415 . S
C963 H939 0.951 . S
C963 C964 1.366 . S
C963 C965 1.388 . S
C964 C963 1.366 . S
C964 C968 1.385 . S
C965 H940 0.951 . S
C965 C963 1.388 . S
C965 C966 1.366 . S
C966 C965 1.366 . S
C966 C967 1.414 . S
C966 C969 1.499 . S
C967 H941 0.950 . S
C967 C966 1.414 . S
C967 C968 1.374 . S
C968 H942 0.950 . S
C968 C964 1.385 . S
C968 C967 1.374 . S
C969 C966 1.499 . S
C969 C970 1.373 . S
C969 C971 1.389 . S
C970 H943 0.950 . S
C970 C956 1.377 . S
C970 C969 1.373 . S
C971 C955 1.377 . S
C971 C969 1.389 . S
C971 C972 1.524 . S
C972 C971 1.524 . S
C972 C973 1.397 . S
C972 C977 1.363 . S
C973 H944 0.950 . S
C973 C972 1.397 . S
C973 C974 1.334 . S
C974 H945 0.950 . S
C974 C973 1.334 . S
C974 C975 1.287 . S
C975 C974 1.287 . S
C975 C976 1.524 . S
C975 H978 0.999 . S
C976 H946 0.950 . S
C976 C975 1.524 . S
C976 C977 1.415 . S
C977 H947 0.950 . S
C977 C972 1.363 . S
C977 C976 1.415 . S
H978 C975 0.999 . S
H979 C960 0.913 . S
H980 C998 0.951 . S
H981 C1000 0.951 . S
H982 C1002 0.950 . S
H983 C1003 0.950 . S
H984 C1005 0.950 . S
H985 C1008 0.950 . S
H986 C1009 0.950 . S
H987 C1011 0.950 . S
H988 C1012 0.950 . S
H989 C1013 0.951 . S
H990 C1015 0.951 . S
H991 C1017 0.950 . S
H992 C1018 0.950 . S
H993 C1020 0.950 . S
H994 C1023 0.950 . S
H995 C1024 0.950 . S
H996 C1026 0.950 . S
H997 C1027 0.950 . S
C998 H980 0.951 . S
C998 C999 1.366 . S
C998 C1000 1.388 . S
C999 C998 1.366 . S
C999 C1003 1.385 . S
C1000 H981 0.951 . S
C1000 C998 1.388 . S
C1000 C1001 1.366 . S
C1001 C1000 1.366 . S
C1001 C1002 1.414 . S
C1001 C1004 1.499 . S
C1002 H982 0.950 . S
C1002 C1001 1.414 . S
C1002 C1003 1.374 . S
C1003 H983 0.950 . S
C1003 C999 1.385 . S
C1003 C1002 1.374 . S
C1004 C1001 1.499 . S
C1004 C1005 1.373 . S
C1004 C1006 1.389 . S
C1005 H984 0.950 . S
C1005 C1004 1.373 . S
C1005 C1021 1.377 . S
C1006 C1004 1.389 . S
C1006 C1007 1.524 . S
C1006 C1020 1.377 . S
C1007 C1006 1.524 . S
C1007 C1008 1.397 . S
C1007 C1012 1.363 . S
C1008 H985 0.950 . S
C1008 C1007 1.397 . S
C1008 C1009 1.334 . S
C1009 H986 0.950 . S
C1009 C1008 1.334 . S
C1009 C1010 1.287 . S
C1010 C1009 1.287 . S
C1010 C1011 1.524 . S
C1010 H1029 0.913 . S
C1011 H987 0.950 . S
C1011 C1010 1.524 . S
C1011 C1012 1.415 . S
C1012 H988 0.950 . S
C1012 C1007 1.363 . S
C1012 C1011 1.415 . S
C1013 H989 0.951 . S
C1013 C1014 1.366 . S
C1013 C1015 1.388 . S
C1014 C1013 1.366 . S
C1014 C1018 1.385 . S
C1015 H990 0.951 . S
C1015 C1013 1.388 . S
C1015 C1016 1.366 . S
C1016 C1015 1.366 . S
C1016 C1017 1.414 . S
C1016 C1019 1.499 . S
C1017 H991 0.950 . S
C1017 C1016 1.414 . S
C1017 C1018 1.374 . S
C1018 H992 0.950 . S
C1018 C1014 1.385 . S
C1018 C1017 1.374 . S
C1019 C1016 1.499 . S
C1019 C1020 1.373 . S
C1019 C1021 1.389 . S
C1020 H993 0.950 . S
C1020 C1006 1.377 . S
C1020 C1019 1.373 . S
C1021 C1005 1.377 . S
C1021 C1019 1.389 . S
C1021 C1022 1.524 . S
C1022 C1021 1.524 . S
C1022 C1023 1.397 . S
C1022 C1027 1.363 . S
C1023 H994 0.950 . S
C1023 C1022 1.397 . S
C1023 C1024 1.334 . S
C1024 H995 0.950 . S
C1024 C1023 1.334 . S
C1024 C1025 1.287 . S
C1025 C1024 1.287 . S
C1025 C1026 1.524 . S
C1025 H1028 0.999 . S
C1026 H996 0.950 . S
C1026 C1025 1.524 . S
C1026 C1027 1.415 . S
C1027 H997 0.950 . S
C1027 C1022 1.363 . S
C1027 C1026 1.415 . S
H1028 C1025 0.999 . S
H1029 C1010 0.913 . S
H1030 C1048 0.951 . S
H1031 C1050 0.951 . S
H1032 C1052 0.950 . S
H1033 C1053 0.950 . S
H1034 C1055 0.950 . S
H1035 C1058 0.950 . S
H1036 C1059 0.950 . S
H1037 C1061 0.950 . S
H1038 C1062 0.950 . S
H1039 C1063 0.951 . S
H1040 C1065 0.951 . S
H1041 C1067 0.950 . S
H1042 C1068 0.950 . S
H1043 C1070 0.950 . S
H1044 C1073 0.950 . S
H1045 C1074 0.950 . S
H1046 C1076 0.950 . S
H1047 C1077 0.950 . S
C1048 H1030 0.951 . S
C1048 C1049 1.366 . S
C1048 C1050 1.388 . S
C1049 C1048 1.366 . S
C1049 C1053 1.385 . S
C1050 H1031 0.951 . S
C1050 C1048 1.388 . S
C1050 C1051 1.366 . S
C1051 C1050 1.366 . S
C1051 C1052 1.414 . S
C1051 C1054 1.499 . S
C1052 H1032 0.950 . S
C1052 C1051 1.414 . S
C1052 C1053 1.374 . S
C1053 H1033 0.950 . S
C1053 C1049 1.385 . S
C1053 C1052 1.374 . S
C1054 C1051 1.499 . S
C1054 C1055 1.373 . S
C1054 C1056 1.389 . S
C1055 H1034 0.950 . S
C1055 C1054 1.373 . S
C1055 C1071 1.377 . S
C1056 C1054 1.389 . S
C1056 C1057 1.524 . S
C1056 C1070 1.377 . S
C1057 C1056 1.524 . S
C1057 C1058 1.397 . S
C1057 C1062 1.363 . S
C1058 H1035 0.950 . S
C1058 C1057 1.397 . S
C1058 C1059 1.334 . S
C1059 H1036 0.950 . S
C1059 C1058 1.334 . S
C1059 C1060 1.287 . S
C1060 C1059 1.287 . S
C1060 C1061 1.524 . S
C1060 H1079 0.913 . S
C1061 H1037 0.950 . S
C1061 C1060 1.524 . S
C1061 C1062 1.415 . S
C1062 H1038 0.950 . S
C1062 C1057 1.363 . S
C1062 C1061 1.415 . S
C1063 H1039 0.951 . S
C1063 C1064 1.366 . S
C1063 C1065 1.388 . S
C1064 C1063 1.366 . S
C1064 C1068 1.385 . S
C1065 H1040 0.951 . S
C1065 C1063 1.388 . S
C1065 C1066 1.366 . S
C1066 C1065 1.366 . S
C1066 C1067 1.414 . S
C1066 C1069 1.499 . S
C1067 H1041 0.950 . S
C1067 C1066 1.414 . S
C1067 C1068 1.374 . S
C1068 H1042 0.950 . S
C1068 C1064 1.385 . S
C1068 C1067 1.374 . S
C1069 C1066 1.499 . S
C1069 C1070 1.373 . S
C1069 C1071 1.389 . S
C1070 H1043 0.950 . S
C1070 C1056 1.377 . S
C1070 C1069 1.373 . S
C1071 C1055 1.377 . S
C1071 C1069 1.389 . S
C1071 C1072 1.524 . S
C1072 C1071 1.524 . S
C1072 C1073 1.397 . S
C1072 C1077 1.363 . S
C1073 H1044 0.950 . S
C1073 C1072 1.397 . S
C1073 C1074 1.334 . S
C1074 H1045 0.950 . S
C1074 C1073 1.334 . S
C1074 C1075 1.287 . S
C1075 C1074 1.287 . S
C1075 C1076 1.524 . S
C1075 H1078 0.999 . S
C1076 H1046 0.950 . S
C1076 C1075 1.524 . S
C1076 C1077 1.415 . S
C1077 H1047 0.950 . S
C1077 C1072 1.363 . S
C1077 C1076 1.415 . S
H1078 C1075 0.999 . S
H1079 C1060 0.913 . S
H1080 C1098 0.951 1_655 S
H1081 C1100 0.951 1_655 S
H1082 C1102 0.950 . S
H1083 C1103 0.950 . S
H1084 C1105 0.950 . S
H1085 C1108 0.950 . S
H1086 C1109 0.950 . S
H1087 C1111 0.950 . S
H1088 C1112 0.950 . S
H1089 C1113 0.951 . S
H1090 C1115 0.951 . S
H1091 C1117 0.950 . S
H1092 C1118 0.950 . S
H1093 C1120 0.950 . S
H1094 C1123 0.950 . S
H1095 C1124 0.950 . S
H1096 C1126 0.950 . S
H1097 C1127 0.950 . S
C1098 H1080 0.951 1_455 S
C1098 C1099 1.366 . S
C1098 C1100 1.388 . S
C1099 C1098 1.366 . S
C1099 C1103 1.385 . S
C1100 H1081 0.951 1_455 S
C1100 C1098 1.388 . S
C1100 C1101 1.366 . S
C1101 C1100 1.366 . S
C1101 C1102 1.414 . S
C1101 C1104 1.499 . S
C1102 H1082 0.950 . S
C1102 C1101 1.414 . S
C1102 C1103 1.374 . S
C1103 H1083 0.950 . S
C1103 C1099 1.385 . S
C1103 C1102 1.374 . S
C1104 C1101 1.499 . S
C1104 C1105 1.373 . S
C1104 C1106 1.389 . S
C1105 H1084 0.950 . S
C1105 C1104 1.373 . S
C1105 C1121 1.377 . S
C1106 C1104 1.389 . S
C1106 C1107 1.524 . S
C1106 C1120 1.377 . S
C1107 C1106 1.524 . S
C1107 C1108 1.397 . S
C1107 C1112 1.363 . S
C1108 H1085 0.950 . S
C1108 C1107 1.397 . S
C1108 C1109 1.334 . S
C1109 H1086 0.950 . S
C1109 C1108 1.334 . S
C1109 C1110 1.287 . S
C1110 C1109 1.287 . S
C1110 C1111 1.524 . S
C1110 H1129 0.913 . S
C1111 H1087 0.950 . S
C1111 C1110 1.524 . S
C1111 C1112 1.415 . S
C1112 H1088 0.950 . S
C1112 C1107 1.363 . S
C1112 C1111 1.415 . S
C1113 H1089 0.951 . S
C1113 C1114 1.366 . S
C1113 C1115 1.388 1_556 S
C1114 C1113 1.366 . S
C1114 C1118 1.385 . S
C1115 H1090 0.951 . S
C1115 C1113 1.388 1_554 S
C1115 C1116 1.366 . S
C1116 C1115 1.366 . S
C1116 C1117 1.414 . S
C1116 C1119 1.499 . S
C1117 H1091 0.950 . S
C1117 C1116 1.414 . S
C1117 C1118 1.374 1_554 S
C1118 H1092 0.950 . S
C1118 C1114 1.385 . S
C1118 C1117 1.374 1_556 S
C1119 C1116 1.499 . S
C1119 C1120 1.373 . S
C1119 C1121 1.389 . S
C1120 H1093 0.950 . S
C1120 C1106 1.377 . S
C1120 C1119 1.373 . S
C1121 C1105 1.377 . S
C1121 C1119 1.389 . S
C1121 C1122 1.524 . S
C1122 C1121 1.524 . S
C1122 C1123 1.397 1_455 S
C1122 C1127 1.363 . S
C1123 H1094 0.950 . S
C1123 C1122 1.397 1_655 S
C1123 C1124 1.334 . S
C1124 H1095 0.950 . S
C1124 C1123 1.334 . S
C1124 C1125 1.287 . S
C1125 C1124 1.287 . S
C1125 C1126 1.524 1_655 S
C1125 H1128 0.999 . S
C1126 H1096 0.950 . S
C1126 C1125 1.524 1_455 S
C1126 C1127 1.415 . S
C1127 H1097 0.950 . S
C1127 C1122 1.363 . S
C1127 C1126 1.415 . S
H1128 C1125 0.999 . S
H1129 C1110 0.913 . S
H1130 C1148 0.951 . S
H1131 C1150 0.951 . S
H1132 C1152 0.950 . S
H1133 C1153 0.950 . S
H1134 C1155 0.950 . S
H1135 C1158 0.950 . S
H1136 C1159 0.950 . S
H1137 C1161 0.950 . S
H1138 C1162 0.950 . S
H1139 C1163 0.951 1_565 S
H1140 C1165 0.951 1_565 S
H1141 C1167 0.950 . S
H1142 C1168 0.950 . S
H1143 C1170 0.950 . S
H1144 C1173 0.950 . S
H1145 C1174 0.950 . S
H1146 C1176 0.950 . S
H1147 C1177 0.950 . S
C1148 H1130 0.951 . S
C1148 C1149 1.366 . S
C1148 C1150 1.388 . S
C1149 C1148 1.366 . S
C1149 C1153 1.385 1_545 S
C1150 H1131 0.951 . S
C1150 C1148 1.388 . S
C1150 C1151 1.366 . S
C1151 C1150 1.366 . S
C1151 C1152 1.414 1_545 S
C1151 C1154 1.499 . S
C1152 H1132 0.950 . S
C1152 C1151 1.414 1_565 S
C1152 C1153 1.374 . S
C1153 H1133 0.950 . S
C1153 C1149 1.385 1_565 S
C1153 C1152 1.374 . S
C1154 C1151 1.499 . S
C1154 C1155 1.373 . S
C1154 C1156 1.389 . S
C1155 H1134 0.950 . S
C1155 C1154 1.373 . S
C1155 C1171 1.377 . S
C1156 C1154 1.389 . S
C1156 C1157 1.524 1_545 S
C1156 C1170 1.377 . S
C1157 C1156 1.524 1_565 S
C1157 C1158 1.397 . S
C1157 C1162 1.363 1_565 S
C1158 H1135 0.950 . S
C1158 C1157 1.397 . S
C1158 C1159 1.334 . S
C1159 H1136 0.950 . S
C1159 C1158 1.334 . S
C1159 C1160 1.287 . S
C1160 C1159 1.287 . S
C1160 C1161 1.524 . S
C1160 H1179 0.913 . S
C1161 H1137 0.950 . S
C1161 C1160 1.524 . S
C1161 C1162 1.415 1_565 S
C1162 H1138 0.950 . S
C1162 C1157 1.363 1_545 S
C1162 C1161 1.415 1_545 S
C1163 H1139 0.951 1_545 S
C1163 C1164 1.366 . S
C1163 C1165 1.388 . S
C1164 C1163 1.366 . S
C1164 C1168 1.385 . S
C1165 H1140 0.951 1_545 S
C1165 C1163 1.388 . S
C1165 C1166 1.366 . S
C1166 C1165 1.366 . S
C1166 C1167 1.414 . S
C1166 C1169 1.499 . S
C1167 H1141 0.950 . S
C1167 C1166 1.414 . S
C1167 C1168 1.374 . S
C1168 H1142 0.950 . S
C1168 C1164 1.385 . S
C1168 C1167 1.374 . S
C1169 C1166 1.499 . S
C1169 C1170 1.373 . S
C1169 C1171 1.389 . S
C1170 H1143 0.950 . S
C1170 C1156 1.377 . S
C1170 C1169 1.373 . S
C1171 C1155 1.377 . S
C1171 C1169 1.389 . S
C1171 C1172 1.524 . S
C1172 C1171 1.524 . S
C1172 C1173 1.397 . S
C1172 C1177 1.363 . S
C1173 H1144 0.950 . S
C1173 C1172 1.397 . S
C1173 C1174 1.334 . S
C1174 H1145 0.950 . S
C1174 C1173 1.334 . S
C1174 C1175 1.287 . S
C1175 C1174 1.287 . S
C1175 C1176 1.524 . S
C1175 H1178 0.999 . S
C1176 H1146 0.950 . S
C1176 C1175 1.524 . S
C1176 C1177 1.415 . S
C1177 H1147 0.950 . S
C1177 C1172 1.363 . S
C1177 C1176 1.415 . S
H1178 C1175 0.999 . S
H1179 C1160 0.913 . S
H1180 C1198 0.951 . S
H1181 C1200 0.951 . S
H1182 C1202 0.950 . S
H1183 C1203 0.950 . S
H1184 C1205 0.950 . S
H1185 C1208 0.950 . S
H1186 C1209 0.950 . S
H1187 C1211 0.950 . S
H1188 C1212 0.950 . S
H1189 C1213 0.951 . S
H1190 C1215 0.951 . S
H1191 C1217 0.950 . S
H1192 C1218 0.950 . S
H1193 C1220 0.950 . S
H1194 C1223 0.950 . S
H1195 C1224 0.950 . S
H1196 C1226 0.950 . S
H1197 C1227 0.950 . S
C1198 H1180 0.951 . S
C1198 C1199 1.366 . S
C1198 C1200 1.388 . S
C1199 C1198 1.366 . S
C1199 C1203 1.385 . S
C1200 H1181 0.951 . S
C1200 C1198 1.388 . S
C1200 C1201 1.366 . S
C1201 C1200 1.366 . S
C1201 C1202 1.414 . S
C1201 C1204 1.499 . S
C1202 H1182 0.950 . S
C1202 C1201 1.414 . S
C1202 C1203 1.374 . S
C1203 H1183 0.950 . S
C1203 C1199 1.385 . S
C1203 C1202 1.374 . S
C1204 C1201 1.499 . S
C1204 C1205 1.373 . S
C1204 C1206 1.389 . S
C1205 H1184 0.950 . S
C1205 C1204 1.373 . S
C1205 C1221 1.377 . S
C1206 C1204 1.389 . S
C1206 C1207 1.524 . S
C1206 C1220 1.377 . S
C1207 C1206 1.524 . S
C1207 C1208 1.397 . S
C1207 C1212 1.363 . S
C1208 H1185 0.950 . S
C1208 C1207 1.397 . S
C1208 C1209 1.334 . S
C1209 H1186 0.950 . S
C1209 C1208 1.334 . S
C1209 C1210 1.287 . S
C1210 C1209 1.287 . S
C1210 C1211 1.524 . S
C1210 H1229 0.913 . S
C1211 H1187 0.950 . S
C1211 C1210 1.524 . S
C1211 C1212 1.415 . S
C1212 H1188 0.950 . S
C1212 C1207 1.363 . S
C1212 C1211 1.415 . S
C1213 H1189 0.951 . S
C1213 C1214 1.366 . S
C1213 C1215 1.388 . S
C1214 C1213 1.366 . S
C1214 C1218 1.385 . S
C1215 H1190 0.951 . S
C1215 C1213 1.388 . S
C1215 C1216 1.366 . S
C1216 C1215 1.366 . S
C1216 C1217 1.414 . S
C1216 C1219 1.499 . S
C1217 H1191 0.950 . S
C1217 C1216 1.414 . S
C1217 C1218 1.374 . S
C1218 H1192 0.950 . S
C1218 C1214 1.385 . S
C1218 C1217 1.374 . S
C1219 C1216 1.499 . S
C1219 C1220 1.373 . S
C1219 C1221 1.389 . S
C1220 H1193 0.950 . S
C1220 C1206 1.377 . S
C1220 C1219 1.373 . S
C1221 C1205 1.377 . S
C1221 C1219 1.389 . S
C1221 C1222 1.524 . S
C1222 C1221 1.524 . S
C1222 C1223 1.397 . S
C1222 C1227 1.363 . S
C1223 H1194 0.950 . S
C1223 C1222 1.397 . S
C1223 C1224 1.334 . S
C1224 H1195 0.950 . S
C1224 C1223 1.334 . S
C1224 C1225 1.287 . S
C1225 C1224 1.287 . S
C1225 C1226 1.524 . S
C1225 H1228 0.999 . S
C1226 H1196 0.950 . S
C1226 C1225 1.524 . S
C1226 C1227 1.415 . S
C1227 H1197 0.950 . S
C1227 C1222 1.363 . S
C1227 C1226 1.415 . S
H1228 C1225 0.999 . S
H1229 C1210 0.913 . S
H1230 C1248 0.951 . S
H1231 C1250 0.951 . S
H1232 C1252 0.950 . S
H1233 C1253 0.950 . S
H1234 C1255 0.950 . S
H1235 C1258 0.950 1_545 S
H1236 C1259 0.950 . S
H1237 C1261 0.950 . S
H1238 C1262 0.950 . S
H1239 C1263 0.951 . S
H1240 C1265 0.951 . S
H1241 C1267 0.950 . S
H1242 C1268 0.950 . S
H1243 C1270 0.950 . S
H1244 C1273 0.950 1_565 S
H1245 C1274 0.950 . S
H1246 C1276 0.950 . S
H1247 C1277 0.950 . S
C1248 H1230 0.951 . S
C1248 C1249 1.366 1_565 S
C1248 C1250 1.388 . S
C1249 C1248 1.366 1_545 S
C1249 C1253 1.385 . S
C1250 H1231 0.951 . S
C1250 C1248 1.388 . S
C1250 C1251 1.366 1_565 S
C1251 C1250 1.366 1_545 S
C1251 C1252 1.414 . S
C1251 C1254 1.499 . S
C1252 H1232 0.950 . S
C1252 C1251 1.414 . S
C1252 C1253 1.374 . S
C1253 H1233 0.950 . S
C1253 C1249 1.385 . S
C1253 C1252 1.374 . S
C1254 C1251 1.499 . S
C1254 C1255 1.373 . S
C1254 C1256 1.389 1_545 S
C1255 H1234 0.950 . S
C1255 C1254 1.373 . S
C1255 C1271 1.377 . S
C1256 C1254 1.389 1_565 S
C1256 C1257 1.524 . S
C1256 C1270 1.377 . S
C1257 C1256 1.524 . S
C1257 C1258 1.397 . S
C1257 C1262 1.363 . S
C1258 H1235 0.950 1_565 S
C1258 C1257 1.397 . S
C1258 C1259 1.334 . S
C1259 H1236 0.950 . S
C1259 C1258 1.334 . S
C1259 C1260 1.287 . S
C1260 C1259 1.287 . S
C1260 C1261 1.524 . S
C1260 H1279 0.913 . S
C1261 H1237 0.950 . S
C1261 C1260 1.524 . S
C1261 C1262 1.415 . S
C1262 H1238 0.950 . S
C1262 C1257 1.363 . S
C1262 C1261 1.415 . S
C1263 H1239 0.951 . S
C1263 C1264 1.366 1_545 S
C1263 C1265 1.388 . S
C1264 C1263 1.366 1_565 S
C1264 C1268 1.385 . S
C1265 H1240 0.951 . S
C1265 C1263 1.388 . S
C1265 C1266 1.356 1_545 S
C1266 C1265 1.356 1_565 S
C1266 C1267 1.424 . S
C1266 C1269 1.498 . S
C1267 H1241 0.950 . S
C1267 C1266 1.424 . S
C1267 C1268 1.374 . S
C1268 H1242 0.950 . S
C1268 C1264 1.385 . S
C1268 C1267 1.374 . S
C1269 C1266 1.498 . S
C1269 C1270 1.372 . S
C1269 C1271 1.389 1_565 S
C1270 H1243 0.950 . S
C1270 C1256 1.377 . S
C1270 C1269 1.372 . S
C1271 C1255 1.377 . S
C1271 C1269 1.389 1_545 S
C1271 C1272 1.524 . S
C1272 C1271 1.524 . S
C1272 C1273 1.397 . S
C1272 C1277 1.363 . S
C1273 H1244 0.950 1_545 S
C1273 C1272 1.397 . S
C1273 C1274 1.334 . S
C1274 H1245 0.950 . S
C1274 C1273 1.334 . S
C1274 C1275 1.287 . S
C1275 C1274 1.287 . S
C1275 C1276 1.524 . S
C1275 H1278 0.999 . S
C1276 H1246 0.950 . S
C1276 C1275 1.524 . S
C1276 C1277 1.415 . S
C1277 H1247 0.950 . S
C1277 C1272 1.363 . S
C1277 C1276 1.415 . S
H1278 C1275 0.999 . S
H1279 C1260 0.913 . S
H1280 C1298 0.951 . S
H1281 C1300 0.951 . S
H1282 C1302 0.950 . S
H1283 C1303 0.950 . S
H1284 C1305 0.950 . S
H1285 C1308 0.950 . S
H1286 C1309 0.950 . S
H1287 C1311 0.950 . S
H1288 C1312 0.950 . S
H1289 C1313 0.951 . S
H1290 C1315 0.951 . S
H1291 C1317 0.950 . S
H1292 C1318 0.950 . S
H1293 C1320 0.950 . S
H1294 C1323 0.950 . S
H1295 C1324 0.950 . S
H1296 C1326 0.950 . S
H1297 C1327 0.950 . S
C1298 H1280 0.951 . S
C1298 C1299 1.366 . S
C1298 C1300 1.388 . S
C1299 C1298 1.366 . S
C1299 C1303 1.385 . S
C1300 H1281 0.951 . S
C1300 C1298 1.388 . S
C1300 C1301 1.366 . S
C1301 C1300 1.366 . S
C1301 C1302 1.414 . S
C1301 C1304 1.499 . S
C1302 H1282 0.950 . S
C1302 C1301 1.414 . S
C1302 C1303 1.374 . S
C1303 H1283 0.950 . S
C1303 C1299 1.385 . S
C1303 C1302 1.374 . S
C1304 C1301 1.499 . S
C1304 C1305 1.373 . S
C1304 C1306 1.389 . S
C1305 H1284 0.950 . S
C1305 C1304 1.373 . S
C1305 C1321 1.377 . S
C1306 C1304 1.389 . S
C1306 C1307 1.524 . S
C1306 C1320 1.377 . S
C1307 C1306 1.524 . S
C1307 C1308 1.397 . S
C1307 C1312 1.363 . S
C1308 H1285 0.950 . S
C1308 C1307 1.397 . S
C1308 C1309 1.334 . S
C1309 H1286 0.950 . S
C1309 C1308 1.334 . S
C1309 C1310 1.287 . S
C1310 C1309 1.287 . S
C1310 C1311 1.524 . S
C1310 H1329 0.913 . S
C1311 H1287 0.950 . S
C1311 C1310 1.524 . S
C1311 C1312 1.415 . S
C1312 H1288 0.950 . S
C1312 C1307 1.363 . S
C1312 C1311 1.415 . S
C1313 H1289 0.951 . S
C1313 C1314 1.366 . S
C1313 C1315 1.388 1_554 S
C1314 C1313 1.366 . S
C1314 C1318 1.385 . S
C1315 H1290 0.951 . S
C1315 C1313 1.388 1_556 S
C1315 C1316 1.366 . S
C1316 C1315 1.366 . S
C1316 C1317 1.414 . S
C1316 C1319 1.499 . S
C1317 H1291 0.950 . S
C1317 C1316 1.414 . S
C1317 C1318 1.374 1_556 S
C1318 H1292 0.950 . S
C1318 C1314 1.385 . S
C1318 C1317 1.374 1_554 S
C1319 C1316 1.499 . S
C1319 C1320 1.373 . S
C1319 C1321 1.389 . S
C1320 H1293 0.950 . S
C1320 C1306 1.377 . S
C1320 C1319 1.373 . S
C1321 C1305 1.377 . S
C1321 C1319 1.389 . S
C1321 C1322 1.524 . S
C1322 C1321 1.524 . S
C1322 C1323 1.397 . S
C1322 C1327 1.363 . S
C1323 H1294 0.950 . S
C1323 C1322 1.397 . S
C1323 C1324 1.334 . S
C1324 H1295 0.950 . S
C1324 C1323 1.334 . S
C1324 C1325 1.287 . S
C1325 C1324 1.287 . S
C1325 C1326 1.524 . S
C1325 H1328 0.999 . S
C1326 H1296 0.950 . S
C1326 C1325 1.524 . S
C1326 C1327 1.415 . S
C1327 H1297 0.950 . S
C1327 C1322 1.363 . S
C1327 C1326 1.415 . S
H1328 C1325 0.999 . S
H1329 C1310 0.913 . S
H1330 C1348 0.951 . S
H1331 C1350 0.951 . S
H1332 C1352 0.950 . S
H1333 C1353 0.950 . S
H1334 C1355 0.950 . S
H1335 C1358 0.950 . S
H1336 C1359 0.950 . S
H1337 C1361 0.950 . S
H1338 C1362 0.950 . S
H1339 C1363 0.951 . S
H1340 C1365 0.951 . S
H1341 C1367 0.955 1_655 S
H1342 C1368 0.950 . S
H1343 C1370 0.950 . S
H1344 C1373 0.950 . S
H1345 C1374 0.950 . S
H1346 C1376 0.950 . S
H1347 C1377 0.950 . S
C1348 H1330 0.951 . S
C1348 C1349 1.366 . S
C1348 C1350 1.388 . S
C1349 C1348 1.366 . S
C1349 C1353 1.385 . S
C1350 H1331 0.951 . S
C1350 C1348 1.388 . S
C1350 C1351 1.366 . S
C1351 C1350 1.366 . S
C1351 C1352 1.414 . S
C1351 C1354 1.499 . S
C1352 H1332 0.950 . S
C1352 C1351 1.414 . S
C1352 C1353 1.374 . S
C1353 H1333 0.950 . S
C1353 C1349 1.385 . S
C1353 C1352 1.374 . S
C1354 C1351 1.499 . S
C1354 C1355 1.373 . S
C1354 C1356 1.389 1_455 S
C1355 H1334 0.950 . S
C1355 C1354 1.373 . S
C1355 C1371 1.377 . S
C1356 C1354 1.389 1_655 S
C1356 C1357 1.524 . S
C1356 C1370 1.377 . S
C1357 C1356 1.524 . S
C1357 C1358 1.397 . S
C1357 C1362 1.363 . S
C1358 H1335 0.950 . S
C1358 C1357 1.397 . S
C1358 C1359 1.334 . S
C1359 H1336 0.950 . S
C1359 C1358 1.334 . S
C1359 C1360 1.287 . S
C1360 C1359 1.287 . S
C1360 C1361 1.524 . S
C1360 H1379 0.913 . S
C1361 H1337 0.950 . S
C1361 C1360 1.524 . S
C1361 C1362 1.415 . S
C1362 H1338 0.950 . S
C1362 C1357 1.363 . S
C1362 C1361 1.415 . S
C1363 H1339 0.951 . S
C1363 C1364 1.378 1_455 S
C1363 C1365 1.388 . S
C1364 C1363 1.378 1_655 S
C1364 C1368 1.370 . S
C1365 H1340 0.951 . S
C1365 C1363 1.388 . S
C1365 C1366 1.366 . S
C1366 C1365 1.366 . S
C1366 C1367 1.410 . S
C1366 C1369 1.499 . S
C1367 H1341 0.955 1_455 S
C1367 C1366 1.410 . S
C1367 C1368 1.373 1_455 S
C1368 H1342 0.950 . S
C1368 C1364 1.370 . S
C1368 C1367 1.373 1_655 S
C1369 C1366 1.499 . S
C1369 C1370 1.373 1_455 S
C1369 C1371 1.389 . S
C1370 H1343 0.950 . S
C1370 C1356 1.377 . S
C1370 C1369 1.373 1_655 S
C1371 C1355 1.377 . S
C1371 C1369 1.389 . S
C1371 C1372 1.524 . S
C1372 C1371 1.524 . S
C1372 C1373 1.397 . S
C1372 C1377 1.363 . S
C1373 H1344 0.950 . S
C1373 C1372 1.397 . S
C1373 C1374 1.334 . S
C1374 H1345 0.950 . S
C1374 C1373 1.334 . S
C1374 C1375 1.287 . S
C1375 C1374 1.287 . S
C1375 C1376 1.524 . S
C1375 H1378 0.999 . S
C1376 H1346 0.950 . S
C1376 C1375 1.524 . S
C1376 C1377 1.415 . S
C1377 H1347 0.950 . S
C1377 C1372 1.363 . S
C1377 C1376 1.415 . S
H1378 C1375 0.999 . S
H1379 C1360 0.913 . S
C499 C6 0.421 . S
C514 C451 0.355 . S
C549 C59 1.845 . S
C564 C301 1.733 . S
C599 C86 1.140 . S
C614 C361 1.111 . S
C649 C15 0.316 . S
C664 C421 0.403 . S
C714 C331 1.963 . S
C699 C50 1.938 . S
C764 C391 1.261 . S
C749 C95 1.252 . S
C799 C46 1.136 . S
C814 C181 1.097 . S
C849 C99 3.057 . S
C864 C271 3.057 . S
C899 C10 1.965 . S
C914 C151 1.999 . S
C964 C211 1.242 . S
C949 C55 1.229 . S
C1014 C241 2.814 . S
C999 C90 2.927 . S
C1049 C19 1.834 . S
C1064 C121 1.727 . S
C1114 C260 1.740 . S
C1099 C18 1.693 . S
C1149 C49 1.328 . S
C1164 C140 1.351 . S
C1199 C98 1.448 . S
C1214 C200 1.478 . S
C1264 C380 1.459 1_565 S
C1249 C58 1.438 . S
C1314 C440 1.091 . S
C1299 C89 1.079 . S
C1349 C9 1.324 . S
C1364 C320 1.346 1_655 S
