# Generated by pormake.
# Topology wbl, (4,4)-cn, num edge types: 1
# Building blocks:
#     Node 0, Type 0, BuildingBlock: MUDLON_clean_linker_0, # of connection points: 4
#     Node 1, Type 0, BuildingBlock: MUDLON_clean_linker_0, # of connection points: 4
#     Node 2, Type 0, BuildingBlock: MUDLON_clean_linker_0, # of connection points: 4
#     Node 3, Type 0, BuildingBlock: MUDLON_clean_linker_0, # of connection points: 4
#     Node 4, Type 0, BuildingBlock: MUDLON_clean_linker_0, # of connection points: 4
#     Node 5, Type 0, BuildingBlock: MUDLON_clean_linker_0, # of connection points: 4
#     Node 6, Type 0, BuildingBlock: MUDLON_clean_linker_0, # of connection points: 4
#     Node 7, Type 0, BuildingBlock: MUDLON_clean_linker_0, # of connection points: 4
#     Node 8, Type 1, BuildingBlock: CEKHIL_clean_sbu_0, # of connection points: 4
#     Node 9, Type 1, BuildingBlock: CEKHIL_clean_sbu_0, # of connection points: 4
#     Node 10, Type 1, BuildingBlock: CEKHIL_clean_sbu_0, # of connection points: 4
#     Node 11, Type 1, BuildingBlock: CEKHIL_clean_sbu_0, # of connection points: 4
#     Node 12, Type 1, BuildingBlock: CEKHIL_clean_sbu_0, # of connection points: 4
#     Node 13, Type 1, BuildingBlock: CEKHIL_clean_sbu_0, # of connection points: 4
#     Node 14, Type 1, BuildingBlock: CEKHIL_clean_sbu_0, # of connection points: 4
#     Node 15, Type 1, BuildingBlock: CEKHIL_clean_sbu_0, # of connection points: 4
#     Edge 16, Type (0, 1), BuildingBlock: ZUJKAS_clean_linker_0, # of connection points: 2
#     Edge 17, Type (0, 1), BuildingBlock: ZUJKAS_clean_linker_0, # of connection points: 2
#     Edge 18, Type (0, 1), BuildingBlock: ZUJKAS_clean_linker_0, # of connection points: 2
#     Edge 19, Type (0, 1), BuildingBlock: ZUJKAS_clean_linker_0, # of connection points: 2
#     Edge 20, Type (0, 1), BuildingBlock: ZUJKAS_clean_linker_0, # of connection points: 2
#     Edge 21, Type (0, 1), BuildingBlock: ZUJKAS_clean_linker_0, # of connection points: 2
#     Edge 22, Type (0, 1), BuildingBlock: ZUJKAS_clean_linker_0, # of connection points: 2
#     Edge 23, Type (0, 1), BuildingBlock: ZUJKAS_clean_linker_0, # of connection points: 2
#     Edge 24, Type (0, 1), BuildingBlock: ZUJKAS_clean_linker_0, # of connection points: 2
#     Edge 25, Type (0, 1), BuildingBlock: ZUJKAS_clean_linker_0, # of connection points: 2
#     Edge 26, Type (0, 1), BuildingBlock: ZUJKAS_clean_linker_0, # of connection points: 2
#     Edge 27, Type (0, 1), BuildingBlock: ZUJKAS_clean_linker_0, # of connection points: 2
#     Edge 28, Type (0, 1), BuildingBlock: ZUJKAS_clean_linker_0, # of connection points: 2
#     Edge 29, Type (0, 1), BuildingBlock: ZUJKAS_clean_linker_0, # of connection points: 2
#     Edge 30, Type (0, 1), BuildingBlock: ZUJKAS_clean_linker_0, # of connection points: 2
#     Edge 31, Type (0, 1), BuildingBlock: ZUJKAS_clean_linker_0, # of connection points: 2
#     Edge 32, Type (0, 1), BuildingBlock: ZUJKAS_clean_linker_0, # of connection points: 2
#     Edge 33, Type (0, 1), BuildingBlock: ZUJKAS_clean_linker_0, # of connection points: 2
#     Edge 34, Type (0, 1), BuildingBlock: ZUJKAS_clean_linker_0, # of connection points: 2
#     Edge 35, Type (0, 1), BuildingBlock: ZUJKAS_clean_linker_0, # of connection points: 2
#     Edge 36, Type (0, 1), BuildingBlock: ZUJKAS_clean_linker_0, # of connection points: 2
#     Edge 37, Type (0, 1), BuildingBlock: ZUJKAS_clean_linker_0, # of connection points: 2
#     Edge 38, Type (0, 1), BuildingBlock: ZUJKAS_clean_linker_0, # of connection points: 2
#     Edge 39, Type (0, 1), BuildingBlock: ZUJKAS_clean_linker_0, # of connection points: 2
#     Edge 40, Type (0, 1), BuildingBlock: ZUJKAS_clean_linker_0, # of connection points: 2
#     Edge 41, Type (0, 1), BuildingBlock: ZUJKAS_clean_linker_0, # of connection points: 2
#     Edge 42, Type (0, 1), BuildingBlock: ZUJKAS_clean_linker_0, # of connection points: 2
#     Edge 43, Type (0, 1), BuildingBlock: ZUJKAS_clean_linker_0, # of connection points: 2
#     Edge 44, Type (0, 1), BuildingBlock: ZUJKAS_clean_linker_0, # of connection points: 2
#     Edge 45, Type (0, 1), BuildingBlock: ZUJKAS_clean_linker_0, # of connection points: 2
#     Edge 46, Type (0, 1), BuildingBlock: ZUJKAS_clean_linker_0, # of connection points: 2
#     Edge 47, Type (0, 1), BuildingBlock: ZUJKAS_clean_linker_0, # of connection points: 2
# Relax obj value: 0.125
# Max RMSD: 0.145
# Mean RMSD: 0.131
data_MOF--net-wbl--node1-CEKHIL_clean_sbu_0--node2-MUDLON_clean_linker_0--edge1-ZUJKAS_clean_linker_0
_symmetry_space_group_name_H-M    P1
_symmetry_Int_Tables_number       1
_symmetry_cell_setting            triclinic
loop_
_symmetry_equiv_pos_as_xyz
'x, y, z'
_cell_length_a     65.155498
_cell_length_b     65.433803
_cell_length_c     94.005609
_cell_angle_alpha  90.319864
_cell_angle_beta   90.097183
_cell_angle_gamma 89.990334
loop_
_atom_site_label
_atom_site_type_symbol
_atom_site_fract_x
_atom_site_fract_y
_atom_site_fract_z
_atom_type_partial_charge
H0 H 0.10834 0.98451 0.3286 0.0
N1 N 0.07839 0.97682 0.31027 0.0
H2 H 0.11628 0.96589 0.35045 0.0
H3 H 0.0545 0.94741 0.32222 0.0
H4 H 0.06241 0.92841 0.34404 0.0
H5 H 0.06705 0.94011 0.2987 0.0
H6 H 0.0882 0.91919 0.28282 0.0
H7 H 0.11057 0.98939 0.29558 0.0
H8 H 0.1319 0.96867 0.27982 0.0
H9 H 0.07592 0.01551 0.31812 0.0
H10 H 0.04132 0.96707 0.29829 0.0
H11 H 0.04666 0.03846 0.31591 0.0
H12 H 0.01209 0.99023 0.29524 0.0
H13 H 0.95933 0.11203 0.31425 0.0
H14 H 0.94471 0.12458 0.33659 0.0
H15 H 0.93242 0.06234 0.34922 0.0
H16 H 0.94632 0.0501 0.32675 0.0
H17 H 0.92616 0.04949 0.30442 0.0
H18 H 0.89553 0.05511 0.29012 0.0
H19 H 0.92651 0.10361 0.2677 0.0
H20 H 0.95715 0.09801 0.28232 0.0
H21 H 0.99941 0.08153 0.29986 0.0
H22 H 0.02798 0.05742 0.29948 0.0
H23 H 0.98568 0.00787 0.3075 0.0
N24 N 0.96028 0.07382 0.30475 0.0
H25 H 0.95718 0.03197 0.30687 0.0
C26 C 0.08097 0.96726 0.32386 0.0
C27 C 0.09808 0.97253 0.3321 0.0
C28 C 0.10255 0.96189 0.34454 0.0
C29 C 0.09001 0.94563 0.3489 0.0
C30 C 0.07246 0.94073 0.34083 0.0
C31 C 0.06788 0.95158 0.32843 0.0
C32 C 0.08739 0.9663 0.29835 0.0
C33 C 0.08084 0.94667 0.29425 0.0
C34 C 0.09302 0.93466 0.28525 0.0
C35 C 0.11186 0.94215 0.28017 0.0
C36 C 0.11741 0.96245 0.28338 0.0
C37 C 0.10527 0.97435 0.2924 0.0
C38 C 0.06086 0.98978 0.30824 0.0
C39 C 0.062 0.00998 0.31309 0.0
C40 C 0.04529 0.0231 0.31168 0.0
C41 C 0.027 0.01637 0.30518 0.0
C42 C 0.02584 0.99595 0.30037 0.0
C43 C 0.0426 0.9827 0.30198 0.0
C44 C 0.95412 0.0802 0.31881 0.0
C45 C 0.95376 0.10113 0.32197 0.0
C46 C 0.94543 0.10824 0.33476 0.0
C47 C 0.93728 0.09448 0.34471 0.0
C48 C 0.93823 0.0734 0.34171 0.0
C49 C 0.94646 0.06633 0.32887 0.0
C50 C 0.94398 0.07339 0.29442 0.0
C51 C 0.92667 0.06085 0.29612 0.0
C52 C 0.90909 0.06411 0.2879 0.0
C53 C 0.90849 0.07998 0.27787 0.0
C54 C 0.92638 0.09147 0.27549 0.0
C55 C 0.94394 0.08818 0.28371 0.0
C56 C 0.97626 0.05871 0.30365 0.0
C57 C 0.99635 0.06542 0.30137 0.0
C58 C 0.01266 0.05159 0.3013 0.0
C59 C 0.00927 0.03066 0.30378 0.0
C60 C 0.98894 0.02382 0.30553 0.0
C61 C 0.97256 0.03769 0.30534 0.0
H62 H 0.98053 0.39746 0.56852 0.0
N63 N 0.97467 0.43391 0.55694 0.0
H64 H 0.96587 0.38467 0.59075 0.0
H65 H 0.95472 0.45691 0.57711 0.0
H66 H 0.93997 0.4443 0.59913 0.0
H67 H 0.93425 0.44504 0.55546 0.0
H68 H 0.90806 0.4259 0.54224 0.0
H69 H 0.98168 0.41056 0.5343 0.0
H70 H 0.95558 0.39214 0.52051 0.0
H71 H 0.0149 0.43442 0.55387 0.0
H72 H 0.96211 0.47386 0.55584 0.0
H73 H 0.03745 0.46407 0.55285 0.0
H74 H 0.98458 0.50388 0.55596 0.0
H75 H 0.10622 0.55624 0.57063 0.0
H76 H 0.11485 0.57416 0.59275 0.0
H77 H 0.05084 0.58909 0.59881 0.0
H78 H 0.04235 0.57087 0.57664 0.0
H79 H 0.04502 0.58705 0.55383 0.0
H80 H 0.05388 0.61678 0.53971 0.0
H81 H 0.10672 0.58468 0.52308 0.0
H82 H 0.09804 0.55514 0.53777 0.0
H83 H 0.07411 0.51707 0.56903 0.0
H84 H 0.05013 0.48865 0.56826 0.0
H85 H 0.00775 0.52535 0.54381 0.0
N86 N 0.06984 0.55391 0.55809 0.0
H87 H 0.03134 0.55416 0.54544 0.0
C88 C 0.96892 0.42811 0.57116 0.0
C89 C 0.97212 0.40785 0.57536 0.0
C90 C 0.96355 0.40054 0.58796 0.0
C91 C 0.95161 0.41344 0.59663 0.0
C92 C 0.94925 0.43403 0.59276 0.0
C93 C 0.95774 0.44129 0.58012 0.0
C94 C 0.95993 0.42881 0.54606 0.0
C95 C 0.93908 0.43403 0.54752 0.0
C96 C 0.92412 0.42313 0.53996 0.0
C97 C 0.92988 0.40749 0.53049 0.0
C98 C 0.95079 0.40423 0.5277 0.0
C99 C 0.9657 0.41474 0.53553 0.0
C100 C 0.98699 0.45194 0.55524 0.0
C101 C 0.00824 0.44958 0.55416 0.0
C102 C 0.02109 0.4666 0.55375 0.0
C103 C 0.01296 0.4865 0.55472 0.0
C104 C 0.99146 0.48886 0.55521 0.0
C105 C 0.97856 0.4717 0.55532 0.0
C106 C 0.07375 0.56228 0.57203 0.0
C107 C 0.09405 0.56307 0.57689 0.0
C108 C 0.09891 0.5733 0.5895 0.0
C109 C 0.08352 0.58311 0.59747 0.0
C110 C 0.06304 0.58187 0.59278 0.0
C111 C 0.05815 0.5714 0.58019 0.0
C112 C 0.07103 0.56889 0.54694 0.0
C113 C 0.05816 0.58615 0.54684 0.0
C114 C 0.06324 0.60318 0.53868 0.0
C115 C 0.08125 0.60327 0.53044 0.0
C116 C 0.09299 0.58526 0.52955 0.0
C117 C 0.08793 0.56828 0.53777 0.0
C118 C 0.05477 0.53775 0.55727 0.0
C119 C 0.05959 0.51901 0.56357 0.0
C120 C 0.04589 0.50268 0.56296 0.0
C121 C 0.02705 0.50446 0.55573 0.0
C122 C 0.02204 0.52339 0.54955 0.0
C123 C 0.03568 0.53994 0.55039 0.0
H124 H 0.59806 0.48636 0.8288 0.0
N125 N 0.57024 0.476 0.80944 0.0
H126 H 0.60629 0.46821 0.85081 0.0
H127 H 0.5485 0.44441 0.82053 0.0
H128 H 0.55672 0.42593 0.84247 0.0
H129 H 0.55991 0.44011 0.79644 0.0
H130 H 0.58261 0.41987 0.7811 0.0
H131 H 0.60368 0.48938 0.79653 0.0
H132 H 0.62644 0.46946 0.78122 0.0
H133 H 0.56976 0.51596 0.81344 0.0
H134 H 0.53177 0.46525 0.80074 0.0
H135 H 0.54051 0.53904 0.81152 0.0
H136 H 0.50224 0.48835 0.79828 0.0
H137 H 0.46521 0.60512 0.82424 0.0
H138 H 0.4504 0.61588 0.84699 0.0
H139 H 0.4107 0.56298 0.84628 0.0
H140 H 0.4252 0.55269 0.82351 0.0
H141 H 0.42293 0.54843 0.7989 0.0
H142 H 0.39298 0.55872 0.78512 0.0
H143 H 0.42107 0.61758 0.77761 0.0
H144 H 0.4503 0.60749 0.79231 0.0
H145 H 0.49038 0.57981 0.79703 0.0
H146 H 0.51836 0.5551 0.79507 0.0
H147 H 0.479 0.50843 0.81262 0.0
N148 N 0.45347 0.57404 0.8079 0.0
H149 H 0.45089 0.53304 0.81383 0.0
C150 C 0.57279 0.46667 0.8231 0.0
C151 C 0.58876 0.47343 0.83191 0.0
C152 C 0.59341 0.46305 0.84443 0.0
C153 C 0.58221 0.44559 0.84829 0.0
C154 C 0.56574 0.4392 0.83965 0.0
C155 C 0.56097 0.44977 0.82717 0.0
C156 C 0.58028 0.4662 0.79766 0.0
C157 C 0.57412 0.44681 0.7928 0.0
C158 C 0.58716 0.43522 0.7841 0.0
C159 C 0.60643 0.44296 0.78006 0.0
C160 C 0.61165 0.46308 0.78399 0.0
C161 C 0.59869 0.47453 0.79274 0.0
C162 C 0.5529 0.48907 0.80716 0.0
C163 C 0.55508 0.50994 0.81 0.0
C164 C 0.53834 0.52309 0.80879 0.0
C165 C 0.51897 0.51563 0.80461 0.0
C166 C 0.51687 0.4946 0.80162 0.0
C167 C 0.53373 0.48139 0.80291 0.0
C168 C 0.44649 0.57811 0.82217 0.0
C169 C 0.45359 0.59569 0.82916 0.0
C170 C 0.4451 0.60178 0.84215 0.0
C171 C 0.42925 0.59035 0.84842 0.0
C172 C 0.42266 0.57229 0.84164 0.0
C173 C 0.43116 0.56624 0.82864 0.0
C174 C 0.43857 0.57745 0.79689 0.0
C175 C 0.42273 0.56343 0.79414 0.0
C176 C 0.40566 0.56933 0.7861 0.0
C177 C 0.40432 0.58922 0.78049 0.0
C178 C 0.42125 0.60239 0.78211 0.0
C179 C 0.43809 0.59659 0.79034 0.0
C180 C 0.46873 0.55844 0.80579 0.0
C181 C 0.48777 0.56416 0.80025 0.0
C182 C 0.50376 0.55004 0.79926 0.0
C183 C 0.5011 0.52983 0.80395 0.0
C184 C 0.48162 0.52383 0.80887 0.0
C185 C 0.46552 0.53799 0.80971 0.0
H186 H 0.48146 0.906 0.06998 0.0
N187 N 0.47016 0.94093 0.05744 0.0
H188 H 0.46684 0.89155 0.09177 0.0
H189 H 0.44521 0.96039 0.07575 0.0
H190 H 0.43086 0.94647 0.09768 0.0
H191 H 0.43 0.9443 0.05148 0.0
H192 H 0.41051 0.92175 0.03588 0.0
H193 H 0.48642 0.91724 0.03688 0.0
H194 H 0.46732 0.89579 0.02018 0.0
H195 H 0.51042 0.9354 0.05331 0.0
H196 H 0.46383 0.9815 0.05806 0.0
H197 H 0.53675 0.96186 0.05155 0.0
H198 H 0.49006 0.00823 0.05734 0.0
H199 H 0.61476 0.05424 0.06935 0.0
H200 H 0.62218 0.07106 0.09207 0.0
H201 H 0.55714 0.07912 0.0992 0.0
H202 H 0.54996 0.0627 0.07628 0.0
H203 H 0.5545 0.08366 0.05462 0.0
H204 H 0.56266 0.1138 0.04076 0.0
H205 H 0.61407 0.08197 0.0219 0.0
H206 H 0.60591 0.05177 0.03614 0.0
H207 H 0.58086 0.0114 0.06618 0.0
H208 H 0.55448 0.98505 0.06574 0.0
H209 H 0.51372 0.02635 0.04366 0.0
N210 N 0.57846 0.04945 0.05694 0.0
H211 H 0.53962 0.05286 0.04488 0.0
C212 C 0.46444 0.93423 0.07139 0.0
C213 C 0.47077 0.91501 0.07621 0.0
C214 C 0.46238 0.90682 0.08863 0.0
C215 C 0.44749 0.91777 0.09637 0.0
C216 C 0.442 0.93749 0.09182 0.0
C217 C 0.45037 0.9456 0.07942 0.0
C218 C 0.45959 0.93218 0.04547 0.0
C219 C 0.43821 0.93404 0.04442 0.0
C220 C 0.42709 0.92114 0.03538 0.0
C221 C 0.43723 0.90643 0.02694 0.0
C222 C 0.45887 0.90634 0.02688 0.0
C223 C 0.46991 0.91884 0.03625 0.0
C224 C 0.48531 0.95661 0.05576 0.0
C225 C 0.50594 0.95132 0.05394 0.0
C226 C 0.52097 0.9665 0.05313 0.0
C227 C 0.51566 0.98731 0.05444 0.0
C228 C 0.49479 0.99247 0.05608 0.0
C229 C 0.47975 0.97724 0.05663 0.0
C230 C 0.58191 0.05709 0.07117 0.0
C231 C 0.60215 0.05937 0.07595 0.0
C232 C 0.60632 0.06898 0.08892 0.0
C233 C 0.59025 0.07651 0.09744 0.0
C234 C 0.56988 0.07377 0.0928 0.0
C235 C 0.56573 0.06419 0.07978 0.0
C236 C 0.57965 0.06537 0.04641 0.0
C237 C 0.56714 0.08287 0.04719 0.0
C238 C 0.57182 0.10016 0.0392 0.0
C239 C 0.58917 0.10037 0.03032 0.0
C240 C 0.60078 0.08237 0.02879 0.0
C241 C 0.59603 0.06505 0.03678 0.0
C242 C 0.5625 0.03417 0.05561 0.0
C243 C 0.56623 0.01473 0.06122 0.0
C244 C 0.55113 0.99961 0.06084 0.0
C245 C 0.53188 0.00343 0.05459 0.0
C246 C 0.5282 0.02288 0.04877 0.0
C247 C 0.54323 0.03814 0.04937 0.0
H248 H 0.10365 0.52703 0.92148 0.0
N249 N 0.07308 0.5329 0.93953 0.0
H250 H 0.11127 0.54657 0.90006 0.0
H251 H 0.04837 0.56189 0.92783 0.0
H252 H 0.05567 0.58158 0.90623 0.0
H253 H 0.0626 0.56943 0.95163 0.0
H254 H 0.08443 0.58955 0.96763 0.0
H255 H 0.10519 0.51923 0.95391 0.0
H256 H 0.12726 0.53917 0.9697 0.0
H257 H 0.06904 0.49544 0.9294 0.0
H258 H 0.03725 0.54172 0.9535 0.0
H259 H 0.03975 0.4726 0.93166 0.0
H260 H 0.0081 0.51853 0.95663 0.0
H261 H 0.95285 0.39912 0.93405 0.0
H262 H 0.9358 0.38927 0.91178 0.0
H263 H 0.92104 0.45259 0.90401 0.0
H264 H 0.93801 0.46226 0.92615 0.0
H265 H 0.92078 0.45966 0.94957 0.0
H266 H 0.89172 0.45084 0.96453 0.0
H267 H 0.92632 0.40058 0.98216 0.0
H268 H 0.95524 0.4093 0.96674 0.0
H269 H 0.99447 0.42792 0.94794 0.0
H270 H 0.02307 0.45196 0.948 0.0
H271 H 0.98013 0.50222 0.94514 0.0
N272 N 0.95494 0.43608 0.94569 0.0
H273 H 0.95169 0.47801 0.94615 0.0
C274 C 0.07553 0.54303 0.92613 0.0
C275 C 0.09298 0.53869 0.91803 0.0
C276 C 0.09725 0.54986 0.9058 0.0
C277 C 0.08408 0.56566 0.90144 0.0
C278 C 0.06622 0.56965 0.90941 0.0
C279 C 0.06195 0.55837 0.92167 0.0
C280 C 0.08241 0.54285 0.95157 0.0
C281 C 0.07632 0.5625 0.95594 0.0
C282 C 0.08891 0.57404 0.96499 0.0
C283 C 0.10773 0.56608 0.96981 0.0
C284 C 0.1128 0.54575 0.96635 0.0
C285 C 0.10024 0.53429 0.95731 0.0
C286 C 0.05543 0.52006 0.94141 0.0
C287 C 0.05575 0.50051 0.93535 0.0
C288 C 0.03902 0.48743 0.9368 0.0
C289 C 0.02159 0.4935 0.94457 0.0
C290 C 0.02119 0.51333 0.95053 0.0
C291 C 0.03793 0.52658 0.94886 0.0
C292 C 0.94697 0.43137 0.93174 0.0
C293 C 0.94621 0.41087 0.9274 0.0
C294 C 0.93629 0.40527 0.91478 0.0
C295 C 0.92699 0.42016 0.9062 0.0
C296 C 0.92823 0.4408 0.91034 0.0
C297 C 0.93801 0.44636 0.92304 0.0
C298 C 0.94013 0.43497 0.95697 0.0
C299 C 0.92242 0.4472 0.95699 0.0
C300 C 0.90576 0.44212 0.96561 0.0
C301 C 0.90656 0.42477 0.97438 0.0
C302 C 0.92507 0.41379 0.97532 0.0
C303 C 0.94167 0.41886 0.96665 0.0
C304 C 0.97104 0.45107 0.94675 0.0
C305 C 0.9913 0.44415 0.9475 0.0
C306 C 0.00761 0.45795 0.94737 0.0
C307 C 0.00401 0.4791 0.94621 0.0
C308 C 0.98356 0.48609 0.94604 0.0
C309 C 0.9672 0.4722 0.94644 0.0
H310 H 0.52341 0.3945 0.181 0.0
N311 N 0.53005 0.42943 0.19474 0.0
H312 H 0.53865 0.38319 0.15854 0.0
H313 H 0.55331 0.45291 0.1769 0.0
H314 H 0.56813 0.44202 0.15426 0.0
H315 H 0.57063 0.43926 0.19877 0.0
H316 H 0.59488 0.42033 0.21338 0.0
H317 H 0.52089 0.40264 0.21479 0.0
H318 H 0.54514 0.38314 0.22915 0.0
H319 H 0.49204 0.43913 0.18749 0.0
H320 H 0.54725 0.46502 0.20542 0.0
H321 H 0.47592 0.47281 0.18783 0.0
H322 H 0.53103 0.49838 0.20644 0.0
H323 H 0.42811 0.55598 0.18363 0.0
H324 H 0.40948 0.56807 0.1628 0.0
H325 H 0.46336 0.60143 0.14944 0.0
H326 H 0.48143 0.59005 0.1708 0.0
H327 H 0.48437 0.60117 0.20273 0.0
H328 H 0.46941 0.62611 0.21906 0.0
H329 H 0.41673 0.5868 0.22462 0.0
H330 H 0.43172 0.56218 0.20808 0.0
H331 H 0.44639 0.53301 0.19932 0.0
H332 H 0.46188 0.49931 0.20191 0.0
H333 H 0.52103 0.52468 0.19091 0.0
N334 N 0.46633 0.56831 0.19206 0.0
H335 H 0.50543 0.55851 0.18909 0.0
C336 C 0.53707 0.4245 0.18058 0.0
C337 C 0.5329 0.40501 0.17506 0.0
C338 C 0.54162 0.39861 0.16223 0.0
C339 C 0.55472 0.41166 0.15463 0.0
C340 C 0.55839 0.43147 0.15997 0.0
C341 C 0.54972 0.43782 0.17284 0.0
C342 C 0.54382 0.42233 0.20569 0.0
C343 C 0.56478 0.42759 0.20577 0.0
C344 C 0.57872 0.41658 0.21404 0.0
C345 C 0.57203 0.4 0.22228 0.0
C346 C 0.55085 0.39592 0.22306 0.0
C347 C 0.53692 0.40702 0.21484 0.0
C348 C 0.52078 0.44935 0.19643 0.0
C349 C 0.50054 0.45202 0.19174 0.0
C350 C 0.49132 0.47128 0.19204 0.0
C351 C 0.50215 0.48841 0.19716 0.0
C352 C 0.52232 0.48563 0.2022 0.0
C353 C 0.53161 0.46637 0.20174 0.0
C354 C 0.45611 0.57235 0.17881 0.0
C355 C 0.43594 0.56577 0.17619 0.0
C356 C 0.42533 0.57263 0.16418 0.0
C357 C 0.43478 0.58601 0.1545 0.0
C358 C 0.45539 0.59159 0.15683 0.0
C359 C 0.46586 0.58491 0.16891 0.0
C360 C 0.45923 0.57991 0.20412 0.0
C361 C 0.46991 0.59769 0.20784 0.0
C362 C 0.46131 0.61188 0.21722 0.0
C363 C 0.44174 0.60854 0.22307 0.0
C364 C 0.4317 0.58996 0.22013 0.0
C365 C 0.44036 0.57575 0.21073 0.0
C366 C 0.47488 0.54832 0.19417 0.0
C367 C 0.46272 0.53141 0.19772 0.0
C368 C 0.47161 0.51204 0.19904 0.0
C369 C 0.49277 0.50918 0.19663 0.0
C370 C 0.50482 0.52627 0.19314 0.0
C371 C 0.49594 0.54561 0.19198 0.0
H372 H 0.39286 0.98161 0.43116 0.0
N373 N 0.42814 0.97554 0.4446 0.0
H374 H 0.38132 0.96577 0.40886 0.0
H375 H 0.45164 0.95212 0.42682 0.0
H376 H 0.44023 0.93607 0.40454 0.0
H377 H 0.44064 0.93604 0.4489 0.0
H378 H 0.42352 0.91155 0.46446 0.0
H379 H 0.40325 0.9846 0.46601 0.0
H380 H 0.38653 0.9603 0.48194 0.0
H381 H 0.42979 0.01531 0.44026 0.0
H382 H 0.46727 0.96365 0.45153 0.0
H383 H 0.45964 0.03767 0.44174 0.0
H384 H 0.49729 0.98606 0.45368 0.0
H385 H 0.53688 0.103 0.43037 0.0
H386 H 0.55201 0.1135 0.40767 0.0
H387 H 0.59001 0.05941 0.40773 0.0
H388 H 0.57502 0.04915 0.43024 0.0
H389 H 0.57722 0.04456 0.45491 0.0
H390 H 0.60782 0.05407 0.46838 0.0
H391 H 0.58191 0.11396 0.47615 0.0
H392 H 0.55195 0.10457 0.46186 0.0
H393 H 0.51052 0.07731 0.45693 0.0
H394 H 0.48208 0.0531 0.45822 0.0
H395 H 0.52089 0.00609 0.44013 0.0
N396 N 0.54745 0.07116 0.44616 0.0
H397 H 0.54945 0.03012 0.43968 0.0
C398 C 0.42301 0.96804 0.43061 0.0
C399 C 0.40336 0.97197 0.42523 0.0
C400 C 0.39682 0.96291 0.41253 0.0
C401 C 0.40982 0.94956 0.40502 0.0
C402 C 0.42979 0.94609 0.41021 0.0
C403 C 0.43638 0.95534 0.42287 0.0
C404 C 0.42285 0.96213 0.45612 0.0
C405 C 0.42925 0.94158 0.45632 0.0
C406 C 0.4195 0.92758 0.46523 0.0
C407 C 0.4036 0.93402 0.47429 0.0
C408 C 0.39883 0.95493 0.47513 0.0
C409 C 0.40832 0.96883 0.46605 0.0
C410 C 0.44625 0.98797 0.44591 0.0
C411 C 0.4445 0.00889 0.44323 0.0
C412 C 0.46158 0.02165 0.44421 0.0
C413 C 0.48091 0.01378 0.44804 0.0
C414 C 0.48269 0.99265 0.45064 0.0
C415 C 0.46552 0.97982 0.44952 0.0
C416 C 0.55455 0.07524 0.43196 0.0
C417 C 0.54818 0.09326 0.4253 0.0
C418 C 0.55696 0.09929 0.41244 0.0
C419 C 0.57226 0.0873 0.40597 0.0
C420 C 0.57809 0.06884 0.41238 0.0
C421 C 0.56942 0.06292 0.42529 0.0
C422 C 0.56253 0.07407 0.45716 0.0
C423 C 0.57798 0.05959 0.45972 0.0
C424 C 0.59545 0.06505 0.46754 0.0
C425 C 0.59759 0.08499 0.4731 0.0
C426 C 0.58107 0.09868 0.47169 0.0
C427 C 0.56381 0.09329 0.46371 0.0
C428 C 0.53196 0.05573 0.448 0.0
C429 C 0.51291 0.06169 0.45345 0.0
C430 C 0.49664 0.04785 0.45403 0.0
C431 C 0.499 0.02769 0.44897 0.0
C432 C 0.51847 0.02144 0.44413 0.0
C433 C 0.53485 0.0353 0.44373 0.0
H434 H 0.04209 0.92476 0.68129 0.0
N435 N 0.05705 0.96104 0.69185 0.0
H436 H 0.05228 0.90818 0.65923 0.0
H437 H 0.07938 0.97706 0.67106 0.0
H438 H 0.0892 0.96078 0.64856 0.0
H439 H 0.09486 0.95725 0.70183 0.0
H440 H 0.1084 0.92886 0.71572 0.0
H441 H 0.0335 0.93386 0.70704 0.0
H442 H 0.04683 0.90567 0.72111 0.0
H443 H 0.01705 0.94954 0.68679 0.0
H444 H 0.05529 0.99941 0.70097 0.0
H445 H 0.98683 0.97125 0.68867 0.0
H446 H 0.02506 0.02155 0.70254 0.0
H447 H 0.89617 0.05183 0.68229 0.0
H448 H 0.88609 0.07008 0.66071 0.0
H449 H 0.94879 0.08988 0.65505 0.0
H450 H 0.95869 0.07168 0.67665 0.0
H451 H 0.95802 0.08439 0.70039 0.0
H452 H 0.94874 0.1147 0.71409 0.0
H453 H 0.89258 0.08526 0.72724 0.0
H454 H 0.90183 0.05505 0.71312 0.0
H455 H 0.9425 0.02214 0.6762 0.0
H456 H 0.9722 0.99971 0.67624 0.0
H457 H 0.99323 0.02758 0.71536 0.0
N458 N 0.93278 0.05176 0.69488 0.0
H459 H 0.96385 0.05023 0.71528 0.0
C460 C 0.06008 0.95224 0.67789 0.0
C461 C 0.0521 0.93294 0.67415 0.0
C462 C 0.05793 0.92343 0.66145 0.0
C463 C 0.07176 0.93302 0.65217 0.0
C464 C 0.07887 0.95276 0.6556 0.0
C465 C 0.0731 0.96221 0.66836 0.0
C466 C 0.06326 0.9477 0.70324 0.0
C467 C 0.08424 0.94643 0.70645 0.0
C468 C 0.09194 0.93016 0.71439 0.0
C469 C 0.07872 0.91479 0.71931 0.0
C470 C 0.05745 0.91706 0.71721 0.0
C471 C 0.04977 0.93335 0.70925 0.0
C472 C 0.03856 0.97288 0.69375 0.0
C473 C 0.019 0.96513 0.69038 0.0
C474 C 0.00167 0.97766 0.69135 0.0
C475 C 0.0035 0.99823 0.69564 0.0
C476 C 0.02302 0.00576 0.69934 0.0
C477 C 0.04033 0.99318 0.6984 0.0
C478 C 0.92809 0.06034 0.68109 0.0
C479 C 0.90776 0.05982 0.67623 0.0
C480 C 0.90206 0.07027 0.66392 0.0
C481 C 0.91662 0.08156 0.65623 0.0
C482 C 0.93715 0.08161 0.66088 0.0
C483 C 0.94286 0.07109 0.67317 0.0
C484 C 0.93051 0.06742 0.70568 0.0
C485 C 0.94396 0.08423 0.70649 0.0
C486 C 0.93867 0.10155 0.71442 0.0
C487 C 0.91979 0.10249 0.72163 0.0
C488 C 0.90709 0.08511 0.72164 0.0
C489 C 0.91244 0.06777 0.71372 0.0
C490 C 0.95111 0.03898 0.69522 0.0
C491 C 0.95366 0.02381 0.68468 0.0
C492 C 0.97056 0.0107 0.68482 0.0
C493 C 0.98526 0.01197 0.69573 0.0
C494 C 0.98248 0.02655 0.70659 0.0
C495 C 0.96553 0.03972 0.70646 0.0
Co496 Co 0.33011 0.67413 0.0068 0.0
O497 O 0.31349 0.64992 0.00534 0.0
O498 O 0.30351 0.68094 -0.00097 0.0
C499 C 0.34128 0.66772 0.02907 0.0
O500 O 0.34218 0.7029 0.00731 0.0
Co501 Co 0.37725 0.67254 0.01136 0.0
O502 O 0.3741 0.70182 0.01633 0.0
C503 C 0.35962 0.66337 0.98292 0.0
C504 C 0.29905 0.6617 0.00052 0.0
C505 C 0.35835 0.71174 0.01226 0.0
O506 O 0.34163 0.66888 0.98715 0.0
O507 O 0.37523 0.66253 0.9912 0.0
O508 O 0.32347 0.6762 0.02708 0.0
O509 O 0.35101 0.66236 0.01771 0.0
Co510 Co 0.3376 0.84305 0.2455 0.0
O511 O 0.31793 0.86481 0.24425 0.0
O512 O 0.31116 0.8338 0.25232 0.0
C513 C 0.35092 0.84763 0.22359 0.0
O514 O 0.35358 0.81645 0.24765 0.0
Co515 Co 0.38442 0.85218 0.24388 0.0
O516 O 0.38715 0.82204 0.24357 0.0
C517 C 0.36105 0.86336 0.26958 0.0
C518 C 0.30458 0.85204 0.24928 0.0
C519 C 0.37216 0.81009 0.24612 0.0
O520 O 0.34571 0.85251 0.26529 0.0
O521 O 0.37686 0.86679 0.26188 0.0
O522 O 0.33412 0.83718 0.22515 0.0
O523 O 0.35798 0.85611 0.23499 0.0
Co524 Co 0.16815 0.83623 0.49701 0.0
O525 O 0.14401 0.81935 0.49803 0.0
O526 O 0.1752 0.80979 0.50464 0.0
C527 C 0.16195 0.84752 0.47478 0.0
O528 O 0.19691 0.84868 0.49699 0.0
Co529 Co 0.16587 0.88321 0.4929 0.0
O530 O 0.1954 0.88058 0.48836 0.0
C531 C 0.15593 0.86511 0.52088 0.0
C532 C 0.15593 0.80515 0.50296 0.0
C533 C 0.20558 0.86501 0.49233 0.0
O534 O 0.16223 0.84742 0.51667 0.0
O535 O 0.15496 0.88069 0.51272 0.0
O536 O 0.17069 0.82988 0.47668 0.0
O537 O 0.15623 0.85696 0.48618 0.0
Co538 Co 0.16254 0.68237 0.75585 0.0
O539 O 0.14084 0.7022 0.75481 0.0
O540 O 0.17333 0.70827 0.74942 0.0
C541 C 0.15377 0.67034 0.77747 0.0
O542 O 0.18937 0.66618 0.75626 0.0
Co543 Co 0.15317 0.63584 0.75791 0.0
O544 O 0.18299 0.63321 0.76129 0.0
C545 C 0.14932 0.65684 0.73026 0.0
C546 C 0.15469 0.71515 0.75073 0.0
C547 C 0.19541 0.64786 0.75902 0.0
O548 O 0.15672 0.67347 0.73559 0.0
O549 O 0.14559 0.64086 0.73761 0.0
O550 O 0.16472 0.68687 0.77642 0.0
O551 O 0.14735 0.66266 0.76561 0.0
Co552 Co 0.83947 0.17812 0.49714 0.0
O553 O 0.86076 0.19841 0.49861 0.0
O554 O 0.82817 0.20345 0.5044 0.0
C555 C 0.84775 0.1673 0.47504 0.0
O556 O 0.81303 0.16138 0.49662 0.0
Co557 Co 0.84981 0.132 0.49366 0.0
O558 O 0.81984 0.12854 0.49123 0.0
C559 C 0.85682 0.15283 0.5212 0.0
C560 C 0.84663 0.21077 0.50319 0.0
C561 C 0.80722 0.14297 0.49381 0.0
O562 O 0.84633 0.16838 0.517 0.0
O563 O 0.86146 0.13786 0.51299 0.0
O564 O 0.83656 0.18357 0.47677 0.0
O565 O 0.85475 0.15921 0.48654 0.0
Co566 Co 0.83321 0.34555 0.74431 0.0
O567 O 0.81363 0.36749 0.74423 0.0
O568 O 0.80691 0.33587 0.7511 0.0
C569 C 0.84593 0.35172 0.72244 0.0
O570 O 0.84911 0.31874 0.74518 0.0
Co571 Co 0.88001 0.35441 0.74242 0.0
O572 O 0.88218 0.32442 0.73964 0.0
C573 C 0.85755 0.36335 0.76893 0.0
C574 C 0.80035 0.35438 0.74892 0.0
C575 C 0.86736 0.31233 0.74234 0.0
O576 O 0.84191 0.35325 0.7643 0.0
O577 O 0.8733 0.3672 0.76127 0.0
O578 O 0.82906 0.34132 0.72385 0.0
O579 O 0.85338 0.35931 0.73403 0.0
Co580 Co 0.66249 0.33775 0.99674 0.0
O581 O 0.63974 0.31911 0.99802 0.0
O582 O 0.67178 0.31181 0.00405 0.0
C583 C 0.65488 0.3489 0.9747 0.0
O584 O 0.69018 0.35233 0.99632 0.0
Co585 Co 0.65641 0.38452 0.99316 0.0
O586 O 0.68603 0.3845 0.98862 0.0
C587 C 0.64951 0.36537 0.02121 0.0
C588 C 0.65286 0.30577 0.00265 0.0
C589 C 0.69747 0.36953 0.99206 0.0
O590 O 0.65654 0.34817 0.0166 0.0
O591 O 0.64709 0.38105 0.01329 0.0
O592 O 0.66487 0.33189 0.97636 0.0
O593 O 0.64871 0.35771 0.98624 0.0
Co594 Co 0.6692 0.1754 0.25672 0.0
O595 O 0.64827 0.19591 0.25811 0.0
O596 O 0.6798 0.2014 0.25023 0.0
C597 C 0.66369 0.16206 0.27846 0.0
O598 O 0.69508 0.15817 0.25449 0.0
Co599 Co 0.65748 0.12933 0.2577 0.0
O600 O 0.68759 0.12507 0.25831 0.0
C601 C 0.64713 0.15405 0.23268 0.0
C602 C 0.66174 0.2087 0.25327 0.0
C603 C 0.70045 0.13934 0.25595 0.0
O604 O 0.65961 0.16812 0.23685 0.0
O605 O 0.64238 0.13861 0.24029 0.0
O606 O 0.67496 0.17832 0.27712 0.0
O607 O 0.65498 0.15562 0.26696 0.0
H608 H 0.13734 0.95033 0.25771 0.0
H609 H 0.16743 0.93054 0.2504 0.0
H610 H 0.15119 0.8831 0.27994 0.0
H611 H 0.12133 0.9029 0.28753 0.0
H612 H 0.19687 0.92055 0.2734 0.0
H613 H 0.17096 0.85232 0.24258 0.0
H614 H 0.15609 0.87563 0.24339 0.0
H615 H 0.15702 0.85902 0.25847 0.0
C616 C 0.13992 0.9355 0.26244 0.0
C617 C 0.12704 0.92831 0.27331 0.0
C618 C 0.15704 0.92417 0.2582 0.0
C619 C 0.16145 0.90537 0.26461 0.0
C620 C 0.14785 0.89744 0.27471 0.0
H621 H 0.27381 0.8314 0.2631 0.0
H622 H 0.2384 0.84311 0.26704 0.0
C623 C 0.13075 0.90879 0.27901 0.0
C624 C 0.18177 0.89581 0.26243 0.0
H625 H 0.20638 0.85452 0.24805 0.0
C626 C 0.19897 0.90614 0.26783 0.0
C627 C 0.18432 0.87682 0.25544 0.0
C628 C 0.16618 0.86523 0.24954 0.0
C629 C 0.21876 0.89811 0.2663 0.0
C630 C 0.22149 0.87949 0.25881 0.0
C631 C 0.20423 0.86885 0.2537 0.0
C632 C 0.2423 0.87153 0.25569 0.0
C633 C 0.23655 0.90957 0.27286 0.0
C634 C 0.25598 0.88339 0.24774 0.0
C635 C 0.27613 0.8769 0.24563 0.0
C636 C 0.28295 0.85823 0.25124 0.0
C637 C 0.26901 0.84592 0.25873 0.0
C638 C 0.24879 0.85254 0.26094 0.0
H639 H 0.23143 0.91975 0.28166 0.0
H640 H 0.24833 0.8989 0.27704 0.0
H641 H 0.24382 0.91928 0.26464 0.0
H642 H 0.25114 0.89787 0.24332 0.0
H643 H 0.28638 0.88661 0.23963 0.0
H644 H 0.0594 0.63399 0.51748 0.0
H645 H 0.07197 0.66798 0.51099 0.0
H646 H 0.13314 0.65079 0.52374 0.0
H647 H 0.12078 0.61707 0.53043 0.0
H648 H 0.09062 0.695 0.53052 0.0
H649 H 0.14254 0.67829 0.4852 0.0
H650 H 0.12322 0.66049 0.49114 0.0
H651 H 0.14712 0.6628 0.5006 0.0
C652 C 0.07557 0.63737 0.51873 0.0
C653 C 0.08907 0.62275 0.52443 0.0
C654 C 0.08273 0.65676 0.51498 0.0
C655 C 0.10351 0.6618 0.51675 0.0
C656 C 0.11713 0.64706 0.52199 0.0
H657 H 0.17733 0.77183 0.51239 0.0
H658 H 0.16419 0.73714 0.51603 0.0
C659 C 0.11001 0.62773 0.52577 0.0
C660 C 0.1107 0.68297 0.51435 0.0
H661 H 0.14528 0.71141 0.49573 0.0
C662 C 0.10242 0.69865 0.52282 0.0
C663 C 0.12624 0.6876 0.5044 0.0
C664 C 0.1352 0.67145 0.49472 0.0
C665 C 0.10958 0.71881 0.52182 0.0
C666 C 0.12517 0.72344 0.51189 0.0
C667 C 0.13337 0.70778 0.50336 0.0
C668 C 0.13297 0.74452 0.51007 0.0
C669 C 0.10079 0.73486 0.53166 0.0
C670 C 0.11978 0.76009 0.50548 0.0
C671 C 0.1272 0.77987 0.50345 0.0
C672 C 0.148 0.78443 0.50587 0.0
C673 C 0.1612 0.76881 0.5105 0.0
C674 C 0.15375 0.749 0.51253 0.0
H675 H 0.09314 0.72793 0.54102 0.0
H676 H 0.11295 0.74545 0.5355 0.0
H677 H 0.08917 0.74395 0.52582 0.0
H678 H 0.10378 0.75687 0.50326 0.0
H679 H 0.11666 0.79152 0.49978 0.0
H680 H 0.37584 0.56852 0.76414 0.0
H681 H 0.34125 0.58002 0.75778 0.0
H682 H 0.35351 0.63881 0.77682 0.0
H683 H 0.38763 0.62736 0.78375 0.0
H684 H 0.31355 0.59651 0.78168 0.0
H685 H 0.32498 0.64952 0.73623 0.0
H686 H 0.34248 0.62875 0.73993 0.0
H687 H 0.34259 0.65114 0.751 0.0
C688 C 0.37127 0.58395 0.76689 0.0
C689 C 0.3846 0.59694 0.77452 0.0
C690 C 0.35157 0.59053 0.76314 0.0
C691 C 0.34499 0.6103 0.76674 0.0
C692 C 0.35848 0.62361 0.77375 0.0
H693 H 0.22772 0.67441 0.7628 0.0
H694 H 0.26432 0.66571 0.76441 0.0
C695 C 0.37807 0.61701 0.77763 0.0
C696 C 0.3233 0.61623 0.76476 0.0
H697 H 0.29153 0.64757 0.74591 0.0
C698 C 0.30867 0.60756 0.7738 0.0
C699 C 0.31719 0.63096 0.75469 0.0
C700 C 0.33254 0.64065 0.74482 0.0
C701 C 0.28797 0.61332 0.77311 0.0
C702 C 0.28165 0.62768 0.76276 0.0
C703 C 0.29638 0.6365 0.75378 0.0
C704 C 0.25974 0.63329 0.76099 0.0
C705 C 0.27322 0.60435 0.78376 0.0
C706 C 0.24514 0.61806 0.75816 0.0
C707 C 0.22433 0.62291 0.75747 0.0
C708 C 0.21765 0.6432 0.75927 0.0
C709 C 0.23237 0.65863 0.76145 0.0
C710 C 0.25327 0.65369 0.76234 0.0
H711 H 0.28133 0.59898 0.79345 0.0
H712 H 0.26139 0.61566 0.787 0.0
H713 H 0.26538 0.59097 0.7789 0.0
H714 H 0.24982 0.60231 0.75664 0.0
H715 H 0.21346 0.61069 0.75549 0.0
H716 H 0.4489 0.86647 0.02344 0.0
H717 H 0.42809 0.83788 0.01559 0.0
H718 H 0.37709 0.87829 0.008 0.0
H719 H 0.39826 0.9076 0.01506 0.0
H720 H 0.37161 0.8432 0.02852 0.0
H721 H 0.40232 0.82 0.97586 0.0
H722 H 0.42163 0.82672 0.98876 0.0
H723 H 0.40402 0.8459 0.98262 0.0
C724 C 0.4336 0.86965 0.01955 0.0
C725 C 0.42539 0.88957 0.01995 0.0
C726 C 0.42164 0.85313 0.01515 0.0
C727 C 0.40113 0.85602 0.01117 0.0
C728 C 0.39296 0.87582 0.011 0.0
H729 H 0.33723 0.73874 0.99549 0.0
H730 H 0.34236 0.77591 0.99409 0.0
C731 C 0.40507 0.89251 0.01517 0.0
C732 C 0.38798 0.83788 0.00896 0.0
H733 H 0.38583 0.79369 0.98959 0.0
C734 C 0.3742 0.8326 0.01979 0.0
C735 C 0.39138 0.82416 0.99755 0.0
C736 C 0.40551 0.82951 0.98545 0.0
C737 C 0.36509 0.81318 0.02011 0.0
C738 C 0.3699 0.79884 0.00934 0.0
C739 C 0.38226 0.80474 0.99787 0.0
C740 C 0.36498 0.77694 0.01094 0.0
C741 C 0.35133 0.80766 0.03238 0.0
C742 C 0.37594 0.7654 0.02091 0.0
C743 C 0.37329 0.74428 0.0216 0.0
C744 C 0.35947 0.73431 0.0124 0.0
C745 C 0.3479 0.74603 0.00276 0.0
C746 C 0.35082 0.7672 0.00192 0.0
H747 H 0.34522 0.82148 0.03784 0.0
H748 H 0.33828 0.79807 0.02868 0.0
H749 H 0.36026 0.79868 0.04024 0.0
H750 H 0.38707 0.77267 0.02786 0.0
H751 H 0.38235 0.73571 0.02918 0.0
H752 H 0.11744 0.60536 0.96272 0.0
H753 H 0.14777 0.62466 0.9701 0.0
H754 H 0.16462 0.57635 -0.0012 0.0
H755 H 0.13401 0.55704 0.99176 0.0
H756 H 0.1668 0.63514 0.00052 0.0
H757 H 0.20959 0.58202 0.96478 0.0
H758 H 0.18234 0.58637 0.96297 0.0
H759 H 0.19187 0.57094 0.97723 0.0
C760 C 0.12713 0.59913 0.971 0.0
C761 C 0.12339 0.57953 0.97655 0.0
C762 C 0.14452 0.61017 0.97514 0.0
C763 C 0.15844 0.60179 0.98486 0.0
C764 C 0.15403 0.58297 0.99122 0.0
H765 H 0.285 0.62329 0.00562 0.0
H766 H 0.25033 0.61016 0.00209 0.0
C767 C 0.13661 0.57194 0.98713 0.0
C768 C 0.17873 0.61139 0.98696 0.0
H769 H 0.22899 0.60621 0.97757 0.0
C770 C 0.18045 0.62891 0.99553 0.0
C771 C 0.19635 0.6032 0.98032 0.0
C772 C 0.19509 0.58466 0.97072 0.0
C773 C 0.19962 0.63819 0.99794 0.0
C774 C 0.21732 0.6299 0.99134 0.0
C775 C 0.21542 0.61252 0.98263 0.0
C776 C 0.23815 0.63841 0.99369 0.0
C777 C 0.20084 0.65637 0.00785 0.0
C778 C 0.24291 0.65861 0.98995 0.0
C779 C 0.26279 0.66622 0.99202 0.0
C780 C 0.27824 0.65365 0.99769 0.0
C781 C 0.27347 0.63335 0.00119 0.0
C782 C 0.25363 0.62583 -0.00079 0.0
H783 H 0.18705 0.65756 0.01475 0.0
H784 H 0.21469 0.6555 0.01472 0.0
H785 H 0.20184 0.67055 0.00147 0.0
H786 H 0.23133 0.66843 0.98534 0.0
H787 H 0.26603 0.68191 0.98918 0.0
H788 H 0.45767 0.63589 0.24238 0.0
H789 H 0.44205 0.66809 0.25014 0.0
H790 H 0.386 0.65199 0.22842 0.0
H791 H 0.40158 0.62006 0.22028 0.0
H792 H 0.42573 0.6943 0.22548 0.0
H793 H 0.36963 0.67956 0.26891 0.0
H794 H 0.39214 0.66377 0.26638 0.0
H795 H 0.37113 0.66192 0.25413 0.0
C796 C 0.44189 0.639 0.23948 0.0
C797 C 0.43098 0.6255 0.23056 0.0
C798 C 0.43295 0.65732 0.24401 0.0
C799 C 0.41289 0.66229 0.23988 0.0
C800 C 0.40141 0.64823 0.23189 0.0
H801 H 0.34571 0.77793 0.24191 0.0
H802 H 0.35449 0.74143 0.24111 0.0
C803 C 0.41036 0.62995 0.22727 0.0
C804 C 0.40538 0.68342 0.24176 0.0
H805 H 0.3719 0.71345 0.26038 0.0
C806 C 0.41402 0.69854 0.23314 0.0
C807 C 0.3898 0.68867 0.25153 0.0
C808 C 0.38007 0.67272 0.26085 0.0
C809 C 0.40759 0.7189 0.23408 0.0
C810 C 0.39256 0.72442 0.24426 0.0
C811 C 0.38357 0.7092 0.2527 0.0
C812 C 0.38651 0.74606 0.24636 0.0
C813 C 0.41674 0.73425 0.22396 0.0
C814 C 0.40143 0.7606 0.25006 0.0
C815 C 0.39657 0.78134 0.2503 0.0
C816 C 0.37656 0.78796 0.24714 0.0
C817 C 0.36128 0.77329 0.24433 0.0
C818 C 0.36625 0.75246 0.24389 0.0
H819 H 0.42305 0.7267 0.21429 0.0
H820 H 0.40517 0.74572 0.22061 0.0
H821 H 0.42955 0.74238 0.22935 0.0
H822 H 0.41703 0.75593 0.25236 0.0
H823 H 0.4086 0.79223 0.25278 0.0
H824 H 0.38984 0.93262 0.50181 0.0
H825 H 0.36065 0.91273 0.51059 0.0
H826 H 0.35514 0.88339 0.46951 0.0
H827 H 0.38472 0.90235 0.46107 0.0
H828 H 0.32489 0.91845 0.5015 0.0
H829 H 0.33897 0.8366 0.49294 0.0
H830 H 0.35957 0.85503 0.4925 0.0
H831 H 0.34464 0.84958 0.47672 0.0
C832 C 0.38283 0.9213 0.4949 0.0
C833 C 0.38954 0.91896 0.48079 0.0
C834 C 0.36615 0.90996 0.49989 0.0
C835 C 0.35567 0.89636 0.49078 0.0
C836 C 0.36321 0.89319 0.47695 0.0
H837 H 0.22915 0.89135 0.47716 0.0
H838 H 0.26608 0.89654 0.47883 0.0
C839 C 0.38012 0.90419 0.47207 0.0
C840 C 0.33496 0.88855 0.49463 0.0
H841 H 0.3029 0.84769 0.49001 0.0
C842 C 0.32031 0.9028 0.49934 0.0
C843 C 0.32878 0.86808 0.4921 0.0
C844 C 0.34395 0.85146 0.48845 0.0
C845 C 0.29954 0.8976 0.50049 0.0
C846 C 0.29306 0.87782 0.49635 0.0
C847 C 0.30782 0.86303 0.49279 0.0
C848 C 0.27097 0.87298 0.49455 0.0
C849 C 0.28465 0.91361 0.50576 0.0
C850 C 0.2616 0.8572 0.50224 0.0
C851 C 0.24038 0.85397 0.50115 0.0
C852 C 0.22827 0.86654 0.49239 0.0
C853 C 0.23795 0.88164 0.48421 0.0
C854 C 0.25907 0.88469 0.48519 0.0
H855 H 0.29236 0.92477 0.51293 0.0
H856 H 0.27848 0.92219 0.49654 0.0
H857 H 0.2716 0.9066 0.51154 0.0
H858 H 0.27058 0.84784 0.5094 0.0
H859 H 0.23338 0.84217 0.50755 0.0
H860 H 0.11113 0.90945 0.73774 0.0
H861 H 0.12767 0.87708 0.74419 0.0
H862 H 0.08239 0.84396 0.7198 0.0
H863 H 0.06612 0.87604 0.71304 0.0
H864 H 0.11127 0.84127 0.75785 0.0
H865 H 0.1382 0.82538 0.70296 0.0
H866 H 0.1297 0.85037 0.7087 0.0
H867 H 0.11126 0.83099 0.70407 0.0
C868 C 0.10466 0.89525 0.73381 0.0
C869 C 0.08731 0.89535 0.72487 0.0
C870 C 0.1141 0.87681 0.73752 0.0
C871 C 0.10645 0.85821 0.73224 0.0
C872 C 0.08871 0.8582 0.72378 0.0
H873 H 0.11763 0.73339 0.75477 0.0
H874 H 0.10857 0.76912 0.75104 0.0
C875 C 0.07926 0.87656 0.7201 0.0
C876 C 0.117 0.8387 0.73536 0.0
H877 H 0.13916 0.79739 0.71921 0.0
C878 C 0.1176 0.83176 0.74944 0.0
C879 C 0.12558 0.82652 0.7244 0.0
C880 C 0.12638 0.83375 0.7092 0.0
C881 C 0.1256 0.81243 0.75274 0.0
C882 C 0.13293 0.7997 0.74164 0.0
C883 C 0.13334 0.8071 0.72768 0.0
C884 C 0.13888 0.77818 0.74415 0.0
C885 C 0.12589 0.80566 0.76806 0.0
C886 C 0.15883 0.7713 0.74115 0.0
C887 C 0.16408 0.75076 0.74324 0.0
C888 C 0.14936 0.7368 0.74818 0.0
C889 C 0.12935 0.74375 0.75098 0.0
C890 C 0.12417 0.76422 0.74897 0.0
H891 H 0.12548 0.81893 0.77548 0.0
H892 H 0.11216 0.79611 0.77014 0.0
H893 H 0.13976 0.79639 0.77038 0.0
H894 H 0.17034 0.78183 0.73728 0.0
H895 H 0.17962 0.74585 0.74097 0.0
H896 H 0.6157 0.40353 0.78708 0.0
H897 H 0.64621 0.38415 0.78008 0.0
H898 H 0.66405 0.43275 0.75194 0.0
H899 H 0.63339 0.45215 0.75867 0.0
H900 H 0.6662 0.37388 0.74992 0.0
H901 H 0.70802 0.42656 0.78656 0.0
H902 H 0.68072 0.42217 0.78789 0.0
H903 H 0.69066 0.43804 0.77401 0.0
C904 C 0.62569 0.4098 0.77901 0.0
C905 C 0.62222 0.42949 0.77352 0.0
C906 C 0.64316 0.39872 0.77508 0.0
C907 C 0.65738 0.40715 0.76562 0.0
C908 C 0.65323 0.42608 0.75932 0.0
H909 H 0.78289 0.39109 0.74309 0.0
H910 H 0.74752 0.40169 0.74708 0.0
C911 C 0.63578 0.43717 0.76322 0.0
C912 C 0.67773 0.39756 0.76373 0.0
H913 H 0.72799 0.40368 0.77298 0.0
C914 C 0.67975 0.38025 0.75499 0.0
C915 C 0.69523 0.40588 0.7705 0.0
C916 C 0.69368 0.42411 0.78036 0.0
C917 C 0.69912 0.37148 0.75238 0.0
C918 C 0.71672 0.38014 0.75891 0.0
C919 C 0.7145 0.39712 0.76796 0.0
C920 C 0.7378 0.3728 0.7559 0.0
C921 C 0.70072 0.35354 0.74231 0.0
C922 C 0.74413 0.35299 0.75956 0.0
C923 C 0.76446 0.34682 0.75725 0.0
C924 C 0.77877 0.36045 0.75136 0.0
C925 C 0.7723 0.38023 0.7477 0.0
C926 C 0.75206 0.38632 0.74994 0.0
H927 H 0.68649 0.35145 0.73593 0.0
H928 H 0.71387 0.35548 0.73494 0.0
H929 H 0.70334 0.3394 0.74851 0.0
H930 H 0.73347 0.34245 0.76443 0.0
H931 H 0.76902 0.3315 0.76021 0.0
H932 H 0.5662 0.13062 0.01792 0.0
H933 H 0.5777 0.16496 0.01144 0.0
H934 H 0.63978 0.14896 0.0228 0.0
H935 H 0.62845 0.11478 0.0294 0.0
H936 H 0.59607 0.19171 0.031 0.0
H937 H 0.6472 0.17816 0.98472 0.0
H938 H 0.62874 0.15949 0.99067 0.0
H939 H 0.65274 0.16252 -0.00011 0.0
C940 C 0.58234 0.13433 0.01884 0.0
C941 C 0.5964 0.11996 0.02417 0.0
C942 C 0.58889 0.15392 0.0151 0.0
C943 C 0.60961 0.15943 0.01653 0.0
C944 C 0.6238 0.14489 0.02132 0.0
H945 H 0.677 0.27396 0.01146 0.0
H946 H 0.66651 0.2384 0.01522 0.0
C947 C 0.61728 0.12532 0.02507 0.0
C948 C 0.61605 0.18089 0.01435 0.0
H949 H 0.64841 0.21127 0.99531 0.0
C950 C 0.60739 0.19602 0.02312 0.0
C951 C 0.631 0.1864 0.00419 0.0
C952 C 0.64036 0.17083 0.99423 0.0
C953 C 0.61347 0.21652 0.02212 0.0
C954 C 0.62832 0.22207 0.0119 0.0
C955 C 0.63705 0.20694 0.00315 0.0
C956 C 0.63462 0.2436 0.00989 0.0
C957 C 0.60425 0.23199 0.03223 0.0
C958 C 0.62018 0.25822 0.00559 0.0
C959 C 0.62608 0.27849 0.0035 0.0
C960 C 0.64659 0.28449 0.00556 0.0
C961 C 0.66106 0.26982 0.00986 0.0
C962 C 0.65512 0.24951 0.01196 0.0
H963 H 0.59755 0.22456 0.04175 0.0
H964 H 0.61592 0.24329 0.03578 0.0
H965 H 0.59177 0.24035 0.02671 0.0
H966 H 0.60436 0.2539 0.00368 0.0
H967 H 0.61459 0.28938 8e-05 0.0
H968 H 0.89362 0.11863 0.27432 0.0
H969 H 0.85905 0.12858 0.26708 0.0
H970 H 0.84357 0.06532 0.2598 0.0
H971 H 0.87827 0.05517 0.26697 0.0
H972 H 0.83397 0.12119 0.24223 0.0
H973 H 0.80355 0.08497 0.29124 0.0
H974 H 0.83053 0.0899 0.28867 0.0
H975 H 0.81853 0.06849 0.27998 0.0
C976 C 0.88307 0.10683 0.27082 0.0
C977 C 0.88866 0.08606 0.27132 0.0
C978 C 0.86328 0.11257 0.26674 0.0
C979 C 0.84871 0.09767 0.26314 0.0
C980 C 0.85455 0.07702 0.26279 0.0
H981 H 0.71699 0.10116 0.25345 0.0
H982 H 0.75315 0.09168 0.25357 0.0
C983 C 0.87434 0.07125 0.26689 0.0
C984 C 0.82703 0.10363 0.26091 0.0
H985 H 0.77936 0.09913 0.2755 0.0
C986 C 0.82197 0.11635 0.24945 0.0
C987 C 0.81152 0.09745 0.27047 0.0
C988 C 0.81623 0.0846 0.28336 0.0
C989 C 0.80163 0.12273 0.24713 0.0
C990 C 0.78612 0.11648 0.25668 0.0
C991 C 0.79126 0.10381 0.26815 0.0
C992 C 0.76437 0.12273 0.25511 0.0
C993 C 0.79689 0.13577 0.23436 0.0
C994 C 0.75863 0.1434 0.25583 0.0
C995 C 0.73787 0.14893 0.25571 0.0
C996 C 0.7225 0.13384 0.25506 0.0
C997 C 0.72838 0.11319 0.25407 0.0
C998 C 0.74907 0.10772 0.25409 0.0
H999 H 0.80911 0.13463 0.22617 0.0
H1000 H 0.78202 0.13132 0.22946 0.0
H1001 H 0.79578 0.152 0.23778 0.0
H1002 H 0.77017 0.15522 0.25694 0.0
H1003 H 0.73388 0.16496 0.25655 0.0
H1004 H 0.90687 0.38385 0.54757 0.0
H1005 H 0.88813 0.35296 0.54099 0.0
H1006 H 0.89978 0.36502 0.49662 0.0
H1007 H 0.91993 0.39531 0.50336 0.0
H1008 H 0.8567 0.34154 0.52677 0.0
H1009 H 0.9253 0.31063 0.49912 0.0
H1010 H 0.92599 0.33429 0.50893 0.0
H1011 H 0.91558 0.33348 0.49115 0.0
C1012 C 0.90507 0.3801 0.53639 0.0
C1013 C 0.91485 0.39184 0.52595 0.0
C1014 C 0.89439 0.3624 0.53262 0.0
C1015 C 0.89301 0.35624 0.51832 0.0
C1016 C 0.90127 0.36899 0.50776 0.0
H1017 H 0.82185 0.24403 0.49969 0.0
H1018 H 0.83141 0.28006 0.50247 0.0
C1019 C 0.91252 0.38643 0.51157 0.0
C1020 C 0.88428 0.33578 0.51479 0.0
H1021 H 0.89581 0.2901 0.49902 0.0
C1022 C 0.86525 0.33029 0.52068 0.0
C1023 C 0.89553 0.32094 0.50701 0.0
C1024 C 0.9168 0.32502 0.50131 0.0
C1025 C 0.85751 0.3103 0.51944 0.0
C1026 C 0.86864 0.29558 0.51147 0.0
C1027 C 0.88726 0.30132 0.50513 0.0
C1028 C 0.86213 0.27381 0.51021 0.0
C1029 C 0.83805 0.30501 0.52729 0.0
C1030 C 0.87629 0.2582 0.51325 0.0
C1031 C 0.87108 0.23772 0.51117 0.0
C1032 C 0.85143 0.23235 0.50633 0.0
C1033 C 0.83701 0.24782 0.50365 0.0
C1034 C 0.84244 0.26841 0.50533 0.0
H1035 H 0.83505 0.3159 0.53617 0.0
H1036 H 0.82486 0.30587 0.51984 0.0
H1037 H 0.83875 0.28934 0.53172 0.0
H1038 H 0.89155 0.26188 0.51707 0.0
H1039 H 0.88246 0.22606 0.51333 0.0
H1040 H 0.61564 0.12228 0.46916 0.0
H1041 H 0.65022 0.13284 0.47582 0.0
H1042 H 0.66055 0.07454 0.49566 0.0
H1043 H 0.62555 0.06393 0.48948 0.0
H1044 H 0.67297 0.13065 0.50547 0.0
H1045 H 0.70336 0.08331 0.46075 0.0
H1046 H 0.67717 0.09235 0.4611 0.0
H1047 H 0.6849 0.07193 0.47255 0.0
C1048 C 0.62493 0.11186 0.47534 0.0
C1049 C 0.61772 0.09219 0.47877 0.0
C1050 C 0.64478 0.11793 0.47905 0.0
C1051 C 0.65787 0.10443 0.48615 0.0
C1052 C 0.6506 0.08512 0.49012 0.0
H1053 H 0.78962 0.10537 0.49622 0.0
H1054 H 0.75325 0.0968 0.4957 0.0
C1055 C 0.63066 0.07905 0.4865 0.0
C1056 C 0.67966 0.10996 0.48824 0.0
H1057 H 0.72729 0.10165 0.47442 0.0
C1058 C 0.68493 0.12429 0.49876 0.0
C1059 C 0.69507 0.10165 0.47939 0.0
C1060 C 0.68999 0.08652 0.46773 0.0
C1061 C 0.70544 0.13035 0.50083 0.0
C1062 C 0.72089 0.12221 0.49185 0.0
C1063 C 0.71548 0.10787 0.48132 0.0
C1064 C 0.74286 0.12799 0.49319 0.0
C1065 C 0.71037 0.14503 0.51278 0.0
C1066 C 0.74921 0.14844 0.49198 0.0
C1067 C 0.7701 0.15345 0.49243 0.0
C1068 C 0.78502 0.13804 0.4938 0.0
C1069 C 0.77857 0.11762 0.49504 0.0
C1070 C 0.75775 0.11268 0.49478 0.0
H1071 H 0.69821 0.14501 0.52106 0.0
H1072 H 0.72526 0.14121 0.51788 0.0
H1073 H 0.71141 0.16074 0.50847 0.0
H1074 H 0.73806 0.16048 0.49037 0.0
H1075 H 0.77458 0.16931 0.49136 0.0
H1076 H 0.88147 0.11893 0.71915 0.0
H1077 H 0.8706 0.15354 0.72548 0.0
H1078 H 0.93045 0.16593 0.74308 0.0
H1079 H 0.94147 0.13112 0.73697 0.0
H1080 H 0.88654 0.18076 0.75847 0.0
H1081 H 0.90466 0.20289 0.70266 0.0
H1082 H 0.89179 0.17898 0.70593 0.0
H1083 H 0.91795 0.18221 0.71138 0.0
C1084 C 0.89216 0.12875 0.72477 0.0
C1085 C 0.91237 0.12226 0.72754 0.0
C1086 C 0.88593 0.14856 0.7283 0.0
C1087 C 0.89976 0.16218 0.7347 0.0
C1088 C 0.91959 0.15552 0.73817 0.0
H1089 H 0.90388 0.29317 0.7371 0.0
H1090 H 0.91076 0.25659 0.73626 0.0
C1091 C 0.92587 0.13571 0.7346 0.0
C1092 C 0.89421 0.18393 0.73635 0.0
H1093 H 0.89179 0.2285 0.71779 0.0
C1094 C 0.8876 0.19126 0.74961 0.0
C1095 C 0.89573 0.19744 0.72474 0.0
C1096 C 0.90296 0.19016 0.71034 0.0
C1097 C 0.88254 0.21198 0.75158 0.0
C1098 C 0.88403 0.22551 0.73993 0.0
C1099 C 0.89061 0.21807 0.72668 0.0
C1100 C 0.87968 0.24765 0.7413 0.0
C1101 C 0.8761 0.21934 0.76613 0.0
C1102 C 0.85985 0.25476 0.74439 0.0
C1103 C 0.8558 0.27578 0.74488 0.0
C1104 C 0.87151 0.29002 0.74221 0.0
C1105 C 0.89137 0.28272 0.7392 0.0
C1106 C 0.89538 0.26179 0.73872 0.0
H1107 H 0.8798 0.20803 0.77453 0.0
H1108 H 0.88372 0.23405 0.76881 0.0
H1109 H 0.85927 0.22194 0.76619 0.0
H1110 H 0.84744 0.24407 0.74617 0.0
H1111 H 0.84032 0.28082 0.74718 0.0
H1112 H 0.89424 0.38493 0.97521 0.0
H1113 H 0.86037 0.37191 0.98142 0.0
H1114 H 0.84104 0.43266 0.99322 0.0
H1115 H 0.87519 0.44587 0.98738 0.0
H1116 H 0.82591 0.39803 0.01137 0.0
H1117 H 0.81316 0.38854 0.9531 0.0
H1118 H 0.83576 0.37673 0.96037 0.0
H1119 H 0.83365 0.40408 0.96025 0.0
C1120 C 0.88307 0.39547 0.97959 0.0
C1121 C 0.8874 0.41651 0.98071 0.0
C1122 C 0.86365 0.38799 0.98301 0.0
C1123 C 0.8482 0.40138 0.98758 0.0
C1124 C 0.85281 0.42212 0.98966 0.0
H1125 H 0.71837 0.40151 0.98048 0.0
H1126 H 0.75532 0.40721 0.98025 0.0
C1127 C 0.87226 0.42965 0.98623 0.0
C1128 C 0.82675 0.39423 0.98863 0.0
H1129 H 0.78596 0.37951 0.96819 0.0
C1130 C 0.81718 0.39379 0.00198 0.0
C1131 C 0.81545 0.38888 0.9763 0.0
C1132 C 0.82489 0.38967 0.96165 0.0
C1133 C 0.79641 0.38831 0.00329 0.0
C1134 C 0.7851 0.38317 0.99093 0.0
C1135 C 0.79478 0.38334 0.97763 0.0
C1136 C 0.76275 0.37932 0.99135 0.0
C1137 C 0.78647 0.38872 0.01776 0.0
C1138 C 0.75475 0.36156 0.99753 0.0
C1139 C 0.73353 0.35815 0.99763 0.0
C1140 C 0.72002 0.37251 0.99159 0.0
C1141 C 0.72824 0.39017 0.9853 0.0
C1142 C 0.74938 0.39348 0.98515 0.0
H1143 H 0.79666 0.39552 0.02601 0.0
H1144 H 0.77193 0.39757 0.0174 0.0
H1145 H 0.78263 0.37288 0.02097 0.0
H1146 H 0.76491 0.35034 0.00221 0.0
H1147 H 0.72772 0.3444 0.00255 0.0
H1148 H 0.60729 0.38599 0.20994 0.0
H1149 H 0.62793 0.35675 0.21725 0.0
H1150 H 0.59091 0.35023 0.25487 0.0
H1151 H 0.57035 0.37989 0.24785 0.0
H1152 H 0.64591 0.34327 0.25056 0.0
H1153 H 0.58533 0.29932 0.2216 0.0
H1154 H 0.59248 0.32477 0.2162 0.0
H1155 H 0.57825 0.32118 0.23228 0.0
C1156 C 0.60399 0.37892 0.22006 0.0
C1157 C 0.58702 0.38521 0.22827 0.0
C1158 C 0.6158 0.36215 0.22418 0.0
C1159 C 0.61087 0.35142 0.23655 0.0
C1160 C 0.59494 0.35846 0.24531 0.0
H1161 H 0.62721 0.2278 0.26241 0.0
H1162 H 0.6172 0.26325 0.25886 0.0
C1163 C 0.58312 0.37527 0.24122 0.0
C1164 C 0.62004 0.33114 0.23905 0.0
H1165 H 0.61146 0.28056 0.23261 0.0
C1166 C 0.6385 0.3295 0.24665 0.0
C1167 C 0.61027 0.31337 0.23383 0.0
C1168 C 0.5905 0.31454 0.22548 0.0
C1169 C 0.64724 0.31026 0.24945 0.0
C1170 C 0.63731 0.29244 0.24433 0.0
C1171 C 0.61902 0.29425 0.23653 0.0
C1172 C 0.64478 0.27156 0.24749 0.0
C1173 C 0.66663 0.3091 0.25819 0.0
C1174 C 0.66374 0.26447 0.24234 0.0
C1175 C 0.66959 0.24408 0.24441 0.0
C1176 C 0.65643 0.2305 0.2515 0.0
C1177 C 0.63765 0.23781 0.25681 0.0
C1178 C 0.63191 0.2581 0.25483 0.0
H1179 H 0.6699 0.32372 0.26381 0.0
H1180 H 0.66557 0.29668 0.26616 0.0
H1181 H 0.67976 0.30564 0.25107 0.0
H1182 H 0.67373 0.27453 0.23641 0.0
H1183 H 0.68414 0.23885 0.24019 0.0
H1184 H 0.10269 0.95959 0.37487 0.0
H1185 H 0.11495 0.93934 0.39501 0.0
H1186 H 0.10315 0.88384 0.37148 0.0
H1187 H 0.09091 0.904 0.3512 0.0
H1188 H 0.09052 0.90317 0.40888 0.0
H1189 H 0.16703 0.88481 0.38556 0.0
H1190 H 0.15292 0.90736 0.38036 0.0
H1191 H 0.1443 0.88264 0.37467 0.0
C1192 C 0.10268 0.94307 0.37399 0.0
C1193 C 0.09589 0.93336 0.36147 0.0
C1194 C 0.10963 0.93156 0.38549 0.0
C1195 C 0.1101 0.91018 0.38461 0.0
C1196 C 0.103 0.90037 0.37226 0.0
H1197 H 0.16158 0.82752 0.44904 0.0
H1198 H 0.14901 0.84106 0.42627 0.0
C1199 C 0.09587 0.91188 0.36077 0.0
C1200 C 0.11803 0.89828 0.39673 0.0
H1201 H 0.16093 0.87415 0.40906 0.0
C1202 C 0.10583 0.89665 0.40891 0.0
C1203 C 0.13791 0.88966 0.39659 0.0
C1204 C 0.15145 0.89115 0.38364 0.0
C1205 C 0.11319 0.88697 0.42116 0.0
C1206 C 0.13351 0.87927 0.42132 0.0
C1207 C 0.14543 0.8802 0.40893 0.0
C1208 C 0.14288 0.87137 0.43456 0.0
C1209 C 0.09915 0.88517 0.43385 0.0
C1210 C 0.14438 0.88417 0.44652 0.0
C1211 C 0.15137 0.87651 0.45945 0.0
C1212 C 0.15731 0.85595 0.46062 0.0
C1213 C 0.15705 0.84342 0.44843 0.0
C1214 C 0.14984 0.8511 0.43545 0.0
H1215 H 0.08274 0.88583 0.43063 0.0
H1216 H 0.10186 0.87068 0.43965 0.0
H1217 H 0.10209 0.89811 0.44126 0.0
H1218 H 0.13966 0.90002 0.44595 0.0
H1219 H 0.15166 0.88661 0.46861 0.0
H1220 H 0.10943 0.57189 0.61884 0.0
H1221 H 0.12035 0.59228 0.63934 0.0
H1222 H 0.08173 0.64195 0.62555 0.0
H1223 H 0.07055 0.62146 0.60502 0.0
H1224 H 0.14038 0.6298 0.63929 0.0
H1225 H 0.06509 0.63517 0.66711 0.0
H1226 H 0.06958 0.61717 0.65284 0.0
H1227 H 0.06577 0.64374 0.64899 0.0
C1228 C 0.10321 0.58713 0.62019 0.0
C1229 C 0.0891 0.59506 0.61036 0.0
C1230 C 0.10947 0.59877 0.6319 0.0
C1231 C 0.10177 0.61859 0.63401 0.0
C1232 C 0.08759 0.62657 0.62426 0.0
H1233 H 0.13629 0.68733 0.71233 0.0
H1234 H 0.12557 0.68327 0.68728 0.0
C1235 C 0.0812 0.61485 0.61256 0.0
C1236 C 0.10898 0.63069 0.64643 0.0
H1237 H 0.09377 0.64898 0.67883 0.0
C1238 C 0.13013 0.63432 0.64783 0.0
C1239 C 0.09556 0.63676 0.6575 0.0
C1240 C 0.07274 0.63295 0.65666 0.0
C1241 C 0.13835 0.64273 0.66035 0.0
C1242 C 0.12509 0.64757 0.67173 0.0
C1243 C 0.10382 0.64532 0.67 0.0
C1244 C 0.13315 0.65111 0.68622 0.0
C1245 C 0.16126 0.64542 0.66166 0.0
C1246 C 0.14099 0.63442 0.69373 0.0
C1247 C 0.14675 0.63659 0.70792 0.0
C1248 C 0.14498 0.65557 0.71486 0.0
C1249 C 0.13788 0.67256 0.70718 0.0
C1250 C 0.13173 0.67027 0.69295 0.0
H1251 H 0.16879 0.64583 0.65107 0.0
H1252 H 0.16498 0.65971 0.66755 0.0
H1253 H 0.16774 0.6324 0.6677 0.0
H1254 H 0.14205 0.6195 0.68872 0.0
H1255 H 0.15232 0.62327 0.71353 0.0
H1256 H 0.38818 0.59 0.85474 0.0
H1257 H 0.37135 0.60362 0.87605 0.0
H1258 H 0.43022 0.62125 0.89313 0.0
H1259 H 0.44721 0.60749 0.87199 0.0
H1260 H 0.37698 0.59347 0.90502 0.0
H1261 H 0.39649 0.67442 0.89477 0.0
H1262 H 0.39824 0.6548 0.88123 0.0
H1263 H 0.41843 0.65784 0.89414 0.0
C1264 C 0.39758 0.59657 0.8631 0.0
C1265 C 0.41906 0.59775 0.86162 0.0
C1266 C 0.38791 0.60446 0.87522 0.0
C1267 C 0.39951 0.6138 0.88602 0.0
C1268 C 0.42095 0.61455 0.88475 0.0
H1269 H 0.39608 0.65884 0.96916 0.0
H1270 H 0.40196 0.64766 0.9448 0.0
C1271 C 0.43063 0.60667 0.87266 0.0
C1272 C 0.38938 0.62255 0.89877 0.0
H1273 H 0.38618 0.6663 0.91858 0.0
C1274 C 0.37862 0.60947 0.90789 0.0
C1275 C 0.39135 0.64347 0.90237 0.0
C1276 C 0.40157 0.65851 0.89254 0.0
C1277 C 0.37101 0.6165 0.92102 0.0
C1278 C 0.37412 0.63715 0.92498 0.0
C1279 C 0.38389 0.65045 0.91551 0.0
C1280 C 0.36978 0.64458 0.93956 0.0
C1281 C 0.36075 0.60162 0.93092 0.0
C1282 C 0.34965 0.64683 0.94463 0.0
C1283 C 0.34616 0.65333 0.95867 0.0
C1284 C 0.36279 0.65755 0.96781 0.0
C1285 C 0.38288 0.65558 0.9625 0.0
C1286 C 0.38631 0.64925 0.94854 0.0
H1287 H 0.36128 0.58568 0.92681 0.0
H1288 H 0.36824 0.60211 0.94154 0.0
H1289 H 0.34444 0.60604 0.93237 0.0
H1290 H 0.33669 0.64347 0.93778 0.0
H1291 H 0.3305 0.6547 0.96241 0.0
H1292 H 0.46418 0.89456 0.11772 0.0
H1293 H 0.44631 0.87925 0.13795 0.0
H1294 H 0.38899 0.90417 0.12297 0.0
H1295 H 0.40663 0.91936 0.10271 0.0
H1296 H 0.39642 0.91227 0.15132 0.0
H1297 H 0.4074 0.82987 0.13939 0.0
H1298 H 0.43075 0.84447 0.13932 0.0
H1299 H 0.41125 0.84956 0.12626 0.0
C1300 C 0.44773 0.89657 0.11865 0.0
C1301 C 0.43686 0.90829 0.10865 0.0
C1302 C 0.43754 0.88774 0.13017 0.0
C1303 C 0.41629 0.89034 0.13184 0.0
C1304 C 0.40539 0.90193 0.12185 0.0
H1305 H 0.33732 0.83579 0.19712 0.0
H1306 H 0.35257 0.84479 0.17407 0.0
C1307 C 0.41554 0.91075 0.11035 0.0
C1308 C 0.40559 0.88216 0.14448 0.0
H1309 H 0.39525 0.83829 0.16269 0.0
C1310 C 0.39603 0.89608 0.15374 0.0
C1311 C 0.40486 0.86101 0.14751 0.0
C1312 C 0.41393 0.84531 0.13754 0.0
C1313 C 0.38635 0.8895 0.16619 0.0
C1314 C 0.38647 0.86847 0.16957 0.0
C1315 C 0.39538 0.85443 0.1601 0.0
C1316 C 0.37825 0.86115 0.18327 0.0
C1317 C 0.37617 0.90511 0.17573 0.0
C1318 C 0.38801 0.86688 0.19597 0.0
C1319 C 0.3794 0.86182 0.20904 0.0
C1320 C 0.36088 0.85086 0.20968 0.0
C1321 C 0.35158 0.84429 0.19694 0.0
C1322 C 0.36025 0.8494 0.1838 0.0
H1323 H 0.37311 0.91964 0.17004 0.0
H1324 H 0.36146 0.89915 0.17998 0.0
H1325 H 0.38642 0.90854 0.18487 0.0
H1326 H 0.40206 0.87573 0.19575 0.0
H1327 H 0.38704 0.86697 0.21866 0.0
H1328 H 0.08102 0.60726 0.89873 0.0
H1329 H 0.0926 0.62823 0.87872 0.0
H1330 H 0.11185 0.57393 0.85629 0.0
H1331 H 0.09991 0.5528 0.876 0.0
H1332 H 0.14214 0.61282 0.8616 0.0
H1333 H 0.06665 0.62482 0.83485 0.0
H1334 H 0.06854 0.62581 0.85401 0.0
H1335 H 0.07175 0.60192 0.8449 0.0
C1336 C 0.08738 0.59975 0.88943 0.0
C1337 C 0.08959 0.57836 0.88897 0.0
C1338 C 0.09412 0.61177 0.87809 0.0
C1339 C 0.10314 0.60255 0.86615 0.0
C1340 C 0.10503 0.58125 0.86551 0.0
H1341 H 0.13456 0.63408 0.78167 0.0
H1342 H 0.12334 0.61943 0.80413 0.0
C1343 C 0.09826 0.56924 0.87679 0.0
C1344 C 0.11091 0.61503 0.8543 0.0
H1345 H 0.09598 0.63748 0.82334 0.0
C1346 C 0.1321 0.61846 0.85328 0.0
C1347 C 0.09768 0.6222 0.84355 0.0
C1348 C 0.07485 0.61857 0.84424 0.0
C1349 C 0.14053 0.62849 0.84148 0.0
C1350 C 0.12731 0.6353 0.83053 0.0
C1351 C 0.10605 0.63228 0.83178 0.0
C1352 C 0.13524 0.6441 0.81715 0.0
C1353 C 0.1635 0.63097 0.84053 0.0
C1354 C 0.14587 0.66277 0.81704 0.0
C1355 C 0.15246 0.67116 0.80416 0.0
C1356 C 0.14833 0.66106 0.79123 0.0
C1357 C 0.13794 0.64226 0.79144 0.0
C1358 C 0.13147 0.63388 0.80427 0.0
H1359 H 0.1717 0.6215 0.8485 0.0
H1360 H 0.16906 0.62673 0.82975 0.0
H1361 H 0.16756 0.64721 0.84249 0.0
H1362 H 0.14868 0.67104 0.82687 0.0
H1363 H 0.16034 0.68574 0.80429 0.0
H1364 H 0.43716 0.62484 0.14384 0.0
H1365 H 0.41852 0.63915 0.12377 0.0
H1366 H 0.38606 0.58222 0.11815 0.0
H1367 H 0.40563 0.56728 0.1377 0.0
H1368 H 0.39906 0.59571 0.09361 0.0
H1369 H 0.36093 0.65986 0.1214 0.0
H1370 H 0.3882 0.66084 0.1238 0.0
H1371 H 0.37385 0.63964 0.13083 0.0
C1372 C 0.42623 0.61522 0.13827 0.0
C1373 C 0.42301 0.59482 0.1424 0.0
C1374 C 0.41526 0.6236 0.12694 0.0
C1375 C 0.4005 0.61195 0.11965 0.0
C1376 C 0.3972 0.5916 0.12373 0.0
H1377 H 0.32005 0.66395 0.05404 0.0
H1378 H 0.33327 0.65052 0.07663 0.0
C1379 C 0.40833 0.58311 0.13497 0.0
C1380 C 0.38956 0.62059 0.10719 0.0
H1381 H 0.36239 0.66212 0.09583 0.0
C1382 C 0.39084 0.61012 0.09416 0.0
C1383 C 0.37849 0.63921 0.10791 0.0
C1384 C 0.37508 0.65041 0.12178 0.0
C1385 C 0.38206 0.61808 0.08174 0.0
C1386 C 0.37231 0.63741 0.08226 0.0
C1387 C 0.37024 0.64751 0.09539 0.0
C1388 C 0.36456 0.64743 0.06919 0.0
C1389 C 0.38325 0.60559 0.06822 0.0
C1390 C 0.37791 0.65097 0.05778 0.0
C1391 C 0.37039 0.65834 0.0449 0.0
C1392 C 0.34943 0.66278 0.04328 0.0
C1393 C 0.33628 0.66062 0.05501 0.0
C1394 C 0.34379 0.65292 0.06788 0.0
H1395 H 0.38505 0.58905 0.07051 0.0
H1396 H 0.36933 0.60768 0.06155 0.0
H1397 H 0.39683 0.61049 0.06199 0.0
H1398 H 0.39411 0.6475 0.05871 0.0
H1399 H 0.38093 0.66014 0.0361 0.0
H1400 H 0.38845 0.96566 0.38268 0.0
H1401 H 0.37609 0.94786 0.36138 0.0
H1402 H 0.40142 0.89132 0.377 0.0
H1403 H 0.41413 0.90915 0.39821 0.0
H1404 H 0.41168 0.89698 0.35027 0.0
H1405 H 0.32822 0.9101 0.35515 0.0
H1406 H 0.34219 0.93369 0.35591 0.0
H1407 H 0.34584 0.91491 0.36963 0.0
C1408 C 0.39119 0.94939 0.38162 0.0
C1409 C 0.40229 0.9388 0.39209 0.0
C1410 C 0.38398 0.9392 0.36951 0.0
C1411 C 0.38741 0.91815 0.36772 0.0
C1412 C 0.39845 0.90754 0.37819 0.0
H1413 H 0.3397 0.85005 0.29307 0.0
H1414 H 0.34436 0.86168 0.31782 0.0
C1415 C 0.40584 0.91776 0.39025 0.0
C1416 C 0.38095 0.9076 0.35442 0.0
H1417 H 0.34046 0.90092 0.33168 0.0
C1418 C 0.39603 0.8976 0.34634 0.0
C1419 C 0.36044 0.90801 0.34937 0.0
C1420 C 0.34321 0.91706 0.35806 0.0
C1421 C 0.39143 0.88899 0.33303 0.0
C1422 C 0.37133 0.89087 0.32748 0.0
C1423 C 0.35594 0.89982 0.33587 0.0
C1424 C 0.36664 0.88498 0.31259 0.0
C1425 C 0.40827 0.87822 0.32492 0.0
C1426 C 0.37697 0.89478 0.3015 0.0
C1427 C 0.37446 0.88817 0.28751 0.0
C1428 C 0.36134 0.87173 0.28425 0.0
C1429 C 0.34996 0.86271 0.29526 0.0
C1430 C 0.35263 0.86929 0.30938 0.0
H1431 H 0.42051 0.87263 0.33216 0.0
H1432 H 0.40215 0.86506 0.31873 0.0
H1433 H 0.4154 0.8891 0.31738 0.0
H1434 H 0.38745 0.90726 0.30372 0.0
H1435 H 0.38317 0.89571 0.27925 0.0
H1436 H 0.0504 0.90804 0.63378 0.0
H1437 H 0.06366 0.88959 0.61304 0.0
H1438 H 0.12366 0.91537 0.62049 0.0
H1439 H 0.11085 0.933 0.64158 0.0
H1440 H 0.07899 0.90507 0.58939 0.0
H1441 H 0.13837 0.85641 0.61391 0.0
H1442 H 0.11906 0.86948 0.62429 0.0
H1443 H 0.14197 0.88268 0.61881 0.0
C1444 C 0.06651 0.90951 0.63116 0.0
C1445 C 0.07955 0.92205 0.63936 0.0
C1446 C 0.07404 0.89898 0.61927 0.0
C1447 C 0.09476 0.90074 0.61538 0.0
C1448 C 0.10777 0.91331 0.6235 0.0
H1449 H 0.15068 0.90096 0.53519 0.0
H1450 H 0.13514 0.90622 0.55842 0.0
C1451 C 0.10029 0.92373 0.63541 0.0
C1452 C 0.10247 0.89091 0.60216 0.0
H1453 H 0.14251 0.8632 0.58869 0.0
C1454 C 0.09265 0.89559 0.58929 0.0
C1455 C 0.12007 0.87819 0.602 0.0
C1456 C 0.13032 0.87121 0.61553 0.0
C1457 C 0.10073 0.88906 0.57623 0.0
C1458 C 0.11934 0.87795 0.57602 0.0
C1459 C 0.12843 0.87204 0.58889 0.0
C1460 C 0.13038 0.87409 0.56253 0.0
C1461 C 0.08952 0.89459 0.56273 0.0
C1462 C 0.13376 0.85416 0.55744 0.0
C1463 C 0.14284 0.85103 0.54408 0.0
C1464 C 0.14863 0.86782 0.53569 0.0
C1465 C 0.1461 0.88767 0.54123 0.0
C1466 C 0.13716 0.89075 0.55451 0.0
H1467 H 0.07294 0.89732 0.56473 0.0
H1468 H 0.09614 0.90886 0.55837 0.0
H1469 H 0.09107 0.88235 0.55456 0.0
H1470 H 0.12879 0.8411 0.56358 0.0
H1471 H 0.14463 0.83555 0.54013 0.0
H1472 H 0.58711 0.40423 0.85022 0.0
H1473 H 0.59954 0.38477 0.87077 0.0
H1474 H 0.60412 0.44051 0.89522 0.0
H1475 H 0.59171 0.46006 0.87478 0.0
H1476 H 0.64022 0.39541 0.88701 0.0
H1477 H 0.56819 0.39664 0.91872 0.0
H1478 H 0.56832 0.39887 0.89956 0.0
H1479 H 0.57573 0.42023 0.91045 0.0
C1480 C 0.59051 0.41228 0.86004 0.0
C1481 C 0.5884 0.43365 0.86094 0.0
C1482 C 0.59773 0.40118 0.8717 0.0
C1483 C 0.60267 0.41126 0.88444 0.0
C1484 C 0.60031 0.43251 0.88544 0.0
H1485 H 0.64092 0.38706 0.96907 0.0
H1486 H 0.62964 0.40062 0.94627 0.0
C1487 C 0.59328 0.44364 0.87378 0.0
C1488 C 0.61065 0.39976 0.89672 0.0
H1489 H 0.59825 0.38528 0.93038 0.0
C1490 C 0.63107 0.39295 0.89647 0.0
C1491 C 0.59857 0.39665 0.90895 0.0
C1492 C 0.57642 0.40333 0.90951 0.0
C1493 C 0.64003 0.38385 0.90848 0.0
C1494 C 0.62806 0.3812 0.92088 0.0
C1495 C 0.60742 0.38742 0.92088 0.0
C1496 C 0.63677 0.37317 0.93431 0.0
C1497 C 0.66242 0.37799 0.908 0.0
C1498 C 0.64488 0.35332 0.93512 0.0
C1499 C 0.65161 0.34557 0.94819 0.0
C1500 C 0.64999 0.35749 0.96062 0.0
C1501 C 0.64228 0.37748 0.95968 0.0
C1502 C 0.63579 0.38524 0.94666 0.0
H1503 H 0.67052 0.38528 0.89896 0.0
H1504 H 0.67031 0.38238 0.91804 0.0
H1505 H 0.66373 0.36118 0.9067 0.0
H1506 H 0.64544 0.3436 0.92577 0.0
H1507 H 0.65735 0.33005 0.94864 0.0
H1508 H 0.6194 0.06703 0.11734 0.0
H1509 H 0.62725 0.08526 0.13941 0.0
H1510 H 0.57914 0.12865 0.13057 0.0
H1511 H 0.57166 0.11094 0.10812 0.0
H1512 H 0.6155 0.14697 0.14077 0.0
H1513 H 0.59099 0.08251 0.17474 0.0
H1514 H 0.60993 0.07527 0.16183 0.0
H1515 H 0.58501 0.08369 0.15602 0.0
C1516 C 0.6106 0.08056 0.11999 0.0
C1517 C 0.59481 0.08744 0.11099 0.0
C1518 C 0.615 0.09086 0.13267 0.0
C1519 C 0.60358 0.10812 0.13671 0.0
C1520 C 0.58805 0.11528 0.12767 0.0
H1521 H 0.60807 0.14602 0.22479 0.0
H1522 H 0.59547 0.13943 0.20071 0.0
C1523 C 0.58366 0.10501 0.11494 0.0
C1524 C 0.60764 0.11831 0.15053 0.0
H1525 H 0.60995 0.109 0.18611 0.0
C1526 C 0.61411 0.13879 0.15073 0.0
C1527 C 0.60546 0.10771 0.1635 0.0
C1528 C 0.59727 0.08615 0.16407 0.0
C1529 C 0.61913 0.14875 0.16358 0.0
C1530 C 0.61796 0.13776 0.17648 0.0
C1531 C 0.61094 0.11746 0.17624 0.0
C1532 C 0.62431 0.14648 0.19043 0.0
C1533 C 0.62544 0.17091 0.16319 0.0
C1534 C 0.64444 0.15361 0.19263 0.0
C1535 C 0.65151 0.15788 0.20642 0.0
C1536 C 0.63868 0.15455 0.21816 0.0
C1537 C 0.61825 0.14861 0.21587 0.0
C1538 C 0.61107 0.14482 0.20213 0.0
H1539 H 0.61911 0.1787 0.15367 0.0
H1540 H 0.62026 0.17924 0.17287 0.0
H1541 H 0.64242 0.17186 0.16263 0.0
H1542 H 0.6551 0.1546 0.18384 0.0
H1543 H 0.66741 0.16222 0.20796 0.0
H1544 H 0.90256 0.07975 0.35755 0.0
H1545 H 0.88592 0.09246 0.37909 0.0
H1546 H 0.93165 0.13982 0.3829 0.0
H1547 H 0.94905 0.12656 0.36178 0.0
H1548 H 0.9249 0.12189 0.40783 0.0
H1549 H 0.8502 0.14238 0.38358 0.0
H1550 H 0.85699 0.11613 0.38059 0.0
H1551 H 0.8725 0.1361 0.37307 0.0
C1552 C 0.90924 0.09274 0.36304 0.0
C1553 C 0.92718 0.10213 0.3579 0.0
C1554 C 0.89948 0.1002 0.37524 0.0
C1555 C 0.90726 0.11738 0.38244 0.0
C1556 C 0.92525 0.12667 0.37743 0.0
H1557 H 0.84545 0.18672 0.44938 0.0
H1558 H 0.85922 0.1746 0.42656 0.0
C1559 C 0.9351 0.11914 0.36529 0.0
C1560 C 0.89719 0.12515 0.39554 0.0
H1561 H 0.85156 0.14222 0.40899 0.0
C1562 C 0.90889 0.12643 0.40805 0.0
C1563 C 0.87637 0.13139 0.39579 0.0
C1564 C 0.86333 0.13165 0.38251 0.0
C1565 C 0.90032 0.13343 0.42085 0.0
C1566 C 0.87925 0.13871 0.42127 0.0
C1567 C 0.86762 0.13786 0.4087 0.0
C1568 C 0.86917 0.14532 0.43467 0.0
C1569 C 0.91406 0.13542 0.43373 0.0
C1570 C 0.8695 0.13259 0.44663 0.0
C1571 C 0.86193 0.13956 0.45966 0.0
C1572 C 0.85347 0.15924 0.4609 0.0
C1573 C 0.85194 0.1715 0.44872 0.0
C1574 C 0.8598 0.1646 0.4357 0.0
H1575 H 0.93047 0.13669 0.43067 0.0
H1576 H 0.9099 0.14901 0.44025 0.0
H1577 H 0.91241 0.1216 0.44042 0.0
H1578 H 0.87606 0.11741 0.44598 0.0
H1579 H 0.86304 0.12966 0.46882 0.0
H1580 H 0.93055 0.37744 0.59847 0.0
H1581 H 0.91082 0.36464 0.61867 0.0
H1582 H 0.92773 0.41795 0.64318 0.0
H1583 H 0.94753 0.43086 0.62303 0.0
H1584 H 0.92324 0.35548 0.64622 0.0
H1585 H 0.86514 0.41743 0.64626 0.0
H1586 H 0.88239 0.4131 0.63153 0.0
H1587 H 0.89105 0.42667 0.64712 0.0
C1588 C 0.93026 0.38633 0.60822 0.0
C1589 C 0.94058 0.40519 0.60916 0.0
C1590 C 0.91888 0.37906 0.61971 0.0
C1591 C 0.91751 0.39053 0.63231 0.0
C1592 C 0.92818 0.40911 0.63342 0.0
H1593 H 0.88265 0.37012 0.71772 0.0
H1594 H 0.89883 0.37728 0.69486 0.0
C1595 C 0.93952 0.41643 0.62192 0.0
C1596 C 0.90519 0.38294 0.64441 0.0
H1597 H 0.86604 0.39602 0.66681 0.0
C1598 C 0.91058 0.36422 0.65062 0.0
C1599 C 0.8885 0.39425 0.65001 0.0
C1600 C 0.88126 0.41388 0.64331 0.0
C1601 C 0.90031 0.357 0.66271 0.0
C1602 C 0.88433 0.36879 0.66866 0.0
C1603 C 0.87839 0.38709 0.66217 0.0
C1604 C 0.87479 0.36325 0.68232 0.0
C1605 C 0.90683 0.33708 0.66932 0.0
C1606 C 0.85597 0.35288 0.68273 0.0
C1607 C 0.84667 0.34864 0.69581 0.0
C1608 C 0.85604 0.35493 0.70859 0.0
C1609 C 0.87503 0.36509 0.70806 0.0
C1610 C 0.88432 0.36919 0.69504 0.0
H1611 H 0.91816 0.32873 0.66265 0.0
H1612 H 0.91379 0.34015 0.6799 0.0
H1613 H 0.89322 0.32716 0.67099 0.0
H1614 H 0.84842 0.34826 0.67295 0.0
H1615 H 0.83203 0.34081 0.6959 0.0
H1616 H 0.58694 0.12556 0.40061 0.0
H1617 H 0.60517 0.13726 0.37937 0.0
H1618 H 0.60023 0.07699 0.36094 0.0
H1619 H 0.58187 0.06515 0.38212 0.0
H1620 H 0.64412 0.11544 0.36597 0.0
H1621 H 0.57402 0.12201 0.33225 0.0
H1622 H 0.57303 0.12385 0.35142 0.0
H1623 H 0.57698 0.09951 0.34303 0.0
C1624 C 0.58957 0.11485 0.39198 0.0
C1625 C 0.58286 0.09447 0.39297 0.0
C1626 C 0.60014 0.1215 0.37994 0.0
C1627 C 0.60399 0.10795 0.36867 0.0
C1628 C 0.59736 0.08762 0.36959 0.0
H1629 H 0.64679 0.12477 0.28297 0.0
H1630 H 0.63493 0.11071 0.30548 0.0
C1631 C 0.58693 0.0809 0.38167 0.0
C1632 C 0.61453 0.11521 0.35577 0.0
H1633 H 0.60571 0.12882 0.32138 0.0
C1634 C 0.63581 0.1184 0.35619 0.0
C1635 C 0.60354 0.11896 0.34311 0.0
C1636 C 0.5806 0.11604 0.34232 0.0
C1637 C 0.64651 0.12502 0.34409 0.0
C1638 C 0.63548 0.12891 0.33141 0.0
C1639 C 0.61416 0.12576 0.33109 0.0
C1640 C 0.64551 0.13624 0.31825 0.0
C1641 C 0.66952 0.12731 0.34489 0.0
C1642 C 0.65589 0.15506 0.318 0.0
C1643 C 0.66291 0.16306 0.30511 0.0
C1644 C 0.65932 0.15249 0.29229 0.0
C1645 C 0.64967 0.13331 0.29267 0.0
C1646 C 0.64287 0.12526 0.30552 0.0
H1647 H 0.67613 0.11841 0.35383 0.0
H1648 H 0.6769 0.12225 0.33483 0.0
H1649 H 0.67338 0.14364 0.34667 0.0
H1650 H 0.65775 0.16399 0.32764 0.0
H1651 H 0.6702 0.17794 0.30509 0.0
H1652 H 0.92829 0.12041 0.64913 0.0
H1653 H 0.91761 0.14024 0.62837 0.0
H1654 H 0.88015 0.08978 0.61409 0.0
H1655 H 0.89068 0.06994 0.63478 0.0
H1656 H 0.92345 0.1322 0.60061 0.0
H1657 H 0.84024 0.13689 0.61098 0.0
H1658 H 0.85844 0.12919 0.62444 0.0
H1659 H 0.84894 0.11091 0.61162 0.0
C1660 C 0.9178 0.11354 0.64154 0.0
C1661 C 0.91028 0.09361 0.64361 0.0
C1662 C 0.9116 0.12495 0.62975 0.0
C1663 C 0.89771 0.11668 0.61985 0.0
C1664 C 0.89036 0.09673 0.62182 0.0
H1665 H 0.88278 0.12476 0.53264 0.0
H1666 H 0.89319 0.12113 0.55726 0.0
C1667 C 0.89648 0.08536 0.63362 0.0
C1668 C 0.89191 0.12822 0.6069 0.0
H1669 H 0.85062 0.14086 0.58635 0.0
C1670 C 0.90752 0.13447 0.59762 0.0
C1671 C 0.87117 0.13174 0.60314 0.0
C1672 C 0.85376 0.12704 0.61316 0.0
C1673 C 0.9029 0.14258 0.58421 0.0
C1674 C 0.88215 0.14406 0.57987 0.0
C1675 C 0.86654 0.13942 0.58959 0.0
C1676 C 0.87649 0.14761 0.56481 0.0
C1677 C 0.92031 0.14887 0.57463 0.0
C1678 C 0.86321 0.16353 0.56086 0.0
C1679 C 0.85701 0.16563 0.54663 0.0
C1680 C 0.8638 0.15165 0.53622 0.0
C1681 C 0.87719 0.13584 0.54031 0.0
C1682 C 0.88337 0.13383 0.55441 0.0
H1683 H 0.93388 0.15384 0.58094 0.0
H1684 H 0.92505 0.13559 0.56802 0.0
H1685 H 0.91569 0.16149 0.56745 0.0
H1686 H 0.85755 0.17421 0.56878 0.0
H1687 H 0.84667 0.17795 0.54386 0.0
H1688 H 0.89952 0.38891 0.90293 0.0
H1689 H 0.88118 0.37872 0.88126 0.0
H1690 H 0.91052 0.42757 0.85833 0.0
H1691 H 0.92868 0.43799 0.88 0.0
H1692 H 0.8692 0.42445 0.85225 0.0
H1693 H 0.90701 0.34839 0.8481 0.0
H1694 H 0.89372 0.35316 0.8645 0.0
H1695 H 0.91599 0.36804 0.86011 0.0
C1696 C 0.90216 0.39738 0.89323 0.0
C1697 C 0.91569 0.41413 0.89311 0.0
C1698 C 0.89167 0.39154 0.88087 0.0
C1699 C 0.89475 0.40217 0.86813 0.0
C1700 C 0.90794 0.41913 0.86805 0.0
H1701 H 0.8794 0.39509 0.77989 0.0
H1702 H 0.88375 0.40446 0.80485 0.0
C1703 C 0.9183 0.42508 0.88043 0.0
C1704 C 0.88458 0.39553 0.85475 0.0
H1705 H 0.88302 0.35669 0.83034 0.0
C1706 C 0.87207 0.40956 0.84753 0.0
C1707 C 0.88823 0.37604 0.84864 0.0
C1708 C 0.90209 0.36057 0.85565 0.0
C1709 C 0.86367 0.40486 0.83415 0.0
C1710 C 0.868 0.38571 0.82782 0.0
C1711 C 0.87966 0.37131 0.83531 0.0
C1712 C 0.86302 0.38136 0.81275 0.0
C1713 C 0.85062 0.42056 0.8267 0.0
C1714 C 0.84981 0.36529 0.80892 0.0
C1715 C 0.84715 0.35994 0.79458 0.0
C1716 C 0.85808 0.37031 0.78393 0.0
C1717 C 0.87086 0.38672 0.78784 0.0
C1718 C 0.87326 0.39221 0.80209 0.0
H1719 H 0.84413 0.43186 0.83433 0.0
H1720 H 0.86022 0.42894 0.81893 0.0
H1721 H 0.83784 0.41314 0.82079 0.0
H1722 H 0.84193 0.35664 0.81705 0.0
H1723 H 0.83728 0.34718 0.79188 0.0
H1724 H 0.59434 0.41857 0.14629 0.0
H1725 H 0.61103 0.40732 0.12434 0.0
H1726 H 0.55566 0.37611 0.11154 0.0
H1727 H 0.53854 0.388 0.13319 0.0
H1728 H 0.61818 0.36805 0.11318 0.0
H1729 H 0.56743 0.41395 0.07809 0.0
H1730 H 0.56839 0.41771 0.0971 0.0
H1731 H 0.55423 0.39662 0.08966 0.0
C1732 C 0.5856 0.40953 0.13873 0.0
C1733 C 0.565 0.40442 0.14142 0.0
C1734 C 0.59526 0.40291 0.12628 0.0
C1735 C 0.58451 0.39108 0.11626 0.0
C1736 C 0.56413 0.38548 0.11905 0.0
H1737 H 0.63888 0.33489 0.03984 0.0
H1738 H 0.62405 0.33924 0.06366 0.0
C1739 C 0.55443 0.39216 0.13149 0.0
C1740 C 0.59447 0.38527 0.10268 0.0
H1741 H 0.59166 0.39262 0.06684 0.0
C1742 C 0.61238 0.37333 0.10302 0.0
C1743 C 0.58692 0.39236 0.08948 0.0
C1744 C 0.5683 0.40602 0.08849 0.0
C1745 C 0.62307 0.36842 0.09048 0.0
C1746 C 0.61546 0.37549 0.0773 0.0
C1747 C 0.5974 0.38717 0.07698 0.0
C1748 C 0.62653 0.37223 0.06373 0.0
C1749 C 0.64273 0.35633 0.09144 0.0
C1750 C 0.63297 0.38928 0.05597 0.0
C1751 C 0.64118 0.38688 0.0424 0.0
C1752 C 0.64318 0.36733 0.03627 0.0
C1753 C 0.63761 0.35013 0.0443 0.0
C1754 C 0.6292 0.35258 0.05792 0.0
H1755 H 0.64863 0.3556 0.10253 0.0
H1756 H 0.63989 0.34048 0.08767 0.0
H1757 H 0.65475 0.36311 0.08457 0.0
H1758 H 0.63112 0.40457 0.06028 0.0
H1759 H 0.64553 0.40044 0.03657 0.0
loop_
_geom_bond_atom_site_label_1
_geom_bond_atom_site_label_2
_geom_bond_distance
_geom_bond_site_symmetry_2
_ccdc_geom_bond_type
H0 C27 0.929 . S
N1 C26 1.433 . S
N1 C32 1.435 . S
N1 C38 1.423 . S
H2 C28 0.930 . S
H3 C31 0.931 . S
H4 C30 0.929 . S
H5 C33 0.930 . S
H6 C34 0.932 . S
H7 C37 0.929 . S
H8 C36 0.931 . S
H9 C39 0.926 1_545 S
H10 C43 0.932 . S
H11 C40 0.931 . S
H12 C42 0.929 . S
H13 C45 0.929 . S
H14 C46 0.930 . S
H15 C48 0.929 . S
H16 C49 0.931 . S
H17 C51 0.930 . S
H18 C52 0.932 . S
H19 C54 0.931 . S
H20 C55 0.929 . S
H21 C57 0.929 . S
H22 C58 0.931 . S
H23 C60 0.929 . S
N24 C44 1.433 . S
N24 C50 1.435 . S
N24 C56 1.423 . S
H25 C61 0.932 . S
C26 N1 1.433 . S
C26 C27 1.363 . S
C26 C31 1.370 . S
C27 H0 0.929 . S
C27 C26 1.363 . S
C27 C28 1.385 . S
C28 H2 0.930 . S
C28 C27 1.385 . S
C28 C29 1.357 . S
C29 C28 1.357 . S
C29 C30 1.406 . S
C30 H4 0.929 . S
C30 C29 1.406 . S
C30 C31 1.391 . S
C31 H3 0.931 . S
C31 C26 1.370 . S
C31 C30 1.391 . S
C32 N1 1.435 . S
C32 C33 1.358 . S
C32 C37 1.371 . S
C33 H5 0.930 . S
C33 C32 1.358 . S
C33 C34 1.405 . S
C34 H6 0.932 . S
C34 C33 1.405 . S
C34 C35 1.383 . S
C35 C34 1.383 . S
C35 C36 1.393 . S
C36 H8 0.931 . S
C36 C35 1.393 . S
C36 C37 1.382 . S
C37 H7 0.929 . S
C37 C32 1.371 . S
C37 C36 1.382 . S
C38 N1 1.423 . S
C38 C39 1.362 . S
C38 C43 1.388 . S
C39 H9 0.926 1_565 S
C39 C38 1.362 . S
C39 C40 1.376 1_565 S
C40 H11 0.931 . S
C40 C39 1.376 1_545 S
C40 C41 1.396 . S
C41 C40 1.396 . S
C41 C42 1.348 1_545 S
C41 C59 1.472 . S
C42 H12 0.929 . S
C42 C41 1.348 1_565 S
C42 C43 1.443 . S
C43 H10 0.932 . S
C43 C38 1.388 . S
C43 C42 1.443 . S
C44 N24 1.433 . S
C44 C45 1.363 . S
C44 C49 1.370 . S
C45 H13 0.929 . S
C45 C44 1.363 . S
C45 C46 1.385 . S
C46 H14 0.930 . S
C46 C45 1.385 . S
C46 C47 1.357 . S
C47 C46 1.357 . S
C47 C48 1.406 . S
C48 H15 0.929 . S
C48 C47 1.406 . S
C48 C49 1.391 . S
C49 H16 0.931 . S
C49 C44 1.370 . S
C49 C48 1.391 . S
C50 N24 1.435 . S
C50 C51 1.358 . S
C50 C55 1.371 . S
C51 H17 0.930 . S
C51 C50 1.358 . S
C51 C52 1.405 . S
C52 H18 0.932 . S
C52 C51 1.405 . S
C52 C53 1.383 . S
C53 C52 1.383 . S
C53 C54 1.393 . S
C54 H19 0.931 . S
C54 C53 1.393 . S
C54 C55 1.382 . S
C55 H20 0.929 . S
C55 C50 1.371 . S
C55 C54 1.382 . S
C56 N24 1.423 . S
C56 C57 1.362 . S
C56 C61 1.388 . S
C57 H21 0.929 . S
C57 C56 1.362 . S
C57 C58 1.376 1_655 S
C58 H22 0.931 . S
C58 C57 1.376 1_455 S
C58 C59 1.396 . S
C59 C41 1.472 . S
C59 C58 1.396 . S
C59 C60 1.348 1_455 S
C60 H23 0.929 . S
C60 C59 1.348 1_655 S
C60 C61 1.443 . S
C61 H25 0.932 . S
C61 C56 1.388 . S
C61 C60 1.443 . S
H62 C89 0.929 . S
N63 C88 1.433 . S
N63 C94 1.435 . S
N63 C100 1.423 . S
H64 C90 0.930 . S
H65 C93 0.931 . S
H66 C92 0.929 . S
H67 C95 0.930 . S
H68 C96 0.932 . S
H69 C99 0.929 . S
H70 C98 0.931 . S
H71 C101 0.932 . S
H72 C105 0.932 . S
H73 C102 0.931 . S
H74 C104 0.929 . S
H75 C107 0.929 . S
H76 C108 0.930 . S
H77 C110 0.929 . S
H78 C111 0.931 . S
H79 C113 0.930 . S
H80 C114 0.932 . S
H81 C116 0.931 . S
H82 C117 0.929 . S
H83 C119 0.929 . S
H84 C120 0.931 . S
H85 C122 0.929 . S
N86 C106 1.433 . S
N86 C112 1.435 . S
N86 C118 1.423 . S
H87 C123 0.932 . S
C88 N63 1.433 . S
C88 C89 1.363 . S
C88 C93 1.370 . S
C89 H62 0.929 . S
C89 C88 1.363 . S
C89 C90 1.385 . S
C90 H64 0.930 . S
C90 C89 1.385 . S
C90 C91 1.357 . S
C91 C90 1.357 . S
C91 C92 1.406 . S
C92 H66 0.929 . S
C92 C91 1.406 . S
C92 C93 1.391 . S
C93 H65 0.931 . S
C93 C88 1.370 . S
C93 C92 1.391 . S
C94 N63 1.435 . S
C94 C95 1.358 . S
C94 C99 1.371 . S
C95 H67 0.930 . S
C95 C94 1.358 . S
C95 C96 1.405 . S
C96 H68 0.932 . S
C96 C95 1.405 . S
C96 C97 1.383 . S
C97 C96 1.383 . S
C97 C98 1.393 . S
C98 H70 0.931 . S
C98 C97 1.393 . S
C98 C99 1.382 . S
C99 H69 0.929 . S
C99 C94 1.371 . S
C99 C98 1.382 . S
C100 N63 1.423 . S
C100 C101 1.362 . S
C100 C105 1.388 . S
C101 H71 0.932 . S
C101 C100 1.362 . S
C101 C102 1.376 1_655 S
C102 H73 0.931 . S
C102 C101 1.376 1_455 S
C102 C103 1.396 . S
C103 C102 1.396 . S
C103 C104 1.348 1_455 S
C103 C121 1.472 . S
C104 H74 0.929 . S
C104 C103 1.348 1_655 S
C104 C105 1.443 . S
C105 H72 0.932 . S
C105 C100 1.388 . S
C105 C104 1.443 . S
C106 N86 1.433 . S
C106 C107 1.363 . S
C106 C111 1.370 . S
C107 H75 0.929 . S
C107 C106 1.363 . S
C107 C108 1.385 . S
C108 H76 0.930 . S
C108 C107 1.385 . S
C108 C109 1.357 . S
C109 C108 1.357 . S
C109 C110 1.406 . S
C110 H77 0.929 . S
C110 C109 1.406 . S
C110 C111 1.391 . S
C111 H78 0.931 . S
C111 C106 1.370 . S
C111 C110 1.391 . S
C112 N86 1.435 . S
C112 C113 1.358 . S
C112 C117 1.371 . S
C113 H79 0.930 . S
C113 C112 1.358 . S
C113 C114 1.405 . S
C114 H80 0.932 . S
C114 C113 1.405 . S
C114 C115 1.383 . S
C115 C114 1.383 . S
C115 C116 1.393 . S
C116 H81 0.931 . S
C116 C115 1.393 . S
C116 C117 1.382 . S
C117 H82 0.929 . S
C117 C112 1.371 . S
C117 C116 1.382 . S
C118 N86 1.423 . S
C118 C119 1.362 . S
C118 C123 1.388 . S
C119 H83 0.929 . S
C119 C118 1.362 . S
C119 C120 1.376 . S
C120 H84 0.931 . S
C120 C119 1.376 . S
C120 C121 1.396 . S
C121 C103 1.472 . S
C121 C120 1.396 . S
C121 C122 1.348 . S
C122 H85 0.929 . S
C122 C121 1.348 . S
C122 C123 1.443 . S
C123 H87 0.932 . S
C123 C118 1.388 . S
C123 C122 1.443 . S
H124 C151 0.929 . S
N125 C150 1.433 . S
N125 C156 1.435 . S
N125 C162 1.423 . S
H126 C152 0.930 . S
H127 C155 0.931 . S
H128 C154 0.929 . S
H129 C157 0.930 . S
H130 C158 0.932 . S
H131 C161 0.929 . S
H132 C160 0.931 . S
H133 C163 0.929 . S
H134 C167 0.932 . S
H135 C164 0.931 . S
H136 C166 0.929 . S
H137 C169 0.929 . S
H138 C170 0.930 . S
H139 C172 0.929 . S
H140 C173 0.931 . S
H141 C175 0.930 . S
H142 C176 0.932 . S
H143 C178 0.931 . S
H144 C179 0.929 . S
H145 C181 0.929 . S
H146 C182 0.931 . S
H147 C184 0.929 . S
N148 C168 1.433 . S
N148 C174 1.435 . S
N148 C180 1.423 . S
H149 C185 0.932 . S
C150 N125 1.433 . S
C150 C151 1.363 . S
C150 C155 1.370 . S
C151 H124 0.929 . S
C151 C150 1.363 . S
C151 C152 1.385 . S
C152 H126 0.930 . S
C152 C151 1.385 . S
C152 C153 1.357 . S
C153 C152 1.357 . S
C153 C154 1.406 . S
C154 H128 0.929 . S
C154 C153 1.406 . S
C154 C155 1.391 . S
C155 H127 0.931 . S
C155 C150 1.370 . S
C155 C154 1.391 . S
C156 N125 1.435 . S
C156 C157 1.358 . S
C156 C161 1.371 . S
C157 H129 0.930 . S
C157 C156 1.358 . S
C157 C158 1.405 . S
C158 H130 0.932 . S
C158 C157 1.405 . S
C158 C159 1.383 . S
C159 C158 1.383 . S
C159 C160 1.393 . S
C160 H132 0.931 . S
C160 C159 1.393 . S
C160 C161 1.382 . S
C161 H131 0.929 . S
C161 C156 1.371 . S
C161 C160 1.382 . S
C162 N125 1.423 . S
C162 C163 1.362 . S
C162 C167 1.388 . S
C163 H133 0.929 . S
C163 C162 1.362 . S
C163 C164 1.376 . S
C164 H135 0.931 . S
C164 C163 1.376 . S
C164 C165 1.396 . S
C165 C164 1.396 . S
C165 C166 1.348 . S
C165 C183 1.472 . S
C166 H136 0.929 . S
C166 C165 1.348 . S
C166 C167 1.443 . S
C167 H134 0.932 . S
C167 C162 1.388 . S
C167 C166 1.443 . S
C168 N148 1.433 . S
C168 C169 1.363 . S
C168 C173 1.370 . S
C169 H137 0.929 . S
C169 C168 1.363 . S
C169 C170 1.385 . S
C170 H138 0.930 . S
C170 C169 1.385 . S
C170 C171 1.357 . S
C171 C170 1.357 . S
C171 C172 1.406 . S
C172 H139 0.929 . S
C172 C171 1.406 . S
C172 C173 1.391 . S
C173 H140 0.931 . S
C173 C168 1.370 . S
C173 C172 1.391 . S
C174 N148 1.435 . S
C174 C175 1.358 . S
C174 C179 1.371 . S
C175 H141 0.930 . S
C175 C174 1.358 . S
C175 C176 1.405 . S
C176 H142 0.932 . S
C176 C175 1.405 . S
C176 C177 1.383 . S
C177 C176 1.383 . S
C177 C178 1.393 . S
C178 H143 0.931 . S
C178 C177 1.393 . S
C178 C179 1.382 . S
C179 H144 0.929 . S
C179 C174 1.371 . S
C179 C178 1.382 . S
C180 N148 1.423 . S
C180 C181 1.362 . S
C180 C185 1.388 . S
C181 H145 0.929 . S
C181 C180 1.362 . S
C181 C182 1.376 . S
C182 H146 0.931 . S
C182 C181 1.376 . S
C182 C183 1.396 . S
C183 C165 1.472 . S
C183 C182 1.396 . S
C183 C184 1.348 . S
C184 H147 0.929 . S
C184 C183 1.348 . S
C184 C185 1.443 . S
C185 H149 0.932 . S
C185 C180 1.388 . S
C185 C184 1.443 . S
H186 C213 0.929 . S
N187 C212 1.433 . S
N187 C218 1.435 . S
N187 C224 1.423 . S
H188 C214 0.930 . S
H189 C217 0.931 . S
H190 C216 0.929 . S
H191 C219 0.930 . S
H192 C220 0.932 . S
H193 C223 0.929 . S
H194 C222 0.931 . S
H195 C225 0.929 . S
H196 C229 0.932 . S
H197 C226 0.931 . S
H198 C228 0.929 . S
H199 C231 0.929 . S
H200 C232 0.930 . S
H201 C234 0.929 . S
H202 C235 0.931 . S
H203 C237 0.930 . S
H204 C238 0.932 . S
H205 C240 0.931 . S
H206 C241 0.929 . S
H207 C243 0.929 . S
H208 C244 0.931 1_565 S
H209 C246 0.929 . S
N210 C230 1.433 . S
N210 C236 1.435 . S
N210 C242 1.423 . S
H211 C247 0.932 . S
C212 N187 1.433 . S
C212 C213 1.363 . S
C212 C217 1.370 . S
C213 H186 0.929 . S
C213 C212 1.363 . S
C213 C214 1.385 . S
C214 H188 0.930 . S
C214 C213 1.385 . S
C214 C215 1.357 . S
C215 C214 1.357 . S
C215 C216 1.406 . S
C216 H190 0.929 . S
C216 C215 1.406 . S
C216 C217 1.391 . S
C217 H189 0.931 . S
C217 C212 1.370 . S
C217 C216 1.391 . S
C218 N187 1.435 . S
C218 C219 1.358 . S
C218 C223 1.371 . S
C219 H191 0.930 . S
C219 C218 1.358 . S
C219 C220 1.405 . S
C220 H192 0.932 . S
C220 C219 1.405 . S
C220 C221 1.383 . S
C221 C220 1.383 . S
C221 C222 1.393 . S
C222 H194 0.931 . S
C222 C221 1.393 . S
C222 C223 1.382 . S
C223 H193 0.929 . S
C223 C218 1.371 . S
C223 C222 1.382 . S
C224 N187 1.423 . S
C224 C225 1.362 . S
C224 C229 1.388 . S
C225 H195 0.929 . S
C225 C224 1.362 . S
C225 C226 1.376 . S
C226 H197 0.931 . S
C226 C225 1.376 . S
C226 C227 1.396 . S
C227 C226 1.396 . S
C227 C228 1.348 . S
C227 C245 1.472 1_565 S
C228 H198 0.929 . S
C228 C227 1.348 . S
C228 C229 1.443 . S
C229 H196 0.932 . S
C229 C224 1.388 . S
C229 C228 1.443 . S
C230 N210 1.433 . S
C230 C231 1.363 . S
C230 C235 1.370 . S
C231 H199 0.929 . S
C231 C230 1.363 . S
C231 C232 1.385 . S
C232 H200 0.930 . S
C232 C231 1.385 . S
C232 C233 1.357 . S
C233 C232 1.357 . S
C233 C234 1.406 . S
C234 H201 0.929 . S
C234 C233 1.406 . S
C234 C235 1.391 . S
C235 H202 0.931 . S
C235 C230 1.370 . S
C235 C234 1.391 . S
C236 N210 1.435 . S
C236 C237 1.358 . S
C236 C241 1.371 . S
C237 H203 0.930 . S
C237 C236 1.358 . S
C237 C238 1.405 . S
C238 H204 0.932 . S
C238 C237 1.405 . S
C238 C239 1.383 . S
C239 C238 1.383 . S
C239 C240 1.393 . S
C240 H205 0.931 . S
C240 C239 1.393 . S
C240 C241 1.382 . S
C241 H206 0.929 . S
C241 C236 1.371 . S
C241 C240 1.382 . S
C242 N210 1.423 . S
C242 C243 1.362 . S
C242 C247 1.388 . S
C243 H207 0.929 . S
C243 C242 1.362 . S
C243 C244 1.376 . S
C244 H208 0.931 1_545 S
C244 C243 1.376 . S
C244 C245 1.396 . S
C245 C227 1.472 1_545 S
C245 C244 1.396 . S
C245 C246 1.348 . S
C246 H209 0.929 . S
C246 C245 1.348 . S
C246 C247 1.443 . S
C247 H211 0.932 . S
C247 C242 1.388 . S
C247 C246 1.443 . S
H248 C275 0.929 . S
N249 C274 1.433 . S
N249 C280 1.435 . S
N249 C286 1.423 . S
H250 C276 0.930 . S
H251 C279 0.931 . S
H252 C278 0.929 . S
H253 C281 0.930 . S
H254 C282 0.932 . S
H255 C285 0.929 . S
H256 C284 0.931 . S
H257 C287 0.929 . S
H258 C291 0.932 . S
H259 C288 0.931 . S
H260 C290 0.929 . S
H261 C293 0.929 . S
H262 C294 0.930 . S
H263 C296 0.929 . S
H264 C297 0.931 . S
H265 C299 0.930 . S
H266 C300 0.932 . S
H267 C302 0.931 . S
H268 C303 0.929 . S
H269 C305 0.929 . S
H270 C306 0.931 1_455 S
H271 C308 0.929 . S
N272 C292 1.433 . S
N272 C298 1.435 . S
N272 C304 1.423 . S
H273 C309 0.932 . S
C274 N249 1.433 . S
C274 C275 1.363 . S
C274 C279 1.370 . S
C275 H248 0.929 . S
C275 C274 1.363 . S
C275 C276 1.385 . S
C276 H250 0.930 . S
C276 C275 1.385 . S
C276 C277 1.357 . S
C277 C276 1.357 . S
C277 C278 1.406 . S
C278 H252 0.929 . S
C278 C277 1.406 . S
C278 C279 1.391 . S
C279 H251 0.931 . S
C279 C274 1.370 . S
C279 C278 1.391 . S
C280 N249 1.435 . S
C280 C281 1.358 . S
C280 C285 1.371 . S
C281 H253 0.930 . S
C281 C280 1.358 . S
C281 C282 1.405 . S
C282 H254 0.932 . S
C282 C281 1.405 . S
C282 C283 1.383 . S
C283 C282 1.383 . S
C283 C284 1.393 . S
C284 H256 0.931 . S
C284 C283 1.393 . S
C284 C285 1.382 . S
C285 H255 0.929 . S
C285 C280 1.371 . S
C285 C284 1.382 . S
C286 N249 1.423 . S
C286 C287 1.362 . S
C286 C291 1.388 . S
C287 H257 0.929 . S
C287 C286 1.362 . S
C287 C288 1.376 . S
C288 H259 0.931 . S
C288 C287 1.376 . S
C288 C289 1.396 . S
C289 C288 1.396 . S
C289 C290 1.348 . S
C289 C307 1.511 . S
C290 H260 0.929 . S
C290 C289 1.348 . S
C290 C291 1.443 . S
C291 H258 0.932 . S
C291 C286 1.388 . S
C291 C290 1.443 . S
C292 N272 1.433 . S
C292 C293 1.363 . S
C292 C297 1.370 . S
C293 H261 0.929 . S
C293 C292 1.363 . S
C293 C294 1.385 . S
C294 H262 0.930 . S
C294 C293 1.385 . S
C294 C295 1.357 . S
C295 C294 1.357 . S
C295 C296 1.406 . S
C296 H263 0.929 . S
C296 C295 1.406 . S
C296 C297 1.391 . S
C297 H264 0.931 . S
C297 C292 1.370 . S
C297 C296 1.391 . S
C298 N272 1.435 . S
C298 C299 1.358 . S
C298 C303 1.371 . S
C299 H265 0.930 . S
C299 C298 1.358 . S
C299 C300 1.405 . S
C300 H266 0.932 . S
C300 C299 1.405 . S
C300 C301 1.383 . S
C301 C300 1.383 . S
C301 C302 1.393 . S
C302 H267 0.931 . S
C302 C301 1.393 . S
C302 C303 1.382 . S
C303 H268 0.929 . S
C303 C298 1.371 . S
C303 C302 1.382 . S
C304 N272 1.423 . S
C304 C305 1.362 . S
C304 C309 1.388 . S
C305 H269 0.929 . S
C305 C304 1.362 . S
C305 C306 1.376 . S
C306 H270 0.931 1_655 S
C306 C305 1.376 . S
C306 C307 1.392 1_655 S
C307 C289 1.511 . S
C307 C306 1.392 1_455 S
C307 C308 1.312 1_455 S
C308 H271 0.929 . S
C308 C307 1.312 1_655 S
C308 C309 1.443 . S
C309 H273 0.932 . S
C309 C304 1.388 . S
C309 C308 1.443 . S
H310 C337 0.929 . S
N311 C336 1.433 . S
N311 C342 1.435 . S
N311 C348 1.423 . S
H312 C338 0.930 . S
H313 C341 0.931 . S
H314 C340 0.929 . S
H315 C343 0.930 . S
H316 C344 0.932 . S
H317 C347 0.929 . S
H318 C346 0.931 . S
H319 C349 0.929 . S
H320 C353 0.932 . S
H321 C350 0.931 . S
H322 C352 0.929 . S
H323 C355 0.929 . S
H324 C356 0.930 . S
H325 C358 0.929 . S
H326 C359 0.931 . S
H327 C361 0.930 . S
H328 C362 0.932 . S
H329 C364 0.931 . S
H330 C365 0.929 . S
H331 C367 0.929 . S
H332 C368 0.931 . S
H333 C370 0.929 . S
N334 C354 1.433 . S
N334 C360 1.435 . S
N334 C366 1.423 . S
H335 C371 0.932 . S
C336 N311 1.433 . S
C336 C337 1.363 . S
C336 C341 1.370 . S
C337 H310 0.929 . S
C337 C336 1.363 . S
C337 C338 1.385 . S
C338 H312 0.930 . S
C338 C337 1.385 . S
C338 C339 1.357 . S
C339 C338 1.357 . S
C339 C340 1.406 . S
C340 H314 0.929 . S
C340 C339 1.406 . S
C340 C341 1.391 . S
C341 H313 0.931 . S
C341 C336 1.370 . S
C341 C340 1.391 . S
C342 N311 1.435 . S
C342 C343 1.358 . S
C342 C347 1.371 . S
C343 H315 0.930 . S
C343 C342 1.358 . S
C343 C344 1.405 . S
C344 H316 0.932 . S
C344 C343 1.405 . S
C344 C345 1.383 . S
C345 C344 1.383 . S
C345 C346 1.393 . S
C346 H318 0.931 . S
C346 C345 1.393 . S
C346 C347 1.382 . S
C347 H317 0.929 . S
C347 C342 1.371 . S
C347 C346 1.382 . S
C348 N311 1.423 . S
C348 C349 1.362 . S
C348 C353 1.388 . S
C349 H319 0.929 . S
C349 C348 1.362 . S
C349 C350 1.376 . S
C350 H321 0.931 . S
C350 C349 1.376 . S
C350 C351 1.396 . S
C351 C350 1.396 . S
C351 C352 1.348 . S
C351 C369 1.472 . S
C352 H322 0.929 . S
C352 C351 1.348 . S
C352 C353 1.443 . S
C353 H320 0.932 . S
C353 C348 1.388 . S
C353 C352 1.443 . S
C354 N334 1.433 . S
C354 C355 1.363 . S
C354 C359 1.370 . S
C355 H323 0.929 . S
C355 C354 1.363 . S
C355 C356 1.385 . S
C356 H324 0.930 . S
C356 C355 1.385 . S
C356 C357 1.357 . S
C357 C356 1.357 . S
C357 C358 1.406 . S
C358 H325 0.929 . S
C358 C357 1.406 . S
C358 C359 1.391 . S
C359 H326 0.931 . S
C359 C354 1.370 . S
C359 C358 1.391 . S
C360 N334 1.435 . S
C360 C361 1.358 . S
C360 C365 1.371 . S
C361 H327 0.930 . S
C361 C360 1.358 . S
C361 C362 1.405 . S
C362 H328 0.932 . S
C362 C361 1.405 . S
C362 C363 1.383 . S
C363 C362 1.383 . S
C363 C364 1.393 . S
C364 H329 0.931 . S
C364 C363 1.393 . S
C364 C365 1.382 . S
C365 H330 0.929 . S
C365 C360 1.371 . S
C365 C364 1.382 . S
C366 N334 1.423 . S
C366 C367 1.362 . S
C366 C371 1.388 . S
C367 H331 0.929 . S
C367 C366 1.362 . S
C367 C368 1.376 . S
C368 H332 0.931 . S
C368 C367 1.376 . S
C368 C369 1.396 . S
C369 C351 1.472 . S
C369 C368 1.396 . S
C369 C370 1.348 . S
C370 H333 0.929 . S
C370 C369 1.348 . S
C370 C371 1.443 . S
C371 H335 0.932 . S
C371 C366 1.388 . S
C371 C370 1.443 . S
H372 C399 0.929 . S
N373 C398 1.433 . S
N373 C404 1.435 . S
N373 C410 1.423 . S
H374 C400 0.930 . S
H375 C403 0.931 . S
H376 C402 0.929 . S
H377 C405 0.930 . S
H378 C406 0.932 . S
H379 C409 0.929 . S
H380 C408 0.931 . S
H381 C411 0.922 1_545 S
H382 C415 0.932 . S
H383 C412 0.931 . S
H384 C414 0.929 . S
H385 C417 0.929 . S
H386 C418 0.930 . S
H387 C420 0.929 . S
H388 C421 0.931 . S
H389 C423 0.930 . S
H390 C424 0.932 . S
H391 C426 0.931 . S
H392 C427 0.929 . S
H393 C429 0.929 . S
H394 C430 0.931 . S
H395 C432 0.929 . S
N396 C416 1.433 . S
N396 C422 1.435 . S
N396 C428 1.423 . S
H397 C433 0.932 . S
C398 N373 1.433 . S
C398 C399 1.363 . S
C398 C403 1.370 . S
C399 H372 0.929 . S
C399 C398 1.363 . S
C399 C400 1.385 . S
C400 H374 0.930 . S
C400 C399 1.385 . S
C400 C401 1.357 . S
C401 C400 1.357 . S
C401 C402 1.406 . S
C402 H376 0.929 . S
C402 C401 1.406 . S
C402 C403 1.391 . S
C403 H375 0.931 . S
C403 C398 1.370 . S
C403 C402 1.391 . S
C404 N373 1.435 . S
C404 C405 1.358 . S
C404 C409 1.371 . S
C405 H377 0.930 . S
C405 C404 1.358 . S
C405 C406 1.405 . S
C406 H378 0.932 . S
C406 C405 1.405 . S
C406 C407 1.383 . S
C407 C406 1.383 . S
C407 C408 1.393 . S
C408 H380 0.931 . S
C408 C407 1.393 . S
C408 C409 1.382 . S
C409 H379 0.929 . S
C409 C404 1.371 . S
C409 C408 1.382 . S
C410 N373 1.423 . S
C410 C411 1.398 . S
C410 C415 1.388 . S
C411 H381 0.922 1_565 S
C411 C410 1.398 . S
C411 C412 1.347 1_565 S
C412 H383 0.931 . S
C412 C411 1.347 1_545 S
C412 C413 1.396 . S
C413 C412 1.396 . S
C413 C414 1.348 1_545 S
C413 C431 1.472 . S
C414 H384 0.929 . S
C414 C413 1.348 1_565 S
C414 C415 1.443 . S
C415 H382 0.932 . S
C415 C410 1.388 . S
C415 C414 1.443 . S
C416 N396 1.433 . S
C416 C417 1.363 . S
C416 C421 1.370 . S
C417 H385 0.929 . S
C417 C416 1.363 . S
C417 C418 1.385 . S
C418 H386 0.930 . S
C418 C417 1.385 . S
C418 C419 1.357 . S
C419 C418 1.357 . S
C419 C420 1.406 . S
C420 H387 0.929 . S
C420 C419 1.406 . S
C420 C421 1.391 . S
C421 H388 0.931 . S
C421 C416 1.370 . S
C421 C420 1.391 . S
C422 N396 1.435 . S
C422 C423 1.358 . S
C422 C427 1.371 . S
C423 H389 0.930 . S
C423 C422 1.358 . S
C423 C424 1.405 . S
C424 H390 0.932 . S
C424 C423 1.405 . S
C424 C425 1.383 . S
C425 C424 1.383 . S
C425 C426 1.393 . S
C426 H391 0.931 . S
C426 C425 1.393 . S
C426 C427 1.382 . S
C427 H392 0.929 . S
C427 C422 1.371 . S
C427 C426 1.382 . S
C428 N396 1.423 . S
C428 C429 1.362 . S
C428 C433 1.388 . S
C429 H393 0.929 . S
C429 C428 1.362 . S
C429 C430 1.376 . S
C430 H394 0.931 . S
C430 C429 1.376 . S
C430 C431 1.396 . S
C431 C413 1.472 . S
C431 C430 1.396 . S
C431 C432 1.348 . S
C432 H395 0.929 . S
C432 C431 1.348 . S
C432 C433 1.443 . S
C433 H397 0.932 . S
C433 C428 1.388 . S
C433 C432 1.443 . S
H434 C461 0.929 . S
N435 C460 1.433 . S
N435 C466 1.435 . S
N435 C472 1.423 . S
H436 C462 0.930 . S
H437 C465 0.931 . S
H438 C464 0.929 . S
H439 C467 0.930 . S
H440 C468 0.932 . S
H441 C471 0.929 . S
H442 C470 0.931 . S
H443 C473 0.929 . S
H444 C477 0.932 . S
H445 C474 0.931 . S
H446 C476 0.902 1_545 S
H447 C479 0.929 . S
H448 C480 0.930 . S
H449 C482 0.929 . S
H450 C483 0.931 . S
H451 C485 0.930 . S
H452 C486 0.932 . S
H453 C488 0.931 . S
H454 C489 0.929 . S
H455 C491 0.929 . S
H456 C492 0.931 . S
H457 C494 0.929 . S
N458 C478 1.433 . S
N458 C484 1.435 . S
N458 C490 1.423 . S
H459 C495 0.932 . S
C460 N435 1.433 . S
C460 C461 1.363 . S
C460 C465 1.370 . S
C461 H434 0.929 . S
C461 C460 1.363 . S
C461 C462 1.385 . S
C462 H436 0.930 . S
C462 C461 1.385 . S
C462 C463 1.357 . S
C463 C462 1.357 . S
C463 C464 1.406 . S
C464 H438 0.929 . S
C464 C463 1.406 . S
C464 C465 1.391 . S
C465 H437 0.931 . S
C465 C460 1.370 . S
C465 C464 1.391 . S
C466 N435 1.435 . S
C466 C467 1.358 . S
C466 C471 1.371 . S
C467 H439 0.930 . S
C467 C466 1.358 . S
C467 C468 1.405 . S
C468 H440 0.932 . S
C468 C467 1.405 . S
C468 C469 1.383 . S
C469 C468 1.383 . S
C469 C470 1.393 . S
C470 H442 0.931 . S
C470 C469 1.393 . S
C470 C471 1.382 . S
C471 H441 0.929 . S
C471 C466 1.371 . S
C471 C470 1.382 . S
C472 N435 1.423 . S
C472 C473 1.362 . S
C472 C477 1.388 . S
C473 H443 0.929 . S
C473 C472 1.362 . S
C473 C474 1.376 1_455 S
C474 H445 0.931 . S
C474 C473 1.376 1_655 S
C474 C475 1.394 1_655 S
C475 C474 1.394 1_455 S
C475 C476 1.365 . S
C475 C493 1.459 1_465 S
C476 H446 0.902 1_565 S
C476 C475 1.365 . S
C476 C477 1.443 . S
C477 H444 0.932 . S
C477 C472 1.388 . S
C477 C476 1.443 . S
C478 N458 1.433 . S
C478 C479 1.363 . S
C478 C483 1.370 . S
C479 H447 0.929 . S
C479 C478 1.363 . S
C479 C480 1.385 . S
C480 H448 0.930 . S
C480 C479 1.385 . S
C480 C481 1.357 . S
C481 C480 1.357 . S
C481 C482 1.406 . S
C482 H449 0.929 . S
C482 C481 1.406 . S
C482 C483 1.391 . S
C483 H450 0.931 . S
C483 C478 1.370 . S
C483 C482 1.391 . S
C484 N458 1.435 . S
C484 C485 1.358 . S
C484 C489 1.371 . S
C485 H451 0.930 . S
C485 C484 1.358 . S
C485 C486 1.405 . S
C486 H452 0.932 . S
C486 C485 1.405 . S
C486 C487 1.383 . S
C487 C486 1.383 . S
C487 C488 1.393 . S
C488 H453 0.931 . S
C488 C487 1.393 . S
C488 C489 1.382 . S
C489 H454 0.929 . S
C489 C484 1.371 . S
C489 C488 1.382 . S
C490 N458 1.423 . S
C490 C491 1.362 . S
C490 C495 1.388 . S
C491 H455 0.929 . S
C491 C490 1.362 . S
C491 C492 1.376 . S
C492 H456 0.931 . S
C492 C491 1.376 . S
C492 C493 1.396 . S
C493 C475 1.459 1_645 S
C493 C492 1.396 . S
C493 C494 1.348 . S
C494 H457 0.929 . S
C494 C493 1.348 . S
C494 C495 1.443 . S
C495 H459 0.932 . S
C495 C490 1.388 . S
C495 C494 1.443 . S
Co496 O497 2.216 . S
Co496 O498 2.091 . S
Co496 O500 2.004 . S
Co496 O506 2.021 1_554 S
Co496 O508 2.137 . S
Co496 O509 2.244 . S
O497 Co496 2.216 . S
O497 C504 1.248 . S
O498 Co496 2.091 . S
O498 C504 1.262 . S
C499 O508 1.247 . S
C499 O509 1.272 . S
O500 Co496 2.004 . S
O500 C505 1.259 . S
Co501 O502 2.061 . S
Co501 O507 2.052 1_554 S
Co501 O509 2.135 . S
O502 Co501 2.061 . S
O502 C505 1.235 . S
C503 O506 1.238 . S
C503 O507 1.241 . S
C504 O497 1.248 . S
C504 O498 1.262 . S
C505 O500 1.259 . S
C505 O502 1.235 . S
O506 Co496 2.021 1_556 S
O506 C503 1.238 . S
O507 Co501 2.052 1_556 S
O507 C503 1.241 . S
O508 Co496 2.137 . S
O508 C499 1.247 . S
O509 Co496 2.244 . S
O509 C499 1.272 . S
O509 Co501 2.135 . S
Co510 O511 2.216 . S
Co510 O512 2.091 . S
Co510 O514 2.004 . S
Co510 O520 2.021 . S
Co510 O522 2.137 . S
Co510 O523 2.244 . S
O511 Co510 2.216 . S
O511 C518 1.247 . S
O512 Co510 2.091 . S
O512 C518 1.261 . S
C513 O522 1.247 . S
C513 O523 1.272 . S
O514 Co510 2.004 . S
O514 C519 1.259 . S
Co515 O516 2.061 . S
Co515 O521 2.052 . S
Co515 O523 2.135 . S
O516 Co515 2.061 . S
O516 C519 1.235 . S
C517 O520 1.238 . S
C517 O521 1.241 . S
C518 O511 1.247 . S
C518 O512 1.261 . S
C519 O514 1.259 . S
C519 O516 1.235 . S
O520 Co510 2.021 . S
O520 C517 1.238 . S
O521 Co515 2.052 . S
O521 C517 1.241 . S
O522 Co510 2.137 . S
O522 C513 1.247 . S
O523 Co510 2.244 . S
O523 C513 1.272 . S
O523 Co515 2.135 . S
Co524 O525 2.216 . S
Co524 O526 2.091 . S
Co524 O528 2.004 . S
Co524 O534 2.021 . S
Co524 O536 2.137 . S
Co524 O537 2.244 . S
O525 Co524 2.216 . S
O525 C532 1.247 . S
O526 Co524 2.091 . S
O526 C532 1.261 . S
C527 O536 1.247 . S
C527 O537 1.272 . S
O528 Co524 2.004 . S
O528 C533 1.259 . S
Co529 O530 2.061 . S
Co529 O535 2.052 . S
Co529 O537 2.135 . S
O530 Co529 2.061 . S
O530 C533 1.235 . S
C531 O534 1.238 . S
C531 O535 1.241 . S
C532 O525 1.247 . S
C532 O526 1.261 . S
C533 O528 1.259 . S
C533 O530 1.235 . S
O534 Co524 2.021 . S
O534 C531 1.238 . S
O535 Co529 2.052 . S
O535 C531 1.241 . S
O536 Co524 2.137 . S
O536 C527 1.247 . S
O537 Co524 2.244 . S
O537 C527 1.272 . S
O537 Co529 2.135 . S
Co538 O539 2.216 . S
Co538 O540 2.091 . S
Co538 O542 2.004 . S
Co538 O548 2.021 . S
Co538 O550 2.137 . S
Co538 O551 2.244 . S
O539 Co538 2.216 . S
O539 C546 1.247 . S
O540 Co538 2.091 . S
O540 C546 1.261 . S
C541 O550 1.247 . S
C541 O551 1.272 . S
O542 Co538 2.004 . S
O542 C547 1.259 . S
Co543 O544 2.061 . S
Co543 O549 2.052 . S
Co543 O551 2.135 . S
O544 Co543 2.061 . S
O544 C547 1.235 . S
C545 O548 1.238 . S
C545 O549 1.241 . S
C546 O539 1.247 . S
C546 O540 1.261 . S
C547 O542 1.259 . S
C547 O544 1.235 . S
O548 Co538 2.021 . S
O548 C545 1.238 . S
O549 Co543 2.052 . S
O549 C545 1.241 . S
O550 Co538 2.137 . S
O550 C541 1.247 . S
O551 Co538 2.244 . S
O551 C541 1.272 . S
O551 Co543 2.135 . S
Co552 O553 2.216 . S
Co552 O554 2.091 . S
Co552 O556 2.004 . S
Co552 O562 2.021 . S
Co552 O564 2.137 . S
Co552 O565 2.244 . S
O553 Co552 2.216 . S
O553 C560 1.247 . S
O554 Co552 2.091 . S
O554 C560 1.261 . S
C555 O564 1.247 . S
C555 O565 1.272 . S
O556 Co552 2.004 . S
O556 C561 1.259 . S
Co557 O558 2.061 . S
Co557 O563 2.052 . S
Co557 O565 2.135 . S
O558 Co557 2.061 . S
O558 C561 1.235 . S
C559 O562 1.238 . S
C559 O563 1.241 . S
C560 O553 1.247 . S
C560 O554 1.261 . S
C561 O556 1.259 . S
C561 O558 1.235 . S
O562 Co552 2.021 . S
O562 C559 1.238 . S
O563 Co557 2.052 . S
O563 C559 1.241 . S
O564 Co552 2.137 . S
O564 C555 1.247 . S
O565 Co552 2.244 . S
O565 C555 1.272 . S
O565 Co557 2.135 . S
Co566 O567 2.216 . S
Co566 O568 2.091 . S
Co566 O570 2.004 . S
Co566 O576 2.021 . S
Co566 O578 2.137 . S
Co566 O579 2.244 . S
O567 Co566 2.216 . S
O567 C574 1.247 . S
O568 Co566 2.091 . S
O568 C574 1.261 . S
C569 O578 1.247 . S
C569 O579 1.272 . S
O570 Co566 2.004 . S
O570 C575 1.259 . S
Co571 O572 2.061 . S
Co571 O577 2.052 . S
Co571 O579 2.135 . S
O572 Co571 2.061 . S
O572 C575 1.235 . S
C573 O576 1.238 . S
C573 O577 1.241 . S
C574 O567 1.247 . S
C574 O568 1.261 . S
C575 O570 1.259 . S
C575 O572 1.235 . S
O576 Co566 2.021 . S
O576 C573 1.238 . S
O577 Co571 2.052 . S
O577 C573 1.241 . S
O578 Co566 2.137 . S
O578 C569 1.247 . S
O579 Co566 2.244 . S
O579 C569 1.272 . S
O579 Co571 2.135 . S
Co580 O581 2.211 1_556 S
Co580 O582 2.086 1_556 S
Co580 O584 2.009 . S
Co580 O590 1.995 1_556 S
Co580 O592 2.164 . S
Co580 O593 2.257 . S
O581 Co580 2.211 1_554 S
O581 C588 1.247 . S
O582 Co580 2.086 1_554 S
O582 C588 1.261 . S
C583 O592 1.247 . S
C583 O593 1.272 . S
O584 Co580 2.009 . S
O584 C589 1.259 . S
Co585 O586 2.061 . S
Co585 O591 2.052 1_556 S
Co585 O593 2.135 . S
O586 Co585 2.061 . S
O586 C589 1.235 . S
C587 O590 1.238 . S
C587 O591 1.241 . S
C588 O581 1.247 . S
C588 O582 1.261 . S
C589 O584 1.259 . S
C589 O586 1.235 . S
O590 Co580 1.995 1_554 S
O590 C587 1.238 . S
O591 Co585 2.052 1_554 S
O591 C587 1.241 . S
O592 Co580 2.164 . S
O592 C583 1.247 . S
O593 Co580 2.257 . S
O593 C583 1.272 . S
O593 Co585 2.135 . S
Co594 O595 2.216 . S
Co594 O596 2.091 . S
Co594 O598 2.004 . S
Co594 O604 2.021 . S
Co594 O606 2.137 . S
Co594 O607 2.244 . S
O595 Co594 2.216 . S
O595 C602 1.247 . S
O596 Co594 2.091 . S
O596 C602 1.261 . S
C597 O606 1.247 . S
C597 O607 1.272 . S
O598 Co594 2.004 . S
O598 C603 1.259 . S
Co599 O600 2.061 . S
Co599 O605 2.052 . S
Co599 O607 2.135 . S
O600 Co599 2.061 . S
O600 C603 1.235 . S
C601 O604 1.238 . S
C601 O605 1.241 . S
C602 O595 1.247 . S
C602 O596 1.261 . S
C603 O598 1.259 . S
C603 O600 1.235 . S
O604 Co594 2.021 . S
O604 C601 1.238 . S
O605 Co599 2.052 . S
O605 C601 1.241 . S
O606 Co594 2.137 . S
O606 C597 1.247 . S
O607 Co594 2.244 . S
O607 C597 1.272 . S
O607 Co599 2.135 . S
H608 C616 0.929 . S
H609 C618 0.930 . S
H610 C620 0.930 . S
H611 C623 0.929 . S
H612 C626 0.930 . S
H613 C628 0.960 . S
H614 C628 0.960 . S
H615 C628 0.960 . S
C616 H608 0.929 . S
C616 C617 1.377 . S
C616 C618 1.384 . S
C617 C616 1.377 . S
C617 C623 1.390 . S
C618 H609 0.930 . S
C618 C616 1.384 . S
C618 C619 1.372 . S
C619 C618 1.372 . S
C619 C620 1.400 . S
C619 C624 1.490 . S
C620 H610 0.930 . S
C620 C619 1.400 . S
C620 C623 1.386 . S
H621 C637 0.930 . S
H622 C638 0.931 . S
C623 H611 0.929 . S
C623 C617 1.390 . S
C623 C620 1.386 . S
C624 C619 1.490 . S
C624 C626 1.395 . S
C624 C627 1.403 . S
H625 C631 0.930 . S
C626 H612 0.930 . S
C626 C624 1.395 . S
C626 C629 1.403 . S
C627 C624 1.403 . S
C627 C628 1.524 . S
C627 C631 1.400 . S
C628 H613 0.960 . S
C628 H614 0.960 . S
C628 H615 0.960 . S
C628 C627 1.524 . S
C629 C626 1.403 . S
C629 C630 1.392 . S
C629 C633 1.495 . S
C630 C629 1.392 . S
C630 C631 1.385 . S
C630 C632 1.478 . S
C631 H625 0.930 . S
C631 C627 1.400 . S
C631 C630 1.385 . S
C632 C630 1.478 . S
C632 C634 1.381 . S
C632 C638 1.383 . S
C633 C629 1.495 . S
C633 H639 0.959 . S
C633 H640 0.961 . S
C633 H641 0.960 . S
C634 C632 1.381 . S
C634 C635 1.394 . S
C634 H642 0.930 . S
C635 C634 1.394 . S
C635 C636 1.383 . S
C635 H643 0.929 . S
C636 C635 1.383 . S
C636 C637 1.377 . S
C637 H621 0.930 . S
C637 C636 1.377 . S
C637 C638 1.379 . S
C638 H622 0.931 . S
C638 C632 1.383 . S
C638 C637 1.379 . S
H639 C633 0.959 . S
H640 C633 0.961 . S
H641 C633 0.960 . S
H642 C634 0.930 . S
H643 C635 0.929 . S
H644 C652 0.929 . S
H645 C654 0.930 . S
H646 C656 0.930 . S
H647 C659 0.929 . S
H648 C662 0.930 . S
H649 C664 0.960 . S
H650 C664 0.960 . S
H651 C664 0.960 . S
C652 H644 0.929 . S
C652 C653 1.377 . S
C652 C654 1.384 . S
C653 C652 1.377 . S
C653 C659 1.390 . S
C654 H645 0.930 . S
C654 C652 1.384 . S
C654 C655 1.372 . S
C655 C654 1.372 . S
C655 C656 1.400 . S
C655 C660 1.490 . S
C656 H646 0.930 . S
C656 C655 1.400 . S
C656 C659 1.386 . S
H657 C673 0.930 . S
H658 C674 0.931 . S
C659 H647 0.929 . S
C659 C653 1.390 . S
C659 C656 1.386 . S
C660 C655 1.490 . S
C660 C662 1.395 . S
C660 C663 1.403 . S
H661 C667 0.930 . S
C662 H648 0.930 . S
C662 C660 1.395 . S
C662 C665 1.403 . S
C663 C660 1.403 . S
C663 C664 1.524 . S
C663 C667 1.400 . S
C664 H649 0.960 . S
C664 H650 0.960 . S
C664 H651 0.960 . S
C664 C663 1.524 . S
C665 C662 1.403 . S
C665 C666 1.392 . S
C665 C669 1.495 . S
C666 C665 1.392 . S
C666 C667 1.385 . S
C666 C668 1.478 . S
C667 H661 0.930 . S
C667 C663 1.400 . S
C667 C666 1.385 . S
C668 C666 1.478 . S
C668 C670 1.381 . S
C668 C674 1.383 . S
C669 C665 1.495 . S
C669 H675 0.959 . S
C669 H676 0.961 . S
C669 H677 0.960 . S
C670 C668 1.381 . S
C670 C671 1.394 . S
C670 H678 0.930 . S
C671 C670 1.394 . S
C671 C672 1.383 . S
C671 H679 0.929 . S
C672 C671 1.383 . S
C672 C673 1.377 . S
C673 H657 0.930 . S
C673 C672 1.377 . S
C673 C674 1.379 . S
C674 H658 0.931 . S
C674 C668 1.383 . S
C674 C673 1.379 . S
H675 C669 0.959 . S
H676 C669 0.961 . S
H677 C669 0.960 . S
H678 C670 0.930 . S
H679 C671 0.929 . S
H680 C688 0.929 . S
H681 C690 0.930 . S
H682 C692 0.930 . S
H683 C695 0.929 . S
H684 C698 0.930 . S
H685 C700 0.960 . S
H686 C700 0.960 . S
H687 C700 0.960 . S
C688 H680 0.929 . S
C688 C689 1.377 . S
C688 C690 1.384 . S
C689 C688 1.377 . S
C689 C695 1.390 . S
C690 H681 0.930 . S
C690 C688 1.384 . S
C690 C691 1.372 . S
C691 C690 1.372 . S
C691 C692 1.400 . S
C691 C696 1.490 . S
C692 H682 0.930 . S
C692 C691 1.400 . S
C692 C695 1.386 . S
H693 C709 0.930 . S
H694 C710 0.931 . S
C695 H683 0.929 . S
C695 C689 1.390 . S
C695 C692 1.386 . S
C696 C691 1.490 . S
C696 C698 1.395 . S
C696 C699 1.403 . S
H697 C703 0.930 . S
C698 H684 0.930 . S
C698 C696 1.395 . S
C698 C701 1.403 . S
C699 C696 1.403 . S
C699 C700 1.524 . S
C699 C703 1.400 . S
C700 H685 0.960 . S
C700 H686 0.960 . S
C700 H687 0.960 . S
C700 C699 1.524 . S
C701 C698 1.403 . S
C701 C702 1.392 . S
C701 C705 1.495 . S
C702 C701 1.392 . S
C702 C703 1.385 . S
C702 C704 1.478 . S
C703 H697 0.930 . S
C703 C699 1.400 . S
C703 C702 1.385 . S
C704 C702 1.478 . S
C704 C706 1.381 . S
C704 C710 1.383 . S
C705 C701 1.495 . S
C705 H711 0.959 . S
C705 H712 0.961 . S
C705 H713 0.960 . S
C706 C704 1.381 . S
C706 C707 1.394 . S
C706 H714 0.930 . S
C707 C706 1.394 . S
C707 C708 1.383 . S
C707 H715 0.929 . S
C708 C707 1.383 . S
C708 C709 1.377 . S
C709 H693 0.930 . S
C709 C708 1.377 . S
C709 C710 1.379 . S
C710 H694 0.931 . S
C710 C704 1.383 . S
C710 C709 1.379 . S
H711 C705 0.959 . S
H712 C705 0.961 . S
H713 C705 0.960 . S
H714 C706 0.930 . S
H715 C707 0.929 . S
H716 C724 0.929 . S
H717 C726 0.930 . S
H718 C728 0.978 . S
H719 C731 0.929 . S
H720 C734 0.930 . S
H721 C736 0.960 . S
H722 C736 0.960 . S
H723 C736 0.960 . S
C724 H716 0.929 . S
C724 C725 1.377 . S
C724 C726 1.384 . S
C725 C724 1.377 . S
C725 C731 1.390 . S
C726 H717 0.930 . S
C726 C724 1.384 . S
C726 C727 1.372 . S
C727 C726 1.372 . S
C727 C728 1.400 . S
C727 C732 1.490 . S
C728 H718 0.978 . S
C728 C727 1.400 . S
C728 C731 1.386 . S
H729 C745 0.930 1_556 S
H730 C746 0.931 1_556 S
C731 H719 0.929 . S
C731 C725 1.390 . S
C731 C728 1.386 . S
C732 C727 1.490 . S
C732 C734 1.395 . S
C732 C735 1.403 . S
H733 C739 0.930 1_556 S
C734 H720 0.930 . S
C734 C732 1.395 . S
C734 C737 1.403 . S
C735 C732 1.403 . S
C735 C736 1.524 1_554 S
C735 C739 1.400 . S
C736 H721 0.960 . S
C736 H722 0.960 . S
C736 H723 0.960 . S
C736 C735 1.524 1_556 S
C737 C734 1.403 . S
C737 C738 1.392 . S
C737 C741 1.495 . S
C738 C737 1.392 . S
C738 C739 1.385 . S
C738 C740 1.478 . S
C739 H733 0.930 1_554 S
C739 C735 1.400 . S
C739 C738 1.385 . S
C740 C738 1.478 . S
C740 C742 1.381 . S
C740 C746 1.383 . S
C741 C737 1.495 . S
C741 H747 0.959 . S
C741 H748 0.961 . S
C741 H749 0.960 . S
C742 C740 1.381 . S
C742 C743 1.394 . S
C742 H750 0.930 . S
C743 C742 1.394 . S
C743 C744 1.383 . S
C743 H751 0.929 . S
C744 C743 1.383 . S
C744 C745 1.377 . S
C745 H729 0.930 1_554 S
C745 C744 1.377 . S
C745 C746 1.379 . S
C746 H730 0.931 1_554 S
C746 C740 1.383 . S
C746 C745 1.379 . S
H747 C741 0.959 . S
H748 C741 0.961 . S
H749 C741 0.960 . S
H750 C742 0.930 . S
H751 C743 0.929 . S
H752 C760 0.929 . S
H753 C762 0.930 . S
H754 C764 0.930 1_554 S
H755 C767 0.929 1_554 S
H756 C770 0.930 . S
H757 C772 0.960 . S
H758 C772 0.960 . S
H759 C772 0.960 . S
C760 H752 0.929 . S
C760 C761 1.377 . S
C760 C762 1.384 . S
C761 C760 1.377 . S
C761 C767 1.390 . S
C762 H753 0.930 . S
C762 C760 1.384 . S
C762 C763 1.372 . S
C763 C762 1.372 . S
C763 C764 1.400 . S
C763 C768 1.490 . S
C764 H754 0.930 1_556 S
C764 C763 1.400 . S
C764 C767 1.386 . S
H765 C781 0.930 . S
H766 C782 0.931 . S
C767 H755 0.929 1_556 S
C767 C761 1.390 . S
C767 C764 1.386 . S
C768 C763 1.490 . S
C768 C770 1.395 . S
C768 C771 1.403 . S
H769 C775 0.930 . S
C770 H756 0.930 . S
C770 C768 1.395 . S
C770 C773 1.403 . S
C771 C768 1.403 . S
C771 C772 1.524 . S
C771 C775 1.400 . S
C772 H757 0.960 . S
C772 H758 0.960 . S
C772 H759 0.960 . S
C772 C771 1.524 . S
C773 C770 1.403 . S
C773 C774 1.392 . S
C773 C777 1.495 . S
C774 C773 1.392 . S
C774 C775 1.385 . S
C774 C776 1.478 . S
C775 H769 0.930 . S
C775 C771 1.400 . S
C775 C774 1.385 . S
C776 C774 1.478 . S
C776 C778 1.381 . S
C776 C782 1.383 1_556 S
C777 C773 1.495 . S
C777 H783 0.959 . S
C777 H784 0.961 . S
C777 H785 0.960 . S
C778 C776 1.381 . S
C778 C779 1.394 . S
C778 H786 0.930 . S
C779 C778 1.394 . S
C779 C780 1.383 . S
C779 H787 0.929 . S
C780 C779 1.383 . S
C780 C781 1.377 1_556 S
C781 H765 0.930 . S
C781 C780 1.377 1_554 S
C781 C782 1.379 . S
C782 H766 0.931 . S
C782 C776 1.383 1_554 S
C782 C781 1.379 . S
H783 C777 0.959 . S
H784 C777 0.961 . S
H785 C777 0.960 . S
H786 C778 0.930 . S
H787 C779 0.929 . S
H788 C796 0.929 . S
H789 C798 0.930 . S
H790 C800 0.930 . S
H791 C803 0.929 . S
H792 C806 0.930 . S
H793 C808 0.960 . S
H794 C808 0.960 . S
H795 C808 0.960 . S
C796 H788 0.929 . S
C796 C797 1.377 . S
C796 C798 1.384 . S
C797 C796 1.377 . S
C797 C803 1.390 . S
C798 H789 0.930 . S
C798 C796 1.384 . S
C798 C799 1.372 . S
C799 C798 1.372 . S
C799 C800 1.400 . S
C799 C804 1.490 . S
C800 H790 0.930 . S
C800 C799 1.400 . S
C800 C803 1.386 . S
H801 C817 0.930 . S
H802 C818 0.931 . S
C803 H791 0.929 . S
C803 C797 1.390 . S
C803 C800 1.386 . S
C804 C799 1.490 . S
C804 C806 1.395 . S
C804 C807 1.403 . S
H805 C811 0.930 . S
C806 H792 0.930 . S
C806 C804 1.395 . S
C806 C809 1.403 . S
C807 C804 1.403 . S
C807 C808 1.524 . S
C807 C811 1.400 . S
C808 H793 0.960 . S
C808 H794 0.960 . S
C808 H795 0.960 . S
C808 C807 1.524 . S
C809 C806 1.403 . S
C809 C810 1.392 . S
C809 C813 1.495 . S
C810 C809 1.392 . S
C810 C811 1.385 . S
C810 C812 1.478 . S
C811 H805 0.930 . S
C811 C807 1.400 . S
C811 C810 1.385 . S
C812 C810 1.478 . S
C812 C814 1.381 . S
C812 C818 1.383 . S
C813 C809 1.495 . S
C813 H819 0.959 . S
C813 H820 0.961 . S
C813 H821 0.960 . S
C814 C812 1.381 . S
C814 C815 1.394 . S
C814 H822 0.930 . S
C815 C814 1.394 . S
C815 C816 1.383 . S
C815 H823 0.929 . S
C816 C815 1.383 . S
C816 C817 1.377 . S
C817 H801 0.930 . S
C817 C816 1.377 . S
C817 C818 1.379 . S
C818 H802 0.931 . S
C818 C812 1.383 . S
C818 C817 1.379 . S
H819 C813 0.959 . S
H820 C813 0.961 . S
H821 C813 0.960 . S
H822 C814 0.930 . S
H823 C815 0.929 . S
H824 C832 0.929 . S
H825 C834 0.930 . S
H826 C836 0.930 . S
H827 C839 0.929 . S
H828 C842 0.930 . S
H829 C844 0.960 . S
H830 C844 0.960 . S
H831 C844 0.960 . S
C832 H824 0.929 . S
C832 C833 1.377 . S
C832 C834 1.384 . S
C833 C832 1.377 . S
C833 C839 1.390 . S
C834 H825 0.930 . S
C834 C832 1.384 . S
C834 C835 1.372 . S
C835 C834 1.372 . S
C835 C836 1.400 . S
C835 C840 1.490 . S
C836 H826 0.930 . S
C836 C835 1.400 . S
C836 C839 1.386 . S
H837 C853 0.930 . S
H838 C854 0.931 . S
C839 H827 0.929 . S
C839 C833 1.390 . S
C839 C836 1.386 . S
C840 C835 1.490 . S
C840 C842 1.395 . S
C840 C843 1.403 . S
H841 C847 0.930 . S
C842 H828 0.930 . S
C842 C840 1.395 . S
C842 C845 1.403 . S
C843 C840 1.403 . S
C843 C844 1.524 . S
C843 C847 1.400 . S
C844 H829 0.960 . S
C844 H830 0.960 . S
C844 H831 0.960 . S
C844 C843 1.524 . S
C845 C842 1.403 . S
C845 C846 1.392 . S
C845 C849 1.495 . S
C846 C845 1.392 . S
C846 C847 1.385 . S
C846 C848 1.478 . S
C847 H841 0.930 . S
C847 C843 1.400 . S
C847 C846 1.385 . S
C848 C846 1.478 . S
C848 C850 1.381 . S
C848 C854 1.383 . S
C849 C845 1.495 . S
C849 H855 0.959 . S
C849 H856 0.961 . S
C849 H857 0.960 . S
C850 C848 1.381 . S
C850 C851 1.394 . S
C850 H858 0.930 . S
C851 C850 1.394 . S
C851 C852 1.383 . S
C851 H859 0.929 . S
C852 C851 1.383 . S
C852 C853 1.377 . S
C853 H837 0.930 . S
C853 C852 1.377 . S
C853 C854 1.379 . S
C854 H838 0.931 . S
C854 C848 1.383 . S
C854 C853 1.379 . S
H855 C849 0.959 . S
H856 C849 0.961 . S
H857 C849 0.960 . S
H858 C850 0.930 . S
H859 C851 0.929 . S
H860 C868 0.929 . S
H861 C870 0.930 . S
H862 C872 0.930 . S
H863 C875 0.929 . S
H864 C878 0.930 . S
H865 C880 0.960 . S
H866 C880 0.960 . S
H867 C880 0.960 . S
C868 H860 0.929 . S
C868 C869 1.377 . S
C868 C870 1.384 . S
C869 C868 1.377 . S
C869 C875 1.390 . S
C870 H861 0.930 . S
C870 C868 1.384 . S
C870 C871 1.372 . S
C871 C870 1.372 . S
C871 C872 1.400 . S
C871 C876 1.490 . S
C872 H862 0.930 . S
C872 C871 1.400 . S
C872 C875 1.386 . S
H873 C889 0.930 . S
H874 C890 0.931 . S
C875 H863 0.929 . S
C875 C869 1.390 . S
C875 C872 1.386 . S
C876 C871 1.490 . S
C876 C878 1.395 . S
C876 C879 1.403 . S
H877 C883 0.930 . S
C878 H864 0.930 . S
C878 C876 1.395 . S
C878 C881 1.403 . S
C879 C876 1.403 . S
C879 C880 1.524 . S
C879 C883 1.400 . S
C880 H865 0.960 . S
C880 H866 0.960 . S
C880 H867 0.960 . S
C880 C879 1.524 . S
C881 C878 1.403 . S
C881 C882 1.392 . S
C881 C885 1.495 . S
C882 C881 1.392 . S
C882 C883 1.385 . S
C882 C884 1.478 . S
C883 H877 0.930 . S
C883 C879 1.400 . S
C883 C882 1.385 . S
C884 C882 1.478 . S
C884 C886 1.381 . S
C884 C890 1.383 . S
C885 C881 1.495 . S
C885 H891 0.959 . S
C885 H892 0.961 . S
C885 H893 0.960 . S
C886 C884 1.381 . S
C886 C887 1.394 . S
C886 H894 0.930 . S
C887 C886 1.394 . S
C887 C888 1.383 . S
C887 H895 0.929 . S
C888 C887 1.383 . S
C888 C889 1.377 . S
C889 H873 0.930 . S
C889 C888 1.377 . S
C889 C890 1.379 . S
C890 H874 0.931 . S
C890 C884 1.383 . S
C890 C889 1.379 . S
H891 C885 0.959 . S
H892 C885 0.961 . S
H893 C885 0.960 . S
H894 C886 0.930 . S
H895 C887 0.929 . S
H896 C904 0.929 . S
H897 C906 0.930 . S
H898 C908 0.930 . S
H899 C911 0.929 . S
H900 C914 0.930 . S
H901 C916 0.960 . S
H902 C916 0.960 . S
H903 C916 0.960 . S
C904 H896 0.929 . S
C904 C905 1.377 . S
C904 C906 1.384 . S
C905 C904 1.377 . S
C905 C911 1.390 . S
C906 H897 0.930 . S
C906 C904 1.384 . S
C906 C907 1.372 . S
C907 C906 1.372 . S
C907 C908 1.400 . S
C907 C912 1.490 . S
C908 H898 0.930 . S
C908 C907 1.400 . S
C908 C911 1.386 . S
H909 C925 0.930 . S
H910 C926 0.931 . S
C911 H899 0.929 . S
C911 C905 1.390 . S
C911 C908 1.386 . S
C912 C907 1.490 . S
C912 C914 1.395 . S
C912 C915 1.403 . S
H913 C919 0.930 . S
C914 H900 0.930 . S
C914 C912 1.395 . S
C914 C917 1.403 . S
C915 C912 1.403 . S
C915 C916 1.524 . S
C915 C919 1.400 . S
C916 H901 0.960 . S
C916 H902 0.960 . S
C916 H903 0.960 . S
C916 C915 1.524 . S
C917 C914 1.403 . S
C917 C918 1.392 . S
C917 C921 1.495 . S
C918 C917 1.392 . S
C918 C919 1.385 . S
C918 C920 1.478 . S
C919 H913 0.930 . S
C919 C915 1.400 . S
C919 C918 1.385 . S
C920 C918 1.478 . S
C920 C922 1.381 . S
C920 C926 1.383 . S
C921 C917 1.495 . S
C921 H927 0.959 . S
C921 H928 0.961 . S
C921 H929 0.960 . S
C922 C920 1.381 . S
C922 C923 1.394 . S
C922 H930 0.930 . S
C923 C922 1.394 . S
C923 C924 1.383 . S
C923 H931 0.929 . S
C924 C923 1.383 . S
C924 C925 1.377 . S
C925 H909 0.930 . S
C925 C924 1.377 . S
C925 C926 1.379 . S
C926 H910 0.931 . S
C926 C920 1.383 . S
C926 C925 1.379 . S
H927 C921 0.959 . S
H928 C921 0.961 . S
H929 C921 0.960 . S
H930 C922 0.930 . S
H931 C923 0.929 . S
H932 C940 0.929 . S
H933 C942 0.930 1_556 S
H934 C944 0.930 . S
H935 C947 0.929 . S
H936 C950 0.930 . S
H937 C952 0.960 . S
H938 C952 0.960 . S
H939 C952 0.960 . S
C940 H932 0.929 . S
C940 C941 1.377 . S
C940 C942 1.384 . S
C941 C940 1.377 . S
C941 C947 1.390 . S
C942 H933 0.930 1_554 S
C942 C940 1.384 . S
C942 C943 1.372 . S
C943 C942 1.372 . S
C943 C944 1.400 . S
C943 C948 1.490 . S
C944 H934 0.930 . S
C944 C943 1.400 . S
C944 C947 1.386 . S
H945 C961 0.930 . S
H946 C962 0.931 . S
C947 H935 0.929 . S
C947 C941 1.390 . S
C947 C944 1.386 . S
C948 C943 1.490 . S
C948 C950 1.395 . S
C948 C951 1.403 . S
H949 C955 0.930 . S
C950 H936 0.930 . S
C950 C948 1.395 . S
C950 C953 1.403 . S
C951 C948 1.403 . S
C951 C952 1.524 . S
C951 C955 1.400 . S
C952 H937 0.960 . S
C952 H938 0.960 . S
C952 H939 0.960 . S
C952 C951 1.524 . S
C953 C950 1.403 . S
C953 C954 1.392 . S
C953 C957 1.495 . S
C954 C953 1.392 . S
C954 C955 1.385 . S
C954 C956 1.478 . S
C955 H949 0.930 . S
C955 C951 1.400 . S
C955 C954 1.385 . S
C956 C954 1.478 . S
C956 C958 1.381 1_554 S
C956 C962 1.383 . S
C957 C953 1.495 . S
C957 H963 0.959 . S
C957 H964 0.961 . S
C957 H965 0.960 . S
C958 C956 1.381 1_556 S
C958 C959 1.394 . S
C958 H966 0.930 . S
C959 C958 1.394 . S
C959 C960 1.383 1_556 S
C959 H967 0.929 . S
C960 C959 1.383 1_554 S
C960 C961 1.377 . S
C961 H945 0.930 . S
C961 C960 1.377 . S
C961 C962 1.379 . S
C962 H946 0.931 . S
C962 C956 1.383 . S
C962 C961 1.379 . S
H963 C957 0.959 . S
H964 C957 0.961 . S
H965 C957 0.960 . S
H966 C958 0.930 . S
H967 C959 0.929 . S
H968 C976 0.929 . S
H969 C978 0.930 . S
H970 C980 0.930 . S
H971 C983 0.929 . S
H972 C986 0.930 . S
H973 C988 0.960 . S
H974 C988 0.960 . S
H975 C988 0.960 . S
C976 H968 0.929 . S
C976 C977 1.377 . S
C976 C978 1.384 . S
C977 C976 1.377 . S
C977 C983 1.390 . S
C978 H969 0.930 . S
C978 C976 1.384 . S
C978 C979 1.372 . S
C979 C978 1.372 . S
C979 C980 1.400 . S
C979 C984 1.490 . S
C980 H970 0.930 . S
C980 C979 1.400 . S
C980 C983 1.386 . S
H981 C997 0.930 . S
H982 C998 0.931 . S
C983 H971 0.929 . S
C983 C977 1.390 . S
C983 C980 1.386 . S
C984 C979 1.490 . S
C984 C986 1.395 . S
C984 C987 1.403 . S
H985 C991 0.930 . S
C986 H972 0.930 . S
C986 C984 1.395 . S
C986 C989 1.403 . S
C987 C984 1.403 . S
C987 C988 1.524 . S
C987 C991 1.400 . S
C988 H973 0.960 . S
C988 H974 0.960 . S
C988 H975 0.960 . S
C988 C987 1.524 . S
C989 C986 1.403 . S
C989 C990 1.392 . S
C989 C993 1.495 . S
C990 C989 1.392 . S
C990 C991 1.385 . S
C990 C992 1.478 . S
C991 H985 0.930 . S
C991 C987 1.400 . S
C991 C990 1.385 . S
C992 C990 1.478 . S
C992 C994 1.381 . S
C992 C998 1.383 . S
C993 C989 1.495 . S
C993 H999 0.959 . S
C993 H1000 0.961 . S
C993 H1001 0.960 . S
C994 C992 1.381 . S
C994 C995 1.394 . S
C994 H1002 0.930 . S
C995 C994 1.394 . S
C995 C996 1.383 . S
C995 H1003 0.929 . S
C996 C995 1.383 . S
C996 C997 1.377 . S
C997 H981 0.930 . S
C997 C996 1.377 . S
C997 C998 1.379 . S
C998 H982 0.931 . S
C998 C992 1.383 . S
C998 C997 1.379 . S
H999 C993 0.959 . S
H1000 C993 0.961 . S
H1001 C993 0.960 . S
H1002 C994 0.930 . S
H1003 C995 0.929 . S
H1004 C1012 0.929 . S
H1005 C1014 0.930 . S
H1006 C1016 0.930 . S
H1007 C1019 0.929 . S
H1008 C1022 0.930 . S
H1009 C1024 0.960 . S
H1010 C1024 0.960 . S
H1011 C1024 0.960 . S
C1012 H1004 0.929 . S
C1012 C1013 1.377 . S
C1012 C1014 1.384 . S
C1013 C1012 1.377 . S
C1013 C1019 1.390 . S
C1014 H1005 0.930 . S
C1014 C1012 1.384 . S
C1014 C1015 1.372 . S
C1015 C1014 1.372 . S
C1015 C1016 1.400 . S
C1015 C1020 1.490 . S
C1016 H1006 0.930 . S
C1016 C1015 1.400 . S
C1016 C1019 1.386 . S
H1017 C1033 0.930 . S
H1018 C1034 0.931 . S
C1019 H1007 0.929 . S
C1019 C1013 1.390 . S
C1019 C1016 1.386 . S
C1020 C1015 1.490 . S
C1020 C1022 1.395 . S
C1020 C1023 1.403 . S
H1021 C1027 0.930 . S
C1022 H1008 0.930 . S
C1022 C1020 1.395 . S
C1022 C1025 1.403 . S
C1023 C1020 1.403 . S
C1023 C1024 1.524 . S
C1023 C1027 1.400 . S
C1024 H1009 0.960 . S
C1024 H1010 0.960 . S
C1024 H1011 0.960 . S
C1024 C1023 1.524 . S
C1025 C1022 1.403 . S
C1025 C1026 1.392 . S
C1025 C1029 1.495 . S
C1026 C1025 1.392 . S
C1026 C1027 1.385 . S
C1026 C1028 1.478 . S
C1027 H1021 0.930 . S
C1027 C1023 1.400 . S
C1027 C1026 1.385 . S
C1028 C1026 1.478 . S
C1028 C1030 1.381 . S
C1028 C1034 1.383 . S
C1029 C1025 1.495 . S
C1029 H1035 0.959 . S
C1029 H1036 0.961 . S
C1029 H1037 0.960 . S
C1030 C1028 1.381 . S
C1030 C1031 1.394 . S
C1030 H1038 0.930 . S
C1031 C1030 1.394 . S
C1031 C1032 1.383 . S
C1031 H1039 0.929 . S
C1032 C1031 1.383 . S
C1032 C1033 1.377 . S
C1033 H1017 0.930 . S
C1033 C1032 1.377 . S
C1033 C1034 1.379 . S
C1034 H1018 0.931 . S
C1034 C1028 1.383 . S
C1034 C1033 1.379 . S
H1035 C1029 0.959 . S
H1036 C1029 0.961 . S
H1037 C1029 0.960 . S
H1038 C1030 0.930 . S
H1039 C1031 0.929 . S
H1040 C1048 0.929 . S
H1041 C1050 0.930 . S
H1042 C1052 0.930 . S
H1043 C1055 0.929 . S
H1044 C1058 0.930 . S
H1045 C1060 0.960 . S
H1046 C1060 0.960 . S
H1047 C1060 0.960 . S
C1048 H1040 0.929 . S
C1048 C1049 1.377 . S
C1048 C1050 1.384 . S
C1049 C1048 1.377 . S
C1049 C1055 1.390 . S
C1050 H1041 0.930 . S
C1050 C1048 1.384 . S
C1050 C1051 1.372 . S
C1051 C1050 1.372 . S
C1051 C1052 1.400 . S
C1051 C1056 1.490 . S
C1052 H1042 0.930 . S
C1052 C1051 1.400 . S
C1052 C1055 1.386 . S
H1053 C1069 0.930 . S
H1054 C1070 0.931 . S
C1055 H1043 0.929 . S
C1055 C1049 1.390 . S
C1055 C1052 1.386 . S
C1056 C1051 1.490 . S
C1056 C1058 1.395 . S
C1056 C1059 1.403 . S
H1057 C1063 0.930 . S
C1058 H1044 0.930 . S
C1058 C1056 1.395 . S
C1058 C1061 1.403 . S
C1059 C1056 1.403 . S
C1059 C1060 1.524 . S
C1059 C1063 1.400 . S
C1060 H1045 0.960 . S
C1060 H1046 0.960 . S
C1060 H1047 0.960 . S
C1060 C1059 1.524 . S
C1061 C1058 1.403 . S
C1061 C1062 1.392 . S
C1061 C1065 1.495 . S
C1062 C1061 1.392 . S
C1062 C1063 1.385 . S
C1062 C1064 1.478 . S
C1063 H1057 0.930 . S
C1063 C1059 1.400 . S
C1063 C1062 1.385 . S
C1064 C1062 1.478 . S
C1064 C1066 1.381 . S
C1064 C1070 1.383 . S
C1065 C1061 1.495 . S
C1065 H1071 0.959 . S
C1065 H1072 0.961 . S
C1065 H1073 0.960 . S
C1066 C1064 1.381 . S
C1066 C1067 1.394 . S
C1066 H1074 0.930 . S
C1067 C1066 1.394 . S
C1067 C1068 1.383 . S
C1067 H1075 0.929 . S
C1068 C1067 1.383 . S
C1068 C1069 1.377 . S
C1069 H1053 0.930 . S
C1069 C1068 1.377 . S
C1069 C1070 1.379 . S
C1070 H1054 0.931 . S
C1070 C1064 1.383 . S
C1070 C1069 1.379 . S
H1071 C1065 0.959 . S
H1072 C1065 0.961 . S
H1073 C1065 0.960 . S
H1074 C1066 0.930 . S
H1075 C1067 0.929 . S
H1076 C1084 0.929 . S
H1077 C1086 0.930 . S
H1078 C1088 0.930 . S
H1079 C1091 0.929 . S
H1080 C1094 0.930 . S
H1081 C1096 0.960 . S
H1082 C1096 0.960 . S
H1083 C1096 0.960 . S
C1084 H1076 0.929 . S
C1084 C1085 1.377 . S
C1084 C1086 1.384 . S
C1085 C1084 1.377 . S
C1085 C1091 1.390 . S
C1086 H1077 0.930 . S
C1086 C1084 1.384 . S
C1086 C1087 1.372 . S
C1087 C1086 1.372 . S
C1087 C1088 1.400 . S
C1087 C1092 1.490 . S
C1088 H1078 0.930 . S
C1088 C1087 1.400 . S
C1088 C1091 1.386 . S
H1089 C1105 0.930 . S
H1090 C1106 0.931 . S
C1091 H1079 0.929 . S
C1091 C1085 1.390 . S
C1091 C1088 1.386 . S
C1092 C1087 1.490 . S
C1092 C1094 1.395 . S
C1092 C1095 1.403 . S
H1093 C1099 0.930 . S
C1094 H1080 0.930 . S
C1094 C1092 1.395 . S
C1094 C1097 1.403 . S
C1095 C1092 1.403 . S
C1095 C1096 1.524 . S
C1095 C1099 1.400 . S
C1096 H1081 0.960 . S
C1096 H1082 0.960 . S
C1096 H1083 0.960 . S
C1096 C1095 1.524 . S
C1097 C1094 1.403 . S
C1097 C1098 1.392 . S
C1097 C1101 1.495 . S
C1098 C1097 1.392 . S
C1098 C1099 1.385 . S
C1098 C1100 1.478 . S
C1099 H1093 0.930 . S
C1099 C1095 1.400 . S
C1099 C1098 1.385 . S
C1100 C1098 1.478 . S
C1100 C1102 1.381 . S
C1100 C1106 1.383 . S
C1101 C1097 1.495 . S
C1101 H1107 0.959 . S
C1101 H1108 0.961 . S
C1101 H1109 0.960 . S
C1102 C1100 1.381 . S
C1102 C1103 1.394 . S
C1102 H1110 0.930 . S
C1103 C1102 1.394 . S
C1103 C1104 1.383 . S
C1103 H1111 0.929 . S
C1104 C1103 1.383 . S
C1104 C1105 1.377 . S
C1105 H1089 0.930 . S
C1105 C1104 1.377 . S
C1105 C1106 1.379 . S
C1106 H1090 0.931 . S
C1106 C1100 1.383 . S
C1106 C1105 1.379 . S
H1107 C1101 0.959 . S
H1108 C1101 0.961 . S
H1109 C1101 0.960 . S
H1110 C1102 0.930 . S
H1111 C1103 0.929 . S
H1112 C1120 0.929 . S
H1113 C1122 0.930 . S
H1114 C1124 0.930 . S
H1115 C1127 0.929 . S
H1116 C1130 0.930 . S
H1117 C1132 0.960 . S
H1118 C1132 0.960 . S
H1119 C1132 0.960 . S
C1120 H1112 0.929 . S
C1120 C1121 1.377 . S
C1120 C1122 1.384 . S
C1121 C1120 1.377 . S
C1121 C1127 1.390 . S
C1122 H1113 0.930 . S
C1122 C1120 1.384 . S
C1122 C1123 1.372 . S
C1123 C1122 1.372 . S
C1123 C1124 1.400 . S
C1123 C1128 1.490 . S
C1124 H1114 0.930 . S
C1124 C1123 1.400 . S
C1124 C1127 1.386 . S
H1125 C1141 0.930 . S
H1126 C1142 0.931 . S
C1127 H1115 0.929 . S
C1127 C1121 1.390 . S
C1127 C1124 1.386 . S
C1128 C1123 1.490 . S
C1128 C1130 1.395 1_556 S
C1128 C1131 1.403 . S
H1129 C1135 0.930 . S
C1130 H1116 0.930 . S
C1130 C1128 1.395 1_554 S
C1130 C1133 1.403 . S
C1131 C1128 1.403 . S
C1131 C1132 1.524 . S
C1131 C1135 1.400 . S
C1132 H1117 0.960 . S
C1132 H1118 0.960 . S
C1132 H1119 0.960 . S
C1132 C1131 1.524 . S
C1133 C1130 1.403 . S
C1133 C1134 1.392 1_554 S
C1133 C1137 1.495 . S
C1134 C1133 1.392 1_556 S
C1134 C1135 1.385 . S
C1134 C1136 1.478 . S
C1135 H1129 0.930 . S
C1135 C1131 1.400 . S
C1135 C1134 1.385 . S
C1136 C1134 1.478 . S
C1136 C1138 1.381 . S
C1136 C1142 1.383 . S
C1137 C1133 1.495 . S
C1137 H1143 0.959 . S
C1137 H1144 0.961 . S
C1137 H1145 0.960 . S
C1138 C1136 1.381 . S
C1138 C1139 1.394 . S
C1138 H1146 0.930 . S
C1139 C1138 1.394 . S
C1139 C1140 1.383 . S
C1139 H1147 0.929 . S
C1140 C1139 1.383 . S
C1140 C1141 1.377 . S
C1141 H1125 0.930 . S
C1141 C1140 1.377 . S
C1141 C1142 1.379 . S
C1142 H1126 0.931 . S
C1142 C1136 1.383 . S
C1142 C1141 1.379 . S
H1143 C1137 0.959 . S
H1144 C1137 0.961 . S
H1145 C1137 0.960 . S
H1146 C1138 0.930 . S
H1147 C1139 0.929 . S
H1148 C1156 0.929 . S
H1149 C1158 0.930 . S
H1150 C1160 0.930 . S
H1151 C1163 0.929 . S
H1152 C1166 0.930 . S
H1153 C1168 0.960 . S
H1154 C1168 0.960 . S
H1155 C1168 0.960 . S
C1156 H1148 0.929 . S
C1156 C1157 1.377 . S
C1156 C1158 1.384 . S
C1157 C1156 1.377 . S
C1157 C1163 1.390 . S
C1158 H1149 0.930 . S
C1158 C1156 1.384 . S
C1158 C1159 1.372 . S
C1159 C1158 1.372 . S
C1159 C1160 1.400 . S
C1159 C1164 1.490 . S
C1160 H1150 0.930 . S
C1160 C1159 1.400 . S
C1160 C1163 1.386 . S
H1161 C1177 0.930 . S
H1162 C1178 0.931 . S
C1163 H1151 0.929 . S
C1163 C1157 1.390 . S
C1163 C1160 1.386 . S
C1164 C1159 1.490 . S
C1164 C1166 1.395 . S
C1164 C1167 1.403 . S
H1165 C1171 0.930 . S
C1166 H1152 0.930 . S
C1166 C1164 1.395 . S
C1166 C1169 1.403 . S
C1167 C1164 1.403 . S
C1167 C1168 1.524 . S
C1167 C1171 1.400 . S
C1168 H1153 0.960 . S
C1168 H1154 0.960 . S
C1168 H1155 0.960 . S
C1168 C1167 1.524 . S
C1169 C1166 1.403 . S
C1169 C1170 1.392 . S
C1169 C1173 1.495 . S
C1170 C1169 1.392 . S
C1170 C1171 1.385 . S
C1170 C1172 1.478 . S
C1171 H1165 0.930 . S
C1171 C1167 1.400 . S
C1171 C1170 1.385 . S
C1172 C1170 1.478 . S
C1172 C1174 1.381 . S
C1172 C1178 1.383 . S
C1173 C1169 1.495 . S
C1173 H1179 0.959 . S
C1173 H1180 0.961 . S
C1173 H1181 0.960 . S
C1174 C1172 1.381 . S
C1174 C1175 1.394 . S
C1174 H1182 0.930 . S
C1175 C1174 1.394 . S
C1175 C1176 1.383 . S
C1175 H1183 0.929 . S
C1176 C1175 1.383 . S
C1176 C1177 1.377 . S
C1177 H1161 0.930 . S
C1177 C1176 1.377 . S
C1177 C1178 1.379 . S
C1178 H1162 0.931 . S
C1178 C1172 1.383 . S
C1178 C1177 1.379 . S
H1179 C1173 0.959 . S
H1180 C1173 0.961 . S
H1181 C1173 0.960 . S
H1182 C1174 0.930 . S
H1183 C1175 0.929 . S
H1184 C1192 0.929 . S
H1185 C1194 0.930 . S
H1186 C1196 0.930 . S
H1187 C1199 0.929 . S
H1188 C1202 0.930 . S
H1189 C1204 0.960 . S
H1190 C1204 0.960 . S
H1191 C1204 0.960 . S
C1192 H1184 0.929 . S
C1192 C1193 1.377 . S
C1192 C1194 1.384 . S
C1193 C1192 1.377 . S
C1193 C1199 1.390 . S
C1194 H1185 0.930 . S
C1194 C1192 1.384 . S
C1194 C1195 1.372 . S
C1195 C1194 1.372 . S
C1195 C1196 1.400 . S
C1195 C1200 1.490 . S
C1196 H1186 0.930 . S
C1196 C1195 1.400 . S
C1196 C1199 1.386 . S
H1197 C1213 0.930 . S
H1198 C1214 0.931 . S
C1199 H1187 0.929 . S
C1199 C1193 1.390 . S
C1199 C1196 1.386 . S
C1200 C1195 1.490 . S
C1200 C1202 1.395 . S
C1200 C1203 1.403 . S
H1201 C1207 0.930 . S
C1202 H1188 0.930 . S
C1202 C1200 1.395 . S
C1202 C1205 1.403 . S
C1203 C1200 1.403 . S
C1203 C1204 1.524 . S
C1203 C1207 1.400 . S
C1204 H1189 0.960 . S
C1204 H1190 0.960 . S
C1204 H1191 0.960 . S
C1204 C1203 1.524 . S
C1205 C1202 1.403 . S
C1205 C1206 1.392 . S
C1205 C1209 1.495 . S
C1206 C1205 1.392 . S
C1206 C1207 1.385 . S
C1206 C1208 1.478 . S
C1207 H1201 0.930 . S
C1207 C1203 1.400 . S
C1207 C1206 1.385 . S
C1208 C1206 1.478 . S
C1208 C1210 1.381 . S
C1208 C1214 1.383 . S
C1209 C1205 1.495 . S
C1209 H1215 0.959 . S
C1209 H1216 0.961 . S
C1209 H1217 0.960 . S
C1210 C1208 1.381 . S
C1210 C1211 1.394 . S
C1210 H1218 0.930 . S
C1211 C1210 1.394 . S
C1211 C1212 1.383 . S
C1211 H1219 0.929 . S
C1212 C1211 1.383 . S
C1212 C1213 1.377 . S
C1213 H1197 0.930 . S
C1213 C1212 1.377 . S
C1213 C1214 1.379 . S
C1214 H1198 0.931 . S
C1214 C1208 1.383 . S
C1214 C1213 1.379 . S
H1215 C1209 0.959 . S
H1216 C1209 0.961 . S
H1217 C1209 0.960 . S
H1218 C1210 0.930 . S
H1219 C1211 0.929 . S
H1220 C1228 0.929 . S
H1221 C1230 0.930 . S
H1222 C1232 0.930 . S
H1223 C1235 0.929 . S
H1224 C1238 0.930 . S
H1225 C1240 0.960 . S
H1226 C1240 0.960 . S
H1227 C1240 0.960 . S
C1228 H1220 0.929 . S
C1228 C1229 1.377 . S
C1228 C1230 1.384 . S
C1229 C1228 1.377 . S
C1229 C1235 1.390 . S
C1230 H1221 0.930 . S
C1230 C1228 1.384 . S
C1230 C1231 1.372 . S
C1231 C1230 1.372 . S
C1231 C1232 1.400 . S
C1231 C1236 1.490 . S
C1232 H1222 0.930 . S
C1232 C1231 1.400 . S
C1232 C1235 1.386 . S
H1233 C1249 0.930 . S
H1234 C1250 0.931 . S
C1235 H1223 0.929 . S
C1235 C1229 1.390 . S
C1235 C1232 1.386 . S
C1236 C1231 1.490 . S
C1236 C1238 1.395 . S
C1236 C1239 1.403 . S
H1237 C1243 0.930 . S
C1238 H1224 0.930 . S
C1238 C1236 1.395 . S
C1238 C1241 1.403 . S
C1239 C1236 1.403 . S
C1239 C1240 1.524 . S
C1239 C1243 1.400 . S
C1240 H1225 0.960 . S
C1240 H1226 0.960 . S
C1240 H1227 0.960 . S
C1240 C1239 1.524 . S
C1241 C1238 1.403 . S
C1241 C1242 1.392 . S
C1241 C1245 1.495 . S
C1242 C1241 1.392 . S
C1242 C1243 1.385 . S
C1242 C1244 1.478 . S
C1243 H1237 0.930 . S
C1243 C1239 1.400 . S
C1243 C1242 1.385 . S
C1244 C1242 1.478 . S
C1244 C1246 1.381 . S
C1244 C1250 1.383 . S
C1245 C1241 1.495 . S
C1245 H1251 0.959 . S
C1245 H1252 0.961 . S
C1245 H1253 0.960 . S
C1246 C1244 1.381 . S
C1246 C1247 1.394 . S
C1246 H1254 0.930 . S
C1247 C1246 1.394 . S
C1247 C1248 1.383 . S
C1247 H1255 0.929 . S
C1248 C1247 1.383 . S
C1248 C1249 1.377 . S
C1249 H1233 0.930 . S
C1249 C1248 1.377 . S
C1249 C1250 1.379 . S
C1250 H1234 0.931 . S
C1250 C1244 1.383 . S
C1250 C1249 1.379 . S
H1251 C1245 0.959 . S
H1252 C1245 0.961 . S
H1253 C1245 0.960 . S
H1254 C1246 0.930 . S
H1255 C1247 0.929 . S
H1256 C1264 0.929 . S
H1257 C1266 0.930 . S
H1258 C1268 0.930 . S
H1259 C1271 0.929 . S
H1260 C1274 0.930 . S
H1261 C1276 0.960 . S
H1262 C1276 0.960 . S
H1263 C1276 0.960 . S
C1264 H1256 0.929 . S
C1264 C1265 1.377 . S
C1264 C1266 1.384 . S
C1265 C1264 1.377 . S
C1265 C1271 1.390 . S
C1266 H1257 0.930 . S
C1266 C1264 1.384 . S
C1266 C1267 1.372 . S
C1267 C1266 1.372 . S
C1267 C1268 1.400 . S
C1267 C1272 1.490 . S
C1268 H1258 0.930 . S
C1268 C1267 1.400 . S
C1268 C1271 1.386 . S
H1269 C1285 0.930 . S
H1270 C1286 0.931 . S
C1271 H1259 0.929 . S
C1271 C1265 1.390 . S
C1271 C1268 1.386 . S
C1272 C1267 1.490 . S
C1272 C1274 1.395 . S
C1272 C1275 1.403 . S
H1273 C1279 0.930 . S
C1274 H1260 0.930 . S
C1274 C1272 1.395 . S
C1274 C1277 1.403 . S
C1275 C1272 1.403 . S
C1275 C1276 1.524 . S
C1275 C1279 1.400 . S
C1276 H1261 0.960 . S
C1276 H1262 0.960 . S
C1276 H1263 0.960 . S
C1276 C1275 1.524 . S
C1277 C1274 1.403 . S
C1277 C1278 1.392 . S
C1277 C1281 1.495 . S
C1278 C1277 1.392 . S
C1278 C1279 1.385 . S
C1278 C1280 1.478 . S
C1279 H1273 0.930 . S
C1279 C1275 1.400 . S
C1279 C1278 1.385 . S
C1280 C1278 1.478 . S
C1280 C1282 1.381 . S
C1280 C1286 1.383 . S
C1281 C1277 1.495 . S
C1281 H1287 0.959 . S
C1281 H1288 0.961 . S
C1281 H1289 0.960 . S
C1282 C1280 1.381 . S
C1282 C1283 1.394 . S
C1282 H1290 0.930 . S
C1283 C1282 1.394 . S
C1283 C1284 1.383 . S
C1283 H1291 0.929 . S
C1284 C1283 1.383 . S
C1284 C1285 1.377 . S
C1285 H1269 0.930 . S
C1285 C1284 1.377 . S
C1285 C1286 1.379 . S
C1286 H1270 0.931 . S
C1286 C1280 1.383 . S
C1286 C1285 1.379 . S
H1287 C1281 0.959 . S
H1288 C1281 0.961 . S
H1289 C1281 0.960 . S
H1290 C1282 0.930 . S
H1291 C1283 0.929 . S
H1292 C1300 0.929 . S
H1293 C1302 0.930 . S
H1294 C1304 0.930 . S
H1295 C1307 0.929 . S
H1296 C1310 0.930 . S
H1297 C1312 0.960 . S
H1298 C1312 0.960 . S
H1299 C1312 0.960 . S
C1300 H1292 0.929 . S
C1300 C1301 1.377 . S
C1300 C1302 1.384 . S
C1301 C1300 1.377 . S
C1301 C1307 1.390 . S
C1302 H1293 0.930 . S
C1302 C1300 1.384 . S
C1302 C1303 1.372 . S
C1303 C1302 1.372 . S
C1303 C1304 1.400 . S
C1303 C1308 1.490 . S
C1304 H1294 0.930 . S
C1304 C1303 1.400 . S
C1304 C1307 1.386 . S
H1305 C1321 0.930 . S
H1306 C1322 0.931 . S
C1307 H1295 0.929 . S
C1307 C1301 1.390 . S
C1307 C1304 1.386 . S
C1308 C1303 1.490 . S
C1308 C1310 1.395 . S
C1308 C1311 1.403 . S
H1309 C1315 0.930 . S
C1310 H1296 0.930 . S
C1310 C1308 1.395 . S
C1310 C1313 1.403 . S
C1311 C1308 1.403 . S
C1311 C1312 1.524 . S
C1311 C1315 1.400 . S
C1312 H1297 0.960 . S
C1312 H1298 0.960 . S
C1312 H1299 0.960 . S
C1312 C1311 1.524 . S
C1313 C1310 1.403 . S
C1313 C1314 1.392 . S
C1313 C1317 1.495 . S
C1314 C1313 1.392 . S
C1314 C1315 1.385 . S
C1314 C1316 1.478 . S
C1315 H1309 0.930 . S
C1315 C1311 1.400 . S
C1315 C1314 1.385 . S
C1316 C1314 1.478 . S
C1316 C1318 1.381 . S
C1316 C1322 1.383 . S
C1317 C1313 1.495 . S
C1317 H1323 0.959 . S
C1317 H1324 0.961 . S
C1317 H1325 0.960 . S
C1318 C1316 1.381 . S
C1318 C1319 1.394 . S
C1318 H1326 0.930 . S
C1319 C1318 1.394 . S
C1319 C1320 1.383 . S
C1319 H1327 0.929 . S
C1320 C1319 1.383 . S
C1320 C1321 1.377 . S
C1321 H1305 0.930 . S
C1321 C1320 1.377 . S
C1321 C1322 1.379 . S
C1322 H1306 0.931 . S
C1322 C1316 1.383 . S
C1322 C1321 1.379 . S
H1323 C1317 0.959 . S
H1324 C1317 0.961 . S
H1325 C1317 0.960 . S
H1326 C1318 0.930 . S
H1327 C1319 0.929 . S
H1328 C1336 0.929 . S
H1329 C1338 0.930 . S
H1330 C1340 0.930 . S
H1331 C1343 0.929 . S
H1332 C1346 0.930 . S
H1333 C1348 0.960 . S
H1334 C1348 0.960 . S
H1335 C1348 0.960 . S
C1336 H1328 0.929 . S
C1336 C1337 1.377 . S
C1336 C1338 1.384 . S
C1337 C1336 1.377 . S
C1337 C1343 1.390 . S
C1338 H1329 0.930 . S
C1338 C1336 1.384 . S
C1338 C1339 1.372 . S
C1339 C1338 1.372 . S
C1339 C1340 1.400 . S
C1339 C1344 1.490 . S
C1340 H1330 0.930 . S
C1340 C1339 1.400 . S
C1340 C1343 1.386 . S
H1341 C1357 0.930 . S
H1342 C1358 0.931 . S
C1343 H1331 0.929 . S
C1343 C1337 1.390 . S
C1343 C1340 1.386 . S
C1344 C1339 1.490 . S
C1344 C1346 1.395 . S
C1344 C1347 1.403 . S
H1345 C1351 0.930 . S
C1346 H1332 0.930 . S
C1346 C1344 1.395 . S
C1346 C1349 1.403 . S
C1347 C1344 1.403 . S
C1347 C1348 1.524 . S
C1347 C1351 1.400 . S
C1348 H1333 0.960 . S
C1348 H1334 0.960 . S
C1348 H1335 0.960 . S
C1348 C1347 1.524 . S
C1349 C1346 1.403 . S
C1349 C1350 1.392 . S
C1349 C1353 1.495 . S
C1350 C1349 1.392 . S
C1350 C1351 1.385 . S
C1350 C1352 1.478 . S
C1351 H1345 0.930 . S
C1351 C1347 1.400 . S
C1351 C1350 1.385 . S
C1352 C1350 1.478 . S
C1352 C1354 1.381 . S
C1352 C1358 1.383 . S
C1353 C1349 1.495 . S
C1353 H1359 0.959 . S
C1353 H1360 0.961 . S
C1353 H1361 0.960 . S
C1354 C1352 1.381 . S
C1354 C1355 1.394 . S
C1354 H1362 0.930 . S
C1355 C1354 1.394 . S
C1355 C1356 1.383 . S
C1355 H1363 0.929 . S
C1356 C1355 1.383 . S
C1356 C1357 1.377 . S
C1357 H1341 0.930 . S
C1357 C1356 1.377 . S
C1357 C1358 1.379 . S
C1358 H1342 0.931 . S
C1358 C1352 1.383 . S
C1358 C1357 1.379 . S
H1359 C1353 0.959 . S
H1360 C1353 0.961 . S
H1361 C1353 0.960 . S
H1362 C1354 0.930 . S
H1363 C1355 0.929 . S
H1364 C1372 0.929 . S
H1365 C1374 0.930 . S
H1366 C1376 0.930 . S
H1367 C1379 0.929 . S
H1368 C1382 0.930 . S
H1369 C1384 0.960 . S
H1370 C1384 0.960 . S
H1371 C1384 0.960 . S
C1372 H1364 0.929 . S
C1372 C1373 1.377 . S
C1372 C1374 1.384 . S
C1373 C1372 1.377 . S
C1373 C1379 1.390 . S
C1374 H1365 0.930 . S
C1374 C1372 1.384 . S
C1374 C1375 1.372 . S
C1375 C1374 1.372 . S
C1375 C1376 1.400 . S
C1375 C1380 1.490 . S
C1376 H1366 0.930 . S
C1376 C1375 1.400 . S
C1376 C1379 1.386 . S
H1377 C1393 0.930 . S
H1378 C1394 0.931 . S
C1379 H1367 0.929 . S
C1379 C1373 1.390 . S
C1379 C1376 1.386 . S
C1380 C1375 1.490 . S
C1380 C1382 1.395 . S
C1380 C1383 1.403 . S
H1381 C1387 0.930 . S
C1382 H1368 0.930 . S
C1382 C1380 1.395 . S
C1382 C1385 1.403 . S
C1383 C1380 1.403 . S
C1383 C1384 1.524 . S
C1383 C1387 1.400 . S
C1384 H1369 0.960 . S
C1384 H1370 0.960 . S
C1384 H1371 0.960 . S
C1384 C1383 1.524 . S
C1385 C1382 1.403 . S
C1385 C1386 1.392 . S
C1385 C1389 1.495 . S
C1386 C1385 1.392 . S
C1386 C1387 1.385 . S
C1386 C1388 1.478 . S
C1387 H1381 0.930 . S
C1387 C1383 1.400 . S
C1387 C1386 1.385 . S
C1388 C1386 1.478 . S
C1388 C1390 1.381 . S
C1388 C1394 1.383 . S
C1389 C1385 1.495 . S
C1389 H1395 0.959 . S
C1389 H1396 0.961 . S
C1389 H1397 0.960 . S
C1390 C1388 1.381 . S
C1390 C1391 1.394 . S
C1390 H1398 0.930 . S
C1391 C1390 1.394 . S
C1391 C1392 1.383 . S
C1391 H1399 0.929 . S
C1392 C1391 1.383 . S
C1392 C1393 1.377 . S
C1393 H1377 0.930 . S
C1393 C1392 1.377 . S
C1393 C1394 1.379 . S
C1394 H1378 0.931 . S
C1394 C1388 1.383 . S
C1394 C1393 1.379 . S
H1395 C1389 0.959 . S
H1396 C1389 0.961 . S
H1397 C1389 0.960 . S
H1398 C1390 0.930 . S
H1399 C1391 0.929 . S
H1400 C1408 0.929 . S
H1401 C1410 0.930 . S
H1402 C1412 0.930 . S
H1403 C1415 0.929 . S
H1404 C1418 0.930 . S
H1405 C1420 0.960 . S
H1406 C1420 0.960 . S
H1407 C1420 0.960 . S
C1408 H1400 0.929 . S
C1408 C1409 1.377 . S
C1408 C1410 1.384 . S
C1409 C1408 1.377 . S
C1409 C1415 1.390 . S
C1410 H1401 0.930 . S
C1410 C1408 1.384 . S
C1410 C1411 1.372 . S
C1411 C1410 1.372 . S
C1411 C1412 1.400 . S
C1411 C1416 1.490 . S
C1412 H1402 0.930 . S
C1412 C1411 1.400 . S
C1412 C1415 1.386 . S
H1413 C1429 0.930 . S
H1414 C1430 0.931 . S
C1415 H1403 0.929 . S
C1415 C1409 1.390 . S
C1415 C1412 1.386 . S
C1416 C1411 1.490 . S
C1416 C1418 1.395 . S
C1416 C1419 1.403 . S
H1417 C1423 0.930 . S
C1418 H1404 0.930 . S
C1418 C1416 1.395 . S
C1418 C1421 1.403 . S
C1419 C1416 1.403 . S
C1419 C1420 1.524 . S
C1419 C1423 1.400 . S
C1420 H1405 0.960 . S
C1420 H1406 0.960 . S
C1420 H1407 0.960 . S
C1420 C1419 1.524 . S
C1421 C1418 1.403 . S
C1421 C1422 1.392 . S
C1421 C1425 1.495 . S
C1422 C1421 1.392 . S
C1422 C1423 1.385 . S
C1422 C1424 1.478 . S
C1423 H1417 0.930 . S
C1423 C1419 1.400 . S
C1423 C1422 1.385 . S
C1424 C1422 1.478 . S
C1424 C1426 1.381 . S
C1424 C1430 1.383 . S
C1425 C1421 1.495 . S
C1425 H1431 0.959 . S
C1425 H1432 0.961 . S
C1425 H1433 0.960 . S
C1426 C1424 1.381 . S
C1426 C1427 1.394 . S
C1426 H1434 0.930 . S
C1427 C1426 1.394 . S
C1427 C1428 1.383 . S
C1427 H1435 0.929 . S
C1428 C1427 1.383 . S
C1428 C1429 1.377 . S
C1429 H1413 0.930 . S
C1429 C1428 1.377 . S
C1429 C1430 1.379 . S
C1430 H1414 0.931 . S
C1430 C1424 1.383 . S
C1430 C1429 1.379 . S
H1431 C1425 0.959 . S
H1432 C1425 0.961 . S
H1433 C1425 0.960 . S
H1434 C1426 0.930 . S
H1435 C1427 0.929 . S
H1436 C1444 0.929 . S
H1437 C1446 0.930 . S
H1438 C1448 0.930 . S
H1439 C1451 0.929 . S
H1440 C1454 0.930 . S
H1441 C1456 0.960 . S
H1442 C1456 0.960 . S
H1443 C1456 0.960 . S
C1444 H1436 0.929 . S
C1444 C1445 1.377 . S
C1444 C1446 1.384 . S
C1445 C1444 1.377 . S
C1445 C1451 1.390 . S
C1446 H1437 0.930 . S
C1446 C1444 1.384 . S
C1446 C1447 1.372 . S
C1447 C1446 1.372 . S
C1447 C1448 1.400 . S
C1447 C1452 1.490 . S
C1448 H1438 0.930 . S
C1448 C1447 1.400 . S
C1448 C1451 1.386 . S
H1449 C1465 0.930 . S
H1450 C1466 0.931 . S
C1451 H1439 0.929 . S
C1451 C1445 1.390 . S
C1451 C1448 1.386 . S
C1452 C1447 1.490 . S
C1452 C1454 1.395 . S
C1452 C1455 1.403 . S
H1453 C1459 0.930 . S
C1454 H1440 0.930 . S
C1454 C1452 1.395 . S
C1454 C1457 1.403 . S
C1455 C1452 1.403 . S
C1455 C1456 1.524 . S
C1455 C1459 1.400 . S
C1456 H1441 0.960 . S
C1456 H1442 0.960 . S
C1456 H1443 0.960 . S
C1456 C1455 1.524 . S
C1457 C1454 1.403 . S
C1457 C1458 1.392 . S
C1457 C1461 1.495 . S
C1458 C1457 1.392 . S
C1458 C1459 1.385 . S
C1458 C1460 1.478 . S
C1459 H1453 0.930 . S
C1459 C1455 1.400 . S
C1459 C1458 1.385 . S
C1460 C1458 1.478 . S
C1460 C1462 1.381 . S
C1460 C1466 1.383 . S
C1461 C1457 1.495 . S
C1461 H1467 0.959 . S
C1461 H1468 0.961 . S
C1461 H1469 0.960 . S
C1462 C1460 1.381 . S
C1462 C1463 1.394 . S
C1462 H1470 0.930 . S
C1463 C1462 1.394 . S
C1463 C1464 1.383 . S
C1463 H1471 0.929 . S
C1464 C1463 1.383 . S
C1464 C1465 1.377 . S
C1465 H1449 0.930 . S
C1465 C1464 1.377 . S
C1465 C1466 1.379 . S
C1466 H1450 0.931 . S
C1466 C1460 1.383 . S
C1466 C1465 1.379 . S
H1467 C1461 0.959 . S
H1468 C1461 0.961 . S
H1469 C1461 0.960 . S
H1470 C1462 0.930 . S
H1471 C1463 0.929 . S
H1472 C1480 0.929 . S
H1473 C1482 0.930 . S
H1474 C1484 0.930 . S
H1475 C1487 0.929 . S
H1476 C1490 0.930 . S
H1477 C1492 0.960 . S
H1478 C1492 0.960 . S
H1479 C1492 0.960 . S
C1480 H1472 0.929 . S
C1480 C1481 1.377 . S
C1480 C1482 1.384 . S
C1481 C1480 1.377 . S
C1481 C1487 1.390 . S
C1482 H1473 0.930 . S
C1482 C1480 1.384 . S
C1482 C1483 1.372 . S
C1483 C1482 1.372 . S
C1483 C1484 1.400 . S
C1483 C1488 1.490 . S
C1484 H1474 0.930 . S
C1484 C1483 1.400 . S
C1484 C1487 1.386 . S
H1485 C1501 0.930 . S
H1486 C1502 0.931 . S
C1487 H1475 0.929 . S
C1487 C1481 1.390 . S
C1487 C1484 1.386 . S
C1488 C1483 1.490 . S
C1488 C1490 1.395 . S
C1488 C1491 1.403 . S
H1489 C1495 0.930 . S
C1490 H1476 0.930 . S
C1490 C1488 1.395 . S
C1490 C1493 1.403 . S
C1491 C1488 1.403 . S
C1491 C1492 1.524 . S
C1491 C1495 1.400 . S
C1492 H1477 0.960 . S
C1492 H1478 0.960 . S
C1492 H1479 0.960 . S
C1492 C1491 1.524 . S
C1493 C1490 1.403 . S
C1493 C1494 1.392 . S
C1493 C1497 1.495 . S
C1494 C1493 1.392 . S
C1494 C1495 1.385 . S
C1494 C1496 1.478 . S
C1495 H1489 0.930 . S
C1495 C1491 1.400 . S
C1495 C1494 1.385 . S
C1496 C1494 1.478 . S
C1496 C1498 1.381 . S
C1496 C1502 1.383 . S
C1497 C1493 1.495 . S
C1497 H1503 0.959 . S
C1497 H1504 0.961 . S
C1497 H1505 0.960 . S
C1498 C1496 1.381 . S
C1498 C1499 1.394 . S
C1498 H1506 0.930 . S
C1499 C1498 1.394 . S
C1499 C1500 1.383 . S
C1499 H1507 0.929 . S
C1500 C1499 1.383 . S
C1500 C1501 1.377 . S
C1501 H1485 0.930 . S
C1501 C1500 1.377 . S
C1501 C1502 1.379 . S
C1502 H1486 0.931 . S
C1502 C1496 1.383 . S
C1502 C1501 1.379 . S
H1503 C1497 0.959 . S
H1504 C1497 0.961 . S
H1505 C1497 0.960 . S
H1506 C1498 0.930 . S
H1507 C1499 0.929 . S
H1508 C1516 0.929 . S
H1509 C1518 0.930 . S
H1510 C1520 0.930 . S
H1511 C1523 0.929 . S
H1512 C1526 0.930 . S
H1513 C1528 0.960 . S
H1514 C1528 0.960 . S
H1515 C1528 0.960 . S
C1516 H1508 0.929 . S
C1516 C1517 1.377 . S
C1516 C1518 1.384 . S
C1517 C1516 1.377 . S
C1517 C1523 1.390 . S
C1518 H1509 0.930 . S
C1518 C1516 1.384 . S
C1518 C1519 1.372 . S
C1519 C1518 1.372 . S
C1519 C1520 1.400 . S
C1519 C1524 1.490 . S
C1520 H1510 0.930 . S
C1520 C1519 1.400 . S
C1520 C1523 1.386 . S
H1521 C1537 0.930 . S
H1522 C1538 0.931 . S
C1523 H1511 0.929 . S
C1523 C1517 1.390 . S
C1523 C1520 1.386 . S
C1524 C1519 1.490 . S
C1524 C1526 1.395 . S
C1524 C1527 1.403 . S
H1525 C1531 0.930 . S
C1526 H1512 0.930 . S
C1526 C1524 1.395 . S
C1526 C1529 1.403 . S
C1527 C1524 1.403 . S
C1527 C1528 1.524 . S
C1527 C1531 1.400 . S
C1528 H1513 0.960 . S
C1528 H1514 0.960 . S
C1528 H1515 0.960 . S
C1528 C1527 1.524 . S
C1529 C1526 1.403 . S
C1529 C1530 1.392 . S
C1529 C1533 1.495 . S
C1530 C1529 1.392 . S
C1530 C1531 1.385 . S
C1530 C1532 1.478 . S
C1531 H1525 0.930 . S
C1531 C1527 1.400 . S
C1531 C1530 1.385 . S
C1532 C1530 1.478 . S
C1532 C1534 1.381 . S
C1532 C1538 1.383 . S
C1533 C1529 1.495 . S
C1533 H1539 0.959 . S
C1533 H1540 0.961 . S
C1533 H1541 0.960 . S
C1534 C1532 1.381 . S
C1534 C1535 1.394 . S
C1534 H1542 0.930 . S
C1535 C1534 1.394 . S
C1535 C1536 1.383 . S
C1535 H1543 0.929 . S
C1536 C1535 1.383 . S
C1536 C1537 1.377 . S
C1537 H1521 0.930 . S
C1537 C1536 1.377 . S
C1537 C1538 1.379 . S
C1538 H1522 0.931 . S
C1538 C1532 1.383 . S
C1538 C1537 1.379 . S
H1539 C1533 0.959 . S
H1540 C1533 0.961 . S
H1541 C1533 0.960 . S
H1542 C1534 0.930 . S
H1543 C1535 0.929 . S
H1544 C1552 0.929 . S
H1545 C1554 0.930 . S
H1546 C1556 0.930 . S
H1547 C1559 0.929 . S
H1548 C1562 0.930 . S
H1549 C1564 0.960 . S
H1550 C1564 0.960 . S
H1551 C1564 0.960 . S
C1552 H1544 0.929 . S
C1552 C1553 1.377 . S
C1552 C1554 1.384 . S
C1553 C1552 1.377 . S
C1553 C1559 1.390 . S
C1554 H1545 0.930 . S
C1554 C1552 1.384 . S
C1554 C1555 1.372 . S
C1555 C1554 1.372 . S
C1555 C1556 1.400 . S
C1555 C1560 1.490 . S
C1556 H1546 0.930 . S
C1556 C1555 1.400 . S
C1556 C1559 1.386 . S
H1557 C1573 0.930 . S
H1558 C1574 0.931 . S
C1559 H1547 0.929 . S
C1559 C1553 1.390 . S
C1559 C1556 1.386 . S
C1560 C1555 1.490 . S
C1560 C1562 1.395 . S
C1560 C1563 1.403 . S
H1561 C1567 0.930 . S
C1562 H1548 0.930 . S
C1562 C1560 1.395 . S
C1562 C1565 1.403 . S
C1563 C1560 1.403 . S
C1563 C1564 1.524 . S
C1563 C1567 1.400 . S
C1564 H1549 0.960 . S
C1564 H1550 0.960 . S
C1564 H1551 0.960 . S
C1564 C1563 1.524 . S
C1565 C1562 1.403 . S
C1565 C1566 1.392 . S
C1565 C1569 1.495 . S
C1566 C1565 1.392 . S
C1566 C1567 1.385 . S
C1566 C1568 1.478 . S
C1567 H1561 0.930 . S
C1567 C1563 1.400 . S
C1567 C1566 1.385 . S
C1568 C1566 1.478 . S
C1568 C1570 1.381 . S
C1568 C1574 1.383 . S
C1569 C1565 1.495 . S
C1569 H1575 0.959 . S
C1569 H1576 0.961 . S
C1569 H1577 0.960 . S
C1570 C1568 1.381 . S
C1570 C1571 1.394 . S
C1570 H1578 0.930 . S
C1571 C1570 1.394 . S
C1571 C1572 1.383 . S
C1571 H1579 0.929 . S
C1572 C1571 1.383 . S
C1572 C1573 1.377 . S
C1573 H1557 0.930 . S
C1573 C1572 1.377 . S
C1573 C1574 1.379 . S
C1574 H1558 0.931 . S
C1574 C1568 1.383 . S
C1574 C1573 1.379 . S
H1575 C1569 0.959 . S
H1576 C1569 0.961 . S
H1577 C1569 0.960 . S
H1578 C1570 0.930 . S
H1579 C1571 0.929 . S
H1580 C1588 0.929 . S
H1581 C1590 0.930 . S
H1582 C1592 0.930 . S
H1583 C1595 0.929 . S
H1584 C1598 0.930 . S
H1585 C1600 0.960 . S
H1586 C1600 0.960 . S
H1587 C1600 0.960 . S
C1588 H1580 0.929 . S
C1588 C1589 1.377 . S
C1588 C1590 1.384 . S
C1589 C1588 1.377 . S
C1589 C1595 1.390 . S
C1590 H1581 0.930 . S
C1590 C1588 1.384 . S
C1590 C1591 1.372 . S
C1591 C1590 1.372 . S
C1591 C1592 1.400 . S
C1591 C1596 1.490 . S
C1592 H1582 0.930 . S
C1592 C1591 1.400 . S
C1592 C1595 1.386 . S
H1593 C1609 0.930 . S
H1594 C1610 0.931 . S
C1595 H1583 0.929 . S
C1595 C1589 1.390 . S
C1595 C1592 1.386 . S
C1596 C1591 1.490 . S
C1596 C1598 1.395 . S
C1596 C1599 1.403 . S
H1597 C1603 0.930 . S
C1598 H1584 0.930 . S
C1598 C1596 1.395 . S
C1598 C1601 1.403 . S
C1599 C1596 1.403 . S
C1599 C1600 1.524 . S
C1599 C1603 1.400 . S
C1600 H1585 0.960 . S
C1600 H1586 0.960 . S
C1600 H1587 0.960 . S
C1600 C1599 1.524 . S
C1601 C1598 1.403 . S
C1601 C1602 1.392 . S
C1601 C1605 1.495 . S
C1602 C1601 1.392 . S
C1602 C1603 1.385 . S
C1602 C1604 1.478 . S
C1603 H1597 0.930 . S
C1603 C1599 1.400 . S
C1603 C1602 1.385 . S
C1604 C1602 1.478 . S
C1604 C1606 1.381 . S
C1604 C1610 1.383 . S
C1605 C1601 1.495 . S
C1605 H1611 0.959 . S
C1605 H1612 0.961 . S
C1605 H1613 0.960 . S
C1606 C1604 1.381 . S
C1606 C1607 1.394 . S
C1606 H1614 0.930 . S
C1607 C1606 1.394 . S
C1607 C1608 1.383 . S
C1607 H1615 0.929 . S
C1608 C1607 1.383 . S
C1608 C1609 1.377 . S
C1609 H1593 0.930 . S
C1609 C1608 1.377 . S
C1609 C1610 1.379 . S
C1610 H1594 0.931 . S
C1610 C1604 1.383 . S
C1610 C1609 1.379 . S
H1611 C1605 0.959 . S
H1612 C1605 0.961 . S
H1613 C1605 0.960 . S
H1614 C1606 0.930 . S
H1615 C1607 0.929 . S
H1616 C1624 0.929 . S
H1617 C1626 0.930 . S
H1618 C1628 0.930 . S
H1619 C1631 0.929 . S
H1620 C1634 0.930 . S
H1621 C1636 0.960 . S
H1622 C1636 0.960 . S
H1623 C1636 0.960 . S
C1624 H1616 0.929 . S
C1624 C1625 1.377 . S
C1624 C1626 1.384 . S
C1625 C1624 1.377 . S
C1625 C1631 1.390 . S
C1626 H1617 0.930 . S
C1626 C1624 1.384 . S
C1626 C1627 1.372 . S
C1627 C1626 1.372 . S
C1627 C1628 1.400 . S
C1627 C1632 1.490 . S
C1628 H1618 0.930 . S
C1628 C1627 1.400 . S
C1628 C1631 1.386 . S
H1629 C1645 0.930 . S
H1630 C1646 0.931 . S
C1631 H1619 0.929 . S
C1631 C1625 1.390 . S
C1631 C1628 1.386 . S
C1632 C1627 1.490 . S
C1632 C1634 1.395 . S
C1632 C1635 1.403 . S
H1633 C1639 0.930 . S
C1634 H1620 0.930 . S
C1634 C1632 1.395 . S
C1634 C1637 1.403 . S
C1635 C1632 1.403 . S
C1635 C1636 1.524 . S
C1635 C1639 1.400 . S
C1636 H1621 0.960 . S
C1636 H1622 0.960 . S
C1636 H1623 0.960 . S
C1636 C1635 1.524 . S
C1637 C1634 1.403 . S
C1637 C1638 1.392 . S
C1637 C1641 1.495 . S
C1638 C1637 1.392 . S
C1638 C1639 1.385 . S
C1638 C1640 1.478 . S
C1639 H1633 0.930 . S
C1639 C1635 1.400 . S
C1639 C1638 1.385 . S
C1640 C1638 1.478 . S
C1640 C1642 1.381 . S
C1640 C1646 1.383 . S
C1641 C1637 1.495 . S
C1641 H1647 0.959 . S
C1641 H1648 0.961 . S
C1641 H1649 0.960 . S
C1642 C1640 1.381 . S
C1642 C1643 1.394 . S
C1642 H1650 0.930 . S
C1643 C1642 1.394 . S
C1643 C1644 1.383 . S
C1643 H1651 0.929 . S
C1644 C1643 1.383 . S
C1644 C1645 1.377 . S
C1645 H1629 0.930 . S
C1645 C1644 1.377 . S
C1645 C1646 1.379 . S
C1646 H1630 0.931 . S
C1646 C1640 1.383 . S
C1646 C1645 1.379 . S
H1647 C1641 0.959 . S
H1648 C1641 0.961 . S
H1649 C1641 0.960 . S
H1650 C1642 0.930 . S
H1651 C1643 0.929 . S
H1652 C1660 0.929 . S
H1653 C1662 0.930 . S
H1654 C1664 0.930 . S
H1655 C1667 0.929 . S
H1656 C1670 0.930 . S
H1657 C1672 0.960 . S
H1658 C1672 0.960 . S
H1659 C1672 0.960 . S
C1660 H1652 0.929 . S
C1660 C1661 1.377 . S
C1660 C1662 1.384 . S
C1661 C1660 1.377 . S
C1661 C1667 1.390 . S
C1662 H1653 0.930 . S
C1662 C1660 1.384 . S
C1662 C1663 1.372 . S
C1663 C1662 1.372 . S
C1663 C1664 1.400 . S
C1663 C1668 1.490 . S
C1664 H1654 0.930 . S
C1664 C1663 1.400 . S
C1664 C1667 1.386 . S
H1665 C1681 0.930 . S
H1666 C1682 0.931 . S
C1667 H1655 0.929 . S
C1667 C1661 1.390 . S
C1667 C1664 1.386 . S
C1668 C1663 1.490 . S
C1668 C1670 1.395 . S
C1668 C1671 1.403 . S
H1669 C1675 0.930 . S
C1670 H1656 0.930 . S
C1670 C1668 1.395 . S
C1670 C1673 1.403 . S
C1671 C1668 1.403 . S
C1671 C1672 1.524 . S
C1671 C1675 1.400 . S
C1672 H1657 0.960 . S
C1672 H1658 0.960 . S
C1672 H1659 0.960 . S
C1672 C1671 1.524 . S
C1673 C1670 1.403 . S
C1673 C1674 1.392 . S
C1673 C1677 1.495 . S
C1674 C1673 1.392 . S
C1674 C1675 1.385 . S
C1674 C1676 1.478 . S
C1675 H1669 0.930 . S
C1675 C1671 1.400 . S
C1675 C1674 1.385 . S
C1676 C1674 1.478 . S
C1676 C1678 1.381 . S
C1676 C1682 1.383 . S
C1677 C1673 1.495 . S
C1677 H1683 0.959 . S
C1677 H1684 0.961 . S
C1677 H1685 0.960 . S
C1678 C1676 1.381 . S
C1678 C1679 1.394 . S
C1678 H1686 0.930 . S
C1679 C1678 1.394 . S
C1679 C1680 1.383 . S
C1679 H1687 0.929 . S
C1680 C1679 1.383 . S
C1680 C1681 1.377 . S
C1681 H1665 0.930 . S
C1681 C1680 1.377 . S
C1681 C1682 1.379 . S
C1682 H1666 0.931 . S
C1682 C1676 1.383 . S
C1682 C1681 1.379 . S
H1683 C1677 0.959 . S
H1684 C1677 0.961 . S
H1685 C1677 0.960 . S
H1686 C1678 0.930 . S
H1687 C1679 0.929 . S
H1688 C1696 0.929 . S
H1689 C1698 0.930 . S
H1690 C1700 0.930 . S
H1691 C1703 0.929 . S
H1692 C1706 0.930 . S
H1693 C1708 0.960 . S
H1694 C1708 0.960 . S
H1695 C1708 0.960 . S
C1696 H1688 0.929 . S
C1696 C1697 1.377 . S
C1696 C1698 1.384 . S
C1697 C1696 1.377 . S
C1697 C1703 1.390 . S
C1698 H1689 0.930 . S
C1698 C1696 1.384 . S
C1698 C1699 1.372 . S
C1699 C1698 1.372 . S
C1699 C1700 1.400 . S
C1699 C1704 1.490 . S
C1700 H1690 0.930 . S
C1700 C1699 1.400 . S
C1700 C1703 1.386 . S
H1701 C1717 0.930 . S
H1702 C1718 0.931 . S
C1703 H1691 0.929 . S
C1703 C1697 1.390 . S
C1703 C1700 1.386 . S
C1704 C1699 1.490 . S
C1704 C1706 1.395 . S
C1704 C1707 1.403 . S
H1705 C1711 0.930 . S
C1706 H1692 0.930 . S
C1706 C1704 1.395 . S
C1706 C1709 1.403 . S
C1707 C1704 1.403 . S
C1707 C1708 1.524 . S
C1707 C1711 1.400 . S
C1708 H1693 0.960 . S
C1708 H1694 0.960 . S
C1708 H1695 0.960 . S
C1708 C1707 1.524 . S
C1709 C1706 1.403 . S
C1709 C1710 1.392 . S
C1709 C1713 1.495 . S
C1710 C1709 1.392 . S
C1710 C1711 1.385 . S
C1710 C1712 1.478 . S
C1711 H1705 0.930 . S
C1711 C1707 1.400 . S
C1711 C1710 1.385 . S
C1712 C1710 1.478 . S
C1712 C1714 1.381 . S
C1712 C1718 1.383 . S
C1713 C1709 1.495 . S
C1713 H1719 0.959 . S
C1713 H1720 0.961 . S
C1713 H1721 0.960 . S
C1714 C1712 1.381 . S
C1714 C1715 1.394 . S
C1714 H1722 0.930 . S
C1715 C1714 1.394 . S
C1715 C1716 1.383 . S
C1715 H1723 0.929 . S
C1716 C1715 1.383 . S
C1716 C1717 1.377 . S
C1717 H1701 0.930 . S
C1717 C1716 1.377 . S
C1717 C1718 1.379 . S
C1718 H1702 0.931 . S
C1718 C1712 1.383 . S
C1718 C1717 1.379 . S
H1719 C1713 0.959 . S
H1720 C1713 0.961 . S
H1721 C1713 0.960 . S
H1722 C1714 0.930 . S
H1723 C1715 0.929 . S
H1724 C1732 0.929 . S
H1725 C1734 0.930 . S
H1726 C1736 0.930 . S
H1727 C1739 0.929 . S
H1728 C1742 0.930 . S
H1729 C1744 0.960 . S
H1730 C1744 0.960 . S
H1731 C1744 0.960 . S
C1732 H1724 0.929 . S
C1732 C1733 1.377 . S
C1732 C1734 1.384 . S
C1733 C1732 1.377 . S
C1733 C1739 1.390 . S
C1734 H1725 0.930 . S
C1734 C1732 1.384 . S
C1734 C1735 1.372 . S
C1735 C1734 1.372 . S
C1735 C1736 1.400 . S
C1735 C1740 1.490 . S
C1736 H1726 0.930 . S
C1736 C1735 1.400 . S
C1736 C1739 1.386 . S
H1737 C1753 0.930 . S
H1738 C1754 0.931 . S
C1739 H1727 0.929 . S
C1739 C1733 1.390 . S
C1739 C1736 1.386 . S
C1740 C1735 1.490 . S
C1740 C1742 1.395 . S
C1740 C1743 1.403 . S
H1741 C1747 0.930 . S
C1742 H1728 0.930 . S
C1742 C1740 1.395 . S
C1742 C1745 1.403 . S
C1743 C1740 1.403 . S
C1743 C1744 1.524 . S
C1743 C1747 1.400 . S
C1744 H1729 0.960 . S
C1744 H1730 0.960 . S
C1744 H1731 0.960 . S
C1744 C1743 1.524 . S
C1745 C1742 1.403 . S
C1745 C1746 1.392 . S
C1745 C1749 1.495 . S
C1746 C1745 1.392 . S
C1746 C1747 1.385 . S
C1746 C1748 1.478 . S
C1747 H1741 0.930 . S
C1747 C1743 1.400 . S
C1747 C1746 1.385 . S
C1748 C1746 1.478 . S
C1748 C1750 1.381 . S
C1748 C1754 1.383 . S
C1749 C1745 1.495 . S
C1749 H1755 0.959 . S
C1749 H1756 0.961 . S
C1749 H1757 0.960 . S
C1750 C1748 1.381 . S
C1750 C1751 1.394 . S
C1750 H1758 0.930 . S
C1751 C1750 1.394 . S
C1751 C1752 1.383 . S
C1751 H1759 0.929 . S
C1752 C1751 1.383 . S
C1752 C1753 1.377 . S
C1753 H1737 0.930 . S
C1753 C1752 1.377 . S
C1753 C1754 1.379 . S
C1754 H1738 0.931 . S
C1754 C1748 1.383 . S
C1754 C1753 1.379 . S
H1755 C1749 0.959 . S
H1756 C1749 0.961 . S
H1757 C1749 0.960 . S
H1758 C1750 0.930 . S
H1759 C1751 0.929 . S
C636 C518 1.359 . S
C617 C35 1.250 . S
C672 C532 1.367 . S
C653 C115 1.262 . S
C708 C547 1.336 . S
C689 C177 1.277 . S
C725 C221 1.238 . S
C744 C505 1.348 . S
C761 C283 1.218 . S
C780 C504 1.350 1_556 S
C797 C363 1.258 . S
C816 C519 1.316 . S
C852 C533 1.371 . S
C833 C407 1.294 . S
C888 C546 1.379 . S
C869 C469 1.250 . S
C905 C159 1.220 . S
C924 C574 1.353 . S
C960 C588 1.395 . S
C941 C239 1.292 . S
C977 C53 1.245 . S
C996 C603 1.353 . S
C1032 C560 1.337 . S
C1013 C97 1.207 . S
C1049 C425 1.255 . S
C1068 C561 1.375 . S
C1085 C487 1.256 . S
C1104 C575 1.360 . S
C1140 C589 1.363 . S
C1121 C301 1.263 . S
C1157 C345 1.259 . S
C1176 C602 1.393 . S
C1212 C527 1.889 . S
C1193 C29 1.873 . S
C1248 C545 1.859 . S
C1229 C109 1.843 . S
C1265 C171 1.837 . S
C1284 C503 1.834 . S
C1301 C215 1.885 . S
C1320 C513 1.903 . S
C1337 C277 1.875 . S
C1356 C541 1.899 . S
C1392 C499 1.892 . S
C1373 C357 1.847 . S
C1428 C517 1.821 . S
C1409 C401 1.870 . S
C1464 C531 1.826 . S
C1445 C463 1.872 . S
C1500 C583 1.898 . S
C1481 C153 1.875 . S
C1536 C601 1.857 . S
C1517 C233 1.839 . S
C1553 C47 1.838 . S
C1572 C555 1.882 . S
C1608 C569 1.891 . S
C1589 C91 1.870 . S
C1644 C597 1.903 . S
C1625 C419 1.853 . S
C1661 C481 1.845 . S
C1680 C559 1.839 . S
C1716 C573 1.844 . S
C1697 C295 1.840 . S
C1752 C587 1.864 . S
C1733 C339 1.878 . S
