# Generated by pormake.
# Topology zzz, (3,6)-cn, num edge types: 1
# Building blocks:
#     Node 0, Type 0, BuildingBlock: BETDIP_clean_linker_0, # of connection points: 3
#     Node 1, Type 0, BuildingBlock: BETDIP_clean_linker_0, # of connection points: 3
#     Node 2, Type 0, BuildingBlock: BETDIP_clean_linker_0, # of connection points: 3
#     Node 3, Type 0, BuildingBlock: BETDIP_clean_linker_0, # of connection points: 3
#     Node 4, Type 0, BuildingBlock: BETDIP_clean_linker_0, # of connection points: 3
#     Node 5, Type 0, BuildingBlock: BETDIP_clean_linker_0, # of connection points: 3
#     Node 6, Type 0, BuildingBlock: BETDIP_clean_linker_0, # of connection points: 3
#     Node 7, Type 0, BuildingBlock: BETDIP_clean_linker_0, # of connection points: 3
#     Node 8, Type 1, BuildingBlock: CUKXOW_clean_sbu_0, # of connection points: 6
#     Node 9, Type 1, BuildingBlock: CUKXOW_clean_sbu_0, # of connection points: 6
#     Node 10, Type 1, BuildingBlock: CUKXOW_clean_sbu_0, # of connection points: 6
#     Node 11, Type 1, BuildingBlock: CUKXOW_clean_sbu_0, # of connection points: 6
#     Edge 12, Type (0, 1), BuildingBlock: ZUJKAS_clean_linker_0, # of connection points: 2
#     Edge 13, Type (0, 1), BuildingBlock: ZUJKAS_clean_linker_0, # of connection points: 2
#     Edge 14, Type (0, 1), BuildingBlock: ZUJKAS_clean_linker_0, # of connection points: 2
#     Edge 15, Type (0, 1), BuildingBlock: ZUJKAS_clean_linker_0, # of connection points: 2
#     Edge 16, Type (0, 1), BuildingBlock: ZUJKAS_clean_linker_0, # of connection points: 2
#     Edge 17, Type (0, 1), BuildingBlock: ZUJKAS_clean_linker_0, # of connection points: 2
#     Edge 18, Type (0, 1), BuildingBlock: ZUJKAS_clean_linker_0, # of connection points: 2
#     Edge 19, Type (0, 1), BuildingBlock: ZUJKAS_clean_linker_0, # of connection points: 2
#     Edge 20, Type (0, 1), BuildingBlock: ZUJKAS_clean_linker_0, # of connection points: 2
#     Edge 21, Type (0, 1), BuildingBlock: ZUJKAS_clean_linker_0, # of connection points: 2
#     Edge 22, Type (0, 1), BuildingBlock: ZUJKAS_clean_linker_0, # of connection points: 2
#     Edge 23, Type (0, 1), BuildingBlock: ZUJKAS_clean_linker_0, # of connection points: 2
#     Edge 24, Type (0, 1), BuildingBlock: ZUJKAS_clean_linker_0, # of connection points: 2
#     Edge 25, Type (0, 1), BuildingBlock: ZUJKAS_clean_linker_0, # of connection points: 2
#     Edge 26, Type (0, 1), BuildingBlock: ZUJKAS_clean_linker_0, # of connection points: 2
#     Edge 27, Type (0, 1), BuildingBlock: ZUJKAS_clean_linker_0, # of connection points: 2
#     Edge 28, Type (0, 1), BuildingBlock: ZUJKAS_clean_linker_0, # of connection points: 2
#     Edge 29, Type (0, 1), BuildingBlock: ZUJKAS_clean_linker_0, # of connection points: 2
#     Edge 30, Type (0, 1), BuildingBlock: ZUJKAS_clean_linker_0, # of connection points: 2
#     Edge 31, Type (0, 1), BuildingBlock: ZUJKAS_clean_linker_0, # of connection points: 2
#     Edge 32, Type (0, 1), BuildingBlock: ZUJKAS_clean_linker_0, # of connection points: 2
#     Edge 33, Type (0, 1), BuildingBlock: ZUJKAS_clean_linker_0, # of connection points: 2
#     Edge 34, Type (0, 1), BuildingBlock: ZUJKAS_clean_linker_0, # of connection points: 2
#     Edge 35, Type (0, 1), BuildingBlock: ZUJKAS_clean_linker_0, # of connection points: 2
# Relax obj value: 0.069
# Max RMSD: 0.115
# Mean RMSD: 0.083
data_MOF--net-zzz--node1-CUKXOW_clean_sbu_0--node2-BETDIP_clean_linker_0--edge1-ZUJKAS_clean_linker_0
_symmetry_space_group_name_H-M    P1
_symmetry_Int_Tables_number       1
_symmetry_cell_setting            triclinic
loop_
_symmetry_equiv_pos_as_xyz
'x, y, z'
_cell_length_a     66.124421
_cell_length_b     68.114375
_cell_length_c     20.03966
_cell_angle_alpha  92.830582
_cell_angle_beta   87.088604
_cell_angle_gamma 93.756858
loop_
_atom_site_label
_atom_site_type_symbol
_atom_site_fract_x
_atom_site_fract_y
_atom_site_fract_z
_atom_type_partial_charge
H0 H 0.75504 0.53818 0.23896 0.0
H1 H 0.76812 0.52281 0.03052 0.0
H2 H 0.8153 0.52443 0.17056 0.0
H3 H 0.74526 0.55002 0.0279 0.0
C4 C 0.73363 0.54209 0.05821 0.0
C5 C 0.76569 0.53398 0.19873 0.0
C6 C 0.78603 0.53175 0.21194 0.0
C7 C 0.75933 0.53149 0.13278 0.0
C8 C 0.77317 0.52561 0.08088 0.0
C9 C 0.79329 0.52257 0.09442 0.0
C10 C 0.79961 0.52614 0.15977 0.0
N11 N 0.7389 0.53447 0.1193 0.0
H12 H 0.95208 0.76376 0.14753 0.0
H13 H 0.97519 0.77331 0.94545 0.0
H14 H 0.96605 0.82251 0.08299 0.0
H15 H 0.95733 0.74411 0.92505 0.0
C16 C 0.96084 0.73578 0.96737 0.0
C17 C 0.95722 0.77365 0.10854 0.0
C18 C 0.95812 0.79406 0.12206 0.0
C19 C 0.96269 0.76597 0.04423 0.0
C20 C 0.96994 0.77894 0.99427 0.0
C21 C 0.97145 0.79933 0.00845 0.0
C22 C 0.96515 0.80672 0.07195 0.0
N23 N 0.96167 0.74519 0.03215 0.0
H24 H 0.73925 0.96149 0.21005 0.0
H25 H 0.73073 0.97025 0.00154 0.0
H26 H 0.68015 0.97143 0.14419 0.0
H27 H 0.75785 0.94889 0.99177 0.0
C28 C 0.76733 0.95701 0.02782 0.0
C29 C 0.72942 0.9639 0.17 0.0
C30 C 0.70868 0.96601 0.18413 0.0
C31 C 0.73744 0.96483 0.1038 0.0
C32 C 0.7246 0.96855 0.05222 0.0
C33 C 0.70399 0.97129 0.06692 0.0
C34 C 0.69615 0.96959 0.13262 0.0
N35 N 0.75862 0.96328 0.09094 0.0
H36 H 0.56546 0.7512 0.21269 0.0
H37 H 0.55653 0.73964 0.00222 0.0
H38 H 0.56374 0.69183 0.12902 0.0
H39 H 0.58111 0.76992 0.0082 0.0
C40 C 0.57032 0.77772 0.04065 0.0
C41 C 0.56421 0.74093 0.16982 0.0
C42 C 0.56542 0.72069 0.17768 0.0
C43 C 0.56188 0.74795 0.106 0.0
C44 C 0.55938 0.73445 0.05091 0.0
C45 C 0.56011 0.71418 0.0591 0.0
C46 C 0.56357 0.70754 0.12219 0.0
N47 N 0.56145 0.76852 0.09818 0.0
H48 H 0.25735 0.48445 0.13227 0.0
H49 H 0.24258 0.49505 0.34301 0.0
H50 H 0.19581 0.47574 0.21054 0.0
H51 H 0.26993 0.51719 0.3299 0.0
C52 C 0.2804 0.50756 0.30331 0.0
C53 C 0.24639 0.48437 0.17436 0.0
C54 C 0.22586 0.47895 0.16422 0.0
C55 C 0.25268 0.49016 0.23886 0.0
C56 C 0.23815 0.49065 0.29293 0.0
C57 C 0.21772 0.48529 0.28277 0.0
C58 C 0.21179 0.47915 0.21878 0.0
N59 N 0.27358 0.49518 0.24864 0.0
H60 H 0.04786 0.24422 0.22181 0.0
H61 H 0.04756 0.23726 0.43485 0.0
H62 H 0.043 0.18646 0.29941 0.0
H63 H 0.03614 0.27365 0.254 0.0
C64 C 0.04249 0.2782 0.30164 0.0
C65 C 0.04715 0.23496 0.26431 0.0
C66 C 0.04521 0.21443 0.25333 0.0
C67 C 0.04779 0.24327 0.3302 0.0
C68 C 0.04717 0.23087 0.38426 0.0
C69 C 0.04562 0.21036 0.37344 0.0
C70 C 0.04466 0.20232 0.30795 0.0
N71 N 0.04866 0.26393 0.34452 0.0
H72 H 0.27411 0.0481 0.16458 0.0
H73 H 0.27994 0.04659 0.37769 0.0
H74 H 0.33236 0.05962 0.24904 0.0
H75 H 0.25503 0.02192 0.36166 0.0
C76 C 0.24497 0.02961 0.33221 0.0
C77 C 0.28329 0.05011 0.20798 0.0
C78 C 0.30419 0.0551 0.1999 0.0
C79 C 0.27437 0.04691 0.27203 0.0
C80 C 0.28657 0.04889 0.32798 0.0
C81 C 0.3075 0.05352 0.3201 0.0
C82 C 0.31605 0.05697 0.25609 0.0
N83 N 0.25331 0.04122 0.27919 0.0
H84 H 0.44918 0.26574 0.1384 0.0
H85 H 0.45407 0.27708 0.35088 0.0
H86 H 0.45194 0.32514 0.22138 0.0
H87 H 0.43366 0.24747 0.34984 0.0
C88 C 0.44292 0.2392 0.31349 0.0
C89 C 0.44996 0.27598 0.18144 0.0
C90 C 0.44981 0.29632 0.17289 0.0
C91 C 0.4507 0.26885 0.2459 0.0
C92 C 0.4525 0.28233 0.30141 0.0
C93 C 0.45279 0.30267 0.29299 0.0
C94 C 0.45111 0.30943 0.22874 0.0
N95 N 0.45041 0.24818 0.25376 0.0
Tb96 Tb 0.99758 0.98967 0.62629 0.0
C97 C 0.04123 0.01037 0.6076 0.0
Tb98 Tb 0.01139 0.0209 0.73468 0.0
O99 O 0.99585 0.01288 0.55526 0.0
O100 O 0.99068 0.0186 0.6578 0.0
O101 O 0.02849 0.99565 0.58706 0.0
C102 C 0.02284 0.05547 0.79441 0.0
O103 O 0.03737 0.02199 0.66166 0.0
C104 C 0.01687 0.98435 0.75977 0.0
C105 C 0.96862 0.99933 0.75364 0.0
O106 O 0.01924 0.03903 0.8243 0.0
O107 O 0.02011 0.05238 0.73114 0.0
O108 O 0.01467 0.99811 0.80638 0.0
O109 O 0.01811 0.99199 0.70385 0.0
O110 O 0.97935 0.01627 0.76479 0.0
O111 O 0.97457 0.98582 0.70793 0.0
C112 C 0.98519 0.95617 0.56186 0.0
O113 O 0.97608 0.97252 0.56307 0.0
O114 O 0.00138 0.95883 0.59585 0.0
C115 C 0.99263 0.02639 0.60209 0.0
Tb116 Tb 0.50557 0.02851 0.64479 0.0
C117 C 0.5352 0.99645 0.59466 0.0
Tb118 Tb 0.50573 0.99066 0.72503 0.0
O119 O 0.53662 0.03727 0.66974 0.0
O120 O 0.5179 0.02012 0.7339 0.0
O121 O 0.5252 0.01154 0.5768 0.0
C122 C 0.51478 0.95985 0.79276 0.0
O123 O 0.53085 0.9873 0.6512 0.0
C124 C 0.47569 0.99225 0.64552 0.0
C125 C 0.47603 0.02243 0.77476 0.0
O126 O 0.52081 0.97806 0.80683 0.0
O127 O 0.50368 0.95909 0.74109 0.0
O128 O 0.47455 0.98234 0.69943 0.0
O129 O 0.49372 0.99904 0.63555 0.0
O130 O 0.48672 0.00798 0.79387 0.0
O131 O 0.47975 0.03095 0.71673 0.0
C132 C 0.49606 0.05914 0.57698 0.0
O133 O 0.50337 0.06015 0.63602 0.0
O134 O 0.49419 0.04082 0.55567 0.0
C135 C 0.53587 0.02703 0.72285 0.0
Tb136 Tb 0.51765 0.52295 0.61949 0.0
C137 C 0.47297 0.50478 0.60455 0.0
Tb138 Tb 0.50037 0.49109 0.71893 0.0
O139 O 0.51748 0.50087 0.53608 0.0
O140 O 0.52064 0.49297 0.63417 0.0
O141 O 0.4865 0.51938 0.5896 0.0
C142 C 0.48787 0.45629 0.76759 0.0
O143 O 0.47577 0.49161 0.64963 0.0
C144 C 0.49991 0.52777 0.76456 0.0
C145 C 0.54472 0.50941 0.7357 0.0
O146 O 0.48103 0.47313 0.78814 0.0
O147 O 0.5017 0.45917 0.72038 0.0
O148 O 0.49936 0.51296 0.80348 0.0
O149 O 0.49804 0.52127 0.70514 0.0
O150 O 0.53158 0.49433 0.74911 0.0
O151 O 0.54152 0.52277 0.69166 0.0
C152 C 0.52994 0.55714 0.5665 0.0
O153 O 0.54019 0.54143 0.56274 0.0
O154 O 0.51278 0.55347 0.59914 0.0
C155 C 0.51832 0.48629 0.57526 0.0
Tb156 Tb 0.98695 0.50595 0.6422 0.0
C157 C 0.01028 0.46765 0.6171 0.0
Tb158 Tb 0.02101 0.49831 0.73897 0.0
O159 O 0.00878 0.51065 0.55731 0.0
O160 O 0.01757 0.51531 0.6556 0.0
O161 O 0.99331 0.47626 0.60699 0.0
C162 C 0.05609 0.49256 0.79353 0.0
O163 O 0.02379 0.47486 0.66047 0.0
C164 C 0.98366 0.4902 0.78387 0.0
C165 C 0.998 0.53702 0.76112 0.0
O166 O 0.04102 0.47949 0.78727 0.0
O167 O 0.05129 0.50896 0.77001 0.0
O168 O 0.99856 0.49483 0.82276 0.0
O169 O 0.99064 0.48851 0.72455 0.0
O170 O 0.01513 0.52855 0.77018 0.0
O171 O 0.98406 0.52929 0.72029 0.0
C172 C 0.95102 0.5115 0.59337 0.0
O173 O 0.96682 0.52387 0.59028 0.0
O174 O 0.95563 0.49595 0.62259 0.0
C175 C 0.02408 0.51405 0.59548 0.0
H176 H 0.22681 0.01074 0.43611 0.0
H177 H 0.19077 0.00796 0.46985 0.0
H178 H 0.17733 0.04129 0.30176 0.0
H179 H 0.21363 0.04454 0.26861 0.0
H180 H 0.15744 0.05388 0.41617 0.0
H181 H 0.14641 0.97285 0.38742 0.0
H182 H 0.16685 0.98017 0.44053 0.0
H183 H 0.16877 0.98627 0.35388 0.0
C184 C 0.21614 0.01735 0.40608 0.0
C185 C 0.22296 0.02773 0.34962 0.0
C186 C 0.19554 0.01565 0.42513 0.0
C187 C 0.18128 0.02404 0.38753 0.0
C188 C 0.18806 0.03455 0.33115 0.0
H189 H 0.0526 0.99472 0.48398 0.0
H190 H 0.08547 0.99938 0.42348 0.0
C191 C 0.20877 0.03637 0.31223 0.0
C192 C 0.15946 0.02241 0.40916 0.0
H193 H 0.12123 0.98915 0.4566 0.0
C194 C 0.14941 0.03973 0.42416 0.0
C195 C 0.14885 0.00394 0.41839 0.0
C196 C 0.15822 0.98477 0.39849 0.0
C197 C 0.12936 0.03909 0.45111 0.0
C198 C 0.11928 0.02064 0.46495 0.0
C199 C 0.12902 0.00331 0.44699 0.0
C200 C 0.09893 0.0189 0.49988 0.0
C201 C 0.1192 0.05819 0.4643 0.0
C202 C 0.09554 0.02825 0.56313 0.0
C203 C 0.07671 0.02575 0.59761 0.0
C204 C 0.06097 0.01354 0.5701 0.0
C205 C 0.0644 0.00417 0.50679 0.0
C206 C 0.08318 0.00684 0.47204 0.0
H207 H 0.12591 0.06975 0.43108 0.0
H208 H 0.10265 0.05625 0.45688 0.0
H209 H 0.12147 0.06356 0.51673 0.0
H210 H 0.10761 0.03716 0.58659 0.0
H211 H 0.07466 0.03307 0.64647 0.0
H212 H 0.43026 0.21967 0.4233 0.0
H213 H 0.43915 0.18715 0.45438 0.0
H214 H 0.47484 0.18048 0.26938 0.0
H215 H 0.46619 0.21322 0.23837 0.0
H216 H 0.4332 0.14987 0.3909 0.0
H217 H 0.5152 0.17192 0.41269 0.0
H218 H 0.49635 0.18967 0.40682 0.0
H219 H 0.50495 0.17582 0.3334 0.0
C220 C 0.43994 0.21122 0.38912 0.0
C221 C 0.44763 0.219 0.32871 0.0
C222 C 0.44496 0.19264 0.40685 0.0
C223 C 0.45785 0.18149 0.3646 0.0
C224 C 0.46514 0.18898 0.30322 0.0
H225 H 0.47954 0.05918 0.45449 0.0
H226 H 0.47031 0.08793 0.39593 0.0
C227 C 0.46011 0.20764 0.28543 0.0
C228 C 0.46399 0.16232 0.38642 0.0
H229 H 0.50465 0.13919 0.43567 0.0
C230 C 0.44884 0.14743 0.40011 0.0
C231 C 0.48438 0.15928 0.39904 0.0
C232 C 0.50119 0.17503 0.38782 0.0
C233 C 0.45349 0.12972 0.42729 0.0
C234 C 0.47387 0.12675 0.44024 0.0
C235 C 0.48906 0.14147 0.42527 0.0
C236 C 0.4796 0.10918 0.47417 0.0
C237 C 0.43646 0.11471 0.44451 0.0
C238 C 0.48823 0.11162 0.53681 0.0
C239 C 0.4936 0.09531 0.56994 0.0
C240 C 0.49052 0.07623 0.54093 0.0
C241 C 0.48204 0.07375 0.47795 0.0
C242 C 0.47666 0.09012 0.4447 0.0
H243 H 0.42135 0.12093 0.4441 0.0
H244 H 0.43679 0.10213 0.40723 0.0
H245 H 0.43826 0.10896 0.49462 0.0
H246 H 0.49065 0.12619 0.56042 0.0
H247 H 0.50012 0.09765 0.61843 0.0
H248 H 0.31297 0.48834 0.24674 0.0
H249 H 0.34638 0.4868 0.29348 0.0
H250 H 0.32682 0.52239 0.46597 0.0
H251 H 0.29379 0.52455 0.41834 0.0
H252 H 0.36337 0.53488 0.42228 0.0
H253 H 0.36145 0.45386 0.44213 0.0
H254 H 0.35846 0.46123 0.35866 0.0
H255 H 0.33941 0.46645 0.4233 0.0
C256 C 0.31585 0.49582 0.29458 0.0
C257 C 0.30083 0.50654 0.32916 0.0
C258 C 0.33487 0.49479 0.32153 0.0
C259 C 0.339 0.50415 0.38393 0.0
C260 C 0.324 0.51498 0.41793 0.0
H261 H 0.43693 0.48522 0.64197 0.0
H262 H 0.40469 0.48482 0.5867 0.0
C263 C 0.30514 0.51621 0.39071 0.0
C264 C 0.35906 0.50326 0.41351 0.0
H265 H 0.39256 0.47173 0.46542 0.0
C266 C 0.36973 0.52106 0.43176 0.0
C267 C 0.36723 0.48522 0.42685 0.0
C268 C 0.35597 0.46561 0.41237 0.0
C269 C 0.38827 0.52137 0.46292 0.0
C270 C 0.39679 0.50335 0.47414 0.0
C271 C 0.38612 0.48553 0.45613 0.0
C272 C 0.41658 0.50276 0.50567 0.0
C273 C 0.39819 0.54103 0.48528 0.0
C274 C 0.43408 0.51254 0.47765 0.0
C275 C 0.4524 0.51304 0.5096 0.0
C276 C 0.45371 0.50341 0.56957 0.0
C277 C 0.43639 0.49285 0.59601 0.0
C278 C 0.41797 0.49259 0.56443 0.0
H279 H 0.38704 0.55259 0.49137 0.0
H280 H 0.40558 0.5401 0.53345 0.0
H281 H 0.40994 0.54578 0.44689 0.0
H282 H 0.43355 0.51995 0.43126 0.0
H283 H 0.46555 0.52099 0.4872 0.0
H284 H 0.05827 0.29615 0.41484 0.0
H285 H 0.05364 0.32979 0.45913 0.0
H286 H 0.01889 0.34055 0.28987 0.0
H287 H 0.02355 0.30685 0.24481 0.0
H288 H 0.06237 0.36873 0.38348 0.0
H289 H 0.98237 0.35061 0.47226 0.0
H290 H 0.00059 0.33199 0.45917 0.0
H291 H 0.99033 0.3424 0.38876 0.0
C292 C 0.04975 0.30569 0.38677 0.0
C293 C 0.0411 0.29888 0.32658 0.0
C294 C 0.04718 0.3249 0.41207 0.0
C295 C 0.03582 0.3375 0.37791 0.0
C296 C 0.02762 0.33093 0.31698 0.0
H297 H 0.98975 0.45047 0.51173 0.0
H298 H 0.99668 0.4198 0.44867 0.0
C299 C 0.03031 0.31176 0.29135 0.0
C300 C 0.03193 0.35725 0.40753 0.0
H301 H 0.99557 0.38309 0.49268 0.0
C302 C 0.04777 0.37197 0.40716 0.0
C303 C 0.01283 0.36133 0.43791 0.0
C304 C 0.99549 0.3458 0.44014 0.0
C305 C 0.04498 0.3908 0.4366 0.0
C306 C 0.02601 0.39475 0.46877 0.0
C307 C 0.0101 0.38005 0.46809 0.0
C308 C 0.02245 0.4138 0.50514 0.0
C309 C 0.0623 0.40633 0.43211 0.0
C310 C 0.03452 0.42054 0.55823 0.0
C311 C 0.03069 0.43812 0.5941 0.0
C312 C 0.01449 0.44917 0.57829 0.0
C313 C 0.00232 0.44231 0.52536 0.0
C314 C 0.00628 0.4248 0.48917 0.0
H315 H 0.073 0.40309 0.38901 0.0
H316 H 0.05669 0.42117 0.42707 0.0
H317 H 0.0709 0.4066 0.47831 0.0
H318 H 0.04672 0.41203 0.57271 0.0
H319 H 0.04028 0.44286 0.63485 0.0
H320 H 0.78841 0.94235 0.91966 0.0
H321 H 0.82411 0.94989 0.88578 0.0
H322 H 0.83093 0.98875 0.0607 0.0
H323 H 0.79526 0.9811 0.09539 0.0
H324 H 0.84434 0.00395 0.92287 0.0
H325 H 0.87622 0.93382 0.98401 0.0
H326 H 0.85285 0.93174 0.94114 0.0
H327 H 0.85321 0.94243 0.02474 0.0
C328 C 0.7976 0.95234 0.9512 0.0
C329 C 0.78913 0.96105 0.01019 0.0
C330 C 0.81794 0.9566 0.93191 0.0
C331 C 0.83012 0.96974 0.97108 0.0
C332 C 0.82175 0.97847 0.03013 0.0
H333 H 0.95229 0.02085 0.86032 0.0
H334 H 0.91944 0.01441 0.91989 0.0
C335 C 0.80141 0.97405 0.04988 0.0
C336 C 0.85133 0.97494 0.94832 0.0
H337 H 0.89743 0.95565 0.91882 0.0
C338 C 0.85608 0.99354 0.92263 0.0
C339 C 0.86644 0.96122 0.94794 0.0
C340 C 0.86208 0.9412 0.97631 0.0
C341 C 0.87543 0.99853 0.89378 0.0
C342 C 0.89053 0.98467 0.89236 0.0
C343 C 0.88586 0.96626 0.91995 0.0
C344 C 0.91083 0.98843 0.85861 0.0
C345 C 0.87917 0.01819 0.86228 0.0
C346 C 0.91723 0.9756 0.80594 0.0
C347 C 0.93606 0.97907 0.77253 0.0
C348 C 0.94893 0.99551 0.79088 0.0
C349 C 0.94266 0.00818 0.84444 0.0
C350 C 0.92383 0.00459 0.87831 0.0
H351 H 0.86476 0.0249 0.85297 0.0
H352 H 0.88788 0.02846 0.8965 0.0
H353 H 0.88814 0.01672 0.81412 0.0
H354 H 0.9075 0.96301 0.78999 0.0
H355 H 0.94037 0.96895 0.73166 0.0
H356 H 0.53907 0.79957 0.0917 0.0
H357 H 0.53032 0.83173 0.0558 0.0
H358 H 0.58289 0.8336 0.91905 0.0
H359 H 0.59117 0.80114 0.95277 0.0
H360 H 0.54892 0.86812 0.05636 0.0
H361 H 0.53875 0.84083 0.79447 0.0
H362 H 0.54197 0.82452 0.8607 0.0
H363 H 0.56368 0.83743 0.82134 0.0
C364 C 0.54879 0.8069 0.05421 0.0
C365 C 0.5657 0.79784 0.02444 0.0
C366 C 0.5438 0.82528 0.03378 0.0
C367 C 0.55569 0.8349 0.9836 0.0
C368 C 0.57314 0.82623 0.95637 0.0
H369 H 0.54576 0.95724 0.87678 0.0
H370 H 0.55596 0.92743 0.92672 0.0
C371 C 0.57794 0.80776 0.97598 0.0
C372 C 0.54955 0.85367 0.95831 0.0
H373 H 0.5387 0.87539 0.81562 0.0
C374 C 0.54659 0.86971 0.00377 0.0
C375 C 0.54621 0.85566 0.8898 0.0
C376 C 0.54761 0.83864 0.83889 0.0
C377 C 0.54056 0.88773 0.9825 0.0
C378 C 0.53795 0.88991 0.9136 0.0
C379 C 0.54085 0.87382 0.86835 0.0
C380 C 0.53144 0.90838 0.88696 0.0
C381 C 0.53651 0.904 0.03434 0.0
C382 C 0.51456 0.9076 0.84687 0.0
C383 C 0.50907 0.92444 0.81715 0.0
C384 C 0.52018 0.9425 0.82755 0.0
C385 C 0.53682 0.9435 0.8687 0.0
C386 C 0.54256 0.9265 0.89758 0.0
H387 H 0.53337 0.89818 0.0849 0.0
H388 H 0.55011 0.91442 0.03669 0.0
H389 H 0.52343 0.91229 0.02157 0.0
H390 H 0.50574 0.89383 0.83782 0.0
H391 H 0.49616 0.92329 0.78566 0.0
H392 H 0.71984 0.55747 0.94913 0.0
H393 H 0.68664 0.55107 0.9011 0.0
H394 H 0.66807 0.51239 0.06016 0.0
H395 H 0.70117 0.51914 0.10933 0.0
H396 H 0.6703 0.51559 0.85452 0.0
H397 H 0.62005 0.54663 0.05828 0.0
H398 H 0.64721 0.55168 0.05474 0.0
H399 H 0.63634 0.5286 0.08399 0.0
C400 C 0.70856 0.54781 0.97431 0.0
C401 C 0.713 0.53889 0.033 0.0
C402 C 0.68964 0.54413 0.94679 0.0
C403 C 0.6748 0.53142 0.9774 0.0
C404 C 0.67914 0.52257 0.03648 0.0
H405 H 0.55556 0.48839 0.84023 0.0
H406 H 0.58706 0.49264 0.90011 0.0
C407 C 0.69808 0.52637 0.06434 0.0
C408 C 0.65526 0.52675 0.94509 0.0
H409 H 0.60395 0.52981 0.96708 0.0
C410 C 0.6558 0.5187 0.87919 0.0
C411 C 0.63634 0.53073 0.97747 0.0
C412 C 0.63486 0.54004 0.0473 0.0
C413 C 0.63799 0.51467 0.84459 0.0
C414 C 0.61915 0.51893 0.87656 0.0
C415 C 0.61848 0.52656 0.9429 0.0
C416 C 0.60009 0.51636 0.84067 0.0
C417 C 0.6394 0.50588 0.77403 0.0
C418 C 0.59698 0.52843 0.78794 0.0
C419 C 0.57903 0.52612 0.75379 0.0
C420 C 0.56383 0.51164 0.77167 0.0
C421 C 0.56699 0.4996 0.82484 0.0
C422 C 0.58493 0.50203 0.85928 0.0
H423 H 0.65425 0.49945 0.76208 0.0
H424 H 0.62707 0.49425 0.76608 0.0
H425 H 0.63769 0.51757 0.73845 0.0
H426 H 0.60844 0.53973 0.77343 0.0
H427 H 0.57712 0.53571 0.71334 0.0
H428 H 0.96078 0.71498 0.84924 0.0
H429 H 0.96776 0.68034 0.82714 0.0
H430 H 0.97664 0.67448 0.03679 0.0
H431 H 0.96951 0.70913 0.05935 0.0
H432 H 0.00379 0.6624 0.85471 0.0
H433 H 0.93547 0.62808 0.98749 0.0
H434 H 0.93711 0.65344 0.96427 0.0
H435 H 0.95023 0.64646 0.0348 0.0
C436 C 0.96409 0.70625 0.89064 0.0
C437 C 0.96454 0.71469 0.9559 0.0
C438 C 0.96812 0.68652 0.87797 0.0
C439 C 0.97254 0.67484 0.93041 0.0
C440 C 0.97296 0.68319 0.99581 0.0
H441 H 0.02322 0.55955 0.84353 0.0
H442 H 0.01784 0.5925 0.89322 0.0
C443 C 0.96896 0.70299 0.00854 0.0
C444 C 0.97719 0.65406 0.91569 0.0
H445 H 0.95905 0.60661 0.93773 0.0
C446 C 0.99413 0.65017 0.87323 0.0
C447 C 0.96444 0.63821 0.9397 0.0
C448 C 0.94569 0.64163 0.98372 0.0
C449 C 0.99847 0.63082 0.85297 0.0
C450 C 0.98567 0.61495 0.87673 0.0
C451 C 0.96892 0.61883 0.92017 0.0
C452 C 0.9884 0.59436 0.85228 0.0
C453 C 0.01621 0.62759 0.80411 0.0
C454 C 0.97332 0.58423 0.81499 0.0
C455 C 0.97626 0.56542 0.78695 0.0
C456 C 0.99438 0.5563 0.79568 0.0
C457 C 0.00917 0.56619 0.83532 0.0
C458 C 0.00617 0.58505 0.86352 0.0
H459 H 0.02195 0.64141 0.78042 0.0
H460 H 0.02879 0.62203 0.83092 0.0
H461 H 0.01192 0.61646 0.76411 0.0
H462 H 0.95946 0.59112 0.80595 0.0
H463 H 0.96445 0.55822 0.75724 0.0
H464 H 0.01844 0.21155 0.48048 0.0
H465 H 0.00908 0.18471 0.55567 0.0
H466 H 0.05746 0.1516 0.46417 0.0
H467 H 0.06697 0.17839 0.39027 0.0
H468 H 0.99541 0.14964 0.50233 0.0
H469 H 0.05972 0.13748 0.65649 0.0
H470 H 0.05751 0.1604 0.61645 0.0
H471 H 0.06839 0.13983 0.57089 0.0
C472 C 0.02756 0.19888 0.47856 0.0
C473 C 0.04334 0.19693 0.4295 0.0
C474 C 0.02217 0.18354 0.52125 0.0
C475 C 0.03265 0.16619 0.51591 0.0
C476 C 0.04941 0.16497 0.47037 0.0
H477 H 0.01289 0.04487 0.49933 0.0
H478 H 0.0206 0.08039 0.49062 0.0
C479 C 0.05474 0.18021 0.42769 0.0
C480 C 0.02411 0.1481 0.54781 0.0
H481 H 0.03832 0.10798 0.62505 0.0
C482 C 0.00455 0.1408 0.53108 0.0
C483 C 0.03599 0.13656 0.58537 0.0
C484 C 0.05648 0.14411 0.6089 0.0
C485 C 0.99728 0.12165 0.54608 0.0
C486 C 0.00989 0.10959 0.57837 0.0
C487 C 0.0288 0.11729 0.59955 0.0
C488 C 0.00457 0.08836 0.5838 0.0
C489 C 0.97672 0.11389 0.52368 0.0
C490 C 0.99273 0.08132 0.63852 0.0
C491 C 0.98818 0.06108 0.64329 0.0
C492 C 0.99559 0.04772 0.59368 0.0
C493 C 0.00698 0.05489 0.53808 0.0
C494 C 0.0115 0.0751 0.53334 0.0
H495 H 0.96819 0.12553 0.50294 0.0
H496 H 0.9786 0.1019 0.4847 0.0
H497 H 0.96763 0.10753 0.56641 0.0
H498 H 0.98723 0.09143 0.6777 0.0
H499 H 0.97931 0.05583 0.68651 0.0
H500 H 0.30615 0.02449 0.40925 0.0
H501 H 0.33318 0.01706 0.48088 0.0
H502 H 0.36743 0.07028 0.42487 0.0
H503 H 0.34019 0.07809 0.35427 0.0
H504 H 0.37135 0.01137 0.41735 0.0
H505 H 0.37708 0.0678 0.62653 0.0
H506 H 0.3543 0.06287 0.58072 0.0
H507 H 0.37543 0.07738 0.54511 0.0
C508 C 0.31902 0.03505 0.41436 0.0
C509 C 0.32113 0.05181 0.37578 0.0
C510 C 0.33452 0.0307 0.45495 0.0
C511 C 0.35227 0.04311 0.45806 0.0
C512 C 0.35374 0.06064 0.42378 0.0
H513 H 0.47338 0.00744 0.52295 0.0
H514 H 0.44366 0.02109 0.4778 0.0
C515 C 0.33824 0.065 0.38312 0.0
C516 C 0.37033 0.0362 0.48808 0.0
H517 H 0.40469 0.04706 0.60806 0.0
C518 C 0.37858 0.01911 0.45931 0.0
C519 C 0.37971 0.0464 0.54253 0.0
C520 C 0.37113 0.06455 0.57604 0.0
C521 C 0.39607 0.01197 0.4833 0.0
C522 C 0.40566 0.02233 0.53698 0.0
C523 C 0.39734 0.03932 0.56636 0.0
C524 C 0.42389 0.01516 0.5649 0.0
C525 C 0.40405 0.99326 0.45166 0.0
C526 C 0.42254 0.00759 0.62879 0.0
C527 C 0.43937 0.99982 0.65433 0.0
C528 C 0.45788 0.99977 0.61668 0.0
C529 C 0.45929 0.00752 0.55296 0.0
C530 C 0.44237 0.01521 0.52719 0.0
H531 H 0.39285 0.98516 0.41929 0.0
H532 H 0.41798 0.99696 0.42038 0.0
H533 H 0.40812 0.98338 0.49067 0.0
H534 H 0.40837 0.00745 0.65849 0.0
H535 H 0.43797 0.99409 0.70396 0.0
H536 H 0.43332 0.33625 0.32395 0.0
H537 H 0.44513 0.36407 0.3963 0.0
H538 H 0.49244 0.33001 0.46249 0.0
H539 H 0.4812 0.30231 0.38773 0.0
H540 H 0.45265 0.37219 0.52942 0.0
H541 H 0.52426 0.37495 0.37006 0.0
H542 H 0.50239 0.35916 0.34847 0.0
H543 H 0.51836 0.35256 0.4127 0.0
C544 C 0.44606 0.33458 0.3547 0.0
C545 C 0.45662 0.31727 0.34908 0.0
C546 C 0.45272 0.35045 0.39632 0.0
C547 C 0.47 0.34928 0.43336 0.0
C548 C 0.47936 0.33135 0.43303 0.0
H549 H 0.53306 0.4539 0.62423 0.0
H550 H 0.52201 0.41925 0.59885 0.0
C551 C 0.47277 0.31546 0.39091 0.0
C552 C 0.47927 0.36752 0.46554 0.0
H553 H 0.52003 0.40079 0.44992 0.0
C554 C 0.46752 0.3783 0.51285 0.0
C555 C 0.49864 0.37555 0.44337 0.0
C556 C 0.51164 0.36509 0.39052 0.0
C557 C 0.47435 0.39715 0.53691 0.0
C558 C 0.49331 0.40536 0.5128 0.0
C559 C 0.50549 0.3943 0.46808 0.0
C560 C 0.49997 0.42607 0.52875 0.0
C561 C 0.46108 0.4085 0.58636 0.0
C562 C 0.49148 0.44116 0.49647 0.0
C563 C 0.49792 0.46081 0.51015 0.0
C564 C 0.51274 0.46559 0.55694 0.0
C565 C 0.52148 0.45046 0.58836 0.0
C566 C 0.51519 0.43077 0.5741 0.0
H567 H 0.44858 0.39892 0.60897 0.0
H568 H 0.47024 0.41561 0.62689 0.0
H569 H 0.45432 0.42034 0.56043 0.0
H570 H 0.47986 0.4377 0.46074 0.0
H571 H 0.49095 0.47228 0.48556 0.0
H572 H 0.18963 0.45782 0.33012 0.0
H573 H 0.15855 0.46424 0.39726 0.0
H574 H 0.17819 0.52583 0.41755 0.0
H575 H 0.20964 0.51926 0.35251 0.0
H576 H 0.15691 0.51328 0.52975 0.0
H577 H 0.11552 0.49021 0.30233 0.0
H578 H 0.12997 0.47113 0.33064 0.0
H579 H 0.14281 0.49346 0.3016 0.0
C580 C 0.18753 0.47258 0.3508 0.0
C581 C 0.20185 0.48808 0.33617 0.0
C582 C 0.16974 0.47629 0.38846 0.0
C583 C 0.16581 0.49562 0.41045 0.0
C584 C 0.18087 0.51084 0.40051 0.0
H585 H 0.04115 0.52883 0.48096 0.0
H586 H 0.07651 0.52717 0.43842 0.0
C587 C 0.19883 0.50708 0.36371 0.0
C588 C 0.14539 0.50021 0.43815 0.0
H589 H 0.09542 0.49607 0.40185 0.0
C590 C 0.14345 0.50961 0.50182 0.0
C591 C 0.12792 0.49593 0.4007 0.0
C592 C 0.12913 0.48733 0.32977 0.0
C593 C 0.12438 0.51432 0.52994 0.0
C594 C 0.10679 0.50899 0.49396 0.0
C595 C 0.10886 0.50005 0.42962 0.0
C596 C 0.086 0.51182 0.52257 0.0
C597 C 0.12338 0.5252 0.59736 0.0
C598 C 0.07956 0.50373 0.58363 0.0
C599 C 0.05956 0.505 0.60814 0.0
C600 C 0.04551 0.51404 0.57177 0.0
C601 C 0.05181 0.52197 0.51032 0.0
C602 C 0.07196 0.52102 0.48612 0.0
H603 H 0.13777 0.53405 0.60663 0.0
H604 H 0.1107 0.53518 0.60173 0.0
H605 H 0.12102 0.51439 0.63711 0.0
H606 H 0.08978 0.49579 0.61133 0.0
H607 H 0.05491 0.49795 0.65365 0.0
H608 H 0.96046 0.80255 0.87958 0.0
H609 H 0.97102 0.82947 0.80537 0.0
H610 H 0.0115 0.85473 0.95338 0.0
H611 H 0.00137 0.8279 0.02626 0.0
H612 H 0.96422 0.86738 0.83771 0.0
H613 H 0.04629 0.86227 0.78505 0.0
H614 H 0.0302 0.84184 0.81556 0.0
H615 H 0.04051 0.86066 0.87301 0.0
C616 C 0.97207 0.81356 0.89503 0.0
C617 C 0.98004 0.81329 0.95861 0.0
C618 C 0.97804 0.82892 0.85286 0.0
C619 C 0.99225 0.84399 0.87344 0.0
C620 C 0.00091 0.84307 0.93558 0.0
H621 H 0.9979 0.96649 0.86581 0.0
H622 H 0.99163 0.9311 0.87995 0.0
C623 C 0.99494 0.82784 0.97757 0.0
C624 C 0.99605 0.86212 0.83561 0.0
H625 H 0.0342 0.89561 0.78941 0.0
C626 C 0.9795 0.87334 0.82546 0.0
C627 C 0.01593 0.8698 0.81844 0.0
C628 C 0.03419 0.85786 0.82292 0.0
C629 C 0.98243 0.89267 0.80422 0.0
C630 C 0.00242 0.90108 0.79433 0.0
C631 C 0.01889 0.88929 0.7986 0.0
C632 C 0.00652 0.92243 0.78528 0.0
C633 C 0.9641 0.90412 0.79464 0.0
C634 C 0.01773 0.92924 0.72878 0.0
C635 C 0.02156 0.94946 0.72119 0.0
C636 C 0.01422 0.96309 0.76988 0.0
C637 C 0.00361 0.95625 0.82739 0.0
C638 C 0.99981 0.93607 0.83505 0.0
H639 H 0.95072 0.89412 0.78215 0.0
H640 H 0.96017 0.91252 0.84187 0.0
H641 H 0.96709 0.9147 0.75433 0.0
H642 H 0.02332 0.91893 0.69037 0.0
H643 H 0.03025 0.95446 0.67727 0.0
H644 H 0.6801 0.0021 0.07579 0.0
H645 H 0.65392 0.00925 0.00074 0.0
H646 H 0.67087 0.96076 0.86734 0.0
H647 H 0.69711 0.95328 0.94374 0.0
H648 H 0.6559 0.01813 0.86641 0.0
H649 H 0.60972 0.94835 0.91307 0.0
H650 H 0.6304 0.95707 0.96445 0.0
H651 H 0.63557 0.94617 0.88251 0.0
C652 C 0.67835 0.99305 0.03019 0.0
C653 C 0.69041 0.97701 0.01577 0.0
C654 C 0.66344 0.99716 0.98733 0.0
C655 C 0.66024 0.98533 0.92916 0.0
C656 C 0.67291 0.96985 0.91267 0.0
H657 H 0.57251 0.02386 0.65813 0.0
H658 H 0.60304 0.01165 0.70072 0.0
C659 C 0.68798 0.96572 0.95579 0.0
C660 C 0.64309 0.98916 0.88801 0.0
H661 H 0.59559 0.97121 0.84783 0.0
C662 C 0.64281 0.00779 0.86142 0.0
C663 C 0.62596 0.9757 0.88269 0.0
C664 C 0.62522 0.95573 0.91247 0.0
C665 C 0.6256 0.01363 0.83153 0.0
C666 C 0.60837 1.00025 0.8267 0.0
C667 C 0.60885 0.98138 0.85153 0.0
C668 C 0.5894 0.00598 0.79893 0.0
C669 C 0.62571 0.03441 0.80842 0.0
C670 C 0.57135 0.00605 0.83913 0.0
C671 C 0.55375 0.01279 0.81452 0.0
C672 C 0.55405 0.01956 0.74954 0.0
C673 C 0.57199 0.01903 0.70893 0.0
C674 C 0.58944 0.01207 0.73313 0.0
H675 H 0.63796 0.04414 0.83083 0.0
H676 H 0.62831 0.03422 0.75326 0.0
H677 H 0.61096 0.04088 0.82141 0.0
H678 H 0.57101 0.00133 0.89004 0.0
H679 H 0.54009 0.01312 0.84662 0.0
H680 H 0.52567 0.70956 0.98968 0.0
H681 H 0.51385 0.67965 0.92585 0.0
H682 H 0.5717 0.65523 0.94521 0.0
H683 H 0.58337 0.68487 0.00999 0.0
H684 H 0.52741 0.65601 0.811 0.0
H685 H 0.53046 0.6187 0.04992 0.0
H686 H 0.53278 0.64514 0.04531 0.0
H687 H 0.55419 0.6308 0.02287 0.0
C688 C 0.53606 0.69808 0.97812 0.0
C689 C 0.55535 0.69937 0.00489 0.0
C690 C 0.52928 0.68099 0.94206 0.0
C691 C 0.54176 0.6651 0.93233 0.0
C692 C 0.56173 0.66721 0.95338 0.0
H693 H 0.52709 0.55481 0.70918 0.0
H694 H 0.53467 0.58872 0.74687 0.0
C695 C 0.56843 0.68416 0.98985 0.0
C696 C 0.5333 0.6456 0.90735 0.0
H697 H 0.5241 0.59817 0.95327 0.0
C698 C 0.52655 0.64335 0.84203 0.0
C699 C 0.53172 0.62926 0.94867 0.0
C700 C 0.53747 0.63107 0.02082 0.0
C701 C 0.51894 0.62494 0.81602 0.0
C702 C 0.51843 0.60834 0.85625 0.0
C703 C 0.52456 0.61083 0.9223 0.0
C704 C 0.51257 0.58807 0.83036 0.0
C705 C 0.51142 0.62355 0.74597 0.0
C706 C 0.4981 0.57601 0.86581 0.0
C707 C 0.49391 0.55636 0.84423 0.0
C708 C 0.5039 0.54858 0.78643 0.0
C709 C 0.5184 0.5606 0.75156 0.0
C710 C 0.52279 0.58009 0.77339 0.0
H711 H 0.50617 0.63787 0.73176 0.0
H712 H 0.52404 0.61967 0.7101 0.0
H713 H 0.49876 0.61213 0.74071 0.0
H714 H 0.49021 0.58174 0.91057 0.0
H715 H 0.48283 0.54727 0.87252 0.0
H716 H 0.82045 0.49466 0.10374 0.0
H717 H 0.84877 0.48752 0.02626 0.0
H718 H 0.82732 0.52647 0.88567 0.0
H719 H 0.7994 0.53468 0.9655 0.0
H720 H 0.85426 0.47283 0.90216 0.0
H721 H 0.88289 0.55161 0.91624 0.0
H722 H 0.86186 0.5424 0.96891 0.0
H723 H 0.85834 0.54668 0.88254 0.0
C724 C 0.82173 0.50175 0.05634 0.0
C725 C 0.80805 0.51568 0.04154 0.0
C726 C 0.83783 0.49748 0.01172 0.0
C727 C 0.84049 0.50684 0.95085 0.0
C728 C 0.82588 0.5195 0.93321 0.0
H729 H 0.95136 0.47344 0.7184 0.0
H730 H 0.91534 0.47795 0.74577 0.0
C731 C 0.80981 0.524 0.97849 0.0
C732 C 0.85955 0.50436 0.90988 0.0
H733 H 0.904 0.52916 0.8617 0.0
C734 C 0.86507 0.48515 0.8924 0.0
C735 C 0.87365 0.52048 0.89765 0.0
C736 C 0.86904 0.54145 0.91765 0.0
C737 C 0.88472 0.4815 0.86704 0.0
C738 C 0.89898 0.4976 0.8567 0.0
C739 C 0.89304 0.51686 0.87007 0.0
C740 C 0.92065 0.49489 0.83828 0.0
C741 C 0.89031 0.46041 0.85576 0.0
C742 C 0.93563 0.50326 0.88024 0.0
C743 C 0.95614 0.50132 0.86326 0.0
C744 C 0.96203 0.49095 0.80407 0.0
C745 C 0.94711 0.48208 0.76308 0.0
C746 C 0.92656 0.48432 0.77938 0.0
H747 H 0.87921 0.44999 0.8813 0.0
H748 H 0.89054 0.4564 0.80141 0.0
H749 H 0.90559 0.45845 0.87399 0.0
H750 H 0.93142 0.5114 0.92611 0.0
H751 H 0.96739 0.50827 0.89576 0.0
H752 H 0.01467 0.18901 0.21309 0.0
H753 H 0.01411 0.16795 0.11102 0.0
H754 H 0.07028 0.19722 0.03903 0.0
H755 H 0.07102 0.21827 0.14257 0.0
H756 H 0.01564 0.1735 0.9729 0.0
H757 H 0.08425 0.13963 0.05463 0.0
H758 H 0.06999 0.15603 0.10934 0.0
H759 H 0.08628 0.16569 0.04271 0.0
C760 C 0.02669 0.19121 0.17485 0.0
C761 C 0.04301 0.20504 0.18576 0.0
C762 C 0.02633 0.17923 0.11651 0.0
C763 C 0.04232 0.18079 0.06801 0.0
C764 C 0.05794 0.19561 0.0764 0.0
H765 H 0.02997 0.0907 0.73584 0.0
H766 H 0.03732 0.1231 0.79155 0.0
C767 C 0.05828 0.2077 0.13509 0.0
C768 C 0.04331 0.16542 0.01318 0.0
H769 H 0.06718 0.12362 0.96619 0.0
C770 C 0.02714 0.16279 0.97021 0.0
C771 C 0.05824 0.1514 0.01054 0.0
C772 C 0.07564 0.15314 0.05687 0.0
C773 C 0.02487 0.14595 0.92722 0.0
C774 C 0.03935 0.13154 0.92666 0.0
C775 C 0.05614 0.13473 0.96683 0.0
C776 C 0.03612 0.11205 0.89126 0.0
C777 C 0.00631 0.1431 0.8861 0.0
C778 C 0.0336 0.09507 0.92858 0.0
C779 C 0.02959 0.07661 0.89691 0.0
C780 C 0.02807 0.07482 0.82732 0.0
C781 C 0.03102 0.09174 0.78968 0.0
C782 C 0.0351 0.11024 0.82141 0.0
H783 H 0.99491 0.15399 0.90093 0.0
H784 H 0.01086 0.14485 0.83256 0.0
H785 H 0.99903 0.12806 0.89118 0.0
H786 H 0.03433 0.09615 0.98255 0.0
H787 H 0.0274 0.06379 0.92701 0.0
H788 H 0.32728 0.08566 0.14845 0.0
H789 H 0.35393 0.08303 0.05974 0.0
H790 H 0.33365 0.02236 0.01837 0.0
H791 H 0.30668 0.02516 0.10597 0.0
H792 H 0.38305 0.05828 0.07666 0.0
H793 H 0.34956 0.04006 0.83173 0.0
H794 H 0.33521 0.05049 0.90243 0.0
H795 H 0.3391 0.02455 0.89638 0.0
C796 C 0.32792 0.07209 0.11803 0.0
C797 C 0.3149 0.05565 0.13346 0.0
C798 C 0.34323 0.07054 0.0678 0.0
C799 C 0.34583 0.05249 0.03243 0.0
C800 C 0.33174 0.03653 0.04402 0.0
H801 H 0.46074 0.00727 0.89286 0.0
H802 H 0.42919 0.01506 0.95475 0.0
C803 C 0.31628 0.03814 0.09396 0.0
C804 C 0.36498 0.0495 0.9924 0.0
H805 H 0.38442 0.03309 0.84019 0.0
C806 C 0.38334 0.05299 0.02469 0.0
C807 C 0.36538 0.04259 0.92467 0.0
C808 C 0.34627 0.03938 0.88653 0.0
C809 C 0.40202 0.04945 0.99159 0.0
C810 C 0.40237 0.04182 0.92471 0.0
C811 C 0.38408 0.03872 0.89179 0.0
C812 C 0.42161 0.03719 0.88786 0.0
C813 C 0.42124 0.05409 0.02841 0.0
C814 C 0.42768 0.04687 0.82939 0.0
C815 C 0.44566 0.04245 0.79394 0.0
C816 C 0.45793 0.02815 0.81603 0.0
C817 C 0.45183 0.01851 0.87485 0.0
C818 C 0.43379 0.02296 0.91032 0.0
H819 H 0.41882 0.06456 0.07196 0.0
H820 H 0.42637 0.04031 0.04736 0.0
H821 H 0.43354 0.0605 0.99477 0.0
H822 H 0.41848 0.05786 0.81111 0.0
H823 H 0.44973 0.05008 0.74855 0.0
H824 H 0.42203 0.31958 0.12931 0.0
H825 H 0.42694 0.34156 0.03642 0.0
H826 H 0.48302 0.31531 0.97609 0.0
H827 H 0.47813 0.2933 0.06989 0.0
H828 H 0.48783 0.355 0.0047 0.0
H829 H 0.42489 0.34026 0.834 0.0
H830 H 0.41603 0.34224 0.92004 0.0
H831 H 0.43162 0.32249 0.89179 0.0
C832 C 0.43494 0.31795 0.09444 0.0
C833 C 0.44965 0.30472 0.1063 0.0
C834 C 0.43773 0.33048 0.04125 0.0
C835 C 0.45528 0.33002 0.99892 0.0
C836 C 0.46929 0.3158 0.00784 0.0
H837 H 0.50011 0.42054 0.7218 0.0
H838 H 0.49186 0.38859 0.77115 0.0
C839 C 0.46643 0.30315 0.061 0.0
C840 C 0.46048 0.34642 0.95373 0.0
H841 H 0.44166 0.37292 0.83296 0.0
C842 C 0.47795 0.35866 0.96618 0.0
C843 C 0.44751 0.35131 0.90385 0.0
C844 C 0.42907 0.33826 0.88613 0.0
C845 C 0.48229 0.37607 0.93219 0.0
C846 C 0.46887 0.38135 0.88454 0.0
C847 C 0.4518 0.36884 0.87012 0.0
C848 C 0.47224 0.40022 0.85104 0.0
C849 C 0.50083 0.38914 0.94888 0.0
C850 C 0.46369 0.41721 0.87937 0.0
C851 C 0.46837 0.43547 0.85138 0.0
C852 C 0.48173 0.43696 0.79486 0.0
C853 C 0.48984 0.41981 0.76561 0.0
C854 C 0.4851 0.40157 0.79348 0.0
H855 H 0.50994 0.3828 0.98663 0.0
H856 H 0.51057 0.39152 0.90287 0.0
H857 H 0.49613 0.40377 0.96852 0.0
H858 H 0.45381 0.41639 0.92409 0.0
H859 H 0.46194 0.44847 0.87483 0.0
H860 H 0.20683 0.44537 0.11407 0.0
H861 H 0.18212 0.44375 0.02686 0.0
H862 H 0.19989 0.50386 0.98138 0.0
H863 H 0.22491 0.5053 0.06765 0.0
H864 H 0.1518 0.46877 0.05138 0.0
H865 H 0.18641 0.47979 0.79716 0.0
H866 H 0.20049 0.47155 0.86439 0.0
H867 H 0.1961 0.49721 0.85971 0.0
C868 C 0.20624 0.45782 0.08273 0.0
C869 C 0.2178 0.47541 0.09704 0.0
C870 C 0.19202 0.45695 0.03332 0.0
C871 C 0.18909 0.47369 0.99765 0.0
C872 C 0.2021 0.49065 0.0073 0.0
H873 H 0.0888 0.51873 0.80589 0.0
H874 H 0.12153 0.51299 0.8515 0.0
C875 C 0.21646 0.49146 0.0565 0.0
C876 C 0.17012 0.47475 0.96181 0.0
H877 H 0.15108 0.48566 0.81367 0.0
C878 C 0.15165 0.47214 -0.00094 0.0
C879 C 0.16996 0.47952 0.89399 0.0
C880 C 0.1893 0.48201 0.85123 0.0
C881 C 0.13306 0.4746 0.97097 0.0
C882 C 0.13285 0.47942 0.90319 0.0
C883 C 0.15129 0.4819 0.86557 0.0
C884 C 0.11358 0.48244 0.8715 0.0
C885 C 0.11386 0.47274 0.01495 0.0
C886 C 0.09841 0.46709 0.86669 0.0
C887 C 0.07968 0.47039 0.8413 0.0
C888 C 0.07589 0.48905 0.81981 0.0
C889 C 0.09128 0.50425 0.82278 0.0
C890 C 0.11 0.50096 0.84838 0.0
H891 H 0.11706 0.47388 0.06895 0.0
H892 H 0.10346 0.48429 0.00482 0.0
H893 H 0.10591 0.45815 0.00438 0.0
H894 H 0.10099 0.4526 0.8832 0.0
H895 H 0.06815 0.45836 0.83877 0.0
H896 H 0.9798 0.79429 0.23333 0.0
H897 H 0.9778 0.81851 0.32757 0.0
H898 H 0.92349 0.83922 0.25192 0.0
H899 H 0.92579 0.81529 0.15703 0.0
H900 H 0.95481 0.86715 0.25663 0.0
H901 H 0.94512 0.8318 0.50034 0.0
H902 H 0.96451 0.8217 0.44549 0.0
H903 H 0.93851 0.81905 0.42245 0.0
C904 C 0.96689 0.80334 0.23894 0.0
C905 C 0.95285 0.80292 0.18866 0.0
C906 C 0.96574 0.81719 0.29272 0.0
C907 C 0.95044 0.83064 0.29694 0.0
C908 C 0.93534 0.82892 0.24983 0.0
H909 H 0.95056 0.94826 0.49462 0.0
H910 H 0.93971 0.91729 0.43549 0.0
C911 C 0.93658 0.8152 0.19594 0.0
C912 C 0.95253 0.84867 0.34121 0.0
H913 H 0.95846 0.86549 0.50282 0.0
C914 C 0.95524 0.86682 0.31061 0.0
C915 C 0.95341 0.84816 0.41141 0.0
C916 C 0.95005 0.82914 0.44701 0.0
C917 C 0.95946 0.88441 0.34789 0.0
C918 C 0.96057 0.88392 0.41807 0.0
C919 C 0.95752 0.86582 0.44901 0.0
C920 C 0.96592 0.90198 0.45932 0.0
C921 C 0.96361 0.90323 0.31129 0.0
C922 C 0.98385 0.90339 0.4943 0.0
C923 C 0.98997 0.92098 0.52844 0.0
C924 C 0.97826 0.93744 0.52801 0.0
C925 C 0.95998 0.93584 0.49491 0.0
C926 C 0.9538 0.91819 0.46112 0.0
H927 H 0.96699 0.9003 0.25696 0.0
H928 H 0.95003 0.91201 0.31687 0.0
H929 H 0.97659 0.91225 0.33227 0.0
H930 H 0.99339 0.89103 0.49367 0.0
H931 H 0.00404 0.9218 0.55419 0.0
H932 H 0.68894 0.93475 0.24201 0.0
H933 H 0.6618 0.93711 0.32949 0.0
H934 H 0.67811 0.99909 0.36081 0.0
H935 H 0.7054 0.99666 0.27395 0.0
H936 H 0.66156 0.97869 0.48048 0.0
H937 H 0.61499 0.96736 0.2565 0.0
H938 H 0.63179 0.94831 0.26899 0.0
H939 H 0.64211 0.97258 0.25034 0.0
C940 C 0.68744 0.94858 0.27039 0.0
C941 C 0.69928 0.96549 0.25215 0.0
C942 C 0.67181 0.94998 0.31968 0.0
C943 C 0.66776 0.96835 0.35052 0.0
C944 C 0.68102 0.98479 0.33754 0.0
H945 H 0.55276 0.0137 0.48313 0.0
H946 H 0.58518 0.00649 0.42569 0.0
C947 C 0.6967 0.98338 0.2884 0.0
C948 C 0.648 0.97117 0.38651 0.0
H949 H 0.59739 0.97164 0.36067 0.0
C950 C 0.64749 0.97702 0.45462 0.0
C951 C 0.62977 0.96945 0.35193 0.0
C952 C 0.62958 0.96425 0.27779 0.0
C953 C 0.62909 0.98099 0.48937 0.0
C954 C 0.61083 0.97883 0.45501 0.0
C955 C 0.61141 0.97313 0.38685 0.0
C956 C 0.59093 0.98272 0.48855 0.0
C957 C 0.6294 0.98794 0.56203 0.0
C958 C 0.58318 0.97134 0.54145 0.0
C959 C 0.56465 0.97533 0.57407 0.0
C960 C 0.55344 0.99075 0.55422 0.0
C961 C 0.56093 0.00169 0.49959 0.0
C962 C 0.5795 0.99766 0.46693 0.0
H963 H 0.64486 0.9934 0.57631 0.0
H964 H 0.61889 0.99988 0.57307 0.0
H965 H 0.62435 0.97549 0.59381 0.0
H966 H 0.59154 0.95944 0.55785 0.0
H967 H 0.55938 0.96654 0.61584 0.0
H968 H 0.59743 0.70277 0.22012 0.0
H969 H 0.59581 0.67867 0.30733 0.0
H970 H 0.5349 0.69377 0.3656 0.0
H971 H 0.53665 0.71815 0.27889 0.0
H972 H 0.56061 0.6816 0.47541 0.0
H973 H 0.55644 0.63034 0.25068 0.0
H974 H 0.57809 0.64771 0.252 0.0
H975 H 0.55315 0.65634 0.24708 0.0
C976 C 0.58412 0.70162 0.25387 0.0
C977 C 0.5672 0.7123 0.24337 0.0
C978 C 0.58313 0.68778 0.30322 0.0
C979 C 0.56512 0.68426 0.342 0.0
C980 C 0.54894 0.69633 0.33616 0.0
H981 H 0.50994 0.59081 0.57796 0.0
H982 H 0.52022 0.6224 0.52957 0.0
C983 C 0.54998 0.71031 0.287 0.0
C984 C 0.56192 0.66602 0.37939 0.0
H985 H 0.5553 0.61612 0.35519 0.0
C986 C 0.55955 0.66725 0.44939 0.0
C987 C 0.5604 0.64737 0.34501 0.0
C988 C 0.56198 0.64524 0.26954 0.0
C989 C 0.55588 0.65018 0.48609 0.0
C990 C 0.55419 0.63154 0.45155 0.0
C991 C 0.55675 0.63039 0.3816 0.0
C992 C 0.54884 0.613 0.48605 0.0
C993 C 0.55404 0.65225 0.56142 0.0
C994 C 0.56134 0.59708 0.47676 0.0
C995 C 0.55535 0.57892 0.50362 0.0
C996 C 0.53672 0.57637 0.53981 0.0
C997 C 0.52438 0.59238 0.55004 0.0
C998 C 0.53035 0.61051 0.52312 0.0
H999 H 0.56172 0.66627 0.58044 0.0
H1000 H 0.53776 0.65234 0.57781 0.0
H1001 H 0.56062 0.63979 0.58455 0.0
H1002 H 0.5756 0.59864 0.44785 0.0
H1003 H 0.56516 0.56681 0.49525 0.0
H1004 H 0.81317 0.5604 0.25449 0.0
H1005 H 0.8356 0.55813 0.3467 0.0
H1006 H 0.80031 0.5064 0.41128 0.0
H1007 H 0.77795 0.50853 0.31796 0.0
H1008 H 0.83409 0.55412 0.48852 0.0
H1009 H 0.85546 0.48622 0.34254 0.0
H1010 H 0.83955 0.50363 0.30996 0.0
H1011 H 0.82931 0.48683 0.37121 0.0
C1012 C 0.80968 0.5491 0.29027 0.0
C1013 C 0.79392 0.53464 0.27947 0.0
C1014 C 0.82254 0.54775 0.34273 0.0
C1015 C 0.81987 0.53186 0.38485 0.0
C1016 C 0.80276 0.51863 0.37865 0.0
H1017 H 0.91686 0.48721 0.605 0.0
H1018 H 0.8833 0.49226 0.56484 0.0
C1019 C 0.78987 0.51997 0.32595 0.0
C1020 C 0.83672 0.52755 0.42681 0.0
H1021 H 0.87484 0.49634 0.43377 0.0
C1022 C 0.84285 0.54135 0.47732 0.0
C1023 C 0.84825 0.51096 0.4115 0.0
C1024 C 0.84299 0.4961 0.35558 0.0
C1025 C 0.86039 0.53913 0.51235 0.0
C1026 C 0.87223 0.52288 0.4955 0.0
C1027 C 0.86571 0.50876 0.44662 0.0
C1028 C 0.89206 0.52068 0.52488 0.0
C1029 C 0.86617 0.55426 0.56671 0.0
C1030 C 0.90816 0.53492 0.51534 0.0
C1031 C 0.92735 0.53203 0.53801 0.0
C1032 C 0.93078 0.51477 0.57006 0.0
C1033 C 0.91464 0.50061 0.5801 0.0
C1034 C 0.89546 0.50351 0.55748 0.0
H1035 H 0.85283 0.56212 0.587 0.0
H1036 H 0.87306 0.54735 0.60841 0.0
H1037 H 0.87747 0.56534 0.54568 0.0
H1038 H 0.90601 0.54806 0.48886 0.0
H1039 H 0.93956 0.54317 0.52966 0.0
loop_
_geom_bond_atom_site_label_1
_geom_bond_atom_site_label_2
_geom_bond_distance
_geom_bond_site_symmetry_2
_ccdc_geom_bond_type
H0 C5 0.930 . S
H1 C8 0.930 1_556 S
H2 C10 0.930 . S
H3 C4 1.016 1_556 S
C4 H3 1.016 1_554 S
C4 N11 1.286 . S
C5 H0 0.930 . S
C5 C6 1.397 . S
C5 C7 1.361 . S
C6 C5 1.397 . S
C6 C10 1.390 . S
C7 C5 1.361 . S
C7 C8 1.393 . S
C7 N11 1.413 . S
C8 H1 0.930 1_554 S
C8 C7 1.393 . S
C8 C9 1.399 . S
C9 C8 1.399 . S
C9 C10 1.381 . S
C10 H2 0.930 . S
C10 C6 1.390 . S
C10 C9 1.381 . S
N11 C4 1.286 . S
N11 C7 1.413 . S
H12 C17 0.930 . S
H13 C20 0.930 . S
H14 C22 0.930 . S
H15 C16 1.016 . S
C16 H15 1.016 . S
C16 N23 1.286 1_556 S
C17 H12 0.930 . S
C17 C18 1.397 . S
C17 C19 1.361 . S
C18 C17 1.397 . S
C18 C22 1.390 . S
C19 C17 1.361 . S
C19 C20 1.393 1_554 S
C19 N23 1.413 . S
C20 H13 0.930 . S
C20 C19 1.393 1_556 S
C20 C21 1.399 . S
C21 C20 1.399 . S
C21 C22 1.381 1_556 S
C22 H14 0.930 . S
C22 C18 1.390 . S
C22 C21 1.381 1_554 S
N23 C16 1.286 1_554 S
N23 C19 1.413 . S
H24 C29 0.930 . S
H25 C32 0.930 1_556 S
H26 C34 0.930 . S
H27 C28 1.016 1_556 S
C28 H27 1.016 1_554 S
C28 N35 1.286 . S
C29 H24 0.930 . S
C29 C30 1.397 . S
C29 C31 1.361 . S
C30 C29 1.397 . S
C30 C34 1.390 . S
C31 C29 1.361 . S
C31 C32 1.393 . S
C31 N35 1.413 . S
C32 H25 0.930 1_554 S
C32 C31 1.393 . S
C32 C33 1.399 . S
C33 C32 1.399 . S
C33 C34 1.381 . S
C34 H26 0.930 . S
C34 C30 1.390 . S
C34 C33 1.381 . S
N35 C28 1.286 . S
N35 C31 1.413 . S
H36 C41 0.930 . S
H37 C44 0.930 1_556 S
H38 C46 0.930 . S
H39 C40 1.016 1_556 S
C40 H39 1.016 1_554 S
C40 N47 1.286 . S
C41 H36 0.930 . S
C41 C42 1.397 . S
C41 C43 1.361 . S
C42 C41 1.397 . S
C42 C46 1.390 . S
C43 C41 1.361 . S
C43 C44 1.393 . S
C43 N47 1.413 . S
C44 H37 0.930 1_554 S
C44 C43 1.393 . S
C44 C45 1.399 . S
C45 C44 1.399 . S
C45 C46 1.381 . S
C46 H38 0.930 . S
C46 C42 1.390 . S
C46 C45 1.381 . S
N47 C40 1.286 . S
N47 C43 1.413 . S
H48 C53 0.930 . S
H49 C56 0.930 . S
H50 C58 0.930 . S
H51 C52 1.016 . S
C52 H51 1.016 . S
C52 N59 1.286 . S
C53 H48 0.930 . S
C53 C54 1.397 . S
C53 C55 1.361 . S
C54 C53 1.397 . S
C54 C58 1.390 . S
C55 C53 1.361 . S
C55 C56 1.393 . S
C55 N59 1.413 . S
C56 H49 0.930 . S
C56 C55 1.393 . S
C56 C57 1.399 . S
C57 C56 1.399 . S
C57 C58 1.381 . S
C58 H50 0.930 . S
C58 C54 1.390 . S
C58 C57 1.381 . S
N59 C52 1.286 . S
N59 C55 1.413 . S
H60 C65 0.930 . S
H61 C68 0.930 . S
H62 C70 0.930 . S
H63 C64 1.016 . S
C64 H63 1.016 . S
C64 N71 1.286 . S
C65 H60 0.930 . S
C65 C66 1.397 . S
C65 C67 1.361 . S
C66 C65 1.397 . S
C66 C70 1.390 . S
C67 C65 1.361 . S
C67 C68 1.393 . S
C67 N71 1.413 . S
C68 H61 0.930 . S
C68 C67 1.393 . S
C68 C69 1.399 . S
C69 C68 1.399 . S
C69 C70 1.381 . S
C70 H62 0.930 . S
C70 C66 1.390 . S
C70 C69 1.381 . S
N71 C64 1.286 . S
N71 C67 1.413 . S
H72 C77 0.930 . S
H73 C80 0.930 . S
H74 C82 0.930 . S
H75 C76 1.016 . S
C76 H75 1.016 . S
C76 N83 1.286 . S
C77 H72 0.930 . S
C77 C78 1.397 . S
C77 C79 1.361 . S
C78 C77 1.397 . S
C78 C82 1.390 . S
C79 C77 1.361 . S
C79 C80 1.393 . S
C79 N83 1.413 . S
C80 H73 0.930 . S
C80 C79 1.393 . S
C80 C81 1.399 . S
C81 C80 1.399 . S
C81 C82 1.381 . S
C82 H74 0.930 . S
C82 C78 1.390 . S
C82 C81 1.381 . S
N83 C76 1.286 . S
N83 C79 1.413 . S
H84 C89 0.930 . S
H85 C92 0.930 . S
H86 C94 0.930 . S
H87 C88 1.016 . S
C88 H87 1.016 . S
C88 N95 1.286 . S
C89 H84 0.930 . S
C89 C90 1.397 . S
C89 C91 1.361 . S
C90 C89 1.397 . S
C90 C94 1.390 . S
C91 C89 1.361 . S
C91 C92 1.393 . S
C91 N95 1.413 . S
C92 H85 0.930 . S
C92 C91 1.393 . S
C92 C93 1.399 . S
C93 C92 1.399 . S
C93 C94 1.381 . S
C94 H86 0.930 . S
C94 C90 1.390 . S
C94 C93 1.381 . S
N95 C88 1.286 . S
N95 C91 1.413 . S
Tb96 O99 2.453 1_565 S
Tb96 O100 2.596 1_665 S
Tb96 O101 2.374 1_665 S
Tb96 O109 2.343 1_655 S
Tb96 O111 2.353 1_565 S
Tb96 O113 2.427 . S
Tb96 O114 2.513 1_655 S
C97 O101 1.251 . S
C97 O103 1.263 . S
Tb98 O100 2.343 . S
Tb98 O103 2.353 . S
Tb98 O106 2.427 . S
Tb98 O107 2.513 . S
Tb98 O108 2.453 1_545 S
Tb98 O109 2.596 1_545 S
Tb98 O110 2.374 1_455 S
O99 Tb96 2.453 1_545 S
O99 C115 1.245 1_655 S
O100 Tb96 2.596 1_445 S
O100 Tb98 2.343 . S
O100 C115 1.259 . S
O101 Tb96 2.374 1_445 S
O101 C97 1.251 . S
C102 O106 1.275 . S
C102 O107 1.246 . S
O103 C97 1.263 . S
O103 Tb98 2.353 . S
C104 O108 1.245 . S
C104 O109 1.259 . S
C105 O110 1.250 . S
C105 O111 1.263 . S
O106 Tb98 2.427 . S
O106 C102 1.275 . S
O107 Tb98 2.513 . S
O107 C102 1.246 . S
O108 Tb98 2.453 1_565 S
O108 C104 1.245 . S
O109 Tb96 2.343 1_455 S
O109 Tb98 2.596 1_565 S
O109 C104 1.259 . S
O110 Tb98 2.374 1_655 S
O110 C105 1.250 . S
O111 Tb96 2.353 1_545 S
O111 C105 1.263 . S
C112 O113 1.275 . S
C112 O114 1.246 1_655 S
O113 Tb96 2.427 . S
O113 C112 1.275 . S
O114 Tb96 2.513 1_455 S
O114 C112 1.246 1_455 S
C115 O99 1.245 1_455 S
C115 O100 1.259 . S
Tb116 O119 2.453 . S
Tb116 O120 2.596 1_545 S
Tb116 O121 2.374 . S
Tb116 O129 2.343 . S
Tb116 O131 2.353 . S
Tb116 O133 2.427 . S
Tb116 O134 2.513 . S
C117 O121 1.214 1_565 S
C117 O123 1.291 . S
Tb118 O120 2.343 . S
Tb118 O123 2.353 . S
Tb118 O126 2.427 . S
Tb118 O127 2.513 . S
Tb118 O128 2.453 . S
Tb118 O129 2.596 1_565 S
Tb118 O130 2.374 . S
O119 Tb116 2.453 . S
O119 C135 1.245 . S
O120 Tb116 2.596 1_565 S
O120 Tb118 2.343 . S
O120 C135 1.259 1_565 S
O121 Tb116 2.374 . S
O121 C117 1.214 1_545 S
C122 O126 1.275 . S
C122 O127 1.246 . S
O123 C117 1.291 . S
O123 Tb118 2.353 . S
C124 O128 1.245 1_545 S
C124 O129 1.259 . S
C125 O130 1.250 1_545 S
C125 O131 1.263 . S
O126 Tb118 2.427 . S
O126 C122 1.275 . S
O127 Tb118 2.513 . S
O127 C122 1.246 . S
O128 Tb118 2.453 . S
O128 C124 1.245 1_565 S
O129 Tb116 2.343 . S
O129 Tb118 2.596 1_545 S
O129 C124 1.259 . S
O130 Tb118 2.374 . S
O130 C125 1.250 1_565 S
O131 Tb116 2.353 . S
O131 C125 1.263 . S
C132 O133 1.275 . S
C132 O134 1.246 . S
O133 Tb116 2.427 . S
O133 C132 1.275 . S
O134 Tb116 2.513 . S
O134 C132 1.246 . S
C135 O119 1.245 . S
C135 O120 1.259 1_545 S
Tb136 O139 2.453 . S
Tb136 O140 2.596 . S
Tb136 O141 2.374 . S
Tb136 O149 2.343 . S
Tb136 O151 2.353 . S
Tb136 O153 2.427 . S
Tb136 O154 2.513 . S
C137 O141 1.251 . S
C137 O143 1.263 . S
Tb138 O140 2.343 . S
Tb138 O143 2.353 . S
Tb138 O146 2.427 . S
Tb138 O147 2.513 . S
Tb138 O148 2.453 . S
Tb138 O149 2.596 . S
Tb138 O150 2.374 . S
O139 Tb136 2.453 . S
O139 C155 1.245 . S
O140 Tb136 2.596 . S
O140 Tb138 2.343 . S
O140 C155 1.259 . S
O141 Tb136 2.374 . S
O141 C137 1.251 . S
C142 O146 1.275 . S
C142 O147 1.246 . S
O143 C137 1.263 . S
O143 Tb138 2.353 . S
C144 O148 1.245 . S
C144 O149 1.259 . S
C145 O150 1.250 . S
C145 O151 1.263 . S
O146 Tb138 2.427 . S
O146 C142 1.275 . S
O147 Tb138 2.513 . S
O147 C142 1.246 . S
O148 Tb138 2.453 . S
O148 C144 1.245 . S
O149 Tb136 2.343 . S
O149 Tb138 2.596 . S
O149 C144 1.259 . S
O150 Tb138 2.374 . S
O150 C145 1.250 . S
O151 Tb136 2.353 . S
O151 C145 1.263 . S
C152 O153 1.275 . S
C152 O154 1.246 . S
O153 Tb136 2.427 . S
O153 C152 1.275 . S
O154 Tb136 2.513 . S
O154 C152 1.246 . S
C155 O139 1.245 . S
C155 O140 1.259 . S
Tb156 O159 2.453 1_655 S
Tb156 O160 2.596 1_655 S
Tb156 O161 2.374 1_655 S
Tb156 O169 2.343 . S
Tb156 O171 2.353 1_655 S
Tb156 O173 2.427 . S
Tb156 O174 2.513 . S
C157 O161 1.251 . S
C157 O163 1.263 . S
Tb158 O160 2.343 . S
Tb158 O163 2.353 . S
Tb158 O166 2.427 . S
Tb158 O167 2.513 . S
Tb158 O168 2.453 1_455 S
Tb158 O169 2.596 1_455 S
Tb158 O170 2.374 . S
O159 Tb156 2.453 1_455 S
O159 C175 1.245 . S
O160 Tb156 2.596 1_455 S
O160 Tb158 2.343 . S
O160 C175 1.259 . S
O161 Tb156 2.374 1_455 S
O161 C157 1.251 . S
C162 O166 1.275 . S
C162 O167 1.246 . S
O163 C157 1.263 . S
O163 Tb158 2.353 . S
C164 O168 1.245 . S
C164 O169 1.259 . S
C165 O170 1.250 . S
C165 O171 1.263 . S
O166 Tb158 2.427 . S
O166 C162 1.275 . S
O167 Tb158 2.513 . S
O167 C162 1.246 . S
O168 Tb158 2.453 1_655 S
O168 C164 1.245 . S
O169 Tb156 2.343 . S
O169 Tb158 2.596 1_655 S
O169 C164 1.259 . S
O170 Tb158 2.374 . S
O170 C165 1.250 . S
O171 Tb156 2.353 1_455 S
O171 C165 1.263 . S
C172 O173 1.275 . S
C172 O174 1.246 . S
O173 Tb156 2.427 . S
O173 C172 1.275 . S
O174 Tb156 2.513 . S
O174 C172 1.246 . S
C175 O159 1.245 . S
C175 O160 1.259 . S
H176 C184 0.929 . S
H177 C186 0.930 . S
H178 C188 0.930 . S
H179 C191 0.929 . S
H180 C194 0.930 . S
H181 C196 0.960 . S
H182 C196 0.960 . S
H183 C196 0.960 . S
C184 H176 0.929 . S
C184 C185 1.377 . S
C184 C186 1.384 . S
C185 C184 1.377 . S
C185 C191 1.390 . S
C186 H177 0.930 . S
C186 C184 1.384 . S
C186 C187 1.372 . S
C187 C186 1.372 . S
C187 C188 1.400 . S
C187 C192 1.490 . S
C188 H178 0.930 . S
C188 C187 1.400 . S
C188 C191 1.386 . S
H189 C205 0.930 . S
H190 C206 0.931 . S
C191 H179 0.929 . S
C191 C185 1.390 . S
C191 C188 1.386 . S
C192 C187 1.490 . S
C192 C194 1.395 . S
C192 C195 1.403 . S
H193 C199 0.930 . S
C194 H180 0.930 . S
C194 C192 1.395 . S
C194 C197 1.403 . S
C195 C192 1.403 . S
C195 C196 1.524 . S
C195 C199 1.400 . S
C196 H181 0.960 . S
C196 H182 0.960 . S
C196 H183 0.960 . S
C196 C195 1.524 . S
C197 C194 1.403 . S
C197 C198 1.392 . S
C197 C201 1.495 . S
C198 C197 1.392 . S
C198 C199 1.385 . S
C198 C200 1.478 . S
C199 H193 0.930 . S
C199 C195 1.400 . S
C199 C198 1.385 . S
C200 C198 1.478 . S
C200 C202 1.381 . S
C200 C206 1.383 . S
C201 C197 1.495 . S
C201 H207 0.959 . S
C201 H208 0.961 . S
C201 H209 0.960 . S
C202 C200 1.381 . S
C202 C203 1.394 . S
C202 H210 0.930 . S
C203 C202 1.394 . S
C203 C204 1.383 . S
C203 H211 0.929 1_545 S
C204 C203 1.383 . S
C204 C205 1.377 . S
C205 H189 0.930 . S
C205 C204 1.377 . S
C205 C206 1.379 . S
C206 H190 0.931 . S
C206 C200 1.383 . S
C206 C205 1.379 . S
H207 C201 0.959 . S
H208 C201 0.961 . S
H209 C201 0.960 . S
H210 C202 0.930 . S
H211 C203 0.929 1_565 S
H212 C220 0.929 . S
H213 C222 0.930 . S
H214 C224 0.930 . S
H215 C227 0.929 . S
H216 C230 0.930 . S
H217 C232 0.960 . S
H218 C232 0.960 . S
H219 C232 0.960 . S
C220 H212 0.929 . S
C220 C221 1.377 . S
C220 C222 1.384 . S
C221 C220 1.377 . S
C221 C227 1.390 . S
C222 H213 0.930 . S
C222 C220 1.384 . S
C222 C223 1.372 . S
C223 C222 1.372 . S
C223 C224 1.400 . S
C223 C228 1.490 . S
C224 H214 0.930 . S
C224 C223 1.400 . S
C224 C227 1.386 . S
H225 C241 0.930 . S
H226 C242 0.931 . S
C227 H215 0.929 . S
C227 C221 1.390 . S
C227 C224 1.386 . S
C228 C223 1.490 . S
C228 C230 1.395 . S
C228 C231 1.403 . S
H229 C235 0.930 . S
C230 H216 0.930 . S
C230 C228 1.395 . S
C230 C233 1.403 . S
C231 C228 1.403 . S
C231 C232 1.524 . S
C231 C235 1.400 . S
C232 H217 0.960 . S
C232 H218 0.960 . S
C232 H219 0.960 . S
C232 C231 1.524 . S
C233 C230 1.403 . S
C233 C234 1.392 . S
C233 C237 1.495 . S
C234 C233 1.392 . S
C234 C235 1.385 . S
C234 C236 1.478 . S
C235 H229 0.930 . S
C235 C231 1.400 . S
C235 C234 1.385 . S
C236 C234 1.478 . S
C236 C238 1.381 . S
C236 C242 1.383 . S
C237 C233 1.495 . S
C237 H243 0.959 . S
C237 H244 0.961 . S
C237 H245 0.960 . S
C238 C236 1.381 . S
C238 C239 1.394 . S
C238 H246 0.930 . S
C239 C238 1.394 . S
C239 C240 1.383 . S
C239 H247 0.929 . S
C240 C239 1.383 . S
C240 C241 1.377 . S
C241 H225 0.930 . S
C241 C240 1.377 . S
C241 C242 1.379 . S
C242 H226 0.931 . S
C242 C236 1.383 . S
C242 C241 1.379 . S
H243 C237 0.959 . S
H244 C237 0.961 . S
H245 C237 0.960 . S
H246 C238 0.930 . S
H247 C239 0.929 . S
H248 C256 0.929 . S
H249 C258 0.930 . S
H250 C260 0.930 . S
H251 C263 0.929 . S
H252 C266 0.930 . S
H253 C268 0.960 . S
H254 C268 0.960 . S
H255 C268 0.960 . S
C256 H248 0.929 . S
C256 C257 1.377 . S
C256 C258 1.384 . S
C257 C256 1.377 . S
C257 C263 1.390 . S
C258 H249 0.930 . S
C258 C256 1.384 . S
C258 C259 1.372 . S
C259 C258 1.372 . S
C259 C260 1.400 . S
C259 C264 1.490 . S
C260 H250 0.930 . S
C260 C259 1.400 . S
C260 C263 1.386 . S
H261 C277 0.930 . S
H262 C278 0.931 . S
C263 H251 0.929 . S
C263 C257 1.390 . S
C263 C260 1.386 . S
C264 C259 1.490 . S
C264 C266 1.395 . S
C264 C267 1.403 . S
H265 C271 0.930 . S
C266 H252 0.930 . S
C266 C264 1.395 . S
C266 C269 1.403 . S
C267 C264 1.403 . S
C267 C268 1.524 . S
C267 C271 1.400 . S
C268 H253 0.960 . S
C268 H254 0.960 . S
C268 H255 0.960 . S
C268 C267 1.524 . S
C269 C266 1.403 . S
C269 C270 1.392 . S
C269 C273 1.495 . S
C270 C269 1.392 . S
C270 C271 1.385 . S
C270 C272 1.478 . S
C271 H265 0.930 . S
C271 C267 1.400 . S
C271 C270 1.385 . S
C272 C270 1.478 . S
C272 C274 1.381 . S
C272 C278 1.383 . S
C273 C269 1.495 . S
C273 H279 0.959 . S
C273 H280 0.961 . S
C273 H281 0.960 . S
C274 C272 1.381 . S
C274 C275 1.394 . S
C274 H282 0.930 . S
C275 C274 1.394 . S
C275 C276 1.383 . S
C275 H283 0.929 . S
C276 C275 1.383 . S
C276 C277 1.377 . S
C277 H261 0.930 . S
C277 C276 1.377 . S
C277 C278 1.379 . S
C278 H262 0.931 . S
C278 C272 1.383 . S
C278 C277 1.379 . S
H279 C273 0.959 . S
H280 C273 0.961 . S
H281 C273 0.960 . S
H282 C274 0.930 . S
H283 C275 0.929 . S
H284 C292 0.929 . S
H285 C294 0.930 . S
H286 C296 0.930 . S
H287 C299 0.929 . S
H288 C302 0.930 . S
H289 C304 0.960 . S
H290 C304 0.960 . S
H291 C304 0.960 . S
C292 H284 0.929 . S
C292 C293 1.377 . S
C292 C294 1.384 . S
C293 C292 1.377 . S
C293 C299 1.390 . S
C294 H285 0.930 . S
C294 C292 1.384 . S
C294 C295 1.372 . S
C295 C294 1.372 . S
C295 C296 1.400 . S
C295 C300 1.490 . S
C296 H286 0.930 . S
C296 C295 1.400 . S
C296 C299 1.386 . S
H297 C313 0.930 1_655 S
H298 C314 0.931 1_655 S
C299 H287 0.929 . S
C299 C293 1.390 . S
C299 C296 1.386 . S
C300 C295 1.490 . S
C300 C302 1.395 . S
C300 C303 1.403 . S
H301 C307 0.930 . S
C302 H288 0.930 . S
C302 C300 1.395 . S
C302 C305 1.403 . S
C303 C300 1.403 . S
C303 C304 1.524 . S
C303 C307 1.400 . S
C304 H289 0.960 . S
C304 H290 0.960 . S
C304 H291 0.960 . S
C304 C303 1.524 . S
C305 C302 1.403 . S
C305 C306 1.392 . S
C305 C309 1.495 . S
C306 C305 1.392 . S
C306 C307 1.385 . S
C306 C308 1.478 . S
C307 H301 0.930 . S
C307 C303 1.400 . S
C307 C306 1.385 . S
C308 C306 1.478 . S
C308 C310 1.381 . S
C308 C314 1.383 . S
C309 C305 1.495 . S
C309 H315 0.959 . S
C309 H316 0.961 . S
C309 H317 0.960 . S
C310 C308 1.381 . S
C310 C311 1.394 . S
C310 H318 0.930 . S
C311 C310 1.394 . S
C311 C312 1.383 . S
C311 H319 0.929 . S
C312 C311 1.383 . S
C312 C313 1.377 . S
C313 H297 0.930 1_455 S
C313 C312 1.377 . S
C313 C314 1.379 . S
C314 H298 0.931 1_455 S
C314 C308 1.383 . S
C314 C313 1.379 . S
H315 C309 0.959 . S
H316 C309 0.961 . S
H317 C309 0.960 . S
H318 C310 0.930 . S
H319 C311 0.929 . S
H320 C328 0.929 . S
H321 C330 0.930 . S
H322 C332 0.930 1_554 S
H323 C335 0.929 . S
H324 C338 0.930 1_545 S
H325 C340 0.960 . S
H326 C340 0.960 . S
H327 C340 0.960 . S
C328 H320 0.929 . S
C328 C329 1.377 . S
C328 C330 1.384 . S
C329 C328 1.377 . S
C329 C335 1.390 1_556 S
C330 H321 0.930 . S
C330 C328 1.384 . S
C330 C331 1.372 . S
C331 C330 1.372 . S
C331 C332 1.400 . S
C331 C336 1.490 . S
C332 H322 0.930 1_556 S
C332 C331 1.400 . S
C332 C335 1.386 1_556 S
H333 C349 0.931 . S
H334 C350 0.931 . S
C335 H323 0.929 . S
C335 C329 1.390 1_554 S
C335 C332 1.386 1_554 S
C336 C331 1.490 . S
C336 C338 1.395 . S
C336 C339 1.403 . S
H337 C343 0.930 . S
C338 H324 0.930 1_565 S
C338 C336 1.395 . S
C338 C341 1.401 1_565 S
C339 C336 1.403 . S
C339 C340 1.524 . S
C339 C343 1.400 . S
C340 H325 0.960 . S
C340 H326 0.960 . S
C340 H327 0.960 . S
C340 C339 1.524 . S
C341 C338 1.401 1_545 S
C341 C342 1.386 1_545 S
C341 C345 1.504 . S
C342 C341 1.386 1_565 S
C342 C343 1.385 . S
C342 C344 1.478 . S
C343 H337 0.930 . S
C343 C339 1.400 . S
C343 C342 1.385 . S
C344 C342 1.478 . S
C344 C346 1.381 . S
C344 C350 1.383 . S
C345 C341 1.504 . S
C345 H351 0.959 . S
C345 H352 0.961 . S
C345 H353 0.960 . S
C346 C344 1.381 . S
C346 C347 1.394 . S
C346 H354 0.930 . S
C347 C346 1.394 . S
C347 C348 1.383 . S
C347 H355 0.929 . S
C348 C347 1.383 . S
C348 C349 1.377 . S
C349 H333 0.931 . S
C349 C348 1.377 . S
C349 C350 1.379 . S
C350 H334 0.931 . S
C350 C344 1.383 . S
C350 C349 1.379 . S
H351 C345 0.959 . S
H352 C345 0.961 . S
H353 C345 0.960 . S
H354 C346 0.930 . S
H355 C347 0.929 . S
H356 C364 0.929 . S
H357 C366 0.930 . S
H358 C368 0.930 . S
H359 C371 0.929 . S
H360 C374 0.930 1_554 S
H361 C376 0.960 . S
H362 C376 0.960 . S
H363 C376 0.960 . S
C364 H356 0.929 . S
C364 C365 1.377 . S
C364 C366 1.384 . S
C365 C364 1.377 . S
C365 C371 1.390 1_554 S
C366 H357 0.930 . S
C366 C364 1.384 . S
C366 C367 1.372 1_554 S
C367 C366 1.372 1_556 S
C367 C368 1.400 . S
C367 C372 1.490 . S
C368 H358 0.930 . S
C368 C367 1.400 . S
C368 C371 1.386 . S
H369 C385 0.930 . S
H370 C386 0.931 . S
C371 H359 0.929 . S
C371 C365 1.390 1_556 S
C371 C368 1.386 . S
C372 C367 1.490 . S
C372 C374 1.395 . S
C372 C375 1.403 . S
H373 C379 0.930 . S
C374 H360 0.930 1_556 S
C374 C372 1.395 . S
C374 C377 1.403 . S
C375 C372 1.403 . S
C375 C376 1.524 . S
C375 C379 1.400 . S
C376 H361 0.960 . S
C376 H362 0.960 . S
C376 H363 0.960 . S
C376 C375 1.524 . S
C377 C374 1.403 . S
C377 C378 1.392 . S
C377 C381 1.495 . S
C378 C377 1.392 . S
C378 C379 1.385 . S
C378 C380 1.478 . S
C379 H373 0.930 . S
C379 C375 1.400 . S
C379 C378 1.385 . S
C380 C378 1.478 . S
C380 C382 1.381 . S
C380 C386 1.383 . S
C381 C377 1.495 . S
C381 H387 0.959 1_556 S
C381 H388 0.961 . S
C381 H389 0.960 . S
C382 C380 1.381 . S
C382 C383 1.394 . S
C382 H390 0.930 . S
C383 C382 1.394 . S
C383 C384 1.383 . S
C383 H391 0.929 . S
C384 C383 1.383 . S
C384 C385 1.377 . S
C385 H369 0.930 . S
C385 C384 1.377 . S
C385 C386 1.379 . S
C386 H370 0.931 . S
C386 C380 1.383 . S
C386 C385 1.379 . S
H387 C381 0.959 1_554 S
H388 C381 0.961 . S
H389 C381 0.960 . S
H390 C382 0.930 . S
H391 C383 0.929 . S
H392 C400 0.929 . S
H393 C402 0.930 . S
H394 C404 0.930 . S
H395 C407 0.929 . S
H396 C410 0.930 . S
H397 C412 0.960 . S
H398 C412 0.960 . S
H399 C412 0.960 . S
C400 H392 0.929 . S
C400 C401 1.377 1_556 S
C400 C402 1.384 . S
C401 C400 1.377 1_554 S
C401 C407 1.390 . S
C402 H393 0.930 . S
C402 C400 1.384 . S
C402 C403 1.372 . S
C403 C402 1.372 . S
C403 C404 1.400 . S
C403 C408 1.490 . S
C404 H394 0.930 . S
C404 C403 1.400 . S
C404 C407 1.386 1_556 S
H405 C421 0.930 . S
H406 C422 0.931 . S
C407 H395 0.929 . S
C407 C401 1.390 . S
C407 C404 1.386 1_554 S
C408 C403 1.490 . S
C408 C410 1.395 . S
C408 C411 1.403 . S
H409 C415 0.930 . S
C410 H396 0.930 . S
C410 C408 1.395 . S
C410 C413 1.403 . S
C411 C408 1.403 . S
C411 C412 1.524 1_556 S
C411 C415 1.400 . S
C412 H397 0.960 . S
C412 H398 0.960 . S
C412 H399 0.960 . S
C412 C411 1.524 1_554 S
C413 C410 1.403 . S
C413 C414 1.392 . S
C413 C417 1.495 . S
C414 C413 1.392 . S
C414 C415 1.385 . S
C414 C416 1.478 . S
C415 H409 0.930 . S
C415 C411 1.400 . S
C415 C414 1.385 . S
C416 C414 1.478 . S
C416 C418 1.381 . S
C416 C422 1.383 . S
C417 C413 1.495 . S
C417 H423 0.959 . S
C417 H424 0.961 . S
C417 H425 0.960 . S
C418 C416 1.381 . S
C418 C419 1.394 . S
C418 H426 0.930 . S
C419 C418 1.394 . S
C419 C420 1.383 . S
C419 H427 0.929 . S
C420 C419 1.383 . S
C420 C421 1.377 . S
C421 H405 0.930 . S
C421 C420 1.377 . S
C421 C422 1.379 . S
C422 H406 0.931 . S
C422 C416 1.383 . S
C422 C421 1.379 . S
H423 C417 0.959 . S
H424 C417 0.961 . S
H425 C417 0.960 . S
H426 C418 0.930 . S
H427 C419 0.929 . S
H428 C436 0.929 . S
H429 C438 0.930 . S
H430 C440 0.930 . S
H431 C443 0.929 1_554 S
H432 C446 0.930 1_455 S
H433 C448 0.960 . S
H434 C448 0.960 . S
H435 C448 0.960 . S
C436 H428 0.929 . S
C436 C437 1.377 . S
C436 C438 1.384 . S
C437 C436 1.377 . S
C437 C443 1.390 . S
C438 H429 0.930 . S
C438 C436 1.384 . S
C438 C439 1.372 . S
C439 C438 1.372 . S
C439 C440 1.400 . S
C439 C444 1.490 . S
C440 H430 0.930 . S
C440 C439 1.400 . S
C440 C443 1.386 . S
H441 C457 0.930 . S
H442 C458 0.931 . S
C443 H431 0.929 1_556 S
C443 C437 1.390 . S
C443 C440 1.386 . S
C444 C439 1.490 . S
C444 C446 1.395 . S
C444 C447 1.403 . S
H445 C451 0.930 . S
C446 H432 0.930 1_655 S
C446 C444 1.395 . S
C446 C449 1.389 1_655 S
C447 C444 1.403 . S
C447 C448 1.524 . S
C447 C451 1.400 . S
C448 H433 0.960 . S
C448 H434 0.960 . S
C448 H435 0.960 . S
C448 C447 1.524 . S
C449 C446 1.389 1_455 S
C449 C450 1.363 1_455 S
C449 C453 1.539 . S
C450 C449 1.363 1_655 S
C450 C451 1.385 . S
C450 C452 1.478 . S
C451 H445 0.930 . S
C451 C447 1.400 . S
C451 C450 1.385 . S
C452 C450 1.478 . S
C452 C454 1.381 1_655 S
C452 C458 1.383 . S
C453 C449 1.539 . S
C453 H459 0.959 . S
C453 H460 0.961 . S
C453 H461 0.960 . S
C454 C452 1.381 1_455 S
C454 C455 1.394 . S
C454 H462 0.930 . S
C455 C454 1.394 . S
C455 C456 1.383 1_455 S
C455 H463 0.929 . S
C456 C455 1.383 1_655 S
C456 C457 1.377 . S
C457 H441 0.930 . S
C457 C456 1.377 . S
C457 C458 1.379 . S
C458 H442 0.931 . S
C458 C452 1.383 . S
C458 C457 1.379 . S
H459 C453 0.959 . S
H460 C453 0.961 . S
H461 C453 0.960 . S
H462 C454 0.930 . S
H463 C455 0.929 . S
H464 C472 0.929 . S
H465 C474 0.930 . S
H466 C476 0.930 . S
H467 C479 0.929 . S
H468 C482 0.930 . S
H469 C484 0.960 . S
H470 C484 0.960 . S
H471 C484 0.960 . S
C472 H464 0.929 . S
C472 C473 1.377 . S
C472 C474 1.384 . S
C473 C472 1.377 . S
C473 C479 1.390 . S
C474 H465 0.930 . S
C474 C472 1.384 . S
C474 C475 1.372 . S
C475 C474 1.372 . S
C475 C476 1.400 . S
C475 C480 1.490 . S
C476 H466 0.930 . S
C476 C475 1.400 . S
C476 C479 1.386 . S
H477 C493 0.930 . S
H478 C494 0.931 . S
C479 H467 0.929 . S
C479 C473 1.390 . S
C479 C476 1.386 . S
C480 C475 1.490 . S
C480 C482 1.395 . S
C480 C483 1.403 . S
H481 C487 0.930 . S
C482 H468 0.930 . S
C482 C480 1.395 . S
C482 C485 1.403 . S
C483 C480 1.403 . S
C483 C484 1.524 . S
C483 C487 1.400 . S
C484 H469 0.960 . S
C484 H470 0.960 . S
C484 H471 0.960 . S
C484 C483 1.524 . S
C485 C482 1.403 . S
C485 C486 1.392 . S
C485 C489 1.507 . S
C486 C485 1.392 . S
C486 C487 1.385 . S
C486 C488 1.478 . S
C487 H481 0.930 . S
C487 C483 1.400 . S
C487 C486 1.385 . S
C488 C486 1.478 . S
C488 C490 1.381 . S
C488 C494 1.383 . S
C489 C485 1.507 . S
C489 H495 0.953 1_455 S
C489 H496 0.969 . S
C489 H497 0.947 1_455 S
C490 C488 1.381 . S
C490 C491 1.394 1_455 S
C490 H498 0.930 1_455 S
C491 C490 1.394 1_655 S
C491 C492 1.383 1_655 S
C491 H499 0.929 . S
C492 C491 1.383 1_455 S
C492 C493 1.377 . S
C493 H477 0.930 . S
C493 C492 1.377 . S
C493 C494 1.379 . S
C494 H478 0.931 . S
C494 C488 1.383 . S
C494 C493 1.379 . S
H495 C489 0.953 1_655 S
H496 C489 0.969 . S
H497 C489 0.947 1_655 S
H498 C490 0.930 1_655 S
H499 C491 0.929 . S
H500 C508 0.929 . S
H501 C510 0.930 . S
H502 C512 0.930 . S
H503 C515 0.929 . S
H504 C518 0.930 . S
H505 C520 0.960 . S
H506 C520 0.960 . S
H507 C520 0.960 . S
C508 H500 0.929 . S
C508 C509 1.377 . S
C508 C510 1.384 . S
C509 C508 1.377 . S
C509 C515 1.390 . S
C510 H501 0.930 . S
C510 C508 1.384 . S
C510 C511 1.372 . S
C511 C510 1.372 . S
C511 C512 1.400 . S
C511 C516 1.490 . S
C512 H502 0.930 . S
C512 C511 1.400 . S
C512 C515 1.386 . S
H513 C529 0.930 . S
H514 C530 0.931 . S
C515 H503 0.929 . S
C515 C509 1.390 . S
C515 C512 1.386 . S
C516 C511 1.490 . S
C516 C518 1.395 . S
C516 C519 1.403 . S
H517 C523 0.930 . S
C518 H504 0.930 . S
C518 C516 1.395 . S
C518 C521 1.403 . S
C519 C516 1.403 . S
C519 C520 1.524 . S
C519 C523 1.400 . S
C520 H505 0.960 . S
C520 H506 0.960 . S
C520 H507 0.960 . S
C520 C519 1.524 . S
C521 C518 1.403 . S
C521 C522 1.392 . S
C521 C525 1.495 . S
C522 C521 1.392 . S
C522 C523 1.385 . S
C522 C524 1.478 . S
C523 H517 0.930 . S
C523 C519 1.400 . S
C523 C522 1.385 . S
C524 C522 1.478 . S
C524 C526 1.430 . S
C524 C530 1.383 . S
C525 C521 1.495 . S
C525 H531 0.960 . S
C525 H532 0.961 . S
C525 H533 0.960 1_545 S
C526 C524 1.430 . S
C526 C527 1.381 1_545 S
C526 H534 0.896 1_545 S
C527 C526 1.381 1_565 S
C527 C528 1.383 1_565 S
C527 H535 0.929 . S
C528 C527 1.383 1_545 S
C528 C529 1.377 . S
C529 H513 0.930 . S
C529 C528 1.377 . S
C529 C530 1.379 . S
C530 H514 0.931 . S
C530 C524 1.383 . S
C530 C529 1.379 . S
H531 C525 0.960 . S
H532 C525 0.961 . S
H533 C525 0.960 1_565 S
H534 C526 0.896 1_565 S
H535 C527 0.929 . S
H536 C544 0.929 . S
H537 C546 0.930 . S
H538 C548 0.930 . S
H539 C551 0.929 . S
H540 C554 0.930 . S
H541 C556 0.960 . S
H542 C556 0.960 . S
H543 C556 0.960 . S
C544 H536 0.929 . S
C544 C545 1.377 . S
C544 C546 1.384 . S
C545 C544 1.377 . S
C545 C551 1.390 . S
C546 H537 0.930 . S
C546 C544 1.384 . S
C546 C547 1.372 . S
C547 C546 1.372 . S
C547 C548 1.400 . S
C547 C552 1.490 . S
C548 H538 0.930 . S
C548 C547 1.400 . S
C548 C551 1.386 . S
H549 C565 0.930 . S
H550 C566 0.931 . S
C551 H539 0.929 . S
C551 C545 1.390 . S
C551 C548 1.386 . S
C552 C547 1.490 . S
C552 C554 1.395 . S
C552 C555 1.403 . S
H553 C559 0.930 . S
C554 H540 0.930 . S
C554 C552 1.395 . S
C554 C557 1.403 . S
C555 C552 1.403 . S
C555 C556 1.524 . S
C555 C559 1.400 . S
C556 H541 0.960 . S
C556 H542 0.960 . S
C556 H543 0.960 . S
C556 C555 1.524 . S
C557 C554 1.403 . S
C557 C558 1.392 . S
C557 C561 1.495 . S
C558 C557 1.392 . S
C558 C559 1.385 . S
C558 C560 1.478 . S
C559 H553 0.930 . S
C559 C555 1.400 . S
C559 C558 1.385 . S
C560 C558 1.478 . S
C560 C562 1.381 . S
C560 C566 1.383 . S
C561 C557 1.495 . S
C561 H567 0.959 . S
C561 H568 0.961 . S
C561 H569 0.960 . S
C562 C560 1.381 . S
C562 C563 1.394 . S
C562 H570 0.930 . S
C563 C562 1.394 . S
C563 C564 1.383 . S
C563 H571 0.929 . S
C564 C563 1.383 . S
C564 C565 1.377 . S
C565 H549 0.930 . S
C565 C564 1.377 . S
C565 C566 1.379 . S
C566 H550 0.931 . S
C566 C560 1.383 . S
C566 C565 1.379 . S
H567 C561 0.959 . S
H568 C561 0.961 . S
H569 C561 0.960 . S
H570 C562 0.930 . S
H571 C563 0.929 . S
H572 C580 0.929 . S
H573 C582 0.930 . S
H574 C584 0.930 . S
H575 C587 0.929 . S
H576 C590 0.930 . S
H577 C592 0.960 . S
H578 C592 0.960 . S
H579 C592 0.960 . S
C580 H572 0.929 . S
C580 C581 1.377 . S
C580 C582 1.384 . S
C581 C580 1.377 . S
C581 C587 1.390 . S
C582 H573 0.930 . S
C582 C580 1.384 . S
C582 C583 1.372 . S
C583 C582 1.372 . S
C583 C584 1.400 . S
C583 C588 1.490 . S
C584 H574 0.930 . S
C584 C583 1.400 . S
C584 C587 1.386 . S
H585 C601 0.930 . S
H586 C602 0.931 . S
C587 H575 0.929 . S
C587 C581 1.390 . S
C587 C584 1.386 . S
C588 C583 1.490 . S
C588 C590 1.395 . S
C588 C591 1.403 . S
H589 C595 0.930 . S
C590 H576 0.930 . S
C590 C588 1.395 . S
C590 C593 1.403 . S
C591 C588 1.403 . S
C591 C592 1.524 . S
C591 C595 1.400 . S
C592 H577 0.960 . S
C592 H578 0.960 . S
C592 H579 0.960 . S
C592 C591 1.524 . S
C593 C590 1.403 . S
C593 C594 1.392 . S
C593 C597 1.495 . S
C594 C593 1.392 . S
C594 C595 1.385 . S
C594 C596 1.478 . S
C595 H589 0.930 . S
C595 C591 1.400 . S
C595 C594 1.385 . S
C596 C594 1.478 . S
C596 C598 1.381 . S
C596 C602 1.383 . S
C597 C593 1.495 . S
C597 H603 0.959 . S
C597 H604 0.961 . S
C597 H605 0.960 . S
C598 C596 1.381 . S
C598 C599 1.394 . S
C598 H606 0.930 . S
C599 C598 1.394 . S
C599 C600 1.383 . S
C599 H607 0.929 . S
C600 C599 1.383 . S
C600 C601 1.377 . S
C601 H585 0.930 . S
C601 C600 1.377 . S
C601 C602 1.379 . S
C602 H586 0.931 . S
C602 C596 1.383 . S
C602 C601 1.379 . S
H603 C597 0.959 . S
H604 C597 0.961 . S
H605 C597 0.960 . S
H606 C598 0.930 . S
H607 C599 0.929 . S
H608 C616 0.929 . S
H609 C618 0.930 . S
H610 C620 0.930 . S
H611 C623 0.929 . S
H612 C626 0.930 . S
H613 C628 0.960 1_455 S
H614 C628 0.960 . S
H615 C628 0.960 1_455 S
C616 H608 0.929 . S
C616 C617 1.377 . S
C616 C618 1.384 . S
C617 C616 1.377 . S
C617 C623 1.390 . S
C618 H609 0.930 . S
C618 C616 1.384 . S
C618 C619 1.372 . S
C619 C618 1.372 . S
C619 C620 1.400 . S
C619 C624 1.490 . S
C620 H610 0.930 . S
C620 C619 1.400 . S
C620 C623 1.386 . S
H621 C637 0.930 . S
H622 C638 0.931 . S
C623 H611 0.929 . S
C623 C617 1.390 . S
C623 C620 1.386 . S
C624 C619 1.490 . S
C624 C626 1.395 . S
C624 C627 1.403 . S
H625 C631 0.916 1_455 S
C626 H612 0.930 . S
C626 C624 1.395 . S
C626 C629 1.403 . S
C627 C624 1.403 . S
C627 C628 1.524 . S
C627 C631 1.400 . S
C628 H613 0.960 1_655 S
C628 H614 0.960 . S
C628 H615 0.960 1_655 S
C628 C627 1.524 . S
C629 C626 1.403 . S
C629 C630 1.392 . S
C629 C633 1.495 . S
C630 C629 1.392 . S
C630 C631 1.385 . S
C630 C632 1.478 . S
C631 H625 0.916 1_655 S
C631 C627 1.400 . S
C631 C630 1.385 . S
C632 C630 1.478 . S
C632 C634 1.381 . S
C632 C638 1.383 1_655 S
C633 C629 1.495 . S
C633 H639 0.959 . S
C633 H640 0.961 . S
C633 H641 0.960 . S
C634 C632 1.381 . S
C634 C635 1.394 . S
C634 H642 0.930 . S
C635 C634 1.394 . S
C635 C636 1.383 . S
C635 H643 0.929 . S
C636 C635 1.383 . S
C636 C637 1.377 1_655 S
C637 H621 0.930 . S
C637 C636 1.377 1_455 S
C637 C638 1.379 . S
C638 H622 0.931 . S
C638 C632 1.383 1_455 S
C638 C637 1.379 . S
H639 C633 0.959 . S
H640 C633 0.961 . S
H641 C633 0.960 . S
H642 C634 0.930 . S
H643 C635 0.929 . S
H644 C652 0.929 . S
H645 C654 0.930 . S
H646 C656 0.930 . S
H647 C659 0.929 . S
H648 C662 0.930 1_545 S
H649 C664 0.960 . S
H650 C664 0.960 . S
H651 C664 0.960 . S
C652 H644 0.929 . S
C652 C653 1.377 1_554 S
C652 C654 1.384 1_554 S
C653 C652 1.377 1_556 S
C653 C659 1.390 . S
C654 H645 0.930 . S
C654 C652 1.384 1_556 S
C654 C655 1.372 . S
C655 C654 1.372 . S
C655 C656 1.400 . S
C655 C660 1.490 . S
C656 H646 0.930 . S
C656 C655 1.400 . S
C656 C659 1.386 . S
H657 C673 0.930 . S
H658 C674 0.931 . S
C659 H647 0.929 . S
C659 C653 1.390 . S
C659 C656 1.386 . S
C660 C655 1.490 . S
C660 C662 1.395 . S
C660 C663 1.403 . S
H661 C667 0.930 . S
C662 H648 0.930 1_565 S
C662 C660 1.395 . S
C662 C665 1.398 1_565 S
C663 C660 1.403 . S
C663 C664 1.524 . S
C663 C667 1.400 . S
C664 H649 0.960 . S
C664 H650 0.960 . S
C664 H651 0.960 . S
C664 C663 1.524 . S
C665 C662 1.398 1_545 S
C665 C666 1.385 1_545 S
C665 C669 1.508 . S
C666 C665 1.385 1_565 S
C666 C667 1.385 . S
C666 C668 1.478 . S
C667 H661 0.930 . S
C667 C663 1.400 . S
C667 C666 1.385 . S
C668 C666 1.478 . S
C668 C670 1.381 1_565 S
C668 C674 1.383 . S
C669 C665 1.508 . S
C669 H675 0.959 . S
C669 H676 0.961 . S
C669 H677 0.960 . S
C670 C668 1.381 1_545 S
C670 C671 1.394 . S
C670 H678 0.930 . S
C671 C670 1.394 . S
C671 C672 1.383 . S
C671 H679 0.929 . S
C672 C671 1.383 . S
C672 C673 1.378 1_545 S
C673 H657 0.930 . S
C673 C672 1.378 1_565 S
C673 C674 1.379 . S
C674 H658 0.931 . S
C674 C668 1.383 . S
C674 C673 1.379 . S
H675 C669 0.959 . S
H676 C669 0.961 . S
H677 C669 0.960 . S
H678 C670 0.930 . S
H679 C671 0.929 . S
H680 C688 0.929 . S
H681 C690 0.930 . S
H682 C692 0.930 . S
H683 C695 0.929 . S
H684 C698 0.930 . S
H685 C700 0.960 . S
H686 C700 0.960 1_554 S
H687 C700 0.960 . S
C688 H680 0.929 . S
C688 C689 1.377 1_554 S
C688 C690 1.384 1_554 S
C689 C688 1.377 1_556 S
C689 C695 1.390 . S
C690 H681 0.930 . S
C690 C688 1.384 1_556 S
C690 C691 1.372 . S
C691 C690 1.372 . S
C691 C692 1.400 . S
C691 C696 1.490 . S
C692 H682 0.930 . S
C692 C691 1.400 . S
C692 C695 1.386 . S
H693 C709 0.930 . S
H694 C710 0.931 . S
C695 H683 0.929 . S
C695 C689 1.390 . S
C695 C692 1.386 . S
C696 C691 1.490 . S
C696 C698 1.395 . S
C696 C699 1.403 . S
H697 C703 0.930 . S
C698 H684 0.930 . S
C698 C696 1.395 . S
C698 C701 1.403 . S
C699 C696 1.403 . S
C699 C700 1.524 . S
C699 C703 1.400 . S
C700 H685 0.960 . S
C700 H686 0.960 1_556 S
C700 H687 0.960 . S
C700 C699 1.524 . S
C701 C698 1.403 . S
C701 C702 1.392 . S
C701 C705 1.495 . S
C702 C701 1.392 . S
C702 C703 1.385 . S
C702 C704 1.478 . S
C703 H697 0.930 . S
C703 C699 1.400 . S
C703 C702 1.385 . S
C704 C702 1.478 . S
C704 C706 1.381 . S
C704 C710 1.383 . S
C705 C701 1.495 . S
C705 H711 0.959 . S
C705 H712 0.961 . S
C705 H713 0.960 . S
C706 C704 1.381 . S
C706 C707 1.394 . S
C706 H714 0.930 . S
C707 C706 1.394 . S
C707 C708 1.383 . S
C707 H715 0.929 . S
C708 C707 1.383 . S
C708 C709 1.377 . S
C709 H693 0.930 . S
C709 C708 1.377 . S
C709 C710 1.379 . S
C710 H694 0.931 . S
C710 C704 1.383 . S
C710 C709 1.379 . S
H711 C705 0.959 . S
H712 C705 0.961 . S
H713 C705 0.960 . S
H714 C706 0.930 . S
H715 C707 0.929 . S
H716 C724 0.929 . S
H717 C726 0.930 . S
H718 C728 0.930 . S
H719 C731 0.929 . S
H720 C734 0.930 . S
H721 C736 0.960 . S
H722 C736 0.960 . S
H723 C736 0.960 . S
C724 H716 0.929 . S
C724 C725 1.377 1_554 S
C724 C726 1.384 1_554 S
C725 C724 1.377 1_556 S
C725 C731 1.390 . S
C726 H717 0.930 . S
C726 C724 1.384 1_556 S
C726 C727 1.372 . S
C727 C726 1.372 . S
C727 C728 1.400 . S
C727 C732 1.490 . S
C728 H718 0.930 . S
C728 C727 1.400 . S
C728 C731 1.386 . S
H729 C745 0.930 . S
H730 C746 0.931 . S
C731 H719 0.929 . S
C731 C725 1.390 . S
C731 C728 1.386 . S
C732 C727 1.490 . S
C732 C734 1.395 . S
C732 C735 1.403 . S
H733 C739 0.930 . S
C734 H720 0.930 . S
C734 C732 1.395 . S
C734 C737 1.403 . S
C735 C732 1.403 . S
C735 C736 1.524 . S
C735 C739 1.400 . S
C736 H721 0.960 . S
C736 H722 0.960 . S
C736 H723 0.960 . S
C736 C735 1.524 . S
C737 C734 1.403 . S
C737 C738 1.392 . S
C737 C741 1.495 . S
C738 C737 1.392 . S
C738 C739 1.385 . S
C738 C740 1.478 . S
C739 H733 0.930 . S
C739 C735 1.400 . S
C739 C738 1.385 . S
C740 C738 1.478 . S
C740 C742 1.381 . S
C740 C746 1.383 . S
C741 C737 1.495 . S
C741 H747 0.959 . S
C741 H748 0.961 . S
C741 H749 0.960 . S
C742 C740 1.381 . S
C742 C743 1.394 . S
C742 H750 0.930 . S
C743 C742 1.394 . S
C743 C744 1.383 . S
C743 H751 0.929 . S
C744 C743 1.383 . S
C744 C745 1.377 . S
C745 H729 0.930 . S
C745 C744 1.377 . S
C745 C746 1.379 . S
C746 H730 0.931 . S
C746 C740 1.383 . S
C746 C745 1.379 . S
H747 C741 0.959 . S
H748 C741 0.961 . S
H749 C741 0.960 . S
H750 C742 0.930 . S
H751 C743 0.929 . S
H752 C760 0.929 . S
H753 C762 0.930 . S
H754 C764 0.930 . S
H755 C767 0.929 . S
H756 C770 0.930 . S
H757 C772 0.960 1_556 S
H758 C772 0.960 . S
H759 C772 0.960 . S
C760 H752 0.929 . S
C760 C761 1.377 . S
C760 C762 1.384 . S
C761 C760 1.377 . S
C761 C767 1.390 . S
C762 H753 0.930 . S
C762 C760 1.384 . S
C762 C763 1.372 . S
C763 C762 1.372 . S
C763 C764 1.400 . S
C763 C768 1.490 . S
C764 H754 0.930 . S
C764 C763 1.400 . S
C764 C767 1.386 . S
H765 C781 0.930 . S
H766 C782 0.931 . S
C767 H755 0.929 . S
C767 C761 1.390 . S
C767 C764 1.386 . S
C768 C763 1.490 . S
C768 C770 1.395 . S
C768 C771 1.403 . S
H769 C775 0.930 . S
C770 H756 0.930 . S
C770 C768 1.395 . S
C770 C773 1.403 . S
C771 C768 1.403 . S
C771 C772 1.524 . S
C771 C775 1.400 1_554 S
C772 H757 0.960 1_554 S
C772 H758 0.960 . S
C772 H759 0.960 . S
C772 C771 1.524 . S
C773 C770 1.403 . S
C773 C774 1.392 1_554 S
C773 C777 1.495 1_455 S
C774 C773 1.392 1_556 S
C774 C775 1.385 . S
C774 C776 1.478 . S
C775 H769 0.930 . S
C775 C771 1.400 1_556 S
C775 C774 1.385 . S
C776 C774 1.478 . S
C776 C778 1.381 . S
C776 C782 1.383 . S
C777 C773 1.495 1_655 S
C777 H783 0.959 . S
C777 H784 0.961 1_554 S
C777 H785 0.960 . S
C778 C776 1.381 . S
C778 C779 1.394 . S
C778 H786 0.930 1_556 S
C779 C778 1.394 . S
C779 C780 1.383 . S
C779 H787 0.929 . S
C780 C779 1.383 . S
C780 C781 1.377 . S
C781 H765 0.930 . S
C781 C780 1.377 . S
C781 C782 1.379 . S
C782 H766 0.931 . S
C782 C776 1.383 . S
C782 C781 1.379 . S
H783 C777 0.959 . S
H784 C777 0.961 1_556 S
H785 C777 0.960 . S
H786 C778 0.930 1_554 S
H787 C779 0.929 . S
H788 C796 0.929 . S
H789 C798 0.930 . S
H790 C800 0.930 . S
H791 C803 0.929 . S
H792 C806 0.930 . S
H793 C808 0.960 . S
H794 C808 0.960 . S
H795 C808 0.960 . S
C796 H788 0.929 . S
C796 C797 1.377 . S
C796 C798 1.384 . S
C797 C796 1.377 . S
C797 C803 1.390 . S
C798 H789 0.930 . S
C798 C796 1.384 . S
C798 C799 1.372 . S
C799 C798 1.372 . S
C799 C800 1.400 . S
C799 C804 1.490 . S
C800 H790 0.930 . S
C800 C799 1.400 . S
C800 C803 1.386 . S
H801 C817 0.930 1_565 S
H802 C818 0.931 1_565 S
C803 H791 0.929 . S
C803 C797 1.390 . S
C803 C800 1.386 . S
C804 C799 1.490 . S
C804 C806 1.395 . S
C804 C807 1.403 1_554 S
H805 C811 0.930 . S
C806 H792 0.930 . S
C806 C804 1.395 . S
C806 C809 1.403 . S
C807 C804 1.403 1_556 S
C807 C808 1.524 . S
C807 C811 1.400 . S
C808 H793 0.960 . S
C808 H794 0.960 . S
C808 H795 0.960 . S
C808 C807 1.524 . S
C809 C806 1.403 . S
C809 C810 1.392 1_554 S
C809 C813 1.495 . S
C810 C809 1.392 1_556 S
C810 C811 1.385 . S
C810 C812 1.478 . S
C811 H805 0.930 . S
C811 C807 1.400 . S
C811 C810 1.385 . S
C812 C810 1.478 . S
C812 C814 1.381 . S
C812 C818 1.383 . S
C813 C809 1.495 . S
C813 H819 0.959 . S
C813 H820 0.961 . S
C813 H821 0.960 . S
C814 C812 1.381 . S
C814 C815 1.394 . S
C814 H822 0.930 . S
C815 C814 1.394 . S
C815 C816 1.383 . S
C815 H823 0.929 . S
C816 C815 1.383 . S
C816 C817 1.377 . S
C817 H801 0.930 1_545 S
C817 C816 1.377 . S
C817 C818 1.379 . S
C818 H802 0.931 1_545 S
C818 C812 1.383 . S
C818 C817 1.379 . S
H819 C813 0.959 . S
H820 C813 0.961 . S
H821 C813 0.960 . S
H822 C814 0.930 . S
H823 C815 0.929 . S
H824 C832 0.929 . S
H825 C834 0.930 . S
H826 C836 0.930 . S
H827 C839 0.929 . S
H828 C842 0.930 . S
H829 C844 0.960 . S
H830 C844 0.960 . S
H831 C844 0.960 . S
C832 H824 0.929 . S
C832 C833 1.377 . S
C832 C834 1.384 . S
C833 C832 1.377 . S
C833 C839 1.390 . S
C834 H825 0.930 . S
C834 C832 1.384 . S
C834 C835 1.372 . S
C835 C834 1.372 . S
C835 C836 1.400 . S
C835 C840 1.490 . S
C836 H826 0.930 . S
C836 C835 1.400 . S
C836 C839 1.386 . S
H837 C853 0.930 . S
H838 C854 0.931 . S
C839 H827 0.929 . S
C839 C833 1.390 . S
C839 C836 1.386 . S
C840 C835 1.490 . S
C840 C842 1.395 . S
C840 C843 1.403 1_554 S
H841 C847 0.930 . S
C842 H828 0.930 . S
C842 C840 1.395 . S
C842 C845 1.403 . S
C843 C840 1.403 1_556 S
C843 C844 1.524 . S
C843 C847 1.400 . S
C844 H829 0.960 . S
C844 H830 0.960 . S
C844 H831 0.960 . S
C844 C843 1.524 . S
C845 C842 1.403 . S
C845 C846 1.392 1_554 S
C845 C849 1.495 . S
C846 C845 1.392 1_556 S
C846 C847 1.385 . S
C846 C848 1.478 . S
C847 H841 0.930 . S
C847 C843 1.400 . S
C847 C846 1.385 . S
C848 C846 1.478 . S
C848 C850 1.381 . S
C848 C854 1.383 . S
C849 C845 1.495 . S
C849 H855 0.959 . S
C849 H856 0.961 . S
C849 H857 0.960 . S
C850 C848 1.381 . S
C850 C851 1.394 . S
C850 H858 0.930 . S
C851 C850 1.394 . S
C851 C852 1.383 . S
C851 H859 0.929 . S
C852 C851 1.383 . S
C852 C853 1.377 . S
C853 H837 0.930 . S
C853 C852 1.377 . S
C853 C854 1.379 . S
C854 H838 0.931 . S
C854 C848 1.383 . S
C854 C853 1.379 . S
H855 C849 0.959 . S
H856 C849 0.961 . S
H857 C849 0.960 . S
H858 C850 0.930 . S
H859 C851 0.929 . S
H860 C868 0.929 . S
H861 C870 0.930 . S
H862 C872 0.930 . S
H863 C875 0.929 . S
H864 C878 0.930 . S
H865 C880 0.960 . S
H866 C880 0.960 . S
H867 C880 0.960 . S
C868 H860 0.929 . S
C868 C869 1.377 . S
C868 C870 1.384 . S
C869 C868 1.377 . S
C869 C875 1.390 . S
C870 H861 0.930 . S
C870 C868 1.384 . S
C870 C871 1.372 . S
C871 C870 1.372 . S
C871 C872 1.400 . S
C871 C876 1.490 . S
C872 H862 0.930 . S
C872 C871 1.400 . S
C872 C875 1.386 . S
H873 C889 0.930 . S
H874 C890 0.931 . S
C875 H863 0.929 . S
C875 C869 1.390 . S
C875 C872 1.386 . S
C876 C871 1.490 . S
C876 C878 1.395 . S
C876 C879 1.403 1_554 S
H877 C883 0.930 . S
C878 H864 0.930 . S
C878 C876 1.395 . S
C878 C881 1.403 . S
C879 C876 1.403 1_556 S
C879 C880 1.524 . S
C879 C883 1.400 . S
C880 H865 0.960 . S
C880 H866 0.960 . S
C880 H867 0.960 . S
C880 C879 1.524 . S
C881 C878 1.403 . S
C881 C882 1.392 1_554 S
C881 C885 1.495 . S
C882 C881 1.392 1_556 S
C882 C883 1.385 . S
C882 C884 1.478 . S
C883 H877 0.930 . S
C883 C879 1.400 . S
C883 C882 1.385 . S
C884 C882 1.478 . S
C884 C886 1.381 . S
C884 C890 1.383 . S
C885 C881 1.495 . S
C885 H891 0.959 . S
C885 H892 0.961 . S
C885 H893 0.960 . S
C886 C884 1.381 . S
C886 C887 1.394 . S
C886 H894 0.930 . S
C887 C886 1.394 . S
C887 C888 1.383 . S
C887 H895 0.929 . S
C888 C887 1.383 . S
C888 C889 1.377 . S
C889 H873 0.930 . S
C889 C888 1.377 . S
C889 C890 1.379 . S
C890 H874 0.931 . S
C890 C884 1.383 . S
C890 C889 1.379 . S
H891 C885 0.959 . S
H892 C885 0.961 . S
H893 C885 0.960 . S
H894 C886 0.930 . S
H895 C887 0.929 . S
H896 C904 0.929 . S
H897 C906 0.930 . S
H898 C908 0.930 . S
H899 C911 0.929 . S
H900 C914 0.930 . S
H901 C916 0.960 . S
H902 C916 0.960 . S
H903 C916 0.960 . S
C904 H896 0.929 . S
C904 C905 1.377 . S
C904 C906 1.384 . S
C905 C904 1.377 . S
C905 C911 1.390 . S
C906 H897 0.930 . S
C906 C904 1.384 . S
C906 C907 1.372 . S
C907 C906 1.372 . S
C907 C908 1.400 . S
C907 C912 1.490 . S
C908 H898 0.930 . S
C908 C907 1.400 . S
C908 C911 1.386 . S
H909 C925 0.930 . S
H910 C926 0.931 . S
C911 H899 0.929 . S
C911 C905 1.390 . S
C911 C908 1.386 . S
C912 C907 1.490 . S
C912 C914 1.395 . S
C912 C915 1.403 . S
H913 C919 0.930 . S
C914 H900 0.930 . S
C914 C912 1.395 . S
C914 C917 1.403 . S
C915 C912 1.403 . S
C915 C916 1.524 . S
C915 C919 1.400 . S
C916 H901 0.960 . S
C916 H902 0.960 . S
C916 H903 0.960 . S
C916 C915 1.524 . S
C917 C914 1.403 . S
C917 C918 1.392 . S
C917 C921 1.495 . S
C918 C917 1.392 . S
C918 C919 1.385 . S
C918 C920 1.478 . S
C919 H913 0.930 . S
C919 C915 1.400 . S
C919 C918 1.385 . S
C920 C918 1.478 . S
C920 C922 1.411 . S
C920 C926 1.383 . S
C921 C917 1.495 . S
C921 H927 0.959 . S
C921 H928 0.961 . S
C921 H929 0.960 . S
C922 C920 1.411 . S
C922 C923 1.389 1_655 S
C922 H930 0.906 1_655 S
C923 C922 1.389 1_455 S
C923 C924 1.383 1_455 S
C923 H931 0.929 . S
C924 C923 1.383 1_655 S
C924 C925 1.377 . S
C925 H909 0.930 . S
C925 C924 1.377 . S
C925 C926 1.379 . S
C926 H910 0.931 . S
C926 C920 1.383 . S
C926 C925 1.379 . S
H927 C921 0.959 . S
H928 C921 0.961 . S
H929 C921 0.960 . S
H930 C922 0.906 1_455 S
H931 C923 0.929 . S
H932 C940 0.929 . S
H933 C942 0.930 . S
H934 C944 0.930 . S
H935 C947 0.929 . S
H936 C950 0.930 . S
H937 C952 0.960 . S
H938 C952 0.960 1_565 S
H939 C952 0.960 . S
C940 H932 0.929 . S
C940 C941 1.377 . S
C940 C942 1.384 . S
C941 C940 1.377 . S
C941 C947 1.390 . S
C942 H933 0.930 . S
C942 C940 1.384 . S
C942 C943 1.372 . S
C943 C942 1.372 . S
C943 C944 1.400 . S
C943 C948 1.490 . S
C944 H934 0.930 . S
C944 C943 1.400 . S
C944 C947 1.386 . S
H945 C961 0.930 . S
H946 C962 0.931 . S
C947 H935 0.929 . S
C947 C941 1.390 . S
C947 C944 1.386 . S
C948 C943 1.490 . S
C948 C950 1.395 . S
C948 C951 1.403 . S
H949 C955 0.930 1_545 S
C950 H936 0.930 . S
C950 C948 1.395 . S
C950 C953 1.403 . S
C951 C948 1.403 . S
C951 C952 1.524 1_565 S
C951 C955 1.400 . S
C952 H937 0.960 . S
C952 H938 0.960 1_545 S
C952 H939 0.960 . S
C952 C951 1.524 1_545 S
C953 C950 1.403 . S
C953 C954 1.392 . S
C953 C957 1.495 . S
C954 C953 1.392 . S
C954 C955 1.385 . S
C954 C956 1.478 . S
C955 H949 0.930 1_565 S
C955 C951 1.400 . S
C955 C954 1.385 . S
C956 C954 1.478 . S
C956 C958 1.381 . S
C956 C962 1.383 1_565 S
C957 C953 1.495 . S
C957 H963 0.959 . S
C957 H964 0.961 . S
C957 H965 0.960 . S
C958 C956 1.381 . S
C958 C959 1.394 . S
C958 H966 0.930 . S
C959 C958 1.394 . S
C959 C960 1.383 . S
C959 H967 0.929 . S
C960 C959 1.383 . S
C960 C961 1.377 1_565 S
C961 H945 0.930 . S
C961 C960 1.377 1_545 S
C961 C962 1.379 . S
C962 H946 0.931 . S
C962 C956 1.383 1_545 S
C962 C961 1.379 . S
H963 C957 0.959 . S
H964 C957 0.961 . S
H965 C957 0.960 . S
H966 C958 0.930 . S
H967 C959 0.929 . S
H968 C976 0.929 . S
H969 C978 0.930 . S
H970 C980 0.930 . S
H971 C983 0.929 . S
H972 C986 0.930 . S
H973 C988 0.960 . S
H974 C988 0.960 . S
H975 C988 0.960 . S
C976 H968 0.929 . S
C976 C977 1.377 . S
C976 C978 1.384 . S
C977 C976 1.377 . S
C977 C983 1.390 . S
C978 H969 0.930 . S
C978 C976 1.384 . S
C978 C979 1.372 . S
C979 C978 1.372 . S
C979 C980 1.400 . S
C979 C984 1.490 . S
C980 H970 0.930 . S
C980 C979 1.400 . S
C980 C983 1.386 . S
H981 C997 0.930 . S
H982 C998 0.931 . S
C983 H971 0.929 . S
C983 C977 1.390 . S
C983 C980 1.386 . S
C984 C979 1.490 . S
C984 C986 1.395 . S
C984 C987 1.403 . S
H985 C991 0.930 . S
C986 H972 0.930 . S
C986 C984 1.395 . S
C986 C989 1.403 . S
C987 C984 1.403 . S
C987 C988 1.524 . S
C987 C991 1.400 . S
C988 H973 0.960 . S
C988 H974 0.960 . S
C988 H975 0.960 . S
C988 C987 1.524 . S
C989 C986 1.403 . S
C989 C990 1.392 . S
C989 C993 1.495 . S
C990 C989 1.392 . S
C990 C991 1.385 . S
C990 C992 1.478 . S
C991 H985 0.930 . S
C991 C987 1.400 . S
C991 C990 1.385 . S
C992 C990 1.478 . S
C992 C994 1.381 . S
C992 C998 1.383 . S
C993 C989 1.495 . S
C993 H999 0.959 . S
C993 H1000 0.961 . S
C993 H1001 0.960 . S
C994 C992 1.381 . S
C994 C995 1.394 . S
C994 H1002 0.930 . S
C995 C994 1.394 . S
C995 C996 1.383 . S
C995 H1003 0.929 . S
C996 C995 1.383 . S
C996 C997 1.377 . S
C997 H981 0.930 . S
C997 C996 1.377 . S
C997 C998 1.379 . S
C998 H982 0.931 . S
C998 C992 1.383 . S
C998 C997 1.379 . S
H999 C993 0.959 . S
H1000 C993 0.961 . S
H1001 C993 0.960 . S
H1002 C994 0.930 . S
H1003 C995 0.929 . S
H1004 C1012 0.929 . S
H1005 C1014 0.930 . S
H1006 C1016 0.930 . S
H1007 C1019 0.929 . S
H1008 C1022 0.930 . S
H1009 C1024 0.960 . S
H1010 C1024 0.960 . S
H1011 C1024 0.960 . S
C1012 H1004 0.929 . S
C1012 C1013 1.377 . S
C1012 C1014 1.384 . S
C1013 C1012 1.377 . S
C1013 C1019 1.390 . S
C1014 H1005 0.930 . S
C1014 C1012 1.384 . S
C1014 C1015 1.372 . S
C1015 C1014 1.372 . S
C1015 C1016 1.400 . S
C1015 C1020 1.490 . S
C1016 H1006 0.930 . S
C1016 C1015 1.400 . S
C1016 C1019 1.386 . S
H1017 C1033 0.930 . S
H1018 C1034 0.931 . S
C1019 H1007 0.929 . S
C1019 C1013 1.390 . S
C1019 C1016 1.386 . S
C1020 C1015 1.490 . S
C1020 C1022 1.395 . S
C1020 C1023 1.403 . S
H1021 C1027 0.930 . S
C1022 H1008 0.930 . S
C1022 C1020 1.395 . S
C1022 C1025 1.403 . S
C1023 C1020 1.403 . S
C1023 C1024 1.524 . S
C1023 C1027 1.400 . S
C1024 H1009 0.960 . S
C1024 H1010 0.960 . S
C1024 H1011 0.960 . S
C1024 C1023 1.524 . S
C1025 C1022 1.403 . S
C1025 C1026 1.392 . S
C1025 C1029 1.495 . S
C1026 C1025 1.392 . S
C1026 C1027 1.385 . S
C1026 C1028 1.478 . S
C1027 H1021 0.930 . S
C1027 C1023 1.400 . S
C1027 C1026 1.385 . S
C1028 C1026 1.478 . S
C1028 C1030 1.381 . S
C1028 C1034 1.383 . S
C1029 C1025 1.495 . S
C1029 H1035 0.959 . S
C1029 H1036 0.961 . S
C1029 H1037 0.960 . S
C1030 C1028 1.381 . S
C1030 C1031 1.394 . S
C1030 H1038 0.930 . S
C1031 C1030 1.394 . S
C1031 C1032 1.383 . S
C1031 H1039 0.929 . S
C1032 C1031 1.383 . S
C1032 C1033 1.377 . S
C1033 H1017 0.930 . S
C1033 C1032 1.377 . S
C1033 C1034 1.379 . S
C1034 H1018 0.931 . S
C1034 C1028 1.383 . S
C1034 C1033 1.379 . S
H1035 C1029 0.959 . S
H1036 C1029 0.961 . S
H1037 C1029 0.960 . S
H1038 C1030 0.930 . S
H1039 C1031 0.929 . S
C185 C76 1.579 . S
C204 C97 1.621 . S
C240 C132 1.635 . S
C221 C88 1.581 . S
C276 C137 1.281 . S
C257 C52 1.270 . S
C312 C157 1.406 . S
C293 C64 1.376 . S
C348 C105 1.608 1_565 S
C329 C28 1.590 1_556 S
C365 C40 1.595 . S
C384 C122 1.638 . S
C401 C4 1.274 . S
C420 C145 1.298 . S
C437 C16 1.384 . S
C456 C165 1.395 1_655 S
C492 C115 1.050 . S
C473 C69 1.088 . S
C528 C124 0.758 . S
C509 C81 0.787 . S
C564 C155 1.221 . S
C545 C93 1.189 . S
C581 C57 0.837 . S
C600 C175 0.864 . S
C617 C21 1.085 . S
C636 C104 1.069 1_655 S
C672 C135 0.749 . S
C653 C33 0.770 1_556 S
C708 C144 1.208 . S
C689 C45 1.179 1_556 S
C725 C9 0.826 1_556 S
C744 C164 0.841 . S
C761 C66 1.464 . S
C780 C102 1.472 . S
C797 C78 1.416 . S
C816 C125 1.449 . S
C852 C142 1.581 . S
C833 C90 1.567 . S
C888 C162 1.590 . S
C869 C54 1.582 . S
C905 C18 1.457 . S
C924 C112 1.458 . S
C960 C117 1.473 . S
C941 C30 1.395 . S
C996 C152 1.615 . S
C977 C42 1.546 . S
C1013 C6 1.575 . S
C1032 C172 1.621 . S
