# Generated by pormake.
# Topology pth, (4,4)-cn, num edge types: 1
# Building blocks:
#     Node 0, Type 0, BuildingBlock: NAHDIM_clean_sbu_0, # of connection points: 4
#     Node 1, Type 0, BuildingBlock: NAHDIM_clean_sbu_0, # of connection points: 4
#     Node 2, Type 0, BuildingBlock: NAHDIM_clean_sbu_0, # of connection points: 4
#     Node 3, Type 1, BuildingBlock: MIFKUJ_clean_linker_1, # of connection points: 4
#     Node 4, Type 1, BuildingBlock: MIFKUJ_clean_linker_1, # of connection points: 4
#     Node 5, Type 1, BuildingBlock: MIFKUJ_clean_linker_1, # of connection points: 4
#     Edge 6, Type (0, 1), BuildingBlock: FUNLAD_clean_linker_1, # of connection points: 2
#     Edge 7, Type (0, 1), BuildingBlock: FUNLAD_clean_linker_1, # of connection points: 2
#     Edge 8, Type (0, 1), BuildingBlock: FUNLAD_clean_linker_1, # of connection points: 2
#     Edge 9, Type (0, 1), BuildingBlock: FUNLAD_clean_linker_1, # of connection points: 2
#     Edge 10, Type (0, 1), BuildingBlock: FUNLAD_clean_linker_1, # of connection points: 2
#     Edge 11, Type (0, 1), BuildingBlock: FUNLAD_clean_linker_1, # of connection points: 2
#     Edge 12, Type (0, 1), BuildingBlock: FUNLAD_clean_linker_1, # of connection points: 2
#     Edge 13, Type (0, 1), BuildingBlock: FUNLAD_clean_linker_1, # of connection points: 2
#     Edge 14, Type (0, 1), BuildingBlock: FUNLAD_clean_linker_1, # of connection points: 2
#     Edge 15, Type (0, 1), BuildingBlock: FUNLAD_clean_linker_1, # of connection points: 2
#     Edge 16, Type (0, 1), BuildingBlock: FUNLAD_clean_linker_1, # of connection points: 2
#     Edge 17, Type (0, 1), BuildingBlock: FUNLAD_clean_linker_1, # of connection points: 2
# Relax obj value: 0.043
# Max RMSD: 0.165
# Mean RMSD: 0.094
data_MOF--net-pth--node1-NAHDIM_clean_sbu_0--node2-MIFKUJ_clean_linker_1--edge1-FUNLAD_clean_linker_1
_symmetry_space_group_name_H-M    P1
_symmetry_Int_Tables_number       1
_symmetry_cell_setting            triclinic
loop_
_symmetry_equiv_pos_as_xyz
'x, y, z'
_cell_length_a     30.493208
_cell_length_b     30.65957
_cell_length_c     64.701928
_cell_angle_alpha  91.819727
_cell_angle_beta   89.986081
_cell_angle_gamma 120.55373
loop_
_atom_site_label
_atom_site_type_symbol
_atom_site_fract_x
_atom_site_fract_y
_atom_site_fract_z
_atom_type_partial_charge
C0 C 0.02638 0.97148 0.06761 0.0
O1 O 0.97951 0.96281 0.06719 0.0
O2 O 0.01415 0.08317 0.05942 0.0
Zn3 Zn 0.03507 0.04437 0.04015 0.0
O4 O 0.97692 0.99268 0.02207 0.0
C5 C 0.07516 0.11085 0.00695 0.0
O6 O 0.02637 0.09355 0.00406 0.0
O7 O 0.05998 0.00688 0.05702 0.0
C8 C 0.98812 0.9677 0.00926 0.0
O9 O 0.03514 0.97702 0.00869 0.0
C10 C 0.98051 0.09427 0.0549 0.0
O11 O 0.95551 0.07795 0.03718 0.0
O12 O 0.08973 0.09468 0.02178 0.0
C13 C 0.03111 0.11523 0.34254 0.0
O14 O 0.98572 0.07478 0.33974 0.0
O15 O 0.01841 0.99267 0.3513 0.0
Zn16 Zn 0.03592 0.05082 0.37156 0.0
O17 O 0.97343 0.03885 0.38705 0.0
C18 C 0.12739 0.05386 0.38329 0.0
O19 O 0.13014 0.05032 0.36312 0.0
O20 O 0.06156 0.11473 0.35579 0.0
C21 C 0.97392 0.04827 0.40633 0.0
O22 O 0.01637 0.06562 0.41716 0.0
C23 C 0.97336 0.95717 0.34683 0.0
O24 O 0.93449 0.95731 0.35546 0.0
O25 O 0.09025 0.05613 0.39105 0.0
C26 C 0.03928 0.96333 0.66962 0.0
O27 O 0.9929 0.94966 0.66345 0.0
O28 O 0.97982 0.0306 0.68077 0.0
Zn29 Zn 0.01749 0.01519 0.70223 0.0
O30 O 0.06921 0.07856 0.71804 0.0
C31 C 0.92723 0.9632 0.7266 0.0
O32 O 0.9184 0.99704 0.71883 0.0
O33 O 0.05697 0.98915 0.68646 0.0
C34 C 0.06151 0.09445 0.73523 0.0
O35 O 0.01647 0.0699 0.74366 0.0
C36 C 0.96669 0.06377 0.682 0.0
O37 O 0.97818 0.0934 0.69867 0.0
O38 O 0.96754 0.96291 0.72175 0.0
H39 H 0.06935 0.49368 0.16425 0.0
H40 H 0.06285 0.42109 0.14474 0.0
H41 H 0.93456 0.31975 0.18129 0.0
H42 H 0.94021 0.39265 0.20043 0.0
H43 H 0.00868 0.5293 0.16766 0.0
H44 H 0.08003 0.46541 0.21585 0.0
H45 H 0.08231 0.40117 0.23618 0.0
H46 H 0.94915 0.3787 0.269 0.0
H47 H 0.94639 0.44227 0.24806 0.0
H48 H 0.94208 0.57092 0.24476 0.0
H49 H 0.94315 0.64043 0.26449 0.0
H50 H 0.08075 0.74735 0.23388 0.0
H51 H 0.08004 0.67702 0.21449 0.0
H52 H 0.01119 0.54039 0.24434 0.0
H53 H 0.9385 0.60164 0.1949 0.0
H54 H 0.93579 0.6653 0.17393 0.0
H55 H 0.07358 0.69258 0.14372 0.0
H56 H 0.07664 0.63009 0.16507 0.0
C57 C 0.0056 0.44876 0.18396 0.0
C58 C 0.03947 0.45589 0.16794 0.0
C59 C 0.03552 0.41432 0.15671 0.0
C60 C 0.99752 0.36473 0.1613 0.0
C61 C 0.96404 0.35759 0.17744 0.0
C62 C 0.96751 0.39921 0.18846 0.0
C63 C 0.00948 0.4932 0.19561 0.0
C64 C 0.01008 0.53205 0.18443 0.0
C65 C 0.01042 0.49654 0.21751 0.0
C66 C 0.01285 0.45846 0.23033 0.0
C67 C 0.0513 0.44658 0.22742 0.0
C68 C 0.05285 0.41006 0.23931 0.0
C69 C 0.01619 0.38511 0.25456 0.0
C70 C 0.97802 0.3974 0.25747 0.0
C71 C 0.97649 0.43383 0.24557 0.0
C72 C 0.01059 0.61881 0.22798 0.0
C73 C 0.97233 0.60937 0.24223 0.0
C74 C 0.97268 0.64939 0.25331 0.0
C75 C 0.01145 0.69978 0.25033 0.0
C76 C 0.0501 0.709 0.23628 0.0
C77 C 0.04965 0.66893 0.22516 0.0
C78 C 0.00996 0.57599 0.21638 0.0
C79 C 0.01011 0.53762 0.22757 0.0
C80 C 0.0101 0.57327 0.19451 0.0
C81 C 0.00826 0.61174 0.18179 0.0
C82 C 0.9685 0.62194 0.18397 0.0
C83 C 0.9669 0.65815 0.17193 0.0
C84 C 0.00496 0.68495 0.15749 0.0
C85 C 0.04436 0.67403 0.15509 0.0
C86 C 0.0459 0.63775 0.16713 0.0
H87 H 0.61527 0.08282 0.50231 0.0
H88 H 0.68787 0.08705 0.48466 0.0
H89 H 0.66057 0.95139 0.51446 0.0
H90 H 0.58777 0.94741 0.53206 0.0
H91 H 0.51662 0.0168 0.5019 0.0
H92 H 0.64887 0.0857 0.55209 0.0
H93 H 0.71724 0.0978 0.57548 0.0
H94 H 0.61269 0.95981 0.60558 0.0
H95 H 0.54455 0.94713 0.58179 0.0
H96 H 0.40654 0.92205 0.57453 0.0
H97 H 0.33534 0.91012 0.59585 0.0
H98 H 0.34952 0.04729 0.57267 0.0
H99 H 0.4212 0.05946 0.55166 0.0
H100 H 0.50186 0.99894 0.57786 0.0
H101 H 0.36847 0.93424 0.52395 0.0
H102 H 0.3029 0.93838 0.50366 0.0
H103 H 0.41634 0.08659 0.48358 0.0
H104 H 0.48116 0.08214 0.50378 0.0
C105 C 0.59623 0.01503 0.51862 0.0
C106 C 0.62458 0.05367 0.50485 0.0
C107 C 0.66606 0.0558 0.49464 0.0
C108 C 0.67963 0.0189 0.4979 0.0
C109 C 0.65098 0.98022 0.51161 0.0
C110 C 0.60949 0.97803 0.52173 0.0
C111 C 0.55293 0.01331 0.52988 0.0
C112 C 0.51361 0.01331 0.51854 0.0
C113 C 0.54915 0.00929 0.55162 0.0
C114 C 0.59162 0.01509 0.56495 0.0
C115 C 0.64091 0.05733 0.56337 0.0
C116 C 0.68005 0.06421 0.57677 0.0
C117 C 0.67038 0.0292 0.59218 0.0
C118 C 0.62112 0.98718 0.59378 0.0
C119 C 0.58221 0.97997 0.58022 0.0
C120 C 0.41884 0.9913 0.56129 0.0
C121 C 0.39397 0.94929 0.57388 0.0
C122 C 0.35328 0.94244 0.58602 0.0
C123 C 0.33617 0.97707 0.58567 0.0
C124 C 0.36067 0.01896 0.57287 0.0
C125 C 0.40183 0.0261 0.56086 0.0
C126 C 0.46459 0.99993 0.54983 0.0
C127 C 0.50473 0.00187 0.56119 0.0
C128 C 0.46955 0.00697 0.52825 0.0
C129 C 0.42972 0.00798 0.51544 0.0
C130 C 0.37912 0.96754 0.51514 0.0
C131 C 0.34175 0.96989 0.50351 0.0
C132 C 0.35438 0.01223 0.49167 0.0
C133 C 0.40522 0.0526 0.49194 0.0
C134 C 0.44246 0.05031 0.50363 0.0
H135 H 0.46746 0.43631 0.83068 0.0
H136 H 0.39207 0.37295 0.8112 0.0
H137 H 0.29915 0.41659 0.84649 0.0
H138 H 0.37506 0.4808 0.86559 0.0
H139 H 0.51388 0.53561 0.83381 0.0
H140 H 0.44648 0.40577 0.88031 0.0
H141 H 0.38602 0.3368 0.90152 0.0
H142 H 0.35715 0.44214 0.93627 0.0
H143 H 0.41676 0.51058 0.91473 0.0
H144 H 0.54796 0.65151 0.90845 0.0
H145 H 0.61499 0.72053 0.92968 0.0
H146 H 0.7238 0.68201 0.9053 0.0
H147 H 0.65661 0.61336 0.88441 0.0
H148 H 0.51556 0.54968 0.91044 0.0
H149 H 0.59562 0.68139 0.85829 0.0
H150 H 0.66797 0.74051 0.83797 0.0
H151 H 0.68693 0.6171 0.81521 0.0
H152 H 0.61497 0.55831 0.83592 0.0
C153 C 0.42684 0.46281 0.84979 0.0
C154 C 0.43081 0.43208 0.83425 0.0
C155 C 0.38741 0.39537 0.82329 0.0
C156 C 0.3392 0.38886 0.82768 0.0
C157 C 0.33563 0.42035 0.84296 0.0
C158 C 0.37893 0.45686 0.85394 0.0
C159 C 0.47266 0.50197 0.86148 0.0
C160 C 0.51446 0.53835 0.85058 0.0
C161 C 0.47397 0.50512 0.88334 0.0
C162 C 0.43554 0.4632 0.89573 0.0
C163 C 0.42638 0.4138 0.89225 0.0
C164 C 0.39209 0.3745 0.90445 0.0
C165 C 0.36604 0.38363 0.9203 0.0
C166 C 0.37534 0.43323 0.92384 0.0
C167 C 0.40988 0.47265 0.91166 0.0
C168 C 0.59741 0.62762 0.89473 0.0
C169 C 0.58642 0.65826 0.90766 0.0
C170 C 0.62479 0.69772 0.91976 0.0
C171 C 0.675 0.70735 0.9193 0.0
C172 C 0.68602 0.67664 0.90617 0.0
C173 C 0.64748 0.63711 0.89405 0.0
C174 C 0.5557 0.58444 0.88275 0.0
C175 C 0.51473 0.54704 0.89366 0.0
C176 C 0.55635 0.5792 0.86097 0.0
C177 C 0.59994 0.61548 0.8486 0.0
C178 C 0.61541 0.66714 0.84893 0.0
C179 C 0.6565 0.70081 0.83708 0.0
C180 C 0.68261 0.6832 0.8246 0.0
C181 C 0.66734 0.63161 0.82456 0.0
C182 C 0.62616 0.59801 0.8363 0.0
H183 H 0.94967 0.14406 0.0625 0.0
C184 C 0.97357 0.13009 0.06826 0.0
H185 H 0.02358 0.1355 0.09206 0.0
H186 H 0.09712 0.35934 0.12131 0.0
H187 H 0.17385 0.36688 0.10684 0.0
H188 H 0.17153 0.29475 0.08778 0.0
H189 H 0.09263 0.21452 0.08331 0.0
C190 C 0.99851 0.14827 0.08649 0.0
C191 C 0.99901 0.19143 0.09794 0.0
C192 C 0.04546 0.23837 0.10018 0.0
C193 C 0.0466 0.28033 0.11075 0.0
C194 C 0.09377 0.32644 0.11312 0.0
C195 C 0.13822 0.33131 0.10492 0.0
C196 C 0.13693 0.29068 0.09423 0.0
C197 C 0.09128 0.24472 0.09183 0.0
H198 H 0.97893 0.28498 0.15814 0.0
C199 C 0.99286 0.31984 0.14988 0.0
H200 H 0.01615 0.35421 0.12102 0.0
H201 H 0.90493 0.10529 0.0987 0.0
H202 H 0.82723 0.09888 0.11155 0.0
H203 H 0.82759 0.17379 0.12686 0.0
H204 H 0.90582 0.25517 0.12986 0.0
C205 C 0.00316 0.3201 0.12967 0.0
C206 C 0.00116 0.27557 0.11878 0.0
C207 C 0.95448 0.22887 0.11623 0.0
C208 C 0.95371 0.18634 0.10634 0.0
C209 C 0.90728 0.13934 0.10521 0.0
C210 C 0.86243 0.13504 0.11266 0.0
C211 C 0.86268 0.17716 0.12136 0.0
C212 C 0.908 0.22361 0.12314 0.0
H213 H 0.89424 0.03073 0.40607 0.0
C214 C 0.92728 0.04182 0.41601 0.0
H215 H 0.95796 0.06275 0.44636 0.0
H216 H 0.81068 0.13769 0.47729 0.0
H217 H 0.89208 0.21624 0.47761 0.0
H218 H 0.96808 0.21892 0.46298 0.0
H219 H 0.96327 0.14306 0.44807 0.0
C220 C 0.92475 0.0502 0.43636 0.0
C221 C 0.87867 0.04786 0.4454 0.0
C222 C 0.88208 0.09272 0.45391 0.0
C223 C 0.83809 0.09137 0.46207 0.0
C224 C 0.84274 0.13664 0.47068 0.0
C225 C 0.88926 0.18202 0.47099 0.0
C226 C 0.93205 0.18351 0.46277 0.0
C227 C 0.92875 0.13958 0.45429 0.0
H228 H 0.73974 0.99901 0.49492 0.0
C229 C 0.72416 0.02015 0.4879 0.0
H230 H 0.73067 0.06547 0.46266 0.0
H231 H 0.86 0.95358 0.43277 0.0
H232 H 0.77801 0.87573 0.43134 0.0
H233 H 0.7005 0.87484 0.44294 0.0
H234 H 0.70474 0.95161 0.45643 0.0
C235 C 0.7451 0.04432 0.47041 0.0
C236 C 0.7907 0.04525 0.46162 0.0
C237 C 0.78714 0.00042 0.45297 0.0
C238 C 0.83141 0.00146 0.44532 0.0
C239 C 0.82728 0.95551 0.43792 0.0
C240 C 0.78048 0.91042 0.43717 0.0
C241 C 0.73688 0.90988 0.44377 0.0
C242 C 0.73992 0.9542 0.4516 0.0
H243 H 0.85831 0.9315 0.74534 0.0
C244 C 0.89073 0.92747 0.74129 0.0
H245 H 0.92675 0.88479 0.74559 0.0
H246 H 0.78256 0.83667 0.82856 0.0
H247 H 0.84875 0.92047 0.84066 0.0
H248 H 0.91956 0.97527 0.81807 0.0
H249 H 0.92461 0.94659 0.78322 0.0
C250 C 0.89566 0.89079 0.74978 0.0
C251 C 0.8565 0.85575 0.76423 0.0
C252 C 0.85435 0.87288 0.78461 0.0
C253 C 0.81368 0.84116 0.79766 0.0
C254 C 0.81246 0.85928 0.81794 0.0
C255 C 0.85027 0.90726 0.82511 0.0
C256 C 0.89013 0.93813 0.81239 0.0
C257 C 0.89242 0.92131 0.79238 0.0
H258 H 0.75279 0.70519 0.80706 0.0
C259 C 0.7261 0.71727 0.81157 0.0
H260 H 0.70586 0.77321 0.80772 0.0
H261 H 0.85175 0.81037 0.72659 0.0
H262 H 0.78547 0.72677 0.71426 0.0
H263 H 0.71311 0.67279 0.73635 0.0
H264 H 0.70674 0.70173 0.77088 0.0
C265 C 0.73207 0.76019 0.80392 0.0
C266 C 0.77546 0.79223 0.79036 0.0
C267 C 0.7781 0.77475 0.77007 0.0
C268 C 0.81917 0.80633 0.75712 0.0
C269 C 0.82115 0.78802 0.73698 0.0
C270 C 0.78337 0.74015 0.72971 0.0
C271 C 0.74269 0.70973 0.74216 0.0
C272 C 0.73973 0.7267 0.76205 0.0
H273 H 0.07855 0.94731 0.0794 0.0
C274 C 0.03957 0.93954 0.07964 0.0
H275 H 0.96496 0.89151 0.09014 0.0
H276 H 0.9915 0.70349 0.10283 0.0
H277 H 0.941 0.67722 0.07106 0.0
H278 H 0.92435 0.73683 0.05272 0.0
H279 H 0.95837 0.82314 0.06598 0.0
C280 C 0.0044 0.90071 0.0904 0.0
C281 C 0.01636 0.86583 0.10123 0.0
C282 C 0.99562 0.8153 0.09341 0.0
C283 C 0.00463 0.78074 0.10413 0.0
C284 C 0.98474 0.73095 0.09562 0.0
C285 C 0.95596 0.71545 0.07731 0.0
C286 C 0.94663 0.74901 0.06697 0.0
C287 C 0.96626 0.79843 0.07481 0.0
H288 H 0.96431 0.72014 0.14389 0.0
C289 C 0.00107 0.72245 0.14478 0.0
H290 H 0.07863 0.76596 0.13648 0.0
H291 H 0.06034 0.95956 0.12084 0.0
H292 H 0.11151 0.98597 0.15242 0.0
H293 H 0.12795 0.92626 0.17077 0.0
H294 H 0.09309 0.83965 0.1577 0.0
C295 C 0.04044 0.75974 0.13486 0.0
C296 C 0.03366 0.79657 0.12285 0.0
C297 C 0.0554 0.84741 0.13041 0.0
C298 C 0.04642 0.88203 0.11968 0.0
C299 C 0.06685 0.93198 0.12807 0.0
C300 C 0.09609 0.94759 0.14627 0.0
C301 C 0.10531 0.91396 0.15661 0.0
C302 C 0.08515 0.86437 0.1489 0.0
H303 H 0.1958 0.04869 0.38889 0.0
C304 C 0.16583 0.05211 0.39649 0.0
H305 H 0.13532 0.05729 0.42523 0.0
H306 H 0.27161 0.94968 0.44701 0.0
H307 H 0.20333 0.87546 0.42913 0.0
H308 H 0.13308 0.87904 0.41194 0.0
H309 H 0.13124 0.95722 0.41225 0.0
C310 C 0.16416 0.05271 0.41723 0.0
C311 C 0.20284 0.04877 0.42977 0.0
C312 C 0.20227 0.00224 0.43015 0.0
C313 C 0.24162 0.99963 0.44083 0.0
C314 C 0.24166 0.95342 0.4399 0.0
C315 C 0.20284 0.91053 0.42955 0.0
C316 C 0.16339 0.91259 0.41982 0.0
C317 C 0.16294 0.9578 0.42003 0.0
H318 H 0.27437 0.98998 0.48471 0.0
C319 C 0.31345 0.01369 0.47979 0.0
H320 H 0.36045 0.06473 0.45727 0.0
H321 H 0.21386 0.14302 0.43272 0.0
H322 H 0.28036 0.2167 0.45171 0.0
H323 H 0.34714 0.21166 0.47115 0.0
H324 H 0.34803 0.13304 0.47166 0.0
C325 C 0.32214 0.04127 0.46289 0.0
C326 C 0.28031 0.04309 0.45182 0.0
C327 C 0.28006 0.08924 0.45186 0.0
C328 C 0.24128 0.09205 0.44083 0.0
C329 C 0.24228 0.13875 0.44094 0.0
C330 C 0.28021 0.18132 0.45178 0.0
C331 C 0.31783 0.17849 0.46271 0.0
C332 C 0.31794 0.13312 0.46283 0.0
H333 H 0.14177 0.1549 0.73898 0.0
C334 C 0.10457 0.13834 0.74605 0.0
H335 H 0.0634 0.13995 0.77202 0.0
H336 H 0.25523 0.2391 0.83248 0.0
H337 H 0.20193 0.15692 0.8472 0.0
H338 H 0.12276 0.09218 0.82935 0.0
H339 H 0.09613 0.10932 0.79681 0.0
C340 C 0.09998 0.15708 0.76444 0.0
C341 C 0.14575 0.19767 0.77588 0.0
C342 C 0.16083 0.18681 0.79486 0.0
C343 C 0.20689 0.22382 0.805 0.0
C344 C 0.22091 0.21215 0.82401 0.0
C345 C 0.19064 0.16515 0.83265 0.0
C346 C 0.14604 0.12873 0.82261 0.0
C347 C 0.13117 0.13914 0.80393 0.0
H348 H 0.25962 0.35651 0.81652 0.0
C349 C 0.29211 0.35091 0.81628 0.0
H350 H 0.31674 0.29995 0.80718 0.0
H351 H 0.1235 0.23404 0.74173 0.0
H352 H 0.17724 0.3159 0.72684 0.0
H353 H 0.26013 0.37773 0.74306 0.0
H354 H 0.2893 0.35845 0.77445 0.0
C355 C 0.28684 0.30918 0.80646 0.0
C356 C 0.23786 0.27147 0.7961 0.0
C357 C 0.22227 0.28279 0.77736 0.0
C358 C 0.17558 0.24626 0.76749 0.0
C359 C 0.15964 0.25951 0.74938 0.0
C360 C 0.18993 0.30654 0.74076 0.0
C361 C 0.23651 0.34141 0.74992 0.0
C362 C 0.25269 0.32991 0.76801 0.0
H363 H 0.9315 0.04396 0.65091 0.0
C364 C 0.93423 0.06443 0.66535 0.0
H365 H 0.90603 0.10454 0.68244 0.0
H366 H 0.81479 0.15651 0.60569 0.0
H367 H 0.88139 0.24011 0.61766 0.0
H368 H 0.94246 0.25039 0.64508 0.0
H369 H 0.93693 0.1771 0.66088 0.0
C370 C 0.90395 0.084 0.66812 0.0
C371 C 0.8665 0.07759 0.65177 0.0
C372 C 0.87071 0.12079 0.64249 0.0
C373 C 0.83607 0.11481 0.6264 0.0
C374 C 0.84047 0.15872 0.61775 0.0
C375 C 0.87851 0.207 0.6245 0.0
C376 C 0.91286 0.21279 0.63995 0.0
C377 C 0.90922 0.17036 0.6489 0.0
H378 H 0.69722 0.02001 0.62251 0.0
C379 C 0.70992 0.03647 0.60747 0.0
H380 H 0.77379 0.07589 0.58838 0.0
H381 H 0.84093 0.98669 0.66875 0.0
H382 H 0.77839 0.90308 0.65522 0.0
H383 H 0.7266 0.89261 0.62414 0.0
H384 H 0.73585 0.96581 0.60693 0.0
C385 C 0.75989 0.05973 0.60334 0.0
C386 C 0.79775 0.06559 0.61939 0.0
C387 C 0.79458 0.02231 0.62824 0.0
C388 C 0.82732 0.02833 0.64509 0.0
C389 C 0.81958 0.98445 0.65502 0.0
C390 C 0.78338 0.93613 0.64755 0.0
C391 C 0.75403 0.93025 0.63014 0.0
C392 C 0.7594 0.97266 0.62053 0.0
H393 H 0.96176 0.90835 0.98459 0.0
C394 C 0.94957 0.92837 0.9951 0.0
H395 H 0.88795 0.93688 0.00467 0.0
H396 H 0.77084 0.84391 0.91862 0.0
H397 H 0.7942 0.93189 0.91629 0.0
H398 H 0.84938 0.99569 0.943 0.0
H399 H 0.88171 0.97189 0.97217 0.0
C400 C 0.90066 0.91631 0.99477 0.0
C401 C 0.86363 0.87686 0.9798 0.0
C402 C 0.84413 0.89122 0.96313 0.0
C403 C 0.81173 0.8543 0.94788 0.0
C404 C 0.79447 0.87008 0.93093 0.0
C405 C 0.80788 0.92056 0.92932 0.0
C406 C 0.839 0.95649 0.94435 0.0
C407 C 0.85722 0.94228 0.96103 0.0
H408 H 0.70033 0.76776 0.94377 0.0
C409 C 0.71363 0.74869 0.93325 0.0
H410 H 0.77925 0.74582 0.92434 0.0
H411 H 0.88944 0.83558 0.01118 0.0
H412 H 0.86567 0.74753 0.01365 0.0
H413 H 0.81089 0.68378 0.98683 0.0
H414 H 0.77935 0.70771 0.95746 0.0
C415 C 0.76345 0.76374 0.934 0.0
C416 C 0.79816 0.80293 0.94959 0.0
C417 C 0.81711 0.78846 0.96643 0.0
C418 C 0.8494 0.82534 0.98169 0.0
C419 C 0.86611 0.80946 0.99879 0.0
C420 C 0.85241 0.75892 0.0005 0.0
C421 C 0.82152 0.72303 0.98542 0.0
C422 C 0.80377 0.73733 0.9686 0.0
H423 H 0.92559 0.88389 0.32997 0.0
C424 C 0.96452 0.91464 0.33271 0.0
H425 H 0.0421 0.94335 0.32587 0.0
H426 H 0.94947 0.69926 0.30533 0.0
H427 H 0.93759 0.69012 0.34232 0.0
H428 H 0.95237 0.76256 0.3651 0.0
H429 H 0.9788 0.84443 0.35103 0.0
C430 C 0.00308 0.9123 0.32376 0.0
C431 C 0.99386 0.86836 0.31014 0.0
C432 C 0.97866 0.82078 0.31869 0.0
C433 C 0.97086 0.7792 0.30559 0.0
C434 C 0.95588 0.73213 0.31453 0.0
C435 C 0.94902 0.72636 0.33576 0.0
C436 C 0.95728 0.76712 0.34859 0.0
C437 C 0.97215 0.8139 0.34026 0.0
H438 H 0.05117 0.77777 0.26409 0.0
C439 C 0.01418 0.74327 0.26231 0.0
H440 H 0.93571 0.70912 0.26908 0.0
H441 H 0.02288 0.95439 0.28889 0.0
H442 H 0.03438 0.96344 0.25183 0.0
H443 H 0.01949 0.89094 0.22904 0.0
H444 H 0.99332 0.80906 0.24317 0.0
C445 C 0.97344 0.74242 0.27075 0.0
C446 C 0.97922 0.78555 0.28406 0.0
C447 C 0.9938 0.83294 0.27548 0.0
C448 C 0.00161 0.87453 0.28858 0.0
C449 C 0.01646 0.92155 0.27964 0.0
C450 C 0.02308 0.92724 0.25839 0.0
C451 C 0.01475 0.88644 0.24557 0.0
C452 C 8e-05 0.83971 0.25391 0.0
H453 H 0.05754 0.93866 0.64014 0.0
C454 C 0.0727 0.95552 0.65541 0.0
H455 H 0.13791 0.99162 0.67493 0.0
H456 H 0.19988 0.88984 0.5947 0.0
H457 H 0.13397 0.80795 0.60616 0.0
H458 H 0.07979 0.80177 0.63557 0.0
H459 H 0.09048 0.87749 0.65336 0.0
C460 C 0.12201 0.97304 0.65996 0.0
C461 C 0.15789 0.97576 0.64374 0.0
C462 C 0.15261 0.93104 0.63414 0.0
C463 C 0.18565 0.93456 0.61792 0.0
C464 C 0.17744 0.88937 0.60773 0.0
C465 C 0.13947 0.84209 0.61405 0.0
C466 C 0.10883 0.83862 0.63055 0.0
C467 C 0.11515 0.88242 0.64054 0.0
H468 H 0.29064 0.94952 0.61389 0.0
C469 C 0.29515 0.97011 0.59991 0.0
H470 H 0.26603 0.0072 0.5824 0.0
H471 H 0.17772 0.06916 0.65844 0.0
H472 H 0.24585 0.15077 0.64794 0.0
H473 H 0.30609 0.15669 0.62118 0.0
H474 H 0.29818 0.08098 0.60462 0.0
C475 C 0.26308 0.98706 0.59631 0.0
C476 C 0.22568 0.98275 0.6121 0.0
C477 C 0.23122 0.02741 0.62182 0.0
C478 C 0.19713 0.02395 0.63755 0.0
C479 C 0.203 0.06933 0.64667 0.0
C480 C 0.24192 0.11655 0.64075 0.0
C481 C 0.27577 0.11989 0.62567 0.0
C482 C 0.27071 0.07603 0.61627 0.0
H483 H 0.09656 0.16304 0.98138 0.0
C484 C 0.11177 0.1499 0.99331 0.0
H485 H 0.1784 0.15904 0.00755 0.0
H486 H 0.24413 0.26814 0.91535 0.0
H487 H 0.19282 0.18313 0.90041 0.0
H488 H 0.14503 0.1102 0.92266 0.0
H489 H 0.14745 0.12214 0.95997 0.0
C490 C 0.16237 0.17038 0.99528 0.0
C491 C 0.19752 0.21263 0.98205 0.0
C492 C 0.19782 0.20458 0.96034 0.0
C493 C 0.22757 0.24623 0.9476 0.0
C494 C 0.22426 0.23762 0.92586 0.0
C495 C 0.1946 0.18901 0.91704 0.0
C496 C 0.16753 0.14799 0.92956 0.0
C497 C 0.16898 0.15544 0.95096 0.0
H498 H 0.33687 0.30863 0.93379 0.0
C499 C 0.33124 0.34089 0.93328 0.0
H500 H 0.28464 0.36997 0.94336 0.0
H501 H 0.20649 0.24097 0.02314 0.0
H502 H 0.26077 0.32539 0.03822 0.0
H503 H 0.31557 0.3969 0.01629 0.0
H504 H 0.31605 0.3845 0.9791 0.0
C505 C 0.29213 0.33898 0.94364 0.0
C506 C 0.25922 0.29538 0.95671 0.0
C507 C 0.25993 0.30316 0.97845 0.0
C508 C 0.22894 0.26178 0.99113 0.0
C509 C 0.22967 0.27087 0.01278 0.0
C510 C 0.26064 0.31919 0.02165 0.0
C511 C 0.29145 0.35945 0.0093 0.0
C512 C 0.29129 0.35179 0.98796 0.0
H513 H 0.08362 0.19439 0.33398 0.0
C514 C 0.04617 0.1613 0.33094 0.0
H515 H 0.97752 0.13014 0.31353 0.0
H516 H 0.05837 0.37401 0.30652 0.0
H517 H 0.04525 0.37403 0.34351 0.0
H518 H 0.02296 0.29841 0.36343 0.0
H519 H 0.01449 0.22272 0.34659 0.0
C520 C 0.01443 0.16345 0.31715 0.0
C521 C 0.02906 0.20982 0.30549 0.0
C522 C 0.03255 0.25329 0.31557 0.0
C523 C 0.04338 0.29619 0.30396 0.0
C524 C 0.0485 0.33979 0.31449 0.0
C525 C 0.04136 0.34042 0.33574 0.0
C526 C 0.02897 0.2979 0.34696 0.0
C527 C 0.02447 0.25473 0.33709 0.0
H528 H 0.98036 0.32124 0.27567 0.0
C529 C 0.01511 0.34509 0.26735 0.0
H530 H 0.09004 0.35969 0.26185 0.0
H531 H 0.02786 0.13385 0.28166 0.0
H532 H 0.04009 0.1337 0.24459 0.0
H533 H 0.05634 0.20714 0.22433 0.0
H534 H 0.06068 0.28129 0.24101 0.0
C535 C 0.05433 0.3371 0.26964 0.0
C536 C 0.04878 0.2948 0.28222 0.0
C537 C 0.04669 0.25195 0.27224 0.0
C538 C 0.03678 0.2094 0.28389 0.0
C539 C 0.03472 0.16699 0.27352 0.0
C540 C 0.04179 0.16644 0.25226 0.0
C541 C 0.05099 0.20781 0.24085 0.0
C542 C 0.0534 0.25014 0.25063 0.0
loop_
_geom_bond_atom_site_label_1
_geom_bond_atom_site_label_2
_geom_bond_distance
_geom_bond_site_symmetry_2
_ccdc_geom_bond_type
C0 O1 1.160 . S
C0 O7 1.185 . S
O1 C0 1.160 . S
O2 Zn3 1.899 . S
O2 C10 1.284 1_455 S
Zn3 O2 1.899 . S
Zn3 O4 2.032 1_445 S
Zn3 O7 2.086 1_545 S
Zn3 O12 1.977 . S
O4 Zn3 2.032 1_665 S
O4 C8 1.278 . S
C5 O6 1.203 . S
C5 O12 1.267 . S
O6 C5 1.203 . S
O7 C0 1.185 . S
O7 Zn3 2.086 1_565 S
C8 O4 1.278 . S
C8 O9 1.211 1_565 S
O9 C8 1.211 1_545 S
C10 O2 1.284 1_655 S
C10 O11 1.273 . S
O11 C10 1.273 . S
O12 Zn3 1.977 . S
O12 C5 1.267 . S
C13 O14 1.160 . S
C13 O20 1.185 . S
O14 C13 1.160 . S
O15 Zn16 1.899 . S
O15 C23 1.284 1_545 S
Zn16 O15 1.899 . S
Zn16 O17 2.032 1_455 S
Zn16 O20 2.086 . S
Zn16 O25 1.977 . S
O17 Zn16 2.032 1_655 S
O17 C21 1.278 . S
C18 O19 1.203 . S
C18 O25 1.267 . S
O19 C18 1.203 . S
O20 C13 1.185 . S
O20 Zn16 2.086 . S
C21 O17 1.278 . S
C21 O22 1.211 . S
O22 C21 1.211 . S
C23 O15 1.284 1_565 S
C23 O24 1.273 1_455 S
O24 C23 1.273 1_655 S
O25 Zn16 1.977 . S
O25 C18 1.267 . S
C26 O27 1.160 . S
C26 O33 1.185 1_545 S
O27 C26 1.160 . S
O28 Zn29 1.899 1_655 S
O28 C36 1.284 . S
Zn29 O28 1.899 1_455 S
Zn29 O30 2.032 . S
Zn29 O33 2.086 1_545 S
Zn29 O38 1.977 1_445 S
O30 Zn29 2.032 . S
O30 C34 1.278 . S
C31 O32 1.203 . S
C31 O38 1.267 . S
O32 C31 1.203 . S
O33 C26 1.185 1_565 S
O33 Zn29 2.086 1_565 S
C34 O30 1.278 . S
C34 O35 1.211 . S
O35 C34 1.211 . S
C36 O28 1.284 . S
C36 O37 1.273 . S
O37 C36 1.273 . S
O38 Zn29 1.977 1_665 S
O38 C31 1.267 . S
H39 C58 0.949 . S
H40 C59 0.950 . S
H41 C61 0.950 . S
H42 C62 0.950 . S
H43 C64 0.950 . S
H44 C67 0.950 . S
H45 C68 0.950 . S
H46 C70 0.951 . S
H47 C71 0.949 . S
H48 C73 0.949 . S
H49 C74 0.950 . S
H50 C76 0.950 . S
H51 C77 0.950 . S
H52 C79 0.953 . S
H53 C82 0.950 . S
H54 C83 0.950 . S
H55 C85 0.951 . S
H56 C86 0.949 . S
C57 C58 1.376 . S
C57 C62 1.386 1_455 S
C57 C63 1.483 . S
C58 H39 0.949 . S
C58 C57 1.376 . S
C58 C59 1.397 . S
C59 H40 0.950 . S
C59 C58 1.397 . S
C59 C60 1.391 . S
C60 C59 1.391 . S
C60 C61 1.405 1_455 S
C61 H41 0.950 . S
C61 C60 1.405 1_655 S
C61 C62 1.367 . S
C62 H42 0.950 . S
C62 C57 1.386 1_655 S
C62 C61 1.367 . S
C63 C57 1.483 . S
C63 C64 1.382 . S
C63 C65 1.403 . S
C64 H43 0.950 . S
C64 C63 1.382 . S
C64 C80 1.411 . S
C65 C63 1.403 . S
C65 C66 1.489 . S
C65 C79 1.401 1_455 S
C66 C65 1.489 . S
C66 C67 1.383 . S
C66 C71 1.382 1_455 S
C67 H44 0.950 . S
C67 C66 1.383 . S
C67 C68 1.395 . S
C68 H45 0.950 . S
C68 C67 1.395 . S
C68 C69 1.288 . S
C69 C68 1.288 . S
C69 C70 1.392 1_455 S
C70 H46 0.951 . S
C70 C69 1.392 1_655 S
C70 C71 1.392 . S
C71 H47 0.949 . S
C71 C66 1.382 1_655 S
C71 C70 1.392 . S
C72 C73 1.376 1_455 S
C72 C77 1.386 . S
C72 C78 1.483 . S
C73 H48 0.949 . S
C73 C72 1.376 1_655 S
C73 C74 1.397 . S
C74 H49 0.950 . S
C74 C73 1.397 . S
C74 C75 1.391 1_655 S
C75 C74 1.391 1_455 S
C75 C76 1.405 . S
C76 H50 0.950 . S
C76 C75 1.405 . S
C76 C77 1.367 . S
C77 H51 0.950 . S
C77 C72 1.386 . S
C77 C76 1.367 . S
C78 C72 1.483 . S
C78 C79 1.389 1_455 S
C78 C80 1.403 . S
C79 H52 0.953 . S
C79 C65 1.401 1_655 S
C79 C78 1.389 1_655 S
C80 C64 1.411 . S
C80 C78 1.403 . S
C80 C81 1.489 . S
C81 C80 1.489 . S
C81 C82 1.383 1_455 S
C81 C86 1.382 . S
C82 H53 0.950 . S
C82 C81 1.383 1_655 S
C82 C83 1.395 . S
C83 H54 0.950 . S
C83 C82 1.395 . S
C83 C84 1.288 1_655 S
C84 C83 1.288 1_455 S
C84 C85 1.392 . S
C85 H55 0.951 . S
C85 C84 1.392 . S
C85 C86 1.392 . S
C86 H56 0.949 . S
C86 C81 1.382 . S
C86 C85 1.392 . S
H87 C106 0.949 . S
H88 C107 0.950 . S
H89 C109 0.950 . S
H90 C110 0.950 . S
H91 C112 0.950 . S
H92 C115 0.950 . S
H93 C116 0.950 . S
H94 C118 0.951 . S
H95 C119 0.949 . S
H96 C121 0.949 . S
H97 C122 0.950 . S
H98 C124 0.950 . S
H99 C125 0.950 . S
H100 C127 0.950 . S
H101 C130 0.950 . S
H102 C131 0.950 . S
H103 C133 0.951 . S
H104 C134 0.949 . S
C105 C106 1.376 . S
C105 C110 1.386 1_545 S
C105 C111 1.483 . S
C106 H87 0.949 . S
C106 C105 1.376 . S
C106 C107 1.397 . S
C107 H88 0.950 . S
C107 C106 1.397 . S
C107 C108 1.391 . S
C108 C107 1.391 . S
C108 C109 1.405 1_545 S
C109 H89 0.950 . S
C109 C108 1.405 1_565 S
C109 C110 1.367 . S
C110 H90 0.950 . S
C110 C105 1.386 1_565 S
C110 C109 1.367 . S
C111 C105 1.483 . S
C111 C112 1.382 . S
C111 C113 1.403 . S
C112 H91 0.950 . S
C112 C111 1.382 . S
C112 C128 1.411 . S
C113 C111 1.403 . S
C113 C114 1.489 . S
C113 C127 1.411 . S
C114 C113 1.489 . S
C114 C115 1.383 . S
C114 C119 1.382 1_545 S
C115 H92 0.950 . S
C115 C114 1.383 . S
C115 C116 1.395 . S
C116 H93 0.950 . S
C116 C115 1.395 . S
C116 C117 1.288 . S
C117 C116 1.288 . S
C117 C118 1.392 1_545 S
C118 H94 0.951 . S
C118 C117 1.392 1_565 S
C118 C119 1.392 . S
C119 H95 0.949 . S
C119 C114 1.382 1_565 S
C119 C118 1.392 . S
C120 C121 1.376 1_545 S
C120 C125 1.386 . S
C120 C126 1.483 . S
C121 H96 0.949 . S
C121 C120 1.376 1_565 S
C121 C122 1.397 . S
C122 H97 0.950 . S
C122 C121 1.397 . S
C122 C123 1.391 1_565 S
C123 C122 1.391 1_545 S
C123 C124 1.405 . S
C124 H98 0.950 . S
C124 C123 1.405 . S
C124 C125 1.367 . S
C125 H99 0.950 . S
C125 C120 1.386 . S
C125 C124 1.367 . S
C126 C120 1.483 . S
C126 C127 1.382 . S
C126 C128 1.403 . S
C127 H100 0.950 . S
C127 C113 1.411 . S
C127 C126 1.382 . S
C128 C112 1.411 . S
C128 C126 1.403 . S
C128 C129 1.489 . S
C129 C128 1.489 . S
C129 C130 1.383 1_545 S
C129 C134 1.382 . S
C130 H101 0.950 . S
C130 C129 1.383 1_565 S
C130 C131 1.395 . S
C131 H102 0.950 . S
C131 C130 1.395 . S
C131 C132 1.288 1_565 S
C132 C131 1.288 1_545 S
C132 C133 1.392 . S
C133 H103 0.951 . S
C133 C132 1.392 . S
C133 C134 1.392 . S
C134 H104 0.949 . S
C134 C129 1.382 . S
C134 C133 1.392 . S
H135 C154 0.949 . S
H136 C155 0.950 . S
H137 C157 0.950 . S
H138 C158 0.950 . S
H139 C160 0.950 . S
H140 C163 0.950 . S
H141 C164 0.950 . S
H142 C166 0.951 . S
H143 C167 0.949 . S
H144 C169 0.949 . S
H145 C170 0.950 . S
H146 C172 0.950 . S
H147 C173 0.950 . S
H148 C175 0.950 . S
H149 C178 0.950 . S
H150 C179 0.950 . S
H151 C181 0.951 . S
H152 C182 0.949 . S
C153 C154 1.376 . S
C153 C158 1.386 . S
C153 C159 1.483 . S
C154 H135 0.949 . S
C154 C153 1.376 . S
C154 C155 1.397 . S
C155 H136 0.950 . S
C155 C154 1.397 . S
C155 C156 1.391 . S
C156 C155 1.391 . S
C156 C157 1.405 . S
C157 H137 0.950 . S
C157 C156 1.405 . S
C157 C158 1.367 . S
C158 H138 0.950 . S
C158 C153 1.386 . S
C158 C157 1.367 . S
C159 C153 1.483 . S
C159 C160 1.382 . S
C159 C161 1.403 . S
C160 H139 0.950 . S
C160 C159 1.382 . S
C160 C176 1.411 . S
C161 C159 1.403 . S
C161 C162 1.489 . S
C161 C175 1.411 . S
C162 C161 1.489 . S
C162 C163 1.383 . S
C162 C167 1.382 . S
C163 H140 0.950 . S
C163 C162 1.383 . S
C163 C164 1.395 . S
C164 H141 0.950 . S
C164 C163 1.395 . S
C164 C165 1.288 . S
C165 C164 1.288 . S
C165 C166 1.392 . S
C166 H142 0.951 . S
C166 C165 1.392 . S
C166 C167 1.392 . S
C167 H143 0.949 . S
C167 C162 1.382 . S
C167 C166 1.392 . S
C168 C169 1.376 . S
C168 C173 1.386 . S
C168 C174 1.483 . S
C169 H144 0.949 . S
C169 C168 1.376 . S
C169 C170 1.397 . S
C170 H145 0.950 . S
C170 C169 1.397 . S
C170 C171 1.391 . S
C171 C170 1.391 . S
C171 C172 1.405 . S
C172 H146 0.950 . S
C172 C171 1.405 . S
C172 C173 1.367 . S
C173 H147 0.950 . S
C173 C168 1.386 . S
C173 C172 1.367 . S
C174 C168 1.483 . S
C174 C175 1.382 . S
C174 C176 1.403 . S
C175 H148 0.950 . S
C175 C161 1.411 . S
C175 C174 1.382 . S
C176 C160 1.411 . S
C176 C174 1.403 . S
C176 C177 1.489 . S
C177 C176 1.489 . S
C177 C178 1.383 . S
C177 C182 1.382 . S
C178 H149 0.950 . S
C178 C177 1.383 . S
C178 C179 1.395 . S
C179 H150 0.950 . S
C179 C178 1.395 . S
C179 C180 1.288 . S
C180 C179 1.288 . S
C180 C181 1.392 . S
C181 H151 0.951 . S
C181 C180 1.392 . S
C181 C182 1.392 . S
C182 H152 0.949 . S
C182 C177 1.382 . S
C182 C181 1.392 . S
H183 C184 0.951 . S
C184 H183 0.951 . S
C184 C190 1.265 1_655 S
H185 C190 0.950 . S
H186 C194 0.949 . S
H187 C195 0.950 . S
H188 C196 0.951 . S
H189 C197 0.951 . S
C190 C184 1.265 1_455 S
C190 H185 0.950 . S
C190 C191 1.478 . S
C191 C190 1.478 . S
C191 C192 1.397 . S
C191 C208 1.394 1_455 S
C192 C191 1.397 . S
C192 C193 1.438 . S
C192 C197 1.429 . S
C193 C192 1.438 . S
C193 C194 1.428 . S
C193 C206 1.394 1_455 S
C194 H186 0.949 . S
C194 C193 1.428 . S
C194 C195 1.345 . S
C195 H187 0.950 . S
C195 C194 1.345 . S
C195 C196 1.424 . S
C196 H188 0.951 . S
C196 C195 1.424 . S
C196 C197 1.347 . S
C197 H189 0.951 . S
C197 C192 1.429 . S
C197 C196 1.347 . S
H198 C199 0.951 . S
C199 H198 0.951 . S
C199 C205 1.265 1_455 S
H200 C205 0.950 . S
H201 C209 0.949 . S
H202 C210 0.950 . S
H203 C211 0.951 . S
H204 C212 0.951 . S
C205 C199 1.265 1_655 S
C205 H200 0.950 . S
C205 C206 1.478 . S
C206 C193 1.394 1_655 S
C206 C205 1.478 . S
C206 C207 1.397 . S
C207 C206 1.397 . S
C207 C208 1.438 . S
C207 C212 1.429 . S
C208 C191 1.394 1_655 S
C208 C207 1.438 . S
C208 C209 1.428 . S
C209 H201 0.949 . S
C209 C208 1.428 . S
C209 C210 1.345 . S
C210 H202 0.950 . S
C210 C209 1.345 . S
C210 C211 1.424 . S
C211 H203 0.951 . S
C211 C210 1.424 . S
C211 C212 1.347 . S
C212 H204 0.951 . S
C212 C207 1.429 . S
C212 C211 1.347 . S
H213 C214 0.951 . S
C214 H213 0.951 . S
C214 C220 1.265 . S
H215 C220 0.950 . S
H216 C224 0.949 . S
H217 C225 0.950 . S
H218 C226 0.951 . S
H219 C227 0.951 . S
C220 C214 1.265 . S
C220 H215 0.950 . S
C220 C221 1.478 . S
C221 C220 1.478 . S
C221 C222 1.397 . S
C221 C238 1.394 1_545 S
C222 C221 1.397 . S
C222 C223 1.438 . S
C222 C227 1.429 . S
C223 C222 1.438 . S
C223 C224 1.428 . S
C223 C236 1.394 . S
C224 H216 0.949 . S
C224 C223 1.428 . S
C224 C225 1.345 . S
C225 H217 0.950 . S
C225 C224 1.345 . S
C225 C226 1.424 . S
C226 H218 0.951 . S
C226 C225 1.424 . S
C226 C227 1.347 . S
C227 H219 0.951 . S
C227 C222 1.429 . S
C227 C226 1.347 . S
H228 C229 0.951 . S
C229 H228 0.951 . S
C229 C235 1.265 . S
H230 C235 0.950 . S
H231 C239 0.949 . S
H232 C240 0.950 . S
H233 C241 0.951 . S
H234 C242 0.951 . S
C235 C229 1.265 . S
C235 H230 0.950 . S
C235 C236 1.478 . S
C236 C223 1.394 . S
C236 C235 1.478 . S
C236 C237 1.397 1_545 S
C237 C236 1.397 1_565 S
C237 C238 1.438 . S
C237 C242 1.429 . S
C238 C221 1.394 1_565 S
C238 C237 1.438 . S
C238 C239 1.428 . S
C239 H231 0.949 . S
C239 C238 1.428 . S
C239 C240 1.345 . S
C240 H232 0.950 . S
C240 C239 1.345 . S
C240 C241 1.424 . S
C241 H233 0.951 . S
C241 C240 1.424 . S
C241 C242 1.347 . S
C242 H234 0.951 . S
C242 C237 1.429 . S
C242 C241 1.347 . S
H243 C244 0.951 . S
C244 H243 0.951 . S
C244 C250 1.265 . S
H245 C250 0.950 . S
H246 C254 0.949 . S
H247 C255 0.950 . S
H248 C256 0.951 . S
H249 C257 0.951 . S
C250 C244 1.265 . S
C250 H245 0.950 . S
C250 C251 1.478 . S
C251 C250 1.478 . S
C251 C252 1.397 . S
C251 C268 1.394 . S
C252 C251 1.397 . S
C252 C253 1.438 . S
C252 C257 1.429 . S
C253 C252 1.438 . S
C253 C254 1.428 . S
C253 C266 1.394 . S
C254 H246 0.949 . S
C254 C253 1.428 . S
C254 C255 1.345 . S
C255 H247 0.950 . S
C255 C254 1.345 . S
C255 C256 1.424 . S
C256 H248 0.951 . S
C256 C255 1.424 . S
C256 C257 1.347 . S
C257 H249 0.951 . S
C257 C252 1.429 . S
C257 C256 1.347 . S
H258 C259 0.951 . S
C259 H258 0.951 . S
C259 C265 1.265 . S
H260 C265 0.950 . S
H261 C269 0.949 . S
H262 C270 0.950 . S
H263 C271 0.951 . S
H264 C272 0.951 . S
C265 C259 1.265 . S
C265 H260 0.950 . S
C265 C266 1.478 . S
C266 C253 1.394 . S
C266 C265 1.478 . S
C266 C267 1.397 . S
C267 C266 1.397 . S
C267 C268 1.438 . S
C267 C272 1.429 . S
C268 C251 1.394 . S
C268 C267 1.438 . S
C268 C269 1.428 . S
C269 H261 0.949 . S
C269 C268 1.428 . S
C269 C270 1.345 . S
C270 H262 0.950 . S
C270 C269 1.345 . S
C270 C271 1.424 . S
C271 H263 0.951 . S
C271 C270 1.424 . S
C271 C272 1.347 . S
C272 H264 0.951 . S
C272 C267 1.429 . S
C272 C271 1.347 . S
H273 C274 0.951 . S
C274 H273 0.951 . S
C274 C280 1.265 . S
H275 C280 0.950 1_655 S
H276 C284 0.949 . S
H277 C285 0.950 . S
H278 C286 0.951 . S
H279 C287 0.951 . S
C280 C274 1.265 . S
C280 H275 0.950 1_455 S
C280 C281 1.478 . S
C281 C280 1.478 . S
C281 C282 1.397 1_455 S
C281 C298 1.394 . S
C282 C281 1.397 1_655 S
C282 C283 1.438 . S
C282 C287 1.429 . S
C283 C282 1.438 . S
C283 C284 1.428 . S
C283 C296 1.394 1_655 S
C284 H276 0.949 . S
C284 C283 1.428 . S
C284 C285 1.345 . S
C285 H277 0.950 . S
C285 C284 1.345 . S
C285 C286 1.424 . S
C286 H278 0.951 . S
C286 C285 1.424 . S
C286 C287 1.347 . S
C287 H279 0.951 . S
C287 C282 1.429 . S
C287 C286 1.347 . S
H288 C289 0.932 1_655 S
C289 H288 0.932 1_455 S
C289 C295 1.272 . S
H290 C295 0.950 . S
H291 C299 0.949 . S
H292 C300 0.950 . S
H293 C301 0.951 . S
H294 C302 0.951 . S
C295 C289 1.272 . S
C295 H290 0.950 . S
C295 C296 1.478 . S
C296 C283 1.394 1_455 S
C296 C295 1.478 . S
C296 C297 1.397 . S
C297 C296 1.397 . S
C297 C298 1.438 . S
C297 C302 1.429 . S
C298 C281 1.394 . S
C298 C297 1.438 . S
C298 C299 1.428 . S
C299 H291 0.949 . S
C299 C298 1.428 . S
C299 C300 1.345 . S
C300 H292 0.950 . S
C300 C299 1.345 . S
C300 C301 1.424 . S
C301 H293 0.951 . S
C301 C300 1.424 . S
C301 C302 1.347 . S
C302 H294 0.951 . S
C302 C297 1.429 . S
C302 C301 1.347 . S
H303 C304 0.951 . S
C304 H303 0.951 . S
C304 C310 1.265 . S
H305 C310 0.950 . S
H306 C314 0.949 . S
H307 C315 0.950 . S
H308 C316 0.951 . S
H309 C317 0.967 . S
C310 C304 1.265 . S
C310 H305 0.950 . S
C310 C311 1.478 . S
C311 C310 1.478 . S
C311 C312 1.397 . S
C311 C328 1.394 . S
C312 C311 1.397 . S
C312 C313 1.438 . S
C312 C317 1.429 . S
C313 C312 1.438 . S
C313 C314 1.428 1_545 S
C313 C326 1.394 . S
C314 H306 0.949 . S
C314 C313 1.428 1_565 S
C314 C315 1.345 . S
C315 H307 0.950 . S
C315 C314 1.345 . S
C315 C316 1.424 . S
C316 H308 0.951 . S
C316 C315 1.424 . S
C316 C317 1.332 1_565 S
C317 H309 0.967 . S
C317 C312 1.429 . S
C317 C316 1.332 1_545 S
H318 C319 0.951 . S
C319 H318 0.951 . S
C319 C325 1.265 . S
H320 C325 0.950 . S
H321 C329 0.949 . S
H322 C330 0.950 . S
H323 C331 0.951 . S
H324 C332 0.951 . S
C325 C319 1.265 . S
C325 H320 0.950 . S
C325 C326 1.478 . S
C326 C313 1.394 . S
C326 C325 1.478 . S
C326 C327 1.397 . S
C327 C326 1.397 . S
C327 C328 1.438 . S
C327 C332 1.429 . S
C328 C311 1.394 . S
C328 C327 1.438 . S
C328 C329 1.428 . S
C329 H321 0.949 . S
C329 C328 1.428 . S
C329 C330 1.345 . S
C330 H322 0.950 . S
C330 C329 1.345 . S
C330 C331 1.424 . S
C331 H323 0.951 . S
C331 C330 1.424 . S
C331 C332 1.347 . S
C332 H324 0.951 . S
C332 C327 1.429 . S
C332 C331 1.347 . S
H333 C334 0.951 . S
C334 H333 0.951 . S
C334 C340 1.265 . S
H335 C340 0.950 . S
H336 C344 0.949 . S
H337 C345 0.950 . S
H338 C346 0.951 . S
H339 C347 0.951 . S
C340 C334 1.265 . S
C340 H335 0.950 . S
C340 C341 1.478 . S
C341 C340 1.478 . S
C341 C342 1.397 . S
C341 C358 1.394 . S
C342 C341 1.397 . S
C342 C343 1.438 . S
C342 C347 1.429 . S
C343 C342 1.438 . S
C343 C344 1.428 . S
C343 C356 1.394 . S
C344 H336 0.949 . S
C344 C343 1.428 . S
C344 C345 1.345 . S
C345 H337 0.950 . S
C345 C344 1.345 . S
C345 C346 1.424 . S
C346 H338 0.951 . S
C346 C345 1.424 . S
C346 C347 1.347 . S
C347 H339 0.951 . S
C347 C342 1.429 . S
C347 C346 1.347 . S
H348 C349 0.951 . S
C349 H348 0.951 . S
C349 C355 1.265 . S
H350 C355 0.950 . S
H351 C359 0.949 . S
H352 C360 0.950 . S
H353 C361 0.951 . S
H354 C362 0.951 . S
C355 C349 1.265 . S
C355 H350 0.950 . S
C355 C356 1.478 . S
C356 C343 1.394 . S
C356 C355 1.478 . S
C356 C357 1.397 . S
C357 C356 1.397 . S
C357 C358 1.438 . S
C357 C362 1.429 . S
C358 C341 1.394 . S
C358 C357 1.438 . S
C358 C359 1.428 . S
C359 H351 0.949 . S
C359 C358 1.428 . S
C359 C360 1.345 . S
C360 H352 0.950 . S
C360 C359 1.345 . S
C360 C361 1.424 . S
C361 H353 0.951 . S
C361 C360 1.424 . S
C361 C362 1.347 . S
C362 H354 0.951 . S
C362 C357 1.429 . S
C362 C361 1.347 . S
H363 C364 0.951 . S
C364 H363 0.951 . S
C364 C370 1.265 . S
H365 C370 0.950 . S
H366 C374 0.949 . S
H367 C375 0.950 . S
H368 C376 0.951 . S
H369 C377 0.951 . S
C370 C364 1.265 . S
C370 H365 0.950 . S
C370 C371 1.478 . S
C371 C370 1.478 . S
C371 C372 1.397 . S
C371 C388 1.394 1_545 S
C372 C371 1.397 . S
C372 C373 1.438 . S
C372 C377 1.429 . S
C373 C372 1.438 . S
C373 C374 1.428 . S
C373 C386 1.394 . S
C374 H366 0.949 . S
C374 C373 1.428 . S
C374 C375 1.345 . S
C375 H367 0.950 . S
C375 C374 1.345 . S
C375 C376 1.424 . S
C376 H368 0.951 . S
C376 C375 1.424 . S
C376 C377 1.347 . S
C377 H369 0.951 . S
C377 C372 1.429 . S
C377 C376 1.347 . S
H378 C379 0.951 . S
C379 H378 0.951 . S
C379 C385 1.265 . S
H380 C385 0.950 . S
H381 C389 0.949 . S
H382 C390 0.950 . S
H383 C391 0.951 . S
H384 C392 0.951 . S
C385 C379 1.265 . S
C385 H380 0.950 . S
C385 C386 1.478 . S
C386 C373 1.394 . S
C386 C385 1.478 . S
C386 C387 1.397 1_545 S
C387 C386 1.397 1_565 S
C387 C388 1.438 . S
C387 C392 1.429 . S
C388 C371 1.394 1_565 S
C388 C387 1.438 . S
C388 C389 1.428 . S
C389 H381 0.949 . S
C389 C388 1.428 . S
C389 C390 1.345 . S
C390 H382 0.950 . S
C390 C389 1.345 . S
C390 C391 1.424 . S
C391 H383 0.951 . S
C391 C390 1.424 . S
C391 C392 1.347 . S
C392 H384 0.951 . S
C392 C387 1.429 . S
C392 C391 1.347 . S
H393 C394 0.951 1_556 S
C394 H393 0.951 1_554 S
C394 C400 1.265 . S
H395 C400 0.950 . S
H396 C404 0.949 . S
H397 C405 0.950 . S
H398 C406 0.951 . S
H399 C407 0.951 . S
C400 C394 1.265 . S
C400 H395 0.950 . S
C400 C401 1.478 1_554 S
C401 C400 1.478 1_556 S
C401 C402 1.397 . S
C401 C418 1.394 . S
C402 C401 1.397 . S
C402 C403 1.438 . S
C402 C407 1.429 . S
C403 C402 1.438 . S
C403 C404 1.428 . S
C403 C416 1.394 . S
C404 H396 0.949 . S
C404 C403 1.428 . S
C404 C405 1.345 . S
C405 H397 0.950 . S
C405 C404 1.345 . S
C405 C406 1.424 . S
C406 H398 0.951 . S
C406 C405 1.424 . S
C406 C407 1.347 . S
C407 H399 0.951 . S
C407 C402 1.429 . S
C407 C406 1.347 . S
H408 C409 0.951 . S
C409 H408 0.951 . S
C409 C415 1.265 . S
H410 C415 0.950 . S
H411 C419 0.949 . S
H412 C420 0.950 . S
H413 C421 0.951 . S
H414 C422 0.951 . S
C415 C409 1.265 . S
C415 H410 0.950 . S
C415 C416 1.478 . S
C416 C403 1.394 . S
C416 C415 1.478 . S
C416 C417 1.397 . S
C417 C416 1.397 . S
C417 C418 1.438 . S
C417 C422 1.429 . S
C418 C401 1.394 . S
C418 C417 1.438 . S
C418 C419 1.428 . S
C419 H411 0.949 . S
C419 C418 1.428 . S
C419 C420 1.345 . S
C420 H412 0.950 . S
C420 C419 1.345 . S
C420 C421 1.424 . S
C421 H413 0.951 . S
C421 C420 1.424 . S
C421 C422 1.347 . S
C422 H414 0.951 . S
C422 C417 1.429 . S
C422 C421 1.347 . S
H423 C424 0.951 1_655 S
C424 H423 0.951 1_455 S
C424 C430 1.265 . S
H425 C430 0.950 . S
H426 C434 0.949 . S
H427 C435 0.950 . S
H428 C436 0.951 . S
H429 C437 0.951 . S
C430 C424 1.265 . S
C430 H425 0.950 . S
C430 C431 1.478 . S
C431 C430 1.478 . S
C431 C432 1.397 1_455 S
C431 C448 1.394 . S
C432 C431 1.397 1_655 S
C432 C433 1.438 . S
C432 C437 1.429 . S
C433 C432 1.438 . S
C433 C434 1.428 . S
C433 C446 1.394 1_655 S
C434 H426 0.949 . S
C434 C433 1.428 . S
C434 C435 1.345 . S
C435 H427 0.950 . S
C435 C434 1.345 . S
C435 C436 1.424 . S
C436 H428 0.951 . S
C436 C435 1.424 . S
C436 C437 1.347 . S
C437 H429 0.951 . S
C437 C432 1.429 . S
C437 C436 1.347 . S
H438 C439 0.951 . S
C439 H438 0.951 . S
C439 C445 1.265 1_455 S
H440 C445 0.950 . S
H441 C449 0.949 . S
H442 C450 0.950 . S
H443 C451 0.951 . S
H444 C452 0.951 . S
C445 C439 1.265 1_655 S
C445 H440 0.950 . S
C445 C446 1.478 1_655 S
C446 C433 1.394 1_455 S
C446 C445 1.478 1_455 S
C446 C447 1.397 . S
C447 C446 1.397 . S
C447 C448 1.438 . S
C447 C452 1.429 . S
C448 C431 1.394 . S
C448 C447 1.438 . S
C448 C449 1.428 . S
C449 H441 0.949 . S
C449 C448 1.428 . S
C449 C450 1.345 . S
C450 H442 0.950 . S
C450 C449 1.345 . S
C450 C451 1.424 . S
C451 H443 0.951 . S
C451 C450 1.424 . S
C451 C452 1.347 . S
C452 H444 0.951 . S
C452 C447 1.429 . S
C452 C451 1.347 . S
H453 C454 0.951 1_545 S
C454 H453 0.951 1_565 S
C454 C460 1.265 . S
H455 C460 0.950 . S
H456 C464 0.949 . S
H457 C465 0.950 . S
H458 C466 0.951 . S
H459 C467 0.951 . S
C460 C454 1.265 . S
C460 H455 0.950 . S
C460 C461 1.478 1_565 S
C461 C460 1.478 1_545 S
C461 C462 1.397 1_545 S
C461 C478 1.394 . S
C462 C461 1.397 1_565 S
C462 C463 1.438 . S
C462 C467 1.429 . S
C463 C462 1.438 . S
C463 C464 1.428 . S
C463 C476 1.394 1_565 S
C464 H456 0.949 . S
C464 C463 1.428 . S
C464 C465 1.345 . S
C465 H457 0.950 . S
C465 C464 1.345 . S
C465 C466 1.424 . S
C466 H458 0.951 . S
C466 C465 1.424 . S
C466 C467 1.347 . S
C467 H459 0.951 . S
C467 C462 1.429 . S
C467 C466 1.347 . S
H468 C469 0.951 . S
C469 H468 0.951 . S
C469 C475 1.265 . S
H470 C475 0.950 . S
H471 C479 0.949 . S
H472 C480 0.950 . S
H473 C481 0.951 . S
H474 C482 0.951 . S
C475 C469 1.265 . S
C475 H470 0.950 . S
C475 C476 1.478 . S
C476 C463 1.394 1_545 S
C476 C475 1.478 . S
C476 C477 1.397 . S
C477 C476 1.397 . S
C477 C478 1.438 . S
C477 C482 1.429 . S
C478 C461 1.394 . S
C478 C477 1.438 . S
C478 C479 1.428 . S
C479 H471 0.949 . S
C479 C478 1.428 . S
C479 C480 1.345 . S
C480 H472 0.950 . S
C480 C479 1.345 . S
C480 C481 1.424 . S
C481 H473 0.951 . S
C481 C480 1.424 . S
C481 C482 1.347 . S
C482 H474 0.951 . S
C482 C477 1.429 . S
C482 C481 1.347 . S
H483 C484 0.962 . S
C484 H483 0.962 . S
C484 C490 1.272 . S
H485 C490 0.928 1_554 S
H486 C494 0.949 . S
H487 C495 0.950 . S
H488 C496 0.951 . S
H489 C497 0.951 . S
C490 C484 1.272 . S
C490 H485 0.928 1_556 S
C490 C491 1.478 . S
C491 C490 1.478 . S
C491 C492 1.397 . S
C491 C508 1.394 . S
C492 C491 1.397 . S
C492 C493 1.438 . S
C492 C497 1.429 . S
C493 C492 1.438 . S
C493 C494 1.428 . S
C493 C506 1.394 . S
C494 H486 0.949 . S
C494 C493 1.428 . S
C494 C495 1.345 . S
C495 H487 0.950 . S
C495 C494 1.345 . S
C495 C496 1.424 . S
C496 H488 0.951 . S
C496 C495 1.424 . S
C496 C497 1.347 . S
C497 H489 0.951 . S
C497 C492 1.429 . S
C497 C496 1.347 . S
H498 C499 0.951 . S
C499 H498 0.951 . S
C499 C505 1.265 . S
H500 C505 0.950 . S
H501 C509 0.949 . S
H502 C510 0.950 . S
H503 C511 0.951 . S
H504 C512 0.951 . S
C505 C499 1.265 . S
C505 H500 0.950 . S
C505 C506 1.478 . S
C506 C493 1.394 . S
C506 C505 1.478 . S
C506 C507 1.397 . S
C507 C506 1.397 . S
C507 C508 1.438 . S
C507 C512 1.429 . S
C508 C491 1.394 . S
C508 C507 1.438 . S
C508 C509 1.428 1_556 S
C509 H501 0.949 . S
C509 C508 1.428 1_554 S
C509 C510 1.345 . S
C510 H502 0.950 . S
C510 C509 1.345 . S
C510 C511 1.424 1_554 S
C511 H503 0.951 . S
C511 C510 1.424 1_556 S
C511 C512 1.347 . S
C512 H504 0.951 . S
C512 C507 1.429 . S
C512 C511 1.347 . S
H513 C514 0.951 . S
C514 H513 0.951 . S
C514 C520 1.265 . S
H515 C520 0.950 1_655 S
H516 C524 0.949 . S
H517 C525 0.950 . S
H518 C526 0.951 . S
H519 C527 0.951 . S
C520 C514 1.265 . S
C520 H515 0.950 1_455 S
C520 C521 1.478 . S
C521 C520 1.478 . S
C521 C522 1.397 . S
C521 C538 1.394 . S
C522 C521 1.397 . S
C522 C523 1.438 . S
C522 C527 1.429 . S
C523 C522 1.438 . S
C523 C524 1.428 . S
C523 C536 1.394 . S
C524 H516 0.949 . S
C524 C523 1.428 . S
C524 C525 1.345 . S
C525 H517 0.950 . S
C525 C524 1.345 . S
C525 C526 1.424 . S
C526 H518 0.951 . S
C526 C525 1.424 . S
C526 C527 1.347 . S
C527 H519 0.951 . S
C527 C522 1.429 . S
C527 C526 1.347 . S
H528 C529 0.951 1_655 S
C529 H528 0.951 1_455 S
C529 C535 1.265 . S
H530 C535 0.950 . S
H531 C539 0.949 . S
H532 C540 0.950 . S
H533 C541 0.951 . S
H534 C542 0.951 . S
C535 C529 1.265 . S
C535 H530 0.950 . S
C535 C536 1.478 . S
C536 C523 1.394 . S
C536 C535 1.478 . S
C536 C537 1.397 . S
C537 C536 1.397 . S
C537 C538 1.438 . S
C537 C542 1.429 . S
C538 C521 1.394 . S
C538 C537 1.438 . S
C538 C539 1.428 . S
C539 H531 0.949 . S
C539 C538 1.428 . S
C539 C540 1.345 . S
C540 H532 0.950 . S
C540 C539 1.345 . S
C540 C541 1.424 . S
C541 H533 0.951 . S
C541 C540 1.424 . S
C541 C542 1.347 . S
C542 H534 0.951 . S
C542 C537 1.429 . S
C542 C541 1.347 . S
C199 C60 1.396 . S
C184 C10 1.390 . S
C214 C21 1.461 . S
C229 C108 1.455 . S
C244 C31 1.335 . S
C259 C180 1.416 . S
C274 C0 1.422 . S
C289 C84 1.447 . S
C319 C132 1.432 . S
C304 C18 1.352 . S
C334 C34 1.384 . S
C349 C156 1.432 . S
C379 C117 1.378 . S
C364 C36 1.394 . S
C394 C8 1.361 . S
C409 C171 1.428 . S
C439 C75 1.411 . S
C424 C23 1.407 . S
C469 C123 1.374 . S
C454 C26 1.292 1_565 S
C499 C165 1.451 . S
C484 C5 1.318 1_556 S
C514 C13 1.389 . S
C529 C69 1.421 . S
