# Generated by pormake.
# Topology pto, (3,4)-cn, num edge types: 1
# Building blocks:
#     Node 0, Type 0, BuildingBlock: ESEHIV_clean_linker_0, # of connection points: 3
#     Node 1, Type 0, BuildingBlock: ESEHIV_clean_linker_0, # of connection points: 3
#     Node 2, Type 0, BuildingBlock: ESEHIV_clean_linker_0, # of connection points: 3
#     Node 3, Type 0, BuildingBlock: ESEHIV_clean_linker_0, # of connection points: 3
#     Node 4, Type 0, BuildingBlock: ESEHIV_clean_linker_0, # of connection points: 3
#     Node 5, Type 0, BuildingBlock: ESEHIV_clean_linker_0, # of connection points: 3
#     Node 6, Type 0, BuildingBlock: ESEHIV_clean_linker_0, # of connection points: 3
#     Node 7, Type 0, BuildingBlock: ESEHIV_clean_linker_0, # of connection points: 3
#     Node 8, Type 1, BuildingBlock: KOZSID_clean_sbu_0, # of connection points: 4
#     Node 9, Type 1, BuildingBlock: KOZSID_clean_sbu_0, # of connection points: 4
#     Node 10, Type 1, BuildingBlock: KOZSID_clean_sbu_0, # of connection points: 4
#     Node 11, Type 1, BuildingBlock: KOZSID_clean_sbu_0, # of connection points: 4
#     Node 12, Type 1, BuildingBlock: KOZSID_clean_sbu_0, # of connection points: 4
#     Node 13, Type 1, BuildingBlock: KOZSID_clean_sbu_0, # of connection points: 4
#     Edge 14, Type (0, 1), BuildingBlock: EZIPEK_clean_linker_0, # of connection points: 2
#     Edge 15, Type (0, 1), BuildingBlock: EZIPEK_clean_linker_0, # of connection points: 2
#     Edge 16, Type (0, 1), BuildingBlock: EZIPEK_clean_linker_0, # of connection points: 2
#     Edge 17, Type (0, 1), BuildingBlock: EZIPEK_clean_linker_0, # of connection points: 2
#     Edge 18, Type (0, 1), BuildingBlock: EZIPEK_clean_linker_0, # of connection points: 2
#     Edge 19, Type (0, 1), BuildingBlock: EZIPEK_clean_linker_0, # of connection points: 2
#     Edge 20, Type (0, 1), BuildingBlock: EZIPEK_clean_linker_0, # of connection points: 2
#     Edge 21, Type (0, 1), BuildingBlock: EZIPEK_clean_linker_0, # of connection points: 2
#     Edge 22, Type (0, 1), BuildingBlock: EZIPEK_clean_linker_0, # of connection points: 2
#     Edge 23, Type (0, 1), BuildingBlock: EZIPEK_clean_linker_0, # of connection points: 2
#     Edge 24, Type (0, 1), BuildingBlock: EZIPEK_clean_linker_0, # of connection points: 2
#     Edge 25, Type (0, 1), BuildingBlock: EZIPEK_clean_linker_0, # of connection points: 2
#     Edge 26, Type (0, 1), BuildingBlock: EZIPEK_clean_linker_0, # of connection points: 2
#     Edge 27, Type (0, 1), BuildingBlock: EZIPEK_clean_linker_0, # of connection points: 2
#     Edge 28, Type (0, 1), BuildingBlock: EZIPEK_clean_linker_0, # of connection points: 2
#     Edge 29, Type (0, 1), BuildingBlock: EZIPEK_clean_linker_0, # of connection points: 2
#     Edge 30, Type (0, 1), BuildingBlock: EZIPEK_clean_linker_0, # of connection points: 2
#     Edge 31, Type (0, 1), BuildingBlock: EZIPEK_clean_linker_0, # of connection points: 2
#     Edge 32, Type (0, 1), BuildingBlock: EZIPEK_clean_linker_0, # of connection points: 2
#     Edge 33, Type (0, 1), BuildingBlock: EZIPEK_clean_linker_0, # of connection points: 2
#     Edge 34, Type (0, 1), BuildingBlock: EZIPEK_clean_linker_0, # of connection points: 2
#     Edge 35, Type (0, 1), BuildingBlock: EZIPEK_clean_linker_0, # of connection points: 2
#     Edge 36, Type (0, 1), BuildingBlock: EZIPEK_clean_linker_0, # of connection points: 2
#     Edge 37, Type (0, 1), BuildingBlock: EZIPEK_clean_linker_0, # of connection points: 2
# Relax obj value: 0.000
# Max RMSD: 0.039
# Mean RMSD: 0.017
data_MOF--net-pto--node1-KOZSID_clean_sbu_0--node2-ESEHIV_clean_linker_0--edge1-EZIPEK_clean_linker_0
_symmetry_space_group_name_H-M    P1
_symmetry_Int_Tables_number       1
_symmetry_cell_setting            triclinic
loop_
_symmetry_equiv_pos_as_xyz
'x, y, z'
_cell_length_a     27.128208
_cell_length_b     36.164851
_cell_length_c     31.797892
_cell_angle_alpha  86.609092
_cell_angle_beta   85.327162
_cell_angle_gamma 94.288536
loop_
_atom_site_label
_atom_site_type_symbol
_atom_site_fract_x
_atom_site_fract_y
_atom_site_fract_z
_atom_type_partial_charge
H0 H 0.28171 0.32354 0.27519 0.0
H1 H 0.32118 0.21325 0.30901 0.0
H2 H 0.21262 0.26387 0.3885 0.0
C3 C 0.27775 0.29894 0.29677 0.0
C4 C 0.24444 0.29739 0.33316 0.0
C5 C 0.3053 0.26855 0.28775 0.0
C6 C 0.29997 0.23676 0.31585 0.0
C7 C 0.26659 0.23488 0.3523 0.0
C8 C 0.23875 0.26526 0.36066 0.0
H9 H 0.23902 0.72999 0.80565 0.0
H10 H 0.26479 0.84834 0.78671 0.0
H11 H 0.19821 0.78511 0.69177 0.0
C12 C 0.23612 0.75538 0.78639 0.0
C13 C 0.213 0.75407 0.74865 0.0
C14 C 0.25676 0.78915 0.79882 0.0
C15 C 0.25096 0.82225 0.77523 0.0
C16 C 0.2312 0.82158 0.73563 0.0
C17 C 0.21329 0.78678 0.72218 0.0
H18 H 0.74692 0.84533 0.29452 0.0
H19 H 0.84523 0.78187 0.36425 0.0
H20 H 0.77513 0.73508 0.26062 0.0
C21 C 0.76535 0.82009 0.29981 0.0
C22 C 0.75747 0.79051 0.27394 0.0
C23 C 0.79662 0.81704 0.33272 0.0
C24 C 0.82064 0.78425 0.33919 0.0
C25 C 0.81304 0.75464 0.31307 0.0
C26 C 0.78107 0.75785 0.28083 0.0
H27 H 0.74307 0.21806 0.79635 0.0
H28 H 0.84956 0.28815 0.71353 0.0
H29 H 0.78514 0.3294 0.82807 0.0
C30 C 0.76475 0.24438 0.78892 0.0
C31 C 0.76014 0.27324 0.8164 0.0
C32 C 0.79722 0.24947 0.75179 0.0
C33 C 0.82478 0.28394 0.74221 0.0
C34 C 0.82074 0.31289 0.76972 0.0
C35 C 0.7885 0.30719 0.80679 0.0
H36 H 0.73938 0.85577 0.78212 0.0
H37 H 0.77217 0.74473 0.8197 0.0
H38 H 0.85849 0.80518 0.71467 0.0
C39 C 0.76165 0.83239 0.77767 0.0
C40 C 0.80017 0.83464 0.74503 0.0
C41 C 0.75229 0.8004 0.80513 0.0
C42 C 0.78 0.76968 0.79886 0.0
C43 C 0.81795 0.7711 0.76597 0.0
C44 C 0.82878 0.80392 0.73979 0.0
H45 H 0.74776 0.21366 0.32824 0.0
H46 H 0.77857 0.32985 0.29449 0.0
H47 H 0.87634 0.27131 0.37103 0.0
C48 C 0.77074 0.23927 0.33011 0.0
C49 C 0.81032 0.24009 0.35587 0.0
C50 C 0.76147 0.27126 0.30604 0.0
C51 C 0.78906 0.30486 0.31077 0.0
C52 C 0.83216 0.3057 0.33296 0.0
C53 C 0.84317 0.27228 0.35435 0.0
H54 H 0.21879 0.2751 0.70296 0.0
H55 H 0.3239 0.22083 0.77481 0.0
H56 H 0.27663 0.3267 0.80928 0.0
C57 C 0.24269 0.2748 0.72866 0.0
C58 C 0.24473 0.30465 0.75507 0.0
C59 C 0.27138 0.2445 0.73558 0.0
C60 C 0.30195 0.2442 0.76918 0.0
C61 C 0.3038 0.27374 0.79584 0.0
C62 C 0.27534 0.30393 0.78858 0.0
H63 H 0.21526 0.76299 0.38326 0.0
H64 H 0.2756 0.71451 0.27167 0.0
H65 H 0.31022 0.83035 0.28883 0.0
C66 C 0.23824 0.76559 0.35354 0.0
C67 C 0.26191 0.80033 0.33869 0.0
C68 C 0.24273 0.73447 0.32933 0.0
C69 C 0.27212 0.73826 0.29067 0.0
C70 C 0.29689 0.77266 0.27634 0.0
C71 C 0.29156 0.80365 0.30024 0.0
C72 C 0.10016 0.57358 0.39498 0.0
C73 C 0.10576 0.58287 0.43615 0.0
C74 C 0.06436 0.56755 0.46026 0.0
C75 C 0.0363 0.54938 0.43266 0.0
N76 N 0.05783 0.55148 0.39279 0.0
Co77 Co 0.03077 0.52715 0.3438 0.0
N78 N 0.97863 0.49699 0.3812 0.0
C79 C 0.96262 0.50432 0.4208 0.0
C80 C 0.92266 0.48108 0.4375 0.0
C81 C 0.91298 0.45751 0.40652 0.0
C82 C 0.94832 0.46737 0.37281 0.0
N83 N 0.00426 0.50189 0.29544 0.0
C84 C 0.97924 0.46788 0.29567 0.0
C85 C 0.97834 0.45637 0.2548 0.0
C86 C 1.0005 0.48507 0.22823 0.0
C87 C 0.01546 0.51199 0.25412 0.0
N88 N 0.0823 0.55829 0.30608 0.0
C89 C 0.08269 0.56338 0.26371 0.0
C90 C 0.12043 0.58811 0.24587 0.0
C91 C 0.1448 0.60017 0.27909 0.0
C92 C 0.12051 0.58198 0.31556 0.0
N93 N 0.07644 0.48793 0.34959 0.0
C94 C 0.13284 0.42633 0.35371 0.0
C95 C 0.13207 0.44766 0.31584 0.0
C96 C 0.10391 0.47829 0.31447 0.0
C97 C 0.10645 0.43706 0.39009 0.0
C98 C 0.07855 0.46814 0.38737 0.0
N99 N 0.98467 0.56611 0.33737 0.0
C100 C 0.97066 0.63108 0.3355 0.0
C101 C 0.92081 0.623 0.32964 0.0
C102 C 0.90316 0.58585 0.32711 0.0
C103 C 0.93583 0.55773 0.33103 0.0
C104 C 0.00172 0.60242 0.33887 0.0
H105 H 0.92169 0.52933 0.32862 0.0
H106 H 0.03977 0.60983 0.342 0.0
H107 H 0.10323 0.4933 0.28442 0.0
H108 H 0.0576 0.47546 0.41551 0.0
C109 C 0.99093 0.52877 0.44332 0.0
C110 C 0.12995 0.59251 0.35834 0.0
C111 C 0.95257 0.44773 0.33366 0.0
C112 C 0.05032 0.54173 0.2415 0.0
H113 H 0.13503 0.60102 0.44694 0.0
H114 H 0.05547 0.56983 0.49376 0.0
H115 H 0.90406 0.48033 0.46901 0.0
H116 H 0.88379 0.43522 0.40887 0.0
H117 H 0.96365 0.42999 0.24487 0.0
H118 H 0.00821 0.48504 0.19429 0.0
H119 H 0.12925 0.59636 0.21267 0.0
H120 H 0.17574 0.62109 0.27677 0.0
H121 H 0.15221 0.44011 0.28718 0.0
H122 H 0.10644 0.42106 0.41997 0.0
H123 H 0.98574 0.65956 0.33684 0.0
H124 H 0.86475 0.57874 0.3219 0.0
C125 C 0.09382 0.59148 0.77489 0.0
C126 C 0.10805 0.60475 0.81251 0.0
C127 C 0.08194 0.58281 0.84439 0.0
C128 C 0.05327 0.55759 0.82449 0.0
N129 N 0.06031 0.56149 0.78181 0.0
Co130 Co 0.02217 0.53342 0.74073 0.0
N131 N 0.98162 0.50245 0.78752 0.0
C132 C 0.98608 0.50377 0.82947 0.0
C133 C 0.95613 0.47715 0.85384 0.0
C134 C 0.93188 0.45702 0.82573 0.0
C135 C 0.94845 0.47266 0.78572 0.0
N136 N 0.98233 0.50675 0.69965 0.0
C137 C 0.94735 0.47767 0.7063 0.0
C138 C 0.92938 0.46724 0.66879 0.0
C139 C 0.9545 0.49014 0.6372 0.0
C140 C 0.98616 0.51321 0.65716 0.0
N141 N 0.06449 0.56293 0.69383 0.0
C142 C 0.06286 0.55932 0.65189 0.0
C143 C 0.09597 0.5837 0.62728 0.0
C144 C 0.11974 0.60445 0.65518 0.0
C145 C 0.09954 0.59152 0.69528 0.0
N146 N 0.07029 0.49432 0.73947 0.0
C147 C 0.12986 0.43358 0.74087 0.0
C148 C 0.10964 0.44536 0.70384 0.0
C149 C 0.08063 0.47586 0.70369 0.0
C150 C 0.1216 0.45355 0.77662 0.0
C151 C 0.09186 0.48348 0.7753 0.0
N152 N 0.97416 0.57266 0.7424 0.0
C153 C 0.94023 0.62584 0.7086 0.0
C154 C 0.91919 0.63582 0.74747 0.0
C155 C 0.92327 0.61237 0.78324 0.0
C156 C 0.95076 0.58128 0.78007 0.0
C157 C 0.96675 0.59406 0.70669 0.0
H158 H 0.95356 0.56524 0.80882 0.0
H159 H 0.98221 0.58801 0.67616 0.0
H160 H 0.06614 0.48353 0.67448 0.0
H161 H 0.08612 0.49692 0.80398 0.0
C162 C 0.01911 0.53015 0.84486 0.0
C163 C 0.11168 0.6093 0.73349 0.0
C164 C 0.93287 0.45739 0.74698 0.0
C165 C 0.02495 0.53689 0.63672 0.0
H166 H 0.13394 0.6283 0.81644 0.0
H167 H 0.08296 0.58541 0.87805 0.0
H168 H 0.95303 0.47249 0.88792 0.0
H169 H 0.90563 0.43309 0.83367 0.0
H170 H 0.90233 0.4445 0.66459 0.0
H171 H 0.95195 0.48875 0.60352 0.0
H172 H 0.10039 0.58732 0.59311 0.0
H173 H 0.14734 0.62748 0.64697 0.0
H174 H 0.11572 0.43078 0.6753 0.0
H175 H 0.13707 0.44546 0.80582 0.0
H176 H 0.93706 0.64294 0.67996 0.0
H177 H 0.90663 0.61874 0.81383 0.0
C178 C 0.28078 0.96635 0.59579 0.0
C179 C 0.32296 0.94688 0.59831 0.0
C180 C 0.35674 0.96128 0.56635 0.0
C181 C 0.33344 0.98815 0.54548 0.0
N182 N 0.28713 0.99232 0.56258 0.0
Co183 Co 0.23797 0.0222 0.53511 0.0
N184 N 0.29053 0.04922 0.49487 0.0
C185 C 0.33695 0.03939 0.48645 0.0
C186 C 0.36505 0.06339 0.45732 0.0
C187 C 0.33429 0.09006 0.44649 0.0
C188 C 0.28908 0.08066 0.46973 0.0
N189 N 0.18886 0.05108 0.50663 0.0
C190 C 0.19605 0.08196 0.47983 0.0
C191 C 0.15133 0.09333 0.46759 0.0
C192 C 0.11486 0.06857 0.48734 0.0
C193 C 0.13924 0.04361 0.51048 0.0
N194 N 0.18534 0.99593 0.57606 0.0
C195 C 0.13599 0.99751 0.57482 0.0
C196 C 0.10905 0.98101 0.61026 0.0
C197 C 0.14336 0.96731 0.63496 0.0
C198 C 0.18944 0.97531 0.61257 0.0
N199 N 0.24699 0.06135 0.57477 0.0
C200 C 0.25975 0.11989 0.62805 0.0
C201 C 0.21256 0.10775 0.61732 0.0
C202 C 0.20694 0.07839 0.59102 0.0
C203 C 0.30051 0.10178 0.61216 0.0
C204 C 0.29337 0.07278 0.58532 0.0
N205 N 0.22945 0.98324 0.49514 0.0
C206 C 0.23517 0.96408 0.42362 0.0
C207 C 0.23314 0.92682 0.43877 0.0
C208 C 0.22642 0.91821 0.48224 0.0
C209 C 0.22452 0.94673 0.5097 0.0
C210 C 0.23287 0.99191 0.45243 0.0
H211 H 0.22137 0.93907 0.54273 0.0
H212 H 0.23576 0.02043 0.44014 0.0
H213 H 0.17005 0.06989 0.5836 0.0
H214 H 0.32548 0.05991 0.57276 0.0
C215 C 0.35419 0.01017 0.51004 0.0
C216 C 0.23384 0.95647 0.62251 0.0
C217 C 0.2446 0.10034 0.46426 0.0
C218 C 0.11678 0.01839 0.54253 0.0
H219 H 0.32858 0.92346 0.61957 0.0
H220 H 0.39345 0.95245 0.55854 0.0
H221 H 0.40359 0.06214 0.44604 0.0
H222 H 0.34376 0.11341 0.42364 0.0
H223 H 0.14563 0.11721 0.44693 0.0
H224 H 0.07518 0.06987 0.48675 0.0
H225 H 0.06928 0.97951 0.6176 0.0
H226 H 0.13509 0.95131 0.66488 0.0
H227 H 0.18015 0.12095 0.62922 0.0
H228 H 0.33759 0.11035 0.61998 0.0
H229 H 0.24006 0.9716 0.38998 0.0
H230 H 0.22447 0.88962 0.49495 0.0
C231 C 0.44153 0.82152 0.09955 0.0
C232 C 0.42736 0.85477 0.11448 0.0
C233 C 0.45373 0.88252 0.08938 0.0
C234 C 0.48247 0.8647 0.0608 0.0
N235 N 0.4757 0.8272 0.06579 0.0
Co236 Co 0.51194 0.79045 0.03272 0.0
N237 N 0.55152 0.83129 0.99632 0.0
C238 C 0.54762 0.86828 0.9979 0.0
C239 C 0.57853 0.88943 0.96803 0.0
C240 C 0.60346 0.86449 0.94578 0.0
C241 C 0.58631 0.82945 0.96354 0.0
N242 N 0.54929 0.75369 1.00058 0.0
C243 C 0.58528 0.75928 0.96819 0.0
C244 C 0.60206 0.72603 0.95544 0.0
C245 C 0.57551 0.69837 0.98049 0.0
C246 C 0.54432 0.71622 0.00707 0.0
N247 N 0.4713 0.74955 0.06813 0.0
C248 C 0.47273 0.71253 0.06458 0.0
C249 C 0.44003 0.69132 0.09301 0.0
C250 C 0.41639 0.71624 0.11629 0.0
C251 C 0.43631 0.75132 0.1007 0.0
N252 N 0.46087 0.7896 0.99137 0.0
C253 C 0.39009 0.78887 0.93166 0.0
C254 C 0.41006 0.75619 0.94477 0.0
C255 C 0.44511 0.75715 0.97458 0.0
C256 C 0.4053 0.82181 0.949 0.0
C257 C 0.44055 0.82157 0.97859 0.0
N258 N 0.56274 0.79141 0.07428 0.0
C259 C 0.60753 0.75959 0.12631 0.0
C260 C 0.62927 0.79332 0.13744 0.0
C261 C 0.61848 0.826 0.11601 0.0
C262 C 0.5853 0.82444 0.08472 0.0
C263 C 0.57479 0.75923 0.0946 0.0
H264 H 0.57804 0.85035 0.06987 0.0
H265 H 0.55926 0.73266 0.08746 0.0
H266 H 0.45919 0.73136 0.98322 0.0
H267 H 0.45104 0.84767 0.99029 0.0
C268 C 0.51568 0.88234 0.02864 0.0
C269 C 0.4222 0.78532 0.11906 0.0
C270 C 0.60411 0.79533 0.94795 0.0
C271 C 0.50781 0.69854 0.03648 0.0
H272 H 0.40093 0.85853 0.14096 0.0
H273 H 0.45233 0.91216 0.09182 0.0
H274 H 0.58254 0.91941 0.96311 0.0
H275 H 0.63111 0.87129 0.91941 0.0
H276 H 0.63019 0.72218 0.93027 0.0
H277 H 0.57801 0.66873 0.979 0.0
H278 H 0.4349 0.66131 0.09703 0.0
H279 H 0.38834 0.70939 0.14235 0.0
H280 H 0.39911 0.73016 0.93164 0.0
H281 H 0.39065 0.84772 0.93918 0.0
H282 H 0.61546 0.73368 0.14227 0.0
H283 H 0.63498 0.85265 0.12389 0.0
C284 C 0.87062 0.98441 0.60765 0.0
C285 C 0.9167 0.97397 0.61762 0.0
C286 C 0.95077 0.991 0.58722 0.0
C287 C 0.92377 0.01098 0.56066 0.0
N288 N 0.87472 0.00825 0.57261 0.0
Co289 Co 0.82286 0.0325 0.54197 0.0
N290 N 0.87387 0.06481 0.50501 0.0
C291 C 0.92283 0.06042 0.50017 0.0
C292 C 0.94899 0.08696 0.47277 0.0
C293 C 0.91437 0.10948 0.45918 0.0
C294 C 0.86893 0.09524 0.47909 0.0
N295 N 0.77137 0.0565 0.51106 0.0
C296 C 0.77529 0.08742 0.48425 0.0
C297 C 0.73001 0.09386 0.469 0.0
C298 C 0.69662 0.06586 0.4867 0.0
C299 C 0.7233 0.04398 0.51164 0.0
N300 N 0.77184 1.00006 0.57899 0.0
C301 C 0.72345 0.99446 0.57243 0.0
C302 C 0.69723 0.96964 0.60179 0.0
C303 C 0.73129 0.95816 0.62815 0.0
C304 C 0.77662 0.97664 0.61328 0.0
N305 N 0.82017 0.07099 0.58327 0.0
C306 C 0.81472 0.12846 0.63901 0.0
C307 C 0.7717 0.10872 0.62832 0.0
C308 C 0.77519 0.08037 0.60036 0.0
C309 C 0.86068 0.1185 0.62172 0.0
C310 C 0.86261 0.08958 0.59419 0.0
N311 N 0.82468 0.99425 0.50035 0.0
C312 C 0.81891 0.92951 0.48564 0.0
C313 C 0.82016 0.93884 0.44237 0.0
C314 C 0.82451 0.97645 0.42833 0.0
C315 C 0.8268 1.0037 0.45787 0.0
C316 C 0.82094 0.95754 0.51385 0.0
H317 H 0.82905 0.03233 0.44638 0.0
H318 H 0.81772 0.9494 0.54666 0.0
H319 H 0.74121 0.06641 0.59226 0.0
H320 H 0.89847 0.08262 0.58138 0.0
C321 C 0.94363 0.03463 0.52625 0.0
C322 C 0.82392 0.96694 0.62881 0.0
C323 C 0.82166 0.10973 0.47015 0.0
C324 C 0.70344 0.01474 0.54009 0.0
H325 H 0.92456 0.95485 0.64325 0.0
H326 H 0.99049 0.98905 0.58473 0.0
H327 H 0.98866 0.09026 0.46465 0.0
H328 H 0.92168 0.13345 0.4369 0.0
H329 H 0.72211 0.11625 0.44706 0.0
H330 H 0.65732 0.06246 0.48272 0.0
H331 H 0.65805 0.9608 0.60371 0.0
H332 H 0.72398 0.93743 0.65434 0.0
H333 H 0.73549 0.11557 0.64105 0.0
H334 H 0.89481 0.1331 0.62932 0.0
H335 H 0.81507 0.90068 0.49767 0.0
H336 H 0.82519 0.98465 0.39495 0.0
C337 C 0.45944 0.30497 0.1127 0.0
C338 C 0.44724 0.33946 0.12526 0.0
C339 C 0.4775 0.36536 0.10054 0.0
C340 C 0.50636 0.34529 0.07445 0.0
N341 N 0.49581 0.3081 0.08044 0.0
Co342 Co 0.53149 0.26861 0.05164 0.0
N343 N 0.57781 0.30665 0.01673 0.0
C344 C 0.57763 0.34404 0.01706 0.0
C345 C 0.61185 0.36301 0.98795 0.0
C346 C 0.63474 0.33618 0.96721 0.0
C347 C 0.6131 0.30226 0.98501 0.0
N348 N 0.56823 0.22911 0.02387 0.0
C349 C 0.60558 0.23209 0.99244 0.0
C350 C 0.62017 0.19756 0.98217 0.0
C351 C 0.59056 0.17177 0.00762 0.0
C352 C 0.55978 0.19194 0.03194 0.0
N353 N 0.48412 0.23056 0.08537 0.0
C354 C 0.48254 0.19325 0.08325 0.0
C355 C 0.4464 0.17424 0.11058 0.0
C356 C 0.42381 0.20097 0.13178 0.0
C357 C 0.44768 0.23485 0.11612 0.0
N358 N 0.48593 0.26937 0.00562 0.0
C359 C 0.42522 0.27083 0.93786 0.0
C360 C 0.43962 0.23729 0.95482 0.0
C361 C 0.46967 0.23717 0.98853 0.0
C362 C 0.44091 0.30357 0.95552 0.0
C363 C 0.47099 0.30224 0.98918 0.0
N364 N 0.57689 0.26793 0.09785 0.0
C365 C 0.61095 0.23509 0.15606 0.0
C366 C 0.63544 0.2679 0.1671 0.0
C367 C 0.63101 0.3006 0.14275 0.0
C368 C 0.60162 0.30004 0.1086 0.0
C369 C 0.58248 0.23565 0.1213 0.0
H370 H 0.59923 0.326 0.09163 0.0
H371 H 0.56514 0.20964 0.11424 0.0
H372 H 0.47961 0.21072 0.99996 0.0
H373 H 0.482 0.32818 1.0011 0.0
C374 C 0.54422 0.36044 0.0446 0.0
C375 C 0.43644 0.27007 0.13328 0.0
C376 C 0.62645 0.26673 0.96982 0.0
C377 C 0.51909 0.17682 0.05889 0.0
H378 H 0.41982 0.34522 0.15019 0.0
H379 H 0.47892 0.39525 0.10195 0.0
H380 H 0.61871 0.39281 0.98201 0.0
H381 H 0.66358 0.34097 0.94145 0.0
H382 H 0.64833 0.19163 0.95794 0.0
H383 H 0.59016 0.14184 0.00722 0.0
H384 H 0.43874 0.14444 0.11573 0.0
H385 H 0.39415 0.19604 0.15684 0.0
H386 H 0.42794 0.21131 0.94191 0.0
H387 H 0.43024 0.33011 0.94318 0.0
H388 H 0.61414 0.20909 0.17399 0.0
H389 H 0.64994 0.32653 0.15023 0.0
C390 C 0.23595 0.36047 0.361 0.0
C391 C 0.21447 0.32933 0.34194 0.0
C392 C 0.13627 0.35913 0.33936 0.0
C393 C 0.15957 0.39187 0.35389 0.0
N394 N 0.23225 0.42541 0.37566 0.0
N395 N 0.14608 0.29966 0.30938 0.0
C396 C 0.20955 0.39293 0.36423 0.0
C397 C 0.16496 0.32871 0.33041 0.0
N398 N 0.28124 0.35866 0.37667 0.0
N399 N 0.08651 0.35708 0.33458 0.0
H400 H 0.16567 0.27663 0.30282 0.0
H401 H 0.11246 0.29942 0.29576 0.0
H402 H 0.0646 0.37908 0.34016 0.0
H403 H 0.06604 0.33279 0.32845 0.0
H404 H 0.29679 0.37876 0.39482 0.0
H405 H 0.30181 0.33551 0.37433 0.0
H406 H 0.27015 0.42944 0.37872 0.0
H407 H 0.2136 0.44933 0.37966 0.0
C408 C 0.13502 0.71369 0.74001 0.0
C409 C 0.18766 0.71815 0.73799 0.0
C410 C 0.19124 0.65117 0.72994 0.0
C411 C 0.13876 0.64718 0.73063 0.0
N412 N 0.06221 0.67586 0.72438 0.0
N413 N 0.26622 0.69304 0.72159 0.0
C414 C 0.1112 0.67891 0.73164 0.0
C415 C 0.21591 0.6874 0.72994 0.0
N416 N 0.10748 0.74177 0.75282 0.0
N417 N 0.21728 0.62026 0.73048 0.0
H418 H 0.28514 0.71932 0.7208 0.0
H419 H 0.28856 0.67246 0.71172 0.0
H420 H 0.20046 0.59351 0.72902 0.0
H421 H 0.25493 0.62087 0.7349 0.0
H422 H 0.06906 0.73859 0.75913 0.0
H423 H 0.12317 0.76721 0.76109 0.0
H424 H 0.04183 0.69881 0.71956 0.0
H425 H 0.04331 0.65064 0.71913 0.0
C426 C 0.8267 0.69426 0.35273 0.0
C427 C 0.83993 0.72047 0.31785 0.0
C428 C 0.89761 0.67839 0.28706 0.0
C429 C 0.88882 0.65428 0.32418 0.0
N430 N 0.84987 0.64126 0.39496 0.0
N431 N 0.89401 0.74054 0.25535 0.0
C432 C 0.85451 0.66265 0.35774 0.0
C433 C 0.87702 0.71334 0.28591 0.0
N434 N 0.78672 0.69902 0.38036 0.0
N435 N 0.92498 0.6675 0.2526 0.0
H436 H 0.88061 0.76684 0.2539 0.0
H437 H 0.92457 0.73832 0.23387 0.0
H438 H 0.94019 0.64184 0.25221 0.0
H439 H 0.92854 0.68221 0.22321 0.0
H440 H 0.77202 0.67891 0.40372 0.0
H441 H 0.76559 0.72187 0.37778 0.0
H442 H 0.82983 0.64843 0.42221 0.0
H443 H 0.86902 0.6176 0.3996 0.0
C444 C 0.82477 0.38213 0.75246 0.0
C445 C 0.84993 0.34959 0.76004 0.0
C446 C 0.92959 0.38739 0.75053 0.0
C447 C 0.90403 0.42016 0.74906 0.0
N448 N 0.82704 0.44939 0.7523 0.0
N449 N 0.92623 0.32196 0.77251 0.0
C450 C 0.85148 0.41772 0.75097 0.0
C451 C 0.90242 0.35234 0.76043 0.0
N452 N 0.77567 0.37893 0.74532 0.0
N453 N 0.97988 0.38968 0.74173 0.0
H454 H 0.90778 0.29592 0.78093 0.0
H455 H 0.96369 0.32335 0.77784 0.0
H456 H 0.00115 0.41491 0.73522 0.0
H457 H 0.99967 0.36646 0.73698 0.0
H458 H 0.75641 0.40132 0.73557 0.0
H459 H 0.75525 0.35333 0.74519 0.0
H460 H 0.78876 0.44932 0.75855 0.0
H461 H 0.84545 0.47591 0.75007 0.0
C462 C 0.27427 0.20157 0.42322 0.0
C463 C 0.25988 0.20058 0.3813 0.0
C464 C 0.23836 0.13342 0.39276 0.0
C465 C 0.24829 0.13513 0.43578 0.0
N466 N 0.26724 0.17173 0.49403 0.0
N467 N 0.21835 0.16713 0.32909 0.0
C468 C 0.26368 0.16953 0.45164 0.0
C469 C 0.23912 0.16691 0.36686 0.0
N470 N 0.29996 0.23255 0.43538 0.0
N471 N 0.22941 0.09975 0.3763 0.0
H472 H 0.21714 0.19121 0.3096 0.0
H473 H 0.19811 0.14417 0.31902 0.0
H474 H 0.22799 0.07461 0.39432 0.0
H475 H 0.22748 0.09662 0.34411 0.0
H476 H 0.31591 0.23349 0.46404 0.0
H477 H 0.30933 0.25631 0.41527 0.0
H478 H 0.27283 0.19683 0.50807 0.0
H479 H 0.26012 0.14872 0.51565 0.0
C480 C 0.27096 0.7902 0.87594 0.0
C481 C 0.29037 0.7893 0.8333 0.0
C482 C 0.3751 0.7909 0.85507 0.0
C483 C 0.35551 0.78903 0.89793 0.0
N484 N 0.28544 0.78255 0.95024 0.0
N485 N 0.35956 0.78321 0.78205 0.0
C486 C 0.30354 0.78751 0.90872 0.0
C487 C 0.34211 0.78811 0.82278 0.0
N488 N 0.22162 0.79441 0.88488 0.0
N489 N 0.42527 0.79641 0.84521 0.0
H490 H 0.33686 0.78178 0.75716 0.0
H491 H 0.39596 0.7777 0.77328 0.0
H492 H 0.45081 0.79789 0.86799 0.0
H493 H 0.44159 0.80239 0.81455 0.0
H494 H 0.20585 0.79919 0.91481 0.0
H495 H 0.19674 0.79566 0.86158 0.0
H496 H 0.24793 0.77731 0.96017 0.0
H497 H 0.30834 0.78111 0.97501 0.0
C498 C 0.84866 0.87094 0.35754 0.0
C499 C 0.80327 0.84827 0.36079 0.0
C500 C 0.76726 0.88858 0.41251 0.0
C501 C 0.8141 0.90891 0.41253 0.0
N502 N 0.90145 0.91637 0.38978 0.0
N503 N 0.72209 0.83149 0.3965 0.0
C504 C 0.85542 0.8993 0.38626 0.0
C505 C 0.76327 0.856 0.38971 0.0
N506 N 0.8847 0.86614 0.32615 0.0
N507 N 0.72625 0.90103 0.43335 0.0
H508 H 0.71799 0.80708 0.38078 0.0
H509 H 0.69404 0.83355 0.42042 0.0
H510 H 0.7276 0.92499 0.45009 0.0
H511 H 0.69028 0.88967 0.43082 0.0
H512 H 0.91632 0.88433 0.31926 0.0
H513 H 0.88113 0.84566 0.30458 0.0
H514 H 0.93389 0.90771 0.37501 0.0
H515 H 0.90778 0.93746 0.41016 0.0
C516 C 0.67375 0.27154 0.8528 0.0
C517 C 0.7253 0.26845 0.85552 0.0
C518 C 0.71239 0.26465 0.93315 0.0
C519 C 0.6606 0.26593 0.93036 0.0
N520 N 0.5906 0.264 0.88835 0.0
N521 N 0.79281 0.25558 0.89746 0.0
C522 C 0.64087 0.26732 0.89037 0.0
C523 C 0.74436 0.26308 0.89553 0.0
N524 N 0.6565 0.28009 0.81447 0.0
N525 N 0.7311 0.26593 0.97172 0.0
H526 H 0.81718 0.25426 0.87055 0.0
H527 H 0.80789 0.24765 0.92536 0.0
H528 H 0.70867 0.26605 0.99997 0.0
H529 H 0.76885 0.26938 0.97566 0.0
H530 H 0.62044 0.28702 0.81092 0.0
H531 H 0.67924 0.28298 0.78621 0.0
H532 H 0.57385 0.26048 0.86039 0.0
H533 H 0.56542 0.26175 0.91517 0.0
C534 C 0.27032 0.88524 0.70516 0.0
C535 C 0.23021 0.8571 0.70828 0.0
C536 C 0.19433 0.89208 0.6517 0.0
C537 C 0.2298 0.92293 0.65394 0.0
N538 N 0.29174 0.95139 0.69497 0.0
N539 N 0.14431 0.84391 0.69445 0.0
C540 C 0.26404 0.92053 0.68521 0.0
C541 C 0.18911 0.86351 0.68462 0.0
N542 N 0.31575 0.87786 0.71757 0.0
N543 N 0.16671 0.88875 0.61798 0.0
H544 H 0.13717 0.82577 0.72131 0.0
H545 H 0.1129 0.84971 0.67915 0.0
H546 H 0.1706 0.90758 0.59177 0.0
H547 H 0.14344 0.865 0.61455 0.0
H548 H 0.34631 0.89741 0.71307 0.0
H549 H 0.32452 0.85114 0.72664 0.0
H550 H 0.31524 0.95075 0.71936 0.0
H551 H 0.28742 0.97783 0.68143 0.0
C552 C 0.74586 0.79843 0.19661 0.0
C553 C 0.72461 0.79353 0.23906 0.0
C554 C 0.64127 0.79365 0.2147 0.0
C555 C 0.66234 0.79446 0.1723 0.0
N556 N 0.73389 0.79368 0.12228 0.0
N557 N 0.65249 0.78154 0.28896 0.0
C558 C 0.71449 0.79584 0.16304 0.0
C559 C 0.67237 0.78993 0.24829 0.0
N560 N 0.79591 0.80655 0.18852 0.0
N561 N 0.59167 0.79731 0.22278 0.0
H562 H 0.67405 0.77882 0.3145 0.0
H563 H 0.61488 0.7744 0.29705 0.0
H564 H 0.56785 0.80005 0.19886 0.0
H565 H 0.5749 0.80085 0.25275 0.0
H566 H 0.81313 0.81418 0.15848 0.0
H567 H 0.81998 0.80877 0.21238 0.0
H568 H 0.77112 0.79028 0.114 0.0
H569 H 0.71207 0.7926 0.09676 0.0
C570 C 0.82736 0.18709 0.73489 0.0
C571 C 0.80224 0.2186 0.72274 0.0
C572 C 0.7905 0.19293 0.65401 0.0
C573 C 0.81126 0.15979 0.66774 0.0
N574 N 0.84163 0.12275 0.72419 0.0
N575 N 0.75257 0.24881 0.67362 0.0
C576 C 0.82764 0.15618 0.70901 0.0
C577 C 0.78181 0.22078 0.68304 0.0
N578 N 0.85226 0.18714 0.77057 0.0
N579 N 0.78053 0.19836 0.61276 0.0
H580 H 0.7452 0.26964 0.69403 0.0
H581 H 0.73212 0.24964 0.64729 0.0
H582 H 0.78638 0.17872 0.59059 0.0
H583 H 0.77065 0.22353 0.59962 0.0
H584 H 0.87572 0.16684 0.77867 0.0
H585 H 0.85298 0.20921 0.79027 0.0
H586 H 0.84873 0.1172 0.75554 0.0
H587 H 0.84191 0.09939 0.70647 0.0
C588 C 0.39113 0.27376 0.25 0.0
C589 C 0.33892 0.26956 0.2481 0.0
C590 C 0.35058 0.2693 0.17065 0.0
C591 C 0.40265 0.27029 0.17296 0.0
N592 N 0.47275 0.2682 0.2147 0.0
N593 N 0.26861 0.25752 0.20771 0.0
C594 C 0.42302 0.27104 0.21264 0.0
C595 C 0.3185 0.26583 0.20867 0.0
N596 N 0.41021 0.28161 0.28726 0.0
N597 N 0.3319 0.27228 0.13205 0.0
H598 H 0.24392 0.25467 0.23483 0.0
H599 H 0.25209 0.25044 0.18056 0.0
H600 H 0.35425 0.27398 0.1036 0.0
H601 H 0.29479 0.2759 0.12815 0.0
H602 H 0.44764 0.28896 0.28977 0.0
H603 H 0.38802 0.2838 0.31524 0.0
H604 H 0.48898 0.26407 0.24299 0.0
H605 H 0.49744 0.2671 0.18796 0.0
C606 C 0.88945 0.73271 0.77967 0.0
C607 C 0.84577 0.73762 0.75901 0.0
C608 C 0.84842 0.6751 0.73284 0.0
C609 C 0.894 0.67109 0.75107 0.0
N610 N 0.96193 0.69818 0.78661 0.0
N611 N 0.7875 0.71643 0.71067 0.0
C612 C 0.91564 0.70052 0.77306 0.0
C613 C 0.8265 0.70968 0.7339 0.0
N614 N 0.90515 0.75842 0.80655 0.0
N615 N 0.82477 0.64523 0.71637 0.0
H616 H 0.76977 0.74104 0.71146 0.0
H617 H 0.7752 0.69901 0.6881 0.0
H618 H 0.83914 0.61931 0.71562 0.0
H619 H 0.78896 0.64507 0.70682 0.0
H620 H 0.93303 0.75442 0.82661 0.0
H621 H 0.88799 0.78293 0.81102 0.0
H622 H 0.98212 0.72024 0.79847 0.0
H623 H 0.98209 0.67498 0.78306 0.0
C624 C 0.8708 0.36727 0.29684 0.0
C625 C 0.86557 0.34124 0.33267 0.0
C626 C 0.92802 0.38147 0.36357 0.0
C627 C 0.92385 0.41048 0.33221 0.0
N628 N 0.87198 0.43283 0.27914 0.0
N629 N 0.87851 0.33385 0.40746 0.0
C630 C 0.88925 0.40415 0.30187 0.0
C631 C 0.89143 0.35091 0.3683 0.0
N632 N 0.86125 0.35696 0.25758 0.0
N633 N 0.96572 0.38321 0.38943 0.0
H634 H 0.8468 0.31571 0.41414 0.0
H635 H 0.89511 0.34211 0.43422 0.0
H636 H 0.99398 0.40465 0.38613 0.0
H637 H 0.97108 0.36134 0.41106 0.0
H638 H 0.86687 0.3757 0.23105 0.0
H639 H 0.85444 0.32922 0.251 0.0
H640 H 0.84479 0.42842 0.25815 0.0
H641 H 0.881 0.46056 0.28474 0.0
C642 C 0.233 0.36808 0.72219 0.0
C643 C 0.21375 0.33654 0.74879 0.0
C644 C 0.13747 0.36704 0.76642 0.0
C645 C 0.15854 0.39988 0.74281 0.0
N646 N 0.22884 0.43368 0.70294 0.0
N647 N 0.15014 0.3066 0.79943 0.0
C648 C 0.2069 0.40088 0.72171 0.0
C649 C 0.16656 0.33616 0.7717 0.0
N650 N 0.2761 0.3665 0.69711 0.0
N651 N 0.08912 0.36506 0.78291 0.0
H652 H 0.16931 0.2828 0.80281 0.0
H653 H 0.11914 0.30646 0.82102 0.0
H654 H 0.06704 0.38734 0.78084 0.0
H655 H 0.0696 0.34065 0.79597 0.0
H656 H 0.28942 0.38688 0.6736 0.0
H657 H 0.29682 0.34333 0.69751 0.0
H658 H 0.26591 0.43738 0.69109 0.0
H659 H 0.21112 0.4583 0.70217 0.0
C660 C 0.16186 0.69594 0.34687 0.0
C661 C 0.21442 0.69828 0.34311 0.0
C662 C 0.21221 0.63058 0.35731 0.0
C663 C 0.15964 0.62878 0.36248 0.0
N664 N 0.08737 0.66229 0.37946 0.0
N665 N 0.28973 0.66918 0.3549 0.0
C666 C 0.13531 0.66221 0.36285 0.0
C667 C 0.23973 0.66596 0.35157 0.0
N668 N 0.1369 0.72516 0.33305 0.0
N669 N 0.23564 0.59846 0.3567 0.0
H670 H 0.3107 0.69473 0.35163 0.0
H671 H 0.30954 0.64711 0.36466 0.0
H672 H 0.21656 0.57231 0.36303 0.0
H673 H 0.27338 0.5977 0.34799 0.0
H674 H 0.09862 0.72317 0.33115 0.0
H675 H 0.15463 0.74999 0.31918 0.0
H676 H 0.0696 0.68662 0.38315 0.0
H677 H 0.06767 0.63899 0.39491 0.0
C678 C 0.81933 0.90447 0.7314 0.0
C679 C 0.80935 0.86884 0.7156 0.0
C680 C 0.82391 0.89735 0.64361 0.0
C681 C 0.82441 0.93333 0.65915 0.0
N682 N 0.81887 0.97136 0.71873 0.0
N683 N 0.79019 0.8337 0.65576 0.0
C684 C 0.82094 0.93698 0.70341 0.0
C685 C 0.80815 0.86592 0.67141 0.0
N686 N 0.82933 0.90723 0.77256 0.0
N687 N 0.84086 0.89276 0.60288 0.0
H688 H 0.77545 0.81051 0.67501 0.0
H689 H 0.78474 0.83164 0.62386 0.0
H690 H 0.85966 0.91438 0.58364 0.0
H691 H 0.84375 0.86671 0.59091 0.0
H692 H 0.84112 0.9322 0.78471 0.0
H693 H 0.83087 0.88408 0.79343 0.0
H694 H 0.8109 0.9754 0.75066 0.0
H695 H 0.82198 0.99573 0.69908 0.0
C696 C 0.6776 0.27641 0.2783 0.0
C697 C 0.72799 0.26875 0.27132 0.0
C698 C 0.71646 0.25753 0.19711 0.0
C699 C 0.66706 0.26783 0.20326 0.0
N700 N 0.60126 0.29043 0.24787 0.0
N701 N 0.79761 0.25582 0.22371 0.0
C702 C 0.64776 0.27818 0.24342 0.0
C703 C 0.74798 0.2602 0.23063 0.0
N704 N 0.65823 0.28129 0.31847 0.0
N705 N 0.73306 0.24474 0.15928 0.0
H706 H 0.82174 0.25608 0.24762 0.0
H707 H 0.81585 0.2543 0.19386 0.0
H708 H 0.71211 0.24419 0.13321 0.0
H709 H 0.76632 0.23242 0.15429 0.0
H710 H 0.62066 0.28324 0.32678 0.0
H711 H 0.67947 0.28082 0.34439 0.0
H712 H 0.58666 0.30208 0.27484 0.0
H713 H 0.57801 0.29114 0.22334 0.0
C714 C 0.29391 0.21619 0.66673 0.0
C715 C 0.26912 0.21255 0.708 0.0
C716 C 0.24573 0.14673 0.69898 0.0
C717 C 0.26575 0.15139 0.65614 0.0
N718 N 0.30369 0.19184 0.59741 0.0
N719 N 0.2153 0.17611 0.76157 0.0
C720 C 0.28862 0.18647 0.63953 0.0
C721 C 0.24337 0.17826 0.72365 0.0
N722 N 0.32371 0.24769 0.65394 0.0
N723 N 0.23048 0.11191 0.71652 0.0
H724 H 0.21264 0.19856 0.78055 0.0
H725 H 0.19133 0.15311 0.77254 0.0
H726 H 0.23245 0.08811 0.69965 0.0
H727 H 0.22034 0.10615 0.74866 0.0
H728 H 0.34715 0.2504 0.62614 0.0
H729 H 0.32817 0.27014 0.67279 0.0
H730 H 0.31498 0.21781 0.58239 0.0
H731 H 0.30154 0.17069 0.57664 0.0
C732 C 0.30779 0.78433 0.19748 0.0
C733 C 0.32887 0.77623 0.23604 0.0
C734 C 0.41147 0.77736 0.19835 0.0
C735 C 0.38989 0.78285 0.15954 0.0
N736 N 0.31765 0.78707 0.12074 0.0
N737 N 0.39884 0.76047 0.27368 0.0
C738 C 0.33802 0.78513 0.15869 0.0
C739 C 0.38024 0.77148 0.23663 0.0
N740 N 0.25914 0.79202 0.19814 0.0
N741 N 0.46196 0.77857 0.19855 0.0
H742 H 0.37731 0.75685 0.30256 0.0
H743 H 0.43465 0.75238 0.27556 0.0
H744 H 0.48595 0.78206 0.171 0.0
H745 H 0.48036 0.77877 0.22599 0.0
H746 H 0.24283 0.80211 0.17172 0.0
H747 H 0.23559 0.79075 0.22591 0.0
H748 H 0.27964 0.78468 0.1178 0.0
H749 H 0.33889 0.78856 0.09173 0.0
C750 C 0.83059 0.17372 0.36873 0.0
C751 C 0.81644 0.20732 0.38519 0.0
C752 C 0.81225 0.17818 0.45737 0.0
C753 C 0.82096 0.1436 0.44061 0.0
N754 N 0.83161 0.10696 0.38001 0.0
N755 N 0.78555 0.23999 0.44471 0.0
C756 C 0.82827 0.14094 0.39614 0.0
C757 C 0.80524 0.20922 0.42945 0.0
N758 N 0.84755 0.17341 0.32708 0.0
N759 N 0.81147 0.1815 0.5 0.0
H760 H 0.77891 0.26307 0.42538 0.0
H761 H 0.77165 0.24136 0.47604 0.0
H762 H 0.81584 0.15919 0.52135 0.0
H763 H 0.81081 0.2069 0.51377 0.0
H764 H 0.86328 0.1508 0.3141 0.0
H765 H 0.85005 0.19699 0.30622 0.0
H766 H 0.83129 0.10271 0.34793 0.0
H767 H 0.83075 0.08245 0.399 0.0
C768 C 0.386 0.28556 0.82584 0.0
C769 C 0.33505 0.27279 0.83214 0.0
C770 C 0.34232 0.26154 0.90821 0.0
C771 C 0.39407 0.27167 0.90143 0.0
N772 N 0.46686 0.28865 0.85355 0.0
N773 N 0.26556 0.24399 0.87757 0.0
C774 C 0.41639 0.28245 0.86013 0.0
C775 C 0.31343 0.25945 0.87288 0.0
N776 N 0.405 0.30151 0.78728 0.0
N777 N 0.32058 0.25512 0.94859 0.0
H778 H 0.24295 0.2427 0.85259 0.0
H779 H 0.24931 0.22998 0.90538 0.0
H780 H 0.3406 0.25614 0.97521 0.0
H781 H 0.28237 0.25165 0.95602 0.0
H782 H 0.44029 0.31519 0.78178 0.0
H783 H 0.38414 0.30348 0.7612 0.0
H784 H 0.48603 0.29242 0.82371 0.0
H785 H 0.49019 0.28737 0.878 0.0
C786 C 0.21018 0.85154 0.36184 0.0
C787 C 0.25499 0.83368 0.36301 0.0
C788 C 0.28818 0.88126 0.40724 0.0
C789 C 0.24143 0.89659 0.40995 0.0
N790 N 0.156 0.89442 0.39395 0.0
N791 N 0.33457 0.82846 0.39053 0.0
C792 C 0.20189 0.8813 0.38823 0.0
C793 C 0.29355 0.84779 0.38662 0.0
N794 N 0.17622 0.84071 0.33458 0.0
N795 N 0.32769 0.8992 0.42369 0.0
H796 H 0.33995 0.80394 0.37568 0.0
H797 H 0.36142 0.835 0.41108 0.0
H798 H 0.3251 0.92377 0.43908 0.0
H799 H 0.36391 0.89166 0.41894 0.0
H800 H 0.1453 0.85507 0.32898 0.0
H801 H 0.18108 0.81907 0.31474 0.0
H802 H 0.12426 0.88164 0.38302 0.0
H803 H 0.14889 0.91674 0.41225 0.0
C804 C 0.66327 0.79191 0.83525 0.0
C805 C 0.71415 0.79944 0.84152 0.0
C806 C 0.6932 0.80219 0.91774 0.0
C807 C 0.64216 0.79722 0.91103 0.0
N808 N 0.57741 0.79217 0.86364 0.0
N809 N 0.77762 0.81723 0.88696 0.0
C810 C 0.62682 0.79349 0.86978 0.0
C811 C 0.72916 0.8061 0.88232 0.0
N812 N 0.65003 0.78218 0.79657 0.0
N813 N 0.70725 0.80227 0.95808 0.0
H814 H 0.80517 0.81999 0.86184 0.0
H815 H 0.79 0.8265 0.91493 0.0
H816 H 0.68187 0.80041 0.98475 0.0
H817 H 0.74387 0.8015 0.96542 0.0
H818 H 0.61424 0.77245 0.79097 0.0
H819 H 0.67572 0.78122 0.77046 0.0
H820 H 0.56387 0.79348 0.83394 0.0
H821 H 0.5497 0.79243 0.88837 0.0
loop_
_geom_bond_atom_site_label_1
_geom_bond_atom_site_label_2
_geom_bond_distance
_geom_bond_site_symmetry_2
_ccdc_geom_bond_type
H0 C3 0.931 . S
H1 C6 0.928 . S
H2 C8 0.930 . S
C3 H0 0.931 . S
C3 C4 1.413 . S
C3 C5 1.360 . S
C4 C3 1.413 . S
C4 C8 1.429 . S
C5 C3 1.360 . S
C5 C6 1.372 . S
C6 H1 0.928 . S
C6 C5 1.372 . S
C6 C7 1.404 . S
C7 C6 1.404 . S
C7 C8 1.391 . S
C8 H2 0.930 . S
C8 C4 1.429 . S
C8 C7 1.391 . S
H9 C12 0.931 . S
H10 C15 0.928 . S
H11 C17 0.930 . S
C12 H9 0.931 . S
C12 C13 1.413 . S
C12 C14 1.360 . S
C13 C12 1.413 . S
C13 C17 1.429 . S
C14 C12 1.360 . S
C14 C15 1.372 . S
C15 H10 0.928 . S
C15 C14 1.372 . S
C15 C16 1.404 . S
C16 C15 1.404 . S
C16 C17 1.391 . S
C17 H11 0.930 . S
C17 C13 1.429 . S
C17 C16 1.391 . S
H18 C21 0.931 . S
H19 C24 0.928 . S
H20 C26 0.930 . S
C21 H18 0.931 . S
C21 C22 1.413 . S
C21 C23 1.360 . S
C22 C21 1.413 . S
C22 C26 1.429 . S
C23 C21 1.360 . S
C23 C24 1.372 . S
C24 H19 0.928 . S
C24 C23 1.372 . S
C24 C25 1.404 . S
C25 C24 1.404 . S
C25 C26 1.391 . S
C26 H20 0.930 . S
C26 C22 1.429 . S
C26 C25 1.391 . S
H27 C30 0.931 . S
H28 C33 0.928 . S
H29 C35 0.930 . S
C30 H27 0.931 . S
C30 C31 1.413 . S
C30 C32 1.360 . S
C31 C30 1.413 . S
C31 C35 1.429 . S
C32 C30 1.360 . S
C32 C33 1.372 . S
C33 H28 0.928 . S
C33 C32 1.372 . S
C33 C34 1.404 . S
C34 C33 1.404 . S
C34 C35 1.391 . S
C35 H29 0.930 . S
C35 C31 1.429 . S
C35 C34 1.391 . S
H36 C39 0.931 . S
H37 C42 0.928 . S
H38 C44 0.930 . S
C39 H36 0.931 . S
C39 C40 1.413 . S
C39 C41 1.360 . S
C40 C39 1.413 . S
C40 C44 1.429 . S
C41 C39 1.360 . S
C41 C42 1.372 . S
C42 H37 0.928 . S
C42 C41 1.372 . S
C42 C43 1.404 . S
C43 C42 1.404 . S
C43 C44 1.391 . S
C44 H38 0.930 . S
C44 C40 1.429 . S
C44 C43 1.391 . S
H45 C48 0.931 . S
H46 C51 0.928 . S
H47 C53 0.930 . S
C48 H45 0.931 . S
C48 C49 1.413 . S
C48 C50 1.360 . S
C49 C48 1.413 . S
C49 C53 1.429 . S
C50 C48 1.360 . S
C50 C51 1.372 . S
C51 H46 0.928 . S
C51 C50 1.372 . S
C51 C52 1.404 . S
C52 C51 1.404 . S
C52 C53 1.391 . S
C53 H47 0.930 . S
C53 C49 1.429 . S
C53 C52 1.391 . S
H54 C57 0.931 . S
H55 C60 0.928 . S
H56 C62 0.930 . S
C57 H54 0.931 . S
C57 C58 1.413 . S
C57 C59 1.360 . S
C58 C57 1.413 . S
C58 C62 1.429 . S
C59 C57 1.360 . S
C59 C60 1.372 . S
C60 H55 0.928 . S
C60 C59 1.372 . S
C60 C61 1.404 . S
C61 C60 1.404 . S
C61 C62 1.391 . S
C62 H56 0.930 . S
C62 C58 1.429 . S
C62 C61 1.391 . S
H63 C66 0.931 . S
H64 C69 0.928 . S
H65 C71 0.930 . S
C66 H63 0.931 . S
C66 C67 1.413 . S
C66 C68 1.360 . S
C67 C66 1.413 . S
C67 C71 1.429 . S
C68 C66 1.360 . S
C68 C69 1.372 . S
C69 H64 0.928 . S
C69 C68 1.372 . S
C69 C70 1.404 . S
C70 C69 1.404 . S
C70 C71 1.391 . S
C71 H65 0.930 . S
C71 C67 1.429 . S
C71 C70 1.391 . S
C72 C73 1.443 . S
C72 N76 1.376 . S
C72 C110 1.389 . S
C73 C72 1.443 . S
C73 C74 1.340 . S
C73 H113 0.951 . S
C74 C73 1.340 . S
C74 C75 1.439 . S
C74 H114 0.950 . S
C75 C74 1.439 . S
C75 N76 1.374 . S
C75 C109 1.395 . S
N76 C72 1.376 . S
N76 C75 1.374 . S
N76 Co77 2.008 . S
Co77 N76 2.008 . S
Co77 N78 1.995 1_455 S
Co77 N83 2.008 . S
Co77 N88 1.995 . S
Co77 N93 2.282 . S
Co77 N99 2.282 1_455 S
N78 Co77 1.995 1_655 S
N78 C79 1.376 . S
N78 C82 1.383 . S
C79 N78 1.376 . S
C79 C80 1.446 . S
C79 C109 1.391 1_655 S
C80 C79 1.446 . S
C80 C81 1.339 . S
C80 H115 0.949 . S
C81 C80 1.339 . S
C81 C82 1.439 . S
C81 H116 0.950 . S
C82 N78 1.383 . S
C82 C81 1.439 . S
C82 C111 1.392 . S
N83 Co77 2.008 . S
N83 C84 1.376 1_455 S
N83 C87 1.374 . S
C84 N83 1.376 1_655 S
C84 C85 1.443 . S
C84 C111 1.389 . S
C85 C84 1.443 . S
C85 C86 1.340 . S
C85 H117 0.951 . S
C86 C85 1.340 . S
C86 C87 1.439 1_655 S
C86 H118 0.950 . S
C87 N83 1.374 . S
C87 C86 1.439 1_455 S
C87 C112 1.395 . S
N88 Co77 1.995 . S
N88 C89 1.376 . S
N88 C92 1.383 . S
C89 N88 1.376 . S
C89 C90 1.446 . S
C89 C112 1.391 . S
C90 C89 1.446 . S
C90 C91 1.339 . S
C90 H119 0.949 . S
C91 C90 1.339 . S
C91 C92 1.439 . S
C91 H120 0.950 . S
C92 N88 1.383 . S
C92 C91 1.439 . S
C92 C110 1.392 . S
N93 Co77 2.282 . S
N93 C96 1.332 . S
N93 C98 1.332 . S
C94 C95 1.386 . S
C94 C97 1.388 . S
C95 C94 1.386 . S
C95 C96 1.382 . S
C95 H121 0.950 . S
C96 N93 1.332 . S
C96 C95 1.382 . S
C96 H107 0.952 . S
C97 C94 1.388 . S
C97 C98 1.382 . S
C97 H122 0.950 . S
C98 N93 1.332 . S
C98 C97 1.382 . S
C98 H108 0.948 . S
N99 Co77 2.282 1_655 S
N99 C103 1.332 . S
N99 C104 1.332 . S
C100 C101 1.388 . S
C100 C104 1.382 . S
C100 H123 0.950 . S
C101 C100 1.388 . S
C101 C102 1.386 . S
C102 C101 1.386 . S
C102 C103 1.382 . S
C102 H124 0.950 . S
C103 N99 1.332 . S
C103 C102 1.382 . S
C103 H105 0.952 . S
C104 N99 1.332 . S
C104 C100 1.382 . S
C104 H106 0.948 . S
H105 C103 0.952 . S
H106 C104 0.948 . S
H107 C96 0.952 . S
H108 C98 0.948 . S
C109 C75 1.395 . S
C109 C79 1.391 1_455 S
C110 C72 1.389 . S
C110 C92 1.392 . S
C111 C82 1.392 . S
C111 C84 1.389 . S
C112 C87 1.395 . S
C112 C89 1.391 . S
H113 C73 0.951 . S
H114 C74 0.950 . S
H115 C80 0.949 . S
H116 C81 0.950 . S
H117 C85 0.951 . S
H118 C86 0.950 . S
H119 C90 0.949 . S
H120 C91 0.950 . S
H121 C95 0.950 . S
H122 C97 0.950 . S
H123 C100 0.950 . S
H124 C102 0.950 . S
C125 C126 1.443 . S
C125 N129 1.376 . S
C125 C163 1.389 . S
C126 C125 1.443 . S
C126 C127 1.340 . S
C126 H166 0.951 . S
C127 C126 1.340 . S
C127 C128 1.439 . S
C127 H167 0.950 . S
C128 C127 1.439 . S
C128 N129 1.374 . S
C128 C162 1.395 . S
N129 C125 1.376 . S
N129 C128 1.374 . S
N129 Co130 2.008 . S
Co130 N129 2.008 . S
Co130 N131 1.995 1_455 S
Co130 N136 2.008 1_455 S
Co130 N141 1.995 . S
Co130 N146 2.282 . S
Co130 N152 2.282 1_455 S
N131 Co130 1.995 1_655 S
N131 C132 1.376 . S
N131 C135 1.383 . S
C132 N131 1.376 . S
C132 C133 1.446 . S
C132 C162 1.391 1_655 S
C133 C132 1.446 . S
C133 C134 1.339 . S
C133 H168 0.949 . S
C134 C133 1.339 . S
C134 C135 1.439 . S
C134 H169 0.950 . S
C135 N131 1.383 . S
C135 C134 1.439 . S
C135 C164 1.392 . S
N136 Co130 2.008 1_655 S
N136 C137 1.376 . S
N136 C140 1.374 1_655 S
C137 N136 1.376 . S
C137 C138 1.443 . S
C137 C164 1.389 . S
C138 C137 1.443 . S
C138 C139 1.340 . S
C138 H170 0.951 . S
C139 C138 1.340 . S
C139 C140 1.439 1_655 S
C139 H171 0.950 . S
C140 N136 1.374 1_455 S
C140 C139 1.439 1_455 S
C140 C165 1.395 . S
N141 Co130 1.995 . S
N141 C142 1.376 . S
N141 C145 1.383 . S
C142 N141 1.376 . S
C142 C143 1.446 . S
C142 C165 1.391 . S
C143 C142 1.446 . S
C143 C144 1.339 . S
C143 H172 0.949 . S
C144 C143 1.339 . S
C144 C145 1.439 . S
C144 H173 0.950 . S
C145 N141 1.383 . S
C145 C144 1.439 . S
C145 C163 1.392 . S
N146 Co130 2.282 . S
N146 C149 1.332 . S
N146 C151 1.332 . S
C147 C148 1.386 . S
C147 C150 1.388 . S
C148 C147 1.386 . S
C148 C149 1.382 . S
C148 H174 0.950 . S
C149 N146 1.332 . S
C149 C148 1.382 . S
C149 H160 0.952 . S
C150 C147 1.388 . S
C150 C151 1.382 . S
C150 H175 0.950 . S
C151 N146 1.332 . S
C151 C150 1.382 . S
C151 H161 0.948 . S
N152 Co130 2.282 1_655 S
N152 C156 1.332 . S
N152 C157 1.332 . S
C153 C154 1.388 . S
C153 C157 1.382 . S
C153 H176 0.950 . S
C154 C153 1.388 . S
C154 C155 1.386 . S
C155 C154 1.386 . S
C155 C156 1.382 . S
C155 H177 0.950 . S
C156 N152 1.332 . S
C156 C155 1.382 . S
C156 H158 0.952 . S
C157 N152 1.332 . S
C157 C153 1.382 . S
C157 H159 0.948 . S
H158 C156 0.952 . S
H159 C157 0.948 . S
H160 C149 0.952 . S
H161 C151 0.948 . S
C162 C128 1.395 . S
C162 C132 1.391 1_455 S
C163 C125 1.389 . S
C163 C145 1.392 . S
C164 C135 1.392 . S
C164 C137 1.389 . S
C165 C140 1.395 . S
C165 C142 1.391 . S
H166 C126 0.951 . S
H167 C127 0.950 . S
H168 C133 0.949 . S
H169 C134 0.950 . S
H170 C138 0.951 . S
H171 C139 0.950 . S
H172 C143 0.949 . S
H173 C144 0.950 . S
H174 C148 0.950 . S
H175 C150 0.950 . S
H176 C153 0.950 . S
H177 C155 0.950 . S
C178 C179 1.443 . S
C178 N182 1.376 . S
C178 C216 1.389 . S
C179 C178 1.443 . S
C179 C180 1.340 . S
C179 H219 0.951 . S
C180 C179 1.340 . S
C180 C181 1.439 . S
C180 H220 0.950 . S
C181 C180 1.439 . S
C181 N182 1.374 . S
C181 C215 1.395 1_565 S
N182 C178 1.376 . S
N182 C181 1.374 . S
N182 Co183 2.008 1_565 S
Co183 N182 2.008 1_545 S
Co183 N184 1.995 . S
Co183 N189 2.008 . S
Co183 N194 1.995 1_545 S
Co183 N199 2.282 . S
Co183 N205 2.282 1_545 S
N184 Co183 1.995 . S
N184 C185 1.376 . S
N184 C188 1.383 . S
C185 N184 1.376 . S
C185 C186 1.446 . S
C185 C215 1.391 . S
C186 C185 1.446 . S
C186 C187 1.339 . S
C186 H221 0.949 . S
C187 C186 1.339 . S
C187 C188 1.439 . S
C187 H222 0.950 . S
C188 N184 1.383 . S
C188 C187 1.439 . S
C188 C217 1.392 . S
N189 Co183 2.008 . S
N189 C190 1.376 . S
N189 C193 1.374 . S
C190 N189 1.376 . S
C190 C191 1.443 . S
C190 C217 1.389 . S
C191 C190 1.443 . S
C191 C192 1.340 . S
C191 H223 0.951 . S
C192 C191 1.340 . S
C192 C193 1.439 . S
C192 H224 0.950 . S
C193 N189 1.374 . S
C193 C192 1.439 . S
C193 C218 1.395 . S
N194 Co183 1.995 1_565 S
N194 C195 1.376 . S
N194 C198 1.383 . S
C195 N194 1.376 . S
C195 C196 1.446 . S
C195 C218 1.391 1_565 S
C196 C195 1.446 . S
C196 C197 1.339 . S
C196 H225 0.949 . S
C197 C196 1.339 . S
C197 C198 1.439 . S
C197 H226 0.950 . S
C198 N194 1.383 . S
C198 C197 1.439 . S
C198 C216 1.392 . S
N199 Co183 2.282 . S
N199 C202 1.332 . S
N199 C204 1.332 . S
C200 C201 1.386 . S
C200 C203 1.388 . S
C201 C200 1.386 . S
C201 C202 1.382 . S
C201 H227 0.950 . S
C202 N199 1.332 . S
C202 C201 1.382 . S
C202 H213 0.952 . S
C203 C200 1.388 . S
C203 C204 1.382 . S
C203 H228 0.950 . S
C204 N199 1.332 . S
C204 C203 1.382 . S
C204 H214 0.948 . S
N205 Co183 2.282 1_565 S
N205 C209 1.332 . S
N205 C210 1.332 . S
C206 C207 1.388 . S
C206 C210 1.382 . S
C206 H229 0.950 . S
C207 C206 1.388 . S
C207 C208 1.386 . S
C208 C207 1.386 . S
C208 C209 1.382 . S
C208 H230 0.950 . S
C209 N205 1.332 . S
C209 C208 1.382 . S
C209 H211 0.952 . S
C210 N205 1.332 . S
C210 C206 1.382 . S
C210 H212 0.948 . S
H211 C209 0.952 . S
H212 C210 0.948 . S
H213 C202 0.952 . S
H214 C204 0.948 . S
C215 C181 1.395 1_545 S
C215 C185 1.391 . S
C216 C178 1.389 . S
C216 C198 1.392 . S
C217 C188 1.392 . S
C217 C190 1.389 . S
C218 C193 1.395 . S
C218 C195 1.391 1_545 S
H219 C179 0.951 . S
H220 C180 0.950 . S
H221 C186 0.949 . S
H222 C187 0.950 . S
H223 C191 0.951 . S
H224 C192 0.950 . S
H225 C196 0.949 . S
H226 C197 0.950 . S
H227 C201 0.950 . S
H228 C203 0.950 . S
H229 C206 0.950 . S
H230 C208 0.950 . S
C231 C232 1.443 . S
C231 N235 1.376 . S
C231 C269 1.389 . S
C232 C231 1.443 . S
C232 C233 1.340 . S
C232 H272 0.951 . S
C233 C232 1.340 . S
C233 C234 1.439 . S
C233 H273 0.950 . S
C234 C233 1.439 . S
C234 N235 1.374 . S
C234 C268 1.395 . S
N235 C231 1.376 . S
N235 C234 1.374 . S
N235 Co236 2.008 . S
Co236 N235 2.008 . S
Co236 N237 1.995 1_554 S
Co236 N242 2.008 1_554 S
Co236 N247 1.995 . S
Co236 N252 2.282 1_554 S
Co236 N258 2.282 . S
N237 Co236 1.995 1_556 S
N237 C238 1.377 . S
N237 C241 1.383 . S
C238 N237 1.377 . S
C238 C239 1.451 . S
C238 C268 1.386 1_556 S
C239 C238 1.451 . S
C239 C240 1.339 . S
C239 H274 0.949 . S
C240 C239 1.339 . S
C240 C241 1.439 . S
C240 H275 0.950 . S
C241 N237 1.383 . S
C241 C240 1.439 . S
C241 C270 1.392 . S
N242 Co236 2.008 1_556 S
N242 C243 1.376 . S
N242 C246 1.374 . S
C243 N242 1.376 . S
C243 C244 1.443 . S
C243 C270 1.389 . S
C244 C243 1.443 . S
C244 C245 1.340 . S
C244 H276 0.951 . S
C245 C244 1.340 . S
C245 C246 1.439 . S
C245 H277 0.950 . S
C246 N242 1.374 . S
C246 C245 1.439 . S
C246 C271 1.395 1_556 S
N247 Co236 1.995 . S
N247 C248 1.376 . S
N247 C251 1.383 . S
C248 N247 1.376 . S
C248 C249 1.446 . S
C248 C271 1.391 . S
C249 C248 1.446 . S
C249 C250 1.339 . S
C249 H278 0.949 . S
C250 C249 1.339 . S
C250 C251 1.439 . S
C250 H279 0.950 . S
C251 N247 1.383 . S
C251 C250 1.439 . S
C251 C269 1.392 . S
N252 Co236 2.282 1_556 S
N252 C255 1.332 . S
N252 C257 1.332 . S
C253 C254 1.386 . S
C253 C256 1.388 . S
C254 C253 1.386 . S
C254 C255 1.382 . S
C254 H280 0.950 . S
C255 N252 1.332 . S
C255 C254 1.382 . S
C255 H266 0.952 . S
C256 C253 1.388 . S
C256 C257 1.382 . S
C256 H281 0.950 . S
C257 N252 1.332 . S
C257 C256 1.382 . S
C257 H267 0.948 . S
N258 Co236 2.282 . S
N258 C262 1.332 . S
N258 C263 1.332 . S
C259 C260 1.388 . S
C259 C263 1.382 . S
C259 H282 0.950 . S
C260 C259 1.388 . S
C260 C261 1.386 . S
C261 C260 1.386 . S
C261 C262 1.382 . S
C261 H283 0.950 . S
C262 N258 1.332 . S
C262 C261 1.382 . S
C262 H264 0.952 . S
C263 N258 1.332 . S
C263 C259 1.382 . S
C263 H265 0.948 . S
H264 C262 0.952 . S
H265 C263 0.948 . S
H266 C255 0.952 . S
H267 C257 0.948 . S
C268 C234 1.395 . S
C268 C238 1.386 1_554 S
C269 C231 1.389 . S
C269 C251 1.392 . S
C270 C241 1.392 . S
C270 C243 1.389 . S
C271 C246 1.395 1_554 S
C271 C248 1.391 . S
H272 C232 0.951 . S
H273 C233 0.950 . S
H274 C239 0.949 . S
H275 C240 0.950 . S
H276 C244 0.951 . S
H277 C245 0.950 . S
H278 C249 0.949 . S
H279 C250 0.950 . S
H280 C254 0.950 . S
H281 C256 0.950 . S
H282 C259 0.950 . S
H283 C261 0.950 . S
C284 C285 1.443 . S
C284 N288 1.376 1_565 S
C284 C322 1.389 . S
C285 C284 1.443 . S
C285 C286 1.340 . S
C285 H325 0.951 . S
C286 C285 1.340 . S
C286 C287 1.439 1_565 S
C286 H326 0.950 . S
C287 C286 1.439 1_545 S
C287 N288 1.374 . S
C287 C321 1.395 . S
N288 C284 1.376 1_545 S
N288 C287 1.374 . S
N288 Co289 2.008 . S
Co289 N288 2.008 . S
Co289 N290 1.995 . S
Co289 N295 2.008 . S
Co289 N300 1.995 . S
Co289 N305 2.282 . S
Co289 N311 2.282 1_545 S
N290 Co289 1.995 . S
N290 C291 1.376 . S
N290 C294 1.383 . S
C291 N290 1.376 . S
C291 C292 1.446 . S
C291 C321 1.391 . S
C292 C291 1.446 . S
C292 C293 1.339 . S
C292 H327 0.949 . S
C293 C292 1.339 . S
C293 C294 1.439 . S
C293 H328 0.950 . S
C294 N290 1.383 . S
C294 C293 1.439 . S
C294 C323 1.392 . S
N295 Co289 2.008 . S
N295 C296 1.376 . S
N295 C299 1.374 . S
C296 N295 1.376 . S
C296 C297 1.443 . S
C296 C323 1.389 . S
C297 C296 1.443 . S
C297 C298 1.340 . S
C297 H329 0.951 . S
C298 C297 1.340 . S
C298 C299 1.439 . S
C298 H330 0.950 . S
C299 N295 1.374 . S
C299 C298 1.439 . S
C299 C324 1.395 . S
N300 Co289 1.995 . S
N300 C301 1.376 . S
N300 C304 1.383 1_545 S
C301 N300 1.376 . S
C301 C302 1.446 1_545 S
C301 C324 1.391 . S
C302 C301 1.446 1_565 S
C302 C303 1.339 . S
C302 H331 0.949 . S
C303 C302 1.339 . S
C303 C304 1.439 . S
C303 H332 0.950 . S
C304 N300 1.383 1_565 S
C304 C303 1.439 . S
C304 C322 1.392 . S
N305 Co289 2.282 . S
N305 C308 1.332 . S
N305 C310 1.332 . S
C306 C307 1.386 . S
C306 C309 1.388 . S
C307 C306 1.386 . S
C307 C308 1.382 . S
C307 H333 0.950 . S
C308 N305 1.332 . S
C308 C307 1.382 . S
C308 H319 0.952 . S
C309 C306 1.388 . S
C309 C310 1.382 . S
C309 H334 0.950 . S
C310 N305 1.332 . S
C310 C309 1.382 . S
C310 H320 0.948 . S
N311 Co289 2.282 1_565 S
N311 C315 1.332 . S
N311 C316 1.332 . S
C312 C313 1.388 . S
C312 C316 1.382 . S
C312 H335 0.950 . S
C313 C312 1.388 . S
C313 C314 1.386 . S
C314 C313 1.386 . S
C314 C315 1.382 . S
C314 H336 0.950 . S
C315 N311 1.332 . S
C315 C314 1.382 . S
C315 H317 0.952 . S
C316 N311 1.332 . S
C316 C312 1.382 . S
C316 H318 0.948 . S
H317 C315 0.952 . S
H318 C316 0.948 . S
H319 C308 0.952 . S
H320 C310 0.948 . S
C321 C287 1.395 . S
C321 C291 1.391 . S
C322 C284 1.389 . S
C322 C304 1.392 . S
C323 C294 1.392 . S
C323 C296 1.389 . S
C324 C299 1.395 . S
C324 C301 1.391 . S
H325 C285 0.951 . S
H326 C286 0.950 . S
H327 C292 0.949 . S
H328 C293 0.950 . S
H329 C297 0.951 . S
H330 C298 0.950 . S
H331 C302 0.949 . S
H332 C303 0.950 . S
H333 C307 0.950 . S
H334 C309 0.950 . S
H335 C312 0.950 . S
H336 C314 0.950 . S
C337 C338 1.443 . S
C337 N341 1.376 . S
C337 C375 1.389 . S
C338 C337 1.443 . S
C338 C339 1.340 . S
C338 H378 0.951 . S
C339 C338 1.340 . S
C339 C340 1.439 . S
C339 H379 0.950 . S
C340 C339 1.439 . S
C340 N341 1.374 . S
C340 C374 1.395 . S
N341 C337 1.376 . S
N341 C340 1.374 . S
N341 Co342 2.008 . S
Co342 N341 2.008 . S
Co342 N343 1.995 . S
Co342 N348 2.008 . S
Co342 N353 1.995 . S
Co342 N358 2.303 . S
Co342 N364 2.282 . S
N343 Co342 1.995 . S
N343 C344 1.376 . S
N343 C347 1.383 1_554 S
C344 N343 1.376 . S
C344 C345 1.446 1_554 S
C344 C374 1.391 . S
C345 C344 1.446 1_556 S
C345 C346 1.339 . S
C345 H380 0.949 . S
C346 C345 1.339 . S
C346 C347 1.439 . S
C346 H381 0.950 . S
C347 N343 1.383 1_556 S
C347 C346 1.439 . S
C347 C376 1.392 . S
N348 Co342 2.008 . S
N348 C349 1.376 1_554 S
N348 C352 1.374 . S
C349 N348 1.376 1_556 S
C349 C350 1.443 . S
C349 C376 1.389 . S
C350 C349 1.443 . S
C350 C351 1.340 . S
C350 H382 0.951 . S
C351 C350 1.340 . S
C351 C352 1.439 1_556 S
C351 H383 0.950 . S
C352 N348 1.374 . S
C352 C351 1.439 1_554 S
C352 C377 1.395 . S
N353 Co342 1.995 . S
N353 C354 1.376 . S
N353 C357 1.383 . S
C354 N353 1.376 . S
C354 C355 1.446 . S
C354 C377 1.391 . S
C355 C354 1.446 . S
C355 C356 1.339 . S
C355 H384 0.949 . S
C356 C355 1.339 . S
C356 C357 1.439 . S
C356 H385 0.950 . S
C357 N353 1.383 . S
C357 C356 1.439 . S
C357 C375 1.392 . S
N358 Co342 2.303 . S
N358 C361 1.323 1_554 S
N358 C363 1.317 1_554 S
C359 C360 1.386 . S
C359 C362 1.388 . S
C360 C359 1.386 . S
C360 C361 1.382 . S
C360 H386 0.950 . S
C361 N358 1.323 1_556 S
C361 C360 1.382 . S
C361 H372 0.952 1_556 S
C362 C359 1.388 . S
C362 C363 1.382 . S
C362 H387 0.950 . S
C363 N358 1.317 1_556 S
C363 C362 1.382 . S
C363 H373 0.948 . S
N364 Co342 2.282 . S
N364 C368 1.332 . S
N364 C369 1.332 . S
C365 C366 1.388 . S
C365 C369 1.382 . S
C365 H388 0.950 . S
C366 C365 1.388 . S
C366 C367 1.386 . S
C367 C366 1.386 . S
C367 C368 1.382 . S
C367 H389 0.950 . S
C368 N364 1.332 . S
C368 C367 1.382 . S
C368 H370 0.952 . S
C369 N364 1.332 . S
C369 C365 1.382 . S
C369 H371 0.948 . S
H370 C368 0.952 . S
H371 C369 0.948 . S
H372 C361 0.952 1_554 S
H373 C363 0.948 . S
C374 C340 1.395 . S
C374 C344 1.391 . S
C375 C337 1.389 . S
C375 C357 1.392 . S
C376 C347 1.392 . S
C376 C349 1.389 . S
C377 C352 1.395 . S
C377 C354 1.391 . S
H378 C338 0.951 . S
H379 C339 0.950 . S
H380 C345 0.949 . S
H381 C346 0.950 . S
H382 C350 0.951 . S
H383 C351 0.950 . S
H384 C355 0.949 . S
H385 C356 0.950 . S
H386 C360 0.950 . S
H387 C362 0.950 . S
H388 C365 0.950 . S
H389 C367 0.950 . S
C390 C391 1.363 . S
C390 C396 1.379 . S
C390 N398 1.356 . S
C391 C390 1.363 . S
C391 C397 1.363 . S
C392 C393 1.363 . S
C392 C397 1.379 . S
C392 N399 1.356 . S
C393 C392 1.363 . S
C393 C396 1.363 . S
N394 C396 1.356 . S
N394 H406 0.984 . S
N394 H407 0.985 . S
N395 C397 1.356 . S
N395 H400 0.984 . S
N395 H401 0.985 . S
C396 C390 1.379 . S
C396 C393 1.363 . S
C396 N394 1.356 . S
C397 C391 1.363 . S
C397 C392 1.379 . S
C397 N395 1.356 . S
N398 C390 1.356 . S
N398 H404 0.984 . S
N398 H405 0.984 . S
N399 C392 1.356 . S
N399 H402 0.984 . S
N399 H403 0.985 . S
H400 N395 0.984 . S
H401 N395 0.985 . S
H402 N399 0.984 . S
H403 N399 0.985 . S
H404 N398 0.984 . S
H405 N398 0.984 . S
H406 N394 0.984 . S
H407 N394 0.985 . S
C408 C409 1.363 . S
C408 C414 1.379 . S
C408 N416 1.356 . S
C409 C408 1.363 . S
C409 C415 1.363 . S
C410 C411 1.363 . S
C410 C415 1.379 . S
C410 N417 1.356 . S
C411 C410 1.363 . S
C411 C414 1.363 . S
N412 C414 1.356 . S
N412 H424 0.984 . S
N412 H425 0.985 . S
N413 C415 1.356 . S
N413 H418 0.984 . S
N413 H419 0.985 . S
C414 C408 1.379 . S
C414 C411 1.363 . S
C414 N412 1.356 . S
C415 C409 1.363 . S
C415 C410 1.379 . S
C415 N413 1.356 . S
N416 C408 1.356 . S
N416 H422 0.984 . S
N416 H423 0.984 . S
N417 C410 1.356 . S
N417 H420 0.984 . S
N417 H421 0.985 . S
H418 N413 0.984 . S
H419 N413 0.985 . S
H420 N417 0.984 . S
H421 N417 0.985 . S
H422 N416 0.984 . S
H423 N416 0.984 . S
H424 N412 0.984 . S
H425 N412 0.985 . S
C426 C427 1.363 . S
C426 C432 1.379 . S
C426 N434 1.356 . S
C427 C426 1.363 . S
C427 C433 1.363 . S
C428 C429 1.363 . S
C428 C433 1.379 . S
C428 N435 1.356 . S
C429 C428 1.363 . S
C429 C432 1.363 . S
N430 C432 1.356 . S
N430 H442 0.984 . S
N430 H443 0.985 . S
N431 C433 1.356 . S
N431 H436 0.984 . S
N431 H437 0.985 . S
C432 C426 1.379 . S
C432 C429 1.363 . S
C432 N430 1.356 . S
C433 C427 1.363 . S
C433 C428 1.379 . S
C433 N431 1.356 . S
N434 C426 1.356 . S
N434 H440 0.984 . S
N434 H441 0.984 . S
N435 C428 1.356 . S
N435 H438 0.984 . S
N435 H439 0.985 . S
H436 N431 0.984 . S
H437 N431 0.985 . S
H438 N435 0.984 . S
H439 N435 0.985 . S
H440 N434 0.984 . S
H441 N434 0.984 . S
H442 N430 0.984 . S
H443 N430 0.985 . S
C444 C445 1.363 . S
C444 C450 1.379 . S
C444 N452 1.356 . S
C445 C444 1.363 . S
C445 C451 1.363 . S
C446 C447 1.363 . S
C446 C451 1.379 . S
C446 N453 1.356 . S
C447 C446 1.363 . S
C447 C450 1.363 . S
N448 C450 1.356 . S
N448 H460 0.984 . S
N448 H461 0.985 . S
N449 C451 1.356 . S
N449 H454 0.984 . S
N449 H455 0.985 . S
C450 C444 1.379 . S
C450 C447 1.363 . S
C450 N448 1.356 . S
C451 C445 1.363 . S
C451 C446 1.379 . S
C451 N449 1.356 . S
N452 C444 1.356 . S
N452 H458 0.984 . S
N452 H459 0.984 . S
N453 C446 1.356 . S
N453 H456 0.984 . S
N453 H457 0.985 . S
H454 N449 0.984 . S
H455 N449 0.985 . S
H456 N453 0.984 . S
H457 N453 0.985 . S
H458 N452 0.984 . S
H459 N452 0.984 . S
H460 N448 0.984 . S
H461 N448 0.985 . S
C462 C463 1.363 . S
C462 C468 1.379 . S
C462 N470 1.356 . S
C463 C462 1.363 . S
C463 C469 1.363 . S
C464 C465 1.363 . S
C464 C469 1.379 . S
C464 N471 1.356 . S
C465 C464 1.363 . S
C465 C468 1.363 . S
N466 C468 1.356 . S
N466 H478 0.984 . S
N466 H479 0.985 . S
N467 C469 1.356 . S
N467 H472 0.984 . S
N467 H473 0.985 . S
C468 C462 1.379 . S
C468 C465 1.363 . S
C468 N466 1.356 . S
C469 C463 1.363 . S
C469 C464 1.379 . S
C469 N467 1.356 . S
N470 C462 1.356 . S
N470 H476 0.984 . S
N470 H477 0.984 . S
N471 C464 1.356 . S
N471 H474 0.984 . S
N471 H475 0.985 . S
H472 N467 0.984 . S
H473 N467 0.985 . S
H474 N471 0.984 . S
H475 N471 0.985 . S
H476 N470 0.984 . S
H477 N470 0.984 . S
H478 N466 0.984 . S
H479 N466 0.985 . S
C480 C481 1.363 . S
C480 C486 1.379 . S
C480 N488 1.356 . S
C481 C480 1.363 . S
C481 C487 1.363 . S
C482 C483 1.363 . S
C482 C487 1.379 . S
C482 N489 1.356 . S
C483 C482 1.363 . S
C483 C486 1.363 . S
N484 C486 1.356 . S
N484 H496 0.984 . S
N484 H497 0.985 . S
N485 C487 1.356 . S
N485 H490 0.984 . S
N485 H491 0.985 . S
C486 C480 1.379 . S
C486 C483 1.363 . S
C486 N484 1.356 . S
C487 C481 1.363 . S
C487 C482 1.379 . S
C487 N485 1.356 . S
N488 C480 1.356 . S
N488 H494 0.984 . S
N488 H495 0.984 . S
N489 C482 1.356 . S
N489 H492 0.984 . S
N489 H493 0.985 . S
H490 N485 0.984 . S
H491 N485 0.985 . S
H492 N489 0.984 . S
H493 N489 0.985 . S
H494 N488 0.984 . S
H495 N488 0.984 . S
H496 N484 0.984 . S
H497 N484 0.985 . S
C498 C499 1.363 . S
C498 C504 1.379 . S
C498 N506 1.356 . S
C499 C498 1.363 . S
C499 C505 1.363 . S
C500 C501 1.363 . S
C500 C505 1.379 . S
C500 N507 1.356 . S
C501 C500 1.363 . S
C501 C504 1.363 . S
N502 C504 1.356 . S
N502 H514 0.984 . S
N502 H515 0.985 . S
N503 C505 1.356 . S
N503 H508 0.984 . S
N503 H509 0.985 . S
C504 C498 1.379 . S
C504 C501 1.363 . S
C504 N502 1.356 . S
C505 C499 1.363 . S
C505 C500 1.379 . S
C505 N503 1.356 . S
N506 C498 1.356 . S
N506 H512 0.984 . S
N506 H513 0.984 . S
N507 C500 1.356 . S
N507 H510 0.984 . S
N507 H511 0.985 . S
H508 N503 0.984 . S
H509 N503 0.985 . S
H510 N507 0.984 . S
H511 N507 0.985 . S
H512 N506 0.984 . S
H513 N506 0.984 . S
H514 N502 0.984 . S
H515 N502 0.985 . S
C516 C517 1.363 . S
C516 C522 1.379 . S
C516 N524 1.356 . S
C517 C516 1.363 . S
C517 C523 1.363 . S
C518 C519 1.363 . S
C518 C523 1.379 . S
C518 N525 1.356 . S
C519 C518 1.363 . S
C519 C522 1.363 . S
N520 C522 1.356 . S
N520 H532 0.984 . S
N520 H533 0.985 . S
N521 C523 1.356 . S
N521 H526 0.984 . S
N521 H527 0.985 . S
C522 C516 1.379 . S
C522 C519 1.363 . S
C522 N520 1.356 . S
C523 C517 1.363 . S
C523 C518 1.379 . S
C523 N521 1.356 . S
N524 C516 1.356 . S
N524 H530 0.984 . S
N524 H531 0.984 . S
N525 C518 1.356 . S
N525 H528 0.984 . S
N525 H529 0.985 . S
H526 N521 0.984 . S
H527 N521 0.985 . S
H528 N525 0.984 . S
H529 N525 0.985 . S
H530 N524 0.984 . S
H531 N524 0.984 . S
H532 N520 0.984 . S
H533 N520 0.985 . S
C534 C535 1.363 . S
C534 C540 1.379 . S
C534 N542 1.356 . S
C535 C534 1.363 . S
C535 C541 1.363 . S
C536 C537 1.363 . S
C536 C541 1.379 . S
C536 N543 1.356 . S
C537 C536 1.363 . S
C537 C540 1.363 . S
N538 C540 1.356 . S
N538 H550 0.984 . S
N538 H551 0.985 . S
N539 C541 1.356 . S
N539 H544 0.984 . S
N539 H545 0.985 . S
C540 C534 1.379 . S
C540 C537 1.363 . S
C540 N538 1.356 . S
C541 C535 1.363 . S
C541 C536 1.379 . S
C541 N539 1.356 . S
N542 C534 1.356 . S
N542 H548 0.984 . S
N542 H549 0.984 . S
N543 C536 1.356 . S
N543 H546 0.984 . S
N543 H547 0.985 . S
H544 N539 0.984 . S
H545 N539 0.985 . S
H546 N543 0.984 . S
H547 N543 0.985 . S
H548 N542 0.984 . S
H549 N542 0.984 . S
H550 N538 0.984 . S
H551 N538 0.985 . S
C552 C553 1.363 . S
C552 C558 1.379 . S
C552 N560 1.356 . S
C553 C552 1.363 . S
C553 C559 1.363 . S
C554 C555 1.363 . S
C554 C559 1.379 . S
C554 N561 1.356 . S
C555 C554 1.363 . S
C555 C558 1.363 . S
N556 C558 1.356 . S
N556 H568 0.984 . S
N556 H569 0.985 . S
N557 C559 1.356 . S
N557 H562 0.984 . S
N557 H563 0.985 . S
C558 C552 1.379 . S
C558 C555 1.363 . S
C558 N556 1.356 . S
C559 C553 1.363 . S
C559 C554 1.379 . S
C559 N557 1.356 . S
N560 C552 1.356 . S
N560 H566 0.984 . S
N560 H567 0.984 . S
N561 C554 1.356 . S
N561 H564 0.984 . S
N561 H565 0.985 . S
H562 N557 0.984 . S
H563 N557 0.985 . S
H564 N561 0.984 . S
H565 N561 0.985 . S
H566 N560 0.984 . S
H567 N560 0.984 . S
H568 N556 0.984 . S
H569 N556 0.985 . S
C570 C571 1.363 . S
C570 C576 1.379 . S
C570 N578 1.356 . S
C571 C570 1.363 . S
C571 C577 1.363 . S
C572 C573 1.363 . S
C572 C577 1.379 . S
C572 N579 1.356 . S
C573 C572 1.363 . S
C573 C576 1.363 . S
N574 C576 1.356 . S
N574 H586 0.984 . S
N574 H587 0.985 . S
N575 C577 1.356 . S
N575 H580 0.984 . S
N575 H581 0.985 . S
C576 C570 1.379 . S
C576 C573 1.363 . S
C576 N574 1.356 . S
C577 C571 1.363 . S
C577 C572 1.379 . S
C577 N575 1.356 . S
N578 C570 1.356 . S
N578 H584 0.984 . S
N578 H585 0.984 . S
N579 C572 1.356 . S
N579 H582 0.984 . S
N579 H583 0.985 . S
H580 N575 0.984 . S
H581 N575 0.985 . S
H582 N579 0.984 . S
H583 N579 0.985 . S
H584 N578 0.984 . S
H585 N578 0.984 . S
H586 N574 0.984 . S
H587 N574 0.985 . S
C588 C589 1.363 . S
C588 C594 1.379 . S
C588 N596 1.356 . S
C589 C588 1.363 . S
C589 C595 1.363 . S
C590 C591 1.363 . S
C590 C595 1.379 . S
C590 N597 1.356 . S
C591 C590 1.363 . S
C591 C594 1.363 . S
N592 C594 1.356 . S
N592 H604 0.984 . S
N592 H605 0.985 . S
N593 C595 1.356 . S
N593 H598 0.984 . S
N593 H599 0.985 . S
C594 C588 1.379 . S
C594 C591 1.363 . S
C594 N592 1.356 . S
C595 C589 1.363 . S
C595 C590 1.379 . S
C595 N593 1.356 . S
N596 C588 1.356 . S
N596 H602 0.984 . S
N596 H603 0.984 . S
N597 C590 1.356 . S
N597 H600 0.984 . S
N597 H601 0.985 . S
H598 N593 0.984 . S
H599 N593 0.985 . S
H600 N597 0.984 . S
H601 N597 0.985 . S
H602 N596 0.984 . S
H603 N596 0.984 . S
H604 N592 0.984 . S
H605 N592 0.985 . S
C606 C607 1.363 . S
C606 C612 1.379 . S
C606 N614 1.356 . S
C607 C606 1.363 . S
C607 C613 1.363 . S
C608 C609 1.363 . S
C608 C613 1.379 . S
C608 N615 1.356 . S
C609 C608 1.363 . S
C609 C612 1.363 . S
N610 C612 1.356 . S
N610 H622 0.984 . S
N610 H623 0.985 . S
N611 C613 1.356 . S
N611 H616 0.984 . S
N611 H617 0.985 . S
C612 C606 1.379 . S
C612 C609 1.363 . S
C612 N610 1.356 . S
C613 C607 1.363 . S
C613 C608 1.379 . S
C613 N611 1.356 . S
N614 C606 1.356 . S
N614 H620 0.984 . S
N614 H621 0.984 . S
N615 C608 1.356 . S
N615 H618 0.984 . S
N615 H619 0.985 . S
H616 N611 0.984 . S
H617 N611 0.985 . S
H618 N615 0.984 . S
H619 N615 0.985 . S
H620 N614 0.984 . S
H621 N614 0.984 . S
H622 N610 0.984 . S
H623 N610 0.985 . S
C624 C625 1.363 . S
C624 C630 1.379 . S
C624 N632 1.356 . S
C625 C624 1.363 . S
C625 C631 1.363 . S
C626 C627 1.363 . S
C626 C631 1.379 . S
C626 N633 1.356 . S
C627 C626 1.363 . S
C627 C630 1.363 . S
N628 C630 1.356 . S
N628 H640 0.984 . S
N628 H641 0.985 . S
N629 C631 1.356 . S
N629 H634 0.984 . S
N629 H635 0.985 . S
C630 C624 1.379 . S
C630 C627 1.363 . S
C630 N628 1.356 . S
C631 C625 1.363 . S
C631 C626 1.379 . S
C631 N629 1.356 . S
N632 C624 1.356 . S
N632 H638 0.984 . S
N632 H639 0.984 . S
N633 C626 1.356 . S
N633 H636 0.984 . S
N633 H637 0.985 . S
H634 N629 0.984 . S
H635 N629 0.985 . S
H636 N633 0.984 . S
H637 N633 0.985 . S
H638 N632 0.984 . S
H639 N632 0.984 . S
H640 N628 0.984 . S
H641 N628 0.985 . S
C642 C643 1.363 . S
C642 C648 1.379 . S
C642 N650 1.356 . S
C643 C642 1.363 . S
C643 C649 1.363 . S
C644 C645 1.363 . S
C644 C649 1.379 . S
C644 N651 1.356 . S
C645 C644 1.363 . S
C645 C648 1.363 . S
N646 C648 1.356 . S
N646 H658 0.984 . S
N646 H659 0.985 . S
N647 C649 1.356 . S
N647 H652 0.984 . S
N647 H653 0.985 . S
C648 C642 1.379 . S
C648 C645 1.363 . S
C648 N646 1.356 . S
C649 C643 1.363 . S
C649 C644 1.379 . S
C649 N647 1.356 . S
N650 C642 1.356 . S
N650 H656 0.984 . S
N650 H657 0.984 . S
N651 C644 1.356 . S
N651 H654 0.984 . S
N651 H655 0.985 . S
H652 N647 0.984 . S
H653 N647 0.985 . S
H654 N651 0.984 . S
H655 N651 0.985 . S
H656 N650 0.984 . S
H657 N650 0.984 . S
H658 N646 0.984 . S
H659 N646 0.985 . S
C660 C661 1.363 . S
C660 C666 1.379 . S
C660 N668 1.356 . S
C661 C660 1.363 . S
C661 C667 1.363 . S
C662 C663 1.363 . S
C662 C667 1.379 . S
C662 N669 1.356 . S
C663 C662 1.363 . S
C663 C666 1.363 . S
N664 C666 1.356 . S
N664 H676 0.984 . S
N664 H677 0.985 . S
N665 C667 1.356 . S
N665 H670 0.984 . S
N665 H671 0.985 . S
C666 C660 1.379 . S
C666 C663 1.363 . S
C666 N664 1.356 . S
C667 C661 1.363 . S
C667 C662 1.379 . S
C667 N665 1.356 . S
N668 C660 1.356 . S
N668 H674 0.984 . S
N668 H675 0.984 . S
N669 C662 1.356 . S
N669 H672 0.984 . S
N669 H673 0.985 . S
H670 N665 0.984 . S
H671 N665 0.985 . S
H672 N669 0.984 . S
H673 N669 0.985 . S
H674 N668 0.984 . S
H675 N668 0.984 . S
H676 N664 0.984 . S
H677 N664 0.985 . S
C678 C679 1.363 . S
C678 C684 1.379 . S
C678 N686 1.356 . S
C679 C678 1.363 . S
C679 C685 1.363 . S
C680 C681 1.363 . S
C680 C685 1.379 . S
C680 N687 1.356 . S
C681 C680 1.363 . S
C681 C684 1.363 . S
N682 C684 1.356 . S
N682 H694 0.984 . S
N682 H695 0.985 . S
N683 C685 1.356 . S
N683 H688 0.984 . S
N683 H689 0.985 . S
C684 C678 1.379 . S
C684 C681 1.363 . S
C684 N682 1.356 . S
C685 C679 1.363 . S
C685 C680 1.379 . S
C685 N683 1.356 . S
N686 C678 1.356 . S
N686 H692 0.984 . S
N686 H693 0.984 . S
N687 C680 1.356 . S
N687 H690 0.984 . S
N687 H691 0.985 . S
H688 N683 0.984 . S
H689 N683 0.985 . S
H690 N687 0.984 . S
H691 N687 0.985 . S
H692 N686 0.984 . S
H693 N686 0.984 . S
H694 N682 0.984 . S
H695 N682 0.985 . S
C696 C697 1.363 . S
C696 C702 1.379 . S
C696 N704 1.356 . S
C697 C696 1.363 . S
C697 C703 1.363 . S
C698 C699 1.363 . S
C698 C703 1.379 . S
C698 N705 1.356 . S
C699 C698 1.363 . S
C699 C702 1.363 . S
N700 C702 1.356 . S
N700 H712 0.984 . S
N700 H713 0.985 . S
N701 C703 1.356 . S
N701 H706 0.984 . S
N701 H707 0.985 . S
C702 C696 1.379 . S
C702 C699 1.363 . S
C702 N700 1.356 . S
C703 C697 1.363 . S
C703 C698 1.379 . S
C703 N701 1.356 . S
N704 C696 1.356 . S
N704 H710 0.984 . S
N704 H711 0.984 . S
N705 C698 1.356 . S
N705 H708 0.984 . S
N705 H709 0.985 . S
H706 N701 0.984 . S
H707 N701 0.985 . S
H708 N705 0.984 . S
H709 N705 0.985 . S
H710 N704 0.984 . S
H711 N704 0.984 . S
H712 N700 0.984 . S
H713 N700 0.985 . S
C714 C715 1.363 . S
C714 C720 1.379 . S
C714 N722 1.356 . S
C715 C714 1.363 . S
C715 C721 1.363 . S
C716 C717 1.363 . S
C716 C721 1.379 . S
C716 N723 1.356 . S
C717 C716 1.363 . S
C717 C720 1.363 . S
N718 C720 1.356 . S
N718 H730 0.984 . S
N718 H731 0.985 . S
N719 C721 1.356 . S
N719 H724 0.984 . S
N719 H725 0.985 . S
C720 C714 1.379 . S
C720 C717 1.363 . S
C720 N718 1.356 . S
C721 C715 1.363 . S
C721 C716 1.379 . S
C721 N719 1.356 . S
N722 C714 1.356 . S
N722 H728 0.984 . S
N722 H729 0.984 . S
N723 C716 1.356 . S
N723 H726 0.984 . S
N723 H727 0.985 . S
H724 N719 0.984 . S
H725 N719 0.985 . S
H726 N723 0.984 . S
H727 N723 0.985 . S
H728 N722 0.984 . S
H729 N722 0.984 . S
H730 N718 0.984 . S
H731 N718 0.985 . S
C732 C733 1.363 . S
C732 C738 1.379 . S
C732 N740 1.356 . S
C733 C732 1.363 . S
C733 C739 1.363 . S
C734 C735 1.363 . S
C734 C739 1.379 . S
C734 N741 1.356 . S
C735 C734 1.363 . S
C735 C738 1.363 . S
N736 C738 1.356 . S
N736 H748 0.984 . S
N736 H749 0.985 . S
N737 C739 1.356 . S
N737 H742 0.984 . S
N737 H743 0.985 . S
C738 C732 1.379 . S
C738 C735 1.363 . S
C738 N736 1.356 . S
C739 C733 1.363 . S
C739 C734 1.379 . S
C739 N737 1.356 . S
N740 C732 1.356 . S
N740 H746 0.984 . S
N740 H747 0.984 . S
N741 C734 1.356 . S
N741 H744 0.984 . S
N741 H745 0.985 . S
H742 N737 0.984 . S
H743 N737 0.985 . S
H744 N741 0.984 . S
H745 N741 0.985 . S
H746 N740 0.984 . S
H747 N740 0.984 . S
H748 N736 0.984 . S
H749 N736 0.985 . S
C750 C751 1.363 . S
C750 C756 1.379 . S
C750 N758 1.356 . S
C751 C750 1.363 . S
C751 C757 1.363 . S
C752 C753 1.363 . S
C752 C757 1.379 . S
C752 N759 1.356 . S
C753 C752 1.363 . S
C753 C756 1.363 . S
N754 C756 1.356 . S
N754 H766 0.984 . S
N754 H767 0.985 . S
N755 C757 1.356 . S
N755 H760 0.984 . S
N755 H761 0.985 . S
C756 C750 1.379 . S
C756 C753 1.363 . S
C756 N754 1.356 . S
C757 C751 1.363 . S
C757 C752 1.379 . S
C757 N755 1.356 . S
N758 C750 1.356 . S
N758 H764 0.984 . S
N758 H765 0.984 . S
N759 C752 1.356 . S
N759 H762 0.984 . S
N759 H763 0.985 . S
H760 N755 0.984 . S
H761 N755 0.985 . S
H762 N759 0.984 . S
H763 N759 0.985 . S
H764 N758 0.984 . S
H765 N758 0.984 . S
H766 N754 0.984 . S
H767 N754 0.985 . S
C768 C769 1.363 . S
C768 C774 1.379 . S
C768 N776 1.356 . S
C769 C768 1.363 . S
C769 C775 1.363 . S
C770 C771 1.363 . S
C770 C775 1.379 . S
C770 N777 1.356 . S
C771 C770 1.363 . S
C771 C774 1.363 . S
N772 C774 1.356 . S
N772 H784 0.984 . S
N772 H785 0.985 . S
N773 C775 1.356 . S
N773 H778 0.984 . S
N773 H779 0.985 . S
C774 C768 1.379 . S
C774 C771 1.363 . S
C774 N772 1.356 . S
C775 C769 1.363 . S
C775 C770 1.379 . S
C775 N773 1.356 . S
N776 C768 1.356 . S
N776 H782 0.984 . S
N776 H783 0.984 . S
N777 C770 1.356 . S
N777 H780 0.984 . S
N777 H781 0.985 . S
H778 N773 0.984 . S
H779 N773 0.985 . S
H780 N777 0.984 . S
H781 N777 0.985 . S
H782 N776 0.984 . S
H783 N776 0.984 . S
H784 N772 0.984 . S
H785 N772 0.985 . S
C786 C787 1.363 . S
C786 C792 1.379 . S
C786 N794 1.356 . S
C787 C786 1.363 . S
C787 C793 1.363 . S
C788 C789 1.363 . S
C788 C793 1.379 . S
C788 N795 1.356 . S
C789 C788 1.363 . S
C789 C792 1.363 . S
N790 C792 1.356 . S
N790 H802 0.984 . S
N790 H803 0.985 . S
N791 C793 1.356 . S
N791 H796 0.984 . S
N791 H797 0.985 . S
C792 C786 1.379 . S
C792 C789 1.363 . S
C792 N790 1.356 . S
C793 C787 1.363 . S
C793 C788 1.379 . S
C793 N791 1.356 . S
N794 C786 1.356 . S
N794 H800 0.984 . S
N794 H801 0.984 . S
N795 C788 1.356 . S
N795 H798 0.984 . S
N795 H799 0.985 . S
H796 N791 0.984 . S
H797 N791 0.985 . S
H798 N795 0.984 . S
H799 N795 0.985 . S
H800 N794 0.984 . S
H801 N794 0.984 . S
H802 N790 0.984 . S
H803 N790 0.985 . S
C804 C805 1.363 . S
C804 C810 1.379 . S
C804 N812 1.356 . S
C805 C804 1.363 . S
C805 C811 1.363 . S
C806 C807 1.363 . S
C806 C811 1.379 . S
C806 N813 1.356 . S
C807 C806 1.363 . S
C807 C810 1.363 . S
N808 C810 1.356 . S
N808 H820 0.984 . S
N808 H821 0.985 . S
N809 C811 1.356 . S
N809 H814 0.984 . S
N809 H815 0.985 . S
C810 C804 1.379 . S
C810 C807 1.363 . S
C810 N808 1.356 . S
C811 C805 1.363 . S
C811 C806 1.379 . S
C811 N809 1.356 . S
N812 C804 1.356 . S
N812 H818 0.984 . S
N812 H819 0.984 . S
N813 C806 1.356 . S
N813 H816 0.984 . S
N813 H817 0.985 . S
H814 N809 0.984 . S
H815 N809 0.985 . S
H816 N813 0.984 . S
H817 N813 0.985 . S
H818 N812 0.984 . S
H819 N812 0.984 . S
H820 N808 0.984 . S
H821 N808 0.985 . S
C393 C94 1.544 . S
C391 C4 1.551 . S
C411 C163 1.535 . S
C409 C13 1.547 . S
C429 C101 1.539 . S
C427 C25 1.549 . S
C447 C164 1.537 . S
C445 C34 1.544 . S
C465 C217 1.544 . S
C463 C7 1.547 . S
C483 C253 1.519 . S
C481 C14 1.517 . S
C499 C23 1.533 . S
C501 C313 1.529 . S
C519 C376 1.521 . S
C517 C31 1.521 . S
C537 C216 1.535 . S
C535 C16 1.544 . S
C553 C22 1.521 . S
C555 C260 1.519 . S
C573 C306 1.531 . S
C571 C32 1.532 . S
C591 C375 1.522 . S
C589 C5 1.522 . S
C607 C43 1.553 . S
C609 C154 1.544 . S
C627 C111 1.535 . S
C625 C52 1.548 . S
C643 C58 1.552 . S
C645 C147 1.541 . S
C661 C68 1.546 . S
C663 C110 1.538 . S
C681 C322 1.539 . S
C679 C40 1.539 . S
C699 C366 1.515 . S
C697 C50 1.515 . S
C717 C200 1.546 . S
C715 C59 1.553 . S
C733 C70 1.512 . S
C735 C269 1.511 . S
C753 C323 1.531 . S
C751 C49 1.537 . S
C771 C359 1.512 . S
C769 C61 1.513 . S
C789 C207 1.548 . S
C787 C67 1.555 . S
C805 C41 1.517 . S
C807 C270 1.516 . S
