# Generated by pormake.
# Topology cml, (3,6)-cn, num edge types: 1
# Building blocks:
#     Node 0, Type 0, BuildingBlock: QEWDON_clean_linker_0, # of connection points: 3
#     Node 1, Type 0, BuildingBlock: QEWDON_clean_linker_0, # of connection points: 3
#     Node 2, Type 0, BuildingBlock: QEWDON_clean_linker_0, # of connection points: 3
#     Node 3, Type 0, BuildingBlock: QEWDON_clean_linker_0, # of connection points: 3
#     Node 4, Type 0, BuildingBlock: QEWDON_clean_linker_0, # of connection points: 3
#     Node 5, Type 0, BuildingBlock: QEWDON_clean_linker_0, # of connection points: 3
#     Node 6, Type 0, BuildingBlock: QEWDON_clean_linker_0, # of connection points: 3
#     Node 7, Type 0, BuildingBlock: QEWDON_clean_linker_0, # of connection points: 3
#     Node 8, Type 1, BuildingBlock: IZENUY_clean_sbu_0, # of connection points: 6
#     Node 9, Type 1, BuildingBlock: IZENUY_clean_sbu_0, # of connection points: 6
#     Node 10, Type 1, BuildingBlock: IZENUY_clean_sbu_0, # of connection points: 6
#     Node 11, Type 1, BuildingBlock: IZENUY_clean_sbu_0, # of connection points: 6
#     Edge 12, Type (0, 1), BuildingBlock: TEMPAE_clean_linker_10, # of connection points: 2
#     Edge 13, Type (0, 1), BuildingBlock: TEMPAE_clean_linker_10, # of connection points: 2
#     Edge 14, Type (0, 1), BuildingBlock: TEMPAE_clean_linker_10, # of connection points: 2
#     Edge 15, Type (0, 1), BuildingBlock: TEMPAE_clean_linker_10, # of connection points: 2
#     Edge 16, Type (0, 1), BuildingBlock: TEMPAE_clean_linker_10, # of connection points: 2
#     Edge 17, Type (0, 1), BuildingBlock: TEMPAE_clean_linker_10, # of connection points: 2
#     Edge 18, Type (0, 1), BuildingBlock: TEMPAE_clean_linker_10, # of connection points: 2
#     Edge 19, Type (0, 1), BuildingBlock: TEMPAE_clean_linker_10, # of connection points: 2
#     Edge 20, Type (0, 1), BuildingBlock: TEMPAE_clean_linker_10, # of connection points: 2
#     Edge 21, Type (0, 1), BuildingBlock: TEMPAE_clean_linker_10, # of connection points: 2
#     Edge 22, Type (0, 1), BuildingBlock: TEMPAE_clean_linker_10, # of connection points: 2
#     Edge 23, Type (0, 1), BuildingBlock: TEMPAE_clean_linker_10, # of connection points: 2
#     Edge 24, Type (0, 1), BuildingBlock: TEMPAE_clean_linker_10, # of connection points: 2
#     Edge 25, Type (0, 1), BuildingBlock: TEMPAE_clean_linker_10, # of connection points: 2
#     Edge 26, Type (0, 1), BuildingBlock: TEMPAE_clean_linker_10, # of connection points: 2
#     Edge 27, Type (0, 1), BuildingBlock: TEMPAE_clean_linker_10, # of connection points: 2
#     Edge 28, Type (0, 1), BuildingBlock: TEMPAE_clean_linker_10, # of connection points: 2
#     Edge 29, Type (0, 1), BuildingBlock: TEMPAE_clean_linker_10, # of connection points: 2
#     Edge 30, Type (0, 1), BuildingBlock: TEMPAE_clean_linker_10, # of connection points: 2
#     Edge 31, Type (0, 1), BuildingBlock: TEMPAE_clean_linker_10, # of connection points: 2
#     Edge 32, Type (0, 1), BuildingBlock: TEMPAE_clean_linker_10, # of connection points: 2
#     Edge 33, Type (0, 1), BuildingBlock: TEMPAE_clean_linker_10, # of connection points: 2
#     Edge 34, Type (0, 1), BuildingBlock: TEMPAE_clean_linker_10, # of connection points: 2
#     Edge 35, Type (0, 1), BuildingBlock: TEMPAE_clean_linker_10, # of connection points: 2
# Relax obj value: 0.010
# Max RMSD: 0.128
# Mean RMSD: 0.094
data_MOF--net-cml--node1-IZENUY_clean_sbu_0--node2-QEWDON_clean_linker_0--edge1-TEMPAE_clean_linker_10
_symmetry_space_group_name_H-M    P1
_symmetry_Int_Tables_number       1
_symmetry_cell_setting            triclinic
loop_
_symmetry_equiv_pos_as_xyz
'x, y, z'
_cell_length_a     39.762861
_cell_length_b     42.743468
_cell_length_c     37.078083
_cell_angle_alpha  90.109594
_cell_angle_beta   90.05507
_cell_angle_gamma 89.968695
loop_
_atom_site_label
_atom_site_type_symbol
_atom_site_fract_x
_atom_site_fract_y
_atom_site_fract_z
_atom_type_partial_charge
H0 H 0.28298 0.42147 0.9709 0.0
C1 C 0.29591 0.41275 0.9946 0.0
C2 C 0.3291 0.42213 1.00167 0.0
C3 C 0.27885 0.39278 0.01842 0.0
H4 H 0.36979 0.42025 0.03976 0.0
C5 C 0.34498 0.41144 0.03319 0.0
C6 C 0.32837 0.39147 0.05753 0.0
C7 C 0.29527 0.38185 0.04954 0.0
C8 C 0.24238 0.38751 0.01342 0.0
H9 H 0.28172 0.36694 0.06813 0.0
C10 C 0.22915 0.35782 0.00475 0.0
C11 C 0.19418 0.35397 0.99948 0.0
C12 C 0.22057 0.41314 0.017 0.0
H13 H 0.23031 0.43612 0.02364 0.0
C14 C 0.18609 0.40941 0.01216 0.0
H15 H 0.24597 0.33802 1.00185 0.0
C16 C 0.17296 0.38016 1.00338 0.0
H17 H 0.14612 0.37821 0.99884 0.0
H18 H 0.16948 0.42935 0.01488 0.0
H19 H 0.73789 0.59889 0.46936 0.0
C20 C 0.72424 0.60654 0.49309 0.0
C21 C 0.69069 0.59714 0.49826 0.0
C22 C 0.74073 0.62468 0.51931 0.0
H23 H 0.64882 0.59738 0.53496 0.0
C24 C 0.67395 0.60618 0.53001 0.0
C25 C 0.69005 0.62434 0.55657 0.0
C26 C 0.72351 0.63371 0.5507 0.0
C27 C 0.77738 0.62983 0.51704 0.0
H28 H 0.73667 0.64733 0.57095 0.0
C29 C 0.79126 0.65394 0.4959 0.0
C30 C 0.82644 0.65862 0.49517 0.0
C31 C 0.79864 0.61047 0.53732 0.0
H32 H 0.7883 0.59191 0.55381 0.0
C33 C 0.83332 0.61492 0.53663 0.0
H34 H 0.77479 0.66888 0.48023 0.0
C35 C 0.84715 0.63881 0.51587 0.0
H36 H 0.87415 0.64211 0.51657 0.0
H37 H 0.84954 0.59995 0.5525 0.0
H38 H 0.69711 0.39364 0.95535 0.0
C39 C 0.69507 0.39144 0.98439 0.0
C40 C 0.68193 0.41637 0.00492 0.0
C41 C 0.70234 0.36257 1.00082 0.0
H42 H 0.66653 0.43122 0.05803 0.0
C43 C 0.67749 0.41241 0.04225 0.0
C44 C 0.68402 0.38356 0.05879 0.0
C45 C 0.69668 0.35881 0.03793 0.0
C46 C 0.70841 0.33439 0.97864 0.0
H47 H 0.7004 0.33604 0.05019 0.0
C48 C 0.741 0.32533 0.96792 0.0
C49 C 0.74615 0.29662 0.94956 0.0
C50 C 0.68094 0.31511 0.9705 0.0
H51 H 0.65577 0.32168 0.97878 0.0
C52 C 0.68572 0.28691 0.95243 0.0
H53 H 0.76205 0.34049 0.97413 0.0
C54 C 0.71795 0.27754 0.94241 0.0
H55 H 0.72069 0.25488 0.92966 0.0
H56 H 0.6644 0.27195 0.94674 0.0
H57 H 0.3273 0.6322 0.44881 0.0
C58 C 0.32946 0.63394 0.4779 0.0
C59 C 0.34091 0.60814 0.49789 0.0
C60 C 0.32246 0.66249 0.4951 0.0
H61 H 0.35549 0.5917 0.55054 0.0
C62 C 0.34506 0.61109 0.53537 0.0
C63 C 0.33939 0.63991 0.55268 0.0
C64 C 0.32767 0.66542 0.53238 0.0
C65 C 0.31547 0.69066 0.47342 0.0
H66 H 0.32411 0.68798 0.54528 0.0
C67 C 0.28235 0.70035 0.46593 0.0
C68 C 0.27643 0.72778 0.44566 0.0
C69 C 0.34264 0.70832 0.46069 0.0
H70 H 0.36826 0.70116 0.46635 0.0
C71 C 0.33701 0.73547 0.44087 0.0
H72 H 0.26145 0.68645 0.47558 0.0
C73 C 0.30425 0.74524 0.4335 0.0
H74 H 0.30075 0.76681 0.41869 0.0
H75 H 0.35812 0.74914 0.43138 0.0
H76 H 0.77602 0.92322 0.9782 0.0
C77 C 0.78969 0.91581 1.00199 0.0
C78 C 0.8227 0.92654 0.00811 0.0
C79 C 0.77368 0.89655 0.0274 0.0
H80 H 0.86394 0.92704 0.04582 0.0
C81 C 0.83937 0.91738 0.03986 0.0
C82 C 0.82401 0.89762 0.06519 0.0
C83 C 0.79099 0.88733 0.05868 0.0
C84 C 0.73733 0.88998 0.02435 0.0
H85 H 0.77834 0.87267 0.07824 0.0
C86 C 0.72465 0.86717 1.00045 0.0
C87 C 0.68975 0.86106 0.99898 0.0
C88 C 0.71511 0.90666 0.04657 0.0
H89 H 0.7245 0.92422 0.06515 0.0
C90 C 0.68069 0.90087 0.04507 0.0
H91 H 0.74185 0.85425 0.98333 0.0
C92 C 0.66806 0.87823 0.02161 0.0
H93 H 0.64126 0.87372 0.02176 0.0
H94 H 0.66374 0.91378 0.06242 0.0
H95 H 0.23937 0.0987 0.47643 0.0
C96 C 0.22576 0.10697 0.49991 0.0
C97 C 0.19194 0.09838 0.50502 0.0
C98 C 0.2426 0.12506 0.5259 0.0
H99 H 0.14957 0.10093 0.54119 0.0
C100 C 0.17511 0.10867 0.53625 0.0
C101 C 0.1917 0.1267 0.56256 0.0
C102 C 0.22551 0.13487 0.55702 0.0
C103 C 0.27926 0.12987 0.52338 0.0
H104 H 0.23891 0.14826 0.57732 0.0
C105 C 0.29314 0.15314 0.50109 0.0
C106 C 0.32829 0.15777 0.5001 0.0
C107 C 0.3005 0.11118 0.5445 0.0
H108 H 0.29014 0.09326 0.56188 0.0
C109 C 0.3352 0.1155 0.54347 0.0
H110 H 0.27665 0.16755 0.48479 0.0
C111 C 0.34904 0.13863 0.52158 0.0
H112 H 0.37604 0.14193 0.52205 0.0
H113 H 0.35142 0.10106 0.55997 0.0
H114 H 0.19366 0.87923 0.94758 0.0
C115 C 0.1891 0.87992 0.9764 0.0
C116 C 0.17485 0.90681 0.99214 0.0
C117 C 0.19557 0.85324 0.99748 0.0
H118 H 0.1547 0.92688 0.04095 0.0
C119 C 0.16704 0.90671 0.02904 0.0
C120 C 0.17268 0.88003 0.05017 0.0
C121 C 0.1875 0.85354 0.03439 0.0
C122 C 0.20421 0.82321 0.97995 0.0
H123 H 0.19063 0.83242 0.05022 0.0
C124 C 0.23729 0.81602 0.969 0.0
C125 C 0.24451 0.78676 0.95289 0.0
C126 C 0.17854 0.80118 0.97474 0.0
H127 H 0.153 0.80633 0.98308 0.0
C128 C 0.1855 0.77238 0.95882 0.0
H129 H 0.25714 0.83304 0.97302 0.0
C130 C 0.21816 0.76514 0.94805 0.0
H131 H 0.22288 0.74227 0.93648 0.0
H132 H 0.16553 0.75548 0.95504 0.0
H133 H 0.82477 0.13329 0.44921 0.0
C134 C 0.82683 0.13365 0.47837 0.0
C135 C 0.83919 0.10728 0.4966 0.0
C136 C 0.81934 0.16117 0.49749 0.0
H137 H 0.85549 0.08869 0.54745 0.0
C138 C 0.84406 0.10855 0.53401 0.0
C139 C 0.83759 0.13618 0.55342 0.0
C140 C 0.82468 0.16229 0.53493 0.0
C141 C 0.81252 0.19046 0.47776 0.0
H142 H 0.82032 0.18404 0.54929 0.0
C143 C 0.77962 0.19959 0.46831 0.0
C144 C 0.77404 0.2281 0.44997 0.0
C145 C 0.83973 0.2098 0.46892 0.0
H146 H 0.86516 0.20312 0.47612 0.0
C147 C 0.8344 0.23795 0.45096 0.0
H148 H 0.75865 0.18451 0.47504 0.0
C149 C 0.80189 0.24712 0.44164 0.0
H150 H 0.79854 0.26946 0.42836 0.0
H151 H 0.85553 0.25285 0.44445 0.0
Fe152 Fe 0.01009 0.84374 0.33126 0.0
Fe153 Fe 0.01069 0.88104 0.40221 0.0
O154 O 0.01004 0.88026 0.3543 0.0
Fe155 Fe 0.00949 0.91582 0.32974 0.0
O156 O 0.97062 0.90557 0.30717 0.0
O157 O 0.98417 0.85716 0.29329 0.0
O158 O 0.97132 0.83187 0.35298 0.0
C159 C 0.96729 0.83 0.38659 0.0
C160 C 0.05344 0.87704 0.28856 0.0
O161 O 0.98693 0.84437 0.40786 0.0
C162 C 0.05302 0.9321 0.38378 0.0
O163 O 0.03635 0.82357 0.36506 0.0
O164 O 0.05072 0.86076 0.40309 0.0
O165 O 0.035 0.90102 0.29217 0.0
O166 O 0.04867 0.8529 0.30742 0.0
C167 C 0.96515 0.92747 0.38851 0.0
O168 O 0.03442 0.91772 0.40589 0.0
O169 O 0.04846 0.92914 0.3503 0.0
C170 C 0.05639 0.83461 0.38848 0.0
O171 O 0.97092 0.90188 0.40437 0.0
O172 O 0.98366 0.93684 0.36289 0.0
C173 C 0.96558 0.88095 0.28922 0.0
Fe174 Fe 1.00566 0.13812 0.90055 0.0
Fe175 Fe 1.00712 0.10292 0.82821 0.0
O176 O 1.00722 0.13864 0.85268 0.0
Fe177 Fe 0.00893 0.17481 0.82914 0.0
O178 O 0.03326 0.19534 0.86401 0.0
O179 O 0.04518 0.15932 0.90423 0.0
O180 O 0.03006 0.1017 0.90518 0.0
C181 C 0.04914 0.08706 0.88355 0.0
C182 C 0.96271 0.18869 0.88162 0.0
O183 O 0.04565 0.08995 0.8499 0.0
C184 C 0.9648 0.13793 0.7866 0.0
O185 O 0.96615 0.11689 0.9007 0.0
O186 O 0.98085 0.0816 0.86057 0.0
O187 O 0.96947 0.18767 0.84843 0.0
O188 O 0.98049 0.17415 0.90453 0.0
C189 C 0.0529 0.14059 0.78851 0.0
O190 O 0.96866 0.11333 0.80481 0.0
O191 O 0.98467 0.16087 0.79004 0.0
C192 C 0.96128 0.09099 0.88522 0.0
O193 O 0.03319 0.11746 0.79112 0.0
O194 O 0.04863 0.16463 0.8078 0.0
C195 C 0.05111 0.18552 0.88994 0.0
Fe196 Fe 0.50807 0.34268 0.32935 0.0
Fe197 Fe 0.50871 0.38001 0.40018 0.0
O198 O 0.50676 0.37912 0.35237 0.0
Fe199 Fe 0.50397 0.41448 0.32756 0.0
O200 O 0.4648 0.40263 0.30649 0.0
O201 O 0.48131 0.35529 0.29156 0.0
O202 O 0.47002 0.32955 0.35154 0.0
C203 C 0.4664 0.32789 0.38528 0.0
C204 C 0.54903 0.37748 0.28598 0.0
O205 O 0.48584 0.34289 0.40625 0.0
C206 C 0.54897 0.43201 0.37991 0.0
O207 O 0.53516 0.32305 0.36272 0.0
O208 O 0.54929 0.36059 0.40015 0.0
O209 O 0.5287 0.40016 0.2891 0.0
O210 O 0.54625 0.35351 0.30556 0.0
C211 C 0.46157 0.42541 0.38815 0.0
O212 O 0.5317 0.41713 0.40285 0.0
O213 O 0.54307 0.42917 0.34662 0.0
C214 C 0.55524 0.33442 0.38581 0.0
O215 O 0.46857 0.4 0.40374 0.0
O216 O 0.47861 0.43503 0.36154 0.0
C217 C 0.46112 0.37803 0.28807 0.0
Fe218 Fe 0.51134 0.63864 0.89889 0.0
Fe219 Fe 0.51181 0.6039 0.82644 0.0
O220 O 0.51111 0.63948 0.85107 0.0
Fe221 Fe 0.50998 0.67582 0.828 0.0
O222 O 0.54879 0.68872 0.84916 0.0
O223 O 0.53496 0.67533 0.90428 0.0
O224 O 0.55144 0.61793 0.90005 0.0
C225 C 0.55637 0.59184 0.88482 0.0
C226 C 0.46477 0.68483 0.88629 0.0
O227 O 0.53708 0.58265 0.85975 0.0
C228 C 0.46751 0.6418 0.78515 0.0
O229 O 0.4876 0.60194 0.90246 0.0
O230 O 0.47271 0.59081 0.84686 0.0
O231 O 0.48385 0.69579 0.86203 0.0
O232 O 0.47122 0.65886 0.90091 0.0
C233 C 0.55502 0.6389 0.78589 0.0
O234 O 0.48694 0.61855 0.78845 0.0
O235 O 0.47105 0.66567 0.80485 0.0
C236 C 0.46841 0.58795 0.88043 0.0
O237 O 0.55078 0.61438 0.80425 0.0
O238 O 0.53584 0.66237 0.78985 0.0
C239 C 0.55355 0.69041 0.88273 0.0
C240 C 0.1485 0.31373 1.00309 0.0
C241 C 0.17924 0.32346 0.98828 0.0
C242 C 0.13072 0.28829 0.98859 0.0
C243 C 0.14411 0.27182 0.95871 0.0
C244 C 0.17631 0.28002 0.94533 0.0
C245 C 0.19347 0.30582 0.96022 0.0
C246 C 0.09655 0.28039 1.00381 0.0
C247 C 0.19172 0.26278 0.91388 0.0
C248 C 0.0988 0.19626 0.93313 0.0
C249 C 0.07678 0.20671 0.90605 0.0
C250 C 0.12185 0.21683 0.94963 0.0
C251 C 0.12263 0.24868 0.93914 0.0
C252 C 0.10105 0.25913 0.91124 0.0
C253 C 0.07862 0.23806 0.89496 0.0
C254 C 0.14479 0.20467 0.97887 0.0
C255 C 0.10081 0.29292 0.89934 0.0
H256 H 0.13766 0.32684 0.02527 0.0
H257 H 0.21715 0.31319 0.94854 0.0
H258 H 0.07685 0.28611 0.98365 0.0
H259 H 0.09473 0.25499 0.0095 0.0
H260 H 0.09107 0.29352 0.02902 0.0
H261 H 0.2187 0.26874 0.91026 0.0
H262 H 0.18939 0.23712 0.91757 0.0
H263 H 0.17805 0.26896 0.88878 0.0
H264 H 0.09783 0.17205 0.94172 0.0
H265 H 0.06184 0.24646 0.87405 0.0
H266 H 0.1378 0.21535 0.0051 0.0
H267 H 0.17121 0.2114 0.97323 0.0
H268 H 0.14341 0.17881 0.98152 0.0
H269 H 0.09304 0.30811 0.92217 0.0
H270 H 0.08341 0.29707 0.87638 0.0
H271 H 0.12646 0.30025 0.89122 0.0
C272 C 0.82853 0.71478 0.47466 0.0
C273 C 0.8421 0.68446 0.47406 0.0
C274 C 0.84564 0.73999 0.45856 0.0
C275 C 0.87711 0.73476 0.44166 0.0
C276 C 0.89011 0.70397 0.43957 0.0
C277 C 0.87239 0.67926 0.45556 0.0
C278 C 0.83071 0.77239 0.46096 0.0
C279 C 0.9235 0.69727 0.42175 0.0
C280 C 0.91817 0.79362 0.37856 0.0
C281 C 0.94218 0.8076 0.40126 0.0
C282 C 0.89581 0.77083 0.39165 0.0
C283 C 0.8977 0.76149 0.42822 0.0
C284 C 0.92118 0.77618 0.45149 0.0
C285 C 0.94296 0.79914 0.4378 0.0
C286 C 0.87084 0.75608 0.36608 0.0
C287 C 0.92421 0.76679 0.4906 0.0
H288 H 0.80525 0.71907 0.48903 0.0
H289 H 0.88271 0.6558 0.45429 0.0
H290 H 0.84626 0.78706 0.4792 0.0
H291 H 0.83081 0.78375 0.43407 0.0
H292 H 0.80453 0.77207 0.47138 0.0
H293 H 0.92932 0.67186 0.42085 0.0
H294 H 0.92363 0.70647 0.39381 0.0
H295 H 0.9439 0.70936 0.43673 0.0
H296 H 0.91711 0.80019 0.35035 0.0
H297 H 0.96133 0.80978 0.45561 0.0
H298 H 0.8452 0.75678 0.37783 0.0
H299 H 0.8774 0.73112 0.36179 0.0
H300 H 0.87035 0.76796 0.33945 0.0
H301 H 0.89939 0.76848 0.50409 0.0
H302 H 0.94248 0.78158 0.5056 0.0
H303 H 0.9325 0.74205 0.49239 0.0
C304 C 0.80885 0.29165 0.96039 0.0
C305 C 0.78049 0.28555 0.93881 0.0
C306 C 0.84052 0.27882 0.95189 0.0
C307 C 0.84379 0.25862 0.92175 0.0
C308 C 0.81557 0.25301 0.89939 0.0
C309 C 0.78463 0.26705 0.90771 0.0
C310 C 0.87029 0.28629 0.97566 0.0
C311 C 0.81769 0.23125 0.8673 0.0
C312 C 0.92726 0.23694 0.87817 0.0
C313 C 0.93399 0.20785 0.894 0.0
C314 C 0.89901 0.2546 0.88848 0.0
C315 C 0.8762 0.24225 0.9141 0.0
C316 C 0.88316 0.21296 0.93041 0.0
C317 C 0.91232 0.19639 0.92064 0.0
C318 C 0.89324 0.2862 0.87144 0.0
C319 C 0.85902 0.19842 0.95694 0.0
H320 H 0.80622 0.30568 0.98458 0.0
H321 H 0.76341 0.26296 0.88998 0.0
H322 H 0.87794 0.26509 0.99079 0.0
H323 H 0.89209 0.29356 0.95898 0.0
H324 H 0.8646 0.30518 0.99536 0.0
H325 H 0.79327 0.22892 0.85298 0.0
H326 H 0.83675 0.23984 0.8479 0.0
H327 H 0.82586 0.20767 0.87627 0.0
H328 H 0.94421 0.24592 0.85778 0.0
H329 H 0.91739 0.17376 0.93266 0.0
H330 H 0.88775 0.30396 0.89251 0.0
H331 H 0.87109 0.28514 0.85328 0.0
H332 H 0.91529 0.2941 0.85549 0.0
H333 H 0.85444 0.2146 0.97982 0.0
H334 H 0.86846 0.17585 0.96778 0.0
H335 H 0.83444 0.19423 0.94356 0.0
C336 C 0.21614 0.73765 0.46358 0.0
C337 C 0.24164 0.73888 0.43745 0.0
C338 C 0.18423 0.75073 0.45696 0.0
C339 C 0.17776 0.76568 0.42359 0.0
C340 C 0.203 0.76605 0.3967 0.0
C341 C 0.23442 0.75243 0.40383 0.0
C342 C 0.1578 0.74944 0.48611 0.0
C343 C 0.19725 0.78178 0.36077 0.0
C344 C 0.08918 0.78438 0.3909 0.0
C345 C 0.08636 0.81625 0.39964 0.0
C346 C 0.11825 0.76727 0.39978 0.0
C347 C 0.1454 0.78249 0.41724 0.0
C348 C 0.14244 0.81451 0.42669 0.0
C349 C 0.11291 0.83091 0.41802 0.0
C350 C 0.12018 0.73306 0.38979 0.0
C351 C 0.17095 0.83176 0.44487 0.0
H352 H 0.22144 0.72743 0.4897 0.0
H353 H 0.25362 0.75285 0.38311 0.0
H354 H 0.15282 0.77337 0.49641 0.0
H355 H 0.1338 0.74033 0.47499 0.0
H356 H 0.16559 0.73446 0.5091 0.0
H357 H 0.21908 0.77918 0.34234 0.0
H358 H 0.1747 0.77184 0.34738 0.0
H359 H 0.19244 0.8071 0.365 0.0
H360 H 0.06871 0.77279 0.37692 0.0
H361 H 0.11106 0.85554 0.42474 0.0
H362 H 0.12745 0.71894 0.41364 0.0
H363 H 0.13987 0.72951 0.369 0.0
H364 H 0.09594 0.72406 0.37907 0.0
H365 H 0.17842 0.81956 0.47 0.0
H366 H 0.16421 0.85631 0.45165 0.0
H367 H 0.19323 0.83202 0.42687 0.0
C368 C 0.6903 0.80646 0.97325 0.0
C369 C 0.6754 0.83619 0.97527 0.0
C370 C 0.6741 0.78162 0.95527 0.0
C371 C 0.64221 0.7866 0.93916 0.0
C372 C 0.62801 0.81699 0.93942 0.0
C373 C 0.64485 0.84137 0.95724 0.0
C374 C 0.69032 0.74969 0.95514 0.0
C375 C 0.59411 0.82343 0.92257 0.0
C376 C 0.60109 0.72863 0.87451 0.0
C377 C 0.57836 0.71321 0.89735 0.0
C378 C 0.6231 0.75168 0.88793 0.0
C379 C 0.62209 0.75978 0.92498 0.0
C380 C 0.59989 0.74366 0.9483 0.0
C381 C 0.5785 0.72051 0.93428 0.0
C382 C 0.64675 0.76796 0.86229 0.0
C383 C 0.59779 0.75167 0.98794 0.0
H384 H 0.71382 0.80218 0.98719 0.0
H385 H 0.63351 0.86443 0.95801 0.0
H386 H 0.67612 0.73385 0.97325 0.0
H387 H 0.68955 0.73934 0.92769 0.0
H388 H 0.71687 0.75054 0.96443 0.0
H389 H 0.58764 0.84871 0.9229 0.0
H390 H 0.59361 0.81503 0.89425 0.0
H391 H 0.57435 0.81048 0.93747 0.0
H392 H 0.60143 0.72299 0.846 0.0
H393 H 0.56114 0.70874 0.95224 0.0
H394 H 0.67274 0.76773 0.87321 0.0
H395 H 0.6392 0.79281 0.85934 0.0
H396 H 0.64686 0.75691 0.83515 0.0
H397 H 0.62303 0.75008 1.00055 0.0
H398 H 0.58035 0.73601 1.00276 0.0
H399 H 0.58897 0.77615 0.99121 0.0
C400 C 0.32991 0.21321 0.47731 0.0
C401 C 0.34378 0.18301 0.47796 0.0
C402 C 0.34671 0.238 0.4601 0.0
C403 C 0.37818 0.23248 0.44335 0.0
C404 C 0.3915 0.20177 0.44252 0.0
C405 C 0.37408 0.17744 0.45963 0.0
C406 C 0.33148 0.27034 0.46119 0.0
C407 C 0.42492 0.19481 0.4249 0.0
C408 C 0.41827 0.29027 0.37827 0.0
C409 C 0.44197 0.30519 0.40053 0.0
C410 C 0.39641 0.26738 0.39207 0.0
C411 C 0.3985 0.25897 0.42892 0.0
C412 C 0.42172 0.27454 0.45171 0.0
C413 C 0.44301 0.29754 0.4373 0.0
C414 C 0.37169 0.25164 0.36702 0.0
C415 C 0.42493 0.26616 0.49112 0.0
H416 H 0.30663 0.21778 0.49156 0.0
H417 H 0.38462 0.15406 0.45935 0.0
H418 H 0.34691 0.28568 0.4788 0.0
H419 H 0.33144 0.28087 0.43386 0.0
H420 H 0.30531 0.27013 0.47166 0.0
H421 H 0.4309 0.16942 0.42488 0.0
H422 H 0.42497 0.20328 0.39665 0.0
H423 H 0.44524 0.20739 0.43944 0.0
H424 H 0.41702 0.2962 0.34989 0.0
H425 H 0.46114 0.30893 0.45478 0.0
H426 H 0.346 0.2525 0.37863 0.0
H427 H 0.37848 0.22661 0.36381 0.0
H428 H 0.37119 0.26266 0.33991 0.0
H429 H 0.40013 0.26805 0.50462 0.0
H430 H 0.44312 0.28141 0.50556 0.0
H431 H 0.43337 0.24151 0.49372 0.0
C432 C 0.28447 0.76134 0.90951 0.0
C433 C 0.27928 0.77773 0.9419 0.0
C434 C 0.31601 0.74867 0.90081 0.0
C435 C 0.34334 0.75268 0.92488 0.0
C436 C 0.33879 0.77061 0.95672 0.0
C437 C 0.30679 0.78289 0.96489 0.0
C438 C 0.3197 0.72987 0.86649 0.0
C439 C 0.36736 0.77572 0.98288 0.0
C440 C 0.41054 0.68934 0.92053 0.0
C441 C 0.43491 0.70311 0.89827 0.0
C442 C 0.38112 0.70555 0.93017 0.0
C443 C 0.37592 0.73645 0.91754 0.0
C444 C 0.40088 0.75086 0.89601 0.0
C445 C 0.42994 0.73399 0.88647 0.0
C446 C 0.35505 0.68918 0.95293 0.0
C447 C 0.39649 0.78384 0.88229 0.0
H448 H 0.26351 0.75775 0.89125 0.0
H449 H 0.303 0.79537 0.99004 0.0
H450 H 0.34085 0.73902 0.85014 0.0
H451 H 0.32566 0.70519 0.87321 0.0
H452 H 0.2965 0.73027 0.84978 0.0
H453 H 0.36071 0.79268 0.00447 0.0
H454 H 0.37425 0.75315 0.99565 0.0
H455 H 0.38994 0.78438 0.96847 0.0
H456 H 0.41401 0.6655 0.92974 0.0
H457 H 0.44865 0.74495 0.86942 0.0
H458 H 0.33147 0.68638 0.93722 0.0
H459 H 0.34897 0.7035 0.97704 0.0
H460 H 0.36354 0.66571 0.96199 0.0
H461 H 0.37511 0.78471 0.86308 0.0
H462 H 0.41935 0.79261 0.8684 0.0
H463 H 0.39039 0.79988 0.90492 0.0
C464 C 0.71265 0.23615 0.46428 0.0
C465 C 0.73955 0.23884 0.43999 0.0
C466 C 0.68101 0.24931 0.45642 0.0
C467 C 0.67622 0.2657 0.42361 0.0
C468 C 0.70289 0.26743 0.39845 0.0
C469 C 0.73406 0.25384 0.40683 0.0
C470 C 0.65307 0.24661 0.48375 0.0
C471 C 0.69891 0.28462 0.36313 0.0
C472 C 0.58905 0.28473 0.387 0.0
C473 C 0.58527 0.31619 0.39721 0.0
C474 C 0.61798 0.26765 0.39644 0.0
C475 C 0.64402 0.28247 0.41617 0.0
C476 C 0.64013 0.31407 0.42703 0.0
C477 C 0.61078 0.33046 0.4176 0.0
C478 C 0.62098 0.23393 0.38469 0.0
C479 C 0.66741 0.33087 0.44776 0.0
H480 H 0.71665 0.22479 0.49003 0.0
H481 H 0.75444 0.25545 0.38754 0.0
H482 H 0.64721 0.27007 0.49494 0.0
H483 H 0.62984 0.23772 0.47069 0.0
H484 H 0.65981 0.23081 0.50639 0.0
H485 H 0.72168 0.28282 0.34591 0.0
H486 H 0.67713 0.27521 0.3479 0.0
H487 H 0.69379 0.30973 0.36845 0.0
H488 H 0.56943 0.2734 0.37143 0.0
H489 H 0.6082 0.35477 0.42552 0.0
H490 H 0.62698 0.21888 0.40818 0.0
H491 H 0.64194 0.23145 0.36517 0.0
H492 H 0.59756 0.22517 0.37181 0.0
H493 H 0.67371 0.31775 0.47265 0.0
H494 H 0.66001 0.35506 0.45536 0.0
H495 H 0.6906 0.33203 0.43117 0.0
C496 C 0.38073 0.44092 0.96948 0.0
C497 C 0.34661 0.44496 0.97788 0.0
C498 C 0.39861 0.46383 0.95037 0.0
C499 C 0.382 0.49153 0.93933 0.0
C500 C 0.3472 0.49516 0.94633 0.0
C501 C 0.32992 0.47185 0.96554 0.0
C502 C 0.43565 0.45895 0.94333 0.0
C503 C 0.32857 0.52433 0.93504 0.0
C504 C 0.4378 0.56324 0.93188 0.0
C505 C 0.44386 0.56485 0.89463 0.0
C506 C 0.41701 0.54003 0.94653 0.0
C507 C 0.40179 0.51773 0.92345 0.0
C508 C 0.40684 0.51977 0.88571 0.0
C509 C 0.42778 0.54335 0.87171 0.0
C510 C 0.41214 0.53885 0.98691 0.0
C511 C 0.39095 0.49649 0.86024 0.0
H512 H 0.39366 0.42 0.97849 0.0
H513 H 0.30365 0.47532 0.97222 0.0
H514 H 0.44132 0.46261 0.91435 0.0
H515 H 0.45046 0.47639 0.95884 0.0
H516 H 0.4442 0.43516 0.95113 0.0
H517 H 0.30099 0.52217 0.9391 0.0
H518 H 0.33775 0.54457 0.95103 0.0
H519 H 0.33347 0.52958 0.90623 0.0
H520 H 0.44981 0.57988 0.94984 0.0
H521 H 0.43224 0.5444 0.84291 0.0
H522 H 0.42279 0.51675 0.99768 0.0
H523 H 0.38494 0.53905 0.99354 0.0
H524 H 0.42441 0.5588 1.00095 0.0
H525 H 0.40144 0.47285 0.86536 0.0
H526 H 0.39538 0.50255 0.83151 0.0
H527 H 0.36345 0.49518 0.86499 0.0
C528 C 0.63975 0.5802 0.4635 0.0
C529 C 0.67362 0.57545 0.47264 0.0
C530 C 0.62155 0.5575 0.44428 0.0
C531 C 0.63758 0.52931 0.43385 0.0
C532 C 0.6723 0.52521 0.44103 0.0
C533 C 0.68992 0.54833 0.46037 0.0
C534 C 0.58463 0.56295 0.43702 0.0
C535 C 0.69036 0.49556 0.43028 0.0
C536 C 0.58035 0.45833 0.42999 0.0
C537 C 0.57374 0.45555 0.39292 0.0
C538 C 0.60174 0.4817 0.4434 0.0
C539 C 0.61708 0.50295 0.41923 0.0
C540 C 0.6114 0.49976 0.38168 0.0
C541 C 0.58979 0.47609 0.36894 0.0
C542 C 0.60717 0.48416 0.48365 0.0
C543 C 0.6274 0.52188 0.35507 0.0
H544 H 0.62714 0.60131 0.4725 0.0
H545 H 0.71601 0.54436 0.46756 0.0
H546 H 0.57869 0.5582 0.40829 0.0
H547 H 0.56944 0.54657 0.4535 0.0
H548 H 0.57677 0.58725 0.44361 0.0
H549 H 0.71805 0.49766 0.43348 0.0
H550 H 0.68149 0.47594 0.44735 0.0
H551 H 0.68465 0.4894 0.40185 0.0
H552 H 0.56834 0.4425 0.44879 0.0
H553 H 0.58497 0.47412 0.34026 0.0
H554 H 0.59725 0.50685 0.49362 0.0
H555 H 0.63445 0.48355 0.48993 0.0
H556 H 0.59457 0.46501 0.49867 0.0
H557 H 0.61742 0.54584 0.3593 0.0
H558 H 0.62252 0.51488 0.32667 0.0
H559 H 0.65498 0.5229 0.35947 0.0
C560 C 0.63506 0.45432 0.9954 0.0
C561 C 0.66789 0.44467 0.9871 0.0
C562 C 0.62039 0.48019 0.97836 0.0
C563 C 0.63902 0.49714 0.95242 0.0
C564 C 0.67244 0.4879 0.9443 0.0
C565 C 0.68639 0.46154 0.96151 0.0
C566 C 0.58449 0.48878 0.9874 0.0
C567 C 0.6932 0.50559 0.91709 0.0
C568 C 0.58394 0.53922 0.88457 0.0
C569 C 0.58127 0.56927 0.89974 0.0
C570 C 0.60399 0.51603 0.90046 0.0
C571 C 0.62229 0.523 0.93221 0.0
C572 C 0.62138 0.55377 0.94652 0.0
C573 C 0.60075 0.57654 0.93022 0.0
C574 C 0.60396 0.48352 0.8844 0.0
C575 C 0.64093 0.56225 0.98004 0.0
H576 H 0.6204 0.44103 0.01466 0.0
H577 H 0.71179 0.45417 0.9551 0.0
H578 H 0.58305 0.51357 0.99615 0.0
H579 H 0.56848 0.4863 0.96303 0.0
H580 H 0.57387 0.47386 0.00909 0.0
H581 H 0.71953 0.49695 0.91583 0.0
H582 H 0.68175 0.50325 0.88993 0.0
H583 H 0.69351 0.53088 0.92387 0.0
H584 H 0.56931 0.5333 0.86083 0.0
H585 H 0.59915 0.59971 0.94202 0.0
H586 H 0.59128 0.46714 0.90318 0.0
H587 H 0.63007 0.47501 0.88061 0.0
H588 H 0.59074 0.48257 0.858 0.0
H589 H 0.62947 0.55061 1.00376 0.0
H590 H 0.64118 0.58789 0.98498 0.0
H591 H 0.66725 0.55382 0.9779 0.0
C592 C 0.34136 0.54995 0.48888 0.0
C593 C 0.35333 0.57963 0.47935 0.0
C594 C 0.35527 0.52273 0.47356 0.0
C595 C 0.38249 0.52532 0.4491 0.0
C596 C 0.39436 0.55535 0.43916 0.0
C597 C 0.37934 0.58213 0.45407 0.0
C598 C 0.34129 0.49122 0.48404 0.0
C599 C 0.42386 0.55921 0.41392 0.0
C600 C 0.44536 0.4587 0.44019 0.0
C601 C 0.43823 0.44751 0.40553 0.0
C602 C 0.42687 0.48357 0.45508 0.0
C603 C 0.39991 0.4968 0.43523 0.0
C604 C 0.39147 0.48427 0.40097 0.0
C605 C 0.41128 0.4602 0.38615 0.0
C606 C 0.43749 0.49685 0.4911 0.0
C607 C 0.36225 0.49695 0.37949 0.0
H608 H 0.32126 0.54809 0.5085 0.0
H609 H 0.3889 0.60509 0.44713 0.0
H610 H 0.33549 0.47726 0.45954 0.0
H611 H 0.36033 0.47802 0.49972 0.0
H612 H 0.31811 0.49332 0.50058 0.0
H613 H 0.42981 0.58419 0.40869 0.0
H614 H 0.44644 0.5478 0.42563 0.0
H615 H 0.41858 0.54755 0.38779 0.0
H616 H 0.46667 0.44917 0.45479 0.0
H617 H 0.40598 0.45154 0.35923 0.0
H618 H 0.41587 0.49735 0.50996 0.0
H619 H 0.44608 0.52136 0.48756 0.0
H620 H 0.45819 0.4832 0.50364 0.0
H621 H 0.33951 0.49866 0.39671 0.0
H622 H 0.35637 0.4821 0.35569 0.0
H623 H 0.3682 0.52088 0.36991 0.0
C624 C 0.87419 0.94714 0.9772 0.0
C625 C 0.83941 0.94919 0.98333 0.0
C626 C 0.89152 0.97074 0.95874 0.0
C627 C 0.87357 0.99675 0.94506 0.0
C628 C 0.83817 0.99805 0.94906 0.0
C629 C 0.82153 0.9744 0.96844 0.0
C630 C 0.92931 0.96847 0.95529 0.0
C631 C 0.81805 0.02501 0.93406 0.0
C632 C 0.92512 0.07109 0.93542 0.0
C633 C 0.93553 0.0692 0.89937 0.0
C634 C 0.90399 0.0482 0.95033 0.0
C635 C 0.89235 0.02322 0.92843 0.0
C636 C 0.9012 0.02225 0.89148 0.0
C637 C 0.92303 0.04503 0.8775 0.0
C638 C 0.89559 0.04984 0.99 0.0
C639 C 0.88862 0.99653 0.867 0.0
H640 H 0.88814 0.9274 0.98781 0.0
H641 H 0.79473 0.9764 0.97316 0.0
H642 H 0.9368 0.96989 0.92654 0.0
H643 H 0.94128 0.98845 0.9695 0.0
H644 H 0.93941 0.94638 0.96675 0.0
H645 H 0.79053 0.0207 0.93556 0.0
H646 H 0.82384 0.04661 0.94948 0.0
H647 H 0.825 0.02937 0.90554 0.0
H648 H 0.93477 0.08965 0.95249 0.0
H649 H 0.93071 0.04366 0.84949 0.0
H650 H 0.90693 0.02952 1.00411 0.0
H651 H 0.868 0.04851 0.994 0.0
H652 H 0.90502 0.07165 1.00283 0.0
H653 H 0.90063 0.97405 0.87456 0.0
H654 H 0.89426 1.00128 0.83819 0.0
H655 H 0.86105 0.99354 0.87012 0.0
C656 C 0.14102 0.08074 0.47047 0.0
C657 C 0.17483 0.07618 0.47999 0.0
C658 C 0.12311 0.05786 0.45119 0.0
C659 C 0.13937 0.02967 0.44112 0.0
C660 C 0.17397 0.02564 0.44895 0.0
C661 C 0.19128 0.04893 0.4683 0.0
C662 C 0.0863 0.0632 0.44321 0.0
C663 C 0.19225 0.99598 0.43867 0.0
C664 C 0.08283 0.9583 0.43504 0.0
C665 C 0.07734 0.9556 0.39776 0.0
C666 C 0.10355 0.98183 0.44929 0.0
C667 C 0.11931 1.00334 0.42576 0.0
C668 C 0.11476 1.00026 0.38802 0.0
C669 C 0.09386 0.9764 0.37444 0.0
C670 C 0.10785 0.98414 0.4897 0.0
C671 C 0.13123 0.02267 0.36207 0.0
H672 H 0.12828 0.10193 0.47899 0.0
H673 H 0.21729 0.04504 0.47584 0.0
H674 H 0.08095 0.05866 0.4143 0.0
H675 H 0.07089 0.04661 0.45916 0.0
H676 H 0.07819 0.0874 0.44988 0.0
H677 H 0.21984 0.99795 0.44286 0.0
H678 H 0.18275 0.97629 0.45524 0.0
H679 H 0.18741 0.99001 0.41 0.0
H680 H 0.07044 0.94226 0.45333 0.0
H681 H 0.08986 0.97453 0.3456 0.0
H682 H 0.09752 1.00673 0.49948 0.0
H683 H 0.13495 0.98365 0.49683 0.0
H684 H 0.09497 0.96484 0.5042 0.0
H685 H 0.12105 0.04656 0.36634 0.0
H686 H 0.127 0.01591 0.33348 0.0
H687 H 0.1587 0.02375 0.36717 0.0
C688 C 0.17366 0.96412 0.97862 0.0
C689 C 0.16359 0.93362 0.96985 0.0
C690 C 0.15879 0.99015 0.96185 0.0
C691 C 0.13255 0.98556 0.93651 0.0
C692 C 0.1233 0.9547 0.92652 0.0
C693 C 0.13919 0.92909 0.94308 0.0
C694 C 0.17 0.02258 0.97262 0.0
C695 C 0.09503 0.94869 0.9002 0.0
C696 C 0.06498 0.04833 0.93102 0.0
C697 C 0.07199 0.06255 0.8978 0.0
C698 C 0.08454 0.02336 0.94382 0.0
C699 C 0.11242 0.01276 0.92339 0.0
C700 C 0.1203 0.02765 0.89035 0.0
C701 C 0.09971 0.0521 0.8777 0.0
C702 C 0.07479 1.00779 0.97883 0.0
C703 C 0.15028 0.01757 0.86827 0.0
H704 H 0.1925 0.96758 0.99941 0.0
H705 H 0.13107 0.9055 0.93671 0.0
H706 H 0.17398 0.03729 0.94837 0.0
H707 H 0.15012 0.03393 0.98904 0.0
H708 H 0.19361 0.02216 0.98866 0.0
H709 H 0.09274 0.92352 0.89309 0.0
H710 H 0.07091 0.95659 0.9122 0.0
H711 H 0.09889 0.96228 0.8751 0.0
H712 H 0.04341 0.05603 0.94654 0.0
H713 H 0.10534 0.06309 0.85208 0.0
H714 H 0.09588 0.00917 0.99836 0.0
H715 H 0.06954 0.98263 0.97403 0.0
H716 H 0.05221 0.01865 0.99128 0.0
H717 H 0.17336 0.01812 0.88511 0.0
H718 H 0.15418 0.03272 0.84432 0.0
H719 H 0.14685 0.99311 0.85895 0.0
C720 C 0.83491 0.05202 0.47476 0.0
C721 C 0.85265 0.08025 0.47643 0.0
C722 C 0.84948 0.02528 0.45902 0.0
C723 C 0.88284 0.02679 0.44565 0.0
C724 C 0.90058 0.05553 0.44698 0.0
C725 C 0.88512 0.08197 0.46212 0.0
C726 C 0.82953 0.99529 0.45739 0.0
C727 C 0.93634 0.05811 0.4336 0.0
C728 C 0.93788 0.95414 0.44079 0.0
C729 C 0.94015 0.94948 0.40348 0.0
C730 C 0.91838 0.97865 0.45504 0.0
C731 C 0.89993 0.99828 0.4314 0.0
C732 C 0.90046 0.99227 0.39383 0.0
C733 C 0.92108 0.9683 0.38026 0.0
C734 C 0.91922 0.98473 0.49516 0.0
C735 C 0.88036 0.01197 0.36783 0.0
H736 H 0.80987 0.0508 0.48624 0.0
H737 H 0.89887 0.10383 0.464 0.0
H738 H 0.82962 0.9858 0.42951 0.0
H739 H 0.84135 0.97746 0.47502 0.0
H740 H 0.80305 0.99867 0.46613 0.0
H741 H 0.94652 0.08219 0.43645 0.0
H742 H 0.95274 0.04183 0.44892 0.0
H743 H 0.93771 0.05121 0.40479 0.0
H744 H 0.95296 0.93983 0.45871 0.0
H745 H 0.92276 0.96458 0.35138 0.0
H746 H 0.89332 0.98625 0.50606 0.0
H747 H 0.93161 1.00755 0.50045 0.0
H748 H 0.9331 0.96624 0.51005 0.0
H749 H 0.85409 0.0146 0.37746 0.0
H750 H 0.87994 1.00172 0.34027 0.0
H751 H 0.89144 0.03573 0.36624 0.0
C752 C 0.37979 0.37839 0.0941 0.0
C753 C 0.34489 0.38336 0.09254 0.0
C754 C 0.39662 0.37548 0.12723 0.0
C755 C 0.37807 0.37668 0.15977 0.0
C756 C 0.34262 0.37967 0.15842 0.0
C757 C 0.32649 0.3833 0.12489 0.0
C758 C 0.43449 0.37255 0.12739 0.0
C759 C 0.32184 0.38031 0.19246 0.0
C760 C 0.42573 0.34919 0.243 0.0
C761 C 0.43662 0.37766 0.25787 0.0
C762 C 0.40525 0.3485 0.21206 0.0
C763 C 0.39616 0.37692 0.19506 0.0
C764 C 0.40632 0.40574 0.21056 0.0
C765 C 0.42608 0.40576 0.24198 0.0
C766 C 0.39419 0.31733 0.19698 0.0
C767 C 0.39766 0.43657 0.19301 0.0
H768 H 0.39421 0.37763 0.06933 0.0
H769 H 0.29961 0.38741 0.12424 0.0
H770 H 0.44568 0.39316 0.14113 0.0
H771 H 0.44227 0.3515 0.14272 0.0
H772 H 0.4451 0.37097 0.09974 0.0
H773 H 0.29446 0.37883 0.18673 0.0
H774 H 0.329 0.36065 0.2104 0.0
H775 H 0.32676 0.40234 0.20741 0.0
H776 H 0.43357 0.32739 0.25532 0.0
H777 H 0.43456 0.42785 0.25316 0.0
H778 H 0.40694 0.31297 0.17085 0.0
H779 H 0.36672 0.31747 0.1917 0.0
H780 H 0.40014 0.29768 0.21549 0.0
H781 H 0.40949 0.43777 0.16594 0.0
H782 H 0.40636 0.45693 0.20917 0.0
H783 H 0.37009 0.43851 0.18909 0.0
C784 C 0.63781 0.63676 0.59212 0.0
C785 C 0.67261 0.63111 0.59142 0.0
C786 C 0.62033 0.63959 0.62484 0.0
C787 C 0.63814 0.63757 0.65784 0.0
C788 C 0.67346 0.6335 0.65742 0.0
C789 C 0.69021 0.62996 0.62429 0.0
C790 C 0.58259 0.64362 0.62408 0.0
C791 C 0.69345 0.63187 0.69201 0.0
C792 C 0.59106 0.6666 0.74072 0.0
C793 C 0.57911 0.6385 0.75541 0.0
C794 C 0.61147 0.66663 0.70979 0.0
C795 C 0.61942 0.63793 0.69266 0.0
C796 C 0.60802 0.60946 0.70784 0.0
C797 C 0.58833 0.61008 0.73925 0.0
C798 C 0.62386 0.6974 0.69497 0.0
C799 C 0.61545 0.57838 0.6901 0.0
H800 H 0.62401 0.63841 0.56698 0.0
H801 H 0.71697 0.6252 0.62433 0.0
H802 H 0.57042 0.6234 0.63752 0.0
H803 H 0.57525 0.66493 0.63925 0.0
H804 H 0.57258 0.64544 0.59618 0.0
H805 H 0.721 0.63199 0.68706 0.0
H806 H 0.68703 0.6519 0.7098 0.0
H807 H 0.68694 0.61016 0.70678 0.0
H808 H 0.58419 0.68863 0.75325 0.0
H809 H 0.57899 0.58828 0.75028 0.0
H810 H 0.61194 0.70195 0.66844 0.0
H811 H 0.65144 0.69646 0.69057 0.0
H812 H 0.61808 0.71733 0.71324 0.0
H813 H 0.604 0.57778 0.66279 0.0
H814 H 0.60556 0.55832 0.70587 0.0
H815 H 0.64296 0.57533 0.68669 0.0
C816 C 0.64887 0.35414 0.10281 0.0
C817 C 0.67202 0.37816 0.09611 0.0
C818 C 0.63217 0.35209 0.13604 0.0
C819 C 0.6392 0.37431 0.16341 0.0
C820 C 0.66431 0.39726 0.15763 0.0
C821 C 0.68014 0.39916 0.12384 0.0
C822 C 0.60519 0.32759 0.14079 0.0
C823 C 0.67306 0.42094 0.18639 0.0
C824 C 0.56676 0.39584 0.22513 0.0
C825 C 0.5732 0.37742 0.25562 0.0
C826 C 0.58819 0.39511 0.19516 0.0
C827 C 0.61729 0.376 0.19592 0.0
C828 C 0.62449 0.35796 0.227 0.0
C829 C 0.6021 0.35858 0.25637 0.0
C830 C 0.57918 0.41425 0.16231 0.0
C831 C 0.65566 0.33788 0.2291 0.0
H832 H 0.64221 0.33814 0.08123 0.0
H833 H 0.69811 0.41768 0.11868 0.0
H834 H 0.60859 0.31504 0.16668 0.0
H835 H 0.58019 0.33913 0.14167 0.0
H836 H 0.60513 0.3102 0.11848 0.0
H837 H 0.69642 0.43399 0.17983 0.0
H838 H 0.6522 0.43801 0.18918 0.0
H839 H 0.67633 0.4093 0.21288 0.0
H840 H 0.54434 0.41027 0.22423 0.0
H841 H 0.60729 0.34446 0.27999 0.0
H842 H 0.57611 0.39865 0.13858 0.0
H843 H 0.59976 0.43086 0.15602 0.0
H844 H 0.55556 0.42776 0.16603 0.0
H845 H 0.65446 0.31915 0.2084 0.0
H846 H 0.65874 0.32685 0.25601 0.0
H847 H 0.67829 0.35217 0.22323 0.0
C848 C 0.37393 0.66807 0.59859 0.0
C849 C 0.35078 0.64436 0.59047 0.0
C850 C 0.38946 0.66968 0.63254 0.0
C851 C 0.38121 0.64733 0.65925 0.0
C852 C 0.35615 0.62461 0.65196 0.0
C853 C 0.34154 0.62313 0.61746 0.0
C854 C 0.41651 0.69388 0.63884 0.0
C855 C 0.34609 0.6008 0.67994 0.0
C856 C 0.45124 0.62439 0.72344 0.0
C857 C 0.44414 0.64261 0.75401 0.0
C858 C 0.43083 0.62567 0.69268 0.0
C859 C 0.40199 0.64512 0.69263 0.0
C860 C 0.3941 0.66299 0.72374 0.0
C861 C 0.41557 0.66187 0.75396 0.0
C862 C 0.44067 0.60674 0.65986 0.0
C863 C 0.36315 0.68341 0.72497 0.0
H864 H 0.38145 0.68427 0.57762 0.0
H865 H 0.32352 0.60486 0.61124 0.0
H866 H 0.4123 0.70628 0.66473 0.0
H867 H 0.44134 0.68209 0.64067 0.0
H868 H 0.4176 0.71142 0.6168 0.0
H869 H 0.32287 0.588 0.67214 0.0
H870 H 0.36666 0.58352 0.68343 0.0
H871 H 0.34195 0.61228 0.70644 0.0
H872 H 0.47347 0.60969 0.72311 0.0
H873 H 0.40989 0.67586 0.7776 0.0
H874 H 0.44464 0.62253 0.63652 0.0
H875 H 0.42014 0.59037 0.65251 0.0
H876 H 0.46402 0.59299 0.66425 0.0
H877 H 0.36525 0.70232 0.70465 0.0
H878 H 0.35936 0.69423 0.75193 0.0
H879 H 0.34054 0.66944 0.71799 0.0
C880 C 0.82502 0.88971 0.13254 0.0
C881 C 0.84201 0.88982 0.09935 0.0
C882 C 0.84255 0.88565 0.16515 0.0
C883 C 0.87797 0.88221 0.16462 0.0
C884 C 0.89509 0.88118 0.1312 0.0
C885 C 0.87689 0.88459 0.09903 0.0
C886 C 0.82332 0.8862 0.20023 0.0
C887 C 0.93288 0.87779 0.12942 0.0
C888 C 0.9299 0.90966 0.24461 0.0
C889 C 0.94047 0.88122 0.25966 0.0
C890 C 0.90888 0.91028 0.2142 0.0
C891 C 0.89755 0.88178 0.19889 0.0
C892 C 0.90682 0.85303 0.215 0.0
C893 C 0.92848 0.85308 0.24496 0.0
C894 C 0.89999 0.94143 0.19753 0.0
C895 C 0.8946 0.8222 0.2 0.0
H896 H 0.79817 0.89399 0.13325 0.0
H897 H 0.89017 0.88389 0.07353 0.0
H898 H 0.83079 0.86613 0.2174 0.0
H899 H 0.82943 0.90789 0.21534 0.0
H900 H 0.79568 0.88536 0.19589 0.0
H901 H 0.94226 0.87642 0.10124 0.0
H902 H 0.94498 0.89808 0.1429 0.0
H903 H 0.941 0.85645 0.144 0.0
H904 H 0.93914 0.9315 0.25572 0.0
H905 H 0.9363 0.83102 0.2567 0.0
H906 H 0.87232 0.94381 0.19505 0.0
H907 H 0.91063 0.94277 0.16991 0.0
H908 H 0.90974 0.96148 0.21352 0.0
H909 H 0.86691 0.82274 0.1963 0.0
H910 H 0.90117 0.80222 0.21778 0.0
H911 H 0.90597 0.81808 0.1731 0.0
C912 C 0.19101 0.13033 0.63019 0.0
C913 C 0.17441 0.13442 0.59709 0.0
C914 C 0.17392 0.13417 0.66306 0.0
C915 C 0.13937 0.14217 0.66285 0.0
C916 C 0.12287 0.14769 0.62959 0.0
C917 C 0.14059 0.14378 0.59714 0.0
C918 C 0.19243 0.12809 0.69792 0.0
C919 C 0.08607 0.15635 0.62817 0.0
C920 C 0.08326 0.11343 0.7385 0.0
C921 C 0.07779 0.1408 0.75865 0.0
C922 C 0.10388 0.1135 0.70787 0.0
C923 C 0.11959 0.14163 0.69697 0.0
C924 C 0.11522 0.16913 0.71783 0.0
C925 C 0.09437 0.1684 0.74849 0.0
C926 C 0.10801 0.08358 0.68654 0.0
C927 C 0.13169 0.19952 0.70713 0.0
H928 H 0.21702 0.12274 0.63046 0.0
H929 H 0.12774 0.14743 0.5717 0.0
H930 H 0.18787 0.14733 0.71743 0.0
H931 H 0.18287 0.10622 0.7103 0.0
H932 H 0.21997 0.12564 0.69376 0.0
H933 H 0.07771 0.16242 0.60046 0.0
H934 H 0.07069 0.13642 0.6379 0.0
H935 H 0.08094 0.17651 0.64624 0.0
H936 H 0.07081 0.09191 0.74622 0.0
H937 H 0.09033 0.18967 0.76385 0.0
H938 H 0.13507 0.07791 0.68339 0.0
H939 H 0.09738 0.08665 0.65909 0.0
H940 H 0.09528 0.0634 0.69951 0.0
H941 H 0.1591 0.19604 0.70322 0.0
H942 H 0.12781 0.21821 0.72757 0.0
H943 H 0.12119 0.20759 0.68102 0.0
C944 C 0.17926 0.87206 0.11691 0.0
C945 C 0.1587 0.87851 0.08714 0.0
C946 C 0.16574 0.8711 0.15198 0.0
C947 C 0.13078 0.8759 0.15707 0.0
C948 C 0.10991 0.88175 0.12683 0.0
C949 C 0.12419 0.8833 0.09234 0.0
C950 C 0.18887 0.86546 0.1836 0.0
C951 C 0.07242 0.88636 0.13088 0.0
C952 C 0.08442 0.84762 0.24048 0.0
C953 C 0.07749 0.87596 0.25811 0.0
C954 C 0.10304 0.84702 0.20828 0.0
C955 C 0.11566 0.87535 0.19385 0.0
C956 C 0.11061 0.90372 0.21288 0.0
C957 C 0.09123 0.90374 0.24452 0.0
C958 C 0.10731 0.81636 0.18853 0.0
C959 C 0.12431 0.93433 0.19893 0.0
H960 H 0.20596 0.86837 0.11278 0.0
H961 H 0.10826 0.88789 0.06918 0.0
H962 H 0.18765 0.88562 0.20246 0.0
H963 H 0.18062 0.84448 0.19876 0.0
H964 H 0.21541 0.86208 0.17511 0.0
H965 H 0.05958 0.88934 0.10448 0.0
H966 H 0.06119 0.86597 0.1449 0.0
H967 H 0.06734 0.90733 0.14767 0.0
H968 H 0.07371 0.82609 0.25075 0.0
H969 H 0.08622 0.92567 0.25826 0.0
H970 H 0.13398 0.81277 0.18084 0.0
H971 H 0.09235 0.81685 0.16325 0.0
H972 H 0.09892 0.79609 0.20493 0.0
H973 H 0.15116 0.93175 0.19136 0.0
H974 H 0.12202 0.95345 0.21912 0.0
H975 H 0.11033 0.94127 0.1743 0.0
C976 C 0.84453 0.11385 0.61565 0.0
C977 C 0.84901 0.1388 0.59157 0.0
C978 C 0.8599 0.11398 0.64979 0.0
C979 C 0.88026 0.13966 0.66008 0.0
C980 C 0.88334 0.16567 0.63672 0.0
C981 C 0.86772 0.16491 0.60276 0.0
C982 C 0.85578 0.08591 0.67402 0.0
C983 C 0.90483 0.19351 0.64664 0.0
C984 C 0.90985 0.14963 0.75721 0.0
C985 C 0.94229 0.13709 0.75526 0.0
C986 C 0.88894 0.1501 0.72659 0.0
C987 C 0.90111 0.13802 0.69343 0.0
C988 C 0.93392 0.12511 0.69169 0.0
C989 C 0.95409 0.12477 0.72272 0.0
C990 C 0.85412 0.16392 0.72954 0.0
C991 C 0.94797 0.11218 0.65688 0.0
H992 H 0.82981 0.09375 0.60732 0.0
H993 H 0.87175 0.1841 0.58421 0.0
H994 H 0.88002 0.07314 0.67586 0.0
H995 H 0.84894 0.09341 0.70172 0.0
H996 H 0.83627 0.0695 0.66389 0.0
H997 H 0.90182 0.21313 0.62728 0.0
H998 H 0.89841 0.20203 0.67406 0.0
H999 H 0.93168 0.18645 0.64704 0.0
H1000 H 0.90101 0.15926 0.78257 0.0
H1001 H 0.97939 0.11529 0.72147 0.0
H1002 H 0.83512 0.1467 0.72022 0.0
H1003 H 0.85203 0.18469 0.71178 0.0
H1004 H 0.84794 0.17108 0.75758 0.0
H1005 H 0.93134 0.09343 0.64635 0.0
H1006 H 0.97371 0.10248 0.66028 0.0
H1007 H 0.94886 0.1309 0.63622 0.0
loop_
_geom_bond_atom_site_label_1
_geom_bond_atom_site_label_2
_geom_bond_distance
_geom_bond_site_symmetry_2
_ccdc_geom_bond_type
H0 C1 0.949 . S
C1 H0 0.949 . S
C1 C2 1.397 . S
C1 C3 1.391 1_556 S
C2 C1 1.397 . S
C2 C5 1.371 1_556 S
C3 C1 1.391 1_554 S
C3 C7 1.387 . S
C3 C8 1.491 . S
H4 C5 0.950 . S
C5 C2 1.371 1_554 S
C5 H4 0.950 . S
C5 C6 1.378 . S
C6 C5 1.378 . S
C6 C7 1.409 . S
C7 C3 1.387 . S
C7 C6 1.409 . S
C7 H9 0.951 . S
C8 C3 1.491 . S
C8 C10 1.382 1_554 S
C8 C12 1.404 . S
H9 C7 0.951 . S
C10 C8 1.382 1_556 S
C10 C11 1.390 . S
C10 H15 0.949 . S
C11 C10 1.390 . S
C11 C16 1.399 1_556 S
C12 C8 1.404 . S
C12 H13 0.950 . S
C12 C14 1.375 . S
H13 C12 0.950 . S
C14 C12 1.375 . S
C14 C16 1.382 . S
C14 H18 0.950 . S
H15 C10 0.949 . S
C16 C11 1.399 1_554 S
C16 C14 1.382 . S
C16 H17 0.952 . S
H17 C16 0.952 . S
H18 C14 0.950 . S
H19 C20 0.949 . S
C20 H19 0.949 . S
C20 C21 1.395 . S
C20 C22 1.391 . S
C21 C20 1.395 . S
C21 C24 1.390 . S
C22 C20 1.391 . S
C22 C26 1.387 . S
C22 C27 1.491 . S
H23 C24 0.950 . S
C24 C21 1.390 . S
C24 H23 0.950 . S
C24 C25 1.378 . S
C25 C24 1.378 . S
C25 C26 1.409 . S
C26 C22 1.387 . S
C26 C25 1.409 . S
C26 H28 0.951 . S
C27 C22 1.491 . S
C27 C29 1.382 . S
C27 C31 1.404 . S
H28 C26 0.951 . S
C29 C27 1.382 . S
C29 C30 1.390 . S
C29 H34 0.949 . S
C30 C29 1.390 . S
C30 C35 1.399 . S
C31 C27 1.404 . S
C31 H32 0.950 . S
C31 C33 1.375 . S
H32 C31 0.950 . S
C33 C31 1.375 . S
C33 C35 1.382 . S
C33 H37 0.950 . S
H34 C29 0.949 . S
C35 C30 1.399 . S
C35 C33 1.382 . S
C35 H36 0.952 . S
H36 C35 0.952 . S
H37 C33 0.950 . S
H38 C39 0.949 . S
C39 H38 0.949 . S
C39 C40 1.395 . S
C39 C41 1.391 1_556 S
C40 C39 1.395 . S
C40 C43 1.390 1_556 S
C41 C39 1.391 1_554 S
C41 C45 1.387 . S
C41 C46 1.491 . S
H42 C43 0.950 . S
C43 C40 1.390 1_554 S
C43 H42 0.950 . S
C43 C44 1.378 . S
C44 C43 1.378 . S
C44 C45 1.409 . S
C45 C41 1.387 . S
C45 C44 1.409 . S
C45 H47 0.951 . S
C46 C41 1.491 . S
C46 C48 1.382 1_554 S
C46 C50 1.404 . S
H47 C45 0.951 . S
C48 C46 1.382 1_556 S
C48 C49 1.390 . S
C48 H53 0.949 . S
C49 C48 1.390 . S
C49 C54 1.399 . S
C50 C46 1.404 . S
C50 H51 0.950 . S
C50 C52 1.375 . S
H51 C50 0.950 . S
C52 C50 1.375 . S
C52 C54 1.382 1_554 S
C52 H56 0.950 . S
H53 C48 0.949 . S
C54 C49 1.399 . S
C54 C52 1.382 1_556 S
C54 H55 0.952 . S
H55 C54 0.952 . S
H56 C52 0.950 . S
H57 C58 0.949 . S
C58 H57 0.949 . S
C58 C59 1.395 . S
C58 C60 1.391 . S
C59 C58 1.395 . S
C59 C62 1.390 . S
C60 C58 1.391 . S
C60 C64 1.387 . S
C60 C65 1.491 . S
H61 C62 0.950 . S
C62 C59 1.390 . S
C62 H61 0.950 . S
C62 C63 1.378 . S
C63 C62 1.378 . S
C63 C64 1.409 . S
C64 C60 1.387 . S
C64 C63 1.409 . S
C64 H66 0.951 . S
C65 C60 1.491 . S
C65 C67 1.382 . S
C65 C69 1.404 . S
H66 C64 0.951 . S
C67 C65 1.382 . S
C67 C68 1.390 . S
C67 H72 0.949 . S
C68 C67 1.390 . S
C68 C73 1.399 . S
C69 C65 1.404 . S
C69 H70 0.950 . S
C69 C71 1.375 . S
H70 C69 0.950 . S
C71 C69 1.375 . S
C71 C73 1.382 . S
C71 H75 0.950 . S
H72 C67 0.949 . S
C73 C68 1.399 . S
C73 C71 1.382 . S
C73 H74 0.952 . S
H74 C73 0.952 . S
H75 C71 0.950 . S
H76 C77 0.949 . S
C77 H76 0.949 . S
C77 C78 1.397 . S
C77 C79 1.391 1_556 S
C78 C77 1.397 . S
C78 C81 1.371 1_556 S
C79 C77 1.391 1_554 S
C79 C83 1.387 . S
C79 C84 1.491 . S
H80 C81 0.950 . S
C81 C78 1.371 1_554 S
C81 H80 0.950 . S
C81 C82 1.378 . S
C82 C81 1.378 . S
C82 C83 1.409 . S
C83 C79 1.387 . S
C83 C82 1.409 . S
C83 H85 0.951 . S
C84 C79 1.491 . S
C84 C86 1.382 1_554 S
C84 C88 1.404 . S
H85 C83 0.951 . S
C86 C84 1.382 1_556 S
C86 C87 1.390 . S
C86 H91 0.949 . S
C87 C86 1.390 . S
C87 C92 1.399 1_556 S
C88 C84 1.404 . S
C88 H89 0.950 . S
C88 C90 1.375 . S
H89 C88 0.950 . S
C90 C88 1.375 . S
C90 C92 1.382 . S
C90 H94 0.950 . S
H91 C86 0.949 . S
C92 C87 1.399 1_554 S
C92 C90 1.382 . S
C92 H93 0.952 . S
H93 C92 0.952 . S
H94 C90 0.950 . S
H95 C96 0.949 . S
C96 H95 0.949 . S
C96 C97 1.395 . S
C96 C98 1.391 . S
C97 C96 1.395 . S
C97 C100 1.390 . S
C98 C96 1.391 . S
C98 C102 1.387 . S
C98 C103 1.491 . S
H99 C100 0.950 . S
C100 C97 1.390 . S
C100 H99 0.950 . S
C100 C101 1.378 . S
C101 C100 1.378 . S
C101 C102 1.409 . S
C102 C98 1.387 . S
C102 C101 1.409 . S
C102 H104 0.951 . S
C103 C98 1.491 . S
C103 C105 1.382 . S
C103 C107 1.404 . S
H104 C102 0.951 . S
C105 C103 1.382 . S
C105 C106 1.390 . S
C105 H110 0.949 . S
C106 C105 1.390 . S
C106 C111 1.399 . S
C107 C103 1.404 . S
C107 H108 0.950 . S
C107 C109 1.375 . S
H108 C107 0.950 . S
C109 C107 1.375 . S
C109 C111 1.382 . S
C109 H113 0.950 . S
H110 C105 0.949 . S
C111 C106 1.399 . S
C111 C109 1.382 . S
C111 H112 0.952 . S
H112 C111 0.952 . S
H113 C109 0.950 . S
H114 C115 0.949 . S
C115 H114 0.949 . S
C115 C116 1.395 . S
C115 C117 1.391 1_556 S
C116 C115 1.395 . S
C116 C119 1.390 1_556 S
C117 C115 1.391 1_554 S
C117 C121 1.387 . S
C117 C122 1.491 . S
H118 C119 0.950 . S
C119 C116 1.390 1_554 S
C119 H118 0.950 . S
C119 C120 1.378 . S
C120 C119 1.378 . S
C120 C121 1.409 . S
C121 C117 1.387 . S
C121 C120 1.409 . S
C121 H123 0.951 . S
C122 C117 1.491 . S
C122 C124 1.382 1_554 S
C122 C126 1.404 . S
H123 C121 0.951 . S
C124 C122 1.382 1_556 S
C124 C125 1.390 . S
C124 H129 0.949 . S
C125 C124 1.390 . S
C125 C130 1.399 . S
C126 C122 1.404 . S
C126 H127 0.950 . S
C126 C128 1.375 . S
H127 C126 0.950 . S
C128 C126 1.375 . S
C128 C130 1.382 1_554 S
C128 H132 0.950 . S
H129 C124 0.949 . S
C130 C125 1.399 . S
C130 C128 1.382 1_556 S
C130 H131 0.952 . S
H131 C130 0.952 . S
H132 C128 0.950 . S
H133 C134 0.949 . S
C134 H133 0.949 . S
C134 C135 1.395 . S
C134 C136 1.391 . S
C135 C134 1.395 . S
C135 C138 1.390 . S
C136 C134 1.391 . S
C136 C140 1.387 . S
C136 C141 1.491 . S
H137 C138 0.950 . S
C138 C135 1.390 . S
C138 H137 0.950 . S
C138 C139 1.378 . S
C139 C138 1.378 . S
C139 C140 1.409 . S
C140 C136 1.387 . S
C140 C139 1.409 . S
C140 H142 0.951 . S
C141 C136 1.491 . S
C141 C143 1.382 . S
C141 C145 1.404 . S
H142 C140 0.951 . S
C143 C141 1.382 . S
C143 C144 1.390 . S
C143 H148 0.949 . S
C144 C143 1.390 . S
C144 C149 1.399 . S
C145 C141 1.404 . S
C145 H146 0.950 . S
C145 C147 1.375 . S
H146 C145 0.950 . S
C147 C145 1.375 . S
C147 C149 1.382 . S
C147 H151 0.950 . S
H148 C143 0.949 . S
C149 C144 1.399 . S
C149 C147 1.382 . S
C149 H150 0.952 . S
H150 C149 0.952 . S
H151 C147 0.950 . S
Fe152 O154 1.918 . S
Fe152 O157 1.997 1_455 S
Fe152 O158 2.002 1_455 S
Fe152 O163 1.976 . S
Fe152 O166 1.996 . S
Fe153 O154 1.918 . S
Fe153 O161 1.997 1_455 S
Fe153 O164 1.996 . S
Fe153 O168 1.976 . S
Fe153 O171 2.002 1_455 S
O154 Fe152 1.918 . S
O154 Fe153 1.918 . S
O154 Fe155 1.918 . S
Fe155 O154 1.918 . S
Fe155 O156 2.002 1_455 S
Fe155 O165 1.976 . S
Fe155 O169 1.996 . S
Fe155 O172 1.997 1_455 S
O156 Fe155 2.002 1_655 S
O156 C173 1.295 . S
O157 Fe152 1.997 1_655 S
O157 C173 1.235 . S
O158 Fe152 2.002 1_655 S
O158 C159 1.295 . S
C159 O158 1.295 . S
C159 O161 1.235 . S
C160 O165 1.287 . S
C160 O166 1.255 . S
O161 Fe153 1.997 1_655 S
O161 C159 1.235 . S
C162 O168 1.287 . S
C162 O169 1.255 . S
O163 Fe152 1.976 . S
O163 C170 1.287 . S
O164 Fe153 1.996 . S
O164 C170 1.255 . S
O165 Fe155 1.976 . S
O165 C160 1.287 . S
O166 Fe152 1.996 . S
O166 C160 1.255 . S
C167 O171 1.295 . S
C167 O172 1.235 . S
O168 Fe153 1.976 . S
O168 C162 1.287 . S
O169 Fe155 1.996 . S
O169 C162 1.255 . S
C170 O163 1.287 . S
C170 O164 1.255 . S
O171 Fe153 2.002 1_655 S
O171 C167 1.295 . S
O172 Fe155 1.997 1_655 S
O172 C167 1.235 . S
C173 O156 1.295 . S
C173 O157 1.235 . S
Fe174 O176 1.918 . S
Fe174 O179 1.997 1_655 S
Fe174 O180 2.002 1_655 S
Fe174 O185 1.976 . S
Fe174 O188 1.996 . S
Fe175 O176 1.918 . S
Fe175 O183 1.997 1_655 S
Fe175 O186 1.996 . S
Fe175 O190 1.976 . S
Fe175 O193 2.002 1_655 S
O176 Fe174 1.918 . S
O176 Fe175 1.918 . S
O176 Fe177 1.918 . S
Fe177 O176 1.918 . S
Fe177 O178 2.002 1_655 S
Fe177 O187 1.976 . S
Fe177 O191 1.996 . S
Fe177 O194 1.997 1_655 S
O178 Fe177 2.002 1_455 S
O178 C195 1.295 . S
O179 Fe174 1.997 1_455 S
O179 C195 1.235 . S
O180 Fe174 2.002 1_455 S
O180 C181 1.295 . S
C181 O180 1.295 . S
C181 O183 1.235 . S
C182 O187 1.287 . S
C182 O188 1.255 . S
O183 Fe175 1.997 1_455 S
O183 C181 1.235 . S
C184 O190 1.287 . S
C184 O191 1.255 . S
O185 Fe174 1.976 . S
O185 C192 1.287 . S
O186 Fe175 1.996 . S
O186 C192 1.255 . S
O187 Fe177 1.976 . S
O187 C182 1.287 . S
O188 Fe174 1.996 . S
O188 C182 1.255 . S
C189 O193 1.295 . S
C189 O194 1.235 . S
O190 Fe175 1.976 . S
O190 C184 1.287 . S
O191 Fe177 1.996 . S
O191 C184 1.255 . S
C192 O185 1.287 . S
C192 O186 1.255 . S
O193 Fe175 2.002 1_455 S
O193 C189 1.295 . S
O194 Fe177 1.997 1_455 S
O194 C189 1.235 . S
C195 O178 1.295 . S
C195 O179 1.235 . S
Fe196 O198 1.918 . S
Fe196 O201 1.997 . S
Fe196 O202 2.002 . S
Fe196 O207 1.976 . S
Fe196 O210 1.996 . S
Fe197 O198 1.918 . S
Fe197 O205 1.997 . S
Fe197 O208 1.996 . S
Fe197 O212 1.976 . S
Fe197 O215 2.002 . S
O198 Fe196 1.918 . S
O198 Fe197 1.918 . S
O198 Fe199 1.918 . S
Fe199 O198 1.918 . S
Fe199 O200 2.002 . S
Fe199 O209 1.976 . S
Fe199 O213 1.996 . S
Fe199 O216 1.997 . S
O200 Fe199 2.002 . S
O200 C217 1.295 . S
O201 Fe196 1.997 . S
O201 C217 1.235 . S
O202 Fe196 2.002 . S
O202 C203 1.295 . S
C203 O202 1.295 . S
C203 O205 1.235 . S
C204 O209 1.287 . S
C204 O210 1.255 . S
O205 Fe197 1.997 . S
O205 C203 1.235 . S
C206 O212 1.287 . S
C206 O213 1.255 . S
O207 Fe196 1.976 . S
O207 C214 1.287 . S
O208 Fe197 1.996 . S
O208 C214 1.255 . S
O209 Fe199 1.976 . S
O209 C204 1.287 . S
O210 Fe196 1.996 . S
O210 C204 1.255 . S
C211 O215 1.295 . S
C211 O216 1.235 . S
O212 Fe197 1.976 . S
O212 C206 1.287 . S
O213 Fe199 1.996 . S
O213 C206 1.255 . S
C214 O207 1.287 . S
C214 O208 1.255 . S
O215 Fe197 2.002 . S
O215 C211 1.295 . S
O216 Fe199 1.997 . S
O216 C211 1.235 . S
C217 O200 1.295 . S
C217 O201 1.235 . S
Fe218 O220 1.918 . S
Fe218 O223 1.997 . S
Fe218 O224 2.002 . S
Fe218 O229 1.976 . S
Fe218 O232 1.996 . S
Fe219 O220 1.918 . S
Fe219 O227 1.997 . S
Fe219 O230 1.996 . S
Fe219 O234 1.976 . S
Fe219 O237 2.002 . S
O220 Fe218 1.918 . S
O220 Fe219 1.918 . S
O220 Fe221 1.918 . S
Fe221 O220 1.918 . S
Fe221 O222 2.002 . S
Fe221 O231 1.976 . S
Fe221 O235 1.996 . S
Fe221 O238 1.997 . S
O222 Fe221 2.002 . S
O222 C239 1.295 . S
O223 Fe218 1.997 . S
O223 C239 1.235 . S
O224 Fe218 2.002 . S
O224 C225 1.295 . S
C225 O224 1.295 . S
C225 O227 1.235 . S
C226 O231 1.287 . S
C226 O232 1.255 . S
O227 Fe219 1.997 . S
O227 C225 1.235 . S
C228 O234 1.287 . S
C228 O235 1.255 . S
O229 Fe218 1.976 . S
O229 C236 1.287 . S
O230 Fe219 1.996 . S
O230 C236 1.255 . S
O231 Fe221 1.976 . S
O231 C226 1.287 . S
O232 Fe218 1.996 . S
O232 C226 1.255 . S
C233 O237 1.295 . S
C233 O238 1.235 . S
O234 Fe219 1.976 . S
O234 C228 1.287 . S
O235 Fe221 1.996 . S
O235 C228 1.255 . S
C236 O229 1.287 . S
C236 O230 1.255 . S
O237 Fe219 2.002 . S
O237 C233 1.295 . S
O238 Fe221 1.997 . S
O238 C233 1.235 . S
C239 O222 1.295 . S
C239 O223 1.235 . S
C240 C241 1.391 . S
C240 C242 1.394 . S
C240 H256 0.931 1_556 S
C241 C240 1.391 . S
C241 C245 1.376 . S
C242 C240 1.394 . S
C242 C243 1.369 . S
C242 C246 1.531 . S
C243 C242 1.369 . S
C243 C244 1.410 . S
C243 C251 1.503 . S
C244 C243 1.410 . S
C244 C245 1.392 . S
C244 C247 1.511 . S
C245 C241 1.376 . S
C245 C244 1.392 . S
C245 H257 0.929 . S
C246 C242 1.531 . S
C246 H258 0.960 . S
C246 H259 0.962 . S
C246 H260 0.960 1_556 S
C247 C244 1.511 . S
C247 H261 0.961 . S
C247 H262 0.961 . S
C247 H263 0.961 . S
C248 C249 1.370 . S
C248 C250 1.363 . S
C248 H264 0.931 . S
C249 C248 1.370 . S
C249 C253 1.408 . S
C250 C248 1.363 . S
C250 C251 1.370 . S
C250 C254 1.524 . S
C251 C243 1.503 . S
C251 C250 1.370 . S
C251 C252 1.403 . S
C252 C251 1.403 . S
C252 C253 1.404 . S
C252 C255 1.539 . S
C253 C249 1.408 . S
C253 C252 1.404 . S
C253 H265 0.930 . S
C254 C250 1.524 . S
C254 H266 0.956 . S
C254 H267 0.961 . S
C254 H268 0.961 . S
C255 C252 1.539 . S
C255 H269 0.958 . S
C255 H270 0.961 . S
C255 H271 0.960 . S
H256 C240 0.931 1_554 S
H257 C245 0.929 . S
H258 C246 0.960 . S
H259 C246 0.962 . S
H260 C246 0.960 1_554 S
H261 C247 0.961 . S
H262 C247 0.961 . S
H263 C247 0.961 . S
H264 C248 0.931 . S
H265 C253 0.930 . S
H266 C254 0.956 . S
H267 C254 0.961 . S
H268 C254 0.961 . S
H269 C255 0.958 . S
H270 C255 0.961 . S
H271 C255 0.960 . S
C272 C273 1.391 . S
C272 C274 1.394 . S
C272 H288 0.931 . S
C273 C272 1.391 . S
C273 C277 1.376 . S
C274 C272 1.394 . S
C274 C275 1.369 . S
C274 C278 1.531 . S
C275 C274 1.369 . S
C275 C276 1.410 . S
C275 C283 1.503 . S
C276 C275 1.410 . S
C276 C277 1.392 . S
C276 C279 1.511 . S
C277 C273 1.376 . S
C277 C276 1.392 . S
C277 H289 0.929 . S
C278 C274 1.531 . S
C278 H290 0.960 . S
C278 H291 0.962 . S
C278 H292 0.960 . S
C279 C276 1.511 . S
C279 H293 0.961 . S
C279 H294 0.961 . S
C279 H295 0.961 . S
C280 C281 1.370 . S
C280 C282 1.363 . S
C280 H296 0.931 . S
C281 C280 1.370 . S
C281 C285 1.408 . S
C282 C280 1.363 . S
C282 C283 1.370 . S
C282 C286 1.524 . S
C283 C275 1.503 . S
C283 C282 1.370 . S
C283 C284 1.403 . S
C284 C283 1.403 . S
C284 C285 1.404 . S
C284 C287 1.539 . S
C285 C281 1.408 . S
C285 C284 1.404 . S
C285 H297 0.930 . S
C286 C282 1.524 . S
C286 H298 0.956 . S
C286 H299 0.961 . S
C286 H300 0.961 . S
C287 C284 1.539 . S
C287 H301 0.958 . S
C287 H302 0.961 . S
C287 H303 0.960 . S
H288 C272 0.931 . S
H289 C277 0.929 . S
H290 C278 0.960 . S
H291 C278 0.962 . S
H292 C278 0.960 . S
H293 C279 0.961 . S
H294 C279 0.961 . S
H295 C279 0.961 . S
H296 C280 0.931 . S
H297 C285 0.930 . S
H298 C286 0.956 . S
H299 C286 0.961 . S
H300 C286 0.961 . S
H301 C287 0.958 . S
H302 C287 0.961 . S
H303 C287 0.960 . S
C304 C305 1.391 . S
C304 C306 1.394 . S
C304 H320 0.931 . S
C305 C304 1.391 . S
C305 C309 1.376 . S
C306 C304 1.394 . S
C306 C307 1.369 . S
C306 C310 1.531 . S
C307 C306 1.369 . S
C307 C308 1.410 . S
C307 C315 1.503 . S
C308 C307 1.410 . S
C308 C309 1.392 . S
C308 C311 1.511 . S
C309 C305 1.376 . S
C309 C308 1.392 . S
C309 H321 0.929 . S
C310 C306 1.531 . S
C310 H322 0.960 . S
C310 H323 0.962 . S
C310 H324 0.960 . S
C311 C308 1.511 . S
C311 H325 0.961 . S
C311 H326 0.961 . S
C311 H327 0.961 . S
C312 C313 1.370 . S
C312 C314 1.363 . S
C312 H328 0.931 . S
C313 C312 1.370 . S
C313 C317 1.408 . S
C314 C312 1.363 . S
C314 C315 1.370 . S
C314 C318 1.524 . S
C315 C307 1.503 . S
C315 C314 1.370 . S
C315 C316 1.403 . S
C316 C315 1.403 . S
C316 C317 1.404 . S
C316 C319 1.539 . S
C317 C313 1.408 . S
C317 C316 1.404 . S
C317 H329 0.930 . S
C318 C314 1.524 . S
C318 H330 0.956 . S
C318 H331 0.961 . S
C318 H332 0.961 . S
C319 C316 1.539 . S
C319 H333 0.958 . S
C319 H334 0.961 . S
C319 H335 0.960 . S
H320 C304 0.931 . S
H321 C309 0.929 . S
H322 C310 0.960 . S
H323 C310 0.962 . S
H324 C310 0.960 . S
H325 C311 0.961 . S
H326 C311 0.961 . S
H327 C311 0.961 . S
H328 C312 0.931 . S
H329 C317 0.930 . S
H330 C318 0.956 . S
H331 C318 0.961 . S
H332 C318 0.961 . S
H333 C319 0.958 . S
H334 C319 0.961 . S
H335 C319 0.960 . S
C336 C337 1.391 . S
C336 C338 1.394 . S
C336 H352 0.931 . S
C337 C336 1.391 . S
C337 C341 1.376 . S
C338 C336 1.394 . S
C338 C339 1.369 . S
C338 C342 1.531 . S
C339 C338 1.369 . S
C339 C340 1.410 . S
C339 C347 1.503 . S
C340 C339 1.410 . S
C340 C341 1.392 . S
C340 C343 1.511 . S
C341 C337 1.376 . S
C341 C340 1.392 . S
C341 H353 0.929 . S
C342 C338 1.531 . S
C342 H354 0.960 . S
C342 H355 0.962 . S
C342 H356 0.960 . S
C343 C340 1.511 . S
C343 H357 0.961 . S
C343 H358 0.961 . S
C343 H359 0.961 . S
C344 C345 1.370 . S
C344 C346 1.363 . S
C344 H360 0.931 . S
C345 C344 1.370 . S
C345 C349 1.408 . S
C346 C344 1.363 . S
C346 C347 1.370 . S
C346 C350 1.524 . S
C347 C339 1.503 . S
C347 C346 1.370 . S
C347 C348 1.403 . S
C348 C347 1.403 . S
C348 C349 1.404 . S
C348 C351 1.539 . S
C349 C345 1.408 . S
C349 C348 1.404 . S
C349 H361 0.930 . S
C350 C346 1.524 . S
C350 H362 0.956 . S
C350 H363 0.961 . S
C350 H364 0.961 . S
C351 C348 1.539 . S
C351 H365 0.958 . S
C351 H366 0.961 . S
C351 H367 0.960 . S
H352 C336 0.931 . S
H353 C341 0.929 . S
H354 C342 0.960 . S
H355 C342 0.962 . S
H356 C342 0.960 . S
H357 C343 0.961 . S
H358 C343 0.961 . S
H359 C343 0.961 . S
H360 C344 0.931 . S
H361 C349 0.930 . S
H362 C350 0.956 . S
H363 C350 0.961 . S
H364 C350 0.961 . S
H365 C351 0.958 . S
H366 C351 0.961 . S
H367 C351 0.960 . S
C368 C369 1.391 . S
C368 C370 1.394 . S
C368 H384 0.931 . S
C369 C368 1.391 . S
C369 C373 1.376 . S
C370 C368 1.394 . S
C370 C371 1.369 . S
C370 C374 1.531 . S
C371 C370 1.369 . S
C371 C372 1.410 . S
C371 C379 1.503 . S
C372 C371 1.410 . S
C372 C373 1.392 . S
C372 C375 1.511 . S
C373 C369 1.376 . S
C373 C372 1.392 . S
C373 H385 0.929 . S
C374 C370 1.531 . S
C374 H386 0.960 . S
C374 H387 0.962 . S
C374 H388 0.960 . S
C375 C372 1.511 . S
C375 H389 0.961 . S
C375 H390 0.961 . S
C375 H391 0.961 . S
C376 C377 1.370 . S
C376 C378 1.363 . S
C376 H392 0.931 . S
C377 C376 1.370 . S
C377 C381 1.408 . S
C378 C376 1.363 . S
C378 C379 1.370 . S
C378 C382 1.524 . S
C379 C371 1.503 . S
C379 C378 1.370 . S
C379 C380 1.403 . S
C380 C379 1.403 . S
C380 C381 1.404 . S
C380 C383 1.539 . S
C381 C377 1.408 . S
C381 C380 1.404 . S
C381 H393 0.930 . S
C382 C378 1.524 . S
C382 H394 0.956 . S
C382 H395 0.961 . S
C382 H396 0.961 . S
C383 C380 1.539 . S
C383 H397 0.958 . S
C383 H398 0.961 . S
C383 H399 0.960 . S
H384 C368 0.931 . S
H385 C373 0.929 . S
H386 C374 0.960 . S
H387 C374 0.962 . S
H388 C374 0.960 . S
H389 C375 0.961 . S
H390 C375 0.961 . S
H391 C375 0.961 . S
H392 C376 0.931 . S
H393 C381 0.930 . S
H394 C382 0.956 . S
H395 C382 0.961 . S
H396 C382 0.961 . S
H397 C383 0.958 . S
H398 C383 0.961 . S
H399 C383 0.960 . S
C400 C401 1.391 . S
C400 C402 1.394 . S
C400 H416 0.931 . S
C401 C400 1.391 . S
C401 C405 1.376 . S
C402 C400 1.394 . S
C402 C403 1.369 . S
C402 C406 1.531 . S
C403 C402 1.369 . S
C403 C404 1.410 . S
C403 C411 1.503 . S
C404 C403 1.410 . S
C404 C405 1.392 . S
C404 C407 1.511 . S
C405 C401 1.376 . S
C405 C404 1.392 . S
C405 H417 0.929 . S
C406 C402 1.531 . S
C406 H418 0.960 . S
C406 H419 0.962 . S
C406 H420 0.960 . S
C407 C404 1.511 . S
C407 H421 0.961 . S
C407 H422 0.961 . S
C407 H423 0.961 . S
C408 C409 1.370 . S
C408 C410 1.363 . S
C408 H424 0.931 . S
C409 C408 1.370 . S
C409 C413 1.408 . S
C410 C408 1.363 . S
C410 C411 1.370 . S
C410 C414 1.524 . S
C411 C403 1.503 . S
C411 C410 1.370 . S
C411 C412 1.403 . S
C412 C411 1.403 . S
C412 C413 1.404 . S
C412 C415 1.539 . S
C413 C409 1.408 . S
C413 C412 1.404 . S
C413 H425 0.930 . S
C414 C410 1.524 . S
C414 H426 0.956 . S
C414 H427 0.961 . S
C414 H428 0.961 . S
C415 C412 1.539 . S
C415 H429 0.958 . S
C415 H430 0.961 . S
C415 H431 0.960 . S
H416 C400 0.931 . S
H417 C405 0.929 . S
H418 C406 0.960 . S
H419 C406 0.962 . S
H420 C406 0.960 . S
H421 C407 0.961 . S
H422 C407 0.961 . S
H423 C407 0.961 . S
H424 C408 0.931 . S
H425 C413 0.930 . S
H426 C414 0.956 . S
H427 C414 0.961 . S
H428 C414 0.961 . S
H429 C415 0.958 . S
H430 C415 0.961 . S
H431 C415 0.960 . S
C432 C433 1.391 . S
C432 C434 1.394 . S
C432 H448 0.931 . S
C433 C432 1.391 . S
C433 C437 1.376 . S
C434 C432 1.394 . S
C434 C435 1.369 . S
C434 C438 1.531 . S
C435 C434 1.369 . S
C435 C436 1.410 . S
C435 C443 1.503 . S
C436 C435 1.410 . S
C436 C437 1.392 . S
C436 C439 1.511 . S
C437 C433 1.376 . S
C437 C436 1.392 . S
C437 H449 0.929 1_556 S
C438 C434 1.531 . S
C438 H450 0.960 . S
C438 H451 0.962 . S
C438 H452 0.960 . S
C439 C436 1.511 . S
C439 H453 0.961 1_556 S
C439 H454 0.961 . S
C439 H455 0.961 1_556 S
C440 C441 1.370 . S
C440 C442 1.363 . S
C440 H456 0.931 . S
C441 C440 1.370 . S
C441 C445 1.408 . S
C442 C440 1.363 . S
C442 C443 1.370 . S
C442 C446 1.524 . S
C443 C435 1.503 . S
C443 C442 1.370 . S
C443 C444 1.403 . S
C444 C443 1.403 . S
C444 C445 1.404 . S
C444 C447 1.539 . S
C445 C441 1.408 . S
C445 C444 1.404 . S
C445 H457 0.930 . S
C446 C442 1.524 . S
C446 H458 0.956 . S
C446 H459 0.961 . S
C446 H460 0.961 . S
C447 C444 1.539 . S
C447 H461 0.958 . S
C447 H462 0.961 . S
C447 H463 0.960 . S
H448 C432 0.931 . S
H449 C437 0.929 1_554 S
H450 C438 0.960 . S
H451 C438 0.962 . S
H452 C438 0.960 . S
H453 C439 0.961 1_554 S
H454 C439 0.961 . S
H455 C439 0.961 1_554 S
H456 C440 0.931 . S
H457 C445 0.930 . S
H458 C446 0.956 . S
H459 C446 0.961 . S
H460 C446 0.961 . S
H461 C447 0.958 . S
H462 C447 0.961 . S
H463 C447 0.960 . S
C464 C465 1.391 . S
C464 C466 1.394 . S
C464 H480 0.931 . S
C465 C464 1.391 . S
C465 C469 1.376 . S
C466 C464 1.394 . S
C466 C467 1.369 . S
C466 C470 1.531 . S
C467 C466 1.369 . S
C467 C468 1.410 . S
C467 C475 1.503 . S
C468 C467 1.410 . S
C468 C469 1.392 . S
C468 C471 1.511 . S
C469 C465 1.376 . S
C469 C468 1.392 . S
C469 H481 0.929 . S
C470 C466 1.531 . S
C470 H482 0.960 . S
C470 H483 0.962 . S
C470 H484 0.960 . S
C471 C468 1.511 . S
C471 H485 0.961 . S
C471 H486 0.961 . S
C471 H487 0.961 . S
C472 C473 1.370 . S
C472 C474 1.363 . S
C472 H488 0.931 . S
C473 C472 1.370 . S
C473 C477 1.408 . S
C474 C472 1.363 . S
C474 C475 1.370 . S
C474 C478 1.524 . S
C475 C467 1.503 . S
C475 C474 1.370 . S
C475 C476 1.403 . S
C476 C475 1.403 . S
C476 C477 1.404 . S
C476 C479 1.539 . S
C477 C473 1.408 . S
C477 C476 1.404 . S
C477 H489 0.930 . S
C478 C474 1.524 . S
C478 H490 0.956 . S
C478 H491 0.961 . S
C478 H492 0.961 . S
C479 C476 1.539 . S
C479 H493 0.958 . S
C479 H494 0.961 . S
C479 H495 0.960 . S
H480 C464 0.931 . S
H481 C469 0.929 . S
H482 C470 0.960 . S
H483 C470 0.962 . S
H484 C470 0.960 . S
H485 C471 0.961 . S
H486 C471 0.961 . S
H487 C471 0.961 . S
H488 C472 0.931 . S
H489 C477 0.930 . S
H490 C478 0.956 . S
H491 C478 0.961 . S
H492 C478 0.961 . S
H493 C479 0.958 . S
H494 C479 0.961 . S
H495 C479 0.960 . S
C496 C497 1.391 . S
C496 C498 1.394 . S
C496 H512 0.931 . S
C497 C496 1.391 . S
C497 C501 1.376 . S
C498 C496 1.394 . S
C498 C499 1.369 . S
C498 C502 1.531 . S
C499 C498 1.369 . S
C499 C500 1.410 . S
C499 C507 1.503 . S
C500 C499 1.410 . S
C500 C501 1.392 . S
C500 C503 1.511 1_556 S
C501 C497 1.376 . S
C501 C500 1.392 . S
C501 H513 0.929 1_556 S
C502 C498 1.531 . S
C502 H514 0.960 . S
C502 H515 0.962 . S
C502 H516 0.960 . S
C503 C500 1.511 1_554 S
C503 H517 0.961 . S
C503 H518 0.961 1_554 S
C503 H519 0.961 . S
C504 C505 1.370 . S
C504 C506 1.363 . S
C504 H520 0.931 . S
C505 C504 1.370 . S
C505 C509 1.408 . S
C506 C504 1.363 . S
C506 C507 1.370 . S
C506 C510 1.524 . S
C507 C499 1.503 . S
C507 C506 1.370 . S
C507 C508 1.403 . S
C508 C507 1.403 . S
C508 C509 1.404 . S
C508 C511 1.539 . S
C509 C505 1.408 . S
C509 C508 1.404 . S
C509 H521 0.930 . S
C510 C506 1.524 . S
C510 H522 0.956 . S
C510 H523 0.961 . S
C510 H524 0.961 . S
C511 C508 1.539 . S
C511 H525 0.958 . S
C511 H526 0.961 . S
C511 H527 0.960 . S
H512 C496 0.931 . S
H513 C501 0.929 1_554 S
H514 C502 0.960 . S
H515 C502 0.962 . S
H516 C502 0.960 . S
H517 C503 0.961 . S
H518 C503 0.961 1_556 S
H519 C503 0.961 . S
H520 C504 0.931 . S
H521 C509 0.930 . S
H522 C510 0.956 . S
H523 C510 0.961 . S
H524 C510 0.961 . S
H525 C511 0.958 . S
H526 C511 0.961 . S
H527 C511 0.960 . S
C528 C529 1.391 . S
C528 C530 1.394 . S
C528 H544 0.931 . S
C529 C528 1.391 . S
C529 C533 1.376 . S
C530 C528 1.394 . S
C530 C531 1.369 . S
C530 C534 1.531 . S
C531 C530 1.369 . S
C531 C532 1.410 . S
C531 C539 1.503 . S
C532 C531 1.410 . S
C532 C533 1.392 . S
C532 C535 1.511 . S
C533 C529 1.376 . S
C533 C532 1.392 . S
C533 H545 0.929 . S
C534 C530 1.531 . S
C534 H546 0.960 . S
C534 H547 0.962 . S
C534 H548 0.960 . S
C535 C532 1.511 . S
C535 H549 0.961 . S
C535 H550 0.961 . S
C535 H551 0.961 . S
C536 C537 1.370 . S
C536 C538 1.363 . S
C536 H552 0.931 . S
C537 C536 1.370 . S
C537 C541 1.408 . S
C538 C536 1.363 . S
C538 C539 1.370 . S
C538 C542 1.524 . S
C539 C531 1.503 . S
C539 C538 1.370 . S
C539 C540 1.403 . S
C540 C539 1.403 . S
C540 C541 1.404 . S
C540 C543 1.539 . S
C541 C537 1.408 . S
C541 C540 1.404 . S
C541 H553 0.930 . S
C542 C538 1.524 . S
C542 H554 0.956 . S
C542 H555 0.961 . S
C542 H556 0.961 . S
C543 C540 1.539 . S
C543 H557 0.958 . S
C543 H558 0.961 . S
C543 H559 0.960 . S
H544 C528 0.931 . S
H545 C533 0.929 . S
H546 C534 0.960 . S
H547 C534 0.962 . S
H548 C534 0.960 . S
H549 C535 0.961 . S
H550 C535 0.961 . S
H551 C535 0.961 . S
H552 C536 0.931 . S
H553 C541 0.930 . S
H554 C542 0.956 . S
H555 C542 0.961 . S
H556 C542 0.961 . S
H557 C543 0.958 . S
H558 C543 0.961 . S
H559 C543 0.960 . S
C560 C561 1.391 . S
C560 C562 1.394 . S
C560 H576 0.931 . S
C561 C560 1.391 . S
C561 C565 1.376 . S
C562 C560 1.394 . S
C562 C563 1.369 . S
C562 C566 1.531 . S
C563 C562 1.369 . S
C563 C564 1.410 . S
C563 C571 1.503 . S
C564 C563 1.410 . S
C564 C565 1.392 . S
C564 C567 1.511 . S
C565 C561 1.376 . S
C565 C564 1.392 . S
C565 H577 0.929 . S
C566 C562 1.531 . S
C566 H578 0.960 . S
C566 H579 0.962 . S
C566 H580 0.960 . S
C567 C564 1.511 . S
C567 H581 0.961 . S
C567 H582 0.961 . S
C567 H583 0.961 . S
C568 C569 1.370 . S
C568 C570 1.363 . S
C568 H584 0.931 . S
C569 C568 1.370 . S
C569 C573 1.408 . S
C570 C568 1.363 . S
C570 C571 1.370 . S
C570 C574 1.524 . S
C571 C563 1.503 . S
C571 C570 1.370 . S
C571 C572 1.403 . S
C572 C571 1.403 . S
C572 C573 1.404 . S
C572 C575 1.539 . S
C573 C569 1.408 . S
C573 C572 1.404 . S
C573 H585 0.930 . S
C574 C570 1.524 . S
C574 H586 0.956 . S
C574 H587 0.961 . S
C574 H588 0.961 . S
C575 C572 1.539 . S
C575 H589 0.958 1_556 S
C575 H590 0.961 . S
C575 H591 0.960 . S
H576 C560 0.931 . S
H577 C565 0.929 . S
H578 C566 0.960 . S
H579 C566 0.962 . S
H580 C566 0.960 . S
H581 C567 0.961 . S
H582 C567 0.961 . S
H583 C567 0.961 . S
H584 C568 0.931 . S
H585 C573 0.930 . S
H586 C574 0.956 . S
H587 C574 0.961 . S
H588 C574 0.961 . S
H589 C575 0.958 1_554 S
H590 C575 0.961 . S
H591 C575 0.960 . S
C592 C593 1.391 . S
C592 C594 1.394 . S
C592 H608 0.931 . S
C593 C592 1.391 . S
C593 C597 1.376 . S
C594 C592 1.394 . S
C594 C595 1.369 . S
C594 C598 1.531 . S
C595 C594 1.369 . S
C595 C596 1.410 . S
C595 C603 1.503 . S
C596 C595 1.410 . S
C596 C597 1.392 . S
C596 C599 1.511 . S
C597 C593 1.376 . S
C597 C596 1.392 . S
C597 H609 0.929 . S
C598 C594 1.531 . S
C598 H610 0.960 . S
C598 H611 0.962 . S
C598 H612 0.960 . S
C599 C596 1.511 . S
C599 H613 0.961 . S
C599 H614 0.961 . S
C599 H615 0.961 . S
C600 C601 1.370 . S
C600 C602 1.363 . S
C600 H616 0.931 . S
C601 C600 1.370 . S
C601 C605 1.408 . S
C602 C600 1.363 . S
C602 C603 1.370 . S
C602 C606 1.524 . S
C603 C595 1.503 . S
C603 C602 1.370 . S
C603 C604 1.403 . S
C604 C603 1.403 . S
C604 C605 1.404 . S
C604 C607 1.539 . S
C605 C601 1.408 . S
C605 C604 1.404 . S
C605 H617 0.930 . S
C606 C602 1.524 . S
C606 H618 0.956 . S
C606 H619 0.961 . S
C606 H620 0.961 . S
C607 C604 1.539 . S
C607 H621 0.958 . S
C607 H622 0.961 . S
C607 H623 0.960 . S
H608 C592 0.931 . S
H609 C597 0.929 . S
H610 C598 0.960 . S
H611 C598 0.962 . S
H612 C598 0.960 . S
H613 C599 0.961 . S
H614 C599 0.961 . S
H615 C599 0.961 . S
H616 C600 0.931 . S
H617 C605 0.930 . S
H618 C606 0.956 . S
H619 C606 0.961 . S
H620 C606 0.961 . S
H621 C607 0.958 . S
H622 C607 0.961 . S
H623 C607 0.960 . S
C624 C625 1.391 . S
C624 C626 1.394 . S
C624 H640 0.931 1_556 S
C625 C624 1.391 . S
C625 C629 1.376 . S
C626 C624 1.394 . S
C626 C627 1.369 . S
C626 C630 1.531 . S
C627 C626 1.369 . S
C627 C628 1.410 . S
C627 C635 1.503 . S
C628 C627 1.410 . S
C628 C629 1.392 . S
C628 C631 1.511 . S
C629 C625 1.376 . S
C629 C628 1.392 . S
C629 H641 0.929 . S
C630 C626 1.531 . S
C630 H642 0.960 . S
C630 H643 0.962 1_556 S
C630 H644 0.960 1_556 S
C631 C628 1.511 . S
C631 H645 0.961 . S
C631 H646 0.961 . S
C631 H647 0.961 . S
C632 C633 1.370 . S
C632 C634 1.363 . S
C632 H648 0.931 . S
C633 C632 1.370 . S
C633 C637 1.408 1_545 S
C634 C632 1.363 . S
C634 C635 1.370 1_545 S
C634 C638 1.524 . S
C635 C627 1.503 . S
C635 C634 1.370 1_565 S
C635 C636 1.403 . S
C636 C635 1.403 . S
C636 C637 1.404 . S
C636 C639 1.539 . S
C637 C633 1.408 1_565 S
C637 C636 1.404 . S
C637 H649 0.930 . S
C638 C634 1.524 . S
C638 H650 0.956 . S
C638 H651 0.961 . S
C638 H652 0.961 . S
C639 C636 1.539 . S
C639 H653 0.958 . S
C639 H654 0.961 . S
C639 H655 0.960 . S
H640 C624 0.931 1_554 S
H641 C629 0.929 . S
H642 C630 0.960 . S
H643 C630 0.962 1_554 S
H644 C630 0.960 1_554 S
H645 C631 0.961 . S
H646 C631 0.961 . S
H647 C631 0.961 . S
H648 C632 0.931 . S
H649 C637 0.930 . S
H650 C638 0.956 . S
H651 C638 0.961 . S
H652 C638 0.961 . S
H653 C639 0.958 . S
H654 C639 0.961 . S
H655 C639 0.960 . S
C656 C657 1.391 . S
C656 C658 1.394 . S
C656 H672 0.931 . S
C657 C656 1.391 . S
C657 C661 1.376 . S
C658 C656 1.394 . S
C658 C659 1.369 . S
C658 C662 1.531 . S
C659 C658 1.369 . S
C659 C660 1.410 . S
C659 C667 1.503 . S
C660 C659 1.410 . S
C660 C661 1.392 . S
C660 C663 1.511 . S
C661 C657 1.376 . S
C661 C660 1.392 . S
C661 H673 0.929 . S
C662 C658 1.531 . S
C662 H674 0.960 . S
C662 H675 0.962 . S
C662 H676 0.960 . S
C663 C660 1.511 . S
C663 H677 0.961 . S
C663 H678 0.961 . S
C663 H679 0.961 . S
C664 C665 1.370 . S
C664 C666 1.363 . S
C664 H680 0.931 . S
C665 C664 1.370 . S
C665 C669 1.408 1_565 S
C666 C664 1.363 . S
C666 C667 1.370 1_565 S
C666 C670 1.524 . S
C667 C659 1.503 . S
C667 C666 1.370 1_545 S
C667 C668 1.403 . S
C668 C667 1.403 . S
C668 C669 1.404 . S
C668 C671 1.539 . S
C669 C665 1.408 1_545 S
C669 C668 1.404 . S
C669 H681 0.930 . S
C670 C666 1.524 . S
C670 H682 0.956 . S
C670 H683 0.961 . S
C670 H684 0.961 . S
C671 C668 1.539 . S
C671 H685 0.958 . S
C671 H686 0.961 . S
C671 H687 0.960 . S
H672 C656 0.931 . S
H673 C661 0.929 . S
H674 C662 0.960 . S
H675 C662 0.962 . S
H676 C662 0.960 . S
H677 C663 0.961 . S
H678 C663 0.961 . S
H679 C663 0.961 . S
H680 C664 0.931 . S
H681 C669 0.930 . S
H682 C670 0.956 . S
H683 C670 0.961 . S
H684 C670 0.961 . S
H685 C671 0.958 . S
H686 C671 0.961 . S
H687 C671 0.960 . S
C688 C689 1.391 . S
C688 C690 1.394 . S
C688 H704 0.931 . S
C689 C688 1.391 . S
C689 C693 1.376 . S
C690 C688 1.394 . S
C690 C691 1.369 . S
C690 C694 1.531 1_565 S
C691 C690 1.369 . S
C691 C692 1.410 . S
C691 C699 1.503 . S
C692 C691 1.410 . S
C692 C693 1.392 . S
C692 C695 1.511 . S
C693 C689 1.376 . S
C693 C692 1.392 . S
C693 H705 0.929 . S
C694 C690 1.531 1_545 S
C694 H706 0.960 . S
C694 H707 0.962 . S
C694 H708 0.960 . S
C695 C692 1.511 . S
C695 H709 0.961 . S
C695 H710 0.961 . S
C695 H711 0.961 . S
C696 C697 1.370 . S
C696 C698 1.363 . S
C696 H712 0.931 . S
C697 C696 1.370 . S
C697 C701 1.408 . S
C698 C696 1.363 . S
C698 C699 1.370 1_545 S
C698 C702 1.524 1_545 S
C699 C691 1.503 . S
C699 C698 1.370 1_565 S
C699 C700 1.403 1_565 S
C700 C699 1.403 1_545 S
C700 C701 1.404 . S
C700 C703 1.539 1_545 S
C701 C697 1.408 . S
C701 C700 1.404 . S
C701 H713 0.930 . S
C702 C698 1.524 1_565 S
C702 H714 0.956 1_565 S
C702 H715 0.961 . S
C702 H716 0.964 . S
C703 C700 1.539 1_565 S
C703 H717 0.958 1_565 S
C703 H718 0.961 . S
C703 H719 0.960 . S
H704 C688 0.931 . S
H705 C693 0.929 . S
H706 C694 0.960 . S
H707 C694 0.962 . S
H708 C694 0.960 . S
H709 C695 0.961 . S
H710 C695 0.961 . S
H711 C695 0.961 . S
H712 C696 0.931 . S
H713 C701 0.930 . S
H714 C702 0.956 1_545 S
H715 C702 0.961 . S
H716 C702 0.964 . S
H717 C703 0.958 1_545 S
H718 C703 0.961 . S
H719 C703 0.960 . S
C720 C721 1.391 . S
C720 C722 1.394 . S
C720 H736 0.931 . S
C721 C720 1.391 . S
C721 C725 1.376 . S
C722 C720 1.394 . S
C722 C723 1.369 . S
C722 C726 1.531 1_545 S
C723 C722 1.369 . S
C723 C724 1.410 . S
C723 C731 1.503 . S
C724 C723 1.410 . S
C724 C725 1.392 . S
C724 C727 1.511 . S
C725 C721 1.376 . S
C725 C724 1.392 . S
C725 H737 0.929 . S
C726 C722 1.531 1_565 S
C726 H738 0.960 . S
C726 H739 0.962 1_565 S
C726 H740 0.960 . S
C727 C724 1.511 . S
C727 H741 0.961 . S
C727 H742 0.961 . S
C727 H743 0.961 . S
C728 C729 1.370 . S
C728 C730 1.363 1_565 S
C728 H744 0.931 1_565 S
C729 C728 1.370 . S
C729 C733 1.408 . S
C730 C728 1.363 1_545 S
C730 C731 1.370 . S
C730 C734 1.524 . S
C731 C723 1.503 . S
C731 C730 1.370 . S
C731 C732 1.403 1_545 S
C732 C731 1.403 1_565 S
C732 C733 1.404 . S
C732 C735 1.539 . S
C733 C729 1.408 . S
C733 C732 1.404 . S
C733 H745 0.930 . S
C734 C730 1.524 . S
C734 H746 0.956 . S
C734 H747 0.961 . S
C734 H748 0.961 . S
C735 C732 1.539 . S
C735 H749 0.958 . S
C735 H750 0.961 . S
C735 H751 0.960 . S
H736 C720 0.931 . S
H737 C725 0.929 . S
H738 C726 0.960 . S
H739 C726 0.962 1_545 S
H740 C726 0.960 . S
H741 C727 0.961 . S
H742 C727 0.961 . S
H743 C727 0.961 . S
H744 C728 0.931 1_545 S
H745 C733 0.930 . S
H746 C734 0.956 . S
H747 C734 0.961 . S
H748 C734 0.961 . S
H749 C735 0.958 . S
H750 C735 0.961 . S
H751 C735 0.960 . S
C752 C753 1.391 . S
C752 C754 1.394 . S
C752 H768 0.931 . S
C753 C752 1.391 . S
C753 C757 1.376 . S
C754 C752 1.394 . S
C754 C755 1.369 . S
C754 C758 1.531 . S
C755 C754 1.369 . S
C755 C756 1.410 . S
C755 C763 1.503 . S
C756 C755 1.410 . S
C756 C757 1.392 . S
C756 C759 1.511 . S
C757 C753 1.376 . S
C757 C756 1.392 . S
C757 H769 0.929 . S
C758 C754 1.531 . S
C758 H770 0.960 . S
C758 H771 0.962 . S
C758 H772 0.960 . S
C759 C756 1.511 . S
C759 H773 0.961 . S
C759 H774 0.961 . S
C759 H775 0.961 . S
C760 C761 1.370 . S
C760 C762 1.363 . S
C760 H776 0.931 . S
C761 C760 1.370 . S
C761 C765 1.408 . S
C762 C760 1.363 . S
C762 C763 1.370 . S
C762 C766 1.524 . S
C763 C755 1.503 . S
C763 C762 1.370 . S
C763 C764 1.403 . S
C764 C763 1.403 . S
C764 C765 1.404 . S
C764 C767 1.539 . S
C765 C761 1.408 . S
C765 C764 1.404 . S
C765 H777 0.930 . S
C766 C762 1.524 . S
C766 H778 0.956 . S
C766 H779 0.961 . S
C766 H780 0.961 . S
C767 C764 1.539 . S
C767 H781 0.958 . S
C767 H782 0.961 . S
C767 H783 0.960 . S
H768 C752 0.931 . S
H769 C757 0.929 . S
H770 C758 0.960 . S
H771 C758 0.962 . S
H772 C758 0.960 . S
H773 C759 0.961 . S
H774 C759 0.961 . S
H775 C759 0.961 . S
H776 C760 0.931 . S
H777 C765 0.930 . S
H778 C766 0.956 . S
H779 C766 0.961 . S
H780 C766 0.961 . S
H781 C767 0.958 . S
H782 C767 0.961 . S
H783 C767 0.960 . S
C784 C785 1.391 . S
C784 C786 1.394 . S
C784 H800 0.931 . S
C785 C784 1.391 . S
C785 C789 1.376 . S
C786 C784 1.394 . S
C786 C787 1.369 . S
C786 C790 1.531 . S
C787 C786 1.369 . S
C787 C788 1.410 . S
C787 C795 1.503 . S
C788 C787 1.410 . S
C788 C789 1.392 . S
C788 C791 1.511 . S
C789 C785 1.376 . S
C789 C788 1.392 . S
C789 H801 0.929 . S
C790 C786 1.531 . S
C790 H802 0.960 . S
C790 H803 0.962 . S
C790 H804 0.960 . S
C791 C788 1.511 . S
C791 H805 0.961 . S
C791 H806 0.961 . S
C791 H807 0.961 . S
C792 C793 1.370 . S
C792 C794 1.363 . S
C792 H808 0.931 . S
C793 C792 1.370 . S
C793 C797 1.408 . S
C794 C792 1.363 . S
C794 C795 1.370 . S
C794 C798 1.524 . S
C795 C787 1.503 . S
C795 C794 1.370 . S
C795 C796 1.403 . S
C796 C795 1.403 . S
C796 C797 1.404 . S
C796 C799 1.539 . S
C797 C793 1.408 . S
C797 C796 1.404 . S
C797 H809 0.930 . S
C798 C794 1.524 . S
C798 H810 0.956 . S
C798 H811 0.961 . S
C798 H812 0.961 . S
C799 C796 1.539 . S
C799 H813 0.958 . S
C799 H814 0.961 . S
C799 H815 0.960 . S
H800 C784 0.931 . S
H801 C789 0.929 . S
H802 C790 0.960 . S
H803 C790 0.962 . S
H804 C790 0.960 . S
H805 C791 0.961 . S
H806 C791 0.961 . S
H807 C791 0.961 . S
H808 C792 0.931 . S
H809 C797 0.930 . S
H810 C798 0.956 . S
H811 C798 0.961 . S
H812 C798 0.961 . S
H813 C799 0.958 . S
H814 C799 0.961 . S
H815 C799 0.960 . S
C816 C817 1.391 . S
C816 C818 1.394 . S
C816 H832 0.931 . S
C817 C816 1.391 . S
C817 C821 1.376 . S
C818 C816 1.394 . S
C818 C819 1.369 . S
C818 C822 1.531 . S
C819 C818 1.369 . S
C819 C820 1.410 . S
C819 C827 1.503 . S
C820 C819 1.410 . S
C820 C821 1.392 . S
C820 C823 1.511 . S
C821 C817 1.376 . S
C821 C820 1.392 . S
C821 H833 0.929 . S
C822 C818 1.531 . S
C822 H834 0.960 . S
C822 H835 0.962 . S
C822 H836 0.960 . S
C823 C820 1.511 . S
C823 H837 0.961 . S
C823 H838 0.961 . S
C823 H839 0.961 . S
C824 C825 1.370 . S
C824 C826 1.363 . S
C824 H840 0.931 . S
C825 C824 1.370 . S
C825 C829 1.408 . S
C826 C824 1.363 . S
C826 C827 1.370 . S
C826 C830 1.524 . S
C827 C819 1.503 . S
C827 C826 1.370 . S
C827 C828 1.403 . S
C828 C827 1.403 . S
C828 C829 1.404 . S
C828 C831 1.539 . S
C829 C825 1.408 . S
C829 C828 1.404 . S
C829 H841 0.930 . S
C830 C826 1.524 . S
C830 H842 0.956 . S
C830 H843 0.961 . S
C830 H844 0.961 . S
C831 C828 1.539 . S
C831 H845 0.958 . S
C831 H846 0.961 . S
C831 H847 0.960 . S
H832 C816 0.931 . S
H833 C821 0.929 . S
H834 C822 0.960 . S
H835 C822 0.962 . S
H836 C822 0.960 . S
H837 C823 0.961 . S
H838 C823 0.961 . S
H839 C823 0.961 . S
H840 C824 0.931 . S
H841 C829 0.930 . S
H842 C830 0.956 . S
H843 C830 0.961 . S
H844 C830 0.961 . S
H845 C831 0.958 . S
H846 C831 0.961 . S
H847 C831 0.960 . S
C848 C849 1.391 . S
C848 C850 1.394 . S
C848 H864 0.931 . S
C849 C848 1.391 . S
C849 C853 1.376 . S
C850 C848 1.394 . S
C850 C851 1.369 . S
C850 C854 1.531 . S
C851 C850 1.369 . S
C851 C852 1.410 . S
C851 C859 1.503 . S
C852 C851 1.410 . S
C852 C853 1.392 . S
C852 C855 1.511 . S
C853 C849 1.376 . S
C853 C852 1.392 . S
C853 H865 0.929 . S
C854 C850 1.531 . S
C854 H866 0.960 . S
C854 H867 0.962 . S
C854 H868 0.960 . S
C855 C852 1.511 . S
C855 H869 0.961 . S
C855 H870 0.961 . S
C855 H871 0.961 . S
C856 C857 1.370 . S
C856 C858 1.363 . S
C856 H872 0.931 . S
C857 C856 1.370 . S
C857 C861 1.408 . S
C858 C856 1.363 . S
C858 C859 1.370 . S
C858 C862 1.524 . S
C859 C851 1.503 . S
C859 C858 1.370 . S
C859 C860 1.403 . S
C860 C859 1.403 . S
C860 C861 1.404 . S
C860 C863 1.539 . S
C861 C857 1.408 . S
C861 C860 1.404 . S
C861 H873 0.930 . S
C862 C858 1.524 . S
C862 H874 0.956 . S
C862 H875 0.961 . S
C862 H876 0.961 . S
C863 C860 1.539 . S
C863 H877 0.958 . S
C863 H878 0.961 . S
C863 H879 0.960 . S
H864 C848 0.931 . S
H865 C853 0.929 . S
H866 C854 0.960 . S
H867 C854 0.962 . S
H868 C854 0.960 . S
H869 C855 0.961 . S
H870 C855 0.961 . S
H871 C855 0.961 . S
H872 C856 0.931 . S
H873 C861 0.930 . S
H874 C862 0.956 . S
H875 C862 0.961 . S
H876 C862 0.961 . S
H877 C863 0.958 . S
H878 C863 0.961 . S
H879 C863 0.960 . S
C880 C881 1.391 . S
C880 C882 1.394 . S
C880 H896 0.931 . S
C881 C880 1.391 . S
C881 C885 1.376 . S
C882 C880 1.394 . S
C882 C883 1.369 . S
C882 C886 1.531 . S
C883 C882 1.369 . S
C883 C884 1.410 . S
C883 C891 1.503 . S
C884 C883 1.410 . S
C884 C885 1.392 . S
C884 C887 1.511 . S
C885 C881 1.376 . S
C885 C884 1.392 . S
C885 H897 0.929 . S
C886 C882 1.531 . S
C886 H898 0.960 . S
C886 H899 0.962 . S
C886 H900 0.960 . S
C887 C884 1.511 . S
C887 H901 0.961 . S
C887 H902 0.961 . S
C887 H903 0.961 . S
C888 C889 1.370 . S
C888 C890 1.363 . S
C888 H904 0.931 . S
C889 C888 1.370 . S
C889 C893 1.408 . S
C890 C888 1.363 . S
C890 C891 1.370 . S
C890 C894 1.524 . S
C891 C883 1.503 . S
C891 C890 1.370 . S
C891 C892 1.403 . S
C892 C891 1.403 . S
C892 C893 1.404 . S
C892 C895 1.539 . S
C893 C889 1.408 . S
C893 C892 1.404 . S
C893 H905 0.930 . S
C894 C890 1.524 . S
C894 H906 0.956 . S
C894 H907 0.961 . S
C894 H908 0.961 . S
C895 C892 1.539 . S
C895 H909 0.958 . S
C895 H910 0.961 . S
C895 H911 0.960 . S
H896 C880 0.931 . S
H897 C885 0.929 . S
H898 C886 0.960 . S
H899 C886 0.962 . S
H900 C886 0.960 . S
H901 C887 0.961 . S
H902 C887 0.961 . S
H903 C887 0.961 . S
H904 C888 0.931 . S
H905 C893 0.930 . S
H906 C894 0.956 . S
H907 C894 0.961 . S
H908 C894 0.961 . S
H909 C895 0.958 . S
H910 C895 0.961 . S
H911 C895 0.960 . S
C912 C913 1.391 . S
C912 C914 1.394 . S
C912 H928 0.931 . S
C913 C912 1.391 . S
C913 C917 1.376 . S
C914 C912 1.394 . S
C914 C915 1.369 . S
C914 C918 1.531 . S
C915 C914 1.369 . S
C915 C916 1.410 . S
C915 C923 1.503 . S
C916 C915 1.410 . S
C916 C917 1.392 . S
C916 C919 1.511 . S
C917 C913 1.376 . S
C917 C916 1.392 . S
C917 H929 0.929 . S
C918 C914 1.531 . S
C918 H930 0.960 . S
C918 H931 0.962 . S
C918 H932 0.960 . S
C919 C916 1.511 . S
C919 H933 0.961 . S
C919 H934 0.961 . S
C919 H935 0.961 . S
C920 C921 1.370 . S
C920 C922 1.363 . S
C920 H936 0.931 . S
C921 C920 1.370 . S
C921 C925 1.408 . S
C922 C920 1.363 . S
C922 C923 1.370 . S
C922 C926 1.524 . S
C923 C915 1.503 . S
C923 C922 1.370 . S
C923 C924 1.403 . S
C924 C923 1.403 . S
C924 C925 1.404 . S
C924 C927 1.539 . S
C925 C921 1.408 . S
C925 C924 1.404 . S
C925 H937 0.930 . S
C926 C922 1.524 . S
C926 H938 0.956 . S
C926 H939 0.961 . S
C926 H940 0.961 . S
C927 C924 1.539 . S
C927 H941 0.958 . S
C927 H942 0.961 . S
C927 H943 0.960 . S
H928 C912 0.931 . S
H929 C917 0.929 . S
H930 C918 0.960 . S
H931 C918 0.962 . S
H932 C918 0.960 . S
H933 C919 0.961 . S
H934 C919 0.961 . S
H935 C919 0.961 . S
H936 C920 0.931 . S
H937 C925 0.930 . S
H938 C926 0.956 . S
H939 C926 0.961 . S
H940 C926 0.961 . S
H941 C927 0.958 . S
H942 C927 0.961 . S
H943 C927 0.960 . S
C944 C945 1.391 . S
C944 C946 1.394 . S
C944 H960 0.931 . S
C945 C944 1.391 . S
C945 C949 1.376 . S
C946 C944 1.394 . S
C946 C947 1.369 . S
C946 C950 1.531 . S
C947 C946 1.369 . S
C947 C948 1.410 . S
C947 C955 1.503 . S
C948 C947 1.410 . S
C948 C949 1.392 . S
C948 C951 1.511 . S
C949 C945 1.376 . S
C949 C948 1.392 . S
C949 H961 0.929 . S
C950 C946 1.531 . S
C950 H962 0.960 . S
C950 H963 0.962 . S
C950 H964 0.960 . S
C951 C948 1.511 . S
C951 H965 0.961 . S
C951 H966 0.961 . S
C951 H967 0.961 . S
C952 C953 1.370 . S
C952 C954 1.363 . S
C952 H968 0.931 . S
C953 C952 1.370 . S
C953 C957 1.408 . S
C954 C952 1.363 . S
C954 C955 1.370 . S
C954 C958 1.524 . S
C955 C947 1.503 . S
C955 C954 1.370 . S
C955 C956 1.403 . S
C956 C955 1.403 . S
C956 C957 1.404 . S
C956 C959 1.539 . S
C957 C953 1.408 . S
C957 C956 1.404 . S
C957 H969 0.930 . S
C958 C954 1.524 . S
C958 H970 0.956 . S
C958 H971 0.961 . S
C958 H972 0.961 . S
C959 C956 1.539 . S
C959 H973 0.958 . S
C959 H974 0.961 . S
C959 H975 0.960 . S
H960 C944 0.931 . S
H961 C949 0.929 . S
H962 C950 0.960 . S
H963 C950 0.962 . S
H964 C950 0.960 . S
H965 C951 0.961 . S
H966 C951 0.961 . S
H967 C951 0.961 . S
H968 C952 0.931 . S
H969 C957 0.930 . S
H970 C958 0.956 . S
H971 C958 0.961 . S
H972 C958 0.961 . S
H973 C959 0.958 . S
H974 C959 0.961 . S
H975 C959 0.960 . S
C976 C977 1.391 . S
C976 C978 1.394 . S
C976 H992 0.931 . S
C977 C976 1.391 . S
C977 C981 1.376 . S
C978 C976 1.394 . S
C978 C979 1.369 . S
C978 C982 1.531 . S
C979 C978 1.369 . S
C979 C980 1.410 . S
C979 C987 1.503 . S
C980 C979 1.410 . S
C980 C981 1.392 . S
C980 C983 1.511 . S
C981 C977 1.376 . S
C981 C980 1.392 . S
C981 H993 0.929 . S
C982 C978 1.531 . S
C982 H994 0.960 . S
C982 H995 0.962 . S
C982 H996 0.960 . S
C983 C980 1.511 . S
C983 H997 0.961 . S
C983 H998 0.961 . S
C983 H999 0.961 . S
C984 C985 1.370 . S
C984 C986 1.363 . S
C984 H1000 0.931 . S
C985 C984 1.370 . S
C985 C989 1.408 . S
C986 C984 1.363 . S
C986 C987 1.370 . S
C986 C990 1.524 . S
C987 C979 1.503 . S
C987 C986 1.370 . S
C987 C988 1.403 . S
C988 C987 1.403 . S
C988 C989 1.404 . S
C988 C991 1.539 . S
C989 C985 1.408 . S
C989 C988 1.404 . S
C989 H1001 0.930 . S
C990 C986 1.524 . S
C990 H1002 0.956 . S
C990 H1003 0.961 . S
C990 H1004 0.961 . S
C991 C988 1.539 . S
C991 H1005 0.958 . S
C991 H1006 0.961 . S
C991 H1007 0.960 . S
H992 C976 0.931 . S
H993 C981 0.929 . S
H994 C982 0.960 . S
H995 C982 0.962 . S
H996 C982 0.960 . S
H997 C983 0.961 . S
H998 C983 0.961 . S
H999 C983 0.961 . S
H1000 C984 0.931 . S
H1001 C989 0.930 . S
H1002 C990 0.956 . S
H1003 C990 0.961 . S
H1004 C990 0.961 . S
H1005 C991 0.958 . S
H1006 C991 0.961 . S
H1007 C991 0.960 . S
C241 C11 1.466 . S
C249 C195 1.550 . S
C281 C159 1.550 . S
C273 C30 1.466 . S
C313 C182 1.563 . S
C305 C49 1.379 . S
C345 C170 1.567 . S
C337 C68 1.333 . S
C377 C239 1.558 . S
C369 C87 1.441 . S
C409 C203 1.552 . S
C401 C106 1.436 . S
C433 C125 1.424 . S
C441 C226 1.561 . S
C473 C214 1.566 . S
C465 C144 1.344 . S
C497 C2 1.576 . S
C505 C236 1.595 . S
C537 C206 1.596 . S
C529 C21 1.566 . S
C561 C40 1.557 . S
C569 C225 1.613 . S
C593 C59 1.588 . S
C601 C211 1.618 . S
C633 C192 1.596 . S
C625 C78 1.555 . S
C657 C97 1.539 . S
C665 C162 1.595 . S
C697 C181 1.619 . S
C689 C116 1.595 . S
C729 C167 1.619 . S
C721 C135 1.590 . S
C761 C217 1.569 . S
C753 C6 1.566 . S
C793 C233 1.573 . S
C785 C25 1.573 . S
C817 C44 1.540 . S
C825 C204 1.543 . S
C857 C228 1.541 . S
C849 C63 1.531 . S
C889 C173 1.567 . S
C881 C82 1.565 . S
C913 C101 1.563 . S
C921 C189 1.566 . S
C945 C120 1.530 . S
C953 C160 1.542 . S
C977 C139 1.512 . S
C985 C184 1.539 . S
