# Generated by pormake.
# Topology pyr, (3,6)-cn, num edge types: 1
# Building blocks:
#     Node 0, Type 0, BuildingBlock: BETDIP_clean_linker_0, # of connection points: 3
#     Node 1, Type 0, BuildingBlock: BETDIP_clean_linker_0, # of connection points: 3
#     Node 2, Type 0, BuildingBlock: BETDIP_clean_linker_0, # of connection points: 3
#     Node 3, Type 0, BuildingBlock: BETDIP_clean_linker_0, # of connection points: 3
#     Node 4, Type 0, BuildingBlock: BETDIP_clean_linker_0, # of connection points: 3
#     Node 5, Type 0, BuildingBlock: BETDIP_clean_linker_0, # of connection points: 3
#     Node 6, Type 0, BuildingBlock: BETDIP_clean_linker_0, # of connection points: 3
#     Node 7, Type 0, BuildingBlock: BETDIP_clean_linker_0, # of connection points: 3
#     Node 8, Type 1, BuildingBlock: CIFDUS_clean_sbu_1, # of connection points: 6
#     Node 9, Type 1, BuildingBlock: CIFDUS_clean_sbu_1, # of connection points: 6
#     Node 10, Type 1, BuildingBlock: CIFDUS_clean_sbu_1, # of connection points: 6
#     Node 11, Type 1, BuildingBlock: CIFDUS_clean_sbu_1, # of connection points: 6
#     Edge 12, Type (0, 1), BuildingBlock: OJICUG_clean_linker_0, # of connection points: 2
#     Edge 13, Type (0, 1), BuildingBlock: OJICUG_clean_linker_0, # of connection points: 2
#     Edge 14, Type (0, 1), BuildingBlock: OJICUG_clean_linker_0, # of connection points: 2
#     Edge 15, Type (0, 1), BuildingBlock: OJICUG_clean_linker_0, # of connection points: 2
#     Edge 16, Type (0, 1), BuildingBlock: OJICUG_clean_linker_0, # of connection points: 2
#     Edge 17, Type (0, 1), BuildingBlock: OJICUG_clean_linker_0, # of connection points: 2
#     Edge 18, Type (0, 1), BuildingBlock: OJICUG_clean_linker_0, # of connection points: 2
#     Edge 19, Type (0, 1), BuildingBlock: OJICUG_clean_linker_0, # of connection points: 2
#     Edge 20, Type (0, 1), BuildingBlock: OJICUG_clean_linker_0, # of connection points: 2
#     Edge 21, Type (0, 1), BuildingBlock: OJICUG_clean_linker_0, # of connection points: 2
#     Edge 22, Type (0, 1), BuildingBlock: OJICUG_clean_linker_0, # of connection points: 2
#     Edge 23, Type (0, 1), BuildingBlock: OJICUG_clean_linker_0, # of connection points: 2
#     Edge 24, Type (0, 1), BuildingBlock: OJICUG_clean_linker_0, # of connection points: 2
#     Edge 25, Type (0, 1), BuildingBlock: OJICUG_clean_linker_0, # of connection points: 2
#     Edge 26, Type (0, 1), BuildingBlock: OJICUG_clean_linker_0, # of connection points: 2
#     Edge 27, Type (0, 1), BuildingBlock: OJICUG_clean_linker_0, # of connection points: 2
#     Edge 28, Type (0, 1), BuildingBlock: OJICUG_clean_linker_0, # of connection points: 2
#     Edge 29, Type (0, 1), BuildingBlock: OJICUG_clean_linker_0, # of connection points: 2
#     Edge 30, Type (0, 1), BuildingBlock: OJICUG_clean_linker_0, # of connection points: 2
#     Edge 31, Type (0, 1), BuildingBlock: OJICUG_clean_linker_0, # of connection points: 2
#     Edge 32, Type (0, 1), BuildingBlock: OJICUG_clean_linker_0, # of connection points: 2
#     Edge 33, Type (0, 1), BuildingBlock: OJICUG_clean_linker_0, # of connection points: 2
#     Edge 34, Type (0, 1), BuildingBlock: OJICUG_clean_linker_0, # of connection points: 2
#     Edge 35, Type (0, 1), BuildingBlock: OJICUG_clean_linker_0, # of connection points: 2
# Relax obj value: 0.086
# Max RMSD: 0.170
# Mean RMSD: 0.134
data_MOF--net-pry--node1-CIFDUS_clean_sbu_1--node2-BETDIP_clean_linker_0--edge1-OJICUG_clean_linker_0
_symmetry_space_group_name_H-M    P1
_symmetry_Int_Tables_number       1
_symmetry_cell_setting            triclinic
loop_
_symmetry_equiv_pos_as_xyz
'x, y, z'
_cell_length_a     26.687623
_cell_length_b     24.999889
_cell_length_c     25.302733
_cell_angle_alpha  94.834943
_cell_angle_beta   87.137645
_cell_angle_gamma 99.232245
loop_
_atom_site_label
_atom_site_type_symbol
_atom_site_fract_x
_atom_site_fract_y
_atom_site_fract_z
_atom_type_partial_charge
H0 H 0.09393 0.16259 0.22363 0.0
H1 H 0.19793 0.15867 0.08941 0.0
H2 H 0.22611 0.08463 0.23014 0.0
H3 H 0.16765 0.22911 0.06615 0.0
C4 C 0.13033 0.22998 0.08489 0.0
C5 C 0.12869 0.15105 0.20555 0.0
C6 C 0.15751 0.12063 0.23306 0.0
C7 C 0.1437 0.16635 0.15441 0.0
C8 C 0.18751 0.14965 0.12986 0.0
C9 C 0.21842 0.1212 0.15703 0.0
C10 C 0.20266 0.10618 0.20852 0.0
N11 N 0.11424 0.19922 0.12947 0.0
H12 H 0.36519 0.96868 0.70633 0.0
H13 H 0.36831 0.82566 0.59969 0.0
H14 H 0.47348 0.86377 0.72678 0.0
H15 H 0.28283 0.84041 0.58878 0.0
C16 C 0.28549 0.88435 0.59204 0.0
C17 C 0.38212 0.93293 0.6934 0.0
C18 C 0.42095 0.9194 0.72234 0.0
C19 C 0.36361 0.90003 0.64876 0.0
C20 C 0.38376 0.85202 0.63306 0.0
C21 C 0.42341 0.83791 0.66144 0.0
C22 C 0.4428 0.8734 0.70468 0.0
N23 N 0.32469 0.91739 0.62133 0.0
H24 H 0.78573 0.38422 0.78421 0.0
H25 H 0.66003 0.25442 0.78184 0.0
H26 H 0.74667 0.29556 0.92299 0.0
H27 H 0.64372 0.28185 0.70214 0.0
C28 C 0.66372 0.32318 0.70141 0.0
C29 C 0.76237 0.35208 0.80448 0.0
C30 C 0.77171 0.34397 0.8572 0.0
C31 C 0.72157 0.32148 0.77775 0.0
C32 C 0.69118 0.2788 0.80267 0.0
C33 C 0.70043 0.26796 0.85493 0.0
C34 C 0.74091 0.30111 0.88188 0.0
N35 N 0.70992 0.33905 0.72831 0.0
H36 H 0.77404 0.61106 0.36485 0.0
H37 H 0.91172 0.72511 0.374 0.0
H38 H 0.83294 0.67088 0.51755 0.0
H39 H 0.90637 0.72652 0.28547 0.0
C40 C 0.88061 0.69058 0.2715 0.0
C41 C 0.80333 0.63533 0.38871 0.0
C42 C 0.79949 0.63588 0.4442 0.0
C43 C 0.84331 0.66699 0.36303 0.0
C44 C 0.88104 0.69943 0.39343 0.0
C45 C 0.87756 0.70115 0.44954 0.0
C46 C 0.83653 0.66915 0.4746 0.0
N47 N 0.84359 0.66377 0.30666 0.0
H48 H 0.80308 0.88442 0.97954 0.0
H49 H 0.91533 0.87056 0.85402 0.0
H50 H 0.8002 0.97071 0.83974 0.0
H51 H 0.96261 0.86785 0.9342 0.0
C52 C 0.93567 0.83649 0.95205 0.0
C53 C 0.81911 0.89597 0.94119 0.0
C54 C 0.7969 0.93161 0.91289 0.0
C55 C 0.862 0.87459 0.92071 0.0
C56 C 0.88228 0.88737 0.86997 0.0
C57 C 0.86001 0.92179 0.83991 0.0
C58 C 0.81745 0.94385 0.8621 0.0
N59 N 0.88288 0.83891 0.95137 0.0
H60 H 0.6532 0.08582 0.37722 0.0
H61 H 0.63634 0.19708 0.51393 0.0
H62 H 0.55405 0.20394 0.37255 0.0
H63 H 0.73101 0.18592 0.51143 0.0
C64 C 0.72817 0.14264 0.50029 0.0
C65 C 0.63521 0.11842 0.39689 0.0
C66 C 0.60161 0.14224 0.36932 0.0
C67 C 0.64902 0.13905 0.44823 0.0
C68 C 0.62651 0.18221 0.47375 0.0
C69 C 0.59007 0.20465 0.44754 0.0
C70 C 0.57914 0.18496 0.3948 0.0
N71 N 0.68542 0.11457 0.47262 0.0
H72 H 0.26286 0.66201 0.28123 0.0
H73 H 0.38549 0.79518 0.29499 0.0
H74 H 0.29774 0.76687 0.15373 0.0
H75 H 0.40801 0.75324 0.36431 0.0
C76 C 0.38123 0.7166 0.37043 0.0
C77 C 0.28543 0.69681 0.26419 0.0
C78 C 0.27525 0.71036 0.21346 0.0
C79 C 0.32559 0.72573 0.29314 0.0
C80 C 0.35483 0.77198 0.27251 0.0
C81 C 0.34419 0.78847 0.22257 0.0
C82 C 0.30439 0.75687 0.19333 0.0
N83 N 0.33617 0.7041 0.34106 0.0
H84 H 0.07146 0.28356 0.69825 0.0
H85 H 0.20728 0.39063 0.74118 0.0
H86 H 0.17061 0.35952 0.57673 0.0
H87 H 0.19896 0.33855 0.81377 0.0
C88 C 0.15902 0.34123 0.82176 0.0
C89 C 0.1046 0.31167 0.68644 0.0
C90 C 0.1163 0.31921 0.63227 0.0
C91 C 0.13733 0.33664 0.72579 0.0
C92 C 0.18153 0.37132 0.71105 0.0
C93 C 0.19381 0.37996 0.65742 0.0
C94 C 0.16087 0.35397 0.61822 0.0
N95 N 0.12472 0.32641 0.77978 0.0
O96 O 0.94409 0.04858 0.52127 0.0
Mn97 Mn 0.00884 0.01282 0.53322 0.0
O98 O 0.90693 1.00265 0.44949 0.0
Mn99 Mn 0.95878 0.9634 0.4297 0.0
O100 O 0.0734 0.97684 0.5455 0.0
O101 O 0.03701 0.08017 0.57634 0.0
Mn102 Mn 0.06236 0.06543 0.63517 0.0
O103 O 0.97016 0.98032 0.60198 0.0
O104 O 0.11421 0.02709 0.61317 0.0
O105 O 0.04839 0.04651 0.46554 0.0
O106 O 0.01463 0.99764 0.39353 0.0
O107 O 0.07216 0.14012 0.63558 0.0
O108 O 0.00797 0.02948 0.67232 0.0
C109 C 0.96567 0.89535 0.47202 0.0
C110 C 0.90726 0.03784 0.48902 0.0
C111 C 0.11172 0.98947 0.57571 0.0
C112 C 0.05034 0.13078 0.59045 0.0
C113 C 0.97317 0.99367 0.65243 0.0
C114 C 0.04813 0.03363 0.41503 0.0
O115 O 0.98066 0.9451 0.48929 0.0
O116 O 0.94604 0.88911 0.4257 0.0
O117 O 0.48932 0.02148 0.96523 0.0
Mn118 Mn 0.51525 0.04001 0.04318 0.0
O119 O 0.47673 0.93085 0.9501 0.0
Mn120 Mn 0.51033 0.92078 1.00939 0.0
O121 O 0.54176 0.06085 0.12107 0.0
O122 O 0.54055 0.11698 1.02116 0.0
Mn123 Mn 0.51805 0.16126 0.07141 0.0
O124 O 0.44225 0.05792 0.06844 0.0
O125 O 0.54829 0.15191 0.13288 0.0
O126 O 0.58772 0.02242 1.01731 0.0
O127 O 0.57996 0.93197 1.00097 0.0
O128 O 0.5522 0.20651 1.02469 0.0
O129 O 0.44844 0.14864 0.07336 0.0
C130 C 0.47237 0.91475 0.08331 0.0
C131 C 0.47446 0.97783 0.93592 0.0
C132 C 0.55401 0.10644 0.14889 0.0
C133 C 0.56087 0.1614 0.99957 0.0
C134 C 0.42222 0.10173 0.07559 0.0
C135 C 0.60651 0.9789 1.00319 0.0
O136 O 0.49031 0.96189 0.06486 0.0
O137 O 0.48029 0.87169 0.05388 0.0
O138 O 0.57395 0.5434 0.5394 0.0
Mn139 Mn 0.49961 0.51498 0.56208 0.0
O140 O 0.57947 0.5116 0.45333 0.0
Mn141 Mn 0.51104 0.48441 0.44344 0.0
O142 O 0.42479 0.48577 0.58436 0.0
O143 O 0.52187 0.50451 0.63425 0.0
Mn144 Mn 0.48569 0.53426 0.68458 0.0
O145 O 0.48649 0.59567 0.58544 0.0
O146 O 0.41922 0.50095 0.67367 0.0
O147 O 0.51357 0.43455 0.54176 0.0
O148 O 0.49237 0.41276 0.4579 0.0
O149 O 0.53128 0.5008 0.71804 0.0
O150 O 0.49725 0.60694 0.67348 0.0
C151 C 0.45907 0.54121 0.44708 0.0
C152 C 0.59933 0.53572 0.49572 0.0
C153 C 0.39961 0.48412 0.62902 0.0
C154 C 0.54549 0.48605 0.67017 0.0
C155 C 0.48918 0.62554 0.62986 0.0
C156 C 0.50485 0.39929 0.502 0.0
O157 O 0.47769 0.52523 0.48842 0.0
O158 O 0.4727 0.51799 0.4022 0.0
O159 O 0.95867 0.49098 0.9935 0.0
Mn160 Mn 0.0234 0.53139 0.03175 0.0
O161 O 0.96517 0.52122 0.91132 0.0
Mn162 Mn 0.02916 0.56463 0.91549 0.0
O163 O 0.08826 0.57165 0.0702 0.0
O164 O 0.9862 0.5283 0.10226 0.0
Mn165 Mn 0.01827 0.49611 0.14621 0.0
O166 O 0.04664 0.45466 0.03775 0.0
O167 O 0.08235 0.53882 0.15123 0.0
O168 O 1.00031 0.6081 1.02486 0.0
O169 O 0.03011 0.63447 0.94478 0.0
O170 O 0.9637 0.51832 0.18454 0.0
O171 O 0.01653 0.42642 0.1166 0.0
C172 C 0.09039 0.51965 0.92392 0.0
C173 C 0.94182 0.49182 0.94679 0.0
C174 C 0.10548 0.56926 0.1165 0.0
C175 C 0.95614 0.53983 0.14146 0.0
C176 C 0.03626 0.41734 0.07069 0.0
C177 C 0.0106 0.64438 0.99074 0.0
O178 O 0.0606 0.53485 0.96165 0.0
O179 O 0.0842 0.53951 0.87958 0.0
C180 C 0.13844 0.04763 0.29676 0.0
C181 C 0.13872 0.10193 0.28614 0.0
H182 H 0.10987 0.9839 0.34694 0.0
C183 C 0.11624 0.13615 0.32435 0.0
H184 H 0.155 0.02004 0.26826 0.0
C185 C 0.09093 0.11546 0.37014 0.0
C186 C 0.08733 0.06012 0.37819 0.0
H187 H 0.11633 0.1784 0.3177 0.0
H188 H 0.07101 0.14166 0.39699 0.0
C189 C 0.1127 0.02693 0.34196 0.0
C190 C 0.39655 0.9538 0.81444 0.0
C191 C 0.43462 0.94854 0.77464 0.0
H192 H 0.37961 0.968 0.89792 0.0
C193 C 0.48577 0.96352 0.78783 0.0
H194 H 0.35683 0.94186 0.80558 0.0
C195 C 0.49861 0.97948 0.84043 0.0
C196 C 0.4606 0.98038 0.88075 0.0
H197 H 0.51584 0.95983 0.75801 0.0
H198 H 0.53833 0.98687 0.85024 0.0
C199 C 0.40947 0.96897 0.86722 0.0
C200 C 0.58943 0.35079 0.65987 0.0
C201 C 0.63798 0.3652 0.68079 0.0
H202 H 0.52192 0.37902 0.63818 0.0
C203 C 0.65905 0.42056 0.68736 0.0
H204 H 0.57237 0.30847 0.65425 0.0
C205 C 0.63029 0.46064 0.67799 0.0
C206 C 0.58048 0.44622 0.66083 0.0
H207 H 0.69644 0.43321 0.70315 0.0
H208 H 0.6457 0.50293 0.68776 0.0
C209 C 0.56081 0.39107 0.65005 0.0
C210 C 0.85963 0.6137 0.20242 0.0
C211 C 0.89174 0.6615 0.21991 0.0
H212 H 0.85532 0.53612 0.15885 0.0
C213 C 0.93873 0.67539 0.19306 0.0
H214 H 0.82249 0.60254 0.22121 0.0
C215 C 0.95676 0.63773 0.1557 0.0
C216 C 0.9282 0.58581 0.14588 0.0
H217 H 0.96383 0.71242 0.2052 0.0
H218 H 0.99594 0.646 0.14121 0.0
C219 C 0.87791 0.57598 0.16569 0.0
C220 C 0.2972 0.15199 0.1029 0.0
C221 C 0.26884 0.11179 0.13263 0.0
H222 H 0.3659 0.17899 0.06015 0.0
C223 C 0.29001 0.06469 0.13957 0.0
H224 H 0.28321 0.1894 0.09743 0.0
C225 C 0.33895 0.05905 0.11845 0.0
C226 C 0.36746 0.1005 0.09024 0.0
H227 H 0.26912 0.03262 0.16183 0.0
H228 H 0.35519 0.02358 0.12612 0.0
C229 C 0.34524 0.14619 0.08172 0.0
C230 C 0.19434 0.87856 0.56677 0.0
C231 C 0.24207 0.90982 0.5773 0.0
H232 H 0.11461 0.87941 0.55713 0.0
C233 C 0.24707 0.96668 0.57872 0.0
H234 H 0.18956 0.83461 0.5652 0.0
C235 C 0.20475 0.99189 0.57434 0.0
C236 C 0.15633 0.96105 0.56789 0.0
H237 H 0.28336 0.99209 0.58564 0.0
H238 H 0.20957 0.03591 0.57841 0.0
C239 C 0.1516 0.90407 0.56194 0.0
C240 C 0.82054 0.43808 0.87602 0.0
C241 C 0.81188 0.38272 0.88627 0.0
H242 H 0.86815 0.51539 0.88686 0.0
C243 C 0.8433 0.36516 0.92229 0.0
H244 H 0.79619 0.454 0.85032 0.0
C245 C 0.88396 0.40139 0.94484 0.0
C246 C 0.89431 0.45562 0.93127 0.0
H247 H 0.83789 0.32301 0.93131 0.0
H248 H 0.90888 0.38627 0.97054 0.0
C249 C 0.86152 0.47369 0.89751 0.0
C250 C 0.73559 0.55217 0.44789 0.0
C251 C 0.75373 0.60509 0.46891 0.0
H252 H 0.67186 0.48879 0.44004 0.0
C253 C 0.72338 0.63128 0.50646 0.0
H254 H 0.75868 0.53079 0.41961 0.0
C255 C 0.67368 0.6069 0.51864 0.0
C256 C 0.65396 0.55654 0.49286 0.0
H257 H 0.73654 0.67219 0.52311 0.0
H258 H 0.64961 0.62918 0.5449 0.0
C259 C 0.68597 0.5283 0.45939 0.0
C260 C 0.05243 0.27461 0.09246 0.0
C261 C 0.10169 0.27276 0.07119 0.0
H262 H 0.99221 0.32146 0.10684 0.0
C263 C 0.12516 0.31474 0.04031 0.0
H264 H 0.03289 0.24244 0.11552 0.0
C265 C 0.10171 0.36037 0.03522 0.0
C266 C 0.05433 0.3643 0.06071 0.0
H267 H 0.16304 0.31397 1.02305 0.0
H268 H 0.12244 0.3942 1.01518 0.0
C269 C 0.02898 0.31978 0.08712 0.0
C270 C 0.68135 0.19674 0.92217 0.0
C271 C 0.66447 0.22639 0.88336 0.0
H272 H 0.6604 0.14906 0.98899 0.0
C273 C 0.61185 0.22 0.87564 0.0
H274 H 0.72152 0.19961 0.92867 0.0
C275 C 0.57717 0.18964 0.90913 0.0
C276 C 0.59396 0.16497 0.9513 0.0
H277 H 0.59687 0.24231 0.84683 0.0
H278 H 0.537 0.19058 0.9057 0.0
C279 C 0.64638 0.16645 0.95591 0.0
C280 C 0.96367 0.75507 0.46489 0.0
C281 C 0.91222 0.74293 0.48088 0.0
H282 H 0.02658 0.81853 0.4559 0.0
C283 C 0.89163 0.77944 0.51795 0.0
H284 H 0.98112 0.72686 0.43787 0.0
C285 C 0.91847 0.83162 0.52928 0.0
C286 C 0.9646 0.84766 0.50175 0.0
H287 H 0.85238 0.77091 0.53202 0.0
H288 H 0.89848 0.86195 0.55027 0.0
C289 C 0.99021 0.80728 0.47632 0.0
C290 C 0.44609 0.7586 0.59892 0.0
C291 C 0.44181 0.78428 0.6505 0.0
H292 H 0.46483 0.68836 0.5513 0.0
C293 C 0.45477 0.7577 0.69339 0.0
H294 H 0.43649 0.77772 0.56477 0.0
C295 C 0.4724 0.70826 0.68549 0.0
C296 C 0.47625 0.68179 0.63442 0.0
H297 H 0.45024 0.7743 0.73395 0.0
H298 H 0.48136 0.69002 0.72048 0.0
C299 C 0.46292 0.70765 0.59102 0.0
C300 C 0.90336 0.8995 0.75059 0.0
C301 C 0.88251 0.93705 0.78669 0.0
H302 H 0.94743 0.88744 0.67796 0.0
C303 C 0.88549 0.99075 0.77266 0.0
H304 H 0.9012 0.8576 0.75963 0.0
C305 C 0.91089 0.00719 0.72577 0.0
C306 C 0.93406 0.97062 0.69128 0.0
H307 H 0.87076 0.02118 0.79935 0.0
H308 H 0.91519 0.04971 0.71801 0.0
C309 C 0.92895 0.91616 0.70327 0.0
C310 C 0.61289 0.16743 0.27653 0.0
C311 C 0.59488 0.128 0.31186 0.0
H312 H 0.61591 0.19029 0.19718 0.0
C313 C 0.56898 0.0773 0.29203 0.0
H314 H 0.63363 0.20643 0.29081 0.0
C315 C 0.55824 0.06784 0.23777 0.0
C316 C 0.57366 0.10899 0.20305 0.0
H317 H 0.55507 0.04618 0.3188 0.0
H318 H 0.53558 0.02987 0.22375 0.0
C319 C 0.60277 0.15795 0.22288 0.0
C320 C 0.44378 0.68358 0.42597 0.0
C321 C 0.39614 0.67482 0.40265 0.0
H322 H 0.50077 0.6473 0.46073 0.0
C323 C 0.36539 0.62375 0.40567 0.0
H324 H 0.46827 0.72246 0.42436 0.0
C325 C 0.38386 0.58108 0.42693 0.0
C326 C 0.43293 0.58876 0.44657 0.0
H327 H 0.32836 0.61546 0.38842 0.0
H328 H 0.36128 0.54092 0.42419 0.0
C329 C 0.4621 0.64083 0.44753 0.0
C330 C 0.09579 0.37593 0.88608 0.0
C331 C 0.14579 0.3801 0.86516 0.0
H332 H 0.03942 0.41832 0.9258 0.0
C333 C 0.18075 0.42688 0.87863 0.0
H334 H 0.06834 0.33999 0.87634 0.0
C335 C 0.16404 0.47196 0.90623 0.0
C336 C 0.11271 0.46983 0.92205 0.0
H337 H 0.2195 0.43086 0.86269 0.0
H338 H 0.1899 0.51008 0.91013 0.0
C339 C 0.07948 0.42043 0.91502 0.0
C340 C 0.74544 0.96766 0.99078 0.0
C341 C 0.75106 0.95393 0.93575 0.0
H342 H 0.69483 0.98764 0.05577 0.0
C343 C 0.71079 0.95797 0.90325 0.0
H344 H 0.77595 0.96606 1.01697 0.0
C345 C 0.66512 0.97167 0.92548 0.0
C346 C 0.6586 0.98179 0.98059 0.0
H347 H 0.71321 0.94722 0.86095 0.0
H348 H 0.63358 0.9708 0.89987 0.0
C349 C 0.69944 0.98105 1.01305 0.0
C350 C 0.8195 0.14341 0.52294 0.0
C351 C 0.77328 0.11508 0.50354 0.0
H352 H 0.89873 0.1412 0.5343 0.0
C353 C 0.77123 0.06064 0.48368 0.0
H354 H 0.82212 0.1854 0.5386 0.0
C355 C 0.8146 0.03596 0.48066 0.0
C356 C 0.86139 0.06458 0.49792 0.0
H357 H 0.73637 0.03713 0.46892 0.0
H358 H 0.81153 0.99426 0.46393 0.0
C359 C 0.86325 0.1182 0.52052 0.0
C360 C 0.20274 0.69482 0.14943 0.0
C361 C 0.23547 0.67397 0.18168 0.0
H362 H 0.13607 0.67766 0.10243 0.0
C363 C 0.22831 0.61735 0.18579 0.0
H364 H 0.20696 0.73806 0.14518 0.0
C365 C 0.18743 0.5833 0.16233 0.0
C366 C 0.15327 0.60442 0.1326 0.0
H367 H 0.25365 0.59918 0.20841 0.0
H368 H 0.18178 0.54036 0.16855 0.0
C369 C 0.16217 0.66026 0.12483 0.0
C370 C 0.27497 0.39284 0.60189 0.0
C371 C 0.24352 0.41216 0.6431 0.0
H372 H 0.34967 0.40099 0.56474 0.0
C373 C 0.26234 0.45919 0.67484 0.0
H374 H 0.26163 0.35649 0.57694 0.0
C375 C 0.31271 0.48359 0.66867 0.0
C376 C 0.34507 0.46219 0.62991 0.0
H377 H 0.23868 0.47584 0.70602 0.0
H378 H 0.32674 0.51847 0.69524 0.0
C379 C 0.32539 0.418 0.59508 0.0
C380 C 0.00746 0.78991 0.97148 0.0
C381 C 0.95505 0.79111 0.97451 0.0
H382 H 0.06655 0.74214 0.97647 0.0
C383 C 0.92227 0.74709 0.99492 0.0
H384 H 0.03362 0.82345 0.95645 0.0
C385 C 0.9414 0.70069 1.00748 0.0
C386 C 0.99338 0.69772 0.99942 0.0
H387 H 0.88166 0.74706 0.99819 0.0
H388 H 0.91504 0.66545 1.01865 0.0
C389 C 0.0264 0.74366 0.9836 0.0
C390 C 0.35722 0.86811 0.16469 0.0
C391 C 0.37737 0.83512 0.19817 0.0
H392 H 0.37274 0.92291 0.10278 0.0
C393 C 0.43043 0.84303 0.20306 0.0
H394 H 0.31656 0.86421 0.16066 0.0
C395 C 0.4624 0.87803 0.17096 0.0
C396 C 0.44232 0.90607 0.13323 0.0
H397 H 0.44772 0.81851 0.22799 0.0
H398 H 0.50303 0.87829 0.17137 0.0
C399 C 0.38938 0.90306 0.13245 0.0
C400 C 0.11404 0.25197 0.55354 0.0
C401 C 0.08735 0.28215 0.5915 0.0
H402 H 0.11685 0.17323 0.51481 0.0
C403 C 0.03507 0.26445 0.60025 0.0
H404 H 0.15396 0.26495 0.54423 0.0
C405 C 0.01404 0.21142 0.58286 0.0
C406 C 0.04604 0.17618 0.55914 0.0
H407 H 0.0127 0.28802 0.62723 0.0
H408 H 0.97678 0.19505 0.59875 0.0
C409 C 0.09238 0.19924 0.53584 0.0
C410 C 0.59172 0.29416 0.50325 0.0
C411 C 0.56461 0.25019 0.47277 0.0
H412 H 0.59342 0.37614 0.53718 0.0
C413 C 0.51391 0.25279 0.46139 0.0
H414 H 0.63079 0.29384 0.51269 0.0
C415 C 0.49277 0.3 0.47505 0.0
C416 C 0.52119 0.34537 0.5018 0.0
H417 H 0.49124 0.21922 0.43936 0.0
H418 H 0.45507 0.30209 0.46217 0.0
C419 C 0.57016 0.34128 0.51765 0.0
loop_
_geom_bond_atom_site_label_1
_geom_bond_atom_site_label_2
_geom_bond_distance
_geom_bond_site_symmetry_2
_ccdc_geom_bond_type
H0 C5 0.930 . S
H1 C8 0.930 . S
H2 C10 0.930 . S
H3 C4 1.016 . S
C4 H3 1.016 . S
C4 N11 1.286 . S
C5 H0 0.930 . S
C5 C6 1.397 . S
C5 C7 1.361 . S
C6 C5 1.397 . S
C6 C10 1.390 . S
C7 C5 1.361 . S
C7 C8 1.393 . S
C7 N11 1.413 . S
C8 H1 0.930 . S
C8 C7 1.393 . S
C8 C9 1.399 . S
C9 C8 1.399 . S
C9 C10 1.381 . S
C10 H2 0.930 . S
C10 C6 1.390 . S
C10 C9 1.381 . S
N11 C4 1.286 . S
N11 C7 1.413 . S
H12 C17 0.930 . S
H13 C20 0.930 . S
H14 C22 0.930 . S
H15 C16 1.016 . S
C16 H15 1.016 . S
C16 N23 1.286 . S
C17 H12 0.930 . S
C17 C18 1.397 . S
C17 C19 1.361 . S
C18 C17 1.397 . S
C18 C22 1.390 . S
C19 C17 1.361 . S
C19 C20 1.393 . S
C19 N23 1.413 . S
C20 H13 0.930 . S
C20 C19 1.393 . S
C20 C21 1.399 . S
C21 C20 1.399 . S
C21 C22 1.381 . S
C22 H14 0.930 . S
C22 C18 1.390 . S
C22 C21 1.381 . S
N23 C16 1.286 . S
N23 C19 1.413 . S
H24 C29 0.930 . S
H25 C32 0.930 . S
H26 C34 0.930 . S
H27 C28 1.016 . S
C28 H27 1.016 . S
C28 N35 1.286 . S
C29 H24 0.930 . S
C29 C30 1.397 . S
C29 C31 1.361 . S
C30 C29 1.397 . S
C30 C34 1.390 . S
C31 C29 1.361 . S
C31 C32 1.393 . S
C31 N35 1.413 . S
C32 H25 0.930 . S
C32 C31 1.393 . S
C32 C33 1.399 . S
C33 C32 1.399 . S
C33 C34 1.381 . S
C34 H26 0.930 . S
C34 C30 1.390 . S
C34 C33 1.381 . S
N35 C28 1.286 . S
N35 C31 1.413 . S
H36 C41 0.930 . S
H37 C44 0.930 . S
H38 C46 0.930 . S
H39 C40 1.016 . S
C40 H39 1.016 . S
C40 N47 1.286 . S
C41 H36 0.930 . S
C41 C42 1.397 . S
C41 C43 1.361 . S
C42 C41 1.397 . S
C42 C46 1.390 . S
C43 C41 1.361 . S
C43 C44 1.393 . S
C43 N47 1.413 . S
C44 H37 0.930 . S
C44 C43 1.393 . S
C44 C45 1.399 . S
C45 C44 1.399 . S
C45 C46 1.381 . S
C46 H38 0.930 . S
C46 C42 1.390 . S
C46 C45 1.381 . S
N47 C40 1.286 . S
N47 C43 1.413 . S
H48 C53 0.930 . S
H49 C56 0.930 . S
H50 C58 0.930 . S
H51 C52 1.016 . S
C52 H51 1.016 . S
C52 N59 1.286 . S
C53 H48 0.930 . S
C53 C54 1.397 . S
C53 C55 1.361 . S
C54 C53 1.397 . S
C54 C58 1.390 . S
C55 C53 1.361 . S
C55 C56 1.393 . S
C55 N59 1.413 . S
C56 H49 0.930 . S
C56 C55 1.393 . S
C56 C57 1.399 . S
C57 C56 1.399 . S
C57 C58 1.381 . S
C58 H50 0.930 . S
C58 C54 1.390 . S
C58 C57 1.381 . S
N59 C52 1.286 . S
N59 C55 1.413 . S
H60 C65 0.930 . S
H61 C68 0.930 . S
H62 C70 0.930 . S
H63 C64 1.016 . S
C64 H63 1.016 . S
C64 N71 1.286 . S
C65 H60 0.930 . S
C65 C66 1.397 . S
C65 C67 1.361 . S
C66 C65 1.397 . S
C66 C70 1.390 . S
C67 C65 1.361 . S
C67 C68 1.393 . S
C67 N71 1.413 . S
C68 H61 0.930 . S
C68 C67 1.393 . S
C68 C69 1.399 . S
C69 C68 1.399 . S
C69 C70 1.381 . S
C70 H62 0.930 . S
C70 C66 1.390 . S
C70 C69 1.381 . S
N71 C64 1.286 . S
N71 C67 1.413 . S
H72 C77 0.930 . S
H73 C80 0.930 . S
H74 C82 0.930 . S
H75 C76 1.016 . S
C76 H75 1.016 . S
C76 N83 1.286 . S
C77 H72 0.930 . S
C77 C78 1.397 . S
C77 C79 1.361 . S
C78 C77 1.397 . S
C78 C82 1.390 . S
C79 C77 1.361 . S
C79 C80 1.393 . S
C79 N83 1.413 . S
C80 H73 0.930 . S
C80 C79 1.393 . S
C80 C81 1.399 . S
C81 C80 1.399 . S
C81 C82 1.381 . S
C82 H74 0.930 . S
C82 C78 1.390 . S
C82 C81 1.381 . S
N83 C76 1.286 . S
N83 C79 1.413 . S
H84 C89 0.930 . S
H85 C92 0.930 . S
H86 C94 0.930 . S
H87 C88 1.016 . S
C88 H87 1.016 . S
C88 N95 1.286 . S
C89 H84 0.930 . S
C89 C90 1.397 . S
C89 C91 1.361 . S
C90 C89 1.397 . S
C90 C94 1.390 . S
C91 C89 1.361 . S
C91 C92 1.393 . S
C91 N95 1.413 . S
C92 H85 0.930 . S
C92 C91 1.393 . S
C92 C93 1.399 . S
C93 C92 1.399 . S
C93 C94 1.381 . S
C94 H86 0.930 . S
C94 C90 1.390 . S
C94 C93 1.381 . S
N95 C88 1.286 . S
N95 C91 1.413 . S
O96 Mn97 2.163 1_655 S
O96 C110 1.244 . S
Mn97 O96 2.163 1_455 S
Mn97 O100 2.160 1_545 S
Mn97 O101 2.221 . S
Mn97 O103 2.163 1_445 S
Mn97 O105 2.160 . S
Mn97 O115 2.221 1_445 S
O98 Mn99 2.087 . S
O98 C110 1.256 1_565 S
Mn99 O98 2.087 . S
Mn99 O106 2.089 1_565 S
Mn99 O115 2.290 . S
Mn99 O116 2.251 . S
O100 Mn97 2.160 1_565 S
O100 C111 1.239 . S
O101 Mn97 2.221 . S
O101 Mn102 2.290 . S
O101 C112 1.278 . S
Mn102 O101 2.290 . S
Mn102 O104 2.089 1_545 S
Mn102 O107 2.251 . S
Mn102 O108 2.087 . S
O103 Mn97 2.163 1_665 S
O103 C113 1.244 . S
O104 Mn102 2.089 1_565 S
O104 C111 1.256 . S
O105 Mn97 2.160 . S
O105 C114 1.239 . S
O106 Mn99 2.089 1_545 S
O106 C114 1.256 1_655 S
O107 Mn102 2.251 . S
O107 C112 1.241 . S
O108 Mn102 2.087 . S
O108 C113 1.256 1_445 S
C109 O115 1.278 . S
C109 O116 1.241 . S
C110 O96 1.244 . S
C110 O98 1.256 1_545 S
C111 O100 1.239 . S
C111 O104 1.256 . S
C112 O101 1.278 . S
C112 O107 1.241 . S
C113 O103 1.244 . S
C113 O108 1.256 1_665 S
C114 O105 1.239 . S
C114 O106 1.256 1_455 S
O115 Mn97 2.221 1_665 S
O115 Mn99 2.290 . S
O115 C109 1.278 . S
O116 Mn99 2.251 . S
O116 C109 1.241 . S
O117 Mn118 2.163 1_556 S
O117 C131 1.244 1_545 S
Mn118 O117 2.163 1_554 S
Mn118 O121 2.160 . S
Mn118 O122 2.221 . S
Mn118 O124 2.163 . S
Mn118 O126 2.160 1_554 S
Mn118 O136 2.221 1_545 S
O119 Mn120 2.087 . S
O119 C131 1.256 . S
Mn120 O119 2.087 . S
Mn120 O127 2.089 . S
Mn120 O136 2.290 1_556 S
Mn120 O137 2.251 1_556 S
O121 Mn118 2.160 . S
O121 C132 1.239 . S
O122 Mn118 2.221 . S
O122 Mn123 2.290 . S
O122 C133 1.278 1_554 S
Mn123 O122 2.290 . S
Mn123 O125 2.089 . S
Mn123 O128 2.251 1_554 S
Mn123 O129 2.087 . S
O124 Mn118 2.163 . S
O124 C134 1.244 . S
O125 Mn123 2.089 . S
O125 C132 1.256 . S
O126 Mn118 2.160 1_556 S
O126 C135 1.239 1_545 S
O127 Mn120 2.089 . S
O127 C135 1.256 . S
O128 Mn123 2.251 1_556 S
O128 C133 1.241 . S
O129 Mn123 2.087 . S
O129 C134 1.256 . S
C130 O136 1.278 . S
C130 O137 1.241 . S
C131 O117 1.244 1_565 S
C131 O119 1.256 . S
C132 O121 1.239 . S
C132 O125 1.256 . S
C133 O122 1.278 1_556 S
C133 O128 1.241 . S
C134 O124 1.244 . S
C134 O129 1.256 . S
C135 O126 1.239 1_565 S
C135 O127 1.256 . S
O136 Mn118 2.221 1_565 S
O136 Mn120 2.290 1_554 S
O136 C130 1.278 . S
O137 Mn120 2.251 1_554 S
O137 C130 1.241 . S
O138 Mn139 2.163 . S
O138 C152 1.244 . S
Mn139 O138 2.163 . S
Mn139 O142 2.160 . S
Mn139 O143 2.221 . S
Mn139 O145 2.163 . S
Mn139 O147 2.160 . S
Mn139 O157 2.221 . S
O140 Mn141 2.087 . S
O140 C152 1.256 . S
Mn141 O140 2.087 . S
Mn141 O148 2.089 . S
Mn141 O157 2.290 . S
Mn141 O158 2.251 . S
O142 Mn139 2.160 . S
O142 C153 1.239 . S
O143 Mn139 2.221 . S
O143 Mn144 2.290 . S
O143 C154 1.278 . S
Mn144 O143 2.290 . S
Mn144 O146 2.089 . S
Mn144 O149 2.251 . S
Mn144 O150 2.087 . S
O145 Mn139 2.163 . S
O145 C155 1.244 . S
O146 Mn144 2.089 . S
O146 C153 1.256 . S
O147 Mn139 2.160 . S
O147 C156 1.239 . S
O148 Mn141 2.089 . S
O148 C156 1.256 . S
O149 Mn144 2.251 . S
O149 C154 1.241 . S
O150 Mn144 2.087 . S
O150 C155 1.256 . S
C151 O157 1.278 . S
C151 O158 1.241 . S
C152 O138 1.244 . S
C152 O140 1.256 . S
C153 O142 1.239 . S
C153 O146 1.256 . S
C154 O143 1.278 . S
C154 O149 1.241 . S
C155 O145 1.244 . S
C155 O150 1.256 . S
C156 O147 1.239 . S
C156 O148 1.256 . S
O157 Mn139 2.221 . S
O157 Mn141 2.290 . S
O157 C151 1.278 . S
O158 Mn141 2.251 . S
O158 C151 1.241 . S
O159 Mn160 2.163 1_655 S
O159 C173 1.244 1_554 S
Mn160 O159 2.163 1_455 S
Mn160 O163 2.160 . S
Mn160 O164 2.221 . S
Mn160 O166 2.163 . S
Mn160 O168 2.160 1_554 S
Mn160 O178 2.221 1_554 S
O161 Mn162 2.087 . S
O161 C173 1.256 . S
Mn162 O161 2.087 . S
Mn162 O169 2.089 . S
Mn162 O178 2.290 1_655 S
Mn162 O179 2.251 1_655 S
O163 Mn160 2.160 . S
O163 C174 1.239 . S
O164 Mn160 2.221 . S
O164 Mn165 2.290 . S
O164 C175 1.278 1_455 S
Mn165 O164 2.290 . S
Mn165 O167 2.089 . S
Mn165 O170 2.251 1_455 S
Mn165 O171 2.087 . S
O166 Mn160 2.163 . S
O166 C176 1.244 . S
O167 Mn165 2.089 . S
O167 C174 1.256 . S
O168 Mn160 2.160 1_556 S
O168 C177 1.239 1_455 S
O169 Mn162 2.089 . S
O169 C177 1.256 . S
O170 Mn165 2.251 1_655 S
O170 C175 1.241 . S
O171 Mn165 2.087 . S
O171 C176 1.256 . S
C172 O178 1.278 . S
C172 O179 1.241 . S
C173 O159 1.244 1_556 S
C173 O161 1.256 . S
C174 O163 1.239 . S
C174 O167 1.256 . S
C175 O164 1.278 1_655 S
C175 O170 1.241 . S
C176 O166 1.244 . S
C176 O171 1.256 . S
C177 O168 1.239 1_655 S
C177 O169 1.256 . S
O178 Mn160 2.221 1_556 S
O178 Mn162 2.290 1_455 S
O178 C172 1.278 . S
O179 Mn162 2.251 1_455 S
O179 C172 1.241 . S
C180 C181 1.387 . S
C180 H184 0.950 . S
C180 C189 1.390 . S
C181 C180 1.387 . S
C181 C183 1.387 . S
H182 C189 0.950 1_565 S
C183 C181 1.387 . S
C183 C185 1.390 . S
C183 H187 0.950 . S
H184 C180 0.950 . S
C185 C183 1.390 . S
C185 C186 1.387 . S
C185 H188 0.950 . S
C186 C185 1.387 . S
C186 C189 1.387 . S
H187 C183 0.950 . S
H188 C185 0.950 . S
C189 C180 1.390 . S
C189 H182 0.950 1_545 S
C189 C186 1.387 . S
C190 C191 1.387 . S
C190 H194 0.950 . S
C190 C199 1.390 . S
C191 C190 1.387 . S
C191 C193 1.387 . S
H192 C199 0.950 . S
C193 C191 1.387 . S
C193 C195 1.390 . S
C193 H197 0.950 . S
H194 C190 0.950 . S
C195 C193 1.390 . S
C195 C196 1.387 . S
C195 H198 0.950 . S
C196 C195 1.387 . S
C196 C199 1.387 . S
H197 C193 0.950 . S
H198 C195 0.950 . S
C199 C190 1.390 . S
C199 H192 0.950 . S
C199 C196 1.387 . S
C200 C201 1.387 . S
C200 H204 0.950 . S
C200 C209 1.390 . S
C201 C200 1.387 . S
C201 C203 1.387 . S
H202 C209 0.950 . S
C203 C201 1.387 . S
C203 C205 1.390 . S
C203 H207 0.950 . S
H204 C200 0.950 . S
C205 C203 1.390 . S
C205 C206 1.387 . S
C205 H208 0.950 . S
C206 C205 1.387 . S
C206 C209 1.387 . S
H207 C203 0.950 . S
H208 C205 0.950 . S
C209 C200 1.390 . S
C209 H202 0.950 . S
C209 C206 1.387 . S
C210 C211 1.387 . S
C210 H214 0.950 . S
C210 C219 1.390 . S
C211 C210 1.387 . S
C211 C213 1.387 . S
H212 C219 0.950 . S
C213 C211 1.387 . S
C213 C215 1.390 . S
C213 H217 0.950 . S
H214 C210 0.950 . S
C215 C213 1.390 . S
C215 C216 1.387 . S
C215 H218 0.950 . S
C216 C215 1.387 . S
C216 C219 1.387 . S
H217 C213 0.950 . S
H218 C215 0.950 . S
C219 C210 1.390 . S
C219 H212 0.950 . S
C219 C216 1.387 . S
C220 C221 1.387 . S
C220 H224 0.950 . S
C220 C229 1.390 . S
C221 C220 1.387 . S
C221 C223 1.387 . S
H222 C229 0.950 . S
C223 C221 1.387 . S
C223 C225 1.390 . S
C223 H227 0.950 . S
H224 C220 0.950 . S
C225 C223 1.390 . S
C225 C226 1.387 . S
C225 H228 0.950 . S
C226 C225 1.387 . S
C226 C229 1.387 . S
H227 C223 0.950 . S
H228 C225 0.950 . S
C229 C220 1.390 . S
C229 H222 0.950 . S
C229 C226 1.387 . S
C230 C231 1.387 . S
C230 H234 0.950 . S
C230 C239 1.390 . S
C231 C230 1.387 . S
C231 C233 1.387 . S
H232 C239 0.950 . S
C233 C231 1.387 . S
C233 C235 1.390 . S
C233 H237 0.950 . S
H234 C230 0.950 . S
C235 C233 1.390 . S
C235 C236 1.387 . S
C235 H238 0.950 . S
C236 C235 1.387 . S
C236 C239 1.387 . S
H237 C233 0.950 . S
H238 C235 0.950 . S
C239 C230 1.390 . S
C239 H232 0.950 . S
C239 C236 1.387 . S
C240 C241 1.387 . S
C240 H244 0.950 . S
C240 C249 1.390 . S
C241 C240 1.387 . S
C241 C243 1.387 . S
H242 C249 0.950 . S
C243 C241 1.387 . S
C243 C245 1.390 . S
C243 H247 0.950 . S
H244 C240 0.950 . S
C245 C243 1.390 . S
C245 C246 1.387 . S
C245 H248 0.950 . S
C246 C245 1.387 . S
C246 C249 1.387 . S
H247 C243 0.950 . S
H248 C245 0.950 . S
C249 C240 1.390 . S
C249 H242 0.950 . S
C249 C246 1.387 . S
C250 C251 1.387 . S
C250 H254 0.950 . S
C250 C259 1.390 . S
C251 C250 1.387 . S
C251 C253 1.387 . S
H252 C259 0.950 . S
C253 C251 1.387 . S
C253 C255 1.390 . S
C253 H257 0.950 . S
H254 C250 0.950 . S
C255 C253 1.390 . S
C255 C256 1.387 . S
C255 H258 0.950 . S
C256 C255 1.387 . S
C256 C259 1.387 . S
H257 C253 0.950 . S
H258 C255 0.950 . S
C259 C250 1.390 . S
C259 H252 0.950 . S
C259 C256 1.387 . S
C260 C261 1.387 . S
C260 H264 0.950 . S
C260 C269 1.390 . S
C261 C260 1.387 . S
C261 C263 1.387 . S
H262 C269 0.950 . S
C263 C261 1.387 . S
C263 C265 1.390 . S
C263 H267 0.950 . S
H264 C260 0.950 . S
C265 C263 1.390 . S
C265 C266 1.387 . S
C265 H268 0.950 1_554 S
C266 C265 1.387 . S
C266 C269 1.387 . S
H267 C263 0.950 . S
H268 C265 0.950 1_556 S
C269 C260 1.390 . S
C269 H262 0.950 . S
C269 C266 1.387 . S
C270 C271 1.387 . S
C270 H274 0.950 1_556 S
C270 C279 1.390 . S
C271 C270 1.387 . S
C271 C273 1.387 . S
H272 C279 0.950 1_554 S
C273 C271 1.387 . S
C273 C275 1.390 . S
C273 H277 0.950 . S
H274 C270 0.950 1_554 S
C275 C273 1.390 . S
C275 C276 1.387 . S
C275 H278 0.950 . S
C276 C275 1.387 . S
C276 C279 1.387 . S
H277 C273 0.950 . S
H278 C275 0.950 . S
C279 C270 1.390 . S
C279 H272 0.950 1_556 S
C279 C276 1.387 . S
C280 C281 1.387 . S
C280 H284 0.950 . S
C280 C289 1.390 . S
C281 C280 1.387 . S
C281 C283 1.387 . S
H282 C289 0.950 1_455 S
C283 C281 1.387 . S
C283 C285 1.390 . S
C283 H287 0.950 . S
H284 C280 0.950 . S
C285 C283 1.390 . S
C285 C286 1.387 . S
C285 H288 0.950 . S
C286 C285 1.387 . S
C286 C289 1.387 . S
H287 C283 0.950 . S
H288 C285 0.950 . S
C289 C280 1.390 . S
C289 H282 0.950 1_655 S
C289 C286 1.387 . S
C290 C291 1.387 . S
C290 H294 0.950 . S
C290 C299 1.390 . S
C291 C290 1.387 . S
C291 C293 1.387 . S
H292 C299 0.950 . S
C293 C291 1.387 . S
C293 C295 1.390 . S
C293 H297 0.950 . S
H294 C290 0.950 . S
C295 C293 1.390 . S
C295 C296 1.387 . S
C295 H298 0.950 . S
C296 C295 1.387 . S
C296 C299 1.387 . S
H297 C293 0.950 . S
H298 C295 0.950 . S
C299 C290 1.390 . S
C299 H292 0.950 . S
C299 C296 1.387 . S
C300 C301 1.387 . S
C300 H304 0.950 . S
C300 C309 1.390 . S
C301 C300 1.387 . S
C301 C303 1.387 . S
H302 C309 0.950 . S
C303 C301 1.387 . S
C303 C305 1.389 1_565 S
C303 H307 0.950 1_565 S
H304 C300 0.950 . S
C305 C303 1.389 1_545 S
C305 C306 1.374 1_545 S
C305 H308 0.965 . S
C306 C305 1.374 1_565 S
C306 C309 1.387 . S
H307 C303 0.950 1_545 S
H308 C305 0.965 . S
C309 C300 1.390 . S
C309 H302 0.950 . S
C309 C306 1.387 . S
C310 C311 1.387 . S
C310 H314 0.950 . S
C310 C319 1.390 . S
C311 C310 1.387 . S
C311 C313 1.387 . S
H312 C319 0.950 . S
C313 C311 1.387 . S
C313 C315 1.390 . S
C313 H317 0.950 . S
H314 C310 0.950 . S
C315 C313 1.390 . S
C315 C316 1.387 . S
C315 H318 0.950 . S
C316 C315 1.387 . S
C316 C319 1.387 . S
H317 C313 0.950 . S
H318 C315 0.950 . S
C319 C310 1.390 . S
C319 H312 0.950 . S
C319 C316 1.387 . S
C320 C321 1.387 . S
C320 H324 0.950 . S
C320 C329 1.390 . S
C321 C320 1.387 . S
C321 C323 1.387 . S
H322 C329 0.950 . S
C323 C321 1.387 . S
C323 C325 1.390 . S
C323 H327 0.950 . S
H324 C320 0.950 . S
C325 C323 1.390 . S
C325 C326 1.387 . S
C325 H328 0.950 . S
C326 C325 1.387 . S
C326 C329 1.387 . S
H327 C323 0.950 . S
H328 C325 0.950 . S
C329 C320 1.390 . S
C329 H322 0.950 . S
C329 C326 1.387 . S
C330 C331 1.387 . S
C330 H334 0.950 . S
C330 C339 1.390 . S
C331 C330 1.387 . S
C331 C333 1.387 . S
H332 C339 0.950 . S
C333 C331 1.387 . S
C333 C335 1.390 . S
C333 H337 0.950 . S
H334 C330 0.950 . S
C335 C333 1.390 . S
C335 C336 1.387 . S
C335 H338 0.950 . S
C336 C335 1.387 . S
C336 C339 1.387 . S
H337 C333 0.950 . S
H338 C335 0.950 . S
C339 C330 1.390 . S
C339 H332 0.950 . S
C339 C336 1.387 . S
C340 C341 1.387 1_545 S
C340 H344 0.950 . S
C340 C349 1.390 . S
C341 C340 1.387 1_565 S
C341 C343 1.387 . S
H342 C349 0.950 . S
C343 C341 1.387 . S
C343 C345 1.390 . S
C343 H347 0.950 . S
H344 C340 0.950 . S
C345 C343 1.390 . S
C345 C346 1.387 . S
C345 H348 0.950 . S
C346 C345 1.387 . S
C346 C349 1.387 1_565 S
H347 C343 0.950 . S
H348 C345 0.950 . S
C349 C340 1.390 . S
C349 H342 0.950 . S
C349 C346 1.387 1_545 S
C350 C351 1.387 . S
C350 H354 0.950 . S
C350 C359 1.390 . S
C351 C350 1.387 . S
C351 C353 1.387 . S
H352 C359 0.950 . S
C353 C351 1.387 . S
C353 C355 1.390 . S
C353 H357 0.950 . S
H354 C350 0.950 . S
C355 C353 1.390 . S
C355 C356 1.387 . S
C355 H358 0.950 . S
C356 C355 1.387 . S
C356 C359 1.387 . S
H357 C353 0.950 . S
H358 C355 0.950 . S
C359 C350 1.390 . S
C359 H352 0.950 . S
C359 C356 1.387 . S
C360 C361 1.387 . S
C360 H364 0.950 . S
C360 C369 1.390 . S
C361 C360 1.387 . S
C361 C363 1.387 . S
H362 C369 0.950 . S
C363 C361 1.387 . S
C363 C365 1.390 . S
C363 H367 0.950 . S
H364 C360 0.950 . S
C365 C363 1.390 . S
C365 C366 1.387 . S
C365 H368 0.950 . S
C366 C365 1.387 . S
C366 C369 1.387 . S
H367 C363 0.950 . S
H368 C365 0.950 . S
C369 C360 1.390 . S
C369 H362 0.950 . S
C369 C366 1.387 . S
C370 C371 1.387 . S
C370 H374 0.950 . S
C370 C379 1.390 . S
C371 C370 1.387 . S
C371 C373 1.387 . S
H372 C379 0.950 . S
C373 C371 1.387 . S
C373 C375 1.390 . S
C373 H377 0.950 . S
H374 C370 0.950 . S
C375 C373 1.390 . S
C375 C376 1.387 . S
C375 H378 0.950 . S
C376 C375 1.387 . S
C376 C379 1.387 . S
H377 C373 0.950 . S
H378 C375 0.950 . S
C379 C370 1.390 . S
C379 H372 0.950 . S
C379 C376 1.387 . S
C380 C381 1.387 . S
C380 H384 0.950 . S
C380 C389 1.390 . S
C381 C380 1.387 . S
C381 C383 1.387 . S
H382 C389 0.950 1_455 S
C383 C381 1.387 . S
C383 C385 1.390 1_556 S
C383 H387 0.950 1_556 S
H384 C380 0.950 . S
C385 C383 1.390 1_554 S
C385 C386 1.387 1_554 S
C385 H388 0.950 . S
C386 C385 1.387 1_556 S
C386 C389 1.387 . S
H387 C383 0.950 1_554 S
H388 C385 0.950 . S
C389 C380 1.390 . S
C389 H382 0.950 1_655 S
C389 C386 1.387 . S
C390 C391 1.387 . S
C390 H394 0.950 . S
C390 C399 1.390 . S
C391 C390 1.387 . S
C391 C393 1.387 . S
H392 C399 0.950 . S
C393 C391 1.387 . S
C393 C395 1.390 . S
C393 H397 0.950 . S
H394 C390 0.950 . S
C395 C393 1.390 . S
C395 C396 1.387 . S
C395 H398 0.950 . S
C396 C395 1.387 . S
C396 C399 1.387 . S
H397 C393 0.950 . S
H398 C395 0.950 . S
C399 C390 1.390 . S
C399 H392 0.950 . S
C399 C396 1.387 . S
C400 C401 1.387 . S
C400 H404 0.950 . S
C400 C409 1.390 . S
C401 C400 1.387 . S
C401 C403 1.387 . S
H402 C409 0.950 . S
C403 C401 1.387 . S
C403 C405 1.390 . S
C403 H407 0.950 . S
H404 C400 0.950 . S
C405 C403 1.390 . S
C405 C406 1.387 . S
C405 H408 0.950 . S
C406 C405 1.387 . S
C406 C409 1.387 . S
H407 C403 0.950 . S
H408 C405 0.950 . S
C409 C400 1.390 . S
C409 H402 0.950 . S
C409 C406 1.387 . S
C410 C411 1.387 . S
C410 H414 0.950 . S
C410 C419 1.390 . S
C411 C410 1.387 . S
C411 C413 1.387 . S
H412 C419 0.950 . S
C413 C411 1.387 . S
C413 C415 1.390 . S
C413 H417 0.950 . S
H414 C410 0.950 . S
C415 C413 1.390 . S
C415 C416 1.387 . S
C415 H418 0.950 . S
C416 C415 1.387 . S
C416 C419 1.387 . S
H417 C413 0.950 . S
H418 C415 0.950 . S
C419 C410 1.390 . S
C419 H412 0.950 . S
C419 C416 1.387 . S
C181 C6 1.713 . S
C186 C114 1.658 . S
C191 C18 1.708 . S
C196 C131 1.659 . S
C206 C154 1.263 . S
C201 C28 1.514 . S
C211 C40 1.381 . S
C216 C175 1.081 . S
C226 C134 1.860 . S
C221 C9 1.910 . S
C236 C111 1.577 . S
C231 C16 1.621 . S
C246 C173 1.384 . S
C241 C30 1.446 . S
C256 C152 1.229 . S
C251 C42 1.251 . S
C261 C4 1.630 . S
C266 C176 1.589 . S
C276 C133 1.340 . S
C271 C33 1.652 . S
C281 C45 1.471 . S
C286 C109 1.307 . S
C291 C21 1.682 . S
C296 C155 1.672 . S
C306 C113 1.689 . S
C301 C57 1.796 . S
C311 C66 1.582 . S
C316 C132 1.541 . S
C321 C76 1.577 . S
C326 C151 1.322 . S
C331 C88 1.278 . S
C336 C172 0.993 . S
C341 C54 1.832 . S
C346 C135 1.795 . S
C356 C110 1.677 . S
C351 C64 1.711 . S
C366 C174 1.232 . S
C361 C78 1.290 . S
C376 C153 1.327 . S
C371 C93 1.354 . S
C381 C52 1.466 . S
C386 C177 1.432 . S
C396 C130 1.314 . S
C391 C81 1.565 . S
C406 C112 1.205 . S
C401 C90 1.340 . S
C411 C69 1.663 . S
C416 C156 1.635 . S
