# Generated by pormake.
# Topology pyr, (3,6)-cn, num edge types: 1
# Building blocks:
#     Node 0, Type 0, BuildingBlock: MIDCAF_clean_linker_0, # of connection points: 3
#     Node 1, Type 0, BuildingBlock: MIDCAF_clean_linker_0, # of connection points: 3
#     Node 2, Type 0, BuildingBlock: MIDCAF_clean_linker_0, # of connection points: 3
#     Node 3, Type 0, BuildingBlock: MIDCAF_clean_linker_0, # of connection points: 3
#     Node 4, Type 0, BuildingBlock: MIDCAF_clean_linker_0, # of connection points: 3
#     Node 5, Type 0, BuildingBlock: MIDCAF_clean_linker_0, # of connection points: 3
#     Node 6, Type 0, BuildingBlock: MIDCAF_clean_linker_0, # of connection points: 3
#     Node 7, Type 0, BuildingBlock: MIDCAF_clean_linker_0, # of connection points: 3
#     Node 8, Type 1, BuildingBlock: CIFDUS_clean_sbu_1, # of connection points: 6
#     Node 9, Type 1, BuildingBlock: CIFDUS_clean_sbu_1, # of connection points: 6
#     Node 10, Type 1, BuildingBlock: CIFDUS_clean_sbu_1, # of connection points: 6
#     Node 11, Type 1, BuildingBlock: CIFDUS_clean_sbu_1, # of connection points: 6
#     Edge 12, Type (0, 1), BuildingBlock: CIFDUS_clean_linker_0, # of connection points: 2
#     Edge 13, Type (0, 1), BuildingBlock: CIFDUS_clean_linker_0, # of connection points: 2
#     Edge 14, Type (0, 1), BuildingBlock: CIFDUS_clean_linker_0, # of connection points: 2
#     Edge 15, Type (0, 1), BuildingBlock: CIFDUS_clean_linker_0, # of connection points: 2
#     Edge 16, Type (0, 1), BuildingBlock: CIFDUS_clean_linker_0, # of connection points: 2
#     Edge 17, Type (0, 1), BuildingBlock: CIFDUS_clean_linker_0, # of connection points: 2
#     Edge 18, Type (0, 1), BuildingBlock: CIFDUS_clean_linker_0, # of connection points: 2
#     Edge 19, Type (0, 1), BuildingBlock: CIFDUS_clean_linker_0, # of connection points: 2
#     Edge 20, Type (0, 1), BuildingBlock: CIFDUS_clean_linker_0, # of connection points: 2
#     Edge 21, Type (0, 1), BuildingBlock: CIFDUS_clean_linker_0, # of connection points: 2
#     Edge 22, Type (0, 1), BuildingBlock: CIFDUS_clean_linker_0, # of connection points: 2
#     Edge 23, Type (0, 1), BuildingBlock: CIFDUS_clean_linker_0, # of connection points: 2
#     Edge 24, Type (0, 1), BuildingBlock: CIFDUS_clean_linker_0, # of connection points: 2
#     Edge 25, Type (0, 1), BuildingBlock: CIFDUS_clean_linker_0, # of connection points: 2
#     Edge 26, Type (0, 1), BuildingBlock: CIFDUS_clean_linker_0, # of connection points: 2
#     Edge 27, Type (0, 1), BuildingBlock: CIFDUS_clean_linker_0, # of connection points: 2
#     Edge 28, Type (0, 1), BuildingBlock: CIFDUS_clean_linker_0, # of connection points: 2
#     Edge 29, Type (0, 1), BuildingBlock: CIFDUS_clean_linker_0, # of connection points: 2
#     Edge 30, Type (0, 1), BuildingBlock: CIFDUS_clean_linker_0, # of connection points: 2
#     Edge 31, Type (0, 1), BuildingBlock: CIFDUS_clean_linker_0, # of connection points: 2
#     Edge 32, Type (0, 1), BuildingBlock: CIFDUS_clean_linker_0, # of connection points: 2
#     Edge 33, Type (0, 1), BuildingBlock: CIFDUS_clean_linker_0, # of connection points: 2
#     Edge 34, Type (0, 1), BuildingBlock: CIFDUS_clean_linker_0, # of connection points: 2
#     Edge 35, Type (0, 1), BuildingBlock: CIFDUS_clean_linker_0, # of connection points: 2
# Relax obj value: 0.036
# Max RMSD: 0.111
# Mean RMSD: 0.047
data_MOF--net-pry--node1-CIFDUS_clean_sbu_1--node2-MIDCAF_clean_linker_0--edge1-CIFDUS_clean_linker_0
_symmetry_space_group_name_H-M    P1
_symmetry_Int_Tables_number       1
_symmetry_cell_setting            triclinic
loop_
_symmetry_equiv_pos_as_xyz
'x, y, z'
_cell_length_a     40.789571
_cell_length_b     39.464807
_cell_length_c     39.325541
_cell_angle_alpha  92.221584
_cell_angle_beta   91.118579
_cell_angle_gamma 93.677027
loop_
_atom_site_label
_atom_site_type_symbol
_atom_site_fract_x
_atom_site_fract_y
_atom_site_fract_z
_atom_type_partial_charge
C0 C 0.0821 0.13633 0.24445 0.0
C1 C 0.09517 0.11026 0.26291 0.0
C2 C 0.12391 0.09627 0.25112 0.0
C3 C 0.13865 0.10748 0.22117 0.0
H4 H 0.22341 0.10267 0.16262 0.0
H5 H 0.27157 0.07633 0.14207 0.0
H6 H 0.25067 0.10955 0.04075 0.0
H7 H 0.20371 0.13806 0.06231 0.0
H8 H 0.16761 0.21651 0.07027 0.0
H9 H 0.14836 0.26712 0.0447 0.0
H10 H 0.06542 0.26475 0.11115 0.0
H11 H 0.08455 0.2139 0.13681 0.0
H12 H 0.08572 0.16754 0.20125 0.0
H13 H 0.06018 0.14795 0.25293 0.0
H14 H 0.13446 0.07594 0.26449 0.0
H15 H 0.16045 0.09569 0.21262 0.0
N16 N 0.16661 0.12958 0.15715 0.0
N17 N 0.16751 0.16566 0.11095 0.0
N18 N 0.1277 0.17061 0.15293 0.0
C19 C 0.18039 0.13969 0.12762 0.0
C20 C 0.14115 0.1814 0.12346 0.0
C21 C 0.1402 0.14473 0.16999 0.0
C22 C 0.20956 0.12272 0.11424 0.0
C23 C 0.22909 0.10442 0.13593 0.0
C24 C 0.25679 0.08884 0.12385 0.0
C25 C 0.26562 0.09019 0.08936 0.0
C26 C 0.24561 0.10818 0.06756 0.0
C27 C 0.21829 0.12448 0.07989 0.0
C28 C 0.12794 0.211 0.10598 0.0
C29 C 0.14509 0.22645 0.07933 0.0
C30 C 0.13406 0.25567 0.06466 0.0
C31 C 0.10536 0.27033 0.0759 0.0
C32 C 0.08745 0.25415 0.1016 0.0
C33 C 0.09865 0.22504 0.11653 0.0
C34 C 0.12517 0.13319 0.20236 0.0
C35 C 0.09686 0.14764 0.21472 0.0
C36 C 0.26096 0.93686 0.59146 0.0
C37 C 0.2454 0.91512 0.56608 0.0
C38 C 0.26127 0.88654 0.55431 0.0
C39 C 0.29237 0.8801 0.56741 0.0
H40 H 0.36952 0.81854 0.55369 0.0
H41 H 0.39309 0.76445 0.53942 0.0
H42 H 0.46897 0.78691 0.61634 0.0
H43 H 0.44585 0.84077 0.63079 0.0
H44 H 0.44709 0.9259 0.6675 0.0
H45 H 0.46716 0.95706 0.71912 0.0
H46 H 0.36696 0.9605 0.7532 0.0
H47 H 0.34738 0.93247 0.7003 0.0
H48 H 0.30284 0.94761 0.6244 0.0
H49 H 0.24909 0.95886 0.60132 0.0
H50 H 0.24982 0.86946 0.53468 0.0
H51 H 0.30406 0.85795 0.55766 0.0
N52 N 0.35815 0.86993 0.59364 0.0
N53 N 0.40042 0.88258 0.63443 0.0
N54 N 0.35334 0.91368 0.63495 0.0
C55 C 0.38803 0.86349 0.60698 0.0
C56 C 0.38318 0.90769 0.64854 0.0
C57 C 0.34074 0.89514 0.60731 0.0
C58 C 0.40537 0.83381 0.59393 0.0
C59 C 0.39168 0.81237 0.56708 0.0
C60 C 0.40528 0.78152 0.55862 0.0
C61 C 0.43267 0.77159 0.57692 0.0
C62 C 0.44775 0.79407 0.60192 0.0
C63 C 0.43435 0.82487 0.61027 0.0
C64 C 0.39567 0.9269 0.67978 0.0
C65 C 0.42949 0.9338 0.68601 0.0
C66 C 0.44096 0.95148 0.71598 0.0
C67 C 0.41894 0.96167 0.74115 0.0
C68 C 0.38502 0.95439 0.73457 0.0
C69 C 0.3736 0.9378 0.70417 0.0
C70 C 0.30796 0.90189 0.5929 0.0
C71 C 0.29176 0.93027 0.60479 0.0
C72 C 0.6207 0.26518 0.90696 0.0
C73 C 0.58875 0.25178 0.89761 0.0
C74 C 0.56687 0.27391 0.88325 0.0
C75 C 0.57699 0.30761 0.87717 0.0
H76 H 0.56588 0.38363 0.80236 0.0
H77 H 0.55279 0.3986 0.7446 0.0
H78 H 0.64665 0.45558 0.73984 0.0
H79 H 0.65899 0.44183 0.79845 0.0
H80 H 0.69058 0.4641 0.87537 0.0
H81 H 0.74415 0.48499 0.89866 0.0
H82 H 0.74324 0.40212 0.96702 0.0
H83 H 0.68942 0.381 0.94405 0.0
H84 H 0.65526 0.30843 0.90905 0.0
H85 H 0.63878 0.24942 0.91746 0.0
H86 H 0.54169 0.26554 0.87676 0.0
H87 H 0.55977 0.32362 0.86538 0.0
N88 N 0.60951 0.36888 0.84897 0.0
N89 N 0.64684 0.41622 0.85823 0.0
N90 N 0.6445 0.37263 0.89715 0.0
C91 C 0.62271 0.39922 0.83881 0.0
C92 C 0.65753 0.40332 0.88776 0.0
C93 C 0.62036 0.35541 0.87803 0.0
C94 C 0.61354 0.41134 0.80495 0.0
C95 C 0.58362 0.39957 0.78909 0.0
C96 C 0.57632 0.40786 0.75573 0.0
C97 C 0.59902 0.42761 0.73702 0.0
C98 C 0.62853 0.44035 0.75333 0.0
C99 C 0.63562 0.43247 0.787 0.0
C100 C 0.68609 0.42023 0.90704 0.0
C101 C 0.70127 0.45069 0.89594 0.0
C102 C 0.73189 0.46282 0.9094 0.0
C103 C 0.7479 0.44483 0.93426 0.0
C104 C 0.73133 0.41646 0.94794 0.0
C105 C 0.70063 0.40424 0.93445 0.0
C106 C 0.60882 0.32056 0.88647 0.0
C107 C 0.63038 0.29921 0.90197 0.0
C108 C 0.7776 0.6032 0.47433 0.0
C109 C 0.76206 0.57093 0.46619 0.0
C110 C 0.77683 0.55005 0.4416 0.0
C111 C 0.80525 0.56173 0.42481 0.0
H112 H 0.85319 0.55605 0.32968 0.0
H113 H 0.86539 0.53495 0.27276 0.0
H114 H 0.94258 0.6144 0.26594 0.0
H115 H 0.9299 0.63615 0.32279 0.0
H116 H 0.9373 0.69689 0.38413 0.0
H117 H 0.9589 0.75175 0.40947 0.0
H118 H 0.90931 0.72945 0.50273 0.0
H119 H 0.8877 0.67529 0.47777 0.0
H120 H 0.81684 0.63969 0.46513 0.0
H121 H 0.76711 0.62074 0.49221 0.0
H122 H 0.76646 0.5247 0.43493 0.0
H123 H 0.81551 0.54534 0.40561 0.0
N124 N 0.85733 0.59582 0.38333 0.0
N125 N 0.90038 0.63843 0.38084 0.0
N126 N 0.86739 0.63533 0.42882 0.0
C127 C 0.88282 0.61082 0.36614 0.0
C128 C 0.89287 0.65065 0.41244 0.0
C129 C 0.84946 0.60809 0.41474 0.0
C130 C 0.89056 0.59786 0.33116 0.0
C131 C 0.87271 0.56923 0.31614 0.0
C132 C 0.8798 0.55699 0.28337 0.0
C133 C 0.90502 0.5729 0.26454 0.0
C134 C 0.92267 0.60175 0.27937 0.0
C135 C 0.91557 0.61404 0.31222 0.0
C136 C 0.91021 0.68179 0.42857 0.0
C137 C 0.93147 0.70345 0.41022 0.0
C138 C 0.944 0.73484 0.42482 0.0
C139 C 0.9355 0.74518 0.45802 0.0
C140 C 0.91591 0.72257 0.47693 0.0
C141 C 0.90349 0.69139 0.46248 0.0
C142 C 0.82016 0.59422 0.43285 0.0
C143 C 0.80626 0.61441 0.45829 0.0
C144 C 0.76931 0.95359 0.90471 0.0
C145 C 0.75529 0.94392 0.93564 0.0
C146 C 0.77074 0.91924 0.95414 0.0
C147 C 0.79846 0.904 0.94163 0.0
H148 H 0.851 0.8182 0.95204 0.0
H149 H 0.86919 0.76734 0.97792 0.0
H150 H 0.95504 0.77077 0.91553 0.0
H151 H 0.93683 0.82186 0.88928 0.0
H152 H 0.93616 0.86921 0.82392 0.0
H153 H 0.96018 0.88671 0.7707 0.0
H154 H 0.87907 0.94903 0.75235 0.0
H155 H 0.85471 0.93156 0.80596 0.0
H156 H 0.80683 0.94646 0.86821 0.0
H157 H 0.7582 0.9721 0.88933 0.0
H158 H 0.76144 0.91148 0.97842 0.0
H159 H 0.80915 0.88481 0.95651 0.0
N160 N 0.8535 0.86991 0.91302 0.0
N161 N 0.89217 0.86338 0.87024 0.0
N162 N 0.85372 0.90497 0.86612 0.0
C163 C 0.87931 0.85356 0.90029 0.0
C164 C 0.8795 0.88898 0.85287 0.0
C165 C 0.84062 0.89577 0.89628 0.0
C166 C 0.89217 0.82415 0.91817 0.0
C167 C 0.87397 0.80849 0.94397 0.0
C168 C 0.88438 0.77919 0.95885 0.0
C169 C 0.91351 0.76479 0.94873 0.0
C170 C 0.9326 0.78126 0.9241 0.0
C171 C 0.92196 0.81043 0.90884 0.0
C172 C 0.89352 0.89906 0.8196 0.0
C173 C 0.92317 0.88645 0.8086 0.0
C174 C 0.937 0.8965 0.77798 0.0
C175 C 0.92153 0.91925 0.75722 0.0
C176 C 0.89142 0.9312 0.76757 0.0
C177 C 0.87766 0.92139 0.7985 0.0
C178 C 0.81193 0.91311 0.91033 0.0
C179 C 0.79722 0.93854 0.89233 0.0
C180 C 0.61535 0.08509 0.27598 0.0
C181 C 0.5813 0.08726 0.27093 0.0
C182 C 0.56317 0.10095 0.29774 0.0
C183 C 0.57884 0.11436 0.32761 0.0
H184 H 0.57202 0.19835 0.39604 0.0
H185 H 0.5536 0.25274 0.41762 0.0
H186 H 0.64476 0.2717 0.4747 0.0
H187 H 0.66332 0.21763 0.4534 0.0
H188 H 0.71443 0.15997 0.45565 0.0
H189 H 0.76376 0.13589 0.4785 0.0
H190 H 0.75379 0.05529 0.40087 0.0
H191 H 0.70479 0.07874 0.37833 0.0
H192 H 0.65734 0.09668 0.30909 0.0
H193 H 0.63023 0.07502 0.25596 0.0
H194 H 0.53678 0.1021 0.29541 0.0
H195 H 0.5642 0.12567 0.34718 0.0
N196 N 0.61672 0.15683 0.37897 0.0
N197 N 0.66125 0.16135 0.41792 0.0
N198 N 0.65849 0.11886 0.3744 0.0
C199 C 0.63244 0.17283 0.4065 0.0
C200 C 0.67435 0.13426 0.40216 0.0
C201 C 0.62966 0.12989 0.36275 0.0
C202 C 0.61939 0.20373 0.42259 0.0
C203 C 0.58799 0.21387 0.41357 0.0
C204 C 0.57726 0.24487 0.42614 0.0
C205 C 0.59784 0.26645 0.44766 0.0
C206 C 0.62849 0.2556 0.45796 0.0
C207 C 0.63909 0.22457 0.44571 0.0
C208 C 0.70532 0.12113 0.41529 0.0
C209 C 0.72282 0.13714 0.4434 0.0
C210 C 0.75117 0.12349 0.45644 0.0
C211 C 0.76238 0.09343 0.4418 0.0
C212 C 0.7454 0.07809 0.41319 0.0
C213 C 0.71731 0.09171 0.40012 0.0
C214 C 0.61296 0.11346 0.33204 0.0
C215 C 0.63096 0.09779 0.30636 0.0
C216 C 0.26741 0.58988 0.10913 0.0
C217 C 0.2581 0.60126 0.07723 0.0
C218 C 0.2761 0.6291 0.06385 0.0
C219 C 0.30331 0.64484 0.08202 0.0
H220 H 0.36752 0.73337 0.09296 0.0
H221 H 0.39272 0.78893 0.08075 0.0
H222 H 0.45695 0.78553 0.16902 0.0
H223 H 0.43222 0.72957 0.18104 0.0
H224 H 0.422 0.66815 0.23265 0.0
H225 H 0.43627 0.6375 0.28338 0.0
H226 H 0.36458 0.55623 0.25291 0.0
H227 H 0.35063 0.58599 0.2026 0.0
H228 H 0.30025 0.59578 0.15173 0.0
H229 H 0.25351 0.56915 0.12063 0.0
H230 H 0.26931 0.63844 0.03933 0.0
H231 H 0.31697 0.66606 0.07112 0.0
N232 N 0.35648 0.67899 0.12599 0.0
N233 N 0.3913 0.67738 0.17435 0.0
N234 N 0.35119 0.63345 0.16216 0.0
C235 C 0.38169 0.6934 0.14608 0.0
C236 C 0.37607 0.64726 0.18245 0.0
C237 C 0.34111 0.64888 0.13405 0.0
C238 C 0.39765 0.72693 0.13811 0.0
C239 C 0.38696 0.74438 0.10987 0.0
C240 C 0.4012 0.77646 0.10304 0.0
C241 C 0.42648 0.79192 0.12425 0.0
C242 C 0.43749 0.77433 0.15222 0.0
C243 C 0.42324 0.74223 0.1591 0.0
C244 C 0.38527 0.62955 0.2134 0.0
C245 C 0.40928 0.64378 0.23685 0.0
C246 C 0.41723 0.62643 0.26601 0.0
C247 C 0.40143 0.59457 0.27201 0.0
C248 C 0.37728 0.58064 0.2488 0.0
C249 C 0.36932 0.59785 0.2199 0.0
C250 C 0.31269 0.63303 0.11387 0.0
C251 C 0.29427 0.60542 0.12711 0.0
C252 C 0.08263 0.30236 0.53839 0.0
C253 C 0.06332 0.27816 0.55571 0.0
C254 C 0.05312 0.28675 0.58877 0.0
C255 C 0.06406 0.31787 0.60501 0.0
H256 H 0.05215 0.39342 0.68651 0.0
H257 H 0.03679 0.40696 0.74433 0.0
H258 H 0.13388 0.45459 0.7656 0.0
H259 H 0.14858 0.44258 0.70673 0.0
H260 H 0.19593 0.45728 0.63883 0.0
H261 H 0.25001 0.47223 0.61515 0.0
H262 H 0.22296 0.41209 0.52388 0.0
H263 H 0.1692 0.39771 0.54661 0.0
H264 H 0.10943 0.35063 0.54062 0.0
H265 H 0.0905 0.29679 0.51274 0.0
H266 H 0.03839 0.26857 0.60291 0.0
H267 H 0.05722 0.32292 0.6311 0.0
N268 N 0.09346 0.38109 0.63885 0.0
N269 N 0.13848 0.42173 0.6424 0.0
N270 N 0.12906 0.38668 0.59328 0.0
C271 C 0.11124 0.40665 0.65663 0.0
C272 C 0.14736 0.41193 0.61044 0.0
C273 C 0.10224 0.37102 0.60703 0.0
C274 C 0.10175 0.41654 0.69188 0.0
C275 C 0.07027 0.40688 0.70342 0.0
C276 C 0.06155 0.41441 0.73694 0.0
C277 C 0.08425 0.43122 0.7604 0.0
C278 C 0.11555 0.44171 0.74856 0.0
C279 C 0.1241 0.43466 0.7147 0.0
C280 C 0.17827 0.42573 0.59501 0.0
C281 C 0.20124 0.44783 0.61344 0.0
C282 C 0.23214 0.45649 0.59987 0.0
C283 C 0.24065 0.44296 0.56785 0.0
C284 C 0.2171 0.42258 0.54873 0.0
C285 C 0.18626 0.41431 0.56197 0.0
C286 C 0.08543 0.34098 0.58847 0.0
C287 C 0.09349 0.33332 0.55449 0.0
O288 O 0.96156 0.03255 0.50104 0.0
Mn289 Mn 0.0072 0.01101 0.50789 0.0
O290 O 0.93489 0.00243 0.45841 0.0
Mn291 Mn 0.97135 0.98104 0.44495 0.0
O292 O 0.05343 0.99036 0.51463 0.0
O293 O 0.02233 0.05509 0.53415 0.0
Mn294 Mn 0.04309 0.04264 0.57104 0.0
O295 O 0.98836 0.98881 0.55287 0.0
O296 O 0.0796 0.02186 0.55693 0.0
O297 O 0.02628 0.03333 0.46327 0.0
O298 O 1.00019 0.00573 0.41871 0.0
O299 O 0.04541 0.08864 0.57522 0.0
O300 O 0.0143 0.01763 0.59695 0.0
C301 C 0.98306 0.93645 0.46784 0.0
C302 C 0.93581 0.02518 0.48215 0.0
C303 C 0.07922 0.99919 0.53312 0.0
C304 C 0.02967 0.08594 0.54622 0.0
C305 C 0.99324 0.99483 0.58521 0.0
C306 C 0.02152 0.02797 0.4309 0.0
O307 O 0.9916 0.96658 0.48156 0.0
O308 O 0.96751 0.93548 0.43873 0.0
O309 O 0.49925 0.01477 0.94998 0.0
Mn310 Mn 0.50826 0.01658 0.00359 0.0
O311 O 0.48808 0.96001 0.93395 0.0
Mn312 Mn 0.50763 0.94438 0.97194 0.0
O313 O 0.51841 0.02013 0.05732 0.0
O314 O 0.52346 0.06666 1.00108 0.0
Mn315 Mn 0.5022 0.08807 0.03372 0.0
O316 O 0.45807 0.02651 0.01037 0.0
O317 O 0.52553 0.07638 0.07094 0.0
O318 O 0.55782 0.0035 0.99606 0.0
O319 O 0.5528 0.94947 0.97445 0.0
O320 O 0.51128 0.11936 1.00204 0.0
O321 O 0.45777 0.07778 0.03602 0.0
C322 C 0.48234 0.93757 0.01748 0.0
C323 C 0.48984 0.99127 0.92752 0.0
C324 C 0.52678 0.04537 0.07858 0.0
C325 C 0.52233 0.09435 0.98441 0.0
C326 C 0.4428 0.05081 0.02417 0.0
C327 C 0.57032 0.97577 0.98517 0.0
O328 O 0.49377 0.96693 0.00766 0.0
O329 O 0.48645 0.91201 0.99668 0.0
O330 O 0.55229 0.52124 0.51209 0.0
Mn331 Mn 0.49985 0.5118 0.51207 0.0
O332 O 0.55965 0.54387 0.46311 0.0
Mn333 Mn 0.53072 0.50917 0.44798 0.0
O334 O 0.448 0.50105 0.51458 0.0
O335 O 0.50472 0.50344 0.56224 0.0
Mn336 Mn 0.47131 0.52088 0.58297 0.0
O337 O 0.49348 0.56366 0.52116 0.0
O338 O 0.43701 0.49087 0.56918 0.0
O339 O 0.50671 0.46033 0.50224 0.0
O340 O 0.54006 0.46524 0.45803 0.0
O341 O 0.50342 0.51841 0.61574 0.0
O342 O 0.46624 0.56474 0.57004 0.0
C343 C 0.48787 0.52222 0.42755 0.0
C344 C 0.57124 0.53735 0.49167 0.0
C345 C 0.42838 0.49024 0.53788 0.0
C346 C 0.5213 0.50976 0.59041 0.0
C347 C 0.47826 0.57951 0.54452 0.0
C348 C 0.52634 0.4476 0.48082 0.0
O349 O 0.49092 0.51887 0.46063 0.0
O350 O 0.51188 0.51481 0.40798 0.0
O351 O 0.95522 0.49679 0.00619 0.0
Mn352 Mn 0.00484 0.51604 0.01195 0.0
O353 O 0.94092 0.51189 0.9539 0.0
Mn354 Mn 0.98001 0.53424 0.94472 0.0
O355 O 0.05389 0.53588 0.01565 0.0
O356 O 0.99731 0.51999 0.06457 0.0
Mn357 Mn 0.03489 0.50325 0.07852 0.0
O358 O 0.01897 0.46452 0.01383 0.0
O359 O 0.07146 0.53017 0.06895 0.0
O360 O 0.99079 0.56758 0.01102 0.0
O361 O 0.98388 0.57939 0.95656 0.0
O362 O 0.01599 0.51218 0.11778 0.0
O363 O 0.03732 0.45821 0.06698 0.0
C364 C 0.01849 0.50887 0.9267 0.0
C365 C 0.93431 0.49716 0.98124 0.0
C366 C 0.07587 0.54057 0.03931 0.0
C367 C 0.99314 0.52222 0.09786 0.0
C368 C 0.03051 0.44618 0.03727 0.0
C369 C 0.98574 0.58877 0.98756 0.0
O370 O 0.01323 0.51163 0.95971 0.0
O371 O 0.99839 0.52223 0.90591 0.0
H372 H 0.12043 0.09426 0.32568 0.0
H373 H 0.02963 0.09494 0.26749 0.0
H374 H 0.99922 0.07219 0.31503 0.0
H375 H 0.99808 0.05008 0.37205 0.0
H376 H 0.0874 0.04943 0.43222 0.0
H377 H 0.11866 0.07438 0.38532 0.0
C378 C 0.094 0.08939 0.32348 0.0
C379 C 0.0774 0.09649 0.29289 0.0
C380 C 0.07637 0.07643 0.35134 0.0
C381 C 0.04307 0.09021 0.29067 0.0
C382 C 0.02561 0.07704 0.31787 0.0
C383 C 0.02438 0.05576 0.37512 0.0
C384 C 0.0404 0.04792 0.40561 0.0
C385 C 0.04196 0.06994 0.34819 0.0
C386 C 0.07443 0.05559 0.4092 0.0
C387 C 0.0923 0.06955 0.38222 0.0
H388 H 0.47863 0.95654 0.77426 0.0
H389 H 0.38708 0.0052 0.78463 0.0
H390 H 0.40251 0.02322 0.84281 0.0
H391 H 0.43916 0.01856 0.89354 0.0
H392 H 0.53257 0.97535 0.88014 0.0
H393 H 0.51988 0.9636 0.81987 0.0
C394 C 0.46221 0.97201 0.78841 0.0
C395 C 0.43097 0.97806 0.77473 0.0
C396 C 0.47177 0.98375 0.82158 0.0
C397 C 0.41054 0.99825 0.7945 0.0
C398 C 0.41954 0.00917 0.82788 0.0
C399 C 0.45729 0.00815 0.87698 0.0
C400 C 0.48687 0.99809 0.89109 0.0
C401 C 0.44968 1.00114 0.84212 0.0
C402 C 0.50987 0.98379 0.86961 0.0
C403 C 0.5024 0.97657 0.83524 0.0
H404 H 0.61433 0.48594 0.70324 0.0
H405 H 0.56717 0.38512 0.6886 0.0
H406 H 0.5464 0.39952 0.63295 0.0
H407 H 0.5326 0.44404 0.59431 0.0
H408 H 0.57773 0.54505 0.61006 0.0
H409 H 0.61048 0.5266 0.65774 0.0
C410 C 0.60039 0.46671 0.68755 0.0
C411 C 0.59144 0.43483 0.70081 0.0
C412 C 0.5886 0.47506 0.65528 0.0
C413 C 0.57334 0.41035 0.67981 0.0
C414 C 0.56175 0.41839 0.64768 0.0
C415 C 0.55118 0.4614 0.60684 0.0
C416 C 0.55269 0.49583 0.59894 0.0
C417 C 0.56803 0.45111 0.6358 0.0
C418 C 0.5764 0.51831 0.61559 0.0
C419 C 0.59446 0.50795 0.64349 0.0
H420 H 0.92307 0.60633 0.20671 0.0
H421 H 0.90775 0.50588 0.2458 0.0
H422 H 0.92573 0.48086 0.19247 0.0
H423 H 0.95298 0.48749 0.1382 0.0
H424 H 0.97305 0.58711 0.09985 0.0
H425 H 0.94517 0.61237 0.14855 0.0
C426 C 0.92348 0.57896 0.20348 0.0
C427 C 0.91402 0.55814 0.23056 0.0
C428 C 0.93436 0.56452 0.17256 0.0
C429 C 0.9144 0.52266 0.22555 0.0
C430 C 0.92484 0.50823 0.19498 0.0
C431 C 0.94976 0.5146 0.13965 0.0
C432 C 0.96442 0.53533 0.11507 0.0
C433 C 0.93551 0.5289 0.16864 0.0
C434 C 0.96109 0.57051 0.11781 0.0
C435 C 0.94585 0.58498 0.14616 0.0
H436 H 0.30518 0.10792 0.0356 0.0
H437 H 0.2951 0.03422 0.11387 0.0
H438 H 0.34722 0.01215 0.09811 0.0
H439 H 0.39902 0.01746 0.06556 0.0
H440 H 0.40621 0.08828 0.98505 0.0
H441 H 0.35141 0.10634 0.99716 0.0
C442 C 0.31356 0.08643 0.04885 0.0
C443 C 0.29591 0.07376 0.07675 0.0
C444 C 0.34326 0.07282 0.03889 0.0
C445 C 0.30826 0.04592 0.0933 0.0
C446 C 0.33811 0.03276 0.08397 0.0
C447 C 0.38791 0.03569 0.04973 0.0
C448 C 0.40646 0.05101 0.02392 0.0
C449 C 0.35627 0.04647 0.05726 0.0
C450 C 0.39214 0.07551 0.00444 0.0
C451 C 0.36095 0.08626 0.01175 0.0
H452 H 0.22764 0.97475 0.54277 0.0
H453 H 0.18985 0.87232 0.55875 0.0
H454 H 0.13411 0.88765 0.54393 0.0
H455 H 0.0953 0.93283 0.53434 0.0
H456 H 0.1347 0.03506 0.5196 0.0
H457 H 0.1905 0.01725 0.52559 0.0
C458 C 0.20722 0.95571 0.54262 0.0
C459 C 0.21264 0.92268 0.55237 0.0
C460 C 0.17547 0.96476 0.53431 0.0
C461 C 0.18617 0.89801 0.55146 0.0
C462 C 0.15431 0.90681 0.54312 0.0
C463 C 0.11621 0.95073 0.53115 0.0
C464 C 0.11108 0.98512 0.52637 0.0
C465 C 0.14849 0.94042 0.53548 0.0
C466 C 0.13824 0.00839 0.52301 0.0
C467 C 0.17013 0.99832 0.52676 0.0
H468 H 0.78266 0.45722 0.99501 0.0
H469 H 0.79329 0.44559 0.88622 0.0
H470 H 0.85249 0.45507 0.8927 0.0
H471 H 0.90042 0.46952 0.92778 0.0
H472 H 0.89273 0.48814 0.03597 0.0
H473 H 0.83336 0.47147 0.03166 0.0
C474 C 0.79814 0.45682 0.97292 0.0
C475 C 0.7837 0.4513 0.94009 0.0
C476 C 0.83254 0.46298 0.97678 0.0
C477 C 0.80383 0.45051 0.91159 0.0
C478 C 0.83767 0.45561 0.91528 0.0
C479 C 0.8859 0.46979 0.95064 0.0
C480 C 0.90083 0.48042 0.98209 0.0
C481 C 0.85214 0.46225 0.94758 0.0
C482 C 0.8818 0.4799 0.01147 0.0
C483 C 0.84784 0.47084 0.00886 0.0
H484 H 0.71219 0.52763 0.43863 0.0
H485 H 0.73751 0.59054 0.52891 0.0
H486 H 0.68097 0.58377 0.54742 0.0
H487 H 0.62202 0.56579 0.53383 0.0
H488 H 0.60028 0.49723 0.44707 0.0
H489 H 0.65781 0.49936 0.43246 0.0
C490 C 0.70607 0.53913 0.46294 0.0
C491 C 0.72942 0.56082 0.48133 0.0
C492 C 0.67373 0.53413 0.47429 0.0
C493 C 0.72005 0.57516 0.51291 0.0
C494 C 0.6876 0.57098 0.5239 0.0
C495 C 0.63015 0.55049 0.5125 0.0
C496 C 0.60681 0.53187 0.49126 0.0
C497 C 0.66382 0.55151 0.50415 0.0
C498 C 0.61774 0.51203 0.46369 0.0
C499 C 0.65068 0.51338 0.45509 0.0
H500 H 0.04374 0.29051 0.05754 0.0
H501 H 0.14597 0.32622 0.0655 0.0
H502 H 0.13212 0.3822 0.04825 0.0
H503 H 0.09078 0.42297 0.03657 0.0
H504 H 0.98842 0.38926 0.02927 0.0
H505 H 1.00235 0.33079 0.03975 0.0
C506 C 0.06299 0.31048 0.05525 0.0
C507 C 0.09599 0.30384 0.06292 0.0
C508 C 0.05482 0.34306 0.04507 0.0
C509 C 0.12051 0.33017 0.05948 0.0
C510 C 0.11258 0.36239 0.0497 0.0
C511 C 0.07164 0.40252 0.03586 0.0
C512 C 0.03867 0.41032 0.03113 0.0
C513 C 0.07985 0.3693 0.04291 0.0
C514 C 0.01403 0.38379 0.03162 0.0
C515 C 0.02202 0.35044 0.03828 0.0
H516 H 0.61253 0.20882 0.94492 0.0
H517 H 0.54122 0.21068 0.86212 0.0
H518 H 0.51786 0.15529 0.87689 0.0
H519 H 0.51196 0.11114 0.9195 0.0
H520 H 0.58684 0.10635 0.99741 0.0
H521 H 0.61599 0.157 0.97655 0.0
C522 C 0.59267 0.19705 0.92906 0.0
C523 C 0.57801 0.21532 0.90322 0.0
C524 C 0.58024 0.16414 0.93643 0.0
C525 C 0.55209 0.19868 0.88347 0.0
C526 C 0.53895 0.16647 0.89143 0.0
C527 C 0.53582 0.11985 0.93038 0.0
C528 C 0.54715 0.10517 0.96 0.0
C529 C 0.55207 0.14952 0.91865 0.0
C530 C 0.57789 0.1169 0.9742 0.0
C531 C 0.59408 0.14653 0.96289 0.0
H532 H 0.99424 0.78341 0.45591 0.0
H533 H 0.89465 0.78696 0.49033 0.0
H534 H 0.90446 0.8469 0.50654 0.0
H535 H 0.93782 0.90018 0.50137 0.0
H536 H 0.03599 0.89839 0.46381 0.0
H537 H 0.03097 0.83615 0.45984 0.0
C538 C 0.97489 0.79725 0.4674 0.0
C539 C 0.94366 0.78064 0.47158 0.0
C540 C 0.98061 0.83212 0.4765 0.0
C541 C 0.91896 0.79889 0.48694 0.0
C542 C 0.9245 0.83331 0.49617 0.0
C543 C 0.95876 0.88602 0.49421 0.0
C544 C 0.98743 0.90376 0.48345 0.0
C545 C 0.95485 0.85043 0.49007 0.0
C546 C 0.014 0.88525 0.47309 0.0
C547 C 0.01078 0.84966 0.46999 0.0
H548 H 0.45134 0.73396 0.52075 0.0
H549 H 0.43377 0.72933 0.62841 0.0
H550 H 0.44756 0.67033 0.62753 0.0
H551 H 0.46393 0.62056 0.59717 0.0
H552 H 0.48253 0.62182 0.48958 0.0
H553 H 0.46983 0.68202 0.4895 0.0
C554 C 0.45074 0.71987 0.54388 0.0
C555 C 0.44194 0.73596 0.57473 0.0
C556 C 0.45908 0.68566 0.54328 0.0
C557 C 0.44102 0.7176 0.60457 0.0
C558 C 0.44879 0.68387 0.60408 0.0
C559 C 0.46526 0.63376 0.57349 0.0
C560 C 0.47384 0.6165 0.54333 0.0
C561 C 0.45784 0.66776 0.5737 0.0
C562 C 0.47595 0.63446 0.51317 0.0
C563 C 0.46852 0.6688 0.51313 0.0
H564 H 0.89705 0.92486 0.69153 0.0
H565 H 0.98462 0.94404 0.75457 0.0
H566 H 0.01433 0.96636 0.70644 0.0
H567 H 0.01568 0.98192 0.6476 0.0
H568 H 0.92983 0.96387 0.58215 0.0
H569 H 0.89943 0.93888 0.62971 0.0
C570 C 0.92263 0.93394 0.69458 0.0
C571 C 0.93862 0.93259 0.72673 0.0
C572 C 0.93993 0.94667 0.66635 0.0
C573 C 0.97181 0.94433 0.73019 0.0
C574 C 0.98884 0.95721 0.70266 0.0
C575 C 0.9903 0.97242 0.64347 0.0
C576 C 0.97503 0.97508 0.61131 0.0
C577 C 0.97317 0.95858 0.67077 0.0
C578 C 0.94229 0.96205 0.60652 0.0
C579 C 0.92486 0.94804 0.63385 0.0
H580 H 0.5938 0.0359 0.2235 0.0
H581 H 0.53276 0.12037 0.24092 0.0
H582 H 0.50682 0.10958 0.18558 0.0
H583 H 0.50426 0.08052 0.13069 0.0
H584 H 0.56822 1.00047 0.10746 0.0
H585 H 0.58966 0.00455 0.16676 0.0
C586 C 0.5748 0.05189 0.2152 0.0
C587 C 0.56504 0.07865 0.23702 0.0
C588 C 0.56038 0.04626 0.18231 0.0
C589 C 0.54025 0.09895 0.22559 0.0
C590 C 0.52548 0.09304 0.19363 0.0
C591 C 0.52263 0.06355 0.13866 0.0
C592 C 0.53484 0.04042 0.11481 0.0
C593 C 0.53566 0.06722 0.17174 0.0
C594 C 0.55829 0.01833 0.1255 0.0
C595 C 0.5708 0.02105 0.15923 0.0
H596 H 0.41057 0.61587 0.33872 0.0
H597 H 0.41464 0.52825 0.27008 0.0
H598 H 0.43375 0.49489 0.31636 0.0
H599 H 0.4563 0.49282 0.37372 0.0
H600 H 0.45744 0.58068 0.44214 0.0
H601 H 0.42773 0.61139 0.39932 0.0
C602 C 0.41545 0.58942 0.33413 0.0
C603 C 0.41136 0.57454 0.30107 0.0
C604 C 0.42678 0.57035 0.36093 0.0
C605 C 0.41739 0.54016 0.29535 0.0
C606 C 0.42831 0.52107 0.32178 0.0
C607 C 0.44878 0.51825 0.3797 0.0
C608 C 0.45883 0.5346 0.41079 0.0
C609 C 0.43376 0.5361 0.35439 0.0
C610 C 0.44942 0.56753 0.41844 0.0
C611 C 0.43313 0.58527 0.39367 0.0
H612 H 0.10458 0.48463 0.80515 0.0
H613 H 0.04358 0.3908 0.79897 0.0
H614 H 0.02297 0.40311 0.85528 0.0
H615 H 0.01629 0.44422 0.90281 0.0
H616 H 0.07758 0.53711 0.90997 0.0
H617 H 0.1055 0.52044 0.85805 0.0
C618 C 0.08745 0.46633 0.81628 0.0
C619 C 0.07503 0.43726 0.79686 0.0
C620 C 0.07612 0.47309 0.84942 0.0
C621 C 0.05269 0.41413 0.81227 0.0
C622 C 0.04115 0.42086 0.84489 0.0
C623 C 0.03715 0.45979 0.89413 0.0
C624 C 0.04539 0.49147 0.91072 0.0
C625 C 0.05198 0.45069 0.86333 0.0
C626 C 0.07153 0.51208 0.89835 0.0
C627 C 0.08689 0.50293 0.86807 0.0
H628 H 0.70568 0.91188 0.97057 0.0
H629 H 0.73345 0.00836 0.92782 0.0
H630 H 0.68005 0.02901 0.94236 0.0
H631 H 0.62275 0.01762 0.96311 0.0
H632 H 0.59835 0.9216 0.0083 0.0
H633 H 0.65314 0.9036 0.99791 0.0
C634 C 0.7007 0.93778 0.9651 0.0
C635 C 0.72389 0.95814 0.94759 0.0
C636 C 0.67016 0.9498 0.9741 0.0
C637 C 0.71604 0.99149 0.9404 0.0
C638 C 0.68545 0.00354 0.94901 0.0
C639 C 0.62986 0.9933 0.97166 0.0
C640 C 0.60627 0.97101 0.98644 0.0
C641 C 0.6619 0.98269 0.96533 0.0
C642 C 0.6159 0.9393 0.99686 0.0
C643 C 0.64725 0.92879 0.99072 0.0
H644 H 0.82241 0.12329 0.46317 0.0
H645 H 0.76645 0.02664 0.45367 0.0
H646 H 0.81474 0.99746 0.47012 0.0
H647 H 0.8739 0.99857 0.48046 0.0
H648 H 0.93123 0.09407 0.49027 0.0
H649 H 0.88133 0.12471 0.48137 0.0
C650 C 0.82072 0.09593 0.46534 0.0
C651 C 0.79104 0.07707 0.4564 0.0
C652 C 0.84881 0.07915 0.47483 0.0
C653 C 0.7892 0.04164 0.45948 0.0
C654 C 0.81674 0.02492 0.46906 0.0
C655 C 0.8753 0.02615 0.48149 0.0
C656 C 0.90601 0.04413 0.48589 0.0
C657 C 0.84683 0.0433 0.47577 0.0
C658 C 0.9077 0.07979 0.48725 0.0
C659 C 0.87924 0.09722 0.48175 0.0
H660 H 0.2067 0.63083 0.04724 0.0
H661 H 0.24358 0.53345 0.06787 0.0
H662 H 0.19031 0.50515 0.05231 0.0
H663 H 0.13143 0.50918 0.04251 0.0
H664 H 0.09317 0.60567 0.02229 0.0
H665 H 0.14895 0.63332 0.02696 0.0
C666 C 0.20331 0.60335 0.04722 0.0
C667 C 0.22876 0.58431 0.05943 0.0
C668 C 0.17235 0.58718 0.03855 0.0
C669 C 0.22409 0.54869 0.05928 0.0
C670 C 0.19367 0.53248 0.05039 0.0
C671 C 0.13559 0.53608 0.03806 0.0
C672 C 0.10867 0.55557 0.03221 0.0
C673 C 0.16733 0.55161 0.04147 0.0
C674 C 0.11384 0.59034 0.0266 0.0
C675 C 0.14561 0.60609 0.02962 0.0
H676 H 0.27823 0.50145 0.55751 0.0
H677 H 0.27968 0.39231 0.55124 0.0
H678 H 0.33756 0.39669 0.53605 0.0
H679 H 0.38951 0.43176 0.53107 0.0
H680 H 0.38768 0.54075 0.5343 0.0
H681 H 0.32844 0.53645 0.54361 0.0
C682 C 0.29126 0.47873 0.55248 0.0
C683 C 0.27496 0.44662 0.55593 0.0
C684 C 0.32447 0.48144 0.54304 0.0
C685 C 0.29185 0.4173 0.54888 0.0
C686 C 0.32494 0.41978 0.5402 0.0
C687 C 0.37579 0.45441 0.53237 0.0
C688 C 0.39265 0.48647 0.53134 0.0
C689 C 0.34172 0.4517 0.53789 0.0
C690 C 0.37492 0.51578 0.53408 0.0
C691 C 0.34115 0.51334 0.53995 0.0
H692 H 0.9733 0.74479 0.97257 0.0
H693 H 0.87246 0.70834 0.9528 0.0
H694 H 0.885 0.65177 0.96955 0.0
H695 H 0.9254 0.61104 0.98408 0.0
H696 H 0.02661 0.6454 1.00244 0.0
H697 H 0.01319 0.70425 0.99319 0.0
C698 C 0.95407 0.7245 0.97225 0.0
C699 C 0.9219 0.731 0.96139 0.0
C700 C 0.96147 0.69164 0.98214 0.0
C701 C 0.89728 0.70434 0.96133 0.0
C702 C 0.90445 0.67185 0.97085 0.0
C703 C 0.94423 0.63167 0.98751 0.0
C704 C 0.97677 0.62403 0.99495 0.0
C705 C 0.93648 0.66506 0.98083 0.0
C706 C 1.00121 0.65077 0.9979 0.0
C707 C 0.99359 0.68434 0.99192 0.0
H708 H 0.39663 0.8476 0.1033 0.0
H709 H 0.49193 0.81165 0.12663 0.0
H710 H 0.51853 0.86315 0.10478 0.0
H711 H 0.51464 0.91146 0.06819 0.0
H712 H 0.41991 0.94368 0.03837 0.0
H713 H 0.39303 0.90177 0.07476 0.0
C714 C 0.42321 0.85128 0.10398 0.0
C715 C 0.44225 0.82552 0.11603 0.0
C716 C 0.4384 0.88058 0.09046 0.0
C717 C 0.47665 0.83099 0.11751 0.0
C718 C 0.49192 0.86042 0.10489 0.0
C719 C 0.48821 0.91055 0.07133 0.0
C720 C 0.46918 0.93054 0.05094 0.0
C721 C 0.47306 0.88463 0.09002 0.0
C722 C 0.43498 0.92887 0.05438 0.0
C723 C 0.41964 0.9043 0.07449 0.0
H724 H 0.00665 0.23628 0.55434 0.0
H725 H 0.10819 0.24012 0.52494 0.0
H726 H 0.1031 0.17992 0.50873 0.0
H727 H 0.07332 0.12465 0.51343 0.0
H728 H 0.9733 0.11901 0.54632 0.0
H729 H 0.97357 0.18118 0.54903 0.0
C730 C 0.02744 0.224 0.54381 0.0
C731 C 0.05783 0.24275 0.54115 0.0
C732 C 0.02448 0.18896 0.53481 0.0
C733 C 0.08445 0.22651 0.5271 0.0
C734 C 0.08163 0.19195 0.51791 0.0
C735 C 0.05101 0.1371 0.51926 0.0
C736 C 0.02325 0.11742 0.52931 0.0
C737 C 0.05216 0.1727 0.5228 0.0
C738 C 0.99474 0.13369 0.53778 0.0
C739 C 0.99521 0.16927 0.54016 0.0
H740 H 0.54054 0.28864 0.47369 0.0
H741 H 0.63631 0.32353 0.43943 0.0
H742 H 0.62309 0.38231 0.44914 0.0
H743 H 0.58397 0.4237 0.46432 0.0
H744 H 0.48805 0.39131 0.49965 0.0
H745 H 0.50181 0.33157 0.4933 0.0
C746 C 0.55845 0.30922 0.46861 0.0
C747 C 0.58941 0.30179 0.45594 0.0
C748 C 0.55072 0.34325 0.4745 0.0
C749 C 0.61252 0.32859 0.44957 0.0
C750 C 0.60494 0.36221 0.45496 0.0
C751 C 0.56604 0.40359 0.47083 0.0
C752 C 0.53488 0.41179 0.48195 0.0
C753 C 0.57408 0.36978 0.46704 0.0
C754 C 0.51219 0.38556 0.49098 0.0
C755 C 0.52001 0.35147 0.48711 0.0
loop_
_geom_bond_atom_site_label_1
_geom_bond_atom_site_label_2
_geom_bond_distance
_geom_bond_site_symmetry_2
_ccdc_geom_bond_type
C0 C1 1.384 . S
C0 H13 0.947 . S
C0 C35 1.382 . S
C1 C0 1.384 . S
C1 C2 1.378 . S
C2 C1 1.378 . S
C2 C3 1.378 . S
C2 H14 0.952 . S
C3 C2 1.378 . S
C3 H15 0.950 . S
C3 C34 1.383 . S
H4 C23 0.947 . S
H5 C24 0.946 . S
H6 C26 0.953 . S
H7 C27 0.945 . S
H8 C29 0.952 . S
H9 C30 0.949 . S
H10 C32 0.950 . S
H11 C33 0.948 . S
H12 C35 0.951 . S
H13 C0 0.947 . S
H14 C2 0.952 . S
H15 C3 0.950 . S
N16 C19 1.382 . S
N16 C21 1.363 . S
N17 C19 1.371 . S
N17 C20 1.372 . S
N18 C20 1.361 . S
N18 C21 1.377 . S
C19 N16 1.382 . S
C19 N17 1.371 . S
C19 C22 1.480 . S
C20 N17 1.372 . S
C20 N18 1.361 . S
C20 C28 1.457 . S
C21 N16 1.363 . S
C21 N18 1.377 . S
C21 C34 1.479 . S
C22 C19 1.480 . S
C22 C23 1.383 . S
C22 C27 1.385 . S
C23 H4 0.947 . S
C23 C22 1.383 . S
C23 C24 1.388 . S
C24 H5 0.946 . S
C24 C23 1.388 . S
C24 C25 1.384 . S
C25 C24 1.384 . S
C25 C26 1.377 . S
C26 H6 0.953 . S
C26 C25 1.377 . S
C26 C27 1.369 . S
C27 H7 0.945 . S
C27 C22 1.385 . S
C27 C26 1.369 . S
C28 C20 1.457 . S
C28 C29 1.372 . S
C28 C33 1.364 . S
C29 H8 0.952 . S
C29 C28 1.372 . S
C29 C30 1.389 . S
C30 H9 0.949 . S
C30 C29 1.389 . S
C30 C31 1.387 . S
C31 C30 1.387 . S
C31 C32 1.372 . S
C32 H10 0.950 . S
C32 C31 1.372 . S
C32 C33 1.379 . S
C33 H11 0.948 . S
C33 C28 1.364 . S
C33 C32 1.379 . S
C34 C3 1.383 . S
C34 C21 1.479 . S
C34 C35 1.398 . S
C35 C0 1.382 . S
C35 H12 0.951 . S
C35 C34 1.398 . S
C36 C37 1.384 . S
C36 H49 0.947 . S
C36 C71 1.382 . S
C37 C36 1.384 . S
C37 C38 1.378 . S
C38 C37 1.378 . S
C38 C39 1.378 . S
C38 H50 0.952 . S
C39 C38 1.378 . S
C39 H51 0.950 . S
C39 C70 1.383 . S
H40 C59 0.947 . S
H41 C60 0.946 . S
H42 C62 0.953 . S
H43 C63 0.945 . S
H44 C65 0.952 . S
H45 C66 0.949 . S
H46 C68 0.950 . S
H47 C69 0.948 . S
H48 C71 0.951 . S
H49 C36 0.947 . S
H50 C38 0.952 . S
H51 C39 0.950 . S
N52 C55 1.382 . S
N52 C57 1.363 . S
N53 C55 1.371 . S
N53 C56 1.372 . S
N54 C56 1.361 . S
N54 C57 1.377 . S
C55 N52 1.382 . S
C55 N53 1.371 . S
C55 C58 1.480 . S
C56 N53 1.372 . S
C56 N54 1.361 . S
C56 C64 1.457 . S
C57 N52 1.363 . S
C57 N54 1.377 . S
C57 C70 1.479 . S
C58 C55 1.480 . S
C58 C59 1.383 . S
C58 C63 1.385 . S
C59 H40 0.947 . S
C59 C58 1.383 . S
C59 C60 1.388 . S
C60 H41 0.946 . S
C60 C59 1.388 . S
C60 C61 1.384 . S
C61 C60 1.384 . S
C61 C62 1.377 . S
C62 H42 0.953 . S
C62 C61 1.377 . S
C62 C63 1.369 . S
C63 H43 0.945 . S
C63 C58 1.385 . S
C63 C62 1.369 . S
C64 C56 1.457 . S
C64 C65 1.372 . S
C64 C69 1.364 . S
C65 H44 0.952 . S
C65 C64 1.372 . S
C65 C66 1.389 . S
C66 H45 0.949 . S
C66 C65 1.389 . S
C66 C67 1.387 . S
C67 C66 1.387 . S
C67 C68 1.372 . S
C68 H46 0.950 . S
C68 C67 1.372 . S
C68 C69 1.379 . S
C69 H47 0.948 . S
C69 C64 1.364 . S
C69 C68 1.379 . S
C70 C39 1.383 . S
C70 C57 1.479 . S
C70 C71 1.398 . S
C71 C36 1.382 . S
C71 H48 0.951 . S
C71 C70 1.398 . S
C72 C73 1.384 . S
C72 H85 0.947 . S
C72 C107 1.382 . S
C73 C72 1.384 . S
C73 C74 1.378 . S
C74 C73 1.378 . S
C74 C75 1.378 . S
C74 H86 0.952 . S
C75 C74 1.378 . S
C75 H87 0.950 . S
C75 C106 1.383 . S
H76 C95 0.947 . S
H77 C96 0.946 . S
H78 C98 0.953 . S
H79 C99 0.945 . S
H80 C101 0.952 . S
H81 C102 0.949 . S
H82 C104 0.950 . S
H83 C105 0.948 . S
H84 C107 0.951 . S
H85 C72 0.947 . S
H86 C74 0.952 . S
H87 C75 0.950 . S
N88 C91 1.382 . S
N88 C93 1.363 . S
N89 C91 1.371 . S
N89 C92 1.372 . S
N90 C92 1.361 . S
N90 C93 1.377 . S
C91 N88 1.382 . S
C91 N89 1.371 . S
C91 C94 1.480 . S
C92 N89 1.372 . S
C92 N90 1.361 . S
C92 C100 1.457 . S
C93 N88 1.363 . S
C93 N90 1.377 . S
C93 C106 1.479 . S
C94 C91 1.480 . S
C94 C95 1.383 . S
C94 C99 1.385 . S
C95 H76 0.947 . S
C95 C94 1.383 . S
C95 C96 1.388 . S
C96 H77 0.946 . S
C96 C95 1.388 . S
C96 C97 1.384 . S
C97 C96 1.384 . S
C97 C98 1.377 . S
C98 H78 0.953 . S
C98 C97 1.377 . S
C98 C99 1.369 . S
C99 H79 0.945 . S
C99 C94 1.385 . S
C99 C98 1.369 . S
C100 C92 1.457 . S
C100 C101 1.372 . S
C100 C105 1.364 . S
C101 H80 0.952 . S
C101 C100 1.372 . S
C101 C102 1.389 . S
C102 H81 0.949 . S
C102 C101 1.389 . S
C102 C103 1.387 . S
C103 C102 1.387 . S
C103 C104 1.372 . S
C104 H82 0.950 . S
C104 C103 1.372 . S
C104 C105 1.379 . S
C105 H83 0.948 . S
C105 C100 1.364 . S
C105 C104 1.379 . S
C106 C75 1.383 . S
C106 C93 1.479 . S
C106 C107 1.398 . S
C107 C72 1.382 . S
C107 H84 0.951 . S
C107 C106 1.398 . S
C108 C109 1.384 . S
C108 H121 0.947 . S
C108 C143 1.382 . S
C109 C108 1.384 . S
C109 C110 1.378 . S
C110 C109 1.378 . S
C110 C111 1.378 . S
C110 H122 0.952 . S
C111 C110 1.378 . S
C111 H123 0.950 . S
C111 C142 1.383 . S
H112 C131 0.947 . S
H113 C132 0.946 . S
H114 C134 0.953 . S
H115 C135 0.945 . S
H116 C137 0.952 . S
H117 C138 0.949 . S
H118 C140 0.950 . S
H119 C141 0.948 . S
H120 C143 0.951 . S
H121 C108 0.947 . S
H122 C110 0.952 . S
H123 C111 0.950 . S
N124 C127 1.382 . S
N124 C129 1.363 . S
N125 C127 1.371 . S
N125 C128 1.372 . S
N126 C128 1.361 . S
N126 C129 1.377 . S
C127 N124 1.382 . S
C127 N125 1.371 . S
C127 C130 1.480 . S
C128 N125 1.372 . S
C128 N126 1.361 . S
C128 C136 1.457 . S
C129 N124 1.363 . S
C129 N126 1.377 . S
C129 C142 1.479 . S
C130 C127 1.480 . S
C130 C131 1.383 . S
C130 C135 1.385 . S
C131 H112 0.947 . S
C131 C130 1.383 . S
C131 C132 1.388 . S
C132 H113 0.946 . S
C132 C131 1.388 . S
C132 C133 1.384 . S
C133 C132 1.384 . S
C133 C134 1.377 . S
C134 H114 0.953 . S
C134 C133 1.377 . S
C134 C135 1.369 . S
C135 H115 0.945 . S
C135 C130 1.385 . S
C135 C134 1.369 . S
C136 C128 1.457 . S
C136 C137 1.372 . S
C136 C141 1.364 . S
C137 H116 0.952 . S
C137 C136 1.372 . S
C137 C138 1.389 . S
C138 H117 0.949 . S
C138 C137 1.389 . S
C138 C139 1.387 . S
C139 C138 1.387 . S
C139 C140 1.372 . S
C140 H118 0.950 . S
C140 C139 1.372 . S
C140 C141 1.379 . S
C141 H119 0.948 . S
C141 C136 1.364 . S
C141 C140 1.379 . S
C142 C111 1.383 . S
C142 C129 1.479 . S
C142 C143 1.398 . S
C143 C108 1.382 . S
C143 H120 0.951 . S
C143 C142 1.398 . S
C144 C145 1.384 . S
C144 H157 0.947 . S
C144 C179 1.382 . S
C145 C144 1.384 . S
C145 C146 1.378 . S
C146 C145 1.378 . S
C146 C147 1.378 . S
C146 H158 0.952 . S
C147 C146 1.378 . S
C147 H159 0.950 . S
C147 C178 1.383 . S
H148 C167 0.947 . S
H149 C168 0.946 . S
H150 C170 0.953 . S
H151 C171 0.945 . S
H152 C173 0.952 . S
H153 C174 0.949 . S
H154 C176 0.950 . S
H155 C177 0.948 . S
H156 C179 0.951 . S
H157 C144 0.947 . S
H158 C146 0.952 . S
H159 C147 0.950 . S
N160 C163 1.382 . S
N160 C165 1.363 . S
N161 C163 1.371 . S
N161 C164 1.372 . S
N162 C164 1.361 . S
N162 C165 1.377 . S
C163 N160 1.382 . S
C163 N161 1.371 . S
C163 C166 1.480 . S
C164 N161 1.372 . S
C164 N162 1.361 . S
C164 C172 1.457 . S
C165 N160 1.363 . S
C165 N162 1.377 . S
C165 C178 1.479 . S
C166 C163 1.480 . S
C166 C167 1.383 . S
C166 C171 1.385 . S
C167 H148 0.947 . S
C167 C166 1.383 . S
C167 C168 1.388 . S
C168 H149 0.946 . S
C168 C167 1.388 . S
C168 C169 1.384 . S
C169 C168 1.384 . S
C169 C170 1.377 . S
C170 H150 0.953 . S
C170 C169 1.377 . S
C170 C171 1.369 . S
C171 H151 0.945 . S
C171 C166 1.385 . S
C171 C170 1.369 . S
C172 C164 1.457 . S
C172 C173 1.372 . S
C172 C177 1.364 . S
C173 H152 0.952 . S
C173 C172 1.372 . S
C173 C174 1.389 . S
C174 H153 0.949 . S
C174 C173 1.389 . S
C174 C175 1.387 . S
C175 C174 1.387 . S
C175 C176 1.372 . S
C176 H154 0.950 . S
C176 C175 1.372 . S
C176 C177 1.379 . S
C177 H155 0.948 . S
C177 C172 1.364 . S
C177 C176 1.379 . S
C178 C147 1.383 . S
C178 C165 1.479 . S
C178 C179 1.398 . S
C179 C144 1.382 . S
C179 H156 0.951 . S
C179 C178 1.398 . S
C180 C181 1.384 . S
C180 H193 0.947 . S
C180 C215 1.382 . S
C181 C180 1.384 . S
C181 C182 1.378 . S
C182 C181 1.378 . S
C182 C183 1.378 . S
C182 H194 0.952 . S
C183 C182 1.378 . S
C183 H195 0.950 . S
C183 C214 1.383 . S
H184 C203 0.947 . S
H185 C204 0.946 . S
H186 C206 0.953 . S
H187 C207 0.945 . S
H188 C209 0.952 . S
H189 C210 0.949 . S
H190 C212 0.950 . S
H191 C213 0.948 . S
H192 C215 0.951 . S
H193 C180 0.947 . S
H194 C182 0.952 . S
H195 C183 0.950 . S
N196 C199 1.382 . S
N196 C201 1.363 . S
N197 C199 1.371 . S
N197 C200 1.372 . S
N198 C200 1.361 . S
N198 C201 1.377 . S
C199 N196 1.382 . S
C199 N197 1.371 . S
C199 C202 1.480 . S
C200 N197 1.372 . S
C200 N198 1.361 . S
C200 C208 1.457 . S
C201 N196 1.363 . S
C201 N198 1.377 . S
C201 C214 1.479 . S
C202 C199 1.480 . S
C202 C203 1.383 . S
C202 C207 1.385 . S
C203 H184 0.947 . S
C203 C202 1.383 . S
C203 C204 1.388 . S
C204 H185 0.946 . S
C204 C203 1.388 . S
C204 C205 1.384 . S
C205 C204 1.384 . S
C205 C206 1.377 . S
C206 H186 0.953 . S
C206 C205 1.377 . S
C206 C207 1.369 . S
C207 H187 0.945 . S
C207 C202 1.385 . S
C207 C206 1.369 . S
C208 C200 1.457 . S
C208 C209 1.372 . S
C208 C213 1.364 . S
C209 H188 0.952 . S
C209 C208 1.372 . S
C209 C210 1.389 . S
C210 H189 0.949 . S
C210 C209 1.389 . S
C210 C211 1.387 . S
C211 C210 1.387 . S
C211 C212 1.372 . S
C212 H190 0.950 . S
C212 C211 1.372 . S
C212 C213 1.379 . S
C213 H191 0.948 . S
C213 C208 1.364 . S
C213 C212 1.379 . S
C214 C183 1.383 . S
C214 C201 1.479 . S
C214 C215 1.398 . S
C215 C180 1.382 . S
C215 H192 0.951 . S
C215 C214 1.398 . S
C216 C217 1.384 . S
C216 H229 0.947 . S
C216 C251 1.382 . S
C217 C216 1.384 . S
C217 C218 1.378 . S
C218 C217 1.378 . S
C218 C219 1.378 . S
C218 H230 0.952 . S
C219 C218 1.378 . S
C219 H231 0.950 . S
C219 C250 1.383 . S
H220 C239 0.947 . S
H221 C240 0.946 . S
H222 C242 0.953 . S
H223 C243 0.945 . S
H224 C245 0.952 . S
H225 C246 0.949 . S
H226 C248 0.950 . S
H227 C249 0.948 . S
H228 C251 0.951 . S
H229 C216 0.947 . S
H230 C218 0.952 . S
H231 C219 0.950 . S
N232 C235 1.382 . S
N232 C237 1.363 . S
N233 C235 1.371 . S
N233 C236 1.372 . S
N234 C236 1.361 . S
N234 C237 1.377 . S
C235 N232 1.382 . S
C235 N233 1.371 . S
C235 C238 1.480 . S
C236 N233 1.372 . S
C236 N234 1.361 . S
C236 C244 1.457 . S
C237 N232 1.363 . S
C237 N234 1.377 . S
C237 C250 1.479 . S
C238 C235 1.480 . S
C238 C239 1.383 . S
C238 C243 1.385 . S
C239 H220 0.947 . S
C239 C238 1.383 . S
C239 C240 1.388 . S
C240 H221 0.946 . S
C240 C239 1.388 . S
C240 C241 1.384 . S
C241 C240 1.384 . S
C241 C242 1.377 . S
C242 H222 0.953 . S
C242 C241 1.377 . S
C242 C243 1.369 . S
C243 H223 0.945 . S
C243 C238 1.385 . S
C243 C242 1.369 . S
C244 C236 1.457 . S
C244 C245 1.372 . S
C244 C249 1.364 . S
C245 H224 0.952 . S
C245 C244 1.372 . S
C245 C246 1.389 . S
C246 H225 0.949 . S
C246 C245 1.389 . S
C246 C247 1.387 . S
C247 C246 1.387 . S
C247 C248 1.372 . S
C248 H226 0.950 . S
C248 C247 1.372 . S
C248 C249 1.379 . S
C249 H227 0.948 . S
C249 C244 1.364 . S
C249 C248 1.379 . S
C250 C219 1.383 . S
C250 C237 1.479 . S
C250 C251 1.398 . S
C251 C216 1.382 . S
C251 H228 0.951 . S
C251 C250 1.398 . S
C252 C253 1.384 . S
C252 H265 0.947 . S
C252 C287 1.382 . S
C253 C252 1.384 . S
C253 C254 1.378 . S
C254 C253 1.378 . S
C254 C255 1.378 . S
C254 H266 0.952 . S
C255 C254 1.378 . S
C255 H267 0.950 . S
C255 C286 1.383 . S
H256 C275 0.947 . S
H257 C276 0.946 . S
H258 C278 0.953 . S
H259 C279 0.945 . S
H260 C281 0.952 . S
H261 C282 0.949 . S
H262 C284 0.950 . S
H263 C285 0.948 . S
H264 C287 0.951 . S
H265 C252 0.947 . S
H266 C254 0.952 . S
H267 C255 0.950 . S
N268 C271 1.382 . S
N268 C273 1.363 . S
N269 C271 1.371 . S
N269 C272 1.372 . S
N270 C272 1.361 . S
N270 C273 1.377 . S
C271 N268 1.382 . S
C271 N269 1.371 . S
C271 C274 1.480 . S
C272 N269 1.372 . S
C272 N270 1.361 . S
C272 C280 1.457 . S
C273 N268 1.363 . S
C273 N270 1.377 . S
C273 C286 1.479 . S
C274 C271 1.480 . S
C274 C275 1.383 . S
C274 C279 1.385 . S
C275 H256 0.947 . S
C275 C274 1.383 . S
C275 C276 1.388 . S
C276 H257 0.946 . S
C276 C275 1.388 . S
C276 C277 1.384 . S
C277 C276 1.384 . S
C277 C278 1.377 . S
C278 H258 0.953 . S
C278 C277 1.377 . S
C278 C279 1.369 . S
C279 H259 0.945 . S
C279 C274 1.385 . S
C279 C278 1.369 . S
C280 C272 1.457 . S
C280 C281 1.372 . S
C280 C285 1.364 . S
C281 H260 0.952 . S
C281 C280 1.372 . S
C281 C282 1.389 . S
C282 H261 0.949 . S
C282 C281 1.389 . S
C282 C283 1.387 . S
C283 C282 1.387 . S
C283 C284 1.372 . S
C284 H262 0.950 . S
C284 C283 1.372 . S
C284 C285 1.379 . S
C285 H263 0.948 . S
C285 C280 1.364 . S
C285 C284 1.379 . S
C286 C255 1.383 . S
C286 C273 1.479 . S
C286 C287 1.398 . S
C287 C252 1.382 . S
C287 H264 0.951 . S
C287 C286 1.398 . S
O288 Mn289 2.163 1_655 S
O288 C302 1.244 . S
Mn289 O288 2.163 1_455 S
Mn289 O292 2.160 1_545 S
Mn289 O293 2.221 . S
Mn289 O295 2.163 1_445 S
Mn289 O297 2.160 . S
Mn289 O307 2.221 1_445 S
O290 Mn291 2.087 1_545 S
O290 C302 1.256 . S
Mn291 O290 2.087 1_565 S
Mn291 O298 2.089 1_565 S
Mn291 O307 2.290 . S
Mn291 O308 2.251 . S
O292 Mn289 2.160 1_565 S
O292 C303 1.239 . S
O293 Mn289 2.221 . S
O293 Mn294 2.290 . S
O293 C304 1.278 . S
Mn294 O293 2.290 . S
Mn294 O296 2.089 1_545 S
Mn294 O299 2.251 . S
Mn294 O300 2.087 . S
O295 Mn289 2.163 1_665 S
O295 C305 1.244 . S
O296 Mn294 2.089 1_565 S
O296 C303 1.256 . S
O297 Mn289 2.160 . S
O297 C306 1.239 . S
O298 Mn291 2.089 1_545 S
O298 C306 1.256 1_655 S
O299 Mn294 2.251 . S
O299 C304 1.241 . S
O300 Mn294 2.087 . S
O300 C305 1.256 1_445 S
C301 O307 1.278 . S
C301 O308 1.241 . S
C302 O288 1.244 . S
C302 O290 1.256 . S
C303 O292 1.239 . S
C303 O296 1.256 . S
C304 O293 1.278 . S
C304 O299 1.241 . S
C305 O295 1.244 . S
C305 O300 1.256 1_665 S
C306 O297 1.239 . S
C306 O298 1.256 1_455 S
O307 Mn289 2.221 1_665 S
O307 Mn291 2.290 . S
O307 C301 1.278 . S
O308 Mn291 2.251 . S
O308 C301 1.241 . S
O309 Mn310 2.163 1_556 S
O309 C323 1.244 1_545 S
Mn310 O309 2.163 1_554 S
Mn310 O313 2.160 . S
Mn310 O314 2.221 1_554 S
Mn310 O316 2.163 . S
Mn310 O318 2.160 1_554 S
Mn310 O328 2.221 1_545 S
O311 Mn312 2.087 . S
O311 C323 1.256 . S
Mn312 O311 2.087 . S
Mn312 O319 2.089 . S
Mn312 O328 2.290 1_556 S
Mn312 O329 2.251 1_556 S
O313 Mn310 2.160 . S
O313 C324 1.239 . S
O314 Mn310 2.221 1_556 S
O314 Mn315 2.290 1_556 S
O314 C325 1.278 . S
Mn315 O314 2.290 1_554 S
Mn315 O317 2.089 . S
Mn315 O320 2.251 1_554 S
Mn315 O321 2.087 . S
O316 Mn310 2.163 . S
O316 C326 1.244 . S
O317 Mn315 2.089 . S
O317 C324 1.256 . S
O318 Mn310 2.160 1_556 S
O318 C327 1.239 1_545 S
O319 Mn312 2.089 . S
O319 C327 1.256 . S
O320 Mn315 2.251 1_556 S
O320 C325 1.241 . S
O321 Mn315 2.087 . S
O321 C326 1.256 . S
C322 O328 1.278 . S
C322 O329 1.241 . S
C323 O309 1.244 1_565 S
C323 O311 1.256 . S
C324 O313 1.239 . S
C324 O317 1.256 . S
C325 O314 1.278 . S
C325 O320 1.241 . S
C326 O316 1.244 . S
C326 O321 1.256 . S
C327 O318 1.239 1_565 S
C327 O319 1.256 . S
O328 Mn310 2.221 1_565 S
O328 Mn312 2.290 1_554 S
O328 C322 1.278 . S
O329 Mn312 2.251 1_554 S
O329 C322 1.241 . S
O330 Mn331 2.163 . S
O330 C344 1.244 . S
Mn331 O330 2.163 . S
Mn331 O334 2.160 . S
Mn331 O335 2.221 . S
Mn331 O337 2.163 . S
Mn331 O339 2.160 . S
Mn331 O349 2.221 . S
O332 Mn333 2.087 . S
O332 C344 1.256 . S
Mn333 O332 2.087 . S
Mn333 O340 2.089 . S
Mn333 O349 2.290 . S
Mn333 O350 2.251 . S
O334 Mn331 2.160 . S
O334 C345 1.239 . S
O335 Mn331 2.221 . S
O335 Mn336 2.290 . S
O335 C346 1.278 . S
Mn336 O335 2.290 . S
Mn336 O338 2.089 . S
Mn336 O341 2.251 . S
Mn336 O342 2.087 . S
O337 Mn331 2.163 . S
O337 C347 1.244 . S
O338 Mn336 2.089 . S
O338 C345 1.256 . S
O339 Mn331 2.160 . S
O339 C348 1.239 . S
O340 Mn333 2.089 . S
O340 C348 1.256 . S
O341 Mn336 2.251 . S
O341 C346 1.241 . S
O342 Mn336 2.087 . S
O342 C347 1.256 . S
C343 O349 1.278 . S
C343 O350 1.241 . S
C344 O330 1.244 . S
C344 O332 1.256 . S
C345 O334 1.239 . S
C345 O338 1.256 . S
C346 O335 1.278 . S
C346 O341 1.241 . S
C347 O337 1.244 . S
C347 O342 1.256 . S
C348 O339 1.239 . S
C348 O340 1.256 . S
O349 Mn331 2.221 . S
O349 Mn333 2.290 . S
O349 C343 1.278 . S
O350 Mn333 2.251 . S
O350 C343 1.241 . S
O351 Mn352 2.163 1_655 S
O351 C365 1.244 1_554 S
Mn352 O351 2.163 1_455 S
Mn352 O355 2.160 . S
Mn352 O356 2.221 1_455 S
Mn352 O358 2.163 . S
Mn352 O360 2.160 1_454 S
Mn352 O370 2.221 1_554 S
O353 Mn354 2.087 . S
O353 C365 1.256 . S
Mn354 O353 2.087 . S
Mn354 O361 2.089 . S
Mn354 O370 2.290 1_655 S
Mn354 O371 2.251 . S
O355 Mn352 2.160 . S
O355 C366 1.239 . S
O356 Mn352 2.221 1_655 S
O356 Mn357 2.290 1_655 S
O356 C367 1.278 . S
Mn357 O356 2.290 1_455 S
Mn357 O359 2.089 . S
Mn357 O362 2.251 1_455 S
Mn357 O363 2.087 . S
O358 Mn352 2.163 . S
O358 C368 1.244 . S
O359 Mn357 2.089 . S
O359 C366 1.256 . S
O360 Mn352 2.160 1_656 S
O360 C369 1.239 . S
O361 Mn354 2.089 . S
O361 C369 1.256 . S
O362 Mn357 2.251 1_655 S
O362 C367 1.241 . S
O363 Mn357 2.087 . S
O363 C368 1.256 . S
C364 O370 1.278 . S
C364 O371 1.241 1_455 S
C365 O351 1.244 1_556 S
C365 O353 1.256 . S
C366 O355 1.239 . S
C366 O359 1.256 . S
C367 O356 1.278 . S
C367 O362 1.241 . S
C368 O358 1.244 . S
C368 O363 1.256 . S
C369 O360 1.239 . S
C369 O361 1.256 . S
O370 Mn352 2.221 1_556 S
O370 Mn354 2.290 1_455 S
O370 C364 1.278 . S
O371 Mn354 2.251 . S
O371 C364 1.241 1_655 S
H372 C378 0.930 . S
H373 C381 0.930 . S
H374 C382 0.930 . S
H375 C383 0.930 . S
H376 C386 0.930 . S
H377 C387 0.930 . S
C378 H372 0.930 . S
C378 C379 1.355 . S
C378 C380 1.415 . S
C379 C378 1.355 . S
C379 C381 1.419 . S
C380 C378 1.415 . S
C380 C385 1.425 . S
C380 C387 1.409 . S
C381 H373 0.930 . S
C381 C379 1.419 . S
C381 C382 1.362 . S
C382 H374 0.930 . S
C382 C381 1.362 . S
C382 C385 1.409 . S
C383 H375 0.930 . S
C383 C384 1.355 . S
C383 C385 1.415 . S
C384 C383 1.355 . S
C384 C386 1.419 . S
C385 C380 1.425 . S
C385 C382 1.409 . S
C385 C383 1.415 . S
C386 H376 0.930 . S
C386 C384 1.419 . S
C386 C387 1.362 . S
C387 H377 0.930 . S
C387 C380 1.409 . S
C387 C386 1.362 . S
H388 C394 0.930 . S
H389 C397 0.930 . S
H390 C398 0.912 1_545 S
H391 C399 0.931 . S
H392 C402 0.930 . S
H393 C403 0.930 . S
C394 H388 0.930 . S
C394 C395 1.355 . S
C394 C396 1.415 . S
C395 C394 1.355 . S
C395 C397 1.419 . S
C396 C394 1.415 . S
C396 C401 1.425 . S
C396 C403 1.409 . S
C397 H389 0.930 . S
C397 C395 1.419 . S
C397 C398 1.370 . S
C398 H390 0.912 1_565 S
C398 C397 1.370 . S
C398 C401 1.419 . S
C399 H391 0.931 . S
C399 C400 1.354 1_545 S
C399 C401 1.414 1_545 S
C400 C399 1.354 1_565 S
C400 C402 1.419 . S
C401 C396 1.425 . S
C401 C398 1.419 . S
C401 C399 1.414 1_565 S
C402 H392 0.930 . S
C402 C400 1.419 . S
C402 C403 1.362 . S
C403 H393 0.930 . S
C403 C396 1.409 . S
C403 C402 1.362 . S
H404 C410 0.930 . S
H405 C413 0.930 . S
H406 C414 0.930 . S
H407 C415 0.930 . S
H408 C418 0.930 . S
H409 C419 0.930 . S
C410 H404 0.930 . S
C410 C411 1.355 . S
C410 C412 1.415 . S
C411 C410 1.355 . S
C411 C413 1.419 . S
C412 C410 1.415 . S
C412 C417 1.425 . S
C412 C419 1.409 . S
C413 H405 0.930 . S
C413 C411 1.419 . S
C413 C414 1.362 . S
C414 H406 0.930 . S
C414 C413 1.362 . S
C414 C417 1.409 . S
C415 H407 0.930 . S
C415 C416 1.355 . S
C415 C417 1.415 . S
C416 C415 1.355 . S
C416 C418 1.419 . S
C417 C412 1.425 . S
C417 C414 1.409 . S
C417 C415 1.415 . S
C418 H408 0.930 . S
C418 C416 1.419 . S
C418 C419 1.362 . S
C419 H409 0.930 . S
C419 C412 1.409 . S
C419 C418 1.362 . S
H420 C426 0.930 . S
H421 C429 0.930 . S
H422 C430 0.930 . S
H423 C431 0.930 . S
H424 C434 0.930 . S
H425 C435 0.930 . S
C426 H420 0.930 . S
C426 C427 1.355 . S
C426 C428 1.415 . S
C427 C426 1.355 . S
C427 C429 1.419 . S
C428 C426 1.415 . S
C428 C433 1.425 . S
C428 C435 1.409 . S
C429 H421 0.930 . S
C429 C427 1.419 . S
C429 C430 1.362 . S
C430 H422 0.930 . S
C430 C429 1.362 . S
C430 C433 1.409 . S
C431 H423 0.930 . S
C431 C432 1.355 . S
C431 C433 1.415 . S
C432 C431 1.355 . S
C432 C434 1.419 . S
C433 C428 1.425 . S
C433 C430 1.409 . S
C433 C431 1.415 . S
C434 H424 0.930 . S
C434 C432 1.419 . S
C434 C435 1.362 . S
C435 H425 0.930 . S
C435 C428 1.409 . S
C435 C434 1.362 . S
H436 C442 0.930 . S
H437 C445 0.930 . S
H438 C446 0.930 . S
H439 C447 0.930 . S
H440 C450 0.930 . S
H441 C451 0.930 . S
C442 H436 0.930 . S
C442 C443 1.355 . S
C442 C444 1.415 . S
C443 C442 1.355 . S
C443 C445 1.419 . S
C444 C442 1.415 . S
C444 C449 1.425 . S
C444 C451 1.409 . S
C445 H437 0.930 . S
C445 C443 1.419 . S
C445 C446 1.362 . S
C446 H438 0.930 . S
C446 C445 1.362 . S
C446 C449 1.409 . S
C447 H439 0.930 . S
C447 C448 1.355 . S
C447 C449 1.415 . S
C448 C447 1.355 . S
C448 C450 1.419 . S
C449 C444 1.425 . S
C449 C446 1.409 . S
C449 C447 1.415 . S
C450 H440 0.930 . S
C450 C448 1.419 . S
C450 C451 1.362 . S
C451 H441 0.930 . S
C451 C444 1.409 . S
C451 C450 1.362 . S
H452 C458 0.930 . S
H453 C461 0.930 . S
H454 C462 0.930 . S
H455 C463 0.930 . S
H456 C466 0.930 1_545 S
H457 C467 0.930 1_545 S
C458 H452 0.930 . S
C458 C459 1.355 . S
C458 C460 1.415 . S
C459 C458 1.355 . S
C459 C461 1.419 . S
C460 C458 1.415 . S
C460 C465 1.425 . S
C460 C467 1.409 . S
C461 H453 0.930 . S
C461 C459 1.419 . S
C461 C462 1.362 . S
C462 H454 0.930 . S
C462 C461 1.362 . S
C462 C465 1.409 . S
C463 H455 0.930 . S
C463 C464 1.355 . S
C463 C465 1.415 . S
C464 C463 1.355 . S
C464 C466 1.419 . S
C465 C460 1.425 . S
C465 C462 1.409 . S
C465 C463 1.415 . S
C466 H456 0.930 1_565 S
C466 C464 1.419 . S
C466 C467 1.362 . S
C467 H457 0.930 1_565 S
C467 C460 1.409 . S
C467 C466 1.362 . S
H468 C474 0.930 . S
H469 C477 0.930 . S
H470 C478 0.930 . S
H471 C479 0.930 . S
H472 C482 0.930 . S
H473 C483 0.930 . S
C474 H468 0.930 . S
C474 C475 1.355 . S
C474 C476 1.415 . S
C475 C474 1.355 . S
C475 C477 1.419 . S
C476 C474 1.415 . S
C476 C481 1.425 . S
C476 C483 1.409 1_556 S
C477 H469 0.930 . S
C477 C475 1.419 . S
C477 C478 1.362 . S
C478 H470 0.930 . S
C478 C477 1.362 . S
C478 C481 1.409 . S
C479 H471 0.930 . S
C479 C480 1.355 . S
C479 C481 1.415 . S
C480 C479 1.355 . S
C480 C482 1.419 1_556 S
C481 C476 1.425 . S
C481 C478 1.409 . S
C481 C479 1.415 . S
C482 H472 0.930 . S
C482 C480 1.419 1_554 S
C482 C483 1.362 . S
C483 H473 0.930 . S
C483 C476 1.409 1_554 S
C483 C482 1.362 . S
H484 C490 0.930 . S
H485 C493 0.930 . S
H486 C494 0.930 . S
H487 C495 0.930 . S
H488 C498 0.930 . S
H489 C499 0.930 . S
C490 H484 0.930 . S
C490 C491 1.355 . S
C490 C492 1.415 . S
C491 C490 1.355 . S
C491 C493 1.419 . S
C492 C490 1.415 . S
C492 C497 1.425 . S
C492 C499 1.409 . S
C493 H485 0.930 . S
C493 C491 1.419 . S
C493 C494 1.362 . S
C494 H486 0.930 . S
C494 C493 1.362 . S
C494 C497 1.409 . S
C495 H487 0.930 . S
C495 C496 1.355 . S
C495 C497 1.415 . S
C496 C495 1.355 . S
C496 C498 1.419 . S
C497 C492 1.425 . S
C497 C494 1.409 . S
C497 C495 1.415 . S
C498 H488 0.930 . S
C498 C496 1.419 . S
C498 C499 1.362 . S
C499 H489 0.930 . S
C499 C492 1.409 . S
C499 C498 1.362 . S
H500 C506 0.930 . S
H501 C509 0.930 . S
H502 C510 0.930 . S
H503 C511 0.930 . S
H504 C514 0.930 1_655 S
H505 C515 0.930 1_655 S
C506 H500 0.930 . S
C506 C507 1.355 . S
C506 C508 1.415 . S
C507 C506 1.355 . S
C507 C509 1.419 . S
C508 C506 1.415 . S
C508 C513 1.425 . S
C508 C515 1.409 . S
C509 H501 0.930 . S
C509 C507 1.419 . S
C509 C510 1.362 . S
C510 H502 0.930 . S
C510 C509 1.362 . S
C510 C513 1.409 . S
C511 H503 0.930 . S
C511 C512 1.355 . S
C511 C513 1.415 . S
C512 C511 1.355 . S
C512 C514 1.419 . S
C513 C508 1.425 . S
C513 C510 1.409 . S
C513 C511 1.415 . S
C514 H504 0.930 1_455 S
C514 C512 1.419 . S
C514 C515 1.362 . S
C515 H505 0.930 1_455 S
C515 C508 1.409 . S
C515 C514 1.362 . S
H516 C522 0.930 . S
H517 C525 0.930 . S
H518 C526 0.930 . S
H519 C527 0.930 . S
H520 C530 0.917 1_554 S
H521 C531 0.930 . S
C522 H516 0.930 . S
C522 C523 1.355 . S
C522 C524 1.415 . S
C523 C522 1.355 . S
C523 C525 1.419 . S
C524 C522 1.415 . S
C524 C529 1.425 . S
C524 C531 1.409 . S
C525 H517 0.930 . S
C525 C523 1.419 . S
C525 C526 1.362 . S
C526 H518 0.930 . S
C526 C525 1.362 . S
C526 C529 1.409 . S
C527 H519 0.930 . S
C527 C528 1.355 . S
C527 C529 1.415 . S
C528 C527 1.355 . S
C528 C530 1.419 . S
C529 C524 1.425 . S
C529 C526 1.409 . S
C529 C527 1.415 . S
C530 H520 0.917 1_556 S
C530 C528 1.419 . S
C530 C531 1.362 . S
C531 H521 0.930 . S
C531 C524 1.409 . S
C531 C530 1.362 . S
H532 C538 0.930 . S
H533 C541 0.930 . S
H534 C542 0.930 . S
H535 C543 0.930 . S
H536 C546 0.930 1_455 S
H537 C547 0.930 1_455 S
C538 H532 0.930 . S
C538 C539 1.355 . S
C538 C540 1.415 . S
C539 C538 1.355 . S
C539 C541 1.419 . S
C540 C538 1.415 . S
C540 C545 1.425 . S
C540 C547 1.409 . S
C541 H533 0.930 . S
C541 C539 1.419 . S
C541 C542 1.362 . S
C542 H534 0.930 . S
C542 C541 1.362 . S
C542 C545 1.409 . S
C543 H535 0.930 . S
C543 C544 1.355 . S
C543 C545 1.415 . S
C544 C543 1.355 . S
C544 C546 1.419 . S
C545 C540 1.425 . S
C545 C542 1.409 . S
C545 C543 1.415 . S
C546 H536 0.930 1_655 S
C546 C544 1.419 . S
C546 C547 1.362 . S
C547 H537 0.930 1_655 S
C547 C540 1.409 . S
C547 C546 1.362 . S
H548 C554 0.930 . S
H549 C557 0.930 . S
H550 C558 0.930 . S
H551 C559 0.930 . S
H552 C562 0.930 . S
H553 C563 0.930 . S
C554 H548 0.930 . S
C554 C555 1.355 . S
C554 C556 1.415 . S
C555 C554 1.355 . S
C555 C557 1.419 . S
C556 C554 1.415 . S
C556 C561 1.425 . S
C556 C563 1.409 . S
C557 H549 0.930 . S
C557 C555 1.419 . S
C557 C558 1.362 . S
C558 H550 0.930 . S
C558 C557 1.362 . S
C558 C561 1.409 . S
C559 H551 0.930 . S
C559 C560 1.355 . S
C559 C561 1.415 . S
C560 C559 1.355 . S
C560 C562 1.419 . S
C561 C556 1.425 . S
C561 C558 1.409 . S
C561 C559 1.415 . S
C562 H552 0.930 . S
C562 C560 1.419 . S
C562 C563 1.362 . S
C563 H553 0.930 . S
C563 C556 1.409 . S
C563 C562 1.362 . S
H564 C570 0.930 . S
H565 C573 0.930 . S
H566 C574 0.930 1_455 S
H567 C575 0.930 1_455 S
H568 C578 0.930 . S
H569 C579 0.930 . S
C570 H564 0.930 . S
C570 C571 1.355 . S
C570 C572 1.415 . S
C571 C570 1.355 . S
C571 C573 1.419 . S
C572 C570 1.415 . S
C572 C577 1.425 . S
C572 C579 1.409 . S
C573 H565 0.930 . S
C573 C571 1.419 . S
C573 C574 1.362 . S
C574 H566 0.930 1_655 S
C574 C573 1.362 . S
C574 C577 1.409 . S
C575 H567 0.930 1_655 S
C575 C576 1.355 . S
C575 C577 1.415 . S
C576 C575 1.355 . S
C576 C578 1.419 . S
C577 C572 1.425 . S
C577 C574 1.409 . S
C577 C575 1.415 . S
C578 H568 0.930 . S
C578 C576 1.419 . S
C578 C579 1.362 . S
C579 H569 0.930 . S
C579 C572 1.409 . S
C579 C578 1.362 . S
H580 C586 0.930 . S
H581 C589 0.930 . S
H582 C590 0.930 . S
H583 C591 0.930 . S
H584 C594 0.928 . S
H585 C595 0.930 . S
C586 H580 0.930 . S
C586 C587 1.355 . S
C586 C588 1.415 . S
C587 C586 1.355 . S
C587 C589 1.419 . S
C588 C586 1.415 . S
C588 C593 1.425 . S
C588 C595 1.409 . S
C589 H581 0.930 . S
C589 C587 1.419 . S
C589 C590 1.362 . S
C590 H582 0.930 . S
C590 C589 1.362 . S
C590 C593 1.409 . S
C591 H583 0.930 . S
C591 C592 1.355 . S
C591 C593 1.415 . S
C592 C591 1.355 . S
C592 C594 1.419 . S
C593 C588 1.425 . S
C593 C590 1.409 . S
C593 C591 1.415 . S
C594 H584 0.928 . S
C594 C592 1.419 . S
C594 C595 1.362 . S
C595 H585 0.930 . S
C595 C588 1.409 . S
C595 C594 1.362 . S
H596 C602 0.930 . S
H597 C605 0.930 . S
H598 C606 0.930 . S
H599 C607 0.930 . S
H600 C610 0.930 . S
H601 C611 0.930 . S
C602 H596 0.930 . S
C602 C603 1.355 . S
C602 C604 1.415 . S
C603 C602 1.355 . S
C603 C605 1.419 . S
C604 C602 1.415 . S
C604 C609 1.425 . S
C604 C611 1.409 . S
C605 H597 0.930 . S
C605 C603 1.419 . S
C605 C606 1.362 . S
C606 H598 0.930 . S
C606 C605 1.362 . S
C606 C609 1.409 . S
C607 H599 0.930 . S
C607 C608 1.355 . S
C607 C609 1.415 . S
C608 C607 1.355 . S
C608 C610 1.419 . S
C609 C604 1.425 . S
C609 C606 1.409 . S
C609 C607 1.415 . S
C610 H600 0.930 . S
C610 C608 1.419 . S
C610 C611 1.362 . S
C611 H601 0.930 . S
C611 C604 1.409 . S
C611 C610 1.362 . S
H612 C618 0.930 . S
H613 C621 0.930 . S
H614 C622 0.930 . S
H615 C623 0.930 . S
H616 C626 0.930 . S
H617 C627 0.930 . S
C618 H612 0.930 . S
C618 C619 1.355 . S
C618 C620 1.415 . S
C619 C618 1.355 . S
C619 C621 1.419 . S
C620 C618 1.415 . S
C620 C625 1.425 . S
C620 C627 1.409 . S
C621 H613 0.930 . S
C621 C619 1.419 . S
C621 C622 1.362 . S
C622 H614 0.930 . S
C622 C621 1.362 . S
C622 C625 1.409 . S
C623 H615 0.930 . S
C623 C624 1.355 . S
C623 C625 1.415 . S
C624 C623 1.355 . S
C624 C626 1.419 . S
C625 C620 1.425 . S
C625 C622 1.409 . S
C625 C623 1.415 . S
C626 H616 0.930 . S
C626 C624 1.419 . S
C626 C627 1.362 . S
C627 H617 0.930 . S
C627 C620 1.409 . S
C627 C626 1.362 . S
H628 C634 0.930 . S
H629 C637 0.940 . S
H630 C638 0.950 . S
H631 C639 0.930 1_545 S
H632 C642 0.930 . S
H633 C643 0.930 . S
C634 H628 0.930 . S
C634 C635 1.355 . S
C634 C636 1.415 . S
C635 C634 1.355 . S
C635 C637 1.419 . S
C636 C634 1.415 . S
C636 C641 1.425 . S
C636 C643 1.409 . S
C637 H629 0.940 . S
C637 C635 1.419 . S
C637 C638 1.353 1_565 S
C638 H630 0.950 . S
C638 C637 1.353 1_545 S
C638 C641 1.400 1_545 S
C639 H631 0.930 1_565 S
C639 C640 1.355 . S
C639 C641 1.415 . S
C640 C639 1.355 . S
C640 C642 1.419 . S
C641 C636 1.425 . S
C641 C638 1.400 1_565 S
C641 C639 1.415 . S
C642 H632 0.930 . S
C642 C640 1.419 . S
C642 C643 1.362 . S
C643 H633 0.930 . S
C643 C636 1.409 . S
C643 C642 1.362 . S
H644 C650 0.930 . S
H645 C653 0.930 . S
H646 C654 0.930 . S
H647 C655 0.930 . S
H648 C658 0.930 . S
H649 C659 0.930 . S
C650 H644 0.930 . S
C650 C651 1.355 . S
C650 C652 1.415 . S
C651 C650 1.355 . S
C651 C653 1.419 . S
C652 C650 1.415 . S
C652 C657 1.425 . S
C652 C659 1.409 . S
C653 H645 0.930 . S
C653 C651 1.419 . S
C653 C654 1.362 . S
C654 H646 0.930 . S
C654 C653 1.362 . S
C654 C657 1.409 . S
C655 H647 0.930 . S
C655 C656 1.355 . S
C655 C657 1.415 . S
C656 C655 1.355 . S
C656 C658 1.419 . S
C657 C652 1.425 . S
C657 C654 1.409 . S
C657 C655 1.415 . S
C658 H648 0.930 . S
C658 C656 1.419 . S
C658 C659 1.362 . S
C659 H649 0.930 . S
C659 C652 1.409 . S
C659 C658 1.362 . S
H660 C666 0.930 . S
H661 C669 0.930 . S
H662 C670 0.930 . S
H663 C671 0.930 . S
H664 C674 0.930 1_556 S
H665 C675 0.930 . S
C666 H660 0.930 . S
C666 C667 1.355 . S
C666 C668 1.415 . S
C667 C666 1.355 . S
C667 C669 1.419 . S
C668 C666 1.415 . S
C668 C673 1.425 . S
C668 C675 1.409 . S
C669 H661 0.930 . S
C669 C667 1.419 . S
C669 C670 1.362 . S
C670 H662 0.930 . S
C670 C669 1.362 . S
C670 C673 1.409 . S
C671 H663 0.930 . S
C671 C672 1.355 . S
C671 C673 1.415 . S
C672 C671 1.355 . S
C672 C674 1.419 . S
C673 C668 1.425 . S
C673 C670 1.409 . S
C673 C671 1.415 . S
C674 H664 0.930 1_554 S
C674 C672 1.419 . S
C674 C675 1.362 . S
C675 H665 0.930 . S
C675 C668 1.409 . S
C675 C674 1.362 . S
H676 C682 0.930 . S
H677 C685 0.930 . S
H678 C686 0.930 . S
H679 C687 0.930 . S
H680 C690 0.930 . S
H681 C691 0.930 . S
C682 H676 0.930 . S
C682 C683 1.355 . S
C682 C684 1.415 . S
C683 C682 1.355 . S
C683 C685 1.419 . S
C684 C682 1.415 . S
C684 C689 1.425 . S
C684 C691 1.409 . S
C685 H677 0.930 . S
C685 C683 1.419 . S
C685 C686 1.362 . S
C686 H678 0.930 . S
C686 C685 1.362 . S
C686 C689 1.409 . S
C687 H679 0.930 . S
C687 C688 1.355 . S
C687 C689 1.415 . S
C688 C687 1.355 . S
C688 C690 1.419 . S
C689 C684 1.425 . S
C689 C686 1.409 . S
C689 C687 1.415 . S
C690 H680 0.930 . S
C690 C688 1.419 . S
C690 C691 1.362 . S
C691 H681 0.930 . S
C691 C684 1.409 . S
C691 C690 1.362 . S
H692 C698 0.930 . S
H693 C701 0.930 . S
H694 C702 0.930 . S
H695 C703 0.930 . S
H696 C706 0.940 1_455 S
H697 C707 0.930 1_455 S
C698 H692 0.930 . S
C698 C699 1.355 . S
C698 C700 1.415 . S
C699 C698 1.355 . S
C699 C701 1.419 . S
C700 C698 1.415 . S
C700 C705 1.425 . S
C700 C707 1.409 . S
C701 H693 0.930 . S
C701 C699 1.419 . S
C701 C702 1.362 . S
C702 H694 0.930 . S
C702 C701 1.362 . S
C702 C705 1.409 . S
C703 H695 0.930 . S
C703 C704 1.355 . S
C703 C705 1.415 . S
C704 C703 1.355 . S
C704 C706 1.419 . S
C705 C700 1.425 . S
C705 C702 1.409 . S
C705 C703 1.415 . S
C706 H696 0.940 1_655 S
C706 C704 1.419 . S
C706 C707 1.362 . S
C707 H697 0.930 1_655 S
C707 C700 1.409 . S
C707 C706 1.362 . S
H708 C714 0.930 . S
H709 C717 0.930 . S
H710 C718 0.930 . S
H711 C719 0.930 . S
H712 C722 0.930 . S
H713 C723 0.930 . S
C714 H708 0.930 . S
C714 C715 1.355 . S
C714 C716 1.415 . S
C715 C714 1.355 . S
C715 C717 1.419 . S
C716 C714 1.415 . S
C716 C721 1.425 . S
C716 C723 1.409 . S
C717 H709 0.930 . S
C717 C715 1.419 . S
C717 C718 1.362 . S
C718 H710 0.930 . S
C718 C717 1.362 . S
C718 C721 1.409 . S
C719 H711 0.930 . S
C719 C720 1.355 . S
C719 C721 1.415 . S
C720 C719 1.355 . S
C720 C722 1.419 . S
C721 C716 1.425 . S
C721 C718 1.409 . S
C721 C719 1.415 . S
C722 H712 0.930 . S
C722 C720 1.419 . S
C722 C723 1.362 . S
C723 H713 0.930 . S
C723 C716 1.409 . S
C723 C722 1.362 . S
H724 C730 0.930 . S
H725 C733 0.930 . S
H726 C734 0.930 . S
H727 C735 0.930 . S
H728 C738 0.930 . S
H729 C739 0.930 . S
C730 H724 0.930 . S
C730 C731 1.355 . S
C730 C732 1.415 . S
C731 C730 1.355 . S
C731 C733 1.419 . S
C732 C730 1.415 . S
C732 C737 1.425 . S
C732 C739 1.409 1_455 S
C733 H725 0.930 . S
C733 C731 1.419 . S
C733 C734 1.362 . S
C734 H726 0.930 . S
C734 C733 1.362 . S
C734 C737 1.409 . S
C735 H727 0.930 . S
C735 C736 1.355 . S
C735 C737 1.415 . S
C736 C735 1.355 . S
C736 C738 1.419 1_455 S
C737 C732 1.425 . S
C737 C734 1.409 . S
C737 C735 1.415 . S
C738 H728 0.930 . S
C738 C736 1.419 1_655 S
C738 C739 1.362 . S
C739 H729 0.930 . S
C739 C732 1.409 1_655 S
C739 C738 1.362 . S
H740 C746 0.930 . S
H741 C749 0.930 . S
H742 C750 0.930 . S
H743 C751 0.930 . S
H744 C754 0.930 . S
H745 C755 0.930 . S
C746 H740 0.930 . S
C746 C747 1.355 . S
C746 C748 1.415 . S
C747 C746 1.355 . S
C747 C749 1.419 . S
C748 C746 1.415 . S
C748 C753 1.425 . S
C748 C755 1.409 . S
C749 H741 0.930 . S
C749 C747 1.419 . S
C749 C750 1.362 . S
C750 H742 0.930 . S
C750 C749 1.362 . S
C750 C753 1.409 . S
C751 H743 0.930 . S
C751 C752 1.355 . S
C751 C753 1.415 . S
C752 C751 1.355 . S
C752 C754 1.419 . S
C753 C748 1.425 . S
C753 C750 1.409 . S
C753 C751 1.415 . S
C754 H744 0.930 . S
C754 C752 1.419 . S
C754 C755 1.362 . S
C755 H745 0.930 . S
C755 C748 1.409 . S
C755 C754 1.362 . S
C379 C1 1.599 . S
C384 C306 1.568 . S
C395 C67 1.495 . S
C400 C323 1.467 . S
C416 C346 1.205 . S
C411 C97 1.434 . S
C427 C133 1.864 . S
C432 C367 1.482 . S
C448 C326 1.718 . S
C443 C25 1.774 . S
C464 C303 1.630 . S
C459 C37 1.669 . S
C480 C365 1.380 . S
C475 C103 1.378 . S
C496 C344 1.448 . S
C491 C109 1.526 . S
C507 C31 1.713 . S
C512 C368 1.693 . S
C528 C325 1.237 . S
C523 C73 1.579 . S
C539 C139 1.715 . S
C544 C301 1.554 . S
C555 C61 1.471 . S
C560 C347 1.548 . S
C576 C305 1.600 . S
C571 C175 1.663 . S
C587 C181 1.297 . S
C592 C324 1.339 . S
C603 C247 1.545 . S
C608 C343 1.347 . S
C619 C277 1.756 . S
C624 C364 1.329 . S
C635 C145 1.752 . S
C640 C327 1.690 . S
C656 C302 1.764 . S
C651 C211 1.774 . S
C672 C366 1.260 . S
C667 C217 1.274 . S
C688 C345 1.541 . S
C683 C283 1.620 . S
C699 C169 1.566 . S
C704 C369 1.564 . S
C720 C322 1.260 . S
C715 C241 1.522 . S
C736 C304 1.420 . S
C731 C253 1.493 . S
C747 C205 1.445 . S
C752 C348 1.508 . S
