# Generated by pormake.
# Topology zzz, (3,6)-cn, num edge types: 1
# Building blocks:
#     Node 0, Type 0, BuildingBlock: KAKCAD_clean_linker_0, # of connection points: 3
#     Node 1, Type 0, BuildingBlock: KAKCAD_clean_linker_0, # of connection points: 3
#     Node 2, Type 0, BuildingBlock: KAKCAD_clean_linker_0, # of connection points: 3
#     Node 3, Type 0, BuildingBlock: KAKCAD_clean_linker_0, # of connection points: 3
#     Node 4, Type 0, BuildingBlock: KAKCAD_clean_linker_0, # of connection points: 3
#     Node 5, Type 0, BuildingBlock: KAKCAD_clean_linker_0, # of connection points: 3
#     Node 6, Type 0, BuildingBlock: KAKCAD_clean_linker_0, # of connection points: 3
#     Node 7, Type 0, BuildingBlock: KAKCAD_clean_linker_0, # of connection points: 3
#     Node 8, Type 1, BuildingBlock: GEDQOX_clean_sbu_0, # of connection points: 6
#     Node 9, Type 1, BuildingBlock: GEDQOX_clean_sbu_0, # of connection points: 6
#     Node 10, Type 1, BuildingBlock: GEDQOX_clean_sbu_0, # of connection points: 6
#     Node 11, Type 1, BuildingBlock: GEDQOX_clean_sbu_0, # of connection points: 6
#     Edge 12, Type (0, 1), BuildingBlock: MIFKUJ_clean_linker_0, # of connection points: 2
#     Edge 13, Type (0, 1), BuildingBlock: MIFKUJ_clean_linker_0, # of connection points: 2
#     Edge 14, Type (0, 1), BuildingBlock: MIFKUJ_clean_linker_0, # of connection points: 2
#     Edge 15, Type (0, 1), BuildingBlock: MIFKUJ_clean_linker_0, # of connection points: 2
#     Edge 16, Type (0, 1), BuildingBlock: MIFKUJ_clean_linker_0, # of connection points: 2
#     Edge 17, Type (0, 1), BuildingBlock: MIFKUJ_clean_linker_0, # of connection points: 2
#     Edge 18, Type (0, 1), BuildingBlock: MIFKUJ_clean_linker_0, # of connection points: 2
#     Edge 19, Type (0, 1), BuildingBlock: MIFKUJ_clean_linker_0, # of connection points: 2
#     Edge 20, Type (0, 1), BuildingBlock: MIFKUJ_clean_linker_0, # of connection points: 2
#     Edge 21, Type (0, 1), BuildingBlock: MIFKUJ_clean_linker_0, # of connection points: 2
#     Edge 22, Type (0, 1), BuildingBlock: MIFKUJ_clean_linker_0, # of connection points: 2
#     Edge 23, Type (0, 1), BuildingBlock: MIFKUJ_clean_linker_0, # of connection points: 2
#     Edge 24, Type (0, 1), BuildingBlock: MIFKUJ_clean_linker_0, # of connection points: 2
#     Edge 25, Type (0, 1), BuildingBlock: MIFKUJ_clean_linker_0, # of connection points: 2
#     Edge 26, Type (0, 1), BuildingBlock: MIFKUJ_clean_linker_0, # of connection points: 2
#     Edge 27, Type (0, 1), BuildingBlock: MIFKUJ_clean_linker_0, # of connection points: 2
#     Edge 28, Type (0, 1), BuildingBlock: MIFKUJ_clean_linker_0, # of connection points: 2
#     Edge 29, Type (0, 1), BuildingBlock: MIFKUJ_clean_linker_0, # of connection points: 2
#     Edge 30, Type (0, 1), BuildingBlock: MIFKUJ_clean_linker_0, # of connection points: 2
#     Edge 31, Type (0, 1), BuildingBlock: MIFKUJ_clean_linker_0, # of connection points: 2
#     Edge 32, Type (0, 1), BuildingBlock: MIFKUJ_clean_linker_0, # of connection points: 2
#     Edge 33, Type (0, 1), BuildingBlock: MIFKUJ_clean_linker_0, # of connection points: 2
#     Edge 34, Type (0, 1), BuildingBlock: MIFKUJ_clean_linker_0, # of connection points: 2
#     Edge 35, Type (0, 1), BuildingBlock: MIFKUJ_clean_linker_0, # of connection points: 2
# Relax obj value: 0.301
# Max RMSD: 0.252
# Mean RMSD: 0.203
data_MOF--net-zzz--node1-GEDQOX_clean_sbu_0--node2-KAKCAD_clean_linker_0--edge1-MIFKUJ_clean_linker_0
_symmetry_space_group_name_H-M    P1
_symmetry_Int_Tables_number       1
_symmetry_cell_setting            triclinic
loop_
_symmetry_equiv_pos_as_xyz
'x, y, z'
_cell_length_a     78.426778
_cell_length_b     72.086777
_cell_length_c     26.232873
_cell_angle_alpha  84.095593
_cell_angle_beta   91.854258
_cell_angle_gamma 100.82586
loop_
_atom_site_label
_atom_site_type_symbol
_atom_site_fract_x
_atom_site_fract_y
_atom_site_fract_z
_atom_type_partial_charge
C0 C 0.79505 0.43505 0.9364 0.0
C1 C 0.80755 0.42386 0.95181 0.0
C2 C 0.78261 0.43757 0.97073 0.0
C3 C 0.78221 0.42877 0.02119 0.0
C4 C 0.79393 0.41652 0.03543 0.0
C5 C 0.80651 0.41419 1.00132 0.0
C6 C 0.77068 0.43357 0.05993 0.0
C7 C 0.75397 0.43698 0.04643 0.0
C8 C 0.7437 0.44295 0.08215 0.0
C9 C 0.75016 0.44539 0.1321 0.0
C10 C 0.76683 0.44207 0.14624 0.0
C11 C 0.77692 0.43611 0.11004 0.0
C12 C 0.77453 0.44616 0.19722 0.0
C13 C 0.77437 0.4637 0.2159 0.0
C14 C 0.78364 0.43334 0.22498 0.0
C15 C 0.79313 0.43831 0.26909 0.0
C16 C 0.79388 0.45632 0.2862 0.0
C17 C 0.72653 0.44748 0.06631 0.0
C18 C 0.72502 0.46004 0.02258 0.0
C19 C 0.71162 0.43931 0.09449 0.0
C20 C 0.69541 0.44342 0.07871 0.0
C21 C 0.69381 0.45608 0.0349 0.0
C22 C 0.70889 0.46443 0.00731 0.0
C23 C 0.78399 0.46876 0.25987 0.0
H24 H 0.79523 0.44242 0.89825 0.0
H25 H 0.77386 0.44717 0.95833 0.0
H26 H 0.79378 0.40917 0.07361 0.0
H27 H 0.81595 0.40555 0.01485 0.0
H28 H 0.74889 0.435 0.00806 0.0
H29 H 0.79008 0.43444 0.12032 0.0
H30 H 0.74239 0.45029 0.15954 0.0
H31 H 0.76759 0.47394 0.19498 0.0
H32 H 0.7838 0.41962 0.21175 0.0
H33 H 0.80024 0.4282 0.28909 0.0
H34 H 0.73638 0.46671 1.00058 0.0
H35 H 0.71248 0.42947 0.12818 0.0
H36 H 0.78437 0.4828 0.27162 0.0
H37 H 0.70835 0.47458 0.97418 0.0
H38 H 0.68411 0.43642 0.10051 0.0
C39 C 0.89545 0.78956 0.03605 0.0
C40 C 0.90723 0.79229 0.99549 0.0
C41 C 0.89436 0.7737 0.07209 0.0
C42 C 0.90508 0.7603 0.06829 0.0
C43 C 0.91559 0.76213 0.025 0.0
C44 C 0.91664 0.77794 0.98898 0.0
C45 C 0.90758 0.74644 0.11262 0.0
C46 C 0.91065 0.72837 0.10507 0.0
C47 C 0.91688 0.71693 0.14535 0.0
C48 C 0.91977 0.72358 0.19411 0.0
C49 C 0.91587 0.74124 0.20276 0.0
C50 C 0.90972 0.75247 0.16199 0.0
C51 C 0.91973 0.74933 0.25241 0.0
C52 C 0.90688 0.75642 0.27631 0.0
C53 C 0.93683 0.75276 0.2716 0.0
C54 C 0.94121 0.76417 0.3119 0.0
C55 C 0.92849 0.7721 0.33411 0.0
C56 C 0.92182 0.69894 0.13414 0.0
C57 C 0.91007 0.68565 0.1087 0.0
C58 C 0.9389 0.696 0.14329 0.0
C59 C 0.94435 0.68053 0.12503 0.0
C60 C 0.93274 0.66757 0.09807 0.0
C61 C 0.91543 0.67001 0.09122 0.0
C62 C 0.91118 0.76758 0.31703 0.0
H63 H 0.8878 0.80023 0.04155 0.0
H64 H 0.88588 0.77248 0.10452 0.0
H65 H 0.92416 0.75222 0.02103 0.0
H66 H 0.92598 0.77964 0.95853 0.0
H67 H 0.90911 0.72361 0.06703 0.0
H68 H 0.90791 0.76662 0.16808 0.0
H69 H 0.92504 0.71508 0.22504 0.0
H70 H 0.89362 0.75405 0.26188 0.0
H71 H 0.947 0.74762 0.25337 0.0
H72 H 0.95463 0.76733 0.32456 0.0
H73 H 0.89684 0.68766 0.10108 0.0
H74 H 0.94825 0.70617 0.16233 0.0
H75 H 0.90113 0.77359 0.33307 0.0
H76 H 0.90624 0.6603 0.07035 0.0
H77 H 0.95774 0.67888 0.13111 0.0
C78 C 0.71197 0.02028 0.9527 0.0
C79 C 0.70189 0.03356 0.96329 0.0
C80 C 0.72384 0.0146 0.98923 0.0
C81 C 0.72593 0.02221 0.03684 0.0
C82 C 0.71657 0.03636 0.04589 0.0
C83 C 0.70461 0.04188 0.00965 0.0
C84 C 0.73686 0.01455 0.07822 0.0
C85 C 0.75272 0.0096 0.06724 0.0
C86 C 0.76272 1.0017 0.10621 0.0
C87 C 0.75668 0.99874 0.15696 0.0
C88 C 0.74085 1.00375 0.16846 0.0
C89 C 0.73109 0.01157 0.12898 0.0
C90 C 0.73379 1.00049 0.22099 0.0
C91 C 0.72996 0.9821 0.24634 0.0
C92 C 0.72853 0.01546 0.24276 0.0
C93 C 0.71873 0.01198 0.28735 0.0
C94 C 0.71373 0.99339 0.31088 0.0
C95 C 0.77963 0.99711 0.09311 0.0
C96 C 0.78093 0.98761 0.04964 0.0
C97 C 0.79477 1.00357 0.12108 0.0
C98 C 0.81101 1.00148 0.10425 0.0
C99 C 0.8124 0.99277 0.05929 0.0
C100 C 0.7971 0.98541 0.03303 0.0
C101 C 0.71997 0.97856 0.29087 0.0
H102 H 0.71001 0.01355 0.91737 0.0
H103 H 0.73074 1.00358 0.98112 0.0
H104 H 0.71817 0.04287 0.08159 0.0
H105 H 0.69714 0.05234 0.01841 0.0
H106 H 0.75749 0.01228 0.02836 0.0
H107 H 0.71861 0.01477 0.13779 0.0
H108 H 0.76422 0.99259 0.18728 0.0
H109 H 0.73375 0.97031 0.22996 0.0
H110 H 0.73143 0.02978 0.22403 0.0
H111 H 0.71455 0.02381 0.30239 0.0
H112 H 0.76943 0.98223 0.02779 0.0
H113 H 0.79415 0.01106 0.15451 0.0
H114 H 0.71631 0.96406 0.30782 0.0
H115 H 0.79764 0.97823 0.99898 0.0
H116 H 0.82252 1.00746 0.12519 0.0
C117 C 0.55728 0.74288 0.47624 0.0
C118 C 0.56903 0.73123 0.49559 0.0
C119 C 0.56171 0.7566 0.43457 0.0
C120 C 0.57794 0.75889 0.4112 0.0
C121 C 0.59 0.74797 0.43232 0.0
C122 C 0.58562 0.73432 0.47391 0.0
C123 C 0.58176 0.77106 0.36199 0.0
C124 C 0.57762 0.78936 0.35378 0.0
C125 C 0.58118 0.80028 0.3064 0.0
C126 C 0.58848 0.79269 0.26703 0.0
C127 C 0.59175 0.77413 0.27348 0.0
C128 C 0.58868 0.76359 0.32143 0.0
C129 C 0.59628 0.76497 0.22874 0.0
C130 C 0.58795 0.76798 0.18109 0.0
C131 C 0.60754 0.7518 0.23424 0.0
C132 C 0.60951 0.74103 0.19413 0.0
C133 C 0.60034 0.7433 0.14764 0.0
C134 C 0.57588 0.8189 0.29457 0.0
C135 C 0.55819 0.81992 0.29044 0.0
C136 C 0.58827 0.83488 0.27749 0.0
C137 C 0.58304 0.85126 0.25408 0.0
C138 C 0.56531 0.8518 0.24644 0.0
C139 C 0.55294 0.8362 0.26623 0.0
C140 C 0.59001 0.75732 0.14101 0.0
H141 H 0.54448 0.74106 0.49244 0.0
H142 H 0.55211 0.76474 0.4191 0.0
H143 H 0.60269 0.74953 0.41548 0.0
H144 H 0.59497 0.72556 0.48735 0.0
H145 H 0.57177 0.79511 0.384 0.0
H146 H 0.5907 0.74904 0.32641 0.0
H147 H 0.59085 0.80103 0.23026 0.0
H148 H 0.57896 0.77774 0.17559 0.0
H149 H 0.61437 0.74937 0.27013 0.0
H150 H 0.61768 0.73042 0.20014 0.0
H151 H 0.54842 0.80766 0.30264 0.0
H152 H 0.60198 0.83429 0.27973 0.0
H153 H 0.58252 0.75918 0.10604 0.0
H154 H 0.5392 0.8363 0.26109 0.0
H155 H 0.59285 0.863 0.23891 0.0
C156 C 0.21467 0.61399 0.57896 0.0
C157 C 0.21063 0.60294 0.62595 0.0
C158 C 0.22749 0.61032 0.54771 0.0
C159 C 0.23677 0.59581 0.56325 0.0
C160 C 0.23382 0.58586 0.61192 0.0
C161 C 0.2208 0.5893 0.64287 0.0
C162 C 0.24756 0.58919 0.52623 0.0
C163 C 0.26447 0.58645 0.53909 0.0
C164 C 0.27386 0.57818 0.50571 0.0
C165 C 0.26611 0.57259 0.45917 0.0
C166 C 0.24911 0.57509 0.44627 0.0
C167 C 0.24007 0.58365 0.47964 0.0
C168 C 0.24015 0.56762 0.39997 0.0
C169 C 0.24772 0.57217 0.3514 0.0
C170 C 0.22355 0.5562 0.40431 0.0
C171 C 0.21455 0.54973 0.36096 0.0
C172 C 0.22186 0.55463 0.31214 0.0
C173 C 0.29128 0.57428 0.52123 0.0
C174 C 0.30391 0.58838 0.54082 0.0
C175 C 0.29514 0.55614 0.51856 0.0
C176 C 0.31118 0.55208 0.53603 0.0
C177 C 0.32377 0.56615 0.5559 0.0
C178 C 0.32006 0.5844 0.55762 0.0
C179 C 0.23858 0.56587 0.30772 0.0
H180 H 0.2074 0.62492 0.56523 0.0
H181 H 0.22967 0.61828 0.51041 0.0
H182 H 0.24071 0.57447 0.62451 0.0
H183 H 0.21798 0.58034 0.67843 0.0
H184 H 0.2701 0.59025 0.57575 0.0
H185 H 0.22685 0.58536 0.47019 0.0
H186 H 0.2731 0.56582 0.43374 0.0
H187 H 0.26049 0.58099 0.34711 0.0
H188 H 0.21749 0.55234 0.44138 0.0
H189 H 0.20162 0.54128 0.36553 0.0
H190 H 0.30127 0.60249 0.54316 0.0
H191 H 0.28558 0.54496 0.5041 0.0
H192 H 0.24454 0.56979 0.27054 0.0
H193 H 0.32951 0.59546 0.57302 0.0
H194 H 0.31377 0.53794 0.53393 0.0
C195 C 0.09164 0.23729 0.60191 0.0
C196 C 0.10272 0.22429 0.59822 0.0
C197 C 0.09186 0.25261 0.56479 0.0
C198 C 0.10324 0.25535 0.5232 0.0
C199 C 0.11544 0.24337 0.52217 0.0
C200 C 0.11515 0.22793 0.55929 0.0
C201 C 0.1005 0.26874 0.47801 0.0
C202 C 0.09532 0.2859 0.48445 0.0
C203 C 0.08905 0.29671 0.44287 0.0
C204 C 0.08889 0.29071 0.39335 0.0
C205 C 0.09464 0.27378 0.38593 0.0
C206 C 0.1004 0.263 0.42854 0.0
C207 C 0.09285 0.26564 0.33571 0.0
C208 C 0.07708 0.26387 0.30807 0.0
C209 C 0.10598 0.2568 0.31956 0.0
C210 C 0.10292 0.24513 0.27965 0.0
C211 C 0.08668 0.24211 0.25444 0.0
C212 C 0.08138 0.31322 0.45345 0.0
C213 C 0.06966 0.31115 0.49394 0.0
C214 C 0.08659 0.33124 0.42685 0.0
C215 C 0.08092 0.34709 0.44259 0.0
C216 C 0.06997 0.34509 0.48511 0.0
C217 C 0.06404 0.32686 0.50958 0.0
C218 C 0.07403 0.25225 0.2678 0.0
H219 H 0.08171 0.23473 0.63088 0.0
H220 H 0.08212 0.26135 0.5666 0.0
H221 H 0.12459 0.24532 0.49114 0.0
H222 H 0.12395 0.21822 0.55583 0.0
H223 H 0.09551 0.29052 0.52255 0.0
H224 H 0.10355 0.24929 0.4236 0.0
H225 H 0.08377 0.29878 0.36123 0.0
H226 H 0.06668 0.27045 0.31967 0.0
H227 H 0.11834 0.25803 0.33985 0.0
H228 H 0.11298 0.23755 0.27094 0.0
H229 H 0.06514 0.29736 0.51446 0.0
H230 H 0.09562 0.3332 0.39552 0.0
H231 H 0.0615 0.2506 0.24855 0.0
H232 H 0.05525 0.32477 0.54154 0.0
H233 H 0.08566 0.36097 0.42292 0.0
C234 C 0.30354 0.98553 0.66741 0.0
C235 C 0.31787 0.99916 0.68086 0.0
C236 C 0.29215 0.99002 0.62791 0.0
C237 C 0.29504 1.0081 0.60068 0.0
C238 C 0.3089 0.02192 0.61512 0.0
C239 C 0.32007 0.01758 0.65519 0.0
C240 C 0.28419 0.01229 0.55551 0.0
C241 C 0.2662 0.0104 0.55989 0.0
C242 C 0.25586 0.01463 0.51701 0.0
C243 C 0.26375 0.02019 0.46889 0.0
C244 C 0.28183 0.02198 0.46421 0.0
C245 C 0.29193 0.01824 0.50783 0.0
C246 C 0.29054 0.02733 0.4142 0.0
C247 C 0.28658 0.01572 0.37403 0.0
C248 C 0.30445 0.04275 0.40887 0.0
C249 C 0.31472 0.04604 0.36518 0.0
C250 C 0.31155 0.03375 0.32614 0.0
C251 C 0.23707 0.01418 0.5241 0.0
C252 C 0.22713 0.99923 0.55512 0.0
C253 C 0.2294 0.02959 0.50443 0.0
C254 C 0.21243 0.03045 0.51762 0.0
C255 C 0.20276 0.01587 0.55047 0.0
C256 C 0.21017 1.00005 0.5681 0.0
C257 C 0.29704 0.01884 0.33049 0.0
H258 H 0.30151 0.97116 0.68581 0.0
H259 H 0.28152 0.97915 0.61717 0.0
H260 H 0.3112 0.03604 0.59498 0.0
H261 H 0.33065 0.02861 0.66535 0.0
H262 H 0.26038 1.00631 0.59726 0.0
H263 H 0.30585 0.01948 0.50439 0.0
H264 H 0.25592 0.02327 0.43539 0.0
H265 H 0.27602 1.00361 0.37761 0.0
H266 H 0.3077 0.05194 0.43932 0.0
H267 H 0.32544 0.05798 0.36268 0.0
H268 H 0.23266 0.9871 0.57053 0.0
H269 H 0.23678 0.04138 0.48072 0.0
H270 H 0.29423 0.00898 0.30153 0.0
H271 H 0.20313 0.98862 0.59367 0.0
H272 H 0.20699 0.0427 0.50281 0.0
C273 C 0.43314 0.27679 0.09712 0.0
C274 C 0.45 0.28284 0.07773 0.0
C275 C 0.42999 0.26305 0.13912 0.0
C276 C 0.44362 0.25505 0.16293 0.0
C277 C 0.46019 0.25997 0.1411 0.0
C278 C 0.46334 0.27371 0.09899 0.0
C279 C 0.44125 0.2443 0.21464 0.0
C280 C 0.44889 0.22823 0.22844 0.0
C281 C 0.44856 0.2202 0.27965 0.0
C282 C 0.44081 0.22834 0.31696 0.0
C283 C 0.43308 0.24426 0.30411 0.0
C284 C 0.43297 0.25178 0.25252 0.0
C285 C 0.42718 0.25429 0.3454 0.0
C286 C 0.42048 0.24427 0.39168 0.0
C287 C 0.42999 0.27425 0.34101 0.0
C288 C 0.42711 0.28387 0.38236 0.0
C289 C 0.42172 0.27386 0.4296 0.0
C290 C 0.45713 0.20399 0.29673 0.0
C291 C 0.47119 0.20662 0.33137 0.0
C292 C 0.44941 0.1855 0.28685 0.0
C293 C 0.45495 0.16982 0.31387 0.0
C294 C 0.46827 0.17245 0.35123 0.0
C295 C 0.47675 0.19103 0.35813 0.0
C296 C 0.41803 0.25397 0.43364 0.0
H297 H 0.42254 0.2835 0.08202 0.0
H298 H 0.41703 0.25942 0.15471 0.0
H299 H 0.47099 0.25416 0.15861 0.0
H300 H 0.47642 0.27776 0.08442 0.0
H301 H 0.45545 0.22236 0.19995 0.0
H302 H 0.42722 0.26419 0.24212 0.0
H303 H 0.44151 0.22259 0.35664 0.0
H304 H 0.41773 0.22891 0.39624 0.0
H305 H 0.43548 0.28261 0.30678 0.0
H306 H 0.4303 0.29923 0.37833 0.0
H307 H 0.47725 0.22079 0.33974 0.0
H308 H 0.43836 0.18318 0.26087 0.0
H309 H 0.41381 0.24595 0.46968 0.0
H310 H 0.48728 0.19356 0.38579 0.0
H311 H 0.44808 0.15571 0.30779 0.0
Nd312 Nd -0.00254 1.00477 0.74804 0.0
Nd313 Nd 0.01805 0.01255 0.84483 0.0
C314 C 0.97556 0.98979 0.67801 0.0
C315 C 0.97153 0.9708 0.65924 0.0
C316 C 0.95431 0.96251 0.64837 0.0
C317 C 0.95056 0.9448 0.62881 0.0
C318 C 0.96402 0.9352 0.61937 0.0
C319 C 0.98119 0.94332 0.63155 0.0
C320 C 0.9849 0.96086 0.6516 0.0
C321 C 0.03243 0.01623 0.73335 0.0
C322 C 0.0068 0.9686 0.8214 0.0
C323 C 0.04109 0.02132 0.91813 0.0
C324 C 0.04529 0.0388 0.94407 0.0
C325 C 0.0599 0.04216 0.97638 0.0
C326 C 0.06385 0.05908 0.99996 0.0
C327 C 0.05316 0.0728 0.99173 0.0
C328 C 0.03868 0.06942 0.95873 0.0
C329 C 0.03483 0.05263 0.93502 0.0
C330 C 0.98339 0.01386 0.85167 0.0
C331 C 0.00768 0.04772 0.77182 0.0
O332 O 0.97085 0.99104 0.72471 0.0
O333 O 0.99101 0.99963 0.66749 0.0
O334 O 0.02067 0.02213 0.70334 0.0
O335 O 0.02565 1.00445 0.76944 0.0
O336 O 0.00219 0.97506 0.77522 0.0
O337 O 0.01297 0.98005 0.85656 0.0
O338 O 0.04507 0.02336 0.86953 0.0
O339 O 0.02563 0.01107 0.9271 0.0
O340 O 0.99568 0.02596 0.87066 0.0
O341 O 0.98962 1.00173 0.83075 0.0
O342 O 0.01991 0.04178 0.80112 0.0
O343 O 0.99502 0.03578 0.75174 0.0
H344 H 0.9438 0.96986 0.65439 0.0
H345 H 0.93721 0.93886 0.61966 0.0
H346 H 0.99177 0.93611 0.62541 0.0
H347 H -0.00172 0.96675 0.66054 0.0
H348 H 0.06822 0.03173 0.98334 0.0
H349 H 0.07508 0.0613 0.02526 0.0
H350 H 0.0304 0.07986 0.9508 0.0
H351 H 0.02367 0.05045 0.90945 0.0
Nd352 Nd 0.51179 0.98682 0.76634 0.0
Nd353 Nd 0.50197 0.02282 0.82052 0.0
C354 C 0.52495 0.95785 0.74317 0.0
C355 C 0.53985 0.958 0.7105 0.0
C356 C 0.54683 0.94163 0.70752 0.0
C357 C 0.56172 0.94249 0.67849 0.0
C358 C 0.56985 0.95979 0.65226 0.0
C359 C 0.56279 0.97614 0.65599 0.0
C360 C 0.54794 0.97523 0.68459 0.0
C361 C 0.50283 0.01569 0.70097 0.0
C362 C 0.5395 0.02738 0.76741 0.0
C363 C 0.4845 0.04896 0.84129 0.0
C364 C 0.471 0.04952 0.8788 0.0
C365 C 0.45575 0.05594 0.86196 0.0
C366 C 0.44208 0.05492 0.89573 0.0
C367 C 0.44343 0.04756 0.94717 0.0
C368 C 0.45881 0.04135 0.96411 0.0
C369 C 0.47242 0.04221 0.9302 0.0
C370 C 0.51729 0.99859 0.88838 0.0
C371 C 0.47504 0.98113 0.82747 0.0
O372 O 0.52898 0.966 0.78551 0.0
O373 O 0.51124 0.96283 0.71945 0.0
O374 O 0.51239 1.00416 0.68757 0.0
O375 O 0.49669 0.01019 0.74506 0.0
O376 O 0.53704 1.00867 0.76747 0.0
O377 O 0.52743 0.03665 0.78033 0.0
O378 O 0.47963 0.03744 0.80591 0.0
O379 O 0.50029 0.04844 0.85892 0.0
O380 O 0.51324 0.01412 0.90159 0.0
O381 O 0.51338 0.9975 0.84205 0.0
O382 O 0.47908 0.99869 0.84057 0.0
O383 O 0.48489 0.97345 0.79865 0.0
H384 H 0.54086 0.92826 0.72788 0.0
H385 H 0.56678 0.92962 0.67629 0.0
H386 H 0.56893 0.9898 0.63758 0.0
H387 H 0.54291 0.98809 0.68718 0.0
H388 H 0.4543 0.06143 0.82236 0.0
H389 H 0.43047 0.05997 0.88162 0.0
H390 H 0.46017 0.03539 1.00332 0.0
H391 H 0.48389 0.0368 0.94401 0.0
Nd392 Nd 0.49795 0.51528 0.84712 0.0
Nd393 Nd 0.51654 0.50406 0.76123 0.0
C394 C 0.48235 0.53506 0.90347 0.0
C395 C 0.48866 0.55455 0.91775 0.0
C396 C 0.48679 0.57045 0.88355 0.0
C397 C 0.49612 0.58847 0.89151 0.0
C398 C 0.50747 0.59097 0.93385 0.0
C399 C 0.50834 0.5753 0.96987 0.0
C400 C 0.49895 0.55735 0.96211 0.0
C401 C 0.52875 0.50424 0.87588 0.0
C402 C 0.52487 0.54783 0.7746 0.0
C403 C 0.53199 0.48457 0.70415 0.0
C404 C 0.52365 0.46684 0.68374 0.0
C405 C 0.53279 0.45211 0.67979 0.0
C406 C 0.52398 0.43448 0.66635 0.0
C407 C 0.50596 0.43146 0.65676 0.0
C408 C 0.49693 0.44628 0.66097 0.0
C409 C 0.50566 0.46373 0.67446 0.0
C410 C 0.48597 0.51549 0.73227 0.0
C411 C 0.48901 0.47134 0.83228 0.0
O412 O 0.47851 0.5335 0.85497 0.0
O413 O 0.49104 0.52217 0.92325 0.0
O414 O 0.51497 0.5001 0.90386 0.0
O415 O 0.52632 0.51466 0.83576 0.0
O416 O 0.51088 0.54375 0.80336 0.0
O417 O 0.532 0.53423 0.75927 0.0
O418 O 0.53372 0.48331 0.75409 0.0
O419 O 0.52603 0.49971 0.68556 0.0
O420 O 0.49984 0.51968 0.70472 0.0
O421 O 0.48819 0.50479 0.77208 0.0
O422 O 0.50229 0.47537 0.80074 0.0
O423 O 0.48294 0.48483 0.85216 0.0
H424 H 0.47883 0.56885 0.84919 0.0
H425 H 0.49485 0.60031 0.86363 0.0
H426 H 0.51702 0.57661 1.00279 0.0
H427 H 0.5006 0.54546 0.98944 0.0
H428 H 0.5466 0.45413 0.68805 0.0
H429 H 0.53124 0.42326 0.66332 0.0
H430 H 0.483 0.44425 0.65504 0.0
H431 H 0.49821 0.47467 0.67903 0.0
Nd432 Nd 0.0002 0.52563 0.7489 0.0
Nd433 Nd 0.01546 0.49704 0.83394 0.0
C434 C 0.97929 0.54745 0.70636 0.0
C435 C 0.96356 0.54158 0.67565 0.0
C436 C 0.9526 0.55428 0.65864 0.0
C437 C 0.93737 0.548 0.63089 0.0
C438 C 0.93297 0.52893 0.61991 0.0
C439 C 0.94398 0.5163 0.6377 0.0
C440 C 0.95912 0.52258 0.66507 0.0
C441 C 0.0106 0.49647 0.7041 0.0
C442 C 0.97638 0.48449 0.79512 0.0
C443 C 0.03593 0.47709 0.88807 0.0
C444 C 0.05332 0.48196 0.91168 0.0
C445 C 0.06687 0.49434 0.88507 0.0
C446 C 0.08284 0.50005 0.9094 0.0
C447 C 0.08559 0.49356 0.96092 0.0
C448 C 0.07205 0.48093 0.98711 0.0
C449 C 0.0561 0.47519 0.96268 0.0
C450 C -0.00178 0.5228 0.8688 0.0
C451 C 0.04042 0.53749 0.78351 0.0
O452 O 0.9782 0.54051 0.7546 0.0
O453 O 0.99395 0.54615 0.68542 0.0
O454 O 0.00464 0.51018 0.67774 0.0
O455 O 0.0108 0.49924 0.75048 0.0
O456 O 0.97723 0.50249 0.77726 0.0
O457 O 0.9902 0.47767 0.81288 0.0
O458 O 0.03509 0.47849 0.83789 0.0
O459 O 0.02357 0.48369 0.90851 0.0
O460 O -0.00267 0.50564 0.89085 0.0
O461 O 0.00854 0.52599 0.83172 0.0
O462 O 0.03881 0.52105 0.81253 0.0
O463 O 0.02736 0.54323 0.75716 0.0
H464 H 0.95579 0.56896 0.66678 0.0
H465 H 0.9292 0.55809 0.61745 0.0
H466 H 0.94082 0.50146 0.63093 0.0
H467 H 0.96735 0.51251 0.67837 0.0
H468 H 0.06506 0.49988 0.8457 0.0
H469 H 0.09302 0.50959 0.88784 0.0
H470 H 0.07357 0.47589 0.02702 0.0
H471 H 0.04578 0.46578 0.98405 0.0
H472 H 0.17361 0.98812 0.56109 0.0
H473 H 0.14543 0.99052 0.5944 0.0
H474 H 0.16421 0.04962 0.61348 0.0
H475 H 0.1926 0.0472 0.58146 0.0
H476 H 0.14601 0.03169 0.69642 0.0
H477 H 0.13789 0.03759 0.51407 0.0
H478 H 0.13877 0.02834 0.42641 0.0
H479 H 0.10397 0.97594 0.46935 0.0
H480 H 0.10306 0.98476 0.55751 0.0
H481 H 0.04797 0.03887 0.65239 0.0
H482 H 0.07775 0.04174 0.62347 0.0
H483 H 0.08834 1.00351 0.7532 0.0
H484 H 0.05849 1.00066 0.78253 0.0
H485 H 0.09223 0.01378 0.59395 0.0
H486 H 0.13137 0.01492 0.78488 0.0
H487 H 0.1303 0.02655 0.86977 0.0
H488 H 0.10313 0.06989 0.80401 0.0
H489 H 0.10407 0.05857 0.71877 0.0
C490 C 0.17177 1.00161 0.57255 0.0
C491 C 0.18534 0.01749 0.56836 0.0
C492 C 0.15563 1.00299 0.59134 0.0
C493 C 0.15268 0.02029 0.60612 0.0
C494 C 0.1662 0.03614 0.60227 0.0
C495 C 0.18235 0.03478 0.58339 0.0
C496 C 0.13541 0.02185 0.62508 0.0
C497 C 0.13425 0.02778 0.67403 0.0
C498 C 0.12009 0.01708 0.59555 0.0
C499 C 0.12053 0.01177 0.5425 0.0
C500 C 0.13052 0.02403 0.50492 0.0
C501 C 0.13101 0.01888 0.45512 0.0
C502 C 0.12146 1.00154 0.44235 0.0
C503 C 0.11137 0.98935 0.47932 0.0
C504 C 0.11085 0.99443 0.52919 0.0
C505 C 0.0567 0.03123 0.67506 0.0
C506 C 0.0509 0.0194 0.71943 0.0
C507 C 0.07369 0.03285 0.65842 0.0
C508 C 0.08525 0.02281 0.68605 0.0
C509 C 0.07968 0.0115 0.73148 0.0
C510 C 0.06263 0.00984 0.74813 0.0
C511 C 0.10278 0.02331 0.66561 0.0
C512 C 0.10398 0.01771 0.61637 0.0
C513 C 0.11812 0.02872 0.69452 0.0
C514 C 0.11767 0.03578 0.74553 0.0
C515 C 0.12521 0.02696 0.78853 0.0
C516 C 0.12458 0.03347 0.83673 0.0
C517 C 0.11656 0.04888 0.84233 0.0
C518 C 0.1092 0.05786 0.7997 0.0
C519 C 0.10975 0.05138 0.75146 0.0
H520 H 0.11608 0.0539 0.87966 0.0
H521 H 0.12186 0.99758 0.40378 0.0
H522 H 0.47124 0.1369 0.32723 0.0
H523 H 0.47686 0.10999 0.38616 0.0
H524 H 0.47956 0.1441 0.51304 0.0
H525 H 0.47404 0.17093 0.45462 0.0
H526 H 0.5047 0.12443 0.52205 0.0
H527 H 0.44338 0.11048 0.48961 0.0
H528 H 0.41663 0.10537 0.43682 0.0
H529 H 0.43298 0.05881 0.37473 0.0
H530 H 0.45995 0.06381 0.42667 0.0
H531 H 0.49589 0.04958 0.72482 0.0
H532 H 0.48929 0.07588 0.66508 0.0
H533 H 0.49374 0.04372 0.53785 0.0
H534 H 0.50015 0.01741 0.59756 0.0
H535 H 0.46486 0.06202 0.52916 0.0
H536 H 0.52633 0.07636 0.56427 0.0
H537 H 0.5522 0.08122 0.62073 0.0
H538 H 0.53453 0.12731 0.68125 0.0
H539 H 0.50837 0.12249 0.62577 0.0
C540 C 0.47301 0.13864 0.36769 0.0
C541 C 0.47228 0.15612 0.3861 0.0
C542 C 0.4762 0.12324 0.40138 0.0
C543 C 0.47848 0.12494 0.45422 0.0
C544 C 0.47794 0.14243 0.47249 0.0
C545 C 0.47484 0.15781 0.43891 0.0
C546 C 0.48135 0.10854 0.49073 0.0
C547 C 0.49586 0.11086 0.52394 0.0
C548 C 0.46998 0.09071 0.49286 0.0
C549 C 0.45377 0.08765 0.46161 0.0
C550 C 0.44134 0.09925 0.46438 0.0
C551 C 0.42613 0.09636 0.43467 0.0
C552 C 0.42313 0.08181 0.40233 0.0
C553 C 0.43533 0.07009 0.39974 0.0
C554 C 0.45058 0.07294 0.42933 0.0
C555 C 0.495 0.04797 0.68431 0.0
C556 C 0.49818 0.03137 0.66588 0.0
C557 C 0.49146 0.06307 0.65013 0.0
C558 C 0.49102 0.06174 0.59699 0.0
C559 C 0.49393 0.04501 0.57866 0.0
C560 C 0.49766 0.03005 0.61277 0.0
C561 C 0.48814 0.07799 0.5603 0.0
C562 C 0.47367 0.07561 0.52712 0.0
C563 C 0.49944 0.09581 0.55848 0.0
C564 C 0.5153 0.09894 0.59124 0.0
C565 C 0.52789 0.08744 0.5899 0.0
C566 C 0.54262 0.09019 0.62169 0.0
C567 C 0.54499 0.10453 0.65465 0.0
C568 C 0.53266 0.11619 0.65575 0.0
C569 C 0.51789 0.11346 0.62413 0.0
H570 H 0.55639 0.10663 0.67926 0.0
H571 H 0.41134 0.07959 0.37937 0.0
H572 H 0.32923 0.5358 0.62124 0.0
H573 H 0.35708 0.52829 0.65341 0.0
H574 H 0.38413 0.57876 0.56696 0.0
H575 H 0.35628 0.58642 0.53482 0.0
H576 H 0.39732 0.54511 0.5558 0.0
H577 H 0.3817 0.57979 0.68893 0.0
H578 H 0.36243 0.58686 0.75384 0.0
H579 H 0.36135 0.53157 0.83359 0.0
H580 H 0.38042 0.52406 0.76869 0.0
H581 H 0.48105 0.54356 0.65931 0.0
H582 H 0.45368 0.55323 0.63191 0.0
H583 H 0.42619 0.51016 0.74178 0.0
H584 H 0.45375 0.50104 0.77092 0.0
H585 H 0.41299 0.54047 0.74087 0.0
H586 H 0.42718 0.50466 0.60951 0.0
H587 H 0.44559 0.49602 0.54466 0.0
H588 H 0.44818 0.55094 0.46136 0.0
H589 H 0.42995 0.56 0.52609 0.0
C590 C 0.34113 0.54526 0.60903 0.0
C591 C 0.34063 0.56168 0.57552 0.0
C592 C 0.35699 0.54102 0.62764 0.0
C593 C 0.37262 0.55303 0.61273 0.0
C594 C 0.37218 0.56936 0.57897 0.0
C595 C 0.3563 0.57375 0.56087 0.0
C596 C 0.38944 0.54834 0.63169 0.0
C597 C 0.4009 0.54435 0.59616 0.0
C598 C 0.39378 0.54679 0.68451 0.0
C599 C 0.38235 0.5513 0.72364 0.0
C600 C 0.37723 0.56907 0.72004 0.0
C601 C 0.36637 0.57317 0.75689 0.0
C602 C 0.36063 0.55965 0.79774 0.0
C603 C 0.36578 0.54202 0.80189 0.0
C604 C 0.37663 0.53784 0.7651 0.0
C605 C 0.46915 0.53618 0.67762 0.0
C606 C 0.46943 0.52143 0.71678 0.0
C607 C 0.4535 0.54165 0.66179 0.0
C608 C 0.43777 0.53214 0.68389 0.0
C609 C 0.43812 0.51766 0.72393 0.0
C610 C 0.45384 0.51241 0.74044 0.0
C611 C 0.42099 0.53719 0.66496 0.0
C612 C 0.40949 0.54123 0.70046 0.0
C613 C 0.41648 0.53851 0.6121 0.0
C614 C 0.42733 0.53306 0.5729 0.0
C615 C 0.43176 0.51493 0.57753 0.0
C616 C 0.44215 0.50996 0.54077 0.0
C617 C 0.44808 0.52294 0.49898 0.0
C618 C 0.44359 0.54091 0.49378 0.0
C619 C 0.43322 0.54596 0.53046 0.0
H620 H 0.45613 0.51906 0.47057 0.0
H621 H 0.35222 0.56285 0.82624 0.0
H622 H 0.0702 0.3522 0.58509 0.0
H623 H 0.06075 0.37847 0.62077 0.0
H624 H 0.04961 0.40228 0.46842 0.0
H625 H 0.0592 0.3759 0.43225 0.0
H626 H 0.06534 0.42957 0.52804 0.0
H627 H 0.01704 0.37735 0.54448 0.0
H628 H 0.00255 0.34444 0.57014 0.0
H629 H 0.01575 0.35197 0.72777 0.0
H630 H 0.03053 0.38485 0.70297 0.0
H631 H 0.01348 0.49236 0.60327 0.0
H632 H 0.02416 0.46719 0.56552 0.0
H633 H 0.03306 0.44081 0.71684 0.0
H634 H 0.02174 0.4657 0.75464 0.0
H635 H 0.01849 0.41491 0.65677 0.0
H636 H 0.06684 0.46664 0.64198 0.0
H637 H 0.08192 0.49944 0.61778 0.0
H638 H 0.06938 0.49286 0.45932 0.0
H639 H 0.05401 0.4601 0.48264 0.0
C640 C 0.06568 0.36298 0.55911 0.0
C641 C 0.06519 0.36183 0.50586 0.0
C642 C 0.06029 0.37801 0.57959 0.0
C643 C 0.05414 0.39215 0.54737 0.0
C644 C 0.05423 0.39146 0.49402 0.0
C645 C 0.05972 0.37642 0.4734 0.0
C646 C 0.04735 0.4074 0.56971 0.0
C647 C 0.05492 0.42639 0.55562 0.0
C648 C 0.03406 0.40323 0.60675 0.0
C649 C 0.02502 0.38352 0.62179 0.0
C650 C 0.01695 0.37195 0.58457 0.0
C651 C 0.00867 0.3533 0.59897 0.0
C652 C 0.00826 0.3461 0.65054 0.0
C653 C 0.01609 0.35756 0.68784 0.0
C654 C 0.0244 0.37621 0.67363 0.0
C655 C 0.01774 0.4812 0.62849 0.0
C656 C 0.01706 0.48112 0.68196 0.0
C657 C 0.02395 0.46688 0.60687 0.0
C658 C 0.02976 0.45228 0.63829 0.0
C659 C 0.02879 0.45201 0.69179 0.0
C660 C 0.02247 0.46631 0.71342 0.0
C661 C 0.03651 0.43712 0.61525 0.0
C662 C 0.02891 0.41812 0.62919 0.0
C663 C 0.04983 0.4413 0.57829 0.0
C664 C 0.05913 0.46097 0.56412 0.0
C665 C 0.06719 0.47223 0.60201 0.0
C666 C 0.07581 0.49081 0.58845 0.0
C667 C 0.07657 0.49824 0.53706 0.0
C668 C 0.06876 0.48709 0.49911 0.0
C669 C 0.06011 0.46851 0.51248 0.0
H670 H 0.08325 0.51263 0.52664 0.0
H671 H 0.00185 0.33166 0.66161 0.0
H672 H 0.84206 0.98619 0.11131 0.0
H673 H 0.87086 0.9878 0.07578 0.0
H674 H 0.85071 1.00021 0.92372 0.0
H675 H 0.82204 0.99888 0.95877 0.0
H676 H 0.87266 0.97534 0.92369 0.0
H677 H 0.87239 0.03549 0.98805 0.0
H678 H 0.8685 0.05648 0.0536 0.0
H679 H 0.9079 0.03562 0.14811 0.0
H680 H 0.91185 0.0143 0.08336 0.0
H681 H 0.96419 0.04046 0.86648 0.0
H682 H 0.93457 0.0351 0.89914 0.0
H683 H 0.93342 0.97462 0.91496 0.0
H684 H 0.96235 0.97999 0.87818 0.0
H685 H 0.92162 0.02255 0.98371 0.0
H686 H 0.89361 0.94926 0.91793 0.0
H687 H 0.89734 0.92974 0.84861 0.0
H688 H 0.91353 0.98017 0.74685 0.0
H689 H 0.90975 0.99999 0.81548 0.0
C690 C 0.84376 0.98927 0.07031 0.0
C691 C 0.82971 0.99244 0.03796 0.0
C692 C 0.86021 0.99011 0.05005 0.0
C693 C 0.86296 0.99425 0.99711 0.0
C694 C 0.84888 0.99688 0.96463 0.0
C695 C 0.83246 0.99606 0.9848 0.0
C696 C 0.88062 0.99674 0.97558 0.0
C697 C 0.8834 0.98564 0.93679 0.0
C698 C 0.89457 0.0103 0.99227 0.0
C699 C 0.89228 0.02316 0.03113 0.0
C700 C 0.88013 0.03528 0.02299 0.0
C701 C 0.87792 0.04725 0.05996 0.0
C702 C 0.88791 0.04734 0.10505 0.0
C703 C 0.90015 0.0355 0.1132 0.0
C704 C 0.90238 0.02348 0.07637 0.0
C705 C 0.9574 0.02605 0.87609 0.0
C706 C 0.96535 0.01065 0.86925 0.0
C707 C 0.94054 0.02295 0.89508 0.0
C708 C 0.9315 1.0044 0.90894 0.0
C709 C 0.93972 0.98903 0.90299 0.0
C710 C 0.95632 0.9921 0.88225 0.0
C711 C 0.91378 1.00132 0.93103 0.0
C712 C 0.91096 0.01223 0.97033 0.0
C713 C 0.89973 0.98782 0.91403 0.0
C714 C 0.9015 0.97609 0.87193 0.0
C715 C 0.89785 0.95617 0.88065 0.0
C716 C 0.9 0.94506 0.84153 0.0
C717 C 0.90569 0.95371 0.79338 0.0
C718 C 0.90916 0.9735 0.78419 0.0
C719 C 0.90702 0.98468 0.82319 0.0
H720 H 0.9074 0.94509 0.76318 0.0
H721 H 0.88619 0.05663 0.13363 0.0
H722 H 0.57629 0.89005 0.25069 0.0
H723 H 0.56894 0.91594 0.19056 0.0
H724 H 0.53547 0.8751 0.10564 0.0
H725 H 0.54257 0.84925 0.16581 0.0
H726 H 0.56056 0.9032 0.04521 0.0
H727 H 0.51673 0.89869 0.17449 0.0
H728 H 0.50678 0.89847 0.2628 0.0
H729 H 0.53651 0.95452 0.27176 0.0
H730 H 0.54684 0.95496 0.1837 0.0
H731 H 0.51553 0.96114 0.87735 0.0
H732 H 0.5254 0.93724 0.93826 0.0
H733 H 0.54507 0.98038 0.03889 0.0
H734 H 0.53473 1.00418 0.97836 0.0
H735 H 0.52852 0.95184 0.09315 0.0
H736 H 0.57433 0.95746 0.97361 0.0
H737 H 0.58813 0.95909 0.88979 0.0
H738 H 0.55849 0.90425 0.86481 0.0
H739 H 0.54486 0.90208 0.94933 0.0
C740 C 0.56723 0.88665 0.21947 0.0
C741 C 0.55989 0.86767 0.21313 0.0
C742 C 0.56306 0.90141 0.18522 0.0
C743 C 0.55168 0.8974 0.14368 0.0
C744 C 0.54428 0.87847 0.13745 0.0
C745 C 0.54822 0.86376 0.1721 0.0
C746 C 0.54774 0.91287 0.10599 0.0
C747 C 0.55338 0.91373 0.05544 0.0
C748 C 0.53899 0.92699 0.11992 0.0
C749 C 0.5327 0.92677 0.17272 0.0
C750 C 0.52127 0.91089 0.19546 0.0
C751 C 0.51553 0.91075 0.24543 0.0
C752 C 0.52105 0.92645 0.27293 0.0
C753 C 0.53227 0.94236 0.25045 0.0
C754 C 0.53805 0.94257 0.2005 0.0
C755 C 0.52234 0.96556 0.91187 0.0
C756 C 0.5246 0.98451 0.92288 0.0
C757 C 0.52799 0.9519 0.94678 0.0
C758 C 0.53625 0.95698 0.99308 0.0
C759 C 0.53876 0.97605 1.00356 0.0
C760 C 0.5329 0.98965 0.96892 0.0
C761 C 0.54125 0.94223 0.03182 0.0
C762 C 0.53579 0.94144 0.08268 0.0
C763 C 0.55056 0.92843 0.01851 0.0
C764 C 0.55847 0.92969 0.96747 0.0
C765 C 0.57069 0.9458 0.9501 0.0
C766 C 0.57853 0.94678 0.90257 0.0
C767 C 0.57406 0.93187 0.87171 0.0
C768 C 0.5619 0.91582 0.88868 0.0
C769 C 0.55422 0.91463 0.93657 0.0
H770 H 0.58007 0.93273 0.83476 0.0
H771 H 0.51659 0.92631 0.31161 0.0
H772 H 0.66646 0.45918 0.09479 0.0
H773 H 0.63826 0.46649 0.06656 0.0
H774 H 0.65398 0.47167 0.9091 0.0
H775 H 0.68184 0.46329 0.93642 0.0
H776 H 0.63858 0.50312 0.94247 0.0
H777 H 0.62827 0.43483 0.94185 0.0
H778 H 0.62812 0.40212 0.98033 0.0
H779 H 0.59397 0.40979 0.09794 0.0
H780 H 0.59413 0.44266 0.06057 0.0
H781 H 0.55802 0.50934 0.81887 0.0
H782 H 0.58596 0.50073 0.84525 0.0
H783 H 0.5655 0.47937 0.99513 0.0
H784 H 0.53738 0.48732 0.96819 0.0
H785 H 0.58374 0.45612 0.96602 0.0
H786 H 0.59341 0.52322 0.97202 0.0
H787 H 0.59354 0.55662 0.93977 0.0
H788 H 0.62874 0.55262 0.82106 0.0
H789 H 0.62864 0.51911 0.85221 0.0
C790 C 0.66389 0.46152 0.05408 0.0
C791 C 0.67656 0.46061 0.01799 0.0
C792 C 0.64779 0.46587 0.0381 0.0
C793 C 0.64411 0.46964 0.98582 0.0
C794 C 0.65667 0.46892 0.94967 0.0
C795 C 0.67265 0.46424 0.9655 0.0
C796 C 0.62713 0.47437 0.96886 0.0
C797 C 0.62658 0.49282 0.94692 0.0
C798 C 0.6115 0.46105 0.97632 0.0
C799 C 0.61137 0.44128 0.99875 0.0
C800 C 0.62087 0.42961 0.97622 0.0
C801 C 0.62075 0.41102 0.99776 0.0
C802 C 0.61109 0.4039 0.04165 0.0
C803 C 0.60148 0.41533 0.064 0.0
C804 C 0.60157 0.43394 0.04263 0.0
C805 C 0.55951 0.5028 0.85741 0.0
C806 C 0.5456 0.49909 0.89162 0.0
C807 C 0.5755 0.49797 0.87257 0.0
C808 C 0.57796 0.48968 0.92252 0.0
C809 C 0.56396 0.48578 0.95646 0.0
C810 C 0.54792 0.49039 0.94111 0.0
C811 C 0.59506 0.48498 0.93935 0.0
C812 C 0.59568 0.46651 0.96141 0.0
C813 C 0.61073 0.49842 0.93291 0.0
C814 C 0.61088 0.5186 0.91414 0.0
C815 C 0.60108 0.52942 0.9388 0.0
C816 C 0.60117 0.54838 0.92077 0.0
C817 C 0.61111 0.55672 0.87831 0.0
C818 C 0.62102 0.54613 0.8539 0.0
C819 C 0.62097 0.52716 0.87176 0.0
H820 H 0.61115 0.57139 0.86441 0.0
H821 H 0.61101 0.3895 0.05825 0.0
H822 H 0.91796 0.62991 0.10362 0.0
H823 H 0.92782 0.60481 0.06228 0.0
H824 H 0.97079 0.64566 0.9967 0.0
H825 H 0.96112 0.67074 0.03836 0.0
H826 H 0.9514 0.62048 0.92602 0.0
H827 H 0.97974 0.61881 0.09282 0.0
H828 H 0.98031 0.6166 0.18727 0.0
H829 H 0.94667 0.56207 0.19317 0.0
H830 H 0.9457 0.5641 0.09865 0.0
H831 H 0.00522 0.56105 0.84336 0.0
H832 H 0.99269 0.58514 0.88046 0.0
H833 H 0.95933 0.54114 0.97419 0.0
H834 H 0.97244 0.51709 0.93875 0.0
H835 H 0.97221 0.5675 0.03012 0.0
H836 H 0.94465 0.56721 0.86558 0.0
H837 H 0.94301 0.5686 0.77127 0.0
H838 H 0.97262 0.62534 0.75977 0.0
H839 H 0.97475 0.62416 0.85402 0.0
C840 C 0.92952 0.63349 0.08043 0.0
C841 C 0.93886 0.65222 0.07446 0.0
C842 C 0.93512 0.61918 0.05689 0.0
C843 C 0.95002 0.62342 0.02647 0.0
C844 C 0.95925 0.64214 0.01997 0.0
C845 C 0.95381 0.65638 0.04413 0.0
C846 C 0.95621 0.60826 1.00224 0.0
C847 C 0.95611 0.60896 0.94859 0.0
C848 C 0.96183 0.59299 0.0319 0.0
C849 C 0.96249 0.59171 0.08869 0.0
C850 C 0.97234 0.60643 0.11425 0.0
C851 C 0.97276 0.60519 0.1678 0.0
C852 C 0.96349 0.58923 0.1962 0.0
C853 C 0.95382 0.57444 0.17111 0.0
C854 C 0.95334 0.57562 0.11756 0.0
C855 C 0.99514 0.55655 0.87165 0.0
C856 C 0.9898 0.53725 0.88832 0.0
C857 C 0.9879 0.57031 0.89264 0.0
C858 C 0.97488 0.56499 0.92976 0.0
C859 C 0.96936 0.54563 0.94573 0.0
C860 C 0.97681 0.5319 0.92536 0.0
C861 C 0.96752 0.57962 0.95344 0.0
C862 C 0.96739 0.57887 0.00718 0.0
C863 C 0.96144 0.59468 0.92373 0.0
C864 C 0.95998 0.59554 0.86696 0.0
C865 C 0.95092 0.57994 0.84297 0.0
C866 C 0.9499 0.58069 0.7895 0.0
C867 C 0.95773 0.59704 0.75956 0.0
C868 C 0.96657 0.61268 0.78302 0.0
C869 C 0.96769 0.61198 0.83647 0.0
H870 H 0.95691 0.59762 0.71819 0.0
H871 H 0.96384 0.58829 0.23766 0.0
H872 H 0.10037 0.18984 0.56259 0.0
H873 H 0.08494 0.15969 0.6029 0.0
H874 H 0.07958 0.18578 0.7407 0.0
H875 H 0.0952 0.21621 0.7006 0.0
H876 H 0.08334 0.14278 0.74866 0.0
H877 H 0.04969 0.18953 0.67158 0.0
H878 H 0.04438 0.21307 0.60062 0.0
H879 H 0.03676 0.16991 0.49648 0.0
H880 H 0.04242 0.14621 0.56671 0.0
H881 H 0.01283 0.07558 0.83468 0.0
H882 H 0.02791 0.10811 0.81158 0.0
H883 H 0.02561 0.09756 0.65223 0.0
H884 H 0.00983 0.06524 0.67527 0.0
H885 H 0.02573 0.13408 0.66048 0.0
H886 H 0.05883 0.08749 0.72995 0.0
H887 H 0.06599 0.0627 0.79467 0.0
H888 H 0.07662 0.10326 0.90588 0.0
H889 H 0.06915 0.12818 0.84212 0.0
C890 C 0.09669 0.18903 0.60231 0.0
C891 C 0.09877 0.20546 0.62822 0.0
C892 C 0.0878 0.17178 0.6252 0.0
C893 C 0.08095 0.17069 0.67431 0.0
C894 C 0.08478 0.18645 0.70266 0.0
C895 C 0.0936 0.2038 0.67963 0.0
C896 C 0.06715 0.15455 0.69118 0.0
C897 C 0.07064 0.14097 0.73018 0.0
C898 C 0.05077 0.15211 0.66596 0.0
C899 C 0.04659 0.16615 0.62427 0.0
C900 C 0.04696 0.18509 0.63349 0.0
C901 C 0.0439 0.19846 0.59341 0.0
C902 C 0.04025 0.19299 0.54405 0.0
C903 C 0.03959 0.17413 0.53473 0.0
C904 C 0.04272 0.16072 0.57466 0.0
C905 C 0.01478 0.08059 0.79452 0.0
C906 C 0.01022 0.0681 0.7566 0.0
C907 C 0.02355 0.09905 0.78141 0.0
C908 C 0.02837 0.10499 0.73043 0.0
C909 C 0.02212 0.09319 0.69186 0.0
C910 C 0.013 0.0748 0.70492 0.0
C911 C 0.04179 0.12215 0.71832 0.0
C912 C 0.03829 0.13593 0.6798 0.0
C913 C 0.05827 0.12454 0.74341 0.0
C914 C 0.06324 0.10967 0.78143 0.0
C915 C 0.06259 0.0911 0.76831 0.0
C916 C 0.06667 0.077 0.80485 0.0
C917 C 0.0717 0.08138 0.85444 0.0
C918 C 0.07267 0.09987 0.86755 0.0
C919 C 0.0685 0.11398 0.83123 0.0
H920 H 0.07492 0.07048 0.88262 0.0
H921 H 0.03791 0.20337 0.51305 0.0
H922 H 0.31323 0.9745 0.76936 0.0
H923 H 0.33587 0.96443 0.82669 0.0
H924 H 0.37512 1.00191 0.73498 0.0
H925 H 0.35297 0.01139 0.6768 0.0
H926 H 0.36343 0.94721 0.79984 0.0
H927 H 0.40531 0.02266 0.80822 0.0
H928 H 0.4011 0.05509 0.8188 0.0
H929 H 0.35306 0.03256 0.89583 0.0
H930 H 0.35698 0.99998 0.88577 0.0
H931 H 0.45215 0.95927 0.76824 0.0
H932 H 0.42073 0.95309 0.77755 0.0
H933 H 0.42677 0.97404 0.92674 0.0
H934 H 0.45822 0.98105 0.91624 0.0
H935 H 0.40989 0.99451 0.87094 0.0
H936 H 0.40187 0.92865 0.90752 0.0
H937 H 0.4058 0.89576 0.9026 0.0
H938 H 0.38549 0.89735 0.74858 0.0
H939 H 0.38169 0.93035 0.75217 0.0
C940 C 0.32669 0.98057 0.76138 0.0
C941 C 0.33121 0.99388 0.71848 0.0
C942 C 0.33956 0.97488 0.79437 0.0
C943 C 0.35711 0.98264 0.78544 0.0
C944 C 0.36162 0.99606 0.7432 0.0
C945 C 0.34886 1.00156 0.71004 0.0
C946 C 0.37114 0.97613 0.81738 0.0
C947 C 0.37353 0.95736 0.81631 0.0
C948 C 0.38393 0.98926 0.84051 0.0
C949 C 0.38143 1.00887 0.84614 0.0
C950 C 0.39386 0.02461 0.82749 0.0
C951 C 0.39149 0.04303 0.83323 0.0
C952 C 0.37681 0.04588 0.85792 0.0
C953 C 0.36441 0.03033 0.87663 0.0
C954 C 0.36666 0.01189 0.87073 0.0
C955 C 0.44679 0.9617 0.804 0.0
C956 C 0.4575 0.97088 0.84116 0.0
C957 C 0.42877 0.9581 0.80949 0.0
C958 C 0.42129 0.96326 0.85274 0.0
C959 C 0.43219 0.9701 0.89285 0.0
C960 C 0.45016 0.97406 0.88689 0.0
C961 C 0.4029 0.96579 0.85023 0.0
C962 C 0.39966 0.98395 0.85654 0.0
C963 C 0.3893 0.95196 0.83278 0.0
C964 C 0.3915 0.93204 0.83016 0.0
C965 C 0.39833 0.92204 0.87246 0.0
C966 C 0.40053 0.90336 0.86992 0.0
C967 C 0.39589 0.89447 0.82531 0.0
C968 C 0.38904 0.90425 0.78315 0.0
C969 C 0.38682 0.92294 0.78548 0.0
H970 H 0.39761 0.88001 0.82341 0.0
H971 H 0.37506 0.06015 0.86261 0.0
H972 H 0.40791 0.30515 0.44124 0.0
H973 H 0.41861 0.32856 0.50135 0.0
H974 H 0.44929 0.29044 0.57983 0.0
H975 H 0.43859 0.26691 0.51985 0.0
H976 H 0.43755 0.32026 0.64243 0.0
H977 H 0.46943 0.31227 0.49138 0.0
H978 H 0.47088 0.30725 0.40011 0.0
H979 H 0.45065 0.35808 0.35683 0.0
H980 H 0.44883 0.36321 0.44798 0.0
H981 H 0.50869 0.39573 0.6991 0.0
H982 H 0.4917 0.36541 0.67617 0.0
H983 H 0.46426 0.39566 0.56007 0.0
H984 H 0.48141 0.42569 0.58176 0.0
H985 H 0.47551 0.36718 0.52358 0.0
H986 H 0.44603 0.37699 0.67449 0.0
H987 H 0.44416 0.38205 0.76555 0.0
H988 H 0.45972 0.32867 0.81056 0.0
H989 H 0.46202 0.32344 0.71966 0.0
C990 C 0.41629 0.30142 0.47278 0.0
C991 C 0.4227 0.28442 0.47539 0.0
C992 C 0.42231 0.31474 0.50727 0.0
C993 C 0.43492 0.31128 0.54439 0.0
C994 C 0.43951 0.2933 0.55152 0.0
C995 C 0.4334 0.27989 0.51711 0.0
C996 C 0.44637 0.32761 0.56481 0.0
C997 C 0.44602 0.33046 0.61685 0.0
C998 C 0.45739 0.34082 0.5312 0.0
C999 C 0.45887 0.33803 0.47639 0.0
C1000 C 0.46521 0.32231 0.46238 0.0
C1001 C 0.46613 0.31947 0.4107 0.0
C1002 C 0.46086 0.33234 0.37269 0.0
C1003 C 0.45472 0.34812 0.38631 0.0
C1004 C 0.45376 0.35101 0.43795 0.0
C1005 C 0.49912 0.39581 0.66847 0.0
C1006 C 0.49633 0.41302 0.64229 0.0
C1007 C 0.48931 0.37855 0.65581 0.0
C1008 C 0.47661 0.37834 0.61679 0.0
C1009 C 0.47396 0.39552 0.59045 0.0
C1010 C 0.48371 0.41267 0.60301 0.0
C1011 C 0.46645 0.36034 0.60117 0.0
C1012 C 0.46716 0.35703 0.54966 0.0
C1013 C 0.45588 0.34685 0.63552 0.0
C1014 C 0.45435 0.3499 0.69019 0.0
C1015 C 0.4492 0.36639 0.70376 0.0
C1016 C 0.44804 0.36929 0.75534 0.0
C1017 C 0.45181 0.35568 0.79375 0.0
C1018 C 0.4568 0.33918 0.7807 0.0
C1019 C 0.45803 0.33625 0.72915 0.0
H1020 H 0.45077 0.35788 0.8336 0.0
H1021 H 0.46152 0.33007 0.33271 0.0
H1022 H 0.20529 0.59897 0.73024 0.0
H1023 H 0.17735 0.59404 0.77342 0.0
H1024 H 0.15172 0.60395 0.62801 0.0
H1025 H 0.17926 0.60828 0.58447 0.0
H1026 H 0.13739 0.61877 0.70872 0.0
H1027 H 0.15569 0.5604 0.67074 0.0
H1028 H 0.17575 0.53767 0.67783 0.0
H1029 H 0.17067 0.53084 0.84154 0.0
H1030 H 0.15081 0.55381 0.83541 0.0
H1031 H 0.0531 0.56436 0.70623 0.0
H1032 H 0.08293 0.5814 0.69578 0.0
H1033 H 0.09683 0.55542 0.84319 0.0
H1034 H 0.06715 0.53776 0.85276 0.0
H1035 H 0.11892 0.5517 0.77937 0.0
H1036 H 0.09635 0.60493 0.81804 0.0
H1037 H 0.07632 0.62765 0.81352 0.0
H1038 H 0.08923 0.6448 0.65574 0.0
H1039 H 0.10915 0.62198 0.65903 0.0
C1040 C 0.19374 0.60033 0.70749 0.0
C1041 C 0.19457 0.60379 0.65372 0.0
C1042 C 0.17782 0.59764 0.73231 0.0
C1043 C 0.16248 0.59845 0.70378 0.0
C1044 C 0.16343 0.60336 0.65073 0.0
C1045 C 0.17927 0.6059 0.62589 0.0
C1046 C 0.14523 0.59182 0.72738 0.0
C1047 C 0.13328 0.60414 0.72434 0.0
C1048 C 0.1401 0.57287 0.74913 0.0
C1049 C 0.15198 0.55902 0.75268 0.0
C1050 C 0.15899 0.55419 0.70827 0.0
C1051 C 0.1703 0.54125 0.71211 0.0
C1052 C 0.17454 0.53287 0.76012 0.0
C1053 C 0.16743 0.53739 0.80439 0.0
C1054 C 0.15615 0.55038 0.80076 0.0
C1055 C 0.06244 0.56255 0.73679 0.0
C1056 C 0.05783 0.54964 0.7801 0.0
C1057 C 0.0795 0.57241 0.73098 0.0
C1058 C 0.09217 0.56991 0.76897 0.0
C1059 C 0.08734 0.5576 0.81329 0.0
C1060 C 0.07037 0.54749 0.81869 0.0
C1061 C 0.11072 0.57853 0.75988 0.0
C1062 C 0.12298 0.56652 0.76531 0.0
C1063 C 0.11612 0.59782 0.74098 0.0
C1064 C 0.10419 0.61165 0.73875 0.0
C1065 C 0.09484 0.61345 0.78227 0.0
C1066 C 0.08351 0.62637 0.77994 0.0
C1067 C 0.08149 0.63764 0.73435 0.0
C1068 C 0.09082 0.63605 0.69103 0.0
C1069 C 0.10215 0.62315 0.69313 0.0
H1070 H 0.07271 0.64763 0.73263 0.0
H1071 H 0.18329 0.52284 0.76301 0.0
H1072 H 0.91222 0.82692 0.03192 0.0
H1073 H 0.92691 0.8569 0.98944 0.0
H1074 H 0.92883 0.8305 0.84987 0.0
H1075 H 0.91405 0.8002 0.89259 0.0
H1076 H 0.95978 0.84663 0.87463 0.0
H1077 H 0.90641 0.86732 0.85637 0.0
H1078 H 0.87786 0.87406 0.87661 0.0
H1079 H 0.90179 0.91139 0.98653 0.0
H1080 H 0.93046 0.90458 0.96785 0.0
H1081 H -0.00026 0.9403 0.758 0.0
H1082 H 0.98221 0.90881 0.77939 0.0
H1083 H 0.98304 0.9193 0.93842 0.0
H1084 H 0.00065 0.95077 0.91756 0.0
H1085 H 0.94913 0.9115 0.88937 0.0
H1086 H 0.00271 0.88655 0.90864 0.0
H1087 H 0.03064 0.88119 0.87812 0.0
H1088 H 0.00439 0.85312 0.75318 0.0
H1089 H 0.97632 0.85853 0.7826 0.0
C1090 C 0.91511 0.82759 0.99161 0.0
C1091 C 0.91206 0.81112 0.96573 0.0
C1092 C 0.92357 0.84482 0.96727 0.0
C1093 C 0.92902 0.84599 0.91641 0.0
C1094 C 0.92483 0.8299 0.88924 0.0
C1095 C 0.9164 0.81261 0.91367 0.0
C1096 C 0.94113 0.86314 0.89477 0.0
C1097 C 0.95724 0.86081 0.87686 0.0
C1098 C 0.93796 0.88168 0.898 0.0
C1099 C 0.92062 0.88527 0.91098 0.0
C1100 C 0.90559 0.87676 0.8854 0.0
C1101 C 0.88937 0.88063 0.8965 0.0
C1102 C 0.888 0.8931 0.93293 0.0
C1103 C 0.90286 0.9017 0.9584 0.0
C1104 C 0.9191 0.89783 0.94756 0.0
C1105 C -0.00328 0.93565 0.79783 0.0
C1106 C 0.00145 0.94807 0.83609 0.0
C1107 C 0.98667 0.91768 0.80989 0.0
C1108 C 0.9812 0.91192 0.86031 0.0
C1109 C 0.9871 0.92362 0.89922 0.0
C1110 C -0.00269 0.94152 0.8873 0.0
C1111 C 0.96776 0.89479 0.87156 0.0
C1112 C 0.95144 0.89724 0.887 0.0
C1113 C 0.97058 0.87643 0.86501 0.0
C1114 C 0.98745 0.87312 0.84752 0.0
C1115 C 0.00292 0.87938 0.8744 0.0
C1116 C 0.01877 0.8763 0.85736 0.0
C1117 C 0.0193 0.86687 0.81366 0.0
C1118 C 0.00396 0.86044 0.78699 0.0
C1119 C 0.98808 0.8635 0.80386 0.0
H1120 H 0.03158 0.8645 0.80053 0.0
H1121 H 0.87545 0.89614 0.94131 0.0
H1122 H 0.70232 0.04292 0.85904 0.0
H1123 H 0.67734 0.04729 0.80257 0.0
H1124 H 0.64384 0.03602 0.93364 0.0
H1125 H 0.66857 0.03197 0.98989 0.0
H1126 H 0.63376 0.01341 0.84343 0.0
H1127 H 0.65236 0.07769 0.89553 0.0
H1128 H 0.67376 0.10729 0.9005 0.0
H1129 H 0.67718 0.11473 0.73638 0.0
H1130 H 0.65597 0.085 0.73054 0.0
H1131 H 0.55749 0.05622 0.81786 0.0
H1132 H 0.58916 0.06429 0.82375 0.0
H1133 H 0.59334 0.02972 0.70157 0.0
H1134 H 0.56172 0.02116 0.69674 0.0
H1135 H 0.62109 0.07567 0.7692 0.0
H1136 H 0.61658 0.99767 0.74937 0.0
H1137 H 0.59417 0.96886 0.74403 0.0
H1138 H 0.56207 0.98912 0.84726 0.0
H1139 H 0.58445 0.01788 0.8539 0.0
C1140 C 0.68962 0.04153 0.8756 0.0
C1141 C 0.68734 0.03723 0.92877 0.0
C1142 C 0.67544 0.04405 0.84347 0.0
C1143 C 0.65883 0.04195 0.86417 0.0
C1144 C 0.65659 0.03771 0.91713 0.0
C1145 C 0.67073 0.03552 0.94918 0.0
C1146 C 0.64345 0.0435 0.83124 0.0
C1147 C 0.63113 0.02697 0.82633 0.0
C1148 C 0.64009 0.06119 0.80902 0.0
C1149 C 0.65279 0.07901 0.81264 0.0
C1150 C 0.65783 0.08553 0.86055 0.0
C1151 C 0.66988 0.10236 0.86352 0.0
C1152 C 0.67688 0.11285 0.81879 0.0
C1153 C 0.67179 0.10656 0.771 0.0
C1154 C 0.65975 0.08974 0.76784 0.0
C1155 C 0.56516 0.05109 0.79069 0.0
C1156 C 0.55729 0.03772 0.7578 0.0
C1157 C 0.58327 0.05575 0.79391 0.0
C1158 C 0.59354 0.0472 0.76396 0.0
C1159 C 0.58561 0.03625 0.72547 0.0
C1160 C 0.56756 0.03131 0.72292 0.0
C1161 C 0.61132 0.0456 0.78204 0.0
C1162 C 0.62401 0.06204 0.78455 0.0
C1163 C 0.61508 0.0278 0.80235 0.0
C1164 C 0.60209 0.00998 0.80162 0.0
C1165 C 0.6048 0.9959 0.77115 0.0
C1166 C 0.59208 0.97962 0.76778 0.0
C1167 C 0.57664 0.97728 0.79481 0.0
C1168 C 0.57398 0.99104 0.82601 0.0
C1169 C 0.5867 1.00729 0.82975 0.0
H1170 H 0.56682 0.96469 0.79213 0.0
H1171 H 0.6862 0.12587 0.82117 0.0
H1172 H 0.60182 0.75013 0.0427 0.0
H1173 H 0.59309 0.72671 0.9808 0.0
H1174 H 0.58686 0.6818 0.10471 0.0
H1175 H 0.59581 0.70493 0.16607 0.0
H1176 H 0.59682 0.66905 0.02191 0.0
H1177 H 0.55345 0.70642 0.06187 0.0
H1178 H 0.54269 0.73643 0.06271 0.0
H1179 H 0.54756 0.74653 0.89913 0.0
H1180 H 0.55858 0.71667 0.89754 0.0
H1181 H 0.51706 0.60775 0.02188 0.0
H1182 H 0.53903 0.63597 0.03193 0.0
H1183 H 0.54612 0.64494 0.86841 0.0
H1184 H 0.52471 0.616 0.8579 0.0
H1185 H 0.54084 0.67855 0.93938 0.0
H1186 H 0.57687 0.63501 0.90219 0.0
H1187 H 0.58538 0.60362 0.90752 0.0
H1188 H 0.59263 0.60407 0.07036 0.0
H1189 H 0.58387 0.63532 0.06613 0.0
C1190 C 0.59902 0.7352 0.05642 0.0
C1191 C 0.59929 0.72938 0.10927 0.0
C1192 C 0.59404 0.72185 0.02108 0.0
C1193 C 0.58894 0.70254 0.03822 0.0
C1194 C 0.59072 0.69661 0.09048 0.0
C1195 C 0.59587 0.70988 0.12565 0.0
C1196 C 0.57944 0.68876 1.00415 0.0
C1197 C 0.58472 0.67124 1.00317 0.0
C1198 C 0.5638 0.6917 0.97863 0.0
C1199 C 0.55704 0.7095 0.97964 0.0
C1200 C 0.55231 0.71511 0.02615 0.0
C1201 C 0.54617 0.73208 0.02677 0.0
C1202 C 0.5445 0.74342 0.98102 0.0
C1203 C 0.54891 0.73777 0.93455 0.0
C1204 C 0.55512 0.72084 0.93376 0.0
C1205 C 0.52332 0.61558 0.98796 0.0
C1206 C 0.51922 0.60945 0.93915 0.0
C1207 C 0.5358 0.63176 0.99378 0.0
C1208 C 0.54425 0.6423 0.95095 0.0
C1209 C 0.53973 0.63686 0.90185 0.0
C1210 C 0.52738 0.62043 0.89599 0.0
C1211 C 0.55796 0.65879 0.95911 0.0
C1212 C 0.55337 0.67672 0.95574 0.0
C1213 C 0.57412 0.65617 0.98102 0.0
C1214 C 0.57961 0.63747 0.98384 0.0
C1215 C 0.58014 0.62834 0.93919 0.0
C1216 C 0.58503 0.61059 0.94201 0.0
C1217 C 0.58952 0.60184 0.98926 0.0
C1218 C 0.58915 0.61086 0.03378 0.0
C1219 C 0.58425 0.62862 0.03118 0.0
H1220 H 0.59331 0.58809 0.99136 0.0
H1221 H 0.53974 0.75655 0.98156 0.0
H1222 H 0.82442 0.39433 0.93953 0.0
H1223 H 0.85213 0.39635 0.89689 0.0
H1224 H 0.8525 0.45528 0.84658 0.0
H1225 H 0.82528 0.45363 0.89001 0.0
H1226 H 0.86549 0.43624 0.77292 0.0
H1227 H 0.87187 0.44384 0.95667 0.0
H1228 H 0.86663 0.43257 0.04783 0.0
H1229 H 0.88941 0.38392 0.03031 0.0
H1230 H 0.89455 0.3948 0.93878 0.0
H1231 H 0.94558 0.49498 0.76739 0.0
H1232 H 0.9167 0.47642 0.77808 0.0
H1233 H 0.93809 0.42739 0.83708 0.0
H1234 H 0.96751 0.44636 0.82829 0.0
H1235 H 0.91402 0.43144 0.89675 0.0
H1236 H 0.91509 0.42947 0.71767 0.0
H1237 H 0.92057 0.44126 0.62702 0.0
H1238 H 0.88432 0.47877 0.63308 0.0
H1239 H 0.87877 0.46742 0.72398 0.0
C1240 C 0.83031 0.40768 0.91899 0.0
C1241 C 0.82265 0.42387 0.91878 0.0
C1242 C 0.84608 0.40875 0.89433 0.0
C1243 C 0.85441 0.426 0.86893 0.0
C1244 C 0.84623 0.44179 0.86569 0.0
C1245 C 0.83058 0.44078 0.89053 0.0
C1246 C 0.87251 0.42854 0.85111 0.0
C1247 C 0.87616 0.43511 0.7997 0.0
C1248 C 0.88634 0.42641 0.88584 0.0
C1249 C 0.88338 0.41999 0.94085 0.0
C1250 C 0.87564 0.43067 0.97221 0.0
C1251 C 0.8727 0.42437 0.02392 0.0
C1252 C 0.87763 0.4075 0.04481 0.0
C1253 C 0.88556 0.39695 0.01404 0.0
C1254 C 0.88848 0.40317 0.96226 0.0
C1255 C 0.9443 0.48019 0.78213 0.0
C1256 C 0.95895 0.47221 0.79736 0.0
C1257 C 0.92765 0.46947 0.78761 0.0
C1258 C 0.92512 0.45034 0.80739 0.0
C1259 C 0.93971 0.4421 0.82134 0.0
C1260 C 0.95651 0.45295 0.81634 0.0
C1261 C 0.9072 0.43994 0.81864 0.0
C1262 C 0.9035 0.43193 0.86905 0.0
C1263 C 0.89335 0.4407 0.78278 0.0
C1264 C 0.89652 0.44756 0.72784 0.0
C1265 C 0.90834 0.4403 0.6998 0.0
C1266 C 0.91146 0.4469 0.64833 0.0
C1267 C 0.90279 0.46074 0.62431 0.0
C1268 C 0.891 0.46802 0.65171 0.0
C1269 C 0.88783 0.46146 0.70321 0.0
H1270 H 0.90519 0.46576 0.58443 0.0
H1271 H 0.87535 0.40265 0.08486 0.0
H1272 H 0.05588 0.21738 0.24386 0.0
H1273 H 0.0501 0.19015 0.19397 0.0
H1274 H 0.10235 0.20416 0.13673 0.0
H1275 H 0.10797 0.23218 0.18427 0.0
H1276 H 0.08083 0.19074 0.06362 0.0
H1277 H 0.09118 0.17051 0.23968 0.0
H1278 H 0.08698 0.16781 0.33309 0.0
H1279 H 0.03402 0.14021 0.31353 0.0
H1280 H 0.03784 0.14299 0.21987 0.0
H1281 H 0.08444 0.0967 1.0019 0.0
H1282 H 0.09012 0.12651 0.04244 0.0
H1283 H 0.03604 0.1186 0.08103 0.0
H1284 H 0.03026 0.08893 0.04037 0.0
H1285 H 0.05919 0.12879 0.16278 0.0
H1286 H 0.04953 0.14917 0.98534 0.0
H1287 H 0.05465 0.1512 0.89253 0.0
H1288 H 0.10774 0.17762 0.91591 0.0
H1289 H 0.10298 0.17553 0.00904 0.0
C1290 C 0.06604 0.21507 0.2196 0.0
C1291 C 0.08248 0.22699 0.21864 0.0
C1292 C 0.06277 0.19927 0.19157 0.0
C1293 C 0.07592 0.19478 0.1626 0.0
C1294 C 0.09203 0.20719 0.15921 0.0
C1295 C 0.09527 0.22314 0.18685 0.0
C1296 C 0.07313 0.17667 0.13809 0.0
C1297 C 0.0763 0.17719 0.08548 0.0
C1298 C 0.06706 0.15893 0.16637 0.0
C1299 C 0.06475 0.15713 0.22272 0.0
C1300 C 0.0786 0.16398 0.25527 0.0
C1301 C 0.07629 0.16242 0.30826 0.0
C1302 C 0.06023 0.15389 0.32922 0.0
C1303 C 0.04645 0.14685 0.29723 0.0
C1304 C 0.04868 0.1484 0.24419 0.0
C1305 C 0.07379 0.1013 0.01923 0.0
C1306 C 0.05688 0.09055 0.01766 0.0
C1307 C 0.07703 0.11835 0.04209 0.0
C1308 C 0.06347 0.12481 0.06439 0.0
C1309 C 0.04667 0.1139 0.06388 0.0
C1310 C 0.04338 0.09701 0.04041 0.0
C1311 C 0.06674 0.14293 0.08847 0.0
C1312 C 0.06372 0.14237 0.14103 0.0
C1313 C 0.07309 0.16055 0.06026 0.0
C1314 C 0.07594 0.16202 1.00423 0.0
C1315 C 0.06233 0.15528 0.97075 0.0
C1316 C 0.06516 0.15647 0.91807 0.0
C1317 C 0.08153 0.16449 0.89834 0.0
C1318 C 0.09508 0.1714 0.93125 0.0
C1319 C 0.09231 0.17024 0.98399 0.0
H1320 H 0.08369 0.16537 0.85754 0.0
H1321 H 0.05847 0.1527 0.37026 0.0
H1322 H 0.30449 0.02772 0.22471 0.0
H1323 H 0.32534 0.03014 0.15564 0.0
H1324 H 0.36749 0.04707 0.26055 0.0
H1325 H 0.34698 0.04413 0.3299 0.0
H1326 H 0.37044 0.06972 0.16851 0.0
H1327 H 0.35924 1.00297 0.22827 0.0
H1328 H 0.34085 0.97151 0.24863 0.0
H1329 H 0.32323 0.97113 0.09198 0.0
H1330 H 0.34134 1.00274 0.07084 0.0
H1331 H 0.44517 0.05676 0.04603 0.0
H1332 H 0.42121 0.05471 0.10487 0.0
H1333 H 0.3847 0.0338 0.98808 0.0
H1334 H 0.40876 0.03517 0.92967 0.0
H1335 H 0.3767 0.01405 0.07895 0.0
H1336 H 0.38919 0.07951 0.01697 0.0
H1337 H 0.40736 0.11101 0.99551 0.0
H1338 H 0.42192 0.11428 0.154 0.0
H1339 H 0.40403 0.08266 0.17635 0.0
C1340 C 0.3182 0.03182 0.23324 0.0
C1341 C 0.32397 0.03582 0.28305 0.0
C1342 C 0.33009 0.03326 0.19363 0.0
C1343 C 0.34797 0.03876 0.20299 0.0
C1344 C 0.35375 0.04295 0.25236 0.0
C1345 C 0.34193 0.04137 0.29196 0.0
C1346 C 0.36082 0.04007 0.16175 0.0
C1347 C 0.3719 0.05752 0.14919 0.0
C1348 C 0.36237 0.02429 0.13545 0.0
C1349 C 0.35147 1.00532 0.14813 0.0
C1350 C 0.35131 0.99626 0.19827 0.0
C1351 C 0.34097 0.97839 0.20993 0.0
C1352 C 0.33083 0.96936 0.17166 0.0
C1353 C 0.33105 0.97816 0.12161 0.0
C1354 C 0.34136 0.99605 0.10977 0.0
C1355 C 0.43205 0.05161 0.03297 0.0
C1356 C 0.42884 0.0463 0.98297 0.0
C1357 C 0.41834 0.05061 0.06648 0.0
C1358 C 0.4011 0.04441 0.05067 0.0
C1359 C 0.39786 0.03878 1.00105 0.0
C1360 C 0.4116 0.03976 0.96751 0.0
C1361 C 0.38656 0.04365 0.08634 0.0
C1362 C 0.37514 0.02632 0.09783 0.0
C1363 C 0.38461 0.05958 0.11149 0.0
C1364 C 0.39537 0.07863 0.09827 0.0
C1365 C 0.39637 0.08688 0.04721 0.0
C1366 C 0.4066 0.10477 0.03489 0.0
C1367 C 0.41582 0.11462 0.07335 0.0
C1368 C 0.41479 0.10662 0.12424 0.0
C1369 C 0.40459 0.08872 0.13676 0.0
H1370 H 0.42373 0.12848 0.06373 0.0
H1371 H 0.32284 0.95551 0.18076 0.0
H1372 H 0.47828 0.31161 0.07595 0.0
H1373 H 0.48307 0.34143 0.021 0.0
H1374 H 0.43531 0.32318 0.93905 0.0
H1375 H 0.43043 0.29307 0.99388 0.0
H1376 H 0.48671 0.35236 0.91991 0.0
H1377 H 0.41586 0.36219 0.91176 0.0
H1378 H 0.38867 0.35115 0.95978 0.0
H1379 H 0.41797 0.3433 0.09891 0.0
H1380 H 0.44529 0.35453 0.05184 0.0
H1381 H 0.48818 0.44135 0.77598 0.0
H1382 H 0.47859 0.40762 0.80355 0.0
H1383 H 0.46446 0.42196 0.95032 0.0
H1384 H 0.47305 0.45569 0.92161 0.0
H1385 H 0.44246 0.39297 0.92697 0.0
H1386 H 0.50578 0.40923 0.92203 0.0
H1387 H 0.53368 0.42106 0.87833 0.0
H1388 H 0.52135 0.37778 0.77508 0.0
H1389 H 0.49318 0.36601 0.81734 0.0
C1390 C 0.46897 0.31366 0.04547 0.0
C1391 C 0.45391 0.29989 0.03961 0.0
C1392 C 0.47171 0.33081 0.01412 0.0
C1393 C 0.45945 0.33468 0.97629 0.0
C1394 C 0.44482 0.32064 0.96853 0.0
C1395 C 0.44204 0.30344 0.99999 0.0
C1396 C 0.46155 0.35391 0.94778 0.0
C1397 C 0.47698 0.3612 0.92112 0.0
C1398 C 0.4489 0.3655 0.94931 0.0
C1399 C 0.43258 0.35898 0.97817 0.0
C1400 C 0.41647 0.35816 0.95263 0.0
C1401 C 0.40105 0.35187 0.97967 0.0
C1402 C 0.4016 0.34646 0.03233 0.0
C1403 C 0.41756 0.34742 0.0581 0.0
C1404 C 0.43302 0.35373 0.03126 0.0
C1405 C 0.48277 0.43728 0.81384 0.0
C1406 C 0.48149 0.45114 0.84684 0.0
C1407 C 0.47739 0.41798 0.82971 0.0
C1408 C 0.47123 0.41212 0.87963 0.0
C1409 C 0.46922 0.42603 0.9117 0.0
C1410 C 0.47416 0.44535 0.89533 0.0
C1411 C 0.46783 0.39166 0.89993 0.0
C1412 C 0.45212 0.38409 0.925 0.0
C1413 C 0.48034 0.3799 0.89752 0.0
C1414 C 0.49734 0.38686 0.87256 0.0
C1415 C 0.50899 0.40232 0.88981 0.0
C1416 C 0.52483 0.40904 0.86522 0.0
C1417 C 0.52925 0.40024 0.82378 0.0
C1418 C 0.51787 0.38465 0.80699 0.0
C1419 C 0.50196 0.37796 0.83119 0.0
H1420 H 0.54151 0.40546 0.80478 0.0
H1421 H 0.38964 0.34158 0.05318 0.0
H1422 H 0.21696 0.57618 0.22269 0.0
H1423 H 0.19712 0.56697 0.15163 0.0
H1424 H 0.18352 0.51035 0.22769 0.0
H1425 H 0.20343 0.51941 0.29841 0.0
H1426 H 0.18693 0.51067 0.12213 0.0
H1427 H 0.15852 0.54175 0.24167 0.0
H1428 H 0.15575 0.56831 0.29118 0.0
H1429 H 0.15559 0.60512 0.15172 0.0
H1430 H 0.15861 0.57883 0.10142 0.0
H1431 H 0.1034 0.47329 0.03109 0.0
H1432 H 0.12947 0.48505 0.07987 0.0
H1433 H 0.13211 0.54081 0.99949 0.0
H1434 H 0.10548 0.52937 0.95229 0.0
H1435 H 0.13668 0.54362 0.09763 0.0
H1436 H 0.16154 0.51214 0.97661 0.0
H1437 H 0.16449 0.48602 0.92579 0.0
H1438 H 0.17194 0.45077 0.06382 0.0
H1439 H 0.1688 0.4766 0.11555 0.0
C1440 C 0.21001 0.56167 0.22368 0.0
C1441 C 0.21162 0.54854 0.26624 0.0
C1442 C 0.19861 0.55647 0.18327 0.0
C1443 C 0.18871 0.53804 0.18472 0.0
C1444 C 0.19101 0.52465 0.22586 0.0
C1445 C 0.20229 0.52987 0.26637 0.0
C1446 C 0.17505 0.53297 0.14552 0.0
C1447 C 0.17589 0.5178 0.11681 0.0
C1448 C 0.16092 0.54264 0.13764 0.0
C1449 C 0.15899 0.5584 0.16785 0.0
C1450 C 0.15803 0.55555 0.22161 0.0
C1451 C 0.1564 0.57055 0.2498 0.0
C1452 C 0.15555 0.58841 0.22462 0.0
C1453 C 0.15629 0.59129 0.17117 0.0
C1454 C 0.15795 0.57635 0.14281 0.0
C1455 C 0.10946 0.48808 0.02383 0.0
C1456 C 0.10226 0.50038 0.98783 0.0
C1457 C 0.12454 0.49473 0.05131 0.0
C1458 C 0.13292 0.51378 0.04293 0.0
C1459 C 0.12593 0.52604 0.00646 0.0
C1460 C 0.11077 0.51942 0.97916 0.0
C1461 C 0.14835 0.52106 0.0745 0.0
C1462 C 0.14783 0.53665 0.10202 0.0
C1463 C 0.16283 0.51185 0.08092 0.0
C1464 C 0.16481 0.49628 0.04998 0.0
C1465 C 0.16368 0.49878 0.99616 0.0
C1466 C 0.16541 0.48403 0.96718 0.0
C1467 C 0.16837 0.46673 0.99156 0.0
C1468 C 0.16964 0.46417 0.04498 0.0
C1469 C 0.16792 0.47887 0.07415 0.0
H1470 H 0.1697 0.45533 0.96906 0.0
H1471 H 0.15428 0.6 0.24651 0.0
H1472 H 0.95489 0.80271 0.32628 0.0
H1473 H 0.96117 0.82838 0.3818 0.0
H1474 H 0.91942 0.79996 0.48106 0.0
H1475 H 0.91277 0.77444 0.42446 0.0
H1476 H 0.91746 0.83557 0.46345 0.0
H1477 H 0.96404 0.8029 0.51538 0.0
H1478 H 0.98914 0.78784 0.5027 0.0
H1479 H 0.01715 0.84071 0.4322 0.0
H1480 H 0.99214 0.85603 0.44385 0.0
H1481 H 0.93945 0.90355 0.64583 0.0
H1482 H 0.93371 0.87379 0.60522 0.0
H1483 H 0.9743 0.89675 0.49655 0.0
H1484 H 0.98037 0.92617 0.53801 0.0
H1485 H 0.97643 0.86186 0.52669 0.0
H1486 H 0.9293 0.89369 0.4676 0.0
H1487 H 0.90422 0.90902 0.4784 0.0
H1488 H 0.87738 0.8579 0.56095 0.0
H1489 H 0.90239 0.84234 0.55115 0.0
C1490 C 0.94727 0.80174 0.3605 0.0
C1491 C 0.93342 0.78649 0.37124 0.0
C1492 C 0.95088 0.81643 0.39231 0.0
C1493 C 0.94095 0.81603 0.4362 0.0
C1494 C 0.92729 0.80061 0.44751 0.0
C1495 C 0.92352 0.78602 0.41526 0.0
C1496 C 0.94421 0.8322 0.46851 0.0
C1497 C 0.93031 0.84108 0.4781 0.0
C1498 C 0.96103 0.83973 0.48676 0.0
C1499 C 0.97616 0.83058 0.48021 0.0
C1500 C 0.97552 0.81129 0.49692 0.0
C1501 C 0.98973 0.80271 0.48995 0.0
C1502 C 0.00471 0.8133 0.46659 0.0
C1503 C 0.00553 0.83252 0.45028 0.0
C1504 C 0.99135 0.84116 0.45714 0.0
C1505 C 0.94708 0.9022 0.6132 0.0
C1506 C 0.96034 0.91715 0.59503 0.0
C1507 C 0.94379 0.88522 0.58992 0.0
C1508 C 0.95342 0.88306 0.5473 0.0
C1509 C 0.96672 0.898 0.52942 0.0
C1510 C 0.97018 0.91482 0.5531 0.0
C1511 C 0.94973 0.86537 0.52092 0.0
C1512 C 0.96355 0.85621 0.51248 0.0
C1513 C 0.93285 0.85762 0.50356 0.0
C1514 C 0.91778 0.86692 0.50909 0.0
C1515 C 0.91809 0.88576 0.48833 0.0
C1516 C 0.90388 0.89448 0.49423 0.0
C1517 C 0.88924 0.88445 0.52047 0.0
C1518 C 0.88874 0.86566 0.54071 0.0
C1519 C 0.90292 0.85688 0.53495 0.0
H1520 H 0.87826 0.89123 0.52502 0.0
H1521 H 0.0157 0.80663 0.46118 0.0
H1522 H 0.71296 0.96822 0.39785 0.0
H1523 H 0.6908 0.96104 0.46453 0.0
H1524 H 0.66325 1.00217 0.38556 0.0
H1525 H 0.68507 0.00925 0.319 0.0
H1526 H 0.66453 1.00528 0.48655 0.0
H1527 H 0.65049 0.95462 0.37586 0.0
H1528 H 0.6563 0.92785 0.33192 0.0
H1529 H 0.66546 0.8977 0.47704 0.0
H1530 H 0.65991 0.92442 0.52182 0.0
H1531 H 0.57773 0.98031 0.55983 0.0
H1532 H 0.60451 0.98449 0.51187 0.0
H1533 H 0.62453 0.94602 0.62484 0.0
H1534 H 0.59783 0.94213 0.67429 0.0
H1535 H 0.62999 0.94021 0.51979 0.0
H1536 H 0.64001 0.98984 0.63054 0.0
H1537 H 0.63261 0.01632 0.67251 0.0
H1538 H 0.63008 0.04834 0.52605 0.0
H1539 H 0.63726 0.02196 0.48308 0.0
C1540 C 0.70217 0.97571 0.39471 0.0
C1541 C 0.70089 0.9894 0.35313 0.0
C1542 C 0.68953 0.97161 0.43289 0.0
C1543 C 0.67532 0.98102 0.42997 0.0
C1544 C 0.67416 0.99484 0.38892 0.0
C1545 C 0.68673 0.99893 0.35092 0.0
C1546 C 0.66128 0.9763 0.46856 0.0
C1547 C 0.65697 0.99105 0.4937 0.0
C1548 C 0.65167 0.95765 0.47899 0.0
C1549 C 0.65501 0.94161 0.45213 0.0
C1550 C 0.65389 0.94235 0.39836 0.0
C1551 C 0.65711 0.92718 0.37331 0.0
C1552 C 0.66131 0.91111 0.40166 0.0
C1553 C 0.66225 0.91017 0.45513 0.0
C1554 C 0.65906 0.92532 0.48036 0.0
C1555 C 0.58785 0.97282 0.57486 0.0
C1556 C 0.58568 0.96105 0.62132 0.0
C1557 C 0.60312 0.97516 0.54721 0.0
C1558 C 0.61657 0.96575 0.56515 0.0
C1559 C 0.61429 0.95343 0.61045 0.0
C1560 C 0.599 0.95117 0.63849 0.0
C1561 C 0.63305 0.96926 0.53659 0.0
C1562 C 0.6378 0.95434 0.51338 0.0
C1563 C 0.64304 0.98776 0.52778 0.0
C1564 C 0.63908 1.00385 0.55354 0.0
C1565 C 0.63778 1.00248 0.60723 0.0
C1566 C 0.63363 0.01747 0.63122 0.0
C1567 C 0.63083 0.03397 0.60197 0.0
C1568 C 0.63225 0.03554 0.54867 0.0
C1569 C 0.63639 0.02059 0.52447 0.0
H1570 H 0.62759 0.04554 0.62062 0.0
H1571 H 0.66379 0.89938 0.3822 0.0
H1572 H 0.53781 0.70671 0.50261 0.0
H1573 H 0.53011 0.67767 0.56002 0.0
H1574 H 0.58054 0.68873 0.63317 0.0
H1575 H 0.58815 0.71821 0.57688 0.0
H1576 H 0.54437 0.64779 0.56253 0.0
H1577 H 0.57711 0.66538 0.75987 0.0
H1578 H 0.58309 0.69197 0.81389 0.0
H1579 H 0.54236 0.71657 0.73663 0.0
H1580 H 0.53583 0.68993 0.68299 0.0
H1581 H 0.55145 0.56209 0.70773 0.0
H1582 H 0.55974 0.59487 0.6695 0.0
H1583 H 0.52154 0.6118 0.7605 0.0
H1584 H 0.51339 0.57923 0.79946 0.0
H1585 H 0.55019 0.63898 0.75193 0.0
H1586 H 0.51167 0.60208 0.64015 0.0
H1587 H 0.5014 0.5749 0.59007 0.0
H1588 H 0.54739 0.58979 0.49899 0.0
H1589 H 0.55806 0.6169 0.54911 0.0
C1590 C 0.54712 0.70329 0.53179 0.0
C1591 C 0.56364 0.71483 0.53491 0.0
C1592 C 0.54275 0.68654 0.56434 0.0
C1593 C 0.55473 0.68093 0.60095 0.0
C1594 C 0.571 0.69278 0.60558 0.0
C1595 C 0.57539 0.70957 0.573 0.0
C1596 C 0.55071 0.66198 0.631 0.0
C1597 C 0.54569 0.64595 0.60395 0.0
C1598 C 0.55217 0.65947 0.68521 0.0
C1599 C 0.55618 0.67578 0.71671 0.0
C1600 C 0.56942 0.67646 0.75436 0.0
C1601 C 0.57289 0.69153 0.78502 0.0
C1602 C 0.56319 0.70601 0.77846 0.0
C1603 C 0.54994 0.70541 0.74143 0.0
C1604 C 0.54637 0.69033 0.71082 0.0
C1605 C 0.54501 0.57283 0.72028 0.0
C1606 C 0.53161 0.56796 0.75628 0.0
C1607 C 0.54973 0.59157 0.69826 0.0
C1608 C 0.54107 0.60574 0.71158 0.0
C1609 C 0.52839 0.60112 0.7496 0.0
C1610 C 0.52369 0.58243 0.77167 0.0
C1611 C 0.54426 0.62499 0.68319 0.0
C1612 C 0.54907 0.64097 0.71047 0.0
C1613 C 0.54219 0.62757 0.6293 0.0
C1614 C 0.53574 0.6114 0.5987 0.0
C1615 C 0.51965 0.59948 0.60967 0.0
C1616 C 0.51375 0.5841 0.58126 0.0
C1617 C 0.52376 0.5806 0.54145 0.0
C1618 C 0.53966 0.5925 0.52988 0.0
C1619 C 0.54564 0.60789 0.55827 0.0
H1620 H 0.51917 0.56868 0.51948 0.0
H1621 H 0.56591 0.71769 0.80214 0.0
H1622 H 0.82671 0.44943 0.30476 0.0
H1623 H 0.84725 0.46103 0.37095 0.0
H1624 H 0.80956 0.48975 0.42915 0.0
H1625 H 0.78867 0.4779 0.36309 0.0
H1626 H 0.84098 0.51277 0.41771 0.0
H1627 H 0.81971 0.45078 0.49698 0.0
H1628 H 0.81127 0.41592 0.50377 0.0
H1629 H 0.86379 0.41112 0.47522 0.0
H1630 H 0.87251 0.44598 0.46745 0.0
H1631 H 0.90033 0.53713 0.62686 0.0
H1632 H 0.87415 0.52474 0.57814 0.0
H1633 H 0.90364 0.49274 0.49645 0.0
H1634 H 0.92974 0.50513 0.54432 0.0
H1635 H 0.87299 0.47125 0.53111 0.0
H1636 H 0.89301 0.53309 0.44034 0.0
H1637 H 0.90156 0.56796 0.43264 0.0
H1638 H 0.8512 0.57275 0.48342 0.0
H1639 H 0.84243 0.53786 0.49208 0.0
C1640 C 0.82258 0.45785 0.33226 0.0
C1641 C 0.80594 0.46259 0.32873 0.0
C1642 C 0.8344 0.46453 0.37007 0.0
C1643 C 0.82989 0.47608 0.40542 0.0
C1644 C 0.81329 0.48082 0.40231 0.0
C1645 C 0.8014 0.47408 0.36444 0.0
C1646 C 0.84293 0.48389 0.4437 0.0
C1647 C 0.84771 0.50367 0.44333 0.0
C1648 C 0.85191 0.47204 0.4766 0.0
C1649 C 0.84673 0.45104 0.48123 0.0
C1650 C 0.82944 0.44231 0.49171 0.0
C1651 C 0.82461 0.42254 0.49582 0.0
C1652 C 0.83698 0.41132 0.48983 0.0
C1653 C 0.85422 0.41984 0.47982 0.0
C1654 C 0.85911 0.43961 0.47562 0.0
C1655 C 0.90125 0.52761 0.59811 0.0
C1656 C 0.91711 0.52208 0.58956 0.0
C1657 C 0.88628 0.5205 0.57048 0.0
C1658 C 0.88697 0.50782 0.53369 0.0
C1659 C 0.9028 0.5024 0.52491 0.0
C1660 C 0.9177 0.50948 0.55241 0.0
C1661 C 0.8713 0.50007 0.50397 0.0
C1662 C 0.86603 0.4803 0.50607 0.0
C1663 C 0.86188 0.51192 0.47269 0.0
C1664 C 0.86714 0.53287 0.46748 0.0
C1665 C 0.88382 0.54157 0.45031 0.0
C1666 C 0.88869 0.56134 0.44568 0.0
C1667 C 0.87695 0.57256 0.4577 0.0
C1668 C 0.86029 0.56404 0.47424 0.0
C1669 C 0.85536 0.54427 0.47899 0.0
H1670 H 0.88075 0.58787 0.45407 0.0
H1671 H 0.83321 0.39601 0.49304 0.0
loop_
_geom_bond_atom_site_label_1
_geom_bond_atom_site_label_2
_geom_bond_distance
_geom_bond_site_symmetry_2
_ccdc_geom_bond_type
C0 C1 1.386 . S
C0 C2 1.397 . S
C0 H24 0.931 . S
C1 C0 1.386 . S
C1 C5 1.397 . S
C2 C0 1.397 . S
C2 C3 1.384 . S
C2 H25 0.930 . S
C3 C2 1.384 . S
C3 C4 1.377 . S
C3 C6 1.481 1_556 S
C4 C3 1.377 . S
C4 C5 1.389 . S
C4 H26 0.929 1_556 S
C5 C1 1.397 . S
C5 C4 1.389 . S
C5 H27 0.931 . S
C6 C3 1.481 1_554 S
C6 C7 1.387 1_554 S
C6 C11 1.390 . S
C7 C6 1.387 1_556 S
C7 C8 1.401 1_556 S
C7 H28 0.930 . S
C8 C7 1.401 1_554 S
C8 C9 1.376 . S
C8 C17 1.511 . S
C9 C8 1.376 . S
C9 C10 1.392 . S
C9 H30 0.931 . S
C10 C9 1.392 . S
C10 C11 1.361 . S
C10 C12 1.500 . S
C11 C6 1.390 . S
C11 C10 1.361 . S
C11 H29 0.931 . S
C12 C10 1.500 . S
C12 C13 1.371 . S
C12 C14 1.365 . S
C13 C12 1.371 . S
C13 C23 1.386 . S
C13 H31 0.931 . S
C14 C12 1.365 . S
C14 C15 1.409 . S
C14 H32 0.929 . S
C15 C14 1.409 . S
C15 C16 1.380 . S
C15 H33 0.930 . S
C16 C15 1.380 . S
C16 C23 1.357 . S
C17 C8 1.511 . S
C17 C18 1.341 1_554 S
C17 C19 1.371 . S
C18 C17 1.341 1_556 S
C18 C22 1.394 . S
C18 H34 0.930 . S
C19 C17 1.371 . S
C19 C20 1.392 . S
C19 H35 0.931 . S
C20 C19 1.392 . S
C20 C21 1.331 1_554 S
C20 H38 0.932 . S
C21 C20 1.331 1_556 S
C21 C22 1.336 . S
C22 C18 1.394 . S
C22 C21 1.336 . S
C22 H37 0.929 . S
C23 C13 1.386 . S
C23 C16 1.357 . S
C23 H36 0.928 . S
H24 C0 0.931 . S
H25 C2 0.930 . S
H26 C4 0.929 1_554 S
H27 C5 0.931 . S
H28 C7 0.930 . S
H29 C11 0.931 . S
H30 C9 0.931 . S
H31 C13 0.931 . S
H32 C14 0.929 . S
H33 C15 0.930 . S
H34 C18 0.930 . S
H35 C19 0.931 . S
H36 C23 0.928 . S
H37 C22 0.929 . S
H38 C20 0.932 . S
C39 C40 1.386 . S
C39 C41 1.397 . S
C39 H63 0.931 . S
C40 C39 1.386 . S
C40 C44 1.397 . S
C41 C39 1.397 . S
C41 C42 1.384 . S
C41 H64 0.930 . S
C42 C41 1.384 . S
C42 C43 1.377 . S
C42 C45 1.481 1_556 S
C43 C42 1.377 . S
C43 C44 1.389 . S
C43 H65 0.929 . S
C44 C40 1.397 . S
C44 C43 1.389 . S
C44 H66 0.931 . S
C45 C42 1.481 1_554 S
C45 C46 1.387 . S
C45 C50 1.390 . S
C46 C45 1.387 . S
C46 C47 1.401 . S
C46 H67 0.930 1_554 S
C47 C46 1.401 . S
C47 C48 1.376 . S
C47 C56 1.511 . S
C48 C47 1.376 . S
C48 C49 1.392 . S
C48 H69 0.931 . S
C49 C48 1.392 . S
C49 C50 1.361 . S
C49 C51 1.500 . S
C50 C45 1.390 . S
C50 C49 1.361 . S
C50 H68 0.931 . S
C51 C49 1.500 . S
C51 C52 1.371 . S
C51 C53 1.365 . S
C52 C51 1.371 . S
C52 C62 1.386 . S
C52 H70 0.931 . S
C53 C51 1.365 . S
C53 C54 1.409 . S
C53 H71 0.929 . S
C54 C53 1.409 . S
C54 C55 1.380 . S
C54 H72 0.930 . S
C55 C54 1.380 . S
C55 C62 1.357 . S
C56 C47 1.511 . S
C56 C57 1.341 1_554 S
C56 C58 1.371 . S
C57 C56 1.341 1_556 S
C57 C61 1.394 . S
C57 H73 0.930 . S
C58 C56 1.371 . S
C58 C59 1.392 . S
C58 H74 0.931 . S
C59 C58 1.392 . S
C59 C60 1.331 . S
C59 H77 0.932 . S
C60 C59 1.331 . S
C60 C61 1.336 1_554 S
C61 C57 1.394 . S
C61 C60 1.336 1_556 S
C61 H76 0.929 . S
C62 C52 1.386 . S
C62 C55 1.357 . S
C62 H75 0.928 . S
H63 C39 0.931 . S
H64 C41 0.930 . S
H65 C43 0.929 . S
H66 C44 0.931 . S
H67 C46 0.930 1_556 S
H68 C50 0.931 . S
H69 C48 0.931 . S
H70 C52 0.931 . S
H71 C53 0.929 . S
H72 C54 0.930 . S
H73 C57 0.930 . S
H74 C58 0.931 . S
H75 C62 0.928 . S
H76 C61 0.929 . S
H77 C59 0.932 . S
C78 C79 1.397 . S
C78 C80 1.397 . S
C78 H102 0.931 . S
C79 C78 1.397 . S
C79 C83 1.387 1_565 S
C80 C78 1.397 . S
C80 C81 1.389 . S
C80 H103 0.930 . S
C81 C80 1.389 . S
C81 C82 1.371 1_565 S
C81 C84 1.479 . S
C82 C81 1.371 1_545 S
C82 C83 1.389 . S
C82 H104 0.929 . S
C83 C79 1.387 1_545 S
C83 C82 1.389 . S
C83 H105 0.931 . S
C84 C81 1.479 . S
C84 C85 1.396 . S
C84 C89 1.387 1_556 S
C85 C84 1.396 . S
C85 C86 1.401 . S
C85 H106 0.930 . S
C86 C85 1.401 . S
C86 C87 1.378 1_556 S
C86 C95 1.520 . S
C87 C86 1.378 1_554 S
C87 C88 1.382 . S
C87 H108 0.937 . S
C88 C87 1.382 . S
C88 C89 1.362 . S
C88 C90 1.495 1_565 S
C89 C84 1.387 1_554 S
C89 C88 1.362 . S
C89 H107 0.929 . S
C90 C88 1.495 1_545 S
C90 C91 1.363 1_545 S
C90 C92 1.377 . S
C91 C90 1.363 1_565 S
C91 C101 1.386 . S
C91 H109 0.931 . S
C92 C90 1.377 . S
C92 C93 1.409 . S
C92 H110 0.929 . S
C93 C92 1.409 . S
C93 C94 1.378 . S
C93 H111 0.930 . S
C94 C93 1.378 . S
C94 C101 1.361 1_545 S
C95 C86 1.520 . S
C95 C96 1.341 . S
C95 C97 1.371 1_566 S
C96 C95 1.341 . S
C96 C100 1.394 . S
C96 H112 0.930 . S
C97 C95 1.371 1_544 S
C97 C98 1.392 1_554 S
C97 H113 0.931 . S
C98 C97 1.392 1_556 S
C98 C99 1.318 1_545 S
C98 H116 0.932 1_556 S
C99 C98 1.318 1_565 S
C99 C100 1.343 . S
C100 C96 1.394 . S
C100 C99 1.343 . S
C100 H115 0.929 . S
C101 C91 1.386 . S
C101 C94 1.361 1_565 S
C101 H114 0.928 . S
H102 C78 0.931 . S
H103 C80 0.930 . S
H104 C82 0.929 . S
H105 C83 0.931 . S
H106 C85 0.930 . S
H107 C89 0.929 . S
H108 C87 0.937 . S
H109 C91 0.931 . S
H110 C92 0.929 . S
H111 C93 0.930 . S
H112 C96 0.930 . S
H113 C97 0.931 . S
H114 C101 0.928 . S
H115 C100 0.929 . S
H116 C98 0.932 1_554 S
C117 C118 1.386 . S
C117 C119 1.397 . S
C117 H141 0.931 . S
C118 C117 1.386 . S
C118 C122 1.397 . S
C119 C117 1.397 . S
C119 C120 1.384 . S
C119 H142 0.930 . S
C120 C119 1.384 . S
C120 C121 1.377 . S
C120 C123 1.481 . S
C121 C120 1.377 . S
C121 C122 1.389 . S
C121 H143 0.929 . S
C122 C118 1.397 . S
C122 C121 1.389 . S
C122 H144 0.931 . S
C123 C120 1.481 . S
C123 C124 1.387 . S
C123 C128 1.390 . S
C124 C123 1.387 . S
C124 C125 1.401 . S
C124 H145 0.930 . S
C125 C124 1.401 . S
C125 C126 1.376 . S
C125 C134 1.511 . S
C126 C125 1.376 . S
C126 C127 1.392 . S
C126 H147 0.931 . S
C127 C126 1.392 . S
C127 C128 1.361 . S
C127 C129 1.500 . S
C128 C123 1.390 . S
C128 C127 1.361 . S
C128 H146 0.931 . S
C129 C127 1.500 . S
C129 C130 1.371 . S
C129 C131 1.365 . S
C130 C129 1.371 . S
C130 C140 1.386 . S
C130 H148 0.931 . S
C131 C129 1.365 . S
C131 C132 1.409 . S
C131 H149 0.929 . S
C132 C131 1.409 . S
C132 C133 1.380 . S
C132 H150 0.930 . S
C133 C132 1.380 . S
C133 C140 1.357 . S
C134 C125 1.511 . S
C134 C135 1.341 . S
C134 C136 1.371 . S
C135 C134 1.341 . S
C135 C139 1.394 . S
C135 H151 0.930 . S
C136 C134 1.371 . S
C136 C137 1.392 . S
C136 H152 0.931 . S
C137 C136 1.392 . S
C137 C138 1.331 . S
C137 H155 0.932 . S
C138 C137 1.331 . S
C138 C139 1.336 . S
C139 C135 1.394 . S
C139 C138 1.336 . S
C139 H154 0.929 . S
C140 C130 1.386 . S
C140 C133 1.357 . S
C140 H153 0.928 . S
H141 C117 0.931 . S
H142 C119 0.930 . S
H143 C121 0.929 . S
H144 C122 0.931 . S
H145 C124 0.930 . S
H146 C128 0.931 . S
H147 C126 0.931 . S
H148 C130 0.931 . S
H149 C131 0.929 . S
H150 C132 0.930 . S
H151 C135 0.930 . S
H152 C136 0.931 . S
H153 C140 0.928 . S
H154 C139 0.929 . S
H155 C137 0.932 . S
C156 C157 1.386 . S
C156 C158 1.397 . S
C156 H180 0.931 . S
C157 C156 1.386 . S
C157 C161 1.397 . S
C158 C156 1.397 . S
C158 C159 1.384 . S
C158 H181 0.930 . S
C159 C158 1.384 . S
C159 C160 1.377 . S
C159 C162 1.481 . S
C160 C159 1.377 . S
C160 C161 1.389 . S
C160 H182 0.929 . S
C161 C157 1.397 . S
C161 C160 1.389 . S
C161 H183 0.931 . S
C162 C159 1.481 . S
C162 C163 1.387 . S
C162 C167 1.390 . S
C163 C162 1.387 . S
C163 C164 1.401 . S
C163 H184 0.930 . S
C164 C163 1.401 . S
C164 C165 1.376 . S
C164 C173 1.511 . S
C165 C164 1.376 . S
C165 C166 1.392 . S
C165 H186 0.931 . S
C166 C165 1.392 . S
C166 C167 1.361 . S
C166 C168 1.500 . S
C167 C162 1.390 . S
C167 C166 1.361 . S
C167 H185 0.931 . S
C168 C166 1.500 . S
C168 C169 1.371 . S
C168 C170 1.365 . S
C169 C168 1.371 . S
C169 C179 1.386 . S
C169 H187 0.931 . S
C170 C168 1.365 . S
C170 C171 1.409 . S
C170 H188 0.929 . S
C171 C170 1.409 . S
C171 C172 1.380 . S
C171 H189 0.930 . S
C172 C171 1.380 . S
C172 C179 1.357 . S
C173 C164 1.511 . S
C173 C174 1.341 . S
C173 C175 1.371 . S
C174 C173 1.341 . S
C174 C178 1.394 . S
C174 H190 0.930 . S
C175 C173 1.371 . S
C175 C176 1.392 . S
C175 H191 0.931 . S
C176 C175 1.392 . S
C176 C177 1.331 . S
C176 H194 0.932 . S
C177 C176 1.331 . S
C177 C178 1.336 . S
C178 C174 1.394 . S
C178 C177 1.336 . S
C178 H193 0.929 . S
C179 C169 1.386 . S
C179 C172 1.357 . S
C179 H192 0.928 . S
H180 C156 0.931 . S
H181 C158 0.930 . S
H182 C160 0.929 . S
H183 C161 0.931 . S
H184 C163 0.930 . S
H185 C167 0.931 . S
H186 C165 0.931 . S
H187 C169 0.931 . S
H188 C170 0.929 . S
H189 C171 0.930 . S
H190 C174 0.930 . S
H191 C175 0.931 . S
H192 C179 0.928 . S
H193 C178 0.929 . S
H194 C176 0.932 . S
C195 C196 1.386 . S
C195 C197 1.397 . S
C195 H219 0.931 . S
C196 C195 1.386 . S
C196 C200 1.397 . S
C197 C195 1.397 . S
C197 C198 1.384 . S
C197 H220 0.930 . S
C198 C197 1.384 . S
C198 C199 1.377 . S
C198 C201 1.481 . S
C199 C198 1.377 . S
C199 C200 1.389 . S
C199 H221 0.929 . S
C200 C196 1.397 . S
C200 C199 1.389 . S
C200 H222 0.931 . S
C201 C198 1.481 . S
C201 C202 1.387 . S
C201 C206 1.390 . S
C202 C201 1.387 . S
C202 C203 1.401 . S
C202 H223 0.930 . S
C203 C202 1.401 . S
C203 C204 1.376 . S
C203 C212 1.511 . S
C204 C203 1.376 . S
C204 C205 1.392 . S
C204 H225 0.931 . S
C205 C204 1.392 . S
C205 C206 1.361 . S
C205 C207 1.500 . S
C206 C201 1.390 . S
C206 C205 1.361 . S
C206 H224 0.931 . S
C207 C205 1.500 . S
C207 C208 1.371 . S
C207 C209 1.365 . S
C208 C207 1.371 . S
C208 C218 1.386 . S
C208 H226 0.931 . S
C209 C207 1.365 . S
C209 C210 1.409 . S
C209 H227 0.929 . S
C210 C209 1.409 . S
C210 C211 1.380 . S
C210 H228 0.930 . S
C211 C210 1.380 . S
C211 C218 1.357 . S
C212 C203 1.511 . S
C212 C213 1.341 . S
C212 C214 1.371 . S
C213 C212 1.341 . S
C213 C217 1.394 . S
C213 H229 0.930 . S
C214 C212 1.371 . S
C214 C215 1.392 . S
C214 H230 0.931 . S
C215 C214 1.392 . S
C215 C216 1.331 . S
C215 H233 0.932 . S
C216 C215 1.331 . S
C216 C217 1.336 . S
C217 C213 1.394 . S
C217 C216 1.336 . S
C217 H232 0.929 . S
C218 C208 1.386 . S
C218 C211 1.357 . S
C218 H231 0.928 . S
H219 C195 0.931 . S
H220 C197 0.930 . S
H221 C199 0.929 . S
H222 C200 0.931 . S
H223 C202 0.930 . S
H224 C206 0.931 . S
H225 C204 0.931 . S
H226 C208 0.931 . S
H227 C209 0.929 . S
H228 C210 0.930 . S
H229 C213 0.930 . S
H230 C214 0.931 . S
H231 C218 0.928 . S
H232 C217 0.929 . S
H233 C215 0.932 . S
C234 C235 1.386 . S
C234 C236 1.397 . S
C234 H258 0.931 . S
C235 C234 1.386 . S
C235 C239 1.397 1_565 S
C236 C234 1.397 . S
C236 C237 1.381 . S
C236 H259 0.930 . S
C237 C236 1.381 . S
C237 C238 1.380 1_565 S
C237 C240 1.482 . S
C238 C237 1.380 1_545 S
C238 C239 1.389 . S
C238 H260 0.929 . S
C239 C235 1.397 1_545 S
C239 C238 1.389 . S
C239 H261 0.931 . S
C240 C237 1.482 . S
C240 C241 1.395 . S
C240 C245 1.393 . S
C241 C240 1.395 . S
C241 C242 1.398 . S
C241 H262 0.926 . S
C242 C241 1.398 . S
C242 C243 1.374 . S
C242 C251 1.508 . S
C243 C242 1.374 . S
C243 C244 1.398 1_565 S
C243 H264 0.932 . S
C244 C243 1.398 1_545 S
C244 C245 1.361 1_545 S
C244 C246 1.505 . S
C245 C240 1.393 . S
C245 C244 1.361 1_565 S
C245 H263 0.930 1_565 S
C246 C244 1.505 . S
C246 C247 1.358 1_545 S
C246 C248 1.374 . S
C247 C246 1.358 1_565 S
C247 C257 1.386 . S
C247 H265 0.931 . S
C248 C246 1.374 . S
C248 C249 1.409 . S
C248 H266 0.929 . S
C249 C248 1.409 . S
C249 C250 1.384 . S
C249 H267 0.930 . S
C250 C249 1.384 . S
C250 C257 1.355 1_545 S
C251 C242 1.508 . S
C251 C252 1.341 . S
C251 C253 1.371 1_565 S
C252 C251 1.341 . S
C252 C256 1.394 . S
C252 H268 0.930 . S
C253 C251 1.371 1_545 S
C253 C254 1.392 . S
C253 H269 0.931 . S
C254 C253 1.392 . S
C254 C255 1.329 1_545 S
C254 H272 0.932 . S
C255 C254 1.329 1_565 S
C255 C256 1.342 . S
C256 C252 1.394 . S
C256 C255 1.342 . S
C256 H271 0.929 . S
C257 C247 1.386 . S
C257 C250 1.355 1_565 S
C257 H270 0.928 . S
H258 C234 0.931 . S
H259 C236 0.930 . S
H260 C238 0.929 . S
H261 C239 0.931 . S
H262 C241 0.926 . S
H263 C245 0.930 1_545 S
H264 C243 0.932 . S
H265 C247 0.931 . S
H266 C248 0.929 . S
H267 C249 0.930 . S
H268 C252 0.930 . S
H269 C253 0.931 . S
H270 C257 0.928 . S
H271 C256 0.929 . S
H272 C254 0.932 . S
C273 C274 1.386 . S
C273 C275 1.397 . S
C273 H297 0.931 . S
C274 C273 1.386 . S
C274 C278 1.397 . S
C275 C273 1.397 . S
C275 C276 1.384 . S
C275 H298 0.930 . S
C276 C275 1.384 . S
C276 C277 1.377 . S
C276 C279 1.481 . S
C277 C276 1.377 . S
C277 C278 1.389 . S
C277 H299 0.929 . S
C278 C274 1.397 . S
C278 C277 1.389 . S
C278 H300 0.931 . S
C279 C276 1.481 . S
C279 C280 1.387 . S
C279 C284 1.390 . S
C280 C279 1.387 . S
C280 C281 1.401 . S
C280 H301 0.930 . S
C281 C280 1.401 . S
C281 C282 1.376 . S
C281 C290 1.511 . S
C282 C281 1.376 . S
C282 C283 1.392 . S
C282 H303 0.931 . S
C283 C282 1.392 . S
C283 C284 1.361 . S
C283 C285 1.500 . S
C284 C279 1.390 . S
C284 C283 1.361 . S
C284 H302 0.931 . S
C285 C283 1.500 . S
C285 C286 1.371 . S
C285 C287 1.365 . S
C286 C285 1.371 . S
C286 C296 1.386 . S
C286 H304 0.931 . S
C287 C285 1.365 . S
C287 C288 1.409 . S
C287 H305 0.929 . S
C288 C287 1.409 . S
C288 C289 1.380 . S
C288 H306 0.930 . S
C289 C288 1.380 . S
C289 C296 1.357 . S
C290 C281 1.511 . S
C290 C291 1.341 . S
C290 C292 1.371 . S
C291 C290 1.341 . S
C291 C295 1.394 . S
C291 H307 0.930 . S
C292 C290 1.371 . S
C292 C293 1.392 . S
C292 H308 0.931 . S
C293 C292 1.392 . S
C293 C294 1.331 . S
C293 H311 0.932 . S
C294 C293 1.331 . S
C294 C295 1.336 . S
C295 C291 1.394 . S
C295 C294 1.336 . S
C295 H310 0.929 . S
C296 C286 1.386 . S
C296 C289 1.357 . S
C296 H309 0.928 . S
H297 C273 0.931 . S
H298 C275 0.930 . S
H299 C277 0.929 . S
H300 C278 0.931 . S
H301 C280 0.930 . S
H302 C284 0.931 . S
H303 C282 0.931 . S
H304 C286 0.931 . S
H305 C287 0.929 . S
H306 C288 0.930 . S
H307 C291 0.930 . S
H308 C292 0.931 . S
H309 C296 0.928 . S
H310 C295 0.929 . S
H311 C293 0.932 . S
Nd312 C314 2.836 1_455 S
Nd312 O332 2.500 1_455 S
Nd312 O333 2.492 . S
Nd312 O334 2.487 . S
Nd312 O335 2.677 1_565 S
Nd312 O336 2.410 . S
Nd312 O341 2.427 1_455 S
Nd312 O343 2.424 1_565 S
Nd313 C323 2.836 . S
Nd313 O335 2.432 . S
Nd313 O337 2.424 1_545 S
Nd313 O338 2.500 . S
Nd313 O339 2.492 . S
Nd313 O340 2.487 1_455 S
Nd313 O341 2.679 1_445 S
Nd313 O342 2.410 . S
C314 Nd312 2.836 1_655 S
C314 C315 1.498 . S
C314 O332 1.258 . S
C314 O333 1.239 1_655 S
C315 C314 1.498 . S
C315 C316 1.366 . S
C315 C320 1.407 . S
C316 C315 1.366 . S
C316 C317 1.392 . S
C316 H344 0.930 . S
C317 C316 1.392 . S
C317 C318 1.398 . S
C317 H345 0.929 . S
C318 C317 1.398 . S
C318 C319 1.352 . S
C319 C318 1.352 . S
C319 C320 1.384 . S
C319 H346 0.930 . S
C320 C315 1.407 . S
C320 C319 1.384 . S
C320 H347 0.929 1_655 S
C321 O334 1.241 . S
C321 O335 1.247 1_565 S
C322 O336 1.251 . S
C322 O337 1.268 . S
C323 Nd313 2.836 . S
C323 C324 1.498 . S
C323 O338 1.258 . S
C323 O339 1.239 . S
C324 C323 1.498 . S
C324 C325 1.366 . S
C324 C329 1.407 . S
C325 C324 1.366 . S
C325 C326 1.392 . S
C325 H348 0.930 . S
C326 C325 1.392 . S
C326 C327 1.398 . S
C326 H349 0.929 . S
C327 C326 1.398 . S
C327 C328 1.352 1_556 S
C328 C327 1.352 1_554 S
C328 C329 1.384 1_554 S
C328 H350 0.930 . S
C329 C324 1.407 . S
C329 C328 1.384 1_556 S
C329 H351 0.929 . S
C330 O340 1.241 . S
C330 O341 1.254 1_545 S
C331 O342 1.251 . S
C331 O343 1.268 . S
O332 Nd312 2.500 1_655 S
O332 C314 1.258 . S
O333 Nd312 2.492 . S
O333 C314 1.239 1_455 S
O334 Nd312 2.487 . S
O334 C321 1.241 . S
O335 Nd312 2.677 1_545 S
O335 Nd313 2.432 . S
O335 C321 1.247 1_545 S
O336 Nd312 2.410 . S
O336 C322 1.251 . S
O337 Nd313 2.424 1_565 S
O337 C322 1.268 . S
O338 Nd313 2.500 . S
O338 C323 1.258 . S
O339 Nd313 2.492 . S
O339 C323 1.239 . S
O340 Nd313 2.487 1_655 S
O340 C330 1.241 . S
O341 Nd312 2.427 1_655 S
O341 Nd313 2.679 1_665 S
O341 C330 1.254 1_565 S
O342 Nd313 2.410 . S
O342 C331 1.251 . S
O343 Nd312 2.424 1_545 S
O343 C331 1.268 . S
H344 C316 0.930 . S
H345 C317 0.929 . S
H346 C319 0.930 . S
H347 C320 0.929 1_455 S
H348 C325 0.930 . S
H349 C326 0.929 . S
H350 C328 0.930 . S
H351 C329 0.929 . S
Nd352 C354 2.836 . S
Nd352 O372 2.500 . S
Nd352 O373 2.492 1_565 S
Nd352 O374 2.487 1_565 S
Nd352 O375 2.682 1_565 S
Nd352 O376 2.410 1_565 S
Nd352 O381 2.414 . S
Nd352 O383 2.424 . S
Nd353 C363 2.836 . S
Nd353 O375 2.414 . S
Nd353 O377 2.424 . S
Nd353 O378 2.500 . S
Nd353 O379 2.492 1_545 S
Nd353 O380 2.487 1_545 S
Nd353 O381 2.682 1_545 S
Nd353 O382 2.410 1_545 S
C354 Nd352 2.836 . S
C354 C355 1.498 . S
C354 O372 1.258 . S
C354 O373 1.222 1_565 S
C355 C354 1.498 . S
C355 C356 1.366 . S
C355 C360 1.407 . S
C356 C355 1.366 . S
C356 C357 1.392 . S
C356 H384 0.930 . S
C357 C356 1.392 . S
C357 C358 1.398 . S
C357 H385 0.929 . S
C358 C357 1.398 . S
C358 C359 1.352 . S
C359 C358 1.352 . S
C359 C360 1.384 . S
C359 H386 0.926 1_565 S
C360 C355 1.407 . S
C360 C359 1.384 . S
C360 H387 0.929 1_565 S
C361 O374 1.241 . S
C361 O375 1.273 . S
C362 O376 1.251 . S
C362 O377 1.268 . S
C363 Nd353 2.836 . S
C363 C364 1.498 . S
C363 O378 1.258 . S
C363 O379 1.233 1_545 S
C364 C363 1.498 . S
C364 C365 1.366 . S
C364 C369 1.407 . S
C365 C364 1.366 . S
C365 C366 1.392 . S
C365 H388 0.930 . S
C366 C365 1.392 . S
C366 C367 1.398 . S
C366 H389 0.929 . S
C367 C366 1.398 . S
C367 C368 1.352 1_556 S
C368 C367 1.352 1_554 S
C368 C369 1.384 1_554 S
C368 H390 0.932 1_545 S
C369 C364 1.407 . S
C369 C368 1.384 1_556 S
C369 H391 0.929 1_546 S
C370 O380 1.241 . S
C370 O381 1.273 . S
C371 O382 1.251 . S
C371 O383 1.268 . S
O372 Nd352 2.500 . S
O372 C354 1.258 . S
O373 Nd352 2.492 1_545 S
O373 C354 1.222 1_545 S
O374 Nd352 2.487 1_545 S
O374 C361 1.241 . S
O375 Nd352 2.682 1_545 S
O375 Nd353 2.414 . S
O375 C361 1.273 . S
O376 Nd352 2.410 1_545 S
O376 C362 1.251 . S
O377 Nd353 2.424 . S
O377 C362 1.268 . S
O378 Nd353 2.500 . S
O378 C363 1.258 . S
O379 Nd353 2.492 1_565 S
O379 C363 1.233 1_565 S
O380 Nd353 2.487 1_565 S
O380 C370 1.241 . S
O381 Nd352 2.414 . S
O381 Nd353 2.682 1_565 S
O381 C370 1.273 . S
O382 Nd353 2.410 1_565 S
O382 C371 1.251 . S
O383 Nd352 2.424 . S
O383 C371 1.268 . S
H384 C356 0.930 . S
H385 C357 0.929 . S
H386 C359 0.926 1_545 S
H387 C360 0.929 1_545 S
H388 C365 0.930 . S
H389 C366 0.929 . S
H390 C368 0.932 1_565 S
H391 C369 0.929 1_564 S
Nd392 C394 2.836 . S
Nd392 O412 2.500 . S
Nd392 O413 2.492 . S
Nd392 O414 2.487 . S
Nd392 O415 2.682 . S
Nd392 O416 2.410 . S
Nd392 O421 2.414 . S
Nd392 O423 2.424 . S
Nd393 C403 2.836 . S
Nd393 O415 2.414 . S
Nd393 O417 2.424 . S
Nd393 O418 2.500 . S
Nd393 O419 2.492 . S
Nd393 O420 2.487 . S
Nd393 O421 2.682 . S
Nd393 O422 2.410 . S
C394 Nd392 2.836 . S
C394 C395 1.498 . S
C394 O412 1.258 . S
C394 O413 1.239 . S
C395 C394 1.498 . S
C395 C396 1.366 . S
C395 C400 1.407 . S
C396 C395 1.366 . S
C396 C397 1.392 . S
C396 H424 0.930 . S
C397 C396 1.392 . S
C397 C398 1.398 . S
C397 H425 0.929 . S
C398 C397 1.398 . S
C398 C399 1.352 . S
C399 C398 1.352 . S
C399 C400 1.384 . S
C399 H426 0.930 . S
C400 C395 1.407 . S
C400 C399 1.384 . S
C400 H427 0.929 . S
C401 O414 1.241 . S
C401 O415 1.273 . S
C402 O416 1.251 . S
C402 O417 1.268 . S
C403 Nd393 2.836 . S
C403 C404 1.498 . S
C403 O418 1.258 . S
C403 O419 1.239 . S
C404 C403 1.498 . S
C404 C405 1.366 . S
C404 C409 1.407 . S
C405 C404 1.366 . S
C405 C406 1.392 . S
C405 H428 0.930 . S
C406 C405 1.392 . S
C406 C407 1.398 . S
C406 H429 0.929 . S
C407 C406 1.398 . S
C407 C408 1.352 . S
C408 C407 1.352 . S
C408 C409 1.384 . S
C408 H430 0.930 . S
C409 C404 1.407 . S
C409 C408 1.384 . S
C409 H431 0.929 . S
C410 O420 1.241 . S
C410 O421 1.273 . S
C411 O422 1.251 . S
C411 O423 1.268 . S
O412 Nd392 2.500 . S
O412 C394 1.258 . S
O413 Nd392 2.492 . S
O413 C394 1.239 . S
O414 Nd392 2.487 . S
O414 C401 1.241 . S
O415 Nd392 2.682 . S
O415 Nd393 2.414 . S
O415 C401 1.273 . S
O416 Nd392 2.410 . S
O416 C402 1.251 . S
O417 Nd393 2.424 . S
O417 C402 1.268 . S
O418 Nd393 2.500 . S
O418 C403 1.258 . S
O419 Nd393 2.492 . S
O419 C403 1.239 . S
O420 Nd393 2.487 . S
O420 C410 1.241 . S
O421 Nd392 2.414 . S
O421 Nd393 2.682 . S
O421 C410 1.273 . S
O422 Nd393 2.410 . S
O422 C411 1.251 . S
O423 Nd392 2.424 . S
O423 C411 1.268 . S
H424 C396 0.930 . S
H425 C397 0.929 . S
H426 C399 0.930 . S
H427 C400 0.929 . S
H428 C405 0.930 . S
H429 C406 0.929 . S
H430 C408 0.930 . S
H431 C409 0.929 . S
Nd432 C434 2.836 1_455 S
Nd432 O452 2.500 1_455 S
Nd432 O453 2.492 1_455 S
Nd432 O454 2.487 . S
Nd432 O455 2.682 . S
Nd432 O456 2.410 1_455 S
Nd432 O461 2.414 . S
Nd432 O463 2.424 . S
Nd433 C443 2.836 . S
Nd433 O455 2.414 . S
Nd433 O457 2.424 1_455 S
Nd433 O458 2.500 . S
Nd433 O459 2.492 . S
Nd433 O460 2.487 . S
Nd433 O461 2.682 . S
Nd433 O462 2.410 . S
C434 Nd432 2.836 1_655 S
C434 C435 1.498 . S
C434 O452 1.258 . S
C434 O453 1.239 . S
C435 C434 1.498 . S
C435 C436 1.366 . S
C435 C440 1.407 . S
C436 C435 1.366 . S
C436 C437 1.392 . S
C436 H464 0.930 . S
C437 C436 1.392 . S
C437 C438 1.398 . S
C437 H465 0.929 . S
C438 C437 1.398 . S
C438 C439 1.352 . S
C439 C438 1.352 . S
C439 C440 1.384 . S
C439 H466 0.930 . S
C440 C435 1.407 . S
C440 C439 1.384 . S
C440 H467 0.929 . S
C441 O454 1.241 . S
C441 O455 1.273 . S
C442 O456 1.251 . S
C442 O457 1.268 . S
C443 Nd433 2.836 . S
C443 C444 1.498 . S
C443 O458 1.258 . S
C443 O459 1.239 . S
C444 C443 1.498 . S
C444 C445 1.366 . S
C444 C449 1.407 . S
C445 C444 1.366 . S
C445 C446 1.392 . S
C445 H468 0.930 . S
C446 C445 1.392 . S
C446 C447 1.398 . S
C446 H469 0.929 . S
C447 C446 1.398 . S
C447 C448 1.352 1_556 S
C448 C447 1.352 1_554 S
C448 C449 1.384 1_554 S
C448 H470 0.930 . S
C449 C444 1.407 . S
C449 C448 1.384 1_556 S
C449 H471 0.929 . S
C450 O460 1.241 . S
C450 O461 1.273 . S
C451 O462 1.251 . S
C451 O463 1.268 . S
O452 Nd432 2.500 1_655 S
O452 C434 1.258 . S
O453 Nd432 2.492 1_655 S
O453 C434 1.239 . S
O454 Nd432 2.487 . S
O454 C441 1.241 . S
O455 Nd432 2.682 . S
O455 Nd433 2.414 . S
O455 C441 1.273 . S
O456 Nd432 2.410 1_655 S
O456 C442 1.251 . S
O457 Nd433 2.424 1_655 S
O457 C442 1.268 . S
O458 Nd433 2.500 . S
O458 C443 1.258 . S
O459 Nd433 2.492 . S
O459 C443 1.239 . S
O460 Nd433 2.487 . S
O460 C450 1.241 . S
O461 Nd432 2.414 . S
O461 Nd433 2.682 . S
O461 C450 1.273 . S
O462 Nd433 2.410 . S
O462 C451 1.251 . S
O463 Nd432 2.424 . S
O463 C451 1.268 . S
H464 C436 0.930 . S
H465 C437 0.929 . S
H466 C439 0.930 . S
H467 C440 0.929 . S
H468 C445 0.930 . S
H469 C446 0.929 . S
H470 C448 0.930 . S
H471 C449 0.929 . S
H472 C490 0.951 . S
H473 C492 0.951 . S
H474 C494 0.950 . S
H475 C495 0.950 . S
H476 C497 0.950 . S
H477 C500 0.950 . S
H478 C501 0.950 . S
H479 C503 0.950 . S
H480 C504 0.950 . S
H481 C505 0.951 . S
H482 C507 0.951 . S
H483 C509 0.950 . S
H484 C510 0.950 . S
H485 C512 0.950 . S
H486 C515 0.950 . S
H487 C516 0.950 . S
H488 C518 0.950 . S
H489 C519 0.950 . S
C490 H472 0.951 . S
C490 C491 1.367 1_565 S
C490 C492 1.388 . S
C491 C490 1.367 1_545 S
C491 C495 1.383 . S
C492 H473 0.951 . S
C492 C490 1.388 . S
C492 C493 1.374 . S
C493 C492 1.374 . S
C493 C494 1.407 1_565 S
C493 C496 1.497 . S
C494 H474 0.950 . S
C494 C493 1.407 1_545 S
C494 C495 1.374 . S
C495 H475 0.950 . S
C495 C491 1.383 . S
C495 C494 1.374 . S
C496 C493 1.497 . S
C496 C497 1.373 1_565 S
C496 C498 1.390 . S
C497 H476 0.950 . S
C497 C496 1.373 1_545 S
C497 C513 1.377 . S
C498 C496 1.390 . S
C498 C499 1.524 . S
C498 C512 1.377 . S
C499 C498 1.524 . S
C499 C500 1.397 1_565 S
C499 C504 1.363 . S
C500 H477 0.950 . S
C500 C499 1.397 1_545 S
C500 C501 1.334 . S
C501 H478 0.950 . S
C501 C500 1.334 . S
C501 C502 1.287 1_545 S
C502 C501 1.287 1_565 S
C502 C503 1.524 . S
C502 H521 0.913 . S
C503 H479 0.950 . S
C503 C502 1.524 . S
C503 C504 1.415 . S
C504 H480 0.950 . S
C504 C499 1.363 . S
C504 C503 1.415 . S
C505 H481 0.951 . S
C505 C506 1.366 1_545 S
C505 C507 1.388 . S
C506 C505 1.366 1_565 S
C506 C510 1.385 . S
C507 H482 0.951 . S
C507 C505 1.388 . S
C507 C508 1.366 1_545 S
C508 C507 1.366 1_565 S
C508 C509 1.414 . S
C508 C511 1.499 . S
C509 H483 0.950 . S
C509 C508 1.414 . S
C509 C510 1.374 . S
C510 H484 0.950 . S
C510 C506 1.385 . S
C510 C509 1.374 . S
C511 C508 1.499 . S
C511 C512 1.373 . S
C511 C513 1.389 1_565 S
C512 H485 0.950 . S
C512 C498 1.377 . S
C512 C511 1.373 . S
C513 C497 1.377 . S
C513 C511 1.389 1_545 S
C513 C514 1.524 . S
C514 C513 1.524 . S
C514 C515 1.397 1_545 S
C514 C519 1.363 . S
C515 H486 0.950 . S
C515 C514 1.397 1_565 S
C515 C516 1.334 . S
C516 H487 0.950 . S
C516 C515 1.334 . S
C516 C517 1.287 1_565 S
C517 C516 1.287 1_545 S
C517 C518 1.524 . S
C517 H520 0.999 . S
C518 H488 0.950 . S
C518 C517 1.524 . S
C518 C519 1.415 . S
C519 H489 0.950 . S
C519 C514 1.363 . S
C519 C518 1.415 . S
H520 C517 0.999 . S
H521 C502 0.913 . S
H522 C540 0.951 . S
H523 C542 0.951 . S
H524 C544 0.950 . S
H525 C545 0.950 . S
H526 C547 0.950 . S
H527 C550 0.950 . S
H528 C551 0.950 . S
H529 C553 0.950 . S
H530 C554 0.950 . S
H531 C555 0.951 . S
H532 C557 0.951 . S
H533 C559 0.950 . S
H534 C560 0.950 . S
H535 C562 0.950 . S
H536 C565 0.950 . S
H537 C566 0.950 . S
H538 C568 0.950 . S
H539 C569 0.950 . S
C540 H522 0.951 . S
C540 C541 1.366 . S
C540 C542 1.388 . S
C541 C540 1.366 . S
C541 C545 1.385 . S
C542 H523 0.951 . S
C542 C540 1.388 . S
C542 C543 1.366 . S
C543 C542 1.366 . S
C543 C544 1.414 . S
C543 C546 1.499 . S
C544 H524 0.950 . S
C544 C543 1.414 . S
C544 C545 1.374 . S
C545 H525 0.950 . S
C545 C541 1.385 . S
C545 C544 1.374 . S
C546 C543 1.499 . S
C546 C547 1.373 . S
C546 C548 1.389 . S
C547 H526 0.950 . S
C547 C546 1.373 . S
C547 C563 1.377 . S
C548 C546 1.389 . S
C548 C549 1.524 . S
C548 C562 1.377 . S
C549 C548 1.524 . S
C549 C550 1.397 . S
C549 C554 1.363 . S
C550 H527 0.950 . S
C550 C549 1.397 . S
C550 C551 1.334 . S
C551 H528 0.950 . S
C551 C550 1.334 . S
C551 C552 1.287 . S
C552 C551 1.287 . S
C552 C553 1.524 . S
C552 H571 0.913 . S
C553 H529 0.950 . S
C553 C552 1.524 . S
C553 C554 1.415 . S
C554 H530 0.950 . S
C554 C549 1.363 . S
C554 C553 1.415 . S
C555 H531 0.951 . S
C555 C556 1.366 . S
C555 C557 1.388 . S
C556 C555 1.366 . S
C556 C560 1.385 . S
C557 H532 0.951 . S
C557 C555 1.388 . S
C557 C558 1.366 . S
C558 C557 1.366 . S
C558 C559 1.414 . S
C558 C561 1.499 . S
C559 H533 0.950 . S
C559 C558 1.414 . S
C559 C560 1.374 . S
C560 H534 0.950 . S
C560 C556 1.385 . S
C560 C559 1.374 . S
C561 C558 1.499 . S
C561 C562 1.373 . S
C561 C563 1.389 . S
C562 H535 0.950 . S
C562 C548 1.377 . S
C562 C561 1.373 . S
C563 C547 1.377 . S
C563 C561 1.389 . S
C563 C564 1.524 . S
C564 C563 1.524 . S
C564 C565 1.397 . S
C564 C569 1.363 . S
C565 H536 0.950 . S
C565 C564 1.397 . S
C565 C566 1.334 . S
C566 H537 0.950 . S
C566 C565 1.334 . S
C566 C567 1.287 . S
C567 C566 1.287 . S
C567 C568 1.524 . S
C567 H570 0.999 . S
C568 H538 0.950 . S
C568 C567 1.524 . S
C568 C569 1.415 . S
C569 H539 0.950 . S
C569 C564 1.363 . S
C569 C568 1.415 . S
H570 C567 0.999 . S
H571 C552 0.913 . S
H572 C590 0.951 . S
H573 C592 0.951 . S
H574 C594 0.950 . S
H575 C595 0.950 . S
H576 C597 0.950 . S
H577 C600 0.950 . S
H578 C601 0.950 . S
H579 C603 0.950 . S
H580 C604 0.950 . S
H581 C605 0.951 . S
H582 C607 0.951 . S
H583 C609 0.950 . S
H584 C610 0.950 . S
H585 C612 0.950 . S
H586 C615 0.950 . S
H587 C616 0.950 . S
H588 C618 0.950 . S
H589 C619 0.950 . S
C590 H572 0.951 . S
C590 C591 1.366 . S
C590 C592 1.388 . S
C591 C590 1.366 . S
C591 C595 1.385 . S
C592 H573 0.951 . S
C592 C590 1.388 . S
C592 C593 1.366 . S
C593 C592 1.366 . S
C593 C594 1.414 . S
C593 C596 1.499 . S
C594 H574 0.950 . S
C594 C593 1.414 . S
C594 C595 1.374 . S
C595 H575 0.950 . S
C595 C591 1.385 . S
C595 C594 1.374 . S
C596 C593 1.499 . S
C596 C597 1.373 . S
C596 C598 1.389 . S
C597 H576 0.950 . S
C597 C596 1.373 . S
C597 C613 1.377 . S
C598 C596 1.389 . S
C598 C599 1.524 . S
C598 C612 1.377 . S
C599 C598 1.524 . S
C599 C600 1.397 . S
C599 C604 1.363 . S
C600 H577 0.950 . S
C600 C599 1.397 . S
C600 C601 1.334 . S
C601 H578 0.950 . S
C601 C600 1.334 . S
C601 C602 1.287 . S
C602 C601 1.287 . S
C602 C603 1.524 . S
C602 H621 0.913 . S
C603 H579 0.950 . S
C603 C602 1.524 . S
C603 C604 1.415 . S
C604 H580 0.950 . S
C604 C599 1.363 . S
C604 C603 1.415 . S
C605 H581 0.951 . S
C605 C606 1.366 . S
C605 C607 1.388 . S
C606 C605 1.366 . S
C606 C610 1.385 . S
C607 H582 0.951 . S
C607 C605 1.388 . S
C607 C608 1.366 . S
C608 C607 1.366 . S
C608 C609 1.414 . S
C608 C611 1.499 . S
C609 H583 0.950 . S
C609 C608 1.414 . S
C609 C610 1.374 . S
C610 H584 0.950 . S
C610 C606 1.385 . S
C610 C609 1.374 . S
C611 C608 1.499 . S
C611 C612 1.373 . S
C611 C613 1.389 . S
C612 H585 0.950 . S
C612 C598 1.377 . S
C612 C611 1.373 . S
C613 C597 1.377 . S
C613 C611 1.389 . S
C613 C614 1.524 . S
C614 C613 1.524 . S
C614 C615 1.397 . S
C614 C619 1.363 . S
C615 H586 0.950 . S
C615 C614 1.397 . S
C615 C616 1.334 . S
C616 H587 0.950 . S
C616 C615 1.334 . S
C616 C617 1.287 . S
C617 C616 1.287 . S
C617 C618 1.524 . S
C617 H620 0.999 . S
C618 H588 0.950 . S
C618 C617 1.524 . S
C618 C619 1.415 . S
C619 H589 0.950 . S
C619 C614 1.363 . S
C619 C618 1.415 . S
H620 C617 0.999 . S
H621 C602 0.913 . S
H622 C640 0.951 . S
H623 C642 0.951 . S
H624 C644 0.950 . S
H625 C645 0.950 . S
H626 C647 0.950 . S
H627 C650 0.950 . S
H628 C651 0.950 . S
H629 C653 0.950 . S
H630 C654 0.950 . S
H631 C655 0.951 . S
H632 C657 0.951 . S
H633 C659 0.950 . S
H634 C660 0.950 . S
H635 C662 0.950 . S
H636 C665 0.950 . S
H637 C666 0.950 . S
H638 C668 0.950 . S
H639 C669 0.950 . S
C640 H622 0.951 . S
C640 C641 1.366 . S
C640 C642 1.388 . S
C641 C640 1.366 . S
C641 C645 1.385 . S
C642 H623 0.951 . S
C642 C640 1.388 . S
C642 C643 1.366 . S
C643 C642 1.366 . S
C643 C644 1.414 . S
C643 C646 1.499 . S
C644 H624 0.950 . S
C644 C643 1.414 . S
C644 C645 1.374 . S
C645 H625 0.950 . S
C645 C641 1.385 . S
C645 C644 1.374 . S
C646 C643 1.499 . S
C646 C647 1.373 . S
C646 C648 1.389 . S
C647 H626 0.950 . S
C647 C646 1.373 . S
C647 C663 1.377 . S
C648 C646 1.389 . S
C648 C649 1.524 . S
C648 C662 1.377 . S
C649 C648 1.524 . S
C649 C650 1.397 . S
C649 C654 1.363 . S
C650 H627 0.950 . S
C650 C649 1.397 . S
C650 C651 1.334 . S
C651 H628 0.950 . S
C651 C650 1.334 . S
C651 C652 1.287 . S
C652 C651 1.287 . S
C652 C653 1.524 . S
C652 H671 0.913 . S
C653 H629 0.950 . S
C653 C652 1.524 . S
C653 C654 1.415 . S
C654 H630 0.950 . S
C654 C649 1.363 . S
C654 C653 1.415 . S
C655 H631 0.951 . S
C655 C656 1.366 . S
C655 C657 1.388 . S
C656 C655 1.366 . S
C656 C660 1.385 . S
C657 H632 0.951 . S
C657 C655 1.388 . S
C657 C658 1.366 . S
C658 C657 1.366 . S
C658 C659 1.414 . S
C658 C661 1.499 . S
C659 H633 0.950 . S
C659 C658 1.414 . S
C659 C660 1.374 . S
C660 H634 0.950 . S
C660 C656 1.385 . S
C660 C659 1.374 . S
C661 C658 1.499 . S
C661 C662 1.373 . S
C661 C663 1.389 . S
C662 H635 0.950 . S
C662 C648 1.377 . S
C662 C661 1.373 . S
C663 C647 1.377 . S
C663 C661 1.389 . S
C663 C664 1.524 . S
C664 C663 1.524 . S
C664 C665 1.397 . S
C664 C669 1.363 . S
C665 H636 0.950 . S
C665 C664 1.397 . S
C665 C666 1.334 . S
C666 H637 0.950 . S
C666 C665 1.334 . S
C666 C667 1.287 . S
C667 C666 1.287 . S
C667 C668 1.524 . S
C667 H670 0.999 . S
C668 H638 0.950 . S
C668 C667 1.524 . S
C668 C669 1.415 . S
C669 H639 0.950 . S
C669 C664 1.363 . S
C669 C668 1.415 . S
H670 C667 0.999 . S
H671 C652 0.913 . S
H672 C690 0.951 1_554 S
H673 C692 0.951 . S
H674 C694 0.950 . S
H675 C695 0.950 . S
H676 C697 0.950 . S
H677 C700 0.950 . S
H678 C701 0.950 . S
H679 C703 0.950 . S
H680 C704 0.950 . S
H681 C705 0.951 . S
H682 C707 0.951 . S
H683 C709 0.950 . S
H684 C710 0.950 . S
H685 C712 0.950 . S
H686 C715 0.950 . S
H687 C716 0.950 . S
H688 C718 0.950 . S
H689 C719 0.950 . S
C690 H672 0.951 1_556 S
C690 C691 1.366 1_565 S
C690 C692 1.388 . S
C691 C690 1.366 1_545 S
C691 C695 1.384 . S
C692 H673 0.951 . S
C692 C690 1.388 . S
C692 C693 1.366 1_565 S
C693 C692 1.366 1_545 S
C693 C694 1.414 . S
C693 C696 1.499 . S
C694 H674 0.950 . S
C694 C693 1.414 . S
C694 C695 1.374 . S
C695 H675 0.950 . S
C695 C691 1.384 . S
C695 C694 1.374 . S
C696 C693 1.499 . S
C696 C697 1.373 1_545 S
C696 C698 1.389 . S
C697 H676 0.950 . S
C697 C696 1.373 1_565 S
C697 C713 1.377 . S
C698 C696 1.389 . S
C698 C699 1.524 . S
C698 C712 1.377 . S
C699 C698 1.524 . S
C699 C700 1.397 . S
C699 C704 1.363 1_556 S
C700 H677 0.950 . S
C700 C699 1.397 . S
C700 C701 1.334 . S
C701 H678 0.950 . S
C701 C700 1.334 . S
C701 C702 1.287 1_556 S
C702 C701 1.287 1_554 S
C702 C703 1.524 . S
C702 H721 0.913 . S
C703 H679 0.950 . S
C703 C702 1.524 . S
C703 C704 1.415 . S
C704 H680 0.950 . S
C704 C699 1.363 1_554 S
C704 C703 1.415 . S
C705 H681 0.951 . S
C705 C706 1.366 . S
C705 C707 1.388 . S
C706 C705 1.366 . S
C706 C710 1.385 1_545 S
C707 H682 0.951 . S
C707 C705 1.388 . S
C707 C708 1.366 . S
C708 C707 1.366 . S
C708 C709 1.414 1_545 S
C708 C711 1.488 . S
C709 H683 0.950 . S
C709 C708 1.414 1_565 S
C709 C710 1.374 . S
C710 H684 0.950 . S
C710 C706 1.385 1_565 S
C710 C709 1.374 . S
C711 C708 1.488 . S
C711 C712 1.414 . S
C711 C713 1.367 1_545 S
C712 H685 0.950 . S
C712 C698 1.377 . S
C712 C711 1.414 . S
C713 C697 1.377 . S
C713 C711 1.367 1_565 S
C713 C714 1.524 . S
C714 C713 1.524 . S
C714 C715 1.397 . S
C714 C719 1.363 . S
C715 H686 0.950 . S
C715 C714 1.397 . S
C715 C716 1.334 . S
C716 H687 0.950 . S
C716 C715 1.334 . S
C716 C717 1.287 . S
C717 C716 1.287 . S
C717 C718 1.524 . S
C717 H720 0.999 . S
C718 H688 0.950 . S
C718 C717 1.524 . S
C718 C719 1.415 . S
C719 H689 0.950 . S
C719 C714 1.363 . S
C719 C718 1.415 . S
H720 C717 0.999 . S
H721 C702 0.913 . S
H722 C740 0.951 . S
H723 C742 0.951 . S
H724 C744 0.950 . S
H725 C745 0.950 . S
H726 C747 0.950 . S
H727 C750 0.950 . S
H728 C751 0.950 . S
H729 C753 0.950 . S
H730 C754 0.950 . S
H731 C755 0.951 . S
H732 C757 0.951 . S
H733 C759 0.950 . S
H734 C760 0.950 . S
H735 C762 0.950 . S
H736 C765 0.950 . S
H737 C766 0.950 . S
H738 C768 0.950 . S
H739 C769 0.950 1_554 S
C740 H722 0.951 . S
C740 C741 1.366 . S
C740 C742 1.388 . S
C741 C740 1.366 . S
C741 C745 1.385 . S
C742 H723 0.951 . S
C742 C740 1.388 . S
C742 C743 1.366 . S
C743 C742 1.366 . S
C743 C744 1.414 . S
C743 C746 1.499 . S
C744 H724 0.950 . S
C744 C743 1.414 . S
C744 C745 1.374 . S
C745 H725 0.950 . S
C745 C741 1.385 . S
C745 C744 1.374 . S
C746 C743 1.499 . S
C746 C747 1.373 . S
C746 C748 1.389 . S
C747 H726 0.950 . S
C747 C746 1.373 . S
C747 C763 1.377 . S
C748 C746 1.389 . S
C748 C749 1.524 . S
C748 C762 1.377 . S
C749 C748 1.524 . S
C749 C750 1.397 . S
C749 C754 1.363 . S
C750 H727 0.950 . S
C750 C749 1.397 . S
C750 C751 1.334 . S
C751 H728 0.950 . S
C751 C750 1.334 . S
C751 C752 1.287 . S
C752 C751 1.287 . S
C752 C753 1.524 . S
C752 H771 0.913 . S
C753 H729 0.950 . S
C753 C752 1.524 . S
C753 C754 1.415 . S
C754 H730 0.950 . S
C754 C749 1.363 . S
C754 C753 1.415 . S
C755 H731 0.951 . S
C755 C756 1.366 . S
C755 C757 1.388 . S
C756 C755 1.366 . S
C756 C760 1.385 . S
C757 H732 0.951 . S
C757 C755 1.388 . S
C757 C758 1.366 . S
C758 C757 1.366 . S
C758 C759 1.414 . S
C758 C761 1.499 1_556 S
C759 H733 0.950 . S
C759 C758 1.414 . S
C759 C760 1.374 . S
C760 H734 0.950 . S
C760 C756 1.385 . S
C760 C759 1.374 . S
C761 C758 1.499 1_554 S
C761 C762 1.373 . S
C761 C763 1.389 . S
C762 H735 0.950 . S
C762 C748 1.377 . S
C762 C761 1.373 . S
C763 C747 1.377 . S
C763 C761 1.389 . S
C763 C764 1.524 1_554 S
C764 C763 1.524 1_556 S
C764 C765 1.397 . S
C764 C769 1.363 . S
C765 H736 0.950 . S
C765 C764 1.397 . S
C765 C766 1.334 . S
C766 H737 0.950 . S
C766 C765 1.334 . S
C766 C767 1.287 . S
C767 C766 1.287 . S
C767 C768 1.524 . S
C767 H770 0.999 . S
C768 H738 0.950 . S
C768 C767 1.524 . S
C768 C769 1.415 . S
C769 H739 0.950 1_556 S
C769 C764 1.363 . S
C769 C768 1.415 . S
H770 C767 0.999 . S
H771 C752 0.913 . S
H772 C790 0.951 . S
H773 C792 0.951 1_554 S
H774 C794 0.950 . S
H775 C795 0.950 . S
H776 C797 0.950 . S
H777 C800 0.950 . S
H778 C801 0.950 . S
H779 C803 0.950 1_554 S
H780 C804 0.950 . S
H781 C805 0.951 . S
H782 C807 0.951 . S
H783 C809 0.950 . S
H784 C810 0.950 . S
H785 C812 0.950 . S
H786 C815 0.950 . S
H787 C816 0.950 . S
H788 C818 0.950 . S
H789 C819 0.950 . S
C790 H772 0.951 . S
C790 C791 1.366 1_554 S
C790 C792 1.388 1_554 S
C791 C790 1.366 1_556 S
C791 C795 1.385 . S
C792 H773 0.951 1_556 S
C792 C790 1.388 1_556 S
C792 C793 1.366 . S
C793 C792 1.366 . S
C793 C794 1.414 . S
C793 C796 1.499 . S
C794 H774 0.950 . S
C794 C793 1.414 . S
C794 C795 1.374 . S
C795 H775 0.950 . S
C795 C791 1.385 . S
C795 C794 1.374 . S
C796 C793 1.499 . S
C796 C797 1.373 . S
C796 C798 1.389 . S
C797 H776 0.950 . S
C797 C796 1.373 . S
C797 C813 1.377 . S
C798 C796 1.389 . S
C798 C799 1.524 . S
C798 C812 1.377 . S
C799 C798 1.524 . S
C799 C800 1.397 . S
C799 C804 1.363 . S
C800 H777 0.950 . S
C800 C799 1.397 . S
C800 C801 1.334 . S
C801 H778 0.950 . S
C801 C800 1.334 . S
C801 C802 1.287 . S
C802 C801 1.287 . S
C802 C803 1.524 . S
C802 H821 0.913 . S
C803 H779 0.950 1_556 S
C803 C802 1.524 . S
C803 C804 1.415 . S
C804 H780 0.950 . S
C804 C799 1.363 . S
C804 C803 1.415 . S
C805 H781 0.951 . S
C805 C806 1.366 . S
C805 C807 1.388 . S
C806 C805 1.366 . S
C806 C810 1.385 . S
C807 H782 0.951 . S
C807 C805 1.388 . S
C807 C808 1.366 . S
C808 C807 1.366 . S
C808 C809 1.414 . S
C808 C811 1.499 . S
C809 H783 0.950 . S
C809 C808 1.414 . S
C809 C810 1.374 . S
C810 H784 0.950 . S
C810 C806 1.385 . S
C810 C809 1.374 . S
C811 C808 1.499 . S
C811 C812 1.373 . S
C811 C813 1.389 . S
C812 H785 0.950 . S
C812 C798 1.377 . S
C812 C811 1.373 . S
C813 C797 1.377 . S
C813 C811 1.389 . S
C813 C814 1.524 . S
C814 C813 1.524 . S
C814 C815 1.397 . S
C814 C819 1.363 . S
C815 H786 0.950 . S
C815 C814 1.397 . S
C815 C816 1.334 . S
C816 H787 0.950 . S
C816 C815 1.334 . S
C816 C817 1.287 . S
C817 C816 1.287 . S
C817 C818 1.524 . S
C817 H820 0.999 . S
C818 H788 0.950 . S
C818 C817 1.524 . S
C818 C819 1.415 . S
C819 H789 0.950 . S
C819 C814 1.363 . S
C819 C818 1.415 . S
H820 C817 0.999 . S
H821 C802 0.913 . S
H822 C840 0.951 . S
H823 C842 0.951 . S
H824 C844 0.950 . S
H825 C845 0.950 . S
H826 C847 0.950 . S
H827 C850 0.950 . S
H828 C851 0.950 . S
H829 C853 0.950 . S
H830 C854 0.966 . S
H831 C855 0.951 1_455 S
H832 C857 0.951 . S
H833 C859 0.950 . S
H834 C860 0.950 . S
H835 C862 0.950 . S
H836 C865 0.950 . S
H837 C866 0.950 . S
H838 C868 0.950 . S
H839 C869 0.950 . S
C840 H822 0.951 . S
C840 C841 1.366 . S
C840 C842 1.388 . S
C841 C840 1.366 . S
C841 C845 1.385 . S
C842 H823 0.951 . S
C842 C840 1.388 . S
C842 C843 1.366 . S
C843 C842 1.366 . S
C843 C844 1.414 . S
C843 C846 1.499 . S
C844 H824 0.950 . S
C844 C843 1.414 . S
C844 C845 1.374 . S
C845 H825 0.950 . S
C845 C841 1.385 . S
C845 C844 1.374 . S
C846 C843 1.499 . S
C846 C847 1.373 . S
C846 C848 1.389 . S
C847 H826 0.950 . S
C847 C846 1.373 . S
C847 C863 1.377 . S
C848 C846 1.389 . S
C848 C849 1.524 1_556 S
C848 C862 1.377 . S
C849 C848 1.524 1_554 S
C849 C850 1.397 . S
C849 C854 1.363 . S
C850 H827 0.950 . S
C850 C849 1.397 . S
C850 C851 1.334 . S
C851 H828 0.950 . S
C851 C850 1.334 . S
C851 C852 1.287 . S
C852 C851 1.287 . S
C852 C853 1.524 . S
C852 H871 0.913 . S
C853 H829 0.950 . S
C853 C852 1.524 . S
C853 C854 1.415 . S
C854 H830 0.966 . S
C854 C849 1.363 . S
C854 C853 1.415 . S
C855 H831 0.951 1_655 S
C855 C856 1.366 . S
C855 C857 1.388 . S
C856 C855 1.366 . S
C856 C860 1.385 . S
C857 H832 0.951 . S
C857 C855 1.388 . S
C857 C858 1.366 . S
C858 C857 1.366 . S
C858 C859 1.414 . S
C858 C861 1.499 . S
C859 H833 0.950 . S
C859 C858 1.414 . S
C859 C860 1.374 . S
C860 H834 0.950 . S
C860 C856 1.385 . S
C860 C859 1.374 . S
C861 C858 1.499 . S
C861 C862 1.373 . S
C861 C863 1.389 . S
C862 H835 0.950 . S
C862 C848 1.377 . S
C862 C861 1.373 . S
C863 C847 1.377 . S
C863 C861 1.389 . S
C863 C864 1.524 . S
C864 C863 1.524 . S
C864 C865 1.397 . S
C864 C869 1.363 . S
C865 H836 0.950 . S
C865 C864 1.397 . S
C865 C866 1.334 . S
C866 H837 0.950 . S
C866 C865 1.334 . S
C866 C867 1.287 . S
C867 C866 1.287 . S
C867 C868 1.524 . S
C867 H870 0.999 . S
C868 H838 0.950 . S
C868 C867 1.524 . S
C868 C869 1.415 . S
C869 H839 0.950 . S
C869 C864 1.363 . S
C869 C868 1.415 . S
H870 C867 0.999 . S
H871 C852 0.913 . S
H872 C890 0.951 . S
H873 C892 0.951 . S
H874 C894 0.950 . S
H875 C895 0.950 . S
H876 C897 0.950 . S
H877 C900 0.950 . S
H878 C901 0.950 . S
H879 C903 0.950 . S
H880 C904 0.950 . S
H881 C905 0.951 . S
H882 C907 0.951 . S
H883 C909 0.950 . S
H884 C910 0.950 . S
H885 C912 0.950 . S
H886 C915 0.950 . S
H887 C916 0.950 . S
H888 C918 0.950 . S
H889 C919 0.950 . S
C890 H872 0.951 . S
C890 C891 1.366 . S
C890 C892 1.388 . S
C891 C890 1.366 . S
C891 C895 1.385 . S
C892 H873 0.951 . S
C892 C890 1.388 . S
C892 C893 1.366 . S
C893 C892 1.366 . S
C893 C894 1.414 . S
C893 C896 1.499 . S
C894 H874 0.950 . S
C894 C893 1.414 . S
C894 C895 1.374 . S
C895 H875 0.950 . S
C895 C891 1.385 . S
C895 C894 1.374 . S
C896 C893 1.499 . S
C896 C897 1.373 . S
C896 C898 1.389 . S
C897 H876 0.950 . S
C897 C896 1.373 . S
C897 C913 1.377 . S
C898 C896 1.389 . S
C898 C899 1.524 . S
C898 C912 1.377 . S
C899 C898 1.524 . S
C899 C900 1.397 . S
C899 C904 1.363 . S
C900 H877 0.950 . S
C900 C899 1.397 . S
C900 C901 1.334 . S
C901 H878 0.950 . S
C901 C900 1.334 . S
C901 C902 1.287 . S
C902 C901 1.287 . S
C902 C903 1.524 . S
C902 H921 0.913 . S
C903 H879 0.950 . S
C903 C902 1.524 . S
C903 C904 1.415 . S
C904 H880 0.950 . S
C904 C899 1.363 . S
C904 C903 1.415 . S
C905 H881 0.951 . S
C905 C906 1.366 . S
C905 C907 1.388 . S
C906 C905 1.366 . S
C906 C910 1.385 . S
C907 H882 0.951 . S
C907 C905 1.388 . S
C907 C908 1.366 . S
C908 C907 1.366 . S
C908 C909 1.414 . S
C908 C911 1.499 . S
C909 H883 0.950 . S
C909 C908 1.414 . S
C909 C910 1.374 . S
C910 H884 0.950 . S
C910 C906 1.385 . S
C910 C909 1.374 . S
C911 C908 1.499 . S
C911 C912 1.373 . S
C911 C913 1.389 . S
C912 H885 0.950 . S
C912 C898 1.377 . S
C912 C911 1.373 . S
C913 C897 1.377 . S
C913 C911 1.389 . S
C913 C914 1.524 . S
C914 C913 1.524 . S
C914 C915 1.397 . S
C914 C919 1.363 . S
C915 H886 0.950 . S
C915 C914 1.397 . S
C915 C916 1.334 . S
C916 H887 0.950 . S
C916 C915 1.334 . S
C916 C917 1.287 . S
C917 C916 1.287 . S
C917 C918 1.524 . S
C917 H920 0.999 . S
C918 H888 0.950 . S
C918 C917 1.524 . S
C918 C919 1.415 . S
C919 H889 0.950 . S
C919 C914 1.363 . S
C919 C918 1.415 . S
H920 C917 0.999 . S
H921 C902 0.913 . S
H922 C940 0.951 . S
H923 C942 0.951 . S
H924 C944 0.950 . S
H925 C945 0.950 . S
H926 C947 0.950 . S
H927 C950 0.950 . S
H928 C951 0.950 . S
H929 C953 0.950 . S
H930 C954 0.950 1_565 S
H931 C955 0.947 1_545 S
H932 C957 0.951 1_545 S
H933 C959 0.950 . S
H934 C960 0.950 . S
H935 C962 0.941 1_545 S
H936 C965 0.950 . S
H937 C966 0.950 . S
H938 C968 0.950 . S
H939 C969 0.950 . S
C940 H922 0.951 . S
C940 C941 1.354 1_565 S
C940 C942 1.388 . S
C941 C940 1.354 1_545 S
C941 C945 1.390 . S
C942 H923 0.951 . S
C942 C940 1.388 . S
C942 C943 1.366 . S
C943 C942 1.366 . S
C943 C944 1.414 1_565 S
C943 C946 1.499 . S
C944 H924 0.950 . S
C944 C943 1.414 1_545 S
C944 C945 1.374 . S
C945 H925 0.950 . S
C945 C941 1.390 . S
C945 C944 1.374 . S
C946 C943 1.499 . S
C946 C947 1.373 . S
C946 C948 1.379 1_565 S
C947 H926 0.950 . S
C947 C946 1.373 . S
C947 C963 1.377 . S
C948 C946 1.379 1_545 S
C948 C949 1.560 . S
C948 C962 1.358 1_545 S
C949 C948 1.560 . S
C949 C950 1.397 . S
C949 C954 1.363 . S
C950 H927 0.950 . S
C950 C949 1.397 . S
C950 C951 1.334 . S
C951 H928 0.950 . S
C951 C950 1.334 . S
C951 C952 1.287 . S
C952 C951 1.287 . S
C952 C953 1.524 . S
C952 H971 0.913 . S
C953 H929 0.950 . S
C953 C952 1.524 . S
C953 C954 1.415 . S
C954 H930 0.950 1_545 S
C954 C949 1.363 . S
C954 C953 1.415 . S
C955 H931 0.947 1_565 S
C955 C956 1.366 . S
C955 C957 1.388 . S
C956 C955 1.366 . S
C956 C960 1.385 . S
C957 H932 0.951 1_565 S
C957 C955 1.388 . S
C957 C958 1.366 . S
C958 C957 1.366 . S
C958 C959 1.414 . S
C958 C961 1.499 . S
C959 H933 0.950 . S
C959 C958 1.414 . S
C959 C960 1.374 . S
C960 H934 0.950 . S
C960 C956 1.385 . S
C960 C959 1.374 . S
C961 C958 1.499 . S
C961 C962 1.373 . S
C961 C963 1.389 . S
C962 H935 0.941 1_565 S
C962 C948 1.358 1_565 S
C962 C961 1.373 . S
C963 C947 1.377 . S
C963 C961 1.389 . S
C963 C964 1.524 . S
C964 C963 1.524 . S
C964 C965 1.397 . S
C964 C969 1.363 . S
C965 H936 0.950 . S
C965 C964 1.397 . S
C965 C966 1.334 . S
C966 H937 0.950 . S
C966 C965 1.334 . S
C966 C967 1.287 . S
C967 C966 1.287 . S
C967 C968 1.524 . S
C967 H970 0.999 . S
C968 H938 0.950 . S
C968 C967 1.524 . S
C968 C969 1.415 . S
C969 H939 0.950 . S
C969 C964 1.363 . S
C969 C968 1.415 . S
H970 C967 0.999 . S
H971 C952 0.913 . S
H972 C990 0.951 . S
H973 C992 0.951 . S
H974 C994 0.950 . S
H975 C995 0.950 . S
H976 C997 0.950 . S
H977 C1000 0.950 . S
H978 C1001 0.950 . S
H979 C1003 0.950 . S
H980 C1004 0.950 . S
H981 C1005 0.951 . S
H982 C1007 0.951 . S
H983 C1009 0.950 . S
H984 C1010 0.950 . S
H985 C1012 0.950 . S
H986 C1015 0.950 . S
H987 C1016 0.950 . S
H988 C1018 0.950 . S
H989 C1019 0.950 . S
C990 H972 0.951 . S
C990 C991 1.366 . S
C990 C992 1.388 . S
C991 C990 1.366 . S
C991 C995 1.385 . S
C992 H973 0.951 . S
C992 C990 1.388 . S
C992 C993 1.366 . S
C993 C992 1.366 . S
C993 C994 1.414 . S
C993 C996 1.499 . S
C994 H974 0.950 . S
C994 C993 1.414 . S
C994 C995 1.374 . S
C995 H975 0.950 . S
C995 C991 1.385 . S
C995 C994 1.374 . S
C996 C993 1.499 . S
C996 C997 1.373 . S
C996 C998 1.389 . S
C997 H976 0.950 . S
C997 C996 1.373 . S
C997 C1013 1.377 . S
C998 C996 1.389 . S
C998 C999 1.524 . S
C998 C1012 1.377 . S
C999 C998 1.524 . S
C999 C1000 1.397 . S
C999 C1004 1.363 . S
C1000 H977 0.950 . S
C1000 C999 1.397 . S
C1000 C1001 1.334 . S
C1001 H978 0.950 . S
C1001 C1000 1.334 . S
C1001 C1002 1.287 . S
C1002 C1001 1.287 . S
C1002 C1003 1.524 . S
C1002 H1021 0.913 . S
C1003 H979 0.950 . S
C1003 C1002 1.524 . S
C1003 C1004 1.415 . S
C1004 H980 0.950 . S
C1004 C999 1.363 . S
C1004 C1003 1.415 . S
C1005 H981 0.951 . S
C1005 C1006 1.366 . S
C1005 C1007 1.388 . S
C1006 C1005 1.366 . S
C1006 C1010 1.385 . S
C1007 H982 0.951 . S
C1007 C1005 1.388 . S
C1007 C1008 1.366 . S
C1008 C1007 1.366 . S
C1008 C1009 1.414 . S
C1008 C1011 1.499 . S
C1009 H983 0.950 . S
C1009 C1008 1.414 . S
C1009 C1010 1.374 . S
C1010 H984 0.950 . S
C1010 C1006 1.385 . S
C1010 C1009 1.374 . S
C1011 C1008 1.499 . S
C1011 C1012 1.373 . S
C1011 C1013 1.389 . S
C1012 H985 0.950 . S
C1012 C998 1.377 . S
C1012 C1011 1.373 . S
C1013 C997 1.377 . S
C1013 C1011 1.389 . S
C1013 C1014 1.524 . S
C1014 C1013 1.524 . S
C1014 C1015 1.397 . S
C1014 C1019 1.363 . S
C1015 H986 0.950 . S
C1015 C1014 1.397 . S
C1015 C1016 1.334 . S
C1016 H987 0.950 . S
C1016 C1015 1.334 . S
C1016 C1017 1.287 . S
C1017 C1016 1.287 . S
C1017 C1018 1.524 . S
C1017 H1020 0.999 . S
C1018 H988 0.950 . S
C1018 C1017 1.524 . S
C1018 C1019 1.415 . S
C1019 H989 0.950 . S
C1019 C1014 1.363 . S
C1019 C1018 1.415 . S
H1020 C1017 0.999 . S
H1021 C1002 0.913 . S
H1022 C1040 0.951 . S
H1023 C1042 0.951 . S
H1024 C1044 0.950 . S
H1025 C1045 0.950 . S
H1026 C1047 0.950 . S
H1027 C1050 0.950 . S
H1028 C1051 0.950 . S
H1029 C1053 0.950 . S
H1030 C1054 0.950 . S
H1031 C1055 0.951 . S
H1032 C1057 0.951 . S
H1033 C1059 0.950 . S
H1034 C1060 0.950 . S
H1035 C1062 0.950 . S
H1036 C1065 0.950 . S
H1037 C1066 0.950 . S
H1038 C1068 0.950 . S
H1039 C1069 0.950 . S
C1040 H1022 0.951 . S
C1040 C1041 1.366 . S
C1040 C1042 1.388 . S
C1041 C1040 1.366 . S
C1041 C1045 1.385 . S
C1042 H1023 0.951 . S
C1042 C1040 1.388 . S
C1042 C1043 1.366 . S
C1043 C1042 1.366 . S
C1043 C1044 1.414 . S
C1043 C1046 1.499 . S
C1044 H1024 0.950 . S
C1044 C1043 1.414 . S
C1044 C1045 1.374 . S
C1045 H1025 0.950 . S
C1045 C1041 1.385 . S
C1045 C1044 1.374 . S
C1046 C1043 1.499 . S
C1046 C1047 1.373 . S
C1046 C1048 1.389 . S
C1047 H1026 0.950 . S
C1047 C1046 1.373 . S
C1047 C1063 1.377 . S
C1048 C1046 1.389 . S
C1048 C1049 1.524 . S
C1048 C1062 1.377 . S
C1049 C1048 1.524 . S
C1049 C1050 1.397 . S
C1049 C1054 1.363 . S
C1050 H1027 0.950 . S
C1050 C1049 1.397 . S
C1050 C1051 1.334 . S
C1051 H1028 0.950 . S
C1051 C1050 1.334 . S
C1051 C1052 1.287 . S
C1052 C1051 1.287 . S
C1052 C1053 1.524 . S
C1052 H1071 0.913 . S
C1053 H1029 0.950 . S
C1053 C1052 1.524 . S
C1053 C1054 1.415 . S
C1054 H1030 0.950 . S
C1054 C1049 1.363 . S
C1054 C1053 1.415 . S
C1055 H1031 0.951 . S
C1055 C1056 1.366 . S
C1055 C1057 1.388 . S
C1056 C1055 1.366 . S
C1056 C1060 1.385 . S
C1057 H1032 0.951 . S
C1057 C1055 1.388 . S
C1057 C1058 1.366 . S
C1058 C1057 1.366 . S
C1058 C1059 1.414 . S
C1058 C1061 1.499 . S
C1059 H1033 0.950 . S
C1059 C1058 1.414 . S
C1059 C1060 1.374 . S
C1060 H1034 0.950 . S
C1060 C1056 1.385 . S
C1060 C1059 1.374 . S
C1061 C1058 1.499 . S
C1061 C1062 1.373 . S
C1061 C1063 1.389 . S
C1062 H1035 0.950 . S
C1062 C1048 1.377 . S
C1062 C1061 1.373 . S
C1063 C1047 1.377 . S
C1063 C1061 1.389 . S
C1063 C1064 1.524 . S
C1064 C1063 1.524 . S
C1064 C1065 1.397 . S
C1064 C1069 1.363 . S
C1065 H1036 0.950 . S
C1065 C1064 1.397 . S
C1065 C1066 1.334 . S
C1066 H1037 0.950 . S
C1066 C1065 1.334 . S
C1066 C1067 1.287 . S
C1067 C1066 1.287 . S
C1067 C1068 1.524 . S
C1067 H1070 0.999 . S
C1068 H1038 0.950 . S
C1068 C1067 1.524 . S
C1068 C1069 1.415 . S
C1069 H1039 0.950 . S
C1069 C1064 1.363 . S
C1069 C1068 1.415 . S
H1070 C1067 0.999 . S
H1071 C1052 0.913 . S
H1072 C1090 0.951 . S
H1073 C1092 0.951 . S
H1074 C1094 0.950 . S
H1075 C1095 0.950 . S
H1076 C1097 0.950 . S
H1077 C1100 0.950 . S
H1078 C1101 0.950 . S
H1079 C1103 0.950 . S
H1080 C1104 0.950 . S
H1081 C1105 0.923 1_455 S
H1082 C1107 0.951 . S
H1083 C1109 0.950 . S
H1084 C1110 0.950 . S
H1085 C1112 0.950 . S
H1086 C1115 0.950 . S
H1087 C1116 0.950 . S
H1088 C1118 0.950 . S
H1089 C1119 0.950 . S
C1090 H1072 0.951 . S
C1090 C1091 1.366 . S
C1090 C1092 1.388 . S
C1091 C1090 1.366 . S
C1091 C1095 1.385 . S
C1092 H1073 0.951 . S
C1092 C1090 1.388 . S
C1092 C1093 1.366 . S
C1093 C1092 1.366 . S
C1093 C1094 1.414 . S
C1093 C1096 1.499 . S
C1094 H1074 0.950 . S
C1094 C1093 1.414 . S
C1094 C1095 1.374 . S
C1095 H1075 0.950 . S
C1095 C1091 1.385 . S
C1095 C1094 1.374 . S
C1096 C1093 1.499 . S
C1096 C1097 1.373 . S
C1096 C1098 1.389 . S
C1097 H1076 0.950 . S
C1097 C1096 1.373 . S
C1097 C1113 1.377 . S
C1098 C1096 1.389 . S
C1098 C1099 1.524 . S
C1098 C1112 1.377 . S
C1099 C1098 1.524 . S
C1099 C1100 1.397 . S
C1099 C1104 1.363 . S
C1100 H1077 0.950 . S
C1100 C1099 1.397 . S
C1100 C1101 1.334 . S
C1101 H1078 0.950 . S
C1101 C1100 1.334 . S
C1101 C1102 1.287 . S
C1102 C1101 1.287 . S
C1102 C1103 1.524 . S
C1102 H1121 0.913 . S
C1103 H1079 0.950 . S
C1103 C1102 1.524 . S
C1103 C1104 1.415 . S
C1104 H1080 0.950 . S
C1104 C1099 1.363 . S
C1104 C1103 1.415 . S
C1105 H1081 0.923 1_655 S
C1105 C1106 1.366 . S
C1105 C1107 1.388 . S
C1106 C1105 1.366 . S
C1106 C1110 1.385 . S
C1107 H1082 0.951 . S
C1107 C1105 1.388 . S
C1107 C1108 1.366 . S
C1108 C1107 1.366 . S
C1108 C1109 1.414 . S
C1108 C1111 1.499 . S
C1109 H1083 0.950 . S
C1109 C1108 1.414 . S
C1109 C1110 1.374 . S
C1110 H1084 0.950 . S
C1110 C1106 1.385 . S
C1110 C1109 1.374 . S
C1111 C1108 1.499 . S
C1111 C1112 1.373 . S
C1111 C1113 1.389 . S
C1112 H1085 0.950 . S
C1112 C1098 1.377 . S
C1112 C1111 1.373 . S
C1113 C1097 1.377 . S
C1113 C1111 1.389 . S
C1113 C1114 1.524 . S
C1114 C1113 1.524 . S
C1114 C1115 1.397 . S
C1114 C1119 1.363 . S
C1115 H1086 0.950 . S
C1115 C1114 1.397 . S
C1115 C1116 1.334 1_655 S
C1116 H1087 0.950 . S
C1116 C1115 1.334 1_455 S
C1116 C1117 1.287 . S
C1117 C1116 1.287 . S
C1117 C1118 1.524 . S
C1117 H1120 0.999 . S
C1118 H1088 0.950 . S
C1118 C1117 1.524 . S
C1118 C1119 1.415 1_455 S
C1119 H1089 0.950 . S
C1119 C1114 1.363 . S
C1119 C1118 1.415 1_655 S
H1120 C1117 0.999 . S
H1121 C1102 0.913 . S
H1122 C1140 0.951 . S
H1123 C1142 0.951 . S
H1124 C1144 0.950 . S
H1125 C1145 0.950 . S
H1126 C1147 0.950 . S
H1127 C1150 0.950 . S
H1128 C1151 0.950 . S
H1129 C1153 0.950 . S
H1130 C1154 0.950 . S
H1131 C1155 0.941 1_565 S
H1132 C1157 0.951 . S
H1133 C1159 0.950 . S
H1134 C1160 0.950 . S
H1135 C1162 0.950 . S
H1136 C1165 0.950 . S
H1137 C1166 0.950 . S
H1138 C1168 0.950 . S
H1139 C1169 0.950 . S
C1140 H1122 0.951 . S
C1140 C1141 1.354 1_545 S
C1140 C1142 1.388 . S
C1141 C1140 1.354 1_565 S
C1141 C1145 1.392 . S
C1142 H1123 0.951 . S
C1142 C1140 1.388 . S
C1142 C1143 1.366 . S
C1143 C1142 1.366 . S
C1143 C1144 1.414 1_545 S
C1143 C1146 1.499 . S
C1144 H1124 0.950 . S
C1144 C1143 1.414 1_565 S
C1144 C1145 1.374 . S
C1145 H1125 0.950 . S
C1145 C1141 1.392 . S
C1145 C1144 1.374 . S
C1146 C1143 1.499 . S
C1146 C1147 1.373 1_545 S
C1146 C1148 1.389 . S
C1147 H1126 0.950 . S
C1147 C1146 1.373 1_565 S
C1147 C1163 1.377 . S
C1148 C1146 1.389 . S
C1148 C1149 1.524 . S
C1148 C1162 1.377 . S
C1149 C1148 1.524 . S
C1149 C1150 1.397 . S
C1149 C1154 1.363 . S
C1150 H1127 0.950 . S
C1150 C1149 1.397 . S
C1150 C1151 1.334 . S
C1151 H1128 0.950 . S
C1151 C1150 1.334 . S
C1151 C1152 1.287 . S
C1152 C1151 1.287 . S
C1152 C1153 1.524 . S
C1152 H1171 0.913 . S
C1153 H1129 0.950 . S
C1153 C1152 1.524 . S
C1153 C1154 1.415 . S
C1154 H1130 0.950 . S
C1154 C1149 1.363 . S
C1154 C1153 1.415 . S
C1155 H1131 0.941 1_545 S
C1155 C1156 1.382 . S
C1155 C1157 1.381 1_545 S
C1156 C1155 1.382 . S
C1156 C1160 1.385 . S
C1157 H1132 0.951 . S
C1157 C1155 1.381 1_565 S
C1157 C1158 1.366 1_565 S
C1158 C1157 1.366 1_545 S
C1158 C1159 1.414 . S
C1158 C1161 1.499 . S
C1159 H1133 0.950 . S
C1159 C1158 1.414 . S
C1159 C1160 1.374 . S
C1160 H1134 0.950 . S
C1160 C1156 1.385 . S
C1160 C1159 1.374 . S
C1161 C1158 1.499 . S
C1161 C1162 1.373 . S
C1161 C1163 1.389 1_545 S
C1162 H1135 0.950 . S
C1162 C1148 1.377 . S
C1162 C1161 1.373 . S
C1163 C1147 1.377 . S
C1163 C1161 1.389 1_565 S
C1163 C1164 1.524 . S
C1164 C1163 1.524 . S
C1164 C1165 1.397 . S
C1164 C1169 1.363 . S
C1165 H1136 0.950 . S
C1165 C1164 1.397 . S
C1165 C1166 1.334 . S
C1166 H1137 0.950 . S
C1166 C1165 1.334 . S
C1166 C1167 1.287 . S
C1167 C1166 1.287 . S
C1167 C1168 1.524 . S
C1167 H1170 0.999 . S
C1168 H1138 0.950 . S
C1168 C1167 1.524 . S
C1168 C1169 1.415 . S
C1169 H1139 0.950 . S
C1169 C1164 1.363 . S
C1169 C1168 1.415 . S
H1170 C1167 0.999 . S
H1171 C1152 0.913 . S
H1172 C1190 0.951 . S
H1173 C1192 0.951 . S
H1174 C1194 0.950 . S
H1175 C1195 0.950 . S
H1176 C1197 0.950 . S
H1177 C1200 0.950 . S
H1178 C1201 0.950 . S
H1179 C1203 0.950 . S
H1180 C1204 0.950 . S
H1181 C1205 0.951 1_554 S
H1182 C1207 0.951 . S
H1183 C1209 0.950 . S
H1184 C1210 0.950 . S
H1185 C1212 0.950 . S
H1186 C1215 0.950 . S
H1187 C1216 0.950 . S
H1188 C1218 0.950 . S
H1189 C1219 0.950 . S
C1190 H1172 0.951 . S
C1190 C1191 1.366 . S
C1190 C1192 1.388 . S
C1191 C1190 1.366 . S
C1191 C1195 1.385 . S
C1192 H1173 0.951 . S
C1192 C1190 1.388 . S
C1192 C1193 1.366 . S
C1193 C1192 1.366 . S
C1193 C1194 1.414 . S
C1193 C1196 1.499 . S
C1194 H1174 0.950 . S
C1194 C1193 1.414 . S
C1194 C1195 1.374 . S
C1195 H1175 0.950 . S
C1195 C1191 1.385 . S
C1195 C1194 1.374 . S
C1196 C1193 1.499 . S
C1196 C1197 1.373 . S
C1196 C1198 1.389 . S
C1197 H1176 0.950 . S
C1197 C1196 1.373 . S
C1197 C1213 1.377 . S
C1198 C1196 1.389 . S
C1198 C1199 1.524 . S
C1198 C1212 1.377 1_554 S
C1199 C1198 1.524 . S
C1199 C1200 1.397 . S
C1199 C1204 1.363 1_554 S
C1200 H1177 0.950 . S
C1200 C1199 1.397 . S
C1200 C1201 1.334 . S
C1201 H1178 0.950 . S
C1201 C1200 1.334 . S
C1201 C1202 1.287 1_554 S
C1202 C1201 1.287 1_556 S
C1202 C1203 1.524 . S
C1202 H1221 0.913 . S
C1203 H1179 0.950 . S
C1203 C1202 1.524 . S
C1203 C1204 1.415 . S
C1204 H1180 0.950 . S
C1204 C1199 1.363 1_556 S
C1204 C1203 1.415 . S
C1205 H1181 0.951 1_556 S
C1205 C1206 1.366 . S
C1205 C1207 1.388 1_556 S
C1206 C1205 1.366 . S
C1206 C1210 1.385 . S
C1207 H1182 0.951 . S
C1207 C1205 1.388 1_554 S
C1207 C1208 1.366 1_554 S
C1208 C1207 1.366 1_556 S
C1208 C1209 1.414 . S
C1208 C1211 1.499 1_556 S
C1209 H1183 0.950 . S
C1209 C1208 1.414 . S
C1209 C1210 1.374 . S
C1210 H1184 0.950 . S
C1210 C1206 1.385 . S
C1210 C1209 1.374 . S
C1211 C1208 1.499 1_554 S
C1211 C1212 1.373 1_554 S
C1211 C1213 1.389 . S
C1212 H1185 0.950 . S
C1212 C1198 1.377 1_556 S
C1212 C1211 1.373 1_556 S
C1213 C1197 1.377 . S
C1213 C1211 1.389 . S
C1213 C1214 1.524 . S
C1214 C1213 1.524 . S
C1214 C1215 1.397 . S
C1214 C1219 1.363 . S
C1215 H1186 0.950 . S
C1215 C1214 1.397 . S
C1215 C1216 1.334 . S
C1216 H1187 0.950 . S
C1216 C1215 1.334 . S
C1216 C1217 1.287 . S
C1217 C1216 1.287 . S
C1217 C1218 1.524 . S
C1217 H1220 0.999 . S
C1218 H1188 0.950 . S
C1218 C1217 1.524 . S
C1218 C1219 1.415 . S
C1219 H1189 0.950 . S
C1219 C1214 1.363 . S
C1219 C1218 1.415 . S
H1220 C1217 0.999 . S
H1221 C1202 0.913 . S
H1222 C1240 0.951 . S
H1223 C1242 0.951 . S
H1224 C1244 0.950 . S
H1225 C1245 0.950 . S
H1226 C1247 0.950 . S
H1227 C1250 0.950 . S
H1228 C1251 0.950 1_554 S
H1229 C1253 0.950 . S
H1230 C1254 0.950 . S
H1231 C1255 0.951 . S
H1232 C1257 0.951 . S
H1233 C1259 0.950 . S
H1234 C1260 0.950 . S
H1235 C1262 0.950 . S
H1236 C1265 0.950 . S
H1237 C1266 0.950 . S
H1238 C1268 0.950 . S
H1239 C1269 0.950 . S
C1240 H1222 0.951 . S
C1240 C1241 1.366 . S
C1240 C1242 1.388 . S
C1241 C1240 1.366 . S
C1241 C1245 1.385 . S
C1242 H1223 0.951 . S
C1242 C1240 1.388 . S
C1242 C1243 1.366 . S
C1243 C1242 1.366 . S
C1243 C1244 1.414 . S
C1243 C1246 1.499 . S
C1244 H1224 0.950 . S
C1244 C1243 1.414 . S
C1244 C1245 1.374 . S
C1245 H1225 0.950 . S
C1245 C1241 1.385 . S
C1245 C1244 1.374 . S
C1246 C1243 1.499 . S
C1246 C1247 1.373 . S
C1246 C1248 1.389 . S
C1247 H1226 0.950 . S
C1247 C1246 1.373 . S
C1247 C1263 1.377 . S
C1248 C1246 1.389 . S
C1248 C1249 1.524 . S
C1248 C1262 1.377 . S
C1249 C1248 1.524 . S
C1249 C1250 1.397 . S
C1249 C1254 1.363 . S
C1250 H1227 0.950 . S
C1250 C1249 1.397 . S
C1250 C1251 1.334 . S
C1251 H1228 0.950 1_556 S
C1251 C1250 1.334 . S
C1251 C1252 1.287 . S
C1252 C1251 1.287 . S
C1252 C1253 1.524 . S
C1252 H1271 0.913 1_556 S
C1253 H1229 0.950 . S
C1253 C1252 1.524 . S
C1253 C1254 1.415 . S
C1254 H1230 0.950 . S
C1254 C1249 1.363 . S
C1254 C1253 1.415 . S
C1255 H1231 0.951 . S
C1255 C1256 1.366 . S
C1255 C1257 1.388 . S
C1256 C1255 1.366 . S
C1256 C1260 1.385 . S
C1257 H1232 0.951 . S
C1257 C1255 1.388 . S
C1257 C1258 1.366 . S
C1258 C1257 1.366 . S
C1258 C1259 1.414 . S
C1258 C1261 1.499 . S
C1259 H1233 0.950 . S
C1259 C1258 1.414 . S
C1259 C1260 1.374 . S
C1260 H1234 0.950 . S
C1260 C1256 1.385 . S
C1260 C1259 1.374 . S
C1261 C1258 1.499 . S
C1261 C1262 1.373 . S
C1261 C1263 1.389 . S
C1262 H1235 0.950 . S
C1262 C1248 1.377 . S
C1262 C1261 1.373 . S
C1263 C1247 1.377 . S
C1263 C1261 1.389 . S
C1263 C1264 1.524 . S
C1264 C1263 1.524 . S
C1264 C1265 1.397 . S
C1264 C1269 1.363 . S
C1265 H1236 0.950 . S
C1265 C1264 1.397 . S
C1265 C1266 1.334 . S
C1266 H1237 0.950 . S
C1266 C1265 1.334 . S
C1266 C1267 1.287 . S
C1267 C1266 1.287 . S
C1267 C1268 1.524 . S
C1267 H1270 0.999 . S
C1268 H1238 0.950 . S
C1268 C1267 1.524 . S
C1268 C1269 1.415 . S
C1269 H1239 0.950 . S
C1269 C1264 1.363 . S
C1269 C1268 1.415 . S
H1270 C1267 0.999 . S
H1271 C1252 0.913 1_554 S
H1272 C1290 0.951 . S
H1273 C1292 0.951 . S
H1274 C1294 0.950 . S
H1275 C1295 0.950 . S
H1276 C1297 0.950 . S
H1277 C1300 0.950 . S
H1278 C1301 0.950 . S
H1279 C1303 0.950 . S
H1280 C1304 0.950 . S
H1281 C1305 0.951 . S
H1282 C1307 0.951 . S
H1283 C1309 0.950 . S
H1284 C1310 0.950 . S
H1285 C1312 0.950 . S
H1286 C1315 0.950 . S
H1287 C1316 0.950 . S
H1288 C1318 0.950 . S
H1289 C1319 0.950 . S
C1290 H1272 0.951 . S
C1290 C1291 1.366 . S
C1290 C1292 1.388 . S
C1291 C1290 1.366 . S
C1291 C1295 1.385 . S
C1292 H1273 0.951 . S
C1292 C1290 1.388 . S
C1292 C1293 1.366 . S
C1293 C1292 1.366 . S
C1293 C1294 1.414 . S
C1293 C1296 1.499 . S
C1294 H1274 0.950 . S
C1294 C1293 1.414 . S
C1294 C1295 1.374 . S
C1295 H1275 0.950 . S
C1295 C1291 1.385 . S
C1295 C1294 1.374 . S
C1296 C1293 1.499 . S
C1296 C1297 1.373 . S
C1296 C1298 1.389 . S
C1297 H1276 0.950 . S
C1297 C1296 1.373 . S
C1297 C1313 1.377 . S
C1298 C1296 1.389 . S
C1298 C1299 1.524 . S
C1298 C1312 1.377 . S
C1299 C1298 1.524 . S
C1299 C1300 1.397 . S
C1299 C1304 1.363 . S
C1300 H1277 0.950 . S
C1300 C1299 1.397 . S
C1300 C1301 1.334 . S
C1301 H1278 0.950 . S
C1301 C1300 1.334 . S
C1301 C1302 1.287 . S
C1302 C1301 1.287 . S
C1302 C1303 1.524 . S
C1302 H1321 0.913 . S
C1303 H1279 0.950 . S
C1303 C1302 1.524 . S
C1303 C1304 1.415 . S
C1304 H1280 0.950 . S
C1304 C1299 1.363 . S
C1304 C1303 1.415 . S
C1305 H1281 0.951 . S
C1305 C1306 1.366 . S
C1305 C1307 1.388 . S
C1306 C1305 1.366 . S
C1306 C1310 1.385 . S
C1307 H1282 0.951 . S
C1307 C1305 1.388 . S
C1307 C1308 1.366 . S
C1308 C1307 1.366 . S
C1308 C1309 1.414 . S
C1308 C1311 1.499 . S
C1309 H1283 0.950 . S
C1309 C1308 1.414 . S
C1309 C1310 1.374 . S
C1310 H1284 0.950 . S
C1310 C1306 1.385 . S
C1310 C1309 1.374 . S
C1311 C1308 1.499 . S
C1311 C1312 1.373 . S
C1311 C1313 1.389 . S
C1312 H1285 0.950 . S
C1312 C1298 1.377 . S
C1312 C1311 1.373 . S
C1313 C1297 1.377 . S
C1313 C1311 1.389 . S
C1313 C1314 1.524 . S
C1314 C1313 1.524 . S
C1314 C1315 1.397 . S
C1314 C1319 1.363 . S
C1315 H1286 0.950 . S
C1315 C1314 1.397 . S
C1315 C1316 1.334 1_554 S
C1316 H1287 0.950 . S
C1316 C1315 1.334 1_556 S
C1316 C1317 1.287 . S
C1317 C1316 1.287 . S
C1317 C1318 1.524 1_556 S
C1317 H1320 0.999 . S
C1318 H1288 0.950 . S
C1318 C1317 1.524 1_554 S
C1318 C1319 1.415 . S
C1319 H1289 0.950 . S
C1319 C1314 1.363 . S
C1319 C1318 1.415 . S
H1320 C1317 0.999 . S
H1321 C1302 0.913 . S
H1322 C1340 0.951 . S
H1323 C1342 0.951 . S
H1324 C1344 0.950 . S
H1325 C1345 0.950 . S
H1326 C1347 0.950 . S
H1327 C1350 0.950 . S
H1328 C1351 0.950 . S
H1329 C1353 0.950 . S
H1330 C1354 0.950 . S
H1331 C1355 0.951 . S
H1332 C1357 0.951 . S
H1333 C1359 0.950 . S
H1334 C1360 0.950 1_556 S
H1335 C1362 0.950 . S
H1336 C1365 0.950 . S
H1337 C1366 0.950 . S
H1338 C1368 0.950 . S
H1339 C1369 0.950 . S
C1340 H1322 0.951 . S
C1340 C1341 1.366 1_565 S
C1340 C1342 1.388 . S
C1341 C1340 1.366 1_545 S
C1341 C1345 1.385 . S
C1342 H1323 0.951 . S
C1342 C1340 1.388 . S
C1342 C1343 1.366 1_565 S
C1343 C1342 1.366 1_545 S
C1343 C1344 1.414 . S
C1343 C1346 1.499 . S
C1344 H1324 0.950 . S
C1344 C1343 1.414 . S
C1344 C1345 1.374 . S
C1345 H1325 0.950 . S
C1345 C1341 1.385 . S
C1345 C1344 1.374 . S
C1346 C1343 1.499 . S
C1346 C1347 1.373 . S
C1346 C1348 1.389 1_545 S
C1347 H1326 0.950 . S
C1347 C1346 1.373 . S
C1347 C1363 1.377 . S
C1348 C1346 1.389 1_565 S
C1348 C1349 1.524 . S
C1348 C1362 1.377 . S
C1349 C1348 1.524 . S
C1349 C1350 1.397 . S
C1349 C1354 1.363 . S
C1350 H1327 0.950 . S
C1350 C1349 1.397 . S
C1350 C1351 1.334 . S
C1351 H1328 0.950 . S
C1351 C1350 1.334 . S
C1351 C1352 1.287 . S
C1352 C1351 1.287 . S
C1352 C1353 1.524 . S
C1352 H1371 0.913 . S
C1353 H1329 0.950 . S
C1353 C1352 1.524 . S
C1353 C1354 1.415 . S
C1354 H1330 0.950 . S
C1354 C1349 1.363 . S
C1354 C1353 1.415 . S
C1355 H1331 0.951 . S
C1355 C1356 1.366 . S
C1355 C1357 1.388 . S
C1356 C1355 1.366 . S
C1356 C1360 1.385 . S
C1357 H1332 0.951 . S
C1357 C1355 1.388 . S
C1357 C1358 1.366 . S
C1358 C1357 1.366 . S
C1358 C1359 1.414 . S
C1358 C1361 1.499 . S
C1359 H1333 0.950 . S
C1359 C1358 1.414 . S
C1359 C1360 1.374 . S
C1360 H1334 0.950 1_554 S
C1360 C1356 1.385 . S
C1360 C1359 1.374 . S
C1361 C1358 1.499 . S
C1361 C1362 1.373 1_545 S
C1361 C1363 1.389 . S
C1362 H1335 0.950 . S
C1362 C1348 1.377 . S
C1362 C1361 1.373 1_565 S
C1363 C1347 1.377 . S
C1363 C1361 1.389 . S
C1363 C1364 1.524 . S
C1364 C1363 1.524 . S
C1364 C1365 1.397 . S
C1364 C1369 1.363 . S
C1365 H1336 0.950 . S
C1365 C1364 1.397 . S
C1365 C1366 1.334 . S
C1366 H1337 0.950 . S
C1366 C1365 1.334 . S
C1366 C1367 1.287 . S
C1367 C1366 1.287 . S
C1367 C1368 1.524 . S
C1367 H1370 0.999 . S
C1368 H1338 0.950 . S
C1368 C1367 1.524 . S
C1368 C1369 1.415 . S
C1369 H1339 0.950 . S
C1369 C1364 1.363 . S
C1369 C1368 1.415 . S
H1370 C1367 0.999 . S
H1371 C1352 0.913 . S
H1372 C1390 0.951 . S
H1373 C1392 0.951 . S
H1374 C1394 0.950 . S
H1375 C1395 0.950 . S
H1376 C1397 0.950 . S
H1377 C1400 0.950 . S
H1378 C1401 0.950 . S
H1379 C1403 0.950 . S
H1380 C1404 0.950 . S
H1381 C1405 0.951 . S
H1382 C1407 0.951 . S
H1383 C1409 0.950 . S
H1384 C1410 0.950 . S
H1385 C1412 0.950 . S
H1386 C1415 0.950 . S
H1387 C1416 0.950 . S
H1388 C1418 0.950 . S
H1389 C1419 0.950 . S
C1390 H1372 0.951 . S
C1390 C1391 1.366 . S
C1390 C1392 1.388 . S
C1391 C1390 1.366 . S
C1391 C1395 1.385 1_554 S
C1392 H1373 0.951 . S
C1392 C1390 1.388 . S
C1392 C1393 1.366 1_554 S
C1393 C1392 1.366 1_556 S
C1393 C1394 1.414 . S
C1393 C1396 1.499 . S
C1394 H1374 0.950 . S
C1394 C1393 1.414 . S
C1394 C1395 1.374 . S
C1395 H1375 0.950 . S
C1395 C1391 1.385 1_556 S
C1395 C1394 1.374 . S
C1396 C1393 1.499 . S
C1396 C1397 1.373 . S
C1396 C1398 1.389 . S
C1397 H1376 0.950 . S
C1397 C1396 1.373 . S
C1397 C1413 1.377 . S
C1398 C1396 1.389 . S
C1398 C1399 1.524 1_556 S
C1398 C1412 1.377 . S
C1399 C1398 1.524 1_554 S
C1399 C1400 1.397 . S
C1399 C1404 1.363 . S
C1400 H1377 0.950 . S
C1400 C1399 1.397 . S
C1400 C1401 1.334 . S
C1401 H1378 0.950 . S
C1401 C1400 1.334 . S
C1401 C1402 1.287 . S
C1402 C1401 1.287 . S
C1402 C1403 1.524 . S
C1402 H1421 0.913 . S
C1403 H1379 0.950 . S
C1403 C1402 1.524 . S
C1403 C1404 1.415 . S
C1404 H1380 0.950 . S
C1404 C1399 1.363 . S
C1404 C1403 1.415 . S
C1405 H1381 0.951 . S
C1405 C1406 1.366 . S
C1405 C1407 1.388 . S
C1406 C1405 1.366 . S
C1406 C1410 1.385 . S
C1407 H1382 0.951 . S
C1407 C1405 1.388 . S
C1407 C1408 1.366 . S
C1408 C1407 1.366 . S
C1408 C1409 1.414 . S
C1408 C1411 1.499 . S
C1409 H1383 0.950 . S
C1409 C1408 1.414 . S
C1409 C1410 1.374 . S
C1410 H1384 0.950 . S
C1410 C1406 1.385 . S
C1410 C1409 1.374 . S
C1411 C1408 1.499 . S
C1411 C1412 1.373 . S
C1411 C1413 1.389 . S
C1412 H1385 0.950 . S
C1412 C1398 1.377 . S
C1412 C1411 1.373 . S
C1413 C1397 1.377 . S
C1413 C1411 1.389 . S
C1413 C1414 1.524 . S
C1414 C1413 1.524 . S
C1414 C1415 1.397 . S
C1414 C1419 1.363 . S
C1415 H1386 0.950 . S
C1415 C1414 1.397 . S
C1415 C1416 1.334 . S
C1416 H1387 0.950 . S
C1416 C1415 1.334 . S
C1416 C1417 1.287 . S
C1417 C1416 1.287 . S
C1417 C1418 1.524 . S
C1417 H1420 0.999 . S
C1418 H1388 0.950 . S
C1418 C1417 1.524 . S
C1418 C1419 1.415 . S
C1419 H1389 0.950 . S
C1419 C1414 1.363 . S
C1419 C1418 1.415 . S
H1420 C1417 0.999 . S
H1421 C1402 0.913 . S
H1422 C1440 0.951 . S
H1423 C1442 0.951 . S
H1424 C1444 0.950 . S
H1425 C1445 0.950 . S
H1426 C1447 0.950 . S
H1427 C1450 0.950 . S
H1428 C1451 0.950 . S
H1429 C1453 0.950 . S
H1430 C1454 0.950 . S
H1431 C1455 0.951 . S
H1432 C1457 0.951 . S
H1433 C1459 0.950 . S
H1434 C1460 0.950 1_556 S
H1435 C1462 0.950 . S
H1436 C1465 0.950 . S
H1437 C1466 0.950 . S
H1438 C1468 0.950 . S
H1439 C1469 0.950 . S
C1440 H1422 0.951 . S
C1440 C1441 1.366 . S
C1440 C1442 1.388 . S
C1441 C1440 1.366 . S
C1441 C1445 1.385 . S
C1442 H1423 0.951 . S
C1442 C1440 1.388 . S
C1442 C1443 1.366 . S
C1443 C1442 1.366 . S
C1443 C1444 1.414 . S
C1443 C1446 1.499 . S
C1444 H1424 0.950 . S
C1444 C1443 1.414 . S
C1444 C1445 1.374 . S
C1445 H1425 0.950 . S
C1445 C1441 1.385 . S
C1445 C1444 1.374 . S
C1446 C1443 1.499 . S
C1446 C1447 1.373 . S
C1446 C1448 1.389 . S
C1447 H1426 0.950 . S
C1447 C1446 1.373 . S
C1447 C1463 1.377 . S
C1448 C1446 1.389 . S
C1448 C1449 1.524 . S
C1448 C1462 1.377 . S
C1449 C1448 1.524 . S
C1449 C1450 1.397 . S
C1449 C1454 1.363 . S
C1450 H1427 0.950 . S
C1450 C1449 1.397 . S
C1450 C1451 1.334 . S
C1451 H1428 0.950 . S
C1451 C1450 1.334 . S
C1451 C1452 1.287 . S
C1452 C1451 1.287 . S
C1452 C1453 1.524 . S
C1452 H1471 0.913 . S
C1453 H1429 0.950 . S
C1453 C1452 1.524 . S
C1453 C1454 1.415 . S
C1454 H1430 0.950 . S
C1454 C1449 1.363 . S
C1454 C1453 1.415 . S
C1455 H1431 0.951 . S
C1455 C1456 1.366 . S
C1455 C1457 1.388 . S
C1456 C1455 1.366 . S
C1456 C1460 1.385 . S
C1457 H1432 0.951 . S
C1457 C1455 1.388 . S
C1457 C1458 1.366 . S
C1458 C1457 1.366 . S
C1458 C1459 1.414 . S
C1458 C1461 1.499 . S
C1459 H1433 0.950 . S
C1459 C1458 1.414 . S
C1459 C1460 1.374 . S
C1460 H1434 0.950 1_554 S
C1460 C1456 1.385 . S
C1460 C1459 1.374 . S
C1461 C1458 1.499 . S
C1461 C1462 1.373 . S
C1461 C1463 1.389 . S
C1462 H1435 0.950 . S
C1462 C1448 1.377 . S
C1462 C1461 1.373 . S
C1463 C1447 1.377 . S
C1463 C1461 1.389 . S
C1463 C1464 1.524 . S
C1464 C1463 1.524 . S
C1464 C1465 1.397 . S
C1464 C1469 1.363 . S
C1465 H1436 0.950 . S
C1465 C1464 1.397 . S
C1465 C1466 1.334 . S
C1466 H1437 0.950 . S
C1466 C1465 1.334 . S
C1466 C1467 1.287 . S
C1467 C1466 1.287 . S
C1467 C1468 1.524 . S
C1467 H1470 0.999 . S
C1468 H1438 0.950 . S
C1468 C1467 1.524 . S
C1468 C1469 1.415 . S
C1469 H1439 0.950 . S
C1469 C1464 1.363 . S
C1469 C1468 1.415 . S
H1470 C1467 0.999 . S
H1471 C1452 0.913 . S
H1472 C1490 0.951 . S
H1473 C1492 0.951 . S
H1474 C1494 0.950 . S
H1475 C1495 0.950 . S
H1476 C1497 0.950 . S
H1477 C1500 0.950 . S
H1478 C1501 0.950 . S
H1479 C1503 0.950 . S
H1480 C1504 0.950 . S
H1481 C1505 0.951 . S
H1482 C1507 0.951 . S
H1483 C1509 0.950 . S
H1484 C1510 0.950 . S
H1485 C1512 0.950 . S
H1486 C1515 0.950 . S
H1487 C1516 0.950 . S
H1488 C1518 0.950 . S
H1489 C1519 0.950 . S
C1490 H1472 0.951 . S
C1490 C1491 1.366 . S
C1490 C1492 1.388 . S
C1491 C1490 1.366 . S
C1491 C1495 1.385 . S
C1492 H1473 0.951 . S
C1492 C1490 1.388 . S
C1492 C1493 1.366 . S
C1493 C1492 1.366 . S
C1493 C1494 1.414 . S
C1493 C1496 1.499 . S
C1494 H1474 0.950 . S
C1494 C1493 1.414 . S
C1494 C1495 1.374 . S
C1495 H1475 0.950 . S
C1495 C1491 1.385 . S
C1495 C1494 1.374 . S
C1496 C1493 1.499 . S
C1496 C1497 1.373 . S
C1496 C1498 1.389 . S
C1497 H1476 0.950 . S
C1497 C1496 1.373 . S
C1497 C1513 1.377 . S
C1498 C1496 1.389 . S
C1498 C1499 1.524 . S
C1498 C1512 1.377 . S
C1499 C1498 1.524 . S
C1499 C1500 1.397 . S
C1499 C1504 1.363 . S
C1500 H1477 0.950 . S
C1500 C1499 1.397 . S
C1500 C1501 1.334 . S
C1501 H1478 0.950 . S
C1501 C1500 1.334 . S
C1501 C1502 1.287 . S
C1502 C1501 1.287 . S
C1502 C1503 1.524 . S
C1502 H1521 0.913 . S
C1503 H1479 0.950 . S
C1503 C1502 1.524 . S
C1503 C1504 1.415 . S
C1504 H1480 0.950 . S
C1504 C1499 1.363 . S
C1504 C1503 1.415 . S
C1505 H1481 0.951 . S
C1505 C1506 1.366 . S
C1505 C1507 1.388 . S
C1506 C1505 1.366 . S
C1506 C1510 1.385 . S
C1507 H1482 0.951 . S
C1507 C1505 1.388 . S
C1507 C1508 1.366 . S
C1508 C1507 1.366 . S
C1508 C1509 1.414 . S
C1508 C1511 1.499 . S
C1509 H1483 0.950 . S
C1509 C1508 1.414 . S
C1509 C1510 1.374 . S
C1510 H1484 0.950 . S
C1510 C1506 1.385 . S
C1510 C1509 1.374 . S
C1511 C1508 1.499 . S
C1511 C1512 1.373 . S
C1511 C1513 1.389 . S
C1512 H1485 0.950 . S
C1512 C1498 1.377 . S
C1512 C1511 1.373 . S
C1513 C1497 1.377 . S
C1513 C1511 1.389 . S
C1513 C1514 1.524 . S
C1514 C1513 1.524 . S
C1514 C1515 1.397 . S
C1514 C1519 1.363 . S
C1515 H1486 0.950 . S
C1515 C1514 1.397 . S
C1515 C1516 1.334 . S
C1516 H1487 0.950 . S
C1516 C1515 1.334 . S
C1516 C1517 1.287 . S
C1517 C1516 1.287 . S
C1517 C1518 1.524 . S
C1517 H1520 0.999 . S
C1518 H1488 0.950 . S
C1518 C1517 1.524 . S
C1518 C1519 1.415 . S
C1519 H1489 0.950 . S
C1519 C1514 1.363 . S
C1519 C1518 1.415 . S
H1520 C1517 0.999 . S
H1521 C1502 0.913 . S
H1522 C1540 0.951 . S
H1523 C1542 0.951 . S
H1524 C1544 0.950 . S
H1525 C1545 0.948 1_545 S
H1526 C1547 0.950 . S
H1527 C1550 0.950 . S
H1528 C1551 0.950 . S
H1529 C1553 0.950 . S
H1530 C1554 0.950 . S
H1531 C1555 0.951 . S
H1532 C1557 0.951 . S
H1533 C1559 0.950 . S
H1534 C1560 0.950 . S
H1535 C1562 0.950 . S
H1536 C1565 0.950 . S
H1537 C1566 0.950 . S
H1538 C1568 0.950 . S
H1539 C1569 0.950 . S
C1540 H1522 0.951 . S
C1540 C1541 1.366 . S
C1540 C1542 1.388 . S
C1541 C1540 1.366 . S
C1541 C1545 1.391 . S
C1542 H1523 0.951 . S
C1542 C1540 1.388 . S
C1542 C1543 1.366 . S
C1543 C1542 1.366 . S
C1543 C1544 1.414 . S
C1543 C1546 1.499 . S
C1544 H1524 0.950 . S
C1544 C1543 1.414 . S
C1544 C1545 1.371 . S
C1545 H1525 0.948 1_565 S
C1545 C1541 1.391 . S
C1545 C1544 1.371 . S
C1546 C1543 1.499 . S
C1546 C1547 1.373 1_565 S
C1546 C1548 1.389 . S
C1547 H1526 0.950 . S
C1547 C1546 1.373 1_545 S
C1547 C1563 1.377 . S
C1548 C1546 1.389 . S
C1548 C1549 1.524 . S
C1548 C1562 1.377 . S
C1549 C1548 1.524 . S
C1549 C1550 1.397 . S
C1549 C1554 1.363 . S
C1550 H1527 0.950 . S
C1550 C1549 1.397 . S
C1550 C1551 1.334 . S
C1551 H1528 0.950 . S
C1551 C1550 1.334 . S
C1551 C1552 1.287 . S
C1552 C1551 1.287 . S
C1552 C1553 1.524 . S
C1552 H1571 0.913 . S
C1553 H1529 0.950 . S
C1553 C1552 1.524 . S
C1553 C1554 1.415 . S
C1554 H1530 0.950 . S
C1554 C1549 1.363 . S
C1554 C1553 1.415 . S
C1555 H1531 0.951 . S
C1555 C1556 1.366 . S
C1555 C1557 1.388 . S
C1556 C1555 1.366 . S
C1556 C1560 1.385 . S
C1557 H1532 0.951 . S
C1557 C1555 1.388 . S
C1557 C1558 1.366 . S
C1558 C1557 1.366 . S
C1558 C1559 1.414 . S
C1558 C1561 1.499 . S
C1559 H1533 0.950 . S
C1559 C1558 1.414 . S
C1559 C1560 1.374 . S
C1560 H1534 0.950 . S
C1560 C1556 1.385 . S
C1560 C1559 1.374 . S
C1561 C1558 1.499 . S
C1561 C1562 1.373 . S
C1561 C1563 1.389 1_565 S
C1562 H1535 0.950 . S
C1562 C1548 1.377 . S
C1562 C1561 1.373 . S
C1563 C1547 1.377 . S
C1563 C1561 1.389 1_545 S
C1563 C1564 1.524 . S
C1564 C1563 1.524 . S
C1564 C1565 1.397 . S
C1564 C1569 1.363 . S
C1565 H1536 0.950 . S
C1565 C1564 1.397 . S
C1565 C1566 1.334 . S
C1566 H1537 0.950 . S
C1566 C1565 1.334 . S
C1566 C1567 1.287 . S
C1567 C1566 1.287 . S
C1567 C1568 1.524 . S
C1567 H1570 0.999 . S
C1568 H1538 0.950 . S
C1568 C1567 1.524 . S
C1568 C1569 1.415 . S
C1569 H1539 0.950 . S
C1569 C1564 1.363 . S
C1569 C1568 1.415 . S
H1570 C1567 0.999 . S
H1571 C1552 0.913 . S
H1572 C1590 0.951 . S
H1573 C1592 0.951 . S
H1574 C1594 0.950 . S
H1575 C1595 0.950 . S
H1576 C1597 0.950 . S
H1577 C1600 0.950 . S
H1578 C1601 0.950 . S
H1579 C1603 0.950 . S
H1580 C1604 0.950 . S
H1581 C1605 0.951 . S
H1582 C1607 0.951 . S
H1583 C1609 0.950 . S
H1584 C1610 0.950 . S
H1585 C1612 0.950 . S
H1586 C1615 0.950 . S
H1587 C1616 0.950 . S
H1588 C1618 0.950 . S
H1589 C1619 0.950 . S
C1590 H1572 0.951 . S
C1590 C1591 1.366 . S
C1590 C1592 1.388 . S
C1591 C1590 1.366 . S
C1591 C1595 1.385 . S
C1592 H1573 0.951 . S
C1592 C1590 1.388 . S
C1592 C1593 1.366 . S
C1593 C1592 1.366 . S
C1593 C1594 1.414 . S
C1593 C1596 1.499 . S
C1594 H1574 0.950 . S
C1594 C1593 1.414 . S
C1594 C1595 1.374 . S
C1595 H1575 0.950 . S
C1595 C1591 1.385 . S
C1595 C1594 1.374 . S
C1596 C1593 1.499 . S
C1596 C1597 1.373 . S
C1596 C1598 1.389 . S
C1597 H1576 0.950 . S
C1597 C1596 1.373 . S
C1597 C1613 1.377 . S
C1598 C1596 1.389 . S
C1598 C1599 1.524 . S
C1598 C1612 1.377 . S
C1599 C1598 1.524 . S
C1599 C1600 1.397 . S
C1599 C1604 1.363 . S
C1600 H1577 0.950 . S
C1600 C1599 1.397 . S
C1600 C1601 1.334 . S
C1601 H1578 0.950 . S
C1601 C1600 1.334 . S
C1601 C1602 1.287 . S
C1602 C1601 1.287 . S
C1602 C1603 1.524 . S
C1602 H1621 0.913 . S
C1603 H1579 0.950 . S
C1603 C1602 1.524 . S
C1603 C1604 1.415 . S
C1604 H1580 0.950 . S
C1604 C1599 1.363 . S
C1604 C1603 1.415 . S
C1605 H1581 0.951 . S
C1605 C1606 1.366 . S
C1605 C1607 1.388 . S
C1606 C1605 1.366 . S
C1606 C1610 1.385 . S
C1607 H1582 0.951 . S
C1607 C1605 1.388 . S
C1607 C1608 1.366 . S
C1608 C1607 1.366 . S
C1608 C1609 1.414 . S
C1608 C1611 1.499 . S
C1609 H1583 0.950 . S
C1609 C1608 1.414 . S
C1609 C1610 1.374 . S
C1610 H1584 0.950 . S
C1610 C1606 1.385 . S
C1610 C1609 1.374 . S
C1611 C1608 1.499 . S
C1611 C1612 1.373 . S
C1611 C1613 1.389 . S
C1612 H1585 0.950 . S
C1612 C1598 1.377 . S
C1612 C1611 1.373 . S
C1613 C1597 1.377 . S
C1613 C1611 1.389 . S
C1613 C1614 1.524 . S
C1614 C1613 1.524 . S
C1614 C1615 1.397 . S
C1614 C1619 1.363 . S
C1615 H1586 0.950 . S
C1615 C1614 1.397 . S
C1615 C1616 1.334 . S
C1616 H1587 0.950 . S
C1616 C1615 1.334 . S
C1616 C1617 1.287 . S
C1617 C1616 1.287 . S
C1617 C1618 1.524 . S
C1617 H1620 0.999 . S
C1618 H1588 0.950 . S
C1618 C1617 1.524 . S
C1618 C1619 1.415 . S
C1619 H1589 0.950 . S
C1619 C1614 1.363 . S
C1619 C1618 1.415 . S
H1620 C1617 0.999 . S
H1621 C1602 0.913 . S
H1622 C1640 0.951 . S
H1623 C1642 0.951 . S
H1624 C1644 0.950 . S
H1625 C1645 0.950 . S
H1626 C1647 0.950 . S
H1627 C1650 0.950 . S
H1628 C1651 0.950 . S
H1629 C1653 0.950 . S
H1630 C1654 0.950 . S
H1631 C1655 0.951 . S
H1632 C1657 0.951 . S
H1633 C1659 0.950 . S
H1634 C1660 0.950 . S
H1635 C1662 0.950 . S
H1636 C1665 0.950 . S
H1637 C1666 0.950 . S
H1638 C1668 0.950 . S
H1639 C1669 0.950 . S
C1640 H1622 0.951 . S
C1640 C1641 1.366 . S
C1640 C1642 1.388 . S
C1641 C1640 1.366 . S
C1641 C1645 1.385 . S
C1642 H1623 0.951 . S
C1642 C1640 1.388 . S
C1642 C1643 1.366 . S
C1643 C1642 1.366 . S
C1643 C1644 1.414 . S
C1643 C1646 1.499 . S
C1644 H1624 0.950 . S
C1644 C1643 1.414 . S
C1644 C1645 1.374 . S
C1645 H1625 0.950 . S
C1645 C1641 1.385 . S
C1645 C1644 1.374 . S
C1646 C1643 1.499 . S
C1646 C1647 1.373 . S
C1646 C1648 1.389 . S
C1647 H1626 0.950 . S
C1647 C1646 1.373 . S
C1647 C1663 1.377 . S
C1648 C1646 1.389 . S
C1648 C1649 1.524 . S
C1648 C1662 1.377 . S
C1649 C1648 1.524 . S
C1649 C1650 1.397 . S
C1649 C1654 1.363 . S
C1650 H1627 0.950 . S
C1650 C1649 1.397 . S
C1650 C1651 1.334 . S
C1651 H1628 0.950 . S
C1651 C1650 1.334 . S
C1651 C1652 1.287 . S
C1652 C1651 1.287 . S
C1652 C1653 1.524 . S
C1652 H1671 0.913 . S
C1653 H1629 0.950 . S
C1653 C1652 1.524 . S
C1653 C1654 1.415 . S
C1654 H1630 0.950 . S
C1654 C1649 1.363 . S
C1654 C1653 1.415 . S
C1655 H1631 0.951 . S
C1655 C1656 1.366 . S
C1655 C1657 1.388 . S
C1656 C1655 1.366 . S
C1656 C1660 1.385 . S
C1657 H1632 0.951 . S
C1657 C1655 1.388 . S
C1657 C1658 1.366 . S
C1658 C1657 1.366 . S
C1658 C1659 1.414 . S
C1658 C1661 1.499 . S
C1659 H1633 0.950 . S
C1659 C1658 1.414 . S
C1659 C1660 1.374 . S
C1660 H1634 0.950 . S
C1660 C1656 1.385 . S
C1660 C1659 1.374 . S
C1661 C1658 1.499 . S
C1661 C1662 1.373 . S
C1661 C1663 1.389 . S
C1662 H1635 0.950 . S
C1662 C1648 1.377 . S
C1662 C1661 1.373 . S
C1663 C1647 1.377 . S
C1663 C1661 1.389 . S
C1663 C1664 1.524 . S
C1664 C1663 1.524 . S
C1664 C1665 1.397 . S
C1664 C1669 1.363 . S
C1665 H1636 0.950 . S
C1665 C1664 1.397 . S
C1665 C1666 1.334 . S
C1666 H1637 0.950 . S
C1666 C1665 1.334 . S
C1666 C1667 1.287 . S
C1667 C1666 1.287 . S
C1667 C1668 1.524 . S
C1667 H1670 0.999 . S
C1668 H1638 0.950 . S
C1668 C1667 1.524 . S
C1668 C1669 1.415 . S
C1669 H1639 0.950 . S
C1669 C1664 1.363 . S
C1669 C1668 1.415 . S
H1670 C1667 0.999 . S
H1671 C1652 0.913 . S
C491 C255 0.809 1_545 S
C506 C321 0.800 . S
C556 C361 1.755 . S
C541 C294 1.784 . S
C606 C410 1.637 . S
C591 C177 1.656 . S
C656 C441 2.125 . S
C641 C216 2.132 . S
C706 C330 0.802 . S
C691 C99 0.817 1_545 S
C741 C138 1.771 . S
C756 C370 1.759 . S
C791 C21 1.639 . S
C806 C401 1.636 . S
C841 C60 2.154 1_556 S
C856 C450 2.124 1_655 S
C906 C331 1.079 . S
C891 C196 0.974 . S
C956 C371 0.419 . S
C941 C235 0.556 1_545 S
C1006 C407 0.399 . S
C991 C289 0.451 . S
C1041 C157 1.128 . S
C1056 C451 1.220 . S
C1091 C40 0.982 . S
C1106 C322 1.083 1_655 S
C1156 C362 0.420 . S
C1141 C79 0.561 . S
C1206 C398 0.401 . S
C1191 C133 0.444 . S
C1241 C1 1.122 . S
C1256 C442 1.220 . S
C1291 C211 2.114 . S
C1306 C327 2.219 1_554 S
C1341 C250 1.672 . S
C1356 C367 1.714 1_554 S
C1406 C411 2.763 . S
C1391 C274 2.520 . S
C1456 C447 1.777 1_554 S
C1441 C172 1.700 . S
C1491 C55 2.109 . S
C1506 C318 2.228 . S
C1556 C358 1.715 . S
C1541 C94 1.673 1_565 S
C1606 C402 2.763 . S
C1591 C118 2.511 . S
C1641 C16 1.705 . S
C1656 C438 1.777 . S
