# Generated by pormake.
# Topology pyr, (3,6)-cn, num edge types: 1
# Building blocks:
#     Node 0, Type 0, BuildingBlock: BETDIP_clean_linker_0, # of connection points: 3
#     Node 1, Type 0, BuildingBlock: BETDIP_clean_linker_0, # of connection points: 3
#     Node 2, Type 0, BuildingBlock: BETDIP_clean_linker_0, # of connection points: 3
#     Node 3, Type 0, BuildingBlock: BETDIP_clean_linker_0, # of connection points: 3
#     Node 4, Type 0, BuildingBlock: BETDIP_clean_linker_0, # of connection points: 3
#     Node 5, Type 0, BuildingBlock: BETDIP_clean_linker_0, # of connection points: 3
#     Node 6, Type 0, BuildingBlock: BETDIP_clean_linker_0, # of connection points: 3
#     Node 7, Type 0, BuildingBlock: BETDIP_clean_linker_0, # of connection points: 3
#     Node 8, Type 1, BuildingBlock: FUNLAD_clean_sbu_0, # of connection points: 6
#     Node 9, Type 1, BuildingBlock: FUNLAD_clean_sbu_0, # of connection points: 6
#     Node 10, Type 1, BuildingBlock: FUNLAD_clean_sbu_0, # of connection points: 6
#     Node 11, Type 1, BuildingBlock: FUNLAD_clean_sbu_0, # of connection points: 6
#     Edge 12, Type (0, 1), BuildingBlock: UVAHIK_clean_linker_0, # of connection points: 2
#     Edge 13, Type (0, 1), BuildingBlock: UVAHIK_clean_linker_0, # of connection points: 2
#     Edge 14, Type (0, 1), BuildingBlock: UVAHIK_clean_linker_0, # of connection points: 2
#     Edge 15, Type (0, 1), BuildingBlock: UVAHIK_clean_linker_0, # of connection points: 2
#     Edge 16, Type (0, 1), BuildingBlock: UVAHIK_clean_linker_0, # of connection points: 2
#     Edge 17, Type (0, 1), BuildingBlock: UVAHIK_clean_linker_0, # of connection points: 2
#     Edge 18, Type (0, 1), BuildingBlock: UVAHIK_clean_linker_0, # of connection points: 2
#     Edge 19, Type (0, 1), BuildingBlock: UVAHIK_clean_linker_0, # of connection points: 2
#     Edge 20, Type (0, 1), BuildingBlock: UVAHIK_clean_linker_0, # of connection points: 2
#     Edge 21, Type (0, 1), BuildingBlock: UVAHIK_clean_linker_0, # of connection points: 2
#     Edge 22, Type (0, 1), BuildingBlock: UVAHIK_clean_linker_0, # of connection points: 2
#     Edge 23, Type (0, 1), BuildingBlock: UVAHIK_clean_linker_0, # of connection points: 2
#     Edge 24, Type (0, 1), BuildingBlock: UVAHIK_clean_linker_0, # of connection points: 2
#     Edge 25, Type (0, 1), BuildingBlock: UVAHIK_clean_linker_0, # of connection points: 2
#     Edge 26, Type (0, 1), BuildingBlock: UVAHIK_clean_linker_0, # of connection points: 2
#     Edge 27, Type (0, 1), BuildingBlock: UVAHIK_clean_linker_0, # of connection points: 2
#     Edge 28, Type (0, 1), BuildingBlock: UVAHIK_clean_linker_0, # of connection points: 2
#     Edge 29, Type (0, 1), BuildingBlock: UVAHIK_clean_linker_0, # of connection points: 2
#     Edge 30, Type (0, 1), BuildingBlock: UVAHIK_clean_linker_0, # of connection points: 2
#     Edge 31, Type (0, 1), BuildingBlock: UVAHIK_clean_linker_0, # of connection points: 2
#     Edge 32, Type (0, 1), BuildingBlock: UVAHIK_clean_linker_0, # of connection points: 2
#     Edge 33, Type (0, 1), BuildingBlock: UVAHIK_clean_linker_0, # of connection points: 2
#     Edge 34, Type (0, 1), BuildingBlock: UVAHIK_clean_linker_0, # of connection points: 2
#     Edge 35, Type (0, 1), BuildingBlock: UVAHIK_clean_linker_0, # of connection points: 2
# Relax obj value: 0.157
# Max RMSD: 0.194
# Mean RMSD: 0.132
data_MOF--net-pry--node1-FUNLAD_clean_sbu_0--node2-BETDIP_clean_linker_0--edge1-UVAHIK_clean_linker_0
_symmetry_space_group_name_H-M    P1
_symmetry_Int_Tables_number       1
_symmetry_cell_setting            triclinic
loop_
_symmetry_equiv_pos_as_xyz
'x, y, z'
_cell_length_a     45.231899
_cell_length_b     47.102611
_cell_length_c     49.53919
_cell_angle_alpha  93.146323
_cell_angle_beta   86.561234
_cell_angle_gamma 90.377153
loop_
_atom_site_label
_atom_site_type_symbol
_atom_site_fract_x
_atom_site_fract_y
_atom_site_fract_z
_atom_type_partial_charge
H0 H 0.11756 0.18536 0.23102 0.0
H1 H 0.18219 0.18361 0.16366 0.0
H2 H 0.18903 0.12482 0.22612 0.0
H3 H 0.14317 0.19928 0.14217 0.0
C4 C 0.13338 0.21493 0.15692 0.0
C5 C 0.13739 0.17632 0.22066 0.0
C6 C 0.15196 0.15368 0.23169 0.0
C7 C 0.14755 0.18673 0.19574 0.0
C8 C 0.17326 0.17498 0.18224 0.0
C9 C 0.18834 0.15267 0.19307 0.0
C10 C 0.17752 0.14211 0.21775 0.0
N11 N 0.13192 0.20932 0.18494 0.0
H12 H 0.35274 0.90439 0.72995 0.0
H13 H 0.35909 0.84089 0.66461 0.0
H14 H 0.41806 0.83805 0.72938 0.0
H15 H 0.34194 0.87781 0.6415 0.0
C16 C 0.32509 0.88688 0.65594 0.0
C17 C 0.36323 0.88538 0.72064 0.0
C18 C 0.38649 0.8725 0.73311 0.0
C19 C 0.35379 0.87462 0.6957 0.0
C20 C 0.36732 0.85012 0.6832 0.0
C21 C 0.3907 0.83675 0.69506 0.0
C22 C 0.40014 0.84817 0.72005 0.0
N23 N 0.33011 0.88848 0.68407 0.0
H24 H 0.64986 0.4999 0.94939 0.0
H25 H 0.57689 0.44452 0.93226 0.0
H26 H 0.66257 0.40936 0.94392 0.0
H27 H 0.54739 0.51079 0.93737 0.0
C28 C 0.56654 0.50038 0.92701 0.0
C29 C 0.64126 0.47857 0.9459 0.0
C30 C 0.66004 0.45501 0.94639 0.0
C31 C 0.61148 0.47491 0.94044 0.0
C32 C 0.60008 0.44734 0.93604 0.0
C33 C 0.61825 0.4234 0.93741 0.0
C34 C 0.64838 0.42753 0.94215 0.0
N35 N 0.59301 0.49924 0.94098 0.0
H36 H 0.89075 0.53125 0.44652 0.0
H37 H 0.96506 0.58828 0.44968 0.0
H38 H 0.87626 0.62094 0.46214 0.0
H39 H 0.94774 0.49064 0.42569 0.0
C40 C 0.94536 0.51281 0.42131 0.0
C41 C 0.89935 0.5527 0.44903 0.0
C42 C 0.87979 0.57554 0.45476 0.0
C43 C 0.93006 0.55734 0.44708 0.0
C44 C 0.9413 0.58492 0.45087 0.0
C45 C 0.92198 0.60807 0.45593 0.0
C46 C 0.89126 0.60319 0.45785 0.0
N47 N 0.94981 0.53416 0.44202 0.0
H48 H 0.83561 0.86121 0.89819 0.0
H49 H 0.90379 0.86075 0.83407 0.0
H50 H 0.8304 0.91895 0.83466 0.0
H51 H 0.92976 0.83715 0.86388 0.0
C52 C 0.91348 0.82522 0.87567 0.0
C53 C 0.84486 0.8698 0.87964 0.0
C54 C 0.83035 0.89196 0.86817 0.0
C55 C 0.87116 0.85836 0.86754 0.0
C56 C 0.88333 0.86937 0.84338 0.0
C57 C 0.86892 0.89151 0.83118 0.0
C58 C 0.84215 0.9023 0.84373 0.0
N59 N 0.8839 0.83522 0.88002 0.0
H60 H 0.67239 0.14462 0.32927 0.0
H61 H 0.66653 0.20831 0.39464 0.0
H62 H 0.6068 0.21084 0.33061 0.0
H63 H 0.7142 0.19821 0.39764 0.0
C64 C 0.71599 0.17549 0.39285 0.0
C65 C 0.66208 0.16369 0.33867 0.0
C66 C 0.63813 0.17615 0.32681 0.0
C67 C 0.67302 0.17548 0.36267 0.0
C68 C 0.65926 0.19976 0.37543 0.0
C69 C 0.63535 0.21271 0.36407 0.0
C70 C 0.62481 0.20066 0.33979 0.0
N71 N 0.6974 0.16206 0.37372 0.0
H72 H 0.38185 0.55149 0.11291 0.0
H73 H 0.45202 0.60893 0.13381 0.0
H74 H 0.36475 0.64117 0.12405 0.0
H75 H 0.48491 0.54402 0.1227 0.0
C76 C 0.46596 0.55337 0.13433 0.0
C77 C 0.38936 0.57293 0.11789 0.0
C78 C 0.36949 0.59577 0.11858 0.0
C79 C 0.41893 0.57746 0.1238 0.0
C80 C 0.42898 0.60525 0.1299 0.0
C81 C 0.40957 0.62846 0.13008 0.0
C82 C 0.37973 0.62341 0.1248 0.0
N83 N 0.43853 0.55389 0.12181 0.0
H84 H 0.05255 0.46085 0.60229 0.0
H85 H 0.1294 0.51464 0.6078 0.0
H86 H 0.13969 0.42638 0.58272 0.0
H87 H 0.07511 0.55693 0.63003 0.0
C88 C 0.07722 0.53461 0.63398 0.0
C89 C 0.07638 0.46352 0.6002 0.0
C90 C 0.09462 0.44021 0.59205 0.0
C91 C 0.08884 0.49027 0.60611 0.0
C92 C 0.11974 0.49385 0.60366 0.0
C93 C 0.13807 0.47098 0.59457 0.0
C94 C 0.12539 0.44426 0.58889 0.0
N95 N 0.07006 0.51373 0.61365 0.0
C96 C 0.03898 0.03899 0.48285 0.0
N97 N 0.02363 0.08369 0.55747 0.0
C98 C 0.05107 0.09494 0.55262 0.0
C99 C 0.05642 0.12361 0.55902 0.0
C100 C 0.03325 0.14102 0.57028 0.0
C101 C 1.00556 0.12851 0.57647 0.0
C102 C 1.00121 0.09961 0.56986 0.0
Zn103 Zn 0.01556 0.0438 0.5414 0.0
C104 C 0.95812 0.04216 0.51356 0.0
N105 N 0.99868 0.96205 0.50455 0.0
C106 C 0.02127 0.94641 0.49212 0.0
C107 C 0.9711 0.9508 0.50852 0.0
C108 C 0.9657 0.92239 0.50092 0.0
C109 C 0.98896 0.90527 0.48934 0.0
C110 C 0.01689 0.91781 0.48433 0.0
Zn111 Zn 1.00672 1.00181 0.52089 0.0
O112 O 0.03611 0.05563 0.50391 0.0
C113 C 0.06418 1.00342 0.54866 0.0
O114 O 0.02917 0.01367 0.4839 0.0
H115 H 0.95346 0.9636 0.51847 0.0
H116 H 0.06856 0.08197 0.54265 0.0
H117 H 0.04303 0.9558 0.4892 0.0
O118 O 0.05677 0.02921 0.55397 0.0
O119 O 0.04723 0.98722 0.53515 0.0
H120 H 0.97954 0.09023 0.57347 0.0
O121 O 0.9843 0.99057 0.55814 0.0
O122 O 0.99502 0.03147 0.57873 0.0
O123 O 0.96641 0.01687 0.50693 0.0
O124 O 0.97418 0.05786 0.52847 0.0
C125 C 0.98333 1.00686 0.57952 0.0
H126 H 0.07829 0.13224 0.55441 0.0
H127 H 0.98704 0.14116 0.58501 0.0
H128 H 0.94368 0.91376 0.50468 0.0
H129 H 0.03552 0.90538 0.47566 0.0
C130 C 0.56481 1.00555 1.00846 0.0
N131 N 0.52199 0.08373 1.00297 0.0
C132 C 0.54916 0.09604 1.0046 0.0
C133 C 0.5549 0.12243 0.99388 0.0
C134 C 0.5324 0.13641 0.98153 0.0
C135 C 0.50467 0.12306 0.97982 0.0
C136 C 0.49995 0.09653 0.99065 0.0
Zn137 Zn 0.51414 0.04589 1.02035 0.0
C138 C 0.48524 1.0034 0.98349 0.0
N139 N 0.49845 0.96699 0.05709 0.0
C140 C 0.52008 0.95329 0.06915 0.0
C141 C 0.47088 0.95557 0.05548 0.0
C142 C 0.46425 0.92928 0.06596 0.0
C143 C 0.48627 0.91425 0.07798 0.0
C144 C 0.51447 0.92673 0.07973 0.0
Zn145 Zn 0.50666 1.00486 0.03987 0.0
O146 O 0.55596 0.03035 1.00404 0.0
C147 C 0.53564 0.04722 0.07676 0.0
O148 O 0.54854 0.98991 0.02337 0.0
H149 H 0.45399 0.96675 0.04578 0.0
H150 H 0.56632 0.08557 1.01461 0.0
H151 H 0.54186 0.96277 0.0702 0.0
O152 O 0.53374 0.06209 0.05625 0.0
O153 O 0.52617 0.0217 0.07564 0.0
H154 H 0.47855 0.0863 0.9895 0.0
O155 O 0.46478 0.02033 0.05595 0.0
O156 O 0.47229 0.06095 0.03704 0.0
O157 O 0.48744 0.98856 1.00395 0.0
O158 O 0.49434 0.02904 0.98464 0.0
C159 C 0.45593 0.04515 0.05169 0.0
H160 H 0.57646 0.13217 0.99597 0.0
H161 H 0.48681 0.13303 0.97025 0.0
H162 H 0.44203 0.92083 0.06461 0.0
H163 H 0.53222 0.91583 0.08856 0.0
C164 C 0.52246 0.4682 0.50868 0.0
N165 N 0.52649 0.50134 0.58906 0.0
C166 C 0.51376 0.47776 0.59953 0.0
C167 C 0.51935 0.47051 0.62573 0.0
C168 C 0.53847 0.48751 0.6411 0.0
C169 C 0.55186 0.51127 0.6295 0.0
C170 C 0.54541 0.51791 0.60341 0.0
Zn171 Zn 0.51587 0.5139 0.55201 0.0
C172 C 0.56864 0.53667 0.52092 0.0
N173 N 0.49418 0.54243 0.47537 0.0
C174 C 0.47718 0.52446 0.46038 0.0
C175 C 0.50613 0.56638 0.46496 0.0
C176 C 0.50218 0.57232 0.43805 0.0
C177 C 0.48586 0.55337 0.42178 0.0
C178 C 0.47264 0.52959 0.43351 0.0
Zn179 Zn 0.50451 0.53022 0.51263 0.0
O180 O 0.52436 0.47221 0.53413 0.0
C181 C 0.45179 0.50735 0.5436 0.0
O182 O 0.51469 0.48877 0.49513 0.0
H183 H 0.51966 0.58033 0.47722 0.0
H184 H 0.49882 0.46486 0.58775 0.0
H185 H 0.46792 0.5055 0.46898 0.0
O186 O 0.47086 0.50337 0.5608 0.0
O187 O 0.45993 0.51784 0.52125 0.0
H188 H 0.55504 0.53673 0.59486 0.0
O189 O 0.49464 0.57152 0.53075 0.0
O190 O 0.50712 0.55573 0.56933 0.0
O191 O 0.54921 0.54232 0.50454 0.0
O192 O 0.56075 0.52467 0.54257 0.0
C193 C 0.49795 0.57591 0.55599 0.0
H194 H 0.50872 0.45192 0.63394 0.0
H195 H 0.56639 0.52516 0.64082 0.0
H196 H 0.51291 0.59082 0.42977 0.0
H197 H 0.45947 0.51468 0.42185 0.0
C198 C 1.00236 0.57614 1.00847 0.0
N199 N 0.9892 0.54204 0.08519 0.0
C200 C 0.99423 0.56742 0.09862 0.0
C201 C 0.98306 0.57248 0.12542 0.0
C202 C 0.96678 0.5511 0.13854 0.0
C203 C 0.96143 0.52544 0.12379 0.0
C204 C 0.97269 0.52143 0.0971 0.0
Zn205 Zn 1.00771 0.53189 0.04725 0.0
C206 C 0.96232 0.50356 1.01254 0.0
N207 N 0.04455 0.50531 0.96882 0.0
C208 C 0.06097 0.52582 0.95666 0.0
C209 C 0.03947 0.47981 0.95562 0.0
C210 C 0.05048 0.47452 0.92881 0.0
C211 C 0.06663 0.49579 0.91542 0.0
C212 C 0.07207 0.52159 0.92994 0.0
Zn213 Zn 0.02613 0.51557 1.00675 0.0
O214 O 0.99671 0.5725 0.03352 0.0
C215 C 0.0714 0.54404 0.04161 0.0
O216 O 0.01441 0.55608 0.99358 0.0
H217 H 0.02638 0.46378 0.9657 0.0
H218 H 1.0074 0.58353 0.08873 0.0
H219 H 0.0648 0.54595 0.96747 0.0
O220 O 0.04928 0.54766 0.05849 0.0
O221 O 0.0677 0.5316 1.01861 0.0
H222 H 0.9689 0.50139 0.08614 0.0
O223 O 0.03733 0.47528 1.02034 0.0
O224 O 0.01931 0.49103 0.06039 0.0
O225 O 0.98432 0.49961 0.99557 0.0
O226 O 0.96628 0.51613 0.0354 0.0
C227 C 0.03158 0.47124 0.04528 0.0
H228 H 0.98747 0.59274 0.13581 0.0
H229 H 0.94963 0.50803 0.133 0.0
H230 H 0.04602 0.45416 0.91861 0.0
H231 H 0.08379 0.53891 0.92052 0.0
C232 C 0.13835 0.1121 0.25971 0.0
C233 C 0.14032 0.14169 0.25746 0.0
C234 C 0.12761 0.10069 0.2839 0.0
C235 C 0.08454 0.11978 0.34886 0.0
H236 H 0.11866 0.05031 0.37163 0.0
C237 C 0.05894 0.07885 0.45551 0.0
C238 C 0.05232 0.04974 0.4572 0.0
C239 C 0.07001 0.08958 0.43114 0.0
C240 C 0.10874 0.06959 0.36542 0.0
H241 H 0.13283 0.1825 0.27902 0.0
H242 H 0.11469 0.16271 0.32143 0.0
H243 H 0.1374 0.07028 0.32949 0.0
H244 H 0.05277 1.00901 0.43456 0.0
H245 H 0.07246 0.02777 0.39196 0.0
H246 H 0.05628 0.11929 0.38511 0.0
C247 C 0.12077 0.14821 0.30432 0.0
C248 C 0.11941 0.08104 0.34119 0.0
C249 C 0.13127 0.15962 0.28001 0.0
C250 C 0.05763 0.03152 0.43398 0.0
C251 C 0.069 0.04225 0.4096 0.0
C252 C 0.07409 0.10847 0.37318 0.0
C253 C 0.11876 0.11856 0.30662 0.0
C254 C 0.10745 0.10632 0.33253 0.0
C255 C 0.07501 0.07147 0.40784 0.0
C256 C 0.08605 0.08324 0.38178 0.0
H257 H 0.14473 0.09771 0.24257 0.0
H258 H 0.12587 0.07781 0.28461 0.0
H259 H 0.07431 0.13892 0.3427 0.0
H260 H 0.05519 0.09355 0.47297 0.0
H261 H 0.07477 0.11211 0.43058 0.0
C262 C 0.37599 0.89642 0.77951 0.0
C263 C 0.39658 0.88482 0.75951 0.0
C264 C 0.3854 0.90914 0.80374 0.0
C265 C 0.44754 0.9119 0.84885 0.0
H266 H 0.41233 0.98342 0.8764 0.0
C267 C 0.46752 0.96103 0.95589 0.0
C268 C 0.47351 0.99038 0.95824 0.0
C269 C 0.45795 0.94832 0.93172 0.0
C270 C 0.42248 0.96353 0.86892 0.0
H271 H 0.44341 0.87753 0.74971 0.0
H272 H 0.45972 0.89923 0.7922 0.0
H273 H 0.39647 0.96073 0.83409 0.0
H274 H 0.4736 0.02945 0.93702 0.0
H275 H 0.45662 1.00726 0.89488 0.0
H276 H 0.47362 0.91474 0.88362 0.0
C277 C 0.43623 0.89837 0.78908 0.0
C278 C 0.4132 0.95038 0.8448 0.0
C279 C 0.42684 0.88582 0.76472 0.0
C280 C 0.46917 1.0068 0.93594 0.0
C281 C 0.45933 0.9941 0.91181 0.0
C282 C 0.45662 0.92491 0.87309 0.0
C283 C 0.41564 0.91041 0.80879 0.0
C284 C 0.42561 0.9244 0.83445 0.0
C285 C 0.45387 0.96465 0.90932 0.0
C286 C 0.44422 0.95089 0.88344 0.0
H287 H 0.35247 0.89556 0.77656 0.0
H288 H 0.36891 0.91774 0.81867 0.0
H289 H 0.45741 0.89182 0.84156 0.0
H290 H 0.47059 0.94769 0.97262 0.0
H291 H 0.45357 0.92566 0.93063 0.0
C292 C 0.59179 0.49061 0.88078 0.0
C293 C 0.56571 0.49263 0.89767 0.0
C294 C 0.59036 0.48546 0.85285 0.0
C295 C 0.5416 0.45974 0.79944 0.0
H296 H 0.58881 0.51002 0.75466 0.0
C297 C 0.51925 0.47588 0.6877 0.0
C298 C 0.54336 0.48158 0.66958 0.0
C299 C 0.52343 0.4733 0.71519 0.0
C300 C 0.57589 0.49539 0.76673 0.0
H301 H 0.51786 0.49057 0.89878 0.0
H302 H 0.5153 0.48155 0.84985 0.0
H303 H 0.59355 0.51236 0.80334 0.0
H304 H 0.59094 0.48744 0.66566 0.0
H305 H 0.5984 0.48233 0.7135 0.0
H306 H 0.52379 0.44287 0.7628 0.0
C307 C 0.53683 0.4836 0.85824 0.0
C308 C 0.57857 0.4968 0.79469 0.0
C309 C 0.53827 0.48892 0.88617 0.0
C310 C 0.57189 0.48345 0.67927 0.0
C311 C 0.57612 0.48063 0.70669 0.0
C312 C 0.53905 0.45817 0.77139 0.0
C313 C 0.56286 0.48224 0.84124 0.0
C314 C 0.56124 0.47923 0.81139 0.0
C315 C 0.55186 0.47616 0.72512 0.0
C316 C 0.55593 0.47622 0.75472 0.0
H317 H 0.61331 0.4939 0.88889 0.0
H318 H 0.6108 0.48437 0.84027 0.0
H319 H 0.52819 0.44572 0.8118 0.0
H320 H 0.49695 0.47464 0.68085 0.0
H321 H 0.50417 0.47024 0.7288 0.0
C322 C 0.95343 0.54525 0.38317 0.0
C323 C 0.94096 0.52031 0.39324 0.0
C324 C 0.95109 0.55124 0.35609 0.0
C325 C 0.93588 0.51524 0.28953 0.0
H326 H 0.93872 0.59259 0.26631 0.0
C327 C 0.93098 0.5411 0.17779 0.0
C328 C 0.95713 0.55435 0.16785 0.0
C329 C 0.92441 0.54001 0.20561 0.0
C330 C 0.93777 0.57093 0.27261 0.0
H331 H 0.9156 0.4825 0.38344 0.0
H332 H 0.90999 0.49354 0.33644 0.0
H333 H 0.93439 0.58421 0.31462 0.0
H334 H 0.99577 0.57853 0.17972 0.0
H335 H 0.98348 0.57755 0.22829 0.0
H336 H 0.93862 0.50217 0.24736 0.0
C337 C 0.92252 0.5081 0.34904 0.0
C338 C 0.93555 0.56602 0.30026 0.0
C339 C 0.92547 0.50181 0.37601 0.0
C340 C 0.97532 0.56837 0.18649 0.0
C341 C 0.9684 0.56772 0.21435 0.0
C342 C 0.9374 0.52018 0.26196 0.0
C343 C 0.93579 0.53265 0.33852 0.0
C344 C 0.9352 0.53807 0.30914 0.0
C345 C 0.94343 0.55275 0.22409 0.0
C346 C 0.93888 0.54802 0.25328 0.0
H347 H 0.96602 0.55964 0.3959 0.0
H348 H 0.96224 0.56998 0.34881 0.0
H349 H 0.93632 0.49343 0.29532 0.0
H350 H 0.91597 0.53078 0.1641 0.0
H351 H 0.90484 0.5286 0.21273 0.0
C352 C 0.2412 0.13638 0.19227 0.0
C353 C 0.21544 0.14054 0.17849 0.0
C354 C 0.26698 0.12584 0.17828 0.0
C355 C 0.29371 0.08421 0.11689 0.0
H356 H 0.3688 0.12191 0.12829 0.0
C357 C 0.40716 0.0371 0.07697 0.0
C358 C 0.42743 0.05583 0.06458 0.0
C359 C 0.38083 0.0473 0.09018 0.0
C360 C 0.34797 0.11125 0.12482 0.0
H361 H 0.19626 0.13633 0.13941 0.0
H362 H 0.2412 0.11762 0.11502 0.0
H363 H 0.32371 0.13971 0.15313 0.0
H364 H 0.43583 0.09998 0.05622 0.0
H365 H 0.38997 0.11781 0.07959 0.0
H366 H 0.31801 0.05566 0.08868 0.0
C367 C 0.24149 0.12263 0.13661 0.0
C368 C 0.32223 0.12127 0.13921 0.0
C369 C 0.21585 0.13352 0.15052 0.0
C370 C 0.42067 0.08498 0.06552 0.0
C371 C 0.39451 0.09522 0.07904 0.0
C372 C 0.31952 0.07396 0.10277 0.0
C373 C 0.26739 0.11885 0.15029 0.0
C374 C 0.29481 0.10792 0.13533 0.0
C375 C 0.37436 0.07651 0.0916 0.0
C376 C 0.34691 0.08743 0.10651 0.0
H377 H 0.24157 0.14178 0.21379 0.0
H378 H 0.28655 0.12295 0.18939 0.0
H379 H 0.27292 0.07339 0.11361 0.0
H380 H 0.41168 0.01452 0.07661 0.0
H381 H 0.36582 0.0324 0.09983 0.0
C382 C 0.29669 0.90147 0.61745 0.0
C383 C 0.29848 0.89964 0.64547 0.0
C384 C 0.27174 0.91319 0.60699 0.0
C385 C 0.20576 0.95838 0.62638 0.0
H386 H 0.17818 0.92563 0.55889 0.0
C387 C 0.11199 1.01022 0.57164 0.0
C388 C 0.09168 0.99205 0.55888 0.0
C389 C 0.13746 0.99928 0.58196 0.0
C390 C 0.18535 0.93492 0.57789 0.0
H391 H 0.27542 0.90843 0.68464 0.0
H392 H 0.23152 0.92828 0.66644 0.0
H393 H 0.2211 0.90547 0.57792 0.0
H394 H 0.08223 0.94806 0.54703 0.0
H395 H 0.12612 0.92896 0.56548 0.0
H396 H 0.16932 0.98718 0.62682 0.0
C397 C 0.24966 0.92127 0.65246 0.0
C398 C 0.21032 0.92358 0.58865 0.0
C399 C 0.27477 0.90972 0.66292 0.0
C400 C 0.0975 0.96271 0.55658 0.0
C401 C 0.12282 0.95176 0.56706 0.0
C402 C 0.18065 0.96961 0.6157 0.0
C403 C 0.24778 0.92313 0.62432 0.0
C404 C 0.22095 0.93517 0.61302 0.0
C405 C 0.14317 0.96986 0.57994 0.0
C406 C 0.17009 0.95805 0.59128 0.0
H407 H 0.31471 0.89395 0.60355 0.0
H408 H 0.27143 0.9147 0.58528 0.0
H409 H 0.21343 0.96812 0.64501 0.0
H410 H 0.10825 0.03295 0.57366 0.0
H411 H 0.15281 0.01397 0.59132 0.0
C412 C 0.71396 0.44439 0.9363 0.0
C413 C 0.6916 0.45903 0.95222 0.0
C414 C 0.74373 0.44833 0.94177 0.0
C415 C 0.7935 0.49818 0.9783 0.0
H416 H 0.84812 0.43469 0.97109 0.0
C417 C 0.9076 0.50411 0.02276 0.0
C418 C 0.932 0.49538 1.00544 0.0
C419 C 0.87877 0.49854 1.01542 0.0
C420 C 0.83313 0.45262 0.97295 0.0
H421 H 0.6827 0.48861 0.98673 0.0
H422 H 0.73444 0.49502 0.99673 0.0
H423 H 0.79658 0.42731 0.96003 0.0
H424 H 0.94522 0.47303 0.9672 0.0
H425 H 0.89451 0.46291 0.95454 0.0
H426 H 0.82989 0.52327 0.99188 0.0
C427 C 0.72922 0.48114 0.97951 0.0
C428 C 0.80364 0.44847 0.96655 0.0
C429 C 0.69953 0.47742 0.97386 0.0
C430 C 0.92689 0.48009 0.98095 0.0
C431 C 0.89792 0.47423 0.97373 0.0
C432 C 0.82282 0.50223 0.98496 0.0
C433 C 0.75174 0.46678 0.96344 0.0
C434 C 0.78339 0.47118 0.96936 0.0
C435 C 0.87362 0.48386 0.99071 0.0
C436 C 0.84286 0.47947 0.98257 0.0
H437 H 0.70844 0.43025 0.91934 0.0
H438 H 0.76046 0.43723 0.92874 0.0
H439 H 0.7788 0.51632 0.98008 0.0
H440 H 0.9107 0.51586 0.04181 0.0
H441 H 0.86043 0.50585 0.02905 0.0
C442 C 0.83686 0.54962 0.47617 0.0
C443 C 0.84751 0.57049 0.45887 0.0
C444 C 0.80646 0.54603 0.48161 0.0
C445 C 0.73491 0.58369 0.479 0.0
H446 H 0.70224 0.50882 0.49113 0.0
C447 C 0.60896 0.55931 0.49244 0.0
C448 C 0.6003 0.54254 0.51419 0.0
C449 C 0.63898 0.56346 0.4852 0.0
C450 C 0.71112 0.52987 0.48794 0.0
H451 H 0.83483 0.60338 0.433 0.0
H452 H 0.78163 0.59661 0.4418 0.0
H453 H 0.75471 0.51383 0.47799 0.0
H454 H 0.6163 0.51727 0.54559 0.0
H455 H 0.66864 0.52427 0.53269 0.0
H456 H 0.69095 0.59951 0.48851 0.0
C457 C 0.79671 0.5835 0.4518 0.0
C458 C 0.74121 0.53279 0.4805 0.0
C459 C 0.82717 0.5873 0.44662 0.0
C460 C 0.62224 0.53033 0.52875 0.0
C461 C 0.6522 0.53416 0.52128 0.0
C462 C 0.70472 0.5807 0.48613 0.0
C463 C 0.78596 0.56302 0.46961 0.0
C464 C 0.75359 0.55978 0.47622 0.0
C465 C 0.66085 0.55059 0.49932 0.0
C466 C 0.69263 0.5538 0.49095 0.0
H467 H 0.85209 0.53665 0.4862 0.0
H468 H 0.79911 0.53042 0.49581 0.0
H469 H 0.74369 0.60485 0.47632 0.0
H470 H 0.59257 0.56903 0.48085 0.0
H471 H 0.64508 0.57614 0.46812 0.0
C472 C 0.12335 0.24514 0.11889 0.0
C473 C 0.12095 0.24111 0.1468 0.0
C474 C 0.11227 0.26969 0.10859 0.0
C475 C 0.09032 0.34393 0.12823 0.0
H476 H 0.05263 0.33849 0.05984 0.0
C477 C 0.0347 0.44057 0.08488 0.0
C478 C 0.03982 0.44423 0.05698 0.0
C479 C 0.04338 0.4156 0.09622 0.0
C480 C 0.06334 0.34043 0.07883 0.0
H481 H 0.10498 0.25966 0.18593 0.0
H482 H 0.08522 0.30256 0.16792 0.0
H483 H 0.06954 0.29546 0.07924 0.0
H484 H 0.05786 0.42425 1.01912 0.0
H485 H 0.07307 0.38072 0.03892 0.0
H486 H 0.08411 0.38894 0.12775 0.0
C487 C 0.09601 0.28682 0.15397 0.0
C488 C 0.07306 0.31573 0.08998 0.0
C489 C 0.10717 0.26217 0.1643 0.0
C490 C 0.05351 0.42213 0.04066 0.0
C491 C 0.06211 0.39711 0.052 0.0
C492 C 0.08052 0.36863 0.1171 0.0
C493 C 0.09841 0.29089 0.12595 0.0
C494 C 0.08691 0.31715 0.11473 0.0
C495 C 0.05731 0.39359 0.07996 0.0
C496 C 0.06709 0.36722 0.09216 0.0
H497 H 0.13403 0.2293 0.10496 0.0
H498 H 0.11503 0.27224 0.08699 0.0
H499 H 0.10124 0.34591 0.14711 0.0
H500 H 0.02414 0.4571 0.09808 0.0
H501 H 0.03898 0.41347 0.11775 0.0
C502 C 0.62172 0.37119 0.92361 0.0
C503 C 0.60544 0.39419 0.93604 0.0
C504 C 0.6109 0.34339 0.92493 0.0
C505 C 0.55919 0.30106 0.9672 0.0
H506 H 0.57464 0.24233 0.91023 0.0
C507 C 0.51633 0.18675 0.97756 0.0
C508 C 0.53755 0.1653 0.97164 0.0
C509 C 0.52216 0.21456 0.97027 0.0
C510 C 0.57025 0.25854 0.92631 0.0
H511 H 0.56441 0.40588 0.95884 0.0
H512 H 0.54508 0.35775 0.96008 0.0
H513 H 0.5888 0.29151 0.90239 0.0
H514 H 0.58093 0.15587 0.95236 0.0
H515 H 0.59118 0.20454 0.93972 0.0
H516 H 0.54078 0.26813 0.99114 0.0
C517 C 0.56657 0.36108 0.94987 0.0
C518 C 0.57841 0.28668 0.92188 0.0
C519 C 0.57749 0.3888 0.94878 0.0
C520 C 0.56429 0.17203 0.95743 0.0
C521 C 0.57003 0.19981 0.94997 0.0
C522 C 0.55085 0.27303 0.97153 0.0
C523 C 0.58344 0.33795 0.93854 0.0
C524 C 0.57322 0.30826 0.94238 0.0
C525 C 0.54924 0.22146 0.95675 0.0
C526 C 0.55652 0.25143 0.95125 0.0
H527 H 0.64312 0.37458 0.91326 0.0
H528 H 0.62461 0.32611 0.91611 0.0
H529 H 0.55541 0.31693 0.98368 0.0
H530 H 0.49561 0.18227 0.98865 0.0
H531 H 0.50561 0.23077 0.97554 0.0
C532 C 0.92256 0.65549 0.48111 0.0
C533 C 0.93365 0.63738 0.45945 0.0
C534 C 0.93238 0.68356 0.48384 0.0
C535 C 0.96322 0.74123 0.44458 0.0
H536 H 0.97922 0.77546 0.51522 0.0
C537 C 0.99802 0.85949 0.4614 0.0
C538 C 0.98459 0.87418 0.48437 0.0
C539 C 0.99464 0.83001 0.45756 0.0
C540 C 0.9746 0.76628 0.49538 0.0
H541 H 0.96385 0.63425 0.42378 0.0
H542 H 0.98105 0.68364 0.4285 0.0
H543 H 0.96874 0.7247 0.51026 0.0
H544 H 0.95735 0.8693 0.52142 0.0
H545 H 0.95072 0.81834 0.51432 0.0
H546 H 0.96828 0.78299 0.42984 0.0
C547 C 0.96474 0.67601 0.44333 0.0
C548 C 0.9687 0.73721 0.49255 0.0
C549 C 0.9551 0.64777 0.44075 0.0
C550 C 0.96762 0.85877 0.50329 0.0
C551 C 0.96422 0.82943 0.49944 0.0
C552 C 0.96899 0.77041 0.44744 0.0
C553 C 0.95336 0.6942 0.46485 0.0
C554 C 0.96243 0.72447 0.46723 0.0
C555 C 0.97784 0.81465 0.47666 0.0
C556 C 0.97418 0.78335 0.47299 0.0
H557 H 0.90618 0.64794 0.49592 0.0
H558 H 0.923 0.69717 0.50047 0.0
H559 H 0.95823 0.732 0.42486 0.0
H560 H 0.01108 0.87076 0.44636 0.0
H561 H 1.00553 0.81922 0.43986 0.0
C562 C 0.41298 0.78777 0.6962 0.0
C563 C 0.40481 0.81076 0.6813 0.0
C564 C 0.42496 0.76297 0.68304 0.0
C565 C 0.45958 0.73432 0.61675 0.0
H566 H 0.43561 0.66158 0.64405 0.0
C567 C 0.48091 0.62672 0.55573 0.0
C568 C 0.48997 0.60371 0.57014 0.0
C569 C 0.4721 0.65241 0.56942 0.0
C570 C 0.44279 0.68172 0.63631 0.0
H571 H 0.40388 0.82579 0.64072 0.0
H572 H 0.42373 0.78245 0.61785 0.0
H573 H 0.41758 0.70534 0.66775 0.0
H574 H 0.49721 0.58992 0.61032 0.0
H575 H 0.48185 0.63457 0.63404 0.0
H576 H 0.48434 0.71052 0.58499 0.0
C577 C 0.42128 0.78361 0.63976 0.0
C578 C 0.4325 0.70688 0.64997 0.0
C579 C 0.40946 0.80842 0.65291 0.0
C580 C 0.49034 0.60715 0.59852 0.0
C581 C 0.48134 0.63272 0.61219 0.0
C582 C 0.4697 0.70913 0.60299 0.0
C583 C 0.42903 0.76043 0.65459 0.0
C584 C 0.44069 0.73358 0.64038 0.0
C585 C 0.47191 0.65562 0.59785 0.0
C586 C 0.46141 0.68251 0.61258 0.0
H587 H 0.40954 0.78864 0.71805 0.0
H588 H 0.43104 0.74579 0.69523 0.0
H589 H 0.46682 0.75441 0.60896 0.0
H590 H 0.48032 0.62482 0.53388 0.0
H591 H 0.46475 0.66954 0.55776 0.0
C592 C 0.87785 0.93246 0.80076 0.0
C593 C 0.88162 0.90354 0.80554 0.0
C594 C 0.88863 0.94364 0.77649 0.0
C595 C 0.91782 0.92174 0.70592 0.0
H596 H 0.94005 1.00127 0.70554 0.0
C597 C 0.94925 0.97439 0.6053 0.0
C598 C 0.9702 0.99653 0.60534 0.0
C599 C 0.93797 0.96364 0.62966 0.0
C600 C 0.93442 0.9789 0.70515 0.0
H601 H 0.90041 0.86391 0.788 0.0
H602 H 0.92095 0.88374 0.74673 0.0
H603 H 0.92386 0.9811 0.74776 0.0
H604 H 0.99601 0.02458 0.63094 0.0
H605 H 0.97768 1.00504 0.6732 0.0
H606 H 0.93027 0.91909 0.6636 0.0
C607 C 0.90861 0.89768 0.76134 0.0
C608 C 0.92447 0.96735 0.72952 0.0
C609 C 0.89724 0.88633 0.78542 0.0
C610 C 0.97959 1.00774 0.63026 0.0
C611 C 0.96887 0.99655 0.65459 0.0
C612 C 0.9284 0.93314 0.68164 0.0
C613 C 0.90427 0.92649 0.75635 0.0
C614 C 0.91575 0.93862 0.73032 0.0
C615 C 0.94789 0.97425 0.65473 0.0
C616 C 0.93671 0.96198 0.68078 0.0
H617 H 0.86659 0.94673 0.81581 0.0
H618 H 0.88423 0.96577 0.77351 0.0
H619 H 0.91096 0.89967 0.70535 0.0
H620 H 0.94145 0.96542 0.5864 0.0
H621 H 0.92135 0.94705 0.62869 0.0
C622 C 0.64784 0.1535 0.27987 0.0
C623 C 0.6275 0.16368 0.30072 0.0
C624 C 0.63804 0.14122 0.25561 0.0
C625 C 0.57265 0.10683 0.22585 0.0
H626 H 0.61496 0.12181 0.15768 0.0
C627 C 0.54814 0.04441 0.12541 0.0
C628 C 0.54763 0.05999 0.10201 0.0
C629 C 0.55816 0.05697 0.14952 0.0
C630 C 0.60274 0.11751 0.17649 0.0
H631 H 0.58076 0.16889 0.3122 0.0
H632 H 0.56366 0.14784 0.2697 0.0
H633 H 0.63103 0.14468 0.19966 0.0
H634 H 0.55761 0.10101 0.08568 0.0
H635 H 0.57489 0.12285 0.12762 0.0
H636 H 0.54405 0.08002 0.2026 0.0
C637 C 0.58725 0.14909 0.27226 0.0
C638 C 0.61217 0.13041 0.20065 0.0
C639 C 0.59706 0.16147 0.29653 0.0
C640 C 0.55776 0.08831 0.10325 0.0
C641 C 0.56782 0.10083 0.12732 0.0
C642 C 0.56326 0.09386 0.20168 0.0
C643 C 0.60761 0.13874 0.25148 0.0
C644 C 0.59727 0.12525 0.22568 0.0
C645 C 0.56801 0.0854 0.15084 0.0
C646 C 0.57817 0.09902 0.17666 0.0
H647 H 0.67145 0.15516 0.2822 0.0
H648 H 0.65439 0.13327 0.24023 0.0
H649 H 0.5608 0.1021 0.24473 0.0
H650 H 0.54055 0.02255 0.12521 0.0
H651 H 0.55837 0.0443 0.16709 0.0
C652 C 0.44322 0.56099 0.18188 0.0
C653 C 0.46835 0.55984 0.16374 0.0
C654 C 0.44629 0.5648 0.20976 0.0
C655 C 0.50006 0.5524 0.26048 0.0
H656 H 0.44422 0.59513 0.30913 0.0
C657 C 0.4799 0.58409 0.38237 0.0
C658 C 0.48424 0.55714 0.39233 0.0
C659 C 0.47892 0.58727 0.35449 0.0
C660 C 0.46019 0.58337 0.29579 0.0
H661 H 0.51619 0.56235 0.16036 0.0
H662 H 0.52163 0.56931 0.20906 0.0
H663 H 0.44109 0.59709 0.26016 0.0
H664 H 0.49151 0.51251 0.38077 0.0
H665 H 0.48929 0.51795 0.33246 0.0
H666 H 0.51916 0.53865 0.29596 0.0
C667 C 0.49958 0.56701 0.20181 0.0
C668 C 0.45822 0.58426 0.26776 0.0
C669 C 0.49649 0.56316 0.17395 0.0
C670 C 0.48769 0.53351 0.37383 0.0
C671 C 0.48683 0.53669 0.34608 0.0
C672 C 0.502 0.55148 0.28842 0.0
C673 C 0.47454 0.5674 0.22008 0.0
C674 C 0.47791 0.56847 0.24979 0.0
C675 C 0.48255 0.56358 0.33605 0.0
C676 C 0.4818 0.56656 0.3064 0.0
H677 H 0.42122 0.55789 0.17477 0.0
H678 H 0.42657 0.56451 0.22327 0.0
H679 H 0.5154 0.53974 0.24727 0.0
H680 H 0.47704 0.60268 0.39613 0.0
H681 H 0.47574 0.60829 0.34734 0.0
C682 C 0.10056 0.54475 0.67783 0.0
C683 C 0.08376 0.52658 0.66142 0.0
C684 C 0.10526 0.53817 0.70442 0.0
C685 C 0.09485 0.53099 0.76421 0.0
H686 H 0.09228 0.45363 0.78743 0.0
C687 C 0.05754 0.47813 0.86772 0.0
C688 C 0.07596 0.49231 0.88606 0.0
C689 C 0.06408 0.47857 0.83981 0.0
C690 C 0.0932 0.4753 0.78112 0.0
H691 H 0.05847 0.48734 0.65976 0.0
H692 H 0.06526 0.47651 0.70627 0.0
H693 H 0.09488 0.46204 0.73911 0.0
H694 H 0.11714 0.51596 0.88921 0.0
H695 H 0.12763 0.5178 0.84045 0.0
H696 H 0.09368 0.54405 0.80634 0.0
C697 C 0.07604 0.49526 0.69859 0.0
C698 C 0.09443 0.48021 0.75348 0.0
C699 C 0.07195 0.50153 0.67185 0.0
C700 C 0.10197 0.50551 0.87575 0.0
C701 C 0.10817 0.5064 0.84786 0.0
C702 C 0.0943 0.52604 0.79175 0.0
C703 C 0.09248 0.51364 0.7154 0.0
C704 C 0.09456 0.50817 0.74463 0.0
C705 C 0.08891 0.49352 0.82969 0.0
C706 C 0.09288 0.4982 0.80044 0.0
H707 H 0.10999 0.56412 0.67009 0.0
H708 H 0.11864 0.55256 0.7164 0.0
H709 H 0.09429 0.55281 0.75846 0.0
H710 H 0.03718 0.468 0.87477 0.0
H711 H 0.0488 0.46866 0.82611 0.0
C712 C 0.77769 0.90882 0.86798 0.0
C713 C 0.80316 0.90458 0.88215 0.0
C714 C 0.75199 0.9202 0.88149 0.0
C715 C 0.72574 0.96397 0.94176 0.0
H716 H 0.64998 0.92716 0.93147 0.0
C717 C 0.61326 0.01296 0.98234 0.0
C718 C 0.59306 0.99456 0.9953 0.0
C719 C 0.63926 1.00236 0.96881 0.0
C720 C 0.671 0.93761 0.9346 0.0
H721 H 0.82193 0.9095 0.92137 0.0
H722 H 0.77719 0.92962 0.94489 0.0
H723 H 0.69467 0.90819 0.90678 0.0
H724 H 0.58446 0.95061 1.00432 0.0
H725 H 0.62972 0.93213 0.98043 0.0
H726 H 0.70207 0.99342 0.96954 0.0
C727 C 0.77703 0.92404 0.92339 0.0
C728 C 0.69651 0.92691 0.92029 0.0
C729 C 0.80254 0.91232 0.90999 0.0
C730 C 0.59957 0.96537 0.9946 0.0
C731 C 0.62538 0.95474 0.98076 0.0
C732 C 0.70018 0.9749 0.95579 0.0
C733 C 0.75143 0.92797 0.90934 0.0
C734 C 0.72418 0.93987 0.92385 0.0
C735 C 0.64544 0.9731 0.96763 0.0
C736 C 0.67256 0.96172 0.95249 0.0
H737 H 0.77751 0.90292 0.84654 0.0
H738 H 0.73263 0.92316 0.87011 0.0
H739 H 0.74674 0.97451 0.94477 0.0
H740 H 0.60891 0.03556 0.9825 0.0
H741 H 0.65422 0.017 0.95873 0.0
C742 C 0.74417 0.13052 0.39936 0.0
C743 C 0.73929 0.15966 0.40548 0.0
C744 C 0.76643 0.11621 0.41166 0.0
C745 C 0.81282 0.1217 0.47106 0.0
H746 H 0.86425 0.06877 0.42825 0.0
C747 C 0.92247 0.08208 0.50946 0.0
C748 C 0.93087 0.05371 0.50303 0.0
C749 C 0.89775 0.09352 0.49838 0.0
C750 C 0.84983 0.08317 0.44062 0.0
H751 H 0.75374 0.19663 0.42913 0.0
H752 H 0.79259 0.17185 0.45042 0.0
H753 H 0.82368 0.09129 0.40722 0.0
H754 H 0.91941 0.01496 0.48023 0.0
H755 H 0.87607 0.03486 0.46113 0.0
H756 H 0.83903 0.11378 0.5044 0.0
C757 C 0.77911 0.15988 0.43643 0.0
C758 C 0.82656 0.0961 0.42854 0.0
C759 C 0.75698 0.17415 0.4241 0.0
C760 C 0.91362 0.03692 0.48558 0.0
C761 C 0.88888 0.04838 0.47447 0.0
C762 C 0.83604 0.10876 0.48314 0.0
C763 C 0.78413 0.13072 0.43041 0.0
C764 C 0.80796 0.11577 0.44353 0.0
C765 C 0.88074 0.0769 0.48057 0.0
C766 C 0.85506 0.08955 0.46802 0.0
H767 H 0.73085 0.11874 0.38511 0.0
H768 H 0.76953 0.0937 0.40674 0.0
H769 H 0.79859 0.13633 0.48335 0.0
H770 H 0.93528 0.09567 0.52275 0.0
H771 H 0.89241 0.11566 0.50327 0.0
C772 C 0.33193 0.574 0.08845 0.0
C773 C 0.33837 0.59107 0.11152 0.0
C774 C 0.30273 0.57055 0.08111 0.0
C775 C 0.22553 0.57422 0.10803 0.0
H776 H 0.20823 0.58135 0.03297 0.0
C777 C 0.10575 0.56817 0.07362 0.0
C778 C 0.10145 0.55281 0.04903 0.0
C779 C 0.13435 0.57494 0.08121 0.0
C780 C 0.21269 0.57898 0.05396 0.0
H781 H 0.31933 0.61745 0.14529 0.0
H782 H 0.26816 0.61123 0.13255 0.0
H783 H 0.25881 0.58812 0.04657 0.0
H784 H 0.12379 0.53282 1.01298 0.0
H785 H 0.17347 0.544 0.02644 0.0
H786 H 0.17963 0.56438 0.1154 0.0
C787 C 0.28574 0.6006 0.12014 0.0
C788 C 0.24168 0.58291 0.06173 0.0
C789 C 0.31499 0.60429 0.12733 0.0
C790 C 0.1263 0.5448 0.03201 0.0
C791 C 0.15485 0.55137 0.03967 0.0
C792 C 0.19656 0.57003 0.10022 0.0
C793 C 0.27935 0.58387 0.09683 0.0
C794 C 0.24842 0.5804 0.0888 0.0
C795 C 0.15928 0.56634 0.06446 0.0
C796 C 0.18981 0.57216 0.07305 0.0
H797 H 0.34953 0.56377 0.07576 0.0
H798 H 0.29841 0.55731 0.06319 0.0
H799 H 0.23015 0.57191 0.129 0.0
H800 H 0.08705 0.57479 0.08713 0.0
H801 H 0.13691 0.5869 0.10023 0.0
C802 C 0.18716 0.48636 0.61129 0.0
C803 C 0.17043 0.47485 0.59038 0.0
C804 C 0.21795 0.48878 0.60745 0.0
C805 C 0.28144 0.46236 0.56126 0.0
H806 H 0.32286 0.52596 0.59504 0.0
C807 C 0.40068 0.49715 0.52899 0.0
C808 C 0.42022 0.50097 0.5499 0.0
C809 C 0.37055 0.49234 0.53499 0.0
C810 C 0.31153 0.50799 0.58568 0.0
H811 H 0.17228 0.45772 0.54888 0.0
H812 H 0.22566 0.4631 0.54161 0.0
H813 H 0.26932 0.52165 0.60315 0.0
H814 H 0.42363 0.50274 0.59345 0.0
H815 H 0.37066 0.49509 0.60392 0.0
H816 H 0.32373 0.44957 0.54287 0.0
C817 C 0.21546 0.46925 0.56138 0.0
C818 C 0.28087 0.50539 0.5904 0.0
C819 C 0.18482 0.46637 0.56541 0.0
C820 C 0.40909 0.49974 0.57693 0.0
C821 C 0.37884 0.49552 0.58294 0.0
C822 C 0.31197 0.46529 0.55617 0.0
C823 C 0.23255 0.48018 0.58243 0.0
C824 C 0.26536 0.48261 0.57813 0.0
C825 C 0.35935 0.49185 0.56201 0.0
C826 C 0.32724 0.48816 0.56826 0.0
H827 H 0.17648 0.49284 0.6308 0.0
H828 H 0.2303 0.4969 0.62428 0.0
H829 H 0.27051 0.44413 0.55199 0.0
H830 H 0.40866 0.49794 0.50798 0.0
H831 H 0.35587 0.48969 0.51854 0.0
C832 C 0.95346 0.79418 0.89055 0.0
C833 C 0.9232 0.80031 0.88994 0.0
C834 C 0.9629 0.77102 0.90436 0.0
C835 C 0.93693 0.72005 0.95608 0.0
H836 H 1.00488 0.67654 0.92647 0.0
C837 C 0.9841 0.62678 1.01221 0.0
C838 C 0.99447 0.60293 0.99618 0.0
C839 C 0.97641 0.65175 1.00015 0.0
C840 C 0.98568 0.68825 0.93497 0.0
H841 H 0.87897 0.78661 0.90289 0.0
H842 H 0.89524 0.74588 0.9262 0.0
H843 H 0.98898 0.71739 0.90332 0.0
H844 H 1.00459 0.58664 0.95485 0.0
H845 H 0.99052 0.62952 0.93397 0.0
H846 H 0.93287 0.6901 0.98708 0.0
C847 C 0.91189 0.75934 0.91675 0.0
C848 C 0.9768 0.71205 0.92184 0.0
C849 C 0.9025 0.78264 0.90317 0.0
C850 C 0.99691 0.60464 0.96788 0.0
C851 C 0.98901 0.62942 0.95586 0.0
C852 C 0.94567 0.69608 0.96909 0.0
C853 C 0.94224 0.75322 0.91765 0.0
C854 C 0.95219 0.72824 0.93211 0.0
C855 C 0.9787 0.65339 0.97177 0.0
C856 C 0.97006 0.6797 0.95862 0.0
H857 H 0.96989 0.80752 0.88059 0.0
H858 H 0.98645 0.76734 0.90488 0.0
H859 H 0.91817 0.73218 0.96491 0.0
H860 H 0.98204 0.62621 0.03407 0.0
H861 H 0.96893 0.66986 1.01312 0.0
C862 C 0.40355 0.67924 0.14784 0.0
C863 C 0.42075 0.65812 0.13332 0.0
C864 C 0.41217 0.70777 0.14771 0.0
C865 C 0.47443 0.75647 0.13043 0.0
H866 H 0.412 0.80613 0.1109 0.0
C867 C 0.49167 0.87667 0.11171 0.0
C868 C 0.47985 0.88548 0.0879 0.0
C869 C 0.48511 0.84966 0.12098 0.0
C870 C 0.42964 0.79254 0.11645 0.0
H871 H 0.46121 0.65036 0.10825 0.0
H872 H 0.47633 0.70003 0.10825 0.0
H873 H 0.40015 0.75742 0.12189 0.0
H874 H 0.45273 0.87224 0.0547 0.0
H875 H 0.44091 0.82562 0.07115 0.0
H876 H 0.50405 0.79155 0.12406 0.0
C877 C 0.45629 0.69452 0.1199 0.0
C878 C 0.42282 0.76474 0.12303 0.0
C879 C 0.44761 0.66601 0.11993 0.0
C880 C 0.46161 0.86653 0.07348 0.0
C881 C 0.45487 0.83975 0.08286 0.0
C882 C 0.48123 0.78443 0.12403 0.0
C883 C 0.43826 0.71578 0.13316 0.0
C884 C 0.44521 0.74622 0.12955 0.0
C885 C 0.46641 0.83107 0.10675 0.0
C886 C 0.45898 0.8025 0.11637 0.0
H887 H 0.38301 0.67379 0.15876 0.0
H888 H 0.39806 0.72367 0.15845 0.0
H889 H 0.49211 0.74271 0.13557 0.0
H890 H 0.50557 0.8908 0.12346 0.0
H891 H 0.49421 0.84351 0.13952 0.0
C892 C 0.09207 0.3938 0.56535 0.0
C893 C 0.08216 0.41127 0.5879 0.0
C894 C 0.08386 0.36522 0.56331 0.0
C895 C 0.03214 0.31116 0.5906 0.0
H896 H 0.09715 0.2602 0.56826 0.0
C897 C 0.02495 0.18815 0.59618 0.0
C898 C 0.03749 0.17228 0.57351 0.0
C899 C 0.02889 0.21767 0.59865 0.0
C900 C 0.07869 0.27414 0.57431 0.0
H901 H 0.0548 0.413 0.62538 0.0
H902 H 0.04051 0.3628 0.62193 0.0
H903 H 0.10555 0.31125 0.57025 0.0
H904 H 0.06295 0.17516 0.53519 0.0
H905 H 0.07001 0.22629 0.53964 0.0
H906 H 1.00535 0.27371 0.59474 0.0
C907 C 0.05444 0.37128 0.60571 0.0
C908 C 0.08347 0.30341 0.57537 0.0
C909 C 0.06258 0.4 0.60769 0.0
C910 C 0.05368 0.18659 0.55327 0.0
C911 C 0.05766 0.21594 0.55577 0.0
C912 C 0.02734 0.28173 0.58956 0.0
C913 C 0.0657 0.35342 0.58387 0.0
C914 C 0.06021 0.3223 0.58321 0.0
C915 C 0.04548 0.23181 0.57853 0.0
C916 C 0.05053 0.26296 0.5811 0.0
H917 H 0.10682 0.40209 0.5496 0.0
H918 H 0.0923 0.35218 0.54589 0.0
H919 H 0.01376 0.32519 0.59665 0.0
H920 H 0.01245 0.17773 0.61216 0.0
H921 H 0.01943 0.22935 0.61651 0.0
C922 C 0.63997 0.26051 0.38864 0.0
C923 C 0.62183 0.23896 0.37771 0.0
C924 C 0.6276 0.28449 0.40278 0.0
C925 C 0.55833 0.32644 0.41431 0.0
H926 H 0.59682 0.35641 0.47776 0.0
C927 C 0.52982 0.43682 0.4662 0.0
C928 C 0.53051 0.4404 0.49455 0.0
C929 C 0.53902 0.41133 0.45253 0.0
C930 C 0.58553 0.34819 0.46029 0.0
H931 H 0.57631 0.22607 0.37278 0.0
H932 H 0.55461 0.26795 0.39762 0.0
H933 H 0.61627 0.31393 0.45291 0.0
H934 H 0.54078 0.41954 0.53076 0.0
H935 H 0.55643 0.37488 0.50696 0.0
H936 H 0.52728 0.3605 0.42202 0.0
C937 C 0.57849 0.26639 0.39501 0.0
C938 C 0.59697 0.32399 0.44576 0.0
C939 C 0.59092 0.24236 0.38075 0.0
C940 C 0.54005 0.41758 0.50893 0.0
C941 C 0.54923 0.39201 0.49523 0.0
C942 C 0.54685 0.35067 0.42888 0.0
C943 C 0.59669 0.28764 0.40648 0.0
C944 C 0.58372 0.31291 0.42242 0.0
C945 C 0.54913 0.38864 0.4668 0.0
C946 C 0.56043 0.36202 0.45196 0.0
H947 H 0.66387 0.25886 0.38622 0.0
H948 H 0.64235 0.30068 0.4107 0.0
H949 H 0.54762 0.31868 0.39637 0.0
H950 H 0.52267 0.45395 0.45442 0.0
H951 H 0.53898 0.40974 0.43064 0.0
loop_
_geom_bond_atom_site_label_1
_geom_bond_atom_site_label_2
_geom_bond_distance
_geom_bond_site_symmetry_2
_ccdc_geom_bond_type
H0 C5 0.930 . S
H1 C8 0.930 . S
H2 C10 0.930 . S
H3 C4 1.016 . S
C4 H3 1.016 . S
C4 N11 1.286 . S
C5 H0 0.930 . S
C5 C6 1.397 . S
C5 C7 1.361 . S
C6 C5 1.397 . S
C6 C10 1.390 . S
C7 C5 1.361 . S
C7 C8 1.393 . S
C7 N11 1.413 . S
C8 H1 0.930 . S
C8 C7 1.393 . S
C8 C9 1.399 . S
C9 C8 1.399 . S
C9 C10 1.381 . S
C10 H2 0.930 . S
C10 C6 1.390 . S
C10 C9 1.381 . S
N11 C4 1.286 . S
N11 C7 1.413 . S
H12 C17 0.930 . S
H13 C20 0.930 . S
H14 C22 0.930 . S
H15 C16 1.016 . S
C16 H15 1.016 . S
C16 N23 1.286 . S
C17 H12 0.930 . S
C17 C18 1.397 . S
C17 C19 1.361 . S
C18 C17 1.397 . S
C18 C22 1.390 . S
C19 C17 1.361 . S
C19 C20 1.393 . S
C19 N23 1.413 . S
C20 H13 0.930 . S
C20 C19 1.393 . S
C20 C21 1.399 . S
C21 C20 1.399 . S
C21 C22 1.381 . S
C22 H14 0.930 . S
C22 C18 1.390 . S
C22 C21 1.381 . S
N23 C16 1.286 . S
N23 C19 1.413 . S
H24 C29 0.930 . S
H25 C32 0.930 . S
H26 C34 0.930 . S
H27 C28 1.016 . S
C28 H27 1.016 . S
C28 N35 1.286 . S
C29 H24 0.930 . S
C29 C30 1.397 . S
C29 C31 1.361 . S
C30 C29 1.397 . S
C30 C34 1.390 . S
C31 C29 1.361 . S
C31 C32 1.393 . S
C31 N35 1.413 . S
C32 H25 0.930 . S
C32 C31 1.393 . S
C32 C33 1.399 . S
C33 C32 1.399 . S
C33 C34 1.381 . S
C34 H26 0.930 . S
C34 C30 1.390 . S
C34 C33 1.381 . S
N35 C28 1.286 . S
N35 C31 1.413 . S
H36 C41 0.930 . S
H37 C44 0.930 . S
H38 C46 0.930 . S
H39 C40 1.016 . S
C40 H39 1.016 . S
C40 N47 1.286 . S
C41 H36 0.930 . S
C41 C42 1.397 . S
C41 C43 1.361 . S
C42 C41 1.397 . S
C42 C46 1.390 . S
C43 C41 1.361 . S
C43 C44 1.393 . S
C43 N47 1.413 . S
C44 H37 0.930 . S
C44 C43 1.393 . S
C44 C45 1.399 . S
C45 C44 1.399 . S
C45 C46 1.381 . S
C46 H38 0.930 . S
C46 C42 1.390 . S
C46 C45 1.381 . S
N47 C40 1.286 . S
N47 C43 1.413 . S
H48 C53 0.930 . S
H49 C56 0.930 . S
H50 C58 0.930 . S
H51 C52 1.016 . S
C52 H51 1.016 . S
C52 N59 1.286 . S
C53 H48 0.930 . S
C53 C54 1.397 . S
C53 C55 1.361 . S
C54 C53 1.397 . S
C54 C58 1.390 . S
C55 C53 1.361 . S
C55 C56 1.393 . S
C55 N59 1.413 . S
C56 H49 0.930 . S
C56 C55 1.393 . S
C56 C57 1.399 . S
C57 C56 1.399 . S
C57 C58 1.381 . S
C58 H50 0.930 . S
C58 C54 1.390 . S
C58 C57 1.381 . S
N59 C52 1.286 . S
N59 C55 1.413 . S
H60 C65 0.930 . S
H61 C68 0.930 . S
H62 C70 0.930 . S
H63 C64 1.016 . S
C64 H63 1.016 . S
C64 N71 1.286 . S
C65 H60 0.930 . S
C65 C66 1.397 . S
C65 C67 1.361 . S
C66 C65 1.397 . S
C66 C70 1.390 . S
C67 C65 1.361 . S
C67 C68 1.393 . S
C67 N71 1.413 . S
C68 H61 0.930 . S
C68 C67 1.393 . S
C68 C69 1.399 . S
C69 C68 1.399 . S
C69 C70 1.381 . S
C70 H62 0.930 . S
C70 C66 1.390 . S
C70 C69 1.381 . S
N71 C64 1.286 . S
N71 C67 1.413 . S
H72 C77 0.930 . S
H73 C80 0.930 . S
H74 C82 0.930 . S
H75 C76 1.016 . S
C76 H75 1.016 . S
C76 N83 1.286 . S
C77 H72 0.930 . S
C77 C78 1.397 . S
C77 C79 1.361 . S
C78 C77 1.397 . S
C78 C82 1.390 . S
C79 C77 1.361 . S
C79 C80 1.393 . S
C79 N83 1.413 . S
C80 H73 0.930 . S
C80 C79 1.393 . S
C80 C81 1.399 . S
C81 C80 1.399 . S
C81 C82 1.381 . S
C82 H74 0.930 . S
C82 C78 1.390 . S
C82 C81 1.381 . S
N83 C76 1.286 . S
N83 C79 1.413 . S
H84 C89 0.930 . S
H85 C92 0.930 . S
H86 C94 0.930 . S
H87 C88 1.016 . S
C88 H87 1.016 . S
C88 N95 1.286 . S
C89 H84 0.930 . S
C89 C90 1.397 . S
C89 C91 1.361 . S
C90 C89 1.397 . S
C90 C94 1.390 . S
C91 C89 1.361 . S
C91 C92 1.393 . S
C91 N95 1.413 . S
C92 H85 0.930 . S
C92 C91 1.393 . S
C92 C93 1.399 . S
C93 C92 1.399 . S
C93 C94 1.381 . S
C94 H86 0.930 . S
C94 C90 1.390 . S
C94 C93 1.381 . S
N95 C88 1.286 . S
N95 C91 1.413 . S
C96 O112 1.251 . S
C96 O114 1.254 1_545 S
N97 C98 1.333 . S
N97 C102 1.307 . S
N97 Zn103 2.020 . S
C98 N97 1.333 . S
C98 C99 1.379 . S
C98 H116 0.952 . S
C99 C98 1.379 . S
C99 C100 1.390 . S
C99 H126 0.949 . S
C100 C99 1.390 . S
C100 C101 1.357 . S
C101 C100 1.357 . S
C101 C102 1.370 . S
C101 H127 0.950 . S
C102 N97 1.307 . S
C102 C101 1.370 . S
C102 H120 0.948 1_455 S
Zn103 N97 2.020 . S
Zn103 O112 2.039 . S
Zn103 O118 2.034 . S
Zn103 O122 2.025 1_455 S
Zn103 O124 2.024 1_455 S
C104 O123 1.246 1_545 S
C104 O124 1.249 . S
N105 C106 1.307 . S
N105 C107 1.333 . S
N105 Zn111 2.020 . S
C106 N105 1.307 . S
C106 C110 1.370 . S
C106 H117 0.948 1_655 S
C107 N105 1.333 . S
C107 C108 1.379 . S
C107 H115 0.952 . S
C108 C107 1.379 . S
C108 C109 1.390 . S
C108 H128 0.949 . S
C109 C108 1.390 . S
C109 C110 1.357 . S
C110 C106 1.370 . S
C110 C109 1.357 . S
C110 H129 0.950 . S
Zn111 N105 2.020 . S
Zn111 O114 2.025 1_655 S
Zn111 O119 2.024 1_655 S
Zn111 O121 2.039 . S
Zn111 O123 2.034 . S
O112 C96 1.251 . S
O112 Zn103 2.039 . S
C113 O118 1.246 1_565 S
C113 O119 1.249 . S
O114 C96 1.254 1_565 S
O114 Zn111 2.025 1_455 S
H115 C107 0.952 . S
H116 C98 0.952 . S
H117 C106 0.948 1_455 S
O118 Zn103 2.034 . S
O118 C113 1.246 1_545 S
O119 Zn111 2.024 1_455 S
O119 C113 1.249 . S
H120 C102 0.948 1_655 S
O121 Zn111 2.039 . S
O121 C125 1.251 . S
O122 Zn103 2.025 1_655 S
O122 C125 1.254 1_545 S
O123 C104 1.246 1_565 S
O123 Zn111 2.034 . S
O124 Zn103 2.024 1_655 S
O124 C104 1.249 . S
C125 O121 1.251 . S
C125 O122 1.254 1_565 S
H126 C99 0.949 . S
H127 C101 0.950 . S
H128 C108 0.949 . S
H129 C110 0.950 . S
C130 O146 1.251 1_565 S
C130 O148 1.254 1_556 S
N131 C132 1.333 . S
N131 C136 1.307 . S
N131 Zn137 2.023 . S
C132 N131 1.333 . S
C132 C133 1.379 . S
C132 H150 0.952 . S
C133 C132 1.379 . S
C133 C134 1.390 . S
C133 H160 0.949 . S
C134 C133 1.390 . S
C134 C135 1.357 . S
C135 C134 1.357 . S
C135 C136 1.370 . S
C135 H161 0.950 . S
C136 N131 1.307 . S
C136 C135 1.370 . S
C136 H154 0.948 . S
Zn137 N131 2.023 . S
Zn137 O146 2.041 . S
Zn137 O152 2.023 1_556 S
Zn137 O156 2.022 1_556 S
Zn137 O158 2.034 . S
C138 O157 1.241 1_545 S
C138 O158 1.256 . S
N139 C140 1.307 . S
N139 C141 1.333 . S
N139 Zn145 2.020 . S
C140 N139 1.307 . S
C140 C144 1.370 . S
C140 H151 0.948 . S
C141 N139 1.333 . S
C141 C142 1.379 . S
C141 H149 0.952 . S
C142 C141 1.379 . S
C142 C143 1.390 . S
C142 H162 0.949 . S
C143 C142 1.390 . S
C143 C144 1.357 . S
C144 C140 1.370 . S
C144 C143 1.357 . S
C144 H163 0.950 . S
Zn145 N139 2.020 . S
Zn145 O148 2.025 . S
Zn145 O153 2.024 1_565 S
Zn145 O155 2.039 1_565 S
Zn145 O157 2.034 1_554 S
O146 C130 1.251 1_545 S
O146 Zn137 2.041 . S
C147 O152 1.246 . S
C147 O153 1.249 . S
O148 C130 1.254 1_554 S
O148 Zn145 2.025 . S
H149 C141 0.952 . S
H150 C132 0.952 . S
H151 C140 0.948 . S
O152 Zn137 2.023 1_554 S
O152 C147 1.246 . S
O153 Zn145 2.024 1_545 S
O153 C147 1.249 . S
H154 C136 0.948 . S
O155 Zn145 2.039 1_545 S
O155 C159 1.251 . S
O156 Zn137 2.022 1_554 S
O156 C159 1.254 . S
O157 C138 1.241 1_565 S
O157 Zn145 2.034 1_556 S
O158 Zn137 2.034 . S
O158 C138 1.256 . S
C159 O155 1.251 . S
C159 O156 1.254 . S
H160 C133 0.949 . S
H161 C135 0.950 . S
H162 C142 0.949 . S
H163 C144 0.950 . S
C164 O180 1.251 . S
C164 O182 1.254 . S
N165 C166 1.333 . S
N165 C170 1.307 . S
N165 Zn171 2.020 . S
C166 N165 1.333 . S
C166 C167 1.379 . S
C166 H184 0.952 . S
C167 C166 1.379 . S
C167 C168 1.390 . S
C167 H194 0.949 . S
C168 C167 1.390 . S
C168 C169 1.357 . S
C169 C168 1.357 . S
C169 C170 1.370 . S
C169 H195 0.950 . S
C170 N165 1.307 . S
C170 C169 1.370 . S
C170 H188 0.948 . S
Zn171 N165 2.020 . S
Zn171 O180 2.039 . S
Zn171 O186 2.034 . S
Zn171 O190 2.025 . S
Zn171 O192 2.024 . S
C172 O191 1.246 . S
C172 O192 1.249 . S
N173 C174 1.307 . S
N173 C175 1.333 . S
N173 Zn179 2.020 . S
C174 N173 1.307 . S
C174 C178 1.370 . S
C174 H185 0.948 . S
C175 N173 1.333 . S
C175 C176 1.379 . S
C175 H183 0.952 . S
C176 C175 1.379 . S
C176 C177 1.390 . S
C176 H196 0.949 . S
C177 C176 1.390 . S
C177 C178 1.357 . S
C178 C174 1.370 . S
C178 C177 1.357 . S
C178 H197 0.950 . S
Zn179 N173 2.020 . S
Zn179 O182 2.025 . S
Zn179 O187 2.024 . S
Zn179 O189 2.039 . S
Zn179 O191 2.034 . S
O180 C164 1.251 . S
O180 Zn171 2.039 . S
C181 O186 1.246 . S
C181 O187 1.249 . S
O182 C164 1.254 . S
O182 Zn179 2.025 . S
H183 C175 0.952 . S
H184 C166 0.952 . S
H185 C174 0.948 . S
O186 Zn171 2.034 . S
O186 C181 1.246 . S
O187 Zn179 2.024 . S
O187 C181 1.249 . S
H188 C170 0.948 . S
O189 Zn179 2.039 . S
O189 C193 1.251 . S
O190 Zn171 2.025 . S
O190 C193 1.254 . S
O191 C172 1.246 . S
O191 Zn179 2.034 . S
O192 Zn171 2.024 . S
O192 C172 1.249 . S
C193 O189 1.251 . S
C193 O190 1.254 . S
H194 C167 0.949 . S
H195 C169 0.950 . S
H196 C176 0.949 . S
H197 C178 0.950 . S
C198 O214 1.254 1_556 S
C198 O216 1.244 1_655 S
N199 C200 1.333 . S
N199 C204 1.307 . S
N199 Zn205 2.020 . S
C200 N199 1.333 . S
C200 C201 1.379 . S
C200 H218 0.952 . S
C201 C200 1.379 . S
C201 C202 1.390 . S
C201 H228 0.949 . S
C202 C201 1.390 . S
C202 C203 1.357 . S
C203 C202 1.357 . S
C203 C204 1.370 . S
C203 H229 0.950 . S
C204 N199 1.307 . S
C204 C203 1.370 . S
C204 H222 0.948 . S
Zn205 N199 2.020 . S
Zn205 O214 2.039 . S
Zn205 O220 2.034 1_655 S
Zn205 O224 2.025 1_655 S
Zn205 O226 2.024 . S
C206 O225 1.246 . S
C206 O226 1.249 1_556 S
N207 C208 1.307 . S
N207 C209 1.333 . S
N207 Zn213 2.020 . S
C208 N207 1.307 . S
C208 C212 1.370 . S
C208 H219 0.948 . S
C209 N207 1.333 . S
C209 C210 1.379 . S
C209 H217 0.952 . S
C210 C209 1.379 . S
C210 C211 1.390 . S
C210 H230 0.949 . S
C211 C210 1.390 . S
C211 C212 1.357 . S
C212 C208 1.370 . S
C212 C211 1.357 . S
C212 H231 0.950 . S
Zn213 N207 2.020 . S
Zn213 O216 2.025 . S
Zn213 O221 2.024 . S
Zn213 O223 2.039 . S
Zn213 O225 2.034 1_455 S
O214 C198 1.254 1_554 S
O214 Zn205 2.039 . S
C215 O220 1.246 . S
C215 O221 1.249 1_554 S
O216 C198 1.244 1_455 S
O216 Zn213 2.025 . S
H217 C209 0.952 . S
H218 C200 0.952 . S
H219 C208 0.948 . S
O220 Zn205 2.034 1_455 S
O220 C215 1.246 . S
O221 Zn213 2.024 . S
O221 C215 1.249 1_556 S
H222 C204 0.948 . S
O223 Zn213 2.039 . S
O223 C227 1.251 1_556 S
O224 Zn205 2.025 1_455 S
O224 C227 1.254 . S
O225 C206 1.246 . S
O225 Zn213 2.034 1_655 S
O226 Zn205 2.024 . S
O226 C206 1.249 1_554 S
C227 O223 1.251 1_554 S
C227 O224 1.254 . S
H228 C201 0.949 . S
H229 C203 0.950 . S
H230 C210 0.949 . S
H231 C212 0.950 . S
C232 C233 1.349 . S
C232 C234 1.327 . S
C232 H257 0.950 . S
C233 C232 1.349 . S
C233 C249 1.349 . S
C234 C232 1.327 . S
C234 C253 1.429 . S
C234 H258 0.950 . S
C235 C252 1.574 . S
C235 C254 1.368 . S
C235 H259 0.949 . S
H236 C240 0.949 . S
C237 C238 1.349 . S
C237 C239 1.327 . S
C237 H260 0.950 . S
C238 C237 1.349 . S
C238 C250 1.349 . S
C239 C237 1.327 . S
C239 C255 1.429 . S
C239 H261 0.950 . S
C240 H236 0.949 . S
C240 C248 1.574 . S
C240 C256 1.368 . S
H241 C249 0.950 . S
H242 C247 0.950 . S
H243 C248 0.949 . S
H244 C250 0.950 . S
H245 C251 0.950 . S
H246 C252 0.949 . S
C247 H242 0.950 . S
C247 C249 1.327 . S
C247 C253 1.429 . S
C248 C240 1.574 . S
C248 H243 0.949 . S
C248 C254 1.368 . S
C249 C233 1.349 . S
C249 H241 0.950 . S
C249 C247 1.327 . S
C250 C238 1.349 . S
C250 H244 0.950 . S
C250 C251 1.327 . S
C251 H245 0.950 . S
C251 C250 1.327 . S
C251 C255 1.429 . S
C252 C235 1.574 . S
C252 H246 0.949 . S
C252 C256 1.368 . S
C253 C234 1.429 . S
C253 C247 1.429 . S
C253 C254 1.523 . S
C254 C235 1.368 . S
C254 C248 1.368 . S
C254 C253 1.523 . S
C255 C239 1.429 . S
C255 C251 1.429 . S
C255 C256 1.523 . S
C256 C240 1.368 . S
C256 C252 1.368 . S
C256 C255 1.523 . S
H257 C232 0.950 . S
H258 C234 0.950 . S
H259 C235 0.949 . S
H260 C237 0.950 . S
H261 C239 0.950 . S
C262 C263 1.349 . S
C262 C264 1.327 . S
C262 H287 0.950 . S
C263 C262 1.349 . S
C263 C279 1.349 . S
C264 C262 1.327 . S
C264 C283 1.429 . S
C264 H288 0.950 . S
C265 C282 1.574 . S
C265 C284 1.368 . S
C265 H289 0.949 . S
H266 C270 0.949 . S
C267 C268 1.349 . S
C267 C269 1.327 . S
C267 H290 0.950 . S
C268 C267 1.349 . S
C268 C280 1.349 . S
C269 C267 1.327 . S
C269 C285 1.429 . S
C269 H291 0.950 . S
C270 H266 0.949 . S
C270 C278 1.574 . S
C270 C286 1.368 . S
H271 C279 0.950 . S
H272 C277 0.950 . S
H273 C278 0.949 . S
H274 C280 0.950 1_545 S
H275 C281 0.950 . S
H276 C282 0.949 . S
C277 H272 0.950 . S
C277 C279 1.327 . S
C277 C283 1.429 . S
C278 C270 1.574 . S
C278 H273 0.949 . S
C278 C284 1.368 . S
C279 C263 1.349 . S
C279 H271 0.950 . S
C279 C277 1.327 . S
C280 C268 1.349 . S
C280 H274 0.950 1_565 S
C280 C281 1.327 . S
C281 H275 0.950 . S
C281 C280 1.327 . S
C281 C285 1.429 . S
C282 C265 1.574 . S
C282 H276 0.949 . S
C282 C286 1.368 . S
C283 C264 1.429 . S
C283 C277 1.429 . S
C283 C284 1.523 . S
C284 C265 1.368 . S
C284 C278 1.368 . S
C284 C283 1.523 . S
C285 C269 1.429 . S
C285 C281 1.429 . S
C285 C286 1.523 . S
C286 C270 1.368 . S
C286 C282 1.368 . S
C286 C285 1.523 . S
H287 C262 0.950 . S
H288 C264 0.950 . S
H289 C265 0.949 . S
H290 C267 0.950 . S
H291 C269 0.950 . S
C292 C293 1.349 . S
C292 C294 1.327 . S
C292 H317 0.950 . S
C293 C292 1.349 . S
C293 C309 1.349 . S
C294 C292 1.327 . S
C294 C313 1.429 . S
C294 H318 0.950 . S
C295 C312 1.574 . S
C295 C314 1.368 . S
C295 H319 0.949 . S
H296 C300 0.949 . S
C297 C298 1.349 . S
C297 C299 1.327 . S
C297 H320 0.950 . S
C298 C297 1.349 . S
C298 C310 1.349 . S
C299 C297 1.327 . S
C299 C315 1.429 . S
C299 H321 0.950 . S
C300 H296 0.949 . S
C300 C308 1.574 . S
C300 C316 1.368 . S
H301 C309 0.950 . S
H302 C307 0.950 . S
H303 C308 0.949 . S
H304 C310 0.950 . S
H305 C311 0.950 . S
H306 C312 0.949 . S
C307 H302 0.950 . S
C307 C309 1.327 . S
C307 C313 1.429 . S
C308 C300 1.574 . S
C308 H303 0.949 . S
C308 C314 1.368 . S
C309 C293 1.349 . S
C309 H301 0.950 . S
C309 C307 1.327 . S
C310 C298 1.349 . S
C310 H304 0.950 . S
C310 C311 1.327 . S
C311 H305 0.950 . S
C311 C310 1.327 . S
C311 C315 1.429 . S
C312 C295 1.574 . S
C312 H306 0.949 . S
C312 C316 1.368 . S
C313 C294 1.429 . S
C313 C307 1.429 . S
C313 C314 1.523 . S
C314 C295 1.368 . S
C314 C308 1.368 . S
C314 C313 1.523 . S
C315 C299 1.429 . S
C315 C311 1.429 . S
C315 C316 1.523 . S
C316 C300 1.368 . S
C316 C312 1.368 . S
C316 C315 1.523 . S
H317 C292 0.950 . S
H318 C294 0.950 . S
H319 C295 0.949 . S
H320 C297 0.950 . S
H321 C299 0.950 . S
C322 C323 1.349 . S
C322 C324 1.327 . S
C322 H347 0.950 . S
C323 C322 1.349 . S
C323 C339 1.349 . S
C324 C322 1.327 . S
C324 C343 1.429 . S
C324 H348 0.950 . S
C325 C342 1.574 . S
C325 C344 1.368 . S
C325 H349 0.949 . S
H326 C330 0.949 . S
C327 C328 1.349 . S
C327 C329 1.327 . S
C327 H350 0.950 . S
C328 C327 1.349 . S
C328 C340 1.349 . S
C329 C327 1.327 . S
C329 C345 1.429 . S
C329 H351 0.950 . S
C330 H326 0.949 . S
C330 C338 1.574 . S
C330 C346 1.368 . S
H331 C339 0.950 . S
H332 C337 0.950 . S
H333 C338 0.949 . S
H334 C340 0.950 . S
H335 C341 0.950 . S
H336 C342 0.949 . S
C337 H332 0.950 . S
C337 C339 1.327 . S
C337 C343 1.429 . S
C338 C330 1.574 . S
C338 H333 0.949 . S
C338 C344 1.368 . S
C339 C323 1.349 . S
C339 H331 0.950 . S
C339 C337 1.327 . S
C340 C328 1.349 . S
C340 H334 0.950 . S
C340 C341 1.327 . S
C341 H335 0.950 . S
C341 C340 1.327 . S
C341 C345 1.429 . S
C342 C325 1.574 . S
C342 H336 0.949 . S
C342 C346 1.368 . S
C343 C324 1.429 . S
C343 C337 1.429 . S
C343 C344 1.523 . S
C344 C325 1.368 . S
C344 C338 1.368 . S
C344 C343 1.523 . S
C345 C329 1.429 . S
C345 C341 1.429 . S
C345 C346 1.523 . S
C346 C330 1.368 . S
C346 C342 1.368 . S
C346 C345 1.523 . S
H347 C322 0.950 . S
H348 C324 0.950 . S
H349 C325 0.949 . S
H350 C327 0.950 . S
H351 C329 0.950 . S
C352 C353 1.349 . S
C352 C354 1.327 . S
C352 H377 0.950 . S
C353 C352 1.349 . S
C353 C369 1.349 . S
C354 C352 1.327 . S
C354 C373 1.429 . S
C354 H378 0.950 . S
C355 C372 1.574 . S
C355 C374 1.368 . S
C355 H379 0.949 . S
H356 C360 0.949 . S
C357 C358 1.349 . S
C357 C359 1.327 . S
C357 H380 0.950 . S
C358 C357 1.349 . S
C358 C370 1.349 . S
C359 C357 1.327 . S
C359 C375 1.429 . S
C359 H381 0.950 . S
C360 H356 0.949 . S
C360 C368 1.574 . S
C360 C376 1.368 . S
H361 C369 0.950 . S
H362 C367 0.950 . S
H363 C368 0.949 . S
H364 C370 0.950 . S
H365 C371 0.950 . S
H366 C372 0.949 . S
C367 H362 0.950 . S
C367 C369 1.327 . S
C367 C373 1.429 . S
C368 C360 1.574 . S
C368 H363 0.949 . S
C368 C374 1.368 . S
C369 C353 1.349 . S
C369 H361 0.950 . S
C369 C367 1.327 . S
C370 C358 1.349 . S
C370 H364 0.950 . S
C370 C371 1.327 . S
C371 H365 0.950 . S
C371 C370 1.327 . S
C371 C375 1.429 . S
C372 C355 1.574 . S
C372 H366 0.949 . S
C372 C376 1.368 . S
C373 C354 1.429 . S
C373 C367 1.429 . S
C373 C374 1.523 . S
C374 C355 1.368 . S
C374 C368 1.368 . S
C374 C373 1.523 . S
C375 C359 1.429 . S
C375 C371 1.429 . S
C375 C376 1.523 . S
C376 C360 1.368 . S
C376 C372 1.368 . S
C376 C375 1.523 . S
H377 C352 0.950 . S
H378 C354 0.950 . S
H379 C355 0.949 . S
H380 C357 0.950 . S
H381 C359 0.950 . S
C382 C383 1.349 . S
C382 C384 1.327 . S
C382 H407 0.950 . S
C383 C382 1.349 . S
C383 C399 1.349 . S
C384 C382 1.327 . S
C384 C403 1.429 . S
C384 H408 0.950 . S
C385 C402 1.574 . S
C385 C404 1.368 . S
C385 H409 0.949 . S
H386 C390 0.949 . S
C387 C388 1.349 . S
C387 C389 1.327 . S
C387 H410 0.950 1_565 S
C388 C387 1.349 . S
C388 C400 1.349 . S
C389 C387 1.327 . S
C389 C405 1.429 . S
C389 H411 0.950 . S
C390 H386 0.949 . S
C390 C398 1.574 . S
C390 C406 1.368 . S
H391 C399 0.950 . S
H392 C397 0.950 . S
H393 C398 0.949 . S
H394 C400 0.950 . S
H395 C401 0.950 . S
H396 C402 0.949 . S
C397 H392 0.950 . S
C397 C399 1.327 . S
C397 C403 1.429 . S
C398 C390 1.574 . S
C398 H393 0.949 . S
C398 C404 1.368 . S
C399 C383 1.349 . S
C399 H391 0.950 . S
C399 C397 1.327 . S
C400 C388 1.349 . S
C400 H394 0.950 . S
C400 C401 1.327 . S
C401 H395 0.950 . S
C401 C400 1.327 . S
C401 C405 1.429 . S
C402 C385 1.574 . S
C402 H396 0.949 . S
C402 C406 1.368 . S
C403 C384 1.429 . S
C403 C397 1.429 . S
C403 C404 1.523 . S
C404 C385 1.368 . S
C404 C398 1.368 . S
C404 C403 1.523 . S
C405 C389 1.429 . S
C405 C401 1.429 . S
C405 C406 1.523 . S
C406 C390 1.368 . S
C406 C402 1.368 . S
C406 C405 1.523 . S
H407 C382 0.950 . S
H408 C384 0.950 . S
H409 C385 0.949 . S
H410 C387 0.950 1_545 S
H411 C389 0.950 . S
C412 C413 1.349 . S
C412 C414 1.327 . S
C412 H437 0.950 . S
C413 C412 1.349 . S
C413 C429 1.349 . S
C414 C412 1.327 . S
C414 C433 1.429 . S
C414 H438 0.950 . S
C415 C432 1.574 . S
C415 C434 1.368 . S
C415 H439 0.949 . S
H416 C420 0.949 . S
C417 C418 1.349 . S
C417 C419 1.327 . S
C417 H440 0.950 . S
C418 C417 1.349 . S
C418 C430 1.349 . S
C419 C417 1.327 . S
C419 C435 1.429 . S
C419 H441 0.950 . S
C420 H416 0.949 . S
C420 C428 1.574 . S
C420 C436 1.368 . S
H421 C429 0.950 . S
H422 C427 0.950 . S
H423 C428 0.949 . S
H424 C430 0.950 . S
H425 C431 0.950 . S
H426 C432 0.949 . S
C427 H422 0.950 . S
C427 C429 1.327 . S
C427 C433 1.429 . S
C428 C420 1.574 . S
C428 H423 0.949 . S
C428 C434 1.368 . S
C429 C413 1.349 . S
C429 H421 0.950 . S
C429 C427 1.327 . S
C430 C418 1.349 . S
C430 H424 0.950 . S
C430 C431 1.327 . S
C431 H425 0.950 . S
C431 C430 1.327 . S
C431 C435 1.429 . S
C432 C415 1.574 . S
C432 H426 0.949 . S
C432 C436 1.368 . S
C433 C414 1.429 . S
C433 C427 1.429 . S
C433 C434 1.523 . S
C434 C415 1.368 . S
C434 C428 1.368 . S
C434 C433 1.523 . S
C435 C419 1.429 . S
C435 C431 1.429 . S
C435 C436 1.523 . S
C436 C420 1.368 . S
C436 C432 1.368 . S
C436 C435 1.523 . S
H437 C412 0.950 . S
H438 C414 0.950 . S
H439 C415 0.949 . S
H440 C417 0.950 . S
H441 C419 0.950 . S
C442 C443 1.349 . S
C442 C444 1.327 . S
C442 H467 0.950 . S
C443 C442 1.349 . S
C443 C459 1.349 . S
C444 C442 1.327 . S
C444 C463 1.429 . S
C444 H468 0.950 . S
C445 C462 1.574 . S
C445 C464 1.368 . S
C445 H469 0.949 . S
H446 C450 0.949 . S
C447 C448 1.349 . S
C447 C449 1.327 . S
C447 H470 0.950 . S
C448 C447 1.349 . S
C448 C460 1.349 . S
C449 C447 1.327 . S
C449 C465 1.429 . S
C449 H471 0.950 . S
C450 H446 0.949 . S
C450 C458 1.574 . S
C450 C466 1.368 . S
H451 C459 0.950 . S
H452 C457 0.950 . S
H453 C458 0.949 . S
H454 C460 0.950 . S
H455 C461 0.950 . S
H456 C462 0.949 . S
C457 H452 0.950 . S
C457 C459 1.327 . S
C457 C463 1.429 . S
C458 C450 1.574 . S
C458 H453 0.949 . S
C458 C464 1.368 . S
C459 C443 1.349 . S
C459 H451 0.950 . S
C459 C457 1.327 . S
C460 C448 1.349 . S
C460 H454 0.950 . S
C460 C461 1.327 . S
C461 H455 0.950 . S
C461 C460 1.327 . S
C461 C465 1.429 . S
C462 C445 1.574 . S
C462 H456 0.949 . S
C462 C466 1.368 . S
C463 C444 1.429 . S
C463 C457 1.429 . S
C463 C464 1.523 . S
C464 C445 1.368 . S
C464 C458 1.368 . S
C464 C463 1.523 . S
C465 C449 1.429 . S
C465 C461 1.429 . S
C465 C466 1.523 . S
C466 C450 1.368 . S
C466 C462 1.368 . S
C466 C465 1.523 . S
H467 C442 0.950 . S
H468 C444 0.950 . S
H469 C445 0.949 . S
H470 C447 0.950 . S
H471 C449 0.950 . S
C472 C473 1.349 . S
C472 C474 1.327 . S
C472 H497 0.950 . S
C473 C472 1.349 . S
C473 C489 1.349 . S
C474 C472 1.327 . S
C474 C493 1.429 . S
C474 H498 0.950 . S
C475 C492 1.574 . S
C475 C494 1.368 . S
C475 H499 0.949 . S
H476 C480 0.949 . S
C477 C478 1.349 . S
C477 C479 1.327 . S
C477 H500 0.950 . S
C478 C477 1.349 . S
C478 C490 1.349 . S
C479 C477 1.327 . S
C479 C495 1.429 . S
C479 H501 0.950 . S
C480 H476 0.949 . S
C480 C488 1.574 . S
C480 C496 1.368 . S
H481 C489 0.950 . S
H482 C487 0.950 . S
H483 C488 0.949 . S
H484 C490 0.950 . S
H485 C491 0.950 . S
H486 C492 0.949 . S
C487 H482 0.950 . S
C487 C489 1.327 . S
C487 C493 1.429 . S
C488 C480 1.574 . S
C488 H483 0.949 . S
C488 C494 1.368 . S
C489 C473 1.349 . S
C489 H481 0.950 . S
C489 C487 1.327 . S
C490 C478 1.349 . S
C490 H484 0.950 . S
C490 C491 1.327 . S
C491 H485 0.950 . S
C491 C490 1.327 . S
C491 C495 1.429 . S
C492 C475 1.574 . S
C492 H486 0.949 . S
C492 C496 1.368 . S
C493 C474 1.429 . S
C493 C487 1.429 . S
C493 C494 1.523 . S
C494 C475 1.368 . S
C494 C488 1.368 . S
C494 C493 1.523 . S
C495 C479 1.429 . S
C495 C491 1.429 . S
C495 C496 1.523 . S
C496 C480 1.368 . S
C496 C492 1.368 . S
C496 C495 1.523 . S
H497 C472 0.950 . S
H498 C474 0.950 . S
H499 C475 0.949 . S
H500 C477 0.950 . S
H501 C479 0.950 . S
C502 C503 1.349 . S
C502 C504 1.327 . S
C502 H527 0.950 . S
C503 C502 1.349 . S
C503 C519 1.349 . S
C504 C502 1.327 . S
C504 C523 1.429 . S
C504 H528 0.950 . S
C505 C522 1.574 . S
C505 C524 1.368 . S
C505 H529 0.949 . S
H506 C510 0.949 . S
C507 C508 1.349 . S
C507 C509 1.327 . S
C507 H530 0.974 . S
C508 C507 1.349 . S
C508 C520 1.349 . S
C509 C507 1.327 . S
C509 C525 1.429 . S
C509 H531 0.950 . S
C510 H506 0.949 . S
C510 C518 1.574 . S
C510 C526 1.368 . S
H511 C519 0.950 . S
H512 C517 0.950 . S
H513 C518 0.949 . S
H514 C520 0.950 . S
H515 C521 0.950 . S
H516 C522 0.949 . S
C517 H512 0.950 . S
C517 C519 1.327 . S
C517 C523 1.429 . S
C518 C510 1.574 . S
C518 H513 0.949 . S
C518 C524 1.368 . S
C519 C503 1.349 . S
C519 H511 0.950 . S
C519 C517 1.327 . S
C520 C508 1.349 . S
C520 H514 0.950 . S
C520 C521 1.327 . S
C521 H515 0.950 . S
C521 C520 1.327 . S
C521 C525 1.429 . S
C522 C505 1.574 . S
C522 H516 0.949 . S
C522 C526 1.368 . S
C523 C504 1.429 . S
C523 C517 1.429 . S
C523 C524 1.523 . S
C524 C505 1.368 . S
C524 C518 1.368 . S
C524 C523 1.523 . S
C525 C509 1.429 . S
C525 C521 1.429 . S
C525 C526 1.523 . S
C526 C510 1.368 . S
C526 C522 1.368 . S
C526 C525 1.523 . S
H527 C502 0.950 . S
H528 C504 0.950 . S
H529 C505 0.949 . S
H530 C507 0.974 . S
H531 C509 0.950 . S
C532 C533 1.349 . S
C532 C534 1.327 . S
C532 H557 0.950 . S
C533 C532 1.349 . S
C533 C549 1.349 . S
C534 C532 1.327 . S
C534 C553 1.429 . S
C534 H558 0.950 . S
C535 C552 1.574 . S
C535 C554 1.368 . S
C535 H559 0.949 . S
H536 C540 0.949 . S
C537 C538 1.349 . S
C537 C539 1.327 . S
C537 H560 0.950 . S
C538 C537 1.349 . S
C538 C550 1.349 . S
C539 C537 1.327 . S
C539 C555 1.429 . S
C539 H561 0.950 . S
C540 H536 0.949 . S
C540 C548 1.574 . S
C540 C556 1.368 . S
H541 C549 0.950 . S
H542 C547 0.950 . S
H543 C548 0.949 . S
H544 C550 0.950 . S
H545 C551 0.950 . S
H546 C552 0.949 . S
C547 H542 0.950 . S
C547 C549 1.327 . S
C547 C553 1.429 . S
C548 C540 1.574 . S
C548 H543 0.949 . S
C548 C554 1.368 . S
C549 C533 1.349 . S
C549 H541 0.950 . S
C549 C547 1.327 . S
C550 C538 1.349 . S
C550 H544 0.950 . S
C550 C551 1.327 . S
C551 H545 0.950 . S
C551 C550 1.327 . S
C551 C555 1.429 . S
C552 C535 1.574 . S
C552 H546 0.949 . S
C552 C556 1.368 . S
C553 C534 1.429 . S
C553 C547 1.429 . S
C553 C554 1.523 . S
C554 C535 1.368 . S
C554 C548 1.368 . S
C554 C553 1.523 . S
C555 C539 1.429 . S
C555 C551 1.429 . S
C555 C556 1.523 . S
C556 C540 1.368 . S
C556 C552 1.368 . S
C556 C555 1.523 . S
H557 C532 0.950 . S
H558 C534 0.950 . S
H559 C535 0.949 . S
H560 C537 0.950 . S
H561 C539 0.950 . S
C562 C563 1.349 . S
C562 C564 1.327 . S
C562 H587 0.950 . S
C563 C562 1.349 . S
C563 C579 1.349 . S
C564 C562 1.327 . S
C564 C583 1.429 . S
C564 H588 0.950 . S
C565 C582 1.574 . S
C565 C584 1.368 . S
C565 H589 0.949 . S
H566 C570 0.949 . S
C567 C568 1.349 . S
C567 C569 1.327 . S
C567 H590 0.950 . S
C568 C567 1.349 . S
C568 C580 1.349 . S
C569 C567 1.327 . S
C569 C585 1.429 . S
C569 H591 0.950 . S
C570 H566 0.949 . S
C570 C578 1.574 . S
C570 C586 1.368 . S
H571 C579 0.950 . S
H572 C577 0.950 . S
H573 C578 0.949 . S
H574 C580 0.950 . S
H575 C581 0.950 . S
H576 C582 0.949 . S
C577 H572 0.950 . S
C577 C579 1.327 . S
C577 C583 1.429 . S
C578 C570 1.574 . S
C578 H573 0.949 . S
C578 C584 1.368 . S
C579 C563 1.349 . S
C579 H571 0.950 . S
C579 C577 1.327 . S
C580 C568 1.349 . S
C580 H574 0.950 . S
C580 C581 1.327 . S
C581 H575 0.950 . S
C581 C580 1.327 . S
C581 C585 1.429 . S
C582 C565 1.574 . S
C582 H576 0.949 . S
C582 C586 1.368 . S
C583 C564 1.429 . S
C583 C577 1.429 . S
C583 C584 1.523 . S
C584 C565 1.368 . S
C584 C578 1.368 . S
C584 C583 1.523 . S
C585 C569 1.429 . S
C585 C581 1.429 . S
C585 C586 1.523 . S
C586 C570 1.368 . S
C586 C582 1.368 . S
C586 C585 1.523 . S
H587 C562 0.950 . S
H588 C564 0.950 . S
H589 C565 0.949 . S
H590 C567 0.950 . S
H591 C569 0.950 . S
C592 C593 1.349 . S
C592 C594 1.327 . S
C592 H617 0.950 . S
C593 C592 1.349 . S
C593 C609 1.349 . S
C594 C592 1.327 . S
C594 C613 1.429 . S
C594 H618 0.950 . S
C595 C612 1.574 . S
C595 C614 1.368 . S
C595 H619 0.949 . S
H596 C600 0.949 . S
C597 C598 1.349 . S
C597 C599 1.327 . S
C597 H620 0.950 . S
C598 C597 1.349 . S
C598 C610 1.349 . S
C599 C597 1.327 . S
C599 C615 1.429 . S
C599 H621 0.950 . S
C600 H596 0.949 . S
C600 C608 1.574 . S
C600 C616 1.368 . S
H601 C609 0.950 . S
H602 C607 0.950 . S
H603 C608 0.949 . S
H604 C610 0.950 1_545 S
H605 C611 0.950 1_545 S
H606 C612 0.949 . S
C607 H602 0.950 . S
C607 C609 1.327 . S
C607 C613 1.429 . S
C608 C600 1.574 . S
C608 H603 0.949 . S
C608 C614 1.368 . S
C609 C593 1.349 . S
C609 H601 0.950 . S
C609 C607 1.327 . S
C610 C598 1.349 . S
C610 H604 0.950 1_565 S
C610 C611 1.327 . S
C611 H605 0.950 1_565 S
C611 C610 1.327 . S
C611 C615 1.429 . S
C612 C595 1.574 . S
C612 H606 0.949 . S
C612 C616 1.368 . S
C613 C594 1.429 . S
C613 C607 1.429 . S
C613 C614 1.523 . S
C614 C595 1.368 . S
C614 C608 1.368 . S
C614 C613 1.523 . S
C615 C599 1.429 . S
C615 C611 1.429 . S
C615 C616 1.523 . S
C616 C600 1.368 . S
C616 C612 1.368 . S
C616 C615 1.523 . S
H617 C592 0.950 . S
H618 C594 0.950 . S
H619 C595 0.949 . S
H620 C597 0.950 . S
H621 C599 0.950 . S
C622 C623 1.349 . S
C622 C624 1.327 . S
C622 H647 0.950 . S
C623 C622 1.349 . S
C623 C639 1.349 . S
C624 C622 1.327 . S
C624 C643 1.429 . S
C624 H648 0.950 . S
C625 C642 1.574 . S
C625 C644 1.368 . S
C625 H649 0.949 . S
H626 C630 0.949 . S
C627 C628 1.349 . S
C627 C629 1.327 . S
C627 H650 0.950 . S
C628 C627 1.349 . S
C628 C640 1.349 . S
C629 C627 1.327 . S
C629 C645 1.429 . S
C629 H651 0.950 . S
C630 H626 0.949 . S
C630 C638 1.574 . S
C630 C646 1.368 . S
H631 C639 0.950 . S
H632 C637 0.950 . S
H633 C638 0.949 . S
H634 C640 0.950 . S
H635 C641 0.950 . S
H636 C642 0.949 . S
C637 H632 0.950 . S
C637 C639 1.327 . S
C637 C643 1.429 . S
C638 C630 1.574 . S
C638 H633 0.949 . S
C638 C644 1.368 . S
C639 C623 1.349 . S
C639 H631 0.950 . S
C639 C637 1.327 . S
C640 C628 1.349 . S
C640 H634 0.950 . S
C640 C641 1.327 . S
C641 H635 0.950 . S
C641 C640 1.327 . S
C641 C645 1.429 . S
C642 C625 1.574 . S
C642 H636 0.949 . S
C642 C646 1.368 . S
C643 C624 1.429 . S
C643 C637 1.429 . S
C643 C644 1.523 . S
C644 C625 1.368 . S
C644 C638 1.368 . S
C644 C643 1.523 . S
C645 C629 1.429 . S
C645 C641 1.429 . S
C645 C646 1.523 . S
C646 C630 1.368 . S
C646 C642 1.368 . S
C646 C645 1.523 . S
H647 C622 0.950 . S
H648 C624 0.950 . S
H649 C625 0.949 . S
H650 C627 0.950 . S
H651 C629 0.950 . S
C652 C653 1.349 . S
C652 C654 1.327 . S
C652 H677 0.950 . S
C653 C652 1.349 . S
C653 C669 1.349 . S
C654 C652 1.327 . S
C654 C673 1.429 . S
C654 H678 0.950 . S
C655 C672 1.574 . S
C655 C674 1.368 . S
C655 H679 0.949 . S
H656 C660 0.949 . S
C657 C658 1.349 . S
C657 C659 1.327 . S
C657 H680 0.950 . S
C658 C657 1.349 . S
C658 C670 1.349 . S
C659 C657 1.327 . S
C659 C675 1.429 . S
C659 H681 0.950 . S
C660 H656 0.949 . S
C660 C668 1.574 . S
C660 C676 1.368 . S
H661 C669 0.950 . S
H662 C667 0.950 . S
H663 C668 0.949 . S
H664 C670 0.950 . S
H665 C671 0.950 . S
H666 C672 0.949 . S
C667 H662 0.950 . S
C667 C669 1.327 . S
C667 C673 1.429 . S
C668 C660 1.574 . S
C668 H663 0.949 . S
C668 C674 1.368 . S
C669 C653 1.349 . S
C669 H661 0.950 . S
C669 C667 1.327 . S
C670 C658 1.349 . S
C670 H664 0.950 . S
C670 C671 1.327 . S
C671 H665 0.950 . S
C671 C670 1.327 . S
C671 C675 1.429 . S
C672 C655 1.574 . S
C672 H666 0.949 . S
C672 C676 1.368 . S
C673 C654 1.429 . S
C673 C667 1.429 . S
C673 C674 1.523 . S
C674 C655 1.368 . S
C674 C668 1.368 . S
C674 C673 1.523 . S
C675 C659 1.429 . S
C675 C671 1.429 . S
C675 C676 1.523 . S
C676 C660 1.368 . S
C676 C672 1.368 . S
C676 C675 1.523 . S
H677 C652 0.950 . S
H678 C654 0.950 . S
H679 C655 0.949 . S
H680 C657 0.950 . S
H681 C659 0.950 . S
C682 C683 1.349 . S
C682 C684 1.327 . S
C682 H707 0.950 . S
C683 C682 1.349 . S
C683 C699 1.349 . S
C684 C682 1.327 . S
C684 C703 1.429 . S
C684 H708 0.950 . S
C685 C702 1.574 . S
C685 C704 1.368 . S
C685 H709 0.949 . S
H686 C690 0.949 . S
C687 C688 1.349 . S
C687 C689 1.327 . S
C687 H710 0.950 . S
C688 C687 1.349 . S
C688 C700 1.349 . S
C689 C687 1.327 . S
C689 C705 1.429 . S
C689 H711 0.950 . S
C690 H686 0.949 . S
C690 C698 1.574 . S
C690 C706 1.368 . S
H691 C699 0.950 . S
H692 C697 0.950 . S
H693 C698 0.949 . S
H694 C700 0.950 . S
H695 C701 0.950 . S
H696 C702 0.949 . S
C697 H692 0.950 . S
C697 C699 1.327 . S
C697 C703 1.429 . S
C698 C690 1.574 . S
C698 H693 0.949 . S
C698 C704 1.368 . S
C699 C683 1.349 . S
C699 H691 0.950 . S
C699 C697 1.327 . S
C700 C688 1.349 . S
C700 H694 0.950 . S
C700 C701 1.327 . S
C701 H695 0.950 . S
C701 C700 1.327 . S
C701 C705 1.429 . S
C702 C685 1.574 . S
C702 H696 0.949 . S
C702 C706 1.368 . S
C703 C684 1.429 . S
C703 C697 1.429 . S
C703 C704 1.523 . S
C704 C685 1.368 . S
C704 C698 1.368 . S
C704 C703 1.523 . S
C705 C689 1.429 . S
C705 C701 1.429 . S
C705 C706 1.523 . S
C706 C690 1.368 . S
C706 C702 1.368 . S
C706 C705 1.523 . S
H707 C682 0.950 . S
H708 C684 0.950 . S
H709 C685 0.949 . S
H710 C687 0.950 . S
H711 C689 0.950 . S
C712 C713 1.349 . S
C712 C714 1.327 . S
C712 H737 0.950 . S
C713 C712 1.349 . S
C713 C729 1.349 . S
C714 C712 1.327 . S
C714 C733 1.429 . S
C714 H738 0.950 . S
C715 C732 1.574 . S
C715 C734 1.368 . S
C715 H739 0.949 . S
H716 C720 0.949 . S
C717 C718 1.343 1_545 S
C717 C719 1.322 1_545 S
C717 H740 0.978 . S
C718 C717 1.343 1_565 S
C718 C730 1.349 . S
C719 C717 1.322 1_565 S
C719 C735 1.429 . S
C719 H741 0.950 1_565 S
C720 H716 0.949 . S
C720 C728 1.574 . S
C720 C736 1.368 . S
H721 C729 0.950 . S
H722 C727 0.950 . S
H723 C728 0.949 . S
H724 C730 0.950 . S
H725 C731 0.950 . S
H726 C732 0.949 . S
C727 H722 0.950 . S
C727 C729 1.327 . S
C727 C733 1.429 . S
C728 C720 1.574 . S
C728 H723 0.949 . S
C728 C734 1.368 . S
C729 C713 1.349 . S
C729 H721 0.950 . S
C729 C727 1.327 . S
C730 C718 1.349 . S
C730 H724 0.950 . S
C730 C731 1.327 . S
C731 H725 0.950 . S
C731 C730 1.327 . S
C731 C735 1.429 . S
C732 C715 1.574 . S
C732 H726 0.949 . S
C732 C736 1.368 . S
C733 C714 1.429 . S
C733 C727 1.429 . S
C733 C734 1.523 . S
C734 C715 1.368 . S
C734 C728 1.368 . S
C734 C733 1.523 . S
C735 C719 1.429 . S
C735 C731 1.429 . S
C735 C736 1.523 . S
C736 C720 1.368 . S
C736 C732 1.368 . S
C736 C735 1.523 . S
H737 C712 0.950 . S
H738 C714 0.950 . S
H739 C715 0.949 . S
H740 C717 0.978 . S
H741 C719 0.950 1_545 S
C742 C743 1.349 . S
C742 C744 1.327 . S
C742 H767 0.950 . S
C743 C742 1.349 . S
C743 C759 1.349 . S
C744 C742 1.327 . S
C744 C763 1.429 . S
C744 H768 0.950 . S
C745 C762 1.574 . S
C745 C764 1.368 . S
C745 H769 0.949 . S
H746 C750 0.949 . S
C747 C748 1.349 . S
C747 C749 1.327 . S
C747 H770 0.950 . S
C748 C747 1.349 . S
C748 C760 1.349 . S
C749 C747 1.327 . S
C749 C765 1.429 . S
C749 H771 0.950 . S
C750 H746 0.949 . S
C750 C758 1.574 . S
C750 C766 1.368 . S
H751 C759 0.950 . S
H752 C757 0.950 . S
H753 C758 0.949 . S
H754 C760 0.950 . S
H755 C761 0.950 . S
H756 C762 0.949 . S
C757 H752 0.950 . S
C757 C759 1.327 . S
C757 C763 1.429 . S
C758 C750 1.574 . S
C758 H753 0.949 . S
C758 C764 1.368 . S
C759 C743 1.349 . S
C759 H751 0.950 . S
C759 C757 1.327 . S
C760 C748 1.349 . S
C760 H754 0.950 . S
C760 C761 1.327 . S
C761 H755 0.950 . S
C761 C760 1.327 . S
C761 C765 1.429 . S
C762 C745 1.574 . S
C762 H756 0.949 . S
C762 C766 1.368 . S
C763 C744 1.429 . S
C763 C757 1.429 . S
C763 C764 1.523 . S
C764 C745 1.368 . S
C764 C758 1.368 . S
C764 C763 1.523 . S
C765 C749 1.429 . S
C765 C761 1.429 . S
C765 C766 1.523 . S
C766 C750 1.368 . S
C766 C762 1.368 . S
C766 C765 1.523 . S
H767 C742 0.950 . S
H768 C744 0.950 . S
H769 C745 0.949 . S
H770 C747 0.950 . S
H771 C749 0.950 . S
C772 C773 1.349 . S
C772 C774 1.327 . S
C772 H797 0.950 . S
C773 C772 1.349 . S
C773 C789 1.349 . S
C774 C772 1.327 . S
C774 C793 1.429 . S
C774 H798 0.950 . S
C775 C792 1.574 . S
C775 C794 1.368 . S
C775 H799 0.949 . S
H776 C780 0.949 . S
C777 C778 1.349 . S
C777 C779 1.327 . S
C777 H800 0.950 . S
C778 C777 1.349 . S
C778 C790 1.349 . S
C779 C777 1.327 . S
C779 C795 1.429 . S
C779 H801 0.950 . S
C780 H776 0.949 . S
C780 C788 1.574 . S
C780 C796 1.368 . S
H781 C789 0.950 . S
H782 C787 0.950 . S
H783 C788 0.949 . S
H784 C790 0.950 . S
H785 C791 0.950 . S
H786 C792 0.949 . S
C787 H782 0.950 . S
C787 C789 1.327 . S
C787 C793 1.429 . S
C788 C780 1.574 . S
C788 H783 0.949 . S
C788 C794 1.368 . S
C789 C773 1.349 . S
C789 H781 0.950 . S
C789 C787 1.327 . S
C790 C778 1.349 . S
C790 H784 0.950 . S
C790 C791 1.327 . S
C791 H785 0.950 . S
C791 C790 1.327 . S
C791 C795 1.429 . S
C792 C775 1.574 . S
C792 H786 0.949 . S
C792 C796 1.368 . S
C793 C774 1.429 . S
C793 C787 1.429 . S
C793 C794 1.523 . S
C794 C775 1.368 . S
C794 C788 1.368 . S
C794 C793 1.523 . S
C795 C779 1.429 . S
C795 C791 1.429 . S
C795 C796 1.523 . S
C796 C780 1.368 . S
C796 C792 1.368 . S
C796 C795 1.523 . S
H797 C772 0.950 . S
H798 C774 0.950 . S
H799 C775 0.949 . S
H800 C777 0.950 . S
H801 C779 0.950 . S
C802 C803 1.349 . S
C802 C804 1.327 . S
C802 H827 0.950 . S
C803 C802 1.349 . S
C803 C819 1.349 . S
C804 C802 1.327 . S
C804 C823 1.429 . S
C804 H828 0.950 . S
C805 C822 1.574 . S
C805 C824 1.368 . S
C805 H829 0.949 . S
H806 C810 0.949 . S
C807 C808 1.349 . S
C807 C809 1.327 . S
C807 H830 0.950 . S
C808 C807 1.349 . S
C808 C820 1.349 . S
C809 C807 1.327 . S
C809 C825 1.429 . S
C809 H831 0.950 . S
C810 H806 0.949 . S
C810 C818 1.574 . S
C810 C826 1.368 . S
H811 C819 0.950 . S
H812 C817 0.950 . S
H813 C818 0.949 . S
H814 C820 0.950 . S
H815 C821 0.950 . S
H816 C822 0.949 . S
C817 H812 0.950 . S
C817 C819 1.327 . S
C817 C823 1.429 . S
C818 C810 1.574 . S
C818 H813 0.949 . S
C818 C824 1.368 . S
C819 C803 1.349 . S
C819 H811 0.950 . S
C819 C817 1.327 . S
C820 C808 1.349 . S
C820 H814 0.950 . S
C820 C821 1.327 . S
C821 H815 0.950 . S
C821 C820 1.327 . S
C821 C825 1.429 . S
C822 C805 1.574 . S
C822 H816 0.949 . S
C822 C826 1.368 . S
C823 C804 1.429 . S
C823 C817 1.429 . S
C823 C824 1.523 . S
C824 C805 1.368 . S
C824 C818 1.368 . S
C824 C823 1.523 . S
C825 C809 1.429 . S
C825 C821 1.429 . S
C825 C826 1.523 . S
C826 C810 1.368 . S
C826 C822 1.368 . S
C826 C825 1.523 . S
H827 C802 0.950 . S
H828 C804 0.950 . S
H829 C805 0.949 . S
H830 C807 0.950 . S
H831 C809 0.950 . S
C832 C833 1.349 . S
C832 C834 1.327 . S
C832 H857 0.950 . S
C833 C832 1.349 . S
C833 C849 1.349 . S
C834 C832 1.327 . S
C834 C853 1.429 . S
C834 H858 0.950 . S
C835 C852 1.574 . S
C835 C854 1.368 . S
C835 H859 0.949 . S
H836 C840 0.949 . S
C837 C838 1.349 . S
C837 C839 1.327 . S
C837 H860 0.950 1_556 S
C838 C837 1.349 . S
C838 C850 1.351 . S
C839 C837 1.327 . S
C839 C855 1.429 . S
C839 H861 0.961 . S
C840 H836 0.949 . S
C840 C848 1.574 . S
C840 C856 1.368 . S
H841 C849 0.950 . S
H842 C847 0.950 . S
H843 C848 0.949 . S
H844 C850 0.946 1_455 S
H845 C851 0.950 1_455 S
H846 C852 0.949 . S
C847 H842 0.950 . S
C847 C849 1.327 . S
C847 C853 1.429 . S
C848 C840 1.574 . S
C848 H843 0.949 . S
C848 C854 1.368 . S
C849 C833 1.349 . S
C849 H841 0.950 . S
C849 C847 1.327 . S
C850 C838 1.351 . S
C850 H844 0.946 1_655 S
C850 C851 1.329 . S
C851 H845 0.950 1_655 S
C851 C850 1.329 . S
C851 C855 1.429 . S
C852 C835 1.574 . S
C852 H846 0.949 . S
C852 C856 1.368 . S
C853 C834 1.429 . S
C853 C847 1.429 . S
C853 C854 1.523 . S
C854 C835 1.368 . S
C854 C848 1.368 . S
C854 C853 1.523 . S
C855 C839 1.429 . S
C855 C851 1.429 . S
C855 C856 1.523 . S
C856 C840 1.368 . S
C856 C852 1.368 . S
C856 C855 1.523 . S
H857 C832 0.950 . S
H858 C834 0.950 . S
H859 C835 0.949 . S
H860 C837 0.950 1_554 S
H861 C839 0.961 . S
C862 C863 1.349 . S
C862 C864 1.327 . S
C862 H887 0.950 . S
C863 C862 1.349 . S
C863 C879 1.349 . S
C864 C862 1.327 . S
C864 C883 1.429 . S
C864 H888 0.950 . S
C865 C882 1.574 . S
C865 C884 1.368 . S
C865 H889 0.949 . S
H866 C870 0.949 . S
C867 C868 1.349 . S
C867 C869 1.327 . S
C867 H890 0.950 . S
C868 C867 1.349 . S
C868 C880 1.349 . S
C869 C867 1.327 . S
C869 C885 1.429 . S
C869 H891 0.950 . S
C870 H866 0.949 . S
C870 C878 1.574 . S
C870 C886 1.368 . S
H871 C879 0.950 . S
H872 C877 0.950 . S
H873 C878 0.949 . S
H874 C880 0.950 . S
H875 C881 0.950 . S
H876 C882 0.949 . S
C877 H872 0.950 . S
C877 C879 1.327 . S
C877 C883 1.429 . S
C878 C870 1.574 . S
C878 H873 0.949 . S
C878 C884 1.368 . S
C879 C863 1.349 . S
C879 H871 0.950 . S
C879 C877 1.327 . S
C880 C868 1.349 . S
C880 H874 0.950 . S
C880 C881 1.327 . S
C881 H875 0.950 . S
C881 C880 1.327 . S
C881 C885 1.429 . S
C882 C865 1.574 . S
C882 H876 0.949 . S
C882 C886 1.368 . S
C883 C864 1.429 . S
C883 C877 1.429 . S
C883 C884 1.523 . S
C884 C865 1.368 . S
C884 C878 1.368 . S
C884 C883 1.523 . S
C885 C869 1.429 . S
C885 C881 1.429 . S
C885 C886 1.523 . S
C886 C870 1.368 . S
C886 C882 1.368 . S
C886 C885 1.523 . S
H887 C862 0.950 . S
H888 C864 0.950 . S
H889 C865 0.949 . S
H890 C867 0.950 . S
H891 C869 0.950 . S
C892 C893 1.349 . S
C892 C894 1.327 . S
C892 H917 0.950 . S
C893 C892 1.349 . S
C893 C909 1.349 . S
C894 C892 1.327 . S
C894 C913 1.429 . S
C894 H918 0.950 . S
C895 C912 1.574 . S
C895 C914 1.368 . S
C895 H919 0.949 . S
H896 C900 0.949 . S
C897 C898 1.349 . S
C897 C899 1.327 . S
C897 H920 0.950 . S
C898 C897 1.349 . S
C898 C910 1.349 . S
C899 C897 1.327 . S
C899 C915 1.429 . S
C899 H921 0.950 . S
C900 H896 0.949 . S
C900 C908 1.574 . S
C900 C916 1.368 . S
H901 C909 0.950 . S
H902 C907 0.950 . S
H903 C908 0.949 . S
H904 C910 0.950 . S
H905 C911 0.950 . S
H906 C912 0.949 . S
C907 H902 0.950 . S
C907 C909 1.327 . S
C907 C913 1.429 . S
C908 C900 1.574 . S
C908 H903 0.949 . S
C908 C914 1.368 . S
C909 C893 1.349 . S
C909 H901 0.950 . S
C909 C907 1.327 . S
C910 C898 1.349 . S
C910 H904 0.950 . S
C910 C911 1.327 . S
C911 H905 0.950 . S
C911 C910 1.327 . S
C911 C915 1.429 . S
C912 C895 1.574 . S
C912 H906 0.949 . S
C912 C916 1.368 . S
C913 C894 1.429 . S
C913 C907 1.429 . S
C913 C914 1.523 . S
C914 C895 1.368 . S
C914 C908 1.368 . S
C914 C913 1.523 . S
C915 C899 1.429 . S
C915 C911 1.429 . S
C915 C916 1.523 . S
C916 C900 1.368 . S
C916 C912 1.368 . S
C916 C915 1.523 . S
H917 C892 0.950 . S
H918 C894 0.950 . S
H919 C895 0.949 . S
H920 C897 0.950 . S
H921 C899 0.950 . S
C922 C923 1.349 . S
C922 C924 1.327 . S
C922 H947 0.950 . S
C923 C922 1.349 . S
C923 C939 1.349 . S
C924 C922 1.327 . S
C924 C943 1.429 . S
C924 H948 0.950 . S
C925 C942 1.574 . S
C925 C944 1.368 . S
C925 H949 0.949 . S
H926 C930 0.949 . S
C927 C928 1.349 . S
C927 C929 1.327 . S
C927 H950 0.950 . S
C928 C927 1.349 . S
C928 C940 1.349 . S
C929 C927 1.327 . S
C929 C945 1.429 . S
C929 H951 0.950 . S
C930 H926 0.949 . S
C930 C938 1.574 . S
C930 C946 1.368 . S
H931 C939 0.950 . S
H932 C937 0.950 . S
H933 C938 0.949 . S
H934 C940 0.950 . S
H935 C941 0.950 . S
H936 C942 0.949 . S
C937 H932 0.950 . S
C937 C939 1.327 . S
C937 C943 1.429 . S
C938 C930 1.574 . S
C938 H933 0.949 . S
C938 C944 1.368 . S
C939 C923 1.349 . S
C939 H931 0.950 . S
C939 C937 1.327 . S
C940 C928 1.349 . S
C940 H934 0.950 . S
C940 C941 1.327 . S
C941 H935 0.950 . S
C941 C940 1.327 . S
C941 C945 1.429 . S
C942 C925 1.574 . S
C942 H936 0.949 . S
C942 C946 1.368 . S
C943 C924 1.429 . S
C943 C937 1.429 . S
C943 C944 1.523 . S
C944 C925 1.368 . S
C944 C938 1.368 . S
C944 C943 1.523 . S
C945 C929 1.429 . S
C945 C941 1.429 . S
C945 C946 1.523 . S
C946 C930 1.368 . S
C946 C942 1.368 . S
C946 C945 1.523 . S
H947 C922 0.950 . S
H948 C924 0.950 . S
H949 C925 0.949 . S
H950 C927 0.950 . S
H951 C929 0.950 . S
C233 C6 2.519 . S
C238 C96 2.523 . S
C263 C18 2.608 . S
C268 C138 2.629 1_565 S
C298 C168 0.920 . S
C293 C28 0.911 . S
C323 C40 0.523 . S
C328 C202 0.497 . S
C358 C159 2.172 . S
C353 C9 2.164 . S
C388 C113 1.872 . S
C383 C16 1.860 . S
C418 C206 1.274 . S
C413 C30 1.268 . S
C448 C172 0.926 . S
C443 C42 0.923 . S
C473 C4 2.138 . S
C478 C227 2.162 . S
C508 C134 1.133 . S
C503 C33 1.131 . S
C533 C45 0.871 . S
C538 C109 0.873 . S
C563 C21 2.439 . S
C568 C193 2.455 . S
C598 C125 2.584 . S
C593 C57 2.574 . S
C623 C66 2.604 . S
C628 C147 2.609 . S
C653 C76 0.949 . S
C658 C177 0.954 . S
C683 C88 0.458 . S
C688 C211 0.437 . S
C713 C54 2.134 . S
C718 C130 2.140 . S
C748 C104 1.913 . S
C743 C64 1.892 . S
C778 C215 1.127 . S
C773 C78 1.109 . S
C808 C181 0.950 . S
C803 C93 0.945 . S
C833 C52 2.093 . S
C838 C198 2.117 . S
C868 C143 1.129 . S
C863 C81 1.121 . S
C898 C100 0.868 . S
C893 C90 0.865 . S
C923 C69 2.480 . S
C928 C164 2.487 . S
