# Generated by pormake.
# Topology pyr, (3,6)-cn, num edge types: 1
# Building blocks:
#     Node 0, Type 0, BuildingBlock: BETDIP_clean_linker_0, # of connection points: 3
#     Node 1, Type 0, BuildingBlock: BETDIP_clean_linker_0, # of connection points: 3
#     Node 2, Type 0, BuildingBlock: BETDIP_clean_linker_0, # of connection points: 3
#     Node 3, Type 0, BuildingBlock: BETDIP_clean_linker_0, # of connection points: 3
#     Node 4, Type 0, BuildingBlock: BETDIP_clean_linker_0, # of connection points: 3
#     Node 5, Type 0, BuildingBlock: BETDIP_clean_linker_0, # of connection points: 3
#     Node 6, Type 0, BuildingBlock: BETDIP_clean_linker_0, # of connection points: 3
#     Node 7, Type 0, BuildingBlock: BETDIP_clean_linker_0, # of connection points: 3
#     Node 8, Type 1, BuildingBlock: FUNLAD_clean_sbu_0, # of connection points: 6
#     Node 9, Type 1, BuildingBlock: FUNLAD_clean_sbu_0, # of connection points: 6
#     Node 10, Type 1, BuildingBlock: FUNLAD_clean_sbu_0, # of connection points: 6
#     Node 11, Type 1, BuildingBlock: FUNLAD_clean_sbu_0, # of connection points: 6
#     Edge 12, Type (0, 1), BuildingBlock: OJICUG_clean_linker_0, # of connection points: 2
#     Edge 13, Type (0, 1), BuildingBlock: OJICUG_clean_linker_0, # of connection points: 2
#     Edge 14, Type (0, 1), BuildingBlock: OJICUG_clean_linker_0, # of connection points: 2
#     Edge 15, Type (0, 1), BuildingBlock: OJICUG_clean_linker_0, # of connection points: 2
#     Edge 16, Type (0, 1), BuildingBlock: OJICUG_clean_linker_0, # of connection points: 2
#     Edge 17, Type (0, 1), BuildingBlock: OJICUG_clean_linker_0, # of connection points: 2
#     Edge 18, Type (0, 1), BuildingBlock: OJICUG_clean_linker_0, # of connection points: 2
#     Edge 19, Type (0, 1), BuildingBlock: OJICUG_clean_linker_0, # of connection points: 2
#     Edge 20, Type (0, 1), BuildingBlock: OJICUG_clean_linker_0, # of connection points: 2
#     Edge 21, Type (0, 1), BuildingBlock: OJICUG_clean_linker_0, # of connection points: 2
#     Edge 22, Type (0, 1), BuildingBlock: OJICUG_clean_linker_0, # of connection points: 2
#     Edge 23, Type (0, 1), BuildingBlock: OJICUG_clean_linker_0, # of connection points: 2
#     Edge 24, Type (0, 1), BuildingBlock: OJICUG_clean_linker_0, # of connection points: 2
#     Edge 25, Type (0, 1), BuildingBlock: OJICUG_clean_linker_0, # of connection points: 2
#     Edge 26, Type (0, 1), BuildingBlock: OJICUG_clean_linker_0, # of connection points: 2
#     Edge 27, Type (0, 1), BuildingBlock: OJICUG_clean_linker_0, # of connection points: 2
#     Edge 28, Type (0, 1), BuildingBlock: OJICUG_clean_linker_0, # of connection points: 2
#     Edge 29, Type (0, 1), BuildingBlock: OJICUG_clean_linker_0, # of connection points: 2
#     Edge 30, Type (0, 1), BuildingBlock: OJICUG_clean_linker_0, # of connection points: 2
#     Edge 31, Type (0, 1), BuildingBlock: OJICUG_clean_linker_0, # of connection points: 2
#     Edge 32, Type (0, 1), BuildingBlock: OJICUG_clean_linker_0, # of connection points: 2
#     Edge 33, Type (0, 1), BuildingBlock: OJICUG_clean_linker_0, # of connection points: 2
#     Edge 34, Type (0, 1), BuildingBlock: OJICUG_clean_linker_0, # of connection points: 2
#     Edge 35, Type (0, 1), BuildingBlock: OJICUG_clean_linker_0, # of connection points: 2
# Relax obj value: 0.284
# Max RMSD: 0.206
# Mean RMSD: 0.138
data_MOF--net-pry--node1-FUNLAD_clean_sbu_0--node2-BETDIP_clean_linker_0--edge1-OJICUG_clean_linker_0
_symmetry_space_group_name_H-M    P1
_symmetry_Int_Tables_number       1
_symmetry_cell_setting            triclinic
loop_
_symmetry_equiv_pos_as_xyz
'x, y, z'
_cell_length_a     25.322982
_cell_length_b     26.761155
_cell_length_c     26.898374
_cell_angle_alpha  95.458553
_cell_angle_beta   83.954355
_cell_angle_gamma 86.579214
loop_
_atom_site_label
_atom_site_type_symbol
_atom_site_fract_x
_atom_site_fract_y
_atom_site_fract_z
_atom_type_partial_charge
H0 H 0.05591 0.20452 0.31066 0.0
H1 H 0.17238 0.20274 0.18231 0.0
H2 H 0.19649 0.10276 0.29534 0.0
H3 H 0.09478 0.2218 0.14577 0.0
C4 C 0.07942 0.25294 0.17342 0.0
C5 C 0.09328 0.18926 0.28986 0.0
C6 C 0.12358 0.15042 0.30827 0.0
C7 C 0.11001 0.20743 0.24381 0.0
C8 C 0.15881 0.18809 0.2172 0.0
C9 C 0.19076 0.15066 0.23539 0.0
C10 C 0.17221 0.13134 0.28058 0.0
N11 N 0.07854 0.24641 0.22558 0.0
H12 H 0.35816 0.97257 0.79915 0.0
H13 H 0.37549 0.855 0.67783 0.0
H14 H 0.47794 0.84984 0.79522 0.0
H15 H 0.29018 0.87309 0.67662 0.0
C16 C 0.28438 0.91364 0.68507 0.0
C17 C 0.37891 0.938 0.78086 0.0
C18 C 0.42108 0.91493 0.80258 0.0
C19 C 0.36127 0.91599 0.73693 0.0
C20 C 0.38785 0.87139 0.71265 0.0
C21 C 0.42983 0.84684 0.73304 0.0
C22 C 0.44577 0.86842 0.77886 0.0
N23 N 0.31641 0.93931 0.7182 0.0
H24 H 0.66144 0.5916 1.04077 0.0
H25 H 0.53453 0.49307 1.0266 0.0
H26 H 0.69266 0.43151 1.0389 0.0
H27 H 0.47622 0.61095 1.02411 0.0
C28 C 0.51149 0.58853 1.00634 0.0
C29 C 0.64778 0.55391 1.0382 0.0
C30 C 0.68386 0.51221 1.03959 0.0
C31 C 0.59432 0.54714 1.0319 0.0
C32 C 0.57628 0.4984 1.02906 0.0
C33 C 0.6114 0.4567 1.0323 0.0
C34 C 0.66528 0.46377 1.03671 0.0
N35 N 0.55873 0.58994 1.03057 0.0
H36 H 0.86603 0.50071 0.55587 0.0
H37 H 0.99023 0.59866 0.52132 0.0
H38 H 0.82837 0.65975 0.55754 0.0
H39 H 0.0465 0.47716 0.4869 0.0
C40 C 0.00952 0.49892 0.4842 0.0
C41 C 0.87864 0.5384 0.55288 0.0
C42 C 0.8407 0.5796 0.55845 0.0
C43 C 0.93237 0.54516 0.53848 0.0
C44 C 0.94871 0.59369 0.53269 0.0
C45 C 0.91141 0.63525 0.53899 0.0
C46 C 0.85759 0.62786 0.55236 0.0
N47 N 0.96892 0.50244 0.52557 0.0
H48 H 0.82994 0.9004 1.00138 0.0
H49 H 0.95075 0.8927 0.87585 0.0
H50 H 0.8097 0.99265 0.88127 0.0
H51 H 0.97649 0.81722 0.90575 0.0
C52 C 0.96046 0.8178 0.94487 0.0
C53 C 0.84401 0.91269 0.96537 0.0
C54 C 0.81293 0.94815 0.94394 0.0
C55 C 0.89281 0.89172 0.94119 0.0
C56 C 0.91248 0.90791 0.89462 0.0
C57 C 0.88319 0.94569 0.87328 0.0
C58 C 0.83332 0.96523 0.89827 0.0
N59 N 0.91986 0.85489 0.96615 0.0
H60 H 0.65166 0.1222 0.37358 0.0
H61 H 0.63625 0.24099 0.49389 0.0
H62 H 0.53396 0.24651 0.37657 0.0
H63 H 0.72133 0.22164 0.4952 0.0
C64 C 0.72613 0.18095 0.48779 0.0
C65 C 0.63159 0.1572 0.39157 0.0
C66 C 0.58983 0.1808 0.36963 0.0
C67 C 0.64958 0.17925 0.43541 0.0
C68 C 0.62374 0.22446 0.45919 0.0
C69 C 0.58224 0.24938 0.43844 0.0
C70 C 0.56593 0.22766 0.39297 0.0
N71 N 0.69389 0.15541 0.45469 0.0
H72 H 0.36484 0.49894 0.11562 0.0
H73 H 0.48523 0.60301 0.13893 0.0
H74 H 0.32772 0.65798 0.11603 0.0
H75 H 0.54795 0.4877 0.14217 0.0
C76 C 0.51133 0.50858 0.15899 0.0
C77 C 0.37677 0.53723 0.11908 0.0
C78 C 0.33974 0.57753 0.11528 0.0
C79 C 0.42877 0.54627 0.12923 0.0
C80 C 0.44448 0.59588 0.13343 0.0
C81 C 0.40844 0.63621 0.12792 0.0
C82 C 0.35598 0.6268 0.11963 0.0
N83 N 0.46533 0.50484 0.13312 0.0
H84 H 0.0215 0.49168 0.63005 0.0
H85 H 0.146 0.58885 0.59511 0.0
H86 H 0.1846 0.43176 0.60576 0.0
H87 H 0.967 0.61493 0.664 0.0
C88 C 0.00427 0.59332 0.66588 0.0
C89 C 0.06332 0.49641 0.61989 0.0
C90 C 0.1009 0.4555 0.61831 0.0
C91 C 0.07958 0.54449 0.61189 0.0
C92 C 0.13362 0.55131 0.59954 0.0
C93 C 0.17188 0.51092 0.5987 0.0
C94 C 0.1551 0.46307 0.6072 0.0
N95 N 0.04266 0.58714 0.62262 0.0
C96 C 0.04849 0.073 0.49707 0.0
N97 N 0.02494 0.15426 0.63894 0.0
C98 C 0.07553 0.16794 0.62866 0.0
C99 C 0.0868 0.21818 0.63588 0.0
C100 C 0.04545 0.25494 0.6528 0.0
C101 C 0.99414 0.23977 0.66585 0.0
C102 C 0.98477 0.18873 0.65901 0.0
Zn103 Zn 0.00956 0.08388 0.61008 0.0
C104 C 0.90605 0.08528 0.5661 0.0
N105 N 0.98218 0.94005 0.54027 0.0
C106 C 0.02246 0.90716 0.51729 0.0
C107 C 0.93225 0.92507 0.55119 0.0
C108 C 0.9218 0.87488 0.54118 0.0
C109 C 0.96334 0.83957 0.52062 0.0
C110 C 0.01395 0.85622 0.50747 0.0
Zn111 Zn 0.99689 1.01009 0.56979 0.0
O112 O 0.04453 0.10187 0.53791 0.0
C113 C 0.10034 1.00858 0.61323 0.0
O114 O 0.03229 1.0289 0.49811 0.0
H115 H 0.90107 0.95143 0.57047 0.0
H116 H 0.10668 0.14048 0.61139 0.0
H117 H 0.06188 0.91984 0.50902 0.0
O118 O 0.08439 0.05398 0.62792 0.0
O119 O 0.07162 0.98175 0.58715 0.0
H120 H 0.9448 0.17718 0.66677 0.0
O121 O 0.96256 0.99173 0.64243 0.0
O122 O 0.9739 0.06529 0.68168 0.0
O123 O 0.92173 0.03964 0.55221 0.0
O124 O 0.93486 0.11233 0.59194 0.0
C125 C 0.95852 1.02089 0.68314 0.0
H126 H 0.12672 0.22851 0.62468 0.0
H127 H 0.96133 0.26723 0.67916 0.0
H128 H 0.88243 0.86331 0.55251 0.0
H129 H 0.04685 0.8299 0.4914 0.0
C130 C 0.60417 1.01588 1.04747 0.0
N131 N 0.51993 0.15591 1.04988 0.0
C132 C 0.56915 0.17037 1.05811 0.0
C133 C 0.5828 0.21897 1.0518 0.0
C134 C 0.54515 0.25421 1.03824 0.0
C135 C 0.49511 0.23819 1.02801 0.0
C136 C 0.48321 0.1884 1.03416 0.0
Zn137 Zn 0.5043 0.08628 1.07147 0.0
C138 C 0.46976 1.01368 0.99421 0.0
N139 N 0.48329 0.94297 0.12442 0.0
C140 C 0.52116 0.91134 0.13964 0.0
C141 C 0.43466 0.92713 0.11595 0.0
C142 C 0.42316 0.87763 0.12073 0.0
C143 C 0.46233 0.84326 0.13327 0.0
C144 C 0.5114 0.86087 0.14441 0.0
Zn145 Zn 0.49795 1.01261 0.10284 0.0
O146 O 0.58337 0.05898 1.04176 0.0
C147 C 0.53338 0.0847 0.17984 0.0
O148 O 0.57733 0.98691 1.07344 0.0
H149 H 0.40533 0.95216 0.10282 0.0
H150 H 0.59758 0.14489 1.07186 0.0
H151 H 0.55974 0.92452 0.14573 0.0
O152 O 0.52943 0.11099 0.14323 0.0
O153 O 0.52348 0.03846 0.17423 0.0
H154 H 0.44408 0.17641 1.02838 0.0
O155 O 0.41851 0.03973 0.1322 0.0
O156 O 0.42481 0.11225 0.10127 0.0
O157 O 0.47346 0.9876 1.031 0.0
O158 O 0.47881 0.06018 0.99992 0.0
C159 C 0.3978 0.08304 0.12687 0.0
H160 H 0.62225 0.22918 1.05899 0.0
H161 H 0.46483 0.26426 1.01757 0.0
H162 H 0.3844 0.86598 0.11283 0.0
H163 H 0.54272 0.83548 0.15414 0.0
C164 C 0.52191 0.44841 0.54257 0.0
N165 N 0.502 0.51641 0.69417 0.0
C166 C 0.46025 0.5401 0.72528 0.0
C167 C 0.45941 0.54151 0.77722 0.0
C168 C 0.50205 0.51848 0.79797 0.0
C169 C 0.54312 0.49145 0.76503 0.0
C170 C 0.54235 0.49096 0.71293 0.0
Zn171 Zn 0.50683 0.53346 0.62089 0.0
C172 C 0.61418 0.55618 0.58103 0.0
N173 N 0.50953 0.58073 0.47295 0.0
C174 C 0.46914 0.60523 0.45329 0.0
C175 C 0.55205 0.55749 0.44252 0.0
C176 C 0.55399 0.55595 0.3905 0.0
C177 C 0.51164 0.57827 0.3688 0.0
C178 C 0.46942 0.60447 0.401 0.0
Zn179 Zn 0.50436 0.564 0.54657 0.0
O180 O 0.51936 0.45613 0.59032 0.0
C181 C 0.39708 0.54087 0.58582 0.0
O182 O 0.51713 0.486 0.51737 0.0
H183 H 0.58309 0.5368 0.45826 0.0
H184 H 0.42914 0.56126 0.71008 0.0
H185 H 0.43532 0.62298 0.47792 0.0
O186 O 0.4234 0.528 0.62084 0.0
O187 O 0.42115 0.55836 0.54811 0.0
H188 H 0.57546 0.47272 0.68769 0.0
O189 O 0.49145 0.64171 0.57765 0.0
O190 O 0.49454 0.61123 0.65022 0.0
O191 O 0.58728 0.56966 0.5467 0.0
O192 O 0.59058 0.53855 0.61891 0.0
C193 C 0.48946 0.64907 0.62544 0.0
H194 H 0.42736 0.56366 0.8007 0.0
H195 H 0.57656 0.47265 0.77931 0.0
H196 H 0.58683 0.53432 0.36763 0.0
H197 H 0.43605 0.62259 0.38599 0.0
C198 C 0.00217 0.64 1.04675 0.0
N199 N 0.98469 0.57789 0.18815 0.0
C200 C 0.01651 0.60654 0.21514 0.0
C201 C 0.01642 0.60334 0.26688 0.0
C202 C 0.98317 0.57048 0.29091 0.0
C203 C 0.94768 0.54486 0.26274 0.0
C204 C 0.94919 0.549 0.2114 0.0
Zn205 Zn 0.00178 0.55985 0.11173 0.0
C206 C 0.90655 0.53243 1.0627 0.0
N207 N 0.04213 0.50626 0.95718 0.0
C208 C 0.07737 0.53539 0.93396 0.0
C209 C 0.00933 0.4786 0.93041 0.0
C210 C 0.00761 0.48365 0.87922 0.0
C211 C 0.03988 0.5175 0.85557 0.0
C212 C 0.07685 0.54162 0.8832 0.0
Zn213 Zn 0.02521 0.52404 1.0335 0.0
O214 O 0.99171 0.63667 0.09373 0.0
C215 C 0.12014 0.55188 0.08323 0.0
O216 O 0.01642 0.6002 1.01771 0.0
H217 H 0.98131 0.45589 0.94946 0.0
H218 H 0.04488 0.62892 0.19611 0.0
H219 H 0.10217 0.55822 0.95578 0.0
O220 O 0.08355 0.56798 0.11804 0.0
O221 O 0.10757 0.53095 1.04209 0.0
H222 H 0.92534 0.5252 0.1895 0.0
O223 O 0.034 0.44824 1.05025 0.0
O224 O 0.01274 0.48251 0.12771 0.0
O225 O 0.94244 0.51703 1.02696 0.0
O226 O 0.92011 0.5521 0.10386 0.0
C227 C 0.02628 0.44348 0.09708 0.0
H228 H 0.04394 0.62439 0.28727 0.0
H229 H 0.9219 0.51848 0.27913 0.0
H230 H 0.97923 0.46343 0.85918 0.0
H231 H 0.10211 0.56859 0.86719 0.0
C232 C 0.08778 0.16309 0.40009 0.0
C233 C 0.10494 0.13025 0.35669 0.0
H234 H 0.05771 0.1709 0.47816 0.0
C235 C 0.10426 0.07805 0.35999 0.0
H236 H 0.08819 0.20343 0.399 0.0
C237 C 0.08599 0.05925 0.40533 0.0
C238 C 0.06907 0.09217 0.44881 0.0
H239 H 0.11702 0.05173 0.3272 0.0
H240 H 0.08534 1.01893 0.40636 0.0
C241 C 0.07061 0.14433 0.44558 0.0
C242 C 0.44524 0.91176 0.89127 0.0
C243 C 0.43711 0.93961 0.85067 0.0
H244 H 0.46081 0.9131 0.96817 0.0
C245 C 0.44053 0.99223 0.85759 0.0
H246 H 0.44236 0.87138 0.88763 0.0
C247 C 0.45097 1.01636 0.90388 0.0
C248 C 0.45794 0.98864 0.94482 0.0
H249 H 0.43496 1.01494 0.82705 0.0
H250 H 0.45325 0.0568 0.90762 0.0
C251 C 0.45525 0.93592 0.93771 0.0
C252 C 0.46232 0.55138 0.93794 0.0
C253 C 0.51086 0.56407 0.95459 0.0
H254 H 0.42164 0.52456 0.87598 0.0
C255 C 0.55742 0.55657 0.92064 0.0
H256 H 0.42595 0.55657 0.96353 0.0
C257 C 0.55502 0.53886 0.87037 0.0
C258 C 0.50601 0.5282 0.85294 0.0
H259 H 0.59538 0.56681 0.9321 0.0
H260 H 0.59118 0.53638 0.84464 0.0
C261 C 0.45994 0.53319 0.88779 0.0
C262 C 0.0463 0.53257 0.40511 0.0
C263 C 0.00185 0.5209 0.43646 0.0
H264 H 0.07542 0.55787 0.33485 0.0
C265 C 0.95094 0.52849 0.42092 0.0
H266 H 0.086 0.52665 0.41602 0.0
C267 C 0.94466 0.54742 0.37509 0.0
C268 C 0.98919 0.55808 0.343 0.0
H269 H 0.91585 0.51842 0.44323 0.0
H270 H 0.90486 0.55245 0.36422 0.0
C271 C 0.0401 0.55109 0.35894 0.0
C272 C 0.27602 0.16704 0.18378 0.0
C273 C 0.24381 0.13293 0.20731 0.0
H274 H 0.34907 0.17817 0.13962 0.0
C275 C 0.26257 0.08199 0.20318 0.0
H276 H 0.26363 0.20674 0.18689 0.0
C277 C 0.31211 0.06573 0.17645 0.0
C278 C 0.34407 0.0999 0.15288 0.0
H279 H 0.23876 0.05449 0.22015 0.0
H280 H 0.32537 1.02627 0.1743 0.0
C281 C 0.32526 0.15071 0.1567 0.0
C282 C 0.20919 0.9119 0.63299 0.0
C283 C 0.23933 0.93972 0.6651 0.0
H284 H 0.14213 0.91183 0.59104 0.0
C285 C 0.22525 0.99122 0.67815 0.0
H286 H 0.2194 0.87216 0.62223 0.0
C287 C 0.18081 1.01414 0.66028 0.0
C288 C 0.14986 0.98592 0.629 0.0
H289 H 0.24792 1.01363 0.70275 0.0
H290 H 0.17017 0.05368 0.6717 0.0
C291 C 0.165 0.9347 0.61506 0.0
C292 C 0.78066 0.4905 1.01148 0.0
C293 C 0.74085 0.51876 1.04463 0.0
H294 H 0.86423 0.47308 0.99079 0.0
C295 C 0.75585 0.552 0.08342 0.0
H296 H 0.77009 0.46476 0.98112 0.0
C297 C 0.80968 0.5562 0.0895 0.0
C298 C 0.84957 0.5279 1.05634 0.0
H299 H 0.72589 0.57393 0.10967 0.0
H300 H 0.82004 0.5818 0.12006 0.0
C301 C 0.83448 0.49535 1.01697 0.0
C302 C 0.76034 0.54446 0.60238 0.0
C303 C 0.78295 0.57233 0.56488 0.0
H304 H 0.68864 0.518 0.63764 0.0
C305 C 0.7499 0.59404 0.53282 0.0
H306 H 0.78508 0.52736 0.62752 0.0
C307 C 0.69535 0.58854 0.53828 0.0
C308 C 0.67228 0.56142 0.57617 0.0
H309 H 0.7664 0.6151 0.5031 0.0
H310 H 0.67123 0.60588 0.51278 0.0
C311 C 0.70527 0.53936 0.60826 0.0
C312 C 0.06612 0.30492 0.10281 0.0
C313 C 0.06213 0.30127 0.15487 0.0
H314 H 0.05782 0.35217 1.04363 0.0
C315 C 0.04377 0.34412 0.18779 0.0
H316 H 0.08017 0.27247 1.07652 0.0
C317 C 0.0308 0.38989 0.16893 0.0
C318 C 0.03602 0.39389 0.11673 0.0
H319 H 0.04023 0.3426 0.22809 0.0
H320 H 0.01764 0.42242 0.19541 0.0
C321 C 0.05327 0.35061 0.08393 0.0
C322 C 0.56017 0.38582 0.99835 0.0
C323 C 0.59147 0.40605 1.03444 0.0
H324 H 0.52134 0.32129 0.97067 0.0
C325 C 0.60406 0.37758 1.07321 0.0
H326 H 0.54971 0.40735 0.96825 0.0
C327 C 0.58731 0.32915 1.07508 0.0
C328 C 0.55816 0.3076 1.03779 0.0
H329 H 0.62692 0.39287 0.10223 0.0
H330 H 0.5976 0.30839 0.10577 0.0
C331 C 0.54378 0.3368 0.99989 0.0
C332 C 0.89607 0.71803 0.50459 0.0
C333 C 0.92798 0.68604 0.52958 0.0
H334 H 0.88278 0.79173 0.48153 0.0
C335 C 0.97485 0.70349 0.54659 0.0
H336 H 0.86051 0.70525 0.48976 0.0
C337 C 0.98808 0.75272 0.54091 0.0
C338 C 0.9545 0.7854 0.51843 0.0
H339 H 1.00013 0.67984 0.56615 0.0
H340 H 0.02304 0.76603 0.55648 0.0
C341 C 0.90902 0.76731 0.49938 0.0
C342 C 0.46033 0.755 0.7324 0.0
C343 C 0.45384 0.79762 0.70635 0.0
H344 H 0.4762 0.67499 0.72752 0.0
C345 C 0.46352 0.79135 0.65338 0.0
H346 H 0.45279 0.75821 0.77301 0.0
C347 C 0.47617 0.74357 0.62711 0.0
C348 C 0.47998 0.70059 0.65302 0.0
H349 H 0.45962 0.82344 0.632 0.0
H350 H 0.48176 0.74024 0.58642 0.0
C351 C 0.47323 0.70714 0.7061 0.0
C352 C 0.92212 0.93156 0.78208 0.0
C353 C 0.90375 0.96489 0.82483 0.0
H354 H 0.95252 0.92293 0.70396 0.0
C355 C 0.90335 1.01699 0.8205 0.0
H356 H 0.92256 0.89128 0.78393 0.0
C357 C 0.92119 1.03526 0.77481 0.0
C358 C 0.93881 1.00193 0.73183 0.0
H359 H 0.88959 0.04372 0.85273 0.0
H360 H 0.9207 0.07555 0.77305 0.0
C361 C 0.93888 0.94981 0.73611 0.0
C362 C 0.56369 0.18492 0.28177 0.0
C363 C 0.57293 0.15652 0.32176 0.0
H364 H 0.54494 0.18472 0.20591 0.0
C365 C 0.56851 0.10407 0.31472 0.0
H366 H 0.56728 0.22519 0.28549 0.0
C367 C 0.55571 0.08067 0.26896 0.0
C368 C 0.54735 0.10899 0.22871 0.0
H369 H 0.57483 0.08097 0.3448 0.0
H370 H 0.55264 0.04033 0.26508 0.0
C371 C 0.55134 0.16149 0.23588 0.0
C372 C 0.46156 0.53955 0.24353 0.0
C373 C 0.50925 0.5332 0.21104 0.0
H374 H 0.42486 0.5587 0.31883 0.0
C375 C 0.55654 0.54716 0.22951 0.0
H376 H 0.4245 0.52848 0.2306 0.0
C377 C 0.55668 0.56525 0.28 0.0
C378 C 0.5096 0.56887 0.31346 0.0
H379 H 0.59373 0.54295 0.20509 0.0
H380 H 0.59412 0.57481 0.29318 0.0
C381 C 0.46175 0.55715 0.29422 0.0
C382 C 0.06563 0.56591 0.72767 0.0
C383 C 0.01396 0.57202 0.7135 0.0
H384 H 0.11475 0.54114 0.78164 0.0
C385 C 0.97101 0.55836 0.74546 0.0
H386 H 0.09951 0.57778 0.70494 0.0
C387 C 0.97956 0.53866 0.79059 0.0
C388 C 0.03136 0.53233 0.80478 0.0
H389 H 0.93075 0.56318 0.73563 0.0
H390 H 0.94531 0.5301 0.81513 0.0
C391 C 0.07431 0.54555 0.77224 0.0
C392 C 0.73977 1.01658 0.97189 0.0
C393 C 0.75894 0.96592 0.96952 0.0
H394 H 0.67621 0.07221 0.99879 0.0
C395 C 0.72656 0.93203 0.99315 0.0
H396 H 0.76371 0.0438 0.9546 0.0
C397 C 0.67692 0.9484 1.01918 0.0
C398 C 0.6579 0.99901 1.02178 0.0
H399 H 0.73937 0.89249 0.99123 0.0
H400 H 0.65314 0.92115 1.03667 0.0
C401 C 0.68978 1.03291 0.99764 0.0
C402 C 0.78321 0.10279 0.49791 0.0
C403 C 0.76985 0.15458 0.50958 0.0
H404 H 0.83678 0.03996 0.50697 0.0
C405 C 0.79951 0.1825 0.5421 0.0
H406 H 0.76091 0.08028 0.47304 0.0
C407 C 0.84257 0.15956 0.56171 0.0
C408 C 0.85713 0.10805 0.54909 0.0
H409 H 0.78984 0.22247 0.55186 0.0
H410 H 0.86515 0.18256 0.5859 0.0
C411 C 0.82657 0.07972 0.51747 0.0
C412 C 0.24216 0.59622 0.13945 0.0
C413 C 0.28373 0.56904 0.10762 0.0
H414 H 0.15815 0.61186 0.15688 0.0
C415 C 0.27134 0.53555 1.06774 0.0
H416 H 0.25068 0.62209 0.17062 0.0
C417 C 0.21818 0.53015 1.05931 0.0
C418 C 0.17656 0.55752 0.09118 0.0
H419 H 0.30278 0.51443 1.0425 0.0
H420 H 0.20968 0.50442 1.02805 0.0
C421 C 0.1892 0.59028 0.13156 0.0
C422 C 0.25315 0.54654 0.55723 0.0
C423 C 0.22942 0.51936 0.59476 0.0
H424 H 0.3252 0.5743 0.52448 0.0
C425 C 0.26093 0.50038 0.62962 0.0
H426 H 0.22966 0.56161 0.52997 0.0
C427 C 0.3151 0.50789 0.62683 0.0
C428 C 0.33926 0.53431 0.58888 0.0
H429 H 0.2435 0.48005 0.6595 0.0
H430 H 0.3381 0.4926 0.65432 0.0
C431 C 0.30774 0.55365 0.55407 0.0
C432 C 0.95459 0.77317 1.02418 0.0
C433 C 0.97481 0.7748 0.97346 0.0
H434 H 0.9478 0.72967 0.08762 0.0
C435 C 0.00718 0.73356 0.94897 0.0
H436 H 0.92966 0.80446 1.04434 0.0
C437 C 0.01738 0.69089 0.97367 0.0
C438 C 0.99578 0.68829 1.02381 0.0
H439 H 0.02346 0.7337 0.91008 0.0
H440 H 0.04143 0.65932 0.95288 0.0
C441 C 0.96516 0.73041 1.04916 0.0
C442 C 0.41277 0.71759 0.09051 0.0
C443 C 0.42571 0.68809 0.12844 0.0
H444 H 0.41552 0.78897 1.06168 0.0
C445 C 0.4541 0.70877 0.16672 0.0
H446 H 0.39214 0.70216 1.05988 0.0
C447 C 0.46725 0.75899 0.16807 0.0
C448 C 0.45234 0.78905 0.13104 0.0
H449 H 0.46466 0.68659 0.19633 0.0
H450 H 0.48757 0.77466 0.19878 0.0
C451 C 0.4261 0.76734 0.09167 0.0
C452 C 0.03764 0.38676 0.61396 0.0
C453 C 0.08391 0.40564 0.63097 0.0
H454 H 0.98886 0.32423 0.60829 0.0
C455 C 0.11427 0.37628 0.65982 0.0
H456 H 0.01353 0.40827 0.59145 0.0
C457 C 0.10029 0.32811 0.66913 0.0
C458 C 0.05526 0.30859 0.65043 0.0
H459 H 0.14926 0.39026 0.67476 0.0
H460 H 0.12534 0.30563 0.69002 0.0
C461 C 0.02335 0.33875 0.62378 0.0
C462 C 0.54886 0.3062 0.5172 0.0
C463 C 0.55879 0.29906 0.46431 0.0
H464 H 0.52989 0.35831 0.58326 0.0
C465 C 0.5523 0.34108 0.43737 0.0
H466 H 0.55271 0.27459 0.53922 0.0
C467 C 0.53901 0.38925 0.46277 0.0
C468 C 0.53182 0.39666 0.51578 0.0
H469 H 0.56001 0.33714 0.39676 0.0
H470 H 0.53599 0.42095 0.44075 0.0
C471 C 0.53577 0.35428 0.54257 0.0
loop_
_geom_bond_atom_site_label_1
_geom_bond_atom_site_label_2
_geom_bond_distance
_geom_bond_site_symmetry_2
_ccdc_geom_bond_type
H0 C5 0.930 . S
H1 C8 0.930 . S
H2 C10 0.930 . S
H3 C4 1.016 . S
C4 H3 1.016 . S
C4 N11 1.286 . S
C5 H0 0.930 . S
C5 C6 1.397 . S
C5 C7 1.361 . S
C6 C5 1.397 . S
C6 C10 1.390 . S
C7 C5 1.361 . S
C7 C8 1.393 . S
C7 N11 1.413 . S
C8 H1 0.930 . S
C8 C7 1.393 . S
C8 C9 1.399 . S
C9 C8 1.399 . S
C9 C10 1.381 . S
C10 H2 0.930 . S
C10 C6 1.390 . S
C10 C9 1.381 . S
N11 C4 1.286 . S
N11 C7 1.413 . S
H12 C17 0.930 . S
H13 C20 0.930 . S
H14 C22 0.930 . S
H15 C16 1.016 . S
C16 H15 1.016 . S
C16 N23 1.286 . S
C17 H12 0.930 . S
C17 C18 1.397 . S
C17 C19 1.361 . S
C18 C17 1.397 . S
C18 C22 1.390 . S
C19 C17 1.361 . S
C19 C20 1.393 . S
C19 N23 1.413 . S
C20 H13 0.930 . S
C20 C19 1.393 . S
C20 C21 1.399 . S
C21 C20 1.399 . S
C21 C22 1.381 . S
C22 H14 0.930 . S
C22 C18 1.390 . S
C22 C21 1.381 . S
N23 C16 1.286 . S
N23 C19 1.413 . S
H24 C29 0.930 . S
H25 C32 0.930 . S
H26 C34 0.930 . S
H27 C28 1.016 . S
C28 H27 1.016 . S
C28 N35 1.286 . S
C29 H24 0.930 . S
C29 C30 1.397 . S
C29 C31 1.361 . S
C30 C29 1.397 . S
C30 C34 1.390 . S
C31 C29 1.361 . S
C31 C32 1.393 . S
C31 N35 1.413 . S
C32 H25 0.930 . S
C32 C31 1.393 . S
C32 C33 1.399 . S
C33 C32 1.399 . S
C33 C34 1.381 . S
C34 H26 0.930 . S
C34 C30 1.390 . S
C34 C33 1.381 . S
N35 C28 1.286 . S
N35 C31 1.413 . S
H36 C41 0.930 . S
H37 C44 0.930 . S
H38 C46 0.930 . S
H39 C40 1.016 . S
C40 H39 1.016 . S
C40 N47 1.286 . S
C41 H36 0.930 . S
C41 C42 1.397 . S
C41 C43 1.361 . S
C42 C41 1.397 . S
C42 C46 1.390 . S
C43 C41 1.361 . S
C43 C44 1.393 . S
C43 N47 1.413 . S
C44 H37 0.930 . S
C44 C43 1.393 . S
C44 C45 1.399 . S
C45 C44 1.399 . S
C45 C46 1.381 . S
C46 H38 0.930 . S
C46 C42 1.390 . S
C46 C45 1.381 . S
N47 C40 1.286 . S
N47 C43 1.413 . S
H48 C53 0.930 . S
H49 C56 0.930 . S
H50 C58 0.930 . S
H51 C52 1.016 . S
C52 H51 1.016 . S
C52 N59 1.286 . S
C53 H48 0.930 . S
C53 C54 1.397 . S
C53 C55 1.361 . S
C54 C53 1.397 . S
C54 C58 1.390 . S
C55 C53 1.361 . S
C55 C56 1.393 . S
C55 N59 1.413 . S
C56 H49 0.930 . S
C56 C55 1.393 . S
C56 C57 1.399 . S
C57 C56 1.399 . S
C57 C58 1.381 . S
C58 H50 0.930 . S
C58 C54 1.390 . S
C58 C57 1.381 . S
N59 C52 1.286 . S
N59 C55 1.413 . S
H60 C65 0.930 . S
H61 C68 0.930 . S
H62 C70 0.930 . S
H63 C64 1.016 . S
C64 H63 1.016 . S
C64 N71 1.286 . S
C65 H60 0.930 . S
C65 C66 1.397 . S
C65 C67 1.361 . S
C66 C65 1.397 . S
C66 C70 1.390 . S
C67 C65 1.361 . S
C67 C68 1.393 . S
C67 N71 1.413 . S
C68 H61 0.930 . S
C68 C67 1.393 . S
C68 C69 1.399 . S
C69 C68 1.399 . S
C69 C70 1.381 . S
C70 H62 0.930 . S
C70 C66 1.390 . S
C70 C69 1.381 . S
N71 C64 1.286 . S
N71 C67 1.413 . S
H72 C77 0.930 . S
H73 C80 0.930 . S
H74 C82 0.930 . S
H75 C76 1.016 . S
C76 H75 1.016 . S
C76 N83 1.286 . S
C77 H72 0.930 . S
C77 C78 1.397 . S
C77 C79 1.361 . S
C78 C77 1.397 . S
C78 C82 1.390 . S
C79 C77 1.361 . S
C79 C80 1.393 . S
C79 N83 1.413 . S
C80 H73 0.930 . S
C80 C79 1.393 . S
C80 C81 1.399 . S
C81 C80 1.399 . S
C81 C82 1.381 . S
C82 H74 0.930 . S
C82 C78 1.390 . S
C82 C81 1.381 . S
N83 C76 1.286 . S
N83 C79 1.413 . S
H84 C89 0.930 . S
H85 C92 0.930 . S
H86 C94 0.930 . S
H87 C88 1.016 . S
C88 H87 1.016 . S
C88 N95 1.286 . S
C89 H84 0.930 . S
C89 C90 1.397 . S
C89 C91 1.361 . S
C90 C89 1.397 . S
C90 C94 1.390 . S
C91 C89 1.361 . S
C91 C92 1.393 . S
C91 N95 1.413 . S
C92 H85 0.930 . S
C92 C91 1.393 . S
C92 C93 1.399 . S
C93 C92 1.399 . S
C93 C94 1.381 . S
C94 H86 0.930 . S
C94 C90 1.390 . S
C94 C93 1.381 . S
N95 C88 1.286 . S
N95 C91 1.413 . S
C96 O112 1.251 . S
C96 O114 1.254 1_545 S
N97 C98 1.333 . S
N97 C102 1.307 . S
N97 Zn103 2.020 . S
C98 N97 1.333 . S
C98 C99 1.379 . S
C98 H116 0.952 . S
C99 C98 1.379 . S
C99 C100 1.390 . S
C99 H126 0.949 . S
C100 C99 1.390 . S
C100 C101 1.357 . S
C101 C100 1.357 . S
C101 C102 1.370 . S
C101 H127 0.950 . S
C102 N97 1.307 . S
C102 C101 1.370 . S
C102 H120 0.948 1_455 S
Zn103 N97 2.020 . S
Zn103 O112 2.039 . S
Zn103 O118 2.034 . S
Zn103 O122 2.025 1_455 S
Zn103 O124 2.024 1_455 S
C104 O123 1.246 1_545 S
C104 O124 1.249 . S
N105 C106 1.307 . S
N105 C107 1.333 . S
N105 Zn111 2.020 . S
C106 N105 1.307 . S
C106 C110 1.370 . S
C106 H117 0.948 1_655 S
C107 N105 1.333 . S
C107 C108 1.379 . S
C107 H115 0.952 . S
C108 C107 1.379 . S
C108 C109 1.390 . S
C108 H128 0.949 . S
C109 C108 1.390 . S
C109 C110 1.357 . S
C110 C106 1.370 . S
C110 C109 1.357 . S
C110 H129 0.950 . S
Zn111 N105 2.020 . S
Zn111 O114 2.025 1_655 S
Zn111 O119 2.024 1_655 S
Zn111 O121 2.039 . S
Zn111 O123 2.034 . S
O112 C96 1.251 . S
O112 Zn103 2.039 . S
C113 O118 1.246 1_565 S
C113 O119 1.249 . S
O114 C96 1.254 1_565 S
O114 Zn111 2.025 1_455 S
H115 C107 0.952 . S
H116 C98 0.952 . S
H117 C106 0.948 1_455 S
O118 Zn103 2.034 . S
O118 C113 1.246 1_545 S
O119 Zn111 2.024 1_455 S
O119 C113 1.249 . S
H120 C102 0.948 1_655 S
O121 Zn111 2.039 . S
O121 C125 1.251 . S
O122 Zn103 2.025 1_655 S
O122 C125 1.254 1_545 S
O123 C104 1.246 1_565 S
O123 Zn111 2.034 . S
O124 Zn103 2.024 1_655 S
O124 C104 1.249 . S
C125 O121 1.251 . S
C125 O122 1.254 1_565 S
H126 C99 0.949 . S
H127 C101 0.950 . S
H128 C108 0.949 . S
H129 C110 0.950 . S
C130 O146 1.251 1_565 S
C130 O148 1.254 . S
N131 C132 1.333 . S
N131 C136 1.307 . S
N131 Zn137 2.020 . S
C132 N131 1.333 . S
C132 C133 1.379 . S
C132 H150 0.952 . S
C133 C132 1.379 . S
C133 C134 1.390 . S
C133 H160 0.949 . S
C134 C133 1.390 . S
C134 C135 1.357 . S
C135 C134 1.357 . S
C135 C136 1.370 . S
C135 H161 0.950 . S
C136 N131 1.307 . S
C136 C135 1.370 . S
C136 H154 0.948 . S
Zn137 N131 2.020 . S
Zn137 O146 2.039 . S
Zn137 O152 2.034 1_556 S
Zn137 O156 2.025 1_556 S
Zn137 O158 2.024 . S
C138 O157 1.246 . S
C138 O158 1.249 1_565 S
N139 C140 1.307 . S
N139 C141 1.333 . S
N139 Zn145 2.020 . S
C140 N139 1.307 . S
C140 C144 1.370 . S
C140 H151 0.948 . S
C141 N139 1.333 . S
C141 C142 1.379 . S
C141 H149 0.952 . S
C142 C141 1.379 . S
C142 C143 1.390 . S
C142 H162 0.949 . S
C143 C142 1.390 . S
C143 C144 1.357 . S
C144 C140 1.370 . S
C144 C143 1.357 . S
C144 H163 0.950 . S
Zn145 N139 2.020 . S
Zn145 O148 2.025 1_554 S
Zn145 O153 2.024 . S
Zn145 O155 2.039 . S
Zn145 O157 2.034 1_554 S
O146 C130 1.251 1_545 S
O146 Zn137 2.039 . S
C147 O152 1.246 . S
C147 O153 1.249 1_545 S
O148 C130 1.254 . S
O148 Zn145 2.025 1_556 S
H149 C141 0.952 . S
H150 C132 0.952 . S
H151 C140 0.948 . S
O152 Zn137 2.034 1_554 S
O152 C147 1.246 . S
O153 Zn145 2.024 . S
O153 C147 1.249 1_565 S
H154 C136 0.948 . S
O155 Zn145 2.039 . S
O155 C159 1.251 1_565 S
O156 Zn137 2.025 1_554 S
O156 C159 1.254 . S
O157 C138 1.246 . S
O157 Zn145 2.034 1_556 S
O158 Zn137 2.024 . S
O158 C138 1.249 1_545 S
C159 O155 1.251 1_545 S
C159 O156 1.254 . S
H160 C133 0.949 . S
H161 C135 0.950 . S
H162 C142 0.949 . S
H163 C144 0.950 . S
C164 O180 1.251 . S
C164 O182 1.254 . S
N165 C166 1.333 . S
N165 C170 1.307 . S
N165 Zn171 2.020 . S
C166 N165 1.333 . S
C166 C167 1.379 . S
C166 H184 0.952 . S
C167 C166 1.379 . S
C167 C168 1.390 . S
C167 H194 0.949 . S
C168 C167 1.390 . S
C168 C169 1.357 . S
C169 C168 1.357 . S
C169 C170 1.370 . S
C169 H195 0.950 . S
C170 N165 1.307 . S
C170 C169 1.370 . S
C170 H188 0.948 . S
Zn171 N165 2.020 . S
Zn171 O180 2.039 . S
Zn171 O186 2.034 . S
Zn171 O190 2.025 . S
Zn171 O192 2.024 . S
C172 O191 1.246 . S
C172 O192 1.249 . S
N173 C174 1.307 . S
N173 C175 1.333 . S
N173 Zn179 2.020 . S
C174 N173 1.307 . S
C174 C178 1.370 . S
C174 H185 0.948 . S
C175 N173 1.333 . S
C175 C176 1.379 . S
C175 H183 0.952 . S
C176 C175 1.379 . S
C176 C177 1.390 . S
C176 H196 0.949 . S
C177 C176 1.390 . S
C177 C178 1.357 . S
C178 C174 1.370 . S
C178 C177 1.357 . S
C178 H197 0.950 . S
Zn179 N173 2.020 . S
Zn179 O182 2.025 . S
Zn179 O187 2.024 . S
Zn179 O189 2.039 . S
Zn179 O191 2.034 . S
O180 C164 1.251 . S
O180 Zn171 2.039 . S
C181 O186 1.246 . S
C181 O187 1.249 . S
O182 C164 1.254 . S
O182 Zn179 2.025 . S
H183 C175 0.952 . S
H184 C166 0.952 . S
H185 C174 0.948 . S
O186 Zn171 2.034 . S
O186 C181 1.246 . S
O187 Zn179 2.024 . S
O187 C181 1.249 . S
H188 C170 0.948 . S
O189 Zn179 2.039 . S
O189 C193 1.251 . S
O190 Zn171 2.025 . S
O190 C193 1.254 . S
O191 C172 1.246 . S
O191 Zn179 2.034 . S
O192 Zn171 2.024 . S
O192 C172 1.249 . S
C193 O189 1.251 . S
C193 O190 1.254 . S
H194 C167 0.949 . S
H195 C169 0.950 . S
H196 C176 0.949 . S
H197 C178 0.950 . S
C198 O214 1.251 1_556 S
C198 O216 1.254 1_655 S
N199 C200 1.333 . S
N199 C204 1.307 . S
N199 Zn205 2.020 . S
C200 N199 1.333 . S
C200 C201 1.379 . S
C200 H218 0.952 . S
C201 C200 1.379 . S
C201 C202 1.390 . S
C201 H228 0.949 . S
C202 C201 1.390 . S
C202 C203 1.357 . S
C203 C202 1.357 . S
C203 C204 1.370 . S
C203 H229 0.950 . S
C204 N199 1.307 . S
C204 C203 1.370 . S
C204 H222 0.948 . S
Zn205 N199 2.020 . S
Zn205 O214 2.039 . S
Zn205 O220 2.034 1_655 S
Zn205 O224 2.025 1_655 S
Zn205 O226 2.024 . S
C206 O225 1.246 . S
C206 O226 1.249 1_556 S
N207 C208 1.307 . S
N207 C209 1.333 . S
N207 Zn213 2.020 . S
C208 N207 1.307 . S
C208 C212 1.370 . S
C208 H219 0.948 . S
C209 N207 1.333 . S
C209 C210 1.379 . S
C209 H217 0.952 . S
C210 C209 1.379 . S
C210 C211 1.390 . S
C210 H230 0.949 . S
C211 C210 1.390 . S
C211 C212 1.357 . S
C212 C208 1.370 . S
C212 C211 1.357 . S
C212 H231 0.950 . S
Zn213 N207 2.020 . S
Zn213 O216 2.025 . S
Zn213 O221 2.024 . S
Zn213 O223 2.039 . S
Zn213 O225 2.034 1_455 S
O214 C198 1.251 1_554 S
O214 Zn205 2.039 . S
C215 O220 1.246 . S
C215 O221 1.249 1_554 S
O216 C198 1.254 1_455 S
O216 Zn213 2.025 . S
H217 C209 0.952 . S
H218 C200 0.952 . S
H219 C208 0.948 . S
O220 Zn205 2.034 1_455 S
O220 C215 1.246 . S
O221 Zn213 2.024 . S
O221 C215 1.249 1_556 S
H222 C204 0.948 . S
O223 Zn213 2.039 . S
O223 C227 1.251 1_556 S
O224 Zn205 2.025 1_455 S
O224 C227 1.254 . S
O225 C206 1.246 . S
O225 Zn213 2.034 1_655 S
O226 Zn205 2.024 . S
O226 C206 1.249 1_554 S
C227 O223 1.251 1_554 S
C227 O224 1.254 . S
H228 C201 0.949 . S
H229 C203 0.950 . S
H230 C210 0.949 . S
H231 C212 0.950 . S
C232 C233 1.387 . S
C232 H236 0.950 . S
C232 C241 1.390 . S
C233 C232 1.387 . S
C233 C235 1.387 . S
H234 C241 0.950 . S
C235 C233 1.387 . S
C235 C237 1.390 . S
C235 H239 0.950 1_545 S
H236 C232 0.950 . S
C237 C235 1.390 . S
C237 C238 1.387 . S
C237 H240 0.950 1_545 S
C238 C237 1.387 . S
C238 C241 1.387 . S
H239 C235 0.950 1_565 S
H240 C237 0.950 1_565 S
C241 C232 1.390 . S
C241 H234 0.950 . S
C241 C238 1.387 . S
C242 C243 1.387 . S
C242 H246 0.950 . S
C242 C251 1.390 . S
C243 C242 1.387 . S
C243 C245 1.387 . S
H244 C251 0.950 . S
C245 C243 1.387 . S
C245 C247 1.390 . S
C245 H249 0.950 . S
H246 C242 0.950 . S
C247 C245 1.390 . S
C247 C248 1.387 . S
C247 H250 0.950 1_565 S
C248 C247 1.387 . S
C248 C251 1.387 . S
H249 C245 0.950 . S
H250 C247 0.950 1_545 S
C251 C242 1.390 . S
C251 H244 0.950 . S
C251 C248 1.387 . S
C252 C253 1.387 . S
C252 H256 0.950 . S
C252 C261 1.390 . S
C253 C252 1.387 . S
C253 C255 1.387 . S
H254 C261 0.950 . S
C255 C253 1.387 . S
C255 C257 1.390 . S
C255 H259 0.950 . S
H256 C252 0.950 . S
C257 C255 1.390 . S
C257 C258 1.387 . S
C257 H260 0.950 . S
C258 C257 1.387 . S
C258 C261 1.387 . S
H259 C255 0.950 . S
H260 C257 0.950 . S
C261 C252 1.390 . S
C261 H254 0.950 . S
C261 C258 1.387 . S
C262 C263 1.387 . S
C262 H266 0.950 . S
C262 C271 1.390 . S
C263 C262 1.387 . S
C263 C265 1.387 . S
H264 C271 0.950 . S
C265 C263 1.387 . S
C265 C267 1.390 . S
C265 H269 0.950 . S
H266 C262 0.950 . S
C267 C265 1.390 . S
C267 C268 1.387 . S
C267 H270 0.950 . S
C268 C267 1.387 . S
C268 C271 1.387 . S
H269 C265 0.950 . S
H270 C267 0.950 . S
C271 C262 1.390 . S
C271 H264 0.950 . S
C271 C268 1.387 . S
C272 C273 1.387 . S
C272 H276 0.950 . S
C272 C281 1.390 . S
C273 C272 1.387 . S
C273 C275 1.387 . S
H274 C281 0.950 . S
C275 C273 1.387 . S
C275 C277 1.390 . S
C275 H279 0.950 . S
H276 C272 0.950 . S
C277 C275 1.390 . S
C277 C278 1.387 . S
C277 H280 0.950 . S
C278 C277 1.387 . S
C278 C281 1.387 . S
H279 C275 0.950 . S
H280 C277 0.950 . S
C281 C272 1.390 . S
C281 H274 0.950 . S
C281 C278 1.387 . S
C282 C283 1.387 . S
C282 H286 0.950 . S
C282 C291 1.390 . S
C283 C282 1.387 . S
C283 C285 1.387 . S
H284 C291 0.950 . S
C285 C283 1.387 . S
C285 C287 1.390 . S
C285 H289 0.950 . S
H286 C282 0.950 . S
C287 C285 1.390 . S
C287 C288 1.387 . S
C287 H290 0.950 . S
C288 C287 1.387 . S
C288 C291 1.387 . S
H289 C285 0.950 . S
H290 C287 0.950 . S
C291 C282 1.390 . S
C291 H284 0.950 . S
C291 C288 1.387 . S
C292 C293 1.387 . S
C292 H296 0.950 . S
C292 C301 1.390 . S
C293 C292 1.387 . S
C293 C295 1.387 . S
H294 C301 0.950 . S
C295 C293 1.387 . S
C295 C297 1.390 . S
C295 H299 0.950 . S
H296 C292 0.950 . S
C297 C295 1.390 . S
C297 C298 1.387 . S
C297 H300 0.950 . S
C298 C297 1.387 . S
C298 C301 1.387 . S
H299 C295 0.950 . S
H300 C297 0.950 . S
C301 C292 1.390 . S
C301 H294 0.950 . S
C301 C298 1.387 . S
C302 C303 1.387 . S
C302 H306 0.950 . S
C302 C311 1.390 . S
C303 C302 1.387 . S
C303 C305 1.387 . S
H304 C311 0.950 . S
C305 C303 1.387 . S
C305 C307 1.390 . S
C305 H309 0.950 . S
H306 C302 0.950 . S
C307 C305 1.390 . S
C307 C308 1.387 . S
C307 H310 0.950 . S
C308 C307 1.387 . S
C308 C311 1.387 . S
H309 C305 0.950 . S
H310 C307 0.950 . S
C311 C302 1.390 . S
C311 H304 0.950 . S
C311 C308 1.387 . S
C312 C313 1.387 . S
C312 H316 0.950 . S
C312 C321 1.390 . S
C313 C312 1.387 . S
C313 C315 1.387 . S
H314 C321 0.950 . S
C315 C313 1.387 . S
C315 C317 1.390 . S
C315 H319 0.950 . S
H316 C312 0.950 . S
C317 C315 1.390 . S
C317 C318 1.387 . S
C317 H320 0.950 1_455 S
C318 C317 1.387 . S
C318 C321 1.387 . S
H319 C315 0.950 . S
H320 C317 0.950 1_655 S
C321 C312 1.390 . S
C321 H314 0.950 . S
C321 C318 1.387 . S
C322 C323 1.387 . S
C322 H326 0.950 . S
C322 C331 1.390 . S
C323 C322 1.387 . S
C323 C325 1.387 . S
H324 C331 0.950 . S
C325 C323 1.387 . S
C325 C327 1.390 . S
C325 H329 0.950 1_556 S
H326 C322 0.950 . S
C327 C325 1.390 . S
C327 C328 1.387 . S
C327 H330 0.950 1_556 S
C328 C327 1.387 . S
C328 C331 1.387 . S
H329 C325 0.950 1_554 S
H330 C327 0.950 1_554 S
C331 C322 1.390 . S
C331 H324 0.950 . S
C331 C328 1.387 . S
C332 C333 1.387 . S
C332 H336 0.950 . S
C332 C341 1.390 . S
C333 C332 1.387 . S
C333 C335 1.387 . S
H334 C341 0.950 . S
C335 C333 1.387 . S
C335 C337 1.390 . S
C335 H339 0.950 . S
H336 C332 0.950 . S
C337 C335 1.390 . S
C337 C338 1.387 . S
C337 H340 0.950 . S
C338 C337 1.387 . S
C338 C341 1.387 . S
H339 C335 0.950 . S
H340 C337 0.950 . S
C341 C332 1.390 . S
C341 H334 0.950 . S
C341 C338 1.387 . S
C342 C343 1.387 . S
C342 H346 0.950 . S
C342 C351 1.390 . S
C343 C342 1.387 . S
C343 C345 1.387 . S
H344 C351 0.950 . S
C345 C343 1.387 . S
C345 C347 1.390 . S
C345 H349 0.950 . S
H346 C342 0.950 . S
C347 C345 1.390 . S
C347 C348 1.387 . S
C347 H350 0.950 . S
C348 C347 1.387 . S
C348 C351 1.387 . S
H349 C345 0.950 . S
H350 C347 0.950 . S
C351 C342 1.390 . S
C351 H344 0.950 . S
C351 C348 1.387 . S
C352 C353 1.387 . S
C352 H356 0.950 . S
C352 C361 1.390 . S
C353 C352 1.387 . S
C353 C355 1.387 . S
H354 C361 0.950 . S
C355 C353 1.387 . S
C355 C357 1.390 . S
C355 H359 0.950 . S
H356 C352 0.950 . S
C357 C355 1.390 . S
C357 C358 1.387 . S
C357 H360 0.950 1_565 S
C358 C357 1.387 . S
C358 C361 1.387 . S
H359 C355 0.950 . S
H360 C357 0.950 1_545 S
C361 C352 1.390 . S
C361 H354 0.950 . S
C361 C358 1.387 . S
C362 C363 1.387 . S
C362 H366 0.950 . S
C362 C371 1.390 . S
C363 C362 1.387 . S
C363 C365 1.387 . S
H364 C371 0.950 . S
C365 C363 1.387 . S
C365 C367 1.390 . S
C365 H369 0.950 . S
H366 C362 0.950 . S
C367 C365 1.390 . S
C367 C368 1.387 . S
C367 H370 0.950 . S
C368 C367 1.387 . S
C368 C371 1.387 . S
H369 C365 0.950 . S
H370 C367 0.950 . S
C371 C362 1.390 . S
C371 H364 0.950 . S
C371 C368 1.387 . S
C372 C373 1.387 . S
C372 H376 0.950 . S
C372 C381 1.390 . S
C373 C372 1.387 . S
C373 C375 1.387 . S
H374 C381 0.950 . S
C375 C373 1.387 . S
C375 C377 1.390 . S
C375 H379 0.950 . S
H376 C372 0.950 . S
C377 C375 1.390 . S
C377 C378 1.387 . S
C377 H380 0.950 . S
C378 C377 1.387 . S
C378 C381 1.387 . S
H379 C375 0.950 . S
H380 C377 0.950 . S
C381 C372 1.390 . S
C381 H374 0.950 . S
C381 C378 1.387 . S
C382 C383 1.387 . S
C382 H386 0.950 . S
C382 C391 1.390 . S
C383 C382 1.387 . S
C383 C385 1.387 . S
H384 C391 0.950 . S
C385 C383 1.387 . S
C385 C387 1.390 . S
C385 H389 0.950 . S
H386 C382 0.950 . S
C387 C385 1.390 . S
C387 C388 1.387 . S
C387 H390 0.950 . S
C388 C387 1.387 . S
C388 C391 1.387 . S
H389 C385 0.950 . S
H390 C387 0.950 . S
C391 C382 1.390 . S
C391 H384 0.950 . S
C391 C388 1.387 . S
C392 C393 1.387 . S
C392 H396 0.950 1_565 S
C392 C401 1.390 1_565 S
C393 C392 1.387 . S
C393 C395 1.387 . S
H394 C401 0.950 . S
C395 C393 1.387 . S
C395 C397 1.390 . S
C395 H399 0.950 . S
H396 C392 0.950 1_545 S
C397 C395 1.390 . S
C397 C398 1.387 . S
C397 H400 0.950 . S
C398 C397 1.387 . S
C398 C401 1.387 1_565 S
H399 C395 0.950 . S
H400 C397 0.950 . S
C401 C392 1.390 1_545 S
C401 H394 0.950 . S
C401 C398 1.387 1_545 S
C402 C403 1.387 . S
C402 H406 0.950 . S
C402 C411 1.390 . S
C403 C402 1.387 . S
C403 C405 1.387 . S
H404 C411 0.950 1_565 S
C405 C403 1.387 . S
C405 C407 1.390 . S
C405 H409 0.950 . S
H406 C402 0.950 . S
C407 C405 1.390 . S
C407 C408 1.387 . S
C407 H410 0.950 . S
C408 C407 1.387 . S
C408 C411 1.387 . S
H409 C405 0.950 . S
H410 C407 0.950 . S
C411 C402 1.390 . S
C411 H404 0.950 1_545 S
C411 C408 1.387 . S
C412 C413 1.387 . S
C412 H416 0.950 . S
C412 C421 1.390 . S
C413 C412 1.387 . S
C413 C415 1.387 . S
H414 C421 0.950 . S
C415 C413 1.387 . S
C415 C417 1.390 . S
C415 H419 0.950 1_554 S
H416 C412 0.950 . S
C417 C415 1.390 . S
C417 C418 1.387 . S
C417 H420 0.950 1_554 S
C418 C417 1.387 . S
C418 C421 1.387 . S
H419 C415 0.950 1_556 S
H420 C417 0.950 1_556 S
C421 C412 1.390 . S
C421 H414 0.950 . S
C421 C418 1.387 . S
C422 C423 1.387 . S
C422 H426 0.950 . S
C422 C431 1.390 . S
C423 C422 1.387 . S
C423 C425 1.387 . S
H424 C431 0.950 . S
C425 C423 1.387 . S
C425 C427 1.390 . S
C425 H429 0.950 . S
H426 C422 0.950 . S
C427 C425 1.390 . S
C427 C428 1.387 . S
C427 H430 0.950 . S
C428 C427 1.387 . S
C428 C431 1.387 . S
H429 C425 0.950 . S
H430 C427 0.950 . S
C431 C422 1.390 . S
C431 H424 0.950 . S
C431 C428 1.387 . S
C432 C433 1.387 . S
C432 H436 0.950 . S
C432 C441 1.390 . S
C433 C432 1.387 . S
C433 C435 1.387 . S
H434 C441 0.950 1_454 S
C435 C433 1.387 . S
C435 C437 1.390 . S
C435 H439 0.950 . S
H436 C432 0.950 . S
C437 C435 1.390 . S
C437 C438 1.387 . S
C437 H440 0.950 . S
C438 C437 1.387 . S
C438 C441 1.387 . S
H439 C435 0.950 . S
H440 C437 0.950 . S
C441 C432 1.390 . S
C441 H434 0.950 1_656 S
C441 C438 1.387 . S
C442 C443 1.387 . S
C442 H446 0.950 1_554 S
C442 C451 1.390 . S
C443 C442 1.387 . S
C443 C445 1.387 . S
H444 C451 0.950 . S
C445 C443 1.387 . S
C445 C447 1.390 . S
C445 H449 0.950 . S
H446 C442 0.950 1_556 S
C447 C445 1.390 . S
C447 C448 1.387 . S
C447 H450 0.950 . S
C448 C447 1.387 . S
C448 C451 1.387 . S
H449 C445 0.950 . S
H450 C447 0.950 . S
C451 C442 1.390 . S
C451 H444 0.950 . S
C451 C448 1.387 . S
C452 C453 1.387 . S
C452 H456 0.950 . S
C452 C461 1.390 . S
C453 C452 1.387 . S
C453 C455 1.387 . S
H454 C461 0.950 . S
C455 C453 1.387 . S
C455 C457 1.390 . S
C455 H459 0.950 . S
H456 C452 0.950 . S
C457 C455 1.390 . S
C457 C458 1.387 . S
C457 H460 0.950 . S
C458 C457 1.387 . S
C458 C461 1.387 . S
H459 C455 0.950 . S
H460 C457 0.950 . S
C461 C452 1.390 . S
C461 H454 0.950 . S
C461 C458 1.387 . S
C462 C463 1.387 . S
C462 H466 0.950 . S
C462 C471 1.390 . S
C463 C462 1.387 . S
C463 C465 1.387 . S
H464 C471 0.950 . S
C465 C463 1.387 . S
C465 C467 1.390 . S
C465 H469 0.950 . S
H466 C462 0.950 . S
C467 C465 1.390 . S
C467 C468 1.387 . S
C467 H470 0.950 . S
C468 C467 1.387 . S
C468 C471 1.387 . S
H469 C465 0.950 . S
H470 C467 0.950 . S
C471 C462 1.390 . S
C471 H464 0.950 . S
C471 C468 1.387 . S
C233 C6 2.477 . S
C238 C96 2.482 . S
C243 C18 2.532 . S
C248 C138 2.566 . S
C258 C168 1.009 . S
C253 C28 0.984 . S
C263 C40 0.852 . S
C268 C202 0.868 . S
C278 C159 2.064 . S
C273 C9 2.057 . S
C288 C113 1.830 . S
C283 C16 1.811 . S
C298 C206 1.310 . S
C293 C30 1.295 . S
C308 C172 1.043 . S
C303 C42 1.031 . S
C313 C4 2.119 . S
C318 C227 2.150 . S
C328 C134 1.192 . S
C323 C33 1.190 . S
C333 C45 1.085 . S
C338 C109 1.101 . S
C343 C21 2.401 . S
C348 C193 2.411 . S
C358 C125 2.541 . S
C353 C57 2.531 . S
C363 C66 2.536 . S
C368 C147 2.550 . S
C373 C76 1.012 . S
C378 C177 1.023 . S
C383 C88 0.835 . S
C388 C211 0.838 . S
C393 C54 2.029 . S
C398 C130 2.042 . S
C408 C104 1.854 . S
C403 C64 1.828 . S
C418 C215 1.181 . S
C413 C78 1.143 . S
C428 C181 1.033 . S
C423 C93 1.019 . S
C433 C52 2.106 . S
C438 C198 2.116 . S
C448 C143 1.173 . S
C443 C81 1.164 . S
C458 C100 1.137 . S
C453 C90 1.102 . S
C463 C69 2.433 . S
C468 C164 2.433 . S
