# Generated by pormake.
# Topology apo, (3,6)-cn, num edge types: 1
# Building blocks:
#     Node 0, Type 0, BuildingBlock: ESEHIV_clean_linker_0, # of connection points: 3
#     Node 1, Type 0, BuildingBlock: ESEHIV_clean_linker_0, # of connection points: 3
#     Node 2, Type 0, BuildingBlock: ESEHIV_clean_linker_0, # of connection points: 3
#     Node 3, Type 0, BuildingBlock: ESEHIV_clean_linker_0, # of connection points: 3
#     Node 4, Type 0, BuildingBlock: ESEHIV_clean_linker_0, # of connection points: 3
#     Node 5, Type 0, BuildingBlock: ESEHIV_clean_linker_0, # of connection points: 3
#     Node 6, Type 0, BuildingBlock: ESEHIV_clean_linker_0, # of connection points: 3
#     Node 7, Type 0, BuildingBlock: ESEHIV_clean_linker_0, # of connection points: 3
#     Node 8, Type 1, BuildingBlock: MIDCAF_clean_sbu_0, # of connection points: 6
#     Node 9, Type 1, BuildingBlock: MIDCAF_clean_sbu_0, # of connection points: 6
#     Node 10, Type 1, BuildingBlock: MIDCAF_clean_sbu_0, # of connection points: 6
#     Node 11, Type 1, BuildingBlock: MIDCAF_clean_sbu_0, # of connection points: 6
#     Edge 12, Type (0, 1), BuildingBlock: TEMPAE_clean_linker_10, # of connection points: 2
#     Edge 13, Type (0, 1), BuildingBlock: TEMPAE_clean_linker_10, # of connection points: 2
#     Edge 14, Type (0, 1), BuildingBlock: TEMPAE_clean_linker_10, # of connection points: 2
#     Edge 15, Type (0, 1), BuildingBlock: TEMPAE_clean_linker_10, # of connection points: 2
#     Edge 16, Type (0, 1), BuildingBlock: TEMPAE_clean_linker_10, # of connection points: 2
#     Edge 17, Type (0, 1), BuildingBlock: TEMPAE_clean_linker_10, # of connection points: 2
#     Edge 18, Type (0, 1), BuildingBlock: TEMPAE_clean_linker_10, # of connection points: 2
#     Edge 19, Type (0, 1), BuildingBlock: TEMPAE_clean_linker_10, # of connection points: 2
#     Edge 20, Type (0, 1), BuildingBlock: TEMPAE_clean_linker_10, # of connection points: 2
#     Edge 21, Type (0, 1), BuildingBlock: TEMPAE_clean_linker_10, # of connection points: 2
#     Edge 22, Type (0, 1), BuildingBlock: TEMPAE_clean_linker_10, # of connection points: 2
#     Edge 23, Type (0, 1), BuildingBlock: TEMPAE_clean_linker_10, # of connection points: 2
#     Edge 24, Type (0, 1), BuildingBlock: TEMPAE_clean_linker_10, # of connection points: 2
#     Edge 25, Type (0, 1), BuildingBlock: TEMPAE_clean_linker_10, # of connection points: 2
#     Edge 26, Type (0, 1), BuildingBlock: TEMPAE_clean_linker_10, # of connection points: 2
#     Edge 27, Type (0, 1), BuildingBlock: TEMPAE_clean_linker_10, # of connection points: 2
#     Edge 28, Type (0, 1), BuildingBlock: TEMPAE_clean_linker_10, # of connection points: 2
#     Edge 29, Type (0, 1), BuildingBlock: TEMPAE_clean_linker_10, # of connection points: 2
#     Edge 30, Type (0, 1), BuildingBlock: TEMPAE_clean_linker_10, # of connection points: 2
#     Edge 31, Type (0, 1), BuildingBlock: TEMPAE_clean_linker_10, # of connection points: 2
#     Edge 32, Type (0, 1), BuildingBlock: TEMPAE_clean_linker_10, # of connection points: 2
#     Edge 33, Type (0, 1), BuildingBlock: TEMPAE_clean_linker_10, # of connection points: 2
#     Edge 34, Type (0, 1), BuildingBlock: TEMPAE_clean_linker_10, # of connection points: 2
#     Edge 35, Type (0, 1), BuildingBlock: TEMPAE_clean_linker_10, # of connection points: 2
# Relax obj value: 0.086
# Max RMSD: 0.099
# Mean RMSD: 0.089
data_MOF--net-apo--node1-MIDCAF_clean_sbu_0--node2-ESEHIV_clean_linker_0--edge1-TEMPAE_clean_linker_10
_symmetry_space_group_name_H-M    P1
_symmetry_Int_Tables_number       1
_symmetry_cell_setting            triclinic
loop_
_symmetry_equiv_pos_as_xyz
'x, y, z'
_cell_length_a     33.08292
_cell_length_b     39.39603
_cell_length_c     35.182091
_cell_angle_alpha  90.107723
_cell_angle_beta   90.065834
_cell_angle_gamma 90.228204
loop_
_atom_site_label
_atom_site_type_symbol
_atom_site_fract_x
_atom_site_fract_y
_atom_site_fract_z
_atom_type_partial_charge
H0 H 0.38711 0.35952 0.43447 0.0
H1 H 0.32679 0.34131 0.32884 0.0
H2 H 0.29848 0.27928 0.42617 0.0
C3 C 0.36606 0.34427 0.41804 0.0
C4 C 0.34344 0.31831 0.43562 0.0
C5 C 0.36055 0.35204 0.37957 0.0
C6 C 0.33177 0.33422 0.35823 0.0
C7 C 0.309 0.30793 0.37473 0.0
C8 C 0.31522 0.30001 0.41346 0.0
H9 H 0.09782 0.14417 0.92316 0.0
H10 H 0.15919 0.16508 0.81901 0.0
H11 H 0.18269 0.2274 0.91751 0.0
C12 C 0.11816 0.16044 0.90729 0.0
C13 C 0.13826 0.18766 0.92535 0.0
C14 C 0.12541 0.15268 0.8691 0.0
C15 C 0.15352 0.17167 0.84845 0.0
C16 C 0.17472 0.19857 0.86572 0.0
C17 C 0.16646 0.20671 0.90407 0.0
H18 H 0.89991 0.13995 0.58474 0.0
H19 H 0.84654 0.16325 0.69196 0.0
H20 H 0.81773 0.22412 0.59372 0.0
C21 C 0.8811 0.1567 0.60155 0.0
C22 C 0.86106 0.18417 0.5844 0.0
C23 C 0.87587 0.14946 0.64009 0.0
C24 C 0.8501 0.16936 0.66213 0.0
C25 C 0.8282 0.19611 0.6457 0.0
C26 C 0.83434 0.20362 0.60679 0.0
H27 H 0.62282 0.36399 0.07631 0.0
H28 H 0.67393 0.33572 0.18333 0.0
H29 H 0.69985 0.27622 0.08335 0.0
C30 C 0.64097 0.34644 0.09269 0.0
C31 C 0.66019 0.31895 0.07463 0.0
C32 C 0.64508 0.35186 0.13189 0.0
C33 C 0.66967 0.3304 0.15335 0.0
C34 C 0.6905 0.30353 0.13596 0.0
C35 C 0.68507 0.29765 0.09664 0.0
H36 H 0.61578 0.63753 0.57589 0.0
H37 H 0.69738 0.72299 0.58382 0.0
H38 H 0.67931 0.65635 0.67952 0.0
C39 C 0.63618 0.65362 0.59202 0.0
C40 C 0.64423 0.64505 0.62986 0.0
C41 C 0.6554 0.68153 0.57459 0.0
C42 C 0.68313 0.70089 0.59632 0.0
C43 C 0.69184 0.69224 0.63449 0.0
C44 C 0.67238 0.66399 0.65066 0.0
H45 H 0.90598 0.849 0.08949 0.0
H46 H 0.83941 0.83221 0.19172 0.0
H47 H 0.80636 0.77789 0.08992 0.0
C48 C 0.88186 0.83564 0.10399 0.0
C49 C 0.85715 0.81225 0.08423 0.0
C50 C 0.87469 0.84339 0.14222 0.0
C51 C 0.84437 0.82613 0.16204 0.0
C52 C 0.82026 0.80166 0.14372 0.0
C53 C 0.82652 0.79518 0.10465 0.0
H54 H 0.10929 0.85947 0.42642 0.0
H55 H 0.18906 0.77316 0.42136 0.0
H56 H 0.16969 0.83537 0.32251 0.0
C57 C 0.12892 0.8425 0.41079 0.0
C58 C 0.13616 0.84926 0.37236 0.0
C59 C 0.14773 0.81503 0.4292 0.0
C60 C 0.17469 0.79477 0.40809 0.0
C61 C 0.18292 0.80194 0.36957 0.0
C62 C 0.1632 0.82916 0.35189 0.0
H63 H 0.37894 0.62882 0.92622 0.0
H64 H 0.3277 0.65878 0.8198 0.0
H65 H 0.30201 0.7167 0.921 0.0
C66 C 0.3607 0.64656 0.91019 0.0
C67 C 0.34149 0.67374 0.9288 0.0
C68 C 0.35656 0.64176 0.87089 0.0
C69 C 0.33196 0.66358 0.84989 0.0
C70 C 0.3112 0.69021 0.86783 0.0
C71 C 0.31667 0.69543 0.90725 0.0
Zn72 Zn 0.02875 0.14017 0.32115 0.0
Zn73 Zn 0.97005 0.13802 0.18934 0.0
Zn74 Zn -0.00035 0.14002 0.25511 0.0
C75 C 0.03714 0.17759 0.18079 0.0
C76 C 0.98285 0.07159 0.20543 0.0
O77 O 0.95599 0.16559 0.29476 0.0
O78 O 0.99196 0.17154 0.3473 0.0
C79 C 0.08749 0.16957 0.27656 0.0
O80 O 0.04173 0.16703 0.21522 0.0
O81 O 0.00509 0.17082 0.16289 0.0
O82 O 0.97597 0.08958 0.17656 0.0
O83 O 0.99131 0.08595 0.23749 0.0
O84 O 0.08297 0.15696 0.30917 0.0
O85 O 0.0586 0.1678 0.25199 0.0
O86 O 0.01139 0.08683 0.27319 0.0
O87 O 0.02573 0.09164 0.33428 0.0
C88 C 0.02046 0.07317 0.30538 0.0
O89 O 0.93919 0.16498 0.25805 0.0
O90 O 0.91488 0.15223 0.20126 0.0
C91 C 0.95975 0.17672 0.32912 0.0
C92 C 0.90997 0.16506 0.23374 0.0
Zn93 Zn 0.52163 0.35187 0.6843 0.0
Zn94 Zn 0.48493 0.36215 0.82151 0.0
Zn95 Zn 0.50285 0.35518 0.75235 0.0
C96 C 0.48126 0.42637 0.79479 0.0
C97 C 0.42619 0.31942 0.79119 0.0
O98 O 0.56022 0.3252 0.74919 0.0
O99 O 0.56353 0.31749 0.68712 0.0
C100 C 0.53023 0.41903 0.69969 0.0
O101 O 0.49415 0.41014 0.76532 0.0
O102 O 0.47328 0.41072 0.82506 0.0
O103 O 0.43947 0.33017 0.82261 0.0
O104 O 0.44426 0.32768 0.76004 0.0
O105 O 0.53888 0.39848 0.67346 0.0
O106 O 0.5144 0.40785 0.7308 0.0
O107 O 0.45112 0.33002 0.72081 0.0
O108 O 0.47115 0.33737 0.66142 0.0
C109 C 0.44477 0.32747 0.68467 0.0
O110 O 0.55259 0.33153 0.7877 0.0
O111 O 0.53446 0.34717 0.84565 0.0
C112 C 0.57709 0.31151 0.71989 0.0
C113 C 0.55937 0.33298 0.82386 0.0
Zn114 Zn 0.03594 0.86074 0.81872 0.0
Zn115 Zn 0.97182 0.85348 0.69274 0.0
Zn116 Zn 0.0023 0.8549 0.75763 0.0
C117 C 0.98064 0.92064 0.70602 0.0
C118 C 0.91422 0.82534 0.74019 0.0
O119 O 0.06327 0.83097 0.75299 0.0
O120 O 0.09219 0.85148 0.80466 0.0
C121 C 0.01727 0.92485 0.80583 0.0
O122 O 0.98941 0.90758 0.7386 0.0
O123 O 0.97559 0.90162 0.67752 0.0
O124 O 0.91782 0.83811 0.70756 0.0
O125 O 0.94401 0.82651 0.76384 0.0
O126 O 0.02534 0.90755 0.8349 0.0
O127 O 0.00944 0.90968 0.77408 0.0
O128 O 0.96379 0.82657 0.7997 0.0
O129 O 0.00775 0.82479 0.84669 0.0
C130 C 0.97391 0.8162 0.83314 0.0
O131 O 0.04469 0.82947 0.71688 0.0
O132 O 0.00659 0.82053 0.6663 0.0
C133 C 0.0948 0.83477 0.7742 0.0
C134 C 0.03983 0.8169 0.68329 0.0
Zn135 Zn 0.51912 0.63443 0.18458 0.0
Zn136 Zn 0.47212 0.6398 0.32226 0.0
Zn137 Zn 0.49722 0.63824 0.25413 0.0
C138 C 0.54208 0.67726 0.32444 0.0
C139 C 0.48349 0.57208 0.30792 0.0
O140 O 0.44845 0.66045 0.21647 0.0
O141 O 0.47169 0.65143 0.15837 0.0
C142 C 0.57387 0.67784 0.22102 0.0
O143 O 0.54313 0.66644 0.28976 0.0
O144 O 0.5116 0.67132 0.34486 0.0
O145 O 0.47655 0.59143 0.33573 0.0
O146 O 0.49144 0.58494 0.27503 0.0
O147 O 0.56433 0.66633 0.18875 0.0
O148 O 0.55359 0.66908 0.2507 0.0
O149 O 0.50999 0.58434 0.23915 0.0
O150 O 0.53021 0.5858 0.17923 0.0
C151 C 0.52296 0.56919 0.20903 0.0
O152 O 0.43631 0.66256 0.25431 0.0
O153 O 0.41701 0.65608 0.31402 0.0
C154 C 0.44439 0.66236 0.17999 0.0
C155 C 0.4095 0.66576 0.28066 0.0
C156 C 0.13835 0.90967 0.35314 0.0
C157 C 0.11723 0.87894 0.35448 0.0
C158 C 0.11946 0.93924 0.34015 0.0
C159 C 0.07861 0.93777 0.32802 0.0
C160 C 0.05787 0.90626 0.32754 0.0
C161 C 0.0774 0.87713 0.3412 0.0
C162 C 0.14263 0.97234 0.34109 0.0
C163 C 0.01484 0.90359 0.31362 0.0
C164 C 0.02396 0.02055 0.34402 0.0
C165 C 0.0286 0.03649 0.30873 0.0
C166 C 0.03806 0.98752 0.35 0.0
C167 C 0.05685 0.96984 0.31977 0.0
C168 C 0.05896 0.98488 0.2833 0.0
C169 C 0.04563 0.01839 0.27843 0.0
C170 C 0.03529 0.97249 0.38939 0.0
C171 C 0.07755 0.96666 0.24992 0.0
H172 H 0.1692 0.91075 0.36354 0.0
H173 H 0.06137 0.85309 0.34224 0.0
H174 H 0.14199 0.98447 0.31267 0.0
H175 H 0.12808 0.99008 0.3614 0.0
H176 H 0.17465 0.96886 0.34974 0.0
H177 H 0.00413 0.87686 0.31206 0.0
H178 H 0.99455 0.91793 0.33286 0.0
H179 H 0.01227 0.91518 0.28503 0.0
H180 H 0.01081 0.0345 0.36752 0.0
H181 H 0.05003 0.03082 0.25129 0.0
H182 H 0.06612 0.96988 0.40151 0.0
H183 H 0.02166 0.94675 0.3882 0.0
H184 H 0.01705 0.98843 0.40896 0.0
H185 H 0.11069 0.97109 0.25005 0.0
H186 H 0.06531 0.97633 0.22258 0.0
H187 H 0.07218 0.93888 0.25133 0.0
C188 C 0.40566 0.61835 0.82367 0.0
C189 C 0.37673 0.61288 0.85211 0.0
C190 C 0.42667 0.59095 0.80744 0.0
C191 C 0.41774 0.5575 0.81956 0.0
C192 C 0.38729 0.55196 0.84723 0.0
C193 C 0.36751 0.57978 0.86348 0.0
C194 C 0.45947 0.59787 0.77865 0.0
C195 C 0.3763 0.51665 0.86048 0.0
C196 C 0.44493 0.47614 0.76851 0.0
C197 C 0.47343 0.46297 0.79383 0.0
C198 C 0.42854 0.50857 0.77452 0.0
C199 C 0.44189 0.52815 0.806 0.0
C200 C 0.47414 0.51628 0.8288 0.0
C201 C 0.48897 0.48347 0.82288 0.0
C202 C 0.39412 0.52019 0.74966 0.0
C203 C 0.49041 0.53686 0.8617 0.0
H204 H 0.41273 0.64411 0.81506 0.0
H205 H 0.34482 0.57573 0.88525 0.0
H206 H 0.48939 0.5926 0.79161 0.0
H207 H 0.45625 0.58084 0.75368 0.0
H208 H 0.45923 0.62463 0.76873 0.0
H209 H 0.34961 0.51658 0.87962 0.0
H210 H 0.36968 0.50004 0.83572 0.0
H211 H 0.40219 0.50541 0.876 0.0
H212 H 0.43291 0.46002 0.74614 0.0
H213 H 0.51132 0.47316 0.84221 0.0
H214 H 0.39702 0.54756 0.74284 0.0
H215 H 0.36521 0.51664 0.76516 0.0
H216 H 0.3925 0.50551 0.7227 0.0
H217 H 0.49436 0.56383 0.85347 0.0
H218 H 0.51985 0.52696 0.87199 0.0
H219 H 0.46854 0.53597 0.88557 0.0
C220 C 0.64759 0.58801 0.66001 0.0
C221 C 0.6243 0.61522 0.64713 0.0
C222 C 0.62914 0.55814 0.6731 0.0
C223 C 0.58638 0.55585 0.67404 0.0
C224 C 0.56278 0.58416 0.66328 0.0
C225 C 0.58207 0.6134 0.64932 0.0
C226 C 0.65541 0.52834 0.68367 0.0
C227 C 0.5172 0.58303 0.66489 0.0
C228 C 0.5457 0.46738 0.65681 0.0
C229 C 0.53963 0.45543 0.69391 0.0
C230 C 0.55961 0.50039 0.65004 0.0
C231 C 0.56684 0.52242 0.68113 0.0
C232 C 0.55862 0.51125 0.7186 0.0
C233 C 0.54585 0.47758 0.7246 0.0
C234 C 0.56844 0.51107 0.60963 0.0
C235 C 0.56465 0.53445 0.75232 0.0
H236 H 0.68027 0.58956 0.65821 0.0
H237 H 0.56417 0.63472 0.63968 0.0
H238 H 0.64685 0.51844 0.71204 0.0
H239 H 0.65073 0.50749 0.66284 0.0
H240 H 0.68805 0.53508 0.68409 0.0
H241 H 0.50374 0.60867 0.66186 0.0
H242 H 0.50552 0.56672 0.64157 0.0
H243 H 0.50683 0.57177 0.69209 0.0
H244 H 0.5408 0.45048 0.63287 0.0
H245 H 0.54259 0.46826 0.75329 0.0
H246 H 0.60119 0.51665 0.60652 0.0
H247 H 0.55183 0.53463 0.60265 0.0
H248 H 0.55996 0.4912 0.5886 0.0
H249 H 0.59713 0.541 0.7553 0.0
H250 H 0.55413 0.52272 0.77925 0.0
H251 H 0.54803 0.55854 0.74791 0.0
C252 C 0.93602 0.8731 0.16801 0.0
C253 C 0.89465 0.87315 0.15959 0.0
C254 C 0.9553 0.90274 0.18126 0.0
C255 C 0.93287 0.93318 0.18447 0.0
C256 C 0.89078 0.93286 0.17695 0.0
C257 C 0.87213 0.9027 0.16505 0.0
C258 C -0.00018 0.90164 0.19047 0.0
C259 C 0.86576 0.96478 0.17957 0.0
C260 C 0.96389 0.01516 0.23311 0.0
C261 C 0.97734 0.03442 0.20213 0.0
C262 C 0.9531 0.98087 0.22862 0.0
C263 C 0.95343 0.96619 0.19184 0.0
C264 C 0.96838 0.9852 0.16073 0.0
C265 C 0.98063 0.01891 0.16639 0.0
C266 C 0.93899 0.96134 0.263 0.0
C267 C 0.9686 0.97084 0.12088 0.0
H268 H 0.95327 0.85006 0.16382 0.0
H269 H 0.84013 0.90253 0.15829 0.0
H270 H 0.0174 0.91037 0.16549 0.0
H271 H 0.00727 0.91864 0.21468 0.0
H272 H 0.0097 0.87547 0.19748 0.0
H273 H 0.83339 0.96013 0.17282 0.0
H274 H 0.86785 0.97562 0.20861 0.0
H275 H 0.87769 0.98411 0.15954 0.0
H276 H 0.96014 0.02717 0.26059 0.0
H277 H 0.99094 0.03372 0.1423 0.0
H278 H 0.94403 0.93366 0.25978 0.0
H279 H 0.90616 0.96563 0.26712 0.0
H280 H 0.95484 0.97029 0.28905 0.0
H281 H 0.98505 0.9464 0.1202 0.0
H282 H 0.98287 0.9884 0.10013 0.0
H283 H 0.93708 0.9657 0.11158 0.0
C284 C 0.87134 0.08861 0.65654 0.0
C285 C 0.89394 0.11863 0.65618 0.0
C286 C 0.88865 0.05812 0.66869 0.0
C287 C 0.92944 0.05789 0.68098 0.0
C288 C 0.95185 0.08859 0.68212 0.0
C289 C 0.93386 0.11872 0.6693 0.0
C290 C 0.86371 0.02595 0.66709 0.0
C291 C 0.99491 0.0894 0.6962 0.0
C292 C 0.95689 0.97633 0.73158 0.0
C293 C 0.9735 0.95739 0.70175 0.0
C294 C 0.94543 0.01025 0.72621 0.0
C295 C 0.94909 0.02496 0.68967 0.0
C296 C 0.96724 0.00629 0.65984 0.0
C297 C 0.97939 0.97278 0.66632 0.0
C298 C 0.92711 0.0293 0.75915 0.0
C299 C 0.97149 0.02093 0.62039 0.0
H300 H 0.84041 0.0889 0.6463 0.0
H301 H 0.95104 0.14221 0.66903 0.0
H302 H 0.87778 0.00765 0.64712 0.0
H303 H 0.86291 0.01382 0.69551 0.0
H304 H 0.83216 0.03068 0.65771 0.0
H305 H 0.00679 0.1157 0.69897 0.0
H306 H 0.99686 0.07672 0.72422 0.0
H307 H 0.01457 0.07514 0.67633 0.0
H308 H 0.95142 0.96432 0.75879 0.0
H309 H 0.9922 0.95815 0.64317 0.0
H310 H 0.89393 0.02508 0.75919 0.0
H311 H 0.93277 0.057 0.75715 0.0
H312 H 0.93927 0.01999 0.78668 0.0
H313 H 0.94105 0.02467 0.60781 0.0
H314 H 0.98914 0.00416 0.60122 0.0
H315 H 0.98651 0.04612 0.6216 0.0
C316 C 0.63563 0.41405 0.13894 0.0
C317 C 0.62514 0.38115 0.15006 0.0
C318 C 0.61642 0.44229 0.15491 0.0
C319 C 0.58524 0.43739 0.182 0.0
C320 C 0.57492 0.40412 0.19378 0.0
C321 C 0.59539 0.37628 0.17789 0.0
C322 C 0.62889 0.47737 0.14207 0.0
C323 C 0.54131 0.3979 0.22194 0.0
C324 C 0.55925 0.51872 0.2339 0.0
C325 C 0.53125 0.53263 0.20859 0.0
C326 C 0.57515 0.48619 0.22743 0.0
C327 C 0.5619 0.46727 0.19541 0.0
C328 C 0.53035 0.47999 0.17233 0.0
C329 C 0.51593 0.51285 0.1788 0.0
C330 C 0.60883 0.47364 0.25263 0.0
C331 C 0.51424 0.46015 0.1388 0.0
H332 H 0.65894 0.41762 0.11765 0.0
H333 H 0.58737 0.35067 0.18632 0.0
H334 H 0.60368 0.48934 0.12624 0.0
H335 H 0.63565 0.49368 0.16704 0.0
H336 H 0.6559 0.47687 0.12334 0.0
H337 H 0.54005 0.37102 0.23136 0.0
H338 H 0.54499 0.41444 0.24726 0.0
H339 H 0.5119 0.40444 0.20869 0.0
H340 H 0.57104 0.53425 0.25689 0.0
H341 H 0.49393 0.52371 0.1595 0.0
H342 H 0.63806 0.47666 0.23753 0.0
H343 H 0.60497 0.44629 0.25913 0.0
H344 H 0.61049 0.48806 0.27976 0.0
H345 H 0.53674 0.46071 0.11544 0.0
H346 H 0.48543 0.47085 0.12795 0.0
H347 H 0.50915 0.4332 0.14659 0.0
C348 C 0.36303 0.41051 0.35353 0.0
C349 C 0.38318 0.38044 0.36238 0.0
C350 C 0.38443 0.43897 0.3405 0.0
C351 C 0.42688 0.43693 0.33543 0.0
C352 C 0.44698 0.40587 0.34231 0.0
C353 C 0.42491 0.37806 0.3564 0.0
C354 C 0.36185 0.47171 0.334 0.0
C355 C 0.4919 0.40234 0.33609 0.0
C356 C 0.46695 0.5139 0.28293 0.0
C357 C 0.47792 0.53508 0.31333 0.0
C358 C 0.45403 0.48035 0.28931 0.0
C359 C 0.45017 0.46842 0.32708 0.0
C360 C 0.46356 0.48899 0.35765 0.0
C361 C 0.47775 0.52186 0.35033 0.0
C362 C 0.44189 0.45864 0.25579 0.0
C363 C 0.45975 0.47744 0.39843 0.0
H364 H 0.33071 0.41212 0.35828 0.0
H365 H 0.44027 0.35454 0.36309 0.0
H366 H 0.37295 0.49139 0.35411 0.0
H367 H 0.3675 0.48118 0.30481 0.0
H368 H 0.32872 0.46869 0.33796 0.0
H369 H 0.50127 0.3753 0.33509 0.0
H370 H 0.5012 0.41489 0.30926 0.0
H371 H 0.50843 0.41496 0.35968 0.0
H372 H 0.46581 0.52407 0.25443 0.0
H373 H 0.48645 0.53799 0.37399 0.0
H374 H 0.40848 0.45849 0.25309 0.0
H375 H 0.45181 0.43201 0.25984 0.0
H376 H 0.4549 0.4684 0.22882 0.0
H377 H 0.42729 0.47529 0.40604 0.0
H378 H 0.4745 0.49533 0.41863 0.0
H379 H 0.4734 0.45201 0.40211 0.0
C380 C 0.12808 0.0922 0.85007 0.0
C381 C 0.10632 0.12246 0.85204 0.0
C382 C 0.10944 0.0621 0.83787 0.0
C383 C 0.06823 0.06254 0.82679 0.0
C384 C 0.04675 0.09359 0.82689 0.0
C385 C 0.06597 0.12321 0.84014 0.0
C386 C 0.13337 0.02953 0.83855 0.0
C387 C 0.00313 0.09558 0.81458 0.0
C388 C 0.03827 0.98044 0.77781 0.0
C389 C 0.02201 0.96207 0.80826 0.0
C390 C 0.0501 0.01448 0.78237 0.0
C391 C 0.04725 0.02986 0.81869 0.0
C392 C 0.02879 0.01195 0.84893 0.0
C393 C 0.01616 0.97834 0.84325 0.0
C394 C 0.06817 0.03285 0.74883 0.0
C395 C 0.02512 0.02736 0.88811 0.0
H396 H 0.15931 0.09191 0.85949 0.0
H397 H 0.04931 0.14682 0.84174 0.0
H398 H 0.119 0.01123 0.85839 0.0
H399 H 0.13337 0.01771 0.80992 0.0
H400 H 0.1652 0.03364 0.84759 0.0
H401 H 0.99626 0.12085 0.80224 0.0
H402 H 0.99542 0.07572 0.7934 0.0
H403 H 0.98337 0.09201 0.83972 0.0
H404 H 0.04368 0.9678 0.75091 0.0
H405 H 0.00359 0.96416 0.86686 0.0
H406 H 0.10103 0.02744 0.74752 0.0
H407 H 0.06419 0.06073 0.75102 0.0
H408 H 0.05434 0.02385 0.72181 0.0
H409 H 0.05573 0.03224 0.89994 0.0
H410 H 0.00839 0.01062 0.90807 0.0
H411 H 0.00932 0.05208 0.88651 0.0
C412 C 0.16172 0.2063 0.99096 0.0
C413 C 0.13072 0.1947 0.96668 0.0
C414 C 0.15519 0.21039 0.03029 0.0
C415 C 0.11734 0.20124 0.04609 0.0
C416 C 0.08575 0.19028 0.02168 0.0
C417 C 0.09251 0.18808 0.98243 0.0
C418 C 0.18936 0.22353 0.05473 0.0
C419 C 0.04492 0.17974 0.03706 0.0
C420 C 0.0988 0.16649 0.14435 0.0
C421 C 0.07116 0.19036 0.15803 0.0
C422 C 0.11804 0.17126 0.10916 0.0
C423 C 0.11033 0.20116 0.08804 0.0
C424 C 0.08774 0.22763 0.10498 0.0
C425 C 0.06745 0.22157 0.13941 0.0
C426 C 0.14196 0.14235 0.09241 0.0
C427 C 0.08126 0.26088 0.08475 0.0
H428 H 0.19155 0.21137 0.97962 0.0
H429 H 0.06773 0.18044 0.96413 0.0
H430 H 0.17808 0.23766 0.07986 0.0
H431 H 0.20763 0.20184 0.06494 0.0
H432 H 0.2097 0.24046 0.0382 0.0
H433 H 0.02448 0.16986 0.01449 0.0
H434 H 0.04864 0.15971 0.05893 0.0
H435 H 0.03004 0.20169 0.05088 0.0
H436 H 0.10125 0.14217 0.15857 0.0
H437 H 0.04591 0.24001 0.14992 0.0
H438 H 0.17064 0.15179 0.08004 0.0
H439 H 0.12423 0.13036 0.06913 0.0
H440 H 0.14905 0.12261 0.11391 0.0
H441 H 0.10923 0.26901 0.06984 0.0
H442 H 0.07196 0.28118 0.10484 0.0
H443 H 0.05709 0.25781 0.06313 0.0
C444 C 0.31597 0.30244 0.50053 0.0
C445 C 0.34888 0.3113 0.47719 0.0
C446 C 0.32063 0.29866 0.54015 0.0
C447 C 0.3588 0.30499 0.55707 0.0
C448 C 0.39231 0.31288 0.53353 0.0
C449 C 0.38708 0.31523 0.49407 0.0
C450 C 0.28425 0.28907 0.56366 0.0
C451 C 0.4337 0.32005 0.55006 0.0
C452 C 0.38137 0.34178 0.65333 0.0
C453 C 0.40625 0.31627 0.66796 0.0
C454 C 0.36068 0.33707 0.61882 0.0
C455 C 0.36434 0.30577 0.59926 0.0
C456 C 0.383 0.27805 0.61782 0.0
C457 C 0.4044 0.28377 0.65184 0.0
C458 C 0.34036 0.36719 0.60069 0.0
C459 C 0.38506 0.24358 0.59928 0.0
H460 H 0.28617 0.29942 0.48814 0.0
H461 H 0.41308 0.32084 0.47644 0.0
H462 H 0.29287 0.27482 0.58959 0.0
H463 H 0.26827 0.31246 0.57257 0.0
H464 H 0.26265 0.27343 0.54685 0.0
H465 H 0.45623 0.32686 0.52793 0.0
H466 H 0.43195 0.34127 0.57078 0.0
H467 H 0.44486 0.29744 0.56552 0.0
H468 H 0.38294 0.36699 0.66572 0.0
H469 H 0.42368 0.26396 0.66307 0.0
H470 H 0.31114 0.35961 0.58771 0.0
H471 H 0.35996 0.37727 0.57769 0.0
H472 H 0.33484 0.38787 0.62153 0.0
H473 H 0.35645 0.23764 0.5841 0.0
H474 H 0.39109 0.22338 0.62051 0.0
H475 H 0.40991 0.24338 0.57812 0.0
C476 C 0.61644 0.31988 0.01624 0.0
C477 C 0.6541 0.31305 0.03291 0.0
C478 C 0.61063 0.31769 0.97684 0.0
C479 C 0.6429 0.30724 0.95309 0.0
C480 C 0.68038 0.29834 0.96976 0.0
C481 C 0.68573 0.3018 0.00938 0.0
C482 C 0.57003 0.3276 0.96058 0.0
C483 C 0.71535 0.2862 0.94592 0.0
C484 C 0.59501 0.28776 0.85849 0.0
C485 C 0.59626 0.32006 0.842 0.0
C486 C 0.61569 0.28124 0.89269 0.0
C487 C 0.63702 0.30797 0.91094 0.0
C488 C 0.64344 0.33878 0.89112 0.0
C489 C 0.62316 0.34433 0.85662 0.0
C490 C 0.61018 0.24728 0.91169 0.0
C491 C 0.6665 0.36784 0.90895 0.0
H492 H 0.59133 0.32745 0.03404 0.0
H493 H 0.71508 0.29652 0.02167 0.0
H494 H 0.57386 0.3487 0.94001 0.0
H495 H 0.55651 0.30585 0.94499 0.0
H496 H 0.5484 0.33582 0.98287 0.0
H497 H 0.73647 0.27045 0.9629 0.0
H498 H 0.70484 0.27121 0.92104 0.0
H499 H 0.73247 0.30846 0.93519 0.0
H500 H 0.57406 0.26896 0.84735 0.0
H501 H 0.62391 0.36942 0.84396 0.0
H502 H 0.58547 0.24902 0.9329 0.0
H503 H 0.63812 0.23968 0.9269 0.0
H504 H 0.60203 0.22723 0.89076 0.0
H505 H 0.64767 0.37961 0.93147 0.0
H506 H 0.67433 0.38769 0.88778 0.0
H507 H 0.6947 0.35871 0.92246 0.0
C508 C 0.90523 0.18482 0.5264 0.0
C509 C 0.8674 0.19116 0.54295 0.0
C510 C 0.91114 0.18721 0.48707 0.0
C511 C 0.87898 0.19793 0.46335 0.0
C512 C 0.84142 0.20664 0.47995 0.0
C513 C 0.8358 0.20251 0.51941 0.0
C514 C 0.95175 0.17727 0.47087 0.0
C515 C 0.80666 0.21938 0.45621 0.0
C516 C 0.92788 0.21994 0.37025 0.0
C517 C 0.92504 0.18867 0.35142 0.0
C518 C 0.90738 0.22544 0.40467 0.0
C519 C 0.88533 0.19841 0.42131 0.0
C520 C 0.87819 0.16849 0.39984 0.0
C521 C 0.89773 0.16422 0.36471 0.0
C522 C 0.91339 0.25863 0.42535 0.0
C523 C 0.85474 0.13906 0.41622 0.0
H524 H 0.93039 0.17731 0.54418 0.0
H525 H 0.80628 0.20737 0.53147 0.0
H526 H 0.94779 0.15727 0.4489 0.0
H527 H 0.96613 0.19948 0.45698 0.0
H528 H 0.97274 0.1676 0.49298 0.0
H529 H 0.78607 0.23552 0.47335 0.0
H530 H 0.81735 0.2342 0.43136 0.0
H531 H 0.78885 0.19743 0.44553 0.0
H532 H 0.94911 0.23887 0.36001 0.0
H533 H 0.89589 0.13989 0.3503 0.0
H534 H 0.93774 0.25581 0.44682 0.0
H535 H 0.88539 0.26613 0.44051 0.0
H536 H 0.92226 0.27927 0.40552 0.0
H537 H 0.87304 0.12679 0.43878 0.0
H538 H 0.84729 0.11968 0.39429 0.0
H539 H 0.82629 0.14796 0.42943 0.0
C540 C 0.85493 0.7755 0.02474 0.0
C541 C 0.86264 0.80704 0.04223 0.0
C542 C 0.86294 0.77022 0.98582 0.0
C543 C 0.88087 0.79656 0.96416 0.0
C544 C 0.88695 0.82882 0.98116 0.0
C545 C 0.8767 0.83385 0.01941 0.0
C546 C 0.85359 0.73592 0.96877 0.0
C547 C 0.90662 0.8577 0.95968 0.0
C548 C 0.96171 0.78218 0.89099 0.0
C549 C 0.9454 0.79925 0.85956 0.0
C550 C 0.93943 0.77792 0.92445 0.0
C551 C 0.89918 0.78982 0.92606 0.0
C552 C 0.88045 0.80167 0.89229 0.0
C553 C 0.90403 0.80685 0.85938 0.0
C554 C 0.96071 0.76451 0.95932 0.0
C555 C 0.83653 0.81163 0.8918 0.0
H556 H 0.84377 0.75444 0.04152 0.0
H557 H 0.88079 0.85888 0.0316 0.0
H558 H 0.85078 0.7369 0.93736 0.0
H559 H 0.87799 0.7179 0.97629 0.0
H560 H 0.82502 0.72562 0.98075 0.0
H561 H 0.91018 0.8809 0.97739 0.0
H562 H 0.93696 0.84992 0.94952 0.0
H563 H 0.88829 0.86425 0.93438 0.0
H564 H 0.99344 0.77534 0.89085 0.0
H565 H 0.89091 0.81949 0.83499 0.0
H566 H 0.94309 0.74343 0.97198 0.0
H567 H 0.96317 0.78493 0.981 0.0
H568 H 0.99159 0.75514 0.95288 0.0
H569 H 0.81848 0.79515 0.91099 0.0
H570 H 0.82381 0.81001 0.8626 0.0
H571 H 0.83346 0.83823 0.90174 0.0
C572 C 0.67669 0.70163 0.50893 0.0
C573 C 0.64654 0.68949 0.53368 0.0
C574 C 0.66892 0.70626 0.46981 0.0
C575 C 0.63056 0.69737 0.45473 0.0
C576 C 0.59981 0.68595 0.47972 0.0
C577 C 0.60788 0.68301 0.51871 0.0
C578 C 0.70231 0.71972 0.44479 0.0
C579 C 0.55843 0.6758 0.46522 0.0
C580 C 0.57644 0.72042 0.36431 0.0
C581 C 0.57836 0.68952 0.34463 0.0
C582 C 0.59876 0.72553 0.39791 0.0
C583 C 0.62184 0.69848 0.41296 0.0
C584 C 0.62799 0.66907 0.39045 0.0
C585 C 0.60657 0.66519 0.35613 0.0
C586 C 0.59373 0.75831 0.41956 0.0
C587 C 0.65256 0.63965 0.40501 0.0
H588 H 0.70678 0.7067 0.51979 0.0
H589 H 0.58373 0.67495 0.53745 0.0
H590 H 0.71985 0.69812 0.43321 0.0
H591 H 0.69024 0.73454 0.42053 0.0
H592 H 0.72351 0.73605 0.46123 0.0
H593 H 0.53873 0.66553 0.48806 0.0
H594 H 0.54318 0.69805 0.45246 0.0
H595 H 0.5613 0.65619 0.44269 0.0
H596 H 0.55452 0.73926 0.35556 0.0
H597 H 0.60775 0.64112 0.34115 0.0
H598 H 0.62253 0.76587 0.4335 0.0
H599 H 0.57067 0.75484 0.4421 0.0
H600 H 0.58363 0.77916 0.40063 0.0
H601 H 0.68167 0.6487 0.41698 0.0
H602 H 0.65886 0.62075 0.38233 0.0
H603 H 0.63569 0.62679 0.42818 0.0
C604 C 0.31604 0.68981 0.99436 0.0
C605 C 0.34768 0.67906 0.97057 0.0
C606 C 0.32158 0.69303 0.03397 0.0
C607 C 0.35933 0.68446 0.05032 0.0
C608 C 0.39155 0.67437 0.02633 0.0
C609 C 0.3855 0.67233 0.98696 0.0
C610 C 0.28664 0.70465 0.05816 0.0
C611 C 0.43244 0.6649 0.04228 0.0
C612 C 0.40754 0.70604 0.14416 0.0
C613 C 0.40722 0.674 0.16133 0.0
C614 C 0.38649 0.71165 0.10999 0.0
C615 C 0.36576 0.68427 0.09239 0.0
C616 C 0.36044 0.65358 0.11274 0.0
C617 C 0.38109 0.64893 0.14724 0.0
C618 C 0.39107 0.74541 0.09031 0.0
C619 C 0.33812 0.62383 0.09553 0.0
H620 H 0.28656 0.69494 0.98225 0.0
H621 H 0.41058 0.66509 0.96894 0.0
H622 H 0.27093 0.68216 0.07011 0.0
H623 H 0.29712 0.72062 0.08228 0.0
H624 H 0.26433 0.71925 0.04122 0.0
H625 H 0.45398 0.65687 0.01982 0.0
H626 H 0.44578 0.68682 0.05772 0.0
H627 H 0.42911 0.6438 0.06292 0.0
H628 H 0.42797 0.72542 0.15488 0.0
H629 H 0.38118 0.62401 0.16034 0.0
H630 H 0.36279 0.75239 0.07528 0.0
H631 H 0.41554 0.7437 0.06885 0.0
H632 H 0.39907 0.76588 0.11077 0.0
H633 H 0.30974 0.63221 0.08174 0.0
H634 H 0.33074 0.60424 0.11714 0.0
H635 H 0.3573 0.61198 0.07333 0.0
C636 C 0.10136 0.81573 0.48579 0.0
C637 C 0.13947 0.80829 0.4704 0.0
C638 C 0.09375 0.81274 0.52481 0.0
C639 C 0.12434 0.80033 0.5493 0.0
C640 C 0.16217 0.79087 0.53388 0.0
C641 C 0.16958 0.79562 0.4948 0.0
C642 C 0.05297 0.82356 0.53985 0.0
C643 C 0.19528 0.77645 0.5585 0.0
C644 C 0.10277 0.83004 0.64915 0.0
C645 C 0.07423 0.80564 0.66011 0.0
C646 C 0.1233 0.827 0.61436 0.0
C647 C 0.11593 0.79831 0.59093 0.0
C648 C 0.0923 0.77112 0.60517 0.0
C649 C 0.07084 0.77546 0.63925 0.0
C650 C 0.14827 0.85659 0.60048 0.0
C651 C 0.08587 0.73912 0.58231 0.0
H652 H 0.07724 0.82429 0.46736 0.0
H653 H 0.19933 0.78999 0.48368 0.0
H654 H 0.03689 0.8014 0.55211 0.0
H655 H 0.05687 0.8426 0.56287 0.0
H656 H 0.03352 0.83475 0.5174 0.0
H657 H 0.21662 0.76088 0.54151 0.0
H658 H 0.21272 0.79756 0.57155 0.0
H659 H 0.18281 0.76056 0.58175 0.0
H660 H 0.10507 0.85352 0.66517 0.0
H661 H 0.04873 0.75656 0.64777 0.0
H662 H 0.1311 0.87042 0.57828 0.0
H663 H 0.17679 0.84764 0.58744 0.0
H664 H 0.1557 0.87464 0.62378 0.0
H665 H 0.06275 0.74372 0.56006 0.0
H666 H 0.07517 0.71789 0.60049 0.0
H667 H 0.11424 0.73144 0.5679 0.0
C668 C 0.24091 0.28037 0.36751 0.0
C669 C 0.27826 0.28932 0.35159 0.0
C670 C 0.21189 0.26236 0.34641 0.0
C671 C 0.22012 0.25331 0.30817 0.0
C672 C 0.25715 0.26325 0.29143 0.0
C673 C 0.28592 0.28086 0.31341 0.0
C674 C 0.17277 0.25221 0.36547 0.0
C675 C 0.26692 0.25441 0.25071 0.0
C676 C 0.16119 0.17446 0.2837 0.0
C677 C 0.12526 0.18839 0.26971 0.0
C678 C 0.19433 0.19515 0.29271 0.0
C679 C 0.19131 0.23066 0.28757 0.0
C680 C 0.15702 0.24425 0.26881 0.0
C681 C 0.12414 0.22281 0.26002 0.0
C682 C 0.23039 0.17939 0.31212 0.0
C683 C 0.15314 0.28184 0.2618 0.0
H684 H 0.23427 0.28746 0.39662 0.0
H685 H 0.31481 0.28739 0.30085 0.0
H686 H 0.14664 0.26151 0.34873 0.0
H687 H 0.17045 0.22412 0.36668 0.0
H688 H 0.17038 0.26235 0.39486 0.0
H689 H 0.29371 0.26862 0.24014 0.0
H690 H 0.2733 0.22687 0.24844 0.0
H691 H 0.2408 0.25986 0.23191 0.0
H692 H 0.16197 0.14774 0.29105 0.0
H693 H 0.09625 0.23359 0.24932 0.0
H694 H 0.22935 0.18531 0.34296 0.0
H695 H 0.25901 0.18997 0.30076 0.0
H696 H 0.23083 0.15135 0.30867 0.0
H697 H 0.14412 0.29462 0.2886 0.0
H698 H 0.12987 0.28733 0.23988 0.0
H699 H 0.18241 0.29296 0.25267 0.0
C700 C 0.21337 0.25156 0.84886 0.0
C701 C 0.20739 0.2165 0.8445 0.0
C702 C 0.24689 0.26788 0.83251 0.0
C703 C 0.27504 0.24875 0.81109 0.0
C704 C 0.26757 0.21391 0.80421 0.0
C705 C 0.23408 0.19814 0.82124 0.0
C706 C 0.25369 0.30514 0.84042 0.0
C707 C 0.29652 0.19267 0.78118 0.0
C708 C 0.36022 0.29866 0.76358 0.0
C709 C 0.38983 0.29753 0.79204 0.0
C710 C 0.323 0.28164 0.76835 0.0
C711 C 0.31548 0.26351 0.80246 0.0
C712 C 0.34627 0.26095 0.83022 0.0
C713 C 0.38295 0.27785 0.82457 0.0
C714 C 0.2912 0.28447 0.73778 0.0
C715 C 0.33989 0.24168 0.86688 0.0
H716 H 0.19242 0.26611 0.86597 0.0
H717 H 0.23005 0.171 0.8178 0.0
H718 H 0.27959 0.3082 0.86024 0.0
H719 H 0.26142 0.31877 0.81383 0.0
H720 H 0.22675 0.31728 0.85338 0.0
H721 H 0.28287 0.16801 0.77259 0.0
H722 H 0.30629 0.20646 0.75528 0.0
H723 H 0.32394 0.18744 0.79835 0.0
H724 H 0.36522 0.31416 0.73865 0.0
H725 H 0.40601 0.27655 0.84646 0.0
H726 H 0.26775 0.30277 0.74698 0.0
H727 H 0.27603 0.25966 0.73294 0.0
H728 H 0.3042 0.2935 0.71048 0.0
H729 H 0.31531 0.25371 0.88353 0.0
H730 H 0.36755 0.24106 0.8848 0.0
H731 H 0.33048 0.21518 0.86076 0.0
C732 C 0.77352 0.19661 0.69549 0.0
C733 C 0.79681 0.21426 0.66845 0.0
C734 C 0.74092 0.21212 0.71403 0.0
C735 C 0.73021 0.24568 0.70433 0.0
C736 C 0.75507 0.26443 0.67912 0.0
C737 C 0.78831 0.24862 0.66183 0.0
C738 C 0.71606 0.19164 0.74176 0.0
C739 C 0.7447 0.30034 0.668 0.0
C740 C 0.6196 0.26604 0.69338 0.0
C741 C 0.61332 0.28987 0.7224 0.0
C742 C 0.65707 0.25054 0.68837 0.0
C743 C 0.6891 0.25841 0.7136 0.0
C744 C 0.682 0.28012 0.74512 0.0
C745 C 0.64408 0.29597 0.74896 0.0
C746 C 0.66299 0.22748 0.65441 0.0
C747 C 0.71487 0.2882 0.77347 0.0
H748 H 0.77919 0.17 0.7009 0.0
H749 H 0.80676 0.26294 0.64207 0.0
H750 H 0.70657 0.20752 0.76624 0.0
H751 H 0.68829 0.18225 0.72742 0.0
H752 H 0.733 0.16936 0.7526 0.0
H753 H 0.7693 0.31269 0.65152 0.0
H754 H 0.71687 0.30017 0.65034 0.0
H755 H 0.73844 0.31588 0.69362 0.0
H756 H 0.59562 0.26088 0.6731 0.0
H757 H 0.63947 0.31456 0.77124 0.0
H758 H 0.6744 0.2024 0.66367 0.0
H759 H 0.68589 0.23864 0.63503 0.0
H760 H 0.6346 0.22342 0.63809 0.0
H761 H 0.73394 0.26565 0.77912 0.0
H762 H 0.7021 0.29743 0.80079 0.0
H763 H 0.73467 0.30843 0.76182 0.0
C764 C 0.71051 0.27345 0.19628 0.0
C765 C 0.71938 0.28285 0.15864 0.0
C766 C 0.7384 0.25513 0.21828 0.0
C767 C 0.77578 0.24555 0.2021 0.0
C768 C 0.78498 0.25515 0.16425 0.0
C769 C 0.7568 0.27375 0.14312 0.0
C770 C 0.72758 0.24555 0.25853 0.0
C771 C 0.82449 0.24537 0.14579 0.0
C772 C 0.87148 0.21692 0.25118 0.0
C773 C 0.87152 0.18266 0.2406 0.0
C774 C 0.8381 0.23758 0.24252 0.0
C775 C 0.80446 0.22334 0.22307 0.0
C776 C 0.80247 0.18784 0.21721 0.0
C777 C 0.83613 0.16794 0.22604 0.0
C778 C 0.84093 0.27518 0.25021 0.0
C779 C 0.7671 0.17139 0.19711 0.0
H780 H 0.68154 0.28012 0.20847 0.0
H781 H 0.76435 0.28154 0.11446 0.0
H782 H 0.72264 0.21773 0.26031 0.0
H783 H 0.75274 0.25198 0.27817 0.0
H784 H 0.69974 0.2585 0.26845 0.0
H785 H 0.8274 0.25556 0.11649 0.0
H786 H 0.85025 0.25494 0.16301 0.0
H787 H 0.82699 0.21731 0.14448 0.0
H788 H 0.89891 0.22831 0.2624 0.0
H789 H 0.8362 0.14131 0.21809 0.0
H790 H 0.81124 0.28551 0.25906 0.0
H791 H 0.8501 0.28843 0.22376 0.0
H792 H 0.86367 0.28099 0.27258 0.0
H793 H 0.73804 0.18159 0.20774 0.0
H794 H 0.76696 0.14337 0.20071 0.0
H795 H 0.76888 0.17707 0.16627 0.0
C796 C 0.75766 0.72387 0.64131 0.0
C797 C 0.7217 0.71194 0.65765 0.0
C798 C 0.78667 0.74127 0.66316 0.0
C799 C 0.77988 0.74665 0.70252 0.0
C800 C 0.74387 0.73446 0.71933 0.0
C801 C 0.71507 0.71761 0.69666 0.0
C802 C 0.82458 0.75412 0.64398 0.0
C803 C 0.73561 0.73946 0.76116 0.0
C804 C 0.87766 0.77131 0.75185 0.0
C805 C 0.87651 0.80658 0.74748 0.0
C806 C 0.84441 0.75113 0.74079 0.0
C807 C 0.80969 0.76685 0.72508 0.0
C808 C 0.80674 0.80267 0.72544 0.0
C809 C 0.84022 0.82209 0.73675 0.0
C810 C 0.84833 0.71302 0.74193 0.0
C811 C 0.77031 0.82064 0.70935 0.0
H812 H 0.76348 0.71916 0.61146 0.0
H813 H 0.68713 0.70903 0.70957 0.0
H814 H 0.82662 0.78213 0.64693 0.0
H815 H 0.85164 0.7432 0.65795 0.0
H816 H 0.82547 0.74759 0.61326 0.0
H817 H 0.70777 0.72602 0.77051 0.0
H818 H 0.7615 0.73021 0.77827 0.0
H819 H 0.73217 0.7669 0.76743 0.0
H820 H 0.90586 0.75929 0.75981 0.0
H821 H 0.83951 0.84943 0.73324 0.0
H822 H 0.85586 0.70353 0.71309 0.0
H823 H 0.81944 0.70095 0.75062 0.0
H824 H 0.87259 0.70493 0.76177 0.0
H825 H 0.77091 0.81882 0.67787 0.0
H826 H 0.76987 0.84793 0.71737 0.0
H827 H 0.74188 0.80858 0.71921 0.0
C828 C 0.77888 0.7498 0.15855 0.0
C829 C 0.78715 0.78427 0.16491 0.0
C830 C 0.74585 0.73376 0.17604 0.0
C831 C 0.72054 0.75257 0.20073 0.0
C832 C 0.73026 0.78674 0.20924 0.0
C833 C 0.76317 0.80228 0.19097 0.0
C834 C 0.73657 0.69723 0.16617 0.0
C835 C 0.7044 0.80754 0.23576 0.0
C836 C 0.61184 0.72485 0.192 0.0
C837 C 0.60778 0.70218 0.2224 0.0
C838 C 0.64765 0.74293 0.18612 0.0
C839 C 0.68038 0.7384 0.21147 0.0
C840 C 0.6753 0.7178 0.24422 0.0
C841 C 0.63882 0.69972 0.24931 0.0
C842 C 0.65135 0.76483 0.15103 0.0
C843 C 0.70913 0.71302 0.27242 0.0
H844 H 0.79779 0.73547 0.13921 0.0
H845 H 0.769 0.829 0.196 0.0
H846 H 0.73105 0.68229 0.19235 0.0
H847 H 0.70861 0.69603 0.14874 0.0
H848 H 0.76144 0.68513 0.14992 0.0
H849 H 0.72008 0.83111 0.24513 0.0
H850 H 0.67608 0.81481 0.22102 0.0
H851 H 0.69585 0.79257 0.26122 0.0
H852 H 0.58752 0.72706 0.17144 0.0
H853 H 0.63569 0.68211 0.27278 0.0
H854 H 0.67364 0.75347 0.13124 0.0
H855 H 0.66248 0.79053 0.15869 0.0
H856 H 0.62213 0.76749 0.13575 0.0
H857 H 0.73131 0.69476 0.26067 0.0
H858 H 0.69782 0.70288 0.29989 0.0
H859 H 0.72531 0.7373 0.27775 0.0
C860 C 0.20586 0.77119 0.31078 0.0
C861 C 0.21342 0.78202 0.34819 0.0
C862 C 0.23484 0.75259 0.29038 0.0
C863 C 0.27218 0.74473 0.30784 0.0
C864 C 0.28024 0.75628 0.34529 0.0
C865 C 0.25075 0.77468 0.36499 0.0
C866 C 0.22509 0.74061 0.25063 0.0
C867 C 0.31981 0.74866 0.36494 0.0
C868 C 0.33586 0.66766 0.29007 0.0
C869 C 0.37045 0.68235 0.27407 0.0
C870 C 0.30139 0.68709 0.29729 0.0
C871 C 0.30196 0.72218 0.28882 0.0
C872 C 0.33508 0.73617 0.26852 0.0
C873 C 0.36912 0.71589 0.26116 0.0
C874 C 0.26646 0.67088 0.31816 0.0
C875 C 0.33663 0.77334 0.25846 0.0
H876 H 0.17695 0.77675 0.29771 0.0
H877 H 0.25704 0.7836 0.39357 0.0
H878 H 0.25033 0.74665 0.231 0.0
H879 H 0.22125 0.71262 0.25057 0.0
H880 H 0.19694 0.75223 0.23947 0.0
H881 H 0.32212 0.761 0.39329 0.0
H882 H 0.32301 0.72085 0.36874 0.0
H883 H 0.34551 0.75743 0.34721 0.0
H884 H 0.33701 0.64159 0.29988 0.0
H885 H 0.39604 0.72723 0.24891 0.0
H886 H 0.23716 0.67958 0.30643 0.0
H887 H 0.2676 0.67849 0.34854 0.0
H888 H 0.26751 0.64273 0.31661 0.0
H889 H 0.30666 0.78246 0.24879 0.0
H890 H 0.3593 0.77851 0.2359 0.0
H891 H 0.34517 0.7882 0.28409 0.0
C892 C 0.29142 0.72143 0.80819 0.0
C893 C 0.28251 0.71146 0.84563 0.0
C894 C 0.26385 0.74059 0.78675 0.0
C895 C 0.22682 0.75052 0.80337 0.0
C896 C 0.21752 0.74027 0.84097 0.0
C897 C 0.24532 0.72076 0.86149 0.0
C898 C 0.27473 0.75077 0.7467 0.0
C899 C 0.17836 0.75037 0.85988 0.0
C900 C 0.16873 0.82988 0.78191 0.0
C901 C 0.1327 0.8162 0.7674 0.0
C902 C 0.20182 0.80908 0.78997 0.0
C903 C 0.1987 0.77376 0.7832 0.0
C904 C 0.1645 0.76066 0.76364 0.0
C905 C 0.13168 0.78217 0.75586 0.0
C906 C 0.23786 0.82434 0.81021 0.0
C907 C 0.16055 0.72331 0.75484 0.0
H908 H 0.32022 0.71461 0.79573 0.0
H909 H 0.23771 0.71253 0.88998 0.0
H910 H 0.24898 0.74601 0.72713 0.0
H911 H 0.28145 0.77836 0.74582 0.0
H912 H 0.30159 0.73687 0.73602 0.0
H913 H 0.17533 0.73963 0.88892 0.0
H914 H 0.17659 0.77844 0.86193 0.0
H915 H 0.15228 0.74162 0.84254 0.0
H916 H 0.1697 0.85638 0.79033 0.0
H917 H 0.10389 0.77156 0.74446 0.0
H918 H 0.26649 0.81384 0.79895 0.0
H919 H 0.23626 0.8179 0.84088 0.0
H920 H 0.23874 0.85242 0.8075 0.0
H921 H 0.18988 0.7126 0.74551 0.0
H922 H 0.13753 0.71851 0.73243 0.0
H923 H 0.15114 0.70962 0.78093 0.0
loop_
_geom_bond_atom_site_label_1
_geom_bond_atom_site_label_2
_geom_bond_distance
_geom_bond_site_symmetry_2
_ccdc_geom_bond_type
H0 C3 0.931 . S
H1 C6 0.928 . S
H2 C8 0.930 . S
C3 H0 0.931 . S
C3 C4 1.413 . S
C3 C5 1.360 . S
C4 C3 1.413 . S
C4 C8 1.429 . S
C5 C3 1.360 . S
C5 C6 1.372 . S
C6 H1 0.928 . S
C6 C5 1.372 . S
C6 C7 1.404 . S
C7 C6 1.404 . S
C7 C8 1.391 . S
C8 H2 0.930 . S
C8 C4 1.429 . S
C8 C7 1.391 . S
H9 C12 0.931 . S
H10 C15 0.928 . S
H11 C17 0.930 . S
C12 H9 0.931 . S
C12 C13 1.413 . S
C12 C14 1.360 . S
C13 C12 1.413 . S
C13 C17 1.429 . S
C14 C12 1.360 . S
C14 C15 1.372 . S
C15 H10 0.928 . S
C15 C14 1.372 . S
C15 C16 1.404 . S
C16 C15 1.404 . S
C16 C17 1.391 . S
C17 H11 0.930 . S
C17 C13 1.429 . S
C17 C16 1.391 . S
H18 C21 0.931 . S
H19 C24 0.928 . S
H20 C26 0.930 . S
C21 H18 0.931 . S
C21 C22 1.413 . S
C21 C23 1.360 . S
C22 C21 1.413 . S
C22 C26 1.429 . S
C23 C21 1.360 . S
C23 C24 1.372 . S
C24 H19 0.928 . S
C24 C23 1.372 . S
C24 C25 1.404 . S
C25 C24 1.404 . S
C25 C26 1.391 . S
C26 H20 0.930 . S
C26 C22 1.429 . S
C26 C25 1.391 . S
H27 C30 0.931 . S
H28 C33 0.928 . S
H29 C35 0.930 . S
C30 H27 0.931 . S
C30 C31 1.413 . S
C30 C32 1.360 . S
C31 C30 1.413 . S
C31 C35 1.429 . S
C32 C30 1.360 . S
C32 C33 1.372 . S
C33 H28 0.928 . S
C33 C32 1.372 . S
C33 C34 1.404 . S
C34 C33 1.404 . S
C34 C35 1.391 . S
C35 H29 0.930 . S
C35 C31 1.429 . S
C35 C34 1.391 . S
H36 C39 0.931 . S
H37 C42 0.928 . S
H38 C44 0.930 . S
C39 H36 0.931 . S
C39 C40 1.413 . S
C39 C41 1.360 . S
C40 C39 1.413 . S
C40 C44 1.429 . S
C41 C39 1.360 . S
C41 C42 1.372 . S
C42 H37 0.928 . S
C42 C41 1.372 . S
C42 C43 1.404 . S
C43 C42 1.404 . S
C43 C44 1.391 . S
C44 H38 0.930 . S
C44 C40 1.429 . S
C44 C43 1.391 . S
H45 C48 0.931 . S
H46 C51 0.928 . S
H47 C53 0.930 . S
C48 H45 0.931 . S
C48 C49 1.413 . S
C48 C50 1.360 . S
C49 C48 1.413 . S
C49 C53 1.429 . S
C50 C48 1.360 . S
C50 C51 1.372 . S
C51 H46 0.928 . S
C51 C50 1.372 . S
C51 C52 1.404 . S
C52 C51 1.404 . S
C52 C53 1.391 . S
C53 H47 0.930 . S
C53 C49 1.429 . S
C53 C52 1.391 . S
H54 C57 0.931 . S
H55 C60 0.928 . S
H56 C62 0.930 . S
C57 H54 0.931 . S
C57 C58 1.413 . S
C57 C59 1.360 . S
C58 C57 1.413 . S
C58 C62 1.429 . S
C59 C57 1.360 . S
C59 C60 1.372 . S
C60 H55 0.928 . S
C60 C59 1.372 . S
C60 C61 1.404 . S
C61 C60 1.404 . S
C61 C62 1.391 . S
C62 H56 0.930 . S
C62 C58 1.429 . S
C62 C61 1.391 . S
H63 C66 0.931 . S
H64 C69 0.928 . S
H65 C71 0.930 . S
C66 H63 0.931 . S
C66 C67 1.413 . S
C66 C68 1.360 . S
C67 C66 1.413 . S
C67 C71 1.429 . S
C68 C66 1.360 . S
C68 C69 1.372 . S
C69 H64 0.928 . S
C69 C68 1.372 . S
C69 C70 1.404 . S
C70 C69 1.404 . S
C70 C71 1.391 . S
C71 H65 0.930 . S
C71 C67 1.429 . S
C71 C70 1.391 . S
Zn72 O78 1.920 1_455 S
Zn72 O84 1.898 . S
Zn72 O87 1.905 . S
Zn73 O81 1.905 1_655 S
Zn73 O82 1.898 . S
Zn73 O90 1.920 . S
Zn74 O77 2.080 1_455 S
Zn74 O80 2.114 . S
Zn74 O83 2.120 1_455 S
Zn74 O85 2.120 . S
Zn74 O86 2.114 . S
Zn74 O89 2.080 1_455 S
C75 O80 1.166 . S
C75 O81 1.182 . S
C76 O82 1.167 . S
C76 O83 1.299 . S
O77 Zn74 2.080 1_655 S
O77 C91 1.305 . S
O78 Zn72 1.920 1_655 S
O78 C91 1.234 . S
C79 O84 1.167 . S
C79 O85 1.299 . S
O80 Zn74 2.114 . S
O80 C75 1.166 . S
O81 Zn73 1.905 1_455 S
O81 C75 1.182 . S
O82 Zn73 1.898 . S
O82 C76 1.167 . S
O83 Zn74 2.120 1_655 S
O83 C76 1.299 . S
O84 Zn72 1.898 . S
O84 C79 1.167 . S
O85 Zn74 2.120 . S
O85 C79 1.299 . S
O86 Zn74 2.114 . S
O86 C88 1.166 . S
O87 Zn72 1.905 . S
O87 C88 1.182 . S
C88 O86 1.166 . S
C88 O87 1.182 . S
O89 Zn74 2.080 1_655 S
O89 C92 1.305 . S
O90 Zn73 1.920 . S
O90 C92 1.234 . S
C91 O77 1.305 . S
C91 O78 1.234 . S
C92 O89 1.305 . S
C92 O90 1.234 . S
Zn93 O99 1.920 . S
Zn93 O105 1.898 . S
Zn93 O108 1.905 . S
Zn94 O102 1.905 . S
Zn94 O103 1.898 . S
Zn94 O111 1.920 . S
Zn95 O98 2.080 . S
Zn95 O101 2.114 . S
Zn95 O104 2.120 . S
Zn95 O106 2.120 . S
Zn95 O107 2.114 . S
Zn95 O110 2.080 . S
C96 O101 1.166 . S
C96 O102 1.182 . S
C97 O103 1.167 . S
C97 O104 1.299 . S
O98 Zn95 2.080 . S
O98 C112 1.305 . S
O99 Zn93 1.920 . S
O99 C112 1.234 . S
C100 O105 1.167 . S
C100 O106 1.299 . S
O101 Zn95 2.114 . S
O101 C96 1.166 . S
O102 Zn94 1.905 . S
O102 C96 1.182 . S
O103 Zn94 1.898 . S
O103 C97 1.167 . S
O104 Zn95 2.120 . S
O104 C97 1.299 . S
O105 Zn93 1.898 . S
O105 C100 1.167 . S
O106 Zn95 2.120 . S
O106 C100 1.299 . S
O107 Zn95 2.114 . S
O107 C109 1.166 . S
O108 Zn93 1.905 . S
O108 C109 1.182 . S
C109 O107 1.166 . S
C109 O108 1.182 . S
O110 Zn95 2.080 . S
O110 C113 1.305 . S
O111 Zn94 1.920 . S
O111 C113 1.234 . S
C112 O98 1.305 . S
C112 O99 1.234 . S
C113 O110 1.305 . S
C113 O111 1.234 . S
Zn114 O120 1.920 . S
Zn114 O126 1.898 . S
Zn114 O129 1.905 1_455 S
Zn115 O123 1.905 . S
Zn115 O124 1.898 . S
Zn115 O132 1.920 1_655 S
Zn116 O119 2.080 . S
Zn116 O122 2.114 1_455 S
Zn116 O125 2.120 1_455 S
Zn116 O127 2.120 . S
Zn116 O128 2.114 1_455 S
Zn116 O131 2.080 . S
C117 O122 1.166 . S
C117 O123 1.182 . S
C118 O124 1.167 . S
C118 O125 1.299 . S
O119 Zn116 2.080 . S
O119 C133 1.305 . S
O120 Zn114 1.920 . S
O120 C133 1.234 . S
C121 O126 1.167 . S
C121 O127 1.299 . S
O122 Zn116 2.114 1_655 S
O122 C117 1.166 . S
O123 Zn115 1.905 . S
O123 C117 1.182 . S
O124 Zn115 1.898 . S
O124 C118 1.167 . S
O125 Zn116 2.120 1_655 S
O125 C118 1.299 . S
O126 Zn114 1.898 . S
O126 C121 1.167 . S
O127 Zn116 2.120 . S
O127 C121 1.299 . S
O128 Zn116 2.114 1_655 S
O128 C130 1.166 . S
O129 Zn114 1.905 1_655 S
O129 C130 1.182 . S
C130 O128 1.166 . S
C130 O129 1.182 . S
O131 Zn116 2.080 . S
O131 C134 1.305 . S
O132 Zn115 1.920 1_455 S
O132 C134 1.234 . S
C133 O119 1.305 . S
C133 O120 1.234 . S
C134 O131 1.305 . S
C134 O132 1.234 . S
Zn135 O141 1.920 . S
Zn135 O147 1.898 . S
Zn135 O150 1.905 . S
Zn136 O144 1.905 . S
Zn136 O145 1.898 . S
Zn136 O153 1.920 . S
Zn137 O140 2.080 . S
Zn137 O143 2.114 . S
Zn137 O146 2.120 . S
Zn137 O148 2.120 . S
Zn137 O149 2.114 . S
Zn137 O152 2.080 . S
C138 O143 1.166 . S
C138 O144 1.182 . S
C139 O145 1.167 . S
C139 O146 1.299 . S
O140 Zn137 2.080 . S
O140 C154 1.305 . S
O141 Zn135 1.920 . S
O141 C154 1.234 . S
C142 O147 1.167 . S
C142 O148 1.299 . S
O143 Zn137 2.114 . S
O143 C138 1.166 . S
O144 Zn136 1.905 . S
O144 C138 1.182 . S
O145 Zn136 1.898 . S
O145 C139 1.167 . S
O146 Zn137 2.120 . S
O146 C139 1.299 . S
O147 Zn135 1.898 . S
O147 C142 1.167 . S
O148 Zn137 2.120 . S
O148 C142 1.299 . S
O149 Zn137 2.114 . S
O149 C151 1.166 . S
O150 Zn135 1.905 . S
O150 C151 1.182 . S
C151 O149 1.166 . S
C151 O150 1.182 . S
O152 Zn137 2.080 . S
O152 C155 1.305 . S
O153 Zn136 1.920 . S
O153 C155 1.234 . S
C154 O140 1.305 . S
C154 O141 1.234 . S
C155 O152 1.305 . S
C155 O153 1.234 . S
C156 C157 1.391 . S
C156 C158 1.394 . S
C156 H172 0.931 . S
C157 C156 1.391 . S
C157 C161 1.376 . S
C158 C156 1.394 . S
C158 C159 1.369 . S
C158 C162 1.531 . S
C159 C158 1.369 . S
C159 C160 1.410 . S
C159 C167 1.503 . S
C160 C159 1.410 . S
C160 C161 1.392 . S
C160 C163 1.511 . S
C161 C157 1.376 . S
C161 C160 1.392 . S
C161 H173 0.929 . S
C162 C158 1.531 . S
C162 H174 0.960 1_565 S
C162 H175 0.962 1_565 S
C162 H176 0.960 . S
C163 C160 1.511 . S
C163 H177 0.961 . S
C163 H178 0.961 . S
C163 H179 0.961 . S
C164 C165 1.370 . S
C164 C166 1.363 . S
C164 H180 0.931 . S
C165 C164 1.370 . S
C165 C169 1.408 . S
C166 C164 1.363 . S
C166 C167 1.370 1_545 S
C166 C170 1.524 . S
C167 C159 1.503 . S
C167 C166 1.370 1_565 S
C167 C168 1.403 1_565 S
C168 C167 1.403 1_545 S
C168 C169 1.404 . S
C168 C171 1.539 1_545 S
C169 C165 1.408 . S
C169 C168 1.404 . S
C169 H181 0.930 . S
C170 C166 1.524 . S
C170 H182 0.956 . S
C170 H183 0.961 1_545 S
C170 H184 0.961 . S
C171 C168 1.539 1_565 S
C171 H185 0.958 . S
C171 H186 0.961 . S
C171 H187 0.960 . S
H172 C156 0.931 . S
H173 C161 0.929 . S
H174 C162 0.960 1_545 S
H175 C162 0.962 1_545 S
H176 C162 0.960 . S
H177 C163 0.961 . S
H178 C163 0.961 . S
H179 C163 0.961 . S
H180 C164 0.931 . S
H181 C169 0.930 . S
H182 C170 0.956 . S
H183 C170 0.961 1_565 S
H184 C170 0.961 . S
H185 C171 0.958 . S
H186 C171 0.961 . S
H187 C171 0.960 . S
C188 C189 1.391 . S
C188 C190 1.394 . S
C188 H204 0.931 . S
C189 C188 1.391 . S
C189 C193 1.376 . S
C190 C188 1.394 . S
C190 C191 1.369 . S
C190 C194 1.531 . S
C191 C190 1.369 . S
C191 C192 1.410 . S
C191 C199 1.503 . S
C192 C191 1.410 . S
C192 C193 1.392 . S
C192 C195 1.511 . S
C193 C189 1.376 . S
C193 C192 1.392 . S
C193 H205 0.929 . S
C194 C190 1.531 . S
C194 H206 0.960 . S
C194 H207 0.962 . S
C194 H208 0.960 . S
C195 C192 1.511 . S
C195 H209 0.961 . S
C195 H210 0.961 . S
C195 H211 0.961 . S
C196 C197 1.370 . S
C196 C198 1.363 . S
C196 H212 0.931 . S
C197 C196 1.370 . S
C197 C201 1.408 . S
C198 C196 1.363 . S
C198 C199 1.370 . S
C198 C202 1.524 . S
C199 C191 1.503 . S
C199 C198 1.370 . S
C199 C200 1.403 . S
C200 C199 1.403 . S
C200 C201 1.404 . S
C200 C203 1.539 . S
C201 C197 1.408 . S
C201 C200 1.404 . S
C201 H213 0.930 . S
C202 C198 1.524 . S
C202 H214 0.956 . S
C202 H215 0.961 . S
C202 H216 0.961 . S
C203 C200 1.539 . S
C203 H217 0.958 . S
C203 H218 0.961 . S
C203 H219 0.960 . S
H204 C188 0.931 . S
H205 C193 0.929 . S
H206 C194 0.960 . S
H207 C194 0.962 . S
H208 C194 0.960 . S
H209 C195 0.961 . S
H210 C195 0.961 . S
H211 C195 0.961 . S
H212 C196 0.931 . S
H213 C201 0.930 . S
H214 C202 0.956 . S
H215 C202 0.961 . S
H216 C202 0.961 . S
H217 C203 0.958 . S
H218 C203 0.961 . S
H219 C203 0.960 . S
C220 C221 1.391 . S
C220 C222 1.394 . S
C220 H236 0.931 . S
C221 C220 1.391 . S
C221 C225 1.376 . S
C222 C220 1.394 . S
C222 C223 1.369 . S
C222 C226 1.531 . S
C223 C222 1.369 . S
C223 C224 1.410 . S
C223 C231 1.503 . S
C224 C223 1.410 . S
C224 C225 1.392 . S
C224 C227 1.511 . S
C225 C221 1.376 . S
C225 C224 1.392 . S
C225 H237 0.929 . S
C226 C222 1.531 . S
C226 H238 0.960 . S
C226 H239 0.962 . S
C226 H240 0.960 . S
C227 C224 1.511 . S
C227 H241 0.961 . S
C227 H242 0.961 . S
C227 H243 0.961 . S
C228 C229 1.370 . S
C228 C230 1.363 . S
C228 H244 0.931 . S
C229 C228 1.370 . S
C229 C233 1.408 . S
C230 C228 1.363 . S
C230 C231 1.370 . S
C230 C234 1.524 . S
C231 C223 1.503 . S
C231 C230 1.370 . S
C231 C232 1.403 . S
C232 C231 1.403 . S
C232 C233 1.404 . S
C232 C235 1.539 . S
C233 C229 1.408 . S
C233 C232 1.404 . S
C233 H245 0.930 . S
C234 C230 1.524 . S
C234 H246 0.956 . S
C234 H247 0.961 . S
C234 H248 0.961 . S
C235 C232 1.539 . S
C235 H249 0.958 . S
C235 H250 0.961 . S
C235 H251 0.960 . S
H236 C220 0.931 . S
H237 C225 0.929 . S
H238 C226 0.960 . S
H239 C226 0.962 . S
H240 C226 0.960 . S
H241 C227 0.961 . S
H242 C227 0.961 . S
H243 C227 0.961 . S
H244 C228 0.931 . S
H245 C233 0.930 . S
H246 C234 0.956 . S
H247 C234 0.961 . S
H248 C234 0.961 . S
H249 C235 0.958 . S
H250 C235 0.961 . S
H251 C235 0.960 . S
C252 C253 1.391 . S
C252 C254 1.394 . S
C252 H268 0.931 . S
C253 C252 1.391 . S
C253 C257 1.376 . S
C254 C252 1.394 . S
C254 C255 1.369 . S
C254 C258 1.531 . S
C255 C254 1.369 . S
C255 C256 1.410 . S
C255 C263 1.532 . S
C256 C255 1.410 . S
C256 C257 1.392 . S
C256 C259 1.511 . S
C257 C253 1.376 . S
C257 C256 1.392 . S
C257 H269 0.929 . S
C258 C254 1.531 . S
C258 H270 0.960 . S
C258 H271 0.962 . S
C258 H272 0.960 . S
C259 C256 1.511 . S
C259 H273 0.961 . S
C259 H274 0.961 . S
C259 H275 0.961 . S
C260 C261 1.370 . S
C260 C262 1.363 1_545 S
C260 H276 0.931 . S
C261 C260 1.370 . S
C261 C265 1.408 . S
C262 C260 1.363 1_565 S
C262 C263 1.373 . S
C262 C266 1.524 . S
C263 C255 1.532 . S
C263 C262 1.373 . S
C263 C264 1.372 1_565 S
C264 C263 1.372 1_545 S
C264 C265 1.404 . S
C264 C267 1.539 . S
C265 C261 1.408 . S
C265 C264 1.404 . S
C265 H277 0.930 . S
C266 C262 1.524 . S
C266 H278 0.956 . S
C266 H279 0.961 . S
C266 H280 0.961 . S
C267 C264 1.539 . S
C267 H281 0.958 . S
C267 H282 0.961 . S
C267 H283 0.960 . S
H268 C252 0.931 . S
H269 C257 0.929 . S
H270 C258 0.960 . S
H271 C258 0.962 . S
H272 C258 0.960 . S
H273 C259 0.961 . S
H274 C259 0.961 . S
H275 C259 0.961 . S
H276 C260 0.931 . S
H277 C265 0.930 . S
H278 C266 0.956 . S
H279 C266 0.961 . S
H280 C266 0.961 . S
H281 C267 0.958 . S
H282 C267 0.961 . S
H283 C267 0.960 . S
C284 C285 1.391 . S
C284 C286 1.394 . S
C284 H300 0.931 . S
C285 C284 1.391 . S
C285 C289 1.376 . S
C286 C284 1.394 . S
C286 C287 1.369 . S
C286 C290 1.548 . S
C287 C286 1.369 . S
C287 C288 1.410 . S
C287 C295 1.503 . S
C288 C287 1.410 . S
C288 C289 1.392 . S
C288 C291 1.511 . S
C289 C285 1.376 . S
C289 C288 1.392 . S
C289 H301 0.929 . S
C290 C286 1.548 . S
C290 H302 0.948 1_545 S
C290 H303 0.954 1_545 S
C290 H304 0.964 . S
C291 C288 1.511 . S
C291 H305 0.961 . S
C291 H306 0.961 . S
C291 H307 0.961 . S
C292 C293 1.370 . S
C292 C294 1.363 . S
C292 H308 0.931 . S
C293 C292 1.370 . S
C293 C297 1.408 . S
C294 C292 1.363 . S
C294 C295 1.370 1_565 S
C294 C298 1.524 1_565 S
C295 C287 1.503 . S
C295 C294 1.370 1_545 S
C295 C296 1.403 1_545 S
C296 C295 1.403 1_565 S
C296 C297 1.404 . S
C296 C299 1.539 1_565 S
C297 C293 1.408 . S
C297 C296 1.404 . S
C297 H309 0.930 . S
C298 C294 1.524 1_545 S
C298 H310 0.956 . S
C298 H311 0.961 . S
C298 H312 0.961 1_545 S
C299 C296 1.539 1_545 S
C299 H313 0.958 1_545 S
C299 H314 0.958 1_545 S
C299 H315 0.960 . S
H300 C284 0.931 . S
H301 C289 0.929 . S
H302 C290 0.948 1_565 S
H303 C290 0.954 1_565 S
H304 C290 0.964 . S
H305 C291 0.961 . S
H306 C291 0.961 . S
H307 C291 0.961 . S
H308 C292 0.931 . S
H309 C297 0.930 . S
H310 C298 0.956 . S
H311 C298 0.961 . S
H312 C298 0.961 1_565 S
H313 C299 0.958 1_565 S
H314 C299 0.958 1_565 S
H315 C299 0.960 . S
C316 C317 1.391 . S
C316 C318 1.394 . S
C316 H332 0.931 . S
C317 C316 1.391 . S
C317 C321 1.376 . S
C318 C316 1.394 . S
C318 C319 1.369 . S
C318 C322 1.531 . S
C319 C318 1.369 . S
C319 C320 1.410 . S
C319 C327 1.503 . S
C320 C319 1.410 . S
C320 C321 1.392 . S
C320 C323 1.511 . S
C321 C317 1.376 . S
C321 C320 1.392 . S
C321 H333 0.929 . S
C322 C318 1.531 . S
C322 H334 0.960 . S
C322 H335 0.962 . S
C322 H336 0.960 . S
C323 C320 1.511 . S
C323 H337 0.961 . S
C323 H338 0.961 . S
C323 H339 0.961 . S
C324 C325 1.370 . S
C324 C326 1.363 . S
C324 H340 0.931 . S
C325 C324 1.370 . S
C325 C329 1.408 . S
C326 C324 1.363 . S
C326 C327 1.370 . S
C326 C330 1.524 . S
C327 C319 1.503 . S
C327 C326 1.370 . S
C327 C328 1.403 . S
C328 C327 1.403 . S
C328 C329 1.404 . S
C328 C331 1.539 . S
C329 C325 1.408 . S
C329 C328 1.404 . S
C329 H341 0.930 . S
C330 C326 1.524 . S
C330 H342 0.956 . S
C330 H343 0.961 . S
C330 H344 0.961 . S
C331 C328 1.539 . S
C331 H345 0.958 . S
C331 H346 0.961 . S
C331 H347 0.960 . S
H332 C316 0.931 . S
H333 C321 0.929 . S
H334 C322 0.960 . S
H335 C322 0.962 . S
H336 C322 0.960 . S
H337 C323 0.961 . S
H338 C323 0.961 . S
H339 C323 0.961 . S
H340 C324 0.931 . S
H341 C329 0.930 . S
H342 C330 0.956 . S
H343 C330 0.961 . S
H344 C330 0.961 . S
H345 C331 0.958 . S
H346 C331 0.961 . S
H347 C331 0.960 . S
C348 C349 1.391 . S
C348 C350 1.394 . S
C348 H364 0.931 . S
C349 C348 1.391 . S
C349 C353 1.376 . S
C350 C348 1.394 . S
C350 C351 1.369 . S
C350 C354 1.531 . S
C351 C350 1.369 . S
C351 C352 1.410 . S
C351 C359 1.503 . S
C352 C351 1.410 . S
C352 C353 1.392 . S
C352 C355 1.511 . S
C353 C349 1.376 . S
C353 C352 1.392 . S
C353 H365 0.929 . S
C354 C350 1.531 . S
C354 H366 0.960 . S
C354 H367 0.962 . S
C354 H368 0.960 . S
C355 C352 1.511 . S
C355 H369 0.961 . S
C355 H370 0.961 . S
C355 H371 0.961 . S
C356 C357 1.370 . S
C356 C358 1.363 . S
C356 H372 0.931 . S
C357 C356 1.370 . S
C357 C361 1.408 . S
C358 C356 1.363 . S
C358 C359 1.370 . S
C358 C362 1.524 . S
C359 C351 1.503 . S
C359 C358 1.370 . S
C359 C360 1.403 . S
C360 C359 1.403 . S
C360 C361 1.404 . S
C360 C363 1.539 . S
C361 C357 1.408 . S
C361 C360 1.404 . S
C361 H373 0.930 . S
C362 C358 1.524 . S
C362 H374 0.956 . S
C362 H375 0.961 . S
C362 H376 0.961 . S
C363 C360 1.539 . S
C363 H377 0.958 . S
C363 H378 0.961 . S
C363 H379 0.960 . S
H364 C348 0.931 . S
H365 C353 0.929 . S
H366 C354 0.960 . S
H367 C354 0.962 . S
H368 C354 0.960 . S
H369 C355 0.961 . S
H370 C355 0.961 . S
H371 C355 0.961 . S
H372 C356 0.931 . S
H373 C361 0.930 . S
H374 C362 0.956 . S
H375 C362 0.961 . S
H376 C362 0.961 . S
H377 C363 0.958 . S
H378 C363 0.961 . S
H379 C363 0.960 . S
C380 C381 1.391 . S
C380 C382 1.394 . S
C380 H396 0.931 . S
C381 C380 1.391 . S
C381 C385 1.376 . S
C382 C380 1.394 . S
C382 C383 1.369 . S
C382 C386 1.531 . S
C383 C382 1.369 . S
C383 C384 1.410 . S
C383 C391 1.503 . S
C384 C383 1.410 . S
C384 C385 1.392 . S
C384 C387 1.511 . S
C385 C381 1.376 . S
C385 C384 1.392 . S
C385 H397 0.929 . S
C386 C382 1.531 . S
C386 H398 0.960 1_545 S
C386 H399 0.962 1_545 S
C386 H400 0.960 . S
C387 C384 1.511 . S
C387 H401 0.961 . S
C387 H402 0.961 . S
C387 H403 0.961 . S
C388 C389 1.370 . S
C388 C390 1.363 . S
C388 H404 0.931 . S
C389 C388 1.370 . S
C389 C393 1.408 . S
C390 C388 1.363 . S
C390 C391 1.370 1_565 S
C390 C394 1.524 1_565 S
C391 C383 1.503 . S
C391 C390 1.370 1_545 S
C391 C392 1.403 1_545 S
C392 C391 1.403 1_565 S
C392 C393 1.404 . S
C392 C395 1.541 . S
C393 C389 1.408 . S
C393 C392 1.404 . S
C393 H405 0.930 . S
C394 C390 1.524 1_545 S
C394 H406 0.956 . S
C394 H407 0.961 . S
C394 H408 0.952 1_545 S
C395 C392 1.541 . S
C395 H409 0.960 . S
C395 H410 0.962 . S
C395 H411 0.955 1_565 S
H396 C380 0.931 . S
H397 C385 0.929 . S
H398 C386 0.960 1_565 S
H399 C386 0.962 1_565 S
H400 C386 0.960 . S
H401 C387 0.961 . S
H402 C387 0.961 . S
H403 C387 0.961 . S
H404 C388 0.931 . S
H405 C393 0.930 . S
H406 C394 0.956 . S
H407 C394 0.961 . S
H408 C394 0.952 1_565 S
H409 C395 0.960 . S
H410 C395 0.962 . S
H411 C395 0.955 1_545 S
C412 C413 1.391 . S
C412 C414 1.394 1_556 S
C412 H428 0.931 . S
C413 C412 1.391 . S
C413 C417 1.376 . S
C414 C412 1.394 1_554 S
C414 C415 1.369 . S
C414 C418 1.531 . S
C415 C414 1.369 . S
C415 C416 1.410 . S
C415 C423 1.503 . S
C416 C415 1.410 . S
C416 C417 1.392 1_554 S
C416 C419 1.511 . S
C417 C413 1.376 . S
C417 C416 1.392 1_556 S
C417 H429 0.929 . S
C418 C414 1.531 . S
C418 H430 0.960 . S
C418 H431 0.962 . S
C418 H432 0.960 . S
C419 C416 1.511 . S
C419 H433 0.961 1_554 S
C419 H434 0.961 . S
C419 H435 0.961 . S
C420 C421 1.370 . S
C420 C422 1.363 . S
C420 H436 0.931 . S
C421 C420 1.370 . S
C421 C425 1.408 . S
C422 C420 1.363 . S
C422 C423 1.370 . S
C422 C426 1.524 . S
C423 C415 1.503 . S
C423 C422 1.370 . S
C423 C424 1.403 . S
C424 C423 1.403 . S
C424 C425 1.404 . S
C424 C427 1.539 . S
C425 C421 1.408 . S
C425 C424 1.404 . S
C425 H437 0.930 . S
C426 C422 1.524 . S
C426 H438 0.956 . S
C426 H439 0.961 . S
C426 H440 0.961 . S
C427 C424 1.539 . S
C427 H441 0.958 . S
C427 H442 0.961 . S
C427 H443 0.960 . S
H428 C412 0.931 . S
H429 C417 0.929 . S
H430 C418 0.960 . S
H431 C418 0.962 . S
H432 C418 0.960 . S
H433 C419 0.961 1_556 S
H434 C419 0.961 . S
H435 C419 0.961 . S
H436 C420 0.931 . S
H437 C425 0.930 . S
H438 C426 0.956 . S
H439 C426 0.961 . S
H440 C426 0.961 . S
H441 C427 0.958 . S
H442 C427 0.961 . S
H443 C427 0.960 . S
C444 C445 1.391 . S
C444 C446 1.394 . S
C444 H460 0.931 . S
C445 C444 1.391 . S
C445 C449 1.376 . S
C446 C444 1.394 . S
C446 C447 1.369 . S
C446 C450 1.531 . S
C447 C446 1.369 . S
C447 C448 1.410 . S
C447 C455 1.503 . S
C448 C447 1.410 . S
C448 C449 1.392 . S
C448 C451 1.511 . S
C449 C445 1.376 . S
C449 C448 1.392 . S
C449 H461 0.929 . S
C450 C446 1.531 . S
C450 H462 0.960 . S
C450 H463 0.962 . S
C450 H464 0.960 . S
C451 C448 1.511 . S
C451 H465 0.961 . S
C451 H466 0.961 . S
C451 H467 0.961 . S
C452 C453 1.370 . S
C452 C454 1.363 . S
C452 H468 0.931 . S
C453 C452 1.370 . S
C453 C457 1.408 . S
C454 C452 1.363 . S
C454 C455 1.370 . S
C454 C458 1.524 . S
C455 C447 1.503 . S
C455 C454 1.370 . S
C455 C456 1.403 . S
C456 C455 1.403 . S
C456 C457 1.404 . S
C456 C459 1.539 . S
C457 C453 1.408 . S
C457 C456 1.404 . S
C457 H469 0.930 . S
C458 C454 1.524 . S
C458 H470 0.956 . S
C458 H471 0.961 . S
C458 H472 0.961 . S
C459 C456 1.539 . S
C459 H473 0.958 . S
C459 H474 0.961 . S
C459 H475 0.960 . S
H460 C444 0.931 . S
H461 C449 0.929 . S
H462 C450 0.960 . S
H463 C450 0.962 . S
H464 C450 0.960 . S
H465 C451 0.961 . S
H466 C451 0.961 . S
H467 C451 0.961 . S
H468 C452 0.931 . S
H469 C457 0.930 . S
H470 C458 0.956 . S
H471 C458 0.961 . S
H472 C458 0.961 . S
H473 C459 0.958 . S
H474 C459 0.961 . S
H475 C459 0.960 . S
C476 C477 1.391 . S
C476 C478 1.394 1_554 S
C476 H492 0.931 . S
C477 C476 1.391 . S
C477 C481 1.376 . S
C478 C476 1.394 1_556 S
C478 C479 1.369 . S
C478 C482 1.531 . S
C479 C478 1.369 . S
C479 C480 1.410 . S
C479 C487 1.503 . S
C480 C479 1.410 . S
C480 C481 1.392 1_556 S
C480 C483 1.511 . S
C481 C477 1.376 . S
C481 C480 1.392 1_554 S
C481 H493 0.929 . S
C482 C478 1.531 . S
C482 H494 0.960 . S
C482 H495 0.962 . S
C482 H496 0.960 1_556 S
C483 C480 1.511 . S
C483 H497 0.961 . S
C483 H498 0.961 . S
C483 H499 0.961 . S
C484 C485 1.370 . S
C484 C486 1.363 . S
C484 H500 0.931 . S
C485 C484 1.370 . S
C485 C489 1.408 . S
C486 C484 1.363 . S
C486 C487 1.370 . S
C486 C490 1.524 . S
C487 C479 1.503 . S
C487 C486 1.370 . S
C487 C488 1.403 . S
C488 C487 1.403 . S
C488 C489 1.404 . S
C488 C491 1.539 . S
C489 C485 1.408 . S
C489 C488 1.404 . S
C489 H501 0.930 . S
C490 C486 1.524 . S
C490 H502 0.956 . S
C490 H503 0.961 . S
C490 H504 0.961 . S
C491 C488 1.539 . S
C491 H505 0.958 . S
C491 H506 0.961 . S
C491 H507 0.960 . S
H492 C476 0.931 . S
H493 C481 0.929 . S
H494 C482 0.960 . S
H495 C482 0.962 . S
H496 C482 0.960 1_554 S
H497 C483 0.961 . S
H498 C483 0.961 . S
H499 C483 0.961 . S
H500 C484 0.931 . S
H501 C489 0.930 . S
H502 C490 0.956 . S
H503 C490 0.961 . S
H504 C490 0.961 . S
H505 C491 0.958 . S
H506 C491 0.961 . S
H507 C491 0.960 . S
C508 C509 1.391 . S
C508 C510 1.394 . S
C508 H524 0.931 . S
C509 C508 1.391 . S
C509 C513 1.376 . S
C510 C508 1.394 . S
C510 C511 1.369 . S
C510 C514 1.531 . S
C511 C510 1.369 . S
C511 C512 1.410 . S
C511 C519 1.503 . S
C512 C511 1.410 . S
C512 C513 1.392 . S
C512 C515 1.511 . S
C513 C509 1.376 . S
C513 C512 1.392 . S
C513 H525 0.929 . S
C514 C510 1.531 . S
C514 H526 0.960 . S
C514 H527 0.962 . S
C514 H528 0.960 . S
C515 C512 1.511 . S
C515 H529 0.961 . S
C515 H530 0.961 . S
C515 H531 0.961 . S
C516 C517 1.370 . S
C516 C518 1.363 . S
C516 H532 0.931 . S
C517 C516 1.370 . S
C517 C521 1.408 . S
C518 C516 1.363 . S
C518 C519 1.370 . S
C518 C522 1.524 . S
C519 C511 1.503 . S
C519 C518 1.370 . S
C519 C520 1.403 . S
C520 C519 1.403 . S
C520 C521 1.404 . S
C520 C523 1.539 . S
C521 C517 1.408 . S
C521 C520 1.404 . S
C521 H533 0.930 . S
C522 C518 1.524 . S
C522 H534 0.956 . S
C522 H535 0.961 . S
C522 H536 0.961 . S
C523 C520 1.539 . S
C523 H537 0.958 . S
C523 H538 0.961 . S
C523 H539 0.960 . S
H524 C508 0.931 . S
H525 C513 0.929 . S
H526 C514 0.960 . S
H527 C514 0.962 . S
H528 C514 0.960 . S
H529 C515 0.961 . S
H530 C515 0.961 . S
H531 C515 0.961 . S
H532 C516 0.931 . S
H533 C521 0.930 . S
H534 C522 0.956 . S
H535 C522 0.961 . S
H536 C522 0.961 . S
H537 C523 0.958 . S
H538 C523 0.961 . S
H539 C523 0.960 . S
C540 C541 1.391 . S
C540 C542 1.394 1_554 S
C540 H556 0.931 . S
C541 C540 1.391 . S
C541 C545 1.376 . S
C542 C540 1.394 1_556 S
C542 C543 1.369 . S
C542 C546 1.531 . S
C543 C542 1.369 . S
C543 C544 1.410 . S
C543 C551 1.503 . S
C544 C543 1.410 . S
C544 C545 1.392 1_556 S
C544 C547 1.511 . S
C545 C541 1.376 . S
C545 C544 1.392 1_554 S
C545 H557 0.929 . S
C546 C542 1.531 . S
C546 H558 0.960 . S
C546 H559 0.962 . S
C546 H560 0.960 . S
C547 C544 1.511 . S
C547 H561 0.961 . S
C547 H562 0.961 . S
C547 H563 0.961 . S
C548 C549 1.370 . S
C548 C550 1.363 . S
C548 H564 0.931 . S
C549 C548 1.370 . S
C549 C553 1.408 . S
C550 C548 1.363 . S
C550 C551 1.370 . S
C550 C554 1.524 . S
C551 C543 1.503 . S
C551 C550 1.370 . S
C551 C552 1.403 . S
C552 C551 1.403 . S
C552 C553 1.404 . S
C552 C555 1.539 . S
C553 C549 1.408 . S
C553 C552 1.404 . S
C553 H565 0.930 . S
C554 C550 1.524 . S
C554 H566 0.956 . S
C554 H567 0.961 . S
C554 H568 0.961 . S
C555 C552 1.539 . S
C555 H569 0.958 . S
C555 H570 0.961 . S
C555 H571 0.960 . S
H556 C540 0.931 . S
H557 C545 0.929 . S
H558 C546 0.960 . S
H559 C546 0.962 . S
H560 C546 0.960 . S
H561 C547 0.961 . S
H562 C547 0.961 . S
H563 C547 0.961 . S
H564 C548 0.931 . S
H565 C553 0.930 . S
H566 C554 0.956 . S
H567 C554 0.961 . S
H568 C554 0.961 . S
H569 C555 0.958 . S
H570 C555 0.961 . S
H571 C555 0.960 . S
C572 C573 1.391 . S
C572 C574 1.394 . S
C572 H588 0.931 . S
C573 C572 1.391 . S
C573 C577 1.376 . S
C574 C572 1.394 . S
C574 C575 1.369 . S
C574 C578 1.531 . S
C575 C574 1.369 . S
C575 C576 1.410 . S
C575 C583 1.503 . S
C576 C575 1.410 . S
C576 C577 1.392 . S
C576 C579 1.511 . S
C577 C573 1.376 . S
C577 C576 1.392 . S
C577 H589 0.929 . S
C578 C574 1.531 . S
C578 H590 0.960 . S
C578 H591 0.962 . S
C578 H592 0.960 . S
C579 C576 1.511 . S
C579 H593 0.961 . S
C579 H594 0.961 . S
C579 H595 0.961 . S
C580 C581 1.370 . S
C580 C582 1.363 . S
C580 H596 0.931 . S
C581 C580 1.370 . S
C581 C585 1.408 . S
C582 C580 1.363 . S
C582 C583 1.370 . S
C582 C586 1.524 . S
C583 C575 1.503 . S
C583 C582 1.370 . S
C583 C584 1.403 . S
C584 C583 1.403 . S
C584 C585 1.404 . S
C584 C587 1.539 . S
C585 C581 1.408 . S
C585 C584 1.404 . S
C585 H597 0.930 . S
C586 C582 1.524 . S
C586 H598 0.956 . S
C586 H599 0.961 . S
C586 H600 0.961 . S
C587 C584 1.539 . S
C587 H601 0.958 . S
C587 H602 0.961 . S
C587 H603 0.960 . S
H588 C572 0.931 . S
H589 C577 0.929 . S
H590 C578 0.960 . S
H591 C578 0.962 . S
H592 C578 0.960 . S
H593 C579 0.961 . S
H594 C579 0.961 . S
H595 C579 0.961 . S
H596 C580 0.931 . S
H597 C585 0.930 . S
H598 C586 0.956 . S
H599 C586 0.961 . S
H600 C586 0.961 . S
H601 C587 0.958 . S
H602 C587 0.961 . S
H603 C587 0.960 . S
C604 C605 1.391 . S
C604 C606 1.394 1_556 S
C604 H620 0.931 . S
C605 C604 1.391 . S
C605 C609 1.376 . S
C606 C604 1.394 1_554 S
C606 C607 1.369 . S
C606 C610 1.531 . S
C607 C606 1.369 . S
C607 C608 1.410 . S
C607 C615 1.503 . S
C608 C607 1.410 . S
C608 C609 1.392 1_554 S
C608 C611 1.511 . S
C609 C605 1.376 . S
C609 C608 1.392 1_556 S
C609 H621 0.929 . S
C610 C606 1.531 . S
C610 H622 0.960 . S
C610 H623 0.962 . S
C610 H624 0.960 . S
C611 C608 1.511 . S
C611 H625 0.961 1_554 S
C611 H626 0.961 . S
C611 H627 0.961 . S
C612 C613 1.370 . S
C612 C614 1.363 . S
C612 H628 0.931 . S
C613 C612 1.370 . S
C613 C617 1.408 . S
C614 C612 1.363 . S
C614 C615 1.370 . S
C614 C618 1.524 . S
C615 C607 1.503 . S
C615 C614 1.370 . S
C615 C616 1.403 . S
C616 C615 1.403 . S
C616 C617 1.404 . S
C616 C619 1.539 . S
C617 C613 1.408 . S
C617 C616 1.404 . S
C617 H629 0.930 . S
C618 C614 1.524 . S
C618 H630 0.956 . S
C618 H631 0.961 . S
C618 H632 0.961 . S
C619 C616 1.539 . S
C619 H633 0.958 . S
C619 H634 0.961 . S
C619 H635 0.960 . S
H620 C604 0.931 . S
H621 C609 0.929 . S
H622 C610 0.960 . S
H623 C610 0.962 . S
H624 C610 0.960 . S
H625 C611 0.961 1_556 S
H626 C611 0.961 . S
H627 C611 0.961 . S
H628 C612 0.931 . S
H629 C617 0.930 . S
H630 C618 0.956 . S
H631 C618 0.961 . S
H632 C618 0.961 . S
H633 C619 0.958 . S
H634 C619 0.961 . S
H635 C619 0.960 . S
C636 C637 1.391 . S
C636 C638 1.394 . S
C636 H652 0.931 . S
C637 C636 1.391 . S
C637 C641 1.376 . S
C638 C636 1.394 . S
C638 C639 1.369 . S
C638 C642 1.531 . S
C639 C638 1.369 . S
C639 C640 1.410 . S
C639 C647 1.503 . S
C640 C639 1.410 . S
C640 C641 1.392 . S
C640 C643 1.511 . S
C641 C637 1.376 . S
C641 C640 1.392 . S
C641 H653 0.929 . S
C642 C638 1.531 . S
C642 H654 0.960 . S
C642 H655 0.962 . S
C642 H656 0.960 . S
C643 C640 1.511 . S
C643 H657 0.961 . S
C643 H658 0.961 . S
C643 H659 0.961 . S
C644 C645 1.370 . S
C644 C646 1.363 . S
C644 H660 0.931 . S
C645 C644 1.370 . S
C645 C649 1.408 . S
C646 C644 1.363 . S
C646 C647 1.370 . S
C646 C650 1.524 . S
C647 C639 1.503 . S
C647 C646 1.370 . S
C647 C648 1.403 . S
C648 C647 1.403 . S
C648 C649 1.404 . S
C648 C651 1.539 . S
C649 C645 1.408 . S
C649 C648 1.404 . S
C649 H661 0.930 . S
C650 C646 1.524 . S
C650 H662 0.956 . S
C650 H663 0.961 . S
C650 H664 0.961 . S
C651 C648 1.539 . S
C651 H665 0.958 . S
C651 H666 0.961 . S
C651 H667 0.960 . S
H652 C636 0.931 . S
H653 C641 0.929 . S
H654 C642 0.960 . S
H655 C642 0.962 . S
H656 C642 0.960 . S
H657 C643 0.961 . S
H658 C643 0.961 . S
H659 C643 0.961 . S
H660 C644 0.931 . S
H661 C649 0.930 . S
H662 C650 0.956 . S
H663 C650 0.961 . S
H664 C650 0.961 . S
H665 C651 0.958 . S
H666 C651 0.961 . S
H667 C651 0.960 . S
C668 C669 1.391 . S
C668 C670 1.394 . S
C668 H684 0.931 . S
C669 C668 1.391 . S
C669 C673 1.376 . S
C670 C668 1.394 . S
C670 C671 1.369 . S
C670 C674 1.531 . S
C671 C670 1.369 . S
C671 C672 1.410 . S
C671 C679 1.503 . S
C672 C671 1.410 . S
C672 C673 1.392 . S
C672 C675 1.511 . S
C673 C669 1.376 . S
C673 C672 1.392 . S
C673 H685 0.929 . S
C674 C670 1.531 . S
C674 H686 0.960 . S
C674 H687 0.962 . S
C674 H688 0.960 . S
C675 C672 1.511 . S
C675 H689 0.961 . S
C675 H690 0.961 . S
C675 H691 0.961 . S
C676 C677 1.370 . S
C676 C678 1.363 . S
C676 H692 0.931 . S
C677 C676 1.370 . S
C677 C681 1.408 . S
C678 C676 1.363 . S
C678 C679 1.370 . S
C678 C682 1.524 . S
C679 C671 1.503 . S
C679 C678 1.370 . S
C679 C680 1.403 . S
C680 C679 1.403 . S
C680 C681 1.404 . S
C680 C683 1.539 . S
C681 C677 1.408 . S
C681 C680 1.404 . S
C681 H693 0.930 . S
C682 C678 1.524 . S
C682 H694 0.956 . S
C682 H695 0.961 . S
C682 H696 0.961 . S
C683 C680 1.539 . S
C683 H697 0.958 . S
C683 H698 0.961 . S
C683 H699 0.960 . S
H684 C668 0.931 . S
H685 C673 0.929 . S
H686 C674 0.960 . S
H687 C674 0.962 . S
H688 C674 0.960 . S
H689 C675 0.961 . S
H690 C675 0.961 . S
H691 C675 0.961 . S
H692 C676 0.931 . S
H693 C681 0.930 . S
H694 C682 0.956 . S
H695 C682 0.961 . S
H696 C682 0.961 . S
H697 C683 0.958 . S
H698 C683 0.961 . S
H699 C683 0.960 . S
C700 C701 1.391 . S
C700 C702 1.394 . S
C700 H716 0.931 . S
C701 C700 1.391 . S
C701 C705 1.376 . S
C702 C700 1.394 . S
C702 C703 1.369 . S
C702 C706 1.531 . S
C703 C702 1.369 . S
C703 C704 1.410 . S
C703 C711 1.503 . S
C704 C703 1.410 . S
C704 C705 1.392 . S
C704 C707 1.511 . S
C705 C701 1.376 . S
C705 C704 1.392 . S
C705 H717 0.929 . S
C706 C702 1.531 . S
C706 H718 0.960 . S
C706 H719 0.962 . S
C706 H720 0.960 . S
C707 C704 1.511 . S
C707 H721 0.961 . S
C707 H722 0.961 . S
C707 H723 0.961 . S
C708 C709 1.370 . S
C708 C710 1.363 . S
C708 H724 0.931 . S
C709 C708 1.370 . S
C709 C713 1.408 . S
C710 C708 1.363 . S
C710 C711 1.370 . S
C710 C714 1.524 . S
C711 C703 1.503 . S
C711 C710 1.370 . S
C711 C712 1.403 . S
C712 C711 1.403 . S
C712 C713 1.404 . S
C712 C715 1.539 . S
C713 C709 1.408 . S
C713 C712 1.404 . S
C713 H725 0.930 . S
C714 C710 1.524 . S
C714 H726 0.956 . S
C714 H727 0.961 . S
C714 H728 0.961 . S
C715 C712 1.539 . S
C715 H729 0.958 . S
C715 H730 0.961 . S
C715 H731 0.960 . S
H716 C700 0.931 . S
H717 C705 0.929 . S
H718 C706 0.960 . S
H719 C706 0.962 . S
H720 C706 0.960 . S
H721 C707 0.961 . S
H722 C707 0.961 . S
H723 C707 0.961 . S
H724 C708 0.931 . S
H725 C713 0.930 . S
H726 C714 0.956 . S
H727 C714 0.961 . S
H728 C714 0.961 . S
H729 C715 0.958 . S
H730 C715 0.961 . S
H731 C715 0.960 . S
C732 C733 1.391 . S
C732 C734 1.394 . S
C732 H748 0.931 . S
C733 C732 1.391 . S
C733 C737 1.376 . S
C734 C732 1.394 . S
C734 C735 1.369 . S
C734 C738 1.531 . S
C735 C734 1.369 . S
C735 C736 1.410 . S
C735 C743 1.503 . S
C736 C735 1.410 . S
C736 C737 1.392 . S
C736 C739 1.511 . S
C737 C733 1.376 . S
C737 C736 1.392 . S
C737 H749 0.929 . S
C738 C734 1.531 . S
C738 H750 0.960 . S
C738 H751 0.962 . S
C738 H752 0.960 . S
C739 C736 1.511 . S
C739 H753 0.961 . S
C739 H754 0.961 . S
C739 H755 0.961 . S
C740 C741 1.370 . S
C740 C742 1.363 . S
C740 H756 0.931 . S
C741 C740 1.370 . S
C741 C745 1.408 . S
C742 C740 1.363 . S
C742 C743 1.370 . S
C742 C746 1.524 . S
C743 C735 1.503 . S
C743 C742 1.370 . S
C743 C744 1.403 . S
C744 C743 1.403 . S
C744 C745 1.404 . S
C744 C747 1.539 . S
C745 C741 1.408 . S
C745 C744 1.404 . S
C745 H757 0.930 . S
C746 C742 1.524 . S
C746 H758 0.956 . S
C746 H759 0.961 . S
C746 H760 0.961 . S
C747 C744 1.539 . S
C747 H761 0.958 . S
C747 H762 0.961 . S
C747 H763 0.960 . S
H748 C732 0.931 . S
H749 C737 0.929 . S
H750 C738 0.960 . S
H751 C738 0.962 . S
H752 C738 0.960 . S
H753 C739 0.961 . S
H754 C739 0.961 . S
H755 C739 0.961 . S
H756 C740 0.931 . S
H757 C745 0.930 . S
H758 C746 0.956 . S
H759 C746 0.961 . S
H760 C746 0.961 . S
H761 C747 0.958 . S
H762 C747 0.961 . S
H763 C747 0.960 . S
C764 C765 1.391 . S
C764 C766 1.394 . S
C764 H780 0.931 . S
C765 C764 1.391 . S
C765 C769 1.376 . S
C766 C764 1.394 . S
C766 C767 1.369 . S
C766 C770 1.531 . S
C767 C766 1.369 . S
C767 C768 1.410 . S
C767 C775 1.503 . S
C768 C767 1.410 . S
C768 C769 1.392 . S
C768 C771 1.511 . S
C769 C765 1.376 . S
C769 C768 1.392 . S
C769 H781 0.929 . S
C770 C766 1.531 . S
C770 H782 0.960 . S
C770 H783 0.962 . S
C770 H784 0.960 . S
C771 C768 1.511 . S
C771 H785 0.961 . S
C771 H786 0.961 . S
C771 H787 0.961 . S
C772 C773 1.370 . S
C772 C774 1.363 . S
C772 H788 0.931 . S
C773 C772 1.370 . S
C773 C777 1.408 . S
C774 C772 1.363 . S
C774 C775 1.370 . S
C774 C778 1.524 . S
C775 C767 1.503 . S
C775 C774 1.370 . S
C775 C776 1.403 . S
C776 C775 1.403 . S
C776 C777 1.404 . S
C776 C779 1.539 . S
C777 C773 1.408 . S
C777 C776 1.404 . S
C777 H789 0.930 . S
C778 C774 1.524 . S
C778 H790 0.956 . S
C778 H791 0.961 . S
C778 H792 0.961 . S
C779 C776 1.539 . S
C779 H793 0.958 . S
C779 H794 0.961 . S
C779 H795 0.960 . S
H780 C764 0.931 . S
H781 C769 0.929 . S
H782 C770 0.960 . S
H783 C770 0.962 . S
H784 C770 0.960 . S
H785 C771 0.961 . S
H786 C771 0.961 . S
H787 C771 0.961 . S
H788 C772 0.931 . S
H789 C777 0.930 . S
H790 C778 0.956 . S
H791 C778 0.961 . S
H792 C778 0.961 . S
H793 C779 0.958 . S
H794 C779 0.961 . S
H795 C779 0.960 . S
C796 C797 1.391 . S
C796 C798 1.394 . S
C796 H812 0.931 . S
C797 C796 1.391 . S
C797 C801 1.376 . S
C798 C796 1.394 . S
C798 C799 1.369 . S
C798 C802 1.531 . S
C799 C798 1.369 . S
C799 C800 1.410 . S
C799 C807 1.503 . S
C800 C799 1.410 . S
C800 C801 1.392 . S
C800 C803 1.511 . S
C801 C797 1.376 . S
C801 C800 1.392 . S
C801 H813 0.929 . S
C802 C798 1.531 . S
C802 H814 0.960 . S
C802 H815 0.962 . S
C802 H816 0.960 . S
C803 C800 1.511 . S
C803 H817 0.961 . S
C803 H818 0.961 . S
C803 H819 0.961 . S
C804 C805 1.370 . S
C804 C806 1.363 . S
C804 H820 0.931 . S
C805 C804 1.370 . S
C805 C809 1.408 . S
C806 C804 1.363 . S
C806 C807 1.370 . S
C806 C810 1.524 . S
C807 C799 1.503 . S
C807 C806 1.370 . S
C807 C808 1.403 . S
C808 C807 1.403 . S
C808 C809 1.404 . S
C808 C811 1.539 . S
C809 C805 1.408 . S
C809 C808 1.404 . S
C809 H821 0.930 . S
C810 C806 1.524 . S
C810 H822 0.956 . S
C810 H823 0.961 . S
C810 H824 0.961 . S
C811 C808 1.539 . S
C811 H825 0.958 . S
C811 H826 0.961 . S
C811 H827 0.960 . S
H812 C796 0.931 . S
H813 C801 0.929 . S
H814 C802 0.960 . S
H815 C802 0.962 . S
H816 C802 0.960 . S
H817 C803 0.961 . S
H818 C803 0.961 . S
H819 C803 0.961 . S
H820 C804 0.931 . S
H821 C809 0.930 . S
H822 C810 0.956 . S
H823 C810 0.961 . S
H824 C810 0.961 . S
H825 C811 0.958 . S
H826 C811 0.961 . S
H827 C811 0.960 . S
C828 C829 1.391 . S
C828 C830 1.394 . S
C828 H844 0.931 . S
C829 C828 1.391 . S
C829 C833 1.376 . S
C830 C828 1.394 . S
C830 C831 1.369 . S
C830 C834 1.531 . S
C831 C830 1.369 . S
C831 C832 1.410 . S
C831 C839 1.503 . S
C832 C831 1.410 . S
C832 C833 1.392 . S
C832 C835 1.511 . S
C833 C829 1.376 . S
C833 C832 1.392 . S
C833 H845 0.929 . S
C834 C830 1.531 . S
C834 H846 0.960 . S
C834 H847 0.962 . S
C834 H848 0.960 . S
C835 C832 1.511 . S
C835 H849 0.961 . S
C835 H850 0.961 . S
C835 H851 0.961 . S
C836 C837 1.370 . S
C836 C838 1.363 . S
C836 H852 0.931 . S
C837 C836 1.370 . S
C837 C841 1.408 . S
C838 C836 1.363 . S
C838 C839 1.370 . S
C838 C842 1.524 . S
C839 C831 1.503 . S
C839 C838 1.370 . S
C839 C840 1.403 . S
C840 C839 1.403 . S
C840 C841 1.404 . S
C840 C843 1.539 . S
C841 C837 1.408 . S
C841 C840 1.404 . S
C841 H853 0.930 . S
C842 C838 1.524 . S
C842 H854 0.956 . S
C842 H855 0.961 . S
C842 H856 0.961 . S
C843 C840 1.539 . S
C843 H857 0.958 . S
C843 H858 0.961 . S
C843 H859 0.960 . S
H844 C828 0.931 . S
H845 C833 0.929 . S
H846 C834 0.960 . S
H847 C834 0.962 . S
H848 C834 0.960 . S
H849 C835 0.961 . S
H850 C835 0.961 . S
H851 C835 0.961 . S
H852 C836 0.931 . S
H853 C841 0.930 . S
H854 C842 0.956 . S
H855 C842 0.961 . S
H856 C842 0.961 . S
H857 C843 0.958 . S
H858 C843 0.961 . S
H859 C843 0.960 . S
C860 C861 1.391 . S
C860 C862 1.394 . S
C860 H876 0.931 . S
C861 C860 1.391 . S
C861 C865 1.376 . S
C862 C860 1.394 . S
C862 C863 1.369 . S
C862 C866 1.531 . S
C863 C862 1.369 . S
C863 C864 1.410 . S
C863 C871 1.503 . S
C864 C863 1.410 . S
C864 C865 1.392 . S
C864 C867 1.511 . S
C865 C861 1.376 . S
C865 C864 1.392 . S
C865 H877 0.929 . S
C866 C862 1.531 . S
C866 H878 0.960 . S
C866 H879 0.962 . S
C866 H880 0.960 . S
C867 C864 1.511 . S
C867 H881 0.961 . S
C867 H882 0.961 . S
C867 H883 0.961 . S
C868 C869 1.370 . S
C868 C870 1.363 . S
C868 H884 0.931 . S
C869 C868 1.370 . S
C869 C873 1.408 . S
C870 C868 1.363 . S
C870 C871 1.370 . S
C870 C874 1.524 . S
C871 C863 1.503 . S
C871 C870 1.370 . S
C871 C872 1.403 . S
C872 C871 1.403 . S
C872 C873 1.404 . S
C872 C875 1.539 . S
C873 C869 1.408 . S
C873 C872 1.404 . S
C873 H885 0.930 . S
C874 C870 1.524 . S
C874 H886 0.956 . S
C874 H887 0.961 . S
C874 H888 0.961 . S
C875 C872 1.539 . S
C875 H889 0.958 . S
C875 H890 0.961 . S
C875 H891 0.960 . S
H876 C860 0.931 . S
H877 C865 0.929 . S
H878 C866 0.960 . S
H879 C866 0.962 . S
H880 C866 0.960 . S
H881 C867 0.961 . S
H882 C867 0.961 . S
H883 C867 0.961 . S
H884 C868 0.931 . S
H885 C873 0.930 . S
H886 C874 0.956 . S
H887 C874 0.961 . S
H888 C874 0.961 . S
H889 C875 0.958 . S
H890 C875 0.961 . S
H891 C875 0.960 . S
C892 C893 1.391 . S
C892 C894 1.394 . S
C892 H908 0.931 . S
C893 C892 1.391 . S
C893 C897 1.376 . S
C894 C892 1.394 . S
C894 C895 1.369 . S
C894 C898 1.531 . S
C895 C894 1.369 . S
C895 C896 1.410 . S
C895 C903 1.503 . S
C896 C895 1.410 . S
C896 C897 1.392 . S
C896 C899 1.511 . S
C897 C893 1.376 . S
C897 C896 1.392 . S
C897 H909 0.929 . S
C898 C894 1.531 . S
C898 H910 0.960 . S
C898 H911 0.962 . S
C898 H912 0.960 . S
C899 C896 1.511 . S
C899 H913 0.961 . S
C899 H914 0.961 . S
C899 H915 0.961 . S
C900 C901 1.370 . S
C900 C902 1.363 . S
C900 H916 0.931 . S
C901 C900 1.370 . S
C901 C905 1.408 . S
C902 C900 1.363 . S
C902 C903 1.370 . S
C902 C906 1.524 . S
C903 C895 1.503 . S
C903 C902 1.370 . S
C903 C904 1.403 . S
C904 C903 1.403 . S
C904 C905 1.404 . S
C904 C907 1.539 . S
C905 C901 1.408 . S
C905 C904 1.404 . S
C905 H917 0.930 . S
C906 C902 1.524 . S
C906 H918 0.956 . S
C906 H919 0.961 . S
C906 H920 0.961 . S
C907 C904 1.539 . S
C907 H921 0.958 . S
C907 H922 0.961 . S
C907 H923 0.960 . S
H908 C892 0.931 . S
H909 C897 0.929 . S
H910 C898 0.960 . S
H911 C898 0.962 . S
H912 C898 0.960 . S
H913 C899 0.961 . S
H914 C899 0.961 . S
H915 C899 0.961 . S
H916 C900 0.931 . S
H917 C905 0.930 . S
H918 C906 0.956 . S
H919 C906 0.961 . S
H920 C906 0.961 . S
H921 C907 0.958 . S
H922 C907 0.961 . S
H923 C907 0.960 . S
C157 C58 1.391 . S
C165 C88 1.324 . S
C197 C96 1.323 . S
C189 C68 1.385 . S
C229 C100 1.312 . S
C221 C40 1.383 . S
C253 C50 1.368 . S
C261 C76 1.283 . S
C293 C117 1.305 . S
C285 C23 1.364 . S
C325 C151 1.305 . S
C317 C32 1.364 . S
C349 C5 1.356 . S
C357 C139 1.281 . S
C381 C14 1.360 . S
C389 C121 1.291 . S
C421 C75 1.267 . S
C413 C13 1.446 . S
C453 C109 1.266 . S
C445 C4 1.446 . S
C485 C113 1.284 . S
C477 C31 1.436 . S
C517 C91 1.284 . S
C509 C22 1.436 . S
C549 C130 1.298 . S
C541 C49 1.446 . S
C573 C41 1.430 . S
C581 C138 1.257 . S
C613 C154 1.268 . S
C605 C67 1.437 . S
C637 C59 1.452 . S
C645 C134 1.300 . S
C677 C79 1.322 . S
C669 C7 1.489 . S
C709 C97 1.286 . S
C701 C16 1.496 . S
C733 C25 1.487 . S
C741 C112 1.331 . S
C773 C92 1.286 . S
C765 C34 1.491 . S
C805 C118 1.294 . S
C797 C43 1.501 . S
C829 C52 1.497 . S
C837 C142 1.334 . S
C861 C61 1.483 . S
C869 C155 1.304 . S
C893 C70 1.486 . S
C901 C133 1.320 . S
