# Generated by pormake.
# Topology tsx, (6,3)-cn, num edge types: 1
# Building blocks:
#     Node 0, Type 0, BuildingBlock: MIDCAF_clean_sbu_0, # of connection points: 6
#     Node 1, Type 0, BuildingBlock: MIDCAF_clean_sbu_0, # of connection points: 6
#     Node 2, Type 1, BuildingBlock: MIDCAF_clean_linker_0, # of connection points: 3
#     Node 3, Type 1, BuildingBlock: MIDCAF_clean_linker_0, # of connection points: 3
#     Node 4, Type 1, BuildingBlock: MIDCAF_clean_linker_0, # of connection points: 3
#     Node 5, Type 1, BuildingBlock: MIDCAF_clean_linker_0, # of connection points: 3
#     Edge 6, Type (0, 1), BuildingBlock: CIFDUS_clean_linker_0, # of connection points: 2
#     Edge 7, Type (0, 1), BuildingBlock: CIFDUS_clean_linker_0, # of connection points: 2
#     Edge 8, Type (0, 1), BuildingBlock: CIFDUS_clean_linker_0, # of connection points: 2
#     Edge 9, Type (0, 1), BuildingBlock: CIFDUS_clean_linker_0, # of connection points: 2
#     Edge 10, Type (0, 1), BuildingBlock: CIFDUS_clean_linker_0, # of connection points: 2
#     Edge 11, Type (0, 1), BuildingBlock: CIFDUS_clean_linker_0, # of connection points: 2
#     Edge 12, Type (0, 1), BuildingBlock: CIFDUS_clean_linker_0, # of connection points: 2
#     Edge 13, Type (0, 1), BuildingBlock: CIFDUS_clean_linker_0, # of connection points: 2
#     Edge 14, Type (0, 1), BuildingBlock: CIFDUS_clean_linker_0, # of connection points: 2
#     Edge 15, Type (0, 1), BuildingBlock: CIFDUS_clean_linker_0, # of connection points: 2
#     Edge 16, Type (0, 1), BuildingBlock: CIFDUS_clean_linker_0, # of connection points: 2
#     Edge 17, Type (0, 1), BuildingBlock: CIFDUS_clean_linker_0, # of connection points: 2
# Relax obj value: 0.119
# Max RMSD: 0.182
# Mean RMSD: 0.113
data_MOF--net-tsx--node1-MIDCAF_clean_sbu_0--node2-MIDCAF_clean_linker_0--edge1-CIFDUS_clean_linker_0
_symmetry_space_group_name_H-M    P1
_symmetry_Int_Tables_number       1
_symmetry_cell_setting            triclinic
loop_
_symmetry_equiv_pos_as_xyz
'x, y, z'
_cell_length_a     21.066894
_cell_length_b     22.40102
_cell_length_c     42.063875
_cell_angle_alpha  92.069852
_cell_angle_beta   97.493985
_cell_angle_gamma 91.785294
loop_
_atom_site_label
_atom_site_type_symbol
_atom_site_fract_x
_atom_site_fract_y
_atom_site_fract_z
_atom_type_partial_charge
Zn0 Zn 0.02883 0.95051 0.9862 0.0
Zn1 Zn 0.19777 0.0136 0.05865 0.0
Zn2 Zn 0.09826 -0.00162 0.02308 0.0
C3 C 0.17233 0.12108 0.02433 0.0
C4 C 0.20992 0.91235 0.01888 0.0
O5 O 0.01707 0.95427 0.04321 0.0
O6 O 0.01727 0.87605 0.01011 0.0
C7 C 0.99025 0.06932 0.99463 0.0
O8 O 0.1203 0.09206 0.01247 0.0
O9 O 0.21375 0.09617 0.04351 0.0
O10 O 0.24192 0.9435 0.04146 0.0
O11 O 0.15356 0.92719 0.00805 0.0
O12 O 0.96383 0.01746 0.99132 0.0
O13 O 0.05204 0.07375 -0.00052 0.0
O14 O 0.09994 0.04851 0.97838 0.0
O15 O 0.08698 0.96158 0.95215 0.0
C16 C 0.10286 0.01667 0.95247 0.0
O17 O 0.06051 -0.00668 0.06799 0.0
O18 O 0.15416 0.00329 0.09821 0.0
C19 C 0.99847 0.89998 0.0348 0.0
C20 C 0.09387 -0.00446 0.09574 0.0
Zn21 Zn 0.69889 0.50047 0.5457 0.0
Zn22 Zn 0.51775 0.44485 0.47994 0.0
Zn23 Zn 0.59351 0.48825 0.51485 0.0
C24 C 0.58627 0.51331 0.44473 0.0
C25 C 0.48129 0.56209 0.49305 0.0
O26 O 0.56698 0.48033 0.562 0.0
O27 O 0.66527 0.4884 0.58793 0.0
C28 C 0.70117 0.4012 0.50296 0.0
O29 O 0.58736 0.5431 0.47163 0.0
O30 O 0.56942 0.45837 0.44351 0.0
O31 O 0.45486 0.51032 0.48946 0.0
O32 O 0.54303 0.56652 0.49536 0.0
O33 O 0.73735 0.43107 0.52459 0.0
O34 O 0.64388 0.41715 0.49509 0.0
O35 O 0.61284 0.58283 0.50609 0.0
O36 O 0.71157 0.58442 0.53175 0.0
C37 C 0.66636 0.6111 0.516 0.0
O38 O 0.51815 0.44322 0.53852 0.0
O39 O 0.50711 0.36922 0.5022 0.0
C40 C 0.6055 0.48182 0.58821 0.0
C41 C 0.49462 0.39095 0.52881 0.0
C42 C 0.85951 0.08865 0.42193 0.0
C43 C 0.87417 0.10495 0.45467 0.0
C44 C 0.9153 0.06907 0.47429 0.0
C45 C 0.94307 0.01947 0.46122 0.0
H46 H 0.06391 0.85625 0.47912 0.0
H47 H 0.15105 0.79796 0.50576 0.0
H48 H 0.23824 0.7912 0.41836 0.0
H49 H 0.15238 0.84849 0.39204 0.0
H50 H 0.0279 0.81678 0.32886 0.0
H51 H 0.04145 0.81958 0.27235 0.0
H52 H 0.95027 0.98954 0.26618 0.0
H53 H 0.93532 0.98631 0.32261 0.0
H54 H 0.8755 0.02925 0.38337 0.0
H55 H 0.82884 0.11553 0.40595 0.0
H56 H 0.92687 0.07992 0.49969 0.0
H57 H 0.97575 -0.00624 0.47687 0.0
N58 N 0.0114 0.92636 0.43064 0.0
N59 N 0.03433 0.87743 0.38342 0.0
N60 N 0.95388 0.94705 0.38074 0.0
C61 C 0.04645 0.88657 0.41571 0.0
C62 C 0.98802 0.90708 0.36577 0.0
C63 C 0.96469 0.95673 0.41312 0.0
C64 C 0.10084 0.85624 0.4334 0.0
C65 C 0.10224 0.84287 0.46586 0.0
C66 C 0.15194 0.80952 0.48103 0.0
C67 C 0.20156 0.79021 0.46415 0.0
C68 C 0.2013 0.80603 0.43217 0.0
C69 C 0.15151 0.83832 0.41697 0.0
C70 C 0.98201 0.90205 0.33038 0.0
C71 C 0.00931 0.85408 0.31529 0.0
C72 C 0.01712 0.85566 0.28294 0.0
C73 C 0.9983 0.90545 0.26512 0.0
C74 C 0.96524 0.95059 0.27933 0.0
C75 C 0.95695 0.94881 0.31173 0.0
C76 C 0.93021 0.00467 0.42819 0.0
C77 C 0.88688 0.03911 0.40891 0.0
C78 C 0.82179 0.93683 0.58879 0.0
C79 C 0.83073 0.92581 0.55657 0.0
C80 C 0.87412 0.96291 0.54304 0.0
C81 C 0.91024 0.00788 0.56173 0.0
H82 H 0.08938 0.09403 0.56825 0.0
H83 H 0.17897 0.14058 0.54676 0.0
H84 H 0.17993 0.28939 0.6155 0.0
H85 H 0.09307 0.23956 0.63863 0.0
H86 H 0.0676 0.17289 0.71075 0.0
H87 H 0.09727 0.15611 0.76775 0.0
H88 H 0.97259 -0.00177 0.75896 0.0
H89 H 0.9428 0.01449 0.70211 0.0
H90 H 0.85173 0.98767 0.63261 0.0
H91 H 0.78921 0.90858 0.60001 0.0
H92 H 0.88175 0.95579 0.51823 0.0
H93 H 0.94501 0.03388 0.55074 0.0
N94 N 0.99054 0.0945 0.60135 0.0
N95 N 0.03565 0.1332 0.65204 0.0
N96 N 0.95076 0.0617 0.64747 0.0
C97 C 0.03398 0.13142 0.61969 0.0
C98 C 0.99437 0.09841 0.6662 0.0
C99 C 0.94807 0.06006 0.61492 0.0
C100 C 0.0842 0.16337 0.60498 0.0
C101 C 0.10849 0.13693 0.57859 0.0
C102 C 0.15984 0.16401 0.56615 0.0
C103 C 0.18704 0.21929 0.57914 0.0
C104 C 0.16145 0.24637 0.60519 0.0
C105 C 0.11115 0.21824 0.61826 0.0
C106 C 1.00346 0.09451 0.70165 0.0
C107 C 0.04564 0.13508 0.72103 0.0
C108 C 0.06254 0.12573 0.75372 0.0
C109 C 0.03805 0.07539 0.76757 0.0
C110 C 0.99298 0.03692 0.7487 0.0
C111 C 0.97563 0.04649 0.71615 0.0
C112 C 0.90401 0.01693 0.59446 0.0
C113 C 0.85814 0.98183 0.60757 0.0
C114 C 0.39274 0.62295 0.93421 0.0
C115 C 0.40903 0.63615 0.96722 0.0
C116 C 0.45634 0.60281 0.98459 0.0
C117 C 0.48749 0.55816 0.96912 0.0
H118 H 0.59694 0.39029 0.9778 0.0
H119 H 0.67369 0.31933 0.00197 0.0
H120 H 0.76925 0.32005 0.91716 0.0
H121 H 0.69374 0.39036 0.89327 0.0
H122 H 0.61531 0.41859 0.8288 0.0
H123 H 0.61003 0.42703 0.77134 0.0
H124 H 0.4407 0.53145 0.77042 0.0
H125 H 0.4471 0.52465 0.8285 0.0
H126 H 0.41045 0.57089 0.89321 0.0
H127 H 0.35765 0.64839 0.91981 0.0
H128 H 0.47002 0.61189 0.01003 0.0
H129 H 0.52469 0.53423 0.98303 0.0
N130 N 0.55368 0.46918 0.93406 0.0
N131 N 0.5821 0.43453 0.88469 0.0
N132 N 0.50208 0.50401 0.8857 0.0
C133 C 0.59013 0.43398 0.91721 0.0
C134 C 0.53807 0.46916 0.86874 0.0
C135 C 0.50946 0.50448 0.91828 0.0
C136 C 0.63894 0.3955 0.93354 0.0
C137 C 0.63492 0.37583 0.96459 0.0
C138 C 0.67856 0.3351 0.97834 0.0
C139 C 0.72744 0.31429 0.96144 0.0
C140 C 0.73265 0.33581 0.93094 0.0
C141 C 0.68887 0.37572 0.91713 0.0
C142 C 0.53179 0.47111 0.83336 0.0
C143 C 0.57654 0.44298 0.81645 0.0
C144 C 0.57322 0.44746 0.78334 0.0
C145 C 0.52467 0.47964 0.7662 0.0
C146 C 0.47904 0.50682 0.78297 0.0
C147 C 0.48262 0.50269 0.81624 0.0
C148 C 0.47232 0.54645 0.93589 0.0
C149 C 0.4237 0.57863 0.91881 0.0
C150 C 0.32041 0.45932 0.07971 0.0
C151 C 0.33972 0.43889 0.05058 0.0
C152 C 0.39069 0.46978 0.03897 0.0
C153 C 0.42364 0.51774 0.05693 0.0
H154 H 0.5752 0.65295 0.05938 0.0
H155 H 0.66451 0.71417 0.0447 0.0
H156 H 0.66519 0.82439 0.1311 0.0
H157 H 0.57647 0.76386 0.14572 0.0
H158 H 0.55438 0.68998 0.20777 0.0
H159 H 0.58172 0.66825 0.26427 0.0
H160 H 0.46134 0.50761 0.24973 0.0
H161 H 0.43411 0.52864 0.19333 0.0
H162 H 0.33844 0.52022 0.12048 0.0
H163 H 0.28205 0.43627 0.08967 0.0
H164 H 0.40664 0.45551 0.01653 0.0
H165 H 0.46483 0.53829 0.04822 0.0
N166 N 0.48516 0.62164 0.09585 0.0
N167 N 0.52271 0.65861 0.14808 0.0
N168 N 0.44671 0.57945 0.14036 0.0
C169 C 0.52299 0.66115 0.11592 0.0
C170 C 0.48514 0.61789 0.16057 0.0
C171 C 0.44592 0.58124 0.10801 0.0
C172 C 0.56926 0.70309 0.10389 0.0
C173 C 0.59367 0.6909 0.0749 0.0
C174 C 0.64511 0.7256 0.06665 0.0
C175 C 0.67231 0.7736 0.08698 0.0
C176 C 0.64526 0.78783 0.11493 0.0
C177 C 0.59455 0.75287 0.12335 0.0
C178 C 0.49278 0.61052 0.19578 0.0
C179 C 0.53288 0.65044 0.21666 0.0
C180 C 0.54845 0.63825 0.24909 0.0
C181 C 0.52456 0.58577 0.26119 0.0
C182 C 0.48139 0.54788 0.24084 0.0
C183 C 0.4655 0.56017 0.20853 0.0
C184 C 0.40628 0.53602 0.08682 0.0
C185 C 0.35332 0.50714 0.09761 0.0
H186 H 0.28184 0.16919 0.00898 0.0
H187 H 0.09279 0.2144 0.02782 0.0
H188 H 0.1259 0.32065 0.03323 0.0
H189 H 0.21411 0.39773 0.04154 0.0
H190 H 0.40432 0.3493 0.02511 0.0
H191 H 0.36519 0.24791 0.00925 0.0
C192 C 0.2474 0.20265 0.01325 0.0
C193 C 0.18496 0.18432 0.01783 0.0
C194 C 0.26744 0.26307 0.01729 0.0
C195 C 0.1407 0.22769 0.02352 0.0
C196 C 0.16003 0.28831 0.02715 0.0
C197 C 0.24676 0.36518 0.03403 0.0
C198 C 0.31234 0.38122 0.03495 0.0
C199 C 0.22411 0.30616 0.02549 0.0
C200 C 0.35367 0.33868 0.02453 0.0
C201 C 0.33143 0.28033 0.01569 0.0
H202 H 0.3294 0.87224 0.03548 0.0
H203 H 0.15134 0.8291 0.97457 0.0
H204 H 0.19583 0.73724 0.9553 0.0
H205 H 0.28533 0.67016 0.95536 0.0
H206 H 0.46544 0.71677 0.01387 0.0
H207 H 0.41889 0.80515 0.03551 0.0
C208 C 0.30024 0.84286 0.01794 0.0
C209 C 0.23721 0.85769 0.00637 0.0
C210 C 0.32611 0.79033 0.00691 0.0
C211 C 0.20012 0.81897 0.98372 0.0
C212 C 0.22542 0.76631 0.9728 0.0
C213 C 0.31472 0.69984 0.97263 0.0
C214 C 0.37903 0.68682 0.9827 0.0
C215 C 0.28841 0.75174 0.98415 0.0
C216 C 0.41564 0.72503 0.00587 0.0
C217 C 0.38929 0.77608 0.01801 0.0
H218 H 0.90066 0.94839 0.06182 0.0
H219 H 0.98233 0.78027 0.03953 0.0
H220 H 0.88866 0.72618 0.05419 0.0
H221 H 0.78027 0.72679 0.06947 0.0
H222 H 0.69656 0.89459 0.09039 0.0
H223 H 0.79418 0.94872 0.08027 0.0
C224 C 0.89865 0.89992 0.06109 0.0
C225 C 0.94843 0.86829 0.04987 0.0
C226 C 0.84373 0.86912 0.06868 0.0
C227 C 0.94458 0.80551 0.04822 0.0
C228 C 0.89087 0.77458 0.05636 0.0
C229 C 0.78325 0.77523 0.07156 0.0
C230 C 0.73099 0.80666 0.08023 0.0
C231 C 0.83944 0.80595 0.06577 0.0
C232 C 0.73612 0.86938 0.08365 0.0
C233 C 0.79192 0.90034 0.0779 0.0
H234 H 0.86581 0.07901 0.00275 0.0
H235 H 0.02773 0.17894 0.97616 0.0
H236 H 0.96178 0.26591 0.96628 0.0
H237 H 0.85641 0.31129 0.96219 0.0
H238 H 0.69436 0.21101 0.98848 0.0
H239 H 0.7623 0.12677 0.0022 0.0
C240 C 0.88658 0.11991 0.99483 0.0
C241 C 0.9513 0.12257 0.98991 0.0
C242 C 0.84845 0.16966 0.98934 0.0
C243 C 0.97803 0.17596 0.98015 0.0
C244 C 0.94031 0.2256 0.97443 0.0
C245 C 0.83617 0.2711 0.97115 0.0
C246 C 0.77045 0.26715 0.97413 0.0
C247 C 0.87528 0.22265 0.97855 0.0
C248 C 0.74492 0.21527 0.98622 0.0
C249 C 0.78358 0.16691 0.99376 0.0
H250 H 0.76931 0.66672 0.49772 0.0
H251 H 0.58611 0.69954 0.52857 0.0
H252 H 0.61849 0.80487 0.54084 0.0
H253 H 0.70659 0.88207 0.55173 0.0
H254 H 0.89019 0.84624 0.52144 0.0
H255 H 0.84996 0.74816 0.49969 0.0
C256 C 0.73575 0.69759 0.50605 0.0
C257 C 0.67567 0.67578 0.51236 0.0
C258 C 0.75538 0.75728 0.51379 0.0
C259 C 0.63236 0.71572 0.52317 0.0
C260 C 0.65133 0.77566 0.53068 0.0
C261 C 0.7373 0.85307 0.53988 0.0
C262 C 0.80155 0.87121 0.53859 0.0
C263 C 0.71391 0.79614 0.52756 0.0
C264 C 0.84056 0.8336 0.52271 0.0
C265 C 0.81772 0.77725 0.5104 0.0
H266 H 0.81763 0.35404 0.51781 0.0
H267 H 0.63657 0.3225 0.45759 0.0
H268 H 0.67332 0.22694 0.43819 0.0
H269 H 0.75605 0.15159 0.4394 0.0
H270 H 0.93771 0.1856 0.4989 0.0
H271 H 0.90039 0.28024 0.51831 0.0
C272 C 0.78616 0.32657 0.50027 0.0
C273 C 0.72443 0.34556 0.48913 0.0
C274 C 0.80727 0.27165 0.48951 0.0
C275 C 0.6844 0.30913 0.46649 0.0
C276 C 0.70527 0.25435 0.45551 0.0
C277 C 0.78774 0.17986 0.45642 0.0
C278 C 0.84964 0.16113 0.46768 0.0
C279 C 0.76649 0.23503 0.46702 0.0
C280 C 0.88946 0.19807 0.49021 0.0
C281 C 0.86844 0.25263 0.50108 0.0
H282 H 0.40205 0.31433 0.50068 0.0
H283 H 0.47182 0.40309 0.59168 0.0
H284 H 0.38438 0.35567 0.61592 0.0
H285 H 0.28722 0.28961 0.61049 0.0
H286 H 0.21043 0.21486 0.51652 0.0
H287 H 0.30217 0.25571 0.49434 0.0
C288 C 0.3988 0.32281 0.52597 0.0
C289 C 0.44456 0.36083 0.54466 0.0
C290 C 0.34688 0.29797 0.53912 0.0
C291 C 0.43823 0.37286 0.57705 0.0
C292 C 0.38788 0.34611 0.59078 0.0
C293 C 0.28974 0.28289 0.58505 0.0
C294 C 0.24189 0.24789 0.5655 0.0
C295 C 0.3416 0.30884 0.57192 0.0
C296 C 0.24708 0.2396 0.5326 0.0
C297 C 0.2994 0.26352 0.5197 0.0
H298 H 0.36124 0.56898 0.50805 0.0
H299 H 0.51149 0.67375 0.4737 0.0
H300 H 0.43949 0.75713 0.46483 0.0
H301 H 0.33051 0.79604 0.46217 0.0
H302 H 0.18116 0.69031 0.49683 0.0
H303 H 0.25654 0.61198 0.51104 0.0
C304 C 0.37833 0.61027 0.49883 0.0
C305 C 0.4411 0.61498 0.49097 0.0
C306 C 0.33687 0.6578 0.49398 0.0
C307 C 0.4632 0.66902 0.47971 0.0
C308 C 0.422 0.71657 0.47458 0.0
C309 C 0.31481 0.75614 0.47323 0.0
C310 C 0.2502 0.74873 0.47819 0.0
C311 C 0.35827 0.71089 0.48093 0.0
C312 C 0.23064 0.69728 0.49296 0.0
C313 C 0.27357 0.6522 0.50078 0.0
H314 H 0.1522 0.95103 0.1498 0.0
H315 H 0.96859 0.00761 0.10591 0.0
H316 H 0.92086 0.98191 0.15409 0.0
H317 H 0.93324 0.94553 0.20961 0.0
H318 H 0.11838 0.8881 0.25151 0.0
H319 H 0.16343 0.91133 0.20295 0.0
C320 C 0.10179 0.95823 0.1508 0.0
C321 C 0.06407 0.98183 0.12458 0.0
C322 C 0.07492 0.9427 0.17814 0.0
C323 C 0.99854 0.98958 0.12592 0.0
C324 C 0.97136 0.97494 0.15344 0.0
C325 C 0.98328 0.93786 0.20791 0.0
C326 C 0.02224 0.9147 0.23403 0.0
C327 C 0.00927 0.95168 0.1798 0.0
C328 C 0.087 0.90474 0.23155 0.0
C329 C 0.11307 0.9186 0.20392 0.0
H330 H 0.12652 0.95868 0.89852 0.0
H331 H 0.09048 0.1342 0.93613 0.0
H332 H 0.07196 0.1702 0.88138 0.0
H333 H 0.0516 0.14711 0.82248 0.0
H334 H 0.08174 0.96864 0.7867 0.0
H335 H 0.11611 0.9382 0.84106 0.0
C336 C 0.11567 0.00518 0.89485 0.0
C337 C 0.10876 0.04345 0.9213 0.0
C338 C 0.1026 0.02459 0.86352 0.0
C339 C 0.09577 0.10375 0.91616 0.0
C340 C 0.08452 0.12412 0.88483 0.0
C341 C 0.06641 0.10183 0.8267 0.0
C342 C 0.06293 0.05978 0.80073 0.0
C343 C 0.08534 0.08425 0.85827 0.0
C344 C 0.08253 0.00133 0.80639 0.0
C345 C 0.10263 0.984 0.83742 0.0
H346 H 0.5495 0.55873 0.62581 0.0
H347 H 0.61109 0.37789 0.61804 0.0
H348 H 0.58283 0.35853 0.67147 0.0
H349 H 0.54983 0.39581 0.72179 0.0
H350 H 0.49882 0.57999 0.73208 0.0
H351 H 0.51173 0.59505 0.67604 0.0
C352 C 0.55567 0.51502 0.63585 0.0
C353 C 0.58189 0.46957 0.61849 0.0
C354 C 0.54132 0.50499 0.66692 0.0
C355 C 0.59082 0.4132 0.63139 0.0
C356 C 0.57475 0.40225 0.66179 0.0
C357 C 0.54157 0.4393 0.71181 0.0
C358 C 0.5242 0.48683 0.73124 0.0
C359 C 0.55154 0.44827 0.68006 0.0
C360 C 0.51188 0.54245 0.71764 0.0
C361 C 0.51983 0.5513 0.68567 0.0
H362 H 0.60908 0.45925 0.38969 0.0
H363 H 0.57217 0.6318 0.43075 0.0
H364 H 0.55423 0.6718 0.37684 0.0
H365 H 0.53559 0.65314 0.31757 0.0
H366 H 0.56798 0.47772 0.27826 0.0
H367 H 0.60032 0.44315 0.33196 0.0
C368 C 0.59807 0.50594 0.38694 0.0
C369 C 0.59094 0.54229 0.41407 0.0
C370 C 0.58569 0.52769 0.3561 0.0
C371 C 0.57774 0.60288 0.41019 0.0
C372 C 0.56685 0.62553 0.37935 0.0
C373 C 0.55043 0.60761 0.32088 0.0
C374 C 0.54811 0.56762 0.29407 0.0
C375 C 0.56842 0.58768 0.35205 0.0
C376 C 0.56778 0.50884 0.29857 0.0
C377 C 0.58673 0.48915 0.32924 0.0
loop_
_geom_bond_atom_site_label_1
_geom_bond_atom_site_label_2
_geom_bond_distance
_geom_bond_site_symmetry_2
_ccdc_geom_bond_type
Zn0 O6 1.935 1_545 S
Zn0 O12 1.898 . S
Zn0 O15 1.905 1_545 S
Zn1 O9 1.905 . S
Zn1 O10 1.898 1_545 S
Zn1 O18 1.920 1_545 S
Zn2 O5 2.080 1_445 S
Zn2 O8 2.114 . S
Zn2 O11 2.120 1_545 S
Zn2 O13 2.120 1_455 S
Zn2 O14 2.114 1_554 S
Zn2 O17 2.080 . S
C3 O8 1.166 . S
C3 O9 1.182 . S
C4 O10 1.167 . S
C4 O11 1.299 . S
O5 Zn2 2.080 1_665 S
O5 C19 1.305 . S
O6 Zn0 1.935 1_565 S
O6 C19 1.223 1_556 S
C7 O12 1.167 . S
C7 O13 1.299 1_556 S
O8 Zn2 2.114 . S
O8 C3 1.166 . S
O9 Zn1 1.905 . S
O9 C3 1.182 . S
O10 Zn1 1.898 1_565 S
O10 C4 1.167 . S
O11 Zn2 2.120 1_565 S
O11 C4 1.299 . S
O12 Zn0 1.898 . S
O12 C7 1.167 . S
O13 Zn2 2.120 1_655 S
O13 C7 1.299 1_554 S
O14 Zn2 2.114 1_556 S
O14 C16 1.166 1_545 S
O15 Zn0 1.905 1_565 S
O15 C16 1.182 1_655 S
C16 O14 1.166 1_565 S
C16 O15 1.182 1_455 S
O17 Zn2 2.080 . S
O17 C20 1.305 1_545 S
O18 Zn1 1.920 1_565 S
O18 C20 1.234 . S
C19 O5 1.305 . S
C19 O6 1.223 1_554 S
C20 O17 1.305 1_565 S
C20 O18 1.234 . S
Zn21 O27 1.920 . S
Zn21 O33 1.898 . S
Zn21 O36 1.905 . S
Zn22 O30 1.905 . S
Zn22 O31 1.898 . S
Zn22 O39 1.920 . S
Zn23 O26 2.080 . S
Zn23 O29 2.114 . S
Zn23 O32 2.120 . S
Zn23 O34 2.120 . S
Zn23 O35 2.114 . S
Zn23 O38 2.080 . S
C24 O29 1.166 . S
C24 O30 1.182 . S
C25 O31 1.167 . S
C25 O32 1.299 . S
O26 Zn23 2.080 . S
O26 C40 1.305 . S
O27 Zn21 1.920 . S
O27 C40 1.234 . S
C28 O33 1.167 . S
C28 O34 1.299 . S
O29 Zn23 2.114 . S
O29 C24 1.166 . S
O30 Zn22 1.905 . S
O30 C24 1.182 . S
O31 Zn22 1.898 . S
O31 C25 1.167 . S
O32 Zn23 2.120 . S
O32 C25 1.299 . S
O33 Zn21 1.898 . S
O33 C28 1.167 . S
O34 Zn23 2.120 . S
O34 C28 1.299 . S
O35 Zn23 2.114 . S
O35 C37 1.166 . S
O36 Zn21 1.905 . S
O36 C37 1.182 . S
C37 O35 1.166 . S
C37 O36 1.182 . S
O38 Zn23 2.080 . S
O38 C41 1.305 . S
O39 Zn22 1.920 . S
O39 C41 1.234 . S
C40 O26 1.305 . S
C40 O27 1.234 . S
C41 O38 1.305 . S
C41 O39 1.234 . S
C42 C43 1.384 . S
C42 H55 0.947 . S
C42 C77 1.382 . S
C43 C42 1.384 . S
C43 C44 1.378 . S
C44 C43 1.378 . S
C44 C45 1.378 1_655 S
C44 H56 0.952 . S
C45 C44 1.378 1_455 S
C45 H57 0.950 . S
C45 C76 1.383 . S
H46 C65 0.947 . S
H47 C66 0.946 . S
H48 C68 0.953 . S
H49 C69 0.945 . S
H50 C71 0.952 . S
H51 C72 0.949 . S
H52 C74 0.950 . S
H53 C75 0.948 . S
H54 C77 0.951 . S
H55 C42 0.947 . S
H56 C44 0.952 . S
H57 C45 0.950 . S
N58 C61 1.382 . S
N58 C63 1.363 . S
N59 C61 1.371 1_565 S
N59 C62 1.372 1_565 S
N60 C62 1.361 . S
N60 C63 1.377 . S
C61 N58 1.382 . S
C61 N59 1.371 1_545 S
C61 C64 1.480 1_545 S
C62 N59 1.372 1_545 S
C62 N60 1.361 . S
C62 C70 1.457 . S
C63 N58 1.363 . S
C63 N60 1.377 . S
C63 C76 1.479 . S
C64 C61 1.480 1_565 S
C64 C65 1.383 . S
C64 C69 1.385 . S
C65 H46 0.947 . S
C65 C64 1.383 . S
C65 C66 1.388 . S
C66 H47 0.946 . S
C66 C65 1.388 . S
C66 C67 1.384 . S
C67 C66 1.384 . S
C67 C68 1.377 . S
C68 H48 0.953 . S
C68 C67 1.377 . S
C68 C69 1.369 . S
C69 H49 0.945 . S
C69 C64 1.385 . S
C69 C68 1.369 . S
C70 C62 1.457 . S
C70 C71 1.372 1_545 S
C70 C75 1.364 . S
C71 H50 0.952 . S
C71 C70 1.372 1_565 S
C71 C72 1.389 . S
C72 H51 0.949 . S
C72 C71 1.389 . S
C72 C73 1.387 1_565 S
C73 C72 1.387 1_545 S
C73 C74 1.372 . S
C74 H52 0.950 . S
C74 C73 1.372 . S
C74 C75 1.379 . S
C75 H53 0.948 . S
C75 C70 1.364 . S
C75 C74 1.379 . S
C76 C45 1.383 . S
C76 C63 1.479 . S
C76 C77 1.398 1_455 S
C77 C42 1.382 . S
C77 H54 0.951 . S
C77 C76 1.398 1_655 S
C78 C79 1.384 . S
C78 H91 0.947 . S
C78 C113 1.382 . S
C79 C78 1.384 . S
C79 C80 1.378 . S
C80 C79 1.378 . S
C80 C81 1.378 . S
C80 H92 0.952 . S
C81 C80 1.378 . S
C81 H93 0.950 . S
C81 C112 1.383 . S
H82 C101 0.947 . S
H83 C102 0.946 . S
H84 C104 0.953 . S
H85 C105 0.945 . S
H86 C107 0.952 . S
H87 C108 0.949 . S
H88 C110 0.950 . S
H89 C111 0.948 . S
H90 C113 0.951 . S
H91 C78 0.947 . S
H92 C80 0.952 . S
H93 C81 0.950 . S
N94 C97 1.382 . S
N94 C99 1.363 1_445 S
N95 C97 1.371 . S
N95 C98 1.372 . S
N96 C98 1.361 1_665 S
N96 C99 1.377 . S
C97 N94 1.382 . S
C97 N95 1.371 . S
C97 C100 1.480 . S
C98 N95 1.372 . S
C98 N96 1.361 1_445 S
C98 C106 1.457 . S
C99 N94 1.363 1_665 S
C99 N96 1.377 . S
C99 C112 1.479 . S
C100 C97 1.480 . S
C100 C101 1.383 . S
C100 C105 1.385 . S
C101 H82 0.947 . S
C101 C100 1.383 . S
C101 C102 1.388 . S
C102 H83 0.946 . S
C102 C101 1.388 . S
C102 C103 1.384 . S
C103 C102 1.384 . S
C103 C104 1.377 . S
C104 H84 0.953 . S
C104 C103 1.377 . S
C104 C105 1.369 . S
C105 H85 0.945 . S
C105 C100 1.385 . S
C105 C104 1.369 . S
C106 C98 1.457 . S
C106 C107 1.372 . S
C106 C111 1.364 1_445 S
C107 H86 0.952 . S
C107 C106 1.372 . S
C107 C108 1.389 . S
C108 H87 0.949 . S
C108 C107 1.389 . S
C108 C109 1.387 . S
C109 C108 1.387 . S
C109 C110 1.372 1_445 S
C110 H88 0.950 . S
C110 C109 1.372 1_665 S
C110 C111 1.379 . S
C111 H89 0.948 . S
C111 C106 1.364 1_665 S
C111 C110 1.379 . S
C112 C81 1.383 . S
C112 C99 1.479 . S
C112 C113 1.398 . S
C113 C78 1.382 . S
C113 H90 0.951 . S
C113 C112 1.398 . S
C114 C115 1.384 . S
C114 H127 0.947 . S
C114 C149 1.382 . S
C115 C114 1.384 . S
C115 C116 1.378 . S
C116 C115 1.378 . S
C116 C117 1.378 . S
C116 H128 0.952 1_556 S
C117 C116 1.378 . S
C117 H129 0.950 . S
C117 C148 1.383 . S
H118 C137 0.947 . S
H119 C138 0.946 1_554 S
H120 C140 0.953 . S
H121 C141 0.945 . S
H122 C143 0.952 . S
H123 C144 0.949 . S
H124 C146 0.950 . S
H125 C147 0.948 . S
H126 C149 0.951 . S
H127 C114 0.947 . S
H128 C116 0.952 1_554 S
H129 C117 0.950 . S
N130 C133 1.382 . S
N130 C135 1.363 . S
N131 C133 1.371 . S
N131 C134 1.372 . S
N132 C134 1.361 . S
N132 C135 1.377 . S
C133 N130 1.382 . S
C133 N131 1.371 . S
C133 C136 1.480 . S
C134 N131 1.372 . S
C134 N132 1.361 . S
C134 C142 1.457 . S
C135 N130 1.363 . S
C135 N132 1.377 . S
C135 C148 1.479 . S
C136 C133 1.480 . S
C136 C137 1.383 . S
C136 C141 1.385 . S
C137 H118 0.947 . S
C137 C136 1.383 . S
C137 C138 1.388 . S
C138 H119 0.946 1_556 S
C138 C137 1.388 . S
C138 C139 1.384 . S
C139 C138 1.384 . S
C139 C140 1.377 . S
C140 H120 0.953 . S
C140 C139 1.377 . S
C140 C141 1.369 . S
C141 H121 0.945 . S
C141 C136 1.385 . S
C141 C140 1.369 . S
C142 C134 1.457 . S
C142 C143 1.372 . S
C142 C147 1.364 . S
C143 H122 0.952 . S
C143 C142 1.372 . S
C143 C144 1.389 . S
C144 H123 0.949 . S
C144 C143 1.389 . S
C144 C145 1.387 . S
C145 C144 1.387 . S
C145 C146 1.372 . S
C146 H124 0.950 . S
C146 C145 1.372 . S
C146 C147 1.379 . S
C147 H125 0.948 . S
C147 C142 1.364 . S
C147 C146 1.379 . S
C148 C117 1.383 . S
C148 C135 1.479 . S
C148 C149 1.398 . S
C149 C114 1.382 . S
C149 H126 0.951 . S
C149 C148 1.398 . S
C150 C151 1.384 . S
C150 H163 0.947 . S
C150 C185 1.382 . S
C151 C150 1.384 . S
C151 C152 1.378 . S
C152 C151 1.378 . S
C152 C153 1.378 . S
C152 H164 0.952 . S
C153 C152 1.378 . S
C153 H165 0.950 . S
C153 C184 1.383 . S
H154 C173 0.947 . S
H155 C174 0.946 . S
H156 C176 0.953 . S
H157 C177 0.945 . S
H158 C179 0.952 . S
H159 C180 0.949 . S
H160 C182 0.950 . S
H161 C183 0.948 . S
H162 C185 0.951 . S
H163 C150 0.947 . S
H164 C152 0.952 . S
H165 C153 0.950 . S
N166 C169 1.382 . S
N166 C171 1.363 . S
N167 C169 1.371 . S
N167 C170 1.372 . S
N168 C170 1.361 . S
N168 C171 1.377 . S
C169 N166 1.382 . S
C169 N167 1.371 . S
C169 C172 1.480 . S
C170 N167 1.372 . S
C170 N168 1.361 . S
C170 C178 1.457 . S
C171 N166 1.363 . S
C171 N168 1.377 . S
C171 C184 1.479 . S
C172 C169 1.480 . S
C172 C173 1.383 . S
C172 C177 1.385 . S
C173 H154 0.947 . S
C173 C172 1.383 . S
C173 C174 1.388 . S
C174 H155 0.946 . S
C174 C173 1.388 . S
C174 C175 1.384 . S
C175 C174 1.384 . S
C175 C176 1.377 . S
C176 H156 0.953 . S
C176 C175 1.377 . S
C176 C177 1.369 . S
C177 H157 0.945 . S
C177 C172 1.385 . S
C177 C176 1.369 . S
C178 C170 1.457 . S
C178 C179 1.372 . S
C178 C183 1.364 . S
C179 H158 0.952 . S
C179 C178 1.372 . S
C179 C180 1.389 . S
C180 H159 0.949 . S
C180 C179 1.389 . S
C180 C181 1.387 . S
C181 C180 1.387 . S
C181 C182 1.372 . S
C182 H160 0.950 . S
C182 C181 1.372 . S
C182 C183 1.379 . S
C183 H161 0.948 . S
C183 C178 1.364 . S
C183 C182 1.379 . S
C184 C153 1.383 . S
C184 C171 1.479 . S
C184 C185 1.398 . S
C185 C150 1.382 . S
C185 H162 0.951 . S
C185 C184 1.398 . S
H186 C192 0.930 . S
H187 C195 0.930 . S
H188 C196 0.930 . S
H189 C197 0.930 . S
H190 C200 0.930 . S
H191 C201 0.930 . S
C192 H186 0.930 . S
C192 C193 1.355 . S
C192 C194 1.415 . S
C193 C192 1.355 . S
C193 C195 1.419 . S
C194 C192 1.415 . S
C194 C199 1.425 . S
C194 C201 1.409 . S
C195 H187 0.930 . S
C195 C193 1.419 . S
C195 C196 1.362 . S
C196 H188 0.930 . S
C196 C195 1.362 . S
C196 C199 1.409 . S
C197 H189 0.930 . S
C197 C198 1.355 . S
C197 C199 1.415 . S
C198 C197 1.355 . S
C198 C200 1.419 . S
C199 C194 1.425 . S
C199 C196 1.409 . S
C199 C197 1.415 . S
C200 H190 0.930 . S
C200 C198 1.419 . S
C200 C201 1.362 . S
C201 H191 0.930 . S
C201 C194 1.409 . S
C201 C200 1.362 . S
H202 C208 0.930 . S
H203 C211 0.930 . S
H204 C212 0.930 . S
H205 C213 0.930 . S
H206 C216 0.927 1_554 S
H207 C217 0.930 . S
C208 H202 0.930 . S
C208 C209 1.355 1_554 S
C208 C210 1.415 1_554 S
C209 C208 1.355 1_556 S
C209 C211 1.419 . S
C210 C208 1.415 1_556 S
C210 C215 1.425 . S
C210 C217 1.409 1_556 S
C211 H203 0.930 . S
C211 C209 1.419 . S
C211 C212 1.362 . S
C212 H204 0.930 . S
C212 C211 1.362 . S
C212 C215 1.409 . S
C213 H205 0.930 . S
C213 C214 1.355 . S
C213 C215 1.415 . S
C214 C213 1.355 . S
C214 C216 1.427 . S
C215 C210 1.425 . S
C215 C212 1.409 . S
C215 C213 1.415 . S
C216 H206 0.927 1_556 S
C216 C214 1.427 . S
C216 C217 1.358 1_556 S
C217 H207 0.930 . S
C217 C210 1.409 1_554 S
C217 C216 1.358 1_554 S
H218 C224 0.930 . S
H219 C227 0.930 1_556 S
H220 C228 0.930 1_556 S
H221 C229 0.930 . S
H222 C232 0.930 . S
H223 C233 0.930 . S
C224 H218 0.930 . S
C224 C225 1.355 . S
C224 C226 1.415 . S
C225 C224 1.355 . S
C225 C227 1.419 . S
C226 C224 1.415 . S
C226 C231 1.425 . S
C226 C233 1.409 . S
C227 H219 0.930 1_554 S
C227 C225 1.419 . S
C227 C228 1.362 . S
C228 H220 0.930 1_554 S
C228 C227 1.362 . S
C228 C231 1.409 . S
C229 H221 0.930 . S
C229 C230 1.355 . S
C229 C231 1.415 . S
C230 C229 1.355 . S
C230 C232 1.419 . S
C231 C226 1.425 . S
C231 C228 1.409 . S
C231 C229 1.415 . S
C232 H222 0.930 . S
C232 C230 1.419 . S
C232 C233 1.362 . S
C233 H223 0.930 . S
C233 C226 1.409 . S
C233 C232 1.362 . S
H234 C240 0.930 . S
H235 C243 0.929 1_454 S
H236 C244 0.930 . S
H237 C245 0.930 . S
H238 C248 0.930 . S
H239 C249 0.930 . S
C240 H234 0.930 . S
C240 C241 1.355 1_556 S
C240 C242 1.415 . S
C241 C240 1.355 1_554 S
C241 C243 1.417 1_554 S
C242 C240 1.415 . S
C242 C247 1.425 . S
C242 C249 1.409 . S
C243 H235 0.929 1_656 S
C243 C241 1.417 1_556 S
C243 C244 1.365 . S
C244 H236 0.930 . S
C244 C243 1.365 . S
C244 C247 1.409 . S
C245 H237 0.930 . S
C245 C246 1.355 . S
C245 C247 1.415 . S
C246 C245 1.355 . S
C246 C248 1.419 . S
C247 C242 1.425 . S
C247 C244 1.409 . S
C247 C245 1.415 . S
C248 H238 0.930 . S
C248 C246 1.419 . S
C248 C249 1.362 . S
C249 H239 0.930 . S
C249 C242 1.409 . S
C249 C248 1.362 . S
H250 C256 0.930 . S
H251 C259 0.930 . S
H252 C260 0.930 . S
H253 C261 0.930 . S
H254 C264 0.930 . S
H255 C265 0.930 . S
C256 H250 0.930 . S
C256 C257 1.355 . S
C256 C258 1.415 . S
C257 C256 1.355 . S
C257 C259 1.419 . S
C258 C256 1.415 . S
C258 C263 1.425 . S
C258 C265 1.409 . S
C259 H251 0.930 . S
C259 C257 1.419 . S
C259 C260 1.362 . S
C260 H252 0.930 . S
C260 C259 1.362 . S
C260 C263 1.409 . S
C261 H253 0.930 . S
C261 C262 1.355 . S
C261 C263 1.415 . S
C262 C261 1.355 . S
C262 C264 1.419 . S
C263 C258 1.425 . S
C263 C260 1.409 . S
C263 C261 1.415 . S
C264 H254 0.930 . S
C264 C262 1.419 . S
C264 C265 1.362 . S
C265 H255 0.930 . S
C265 C258 1.409 . S
C265 C264 1.362 . S
H266 C272 0.930 . S
H267 C275 0.930 . S
H268 C276 0.930 . S
H269 C277 0.930 . S
H270 C280 0.930 . S
H271 C281 0.930 . S
C272 H266 0.930 . S
C272 C273 1.355 . S
C272 C274 1.415 . S
C273 C272 1.355 . S
C273 C275 1.419 . S
C274 C272 1.415 . S
C274 C279 1.425 . S
C274 C281 1.409 . S
C275 H267 0.930 . S
C275 C273 1.419 . S
C275 C276 1.362 . S
C276 H268 0.930 . S
C276 C275 1.362 . S
C276 C279 1.409 . S
C277 H269 0.930 . S
C277 C278 1.355 . S
C277 C279 1.415 . S
C278 C277 1.355 . S
C278 C280 1.419 . S
C279 C274 1.425 . S
C279 C276 1.409 . S
C279 C277 1.415 . S
C280 H270 0.930 . S
C280 C278 1.419 . S
C280 C281 1.362 . S
C281 H271 0.930 . S
C281 C274 1.409 . S
C281 C280 1.362 . S
H282 C288 0.930 . S
H283 C291 0.930 . S
H284 C292 0.930 . S
H285 C293 0.930 . S
H286 C296 0.930 . S
H287 C297 0.930 . S
C288 H282 0.930 . S
C288 C289 1.355 . S
C288 C290 1.415 . S
C289 C288 1.355 . S
C289 C291 1.419 . S
C290 C288 1.415 . S
C290 C295 1.425 . S
C290 C297 1.409 . S
C291 H283 0.930 . S
C291 C289 1.419 . S
C291 C292 1.362 . S
C292 H284 0.930 . S
C292 C291 1.362 . S
C292 C295 1.409 . S
C293 H285 0.930 . S
C293 C294 1.355 . S
C293 C295 1.415 . S
C294 C293 1.355 . S
C294 C296 1.419 . S
C295 C290 1.425 . S
C295 C292 1.409 . S
C295 C293 1.415 . S
C296 H286 0.930 . S
C296 C294 1.419 . S
C296 C297 1.362 . S
C297 H287 0.930 . S
C297 C290 1.409 . S
C297 C296 1.362 . S
H298 C304 0.930 . S
H299 C307 0.930 . S
H300 C308 0.930 . S
H301 C309 0.930 . S
H302 C312 0.930 . S
H303 C313 0.930 . S
C304 H298 0.930 . S
C304 C305 1.355 . S
C304 C306 1.415 . S
C305 C304 1.355 . S
C305 C307 1.419 . S
C306 C304 1.415 . S
C306 C311 1.425 . S
C306 C313 1.409 . S
C307 H299 0.930 . S
C307 C305 1.419 . S
C307 C308 1.362 . S
C308 H300 0.930 . S
C308 C307 1.362 . S
C308 C311 1.409 . S
C309 H301 0.930 . S
C309 C310 1.355 . S
C309 C311 1.415 . S
C310 C309 1.355 . S
C310 C312 1.419 . S
C311 C306 1.425 . S
C311 C308 1.409 . S
C311 C309 1.415 . S
C312 H302 0.930 . S
C312 C310 1.419 . S
C312 C313 1.362 . S
C313 H303 0.930 . S
C313 C306 1.409 . S
C313 C312 1.362 . S
H314 C320 0.930 . S
H315 C323 0.930 . S
H316 C324 0.930 . S
H317 C325 0.930 1_655 S
H318 C328 0.930 . S
H319 C329 0.930 . S
C320 H314 0.930 . S
C320 C321 1.355 . S
C320 C322 1.415 1_565 S
C321 C320 1.355 . S
C321 C323 1.419 1_455 S
C322 C320 1.415 1_545 S
C322 C327 1.425 . S
C322 C329 1.409 . S
C323 H315 0.930 . S
C323 C321 1.419 1_655 S
C323 C324 1.362 1_565 S
C324 H316 0.930 . S
C324 C323 1.362 1_545 S
C324 C327 1.409 1_655 S
C325 H317 0.930 1_455 S
C325 C326 1.355 . S
C325 C327 1.415 . S
C326 C325 1.355 . S
C326 C328 1.419 . S
C327 C322 1.425 . S
C327 C324 1.409 1_455 S
C327 C325 1.415 . S
C328 H318 0.930 . S
C328 C326 1.419 . S
C328 C329 1.362 . S
C329 H319 0.930 . S
C329 C322 1.409 . S
C329 C328 1.362 . S
H330 C336 0.930 . S
H331 C339 0.930 . S
H332 C340 0.930 . S
H333 C341 0.930 . S
H334 C344 0.930 . S
H335 C345 0.930 . S
C336 H330 0.930 . S
C336 C337 1.355 . S
C336 C338 1.415 . S
C337 C336 1.355 . S
C337 C339 1.419 1_465 S
C338 C336 1.415 . S
C338 C343 1.425 1_465 S
C338 C345 1.409 . S
C339 H331 0.930 . S
C339 C337 1.419 1_645 S
C339 C340 1.362 . S
C340 H332 0.930 . S
C340 C339 1.362 . S
C340 C343 1.409 . S
C341 H333 0.930 . S
C341 C342 1.355 1_655 S
C341 C343 1.415 . S
C342 C341 1.355 1_455 S
C342 C344 1.419 1_545 S
C343 C338 1.425 1_645 S
C343 C340 1.409 . S
C343 C341 1.415 . S
C344 H334 0.930 . S
C344 C342 1.419 1_565 S
C344 C345 1.362 . S
C345 H335 0.930 . S
C345 C338 1.409 . S
C345 C344 1.362 . S
H346 C352 0.930 . S
H347 C355 0.930 . S
H348 C356 0.930 . S
H349 C357 0.930 . S
H350 C360 0.930 . S
H351 C361 0.930 . S
C352 H346 0.930 . S
C352 C353 1.355 . S
C352 C354 1.415 . S
C353 C352 1.355 . S
C353 C355 1.419 . S
C354 C352 1.415 . S
C354 C359 1.425 . S
C354 C361 1.409 . S
C355 H347 0.930 . S
C355 C353 1.419 . S
C355 C356 1.362 . S
C356 H348 0.930 . S
C356 C355 1.362 . S
C356 C359 1.409 . S
C357 H349 0.930 . S
C357 C358 1.355 . S
C357 C359 1.415 . S
C358 C357 1.355 . S
C358 C360 1.419 . S
C359 C354 1.425 . S
C359 C356 1.409 . S
C359 C357 1.415 . S
C360 H350 0.930 . S
C360 C358 1.419 . S
C360 C361 1.362 . S
C361 H351 0.930 . S
C361 C354 1.409 . S
C361 C360 1.362 . S
H362 C368 0.930 . S
H363 C371 0.930 . S
H364 C372 0.930 . S
H365 C373 0.930 . S
H366 C376 0.930 . S
H367 C377 0.930 . S
C368 H362 0.930 . S
C368 C369 1.355 . S
C368 C370 1.415 . S
C369 C368 1.355 . S
C369 C371 1.419 . S
C370 C368 1.415 . S
C370 C375 1.425 . S
C370 C377 1.409 . S
C371 H363 0.930 . S
C371 C369 1.419 . S
C371 C372 1.362 . S
C372 H364 0.930 . S
C372 C371 1.362 . S
C372 C375 1.409 . S
C373 H365 0.930 . S
C373 C374 1.355 . S
C373 C375 1.415 . S
C374 C373 1.355 . S
C374 C376 1.419 . S
C375 C370 1.425 . S
C375 C372 1.409 . S
C375 C373 1.415 . S
C376 H366 0.930 . S
C376 C374 1.419 . S
C376 C377 1.362 . S
C377 H367 0.930 . S
C377 C370 1.409 . S
C377 C376 1.362 . S
C198 C151 1.281 . S
C193 C3 1.199 . S
C209 C4 1.540 1_556 S
C214 C115 1.623 . S
C225 C19 1.500 . S
C230 C175 1.588 . S
C241 C7 1.212 1_554 S
C246 C139 1.287 . S
C257 C37 1.138 . S
C262 C79 1.300 . S
C273 C28 1.501 . S
C278 C43 1.603 . S
C294 C103 1.621 . S
C289 C41 1.555 . S
C310 C67 1.289 . S
C305 C25 1.210 . S
C321 C20 1.367 . S
C326 C73 1.483 . S
C337 C16 1.301 . S
C342 C109 1.478 . S
C358 C145 1.486 . S
C353 C40 1.296 . S
C369 C24 1.289 . S
C374 C181 1.480 . S
