# Generated by pormake.
# Topology pto, (3,4)-cn, num edge types: 1
# Building blocks:
#     Node 0, Type 0, BuildingBlock: QEWDON_clean_linker_0, # of connection points: 3
#     Node 1, Type 0, BuildingBlock: QEWDON_clean_linker_0, # of connection points: 3
#     Node 2, Type 0, BuildingBlock: QEWDON_clean_linker_0, # of connection points: 3
#     Node 3, Type 0, BuildingBlock: QEWDON_clean_linker_0, # of connection points: 3
#     Node 4, Type 0, BuildingBlock: QEWDON_clean_linker_0, # of connection points: 3
#     Node 5, Type 0, BuildingBlock: QEWDON_clean_linker_0, # of connection points: 3
#     Node 6, Type 0, BuildingBlock: QEWDON_clean_linker_0, # of connection points: 3
#     Node 7, Type 0, BuildingBlock: QEWDON_clean_linker_0, # of connection points: 3
#     Node 8, Type 1, BuildingBlock: NAWXER_clean_sbu_0, # of connection points: 4
#     Node 9, Type 1, BuildingBlock: NAWXER_clean_sbu_0, # of connection points: 4
#     Node 10, Type 1, BuildingBlock: NAWXER_clean_sbu_0, # of connection points: 4
#     Node 11, Type 1, BuildingBlock: NAWXER_clean_sbu_0, # of connection points: 4
#     Node 12, Type 1, BuildingBlock: NAWXER_clean_sbu_0, # of connection points: 4
#     Node 13, Type 1, BuildingBlock: NAWXER_clean_sbu_0, # of connection points: 4
#     Edge 14, Type (0, 1), BuildingBlock: AJUNOK_clean_linker_0, # of connection points: 2
#     Edge 15, Type (0, 1), BuildingBlock: AJUNOK_clean_linker_0, # of connection points: 2
#     Edge 16, Type (0, 1), BuildingBlock: AJUNOK_clean_linker_0, # of connection points: 2
#     Edge 17, Type (0, 1), BuildingBlock: AJUNOK_clean_linker_0, # of connection points: 2
#     Edge 18, Type (0, 1), BuildingBlock: AJUNOK_clean_linker_0, # of connection points: 2
#     Edge 19, Type (0, 1), BuildingBlock: AJUNOK_clean_linker_0, # of connection points: 2
#     Edge 20, Type (0, 1), BuildingBlock: AJUNOK_clean_linker_0, # of connection points: 2
#     Edge 21, Type (0, 1), BuildingBlock: AJUNOK_clean_linker_0, # of connection points: 2
#     Edge 22, Type (0, 1), BuildingBlock: AJUNOK_clean_linker_0, # of connection points: 2
#     Edge 23, Type (0, 1), BuildingBlock: AJUNOK_clean_linker_0, # of connection points: 2
#     Edge 24, Type (0, 1), BuildingBlock: AJUNOK_clean_linker_0, # of connection points: 2
#     Edge 25, Type (0, 1), BuildingBlock: AJUNOK_clean_linker_0, # of connection points: 2
#     Edge 26, Type (0, 1), BuildingBlock: AJUNOK_clean_linker_0, # of connection points: 2
#     Edge 27, Type (0, 1), BuildingBlock: AJUNOK_clean_linker_0, # of connection points: 2
#     Edge 28, Type (0, 1), BuildingBlock: AJUNOK_clean_linker_0, # of connection points: 2
#     Edge 29, Type (0, 1), BuildingBlock: AJUNOK_clean_linker_0, # of connection points: 2
#     Edge 30, Type (0, 1), BuildingBlock: AJUNOK_clean_linker_0, # of connection points: 2
#     Edge 31, Type (0, 1), BuildingBlock: AJUNOK_clean_linker_0, # of connection points: 2
#     Edge 32, Type (0, 1), BuildingBlock: AJUNOK_clean_linker_0, # of connection points: 2
#     Edge 33, Type (0, 1), BuildingBlock: AJUNOK_clean_linker_0, # of connection points: 2
#     Edge 34, Type (0, 1), BuildingBlock: AJUNOK_clean_linker_0, # of connection points: 2
#     Edge 35, Type (0, 1), BuildingBlock: AJUNOK_clean_linker_0, # of connection points: 2
#     Edge 36, Type (0, 1), BuildingBlock: AJUNOK_clean_linker_0, # of connection points: 2
#     Edge 37, Type (0, 1), BuildingBlock: AJUNOK_clean_linker_0, # of connection points: 2
# Relax obj value: 0.024
# Max RMSD: 0.209
# Mean RMSD: 0.073
data_MOF--net-pto--node1-NAWXER_clean_sbu_0--node2-QEWDON_clean_linker_0--edge1-AJUNOK_clean_linker_0
_symmetry_space_group_name_H-M    P1
_symmetry_Int_Tables_number       1
_symmetry_cell_setting            triclinic
loop_
_symmetry_equiv_pos_as_xyz
'x, y, z'
_cell_length_a     28.987019
_cell_length_b     30.629638
_cell_length_c     29.051614
_cell_angle_alpha  98.054183
_cell_angle_beta   107.74527
_cell_angle_gamma 100.23341
loop_
_atom_site_label
_atom_site_type_symbol
_atom_site_fract_x
_atom_site_fract_y
_atom_site_fract_z
_atom_type_partial_charge
H0 H 0.30715 0.31898 0.19648 0.0
C1 C 0.31868 0.30148 0.22648 0.0
C2 C 0.36739 0.29506 0.24205 0.0
C3 C 0.28369 0.28234 0.24676 0.0
H4 H 0.41932 0.26609 0.29172 0.0
C5 C 0.38162 0.27085 0.27967 0.0
C6 C 0.34741 0.25182 0.30088 0.0
C7 C 0.29827 0.25739 0.28372 0.0
C8 C 0.23123 0.28641 0.22774 0.0
H9 H 0.27088 0.24148 0.29833 0.0
C10 C 0.22006 0.32893 0.22364 0.0
C11 C 0.17026 0.3334 0.21002 0.0
C12 C 0.19199 0.24779 0.21488 0.0
H13 H 0.19953 0.21459 0.21699 0.0
C14 C 0.14264 0.25159 0.19895 0.0
H15 H 0.2503 0.3586 0.23269 0.0
C16 C 0.13175 0.29402 0.19699 0.0
H17 H 0.09314 0.29609 0.18687 0.0
H18 H 0.11266 0.22162 0.18923 0.0
H19 H 0.42736 0.90017 0.80765 0.0
C20 C 0.39974 0.87442 0.81311 0.0
C21 C 0.4154 0.84288 0.84114 0.0
C22 C 0.34882 0.87371 0.79351 0.0
H23 H 0.39275 0.78634 0.87195 0.0
C24 C 0.38023 0.81058 0.85 0.0
C25 C 0.32945 0.81011 0.8324 0.0
C26 C 0.31372 0.84137 0.80337 0.0
C27 C 0.33324 0.90892 0.76589 0.0
H28 H 0.27444 0.841 0.78923 0.0
C29 C 0.35398 0.9208 0.72998 0.0
C30 C 0.34208 0.95665 0.70687 0.0
C31 C 0.2997 0.93279 0.77746 0.0
H32 H 0.28367 0.92478 0.80528 0.0
C33 C 0.28781 0.96832 0.75443 0.0
H34 H 0.37948 0.90241 0.72019 0.0
C35 C 0.30908 0.98043 0.71959 0.0
H36 H 0.29921 0.00799 0.70195 0.0
H37 H 0.26224 0.98674 0.76387 0.0
H38 H 0.93759 0.75265 0.41419 0.0
C39 C 0.91449 0.76579 0.38505 0.0
C40 C 0.91394 0.75304 0.33619 0.0
C41 C 0.88506 0.79504 0.39637 0.0
H42 H 0.88088 0.75954 0.26075 0.0
C43 C 0.88417 0.77074 0.29893 0.0
C44 C 0.85546 0.80034 0.30978 0.0
C45 C 0.85596 0.81229 0.35823 0.0
C46 C 0.88178 0.80533 0.44694 0.0
H47 H 0.8319 0.83368 0.36558 0.0
C48 C 0.87655 0.84833 0.46661 0.0
C49 C 0.87117 0.85743 0.51341 0.0
C50 C 0.88129 0.77142 0.47492 0.0
H51 H 0.88404 0.73772 0.46068 0.0
C52 C 0.87571 0.78015 0.52115 0.0
H53 H 0.8766 0.87479 0.4455 0.0
C54 C 0.87062 0.82273 0.54029 0.0
H55 H 0.8671 0.82876 0.57658 0.0
H56 H 0.87525 0.75371 0.54224 0.0
H57 H 0.95541 0.42456 0.01461 0.0
C58 C 0.94453 0.39563 0.98419 0.0
C59 C 0.96852 0.39574 0.94912 0.0
C60 C 0.90726 0.35813 0.98095 0.0
H61 H 0.97236 0.35843 0.88239 0.0
C62 C 0.95451 0.358 0.91019 0.0
C63 C 0.91773 0.31966 0.9066 0.0
C64 C 0.89362 0.32011 0.94205 0.0
C65 C 0.88572 0.3586 0.02081 0.0
H66 H 0.86603 0.29054 0.94065 0.0
C67 C 0.83876 0.3682 0.014 0.0
C68 C 0.82129 0.37441 0.05415 0.0
C69 C 0.91496 0.35463 0.06771 0.0
H70 H 0.95162 0.34801 0.07369 0.0
C71 C 0.89746 0.3599 0.10737 0.0
H72 H 0.81659 0.3721 0.97797 0.0
C73 C 0.85099 0.36977 0.10076 0.0
H74 H 0.83795 0.37301 0.13199 0.0
H75 H 0.92007 0.35656 0.14341 0.0
H76 H 0.99267 0.79882 0.87617 0.0
C77 C 0.95896 0.79369 0.88567 0.0
C78 C 0.93013 0.7497 0.87777 0.0
C79 C 0.94647 0.83094 0.90842 0.0
H80 H 0.86558 0.70906 0.88592 0.0
C81 C 0.8878 0.74315 0.89238 0.0
C82 C 0.87457 0.78037 0.91546 0.0
C83 C 0.90436 0.82433 0.9231 0.0
C84 C 0.98043 0.87611 0.92058 0.0
H85 H 0.89598 0.85335 0.9421 0.0
C86 C 0.97136 0.90692 0.88928 0.0
C87 C 1.00582 0.94873 0.89921 0.0
C88 C 0.02407 0.88715 0.96196 0.0
H89 H 0.03183 0.86349 0.98616 0.0
C90 C 0.05827 0.92856 0.97201 0.0
H91 H 0.9382 0.89785 0.85666 0.0
C92 C 0.04941 0.95915 0.94074 0.0
H93 H 0.07636 0.99112 0.94921 0.0
H94 H 0.09191 0.93685 1.00398 0.0
H95 H 0.92033 0.30713 0.37505 0.0
C96 C 0.88297 0.30173 0.349 0.0
C97 C 0.86994 0.33538 0.32258 0.0
C98 C 0.84961 0.25939 0.33866 0.0
H99 H 0.81188 0.35198 0.26558 0.0
C100 C 0.82237 0.32644 0.28642 0.0
C101 C 0.78865 0.28433 0.27559 0.0
C102 C 0.80229 0.25099 0.30208 0.0
C103 C 0.86696 0.22209 0.36113 0.0
H104 H 0.77687 0.218 0.29299 0.0
C105 C 0.88639 0.22663 0.41283 0.0
C106 C 0.90499 0.19149 0.4332 0.0
C107 C 0.86623 0.18221 0.33019 0.0
H108 H 0.85194 0.17818 0.29038 0.0
C109 C 0.88497 0.1476 0.35026 0.0
H110 H 0.88674 0.25714 0.437 0.0
C111 C 0.90422 0.15212 0.40135 0.0
H112 H 0.91738 0.12427 0.41604 0.0
H113 H 0.88436 0.11704 0.3261 0.0
H114 H 0.33445 0.2969 0.75349 0.0
C115 C 0.31513 0.32193 0.76338 0.0
C116 C 0.32497 0.34058 0.81365 0.0
C117 C 0.28122 0.33626 0.72578 0.0
H118 H 0.30627 0.38752 0.86409 0.0
C119 C 0.29919 0.37303 0.82569 0.0
C120 C 0.26494 0.38739 0.78849 0.0
C121 C 0.25605 0.3684 0.73897 0.0
C122 C 0.27318 0.32002 0.67248 0.0
H123 H 0.22982 0.37949 0.71025 0.0
C124 C 0.26865 0.27412 0.65261 0.0
C125 C 0.25912 0.25944 0.60164 0.0
C126 C 0.26909 0.35102 0.64071 0.0
H127 H 0.27372 0.38676 0.65482 0.0
C128 C 0.25958 0.33655 0.59039 0.0
H129 H 0.27197 0.24979 0.67647 0.0
C130 C 0.25462 0.29113 0.57089 0.0
H131 H 0.24897 0.28107 0.53194 0.0
H132 H 0.25676 0.36081 0.5665 0.0
H133 H 0.37686 0.82319 0.23494 0.0
C134 C 0.3609 0.79925 0.25328 0.0
C135 C 0.34839 0.81531 0.29462 0.0
C136 C 0.34874 0.75231 0.23326 0.0
H137 H 0.31431 0.79738 0.3476 0.0
C138 C 0.32515 0.78459 0.31663 0.0
C139 C 0.31068 0.7382 0.29605 0.0
C140 C 0.32363 0.72201 0.2551 0.0
C141 C 0.35408 0.73529 0.18497 0.0
H142 H 0.31131 0.68618 0.23824 0.0
C143 C 0.40032 0.7442 0.17696 0.0
C144 C 0.40382 0.72602 0.13089 0.0
C145 C 0.31154 0.70951 0.14606 0.0
H146 H 0.27553 0.70272 0.15094 0.0
C147 C 0.31467 0.6928 0.10025 0.0
H148 H 0.43344 0.7639 0.20668 0.0
C149 C 0.36034 0.7009 0.09267 0.0
H150 H 0.36164 0.68769 0.05659 0.0
H151 H 0.28151 0.6734 0.07046 0.0
C152 C 0.02001 0.49488 0.3328 0.0
C153 C 0.15891 0.6145 0.33446 0.0
O154 O 0.05774 0.51468 0.37085 0.0
Zn155 Zn 0.09052 0.55665 0.33889 0.0
O156 O 0.01573 0.50747 0.29178 0.0
Zn157 Zn 0.0539 0.55375 0.26028 0.0
O158 O 0.06836 0.51124 0.21179 0.0
O159 O 0.10836 0.51055 0.2895 0.0
O160 O 0.12338 0.60054 0.29313 0.0
O161 O 0.15632 0.59843 0.37198 0.0
O162 O 0.04149 0.60089 0.32361 0.0
O163 O 0.00957 0.59462 0.24282 0.0
C164 C 0.09915 0.496 0.24343 0.0
C165 C 0.01341 0.61276 0.28646 0.0
C166 C 0.10218 0.54633 0.92704 0.0
C167 C 0.1978 0.66678 0.87617 0.0
O168 O 0.13931 0.57725 0.95572 0.0
Zn169 Zn 0.1511 0.60614 0.90373 0.0
O170 O 0.08703 0.54435 0.88038 0.0
Zn171 Zn 0.10579 0.58018 0.82794 0.0
O172 O 0.12348 0.53304 0.78923 0.0
O173 O 0.17594 0.55518 0.86576 0.0
O174 O 0.16309 0.63931 0.83968 0.0
O175 O 0.20392 0.66009 0.9196 0.0
O176 O 0.08465 0.63024 0.87956 0.0
O177 O 0.04527 0.60085 0.80012 0.0
C178 C 0.16209 0.52961 0.82281 0.0
C179 C 0.04766 0.62585 0.84003 0.0
C180 C 0.38354 0.02165 0.54492 0.0
C181 C 0.38145 0.1233 0.42842 0.0
O182 O 0.3415 0.01511 0.51046 0.0
Zn183 Zn 0.30888 0.04111 0.44675 0.0
O184 O 0.42089 0.05075 0.54496 0.0
Zn185 Zn 0.387 0.07005 0.48496 0.0
O186 O 0.33679 0.10142 0.51088 0.0
O187 O 0.25892 0.06652 0.46639 0.0
O188 O 0.42002 0.11986 0.46199 0.0
O189 O 0.33951 0.09608 0.41986 0.0
O190 O 0.29016 0.98984 0.39235 0.0
O191 O 0.37165 0.01186 0.42781 0.0
C192 C 0.28997 0.0976 0.50163 0.0
C193 C 0.33335 0.98466 0.39485 0.0
C194 C 0.72019 0.82884 0.13289 0.0
C195 C 0.60158 0.83522 0.97616 0.0
O196 O 0.69812 0.78971 0.10526 0.0
Zn197 Zn 0.6461 0.76138 0.03339 0.0
O198 O 0.71197 0.86454 0.11764 0.0
Zn199 Zn 0.66262 0.83355 0.05426 0.0
O200 O 0.60253 0.79801 0.0747 0.0
O201 O 0.59303 0.7248 0.0488 0.0
O202 O 0.62871 0.86859 0.01074 0.0
O203 O 0.60503 0.79479 0.98074 0.0
O204 O 0.68553 0.73309 0.99968 0.0
O205 O 0.70694 0.80779 0.01469 0.0
C206 C 0.57976 0.75689 0.07054 0.0
C207 C 0.71251 0.7693 0.99642 0.0
C208 C 0.96798 0.0702 0.76169 0.0
C209 C 0.94453 0.15743 0.63001 0.0
O210 O 0.92275 0.07144 0.73998 0.0
Zn211 Zn 0.87998 0.10009 0.6835 0.0
O212 O 1.00242 0.09179 0.74908 0.0
Zn213 Zn 0.95962 0.11679 0.69875 0.0
O214 O 0.93376 0.16173 0.74224 0.0
O215 O 0.85219 0.14034 0.72118 0.0
O216 O 0.98587 0.15348 0.65884 0.0
O217 O 0.90397 0.13985 0.63645 0.0
O218 O 0.8396 0.04401 0.63546 0.0
O219 O 0.91967 0.05667 0.64519 0.0
C220 C 0.89318 0.16751 0.74844 0.0
C221 C 0.87537 0.0323 0.62391 0.0
C222 C 0.60554 0.27759 0.12102 0.0
C223 C 0.47679 0.30588 0.97994 0.0
O224 O 0.57847 0.24833 0.08206 0.0
Zn225 Zn 0.54018 0.28899 0.05008 0.0
O226 O 0.59988 0.31829 0.12617 0.0
Zn227 Zn 0.55569 0.3589 0.08564 0.0
O228 O 0.52072 0.37685 0.12982 0.0
O229 O 0.50006 0.30325 0.09876 0.0
O230 O 0.49851 0.34115 0.01451 0.0
O231 O 0.48931 0.2686 0.98455 0.0
O232 O 0.5992 0.33249 0.03826 0.0
O233 O 0.60919 0.40232 0.07764 0.0
C234 C 0.4958 0.33733 0.12697 0.0
C235 C 0.62309 0.37407 0.05134 0.0
C236 C 0.11576 0.38624 0.17866 0.0
C237 C 0.15798 0.37887 0.21395 0.0
C238 C 0.09851 0.4259 0.18622 0.0
C239 C 0.12295 0.45962 0.22934 0.0
H240 H 0.0947 0.36035 0.14581 0.0
H241 H 0.06431 0.42886 0.1596 0.0
S242 S 0.23847 0.45992 0.33029 0.0
N243 N 0.22554 0.41075 0.29206 0.0
N244 N 0.19484 0.4857 0.30483 0.0
C245 C 0.16731 0.45428 0.26293 0.0
C246 C 0.18443 0.41386 0.25563 0.0
C247 C 0.25197 0.74806 0.80771 0.0
C248 C 0.29369 0.77681 0.84511 0.0
C249 C 0.22097 0.71308 0.81833 0.0
C250 C 0.2303 0.70553 0.86685 0.0
H251 H 0.24415 0.75164 0.76969 0.0
H252 H 0.18983 0.69135 0.78795 0.0
S253 S 0.33276 0.77432 0.97876 0.0
N254 N 0.34096 0.79768 0.9331 0.0
N255 N 0.28322 0.7318 0.95307 0.0
C256 C 0.27107 0.73516 0.90487 0.0
C257 C 0.30258 0.77077 0.894 0.0
C258 C 0.93939 0.67935 0.34402 0.0
C259 C 0.94064 0.71819 0.32313 0.0
C260 C 0.96225 0.64513 0.33109 0.0
C261 C 0.98632 0.64772 0.29589 0.0
H262 H 0.92007 0.67497 0.37022 0.0
H263 H 0.96083 0.61617 0.34862 0.0
S264 S 1.00403 0.74324 0.23292 0.0
N265 N 0.97155 0.75833 0.26777 0.0
N266 N 0.01239 0.69276 0.24203 0.0
C267 C 0.98807 0.68609 0.27464 0.0
C268 C 0.96575 0.72158 0.28858 0.0
C269 C 0.99744 0.4791 0.95627 0.0
C270 C 1.00752 0.4357 0.95239 0.0
C271 C 0.03089 0.5164 0.95246 0.0
C272 C 0.07571 0.51153 0.94557 0.0
H273 H 0.96222 0.48373 0.95934 0.0
H274 H 0.02034 0.5486 0.95197 0.0
S275 S 0.12205 0.40662 0.93833 0.0
N276 N 0.06758 0.39104 0.94561 0.0
N277 N 0.13011 0.46133 0.93799 0.0
C278 C 0.08758 0.46912 0.9445 0.0
C279 C 0.05355 0.4311 0.94812 0.0
C280 C 0.3887 0.19021 0.33008 0.0
C281 C 0.36196 0.22319 0.33802 0.0
C282 C 0.39844 0.15966 0.36171 0.0
C283 C 0.38187 0.16115 0.40237 0.0
H284 H 0.40016 0.18651 0.29785 0.0
H285 H 0.41667 0.1333 0.35285 0.0
S286 S 0.31485 0.24297 0.44274 0.0
N287 N 0.32316 0.25752 0.39266 0.0
N288 N 0.34014 0.19915 0.45084 0.0
C289 C 0.35704 0.19486 0.412 0.0
C290 C 0.34743 0.22614 0.38019 0.0
C291 C 0.49724 0.88307 0.90412 0.0
C292 C 0.46865 0.84566 0.86603 0.0
C293 C 0.54298 0.88112 0.93757 0.0
C294 C 0.56126 0.84161 0.93388 0.0
H295 H 0.48237 0.91254 0.91043 0.0
H296 H 0.56208 0.90937 0.96856 0.0
S297 S 0.50456 0.73843 0.83388 0.0
N298 N 0.46464 0.77109 0.82174 0.0
N299 N 0.5509 0.76729 0.88393 0.0
C300 C 0.53521 0.8059 0.89273 0.0
C301 C 0.4887 0.80792 0.85897 0.0
C302 C 0.83262 0.90814 0.55905 0.0
C303 C 0.86796 0.90335 0.53546 0.0
C304 C 0.83269 0.95058 0.58497 0.0
C305 C 0.86839 0.98968 0.58856 0.0
H306 H 0.80548 0.87861 0.55854 0.0
H307 H 0.80635 0.9523 0.60441 0.0
S308 S 0.96617 0.99642 0.52995 0.0
N309 N 0.93772 0.94216 0.51527 0.0
N310 N 0.93719 0.02165 0.56274 0.0
C311 C 0.90212 0.98574 0.56289 0.0
C312 C 0.90208 0.9427 0.53666 0.0
C313 C 0.7295 0.35447 0.00921 0.0
C314 C 0.77095 0.38291 0.04724 0.0
C315 C 0.68096 0.35545 0.00771 0.0
C316 C 0.67197 0.38493 0.04413 0.0
H317 H 0.73452 0.329 0.98244 0.0
H318 H 0.65033 0.33059 0.97977 0.0
S319 S 0.76788 0.4722 0.14602 0.0
N320 N 0.80002 0.44616 0.11772 0.0
N321 N 0.70867 0.44756 0.11539 0.0
C322 C 0.71299 0.41661 0.0795 0.0
C323 C 0.76253 0.41554 0.08107 0.0
C324 C 0.39225 0.01236 0.67506 0.0
C325 C 0.36219 0.96885 0.66805 0.0
C326 C 0.40383 0.02777 0.63566 0.0
C327 C 0.38466 1.0005 0.58781 0.0
H328 H 0.40485 0.03536 0.71067 0.0
H329 H 0.42441 0.06248 0.64188 0.0
S330 S 0.308 0.88257 0.55137 0.0
N331 N 0.31724 0.89742 0.61097 0.0
N332 N 0.33761 0.92677 0.53656 0.0
C333 C 0.35705 0.95603 0.58112 0.0
C334 C 0.34612 0.94009 0.62137 0.0
C335 C 0.83851 0.83794 0.2373 0.0
C336 C 0.82067 0.81458 0.26914 0.0
C337 C 0.80541 0.84628 0.19471 0.0
C338 C 0.75377 0.8308 0.18265 0.0
H339 H 0.87822 0.84838 0.24454 0.0
H340 H 0.82024 0.8623 0.1696 0.0
S341 S 0.68848 0.76959 0.25455 0.0
N342 N 0.74823 0.77796 0.28675 0.0
N343 N 0.68618 0.79284 0.20615 0.0
C344 C 0.73557 0.80899 0.21504 0.0
C345 C 0.76905 0.80109 0.25856 0.0
C346 C 0.94957 0.26353 0.86134 0.0
C347 C 0.90848 0.27862 0.86777 0.0
C348 C 0.94366 0.22765 0.82301 0.0
C349 C 0.89629 0.20478 0.78909 0.0
H350 H 0.98698 0.27994 0.88606 0.0
H351 H 0.977 0.21799 0.82007 0.0
S352 S 0.77609 0.23014 0.79057 0.0
N353 N 0.81842 0.26747 0.83779 0.0
N354 N 0.80703 0.19924 0.76559 0.0
C355 C 0.85451 0.21865 0.79576 0.0
C356 C 0.86065 0.25562 0.83513 0.0
C357 C 0.42177 0.27505 0.19482 0.0
C358 C 0.4015 0.30826 0.21478 0.0
C359 C 0.45209 0.28514 0.16667 0.0
C360 C 0.46387 0.32902 0.1576 0.0
H361 H 0.41331 0.24062 0.20019 0.0
H362 H 0.46652 0.25813 0.15202 0.0
S363 S 0.42104 0.4285 0.20284 0.0
N364 N 0.39558 0.38694 0.22443 0.0
N365 N 0.45335 0.40629 0.17166 0.0
C366 C 0.44445 0.36287 0.17799 0.0
C367 C 0.41294 0.35235 0.20637 0.0
C368 C 0.96454 0.68238 0.89352 0.0
C369 C 0.94926 0.71093 0.86092 0.0
C370 C 0.99416 0.6529 0.88475 0.0
C371 C 0.00868 0.65028 0.84261 0.0
H372 H 0.95654 0.68516 0.92776 0.0
H373 H 1.00757 0.63337 0.91226 0.0
S374 S 0.97356 0.71421 0.74319 0.0
N375 N 0.9474 0.73237 0.78308 0.0
N376 N 1.00208 0.67581 0.7659 0.0
C377 C 0.99052 0.67608 0.80785 0.0
C378 C 0.96109 0.70679 0.81725 0.0
C379 C 0.91277 0.39076 0.28481 0.0
C380 C 0.90779 0.37736 0.32771 0.0
C381 C 0.94872 0.42887 0.28742 0.0
C382 C 0.98189 0.45543 0.33308 0.0
H383 H 0.8893 0.37107 0.24857 0.0
H384 H 0.95085 0.43698 0.25289 0.0
S385 S 0.98347 0.436 0.45672 0.0
N386 N 0.93804 0.3945 0.41759 0.0
N387 N 1.00665 0.46605 0.42251 0.0
C388 C 0.97738 0.44266 0.37648 0.0
C389 C 0.94022 0.40369 0.3738 0.0
C390 C 0.18819 0.41838 0.77382 0.0
C391 C 0.23921 0.42343 0.80004 0.0
C392 C 0.16385 0.45323 0.78046 0.0
C393 C 0.18931 0.49436 0.81417 0.0
H394 H 0.16679 0.38715 0.74774 0.0
H395 H 0.12455 0.44754 0.75966 0.0
S396 S 0.32334 0.52572 0.89097 0.0
N397 N 0.31466 0.47381 0.85982 0.0
N398 N 0.2685 0.53859 0.87371 0.0
C399 C 0.24015 0.49984 0.84102 0.0
C400 C 0.26515 0.46457 0.83372 0.0
C401 C 0.28344 0.66839 0.32705 0.0
C402 C 0.27441 0.70869 0.31191 0.0
C403 C 0.24745 0.6394 0.33925 0.0
C404 C 0.2014 0.64983 0.33625 0.0
H405 H 0.31797 0.65881 0.3284 0.0
H406 H 0.25446 0.60749 0.34821 0.0
S407 S 0.15932 0.75063 0.29816 0.0
N408 N 0.21592 0.75726 0.29484 0.0
N409 N 0.14881 0.70283 0.31743 0.0
C410 C 0.19255 0.69039 0.3223 0.0
C411 C 0.22892 0.71983 0.31019 0.0
C412 C 0.03332 0.99962 0.8471 0.0
C413 C 0.99658 0.98134 0.86607 0.0
C414 C 0.02448 0.02932 0.81436 0.0
C415 C 0.97861 0.04189 0.79952 0.0
H416 H 0.06875 0.99005 0.85676 0.0
H417 H 0.05337 0.04159 0.79972 0.0
S418 S 0.87238 0.00714 0.8434 0.0
N419 N 0.91435 0.98057 0.87089 0.0
N420 N 0.89739 0.03616 0.80968 0.0
C421 C 0.94225 0.02496 0.81976 0.0
C422 C 0.95129 0.99472 0.85287 0.0
C423 C 0.69523 0.2696 0.2435 0.0
C424 C 0.74058 0.27477 0.23422 0.0
C425 C 0.65028 0.26719 0.20561 0.0
C426 C 0.64916 0.26845 0.15706 0.0
H427 H 0.69495 0.2699 0.28075 0.0
H428 H 0.61661 0.26626 0.21473 0.0
S429 S 0.75726 0.27973 0.11335 0.0
N430 N 0.78129 0.27979 0.17276 0.0
N431 N 0.6968 0.27412 0.10161 0.0
C432 C 0.69385 0.27157 0.14699 0.0
C433 C 0.73959 0.27494 0.18557 0.0
C434 C 0.30017 0.19463 0.60239 0.0
C435 C 0.25925 0.21242 0.58078 0.0
C436 C 0.30759 0.15527 0.57776 0.0
C437 C 0.27428 0.13204 0.5307 0.0
H438 H 0.32852 0.2129 0.63697 0.0
H439 H 0.34119 0.1443 0.59471 0.0
S440 S 0.1568 0.1606 0.46216 0.0
N441 N 0.18143 0.20076 0.51281 0.0
N442 N 0.19566 0.12669 0.46621 0.0
C443 C 0.23093 0.14721 0.51062 0.0
C444 C 0.22343 0.18752 0.5357 0.0
C445 C 0.48086 0.77685 0.12795 0.0
C446 C 0.45205 0.73293 0.12128 0.0
C447 C 0.52261 0.78409 0.11245 0.0
C448 C 0.53741 0.74768 0.08979 0.0
H449 H 0.46993 0.80597 0.14347 0.0
H450 H 0.54269 0.81872 0.1173 0.0
S451 S 0.47712 0.62558 0.06889 0.0
N452 N 0.44333 0.65226 0.09423 0.0
N453 N 0.52134 0.66561 0.06505 0.0
C454 C 0.51001 0.70342 0.08497 0.0
C455 C 0.46753 0.69614 0.10068 0.0
C456 C 0.88766 0.19789 0.51268 0.0
C457 C 0.92128 0.19328 0.48728 0.0
C458 C 0.89731 0.18939 0.56053 0.0
C459 C 0.9412 0.17643 0.58504 0.0
H460 H 0.85213 0.2051 0.49424 0.0
H461 H 0.86892 0.19078 0.57745 0.0
S462 S 0.04455 0.16646 0.5369 0.0
N463 N 1.00255 0.17999 0.49182 0.0
N464 N 0.02105 0.16438 0.58191 0.0
C465 C 0.97698 0.17542 0.5615 0.0
C466 C 0.96685 0.18364 0.51253 0.0
C467 C 0.35314 0.31934 0.89687 0.0
C468 C 0.36315 0.32766 0.8539 0.0
C469 C 0.38963 0.3107 0.9369 0.0
C470 C 0.43731 0.30942 0.93528 0.0
H471 H 0.31695 0.32011 0.89991 0.0
H472 H 0.38078 0.30577 0.96973 0.0
S473 S 0.48371 0.3298 0.83293 0.0
N474 N 0.42551 0.33494 0.81334 0.0
N475 N 0.49319 0.31742 0.88812 0.0
C476 C 0.44778 0.31679 0.89259 0.0
C477 C 0.4109 0.32606 0.85196 0.0
C478 C 0.38943 0.89038 0.35168 0.0
C479 C 0.34992 0.86361 0.31063 0.0
C480 C 0.38472 0.93101 0.37698 0.0
C481 C 0.33985 0.94563 0.36274 0.0
H482 H 0.42295 0.87846 0.36612 0.0
H483 H 0.41546 0.94958 0.4097 0.0
S484 S 0.227 0.88868 0.25468 0.0
N485 N 0.26616 0.8556 0.25447 0.0
N486 N 0.25675 0.93152 0.30207 0.0
C487 C 0.30112 0.92018 0.31996 0.0
C488 C 0.3063 0.87926 0.29392 0.0
C489 C 0.79973 0.80473 0.92693 0.0
C490 C 0.83088 0.77397 0.93314 0.0
C491 C 0.76094 0.80215 0.94654 0.0
C492 C 0.75085 0.76818 0.97241 0.0
H493 H 0.80569 0.8315 0.90718 0.0
H494 H 0.73878 0.82725 0.94164 0.0
S495 S 0.82101 0.67945 0.99977 0.0
N496 N 0.84917 0.70876 0.96836 0.0
N497 N 0.77474 0.7029 1.00315 0.0
C498 C 0.78052 0.73633 0.97778 0.0
C499 C 0.82081 0.73944 0.95863 0.0
loop_
_geom_bond_atom_site_label_1
_geom_bond_atom_site_label_2
_geom_bond_distance
_geom_bond_site_symmetry_2
_ccdc_geom_bond_type
H0 C1 0.949 . S
C1 H0 0.949 . S
C1 C2 1.395 . S
C1 C3 1.391 . S
C2 C1 1.395 . S
C2 C5 1.390 . S
C3 C1 1.391 . S
C3 C7 1.387 . S
C3 C8 1.491 . S
H4 C5 0.950 . S
C5 C2 1.390 . S
C5 H4 0.950 . S
C5 C6 1.378 . S
C6 C5 1.378 . S
C6 C7 1.409 . S
C7 C3 1.387 . S
C7 C6 1.409 . S
C7 H9 0.951 . S
C8 C3 1.491 . S
C8 C10 1.382 . S
C8 C12 1.404 . S
H9 C7 0.951 . S
C10 C8 1.382 . S
C10 C11 1.390 . S
C10 H15 0.949 . S
C11 C10 1.390 . S
C11 C16 1.399 . S
C12 C8 1.404 . S
C12 H13 0.950 . S
C12 C14 1.375 . S
H13 C12 0.950 . S
C14 C12 1.375 . S
C14 C16 1.382 . S
C14 H18 0.950 . S
H15 C10 0.949 . S
C16 C11 1.399 . S
C16 C14 1.382 . S
C16 H17 0.952 . S
H17 C16 0.952 . S
H18 C14 0.950 . S
H19 C20 0.949 . S
C20 H19 0.949 . S
C20 C21 1.395 . S
C20 C22 1.391 . S
C21 C20 1.395 . S
C21 C24 1.390 . S
C22 C20 1.391 . S
C22 C26 1.387 . S
C22 C27 1.491 . S
H23 C24 0.950 . S
C24 C21 1.390 . S
C24 H23 0.950 . S
C24 C25 1.378 . S
C25 C24 1.378 . S
C25 C26 1.409 . S
C26 C22 1.387 . S
C26 C25 1.409 . S
C26 H28 0.951 . S
C27 C22 1.491 . S
C27 C29 1.382 . S
C27 C31 1.404 . S
H28 C26 0.951 . S
C29 C27 1.382 . S
C29 C30 1.390 . S
C29 H34 0.949 . S
C30 C29 1.390 . S
C30 C35 1.399 . S
C31 C27 1.404 . S
C31 H32 0.950 . S
C31 C33 1.375 . S
H32 C31 0.950 . S
C33 C31 1.375 . S
C33 C35 1.382 . S
C33 H37 0.950 . S
H34 C29 0.949 . S
C35 C30 1.399 . S
C35 C33 1.382 . S
C35 H36 0.952 . S
H36 C35 0.952 . S
H37 C33 0.950 . S
H38 C39 0.949 . S
C39 H38 0.949 . S
C39 C40 1.395 . S
C39 C41 1.391 . S
C40 C39 1.395 . S
C40 C43 1.390 . S
C41 C39 1.391 . S
C41 C45 1.387 . S
C41 C46 1.491 . S
H42 C43 0.950 . S
C43 C40 1.390 . S
C43 H42 0.950 . S
C43 C44 1.378 . S
C44 C43 1.378 . S
C44 C45 1.409 . S
C45 C41 1.387 . S
C45 C44 1.409 . S
C45 H47 0.951 . S
C46 C41 1.491 . S
C46 C48 1.382 . S
C46 C50 1.404 . S
H47 C45 0.951 . S
C48 C46 1.382 . S
C48 C49 1.390 . S
C48 H53 0.949 . S
C49 C48 1.390 . S
C49 C54 1.399 . S
C50 C46 1.404 . S
C50 H51 0.950 . S
C50 C52 1.375 . S
H51 C50 0.950 . S
C52 C50 1.375 . S
C52 C54 1.382 . S
C52 H56 0.950 . S
H53 C48 0.949 . S
C54 C49 1.399 . S
C54 C52 1.382 . S
C54 H55 0.952 . S
H55 C54 0.952 . S
H56 C52 0.950 . S
H57 C58 0.964 . S
C58 H57 0.964 . S
C58 C59 1.375 1_554 S
C58 C60 1.397 1_554 S
C59 C58 1.375 1_556 S
C59 C62 1.390 . S
C60 C58 1.397 1_556 S
C60 C64 1.387 . S
C60 C65 1.491 1_556 S
H61 C62 0.950 . S
C62 C59 1.390 . S
C62 H61 0.950 . S
C62 C63 1.378 . S
C63 C62 1.378 . S
C63 C64 1.409 . S
C64 C60 1.387 . S
C64 C63 1.409 . S
C64 H66 0.951 . S
C65 C60 1.491 1_554 S
C65 C67 1.382 . S
C65 C69 1.404 . S
H66 C64 0.951 . S
C67 C65 1.382 . S
C67 C68 1.390 . S
C67 H72 0.949 . S
C68 C67 1.390 . S
C68 C73 1.399 . S
C69 C65 1.404 . S
C69 H70 0.950 . S
C69 C71 1.375 . S
H70 C69 0.950 . S
C71 C69 1.375 . S
C71 C73 1.382 . S
C71 H75 0.950 . S
H72 C67 0.949 . S
C73 C68 1.399 . S
C73 C71 1.382 . S
C73 H74 0.952 . S
H74 C73 0.952 . S
H75 C71 0.950 . S
H76 C77 0.949 1_455 S
C77 H76 0.949 1_655 S
C77 C78 1.395 . S
C77 C79 1.391 . S
C78 C77 1.395 . S
C78 C81 1.390 . S
C79 C77 1.391 . S
C79 C83 1.387 . S
C79 C84 1.491 . S
H80 C81 0.950 . S
C81 C78 1.390 . S
C81 H80 0.950 . S
C81 C82 1.378 . S
C82 C81 1.378 . S
C82 C83 1.409 . S
C83 C79 1.387 . S
C83 C82 1.409 . S
C83 H85 0.951 . S
C84 C79 1.491 . S
C84 C86 1.382 . S
C84 C88 1.404 . S
H85 C83 0.951 . S
C86 C84 1.382 . S
C86 C87 1.390 . S
C86 H91 0.949 . S
C87 C86 1.390 . S
C87 C92 1.399 . S
C88 C84 1.404 . S
C88 H89 0.950 . S
C88 C90 1.375 . S
H89 C88 0.950 . S
C90 C88 1.375 . S
C90 C92 1.382 . S
C90 H94 0.950 . S
H91 C86 0.949 . S
C92 C87 1.399 . S
C92 C90 1.382 . S
C92 H93 0.952 1_565 S
H93 C92 0.952 1_545 S
H94 C90 0.950 . S
H95 C96 0.949 . S
C96 H95 0.949 . S
C96 C97 1.395 . S
C96 C98 1.391 . S
C97 C96 1.395 . S
C97 C100 1.390 . S
C98 C96 1.391 . S
C98 C102 1.387 . S
C98 C103 1.491 . S
H99 C100 0.950 . S
C100 C97 1.390 . S
C100 H99 0.950 . S
C100 C101 1.378 . S
C101 C100 1.378 . S
C101 C102 1.409 . S
C102 C98 1.387 . S
C102 C101 1.409 . S
C102 H104 0.951 . S
C103 C98 1.491 . S
C103 C105 1.382 . S
C103 C107 1.404 . S
H104 C102 0.951 . S
C105 C103 1.382 . S
C105 C106 1.390 . S
C105 H110 0.949 . S
C106 C105 1.390 . S
C106 C111 1.399 . S
C107 C103 1.404 . S
C107 H108 0.950 . S
C107 C109 1.375 . S
H108 C107 0.950 . S
C109 C107 1.375 . S
C109 C111 1.382 . S
C109 H113 0.950 . S
H110 C105 0.949 . S
C111 C106 1.399 . S
C111 C109 1.382 . S
C111 H112 0.952 . S
H112 C111 0.952 . S
H113 C109 0.950 . S
H114 C115 0.949 . S
C115 H114 0.949 . S
C115 C116 1.395 . S
C115 C117 1.391 . S
C116 C115 1.395 . S
C116 C119 1.390 . S
C117 C115 1.391 . S
C117 C121 1.387 . S
C117 C122 1.491 . S
H118 C119 0.950 . S
C119 C116 1.390 . S
C119 H118 0.950 . S
C119 C120 1.378 . S
C120 C119 1.378 . S
C120 C121 1.409 . S
C121 C117 1.387 . S
C121 C120 1.409 . S
C121 H123 0.951 . S
C122 C117 1.491 . S
C122 C124 1.382 . S
C122 C126 1.404 . S
H123 C121 0.951 . S
C124 C122 1.382 . S
C124 C125 1.390 . S
C124 H129 0.949 . S
C125 C124 1.390 . S
C125 C130 1.399 . S
C126 C122 1.404 . S
C126 H127 0.950 . S
C126 C128 1.375 . S
H127 C126 0.950 . S
C128 C126 1.375 . S
C128 C130 1.382 . S
C128 H132 0.950 . S
H129 C124 0.949 . S
C130 C125 1.399 . S
C130 C128 1.382 . S
C130 H131 0.952 . S
H131 C130 0.952 . S
H132 C128 0.950 . S
H133 C134 0.949 . S
C134 H133 0.949 . S
C134 C135 1.395 . S
C134 C136 1.391 . S
C135 C134 1.395 . S
C135 C138 1.390 . S
C136 C134 1.391 . S
C136 C140 1.387 . S
C136 C141 1.491 . S
H137 C138 0.950 . S
C138 C135 1.390 . S
C138 H137 0.950 . S
C138 C139 1.378 . S
C139 C138 1.378 . S
C139 C140 1.409 . S
C140 C136 1.387 . S
C140 C139 1.409 . S
C140 H142 0.951 . S
C141 C136 1.491 . S
C141 C143 1.382 . S
C141 C145 1.404 . S
H142 C140 0.951 . S
C143 C141 1.382 . S
C143 C144 1.390 . S
C143 H148 0.949 . S
C144 C143 1.390 . S
C144 C149 1.399 . S
C145 C141 1.404 . S
C145 H146 0.950 . S
C145 C147 1.375 . S
H146 C145 0.950 . S
C147 C145 1.375 . S
C147 C149 1.382 . S
C147 H151 0.950 1_554 S
H148 C143 0.949 . S
C149 C144 1.399 . S
C149 C147 1.382 . S
C149 H150 0.952 1_554 S
H150 C149 0.952 1_556 S
H151 C147 0.950 1_556 S
C152 O154 1.241 1_655 S
C152 O156 1.258 . S
C153 O160 1.247 . S
C153 O161 1.258 . S
O154 C152 1.241 1_455 S
O154 Zn155 2.034 . S
Zn155 O154 2.034 . S
Zn155 O159 2.035 . S
Zn155 O161 2.035 . S
Zn155 O162 2.028 . S
O156 C152 1.258 . S
O156 Zn157 2.035 . S
Zn157 O156 2.035 . S
Zn157 O158 2.028 1_655 S
Zn157 O160 2.028 1_655 S
Zn157 O163 2.035 . S
O158 Zn157 2.028 1_455 S
O158 C164 1.247 . S
O159 Zn155 2.035 . S
O159 C164 1.258 . S
O160 C153 1.247 . S
O160 Zn157 2.028 1_455 S
O161 C153 1.258 . S
O161 Zn155 2.035 . S
O162 Zn155 2.028 . S
O162 C165 1.247 1_455 S
O163 Zn157 2.035 . S
O163 C165 1.258 . S
C164 O158 1.247 . S
C164 O159 1.258 . S
C165 O162 1.247 1_655 S
C165 O163 1.258 . S
C166 O168 1.247 . S
C166 O170 1.258 . S
C167 O174 1.247 . S
C167 O175 1.258 . S
O168 C166 1.247 . S
O168 Zn169 2.028 . S
Zn169 O168 2.028 . S
Zn169 O173 2.035 . S
Zn169 O175 2.035 . S
Zn169 O176 2.028 . S
O170 C166 1.258 . S
O170 Zn171 2.035 . S
Zn171 O170 2.035 . S
Zn171 O172 2.028 . S
Zn171 O174 2.028 . S
Zn171 O177 2.035 . S
O172 Zn171 2.028 . S
O172 C178 1.247 . S
O173 Zn169 2.035 . S
O173 C178 1.258 . S
O174 C167 1.247 . S
O174 Zn171 2.028 . S
O175 C167 1.258 . S
O175 Zn169 2.035 . S
O176 Zn169 2.028 . S
O176 C179 1.247 . S
O177 Zn171 2.035 . S
O177 C179 1.258 . S
C178 O172 1.247 . S
C178 O173 1.258 . S
C179 O176 1.247 . S
C179 O177 1.258 . S
C180 O182 1.247 . S
C180 O184 1.258 . S
C181 O188 1.247 . S
C181 O189 1.258 . S
O182 C180 1.247 . S
O182 Zn183 2.022 1_565 S
Zn183 O182 2.022 1_545 S
Zn183 O187 2.040 . S
Zn183 O189 2.042 . S
Zn183 O190 2.024 1_545 S
O184 C180 1.258 . S
O184 Zn185 2.035 1_565 S
Zn185 O184 2.035 1_545 S
Zn185 O186 2.028 . S
Zn185 O188 2.028 . S
Zn185 O191 2.035 1_545 S
O186 Zn185 2.028 . S
O186 C192 1.247 . S
O187 Zn183 2.040 . S
O187 C192 1.258 . S
O188 C181 1.247 . S
O188 Zn185 2.028 . S
O189 C181 1.258 . S
O189 Zn183 2.042 . S
O190 Zn183 2.024 1_565 S
O190 C193 1.247 . S
O191 Zn185 2.035 1_565 S
O191 C193 1.258 . S
C192 O186 1.247 . S
C192 O187 1.258 . S
C193 O190 1.247 . S
C193 O191 1.258 . S
C194 O196 1.247 . S
C194 O198 1.258 . S
C195 O202 1.247 . S
C195 O203 1.258 . S
O196 C194 1.247 . S
O196 Zn197 2.028 1_554 S
Zn197 O196 2.028 1_556 S
Zn197 O201 2.035 1_556 S
Zn197 O203 2.035 . S
Zn197 O204 2.028 . S
O198 C194 1.258 . S
O198 Zn199 2.035 . S
Zn199 O198 2.035 . S
Zn199 O200 2.028 . S
Zn199 O202 2.028 1_554 S
Zn199 O205 2.035 1_554 S
O200 Zn199 2.028 . S
O200 C206 1.247 . S
O201 Zn197 2.035 1_554 S
O201 C206 1.258 . S
O202 C195 1.247 . S
O202 Zn199 2.028 1_556 S
O203 C195 1.258 . S
O203 Zn197 2.035 . S
O204 Zn197 2.028 . S
O204 C207 1.247 . S
O205 Zn199 2.035 1_556 S
O205 C207 1.258 . S
C206 O200 1.247 . S
C206 O201 1.258 . S
C207 O204 1.247 . S
C207 O205 1.258 . S
C208 O210 1.247 1_455 S
C208 O212 1.258 . S
C209 O216 1.247 1_655 S
C209 O217 1.258 . S
O210 C208 1.247 1_655 S
O210 Zn211 2.028 . S
Zn211 O210 2.028 . S
Zn211 O215 2.035 . S
Zn211 O217 2.035 . S
Zn211 O218 2.028 . S
O212 C208 1.258 . S
O212 Zn213 2.035 . S
Zn213 O212 2.035 . S
Zn213 O214 2.028 . S
Zn213 O216 2.028 . S
Zn213 O219 2.035 . S
O214 Zn213 2.028 . S
O214 C220 1.247 1_455 S
O215 Zn211 2.035 . S
O215 C220 1.258 . S
O216 C209 1.247 1_455 S
O216 Zn213 2.028 . S
O217 C209 1.258 . S
O217 Zn211 2.035 . S
O218 Zn211 2.028 . S
O218 C221 1.225 1_655 S
O219 Zn213 2.035 . S
O219 C221 1.272 . S
C220 O214 1.247 1_655 S
C220 O215 1.258 . S
C221 O218 1.225 1_455 S
C221 O219 1.272 . S
C222 O224 1.247 . S
C222 O226 1.258 . S
C223 O230 1.247 . S
C223 O231 1.258 . S
O224 C222 1.247 . S
O224 Zn225 2.028 . S
Zn225 O224 2.028 . S
Zn225 O229 2.035 . S
Zn225 O231 2.035 . S
Zn225 O232 2.028 . S
O226 C222 1.258 . S
O226 Zn227 2.035 . S
Zn227 O226 2.035 . S
Zn227 O228 2.028 . S
Zn227 O230 2.028 . S
Zn227 O233 2.035 . S
O228 Zn227 2.028 . S
O228 C234 1.247 . S
O229 Zn225 2.035 . S
O229 C234 1.258 . S
O230 C223 1.247 . S
O230 Zn227 2.028 . S
O231 C223 1.258 . S
O231 Zn225 2.035 . S
O232 Zn225 2.028 . S
O232 C235 1.247 . S
O233 Zn227 2.035 . S
O233 C235 1.258 . S
C234 O228 1.247 . S
C234 O229 1.258 . S
C235 O232 1.247 . S
C235 O233 1.258 . S
C236 C237 1.369 . S
C236 C238 1.419 . S
C236 H240 0.930 . S
C237 C236 1.369 . S
C237 C246 1.429 . S
C238 C236 1.419 . S
C238 C239 1.363 . S
C238 H241 0.929 . S
C239 C238 1.363 . S
C239 C245 1.428 . S
H240 C236 0.930 . S
H241 C238 0.929 . S
S242 N243 1.613 . S
S242 N244 1.610 . S
N243 S242 1.613 . S
N243 C246 1.350 . S
N244 S242 1.610 . S
N244 C245 1.351 . S
C245 C239 1.428 . S
C245 N244 1.351 . S
C245 C246 1.434 . S
C246 C237 1.429 . S
C246 N243 1.350 . S
C246 C245 1.434 . S
C247 C248 1.369 . S
C247 C249 1.419 . S
C247 H251 0.930 . S
C248 C247 1.369 . S
C248 C257 1.429 . S
C249 C247 1.419 . S
C249 C250 1.363 . S
C249 H252 0.929 . S
C250 C249 1.363 . S
C250 C256 1.428 . S
H251 C247 0.930 . S
H252 C249 0.929 . S
S253 N254 1.613 . S
S253 N255 1.610 . S
N254 S253 1.613 . S
N254 C257 1.350 . S
N255 S253 1.610 . S
N255 C256 1.351 . S
C256 C250 1.428 . S
C256 N255 1.351 . S
C256 C257 1.434 . S
C257 C248 1.429 . S
C257 N254 1.350 . S
C257 C256 1.434 . S
C258 C259 1.369 . S
C258 C260 1.419 . S
C258 H262 0.930 . S
C259 C258 1.369 . S
C259 C268 1.429 . S
C260 C258 1.419 . S
C260 C261 1.363 . S
C260 H263 0.929 . S
C261 C260 1.363 . S
C261 C267 1.428 . S
H262 C258 0.930 . S
H263 C260 0.929 . S
S264 N265 1.613 . S
S264 N266 1.610 . S
N265 S264 1.613 . S
N265 C268 1.350 1_455 S
N266 S264 1.610 . S
N266 C267 1.351 1_455 S
C267 C261 1.428 . S
C267 N266 1.351 1_655 S
C267 C268 1.434 . S
C268 C259 1.429 . S
C268 N265 1.350 1_655 S
C268 C267 1.434 . S
C269 C270 1.369 . S
C269 C271 1.419 1_655 S
C269 H273 0.930 . S
C270 C269 1.369 . S
C270 C279 1.429 1_655 S
C271 C269 1.419 1_455 S
C271 C272 1.363 . S
C271 H274 0.929 . S
C272 C271 1.363 . S
C272 C278 1.428 . S
H273 C269 0.930 . S
H274 C271 0.929 . S
S275 N276 1.613 . S
S275 N277 1.610 . S
N276 S275 1.613 . S
N276 C279 1.350 . S
N277 S275 1.610 . S
N277 C278 1.351 . S
C278 C272 1.428 . S
C278 N277 1.351 . S
C278 C279 1.434 . S
C279 C270 1.429 1_455 S
C279 N276 1.350 . S
C279 C278 1.434 . S
C280 C281 1.369 . S
C280 C282 1.419 . S
C280 H284 0.930 . S
C281 C280 1.369 . S
C281 C290 1.429 . S
C282 C280 1.419 . S
C282 C283 1.363 . S
C282 H285 0.929 . S
C283 C282 1.363 . S
C283 C289 1.428 . S
H284 C280 0.930 . S
H285 C282 0.929 . S
S286 N287 1.613 . S
S286 N288 1.610 . S
N287 S286 1.613 . S
N287 C290 1.350 . S
N288 S286 1.610 . S
N288 C289 1.351 . S
C289 C283 1.428 . S
C289 N288 1.351 . S
C289 C290 1.434 . S
C290 C281 1.429 . S
C290 N287 1.350 . S
C290 C289 1.434 . S
C291 C292 1.369 . S
C291 C293 1.419 . S
C291 H295 0.930 . S
C292 C291 1.369 . S
C292 C301 1.429 . S
C293 C291 1.419 . S
C293 C294 1.363 . S
C293 H296 0.929 . S
C294 C293 1.363 . S
C294 C300 1.428 . S
H295 C291 0.930 . S
H296 C293 0.929 . S
S297 N298 1.613 . S
S297 N299 1.610 . S
N298 S297 1.613 . S
N298 C301 1.350 . S
N299 S297 1.610 . S
N299 C300 1.351 . S
C300 C294 1.428 . S
C300 N299 1.351 . S
C300 C301 1.434 . S
C301 C292 1.429 . S
C301 N298 1.350 . S
C301 C300 1.434 . S
C302 C303 1.369 1_545 S
C302 C304 1.419 . S
C302 H306 0.930 . S
C303 C302 1.369 1_565 S
C303 C312 1.429 1_665 S
C304 C302 1.419 . S
C304 C305 1.363 . S
C304 H307 0.929 . S
C305 C304 1.363 . S
C305 C311 1.428 1_655 S
H306 C302 0.930 . S
H307 C304 0.929 . S
S308 N309 1.613 1_545 S
S308 N310 1.610 . S
N309 S308 1.613 1_565 S
N309 C312 1.350 1_565 S
N310 S308 1.610 . S
N310 C311 1.351 . S
C311 C305 1.428 1_455 S
C311 N310 1.351 . S
C311 C312 1.434 . S
C312 C303 1.429 1_445 S
C312 N309 1.350 1_545 S
C312 C311 1.434 . S
C313 C314 1.369 . S
C313 C315 1.419 . S
C313 H317 0.930 . S
C314 C313 1.369 . S
C314 C323 1.429 . S
C315 C313 1.419 . S
C315 C316 1.363 . S
C315 H318 0.929 . S
C316 C315 1.363 . S
C316 C322 1.428 . S
H317 C313 0.930 . S
H318 C315 0.929 . S
S319 N320 1.613 . S
S319 N321 1.610 . S
N320 S319 1.613 . S
N320 C323 1.350 . S
N321 S319 1.610 . S
N321 C322 1.351 . S
C322 C316 1.428 . S
C322 N321 1.351 . S
C322 C323 1.434 . S
C323 C314 1.429 . S
C323 N320 1.350 . S
C323 C322 1.434 . S
C324 C325 1.369 . S
C324 C326 1.419 . S
C324 H328 0.930 . S
C325 C324 1.369 . S
C325 C334 1.429 . S
C326 C324 1.419 . S
C326 C327 1.363 . S
C326 H329 0.929 . S
C327 C326 1.363 . S
C327 C333 1.428 . S
H328 C324 0.930 . S
H329 C326 0.929 . S
S330 N331 1.613 . S
S330 N332 1.610 . S
N331 S330 1.613 . S
N331 C334 1.350 . S
N332 S330 1.610 . S
N332 C333 1.351 . S
C333 C327 1.428 . S
C333 N332 1.351 . S
C333 C334 1.434 . S
C334 C325 1.429 . S
C334 N331 1.350 . S
C334 C333 1.434 . S
C335 C336 1.369 . S
C335 C337 1.419 . S
C335 H339 0.930 . S
C336 C335 1.369 . S
C336 C345 1.429 . S
C337 C335 1.419 . S
C337 C338 1.363 . S
C337 H340 0.929 . S
C338 C337 1.363 . S
C338 C344 1.428 . S
H339 C335 0.930 . S
H340 C337 0.929 . S
S341 N342 1.613 . S
S341 N343 1.610 . S
N342 S341 1.613 . S
N342 C345 1.350 . S
N343 S341 1.610 . S
N343 C344 1.351 . S
C344 C338 1.428 . S
C344 N343 1.351 . S
C344 C345 1.434 . S
C345 C336 1.429 . S
C345 N342 1.350 . S
C345 C344 1.434 . S
C346 C347 1.369 . S
C346 C348 1.419 1_655 S
C346 H350 0.930 1_655 S
C347 C346 1.369 . S
C347 C356 1.429 . S
C348 C346 1.419 1_455 S
C348 C349 1.363 1_455 S
C348 H351 0.929 . S
C349 C348 1.363 1_655 S
C349 C355 1.428 . S
H350 C346 0.930 1_455 S
H351 C348 0.929 . S
S352 N353 1.613 . S
S352 N354 1.610 . S
N353 S352 1.613 . S
N353 C356 1.350 . S
N354 S352 1.610 . S
N354 C355 1.351 . S
C355 C349 1.428 . S
C355 N354 1.351 . S
C355 C356 1.434 . S
C356 C347 1.429 . S
C356 N353 1.350 . S
C356 C355 1.434 . S
C357 C358 1.369 . S
C357 C359 1.419 . S
C357 H361 0.930 . S
C358 C357 1.369 . S
C358 C367 1.429 . S
C359 C357 1.419 . S
C359 C360 1.363 . S
C359 H362 0.929 . S
C360 C359 1.363 . S
C360 C366 1.428 . S
H361 C357 0.930 . S
H362 C359 0.929 . S
S363 N364 1.613 . S
S363 N365 1.610 . S
N364 S363 1.613 . S
N364 C367 1.350 . S
N365 S363 1.610 . S
N365 C366 1.351 . S
C366 C360 1.428 . S
C366 N365 1.351 . S
C366 C367 1.434 . S
C367 C358 1.429 . S
C367 N364 1.350 . S
C367 C366 1.434 . S
C368 C369 1.369 . S
C368 C370 1.419 . S
C368 H372 0.930 1_455 S
C369 C368 1.369 . S
C369 C378 1.429 . S
C370 C368 1.419 . S
C370 C371 1.363 . S
C370 H373 0.929 . S
C371 C370 1.363 . S
C371 C377 1.428 . S
H372 C368 0.930 1_655 S
H373 C370 0.929 . S
S374 N375 1.613 . S
S374 N376 1.610 . S
N375 S374 1.613 . S
N375 C378 1.350 . S
N376 S374 1.610 . S
N376 C377 1.351 . S
C377 C371 1.428 . S
C377 N376 1.351 . S
C377 C378 1.434 . S
C378 C369 1.429 . S
C378 N375 1.350 . S
C378 C377 1.434 . S
C379 C380 1.369 . S
C379 C381 1.419 . S
C379 H383 0.930 . S
C380 C379 1.369 . S
C380 C389 1.429 . S
C381 C379 1.419 . S
C381 C382 1.363 . S
C381 H384 0.929 . S
C382 C381 1.363 . S
C382 C388 1.428 . S
H383 C379 0.930 . S
H384 C381 0.929 . S
S385 N386 1.613 1_455 S
S385 N387 1.610 . S
N386 S385 1.613 1_655 S
N386 C389 1.350 . S
N387 S385 1.610 . S
N387 C388 1.351 1_455 S
C388 C382 1.428 . S
C388 N387 1.351 1_655 S
C388 C389 1.434 . S
C389 C380 1.429 . S
C389 N386 1.350 . S
C389 C388 1.434 . S
C390 C391 1.369 . S
C390 C392 1.419 . S
C390 H394 0.930 . S
C391 C390 1.369 . S
C391 C400 1.429 . S
C392 C390 1.419 . S
C392 C393 1.363 . S
C392 H395 0.929 . S
C393 C392 1.363 . S
C393 C399 1.428 . S
H394 C390 0.930 . S
H395 C392 0.929 . S
S396 N397 1.613 . S
S396 N398 1.610 . S
N397 S396 1.613 . S
N397 C400 1.350 . S
N398 S396 1.610 . S
N398 C399 1.351 . S
C399 C393 1.428 . S
C399 N398 1.351 . S
C399 C400 1.434 . S
C400 C391 1.429 . S
C400 N397 1.350 . S
C400 C399 1.434 . S
C401 C402 1.369 . S
C401 C403 1.419 . S
C401 H405 0.930 . S
C402 C401 1.369 . S
C402 C411 1.429 . S
C403 C401 1.419 . S
C403 C404 1.363 . S
C403 H406 0.929 . S
C404 C403 1.363 . S
C404 C410 1.428 . S
H405 C401 0.930 . S
H406 C403 0.929 . S
S407 N408 1.613 . S
S407 N409 1.610 . S
N408 S407 1.613 . S
N408 C411 1.350 . S
N409 S407 1.610 . S
N409 C410 1.351 . S
C410 C404 1.428 . S
C410 N409 1.351 . S
C410 C411 1.434 . S
C411 C402 1.429 . S
C411 N408 1.350 . S
C411 C410 1.434 . S
C412 C413 1.369 1_545 S
C412 C414 1.419 . S
C412 H416 0.930 . S
C413 C412 1.369 1_565 S
C413 C422 1.429 1_455 S
C414 C412 1.419 . S
C414 C415 1.363 . S
C414 H417 0.929 . S
C415 C414 1.363 . S
C415 C421 1.428 1_455 S
H416 C412 0.930 . S
H417 C414 0.929 . S
S418 N419 1.613 . S
S418 N420 1.610 1_565 S
N419 S418 1.613 . S
N419 C422 1.350 . S
N420 S418 1.610 1_545 S
N420 C421 1.351 . S
C421 C415 1.428 1_655 S
C421 N420 1.351 . S
C421 C422 1.434 1_545 S
C422 C413 1.429 1_655 S
C422 N419 1.350 . S
C422 C421 1.434 1_565 S
C423 C424 1.369 . S
C423 C425 1.419 . S
C423 H427 0.930 . S
C424 C423 1.369 . S
C424 C433 1.429 . S
C425 C423 1.419 . S
C425 C426 1.363 . S
C425 H428 0.929 . S
C426 C425 1.363 . S
C426 C432 1.428 . S
H427 C423 0.930 . S
H428 C425 0.929 . S
S429 N430 1.613 . S
S429 N431 1.610 . S
N430 S429 1.613 . S
N430 C433 1.350 . S
N431 S429 1.610 . S
N431 C432 1.351 . S
C432 C426 1.428 . S
C432 N431 1.351 . S
C432 C433 1.434 . S
C433 C424 1.429 . S
C433 N430 1.350 . S
C433 C432 1.434 . S
C434 C435 1.369 . S
C434 C436 1.419 . S
C434 H438 0.930 . S
C435 C434 1.369 . S
C435 C444 1.429 . S
C436 C434 1.419 . S
C436 C437 1.363 . S
C436 H439 0.929 . S
C437 C436 1.363 . S
C437 C443 1.428 . S
H438 C434 0.930 . S
H439 C436 0.929 . S
S440 N441 1.613 . S
S440 N442 1.610 . S
N441 S440 1.613 . S
N441 C444 1.350 . S
N442 S440 1.610 . S
N442 C443 1.351 . S
C443 C437 1.428 . S
C443 N442 1.351 . S
C443 C444 1.434 . S
C444 C435 1.429 . S
C444 N441 1.350 . S
C444 C443 1.434 . S
C445 C446 1.369 . S
C445 C447 1.419 . S
C445 H449 0.930 . S
C446 C445 1.369 . S
C446 C455 1.429 . S
C447 C445 1.419 . S
C447 C448 1.363 . S
C447 H450 0.929 1_554 S
C448 C447 1.363 . S
C448 C454 1.428 . S
H449 C445 0.930 . S
H450 C447 0.929 1_556 S
S451 N452 1.613 . S
S451 N453 1.610 . S
N452 S451 1.613 . S
N452 C455 1.350 . S
N453 S451 1.610 . S
N453 C454 1.351 . S
C454 C448 1.428 . S
C454 N453 1.351 . S
C454 C455 1.434 . S
C455 C446 1.429 . S
C455 N452 1.350 . S
C455 C454 1.434 . S
C456 C457 1.369 . S
C456 C458 1.419 . S
C456 H460 0.930 . S
C457 C456 1.369 . S
C457 C466 1.429 . S
C458 C456 1.419 . S
C458 C459 1.363 . S
C458 H461 0.929 . S
C459 C458 1.363 . S
C459 C465 1.428 . S
H460 C456 0.930 . S
H461 C458 0.929 . S
S462 N463 1.613 1_455 S
S462 N464 1.610 . S
N463 S462 1.613 1_655 S
N463 C466 1.350 . S
N464 S462 1.610 . S
N464 C465 1.351 1_455 S
C465 C459 1.428 . S
C465 N464 1.351 1_655 S
C465 C466 1.434 . S
C466 C457 1.429 . S
C466 N463 1.350 . S
C466 C465 1.434 . S
C467 C468 1.369 . S
C467 C469 1.419 . S
C467 H471 0.930 . S
C468 C467 1.369 . S
C468 C477 1.429 . S
C469 C467 1.419 . S
C469 C470 1.363 . S
C469 H472 0.929 . S
C470 C469 1.363 . S
C470 C476 1.428 . S
H471 C467 0.930 . S
H472 C469 0.929 . S
S473 N474 1.613 . S
S473 N475 1.610 . S
N474 S473 1.613 . S
N474 C477 1.350 . S
N475 S473 1.610 . S
N475 C476 1.351 . S
C476 C470 1.428 . S
C476 N475 1.351 . S
C476 C477 1.434 . S
C477 C468 1.429 . S
C477 N474 1.350 . S
C477 C476 1.434 . S
C478 C479 1.369 . S
C478 C480 1.419 . S
C478 H482 0.930 . S
C479 C478 1.369 . S
C479 C488 1.429 . S
C480 C478 1.419 . S
C480 C481 1.363 . S
C480 H483 0.929 . S
C481 C480 1.363 . S
C481 C487 1.428 . S
H482 C478 0.930 . S
H483 C480 0.929 . S
S484 N485 1.613 . S
S484 N486 1.610 . S
N485 S484 1.613 . S
N485 C488 1.350 . S
N486 S484 1.610 . S
N486 C487 1.351 . S
C487 C481 1.428 . S
C487 N486 1.351 . S
C487 C488 1.434 . S
C488 C479 1.429 . S
C488 N485 1.350 . S
C488 C487 1.434 . S
C489 C490 1.369 . S
C489 C491 1.419 . S
C489 H493 0.930 . S
C490 C489 1.369 . S
C490 C499 1.429 . S
C491 C489 1.419 . S
C491 C492 1.363 . S
C491 H494 0.929 . S
C492 C491 1.363 . S
C492 C498 1.428 . S
H493 C489 0.930 . S
H494 C491 0.929 . S
S495 N496 1.613 . S
S495 N497 1.610 . S
N496 S495 1.613 . S
N496 C499 1.350 . S
N497 S495 1.610 . S
N497 C498 1.351 . S
C498 C492 1.428 . S
C498 N497 1.351 . S
C498 C499 1.434 . S
C499 C490 1.429 . S
C499 N496 1.350 . S
C499 C498 1.434 . S
C239 C164 1.504 . S
C237 C11 1.358 . S
C250 C167 1.740 . S
C248 C25 1.693 . S
C261 C165 1.332 . S
C259 C40 1.269 . S
C272 C166 1.390 . S
C270 C59 1.319 . S
C283 C181 1.778 . S
C281 C6 1.766 . S
C294 C195 1.808 . S
C292 C21 1.752 . S
C303 C49 1.504 . S
C305 C221 1.578 1_655 S
C316 C235 1.535 . S
C314 C68 1.438 . S
C327 C180 1.750 . S
C325 C30 1.524 . S
C336 C44 1.620 . S
C338 C194 1.621 . S
C349 C220 1.605 . S
C347 C63 1.606 . S
C360 C234 1.681 . S
C358 C2 1.670 . S
C369 C78 1.718 1_455 S
C371 C179 1.728 . S
C382 C152 1.668 . S
C380 C97 1.580 . S
C391 C120 1.599 . S
C393 C178 1.617 . S
C402 C139 1.583 . S
C404 C153 1.590 . S
C415 C208 1.494 . S
C413 C87 1.411 1_455 S
C426 C222 1.603 . S
C424 C101 1.551 . S
C437 C192 1.588 . S
C435 C125 1.478 . S
C446 C144 1.651 . S
C448 C206 1.692 . S
C459 C209 1.744 . S
C457 C106 1.513 . S
C470 C223 1.602 1_556 S
C468 C116 1.581 . S
C481 C193 1.668 . S
C479 C135 1.654 . S
C490 C82 1.799 . S
C492 C207 1.784 . S
