# Generated by pormake.
# Topology pyr, (3,6)-cn, num edge types: 1
# Building blocks:
#     Node 0, Type 0, BuildingBlock: BETDIP_clean_linker_0, # of connection points: 3
#     Node 1, Type 0, BuildingBlock: BETDIP_clean_linker_0, # of connection points: 3
#     Node 2, Type 0, BuildingBlock: BETDIP_clean_linker_0, # of connection points: 3
#     Node 3, Type 0, BuildingBlock: BETDIP_clean_linker_0, # of connection points: 3
#     Node 4, Type 0, BuildingBlock: BETDIP_clean_linker_0, # of connection points: 3
#     Node 5, Type 0, BuildingBlock: BETDIP_clean_linker_0, # of connection points: 3
#     Node 6, Type 0, BuildingBlock: BETDIP_clean_linker_0, # of connection points: 3
#     Node 7, Type 0, BuildingBlock: BETDIP_clean_linker_0, # of connection points: 3
#     Node 8, Type 1, BuildingBlock: MIFKUJ_clean_sbu_0, # of connection points: 6
#     Node 9, Type 1, BuildingBlock: MIFKUJ_clean_sbu_0, # of connection points: 6
#     Node 10, Type 1, BuildingBlock: MIFKUJ_clean_sbu_0, # of connection points: 6
#     Node 11, Type 1, BuildingBlock: MIFKUJ_clean_sbu_0, # of connection points: 6
#     Edge 12, Type (0, 1), BuildingBlock: KIFKEQ_clean_linker_1, # of connection points: 2
#     Edge 13, Type (0, 1), BuildingBlock: KIFKEQ_clean_linker_1, # of connection points: 2
#     Edge 14, Type (0, 1), BuildingBlock: KIFKEQ_clean_linker_1, # of connection points: 2
#     Edge 15, Type (0, 1), BuildingBlock: KIFKEQ_clean_linker_1, # of connection points: 2
#     Edge 16, Type (0, 1), BuildingBlock: KIFKEQ_clean_linker_1, # of connection points: 2
#     Edge 17, Type (0, 1), BuildingBlock: KIFKEQ_clean_linker_1, # of connection points: 2
#     Edge 18, Type (0, 1), BuildingBlock: KIFKEQ_clean_linker_1, # of connection points: 2
#     Edge 19, Type (0, 1), BuildingBlock: KIFKEQ_clean_linker_1, # of connection points: 2
#     Edge 20, Type (0, 1), BuildingBlock: KIFKEQ_clean_linker_1, # of connection points: 2
#     Edge 21, Type (0, 1), BuildingBlock: KIFKEQ_clean_linker_1, # of connection points: 2
#     Edge 22, Type (0, 1), BuildingBlock: KIFKEQ_clean_linker_1, # of connection points: 2
#     Edge 23, Type (0, 1), BuildingBlock: KIFKEQ_clean_linker_1, # of connection points: 2
#     Edge 24, Type (0, 1), BuildingBlock: KIFKEQ_clean_linker_1, # of connection points: 2
#     Edge 25, Type (0, 1), BuildingBlock: KIFKEQ_clean_linker_1, # of connection points: 2
#     Edge 26, Type (0, 1), BuildingBlock: KIFKEQ_clean_linker_1, # of connection points: 2
#     Edge 27, Type (0, 1), BuildingBlock: KIFKEQ_clean_linker_1, # of connection points: 2
#     Edge 28, Type (0, 1), BuildingBlock: KIFKEQ_clean_linker_1, # of connection points: 2
#     Edge 29, Type (0, 1), BuildingBlock: KIFKEQ_clean_linker_1, # of connection points: 2
#     Edge 30, Type (0, 1), BuildingBlock: KIFKEQ_clean_linker_1, # of connection points: 2
#     Edge 31, Type (0, 1), BuildingBlock: KIFKEQ_clean_linker_1, # of connection points: 2
#     Edge 32, Type (0, 1), BuildingBlock: KIFKEQ_clean_linker_1, # of connection points: 2
#     Edge 33, Type (0, 1), BuildingBlock: KIFKEQ_clean_linker_1, # of connection points: 2
#     Edge 34, Type (0, 1), BuildingBlock: KIFKEQ_clean_linker_1, # of connection points: 2
#     Edge 35, Type (0, 1), BuildingBlock: KIFKEQ_clean_linker_1, # of connection points: 2
# Relax obj value: 0.058
# Max RMSD: 0.189
# Mean RMSD: 0.128
data_MOF--net-pyr--node1-MIFKUJ_clean_sbu_0--node2-BETDIP_clean_linker_0--edge1-KIFKEQ_clean_linker_1
_symmetry_space_group_name_H-M    P1
_symmetry_Int_Tables_number       1
_symmetry_cell_setting            triclinic
loop_
_symmetry_equiv_pos_as_xyz
'x, y, z'
_cell_length_a     39.619387
_cell_length_b     34.873857
_cell_length_c     39.292559
_cell_angle_alpha  89.158986
_cell_angle_beta   84.018411
_cell_angle_gamma 103.91604
loop_
_atom_site_label
_atom_site_type_symbol
_atom_site_fract_x
_atom_site_fract_y
_atom_site_fract_z
_atom_type_partial_charge
H0 H 0.16161 0.20087 0.25727 0.0
H1 H 0.24347 0.20813 0.17543 0.0
H2 H 0.24074 0.13617 0.26546 0.0
H3 H 0.2269 0.25813 0.15594 0.0
C4 C 0.20056 0.25739 0.16715 0.0
C5 C 0.18555 0.19312 0.24738 0.0
C6 C 0.19936 0.16695 0.2661 0.0
C7 C 0.20156 0.20889 0.21523 0.0
C8 C 0.23128 0.19728 0.20073 0.0
C9 C 0.24531 0.17072 0.21861 0.0
C10 C 0.2297 0.15638 0.25158 0.0
N11 N 0.18593 0.23499 0.19789 0.0
H12 H 0.31328 0.87295 0.73479 0.0
H13 H 0.32019 0.80028 0.64803 0.0
H14 H 0.39148 0.80581 0.7239 0.0
H15 H 0.29079 0.83697 0.62412 0.0
C16 C 0.2757 0.84906 0.64395 0.0
C17 C 0.32559 0.85249 0.72071 0.0
C18 C 0.35365 0.84075 0.73325 0.0
C19 C 0.31391 0.83914 0.68951 0.0
C20 C 0.32987 0.81247 0.67126 0.0
C21 C 0.35791 0.80024 0.68349 0.0
C22 C 0.36969 0.81475 0.71441 0.0
N23 N 0.28594 0.85291 0.67765 0.0
H24 H 0.71653 0.41743 0.79871 0.0
H25 H 0.62299 0.32322 0.80986 0.0
H26 H 0.70268 0.32442 0.87603 0.0
H27 H 0.62899 0.33508 0.75086 0.0
C28 C 0.63498 0.36719 0.74949 0.0
C29 C 0.70133 0.39004 0.81149 0.0
C30 C 0.71366 0.37353 0.83918 0.0
C31 C 0.6693 0.37142 0.79999 0.0
C32 C 0.64857 0.33668 0.81734 0.0
C33 C 0.66017 0.3202 0.84543 0.0
C34 C 0.69302 0.33827 0.85548 0.0
N35 N 0.65803 0.38895 0.77167 0.0
H36 H 0.77865 0.65091 0.27387 0.0
H37 H 0.87699 0.73667 0.27542 0.0
H38 H 0.79825 0.72121 0.36173 0.0
H39 H 0.88462 0.7261 0.21887 0.0
C40 C 0.86996 0.69597 0.21598 0.0
C41 C 0.79551 0.67418 0.28659 0.0
C42 C 0.78439 0.68441 0.31946 0.0
C43 C 0.82846 0.69323 0.27008 0.0
C44 C 0.85087 0.72267 0.28703 0.0
C45 C 0.84009 0.73253 0.32028 0.0
C46 C 0.80662 0.71378 0.33602 0.0
N47 N 0.83886 0.67932 0.23784 0.0
H48 H 0.7557 0.80098 0.86502 0.0
H49 H 0.83767 0.8035 0.78391 0.0
H50 H 0.76984 0.88193 0.77778 0.0
H51 H 0.8316 0.74042 0.8037 0.0
C52 C 0.82974 0.74527 0.83101 0.0
C53 C 0.76928 0.81288 0.84032 0.0
C54 C 0.75893 0.84287 0.8229 0.0
C55 C 0.79711 0.79796 0.82617 0.0
C56 C 0.81531 0.81382 0.79458 0.0
C57 C 0.80561 0.84401 0.77694 0.0
C58 C 0.77695 0.85797 0.79092 0.0
N59 N 0.80787 0.7691 0.84533 0.0
H60 H 0.68788 0.12501 0.3103 0.0
H61 H 0.68788 0.20565 0.39185 0.0
H62 H 0.61324 0.19683 0.31841 0.0
H63 H 0.7475 0.20569 0.38438 0.0
C64 C 0.74565 0.17424 0.38224 0.0
C65 C 0.67703 0.14738 0.32312 0.0
C66 C 0.64909 0.15927 0.31052 0.0
C67 C 0.69141 0.16425 0.35207 0.0
C68 C 0.67712 0.19285 0.36921 0.0
C69 C 0.64872 0.20478 0.35732 0.0
C70 C 0.63499 0.18781 0.32789 0.0
N71 N 0.71962 0.15101 0.36374 0.0
H72 H 0.30187 0.60166 0.22491 0.0
H73 H 0.39029 0.70162 0.22596 0.0
H74 H 0.3132 0.70289 0.15721 0.0
H75 H 0.41538 0.65689 0.24645 0.0
C76 C 0.3948 0.63644 0.26267 0.0
C77 C 0.31647 0.63079 0.21509 0.0
C78 C 0.30353 0.65064 0.18994 0.0
C79 C 0.34808 0.64848 0.22792 0.0
C80 C 0.36664 0.68677 0.21549 0.0
C81 C 0.35413 0.70676 0.19006 0.0
C82 C 0.32262 0.6883 0.1775 0.0
N83 N 0.35987 0.62757 0.25392 0.0
H84 H 0.13002 0.27247 0.74971 0.0
H85 H 0.22645 0.35745 0.75988 0.0
H86 H 0.21678 0.2887 0.67057 0.0
H87 H 0.20801 0.35259 0.81479 0.0
C88 C 0.17976 0.34724 0.81621 0.0
C89 C 0.15681 0.28629 0.7398 0.0
C90 C 0.17079 0.27663 0.70751 0.0
C91 C 0.17689 0.31462 0.75934 0.0
C92 C 0.21106 0.33445 0.74586 0.0
C93 C 0.22546 0.32548 0.71366 0.0
C94 C 0.20545 0.29594 0.69517 0.0
N95 N 0.16119 0.3243 0.79132 0.0
Zn96 Zn 0.03174 0.98407 0.53358 0.0
Zn97 Zn 0.97114 0.01548 0.50212 0.0
C98 C 0.06538 0.0624 0.55427 0.0
O99 O 0.08668 0.06278 0.52628 0.0
C100 C 0.9375 0.94091 0.47807 0.0
O101 O 0.91381 0.94434 0.50309 0.0
O102 O 0.06902 0.95674 0.54489 0.0
O103 O 0.98482 0.94941 0.55147 0.0
O104 O 0.95758 0.9977 0.55165 0.0
C105 C 0.07033 0.94639 0.57581 0.0
O106 O 0.04615 0.95183 0.5995 0.0
O107 O 0.03989 0.03262 0.56206 0.0
C108 C 0.93906 0.06343 0.46078 0.0
O109 O 0.96882 0.06861 0.44106 0.0
O110 O 0.93459 0.04281 0.48859 0.0
O111 O 0.01882 0.05103 0.48832 0.0
O112 O 0.0411 -0.00089 0.483 0.0
O113 O 0.96572 0.96777 0.47295 0.0
C114 C 0.96036 0.96473 0.56378 0.0
C115 C 0.04043 0.0337 0.47303 0.0
Zn116 Zn 0.5182 0.98052 0.98155 0.0
Zn117 Zn 0.4879 0.04116 0.05411 0.0
C118 C 0.45821 0.93151 0.94996 0.0
O119 O 0.45414 0.90614 0.976 0.0
C120 C 0.54566 0.07505 0.09224 0.0
O121 O 0.55171 0.10297 0.068 0.0
O122 O 0.55802 0.95815 0.96261 0.0
O123 O 0.53484 0.0395 0.974 0.0
O124 O 0.51271 0.075 0.01271 0.0
C125 C 0.57021 0.96597 0.9314 0.0
O126 O 0.55712 0.98941 0.91296 0.0
O127 O 0.48178 0.96361 0.94896 0.0
C128 C 0.43838 0.05806 0.10525 0.0
O129 O 0.44918 0.0312 0.12201 0.0
O130 O 0.45131 0.0677 0.07446 0.0
O131 O 0.46194 0.98432 0.04963 0.0
O132 O 0.50181 0.95385 0.02846 0.0
O133 O 0.52094 0.04441 0.09057 0.0
C134 C 0.53109 0.07257 0.9847 0.0
C135 C 0.47613 0.95534 0.05021 0.0
Zn136 Zn 0.51308 0.47284 0.49364 0.0
Zn137 Zn 0.49537 0.53923 0.53882 0.0
C138 C 0.56021 0.52492 0.44488 0.0
O139 O 0.53611 0.50819 0.42555 0.0
C140 C 0.4484 0.49536 0.59113 0.0
O141 O 0.47076 0.51971 0.60808 0.0
O142 O 0.52211 0.42391 0.47088 0.0
O143 O 0.51213 0.46245 0.54449 0.0
O144 O 0.53759 0.52387 0.55466 0.0
C145 C 0.54916 0.41383 0.47898 0.0
O146 O 0.56734 0.43434 0.50163 0.0
O147 O 0.55624 0.51515 0.47662 0.0
C148 C 0.46131 0.59968 0.55404 0.0
O149 O 0.44254 0.57975 0.53151 0.0
O150 O 0.48808 0.58874 0.56177 0.0
O151 O 0.49322 0.54948 0.48854 0.0
O152 O 0.47166 0.48796 0.47554 0.0
O153 O 0.45319 0.49704 0.55856 0.0
C154 C 0.53193 0.48702 0.5618 0.0
C155 C 0.47479 0.5248 0.47023 0.0
Zn156 Zn 0.99025 0.53488 0.97341 0.0
Zn157 Zn 0.03612 0.48615 0.04505 0.0
C158 C 0.94708 0.48976 0.92593 0.0
O159 O 0.97509 0.50277 0.90401 0.0
C160 C 0.08293 0.53328 0.08377 0.0
O161 O 0.05615 0.51674 0.1061 0.0
O162 O 0.98572 0.58781 0.95745 0.0
O163 O 0.98517 0.5304 0.02537 0.0
O164 O 0.99803 0.50515 0.07257 0.0
C165 C 0.95576 0.59314 0.96774 0.0
O166 O 0.93446 0.56668 0.98917 0.0
O167 O 0.94839 0.49753 0.95734 0.0
C168 C 0.0747 0.43267 0.05238 0.0
O169 O 0.09347 0.45876 0.02911 0.0
O170 O 0.04403 0.43538 0.06328 0.0
O171 O 0.02381 0.48134 0.99669 0.0
O172 O 0.03433 0.52135 0.95213 0.0
O173 O 0.08095 0.52674 0.05213 0.0
C174 C 0.98219 0.52732 0.05791 0.0
C175 C 0.04368 0.49586 0.96987 0.0
H176 H 0.1626 0.20101 0.31515 0.0
H177 H 0.19362 0.09229 0.29368 0.0
H178 H 0.12521 0.16917 0.36513 0.0
H179 H 0.15983 0.06202 0.34614 0.0
H180 H 0.06319 0.00108 0.41572 0.0
H181 H 0.10375 0.03415 0.36763 0.0
H182 H 0.1174 0.14454 0.41982 0.0
H183 H 0.07428 0.11157 0.4664 0.0
C184 C 0.16183 0.17041 0.32122 0.0
C185 C 0.18072 0.14915 0.29967 0.0
C186 C 0.1408 0.15225 0.35052 0.0
C187 C 0.1389 0.11261 0.35982 0.0
C188 C 0.15958 0.09215 0.33945 0.0
C189 C 0.17977 0.10994 0.30955 0.0
C190 C 0.07489 0.03246 0.41667 0.0
C191 C 0.06559 0.05393 0.44447 0.0
C192 C 0.09853 0.05148 0.38929 0.0
C193 C 0.11431 0.09224 0.38959 0.0
C194 C 0.10536 0.11341 0.41804 0.0
C195 C 0.08081 0.09456 0.44492 0.0
H196 H 0.31586 0.84508 0.79499 0.0
H197 H 0.42141 0.87109 0.74448 0.0
H198 H 0.33841 0.86898 0.84862 0.0
H199 H 0.44385 0.8945 0.79785 0.0
H200 H 0.46978 0.97113 0.88784 0.0
H201 H 0.44232 0.9509 0.83628 0.0
H202 H 0.37552 0.84779 0.89147 0.0
H203 H 0.40309 0.86799 0.94346 0.0
C204 C 0.34381 0.85611 0.79533 0.0
C205 C 0.3669 0.85615 0.76561 0.0
C206 C 0.3567 0.86948 0.82603 0.0
C207 C 0.39287 0.88367 0.82738 0.0
C208 C 0.41583 0.88411 0.79752 0.0
C209 C 0.40302 0.87039 0.76704 0.0
C210 C 0.44897 0.94435 0.88923 0.0
C211 C 0.43879 0.92102 0.91979 0.0
C212 C 0.43339 0.93268 0.85957 0.0
C213 C 0.40702 0.8976 0.85976 0.0
C214 C 0.39572 0.87506 0.89062 0.0
C215 C 0.4116 0.88655 0.92032 0.0
H216 H 0.60014 0.33228 0.69841 0.0
H217 H 0.63847 0.44663 0.73962 0.0
H218 H 0.57616 0.36284 0.65366 0.0
H219 H 0.6131 0.47741 0.6956 0.0
H220 H 0.59126 0.52247 0.5906 0.0
H221 H 0.61714 0.49498 0.63624 0.0
H222 H 0.53015 0.39176 0.6455 0.0
H223 H 0.50554 0.41834 0.5991 0.0
C224 C 0.60323 0.36402 0.69795 0.0
C225 C 0.6211 0.38701 0.72245 0.0
C226 C 0.58921 0.38159 0.67247 0.0
C227 C 0.59223 0.42267 0.67111 0.0
C228 C 0.61049 0.44579 0.69558 0.0
C229 C 0.62489 0.42814 0.72095 0.0
C230 C 0.57775 0.49396 0.60256 0.0
C231 C 0.54666 0.47231 0.59101 0.0
C232 C 0.59246 0.47824 0.62883 0.0
C233 C 0.57606 0.44079 0.64437 0.0
C234 C 0.54418 0.42006 0.63354 0.0
C235 C 0.52989 0.43542 0.60703 0.0
H236 H 0.92713 0.71875 0.16905 0.0
H237 H 0.84246 0.61811 0.20368 0.0
H238 H 0.95164 0.67741 0.12831 0.0
H239 H 0.86676 0.57711 0.16308 0.0
H240 H 0.95011 0.50998 0.12302 0.0
H241 H 0.92042 0.55118 0.15894 0.0
H242 H 0.93917 0.63872 0.07578 0.0
H243 H 0.96954 0.59788 0.04018 0.0
C244 C 0.91362 0.68796 0.16767 0.0
C245 C 0.88309 0.67166 0.18963 0.0
C246 C 0.9275 0.66436 0.1443 0.0
C247 C 0.91118 0.62397 0.14271 0.0
C248 C 0.88012 0.608 0.16407 0.0
C249 C 0.86615 0.6316 0.18722 0.0
C250 C 0.94751 0.53781 0.11233 0.0
C251 C 0.96157 0.55043 0.07862 0.0
C252 C 0.93039 0.5613 0.1328 0.0
C253 C 0.9274 0.59811 0.12011 0.0
C254 C 0.94117 0.61054 0.08626 0.0
C255 C 0.95805 0.58689 0.06571 0.0
H256 H 0.30342 0.16128 0.24673 0.0
H257 H 0.25437 0.14755 0.15299 0.0
H258 H 0.35157 0.13607 0.21938 0.0
H259 H 0.30237 0.12257 0.12573 0.0
H260 H 0.40994 0.1141 0.07799 0.0
H261 H 0.36492 0.14376 0.10569 0.0
H262 H 0.36067 0.07307 0.19798 0.0
H263 H 0.40602 0.04389 0.17057 0.0
C264 C 0.30289 0.15279 0.22035 0.0
C265 C 0.27516 0.15649 0.202 0.0
C266 C 0.33043 0.13838 0.20469 0.0
C267 C 0.33077 0.12739 0.17039 0.0
C268 C 0.30317 0.13142 0.152 0.0
C269 C 0.27567 0.14574 0.16764 0.0
C270 C 0.39948 0.10497 0.10422 0.0
C271 C 0.41147 0.07655 0.12205 0.0
C272 C 0.3736 0.12185 0.12004 0.0
C273 C 0.35923 0.11071 0.15401 0.0
C274 C 0.37154 0.08264 0.17193 0.0
C275 C 0.39736 0.06572 0.15612 0.0
H276 H 0.23425 0.88841 0.68327 0.0
H277 H 0.24878 0.84151 0.58323 0.0
H278 H 0.18488 0.91179 0.66643 0.0
H279 H 0.19869 0.8636 0.56662 0.0
H280 H 0.13067 0.94405 0.53592 0.0
H281 H 0.18028 0.92127 0.55269 0.0
H282 H 0.12592 0.88952 0.65413 0.0
H283 H 0.07686 0.91358 0.63764 0.0
C284 C 0.22673 0.88285 0.65774 0.0
C285 C 0.24535 0.86311 0.63452 0.0
C286 C 0.19826 0.89604 0.64812 0.0
C287 C 0.18763 0.88957 0.61513 0.0
C288 C 0.20635 0.86969 0.59203 0.0
C289 C 0.23492 0.85675 0.6016 0.0
C290 C 0.12925 0.93205 0.56176 0.0
C291 C 0.09978 0.93064 0.58543 0.0
C292 C 0.15767 0.91881 0.57138 0.0
C293 C 0.15724 0.90351 0.60483 0.0
C294 C 0.12752 0.90171 0.62834 0.0
C295 C 0.09922 0.91524 0.6188 0.0
H296 H 0.77524 0.41235 0.80124 0.0
H297 H 0.72964 0.37831 0.90533 0.0
H298 H 0.83129 0.44136 0.82196 0.0
H299 H 0.78593 0.40385 0.92558 0.0
H300 H 0.88202 0.48574 0.95802 0.0
H301 H 0.82618 0.46066 0.93623 0.0
H302 H 0.87933 0.426 0.84426 0.0
H303 H 0.93553 0.45341 0.86552 0.0
C304 C 0.77709 0.41103 0.82851 0.0
C305 C 0.74783 0.39266 0.85152 0.0
C306 C 0.80945 0.42709 0.84039 0.0
C307 C 0.81344 0.42482 0.87552 0.0
C308 C 0.78402 0.40678 0.89843 0.0
C309 C 0.75167 0.39141 0.88667 0.0
C310 C 0.88178 0.47248 0.93326 0.0
C311 C 0.91316 0.4713 0.91357 0.0
C312 C 0.84966 0.45792 0.92072 0.0
C313 C 0.84796 0.44101 0.88843 0.0
C314 C 0.87948 0.43939 0.86894 0.0
C315 C 0.91173 0.45469 0.88126 0.0
H316 H 0.73084 0.71479 0.34688 0.0
H317 H 0.76246 0.60538 0.33337 0.0
H318 H 0.67554 0.6785 0.37912 0.0
H319 H 0.70772 0.56937 0.36637 0.0
H320 H 0.62561 0.53756 0.46512 0.0
H321 H 0.68012 0.57806 0.43485 0.0
H322 H 0.62178 0.61513 0.35918 0.0
H323 H 0.56738 0.57376 0.38872 0.0
C324 C 0.72584 0.68302 0.35085 0.0
C325 C 0.75056 0.66267 0.33761 0.0
C326 C 0.69441 0.66241 0.3692 0.0
C327 C 0.68778 0.62138 0.37526 0.0
C328 C 0.71254 0.60109 0.36213 0.0
C329 C 0.74357 0.62154 0.34313 0.0
C330 C 0.62444 0.55474 0.44226 0.0
C331 C 0.59244 0.55251 0.42911 0.0
C332 C 0.65552 0.57765 0.42495 0.0
C333 C 0.65486 0.59942 0.3948 0.0
C334 C 0.62275 0.59857 0.38246 0.0
C335 C 0.59179 0.5749 0.39927 0.0
H336 H 0.2198 0.29868 0.10683 0.0
H337 H 0.13617 0.26983 0.18973 0.0
H338 H 0.18776 0.33876 0.0783 0.0
H339 H 0.10462 0.31122 0.16197 0.0
H340 H 0.04356 0.36186 0.08671 0.0
H341 H 0.07296 0.31742 0.11422 0.0
H342 H 0.1728 0.39976 0.08488 0.0
H343 H 0.14378 0.44261 0.05633 0.0
C344 C 0.19461 0.30112 0.11897 0.0
C345 C 0.18053 0.28132 0.15041 0.0
C346 C 0.17631 0.32425 0.1028 0.0
C347 C 0.14369 0.32847 0.11797 0.0
C348 C 0.12945 0.30825 0.14938 0.0
C349 C 0.14767 0.28478 0.16542 0.0
C350 C 0.07179 0.37006 0.08604 0.0
C351 C 0.09146 0.40521 0.06896 0.0
C352 C 0.08862 0.34486 0.10194 0.0
C353 C 0.12531 0.35483 0.10143 0.0
C354 C 0.14467 0.39052 0.08491 0.0
C355 C 0.12799 0.41519 0.06862 0.0
H356 H 0.62201 0.25188 0.82066 0.0
H357 H 0.64839 0.30817 0.91477 0.0
H358 H 0.58839 0.19235 0.85362 0.0
H359 H 0.61601 0.24859 0.9475 0.0
H360 H 0.52956 0.14894 0.99873 0.0
H361 H 0.5576 0.20882 0.96409 0.0
H362 H 0.59971 0.13913 0.88841 0.0
H363 H 0.57111 0.07911 0.92264 0.0
C364 C 0.62044 0.25162 0.84835 0.0
C365 C 0.63807 0.28461 0.86509 0.0
C366 C 0.60151 0.21741 0.86723 0.0
C367 C 0.59963 0.21561 0.90322 0.0
C368 C 0.61659 0.24901 0.91988 0.0
C369 C 0.63551 0.28305 0.90107 0.0
C370 C 0.5447 0.1463 0.97466 0.0
C371 C 0.54812 0.10912 0.96359 0.0
C372 C 0.56091 0.1807 0.95485 0.0
C373 C 0.58096 0.17882 0.92347 0.0
C374 C 0.58408 0.14162 0.91221 0.0
C375 C 0.56789 0.1072 0.93203 0.0
H376 H 0.85957 0.71904 0.38243 0.0
H377 H 0.87355 0.8095 0.30259 0.0
H378 H 0.89016 0.76767 0.41973 0.0
H379 H 0.9037 0.85875 0.34025 0.0
H380 H 0.97109 0.93458 0.41448 0.0
H381 H 0.95456 0.88225 0.37408 0.0
H382 H 0.86997 0.82112 0.4485 0.0
H383 H 0.88646 0.87287 0.48862 0.0
C384 C 0.86967 0.74936 0.37279 0.0
C385 C 0.86386 0.76081 0.33995 0.0
C386 C 0.88705 0.77719 0.39412 0.0
C387 C 0.89874 0.81716 0.38316 0.0
C388 C 0.89509 0.82814 0.34937 0.0
C389 C 0.87781 0.80008 0.32785 0.0
C390 C 0.94927 0.90964 0.4223 0.0
C391 C 0.92995 0.90787 0.45467 0.0
C392 C 0.93972 0.87986 0.39911 0.0
C393 C 0.91103 0.84755 0.40812 0.0
C394 C 0.89252 0.84532 0.44091 0.0
C395 C 0.9018 0.87515 0.46386 0.0
H396 H 0.37523 0.80007 0.61416 0.0
H397 H 0.37947 0.73746 0.70871 0.0
H398 H 0.40292 0.75421 0.58221 0.0
H399 H 0.40736 0.6918 0.67676 0.0
H400 H 0.485 0.63797 0.61074 0.0
H401 H 0.46204 0.68841 0.64158 0.0
H402 H 0.38752 0.6845 0.56813 0.0
H403 H 0.41058 0.63474 0.53724 0.0
C404 C 0.38187 0.77639 0.62812 0.0
C405 C 0.37502 0.7724 0.664 0.0
C406 C 0.39784 0.75018 0.60981 0.0
C407 C 0.40739 0.71938 0.62694 0.0
C408 C 0.40085 0.71559 0.66283 0.0
C409 C 0.3848 0.74174 0.68114 0.0
C410 C 0.46398 0.64823 0.60101 0.0
C411 C 0.44958 0.63228 0.57159 0.0
C412 C 0.45065 0.67689 0.6188 0.0
C413 C 0.42288 0.69039 0.60735 0.0
C414 C 0.40915 0.67509 0.57745 0.0
C415 C 0.42227 0.64635 0.55984 0.0
H416 H 0.8765 0.86767 0.76539 0.0
H417 H 0.78275 0.86155 0.71647 0.0
H418 H 0.91221 0.89491 0.71243 0.0
H419 H 0.81871 0.889 0.66307 0.0
H420 H 0.89904 0.98172 0.58931 0.0
H421 H 0.86011 0.95169 0.63991 0.0
H422 H 0.92647 0.87242 0.65471 0.0
H423 H 0.96565 0.90268 0.6044 0.0
C424 C 0.86355 0.87187 0.74316 0.0
C425 C 0.82686 0.86212 0.7449 0.0
C426 C 0.884 0.88739 0.71282 0.0
C427 C 0.86826 0.89362 0.6835 0.0
C428 C 0.83153 0.88464 0.68534 0.0
C429 C 0.81098 0.86902 0.71583 0.0
C430 C 0.90526 0.95779 0.6033 0.0
C431 C 0.9356 0.94482 0.59306 0.0
C432 C 0.88281 0.94042 0.63212 0.0
C433 C 0.89041 0.90994 0.65139 0.0
C434 C 0.92024 0.89627 0.64061 0.0
C435 C 0.94256 0.91344 0.61169 0.0
H436 H 0.68595 0.14823 0.25022 0.0
H437 H 0.58053 0.13269 0.29922 0.0
H438 H 0.66294 0.12333 0.19731 0.0
H439 H 0.55754 0.10845 0.24617 0.0
H440 H 0.52752 0.0349 0.15442 0.0
H441 H 0.55383 0.05167 0.20747 0.0
H442 H 0.63108 0.14818 0.15371 0.0
H443 H 0.60491 0.13144 0.10069 0.0
C444 C 0.65787 0.13914 0.24977 0.0
C445 C 0.63504 0.1425 0.27886 0.0
C446 C 0.64472 0.12519 0.21941 0.0
C447 C 0.60845 0.11396 0.21757 0.0
C448 C 0.58562 0.1165 0.24688 0.0
C449 C 0.59877 0.13076 0.27715 0.0
C450 C 0.55045 0.0593 0.15379 0.0
C451 C 0.56407 0.08194 0.12335 0.0
C452 C 0.56534 0.06909 0.18424 0.0
C453 C 0.59438 0.1014 0.18481 0.0
C454 C 0.60887 0.12296 0.15406 0.0
C455 C 0.59378 0.11345 0.12371 0.0
H456 H 0.35369 0.57803 0.30788 0.0
H457 H 0.45793 0.6531 0.28627 0.0
H458 H 0.37127 0.54957 0.35872 0.0
H459 H 0.47546 0.62479 0.33671 0.0
H460 H 0.48307 0.6015 0.44891 0.0
H461 H 0.46184 0.62673 0.3995 0.0
H462 H 0.41209 0.50763 0.37502 0.0
H463 H 0.43337 0.48201 0.42494 0.0
C464 C 0.38033 0.58837 0.31394 0.0
C465 C 0.40448 0.61791 0.29322 0.0
C466 C 0.39042 0.57195 0.34292 0.0
C467 C 0.42469 0.58512 0.35184 0.0
C468 C 0.44874 0.6144 0.33083 0.0
C469 C 0.43877 0.63049 0.30186 0.0
C470 C 0.46752 0.58053 0.43316 0.0
C471 C 0.46016 0.53963 0.44082 0.0
C472 C 0.45548 0.59506 0.4047 0.0
C473 C 0.43556 0.56918 0.38316 0.0
C474 C 0.42728 0.52831 0.39123 0.0
C475 C 0.4396 0.51365 0.41971 0.0
H476 H 0.20927 0.40755 0.85435 0.0
H477 H 0.10943 0.3315 0.8378 0.0
H478 H 0.17975 0.44378 0.89597 0.0
H479 H 0.08006 0.3672 0.87985 0.0
H480 H 0.04381 0.41835 0.97978 0.0
H481 H 0.07895 0.3809 0.94571 0.0
H482 H 0.13515 0.48792 0.88871 0.0
H483 H 0.09966 0.52546 0.92249 0.0
C484 C 0.18106 0.39838 0.85992 0.0
C485 C 0.16159 0.36696 0.84278 0.0
C486 C 0.16425 0.41911 0.8836 0.0
C487 C 0.12771 0.4082 0.89109 0.0
C488 C 0.10832 0.37597 0.87471 0.0
C489 C 0.12508 0.35572 0.85053 0.0
C490 C 0.0642 0.43407 0.96051 0.0
C491 C 0.06909 0.47488 0.9538 0.0
C492 C 0.08407 0.41255 0.94087 0.0
C493 C 0.10952 0.43152 0.9145 0.0
C494 C 0.11577 0.47266 0.90903 0.0
C495 C 0.09549 0.49409 0.9283 0.0
H496 H 0.74962 0.86495 0.88877 0.0
H497 H 0.70436 0.85915 0.79309 0.0
H498 H 0.70394 0.89443 0.91499 0.0
H499 H 0.65812 0.88804 0.81944 0.0
H500 H 0.6048 0.98023 0.86691 0.0
H501 H 0.64999 0.94992 0.84084 0.0
H502 H 0.64246 0.87935 0.93393 0.0
H503 H 0.59799 0.91047 0.96033 0.0
C504 C 0.72958 0.86953 0.87349 0.0
C505 C 0.73049 0.85974 0.83891 0.0
C506 C 0.70337 0.88636 0.88851 0.0
C507 C 0.67735 0.89362 0.86933 0.0
C508 C 0.6781 0.88346 0.83478 0.0
C509 C 0.70448 0.86682 0.8197 0.0
C510 C 0.61285 0.95831 0.88184 0.0
C511 C 0.59788 0.94784 0.91572 0.0
C512 C 0.63858 0.94071 0.8668 0.0
C513 C 0.64981 0.91213 0.88525 0.0
C514 C 0.63477 0.90165 0.91915 0.0
C515 C 0.60916 0.91938 0.93424 0.0
H516 H 0.7458 0.09611 0.39169 0.0
H517 H 0.80819 0.21477 0.40012 0.0
H518 H 0.79252 0.06944 0.41138 0.0
H519 H 0.85515 0.18808 0.41933 0.0
H520 H 0.94385 0.12064 0.41104 0.0
H521 H 0.89672 0.14722 0.39247 0.0
H522 H 0.8226 0.06989 0.46693 0.0
H523 H 0.86975 0.04351 0.48587 0.0
C524 C 0.76953 0.11647 0.39766 0.0
C525 C 0.77351 0.15754 0.39429 0.0
C526 C 0.79617 0.1012 0.40908 0.0
C527 C 0.82747 0.12671 0.41679 0.0
C528 C 0.83141 0.16776 0.4133 0.0
C529 C 0.80454 0.18301 0.40247 0.0
C530 C 0.91754 0.10939 0.42355 0.0
C531 C 0.91057 0.08008 0.45002 0.0
C532 C 0.8906 0.12472 0.41298 0.0
C533 C 0.85604 0.11062 0.42827 0.0
C534 C 0.84898 0.08112 0.45457 0.0
C535 C 0.87602 0.06623 0.46553 0.0
H536 H 0.24901 0.68395 0.18402 0.0
H537 H 0.28342 0.57729 0.16378 0.0
H538 H 0.19631 0.65751 0.15642 0.0
H539 H 0.2304 0.55061 0.13605 0.0
H540 H 0.15037 0.53945 0.05548 0.0
H541 H 0.20405 0.56733 0.08183 0.0
H542 H 0.14244 0.60166 0.16795 0.0
H543 H 0.08916 0.57378 0.14189 0.0
C544 C 0.24512 0.65471 0.1738 0.0
C545 C 0.27022 0.63263 0.17601 0.0
C546 C 0.21498 0.63957 0.15806 0.0
C547 C 0.20942 0.60215 0.14385 0.0
C548 C 0.23429 0.57977 0.14641 0.0
C549 C 0.26433 0.59477 0.16261 0.0
C550 C 0.14848 0.55364 0.07971 0.0
C551 C 0.1157 0.55473 0.09657 0.0
C552 C 0.17908 0.56908 0.09497 0.0
C553 C 0.17735 0.58645 0.12702 0.0
C554 C 0.1446 0.58864 0.14319 0.0
C555 C 0.11412 0.5727 0.12826 0.0
H556 H 0.27693 0.29854 0.67597 0.0
H557 H 0.2531 0.40514 0.71571 0.0
H558 H 0.33209 0.33787 0.6466 0.0
H559 H 0.30861 0.44392 0.68737 0.0
H560 H 0.42569 0.49457 0.65897 0.0
H561 H 0.37357 0.45162 0.69006 0.0
H562 H 0.34921 0.39092 0.59743 0.0
H563 H 0.40153 0.43411 0.56601 0.0
C564 C 0.28343 0.33027 0.67855 0.0
C565 C 0.26047 0.34864 0.6982 0.0
C566 C 0.31503 0.35271 0.66178 0.0
C567 C 0.32453 0.39388 0.66471 0.0
C568 C 0.3021 0.41214 0.68501 0.0
C569 C 0.27036 0.38984 0.70141 0.0
C570 C 0.40938 0.47195 0.64519 0.0
C571 C 0.4176 0.46788 0.60996 0.0
C572 C 0.37948 0.44747 0.66302 0.0
C573 C 0.35734 0.4181 0.64612 0.0
C574 C 0.366 0.41321 0.6111 0.0
C575 C 0.39578 0.43805 0.59311 0.0
H576 H 0.8731 0.69899 0.81045 0.0
H577 H 0.83416 0.75235 0.89996 0.0
H578 H 0.90782 0.66858 0.84547 0.0
H579 H 0.86936 0.72268 0.93486 0.0
H580 H 0.89525 0.61439 0.98732 0.0
H581 H 0.86753 0.65588 0.95515 0.0
H582 H 0.9579 0.68329 0.87923 0.0
H583 H 0.98551 0.64091 0.9112 0.0
C584 C 0.87217 0.70434 0.83759 0.0
C585 C 0.85075 0.72758 0.85257 0.0
C586 C 0.89231 0.68734 0.85756 0.0
C587 C 0.89138 0.69336 0.89291 0.0
C588 C 0.87034 0.71724 0.90775 0.0
C589 C 0.85019 0.73421 0.88777 0.0
C590 C 0.9095 0.62977 0.96406 0.0
C591 C 0.94238 0.62405 0.95157 0.0
C592 C 0.89366 0.65374 0.94571 0.0
C593 C 0.91039 0.67251 0.91448 0.0
C594 C 0.94418 0.66865 0.90297 0.0
C595 C 0.9601 0.64469 0.92142 0.0
H596 H 0.32829 0.76998 0.17406 0.0
H597 H 0.42501 0.73324 0.17292 0.0
H598 H 0.35927 0.83102 0.14282 0.0
H599 H 0.45653 0.79553 0.14322 0.0
H600 H 0.49005 0.88214 0.04944 0.0
H601 H 0.46247 0.82472 0.08705 0.0
H602 H 0.39962 0.89315 0.14355 0.0
H603 H 0.42635 0.95023 0.10506 0.0
C604 C 0.3563 0.77517 0.16748 0.0
C605 C 0.37406 0.7464 0.17553 0.0
C606 C 0.3742 0.81049 0.1499 0.0
C607 C 0.41044 0.81821 0.14014 0.0
C608 C 0.42852 0.79029 0.14973 0.0
C609 C 0.41053 0.75477 0.16718 0.0
C610 C 0.47043 0.88503 0.06995 0.0
C611 C 0.46025 0.92078 0.07403 0.0
C612 C 0.45479 0.85211 0.09177 0.0
C613 C 0.42875 0.85415 0.11844 0.0
C614 C 0.41916 0.89023 0.12298 0.0
C615 C 0.43459 0.92306 0.10096 0.0
H616 H 0.17273 0.27742 0.63743 0.0
H617 H 0.1196 0.20908 0.72855 0.0
H618 H 0.14428 0.22651 0.60232 0.0
H619 H 0.08724 0.16013 0.6931 0.0
H620 H 0.06941 0.05556 0.62242 0.0
H621 H 0.09088 0.10829 0.66032 0.0
H622 H 0.09785 0.19462 0.57776 0.0
H623 H 0.07983 0.14116 0.53942 0.0
C624 C 0.15477 0.2516 0.65014 0.0
C625 C 0.14945 0.24714 0.68609 0.0
C626 C 0.13751 0.22252 0.62974 0.0
C627 C 0.11319 0.18856 0.64449 0.0
C628 C 0.10635 0.18514 0.6805 0.0
C629 C 0.12453 0.21377 0.70101 0.0
C630 C 0.07538 0.08596 0.61268 0.0
C631 C 0.07336 0.09454 0.57812 0.0
C632 C 0.08748 0.1164 0.63446 0.0
C633 C 0.09676 0.15624 0.62234 0.0
C634 C 0.09239 0.16454 0.58803 0.0
C635 C 0.08159 0.13399 0.566 0.0
H636 H 0.6354 0.21148 0.42659 0.0
H637 H 0.62683 0.26598 0.32945 0.0
H638 H 0.60968 0.26026 0.45643 0.0
H639 H 0.60081 0.3145 0.35932 0.0
H640 H 0.52451 0.37177 0.42434 0.0
H641 H 0.54741 0.32016 0.39535 0.0
H642 H 0.6251 0.33113 0.46634 0.0
H643 H 0.6021 0.38208 0.49542 0.0
C644 C 0.62829 0.23403 0.41159 0.0
C645 C 0.63325 0.23477 0.37559 0.0
C646 C 0.61344 0.26193 0.4287 0.0
C647 C 0.60309 0.29123 0.41026 0.0
C648 C 0.60793 0.29193 0.37429 0.0
C649 C 0.62289 0.26411 0.35717 0.0
C650 C 0.54629 0.36291 0.43388 0.0
C651 C 0.56147 0.38108 0.46218 0.0
C652 C 0.55957 0.33356 0.41714 0.0
C653 C 0.58813 0.32156 0.4285 0.0
C654 C 0.60285 0.33931 0.45715 0.0
C655 C 0.58974 0.36873 0.47372 0.0
loop_
_geom_bond_atom_site_label_1
_geom_bond_atom_site_label_2
_geom_bond_distance
_geom_bond_site_symmetry_2
_ccdc_geom_bond_type
H0 C5 0.930 . S
H1 C8 0.930 . S
H2 C10 0.930 . S
H3 C4 1.016 . S
C4 H3 1.016 . S
C4 N11 1.286 . S
C5 H0 0.930 . S
C5 C6 1.397 . S
C5 C7 1.361 . S
C6 C5 1.397 . S
C6 C10 1.390 . S
C7 C5 1.361 . S
C7 C8 1.393 . S
C7 N11 1.413 . S
C8 H1 0.930 . S
C8 C7 1.393 . S
C8 C9 1.399 . S
C9 C8 1.399 . S
C9 C10 1.381 . S
C10 H2 0.930 . S
C10 C6 1.390 . S
C10 C9 1.381 . S
N11 C4 1.286 . S
N11 C7 1.413 . S
H12 C17 0.930 . S
H13 C20 0.930 . S
H14 C22 0.930 . S
H15 C16 1.016 . S
C16 H15 1.016 . S
C16 N23 1.286 . S
C17 H12 0.930 . S
C17 C18 1.397 . S
C17 C19 1.361 . S
C18 C17 1.397 . S
C18 C22 1.390 . S
C19 C17 1.361 . S
C19 C20 1.393 . S
C19 N23 1.413 . S
C20 H13 0.930 . S
C20 C19 1.393 . S
C20 C21 1.399 . S
C21 C20 1.399 . S
C21 C22 1.381 . S
C22 H14 0.930 . S
C22 C18 1.390 . S
C22 C21 1.381 . S
N23 C16 1.286 . S
N23 C19 1.413 . S
H24 C29 0.930 . S
H25 C32 0.930 . S
H26 C34 0.930 . S
H27 C28 1.016 . S
C28 H27 1.016 . S
C28 N35 1.286 . S
C29 H24 0.930 . S
C29 C30 1.397 . S
C29 C31 1.361 . S
C30 C29 1.397 . S
C30 C34 1.390 . S
C31 C29 1.361 . S
C31 C32 1.393 . S
C31 N35 1.413 . S
C32 H25 0.930 . S
C32 C31 1.393 . S
C32 C33 1.399 . S
C33 C32 1.399 . S
C33 C34 1.381 . S
C34 H26 0.930 . S
C34 C30 1.390 . S
C34 C33 1.381 . S
N35 C28 1.286 . S
N35 C31 1.413 . S
H36 C41 0.930 . S
H37 C44 0.930 . S
H38 C46 0.930 . S
H39 C40 1.016 . S
C40 H39 1.016 . S
C40 N47 1.286 . S
C41 H36 0.930 . S
C41 C42 1.397 . S
C41 C43 1.361 . S
C42 C41 1.397 . S
C42 C46 1.390 . S
C43 C41 1.361 . S
C43 C44 1.393 . S
C43 N47 1.413 . S
C44 H37 0.930 . S
C44 C43 1.393 . S
C44 C45 1.399 . S
C45 C44 1.399 . S
C45 C46 1.381 . S
C46 H38 0.930 . S
C46 C42 1.390 . S
C46 C45 1.381 . S
N47 C40 1.286 . S
N47 C43 1.413 . S
H48 C53 0.930 . S
H49 C56 0.930 . S
H50 C58 0.930 . S
H51 C52 1.016 . S
C52 H51 1.016 . S
C52 N59 1.286 . S
C53 H48 0.930 . S
C53 C54 1.397 . S
C53 C55 1.361 . S
C54 C53 1.397 . S
C54 C58 1.390 . S
C55 C53 1.361 . S
C55 C56 1.393 . S
C55 N59 1.413 . S
C56 H49 0.930 . S
C56 C55 1.393 . S
C56 C57 1.399 . S
C57 C56 1.399 . S
C57 C58 1.381 . S
C58 H50 0.930 . S
C58 C54 1.390 . S
C58 C57 1.381 . S
N59 C52 1.286 . S
N59 C55 1.413 . S
H60 C65 0.930 . S
H61 C68 0.930 . S
H62 C70 0.930 . S
H63 C64 1.016 . S
C64 H63 1.016 . S
C64 N71 1.286 . S
C65 H60 0.930 . S
C65 C66 1.397 . S
C65 C67 1.361 . S
C66 C65 1.397 . S
C66 C70 1.390 . S
C67 C65 1.361 . S
C67 C68 1.393 . S
C67 N71 1.413 . S
C68 H61 0.930 . S
C68 C67 1.393 . S
C68 C69 1.399 . S
C69 C68 1.399 . S
C69 C70 1.381 . S
C70 H62 0.930 . S
C70 C66 1.390 . S
C70 C69 1.381 . S
N71 C64 1.286 . S
N71 C67 1.413 . S
H72 C77 0.930 . S
H73 C80 0.930 . S
H74 C82 0.930 . S
H75 C76 1.016 . S
C76 H75 1.016 . S
C76 N83 1.286 . S
C77 H72 0.930 . S
C77 C78 1.397 . S
C77 C79 1.361 . S
C78 C77 1.397 . S
C78 C82 1.390 . S
C79 C77 1.361 . S
C79 C80 1.393 . S
C79 N83 1.413 . S
C80 H73 0.930 . S
C80 C79 1.393 . S
C80 C81 1.399 . S
C81 C80 1.399 . S
C81 C82 1.381 . S
C82 H74 0.930 . S
C82 C78 1.390 . S
C82 C81 1.381 . S
N83 C76 1.286 . S
N83 C79 1.413 . S
H84 C89 0.930 . S
H85 C92 0.930 . S
H86 C94 0.930 . S
H87 C88 1.016 . S
C88 H87 1.016 . S
C88 N95 1.286 . S
C89 H84 0.930 . S
C89 C90 1.397 . S
C89 C91 1.361 . S
C90 C89 1.397 . S
C90 C94 1.390 . S
C91 C89 1.361 . S
C91 C92 1.393 . S
C91 N95 1.413 . S
C92 H85 0.930 . S
C92 C91 1.393 . S
C92 C93 1.399 . S
C93 C92 1.399 . S
C93 C94 1.381 . S
C94 H86 0.930 . S
C94 C90 1.390 . S
C94 C93 1.381 . S
N95 C88 1.286 . S
N95 C91 1.413 . S
Zn96 O102 1.969 1_545 S
Zn96 O103 1.965 1_545 S
Zn96 O107 2.024 . S
Zn96 O112 1.969 . S
Zn97 O104 1.969 . S
Zn97 O110 1.969 1_565 S
Zn97 O111 1.965 1_665 S
Zn97 O113 2.024 . S
C98 O99 1.229 . S
C98 O107 1.058 . S
O99 C98 1.229 . S
C100 O101 1.229 . S
C100 O113 1.058 . S
O101 C100 1.229 . S
O102 Zn96 1.969 1_565 S
O102 C105 1.267 . S
O103 Zn96 1.965 1_565 S
O103 C114 1.260 1_455 S
O104 Zn97 1.969 . S
O104 C114 1.258 . S
C105 O102 1.267 . S
C105 O106 1.228 . S
O106 C105 1.228 . S
O107 Zn96 2.024 . S
O107 C98 1.058 . S
C108 O109 1.228 . S
C108 O110 1.267 . S
O109 C108 1.228 . S
O110 Zn97 1.969 1_545 S
O110 C108 1.267 . S
O111 Zn97 1.965 1_445 S
O111 C115 1.260 . S
O112 Zn96 1.969 . S
O112 C115 1.258 . S
O113 Zn97 2.024 . S
O113 C100 1.058 . S
C114 O103 1.260 1_655 S
C114 O104 1.258 . S
C115 O111 1.260 . S
C115 O112 1.258 . S
Zn116 O122 1.969 . S
Zn116 O123 1.965 1_565 S
Zn116 O127 2.024 . S
Zn116 O132 1.969 1_556 S
Zn117 O124 1.969 . S
Zn117 O130 1.969 . S
Zn117 O131 1.965 1_545 S
Zn117 O133 2.024 . S
C118 O119 1.229 . S
C118 O127 1.058 . S
O119 C118 1.229 . S
C120 O121 1.229 . S
C120 O133 1.058 . S
O121 C120 1.229 . S
O122 Zn116 1.969 . S
O122 C125 1.267 . S
O123 Zn116 1.965 1_545 S
O123 C134 1.260 . S
O124 Zn117 1.969 . S
O124 C134 1.258 1_554 S
C125 O122 1.267 . S
C125 O126 1.228 . S
O126 C125 1.228 . S
O127 Zn116 2.024 . S
O127 C118 1.058 . S
C128 O129 1.228 . S
C128 O130 1.267 . S
O129 C128 1.228 . S
O130 Zn117 1.969 . S
O130 C128 1.267 . S
O131 Zn117 1.965 1_565 S
O131 C135 1.260 . S
O132 Zn116 1.969 1_554 S
O132 C135 1.258 . S
O133 Zn117 2.024 . S
O133 C120 1.058 . S
C134 O123 1.260 . S
C134 O124 1.258 1_556 S
C135 O131 1.260 . S
C135 O132 1.258 . S
Zn136 O142 1.969 . S
Zn136 O143 1.965 . S
Zn136 O147 2.024 . S
Zn136 O152 1.969 . S
Zn137 O144 1.969 . S
Zn137 O150 1.969 . S
Zn137 O151 1.965 . S
Zn137 O153 2.024 . S
C138 O139 1.229 . S
C138 O147 1.058 . S
O139 C138 1.229 . S
C140 O141 1.229 . S
C140 O153 1.058 . S
O141 C140 1.229 . S
O142 Zn136 1.969 . S
O142 C145 1.267 . S
O143 Zn136 1.965 . S
O143 C154 1.260 . S
O144 Zn137 1.969 . S
O144 C154 1.258 . S
C145 O142 1.267 . S
C145 O146 1.228 . S
O146 C145 1.228 . S
O147 Zn136 2.024 . S
O147 C138 1.058 . S
C148 O149 1.228 . S
C148 O150 1.267 . S
O149 C148 1.228 . S
O150 Zn137 1.969 . S
O150 C148 1.267 . S
O151 Zn137 1.965 . S
O151 C155 1.260 . S
O152 Zn136 1.969 . S
O152 C155 1.258 . S
O153 Zn137 2.024 . S
O153 C140 1.058 . S
C154 O143 1.260 . S
C154 O144 1.258 . S
C155 O151 1.260 . S
C155 O152 1.258 . S
Zn156 O162 1.969 . S
Zn156 O163 1.965 1_556 S
Zn156 O167 2.024 . S
Zn156 O172 1.969 1_655 S
Zn157 O164 1.969 . S
Zn157 O170 1.969 . S
Zn157 O171 1.935 1_554 S
Zn157 O173 2.024 . S
C158 O159 1.229 . S
C158 O167 1.058 . S
O159 C158 1.229 . S
C160 O161 1.229 . S
C160 O173 1.058 . S
O161 C160 1.229 . S
O162 Zn156 1.969 . S
O162 C165 1.267 . S
O163 Zn156 1.965 1_554 S
O163 C174 1.260 . S
O164 Zn157 1.969 . S
O164 C174 1.258 1_455 S
C165 O162 1.267 . S
C165 O166 1.228 . S
O166 C165 1.228 . S
O167 Zn156 2.024 . S
O167 C158 1.058 . S
C168 O169 1.228 . S
C168 O170 1.267 . S
O169 C168 1.228 . S
O170 Zn157 1.969 . S
O170 C168 1.267 . S
O171 Zn157 1.935 1_556 S
O171 C175 1.292 . S
O172 Zn156 1.969 1_455 S
O172 C175 1.258 . S
O173 Zn157 2.024 . S
O173 C160 1.058 . S
C174 O163 1.260 . S
C174 O164 1.258 1_655 S
C175 O171 1.292 . S
C175 O172 1.258 . S
H176 C184 0.950 . S
H177 C189 0.950 . S
H178 C186 0.950 . S
H179 C188 0.950 . S
H180 C190 0.950 . S
H181 C192 0.950 . S
H182 C194 0.950 . S
H183 C195 0.950 . S
C184 H176 0.950 . S
C184 C185 1.386 . S
C184 C186 1.391 . S
C185 C184 1.386 . S
C185 C189 1.393 . S
C186 H178 0.950 . S
C186 C184 1.391 . S
C186 C187 1.400 . S
C187 C186 1.400 . S
C187 C188 1.398 . S
C187 C193 1.491 . S
C188 H179 0.950 . S
C188 C187 1.398 . S
C188 C189 1.391 . S
C189 H177 0.950 . S
C189 C185 1.393 . S
C189 C188 1.391 . S
C190 H180 0.950 . S
C190 C191 1.386 . S
C190 C192 1.391 . S
C191 C190 1.386 . S
C191 C195 1.393 . S
C192 H181 0.950 . S
C192 C190 1.391 . S
C192 C193 1.400 . S
C193 C187 1.491 . S
C193 C192 1.400 . S
C193 C194 1.398 . S
C194 H182 0.950 . S
C194 C193 1.398 . S
C194 C195 1.391 . S
C195 H183 0.950 . S
C195 C191 1.393 . S
C195 C194 1.391 . S
H196 C204 0.950 . S
H197 C209 0.950 . S
H198 C206 0.950 . S
H199 C208 0.950 . S
H200 C210 0.950 . S
H201 C212 0.950 . S
H202 C214 0.950 . S
H203 C215 0.950 . S
C204 H196 0.950 . S
C204 C205 1.386 . S
C204 C206 1.391 . S
C205 C204 1.386 . S
C205 C209 1.393 . S
C206 H198 0.950 . S
C206 C204 1.391 . S
C206 C207 1.400 . S
C207 C206 1.400 . S
C207 C208 1.398 . S
C207 C213 1.491 . S
C208 H199 0.950 . S
C208 C207 1.398 . S
C208 C209 1.391 . S
C209 H197 0.950 . S
C209 C205 1.393 . S
C209 C208 1.391 . S
C210 H200 0.950 . S
C210 C211 1.386 . S
C210 C212 1.391 . S
C211 C210 1.386 . S
C211 C215 1.393 . S
C212 H201 0.950 . S
C212 C210 1.391 . S
C212 C213 1.400 . S
C213 C207 1.491 . S
C213 C212 1.400 . S
C213 C214 1.398 . S
C214 H202 0.950 . S
C214 C213 1.398 . S
C214 C215 1.391 . S
C215 H203 0.950 . S
C215 C211 1.393 . S
C215 C214 1.391 . S
H216 C224 0.950 . S
H217 C229 0.950 . S
H218 C226 0.950 . S
H219 C228 0.950 . S
H220 C230 0.950 . S
H221 C232 0.950 . S
H222 C234 0.950 . S
H223 C235 0.950 . S
C224 H216 0.950 . S
C224 C225 1.386 . S
C224 C226 1.391 . S
C225 C224 1.386 . S
C225 C229 1.393 . S
C226 H218 0.950 . S
C226 C224 1.391 . S
C226 C227 1.400 . S
C227 C226 1.400 . S
C227 C228 1.398 . S
C227 C233 1.491 . S
C228 H219 0.950 . S
C228 C227 1.398 . S
C228 C229 1.391 . S
C229 H217 0.950 . S
C229 C225 1.393 . S
C229 C228 1.391 . S
C230 H220 0.950 . S
C230 C231 1.386 . S
C230 C232 1.391 . S
C231 C230 1.386 . S
C231 C235 1.393 . S
C232 H221 0.950 . S
C232 C230 1.391 . S
C232 C233 1.400 . S
C233 C227 1.491 . S
C233 C232 1.400 . S
C233 C234 1.398 . S
C234 H222 0.950 . S
C234 C233 1.398 . S
C234 C235 1.391 . S
C235 H223 0.950 . S
C235 C231 1.393 . S
C235 C234 1.391 . S
H236 C244 0.950 . S
H237 C249 0.950 . S
H238 C246 0.950 . S
H239 C248 0.950 . S
H240 C250 0.950 . S
H241 C252 0.950 . S
H242 C254 0.950 . S
H243 C255 0.950 1_455 S
C244 H236 0.950 . S
C244 C245 1.386 . S
C244 C246 1.391 . S
C245 C244 1.386 . S
C245 C249 1.393 . S
C246 H238 0.950 . S
C246 C244 1.391 . S
C246 C247 1.400 . S
C247 C246 1.400 . S
C247 C248 1.398 . S
C247 C253 1.491 . S
C248 H239 0.950 . S
C248 C247 1.398 . S
C248 C249 1.391 . S
C249 H237 0.950 . S
C249 C245 1.393 . S
C249 C248 1.391 . S
C250 H240 0.950 . S
C250 C251 1.386 . S
C250 C252 1.391 . S
C251 C250 1.386 . S
C251 C255 1.393 . S
C252 H241 0.950 . S
C252 C250 1.391 . S
C252 C253 1.400 . S
C253 C247 1.491 . S
C253 C252 1.400 . S
C253 C254 1.398 . S
C254 H242 0.950 . S
C254 C253 1.398 . S
C254 C255 1.391 . S
C255 H243 0.950 1_655 S
C255 C251 1.393 . S
C255 C254 1.391 . S
H256 C264 0.950 . S
H257 C269 0.950 . S
H258 C266 0.950 . S
H259 C268 0.950 . S
H260 C270 0.950 . S
H261 C272 0.950 . S
H262 C274 0.950 . S
H263 C275 0.950 . S
C264 H256 0.950 . S
C264 C265 1.386 . S
C264 C266 1.391 . S
C265 C264 1.386 . S
C265 C269 1.393 . S
C266 H258 0.950 . S
C266 C264 1.391 . S
C266 C267 1.400 . S
C267 C266 1.400 . S
C267 C268 1.398 . S
C267 C273 1.491 . S
C268 H259 0.950 . S
C268 C267 1.398 . S
C268 C269 1.391 . S
C269 H257 0.950 . S
C269 C265 1.393 . S
C269 C268 1.391 . S
C270 H260 0.950 . S
C270 C271 1.386 . S
C270 C272 1.391 . S
C271 C270 1.386 . S
C271 C275 1.393 . S
C272 H261 0.950 . S
C272 C270 1.391 . S
C272 C273 1.400 . S
C273 C267 1.491 . S
C273 C272 1.400 . S
C273 C274 1.398 . S
C274 H262 0.950 . S
C274 C273 1.398 . S
C274 C275 1.391 . S
C275 H263 0.950 . S
C275 C271 1.393 . S
C275 C274 1.391 . S
H276 C284 0.950 . S
H277 C289 0.950 . S
H278 C286 0.950 . S
H279 C288 0.950 . S
H280 C290 0.950 . S
H281 C292 0.950 . S
H282 C294 0.950 . S
H283 C295 0.950 . S
C284 H276 0.950 . S
C284 C285 1.386 . S
C284 C286 1.391 . S
C285 C284 1.386 . S
C285 C289 1.393 . S
C286 H278 0.950 . S
C286 C284 1.391 . S
C286 C287 1.400 . S
C287 C286 1.400 . S
C287 C288 1.398 . S
C287 C293 1.491 . S
C288 H279 0.950 . S
C288 C287 1.398 . S
C288 C289 1.391 . S
C289 H277 0.950 . S
C289 C285 1.393 . S
C289 C288 1.391 . S
C290 H280 0.950 . S
C290 C291 1.386 . S
C290 C292 1.391 . S
C291 C290 1.386 . S
C291 C295 1.393 . S
C292 H281 0.950 . S
C292 C290 1.391 . S
C292 C293 1.400 . S
C293 C287 1.491 . S
C293 C292 1.400 . S
C293 C294 1.398 . S
C294 H282 0.950 . S
C294 C293 1.398 . S
C294 C295 1.391 . S
C295 H283 0.950 . S
C295 C291 1.393 . S
C295 C294 1.391 . S
H296 C304 0.950 . S
H297 C309 0.950 . S
H298 C306 0.950 . S
H299 C308 0.950 . S
H300 C310 0.950 . S
H301 C312 0.950 . S
H302 C314 0.950 . S
H303 C315 0.950 . S
C304 H296 0.950 . S
C304 C305 1.386 . S
C304 C306 1.391 . S
C305 C304 1.386 . S
C305 C309 1.393 . S
C306 H298 0.950 . S
C306 C304 1.391 . S
C306 C307 1.400 . S
C307 C306 1.400 . S
C307 C308 1.398 . S
C307 C313 1.491 . S
C308 H299 0.950 . S
C308 C307 1.398 . S
C308 C309 1.391 . S
C309 H297 0.950 . S
C309 C305 1.393 . S
C309 C308 1.391 . S
C310 H300 0.950 . S
C310 C311 1.386 . S
C310 C312 1.391 . S
C311 C310 1.386 . S
C311 C315 1.393 . S
C312 H301 0.950 . S
C312 C310 1.391 . S
C312 C313 1.400 . S
C313 C307 1.491 . S
C313 C312 1.400 . S
C313 C314 1.398 . S
C314 H302 0.950 . S
C314 C313 1.398 . S
C314 C315 1.391 . S
C315 H303 0.950 . S
C315 C311 1.393 . S
C315 C314 1.391 . S
H316 C324 0.950 . S
H317 C329 0.950 . S
H318 C326 0.950 . S
H319 C328 0.950 . S
H320 C330 0.950 . S
H321 C332 0.950 . S
H322 C334 0.950 . S
H323 C335 0.950 . S
C324 H316 0.950 . S
C324 C325 1.386 . S
C324 C326 1.391 . S
C325 C324 1.386 . S
C325 C329 1.393 . S
C326 H318 0.950 . S
C326 C324 1.391 . S
C326 C327 1.400 . S
C327 C326 1.400 . S
C327 C328 1.398 . S
C327 C333 1.491 . S
C328 H319 0.950 . S
C328 C327 1.398 . S
C328 C329 1.391 . S
C329 H317 0.950 . S
C329 C325 1.393 . S
C329 C328 1.391 . S
C330 H320 0.950 . S
C330 C331 1.386 . S
C330 C332 1.391 . S
C331 C330 1.386 . S
C331 C335 1.393 . S
C332 H321 0.950 . S
C332 C330 1.391 . S
C332 C333 1.400 . S
C333 C327 1.491 . S
C333 C332 1.400 . S
C333 C334 1.398 . S
C334 H322 0.950 . S
C334 C333 1.398 . S
C334 C335 1.391 . S
C335 H323 0.950 . S
C335 C331 1.393 . S
C335 C334 1.391 . S
H336 C344 0.950 . S
H337 C349 0.950 . S
H338 C346 0.950 . S
H339 C348 0.950 . S
H340 C350 0.950 . S
H341 C352 0.950 . S
H342 C354 0.950 . S
H343 C355 0.950 . S
C344 H336 0.950 . S
C344 C345 1.386 . S
C344 C346 1.391 . S
C345 C344 1.386 . S
C345 C349 1.393 . S
C346 H338 0.950 . S
C346 C344 1.391 . S
C346 C347 1.400 . S
C347 C346 1.400 . S
C347 C348 1.398 . S
C347 C353 1.491 . S
C348 H339 0.950 . S
C348 C347 1.398 . S
C348 C349 1.391 . S
C349 H337 0.950 . S
C349 C345 1.393 . S
C349 C348 1.391 . S
C350 H340 0.950 . S
C350 C351 1.386 . S
C350 C352 1.391 . S
C351 C350 1.386 . S
C351 C355 1.393 . S
C352 H341 0.950 . S
C352 C350 1.391 . S
C352 C353 1.400 . S
C353 C347 1.491 . S
C353 C352 1.400 . S
C353 C354 1.398 . S
C354 H342 0.950 . S
C354 C353 1.398 . S
C354 C355 1.391 . S
C355 H343 0.950 . S
C355 C351 1.393 . S
C355 C354 1.391 . S
H356 C364 0.950 . S
H357 C369 0.950 . S
H358 C366 0.950 . S
H359 C368 0.950 . S
H360 C370 0.950 . S
H361 C372 0.950 . S
H362 C374 0.950 . S
H363 C375 0.950 . S
C364 H356 0.950 . S
C364 C365 1.386 . S
C364 C366 1.391 . S
C365 C364 1.386 . S
C365 C369 1.393 . S
C366 H358 0.950 . S
C366 C364 1.391 . S
C366 C367 1.400 . S
C367 C366 1.400 . S
C367 C368 1.398 . S
C367 C373 1.491 . S
C368 H359 0.950 . S
C368 C367 1.398 . S
C368 C369 1.391 . S
C369 H357 0.950 . S
C369 C365 1.393 . S
C369 C368 1.391 . S
C370 H360 0.950 . S
C370 C371 1.386 . S
C370 C372 1.391 . S
C371 C370 1.386 . S
C371 C375 1.393 . S
C372 H361 0.950 . S
C372 C370 1.391 . S
C372 C373 1.400 . S
C373 C367 1.491 . S
C373 C372 1.400 . S
C373 C374 1.398 . S
C374 H362 0.950 . S
C374 C373 1.398 . S
C374 C375 1.391 . S
C375 H363 0.950 . S
C375 C371 1.393 . S
C375 C374 1.391 . S
H376 C384 0.950 . S
H377 C389 0.950 . S
H378 C386 0.950 . S
H379 C388 0.950 . S
H380 C390 0.950 . S
H381 C392 0.950 . S
H382 C394 0.950 . S
H383 C395 0.950 . S
C384 H376 0.950 . S
C384 C385 1.386 . S
C384 C386 1.391 . S
C385 C384 1.386 . S
C385 C389 1.393 . S
C386 H378 0.950 . S
C386 C384 1.391 . S
C386 C387 1.400 . S
C387 C386 1.400 . S
C387 C388 1.398 . S
C387 C393 1.491 . S
C388 H379 0.950 . S
C388 C387 1.398 . S
C388 C389 1.391 . S
C389 H377 0.950 . S
C389 C385 1.393 . S
C389 C388 1.391 . S
C390 H380 0.950 . S
C390 C391 1.386 . S
C390 C392 1.391 . S
C391 C390 1.386 . S
C391 C395 1.393 . S
C392 H381 0.950 . S
C392 C390 1.391 . S
C392 C393 1.400 . S
C393 C387 1.491 . S
C393 C392 1.400 . S
C393 C394 1.398 . S
C394 H382 0.950 . S
C394 C393 1.398 . S
C394 C395 1.391 . S
C395 H383 0.950 . S
C395 C391 1.393 . S
C395 C394 1.391 . S
H396 C404 0.950 . S
H397 C409 0.950 . S
H398 C406 0.950 . S
H399 C408 0.950 . S
H400 C410 0.950 . S
H401 C412 0.950 . S
H402 C414 0.950 . S
H403 C415 0.950 . S
C404 H396 0.950 . S
C404 C405 1.386 . S
C404 C406 1.391 . S
C405 C404 1.386 . S
C405 C409 1.393 . S
C406 H398 0.950 . S
C406 C404 1.391 . S
C406 C407 1.400 . S
C407 C406 1.400 . S
C407 C408 1.398 . S
C407 C413 1.491 . S
C408 H399 0.950 . S
C408 C407 1.398 . S
C408 C409 1.391 . S
C409 H397 0.950 . S
C409 C405 1.393 . S
C409 C408 1.391 . S
C410 H400 0.950 . S
C410 C411 1.386 . S
C410 C412 1.391 . S
C411 C410 1.386 . S
C411 C415 1.393 . S
C412 H401 0.950 . S
C412 C410 1.391 . S
C412 C413 1.400 . S
C413 C407 1.491 . S
C413 C412 1.400 . S
C413 C414 1.398 . S
C414 H402 0.950 . S
C414 C413 1.398 . S
C414 C415 1.391 . S
C415 H403 0.950 . S
C415 C411 1.393 . S
C415 C414 1.391 . S
H416 C424 0.950 . S
H417 C429 0.950 . S
H418 C426 0.950 . S
H419 C428 0.950 . S
H420 C430 0.950 . S
H421 C432 0.950 . S
H422 C434 0.950 . S
H423 C435 0.950 . S
C424 H416 0.950 . S
C424 C425 1.386 . S
C424 C426 1.391 . S
C425 C424 1.386 . S
C425 C429 1.393 . S
C426 H418 0.950 . S
C426 C424 1.391 . S
C426 C427 1.400 . S
C427 C426 1.400 . S
C427 C428 1.398 . S
C427 C433 1.491 . S
C428 H419 0.950 . S
C428 C427 1.398 . S
C428 C429 1.391 . S
C429 H417 0.950 . S
C429 C425 1.393 . S
C429 C428 1.391 . S
C430 H420 0.950 . S
C430 C431 1.386 . S
C430 C432 1.391 . S
C431 C430 1.386 . S
C431 C435 1.393 . S
C432 H421 0.950 . S
C432 C430 1.391 . S
C432 C433 1.400 . S
C433 C427 1.491 . S
C433 C432 1.400 . S
C433 C434 1.398 . S
C434 H422 0.950 . S
C434 C433 1.398 . S
C434 C435 1.391 . S
C435 H423 0.950 . S
C435 C431 1.393 . S
C435 C434 1.391 . S
H436 C444 0.950 . S
H437 C449 0.950 . S
H438 C446 0.950 . S
H439 C448 0.950 . S
H440 C450 0.950 . S
H441 C452 0.950 . S
H442 C454 0.950 . S
H443 C455 0.950 . S
C444 H436 0.950 . S
C444 C445 1.386 . S
C444 C446 1.391 . S
C445 C444 1.386 . S
C445 C449 1.393 . S
C446 H438 0.950 . S
C446 C444 1.391 . S
C446 C447 1.400 . S
C447 C446 1.400 . S
C447 C448 1.398 . S
C447 C453 1.491 . S
C448 H439 0.950 . S
C448 C447 1.398 . S
C448 C449 1.391 . S
C449 H437 0.950 . S
C449 C445 1.393 . S
C449 C448 1.391 . S
C450 H440 0.950 . S
C450 C451 1.386 . S
C450 C452 1.391 . S
C451 C450 1.386 . S
C451 C455 1.393 . S
C452 H441 0.950 . S
C452 C450 1.391 . S
C452 C453 1.400 . S
C453 C447 1.491 . S
C453 C452 1.400 . S
C453 C454 1.398 . S
C454 H442 0.950 . S
C454 C453 1.398 . S
C454 C455 1.391 . S
C455 H443 0.950 . S
C455 C451 1.393 . S
C455 C454 1.391 . S
H456 C464 0.950 . S
H457 C469 0.950 . S
H458 C466 0.950 . S
H459 C468 0.950 . S
H460 C470 0.950 . S
H461 C472 0.950 . S
H462 C474 0.950 . S
H463 C475 0.950 . S
C464 H456 0.950 . S
C464 C465 1.386 . S
C464 C466 1.391 . S
C465 C464 1.386 . S
C465 C469 1.393 . S
C466 H458 0.950 . S
C466 C464 1.391 . S
C466 C467 1.400 . S
C467 C466 1.400 . S
C467 C468 1.398 . S
C467 C473 1.491 . S
C468 H459 0.950 . S
C468 C467 1.398 . S
C468 C469 1.391 . S
C469 H457 0.950 . S
C469 C465 1.393 . S
C469 C468 1.391 . S
C470 H460 0.950 . S
C470 C471 1.386 . S
C470 C472 1.391 . S
C471 C470 1.386 . S
C471 C475 1.393 . S
C472 H461 0.950 . S
C472 C470 1.391 . S
C472 C473 1.400 . S
C473 C467 1.491 . S
C473 C472 1.400 . S
C473 C474 1.398 . S
C474 H462 0.950 . S
C474 C473 1.398 . S
C474 C475 1.391 . S
C475 H463 0.950 . S
C475 C471 1.393 . S
C475 C474 1.391 . S
H476 C484 0.950 . S
H477 C489 0.950 . S
H478 C486 0.950 . S
H479 C488 0.950 . S
H480 C490 0.950 . S
H481 C492 0.950 . S
H482 C494 0.950 . S
H483 C495 0.950 . S
C484 H476 0.950 . S
C484 C485 1.386 . S
C484 C486 1.391 . S
C485 C484 1.386 . S
C485 C489 1.393 . S
C486 H478 0.950 . S
C486 C484 1.391 . S
C486 C487 1.400 . S
C487 C486 1.400 . S
C487 C488 1.398 . S
C487 C493 1.491 . S
C488 H479 0.950 . S
C488 C487 1.398 . S
C488 C489 1.391 . S
C489 H477 0.950 . S
C489 C485 1.393 . S
C489 C488 1.391 . S
C490 H480 0.950 . S
C490 C491 1.386 . S
C490 C492 1.391 . S
C491 C490 1.386 . S
C491 C495 1.393 . S
C492 H481 0.950 . S
C492 C490 1.391 . S
C492 C493 1.400 . S
C493 C487 1.491 . S
C493 C492 1.400 . S
C493 C494 1.398 . S
C494 H482 0.950 . S
C494 C493 1.398 . S
C494 C495 1.391 . S
C495 H483 0.950 . S
C495 C491 1.393 . S
C495 C494 1.391 . S
H496 C504 0.950 . S
H497 C509 0.950 . S
H498 C506 0.950 . S
H499 C508 0.950 . S
H500 C510 0.950 . S
H501 C512 0.950 . S
H502 C514 0.950 . S
H503 C515 0.950 . S
C504 H496 0.950 . S
C504 C505 1.386 . S
C504 C506 1.391 . S
C505 C504 1.386 . S
C505 C509 1.393 . S
C506 H498 0.950 . S
C506 C504 1.391 . S
C506 C507 1.400 . S
C507 C506 1.400 . S
C507 C508 1.398 . S
C507 C513 1.491 . S
C508 H499 0.950 . S
C508 C507 1.398 . S
C508 C509 1.391 . S
C509 H497 0.950 . S
C509 C505 1.393 . S
C509 C508 1.391 . S
C510 H500 0.950 . S
C510 C511 1.386 . S
C510 C512 1.391 . S
C511 C510 1.386 . S
C511 C515 1.393 . S
C512 H501 0.950 . S
C512 C510 1.391 . S
C512 C513 1.400 . S
C513 C507 1.491 . S
C513 C512 1.400 . S
C513 C514 1.398 . S
C514 H502 0.950 . S
C514 C513 1.398 . S
C514 C515 1.391 . S
C515 H503 0.950 . S
C515 C511 1.393 . S
C515 C514 1.391 . S
H516 C524 0.950 . S
H517 C529 0.950 . S
H518 C526 0.950 . S
H519 C528 0.950 . S
H520 C530 0.950 . S
H521 C532 0.950 . S
H522 C534 0.950 . S
H523 C535 0.950 . S
C524 H516 0.950 . S
C524 C525 1.386 . S
C524 C526 1.391 . S
C525 C524 1.386 . S
C525 C529 1.393 . S
C526 H518 0.950 . S
C526 C524 1.391 . S
C526 C527 1.400 . S
C527 C526 1.400 . S
C527 C528 1.398 . S
C527 C533 1.491 . S
C528 H519 0.950 . S
C528 C527 1.398 . S
C528 C529 1.391 . S
C529 H517 0.950 . S
C529 C525 1.393 . S
C529 C528 1.391 . S
C530 H520 0.950 . S
C530 C531 1.386 . S
C530 C532 1.391 . S
C531 C530 1.386 . S
C531 C535 1.393 . S
C532 H521 0.950 . S
C532 C530 1.391 . S
C532 C533 1.400 . S
C533 C527 1.491 . S
C533 C532 1.400 . S
C533 C534 1.398 . S
C534 H522 0.950 . S
C534 C533 1.398 . S
C534 C535 1.391 . S
C535 H523 0.950 . S
C535 C531 1.393 . S
C535 C534 1.391 . S
H536 C544 0.950 . S
H537 C549 0.950 . S
H538 C546 0.950 . S
H539 C548 0.950 . S
H540 C550 0.950 . S
H541 C552 0.950 . S
H542 C554 0.950 . S
H543 C555 0.950 . S
C544 H536 0.950 . S
C544 C545 1.386 . S
C544 C546 1.391 . S
C545 C544 1.386 . S
C545 C549 1.393 . S
C546 H538 0.950 . S
C546 C544 1.391 . S
C546 C547 1.400 . S
C547 C546 1.400 . S
C547 C548 1.398 . S
C547 C553 1.491 . S
C548 H539 0.950 . S
C548 C547 1.398 . S
C548 C549 1.391 . S
C549 H537 0.950 . S
C549 C545 1.393 . S
C549 C548 1.391 . S
C550 H540 0.950 . S
C550 C551 1.386 . S
C550 C552 1.391 . S
C551 C550 1.386 . S
C551 C555 1.393 . S
C552 H541 0.950 . S
C552 C550 1.391 . S
C552 C553 1.400 . S
C553 C547 1.491 . S
C553 C552 1.400 . S
C553 C554 1.398 . S
C554 H542 0.950 . S
C554 C553 1.398 . S
C554 C555 1.391 . S
C555 H543 0.950 . S
C555 C551 1.393 . S
C555 C554 1.391 . S
H556 C564 0.950 . S
H557 C569 0.950 . S
H558 C566 0.950 . S
H559 C568 0.950 . S
H560 C570 0.950 . S
H561 C572 0.950 . S
H562 C574 0.950 . S
H563 C575 0.950 . S
C564 H556 0.950 . S
C564 C565 1.386 . S
C564 C566 1.391 . S
C565 C564 1.386 . S
C565 C569 1.393 . S
C566 H558 0.950 . S
C566 C564 1.391 . S
C566 C567 1.400 . S
C567 C566 1.400 . S
C567 C568 1.398 . S
C567 C573 1.491 . S
C568 H559 0.950 . S
C568 C567 1.398 . S
C568 C569 1.391 . S
C569 H557 0.950 . S
C569 C565 1.393 . S
C569 C568 1.391 . S
C570 H560 0.950 . S
C570 C571 1.386 . S
C570 C572 1.391 . S
C571 C570 1.386 . S
C571 C575 1.393 . S
C572 H561 0.950 . S
C572 C570 1.391 . S
C572 C573 1.400 . S
C573 C567 1.491 . S
C573 C572 1.400 . S
C573 C574 1.398 . S
C574 H562 0.950 . S
C574 C573 1.398 . S
C574 C575 1.391 . S
C575 H563 0.950 . S
C575 C571 1.393 . S
C575 C574 1.391 . S
H576 C584 0.950 . S
H577 C589 0.950 . S
H578 C586 0.950 . S
H579 C588 0.950 . S
H580 C590 0.950 . S
H581 C592 0.950 . S
H582 C594 0.950 . S
H583 C595 0.950 . S
C584 H576 0.950 . S
C584 C585 1.386 . S
C584 C586 1.391 . S
C585 C584 1.386 . S
C585 C589 1.393 . S
C586 H578 0.950 . S
C586 C584 1.391 . S
C586 C587 1.400 . S
C587 C586 1.400 . S
C587 C588 1.398 . S
C587 C593 1.491 . S
C588 H579 0.950 . S
C588 C587 1.398 . S
C588 C589 1.391 . S
C589 H577 0.950 . S
C589 C585 1.393 . S
C589 C588 1.391 . S
C590 H580 0.950 . S
C590 C591 1.386 . S
C590 C592 1.391 . S
C591 C590 1.386 . S
C591 C595 1.393 . S
C592 H581 0.950 . S
C592 C590 1.391 . S
C592 C593 1.400 . S
C593 C587 1.491 . S
C593 C592 1.400 . S
C593 C594 1.398 . S
C594 H582 0.950 . S
C594 C593 1.398 . S
C594 C595 1.391 . S
C595 H583 0.950 . S
C595 C591 1.393 . S
C595 C594 1.391 . S
H596 C604 0.950 . S
H597 C609 0.950 . S
H598 C606 0.950 . S
H599 C608 0.950 . S
H600 C610 0.950 . S
H601 C612 0.950 . S
H602 C614 0.950 . S
H603 C615 0.950 . S
C604 H596 0.950 . S
C604 C605 1.386 . S
C604 C606 1.391 . S
C605 C604 1.386 . S
C605 C609 1.393 . S
C606 H598 0.950 . S
C606 C604 1.391 . S
C606 C607 1.400 . S
C607 C606 1.400 . S
C607 C608 1.398 . S
C607 C613 1.491 . S
C608 H599 0.950 . S
C608 C607 1.398 . S
C608 C609 1.391 . S
C609 H597 0.950 . S
C609 C605 1.393 . S
C609 C608 1.391 . S
C610 H600 0.950 . S
C610 C611 1.386 . S
C610 C612 1.391 . S
C611 C610 1.386 . S
C611 C615 1.393 . S
C612 H601 0.950 . S
C612 C610 1.391 . S
C612 C613 1.400 . S
C613 C607 1.491 . S
C613 C612 1.400 . S
C613 C614 1.398 . S
C614 H602 0.950 . S
C614 C613 1.398 . S
C614 C615 1.391 . S
C615 H603 0.950 . S
C615 C611 1.393 . S
C615 C614 1.391 . S
H616 C624 0.950 . S
H617 C629 0.950 . S
H618 C626 0.950 . S
H619 C628 0.950 . S
H620 C630 0.950 . S
H621 C632 0.950 . S
H622 C634 0.950 . S
H623 C635 0.950 . S
C624 H616 0.950 . S
C624 C625 1.386 . S
C624 C626 1.391 . S
C625 C624 1.386 . S
C625 C629 1.393 . S
C626 H618 0.950 . S
C626 C624 1.391 . S
C626 C627 1.400 . S
C627 C626 1.400 . S
C627 C628 1.398 . S
C627 C633 1.491 . S
C628 H619 0.950 . S
C628 C627 1.398 . S
C628 C629 1.391 . S
C629 H617 0.950 . S
C629 C625 1.393 . S
C629 C628 1.391 . S
C630 H620 0.950 . S
C630 C631 1.386 . S
C630 C632 1.391 . S
C631 C630 1.386 . S
C631 C635 1.393 . S
C632 H621 0.950 . S
C632 C630 1.391 . S
C632 C633 1.400 . S
C633 C627 1.491 . S
C633 C632 1.400 . S
C633 C634 1.398 . S
C634 H622 0.950 . S
C634 C633 1.398 . S
C634 C635 1.391 . S
C635 H623 0.950 . S
C635 C631 1.393 . S
C635 C634 1.391 . S
H636 C644 0.950 . S
H637 C649 0.950 . S
H638 C646 0.950 . S
H639 C648 0.950 . S
H640 C650 0.950 . S
H641 C652 0.950 . S
H642 C654 0.950 . S
H643 C655 0.950 . S
C644 H636 0.950 . S
C644 C645 1.386 . S
C644 C646 1.391 . S
C645 C644 1.386 . S
C645 C649 1.393 . S
C646 H638 0.950 . S
C646 C644 1.391 . S
C646 C647 1.400 . S
C647 C646 1.400 . S
C647 C648 1.398 . S
C647 C653 1.491 . S
C648 H639 0.950 . S
C648 C647 1.398 . S
C648 C649 1.391 . S
C649 H637 0.950 . S
C649 C645 1.393 . S
C649 C648 1.391 . S
C650 H640 0.950 . S
C650 C651 1.386 . S
C650 C652 1.391 . S
C651 C650 1.386 . S
C651 C655 1.393 . S
C652 H641 0.950 . S
C652 C650 1.391 . S
C652 C653 1.400 . S
C653 C647 1.491 . S
C653 C652 1.400 . S
C653 C654 1.398 . S
C654 H642 0.950 . S
C654 C653 1.398 . S
C654 C655 1.391 . S
C655 H643 0.950 . S
C655 C651 1.393 . S
C655 C654 1.391 . S
C185 C6 1.573 . S
C191 C115 1.573 . S
C205 C18 1.554 . S
C211 C118 1.501 . S
C231 C154 1.797 . S
C225 C28 1.818 . S
C245 C40 1.125 . S
C251 C174 1.110 . S
C271 C128 1.921 . S
C265 C9 1.935 . S
C291 C105 1.457 . S
C285 C16 1.474 . S
C311 C158 1.474 . S
C305 C30 1.589 . S
C331 C138 1.149 . S
C325 C42 1.188 . S
C345 C4 1.365 . S
C351 C168 1.297 . S
C371 C134 1.755 . S
C365 C33 1.762 . S
C385 C45 1.467 . S
C391 C100 1.401 . S
C405 C21 1.544 . S
C411 C148 1.495 . S
C431 C114 1.607 . S
C425 C57 1.616 . S
C445 C66 1.529 . S
C451 C120 1.470 . S
C465 C76 1.833 . S
C471 C155 1.822 . S
C485 C88 1.052 . S
C491 C175 1.052 . S
C505 C54 1.916 . S
C511 C125 1.904 . S
C531 C108 1.515 . S
C525 C64 1.531 . S
C551 C160 1.368 . S
C545 C78 1.520 . S
C571 C140 1.168 . S
C565 C93 1.208 . S
C585 C52 1.336 . S
C591 C165 1.253 . S
C611 C135 1.747 . S
C605 C81 1.765 . S
C631 C98 1.391 . S
C625 C90 1.442 . S
C645 C69 1.573 . S
C651 C145 1.538 . S
