# Generated by pormake.
# Topology ctn, (3,4)-cn, num edge types: 1
# Building blocks:
#     Node 0, Type 0, BuildingBlock: ESEHIV_clean_linker_0, # of connection points: 3
#     Node 1, Type 0, BuildingBlock: ESEHIV_clean_linker_0, # of connection points: 3
#     Node 2, Type 0, BuildingBlock: ESEHIV_clean_linker_0, # of connection points: 3
#     Node 3, Type 0, BuildingBlock: ESEHIV_clean_linker_0, # of connection points: 3
#     Node 4, Type 0, BuildingBlock: ESEHIV_clean_linker_0, # of connection points: 3
#     Node 5, Type 0, BuildingBlock: ESEHIV_clean_linker_0, # of connection points: 3
#     Node 6, Type 0, BuildingBlock: ESEHIV_clean_linker_0, # of connection points: 3
#     Node 7, Type 0, BuildingBlock: ESEHIV_clean_linker_0, # of connection points: 3
#     Node 8, Type 0, BuildingBlock: ESEHIV_clean_linker_0, # of connection points: 3
#     Node 9, Type 0, BuildingBlock: ESEHIV_clean_linker_0, # of connection points: 3
#     Node 10, Type 0, BuildingBlock: ESEHIV_clean_linker_0, # of connection points: 3
#     Node 11, Type 0, BuildingBlock: ESEHIV_clean_linker_0, # of connection points: 3
#     Node 12, Type 0, BuildingBlock: ESEHIV_clean_linker_0, # of connection points: 3
#     Node 13, Type 0, BuildingBlock: ESEHIV_clean_linker_0, # of connection points: 3
#     Node 14, Type 0, BuildingBlock: ESEHIV_clean_linker_0, # of connection points: 3
#     Node 15, Type 0, BuildingBlock: ESEHIV_clean_linker_0, # of connection points: 3
#     Node 16, Type 1, BuildingBlock: TATPOV_clean_sbu_0, # of connection points: 4
#     Node 17, Type 1, BuildingBlock: TATPOV_clean_sbu_0, # of connection points: 4
#     Node 18, Type 1, BuildingBlock: TATPOV_clean_sbu_0, # of connection points: 4
#     Node 19, Type 1, BuildingBlock: TATPOV_clean_sbu_0, # of connection points: 4
#     Node 20, Type 1, BuildingBlock: TATPOV_clean_sbu_0, # of connection points: 4
#     Node 21, Type 1, BuildingBlock: TATPOV_clean_sbu_0, # of connection points: 4
#     Node 22, Type 1, BuildingBlock: TATPOV_clean_sbu_0, # of connection points: 4
#     Node 23, Type 1, BuildingBlock: TATPOV_clean_sbu_0, # of connection points: 4
#     Node 24, Type 1, BuildingBlock: TATPOV_clean_sbu_0, # of connection points: 4
#     Node 25, Type 1, BuildingBlock: TATPOV_clean_sbu_0, # of connection points: 4
#     Node 26, Type 1, BuildingBlock: TATPOV_clean_sbu_0, # of connection points: 4
#     Node 27, Type 1, BuildingBlock: TATPOV_clean_sbu_0, # of connection points: 4
#     Edge 28, Type (0, 1), BuildingBlock: UVAHIK_clean_linker_0, # of connection points: 2
#     Edge 29, Type (0, 1), BuildingBlock: UVAHIK_clean_linker_0, # of connection points: 2
#     Edge 30, Type (0, 1), BuildingBlock: UVAHIK_clean_linker_0, # of connection points: 2
#     Edge 31, Type (0, 1), BuildingBlock: UVAHIK_clean_linker_0, # of connection points: 2
#     Edge 32, Type (0, 1), BuildingBlock: UVAHIK_clean_linker_0, # of connection points: 2
#     Edge 33, Type (0, 1), BuildingBlock: UVAHIK_clean_linker_0, # of connection points: 2
#     Edge 34, Type (0, 1), BuildingBlock: UVAHIK_clean_linker_0, # of connection points: 2
#     Edge 35, Type (0, 1), BuildingBlock: UVAHIK_clean_linker_0, # of connection points: 2
#     Edge 36, Type (0, 1), BuildingBlock: UVAHIK_clean_linker_0, # of connection points: 2
#     Edge 37, Type (0, 1), BuildingBlock: UVAHIK_clean_linker_0, # of connection points: 2
#     Edge 38, Type (0, 1), BuildingBlock: UVAHIK_clean_linker_0, # of connection points: 2
#     Edge 39, Type (0, 1), BuildingBlock: UVAHIK_clean_linker_0, # of connection points: 2
#     Edge 40, Type (0, 1), BuildingBlock: UVAHIK_clean_linker_0, # of connection points: 2
#     Edge 41, Type (0, 1), BuildingBlock: UVAHIK_clean_linker_0, # of connection points: 2
#     Edge 42, Type (0, 1), BuildingBlock: UVAHIK_clean_linker_0, # of connection points: 2
#     Edge 43, Type (0, 1), BuildingBlock: UVAHIK_clean_linker_0, # of connection points: 2
#     Edge 44, Type (0, 1), BuildingBlock: UVAHIK_clean_linker_0, # of connection points: 2
#     Edge 45, Type (0, 1), BuildingBlock: UVAHIK_clean_linker_0, # of connection points: 2
#     Edge 46, Type (0, 1), BuildingBlock: UVAHIK_clean_linker_0, # of connection points: 2
#     Edge 47, Type (0, 1), BuildingBlock: UVAHIK_clean_linker_0, # of connection points: 2
#     Edge 48, Type (0, 1), BuildingBlock: UVAHIK_clean_linker_0, # of connection points: 2
#     Edge 49, Type (0, 1), BuildingBlock: UVAHIK_clean_linker_0, # of connection points: 2
#     Edge 50, Type (0, 1), BuildingBlock: UVAHIK_clean_linker_0, # of connection points: 2
#     Edge 51, Type (0, 1), BuildingBlock: UVAHIK_clean_linker_0, # of connection points: 2
#     Edge 52, Type (0, 1), BuildingBlock: UVAHIK_clean_linker_0, # of connection points: 2
#     Edge 53, Type (0, 1), BuildingBlock: UVAHIK_clean_linker_0, # of connection points: 2
#     Edge 54, Type (0, 1), BuildingBlock: UVAHIK_clean_linker_0, # of connection points: 2
#     Edge 55, Type (0, 1), BuildingBlock: UVAHIK_clean_linker_0, # of connection points: 2
#     Edge 56, Type (0, 1), BuildingBlock: UVAHIK_clean_linker_0, # of connection points: 2
#     Edge 57, Type (0, 1), BuildingBlock: UVAHIK_clean_linker_0, # of connection points: 2
#     Edge 58, Type (0, 1), BuildingBlock: UVAHIK_clean_linker_0, # of connection points: 2
#     Edge 59, Type (0, 1), BuildingBlock: UVAHIK_clean_linker_0, # of connection points: 2
#     Edge 60, Type (0, 1), BuildingBlock: UVAHIK_clean_linker_0, # of connection points: 2
#     Edge 61, Type (0, 1), BuildingBlock: UVAHIK_clean_linker_0, # of connection points: 2
#     Edge 62, Type (0, 1), BuildingBlock: UVAHIK_clean_linker_0, # of connection points: 2
#     Edge 63, Type (0, 1), BuildingBlock: UVAHIK_clean_linker_0, # of connection points: 2
#     Edge 64, Type (0, 1), BuildingBlock: UVAHIK_clean_linker_0, # of connection points: 2
#     Edge 65, Type (0, 1), BuildingBlock: UVAHIK_clean_linker_0, # of connection points: 2
#     Edge 66, Type (0, 1), BuildingBlock: UVAHIK_clean_linker_0, # of connection points: 2
#     Edge 67, Type (0, 1), BuildingBlock: UVAHIK_clean_linker_0, # of connection points: 2
#     Edge 68, Type (0, 1), BuildingBlock: UVAHIK_clean_linker_0, # of connection points: 2
#     Edge 69, Type (0, 1), BuildingBlock: UVAHIK_clean_linker_0, # of connection points: 2
#     Edge 70, Type (0, 1), BuildingBlock: UVAHIK_clean_linker_0, # of connection points: 2
#     Edge 71, Type (0, 1), BuildingBlock: UVAHIK_clean_linker_0, # of connection points: 2
#     Edge 72, Type (0, 1), BuildingBlock: UVAHIK_clean_linker_0, # of connection points: 2
#     Edge 73, Type (0, 1), BuildingBlock: UVAHIK_clean_linker_0, # of connection points: 2
#     Edge 74, Type (0, 1), BuildingBlock: UVAHIK_clean_linker_0, # of connection points: 2
#     Edge 75, Type (0, 1), BuildingBlock: UVAHIK_clean_linker_0, # of connection points: 2
# Relax obj value: 0.003
# Max RMSD: 0.048
# Mean RMSD: 0.022
data_MOF--net-ctn--node1-TATPOV_clean_sbu_0--node2-ESEHIV_clean_linker_0--edge1-UVAHIK_clean_linker_0
_symmetry_space_group_name_H-M    P1
_symmetry_Int_Tables_number       1
_symmetry_cell_setting            triclinic
loop_
_symmetry_equiv_pos_as_xyz
'x, y, z'
_cell_length_a     67.968907
_cell_length_b     67.862632
_cell_length_c     67.797875
_cell_angle_alpha  90.895557
_cell_angle_beta   91.139469
_cell_angle_gamma 90.975245
loop_
_atom_site_label
_atom_site_type_symbol
_atom_site_fract_x
_atom_site_fract_y
_atom_site_fract_z
_atom_type_partial_charge
H0 H 0.00723 0.05892 0.02989 0.0
H1 H 0.03865 0.00944 0.0525 0.0
H2 H 0.05803 0.03765 -0.00025 0.0
C3 C 0.01935 0.0488 0.02889 0.0
C4 C 0.03235 0.05014 0.01305 0.0
C5 C 0.02148 0.03416 0.04318 0.0
C6 C 0.03688 0.02072 0.0415 0.0
C7 C 0.05008 0.02177 0.02582 0.0
C8 C 0.04763 0.03647 0.01161 0.0
H9 H 0.27084 0.67749 0.24756 0.0
H10 H 0.28489 0.72514 0.20891 0.0
H11 H 0.2297 0.69374 0.20192 0.0
C12 C 0.26704 0.68669 0.23519 0.0
C13 C 0.24891 0.68352 0.22518 0.0
C14 C 0.28011 0.70177 0.2296 0.0
C15 C 0.27464 0.71397 0.21389 0.0
C16 C 0.2564 0.71137 0.20393 0.0
C17 C 0.24364 0.69607 0.20969 0.0
H18 H 0.96565 0.47213 0.07311 0.0
H19 H 0.00036 0.4227 0.05612 0.0
H20 H 0.95409 0.44233 0.01739 0.0
C21 C 0.96895 0.46072 0.06237 0.0
C22 C 0.95781 0.45893 0.04472 0.0
C23 C 0.98452 0.44798 0.06629 0.0
C24 C 0.98867 0.43286 0.05275 0.0
C25 C 0.97732 0.43035 0.03533 0.0
C26 C 0.96217 0.44365 0.03129 0.0
H27 H 0.71384 0.73962 0.20847 0.0
H28 H 0.76434 0.77552 0.19455 0.0
H29 H 0.72625 0.7933 0.24117 0.0
C30 C 0.72328 0.75238 0.2115 0.0
C31 C 0.71834 0.76579 0.22654 0.0
C32 C 0.73969 0.75592 0.19965 0.0
C33 C 0.75139 0.77294 0.20328 0.0
C34 C 0.74666 0.78658 0.21817 0.0
C35 C 0.73015 0.7828 0.22976 0.0
H36 H 0.02143 0.94987 0.43982 0.0
H37 H 0.05867 -3e-05 0.42823 0.0
H38 H 0.0683 0.96631 0.48073 0.0
C39 C 0.03383 0.95939 0.44401 0.0
C40 C 0.04425 0.95619 0.46175 0.0
C41 C 0.03878 0.97538 0.43208 0.0
C42 C 0.05455 0.98796 0.43775 0.0
C43 C 0.06549 0.98465 0.45515 0.0
C44 C 0.06009 0.96885 0.46717 0.0
H45 H 0.18344 0.74866 0.76923 0.0
H46 H 0.23624 0.71706 0.78268 0.0
H47 H 0.20368 0.70429 0.72888 0.0
C48 C 0.19418 0.73776 0.76529 0.0
C49 C 0.19177 0.72712 0.74741 0.0
C50 C 0.21017 0.73429 0.77819 0.0
C51 C 0.22389 0.71994 0.77287 0.0
C52 C 0.22162 0.70895 0.75519 0.0
C53 C 0.20557 0.71274 0.7425 0.0
H54 H 0.91793 0.54208 0.50423 0.0
H55 H 0.97342 0.55624 0.47789 0.0
H56 H 0.94004 0.50528 0.45779 0.0
C57 C 0.92921 0.53878 0.49367 0.0
C58 C 0.92718 0.52189 0.48149 0.0
C59 C 0.94574 0.55144 0.4923 0.0
C60 C 0.96035 0.54694 0.47861 0.0
C61 C 0.95852 0.5302 0.46627 0.0
C62 C 0.94183 0.51788 0.46772 0.0
H63 H 0.81692 0.85834 0.86303 0.0
H64 H 0.84515 0.87057 0.80828 0.0
H65 H 0.86482 0.82272 0.84402 0.0
C66 C 0.82854 0.8555 0.85271 0.0
C67 C 0.841 0.83949 0.85585 0.0
C68 C 0.82988 0.86677 0.83556 0.0
C69 C 0.84446 0.86235 0.82184 0.0
C70 C 0.85711 0.84644 0.82474 0.0
C71 C 0.85553 0.83538 0.842 0.0
H72 H 0.31224 0.31965 0.35671 0.0
H73 H 0.33664 0.34309 0.30399 0.0
H74 H 0.36908 0.30101 0.33803 0.0
C75 C 0.32433 0.32069 0.34658 0.0
C76 C 0.34072 0.3086 0.3491 0.0
C77 C 0.32303 0.33351 0.33058 0.0
C78 C 0.33832 0.33412 0.31697 0.0
C79 C 0.35498 0.32227 0.31928 0.0
C80 C 0.35621 0.30995 0.33575 0.0
H81 H 0.46462 0.95296 0.58076 0.0
H82 H 0.49887 0.90414 0.56056 0.0
H83 H 0.45156 0.92561 0.5243 0.0
C84 C 0.46763 0.94187 0.56961 0.0
C85 C 0.4561 0.94089 0.55219 0.0
C86 C 0.48315 0.92876 0.57272 0.0
C87 C 0.48697 0.91433 0.55824 0.0
C88 C 0.47557 0.91308 0.54075 0.0
C89 C 0.46025 0.92644 0.53786 0.0
H90 H 0.20676 0.22907 0.71091 0.0
H91 H 0.2541 0.268 0.69461 0.0
H92 H 0.21521 0.28493 0.74089 0.0
C93 C 0.21498 0.24279 0.713 0.0
C94 C 0.20939 0.25624 0.72775 0.0
C95 C 0.23091 0.24704 0.70075 0.0
C96 C 0.24145 0.26491 0.70359 0.0
C97 C 0.23603 0.27865 0.71814 0.0
C98 C 0.21995 0.27415 0.73011 0.0
H99 H 0.75974 0.18788 0.75591 0.0
H100 H 0.7768 0.23745 0.72106 0.0
H101 H 0.72305 0.20552 0.70706 0.0
C102 C 0.75697 0.1976 0.74367 0.0
C103 C 0.73976 0.19488 0.732 0.0
C104 C 0.77047 0.21292 0.73986 0.0
C105 C 0.76641 0.2257 0.72423 0.0
C106 C 0.74929 0.2233 0.71238 0.0
C107 C 0.73597 0.20789 0.71647 0.0
H108 H 0.49533 0.5527 0.52727 0.0
H109 H 0.52536 0.50112 0.54679 0.0
H110 H 0.54329 0.52988 0.49379 0.0
C111 C 0.50666 0.54186 0.52516 0.0
C112 C 0.5191 0.54326 0.50888 0.0
C113 C 0.50865 0.52659 0.53878 0.0
C114 C 0.52342 0.51262 0.53605 0.0
C115 C 0.53617 0.51381 0.52 0.0
C116 C 0.53387 0.52918 0.50648 0.0
H117 H 0.52985 0.46249 0.92792 0.0
H118 H 0.56469 0.51262 0.91095 0.0
H119 H 0.57851 0.48274 0.96489 0.0
C120 C 0.54208 0.47266 0.93086 0.0
C121 C 0.55372 0.47077 0.94806 0.0
C122 C 0.54589 0.48781 0.91754 0.0
C123 C 0.5616 0.50108 0.92139 0.0
C124 C 0.57373 0.49906 0.93824 0.0
C125 C 0.56962 0.48392 0.95152 0.0
H126 H 0.67981 0.24821 0.26497 0.0
H127 H 0.7317 0.21745 0.28294 0.0
H128 H 0.7044 0.20457 0.22633 0.0
C129 C 0.69105 0.23751 0.26192 0.0
C130 C 0.69067 0.22723 0.24372 0.0
C131 C 0.70561 0.23384 0.27631 0.0
C132 C 0.72006 0.21991 0.27215 0.0
C133 C 0.71974 0.20912 0.25427 0.0
C134 C 0.7051 0.21307 0.24 0.0
H135 H 0.40359 0.06903 0.99392 0.0
H136 H 0.45685 0.08078 0.96244 0.0
H137 H 0.42506 0.0263 0.9523 0.0
C138 C 0.41432 0.06461 0.98317 0.0
C139 C 0.41207 0.04631 0.97328 0.0
C140 C 0.43054 0.07708 0.9795 0.0
C141 C 0.44435 0.07125 0.96551 0.0
C142 C 0.44239 0.05298 0.95573 0.0
C143 C 0.42632 0.04056 0.95969 0.0
Zn144 Zn 0.27404 0.84143 0.99685 0.0
Zn145 Zn 0.24041 0.86055 0.0005 0.0
O146 O 0.24097 0.84289 0.02548 0.0
O147 O 0.26928 0.82796 0.02241 0.0
O148 O 0.21534 0.87618 0.00258 0.0
O149 O 0.28949 0.86696 0.99664 0.0
O150 O 0.26172 0.88274 7e-05 0.0
C151 C 0.25373 0.83083 0.03194 0.0
C152 C 0.24717 0.83285 0.96476 0.0
O153 O 0.23651 0.84511 0.97397 0.0
O154 O 0.26398 0.82855 0.97162 0.0
C155 C 0.21183 0.88646 0.01792 0.0
O156 O 0.2244 0.88626 0.03289 0.0
C157 C 0.28039 0.883 -0.00159 0.0
Zn158 Zn 0.10171 0.43939 0.2875 0.0
Zn159 Zn 0.12028 0.47404 0.28207 0.0
O160 O 0.1029 0.48014 0.30603 0.0
O161 O 0.08936 0.45108 0.31159 0.0
O162 O 0.13534 0.49936 0.27747 0.0
O163 O 0.12767 0.42571 0.29019 0.0
O164 O 0.14261 0.45451 0.28736 0.0
C165 C 0.09175 0.46913 0.31622 0.0
C166 C 0.09223 0.45636 0.25009 0.0
O167 O 0.10473 0.46949 0.25596 0.0
O168 O 0.08801 0.442 0.26103 0.0
C169 C 0.12703 0.51549 0.27345 0.0
O170 O 0.10772 0.51602 0.27257 0.0
C171 C 0.14339 0.43599 0.29004 0.0
Zn172 Zn 0.79244 0.61774 0.94945 0.0
Zn173 Zn 0.78561 0.63272 0.9854 0.0
O174 O 0.80642 0.61179 0.99136 0.0
O175 O 0.81054 0.5981 0.96206 0.0
O176 O 0.78073 0.64556 0.01179 0.0
O177 O 0.80258 0.64409 0.94038 0.0
O178 O 0.79536 0.65643 0.96948 0.0
C179 C 0.81439 0.59886 0.98041 0.0
C180 C 0.7521 0.61327 0.96054 0.0
O181 O 0.75845 0.6211 0.97672 0.0
O182 O 0.76366 0.61085 0.94632 0.0
C183 C 0.7754 0.63642 0.02706 0.0
O184 O 0.77274 0.6172 0.02607 0.0
C185 C 0.80176 0.65873 0.95211 0.0
Zn186 Zn 0.8549 0.00825 0.27759 0.0
Zn187 Zn 0.87206 0.00906 0.24279 0.0
O188 O 0.85527 0.03457 0.24299 0.0
O189 O 0.84036 0.03281 0.27144 0.0
O190 O 0.88633 0.01006 0.21685 0.0
O191 O 0.88091 0.01055 0.29194 0.0
O192 O 0.89527 0.00833 0.26317 0.0
C193 C 0.84339 0.0417 0.25549 0.0
C194 C 0.84554 0.9739 0.25359 0.0
O195 O 0.85588 0.98293 0.24096 0.0
O196 O 0.8432 0.9815 0.27054 0.0
C197 C 0.89531 0.02576 0.2119 0.0
O198 O 0.89469 0.04136 0.22359 0.0
C199 C 0.89638 0.00955 0.28195 0.0
Zn200 Zn 0.28773 0.09625 0.45862 0.0
Zn201 Zn 0.28229 0.11353 0.49384 0.0
O202 O 0.30301 0.09276 0.50066 0.0
O203 O 0.30571 0.07709 0.47214 0.0
O204 O 0.27792 0.12806 0.51944 0.0
O205 O 0.29852 0.12168 0.44783 0.0
O206 O 0.29216 0.13596 0.47628 0.0
C207 C 0.31029 0.07897 0.49028 0.0
C208 C 0.24782 0.09301 0.47114 0.0
O209 O 0.25488 0.10167 0.4866 0.0
O210 O 0.25875 0.08971 0.45659 0.0
C211 C 0.27308 0.11981 0.53537 0.0
O212 O 0.27084 0.10055 0.53563 0.0
C213 C 0.29836 0.137 0.45871 0.0
Zn214 Zn 0.34616 0.49994 0.77612 0.0
Zn215 Zn 0.36244 0.50092 0.74066 0.0
O216 O 0.346 0.52654 0.74155 0.0
O217 O 0.33183 0.52485 0.7704 0.0
O218 O 0.37593 0.50192 0.7143 0.0
O219 O 0.37275 0.502 0.78951 0.0
O220 O 0.38623 0.50047 0.76025 0.0
C221 C 0.3346 0.53379 0.75443 0.0
C222 C 0.33582 0.4659 0.75197 0.0
O223 O 0.34601 0.47492 0.73921 0.0
O224 O 0.33394 0.47339 0.76905 0.0
C225 C 0.38535 0.51745 0.70957 0.0
O226 O 0.38556 0.53273 0.72172 0.0
C227 C 0.38791 0.50147 0.77901 0.0
Zn228 Zn 0.76164 0.33452 0.49683 0.0
Zn229 Zn 0.73162 0.35831 0.49965 0.0
O230 O 0.73136 0.34342 0.52644 0.0
O231 O 0.75796 0.32551 0.5244 0.0
O232 O 0.70897 0.37722 0.50155 0.0
O233 O 0.78011 0.35722 0.49196 0.0
O234 O 0.75553 0.37735 0.49646 0.0
C235 C 0.74335 0.33127 0.53408 0.0
C236 C 0.73274 0.32637 0.46675 0.0
O237 O 0.72468 0.34144 0.47443 0.0
O238 O 0.74849 0.31983 0.47421 0.0
C239 C 0.6915 0.37165 0.50532 0.0
O240 O 0.68784 0.35285 0.50818 0.0
C241 C 0.77371 0.37459 0.49316 0.0
Zn242 Zn 0.60054 0.94802 0.7954 0.0
Zn243 Zn 0.61421 0.98388 0.78551 0.0
O244 O 0.59458 0.9908 0.80725 0.0
O245 O 0.58212 0.96153 0.81408 0.0
O246 O 0.62667 0.00982 0.77812 0.0
O247 O 0.6277 0.93988 0.80427 0.0
O248 O 0.63863 0.96879 0.79469 0.0
C249 C 0.58258 0.98006 0.81674 0.0
C250 C 0.59311 0.95694 0.75464 0.0
O251 O 0.60103 0.9735 0.75961 0.0
O252 O 0.59171 0.94335 0.76715 0.0
C253 C 0.61769 0.02556 0.77405 0.0
O254 O 0.59838 0.02572 0.77451 0.0
C255 C 0.64188 0.95187 0.80184 0.0
Zn256 Zn 0.99292 0.27788 0.83872 0.0
Zn257 Zn 0.99593 0.24573 0.86006 0.0
O258 O 0.02092 0.24502 0.84277 0.0
O259 O 0.01769 0.27146 0.82469 0.0
O260 O -0.00129 0.22202 0.87769 0.0
O261 O 0.99443 0.2954 0.86272 0.0
O262 O 0.99595 0.26874 0.88068 0.0
C263 C 0.02734 0.25642 0.82944 0.0
C264 C 0.9595 0.25193 0.83317 0.0
O265 O 0.96913 0.24105 0.84502 0.0
O266 O 0.9666 0.26847 0.82828 0.0
C267 C 0.00363 0.20499 0.87163 0.0
O268 O 0.00678 0.20212 0.85275 0.0
C269 C 0.99551 0.28748 0.87946 0.0
Zn270 Zn 0.49827 0.77364 0.33472 0.0
Zn271 Zn 0.50218 0.7404 0.35398 0.0
O272 O 0.52824 0.74279 0.33842 0.0
O273 O 0.52469 0.77063 0.32264 0.0
O274 O 0.50573 0.71531 0.3694 0.0
O275 O 0.496 0.78901 0.35993 0.0
O276 O 0.49918 0.76148 0.37629 0.0
C277 C 0.53491 0.75579 0.32676 0.0
C278 C 0.46743 0.74597 0.3246 0.0
O279 O 0.47674 0.73521 0.3368 0.0
O280 O 0.47385 0.76314 0.32103 0.0
C281 C 0.49138 0.70715 0.37809 0.0
O282 O 0.47387 0.71496 0.37654 0.0
C283 C 0.49685 0.78011 0.37617 0.0
Zn284 Zn 0.94316 0.77651 0.60187 0.0
Zn285 Zn 0.97913 0.77071 0.61845 0.0
O286 O 0.9851 0.79224 0.59835 0.0
O287 O 0.95584 0.79744 0.58505 0.0
O288 O 0.00498 0.76618 0.63253 0.0
O289 O 0.93247 0.78412 0.62846 0.0
O290 O 0.96194 0.77965 0.64144 0.0
C291 C 0.97413 0.80141 0.58624 0.0
C292 C 0.95699 0.73688 0.5964 0.0
O293 O 0.972 0.74366 0.60601 0.0
O294 O 0.94255 0.74793 0.5928 0.0
C295 C 0.02103 0.76247 0.62405 0.0
O296 O 0.02134 0.76156 0.60468 0.0
C297 C 0.94402 0.78439 0.64335 0.0
Zn298 Zn 0.45282 0.30161 0.09595 0.0
Zn299 Zn 0.48818 0.28953 0.10979 0.0
O300 O 0.49615 0.31301 0.09254 0.0
O301 O 0.46738 0.32245 0.08087 0.0
O302 O 0.51341 0.28039 0.12248 0.0
O303 O 0.44405 0.30792 0.12357 0.0
O304 O 0.47232 0.29645 0.13438 0.0
C305 C 0.48594 0.3245 0.08189 0.0
C306 C 0.46166 0.26146 0.08481 0.0
O307 O 0.47782 0.26535 0.09401 0.0
O308 O 0.44836 0.2743 0.08387 0.0
C309 C 0.52989 0.27827 0.11423 0.0
O310 O 0.53148 0.28223 0.09541 0.0
C311 C 0.45556 0.30376 0.13775 0.0
C312 C 0.20699 0.76515 0.79909 0.0
C313 C 0.21217 0.7452 0.79744 0.0
C314 C 0.20846 0.77519 0.81727 0.0
C315 C 0.21392 0.76634 0.87138 0.0
H316 H 0.23079 0.82123 0.87339 0.0
C317 C 0.24772 0.80491 0.94048 0.0
C318 C 0.24012 0.82324 0.94613 0.0
C319 C 0.24184 0.79587 0.92266 0.0
C320 C 0.22581 0.80598 0.873 0.0
H321 H 0.22285 0.72023 0.81391 0.0
H322 H 0.22648 0.73791 0.84512 0.0
H323 H 0.22594 0.8045 0.84148 0.0
H324 H 0.22036 0.84647 0.93756 0.0
H325 H 0.21048 0.83079 0.90586 0.0
H326 H 0.21483 0.76767 0.90299 0.0
C327 C 0.22073 0.74574 0.83253 0.0
C328 C 0.22298 0.79636 0.85472 0.0
C329 C 0.21901 0.73565 0.81444 0.0
C330 C 0.22639 0.83232 0.9336 0.0
C331 C 0.22081 0.82342 0.91548 0.0
C332 C 0.21707 0.77587 0.88961 0.0
C333 C 0.21537 0.76563 0.83426 0.0
C334 C 0.21725 0.7763 0.85366 0.0
C335 C 0.22851 0.8051 0.90989 0.0
C336 C 0.22327 0.79569 0.89059 0.0
H337 H 0.20191 0.77312 0.78631 0.0
H338 H 0.20398 0.79041 0.81799 0.0
H339 H 0.20899 0.75108 0.87123 0.0
H340 H 0.25825 0.79751 0.94986 0.0
H341 H 0.2481 0.78183 0.91863 0.0
C342 C 0.98276 0.54028 0.44053 0.0
C343 C 0.974 0.52544 0.45185 0.0
C344 C 0.99666 0.53551 0.42634 0.0
C345 C 0.01149 0.4939 0.39511 0.0
H346 H 0.05995 0.52382 0.38825 0.0
C347 C 0.07168 0.46419 0.34614 0.0
C348 C 0.0808 0.47719 0.33309 0.0
C349 C 0.05976 0.47128 0.36104 0.0
C350 C 0.04637 0.51547 0.38986 0.0
H351 H 0.97368 0.49412 0.45781 0.0
H352 H -0.00226 0.48583 0.43303 0.0
H353 H 0.03687 0.53406 0.41362 0.0
H354 H 0.08519 0.50797 0.32595 0.0
H355 H 0.064 0.52044 0.35202 0.0
H356 H 0.02073 0.47539 0.37143 0.0
C357 C 0.99362 0.50109 0.43485 0.0
C358 C 0.03318 0.52131 0.40437 0.0
C359 C 0.97981 0.50584 0.44903 0.0
C360 C 0.07834 0.49759 0.33577 0.0
C361 C 0.06626 0.50472 0.35072 0.0
C362 C 0.02456 0.48813 0.38064 0.0
C363 C 0.002 0.51582 0.42316 0.0
C364 C 0.01574 0.51039 0.40732 0.0
C365 C 0.05649 0.49157 0.36322 0.0
C366 C 0.0423 0.49863 0.37803 0.0
H367 H 0.97848 0.5555 0.44225 0.0
H368 H 0.00278 0.54715 0.41746 0.0
H369 H -0.00205 0.48546 0.39669 0.0
H370 H 0.07348 0.44841 0.3447 0.0
H371 H 0.05289 0.46079 0.37074 0.0
C372 C 0.85218 0.81579 0.88184 0.0
C373 C 0.83681 0.82512 0.87162 0.0
C374 C 0.8482 0.79982 0.89403 0.0
C375 C 0.8119 0.75996 0.89685 0.0
H376 H 0.83853 0.74722 0.94604 0.0
C377 C 0.81246 0.68127 0.92542 0.0
C378 C 0.80741 0.67859 0.94521 0.0
C379 C 0.81645 0.70007 0.91838 0.0
C380 C 0.83091 0.75069 0.93237 0.0
H381 H 0.8051 0.82557 0.86709 0.0
H382 H 0.7982 0.79817 0.88863 0.0
H383 H 0.84404 0.77966 0.93135 0.0
H384 H 0.80334 0.69356 0.97333 0.0
H385 H 0.81047 0.72656 0.96091 0.0
H386 H 0.79895 0.73108 0.89762 0.0
C387 C 0.81335 0.80303 0.88703 0.0
C388 C 0.83414 0.76915 0.92394 0.0
C389 C 0.81731 0.81893 0.87486 0.0
C390 C 0.80711 0.69513 0.95798 0.0
C391 C 0.81127 0.714 0.95092 0.0
C392 C 0.80882 0.74155 0.90515 0.0
C393 C 0.82877 0.79287 0.89618 0.0
C394 C 0.82471 0.77391 0.90603 0.0
C395 C 0.81561 0.71665 0.93096 0.0
C396 C 0.81843 0.73663 0.92287 0.0
H397 H 0.86735 0.82035 0.8798 0.0
H398 H 0.86039 0.79225 0.90087 0.0
H399 H 0.80463 0.76306 0.8829 0.0
H400 H 0.81294 0.66887 0.91519 0.0
H401 H 0.82006 0.70166 0.90298 0.0
C402 C 0.02436 0.96439 0.39935 0.0
C403 C 0.02728 0.97921 0.41383 0.0
C404 C 0.01345 0.96812 0.38214 0.0
C405 C 0.99129 0.00937 0.35338 0.0
H406 H 0.95732 0.96751 0.3319 0.0
C407 C 0.91838 0.01957 0.31021 0.0
C408 C 0.9155 0.00878 0.29252 0.0
C409 C 0.93523 0.01695 0.32189 0.0
C410 C 0.96699 0.97923 0.33755 0.0
H411 H 0.02101 0.00938 0.42194 0.0
H412 H 0.00116 0.01568 0.39253 0.0
H413 H 0.98012 0.96057 0.35897 0.0
H414 H 0.9281 0.98717 0.27284 0.0
H415 H 0.95744 0.98198 0.29383 0.0
H416 H 0.97689 0.02828 0.33274 0.0
C417 C 0.00787 0.0014 0.39388 0.0
C418 C 0.98013 0.97529 0.35305 0.0
C419 C 0.0191 0.99778 0.41087 0.0
C420 C 0.9301 0.99577 0.28635 0.0
C421 C 0.94676 0.99275 0.29835 0.0
C422 C 0.97785 0.01338 0.33816 0.0
C423 C 0.00488 0.98664 0.37923 0.0
C424 C 0.99223 0.99039 0.36146 0.0
C425 C 0.94928 0.00313 0.31634 0.0
C426 C 0.9654 -0.00159 0.33034 0.0
H427 H 0.03073 0.95 0.40127 0.0
H428 H 0.01183 0.95647 0.37111 0.0
H429 H 0.0007 0.02128 0.35902 0.0
H430 H 0.90732 0.02968 0.31527 0.0
H431 H 0.93679 0.025 0.33578 0.0
C432 C 0.24152 0.24018 0.6661 0.0
C433 C 0.23628 0.23307 0.68468 0.0
C434 C 0.24638 0.22717 0.65087 0.0
C435 C 0.2396 0.17581 0.63361 0.0
H436 H 0.28339 0.18856 0.60002 0.0
C437 C 0.26478 0.12315 0.57121 0.0
C438 C 0.26975 0.13196 0.55331 0.0
C439 C 0.26147 0.13477 0.58802 0.0
C440 C 0.271 0.18486 0.60914 0.0
H441 H 0.2323 0.20663 0.70184 0.0
H442 H 0.24064 0.18388 0.67513 0.0
H443 H 0.27617 0.21015 0.6279 0.0
H444 H 0.27508 0.15991 0.53905 0.0
H445 H 0.26907 0.18008 0.56817 0.0
H446 H 0.23425 0.15067 0.61466 0.0
C447 C 0.2408 0.19955 0.67235 0.0
C448 C 0.26688 0.19723 0.62514 0.0
C449 C 0.23601 0.21259 0.68764 0.0
C450 C 0.27137 0.15261 0.55261 0.0
C451 C 0.26804 0.1642 0.56937 0.0
C452 C 0.24369 0.16344 0.61756 0.0
C453 C 0.24607 0.20671 0.6538 0.0
C454 C 0.25101 0.19297 0.63743 0.0
C455 C 0.26306 0.15544 0.58729 0.0
C456 C 0.25931 0.16795 0.605 0.0
H457 H 0.24152 0.25582 0.66318 0.0
H458 H 0.25004 0.23313 0.63665 0.0
H459 H 0.22715 0.17223 0.64269 0.0
H460 H 0.26346 0.10728 0.57227 0.0
H461 H 0.25786 0.12755 0.60165 0.0
C462 C 0.49085 0.54228 0.56697 0.0
C463 C 0.49538 0.5253 0.55594 0.0
C464 C 0.47835 0.5411 0.58306 0.0
C465 C 0.45747 0.50566 0.61856 0.0
H466 H 0.42067 0.54759 0.62828 0.0
C467 C 0.39877 0.5011 0.67925 0.0
C468 C 0.39662 0.51812 0.69106 0.0
C469 C 0.41012 0.50167 0.66225 0.0
C470 C 0.43097 0.53583 0.62585 0.0
H471 H 0.49011 0.49379 0.55304 0.0
H472 H 0.46813 0.49173 0.58098 0.0
H473 H 0.44179 0.54909 0.59968 0.0
H474 H 0.4045 0.54916 0.69406 0.0
H475 H 0.42422 0.55013 0.66446 0.0
H476 H 0.44653 0.49239 0.64473 0.0
C477 C 0.47453 0.50593 0.57744 0.0
C478 C 0.44313 0.5367 0.60947 0.0
C479 C 0.48711 0.5071 0.56139 0.0
C480 C 0.40583 0.53577 0.68531 0.0
C481 C 0.41705 0.53637 0.66826 0.0
C482 C 0.44523 0.50475 0.63489 0.0
C483 C 0.46998 0.52292 0.5885 0.0
C484 C 0.45665 0.5217 0.60567 0.0
C485 C 0.41945 0.5193 0.65659 0.0
C486 C 0.43193 0.51989 0.63881 0.0
H487 H 0.49722 0.55647 0.56334 0.0
H488 H 0.4755 0.55443 0.59143 0.0
H489 H 0.46789 0.49398 0.61629 0.0
H490 H 0.39187 0.48727 0.68324 0.0
H491 H 0.41151 0.48832 0.65346 0.0
C492 C 0.72697 0.24357 0.69078 0.0
C493 C 0.74584 0.23647 0.69531 0.0
C494 C 0.72405 0.25628 0.67491 0.0
C495 C 0.75131 0.29089 0.64349 0.0
H496 H 0.70943 0.28121 0.60467 0.0
C497 C 0.72273 0.32415 0.56387 0.0
C498 C 0.74093 0.32387 0.55435 0.0
C499 C 0.72086 0.31599 0.58269 0.0
C500 C 0.72095 0.28435 0.6156 0.0
H501 H 0.77625 0.23655 0.68612 0.0
H502 H 0.77122 0.25873 0.6588 0.0
H503 H 0.71073 0.2616 0.63473 0.0
H504 H 0.77149 0.31536 0.55735 0.0
H505 H 0.76826 0.30151 0.58983 0.0
H506 H 0.76194 0.31312 0.62419 0.0
C507 C 0.75873 0.25485 0.66772 0.0
C508 C 0.72172 0.27311 0.63277 0.0
C509 C 0.76162 0.24212 0.68343 0.0
C510 C 0.75722 0.31576 0.56418 0.0
C511 C 0.75542 0.30794 0.58292 0.0
C512 C 0.75053 0.30207 0.62642 0.0
C513 C 0.73997 0.26221 0.66335 0.0
C514 C 0.73731 0.27584 0.64657 0.0
C515 C 0.73725 0.30784 0.59238 0.0
C516 C 0.73574 0.29849 0.61197 0.0
H517 H 0.71452 0.2396 0.69971 0.0
H518 H 0.70943 0.26174 0.67191 0.0
H519 H 0.76323 0.29368 0.65407 0.0
H520 H 0.70992 0.33025 0.55664 0.0
H521 H 0.70667 0.3161 0.58968 0.0
C522 C 0.5161 0.92956 0.59017 0.0
C523 C 0.49549 0.93047 0.59099 0.0
C524 C 0.52771 0.93204 0.60732 0.0
C525 C 0.52542 0.92935 0.66153 0.0
H526 H 0.57284 0.96195 0.66096 0.0
C527 C 0.57769 0.93468 0.72879 0.0
C528 C 0.58463 0.95359 0.73455 0.0
C529 C 0.56822 0.93156 0.71056 0.0
C530 C 0.55959 0.95288 0.66136 0.0
H531 H 0.47087 0.93425 0.61048 0.0
H532 H 0.49109 0.93883 0.64031 0.0
H533 H 0.55314 0.95706 0.63066 0.0
H534 H 0.58765 0.98393 0.72532 0.0
H535 H 0.57082 0.97849 0.69343 0.0
H536 H 0.53151 0.92551 0.69225 0.0
C537 C 0.49831 0.93609 0.62646 0.0
C538 C 0.54843 0.94991 0.64397 0.0
C539 C 0.48673 0.93365 0.60934 0.0
C540 C 0.58247 0.96919 0.72133 0.0
C541 C 0.5729 0.96606 0.70303 0.0
C542 C 0.53656 0.93229 0.67886 0.0
C543 C 0.51894 0.93538 0.62565 0.0
C544 C 0.53116 0.93817 0.6439 0.0
C545 C 0.56535 0.94727 0.69762 0.0
C546 C 0.55376 0.9441 0.679 0.0
H547 H 0.52328 0.92731 0.57622 0.0
H548 H 0.54356 0.93123 0.60624 0.0
H549 H 0.51232 0.92006 0.66194 0.0
H550 H 0.5793 0.92226 0.7385 0.0
H551 H 0.56296 0.91683 0.70666 0.0
C552 C 0.79988 0.19876 0.75761 0.0
C553 C 0.78911 0.2153 0.75172 0.0
C554 C 0.81808 0.20112 0.7675 0.0
C555 C 0.85934 0.23601 0.77194 0.0
H556 H 0.87419 0.20877 0.81972 0.0
C557 C 0.92779 0.26013 0.81645 0.0
C558 C 0.93982 0.24588 0.82514 0.0
C559 C 0.90951 0.25493 0.80813 0.0
C560 C 0.87038 0.21626 0.80621 0.0
H561 H 0.78867 0.24727 0.75266 0.0
H562 H 0.82056 0.25132 0.76938 0.0
H563 H 0.84175 0.20234 0.80423 0.0
H564 H 0.9418 0.21495 0.83225 0.0
H565 H 0.90977 0.20566 0.81716 0.0
H566 H 0.88782 0.2497 0.7735 0.0
C567 C 0.81498 0.23654 0.76616 0.0
C568 C 0.85179 0.21262 0.79741 0.0
C569 C 0.79673 0.23421 0.7565 0.0
C570 C 0.93289 0.22625 0.82564 0.0
C571 C 0.91452 0.22097 0.81706 0.0
C572 C 0.8779 0.23946 0.78056 0.0
C573 C 0.82597 0.22005 0.7715 0.0
C574 C 0.84598 0.22279 0.78041 0.0
C575 C 0.90274 0.23525 0.80796 0.0
C576 C 0.88354 0.23 0.79805 0.0
H577 H 0.79459 0.18397 0.754 0.0
H578 H 0.8263 0.18815 0.77136 0.0
H579 H 0.85542 0.24372 0.75859 0.0
H580 H 0.93247 0.27546 0.81609 0.0
H581 H 0.90065 0.26645 0.80183 0.0
C582 C 0.47892 0.90296 0.50531 0.0
C583 C 0.47947 0.89791 0.52533 0.0
C584 C 0.48092 0.88857 0.49063 0.0
C585 C 0.4987 0.83873 0.48003 0.0
H586 H 0.46226 0.84192 0.43548 0.0
C587 C 0.49618 0.78281 0.41336 0.0
C588 C 0.49488 0.79166 0.39475 0.0
C589 C 0.49399 0.79413 0.43066 0.0
C590 C 0.4726 0.84086 0.44777 0.0
H591 H 0.48328 0.87384 0.54564 0.0
H592 H 0.48697 0.84857 0.51981 0.0
H593 H 0.4596 0.86492 0.46313 0.0
H594 H 0.49053 0.81941 0.37984 0.0
H595 H 0.48684 0.83888 0.40969 0.0
H596 H 0.51189 0.81478 0.46433 0.0
C597 C 0.48496 0.86374 0.51558 0.0
C598 C 0.47109 0.85406 0.4636 0.0
C599 C 0.48288 0.8782 0.53034 0.0
C600 C 0.49151 0.81201 0.39386 0.0
C601 C 0.48926 0.82321 0.41101 0.0
C602 C 0.50023 0.82547 0.46409 0.0
C603 C 0.4836 0.86875 0.49556 0.0
C604 C 0.4844 0.85347 0.47969 0.0
C605 C 0.4903 0.81443 0.4296 0.0
C606 C 0.48748 0.82674 0.44759 0.0
H607 H 0.47678 0.91808 0.50097 0.0
H608 H 0.4803 0.89297 0.47534 0.0
H609 H 0.50915 0.83794 0.49225 0.0
H610 H 0.4988 0.76717 0.41456 0.0
H611 H 0.49484 0.78697 0.44481 0.0
C612 C 0.19272 0.2571 0.76051 0.0
C613 C 0.19215 0.25199 0.74032 0.0
C614 C 0.17608 0.25451 0.77203 0.0
C615 C 0.12707 0.2298 0.77398 0.0
H616 H 0.11363 0.27583 0.8052 0.0
C617 C 0.05462 0.26774 0.80807 0.0
C618 C 0.04655 0.25305 0.82005 0.0
C619 C 0.07309 0.26552 0.79988 0.0
C620 C 0.11724 0.26282 0.79664 0.0
H621 H 0.17372 0.23963 0.71658 0.0
H622 H 0.14471 0.23504 0.73673 0.0
H623 H 0.14488 0.27524 0.78826 0.0
H624 H 0.05147 0.2242 0.83238 0.0
H625 H 0.08395 0.22019 0.8176 0.0
H626 H 0.099 0.21769 0.78206 0.0
C627 C 0.15811 0.24087 0.74367 0.0
C628 C 0.13521 0.2624 0.78706 0.0
C629 C 0.17475 0.24353 0.73212 0.0
C630 C 0.0573 0.2358 0.82326 0.0
C631 C 0.07582 0.23348 0.81479 0.0
C632 C 0.1091 0.23015 0.78376 0.0
C633 C 0.15848 0.24669 0.76367 0.0
C634 C 0.14019 0.24606 0.77532 0.0
C635 C 0.08398 0.2485 0.80327 0.0
C636 C 0.10385 0.24686 0.79481 0.0
H637 H 0.206 0.26328 0.7674 0.0
H638 H 0.17691 0.25887 0.78747 0.0
H639 H 0.13058 0.21694 0.76516 0.0
H640 H 0.04681 0.28122 0.80522 0.0
H641 H 0.07887 0.2772 0.79081 0.0
C642 C 0.53297 0.56919 0.48653 0.0
C643 C 0.51656 0.55942 0.49442 0.0
C644 C 0.5305 0.5847 0.47337 0.0
C645 C 0.49453 0.62197 0.45822 0.0
H646 H 0.52657 0.62656 0.41178 0.0
C647 C 0.47836 0.67983 0.39891 0.0
C648 C 0.49446 0.68953 0.3904 0.0
C649 C 0.48122 0.66362 0.41107 0.0
C650 C 0.51765 0.62565 0.4248 0.0
H651 H 0.48463 0.55798 0.49405 0.0
H652 H 0.48035 0.5851 0.47133 0.0
H653 H 0.53139 0.59901 0.434 0.0
H654 H 0.52622 0.68964 0.38791 0.0
H655 H 0.53125 0.66159 0.40938 0.0
H656 H 0.48093 0.64865 0.44925 0.0
C657 C 0.49515 0.58095 0.47555 0.0
C658 C 0.52041 0.60983 0.43753 0.0
C659 C 0.49762 0.56541 0.48861 0.0
C660 C 0.51348 0.68248 0.39417 0.0
C661 C 0.51635 0.66631 0.40641 0.0
C662 C 0.49184 0.63781 0.44557 0.0
C663 C 0.51155 0.59087 0.46785 0.0
C664 C 0.50882 0.60776 0.45435 0.0
C665 C 0.50026 0.65673 0.41513 0.0
C666 C 0.5033 0.63984 0.42864 0.0
H667 H 0.54777 0.56514 0.49085 0.0
H668 H 0.54344 0.59216 0.46787 0.0
H669 H 0.48559 0.62101 0.47123 0.0
H670 H 0.46349 0.68476 0.39623 0.0
H671 H 0.46844 0.65642 0.4172 0.0
C672 C 0.87046 0.81951 0.80345 0.0
C673 C 0.86986 0.83967 0.80849 0.0
C674 C 0.88053 0.81312 0.78687 0.0
C675 C 0.88878 0.8062 0.74383 0.0
H676 H 0.93884 0.82799 0.72739 0.0
C677 C 0.91668 0.79487 0.66515 0.0
C678 C 0.93664 0.79041 0.66291 0.0
C679 C 0.90962 0.80063 0.68351 0.0
C680 C 0.92493 0.82166 0.73188 0.0
H681 H 0.88009 0.86884 0.80048 0.0
H682 H 0.89745 0.85768 0.7712 0.0
H683 H 0.92536 0.83828 0.75907 0.0
H684 H 0.96486 0.78862 0.67826 0.0
H685 H 0.95244 0.79862 0.71042 0.0
H686 H 0.88831 0.78953 0.7168 0.0
C687 C 0.89025 0.84682 0.78025 0.0
C688 C 0.91713 0.82768 0.74991 0.0
C689 C 0.88017 0.85323 0.7969 0.0
C690 C 0.94941 0.79193 0.67948 0.0
C691 C 0.94232 0.79777 0.69787 0.0
C692 C 0.89652 0.80025 0.72584 0.0
C693 C 0.89016 0.82673 0.77483 0.0
C694 C 0.89894 0.82004 0.75604 0.0
C695 C 0.92233 0.8021 0.70008 0.0
C696 C 0.9146 0.808 0.71958 0.0
H697 H 0.86246 0.80865 0.81183 0.0
H698 H 0.88041 0.79752 0.78325 0.0
H699 H 0.87461 0.80021 0.74798 0.0
H700 H 0.90644 0.79394 0.6527 0.0
H701 H 0.8942 0.80413 0.68467 0.0
C702 C 0.03434 0.92091 0.46717 0.0
C703 C 0.03838 0.93992 0.47488 0.0
C704 C 0.02863 0.90568 0.47961 0.0
C705 C 0.00503 0.89706 0.52678 0.0
H706 H 0.02708 0.84483 0.52261 0.0
C707 C 0.00296 0.81962 0.57205 0.0
C708 C 0.98249 0.81696 0.57366 0.0
C709 C 0.01064 0.83444 0.56013 0.0
C710 C 0.0209 0.85938 0.524 0.0
H711 H 0.03951 0.95794 0.50157 0.0
H712 H 0.02947 0.93137 0.52327 0.0
H713 H 0.03916 0.87114 0.50143 0.0
H714 H 0.95407 0.82782 0.56403 0.0
H715 H 0.96747 0.85368 0.54349 0.0
H716 H 0.98666 0.88533 0.5492 0.0
C717 C 0.03075 0.92824 0.50763 0.0
C718 C 0.02767 0.87437 0.51179 0.0
C719 C 0.03664 0.9434 0.49525 0.0
C720 C 0.9699 0.82944 0.56313 0.0
C721 C 0.97756 0.84434 0.55144 0.0
C722 C -0.00188 0.88205 0.53881 0.0
C723 C 0.02664 0.90924 0.49994 0.0
C724 C 0.01977 0.89334 0.51304 0.0
C725 C -0.00201 0.84703 0.54984 0.0
C726 C 0.00591 0.86305 0.5375 0.0
H727 H 0.0357 0.91779 0.45154 0.0
H728 H 0.0254 0.89121 0.47326 0.0
H729 H -0.00144 0.9115 0.52797 0.0
H730 H 0.01305 0.81022 0.57993 0.0
H731 H 0.02646 0.83628 0.55923 0.0
C732 C 0.15583 0.73366 0.74188 0.0
C733 C 0.1746 0.73076 0.73409 0.0
C734 C 0.13972 0.73732 0.72944 0.0
C735 C 0.12156 0.73148 0.67807 0.0
H736 H 0.08486 0.77176 0.69348 0.0
C737 C 0.0572 0.75568 0.62701 0.0
C738 C 0.0391 0.75909 0.63603 0.0
C739 C 0.07418 0.75251 0.63846 0.0
C740 C 0.09484 0.76032 0.68905 0.0
H741 H 0.19111 0.72948 0.70706 0.0
H742 H 0.1629 0.73574 0.68532 0.0
H743 H 0.11355 0.76554 0.71441 0.0
H744 H 0.02465 0.76167 0.66419 0.0
H745 H 0.05408 0.7559 0.68406 0.0
H746 H 0.10272 0.72612 0.65279 0.0
C747 C 0.16066 0.73502 0.70106 0.0
C748 C 0.1113 0.75676 0.70104 0.0
C749 C 0.17681 0.73142 0.71352 0.0
C750 C 0.03836 0.7592 0.65674 0.0
C751 C 0.05528 0.75601 0.66816 0.0
C752 C 0.10504 0.73499 0.66607 0.0
C753 C 0.14195 0.73811 0.7089 0.0
C754 C 0.12478 0.74221 0.69578 0.0
C755 C 0.07343 0.75268 0.65919 0.0
C756 C 0.0914 0.74936 0.6715 0.0
H757 H 0.15351 0.73286 0.7576 0.0
H758 H 0.12543 0.73929 0.73592 0.0
H759 H 0.13157 0.72003 0.6737 0.0
H760 H 0.05829 0.75553 0.61109 0.0
H761 H 0.08796 0.75019 0.63108 0.0
C762 C 0.94273 0.56895 0.52507 0.0
C763 C 0.94781 0.56939 0.50507 0.0
C764 C 0.94472 0.58591 0.53698 0.0
C765 C 0.93835 0.62712 0.55418 0.0
H766 H 0.98377 0.66194 0.54908 0.0
C767 C 0.93918 0.7083 0.58003 0.0
C768 C 0.95647 0.71626 0.58891 0.0
C769 C 0.9388 0.68921 0.57205 0.0
C770 C 0.97111 0.65226 0.55087 0.0
H771 H 0.95871 0.58808 0.48188 0.0
H772 H 0.96228 0.61755 0.50266 0.0
H773 H 0.98224 0.63064 0.53085 0.0
H774 H 0.98686 0.71019 0.59675 0.0
H775 H 0.98618 0.67677 0.58272 0.0
H776 H 0.92714 0.64884 0.57406 0.0
C777 C 0.95704 0.60404 0.50921 0.0
C778 C 0.97014 0.63445 0.54026 0.0
C779 C 0.95498 0.58714 0.49729 0.0
C780 C 0.97331 0.70452 0.58998 0.0
C781 C 0.97296 0.68542 0.58187 0.0
C782 C 0.93928 0.64499 0.56471 0.0
C783 C 0.95192 0.60363 0.52917 0.0
C784 C 0.95362 0.62182 0.54157 0.0
C785 C 0.95573 0.67763 0.57269 0.0
C786 C 0.95554 0.65789 0.56295 0.0
H787 H 0.93745 0.55545 0.5316 0.0
H788 H 0.94083 0.5851 0.55237 0.0
H789 H 0.92538 0.61776 0.55542 0.0
H790 H 0.92593 0.7169 0.57898 0.0
H791 H 0.92538 0.68373 0.56486 0.0
C792 C 0.76233 0.81279 0.24028 0.0
C793 C 0.75847 0.80512 0.22117 0.0
C794 C 0.77238 0.83078 0.24304 0.0
C795 C 0.80581 0.86615 0.21946 0.0
H796 H 0.78365 0.90352 0.25633 0.0
C797 C 0.83577 0.9466 0.22951 0.0
C798 C 0.83628 0.95441 0.24885 0.0
C799 C 0.82655 0.92832 0.22534 0.0
C800 C 0.79022 0.89319 0.24617 0.0
H801 H 0.76247 0.81037 0.18999 0.0
H802 H 0.78035 0.84161 0.19489 0.0
H803 H 0.76767 0.8715 0.2509 0.0
H804 H 0.82798 0.94882 0.27905 0.0
H805 H 0.81247 0.91704 0.2719 0.0
H806 H 0.82856 0.88777 0.21496 0.0
C807 C 0.77561 0.83361 0.2077 0.0
C808 C 0.78101 0.87484 0.24304 0.0
C809 C 0.76541 0.81567 0.20492 0.0
C810 C 0.82768 0.9434 0.26393 0.0
C811 C 0.81865 0.92517 0.2598 0.0
C812 C 0.81515 0.88451 0.22271 0.0
C813 C 0.77896 0.84148 0.22678 0.0
C814 C 0.78876 0.86106 0.22977 0.0
C815 C 0.81776 0.91745 0.24044 0.0
C816 C 0.80754 0.8982 0.23624 0.0
H817 H 0.75756 0.8049 0.25314 0.0
H818 H 0.77504 0.83633 0.25794 0.0
H819 H 0.81218 0.85577 0.20921 0.0
H820 H 0.84224 0.95472 0.21756 0.0
H821 H 0.82601 0.9229 0.21023 0.0
C822 C 0.73951 0.18099 0.26694 0.0
C823 C 0.73417 0.19312 0.25116 0.0
C824 C 0.75346 0.16638 0.26456 0.0
C825 C 0.77645 0.13386 0.22878 0.0
H826 H 0.81513 0.1286 0.27112 0.0
C827 C 0.83313 0.06971 0.23354 0.0
C828 C 0.83327 0.06057 0.25204 0.0
C829 C 0.82313 0.08746 0.23083 0.0
C830 C 0.80447 0.1299 0.25913 0.0
H831 H 0.73906 0.19893 0.22024 0.0
H832 H 0.76333 0.1729 0.216 0.0
H833 H 0.7934 0.15676 0.27107 0.0
H834 H 0.82314 0.06306 0.28217 0.0
H835 H 0.80605 0.09364 0.27745 0.0
H836 H 0.78719 0.10648 0.21728 0.0
C837 C 0.7567 0.17497 0.23026 0.0
C838 C 0.79201 0.146 0.25912 0.0
C839 C 0.74278 0.18981 0.23269 0.0
C840 C 0.82338 0.06961 0.2677 0.0
C841 C 0.81367 0.08728 0.26506 0.0
C842 C 0.78896 0.11763 0.22881 0.0
C843 C 0.76236 0.16331 0.24629 0.0
C844 C 0.77742 0.14782 0.24434 0.0
C845 C 0.81343 0.09647 0.24666 0.0
C846 C 0.80263 0.11517 0.24439 0.0
H847 H 0.73279 0.18267 0.28121 0.0
H848 H 0.75714 0.15729 0.27706 0.0
H849 H 0.76533 0.13491 0.21719 0.0
H850 H 0.84057 0.0631 0.22118 0.0
H851 H 0.82316 0.09424 0.21647 0.0
C852 C 0.38967 0.02943 0.99702 0.0
C853 C 0.39526 0.03283 0.9775 0.0
C854 C 0.37485 0.0156 0.00102 0.0
C855 C 0.35484 0.97546 0.00488 0.0
H856 H 0.3084 0.96774 0.97128 0.0
C857 C 0.31233 0.90181 -0.00062 0.0
C858 C 0.29166 0.90189 -0.00165 0.0
C859 C 0.32322 0.91938 -0.00122 0.0
C860 C 0.32115 0.96985 0.98096 0.0
H861 H 0.38907 0.02508 0.94684 0.0
H862 H 0.36341 0.00078 0.95381 0.0
H863 H 0.33005 0.99634 0.96653 0.0
H864 H 0.26619 0.92062 0.99605 0.0
H865 H 0.28536 0.95148 0.99483 0.0
H866 H 0.34614 0.94885 0.0191 0.0
C867 C 0.37038 0.00886 0.96604 0.0
C868 C 0.33366 0.98612 0.97812 0.0
C869 C 0.38524 0.02261 0.96205 0.0
C870 C 0.2821 0.92005 0.99687 0.0
C871 C 0.29306 0.9377 0.99609 0.0
C872 C 0.34241 0.95918 0.00765 0.0
C873 C 0.36523 0.00495 0.98559 0.0
C874 C 0.35083 0.9889 0.98982 0.0
C875 C 0.31375 0.93752 0.99701 0.0
C876 C 0.32564 0.95598 0.99547 0.0
H877 H 0.39719 0.03698 0.00926 0.0
H878 H 0.37109 0.01305 0.01623 0.0
H879 H 0.36801 0.97707 0.01405 0.0
H880 H 0.3202 0.88811 0.00055 0.0
H881 H 0.33914 0.91871 -0.00077 0.0
C882 C 0.30652 0.36506 0.32158 0.0
C883 C 0.30508 0.34526 0.32724 0.0
C884 C 0.28957 0.37593 0.31799 0.0
C885 C 0.23612 0.37614 0.32774 0.0
H886 H 0.23364 0.41083 0.28286 0.0
C887 C 0.16306 0.40634 0.29837 0.0
C888 C 0.16252 0.42642 0.29364 0.0
C889 C 0.18092 0.39734 0.3026 0.0
C890 C 0.23421 0.40137 0.29557 0.0
H891 H 0.28474 0.32121 0.33317 0.0
H892 H 0.25521 0.34007 0.32682 0.0
H893 H 0.26402 0.39346 0.29028 0.0
H894 H 0.18043 0.45271 0.28927 0.0
H895 H 0.21174 0.43687 0.29664 0.0
H896 H 0.20623 0.38378 0.33283 0.0
C897 C 0.26941 0.34738 0.32558 0.0
C898 C 0.25161 0.39144 0.29985 0.0
C899 C 0.28634 0.33655 0.32922 0.0
C900 C 0.18033 0.43722 0.29289 0.0
C901 C 0.19826 0.42815 0.29702 0.0
C902 C 0.21874 0.38598 0.32341 0.0
C903 C 0.2708 0.3672 0.31993 0.0
C904 C 0.25269 0.37854 0.31587 0.0
C905 C 0.19869 0.40817 0.30213 0.0
C906 C 0.21752 0.39853 0.30716 0.0
H907 H 0.32079 0.37218 0.32009 0.0
H908 H 0.29116 0.39123 0.3139 0.0
H909 H 0.23658 0.36665 0.34043 0.0
H910 H 0.14965 0.39754 0.29903 0.0
H911 H 0.18081 0.38184 0.30618 0.0
C912 C 0.10055 0.98849 0.46688 0.0
C913 C 0.08304 0.99716 0.46028 0.0
C914 C 0.11756 -4e-05 0.47022 0.0
C915 C 0.13668 0.05095 0.47758 0.0
H916 H 0.18374 0.0296 0.45461 0.0
C917 C 0.21963 0.07645 0.45302 0.0
C918 C 0.22726 0.08538 0.47045 0.0
C919 C 0.2012 0.06713 0.45272 0.0
C920 C 0.17071 0.03582 0.46102 0.0
H921 H 0.06941 0.02483 0.45289 0.0
H922 H 0.09929 0.04486 0.45845 0.0
H923 H 0.15326 0.01032 0.45318 0.0
H924 H 0.22104 0.09239 0.50101 0.0
H925 H 0.18865 0.07598 0.50045 0.0
H926 H 0.15429 0.07665 0.48512 0.0
C927 C 0.09979 0.02919 0.46114 0.0
C928 C 0.1533 0.02467 0.46042 0.0
C929 C 0.08275 0.01769 0.45774 0.0
C930 C 0.21559 0.08561 0.48736 0.0
C931 C 0.19704 0.07627 0.48703 0.0
C932 C 0.15422 0.06211 0.47829 0.0
C933 C 0.11747 0.02037 0.46704 0.0
C934 C 0.13606 0.03212 0.46858 0.0
C935 C 0.18991 0.0665 0.46983 0.0
C936 C 0.17134 0.05471 0.46981 0.0
H937 H 0.10131 0.97271 0.46884 0.0
H938 H 0.13091 0.99278 0.475 0.0
H939 H 0.12364 0.05702 0.48409 0.0
H940 H 0.2281 0.07618 0.43966 0.0
H941 H 0.1959 0.06009 0.43914 0.0
C942 C 0.70563 0.18031 0.73489 0.0
C943 C 0.72615 0.17798 0.73559 0.0
C944 C 0.69294 0.16429 0.73817 0.0
C945 C 0.69133 0.10979 0.73742 0.0
H946 H 0.64622 0.11575 0.77099 0.0
C947 C 0.64975 0.04297 0.76817 0.0
C948 C 0.62911 0.04349 0.76883 0.0
C949 C 0.66068 0.05972 0.76324 0.0
C950 C 0.6586 0.1139 0.76136 0.0
H951 H 0.7494 0.1569 0.74001 0.0
H952 H 0.72734 0.12911 0.74603 0.0
H953 H 0.66698 0.14444 0.76396 0.0
H954 H 0.60376 0.06211 0.76485 0.0
H955 H 0.62291 0.09142 0.75611 0.0
H956 H 0.68311 0.07929 0.73491 0.0
C957 C 0.72102 0.14327 0.7428 0.0
C958 C 0.6705 0.13034 0.75734 0.0
C959 C 0.73368 0.15926 0.73959 0.0
C960 C 0.61964 0.06121 0.76449 0.0
C961 C 0.63061 0.07803 0.75958 0.0
C962 C 0.67946 0.0934 0.74142 0.0
C963 C 0.7005 0.14556 0.7421 0.0
C964 C 0.68716 0.12841 0.74553 0.0
C965 C 0.65127 0.07744 0.75884 0.0
C966 C 0.66311 0.09519 0.75366 0.0
H967 H 0.69938 0.19458 0.73197 0.0
H968 H 0.6772 0.16651 0.73739 0.0
H969 H 0.70382 0.10787 0.72793 0.0
H970 H 0.65756 0.0296 0.7715 0.0
H971 H 0.67657 0.05883 0.76315 0.0
C972 C 0.42251 0.94903 0.53873 0.0
C973 C 0.43999 0.95512 0.54869 0.0
C974 C 0.40801 0.96261 0.53411 0.0
C975 C 0.38713 0.0098 0.54708 0.0
H976 H 0.37289 0.01235 0.49154 0.0
C977 C 0.33613 0.07011 0.51547 0.0
C978 C 0.32402 0.06483 0.49915 0.0
C979 C 0.35003 0.0569 0.52273 0.0
C980 C 0.37635 0.01165 0.50717 0.0
H981 H 0.45551 0.98034 0.56211 0.0
H982 H 0.42971 0.00388 0.55463 0.0
H983 H 0.39698 0.98864 0.50252 0.0
H984 H 0.31609 0.04129 0.47837 0.0
H985 H 0.33944 0.01804 0.49151 0.0
H986 H 0.36604 0.03238 0.55189 0.0
C987 C 0.42746 0.98856 0.55032 0.0
C988 C 0.39027 0.99812 0.5134 0.0
C989 C 0.44217 0.97503 0.55465 0.0
C990 C 0.32548 0.04589 0.49076 0.0
C991 C 0.33901 0.0326 0.49823 0.0
C992 C 0.37286 0.02315 0.5409 0.0
C993 C 0.41045 0.98251 0.53968 0.0
C994 C 0.39573 0.99703 0.53338 0.0
C995 C 0.35182 0.03804 0.51401 0.0
C996 C 0.36721 0.02417 0.52084 0.0
H997 H 0.42005 0.93376 0.53435 0.0
H998 H 0.39487 0.95758 0.52608 0.0
H999 H 0.39113 0.00916 0.5626 0.0
H1000 H 0.33531 0.08465 0.52219 0.0
H1001 H 0.35972 0.0617 0.5348 0.0
C1002 C 0.57099 0.50496 0.51204 0.0
C1003 C 0.55196 0.49905 0.51751 0.0
C1004 C 0.58596 0.49116 0.51029 0.0
C1005 C 0.59988 0.44122 0.52629 0.0
H1006 H 0.63752 0.44494 0.48423 0.0
C1007 C 0.65623 0.38018 0.51104 0.0
C1008 C 0.67547 0.38621 0.50645 0.0
C1009 C 0.64113 0.39389 0.51216 0.0
C1010 C 0.62726 0.44381 0.49619 0.0
H1011 H 0.53364 0.47385 0.52487 0.0
H1012 H 0.55967 0.4498 0.52174 0.0
H1013 H 0.61125 0.46887 0.4864 0.0
H1014 H 0.69389 0.41146 0.49941 0.0
H1015 H 0.6676 0.43537 0.50149 0.0
H1016 H 0.61587 0.41616 0.53606 0.0
C1017 C 0.56316 0.46517 0.51918 0.0
C1018 C 0.61218 0.45754 0.49744 0.0
C1019 C 0.54821 0.47897 0.52095 0.0
C1020 C 0.67924 0.40628 0.50295 0.0
C1021 C 0.66413 0.41999 0.50402 0.0
C1022 C 0.61493 0.42748 0.52502 0.0
C1023 C 0.58226 0.4711 0.51394 0.0
C1024 C 0.59829 0.45643 0.51251 0.0
C1025 C 0.64489 0.41398 0.50867 0.0
C1026 C 0.62882 0.4286 0.50996 0.0
H1027 H 0.57446 0.52035 0.50954 0.0
H1028 H 0.60055 0.49631 0.5065 0.0
H1029 H 0.58967 0.4401 0.53829 0.0
H1030 H 0.65278 0.36483 0.51377 0.0
H1031 H 0.62644 0.38871 0.51553 0.0
C1032 C 0.70102 0.26409 0.29785 0.0
C1033 C 0.70549 0.24397 0.29598 0.0
C1034 C 0.70167 0.27353 0.31639 0.0
C1035 C 0.72575 0.2696 0.36486 0.0
H1036 H 0.68522 0.30415 0.38402 0.0
C1037 C 0.72873 0.29694 0.44466 0.0
C1038 C 0.72471 0.31684 0.44849 0.0
C1039 C 0.72405 0.28832 0.42633 0.0
C1040 C 0.69676 0.29471 0.3788 0.0
H1041 H 0.71307 0.21783 0.31234 0.0
H1042 H 0.71459 0.23436 0.34443 0.0
H1043 H 0.68175 0.28896 0.35104 0.0
H1044 H 0.71173 0.34311 0.43648 0.0
H1045 H 0.70395 0.32815 0.40404 0.0
H1046 H 0.74104 0.27547 0.39213 0.0
C1047 C 0.71086 0.24289 0.33155 0.0
C1048 C 0.69475 0.28601 0.35994 0.0
C1049 C 0.71008 0.23344 0.31313 0.0
C1050 C 0.71494 0.32771 0.43392 0.0
C1051 C 0.71048 0.31912 0.41536 0.0
C1052 C 0.72784 0.27837 0.38353 0.0
C1053 C 0.70692 0.26308 0.33338 0.0
C1054 C 0.70913 0.27314 0.35292 0.0
C1055 C 0.71556 0.29947 0.41118 0.0
C1056 C 0.71325 0.29079 0.39091 0.0
H1057 H 0.69753 0.27266 0.28495 0.0
H1058 H 0.69866 0.28914 0.31737 0.0
H1059 H 0.73729 0.2601 0.35969 0.0
H1060 H 0.736 0.2881 0.45571 0.0
H1061 H 0.72758 0.27298 0.4239 0.0
C1062 C 0.46819 0.02943 0.94562 0.0
C1063 C 0.45756 0.04653 0.94188 0.0
C1064 C 0.48259 0.02324 0.93262 0.0
C1065 C 0.51234 0.03971 0.88977 0.0
H1066 H 0.51909 0.98345 0.88314 0.0
C1067 C 0.57291 0.00703 0.84027 0.0
C1068 C 0.56864 0.98897 0.83059 0.0
C1069 C 0.55985 0.01473 0.85402 0.0
C1070 C 0.51726 -0.00077 0.88453 0.0
H1071 H 0.45343 0.07063 0.92181 0.0
H1072 H 0.47785 0.05934 0.89842 0.0
H1073 H 0.49513 0.99546 0.90602 0.0
H1074 H 0.54699 0.96531 0.82691 0.0
H1075 H 0.52389 0.97908 0.8499 0.0
H1076 H 0.53369 0.04334 0.86729 0.0
C1077 C 0.47566 0.05099 0.91169 0.0
C1078 C 0.50371 0.00617 0.89804 0.0
C1079 C 0.46155 0.05741 0.92496 0.0
C1080 C 0.55084 0.9791 0.83441 0.0
C1081 C 0.53764 0.98696 0.84776 0.0
C1082 C 0.52567 0.03273 0.87593 0.0
C1083 C 0.48638 0.03377 0.9153 0.0
C1084 C 0.50105 0.02651 0.90092 0.0
C1085 C 0.54208 0.00469 0.85805 0.0
C1086 C 0.52825 0.01237 0.87306 0.0
H1087 H 0.46549 0.02099 0.95876 0.0
H1088 H 0.49082 0.01024 0.93627 0.0
H1089 H 0.51099 0.05549 0.89175 0.0
H1090 H 0.58657 0.01492 0.83761 0.0
H1091 H 0.56391 0.0283 0.86177 0.0
C1092 C 0.33335 0.29685 0.3833 0.0
C1093 C 0.34068 0.29312 0.36438 0.0
C1094 C 0.3315 0.28159 0.39683 0.0
C1095 C 0.3468 0.23021 0.40657 0.0
H1096 H 0.29668 0.22592 0.43267 0.0
C1097 C 0.31487 0.15662 0.43267 0.0
C1098 C 0.30537 0.15606 0.45088 0.0
C1099 C 0.32122 0.17452 0.42497 0.0
C1100 C 0.31089 0.22707 0.42577 0.0
H1101 H 0.35199 0.27046 0.34494 0.0
H1102 H 0.3488 0.24403 0.36839 0.0
H1103 H 0.30462 0.25552 0.41425 0.0
H1104 H 0.29522 0.17389 0.47538 0.0
H1105 H 0.30618 0.2053 0.46173 0.0
H1106 H 0.35272 0.20144 0.41748 0.0
C1107 C 0.34482 0.25876 0.37299 0.0
C1108 C 0.31547 0.24405 0.41524 0.0
C1109 C 0.34666 0.27396 0.35951 0.0
C1110 C 0.30249 0.17383 0.4613 0.0
C1111 C 0.3087 0.1918 0.45348 0.0
C1112 C 0.34219 0.21324 0.41701 0.0
C1113 C 0.33694 0.26231 0.3917 0.0
C1114 C 0.33327 0.24559 0.40511 0.0
C1115 C 0.3181 0.19231 0.43522 0.0
C1116 C 0.32399 0.21129 0.4263 0.0
H1117 H 0.32882 0.31151 0.38756 0.0
H1118 H 0.32559 0.28485 0.41121 0.0
H1119 H 0.36081 0.23111 0.39926 0.0
H1120 H 0.31736 0.14322 0.42427 0.0
H1121 H 0.32816 0.17447 0.41073 0.0
C1122 C 0.53026 0.4741 0.88645 0.0
C1123 C 0.53316 0.48993 0.8998 0.0
C1124 C 0.51753 0.47585 0.87013 0.0
C1125 C 0.48838 0.51286 0.84167 0.0
H1126 H 0.45666 0.46679 0.82665 0.0
C1127 C 0.41026 0.5126 0.80662 0.0
C1128 C 0.40745 0.50189 0.78886 0.0
C1129 C 0.42816 0.51196 0.817 0.0
C1130 C 0.46565 0.47967 0.8305 0.0
H1131 H 0.52524 0.51993 0.90674 0.0
H1132 H 0.50226 0.52278 0.87896 0.0
H1133 H 0.48293 0.46386 0.85133 0.0
H1134 H 0.42114 0.48234 0.76784 0.0
H1135 H 0.45242 0.48054 0.78663 0.0
H1136 H 0.46982 0.52884 0.82179 0.0
C1137 C 0.51028 0.50922 0.88045 0.0
C1138 C 0.48079 0.47804 0.8446 0.0
C1139 C 0.52333 0.5076 0.8965 0.0
C1140 C 0.42301 0.4908 0.78145 0.0
C1141 C 0.4408 0.48973 0.79216 0.0
C1142 C 0.47294 0.51454 0.82791 0.0
C1143 C 0.50707 0.49333 0.86707 0.0
C1144 C 0.49218 0.49469 0.85066 0.0
C1145 C 0.44341 0.50024 0.81006 0.0
C1146 C 0.46132 0.49801 0.82243 0.0
H1147 H 0.53787 0.46039 0.88864 0.0
H1148 H 0.51587 0.46342 0.86 0.0
H1149 H 0.49708 0.52592 0.84549 0.0
H1150 H 0.39851 0.52132 0.81261 0.0
H1151 H 0.42984 0.52006 0.83085 0.0
C1152 C 0.75013 0.75003 0.1648 0.0
C1153 C 0.74416 0.74237 0.18292 0.0
C1154 C 0.75425 0.73748 0.14897 0.0
C1155 C 0.74423 0.68763 0.1288 0.0
H1156 H 0.78912 0.69952 0.09636 0.0
C1157 C 0.76667 0.63769 0.06292 0.0
C1158 C 0.77231 0.64747 0.04574 0.0
C1159 C 0.76384 0.64829 0.0805 0.0
C1160 C 0.77643 0.69608 0.10516 0.0
H1161 H 0.73792 0.71542 0.19858 0.0
H1162 H 0.745 0.69345 0.17078 0.0
H1163 H 0.78313 0.71974 0.12555 0.0
H1164 H 0.77926 0.67609 0.03355 0.0
H1165 H 0.77412 0.69449 0.064 0.0
H1166 H 0.73738 0.66413 0.1082 0.0
C1167 C 0.74636 0.70922 0.16886 0.0
C1168 C 0.77301 0.70766 0.1219 0.0
C1169 C 0.74229 0.72181 0.18477 0.0
C1170 C 0.77501 0.66805 0.04652 0.0
C1171 C 0.77219 0.67861 0.06404 0.0
C1172 C 0.74763 0.67604 0.11199 0.0
C1173 C 0.75244 0.71694 0.1508 0.0
C1174 C 0.75672 0.70375 0.13376 0.0
C1175 C 0.76663 0.66888 0.08126 0.0
C1176 C 0.76362 0.68032 0.09982 0.0
H1177 H 0.7513 0.76579 0.16269 0.0
H1178 H 0.75852 0.74391 0.13514 0.0
H1179 H 0.73145 0.68435 0.13754 0.0
H1180 H 0.7645 0.62185 0.06283 0.0
H1181 H 0.75972 0.64033 0.09355 0.0
C1182 C 0.00221 0.05016 0.07015 0.0
C1183 C 0.00769 0.03299 0.05992 0.0
C1184 C 0.98943 0.04908 0.08603 0.0
C1185 C 0.96948 0.01413 0.12254 0.0
H1186 H 0.93091 0.05483 0.13032 0.0
C1187 C 0.90997 0.00911 0.18237 0.0
C1188 C 0.90695 0.02635 0.19362 0.0
C1189 C 0.92161 0.00964 0.16557 0.0
C1190 C 0.9417 0.04342 0.12844 0.0
H1191 H 0.00371 0.00125 0.05815 0.0
H1192 H 0.98124 -0.00065 0.08569 0.0
H1193 H 0.95235 0.05621 0.10196 0.0
H1194 H 0.91357 0.05771 0.19581 0.0
H1195 H 0.93377 0.0586 0.16652 0.0
H1196 H 0.95871 0.00132 0.14901 0.0
C1197 C 0.98713 0.01364 0.08172 0.0
C1198 C 0.95404 0.04423 0.11219 0.0
C1199 C -1e-05 0.01472 0.06589 0.0
C1200 C 0.91558 0.04415 0.1875 0.0
C1201 C 0.92708 0.04469 0.17064 0.0
C1202 C 0.95706 0.01327 0.13873 0.0
C1203 C 0.9817 0.0308 0.09204 0.0
C1204 C 0.9682 0.02967 0.10909 0.0
C1205 C 0.93035 0.02743 0.15954 0.0
C1206 C 0.9431 0.02798 0.14194 0.0
H1207 H 0.00809 0.06443 0.06609 0.0
H1208 H 0.98589 0.06257 0.09382 0.0
H1209 H 0.98039 0.00282 0.12083 0.0
H1210 H 0.90354 0.99515 0.18666 0.0
H1211 H 0.92367 0.99611 0.15722 0.0
C1212 C 0.25577 0.74449 0.18772 0.0
C1213 C 0.25114 0.7242 0.18704 0.0
C1214 C 0.25219 0.75628 0.17134 0.0
C1215 C 0.24706 0.75203 0.11733 0.0
H1216 H 0.23305 0.80712 0.12118 0.0
C1217 C 0.26477 0.80579 0.05615 0.0
C1218 C 0.25062 0.81952 0.05023 0.0
C1219 C 0.26206 0.79442 0.07282 0.0
C1220 C 0.23673 0.7917 0.11984 0.0
H1221 H 0.23853 0.70057 0.16867 0.0
H1222 H 0.23186 0.72119 0.1403 0.0
H1223 H 0.23239 0.78669 0.15062 0.0
H1224 H 0.22261 0.83226 0.0576 0.0
H1225 H 0.21789 0.81221 0.08708 0.0
H1226 H 0.25154 0.75698 0.08668 0.0
C1227 C 0.23855 0.72794 0.15343 0.0
C1228 C 0.23655 0.78004 0.13673 0.0
C1229 C 0.24218 0.71615 0.16979 0.0
C1230 C 0.23376 0.8218 0.06172 0.0
C1231 C 0.23109 0.81038 0.0786 0.0
C1232 C 0.24726 0.76365 0.10054 0.0
C1233 C 0.24385 0.74808 0.15386 0.0
C1234 C 0.24207 0.76013 0.13573 0.0
C1235 C 0.24514 0.79638 0.08415 0.0
C1236 C 0.24254 0.78372 0.10165 0.0
H1237 H 0.26243 0.75124 0.20087 0.0
H1238 H 0.25662 0.77168 0.17217 0.0
H1239 H 0.25158 0.73685 0.11599 0.0
H1240 H 0.27802 0.80366 0.04781 0.0
H1241 H 0.27337 0.7841 0.07691 0.0
C1242 C 0.01691 0.45297 0.0839 0.0
C1243 C 0.99642 0.45045 0.08465 0.0
C1244 C 0.02811 0.45576 0.10127 0.0
C1245 C 0.02311 0.46782 0.15495 0.0
H1246 H 0.07507 0.44524 0.1589 0.0
C1247 C 0.06339 0.44922 0.22772 0.0
C1248 C 0.08213 0.45794 0.23073 0.0
C1249 C 0.05365 0.4505 0.20951 0.0
C1250 C 0.06066 0.4518 0.15786 0.0
H1251 H 0.97149 0.44845 0.1039 0.0
H1252 H 0.99098 0.4523 0.13429 0.0
H1253 H 0.05646 0.44262 0.12777 0.0
H1254 H 0.10544 0.47475 0.21705 0.0
H1255 H 0.08853 0.47632 0.18472 0.0
H1256 H 0.02704 0.47586 0.18551 0.0
C1257 C -0.00151 0.45294 0.12038 0.0
C1258 C 0.05 0.4504 0.14003 0.0
C1259 C 0.98728 0.45055 0.103 0.0
C1260 C 0.09099 0.46794 0.21512 0.0
C1261 C 0.08139 0.4688 0.19669 0.0
C1262 C 0.03362 0.46883 0.17285 0.0
C1263 C 0.01906 0.45571 0.11978 0.0
C1264 C 0.03095 0.45819 0.1384 0.0
C1265 C 0.06262 0.46016 0.19383 0.0
C1266 C 0.05238 0.46068 0.17447 0.0
H1267 H 0.02421 0.45313 0.06984 0.0
H1268 H 0.04382 0.45819 0.10011 0.0
H1269 H 0.00876 0.47447 0.1542 0.0
H1270 H 0.05616 0.44153 0.23952 0.0
H1271 H 0.03921 0.44365 0.20755 0.0
C1272 C 0.30773 0.72361 0.24301 0.0
C1273 C 0.29962 0.70458 0.23986 0.0
C1274 C 0.3263 0.72626 0.25195 0.0
C1275 C 0.36237 0.70397 0.28502 0.0
H1276 H 0.39937 0.73892 0.25957 0.0
C1277 C 0.44195 0.71946 0.31604 0.0
C1278 C 0.4488 0.73906 0.31478 0.0
C1279 C 0.42427 0.71345 0.30649 0.0
C1280 C 0.38918 0.72927 0.26702 0.0
H1281 H 0.30488 0.67339 0.2439 0.0
H1282 H 0.33707 0.67818 0.2601 0.0
H1283 H 0.36723 0.73225 0.24423 0.0
H1284 H 0.44215 0.76778 0.30287 0.0
H1285 H 0.41151 0.75756 0.2869 0.0
H1286 H 0.38408 0.70152 0.30819 0.0
C1287 C 0.32895 0.69098 0.25553 0.0
C1288 C 0.37078 0.72542 0.25817 0.0
C1289 C 0.31046 0.68829 0.24632 0.0
C1290 C 0.43752 0.7525 0.30399 0.0
C1291 C 0.41992 0.74658 0.29466 0.0
C1292 C 0.38075 0.70802 0.29405 0.0
C1293 C 0.33714 0.70998 0.25822 0.0
C1294 C 0.35707 0.71298 0.2672 0.0
C1295 C 0.41309 0.72697 0.29559 0.0
C1296 C 0.39425 0.72103 0.28532 0.0
H1297 H 0.2997 0.73654 0.23867 0.0
H1298 H 0.33215 0.74111 0.25411 0.0
H1299 H 0.35203 0.69433 0.29231 0.0
H1300 H 0.45028 0.70875 0.32425 0.0
H1301 H 0.4195 0.6982 0.30745 0.0
C1302 C 0.00036 0.40849 0.0168 0.0
C1303 C 0.98105 0.41374 0.02142 0.0
C1304 C 0.00374 0.39305 0.00344 0.0
C1305 C 0.00562 0.36967 0.96494 0.0
H1306 H 0.97221 0.32273 0.96287 0.0
C1307 C -0.00255 0.32084 0.89551 0.0
C1308 C 0.99612 0.30026 0.8974 0.0
C1309 C -0.00245 0.3332 0.91212 0.0
C1310 C 0.98184 0.33561 0.96341 0.0
H1311 H 0.95018 0.4065 0.0161 0.0
H1312 H 0.95605 0.37994 0.9925 0.0
H1313 H 0.96878 0.34676 0.98972 0.0
H1314 H 0.99408 0.27652 0.91835 0.0
H1315 H 0.99425 0.29828 0.94755 0.0
H1316 H 0.01862 0.35861 0.9386 0.0
C1317 C 0.9686 0.38758 -0.00067 0.0
C1318 C 0.97973 0.34949 0.97866 0.0
C1319 C 0.96523 0.403 0.01265 0.0
C1320 C 0.9951 0.29231 0.91639 0.0
C1321 C 0.99511 0.30476 0.93309 0.0
C1322 C 0.00772 0.35583 0.9497 0.0
C1323 C 0.98789 0.3825 0.99446 0.0
C1324 C 0.99134 0.36686 0.97938 0.0
C1325 C 0.99631 0.32535 0.9311 0.0
C1326 C 0.99558 0.33884 0.94853 0.0
H1327 H 0.01287 0.41653 0.02322 0.0
H1328 H 0.01878 0.3894 0.00013 0.0
H1329 H 0.01472 0.38293 0.96496 0.0
H1330 H -0.00174 0.32752 0.88113 0.0
H1331 H -0.00184 0.34899 0.91002 0.0
C1332 C 0.69554 0.74387 0.24566 0.0
C1333 C 0.70038 0.76259 0.23834 0.0
C1334 C 0.67874 0.74113 0.25704 0.0
C1335 C 0.64365 0.76921 0.28724 0.0
H1336 H 0.60825 0.72446 0.27781 0.0
C1337 C 0.56312 0.77066 0.30894 0.0
C1338 C 0.55481 0.75426 0.31833 0.0
C1339 C 0.58187 0.76983 0.30111 0.0
C1340 C 0.61817 0.73686 0.28082 0.0
H1341 H 0.69097 0.7929 0.23661 0.0
H1342 H 0.66184 0.78816 0.25629 0.0
H1343 H 0.63934 0.7265 0.2602 0.0
H1344 H 0.55972 0.72398 0.32663 0.0
H1345 H 0.59272 0.72246 0.31252 0.0
H1346 H 0.62229 0.77989 0.30733 0.0
C1347 C 0.67122 0.77567 0.25372 0.0
C1348 C 0.63596 0.73804 0.27075 0.0
C1349 C 0.68794 0.7784 0.2424 0.0
C1350 C 0.56573 0.73687 0.31953 0.0
C1351 C 0.58455 0.73597 0.31142 0.0
C1352 C 0.62592 0.76806 0.29719 0.0
C1353 C 0.66648 0.75706 0.26132 0.0
C1354 C 0.64865 0.75451 0.27347 0.0
C1355 C 0.59284 0.75254 0.30229 0.0
C1356 C 0.61276 0.75215 0.29372 0.0
H1357 H 0.70491 0.73142 0.24288 0.0
H1358 H 0.67556 0.72664 0.26275 0.0
H1359 H 0.65332 0.78183 0.29008 0.0
H1360 H 0.55519 0.78431 0.30773 0.0
H1361 H 0.58773 0.78273 0.2939 0.0
C1362 C 0.0325 0.06197 0.97797 0.0
C1363 C 0.03001 0.06595 -0.00182 0.0
C1364 C 0.02998 0.07679 0.96405 0.0
C1365 C 0.02874 0.1312 0.95927 0.0
H1366 H 0.00153 0.11905 0.90965 0.0
C1367 C 0.00379 0.19206 0.90615 0.0
C1368 C 0.00634 0.18877 0.88583 0.0
C1369 C 0.0068 0.17693 0.9196 0.0
C1370 C 0.00935 0.12265 0.92334 0.0
H1371 H 0.02327 0.08884 0.01957 0.0
H1372 H 0.01848 0.11451 0.99534 0.0
H1373 H 0.00679 0.093 0.93349 0.0
H1374 H 0.01395 0.16685 0.86376 0.0
H1375 H 0.0193 0.14049 0.88725 0.0
H1376 H 0.03121 0.16085 0.94918 0.0
C1377 C 0.02256 0.09997 0.99022 0.0
C1378 C 0.01239 0.1077 0.93702 0.0
C1379 C 0.02507 0.08517 0.00412 0.0
C1380 C 0.01182 0.16991 0.87929 0.0
C1381 C 0.01479 0.15475 0.89276 0.0
C1382 C 0.02567 0.14614 0.94562 0.0
C1383 C 0.02494 0.09599 0.96999 0.0
C1384 C 0.02206 0.11179 0.95521 0.0
C1385 C 0.01241 0.1581 0.9131 0.0
C1386 C 0.01587 0.14208 0.92751 0.0
H1387 H 0.03614 0.0473 0.97285 0.0
H1388 H 0.03214 0.07324 0.94862 0.0
H1389 H 0.03655 0.13484 0.97296 0.0
H1390 H -0.00048 0.20638 0.91172 0.0
H1391 H 0.00456 0.17996 0.93512 0.0
C1392 C 0.37939 0.30365 0.299 0.0
C1393 C 0.37011 0.32148 0.30363 0.0
C1394 C 0.39216 0.30237 0.28318 0.0
C1395 C 0.41832 0.33262 0.24553 0.0
H1396 H 0.41542 0.28337 0.2157 0.0
C1397 C 0.43537 0.32152 0.16251 0.0
C1398 C 0.44928 0.30706 0.15823 0.0
C1399 C 0.42871 0.32407 0.18172 0.0
C1400 C 0.41652 0.29712 0.22404 0.0
H1401 H 0.36805 0.35225 0.29561 0.0
H1402 H 0.38898 0.34963 0.26722 0.0
H1403 H 0.398 0.28628 0.24654 0.0
H1404 H 0.46727 0.28406 0.17062 0.0
H1405 H 0.45492 0.28804 0.20418 0.0
H1406 H 0.43578 0.34368 0.22194 0.0
C1407 C 0.38689 0.33671 0.27614 0.0
C1408 C 0.40666 0.29881 0.24182 0.0
C1409 C 0.3745 0.33813 0.2923 0.0
C1410 C 0.4566 0.29536 0.17355 0.0
C1411 C 0.44955 0.2976 0.19267 0.0
C1412 C 0.42779 0.33104 0.22746 0.0
C1413 C 0.39563 0.3187 0.27113 0.0
C1414 C 0.40728 0.31663 0.2528 0.0
C1415 C 0.43551 0.31191 0.19685 0.0
C1416 C 0.42686 0.3133 0.21658 0.0
H1417 H 0.37631 0.29037 0.30709 0.0
H1418 H 0.39898 0.28836 0.28021 0.0
H1419 H 0.41954 0.34645 0.25367 0.0
H1420 H 0.42957 0.3308 0.151 0.0
H1421 H 0.41776 0.3351 0.18464 0.0
C1422 C 0.5292 0.45258 0.96833 0.0
C1423 C 0.54881 0.45562 0.96281 0.0
C1424 C 0.52454 0.43894 0.98277 0.0
C1425 C 0.54224 0.39471 0.00754 0.0
H1426 H 0.50328 0.40894 0.04604 0.0
C1427 C 0.51602 0.34154 0.06863 0.0
C1428 C 0.49546 0.3403 0.07046 0.0
C1429 C 0.52461 0.35626 0.05717 0.0
C1430 C 0.51415 0.40473 0.03536 0.0
H1431 H 0.57889 0.44648 0.96783 0.0
H1432 H 0.5707 0.42259 0.99321 0.0
H1433 H 0.51431 0.43327 0.02245 0.0
H1434 H 0.46786 0.35376 0.06192 0.0
H1435 H 0.48274 0.37915 0.04208 0.0
H1436 H 0.5417 0.36598 0.02024 0.0
C1437 C 0.55896 0.43079 0.9863 0.0
C1438 C 0.52043 0.41865 0.02183 0.0
C1439 C 0.56365 0.44454 0.9719 0.0
C1440 C 0.48374 0.35423 0.06086 0.0
C1441 C 0.49229 0.36893 0.04958 0.0
C1442 C 0.53591 0.38073 0.02109 0.0
C1443 C 0.53936 0.42798 0.992 0.0
C1444 C 0.5342 0.41367 0.00748 0.0
C1445 C 0.51279 0.37011 0.04753 0.0
C1446 C 0.52144 0.38548 0.03483 0.0
H1447 H 0.51746 0.46103 0.96175 0.0
H1448 H 0.50926 0.4369 0.98664 0.0
H1449 H 0.55282 0.39043 0.99659 0.0
H1450 H 0.52545 0.33101 0.07583 0.0
H1451 H 0.54047 0.35688 0.05591 0.0
C1452 C 0.67894 0.23271 0.20883 0.0
C1453 C 0.67473 0.23078 0.22894 0.0
C1454 C 0.66389 0.23644 0.19506 0.0
C1455 C 0.60986 0.23283 0.18785 0.0
H1456 H 0.61758 0.27339 0.14896 0.0
C1457 C 0.545 0.26717 0.14603 0.0
C1458 C 0.54706 0.27152 0.12597 0.0
C1459 C 0.56106 0.26096 0.15731 0.0
C1460 C 0.61528 0.26181 0.15952 0.0
H1461 H 0.65138 0.23076 0.25027 0.0
H1462 H 0.62524 0.23748 0.22636 0.0
H1463 H 0.64483 0.26462 0.17097 0.0
H1464 H 0.5677 0.27268 0.10201 0.0
H1465 H 0.59583 0.26168 0.12176 0.0
H1466 H 0.5803 0.23012 0.17661 0.0
C1467 C 0.64013 0.23603 0.22118 0.0
C1468 C 0.63089 0.25679 0.17214 0.0
C1469 C 0.65515 0.2324 0.23493 0.0
C1470 C 0.56561 0.26947 0.11743 0.0
C1471 C 0.58175 0.26326 0.12876 0.0
C1472 C 0.59429 0.23781 0.17524 0.0
C1473 C 0.64431 0.23815 0.20109 0.0
C1474 C 0.62825 0.24247 0.18667 0.0
C1475 C 0.57964 0.25891 0.14884 0.0
C1476 C 0.5967 0.25259 0.16115 0.0
H1477 H 0.69391 0.23162 0.20379 0.0
H1478 H 0.66757 0.23786 0.17967 0.0
H1479 H 0.60746 0.22145 0.19862 0.0
H1480 H 0.53095 0.26864 0.15314 0.0
H1481 H 0.55898 0.25807 0.1728 0.0
C1482 C 0.41778 0.1087 0.9937 0.0
C1483 C 0.4335 0.09588 0.99072 0.0
C1484 C 0.42075 0.12644 0.0042 0.0
C1485 C 0.46009 0.16179 0.02072 0.0
H1486 H 0.42058 0.18014 0.05682 0.0
C1487 C 0.47366 0.22839 0.07369 0.0
C1488 C 0.45839 0.24204 0.07489 0.0
C1489 C 0.47063 0.21031 0.06383 0.0
C1490 C 0.43168 0.17527 0.04667 0.0
H1491 H 0.46451 0.09134 0.99683 0.0
H1492 H 0.46965 0.12212 0.0153 0.0
H1493 H 0.41519 0.14911 0.03872 0.0
H1494 H 0.42786 0.24726 0.06684 0.0
H1495 H 0.42262 0.21577 0.04968 0.0
H1496 H 0.47662 0.18791 0.02879 0.0
C1497 C 0.45513 0.11874 0.00916 0.0
C1498 C 0.42857 0.15752 0.03626 0.0
C1499 C 0.45219 0.10108 -0.00141 0.0
C1500 C 0.43996 0.2371 0.06621 0.0
C1501 C 0.4369 0.219 0.05646 0.0
C1502 C 0.46323 0.17948 0.0312 0.0
C1503 C 0.43947 0.13168 0.01203 0.0
C1504 C 0.44273 0.15057 0.02313 0.0
C1505 C 0.45222 0.20545 0.05507 0.0
C1506 C 0.44904 0.18644 0.04425 0.0
H1507 H 0.40326 0.10515 0.98763 0.0
H1508 H 0.40842 0.13618 0.0059 0.0
H1509 H 0.47116 0.15705 0.01048 0.0
H1510 H 0.48803 0.23171 0.08023 0.0
H1511 H 0.48265 0.20007 0.06316 0.0
C1512 C 0.25052 0.30604 0.73956 0.0
C1513 C 0.2469 0.29782 0.72064 0.0
C1514 C 0.26018 0.32429 0.74192 0.0
C1515 C 0.29354 0.35914 0.71765 0.0
H1516 H 0.27206 0.39701 0.75443 0.0
C1517 C 0.32525 0.43896 0.72778 0.0
C1518 C 0.32604 0.44665 0.74717 0.0
C1519 C 0.31553 0.42095 0.72353 0.0
C1520 C 0.27842 0.38654 0.74427 0.0
H1521 H 0.25073 0.30248 0.68933 0.0
H1522 H 0.26794 0.33419 0.69353 0.0
H1523 H 0.25557 0.3652 0.74917 0.0
H1524 H 0.31764 0.44115 0.77735 0.0
H1525 H 0.30124 0.40983 0.77006 0.0
H1526 H 0.31662 0.38038 0.71303 0.0
C1527 C 0.26332 0.32641 0.70652 0.0
C1528 C 0.26892 0.36831 0.74124 0.0
C1529 C 0.25351 0.3082 0.70414 0.0
C1530 C 0.31717 0.43581 0.7622 0.0
C1531 C 0.30761 0.41785 0.75799 0.0
C1532 C 0.30316 0.37737 0.7208 0.0
C1533 C 0.26661 0.33472 0.72543 0.0
C1534 C 0.27647 0.35433 0.72805 0.0
C1535 C 0.30648 0.41024 0.7386 0.0
C1536 C 0.29583 0.39122 0.73433 0.0
H1537 H 0.24601 0.29831 0.75262 0.0
H1538 H 0.26279 0.33017 0.7567 0.0
H1539 H 0.29977 0.34859 0.70748 0.0
H1540 H 0.33191 0.44696 0.71585 0.0
H1541 H 0.31482 0.41561 0.7084 0.0
C1542 C 0.25583 0.69538 0.75422 0.0
C1543 C 0.2355 0.69287 0.75051 0.0
C1544 C 0.26863 0.67971 0.75137 0.0
C1545 C 0.28823 0.64073 0.7593 0.0
H1546 H 0.28167 0.60166 0.71719 0.0
C1547 C 0.31516 0.56196 0.76718 0.0
C1548 C 0.32491 0.55297 0.75139 0.0
C1549 C 0.30621 0.58011 0.76492 0.0
C1550 C 0.28385 0.61258 0.72889 0.0
H1551 H 0.2128 0.67201 0.74043 0.0
H1552 H 0.2351 0.64474 0.73547 0.0
H1553 H 0.26254 0.63191 0.71627 0.0
H1554 H 0.33273 0.55606 0.72072 0.0
H1555 H 0.31669 0.58797 0.7167 0.0
H1556 H 0.3092 0.62131 0.77213 0.0
C1557 C 0.24119 0.65888 0.74033 0.0
C1558 C 0.27278 0.6298 0.72847 0.0
C1559 C 0.22839 0.67454 0.7432 0.0
C1560 C 0.32535 0.56259 0.73317 0.0
C1561 C 0.31614 0.5808 0.73085 0.0
C1562 C 0.29917 0.62353 0.75977 0.0
C1563 C 0.26141 0.66118 0.74473 0.0
C1564 C 0.27458 0.6439 0.74388 0.0
C1565 C 0.30662 0.58979 0.74679 0.0
C1566 C 0.29679 0.60906 0.74481 0.0
H1567 H 0.26183 0.70941 0.75952 0.0
H1568 H 0.28417 0.68205 0.75462 0.0
H1569 H 0.28988 0.65117 0.7715 0.0
H1570 H 0.3145 0.55503 0.78144 0.0
H1571 H 0.29871 0.58649 0.77738 0.0
C1572 C 0.91245 0.48777 0.48162 0.0
C1573 C 0.90991 0.50826 0.48303 0.0
C1574 C 0.89629 0.47485 0.48206 0.0
C1575 C 0.84518 0.46974 0.49781 0.0
H1576 H 0.8438 0.42636 0.45986 0.0
C1577 C 0.78153 0.41106 0.49301 0.0
C1578 C 0.78762 0.39144 0.49091 0.0
C1579 C 0.79506 0.42673 0.49113 0.0
C1580 C 0.84401 0.43831 0.47064 0.0
H1581 H 0.88831 0.53118 0.48643 0.0
H1582 H 0.86 0.50845 0.4875 0.0
H1583 H 0.87014 0.45105 0.4588 0.0
H1584 H 0.81273 0.37297 0.48523 0.0
H1585 H 0.8361 0.40003 0.48218 0.0
H1586 H 0.81923 0.45666 0.50993 0.0
C1587 C 0.87459 0.50249 0.48603 0.0
C1588 C 0.8591 0.45246 0.47002 0.0
C1589 C 0.8908 0.51548 0.48546 0.0
C1590 C 0.80745 0.38786 0.48685 0.0
C1591 C 0.82088 0.40343 0.48496 0.0
C1592 C 0.83006 0.45548 0.49849 0.0
C1593 C 0.87716 0.48205 0.48405 0.0
C1594 C 0.8601 0.4681 0.48384 0.0
C1595 C 0.81489 0.42305 0.48703 0.0
C1596 C 0.82957 0.43938 0.48516 0.0
H1597 H 0.92698 0.48167 0.48021 0.0
H1598 H 0.8988 0.45916 0.48094 0.0
H1599 H 0.84561 0.48161 0.50869 0.0
H1600 H 0.76636 0.41433 0.49615 0.0
H1601 H 0.78998 0.44169 0.49271 0.0
C1602 C 0.80535 0.88058 0.81169 0.0
C1603 C 0.81408 0.88088 0.83067 0.0
C1604 C 0.78838 0.89124 0.8078 0.0
C1605 C 0.75545 0.92982 0.82687 0.0
H1606 H 0.71512 0.89809 0.79957 0.0
C1607 C 0.66591 0.92671 0.81315 0.0
C1608 C 0.66227 0.94583 0.80647 0.0
C1609 C 0.68515 0.92043 0.81625 0.0
C1610 C 0.72619 0.90712 0.80728 0.0
H1611 H 0.81257 0.89373 0.86007 0.0
H1612 H 0.78264 0.91212 0.85335 0.0
H1613 H 0.74799 0.8851 0.80397 0.0
H1614 H 0.67604 0.97359 0.79843 0.0
H1615 H 0.70973 0.96252 0.80387 0.0
H1616 H 0.73331 0.95167 0.8305 0.0
C1617 C 0.78903 0.9037 0.84146 0.0
C1618 C 0.74512 0.89979 0.80957 0.0
C1619 C 0.80607 0.89304 0.84536 0.0
C1620 C 0.67833 0.95874 0.80354 0.0
C1621 C 0.69763 0.95246 0.80673 0.0
C1622 C 0.73646 0.93722 0.82447 0.0
C1623 C 0.77965 0.90238 0.82281 0.0
C1624 C 0.75994 0.91097 0.81949 0.0
C1625 C 0.70122 0.93312 0.81279 0.0
C1626 C 0.72159 0.92582 0.81484 0.0
H1627 H 0.81094 0.87123 0.80006 0.0
H1628 H 0.78166 0.89018 0.79319 0.0
H1629 H 0.7666 0.9388 0.83451 0.0
H1630 H 0.65391 0.91641 0.81568 0.0
H1631 H 0.68745 0.90555 0.82125 0.0
C1632 C 0.58942 0.53289 0.93915 0.0
C1633 C 0.59093 0.51246 0.94183 0.0
C1634 C 0.60587 0.54533 0.94213 0.0
C1635 C 0.6416 0.56853 0.95982 0.0
H1636 H 0.68988 0.55111 0.93609 0.0
C1637 C 0.71934 0.60419 0.97485 0.0
C1638 C 0.73159 0.60569 0.95845 0.0
C1639 C 0.70088 0.59474 0.97299 0.0
C1640 C 0.67649 0.55626 0.9427 0.0
H1641 H 0.61079 0.48908 0.94978 0.0
H1642 H 0.63943 0.51076 0.955 0.0
H1643 H 0.66026 0.5306 0.93283 0.0
H1644 H 0.73351 0.59967 0.92699 0.0
H1645 H 0.70149 0.58338 0.92383 0.0
H1646 H 0.65802 0.59429 0.96965 0.0
C1647 C 0.62556 0.51715 0.95057 0.0
C1648 C 0.65958 0.5444 0.94101 0.0
C1649 C 0.60913 0.50477 0.94773 0.0
C1650 C 0.72459 0.59853 0.94 0.0
C1651 C 0.70625 0.58913 0.93817 0.0
C1652 C 0.65864 0.58037 0.96167 0.0
C1653 C 0.62415 0.53753 0.94764 0.0
C1654 C 0.64197 0.55038 0.94955 0.0
C1655 C 0.69444 0.58663 0.95472 0.0
C1656 C 0.67622 0.57436 0.95302 0.0
H1657 H 0.57551 0.53924 0.93478 0.0
H1658 H 0.6044 0.56098 0.93965 0.0
H1659 H 0.62822 0.57343 0.96664 0.0
H1660 H 0.72429 0.6096 0.98926 0.0
H1661 H 0.69207 0.59298 0.98601 0.0
C1662 C 0.21529 0.66884 0.2312 0.0
C1663 C 0.23581 0.66671 0.23053 0.0
C1664 C 0.20308 0.65284 0.23591 0.0
C1665 C 0.20229 0.5983 0.23724 0.0
H1666 H 0.15787 0.60535 0.27152 0.0
C1667 C 0.15972 0.53235 0.26904 0.0
C1668 C 0.13907 0.53328 0.26914 0.0
C1669 C 0.17111 0.5489 0.26441 0.0
C1670 C 0.1701 0.60318 0.26176 0.0
H1671 H 0.25954 0.64601 0.23415 0.0
H1672 H 0.23837 0.61834 0.2428 0.0
H1673 H 0.17848 0.63375 0.26324 0.0
H1674 H 0.11423 0.55247 0.26465 0.0
H1675 H 0.13417 0.58138 0.25649 0.0
H1676 H 0.19401 0.56775 0.23583 0.0
C1677 C 0.23164 0.63229 0.23946 0.0
C1678 C 0.1819 0.61946 0.257 0.0
C1679 C 0.24382 0.64824 0.23475 0.0
C1680 C 0.1301 0.55125 0.26472 0.0
C1681 C 0.14152 0.56785 0.26014 0.0
C1682 C 0.19053 0.58205 0.24203 0.0
C1683 C 0.21111 0.63435 0.24002 0.0
C1684 C 0.19821 0.61719 0.24477 0.0
C1685 C 0.16216 0.56682 0.25979 0.0
C1686 C 0.17437 0.58426 0.25443 0.0
H1687 H 0.20865 0.6829 0.2282 0.0
H1688 H 0.18732 0.6549 0.23605 0.0
H1689 H 0.21448 0.59607 0.22746 0.0
H1690 H 0.16713 0.51877 0.27244 0.0
H1691 H 0.18698 0.54769 0.26457 0.0
C1692 C 0.92482 0.46698 0.02956 0.0
C1693 C 0.94194 0.47316 0.04012 0.0
C1694 C 0.91045 0.48052 0.02433 0.0
C1695 C 0.88884 0.52726 0.0371 0.0
H1696 H 0.8767 0.53137 0.98123 0.0
C1697 C 0.83936 0.5888 0.00593 0.0
C1698 C 0.82793 0.58435 0.98892 0.0
C1699 C 0.85293 0.57521 0.0131 0.0
C1700 C 0.87954 0.53022 0.99693 0.0
H1701 H 0.95704 0.4986 0.05364 0.0
H1702 H 0.93145 0.52197 0.0452 0.0
H1703 H 0.9003 0.50726 0.99246 0.0
H1704 H 0.8209 0.56191 0.96668 0.0
H1705 H 0.84362 0.53794 0.97964 0.0
H1706 H 0.86762 0.54971 0.04177 0.0
C1707 C 0.92938 0.50661 0.04093 0.0
C1708 C 0.89319 0.51646 0.00331 0.0
C1709 C 0.94396 0.49316 0.04583 0.0
C1710 C 0.82978 0.56587 0.97964 0.0
C1711 C 0.84296 0.55217 0.98702 0.0
C1712 C 0.87482 0.54079 0.03078 0.0
C1713 C 0.91267 0.50044 0.0299 0.0
C1714 C 0.89797 0.51489 0.02341 0.0
C1715 C 0.85504 0.55676 0.00361 0.0
C1716 C 0.86997 0.54245 0.01058 0.0
H1717 H 0.92247 0.45167 0.02529 0.0
H1718 H 0.89756 0.47543 0.01595 0.0
H1719 H 0.89229 0.52622 0.05272 0.0
H1720 H 0.83824 0.60298 0.01334 0.0
H1721 H 0.86209 0.57942 0.02577 0.0
C1722 C 0.07771 0.00304 0.0415 0.0
C1723 C 0.06659 0.00768 0.02455 0.0
C1724 C 0.09304 0.9896 0.04045 0.0
C1725 C 0.12635 0.96518 0.00515 0.0
H1726 H 0.13457 0.92926 0.04836 0.0
C1727 C 0.18234 0.90176 0.00169 0.0
C1728 C 0.19434 0.89926 0.01858 0.0
C1729 C 0.16635 0.9145 0.00216 0.0
C1730 C 0.13257 0.93929 0.03624 0.0
H1731 H 0.06283 0.00175 0.99319 0.0
H1732 H 0.08944 0.9781 0.99136 0.0
H1733 H 0.10756 0.95239 0.04951 0.0
H1734 H 0.19873 0.90801 0.04928 0.0
H1735 H 0.17085 0.93012 0.0501 0.0
H1736 H 0.15132 0.95192 0.99184 0.0
C1737 C 0.08655 0.98511 0.00544 0.0
C1738 C 0.1171 0.95261 0.03691 0.0
C1739 C 0.07126 -0.00135 0.00648 0.0
C1740 C 0.1898 0.90957 0.03601 0.0
C1741 C 0.17374 0.92218 0.03651 0.0
C1742 C 0.14176 0.95177 0.00443 0.0
C1743 C 0.09762 0.98036 0.02243 0.0
C1744 C 0.11385 0.96584 0.02144 0.0
C1745 C 0.16189 0.9249 0.01956 0.0
C1746 C 0.14513 0.93875 0.02003 0.0
H1747 H 0.07472 0.00999 0.05559 0.0
H1748 H 0.10148 0.98666 0.05376 0.0
H1749 H 0.1245 0.97531 0.99309 0.0
H1750 H 0.18541 0.89406 0.98801 0.0
H1751 H 0.15739 0.9161 0.98891 0.0
loop_
_geom_bond_atom_site_label_1
_geom_bond_atom_site_label_2
_geom_bond_distance
_geom_bond_site_symmetry_2
_ccdc_geom_bond_type
H0 C3 0.931 . S
H1 C6 0.928 . S
H2 C8 0.930 . S
C3 H0 0.931 . S
C3 C4 1.413 . S
C3 C5 1.360 . S
C4 C3 1.413 . S
C4 C8 1.429 . S
C5 C3 1.360 . S
C5 C6 1.372 . S
C6 H1 0.928 . S
C6 C5 1.372 . S
C6 C7 1.404 . S
C7 C6 1.404 . S
C7 C8 1.391 . S
C8 H2 0.930 . S
C8 C4 1.429 . S
C8 C7 1.391 . S
H9 C12 0.931 . S
H10 C15 0.928 . S
H11 C17 0.930 . S
C12 H9 0.931 . S
C12 C13 1.413 . S
C12 C14 1.360 . S
C13 C12 1.413 . S
C13 C17 1.429 . S
C14 C12 1.360 . S
C14 C15 1.372 . S
C15 H10 0.928 . S
C15 C14 1.372 . S
C15 C16 1.404 . S
C16 C15 1.404 . S
C16 C17 1.391 . S
C17 H11 0.930 . S
C17 C13 1.429 . S
C17 C16 1.391 . S
H18 C21 0.931 . S
H19 C24 0.928 . S
H20 C26 0.930 . S
C21 H18 0.931 . S
C21 C22 1.413 . S
C21 C23 1.360 . S
C22 C21 1.413 . S
C22 C26 1.429 . S
C23 C21 1.360 . S
C23 C24 1.372 . S
C24 H19 0.928 . S
C24 C23 1.372 . S
C24 C25 1.404 . S
C25 C24 1.404 . S
C25 C26 1.391 . S
C26 H20 0.930 . S
C26 C22 1.429 . S
C26 C25 1.391 . S
H27 C30 0.931 . S
H28 C33 0.928 . S
H29 C35 0.930 . S
C30 H27 0.931 . S
C30 C31 1.413 . S
C30 C32 1.360 . S
C31 C30 1.413 . S
C31 C35 1.429 . S
C32 C30 1.360 . S
C32 C33 1.372 . S
C33 H28 0.928 . S
C33 C32 1.372 . S
C33 C34 1.404 . S
C34 C33 1.404 . S
C34 C35 1.391 . S
C35 H29 0.930 . S
C35 C31 1.429 . S
C35 C34 1.391 . S
H36 C39 0.931 . S
H37 C42 0.928 . S
H38 C44 0.930 . S
C39 H36 0.931 . S
C39 C40 1.413 . S
C39 C41 1.360 . S
C40 C39 1.413 . S
C40 C44 1.429 . S
C41 C39 1.360 . S
C41 C42 1.372 . S
C42 H37 0.928 . S
C42 C41 1.372 . S
C42 C43 1.404 . S
C43 C42 1.404 . S
C43 C44 1.391 . S
C44 H38 0.930 . S
C44 C40 1.429 . S
C44 C43 1.391 . S
H45 C48 0.931 . S
H46 C51 0.928 . S
H47 C53 0.930 . S
C48 H45 0.931 . S
C48 C49 1.413 . S
C48 C50 1.360 . S
C49 C48 1.413 . S
C49 C53 1.429 . S
C50 C48 1.360 . S
C50 C51 1.372 . S
C51 H46 0.928 . S
C51 C50 1.372 . S
C51 C52 1.404 . S
C52 C51 1.404 . S
C52 C53 1.391 . S
C53 H47 0.930 . S
C53 C49 1.429 . S
C53 C52 1.391 . S
H54 C57 0.931 . S
H55 C60 0.928 . S
H56 C62 0.930 . S
C57 H54 0.931 . S
C57 C58 1.413 . S
C57 C59 1.360 . S
C58 C57 1.413 . S
C58 C62 1.429 . S
C59 C57 1.360 . S
C59 C60 1.372 . S
C60 H55 0.928 . S
C60 C59 1.372 . S
C60 C61 1.404 . S
C61 C60 1.404 . S
C61 C62 1.391 . S
C62 H56 0.930 . S
C62 C58 1.429 . S
C62 C61 1.391 . S
H63 C66 0.931 . S
H64 C69 0.928 . S
H65 C71 0.930 . S
C66 H63 0.931 . S
C66 C67 1.413 . S
C66 C68 1.360 . S
C67 C66 1.413 . S
C67 C71 1.429 . S
C68 C66 1.360 . S
C68 C69 1.372 . S
C69 H64 0.928 . S
C69 C68 1.372 . S
C69 C70 1.404 . S
C70 C69 1.404 . S
C70 C71 1.391 . S
C71 H65 0.930 . S
C71 C67 1.429 . S
C71 C70 1.391 . S
H72 C75 0.931 . S
H73 C78 0.928 . S
H74 C80 0.930 . S
C75 H72 0.931 . S
C75 C76 1.413 . S
C75 C77 1.360 . S
C76 C75 1.413 . S
C76 C80 1.429 . S
C77 C75 1.360 . S
C77 C78 1.372 . S
C78 H73 0.928 . S
C78 C77 1.372 . S
C78 C79 1.404 . S
C79 C78 1.404 . S
C79 C80 1.391 . S
C80 H74 0.930 . S
C80 C76 1.429 . S
C80 C79 1.391 . S
H81 C84 0.931 . S
H82 C87 0.928 . S
H83 C89 0.930 . S
C84 H81 0.931 . S
C84 C85 1.413 . S
C84 C86 1.360 . S
C85 C84 1.413 . S
C85 C89 1.429 . S
C86 C84 1.360 . S
C86 C87 1.372 . S
C87 H82 0.928 . S
C87 C86 1.372 . S
C87 C88 1.404 . S
C88 C87 1.404 . S
C88 C89 1.391 . S
C89 H83 0.930 . S
C89 C85 1.429 . S
C89 C88 1.391 . S
H90 C93 0.931 . S
H91 C96 0.928 . S
H92 C98 0.930 . S
C93 H90 0.931 . S
C93 C94 1.413 . S
C93 C95 1.360 . S
C94 C93 1.413 . S
C94 C98 1.429 . S
C95 C93 1.360 . S
C95 C96 1.372 . S
C96 H91 0.928 . S
C96 C95 1.372 . S
C96 C97 1.404 . S
C97 C96 1.404 . S
C97 C98 1.391 . S
C98 H92 0.930 . S
C98 C94 1.429 . S
C98 C97 1.391 . S
H99 C102 0.931 . S
H100 C105 0.928 . S
H101 C107 0.930 . S
C102 H99 0.931 . S
C102 C103 1.413 . S
C102 C104 1.360 . S
C103 C102 1.413 . S
C103 C107 1.429 . S
C104 C102 1.360 . S
C104 C105 1.372 . S
C105 H100 0.928 . S
C105 C104 1.372 . S
C105 C106 1.404 . S
C106 C105 1.404 . S
C106 C107 1.391 . S
C107 H101 0.930 . S
C107 C103 1.429 . S
C107 C106 1.391 . S
H108 C111 0.931 . S
H109 C114 0.928 . S
H110 C116 0.930 . S
C111 H108 0.931 . S
C111 C112 1.413 . S
C111 C113 1.360 . S
C112 C111 1.413 . S
C112 C116 1.429 . S
C113 C111 1.360 . S
C113 C114 1.372 . S
C114 H109 0.928 . S
C114 C113 1.372 . S
C114 C115 1.404 . S
C115 C114 1.404 . S
C115 C116 1.391 . S
C116 H110 0.930 . S
C116 C112 1.429 . S
C116 C115 1.391 . S
H117 C120 0.931 . S
H118 C123 0.928 . S
H119 C125 0.930 . S
C120 H117 0.931 . S
C120 C121 1.413 . S
C120 C122 1.360 . S
C121 C120 1.413 . S
C121 C125 1.429 . S
C122 C120 1.360 . S
C122 C123 1.372 . S
C123 H118 0.928 . S
C123 C122 1.372 . S
C123 C124 1.404 . S
C124 C123 1.404 . S
C124 C125 1.391 . S
C125 H119 0.930 . S
C125 C121 1.429 . S
C125 C124 1.391 . S
H126 C129 0.931 . S
H127 C132 0.928 . S
H128 C134 0.930 . S
C129 H126 0.931 . S
C129 C130 1.413 . S
C129 C131 1.360 . S
C130 C129 1.413 . S
C130 C134 1.429 . S
C131 C129 1.360 . S
C131 C132 1.372 . S
C132 H127 0.928 . S
C132 C131 1.372 . S
C132 C133 1.404 . S
C133 C132 1.404 . S
C133 C134 1.391 . S
C134 H128 0.930 . S
C134 C130 1.429 . S
C134 C133 1.391 . S
H135 C138 0.931 . S
H136 C141 0.928 . S
H137 C143 0.930 . S
C138 H135 0.931 . S
C138 C139 1.413 . S
C138 C140 1.360 . S
C139 C138 1.413 . S
C139 C143 1.429 . S
C140 C138 1.360 . S
C140 C141 1.372 . S
C141 H136 0.928 . S
C141 C140 1.372 . S
C141 C142 1.404 . S
C142 C141 1.404 . S
C142 C143 1.391 . S
C143 H137 0.930 . S
C143 C139 1.429 . S
C143 C142 1.391 . S
Zn144 O147 2.025 1_556 S
Zn144 O149 2.054 . S
Zn144 O154 2.076 . S
Zn145 O146 1.962 . S
Zn145 O148 1.986 . S
Zn145 O150 1.996 . S
Zn145 O153 1.943 1_554 S
O146 Zn145 1.962 . S
O146 C151 1.254 . S
O147 Zn144 2.025 1_554 S
O147 C151 1.269 . S
O148 Zn145 1.986 . S
O148 C155 1.262 . S
O149 Zn144 2.054 . S
O149 C157 1.260 . S
O150 Zn145 1.996 . S
O150 C157 1.257 1_554 S
C151 O146 1.254 . S
C151 O147 1.269 . S
C152 O153 1.249 . S
C152 O154 1.270 . S
O153 Zn145 1.943 1_556 S
O153 C152 1.249 . S
O154 Zn144 2.076 . S
O154 C152 1.270 . S
C155 O148 1.262 . S
C155 O156 1.232 . S
O156 C155 1.232 . S
C157 O149 1.260 . S
C157 O150 1.257 1_556 S
Zn158 O161 2.031 . S
Zn158 O163 2.049 . S
Zn158 O168 2.067 . S
Zn159 O160 1.962 . S
Zn159 O162 1.986 . S
Zn159 O164 1.996 . S
Zn159 O167 1.943 . S
O160 Zn159 1.962 . S
O160 C165 1.254 . S
O161 Zn158 2.031 . S
O161 C165 1.269 . S
O162 Zn159 1.986 . S
O162 C169 1.262 . S
O163 Zn158 2.049 . S
O163 C171 1.260 . S
O164 Zn159 1.996 . S
O164 C171 1.257 . S
C165 O160 1.254 . S
C165 O161 1.269 . S
C166 O167 1.249 . S
C166 O168 1.270 . S
O167 Zn159 1.943 . S
O167 C166 1.249 . S
O168 Zn158 2.067 . S
O168 C166 1.270 . S
C169 O162 1.262 . S
C169 O170 1.232 . S
O170 C169 1.232 . S
C171 O163 1.260 . S
C171 O164 1.257 . S
Zn172 O175 2.031 . S
Zn172 O177 2.049 . S
Zn172 O182 2.067 . S
Zn173 O174 1.962 . S
Zn173 O176 1.986 . S
Zn173 O178 1.996 1_554 S
Zn173 O181 1.943 . S
O174 Zn173 1.962 . S
O174 C179 1.254 . S
O175 Zn172 2.031 . S
O175 C179 1.269 1_556 S
O176 Zn173 1.986 . S
O176 C183 1.262 . S
O177 Zn172 2.049 . S
O177 C185 1.260 . S
O178 Zn173 1.996 1_556 S
O178 C185 1.257 . S
C179 O174 1.254 . S
C179 O175 1.269 1_554 S
C180 O181 1.249 1_556 S
C180 O182 1.270 . S
O181 Zn173 1.943 . S
O181 C180 1.249 1_554 S
O182 Zn172 2.067 . S
O182 C180 1.270 . S
C183 O176 1.262 . S
C183 O184 1.232 . S
O184 C183 1.232 . S
C185 O177 1.260 . S
C185 O178 1.257 . S
Zn186 O189 2.040 . S
Zn186 O191 2.043 1_545 S
Zn186 O196 2.055 1_545 S
Zn187 O188 1.962 . S
Zn187 O190 1.986 . S
Zn187 O192 1.996 . S
Zn187 O195 1.943 1_545 S
O188 Zn187 1.962 . S
O188 C193 1.254 . S
O189 Zn186 2.040 . S
O189 C193 1.269 . S
O190 Zn187 1.986 . S
O190 C197 1.262 . S
O191 Zn186 2.043 1_565 S
O191 C199 1.260 . S
O192 Zn187 1.996 . S
O192 C199 1.257 1_545 S
C193 O188 1.254 . S
C193 O189 1.269 . S
C194 O195 1.249 . S
C194 O196 1.270 . S
O195 Zn187 1.943 1_565 S
O195 C194 1.249 . S
O196 Zn186 2.055 1_565 S
O196 C194 1.270 . S
C197 O190 1.262 . S
C197 O198 1.232 . S
O198 C197 1.232 . S
C199 O191 1.260 . S
C199 O192 1.257 1_565 S
Zn200 O203 2.031 . S
Zn200 O205 2.049 . S
Zn200 O210 2.067 . S
Zn201 O202 1.962 . S
Zn201 O204 1.986 . S
Zn201 O206 1.996 . S
Zn201 O209 1.943 . S
O202 Zn201 1.962 . S
O202 C207 1.254 . S
O203 Zn200 2.031 . S
O203 C207 1.269 . S
O204 Zn201 1.986 . S
O204 C211 1.262 . S
O205 Zn200 2.049 . S
O205 C213 1.260 . S
O206 Zn201 1.996 . S
O206 C213 1.257 . S
C207 O202 1.254 . S
C207 O203 1.269 . S
C208 O209 1.249 . S
C208 O210 1.270 . S
O209 Zn201 1.943 . S
O209 C208 1.249 . S
O210 Zn200 2.067 . S
O210 C208 1.270 . S
C211 O204 1.262 . S
C211 O212 1.232 . S
O212 C211 1.232 . S
C213 O205 1.260 . S
C213 O206 1.257 . S
Zn214 O217 2.031 . S
Zn214 O219 2.049 . S
Zn214 O224 2.067 . S
Zn215 O216 1.962 . S
Zn215 O218 1.986 . S
Zn215 O220 1.996 . S
Zn215 O223 1.943 . S
O216 Zn215 1.962 . S
O216 C221 1.254 . S
O217 Zn214 2.031 . S
O217 C221 1.269 . S
O218 Zn215 1.986 . S
O218 C225 1.262 . S
O219 Zn214 2.049 . S
O219 C227 1.260 . S
O220 Zn215 1.996 . S
O220 C227 1.257 . S
C221 O216 1.254 . S
C221 O217 1.269 . S
C222 O223 1.249 . S
C222 O224 1.270 . S
O223 Zn215 1.943 . S
O223 C222 1.249 . S
O224 Zn214 2.067 . S
O224 C222 1.270 . S
C225 O218 1.262 . S
C225 O226 1.232 . S
O226 C225 1.232 . S
C227 O219 1.260 . S
C227 O220 1.257 . S
Zn228 O231 2.031 . S
Zn228 O233 2.049 . S
Zn228 O238 2.067 . S
Zn229 O230 1.962 . S
Zn229 O232 1.986 . S
Zn229 O234 1.996 . S
Zn229 O237 1.943 . S
O230 Zn229 1.962 . S
O230 C235 1.254 . S
O231 Zn228 2.031 . S
O231 C235 1.269 . S
O232 Zn229 1.986 . S
O232 C239 1.262 . S
O233 Zn228 2.049 . S
O233 C241 1.260 . S
O234 Zn229 1.996 . S
O234 C241 1.257 . S
C235 O230 1.254 . S
C235 O231 1.269 . S
C236 O237 1.249 . S
C236 O238 1.270 . S
O237 Zn229 1.943 . S
O237 C236 1.249 . S
O238 Zn228 2.067 . S
O238 C236 1.270 . S
C239 O232 1.262 . S
C239 O240 1.232 . S
O240 C239 1.232 . S
C241 O233 1.260 . S
C241 O234 1.257 . S
Zn242 O245 2.031 . S
Zn242 O247 2.049 . S
Zn242 O252 2.067 . S
Zn243 O244 1.962 . S
Zn243 O246 1.986 . S
Zn243 O248 1.996 1_545 S
Zn243 O251 1.943 . S
O244 Zn243 1.962 . S
O244 C249 1.254 . S
O245 Zn242 2.031 . S
O245 C249 1.269 1_565 S
O246 Zn243 1.986 . S
O246 C253 1.262 . S
O247 Zn242 2.049 . S
O247 C255 1.260 . S
O248 Zn243 1.996 1_565 S
O248 C255 1.257 . S
C249 O244 1.254 . S
C249 O245 1.269 1_545 S
C250 O251 1.249 1_565 S
C250 O252 1.270 . S
O251 Zn243 1.943 . S
O251 C250 1.249 1_545 S
O252 Zn242 2.067 . S
O252 C250 1.270 . S
C253 O246 1.262 . S
C253 O254 1.232 . S
O254 C253 1.232 . S
C255 O247 1.260 . S
C255 O248 1.257 . S
Zn256 O259 2.035 1_655 S
Zn256 O261 2.047 . S
Zn256 O266 2.062 . S
Zn257 O258 1.962 . S
Zn257 O260 1.986 . S
Zn257 O262 1.996 . S
Zn257 O265 1.943 1_455 S
O258 Zn257 1.962 . S
O258 C263 1.254 . S
O259 Zn256 2.035 1_455 S
O259 C263 1.269 . S
O260 Zn257 1.986 . S
O260 C267 1.262 . S
O261 Zn256 2.047 . S
O261 C269 1.260 . S
O262 Zn257 1.996 . S
O262 C269 1.257 1_455 S
C263 O258 1.254 . S
C263 O259 1.269 . S
C264 O265 1.249 . S
C264 O266 1.270 . S
O265 Zn257 1.943 1_655 S
O265 C264 1.249 . S
O266 Zn256 2.062 . S
O266 C264 1.270 . S
C267 O260 1.262 . S
C267 O268 1.232 . S
O268 C267 1.232 . S
C269 O261 1.260 . S
C269 O262 1.257 1_655 S
Zn270 O273 2.031 . S
Zn270 O275 2.049 . S
Zn270 O280 2.067 . S
Zn271 O272 1.962 . S
Zn271 O274 1.986 . S
Zn271 O276 1.996 . S
Zn271 O279 1.943 . S
O272 Zn271 1.962 . S
O272 C277 1.254 . S
O273 Zn270 2.031 . S
O273 C277 1.269 . S
O274 Zn271 1.986 . S
O274 C281 1.262 . S
O275 Zn270 2.049 . S
O275 C283 1.260 . S
O276 Zn271 1.996 . S
O276 C283 1.257 . S
C277 O272 1.254 . S
C277 O273 1.269 . S
C278 O279 1.249 . S
C278 O280 1.270 . S
O279 Zn271 1.943 . S
O279 C278 1.249 . S
O280 Zn270 2.067 . S
O280 C278 1.270 . S
C281 O274 1.262 . S
C281 O282 1.232 . S
O282 C281 1.232 . S
C283 O275 1.260 . S
C283 O276 1.257 . S
Zn284 O287 2.031 . S
Zn284 O289 2.049 . S
Zn284 O294 2.067 . S
Zn285 O286 1.962 . S
Zn285 O288 1.986 . S
Zn285 O290 1.996 1_455 S
Zn285 O293 1.943 . S
O286 Zn285 1.962 . S
O286 C291 1.254 . S
O287 Zn284 2.031 . S
O287 C291 1.269 1_655 S
O288 Zn285 1.986 . S
O288 C295 1.262 . S
O289 Zn284 2.049 . S
O289 C297 1.260 . S
O290 Zn285 1.996 1_655 S
O290 C297 1.257 . S
C291 O286 1.254 . S
C291 O287 1.269 1_455 S
C292 O293 1.249 1_655 S
C292 O294 1.270 . S
O293 Zn285 1.943 . S
O293 C292 1.249 1_455 S
O294 Zn284 2.067 . S
O294 C292 1.270 . S
C295 O288 1.262 . S
C295 O296 1.232 . S
O296 C295 1.232 . S
C297 O289 1.260 . S
C297 O290 1.257 . S
Zn298 O301 2.031 . S
Zn298 O303 2.049 . S
Zn298 O308 2.067 . S
Zn299 O300 1.962 . S
Zn299 O302 1.986 . S
Zn299 O304 1.996 . S
Zn299 O307 1.943 . S
O300 Zn299 1.962 . S
O300 C305 1.254 . S
O301 Zn298 2.031 . S
O301 C305 1.269 . S
O302 Zn299 1.986 . S
O302 C309 1.262 . S
O303 Zn298 2.049 . S
O303 C311 1.260 . S
O304 Zn299 1.996 . S
O304 C311 1.257 . S
C305 O300 1.254 . S
C305 O301 1.269 . S
C306 O307 1.249 . S
C306 O308 1.270 . S
O307 Zn299 1.943 . S
O307 C306 1.249 . S
O308 Zn298 2.067 . S
O308 C306 1.270 . S
C309 O302 1.262 . S
C309 O310 1.232 . S
O310 C309 1.232 . S
C311 O303 1.260 . S
C311 O304 1.257 . S
C312 C313 1.349 . S
C312 C314 1.327 . S
C312 H337 0.950 . S
C313 C312 1.349 . S
C313 C329 1.349 . S
C314 C312 1.327 . S
C314 C333 1.429 . S
C314 H338 0.950 . S
C315 C332 1.574 . S
C315 C334 1.368 . S
C315 H339 0.949 . S
H316 C320 0.949 . S
C317 C318 1.349 . S
C317 C319 1.327 . S
C317 H340 0.950 . S
C318 C317 1.349 . S
C318 C330 1.349 . S
C319 C317 1.327 . S
C319 C335 1.429 . S
C319 H341 0.950 . S
C320 H316 0.949 . S
C320 C328 1.574 . S
C320 C336 1.368 . S
H321 C329 0.950 . S
H322 C327 0.950 . S
H323 C328 0.949 . S
H324 C330 0.950 . S
H325 C331 0.950 . S
H326 C332 0.949 . S
C327 H322 0.950 . S
C327 C329 1.327 . S
C327 C333 1.429 . S
C328 C320 1.574 . S
C328 H323 0.949 . S
C328 C334 1.368 . S
C329 C313 1.349 . S
C329 H321 0.950 . S
C329 C327 1.327 . S
C330 C318 1.349 . S
C330 H324 0.950 . S
C330 C331 1.327 . S
C331 H325 0.950 . S
C331 C330 1.327 . S
C331 C335 1.429 . S
C332 C315 1.574 . S
C332 H326 0.949 . S
C332 C336 1.368 . S
C333 C314 1.429 . S
C333 C327 1.429 . S
C333 C334 1.523 . S
C334 C315 1.368 . S
C334 C328 1.368 . S
C334 C333 1.523 . S
C335 C319 1.429 . S
C335 C331 1.429 . S
C335 C336 1.523 . S
C336 C320 1.368 . S
C336 C332 1.368 . S
C336 C335 1.523 . S
H337 C312 0.950 . S
H338 C314 0.950 . S
H339 C315 0.949 . S
H340 C317 0.950 . S
H341 C319 0.950 . S
C342 C343 1.349 . S
C342 C344 1.327 1_655 S
C342 H367 0.950 . S
C343 C342 1.349 . S
C343 C359 1.349 . S
C344 C342 1.327 1_455 S
C344 C363 1.429 . S
C344 H368 0.950 . S
C345 C362 1.574 . S
C345 C364 1.368 . S
C345 H369 0.949 . S
H346 C350 0.949 . S
C347 C348 1.349 . S
C347 C349 1.327 . S
C347 H370 0.950 . S
C348 C347 1.349 . S
C348 C360 1.349 . S
C349 C347 1.327 . S
C349 C365 1.429 . S
C349 H371 0.950 . S
C350 H346 0.949 . S
C350 C358 1.574 . S
C350 C366 1.368 . S
H351 C359 0.950 . S
H352 C357 0.950 . S
H353 C358 0.949 . S
H354 C360 0.950 . S
H355 C361 0.950 . S
H356 C362 0.949 . S
C357 H352 0.950 . S
C357 C359 1.327 . S
C357 C363 1.429 1_655 S
C358 C350 1.574 . S
C358 H353 0.949 . S
C358 C364 1.368 . S
C359 C343 1.349 . S
C359 H351 0.950 . S
C359 C357 1.327 . S
C360 C348 1.349 . S
C360 H354 0.950 . S
C360 C361 1.327 . S
C361 H355 0.950 . S
C361 C360 1.327 . S
C361 C365 1.429 . S
C362 C345 1.574 . S
C362 H356 0.949 . S
C362 C366 1.368 . S
C363 C344 1.429 . S
C363 C357 1.429 1_455 S
C363 C364 1.523 . S
C364 C345 1.368 . S
C364 C358 1.368 . S
C364 C363 1.523 . S
C365 C349 1.429 . S
C365 C361 1.429 . S
C365 C366 1.523 . S
C366 C350 1.368 . S
C366 C362 1.368 . S
C366 C365 1.523 . S
H367 C342 0.950 . S
H368 C344 0.950 . S
H369 C345 0.949 . S
H370 C347 0.950 . S
H371 C349 0.950 . S
C372 C373 1.349 . S
C372 C374 1.327 . S
C372 H397 0.950 . S
C373 C372 1.349 . S
C373 C389 1.349 . S
C374 C372 1.327 . S
C374 C393 1.429 . S
C374 H398 0.950 . S
C375 C392 1.574 . S
C375 C394 1.368 . S
C375 H399 0.949 . S
H376 C380 0.949 . S
C377 C378 1.349 . S
C377 C379 1.327 . S
C377 H400 0.950 . S
C378 C377 1.349 . S
C378 C390 1.349 . S
C379 C377 1.327 . S
C379 C395 1.429 . S
C379 H401 0.950 . S
C380 H376 0.949 . S
C380 C388 1.574 . S
C380 C396 1.368 . S
H381 C389 0.950 . S
H382 C387 0.950 . S
H383 C388 0.949 . S
H384 C390 0.950 . S
H385 C391 0.950 . S
H386 C392 0.949 . S
C387 H382 0.950 . S
C387 C389 1.327 . S
C387 C393 1.429 . S
C388 C380 1.574 . S
C388 H383 0.949 . S
C388 C394 1.368 . S
C389 C373 1.349 . S
C389 H381 0.950 . S
C389 C387 1.327 . S
C390 C378 1.349 . S
C390 H384 0.950 . S
C390 C391 1.327 . S
C391 H385 0.950 . S
C391 C390 1.327 . S
C391 C395 1.429 . S
C392 C375 1.574 . S
C392 H386 0.949 . S
C392 C396 1.368 . S
C393 C374 1.429 . S
C393 C387 1.429 . S
C393 C394 1.523 . S
C394 C375 1.368 . S
C394 C388 1.368 . S
C394 C393 1.523 . S
C395 C379 1.429 . S
C395 C391 1.429 . S
C395 C396 1.523 . S
C396 C380 1.368 . S
C396 C392 1.368 . S
C396 C395 1.523 . S
H397 C372 0.950 . S
H398 C374 0.950 . S
H399 C375 0.949 . S
H400 C377 0.950 . S
H401 C379 0.950 . S
C402 C403 1.349 . S
C402 C404 1.327 . S
C402 H427 0.950 . S
C403 C402 1.349 . S
C403 C419 1.349 . S
C404 C402 1.327 . S
C404 C423 1.429 . S
C404 H428 0.950 1_455 S
C405 C422 1.574 . S
C405 C424 1.368 . S
C405 H429 0.981 . S
H406 C410 0.949 . S
C407 C408 1.349 1_545 S
C407 C409 1.326 . S
C407 H430 0.950 . S
C408 C407 1.349 1_565 S
C408 C420 1.349 . S
C409 C407 1.326 . S
C409 C425 1.434 1_545 S
C409 H431 0.945 . S
C410 H406 0.949 . S
C410 C418 1.574 . S
C410 C426 1.368 . S
H411 C419 0.950 . S
H412 C417 0.950 . S
H413 C418 0.949 . S
H414 C420 0.950 . S
H415 C421 0.950 . S
H416 C422 0.949 1_545 S
C417 H412 0.950 . S
C417 C419 1.327 . S
C417 C423 1.429 . S
C418 C410 1.574 . S
C418 H413 0.949 . S
C418 C424 1.368 . S
C419 C403 1.349 . S
C419 H411 0.950 . S
C419 C417 1.327 . S
C420 C408 1.349 . S
C420 H414 0.950 . S
C420 C421 1.327 . S
C421 H415 0.950 . S
C421 C420 1.327 . S
C421 C425 1.429 . S
C422 C405 1.574 . S
C422 H416 0.949 1_565 S
C422 C426 1.368 . S
C423 C404 1.429 . S
C423 C417 1.429 . S
C423 C424 1.523 1_455 S
C424 C405 1.368 . S
C424 C418 1.368 . S
C424 C423 1.523 1_655 S
C425 C409 1.434 1_565 S
C425 C421 1.429 . S
C425 C426 1.523 . S
C426 C410 1.368 . S
C426 C422 1.368 . S
C426 C425 1.523 . S
H427 C402 0.950 . S
H428 C404 0.950 1_655 S
H429 C405 0.981 . S
H430 C407 0.950 . S
H431 C409 0.945 . S
C432 C433 1.349 . S
C432 C434 1.327 . S
C432 H457 0.950 . S
C433 C432 1.349 . S
C433 C449 1.349 . S
C434 C432 1.327 . S
C434 C453 1.429 . S
C434 H458 0.950 . S
C435 C452 1.574 . S
C435 C454 1.368 . S
C435 H459 0.949 . S
H436 C440 0.949 . S
C437 C438 1.349 . S
C437 C439 1.327 . S
C437 H460 0.950 . S
C438 C437 1.349 . S
C438 C450 1.349 . S
C439 C437 1.327 . S
C439 C455 1.429 . S
C439 H461 0.950 . S
C440 H436 0.949 . S
C440 C448 1.574 . S
C440 C456 1.368 . S
H441 C449 0.950 . S
H442 C447 0.950 . S
H443 C448 0.949 . S
H444 C450 0.950 . S
H445 C451 0.950 . S
H446 C452 0.949 . S
C447 H442 0.950 . S
C447 C449 1.327 . S
C447 C453 1.429 . S
C448 C440 1.574 . S
C448 H443 0.949 . S
C448 C454 1.368 . S
C449 C433 1.349 . S
C449 H441 0.950 . S
C449 C447 1.327 . S
C450 C438 1.349 . S
C450 H444 0.950 . S
C450 C451 1.327 . S
C451 H445 0.950 . S
C451 C450 1.327 . S
C451 C455 1.429 . S
C452 C435 1.574 . S
C452 H446 0.949 . S
C452 C456 1.368 . S
C453 C434 1.429 . S
C453 C447 1.429 . S
C453 C454 1.523 . S
C454 C435 1.368 . S
C454 C448 1.368 . S
C454 C453 1.523 . S
C455 C439 1.429 . S
C455 C451 1.429 . S
C455 C456 1.523 . S
C456 C440 1.368 . S
C456 C452 1.368 . S
C456 C455 1.523 . S
H457 C432 0.950 . S
H458 C434 0.950 . S
H459 C435 0.949 . S
H460 C437 0.950 . S
H461 C439 0.950 . S
C462 C463 1.349 . S
C462 C464 1.327 . S
C462 H487 0.950 . S
C463 C462 1.349 . S
C463 C479 1.349 . S
C464 C462 1.327 . S
C464 C483 1.429 . S
C464 H488 0.950 . S
C465 C482 1.574 . S
C465 C484 1.368 . S
C465 H489 0.949 . S
H466 C470 0.949 . S
C467 C468 1.349 . S
C467 C469 1.327 . S
C467 H490 0.950 . S
C468 C467 1.349 . S
C468 C480 1.349 . S
C469 C467 1.327 . S
C469 C485 1.429 . S
C469 H491 0.950 . S
C470 H466 0.949 . S
C470 C478 1.574 . S
C470 C486 1.368 . S
H471 C479 0.950 . S
H472 C477 0.950 . S
H473 C478 0.949 . S
H474 C480 0.950 . S
H475 C481 0.950 . S
H476 C482 0.949 . S
C477 H472 0.950 . S
C477 C479 1.327 . S
C477 C483 1.429 . S
C478 C470 1.574 . S
C478 H473 0.949 . S
C478 C484 1.368 . S
C479 C463 1.349 . S
C479 H471 0.950 . S
C479 C477 1.327 . S
C480 C468 1.349 . S
C480 H474 0.950 . S
C480 C481 1.327 . S
C481 H475 0.950 . S
C481 C480 1.327 . S
C481 C485 1.429 . S
C482 C465 1.574 . S
C482 H476 0.949 . S
C482 C486 1.368 . S
C483 C464 1.429 . S
C483 C477 1.429 . S
C483 C484 1.523 . S
C484 C465 1.368 . S
C484 C478 1.368 . S
C484 C483 1.523 . S
C485 C469 1.429 . S
C485 C481 1.429 . S
C485 C486 1.523 . S
C486 C470 1.368 . S
C486 C482 1.368 . S
C486 C485 1.523 . S
H487 C462 0.950 . S
H488 C464 0.950 . S
H489 C465 0.949 . S
H490 C467 0.950 . S
H491 C469 0.950 . S
C492 C493 1.349 . S
C492 C494 1.327 . S
C492 H517 0.950 . S
C493 C492 1.349 . S
C493 C509 1.349 . S
C494 C492 1.327 . S
C494 C513 1.429 . S
C494 H518 0.950 . S
C495 C512 1.574 . S
C495 C514 1.368 . S
C495 H519 0.949 . S
H496 C500 0.949 . S
C497 C498 1.349 . S
C497 C499 1.327 . S
C497 H520 0.950 . S
C498 C497 1.349 . S
C498 C510 1.349 . S
C499 C497 1.327 . S
C499 C515 1.429 . S
C499 H521 0.950 . S
C500 H496 0.949 . S
C500 C508 1.574 . S
C500 C516 1.368 . S
H501 C509 0.950 . S
H502 C507 0.950 . S
H503 C508 0.949 . S
H504 C510 0.950 . S
H505 C511 0.950 . S
H506 C512 0.949 . S
C507 H502 0.950 . S
C507 C509 1.327 . S
C507 C513 1.429 . S
C508 C500 1.574 . S
C508 H503 0.949 . S
C508 C514 1.368 . S
C509 C493 1.349 . S
C509 H501 0.950 . S
C509 C507 1.327 . S
C510 C498 1.349 . S
C510 H504 0.950 . S
C510 C511 1.327 . S
C511 H505 0.950 . S
C511 C510 1.327 . S
C511 C515 1.429 . S
C512 C495 1.574 . S
C512 H506 0.949 . S
C512 C516 1.368 . S
C513 C494 1.429 . S
C513 C507 1.429 . S
C513 C514 1.523 . S
C514 C495 1.368 . S
C514 C508 1.368 . S
C514 C513 1.523 . S
C515 C499 1.429 . S
C515 C511 1.429 . S
C515 C516 1.523 . S
C516 C500 1.368 . S
C516 C512 1.368 . S
C516 C515 1.523 . S
H517 C492 0.950 . S
H518 C494 0.950 . S
H519 C495 0.949 . S
H520 C497 0.950 . S
H521 C499 0.950 . S
C522 C523 1.349 . S
C522 C524 1.327 . S
C522 H547 0.950 . S
C523 C522 1.349 . S
C523 C539 1.349 . S
C524 C522 1.327 . S
C524 C543 1.429 . S
C524 H548 0.950 . S
C525 C542 1.574 . S
C525 C544 1.368 . S
C525 H549 0.949 . S
H526 C530 0.949 1_545 S
C527 C528 1.349 . S
C527 C529 1.327 . S
C527 H550 0.950 . S
C528 C527 1.349 . S
C528 C540 1.349 1_565 S
C529 C527 1.327 . S
C529 C545 1.429 . S
C529 H551 0.950 . S
C530 H526 0.949 1_565 S
C530 C538 1.574 . S
C530 C546 1.368 . S
H531 C539 0.950 . S
H532 C537 0.950 . S
H533 C538 0.958 . S
H534 C540 0.950 . S
H535 C541 0.950 . S
H536 C542 0.949 . S
C537 H532 0.950 . S
C537 C539 1.327 . S
C537 C543 1.429 . S
C538 C530 1.574 . S
C538 H533 0.958 . S
C538 C544 1.368 . S
C539 C523 1.349 . S
C539 H531 0.950 . S
C539 C537 1.327 . S
C540 C528 1.349 1_545 S
C540 H534 0.950 . S
C540 C541 1.327 . S
C541 H535 0.950 . S
C541 C540 1.327 . S
C541 C545 1.429 1_545 S
C542 C525 1.574 . S
C542 H536 0.949 . S
C542 C546 1.368 . S
C543 C524 1.429 . S
C543 C537 1.429 . S
C543 C544 1.523 . S
C544 C525 1.368 . S
C544 C538 1.368 . S
C544 C543 1.523 . S
C545 C529 1.429 . S
C545 C541 1.429 1_565 S
C545 C546 1.523 . S
C546 C530 1.368 . S
C546 C542 1.368 . S
C546 C545 1.523 . S
H547 C522 0.950 . S
H548 C524 0.950 . S
H549 C525 0.949 . S
H550 C527 0.950 . S
H551 C529 0.950 . S
C552 C553 1.349 . S
C552 C554 1.327 . S
C552 H577 0.950 . S
C553 C552 1.349 . S
C553 C569 1.349 . S
C554 C552 1.327 . S
C554 C573 1.429 . S
C554 H578 0.950 . S
C555 C572 1.574 . S
C555 C574 1.368 . S
C555 H579 0.949 . S
H556 C560 0.949 . S
C557 C558 1.349 . S
C557 C559 1.327 . S
C557 H580 0.950 . S
C558 C557 1.349 . S
C558 C570 1.349 . S
C559 C557 1.327 . S
C559 C575 1.429 . S
C559 H581 0.950 . S
C560 H556 0.949 . S
C560 C568 1.574 . S
C560 C576 1.368 . S
H561 C569 0.950 . S
H562 C567 0.950 . S
H563 C568 0.949 . S
H564 C570 0.950 . S
H565 C571 0.950 . S
H566 C572 0.949 . S
C567 H562 0.950 . S
C567 C569 1.327 . S
C567 C573 1.429 . S
C568 C560 1.574 . S
C568 H563 0.949 . S
C568 C574 1.368 . S
C569 C553 1.349 . S
C569 H561 0.950 . S
C569 C567 1.327 . S
C570 C558 1.349 . S
C570 H564 0.950 . S
C570 C571 1.327 . S
C571 H565 0.950 . S
C571 C570 1.327 . S
C571 C575 1.429 . S
C572 C555 1.574 . S
C572 H566 0.949 . S
C572 C576 1.368 . S
C573 C554 1.429 . S
C573 C567 1.429 . S
C573 C574 1.523 . S
C574 C555 1.368 . S
C574 C568 1.368 . S
C574 C573 1.523 . S
C575 C559 1.429 . S
C575 C571 1.429 . S
C575 C576 1.523 . S
C576 C560 1.368 . S
C576 C572 1.368 . S
C576 C575 1.523 . S
H577 C552 0.950 . S
H578 C554 0.950 . S
H579 C555 0.949 . S
H580 C557 0.950 . S
H581 C559 0.950 . S
C582 C583 1.349 . S
C582 C584 1.327 . S
C582 H607 0.950 . S
C583 C582 1.349 . S
C583 C599 1.349 . S
C584 C582 1.327 . S
C584 C603 1.429 . S
C584 H608 0.950 . S
C585 C602 1.574 . S
C585 C604 1.368 . S
C585 H609 0.949 . S
H586 C590 0.949 . S
C587 C588 1.349 . S
C587 C589 1.327 . S
C587 H610 0.950 . S
C588 C587 1.349 . S
C588 C600 1.349 . S
C589 C587 1.327 . S
C589 C605 1.429 . S
C589 H611 0.950 . S
C590 H586 0.949 . S
C590 C598 1.574 . S
C590 C606 1.368 . S
H591 C599 0.950 . S
H592 C597 0.950 . S
H593 C598 0.949 . S
H594 C600 0.950 . S
H595 C601 0.950 . S
H596 C602 0.949 . S
C597 H592 0.950 . S
C597 C599 1.327 . S
C597 C603 1.429 . S
C598 C590 1.574 . S
C598 H593 0.949 . S
C598 C604 1.368 . S
C599 C583 1.349 . S
C599 H591 0.950 . S
C599 C597 1.327 . S
C600 C588 1.349 . S
C600 H594 0.950 . S
C600 C601 1.327 . S
C601 H595 0.950 . S
C601 C600 1.327 . S
C601 C605 1.429 . S
C602 C585 1.574 . S
C602 H596 0.949 . S
C602 C606 1.368 . S
C603 C584 1.429 . S
C603 C597 1.429 . S
C603 C604 1.523 . S
C604 C585 1.368 . S
C604 C598 1.368 . S
C604 C603 1.523 . S
C605 C589 1.429 . S
C605 C601 1.429 . S
C605 C606 1.523 . S
C606 C590 1.368 . S
C606 C602 1.368 . S
C606 C605 1.523 . S
H607 C582 0.950 . S
H608 C584 0.950 . S
H609 C585 0.949 . S
H610 C587 0.950 . S
H611 C589 0.950 . S
C612 C613 1.349 . S
C612 C614 1.327 . S
C612 H637 0.950 . S
C613 C612 1.349 . S
C613 C629 1.349 . S
C614 C612 1.327 . S
C614 C633 1.429 . S
C614 H638 0.950 . S
C615 C632 1.574 . S
C615 C634 1.368 . S
C615 H639 0.949 . S
H616 C620 0.949 . S
C617 C618 1.349 . S
C617 C619 1.327 . S
C617 H640 0.950 . S
C618 C617 1.349 . S
C618 C630 1.349 . S
C619 C617 1.327 . S
C619 C635 1.429 . S
C619 H641 0.950 . S
C620 H616 0.949 . S
C620 C628 1.574 . S
C620 C636 1.368 . S
H621 C629 0.950 . S
H622 C627 0.950 . S
H623 C628 0.949 . S
H624 C630 0.950 . S
H625 C631 0.950 . S
H626 C632 0.949 . S
C627 H622 0.950 . S
C627 C629 1.327 . S
C627 C633 1.429 . S
C628 C620 1.574 . S
C628 H623 0.949 . S
C628 C634 1.368 . S
C629 C613 1.349 . S
C629 H621 0.950 . S
C629 C627 1.327 . S
C630 C618 1.349 . S
C630 H624 0.950 . S
C630 C631 1.327 . S
C631 H625 0.950 . S
C631 C630 1.327 . S
C631 C635 1.429 . S
C632 C615 1.574 . S
C632 H626 0.949 . S
C632 C636 1.368 . S
C633 C614 1.429 . S
C633 C627 1.429 . S
C633 C634 1.523 . S
C634 C615 1.368 . S
C634 C628 1.368 . S
C634 C633 1.523 . S
C635 C619 1.429 . S
C635 C631 1.429 . S
C635 C636 1.523 . S
C636 C620 1.368 . S
C636 C632 1.368 . S
C636 C635 1.523 . S
H637 C612 0.950 . S
H638 C614 0.950 . S
H639 C615 0.949 . S
H640 C617 0.950 . S
H641 C619 0.950 . S
C642 C643 1.349 . S
C642 C644 1.327 . S
C642 H667 0.950 . S
C643 C642 1.349 . S
C643 C659 1.349 . S
C644 C642 1.327 . S
C644 C663 1.429 . S
C644 H668 0.950 . S
C645 C662 1.574 . S
C645 C664 1.368 . S
C645 H669 0.949 . S
H646 C650 0.949 . S
C647 C648 1.349 . S
C647 C649 1.327 . S
C647 H670 0.950 . S
C648 C647 1.349 . S
C648 C660 1.349 . S
C649 C647 1.327 . S
C649 C665 1.429 . S
C649 H671 0.950 . S
C650 H646 0.949 . S
C650 C658 1.574 . S
C650 C666 1.368 . S
H651 C659 0.950 . S
H652 C657 0.950 . S
H653 C658 0.949 . S
H654 C660 0.950 . S
H655 C661 0.950 . S
H656 C662 0.949 . S
C657 H652 0.950 . S
C657 C659 1.327 . S
C657 C663 1.429 . S
C658 C650 1.574 . S
C658 H653 0.949 . S
C658 C664 1.368 . S
C659 C643 1.349 . S
C659 H651 0.950 . S
C659 C657 1.327 . S
C660 C648 1.349 . S
C660 H654 0.950 . S
C660 C661 1.327 . S
C661 H655 0.950 . S
C661 C660 1.327 . S
C661 C665 1.429 . S
C662 C645 1.574 . S
C662 H656 0.949 . S
C662 C666 1.368 . S
C663 C644 1.429 . S
C663 C657 1.429 . S
C663 C664 1.523 . S
C664 C645 1.368 . S
C664 C658 1.368 . S
C664 C663 1.523 . S
C665 C649 1.429 . S
C665 C661 1.429 . S
C665 C666 1.523 . S
C666 C650 1.368 . S
C666 C662 1.368 . S
C666 C665 1.523 . S
H667 C642 0.950 . S
H668 C644 0.950 . S
H669 C645 0.949 . S
H670 C647 0.950 . S
H671 C649 0.950 . S
C672 C673 1.349 . S
C672 C674 1.327 . S
C672 H697 0.950 . S
C673 C672 1.349 . S
C673 C689 1.349 . S
C674 C672 1.327 . S
C674 C693 1.429 . S
C674 H698 0.950 . S
C675 C692 1.574 . S
C675 C694 1.368 . S
C675 H699 0.949 . S
H676 C680 0.949 . S
C677 C678 1.349 . S
C677 C679 1.327 . S
C677 H700 0.950 . S
C678 C677 1.349 . S
C678 C690 1.349 . S
C679 C677 1.327 . S
C679 C695 1.429 . S
C679 H701 0.950 . S
C680 H676 0.949 . S
C680 C688 1.574 . S
C680 C696 1.368 . S
H681 C689 0.950 . S
H682 C687 0.950 . S
H683 C688 0.949 . S
H684 C690 0.950 . S
H685 C691 0.950 . S
H686 C692 0.949 . S
C687 H682 0.950 . S
C687 C689 1.327 . S
C687 C693 1.429 . S
C688 C680 1.574 . S
C688 H683 0.949 . S
C688 C694 1.368 . S
C689 C673 1.349 . S
C689 H681 0.950 . S
C689 C687 1.327 . S
C690 C678 1.349 . S
C690 H684 0.950 . S
C690 C691 1.327 . S
C691 H685 0.950 . S
C691 C690 1.327 . S
C691 C695 1.429 . S
C692 C675 1.574 . S
C692 H686 0.949 . S
C692 C696 1.368 . S
C693 C674 1.429 . S
C693 C687 1.429 . S
C693 C694 1.523 . S
C694 C675 1.368 . S
C694 C688 1.368 . S
C694 C693 1.523 . S
C695 C679 1.429 . S
C695 C691 1.429 . S
C695 C696 1.523 . S
C696 C680 1.368 . S
C696 C692 1.368 . S
C696 C695 1.523 . S
H697 C672 0.950 . S
H698 C674 0.950 . S
H699 C675 0.949 . S
H700 C677 0.950 . S
H701 C679 0.950 . S
C702 C703 1.349 . S
C702 C704 1.327 . S
C702 H727 0.950 . S
C703 C702 1.349 . S
C703 C719 1.349 . S
C704 C702 1.327 . S
C704 C723 1.429 . S
C704 H728 0.950 . S
C705 C722 1.574 . S
C705 C724 1.368 . S
C705 H729 0.949 . S
H706 C710 0.949 . S
C707 C708 1.349 . S
C707 C709 1.327 . S
C707 H730 0.950 . S
C708 C707 1.349 . S
C708 C720 1.349 . S
C709 C707 1.327 . S
C709 C725 1.429 . S
C709 H731 0.950 . S
C710 H706 0.949 . S
C710 C718 1.574 . S
C710 C726 1.368 . S
H711 C719 0.950 . S
H712 C717 0.950 . S
H713 C718 0.949 . S
H714 C720 0.950 . S
H715 C721 0.950 . S
H716 C722 0.949 . S
C717 H712 0.950 . S
C717 C719 1.327 . S
C717 C723 1.429 . S
C718 C710 1.574 . S
C718 H713 0.949 . S
C718 C724 1.368 . S
C719 C703 1.349 . S
C719 H711 0.950 . S
C719 C717 1.327 . S
C720 C708 1.349 . S
C720 H714 0.950 . S
C720 C721 1.327 . S
C721 H715 0.950 . S
C721 C720 1.327 . S
C721 C725 1.429 . S
C722 C705 1.574 . S
C722 H716 0.949 . S
C722 C726 1.368 . S
C723 C704 1.429 . S
C723 C717 1.429 . S
C723 C724 1.523 . S
C724 C705 1.368 . S
C724 C718 1.368 . S
C724 C723 1.523 . S
C725 C709 1.429 . S
C725 C721 1.429 . S
C725 C726 1.523 . S
C726 C710 1.368 . S
C726 C722 1.368 . S
C726 C725 1.523 . S
H727 C702 0.950 . S
H728 C704 0.950 . S
H729 C705 0.949 . S
H730 C707 0.950 . S
H731 C709 0.950 . S
C732 C733 1.349 . S
C732 C734 1.327 . S
C732 H757 0.950 . S
C733 C732 1.349 . S
C733 C749 1.349 . S
C734 C732 1.327 . S
C734 C753 1.429 . S
C734 H758 0.950 . S
C735 C752 1.574 . S
C735 C754 1.368 . S
C735 H759 0.949 . S
H736 C740 0.949 . S
C737 C738 1.349 . S
C737 C739 1.327 . S
C737 H760 0.950 . S
C738 C737 1.349 . S
C738 C750 1.349 . S
C739 C737 1.327 . S
C739 C755 1.429 . S
C739 H761 0.950 . S
C740 H736 0.949 . S
C740 C748 1.574 . S
C740 C756 1.368 . S
H741 C749 0.950 . S
H742 C747 0.950 . S
H743 C748 0.949 . S
H744 C750 0.950 . S
H745 C751 0.950 . S
H746 C752 0.949 . S
C747 H742 0.950 . S
C747 C749 1.327 . S
C747 C753 1.429 . S
C748 C740 1.574 . S
C748 H743 0.949 . S
C748 C754 1.368 . S
C749 C733 1.349 . S
C749 H741 0.950 . S
C749 C747 1.327 . S
C750 C738 1.349 . S
C750 H744 0.950 . S
C750 C751 1.327 . S
C751 H745 0.950 . S
C751 C750 1.327 . S
C751 C755 1.429 . S
C752 C735 1.574 . S
C752 H746 0.949 . S
C752 C756 1.368 . S
C753 C734 1.429 . S
C753 C747 1.429 . S
C753 C754 1.523 . S
C754 C735 1.368 . S
C754 C748 1.368 . S
C754 C753 1.523 . S
C755 C739 1.429 . S
C755 C751 1.429 . S
C755 C756 1.523 . S
C756 C740 1.368 . S
C756 C752 1.368 . S
C756 C755 1.523 . S
H757 C732 0.950 . S
H758 C734 0.950 . S
H759 C735 0.949 . S
H760 C737 0.950 . S
H761 C739 0.950 . S
C762 C763 1.349 . S
C762 C764 1.327 . S
C762 H787 0.950 . S
C763 C762 1.349 . S
C763 C779 1.349 . S
C764 C762 1.327 . S
C764 C783 1.429 . S
C764 H788 0.950 . S
C765 C782 1.574 . S
C765 C784 1.368 . S
C765 H789 0.949 . S
H766 C770 0.949 1_455 S
C767 C768 1.349 . S
C767 C769 1.327 . S
C767 H790 0.950 . S
C768 C767 1.349 . S
C768 C780 1.349 1_655 S
C769 C767 1.327 . S
C769 C785 1.429 . S
C769 H791 0.950 . S
C770 H766 0.949 1_655 S
C770 C778 1.574 . S
C770 C786 1.368 . S
H771 C779 0.950 . S
H772 C777 0.950 . S
H773 C778 0.949 . S
H774 C780 0.950 . S
H775 C781 0.952 . S
H776 C782 0.949 . S
C777 H772 0.950 . S
C777 C779 1.327 . S
C777 C783 1.429 . S
C778 C770 1.574 . S
C778 H773 0.949 . S
C778 C784 1.368 . S
C779 C763 1.349 . S
C779 H771 0.950 . S
C779 C777 1.327 . S
C780 C768 1.349 1_455 S
C780 H774 0.950 . S
C780 C781 1.328 . S
C781 H775 0.952 . S
C781 C780 1.328 . S
C781 C785 1.425 1_455 S
C782 C765 1.574 . S
C782 H776 0.949 . S
C782 C786 1.368 . S
C783 C764 1.429 . S
C783 C777 1.429 . S
C783 C784 1.523 . S
C784 C765 1.368 . S
C784 C778 1.368 . S
C784 C783 1.523 . S
C785 C769 1.429 . S
C785 C781 1.425 1_655 S
C785 C786 1.523 . S
C786 C770 1.368 . S
C786 C782 1.368 . S
C786 C785 1.523 . S
H787 C762 0.950 . S
H788 C764 0.950 . S
H789 C765 0.949 . S
H790 C767 0.950 . S
H791 C769 0.950 . S
C792 C793 1.349 . S
C792 C794 1.327 . S
C792 H817 0.950 . S
C793 C792 1.349 . S
C793 C809 1.349 . S
C794 C792 1.327 . S
C794 C813 1.429 . S
C794 H818 0.950 . S
C795 C812 1.574 . S
C795 C814 1.368 . S
C795 H819 0.949 . S
H796 C800 0.949 . S
C797 C798 1.349 . S
C797 C799 1.327 . S
C797 H820 0.950 . S
C798 C797 1.349 . S
C798 C810 1.349 . S
C799 C797 1.327 . S
C799 C815 1.429 . S
C799 H821 0.950 . S
C800 H796 0.949 . S
C800 C808 1.574 . S
C800 C816 1.368 . S
H801 C809 0.950 . S
H802 C807 0.950 . S
H803 C808 0.949 . S
H804 C810 0.950 . S
H805 C811 0.950 . S
H806 C812 0.949 . S
C807 H802 0.950 . S
C807 C809 1.327 . S
C807 C813 1.429 . S
C808 C800 1.574 . S
C808 H803 0.949 . S
C808 C814 1.368 . S
C809 C793 1.349 . S
C809 H801 0.950 . S
C809 C807 1.327 . S
C810 C798 1.349 . S
C810 H804 0.950 . S
C810 C811 1.327 . S
C811 H805 0.950 . S
C811 C810 1.327 . S
C811 C815 1.429 . S
C812 C795 1.574 . S
C812 H806 0.949 . S
C812 C816 1.368 . S
C813 C794 1.429 . S
C813 C807 1.429 . S
C813 C814 1.523 . S
C814 C795 1.368 . S
C814 C808 1.368 . S
C814 C813 1.523 . S
C815 C799 1.429 . S
C815 C811 1.429 . S
C815 C816 1.523 . S
C816 C800 1.368 . S
C816 C812 1.368 . S
C816 C815 1.523 . S
H817 C792 0.950 . S
H818 C794 0.950 . S
H819 C795 0.949 . S
H820 C797 0.950 . S
H821 C799 0.950 . S
C822 C823 1.349 . S
C822 C824 1.327 . S
C822 H847 0.950 . S
C823 C822 1.349 . S
C823 C839 1.349 . S
C824 C822 1.327 . S
C824 C843 1.429 . S
C824 H848 0.950 . S
C825 C842 1.574 . S
C825 C844 1.368 . S
C825 H849 0.949 . S
H826 C830 0.949 . S
C827 C828 1.349 . S
C827 C829 1.327 . S
C827 H850 0.950 . S
C828 C827 1.349 . S
C828 C840 1.349 . S
C829 C827 1.327 . S
C829 C845 1.429 . S
C829 H851 0.950 . S
C830 H826 0.949 . S
C830 C838 1.574 . S
C830 C846 1.368 . S
H831 C839 0.950 . S
H832 C837 0.950 . S
H833 C838 0.949 . S
H834 C840 0.950 . S
H835 C841 0.950 . S
H836 C842 0.949 . S
C837 H832 0.950 . S
C837 C839 1.327 . S
C837 C843 1.429 . S
C838 C830 1.574 . S
C838 H833 0.949 . S
C838 C844 1.368 . S
C839 C823 1.349 . S
C839 H831 0.950 . S
C839 C837 1.327 . S
C840 C828 1.349 . S
C840 H834 0.950 . S
C840 C841 1.327 . S
C841 H835 0.950 . S
C841 C840 1.327 . S
C841 C845 1.429 . S
C842 C825 1.574 . S
C842 H836 0.949 . S
C842 C846 1.368 . S
C843 C824 1.429 . S
C843 C837 1.429 . S
C843 C844 1.523 . S
C844 C825 1.368 . S
C844 C838 1.368 . S
C844 C843 1.523 . S
C845 C829 1.429 . S
C845 C841 1.429 . S
C845 C846 1.523 . S
C846 C830 1.368 . S
C846 C842 1.368 . S
C846 C845 1.523 . S
H847 C822 0.950 . S
H848 C824 0.950 . S
H849 C825 0.949 . S
H850 C827 0.950 . S
H851 C829 0.950 . S
C852 C853 1.349 . S
C852 C854 1.327 . S
C852 H877 0.950 . S
C853 C852 1.349 . S
C853 C869 1.349 . S
C854 C852 1.327 . S
C854 C873 1.476 . S
C854 H878 0.950 . S
C855 C872 1.574 . S
C855 C874 1.368 . S
C855 H879 0.949 . S
H856 C860 0.949 1_554 S
C857 C858 1.349 . S
C857 C859 1.327 . S
C857 H880 0.950 . S
C858 C857 1.349 . S
C858 C870 1.349 1_556 S
C859 C857 1.327 . S
C859 C875 1.429 . S
C859 H881 0.950 . S
C860 H856 0.949 1_556 S
C860 C868 1.574 . S
C860 C876 1.368 . S
H861 C869 0.950 . S
H862 C867 0.980 . S
H863 C868 0.949 1_545 S
H864 C870 0.950 . S
H865 C871 0.950 1_554 S
H866 C872 0.949 . S
C867 H862 0.980 . S
C867 C869 1.301 1_565 S
C867 C873 1.424 1_565 S
C868 C860 1.574 . S
C868 H863 0.949 1_565 S
C868 C874 1.368 . S
C869 C853 1.349 . S
C869 H861 0.950 . S
C869 C867 1.301 1_545 S
C870 C858 1.349 1_554 S
C870 H864 0.950 . S
C870 C871 1.327 1_554 S
C871 H865 0.950 1_556 S
C871 C870 1.327 1_556 S
C871 C875 1.429 . S
C872 C855 1.574 . S
C872 H866 0.949 . S
C872 C876 1.368 . S
C873 C854 1.476 . S
C873 C867 1.424 1_545 S
C873 C874 1.485 1_545 S
C874 C855 1.368 . S
C874 C868 1.368 . S
C874 C873 1.485 1_565 S
C875 C859 1.429 . S
C875 C871 1.429 . S
C875 C876 1.523 . S
C876 C860 1.368 . S
C876 C872 1.368 . S
C876 C875 1.523 . S
H877 C852 0.950 . S
H878 C854 0.950 . S
H879 C855 0.949 . S
H880 C857 0.950 . S
H881 C859 0.950 . S
C882 C883 1.349 . S
C882 C884 1.327 . S
C882 H907 0.950 . S
C883 C882 1.349 . S
C883 C899 1.349 . S
C884 C882 1.327 . S
C884 C903 1.429 . S
C884 H908 0.950 . S
C885 C902 1.574 . S
C885 C904 1.368 . S
C885 H909 0.949 . S
H886 C890 0.949 . S
C887 C888 1.349 . S
C887 C889 1.327 . S
C887 H910 0.950 . S
C888 C887 1.349 . S
C888 C900 1.349 . S
C889 C887 1.327 . S
C889 C905 1.429 . S
C889 H911 0.950 . S
C890 H886 0.949 . S
C890 C898 1.574 . S
C890 C906 1.368 . S
H891 C899 0.950 . S
H892 C897 0.950 . S
H893 C898 0.949 . S
H894 C900 0.950 . S
H895 C901 0.950 . S
H896 C902 0.949 . S
C897 H892 0.950 . S
C897 C899 1.327 . S
C897 C903 1.429 . S
C898 C890 1.574 . S
C898 H893 0.949 . S
C898 C904 1.368 . S
C899 C883 1.349 . S
C899 H891 0.950 . S
C899 C897 1.327 . S
C900 C888 1.349 . S
C900 H894 0.950 . S
C900 C901 1.327 . S
C901 H895 0.950 . S
C901 C900 1.327 . S
C901 C905 1.429 . S
C902 C885 1.574 . S
C902 H896 0.949 . S
C902 C906 1.368 . S
C903 C884 1.429 . S
C903 C897 1.429 . S
C903 C904 1.523 . S
C904 C885 1.368 . S
C904 C898 1.368 . S
C904 C903 1.523 . S
C905 C889 1.429 . S
C905 C901 1.429 . S
C905 C906 1.523 . S
C906 C890 1.368 . S
C906 C902 1.368 . S
C906 C905 1.523 . S
H907 C882 0.950 . S
H908 C884 0.950 . S
H909 C885 0.949 . S
H910 C887 0.950 . S
H911 C889 0.950 . S
C912 C913 1.349 . S
C912 C914 1.327 . S
C912 H937 0.950 . S
C913 C912 1.349 . S
C913 C929 1.349 . S
C914 C912 1.327 . S
C914 C933 1.429 1_565 S
C914 H938 0.950 . S
C915 C932 1.574 . S
C915 C934 1.368 . S
C915 H939 0.949 . S
H916 C920 0.949 . S
C917 C918 1.349 . S
C917 C919 1.327 . S
C917 H940 0.950 . S
C918 C917 1.349 . S
C918 C930 1.349 . S
C919 C917 1.327 . S
C919 C935 1.429 . S
C919 H941 0.950 . S
C920 H916 0.949 . S
C920 C928 1.574 . S
C920 C936 1.368 . S
H921 C929 0.950 . S
H922 C927 0.950 . S
H923 C928 0.949 . S
H924 C930 0.950 . S
H925 C931 0.950 . S
H926 C932 0.949 . S
C927 H922 0.950 . S
C927 C929 1.327 1_545 S
C927 C933 1.429 . S
C928 C920 1.574 . S
C928 H923 0.949 . S
C928 C934 1.368 . S
C929 C913 1.349 . S
C929 H921 0.950 . S
C929 C927 1.327 1_565 S
C930 C918 1.349 . S
C930 H924 0.950 . S
C930 C931 1.327 . S
C931 H925 0.950 . S
C931 C930 1.327 . S
C931 C935 1.429 . S
C932 C915 1.574 . S
C932 H926 0.949 . S
C932 C936 1.368 . S
C933 C914 1.429 1_545 S
C933 C927 1.429 . S
C933 C934 1.523 . S
C934 C915 1.368 . S
C934 C928 1.368 . S
C934 C933 1.523 . S
C935 C919 1.429 . S
C935 C931 1.429 . S
C935 C936 1.523 . S
C936 C920 1.368 . S
C936 C932 1.368 . S
C936 C935 1.523 . S
H937 C912 0.950 . S
H938 C914 0.950 . S
H939 C915 0.949 . S
H940 C917 0.950 . S
H941 C919 0.950 . S
C942 C943 1.349 . S
C942 C944 1.327 . S
C942 H967 0.950 . S
C943 C942 1.349 . S
C943 C959 1.349 . S
C944 C942 1.327 . S
C944 C963 1.429 . S
C944 H968 0.950 . S
C945 C962 1.574 . S
C945 C964 1.368 . S
C945 H969 0.949 . S
H946 C950 0.949 . S
C947 C948 1.349 . S
C947 C949 1.327 . S
C947 H970 0.950 . S
C948 C947 1.349 . S
C948 C960 1.349 . S
C949 C947 1.327 . S
C949 C965 1.429 . S
C949 H971 0.950 . S
C950 H946 0.949 . S
C950 C958 1.574 . S
C950 C966 1.368 . S
H951 C959 0.950 . S
H952 C957 0.950 . S
H953 C958 0.949 . S
H954 C960 0.950 . S
H955 C961 0.950 . S
H956 C962 0.949 . S
C957 H952 0.950 . S
C957 C959 1.327 . S
C957 C963 1.429 . S
C958 C950 1.574 . S
C958 H953 0.949 . S
C958 C964 1.368 . S
C959 C943 1.349 . S
C959 H951 0.950 . S
C959 C957 1.327 . S
C960 C948 1.349 . S
C960 H954 0.950 . S
C960 C961 1.327 . S
C961 H955 0.950 . S
C961 C960 1.327 . S
C961 C965 1.429 . S
C962 C945 1.574 . S
C962 H956 0.949 . S
C962 C966 1.368 . S
C963 C944 1.429 . S
C963 C957 1.429 . S
C963 C964 1.523 . S
C964 C945 1.368 . S
C964 C958 1.368 . S
C964 C963 1.523 . S
C965 C949 1.429 . S
C965 C961 1.429 . S
C965 C966 1.523 . S
C966 C950 1.368 . S
C966 C962 1.368 . S
C966 C965 1.523 . S
H967 C942 0.950 . S
H968 C944 0.950 . S
H969 C945 0.949 . S
H970 C947 0.950 . S
H971 C949 0.950 . S
C972 C973 1.349 . S
C972 C974 1.327 . S
C972 H997 0.950 . S
C973 C972 1.349 . S
C973 C989 1.345 . S
C974 C972 1.327 . S
C974 C993 1.429 1_565 S
C974 H998 0.950 . S
C975 C992 1.574 . S
C975 C994 1.368 . S
C975 H999 0.949 . S
H976 C980 0.949 . S
C977 C978 1.349 . S
C977 C979 1.327 . S
C977 H1000 0.950 . S
C978 C977 1.349 . S
C978 C990 1.349 . S
C979 C977 1.327 . S
C979 C995 1.429 . S
C979 H1001 0.950 . S
C980 H976 0.949 . S
C980 C988 1.574 . S
C980 C996 1.368 . S
H981 C989 0.951 1_545 S
H982 C987 0.950 . S
H983 C988 0.949 . S
H984 C990 0.950 . S
H985 C991 0.950 . S
H986 C992 0.949 . S
C987 H982 0.950 . S
C987 C989 1.331 1_545 S
C987 C993 1.429 . S
C988 C980 1.574 . S
C988 H983 0.949 . S
C988 C994 1.368 . S
C989 C973 1.345 . S
C989 H981 0.951 1_565 S
C989 C987 1.331 1_565 S
C990 C978 1.349 . S
C990 H984 0.950 . S
C990 C991 1.327 . S
C991 H985 0.950 . S
C991 C990 1.327 . S
C991 C995 1.429 . S
C992 C975 1.574 . S
C992 H986 0.949 . S
C992 C996 1.368 . S
C993 C974 1.429 1_545 S
C993 C987 1.429 . S
C993 C994 1.523 . S
C994 C975 1.368 . S
C994 C988 1.368 . S
C994 C993 1.523 . S
C995 C979 1.429 . S
C995 C991 1.429 . S
C995 C996 1.523 . S
C996 C980 1.368 . S
C996 C992 1.368 . S
C996 C995 1.523 . S
H997 C972 0.950 . S
H998 C974 0.950 . S
H999 C975 0.949 . S
H1000 C977 0.950 . S
H1001 C979 0.950 . S
C1002 C1003 1.349 . S
C1002 C1004 1.327 . S
C1002 H1027 0.950 . S
C1003 C1002 1.349 . S
C1003 C1019 1.349 . S
C1004 C1002 1.327 . S
C1004 C1023 1.429 . S
C1004 H1028 0.950 . S
C1005 C1022 1.574 . S
C1005 C1024 1.368 . S
C1005 H1029 0.949 . S
H1006 C1010 0.949 . S
C1007 C1008 1.349 . S
C1007 C1009 1.327 . S
C1007 H1030 0.950 . S
C1008 C1007 1.349 . S
C1008 C1020 1.349 . S
C1009 C1007 1.327 . S
C1009 C1025 1.429 . S
C1009 H1031 0.950 . S
C1010 H1006 0.949 . S
C1010 C1018 1.574 . S
C1010 C1026 1.368 . S
H1011 C1019 0.950 . S
H1012 C1017 0.950 . S
H1013 C1018 0.949 . S
H1014 C1020 0.950 . S
H1015 C1021 0.950 . S
H1016 C1022 0.949 . S
C1017 H1012 0.950 . S
C1017 C1019 1.327 . S
C1017 C1023 1.429 . S
C1018 C1010 1.574 . S
C1018 H1013 0.949 . S
C1018 C1024 1.368 . S
C1019 C1003 1.349 . S
C1019 H1011 0.950 . S
C1019 C1017 1.327 . S
C1020 C1008 1.349 . S
C1020 H1014 0.950 . S
C1020 C1021 1.327 . S
C1021 H1015 0.950 . S
C1021 C1020 1.327 . S
C1021 C1025 1.429 . S
C1022 C1005 1.574 . S
C1022 H1016 0.949 . S
C1022 C1026 1.368 . S
C1023 C1004 1.429 . S
C1023 C1017 1.429 . S
C1023 C1024 1.523 . S
C1024 C1005 1.368 . S
C1024 C1018 1.368 . S
C1024 C1023 1.523 . S
C1025 C1009 1.429 . S
C1025 C1021 1.429 . S
C1025 C1026 1.523 . S
C1026 C1010 1.368 . S
C1026 C1022 1.368 . S
C1026 C1025 1.523 . S
H1027 C1002 0.950 . S
H1028 C1004 0.950 . S
H1029 C1005 0.949 . S
H1030 C1007 0.950 . S
H1031 C1009 0.950 . S
C1032 C1033 1.349 . S
C1032 C1034 1.327 . S
C1032 H1057 0.950 . S
C1033 C1032 1.349 . S
C1033 C1049 1.349 . S
C1034 C1032 1.327 . S
C1034 C1053 1.429 . S
C1034 H1058 0.950 . S
C1035 C1052 1.574 . S
C1035 C1054 1.368 . S
C1035 H1059 0.949 . S
H1036 C1040 0.949 . S
C1037 C1038 1.349 . S
C1037 C1039 1.327 . S
C1037 H1060 0.950 . S
C1038 C1037 1.349 . S
C1038 C1050 1.349 . S
C1039 C1037 1.327 . S
C1039 C1055 1.429 . S
C1039 H1061 0.950 . S
C1040 H1036 0.949 . S
C1040 C1048 1.574 . S
C1040 C1056 1.368 . S
H1041 C1049 0.950 . S
H1042 C1047 0.950 . S
H1043 C1048 0.949 . S
H1044 C1050 0.950 . S
H1045 C1051 0.950 . S
H1046 C1052 0.949 . S
C1047 H1042 0.950 . S
C1047 C1049 1.327 . S
C1047 C1053 1.429 . S
C1048 C1040 1.574 . S
C1048 H1043 0.949 . S
C1048 C1054 1.368 . S
C1049 C1033 1.349 . S
C1049 H1041 0.950 . S
C1049 C1047 1.327 . S
C1050 C1038 1.349 . S
C1050 H1044 0.950 . S
C1050 C1051 1.327 . S
C1051 H1045 0.950 . S
C1051 C1050 1.327 . S
C1051 C1055 1.429 . S
C1052 C1035 1.574 . S
C1052 H1046 0.949 . S
C1052 C1056 1.368 . S
C1053 C1034 1.429 . S
C1053 C1047 1.429 . S
C1053 C1054 1.523 . S
C1054 C1035 1.368 . S
C1054 C1048 1.368 . S
C1054 C1053 1.523 . S
C1055 C1039 1.429 . S
C1055 C1051 1.429 . S
C1055 C1056 1.523 . S
C1056 C1040 1.368 . S
C1056 C1052 1.368 . S
C1056 C1055 1.523 . S
H1057 C1032 0.950 . S
H1058 C1034 0.950 . S
H1059 C1035 0.949 . S
H1060 C1037 0.950 . S
H1061 C1039 0.950 . S
C1062 C1063 1.349 . S
C1062 C1064 1.327 . S
C1062 H1087 0.950 . S
C1063 C1062 1.349 . S
C1063 C1079 1.349 . S
C1064 C1062 1.327 . S
C1064 C1083 1.429 . S
C1064 H1088 0.950 . S
C1065 C1082 1.574 . S
C1065 C1084 1.368 . S
C1065 H1089 0.949 . S
H1066 C1070 0.949 . S
C1067 C1068 1.349 . S
C1067 C1069 1.327 . S
C1067 H1090 0.950 . S
C1068 C1067 1.349 . S
C1068 C1080 1.349 . S
C1069 C1067 1.327 . S
C1069 C1085 1.429 . S
C1069 H1091 0.950 . S
C1070 H1066 0.949 . S
C1070 C1078 1.574 . S
C1070 C1086 1.368 . S
H1071 C1079 0.950 . S
H1072 C1077 0.950 . S
H1073 C1078 0.949 . S
H1074 C1080 0.950 1_565 S
H1075 C1081 0.950 1_565 S
H1076 C1082 0.949 . S
C1077 H1072 0.950 . S
C1077 C1079 1.327 . S
C1077 C1083 1.429 . S
C1078 C1070 1.574 . S
C1078 H1073 0.949 . S
C1078 C1084 1.368 . S
C1079 C1063 1.349 . S
C1079 H1071 0.950 . S
C1079 C1077 1.327 . S
C1080 C1068 1.349 . S
C1080 H1074 0.950 1_545 S
C1080 C1081 1.327 . S
C1081 H1075 0.950 1_545 S
C1081 C1080 1.327 . S
C1081 C1085 1.429 . S
C1082 C1065 1.574 . S
C1082 H1076 0.949 . S
C1082 C1086 1.368 . S
C1083 C1064 1.429 . S
C1083 C1077 1.429 . S
C1083 C1084 1.523 . S
C1084 C1065 1.368 . S
C1084 C1078 1.368 . S
C1084 C1083 1.523 . S
C1085 C1069 1.429 . S
C1085 C1081 1.429 . S
C1085 C1086 1.523 . S
C1086 C1070 1.368 . S
C1086 C1082 1.368 . S
C1086 C1085 1.523 . S
H1087 C1062 0.950 . S
H1088 C1064 0.950 . S
H1089 C1065 0.949 . S
H1090 C1067 0.950 . S
H1091 C1069 0.950 . S
C1092 C1093 1.349 . S
C1092 C1094 1.327 . S
C1092 H1117 0.950 . S
C1093 C1092 1.349 . S
C1093 C1109 1.349 . S
C1094 C1092 1.327 . S
C1094 C1113 1.429 . S
C1094 H1118 0.950 . S
C1095 C1112 1.574 . S
C1095 C1114 1.368 . S
C1095 H1119 0.949 . S
H1096 C1100 0.949 . S
C1097 C1098 1.349 . S
C1097 C1099 1.327 . S
C1097 H1120 0.950 . S
C1098 C1097 1.349 . S
C1098 C1110 1.349 . S
C1099 C1097 1.327 . S
C1099 C1115 1.429 . S
C1099 H1121 0.950 . S
C1100 H1096 0.949 . S
C1100 C1108 1.574 . S
C1100 C1116 1.368 . S
H1101 C1109 0.950 . S
H1102 C1107 0.950 . S
H1103 C1108 0.949 . S
H1104 C1110 0.950 . S
H1105 C1111 0.950 . S
H1106 C1112 0.949 . S
C1107 H1102 0.950 . S
C1107 C1109 1.327 . S
C1107 C1113 1.429 . S
C1108 C1100 1.574 . S
C1108 H1103 0.949 . S
C1108 C1114 1.368 . S
C1109 C1093 1.349 . S
C1109 H1101 0.950 . S
C1109 C1107 1.327 . S
C1110 C1098 1.349 . S
C1110 H1104 0.950 . S
C1110 C1111 1.327 . S
C1111 H1105 0.950 . S
C1111 C1110 1.327 . S
C1111 C1115 1.429 . S
C1112 C1095 1.574 . S
C1112 H1106 0.949 . S
C1112 C1116 1.368 . S
C1113 C1094 1.429 . S
C1113 C1107 1.429 . S
C1113 C1114 1.523 . S
C1114 C1095 1.368 . S
C1114 C1108 1.368 . S
C1114 C1113 1.523 . S
C1115 C1099 1.429 . S
C1115 C1111 1.429 . S
C1115 C1116 1.523 . S
C1116 C1100 1.368 . S
C1116 C1112 1.368 . S
C1116 C1115 1.523 . S
H1117 C1092 0.950 . S
H1118 C1094 0.950 . S
H1119 C1095 0.949 . S
H1120 C1097 0.950 . S
H1121 C1099 0.950 . S
C1122 C1123 1.349 . S
C1122 C1124 1.327 . S
C1122 H1147 0.950 . S
C1123 C1122 1.349 . S
C1123 C1139 1.349 . S
C1124 C1122 1.327 . S
C1124 C1143 1.429 . S
C1124 H1148 0.950 . S
C1125 C1142 1.574 . S
C1125 C1144 1.368 . S
C1125 H1149 0.949 . S
H1126 C1130 0.949 . S
C1127 C1128 1.349 . S
C1127 C1129 1.327 . S
C1127 H1150 0.950 . S
C1128 C1127 1.349 . S
C1128 C1140 1.349 . S
C1129 C1127 1.327 . S
C1129 C1145 1.429 . S
C1129 H1151 0.950 . S
C1130 H1126 0.949 . S
C1130 C1138 1.574 . S
C1130 C1146 1.368 . S
H1131 C1139 0.950 . S
H1132 C1137 0.950 . S
H1133 C1138 0.949 . S
H1134 C1140 0.950 . S
H1135 C1141 0.950 . S
H1136 C1142 0.949 . S
C1137 H1132 0.950 . S
C1137 C1139 1.327 . S
C1137 C1143 1.429 . S
C1138 C1130 1.574 . S
C1138 H1133 0.949 . S
C1138 C1144 1.368 . S
C1139 C1123 1.349 . S
C1139 H1131 0.950 . S
C1139 C1137 1.327 . S
C1140 C1128 1.349 . S
C1140 H1134 0.950 . S
C1140 C1141 1.327 . S
C1141 H1135 0.950 . S
C1141 C1140 1.327 . S
C1141 C1145 1.429 . S
C1142 C1125 1.574 . S
C1142 H1136 0.949 . S
C1142 C1146 1.368 . S
C1143 C1124 1.429 . S
C1143 C1137 1.429 . S
C1143 C1144 1.523 . S
C1144 C1125 1.368 . S
C1144 C1138 1.368 . S
C1144 C1143 1.523 . S
C1145 C1129 1.429 . S
C1145 C1141 1.429 . S
C1145 C1146 1.523 . S
C1146 C1130 1.368 . S
C1146 C1142 1.368 . S
C1146 C1145 1.523 . S
H1147 C1122 0.950 . S
H1148 C1124 0.950 . S
H1149 C1125 0.949 . S
H1150 C1127 0.950 . S
H1151 C1129 0.950 . S
C1152 C1153 1.349 . S
C1152 C1154 1.327 . S
C1152 H1177 0.950 . S
C1153 C1152 1.349 . S
C1153 C1169 1.349 . S
C1154 C1152 1.327 . S
C1154 C1173 1.429 . S
C1154 H1178 0.950 . S
C1155 C1172 1.574 . S
C1155 C1174 1.368 . S
C1155 H1179 0.949 . S
H1156 C1160 0.949 . S
C1157 C1158 1.349 . S
C1157 C1159 1.327 . S
C1157 H1180 0.950 . S
C1158 C1157 1.349 . S
C1158 C1170 1.349 . S
C1159 C1157 1.327 . S
C1159 C1175 1.429 . S
C1159 H1181 0.950 . S
C1160 H1156 0.949 . S
C1160 C1168 1.574 . S
C1160 C1176 1.368 . S
H1161 C1169 0.950 . S
H1162 C1167 0.950 . S
H1163 C1168 0.949 . S
H1164 C1170 0.950 . S
H1165 C1171 0.950 . S
H1166 C1172 0.949 . S
C1167 H1162 0.950 . S
C1167 C1169 1.327 . S
C1167 C1173 1.429 . S
C1168 C1160 1.574 . S
C1168 H1163 0.949 . S
C1168 C1174 1.368 . S
C1169 C1153 1.349 . S
C1169 H1161 0.950 . S
C1169 C1167 1.327 . S
C1170 C1158 1.349 . S
C1170 H1164 0.950 . S
C1170 C1171 1.327 . S
C1171 H1165 0.950 . S
C1171 C1170 1.327 . S
C1171 C1175 1.429 . S
C1172 C1155 1.574 . S
C1172 H1166 0.949 . S
C1172 C1176 1.368 . S
C1173 C1154 1.429 . S
C1173 C1167 1.429 . S
C1173 C1174 1.523 . S
C1174 C1155 1.368 . S
C1174 C1168 1.368 . S
C1174 C1173 1.523 . S
C1175 C1159 1.429 . S
C1175 C1171 1.429 . S
C1175 C1176 1.523 . S
C1176 C1160 1.368 . S
C1176 C1172 1.368 . S
C1176 C1175 1.523 . S
H1177 C1152 0.950 . S
H1178 C1154 0.950 . S
H1179 C1155 0.949 . S
H1180 C1157 0.950 . S
H1181 C1159 0.950 . S
C1182 C1183 1.349 . S
C1182 C1184 1.327 1_455 S
C1182 H1207 0.950 . S
C1183 C1182 1.349 . S
C1183 C1199 1.349 . S
C1184 C1182 1.327 1_655 S
C1184 C1203 1.429 . S
C1184 H1208 0.950 . S
C1185 C1202 1.574 . S
C1185 C1204 1.368 . S
C1185 H1209 0.949 1_545 S
H1186 C1190 0.949 . S
C1187 C1188 1.349 1_565 S
C1187 C1189 1.324 1_565 S
C1187 H1210 0.950 . S
C1188 C1187 1.349 1_545 S
C1188 C1200 1.349 . S
C1189 C1187 1.324 1_545 S
C1189 C1205 1.454 . S
C1189 H1211 0.927 1_545 S
C1190 H1186 0.949 . S
C1190 C1198 1.574 . S
C1190 C1206 1.368 . S
H1191 C1199 0.950 . S
H1192 C1197 0.950 . S
H1193 C1198 0.949 . S
H1194 C1200 0.950 . S
H1195 C1201 0.950 . S
H1196 C1202 0.949 1_565 S
C1197 H1192 0.950 . S
C1197 C1199 1.327 . S
C1197 C1203 1.429 1_455 S
C1198 C1190 1.574 . S
C1198 H1193 0.949 . S
C1198 C1204 1.368 . S
C1199 C1183 1.349 . S
C1199 H1191 0.950 . S
C1199 C1197 1.327 . S
C1200 C1188 1.349 . S
C1200 H1194 0.950 . S
C1200 C1201 1.327 . S
C1201 H1195 0.950 . S
C1201 C1200 1.327 . S
C1201 C1205 1.429 . S
C1202 C1185 1.574 . S
C1202 H1196 0.949 1_545 S
C1202 C1206 1.368 . S
C1203 C1184 1.429 . S
C1203 C1197 1.429 1_655 S
C1203 C1204 1.523 . S
C1204 C1185 1.368 . S
C1204 C1198 1.368 . S
C1204 C1203 1.523 . S
C1205 C1189 1.454 . S
C1205 C1201 1.429 . S
C1205 C1206 1.523 . S
C1206 C1190 1.368 . S
C1206 C1202 1.368 . S
C1206 C1205 1.523 . S
H1207 C1182 0.950 . S
H1208 C1184 0.950 . S
H1209 C1185 0.949 1_565 S
H1210 C1187 0.950 . S
H1211 C1189 0.927 1_565 S
C1212 C1213 1.349 . S
C1212 C1214 1.327 . S
C1212 H1237 0.950 . S
C1213 C1212 1.349 . S
C1213 C1229 1.349 . S
C1214 C1212 1.327 . S
C1214 C1233 1.429 . S
C1214 H1238 0.950 . S
C1215 C1232 1.574 . S
C1215 C1234 1.368 . S
C1215 H1239 0.949 . S
H1216 C1220 0.949 . S
C1217 C1218 1.349 . S
C1217 C1219 1.327 . S
C1217 H1240 0.950 . S
C1218 C1217 1.349 . S
C1218 C1230 1.349 . S
C1219 C1217 1.327 . S
C1219 C1235 1.429 . S
C1219 H1241 0.950 . S
C1220 H1216 0.949 . S
C1220 C1228 1.574 . S
C1220 C1236 1.368 . S
H1221 C1229 0.950 . S
H1222 C1227 0.950 . S
H1223 C1228 0.949 . S
H1224 C1230 0.950 . S
H1225 C1231 0.950 . S
H1226 C1232 0.949 . S
C1227 H1222 0.950 . S
C1227 C1229 1.327 . S
C1227 C1233 1.429 . S
C1228 C1220 1.574 . S
C1228 H1223 0.949 . S
C1228 C1234 1.368 . S
C1229 C1213 1.349 . S
C1229 H1221 0.950 . S
C1229 C1227 1.327 . S
C1230 C1218 1.349 . S
C1230 H1224 0.950 . S
C1230 C1231 1.327 . S
C1231 H1225 0.950 . S
C1231 C1230 1.327 . S
C1231 C1235 1.429 . S
C1232 C1215 1.574 . S
C1232 H1226 0.949 . S
C1232 C1236 1.368 . S
C1233 C1214 1.429 . S
C1233 C1227 1.429 . S
C1233 C1234 1.523 . S
C1234 C1215 1.368 . S
C1234 C1228 1.368 . S
C1234 C1233 1.523 . S
C1235 C1219 1.429 . S
C1235 C1231 1.429 . S
C1235 C1236 1.523 . S
C1236 C1220 1.368 . S
C1236 C1232 1.368 . S
C1236 C1235 1.523 . S
H1237 C1212 0.950 . S
H1238 C1214 0.950 . S
H1239 C1215 0.949 . S
H1240 C1217 0.950 . S
H1241 C1219 0.950 . S
C1242 C1243 1.349 . S
C1242 C1244 1.327 1_655 S
C1242 H1267 0.950 . S
C1243 C1242 1.349 . S
C1243 C1259 1.349 . S
C1244 C1242 1.327 1_455 S
C1244 C1263 1.429 . S
C1244 H1268 0.950 . S
C1245 C1262 1.574 . S
C1245 C1264 1.368 . S
C1245 H1269 0.949 . S
H1246 C1250 0.949 . S
C1247 C1248 1.349 . S
C1247 C1249 1.327 . S
C1247 H1270 0.950 . S
C1248 C1247 1.349 . S
C1248 C1260 1.349 . S
C1249 C1247 1.327 . S
C1249 C1265 1.429 . S
C1249 H1271 0.950 . S
C1250 H1246 0.949 . S
C1250 C1258 1.574 . S
C1250 C1266 1.368 . S
H1251 C1259 0.950 . S
H1252 C1257 0.950 . S
H1253 C1258 0.949 . S
H1254 C1260 0.950 . S
H1255 C1261 0.950 . S
H1256 C1262 0.949 . S
C1257 H1252 0.950 . S
C1257 C1259 1.327 . S
C1257 C1263 1.429 1_655 S
C1258 C1250 1.574 . S
C1258 H1253 0.949 . S
C1258 C1264 1.368 . S
C1259 C1243 1.349 . S
C1259 H1251 0.950 . S
C1259 C1257 1.327 . S
C1260 C1248 1.349 . S
C1260 H1254 0.950 . S
C1260 C1261 1.327 . S
C1261 H1255 0.950 . S
C1261 C1260 1.327 . S
C1261 C1265 1.429 . S
C1262 C1245 1.574 . S
C1262 H1256 0.949 . S
C1262 C1266 1.368 . S
C1263 C1244 1.429 . S
C1263 C1257 1.429 1_455 S
C1263 C1264 1.523 . S
C1264 C1245 1.368 . S
C1264 C1258 1.368 . S
C1264 C1263 1.523 . S
C1265 C1249 1.429 . S
C1265 C1261 1.429 . S
C1265 C1266 1.523 . S
C1266 C1250 1.368 . S
C1266 C1262 1.368 . S
C1266 C1265 1.523 . S
H1267 C1242 0.950 . S
H1268 C1244 0.950 . S
H1269 C1245 0.949 . S
H1270 C1247 0.950 . S
H1271 C1249 0.950 . S
C1272 C1273 1.349 . S
C1272 C1274 1.327 . S
C1272 H1297 0.950 . S
C1273 C1272 1.349 . S
C1273 C1289 1.349 . S
C1274 C1272 1.327 . S
C1274 C1293 1.429 . S
C1274 H1298 0.950 . S
C1275 C1292 1.574 . S
C1275 C1294 1.368 . S
C1275 H1299 0.949 . S
H1276 C1280 0.949 . S
C1277 C1278 1.349 . S
C1277 C1279 1.327 . S
C1277 H1300 0.950 . S
C1278 C1277 1.349 . S
C1278 C1290 1.349 . S
C1279 C1277 1.327 . S
C1279 C1295 1.429 . S
C1279 H1301 0.950 . S
C1280 H1276 0.949 . S
C1280 C1288 1.574 . S
C1280 C1296 1.368 . S
H1281 C1289 0.950 . S
H1282 C1287 0.950 . S
H1283 C1288 0.949 . S
H1284 C1290 0.950 . S
H1285 C1291 0.950 . S
H1286 C1292 0.949 . S
C1287 H1282 0.950 . S
C1287 C1289 1.327 . S
C1287 C1293 1.429 . S
C1288 C1280 1.574 . S
C1288 H1283 0.949 . S
C1288 C1294 1.368 . S
C1289 C1273 1.349 . S
C1289 H1281 0.950 . S
C1289 C1287 1.327 . S
C1290 C1278 1.349 . S
C1290 H1284 0.950 . S
C1290 C1291 1.327 . S
C1291 H1285 0.950 . S
C1291 C1290 1.327 . S
C1291 C1295 1.429 . S
C1292 C1275 1.574 . S
C1292 H1286 0.949 . S
C1292 C1296 1.368 . S
C1293 C1274 1.429 . S
C1293 C1287 1.429 . S
C1293 C1294 1.523 . S
C1294 C1275 1.368 . S
C1294 C1288 1.368 . S
C1294 C1293 1.523 . S
C1295 C1279 1.429 . S
C1295 C1291 1.429 . S
C1295 C1296 1.523 . S
C1296 C1280 1.368 . S
C1296 C1292 1.368 . S
C1296 C1295 1.523 . S
H1297 C1272 0.950 . S
H1298 C1274 0.950 . S
H1299 C1275 0.949 . S
H1300 C1277 0.950 . S
H1301 C1279 0.950 . S
C1302 C1303 1.349 . S
C1302 C1304 1.327 . S
C1302 H1327 0.950 . S
C1303 C1302 1.349 . S
C1303 C1319 1.349 . S
C1304 C1302 1.327 . S
C1304 C1323 1.429 . S
C1304 H1328 0.950 . S
C1305 C1322 1.574 . S
C1305 C1324 1.368 . S
C1305 H1329 0.949 . S
H1306 C1310 0.926 1_455 S
C1307 C1308 1.349 . S
C1307 C1309 1.327 . S
C1307 H1330 0.950 . S
C1308 C1307 1.349 . S
C1308 C1320 1.322 1_655 S
C1309 C1307 1.327 . S
C1309 C1325 1.429 . S
C1309 H1331 0.950 . S
C1310 H1306 0.926 1_655 S
C1310 C1318 1.574 . S
C1310 C1326 1.368 . S
H1311 C1319 0.950 . S
H1312 C1317 0.950 . S
H1313 C1318 0.949 1_554 S
H1314 C1320 0.989 . S
H1315 C1321 0.950 1_455 S
H1316 C1322 0.949 . S
C1317 H1312 0.950 . S
C1317 C1319 1.327 1_556 S
C1317 C1323 1.429 1_556 S
C1318 C1310 1.574 . S
C1318 H1313 0.949 1_556 S
C1318 C1324 1.368 . S
C1319 C1303 1.349 . S
C1319 H1311 0.950 . S
C1319 C1317 1.327 1_554 S
C1320 C1308 1.322 1_455 S
C1320 H1314 0.989 . S
C1320 C1321 1.318 1_455 S
C1321 H1315 0.950 1_655 S
C1321 C1320 1.318 1_655 S
C1321 C1325 1.429 . S
C1322 C1305 1.574 . S
C1322 H1316 0.949 . S
C1322 C1326 1.368 . S
C1323 C1304 1.429 . S
C1323 C1317 1.429 1_554 S
C1323 C1324 1.523 1_554 S
C1324 C1305 1.368 . S
C1324 C1318 1.368 . S
C1324 C1323 1.523 1_556 S
C1325 C1309 1.429 . S
C1325 C1321 1.429 . S
C1325 C1326 1.523 . S
C1326 C1310 1.368 . S
C1326 C1322 1.368 . S
C1326 C1325 1.523 . S
H1327 C1302 0.950 . S
H1328 C1304 0.950 . S
H1329 C1305 0.949 . S
H1330 C1307 0.950 . S
H1331 C1309 0.950 . S
C1332 C1333 1.349 . S
C1332 C1334 1.327 . S
C1332 H1357 0.950 . S
C1333 C1332 1.349 . S
C1333 C1349 1.349 . S
C1334 C1332 1.327 . S
C1334 C1353 1.429 . S
C1334 H1358 0.950 . S
C1335 C1352 1.574 . S
C1335 C1354 1.368 . S
C1335 H1359 0.949 . S
H1336 C1340 0.949 . S
C1337 C1338 1.349 . S
C1337 C1339 1.327 . S
C1337 H1360 0.950 . S
C1338 C1337 1.349 . S
C1338 C1350 1.349 . S
C1339 C1337 1.327 . S
C1339 C1355 1.429 . S
C1339 H1361 0.950 . S
C1340 H1336 0.949 . S
C1340 C1348 1.574 . S
C1340 C1356 1.368 . S
H1341 C1349 0.950 . S
H1342 C1347 0.950 . S
H1343 C1348 0.949 . S
H1344 C1350 0.950 . S
H1345 C1351 0.950 . S
H1346 C1352 0.949 . S
C1347 H1342 0.950 . S
C1347 C1349 1.327 . S
C1347 C1353 1.429 . S
C1348 C1340 1.574 . S
C1348 H1343 0.949 . S
C1348 C1354 1.368 . S
C1349 C1333 1.349 . S
C1349 H1341 0.950 . S
C1349 C1347 1.327 . S
C1350 C1338 1.349 . S
C1350 H1344 0.950 . S
C1350 C1351 1.327 . S
C1351 H1345 0.950 . S
C1351 C1350 1.327 . S
C1351 C1355 1.429 . S
C1352 C1335 1.574 . S
C1352 H1346 0.949 . S
C1352 C1356 1.368 . S
C1353 C1334 1.429 . S
C1353 C1347 1.429 . S
C1353 C1354 1.523 . S
C1354 C1335 1.368 . S
C1354 C1348 1.368 . S
C1354 C1353 1.523 . S
C1355 C1339 1.429 . S
C1355 C1351 1.429 . S
C1355 C1356 1.523 . S
C1356 C1340 1.368 . S
C1356 C1352 1.368 . S
C1356 C1355 1.523 . S
H1357 C1332 0.950 . S
H1358 C1334 0.950 . S
H1359 C1335 0.949 . S
H1360 C1337 0.950 . S
H1361 C1339 0.950 . S
C1362 C1363 1.363 . S
C1362 C1364 1.317 1_554 S
C1362 H1387 0.947 1_554 S
C1363 C1362 1.363 . S
C1363 C1379 1.349 . S
C1364 C1362 1.317 1_556 S
C1364 C1383 1.429 . S
C1364 H1388 0.950 . S
C1365 C1382 1.574 . S
C1365 C1384 1.368 . S
C1365 H1389 0.949 . S
H1366 C1370 0.949 . S
C1367 C1368 1.349 . S
C1367 C1369 1.327 . S
C1367 H1390 0.950 . S
C1368 C1367 1.349 . S
C1368 C1380 1.349 . S
C1369 C1367 1.327 . S
C1369 C1385 1.429 . S
C1369 H1391 0.950 . S
C1370 H1366 0.949 . S
C1370 C1378 1.574 . S
C1370 C1386 1.368 . S
H1371 C1379 0.950 . S
H1372 C1377 0.950 . S
H1373 C1378 0.949 . S
H1374 C1380 0.950 1_655 S
H1375 C1381 0.946 1_655 S
H1376 C1382 0.949 . S
C1377 H1372 0.950 . S
C1377 C1379 1.327 . S
C1377 C1383 1.429 1_554 S
C1378 C1370 1.574 . S
C1378 H1373 0.949 . S
C1378 C1384 1.368 . S
C1379 C1363 1.349 . S
C1379 H1371 0.950 . S
C1379 C1377 1.327 . S
C1380 C1368 1.349 . S
C1380 H1374 0.950 1_455 S
C1380 C1381 1.327 . S
C1381 H1375 0.946 1_455 S
C1381 C1380 1.327 . S
C1381 C1385 1.429 . S
C1382 C1365 1.574 . S
C1382 H1376 0.949 . S
C1382 C1386 1.368 . S
C1383 C1364 1.429 . S
C1383 C1377 1.429 1_556 S
C1383 C1384 1.523 . S
C1384 C1365 1.368 . S
C1384 C1378 1.368 . S
C1384 C1383 1.523 . S
C1385 C1369 1.429 . S
C1385 C1381 1.429 . S
C1385 C1386 1.523 . S
C1386 C1370 1.368 . S
C1386 C1382 1.368 . S
C1386 C1385 1.523 . S
H1387 C1362 0.947 1_556 S
H1388 C1364 0.950 . S
H1389 C1365 0.949 . S
H1390 C1367 0.950 . S
H1391 C1369 0.950 . S
C1392 C1393 1.349 . S
C1392 C1394 1.327 . S
C1392 H1417 0.950 . S
C1393 C1392 1.349 . S
C1393 C1409 1.349 . S
C1394 C1392 1.327 . S
C1394 C1413 1.429 . S
C1394 H1418 0.950 . S
C1395 C1412 1.574 . S
C1395 C1414 1.368 . S
C1395 H1419 0.949 . S
H1396 C1400 0.949 . S
C1397 C1398 1.349 . S
C1397 C1399 1.327 . S
C1397 H1420 0.950 . S
C1398 C1397 1.349 . S
C1398 C1410 1.349 . S
C1399 C1397 1.327 . S
C1399 C1415 1.429 . S
C1399 H1421 0.950 . S
C1400 H1396 0.949 . S
C1400 C1408 1.574 . S
C1400 C1416 1.368 . S
H1401 C1409 0.950 . S
H1402 C1407 0.950 . S
H1403 C1408 0.949 . S
H1404 C1410 0.950 . S
H1405 C1411 0.950 . S
H1406 C1412 0.949 . S
C1407 H1402 0.950 . S
C1407 C1409 1.327 . S
C1407 C1413 1.429 . S
C1408 C1400 1.574 . S
C1408 H1403 0.949 . S
C1408 C1414 1.368 . S
C1409 C1393 1.349 . S
C1409 H1401 0.950 . S
C1409 C1407 1.327 . S
C1410 C1398 1.349 . S
C1410 H1404 0.950 . S
C1410 C1411 1.327 . S
C1411 H1405 0.950 . S
C1411 C1410 1.327 . S
C1411 C1415 1.429 . S
C1412 C1395 1.574 . S
C1412 H1406 0.949 . S
C1412 C1416 1.368 . S
C1413 C1394 1.429 . S
C1413 C1407 1.429 . S
C1413 C1414 1.523 . S
C1414 C1395 1.368 . S
C1414 C1408 1.368 . S
C1414 C1413 1.523 . S
C1415 C1399 1.429 . S
C1415 C1411 1.429 . S
C1415 C1416 1.523 . S
C1416 C1400 1.368 . S
C1416 C1412 1.368 . S
C1416 C1415 1.523 . S
H1417 C1392 0.950 . S
H1418 C1394 0.950 . S
H1419 C1395 0.949 . S
H1420 C1397 0.950 . S
H1421 C1399 0.950 . S
C1422 C1423 1.349 1_554 S
C1422 C1424 1.327 . S
C1422 H1447 0.950 . S
C1423 C1422 1.349 1_556 S
C1423 C1439 1.349 . S
C1424 C1422 1.327 . S
C1424 C1443 1.429 . S
C1424 H1448 0.950 . S
C1425 C1442 1.574 . S
C1425 C1444 1.368 . S
C1425 H1449 0.949 . S
H1426 C1430 0.949 . S
C1427 C1428 1.349 . S
C1427 C1429 1.327 . S
C1427 H1450 0.950 . S
C1428 C1427 1.349 . S
C1428 C1440 1.349 . S
C1429 C1427 1.327 . S
C1429 C1445 1.429 . S
C1429 H1451 0.950 . S
C1430 H1426 0.949 . S
C1430 C1438 1.574 . S
C1430 C1446 1.368 . S
H1431 C1439 0.950 . S
H1432 C1437 0.950 . S
H1433 C1438 0.949 . S
H1434 C1440 0.950 . S
H1435 C1441 0.950 . S
H1436 C1442 0.949 . S
C1437 H1432 0.950 . S
C1437 C1439 1.327 . S
C1437 C1443 1.429 1_556 S
C1438 C1430 1.574 . S
C1438 H1433 0.949 . S
C1438 C1444 1.368 . S
C1439 C1423 1.349 . S
C1439 H1431 0.950 . S
C1439 C1437 1.327 . S
C1440 C1428 1.349 . S
C1440 H1434 0.950 . S
C1440 C1441 1.327 . S
C1441 H1435 0.950 . S
C1441 C1440 1.327 . S
C1441 C1445 1.429 . S
C1442 C1425 1.574 . S
C1442 H1436 0.949 . S
C1442 C1446 1.368 . S
C1443 C1424 1.429 . S
C1443 C1437 1.429 1_554 S
C1443 C1444 1.523 . S
C1444 C1425 1.368 . S
C1444 C1438 1.368 . S
C1444 C1443 1.523 . S
C1445 C1429 1.429 . S
C1445 C1441 1.429 . S
C1445 C1446 1.523 . S
C1446 C1430 1.368 . S
C1446 C1442 1.368 . S
C1446 C1445 1.523 . S
H1447 C1422 0.950 . S
H1448 C1424 0.950 . S
H1449 C1425 0.949 . S
H1450 C1427 0.950 . S
H1451 C1429 0.950 . S
C1452 C1453 1.349 . S
C1452 C1454 1.327 . S
C1452 H1477 0.950 . S
C1453 C1452 1.349 . S
C1453 C1469 1.349 . S
C1454 C1452 1.327 . S
C1454 C1473 1.429 . S
C1454 H1478 0.950 . S
C1455 C1472 1.574 . S
C1455 C1474 1.368 . S
C1455 H1479 0.949 . S
H1456 C1460 0.949 . S
C1457 C1458 1.349 . S
C1457 C1459 1.327 . S
C1457 H1480 0.950 . S
C1458 C1457 1.349 . S
C1458 C1470 1.349 . S
C1459 C1457 1.327 . S
C1459 C1475 1.429 . S
C1459 H1481 0.950 . S
C1460 H1456 0.949 . S
C1460 C1468 1.574 . S
C1460 C1476 1.368 . S
H1461 C1469 0.950 . S
H1462 C1467 0.950 . S
H1463 C1468 0.949 . S
H1464 C1470 0.950 . S
H1465 C1471 0.950 . S
H1466 C1472 0.949 . S
C1467 H1462 0.950 . S
C1467 C1469 1.327 . S
C1467 C1473 1.429 . S
C1468 C1460 1.574 . S
C1468 H1463 0.949 . S
C1468 C1474 1.368 . S
C1469 C1453 1.349 . S
C1469 H1461 0.950 . S
C1469 C1467 1.327 . S
C1470 C1458 1.349 . S
C1470 H1464 0.950 . S
C1470 C1471 1.327 . S
C1471 H1465 0.950 . S
C1471 C1470 1.327 . S
C1471 C1475 1.429 . S
C1472 C1455 1.574 . S
C1472 H1466 0.949 . S
C1472 C1476 1.368 . S
C1473 C1454 1.429 . S
C1473 C1467 1.429 . S
C1473 C1474 1.523 . S
C1474 C1455 1.368 . S
C1474 C1468 1.368 . S
C1474 C1473 1.523 . S
C1475 C1459 1.429 . S
C1475 C1471 1.429 . S
C1475 C1476 1.523 . S
C1476 C1460 1.368 . S
C1476 C1472 1.368 . S
C1476 C1475 1.523 . S
H1477 C1452 0.950 . S
H1478 C1454 0.950 . S
H1479 C1455 0.949 . S
H1480 C1457 0.950 . S
H1481 C1459 0.950 . S
C1482 C1483 1.349 . S
C1482 C1484 1.327 . S
C1482 H1507 0.950 . S
C1483 C1482 1.349 . S
C1483 C1499 1.349 . S
C1484 C1482 1.327 . S
C1484 C1503 1.429 1_556 S
C1484 H1508 0.950 . S
C1485 C1502 1.574 . S
C1485 C1504 1.368 . S
C1485 H1509 0.949 . S
H1486 C1490 0.949 . S
C1487 C1488 1.349 . S
C1487 C1489 1.327 . S
C1487 H1510 0.950 . S
C1488 C1487 1.349 . S
C1488 C1500 1.349 . S
C1489 C1487 1.327 . S
C1489 C1505 1.429 . S
C1489 H1511 0.950 . S
C1490 H1486 0.949 . S
C1490 C1498 1.574 . S
C1490 C1506 1.368 . S
H1491 C1499 0.950 . S
H1492 C1497 0.950 . S
H1493 C1498 0.949 . S
H1494 C1500 0.950 . S
H1495 C1501 0.950 . S
H1496 C1502 0.949 . S
C1497 H1492 0.950 . S
C1497 C1499 1.327 1_554 S
C1497 C1503 1.429 . S
C1498 C1490 1.574 . S
C1498 H1493 0.949 . S
C1498 C1504 1.368 . S
C1499 C1483 1.349 . S
C1499 H1491 0.950 . S
C1499 C1497 1.327 1_556 S
C1500 C1488 1.349 . S
C1500 H1494 0.950 . S
C1500 C1501 1.327 . S
C1501 H1495 0.950 . S
C1501 C1500 1.327 . S
C1501 C1505 1.429 . S
C1502 C1485 1.574 . S
C1502 H1496 0.949 . S
C1502 C1506 1.368 . S
C1503 C1484 1.429 1_554 S
C1503 C1497 1.429 . S
C1503 C1504 1.523 . S
C1504 C1485 1.368 . S
C1504 C1498 1.368 . S
C1504 C1503 1.523 . S
C1505 C1489 1.429 . S
C1505 C1501 1.429 . S
C1505 C1506 1.523 . S
C1506 C1490 1.368 . S
C1506 C1502 1.368 . S
C1506 C1505 1.523 . S
H1507 C1482 0.950 . S
H1508 C1484 0.950 . S
H1509 C1485 0.949 . S
H1510 C1487 0.950 . S
H1511 C1489 0.950 . S
C1512 C1513 1.349 . S
C1512 C1514 1.327 . S
C1512 H1537 0.950 . S
C1513 C1512 1.349 . S
C1513 C1529 1.349 . S
C1514 C1512 1.327 . S
C1514 C1533 1.429 . S
C1514 H1538 0.950 . S
C1515 C1532 1.574 . S
C1515 C1534 1.368 . S
C1515 H1539 0.949 . S
H1516 C1520 0.949 . S
C1517 C1518 1.349 . S
C1517 C1519 1.327 . S
C1517 H1540 0.950 . S
C1518 C1517 1.349 . S
C1518 C1530 1.349 . S
C1519 C1517 1.327 . S
C1519 C1535 1.429 . S
C1519 H1541 0.950 . S
C1520 H1516 0.949 . S
C1520 C1528 1.574 . S
C1520 C1536 1.368 . S
H1521 C1529 0.950 . S
H1522 C1527 0.950 . S
H1523 C1528 0.949 . S
H1524 C1530 0.950 . S
H1525 C1531 0.950 . S
H1526 C1532 0.949 . S
C1527 H1522 0.950 . S
C1527 C1529 1.327 . S
C1527 C1533 1.429 . S
C1528 C1520 1.574 . S
C1528 H1523 0.949 . S
C1528 C1534 1.368 . S
C1529 C1513 1.349 . S
C1529 H1521 0.950 . S
C1529 C1527 1.327 . S
C1530 C1518 1.349 . S
C1530 H1524 0.950 . S
C1530 C1531 1.327 . S
C1531 H1525 0.950 . S
C1531 C1530 1.327 . S
C1531 C1535 1.429 . S
C1532 C1515 1.574 . S
C1532 H1526 0.949 . S
C1532 C1536 1.368 . S
C1533 C1514 1.429 . S
C1533 C1527 1.429 . S
C1533 C1534 1.523 . S
C1534 C1515 1.368 . S
C1534 C1528 1.368 . S
C1534 C1533 1.523 . S
C1535 C1519 1.429 . S
C1535 C1531 1.429 . S
C1535 C1536 1.523 . S
C1536 C1520 1.368 . S
C1536 C1532 1.368 . S
C1536 C1535 1.523 . S
H1537 C1512 0.950 . S
H1538 C1514 0.950 . S
H1539 C1515 0.949 . S
H1540 C1517 0.950 . S
H1541 C1519 0.950 . S
C1542 C1543 1.349 . S
C1542 C1544 1.327 . S
C1542 H1567 0.950 . S
C1543 C1542 1.349 . S
C1543 C1559 1.349 . S
C1544 C1542 1.327 . S
C1544 C1563 1.429 . S
C1544 H1568 0.950 . S
C1545 C1562 1.574 . S
C1545 C1564 1.368 . S
C1545 H1569 0.949 . S
H1546 C1550 0.949 . S
C1547 C1548 1.349 . S
C1547 C1549 1.327 . S
C1547 H1570 0.950 . S
C1548 C1547 1.349 . S
C1548 C1560 1.349 . S
C1549 C1547 1.327 . S
C1549 C1565 1.429 . S
C1549 H1571 0.950 . S
C1550 H1546 0.949 . S
C1550 C1558 1.574 . S
C1550 C1566 1.368 . S
H1551 C1559 0.950 . S
H1552 C1557 0.950 . S
H1553 C1558 0.949 . S
H1554 C1560 0.950 . S
H1555 C1561 0.950 . S
H1556 C1562 0.949 . S
C1557 H1552 0.950 . S
C1557 C1559 1.327 . S
C1557 C1563 1.429 . S
C1558 C1550 1.574 . S
C1558 H1553 0.949 . S
C1558 C1564 1.368 . S
C1559 C1543 1.349 . S
C1559 H1551 0.950 . S
C1559 C1557 1.327 . S
C1560 C1548 1.349 . S
C1560 H1554 0.950 . S
C1560 C1561 1.327 . S
C1561 H1555 0.950 . S
C1561 C1560 1.327 . S
C1561 C1565 1.429 . S
C1562 C1545 1.574 . S
C1562 H1556 0.949 . S
C1562 C1566 1.368 . S
C1563 C1544 1.429 . S
C1563 C1557 1.429 . S
C1563 C1564 1.523 . S
C1564 C1545 1.368 . S
C1564 C1558 1.368 . S
C1564 C1563 1.523 . S
C1565 C1549 1.429 . S
C1565 C1561 1.429 . S
C1565 C1566 1.523 . S
C1566 C1550 1.368 . S
C1566 C1562 1.368 . S
C1566 C1565 1.523 . S
H1567 C1542 0.950 . S
H1568 C1544 0.950 . S
H1569 C1545 0.949 . S
H1570 C1547 0.950 . S
H1571 C1549 0.950 . S
C1572 C1573 1.349 . S
C1572 C1574 1.327 . S
C1572 H1597 0.950 . S
C1573 C1572 1.349 . S
C1573 C1589 1.349 . S
C1574 C1572 1.327 . S
C1574 C1593 1.429 . S
C1574 H1598 0.950 . S
C1575 C1592 1.574 . S
C1575 C1594 1.368 . S
C1575 H1599 0.949 . S
H1576 C1580 0.949 . S
C1577 C1578 1.349 . S
C1577 C1579 1.327 . S
C1577 H1600 0.950 . S
C1578 C1577 1.349 . S
C1578 C1590 1.349 . S
C1579 C1577 1.327 . S
C1579 C1595 1.429 . S
C1579 H1601 0.950 . S
C1580 H1576 0.949 . S
C1580 C1588 1.574 . S
C1580 C1596 1.368 . S
H1581 C1589 0.950 . S
H1582 C1587 0.950 . S
H1583 C1588 0.949 . S
H1584 C1590 0.950 . S
H1585 C1591 0.950 . S
H1586 C1592 0.949 . S
C1587 H1582 0.950 . S
C1587 C1589 1.327 . S
C1587 C1593 1.429 . S
C1588 C1580 1.574 . S
C1588 H1583 0.949 . S
C1588 C1594 1.368 . S
C1589 C1573 1.349 . S
C1589 H1581 0.950 . S
C1589 C1587 1.327 . S
C1590 C1578 1.349 . S
C1590 H1584 0.950 . S
C1590 C1591 1.327 . S
C1591 H1585 0.950 . S
C1591 C1590 1.327 . S
C1591 C1595 1.429 . S
C1592 C1575 1.574 . S
C1592 H1586 0.949 . S
C1592 C1596 1.368 . S
C1593 C1574 1.429 . S
C1593 C1587 1.429 . S
C1593 C1594 1.523 . S
C1594 C1575 1.368 . S
C1594 C1588 1.368 . S
C1594 C1593 1.523 . S
C1595 C1579 1.429 . S
C1595 C1591 1.429 . S
C1595 C1596 1.523 . S
C1596 C1580 1.368 . S
C1596 C1592 1.368 . S
C1596 C1595 1.523 . S
H1597 C1572 0.950 . S
H1598 C1574 0.950 . S
H1599 C1575 0.949 . S
H1600 C1577 0.950 . S
H1601 C1579 0.950 . S
C1602 C1603 1.349 . S
C1602 C1604 1.327 . S
C1602 H1627 0.950 . S
C1603 C1602 1.349 . S
C1603 C1619 1.349 . S
C1604 C1602 1.327 . S
C1604 C1623 1.429 . S
C1604 H1628 0.950 . S
C1605 C1622 1.574 . S
C1605 C1624 1.368 . S
C1605 H1629 0.949 . S
H1606 C1610 0.949 . S
C1607 C1608 1.349 . S
C1607 C1609 1.327 . S
C1607 H1630 0.950 . S
C1608 C1607 1.349 . S
C1608 C1620 1.349 . S
C1609 C1607 1.327 . S
C1609 C1625 1.429 . S
C1609 H1631 0.950 . S
C1610 H1606 0.949 . S
C1610 C1618 1.574 . S
C1610 C1626 1.368 . S
H1611 C1619 0.950 . S
H1612 C1617 0.950 . S
H1613 C1618 0.949 . S
H1614 C1620 0.950 . S
H1615 C1621 0.950 . S
H1616 C1622 0.949 . S
C1617 H1612 0.950 . S
C1617 C1619 1.327 . S
C1617 C1623 1.429 . S
C1618 C1610 1.574 . S
C1618 H1613 0.949 . S
C1618 C1624 1.368 . S
C1619 C1603 1.349 . S
C1619 H1611 0.950 . S
C1619 C1617 1.327 . S
C1620 C1608 1.349 . S
C1620 H1614 0.950 . S
C1620 C1621 1.327 . S
C1621 H1615 0.950 . S
C1621 C1620 1.327 . S
C1621 C1625 1.429 . S
C1622 C1605 1.574 . S
C1622 H1616 0.949 . S
C1622 C1626 1.368 . S
C1623 C1604 1.429 . S
C1623 C1617 1.429 . S
C1623 C1624 1.523 . S
C1624 C1605 1.368 . S
C1624 C1618 1.368 . S
C1624 C1623 1.523 . S
C1625 C1609 1.429 . S
C1625 C1621 1.429 . S
C1625 C1626 1.523 . S
C1626 C1610 1.368 . S
C1626 C1622 1.368 . S
C1626 C1625 1.523 . S
H1627 C1602 0.950 . S
H1628 C1604 0.950 . S
H1629 C1605 0.949 . S
H1630 C1607 0.950 . S
H1631 C1609 0.950 . S
C1632 C1633 1.349 . S
C1632 C1634 1.327 . S
C1632 H1657 0.950 . S
C1633 C1632 1.349 . S
C1633 C1649 1.349 . S
C1634 C1632 1.327 . S
C1634 C1653 1.429 . S
C1634 H1658 0.950 . S
C1635 C1652 1.574 . S
C1635 C1654 1.368 . S
C1635 H1659 0.949 . S
H1636 C1640 0.949 . S
C1637 C1638 1.349 1_554 S
C1637 C1639 1.323 1_554 S
C1637 H1660 0.950 . S
C1638 C1637 1.349 1_556 S
C1638 C1650 1.349 . S
C1639 C1637 1.323 1_556 S
C1639 C1655 1.445 . S
C1639 H1661 0.938 1_556 S
C1640 H1636 0.949 . S
C1640 C1648 1.574 . S
C1640 C1656 1.368 . S
H1641 C1649 0.950 . S
H1642 C1647 0.950 . S
H1643 C1648 0.949 . S
H1644 C1650 0.950 . S
H1645 C1651 0.950 . S
H1646 C1652 0.943 1_554 S
C1647 H1642 0.950 . S
C1647 C1649 1.327 . S
C1647 C1653 1.429 . S
C1648 C1640 1.574 . S
C1648 H1643 0.949 . S
C1648 C1654 1.368 . S
C1649 C1633 1.349 . S
C1649 H1641 0.950 . S
C1649 C1647 1.327 . S
C1650 C1638 1.349 . S
C1650 H1644 0.950 . S
C1650 C1651 1.327 . S
C1651 H1645 0.950 . S
C1651 C1650 1.327 . S
C1651 C1655 1.429 . S
C1652 C1635 1.574 . S
C1652 H1646 0.943 1_556 S
C1652 C1656 1.368 . S
C1653 C1634 1.429 . S
C1653 C1647 1.429 . S
C1653 C1654 1.523 . S
C1654 C1635 1.368 . S
C1654 C1648 1.368 . S
C1654 C1653 1.523 . S
C1655 C1639 1.445 . S
C1655 C1651 1.429 . S
C1655 C1656 1.523 . S
C1656 C1640 1.368 . S
C1656 C1652 1.368 . S
C1656 C1655 1.523 . S
H1657 C1632 0.950 . S
H1658 C1634 0.950 . S
H1659 C1635 0.949 . S
H1660 C1637 0.950 . S
H1661 C1639 0.938 1_554 S
C1662 C1663 1.349 . S
C1662 C1664 1.327 . S
C1662 H1687 0.950 . S
C1663 C1662 1.349 . S
C1663 C1679 1.349 . S
C1664 C1662 1.327 . S
C1664 C1683 1.429 . S
C1664 H1688 0.950 . S
C1665 C1682 1.574 . S
C1665 C1684 1.368 . S
C1665 H1689 0.949 . S
H1666 C1670 0.949 . S
C1667 C1668 1.349 . S
C1667 C1669 1.327 . S
C1667 H1690 0.950 . S
C1668 C1667 1.349 . S
C1668 C1680 1.349 . S
C1669 C1667 1.327 . S
C1669 C1685 1.429 . S
C1669 H1691 0.950 . S
C1670 H1666 0.949 . S
C1670 C1678 1.574 . S
C1670 C1686 1.368 . S
H1671 C1679 0.950 . S
H1672 C1677 0.950 . S
H1673 C1678 0.949 . S
H1674 C1680 0.950 . S
H1675 C1681 0.950 . S
H1676 C1682 0.949 . S
C1677 H1672 0.950 . S
C1677 C1679 1.327 . S
C1677 C1683 1.429 . S
C1678 C1670 1.574 . S
C1678 H1673 0.949 . S
C1678 C1684 1.368 . S
C1679 C1663 1.349 . S
C1679 H1671 0.950 . S
C1679 C1677 1.327 . S
C1680 C1668 1.349 . S
C1680 H1674 0.950 . S
C1680 C1681 1.327 . S
C1681 H1675 0.950 . S
C1681 C1680 1.327 . S
C1681 C1685 1.429 . S
C1682 C1665 1.574 . S
C1682 H1676 0.949 . S
C1682 C1686 1.368 . S
C1683 C1664 1.429 . S
C1683 C1677 1.429 . S
C1683 C1684 1.523 . S
C1684 C1665 1.368 . S
C1684 C1678 1.368 . S
C1684 C1683 1.523 . S
C1685 C1669 1.429 . S
C1685 C1681 1.429 . S
C1685 C1686 1.523 . S
C1686 C1670 1.368 . S
C1686 C1682 1.368 . S
C1686 C1685 1.523 . S
H1687 C1662 0.950 . S
H1688 C1664 0.950 . S
H1689 C1665 0.949 . S
H1690 C1667 0.950 . S
H1691 C1669 0.950 . S
C1692 C1693 1.349 . S
C1692 C1694 1.327 . S
C1692 H1717 0.950 . S
C1693 C1692 1.349 . S
C1693 C1709 1.349 . S
C1694 C1692 1.327 . S
C1694 C1713 1.429 . S
C1694 H1718 0.950 . S
C1695 C1712 1.574 . S
C1695 C1714 1.368 . S
C1695 H1719 0.949 . S
H1696 C1700 0.949 . S
C1697 C1698 1.349 . S
C1697 C1699 1.327 . S
C1697 H1720 0.950 . S
C1698 C1697 1.349 . S
C1698 C1710 1.349 . S
C1699 C1697 1.327 . S
C1699 C1715 1.429 . S
C1699 H1721 0.950 . S
C1700 H1696 0.949 . S
C1700 C1708 1.574 . S
C1700 C1716 1.368 . S
H1701 C1709 0.950 . S
H1702 C1707 0.950 . S
H1703 C1708 0.949 . S
H1704 C1710 0.950 . S
H1705 C1711 0.950 . S
H1706 C1712 0.949 . S
C1707 H1702 0.950 . S
C1707 C1709 1.327 . S
C1707 C1713 1.429 . S
C1708 C1700 1.574 . S
C1708 H1703 0.949 . S
C1708 C1714 1.368 . S
C1709 C1693 1.349 . S
C1709 H1701 0.950 . S
C1709 C1707 1.327 . S
C1710 C1698 1.349 . S
C1710 H1704 0.950 . S
C1710 C1711 1.327 . S
C1711 H1705 0.950 . S
C1711 C1710 1.327 . S
C1711 C1715 1.429 . S
C1712 C1695 1.574 . S
C1712 H1706 0.949 . S
C1712 C1716 1.368 . S
C1713 C1694 1.429 . S
C1713 C1707 1.429 . S
C1713 C1714 1.523 . S
C1714 C1695 1.368 . S
C1714 C1708 1.368 . S
C1714 C1713 1.523 . S
C1715 C1699 1.429 . S
C1715 C1711 1.429 . S
C1715 C1716 1.523 . S
C1716 C1700 1.368 . S
C1716 C1712 1.368 . S
C1716 C1715 1.523 . S
H1717 C1692 0.950 . S
H1718 C1694 0.950 . S
H1719 C1695 0.949 . S
H1720 C1697 0.950 . S
H1721 C1699 0.950 . S
C1722 C1723 1.349 . S
C1722 C1724 1.327 1_545 S
C1722 H1747 0.950 . S
C1723 C1722 1.349 . S
C1723 C1739 1.349 . S
C1724 C1722 1.327 1_565 S
C1724 C1743 1.429 . S
C1724 H1748 0.950 . S
C1725 C1742 1.574 . S
C1725 C1744 1.368 . S
C1725 H1749 0.949 1_554 S
H1726 C1730 0.949 . S
C1727 C1728 1.349 1_556 S
C1727 C1729 1.324 1_556 S
C1727 H1750 0.950 . S
C1728 C1727 1.349 1_554 S
C1728 C1740 1.349 . S
C1729 C1727 1.324 1_554 S
C1729 C1745 1.457 . S
C1729 H1751 0.925 1_554 S
C1730 H1726 0.949 . S
C1730 C1738 1.574 . S
C1730 C1746 1.368 . S
H1731 C1739 0.950 . S
H1732 C1737 0.950 . S
H1733 C1738 0.949 . S
H1734 C1740 0.950 . S
H1735 C1741 0.950 . S
H1736 C1742 0.949 1_556 S
C1737 H1732 0.950 . S
C1737 C1739 1.327 . S
C1737 C1743 1.429 1_545 S
C1738 C1730 1.574 . S
C1738 H1733 0.949 . S
C1738 C1744 1.368 . S
C1739 C1723 1.349 . S
C1739 H1731 0.950 . S
C1739 C1737 1.327 . S
C1740 C1728 1.349 . S
C1740 H1734 0.950 . S
C1740 C1741 1.327 . S
C1741 H1735 0.950 . S
C1741 C1740 1.327 . S
C1741 C1745 1.429 . S
C1742 C1725 1.574 . S
C1742 H1736 0.949 1_554 S
C1742 C1746 1.368 . S
C1743 C1724 1.429 . S
C1743 C1737 1.429 1_565 S
C1743 C1744 1.523 . S
C1744 C1725 1.368 . S
C1744 C1738 1.368 . S
C1744 C1743 1.523 . S
C1745 C1729 1.457 . S
C1745 C1741 1.429 . S
C1745 C1746 1.523 . S
C1746 C1730 1.368 . S
C1746 C1742 1.368 . S
C1746 C1745 1.523 . S
H1747 C1722 0.950 . S
H1748 C1724 0.950 . S
H1749 C1725 0.949 1_556 S
H1750 C1727 0.950 . S
H1751 C1729 0.925 1_556 S
C318 C152 1.496 . S
C313 C50 1.524 . S
C348 C165 1.464 . S
C343 C61 1.472 . S
C373 C67 1.642 . S
C378 C185 1.535 . S
C408 C199 1.354 . S
C403 C41 1.432 . S
C438 C211 1.511 . S
C433 C95 1.516 . S
C468 C225 1.429 . S
C463 C113 1.431 . S
C493 C106 1.479 . S
C498 C235 1.470 . S
C528 C250 1.514 . S
C523 C86 1.546 . S
C553 C104 1.511 . S
C558 C264 1.483 . S
C588 C283 1.365 . S
C583 C88 1.443 . S
C613 C94 1.509 . S
C618 C263 1.500 . S
C648 C281 1.414 . S
C643 C112 1.417 . S
C673 C70 1.628 . S
C678 C297 1.523 . S
C703 C40 1.485 . S
C708 C291 1.477 . S
C733 C49 1.524 . S
C738 C295 1.518 . S
C763 C59 1.546 . S
C768 C292 1.512 . S
C793 C34 1.509 . S
C798 C194 1.481 . S
C823 C133 1.487 . S
C828 C193 1.478 . S
C858 C157 1.363 . S
C853 C139 1.442 . S
C888 C171 1.535 . S
C883 C77 1.642 . S
C913 C43 1.525 . S
C918 C208 1.491 . S
C948 C253 1.516 . S
C943 C103 1.522 . S
C978 C207 1.492 . S
C973 C85 1.500 . S
C1008 C239 1.408 . S
C1003 C115 1.410 . S
C1038 C236 1.495 . S
C1033 C131 1.524 . S
C1063 C142 1.472 . S
C1068 C249 1.464 . S
C1093 C76 1.642 . S
C1098 C213 1.535 . S
C1128 C227 1.354 . S
C1123 C122 1.432 . S
C1153 C32 1.516 . S
C1158 C183 1.511 . S
C1188 C197 1.429 . S
C1183 C5 1.431 . S
C1218 C151 1.470 . S
C1213 C16 1.479 . S
C1248 C166 1.514 . S
C1243 C23 1.546 . S
C1273 C14 1.511 . S
C1278 C278 1.483 . S
C1303 C25 1.443 . S
C1308 C269 1.365 . S
C1333 C31 1.509 . S
C1338 C277 1.500 . S
C1363 C4 1.417 . S
C1368 C267 1.414 . S
C1398 C311 1.523 . S
C1393 C79 1.628 . S
C1428 C305 1.477 . S
C1423 C121 1.485 . S
C1458 C309 1.518 . S
C1453 C130 1.524 . S
C1483 C140 1.546 . S
C1488 C306 1.512 . S
C1513 C97 1.509 . S
C1518 C222 1.481 . S
C1548 C221 1.478 . S
C1543 C52 1.487 . S
C1578 C241 1.364 . S
C1573 C58 1.442 . S
C1608 C255 1.535 . S
C1603 C68 1.642 . S
C1633 C124 1.525 . S
C1638 C180 1.491 . S
C1668 C169 1.516 . S
C1663 C13 1.522 . S
C1693 C22 1.500 . S
C1698 C179 1.491 . S
C1728 C155 1.408 . S
C1723 C7 1.410 . S
