# Generated by pormake.
# Topology ssa, (4,4)-cn, num edge types: 1
# Building blocks:
#     Node 0, Type 0, BuildingBlock: ESEHIV_clean_sbu_0, # of connection points: 4
#     Node 1, Type 0, BuildingBlock: ESEHIV_clean_sbu_0, # of connection points: 4
#     Node 2, Type 0, BuildingBlock: ESEHIV_clean_sbu_0, # of connection points: 4
#     Node 3, Type 0, BuildingBlock: ESEHIV_clean_sbu_0, # of connection points: 4
#     Node 4, Type 0, BuildingBlock: ESEHIV_clean_sbu_0, # of connection points: 4
#     Node 5, Type 0, BuildingBlock: ESEHIV_clean_sbu_0, # of connection points: 4
#     Node 6, Type 1, BuildingBlock: NAHDIM_clean_linker_0, # of connection points: 4
#     Node 7, Type 1, BuildingBlock: NAHDIM_clean_linker_0, # of connection points: 4
#     Node 8, Type 1, BuildingBlock: NAHDIM_clean_linker_0, # of connection points: 4
#     Node 9, Type 1, BuildingBlock: NAHDIM_clean_linker_0, # of connection points: 4
#     Node 10, Type 1, BuildingBlock: NAHDIM_clean_linker_0, # of connection points: 4
#     Node 11, Type 1, BuildingBlock: NAHDIM_clean_linker_0, # of connection points: 4
#     Edge 12, Type (0, 1), BuildingBlock: KIFKEQ_clean_linker_1, # of connection points: 2
#     Edge 13, Type (0, 1), BuildingBlock: KIFKEQ_clean_linker_1, # of connection points: 2
#     Edge 14, Type (0, 1), BuildingBlock: KIFKEQ_clean_linker_1, # of connection points: 2
#     Edge 15, Type (0, 1), BuildingBlock: KIFKEQ_clean_linker_1, # of connection points: 2
#     Edge 16, Type (0, 1), BuildingBlock: KIFKEQ_clean_linker_1, # of connection points: 2
#     Edge 17, Type (0, 1), BuildingBlock: KIFKEQ_clean_linker_1, # of connection points: 2
#     Edge 18, Type (0, 1), BuildingBlock: KIFKEQ_clean_linker_1, # of connection points: 2
#     Edge 19, Type (0, 1), BuildingBlock: KIFKEQ_clean_linker_1, # of connection points: 2
#     Edge 20, Type (0, 1), BuildingBlock: KIFKEQ_clean_linker_1, # of connection points: 2
#     Edge 21, Type (0, 1), BuildingBlock: KIFKEQ_clean_linker_1, # of connection points: 2
#     Edge 22, Type (0, 1), BuildingBlock: KIFKEQ_clean_linker_1, # of connection points: 2
#     Edge 23, Type (0, 1), BuildingBlock: KIFKEQ_clean_linker_1, # of connection points: 2
#     Edge 24, Type (0, 1), BuildingBlock: KIFKEQ_clean_linker_1, # of connection points: 2
#     Edge 25, Type (0, 1), BuildingBlock: KIFKEQ_clean_linker_1, # of connection points: 2
#     Edge 26, Type (0, 1), BuildingBlock: KIFKEQ_clean_linker_1, # of connection points: 2
#     Edge 27, Type (0, 1), BuildingBlock: KIFKEQ_clean_linker_1, # of connection points: 2
#     Edge 28, Type (0, 1), BuildingBlock: KIFKEQ_clean_linker_1, # of connection points: 2
#     Edge 29, Type (0, 1), BuildingBlock: KIFKEQ_clean_linker_1, # of connection points: 2
#     Edge 30, Type (0, 1), BuildingBlock: KIFKEQ_clean_linker_1, # of connection points: 2
#     Edge 31, Type (0, 1), BuildingBlock: KIFKEQ_clean_linker_1, # of connection points: 2
#     Edge 32, Type (0, 1), BuildingBlock: KIFKEQ_clean_linker_1, # of connection points: 2
#     Edge 33, Type (0, 1), BuildingBlock: KIFKEQ_clean_linker_1, # of connection points: 2
#     Edge 34, Type (0, 1), BuildingBlock: KIFKEQ_clean_linker_1, # of connection points: 2
#     Edge 35, Type (0, 1), BuildingBlock: KIFKEQ_clean_linker_1, # of connection points: 2
# Relax obj value: 0.017
# Max RMSD: 0.106
# Mean RMSD: 0.070
data_MOF--net-ssa--node1-ESEHIV_clean_sbu_0--node2-NAHDIM_clean_linker_0--edge1-KIFKEQ_clean_linker_1
_symmetry_space_group_name_H-M    P1
_symmetry_Int_Tables_number       1
_symmetry_cell_setting            triclinic
loop_
_symmetry_equiv_pos_as_xyz
'x, y, z'
_cell_length_a     62.770131
_cell_length_b     66.200928
_cell_length_c     55.589175
_cell_angle_alpha  88.436816
_cell_angle_beta   91.12633
_cell_angle_gamma 121.86483
loop_
_atom_site_label
_atom_site_type_symbol
_atom_site_fract_x
_atom_site_fract_y
_atom_site_fract_z
_atom_type_partial_charge
Cu0 Cu 0.9984 0.50595 0.01772 0.0
N1 N 0.96937 0.47605 0.01374 0.0
N2 N 0.94494 0.43914 1.00011 0.0
C3 C 0.96857 0.45802 0.00229 0.0
C4 C 0.93032 0.44543 0.01101 0.0
C5 C 0.94544 0.46823 0.01936 0.0
O6 O 0.00269 0.52629 0.99001 0.0
C7 C 0.04876 0.51603 0.02427 0.0
O8 O 0.05658 0.53824 0.01841 0.0
H9 H 0.98504 0.45906 0.99512 0.0
H10 H 0.93919 0.4785 0.02818 0.0
N11 N 0.99629 0.52121 0.04452 0.0
N12 N 0.00995 0.54817 0.0735 0.0
C13 C 0.01566 0.53576 0.0589 0.0
C14 C 0.9776 0.52446 0.05029 0.0
C15 C 0.98588 0.5409 0.06831 0.0
C16 C 0.99478 0.51852 0.96897 0.0
O17 O 0.98627 0.49612 0.96456 0.0
H18 H 0.03404 0.5382 0.05776 0.0
H19 H 0.95994 0.51702 0.04077 0.0
O20 O 0.02546 0.50039 0.02334 0.0
H21 H 0.91006 0.43478 0.01196 0.0
H22 H 0.97569 0.54839 0.07554 0.0
Cu23 Cu 0.50703 0.99826 0.51814 0.0
N24 N 0.50991 0.97193 0.51443 0.0
N25 N 0.52156 0.94925 0.49713 0.0
C26 C 0.5241 0.97076 0.49739 0.0
C27 C 0.50511 0.9363 0.51476 0.0
C28 C 0.49804 0.95043 0.52554 0.0
O29 O 0.4945 0.00226 0.48741 0.0
C30 C 0.5475 0.04602 0.52856 0.0
O31 O 0.53218 0.05328 0.52284 0.0
H32 H 0.53537 0.98521 0.48482 0.0
H33 H 0.48492 0.94522 0.54014 0.0
N34 N 0.48402 0.99281 0.54216 0.0
N35 N 0.46339 1.00039 0.56932 0.0
C36 C 0.48486 0.00912 0.55678 0.0
C37 C 0.46133 0.97303 0.54562 0.0
C38 C 0.44864 0.97758 0.56244 0.0
C39 C 0.4787 0.00869 0.48515 0.0
O40 O 0.47428 0.01786 0.50364 0.0
H41 H 0.50024 0.02743 0.557 0.0
H42 H 0.454 0.95683 0.53567 0.0
O43 O 0.54015 0.02418 0.52675 0.0
H44 H 0.49862 0.91796 0.51944 0.0
H45 H 0.42969 0.9652 0.56847 0.0
Cu46 Cu 0.54226 0.51214 0.02833 0.0
N47 N 0.53249 0.48021 0.02721 0.0
N48 N 0.51835 0.44475 0.01094 0.0
C49 C 0.52556 0.46769 0.00686 0.0
C50 C 0.52081 0.4428 0.03496 0.0
C51 C 0.52952 0.46472 0.04495 0.0
O52 O 0.56253 0.52774 0.99996 0.0
C53 C 0.5017 0.50569 0.05166 0.0
O54 O 0.51191 0.49823 0.06758 0.0
H55 H 0.52519 0.47526 0.98948 0.0
H56 H 0.53306 0.46893 0.06382 0.0
N57 N 0.56207 0.52763 0.05524 0.0
N58 N 0.5785 0.55412 0.08465 0.0
C59 C 0.56497 0.54767 0.06406 0.0
C60 C 0.57438 0.52121 0.07064 0.0
C61 C 0.58449 0.53752 0.08889 0.0
C62 C 0.58193 0.52623 0.99944 0.0
O63 O 0.58565 0.51502 0.01733 0.0
H64 H 0.55631 0.5567 0.05603 0.0
H65 H 0.57554 0.50558 0.069 0.0
O66 O 0.51187 0.51291 0.03106 0.0
H67 H 0.51663 0.42673 0.04466 0.0
H68 H 0.5952 0.53705 0.10415 0.0
Cu69 Cu 0.00528 0.49242 0.49267 0.0
N70 N 0.00415 0.47657 0.46514 0.0
N71 N 0.01614 0.45877 0.43988 0.0
C72 C 0.01996 0.46911 0.46142 0.0
C73 C 0.99709 0.45988 0.42956 0.0
C74 C 0.98968 0.47086 0.44526 0.0
O75 O 0.03732 0.52252 0.49205 0.0
C76 C 0.00936 0.47563 0.54056 0.0
O77 O 0.02752 0.49737 0.54556 0.0
H78 H 0.03446 0.47185 0.47417 0.0
H79 H 0.97498 0.47458 0.44233 0.0
N80 N 0.97991 0.49901 0.49345 0.0
N81 N 0.95668 0.5104 0.51188 0.0
C82 C 0.96849 0.49829 0.51392 0.0
C83 C 0.97475 0.51152 0.47751 0.0
C84 C 0.96027 0.51846 0.4888 0.0
C85 C 0.04067 0.54109 0.50198 0.0
O86 O 0.02365 0.5391 0.51688 0.0
H87 H 0.97074 0.49071 0.53053 0.0
H88 H 0.98288 0.51711 0.45978 0.0
O89 O 0.99949 0.47101 0.51969 0.0
H90 H 0.98902 0.45317 0.41202 0.0
H91 H 0.9549 0.53037 0.48121 0.0
Cu92 Cu 0.52606 0.00624 0.02547 0.0
N93 N 0.5197 0.03067 0.02629 0.0
N94 N 0.50891 0.05594 0.01216 0.0
C95 C 0.51827 0.04239 0.00679 0.0
C96 C 0.50441 0.05275 0.03603 0.0
C97 C 0.51122 0.0372 0.04475 0.0
O98 O 0.53974 0.00817 0.99375 0.0
C99 C 0.47362 0.97314 0.03021 0.0
O100 O 0.47128 0.98908 0.01788 0.0
H101 H 0.52214 0.03955 0.98871 0.0
H102 H 0.50873 0.03002 0.0629 0.0
N103 N 0.54937 0.01058 0.0492 0.0
N104 N 0.57063 0.00169 0.07566 0.0
C105 C 0.55107 0.9931 0.06014 0.0
C106 C 0.56831 0.031 0.05818 0.0
C107 C 0.58151 0.02558 0.07451 0.0
C108 C 0.55816 0.00566 0.99001 0.0
O109 O 0.56631 0.99776 0.00758 0.0
H110 H 0.53874 0.9745 0.05597 0.0
H111 H 0.57243 0.04856 0.05293 0.0
O112 O 0.49533 0.97629 0.03317 0.0
H113 H 0.49583 0.06031 0.0462 0.0
H114 H 0.59792 0.03828 0.0846 0.0
Cu115 Cu 0.48576 0.49409 0.52991 0.0
N116 N 0.49249 0.52511 0.53002 0.0
N117 N 0.50733 0.56246 0.51717 0.0
C118 C 0.50344 0.54099 0.51182 0.0
C119 C 0.49846 0.55994 0.5397 0.0
C120 C 0.48926 0.53682 0.54758 0.0
O121 O 0.46773 0.47951 0.50009 0.0
C122 C 0.52702 0.50395 0.55589 0.0
O123 O 0.51456 0.5091 0.57068 0.0
H124 H 0.50915 0.53699 0.49527 0.0
H125 H 0.48122 0.52923 0.56499 0.0
N126 N 0.46498 0.47547 0.55541 0.0
N127 N 0.44842 0.44706 0.584 0.0
C128 C 0.46659 0.45836 0.56739 0.0
C129 C 0.44513 0.47501 0.56487 0.0
C130 C 0.43475 0.45734 0.58244 0.0
C131 C 0.44816 0.48059 0.49706 0.0
O132 O 0.44333 0.49198 0.5129 0.0
H133 H 0.48055 0.45399 0.5637 0.0
H134 H 0.43854 0.48659 0.55937 0.0
O135 O 0.51788 0.49656 0.53499 0.0
H136 H 0.49867 0.57378 0.5498 0.0
H137 H 0.41861 0.45256 0.59339 0.0
C138 C 0.11295 0.375 0.39394 0.0
C139 C 0.12368 0.3991 0.38101 0.0
C140 C 0.14444 0.40379 0.34297 0.0
C141 C 0.16511 0.42713 0.34453 0.0
C142 C 0.18659 0.43483 0.33057 0.0
C143 C 0.18746 0.4187 0.31498 0.0
C144 C 0.16649 0.39514 0.31335 0.0
C145 C 0.14504 0.38816 0.32704 0.0
C146 C 0.20833 0.46017 0.33256 0.0
C147 C 0.16678 0.37725 0.29732 0.0
C148 C 0.36403 0.44372 0.37914 0.0
C149 C 0.34741 0.43641 0.35739 0.0
C150 C 0.31778 0.44639 0.33919 0.0
C151 C 0.3021 0.42453 0.3279 0.0
C152 C 0.28073 0.42035 0.31483 0.0
C153 C 0.27531 0.43855 0.31258 0.0
C154 C 0.29138 0.46068 0.32359 0.0
C155 C 0.31226 0.4642 0.33687 0.0
C156 C 0.26391 0.39651 0.30346 0.0
C157 C 0.28646 0.48065 0.3214 0.0
C158 C 0.31621 0.46702 0.15257 0.0
C159 C 0.29472 0.44405 0.15487 0.0
C160 C 0.27512 0.43955 0.17018 0.0
C161 C 0.27675 0.45847 0.18305 0.0
C162 C 0.29802 0.4817 0.18032 0.0
C163 C 0.31754 0.48563 0.16517 0.0
C164 C 0.25259 0.41457 0.17258 0.0
C165 C 0.30011 0.50235 0.1934 0.0
C166 C 0.10769 0.45409 0.16659 0.0
C167 C 0.13117 0.47084 0.15188 0.0
C168 C 0.16002 0.45709 0.16042 0.0
C169 C 0.15982 0.4359 0.15987 0.0
C170 C 0.1769 0.43281 0.17367 0.0
C171 C 0.19501 0.45165 0.18796 0.0
C172 C 0.19552 0.47326 0.18842 0.0
C173 C 0.17803 0.47577 0.17466 0.0
C174 C 0.17586 0.40955 0.17268 0.0
C175 C 0.21505 0.49397 0.20294 0.0
C176 C 0.21019 0.42643 0.3003 0.0
C177 C 0.23107 0.42793 0.31165 0.0
C178 C 0.25291 0.4347 0.29883 0.0
C179 C 0.25368 0.4393 0.27374 0.0
C180 C 0.27485 0.4451 0.26004 0.0
C181 C 0.27541 0.44955 0.23536 0.0
C182 C 0.25514 0.4491 0.22357 0.0
C183 C 0.25569 0.45401 0.19859 0.0
C184 C 0.23569 0.4544 0.18765 0.0
C185 C 0.21475 0.44957 0.20084 0.0
C186 C 0.21337 0.44369 0.22565 0.0
C187 C 0.19222 0.43795 0.23931 0.0
C188 C 0.19112 0.43228 0.26375 0.0
C189 C 0.21116 0.43223 0.27548 0.0
C190 C 0.23283 0.43829 0.26211 0.0
C191 C 0.23376 0.44367 0.23709 0.0
C192 C 0.34621 0.44212 0.14623 0.0
C193 C 0.34042 0.45609 0.12745 0.0
O194 O 0.1236 0.39597 0.35643 0.0
O195 O 0.14332 0.45914 0.14625 0.0
O196 O 0.33609 0.47206 0.13865 0.0
O197 O 0.33814 0.4511 0.35273 0.0
H198 H 0.14322 0.41079 0.38783 0.0
H199 H 0.12462 0.36744 0.39002 0.0
H200 H 0.09343 0.36231 0.38782 0.0
H201 H 0.11302 0.37706 0.41373 0.0
H202 H 0.1643 0.4394 0.35644 0.0
H203 H 0.12884 0.37022 0.32587 0.0
H204 H 0.224 0.4603 0.3423 0.0
H205 H 0.20325 0.47137 0.34248 0.0
H206 H 0.21517 0.46824 0.31441 0.0
H207 H 0.1505 0.35894 0.30061 0.0
H208 H 0.18434 0.37724 0.30018 0.0
H209 H 0.16625 0.38223 0.2782 0.0
H210 H 0.35491 0.43296 0.34103 0.0
H211 H 0.34445 0.41514 0.40333 0.0
H212 H 0.36934 0.46239 0.38332 0.0
H213 H 0.3831 0.44927 0.37207 0.0
H214 H 0.3063 0.41065 0.32934 0.0
H215 H 0.32448 0.481 0.3456 0.0
H216 H 0.24433 0.38872 0.30968 0.0
H217 H 0.26994 0.38378 0.30783 0.0
H218 H 0.2639 0.39885 0.28361 0.0
H219 H 0.30164 0.49728 0.32967 0.0
H220 H 0.26853 0.47522 0.33039 0.0
H221 H 0.28452 0.48439 0.30215 0.0
H222 H 0.32364 0.44357 0.11664 0.0
H223 H 0.29307 0.4295 0.14486 0.0
H224 H 0.33406 0.50332 0.16316 0.0
H225 H 0.24917 0.40903 0.19186 0.0
H226 H 0.25493 0.4015 0.16271 0.0
H227 H 0.23569 0.4141 0.16544 0.0
H228 H 0.31754 0.51948 0.18878 0.0
H229 H 0.29988 0.49913 0.21312 0.0
H230 H 0.2837 0.5039 0.1889 0.0
H231 H 0.1434 0.48668 0.16289 0.0
H232 H 0.09764 0.46313 0.17115 0.0
H233 H 0.11309 0.44876 0.18365 0.0
H234 H 0.09481 0.43779 0.15636 0.0
H235 H 0.14607 0.42168 0.14862 0.0
H236 H 0.17923 0.49267 0.17449 0.0
H237 H 0.17598 0.40284 0.19119 0.0
H238 H 0.19276 0.41245 0.16335 0.0
H239 H 0.15894 0.39575 0.16297 0.0
H240 H 0.21324 0.50975 0.20108 0.0
H241 H 0.23411 0.49909 0.19708 0.0
H242 H 0.2133 0.48865 0.22225 0.0
H243 H 0.23047 0.4241 0.33082 0.0
H244 H 0.29114 0.44602 0.26819 0.0
H245 H 0.29208 0.45364 0.22568 0.0
H246 H 0.2365 0.45862 0.16856 0.0
H247 H 0.17625 0.4377 0.23123 0.0
H248 H 0.17437 0.42807 0.27335 0.0
H249 H 0.3502 0.42972 0.13719 0.0
H250 H 0.33009 0.43136 0.1584 0.0
H251 H 0.36274 0.45448 0.15737 0.0
C252 C 0.86958 0.27135 0.91544 0.0
C253 C 0.88201 0.29365 0.89903 0.0
C254 C 0.85399 0.27855 0.86351 0.0
C255 C 0.86146 0.26325 0.8555 0.0
C256 C 0.84841 0.24739 0.83678 0.0
C257 C 0.82773 0.24705 0.82572 0.0
C258 C 0.82094 0.26319 0.83302 0.0
C259 C 0.83421 0.27874 0.85182 0.0
C260 C 0.85629 0.2306 0.82915 0.0
C261 C 0.79916 0.26351 0.82145 0.0
C262 C 0.71158 0.13123 0.89542 0.0
C263 C 0.69015 0.12145 0.87689 0.0
C264 C 0.71412 0.13165 0.84015 0.0
C265 C 0.71196 0.15045 0.83098 0.0
C266 C 0.73107 0.16875 0.81692 0.0
C267 C 0.75277 0.1682 0.81188 0.0
C268 C 0.75423 0.14845 0.81977 0.0
C269 C 0.73469 0.13025 0.83366 0.0
C270 C 0.72855 0.18922 0.80831 0.0
C271 C 0.77692 0.14714 0.81442 0.0
C272 C 0.7324 0.15478 0.65254 0.0
C273 C 0.72903 0.17183 0.66321 0.0
C274 C 0.74757 0.18905 0.67826 0.0
C275 C 0.76988 0.18911 0.68275 0.0
C276 C 0.77376 0.17254 0.67118 0.0
C277 C 0.755 0.15569 0.65595 0.0
C278 C 0.74312 0.20692 0.68969 0.0
C279 C 0.7974 0.17224 0.67543 0.0
C280 C 0.93841 0.35293 0.69206 0.0
C281 C 0.92862 0.34332 0.66684 0.0
C282 C 0.88501 0.31121 0.67596 0.0
C283 C 0.86051 0.30628 0.67731 0.0
C284 C 0.84125 0.28492 0.68766 0.0
C285 C 0.84652 0.26772 0.6964 0.0
C286 C 0.87118 0.2723 0.69459 0.0
C287 C 0.89025 0.29412 0.68469 0.0
C288 C 0.81526 0.2808 0.68927 0.0
C289 C 0.87736 0.25411 0.70305 0.0
C290 C 0.81201 0.22868 0.80782 0.0
C291 C 0.79174 0.2072 0.81653 0.0
C292 C 0.77494 0.18952 0.80092 0.0
C293 C 0.77864 0.19313 0.77577 0.0
C294 C 0.76214 0.17577 0.75953 0.0
C295 C 0.76556 0.1798 0.7348 0.0
C296 C 0.78556 0.20138 0.72537 0.0
C297 C 0.78863 0.20594 0.70027 0.0
C298 C 0.80894 0.22739 0.69149 0.0
C299 C 0.82612 0.24487 0.70712 0.0
C300 C 0.823 0.24085 0.73233 0.0
C301 C 0.83937 0.25828 0.74865 0.0
C302 C 0.83598 0.25425 0.77338 0.0
C303 C 0.81597 0.23271 0.78276 0.0
C304 C 0.79922 0.21486 0.76668 0.0
C305 C 0.80271 0.21896 0.74144 0.0
C306 C 0.68605 0.09963 0.65738 0.0
C307 C 0.68944 0.12253 0.64621 0.0
O308 O 0.86484 0.29311 0.88257 0.0
O309 O 0.90272 0.33252 0.66603 0.0
O310 O 0.71412 0.1373 0.63893 0.0
O311 O 0.69725 0.11536 0.85611 0.0
H312 H 0.89788 0.29469 0.88926 0.0
H313 H 0.8631 0.25508 0.90492 0.0
H314 H 0.85312 0.26954 0.92472 0.0
H315 H 0.88322 0.27241 0.92918 0.0
H316 H 0.87714 0.26329 0.86395 0.0
H317 H 0.82877 0.29079 0.85792 0.0
H318 H 0.84098 0.21197 0.83305 0.0
H319 H 0.87362 0.23394 0.83855 0.0
H320 H 0.85955 0.23237 0.80943 0.0
H321 H 0.79723 0.27811 0.82819 0.0
H322 H 0.78152 0.24631 0.8252 0.0
H323 H 0.80156 0.26559 0.80163 0.0
H324 H 0.68611 0.13562 0.87268 0.0
H325 H 0.70588 0.13572 0.91227 0.0
H326 H 0.72829 0.1477 0.88822 0.0
H327 H 0.71692 0.11797 0.89966 0.0
H328 H 0.69553 0.15106 0.83512 0.0
H329 H 0.73603 0.11548 0.84055 0.0
H330 H 0.73247 0.19253 0.78874 0.0
H331 H 0.74257 0.2056 0.81776 0.0
H332 H 0.70957 0.18591 0.8117 0.0
H333 H 0.77438 0.12979 0.82015 0.0
H334 H 0.79353 0.16157 0.82393 0.0
H335 H 0.78093 0.14994 0.79484 0.0
H336 H 0.68466 0.1311 0.66032 0.0
H337 H 0.7119 0.17168 0.65975 0.0
H338 H 0.75752 0.14264 0.64729 0.0
H339 H 0.74091 0.20347 0.70941 0.0
H340 H 0.72606 0.20608 0.68243 0.0
H341 H 0.75954 0.22521 0.68674 0.0
H342 H 0.79736 0.15793 0.66542 0.0
H343 H 0.79959 0.16967 0.69494 0.0
H344 H 0.81392 0.18964 0.66978 0.0
H345 H 0.93385 0.33024 0.66233 0.0
H346 H 0.95911 0.36148 0.69299 0.0
H347 H 0.93003 0.33821 0.70567 0.0
H348 H 0.93348 0.36618 0.69673 0.0
H349 H 0.85658 0.31948 0.67046 0.0
H350 H 0.90905 0.29749 0.68371 0.0
H351 H 0.80777 0.27479 0.70775 0.0
H352 H 0.80251 0.26654 0.67676 0.0
H353 H 0.81496 0.29706 0.68451 0.0
H354 H 0.89657 0.25913 0.69781 0.0
H355 H 0.86366 0.23646 0.69548 0.0
H356 H 0.87598 0.25225 0.72295 0.0
H357 H 0.78861 0.20445 0.83579 0.0
H358 H 0.74635 0.15893 0.76578 0.0
H359 H 0.75222 0.16579 0.72315 0.0
H360 H 0.81108 0.23074 0.6722 0.0
H361 H 0.85496 0.27529 0.74248 0.0
H362 H 0.84916 0.2683 0.78509 0.0
H363 H 0.66634 0.08752 0.66328 0.0
H364 H 0.69851 0.10392 0.67337 0.0
H365 H 0.69089 0.09033 0.64425 0.0
C366 C 0.63538 0.71962 0.42049 0.0
C367 C 0.60794 0.71118 0.41494 0.0
C368 C 0.60105 0.72193 0.37495 0.0
C369 C 0.57764 0.71542 0.36523 0.0
C370 C 0.57495 0.73098 0.34962 0.0
C371 C 0.59633 0.75333 0.34338 0.0
C372 C 0.6202 0.75957 0.35252 0.0
C373 C 0.62229 0.74374 0.36825 0.0
C374 C 0.54924 0.7238 0.34019 0.0
C375 C 0.64342 0.78306 0.34588 0.0
C376 C 0.57644 0.89275 0.4143 0.0
C377 C 0.58757 0.88337 0.39796 0.0
C378 C 0.57488 0.84849 0.37347 0.0
C379 C 0.59897 0.85665 0.36449 0.0
C380 C 0.60309 0.8425 0.34921 0.0
C381 C 0.58266 0.81999 0.34241 0.0
C382 C 0.55828 0.81212 0.35076 0.0
C383 C 0.55477 0.82645 0.36629 0.0
C384 C 0.62936 0.85135 0.34076 0.0
C385 C 0.53601 0.78834 0.34365 0.0
C386 C 0.59052 0.86495 0.18732 0.0
C387 C 0.61338 0.86866 0.1964 0.0
C388 C 0.61437 0.85031 0.20859 0.0
C389 C 0.59207 0.82784 0.21193 0.0
C390 C 0.56914 0.82391 0.20242 0.0
C391 C 0.56871 0.84253 0.19015 0.0
C392 C 0.63921 0.85501 0.21821 0.0
C393 C 0.54505 0.80016 0.20562 0.0
C394 C 0.62479 0.68985 0.21036 0.0
C395 C 0.60327 0.6848 0.19311 0.0
C396 C 0.60542 0.72239 0.19044 0.0
C397 C 0.62584 0.74572 0.19216 0.0
C398 C 0.62346 0.76314 0.20349 0.0
C399 C 0.59986 0.75709 0.21265 0.0
C400 C 0.57878 0.73382 0.20952 0.0
C401 C 0.58186 0.71665 0.19861 0.0
C402 C 0.64629 0.78778 0.20628 0.0
C403 C 0.55311 0.72696 0.21812 0.0
C404 C 0.59354 0.7708 0.32854 0.0
C405 C 0.5897 0.78682 0.3406 0.0
C406 C 0.58699 0.80391 0.32805 0.0
C407 C 0.58823 0.80522 0.30264 0.0
C408 C 0.58565 0.82221 0.28942 0.0
C409 C 0.58716 0.82349 0.26442 0.0
C410 C 0.59101 0.80763 0.25165 0.0
C411 C 0.59267 0.80885 0.22624 0.0
C412 C 0.59556 0.79223 0.21405 0.0
C413 C 0.59745 0.77463 0.22662 0.0
C414 C 0.59681 0.77373 0.2521 0.0
C415 C 0.59968 0.75689 0.26539 0.0
C416 C 0.59866 0.75591 0.29041 0.0
C417 C 0.59477 0.77174 0.30313 0.0
C418 C 0.59211 0.78903 0.29014 0.0
C419 C 0.59329 0.79011 0.2646 0.0
C420 C 0.6008 0.92077 0.15856 0.0
C421 C 0.60786 0.9061 0.17343 0.0
O422 O 0.60294 0.70689 0.39058 0.0
O423 O 0.60889 0.70565 0.18101 0.0
O424 O 0.5887 0.88243 0.1759 0.0
O425 O 0.57026 0.86104 0.38926 0.0
H426 H 0.60474 0.72547 0.42038 0.0
H427 H 0.64804 0.73749 0.41236 0.0
H428 H 0.64028 0.70708 0.41331 0.0
H429 H 0.63878 0.72101 0.44025 0.0
H430 H 0.56142 0.69835 0.37037 0.0
H431 H 0.64048 0.74837 0.37524 0.0
H432 H 0.5441 0.73643 0.34655 0.0
H433 H 0.53462 0.70551 0.34613 0.0
H434 H 0.54943 0.72475 0.32022 0.0
H435 H 0.66076 0.78477 0.35357 0.0
H436 H 0.64176 0.79784 0.35251 0.0
H437 H 0.64521 0.78507 0.326 0.0
H438 H 0.60516 0.8849 0.40489 0.0
H439 H 0.58572 0.89431 0.43227 0.0
H440 H 0.55765 0.87714 0.42006 0.0
H441 H 0.58037 0.92224 0.39527 0.0
H442 H 0.61471 0.87383 0.3696 0.0
H443 H 0.53624 0.82038 0.37314 0.0
H444 H 0.63484 0.83846 0.34633 0.0
H445 H 0.64335 0.86904 0.34807 0.0
H446 H 0.62997 0.85267 0.32081 0.0
H447 H 0.51798 0.78595 0.34948 0.0
H448 H 0.53786 0.7739 0.35197 0.0
H449 H 0.5355 0.78645 0.32382 0.0
H450 H 0.61737 0.91411 0.19084 0.0
H451 H 0.6305 0.88583 0.19413 0.0
H452 H 0.55119 0.83975 0.18299 0.0
H453 H 0.6386 0.85369 0.23817 0.0
H454 H 0.65511 0.87289 0.21275 0.0
H455 H 0.64275 0.84133 0.2117 0.0
H456 H 0.52874 0.79993 0.19716 0.0
H457 H 0.54127 0.79579 0.2251 0.0
H458 H 0.54694 0.78602 0.19756 0.0
H459 H 0.58596 0.67788 0.20397 0.0
H460 H 0.62058 0.6733 0.22015 0.0
H461 H 0.62731 0.70304 0.22384 0.0
H462 H 0.64262 0.69714 0.20033 0.0
H463 H 0.64388 0.74999 0.18544 0.0
H464 H 0.56588 0.69874 0.19647 0.0
H465 H 0.6492 0.79264 0.22556 0.0
H466 H 0.64329 0.80087 0.19637 0.0
H467 H 0.66355 0.78926 0.19936 0.0
H468 H 0.53814 0.70952 0.21107 0.0
H469 H 0.5489 0.74073 0.21252 0.0
H470 H 0.5527 0.72578 0.23808 0.0
H471 H 0.58876 0.78596 0.36011 0.0
H472 H 0.58254 0.8348 0.29829 0.0
H473 H 0.58514 0.83702 0.25523 0.0
H474 H 0.59644 0.79306 0.19455 0.0
H475 H 0.60277 0.74426 0.25661 0.0
H476 H 0.60093 0.74255 0.29968 0.0
H477 H 0.62402 0.93067 0.1285 0.0
H478 H 0.60169 0.93414 0.17129 0.0
H479 H 0.5797 0.91026 0.15718 0.0
C480 C 0.73963 0.60474 0.89085 0.0
C481 C 0.71719 0.59124 0.87361 0.0
C482 C 0.7363 0.57643 0.84622 0.0
C483 C 0.75367 0.59837 0.83525 0.0
C484 C 0.77266 0.6005 0.82043 0.0
C485 C 0.77392 0.58018 0.81605 0.0
C486 C 0.75586 0.55792 0.82633 0.0
C487 C 0.73729 0.55637 0.84128 0.0
C488 C 0.7916 0.6245 0.80968 0.0
C489 C 0.75637 0.53582 0.82173 0.0
C490 C 0.95692 0.62532 0.84459 0.0
C491 C 0.93678 0.60594 0.8611 0.0
C492 C 0.89742 0.58878 0.8374 0.0
C493 C 0.87866 0.56799 0.82658 0.0
C494 C 0.858 0.56692 0.81508 0.0
C495 C 0.85649 0.58752 0.81367 0.0
C496 C 0.8752 0.60858 0.82494 0.0
C497 C 0.89532 0.60893 0.83696 0.0
C498 C 0.83795 0.54375 0.80428 0.0
C499 C 0.87414 0.63084 0.82398 0.0
C500 C 0.8921 0.59307 0.65694 0.0
C501 C 0.87442 0.57041 0.66627 0.0
C502 C 0.8538 0.56678 0.67946 0.0
C503 C 0.85082 0.58619 0.68331 0.0
C504 C 0.86813 0.60883 0.6732 0.0
C505 C 0.88844 0.6119 0.65992 0.0
C506 C 0.83532 0.54229 0.68953 0.0
C507 C 0.86539 0.62987 0.6768 0.0
C508 C 0.68722 0.57998 0.65267 0.0
C509 C 0.69334 0.56695 0.63418 0.0
C510 C 0.72128 0.55846 0.65831 0.0
C511 C 0.72275 0.54056 0.67064 0.0
C512 C 0.7441 0.54574 0.68419 0.0
C513 C 0.76443 0.56958 0.68569 0.0
C514 C 0.76316 0.58784 0.67322 0.0
C515 C 0.74176 0.58209 0.65943 0.0
C516 C 0.745 0.5257 0.69676 0.0
C517 C 0.7845 0.61345 0.67437 0.0
C518 C 0.79437 0.58229 0.80108 0.0
C519 C 0.81559 0.58495 0.81288 0.0
C520 C 0.83557 0.587 0.79998 0.0
C521 C 0.83469 0.58698 0.77452 0.0
C522 C 0.85497 0.59028 0.7609 0.0
C523 C 0.85357 0.58928 0.73591 0.0
C524 C 0.83174 0.58475 0.72357 0.0
C525 C 0.82984 0.58296 0.69824 0.0
C526 C 0.80775 0.57808 0.68656 0.0
C527 C 0.78743 0.57527 0.69946 0.0
C528 C 0.78916 0.57753 0.72479 0.0
C529 C 0.76937 0.57543 0.73832 0.0
C530 C 0.77109 0.57718 0.76328 0.0
C531 C 0.79263 0.58101 0.77568 0.0
C532 C 0.81291 0.58343 0.76238 0.0
C533 C 0.81129 0.58195 0.73689 0.0
C534 C 0.95358 0.60557 0.6543 0.0
C535 C 0.92617 0.58647 0.64932 0.0
O536 O 0.71849 0.57372 0.8618 0.0
O537 O 0.69983 0.55209 0.64576 0.0
O538 O 0.91276 0.59742 0.64489 0.0
O539 O 0.91714 0.58848 0.84763 0.0
H540 H 0.71694 0.60387 0.86014 0.0
H541 H 0.75757 0.61453 0.88091 0.0
H542 H 0.74057 0.59218 0.90385 0.0
H543 H 0.73787 0.61802 0.90101 0.0
H544 H 0.75265 0.6139 0.83832 0.0
H545 H 0.72363 0.53946 0.84959 0.0
H546 H 0.81086 0.62928 0.81494 0.0
H547 H 0.78866 0.63876 0.81554 0.0
H548 H 0.79037 0.6237 0.78975 0.0
H549 H 0.74 0.51957 0.82972 0.0
H550 H 0.7738 0.53783 0.82952 0.0
H551 H 0.75658 0.5334 0.80206 0.0
H552 H 0.92963 0.61422 0.87311 0.0
H553 H 0.97299 0.63878 0.8555 0.0
H554 H 0.94929 0.6346 0.83406 0.0
H555 H 0.96385 0.61756 0.83171 0.0
H556 H 0.88027 0.55247 0.8272 0.0
H557 H 0.90942 0.62508 0.84557 0.0
H558 H 0.83985 0.545 0.78441 0.0
H559 H 0.81898 0.54003 0.80858 0.0
H560 H 0.8394 0.52851 0.81085 0.0
H561 H 0.89133 0.64639 0.83155 0.0
H562 H 0.85773 0.62778 0.83436 0.0
H563 H 0.87163 0.63515 0.80509 0.0
H564 H 0.91932 0.57499 0.66586 0.0
H565 H 0.8766 0.55552 0.66315 0.0
H566 H 0.90198 0.62922 0.65232 0.0
H567 H 0.83578 0.54272 0.70949 0.0
H568 H 0.83947 0.52877 0.6838 0.0
H569 H 0.81601 0.53674 0.68363 0.0
H570 H 0.88085 0.64645 0.66832 0.0
H571 H 0.86508 0.63278 0.69634 0.0
H572 H 0.84729 0.62613 0.66897 0.0
H573 H 0.70914 0.58015 0.62264 0.0
H574 H 0.70373 0.59145 0.66417 0.0
H575 H 0.68162 0.59155 0.64335 0.0
H576 H 0.67166 0.567 0.66453 0.0
H577 H 0.70699 0.52238 0.66958 0.0
H578 H 0.74125 0.59618 0.64967 0.0
H579 H 0.74553 0.52787 0.71653 0.0
H580 H 0.76235 0.52627 0.69175 0.0
H581 H 0.72852 0.50797 0.69227 0.0
H582 H 0.77946 0.62587 0.66611 0.0
H583 H 0.80091 0.61563 0.66469 0.0
H584 H 0.79028 0.61849 0.69336 0.0
H585 H 0.81638 0.58505 0.8324 0.0
H586 H 0.87218 0.59365 0.76941 0.0
H587 H 0.86973 0.59184 0.72641 0.0
H588 H 0.80636 0.57643 0.66714 0.0
H589 H 0.75229 0.57236 0.72975 0.0
H590 H 0.75521 0.57528 0.77276 0.0
H591 H 0.96182 0.61819 0.63874 0.0
H592 H 0.96478 0.59724 0.65793 0.0
H593 H 0.95479 0.61575 0.67037 0.0
C594 C 0.16043 0.71886 0.43407 0.0
C595 C 0.14607 0.69941 0.41544 0.0
C596 C 0.17535 0.71674 0.38131 0.0
C597 C 0.16963 0.73397 0.37429 0.0
C598 C 0.18395 0.7515 0.35676 0.0
C599 C 0.20456 0.75204 0.34616 0.0
C600 C 0.21012 0.73453 0.35291 0.0
C601 C 0.19523 0.71696 0.37017 0.0
C602 C 0.17722 0.76966 0.34975 0.0
C603 C 0.23214 0.73467 0.34228 0.0
C604 C 0.30349 0.89705 0.41382 0.0
C605 C 0.3231 0.89594 0.39891 0.0
C606 C 0.30468 0.87743 0.36096 0.0
C607 C 0.31082 0.85996 0.35989 0.0
C608 C 0.2956 0.83902 0.34709 0.0
C609 C 0.27377 0.83552 0.33524 0.0
C610 C 0.26808 0.85357 0.3356 0.0
C611 C 0.28389 0.87451 0.34821 0.0
C612 C 0.30257 0.82044 0.34658 0.0
C613 C 0.24489 0.85041 0.3233 0.0
C614 C 0.30977 0.85067 0.1743 0.0
C615 C 0.31468 0.83582 0.18868 0.0
C616 C 0.29654 0.81898 0.20466 0.0
C617 C 0.27311 0.81717 0.20648 0.0
C618 C 0.26804 0.83196 0.19176 0.0
C619 C 0.28635 0.8483 0.17559 0.0
C620 C 0.30232 0.80292 0.21938 0.0
C621 C 0.24329 0.83053 0.1931 0.0
C622 C 0.09725 0.654 0.16127 0.0
C623 C 0.11237 0.67544 0.17622 0.0
C624 C 0.15398 0.69836 0.19475 0.0
C625 C 0.17593 0.69884 0.20094 0.0
C626 C 0.19634 0.71887 0.21163 0.0
C627 C 0.19464 0.73887 0.21625 0.0
C628 C 0.17255 0.7386 0.20993 0.0
C629 C 0.15243 0.71835 0.1993 0.0
C630 C 0.21965 0.71864 0.21815 0.0
C631 C 0.17018 0.7597 0.21453 0.0
C632 C 0.2211 0.77161 0.329 0.0
C633 C 0.23914 0.79354 0.33855 0.0
C634 C 0.25611 0.81249 0.32371 0.0
C635 C 0.25571 0.80937 0.29861 0.0
C636 C 0.27335 0.8276 0.28328 0.0
C637 C 0.27277 0.82433 0.25858 0.0
C638 C 0.25438 0.80278 0.24823 0.0
C639 C 0.25365 0.79921 0.22315 0.0
C640 C 0.23425 0.77803 0.21339 0.0
C641 C 0.21574 0.76004 0.22803 0.0
C642 C 0.21691 0.76276 0.25324 0.0
C643 C 0.19923 0.74455 0.26857 0.0
C644 C 0.20061 0.74735 0.29339 0.0
C645 C 0.21947 0.76861 0.30379 0.0
C646 C 0.23713 0.78743 0.2886 0.0
C647 C 0.23617 0.78431 0.26334 0.0
C648 C 0.35454 0.90417 0.17708 0.0
C649 C 0.35202 0.88298 0.16392 0.0
O650 O 0.16255 0.69988 0.3988 0.0
O651 O 0.13488 0.67845 0.1844 0.0
O652 O 0.32695 0.86697 0.15858 0.0
O653 O 0.31824 0.89697 0.37463 0.0
H654 H 0.13213 0.70236 0.40598 0.0
H655 H 0.17008 0.73674 0.42524 0.0
H656 H 0.17474 0.71644 0.44347 0.0
H657 H 0.14729 0.71828 0.44758 0.0
H658 H 0.15417 0.73403 0.38243 0.0
H659 H 0.19947 0.70359 0.37555 0.0
H660 H 0.19202 0.78737 0.35635 0.0
H661 H 0.15896 0.76517 0.35736 0.0
H662 H 0.17633 0.77109 0.32984 0.0
H663 H 0.23504 0.72088 0.3507 0.0
H664 H 0.24953 0.75238 0.34459 0.0
H665 H 0.22905 0.73143 0.32268 0.0
H666 H 0.32125 0.87864 0.40375 0.0
H667 H 0.30763 0.89702 0.43335 0.0
H668 H 0.28459 0.88124 0.4102 0.0
H669 H 0.30305 0.91325 0.40915 0.0
H670 H 0.32743 0.86267 0.36921 0.0
H671 H 0.27951 0.88827 0.349 0.0
H672 H 0.30207 0.81489 0.32779 0.0
H673 H 0.28864 0.80445 0.35705 0.0
H674 H 0.32151 0.82694 0.35434 0.0
H675 H 0.2425 0.86564 0.32626 0.0
H676 H 0.228 0.83385 0.33008 0.0
H677 H 0.24599 0.84857 0.30366 0.0
H678 H 0.35956 0.87446 0.1759 0.0
H679 H 0.33239 0.83687 0.18704 0.0
H680 H 0.28263 0.85963 0.16417 0.0
H681 H 0.30346 0.80716 0.23871 0.0
H682 H 0.32033 0.80491 0.21413 0.0
H683 H 0.28702 0.78405 0.21728 0.0
H684 H 0.24343 0.84517 0.18272 0.0
H685 H 0.23863 0.83116 0.21213 0.0
H686 H 0.2282 0.81332 0.18576 0.0
H687 H 0.10175 0.67776 0.19063 0.0
H688 H 0.09691 0.66818 0.12726 0.0
H689 H 0.07964 0.64224 0.17188 0.0
H690 H 0.10512 0.64229 0.16459 0.0
H691 H 0.177 0.68339 0.19734 0.0
H692 H 0.13558 0.7183 0.19464 0.0
H693 H 0.22331 0.72132 0.23779 0.0
H694 H 0.23607 0.7336 0.20872 0.0
H695 H 0.21806 0.70171 0.21336 0.0
H696 H 0.15201 0.75695 0.208 0.0
H697 H 0.18566 0.77584 0.20546 0.0
H698 H 0.17189 0.76312 0.23412 0.0
H699 H 0.23996 0.79592 0.35786 0.0
H700 H 0.28792 0.84455 0.29026 0.0
H701 H 0.28684 0.83896 0.24766 0.0
H702 H 0.23344 0.77557 0.1941 0.0
H703 H 0.18425 0.72782 0.26157 0.0
H704 H 0.1866 0.73269 0.30433 0.0
H705 H 0.37451 0.91718 0.18154 0.0
H706 H 0.34383 0.89797 0.19416 0.0
H707 H 0.34709 0.9132 0.16576 0.0
C708 C 0.39868 0.07747 0.69105 0.0
C709 C 0.4122 0.09334 0.66898 0.0
C710 C 0.43203 0.1336 0.6857 0.0
C711 C 0.45483 0.15327 0.69305 0.0
C712 C 0.45589 0.17266 0.70394 0.0
C713 C 0.43344 0.17224 0.70781 0.0
C714 C 0.4103 0.15265 0.69993 0.0
C715 C 0.40981 0.13359 0.6888 0.0
C716 C 0.481 0.19347 0.71165 0.0
C717 C 0.38603 0.15168 0.70369 0.0
C718 C 0.42057 0.3295 0.6521 0.0
C719 C 0.41401 0.3073 0.6658 0.0
C720 C 0.43113 0.28237 0.67562 0.0
C721 C 0.41072 0.26544 0.68961 0.0
C722 C 0.41199 0.24784 0.70304 0.0
C723 C 0.43443 0.24761 0.70319 0.0
C724 C 0.45496 0.26453 0.68901 0.0
C725 C 0.45287 0.28149 0.67515 0.0
C726 C 0.38929 0.22954 0.71714 0.0
C727 C 0.47921 0.26494 0.68876 0.0
C728 C 0.4572 0.29619 0.86007 0.0
C729 C 0.4328 0.27756 0.85418 0.0
C730 C 0.42896 0.25818 0.84081 0.0
C731 C 0.44987 0.25741 0.83315 0.0
C732 C 0.47441 0.2762 0.83884 0.0
C733 C 0.47772 0.29533 0.85223 0.0
C734 C 0.40254 0.23842 0.83499 0.0
C735 C 0.49712 0.27595 0.83091 0.0
C736 C 0.4127 0.08217 0.87176 0.0
C737 C 0.4363 0.10604 0.87773 0.0
C738 C 0.43258 0.14022 0.86837 0.0
C739 C 0.41261 0.14366 0.8651 0.0
C740 C 0.41484 0.16193 0.8499 0.0
C741 C 0.43795 0.17759 0.83833 0.0
C742 C 0.45856 0.1747 0.84232 0.0
C743 C 0.45559 0.15589 0.85719 0.0
C744 C 0.39247 0.16448 0.84621 0.0
C745 C 0.48374 0.19159 0.83103 0.0
C746 C 0.43422 0.19196 0.72081 0.0
C747 C 0.43425 0.21011 0.7073 0.0
C748 C 0.43639 0.22982 0.71845 0.0
C749 C 0.43935 0.23188 0.74376 0.0
C750 C 0.44313 0.25212 0.75547 0.0
C751 C 0.4455 0.25376 0.78041 0.0
C752 C 0.44406 0.23518 0.79461 0.0
C753 C 0.44608 0.23651 0.81999 0.0
C754 C 0.44436 0.21763 0.83356 0.0
C755 C 0.44061 0.19727 0.82255 0.0
C756 C 0.4388 0.19569 0.79717 0.0
C757 C 0.43515 0.17552 0.78546 0.0
C758 C 0.43379 0.17431 0.76047 0.0
C759 C 0.4355 0.193 0.74623 0.0
C760 C 0.43847 0.21321 0.7577 0.0
C761 C 0.44051 0.21472 0.78318 0.0
C762 C 0.43544 0.33026 0.86322 0.0
C763 C 0.44477 0.3199 0.88274 0.0
O764 O 0.43246 0.11511 0.67605 0.0
O765 O 0.42934 0.12211 0.88303 0.0
O766 O 0.46196 0.31526 0.87314 0.0
O767 O 0.43057 0.29974 0.66247 0.0
H768 H 0.39882 0.09623 0.6583 0.0
H769 H 0.39083 0.08559 0.70225 0.0
H770 H 0.41183 0.07485 0.7024 0.0
H771 H 0.3829 0.05984 0.68525 0.0
H772 H 0.4719 0.15327 0.69043 0.0
H773 H 0.39198 0.11874 0.6829 0.0
H774 H 0.48329 0.21039 0.70468 0.0
H775 H 0.49688 0.19218 0.70522 0.0
H776 H 0.48191 0.19422 0.73159 0.0
H777 H 0.36944 0.13479 0.69739 0.0
H778 H 0.38659 0.16676 0.69382 0.0
H779 H 0.38371 0.1536 0.72309 0.0
H780 H 0.39393 0.29275 0.66418 0.0
H781 H 0.40455 0.32411 0.6391 0.0
H782 H 0.43431 0.33197 0.63784 0.0
H783 H 0.42946 0.3542 0.67897 0.0
H784 H 0.39364 0.26567 0.69 0.0
H785 H 0.46849 0.29454 0.66425 0.0
H786 H 0.3858 0.21145 0.71458 0.0
H787 H 0.37214 0.22952 0.71178 0.0
H788 H 0.39272 0.23345 0.7366 0.0
H789 H 0.49424 0.28074 0.67887 0.0
H790 H 0.47604 0.24868 0.68003 0.0
H791 H 0.48574 0.26488 0.70746 0.0
H792 H 0.42858 0.30319 0.8903 0.0
H793 H 0.41664 0.27789 0.85991 0.0
H794 H 0.49645 0.30977 0.85676 0.0
H795 H 0.40016 0.23627 0.81519 0.0
H796 H 0.38824 0.2418 0.8419 0.0
H797 H 0.39907 0.22138 0.84294 0.0
H798 H 0.51498 0.29228 0.83614 0.0
H799 H 0.49671 0.27429 0.81105 0.0
H800 H 0.4967 0.26024 0.83904 0.0
H801 H 0.44861 0.1121 0.86161 0.0
H802 H 0.41769 0.06901 0.8669 0.0
H803 H 0.40277 0.0845 0.8562 0.0
H804 H 0.39978 0.0751 0.88739 0.0
H805 H 0.39506 0.13163 0.87415 0.0
H806 H 0.47133 0.1537 0.86046 0.0
H807 H 0.38916 0.16587 0.82671 0.0
H808 H 0.39631 0.18109 0.85466 0.0
H809 H 0.37513 0.14929 0.85424 0.0
H810 H 0.49847 0.18834 0.83777 0.0
H811 H 0.48971 0.21027 0.83474 0.0
H812 H 0.48222 0.18954 0.81121 0.0
H813 H 0.4325 0.20884 0.68787 0.0
H814 H 0.44437 0.26696 0.74547 0.0
H815 H 0.44834 0.26973 0.78843 0.0
H816 H 0.44576 0.21873 0.85303 0.0
H817 H 0.43348 0.16049 0.79546 0.0
H818 H 0.43114 0.1584 0.75246 0.0
H819 H 0.42173 0.33406 0.8709 0.0
H820 H 0.42597 0.31746 0.84847 0.0
H821 H 0.45138 0.347 0.85545 0.0
H822 H 0.03867 0.47177 0.03708 0.0
H823 H 0.09683 0.5462 0.04051 0.0
H824 H 0.06233 0.46187 0.06475 0.0
H825 H 0.12098 0.53615 0.06783 0.0
H826 H 0.1313 0.51187 0.14422 0.0
H827 H 0.11551 0.52343 0.10954 0.0
H828 H 0.09839 0.45941 0.07357 0.0
H829 H 0.11357 0.44757 0.10873 0.0
C830 C 0.05682 0.486 0.04328 0.0
C831 C 0.06567 0.50983 0.03683 0.0
C832 C 0.07051 0.48028 0.05909 0.0
C833 C 0.09345 0.49824 0.06881 0.0
C834 C 0.10314 0.52193 0.06104 0.0
C835 C 0.08941 0.52767 0.04519 0.0
C836 C 0.12458 0.5005 0.12872 0.0
C837 C 0.12399 0.47899 0.12909 0.0
C838 C 0.11566 0.50718 0.10874 0.0
C839 C 0.10577 0.49242 0.08865 0.0
C840 C 0.10572 0.47113 0.08879 0.0
C841 C 0.11458 0.46441 0.10884 0.0
H842 H 0.5647 0.08996 0.54746 0.0
H843 H 0.58535 0.03804 0.53697 0.0
H844 H 0.60207 0.113 0.57255 0.0
H845 H 0.62218 0.06068 0.56223 0.0
H846 H 0.69385 0.11079 0.60014 0.0
H847 H 0.66268 0.09692 0.56767 0.0
H848 H 0.61325 0.10591 0.61301 0.0
H849 H 0.64457 0.12016 0.64514 0.0
C850 C 0.57742 0.08369 0.55013 0.0
C851 C 0.57192 0.06205 0.54043 0.0
C852 C 0.59872 0.09678 0.56465 0.0
C853 C 0.615 0.08858 0.56957 0.0
C854 C 0.61022 0.06767 0.55866 0.0
C855 C 0.58894 0.05457 0.54429 0.0
C856 C 0.67654 0.11028 0.60289 0.0
C857 C 0.67172 0.11678 0.62506 0.0
C858 C 0.65863 0.10221 0.5844 0.0
C859 C 0.63547 0.1003 0.58774 0.0
C860 C 0.63104 0.10755 0.60965 0.0
C861 C 0.64892 0.11559 0.62812 0.0
H862 H 0.58413 0.55626 0.13316 0.0
H863 H 0.58414 0.59611 0.07036 0.0
H864 H 0.59058 0.58842 0.15879 0.0
H865 H 0.5901 0.62809 0.09603 0.0
H866 H 0.62724 0.69017 0.14998 0.0
H867 H 0.62207 0.65896 0.12345 0.0
H868 H 0.56572 0.60559 0.17102 0.0
H869 H 0.57092 0.63676 0.19748 0.0
C870 C 0.58573 0.57196 0.12481 0.0
C871 C 0.58357 0.5736 0.09972 0.0
C872 C 0.58914 0.59028 0.13951 0.0
C873 C 0.59069 0.61073 0.12944 0.0
C874 C 0.5891 0.61261 0.10432 0.0
C875 C 0.58548 0.59421 0.08964 0.0
C876 C 0.61347 0.67179 0.15452 0.0
C877 C 0.59904 0.66592 0.17552 0.0
C878 C 0.61055 0.65393 0.13938 0.0
C879 C 0.59349 0.62981 0.14515 0.0
C880 C 0.57917 0.62398 0.16619 0.0
C881 C 0.58195 0.64182 0.1812 0.0
H882 H 0.92473 0.52649 0.50896 0.0
H883 H 0.96832 0.51176 0.55951 0.0
H884 H 0.91256 0.5423 0.54167 0.0
H885 H 0.95606 0.52713 0.59169 0.0
H886 H 0.91852 0.54173 0.64966 0.0
H887 H 0.92106 0.52018 0.616 0.0
H888 H 0.93391 0.57759 0.56744 0.0
H889 H 0.93083 0.59887 0.60114 0.0
C890 C 0.93159 0.52644 0.52695 0.0
C891 C 0.94752 0.51775 0.5314 0.0
C892 C 0.9246 0.53548 0.54569 0.0
C893 C 0.93327 0.5359 0.56931 0.0
C894 C 0.9486 0.52664 0.57383 0.0
C895 C 0.95565 0.51774 0.5552 0.0
C896 C 0.92137 0.54948 0.63171 0.0
C897 C 0.92438 0.5719 0.62799 0.0
C898 C 0.92299 0.53724 0.61245 0.0
C899 C 0.92787 0.54725 0.58905 0.0
C900 C 0.92984 0.56925 0.58517 0.0
C901 C 0.92818 0.58149 0.60446 0.0
H902 H 0.4707 0.93588 0.05595 0.0
H903 H 0.42878 0.9692 0.03834 0.0
H904 H 0.43902 0.91013 0.08542 0.0
H905 H 0.39775 0.94429 0.06841 0.0
H906 H 0.33842 0.88978 0.11799 0.0
H907 H 0.36507 0.9069 0.0826 0.0
H908 H 0.42812 0.91527 0.12414 0.0
H909 H 0.40116 0.89719 0.159 0.0
C910 C 0.45456 0.93751 0.05815 0.0
C911 C 0.4524 0.95475 0.04491 0.0
C912 C 0.43649 0.9229 0.07523 0.0
C913 C 0.41596 0.92534 0.0797 0.0
C914 C 0.41311 0.94167 0.06543 0.0
C915 C 0.43103 0.95609 0.04817 0.0
C916 C 0.35783 0.89476 0.11933 0.0
C917 C 0.36758 0.89164 0.14116 0.0
C918 C 0.37322 0.90482 0.09912 0.0
C919 C 0.39882 0.91245 0.10036 0.0
C920 C 0.40842 0.90912 0.1222 0.0
C921 C 0.39301 0.89887 0.14229 0.0
H922 H 0.40423 0.40749 0.59514 0.0
H923 H 0.48375 0.44345 0.6085 0.0
H924 H 0.3974 0.37474 0.62154 0.0
H925 H 0.47716 0.4117 0.63633 0.0
H926 H 0.46889 0.34177 0.68326 0.0
H927 H 0.47705 0.37987 0.65087 0.0
H928 H 0.38622 0.35481 0.65672 0.0
H929 H 0.37603 0.31572 0.68845 0.0
C930 C 0.42019 0.40844 0.60412 0.0
C931 C 0.44446 0.42793 0.59991 0.0
C932 C 0.41635 0.38974 0.61947 0.0
C933 C 0.43665 0.39041 0.63152 0.0
C934 C 0.46099 0.41006 0.62722 0.0
C935 C 0.46486 0.42846 0.61137 0.0
C936 C 0.45393 0.34486 0.67904 0.0
C937 C 0.42046 0.32214 0.68571 0.0
C938 C 0.4585 0.36805 0.65804 0.0
C939 C 0.43234 0.37101 0.64872 0.0
C940 C 0.40125 0.35197 0.66133 0.0
C941 C 0.39489 0.32827 0.68232 0.0
H942 H 0.50109 0.9056 0.47794 0.0
H943 H 0.56787 0.97584 0.47823 0.0
H944 H 0.51974 0.89369 0.44738 0.0
H945 H 0.58641 0.9641 0.44766 0.0
H946 H 0.63283 0.93303 0.40261 0.0
H947 H 0.61077 0.94657 0.43903 0.0
H948 H 0.52501 0.89524 0.4029 0.0
H949 H 0.54496 0.88043 0.36541 0.0
C950 C 0.51984 0.91837 0.47165 0.0
C951 C 0.53303 0.94165 0.48039 0.0
C952 C 0.53041 0.91167 0.45401 0.0
C953 C 0.55449 0.92799 0.44514 0.0
C954 C 0.56793 0.95104 0.45434 0.0
C955 C 0.55724 0.95784 0.47168 0.0
C956 C 0.6131 0.92698 0.40196 0.0
C957 C 0.59047 0.90192 0.38275 0.0
C958 C 0.59896 0.93438 0.42523 0.0
C959 C 0.56533 0.92128 0.42593 0.0
C960 C 0.54485 0.9018 0.40259 0.0
C961 C 0.5572 0.89336 0.3785 0.0
H962 H 0.57953 0.54745 0.95676 0.0
H963 H 0.62556 0.52742 0.99679 0.0
H964 H 0.60975 0.56215 0.92353 0.0
H965 H 0.65541 0.54223 0.96431 0.0
H966 H 0.69268 0.54724 0.89632 0.0
H967 H 0.6577 0.53106 0.924 0.0
H968 H 0.6541 0.59411 0.91376 0.0
H969 H 0.6888 0.61003 0.8851 0.0
C970 C 0.59606 0.54626 0.95851 0.0
C971 C 0.60002 0.5361 0.97934 0.0
C972 C 0.61335 0.5547 0.93955 0.0
C973 C 0.63477 0.553 0.94113 0.0
C974 C 0.63881 0.54326 0.96219 0.0
C975 C 0.62169 0.5349 0.98095 0.0
C976 C 0.68402 0.5574 0.89941 0.0
C977 C 0.69327 0.57978 0.8882 0.0
C978 C 0.66413 0.54824 0.91551 0.0
C979 C 0.6533 0.56142 0.9213 0.0
C980 C 0.66189 0.58343 0.9095 0.0
C981 C 0.68176 0.59256 0.89317 0.0
H982 H 0.04909 0.58433 0.51472 0.0
H983 H 0.07644 0.55195 0.4679 0.0
H984 H 0.07626 0.62268 0.49478 0.0
H985 H 0.10348 0.59039 0.44781 0.0
H986 H 0.16273 0.66948 0.42946 0.0
H987 H 0.13997 0.63193 0.45246 0.0
H988 H 0.07513 0.63848 0.45448 0.0
H989 H 0.09784 0.67588 0.43164 0.0
C990 C 0.06117 0.58542 0.50044 0.0
C991 C 0.06038 0.56496 0.4928 0.0
C992 C 0.0766 0.6074 0.48886 0.0
C993 C 0.09171 0.60951 0.46944 0.0
C994 C 0.09208 0.58938 0.46273 0.0
C995 C 0.07655 0.56733 0.47425 0.0
C996 C 0.14349 0.66268 0.43455 0.0
C997 C 0.13184 0.67534 0.42823 0.0
C998 C 0.1305 0.64124 0.44778 0.0
C999 C 0.10577 0.63226 0.45538 0.0
C1000 C 0.09425 0.64504 0.44918 0.0
C1001 C 0.10714 0.66631 0.43585 0.0
H1002 H 0.53343 0.08013 0.97199 0.0
H1003 H 0.46681 0.05755 0.01327 0.0
H1004 H 0.51843 0.09611 0.94051 0.0
H1005 H 0.45107 0.07246 0.9815 0.0
H1006 H 0.43343 0.1126 0.92648 0.0
H1007 H 0.45369 0.10456 0.95996 0.0
H1008 H 0.48825 0.08163 0.90987 0.0
H1009 H 0.4691 0.09101 0.87647 0.0
C1010 C 0.51559 0.07871 0.9743 0.0
C1011 C 0.50126 0.06761 0.99499 0.0
C1012 C 0.50686 0.08768 0.95622 0.0
C1013 C 0.48333 0.08536 0.95821 0.0
C1014 C 0.46942 0.07493 0.97938 0.0
C1015 C 0.47838 0.06631 0.99764 0.0
C1016 C 0.44583 0.10637 0.92262 0.0
C1017 C 0.45012 0.10291 0.89876 0.0
C1018 C 0.45723 0.10146 0.94185 0.0
C1019 C 0.47272 0.09244 0.93775 0.0
C1020 C 0.47699 0.08908 0.91383 0.0
C1021 C 0.4659 0.09431 0.89463 0.0
H1022 H 0.39953 0.46729 0.49649 0.0
H1023 H 0.45526 0.4663 0.45309 0.0
H1024 H 0.36899 0.449 0.46471 0.0
H1025 H 0.42444 0.44863 0.42016 0.0
H1026 H 0.35489 0.39463 0.36101 0.0
H1027 H 0.39138 0.41438 0.39971 0.0
H1028 H 0.34921 0.45434 0.43299 0.0
H1029 H 0.31153 0.43503 0.39583 0.0
C1030 C 0.40536 0.46341 0.47992 0.0
C1031 C 0.42994 0.46851 0.47724 0.0
C1032 C 0.3878 0.45309 0.46145 0.0
C1033 C 0.39432 0.44786 0.43951 0.0
C1034 C 0.41876 0.4524 0.43686 0.0
C1035 C 0.43644 0.46256 0.45566 0.0
C1036 C 0.35321 0.4047 0.37504 0.0
C1037 C 0.33194 0.41634 0.37199 0.0
C1038 C 0.37667 0.41825 0.39842 0.0
C1039 C 0.37544 0.43775 0.41984 0.0
C1040 C 0.34996 0.44314 0.41968 0.0
C1041 C 0.32568 0.43042 0.39714 0.0
H1042 H 0.96825 0.43417 0.96219 0.0
H1043 H 0.90302 0.39577 0.00754 0.0
H1044 H 0.95353 0.39879 0.93847 0.0
H1045 H 0.88829 0.36023 0.98384 0.0
H1046 H 0.85573 0.31148 0.91901 0.0
H1047 H 0.87148 0.34628 0.94408 0.0
H1048 H 0.94627 0.3589 0.93991 0.0
H1049 H 0.93046 0.32431 0.91426 0.0
C1050 C 0.95096 0.41808 0.96736 0.0
C1051 C 0.93679 0.41783 0.98679 0.0
C1052 C 0.94251 0.39776 0.95373 0.0
C1053 C 0.91969 0.37668 0.95919 0.0
C1054 C 0.90574 0.3763 0.97888 0.0
C1055 C 0.91417 0.39665 0.9925 0.0
C1056 C 0.87557 0.32185 0.92329 0.0
C1057 C 0.89198 0.31551 0.91426 0.0
C1058 C 0.88456 0.34162 0.93787 0.0
C1059 C 0.91015 0.3554 0.94399 0.0
C1060 C 0.92652 0.34888 0.93522 0.0
C1061 C 0.9175 0.32908 0.92059 0.0
H1062 H 0.9706 0.50497 0.92559 0.0
H1063 H 0.00973 0.56548 0.97203 0.0
H1064 H 0.95861 0.52719 0.89915 0.0
H1065 H 0.99842 0.58808 0.94507 0.0
H1066 H 0.94494 0.60834 0.91011 0.0
H1067 H 0.96173 0.58879 0.93477 0.0
H1068 H 0.97175 0.55896 0.87088 0.0
H1069 H 0.95396 0.57773 0.84647 0.0
C1070 C 0.97712 0.52321 0.92991 0.0
C1071 C 0.99098 0.53336 0.95105 0.0
C1072 C 0.9703 0.53603 0.91465 0.0
C1073 C 0.97733 0.55942 0.92003 0.0
C1074 C 0.99222 0.56995 0.9406 0.0
C1075 C 0.99892 0.55706 0.95596 0.0
C1076 C 0.95073 0.59759 0.90138 0.0
C1077 C 0.94797 0.59444 0.87638 0.0
C1078 C 0.9606 0.58656 0.91547 0.0
C1079 C 0.96814 0.57225 0.90486 0.0
C1080 C 0.96581 0.56952 0.87975 0.0
C1081 C 0.95577 0.58039 0.86572 0.0
H1082 H 0.47872 0.98377 0.44669 0.0
H1083 H 0.43743 0.01211 0.47769 0.0
H1084 H 0.44355 0.9597 0.41979 0.0
H1085 H 0.40225 0.98789 0.45081 0.0
H1086 H 0.34375 0.94449 0.39392 0.0
H1087 H 0.38462 0.97647 0.40869 0.0
H1088 H 0.4024 0.92428 0.43218 0.0
H1089 H 0.36172 0.89255 0.4178 0.0
C1090 C 0.46244 0.98538 0.44736 0.0
C1091 C 0.46069 0.9995 0.46473 0.0
C1092 C 0.44225 0.97148 0.432 0.0
C1093 C 0.41998 0.97155 0.43354 0.0
C1094 C 0.41918 0.98746 0.44919 0.0
C1095 C 0.43935 0.0013 0.46466 0.0
C1096 C 0.35654 0.93996 0.40207 0.0
C1097 C 0.34938 0.916 0.40512 0.0
C1098 C 0.37989 0.95822 0.41047 0.0
C1099 C 0.39669 0.95289 0.42161 0.0
C1100 C 0.39001 0.92902 0.42342 0.0
C1101 C 0.36662 0.9108 0.41534 0.0
H1102 H 0.48819 0.39697 0.0186 0.0
H1103 H 0.52757 0.45044 0.96297 0.0
H1104 H 0.47171 0.3661 0.98846 0.0
H1105 H 0.51015 0.41983 0.93282 0.0
H1106 H 0.49337 0.35835 0.88603 0.0
H1107 H 0.51219 0.38753 0.91783 0.0
H1108 H 0.44171 0.35133 0.95586 0.0
H1109 H 0.42323 0.3217 0.92438 0.0
C1110 C 0.49344 0.40218 1.0 0.0
C1111 C 0.50915 0.42628 0.99329 0.0
C1112 C 0.48373 0.38448 0.98265 0.0
C1113 C 0.4895 0.39044 0.95816 0.0
C1114 C 0.5055 0.4145 0.95152 0.0
C1115 C 0.51524 0.43216 0.96884 0.0
C1116 C 0.48206 0.35642 0.9014 0.0
C1117 C 0.45698 0.33742 0.90299 0.0
C1118 C 0.49274 0.37328 0.91952 0.0
C1119 C 0.4785 0.37179 0.93948 0.0
C1120 C 0.45339 0.35279 0.94102 0.0
C1121 C 0.44275 0.33586 0.92295 0.0
H1122 H 0.04087 0.44165 0.46496 0.0
H1123 H 0.02331 0.45419 0.39267 0.0
H1124 H 0.06701 0.4283 0.44901 0.0
H1125 H 0.04946 0.44045 0.37661 0.0
H1126 H 0.07848 0.38933 0.36129 0.0
H1127 H 0.05184 0.40376 0.37432 0.0
H1128 H 0.10734 0.44665 0.42783 0.0
H1129 H 0.13372 0.43211 0.41494 0.0
C1130 C 0.0427 0.44173 0.44564 0.0
C1131 C 0.03022 0.44934 0.43013 0.0
C1132 C 0.05771 0.43404 0.43649 0.0
C1133 C 0.06061 0.43364 0.41156 0.0
C1134 C 0.04754 0.44051 0.39593 0.0
C1135 C 0.03252 0.44833 0.40513 0.0
C1136 C 0.08512 0.40218 0.37552 0.0
C1137 C 0.10834 0.40988 0.38689 0.0
C1138 C 0.06989 0.41043 0.38298 0.0
C1139 C 0.07743 0.42624 0.40218 0.0
C1140 C 0.10086 0.43425 0.41318 0.0
C1141 C 0.11608 0.4261 0.40567 0.0
H1142 H 0.6027 0.00989 0.9792 0.0
H1143 H 0.54861 0.02614 0.95114 0.0
H1144 H 0.63179 0.03447 0.94753 0.0
H1145 H 0.5775 0.05023 0.91901 0.0
H1146 H 0.65006 0.12049 0.8964 0.0
H1147 H 0.61556 0.08859 0.91929 0.0
H1148 H 0.64339 0.04262 0.90565 0.0
H1149 H 0.67846 0.07505 0.88304 0.0
C1150 C 0.59672 0.01819 0.96591 0.0
C1151 C 0.57344 0.01632 0.96797 0.0
C1152 C 0.61342 0.03224 0.94762 0.0
C1153 C 0.60718 0.04466 0.93089 0.0
C1154 C 0.58313 0.04133 0.9319 0.0
C1155 C 0.56648 0.02736 0.95024 0.0
C1156 C 0.64848 0.1034 0.8978 0.0
C1157 C 0.66678 0.10019 0.88764 0.0
C1158 C 0.62861 0.08502 0.91086 0.0
C1159 C 0.62657 0.06293 0.91429 0.0
C1160 C 0.64447 0.05945 0.9035 0.0
C1161 C 0.66442 0.07791 0.89038 0.0
H1162 H 0.5342 0.60812 0.53199 0.0
H1163 H 0.50849 0.56515 0.46848 0.0
H1164 H 0.55705 0.64391 0.50679 0.0
H1165 H 0.53107 0.60087 0.44324 0.0
H1166 H 0.59901 0.66635 0.40849 0.0
H1167 H 0.57356 0.63052 0.43305 0.0
H1168 H 0.55257 0.66937 0.47811 0.0
H1169 H 0.57871 0.70537 0.45389 0.0
C1170 C 0.53312 0.60633 0.51264 0.0
C1171 C 0.51965 0.58375 0.50227 0.0
C1172 C 0.5462 0.62686 0.49816 0.0
C1173 C 0.54603 0.6253 0.47295 0.0
C1174 C 0.53204 0.60273 0.46259 0.0
C1175 C 0.51906 0.58222 0.47707 0.0
C1176 C 0.58879 0.66713 0.42355 0.0
C1177 C 0.59073 0.6886 0.4292 0.0
C1178 C 0.5741 0.64659 0.43757 0.0
C1179 C 0.56095 0.64702 0.45757 0.0
C1180 C 0.56268 0.66847 0.46303 0.0
C1181 C 0.57748 0.68904 0.44906 0.0
H1182 H 0.41636 0.98961 0.58009 0.0
H1183 H 0.49484 0.04141 0.59277 0.0
H1184 H 0.40493 0.01241 0.60422 0.0
H1185 H 0.48333 0.06488 0.61597 0.0
H1186 H 0.45212 0.08753 0.67699 0.0
H1187 H 0.46478 0.06502 0.65341 0.0
H1188 H 0.40526 0.04872 0.60232 0.0
H1189 H 0.39224 0.07062 0.62634 0.0
C1190 C 0.43124 0.00578 0.58807 0.0
C1191 C 0.45658 0.01358 0.58437 0.0
C1192 C 0.42464 0.01909 0.60166 0.0
C1193 C 0.44319 0.04063 0.61189 0.0
C1194 C 0.46853 0.0483 0.60851 0.0
C1195 C 0.47514 0.03494 0.59495 0.0
C1196 C 0.44193 0.07929 0.66059 0.0
C1197 C 0.42135 0.08104 0.65336 0.0
C1198 C 0.44921 0.06645 0.64703 0.0
C1199 C 0.43602 0.05498 0.62596 0.0
C1200 C 0.41562 0.057 0.61863 0.0
C1201 C 0.40829 0.06975 0.63224 0.0
H1202 H 0.46163 0.49772 0.02322 0.0
H1203 H 0.49062 0.51268 0.09588 0.0
H1204 H 0.42135 0.49075 0.03746 0.0
H1205 H 0.45101 0.50573 0.11 0.0
H1206 H 0.38281 0.5008 0.13265 0.0
H1207 H 0.42153 0.51871 0.10977 0.0
H1208 H 0.38788 0.45826 0.06302 0.0
H1209 H 0.34875 0.4407 0.08548 0.0
C1210 C 0.45957 0.50007 0.04206 0.0
C1211 C 0.47905 0.50551 0.05851 0.0
C1212 C 0.43655 0.49595 0.05023 0.0
C1213 C 0.43297 0.49766 0.07487 0.0
C1214 C 0.45314 0.50457 0.09089 0.0
C1215 C 0.47582 0.50835 0.08283 0.0
C1216 C 0.38336 0.49172 0.11698 0.0
C1217 C 0.36263 0.46941 0.11072 0.0
C1218 C 0.40562 0.50191 0.10396 0.0
C1219 C 0.40786 0.48981 0.08471 0.0
C1220 C 0.38668 0.46819 0.07755 0.0
C1221 C 0.36432 0.45806 0.09048 0.0
H1222 H 0.96413 0.43398 0.53963 0.0
H1223 H 0.02992 0.47435 0.58434 0.0
H1224 H 0.9453 0.40297 0.57074 0.0
H1225 H 0.01097 0.44281 0.6155 0.0
H1226 H 0.97586 0.3644 0.64833 0.0
H1227 H 0.99651 0.39727 0.61884 0.0
H1228 H 0.92994 0.40097 0.61451 0.0
H1229 H 0.90956 0.36873 0.64435 0.0
C1230 C 0.97468 0.4362 0.55605 0.0
C1231 C 0.99859 0.45666 0.55948 0.0
C1232 C 0.96377 0.41847 0.57391 0.0
C1233 C 0.97664 0.42054 0.59552 0.0
C1234 C 0.00071 0.44078 0.59893 0.0
C1235 C 0.0115 0.45881 0.58115 0.0
C1236 C 0.96568 0.37228 0.64105 0.0
C1237 C 0.94089 0.36355 0.64832 0.0
C1238 C 0.97753 0.39114 0.62434 0.0
C1239 C 0.96474 0.40151 0.61432 0.0
C1240 C 0.94011 0.39308 0.62177 0.0
C1241 C 0.92842 0.37453 0.63881 0.0
H1242 H 0.61786 0.01708 0.0917 0.0
H1243 H 0.54254 0.95537 0.0901 0.0
H1244 H 0.63245 0.99355 0.11201 0.0
H1245 H 0.55717 0.93183 0.11044 0.0
H1246 H 0.59045 0.87773 0.12566 0.0
H1247 H 0.57444 0.90759 0.10336 0.0
H1248 H 0.64146 0.97888 0.14743 0.0
H1249 H 0.65909 0.95085 0.1707 0.0
C1250 C 0.60432 0.99861 0.09599 0.0
C1251 C 0.57902 0.98814 0.08907 0.0
C1252 C 0.6127 0.98506 0.1077 0.0
C1253 C 0.59599 0.96077 0.11275 0.0
C1254 C 0.57063 0.95039 0.10635 0.0
C1255 C 0.56223 0.96392 0.09469 0.0
C1256 C 0.60042 0.89662 0.12893 0.0
C1257 C 0.62367 0.91039 0.15391 0.0
C1258 C 0.58985 0.91514 0.1161 0.0
C1259 C 0.60504 0.94615 0.12401 0.0
C1260 C 0.63231 0.96017 0.14359 0.0
C1261 C 0.64426 0.94314 0.15735 0.0
H1262 H 0.56846 0.51472 0.52919 0.0
H1263 H 0.53988 0.50072 0.60167 0.0
H1264 H 0.61004 0.52574 0.54509 0.0
H1265 H 0.5808 0.51173 0.6174 0.0
H1266 H 0.68227 0.58003 0.59076 0.0
H1267 H 0.64241 0.56012 0.56881 0.0
H1268 H 0.61267 0.50172 0.62045 0.0
H1269 H 0.65223 0.52193 0.64268 0.0
C1270 C 0.57094 0.51353 0.54841 0.0
C1271 C 0.55106 0.50707 0.56422 0.0
C1272 C 0.59471 0.51998 0.55752 0.0
C1273 C 0.59876 0.51965 0.58253 0.0
C1274 C 0.57838 0.51191 0.59806 0.0
C1275 C 0.55491 0.50579 0.58904 0.0
C1276 C 0.66741 0.56264 0.59701 0.0
C1277 C 0.67048 0.55247 0.61831 0.0
C1278 C 0.64461 0.55118 0.58439 0.0
C1279 C 0.62431 0.52938 0.59293 0.0
C1280 C 0.62786 0.51861 0.61352 0.0
C1281 C 0.65059 0.5301 0.62617 0.0
H1282 H 0.99938 0.56367 0.11342 0.0
H1283 H 0.05957 0.57879 0.06549 0.0
H1284 H 0.02765 0.59992 0.13523 0.0
H1285 H 0.08754 0.6151 0.0867 0.0
H1286 H 0.15074 0.68417 0.13634 0.0
H1287 H 0.11816 0.63884 0.11417 0.0
H1288 H 0.04189 0.64051 0.13654 0.0
H1289 H 0.07264 0.68552 0.15983 0.0
C1290 C 0.01865 0.57472 0.10761 0.0
C1291 C 0.02717 0.56834 0.08773 0.0
C1292 C 0.03486 0.59557 0.11999 0.0
C1293 C 0.05986 0.61059 0.11263 0.0
C1294 C 0.06858 0.60383 0.09322 0.0
C1295 C 0.05245 0.58292 0.08096 0.0
C1296 C 0.13067 0.67647 0.13552 0.0
C1297 C 0.11469 0.68744 0.15428 0.0
C1298 C 0.11006 0.64773 0.12266 0.0
C1299 C 0.0763 0.63375 0.12421 0.0
C1300 C 0.06202 0.64863 0.13709 0.0
C1301 C 0.08104 0.67735 0.15044 0.0
loop_
_geom_bond_atom_site_label_1
_geom_bond_atom_site_label_2
_geom_bond_distance
_geom_bond_site_symmetry_2
_ccdc_geom_bond_type
Cu0 N1 1.999 1_554 S
Cu0 O6 1.974 1_554 S
Cu0 N11 1.985 . S
Cu0 O20 1.959 . S
N1 Cu0 1.999 1_556 S
N1 C3 1.263 . S
N1 C5 1.384 1_556 S
N2 C3 1.358 1_655 S
N2 C4 1.400 . S
C3 N1 1.263 . S
C3 N2 1.358 1_455 S
C3 H9 0.930 . S
C4 N2 1.400 . S
C4 C5 1.349 1_656 S
C4 H21 0.930 . S
C5 N1 1.384 1_554 S
C5 C4 1.349 1_454 S
C5 H10 0.937 . S
O6 Cu0 1.974 1_556 S
O6 C16 1.282 . S
C7 O8 1.261 . S
C7 O20 1.251 . S
O8 C7 1.261 . S
H9 C3 0.930 . S
H10 C5 0.937 . S
N11 Cu0 1.985 . S
N11 C13 1.335 . S
N11 C14 1.390 . S
N12 C13 1.345 . S
N12 C15 1.336 . S
C13 N11 1.335 . S
C13 N12 1.345 . S
C13 H18 0.930 . S
C14 N11 1.390 . S
C14 C15 1.346 . S
C14 H19 0.930 1_554 S
C15 N12 1.336 . S
C15 C14 1.346 . S
C15 H22 0.929 . S
C16 O6 1.282 . S
C16 O17 1.216 . S
O17 C16 1.216 . S
H18 C13 0.930 . S
H19 C14 0.930 1_556 S
O20 Cu0 1.959 . S
O20 C7 1.251 . S
H21 C4 0.930 . S
H22 C15 0.929 . S
Cu23 N24 1.999 . S
Cu23 O29 1.974 . S
Cu23 N34 1.985 1_565 S
Cu23 O43 1.959 1_565 S
N24 Cu23 1.999 . S
N24 C26 1.263 . S
N24 C28 1.389 . S
N25 C26 1.358 . S
N25 C27 1.400 . S
C26 N24 1.263 . S
C26 N25 1.358 . S
C26 H32 0.930 . S
C27 N25 1.400 . S
C27 C28 1.351 . S
C27 H44 0.930 . S
C28 N24 1.389 . S
C28 C27 1.351 . S
C28 H33 0.930 . S
O29 Cu23 1.974 . S
O29 C39 1.282 . S
C30 O31 1.261 . S
C30 O43 1.251 . S
O31 C30 1.261 . S
H32 C26 0.930 . S
H33 C28 0.930 . S
N34 Cu23 1.985 1_545 S
N34 C36 1.335 . S
N34 C37 1.390 . S
N35 C36 1.345 . S
N35 C38 1.336 . S
C36 N34 1.335 . S
C36 N35 1.345 . S
C36 H41 0.930 . S
C37 N34 1.390 . S
C37 C38 1.346 . S
C37 H42 0.930 . S
C38 N35 1.336 . S
C38 C37 1.346 . S
C38 H45 0.929 . S
C39 O29 1.282 . S
C39 O40 1.216 1_565 S
O40 C39 1.216 1_545 S
H41 C36 0.930 . S
H42 C37 0.930 . S
O43 Cu23 1.959 1_545 S
O43 C30 1.251 . S
H44 C27 0.930 . S
H45 C38 0.929 . S
Cu46 N47 1.999 1_554 S
Cu46 O52 1.974 1_554 S
Cu46 N57 1.985 . S
Cu46 O66 1.959 . S
N47 Cu46 1.999 1_556 S
N47 C49 1.263 . S
N47 C51 1.389 . S
N48 C49 1.358 . S
N48 C50 1.400 . S
C49 N47 1.263 . S
C49 N48 1.358 . S
C49 H55 0.930 . S
C50 N48 1.400 . S
C50 C51 1.351 . S
C50 H67 0.930 . S
C51 N47 1.389 . S
C51 C50 1.351 . S
C51 H56 0.930 . S
O52 Cu46 1.974 1_556 S
O52 C62 1.282 . S
C53 O54 1.261 . S
C53 O66 1.251 . S
O54 C53 1.261 . S
H55 C49 0.930 . S
H56 C51 0.930 . S
N57 Cu46 1.985 . S
N57 C59 1.335 . S
N57 C60 1.390 . S
N58 C59 1.345 . S
N58 C61 1.336 . S
C59 N57 1.335 . S
C59 N58 1.345 . S
C59 H64 0.930 . S
C60 N57 1.390 . S
C60 C61 1.346 . S
C60 H65 0.930 . S
C61 N58 1.336 . S
C61 C60 1.346 . S
C61 H68 0.929 . S
C62 O52 1.282 . S
C62 O63 1.216 1_556 S
O63 C62 1.216 1_554 S
H64 C59 0.930 . S
H65 C60 0.930 . S
O66 Cu46 1.959 . S
O66 C53 1.251 . S
H67 C50 0.930 . S
H68 C61 0.929 . S
Cu69 N70 1.999 1_655 S
Cu69 O75 1.974 1_655 S
Cu69 N80 1.985 . S
Cu69 O89 1.959 . S
N70 Cu69 1.999 1_455 S
N70 C72 1.263 . S
N70 C74 1.389 1_455 S
N71 C72 1.358 . S
N71 C73 1.400 . S
C72 N70 1.263 . S
C72 N71 1.358 . S
C72 H78 0.930 . S
C73 N71 1.400 . S
C73 C74 1.351 1_455 S
C73 H90 0.930 1_455 S
C74 N70 1.389 1_655 S
C74 C73 1.351 1_655 S
C74 H79 0.930 . S
O75 Cu69 1.974 1_455 S
O75 C85 1.282 . S
C76 O77 1.261 1_655 S
C76 O89 1.251 . S
O77 C76 1.261 1_455 S
H78 C72 0.930 . S
H79 C74 0.930 . S
N80 Cu69 1.985 . S
N80 C82 1.335 . S
N80 C83 1.390 . S
N81 C82 1.345 . S
N81 C84 1.336 . S
C82 N80 1.335 . S
C82 N81 1.345 . S
C82 H87 0.930 . S
C83 N80 1.390 . S
C83 C84 1.346 . S
C83 H88 0.930 1_655 S
C84 N81 1.336 . S
C84 C83 1.346 . S
C84 H91 0.929 . S
C85 O75 1.282 . S
C85 O86 1.216 . S
O86 C85 1.216 . S
H87 C82 0.930 . S
H88 C83 0.930 1_455 S
O89 Cu69 1.959 . S
O89 C76 1.251 . S
H90 C73 0.930 1_655 S
H91 C84 0.929 . S
Cu92 N93 1.999 . S
Cu92 O98 1.974 . S
Cu92 N103 2.002 . S
Cu92 O112 1.959 . S
N93 Cu92 1.999 . S
N93 C95 1.263 1_554 S
N93 C97 1.389 . S
N94 C95 1.358 . S
N94 C96 1.400 1_556 S
C95 N93 1.263 1_556 S
C95 N94 1.358 . S
C95 H101 0.930 . S
C96 N94 1.400 1_554 S
C96 C97 1.351 . S
C96 H113 0.930 . S
C97 N93 1.389 . S
C97 C96 1.351 . S
C97 H102 0.930 . S
O98 Cu92 1.974 . S
O98 C108 1.282 1_554 S
C99 O100 1.261 . S
C99 O112 1.251 1_565 S
O100 C99 1.261 . S
H101 C95 0.930 . S
H102 C97 0.930 . S
N103 Cu92 2.002 . S
N103 C105 1.328 1_545 S
N103 C106 1.378 1_545 S
N104 C105 1.345 . S
N104 C107 1.336 . S
C105 N103 1.328 1_565 S
C105 N104 1.345 . S
C105 H110 0.930 . S
C106 N103 1.378 1_565 S
C106 C107 1.346 . S
C106 H111 0.930 1_565 S
C107 N104 1.336 . S
C107 C106 1.346 . S
C107 H114 0.929 . S
C108 O98 1.282 1_556 S
C108 O109 1.216 . S
O109 C108 1.216 . S
H110 C105 0.930 . S
H111 C106 0.930 1_545 S
O112 Cu92 1.959 . S
O112 C99 1.251 1_545 S
H113 C96 0.930 . S
H114 C107 0.929 . S
Cu115 N116 1.999 . S
Cu115 O121 1.974 . S
Cu115 N126 1.985 . S
Cu115 O135 1.959 . S
N116 Cu115 1.999 . S
N116 C118 1.263 . S
N116 C120 1.389 . S
N117 C118 1.358 . S
N117 C119 1.400 . S
C118 N116 1.263 . S
C118 N117 1.358 . S
C118 H124 0.930 . S
C119 N117 1.400 . S
C119 C120 1.351 . S
C119 H136 0.930 . S
C120 N116 1.389 . S
C120 C119 1.351 . S
C120 H125 0.930 . S
O121 Cu115 1.974 . S
O121 C131 1.282 . S
C122 O123 1.261 . S
C122 O135 1.251 . S
O123 C122 1.261 . S
H124 C118 0.930 . S
H125 C120 0.930 . S
N126 Cu115 1.985 . S
N126 C128 1.335 . S
N126 C129 1.390 . S
N127 C128 1.345 . S
N127 C130 1.336 . S
C128 N126 1.335 . S
C128 N127 1.345 . S
C128 H133 0.930 . S
C129 N126 1.390 . S
C129 C130 1.346 . S
C129 H134 0.930 . S
C130 N127 1.336 . S
C130 C129 1.346 . S
C130 H137 0.929 . S
C131 O121 1.282 . S
C131 O132 1.216 . S
O132 C131 1.216 . S
H133 C128 0.930 . S
H134 C129 0.930 . S
O135 Cu115 1.959 . S
O135 C122 1.251 . S
H136 C119 0.930 . S
H137 C130 0.929 . S
C138 C139 1.560 . S
C138 H199 0.959 . S
C138 H200 0.959 . S
C138 H201 0.960 . S
C139 C138 1.560 . S
C139 O194 1.426 . S
C139 H198 0.980 . S
C140 C141 1.407 . S
C140 C145 1.418 . S
C140 O194 1.334 . S
C141 C140 1.407 . S
C141 C142 1.360 . S
C141 H202 0.929 . S
C142 C141 1.360 . S
C142 C143 1.401 . S
C142 C146 1.527 . S
C143 C142 1.401 . S
C143 C144 1.405 . S
C143 C176 1.587 . S
C144 C143 1.405 . S
C144 C145 1.332 . S
C144 C147 1.496 . S
C145 C140 1.418 . S
C145 C144 1.332 . S
C145 H203 0.929 . S
C146 C142 1.527 . S
C146 H204 0.959 . S
C146 H205 0.961 . S
C146 H206 0.961 . S
C147 C144 1.496 . S
C147 H207 0.960 . S
C147 H208 0.960 . S
C147 H209 0.961 . S
C148 C149 1.517 . S
C148 H211 0.961 . S
C148 H212 0.960 . S
C148 H213 0.959 . S
C149 C148 1.517 . S
C149 O197 1.468 . S
C149 H210 0.980 . S
C150 C151 1.349 . S
C150 C155 1.367 . S
C150 O197 1.408 . S
C151 C150 1.349 . S
C151 C152 1.407 . S
C151 H214 0.930 . S
C152 C151 1.407 . S
C152 C153 1.449 . S
C152 C156 1.535 . S
C153 C152 1.449 . S
C153 C154 1.384 . S
C153 C178 1.553 . S
C154 C153 1.384 . S
C154 C155 1.364 . S
C154 C157 1.450 . S
C155 C150 1.367 . S
C155 C154 1.364 . S
C155 H215 0.931 . S
C156 C152 1.535 . S
C156 H216 0.959 . S
C156 H217 0.961 . S
C156 H218 0.959 . S
C157 C154 1.450 . S
C157 H219 0.960 . S
C157 H220 0.960 . S
C157 H221 0.960 . S
C158 C159 1.309 . S
C158 C163 1.304 . S
C158 O196 1.435 . S
C159 C158 1.309 . S
C159 C160 1.476 . S
C159 H223 0.930 . S
C160 C159 1.476 . S
C160 C161 1.400 . S
C160 C164 1.567 . S
C161 C160 1.400 . S
C161 C162 1.373 . S
C161 C183 1.432 . S
C162 C161 1.373 . S
C162 C163 1.339 . S
C162 C165 1.530 . S
C163 C158 1.304 . S
C163 C162 1.339 . S
C163 H224 0.930 . S
C164 C160 1.567 . S
C164 H225 0.961 . S
C164 H226 0.960 . S
C164 H227 0.958 . S
C165 C162 1.530 . S
C165 H228 0.961 . S
C165 H229 0.960 . S
C165 H230 0.960 . S
C166 C167 1.530 . S
C166 H232 0.961 . S
C166 H233 0.961 . S
C166 H234 0.959 . S
C167 C166 1.530 . S
C167 O195 1.412 . S
C167 H231 0.980 . S
C168 C169 1.288 . S
C168 C173 1.377 . S
C168 O195 1.393 . S
C169 C168 1.288 . S
C169 C170 1.369 . S
C169 H235 0.932 . S
C170 C169 1.369 . S
C170 C171 1.398 . S
C170 C174 1.527 . S
C171 C170 1.398 . S
C171 C172 1.380 . S
C171 C185 1.497 . S
C172 C171 1.380 . S
C172 C173 1.383 . S
C172 C175 1.603 . S
C173 C168 1.377 . S
C173 C172 1.383 . S
C173 H236 0.929 . S
C174 C170 1.527 . S
C174 H237 0.961 . S
C174 H238 0.959 . S
C174 H239 0.959 . S
C175 C172 1.603 . S
C175 H240 0.960 . S
C175 H241 0.962 . S
C175 H242 0.961 . S
C176 C143 1.587 . S
C176 C177 1.360 . S
C176 C189 1.412 . S
C177 C176 1.360 . S
C177 C178 1.365 . S
C177 H243 0.929 . S
C178 C153 1.553 . S
C178 C177 1.365 . S
C178 C179 1.404 . S
C179 C178 1.404 . S
C179 C180 1.395 . S
C179 C190 1.451 . S
C180 C179 1.395 . S
C180 C181 1.322 . S
C180 H244 0.930 . S
C181 C180 1.322 . S
C181 C182 1.459 . S
C181 H245 0.929 . S
C182 C181 1.459 . S
C182 C183 1.445 . S
C182 C191 1.395 . S
C183 C161 1.432 . S
C183 C182 1.445 . S
C183 C184 1.370 . S
C184 C183 1.370 . S
C184 C185 1.438 . S
C184 H246 0.930 . S
C185 C171 1.497 . S
C185 C184 1.438 . S
C185 C186 1.360 . S
C186 C185 1.360 . S
C186 C187 1.401 . S
C186 C191 1.446 . S
C187 C186 1.401 . S
C187 C188 1.347 . S
C187 H247 0.929 . S
C188 C187 1.347 . S
C188 C189 1.455 . S
C188 H248 0.930 . S
C189 C176 1.412 . S
C189 C188 1.455 . S
C189 C190 1.331 . S
C190 C179 1.451 . S
C190 C189 1.331 . S
C190 C191 1.497 . S
C191 C182 1.395 . S
C191 C186 1.446 . S
C191 C190 1.497 . S
C192 C193 1.582 . S
C192 H249 0.962 . S
C192 H250 0.959 . S
C192 H251 0.958 . S
C193 C192 1.582 . S
C193 O196 1.458 . S
C193 H222 0.980 . S
O194 C139 1.426 . S
O194 C140 1.334 . S
O195 C167 1.412 . S
O195 C168 1.393 . S
O196 C158 1.435 . S
O196 C193 1.458 . S
O197 C149 1.468 . S
O197 C150 1.408 . S
H198 C139 0.980 . S
H199 C138 0.959 . S
H200 C138 0.959 . S
H201 C138 0.960 . S
H202 C141 0.929 . S
H203 C145 0.929 . S
H204 C146 0.959 . S
H205 C146 0.961 . S
H206 C146 0.961 . S
H207 C147 0.960 . S
H208 C147 0.960 . S
H209 C147 0.961 . S
H210 C149 0.980 . S
H211 C148 0.961 . S
H212 C148 0.960 . S
H213 C148 0.959 . S
H214 C151 0.930 . S
H215 C155 0.931 . S
H216 C156 0.959 . S
H217 C156 0.961 . S
H218 C156 0.959 . S
H219 C157 0.960 . S
H220 C157 0.960 . S
H221 C157 0.960 . S
H222 C193 0.980 . S
H223 C159 0.930 . S
H224 C163 0.930 . S
H225 C164 0.961 . S
H226 C164 0.960 . S
H227 C164 0.958 . S
H228 C165 0.961 . S
H229 C165 0.960 . S
H230 C165 0.960 . S
H231 C167 0.980 . S
H232 C166 0.961 . S
H233 C166 0.961 . S
H234 C166 0.959 . S
H235 C169 0.932 . S
H236 C173 0.929 . S
H237 C174 0.961 . S
H238 C174 0.959 . S
H239 C174 0.959 . S
H240 C175 0.960 . S
H241 C175 0.962 . S
H242 C175 0.961 . S
H243 C177 0.929 . S
H244 C180 0.930 . S
H245 C181 0.929 . S
H246 C184 0.930 . S
H247 C187 0.929 . S
H248 C188 0.930 . S
H249 C192 0.962 . S
H250 C192 0.959 . S
H251 C192 0.958 . S
C252 C253 1.560 . S
C252 H313 0.959 . S
C252 H314 0.959 . S
C252 H315 0.960 . S
C253 C252 1.560 . S
C253 O308 1.426 . S
C253 H312 0.980 . S
C254 C255 1.407 . S
C254 C259 1.418 . S
C254 O308 1.334 . S
C255 C254 1.407 . S
C255 C256 1.360 . S
C255 H316 0.929 . S
C256 C255 1.360 . S
C256 C257 1.401 . S
C256 C260 1.527 . S
C257 C256 1.401 . S
C257 C258 1.405 . S
C257 C290 1.587 . S
C258 C257 1.405 . S
C258 C259 1.332 . S
C258 C261 1.496 . S
C259 C254 1.418 . S
C259 C258 1.332 . S
C259 H317 0.929 . S
C260 C256 1.527 . S
C260 H318 0.959 . S
C260 H319 0.961 . S
C260 H320 0.961 . S
C261 C258 1.496 . S
C261 H321 0.960 . S
C261 H322 0.960 . S
C261 H323 0.961 . S
C262 C263 1.517 . S
C262 H325 0.961 . S
C262 H326 0.960 . S
C262 H327 0.959 . S
C263 C262 1.517 . S
C263 O311 1.468 . S
C263 H324 0.980 . S
C264 C265 1.349 . S
C264 C269 1.367 . S
C264 O311 1.408 . S
C265 C264 1.349 . S
C265 C266 1.407 . S
C265 H328 0.930 . S
C266 C265 1.407 . S
C266 C267 1.449 . S
C266 C270 1.535 . S
C267 C266 1.449 . S
C267 C268 1.384 . S
C267 C292 1.553 . S
C268 C267 1.384 . S
C268 C269 1.364 . S
C268 C271 1.450 . S
C269 C264 1.367 . S
C269 C268 1.364 . S
C269 H329 0.931 . S
C270 C266 1.535 . S
C270 H330 0.959 . S
C270 H331 0.961 . S
C270 H332 0.959 . S
C271 C268 1.450 . S
C271 H333 0.960 . S
C271 H334 0.960 . S
C271 H335 0.960 . S
C272 C273 1.309 . S
C272 C277 1.304 . S
C272 O310 1.435 . S
C273 C272 1.309 . S
C273 C274 1.476 . S
C273 H337 0.930 . S
C274 C273 1.476 . S
C274 C275 1.400 . S
C274 C278 1.567 . S
C275 C274 1.400 . S
C275 C276 1.373 . S
C275 C297 1.432 . S
C276 C275 1.373 . S
C276 C277 1.339 . S
C276 C279 1.530 . S
C277 C272 1.304 . S
C277 C276 1.339 . S
C277 H338 0.930 . S
C278 C274 1.567 . S
C278 H339 0.961 . S
C278 H340 0.960 . S
C278 H341 0.958 . S
C279 C276 1.530 . S
C279 H342 0.961 . S
C279 H343 0.960 . S
C279 H344 0.960 . S
C280 C281 1.530 . S
C280 H346 0.961 . S
C280 H347 0.961 . S
C280 H348 0.959 . S
C281 C280 1.530 . S
C281 O309 1.412 . S
C281 H345 0.980 . S
C282 C283 1.288 . S
C282 C287 1.377 . S
C282 O309 1.393 . S
C283 C282 1.288 . S
C283 C284 1.369 . S
C283 H349 0.932 . S
C284 C283 1.369 . S
C284 C285 1.398 . S
C284 C288 1.527 . S
C285 C284 1.398 . S
C285 C286 1.380 . S
C285 C299 1.497 . S
C286 C285 1.380 . S
C286 C287 1.383 . S
C286 C289 1.603 . S
C287 C282 1.377 . S
C287 C286 1.383 . S
C287 H350 0.929 . S
C288 C284 1.527 . S
C288 H351 0.961 . S
C288 H352 0.959 . S
C288 H353 0.959 . S
C289 C286 1.603 . S
C289 H354 0.960 . S
C289 H355 0.962 . S
C289 H356 0.961 . S
C290 C257 1.587 . S
C290 C291 1.360 . S
C290 C303 1.412 . S
C291 C290 1.360 . S
C291 C292 1.365 . S
C291 H357 0.929 . S
C292 C267 1.553 . S
C292 C291 1.365 . S
C292 C293 1.404 . S
C293 C292 1.404 . S
C293 C294 1.395 . S
C293 C304 1.451 . S
C294 C293 1.395 . S
C294 C295 1.322 . S
C294 H358 0.930 . S
C295 C294 1.322 . S
C295 C296 1.459 . S
C295 H359 0.929 . S
C296 C295 1.459 . S
C296 C297 1.445 . S
C296 C305 1.395 . S
C297 C275 1.432 . S
C297 C296 1.445 . S
C297 C298 1.370 . S
C298 C297 1.370 . S
C298 C299 1.438 . S
C298 H360 0.930 . S
C299 C285 1.497 . S
C299 C298 1.438 . S
C299 C300 1.360 . S
C300 C299 1.360 . S
C300 C301 1.401 . S
C300 C305 1.446 . S
C301 C300 1.401 . S
C301 C302 1.347 . S
C301 H361 0.929 . S
C302 C301 1.347 . S
C302 C303 1.455 . S
C302 H362 0.930 . S
C303 C290 1.412 . S
C303 C302 1.455 . S
C303 C304 1.331 . S
C304 C293 1.451 . S
C304 C303 1.331 . S
C304 C305 1.497 . S
C305 C296 1.395 . S
C305 C300 1.446 . S
C305 C304 1.497 . S
C306 C307 1.582 . S
C306 H363 0.962 . S
C306 H364 0.959 . S
C306 H365 0.958 . S
C307 C306 1.582 . S
C307 O310 1.458 . S
C307 H336 0.980 . S
O308 C253 1.426 . S
O308 C254 1.334 . S
O309 C281 1.412 . S
O309 C282 1.393 . S
O310 C272 1.435 . S
O310 C307 1.458 . S
O311 C263 1.468 . S
O311 C264 1.408 . S
H312 C253 0.980 . S
H313 C252 0.959 . S
H314 C252 0.959 . S
H315 C252 0.960 . S
H316 C255 0.929 . S
H317 C259 0.929 . S
H318 C260 0.959 . S
H319 C260 0.961 . S
H320 C260 0.961 . S
H321 C261 0.960 . S
H322 C261 0.960 . S
H323 C261 0.961 . S
H324 C263 0.980 . S
H325 C262 0.961 . S
H326 C262 0.960 . S
H327 C262 0.959 . S
H328 C265 0.930 . S
H329 C269 0.931 . S
H330 C270 0.959 . S
H331 C270 0.961 . S
H332 C270 0.959 . S
H333 C271 0.960 . S
H334 C271 0.960 . S
H335 C271 0.960 . S
H336 C307 0.980 . S
H337 C273 0.930 . S
H338 C277 0.930 . S
H339 C278 0.961 . S
H340 C278 0.960 . S
H341 C278 0.958 . S
H342 C279 0.961 . S
H343 C279 0.960 . S
H344 C279 0.960 . S
H345 C281 0.980 . S
H346 C280 0.961 . S
H347 C280 0.961 . S
H348 C280 0.959 . S
H349 C283 0.932 . S
H350 C287 0.929 . S
H351 C288 0.961 . S
H352 C288 0.959 . S
H353 C288 0.959 . S
H354 C289 0.960 . S
H355 C289 0.962 . S
H356 C289 0.961 . S
H357 C291 0.929 . S
H358 C294 0.930 . S
H359 C295 0.929 . S
H360 C298 0.930 . S
H361 C301 0.929 . S
H362 C302 0.930 . S
H363 C306 0.962 . S
H364 C306 0.959 . S
H365 C306 0.958 . S
C366 C367 1.560 . S
C366 H427 0.959 . S
C366 H428 0.959 . S
C366 H429 0.960 . S
C367 C366 1.560 . S
C367 O422 1.426 . S
C367 H426 0.980 . S
C368 C369 1.407 . S
C368 C373 1.418 . S
C368 O422 1.334 . S
C369 C368 1.407 . S
C369 C370 1.360 . S
C369 H430 0.929 . S
C370 C369 1.360 . S
C370 C371 1.401 . S
C370 C374 1.527 . S
C371 C370 1.401 . S
C371 C372 1.405 . S
C371 C404 1.587 . S
C372 C371 1.405 . S
C372 C373 1.332 . S
C372 C375 1.496 . S
C373 C368 1.418 . S
C373 C372 1.332 . S
C373 H431 0.929 . S
C374 C370 1.527 . S
C374 H432 0.959 . S
C374 H433 0.961 . S
C374 H434 0.961 . S
C375 C372 1.496 . S
C375 H435 0.960 . S
C375 H436 0.960 . S
C375 H437 0.961 . S
C376 C377 1.517 . S
C376 H439 0.961 . S
C376 H440 0.960 . S
C376 H441 0.959 . S
C377 C376 1.517 . S
C377 O425 1.468 . S
C377 H438 0.980 . S
C378 C379 1.349 . S
C378 C383 1.367 . S
C378 O425 1.408 . S
C379 C378 1.349 . S
C379 C380 1.407 . S
C379 H442 0.930 . S
C380 C379 1.407 . S
C380 C381 1.449 . S
C380 C384 1.535 . S
C381 C380 1.449 . S
C381 C382 1.384 . S
C381 C406 1.553 . S
C382 C381 1.384 . S
C382 C383 1.364 . S
C382 C385 1.450 . S
C383 C378 1.367 . S
C383 C382 1.364 . S
C383 H443 0.931 . S
C384 C380 1.535 . S
C384 H444 0.959 . S
C384 H445 0.961 . S
C384 H446 0.959 . S
C385 C382 1.450 . S
C385 H447 0.960 . S
C385 H448 0.960 . S
C385 H449 0.960 . S
C386 C387 1.309 . S
C386 C391 1.304 . S
C386 O424 1.435 . S
C387 C386 1.309 . S
C387 C388 1.476 . S
C387 H451 0.930 . S
C388 C387 1.476 . S
C388 C389 1.400 . S
C388 C392 1.567 . S
C389 C388 1.400 . S
C389 C390 1.373 . S
C389 C411 1.432 . S
C390 C389 1.373 . S
C390 C391 1.339 . S
C390 C393 1.530 . S
C391 C386 1.304 . S
C391 C390 1.339 . S
C391 H452 0.930 . S
C392 C388 1.567 . S
C392 H453 0.961 . S
C392 H454 0.960 . S
C392 H455 0.958 . S
C393 C390 1.530 . S
C393 H456 0.961 . S
C393 H457 0.960 . S
C393 H458 0.960 . S
C394 C395 1.530 . S
C394 H460 0.961 . S
C394 H461 0.961 . S
C394 H462 0.959 . S
C395 C394 1.530 . S
C395 O423 1.412 . S
C395 H459 0.980 . S
C396 C397 1.288 . S
C396 C401 1.377 . S
C396 O423 1.393 . S
C397 C396 1.288 . S
C397 C398 1.369 . S
C397 H463 0.932 . S
C398 C397 1.369 . S
C398 C399 1.398 . S
C398 C402 1.527 . S
C399 C398 1.398 . S
C399 C400 1.380 . S
C399 C413 1.497 . S
C400 C399 1.380 . S
C400 C401 1.383 . S
C400 C403 1.603 . S
C401 C396 1.377 . S
C401 C400 1.383 . S
C401 H464 0.929 . S
C402 C398 1.527 . S
C402 H465 0.961 . S
C402 H466 0.959 . S
C402 H467 0.959 . S
C403 C400 1.603 . S
C403 H468 0.960 . S
C403 H469 0.962 . S
C403 H470 0.961 . S
C404 C371 1.587 . S
C404 C405 1.360 . S
C404 C417 1.412 . S
C405 C404 1.360 . S
C405 C406 1.365 . S
C405 H471 0.929 . S
C406 C381 1.553 . S
C406 C405 1.365 . S
C406 C407 1.404 . S
C407 C406 1.404 . S
C407 C408 1.395 . S
C407 C418 1.451 . S
C408 C407 1.395 . S
C408 C409 1.322 . S
C408 H472 0.930 . S
C409 C408 1.322 . S
C409 C410 1.459 . S
C409 H473 0.929 . S
C410 C409 1.459 . S
C410 C411 1.445 . S
C410 C419 1.395 . S
C411 C389 1.432 . S
C411 C410 1.445 . S
C411 C412 1.370 . S
C412 C411 1.370 . S
C412 C413 1.438 . S
C412 H474 0.930 . S
C413 C399 1.497 . S
C413 C412 1.438 . S
C413 C414 1.360 . S
C414 C413 1.360 . S
C414 C415 1.401 . S
C414 C419 1.446 . S
C415 C414 1.401 . S
C415 C416 1.347 . S
C415 H475 0.929 . S
C416 C415 1.347 . S
C416 C417 1.455 . S
C416 H476 0.930 . S
C417 C404 1.412 . S
C417 C416 1.455 . S
C417 C418 1.331 . S
C418 C407 1.451 . S
C418 C417 1.331 . S
C418 C419 1.497 . S
C419 C410 1.395 . S
C419 C414 1.446 . S
C419 C418 1.497 . S
C420 C421 1.582 . S
C420 H477 0.962 . S
C420 H478 0.959 . S
C420 H479 0.958 . S
C421 C420 1.582 . S
C421 O424 1.458 . S
C421 H450 0.980 . S
O422 C367 1.426 . S
O422 C368 1.334 . S
O423 C395 1.412 . S
O423 C396 1.393 . S
O424 C386 1.435 . S
O424 C421 1.458 . S
O425 C377 1.468 . S
O425 C378 1.408 . S
H426 C367 0.980 . S
H427 C366 0.959 . S
H428 C366 0.959 . S
H429 C366 0.960 . S
H430 C369 0.929 . S
H431 C373 0.929 . S
H432 C374 0.959 . S
H433 C374 0.961 . S
H434 C374 0.961 . S
H435 C375 0.960 . S
H436 C375 0.960 . S
H437 C375 0.961 . S
H438 C377 0.980 . S
H439 C376 0.961 . S
H440 C376 0.960 . S
H441 C376 0.959 . S
H442 C379 0.930 . S
H443 C383 0.931 . S
H444 C384 0.959 . S
H445 C384 0.961 . S
H446 C384 0.959 . S
H447 C385 0.960 . S
H448 C385 0.960 . S
H449 C385 0.960 . S
H450 C421 0.980 . S
H451 C387 0.930 . S
H452 C391 0.930 . S
H453 C392 0.961 . S
H454 C392 0.960 . S
H455 C392 0.958 . S
H456 C393 0.961 . S
H457 C393 0.960 . S
H458 C393 0.960 . S
H459 C395 0.980 . S
H460 C394 0.961 . S
H461 C394 0.961 . S
H462 C394 0.959 . S
H463 C397 0.932 . S
H464 C401 0.929 . S
H465 C402 0.961 . S
H466 C402 0.959 . S
H467 C402 0.959 . S
H468 C403 0.960 . S
H469 C403 0.962 . S
H470 C403 0.961 . S
H471 C405 0.929 . S
H472 C408 0.930 . S
H473 C409 0.929 . S
H474 C412 0.930 . S
H475 C415 0.929 . S
H476 C416 0.930 . S
H477 C420 0.962 . S
H478 C420 0.959 . S
H479 C420 0.958 . S
C480 C481 1.560 . S
C480 H541 0.959 . S
C480 H542 0.959 . S
C480 H543 0.960 . S
C481 C480 1.560 . S
C481 O536 1.426 . S
C481 H540 0.980 . S
C482 C483 1.407 . S
C482 C487 1.418 . S
C482 O536 1.334 . S
C483 C482 1.407 . S
C483 C484 1.360 . S
C483 H544 0.929 . S
C484 C483 1.360 . S
C484 C485 1.401 . S
C484 C488 1.527 . S
C485 C484 1.401 . S
C485 C486 1.405 . S
C485 C518 1.587 . S
C486 C485 1.405 . S
C486 C487 1.332 . S
C486 C489 1.496 . S
C487 C482 1.418 . S
C487 C486 1.332 . S
C487 H545 0.929 . S
C488 C484 1.527 . S
C488 H546 0.959 . S
C488 H547 0.961 . S
C488 H548 0.961 . S
C489 C486 1.496 . S
C489 H549 0.960 . S
C489 H550 0.960 . S
C489 H551 0.961 . S
C490 C491 1.517 . S
C490 H553 0.961 . S
C490 H554 0.960 . S
C490 H555 0.959 . S
C491 C490 1.517 . S
C491 O539 1.468 . S
C491 H552 0.980 . S
C492 C493 1.349 . S
C492 C497 1.367 . S
C492 O539 1.408 . S
C493 C492 1.349 . S
C493 C494 1.407 . S
C493 H556 0.930 . S
C494 C493 1.407 . S
C494 C495 1.449 . S
C494 C498 1.535 . S
C495 C494 1.449 . S
C495 C496 1.384 . S
C495 C520 1.553 . S
C496 C495 1.384 . S
C496 C497 1.364 . S
C496 C499 1.450 . S
C497 C492 1.367 . S
C497 C496 1.364 . S
C497 H557 0.931 . S
C498 C494 1.535 . S
C498 H558 0.959 . S
C498 H559 0.961 . S
C498 H560 0.959 . S
C499 C496 1.450 . S
C499 H561 0.960 . S
C499 H562 0.960 . S
C499 H563 0.960 . S
C500 C501 1.309 . S
C500 C505 1.304 . S
C500 O538 1.435 . S
C501 C500 1.309 . S
C501 C502 1.476 . S
C501 H565 0.930 . S
C502 C501 1.476 . S
C502 C503 1.400 . S
C502 C506 1.567 . S
C503 C502 1.400 . S
C503 C504 1.373 . S
C503 C525 1.432 . S
C504 C503 1.373 . S
C504 C505 1.339 . S
C504 C507 1.530 . S
C505 C500 1.304 . S
C505 C504 1.339 . S
C505 H566 0.930 . S
C506 C502 1.567 . S
C506 H567 0.961 . S
C506 H568 0.960 . S
C506 H569 0.958 . S
C507 C504 1.530 . S
C507 H570 0.961 . S
C507 H571 0.960 . S
C507 H572 0.960 . S
C508 C509 1.530 . S
C508 H574 0.961 . S
C508 H575 0.961 . S
C508 H576 0.959 . S
C509 C508 1.530 . S
C509 O537 1.412 . S
C509 H573 0.980 . S
C510 C511 1.288 . S
C510 C515 1.377 . S
C510 O537 1.393 . S
C511 C510 1.288 . S
C511 C512 1.369 . S
C511 H577 0.932 . S
C512 C511 1.369 . S
C512 C513 1.398 . S
C512 C516 1.527 . S
C513 C512 1.398 . S
C513 C514 1.380 . S
C513 C527 1.497 . S
C514 C513 1.380 . S
C514 C515 1.383 . S
C514 C517 1.603 . S
C515 C510 1.377 . S
C515 C514 1.383 . S
C515 H578 0.929 . S
C516 C512 1.527 . S
C516 H579 0.961 . S
C516 H580 0.959 . S
C516 H581 0.959 . S
C517 C514 1.603 . S
C517 H582 0.960 . S
C517 H583 0.962 . S
C517 H584 0.961 . S
C518 C485 1.587 . S
C518 C519 1.360 . S
C518 C531 1.412 . S
C519 C518 1.360 . S
C519 C520 1.365 . S
C519 H585 0.929 . S
C520 C495 1.553 . S
C520 C519 1.365 . S
C520 C521 1.404 . S
C521 C520 1.404 . S
C521 C522 1.395 . S
C521 C532 1.451 . S
C522 C521 1.395 . S
C522 C523 1.322 . S
C522 H586 0.930 . S
C523 C522 1.322 . S
C523 C524 1.459 . S
C523 H587 0.929 . S
C524 C523 1.459 . S
C524 C525 1.445 . S
C524 C533 1.395 . S
C525 C503 1.432 . S
C525 C524 1.445 . S
C525 C526 1.370 . S
C526 C525 1.370 . S
C526 C527 1.438 . S
C526 H588 0.930 . S
C527 C513 1.497 . S
C527 C526 1.438 . S
C527 C528 1.360 . S
C528 C527 1.360 . S
C528 C529 1.401 . S
C528 C533 1.446 . S
C529 C528 1.401 . S
C529 C530 1.347 . S
C529 H589 0.929 . S
C530 C529 1.347 . S
C530 C531 1.455 . S
C530 H590 0.930 . S
C531 C518 1.412 . S
C531 C530 1.455 . S
C531 C532 1.331 . S
C532 C521 1.451 . S
C532 C531 1.331 . S
C532 C533 1.497 . S
C533 C524 1.395 . S
C533 C528 1.446 . S
C533 C532 1.497 . S
C534 C535 1.582 . S
C534 H591 0.962 . S
C534 H592 0.959 . S
C534 H593 0.958 . S
C535 C534 1.582 . S
C535 O538 1.458 . S
C535 H564 0.980 . S
O536 C481 1.426 . S
O536 C482 1.334 . S
O537 C509 1.412 . S
O537 C510 1.393 . S
O538 C500 1.435 . S
O538 C535 1.458 . S
O539 C491 1.468 . S
O539 C492 1.408 . S
H540 C481 0.980 . S
H541 C480 0.959 . S
H542 C480 0.959 . S
H543 C480 0.960 . S
H544 C483 0.929 . S
H545 C487 0.929 . S
H546 C488 0.959 . S
H547 C488 0.961 . S
H548 C488 0.961 . S
H549 C489 0.960 . S
H550 C489 0.960 . S
H551 C489 0.961 . S
H552 C491 0.980 . S
H553 C490 0.961 . S
H554 C490 0.960 . S
H555 C490 0.959 . S
H556 C493 0.930 . S
H557 C497 0.931 . S
H558 C498 0.959 . S
H559 C498 0.961 . S
H560 C498 0.959 . S
H561 C499 0.960 . S
H562 C499 0.960 . S
H563 C499 0.960 . S
H564 C535 0.980 . S
H565 C501 0.930 . S
H566 C505 0.930 . S
H567 C506 0.961 . S
H568 C506 0.960 . S
H569 C506 0.958 . S
H570 C507 0.961 . S
H571 C507 0.960 . S
H572 C507 0.960 . S
H573 C509 0.980 . S
H574 C508 0.961 . S
H575 C508 0.961 . S
H576 C508 0.959 . S
H577 C511 0.932 . S
H578 C515 0.929 . S
H579 C516 0.961 . S
H580 C516 0.959 . S
H581 C516 0.959 . S
H582 C517 0.960 . S
H583 C517 0.962 . S
H584 C517 0.961 . S
H585 C519 0.929 . S
H586 C522 0.930 . S
H587 C523 0.929 . S
H588 C526 0.930 . S
H589 C529 0.929 . S
H590 C530 0.930 . S
H591 C534 0.962 . S
H592 C534 0.959 . S
H593 C534 0.958 . S
C594 C595 1.560 . S
C594 H655 0.959 . S
C594 H656 0.959 . S
C594 H657 0.960 . S
C595 C594 1.560 . S
C595 O650 1.426 . S
C595 H654 0.980 . S
C596 C597 1.407 . S
C596 C601 1.418 . S
C596 O650 1.334 . S
C597 C596 1.407 . S
C597 C598 1.360 . S
C597 H658 0.929 . S
C598 C597 1.360 . S
C598 C599 1.401 . S
C598 C602 1.527 . S
C599 C598 1.401 . S
C599 C600 1.405 . S
C599 C632 1.587 . S
C600 C599 1.405 . S
C600 C601 1.332 . S
C600 C603 1.496 . S
C601 C596 1.418 . S
C601 C600 1.332 . S
C601 H659 0.929 . S
C602 C598 1.527 . S
C602 H660 0.959 . S
C602 H661 0.961 . S
C602 H662 0.961 . S
C603 C600 1.496 . S
C603 H663 0.960 . S
C603 H664 0.960 . S
C603 H665 0.961 . S
C604 C605 1.517 . S
C604 H667 0.961 . S
C604 H668 0.960 . S
C604 H669 0.959 . S
C605 C604 1.517 . S
C605 O653 1.468 . S
C605 H666 0.980 . S
C606 C607 1.349 . S
C606 C611 1.367 . S
C606 O653 1.408 . S
C607 C606 1.349 . S
C607 C608 1.407 . S
C607 H670 0.930 . S
C608 C607 1.407 . S
C608 C609 1.449 . S
C608 C612 1.535 . S
C609 C608 1.449 . S
C609 C610 1.384 . S
C609 C634 1.553 . S
C610 C609 1.384 . S
C610 C611 1.364 . S
C610 C613 1.450 . S
C611 C606 1.367 . S
C611 C610 1.364 . S
C611 H671 0.931 . S
C612 C608 1.535 . S
C612 H672 0.959 . S
C612 H673 0.961 . S
C612 H674 0.959 . S
C613 C610 1.450 . S
C613 H675 0.960 . S
C613 H676 0.960 . S
C613 H677 0.960 . S
C614 C615 1.309 . S
C614 C619 1.304 . S
C614 O652 1.435 . S
C615 C614 1.309 . S
C615 C616 1.476 . S
C615 H679 0.930 . S
C616 C615 1.476 . S
C616 C617 1.400 . S
C616 C620 1.567 . S
C617 C616 1.400 . S
C617 C618 1.373 . S
C617 C639 1.432 . S
C618 C617 1.373 . S
C618 C619 1.339 . S
C618 C621 1.530 . S
C619 C614 1.304 . S
C619 C618 1.339 . S
C619 H680 0.930 . S
C620 C616 1.567 . S
C620 H681 0.961 . S
C620 H682 0.960 . S
C620 H683 0.958 . S
C621 C618 1.530 . S
C621 H684 0.961 . S
C621 H685 0.960 . S
C621 H686 0.960 . S
C622 C623 1.530 . S
C622 H688 0.961 . S
C622 H689 0.961 . S
C622 H690 0.959 . S
C623 C622 1.530 . S
C623 O651 1.412 . S
C623 H687 0.980 . S
C624 C625 1.288 . S
C624 C629 1.377 . S
C624 O651 1.393 . S
C625 C624 1.288 . S
C625 C626 1.369 . S
C625 H691 0.932 . S
C626 C625 1.369 . S
C626 C627 1.398 . S
C626 C630 1.527 . S
C627 C626 1.398 . S
C627 C628 1.380 . S
C627 C641 1.497 . S
C628 C627 1.380 . S
C628 C629 1.383 . S
C628 C631 1.603 . S
C629 C624 1.377 . S
C629 C628 1.383 . S
C629 H692 0.929 . S
C630 C626 1.527 . S
C630 H693 0.961 . S
C630 H694 0.959 . S
C630 H695 0.959 . S
C631 C628 1.603 . S
C631 H696 0.960 . S
C631 H697 0.962 . S
C631 H698 0.961 . S
C632 C599 1.587 . S
C632 C633 1.360 . S
C632 C645 1.412 . S
C633 C632 1.360 . S
C633 C634 1.365 . S
C633 H699 0.929 . S
C634 C609 1.553 . S
C634 C633 1.365 . S
C634 C635 1.404 . S
C635 C634 1.404 . S
C635 C636 1.395 . S
C635 C646 1.451 . S
C636 C635 1.395 . S
C636 C637 1.322 . S
C636 H700 0.930 . S
C637 C636 1.322 . S
C637 C638 1.459 . S
C637 H701 0.929 . S
C638 C637 1.459 . S
C638 C639 1.445 . S
C638 C647 1.395 . S
C639 C617 1.432 . S
C639 C638 1.445 . S
C639 C640 1.370 . S
C640 C639 1.370 . S
C640 C641 1.438 . S
C640 H702 0.930 . S
C641 C627 1.497 . S
C641 C640 1.438 . S
C641 C642 1.360 . S
C642 C641 1.360 . S
C642 C643 1.401 . S
C642 C647 1.446 . S
C643 C642 1.401 . S
C643 C644 1.347 . S
C643 H703 0.929 . S
C644 C643 1.347 . S
C644 C645 1.455 . S
C644 H704 0.930 . S
C645 C632 1.412 . S
C645 C644 1.455 . S
C645 C646 1.331 . S
C646 C635 1.451 . S
C646 C645 1.331 . S
C646 C647 1.497 . S
C647 C638 1.395 . S
C647 C642 1.446 . S
C647 C646 1.497 . S
C648 C649 1.582 . S
C648 H705 0.962 . S
C648 H706 0.959 . S
C648 H707 0.958 . S
C649 C648 1.582 . S
C649 O652 1.458 . S
C649 H678 0.980 . S
O650 C595 1.426 . S
O650 C596 1.334 . S
O651 C623 1.412 . S
O651 C624 1.393 . S
O652 C614 1.435 . S
O652 C649 1.458 . S
O653 C605 1.468 . S
O653 C606 1.408 . S
H654 C595 0.980 . S
H655 C594 0.959 . S
H656 C594 0.959 . S
H657 C594 0.960 . S
H658 C597 0.929 . S
H659 C601 0.929 . S
H660 C602 0.959 . S
H661 C602 0.961 . S
H662 C602 0.961 . S
H663 C603 0.960 . S
H664 C603 0.960 . S
H665 C603 0.961 . S
H666 C605 0.980 . S
H667 C604 0.961 . S
H668 C604 0.960 . S
H669 C604 0.959 . S
H670 C607 0.930 . S
H671 C611 0.931 . S
H672 C612 0.959 . S
H673 C612 0.961 . S
H674 C612 0.959 . S
H675 C613 0.960 . S
H676 C613 0.960 . S
H677 C613 0.960 . S
H678 C649 0.980 . S
H679 C615 0.930 . S
H680 C619 0.930 . S
H681 C620 0.961 . S
H682 C620 0.960 . S
H683 C620 0.958 . S
H684 C621 0.961 . S
H685 C621 0.960 . S
H686 C621 0.960 . S
H687 C623 0.980 . S
H688 C622 0.961 . S
H689 C622 0.961 . S
H690 C622 0.959 . S
H691 C625 0.932 . S
H692 C629 0.929 . S
H693 C630 0.961 . S
H694 C630 0.959 . S
H695 C630 0.959 . S
H696 C631 0.960 . S
H697 C631 0.962 . S
H698 C631 0.961 . S
H699 C633 0.929 . S
H700 C636 0.930 . S
H701 C637 0.929 . S
H702 C640 0.930 . S
H703 C643 0.929 . S
H704 C644 0.930 . S
H705 C648 0.962 . S
H706 C648 0.959 . S
H707 C648 0.958 . S
C708 C709 1.560 . S
C708 H769 0.959 . S
C708 H770 0.959 . S
C708 H771 0.960 . S
C709 C708 1.560 . S
C709 O764 1.426 . S
C709 H768 0.980 . S
C710 C711 1.407 . S
C710 C715 1.418 . S
C710 O764 1.334 . S
C711 C710 1.407 . S
C711 C712 1.360 . S
C711 H772 0.929 . S
C712 C711 1.360 . S
C712 C713 1.401 . S
C712 C716 1.527 . S
C713 C712 1.401 . S
C713 C714 1.405 . S
C713 C746 1.587 . S
C714 C713 1.405 . S
C714 C715 1.332 . S
C714 C717 1.496 . S
C715 C710 1.418 . S
C715 C714 1.332 . S
C715 H773 0.929 . S
C716 C712 1.527 . S
C716 H774 0.959 . S
C716 H775 0.961 . S
C716 H776 0.961 . S
C717 C714 1.496 . S
C717 H777 0.960 . S
C717 H778 0.960 . S
C717 H779 0.961 . S
C718 C719 1.517 . S
C718 H781 0.961 . S
C718 H782 0.960 . S
C718 H783 0.959 . S
C719 C718 1.517 . S
C719 O767 1.468 . S
C719 H780 0.980 . S
C720 C721 1.349 . S
C720 C725 1.367 . S
C720 O767 1.408 . S
C721 C720 1.349 . S
C721 C722 1.407 . S
C721 H784 0.930 . S
C722 C721 1.407 . S
C722 C723 1.449 . S
C722 C726 1.535 . S
C723 C722 1.449 . S
C723 C724 1.384 . S
C723 C748 1.553 . S
C724 C723 1.384 . S
C724 C725 1.364 . S
C724 C727 1.450 . S
C725 C720 1.367 . S
C725 C724 1.364 . S
C725 H785 0.931 . S
C726 C722 1.535 . S
C726 H786 0.959 . S
C726 H787 0.961 . S
C726 H788 0.959 . S
C727 C724 1.450 . S
C727 H789 0.960 . S
C727 H790 0.960 . S
C727 H791 0.960 . S
C728 C729 1.309 . S
C728 C733 1.304 . S
C728 O766 1.435 . S
C729 C728 1.309 . S
C729 C730 1.476 . S
C729 H793 0.930 . S
C730 C729 1.476 . S
C730 C731 1.400 . S
C730 C734 1.567 . S
C731 C730 1.400 . S
C731 C732 1.373 . S
C731 C753 1.432 . S
C732 C731 1.373 . S
C732 C733 1.339 . S
C732 C735 1.530 . S
C733 C728 1.304 . S
C733 C732 1.339 . S
C733 H794 0.930 . S
C734 C730 1.567 . S
C734 H795 0.961 . S
C734 H796 0.960 . S
C734 H797 0.958 . S
C735 C732 1.530 . S
C735 H798 0.961 . S
C735 H799 0.960 . S
C735 H800 0.960 . S
C736 C737 1.530 . S
C736 H802 0.961 . S
C736 H803 0.961 . S
C736 H804 0.959 . S
C737 C736 1.530 . S
C737 O765 1.412 . S
C737 H801 0.980 . S
C738 C739 1.288 . S
C738 C743 1.377 . S
C738 O765 1.393 . S
C739 C738 1.288 . S
C739 C740 1.369 . S
C739 H805 0.932 . S
C740 C739 1.369 . S
C740 C741 1.398 . S
C740 C744 1.527 . S
C741 C740 1.398 . S
C741 C742 1.380 . S
C741 C755 1.497 . S
C742 C741 1.380 . S
C742 C743 1.383 . S
C742 C745 1.603 . S
C743 C738 1.377 . S
C743 C742 1.383 . S
C743 H806 0.929 . S
C744 C740 1.527 . S
C744 H807 0.961 . S
C744 H808 0.959 . S
C744 H809 0.959 . S
C745 C742 1.603 . S
C745 H810 0.960 . S
C745 H811 0.962 . S
C745 H812 0.961 . S
C746 C713 1.587 . S
C746 C747 1.360 . S
C746 C759 1.412 . S
C747 C746 1.360 . S
C747 C748 1.365 . S
C747 H813 0.929 . S
C748 C723 1.553 . S
C748 C747 1.365 . S
C748 C749 1.404 . S
C749 C748 1.404 . S
C749 C750 1.395 . S
C749 C760 1.451 . S
C750 C749 1.395 . S
C750 C751 1.322 . S
C750 H814 0.930 . S
C751 C750 1.322 . S
C751 C752 1.459 . S
C751 H815 0.929 . S
C752 C751 1.459 . S
C752 C753 1.445 . S
C752 C761 1.395 . S
C753 C731 1.432 . S
C753 C752 1.445 . S
C753 C754 1.370 . S
C754 C753 1.370 . S
C754 C755 1.438 . S
C754 H816 0.930 . S
C755 C741 1.497 . S
C755 C754 1.438 . S
C755 C756 1.360 . S
C756 C755 1.360 . S
C756 C757 1.401 . S
C756 C761 1.446 . S
C757 C756 1.401 . S
C757 C758 1.347 . S
C757 H817 0.929 . S
C758 C757 1.347 . S
C758 C759 1.455 . S
C758 H818 0.930 . S
C759 C746 1.412 . S
C759 C758 1.455 . S
C759 C760 1.331 . S
C760 C749 1.451 . S
C760 C759 1.331 . S
C760 C761 1.497 . S
C761 C752 1.395 . S
C761 C756 1.446 . S
C761 C760 1.497 . S
C762 C763 1.582 . S
C762 H819 0.962 . S
C762 H820 0.959 . S
C762 H821 0.958 . S
C763 C762 1.582 . S
C763 O766 1.458 . S
C763 H792 0.980 . S
O764 C709 1.426 . S
O764 C710 1.334 . S
O765 C737 1.412 . S
O765 C738 1.393 . S
O766 C728 1.435 . S
O766 C763 1.458 . S
O767 C719 1.468 . S
O767 C720 1.408 . S
H768 C709 0.980 . S
H769 C708 0.959 . S
H770 C708 0.959 . S
H771 C708 0.960 . S
H772 C711 0.929 . S
H773 C715 0.929 . S
H774 C716 0.959 . S
H775 C716 0.961 . S
H776 C716 0.961 . S
H777 C717 0.960 . S
H778 C717 0.960 . S
H779 C717 0.961 . S
H780 C719 0.980 . S
H781 C718 0.961 . S
H782 C718 0.960 . S
H783 C718 0.959 . S
H784 C721 0.930 . S
H785 C725 0.931 . S
H786 C726 0.959 . S
H787 C726 0.961 . S
H788 C726 0.959 . S
H789 C727 0.960 . S
H790 C727 0.960 . S
H791 C727 0.960 . S
H792 C763 0.980 . S
H793 C729 0.930 . S
H794 C733 0.930 . S
H795 C734 0.961 . S
H796 C734 0.960 . S
H797 C734 0.958 . S
H798 C735 0.961 . S
H799 C735 0.960 . S
H800 C735 0.960 . S
H801 C737 0.980 . S
H802 C736 0.961 . S
H803 C736 0.961 . S
H804 C736 0.959 . S
H805 C739 0.932 . S
H806 C743 0.929 . S
H807 C744 0.961 . S
H808 C744 0.959 . S
H809 C744 0.959 . S
H810 C745 0.960 . S
H811 C745 0.962 . S
H812 C745 0.961 . S
H813 C747 0.929 . S
H814 C750 0.930 . S
H815 C751 0.929 . S
H816 C754 0.930 . S
H817 C757 0.929 . S
H818 C758 0.930 . S
H819 C762 0.962 . S
H820 C762 0.959 . S
H821 C762 0.958 . S
H822 C830 0.950 . S
H823 C835 0.950 . S
H824 C832 0.950 . S
H825 C834 0.950 . S
H826 C836 0.950 . S
H827 C838 0.950 . S
H828 C840 0.950 . S
H829 C841 0.950 . S
C830 H822 0.950 . S
C830 C831 1.386 . S
C830 C832 1.391 . S
C831 C830 1.386 . S
C831 C835 1.393 . S
C832 H824 0.950 . S
C832 C830 1.391 . S
C832 C833 1.400 . S
C833 C832 1.400 . S
C833 C834 1.398 . S
C833 C839 1.491 . S
C834 H825 0.950 . S
C834 C833 1.398 . S
C834 C835 1.391 . S
C835 H823 0.950 . S
C835 C831 1.393 . S
C835 C834 1.391 . S
C836 H826 0.950 . S
C836 C837 1.386 . S
C836 C838 1.391 . S
C837 C836 1.386 . S
C837 C841 1.393 . S
C838 H827 0.950 . S
C838 C836 1.391 . S
C838 C839 1.400 . S
C839 C833 1.491 . S
C839 C838 1.400 . S
C839 C840 1.398 . S
C840 H828 0.950 . S
C840 C839 1.398 . S
C840 C841 1.391 . S
C841 H829 0.950 . S
C841 C837 1.393 . S
C841 C840 1.391 . S
H842 C850 0.950 . S
H843 C855 0.950 . S
H844 C852 0.950 . S
H845 C854 0.950 . S
H846 C856 0.950 . S
H847 C858 0.950 . S
H848 C860 0.950 . S
H849 C861 0.950 . S
C850 H842 0.950 . S
C850 C851 1.386 . S
C850 C852 1.391 . S
C851 C850 1.386 . S
C851 C855 1.393 . S
C852 H844 0.950 . S
C852 C850 1.391 . S
C852 C853 1.400 . S
C853 C852 1.400 . S
C853 C854 1.398 . S
C853 C859 1.491 . S
C854 H845 0.950 . S
C854 C853 1.398 . S
C854 C855 1.391 . S
C855 H843 0.950 . S
C855 C851 1.393 . S
C855 C854 1.391 . S
C856 H846 0.950 . S
C856 C857 1.386 . S
C856 C858 1.391 . S
C857 C856 1.386 . S
C857 C861 1.393 . S
C858 H847 0.950 . S
C858 C856 1.391 . S
C858 C859 1.400 . S
C859 C853 1.491 . S
C859 C858 1.400 . S
C859 C860 1.398 . S
C860 H848 0.950 . S
C860 C859 1.398 . S
C860 C861 1.391 . S
C861 H849 0.950 . S
C861 C857 1.393 . S
C861 C860 1.391 . S
H862 C870 0.950 . S
H863 C875 0.950 . S
H864 C872 0.950 . S
H865 C874 0.950 . S
H866 C876 0.950 . S
H867 C878 0.950 . S
H868 C880 0.950 . S
H869 C881 0.950 . S
C870 H862 0.950 . S
C870 C871 1.386 . S
C870 C872 1.391 . S
C871 C870 1.386 . S
C871 C875 1.393 . S
C872 H864 0.950 . S
C872 C870 1.391 . S
C872 C873 1.400 . S
C873 C872 1.400 . S
C873 C874 1.398 . S
C873 C879 1.491 . S
C874 H865 0.950 . S
C874 C873 1.398 . S
C874 C875 1.391 . S
C875 H863 0.950 . S
C875 C871 1.393 . S
C875 C874 1.391 . S
C876 H866 0.950 . S
C876 C877 1.386 . S
C876 C878 1.391 . S
C877 C876 1.386 . S
C877 C881 1.393 . S
C878 H867 0.950 . S
C878 C876 1.391 . S
C878 C879 1.400 . S
C879 C873 1.491 . S
C879 C878 1.400 . S
C879 C880 1.398 . S
C880 H868 0.950 . S
C880 C879 1.398 . S
C880 C881 1.391 . S
C881 H869 0.950 . S
C881 C877 1.393 . S
C881 C880 1.391 . S
H882 C890 0.950 . S
H883 C895 0.950 . S
H884 C892 0.950 . S
H885 C894 0.950 . S
H886 C896 0.950 . S
H887 C898 0.950 . S
H888 C900 0.950 . S
H889 C901 0.950 . S
C890 H882 0.950 . S
C890 C891 1.386 . S
C890 C892 1.391 . S
C891 C890 1.386 . S
C891 C895 1.393 . S
C892 H884 0.950 . S
C892 C890 1.391 . S
C892 C893 1.400 . S
C893 C892 1.400 . S
C893 C894 1.398 . S
C893 C899 1.491 . S
C894 H885 0.950 . S
C894 C893 1.398 . S
C894 C895 1.391 . S
C895 H883 0.950 . S
C895 C891 1.393 . S
C895 C894 1.391 . S
C896 H886 0.950 . S
C896 C897 1.386 . S
C896 C898 1.391 . S
C897 C896 1.386 . S
C897 C901 1.393 . S
C898 H887 0.950 . S
C898 C896 1.391 . S
C898 C899 1.400 . S
C899 C893 1.491 . S
C899 C898 1.400 . S
C899 C900 1.398 . S
C900 H888 0.950 . S
C900 C899 1.398 . S
C900 C901 1.391 . S
C901 H889 0.950 . S
C901 C897 1.393 . S
C901 C900 1.391 . S
H902 C910 0.950 . S
H903 C915 0.950 . S
H904 C912 0.950 . S
H905 C914 0.950 . S
H906 C916 0.950 . S
H907 C918 0.950 . S
H908 C920 0.950 . S
H909 C921 0.950 . S
C910 H902 0.950 . S
C910 C911 1.386 . S
C910 C912 1.391 . S
C911 C910 1.386 . S
C911 C915 1.393 . S
C912 H904 0.950 . S
C912 C910 1.391 . S
C912 C913 1.400 . S
C913 C912 1.400 . S
C913 C914 1.398 . S
C913 C919 1.491 . S
C914 H905 0.950 . S
C914 C913 1.398 . S
C914 C915 1.391 . S
C915 H903 0.950 . S
C915 C911 1.393 . S
C915 C914 1.391 . S
C916 H906 0.950 . S
C916 C917 1.386 . S
C916 C918 1.391 . S
C917 C916 1.386 . S
C917 C921 1.393 . S
C918 H907 0.950 . S
C918 C916 1.391 . S
C918 C919 1.400 . S
C919 C913 1.491 . S
C919 C918 1.400 . S
C919 C920 1.398 . S
C920 H908 0.950 . S
C920 C919 1.398 . S
C920 C921 1.391 . S
C921 H909 0.950 . S
C921 C917 1.393 . S
C921 C920 1.391 . S
H922 C930 0.950 . S
H923 C935 0.950 . S
H924 C932 0.950 . S
H925 C934 0.950 . S
H926 C936 0.950 . S
H927 C938 0.950 . S
H928 C940 0.950 . S
H929 C941 0.950 . S
C930 H922 0.950 . S
C930 C931 1.386 . S
C930 C932 1.391 . S
C931 C930 1.386 . S
C931 C935 1.393 . S
C932 H924 0.950 . S
C932 C930 1.391 . S
C932 C933 1.400 . S
C933 C932 1.400 . S
C933 C934 1.398 . S
C933 C939 1.491 . S
C934 H925 0.950 . S
C934 C933 1.398 . S
C934 C935 1.391 . S
C935 H923 0.950 . S
C935 C931 1.393 . S
C935 C934 1.391 . S
C936 H926 0.950 . S
C936 C937 1.386 . S
C936 C938 1.391 . S
C937 C936 1.386 . S
C937 C941 1.393 . S
C938 H927 0.950 . S
C938 C936 1.391 . S
C938 C939 1.400 . S
C939 C933 1.491 . S
C939 C938 1.400 . S
C939 C940 1.398 . S
C940 H928 0.950 . S
C940 C939 1.398 . S
C940 C941 1.391 . S
C941 H929 0.950 . S
C941 C937 1.393 . S
C941 C940 1.391 . S
H942 C950 0.950 . S
H943 C955 0.950 . S
H944 C952 0.950 . S
H945 C954 0.950 . S
H946 C956 0.950 . S
H947 C958 0.950 . S
H948 C960 0.950 . S
H949 C961 0.950 . S
C950 H942 0.950 . S
C950 C951 1.386 . S
C950 C952 1.391 . S
C951 C950 1.386 . S
C951 C955 1.393 . S
C952 H944 0.950 . S
C952 C950 1.391 . S
C952 C953 1.400 . S
C953 C952 1.400 . S
C953 C954 1.398 . S
C953 C959 1.491 . S
C954 H945 0.950 . S
C954 C953 1.398 . S
C954 C955 1.391 . S
C955 H943 0.950 . S
C955 C951 1.393 . S
C955 C954 1.391 . S
C956 H946 0.950 . S
C956 C957 1.386 . S
C956 C958 1.391 . S
C957 C956 1.386 . S
C957 C961 1.393 . S
C958 H947 0.950 . S
C958 C956 1.391 . S
C958 C959 1.400 . S
C959 C953 1.491 . S
C959 C958 1.400 . S
C959 C960 1.398 . S
C960 H948 0.950 . S
C960 C959 1.398 . S
C960 C961 1.391 . S
C961 H949 0.950 . S
C961 C957 1.393 . S
C961 C960 1.391 . S
H962 C970 0.950 . S
H963 C975 0.950 . S
H964 C972 0.950 . S
H965 C974 0.950 . S
H966 C976 0.950 . S
H967 C978 0.950 . S
H968 C980 0.950 . S
H969 C981 0.950 . S
C970 H962 0.950 . S
C970 C971 1.386 . S
C970 C972 1.391 . S
C971 C970 1.386 . S
C971 C975 1.393 . S
C972 H964 0.950 . S
C972 C970 1.391 . S
C972 C973 1.400 . S
C973 C972 1.400 . S
C973 C974 1.398 . S
C973 C979 1.491 . S
C974 H965 0.950 . S
C974 C973 1.398 . S
C974 C975 1.391 . S
C975 H963 0.950 . S
C975 C971 1.393 . S
C975 C974 1.391 . S
C976 H966 0.950 . S
C976 C977 1.386 . S
C976 C978 1.391 . S
C977 C976 1.386 . S
C977 C981 1.393 . S
C978 H967 0.950 . S
C978 C976 1.391 . S
C978 C979 1.400 . S
C979 C973 1.491 . S
C979 C978 1.400 . S
C979 C980 1.398 . S
C980 H968 0.950 . S
C980 C979 1.398 . S
C980 C981 1.391 . S
C981 H969 0.950 . S
C981 C977 1.393 . S
C981 C980 1.391 . S
H982 C990 0.950 . S
H983 C995 0.950 . S
H984 C992 0.950 . S
H985 C994 0.950 . S
H986 C996 0.950 . S
H987 C998 0.950 . S
H988 C1000 0.950 . S
H989 C1001 0.950 . S
C990 H982 0.950 . S
C990 C991 1.386 . S
C990 C992 1.391 . S
C991 C990 1.386 . S
C991 C995 1.393 . S
C992 H984 0.950 . S
C992 C990 1.391 . S
C992 C993 1.400 . S
C993 C992 1.400 . S
C993 C994 1.398 . S
C993 C999 1.491 . S
C994 H985 0.950 . S
C994 C993 1.398 . S
C994 C995 1.391 . S
C995 H983 0.950 . S
C995 C991 1.393 . S
C995 C994 1.391 . S
C996 H986 0.950 . S
C996 C997 1.386 . S
C996 C998 1.391 . S
C997 C996 1.386 . S
C997 C1001 1.393 . S
C998 H987 0.950 . S
C998 C996 1.391 . S
C998 C999 1.400 . S
C999 C993 1.491 . S
C999 C998 1.400 . S
C999 C1000 1.398 . S
C1000 H988 0.950 . S
C1000 C999 1.398 . S
C1000 C1001 1.391 . S
C1001 H989 0.950 . S
C1001 C997 1.393 . S
C1001 C1000 1.391 . S
H1002 C1010 0.950 . S
H1003 C1015 0.950 . S
H1004 C1012 0.950 . S
H1005 C1014 0.950 . S
H1006 C1016 0.950 . S
H1007 C1018 0.950 . S
H1008 C1020 0.950 . S
H1009 C1021 0.950 . S
C1010 H1002 0.950 . S
C1010 C1011 1.386 . S
C1010 C1012 1.391 . S
C1011 C1010 1.386 . S
C1011 C1015 1.393 . S
C1012 H1004 0.950 . S
C1012 C1010 1.391 . S
C1012 C1013 1.400 . S
C1013 C1012 1.400 . S
C1013 C1014 1.398 . S
C1013 C1019 1.491 . S
C1014 H1005 0.950 . S
C1014 C1013 1.398 . S
C1014 C1015 1.391 . S
C1015 H1003 0.950 . S
C1015 C1011 1.393 . S
C1015 C1014 1.391 . S
C1016 H1006 0.950 . S
C1016 C1017 1.386 . S
C1016 C1018 1.391 . S
C1017 C1016 1.386 . S
C1017 C1021 1.393 . S
C1018 H1007 0.950 . S
C1018 C1016 1.391 . S
C1018 C1019 1.400 . S
C1019 C1013 1.491 . S
C1019 C1018 1.400 . S
C1019 C1020 1.398 . S
C1020 H1008 0.950 . S
C1020 C1019 1.398 . S
C1020 C1021 1.391 . S
C1021 H1009 0.950 . S
C1021 C1017 1.393 . S
C1021 C1020 1.391 . S
H1022 C1030 0.950 . S
H1023 C1035 0.950 . S
H1024 C1032 0.950 . S
H1025 C1034 0.950 . S
H1026 C1036 0.950 . S
H1027 C1038 0.950 . S
H1028 C1040 0.950 . S
H1029 C1041 0.950 . S
C1030 H1022 0.950 . S
C1030 C1031 1.386 . S
C1030 C1032 1.391 . S
C1031 C1030 1.386 . S
C1031 C1035 1.393 . S
C1032 H1024 0.950 . S
C1032 C1030 1.391 . S
C1032 C1033 1.400 . S
C1033 C1032 1.400 . S
C1033 C1034 1.398 . S
C1033 C1039 1.491 . S
C1034 H1025 0.950 . S
C1034 C1033 1.398 . S
C1034 C1035 1.391 . S
C1035 H1023 0.950 . S
C1035 C1031 1.393 . S
C1035 C1034 1.391 . S
C1036 H1026 0.950 . S
C1036 C1037 1.386 . S
C1036 C1038 1.391 . S
C1037 C1036 1.386 . S
C1037 C1041 1.393 . S
C1038 H1027 0.950 . S
C1038 C1036 1.391 . S
C1038 C1039 1.400 . S
C1039 C1033 1.491 . S
C1039 C1038 1.400 . S
C1039 C1040 1.398 . S
C1040 H1028 0.950 . S
C1040 C1039 1.398 . S
C1040 C1041 1.391 . S
C1041 H1029 0.950 . S
C1041 C1037 1.393 . S
C1041 C1040 1.391 . S
H1042 C1050 0.985 . S
H1043 C1055 0.950 . S
H1044 C1052 0.950 . S
H1045 C1054 0.950 . S
H1046 C1056 0.950 . S
H1047 C1058 0.950 . S
H1048 C1060 0.950 . S
H1049 C1061 0.950 . S
C1050 H1042 0.985 . S
C1050 C1051 1.386 . S
C1050 C1052 1.391 . S
C1051 C1050 1.386 . S
C1051 C1055 1.393 . S
C1052 H1044 0.950 . S
C1052 C1050 1.391 . S
C1052 C1053 1.400 . S
C1053 C1052 1.400 . S
C1053 C1054 1.398 . S
C1053 C1059 1.491 . S
C1054 H1045 0.950 . S
C1054 C1053 1.398 . S
C1054 C1055 1.391 . S
C1055 H1043 0.950 . S
C1055 C1051 1.393 . S
C1055 C1054 1.391 . S
C1056 H1046 0.950 . S
C1056 C1057 1.386 . S
C1056 C1058 1.391 . S
C1057 C1056 1.386 . S
C1057 C1061 1.393 . S
C1058 H1047 0.950 . S
C1058 C1056 1.391 . S
C1058 C1059 1.400 . S
C1059 C1053 1.491 . S
C1059 C1058 1.400 . S
C1059 C1060 1.398 . S
C1060 H1048 0.950 . S
C1060 C1059 1.398 . S
C1060 C1061 1.391 . S
C1061 H1049 0.950 . S
C1061 C1057 1.393 . S
C1061 C1060 1.391 . S
H1062 C1070 0.991 . S
H1063 C1075 0.950 . S
H1064 C1072 0.950 . S
H1065 C1074 0.950 . S
H1066 C1076 0.950 . S
H1067 C1078 0.950 . S
H1068 C1080 0.950 . S
H1069 C1081 0.950 . S
C1070 H1062 0.991 . S
C1070 C1071 1.382 1_455 S
C1070 C1072 1.355 1_455 S
C1071 C1070 1.382 1_655 S
C1071 C1075 1.393 . S
C1072 H1064 0.950 . S
C1072 C1070 1.355 1_655 S
C1072 C1073 1.400 . S
C1073 C1072 1.400 . S
C1073 C1074 1.398 . S
C1073 C1079 1.491 . S
C1074 H1065 0.950 . S
C1074 C1073 1.398 . S
C1074 C1075 1.391 . S
C1075 H1063 0.950 . S
C1075 C1071 1.393 . S
C1075 C1074 1.391 . S
C1076 H1066 0.950 . S
C1076 C1077 1.386 . S
C1076 C1078 1.391 . S
C1077 C1076 1.386 . S
C1077 C1081 1.393 . S
C1078 H1067 0.950 . S
C1078 C1076 1.391 . S
C1078 C1079 1.400 . S
C1079 C1073 1.491 . S
C1079 C1078 1.400 . S
C1079 C1080 1.398 . S
C1080 H1068 0.950 . S
C1080 C1079 1.398 . S
C1080 C1081 1.391 . S
C1081 H1069 0.950 . S
C1081 C1077 1.393 . S
C1081 C1080 1.391 . S
H1082 C1090 0.950 . S
H1083 C1095 0.950 . S
H1084 C1092 0.950 . S
H1085 C1094 0.950 . S
H1086 C1096 0.950 . S
H1087 C1098 0.950 . S
H1088 C1100 0.950 . S
H1089 C1101 0.950 . S
C1090 H1082 0.950 . S
C1090 C1091 1.386 . S
C1090 C1092 1.391 . S
C1091 C1090 1.386 . S
C1091 C1095 1.393 . S
C1092 H1084 0.950 . S
C1092 C1090 1.391 . S
C1092 C1093 1.400 . S
C1093 C1092 1.400 . S
C1093 C1094 1.398 . S
C1093 C1099 1.491 . S
C1094 H1085 0.950 . S
C1094 C1093 1.398 . S
C1094 C1095 1.391 . S
C1095 H1083 0.950 . S
C1095 C1091 1.393 . S
C1095 C1094 1.391 . S
C1096 H1086 0.950 . S
C1096 C1097 1.386 . S
C1096 C1098 1.391 . S
C1097 C1096 1.386 . S
C1097 C1101 1.393 . S
C1098 H1087 0.950 . S
C1098 C1096 1.391 . S
C1098 C1099 1.400 . S
C1099 C1093 1.491 . S
C1099 C1098 1.400 . S
C1099 C1100 1.398 . S
C1100 H1088 0.950 . S
C1100 C1099 1.398 . S
C1100 C1101 1.391 . S
C1101 H1089 0.950 . S
C1101 C1097 1.393 . S
C1101 C1100 1.391 . S
H1102 C1110 0.950 . S
H1103 C1115 0.950 . S
H1104 C1112 0.950 . S
H1105 C1114 0.950 . S
H1106 C1116 0.950 . S
H1107 C1118 0.950 . S
H1108 C1120 0.950 . S
H1109 C1121 0.950 . S
C1110 H1102 0.950 . S
C1110 C1111 1.386 . S
C1110 C1112 1.391 . S
C1111 C1110 1.386 . S
C1111 C1115 1.393 . S
C1112 H1104 0.950 . S
C1112 C1110 1.391 . S
C1112 C1113 1.400 . S
C1113 C1112 1.400 . S
C1113 C1114 1.398 . S
C1113 C1119 1.491 . S
C1114 H1105 0.950 . S
C1114 C1113 1.398 . S
C1114 C1115 1.391 . S
C1115 H1103 0.950 . S
C1115 C1111 1.393 . S
C1115 C1114 1.391 . S
C1116 H1106 0.950 . S
C1116 C1117 1.386 . S
C1116 C1118 1.391 . S
C1117 C1116 1.386 . S
C1117 C1121 1.393 . S
C1118 H1107 0.950 . S
C1118 C1116 1.391 . S
C1118 C1119 1.400 . S
C1119 C1113 1.491 . S
C1119 C1118 1.400 . S
C1119 C1120 1.398 . S
C1120 H1108 0.950 . S
C1120 C1119 1.398 . S
C1120 C1121 1.391 . S
C1121 H1109 0.950 . S
C1121 C1117 1.393 . S
C1121 C1120 1.391 . S
H1122 C1130 0.950 . S
H1123 C1135 0.950 . S
H1124 C1132 0.950 . S
H1125 C1134 0.950 . S
H1126 C1136 0.950 . S
H1127 C1138 0.950 . S
H1128 C1140 0.950 . S
H1129 C1141 0.950 . S
C1130 H1122 0.950 . S
C1130 C1131 1.386 . S
C1130 C1132 1.391 . S
C1131 C1130 1.386 . S
C1131 C1135 1.393 . S
C1132 H1124 0.950 . S
C1132 C1130 1.391 . S
C1132 C1133 1.400 . S
C1133 C1132 1.400 . S
C1133 C1134 1.398 . S
C1133 C1139 1.491 . S
C1134 H1125 0.950 . S
C1134 C1133 1.398 . S
C1134 C1135 1.391 . S
C1135 H1123 0.950 . S
C1135 C1131 1.393 . S
C1135 C1134 1.391 . S
C1136 H1126 0.950 . S
C1136 C1137 1.386 . S
C1136 C1138 1.391 . S
C1137 C1136 1.386 . S
C1137 C1141 1.393 . S
C1138 H1127 0.950 . S
C1138 C1136 1.391 . S
C1138 C1139 1.400 . S
C1139 C1133 1.491 . S
C1139 C1138 1.400 . S
C1139 C1140 1.398 . S
C1140 H1128 0.950 . S
C1140 C1139 1.398 . S
C1140 C1141 1.391 . S
C1141 H1129 0.950 . S
C1141 C1137 1.393 . S
C1141 C1140 1.391 . S
H1142 C1150 0.950 . S
H1143 C1155 0.950 . S
H1144 C1152 0.950 . S
H1145 C1154 0.950 . S
H1146 C1156 0.950 . S
H1147 C1158 0.950 . S
H1148 C1160 0.950 . S
H1149 C1161 0.950 . S
C1150 H1142 0.950 . S
C1150 C1151 1.386 . S
C1150 C1152 1.391 . S
C1151 C1150 1.386 . S
C1151 C1155 1.393 . S
C1152 H1144 0.950 . S
C1152 C1150 1.391 . S
C1152 C1153 1.400 . S
C1153 C1152 1.400 . S
C1153 C1154 1.398 . S
C1153 C1159 1.491 . S
C1154 H1145 0.950 . S
C1154 C1153 1.398 . S
C1154 C1155 1.391 . S
C1155 H1143 0.950 . S
C1155 C1151 1.393 . S
C1155 C1154 1.391 . S
C1156 H1146 0.950 . S
C1156 C1157 1.386 . S
C1156 C1158 1.391 . S
C1157 C1156 1.386 . S
C1157 C1161 1.393 . S
C1158 H1147 0.950 . S
C1158 C1156 1.391 . S
C1158 C1159 1.400 . S
C1159 C1153 1.491 . S
C1159 C1158 1.400 . S
C1159 C1160 1.398 . S
C1160 H1148 0.950 . S
C1160 C1159 1.398 . S
C1160 C1161 1.391 . S
C1161 H1149 0.950 . S
C1161 C1157 1.393 . S
C1161 C1160 1.391 . S
H1162 C1170 0.950 . S
H1163 C1175 0.950 . S
H1164 C1172 0.950 . S
H1165 C1174 0.950 . S
H1166 C1176 0.950 . S
H1167 C1178 0.950 . S
H1168 C1180 0.950 . S
H1169 C1181 0.950 . S
C1170 H1162 0.950 . S
C1170 C1171 1.386 . S
C1170 C1172 1.391 . S
C1171 C1170 1.386 . S
C1171 C1175 1.393 . S
C1172 H1164 0.950 . S
C1172 C1170 1.391 . S
C1172 C1173 1.400 . S
C1173 C1172 1.400 . S
C1173 C1174 1.398 . S
C1173 C1179 1.491 . S
C1174 H1165 0.950 . S
C1174 C1173 1.398 . S
C1174 C1175 1.391 . S
C1175 H1163 0.950 . S
C1175 C1171 1.393 . S
C1175 C1174 1.391 . S
C1176 H1166 0.950 . S
C1176 C1177 1.386 . S
C1176 C1178 1.391 . S
C1177 C1176 1.386 . S
C1177 C1181 1.393 . S
C1178 H1167 0.950 . S
C1178 C1176 1.391 . S
C1178 C1179 1.400 . S
C1179 C1173 1.491 . S
C1179 C1178 1.400 . S
C1179 C1180 1.398 . S
C1180 H1168 0.950 . S
C1180 C1179 1.398 . S
C1180 C1181 1.391 . S
C1181 H1169 0.950 . S
C1181 C1177 1.393 . S
C1181 C1180 1.391 . S
H1182 C1190 0.950 . S
H1183 C1195 0.950 . S
H1184 C1192 0.950 . S
H1185 C1194 0.950 . S
H1186 C1196 0.950 . S
H1187 C1198 0.950 . S
H1188 C1200 0.950 . S
H1189 C1201 0.950 . S
C1190 H1182 0.950 . S
C1190 C1191 1.386 . S
C1190 C1192 1.391 . S
C1191 C1190 1.386 . S
C1191 C1195 1.393 . S
C1192 H1184 0.950 . S
C1192 C1190 1.391 . S
C1192 C1193 1.400 . S
C1193 C1192 1.400 . S
C1193 C1194 1.398 . S
C1193 C1199 1.491 . S
C1194 H1185 0.950 . S
C1194 C1193 1.398 . S
C1194 C1195 1.391 . S
C1195 H1183 0.950 . S
C1195 C1191 1.393 . S
C1195 C1194 1.391 . S
C1196 H1186 0.950 . S
C1196 C1197 1.386 . S
C1196 C1198 1.391 . S
C1197 C1196 1.386 . S
C1197 C1201 1.393 . S
C1198 H1187 0.950 . S
C1198 C1196 1.391 . S
C1198 C1199 1.400 . S
C1199 C1193 1.491 . S
C1199 C1198 1.400 . S
C1199 C1200 1.398 . S
C1200 H1188 0.950 . S
C1200 C1199 1.398 . S
C1200 C1201 1.391 . S
C1201 H1189 0.950 . S
C1201 C1197 1.393 . S
C1201 C1200 1.391 . S
H1202 C1210 0.950 . S
H1203 C1215 0.950 . S
H1204 C1212 0.950 . S
H1205 C1214 0.950 . S
H1206 C1216 0.950 . S
H1207 C1218 0.950 . S
H1208 C1220 0.950 . S
H1209 C1221 0.950 . S
C1210 H1202 0.950 . S
C1210 C1211 1.386 . S
C1210 C1212 1.391 . S
C1211 C1210 1.386 . S
C1211 C1215 1.393 . S
C1212 H1204 0.950 . S
C1212 C1210 1.391 . S
C1212 C1213 1.400 . S
C1213 C1212 1.400 . S
C1213 C1214 1.398 . S
C1213 C1219 1.491 . S
C1214 H1205 0.950 . S
C1214 C1213 1.398 . S
C1214 C1215 1.391 . S
C1215 H1203 0.950 . S
C1215 C1211 1.393 . S
C1215 C1214 1.391 . S
C1216 H1206 0.950 . S
C1216 C1217 1.386 . S
C1216 C1218 1.391 . S
C1217 C1216 1.386 . S
C1217 C1221 1.393 . S
C1218 H1207 0.950 . S
C1218 C1216 1.391 . S
C1218 C1219 1.400 . S
C1219 C1213 1.491 . S
C1219 C1218 1.400 . S
C1219 C1220 1.398 . S
C1220 H1208 0.950 . S
C1220 C1219 1.398 . S
C1220 C1221 1.391 . S
C1221 H1209 0.950 . S
C1221 C1217 1.393 . S
C1221 C1220 1.391 . S
H1222 C1230 0.950 . S
H1223 C1235 0.950 . S
H1224 C1232 0.950 . S
H1225 C1234 0.950 . S
H1226 C1236 0.950 . S
H1227 C1238 0.950 . S
H1228 C1240 0.950 . S
H1229 C1241 0.950 . S
C1230 H1222 0.950 . S
C1230 C1231 1.386 . S
C1230 C1232 1.391 . S
C1231 C1230 1.386 . S
C1231 C1235 1.393 . S
C1232 H1224 0.950 . S
C1232 C1230 1.391 . S
C1232 C1233 1.400 . S
C1233 C1232 1.400 . S
C1233 C1234 1.398 . S
C1233 C1239 1.491 . S
C1234 H1225 0.950 . S
C1234 C1233 1.398 . S
C1234 C1235 1.391 . S
C1235 H1223 0.950 . S
C1235 C1231 1.393 . S
C1235 C1234 1.391 . S
C1236 H1226 0.950 . S
C1236 C1237 1.386 . S
C1236 C1238 1.391 . S
C1237 C1236 1.386 . S
C1237 C1241 1.393 . S
C1238 H1227 0.950 . S
C1238 C1236 1.391 . S
C1238 C1239 1.400 . S
C1239 C1233 1.491 . S
C1239 C1238 1.400 . S
C1239 C1240 1.398 . S
C1240 H1228 0.950 . S
C1240 C1239 1.398 . S
C1240 C1241 1.391 . S
C1241 H1229 0.950 . S
C1241 C1237 1.393 . S
C1241 C1240 1.391 . S
H1242 C1250 0.950 . S
H1243 C1255 0.950 . S
H1244 C1252 0.950 . S
H1245 C1254 0.950 . S
H1246 C1256 0.950 . S
H1247 C1258 0.950 . S
H1248 C1260 0.950 . S
H1249 C1261 0.950 . S
C1250 H1242 0.950 . S
C1250 C1251 1.386 . S
C1250 C1252 1.391 . S
C1251 C1250 1.386 . S
C1251 C1255 1.393 . S
C1252 H1244 0.950 . S
C1252 C1250 1.391 . S
C1252 C1253 1.400 . S
C1253 C1252 1.400 . S
C1253 C1254 1.398 . S
C1253 C1259 1.491 . S
C1254 H1245 0.950 . S
C1254 C1253 1.398 . S
C1254 C1255 1.391 . S
C1255 H1243 0.950 . S
C1255 C1251 1.393 . S
C1255 C1254 1.391 . S
C1256 H1246 0.950 . S
C1256 C1257 1.386 . S
C1256 C1258 1.391 . S
C1257 C1256 1.386 . S
C1257 C1261 1.393 . S
C1258 H1247 0.950 . S
C1258 C1256 1.391 . S
C1258 C1259 1.400 . S
C1259 C1253 1.491 . S
C1259 C1258 1.400 . S
C1259 C1260 1.398 . S
C1260 H1248 0.950 . S
C1260 C1259 1.398 . S
C1260 C1261 1.391 . S
C1261 H1249 0.950 . S
C1261 C1257 1.393 . S
C1261 C1260 1.391 . S
H1262 C1270 0.950 . S
H1263 C1275 0.950 . S
H1264 C1272 0.950 . S
H1265 C1274 0.950 . S
H1266 C1276 0.950 . S
H1267 C1278 0.950 . S
H1268 C1280 0.950 . S
H1269 C1281 0.950 . S
C1270 H1262 0.950 . S
C1270 C1271 1.386 . S
C1270 C1272 1.391 . S
C1271 C1270 1.386 . S
C1271 C1275 1.393 . S
C1272 H1264 0.950 . S
C1272 C1270 1.391 . S
C1272 C1273 1.400 . S
C1273 C1272 1.400 . S
C1273 C1274 1.398 . S
C1273 C1279 1.491 . S
C1274 H1265 0.950 . S
C1274 C1273 1.398 . S
C1274 C1275 1.391 . S
C1275 H1263 0.950 . S
C1275 C1271 1.393 . S
C1275 C1274 1.391 . S
C1276 H1266 0.950 . S
C1276 C1277 1.386 . S
C1276 C1278 1.391 . S
C1277 C1276 1.386 . S
C1277 C1281 1.393 . S
C1278 H1267 0.950 . S
C1278 C1276 1.391 . S
C1278 C1279 1.400 . S
C1279 C1273 1.491 . S
C1279 C1278 1.400 . S
C1279 C1280 1.398 . S
C1280 H1268 0.950 . S
C1280 C1279 1.398 . S
C1280 C1281 1.391 . S
C1281 H1269 0.950 . S
C1281 C1277 1.393 . S
C1281 C1280 1.391 . S
H1282 C1290 0.950 . S
H1283 C1295 0.950 . S
H1284 C1292 0.950 . S
H1285 C1294 0.950 . S
H1286 C1296 0.950 . S
H1287 C1298 0.950 . S
H1288 C1300 0.950 . S
H1289 C1301 0.950 . S
C1290 H1282 0.950 . S
C1290 C1291 1.386 . S
C1290 C1292 1.391 . S
C1291 C1290 1.386 . S
C1291 C1295 1.393 . S
C1292 H1284 0.950 . S
C1292 C1290 1.391 . S
C1292 C1293 1.400 . S
C1293 C1292 1.400 . S
C1293 C1294 1.398 . S
C1293 C1299 1.491 . S
C1294 H1285 0.950 . S
C1294 C1293 1.398 . S
C1294 C1295 1.391 . S
C1295 H1283 0.950 . S
C1295 C1291 1.393 . S
C1295 C1294 1.391 . S
C1296 H1286 0.950 . S
C1296 C1297 1.386 . S
C1296 C1298 1.391 . S
C1297 C1296 1.386 . S
C1297 C1301 1.393 . S
C1298 H1287 0.950 . S
C1298 C1296 1.391 . S
C1298 C1299 1.400 . S
C1299 C1293 1.491 . S
C1299 C1298 1.400 . S
C1299 C1300 1.398 . S
C1300 H1288 0.950 . S
C1300 C1299 1.398 . S
C1300 C1301 1.391 . S
C1301 H1289 0.950 . S
C1301 C1297 1.393 . S
C1301 C1300 1.391 . S
C831 C7 2.019 . S
C837 C167 1.842 . S
C851 C30 1.829 . S
C857 C307 1.619 . S
C877 C395 1.688 . S
C871 N58 1.772 . S
C897 C535 1.481 . S
C891 N81 1.617 . S
C917 C649 1.720 . S
C911 C99 1.940 . S
C937 C719 0.876 . S
C931 N127 1.634 . S
C951 N25 1.868 . S
C957 C377 0.992 . S
C971 C62 1.663 . S
C977 C481 1.168 . S
C997 C595 1.379 . S
C991 C85 1.874 . S
C1017 C737 1.521 . S
C1011 N94 1.601 . S
C1031 C131 2.097 . S
C1037 C149 1.112 . S
C1057 C253 1.102 . S
C1051 N2 1.442 . S
C1077 C491 1.582 . S
C1071 C16 2.047 1_655 S
C1091 C39 1.845 . S
C1097 C605 1.447 . S
C1117 C763 1.306 . S
C1111 N48 1.991 . S
C1131 N71 1.561 . S
C1137 C139 1.425 . S
C1151 C108 2.151 . S
C1157 C263 1.620 . S
C1171 N117 1.575 . S
C1177 C367 1.501 . S
C1191 N35 1.844 . S
C1197 C709 1.698 . S
C1217 C193 1.213 . S
C1211 C53 1.901 . S
C1231 C76 2.033 . S
C1237 C281 1.407 . S
C1251 N104 1.745 . S
C1257 C421 1.072 . S
C1271 C122 1.916 . S
C1277 C509 1.383 . S
C1291 N12 1.633 . S
C1297 C623 1.202 . S
