# Generated by pormake.
# Topology ssb, (4,4)-cn, num edge types: 1
# Building blocks:
#     Node 0, Type 0, BuildingBlock: MUDLON_clean_linker_0, # of connection points: 4
#     Node 1, Type 0, BuildingBlock: MUDLON_clean_linker_0, # of connection points: 4
#     Node 2, Type 0, BuildingBlock: MUDLON_clean_linker_0, # of connection points: 4
#     Node 3, Type 0, BuildingBlock: MUDLON_clean_linker_0, # of connection points: 4
#     Node 4, Type 0, BuildingBlock: MUDLON_clean_linker_0, # of connection points: 4
#     Node 5, Type 0, BuildingBlock: MUDLON_clean_linker_0, # of connection points: 4
#     Node 6, Type 0, BuildingBlock: MUDLON_clean_linker_0, # of connection points: 4
#     Node 7, Type 0, BuildingBlock: MUDLON_clean_linker_0, # of connection points: 4
#     Node 8, Type 1, BuildingBlock: KOZSID_clean_sbu_0, # of connection points: 4
#     Node 9, Type 1, BuildingBlock: KOZSID_clean_sbu_0, # of connection points: 4
#     Node 10, Type 1, BuildingBlock: KOZSID_clean_sbu_0, # of connection points: 4
#     Node 11, Type 1, BuildingBlock: KOZSID_clean_sbu_0, # of connection points: 4
#     Node 12, Type 1, BuildingBlock: KOZSID_clean_sbu_0, # of connection points: 4
#     Node 13, Type 1, BuildingBlock: KOZSID_clean_sbu_0, # of connection points: 4
#     Node 14, Type 1, BuildingBlock: KOZSID_clean_sbu_0, # of connection points: 4
#     Node 15, Type 1, BuildingBlock: KOZSID_clean_sbu_0, # of connection points: 4
#     Edge 16, Type (0, 1), BuildingBlock: XIVTED_clean_linker_0, # of connection points: 2
#     Edge 17, Type (0, 1), BuildingBlock: XIVTED_clean_linker_0, # of connection points: 2
#     Edge 18, Type (0, 1), BuildingBlock: XIVTED_clean_linker_0, # of connection points: 2
#     Edge 19, Type (0, 1), BuildingBlock: XIVTED_clean_linker_0, # of connection points: 2
#     Edge 20, Type (0, 1), BuildingBlock: XIVTED_clean_linker_0, # of connection points: 2
#     Edge 21, Type (0, 1), BuildingBlock: XIVTED_clean_linker_0, # of connection points: 2
#     Edge 22, Type (0, 1), BuildingBlock: XIVTED_clean_linker_0, # of connection points: 2
#     Edge 23, Type (0, 1), BuildingBlock: XIVTED_clean_linker_0, # of connection points: 2
#     Edge 24, Type (0, 1), BuildingBlock: XIVTED_clean_linker_0, # of connection points: 2
#     Edge 25, Type (0, 1), BuildingBlock: XIVTED_clean_linker_0, # of connection points: 2
#     Edge 26, Type (0, 1), BuildingBlock: XIVTED_clean_linker_0, # of connection points: 2
#     Edge 27, Type (0, 1), BuildingBlock: XIVTED_clean_linker_0, # of connection points: 2
#     Edge 28, Type (0, 1), BuildingBlock: XIVTED_clean_linker_0, # of connection points: 2
#     Edge 29, Type (0, 1), BuildingBlock: XIVTED_clean_linker_0, # of connection points: 2
#     Edge 30, Type (0, 1), BuildingBlock: XIVTED_clean_linker_0, # of connection points: 2
#     Edge 31, Type (0, 1), BuildingBlock: XIVTED_clean_linker_0, # of connection points: 2
#     Edge 32, Type (0, 1), BuildingBlock: XIVTED_clean_linker_0, # of connection points: 2
#     Edge 33, Type (0, 1), BuildingBlock: XIVTED_clean_linker_0, # of connection points: 2
#     Edge 34, Type (0, 1), BuildingBlock: XIVTED_clean_linker_0, # of connection points: 2
#     Edge 35, Type (0, 1), BuildingBlock: XIVTED_clean_linker_0, # of connection points: 2
#     Edge 36, Type (0, 1), BuildingBlock: XIVTED_clean_linker_0, # of connection points: 2
#     Edge 37, Type (0, 1), BuildingBlock: XIVTED_clean_linker_0, # of connection points: 2
#     Edge 38, Type (0, 1), BuildingBlock: XIVTED_clean_linker_0, # of connection points: 2
#     Edge 39, Type (0, 1), BuildingBlock: XIVTED_clean_linker_0, # of connection points: 2
#     Edge 40, Type (0, 1), BuildingBlock: XIVTED_clean_linker_0, # of connection points: 2
#     Edge 41, Type (0, 1), BuildingBlock: XIVTED_clean_linker_0, # of connection points: 2
#     Edge 42, Type (0, 1), BuildingBlock: XIVTED_clean_linker_0, # of connection points: 2
#     Edge 43, Type (0, 1), BuildingBlock: XIVTED_clean_linker_0, # of connection points: 2
#     Edge 44, Type (0, 1), BuildingBlock: XIVTED_clean_linker_0, # of connection points: 2
#     Edge 45, Type (0, 1), BuildingBlock: XIVTED_clean_linker_0, # of connection points: 2
#     Edge 46, Type (0, 1), BuildingBlock: XIVTED_clean_linker_0, # of connection points: 2
#     Edge 47, Type (0, 1), BuildingBlock: XIVTED_clean_linker_0, # of connection points: 2
# Relax obj value: 0.003
# Max RMSD: 0.058
# Mean RMSD: 0.024
data_MOF--net-ssb--node1-KOZSID_clean_sbu_0--node2-MUDLON_clean_linker_0--edge1-XIVTED_clean_linker_0
_symmetry_space_group_name_H-M    P1
_symmetry_Int_Tables_number       1
_symmetry_cell_setting            triclinic
loop_
_symmetry_equiv_pos_as_xyz
'x, y, z'
_cell_length_a     70.195657
_cell_length_b     70.147515
_cell_length_c     51.745086
_cell_angle_alpha  92.166503
_cell_angle_beta   94.281151
_cell_angle_gamma 89.977796
loop_
_atom_site_label
_atom_site_type_symbol
_atom_site_fract_x
_atom_site_fract_y
_atom_site_fract_z
_atom_type_partial_charge
H0 H 0.27872 0.29341 0.15001 0.0
N1 N 0.29614 0.28571 0.19564 0.0
H2 H 0.27141 0.32477 0.1328 0.0
H3 H 0.29889 0.32008 0.22337 0.0
H4 H 0.2912 0.35131 0.20667 0.0
H5 H 0.32928 0.3059 0.20705 0.0
H6 H 0.35985 0.29954 0.18918 0.0
H7 H 0.30568 0.25489 0.1682 0.0
H8 H 0.3366 0.24768 0.15134 0.0
H9 H 0.2689 0.26048 0.20162 0.0
H10 H 0.31234 0.29456 0.2445 0.0
H11 H 0.26003 0.24693 0.24174 0.0
H12 H 0.30251 0.28262 0.28498 0.0
H13 H 0.22378 0.21794 0.35439 0.0
H14 H 0.19265 0.2267 0.3689 0.0
H15 H 0.2166 0.27935 0.40333 0.0
H16 H 0.24802 0.26998 0.38952 0.0
H17 H 0.271 0.22918 0.4119 0.0
H18 H 0.2767 0.1976 0.42896 0.0
H19 H 0.26174 0.17217 0.35267 0.0
H20 H 0.25518 0.20391 0.3362 0.0
H21 H 0.23488 0.23988 0.31865 0.0
H22 H 0.24454 0.25186 0.27842 0.0
H23 H 0.30261 0.25777 0.31227 0.0
N24 N 0.25728 0.23775 0.36468 0.0
H25 H 0.29229 0.2473 0.35344 0.0
C26 C 0.28928 0.30423 0.18794 0.0
C27 C 0.2811 0.306 0.16261 0.0
C28 C 0.27691 0.32395 0.15284 0.0
C29 C 0.28083 0.34063 0.16829 0.0
C30 C 0.28828 0.3388 0.19409 0.0
C31 C 0.29252 0.32082 0.20381 0.0
C32 C 0.31508 0.28098 0.18853 0.0
C33 C 0.33078 0.29312 0.19504 0.0
C34 C 0.34837 0.28934 0.18492 0.0
C35 C 0.35073 0.27319 0.16844 0.0
C36 C 0.33524 0.26052 0.16333 0.0
C37 C 0.3176 0.26446 0.17316 0.0
C38 C 0.2909 0.27884 0.22004 0.0
C39 C 0.27623 0.26534 0.21985 0.0
C40 C 0.2711 0.25772 0.24293 0.0
C41 C 0.28033 0.26374 0.26698 0.0
C42 C 0.29515 0.27734 0.26702 0.0
C43 C 0.30058 0.28456 0.2438 0.0
C44 C 0.23833 0.24326 0.37118 0.0
C45 C 0.22237 0.23136 0.36507 0.0
C46 C 0.20447 0.23651 0.37318 0.0
C47 C 0.20207 0.25372 0.38741 0.0
C48 C 0.21797 0.26584 0.39281 0.0
C49 C 0.2359 0.26062 0.38479 0.0
C50 C 0.26283 0.21896 0.37285 0.0
C51 C 0.26924 0.21677 0.39884 0.0
C52 C 0.27258 0.19865 0.40849 0.0
C53 C 0.26972 0.18219 0.39225 0.0
C54 C 0.26384 0.18445 0.36589 0.0
C55 C 0.2603 0.20263 0.35631 0.0
C56 C 0.26282 0.24304 0.33951 0.0
C57 C 0.24967 0.24387 0.31767 0.0
C58 C 0.25534 0.25057 0.2943 0.0
C59 C 0.27442 0.25604 0.2918 0.0
C60 C 0.28768 0.25431 0.31341 0.0
C61 C 0.28188 0.24807 0.33697 0.0
H62 H 0.71346 0.35709 0.25459 0.0
N63 N 0.70748 0.32008 0.24489 0.0
H64 H 0.72881 0.37963 0.22764 0.0
H65 H 0.72465 0.31119 0.20009 0.0
H66 H 0.74034 0.3334 0.17344 0.0
H67 H 0.70783 0.28497 0.21968 0.0
H68 H 0.68123 0.27018 0.19292 0.0
H69 H 0.6719 0.33247 0.23879 0.0
H70 H 0.64529 0.318 0.21184 0.0
H71 H 0.70066 0.3188 0.2944 0.0
H72 H 0.73967 0.29846 0.23913 0.0
H73 H 0.72011 0.3039 0.3292 0.0
H74 H 0.7597 0.28438 0.27379 0.0
H75 H 0.80598 0.27235 0.43478 0.0
H76 H 0.83982 0.27946 0.44438 0.0
H77 H 0.84844 0.27425 0.3625 0.0
H78 H 0.81476 0.2662 0.35335 0.0
H79 H 0.80908 0.23171 0.37421 0.0
H80 H 0.80426 0.19884 0.38547 0.0
H81 H 0.75348 0.21567 0.42304 0.0
H82 H 0.75937 0.24885 0.4133 0.0
H83 H 0.76944 0.29556 0.38903 0.0
H84 H 0.74983 0.30895 0.35318 0.0
H85 H 0.76234 0.25985 0.30425 0.0
N86 N 0.78814 0.26275 0.38926 0.0
H87 H 0.78265 0.24713 0.33987 0.0
C88 C 0.71777 0.33256 0.22935 0.0
C89 C 0.71946 0.35188 0.23699 0.0
C90 C 0.72835 0.36467 0.22166 0.0
C91 C 0.73575 0.35831 0.19833 0.0
C92 C 0.73455 0.3388 0.1911 0.0
C93 C 0.72563 0.32604 0.20642 0.0
C94 C 0.69177 0.30987 0.23124 0.0
C95 C 0.69416 0.29211 0.21837 0.0
C96 C 0.67896 0.28373 0.20295 0.0
C97 C 0.66113 0.29292 0.20019 0.0
C98 C 0.65871 0.31037 0.21382 0.0
C99 C 0.67389 0.31872 0.22914 0.0
C100 C 0.71876 0.30999 0.26431 0.0
C101 C 0.71345 0.31112 0.28983 0.0
C102 C 0.7247 0.30276 0.30968 0.0
C103 C 0.74168 0.29318 0.3044 0.0
C104 C 0.74669 0.29154 0.27858 0.0
C105 C 0.73528 0.29975 0.25868 0.0
C106 C 0.80777 0.2689 0.39348 0.0
C107 C 0.81518 0.27299 0.41894 0.0
C108 C 0.83453 0.27717 0.42431 0.0
C109 C 0.84696 0.2775 0.40421 0.0
C110 C 0.83938 0.27389 0.37851 0.0
C111 C 0.82002 0.2695 0.37319 0.0
C112 C 0.78482 0.24286 0.39361 0.0
C113 C 0.797 0.22838 0.38506 0.0
C114 C 0.79404 0.20945 0.39123 0.0
C115 C 0.77858 0.2045 0.4055 0.0
C116 C 0.76587 0.21894 0.41274 0.0
C117 C 0.76908 0.23791 0.40701 0.0
C118 C 0.7773 0.27035 0.36725 0.0
C119 C 0.76799 0.28781 0.37048 0.0
C120 C 0.75665 0.2953 0.35003 0.0
C121 C 0.75425 0.28535 0.32587 0.0
C122 C 0.76393 0.26796 0.3225 0.0
C123 C 0.77546 0.26057 0.34294 0.0
H124 H 0.80161 0.78829 0.40482 0.0
N125 N 0.79087 0.79871 0.35708 0.0
H126 H 0.83367 0.77974 0.42231 0.0
H127 H 0.82272 0.79358 0.32921 0.0
H128 H 0.85422 0.78414 0.34604 0.0
H129 H 0.81494 0.82884 0.35111 0.0
H130 H 0.8112 0.86148 0.36837 0.0
H131 H 0.76021 0.81372 0.37726 0.0
H132 H 0.7561 0.84668 0.39369 0.0
H133 H 0.76692 0.76963 0.34728 0.0
H134 H 0.79728 0.8128 0.30982 0.0
H135 H 0.75435 0.75646 0.3051 0.0
H136 H 0.78621 0.79894 0.26753 0.0
H137 H 0.72622 0.71022 0.19232 0.0
H138 H 0.73322 0.67779 0.17712 0.0
H139 H 0.78301 0.69853 0.14245 0.0
H140 H 0.77549 0.7311 0.15717 0.0
H141 H 0.73517 0.75312 0.13388 0.0
H142 H 0.70315 0.76029 0.11516 0.0
H143 H 0.68057 0.75128 0.1893 0.0
H144 H 0.71257 0.74314 0.20733 0.0
H145 H 0.75141 0.72411 0.22788 0.0
H146 H 0.76215 0.73841 0.2697 0.0
H147 H 0.76177 0.79404 0.23623 0.0
N148 N 0.74535 0.7427 0.18171 0.0
H149 H 0.75252 0.77925 0.19379 0.0
C150 C 0.8095 0.7915 0.36573 0.0
C151 C 0.81303 0.78717 0.39187 0.0
C152 C 0.83137 0.7822 0.40178 0.0
C153 C 0.84664 0.78132 0.38563 0.0
C154 C 0.84294 0.78501 0.3592 0.0
C155 C 0.82468 0.79022 0.3494 0.0
C156 C 0.78794 0.81868 0.36338 0.0
C157 C 0.80199 0.83257 0.36019 0.0
C158 C 0.79985 0.85123 0.37003 0.0
C159 C 0.78343 0.85649 0.38249 0.0
C160 C 0.76887 0.84296 0.3841 0.0
C161 C 0.77119 0.82419 0.37477 0.0
C162 C 0.78316 0.792 0.33173 0.0
C163 C 0.77095 0.77617 0.32985 0.0
C164 C 0.76398 0.76854 0.30564 0.0
C165 C 0.76941 0.77637 0.2826 0.0
C166 C 0.78142 0.79257 0.28463 0.0
C167 C 0.78797 0.80046 0.3089 0.0
C168 C 0.75032 0.72313 0.17567 0.0
C169 C 0.73871 0.70778 0.18161 0.0
C170 C 0.74283 0.68919 0.17305 0.0
C171 C 0.75862 0.68553 0.15838 0.0
C172 C 0.77056 0.70086 0.15331 0.0
C173 C 0.76641 0.71944 0.16187 0.0
C174 C 0.7263 0.74779 0.17194 0.0
C175 C 0.72328 0.7528 0.14604 0.0
C176 C 0.70495 0.75703 0.13547 0.0
C177 C 0.68918 0.75652 0.15072 0.0
C178 C 0.69228 0.75161 0.17685 0.0
C179 C 0.71063 0.74713 0.18731 0.0
C180 C 0.75138 0.75058 0.20729 0.0
C181 C 0.75381 0.73934 0.22927 0.0
C182 C 0.75976 0.74767 0.25352 0.0
C183 C 0.7629 0.7675 0.25667 0.0
C184 C 0.76001 0.7787 0.23471 0.0
C185 C 0.75453 0.7703 0.21038 0.0
H186 H 0.29715 0.77471 0.11913 0.0
N187 N 0.28506 0.75129 0.15344 0.0
H188 H 0.33014 0.78298 0.11228 0.0
H189 H 0.31669 0.74208 0.18481 0.0
H190 H 0.34951 0.75112 0.1792 0.0
H191 H 0.28955 0.7216 0.18615 0.0
H192 H 0.28779 0.68764 0.17348 0.0
H193 H 0.27408 0.73605 0.10719 0.0
H194 H 0.27157 0.70219 0.0944 0.0
H195 H 0.25156 0.76759 0.14279 0.0
H196 H 0.29203 0.75463 0.20641 0.0
H197 H 0.23097 0.78339 0.17305 0.0
H198 H 0.27211 0.7711 0.23664 0.0
H199 H 0.19469 0.85847 0.28252 0.0
H200 H 0.21081 0.88464 0.30785 0.0
H201 H 0.25823 0.84731 0.32797 0.0
H202 H 0.24167 0.82113 0.30335 0.0
H203 H 0.2141 0.80687 0.32518 0.0
H204 H 0.19083 0.79574 0.35398 0.0
H205 H 0.14525 0.80646 0.29559 0.0
H206 H 0.16873 0.81762 0.26676 0.0
H207 H 0.21121 0.82984 0.22909 0.0
H208 H 0.23021 0.81185 0.19898 0.0
H209 H 0.24286 0.77007 0.25713 0.0
N210 N 0.20601 0.82253 0.27782 0.0
H211 H 0.22453 0.7886 0.28738 0.0
C212 C 0.30438 0.75796 0.1525 0.0
C213 C 0.30855 0.76981 0.13252 0.0
C214 C 0.32744 0.77459 0.12876 0.0
C215 C 0.3426 0.76768 0.14515 0.0
C216 C 0.33827 0.75645 0.16593 0.0
C217 C 0.31939 0.75148 0.16943 0.0
C218 C 0.28208 0.7313 0.14745 0.0
C219 C 0.28554 0.71745 0.16614 0.0
C220 C 0.28441 0.69803 0.15888 0.0
C221 C 0.27975 0.69218 0.13285 0.0
C222 C 0.2756 0.70617 0.11449 0.0
C223 C 0.27683 0.7255 0.12175 0.0
C224 C 0.27341 0.76018 0.17217 0.0
C225 C 0.25603 0.76828 0.1633 0.0
C226 C 0.24437 0.77739 0.18062 0.0
C227 C 0.24995 0.77872 0.20732 0.0
C228 C 0.26726 0.77022 0.21627 0.0
C229 C 0.27883 0.76093 0.19889 0.0
C230 C 0.21692 0.83793 0.29092 0.0
C231 C 0.20866 0.85607 0.29217 0.0
C232 C 0.21798 0.87101 0.30653 0.0
C233 C 0.23587 0.86811 0.31995 0.0
C234 C 0.24438 0.84999 0.31813 0.0
C235 C 0.23498 0.83502 0.30385 0.0
C236 C 0.19309 0.81325 0.29378 0.0
C237 C 0.19916 0.80658 0.31836 0.0
C238 C 0.18582 0.8003 0.33489 0.0
C239 C 0.1662 0.80042 0.32715 0.0
C240 C 0.16027 0.80609 0.30205 0.0
C241 C 0.17363 0.81249 0.28558 0.0
C242 C 0.21625 0.81057 0.26033 0.0
C243 C 0.21798 0.81671 0.23519 0.0
C244 C 0.22877 0.80633 0.218 0.0
C245 C 0.23803 0.78942 0.22555 0.0
C246 C 0.23611 0.78313 0.25074 0.0
C247 C 0.22542 0.79364 0.26803 0.0
H248 H 0.21755 0.86011 0.72181 0.0
N249 N 0.22665 0.82352 0.71667 0.0
H250 H 0.22902 0.88672 0.6979 0.0
H251 H 0.255 0.82177 0.68296 0.0
H252 H 0.26672 0.84833 0.65905 0.0
H253 H 0.22174 0.81248 0.66508 0.0
H254 H 0.19261 0.80054 0.64196 0.0
H255 H 0.19354 0.81619 0.73631 0.0
H256 H 0.16433 0.80312 0.71346 0.0
H257 H 0.24719 0.82903 0.76158 0.0
H258 H 0.23589 0.78735 0.69892 0.0
H259 H 0.26841 0.80657 0.78422 0.0
H260 H 0.25549 0.76432 0.72223 0.0
H261 H 0.3155 0.74098 0.8614 0.0
H262 H 0.34463 0.75282 0.88539 0.0
H263 H 0.37368 0.75035 0.81448 0.0
H264 H 0.34467 0.73754 0.79103 0.0
H265 H 0.32596 0.6943 0.80793 0.0
H266 H 0.31691 0.66672 0.83158 0.0
H267 H 0.27104 0.69941 0.86268 0.0
H268 H 0.28084 0.72707 0.84013 0.0
H269 H 0.29066 0.75772 0.8317 0.0
H270 H 0.26977 0.78001 0.80843 0.0
H271 H 0.28524 0.75419 0.73559 0.0
N272 N 0.31179 0.72924 0.81025 0.0
H273 H 0.30464 0.73088 0.75939 0.0
C274 C 0.23538 0.83903 0.70423 0.0
C275 C 0.22851 0.85755 0.70842 0.0
C276 C 0.23513 0.87271 0.69479 0.0
C277 C 0.24876 0.86965 0.67649 0.0
C278 C 0.25606 0.85113 0.6728 0.0
C279 C 0.24949 0.83596 0.68659 0.0
C280 C 0.20975 0.81562 0.7025 0.0
C281 C 0.20928 0.81071 0.67584 0.0
C282 C 0.19258 0.80355 0.66263 0.0
C283 C 0.17601 0.80082 0.67577 0.0
C284 C 0.17667 0.80533 0.70258 0.0
C285 C 0.19336 0.81269 0.71573 0.0
C286 C 0.23967 0.80995 0.72877 0.0
C287 C 0.24917 0.81496 0.75284 0.0
C288 C 0.26111 0.80194 0.7659 0.0
C289 C 0.26358 0.78334 0.75542 0.0
C290 C 0.25427 0.77848 0.73097 0.0
C291 C 0.24274 0.79169 0.71762 0.0
C292 C 0.3281 0.73805 0.82448 0.0
C293 C 0.32813 0.74304 0.85105 0.0
C294 C 0.3448 0.74999 0.8647 0.0
C295 C 0.36166 0.75236 0.85198 0.0
C296 C 0.36117 0.74826 0.82509 0.0
C297 C 0.34458 0.7411 0.81158 0.0
C298 C 0.30413 0.71278 0.82194 0.0
C299 C 0.31379 0.69539 0.81959 0.0
C300 C 0.30849 0.67959 0.83309 0.0
C301 C 0.29319 0.68072 0.84918 0.0
C302 C 0.2831 0.69803 0.85087 0.0
C303 C 0.28859 0.71392 0.83761 0.0
C304 C 0.29875 0.74224 0.79721 0.0
C305 C 0.28908 0.75652 0.81075 0.0
C306 C 0.27742 0.76958 0.79727 0.0
C307 C 0.27567 0.76909 0.76991 0.0
C308 C 0.28568 0.75487 0.75655 0.0
C309 C 0.29691 0.74154 0.77009 0.0
H310 H 0.2962 0.27751 0.93691 0.0
N311 N 0.28299 0.2876 0.89006 0.0
H312 H 0.32905 0.26925 0.95139 0.0
H313 H 0.31288 0.28266 0.85899 0.0
H314 H 0.34567 0.27529 0.8733 0.0
H315 H 0.30404 0.31546 0.86927 0.0
H316 H 0.30163 0.34979 0.87837 0.0
H317 H 0.25605 0.30578 0.91458 0.0
H318 H 0.25306 0.34037 0.92269 0.0
H319 H 0.25654 0.26151 0.89524 0.0
H320 H 0.28439 0.29189 0.83784 0.0
H321 H 0.23683 0.24447 0.86109 0.0
H322 H 0.26599 0.27383 0.80333 0.0
H323 H 0.19345 0.17839 0.74315 0.0
H324 H 0.20943 0.15249 0.7205 0.0
H325 H 0.25488 0.19122 0.70539 0.0
H326 H 0.23839 0.21715 0.72748 0.0
H327 H 0.20991 0.23308 0.70545 0.0
H328 H 0.18514 0.24669 0.67613 0.0
H329 H 0.14233 0.23028 0.72701 0.0
H330 H 0.16739 0.21717 0.7566 0.0
H331 H 0.21713 0.20306 0.79622 0.0
H332 H 0.2371 0.22049 0.82962 0.0
H333 H 0.23639 0.26946 0.78113 0.0
N334 N 0.20444 0.21448 0.74992 0.0
H335 H 0.21776 0.25142 0.74724 0.0
C336 C 0.302 0.28077 0.89699 0.0
C337 C 0.30693 0.27669 0.92291 0.0
C338 C 0.32574 0.27216 0.93115 0.0
C339 C 0.34012 0.27181 0.91359 0.0
C340 C 0.33499 0.27521 0.88736 0.0
C341 C 0.31613 0.27955 0.87911 0.0
C342 C 0.28045 0.30798 0.89186 0.0
C343 C 0.29284 0.32065 0.88088 0.0
C344 C 0.2914 0.34029 0.88593 0.0
C345 C 0.27721 0.34755 0.90124 0.0
C346 C 0.26406 0.33502 0.91072 0.0
C347 C 0.26578 0.31536 0.90619 0.0
C348 C 0.27214 0.27761 0.86911 0.0
C349 C 0.25861 0.26419 0.87516 0.0
C350 C 0.24748 0.25436 0.85553 0.0
C351 C 0.24991 0.25749 0.82925 0.0
C352 C 0.26352 0.2711 0.82325 0.0
C353 C 0.27435 0.28125 0.843 0.0
C354 C 0.21472 0.19957 0.73706 0.0
C355 C 0.2069 0.1812 0.73501 0.0
C356 C 0.21615 0.16642 0.72224 0.0
C357 C 0.23355 0.16972 0.71127 0.0
C358 C 0.24144 0.18821 0.71342 0.0
C359 C 0.23209 0.20303 0.72615 0.0
C360 C 0.19043 0.22409 0.73327 0.0
C361 C 0.19523 0.2326 0.71044 0.0
C362 C 0.18101 0.24028 0.69359 0.0
C363 C 0.16169 0.23948 0.69909 0.0
C364 C 0.15705 0.23139 0.7223 0.0
C365 C 0.17131 0.22381 0.73919 0.0
C366 C 0.21566 0.22584 0.76933 0.0
C367 C 0.22133 0.21756 0.79287 0.0
C368 C 0.23264 0.22766 0.81203 0.0
C369 C 0.23828 0.24657 0.80836 0.0
C370 C 0.2326 0.25488 0.78465 0.0
C371 C 0.22163 0.24457 0.76522 0.0
H372 H 0.79601 0.25842 0.63412 0.0
N373 N 0.79135 0.24677 0.68148 0.0
H374 H 0.82592 0.26717 0.61605 0.0
H375 H 0.82636 0.25196 0.70885 0.0
H376 H 0.85597 0.26107 0.69123 0.0
H377 H 0.81687 0.2178 0.69162 0.0
H378 H 0.81304 0.18445 0.67668 0.0
H379 H 0.75993 0.23001 0.65937 0.0
H380 H 0.75581 0.19634 0.64515 0.0
H381 H 0.76574 0.27395 0.68844 0.0
H382 H 0.8034 0.2354 0.73011 0.0
H383 H 0.75468 0.28661 0.72929 0.0
H384 H 0.79381 0.24894 0.7711 0.0
H385 H 0.72694 0.3302 0.84143 0.0
H386 H 0.73173 0.36241 0.8604 0.0
H387 H 0.78596 0.34542 0.89715 0.0
H388 H 0.78077 0.31281 0.87885 0.0
H389 H 0.74227 0.28539 0.89717 0.0
H390 H 0.71119 0.2766 0.91167 0.0
H391 H 0.68451 0.28903 0.83618 0.0
H392 H 0.71566 0.29812 0.82209 0.0
H393 H 0.75083 0.31836 0.80641 0.0
H394 H 0.76162 0.3057 0.76571 0.0
H395 H 0.77037 0.25055 0.79942 0.0
N396 N 0.74962 0.2991 0.85184 0.0
H397 H 0.76104 0.2639 0.84073 0.0
C398 C 0.80875 0.25455 0.67279 0.0
C399 C 0.80902 0.25934 0.64676 0.0
C400 C 0.82612 0.26437 0.63651 0.0
C401 C 0.84339 0.26468 0.65216 0.0
C402 C 0.84298 0.26068 0.67854 0.0
C403 C 0.82589 0.25562 0.68875 0.0
C404 C 0.78873 0.22655 0.67615 0.0
C405 C 0.80345 0.21332 0.68162 0.0
C406 C 0.80127 0.19424 0.67309 0.0
C407 C 0.78419 0.18791 0.65961 0.0
C408 C 0.7691 0.20086 0.65556 0.0
C409 C 0.77143 0.22004 0.66362 0.0
C410 C 0.78553 0.25396 0.70616 0.0
C411 C 0.77182 0.26844 0.70651 0.0
C412 C 0.76567 0.27578 0.72997 0.0
C413 C 0.77339 0.269 0.75382 0.0
C414 C 0.78722 0.25441 0.75332 0.0
C415 C 0.793 0.24678 0.72979 0.0
C416 C 0.75339 0.31891 0.85917 0.0
C417 C 0.73991 0.33332 0.85344 0.0
C418 C 0.74266 0.35176 0.86423 0.0
C419 C 0.75912 0.35629 0.88039 0.0
C420 C 0.77316 0.34227 0.8847 0.0
C421 C 0.77023 0.32369 0.8743 0.0
C422 C 0.7313 0.29233 0.85865 0.0
C423 C 0.72972 0.28595 0.88371 0.0
C424 C 0.71196 0.28088 0.89188 0.0
C425 C 0.69533 0.28211 0.87509 0.0
C426 C 0.69699 0.28811 0.8497 0.0
C427 C 0.71481 0.29317 0.84153 0.0
C428 C 0.75544 0.29213 0.82697 0.0
C429 C 0.75531 0.30363 0.80524 0.0
C430 C 0.76129 0.29622 0.78168 0.0
C431 C 0.76703 0.27701 0.77899 0.0
C432 C 0.76663 0.2655 0.80067 0.0
C433 C 0.7611 0.27304 0.82433 0.0
H434 H 0.7725 0.79011 0.61954 0.0
N435 N 0.78525 0.77635 0.66457 0.0
H436 H 0.76639 0.82351 0.60958 0.0
H437 H 0.78689 0.80685 0.69965 0.0
H438 H 0.78068 0.84008 0.68996 0.0
H439 H 0.81757 0.79422 0.6868 0.0
H440 H 0.85003 0.78836 0.67534 0.0
H441 H 0.79734 0.74724 0.63604 0.0
H442 H 0.83009 0.74024 0.62584 0.0
H443 H 0.7545 0.7545 0.65759 0.0
H444 H 0.79557 0.77731 0.71668 0.0
H445 H 0.73779 0.73857 0.6904 0.0
H446 H 0.77824 0.76268 0.75002 0.0
H447 H 0.68132 0.69401 0.79938 0.0
H448 H 0.65492 0.70769 0.822 0.0
H449 H 0.68891 0.75815 0.84268 0.0
H450 H 0.71546 0.74398 0.82059 0.0
H451 H 0.73513 0.71902 0.84287 0.0
H452 H 0.7516 0.69778 0.87343 0.0
H453 H 0.73761 0.64971 0.82069 0.0
H454 H 0.72135 0.67121 0.79006 0.0
H455 H 0.70118 0.72557 0.75453 0.0
H456 H 0.7178 0.7435 0.72368 0.0
H457 H 0.77139 0.73381 0.768 0.0
N458 N 0.71593 0.70852 0.79656 0.0
H459 H 0.75475 0.71722 0.7995 0.0
C460 C 0.78014 0.79592 0.6602 0.0
C461 C 0.77405 0.80097 0.63502 0.0
C462 C 0.7705 0.82001 0.62942 0.0
C463 C 0.7731 0.83442 0.64901 0.0
C464 C 0.77875 0.82931 0.67443 0.0
C465 C 0.78219 0.81023 0.68002 0.0
C466 C 0.80491 0.77144 0.66164 0.0
C467 C 0.82013 0.78241 0.6735 0.0
C468 C 0.83884 0.77886 0.66712 0.0
C469 C 0.84278 0.76402 0.64921 0.0
C470 C 0.82761 0.75219 0.63901 0.0
C471 C 0.80889 0.756 0.64502 0.0
C472 C 0.77605 0.76719 0.6847 0.0
C473 C 0.75973 0.75622 0.67777 0.0
C474 C 0.7501 0.74733 0.69664 0.0
C475 C 0.75645 0.74949 0.72304 0.0
C476 C 0.77298 0.76051 0.72993 0.0
C477 C 0.78281 0.76911 0.71091 0.0
C478 C 0.70024 0.71794 0.80823 0.0
C479 C 0.68293 0.70811 0.80858 0.0
C480 C 0.66785 0.71603 0.8214 0.0
C481 C 0.66974 0.73408 0.83414 0.0
C482 C 0.68704 0.74414 0.83334 0.0
C483 C 0.70218 0.73612 0.82058 0.0
C484 C 0.72684 0.69658 0.81427 0.0
C485 C 0.73564 0.70393 0.83788 0.0
C486 C 0.74507 0.69177 0.85532 0.0
C487 C 0.74584 0.67204 0.84954 0.0
C488 C 0.7375 0.66485 0.82558 0.0
C489 C 0.72809 0.67705 0.80815 0.0
C490 C 0.72639 0.72001 0.77965 0.0
C491 C 0.71648 0.7276 0.75784 0.0
C492 C 0.72608 0.73767 0.74 0.0
C493 C 0.74604 0.73999 0.7431 0.0
C494 C 0.756 0.73261 0.76509 0.0
C495 C 0.74634 0.72287 0.78323 0.0
C496 C 0.04721 0.28831 0.56212 0.0
C497 C 0.05379 0.30489 0.57535 0.0
C498 C 0.04546 0.31976 0.56255 0.0
C499 C 0.03434 0.31147 0.54232 0.0
N500 N 0.03493 0.29217 0.54151 0.0
Co501 Co 0.02111 0.27443 0.51511 0.0
N502 N 0.00991 0.29633 0.49545 0.0
C503 C 0.0137 0.31509 0.50008 0.0
C504 C 0.00336 0.32673 0.48358 0.0
C505 C 0.99201 0.31468 0.46783 0.0
C506 C 0.99608 0.29637 0.47578 0.0
N507 N 0.00673 0.25673 0.48919 0.0
C508 C 0.99277 0.26066 0.47062 0.0
C509 C 0.98519 0.24411 0.45832 0.0
C510 C 0.99447 0.2292 0.46979 0.0
C511 C 0.00704 0.23743 0.48846 0.0
N512 N 0.03274 0.25247 0.53434 0.0
C513 C 0.03035 0.23367 0.52808 0.0
C514 C 0.0406 0.22195 0.5445 0.0
C515 C 0.05039 0.23397 0.56208 0.0
C516 C 0.04555 0.25241 0.55526 0.0
N517 N 0.99882 0.27447 0.53654 0.0
C518 C 0.96605 0.27436 0.56492 0.0
C519 C 0.97456 0.25731 0.55706 0.0
C520 C 0.99075 0.25769 0.54299 0.0
C521 C 0.97435 0.2915 0.55852 0.0
C522 C 0.99066 0.29123 0.54456 0.0
N523 N 0.04351 0.27438 0.49361 0.0
C524 C 0.06559 0.25724 0.46748 0.0
C525 C 0.0769 0.27351 0.46637 0.0
C526 C 0.07094 0.29036 0.4785 0.0
C527 C 0.05429 0.2905 0.49172 0.0
C528 C 0.04915 0.25798 0.48109 0.0
H529 H 0.05061 0.30381 0.5005 0.0
H530 H 0.04148 0.24497 0.48155 0.0
H531 H 0.99636 0.2442 0.53728 0.0
H532 H 0.99636 0.30475 0.54031 0.0
C533 C 0.02469 0.32139 0.5224 0.0
C534 C 0.05397 0.26934 0.56883 0.0
C535 C 0.98525 0.27968 0.46571 0.0
C536 C 0.01826 0.22745 0.50679 0.0
H537 H 0.06398 0.30616 0.59208 0.0
H538 H 0.0478 0.33483 0.56693 0.0
H539 H 0.00325 0.34217 0.48396 0.0
H540 H 0.98133 0.31888 0.45296 0.0
H541 H 0.97369 0.2428 0.44328 0.0
H542 H 0.99178 0.21415 0.46577 0.0
H543 H 0.04102 0.20652 0.54367 0.0
H544 H 0.06016 0.22966 0.57796 0.0
H545 H 0.96853 0.24366 0.56125 0.0
H546 H 0.9684 0.30508 0.56445 0.0
H547 H 0.06969 0.24379 0.45855 0.0
H548 H 0.07909 0.30342 0.47781 0.0
C549 C 0.75576 0.04918 0.5629 0.0
C550 C 0.7382 0.05664 0.5688 0.0
C551 C 0.72454 0.04596 0.55482 0.0
C552 C 0.73445 0.03277 0.54103 0.0
N553 N 0.75364 0.03407 0.54571 0.0
Co554 Co 0.77342 0.01931 0.52716 0.0
N555 N 0.75334 0.00499 0.5045 0.0
C556 C 0.73419 0.00641 0.50564 0.0
C557 C 0.72399 0.99359 0.48949 0.0
C558 C 0.73739 0.98311 0.47757 0.0
C559 C 0.75511 0.9903 0.48696 0.0
N560 N 0.79323 0.0052 0.50804 0.0
C561 C 0.79121 0.99145 0.48892 0.0
C562 C 0.80875 0.98602 0.48027 0.0
C563 C 0.82236 0.9962 0.49507 0.0
C564 C 0.81241 0.0074 0.51162 0.0
N565 N 0.7935 0.03307 0.55033 0.0
C566 C 0.81259 0.03028 0.55109 0.0
C567 C 0.82274 0.04167 0.56931 0.0
C568 C 0.80935 0.05265 0.58055 0.0
C569 C 0.79176 0.04741 0.56828 0.0
N570 N 0.7731 0.99867 0.55233 0.0
C571 C 0.77177 0.96641 0.58294 0.0
C572 C 0.78909 0.97292 0.5749 0.0
C573 C 0.78944 0.989 0.55983 0.0
C574 C 0.75532 0.97694 0.57664 0.0
C575 C 0.75631 0.99291 0.56154 0.0
N576 N 0.77367 0.03993 0.50205 0.0
C577 C 0.79056 0.06497 0.48237 0.0
C578 C 0.77335 0.07258 0.47221 0.0
C579 C 0.75643 0.06297 0.47586 0.0
C580 C 0.75694 0.04666 0.49047 0.0
C581 C 0.79039 0.04874 0.49719 0.0
H582 H 0.74355 0.04006 0.49274 0.0
H583 H 0.8039 0.04396 0.5052 0.0
H584 H 0.80303 0.99299 0.55392 0.0
H585 H 0.74319 7e-05 0.55715 0.0
C586 C 0.72622 0.01959 0.5226 0.0
C587 C 0.77407 0.05746 0.57295 0.0
C588 C 0.77323 0.98218 0.47963 0.0
C589 C 0.82067 0.01869 0.53229 0.0
H590 H 0.73542 0.06887 0.58128 0.0
H591 H 0.70923 0.04801 0.55411 0.0
H592 H 0.70864 0.99176 0.48717 0.0
H593 H 0.73434 0.97122 0.46398 0.0
H594 H 0.81146 0.97535 0.46534 0.0
H595 H 0.8377 0.99509 0.49445 0.0
H596 H 0.83809 0.04253 0.57311 0.0
H597 H 0.81225 0.06377 0.59539 0.0
H598 H 0.80225 0.96523 0.57928 0.0
H599 H 0.74162 0.97273 0.58298 0.0
H600 H 0.80402 0.07199 0.47995 0.0
H601 H 0.7428 0.06823 0.46788 0.0
C602 C 0.04694 0.79144 0.55636 0.0
C603 C 0.05253 0.8092 0.56717 0.0
C604 C 0.04098 0.82235 0.5553 0.0
C605 C 0.02915 0.812 0.53783 0.0
N606 N 0.03236 0.79297 0.53783 0.0
Co607 Co 0.01906 0.77286 0.5144 0.0
N608 N 0.00218 0.79236 0.49685 0.0
C609 C 0.00243 0.81145 0.50174 0.0
C610 C 0.98846 0.82106 0.48771 0.0
C611 C 0.97845 0.80729 0.47323 0.0
C612 C 0.98701 0.78998 0.47919 0.0
N613 N 0.00579 0.75278 0.49089 0.0
C614 C 0.99037 0.7542 0.47368 0.0
C615 C 0.98536 0.73669 0.4617 0.0
C616 C 0.99781 0.72363 0.47214 0.0
C617 C 0.0097 0.73388 0.48973 0.0
N618 N 0.0358 0.75332 0.5321 0.0
C619 C 0.03564 0.73425 0.52699 0.0
C620 C 0.0486 0.72446 0.54251 0.0
C621 C 0.0577 0.73808 0.55842 0.0
C622 C 0.0498 0.75548 0.55153 0.0
N623 N 0.99971 0.7695 0.53989 0.0
C624 C 0.96889 0.76482 0.57084 0.0
C625 C 0.97786 0.74904 0.55992 0.0
C626 C 0.99326 0.75168 0.54487 0.0
C627 C 0.97625 0.78293 0.56723 0.0
C628 C 0.99156 0.78494 0.55175 0.0
N629 N 0.03841 0.77619 0.48867 0.0
C630 C 0.06078 0.76275 0.45957 0.0
C631 C 0.06642 0.7809 0.45303 0.0
C632 C 0.0577 0.79666 0.46442 0.0
C633 C 0.04379 0.794 0.4819 0.0
C634 C 0.04696 0.76074 0.47736 0.0
H635 H 0.03766 0.80661 0.48969 0.0
H636 H 0.04358 0.74653 0.48174 0.0
H637 H 0.9994 0.73909 0.53694 0.0
H638 H 0.99619 0.79914 0.54906 0.0
C639 C 0.01513 0.8198 0.52087 0.0
C640 C 0.05631 0.77365 0.56379 0.0
C641 C 0.97957 0.77161 0.46879 0.0
C642 C 0.02346 0.72599 0.50706 0.0
H643 H 0.06395 0.81245 0.58187 0.0
H644 H 0.04134 0.83767 0.55873 0.0
H645 H 0.9855 0.83621 0.48858 0.0
H646 H 0.96591 0.80975 0.46035 0.0
H647 H 0.97363 0.73364 0.44737 0.0
H648 H 0.99778 0.70838 0.46807 0.0
H649 H 0.05123 0.70925 0.54216 0.0
H650 H 0.06897 0.73549 0.5733 0.0
H651 H 0.97284 0.73471 0.56266 0.0
H652 H 0.96973 0.79558 0.57535 0.0
H653 H 0.06728 0.7501 0.45142 0.0
H654 H 0.06144 0.81103 0.45969 0.0
C655 C 0.28826 0.98728 0.55765 0.0
C656 C 0.30553 0.98049 0.56844 0.0
C657 C 0.31954 0.99113 0.55901 0.0
C658 C 0.31007 0.00379 0.54313 0.0
N659 N 0.29086 0.00184 0.54172 0.0
Co660 Co 0.27171 0.01799 0.52185 0.0
N661 N 0.29235 0.03305 0.50711 0.0
C662 C 0.31134 0.0297 0.51006 0.0
C663 C 0.32202 0.04168 0.49659 0.0
C664 C 0.30909 0.05342 0.4843 0.0
C665 C 0.29119 0.04804 0.49126 0.0
N666 N 0.25254 0.03495 0.50335 0.0
C667 C 0.25513 0.05063 0.48941 0.0
C668 C 0.23784 0.05928 0.48212 0.0
C669 C 0.22386 0.04858 0.49146 0.0
C670 C 0.23333 0.03421 0.50416 0.0
N671 N 0.25104 0.00215 0.53524 0.0
C672 C 0.232 0.00388 0.52958 0.0
C673 C 0.22132 0.99053 0.5407 0.0
C674 C 0.23429 0.97947 0.55413 0.0
C675 C 0.25222 0.98681 0.55046 0.0
N676 N 0.27177 0.03588 0.55247 0.0
C677 C 0.27097 0.06318 0.59364 0.0
C678 C 0.25459 0.05296 0.58478 0.0
C679 C 0.25526 0.03957 0.56429 0.0
C680 C 0.28794 0.05919 0.58206 0.0
C681 C 0.28808 0.04538 0.56184 0.0
N682 N 0.27157 0.00012 0.49115 0.0
C683 C 0.2545 0.98446 0.45397 0.0
C684 C 0.27053 0.97361 0.44881 0.0
C685 C 0.28722 0.97645 0.4649 0.0
C686 C 0.28749 0.98982 0.48567 0.0
C687 C 0.25529 0.99744 0.47508 0.0
H688 H 0.3007 0.99143 0.49711 0.0
H689 H 0.24241 0.00491 0.47816 0.0
H690 H 0.24212 0.03266 0.55812 0.0
H691 H 0.30149 0.04279 0.55393 0.0
C692 C 0.31878 0.01646 0.52753 0.0
C693 C 0.26987 0.979 0.5624 0.0
C694 C 0.2736 0.05792 0.48282 0.0
C695 C 0.22458 0.01927 0.51583 0.0
H696 H 0.30777 0.96884 0.58145 0.0
H697 H 0.33482 0.98953 0.56279 0.0
H698 H 0.33742 0.04211 0.49624 0.0
H699 H 0.31249 0.06483 0.4719 0.0
H700 H 0.23548 0.07204 0.47126 0.0
H701 H 0.2086 0.05097 0.4892 0.0
H702 H 0.20591 0.98925 0.53964 0.0
H703 H 0.23092 0.96753 0.56564 0.0
H704 H 0.24107 0.05572 0.59305 0.0
H705 H 0.30102 0.06668 0.58857 0.0
H706 H 0.24116 0.98256 0.4422 0.0
H707 H 0.30004 0.96843 0.46145 0.0
C708 C 0.55091 0.78981 0.05257 0.0
C709 C 0.55825 0.80724 0.06228 0.0
C710 C 0.5481 0.82101 0.04943 0.0
C711 C 0.53508 0.81126 0.03286 0.0
N712 N 0.53616 0.79208 0.03451 0.0
Co713 Co 0.51972 0.77253 0.01419 0.0
N714 N 0.50596 0.79271 0.99361 0.0
C715 C 0.50944 0.8117 0.9953 0.0
C716 C 0.49785 0.82197 0.9785 0.0
C717 C 0.48619 0.80878 0.96534 0.0
C718 C 0.49129 0.79117 0.97504 0.0
N719 N 0.50294 0.75298 0.99434 0.0
C720 C 0.4882 0.75524 0.97626 0.0
C721 C 0.47956 0.7379 0.96859 0.0
C722 C 0.48924 0.72421 0.98213 0.0
C723 C 0.50306 0.7339 0.9974 0.0
N724 N 0.53383 0.75229 0.03431 0.0
C725 C 0.53094 0.73322 0.03176 0.0
C726 C 0.54363 0.72278 0.04677 0.0
C727 C 0.55556 0.73592 0.05949 0.0
C728 C 0.5493 0.75374 0.05166 0.0
N729 N 0.50059 0.77476 0.04057 0.0
C730 C 0.47019 0.77749 0.07327 0.0
C731 C 0.47813 0.75983 0.06677 0.0
C732 C 0.49328 0.75883 0.05077 0.0
C733 C 0.47844 0.79384 0.06416 0.0
C734 C 0.49349 0.79216 0.04801 0.0
N735 N 0.53875 0.7703 0.98771 0.0
C736 C 0.55632 0.7509 0.95809 0.0
C737 C 0.5663 0.76682 0.95091 0.0
C738 C 0.5622 0.78456 0.96232 0.0
C739 C 0.54836 0.78599 0.98038 0.0
C740 C 0.54281 0.75292 0.97645 0.0
H741 H 0.54574 0.79993 0.9882 0.0
H742 H 0.53597 0.74017 0.98135 0.0
H743 H 0.49847 0.74493 0.04642 0.0
H744 H 0.49886 0.80513 0.04139 0.0
C745 C 0.52281 0.81959 0.01403 0.0
C746 C 0.55895 0.77155 0.06039 0.0
C747 C 0.48156 0.77346 0.96625 0.0
C748 C 0.51644 0.72547 0.01467 0.0
H749 H 0.57002 0.80972 0.07675 0.0
H750 H 0.5503 0.83628 0.05141 0.0
H751 H 0.49766 0.83727 0.97643 0.0
H752 H 0.47502 0.81181 0.9505 0.0
H753 H 0.46737 0.73536 0.95484 0.0
H754 H 0.48643 0.70902 0.98115 0.0
H755 H 0.54439 0.70742 0.0479 0.0
H756 H 0.56771 0.7326 0.07261 0.0
H757 H 0.47229 0.74667 0.07314 0.0
H758 H 0.47318 0.80791 0.06916 0.0
H759 H 0.5592 0.73681 0.94999 0.0
H760 H 0.56949 0.79732 0.95716 0.0
C761 C 0.25961 0.54678 0.06001 0.0
C762 C 0.24238 0.55355 0.06819 0.0
C763 C 0.22829 0.54345 0.05417 0.0
C764 C 0.23767 0.53119 0.03828 0.0
N765 N 0.25692 0.53256 0.04163 0.0
Co766 Co 0.2761 0.51823 0.02156 0.0
N767 N 0.25537 0.50515 0.9986 0.0
C768 C 0.23631 0.50774 0.9993 0.0
C769 C 0.2256 0.49597 0.98223 0.0
C770 C 0.23854 0.48497 0.97016 0.0
C771 C 0.25653 0.49078 0.98048 0.0
N772 N 0.2953 0.50384 0.0017 0.0
C773 C 0.2926 0.49004 0.98278 0.0
C774 C 0.30981 0.48366 0.97407 0.0
C775 C 0.32393 0.4933 0.98867 0.0
C776 C 0.31457 0.50506 0.00523 0.0
N777 N 0.29682 0.53139 0.04433 0.0
C778 C 0.3159 0.52892 0.04371 0.0
C779 C 0.32651 0.54057 0.06114 0.0
C780 C 0.31344 0.55143 0.07322 0.0
C781 C 0.29559 0.54575 0.06235 0.0
N782 N 0.27575 0.49697 0.04595 0.0
C783 C 0.27524 0.46495 0.07746 0.0
C784 C 0.29247 0.47292 0.07116 0.0
C785 C 0.29239 0.48878 0.05561 0.0
C786 C 0.25828 0.47362 0.0682 0.0
C787 C 0.25885 0.48947 0.05268 0.0
N788 N 0.27646 0.53942 0.99707 0.0
C789 C 0.29403 0.56049 0.97145 0.0
C790 C 0.27725 0.56963 0.96267 0.0
C791 C 0.26005 0.56351 0.9715 0.0
C792 C 0.25995 0.54838 0.98838 0.0
C793 C 0.29334 0.54571 0.98867 0.0
H794 H 0.24637 0.54421 0.99415 0.0
H795 H 0.3067 0.5397 0.99502 0.0
H796 H 0.30599 0.49393 0.05129 0.0
H797 H 0.24542 0.49525 0.0461 0.0
C798 C 0.22887 0.51974 0.01818 0.0
C799 C 0.27802 0.55539 0.06841 0.0
C800 C 0.27423 0.48142 0.97397 0.0
C801 C 0.32344 0.51671 0.0251 0.0
H802 H 0.24015 0.56508 0.08209 0.0
H803 H 0.21303 0.54545 0.05463 0.0
H804 H 0.21019 0.49486 0.97977 0.0
H805 H 0.23496 0.47353 0.95607 0.0
H806 H 0.31192 0.47269 0.95928 0.0
H807 H 0.3392 0.49153 0.98783 0.0
H808 H 0.34192 0.54158 0.06398 0.0
H809 H 0.31665 0.56271 0.08775 0.0
H810 H 0.30603 0.46667 0.07759 0.0
H811 H 0.24455 0.46822 0.07287 0.0
H812 H 0.30774 0.56497 0.96541 0.0
H813 H 0.24668 0.57016 0.9651 0.0
C814 C 0.48908 0.28219 0.97597 0.0
C815 C 0.48187 0.29943 0.96737 0.0
C816 C 0.49285 0.3134 0.98009 0.0
C817 C 0.50607 0.30388 0.99561 0.0
N818 N 0.50453 0.28467 0.99303 0.0
Co819 Co 0.51956 0.26522 0.0133 0.0
N820 N 0.53335 0.28563 0.03556 0.0
C821 C 0.53176 0.30474 0.03315 0.0
C822 C 0.54335 0.31516 0.05086 0.0
C823 C 0.55298 0.30197 0.06544 0.0
C824 C 0.54662 0.28415 0.05579 0.0
N825 N 0.53423 0.2457 0.03397 0.0
C826 C 0.54724 0.248 0.05456 0.0
C827 C 0.55377 0.23059 0.06353 0.0
C828 C 0.54469 0.21679 0.0479 0.0
C829 C 0.53311 0.22651 0.03044 0.0
N830 N 0.50587 0.24488 0.99076 0.0
C831 C 0.50892 0.22585 0.99108 0.0
C832 C 0.49646 0.21549 0.9744 0.0
C833 C 0.48446 0.22864 0.9632 0.0
C834 C 0.49037 0.24633 0.97371 0.0
N835 N 0.54021 0.26583 0.9888 0.0
C836 C 0.5715 0.26702 0.95746 0.0
C837 C 0.56465 0.2497 0.96553 0.0
C838 C 0.54913 0.24944 0.98095 0.0
C839 C 0.56199 0.28366 0.96462 0.0
C840 C 0.54653 0.28274 0.98003 0.0
N841 N 0.4991 0.26464 0.03764 0.0
C842 C 0.4757 0.2471 0.05926 0.0
C843 C 0.46839 0.26402 0.06961 0.0
C844 C 0.47697 0.28121 0.06416 0.0
C845 C 0.49213 0.28121 0.04815 0.0
C846 C 0.49107 0.24772 0.04364 0.0
H847 H 0.49781 0.2948 0.04417 0.0
H848 H 0.49609 0.23436 0.03635 0.0
H849 H 0.54483 0.23577 0.98647 0.0
H850 H 0.54021 0.296 0.98488 0.0
C851 C 0.51886 0.31248 0.01451 0.0
C852 C 0.47989 0.26394 0.96899 0.0
C853 C 0.55394 0.26628 0.06615 0.0
C854 C 0.5214 0.21804 0.01015 0.0
H855 H 0.4695 0.30163 0.95404 0.0
H856 H 0.49087 0.32866 0.97907 0.0
H857 H 0.54461 0.33053 0.05296 0.0
H858 H 0.56358 0.30513 0.08129 0.0
H859 H 0.5641 0.22812 0.07964 0.0
H860 H 0.5464 0.2015 0.04903 0.0
H861 H 0.49542 0.20012 0.97194 0.0
H862 H 0.47223 0.22542 0.94979 0.0
H863 H 0.57124 0.23633 0.96006 0.0
H864 H 0.56678 0.2975 0.95906 0.0
H865 H 0.46962 0.23342 0.06325 0.0
H866 H 0.47167 0.29469 0.0716 0.0
C867 C 0.75201 0.54456 0.06832 0.0
C868 C 0.73427 0.55032 0.07586 0.0
C869 C 0.72095 0.54005 0.06063 0.0
C870 C 0.73124 0.52864 0.04473 0.0
N871 N 0.75038 0.53081 0.04915 0.0
Co872 Co 0.77067 0.51725 0.03021 0.0
N873 N 0.75109 0.50451 0.00514 0.0
C874 C 0.73201 0.50752 0.00358 0.0
C875 C 0.72228 0.49718 0.98383 0.0
C876 C 0.73593 0.48674 0.97229 0.0
C877 C 0.75324 0.49118 0.98595 0.0
N878 N 0.79088 0.50293 0.01204 0.0
C879 C 0.78915 0.4887 0.99345 0.0
C880 C 0.80684 0.48118 0.98828 0.0
C881 C 0.82017 0.49096 0.00408 0.0
C882 C 0.80995 0.5037 0.01818 0.0
N883 N 0.79024 0.53079 0.0545 0.0
C884 C 0.80943 0.52908 0.05472 0.0
C885 C 0.81924 0.54124 0.07234 0.0
C886 C 0.80548 0.55168 0.08364 0.0
C887 C 0.78805 0.54523 0.07219 0.0
N888 N 0.7694 0.49582 0.05398 0.0
C889 C 0.76751 0.46409 0.0854 0.0
C890 C 0.78472 0.47379 0.08383 0.0
C891 C 0.78536 0.48948 0.06801 0.0
C892 C 0.75123 0.47077 0.07151 0.0
C893 C 0.75246 0.48655 0.05619 0.0
N894 N 0.77189 0.53868 0.00646 0.0
C895 C 0.78989 0.55993 0.9816 0.0
C896 C 0.77346 0.57046 0.97517 0.0
C897 C 0.75624 0.56461 0.98409 0.0
C898 C 0.75575 0.54876 0.99936 0.0
C899 C 0.78883 0.54424 0.99738 0.0
H900 H 0.74211 0.54506 0.00531 0.0
H901 H 0.80188 0.53698 0.00218 0.0
H902 H 0.79895 0.4961 0.06724 0.0
H903 H 0.73949 0.49085 0.04619 0.0
C904 C 0.72347 0.51824 0.02288 0.0
C905 C 0.76988 0.55376 0.07808 0.0
C906 C 0.77105 0.48132 0.9812 0.0
C907 C 0.81777 0.51621 0.03776 0.0
H908 H 0.73122 0.56138 0.09008 0.0
H909 H 0.70558 0.54156 0.06016 0.0
H910 H 0.707 0.49666 0.97908 0.0
H911 H 0.73336 0.47651 0.95623 0.0
H912 H 0.8099 0.46953 0.97496 0.0
H913 H 0.83546 0.4887 0.00562 0.0
H914 H 0.83456 0.54264 0.07609 0.0
H915 H 0.80796 0.56303 0.09827 0.0
H916 H 0.7977 0.46908 0.0943 0.0
H917 H 0.73749 0.46394 0.07258 0.0
H918 H 0.80354 0.56401 0.97497 0.0
H919 H 0.74308 0.57216 0.9791 0.0
H920 H 0.16615 0.24764 0.36338 0.0
H921 H 0.11145 0.28927 0.48357 0.0
H922 H 0.19492 0.27084 0.43434 0.0
H923 H 0.08385 0.25568 0.4199 0.0
H924 H 0.14169 0.28625 0.4632 0.0
H925 H 0.13548 0.2538 0.38145 0.0
C926 C 0.16606 0.25402 0.38275 0.0
C927 C 0.18323 0.2586 0.39738 0.0
C928 C 0.12901 0.2796 0.45363 0.0
C929 C 0.14806 0.26593 0.41806 0.0
C930 C 0.11171 0.28143 0.46515 0.0
C931 C 0.0951 0.27266 0.45345 0.0
C932 C 0.12972 0.26901 0.43013 0.0
C933 C 0.09635 0.26247 0.42976 0.0
C934 C 0.14851 0.2576 0.39301 0.0
C935 C 0.18211 0.26724 0.42218 0.0
N936 N 0.11336 0.26091 0.41889 0.0
N937 N 0.16486 0.27055 0.43174 0.0
H938 H 0.76519 0.19269 0.45082 0.0
H939 H 0.79514 0.08455 0.43401 0.0
H940 H 0.78691 0.17066 0.37961 0.0
H941 H 0.75078 0.10298 0.48258 0.0
H942 H 0.79525 0.11646 0.41591 0.0
H943 H 0.76243 0.16022 0.46495 0.0
C944 C 0.76915 0.18109 0.43792 0.0
C945 C 0.77623 0.18459 0.41384 0.0
C946 C 0.78538 0.1134 0.43034 0.0
C947 C 0.77366 0.14724 0.4305 0.0
C948 C 0.78538 0.0953 0.44072 0.0
C949 C 0.77289 0.0912 0.45971 0.0
C950 C 0.77312 0.12752 0.43951 0.0
C951 C 0.76048 0.10554 0.46776 0.0
C952 C 0.76768 0.16252 0.44615 0.0
C953 C 0.78167 0.1688 0.39849 0.0
N954 N 0.76104 0.12313 0.45781 0.0
N955 N 0.78041 0.15082 0.40718 0.0
H956 H 0.85873 0.75707 0.42427 0.0
H957 H 0.96941 0.78377 0.42022 0.0
H958 H 0.88002 0.79726 0.37205 0.0
H959 H 0.94673 0.75701 0.48493 0.0
H960 H 0.93717 0.78431 0.39834 0.0
H961 H 0.89136 0.75279 0.44326 0.0
C962 C 0.8702 0.76499 0.41676 0.0
C963 C 0.8665 0.7776 0.3965 0.0
C964 C 0.93923 0.77823 0.41727 0.0
C965 C 0.90395 0.77247 0.41791 0.0
C966 C 0.95757 0.77789 0.42964 0.0
C967 C 0.96049 0.77055 0.4544 0.0
C968 C 0.92378 0.77098 0.42969 0.0
C969 C 0.94488 0.7629 0.46586 0.0
C970 C 0.88884 0.76245 0.42754 0.0
C971 C 0.8821 0.78716 0.3873 0.0
N972 N 0.92712 0.76338 0.45346 0.0
N973 N 0.90007 0.78442 0.39808 0.0
H974 H 0.2553 0.8652 0.36769 0.0
H975 H 0.25494 0.97698 0.39918 0.0
H976 H 0.237 0.90649 0.31123 0.0
H977 H 0.28317 0.93673 0.45004 0.0
H978 H 0.24969 0.95152 0.36585 0.0
H979 H 0.26732 0.89117 0.39711 0.0
C980 C 0.25408 0.87969 0.36126 0.0
C981 C 0.24495 0.88363 0.33696 0.0
C982 C 0.25723 0.94827 0.38418 0.0
C983 C 0.25836 0.91351 0.37089 0.0
C984 C 0.26016 0.96279 0.40322 0.0
C985 C 0.26935 0.95889 0.42745 0.0
C986 C 0.26332 0.92966 0.3895 0.0
C987 C 0.27607 0.94033 0.43158 0.0
C988 C 0.26086 0.89454 0.37817 0.0
C989 C 0.24355 0.90277 0.32996 0.0
N990 N 0.27271 0.92634 0.41291 0.0
N991 N 0.25 0.91698 0.34693 0.0
H992 H 0.17187 0.7744 0.635 0.0
H993 H 0.05817 0.78355 0.6155 0.0
H994 H 0.13898 0.81128 0.68341 0.0
H995 H 0.09313 0.76549 0.55418 0.0
H996 H 0.08715 0.78791 0.64486 0.0
H997 H 0.14249 0.76538 0.6092 0.0
C998 C 0.15852 0.78063 0.64026 0.0
C999 C 0.15804 0.79386 0.66131 0.0
C1000 C 0.08845 0.78284 0.62504 0.0
C1001 C 0.12426 0.78317 0.63209 0.0
C1002 C 0.07199 0.78031 0.60841 0.0
C1003 C 0.07344 0.77434 0.58249 0.0
C1004 C 0.10642 0.77909 0.6157 0.0
C1005 C 0.09154 0.77018 0.57408 0.0
C1006 C 0.14174 0.77536 0.62558 0.0
C1007 C 0.14014 0.80095 0.66755 0.0
N1008 N 0.10737 0.7727 0.59063 0.0
N1009 N 0.124 0.79557 0.65296 0.0
H1010 H 0.23662 0.13207 0.72358 0.0
H1011 H 0.28467 0.09968 0.59355 0.0
H1012 H 0.25198 0.17142 0.66635 0.0
H1013 H 0.25451 0.06149 0.63969 0.0
H1014 H 0.27899 0.12585 0.62481 0.0
H1015 H 0.24909 0.10587 0.69746 0.0
C1016 C 0.24264 0.13523 0.70555 0.0
C1017 C 0.24296 0.15399 0.69698 0.0
C1018 C 0.2738 0.11169 0.62821 0.0
C1019 C 0.25755 0.12403 0.66718 0.0
C1020 C 0.27715 0.09675 0.61051 0.0
C1021 C 0.2699 0.07847 0.61399 0.0
C1022 C 0.26328 0.10823 0.64961 0.0
C1023 C 0.26012 0.07545 0.63615 0.0
C1024 C 0.24986 0.12027 0.69073 0.0
C1025 C 0.25147 0.15724 0.6738 0.0
N1026 N 0.25702 0.0902 0.65306 0.0
N1027 N 0.2583 0.14238 0.65961 0.0
H1028 H 0.85173 0.29038 0.61561 0.0
H1029 H 0.95822 0.25139 0.60443 0.0
H1030 H 0.87722 0.24597 0.66218 0.0
H1031 H 0.93405 0.29679 0.55855 0.0
H1032 H 0.92885 0.25008 0.62673 0.0
H1033 H 0.88192 0.29382 0.59537 0.0
C1034 C 0.86366 0.28138 0.62163 0.0
C1035 C 0.86189 0.26787 0.64067 0.0
C1036 C 0.92996 0.26039 0.61185 0.0
C1037 C 0.89652 0.27178 0.61763 0.0
C1038 C 0.94671 0.26107 0.59901 0.0
C1039 C 0.94858 0.27414 0.57948 0.0
C1040 C 0.91485 0.27281 0.60509 0.0
C1041 C 0.9333 0.28658 0.57362 0.0
C1042 C 0.88092 0.28341 0.61014 0.0
C1043 C 0.87794 0.25677 0.64789 0.0
N1044 N 0.91704 0.28554 0.58627 0.0
N1045 N 0.8945 0.25891 0.6363 0.0
H1046 H 0.74498 0.85064 0.61752 0.0
H1047 H 0.79664 0.95242 0.6212 0.0
H1048 H 0.7964 0.86441 0.66557 0.0
H1049 H 0.74446 0.93862 0.57478 0.0
H1050 H 0.79566 0.92103 0.64014 0.0
H1051 H 0.7433 0.88366 0.60414 0.0
C1052 C 0.75588 0.86065 0.62533 0.0
C1053 C 0.77092 0.85475 0.64254 0.0
C1054 C 0.78434 0.92495 0.62597 0.0
C1055 C 0.76911 0.89257 0.62735 0.0
C1056 C 0.78495 0.94282 0.61507 0.0
C1057 C 0.77066 0.94814 0.5963 0.0
C1058 C 0.7694 0.91225 0.61792 0.0
C1059 C 0.75568 0.93524 0.58937 0.0
C1060 C 0.75488 0.87951 0.61777 0.0
C1061 C 0.78449 0.86837 0.65239 0.0
N1062 N 0.75553 0.91787 0.60003 0.0
N1063 N 0.78335 0.88661 0.64448 0.0
H1064 H 0.87793 0.7704 0.67607 0.0
H1065 H 0.93784 0.74298 0.55488 0.0
H1066 H 0.85225 0.75287 0.60037 0.0
H1067 H 0.95957 0.78155 0.61708 0.0
H1068 H 0.90779 0.74074 0.57558 0.0
H1069 H 0.90934 0.76928 0.65848 0.0
C1070 C 0.8788 0.76628 0.65583 0.0
C1071 C 0.86224 0.76179 0.63974 0.0
C1072 C 0.91917 0.7496 0.58478 0.0
C1073 C 0.89825 0.76007 0.61975 0.0
C1074 C 0.93636 0.75078 0.5731 0.0
C1075 C 0.95118 0.76248 0.5843 0.0
C1076 C 0.91683 0.76005 0.60799 0.0
C1077 C 0.94841 0.77249 0.60773 0.0
C1078 C 0.89677 0.76557 0.64587 0.0
C1079 C 0.86448 0.75613 0.61377 0.0
N1080 N 0.93153 0.77104 0.61885 0.0
N1081 N 0.8821 0.75545 0.60464 0.0
H1082 H 0.25654 0.90692 0.69193 0.0
H1083 H 0.26579 0.94149 0.54749 0.0
H1084 H 0.25379 0.86872 0.62439 0.0
H1085 H 0.27171 0.97917 0.61522 0.0
H1086 H 0.26262 0.91436 0.57551 0.0
H1087 H 0.26334 0.93334 0.66449 0.0
C1088 C 0.25742 0.90407 0.67133 0.0
C1089 C 0.2545 0.88556 0.66046 0.0
C1090 C 0.26473 0.92852 0.58432 0.0
C1091 C 0.26233 0.91578 0.62887 0.0
C1092 C 0.26654 0.94393 0.56834 0.0
C1093 C 0.269 0.9624 0.57924 0.0
C1094 C 0.26528 0.9317 0.61138 0.0
C1095 C 0.26984 0.96503 0.60625 0.0
C1096 C 0.26138 0.91916 0.65568 0.0
C1097 C 0.25611 0.8827 0.63369 0.0
N1098 N 0.2679 0.94984 0.62144 0.0
N1099 N 0.25977 0.89765 0.61881 0.0
H1100 H 0.1285 0.25851 0.70875 0.0
H1101 H 0.09 0.25879 0.55896 0.0
H1102 H 0.15979 0.2354 0.64604 0.0
H1103 H 0.05534 0.27457 0.62156 0.0
H1104 H 0.11699 0.25318 0.5906 0.0
H1105 H 0.10267 0.26736 0.67714 0.0
C1106 C 0.12997 0.2553 0.68836 0.0
C1107 C 0.14637 0.24612 0.68011 0.0
C1108 C 0.10354 0.25796 0.59748 0.0
C1109 C 0.1169 0.2564 0.64379 0.0
C1110 C 0.08822 0.26118 0.57945 0.0
C1111 C 0.07061 0.26714 0.58786 0.0
C1112 C 0.10118 0.26072 0.62411 0.0
C1113 C 0.06881 0.27003 0.61449 0.0
C1114 C 0.11524 0.26044 0.67032 0.0
C1115 C 0.14758 0.24266 0.65336 0.0
N1116 N 0.08393 0.26675 0.63174 0.0
N1117 N 0.13304 0.24773 0.63621 0.0
H1118 H 0.75611 0.16145 0.6648 0.0
H1119 H 0.79085 0.08919 0.55624 0.0
H1120 H 0.80849 0.1699 0.62819 0.0
H1121 H 0.76013 0.06937 0.61914 0.0
H1122 H 0.79362 0.12084 0.57812 0.0
H1123 H 0.75344 0.12927 0.64413 0.0
C1124 C 0.76704 0.15648 0.65246 0.0
C1125 C 0.7826 0.16822 0.64825 0.0
C1126 C 0.78622 0.10958 0.58708 0.0
C1127 C 0.77945 0.13184 0.6243 0.0
C1128 C 0.7846 0.09161 0.57461 0.0
C1129 C 0.77507 0.07682 0.58583 0.0
C1130 C 0.778 0.11285 0.61076 0.0
C1131 C 0.76729 0.08055 0.6097 0.0
C1132 C 0.76554 0.13818 0.64078 0.0
C1133 C 0.79639 0.16118 0.6321 0.0
N1134 N 0.76877 0.09828 0.62132 0.0
N1135 N 0.7944 0.14352 0.62051 0.0
H1136 H 0.87679 0.26053 0.38055 0.0
H1137 H 0.95535 0.29342 0.49093 0.0
H1138 H 0.86494 0.30122 0.44204 0.0
H1139 H 0.9701 0.27161 0.41609 0.0
H1140 H 0.92187 0.29553 0.47404 0.0
H1141 H 0.91083 0.2636 0.39341 0.0
C1142 C 0.88129 0.27034 0.39649 0.0
C1143 C 0.86784 0.28052 0.41032 0.0
C1144 C 0.93243 0.29041 0.46123 0.0
C1145 C 0.90687 0.28368 0.42554 0.0
C1146 C 0.95146 0.2892 0.47087 0.0
C1147 C 0.96527 0.28205 0.45491 0.0
C1148 C 0.9272 0.28423 0.43554 0.0
C1149 C 0.95969 0.27685 0.42905 0.0
C1150 C 0.90077 0.27199 0.4039 0.0
C1151 C 0.87467 0.29273 0.43114 0.0
N1152 N 0.941 0.2778 0.4202 0.0
N1153 N 0.89367 0.29381 0.43827 0.0
H1154 H 0.809 0.87288 0.41866 0.0
H1155 H 0.75856 0.9737 0.42977 0.0
H1156 H 0.7549 0.88305 0.37644 0.0
H1157 H 0.78958 0.94893 0.49522 0.0
H1158 H 0.7606 0.94306 0.40528 0.0
H1159 H 0.80614 0.90365 0.44218 0.0
C1160 C 0.79663 0.88173 0.41419 0.0
C1161 C 0.78218 0.87553 0.39561 0.0
C1162 C 0.76686 0.94436 0.42505 0.0
C1163 C 0.77888 0.91064 0.42223 0.0
C1164 C 0.76565 0.96174 0.43899 0.0
C1165 C 0.77371 0.96367 0.46458 0.0
C1166 C 0.7767 0.92907 0.43659 0.0
C1167 C 0.78313 0.94793 0.47554 0.0
C1168 C 0.79494 0.89916 0.42771 0.0
C1169 C 0.76631 0.88738 0.39069 0.0
N1170 N 0.78451 0.93133 0.46141 0.0
N1171 N 0.76513 0.90449 0.40381 0.0
H1172 H 0.13367 0.77856 0.31884 0.0
H1173 H 0.09648 0.80589 0.45776 0.0
H1174 H 0.16601 0.81268 0.37783 0.0
H1175 H 0.07058 0.76156 0.40673 0.0
H1176 H 0.12108 0.80991 0.42739 0.0
H1177 H 0.10945 0.77325 0.3496 0.0
C1178 C 0.13569 0.78487 0.33828 0.0
C1179 C 0.1519 0.79602 0.34582 0.0
C1180 C 0.11005 0.79926 0.42284 0.0
C1181 C 0.12425 0.79013 0.381 0.0
C1182 C 0.09593 0.79706 0.44009 0.0
C1183 C 0.08144 0.7834 0.43473 0.0
C1184 C 0.10961 0.78785 0.3999 0.0
C1185 C 0.08158 0.77216 0.4117 0.0
C1186 C 0.12191 0.78179 0.35584 0.0
C1187 C 0.15387 0.80378 0.37129 0.0
N1188 N 0.09539 0.7747 0.39506 0.0
N1189 N 0.14016 0.80079 0.38789 0.0
H1190 H 0.24862 0.14968 0.3789 0.0
H1191 H 0.28985 0.09186 0.49984 0.0
H1192 H 0.2957 0.17037 0.43097 0.0
H1193 H 0.25957 0.0644 0.43312 0.0
H1194 H 0.29053 0.12156 0.47628 0.0
H1195 H 0.25097 0.11889 0.39937 0.0
C1196 C 0.25964 0.14775 0.39436 0.0
C1197 C 0.27192 0.16284 0.40322 0.0
C1198 C 0.28382 0.10902 0.46672 0.0
C1199 C 0.27429 0.12762 0.42724 0.0
C1200 C 0.28343 0.09214 0.48015 0.0
C1201 C 0.27457 0.07581 0.46835 0.0
C1202 C 0.27505 0.10961 0.44145 0.0
C1203 C 0.26641 0.0768 0.44287 0.0
C1204 C 0.26086 0.13016 0.40616 0.0
C1205 C 0.28562 0.15941 0.42377 0.0
N1206 N 0.26668 0.09348 0.43031 0.0
N1207 N 0.28631 0.14227 0.4352 0.0
H1208 H 0.63105 0.73172 0.82159 0.0
H1209 H 0.60224 0.78236 0.95429 0.0
H1210 H 0.67241 0.75412 0.881 0.0
H1211 H 0.56406 0.74646 0.90466 0.0
H1212 H 0.62719 0.7769 0.92415 0.0
H1213 H 0.60546 0.74172 0.84853 0.0
C1214 C 0.63479 0.73876 0.84027 0.0
C1215 C 0.65399 0.74185 0.84913 0.0
C1216 C 0.61332 0.77031 0.91981 0.0
C1217 C 0.62466 0.75359 0.87992 0.0
C1218 C 0.59905 0.77351 0.9369 0.0
C1219 C 0.58111 0.76474 0.93202 0.0
C1220 C 0.60953 0.75842 0.89757 0.0
C1221 C 0.57779 0.75328 0.90932 0.0
C1222 C 0.62014 0.74453 0.85559 0.0
C1223 C 0.65786 0.75152 0.87324 0.0
N1224 N 0.59186 0.75043 0.89296 0.0
N1225 N 0.64334 0.75694 0.88785 0.0
H1226 H 0.28047 0.68127 0.89837 0.0
H1227 H 0.29563 0.57046 0.91803 0.0
H1228 H 0.29521 0.64226 0.8364 0.0
H1229 H 0.26043 0.60481 0.96624 0.0
H1230 H 0.2978 0.59722 0.88934 0.0
H1231 H 0.27469 0.65406 0.92478 0.0
C1232 C 0.28227 0.66704 0.89009 0.0
C1233 C 0.28845 0.6642 0.86499 0.0
C1234 C 0.28949 0.59887 0.90609 0.0
C1235 C 0.28232 0.63292 0.89563 0.0
C1236 C 0.28834 0.58365 0.92252 0.0
C1237 C 0.27786 0.58546 0.94454 0.0
C1238 C 0.28039 0.61616 0.91193 0.0
C1239 C 0.26855 0.60281 0.94936 0.0
C1240 C 0.27907 0.65149 0.90533 0.0
C1241 C 0.29089 0.6453 0.85575 0.0
N1242 N 0.27019 0.61757 0.93333 0.0
N1243 N 0.28799 0.63043 0.87113 0.0
H1244 H 0.35873 0.28511 0.95924 0.0
H1245 H 0.46263 0.25352 0.92132 0.0
H1246 H 0.36824 0.25252 0.88888 0.0
H1247 H 0.45057 0.27385 0.99796 0.0
H1248 H 0.42826 0.25401 0.90818 0.0
H1249 H 0.39243 0.28188 0.9732 0.0
C1250 C 0.36781 0.27704 0.94683 0.0
C1251 C 0.36051 0.26904 0.92281 0.0
C1252 C 0.43311 0.25823 0.92792 0.0
C1253 C 0.3994 0.2657 0.93851 0.0
C1254 C 0.45264 0.2579 0.93537 0.0
C1255 C 0.45921 0.26345 0.96075 0.0
C1256 C 0.42017 0.26442 0.94594 0.0
C1257 C 0.44591 0.26939 0.97823 0.0
C1258 C 0.38713 0.27533 0.95477 0.0
C1259 C 0.37321 0.25917 0.90737 0.0
N1260 N 0.427 0.26977 0.97049 0.0
N1261 N 0.39204 0.25786 0.91542 0.0
H1262 H 0.73355 0.37304 0.91093 0.0
H1263 H 0.7869 0.47247 0.93524 0.0
H1264 H 0.78868 0.38204 0.88181 0.0
H1265 H 0.75289 0.44866 0.9921 0.0
H1266 H 0.78457 0.4419 0.91016 0.0
H1267 H 0.73685 0.4036 0.93543 0.0
C1268 C 0.74628 0.38157 0.90955 0.0
C1269 C 0.76086 0.37511 0.89434 0.0
C1270 C 0.77773 0.44339 0.92821 0.0
C1271 C 0.76466 0.41002 0.9221 0.0
C1272 C 0.77909 0.46073 0.94249 0.0
C1273 C 0.77029 0.46289 0.96588 0.0
C1274 C 0.76702 0.42838 0.93706 0.0
C1275 C 0.75994 0.44747 0.97421 0.0
C1276 C 0.7482 0.3989 0.92363 0.0
C1277 C 0.77716 0.38657 0.8934 0.0
N1278 N 0.75847 0.4309 0.95972 0.0
N1279 N 0.77858 0.4036 0.90697 0.0
H1280 H 0.66381 0.27654 0.15164 0.0
H1281 H 0.55075 0.2751 0.11736 0.0
H1282 H 0.62269 0.29185 0.20683 0.0
H1283 H 0.59178 0.2591 0.06267 0.0
H1284 H 0.5768 0.27859 0.1516 0.0
H1285 H 0.63762 0.26701 0.12011 0.0
C1286 C 0.64929 0.27761 0.1573 0.0
C1287 C 0.64546 0.28514 0.1819 0.0
C1288 C 0.58013 0.27415 0.13219 0.0
C1289 C 0.61534 0.27458 0.14565 0.0
C1290 C 0.56529 0.27215 0.11276 0.0
C1291 C 0.56931 0.26687 0.0874 0.0
C1292 C 0.59908 0.27092 0.12607 0.0
C1293 C 0.58826 0.26321 0.08213 0.0
C1294 C 0.63432 0.2723 0.13919 0.0
C1295 C 0.62631 0.28644 0.18795 0.0
N1296 N 0.6025 0.26542 0.10129 0.0
N1297 N 0.61198 0.28135 0.16991 0.0
H1298 H 0.77007 0.67551 0.1102 0.0
H1299 H 0.76171 0.56282 0.12793 0.0
H1300 H 0.75471 0.65098 0.18106 0.0
H1301 H 0.7774 0.58785 0.05783 0.0
H1302 H 0.76023 0.59489 0.14854 0.0
H1303 H 0.77425 0.64349 0.09154 0.0
C1304 C 0.76779 0.66341 0.12199 0.0
C1305 C 0.76204 0.66602 0.14731 0.0
C1306 C 0.76406 0.5934 0.12868 0.0
C1307 C 0.76649 0.62913 0.12578 0.0
C1308 C 0.76489 0.57515 0.117 0.0
C1309 C 0.76956 0.5729 0.09123 0.0
C1310 C 0.76796 0.60944 0.11442 0.0
C1311 C 0.77369 0.58915 0.07776 0.0
C1312 C 0.77004 0.64508 0.11122 0.0
C1313 C 0.75892 0.6497 0.16138 0.0
N1314 N 0.77272 0.60676 0.08947 0.0
N1315 N 0.76115 0.63197 0.15041 0.0
H1316 H 0.37295 0.74305 0.15089 0.0
H1317 H 0.43991 0.80217 0.06701 0.0
H1318 H 0.35846 0.79961 0.12564 0.0
H1319 H 0.46052 0.75534 0.11318 0.0
H1320 H 0.41017 0.80179 0.08847 0.0
H1321 H 0.40513 0.74743 0.13761 0.0
C1322 C 0.37656 0.75655 0.14299 0.0
C1323 C 0.3628 0.77095 0.13932 0.0
C1324 C 0.42129 0.79174 0.0941 0.0
C1325 C 0.39969 0.7758 0.12333 0.0
C1326 C 0.43838 0.792 0.08195 0.0
C1327 C 0.4528 0.77865 0.08808 0.0
C1328 C 0.41844 0.77789 0.1123 0.0
C1329 C 0.4497 0.76563 0.10733 0.0
C1330 C 0.39497 0.75897 0.13523 0.0
C1331 C 0.36839 0.78793 0.12839 0.0
N1332 N 0.4328 0.76544 0.11853 0.0
N1333 N 0.38633 0.7898 0.12053 0.0
H1334 H 0.25197 0.35295 0.13393 0.0
H1335 H 0.29945 0.45552 0.11927 0.0
H1336 H 0.30416 0.37201 0.17651 0.0
H1337 H 0.2506 0.43441 0.07099 0.0
H1338 H 0.29984 0.42601 0.14287 0.0
H1339 H 0.24965 0.3837 0.11319 0.0
C1340 C 0.26293 0.36359 0.13898 0.0
C1341 C 0.27832 0.35979 0.15698 0.0
C1342 C 0.28899 0.42786 0.12717 0.0
C1343 C 0.27567 0.39514 0.13337 0.0
C1344 C 0.28881 0.44469 0.11358 0.0
C1345 C 0.27503 0.44748 0.09296 0.0
C1346 C 0.27529 0.41362 0.12017 0.0
C1347 C 0.26138 0.43303 0.08688 0.0
C1348 C 0.26155 0.38118 0.12718 0.0
C1349 C 0.2919 0.37431 0.16303 0.0
N1350 N 0.26191 0.41672 0.10033 0.0
N1351 N 0.2903 0.39126 0.15118 0.0
H1352 H 0.38775 0.28126 0.18764 0.0
H1353 H 0.43506 0.24413 0.05922 0.0
H1354 H 0.35515 0.25851 0.11925 0.0
H1355 H 0.46339 0.28352 0.11552 0.0
H1356 H 0.40687 0.24491 0.08439 0.0
H1357 H 0.41681 0.27815 0.16454 0.0
C1358 C 0.38663 0.27561 0.16782 0.0
C1359 C 0.36883 0.2702 0.15545 0.0
C1360 C 0.41928 0.25334 0.09128 0.0
C1361 C 0.40219 0.26629 0.12909 0.0
C1362 C 0.4354 0.2528 0.07703 0.0
C1363 C 0.45155 0.2638 0.0853 0.0
C1364 C 0.41938 0.2648 0.11413 0.0
C1365 C 0.45114 0.27497 0.10835 0.0
C1366 C 0.40327 0.27377 0.1547 0.0
C1367 C 0.36848 0.26259 0.12987 0.0
N1368 N 0.43532 0.27516 0.12201 0.0
N1369 N 0.38486 0.26088 0.11758 0.0
H1370 H 0.73023 0.35888 0.1455 0.0
H1371 H 0.78291 0.45913 0.13502 0.0
H1372 H 0.75881 0.38944 0.21129 0.0
H1373 H 0.74923 0.43046 0.07204 0.0
H1374 H 0.77802 0.43187 0.16213 0.0
H1375 H 0.74097 0.38304 0.11725 0.0
C1376 C 0.73901 0.37053 0.15399 0.0
C1377 C 0.74355 0.37216 0.18086 0.0
C1378 C 0.77182 0.43151 0.14231 0.0
C1379 C 0.75562 0.40015 0.14857 0.0
C1380 C 0.77469 0.447 0.12682 0.0
C1381 C 0.76626 0.44712 0.10138 0.0
C1382 C 0.76054 0.41604 0.13218 0.0
C1383 C 0.75567 0.43109 0.09172 0.0
C1384 C 0.74502 0.38442 0.13784 0.0
C1385 C 0.75472 0.38777 0.19074 0.0
N1386 N 0.75304 0.41627 0.10716 0.0
N1387 N 0.76029 0.40123 0.17461 0.0
H1388 H 0.67839 0.78257 0.11394 0.0
H1389 H 0.56674 0.75964 0.10983 0.0
H1390 H 0.65507 0.73998 0.16096 0.0
H1391 H 0.59353 0.78255 0.04546 0.0
H1392 H 0.59829 0.75728 0.13353 0.0
H1393 H 0.64651 0.78753 0.09311 0.0
C1394 C 0.66664 0.77421 0.1199 0.0
C1395 C 0.66959 0.76066 0.13913 0.0
C1396 C 0.59724 0.76287 0.11426 0.0
C1397 C 0.63291 0.76669 0.11569 0.0
C1398 C 0.57932 0.76422 0.10082 0.0
C1399 C 0.57773 0.77104 0.07565 0.0
C1400 C 0.61358 0.76875 0.10257 0.0
C1401 C 0.5943 0.77709 0.06481 0.0
C1402 C 0.64842 0.77715 0.10806 0.0
C1403 C 0.65357 0.75071 0.14647 0.0
N1404 N 0.61157 0.7758 0.07833 0.0
N1405 N 0.63595 0.75391 0.13472 0.0
H1406 H 0.26693 0.66132 0.15807 0.0
H1407 H 0.28861 0.5864 0.04336 0.0
H1408 H 0.29316 0.67623 0.0887 0.0
H1409 H 0.26973 0.56948 0.11642 0.0
H1410 H 0.28969 0.61965 0.0596 0.0
H1411 H 0.26723 0.62774 0.14333 0.0
C1412 C 0.27283 0.65755 0.13982 0.0
C1413 C 0.27989 0.67167 0.12451 0.0
C1414 C 0.28533 0.60871 0.07217 0.0
C1415 C 0.28012 0.63332 0.10744 0.0
C1416 C 0.28473 0.5898 0.06288 0.0
C1417 C 0.27894 0.57542 0.07859 0.0
C1418 C 0.28006 0.61324 0.09736 0.0
C1419 C 0.27409 0.58034 0.10375 0.0
C1420 C 0.27292 0.63838 0.13137 0.0
C1421 C 0.28719 0.66593 0.10091 0.0
N1422 N 0.27467 0.59891 0.11237 0.0
N1423 N 0.28706 0.64724 0.0931 0.0
H1424 H 0.39785 0.7397 0.84418 0.0
H1425 H 0.44617 0.78709 0.97511 0.0
H1426 H 0.36727 0.77764 0.89408 0.0
H1427 H 0.47816 0.76046 0.91582 0.0
H1428 H 0.41706 0.78441 0.94571 0.0
H1429 H 0.42737 0.74763 0.86993 0.0
C1430 C 0.39732 0.74993 0.8603 0.0
C1431 C 0.37991 0.758 0.86686 0.0
C1432 C 0.43047 0.77935 0.939 0.0
C1433 C 0.41385 0.7668 0.89698 0.0
C1434 C 0.44701 0.78092 0.95572 0.0
C1435 C 0.46438 0.77388 0.94774 0.0
C1436 C 0.43138 0.7705 0.91428 0.0
C1437 C 0.46492 0.76595 0.92257 0.0
C1438 C 0.41424 0.75436 0.87514 0.0
C1439 C 0.38023 0.77081 0.88847 0.0
N1440 N 0.4486 0.76429 0.9068 0.0
N1441 N 0.39689 0.7747 0.90286 0.0
H1442 H 0.30516 0.36663 0.93033 0.0
H1443 H 0.25981 0.46962 0.92509 0.0
H1444 H 0.24933 0.3742 0.89153 0.0
H1445 H 0.28869 0.4492 0.99511 0.0
H1446 H 0.26024 0.43697 0.90578 0.0
H1447 H 0.30434 0.39975 0.94732 0.0
C1448 C 0.29286 0.37542 0.92515 0.0
C1449 C 0.27729 0.36787 0.90957 0.0
C1450 C 0.26638 0.43972 0.9254 0.0
C1451 C 0.27634 0.4055 0.9286 0.0
C1452 C 0.26606 0.4582 0.93641 0.0
C1453 C 0.27391 0.46189 0.96183 0.0
C1454 C 0.27522 0.42511 0.93966 0.0
C1455 C 0.28238 0.44682 0.9755 0.0
C1456 C 0.29235 0.39417 0.93493 0.0
C1457 C 0.26157 0.37964 0.90353 0.0
N1458 N 0.28296 0.42909 0.96417 0.0
N1459 N 0.26151 0.39802 0.91296 0.0
H1460 H 0.68562 0.25346 0.90642 0.0
H1461 H 0.57833 0.29018 0.91739 0.0
H1462 H 0.66165 0.30143 0.86553 0.0
H1463 H 0.60428 0.24582 0.96365 0.0
H1464 H 0.60776 0.29266 0.89529 0.0
H1465 H 0.65493 0.24855 0.92454 0.0
C1466 C 0.6739 0.26295 0.90121 0.0
C1467 C 0.67631 0.27797 0.88454 0.0
C1468 C 0.60697 0.28232 0.91018 0.0
C1469 C 0.64101 0.27234 0.90513 0.0
C1470 C 0.5902 0.28095 0.92292 0.0
C1471 C 0.58881 0.26784 0.94256 0.0
C1472 C 0.62254 0.2705 0.9171 0.0
C1473 C 0.60457 0.256 0.94848 0.0
C1474 C 0.65635 0.26009 0.91149 0.0
C1475 C 0.66046 0.28957 0.8781 0.0
N1476 N 0.62077 0.25768 0.93592 0.0
N1477 N 0.64354 0.28658 0.88852 0.0
H1478 H 0.7683 0.64047 0.84198 0.0
H1479 H 0.75843 0.60547 0.98511 0.0
H1480 H 0.74191 0.6734 0.90172 0.0
H1481 H 0.78914 0.57377 0.92859 0.0
H1482 H 0.75519 0.63195 0.95589 0.0
H1483 H 0.77873 0.61718 0.87413 0.0
C1484 C 0.76482 0.64287 0.86188 0.0
C1485 C 0.75409 0.65884 0.86912 0.0
C1486 C 0.76283 0.61932 0.9499 0.0
C1487 C 0.76602 0.63232 0.90598 0.0
C1488 C 0.76464 0.6042 0.96657 0.0
C1489 C 0.77386 0.58739 0.95905 0.0
C1490 C 0.77008 0.61754 0.92535 0.0
C1491 C 0.78191 0.58652 0.93503 0.0
C1492 C 0.77086 0.62963 0.88024 0.0
C1493 C 0.75026 0.66139 0.89526 0.0
N1494 N 0.7796 0.60131 0.91883 0.0
N1495 N 0.75605 0.64819 0.91265 0.0
loop_
_geom_bond_atom_site_label_1
_geom_bond_atom_site_label_2
_geom_bond_distance
_geom_bond_site_symmetry_2
_ccdc_geom_bond_type
H0 C27 0.929 . S
N1 C26 1.433 . S
N1 C32 1.435 . S
N1 C38 1.423 . S
H2 C28 0.930 . S
H3 C31 0.931 . S
H4 C30 0.929 . S
H5 C33 0.930 . S
H6 C34 0.932 . S
H7 C37 0.929 . S
H8 C36 0.931 . S
H9 C39 0.929 . S
H10 C43 0.932 . S
H11 C40 0.931 . S
H12 C42 0.929 . S
H13 C45 0.929 . S
H14 C46 0.930 . S
H15 C48 0.929 . S
H16 C49 0.931 . S
H17 C51 0.930 . S
H18 C52 0.932 . S
H19 C54 0.931 . S
H20 C55 0.929 . S
H21 C57 0.929 . S
H22 C58 0.931 . S
H23 C60 0.929 . S
N24 C44 1.433 . S
N24 C50 1.435 . S
N24 C56 1.423 . S
H25 C61 0.932 . S
C26 N1 1.433 . S
C26 C27 1.363 . S
C26 C31 1.370 . S
C27 H0 0.929 . S
C27 C26 1.363 . S
C27 C28 1.385 . S
C28 H2 0.930 . S
C28 C27 1.385 . S
C28 C29 1.357 . S
C29 C28 1.357 . S
C29 C30 1.406 . S
C30 H4 0.929 . S
C30 C29 1.406 . S
C30 C31 1.391 . S
C31 H3 0.931 . S
C31 C26 1.370 . S
C31 C30 1.391 . S
C32 N1 1.435 . S
C32 C33 1.358 . S
C32 C37 1.371 . S
C33 H5 0.930 . S
C33 C32 1.358 . S
C33 C34 1.405 . S
C34 H6 0.932 . S
C34 C33 1.405 . S
C34 C35 1.383 . S
C35 C34 1.383 . S
C35 C36 1.393 . S
C36 H8 0.931 . S
C36 C35 1.393 . S
C36 C37 1.382 . S
C37 H7 0.929 . S
C37 C32 1.371 . S
C37 C36 1.382 . S
C38 N1 1.423 . S
C38 C39 1.362 . S
C38 C43 1.388 . S
C39 H9 0.929 . S
C39 C38 1.362 . S
C39 C40 1.376 . S
C40 H11 0.931 . S
C40 C39 1.376 . S
C40 C41 1.396 . S
C41 C40 1.396 . S
C41 C42 1.348 . S
C41 C59 1.472 . S
C42 H12 0.929 . S
C42 C41 1.348 . S
C42 C43 1.443 . S
C43 H10 0.932 . S
C43 C38 1.388 . S
C43 C42 1.443 . S
C44 N24 1.433 . S
C44 C45 1.363 . S
C44 C49 1.370 . S
C45 H13 0.929 . S
C45 C44 1.363 . S
C45 C46 1.385 . S
C46 H14 0.930 . S
C46 C45 1.385 . S
C46 C47 1.357 . S
C47 C46 1.357 . S
C47 C48 1.406 . S
C48 H15 0.929 . S
C48 C47 1.406 . S
C48 C49 1.391 . S
C49 H16 0.931 . S
C49 C44 1.370 . S
C49 C48 1.391 . S
C50 N24 1.435 . S
C50 C51 1.358 . S
C50 C55 1.371 . S
C51 H17 0.930 . S
C51 C50 1.358 . S
C51 C52 1.405 . S
C52 H18 0.932 . S
C52 C51 1.405 . S
C52 C53 1.383 . S
C53 C52 1.383 . S
C53 C54 1.393 . S
C54 H19 0.931 . S
C54 C53 1.393 . S
C54 C55 1.382 . S
C55 H20 0.929 . S
C55 C50 1.371 . S
C55 C54 1.382 . S
C56 N24 1.423 . S
C56 C57 1.362 . S
C56 C61 1.388 . S
C57 H21 0.929 . S
C57 C56 1.362 . S
C57 C58 1.376 . S
C58 H22 0.931 . S
C58 C57 1.376 . S
C58 C59 1.396 . S
C59 C41 1.472 . S
C59 C58 1.396 . S
C59 C60 1.348 . S
C60 H23 0.929 . S
C60 C59 1.348 . S
C60 C61 1.443 . S
C61 H25 0.932 . S
C61 C56 1.388 . S
C61 C60 1.443 . S
H62 C89 0.929 . S
N63 C88 1.433 . S
N63 C94 1.435 . S
N63 C100 1.423 . S
H64 C90 0.930 . S
H65 C93 0.931 . S
H66 C92 0.929 . S
H67 C95 0.930 . S
H68 C96 0.932 . S
H69 C99 0.929 . S
H70 C98 0.931 . S
H71 C101 0.929 . S
H72 C105 0.932 . S
H73 C102 0.931 . S
H74 C104 0.929 . S
H75 C107 0.929 . S
H76 C108 0.930 . S
H77 C110 0.929 . S
H78 C111 0.931 . S
H79 C113 0.930 . S
H80 C114 0.932 . S
H81 C116 0.931 . S
H82 C117 0.929 . S
H83 C119 0.929 . S
H84 C120 0.931 . S
H85 C122 0.929 . S
N86 C106 1.433 . S
N86 C112 1.435 . S
N86 C118 1.423 . S
H87 C123 0.932 . S
C88 N63 1.433 . S
C88 C89 1.363 . S
C88 C93 1.370 . S
C89 H62 0.929 . S
C89 C88 1.363 . S
C89 C90 1.385 . S
C90 H64 0.930 . S
C90 C89 1.385 . S
C90 C91 1.357 . S
C91 C90 1.357 . S
C91 C92 1.406 . S
C92 H66 0.929 . S
C92 C91 1.406 . S
C92 C93 1.391 . S
C93 H65 0.931 . S
C93 C88 1.370 . S
C93 C92 1.391 . S
C94 N63 1.435 . S
C94 C95 1.358 . S
C94 C99 1.371 . S
C95 H67 0.930 . S
C95 C94 1.358 . S
C95 C96 1.405 . S
C96 H68 0.932 . S
C96 C95 1.405 . S
C96 C97 1.383 . S
C97 C96 1.383 . S
C97 C98 1.393 . S
C98 H70 0.931 . S
C98 C97 1.393 . S
C98 C99 1.382 . S
C99 H69 0.929 . S
C99 C94 1.371 . S
C99 C98 1.382 . S
C100 N63 1.423 . S
C100 C101 1.362 . S
C100 C105 1.388 . S
C101 H71 0.929 . S
C101 C100 1.362 . S
C101 C102 1.376 . S
C102 H73 0.931 . S
C102 C101 1.376 . S
C102 C103 1.396 . S
C103 C102 1.396 . S
C103 C104 1.348 . S
C103 C121 1.472 . S
C104 H74 0.929 . S
C104 C103 1.348 . S
C104 C105 1.443 . S
C105 H72 0.932 . S
C105 C100 1.388 . S
C105 C104 1.443 . S
C106 N86 1.433 . S
C106 C107 1.363 . S
C106 C111 1.370 . S
C107 H75 0.929 . S
C107 C106 1.363 . S
C107 C108 1.385 . S
C108 H76 0.930 . S
C108 C107 1.385 . S
C108 C109 1.357 . S
C109 C108 1.357 . S
C109 C110 1.406 . S
C110 H77 0.929 . S
C110 C109 1.406 . S
C110 C111 1.391 . S
C111 H78 0.931 . S
C111 C106 1.370 . S
C111 C110 1.391 . S
C112 N86 1.435 . S
C112 C113 1.358 . S
C112 C117 1.371 . S
C113 H79 0.930 . S
C113 C112 1.358 . S
C113 C114 1.405 . S
C114 H80 0.932 . S
C114 C113 1.405 . S
C114 C115 1.383 . S
C115 C114 1.383 . S
C115 C116 1.393 . S
C116 H81 0.931 . S
C116 C115 1.393 . S
C116 C117 1.382 . S
C117 H82 0.929 . S
C117 C112 1.371 . S
C117 C116 1.382 . S
C118 N86 1.423 . S
C118 C119 1.362 . S
C118 C123 1.388 . S
C119 H83 0.929 . S
C119 C118 1.362 . S
C119 C120 1.376 . S
C120 H84 0.931 . S
C120 C119 1.376 . S
C120 C121 1.396 . S
C121 C103 1.472 . S
C121 C120 1.396 . S
C121 C122 1.348 . S
C122 H85 0.929 . S
C122 C121 1.348 . S
C122 C123 1.443 . S
C123 H87 0.932 . S
C123 C118 1.388 . S
C123 C122 1.443 . S
H124 C151 0.929 . S
N125 C150 1.433 . S
N125 C156 1.435 . S
N125 C162 1.423 . S
H126 C152 0.930 . S
H127 C155 0.931 . S
H128 C154 0.929 . S
H129 C157 0.930 . S
H130 C158 0.932 . S
H131 C161 0.929 . S
H132 C160 0.931 . S
H133 C163 0.929 . S
H134 C167 0.932 . S
H135 C164 0.931 . S
H136 C166 0.929 . S
H137 C169 0.929 . S
H138 C170 0.930 . S
H139 C172 0.929 . S
H140 C173 0.931 . S
H141 C175 0.930 . S
H142 C176 0.932 . S
H143 C178 0.931 . S
H144 C179 0.929 . S
H145 C181 0.929 . S
H146 C182 0.931 . S
H147 C184 0.929 . S
N148 C168 1.433 . S
N148 C174 1.435 . S
N148 C180 1.423 . S
H149 C185 0.932 . S
C150 N125 1.433 . S
C150 C151 1.363 . S
C150 C155 1.370 . S
C151 H124 0.929 . S
C151 C150 1.363 . S
C151 C152 1.385 . S
C152 H126 0.930 . S
C152 C151 1.385 . S
C152 C153 1.357 . S
C153 C152 1.357 . S
C153 C154 1.406 . S
C154 H128 0.929 . S
C154 C153 1.406 . S
C154 C155 1.391 . S
C155 H127 0.931 . S
C155 C150 1.370 . S
C155 C154 1.391 . S
C156 N125 1.435 . S
C156 C157 1.358 . S
C156 C161 1.371 . S
C157 H129 0.930 . S
C157 C156 1.358 . S
C157 C158 1.405 . S
C158 H130 0.932 . S
C158 C157 1.405 . S
C158 C159 1.383 . S
C159 C158 1.383 . S
C159 C160 1.393 . S
C160 H132 0.931 . S
C160 C159 1.393 . S
C160 C161 1.382 . S
C161 H131 0.929 . S
C161 C156 1.371 . S
C161 C160 1.382 . S
C162 N125 1.423 . S
C162 C163 1.362 . S
C162 C167 1.388 . S
C163 H133 0.929 . S
C163 C162 1.362 . S
C163 C164 1.376 . S
C164 H135 0.931 . S
C164 C163 1.376 . S
C164 C165 1.396 . S
C165 C164 1.396 . S
C165 C166 1.348 . S
C165 C183 1.472 . S
C166 H136 0.929 . S
C166 C165 1.348 . S
C166 C167 1.443 . S
C167 H134 0.932 . S
C167 C162 1.388 . S
C167 C166 1.443 . S
C168 N148 1.433 . S
C168 C169 1.363 . S
C168 C173 1.370 . S
C169 H137 0.929 . S
C169 C168 1.363 . S
C169 C170 1.385 . S
C170 H138 0.930 . S
C170 C169 1.385 . S
C170 C171 1.357 . S
C171 C170 1.357 . S
C171 C172 1.406 . S
C172 H139 0.929 . S
C172 C171 1.406 . S
C172 C173 1.391 . S
C173 H140 0.931 . S
C173 C168 1.370 . S
C173 C172 1.391 . S
C174 N148 1.435 . S
C174 C175 1.358 . S
C174 C179 1.371 . S
C175 H141 0.930 . S
C175 C174 1.358 . S
C175 C176 1.405 . S
C176 H142 0.932 . S
C176 C175 1.405 . S
C176 C177 1.383 . S
C177 C176 1.383 . S
C177 C178 1.393 . S
C178 H143 0.931 . S
C178 C177 1.393 . S
C178 C179 1.382 . S
C179 H144 0.929 . S
C179 C174 1.371 . S
C179 C178 1.382 . S
C180 N148 1.423 . S
C180 C181 1.362 . S
C180 C185 1.388 . S
C181 H145 0.929 . S
C181 C180 1.362 . S
C181 C182 1.376 . S
C182 H146 0.931 . S
C182 C181 1.376 . S
C182 C183 1.396 . S
C183 C165 1.472 . S
C183 C182 1.396 . S
C183 C184 1.348 . S
C184 H147 0.929 . S
C184 C183 1.348 . S
C184 C185 1.443 . S
C185 H149 0.932 . S
C185 C180 1.388 . S
C185 C184 1.443 . S
H186 C213 0.929 . S
N187 C212 1.433 . S
N187 C218 1.435 . S
N187 C224 1.423 . S
H188 C214 0.930 . S
H189 C217 0.931 . S
H190 C216 0.929 . S
H191 C219 0.930 . S
H192 C220 0.932 . S
H193 C223 0.929 . S
H194 C222 0.931 . S
H195 C225 0.929 . S
H196 C229 0.932 . S
H197 C226 0.931 . S
H198 C228 0.929 . S
H199 C231 0.929 . S
H200 C232 0.930 . S
H201 C234 0.929 . S
H202 C235 0.931 . S
H203 C237 0.930 . S
H204 C238 0.932 . S
H205 C240 0.931 . S
H206 C241 0.929 . S
H207 C243 0.929 . S
H208 C244 0.931 . S
H209 C246 0.929 . S
N210 C230 1.433 . S
N210 C236 1.435 . S
N210 C242 1.423 . S
H211 C247 0.932 . S
C212 N187 1.433 . S
C212 C213 1.363 . S
C212 C217 1.370 . S
C213 H186 0.929 . S
C213 C212 1.363 . S
C213 C214 1.385 . S
C214 H188 0.930 . S
C214 C213 1.385 . S
C214 C215 1.357 . S
C215 C214 1.357 . S
C215 C216 1.406 . S
C216 H190 0.929 . S
C216 C215 1.406 . S
C216 C217 1.391 . S
C217 H189 0.931 . S
C217 C212 1.370 . S
C217 C216 1.391 . S
C218 N187 1.435 . S
C218 C219 1.358 . S
C218 C223 1.371 . S
C219 H191 0.930 . S
C219 C218 1.358 . S
C219 C220 1.405 . S
C220 H192 0.932 . S
C220 C219 1.405 . S
C220 C221 1.383 . S
C221 C220 1.383 . S
C221 C222 1.393 . S
C222 H194 0.931 . S
C222 C221 1.393 . S
C222 C223 1.382 . S
C223 H193 0.929 . S
C223 C218 1.371 . S
C223 C222 1.382 . S
C224 N187 1.423 . S
C224 C225 1.362 . S
C224 C229 1.388 . S
C225 H195 0.929 . S
C225 C224 1.362 . S
C225 C226 1.376 . S
C226 H197 0.931 . S
C226 C225 1.376 . S
C226 C227 1.396 . S
C227 C226 1.396 . S
C227 C228 1.348 . S
C227 C245 1.472 . S
C228 H198 0.929 . S
C228 C227 1.348 . S
C228 C229 1.443 . S
C229 H196 0.932 . S
C229 C224 1.388 . S
C229 C228 1.443 . S
C230 N210 1.433 . S
C230 C231 1.363 . S
C230 C235 1.370 . S
C231 H199 0.929 . S
C231 C230 1.363 . S
C231 C232 1.385 . S
C232 H200 0.930 . S
C232 C231 1.385 . S
C232 C233 1.357 . S
C233 C232 1.357 . S
C233 C234 1.406 . S
C234 H201 0.929 . S
C234 C233 1.406 . S
C234 C235 1.391 . S
C235 H202 0.931 . S
C235 C230 1.370 . S
C235 C234 1.391 . S
C236 N210 1.435 . S
C236 C237 1.358 . S
C236 C241 1.371 . S
C237 H203 0.930 . S
C237 C236 1.358 . S
C237 C238 1.405 . S
C238 H204 0.932 . S
C238 C237 1.405 . S
C238 C239 1.383 . S
C239 C238 1.383 . S
C239 C240 1.393 . S
C240 H205 0.931 . S
C240 C239 1.393 . S
C240 C241 1.382 . S
C241 H206 0.929 . S
C241 C236 1.371 . S
C241 C240 1.382 . S
C242 N210 1.423 . S
C242 C243 1.362 . S
C242 C247 1.388 . S
C243 H207 0.929 . S
C243 C242 1.362 . S
C243 C244 1.376 . S
C244 H208 0.931 . S
C244 C243 1.376 . S
C244 C245 1.396 . S
C245 C227 1.472 . S
C245 C244 1.396 . S
C245 C246 1.348 . S
C246 H209 0.929 . S
C246 C245 1.348 . S
C246 C247 1.443 . S
C247 H211 0.932 . S
C247 C242 1.388 . S
C247 C246 1.443 . S
H248 C275 0.929 . S
N249 C274 1.433 . S
N249 C280 1.435 . S
N249 C286 1.423 . S
H250 C276 0.930 . S
H251 C279 0.931 . S
H252 C278 0.929 . S
H253 C281 0.930 . S
H254 C282 0.932 . S
H255 C285 0.929 . S
H256 C284 0.931 . S
H257 C287 0.929 . S
H258 C291 0.932 . S
H259 C288 0.931 . S
H260 C290 0.929 . S
H261 C293 0.929 . S
H262 C294 0.930 . S
H263 C296 0.929 . S
H264 C297 0.931 . S
H265 C299 0.930 . S
H266 C300 0.932 . S
H267 C302 0.931 . S
H268 C303 0.929 . S
H269 C305 0.929 . S
H270 C306 0.931 . S
H271 C308 0.929 . S
N272 C292 1.433 . S
N272 C298 1.435 . S
N272 C304 1.423 . S
H273 C309 0.932 . S
C274 N249 1.433 . S
C274 C275 1.363 . S
C274 C279 1.370 . S
C275 H248 0.929 . S
C275 C274 1.363 . S
C275 C276 1.385 . S
C276 H250 0.930 . S
C276 C275 1.385 . S
C276 C277 1.357 . S
C277 C276 1.357 . S
C277 C278 1.406 . S
C278 H252 0.929 . S
C278 C277 1.406 . S
C278 C279 1.391 . S
C279 H251 0.931 . S
C279 C274 1.370 . S
C279 C278 1.391 . S
C280 N249 1.435 . S
C280 C281 1.358 . S
C280 C285 1.371 . S
C281 H253 0.930 . S
C281 C280 1.358 . S
C281 C282 1.405 . S
C282 H254 0.932 . S
C282 C281 1.405 . S
C282 C283 1.383 . S
C283 C282 1.383 . S
C283 C284 1.393 . S
C284 H256 0.931 . S
C284 C283 1.393 . S
C284 C285 1.382 . S
C285 H255 0.929 . S
C285 C280 1.371 . S
C285 C284 1.382 . S
C286 N249 1.423 . S
C286 C287 1.362 . S
C286 C291 1.388 . S
C287 H257 0.929 . S
C287 C286 1.362 . S
C287 C288 1.376 . S
C288 H259 0.931 . S
C288 C287 1.376 . S
C288 C289 1.396 . S
C289 C288 1.396 . S
C289 C290 1.348 . S
C289 C307 1.472 . S
C290 H260 0.929 . S
C290 C289 1.348 . S
C290 C291 1.443 . S
C291 H258 0.932 . S
C291 C286 1.388 . S
C291 C290 1.443 . S
C292 N272 1.433 . S
C292 C293 1.363 . S
C292 C297 1.370 . S
C293 H261 0.929 . S
C293 C292 1.363 . S
C293 C294 1.385 . S
C294 H262 0.930 . S
C294 C293 1.385 . S
C294 C295 1.357 . S
C295 C294 1.357 . S
C295 C296 1.406 . S
C296 H263 0.929 . S
C296 C295 1.406 . S
C296 C297 1.391 . S
C297 H264 0.931 . S
C297 C292 1.370 . S
C297 C296 1.391 . S
C298 N272 1.435 . S
C298 C299 1.358 . S
C298 C303 1.371 . S
C299 H265 0.930 . S
C299 C298 1.358 . S
C299 C300 1.405 . S
C300 H266 0.932 . S
C300 C299 1.405 . S
C300 C301 1.383 . S
C301 C300 1.383 . S
C301 C302 1.393 . S
C302 H267 0.931 . S
C302 C301 1.393 . S
C302 C303 1.382 . S
C303 H268 0.929 . S
C303 C298 1.371 . S
C303 C302 1.382 . S
C304 N272 1.423 . S
C304 C305 1.362 . S
C304 C309 1.388 . S
C305 H269 0.929 . S
C305 C304 1.362 . S
C305 C306 1.376 . S
C306 H270 0.931 . S
C306 C305 1.376 . S
C306 C307 1.396 . S
C307 C289 1.472 . S
C307 C306 1.396 . S
C307 C308 1.348 . S
C308 H271 0.929 . S
C308 C307 1.348 . S
C308 C309 1.443 . S
C309 H273 0.932 . S
C309 C304 1.388 . S
C309 C308 1.443 . S
H310 C337 0.929 . S
N311 C336 1.433 . S
N311 C342 1.435 . S
N311 C348 1.423 . S
H312 C338 0.930 . S
H313 C341 0.931 . S
H314 C340 0.929 . S
H315 C343 0.930 . S
H316 C344 0.932 . S
H317 C347 0.929 . S
H318 C346 0.931 . S
H319 C349 0.929 . S
H320 C353 0.932 . S
H321 C350 0.931 . S
H322 C352 0.929 . S
H323 C355 0.929 . S
H324 C356 0.930 . S
H325 C358 0.929 . S
H326 C359 0.931 . S
H327 C361 0.930 . S
H328 C362 0.932 . S
H329 C364 0.931 . S
H330 C365 0.929 . S
H331 C367 0.929 . S
H332 C368 0.931 . S
H333 C370 0.929 . S
N334 C354 1.433 . S
N334 C360 1.435 . S
N334 C366 1.423 . S
H335 C371 0.932 . S
C336 N311 1.433 . S
C336 C337 1.363 . S
C336 C341 1.370 . S
C337 H310 0.929 . S
C337 C336 1.363 . S
C337 C338 1.385 . S
C338 H312 0.930 . S
C338 C337 1.385 . S
C338 C339 1.357 . S
C339 C338 1.357 . S
C339 C340 1.406 . S
C340 H314 0.929 . S
C340 C339 1.406 . S
C340 C341 1.391 . S
C341 H313 0.931 . S
C341 C336 1.370 . S
C341 C340 1.391 . S
C342 N311 1.435 . S
C342 C343 1.358 . S
C342 C347 1.371 . S
C343 H315 0.930 . S
C343 C342 1.358 . S
C343 C344 1.405 . S
C344 H316 0.932 . S
C344 C343 1.405 . S
C344 C345 1.383 . S
C345 C344 1.383 . S
C345 C346 1.393 . S
C346 H318 0.931 . S
C346 C345 1.393 . S
C346 C347 1.382 . S
C347 H317 0.929 . S
C347 C342 1.371 . S
C347 C346 1.382 . S
C348 N311 1.423 . S
C348 C349 1.362 . S
C348 C353 1.388 . S
C349 H319 0.929 . S
C349 C348 1.362 . S
C349 C350 1.376 . S
C350 H321 0.931 . S
C350 C349 1.376 . S
C350 C351 1.396 . S
C351 C350 1.396 . S
C351 C352 1.348 . S
C351 C369 1.472 . S
C352 H322 0.929 . S
C352 C351 1.348 . S
C352 C353 1.443 . S
C353 H320 0.932 . S
C353 C348 1.388 . S
C353 C352 1.443 . S
C354 N334 1.433 . S
C354 C355 1.363 . S
C354 C359 1.370 . S
C355 H323 0.929 . S
C355 C354 1.363 . S
C355 C356 1.385 . S
C356 H324 0.930 . S
C356 C355 1.385 . S
C356 C357 1.357 . S
C357 C356 1.357 . S
C357 C358 1.406 . S
C358 H325 0.929 . S
C358 C357 1.406 . S
C358 C359 1.391 . S
C359 H326 0.931 . S
C359 C354 1.370 . S
C359 C358 1.391 . S
C360 N334 1.435 . S
C360 C361 1.358 . S
C360 C365 1.371 . S
C361 H327 0.930 . S
C361 C360 1.358 . S
C361 C362 1.405 . S
C362 H328 0.932 . S
C362 C361 1.405 . S
C362 C363 1.383 . S
C363 C362 1.383 . S
C363 C364 1.393 . S
C364 H329 0.931 . S
C364 C363 1.393 . S
C364 C365 1.382 . S
C365 H330 0.929 . S
C365 C360 1.371 . S
C365 C364 1.382 . S
C366 N334 1.423 . S
C366 C367 1.362 . S
C366 C371 1.388 . S
C367 H331 0.929 . S
C367 C366 1.362 . S
C367 C368 1.376 . S
C368 H332 0.931 . S
C368 C367 1.376 . S
C368 C369 1.396 . S
C369 C351 1.472 . S
C369 C368 1.396 . S
C369 C370 1.348 . S
C370 H333 0.929 . S
C370 C369 1.348 . S
C370 C371 1.443 . S
C371 H335 0.932 . S
C371 C366 1.388 . S
C371 C370 1.443 . S
H372 C399 0.929 . S
N373 C398 1.433 . S
N373 C404 1.435 . S
N373 C410 1.423 . S
H374 C400 0.930 . S
H375 C403 0.931 . S
H376 C402 0.929 . S
H377 C405 0.930 . S
H378 C406 0.932 . S
H379 C409 0.929 . S
H380 C408 0.931 . S
H381 C411 0.929 . S
H382 C415 0.932 . S
H383 C412 0.931 . S
H384 C414 0.929 . S
H385 C417 0.929 . S
H386 C418 0.930 . S
H387 C420 0.929 . S
H388 C421 0.931 . S
H389 C423 0.930 . S
H390 C424 0.932 . S
H391 C426 0.931 . S
H392 C427 0.929 . S
H393 C429 0.929 . S
H394 C430 0.931 . S
H395 C432 0.929 . S
N396 C416 1.433 . S
N396 C422 1.435 . S
N396 C428 1.423 . S
H397 C433 0.932 . S
C398 N373 1.433 . S
C398 C399 1.363 . S
C398 C403 1.370 . S
C399 H372 0.929 . S
C399 C398 1.363 . S
C399 C400 1.385 . S
C400 H374 0.930 . S
C400 C399 1.385 . S
C400 C401 1.357 . S
C401 C400 1.357 . S
C401 C402 1.406 . S
C402 H376 0.929 . S
C402 C401 1.406 . S
C402 C403 1.391 . S
C403 H375 0.931 . S
C403 C398 1.370 . S
C403 C402 1.391 . S
C404 N373 1.435 . S
C404 C405 1.358 . S
C404 C409 1.371 . S
C405 H377 0.930 . S
C405 C404 1.358 . S
C405 C406 1.405 . S
C406 H378 0.932 . S
C406 C405 1.405 . S
C406 C407 1.383 . S
C407 C406 1.383 . S
C407 C408 1.393 . S
C408 H380 0.931 . S
C408 C407 1.393 . S
C408 C409 1.382 . S
C409 H379 0.929 . S
C409 C404 1.371 . S
C409 C408 1.382 . S
C410 N373 1.423 . S
C410 C411 1.362 . S
C410 C415 1.388 . S
C411 H381 0.929 . S
C411 C410 1.362 . S
C411 C412 1.376 . S
C412 H383 0.931 . S
C412 C411 1.376 . S
C412 C413 1.396 . S
C413 C412 1.396 . S
C413 C414 1.348 . S
C413 C431 1.472 . S
C414 H384 0.929 . S
C414 C413 1.348 . S
C414 C415 1.443 . S
C415 H382 0.932 . S
C415 C410 1.388 . S
C415 C414 1.443 . S
C416 N396 1.433 . S
C416 C417 1.363 . S
C416 C421 1.370 . S
C417 H385 0.929 . S
C417 C416 1.363 . S
C417 C418 1.385 . S
C418 H386 0.930 . S
C418 C417 1.385 . S
C418 C419 1.357 . S
C419 C418 1.357 . S
C419 C420 1.406 . S
C420 H387 0.929 . S
C420 C419 1.406 . S
C420 C421 1.391 . S
C421 H388 0.931 . S
C421 C416 1.370 . S
C421 C420 1.391 . S
C422 N396 1.435 . S
C422 C423 1.358 . S
C422 C427 1.371 . S
C423 H389 0.930 . S
C423 C422 1.358 . S
C423 C424 1.405 . S
C424 H390 0.932 . S
C424 C423 1.405 . S
C424 C425 1.383 . S
C425 C424 1.383 . S
C425 C426 1.393 . S
C426 H391 0.931 . S
C426 C425 1.393 . S
C426 C427 1.382 . S
C427 H392 0.929 . S
C427 C422 1.371 . S
C427 C426 1.382 . S
C428 N396 1.423 . S
C428 C429 1.362 . S
C428 C433 1.388 . S
C429 H393 0.929 . S
C429 C428 1.362 . S
C429 C430 1.376 . S
C430 H394 0.931 . S
C430 C429 1.376 . S
C430 C431 1.396 . S
C431 C413 1.472 . S
C431 C430 1.396 . S
C431 C432 1.348 . S
C432 H395 0.929 . S
C432 C431 1.348 . S
C432 C433 1.443 . S
C433 H397 0.932 . S
C433 C428 1.388 . S
C433 C432 1.443 . S
H434 C461 0.929 . S
N435 C460 1.433 . S
N435 C466 1.435 . S
N435 C472 1.423 . S
H436 C462 0.930 . S
H437 C465 0.931 . S
H438 C464 0.929 . S
H439 C467 0.930 . S
H440 C468 0.932 . S
H441 C471 0.929 . S
H442 C470 0.931 . S
H443 C473 0.929 . S
H444 C477 0.932 . S
H445 C474 0.931 . S
H446 C476 0.929 . S
H447 C479 0.929 . S
H448 C480 0.930 . S
H449 C482 0.929 . S
H450 C483 0.931 . S
H451 C485 0.930 . S
H452 C486 0.932 . S
H453 C488 0.931 . S
H454 C489 0.929 . S
H455 C491 0.929 . S
H456 C492 0.931 . S
H457 C494 0.929 . S
N458 C478 1.433 . S
N458 C484 1.435 . S
N458 C490 1.423 . S
H459 C495 0.932 . S
C460 N435 1.433 . S
C460 C461 1.363 . S
C460 C465 1.370 . S
C461 H434 0.929 . S
C461 C460 1.363 . S
C461 C462 1.385 . S
C462 H436 0.930 . S
C462 C461 1.385 . S
C462 C463 1.357 . S
C463 C462 1.357 . S
C463 C464 1.406 . S
C464 H438 0.929 . S
C464 C463 1.406 . S
C464 C465 1.391 . S
C465 H437 0.931 . S
C465 C460 1.370 . S
C465 C464 1.391 . S
C466 N435 1.435 . S
C466 C467 1.358 . S
C466 C471 1.371 . S
C467 H439 0.930 . S
C467 C466 1.358 . S
C467 C468 1.405 . S
C468 H440 0.932 . S
C468 C467 1.405 . S
C468 C469 1.383 . S
C469 C468 1.383 . S
C469 C470 1.393 . S
C470 H442 0.931 . S
C470 C469 1.393 . S
C470 C471 1.382 . S
C471 H441 0.929 . S
C471 C466 1.371 . S
C471 C470 1.382 . S
C472 N435 1.423 . S
C472 C473 1.362 . S
C472 C477 1.388 . S
C473 H443 0.929 . S
C473 C472 1.362 . S
C473 C474 1.376 . S
C474 H445 0.931 . S
C474 C473 1.376 . S
C474 C475 1.396 . S
C475 C474 1.396 . S
C475 C476 1.348 . S
C475 C493 1.472 . S
C476 H446 0.929 . S
C476 C475 1.348 . S
C476 C477 1.443 . S
C477 H444 0.932 . S
C477 C472 1.388 . S
C477 C476 1.443 . S
C478 N458 1.433 . S
C478 C479 1.363 . S
C478 C483 1.370 . S
C479 H447 0.929 . S
C479 C478 1.363 . S
C479 C480 1.385 . S
C480 H448 0.930 . S
C480 C479 1.385 . S
C480 C481 1.357 . S
C481 C480 1.357 . S
C481 C482 1.406 . S
C482 H449 0.929 . S
C482 C481 1.406 . S
C482 C483 1.391 . S
C483 H450 0.931 . S
C483 C478 1.370 . S
C483 C482 1.391 . S
C484 N458 1.435 . S
C484 C485 1.358 . S
C484 C489 1.371 . S
C485 H451 0.930 . S
C485 C484 1.358 . S
C485 C486 1.405 . S
C486 H452 0.932 . S
C486 C485 1.405 . S
C486 C487 1.383 . S
C487 C486 1.383 . S
C487 C488 1.393 . S
C488 H453 0.931 . S
C488 C487 1.393 . S
C488 C489 1.382 . S
C489 H454 0.929 . S
C489 C484 1.371 . S
C489 C488 1.382 . S
C490 N458 1.423 . S
C490 C491 1.362 . S
C490 C495 1.388 . S
C491 H455 0.929 . S
C491 C490 1.362 . S
C491 C492 1.376 . S
C492 H456 0.931 . S
C492 C491 1.376 . S
C492 C493 1.396 . S
C493 C475 1.472 . S
C493 C492 1.396 . S
C493 C494 1.348 . S
C494 H457 0.929 . S
C494 C493 1.348 . S
C494 C495 1.443 . S
C495 H459 0.932 . S
C495 C490 1.388 . S
C495 C494 1.443 . S
C496 C497 1.443 . S
C496 N500 1.376 . S
C496 C534 1.389 . S
C497 C496 1.443 . S
C497 C498 1.340 . S
C497 H537 0.951 . S
C498 C497 1.340 . S
C498 C499 1.439 . S
C498 H538 0.950 . S
C499 C498 1.439 . S
C499 N500 1.374 . S
C499 C533 1.395 . S
N500 C496 1.376 . S
N500 C499 1.374 . S
N500 Co501 2.008 . S
Co501 N500 2.008 . S
Co501 N502 1.995 1_455 S
Co501 N507 2.008 1_455 S
Co501 N512 1.995 . S
Co501 N517 2.282 1_455 S
Co501 N523 2.282 . S
N502 Co501 1.995 1_655 S
N502 C503 1.376 1_655 S
N502 C506 1.383 . S
C503 N502 1.376 1_455 S
C503 C504 1.446 1_455 S
C503 C533 1.391 . S
C504 C503 1.446 1_655 S
C504 C505 1.339 . S
C504 H539 0.949 . S
C505 C504 1.339 . S
C505 C506 1.439 . S
C505 H540 0.950 . S
C506 N502 1.383 . S
C506 C505 1.439 . S
C506 C535 1.392 . S
N507 Co501 2.008 1_655 S
N507 C508 1.376 . S
N507 C511 1.374 . S
C508 N507 1.376 . S
C508 C509 1.443 . S
C508 C535 1.389 . S
C509 C508 1.443 . S
C509 C510 1.340 . S
C509 H541 0.951 . S
C510 C509 1.340 . S
C510 C511 1.439 . S
C510 H542 0.950 . S
C511 N507 1.374 . S
C511 C510 1.439 . S
C511 C536 1.395 1_655 S
N512 Co501 1.995 . S
N512 C513 1.376 . S
N512 C516 1.383 . S
C513 N512 1.376 . S
C513 C514 1.446 . S
C513 C536 1.391 . S
C514 C513 1.446 . S
C514 C515 1.339 . S
C514 H543 0.949 . S
C515 C514 1.339 . S
C515 C516 1.439 . S
C515 H544 0.950 . S
C516 N512 1.383 . S
C516 C515 1.439 . S
C516 C534 1.392 . S
N517 Co501 2.282 1_655 S
N517 C520 1.332 . S
N517 C522 1.332 . S
C518 C519 1.386 . S
C518 C521 1.388 . S
C519 C518 1.386 . S
C519 C520 1.382 . S
C519 H545 0.950 . S
C520 N517 1.332 . S
C520 C519 1.382 . S
C520 H531 0.952 . S
C521 C518 1.388 . S
C521 C522 1.382 . S
C521 H546 0.950 . S
C522 N517 1.332 . S
C522 C521 1.382 . S
C522 H532 0.948 . S
N523 Co501 2.282 . S
N523 C527 1.332 . S
N523 C528 1.332 . S
C524 C525 1.388 . S
C524 C528 1.382 . S
C524 H547 0.950 . S
C525 C524 1.388 . S
C525 C526 1.386 . S
C526 C525 1.386 . S
C526 C527 1.382 . S
C526 H548 0.950 . S
C527 N523 1.332 . S
C527 C526 1.382 . S
C527 H529 0.952 . S
C528 N523 1.332 . S
C528 C524 1.382 . S
C528 H530 0.948 . S
H529 C527 0.952 . S
H530 C528 0.948 . S
H531 C520 0.952 . S
H532 C522 0.948 . S
C533 C499 1.395 . S
C533 C503 1.391 . S
C534 C496 1.389 . S
C534 C516 1.392 . S
C535 C506 1.392 . S
C535 C508 1.389 . S
C536 C511 1.395 1_455 S
C536 C513 1.391 . S
H537 C497 0.951 . S
H538 C498 0.950 . S
H539 C504 0.949 . S
H540 C505 0.950 . S
H541 C509 0.951 . S
H542 C510 0.950 . S
H543 C514 0.949 . S
H544 C515 0.950 . S
H545 C519 0.950 . S
H546 C521 0.950 . S
H547 C524 0.950 . S
H548 C526 0.950 . S
C549 C550 1.443 . S
C549 N553 1.376 . S
C549 C587 1.389 . S
C550 C549 1.443 . S
C550 C551 1.340 . S
C550 H590 0.951 . S
C551 C550 1.340 . S
C551 C552 1.439 . S
C551 H591 0.950 . S
C552 C551 1.439 . S
C552 N553 1.374 . S
C552 C586 1.395 . S
N553 C549 1.376 . S
N553 C552 1.374 . S
N553 Co554 2.008 . S
Co554 N553 2.008 . S
Co554 N555 1.992 . S
Co554 N560 2.008 1_545 S
Co554 N565 1.995 . S
Co554 N570 2.282 1_545 S
Co554 N576 2.282 . S
N555 Co554 1.992 . S
N555 C556 1.375 . S
N555 C559 1.387 1_545 S
C556 N555 1.375 . S
C556 C557 1.446 1_545 S
C556 C586 1.391 . S
C557 C556 1.446 1_565 S
C557 C558 1.339 . S
C557 H592 0.949 . S
C558 C557 1.339 . S
C558 C559 1.439 . S
C558 H593 0.950 . S
C559 N555 1.387 1_565 S
C559 C558 1.439 . S
C559 C588 1.392 . S
N560 Co554 2.008 1_565 S
N560 C561 1.376 . S
N560 C564 1.374 . S
C561 N560 1.376 . S
C561 C562 1.443 . S
C561 C588 1.389 . S
C562 C561 1.443 . S
C562 C563 1.340 . S
C562 H594 0.951 . S
C563 C562 1.340 . S
C563 C564 1.439 . S
C563 H595 0.950 . S
C564 N560 1.374 . S
C564 C563 1.439 . S
C564 C589 1.395 1_565 S
N565 Co554 1.995 . S
N565 C566 1.376 . S
N565 C569 1.383 . S
C566 N565 1.376 . S
C566 C567 1.446 . S
C566 C589 1.391 . S
C567 C566 1.446 . S
C567 C568 1.339 . S
C567 H596 0.949 . S
C568 C567 1.339 . S
C568 C569 1.439 . S
C568 H597 0.950 . S
C569 N565 1.383 . S
C569 C568 1.439 . S
C569 C587 1.392 . S
N570 Co554 2.282 1_565 S
N570 C573 1.332 . S
N570 C575 1.332 . S
C571 C572 1.386 . S
C571 C574 1.388 . S
C572 C571 1.386 . S
C572 C573 1.382 . S
C572 H598 0.950 . S
C573 N570 1.332 . S
C573 C572 1.382 . S
C573 H584 0.952 . S
C574 C571 1.388 . S
C574 C575 1.382 . S
C574 H599 0.950 . S
C575 N570 1.332 . S
C575 C574 1.382 . S
C575 H585 0.948 . S
N576 Co554 2.282 . S
N576 C580 1.332 . S
N576 C581 1.332 . S
C577 C578 1.388 . S
C577 C581 1.382 . S
C577 H600 0.950 . S
C578 C577 1.388 . S
C578 C579 1.386 . S
C579 C578 1.386 . S
C579 C580 1.382 . S
C579 H601 0.950 . S
C580 N576 1.332 . S
C580 C579 1.382 . S
C580 H582 0.952 . S
C581 N576 1.332 . S
C581 C577 1.382 . S
C581 H583 0.948 . S
H582 C580 0.952 . S
H583 C581 0.948 . S
H584 C573 0.952 . S
H585 C575 0.948 . S
C586 C552 1.395 . S
C586 C556 1.391 . S
C587 C549 1.389 . S
C587 C569 1.392 . S
C588 C559 1.392 . S
C588 C561 1.389 . S
C589 C564 1.395 1_545 S
C589 C566 1.391 . S
H590 C550 0.951 . S
H591 C551 0.950 . S
H592 C557 0.949 . S
H593 C558 0.950 . S
H594 C562 0.951 . S
H595 C563 0.950 . S
H596 C567 0.949 . S
H597 C568 0.950 . S
H598 C572 0.950 . S
H599 C574 0.950 . S
H600 C577 0.950 . S
H601 C579 0.950 . S
C602 C603 1.443 . S
C602 N606 1.376 . S
C602 C640 1.389 . S
C603 C602 1.443 . S
C603 C604 1.340 . S
C603 H643 0.951 . S
C604 C603 1.340 . S
C604 C605 1.439 . S
C604 H644 0.950 . S
C605 C604 1.439 . S
C605 N606 1.374 . S
C605 C639 1.395 . S
N606 C602 1.376 . S
N606 C605 1.374 . S
N606 Co607 2.008 . S
Co607 N606 2.008 . S
Co607 N608 1.995 1_455 S
Co607 N613 2.008 1_455 S
Co607 N618 1.995 . S
Co607 N623 2.282 1_455 S
Co607 N629 2.282 . S
N608 Co607 1.995 1_655 S
N608 C609 1.380 . S
N608 C612 1.383 . S
C609 N608 1.380 . S
C609 C610 1.468 . S
C609 C639 1.370 1_655 S
C610 C609 1.468 . S
C610 C611 1.339 . S
C610 H645 0.949 . S
C611 C610 1.339 . S
C611 C612 1.439 . S
C611 H646 0.950 . S
C612 N608 1.383 . S
C612 C611 1.439 . S
C612 C641 1.392 . S
N613 Co607 2.008 1_655 S
N613 C614 1.376 . S
N613 C617 1.374 . S
C614 N613 1.376 . S
C614 C615 1.443 . S
C614 C641 1.389 . S
C615 C614 1.443 . S
C615 C616 1.340 . S
C615 H647 0.951 . S
C616 C615 1.340 . S
C616 C617 1.439 . S
C616 H648 0.950 . S
C617 N613 1.374 . S
C617 C616 1.439 . S
C617 C642 1.395 1_655 S
N618 Co607 1.995 . S
N618 C619 1.376 . S
N618 C622 1.383 . S
C619 N618 1.376 . S
C619 C620 1.446 . S
C619 C642 1.391 . S
C620 C619 1.446 . S
C620 C621 1.339 . S
C620 H649 0.949 . S
C621 C620 1.339 . S
C621 C622 1.439 . S
C621 H650 0.950 . S
C622 N618 1.383 . S
C622 C621 1.439 . S
C622 C640 1.392 . S
N623 Co607 2.282 1_655 S
N623 C626 1.332 . S
N623 C628 1.332 . S
C624 C625 1.386 . S
C624 C627 1.388 . S
C625 C624 1.386 . S
C625 C626 1.382 . S
C625 H651 0.950 . S
C626 N623 1.332 . S
C626 C625 1.382 . S
C626 H637 0.952 . S
C627 C624 1.388 . S
C627 C628 1.382 . S
C627 H652 0.950 . S
C628 N623 1.332 . S
C628 C627 1.382 . S
C628 H638 0.948 . S
N629 Co607 2.282 . S
N629 C633 1.332 . S
N629 C634 1.332 . S
C630 C631 1.388 . S
C630 C634 1.382 . S
C630 H653 0.950 . S
C631 C630 1.388 . S
C631 C632 1.386 . S
C632 C631 1.386 . S
C632 C633 1.382 . S
C632 H654 0.950 . S
C633 N629 1.332 . S
C633 C632 1.382 . S
C633 H635 0.952 . S
C634 N629 1.332 . S
C634 C630 1.382 . S
C634 H636 0.948 . S
H635 C633 0.952 . S
H636 C634 0.948 . S
H637 C626 0.952 . S
H638 C628 0.948 . S
C639 C605 1.395 . S
C639 C609 1.370 1_455 S
C640 C602 1.389 . S
C640 C622 1.392 . S
C641 C612 1.392 . S
C641 C614 1.389 . S
C642 C617 1.395 1_455 S
C642 C619 1.391 . S
H643 C603 0.951 . S
H644 C604 0.950 . S
H645 C610 0.949 . S
H646 C611 0.950 . S
H647 C615 0.951 . S
H648 C616 0.950 . S
H649 C620 0.949 . S
H650 C621 0.950 . S
H651 C625 0.950 . S
H652 C627 0.950 . S
H653 C630 0.950 . S
H654 C632 0.950 . S
C655 C656 1.443 . S
C655 N659 1.376 . S
C655 C693 1.389 . S
C656 C655 1.443 . S
C656 C657 1.340 . S
C656 H696 0.951 . S
C657 C656 1.340 . S
C657 C658 1.462 . S
C657 H697 0.950 . S
C658 C657 1.462 . S
C658 N659 1.375 . S
C658 C692 1.375 1_565 S
N659 C655 1.376 . S
N659 C658 1.375 . S
N659 Co660 2.008 1_565 S
Co660 N659 2.008 1_545 S
Co660 N661 1.995 . S
Co660 N666 2.008 . S
Co660 N671 2.014 . S
Co660 N676 2.282 . S
Co660 N682 2.282 1_545 S
N661 Co660 1.995 . S
N661 C662 1.376 . S
N661 C665 1.383 . S
C662 N661 1.376 . S
C662 C663 1.446 . S
C662 C692 1.391 . S
C663 C662 1.446 . S
C663 C664 1.339 . S
C663 H698 0.949 . S
C664 C663 1.339 . S
C664 C665 1.439 . S
C664 H699 0.950 . S
C665 N661 1.383 . S
C665 C664 1.439 . S
C665 C694 1.392 . S
N666 Co660 2.008 . S
N666 C667 1.376 . S
N666 C670 1.374 . S
C667 N666 1.376 . S
C667 C668 1.443 . S
C667 C694 1.389 . S
C668 C667 1.443 . S
C668 C669 1.340 . S
C668 H700 0.951 . S
C669 C668 1.340 . S
C669 C670 1.439 . S
C669 H701 0.950 . S
C670 N666 1.374 . S
C670 C669 1.439 . S
C670 C695 1.395 . S
N671 Co660 2.014 . S
N671 C672 1.382 . S
N671 C675 1.352 1_545 S
C672 N671 1.382 . S
C672 C673 1.446 1_545 S
C672 C695 1.391 . S
C673 C672 1.446 1_565 S
C673 C674 1.339 . S
C673 H702 0.949 . S
C674 C673 1.339 . S
C674 C675 1.439 . S
C674 H703 0.950 . S
C675 N671 1.352 1_565 S
C675 C674 1.439 . S
C675 C693 1.392 . S
N676 Co660 2.282 . S
N676 C679 1.332 . S
N676 C681 1.332 . S
C677 C678 1.386 . S
C677 C680 1.388 . S
C678 C677 1.386 . S
C678 C679 1.382 . S
C678 H704 0.950 . S
C679 N676 1.332 . S
C679 C678 1.382 . S
C679 H690 0.952 . S
C680 C677 1.388 . S
C680 C681 1.382 . S
C680 H705 0.950 . S
C681 N676 1.332 . S
C681 C680 1.382 . S
C681 H691 0.948 . S
N682 Co660 2.282 1_565 S
N682 C686 1.332 . S
N682 C687 1.332 . S
C683 C684 1.388 . S
C683 C687 1.382 . S
C683 H706 0.950 . S
C684 C683 1.388 . S
C684 C685 1.386 . S
C685 C684 1.386 . S
C685 C686 1.382 . S
C685 H707 0.950 . S
C686 N682 1.332 . S
C686 C685 1.382 . S
C686 H688 0.952 . S
C687 N682 1.332 . S
C687 C683 1.382 . S
C687 H689 0.948 . S
H688 C686 0.952 . S
H689 C687 0.948 . S
H690 C679 0.952 . S
H691 C681 0.948 . S
C692 C658 1.375 1_545 S
C692 C662 1.391 . S
C693 C655 1.389 . S
C693 C675 1.392 . S
C694 C665 1.392 . S
C694 C667 1.389 . S
C695 C670 1.395 . S
C695 C672 1.391 . S
H696 C656 0.951 . S
H697 C657 0.950 . S
H698 C663 0.949 . S
H699 C664 0.950 . S
H700 C668 0.951 . S
H701 C669 0.950 . S
H702 C673 0.949 . S
H703 C674 0.950 . S
H704 C678 0.950 . S
H705 C680 0.950 . S
H706 C683 0.950 . S
H707 C685 0.950 . S
C708 C709 1.443 . S
C708 N712 1.376 . S
C708 C746 1.389 . S
C709 C708 1.443 . S
C709 C710 1.340 . S
C709 H749 0.951 . S
C710 C709 1.340 . S
C710 C711 1.439 . S
C710 H750 0.950 . S
C711 C710 1.439 . S
C711 N712 1.374 . S
C711 C745 1.395 1_554 S
N712 C708 1.376 . S
N712 C711 1.374 . S
N712 Co713 2.010 . S
Co713 N712 2.010 . S
Co713 N714 1.993 1_554 S
Co713 N719 2.007 1_554 S
Co713 N724 1.996 . S
Co713 N729 2.285 . S
Co713 N735 2.280 1_554 S
N714 Co713 1.993 1_556 S
N714 C715 1.376 . S
N714 C718 1.383 . S
C715 N714 1.376 . S
C715 C716 1.446 . S
C715 C745 1.391 . S
C716 C715 1.446 . S
C716 C717 1.339 . S
C716 H751 0.949 . S
C717 C716 1.339 . S
C717 C718 1.439 . S
C717 H752 0.950 . S
C718 N714 1.383 . S
C718 C717 1.439 . S
C718 C747 1.392 . S
N719 Co713 2.007 1_556 S
N719 C720 1.376 . S
N719 C723 1.374 . S
C720 N719 1.376 . S
C720 C721 1.443 . S
C720 C747 1.389 . S
C721 C720 1.443 . S
C721 C722 1.340 . S
C721 H753 0.951 . S
C722 C721 1.340 . S
C722 C723 1.439 . S
C722 H754 0.950 . S
C723 N719 1.374 . S
C723 C722 1.439 . S
C723 C748 1.395 1_556 S
N724 Co713 1.996 . S
N724 C725 1.376 . S
N724 C728 1.383 . S
C725 N724 1.376 . S
C725 C726 1.446 . S
C725 C748 1.391 . S
C726 C725 1.446 . S
C726 C727 1.339 . S
C726 H755 0.949 . S
C727 C726 1.339 . S
C727 C728 1.439 . S
C727 H756 0.950 . S
C728 N724 1.383 . S
C728 C727 1.439 . S
C728 C746 1.392 . S
N729 Co713 2.285 . S
N729 C732 1.332 . S
N729 C734 1.332 . S
C730 C731 1.386 . S
C730 C733 1.388 . S
C731 C730 1.386 . S
C731 C732 1.382 . S
C731 H757 0.950 . S
C732 N729 1.332 . S
C732 C731 1.382 . S
C732 H743 0.952 . S
C733 C730 1.388 . S
C733 C734 1.382 . S
C733 H758 0.950 . S
C734 N729 1.332 . S
C734 C733 1.382 . S
C734 H744 0.948 . S
N735 Co713 2.280 1_556 S
N735 C739 1.332 . S
N735 C740 1.332 . S
C736 C737 1.388 . S
C736 C740 1.382 . S
C736 H759 0.950 . S
C737 C736 1.388 . S
C737 C738 1.386 . S
C738 C737 1.386 . S
C738 C739 1.382 . S
C738 H760 0.950 . S
C739 N735 1.332 . S
C739 C738 1.382 . S
C739 H741 0.952 . S
C740 N735 1.332 . S
C740 C736 1.382 . S
C740 H742 0.948 . S
H741 C739 0.952 . S
H742 C740 0.948 . S
H743 C732 0.952 . S
H744 C734 0.948 . S
C745 C711 1.395 1_556 S
C745 C715 1.391 . S
C746 C708 1.389 . S
C746 C728 1.392 . S
C747 C718 1.392 . S
C747 C720 1.389 . S
C748 C723 1.395 1_554 S
C748 C725 1.391 . S
H749 C709 0.951 . S
H750 C710 0.950 . S
H751 C716 0.949 . S
H752 C717 0.950 . S
H753 C721 0.951 . S
H754 C722 0.950 . S
H755 C726 0.949 . S
H756 C727 0.950 . S
H757 C731 0.950 . S
H758 C733 0.950 . S
H759 C736 0.950 . S
H760 C738 0.950 . S
C761 C762 1.443 . S
C761 N765 1.376 . S
C761 C799 1.389 . S
C762 C761 1.443 . S
C762 C763 1.340 . S
C762 H802 0.951 . S
C763 C762 1.340 . S
C763 C764 1.439 . S
C763 H803 0.950 . S
C764 C763 1.439 . S
C764 N765 1.374 . S
C764 C798 1.395 . S
N765 C761 1.376 . S
N765 C764 1.374 . S
N765 Co766 2.008 . S
Co766 N765 2.008 . S
Co766 N767 1.995 . S
Co766 N772 2.008 . S
Co766 N777 1.995 . S
Co766 N782 2.282 . S
Co766 N788 2.282 . S
N767 Co766 1.995 . S
N767 C768 1.376 . S
N767 C771 1.383 1_554 S
C768 N767 1.376 . S
C768 C769 1.446 1_554 S
C768 C798 1.391 . S
C769 C768 1.446 1_556 S
C769 C770 1.339 . S
C769 H804 0.949 . S
C770 C769 1.339 . S
C770 C771 1.439 . S
C770 H805 0.950 . S
C771 N767 1.383 1_556 S
C771 C770 1.439 . S
C771 C800 1.392 . S
N772 Co766 2.008 . S
N772 C773 1.376 . S
N772 C776 1.374 . S
C773 N772 1.376 . S
C773 C774 1.443 . S
C773 C800 1.389 1_554 S
C774 C773 1.443 . S
C774 C775 1.340 . S
C774 H806 0.951 1_554 S
C775 C774 1.340 . S
C775 C776 1.439 . S
C775 H807 0.950 . S
C776 N772 1.374 . S
C776 C775 1.439 . S
C776 C801 1.395 . S
N777 Co766 1.995 . S
N777 C778 1.376 . S
N777 C781 1.383 . S
C778 N777 1.376 . S
C778 C779 1.446 . S
C778 C801 1.391 . S
C779 C778 1.446 . S
C779 C780 1.339 . S
C779 H808 0.949 . S
C780 C779 1.339 . S
C780 C781 1.439 . S
C780 H809 0.950 . S
C781 N777 1.383 . S
C781 C780 1.439 . S
C781 C799 1.392 . S
N782 Co766 2.282 . S
N782 C785 1.332 . S
N782 C787 1.332 . S
C783 C784 1.386 . S
C783 C786 1.388 . S
C784 C783 1.386 . S
C784 C785 1.382 . S
C784 H810 0.950 . S
C785 N782 1.332 . S
C785 C784 1.382 . S
C785 H796 0.952 . S
C786 C783 1.388 . S
C786 C787 1.382 . S
C786 H811 0.950 . S
C787 N782 1.332 . S
C787 C786 1.382 . S
C787 H797 0.948 . S
N788 Co766 2.282 . S
N788 C792 1.332 1_554 S
N788 C793 1.332 . S
C789 C790 1.388 . S
C789 C793 1.382 1_556 S
C789 H812 0.950 . S
C790 C789 1.388 . S
C790 C791 1.386 . S
C791 C790 1.386 . S
C791 C792 1.382 . S
C791 H813 0.950 . S
C792 N788 1.332 1_556 S
C792 C791 1.382 . S
C792 H794 0.952 . S
C793 N788 1.332 . S
C793 C789 1.382 1_554 S
C793 H795 0.948 . S
H794 C792 0.952 . S
H795 C793 0.948 . S
H796 C785 0.952 . S
H797 C787 0.948 . S
C798 C764 1.395 . S
C798 C768 1.391 . S
C799 C761 1.389 . S
C799 C781 1.392 . S
C800 C771 1.392 . S
C800 C773 1.389 1_556 S
C801 C776 1.395 . S
C801 C778 1.391 . S
H802 C762 0.951 . S
H803 C763 0.950 . S
H804 C769 0.949 . S
H805 C770 0.950 . S
H806 C774 0.951 1_556 S
H807 C775 0.950 . S
H808 C779 0.949 . S
H809 C780 0.950 . S
H810 C784 0.950 . S
H811 C786 0.950 . S
H812 C789 0.950 . S
H813 C791 0.950 . S
C814 C815 1.443 . S
C814 N818 1.376 1_556 S
C814 C852 1.389 . S
C815 C814 1.443 . S
C815 C816 1.340 1_556 S
C815 H855 0.951 . S
C816 C815 1.340 1_554 S
C816 C817 1.439 . S
C816 H856 0.950 . S
C817 C816 1.439 . S
C817 N818 1.374 . S
C817 C851 1.395 . S
N818 C814 1.376 1_554 S
N818 C817 1.374 . S
N818 Co819 2.008 . S
Co819 N818 2.008 . S
Co819 N820 1.995 . S
Co819 N825 2.008 . S
Co819 N830 1.995 . S
Co819 N835 2.282 1_554 S
Co819 N841 2.282 . S
N820 Co819 1.995 . S
N820 C821 1.376 . S
N820 C824 1.383 . S
C821 N820 1.376 . S
C821 C822 1.446 . S
C821 C851 1.391 . S
C822 C821 1.446 . S
C822 C823 1.339 . S
C822 H857 0.949 . S
C823 C822 1.339 . S
C823 C824 1.439 . S
C823 H858 0.950 . S
C824 N820 1.383 . S
C824 C823 1.439 . S
C824 C853 1.392 . S
N825 Co819 2.008 . S
N825 C826 1.376 . S
N825 C829 1.374 . S
C826 N825 1.376 . S
C826 C827 1.443 . S
C826 C853 1.389 . S
C827 C826 1.443 . S
C827 C828 1.340 . S
C827 H859 0.951 . S
C828 C827 1.340 . S
C828 C829 1.439 . S
C828 H860 0.950 . S
C829 N825 1.374 . S
C829 C828 1.439 . S
C829 C854 1.395 . S
N830 Co819 1.995 . S
N830 C831 1.376 . S
N830 C834 1.383 1_554 S
C831 N830 1.376 . S
C831 C832 1.446 1_554 S
C831 C854 1.391 . S
C832 C831 1.446 1_556 S
C832 C833 1.339 . S
C832 H861 0.949 . S
C833 C832 1.339 . S
C833 C834 1.439 . S
C833 H862 0.950 . S
C834 N830 1.383 1_556 S
C834 C833 1.439 . S
C834 C852 1.392 . S
N835 Co819 2.282 1_556 S
N835 C838 1.332 . S
N835 C840 1.332 . S
C836 C837 1.386 . S
C836 C839 1.388 . S
C837 C836 1.386 . S
C837 C838 1.382 . S
C837 H863 0.950 . S
C838 N835 1.332 . S
C838 C837 1.382 . S
C838 H849 0.952 . S
C839 C836 1.388 . S
C839 C840 1.382 . S
C839 H864 0.950 . S
C840 N835 1.332 . S
C840 C839 1.382 . S
C840 H850 0.948 1_556 S
N841 Co819 2.282 . S
N841 C845 1.332 . S
N841 C846 1.332 . S
C842 C843 1.388 . S
C842 C846 1.382 . S
C842 H865 0.950 . S
C843 C842 1.388 . S
C843 C844 1.386 . S
C844 C843 1.386 . S
C844 C845 1.382 . S
C844 H866 0.950 . S
C845 N841 1.332 . S
C845 C844 1.382 . S
C845 H847 0.952 . S
C846 N841 1.332 . S
C846 C842 1.382 . S
C846 H848 0.948 . S
H847 C845 0.952 . S
H848 C846 0.948 . S
H849 C838 0.952 . S
H850 C840 0.948 1_554 S
C851 C817 1.395 . S
C851 C821 1.391 . S
C852 C814 1.389 . S
C852 C834 1.392 . S
C853 C824 1.392 . S
C853 C826 1.389 . S
C854 C829 1.395 . S
C854 C831 1.391 . S
H855 C815 0.951 . S
H856 C816 0.950 . S
H857 C822 0.949 . S
H858 C823 0.950 . S
H859 C827 0.951 . S
H860 C828 0.950 . S
H861 C832 0.949 . S
H862 C833 0.950 . S
H863 C837 0.950 . S
H864 C839 0.950 . S
H865 C842 0.950 . S
H866 C844 0.950 . S
C867 C868 1.443 . S
C867 N871 1.376 . S
C867 C905 1.389 . S
C868 C867 1.443 . S
C868 C869 1.340 . S
C868 H908 0.951 . S
C869 C868 1.340 . S
C869 C870 1.439 . S
C869 H909 0.950 . S
C870 C869 1.439 . S
C870 N871 1.374 . S
C870 C904 1.395 . S
N871 C867 1.376 . S
N871 C870 1.374 . S
N871 Co872 2.008 . S
Co872 N871 2.008 . S
Co872 N873 1.995 . S
Co872 N878 2.008 . S
Co872 N883 1.995 . S
Co872 N888 2.282 . S
Co872 N894 2.282 1_554 S
N873 Co872 1.995 . S
N873 C874 1.376 . S
N873 C877 1.383 1_554 S
C874 N873 1.376 . S
C874 C875 1.446 1_554 S
C874 C904 1.391 . S
C875 C874 1.446 1_556 S
C875 C876 1.339 . S
C875 H910 0.949 . S
C876 C875 1.339 . S
C876 C877 1.439 . S
C876 H911 0.950 . S
C877 N873 1.383 1_556 S
C877 C876 1.439 . S
C877 C906 1.392 . S
N878 Co872 2.008 . S
N878 C879 1.376 1_554 S
N878 C882 1.374 . S
C879 N878 1.376 1_556 S
C879 C880 1.443 . S
C879 C906 1.389 . S
C880 C879 1.443 . S
C880 C881 1.340 1_556 S
C880 H912 0.951 . S
C881 C880 1.340 1_554 S
C881 C882 1.439 . S
C881 H913 0.950 . S
C882 N878 1.374 . S
C882 C881 1.439 . S
C882 C907 1.395 . S
N883 Co872 1.995 . S
N883 C884 1.376 . S
N883 C887 1.383 . S
C884 N883 1.376 . S
C884 C885 1.446 . S
C884 C907 1.391 . S
C885 C884 1.446 . S
C885 C886 1.339 . S
C885 H914 0.949 . S
C886 C885 1.339 . S
C886 C887 1.439 . S
C886 H915 0.950 . S
C887 N883 1.383 . S
C887 C886 1.439 . S
C887 C905 1.392 . S
N888 Co872 2.282 . S
N888 C891 1.332 . S
N888 C893 1.332 . S
C889 C890 1.386 . S
C889 C892 1.388 . S
C890 C889 1.386 . S
C890 C891 1.382 . S
C890 H916 0.950 . S
C891 N888 1.332 . S
C891 C890 1.382 . S
C891 H902 0.952 . S
C892 C889 1.388 . S
C892 C893 1.382 . S
C892 H917 0.950 . S
C893 N888 1.332 . S
C893 C892 1.382 . S
C893 H903 0.948 . S
N894 Co872 2.282 1_556 S
N894 C898 1.332 . S
N894 C899 1.332 . S
C895 C896 1.388 . S
C895 C899 1.382 . S
C895 H918 0.950 . S
C896 C895 1.388 . S
C896 C897 1.386 . S
C897 C896 1.386 . S
C897 C898 1.382 . S
C897 H919 0.950 . S
C898 N894 1.332 . S
C898 C897 1.382 . S
C898 H900 0.952 . S
C899 N894 1.332 . S
C899 C895 1.382 . S
C899 H901 0.948 1_556 S
H900 C898 0.952 . S
H901 C899 0.948 1_554 S
H902 C891 0.952 . S
H903 C893 0.948 . S
C904 C870 1.395 . S
C904 C874 1.391 . S
C905 C867 1.389 . S
C905 C887 1.392 . S
C906 C877 1.392 . S
C906 C879 1.389 . S
C907 C882 1.395 . S
C907 C884 1.391 . S
H908 C868 0.951 . S
H909 C869 0.950 . S
H910 C875 0.949 . S
H911 C876 0.950 . S
H912 C880 0.951 . S
H913 C881 0.950 . S
H914 C885 0.949 . S
H915 C886 0.950 . S
H916 C890 0.950 . S
H917 C892 0.950 . S
H918 C895 0.950 . S
H919 C897 0.950 . S
H920 C926 0.930 . S
H921 C930 0.930 . S
H922 C935 0.929 . S
H923 C933 0.929 . S
H924 C928 0.929 . S
H925 C934 0.929 . S
C926 H920 0.930 . S
C926 C927 1.367 . S
C926 C934 1.378 . S
C927 C926 1.367 . S
C927 C935 1.433 . S
C928 H924 0.929 . S
C928 C930 1.378 . S
C928 C932 1.350 . S
C929 C932 1.463 . S
C929 C934 1.350 . S
C929 N937 1.427 . S
C930 H921 0.930 . S
C930 C928 1.378 . S
C930 C931 1.367 . S
C931 C930 1.367 . S
C931 C933 1.433 . S
C932 C928 1.350 . S
C932 C929 1.463 . S
C932 N936 1.427 . S
C933 H923 0.929 . S
C933 C931 1.433 . S
C933 N936 1.384 . S
C934 H925 0.929 . S
C934 C926 1.378 . S
C934 C929 1.350 . S
C935 H922 0.929 . S
C935 C927 1.433 . S
C935 N937 1.384 . S
N936 C932 1.427 . S
N936 C933 1.384 . S
N937 C929 1.427 . S
N937 C935 1.384 . S
H938 C944 0.930 . S
H939 C948 0.930 . S
H940 C953 0.929 . S
H941 C951 0.929 . S
H942 C946 0.929 . S
H943 C952 0.929 . S
C944 H938 0.930 . S
C944 C945 1.367 . S
C944 C952 1.378 . S
C945 C944 1.367 . S
C945 C953 1.433 . S
C946 H942 0.929 . S
C946 C948 1.378 . S
C946 C950 1.350 . S
C947 C950 1.463 . S
C947 C952 1.350 . S
C947 N955 1.427 . S
C948 H939 0.930 . S
C948 C946 1.378 . S
C948 C949 1.367 . S
C949 C948 1.367 . S
C949 C951 1.433 . S
C950 C946 1.350 . S
C950 C947 1.463 . S
C950 N954 1.427 . S
C951 H941 0.929 . S
C951 C949 1.433 . S
C951 N954 1.384 . S
C952 H943 0.929 . S
C952 C944 1.378 . S
C952 C947 1.350 . S
C953 H940 0.929 . S
C953 C945 1.433 . S
C953 N955 1.384 . S
N954 C950 1.427 . S
N954 C951 1.384 . S
N955 C947 1.427 . S
N955 C953 1.384 . S
H956 C962 0.930 . S
H957 C966 0.930 . S
H958 C971 0.929 . S
H959 C969 0.929 . S
H960 C964 0.929 . S
H961 C970 0.929 . S
C962 H956 0.930 . S
C962 C963 1.367 . S
C962 C970 1.378 . S
C963 C962 1.367 . S
C963 C971 1.433 . S
C964 H960 0.929 . S
C964 C966 1.378 . S
C964 C968 1.350 . S
C965 C968 1.463 . S
C965 C970 1.350 . S
C965 N973 1.427 . S
C966 H957 0.930 . S
C966 C964 1.378 . S
C966 C967 1.367 . S
C967 C966 1.367 . S
C967 C969 1.433 . S
C968 C964 1.350 . S
C968 C965 1.463 . S
C968 N972 1.427 . S
C969 H959 0.929 . S
C969 C967 1.433 . S
C969 N972 1.384 . S
C970 H961 0.929 . S
C970 C962 1.378 . S
C970 C965 1.350 . S
C971 H958 0.929 . S
C971 C963 1.433 . S
C971 N973 1.384 . S
N972 C968 1.427 . S
N972 C969 1.384 . S
N973 C965 1.427 . S
N973 C971 1.384 . S
H974 C980 0.930 . S
H975 C984 0.930 . S
H976 C989 0.929 . S
H977 C987 0.929 . S
H978 C982 0.929 . S
H979 C988 0.929 . S
C980 H974 0.930 . S
C980 C981 1.367 . S
C980 C988 1.378 . S
C981 C980 1.367 . S
C981 C989 1.433 . S
C982 H978 0.929 . S
C982 C984 1.378 . S
C982 C986 1.350 . S
C983 C986 1.463 . S
C983 C988 1.350 . S
C983 N991 1.427 . S
C984 H975 0.930 . S
C984 C982 1.378 . S
C984 C985 1.367 . S
C985 C984 1.367 . S
C985 C987 1.433 . S
C986 C982 1.350 . S
C986 C983 1.463 . S
C986 N990 1.427 . S
C987 H977 0.929 . S
C987 C985 1.433 . S
C987 N990 1.384 . S
C988 H979 0.929 . S
C988 C980 1.378 . S
C988 C983 1.350 . S
C989 H976 0.929 . S
C989 C981 1.433 . S
C989 N991 1.384 . S
N990 C986 1.427 . S
N990 C987 1.384 . S
N991 C983 1.427 . S
N991 C989 1.384 . S
H992 C998 0.930 . S
H993 C1002 0.930 . S
H994 C1007 0.929 . S
H995 C1005 0.929 . S
H996 C1000 0.929 . S
H997 C1006 0.929 . S
C998 H992 0.930 . S
C998 C999 1.367 . S
C998 C1006 1.378 . S
C999 C998 1.367 . S
C999 C1007 1.433 . S
C1000 H996 0.929 . S
C1000 C1002 1.378 . S
C1000 C1004 1.350 . S
C1001 C1004 1.463 . S
C1001 C1006 1.350 . S
C1001 N1009 1.427 . S
C1002 H993 0.930 . S
C1002 C1000 1.378 . S
C1002 C1003 1.367 . S
C1003 C1002 1.367 . S
C1003 C1005 1.433 . S
C1004 C1000 1.350 . S
C1004 C1001 1.463 . S
C1004 N1008 1.427 . S
C1005 H995 0.929 . S
C1005 C1003 1.433 . S
C1005 N1008 1.384 . S
C1006 H997 0.929 . S
C1006 C998 1.378 . S
C1006 C1001 1.350 . S
C1007 H994 0.929 . S
C1007 C999 1.433 . S
C1007 N1009 1.384 . S
N1008 C1004 1.427 . S
N1008 C1005 1.384 . S
N1009 C1001 1.427 . S
N1009 C1007 1.384 . S
H1010 C1016 0.930 . S
H1011 C1020 0.930 . S
H1012 C1025 0.929 . S
H1013 C1023 0.929 . S
H1014 C1018 0.929 . S
H1015 C1024 0.929 . S
C1016 H1010 0.930 . S
C1016 C1017 1.367 . S
C1016 C1024 1.378 . S
C1017 C1016 1.367 . S
C1017 C1025 1.433 . S
C1018 H1014 0.929 . S
C1018 C1020 1.378 . S
C1018 C1022 1.350 . S
C1019 C1022 1.463 . S
C1019 C1024 1.350 . S
C1019 N1027 1.427 . S
C1020 H1011 0.930 . S
C1020 C1018 1.378 . S
C1020 C1021 1.367 . S
C1021 C1020 1.367 . S
C1021 C1023 1.433 . S
C1022 C1018 1.350 . S
C1022 C1019 1.463 . S
C1022 N1026 1.427 . S
C1023 H1013 0.929 . S
C1023 C1021 1.433 . S
C1023 N1026 1.384 . S
C1024 H1015 0.929 . S
C1024 C1016 1.378 . S
C1024 C1019 1.350 . S
C1025 H1012 0.929 . S
C1025 C1017 1.433 . S
C1025 N1027 1.384 . S
N1026 C1022 1.427 . S
N1026 C1023 1.384 . S
N1027 C1019 1.427 . S
N1027 C1025 1.384 . S
H1028 C1034 0.930 . S
H1029 C1038 0.930 . S
H1030 C1043 0.929 . S
H1031 C1041 0.929 . S
H1032 C1036 0.929 . S
H1033 C1042 0.929 . S
C1034 H1028 0.930 . S
C1034 C1035 1.367 . S
C1034 C1042 1.378 . S
C1035 C1034 1.367 . S
C1035 C1043 1.433 . S
C1036 H1032 0.929 . S
C1036 C1038 1.378 . S
C1036 C1040 1.350 . S
C1037 C1040 1.463 . S
C1037 C1042 1.350 . S
C1037 N1045 1.427 . S
C1038 H1029 0.930 . S
C1038 C1036 1.378 . S
C1038 C1039 1.367 . S
C1039 C1038 1.367 . S
C1039 C1041 1.433 . S
C1040 C1036 1.350 . S
C1040 C1037 1.463 . S
C1040 N1044 1.427 . S
C1041 H1031 0.929 . S
C1041 C1039 1.433 . S
C1041 N1044 1.384 . S
C1042 H1033 0.929 . S
C1042 C1034 1.378 . S
C1042 C1037 1.350 . S
C1043 H1030 0.929 . S
C1043 C1035 1.433 . S
C1043 N1045 1.384 . S
N1044 C1040 1.427 . S
N1044 C1041 1.384 . S
N1045 C1037 1.427 . S
N1045 C1043 1.384 . S
H1046 C1052 0.930 . S
H1047 C1056 0.930 . S
H1048 C1061 0.929 . S
H1049 C1059 0.929 . S
H1050 C1054 0.929 . S
H1051 C1060 0.929 . S
C1052 H1046 0.930 . S
C1052 C1053 1.367 . S
C1052 C1060 1.378 . S
C1053 C1052 1.367 . S
C1053 C1061 1.433 . S
C1054 H1050 0.929 . S
C1054 C1056 1.378 . S
C1054 C1058 1.350 . S
C1055 C1058 1.463 . S
C1055 C1060 1.350 . S
C1055 N1063 1.427 . S
C1056 H1047 0.930 . S
C1056 C1054 1.378 . S
C1056 C1057 1.367 . S
C1057 C1056 1.367 . S
C1057 C1059 1.433 . S
C1058 C1054 1.350 . S
C1058 C1055 1.463 . S
C1058 N1062 1.427 . S
C1059 H1049 0.929 . S
C1059 C1057 1.433 . S
C1059 N1062 1.384 . S
C1060 H1051 0.929 . S
C1060 C1052 1.378 . S
C1060 C1055 1.350 . S
C1061 H1048 0.929 . S
C1061 C1053 1.433 . S
C1061 N1063 1.384 . S
N1062 C1058 1.427 . S
N1062 C1059 1.384 . S
N1063 C1055 1.427 . S
N1063 C1061 1.384 . S
H1064 C1070 0.930 . S
H1065 C1074 0.930 . S
H1066 C1079 0.929 . S
H1067 C1077 0.929 . S
H1068 C1072 0.929 . S
H1069 C1078 0.929 . S
C1070 H1064 0.930 . S
C1070 C1071 1.367 . S
C1070 C1078 1.378 . S
C1071 C1070 1.367 . S
C1071 C1079 1.433 . S
C1072 H1068 0.929 . S
C1072 C1074 1.378 . S
C1072 C1076 1.350 . S
C1073 C1076 1.463 . S
C1073 C1078 1.350 . S
C1073 N1081 1.427 . S
C1074 H1065 0.930 . S
C1074 C1072 1.378 . S
C1074 C1075 1.367 . S
C1075 C1074 1.367 . S
C1075 C1077 1.433 . S
C1076 C1072 1.350 . S
C1076 C1073 1.463 . S
C1076 N1080 1.427 . S
C1077 H1067 0.929 . S
C1077 C1075 1.433 . S
C1077 N1080 1.384 . S
C1078 H1069 0.929 . S
C1078 C1070 1.378 . S
C1078 C1073 1.350 . S
C1079 H1066 0.929 . S
C1079 C1071 1.433 . S
C1079 N1081 1.384 . S
N1080 C1076 1.427 . S
N1080 C1077 1.384 . S
N1081 C1073 1.427 . S
N1081 C1079 1.384 . S
H1082 C1088 0.930 . S
H1083 C1092 0.930 . S
H1084 C1097 0.929 . S
H1085 C1095 0.929 . S
H1086 C1090 0.929 . S
H1087 C1096 0.929 . S
C1088 H1082 0.930 . S
C1088 C1089 1.367 . S
C1088 C1096 1.378 . S
C1089 C1088 1.367 . S
C1089 C1097 1.433 . S
C1090 H1086 0.929 . S
C1090 C1092 1.378 . S
C1090 C1094 1.350 . S
C1091 C1094 1.463 . S
C1091 C1096 1.350 . S
C1091 N1099 1.427 . S
C1092 H1083 0.930 . S
C1092 C1090 1.378 . S
C1092 C1093 1.367 . S
C1093 C1092 1.367 . S
C1093 C1095 1.433 . S
C1094 C1090 1.350 . S
C1094 C1091 1.463 . S
C1094 N1098 1.427 . S
C1095 H1085 0.929 . S
C1095 C1093 1.433 . S
C1095 N1098 1.384 . S
C1096 H1087 0.929 . S
C1096 C1088 1.378 . S
C1096 C1091 1.350 . S
C1097 H1084 0.929 . S
C1097 C1089 1.433 . S
C1097 N1099 1.384 . S
N1098 C1094 1.427 . S
N1098 C1095 1.384 . S
N1099 C1091 1.427 . S
N1099 C1097 1.384 . S
H1100 C1106 0.930 . S
H1101 C1110 0.930 . S
H1102 C1115 0.929 . S
H1103 C1113 0.929 . S
H1104 C1108 0.929 . S
H1105 C1114 0.929 . S
C1106 H1100 0.930 . S
C1106 C1107 1.367 . S
C1106 C1114 1.378 . S
C1107 C1106 1.367 . S
C1107 C1115 1.433 . S
C1108 H1104 0.929 . S
C1108 C1110 1.378 . S
C1108 C1112 1.350 . S
C1109 C1112 1.463 . S
C1109 C1114 1.350 . S
C1109 N1117 1.427 . S
C1110 H1101 0.930 . S
C1110 C1108 1.378 . S
C1110 C1111 1.367 . S
C1111 C1110 1.367 . S
C1111 C1113 1.433 . S
C1112 C1108 1.350 . S
C1112 C1109 1.463 . S
C1112 N1116 1.427 . S
C1113 H1103 0.929 . S
C1113 C1111 1.433 . S
C1113 N1116 1.384 . S
C1114 H1105 0.929 . S
C1114 C1106 1.378 . S
C1114 C1109 1.350 . S
C1115 H1102 0.929 . S
C1115 C1107 1.433 . S
C1115 N1117 1.384 . S
N1116 C1112 1.427 . S
N1116 C1113 1.384 . S
N1117 C1109 1.427 . S
N1117 C1115 1.384 . S
H1118 C1124 0.930 . S
H1119 C1128 0.930 . S
H1120 C1133 0.929 . S
H1121 C1131 0.929 . S
H1122 C1126 0.929 . S
H1123 C1132 0.929 . S
C1124 H1118 0.930 . S
C1124 C1125 1.367 . S
C1124 C1132 1.378 . S
C1125 C1124 1.367 . S
C1125 C1133 1.433 . S
C1126 H1122 0.929 . S
C1126 C1128 1.378 . S
C1126 C1130 1.350 . S
C1127 C1130 1.463 . S
C1127 C1132 1.350 . S
C1127 N1135 1.427 . S
C1128 H1119 0.930 . S
C1128 C1126 1.378 . S
C1128 C1129 1.367 . S
C1129 C1128 1.367 . S
C1129 C1131 1.433 . S
C1130 C1126 1.350 . S
C1130 C1127 1.463 . S
C1130 N1134 1.427 . S
C1131 H1121 0.929 . S
C1131 C1129 1.433 . S
C1131 N1134 1.384 . S
C1132 H1123 0.929 . S
C1132 C1124 1.378 . S
C1132 C1127 1.350 . S
C1133 H1120 0.929 . S
C1133 C1125 1.433 . S
C1133 N1135 1.384 . S
N1134 C1130 1.427 . S
N1134 C1131 1.384 . S
N1135 C1127 1.427 . S
N1135 C1133 1.384 . S
H1136 C1142 0.930 . S
H1137 C1146 0.930 . S
H1138 C1151 0.929 . S
H1139 C1149 0.929 . S
H1140 C1144 0.929 . S
H1141 C1150 0.929 . S
C1142 H1136 0.930 . S
C1142 C1143 1.367 . S
C1142 C1150 1.378 . S
C1143 C1142 1.367 . S
C1143 C1151 1.433 . S
C1144 H1140 0.929 . S
C1144 C1146 1.378 . S
C1144 C1148 1.350 . S
C1145 C1148 1.463 . S
C1145 C1150 1.350 . S
C1145 N1153 1.427 . S
C1146 H1137 0.930 . S
C1146 C1144 1.378 . S
C1146 C1147 1.367 . S
C1147 C1146 1.367 . S
C1147 C1149 1.433 . S
C1148 C1144 1.350 . S
C1148 C1145 1.463 . S
C1148 N1152 1.427 . S
C1149 H1139 0.929 . S
C1149 C1147 1.433 . S
C1149 N1152 1.384 . S
C1150 H1141 0.929 . S
C1150 C1142 1.378 . S
C1150 C1145 1.350 . S
C1151 H1138 0.929 . S
C1151 C1143 1.433 . S
C1151 N1153 1.384 . S
N1152 C1148 1.427 . S
N1152 C1149 1.384 . S
N1153 C1145 1.427 . S
N1153 C1151 1.384 . S
H1154 C1160 0.930 . S
H1155 C1164 0.930 . S
H1156 C1169 0.929 . S
H1157 C1167 0.929 . S
H1158 C1162 0.929 . S
H1159 C1168 0.929 . S
C1160 H1154 0.930 . S
C1160 C1161 1.367 . S
C1160 C1168 1.378 . S
C1161 C1160 1.367 . S
C1161 C1169 1.433 . S
C1162 H1158 0.929 . S
C1162 C1164 1.378 . S
C1162 C1166 1.350 . S
C1163 C1166 1.463 . S
C1163 C1168 1.350 . S
C1163 N1171 1.427 . S
C1164 H1155 0.930 . S
C1164 C1162 1.378 . S
C1164 C1165 1.367 . S
C1165 C1164 1.367 . S
C1165 C1167 1.433 . S
C1166 C1162 1.350 . S
C1166 C1163 1.463 . S
C1166 N1170 1.427 . S
C1167 H1157 0.929 . S
C1167 C1165 1.433 . S
C1167 N1170 1.384 . S
C1168 H1159 0.929 . S
C1168 C1160 1.378 . S
C1168 C1163 1.350 . S
C1169 H1156 0.929 . S
C1169 C1161 1.433 . S
C1169 N1171 1.384 . S
N1170 C1166 1.427 . S
N1170 C1167 1.384 . S
N1171 C1163 1.427 . S
N1171 C1169 1.384 . S
H1172 C1178 0.930 . S
H1173 C1182 0.930 . S
H1174 C1187 0.929 . S
H1175 C1185 0.929 . S
H1176 C1180 0.929 . S
H1177 C1186 0.929 . S
C1178 H1172 0.930 . S
C1178 C1179 1.367 . S
C1178 C1186 1.378 . S
C1179 C1178 1.367 . S
C1179 C1187 1.433 . S
C1180 H1176 0.929 . S
C1180 C1182 1.378 . S
C1180 C1184 1.350 . S
C1181 C1184 1.463 . S
C1181 C1186 1.350 . S
C1181 N1189 1.427 . S
C1182 H1173 0.930 . S
C1182 C1180 1.378 . S
C1182 C1183 1.367 . S
C1183 C1182 1.367 . S
C1183 C1185 1.433 . S
C1184 C1180 1.350 . S
C1184 C1181 1.463 . S
C1184 N1188 1.427 . S
C1185 H1175 0.929 . S
C1185 C1183 1.433 . S
C1185 N1188 1.384 . S
C1186 H1177 0.929 . S
C1186 C1178 1.378 . S
C1186 C1181 1.350 . S
C1187 H1174 0.929 . S
C1187 C1179 1.433 . S
C1187 N1189 1.384 . S
N1188 C1184 1.427 . S
N1188 C1185 1.384 . S
N1189 C1181 1.427 . S
N1189 C1187 1.384 . S
H1190 C1196 0.930 . S
H1191 C1200 0.930 . S
H1192 C1205 0.929 . S
H1193 C1203 0.929 . S
H1194 C1198 0.929 . S
H1195 C1204 0.929 . S
C1196 H1190 0.930 . S
C1196 C1197 1.367 . S
C1196 C1204 1.378 . S
C1197 C1196 1.367 . S
C1197 C1205 1.433 . S
C1198 H1194 0.929 . S
C1198 C1200 1.378 . S
C1198 C1202 1.350 . S
C1199 C1202 1.463 . S
C1199 C1204 1.350 . S
C1199 N1207 1.427 . S
C1200 H1191 0.930 . S
C1200 C1198 1.378 . S
C1200 C1201 1.367 . S
C1201 C1200 1.367 . S
C1201 C1203 1.433 . S
C1202 C1198 1.350 . S
C1202 C1199 1.463 . S
C1202 N1206 1.427 . S
C1203 H1193 0.929 . S
C1203 C1201 1.433 . S
C1203 N1206 1.384 . S
C1204 H1195 0.929 . S
C1204 C1196 1.378 . S
C1204 C1199 1.350 . S
C1205 H1192 0.929 . S
C1205 C1197 1.433 . S
C1205 N1207 1.384 . S
N1206 C1202 1.427 . S
N1206 C1203 1.384 . S
N1207 C1199 1.427 . S
N1207 C1205 1.384 . S
H1208 C1214 0.930 . S
H1209 C1218 0.930 . S
H1210 C1223 0.929 . S
H1211 C1221 0.929 . S
H1212 C1216 0.929 . S
H1213 C1222 0.929 . S
C1214 H1208 0.930 . S
C1214 C1215 1.367 . S
C1214 C1222 1.378 . S
C1215 C1214 1.367 . S
C1215 C1223 1.433 . S
C1216 H1212 0.929 . S
C1216 C1218 1.378 . S
C1216 C1220 1.350 . S
C1217 C1220 1.463 . S
C1217 C1222 1.350 . S
C1217 N1225 1.427 . S
C1218 H1209 0.930 . S
C1218 C1216 1.378 . S
C1218 C1219 1.367 . S
C1219 C1218 1.367 . S
C1219 C1221 1.433 . S
C1220 C1216 1.350 . S
C1220 C1217 1.463 . S
C1220 N1224 1.427 . S
C1221 H1211 0.929 . S
C1221 C1219 1.433 . S
C1221 N1224 1.384 . S
C1222 H1213 0.929 . S
C1222 C1214 1.378 . S
C1222 C1217 1.350 . S
C1223 H1210 0.929 . S
C1223 C1215 1.433 . S
C1223 N1225 1.384 . S
N1224 C1220 1.427 . S
N1224 C1221 1.384 . S
N1225 C1217 1.427 . S
N1225 C1223 1.384 . S
H1226 C1232 0.930 . S
H1227 C1236 0.930 . S
H1228 C1241 0.929 . S
H1229 C1239 0.929 . S
H1230 C1234 0.929 . S
H1231 C1240 0.929 . S
C1232 H1226 0.930 . S
C1232 C1233 1.367 . S
C1232 C1240 1.378 . S
C1233 C1232 1.367 . S
C1233 C1241 1.433 . S
C1234 H1230 0.929 . S
C1234 C1236 1.378 . S
C1234 C1238 1.350 . S
C1235 C1238 1.463 . S
C1235 C1240 1.350 . S
C1235 N1243 1.427 . S
C1236 H1227 0.930 . S
C1236 C1234 1.378 . S
C1236 C1237 1.367 . S
C1237 C1236 1.367 . S
C1237 C1239 1.433 . S
C1238 C1234 1.350 . S
C1238 C1235 1.463 . S
C1238 N1242 1.427 . S
C1239 H1229 0.929 . S
C1239 C1237 1.433 . S
C1239 N1242 1.384 . S
C1240 H1231 0.929 . S
C1240 C1232 1.378 . S
C1240 C1235 1.350 . S
C1241 H1228 0.929 . S
C1241 C1233 1.433 . S
C1241 N1243 1.384 . S
N1242 C1238 1.427 . S
N1242 C1239 1.384 . S
N1243 C1235 1.427 . S
N1243 C1241 1.384 . S
H1244 C1250 0.930 . S
H1245 C1254 0.930 . S
H1246 C1259 0.929 . S
H1247 C1257 0.929 . S
H1248 C1252 0.929 . S
H1249 C1258 0.929 . S
C1250 H1244 0.930 . S
C1250 C1251 1.367 . S
C1250 C1258 1.378 . S
C1251 C1250 1.367 . S
C1251 C1259 1.433 . S
C1252 H1248 0.929 . S
C1252 C1254 1.378 . S
C1252 C1256 1.350 . S
C1253 C1256 1.463 . S
C1253 C1258 1.350 . S
C1253 N1261 1.427 . S
C1254 H1245 0.930 . S
C1254 C1252 1.378 . S
C1254 C1255 1.367 . S
C1255 C1254 1.367 . S
C1255 C1257 1.433 . S
C1256 C1252 1.350 . S
C1256 C1253 1.463 . S
C1256 N1260 1.427 . S
C1257 H1247 0.929 . S
C1257 C1255 1.433 . S
C1257 N1260 1.384 . S
C1258 H1249 0.929 . S
C1258 C1250 1.378 . S
C1258 C1253 1.350 . S
C1259 H1246 0.929 . S
C1259 C1251 1.433 . S
C1259 N1261 1.384 . S
N1260 C1256 1.427 . S
N1260 C1257 1.384 . S
N1261 C1253 1.427 . S
N1261 C1259 1.384 . S
H1262 C1268 0.930 . S
H1263 C1272 0.930 . S
H1264 C1277 0.929 . S
H1265 C1275 0.929 . S
H1266 C1270 0.929 . S
H1267 C1276 0.929 . S
C1268 H1262 0.930 . S
C1268 C1269 1.367 . S
C1268 C1276 1.378 . S
C1269 C1268 1.367 . S
C1269 C1277 1.433 . S
C1270 H1266 0.929 . S
C1270 C1272 1.378 . S
C1270 C1274 1.350 . S
C1271 C1274 1.463 . S
C1271 C1276 1.350 . S
C1271 N1279 1.427 . S
C1272 H1263 0.930 . S
C1272 C1270 1.378 . S
C1272 C1273 1.367 . S
C1273 C1272 1.367 . S
C1273 C1275 1.433 . S
C1274 C1270 1.350 . S
C1274 C1271 1.463 . S
C1274 N1278 1.427 . S
C1275 H1265 0.929 . S
C1275 C1273 1.433 . S
C1275 N1278 1.384 . S
C1276 H1267 0.929 . S
C1276 C1268 1.378 . S
C1276 C1271 1.350 . S
C1277 H1264 0.929 . S
C1277 C1269 1.433 . S
C1277 N1279 1.384 . S
N1278 C1274 1.427 . S
N1278 C1275 1.384 . S
N1279 C1271 1.427 . S
N1279 C1277 1.384 . S
H1280 C1286 0.930 . S
H1281 C1290 0.930 . S
H1282 C1295 0.929 . S
H1283 C1293 0.929 . S
H1284 C1288 0.929 . S
H1285 C1294 0.929 . S
C1286 H1280 0.930 . S
C1286 C1287 1.367 . S
C1286 C1294 1.378 . S
C1287 C1286 1.367 . S
C1287 C1295 1.433 . S
C1288 H1284 0.929 . S
C1288 C1290 1.378 . S
C1288 C1292 1.350 . S
C1289 C1292 1.463 . S
C1289 C1294 1.350 . S
C1289 N1297 1.427 . S
C1290 H1281 0.930 . S
C1290 C1288 1.378 . S
C1290 C1291 1.367 . S
C1291 C1290 1.367 . S
C1291 C1293 1.433 . S
C1292 C1288 1.350 . S
C1292 C1289 1.463 . S
C1292 N1296 1.427 . S
C1293 H1283 0.929 . S
C1293 C1291 1.433 . S
C1293 N1296 1.384 . S
C1294 H1285 0.929 . S
C1294 C1286 1.378 . S
C1294 C1289 1.350 . S
C1295 H1282 0.929 . S
C1295 C1287 1.433 . S
C1295 N1297 1.384 . S
N1296 C1292 1.427 . S
N1296 C1293 1.384 . S
N1297 C1289 1.427 . S
N1297 C1295 1.384 . S
H1298 C1304 0.930 . S
H1299 C1308 0.930 . S
H1300 C1313 0.929 . S
H1301 C1311 0.929 . S
H1302 C1306 0.929 . S
H1303 C1312 0.929 . S
C1304 H1298 0.930 . S
C1304 C1305 1.367 . S
C1304 C1312 1.378 . S
C1305 C1304 1.367 . S
C1305 C1313 1.433 . S
C1306 H1302 0.929 . S
C1306 C1308 1.378 . S
C1306 C1310 1.350 . S
C1307 C1310 1.463 . S
C1307 C1312 1.350 . S
C1307 N1315 1.427 . S
C1308 H1299 0.930 . S
C1308 C1306 1.378 . S
C1308 C1309 1.367 . S
C1309 C1308 1.367 . S
C1309 C1311 1.433 . S
C1310 C1306 1.350 . S
C1310 C1307 1.463 . S
C1310 N1314 1.427 . S
C1311 H1301 0.929 . S
C1311 C1309 1.433 . S
C1311 N1314 1.384 . S
C1312 H1303 0.929 . S
C1312 C1304 1.378 . S
C1312 C1307 1.350 . S
C1313 H1300 0.929 . S
C1313 C1305 1.433 . S
C1313 N1315 1.384 . S
N1314 C1310 1.427 . S
N1314 C1311 1.384 . S
N1315 C1307 1.427 . S
N1315 C1313 1.384 . S
H1316 C1322 0.930 . S
H1317 C1326 0.930 . S
H1318 C1331 0.929 . S
H1319 C1329 0.929 . S
H1320 C1324 0.929 . S
H1321 C1330 0.929 . S
C1322 H1316 0.930 . S
C1322 C1323 1.367 . S
C1322 C1330 1.378 . S
C1323 C1322 1.367 . S
C1323 C1331 1.433 . S
C1324 H1320 0.929 . S
C1324 C1326 1.378 . S
C1324 C1328 1.350 . S
C1325 C1328 1.463 . S
C1325 C1330 1.350 . S
C1325 N1333 1.427 . S
C1326 H1317 0.930 . S
C1326 C1324 1.378 . S
C1326 C1327 1.367 . S
C1327 C1326 1.367 . S
C1327 C1329 1.433 . S
C1328 C1324 1.350 . S
C1328 C1325 1.463 . S
C1328 N1332 1.427 . S
C1329 H1319 0.929 . S
C1329 C1327 1.433 . S
C1329 N1332 1.384 . S
C1330 H1321 0.929 . S
C1330 C1322 1.378 . S
C1330 C1325 1.350 . S
C1331 H1318 0.929 . S
C1331 C1323 1.433 . S
C1331 N1333 1.384 . S
N1332 C1328 1.427 . S
N1332 C1329 1.384 . S
N1333 C1325 1.427 . S
N1333 C1331 1.384 . S
H1334 C1340 0.930 . S
H1335 C1344 0.930 . S
H1336 C1349 0.929 . S
H1337 C1347 0.929 . S
H1338 C1342 0.929 . S
H1339 C1348 0.929 . S
C1340 H1334 0.930 . S
C1340 C1341 1.367 . S
C1340 C1348 1.378 . S
C1341 C1340 1.367 . S
C1341 C1349 1.433 . S
C1342 H1338 0.929 . S
C1342 C1344 1.378 . S
C1342 C1346 1.350 . S
C1343 C1346 1.463 . S
C1343 C1348 1.350 . S
C1343 N1351 1.427 . S
C1344 H1335 0.930 . S
C1344 C1342 1.378 . S
C1344 C1345 1.367 . S
C1345 C1344 1.367 . S
C1345 C1347 1.433 . S
C1346 C1342 1.350 . S
C1346 C1343 1.463 . S
C1346 N1350 1.427 . S
C1347 H1337 0.929 . S
C1347 C1345 1.433 . S
C1347 N1350 1.384 . S
C1348 H1339 0.929 . S
C1348 C1340 1.378 . S
C1348 C1343 1.350 . S
C1349 H1336 0.929 . S
C1349 C1341 1.433 . S
C1349 N1351 1.384 . S
N1350 C1346 1.427 . S
N1350 C1347 1.384 . S
N1351 C1343 1.427 . S
N1351 C1349 1.384 . S
H1352 C1358 0.930 . S
H1353 C1362 0.930 . S
H1354 C1367 0.929 . S
H1355 C1365 0.929 . S
H1356 C1360 0.929 . S
H1357 C1366 0.929 . S
C1358 H1352 0.930 . S
C1358 C1359 1.367 . S
C1358 C1366 1.378 . S
C1359 C1358 1.367 . S
C1359 C1367 1.433 . S
C1360 H1356 0.929 . S
C1360 C1362 1.378 . S
C1360 C1364 1.350 . S
C1361 C1364 1.463 . S
C1361 C1366 1.350 . S
C1361 N1369 1.427 . S
C1362 H1353 0.930 . S
C1362 C1360 1.378 . S
C1362 C1363 1.367 . S
C1363 C1362 1.367 . S
C1363 C1365 1.433 . S
C1364 C1360 1.350 . S
C1364 C1361 1.463 . S
C1364 N1368 1.427 . S
C1365 H1355 0.929 . S
C1365 C1363 1.433 . S
C1365 N1368 1.384 . S
C1366 H1357 0.929 . S
C1366 C1358 1.378 . S
C1366 C1361 1.350 . S
C1367 H1354 0.929 . S
C1367 C1359 1.433 . S
C1367 N1369 1.384 . S
N1368 C1364 1.427 . S
N1368 C1365 1.384 . S
N1369 C1361 1.427 . S
N1369 C1367 1.384 . S
H1370 C1376 0.930 . S
H1371 C1380 0.930 . S
H1372 C1385 0.929 . S
H1373 C1383 0.929 . S
H1374 C1378 0.929 . S
H1375 C1384 0.929 . S
C1376 H1370 0.930 . S
C1376 C1377 1.367 . S
C1376 C1384 1.378 . S
C1377 C1376 1.367 . S
C1377 C1385 1.433 . S
C1378 H1374 0.929 . S
C1378 C1380 1.378 . S
C1378 C1382 1.350 . S
C1379 C1382 1.463 . S
C1379 C1384 1.350 . S
C1379 N1387 1.427 . S
C1380 H1371 0.930 . S
C1380 C1378 1.378 . S
C1380 C1381 1.367 . S
C1381 C1380 1.367 . S
C1381 C1383 1.433 . S
C1382 C1378 1.350 . S
C1382 C1379 1.463 . S
C1382 N1386 1.427 . S
C1383 H1373 0.929 . S
C1383 C1381 1.433 . S
C1383 N1386 1.384 . S
C1384 H1375 0.929 . S
C1384 C1376 1.378 . S
C1384 C1379 1.350 . S
C1385 H1372 0.929 . S
C1385 C1377 1.433 . S
C1385 N1387 1.384 . S
N1386 C1382 1.427 . S
N1386 C1383 1.384 . S
N1387 C1379 1.427 . S
N1387 C1385 1.384 . S
H1388 C1394 0.930 . S
H1389 C1398 0.930 . S
H1390 C1403 0.929 . S
H1391 C1401 0.929 . S
H1392 C1396 0.929 . S
H1393 C1402 0.929 . S
C1394 H1388 0.930 . S
C1394 C1395 1.367 . S
C1394 C1402 1.378 . S
C1395 C1394 1.367 . S
C1395 C1403 1.433 . S
C1396 H1392 0.929 . S
C1396 C1398 1.378 . S
C1396 C1400 1.350 . S
C1397 C1400 1.463 . S
C1397 C1402 1.350 . S
C1397 N1405 1.427 . S
C1398 H1389 0.930 . S
C1398 C1396 1.378 . S
C1398 C1399 1.367 . S
C1399 C1398 1.367 . S
C1399 C1401 1.433 . S
C1400 C1396 1.350 . S
C1400 C1397 1.463 . S
C1400 N1404 1.427 . S
C1401 H1391 0.929 . S
C1401 C1399 1.433 . S
C1401 N1404 1.384 . S
C1402 H1393 0.929 . S
C1402 C1394 1.378 . S
C1402 C1397 1.350 . S
C1403 H1390 0.929 . S
C1403 C1395 1.433 . S
C1403 N1405 1.384 . S
N1404 C1400 1.427 . S
N1404 C1401 1.384 . S
N1405 C1397 1.427 . S
N1405 C1403 1.384 . S
H1406 C1412 0.930 . S
H1407 C1416 0.930 . S
H1408 C1421 0.929 . S
H1409 C1419 0.929 . S
H1410 C1414 0.929 . S
H1411 C1420 0.929 . S
C1412 H1406 0.930 . S
C1412 C1413 1.367 . S
C1412 C1420 1.378 . S
C1413 C1412 1.367 . S
C1413 C1421 1.433 . S
C1414 H1410 0.929 . S
C1414 C1416 1.378 . S
C1414 C1418 1.350 . S
C1415 C1418 1.463 . S
C1415 C1420 1.350 . S
C1415 N1423 1.427 . S
C1416 H1407 0.930 . S
C1416 C1414 1.378 . S
C1416 C1417 1.367 . S
C1417 C1416 1.367 . S
C1417 C1419 1.433 . S
C1418 C1414 1.350 . S
C1418 C1415 1.463 . S
C1418 N1422 1.427 . S
C1419 H1409 0.929 . S
C1419 C1417 1.433 . S
C1419 N1422 1.384 . S
C1420 H1411 0.929 . S
C1420 C1412 1.378 . S
C1420 C1415 1.350 . S
C1421 H1408 0.929 . S
C1421 C1413 1.433 . S
C1421 N1423 1.384 . S
N1422 C1418 1.427 . S
N1422 C1419 1.384 . S
N1423 C1415 1.427 . S
N1423 C1421 1.384 . S
H1424 C1430 0.930 . S
H1425 C1434 0.930 . S
H1426 C1439 0.929 . S
H1427 C1437 0.929 . S
H1428 C1432 0.929 . S
H1429 C1438 0.929 . S
C1430 H1424 0.930 . S
C1430 C1431 1.367 . S
C1430 C1438 1.378 . S
C1431 C1430 1.367 . S
C1431 C1439 1.433 . S
C1432 H1428 0.929 . S
C1432 C1434 1.378 . S
C1432 C1436 1.350 . S
C1433 C1436 1.463 . S
C1433 C1438 1.350 . S
C1433 N1441 1.427 . S
C1434 H1425 0.930 . S
C1434 C1432 1.378 . S
C1434 C1435 1.367 . S
C1435 C1434 1.367 . S
C1435 C1437 1.433 . S
C1436 C1432 1.350 . S
C1436 C1433 1.463 . S
C1436 N1440 1.427 . S
C1437 H1427 0.929 . S
C1437 C1435 1.433 . S
C1437 N1440 1.384 . S
C1438 H1429 0.929 . S
C1438 C1430 1.378 . S
C1438 C1433 1.350 . S
C1439 H1426 0.929 . S
C1439 C1431 1.433 . S
C1439 N1441 1.384 . S
N1440 C1436 1.427 . S
N1440 C1437 1.384 . S
N1441 C1433 1.427 . S
N1441 C1439 1.384 . S
H1442 C1448 0.930 . S
H1443 C1452 0.930 . S
H1444 C1457 0.929 . S
H1445 C1455 0.929 . S
H1446 C1450 0.929 . S
H1447 C1456 0.929 . S
C1448 H1442 0.930 . S
C1448 C1449 1.367 . S
C1448 C1456 1.378 . S
C1449 C1448 1.367 . S
C1449 C1457 1.433 . S
C1450 H1446 0.929 . S
C1450 C1452 1.378 . S
C1450 C1454 1.350 . S
C1451 C1454 1.463 . S
C1451 C1456 1.350 . S
C1451 N1459 1.427 . S
C1452 H1443 0.930 . S
C1452 C1450 1.378 . S
C1452 C1453 1.367 . S
C1453 C1452 1.367 . S
C1453 C1455 1.433 . S
C1454 C1450 1.350 . S
C1454 C1451 1.463 . S
C1454 N1458 1.427 . S
C1455 H1445 0.929 . S
C1455 C1453 1.433 . S
C1455 N1458 1.384 . S
C1456 H1447 0.929 . S
C1456 C1448 1.378 . S
C1456 C1451 1.350 . S
C1457 H1444 0.929 . S
C1457 C1449 1.433 . S
C1457 N1459 1.384 . S
N1458 C1454 1.427 . S
N1458 C1455 1.384 . S
N1459 C1451 1.427 . S
N1459 C1457 1.384 . S
H1460 C1466 0.930 . S
H1461 C1470 0.930 . S
H1462 C1475 0.929 . S
H1463 C1473 0.929 . S
H1464 C1468 0.929 . S
H1465 C1474 0.929 . S
C1466 H1460 0.930 . S
C1466 C1467 1.367 . S
C1466 C1474 1.378 . S
C1467 C1466 1.367 . S
C1467 C1475 1.433 . S
C1468 H1464 0.929 . S
C1468 C1470 1.378 . S
C1468 C1472 1.350 . S
C1469 C1472 1.463 . S
C1469 C1474 1.350 . S
C1469 N1477 1.427 . S
C1470 H1461 0.930 . S
C1470 C1468 1.378 . S
C1470 C1471 1.367 . S
C1471 C1470 1.367 . S
C1471 C1473 1.433 . S
C1472 C1468 1.350 . S
C1472 C1469 1.463 . S
C1472 N1476 1.427 . S
C1473 H1463 0.929 . S
C1473 C1471 1.433 . S
C1473 N1476 1.384 . S
C1474 H1465 0.929 . S
C1474 C1466 1.378 . S
C1474 C1469 1.350 . S
C1475 H1462 0.929 . S
C1475 C1467 1.433 . S
C1475 N1477 1.384 . S
N1476 C1472 1.427 . S
N1476 C1473 1.384 . S
N1477 C1469 1.427 . S
N1477 C1475 1.384 . S
H1478 C1484 0.930 . S
H1479 C1488 0.930 . S
H1480 C1493 0.929 . S
H1481 C1491 0.929 . S
H1482 C1486 0.929 . S
H1483 C1492 0.929 . S
C1484 H1478 0.930 . S
C1484 C1485 1.367 . S
C1484 C1492 1.378 . S
C1485 C1484 1.367 . S
C1485 C1493 1.433 . S
C1486 H1482 0.929 . S
C1486 C1488 1.378 . S
C1486 C1490 1.350 . S
C1487 C1490 1.463 . S
C1487 C1492 1.350 . S
C1487 N1495 1.427 . S
C1488 H1479 0.930 . S
C1488 C1486 1.378 . S
C1488 C1489 1.367 . S
C1489 C1488 1.367 . S
C1489 C1491 1.433 . S
C1490 C1486 1.350 . S
C1490 C1487 1.463 . S
C1490 N1494 1.427 . S
C1491 H1481 0.929 . S
C1491 C1489 1.433 . S
C1491 N1494 1.384 . S
C1492 H1483 0.929 . S
C1492 C1484 1.378 . S
C1492 C1487 1.350 . S
C1493 H1480 0.929 . S
C1493 C1485 1.433 . S
C1493 N1495 1.384 . S
N1494 C1490 1.427 . S
N1494 C1491 1.384 . S
N1495 C1487 1.427 . S
N1495 C1493 1.384 . S
C931 C525 1.590 . S
C927 C47 1.470 . S
C949 C578 1.335 . S
C945 C115 1.307 . S
C967 C641 1.580 . S
C963 C153 1.458 . S
C985 C684 1.433 . S
C981 C233 1.320 . S
C999 C283 1.522 . S
C1003 C640 1.554 . S
C1021 C677 1.429 . S
C1017 C357 1.335 . S
C1039 C518 1.629 . S
C1035 C401 1.497 . S
C1057 C571 1.344 . S
C1053 C463 1.219 . S
C1075 C624 1.429 . S
C1071 C469 1.381 . S
C1093 C693 1.808 . S
C1089 C277 1.685 . S
C1111 C534 1.575 . S
C1107 C363 1.557 . S
C1129 C587 1.621 . S
C1125 C407 1.594 . S
C1147 C535 1.568 . S
C1143 C109 1.452 . S
C1165 C588 1.686 . S
C1161 C159 1.639 . S
C1183 C631 1.410 . S
C1179 C239 1.374 . S
C1201 C694 1.730 . S
C1197 C53 1.700 . S
C1219 C737 1.573 . S
C1215 C481 1.452 . S
C1233 C301 1.653 . S
C1237 C790 1.696 . S
C1251 C339 1.463 . S
C1255 C852 1.597 . S
C1269 C419 1.698 . S
C1273 C906 1.839 . S
C1287 C97 1.476 . S
C1291 C853 1.515 . S
C1305 C171 1.740 . S
C1309 C905 1.862 . S
C1323 C215 1.513 . S
C1327 C730 1.644 . S
C1345 C783 1.726 . S
C1341 C29 1.560 . S
C1363 C843 1.400 . S
C1359 C35 1.353 . S
C1377 C91 1.249 . S
C1381 C889 1.356 . S
C1395 C177 1.596 . S
C1399 C746 1.611 . S
C1413 C221 1.240 . S
C1417 C799 1.255 . S
C1435 C747 1.552 . S
C1431 C295 1.432 . S
C1453 C800 1.305 . S
C1449 C345 1.271 . S
C1467 C425 1.393 . S
C1471 C836 1.429 . S
C1489 C896 1.305 . S
C1485 C487 1.287 . S
