# Generated by pormake.
# Topology eea, (3,6)-cn, num edge types: 1
# Building blocks:
#     Node 0, Type 0, BuildingBlock: ESEHIV_clean_linker_0, # of connection points: 3
#     Node 1, Type 0, BuildingBlock: ESEHIV_clean_linker_0, # of connection points: 3
#     Node 2, Type 0, BuildingBlock: ESEHIV_clean_linker_0, # of connection points: 3
#     Node 3, Type 0, BuildingBlock: ESEHIV_clean_linker_0, # of connection points: 3
#     Node 4, Type 0, BuildingBlock: ESEHIV_clean_linker_0, # of connection points: 3
#     Node 5, Type 0, BuildingBlock: ESEHIV_clean_linker_0, # of connection points: 3
#     Node 6, Type 0, BuildingBlock: ESEHIV_clean_linker_0, # of connection points: 3
#     Node 7, Type 0, BuildingBlock: ESEHIV_clean_linker_0, # of connection points: 3
#     Node 8, Type 0, BuildingBlock: ESEHIV_clean_linker_0, # of connection points: 3
#     Node 9, Type 0, BuildingBlock: ESEHIV_clean_linker_0, # of connection points: 3
#     Node 10, Type 0, BuildingBlock: ESEHIV_clean_linker_0, # of connection points: 3
#     Node 11, Type 0, BuildingBlock: ESEHIV_clean_linker_0, # of connection points: 3
#     Node 12, Type 0, BuildingBlock: ESEHIV_clean_linker_0, # of connection points: 3
#     Node 13, Type 0, BuildingBlock: ESEHIV_clean_linker_0, # of connection points: 3
#     Node 14, Type 0, BuildingBlock: ESEHIV_clean_linker_0, # of connection points: 3
#     Node 15, Type 0, BuildingBlock: ESEHIV_clean_linker_0, # of connection points: 3
#     Node 16, Type 0, BuildingBlock: ESEHIV_clean_linker_0, # of connection points: 3
#     Node 17, Type 0, BuildingBlock: ESEHIV_clean_linker_0, # of connection points: 3
#     Node 18, Type 1, BuildingBlock: CUWYAW_clean_sbu_0, # of connection points: 6
#     Node 19, Type 1, BuildingBlock: CUWYAW_clean_sbu_0, # of connection points: 6
#     Node 20, Type 1, BuildingBlock: CUWYAW_clean_sbu_0, # of connection points: 6
#     Node 21, Type 1, BuildingBlock: CUWYAW_clean_sbu_0, # of connection points: 6
#     Node 22, Type 1, BuildingBlock: CUWYAW_clean_sbu_0, # of connection points: 6
#     Node 23, Type 1, BuildingBlock: CUWYAW_clean_sbu_0, # of connection points: 6
#     Node 24, Type 1, BuildingBlock: CUWYAW_clean_sbu_0, # of connection points: 6
#     Node 25, Type 1, BuildingBlock: CUWYAW_clean_sbu_0, # of connection points: 6
#     Node 26, Type 1, BuildingBlock: CUWYAW_clean_sbu_0, # of connection points: 6
#     Edge 27, Type (0, 1), BuildingBlock: CIFDUS_clean_linker_0, # of connection points: 2
#     Edge 28, Type (0, 1), BuildingBlock: CIFDUS_clean_linker_0, # of connection points: 2
#     Edge 29, Type (0, 1), BuildingBlock: CIFDUS_clean_linker_0, # of connection points: 2
#     Edge 30, Type (0, 1), BuildingBlock: CIFDUS_clean_linker_0, # of connection points: 2
#     Edge 31, Type (0, 1), BuildingBlock: CIFDUS_clean_linker_0, # of connection points: 2
#     Edge 32, Type (0, 1), BuildingBlock: CIFDUS_clean_linker_0, # of connection points: 2
#     Edge 33, Type (0, 1), BuildingBlock: CIFDUS_clean_linker_0, # of connection points: 2
#     Edge 34, Type (0, 1), BuildingBlock: CIFDUS_clean_linker_0, # of connection points: 2
#     Edge 35, Type (0, 1), BuildingBlock: CIFDUS_clean_linker_0, # of connection points: 2
#     Edge 36, Type (0, 1), BuildingBlock: CIFDUS_clean_linker_0, # of connection points: 2
#     Edge 37, Type (0, 1), BuildingBlock: CIFDUS_clean_linker_0, # of connection points: 2
#     Edge 38, Type (0, 1), BuildingBlock: CIFDUS_clean_linker_0, # of connection points: 2
#     Edge 39, Type (0, 1), BuildingBlock: CIFDUS_clean_linker_0, # of connection points: 2
#     Edge 40, Type (0, 1), BuildingBlock: CIFDUS_clean_linker_0, # of connection points: 2
#     Edge 41, Type (0, 1), BuildingBlock: CIFDUS_clean_linker_0, # of connection points: 2
#     Edge 42, Type (0, 1), BuildingBlock: CIFDUS_clean_linker_0, # of connection points: 2
#     Edge 43, Type (0, 1), BuildingBlock: CIFDUS_clean_linker_0, # of connection points: 2
#     Edge 44, Type (0, 1), BuildingBlock: CIFDUS_clean_linker_0, # of connection points: 2
#     Edge 45, Type (0, 1), BuildingBlock: CIFDUS_clean_linker_0, # of connection points: 2
#     Edge 46, Type (0, 1), BuildingBlock: CIFDUS_clean_linker_0, # of connection points: 2
#     Edge 47, Type (0, 1), BuildingBlock: CIFDUS_clean_linker_0, # of connection points: 2
#     Edge 48, Type (0, 1), BuildingBlock: CIFDUS_clean_linker_0, # of connection points: 2
#     Edge 49, Type (0, 1), BuildingBlock: CIFDUS_clean_linker_0, # of connection points: 2
#     Edge 50, Type (0, 1), BuildingBlock: CIFDUS_clean_linker_0, # of connection points: 2
#     Edge 51, Type (0, 1), BuildingBlock: CIFDUS_clean_linker_0, # of connection points: 2
#     Edge 52, Type (0, 1), BuildingBlock: CIFDUS_clean_linker_0, # of connection points: 2
#     Edge 53, Type (0, 1), BuildingBlock: CIFDUS_clean_linker_0, # of connection points: 2
#     Edge 54, Type (0, 1), BuildingBlock: CIFDUS_clean_linker_0, # of connection points: 2
#     Edge 55, Type (0, 1), BuildingBlock: CIFDUS_clean_linker_0, # of connection points: 2
#     Edge 56, Type (0, 1), BuildingBlock: CIFDUS_clean_linker_0, # of connection points: 2
#     Edge 57, Type (0, 1), BuildingBlock: CIFDUS_clean_linker_0, # of connection points: 2
#     Edge 58, Type (0, 1), BuildingBlock: CIFDUS_clean_linker_0, # of connection points: 2
#     Edge 59, Type (0, 1), BuildingBlock: CIFDUS_clean_linker_0, # of connection points: 2
#     Edge 60, Type (0, 1), BuildingBlock: CIFDUS_clean_linker_0, # of connection points: 2
#     Edge 61, Type (0, 1), BuildingBlock: CIFDUS_clean_linker_0, # of connection points: 2
#     Edge 62, Type (0, 1), BuildingBlock: CIFDUS_clean_linker_0, # of connection points: 2
#     Edge 63, Type (0, 1), BuildingBlock: CIFDUS_clean_linker_0, # of connection points: 2
#     Edge 64, Type (0, 1), BuildingBlock: CIFDUS_clean_linker_0, # of connection points: 2
#     Edge 65, Type (0, 1), BuildingBlock: CIFDUS_clean_linker_0, # of connection points: 2
#     Edge 66, Type (0, 1), BuildingBlock: CIFDUS_clean_linker_0, # of connection points: 2
#     Edge 67, Type (0, 1), BuildingBlock: CIFDUS_clean_linker_0, # of connection points: 2
#     Edge 68, Type (0, 1), BuildingBlock: CIFDUS_clean_linker_0, # of connection points: 2
#     Edge 69, Type (0, 1), BuildingBlock: CIFDUS_clean_linker_0, # of connection points: 2
#     Edge 70, Type (0, 1), BuildingBlock: CIFDUS_clean_linker_0, # of connection points: 2
#     Edge 71, Type (0, 1), BuildingBlock: CIFDUS_clean_linker_0, # of connection points: 2
#     Edge 72, Type (0, 1), BuildingBlock: CIFDUS_clean_linker_0, # of connection points: 2
#     Edge 73, Type (0, 1), BuildingBlock: CIFDUS_clean_linker_0, # of connection points: 2
#     Edge 74, Type (0, 1), BuildingBlock: CIFDUS_clean_linker_0, # of connection points: 2
#     Edge 75, Type (0, 1), BuildingBlock: CIFDUS_clean_linker_0, # of connection points: 2
#     Edge 76, Type (0, 1), BuildingBlock: CIFDUS_clean_linker_0, # of connection points: 2
#     Edge 77, Type (0, 1), BuildingBlock: CIFDUS_clean_linker_0, # of connection points: 2
#     Edge 78, Type (0, 1), BuildingBlock: CIFDUS_clean_linker_0, # of connection points: 2
#     Edge 79, Type (0, 1), BuildingBlock: CIFDUS_clean_linker_0, # of connection points: 2
#     Edge 80, Type (0, 1), BuildingBlock: CIFDUS_clean_linker_0, # of connection points: 2
# Relax obj value: 0.035
# Max RMSD: 0.131
# Mean RMSD: 0.098
data_MOF--net-eea--node1-CUWYAW_clean_sbu_0--node2-ESEHIV_clean_linker_0--edge1-CIFDUS_clean_linker_0
_symmetry_space_group_name_H-M    P1
_symmetry_Int_Tables_number       1
_symmetry_cell_setting            triclinic
loop_
_symmetry_equiv_pos_as_xyz
'x, y, z'
_cell_length_a     41.175146
_cell_length_b     40.81542
_cell_length_c     65.621261
_cell_angle_alpha  93.337709
_cell_angle_beta   92.84426
_cell_angle_gamma 119.77877
loop_
_atom_site_label
_atom_site_type_symbol
_atom_site_fract_x
_atom_site_fract_y
_atom_site_fract_z
_atom_type_partial_charge
H0 H 0.21188 0.16865 0.4473 0.0
H1 H 0.20996 0.06178 0.44122 0.0
H2 H 0.16045 0.09273 0.39242 0.0
C3 C 0.20415 0.14207 0.43854 0.0
C4 C 0.1848 0.13348 0.41899 0.0
C5 C 0.21323 0.11622 0.4468 0.0
C6 C 0.20358 0.08218 0.435 0.0
C7 C 0.18431 0.07351 0.41548 0.0
C8 C 0.17478 0.0991 0.40768 0.0
H9 H 0.8443 0.08176 0.44108 0.0
H10 H 0.93223 0.19844 0.44322 0.0
H11 H 0.91 0.12111 0.38988 0.0
C12 C 0.86667 0.10451 0.43391 0.0
C13 C 0.87505 0.09716 0.41433 0.0
C14 C 0.88731 0.14084 0.4445 0.0
C15 C 0.91659 0.17024 0.43522 0.0
C16 C 0.92439 0.16344 0.41522 0.0
C17 C 0.90382 0.12671 0.40514 0.0
H18 H 0.83219 0.7456 0.44385 0.0
H19 H 0.93056 0.73595 0.43864 0.0
H20 H 0.88365 0.76343 0.38688 0.0
C21 C 0.8537 0.74667 0.43461 0.0
C22 C 0.8539 0.75506 0.4141 0.0
C23 C 0.88076 0.73909 0.44343 0.0
C24 C 0.90945 0.74147 0.43181 0.0
C25 C 0.91114 0.75107 0.4115 0.0
C26 C 0.88281 0.75697 0.40267 0.0
H27 H 0.08654 0.26968 0.57397 0.0
H28 H 0.19132 0.27033 0.58124 0.0
H29 H 0.11237 0.22512 0.62644 0.0
C30 C 0.10524 0.26292 0.58257 0.0
C31 C 0.09531 0.2468 0.60133 0.0
C32 C 0.14008 0.27181 0.57531 0.0
C33 C 0.16451 0.2636 0.58676 0.0
C34 C 0.15486 0.24701 0.60526 0.0
C35 C 0.12028 0.23876 0.6124 0.0
H36 H 0.74207 0.91789 0.58619 0.0
H37 H 0.74131 0.81215 0.58046 0.0
H38 H 0.78931 0.88698 0.63618 0.0
C39 C 0.74815 0.89758 0.5928 0.0
C40 C 0.7658 0.90592 0.61274 0.0
C41 C 0.73974 0.8641 0.581 0.0
C42 C 0.74878 0.83847 0.5894 0.0
C43 C 0.76654 0.84623 0.60938 0.0
C44 C 0.77517 0.88027 0.62088 0.0
H45 H 0.06649 0.82017 0.56903 0.0
H46 H 0.17468 0.9213 0.57853 0.0
H47 H 0.10928 0.88025 0.62941 0.0
C48 C 0.08818 0.84315 0.57933 0.0
C49 C 0.08277 0.84647 0.60034 0.0
C50 C 0.12175 0.8693 0.57142 0.0
C51 C 0.14948 0.89996 0.58457 0.0
C52 C 0.14463 0.90428 0.60531 0.0
C53 C 0.11169 0.87726 0.61315 0.0
H54 H 0.91681 0.5159 0.77098 0.0
H55 H 0.91995 0.4123 0.76289 0.0
H56 H 0.873 0.4454 0.71374 0.0
C57 C 0.91039 0.49042 0.76149 0.0
C58 C 0.8944 0.48428 0.7412 0.0
C59 C 0.91959 0.46447 0.76937 0.0
C60 C 0.91248 0.43209 0.75686 0.0
C61 C 0.89593 0.42509 0.73671 0.0
C62 C 0.88678 0.45121 0.72909 0.0
H63 H 0.48899 0.39746 0.76488 0.0
H64 H 0.5943 0.50123 0.77627 0.0
H65 H 0.56012 0.43838 0.71622 0.0
C66 C 0.51478 0.41893 0.75938 0.0
C67 C 0.52245 0.41405 0.73927 0.0
C68 C 0.54027 0.45065 0.77265 0.0
C69 C 0.57446 0.47748 0.76567 0.0
C70 C 0.58248 0.47399 0.74516 0.0
C71 C 0.55584 0.4418 0.73215 0.0
H72 H 0.50023 0.07646 0.77674 0.0
H73 H 0.59973 0.06824 0.7848 0.0
H74 H 0.56961 0.09629 0.72714 0.0
C75 C 0.52463 0.07786 0.77041 0.0
C76 C 0.53292 0.08908 0.75062 0.0
C77 C 0.54758 0.06853 0.78239 0.0
C78 C 0.58132 0.07375 0.77508 0.0
C79 C 0.59064 0.08527 0.75523 0.0
C80 C 0.565 0.0909 0.74297 0.0
H81 H 0.74216 0.58478 0.90484 0.0
H82 H 0.84987 0.59363 0.91031 0.0
H83 H 0.78495 0.56746 0.9624 0.0
C84 C 0.76366 0.58348 0.91433 0.0
C85 C 0.75838 0.57446 0.93484 0.0
C86 C 0.79728 0.59197 0.90592 0.0
C87 C 0.82486 0.58878 0.91744 0.0
C88 C 0.82065 0.57949 0.93776 0.0
C89 C 0.78745 0.5728 0.94644 0.0
H90 H 0.46134 0.27087 0.90802 0.0
H91 H 0.46347 0.16608 0.90725 0.0
H92 H 0.50146 0.24302 0.9621 0.0
C93 C 0.46782 0.2516 0.91557 0.0
C94 C 0.4822 0.26073 0.93616 0.0
C95 C 0.46065 0.21738 0.90493 0.0
C96 C 0.46821 0.19225 0.91529 0.0
C97 C 0.48343 0.20169 0.93584 0.0
C98 C 0.48997 0.23576 0.94619 0.0
H99 H 0.73031 0.1568 0.91048 0.0
H100 H 0.84234 0.25387 0.91781 0.0
H101 H 0.77347 0.22559 0.96809 0.0
C102 C 0.75286 0.18087 0.91987 0.0
C103 C 0.74767 0.18864 0.94025 0.0
C104 C 0.7871 0.2042 0.9116 0.0
C105 C 0.81608 0.23544 0.92404 0.0
C106 C 0.81142 0.24316 0.94446 0.0
C107 C 0.77722 0.21961 0.95235 0.0
H108 H 0.55273 0.82716 0.10416 0.0
H109 H 0.56853 0.73035 0.1027 0.0
H110 H 0.52987 0.75748 0.04764 0.0
C111 C 0.55255 0.80347 0.09566 0.0
C112 C 0.5403 0.79514 0.07466 0.0
C113 C 0.56228 0.77982 0.10594 0.0
C114 C 0.56114 0.74869 0.09483 0.0
C115 C 0.54945 0.74035 0.07383 0.0
C116 C 0.53901 0.76371 0.06388 0.0
H117 H 0.15818 0.75856 0.10766 0.0
H118 H 0.25712 0.86831 0.10686 0.0
H119 H 0.21653 0.78755 0.05343 0.0
C120 C 0.18059 0.77927 0.09956 0.0
C121 C 0.18403 0.76927 0.07935 0.0
C122 C 0.20675 0.81491 0.10971 0.0
C123 C 0.23687 0.84073 0.09923 0.0
C124 C 0.24033 0.83126 0.07873 0.0
C125 C 0.21375 0.79544 0.06904 0.0
H126 H 0.17453 0.42485 0.11741 0.0
H127 H 0.2767 0.42102 0.12132 0.0
H128 H 0.23471 0.43831 0.06384 0.0
C129 C 0.19776 0.42573 0.10991 0.0
C130 C 0.20034 0.43089 0.0889 0.0
C131 C 0.22476 0.42165 0.12159 0.0
C132 C 0.25573 0.42397 0.11225 0.0
C133 C 0.26013 0.43095 0.09145 0.0
C134 C 0.23184 0.43358 0.07986 0.0
H135 H 0.4167 0.95435 0.24485 0.0
H136 H 0.51383 0.94183 0.24035 0.0
H137 H 0.44834 0.90313 0.29177 0.0
C138 C 0.43505 0.94466 0.25098 0.0
C139 C 0.42909 0.92872 0.2699 0.0
C140 C 0.46583 0.94959 0.24041 0.0
C141 C 0.48995 0.93764 0.24848 0.0
C142 C 0.48387 0.92083 0.26697 0.0
C143 C 0.45348 0.91661 0.27761 0.0
H144 H 0.14653 0.62116 0.24838 0.0
H145 H 0.15166 0.51791 0.24241 0.0
H146 H 0.18727 0.58741 0.29985 0.0
C147 C 0.15294 0.60101 0.25493 0.0
C148 C 0.16746 0.60793 0.27545 0.0
C149 C 0.14767 0.56897 0.24267 0.0
C150 C 0.15544 0.54271 0.25158 0.0
C151 C 0.16993 0.54953 0.2722 0.0
C152 C 0.1761 0.58222 0.28393 0.0
H153 H 0.40016 0.48771 0.24418 0.0
H154 H 0.50731 0.58835 0.2415 0.0
H155 H 0.45607 0.56634 0.29804 0.0
C156 C 0.42399 0.51316 0.25186 0.0
C157 C 0.42393 0.52401 0.27266 0.0
C158 C 0.45408 0.53621 0.24057 0.0
C159 C 0.48433 0.57013 0.25017 0.0
C160 C 0.48462 0.58126 0.27074 0.0
C161 C 0.45493 0.55779 0.28196 0.0
C162 C 0.55009 0.04178 0.0688 0.0
Eu163 Eu 0.52381 0.02073 0.03054 0.0
C164 C 0.53533 0.02832 0.08852 0.0
C165 C 0.54108 0.05479 0.1049 0.0
C166 C 0.52588 0.04271 0.12344 0.0
C167 C 0.50466 0.00379 0.12603 0.0
C168 C 0.49883 0.9773 0.1095 0.0
C169 C 0.51394 0.98943 0.09092 0.0
C170 C 0.50338 0.0587 1.00547 0.0
C171 C 0.43368 0.95824 0.02956 0.0
C172 C 0.45284 0.95813 0.95154 0.0
Eu173 Eu 0.47853 0.97552 0.99005 0.0
C174 C 0.46851 0.97423 0.93237 0.0
C175 C 0.45841 0.95034 0.91416 0.0
C176 C 0.47374 0.96497 0.89598 0.0
C177 C 0.49957 0.00391 0.89559 0.0
C178 C 0.5098 0.02776 0.91397 0.0
C179 C 0.49446 0.01308 0.93216 0.0
C180 C 0.50033 0.93774 0.0146 0.0
C181 C 0.56928 0.03692 0.99166 0.0
O182 O 0.55733 0.01962 0.05697 0.0
O183 O 0.53339 0.05674 0.05863 0.0
O184 O 0.53485 0.07449 0.01701 0.0
O185 O 0.48312 0.02442 0.00872 0.0
O186 O 0.46719 0.9771 0.0399 0.0
O187 O 0.42943 0.95664 0.00932 0.0
O188 O 0.44556 0.97919 0.96419 0.0
O189 O 0.46883 0.94173 0.96097 0.0
O190 O 0.46882 0.9215 1.00298 0.0
O191 O 0.51985 0.97225 0.01159 0.0
O192 O 0.5363 0.01749 0.98084 0.0
O193 O 0.57305 0.03966 0.01188 0.0
H194 H 0.55707 0.08491 0.10327 0.0
H195 H 0.53044 0.06391 0.13568 0.0
H196 H 0.48304 0.94714 0.11099 0.0
H197 H 0.50875 0.96839 0.07842 0.0
H198 H 0.43877 0.92025 0.91402 0.0
H199 H 0.46564 0.94561 0.88225 0.0
H200 H 0.52924 0.05791 0.91426 0.0
H201 H 0.50288 0.03212 0.94605 0.0
C202 C 0.99593 0.51447 0.06969 0.0
Eu203 Eu 1.00075 0.50421 0.03069 0.0
C204 C 0.01527 0.5161 0.08954 0.0
C205 C 0.02517 0.48866 0.09383 0.0
C206 C 0.04204 0.49016 0.11318 0.0
C207 C 0.04965 0.51933 0.12843 0.0
C208 C 0.04021 0.547 0.12393 0.0
C209 C 0.02311 0.54531 0.10469 0.0
C210 C 0.9574 0.44225 1.00453 0.0
C211 C 0.06694 0.48352 0.02295 0.0
C212 C 0.03396 0.49708 0.94881 0.0
Eu213 Eu 0.02792 0.50648 0.98771 0.0
C214 C 0.01384 0.4931 0.92881 0.0
C215 C 0.99921 0.51679 0.92444 0.0
C216 C 0.98277 0.5142 0.90478 0.0
C217 C 0.98054 0.48776 0.88921 0.0
C218 C 0.994 0.46319 0.89396 0.0
C219 C 0.01059 0.46596 0.91353 0.0
C220 C 0.07249 0.56806 0.01388 0.0
C221 C 0.9603 0.52543 0.99582 0.0
O222 O 0.01429 0.54242 0.05844 0.0
O223 O 0.97726 0.48142 0.05894 0.0
O224 O 0.94402 0.45444 0.01868 0.0
O225 O 0.99273 0.46072 0.00608 0.0
O226 O 0.04898 0.4929 0.03615 0.0
O227 O 0.06142 0.48324 1.00292 0.0
O228 O 0.018 0.46884 0.96019 0.0
O229 O 0.04971 0.53033 0.95938 0.0
O230 O 0.08489 0.55391 1.00015 0.0
O231 O 0.03696 0.55066 0.01232 0.0
O232 O 0.97817 0.51609 0.98249 0.0
O233 O 0.96672 0.5267 0.01581 0.0
H234 H 0.01967 0.46597 0.08232 0.0
H235 H 0.04934 0.46868 0.11619 0.0
H236 H 0.04535 0.56956 0.13544 0.0
H237 H 0.01562 0.56668 0.10171 0.0
H238 H 1.00113 0.53781 0.93606 0.0
H239 H 0.97283 0.53364 0.90165 0.0
H240 H 0.99194 0.4419 0.88249 0.0
H241 H 0.02143 0.44722 0.91665 0.0
C242 C 0.45834 0.45692 0.9492 0.0
Eu243 Eu 0.48177 0.48139 0.98761 0.0
C244 C 0.47511 0.46003 0.92945 0.0
C245 C 0.46616 0.47712 0.91388 0.0
C246 C 0.4809 0.4798 0.89492 0.0
C247 C 0.50471 0.46509 0.89097 0.0
C248 C 0.51411 0.44842 0.90671 0.0
C249 C 0.49952 0.44595 0.92576 0.0
C250 C 0.4958 0.548 0.00647 0.0
C251 C 0.5739 0.51757 0.99389 0.0
C252 C 0.54551 0.52056 0.06896 0.0
Eu253 Eu 0.522 0.4997 0.03036 0.0
C254 C 0.52938 0.52371 0.08796 0.0
C255 C 0.53944 0.51262 0.1059 0.0
C256 C 0.52417 0.51466 0.12411 0.0
C257 C 0.49861 0.528 0.12474 0.0
C258 C 0.48826 0.53881 0.10668 0.0
C259 C 0.50338 0.53649 0.08838 0.0
C260 C 0.50491 0.4323 0.01097 0.0
C261 C 0.43091 0.4647 0.02481 0.0
O262 O 0.46366 0.43692 0.9625 0.0
O263 O 0.46091 0.48794 0.95781 0.0
O264 O 0.46606 0.52596 0.99417 0.0
O265 O 0.51837 0.5354 0.00726 0.0
O266 O 0.54254 0.50054 0.98145 0.0
O267 O 0.57406 0.52419 0.0138 0.0
O268 O 0.54953 0.54445 0.05547 0.0
O269 O 0.53283 0.48605 0.06061 0.0
O270 O 0.53645 0.45408 0.0219 0.0
O271 O 0.48379 0.44631 0.01117 0.0
O272 O 0.46291 0.48615 0.0363 0.0
O273 O 0.43044 0.45392 1.00532 0.0
H274 H 0.44755 0.48832 0.91634 0.0
H275 H 0.47357 0.49345 0.88333 0.0
H276 H 0.53203 0.43644 0.90417 0.0
H277 H 0.50706 0.43269 0.93747 0.0
H278 H 0.55929 0.50249 0.10582 0.0
H279 H 0.53306 0.50665 0.13784 0.0
H280 H 0.46843 0.54894 0.10671 0.0
H281 H 0.49482 0.54472 0.07462 0.0
C282 C 0.22969 0.38323 0.40609 0.0
Eu283 Eu 0.20273 0.36615 0.36785 0.0
C284 C 0.21513 0.36707 0.42542 0.0
C285 C 0.2234 0.39133 0.4433 0.0
C286 C 0.20861 0.3767 0.46157 0.0
C287 C 0.18521 0.33739 0.46236 0.0
C288 C 0.17691 0.31313 0.44433 0.0
C289 C 0.19168 0.32781 0.42605 0.0
C290 C 0.18431 0.40644 0.34344 0.0
C291 C 0.11166 0.30761 0.36727 0.0
C292 C 0.12693 0.3062 0.28891 0.0
Eu293 Eu 0.15465 0.3227 0.32709 0.0
C294 C 0.14182 0.31918 0.26906 0.0
C295 C 0.12989 0.29283 0.25176 0.0
C296 C 0.14427 0.30425 0.23293 0.0
C297 C 0.1709 0.34237 0.23096 0.0
C298 C 0.18279 0.36879 0.24837 0.0
C299 C 0.16853 0.35729 0.26725 0.0
C300 C 0.17251 0.28202 0.3514 0.0
C301 C 0.24664 0.37962 0.32831 0.0
O302 O 0.23691 0.36255 0.39308 0.0
O303 O 0.21282 0.39929 0.39715 0.0
O304 O 0.21589 0.42114 0.35486 0.0
O305 O 0.1631 0.37236 0.34663 0.0
O306 O 0.14544 0.32473 0.37731 0.0
O307 O 0.10685 0.30663 0.34708 0.0
O308 O 0.12416 0.33059 0.30153 0.0
O309 O 0.13984 0.28694 0.29822 0.0
O310 O 0.14108 0.26753 0.33983 0.0
O311 O 0.19398 0.31617 0.34835 0.0
O312 O 0.2134 0.36093 0.31762 0.0
O313 O 0.25087 0.38313 0.34854 0.0
H314 H 0.24106 0.42171 0.44309 0.0
H315 H 0.21513 0.39632 0.47501 0.0
H316 H 0.15934 0.28272 0.44437 0.0
H317 H 0.18456 0.30847 0.41239 0.0
H318 H 0.1094 0.26331 0.25281 0.0
H319 H 0.13411 0.28324 0.21981 0.0
H320 H 0.20351 0.39827 0.24746 0.0
H321 H 0.17852 0.37817 0.28044 0.0
C322 C 0.64446 0.84628 0.40066 0.0
Eu323 Eu 0.65575 0.84056 0.36228 0.0
C324 C 0.65788 0.84182 0.42089 0.0
C325 C 0.63194 0.82523 0.43537 0.0
C326 C 0.64397 0.82233 0.45508 0.0
C327 C 0.68231 0.83625 0.46072 0.0
C328 C 0.70816 0.85179 0.44593 0.0
C329 C 0.69602 0.85448 0.42614 0.0
C330 C 0.60999 0.78167 0.33483 0.0
C331 C 0.71997 0.81656 0.35582 0.0
C332 C 0.697 0.83953 0.28224 0.0
Eu333 Eu 0.68592 0.84379 0.32081 0.0
C334 C 0.68026 0.8395 0.26193 0.0
C335 C 0.70404 0.85679 0.2466 0.0
C336 C 0.68912 0.8563 0.22694 0.0
C337 C 0.65003 0.83833 0.22222 0.0
C338 C 0.6262 0.82165 0.23776 0.0
C339 C 0.64121 0.82238 0.25751 0.0
C340 C 0.72874 0.90435 0.34841 0.0
C341 C 0.62335 0.86923 0.32729 0.0
O342 O 0.66808 0.87499 0.39123 0.0
O343 O 0.62469 0.81524 0.38839 0.0
O344 O 0.5985 0.79761 0.34803 0.0
O345 O 0.64532 0.79616 0.33717 0.0
O346 O 0.70227 0.82682 0.36877 0.0
O347 O 0.71539 0.81682 0.33583 0.0
O348 O 0.67827 0.80976 0.29227 0.0
O349 O 0.71221 0.87144 0.294 0.0
O350 O 0.74273 0.8901 0.33578 0.0
O351 O 0.6936 0.88731 0.34522 0.0
O352 O 0.63726 0.85429 0.31439 0.0
O353 O 0.63142 0.87256 0.34729 0.0
H354 H 0.60234 0.81497 0.43151 0.0
H355 H 0.62327 0.80954 0.46599 0.0
H356 H 0.7379 0.86301 0.44982 0.0
H357 H 0.7165 0.86709 0.41509 0.0
H358 H 0.73425 0.87023 0.24977 0.0
H359 H 0.70816 0.86898 0.21526 0.0
H360 H 0.59598 0.80791 0.2346 0.0
H361 H 0.62235 0.80925 0.26922 0.0
C362 C 0.11359 0.8126 0.2847 0.0
Eu363 Eu 0.14601 0.8333 0.32198 0.0
C364 C 0.12476 0.81626 0.26355 0.0
C365 C 0.10641 0.82696 0.24912 0.0
C366 C 0.11543 0.82957 0.22881 0.0
C367 C 0.14289 0.82127 0.2224 0.0
C368 C 0.16202 0.81151 0.23705 0.0
C369 C 0.15306 0.80905 0.25744 0.0
C370 C 0.16529 0.89929 0.34403 0.0
C371 C 0.23754 0.87214 0.3205 0.0
C372 C 0.22871 0.87214 0.39902 0.0
Eu373 Eu 0.19705 0.85128 0.36158 0.0
C374 C 0.21675 0.87088 0.41997 0.0
C375 C 0.23145 0.85766 0.43505 0.0
C376 C 0.22114 0.85647 0.45507 0.0
C377 C 0.19605 0.86879 0.46058 0.0
C378 C 0.18076 0.8814 0.44532 0.0
C379 C 0.19096 0.88238 0.42519 0.0
C380 C 0.17901 0.7858 0.33956 0.0
C381 C 0.10544 0.81251 0.36271 0.0
O382 O 0.12075 0.7908 0.2957 0.0
O383 O 0.12014 0.84381 0.29521 0.0
O384 O 0.13241 0.87759 0.33429 0.0
O385 O 0.18682 0.88625 0.34091 0.0
O386 O 0.20345 0.85191 0.31085 0.0
O387 O 0.24291 0.88028 0.34064 0.0
O388 O 0.22482 0.89498 0.38722 0.0
O389 O 0.21958 0.8395 0.38922 0.0
O390 O 0.21152 0.80776 0.34964 0.0
O391 O 0.15673 0.79811 0.3425 0.0
O392 O 0.13945 0.83378 0.37233 0.0
O393 O 0.10034 0.80324 0.34271 0.0
H394 H 0.08476 0.83299 0.25353 0.0
H395 H 0.10064 0.83788 0.21807 0.0
H396 H 0.18311 0.80466 0.23265 0.0
H397 H 0.16788 0.80101 0.26833 0.0
H398 H 0.25108 0.84829 0.43133 0.0
H399 H 0.2329 0.84582 0.46626 0.0
H400 H 0.16159 0.89136 0.449 0.0
H401 H 0.17892 0.89243 0.41379 0.0
C402 C 0.87111 0.69314 0.73472 0.0
Eu403 Eu 0.84906 0.68275 0.69586 0.0
C404 C 0.85608 0.6743 0.75326 0.0
C405 C 0.81751 0.6566 0.7559 0.0
C406 C 0.8042 0.64072 0.77417 0.0
C407 C 0.82925 0.6422 0.79007 0.0
C408 C 0.86762 0.65868 0.78696 0.0
C409 C 0.88087 0.67464 0.76876 0.0
C410 C 0.82388 0.72097 0.67435 0.0
C411 C 0.7624 0.61095 0.68746 0.0
C412 C 0.7933 0.63471 0.61293 0.0
Eu413 Eu 0.81569 0.64707 0.65186 0.0
C414 C 0.80736 0.65268 0.59405 0.0
C415 C 0.79391 0.63061 0.57516 0.0
C416 C 0.80691 0.64695 0.557 0.0
C417 C 0.83347 0.68577 0.55743 0.0
C418 C 0.84709 0.70782 0.57644 0.0
C419 C 0.83436 0.69132 0.59463 0.0
C420 C 0.84094 0.60934 0.67388 0.0
C421 C 0.90243 0.71845 0.66015 0.0
O422 O 0.88007 0.67478 0.7212 0.0
O423 O 0.85418 0.70964 0.72634 0.0
O424 O 0.85197 0.73716 0.68836 0.0
O425 O 0.80793 0.68527 0.67374 0.0
O426 O 0.792 0.63263 0.70063 0.0
O427 O 0.76315 0.61328 0.66747 0.0
O428 O 0.78387 0.65299 0.62625 0.0
O429 O 0.81177 0.61997 0.62152 0.0
O430 O 0.81267 0.59268 0.66001 0.0
O431 O 0.85678 0.64488 0.67398 0.0
O432 O 0.87264 0.69713 0.64703 0.0
O433 O 0.9017 0.71614 0.68015 0.0
H434 H 0.79777 0.65569 0.74402 0.0
H435 H 0.77453 0.62835 0.77607 0.0
H436 H 0.88756 0.65951 0.79868 0.0
H437 H 0.91064 0.68773 0.7669 0.0
H438 H 0.77321 0.60071 0.57444 0.0
H439 H 0.79562 0.62936 0.54258 0.0
H440 H 0.86781 0.73771 0.57723 0.0
H441 H 0.84561 0.7087 0.60909 0.0
C442 C 0.32702 0.19462 0.7304 0.0
Eu443 Eu 0.3273 0.16717 0.69363 0.0
C444 C 0.34629 0.19926 0.75074 0.0
C445 C 0.35616 0.17265 0.75679 0.0
C446 C 0.37507 0.17804 0.77608 0.0
C447 C 0.38477 0.2103 0.78951 0.0
C448 C 0.37492 0.23688 0.7833 0.0
C449 C 0.35582 0.23136 0.7641 0.0
C450 C 0.27526 0.09966 0.67418 0.0
C451 C 0.38034 0.12814 0.69436 0.0
C452 C 0.35237 0.11982 0.61684 0.0
Eu453 Eu 0.34994 0.14559 0.65368 0.0
C454 C 0.33885 0.1205 0.59581 0.0
C455 C 0.33323 0.15017 0.59033 0.0
C456 C 0.32084 0.15052 0.57015 0.0
C457 C 0.31383 0.12116 0.55513 0.0
C458 C 0.31908 0.09128 0.56084 0.0
C459 C 0.3315 0.091 0.58099 0.0
C460 C 0.40108 0.21378 0.67325 0.0
C461 C 0.29538 0.18314 0.65269 0.0
O462 O 0.34818 0.21535 0.71676 0.0
O463 O 0.30288 0.15989 0.72285 0.0
O464 O 0.26713 0.1226 0.68424 0.0
O465 O 0.3103 0.11222 0.67579 0.0
O466 O 0.36926 0.14943 0.70434 0.0
O467 O 0.37248 0.11845 0.67446 0.0
O468 O 0.3266 0.09992 0.62886 0.0
O469 O 0.37879 0.15223 0.62603 0.0
O470 O 0.41003 0.1911 0.66366 0.0
O471 O 0.36602 0.20032 0.67125 0.0
O472 O 0.30788 0.16298 0.64282 0.0
O473 O 0.30289 0.19257 0.67266 0.0
H474 H 0.34942 0.14784 0.7466 0.0
H475 H 0.38264 0.15731 0.78037 0.0
H476 H 0.38164 0.26179 0.7934 0.0
H477 H 0.34856 0.25224 0.75965 0.0
H478 H 0.33869 0.17319 0.60161 0.0
H479 H 0.31735 0.17408 0.56625 0.0
H480 H 0.31324 0.06785 0.54978 0.0
H481 H 0.3354 0.06773 0.58501 0.0
C482 C 0.8023 0.13928 0.62034 0.0
Eu483 Eu 0.82592 0.15859 0.65913 0.0
C484 C 0.81886 0.14303 0.6006 0.0
C485 C 0.85516 0.17273 0.59819 0.0
C486 C 0.86983 0.17645 0.5791 0.0
C487 C 0.8484 0.15059 0.56205 0.0
C488 C 0.81233 0.1205 0.56473 0.0
C489 C 0.79775 0.11682 0.5838 0.0
C490 C 0.84351 0.22374 0.68123 0.0
C491 C 0.91746 0.19457 0.66504 0.0
C492 C 0.89089 0.18733 0.74073 0.0
Eu493 Eu 0.86543 0.16994 0.70215 0.0
C494 C 0.87748 0.18595 0.76131 0.0
C495 C 0.88883 0.16984 0.7764 0.0
C496 C 0.87846 0.16987 0.79635 0.0
C497 C 0.85665 0.18627 0.80172 0.0
C498 C 0.84447 0.20157 0.78644 0.0
C499 C 0.85477 0.2014 0.76642 0.0
C500 C 0.84832 0.10518 0.67951 0.0
C501 C 0.77439 0.13769 0.69631 0.0
O502 O 0.80584 0.11666 0.63246 0.0
O503 O 0.80777 0.17063 0.63022 0.0
O504 O 0.81404 0.20569 0.6682 0.0
O505 O 0.86381 0.20869 0.68076 0.0
O506 O 0.88605 0.17673 0.65269 0.0
O507 O 0.9171 0.19977 0.6851 0.0
O508 O 0.88961 0.21148 0.72889 0.0
O509 O 0.88159 0.15479 0.73072 0.0
O510 O 0.87891 0.12481 0.69162 0.0
O511 O 0.82738 0.11953 0.68059 0.0
O512 O 0.80569 0.15355 0.70877 0.0
O513 O 0.77415 0.13239 0.67622 0.0
H514 H 0.87196 0.19329 0.611 0.0
H515 H 0.89761 0.20003 0.5776 0.0
H516 H 0.79534 0.09959 0.55209 0.0
H517 H 0.7698 0.09357 0.58538 0.0
H518 H 0.90621 0.15762 0.77281 0.0
H519 H 0.88779 0.15725 0.80762 0.0
H520 H 0.82793 0.21472 0.79007 0.0
H521 H 0.84551 0.21395 0.7551 0.0
H522 H 0.31448 0.87294 0.09253 0.0
H523 H 0.23765 0.84818 0.03918 0.0
H524 H 0.29025 0.88518 0.01914 0.0
H525 H 0.35858 0.9225 0.01631 0.0
H526 H 0.43483 0.94737 0.07008 0.0
H527 H 0.38227 0.91287 0.09022 0.0
C528 C 0.30922 0.87621 0.07662 0.0
C529 C 0.27218 0.8576 0.06738 0.0
C530 C 0.33963 0.89737 0.06511 0.0
C531 C 0.26594 0.8618 0.04664 0.0
C532 C 0.29601 0.88299 0.03514 0.0
C533 C 0.36367 0.92041 0.03242 0.0
C534 C 0.40078 0.93748 0.04151 0.0
C535 C 0.33308 0.90043 0.04411 0.0
C536 C 0.40671 0.93462 0.06252 0.0
C537 C 0.37658 0.91481 0.07416 0.0
H538 H 0.20721 0.47309 0.05628 0.0
H539 H 0.12473 0.39504 0.09373 0.0
H540 H 0.07694 0.40506 0.077 0.0
H541 H 0.05852 0.43762 0.0526 0.0
H542 H 0.13792 0.50893 0.01206 0.0
H543 H 0.1866 0.49889 0.02868 0.0
C544 C 0.17871 0.4575 0.06057 0.0
C545 C 0.17031 0.43412 0.07682 0.0
C546 C 0.1506 0.46206 0.05023 0.0
C547 C 0.13287 0.41451 0.08198 0.0
C548 C 0.10517 0.41982 0.07223 0.0
C549 C 0.08642 0.45058 0.0473 0.0
C550 C 0.09487 0.47409 0.03128 0.0
C551 C 0.11383 0.44394 0.05656 0.0
C552 C 0.13087 0.49053 0.02434 0.0
C553 C 0.15869 0.48496 0.0339 0.0
H554 H 0.49124 0.68856 0.04761 0.0
H555 H 0.59983 0.71488 0.07501 0.0
H556 H 0.5933 0.65763 0.0566 0.0
H557 H 0.55649 0.60009 0.03228 0.0
H558 H 0.44755 0.57461 1.00566 0.0
H559 H 0.45478 0.6318 0.02387 0.0
C560 C 0.51369 0.68203 0.04937 0.0
C561 C 0.54606 0.70605 0.06251 0.0
C562 C 0.50972 0.64921 0.03882 0.0
C563 C 0.57454 0.69671 0.06502 0.0
C564 C 0.57088 0.66408 0.05445 0.0
C565 C 0.53437 0.60708 0.03058 0.0
C566 C 0.50156 0.58315 0.01767 0.0
C567 C 0.53855 0.64007 0.04128 0.0
C568 C 0.47315 0.5926 0.01547 0.0
C569 C 0.4772 0.6253 0.0259 0.0
H570 H 0.85614 0.31505 0.93411 0.0
H571 H 0.83433 0.24565 0.98454 0.0
H572 H 0.87797 0.30125 0.00755 0.0
H573 H 0.91975 0.37027 0.01385 0.0
H574 H 0.94369 0.43956 0.9635 0.0
H575 H 0.90229 0.38339 0.93982 0.0
C576 C 0.86149 0.31197 0.95004 0.0
C577 C 0.84154 0.27631 0.95764 0.0
C578 C 0.88688 0.34408 0.9632 0.0
C579 C 0.84866 0.27291 0.97838 0.0
C580 C 0.87371 0.30465 0.99156 0.0
C581 C 0.91598 0.37277 0.99764 0.0
C582 C 0.93449 0.4085 0.99024 0.0
C583 C 0.89241 0.34044 0.98422 0.0
C584 C 0.92982 0.41197 0.96933 0.0
C585 C 0.90607 0.37997 0.95587 0.0
H586 H 0.72356 0.53025 0.96599 0.0
H587 H 0.71315 0.60482 0.92523 0.0
H588 H 0.65464 0.59183 0.93871 0.0
H589 H 0.60583 0.55979 0.96242 0.0
H590 H 0.62129 0.49363 0.00661 0.0
H591 H 0.67879 0.50386 0.99192 0.0
C592 C 0.7092 0.54444 0.9602 0.0
C593 C 0.72314 0.56794 0.94411 0.0
C594 C 0.67624 0.53854 0.96881 0.0
C595 C 0.70302 0.58533 0.93693 0.0
C596 C 0.66951 0.57838 0.94486 0.0
C597 C 0.62203 0.54788 0.96883 0.0
C598 C 0.60954 0.526 0.9855 0.0
C599 C 0.65575 0.55495 0.96075 0.0
C600 C 0.63068 0.51081 0.99384 0.0
C601 C 0.66342 0.51653 0.9854 0.0
H602 H 0.43819 0.1278 0.94258 0.0
H603 H 0.55185 0.22115 0.95378 0.0
H604 H 0.56851 0.18407 0.97546 0.0
H605 H 0.54975 0.12716 0.99314 0.0
H606 H 0.43563 0.03426 0.98363 0.0
H607 H 0.42005 0.0688 0.95927 0.0
C608 C 0.46667 0.1396 0.94955 0.0
C609 C 0.49381 0.17704 0.94671 0.0
C610 C 0.4758 0.11838 0.96241 0.0
C611 C 0.53057 0.19239 0.9559 0.0
C612 C 0.54005 0.17128 0.96831 0.0
C613 C 0.52147 0.11443 0.9857 0.0
C614 C 0.49381 0.07837 0.99019 0.0
C615 C 0.51271 0.13461 0.97203 0.0
C616 C 0.4574 0.062 0.98032 0.0
C617 C 0.44849 0.08179 0.96646 0.0
H618 H 0.70468 0.11119 0.93677 0.0
H619 H 0.71019 0.21262 0.96445 0.0
H620 H 0.65687 0.17458 0.98362 0.0
H621 H 0.60996 0.11263 0.99362 0.0
H622 H 0.60016 0.01074 0.96414 0.0
H623 H 0.65381 0.0486 0.94457 0.0
C624 C 0.69381 0.1249 0.94673 0.0
C625 C 0.71192 0.16474 0.94946 0.0
C626 C 0.66274 0.10278 0.95762 0.0
C627 C 0.6974 0.18204 0.96244 0.0
C628 C 0.66685 0.16034 0.97341 0.0
C629 C 0.61997 0.09892 0.98303 0.0
C630 C 0.60224 0.0593 0.98061 0.0
C631 C 0.64979 0.12078 0.97143 0.0
C632 C 0.6142 0.04141 0.96641 0.0
C633 C 0.64462 0.063 0.95519 0.0
H634 H 0.81467 0.52983 0.96592 0.0
H635 H 0.89669 0.62458 0.93638 0.0
H636 H 0.94657 0.61526 0.95093 0.0
H637 H 0.96711 0.57839 0.9708 0.0
H638 H 0.88721 0.48875 1.00368 0.0
H639 H 0.83653 0.49809 0.98935 0.0
C640 C 0.84349 0.54894 0.96297 0.0
C641 C 0.85143 0.57711 0.94947 0.0
C642 C 0.87254 0.54419 0.97191 0.0
C643 C 0.88923 0.60164 0.946 0.0
C644 C 0.918 0.59656 0.95445 0.0
C645 C 0.93858 0.56114 0.97485 0.0
C646 C 0.93058 0.53275 0.98803 0.0
C647 C 0.90993 0.56748 0.96708 0.0
C648 C 0.89378 0.51077 0.99349 0.0
C649 C 0.86487 0.51609 0.9853 0.0
H650 H 0.45231 0.26833 0.97055 0.0
H651 H 0.52761 0.33259 0.92645 0.0
H652 H 0.54193 0.39203 0.94597 0.0
H653 H 0.53415 0.42547 0.9763 0.0
H654 H 0.4552 0.36111 0.01886 0.0
H655 H 0.4411 0.30167 0.99939 0.0
C656 C 0.47178 0.29543 0.96528 0.0
C657 C 0.48923 0.29641 0.94731 0.0
C658 C 0.47926 0.32924 0.97635 0.0
C659 C 0.51398 0.33145 0.94031 0.0
C660 C 0.52222 0.3653 0.95148 0.0
C661 C 0.51385 0.39831 0.98117 0.0
C662 C 0.49589 0.3971 0.99894 0.0
C663 C 0.50526 0.36452 0.96961 0.0
C664 C 0.4693 0.3622 1.00519 0.0
C665 C 0.4613 0.32841 0.9941 0.0
H666 H 0.20152 0.72187 0.05863 0.0
H667 H 0.10719 0.73049 0.07778 0.0
H668 H 0.06369 0.66767 0.06012 0.0
H669 H 0.05274 0.61144 0.03775 0.0
H670 H 0.14812 0.60425 0.01887 0.0
H671 H 0.1909 0.66533 0.03783 0.0
C672 C 0.17142 0.71007 0.05883 0.0
C673 C 0.15752 0.73087 0.06923 0.0
C674 C 0.14678 0.6742 0.04867 0.0
C675 C 0.1185 0.71492 0.06982 0.0
C676 C 0.09367 0.6791 0.05969 0.0
C677 C 0.08288 0.6232 0.03798 0.0
C678 C 0.0973 0.60361 0.02682 0.0
C679 C 0.10749 0.65861 0.04889 0.0
C680 C 0.13637 0.61901 0.02722 0.0
C681 C 0.16088 0.65393 0.03805 0.0
H682 H 0.26727 0.40772 0.05252 0.0
H683 H 0.33238 0.47017 0.10925 0.0
H684 H 0.39016 0.48466 0.09391 0.0
H685 H 0.4226 0.48204 0.06419 0.0
H686 H 0.35847 0.42169 0.00692 0.0
H687 H 0.30009 0.40458 0.02262 0.0
C688 C 0.29407 0.42466 0.06153 0.0
C689 C 0.29516 0.4377 0.08211 0.0
C690 C 0.32749 0.43357 0.05247 0.0
C691 C 0.33033 0.4591 0.09354 0.0
C692 C 0.36355 0.46776 0.08471 0.0
C693 C 0.39592 0.46506 0.05506 0.0
C694 C 0.39512 0.4533 0.03431 0.0
C695 C 0.36249 0.45544 0.06416 0.0
C696 C 0.36009 0.43123 0.02288 0.0
C697 C 0.32664 0.42142 0.03187 0.0
H698 H 0.57714 0.87155 0.07218 0.0
H699 H 0.4729 0.76863 0.05307 0.0
H700 H 0.45072 0.80398 0.03354 0.0
H701 H 0.46179 0.86356 0.02079 0.0
H702 H 0.56726 0.96626 0.03795 0.0
H703 H 0.58807 0.9319 0.05946 0.0
C704 C 0.54948 0.8571 0.06387 0.0
C705 C 0.52667 0.81762 0.06398 0.0
C706 C 0.5372 0.87754 0.0523 0.0
C707 C 0.49099 0.79899 0.05305 0.0
C708 C 0.4783 0.81917 0.0419 0.0
C709 C 0.4893 0.87844 0.02929 0.0
C710 C 0.51287 0.9174 0.0279 0.0
C711 C 0.50132 0.85834 0.04122 0.0
C712 C 0.54845 0.93632 0.03895 0.0
C713 C 0.56041 0.91665 0.05118 0.0
H714 H 0.99598 0.21554 0.43019 0.0
H715 H 0.91887 0.17928 0.37582 0.0
H716 H 0.96942 0.22206 0.35619 0.0
H717 H 0.03677 0.26595 0.35376 0.0
H718 H 0.11345 0.30237 0.40848 0.0
H719 H 0.06209 0.26386 0.42849 0.0
C720 C 0.99013 0.21762 0.41416 0.0
C721 C 0.95388 0.19391 0.40444 0.0
C722 C 0.01943 0.24209 0.40288 0.0
C723 C 0.94676 0.19679 0.3836 0.0
C724 C 0.97564 0.22126 0.37234 0.0
C725 C 0.04218 0.26577 0.37009 0.0
C726 C 0.07913 0.28676 0.37942 0.0
C727 C 0.01233 0.24337 0.38169 0.0
C728 C 0.08546 0.28629 0.4007 0.0
C729 C 0.05602 0.26422 0.41227 0.0
H730 H 0.85977 0.80187 0.38425 0.0
H731 H 0.7798 0.72334 0.42258 0.0
H732 H 0.73243 0.73712 0.40896 0.0
H733 H 0.71304 0.77124 0.38591 0.0
H734 H 0.78993 0.84198 0.34416 0.0
H735 H 0.83867 0.83039 0.35887 0.0
C736 C 0.83186 0.78692 0.3894 0.0
C737 C 0.82408 0.76195 0.40479 0.0
C738 C 0.80391 0.79343 0.38075 0.0
C739 C 0.78753 0.74373 0.41133 0.0
C740 C 0.76003 0.7512 0.40335 0.0
C741 C 0.74046 0.78388 0.38003 0.0
C742 C 0.74812 0.80746 0.36409 0.0
C743 C 0.76792 0.7761 0.38811 0.0
C744 C 0.78349 0.82351 0.35638 0.0
C745 C 0.81135 0.81703 0.36484 0.0
H746 H 0.23061 0.04677 0.40565 0.0
H747 H 0.11564 0.02128 0.39702 0.0
H748 H 0.09945 0.9646 0.37432 0.0
H749 H 0.11842 0.92343 0.35621 0.0
H750 H 0.23397 0.95033 0.36338 0.0
H751 H 0.24961 0.00525 0.38746 0.0
C752 C 0.20197 0.02847 0.39895 0.0
C753 C 0.17429 0.03795 0.40295 0.0
C754 C 0.19308 0.9964 0.38562 0.0
C755 C 0.13736 0.01447 0.39402 0.0
C756 C 0.12813 0.98216 0.38107 0.0
C757 C 0.14703 0.94137 0.36303 0.0
C758 C 0.17497 0.93282 0.3582 0.0
C759 C 0.15584 0.97309 0.37659 0.0
C760 C 0.21192 0.95622 0.36709 0.0
C761 C 0.22088 0.98763 0.3808 0.0
H762 H 0.47357 0.63445 0.28948 0.0
H763 H 0.56123 0.61244 0.27271 0.0
H764 H 0.60901 0.67425 0.29007 0.0
H765 H 0.62506 0.7332 0.31185 0.0
H766 H 0.5356 0.7534 0.32782 0.0
H767 H 0.48935 0.69385 0.30884 0.0
C768 C 0.50317 0.64323 0.28968 0.0
C769 C 0.51402 0.61896 0.28022 0.0
C770 C 0.5301 0.67847 0.29954 0.0
C771 C 0.55239 0.63079 0.28007 0.0
C772 C 0.5796 0.66601 0.29 0.0
C773 C 0.59547 0.72458 0.31096 0.0
C774 C 0.58366 0.74732 0.32143 0.0
C775 C 0.56873 0.68992 0.30004 0.0
C776 C 0.54532 0.73612 0.3201 0.0
C777 C 0.5188 0.70206 0.30926 0.0
H778 H 0.35602 0.90228 0.25589 0.0
H779 H 0.43185 0.94566 0.311 0.0
H780 H 0.37981 0.9336 0.33149 0.0
H781 H 0.31217 0.90767 0.33404 0.0
H782 H 0.23632 0.86392 0.27882 0.0
H783 H 0.28879 0.87952 0.25825 0.0
C784 C 0.3612 0.90961 0.27234 0.0
C785 C 0.39771 0.92454 0.28189 0.0
C786 C 0.33105 0.90236 0.2841 0.0
C787 C 0.4039 0.93358 0.30328 0.0
C788 C 0.37417 0.9268 0.31502 0.0
C789 C 0.30712 0.90184 0.3175 0.0
C790 C 0.2702 0.88442 0.30811 0.0
C791 C 0.3375 0.91065 0.30565 0.0
C792 C 0.26432 0.8771 0.2866 0.0
C793 C 0.29438 0.88602 0.27474 0.0
H794 H 0.12219 0.47747 0.2803 0.0
H795 H 0.23891 0.56442 0.28673 0.0
H796 H 0.25418 0.52645 0.30858 0.0
H797 H 0.23333 0.47144 0.32839 0.0
H798 H 0.11618 0.3855 0.32347 0.0
H799 H 0.10189 0.41986 0.29847 0.0
C800 C 0.15101 0.4875 0.28614 0.0
C801 C 0.1795 0.52339 0.28194 0.0
C802 C 0.15932 0.466 0.29919 0.0
C803 C 0.21671 0.53667 0.28978 0.0
C804 C 0.22535 0.51514 0.30235 0.0
C805 C 0.2047 0.46023 0.32179 0.0
C806 C 0.17578 0.42624 0.32781 0.0
C807 C 0.19673 0.48029 0.30763 0.0
C808 C 0.13888 0.41168 0.319 0.0
C809 C 0.13071 0.43133 0.30475 0.0
H810 H 0.37744 0.44658 0.27008 0.0
H811 H 0.39564 0.55084 0.30201 0.0
H812 H 0.34527 0.51513 0.3232 0.0
H813 H 0.29502 0.45445 0.33258 0.0
H814 H 0.27045 0.35063 0.298 0.0
H815 H 0.32387 0.38586 0.27779 0.0
C816 C 0.3702 0.4616 0.28148 0.0
C817 C 0.39127 0.5015 0.28465 0.0
C818 C 0.34002 0.44089 0.29325 0.0
C819 C 0.38115 0.52019 0.29961 0.0
C820 C 0.35197 0.49981 0.31169 0.0
C821 C 0.30182 0.43965 0.32078 0.0
C822 C 0.27978 0.40016 0.317 0.0
C823 C 0.3314 0.4602 0.30874 0.0
C824 C 0.28769 0.3811 0.30127 0.0
C825 C 0.31803 0.40123 0.28971 0.0
H826 H 0.51323 0.93073 0.30638 0.0
H827 H 0.51235 0.88249 0.24592 0.0
H828 H 0.55604 0.86304 0.25915 0.0
H829 H 0.5942 0.85952 0.28786 0.0
H830 H 0.59415 0.9067 0.34851 0.0
H831 H 0.55077 0.9264 0.33523 0.0
C832 C 0.52228 0.91559 0.29615 0.0
C833 C 0.50959 0.90813 0.2752 0.0
C834 C 0.54724 0.90432 0.30387 0.0
C835 C 0.52206 0.88901 0.26207 0.0
C836 C 0.54689 0.87772 0.26963 0.0
C837 C 0.58481 0.8742 0.29819 0.0
C838 C 0.5975 0.88166 0.31915 0.0
C839 C 0.55973 0.88532 0.29049 0.0
C840 C 0.58485 0.90055 0.33231 0.0
C841 C 0.56002 0.91184 0.32473 0.0
H842 H 0.11952 0.63466 0.28142 0.0
H843 H 0.2327 0.65898 0.29738 0.0
H844 H 0.24615 0.71638 0.31845 0.0
H845 H 0.22582 0.75929 0.33239 0.0
H846 H 0.11201 0.73438 0.31811 0.0
H847 H 0.09862 0.67761 0.29615 0.0
C848 C 0.14712 0.65274 0.28946 0.0
C849 C 0.17513 0.64279 0.28792 0.0
C850 C 0.15448 0.68545 0.30177 0.0
C851 C 0.2107 0.66605 0.29852 0.0
C852 C 0.2184 0.69885 0.31049 0.0
C853 C 0.19805 0.74142 0.32449 0.0
C854 C 0.17003 0.75111 0.32664 0.0
C855 C 0.1905 0.70872 0.31227 0.0
C856 C 0.13414 0.72767 0.31643 0.0
C857 C 0.12648 0.69519 0.30396 0.0
H858 H 0.79925 0.05259 0.40937 0.0
H859 H 0.9016 0.05675 0.39361 0.0
H860 H 0.86527 0.99642 0.37236 0.0
H861 H 0.80434 0.94404 0.35696 0.0
H862 H 0.7022 0.94103 0.3721 0.0
H863 H 0.7384 0.999 0.39512 0.0
C864 C 0.81353 0.03994 0.40153 0.0
C865 C 0.85297 0.05905 0.40297 0.0
C866 C 0.7925 0.00555 0.38918 0.0
C867 C 0.87121 0.04267 0.39254 0.0
C868 C 0.85048 0.0082 0.38043 0.0
C869 C 0.7901 0.95606 0.36539 0.0
C870 C 0.75077 0.93843 0.36287 0.0
C871 C 0.81112 0.98968 0.37839 0.0
C872 C 0.73251 0.95409 0.37388 0.0
C873 C 0.75317 0.98728 0.38699 0.0
H874 H 0.98514 0.78635 0.42532 0.0
H875 H 0.90927 0.72796 0.37108 0.0
H876 H 0.96242 0.74081 0.35129 0.0
H877 H 0.03076 0.77065 0.34911 0.0
H878 H 0.10604 0.82824 0.40376 0.0
H879 H 0.05281 0.81302 0.42361 0.0
C880 C 0.98011 0.77584 0.40925 0.0
C881 C 0.9432 0.75635 0.39972 0.0
C882 C 0.01077 0.78323 0.39797 0.0
C883 C 0.93739 0.74353 0.37877 0.0
C884 C 0.96778 0.75071 0.36744 0.0
C885 C 0.03554 0.77965 0.36539 0.0
C886 C 0.0725 0.80073 0.37482 0.0
C887 C 1.00466 0.77092 0.37683 0.0
C888 C 0.07802 0.81208 0.39598 0.0
C889 C 0.04754 0.80343 0.40741 0.0
H890 H 0.23268 0.20684 0.41279 0.0
H891 H 0.11617 0.11922 0.40385 0.0
H892 H 0.10168 0.15892 0.38311 0.0
H893 H 0.12319 0.21568 0.36487 0.0
H894 H 0.23994 0.30284 0.37242 0.0
H895 H 0.25342 0.26649 0.3965 0.0
C896 C 0.20405 0.19696 0.40665 0.0
C897 C 0.1755 0.16027 0.40972 0.0
C898 C 0.19613 0.21959 0.39429 0.0
C899 C 0.13853 0.14738 0.40155 0.0
C900 C 0.13029 0.16996 0.38965 0.0
C901 C 0.15156 0.22676 0.37185 0.0
C902 C 0.18064 0.26156 0.36677 0.0
C903 C 0.15905 0.2056 0.38543 0.0
C904 C 0.21715 0.27597 0.37612 0.0
C905 C 0.22485 0.25518 0.38983 0.0
H906 H 0.62046 0.46687 0.71309 0.0
H907 H 0.62513 0.55054 0.75869 0.0
H908 H 0.68187 0.5989 0.74587 0.0
H909 H 0.72964 0.61869 0.7209 0.0
H910 H 0.71851 0.53756 0.67204 0.0
H911 H 0.66379 0.48751 0.68638 0.0
C912 C 0.6329 0.49567 0.72009 0.0
C913 C 0.61774 0.50414 0.73715 0.0
C914 C 0.66442 0.52424 0.71181 0.0
C915 C 0.63603 0.54204 0.74605 0.0
C916 C 0.66847 0.57021 0.7385 0.0
C917 C 0.71501 0.59005 0.71338 0.0
C918 C 0.72795 0.58168 0.69548 0.0
C919 C 0.68282 0.56171 0.72133 0.0
C920 C 0.70876 0.54464 0.68575 0.0
C921 C 0.67765 0.51602 0.69401 0.0
H922 H 0.45646 0.06025 0.75014 0.0
H923 H 0.55437 0.14217 0.72268 0.0
H924 H 0.5154 0.15903 0.7019 0.0
H925 H 0.45373 0.15232 0.69207 0.0
H926 H 0.35768 0.07712 0.72263 0.0
H927 H 0.39585 0.05664 0.74209 0.0
C928 C 0.46963 0.08225 0.73991 0.0
C929 C 0.50858 0.09943 0.73801 0.0
C930 C 0.4473 0.09322 0.72858 0.0
C931 C 0.52447 0.12742 0.72421 0.0
C932 C 0.50224 0.13753 0.71241 0.0
C933 C 0.44132 0.13132 0.70296 0.0
C934 C 0.40312 0.11573 0.70586 0.0
C935 C 0.46368 0.12071 0.71449 0.0
C936 C 0.38712 0.08914 0.72017 0.0
C937 C 0.40891 0.07752 0.73125 0.0
H938 H 0.86835 0.35322 0.7477 0.0
H939 H 0.90656 0.41958 0.69611 0.0
H940 H 0.89352 0.36308 0.67433 0.0
H941 H 0.87125 0.29448 0.6699 0.0
H942 H 0.83401 0.22856 0.72142 0.0
H943 H 0.84737 0.2852 0.74348 0.0
C944 C 0.87425 0.35544 0.73176 0.0
C945 C 0.88834 0.39063 0.72357 0.0
C946 C 0.86709 0.32292 0.71937 0.0
C947 C 0.89519 0.39278 0.70276 0.0
C948 C 0.88798 0.36053 0.69031 0.0
C949 C 0.86634 0.29283 0.686 0.0
C950 C 0.85243 0.25797 0.69432 0.0
C951 C 0.87389 0.32546 0.69844 0.0
C952 C 0.84562 0.25556 0.71502 0.0
C953 C 0.85296 0.2878 0.72751 0.0
H954 H 0.13406 0.95312 0.62989 0.0
H955 H 0.22027 0.9313 0.60994 0.0
H956 H 0.26857 0.98919 0.63016 0.0
H957 H 0.28626 0.04691 0.65298 0.0
H958 H 0.19982 0.07013 0.67102 0.0
H959 H 0.15166 0.01063 0.65244 0.0
C960 C 0.1634 0.96086 0.63021 0.0
C961 C 0.17364 0.93798 0.61858 0.0
C962 C 0.19096 0.99448 0.6415 0.0
C963 C 0.21179 0.94859 0.61878 0.0
C964 C 0.23936 0.98163 0.63033 0.0
C965 C 0.25691 0.03901 0.6527 0.0
C966 C 0.24665 0.06302 0.6632 0.0
C967 C 0.22931 0.00501 0.64161 0.0
C968 C 0.20846 0.05218 0.663 0.0
C969 C 0.18087 0.01816 0.65237 0.0
H970 H 0.08367 0.25896 0.64084 0.0
H971 H 0.02531 0.21492 0.5805 0.0
H972 H 0.96534 0.1962 0.59475 0.0
H973 H 0.92931 0.18919 0.62464 0.0
H974 H 0.98809 0.23226 0.68503 0.0
H975 H 0.04798 0.25386 0.67045 0.0
C976 C 0.05783 0.2451 0.63078 0.0
C977 C 0.05905 0.23805 0.60963 0.0
C978 C 0.02347 0.23393 0.63912 0.0
C979 C 0.02531 0.22091 0.5968 0.0
C980 C 0.99096 0.20993 0.60497 0.0
C981 C 0.95518 0.20348 0.63465 0.0
C982 C 0.95399 0.20891 0.65598 0.0
C983 C 0.98966 0.21584 0.62616 0.0
C984 C 0.98796 0.22753 0.66861 0.0
C985 C 0.02231 0.23994 0.66028 0.0
H986 H 0.7624 0.82723 0.64873 0.0
H987 H 0.79259 0.8037 0.58979 0.0
H988 H 0.80926 0.75974 0.60428 0.0
H989 H 0.81886 0.73072 0.6343 0.0
H990 H 0.79418 0.75881 0.69357 0.0
H991 H 0.77221 0.79868 0.67851 0.0
C992 C 0.77298 0.81285 0.63905 0.0
C993 C 0.77623 0.81897 0.61817 0.0
C994 C 0.7835 0.78838 0.64759 0.0
C995 C 0.78924 0.79926 0.60583 0.0
C996 C 0.79905 0.77426 0.61413 0.0
C997 C 0.808 0.74509 0.64372 0.0
C998 C 0.80739 0.74159 0.66483 0.0
C999 C 0.79659 0.76883 0.63502 0.0
C1000 C 0.79439 0.76101 0.6772 0.0
C1001 C 0.78201 0.78384 0.66861 0.0
H1002 H 0.04923 0.85662 0.63375 0.0
H1003 H 0.03567 0.7706 0.58682 0.0
H1004 H 0.97819 0.72489 0.60033 0.0
H1005 H 0.93198 0.70823 0.62599 0.0
H1006 H 0.95101 0.79108 0.67583 0.0
H1007 H 0.00703 0.83856 0.66112 0.0
C1008 C 0.03458 0.82778 0.6266 0.0
C1009 C 0.04745 0.81786 0.60897 0.0
C1010 C 1.00245 0.8007 0.63515 0.0
C1011 C 0.02655 0.78012 0.59992 0.0
C1012 C 0.99367 0.7535 0.60783 0.0
C1013 C 0.94857 0.73668 0.63364 0.0
C1014 C 0.93745 0.7463 0.65191 0.0
C1015 C 0.98138 0.76343 0.62546 0.0
C1016 C 0.95924 0.78304 0.66182 0.0
C1017 C 0.99112 0.81019 0.65335 0.0
H1018 H 0.19428 0.21487 0.59057 0.0
H1019 H 0.17382 0.25941 0.64666 0.0
H1020 H 0.21596 0.24434 0.66625 0.0
H1021 H 0.25821 0.21799 0.66749 0.0
H1022 H 0.27827 0.17328 0.61122 0.0
H1023 H 0.23724 0.18952 0.59171 0.0
C1024 C 0.19934 0.22165 0.60706 0.0
C1025 C 0.18089 0.23823 0.61712 0.0
C1026 C 0.22364 0.21297 0.61822 0.0
C1027 C 0.18731 0.24624 0.63855 0.0
C1028 C 0.21157 0.23783 0.64976 0.0
C1029 C 0.2538 0.21197 0.65095 0.0
C1030 C 0.27146 0.19447 0.6409 0.0
C1031 C 0.22981 0.22108 0.63976 0.0
C1032 C 0.26517 0.18674 0.61944 0.0
C1033 C 0.24161 0.19597 0.60822 0.0
H1034 H 0.83151 0.95579 0.63499 0.0
H1035 H 0.72089 0.93702 0.61719 0.0
H1036 H 0.73664 0.99734 0.63593 0.0
H1037 H 0.78195 0.05547 0.65759 0.0
H1038 H 0.89251 0.0739 0.67525 0.0
H1039 H 0.87663 0.01362 0.65655 0.0
C1040 C 0.81073 0.96472 0.63542 0.0
C1041 C 0.77509 0.94194 0.62477 0.0
C1042 C 0.82 0.99943 0.64618 0.0
C1043 C 0.74865 0.95421 0.62515 0.0
C1044 C 0.75759 0.98863 0.6359 0.0
C1045 C 0.80255 0.04629 0.65724 0.0
C1046 C 0.83832 0.06903 0.66774 0.0
C1047 C 0.79322 0.01154 0.64644 0.0
C1048 C 0.86474 0.0568 0.66729 0.0
C1049 C 0.85569 0.02234 0.65661 0.0
H1050 H 0.53713 0.36483 0.71776 0.0
H1051 H 0.44709 0.38535 0.73141 0.0
H1052 H 0.40151 0.32566 0.71162 0.0
H1053 H 0.38714 0.26679 0.69117 0.0
H1054 H 0.47681 0.24464 0.67913 0.0
H1055 H 0.5227 0.3059 0.69727 0.0
C1056 C 0.50758 0.35637 0.71614 0.0
C1057 C 0.49543 0.37941 0.72591 0.0
C1058 C 0.48149 0.32167 0.7051 0.0
C1059 C 0.45701 0.36795 0.72402 0.0
C1060 C 0.43099 0.33387 0.71273 0.0
C1061 C 0.41669 0.2753 0.69265 0.0
C1062 C 0.42855 0.25113 0.68399 0.0
C1063 C 0.44284 0.31029 0.70339 0.0
C1064 C 0.46699 0.26275 0.68572 0.0
C1065 C 0.49325 0.29775 0.6961 0.0
H1066 H 0.63018 0.13295 0.72652 0.0
H1067 H 0.63381 0.05225 0.76516 0.0
H1068 H 0.69169 0.06279 0.75131 0.0
H1069 H 0.7409 0.09373 0.72722 0.0
H1070 H 0.72978 0.16535 0.68502 0.0
H1071 H 0.67407 0.15795 0.70059 0.0
C1072 C 0.64249 0.11645 0.73165 0.0
C1073 C 0.62659 0.09142 0.74694 0.0
C1074 C 0.6745 0.12073 0.72272 0.0
C1075 C 0.64505 0.07221 0.75376 0.0
C1076 C 0.67816 0.07785 0.74563 0.0
C1077 C 0.72593 0.10733 0.72139 0.0
C1078 C 0.73916 0.12995 0.70498 0.0
C1079 C 0.69303 0.10187 0.72999 0.0
C1080 C 0.71974 0.14749 0.69748 0.0
C1081 C 0.68808 0.14346 0.70646 0.0
H1082 H 0.90473 0.50702 0.70281 0.0
H1083 H 0.86514 0.52479 0.7598 0.0
H1084 H 0.84822 0.5681 0.74447 0.0
H1085 H 0.8403 0.59718 0.71392 0.0
H1086 H 0.87595 0.57542 0.65659 0.0
H1087 H 0.89818 0.53674 0.67283 0.0
C1088 C 0.8921 0.52007 0.71187 0.0
C1089 C 0.88587 0.51226 0.73238 0.0
C1090 C 0.88159 0.54408 0.70283 0.0
C1091 C 0.87047 0.53038 0.74403 0.0
C1092 C 0.86053 0.55496 0.73523 0.0
C1093 C 0.8536 0.58445 0.70519 0.0
C1094 C 0.85714 0.58928 0.68426 0.0
C1095 C 0.86546 0.56158 0.71455 0.0
C1096 C 0.8734 0.57209 0.6728 0.0
C1097 C 0.88595 0.54999 0.68206 0.0
H1098 H 0.42427 0.92434 0.20351 0.0
H1099 H 0.52763 0.01534 0.23428 0.0
H1100 H 0.54804 0.04134 0.20164 0.0
H1101 H 0.53906 0.03493 0.16425 0.0
H1102 H 0.43624 0.94359 0.13287 0.0
H1103 H 0.4133 0.9206 0.16573 0.0
C1104 C 0.45082 0.95031 0.203 0.0
C1105 C 0.4744 0.96816 0.22115 0.0
C1106 C 0.46278 0.96455 0.18406 0.0
C1107 C 0.50906 1.00138 0.22042 0.0
C1108 C 0.52079 0.01607 0.20178 0.0
C1109 C 0.51132 0.01042 0.16455 0.0
C1110 C 0.48957 0.99098 0.14605 0.0
C1111 C 0.49828 0.99742 0.18347 0.0
C1112 C 0.45392 0.95879 0.14683 0.0
C1113 C 0.44064 0.94575 0.16564 0.0
H1114 H 0.09608 0.50419 0.21917 0.0
H1115 H 0.17285 0.62354 0.21615 0.0
H1116 H 0.15038 0.61828 0.18043 0.0
H1117 H 0.10713 0.58073 0.15048 0.0
H1118 H 0.03049 0.46136 0.1528 0.0
H1119 H 0.05536 0.46542 0.18813 0.0
C1120 C 0.10819 0.52889 0.2106 0.0
C1121 C 0.13562 0.56433 0.22045 0.0
C1122 C 0.09523 0.52568 0.18992 0.0
C1123 C 0.15102 0.59611 0.20911 0.0
C1124 C 0.13838 0.59312 0.18863 0.0
C1125 C 0.09591 0.55561 0.15873 0.0
C1126 C 0.06682 0.52091 0.14915 0.0
C1127 C 0.1101 0.55823 0.17899 0.0
C1128 C 0.05302 0.48839 0.15985 0.0
C1129 C 0.06706 0.49075 0.18007 0.0
H1130 H 0.46571 0.58038 0.20948 0.0
H1131 H 0.44264 0.46891 0.22255 0.0
H1132 H 0.45129 0.45507 0.18702 0.0
H1133 H 0.4713 0.47721 0.15325 0.0
H1134 H 0.49511 0.58919 0.1406 0.0
H1135 H 0.47988 0.60023 0.1749 0.0
C1136 C 0.46231 0.55296 0.20445 0.0
C1137 C 0.4541 0.52585 0.21857 0.0
C1138 C 0.46761 0.54543 0.18415 0.0
C1139 C 0.449 0.49017 0.21189 0.0
C1140 C 0.45416 0.48238 0.19165 0.0
C1141 C 0.47287 0.5039 0.158 0.0
C1142 C 0.48467 0.5325 0.14451 0.0
C1143 C 0.4644 0.51017 0.17781 0.0
C1144 C 0.48596 0.5667 0.15067 0.0
C1145 C 0.47751 0.57312 0.17032 0.0
H1146 H 0.89582 0.48106 0.80441 0.0
H1147 H 0.9823 0.46217 0.78177 0.0
H1148 H 0.00929 0.46878 0.8168 0.0
H1149 H 0.00748 0.47837 0.85372 0.0
H1150 H 0.91959 0.49451 0.87683 0.0
H1151 H 0.89443 0.49132 0.84177 0.0
C1152 C 0.9208 0.47881 0.80721 0.0
C1153 C 0.93704 0.47104 0.7906 0.0
C1154 C 0.93586 0.48211 0.82743 0.0
C1155 C 0.96917 0.46781 0.79436 0.0
C1156 C 0.98462 0.47164 0.81435 0.0
C1157 C 0.98256 0.48078 0.85114 0.0
C1158 C 0.96532 0.48637 0.86793 0.0
C1159 C 0.96794 0.47833 0.83099 0.0
C1160 C 0.93362 0.49045 0.86422 0.0
C1161 C 0.91908 0.48843 0.84416 0.0
H1162 H 0.58289 0.46865 0.8094 0.0
H1163 H 0.47417 0.44361 0.78274 0.0
H1164 H 0.45397 0.44631 0.81676 0.0
H1165 H 0.46581 0.45279 0.85395 0.0
H1166 H 0.57449 0.47901 0.88133 0.0
H1167 H 0.59586 0.47839 0.84725 0.0
C1168 C 0.55499 0.46428 0.81109 0.0
C1169 C 0.52997 0.45562 0.79356 0.0
C1170 C 0.54336 0.46566 0.83082 0.0
C1171 C 0.49378 0.44977 0.79599 0.0
C1172 C 0.4822 0.45138 0.81544 0.0
C1173 C 0.49441 0.45901 0.85255 0.0
C1174 C 0.51844 0.46596 0.87027 0.0
C1175 C 0.50656 0.45884 0.83295 0.0
C1176 C 0.55515 0.47309 0.868 0.0
C1177 C 0.5675 0.47297 0.84849 0.0
H1178 H 0.58745 0.08687 0.8203 0.0
H1179 H 0.47813 0.01194 0.78851 0.0
H1180 H 0.45392 0.98557 0.82038 0.0
H1181 H 0.46277 0.98478 0.85736 0.0
H1182 H 0.57175 0.05853 0.88977 0.0
H1183 H 0.59683 0.08451 0.85778 0.0
C1184 C 0.55847 0.06453 0.82037 0.0
C1185 C 0.53459 0.05166 0.80203 0.0
C1186 C 0.54449 0.04945 0.83891 0.0
C1187 C 0.497 0.0228 0.80242 0.0
C1188 C 0.4831 0.00758 0.82065 0.0
C1189 C 0.49216 0.00617 0.85745 0.0
C1190 C 0.51523 0.01954 0.87604 0.0
C1191 C 0.50645 0.02086 0.839 0.0
C1192 C 0.55311 0.04793 0.87579 0.0
C1193 C 0.56758 0.06268 0.85744 0.0
H1194 H 0.10045 0.25159 0.53758 0.0
H1195 H 0.20693 0.33368 0.56989 0.0
H1196 H 0.22992 0.36137 0.53804 0.0
H1197 H 0.22117 0.36047 0.50085 0.0
H1198 H 0.11482 0.27911 0.46806 0.0
H1199 H 0.09066 0.25272 0.50011 0.0
C1200 C 0.12847 0.27586 0.53764 0.0
C1201 C 0.15202 0.29041 0.55607 0.0
C1202 C 0.14175 0.29149 0.51914 0.0
C1203 C 0.1884 0.32168 0.55588 0.0
C1204 C 0.20158 0.33756 0.53767 0.0
C1205 C 0.1925 0.33733 0.50069 0.0
C1206 C 0.16997 0.32185 0.48197 0.0
C1207 C 0.17871 0.32241 0.51917 0.0
C1208 C 0.13308 0.29131 0.48214 0.0
C1209 C 0.11911 0.27634 0.50051 0.0
H1210 H 0.75986 0.83965 0.54702 0.0
H1211 H 0.681 0.87243 0.5672 0.0
H1212 H 0.6557 0.8656 0.53179 0.0
H1213 H 0.6582 0.85366 0.49518 0.0
H1214 H 0.73624 0.82001 0.47462 0.0
H1215 H 0.75982 0.82402 0.51017 0.0
C1216 C 0.73674 0.8447 0.54366 0.0
C1217 C 0.72242 0.8567 0.55967 0.0
C1218 C 0.72245 0.84091 0.52325 0.0
C1219 C 0.69279 0.86362 0.5551 0.0
C1220 C 0.67826 0.85964 0.53489 0.0
C1221 C 0.67989 0.8465 0.49845 0.0
C1222 C 0.69539 0.83652 0.48226 0.0
C1223 C 0.69321 0.84879 0.51884 0.0
C1224 C 0.7241 0.82819 0.4868 0.0
C1225 C 0.73747 0.83029 0.50711 0.0
H1226 H 0.18674 0.88151 0.55633 0.0
H1227 H 0.07175 0.84754 0.53706 0.0
H1228 H 0.08411 0.8434 0.50118 0.0
H1229 H 0.12831 0.85109 0.47517 0.0
H1230 H 0.24411 0.88899 0.49512 0.0
H1231 H 0.23065 0.89021 0.53074 0.0
C1232 C 0.16438 0.87356 0.54431 0.0
C1233 C 0.12841 0.8651 0.54949 0.0
C1234 C 0.17185 0.87198 0.52375 0.0
C1235 C 0.09963 0.85388 0.53363 0.0
C1236 C 0.10676 0.8518 0.51306 0.0
C1237 C 0.15067 0.85991 0.4873 0.0
C1238 C 0.18716 0.86965 0.48233 0.0
C1239 C 0.14289 0.8611 0.50792 0.0
C1240 C 0.21561 0.88058 0.49836 0.0
C1241 C 0.20803 0.88156 0.5188 0.0
H1242 H 0.61181 0.8459 0.12873 0.0
H1243 H 0.53405 0.72754 0.13354 0.0
H1244 H 0.55247 0.73584 0.17023 0.0
H1245 H 0.59338 0.77565 0.20049 0.0
H1246 H 0.67237 0.89375 0.19591 0.0
H1247 H 0.65071 0.88677 0.15967 0.0
C1248 C 0.59865 0.82212 0.13791 0.0
C1249 C 0.57191 0.78611 0.12844 0.0
C1250 C 0.6097 0.827 0.159 0.0
C1251 C 0.55516 0.75541 0.14045 0.0
C1252 C 0.56556 0.76015 0.16143 0.0
C1253 C 0.60537 0.80002 0.19165 0.0
C1254 C 0.63443 0.83513 0.20085 0.0
C1255 C 0.59319 0.79566 0.17081 0.0
C1256 C 0.65016 0.86632 0.18911 0.0
C1257 C 0.63776 0.86236 0.16841 0.0
H1258 H 0.14245 0.80056 0.12626 0.0
H1259 H 0.26142 0.8492 0.14196 0.0
H1260 H 0.25264 0.85709 0.17821 0.0
H1261 H 0.21025 0.84646 0.20569 0.0
H1262 H 0.0909 0.79438 0.18933 0.0
H1263 H 0.1008 0.79142 0.1532 0.0
C1264 C 0.16652 0.81287 0.13761 0.0
C1265 C 0.20248 0.82391 0.1314 0.0
C1266 C 0.16114 0.81651 0.15837 0.0
C1267 C 0.23344 0.84064 0.14627 0.0
C1268 C 0.22838 0.84484 0.16703 0.0
C1269 C 0.18642 0.83436 0.19422 0.0
C1270 C 0.14987 0.82079 0.20033 0.0
C1271 C 0.19222 0.83222 0.17331 0.0
C1272 C 0.11939 0.80565 0.18517 0.0
C1273 C 0.12496 0.80368 0.16445 0.0
H1274 H 0.22499 0.36479 0.14137 0.0
H1275 H 0.21258 0.46323 0.15094 0.0
H1276 H 0.19682 0.44866 0.18595 0.0
H1277 H 0.18218 0.4055 0.21305 0.0
H1278 H 0.19292 0.30599 0.20333 0.0
H1279 H 0.21346 0.32322 0.16931 0.0
C1280 C 0.21946 0.38333 0.15128 0.0
C1281 C 0.2199 0.415 0.14358 0.0
C1282 C 0.20962 0.37431 0.17132 0.0
C1283 C 0.21221 0.43857 0.1565 0.0
C1284 C 0.20315 0.43022 0.17651 0.0
C1285 C 0.18954 0.38786 0.20362 0.0
C1286 C 0.18574 0.35435 0.21075 0.0
C1287 C 0.20108 0.39779 0.18397 0.0
C1288 C 0.19499 0.33163 0.19815 0.0
C1289 C 0.20694 0.34156 0.17871 0.0
H1290 H 0.75654 0.5605 0.86871 0.0
H1291 H 0.85713 0.65769 0.89805 0.0
H1292 H 0.87508 0.68233 0.86496 0.0
H1293 H 0.86356 0.67549 0.82781 0.0
H1294 H 0.76474 0.57751 0.79753 0.0
H1295 H 0.74436 0.55427 0.83079 0.0
C1296 C 0.78214 0.58721 0.86776 0.0
C1297 C 0.80564 0.60721 0.8857 0.0
C1298 C 0.79265 0.601 0.84856 0.0
C1299 C 0.83885 0.64171 0.88437 0.0
C1300 C 0.84911 0.65581 0.86549 0.0
C1301 C 0.83774 0.64883 0.82842 0.0
C1302 C 0.81599 0.6281 0.81017 0.0
C1303 C 0.82653 0.63545 0.84749 0.0
C1304 C 0.78202 0.59414 0.81134 0.0
C1305 C 0.77042 0.58074 0.83036 0.0
H1306 H 0.48109 0.26531 0.875 0.0
H1307 H 0.40548 0.14914 0.88576 0.0
H1308 H 0.37683 0.13599 0.85051 0.0
H1309 H 0.3704 0.15884 0.81738 0.0
H1310 H 0.44482 0.27574 0.80743 0.0
H1311 H 0.47625 0.28747 0.84179 0.0
C1312 C 0.45822 0.23712 0.86968 0.0
C1313 C 0.44521 0.20837 0.88308 0.0
C1314 C 0.44141 0.23001 0.8496 0.0
C1315 C 0.4162 0.17176 0.87575 0.0
C1316 C 0.39961 0.16429 0.85564 0.0
C1317 C 0.3938 0.18673 0.82267 0.0
C1318 C 0.40509 0.21645 0.80994 0.0
C1319 C 0.41161 0.19336 0.84253 0.0
C1320 C 0.43524 0.25255 0.81705 0.0
C1321 C 0.45333 0.25924 0.83665 0.0
H1322 H 0.8496 0.20812 0.8972 0.0
H1323 H 0.73749 0.1831 0.87735 0.0
H1324 H 0.74847 0.17405 0.8417 0.0
H1325 H 0.79092 0.17551 0.81601 0.0
H1326 H 0.90392 0.20354 0.83628 0.0
H1327 H 0.89157 0.20928 0.87183 0.0
C1328 C 0.8276 0.20094 0.88508 0.0
C1329 C 0.79286 0.19656 0.88999 0.0
C1330 C 0.83429 0.19636 0.86464 0.0
C1331 C 0.7644 0.18635 0.87408 0.0
C1332 C 0.77076 0.18144 0.85365 0.0
C1333 C 0.8129 0.18306 0.8282 0.0
C1334 C 0.84828 0.18894 0.8234 0.0
C1335 C 0.80576 0.18677 0.84873 0.0
C1336 C 0.87624 0.19823 0.83946 0.0
C1337 C 0.8693 0.20178 0.85984 0.0
H1338 H 0.27038 0.10512 0.45996 0.0
H1339 H 0.19652 0.14374 0.48126 0.0
H1340 H 0.22236 0.15045 0.5166 0.0
H1341 H 0.26279 0.14105 0.54162 0.0
H1342 H 0.33638 0.10212 0.52013 0.0
H1343 H 0.3131 0.09897 0.48475 0.0
C1344 C 0.25994 0.11501 0.47234 0.0
C1345 C 0.23141 0.12368 0.46799 0.0
C1346 C 0.27451 0.11827 0.49262 0.0
C1347 C 0.21869 0.13716 0.48416 0.0
C1348 C 0.23323 0.14071 0.50439 0.0
C1349 C 0.27415 0.1324 0.52919 0.0
C1350 C 0.30104 0.12147 0.53358 0.0
C1351 C 0.26075 0.1308 0.50883 0.0
C1352 C 0.31513 0.10996 0.51725 0.0
C1353 C 0.30202 0.10838 0.49699 0.0
H1354 H 0.93068 0.16451 0.48098 0.0
H1355 H 0.81978 0.13039 0.45374 0.0
H1356 H 0.79856 0.13258 0.48765 0.0
H1357 H 0.81029 0.14025 0.52498 0.0
H1358 H 0.92003 0.1709 0.5528 0.0
H1359 H 0.94311 0.17465 0.51889 0.0
C1360 C 0.90211 0.15824 0.48257 0.0
C1361 C 0.87678 0.14739 0.46498 0.0
C1362 C 0.88983 0.15865 0.50221 0.0
C1363 C 0.83967 0.13881 0.46712 0.0
C1364 C 0.82752 0.13993 0.48649 0.0
C1365 C 0.83922 0.14754 0.52367 0.0
C1366 C 0.86321 0.15487 0.54148 0.0
C1367 C 0.85211 0.14902 0.50414 0.0
C1368 C 0.90091 0.16527 0.53941 0.0
C1369 C 0.91411 0.16723 0.51999 0.0
H1370 H 0.86927 0.77202 0.47748 0.0
H1371 H 0.88549 0.6794 0.45666 0.0
H1372 H 0.8743 0.65579 0.49049 0.0
H1373 H 0.85574 0.65911 0.52529 0.0
H1374 H 0.83908 0.75147 0.54604 0.0
H1375 H 0.85472 0.77765 0.513 0.0
C1376 C 0.87047 0.74675 0.4804 0.0
C1377 C 0.8779 0.72731 0.46456 0.0
C1378 C 0.86376 0.73321 0.49984 0.0
C1379 C 0.88003 0.69498 0.46864 0.0
C1380 C 0.87338 0.68132 0.48793 0.0
C1381 C 0.85562 0.68501 0.52255 0.0
C1382 C 0.84597 0.70316 0.53799 0.0
C1383 C 0.86455 0.69982 0.50352 0.0
C1384 C 0.84658 0.73707 0.53442 0.0
C1385 C 0.85532 0.75193 0.5155 0.0
loop_
_geom_bond_atom_site_label_1
_geom_bond_atom_site_label_2
_geom_bond_distance
_geom_bond_site_symmetry_2
_ccdc_geom_bond_type
H0 C3 0.931 . S
H1 C6 0.928 . S
H2 C8 0.930 . S
C3 H0 0.931 . S
C3 C4 1.413 . S
C3 C5 1.360 . S
C4 C3 1.413 . S
C4 C8 1.429 . S
C5 C3 1.360 . S
C5 C6 1.372 . S
C6 H1 0.928 . S
C6 C5 1.372 . S
C6 C7 1.404 . S
C7 C6 1.404 . S
C7 C8 1.391 . S
C8 H2 0.930 . S
C8 C4 1.429 . S
C8 C7 1.391 . S
H9 C12 0.931 . S
H10 C15 0.928 . S
H11 C17 0.930 . S
C12 H9 0.931 . S
C12 C13 1.413 . S
C12 C14 1.360 . S
C13 C12 1.413 . S
C13 C17 1.429 . S
C14 C12 1.360 . S
C14 C15 1.372 . S
C15 H10 0.928 . S
C15 C14 1.372 . S
C15 C16 1.404 . S
C16 C15 1.404 . S
C16 C17 1.391 . S
C17 H11 0.930 . S
C17 C13 1.429 . S
C17 C16 1.391 . S
H18 C21 0.931 . S
H19 C24 0.928 . S
H20 C26 0.930 . S
C21 H18 0.931 . S
C21 C22 1.413 . S
C21 C23 1.360 . S
C22 C21 1.413 . S
C22 C26 1.429 . S
C23 C21 1.360 . S
C23 C24 1.372 . S
C24 H19 0.928 . S
C24 C23 1.372 . S
C24 C25 1.404 . S
C25 C24 1.404 . S
C25 C26 1.391 . S
C26 H20 0.930 . S
C26 C22 1.429 . S
C26 C25 1.391 . S
H27 C30 0.931 . S
H28 C33 0.928 . S
H29 C35 0.930 . S
C30 H27 0.931 . S
C30 C31 1.413 . S
C30 C32 1.360 . S
C31 C30 1.413 . S
C31 C35 1.429 . S
C32 C30 1.360 . S
C32 C33 1.372 . S
C33 H28 0.928 . S
C33 C32 1.372 . S
C33 C34 1.404 . S
C34 C33 1.404 . S
C34 C35 1.391 . S
C35 H29 0.930 . S
C35 C31 1.429 . S
C35 C34 1.391 . S
H36 C39 0.931 . S
H37 C42 0.928 . S
H38 C44 0.930 . S
C39 H36 0.931 . S
C39 C40 1.413 . S
C39 C41 1.360 . S
C40 C39 1.413 . S
C40 C44 1.429 . S
C41 C39 1.360 . S
C41 C42 1.372 . S
C42 H37 0.928 . S
C42 C41 1.372 . S
C42 C43 1.404 . S
C43 C42 1.404 . S
C43 C44 1.391 . S
C44 H38 0.930 . S
C44 C40 1.429 . S
C44 C43 1.391 . S
H45 C48 0.931 . S
H46 C51 0.928 . S
H47 C53 0.930 . S
C48 H45 0.931 . S
C48 C49 1.413 . S
C48 C50 1.360 . S
C49 C48 1.413 . S
C49 C53 1.429 . S
C50 C48 1.360 . S
C50 C51 1.372 . S
C51 H46 0.928 . S
C51 C50 1.372 . S
C51 C52 1.404 . S
C52 C51 1.404 . S
C52 C53 1.391 . S
C53 H47 0.930 . S
C53 C49 1.429 . S
C53 C52 1.391 . S
H54 C57 0.931 . S
H55 C60 0.928 . S
H56 C62 0.930 . S
C57 H54 0.931 . S
C57 C58 1.413 . S
C57 C59 1.360 . S
C58 C57 1.413 . S
C58 C62 1.429 . S
C59 C57 1.360 . S
C59 C60 1.372 . S
C60 H55 0.928 . S
C60 C59 1.372 . S
C60 C61 1.404 . S
C61 C60 1.404 . S
C61 C62 1.391 . S
C62 H56 0.930 . S
C62 C58 1.429 . S
C62 C61 1.391 . S
H63 C66 0.931 . S
H64 C69 0.928 . S
H65 C71 0.930 . S
C66 H63 0.931 . S
C66 C67 1.413 . S
C66 C68 1.360 . S
C67 C66 1.413 . S
C67 C71 1.429 . S
C68 C66 1.360 . S
C68 C69 1.372 . S
C69 H64 0.928 . S
C69 C68 1.372 . S
C69 C70 1.404 . S
C70 C69 1.404 . S
C70 C71 1.391 . S
C71 H65 0.930 . S
C71 C67 1.429 . S
C71 C70 1.391 . S
H72 C75 0.931 . S
H73 C78 0.928 . S
H74 C80 0.930 . S
C75 H72 0.931 . S
C75 C76 1.413 . S
C75 C77 1.360 . S
C76 C75 1.413 . S
C76 C80 1.429 . S
C77 C75 1.360 . S
C77 C78 1.372 . S
C78 H73 0.928 . S
C78 C77 1.372 . S
C78 C79 1.404 . S
C79 C78 1.404 . S
C79 C80 1.391 . S
C80 H74 0.930 . S
C80 C76 1.429 . S
C80 C79 1.391 . S
H81 C84 0.931 . S
H82 C87 0.928 . S
H83 C89 0.930 . S
C84 H81 0.931 . S
C84 C85 1.413 . S
C84 C86 1.360 . S
C85 C84 1.413 . S
C85 C89 1.429 . S
C86 C84 1.360 . S
C86 C87 1.372 . S
C87 H82 0.928 . S
C87 C86 1.372 . S
C87 C88 1.404 . S
C88 C87 1.404 . S
C88 C89 1.391 . S
C89 H83 0.930 . S
C89 C85 1.429 . S
C89 C88 1.391 . S
H90 C93 0.931 . S
H91 C96 0.928 . S
H92 C98 0.930 . S
C93 H90 0.931 . S
C93 C94 1.413 . S
C93 C95 1.360 . S
C94 C93 1.413 . S
C94 C98 1.429 . S
C95 C93 1.360 . S
C95 C96 1.372 . S
C96 H91 0.928 . S
C96 C95 1.372 . S
C96 C97 1.404 . S
C97 C96 1.404 . S
C97 C98 1.391 . S
C98 H92 0.930 . S
C98 C94 1.429 . S
C98 C97 1.391 . S
H99 C102 0.931 . S
H100 C105 0.928 . S
H101 C107 0.930 . S
C102 H99 0.931 . S
C102 C103 1.413 . S
C102 C104 1.360 . S
C103 C102 1.413 . S
C103 C107 1.429 . S
C104 C102 1.360 . S
C104 C105 1.372 . S
C105 H100 0.928 . S
C105 C104 1.372 . S
C105 C106 1.404 . S
C106 C105 1.404 . S
C106 C107 1.391 . S
C107 H101 0.930 . S
C107 C103 1.429 . S
C107 C106 1.391 . S
H108 C111 0.931 . S
H109 C114 0.928 . S
H110 C116 0.930 . S
C111 H108 0.931 . S
C111 C112 1.413 . S
C111 C113 1.360 . S
C112 C111 1.413 . S
C112 C116 1.429 . S
C113 C111 1.360 . S
C113 C114 1.372 . S
C114 H109 0.928 . S
C114 C113 1.372 . S
C114 C115 1.404 . S
C115 C114 1.404 . S
C115 C116 1.391 . S
C116 H110 0.930 . S
C116 C112 1.429 . S
C116 C115 1.391 . S
H117 C120 0.931 . S
H118 C123 0.928 . S
H119 C125 0.930 . S
C120 H117 0.931 . S
C120 C121 1.413 . S
C120 C122 1.360 . S
C121 C120 1.413 . S
C121 C125 1.429 . S
C122 C120 1.360 . S
C122 C123 1.372 . S
C123 H118 0.928 . S
C123 C122 1.372 . S
C123 C124 1.404 . S
C124 C123 1.404 . S
C124 C125 1.391 . S
C125 H119 0.930 . S
C125 C121 1.429 . S
C125 C124 1.391 . S
H126 C129 0.931 . S
H127 C132 0.928 . S
H128 C134 0.930 . S
C129 H126 0.931 . S
C129 C130 1.413 . S
C129 C131 1.360 . S
C130 C129 1.413 . S
C130 C134 1.429 . S
C131 C129 1.360 . S
C131 C132 1.372 . S
C132 H127 0.928 . S
C132 C131 1.372 . S
C132 C133 1.404 . S
C133 C132 1.404 . S
C133 C134 1.391 . S
C134 H128 0.930 . S
C134 C130 1.429 . S
C134 C133 1.391 . S
H135 C138 0.931 . S
H136 C141 0.928 . S
H137 C143 0.930 . S
C138 H135 0.931 . S
C138 C139 1.413 . S
C138 C140 1.360 . S
C139 C138 1.413 . S
C139 C143 1.429 . S
C140 C138 1.360 . S
C140 C141 1.372 . S
C141 H136 0.928 . S
C141 C140 1.372 . S
C141 C142 1.404 . S
C142 C141 1.404 . S
C142 C143 1.391 . S
C143 H137 0.930 . S
C143 C139 1.429 . S
C143 C142 1.391 . S
H144 C147 0.931 . S
H145 C150 0.928 . S
H146 C152 0.930 . S
C147 H144 0.931 . S
C147 C148 1.413 . S
C147 C149 1.360 . S
C148 C147 1.413 . S
C148 C152 1.429 . S
C149 C147 1.360 . S
C149 C150 1.372 . S
C150 H145 0.928 . S
C150 C149 1.372 . S
C150 C151 1.404 . S
C151 C150 1.404 . S
C151 C152 1.391 . S
C152 H146 0.930 . S
C152 C148 1.429 . S
C152 C151 1.391 . S
H153 C156 0.931 . S
H154 C159 0.928 . S
H155 C161 0.930 . S
C156 H153 0.931 . S
C156 C157 1.413 . S
C156 C158 1.360 . S
C157 C156 1.413 . S
C157 C161 1.429 . S
C158 C156 1.360 . S
C158 C159 1.372 . S
C159 H154 0.928 . S
C159 C158 1.372 . S
C159 C160 1.404 . S
C160 C159 1.404 . S
C160 C161 1.391 . S
C161 H155 0.930 . S
C161 C157 1.429 . S
C161 C160 1.391 . S
C162 Eu163 2.835 . S
C162 C164 1.500 . S
C162 O182 1.257 1_545 S
C162 O183 1.260 . S
Eu163 C162 2.835 . S
Eu163 O182 2.473 1_545 S
Eu163 O183 2.480 . S
Eu163 O184 2.430 . S
Eu163 O185 2.670 1_554 S
Eu163 O186 2.394 1_545 S
Eu163 O191 2.355 1_545 S
Eu163 O193 2.374 . S
C164 C162 1.500 . S
C164 C165 1.377 . S
C164 C169 1.377 1_545 S
C165 C164 1.377 . S
C165 C166 1.395 . S
C165 H194 0.931 . S
C166 C165 1.395 . S
C166 C167 1.383 1_545 S
C166 H195 0.931 . S
C167 C166 1.383 1_565 S
C167 C168 1.394 . S
C168 C167 1.394 . S
C168 C169 1.378 . S
C168 H196 0.931 . S
C169 C164 1.377 1_565 S
C169 C168 1.378 . S
C169 H197 0.931 . S
C170 O184 1.263 1_556 S
C170 O185 1.268 . S
C171 O186 1.251 . S
C171 O187 1.251 1_554 S
C172 Eu173 2.835 . S
C172 C174 1.500 . S
C172 O188 1.257 1_565 S
C172 O189 1.260 . S
Eu173 C172 2.835 . S
Eu173 O185 2.355 1_565 S
Eu173 O187 2.374 . S
Eu173 O188 2.473 1_565 S
Eu173 O189 2.480 . S
Eu173 O190 2.430 . S
Eu173 O191 2.670 1_556 S
Eu173 O192 2.394 1_565 S
C174 C172 1.500 . S
C174 C175 1.377 . S
C174 C179 1.377 1_565 S
C175 C174 1.377 . S
C175 C176 1.395 . S
C175 H198 0.931 . S
C176 C175 1.395 . S
C176 C177 1.383 1_565 S
C176 H199 0.931 . S
C177 C176 1.383 1_545 S
C177 C178 1.394 . S
C178 C177 1.394 . S
C178 C179 1.378 . S
C178 H200 0.931 . S
C179 C174 1.377 1_545 S
C179 C178 1.378 . S
C179 H201 0.931 . S
C180 O190 1.259 1_554 S
C180 O191 1.270 . S
C181 O192 1.251 . S
C181 O193 1.251 1_556 S
O182 C162 1.257 1_565 S
O182 Eu163 2.473 1_565 S
O183 C162 1.260 . S
O183 Eu163 2.480 . S
O184 Eu163 2.430 . S
O184 C170 1.263 1_554 S
O185 Eu163 2.670 1_556 S
O185 C170 1.268 . S
O185 Eu173 2.355 1_545 S
O186 Eu163 2.394 1_565 S
O186 C171 1.251 . S
O187 C171 1.251 1_556 S
O187 Eu173 2.374 . S
O188 C172 1.257 1_545 S
O188 Eu173 2.473 1_545 S
O189 C172 1.260 . S
O189 Eu173 2.480 . S
O190 Eu173 2.430 . S
O190 C180 1.259 1_556 S
O191 Eu163 2.355 1_565 S
O191 Eu173 2.670 1_554 S
O191 C180 1.270 . S
O192 Eu173 2.394 1_545 S
O192 C181 1.251 . S
O193 Eu163 2.374 . S
O193 C181 1.251 1_554 S
H194 C165 0.931 . S
H195 C166 0.931 . S
H196 C168 0.931 . S
H197 C169 0.931 . S
H198 C175 0.931 . S
H199 C176 0.931 . S
H200 C178 0.931 . S
H201 C179 0.931 . S
C202 Eu203 2.835 . S
C202 C204 1.500 1_655 S
C202 O222 1.257 1_655 S
C202 O223 1.260 . S
Eu203 C202 2.835 . S
Eu203 O222 2.473 1_655 S
Eu203 O223 2.480 . S
Eu203 O224 2.430 . S
Eu203 O225 2.670 1_554 S
Eu203 O226 2.394 1_655 S
Eu203 O231 2.355 1_655 S
Eu203 O233 2.374 . S
C204 C202 1.500 1_455 S
C204 C205 1.377 1_455 S
C204 C209 1.377 . S
C205 C204 1.377 1_655 S
C205 C206 1.395 . S
C205 H234 0.931 . S
C206 C205 1.395 . S
C206 C207 1.383 1_655 S
C206 H235 0.931 . S
C207 C206 1.383 1_455 S
C207 C208 1.394 . S
C208 C207 1.394 . S
C208 C209 1.378 . S
C208 H236 0.931 . S
C209 C204 1.377 . S
C209 C208 1.378 . S
C209 H237 0.931 . S
C210 O224 1.259 1_556 S
C210 O225 1.270 . S
C211 O226 1.251 . S
C211 O227 1.251 . S
C212 Eu213 2.835 . S
C212 C214 1.500 1_455 S
C212 O228 1.257 1_455 S
C212 O229 1.260 . S
Eu213 C212 2.835 . S
Eu213 O225 2.355 1_455 S
Eu213 O227 2.374 1_556 S
Eu213 O228 2.473 1_455 S
Eu213 O229 2.480 . S
Eu213 O230 2.430 . S
Eu213 O231 2.670 1_556 S
Eu213 O232 2.394 1_455 S
C214 C212 1.500 1_655 S
C214 C215 1.377 1_655 S
C214 C219 1.377 . S
C215 C214 1.377 1_455 S
C215 C216 1.395 . S
C215 H238 0.931 . S
C216 C215 1.395 . S
C216 C217 1.383 1_455 S
C216 H239 0.931 . S
C217 C216 1.383 1_655 S
C217 C218 1.394 . S
C218 C217 1.394 . S
C218 C219 1.378 . S
C218 H240 0.931 . S
C219 C214 1.377 . S
C219 C218 1.378 . S
C219 H241 0.931 . S
C220 O230 1.259 1_554 S
C220 O231 1.270 . S
C221 O232 1.251 . S
C221 O233 1.251 1_556 S
O222 C202 1.257 1_455 S
O222 Eu203 2.473 1_455 S
O223 C202 1.260 . S
O223 Eu203 2.480 . S
O224 Eu203 2.430 . S
O224 C210 1.259 1_554 S
O225 Eu203 2.670 1_556 S
O225 C210 1.270 . S
O225 Eu213 2.355 1_655 S
O226 Eu203 2.394 1_455 S
O226 C211 1.251 . S
O227 C211 1.251 . S
O227 Eu213 2.374 1_554 S
O228 C212 1.257 1_655 S
O228 Eu213 2.473 1_655 S
O229 C212 1.260 . S
O229 Eu213 2.480 . S
O230 Eu213 2.430 . S
O230 C220 1.259 1_556 S
O231 Eu203 2.355 1_455 S
O231 Eu213 2.670 1_554 S
O231 C220 1.270 . S
O232 Eu213 2.394 1_655 S
O232 C221 1.251 . S
O233 Eu203 2.374 . S
O233 C221 1.251 1_554 S
H234 C205 0.931 . S
H235 C206 0.931 . S
H236 C208 0.931 . S
H237 C209 0.931 . S
H238 C215 0.931 . S
H239 C216 0.931 . S
H240 C218 0.931 . S
H241 C219 0.931 . S
C242 Eu243 2.835 . S
C242 C244 1.500 . S
C242 O262 1.257 . S
C242 O263 1.260 . S
Eu243 C242 2.835 . S
Eu243 O262 2.473 . S
Eu243 O263 2.480 . S
Eu243 O264 2.430 . S
Eu243 O265 2.670 1_556 S
Eu243 O266 2.394 . S
Eu243 O271 2.355 . S
Eu243 O273 2.374 1_556 S
C244 C242 1.500 . S
C244 C245 1.377 . S
C244 C249 1.377 . S
C245 C244 1.377 . S
C245 C246 1.395 . S
C245 H274 0.931 . S
C246 C245 1.395 . S
C246 C247 1.383 . S
C246 H275 0.931 . S
C247 C246 1.383 . S
C247 C248 1.394 . S
C248 C247 1.394 . S
C248 C249 1.378 . S
C248 H276 0.931 . S
C249 C244 1.377 . S
C249 C248 1.378 . S
C249 H277 0.931 . S
C250 O264 1.259 1_554 S
C250 O265 1.270 . S
C251 O266 1.251 . S
C251 O267 1.251 1_556 S
C252 Eu253 2.835 . S
C252 C254 1.500 . S
C252 O268 1.257 . S
C252 O269 1.260 . S
Eu253 C252 2.835 . S
Eu253 O265 2.355 . S
Eu253 O267 2.374 . S
Eu253 O268 2.473 . S
Eu253 O269 2.480 . S
Eu253 O270 2.430 . S
Eu253 O271 2.670 1_554 S
Eu253 O272 2.394 . S
C254 C252 1.500 . S
C254 C255 1.377 . S
C254 C259 1.377 . S
C255 C254 1.377 . S
C255 C256 1.395 . S
C255 H278 0.931 . S
C256 C255 1.395 . S
C256 C257 1.383 . S
C256 H279 0.931 . S
C257 C256 1.383 . S
C257 C258 1.394 . S
C258 C257 1.394 . S
C258 C259 1.378 . S
C258 H280 0.931 . S
C259 C254 1.377 . S
C259 C258 1.378 . S
C259 H281 0.931 . S
C260 O270 1.259 1_556 S
C260 O271 1.270 . S
C261 O272 1.251 . S
C261 O273 1.251 . S
O262 C242 1.257 . S
O262 Eu243 2.473 . S
O263 C242 1.260 . S
O263 Eu243 2.480 . S
O264 Eu243 2.430 . S
O264 C250 1.259 1_556 S
O265 Eu243 2.670 1_554 S
O265 C250 1.270 . S
O265 Eu253 2.355 . S
O266 Eu243 2.394 . S
O266 C251 1.251 . S
O267 C251 1.251 1_554 S
O267 Eu253 2.374 . S
O268 C252 1.257 . S
O268 Eu253 2.473 . S
O269 C252 1.260 . S
O269 Eu253 2.480 . S
O270 Eu253 2.430 . S
O270 C260 1.259 1_554 S
O271 Eu243 2.355 . S
O271 Eu253 2.670 1_556 S
O271 C260 1.270 . S
O272 Eu253 2.394 . S
O272 C261 1.251 . S
O273 Eu243 2.374 1_554 S
O273 C261 1.251 . S
H274 C245 0.931 . S
H275 C246 0.931 . S
H276 C248 0.931 . S
H277 C249 0.931 . S
H278 C255 0.931 . S
H279 C256 0.931 . S
H280 C258 0.931 . S
H281 C259 0.931 . S
C282 Eu283 2.835 . S
C282 C284 1.500 . S
C282 O302 1.257 . S
C282 O303 1.260 . S
Eu283 C282 2.835 . S
Eu283 O302 2.473 . S
Eu283 O303 2.480 . S
Eu283 O304 2.430 . S
Eu283 O305 2.670 . S
Eu283 O306 2.394 . S
Eu283 O311 2.355 . S
Eu283 O313 2.374 . S
C284 C282 1.500 . S
C284 C285 1.377 . S
C284 C289 1.377 . S
C285 C284 1.377 . S
C285 C286 1.395 . S
C285 H314 0.931 . S
C286 C285 1.395 . S
C286 C287 1.383 . S
C286 H315 0.931 . S
C287 C286 1.383 . S
C287 C288 1.394 . S
C288 C287 1.394 . S
C288 C289 1.378 . S
C288 H316 0.931 . S
C289 C284 1.377 . S
C289 C288 1.378 . S
C289 H317 0.931 . S
C290 O304 1.259 . S
C290 O305 1.270 . S
C291 O306 1.251 . S
C291 O307 1.251 . S
C292 Eu293 2.835 . S
C292 C294 1.500 . S
C292 O308 1.257 . S
C292 O309 1.260 . S
Eu293 C292 2.835 . S
Eu293 O305 2.355 . S
Eu293 O307 2.374 . S
Eu293 O308 2.473 . S
Eu293 O309 2.480 . S
Eu293 O310 2.430 . S
Eu293 O311 2.670 . S
Eu293 O312 2.394 . S
C294 C292 1.500 . S
C294 C295 1.377 . S
C294 C299 1.377 . S
C295 C294 1.377 . S
C295 C296 1.395 . S
C295 H318 0.931 . S
C296 C295 1.395 . S
C296 C297 1.383 . S
C296 H319 0.931 . S
C297 C296 1.383 . S
C297 C298 1.394 . S
C298 C297 1.394 . S
C298 C299 1.378 . S
C298 H320 0.931 . S
C299 C294 1.377 . S
C299 C298 1.378 . S
C299 H321 0.931 . S
C300 O310 1.259 . S
C300 O311 1.270 . S
C301 O312 1.251 . S
C301 O313 1.251 . S
O302 C282 1.257 . S
O302 Eu283 2.473 . S
O303 C282 1.260 . S
O303 Eu283 2.480 . S
O304 Eu283 2.430 . S
O304 C290 1.259 . S
O305 Eu283 2.670 . S
O305 C290 1.270 . S
O305 Eu293 2.355 . S
O306 Eu283 2.394 . S
O306 C291 1.251 . S
O307 C291 1.251 . S
O307 Eu293 2.374 . S
O308 C292 1.257 . S
O308 Eu293 2.473 . S
O309 C292 1.260 . S
O309 Eu293 2.480 . S
O310 Eu293 2.430 . S
O310 C300 1.259 . S
O311 Eu283 2.355 . S
O311 Eu293 2.670 . S
O311 C300 1.270 . S
O312 Eu293 2.394 . S
O312 C301 1.251 . S
O313 Eu283 2.374 . S
O313 C301 1.251 . S
H314 C285 0.931 . S
H315 C286 0.931 . S
H316 C288 0.931 . S
H317 C289 0.931 . S
H318 C295 0.931 . S
H319 C296 0.931 . S
H320 C298 0.931 . S
H321 C299 0.931 . S
C322 Eu323 2.835 . S
C322 C324 1.500 . S
C322 O342 1.257 . S
C322 O343 1.260 . S
Eu323 C322 2.835 . S
Eu323 O342 2.473 . S
Eu323 O343 2.480 . S
Eu323 O344 2.430 . S
Eu323 O345 2.670 . S
Eu323 O346 2.394 . S
Eu323 O351 2.355 . S
Eu323 O353 2.374 . S
C324 C322 1.500 . S
C324 C325 1.377 . S
C324 C329 1.377 . S
C325 C324 1.377 . S
C325 C326 1.395 . S
C325 H354 0.931 . S
C326 C325 1.395 . S
C326 C327 1.383 . S
C326 H355 0.931 . S
C327 C326 1.383 . S
C327 C328 1.394 . S
C328 C327 1.394 . S
C328 C329 1.378 . S
C328 H356 0.931 . S
C329 C324 1.377 . S
C329 C328 1.378 . S
C329 H357 0.931 . S
C330 O344 1.259 . S
C330 O345 1.270 . S
C331 O346 1.251 . S
C331 O347 1.251 . S
C332 Eu333 2.835 . S
C332 C334 1.500 . S
C332 O348 1.257 . S
C332 O349 1.260 . S
Eu333 C332 2.835 . S
Eu333 O345 2.355 . S
Eu333 O347 2.374 . S
Eu333 O348 2.473 . S
Eu333 O349 2.480 . S
Eu333 O350 2.430 . S
Eu333 O351 2.670 . S
Eu333 O352 2.394 . S
C334 C332 1.500 . S
C334 C335 1.377 . S
C334 C339 1.377 . S
C335 C334 1.377 . S
C335 C336 1.395 . S
C335 H358 0.931 . S
C336 C335 1.395 . S
C336 C337 1.383 . S
C336 H359 0.931 . S
C337 C336 1.383 . S
C337 C338 1.394 . S
C338 C337 1.394 . S
C338 C339 1.378 . S
C338 H360 0.931 . S
C339 C334 1.377 . S
C339 C338 1.378 . S
C339 H361 0.931 . S
C340 O350 1.259 . S
C340 O351 1.270 . S
C341 O352 1.251 . S
C341 O353 1.251 . S
O342 C322 1.257 . S
O342 Eu323 2.473 . S
O343 C322 1.260 . S
O343 Eu323 2.480 . S
O344 Eu323 2.430 . S
O344 C330 1.259 . S
O345 Eu323 2.670 . S
O345 C330 1.270 . S
O345 Eu333 2.355 . S
O346 Eu323 2.394 . S
O346 C331 1.251 . S
O347 C331 1.251 . S
O347 Eu333 2.374 . S
O348 C332 1.257 . S
O348 Eu333 2.473 . S
O349 C332 1.260 . S
O349 Eu333 2.480 . S
O350 Eu333 2.430 . S
O350 C340 1.259 . S
O351 Eu323 2.355 . S
O351 Eu333 2.670 . S
O351 C340 1.270 . S
O352 Eu333 2.394 . S
O352 C341 1.251 . S
O353 Eu323 2.374 . S
O353 C341 1.251 . S
H354 C325 0.931 . S
H355 C326 0.931 . S
H356 C328 0.931 . S
H357 C329 0.931 . S
H358 C335 0.931 . S
H359 C336 0.931 . S
H360 C338 0.931 . S
H361 C339 0.931 . S
C362 Eu363 2.835 . S
C362 C364 1.500 . S
C362 O382 1.257 . S
C362 O383 1.260 . S
Eu363 C362 2.835 . S
Eu363 O382 2.473 . S
Eu363 O383 2.480 . S
Eu363 O384 2.430 . S
Eu363 O385 2.670 . S
Eu363 O386 2.394 . S
Eu363 O391 2.355 . S
Eu363 O393 2.374 . S
C364 C362 1.500 . S
C364 C365 1.377 . S
C364 C369 1.377 . S
C365 C364 1.377 . S
C365 C366 1.395 . S
C365 H394 0.931 . S
C366 C365 1.395 . S
C366 C367 1.383 . S
C366 H395 0.931 . S
C367 C366 1.383 . S
C367 C368 1.394 . S
C368 C367 1.394 . S
C368 C369 1.378 . S
C368 H396 0.931 . S
C369 C364 1.377 . S
C369 C368 1.378 . S
C369 H397 0.931 . S
C370 O384 1.259 . S
C370 O385 1.270 . S
C371 O386 1.251 . S
C371 O387 1.251 . S
C372 Eu373 2.835 . S
C372 C374 1.500 . S
C372 O388 1.257 . S
C372 O389 1.260 . S
Eu373 C372 2.835 . S
Eu373 O385 2.355 . S
Eu373 O387 2.374 . S
Eu373 O388 2.473 . S
Eu373 O389 2.480 . S
Eu373 O390 2.430 . S
Eu373 O391 2.670 . S
Eu373 O392 2.394 . S
C374 C372 1.500 . S
C374 C375 1.377 . S
C374 C379 1.377 . S
C375 C374 1.377 . S
C375 C376 1.395 . S
C375 H398 0.931 . S
C376 C375 1.395 . S
C376 C377 1.383 . S
C376 H399 0.931 . S
C377 C376 1.383 . S
C377 C378 1.394 . S
C378 C377 1.394 . S
C378 C379 1.378 . S
C378 H400 0.931 . S
C379 C374 1.377 . S
C379 C378 1.378 . S
C379 H401 0.931 . S
C380 O390 1.259 . S
C380 O391 1.270 . S
C381 O392 1.251 . S
C381 O393 1.251 . S
O382 C362 1.257 . S
O382 Eu363 2.473 . S
O383 C362 1.260 . S
O383 Eu363 2.480 . S
O384 Eu363 2.430 . S
O384 C370 1.259 . S
O385 Eu363 2.670 . S
O385 C370 1.270 . S
O385 Eu373 2.355 . S
O386 Eu363 2.394 . S
O386 C371 1.251 . S
O387 C371 1.251 . S
O387 Eu373 2.374 . S
O388 C372 1.257 . S
O388 Eu373 2.473 . S
O389 C372 1.260 . S
O389 Eu373 2.480 . S
O390 Eu373 2.430 . S
O390 C380 1.259 . S
O391 Eu363 2.355 . S
O391 Eu373 2.670 . S
O391 C380 1.270 . S
O392 Eu373 2.394 . S
O392 C381 1.251 . S
O393 Eu363 2.374 . S
O393 C381 1.251 . S
H394 C365 0.931 . S
H395 C366 0.931 . S
H396 C368 0.931 . S
H397 C369 0.931 . S
H398 C375 0.931 . S
H399 C376 0.931 . S
H400 C378 0.931 . S
H401 C379 0.931 . S
C402 Eu403 2.835 . S
C402 C404 1.500 . S
C402 O422 1.257 . S
C402 O423 1.260 . S
Eu403 C402 2.835 . S
Eu403 O422 2.473 . S
Eu403 O423 2.480 . S
Eu403 O424 2.430 . S
Eu403 O425 2.670 . S
Eu403 O426 2.394 . S
Eu403 O431 2.355 . S
Eu403 O433 2.374 . S
C404 C402 1.500 . S
C404 C405 1.377 . S
C404 C409 1.377 . S
C405 C404 1.377 . S
C405 C406 1.395 . S
C405 H434 0.931 . S
C406 C405 1.395 . S
C406 C407 1.383 . S
C406 H435 0.931 . S
C407 C406 1.383 . S
C407 C408 1.394 . S
C408 C407 1.394 . S
C408 C409 1.378 . S
C408 H436 0.931 . S
C409 C404 1.377 . S
C409 C408 1.378 . S
C409 H437 0.931 . S
C410 O424 1.259 . S
C410 O425 1.270 . S
C411 O426 1.251 . S
C411 O427 1.251 . S
C412 Eu413 2.835 . S
C412 C414 1.500 . S
C412 O428 1.257 . S
C412 O429 1.260 . S
Eu413 C412 2.835 . S
Eu413 O425 2.355 . S
Eu413 O427 2.374 . S
Eu413 O428 2.473 . S
Eu413 O429 2.480 . S
Eu413 O430 2.430 . S
Eu413 O431 2.670 . S
Eu413 O432 2.394 . S
C414 C412 1.500 . S
C414 C415 1.377 . S
C414 C419 1.377 . S
C415 C414 1.377 . S
C415 C416 1.395 . S
C415 H438 0.931 . S
C416 C415 1.395 . S
C416 C417 1.383 . S
C416 H439 0.931 . S
C417 C416 1.383 . S
C417 C418 1.394 . S
C418 C417 1.394 . S
C418 C419 1.378 . S
C418 H440 0.931 . S
C419 C414 1.377 . S
C419 C418 1.378 . S
C419 H441 0.931 . S
C420 O430 1.259 . S
C420 O431 1.270 . S
C421 O432 1.251 . S
C421 O433 1.251 . S
O422 C402 1.257 . S
O422 Eu403 2.473 . S
O423 C402 1.260 . S
O423 Eu403 2.480 . S
O424 Eu403 2.430 . S
O424 C410 1.259 . S
O425 Eu403 2.670 . S
O425 C410 1.270 . S
O425 Eu413 2.355 . S
O426 Eu403 2.394 . S
O426 C411 1.251 . S
O427 C411 1.251 . S
O427 Eu413 2.374 . S
O428 C412 1.257 . S
O428 Eu413 2.473 . S
O429 C412 1.260 . S
O429 Eu413 2.480 . S
O430 Eu413 2.430 . S
O430 C420 1.259 . S
O431 Eu403 2.355 . S
O431 Eu413 2.670 . S
O431 C420 1.270 . S
O432 Eu413 2.394 . S
O432 C421 1.251 . S
O433 Eu403 2.374 . S
O433 C421 1.251 . S
H434 C405 0.931 . S
H435 C406 0.931 . S
H436 C408 0.931 . S
H437 C409 0.931 . S
H438 C415 0.931 . S
H439 C416 0.931 . S
H440 C418 0.931 . S
H441 C419 0.931 . S
C442 Eu443 2.835 . S
C442 C444 1.500 . S
C442 O462 1.257 . S
C442 O463 1.260 . S
Eu443 C442 2.835 . S
Eu443 O462 2.473 . S
Eu443 O463 2.480 . S
Eu443 O464 2.430 . S
Eu443 O465 2.670 . S
Eu443 O466 2.394 . S
Eu443 O471 2.355 . S
Eu443 O473 2.374 . S
C444 C442 1.500 . S
C444 C445 1.377 . S
C444 C449 1.377 . S
C445 C444 1.377 . S
C445 C446 1.395 . S
C445 H474 0.931 . S
C446 C445 1.395 . S
C446 C447 1.383 . S
C446 H475 0.931 . S
C447 C446 1.383 . S
C447 C448 1.394 . S
C448 C447 1.394 . S
C448 C449 1.378 . S
C448 H476 0.931 . S
C449 C444 1.377 . S
C449 C448 1.378 . S
C449 H477 0.931 . S
C450 O464 1.259 . S
C450 O465 1.270 . S
C451 O466 1.251 . S
C451 O467 1.251 . S
C452 Eu453 2.835 . S
C452 C454 1.500 . S
C452 O468 1.257 . S
C452 O469 1.260 . S
Eu453 C452 2.835 . S
Eu453 O465 2.355 . S
Eu453 O467 2.374 . S
Eu453 O468 2.473 . S
Eu453 O469 2.480 . S
Eu453 O470 2.430 . S
Eu453 O471 2.670 . S
Eu453 O472 2.394 . S
C454 C452 1.500 . S
C454 C455 1.377 . S
C454 C459 1.377 . S
C455 C454 1.377 . S
C455 C456 1.395 . S
C455 H478 0.931 . S
C456 C455 1.395 . S
C456 C457 1.383 . S
C456 H479 0.931 . S
C457 C456 1.383 . S
C457 C458 1.394 . S
C458 C457 1.394 . S
C458 C459 1.378 . S
C458 H480 0.931 . S
C459 C454 1.377 . S
C459 C458 1.378 . S
C459 H481 0.931 . S
C460 O470 1.259 . S
C460 O471 1.270 . S
C461 O472 1.251 . S
C461 O473 1.251 . S
O462 C442 1.257 . S
O462 Eu443 2.473 . S
O463 C442 1.260 . S
O463 Eu443 2.480 . S
O464 Eu443 2.430 . S
O464 C450 1.259 . S
O465 Eu443 2.670 . S
O465 C450 1.270 . S
O465 Eu453 2.355 . S
O466 Eu443 2.394 . S
O466 C451 1.251 . S
O467 C451 1.251 . S
O467 Eu453 2.374 . S
O468 C452 1.257 . S
O468 Eu453 2.473 . S
O469 C452 1.260 . S
O469 Eu453 2.480 . S
O470 Eu453 2.430 . S
O470 C460 1.259 . S
O471 Eu443 2.355 . S
O471 Eu453 2.670 . S
O471 C460 1.270 . S
O472 Eu453 2.394 . S
O472 C461 1.251 . S
O473 Eu443 2.374 . S
O473 C461 1.251 . S
H474 C445 0.931 . S
H475 C446 0.931 . S
H476 C448 0.931 . S
H477 C449 0.931 . S
H478 C455 0.931 . S
H479 C456 0.931 . S
H480 C458 0.931 . S
H481 C459 0.931 . S
C482 Eu483 2.835 . S
C482 C484 1.500 . S
C482 O502 1.257 . S
C482 O503 1.260 . S
Eu483 C482 2.835 . S
Eu483 O502 2.473 . S
Eu483 O503 2.480 . S
Eu483 O504 2.430 . S
Eu483 O505 2.670 . S
Eu483 O506 2.394 . S
Eu483 O511 2.355 . S
Eu483 O513 2.374 . S
C484 C482 1.500 . S
C484 C485 1.377 . S
C484 C489 1.377 . S
C485 C484 1.377 . S
C485 C486 1.395 . S
C485 H514 0.931 . S
C486 C485 1.395 . S
C486 C487 1.383 . S
C486 H515 0.931 . S
C487 C486 1.383 . S
C487 C488 1.394 . S
C488 C487 1.394 . S
C488 C489 1.378 . S
C488 H516 0.931 . S
C489 C484 1.377 . S
C489 C488 1.378 . S
C489 H517 0.931 . S
C490 O504 1.259 . S
C490 O505 1.270 . S
C491 O506 1.251 . S
C491 O507 1.251 . S
C492 Eu493 2.835 . S
C492 C494 1.500 . S
C492 O508 1.257 . S
C492 O509 1.260 . S
Eu493 C492 2.835 . S
Eu493 O505 2.355 . S
Eu493 O507 2.374 . S
Eu493 O508 2.473 . S
Eu493 O509 2.480 . S
Eu493 O510 2.430 . S
Eu493 O511 2.670 . S
Eu493 O512 2.394 . S
C494 C492 1.500 . S
C494 C495 1.377 . S
C494 C499 1.377 . S
C495 C494 1.377 . S
C495 C496 1.395 . S
C495 H518 0.931 . S
C496 C495 1.395 . S
C496 C497 1.383 . S
C496 H519 0.931 . S
C497 C496 1.383 . S
C497 C498 1.394 . S
C498 C497 1.394 . S
C498 C499 1.378 . S
C498 H520 0.931 . S
C499 C494 1.377 . S
C499 C498 1.378 . S
C499 H521 0.931 . S
C500 O510 1.259 . S
C500 O511 1.270 . S
C501 O512 1.251 . S
C501 O513 1.251 . S
O502 C482 1.257 . S
O502 Eu483 2.473 . S
O503 C482 1.260 . S
O503 Eu483 2.480 . S
O504 Eu483 2.430 . S
O504 C490 1.259 . S
O505 Eu483 2.670 . S
O505 C490 1.270 . S
O505 Eu493 2.355 . S
O506 Eu483 2.394 . S
O506 C491 1.251 . S
O507 C491 1.251 . S
O507 Eu493 2.374 . S
O508 C492 1.257 . S
O508 Eu493 2.473 . S
O509 C492 1.260 . S
O509 Eu493 2.480 . S
O510 Eu493 2.430 . S
O510 C500 1.259 . S
O511 Eu483 2.355 . S
O511 Eu493 2.670 . S
O511 C500 1.270 . S
O512 Eu493 2.394 . S
O512 C501 1.251 . S
O513 Eu483 2.374 . S
O513 C501 1.251 . S
H514 C485 0.931 . S
H515 C486 0.931 . S
H516 C488 0.931 . S
H517 C489 0.931 . S
H518 C495 0.931 . S
H519 C496 0.931 . S
H520 C498 0.931 . S
H521 C499 0.931 . S
H522 C528 0.930 . S
H523 C531 0.930 . S
H524 C532 0.930 . S
H525 C533 0.930 . S
H526 C536 0.930 . S
H527 C537 0.930 . S
C528 H522 0.930 . S
C528 C529 1.355 . S
C528 C530 1.415 . S
C529 C528 1.355 . S
C529 C531 1.419 . S
C530 C528 1.415 . S
C530 C535 1.425 . S
C530 C537 1.409 . S
C531 H523 0.930 . S
C531 C529 1.419 . S
C531 C532 1.362 . S
C532 H524 0.930 . S
C532 C531 1.362 . S
C532 C535 1.409 . S
C533 H525 0.930 . S
C533 C534 1.355 . S
C533 C535 1.415 . S
C534 C533 1.355 . S
C534 C536 1.419 . S
C535 C530 1.425 . S
C535 C532 1.409 . S
C535 C533 1.415 . S
C536 H526 0.930 . S
C536 C534 1.419 . S
C536 C537 1.362 . S
C537 H527 0.930 . S
C537 C530 1.409 . S
C537 C536 1.362 . S
H538 C544 0.930 . S
H539 C547 0.930 . S
H540 C548 0.930 . S
H541 C549 0.930 . S
H542 C552 0.930 . S
H543 C553 0.930 . S
C544 H538 0.930 . S
C544 C545 1.355 . S
C544 C546 1.415 . S
C545 C544 1.355 . S
C545 C547 1.419 . S
C546 C544 1.415 . S
C546 C551 1.425 . S
C546 C553 1.409 . S
C547 H539 0.930 . S
C547 C545 1.419 . S
C547 C548 1.362 . S
C548 H540 0.930 . S
C548 C547 1.362 . S
C548 C551 1.409 . S
C549 H541 0.930 . S
C549 C550 1.355 . S
C549 C551 1.415 . S
C550 C549 1.355 . S
C550 C552 1.419 . S
C551 C546 1.425 . S
C551 C548 1.409 . S
C551 C549 1.415 . S
C552 H542 0.930 . S
C552 C550 1.419 . S
C552 C553 1.362 . S
C553 H543 0.930 . S
C553 C546 1.409 . S
C553 C552 1.362 . S
H554 C560 0.930 . S
H555 C563 0.930 . S
H556 C564 0.930 . S
H557 C565 0.930 . S
H558 C568 0.930 1_556 S
H559 C569 0.930 . S
C560 H554 0.930 . S
C560 C561 1.355 . S
C560 C562 1.415 . S
C561 C560 1.355 . S
C561 C563 1.419 . S
C562 C560 1.415 . S
C562 C567 1.425 . S
C562 C569 1.409 . S
C563 H555 0.930 . S
C563 C561 1.419 . S
C563 C564 1.362 . S
C564 H556 0.930 . S
C564 C563 1.362 . S
C564 C567 1.409 . S
C565 H557 0.930 . S
C565 C566 1.355 . S
C565 C567 1.415 . S
C566 C565 1.355 . S
C566 C568 1.419 . S
C567 C562 1.425 . S
C567 C564 1.409 . S
C567 C565 1.415 . S
C568 H558 0.930 1_554 S
C568 C566 1.419 . S
C568 C569 1.362 . S
C569 H559 0.930 . S
C569 C562 1.409 . S
C569 C568 1.362 . S
H570 C576 0.930 . S
H571 C579 0.930 . S
H572 C580 0.930 1_554 S
H573 C581 0.930 1_554 S
H574 C584 0.930 . S
H575 C585 0.930 . S
C576 H570 0.930 . S
C576 C577 1.355 . S
C576 C578 1.415 . S
C577 C576 1.355 . S
C577 C579 1.419 . S
C578 C576 1.415 . S
C578 C583 1.425 . S
C578 C585 1.409 . S
C579 H571 0.930 . S
C579 C577 1.419 . S
C579 C580 1.362 . S
C580 H572 0.930 1_556 S
C580 C579 1.362 . S
C580 C583 1.409 . S
C581 H573 0.930 1_556 S
C581 C582 1.355 . S
C581 C583 1.415 . S
C582 C581 1.355 . S
C582 C584 1.419 . S
C583 C578 1.425 . S
C583 C580 1.409 . S
C583 C581 1.415 . S
C584 H574 0.930 . S
C584 C582 1.419 . S
C584 C585 1.362 . S
C585 H575 0.930 . S
C585 C578 1.409 . S
C585 C584 1.362 . S
H586 C592 0.930 . S
H587 C595 0.930 . S
H588 C596 0.930 . S
H589 C597 0.930 . S
H590 C600 0.930 . S
H591 C601 0.930 . S
C592 H586 0.930 . S
C592 C593 1.355 . S
C592 C594 1.415 . S
C593 C592 1.355 . S
C593 C595 1.419 . S
C594 C592 1.415 . S
C594 C599 1.425 . S
C594 C601 1.409 . S
C595 H587 0.930 . S
C595 C593 1.419 . S
C595 C596 1.362 . S
C596 H588 0.930 . S
C596 C595 1.362 . S
C596 C599 1.409 . S
C597 H589 0.930 . S
C597 C598 1.355 . S
C597 C599 1.415 . S
C598 C597 1.355 . S
C598 C600 1.419 . S
C599 C594 1.425 . S
C599 C596 1.409 . S
C599 C597 1.415 . S
C600 H590 0.930 . S
C600 C598 1.419 . S
C600 C601 1.362 . S
C601 H591 0.930 . S
C601 C594 1.409 . S
C601 C600 1.362 . S
H602 C608 0.930 . S
H603 C611 0.930 . S
H604 C612 0.930 . S
H605 C613 0.930 . S
H606 C616 0.930 . S
H607 C617 0.930 . S
C608 H602 0.930 . S
C608 C609 1.355 . S
C608 C610 1.415 . S
C609 C608 1.355 . S
C609 C611 1.419 . S
C610 C608 1.415 . S
C610 C615 1.425 . S
C610 C617 1.409 1_556 S
C611 H603 0.930 . S
C611 C609 1.419 . S
C611 C612 1.362 . S
C612 H604 0.930 . S
C612 C611 1.362 . S
C612 C615 1.409 . S
C613 H605 0.930 . S
C613 C614 1.355 . S
C613 C615 1.415 . S
C614 C613 1.355 . S
C614 C616 1.419 1_556 S
C615 C610 1.425 . S
C615 C612 1.409 . S
C615 C613 1.415 . S
C616 H606 0.930 . S
C616 C614 1.419 1_554 S
C616 C617 1.362 . S
C617 H607 0.930 . S
C617 C610 1.409 1_554 S
C617 C616 1.362 . S
H618 C624 0.930 . S
H619 C627 0.930 . S
H620 C628 0.930 . S
H621 C629 0.930 . S
H622 C632 0.930 . S
H623 C633 0.930 . S
C624 H618 0.930 . S
C624 C625 1.355 . S
C624 C626 1.415 . S
C625 C624 1.355 . S
C625 C627 1.419 . S
C626 C624 1.415 . S
C626 C631 1.425 . S
C626 C633 1.409 . S
C627 H619 0.930 . S
C627 C625 1.419 . S
C627 C628 1.362 . S
C628 H620 0.930 . S
C628 C627 1.362 . S
C628 C631 1.409 . S
C629 H621 0.930 . S
C629 C630 1.355 . S
C629 C631 1.415 . S
C630 C629 1.355 . S
C630 C632 1.419 . S
C631 C626 1.425 . S
C631 C628 1.409 . S
C631 C629 1.415 . S
C632 H622 0.930 . S
C632 C630 1.419 . S
C632 C633 1.362 . S
C633 H623 0.930 . S
C633 C626 1.409 . S
C633 C632 1.362 . S
H634 C640 0.930 . S
H635 C643 0.930 . S
H636 C644 0.930 . S
H637 C645 0.930 . S
H638 C648 0.930 . S
H639 C649 0.930 . S
C640 H634 0.930 . S
C640 C641 1.355 . S
C640 C642 1.415 . S
C641 C640 1.355 . S
C641 C643 1.419 . S
C642 C640 1.415 . S
C642 C647 1.425 . S
C642 C649 1.409 . S
C643 H635 0.930 . S
C643 C641 1.419 . S
C643 C644 1.362 . S
C644 H636 0.930 . S
C644 C643 1.362 . S
C644 C647 1.409 . S
C645 H637 0.930 . S
C645 C646 1.355 . S
C645 C647 1.415 . S
C646 C645 1.355 . S
C646 C648 1.419 . S
C647 C642 1.425 . S
C647 C644 1.409 . S
C647 C645 1.415 . S
C648 H638 0.930 . S
C648 C646 1.419 . S
C648 C649 1.362 . S
C649 H639 0.930 . S
C649 C642 1.409 . S
C649 C648 1.362 . S
H650 C656 0.930 . S
H651 C659 0.930 . S
H652 C660 0.930 . S
H653 C661 0.930 . S
H654 C664 0.930 . S
H655 C665 0.930 . S
C656 H650 0.930 . S
C656 C657 1.355 . S
C656 C658 1.415 . S
C657 C656 1.355 . S
C657 C659 1.419 . S
C658 C656 1.415 . S
C658 C663 1.425 . S
C658 C665 1.409 1_556 S
C659 H651 0.930 . S
C659 C657 1.419 . S
C659 C660 1.362 . S
C660 H652 0.930 . S
C660 C659 1.362 . S
C660 C663 1.409 . S
C661 H653 0.930 . S
C661 C662 1.355 . S
C661 C663 1.415 . S
C662 C661 1.355 . S
C662 C664 1.419 1_556 S
C663 C658 1.425 . S
C663 C660 1.409 . S
C663 C661 1.415 . S
C664 H654 0.930 . S
C664 C662 1.419 1_554 S
C664 C665 1.362 . S
C665 H655 0.930 . S
C665 C658 1.409 1_554 S
C665 C664 1.362 . S
H666 C672 0.930 . S
H667 C675 0.930 . S
H668 C676 0.930 . S
H669 C677 0.930 . S
H670 C680 0.930 . S
H671 C681 0.930 . S
C672 H666 0.930 . S
C672 C673 1.355 . S
C672 C674 1.415 . S
C673 C672 1.355 . S
C673 C675 1.419 . S
C674 C672 1.415 . S
C674 C679 1.425 . S
C674 C681 1.409 . S
C675 H667 0.930 . S
C675 C673 1.419 . S
C675 C676 1.362 . S
C676 H668 0.930 . S
C676 C675 1.362 . S
C676 C679 1.409 . S
C677 H669 0.930 . S
C677 C678 1.355 . S
C677 C679 1.415 . S
C678 C677 1.355 . S
C678 C680 1.419 . S
C679 C674 1.425 . S
C679 C676 1.409 . S
C679 C677 1.415 . S
C680 H670 0.930 . S
C680 C678 1.419 . S
C680 C681 1.362 . S
C681 H671 0.930 . S
C681 C674 1.409 . S
C681 C680 1.362 . S
H682 C688 0.930 . S
H683 C691 0.930 . S
H684 C692 0.930 . S
H685 C693 0.930 . S
H686 C696 0.930 . S
H687 C697 0.930 . S
C688 H682 0.930 . S
C688 C689 1.355 . S
C688 C690 1.415 . S
C689 C688 1.355 . S
C689 C691 1.419 . S
C690 C688 1.415 . S
C690 C695 1.425 . S
C690 C697 1.409 . S
C691 H683 0.930 . S
C691 C689 1.419 . S
C691 C692 1.362 . S
C692 H684 0.930 . S
C692 C691 1.362 . S
C692 C695 1.409 . S
C693 H685 0.930 . S
C693 C694 1.355 . S
C693 C695 1.415 . S
C694 C693 1.355 . S
C694 C696 1.419 . S
C695 C690 1.425 . S
C695 C692 1.409 . S
C695 C693 1.415 . S
C696 H686 0.930 . S
C696 C694 1.419 . S
C696 C697 1.362 . S
C697 H687 0.930 . S
C697 C690 1.409 . S
C697 C696 1.362 . S
H698 C704 0.930 . S
H699 C707 0.930 . S
H700 C708 0.930 . S
H701 C709 0.930 . S
H702 C712 0.930 1_556 S
H703 C713 0.930 1_556 S
C704 H698 0.930 . S
C704 C705 1.355 . S
C704 C706 1.415 . S
C705 C704 1.355 . S
C705 C707 1.419 . S
C706 C704 1.415 . S
C706 C711 1.425 . S
C706 C713 1.409 . S
C707 H699 0.930 . S
C707 C705 1.419 . S
C707 C708 1.362 . S
C708 H700 0.930 . S
C708 C707 1.362 . S
C708 C711 1.409 . S
C709 H701 0.930 . S
C709 C710 1.355 . S
C709 C711 1.415 . S
C710 C709 1.355 . S
C710 C712 1.419 . S
C711 C706 1.425 . S
C711 C708 1.409 . S
C711 C709 1.415 . S
C712 H702 0.930 1_554 S
C712 C710 1.419 . S
C712 C713 1.362 . S
C713 H703 0.930 1_554 S
C713 C706 1.409 . S
C713 C712 1.362 . S
H714 C720 0.930 . S
H715 C723 0.930 . S
H716 C724 0.930 . S
H717 C725 0.930 . S
H718 C728 0.930 . S
H719 C729 0.930 . S
C720 H714 0.930 . S
C720 C721 1.355 . S
C720 C722 1.400 1_655 S
C721 C720 1.355 . S
C721 C723 1.419 . S
C722 C720 1.400 1_455 S
C722 C727 1.423 1_455 S
C722 C729 1.425 . S
C723 H715 0.930 . S
C723 C721 1.419 . S
C723 C724 1.362 . S
C724 H716 0.930 . S
C724 C723 1.362 . S
C724 C727 1.409 . S
C725 H717 0.930 . S
C725 C726 1.355 . S
C725 C727 1.415 1_455 S
C726 C725 1.355 . S
C726 C728 1.419 . S
C727 C722 1.423 1_655 S
C727 C724 1.409 . S
C727 C725 1.415 1_655 S
C728 H718 0.930 . S
C728 C726 1.419 . S
C728 C729 1.362 . S
C729 H719 0.930 . S
C729 C722 1.425 . S
C729 C728 1.362 . S
H730 C736 0.930 . S
H731 C739 0.930 . S
H732 C740 0.930 . S
H733 C741 0.930 . S
H734 C744 0.930 . S
H735 C745 0.930 . S
C736 H730 0.930 . S
C736 C737 1.355 . S
C736 C738 1.415 . S
C737 C736 1.355 . S
C737 C739 1.419 . S
C738 C736 1.415 . S
C738 C743 1.425 . S
C738 C745 1.409 . S
C739 H731 0.930 . S
C739 C737 1.419 . S
C739 C740 1.362 . S
C740 H732 0.930 . S
C740 C739 1.362 . S
C740 C743 1.409 . S
C741 H733 0.930 . S
C741 C742 1.355 . S
C741 C743 1.415 . S
C742 C741 1.355 . S
C742 C744 1.419 . S
C743 C738 1.425 . S
C743 C740 1.409 . S
C743 C741 1.415 . S
C744 H734 0.930 . S
C744 C742 1.419 . S
C744 C745 1.362 . S
C745 H735 0.930 . S
C745 C738 1.409 . S
C745 C744 1.362 . S
H746 C752 0.930 . S
H747 C755 0.930 . S
H748 C756 0.930 . S
H749 C757 0.930 . S
H750 C760 0.930 . S
H751 C761 0.930 . S
C752 H746 0.930 . S
C752 C753 1.355 . S
C752 C754 1.415 . S
C753 C752 1.355 . S
C753 C755 1.419 . S
C754 C752 1.415 . S
C754 C759 1.425 . S
C754 C761 1.409 . S
C755 H747 0.930 . S
C755 C753 1.419 . S
C755 C756 1.362 . S
C756 H748 0.930 . S
C756 C755 1.362 . S
C756 C759 1.409 . S
C757 H749 0.930 . S
C757 C758 1.355 . S
C757 C759 1.415 1_565 S
C758 C757 1.355 . S
C758 C760 1.419 . S
C759 C754 1.425 . S
C759 C756 1.409 . S
C759 C757 1.415 1_545 S
C760 H750 0.930 . S
C760 C758 1.419 . S
C760 C761 1.362 1_565 S
C761 H751 0.930 . S
C761 C754 1.409 . S
C761 C760 1.362 1_545 S
H762 C768 0.930 . S
H763 C771 0.930 . S
H764 C772 0.930 . S
H765 C773 0.930 . S
H766 C776 0.930 . S
H767 C777 0.930 . S
C768 H762 0.930 . S
C768 C769 1.355 . S
C768 C770 1.415 . S
C769 C768 1.355 . S
C769 C771 1.419 . S
C770 C768 1.415 . S
C770 C775 1.425 . S
C770 C777 1.409 . S
C771 H763 0.930 . S
C771 C769 1.419 . S
C771 C772 1.362 . S
C772 H764 0.930 . S
C772 C771 1.362 . S
C772 C775 1.409 . S
C773 H765 0.930 . S
C773 C774 1.355 . S
C773 C775 1.415 . S
C774 C773 1.355 . S
C774 C776 1.419 . S
C775 C770 1.425 . S
C775 C772 1.409 . S
C775 C773 1.415 . S
C776 H766 0.930 . S
C776 C774 1.419 . S
C776 C777 1.362 . S
C777 H767 0.930 . S
C777 C770 1.409 . S
C777 C776 1.362 . S
H778 C784 0.930 . S
H779 C787 0.930 . S
H780 C788 0.930 . S
H781 C789 0.930 . S
H782 C792 0.930 . S
H783 C793 0.930 . S
C784 H778 0.930 . S
C784 C785 1.355 . S
C784 C786 1.415 . S
C785 C784 1.355 . S
C785 C787 1.419 . S
C786 C784 1.415 . S
C786 C791 1.425 . S
C786 C793 1.409 . S
C787 H779 0.930 . S
C787 C785 1.419 . S
C787 C788 1.362 . S
C788 H780 0.930 . S
C788 C787 1.362 . S
C788 C791 1.409 . S
C789 H781 0.930 . S
C789 C790 1.355 . S
C789 C791 1.415 . S
C790 C789 1.355 . S
C790 C792 1.419 . S
C791 C786 1.425 . S
C791 C788 1.409 . S
C791 C789 1.415 . S
C792 H782 0.930 . S
C792 C790 1.419 . S
C792 C793 1.362 . S
C793 H783 0.930 . S
C793 C786 1.409 . S
C793 C792 1.362 . S
H794 C800 0.930 . S
H795 C803 0.930 . S
H796 C804 0.930 . S
H797 C805 0.930 . S
H798 C808 0.930 . S
H799 C809 0.930 . S
C800 H794 0.930 . S
C800 C801 1.355 . S
C800 C802 1.415 . S
C801 C800 1.355 . S
C801 C803 1.419 . S
C802 C800 1.415 . S
C802 C807 1.425 . S
C802 C809 1.409 . S
C803 H795 0.930 . S
C803 C801 1.419 . S
C803 C804 1.362 . S
C804 H796 0.930 . S
C804 C803 1.362 . S
C804 C807 1.409 . S
C805 H797 0.930 . S
C805 C806 1.355 . S
C805 C807 1.415 . S
C806 C805 1.355 . S
C806 C808 1.419 . S
C807 C802 1.425 . S
C807 C804 1.409 . S
C807 C805 1.415 . S
C808 H798 0.930 . S
C808 C806 1.419 . S
C808 C809 1.362 . S
C809 H799 0.930 . S
C809 C802 1.409 . S
C809 C808 1.362 . S
H810 C816 0.930 . S
H811 C819 0.930 . S
H812 C820 0.930 . S
H813 C821 0.930 . S
H814 C824 0.930 . S
H815 C825 0.930 . S
C816 H810 0.930 . S
C816 C817 1.355 . S
C816 C818 1.415 . S
C817 C816 1.355 . S
C817 C819 1.419 . S
C818 C816 1.415 . S
C818 C823 1.425 . S
C818 C825 1.409 . S
C819 H811 0.930 . S
C819 C817 1.419 . S
C819 C820 1.362 . S
C820 H812 0.930 . S
C820 C819 1.362 . S
C820 C823 1.409 . S
C821 H813 0.930 . S
C821 C822 1.355 . S
C821 C823 1.415 . S
C822 C821 1.355 . S
C822 C824 1.419 . S
C823 C818 1.425 . S
C823 C820 1.409 . S
C823 C821 1.415 . S
C824 H814 0.930 . S
C824 C822 1.419 . S
C824 C825 1.362 . S
C825 H815 0.930 . S
C825 C818 1.409 . S
C825 C824 1.362 . S
H826 C832 0.930 . S
H827 C835 0.930 . S
H828 C836 0.930 . S
H829 C837 0.930 . S
H830 C840 0.930 . S
H831 C841 0.930 . S
C832 H826 0.930 . S
C832 C833 1.355 . S
C832 C834 1.415 . S
C833 C832 1.355 . S
C833 C835 1.419 . S
C834 C832 1.415 . S
C834 C839 1.425 . S
C834 C841 1.409 . S
C835 H827 0.930 . S
C835 C833 1.419 . S
C835 C836 1.362 . S
C836 H828 0.930 . S
C836 C835 1.362 . S
C836 C839 1.409 . S
C837 H829 0.930 . S
C837 C838 1.355 . S
C837 C839 1.415 . S
C838 C837 1.355 . S
C838 C840 1.419 . S
C839 C834 1.425 . S
C839 C836 1.409 . S
C839 C837 1.415 . S
C840 H830 0.930 . S
C840 C838 1.419 . S
C840 C841 1.362 . S
C841 H831 0.930 . S
C841 C834 1.409 . S
C841 C840 1.362 . S
H842 C848 0.930 . S
H843 C851 0.930 . S
H844 C852 0.930 . S
H845 C853 0.930 . S
H846 C856 0.930 . S
H847 C857 0.930 . S
C848 H842 0.930 . S
C848 C849 1.355 . S
C848 C850 1.415 . S
C849 C848 1.355 . S
C849 C851 1.419 . S
C850 C848 1.415 . S
C850 C855 1.425 . S
C850 C857 1.409 . S
C851 H843 0.930 . S
C851 C849 1.419 . S
C851 C852 1.362 . S
C852 H844 0.930 . S
C852 C851 1.362 . S
C852 C855 1.409 . S
C853 H845 0.930 . S
C853 C854 1.355 . S
C853 C855 1.415 . S
C854 C853 1.355 . S
C854 C856 1.419 . S
C855 C850 1.425 . S
C855 C852 1.409 . S
C855 C853 1.415 . S
C856 H846 0.930 . S
C856 C854 1.419 . S
C856 C857 1.362 . S
C857 H847 0.930 . S
C857 C850 1.409 . S
C857 C856 1.362 . S
H858 C864 0.930 . S
H859 C867 0.930 . S
H860 C868 0.930 . S
H861 C869 0.930 . S
H862 C872 0.930 . S
H863 C873 0.912 1_545 S
C864 H858 0.930 . S
C864 C865 1.355 . S
C864 C866 1.415 . S
C865 C864 1.355 . S
C865 C867 1.419 . S
C866 C864 1.415 . S
C866 C871 1.425 . S
C866 C873 1.409 1_545 S
C867 H859 0.930 . S
C867 C865 1.419 . S
C867 C868 1.362 . S
C868 H860 0.930 . S
C868 C867 1.362 . S
C868 C871 1.409 . S
C869 H861 0.930 . S
C869 C870 1.355 . S
C869 C871 1.415 1_565 S
C870 C869 1.355 . S
C870 C872 1.419 . S
C871 C866 1.425 . S
C871 C868 1.409 . S
C871 C869 1.415 1_545 S
C872 H862 0.930 . S
C872 C870 1.419 . S
C872 C873 1.362 . S
C873 H863 0.912 1_565 S
C873 C866 1.409 1_565 S
C873 C872 1.362 . S
H874 C880 0.930 . S
H875 C883 0.930 . S
H876 C884 0.930 . S
H877 C885 0.930 . S
H878 C888 0.930 . S
H879 C889 0.930 . S
C880 H874 0.930 . S
C880 C881 1.355 . S
C880 C882 1.415 1_655 S
C881 C880 1.355 . S
C881 C883 1.419 . S
C882 C880 1.415 1_455 S
C882 C887 1.425 . S
C882 C889 1.409 . S
C883 H875 0.930 . S
C883 C881 1.419 . S
C883 C884 1.362 . S
C884 H876 0.930 . S
C884 C883 1.362 . S
C884 C887 1.409 1_655 S
C885 H877 0.930 . S
C885 C886 1.355 . S
C885 C887 1.415 . S
C886 C885 1.355 . S
C886 C888 1.419 . S
C887 C882 1.425 . S
C887 C884 1.409 1_455 S
C887 C885 1.415 . S
C888 H878 0.930 . S
C888 C886 1.419 . S
C888 C889 1.362 . S
C889 H879 0.930 . S
C889 C882 1.409 . S
C889 C888 1.362 . S
H890 C896 0.930 . S
H891 C899 0.930 . S
H892 C900 0.930 . S
H893 C901 0.930 . S
H894 C904 0.930 . S
H895 C905 0.930 . S
C896 H890 0.930 . S
C896 C897 1.355 . S
C896 C898 1.415 . S
C897 C896 1.355 . S
C897 C899 1.419 . S
C898 C896 1.415 . S
C898 C903 1.425 . S
C898 C905 1.409 . S
C899 H891 0.930 . S
C899 C897 1.419 . S
C899 C900 1.362 . S
C900 H892 0.930 . S
C900 C899 1.362 . S
C900 C903 1.409 . S
C901 H893 0.930 . S
C901 C902 1.355 . S
C901 C903 1.415 . S
C902 C901 1.355 . S
C902 C904 1.419 . S
C903 C898 1.425 . S
C903 C900 1.409 . S
C903 C901 1.415 . S
C904 H894 0.930 . S
C904 C902 1.419 . S
C904 C905 1.362 . S
C905 H895 0.930 . S
C905 C898 1.409 . S
C905 C904 1.362 . S
H906 C912 0.930 . S
H907 C915 0.930 . S
H908 C916 0.930 . S
H909 C917 0.930 . S
H910 C920 0.930 . S
H911 C921 0.930 . S
C912 H906 0.930 . S
C912 C913 1.355 . S
C912 C914 1.415 . S
C913 C912 1.355 . S
C913 C915 1.419 . S
C914 C912 1.415 . S
C914 C919 1.425 . S
C914 C921 1.409 . S
C915 H907 0.930 . S
C915 C913 1.419 . S
C915 C916 1.362 . S
C916 H908 0.930 . S
C916 C915 1.362 . S
C916 C919 1.409 . S
C917 H909 0.930 . S
C917 C918 1.355 . S
C917 C919 1.415 . S
C918 C917 1.355 . S
C918 C920 1.419 . S
C919 C914 1.425 . S
C919 C916 1.409 . S
C919 C917 1.415 . S
C920 H910 0.930 . S
C920 C918 1.419 . S
C920 C921 1.362 . S
C921 H911 0.930 . S
C921 C914 1.409 . S
C921 C920 1.362 . S
H922 C928 0.930 . S
H923 C931 0.930 . S
H924 C932 0.930 . S
H925 C933 0.930 . S
H926 C936 0.930 . S
H927 C937 0.930 . S
C928 H922 0.930 . S
C928 C929 1.355 . S
C928 C930 1.415 . S
C929 C928 1.355 . S
C929 C931 1.419 . S
C930 C928 1.415 . S
C930 C935 1.425 . S
C930 C937 1.409 . S
C931 H923 0.930 . S
C931 C929 1.419 . S
C931 C932 1.362 . S
C932 H924 0.930 . S
C932 C931 1.362 . S
C932 C935 1.409 . S
C933 H925 0.930 . S
C933 C934 1.355 . S
C933 C935 1.415 . S
C934 C933 1.355 . S
C934 C936 1.419 . S
C935 C930 1.425 . S
C935 C932 1.409 . S
C935 C933 1.415 . S
C936 H926 0.930 . S
C936 C934 1.419 . S
C936 C937 1.362 . S
C937 H927 0.930 . S
C937 C930 1.409 . S
C937 C936 1.362 . S
H938 C944 0.930 . S
H939 C947 0.930 . S
H940 C948 0.930 . S
H941 C949 0.930 . S
H942 C952 0.930 . S
H943 C953 0.930 . S
C944 H938 0.930 . S
C944 C945 1.355 . S
C944 C946 1.415 . S
C945 C944 1.355 . S
C945 C947 1.419 . S
C946 C944 1.415 . S
C946 C951 1.425 . S
C946 C953 1.409 . S
C947 H939 0.930 . S
C947 C945 1.419 . S
C947 C948 1.362 . S
C948 H940 0.930 . S
C948 C947 1.362 . S
C948 C951 1.409 . S
C949 H941 0.930 . S
C949 C950 1.355 . S
C949 C951 1.415 . S
C950 C949 1.355 . S
C950 C952 1.419 . S
C951 C946 1.425 . S
C951 C948 1.409 . S
C951 C949 1.415 . S
C952 H942 0.930 . S
C952 C950 1.419 . S
C952 C953 1.362 . S
C953 H943 0.930 . S
C953 C946 1.409 . S
C953 C952 1.362 . S
H954 C960 0.930 . S
H955 C963 0.930 . S
H956 C964 0.930 . S
H957 C965 0.930 . S
H958 C968 0.930 . S
H959 C969 0.930 . S
C960 H954 0.930 . S
C960 C961 1.355 . S
C960 C962 1.415 . S
C961 C960 1.355 . S
C961 C963 1.419 . S
C962 C960 1.415 . S
C962 C967 1.425 . S
C962 C969 1.409 1_565 S
C963 H955 0.930 . S
C963 C961 1.419 . S
C963 C964 1.362 . S
C964 H956 0.930 . S
C964 C963 1.362 . S
C964 C967 1.409 . S
C965 H957 0.930 . S
C965 C966 1.355 . S
C965 C967 1.415 1_545 S
C966 C965 1.355 . S
C966 C968 1.419 . S
C967 C962 1.425 . S
C967 C964 1.409 . S
C967 C965 1.415 1_565 S
C968 H958 0.930 . S
C968 C966 1.419 . S
C968 C969 1.362 . S
C969 H959 0.930 . S
C969 C962 1.409 1_545 S
C969 C968 1.362 . S
H970 C976 0.930 . S
H971 C979 0.930 . S
H972 C980 0.930 . S
H973 C981 0.930 . S
H974 C984 0.930 . S
H975 C985 0.926 1_455 S
C976 H970 0.930 . S
C976 C977 1.355 . S
C976 C978 1.415 . S
C977 C976 1.355 . S
C977 C979 1.419 . S
C978 C976 1.415 . S
C978 C983 1.425 1_455 S
C978 C985 1.407 1_455 S
C979 H971 0.930 . S
C979 C977 1.419 . S
C979 C980 1.362 1_455 S
C980 H972 0.930 . S
C980 C979 1.362 1_655 S
C980 C983 1.409 . S
C981 H973 0.930 . S
C981 C982 1.355 . S
C981 C983 1.415 . S
C982 C981 1.355 . S
C982 C984 1.419 . S
C983 C978 1.425 1_655 S
C983 C980 1.409 . S
C983 C981 1.415 . S
C984 H974 0.930 . S
C984 C982 1.419 . S
C984 C985 1.368 . S
C985 H975 0.926 1_655 S
C985 C978 1.407 1_655 S
C985 C984 1.368 . S
H986 C992 0.930 . S
H987 C995 0.930 . S
H988 C996 0.930 . S
H989 C997 0.930 . S
H990 C1000 0.930 . S
H991 C1001 0.930 . S
C992 H986 0.930 . S
C992 C993 1.355 . S
C992 C994 1.415 . S
C993 C992 1.355 . S
C993 C995 1.419 . S
C994 C992 1.415 . S
C994 C999 1.425 . S
C994 C1001 1.409 . S
C995 H987 0.930 . S
C995 C993 1.419 . S
C995 C996 1.362 . S
C996 H988 0.930 . S
C996 C995 1.362 . S
C996 C999 1.409 . S
C997 H989 0.930 . S
C997 C998 1.355 . S
C997 C999 1.415 . S
C998 C997 1.355 . S
C998 C1000 1.419 . S
C999 C994 1.425 . S
C999 C996 1.409 . S
C999 C997 1.415 . S
C1000 H990 0.930 . S
C1000 C998 1.419 . S
C1000 C1001 1.362 . S
C1001 H991 0.930 . S
C1001 C994 1.409 . S
C1001 C1000 1.362 . S
H1002 C1008 0.930 . S
H1003 C1011 0.930 . S
H1004 C1012 0.930 . S
H1005 C1013 0.930 . S
H1006 C1016 0.930 . S
H1007 C1017 0.930 . S
C1008 H1002 0.930 . S
C1008 C1009 1.355 . S
C1008 C1010 1.415 . S
C1009 C1008 1.355 . S
C1009 C1011 1.419 . S
C1010 C1008 1.415 . S
C1010 C1015 1.425 1_455 S
C1010 C1017 1.409 1_455 S
C1011 H1003 0.930 . S
C1011 C1009 1.419 . S
C1011 C1012 1.362 . S
C1012 H1004 0.930 . S
C1012 C1011 1.362 . S
C1012 C1015 1.409 1_455 S
C1013 H1005 0.930 . S
C1013 C1014 1.355 . S
C1013 C1015 1.415 . S
C1014 C1013 1.355 . S
C1014 C1016 1.419 . S
C1015 C1010 1.425 1_655 S
C1015 C1012 1.409 1_655 S
C1015 C1013 1.415 . S
C1016 H1006 0.930 . S
C1016 C1014 1.419 . S
C1016 C1017 1.362 . S
C1017 H1007 0.930 . S
C1017 C1010 1.409 1_655 S
C1017 C1016 1.362 . S
H1018 C1024 0.930 . S
H1019 C1027 0.930 . S
H1020 C1028 0.930 . S
H1021 C1029 0.930 . S
H1022 C1032 0.930 . S
H1023 C1033 0.930 . S
C1024 H1018 0.930 . S
C1024 C1025 1.355 . S
C1024 C1026 1.415 . S
C1025 C1024 1.355 . S
C1025 C1027 1.419 . S
C1026 C1024 1.415 . S
C1026 C1031 1.425 . S
C1026 C1033 1.409 . S
C1027 H1019 0.930 . S
C1027 C1025 1.419 . S
C1027 C1028 1.362 . S
C1028 H1020 0.930 . S
C1028 C1027 1.362 . S
C1028 C1031 1.409 . S
C1029 H1021 0.930 . S
C1029 C1030 1.355 . S
C1029 C1031 1.415 . S
C1030 C1029 1.355 . S
C1030 C1032 1.419 . S
C1031 C1026 1.425 . S
C1031 C1028 1.409 . S
C1031 C1029 1.415 . S
C1032 H1022 0.930 . S
C1032 C1030 1.419 . S
C1032 C1033 1.362 . S
C1033 H1023 0.930 . S
C1033 C1026 1.409 . S
C1033 C1032 1.362 . S
H1034 C1040 0.930 . S
H1035 C1043 0.930 . S
H1036 C1044 0.930 . S
H1037 C1045 0.930 . S
H1038 C1048 0.930 . S
H1039 C1049 0.930 1_565 S
C1040 H1034 0.930 . S
C1040 C1041 1.355 . S
C1040 C1042 1.415 . S
C1041 C1040 1.355 . S
C1041 C1043 1.419 . S
C1042 C1040 1.415 . S
C1042 C1047 1.425 . S
C1042 C1049 1.409 1_565 S
C1043 H1035 0.930 . S
C1043 C1041 1.419 . S
C1043 C1044 1.362 . S
C1044 H1036 0.930 . S
C1044 C1043 1.362 . S
C1044 C1047 1.409 . S
C1045 H1037 0.930 . S
C1045 C1046 1.355 . S
C1045 C1047 1.415 1_545 S
C1046 C1045 1.355 . S
C1046 C1048 1.419 . S
C1047 C1042 1.425 . S
C1047 C1044 1.409 . S
C1047 C1045 1.415 1_565 S
C1048 H1038 0.930 . S
C1048 C1046 1.419 . S
C1048 C1049 1.362 . S
C1049 H1039 0.930 1_545 S
C1049 C1042 1.409 1_545 S
C1049 C1048 1.362 . S
H1050 C1056 0.930 . S
H1051 C1059 0.930 . S
H1052 C1060 0.930 . S
H1053 C1061 0.930 . S
H1054 C1064 0.930 . S
H1055 C1065 0.930 . S
C1056 H1050 0.930 . S
C1056 C1057 1.355 . S
C1056 C1058 1.415 . S
C1057 C1056 1.355 . S
C1057 C1059 1.419 . S
C1058 C1056 1.415 . S
C1058 C1063 1.425 . S
C1058 C1065 1.409 . S
C1059 H1051 0.930 . S
C1059 C1057 1.419 . S
C1059 C1060 1.362 . S
C1060 H1052 0.930 . S
C1060 C1059 1.362 . S
C1060 C1063 1.409 . S
C1061 H1053 0.930 . S
C1061 C1062 1.355 . S
C1061 C1063 1.415 . S
C1062 C1061 1.355 . S
C1062 C1064 1.419 . S
C1063 C1058 1.425 . S
C1063 C1060 1.409 . S
C1063 C1061 1.415 . S
C1064 H1054 0.930 . S
C1064 C1062 1.419 . S
C1064 C1065 1.362 . S
C1065 H1055 0.930 . S
C1065 C1058 1.409 . S
C1065 C1064 1.362 . S
H1066 C1072 0.930 . S
H1067 C1075 0.930 . S
H1068 C1076 0.930 . S
H1069 C1077 0.930 . S
H1070 C1080 0.930 . S
H1071 C1081 0.930 . S
C1072 H1066 0.930 . S
C1072 C1073 1.355 . S
C1072 C1074 1.415 . S
C1073 C1072 1.355 . S
C1073 C1075 1.419 . S
C1074 C1072 1.415 . S
C1074 C1079 1.425 . S
C1074 C1081 1.409 . S
C1075 H1067 0.930 . S
C1075 C1073 1.419 . S
C1075 C1076 1.362 . S
C1076 H1068 0.930 . S
C1076 C1075 1.362 . S
C1076 C1079 1.409 . S
C1077 H1069 0.930 . S
C1077 C1078 1.355 . S
C1077 C1079 1.415 . S
C1078 C1077 1.355 . S
C1078 C1080 1.419 . S
C1079 C1074 1.425 . S
C1079 C1076 1.409 . S
C1079 C1077 1.415 . S
C1080 H1070 0.930 . S
C1080 C1078 1.419 . S
C1080 C1081 1.362 . S
C1081 H1071 0.930 . S
C1081 C1074 1.409 . S
C1081 C1080 1.362 . S
H1082 C1088 0.930 . S
H1083 C1091 0.930 . S
H1084 C1092 0.930 . S
H1085 C1093 0.930 . S
H1086 C1096 0.930 . S
H1087 C1097 0.930 . S
C1088 H1082 0.930 . S
C1088 C1089 1.355 . S
C1088 C1090 1.415 . S
C1089 C1088 1.355 . S
C1089 C1091 1.419 . S
C1090 C1088 1.415 . S
C1090 C1095 1.425 . S
C1090 C1097 1.409 . S
C1091 H1083 0.930 . S
C1091 C1089 1.419 . S
C1091 C1092 1.362 . S
C1092 H1084 0.930 . S
C1092 C1091 1.362 . S
C1092 C1095 1.409 . S
C1093 H1085 0.930 . S
C1093 C1094 1.355 . S
C1093 C1095 1.415 . S
C1094 C1093 1.355 . S
C1094 C1096 1.419 . S
C1095 C1090 1.425 . S
C1095 C1092 1.409 . S
C1095 C1093 1.415 . S
C1096 H1086 0.930 . S
C1096 C1094 1.419 . S
C1096 C1097 1.362 . S
C1097 H1087 0.930 . S
C1097 C1090 1.409 . S
C1097 C1096 1.362 . S
H1098 C1104 0.930 . S
H1099 C1107 0.931 . S
H1100 C1108 0.930 . S
H1101 C1109 0.930 . S
H1102 C1112 0.930 . S
H1103 C1113 0.930 . S
C1104 H1098 0.930 . S
C1104 C1105 1.355 . S
C1104 C1106 1.415 . S
C1105 C1104 1.355 . S
C1105 C1107 1.419 . S
C1106 C1104 1.415 . S
C1106 C1111 1.425 . S
C1106 C1113 1.409 . S
C1107 H1099 0.931 . S
C1107 C1105 1.419 . S
C1107 C1108 1.362 1_565 S
C1108 H1100 0.930 . S
C1108 C1107 1.362 1_545 S
C1108 C1111 1.409 1_545 S
C1109 H1101 0.930 . S
C1109 C1110 1.355 1_545 S
C1109 C1111 1.415 1_545 S
C1110 C1109 1.355 1_565 S
C1110 C1112 1.419 . S
C1111 C1106 1.425 . S
C1111 C1108 1.409 1_565 S
C1111 C1109 1.415 1_565 S
C1112 H1102 0.930 . S
C1112 C1110 1.419 . S
C1112 C1113 1.362 . S
C1113 H1103 0.930 . S
C1113 C1106 1.409 . S
C1113 C1112 1.362 . S
H1114 C1120 0.930 . S
H1115 C1123 0.930 . S
H1116 C1124 0.930 . S
H1117 C1125 0.930 . S
H1118 C1128 0.930 . S
H1119 C1129 0.930 . S
C1120 H1114 0.930 . S
C1120 C1121 1.355 1_655 S
C1120 C1122 1.415 1_655 S
C1121 C1120 1.355 1_455 S
C1121 C1123 1.419 . S
C1122 C1120 1.415 1_455 S
C1122 C1127 1.425 . S
C1122 C1129 1.409 1_455 S
C1123 H1115 0.930 . S
C1123 C1121 1.419 . S
C1123 C1124 1.362 . S
C1124 H1116 0.930 . S
C1124 C1123 1.362 . S
C1124 C1127 1.409 . S
C1125 H1117 0.930 . S
C1125 C1126 1.355 . S
C1125 C1127 1.415 . S
C1126 C1125 1.355 . S
C1126 C1128 1.419 1_455 S
C1127 C1122 1.425 . S
C1127 C1124 1.409 . S
C1127 C1125 1.415 . S
C1128 H1118 0.930 . S
C1128 C1126 1.419 1_655 S
C1128 C1129 1.362 . S
C1129 H1119 0.930 . S
C1129 C1122 1.409 1_655 S
C1129 C1128 1.362 . S
H1130 C1136 0.930 . S
H1131 C1139 0.930 . S
H1132 C1140 0.930 . S
H1133 C1141 0.930 . S
H1134 C1144 0.930 . S
H1135 C1145 0.930 . S
C1136 H1130 0.930 . S
C1136 C1137 1.355 . S
C1136 C1138 1.415 . S
C1137 C1136 1.355 . S
C1137 C1139 1.419 . S
C1138 C1136 1.415 . S
C1138 C1143 1.425 . S
C1138 C1145 1.409 . S
C1139 H1131 0.930 . S
C1139 C1137 1.419 . S
C1139 C1140 1.362 . S
C1140 H1132 0.930 . S
C1140 C1139 1.362 . S
C1140 C1143 1.409 . S
C1141 H1133 0.930 . S
C1141 C1142 1.355 . S
C1141 C1143 1.415 . S
C1142 C1141 1.355 . S
C1142 C1144 1.419 . S
C1143 C1138 1.425 . S
C1143 C1140 1.409 . S
C1143 C1141 1.415 . S
C1144 H1134 0.930 . S
C1144 C1142 1.419 . S
C1144 C1145 1.362 . S
C1145 H1135 0.930 . S
C1145 C1138 1.409 . S
C1145 C1144 1.362 . S
H1146 C1152 0.930 . S
H1147 C1155 0.930 . S
H1148 C1156 0.908 1_455 S
H1149 C1157 0.930 . S
H1150 C1160 0.930 . S
H1151 C1161 0.930 . S
C1152 H1146 0.930 . S
C1152 C1153 1.355 . S
C1152 C1154 1.415 . S
C1153 C1152 1.355 . S
C1153 C1155 1.419 . S
C1154 C1152 1.415 . S
C1154 C1159 1.425 . S
C1154 C1161 1.409 . S
C1155 H1147 0.930 . S
C1155 C1153 1.419 . S
C1155 C1156 1.362 . S
C1156 H1148 0.908 1_655 S
C1156 C1155 1.362 . S
C1156 C1159 1.409 . S
C1157 H1149 0.930 . S
C1157 C1158 1.355 . S
C1157 C1159 1.415 . S
C1158 C1157 1.355 . S
C1158 C1160 1.419 . S
C1159 C1154 1.425 . S
C1159 C1156 1.409 . S
C1159 C1157 1.415 . S
C1160 H1150 0.930 . S
C1160 C1158 1.419 . S
C1160 C1161 1.362 . S
C1161 H1151 0.930 . S
C1161 C1154 1.409 . S
C1161 C1160 1.362 . S
H1162 C1168 0.930 . S
H1163 C1171 0.930 . S
H1164 C1172 0.930 . S
H1165 C1173 0.930 . S
H1166 C1176 0.930 . S
H1167 C1177 0.930 . S
C1168 H1162 0.930 . S
C1168 C1169 1.355 . S
C1168 C1170 1.415 . S
C1169 C1168 1.355 . S
C1169 C1171 1.419 . S
C1170 C1168 1.415 . S
C1170 C1175 1.425 . S
C1170 C1177 1.409 . S
C1171 H1163 0.930 . S
C1171 C1169 1.419 . S
C1171 C1172 1.362 . S
C1172 H1164 0.930 . S
C1172 C1171 1.362 . S
C1172 C1175 1.409 . S
C1173 H1165 0.930 . S
C1173 C1174 1.355 . S
C1173 C1175 1.415 . S
C1174 C1173 1.355 . S
C1174 C1176 1.419 . S
C1175 C1170 1.425 . S
C1175 C1172 1.409 . S
C1175 C1173 1.415 . S
C1176 H1166 0.930 . S
C1176 C1174 1.419 . S
C1176 C1177 1.362 . S
C1177 H1167 0.930 . S
C1177 C1170 1.409 . S
C1177 C1176 1.362 . S
H1178 C1184 0.930 . S
H1179 C1187 0.930 1_565 S
H1180 C1188 0.930 . S
H1181 C1189 0.930 . S
H1182 C1192 0.930 . S
H1183 C1193 0.930 . S
C1184 H1178 0.930 . S
C1184 C1185 1.355 . S
C1184 C1186 1.415 . S
C1185 C1184 1.355 . S
C1185 C1187 1.419 . S
C1186 C1184 1.415 . S
C1186 C1191 1.425 . S
C1186 C1193 1.409 . S
C1187 H1179 0.930 1_545 S
C1187 C1185 1.419 . S
C1187 C1188 1.362 1_545 S
C1188 H1180 0.930 . S
C1188 C1187 1.362 1_565 S
C1188 C1191 1.409 1_565 S
C1189 H1181 0.930 . S
C1189 C1190 1.355 1_565 S
C1189 C1191 1.415 1_565 S
C1190 C1189 1.355 1_545 S
C1190 C1192 1.419 . S
C1191 C1186 1.425 . S
C1191 C1188 1.409 1_545 S
C1191 C1189 1.415 1_545 S
C1192 H1182 0.930 . S
C1192 C1190 1.419 . S
C1192 C1193 1.362 . S
C1193 H1183 0.930 . S
C1193 C1186 1.409 . S
C1193 C1192 1.362 . S
H1194 C1200 0.930 . S
H1195 C1203 0.930 . S
H1196 C1204 0.930 . S
H1197 C1205 0.930 . S
H1198 C1208 0.930 . S
H1199 C1209 0.930 . S
C1200 H1194 0.930 . S
C1200 C1201 1.355 . S
C1200 C1202 1.415 . S
C1201 C1200 1.355 . S
C1201 C1203 1.419 . S
C1202 C1200 1.415 . S
C1202 C1207 1.425 . S
C1202 C1209 1.409 . S
C1203 H1195 0.930 . S
C1203 C1201 1.419 . S
C1203 C1204 1.362 . S
C1204 H1196 0.930 . S
C1204 C1203 1.362 . S
C1204 C1207 1.409 . S
C1205 H1197 0.930 . S
C1205 C1206 1.355 . S
C1205 C1207 1.415 . S
C1206 C1205 1.355 . S
C1206 C1208 1.419 . S
C1207 C1202 1.425 . S
C1207 C1204 1.409 . S
C1207 C1205 1.415 . S
C1208 H1198 0.930 . S
C1208 C1206 1.419 . S
C1208 C1209 1.362 . S
C1209 H1199 0.930 . S
C1209 C1202 1.409 . S
C1209 C1208 1.362 . S
H1210 C1216 0.930 . S
H1211 C1219 0.930 . S
H1212 C1220 0.930 . S
H1213 C1221 0.930 . S
H1214 C1224 0.930 . S
H1215 C1225 0.930 . S
C1216 H1210 0.930 . S
C1216 C1217 1.355 . S
C1216 C1218 1.415 . S
C1217 C1216 1.355 . S
C1217 C1219 1.419 . S
C1218 C1216 1.415 . S
C1218 C1223 1.425 . S
C1218 C1225 1.409 . S
C1219 H1211 0.930 . S
C1219 C1217 1.419 . S
C1219 C1220 1.362 . S
C1220 H1212 0.930 . S
C1220 C1219 1.362 . S
C1220 C1223 1.409 . S
C1221 H1213 0.930 . S
C1221 C1222 1.355 . S
C1221 C1223 1.415 . S
C1222 C1221 1.355 . S
C1222 C1224 1.419 . S
C1223 C1218 1.425 . S
C1223 C1220 1.409 . S
C1223 C1221 1.415 . S
C1224 H1214 0.930 . S
C1224 C1222 1.419 . S
C1224 C1225 1.362 . S
C1225 H1215 0.930 . S
C1225 C1218 1.409 . S
C1225 C1224 1.362 . S
H1226 C1232 0.930 . S
H1227 C1235 0.930 . S
H1228 C1236 0.930 . S
H1229 C1237 0.930 . S
H1230 C1240 0.930 . S
H1231 C1241 0.930 . S
C1232 H1226 0.930 . S
C1232 C1233 1.355 . S
C1232 C1234 1.415 . S
C1233 C1232 1.355 . S
C1233 C1235 1.419 . S
C1234 C1232 1.415 . S
C1234 C1239 1.425 . S
C1234 C1241 1.409 . S
C1235 H1227 0.930 . S
C1235 C1233 1.419 . S
C1235 C1236 1.362 . S
C1236 H1228 0.930 . S
C1236 C1235 1.362 . S
C1236 C1239 1.409 . S
C1237 H1229 0.930 . S
C1237 C1238 1.355 . S
C1237 C1239 1.415 . S
C1238 C1237 1.355 . S
C1238 C1240 1.419 . S
C1239 C1234 1.425 . S
C1239 C1236 1.409 . S
C1239 C1237 1.415 . S
C1240 H1230 0.930 . S
C1240 C1238 1.419 . S
C1240 C1241 1.362 . S
C1241 H1231 0.930 . S
C1241 C1234 1.409 . S
C1241 C1240 1.362 . S
H1242 C1248 0.930 . S
H1243 C1251 0.930 . S
H1244 C1252 0.930 . S
H1245 C1253 0.930 . S
H1246 C1256 0.930 . S
H1247 C1257 0.930 . S
C1248 H1242 0.930 . S
C1248 C1249 1.355 . S
C1248 C1250 1.415 . S
C1249 C1248 1.355 . S
C1249 C1251 1.419 . S
C1250 C1248 1.415 . S
C1250 C1255 1.425 . S
C1250 C1257 1.409 . S
C1251 H1243 0.930 . S
C1251 C1249 1.419 . S
C1251 C1252 1.362 . S
C1252 H1244 0.930 . S
C1252 C1251 1.362 . S
C1252 C1255 1.409 . S
C1253 H1245 0.930 . S
C1253 C1254 1.355 . S
C1253 C1255 1.415 . S
C1254 C1253 1.355 . S
C1254 C1256 1.419 . S
C1255 C1250 1.425 . S
C1255 C1252 1.409 . S
C1255 C1253 1.415 . S
C1256 H1246 0.930 . S
C1256 C1254 1.419 . S
C1256 C1257 1.362 . S
C1257 H1247 0.930 . S
C1257 C1250 1.409 . S
C1257 C1256 1.362 . S
H1258 C1264 0.930 . S
H1259 C1267 0.930 . S
H1260 C1268 0.930 . S
H1261 C1269 0.930 . S
H1262 C1272 0.930 . S
H1263 C1273 0.930 . S
C1264 H1258 0.930 . S
C1264 C1265 1.355 . S
C1264 C1266 1.415 . S
C1265 C1264 1.355 . S
C1265 C1267 1.419 . S
C1266 C1264 1.415 . S
C1266 C1271 1.425 . S
C1266 C1273 1.409 . S
C1267 H1259 0.930 . S
C1267 C1265 1.419 . S
C1267 C1268 1.362 . S
C1268 H1260 0.930 . S
C1268 C1267 1.362 . S
C1268 C1271 1.409 . S
C1269 H1261 0.930 . S
C1269 C1270 1.355 . S
C1269 C1271 1.415 . S
C1270 C1269 1.355 . S
C1270 C1272 1.419 . S
C1271 C1266 1.425 . S
C1271 C1268 1.409 . S
C1271 C1269 1.415 . S
C1272 H1262 0.930 . S
C1272 C1270 1.419 . S
C1272 C1273 1.362 . S
C1273 H1263 0.930 . S
C1273 C1266 1.409 . S
C1273 C1272 1.362 . S
H1274 C1280 0.930 . S
H1275 C1283 0.930 . S
H1276 C1284 0.930 . S
H1277 C1285 0.930 . S
H1278 C1288 0.930 . S
H1279 C1289 0.930 . S
C1280 H1274 0.930 . S
C1280 C1281 1.355 . S
C1280 C1282 1.415 . S
C1281 C1280 1.355 . S
C1281 C1283 1.419 . S
C1282 C1280 1.415 . S
C1282 C1287 1.425 . S
C1282 C1289 1.409 . S
C1283 H1275 0.930 . S
C1283 C1281 1.419 . S
C1283 C1284 1.362 . S
C1284 H1276 0.930 . S
C1284 C1283 1.362 . S
C1284 C1287 1.409 . S
C1285 H1277 0.930 . S
C1285 C1286 1.355 . S
C1285 C1287 1.415 . S
C1286 C1285 1.355 . S
C1286 C1288 1.419 . S
C1287 C1282 1.425 . S
C1287 C1284 1.409 . S
C1287 C1285 1.415 . S
C1288 H1278 0.930 . S
C1288 C1286 1.419 . S
C1288 C1289 1.362 . S
C1289 H1279 0.930 . S
C1289 C1282 1.409 . S
C1289 C1288 1.362 . S
H1290 C1296 0.930 . S
H1291 C1299 0.930 . S
H1292 C1300 0.930 . S
H1293 C1301 0.930 . S
H1294 C1304 0.930 . S
H1295 C1305 0.930 . S
C1296 H1290 0.930 . S
C1296 C1297 1.355 . S
C1296 C1298 1.415 . S
C1297 C1296 1.355 . S
C1297 C1299 1.419 . S
C1298 C1296 1.415 . S
C1298 C1303 1.425 . S
C1298 C1305 1.409 . S
C1299 H1291 0.930 . S
C1299 C1297 1.419 . S
C1299 C1300 1.362 . S
C1300 H1292 0.930 . S
C1300 C1299 1.362 . S
C1300 C1303 1.409 . S
C1301 H1293 0.930 . S
C1301 C1302 1.355 . S
C1301 C1303 1.415 . S
C1302 C1301 1.355 . S
C1302 C1304 1.419 . S
C1303 C1298 1.425 . S
C1303 C1300 1.409 . S
C1303 C1301 1.415 . S
C1304 H1294 0.930 . S
C1304 C1302 1.419 . S
C1304 C1305 1.362 . S
C1305 H1295 0.930 . S
C1305 C1298 1.409 . S
C1305 C1304 1.362 . S
H1306 C1312 0.930 . S
H1307 C1315 0.930 . S
H1308 C1316 0.930 . S
H1309 C1317 0.930 . S
H1310 C1320 0.930 . S
H1311 C1321 0.930 . S
C1312 H1306 0.930 . S
C1312 C1313 1.355 . S
C1312 C1314 1.415 . S
C1313 C1312 1.355 . S
C1313 C1315 1.419 . S
C1314 C1312 1.415 . S
C1314 C1319 1.425 . S
C1314 C1321 1.409 . S
C1315 H1307 0.930 . S
C1315 C1313 1.419 . S
C1315 C1316 1.362 . S
C1316 H1308 0.930 . S
C1316 C1315 1.362 . S
C1316 C1319 1.409 . S
C1317 H1309 0.930 . S
C1317 C1318 1.355 . S
C1317 C1319 1.415 . S
C1318 C1317 1.355 . S
C1318 C1320 1.419 . S
C1319 C1314 1.425 . S
C1319 C1316 1.409 . S
C1319 C1317 1.415 . S
C1320 H1310 0.930 . S
C1320 C1318 1.419 . S
C1320 C1321 1.362 . S
C1321 H1311 0.930 . S
C1321 C1314 1.409 . S
C1321 C1320 1.362 . S
H1322 C1328 0.930 . S
H1323 C1331 0.930 . S
H1324 C1332 0.930 . S
H1325 C1333 0.930 . S
H1326 C1336 0.930 . S
H1327 C1337 0.930 . S
C1328 H1322 0.930 . S
C1328 C1329 1.355 . S
C1328 C1330 1.415 . S
C1329 C1328 1.355 . S
C1329 C1331 1.419 . S
C1330 C1328 1.415 . S
C1330 C1335 1.425 . S
C1330 C1337 1.409 . S
C1331 H1323 0.930 . S
C1331 C1329 1.419 . S
C1331 C1332 1.362 . S
C1332 H1324 0.930 . S
C1332 C1331 1.362 . S
C1332 C1335 1.409 . S
C1333 H1325 0.930 . S
C1333 C1334 1.355 . S
C1333 C1335 1.415 . S
C1334 C1333 1.355 . S
C1334 C1336 1.419 . S
C1335 C1330 1.425 . S
C1335 C1332 1.409 . S
C1335 C1333 1.415 . S
C1336 H1326 0.930 . S
C1336 C1334 1.419 . S
C1336 C1337 1.362 . S
C1337 H1327 0.930 . S
C1337 C1330 1.409 . S
C1337 C1336 1.362 . S
H1338 C1344 0.930 . S
H1339 C1347 0.930 . S
H1340 C1348 0.930 . S
H1341 C1349 0.930 . S
H1342 C1352 0.930 . S
H1343 C1353 0.930 . S
C1344 H1338 0.930 . S
C1344 C1345 1.355 . S
C1344 C1346 1.415 . S
C1345 C1344 1.355 . S
C1345 C1347 1.419 . S
C1346 C1344 1.415 . S
C1346 C1351 1.425 . S
C1346 C1353 1.409 . S
C1347 H1339 0.930 . S
C1347 C1345 1.419 . S
C1347 C1348 1.362 . S
C1348 H1340 0.930 . S
C1348 C1347 1.362 . S
C1348 C1351 1.409 . S
C1349 H1341 0.930 . S
C1349 C1350 1.355 . S
C1349 C1351 1.415 . S
C1350 C1349 1.355 . S
C1350 C1352 1.419 . S
C1351 C1346 1.425 . S
C1351 C1348 1.409 . S
C1351 C1349 1.415 . S
C1352 H1342 0.930 . S
C1352 C1350 1.419 . S
C1352 C1353 1.362 . S
C1353 H1343 0.930 . S
C1353 C1346 1.409 . S
C1353 C1352 1.362 . S
H1354 C1360 0.930 . S
H1355 C1363 0.930 . S
H1356 C1364 0.930 . S
H1357 C1365 0.930 . S
H1358 C1368 0.930 . S
H1359 C1369 0.930 . S
C1360 H1354 0.930 . S
C1360 C1361 1.355 . S
C1360 C1362 1.415 . S
C1361 C1360 1.355 . S
C1361 C1363 1.419 . S
C1362 C1360 1.415 . S
C1362 C1367 1.425 . S
C1362 C1369 1.409 . S
C1363 H1355 0.930 . S
C1363 C1361 1.419 . S
C1363 C1364 1.362 . S
C1364 H1356 0.930 . S
C1364 C1363 1.362 . S
C1364 C1367 1.409 . S
C1365 H1357 0.930 . S
C1365 C1366 1.355 . S
C1365 C1367 1.415 . S
C1366 C1365 1.355 . S
C1366 C1368 1.419 . S
C1367 C1362 1.425 . S
C1367 C1364 1.409 . S
C1367 C1365 1.415 . S
C1368 H1358 0.930 . S
C1368 C1366 1.419 . S
C1368 C1369 1.362 . S
C1369 H1359 0.930 . S
C1369 C1362 1.409 . S
C1369 C1368 1.362 . S
H1370 C1376 0.930 . S
H1371 C1379 0.930 . S
H1372 C1380 0.930 . S
H1373 C1381 0.930 . S
H1374 C1384 0.930 . S
H1375 C1385 0.930 . S
C1376 H1370 0.930 . S
C1376 C1377 1.355 . S
C1376 C1378 1.415 . S
C1377 C1376 1.355 . S
C1377 C1379 1.419 . S
C1378 C1376 1.415 . S
C1378 C1383 1.425 . S
C1378 C1385 1.409 . S
C1379 H1371 0.930 . S
C1379 C1377 1.419 . S
C1379 C1380 1.362 . S
C1380 H1372 0.930 . S
C1380 C1379 1.362 . S
C1380 C1383 1.409 . S
C1381 H1373 0.930 . S
C1381 C1382 1.355 . S
C1381 C1383 1.415 . S
C1382 C1381 1.355 . S
C1382 C1384 1.419 . S
C1383 C1378 1.425 . S
C1383 C1380 1.409 . S
C1383 C1381 1.415 . S
C1384 H1374 0.930 . S
C1384 C1382 1.419 . S
C1384 C1385 1.362 . S
C1385 H1375 0.930 . S
C1385 C1378 1.409 . S
C1385 C1384 1.362 . S
C529 C124 1.572 . S
C534 C171 1.562 . S
C545 C130 1.676 . S
C550 C211 1.653 . S
C561 C115 1.551 . S
C566 C250 1.530 . S
C577 C106 1.502 . S
C582 C210 1.476 . S
C598 C251 1.443 . S
C593 C85 1.459 . S
C609 C97 1.314 . S
C614 C170 1.333 . S
C630 C181 1.531 . S
C625 C103 1.549 . S
C646 C221 1.667 . S
C641 C88 1.675 . S
C657 C94 1.548 . S
C662 C260 1.528 . S
C673 C121 1.499 . S
C678 C220 1.458 . S
C689 C133 1.417 . S
C694 C261 1.399 . S
C710 C180 1.350 . S
C705 C112 1.342 . S
C726 C291 1.559 . S
C721 C16 1.569 . S
C737 C22 1.676 . S
C742 C331 1.653 . S
C753 C7 1.534 . S
C758 C370 1.559 . S
C769 C160 1.502 . S
C774 C330 1.470 . S
C785 C139 1.455 . S
C790 C371 1.454 . S
C801 C151 1.309 . S
C806 C290 1.348 . S
C817 C157 1.546 . S
C822 C301 1.526 . S
C833 C142 1.643 . S
C838 C341 1.622 . S
C854 C380 1.565 . S
C849 C148 1.538 . S
C865 C13 1.461 . S
C870 C340 1.480 . S
C886 C381 1.409 . S
C881 C25 1.418 . S
C897 C4 1.332 . S
C902 C300 1.358 . S
C918 C411 1.549 . S
C913 C70 1.562 . S
C929 C76 1.681 . S
C934 C451 1.667 . S
C950 C490 1.565 . S
C945 C61 1.585 . S
C966 C450 1.444 . S
C961 C52 1.488 . S
C982 C491 1.421 . S
C977 C31 1.441 . S
C993 C43 1.309 . S
C998 C410 1.344 . S
C1009 C49 1.592 . S
C1014 C421 1.582 . S
C1025 C34 1.674 . S
C1030 C461 1.666 . S
C1046 C500 1.533 . S
C1041 C40 1.569 . S
C1057 C67 1.501 . S
C1062 C460 1.472 . S
C1073 C79 1.446 . S
C1078 C501 1.443 . S
C1089 C58 1.338 . S
C1094 C420 1.353 . S
C1105 C140 1.444 . S
C1110 C167 1.430 . S
C1126 C207 1.695 . S
C1121 C149 1.686 . S
C1137 C158 1.546 . S
C1142 C257 1.537 . S
C1153 C59 1.727 . S
C1158 C217 1.731 . S
C1169 C68 1.527 . S
C1174 C247 1.526 . S
C1190 C177 1.410 . S
C1185 C77 1.440 . S
C1201 C32 1.444 . S
C1206 C287 1.431 . S
C1217 C41 1.712 . S
C1222 C327 1.713 . S
C1233 C50 1.534 . S
C1238 C377 1.547 . S
C1249 C113 1.723 . S
C1254 C337 1.731 . S
C1270 C367 1.522 . S
C1265 C122 1.523 . S
C1281 C131 1.447 . S
C1286 C297 1.438 . S
C1297 C86 1.444 . S
C1302 C407 1.443 . S
C1313 C95 1.711 . S
C1318 C447 1.705 . S
C1334 C497 1.547 . S
C1329 C104 1.533 . S
C1345 C5 1.710 . S
C1350 C457 1.708 . S
C1361 C14 1.524 . S
C1366 C487 1.528 . S
C1377 C23 1.434 . S
C1382 C417 1.407 . S
