# Generated by pormake.
# Topology apo, (3,6)-cn, num edge types: 1
# Building blocks:
#     Node 0, Type 0, BuildingBlock: CUQRIR_clean_linker_1, # of connection points: 3
#     Node 1, Type 0, BuildingBlock: CUQRIR_clean_linker_1, # of connection points: 3
#     Node 2, Type 0, BuildingBlock: CUQRIR_clean_linker_1, # of connection points: 3
#     Node 3, Type 0, BuildingBlock: CUQRIR_clean_linker_1, # of connection points: 3
#     Node 4, Type 0, BuildingBlock: CUQRIR_clean_linker_1, # of connection points: 3
#     Node 5, Type 0, BuildingBlock: CUQRIR_clean_linker_1, # of connection points: 3
#     Node 6, Type 0, BuildingBlock: CUQRIR_clean_linker_1, # of connection points: 3
#     Node 7, Type 0, BuildingBlock: CUQRIR_clean_linker_1, # of connection points: 3
#     Node 8, Type 1, BuildingBlock: KUMBUR_clean_sbu_1, # of connection points: 6
#     Node 9, Type 1, BuildingBlock: KUMBUR_clean_sbu_1, # of connection points: 6
#     Node 10, Type 1, BuildingBlock: KUMBUR_clean_sbu_1, # of connection points: 6
#     Node 11, Type 1, BuildingBlock: KUMBUR_clean_sbu_1, # of connection points: 6
#     Edge 12, Type (0, 1), BuildingBlock: EZIPEK_clean_linker_0, # of connection points: 2
#     Edge 13, Type (0, 1), BuildingBlock: EZIPEK_clean_linker_0, # of connection points: 2
#     Edge 14, Type (0, 1), BuildingBlock: EZIPEK_clean_linker_0, # of connection points: 2
#     Edge 15, Type (0, 1), BuildingBlock: EZIPEK_clean_linker_0, # of connection points: 2
#     Edge 16, Type (0, 1), BuildingBlock: EZIPEK_clean_linker_0, # of connection points: 2
#     Edge 17, Type (0, 1), BuildingBlock: EZIPEK_clean_linker_0, # of connection points: 2
#     Edge 18, Type (0, 1), BuildingBlock: EZIPEK_clean_linker_0, # of connection points: 2
#     Edge 19, Type (0, 1), BuildingBlock: EZIPEK_clean_linker_0, # of connection points: 2
#     Edge 20, Type (0, 1), BuildingBlock: EZIPEK_clean_linker_0, # of connection points: 2
#     Edge 21, Type (0, 1), BuildingBlock: EZIPEK_clean_linker_0, # of connection points: 2
#     Edge 22, Type (0, 1), BuildingBlock: EZIPEK_clean_linker_0, # of connection points: 2
#     Edge 23, Type (0, 1), BuildingBlock: EZIPEK_clean_linker_0, # of connection points: 2
#     Edge 24, Type (0, 1), BuildingBlock: EZIPEK_clean_linker_0, # of connection points: 2
#     Edge 25, Type (0, 1), BuildingBlock: EZIPEK_clean_linker_0, # of connection points: 2
#     Edge 26, Type (0, 1), BuildingBlock: EZIPEK_clean_linker_0, # of connection points: 2
#     Edge 27, Type (0, 1), BuildingBlock: EZIPEK_clean_linker_0, # of connection points: 2
#     Edge 28, Type (0, 1), BuildingBlock: EZIPEK_clean_linker_0, # of connection points: 2
#     Edge 29, Type (0, 1), BuildingBlock: EZIPEK_clean_linker_0, # of connection points: 2
#     Edge 30, Type (0, 1), BuildingBlock: EZIPEK_clean_linker_0, # of connection points: 2
#     Edge 31, Type (0, 1), BuildingBlock: EZIPEK_clean_linker_0, # of connection points: 2
#     Edge 32, Type (0, 1), BuildingBlock: EZIPEK_clean_linker_0, # of connection points: 2
#     Edge 33, Type (0, 1), BuildingBlock: EZIPEK_clean_linker_0, # of connection points: 2
#     Edge 34, Type (0, 1), BuildingBlock: EZIPEK_clean_linker_0, # of connection points: 2
#     Edge 35, Type (0, 1), BuildingBlock: EZIPEK_clean_linker_0, # of connection points: 2
# Relax obj value: 0.043
# Max RMSD: 0.251
# Mean RMSD: 0.192
data_MOF--net-apo--node1-KUMBUR_clean_sbu_1--node2-CUQRIR_clean_linker_1--edge1-EZIPEK_clean_linker_0
_symmetry_space_group_name_H-M    P1
_symmetry_Int_Tables_number       1
_symmetry_cell_setting            triclinic
loop_
_symmetry_equiv_pos_as_xyz
'x, y, z'
_cell_length_a     18.726456
_cell_length_b     27.645292
_cell_length_c     35.381185
_cell_angle_alpha  89.784671
_cell_angle_beta   89.808291
_cell_angle_gamma 90.685064
loop_
_atom_site_label
_atom_site_type_symbol
_atom_site_fract_x
_atom_site_fract_y
_atom_site_fract_z
_atom_type_partial_charge
C0 C 0.26395 0.324 0.42576 0.0
N1 N 0.30381 0.3653 0.42757 0.0
N2 N 0.25167 0.31141 0.38946 0.0
C3 C 0.2364 0.29598 0.45938 0.0
C4 C 0.28433 0.34652 0.36896 0.0
N5 N 0.31518 0.3799 0.3919 0.0
C6 C 0.28435 0.34836 0.32647 0.0
H7 H 0.27706 0.26925 0.46795 0.0
H8 H 0.18654 0.27595 0.45234 0.0
H9 H 0.22635 0.32038 0.48361 0.0
H10 H 0.23123 0.36062 0.31683 0.0
H11 H 0.29273 0.31168 0.31478 0.0
H12 H 0.32604 0.37339 0.31522 0.0
C13 C 0.26631 0.18874 0.92881 0.0
N14 N 0.22615 0.1475 0.92864 0.0
N15 N 0.29267 0.19837 0.89389 0.0
C16 C 0.27971 0.21961 0.96292 0.0
C17 C 0.26719 0.16185 0.8724 0.0
N18 N 0.22542 0.13133 0.89313 0.0
C19 C 0.28119 0.15724 0.83069 0.0
H20 H 0.23432 0.21683 0.98309 0.0
H21 H 0.28859 0.25795 0.9546 0.0
H22 H 0.3285 0.20675 0.97734 0.0
H23 H 0.33686 0.16852 0.82391 0.0
H24 H 0.24488 0.18154 0.81503 0.0
H25 H 0.27206 0.11954 0.82114 0.0
C26 C 0.71325 0.1874 0.63789 0.0
N27 N 0.74898 0.14508 0.63482 0.0
N28 N 0.69112 0.19445 0.67382 0.0
C29 C 0.69809 0.22124 0.60562 0.0
C30 C 0.71405 0.15511 0.69267 0.0
N31 N 0.75037 0.12523 0.66931 0.0
C32 C 0.70484 0.14759 0.73464 0.0
H33 H 0.73806 0.21719 0.58265 0.0
H34 H 0.6979 0.25932 0.61535 0.0
H35 H 0.64432 0.2127 0.59419 0.0
H36 H 0.65067 0.15826 0.74383 0.0
H37 H 0.74381 0.17096 0.7498 0.0
H38 H 0.71335 0.10931 0.74279 0.0
C39 C 0.7839 0.3167 0.14403 0.0
N40 N 0.7435 0.35681 0.1394 0.0
N41 N 0.80973 0.31413 0.17969 0.0
C42 C 0.79774 0.27985 0.11376 0.0
C43 C 0.78486 0.35415 0.19665 0.0
N44 N 0.74334 0.37968 0.1727 0.0
C45 C 0.79538 0.36569 0.23801 0.0
H46 H 0.81142 0.24419 0.12598 0.0
H47 H 0.84361 0.29229 0.0962 0.0
H48 H 0.75049 0.27587 0.09513 0.0
H49 H 0.85156 0.36051 0.24652 0.0
H50 H 0.76196 0.34055 0.25528 0.0
H51 H 0.78086 0.40348 0.2447 0.0
C52 C 0.72593 0.70811 0.6363 0.0
N53 N 0.69335 0.66444 0.63157 0.0
N54 N 0.76814 0.70808 0.6675 0.0
C55 C 0.71386 0.75096 0.61092 0.0
C56 C 0.75963 0.66247 0.68131 0.0
N57 N 0.71261 0.63652 0.66045 0.0
C58 C 0.79762 0.64223 0.71518 0.0
H59 H 0.74631 0.74701 0.58485 0.0
H60 H 0.72853 0.7854 0.62503 0.0
H61 H 0.65703 0.75218 0.60229 0.0
H62 H 0.76215 0.64411 0.74027 0.0
H63 H 0.84793 0.66241 0.72096 0.0
H64 H 0.80981 0.60353 0.71044 0.0
C65 C 0.72415 0.84118 0.13893 0.0
N66 N 0.77059 0.87912 0.13661 0.0
N67 N 0.7073 0.83104 0.17538 0.0
C68 C 0.69638 0.81342 0.10547 0.0
C69 C 0.74457 0.86464 0.19519 0.0
N70 N 0.78401 0.89357 0.17188 0.0
C71 C 0.74422 0.86866 0.23744 0.0
H72 H 0.65057 0.78961 0.11335 0.0
H73 H 0.74 0.79096 0.09393 0.0
H74 H 0.67971 0.83865 0.0828 0.0
H75 H 0.78833 0.84688 0.2491 0.0
H76 H 0.69324 0.85529 0.24972 0.0
H77 H 0.75285 0.90684 0.24577 0.0
C78 C 0.22617 0.79985 0.41201 0.0
N79 N 0.19953 0.84422 0.41948 0.0
N80 N 0.27086 0.80146 0.38193 0.0
C81 C 0.20854 0.75507 0.43459 0.0
C82 C 0.27034 0.84839 0.37126 0.0
N83 N 0.22562 0.87443 0.39326 0.0
C84 C 0.3122 0.86901 0.33843 0.0
H85 H 0.24429 0.7533 0.45948 0.0
H86 H 0.21582 0.72199 0.41741 0.0
H87 H 0.1527 0.7565 0.44511 0.0
H88 H 0.28071 0.86483 0.31213 0.0
H89 H 0.36331 0.84961 0.33482 0.0
H90 H 0.32316 0.90815 0.34274 0.0
C91 C 0.24342 0.69893 0.91065 0.0
N92 N 0.28929 0.66217 0.91662 0.0
N93 N 0.22959 0.70417 0.87333 0.0
C94 C 0.21552 0.73151 0.94112 0.0
C95 C 0.26842 0.66913 0.85667 0.0
N96 N 0.30492 0.64356 0.88286 0.0
C97 C 0.27096 0.66019 0.8148 0.0
H98 H 0.19625 0.70967 0.96553 0.0
H99 H 0.1714 0.75437 0.9307 0.0
H100 H 0.25974 0.75516 0.95121 0.0
H101 H 0.26506 0.69456 0.79888 0.0
H102 H 0.22586 0.63584 0.80709 0.0
H103 H 0.32142 0.64257 0.80635 0.0
Tb104 Tb 0.09607 0.10552 0.23977 0.0
C105 C 0.78799 0.06426 0.30715 0.0
N106 N 0.82975 0.10439 0.31194 0.0
C107 C 0.72846 0.15506 0.30122 0.0
C108 C 0.71488 0.06812 0.29839 0.0
C109 C 0.80047 0.14948 0.31041 0.0
C110 C 0.68564 0.11426 0.29478 0.0
C111 C 0.77562 0.97675 0.30996 0.0
C112 C 0.81812 0.019 0.31235 0.0
C113 C 0.70312 0.98043 0.30046 0.0
C114 C 0.67296 0.02596 0.29443 0.0
Tb115 Tb 0.94624 0.08924 0.32646 0.0
N116 N 0.88882 0.01661 0.32096 0.0
C117 C 0.80684 0.9322 0.31823 0.0
C118 C 0.91881 0.97349 0.33045 0.0
C119 C 0.87852 0.93063 0.32883 0.0
H120 H 0.83217 0.18138 0.31652 0.0
H121 H 0.90268 0.89645 0.336 0.0
H122 H 0.22226 0.01976 0.24553 0.0
H123 H 0.12953 0.29556 0.21029 0.0
H124 H 0.97355 0.97183 0.33967 0.0
H125 H 0.77573 0.89895 0.31735 0.0
H126 H 0.06719 0.21567 0.20954 0.0
H127 H 0.7059 0.19086 0.2994 0.0
H128 H 0.66968 0.94831 0.29821 0.0
H129 H 0.61674 0.02822 0.28758 0.0
H130 H 0.3495 0.01604 0.26241 0.0
H131 H 0.62973 0.11874 0.28796 0.0
H132 H 0.25248 0.30196 0.23553 0.0
N133 N 0.21631 0.09636 0.25115 0.0
C134 C 0.25473 0.13813 0.2546 0.0
C135 C 0.32326 0.05066 0.26087 0.0
C136 C 0.32825 0.13787 0.26311 0.0
C137 C 0.25065 0.0529 0.25192 0.0
C138 C 0.36198 0.09331 0.26722 0.0
N139 N 0.15119 0.17947 0.23731 0.0
C140 C 0.11985 0.21898 0.22158 0.0
C141 C 0.25943 0.22536 0.24771 0.0
C142 C 0.22106 0.18123 0.24723 0.0
C143 C 0.22487 0.26731 0.23572 0.0
C144 C 0.15538 0.26385 0.22154 0.0
H145 H 0.41834 0.09148 0.27384 0.0
H146 H 0.42219 0.18255 0.27326 0.0
H147 H 0.36181 0.25933 0.25957 0.0
O148 O 0.05389 0.1196 0.18572 0.0
O149 O 0.09407 0.16124 0.28372 0.0
O150 O 0.04583 0.12876 0.33916 0.0
O151 O 0.15536 0.08574 0.19156 0.0
O152 O 0.98612 0.13225 0.23772 0.0
O153 O 0.95014 0.15853 0.29639 0.0
O154 O 0.95546 0.06159 0.38138 0.0
O155 O 0.92808 0.0553 0.27032 0.0
O156 O 0.03783 0.03642 0.24379 0.0
O157 O 0.88989 0.12305 0.37138 0.0
O158 O 0.04174 0.04664 0.33306 0.0
O159 O 0.11763 0.0466 0.28005 0.0
C160 C 0.08979 0.15808 0.32076 0.0
C161 C 0.09428 0.07306 0.1339 0.0
C162 C 0.10831 0.06377 0.06554 0.0
C163 C 0.07334 0.01861 0.06787 0.0
C164 C 0.05902 0.02809 0.13575 0.0
C165 C 0.04832 1.00115 0.10277 0.0
C166 C 0.11816 0.09092 0.09872 0.0
C167 C 0.95605 0.16454 0.25959 0.0
C168 C 0.10844 0.10196 0.16799 0.0
C169 C 0.36595 0.18198 0.26616 0.0
C170 C 0.33157 0.2257 0.25844 0.0
C171 C 0.96795 0.03119 0.24604 0.0
C172 C 0.85858 0.07044 0.42315 0.0
C173 C 0.80659 0.06675 0.48683 0.0
C174 C 0.77435 0.02217 0.47781 0.0
C175 C 0.8246 0.02617 0.41491 0.0
C176 C 0.84867 0.09097 0.45924 0.0
C177 C 0.78272 1.00237 0.44196 0.0
C178 C 0.09876 0.03268 0.31455 0.0
C179 C 0.91133 0.09188 0.39638 0.0
H180 H 0.06558 0.99698 0.04272 0.0
H181 H 0.04042 0.01376 0.16258 0.0
H182 H 0.02118 0.9664 0.10432 0.0
H183 H 0.14577 0.12559 0.09719 0.0
H184 H 0.74203 1.00291 0.49854 0.0
H185 H 0.83201 0.00897 0.38804 0.0
H186 H 0.87482 0.12496 0.46618 0.0
H187 H 0.7575 0.96804 0.43525 0.0
Tb188 Tb 0.42734 0.42537 0.7468 0.0
C189 C 0.75367 0.39813 0.79215 0.0
N190 N 0.69625 0.3738 0.80664 0.0
C191 C 0.76097 0.29942 0.80402 0.0
C192 C 0.81617 0.37361 0.78154 0.0
C193 C 0.70064 0.32549 0.81468 0.0
C194 C 0.81854 0.32344 0.78678 0.0
C195 C 0.81105 0.47505 0.77722 0.0
C196 C 0.75119 0.44818 0.78999 0.0
C197 C 0.87227 0.45065 0.76497 0.0
C198 C 0.87479 0.40004 0.76708 0.0
Tb199 Tb 0.59857 0.42031 0.81893 0.0
N200 N 0.69111 0.4706 0.80203 0.0
C201 C 0.80825 0.52563 0.77815 0.0
C202 C 0.68983 0.51986 0.80527 0.0
C203 C 0.74776 0.54808 0.79279 0.0
H204 H 0.65731 0.30698 0.829 0.0
H205 H 0.74564 0.5871 0.79444 0.0
H206 H 0.33873 0.52423 0.77115 0.0
H207 H 0.33429 0.25023 0.70133 0.0
H208 H 0.64303 0.53751 0.81587 0.0
H209 H 0.85313 0.5476 0.76859 0.0
H210 H 0.42139 0.31819 0.70719 0.0
H211 H 0.76326 0.2609 0.80938 0.0
H212 H 0.91859 0.47064 0.75471 0.0
H213 H 0.92303 0.38179 0.75842 0.0
H214 H 0.21577 0.5441 0.79126 0.0
H215 H 0.8654 0.30321 0.77879 0.0
H216 H 0.21145 0.25903 0.72648 0.0
N217 N 0.31489 0.44959 0.76279 0.0
C218 C 0.26355 0.41456 0.7622 0.0
C219 C 0.22857 0.50747 0.78326 0.0
C220 C 0.1927 0.42423 0.77299 0.0
C221 C 0.29803 0.49611 0.77193 0.0
C222 C 0.1758 0.47126 0.78417 0.0
N223 N 0.35007 0.36242 0.73779 0.0
C224 C 0.36838 0.32144 0.71894 0.0
C225 C 0.22984 0.33235 0.74592 0.0
C226 C 0.28181 0.3693 0.74919 0.0
C227 C 0.24973 0.28846 0.7295 0.0
C228 C 0.31903 0.28333 0.71529 0.0
H229 H 0.122 0.48021 0.79281 0.0
H230 H 0.08635 0.39347 0.77998 0.0
H231 H 0.11889 0.313 0.75611 0.0
O232 O 0.44972 0.41281 0.68906 0.0
O233 O 0.42046 0.36293 0.78501 0.0
O234 O 0.50546 0.37271 0.83344 0.0
O235 O 0.38199 0.47103 0.70587 0.0
O236 O 0.52727 0.38753 0.73318 0.0
O237 O 0.57412 0.35483 0.78734 0.0
O238 O 0.56943 0.44071 0.87433 0.0
O239 O 0.60798 0.45887 0.76368 0.0
O240 O 0.49595 0.48839 0.75159 0.0
O241 O 0.67115 0.40982 0.86363 0.0
O242 O 0.53175 0.48388 0.82123 0.0
O243 O 0.41859 0.46045 0.80335 0.0
C244 C 0.44597 0.35342 0.81905 0.0
C245 C 0.3557 0.43312 0.64728 0.0
C246 C 0.32829 0.41681 0.58066 0.0
C247 C 0.25719 0.40666 0.59103 0.0
C248 C 0.28389 0.42343 0.65644 0.0
C249 C 0.23526 0.41008 0.62856 0.0
C250 C 0.37776 0.43022 0.60902 0.0
C251 C 0.55774 0.35179 0.75143 0.0
C252 C 0.40703 0.44657 0.67746 0.0
C253 C 0.14105 0.38692 0.77153 0.0
C254 C 0.15959 0.34106 0.75799 0.0
C255 C 0.56472 0.48791 0.74506 0.0
C256 C 0.61801 0.39152 0.92233 0.0
C257 C 0.63649 0.37181 0.98919 0.0
C258 C 0.60416 0.32638 0.98306 0.0
C259 C 0.58679 0.34568 0.91708 0.0
C260 C 0.64233 0.40481 0.95866 0.0
C261 C 0.5793 0.31356 0.94732 0.0
C262 C 0.46241 0.48413 0.8264 0.0
C263 C 0.62742 0.42433 0.88955 0.0
H264 H 0.21836 0.39618 0.56985 0.0
H265 H 0.26493 0.42654 0.68513 0.0
H266 H 0.18016 0.40251 0.63609 0.0
H267 H 0.43277 0.43812 0.60138 0.0
H268 H 0.59893 0.30049 1.00601 0.0
H269 H 0.56897 0.33449 0.88945 0.0
H270 H 0.6671 0.43997 0.96298 0.0
H271 H 0.55501 0.2783 0.94291 0.0
Tb272 Tb 0.07112 0.93157 0.73405 0.0
C273 C 0.79768 0.85155 0.82933 0.0
N274 N 0.81765 0.89299 0.81113 0.0
C275 C 0.69982 0.90057 0.78556 0.0
C276 C 0.72772 0.83271 0.82595 0.0
C277 C 0.76941 0.91837 0.79025 0.0
C278 C 0.67892 0.8575 0.80337 0.0
C279 C 0.82845 0.78536 0.87122 0.0
C280 C 0.84761 0.8282 0.85168 0.0
C281 C 0.75876 0.76651 0.86796 0.0
C282 C 0.70855 0.79011 0.84541 0.0
Tb283 Tb 0.93048 0.91983 0.82378 0.0
N284 N 0.91501 0.84697 0.85374 0.0
C285 C 0.87991 0.76267 0.89343 0.0
C286 C 0.96425 0.82616 0.87704 0.0
C287 C 0.94795 0.78332 0.8965 0.0
H288 H 0.78419 0.95238 0.7773 0.0
H289 H 0.98753 0.76677 0.91446 0.0
H290 H 0.21848 0.88454 0.76857 0.0
H291 H 0.01699 0.10893 0.67492 0.0
H292 H 0.01565 0.84301 0.88189 0.0
H293 H 0.86733 0.72965 0.90879 0.0
H294 H 0.99364 0.02267 0.68595 0.0
H295 H 0.66206 0.92043 0.76859 0.0
H296 H 0.74315 0.73364 0.88275 0.0
H297 H 0.65502 0.77511 0.84318 0.0
H298 H 0.33838 0.91384 0.78789 0.0
H299 H 0.62475 0.84405 0.79993 0.0
H300 H 0.12875 0.14684 0.69805 0.0
N301 N 0.1828 0.95434 0.75264 0.0
C302 C 0.20063 1.00159 0.74663 0.0
C303 C 0.29995 0.93894 0.77658 0.0
C304 C 0.26841 0.0198 0.75683 0.0
C305 C 0.23207 0.9225 0.76588 0.0
C306 C 0.31796 0.9879 0.77241 0.0
N307 N 0.08544 0.01241 0.72059 0.0
C308 C 0.03992 0.03903 0.69887 0.0
C309 C 0.16739 0.0806 0.72314 0.0
C310 C 0.15015 0.0316 0.73046 0.0
C311 C 0.11759 0.10906 0.70419 0.0
C312 C 0.0542 0.08791 0.69136 0.0
H313 H 0.37062 1.00052 0.78068 0.0
H314 H 0.33642 0.08372 0.7586 0.0
H315 H 0.24808 0.13696 0.72906 0.0
O316 O 0.07495 0.94097 0.67485 0.0
O317 O 0.10114 0.95999 0.79046 0.0
O318 O 0.99382 0.98461 0.81258 0.0
O319 O 0.1448 0.89153 0.70227 0.0
O320 O 0.96074 0.95665 0.72601 0.0
O321 O 0.91057 0.9785 0.78388 0.0
O322 O 0.94668 0.92981 0.8826 0.0
O323 O 0.90126 0.87561 0.77438 0.0
O324 O 0.99453 0.87121 0.72993 0.0
O325 O 0.86 0.96377 0.85401 0.0
O326 O 0.03824 0.88784 0.82582 0.0
O327 O 0.07783 0.86448 0.76646 0.0
C328 C 0.06314 0.98585 0.81401 0.0
C329 C 0.10814 0.87223 0.64025 0.0
C330 C 0.11267 0.84922 0.57372 0.0
C331 C 0.08392 0.80366 0.58326 0.0
C332 C 0.08012 0.82626 0.64929 0.0
C333 C 0.06791 0.7923 0.62086 0.0
C334 C 0.12391 0.88371 0.60232 0.0
C335 C 0.91656 0.98236 0.74684 0.0
C336 C 0.12285 0.9081 0.67004 0.0
C337 C 0.28471 0.06894 0.7508 0.0
C338 C 0.2343 0.09928 0.73405 0.0
C339 C 0.93121 0.85825 0.74338 0.0
C340 C 0.83679 0.93595 0.91624 0.0
C341 C 0.80606 0.91901 0.98241 0.0
C342 C 0.74058 0.89901 0.97051 0.0
C343 C 0.76892 0.91828 0.90573 0.0
C344 C 0.85469 0.93723 0.95504 0.0
C345 C 0.72202 0.89908 0.93253 0.0
C346 C 0.06923 0.85661 0.80294 0.0
C347 C 0.88755 0.95351 0.8867 0.0
H348 H 0.07538 0.77654 0.56166 0.0
H349 H 0.06783 0.81652 0.67829 0.0
H350 H 0.04656 0.75688 0.62805 0.0
H351 H 0.14675 0.9188 0.59515 0.0
H352 H 0.70271 0.88449 0.99096 0.0
H353 H 0.75134 0.91953 0.87674 0.0
H354 H 0.90548 0.95253 0.96387 0.0
H355 H 0.67057 0.88482 0.92385 0.0
Tb356 Tb 0.44338 0.58199 0.23244 0.0
C357 C 0.74411 0.64694 0.28787 0.0
N358 N 0.71079 0.60347 0.29326 0.0
C359 C 0.81772 0.56246 0.27503 0.0
C360 C 0.8148 0.64978 0.2741 0.0
C361 C 0.74779 0.56148 0.28904 0.0
C362 C 0.85096 0.60677 0.26689 0.0
C363 C 0.74226 0.73431 0.29422 0.0
C364 C 0.70812 0.68876 0.29762 0.0
C365 C 0.81177 0.73739 0.2793 0.0
C366 C 0.8478 0.69526 0.26908 0.0
Tb367 Tb 0.5958 0.60723 0.31462 0.0
N368 N 0.64045 0.68457 0.31148 0.0
C369 C 0.70624 0.77523 0.30687 0.0
C370 C 0.60571 0.72442 0.3246 0.0
C371 C 0.63788 0.77023 0.32226 0.0
H372 H 0.724 0.52695 0.29646 0.0
H373 H 0.61012 0.80164 0.33266 0.0
H374 H 0.2944 0.64569 0.2506 0.0
H375 H 0.46587 0.39632 0.1896 0.0
H376 H 0.55372 0.72137 0.33759 0.0
H377 H 0.73143 0.81062 0.30591 0.0
H378 H 0.5015 0.48275 0.19276 0.0
H379 H 0.84614 0.52903 0.27082 0.0
H380 H 0.83873 0.77208 0.27624 0.0
H381 H 0.90189 0.69817 0.25827 0.0
H382 H 0.17262 0.62846 0.27335 0.0
H383 H 0.90531 0.6074 0.25627 0.0
H384 H 0.35098 0.3691 0.21794 0.0
N385 N 0.32542 0.57184 0.24972 0.0
C386 C 0.30154 0.5252 0.25119 0.0
C387 C 0.2087 0.599 0.26782 0.0
C388 C 0.23112 0.51353 0.26254 0.0
C389 C 0.27862 0.6087 0.25571 0.0
C390 C 0.1852 0.55117 0.27194 0.0
N391 N 0.41247 0.5025 0.22621 0.0
C392 C 0.45318 0.47058 0.20664 0.0
C393 C 0.32239 0.44089 0.23657 0.0
C394 C 0.34634 0.4893 0.23855 0.0
C395 C 0.36731 0.40672 0.22006 0.0
C396 C 0.43228 0.4219 0.20414 0.0
H397 H 0.13075 0.54376 0.28089 0.0
H398 H 0.15445 0.45522 0.27175 0.0
H399 H 0.23415 0.39168 0.24848 0.0
O400 O 0.47967 0.58228 0.17592 0.0
O401 O 0.45802 0.52794 0.27755 0.0
O402 O 0.49363 0.57238 0.32947 0.0
O403 O 0.37005 0.59576 0.18889 0.0
O404 O 0.55507 0.56112 0.22518 0.0
O405 O 0.6005 0.53863 0.28324 0.0
O406 O 0.62192 0.63602 0.36801 0.0
O407 O 0.6038 0.63674 0.25693 0.0
O408 O 0.49128 0.65509 0.23563 0.0
O409 O 0.63975 0.56136 0.35605 0.0
O410 O 0.4971 0.64703 0.32274 0.0
O411 O 0.41389 0.63749 0.27367 0.0
C412 C 0.4626 0.53434 0.31434 0.0
C413 C 0.41602 0.63198 0.13357 0.0
C414 C 0.39169 0.65784 0.06869 0.0
C415 C 0.40257 0.70614 0.0799 0.0
C416 C 0.42688 0.68039 0.144 0.0
C417 C 0.42065 0.7172 0.11717 0.0
C418 C 0.39983 0.62068 0.0957 0.0
C419 C 0.59203 0.53168 0.24658 0.0
C420 C 0.41758 0.59325 0.16223 0.0
C421 C 0.20809 0.46494 0.26272 0.0
C422 C 0.25355 0.42871 0.24958 0.0
C423 C 0.55922 0.66655 0.24044 0.0
C424 C 0.60483 0.5818 0.4188 0.0
C425 C 0.59755 0.58985 0.48771 0.0
C426 C 0.53917 0.55748 0.48812 0.0
C427 C 0.54496 0.55082 0.42007 0.0
C428 C 0.63038 0.60191 0.45282 0.0
C429 C 0.51276 0.53846 0.45443 0.0
C430 C 0.43574 0.65635 0.30604 0.0
C431 C 0.63917 0.59448 0.38215 0.0
H432 H 0.39668 0.73539 0.05972 0.0
H433 H 0.4391 0.68982 0.17294 0.0
H434 H 0.42883 0.75452 0.12542 0.0
H435 H 0.39144 0.58331 0.08748 0.0
H436 H 0.5135 0.54747 0.51455 0.0
H437 H 0.52279 0.53634 0.3945 0.0
H438 H 0.67558 0.62677 0.45226 0.0
H439 H 0.46696 0.51417 0.45492 0.0
C440 C 0.1495 0.90801 0.34383 0.0
C441 C 0.18715 0.91504 0.3779 0.0
C442 C 0.16724 1.00197 0.37134 0.0
C443 C 0.14053 0.99448 0.33397 0.0
N444 N 0.13552 0.93889 0.2811 0.0
N445 N 0.24177 0.97025 0.42157 0.0
C446 C 0.14085 0.94719 0.31892 0.0
C447 C 0.19898 0.96259 0.39108 0.0
N448 N 0.12168 0.86372 0.33526 0.0
N449 N 0.16233 0.04619 0.38807 0.0
H450 H 0.26493 0.94182 0.43628 0.0
H451 H 0.25811 1.00459 0.4303 0.0
H452 H 0.14194 0.0763 0.3743 0.0
H453 H 0.17443 0.05204 0.41643 0.0
H454 H 0.09018 0.85772 0.31142 0.0
H455 H 0.12313 0.83507 0.35447 0.0
H456 H 0.14173 0.90448 0.26959 0.0
H457 H 0.13083 0.96621 0.26107 0.0
C458 C 0.42105 0.60805 0.86479 0.0
C459 C 0.34847 0.60183 0.87525 0.0
C460 C 0.35952 0.51436 0.86578 0.0
C461 C 0.42996 0.52148 0.85211 0.0
N462 N 0.53602 0.57023 0.86231 0.0
N463 N 0.24476 0.55 0.87939 0.0
C464 C 0.46376 0.56686 0.85857 0.0
C465 C 0.31678 0.55502 0.87464 0.0
N466 N 0.44793 0.65321 0.8577 0.0
N467 N 0.33615 0.46846 0.87318 0.0
H468 H 0.21166 0.5796 0.88333 0.0
H469 H 0.21726 0.51744 0.87551 0.0
H470 H 0.37124 0.43948 0.87175 0.0
H471 H 0.28698 0.4602 0.8856 0.0
H472 H 0.49904 0.65926 0.84674 0.0
H473 H 0.41596 0.68376 0.8579 0.0
H474 H 0.56244 0.60249 0.8689 0.0
H475 H 0.56724 0.53971 0.86605 0.0
C476 C 0.61525 0.61185 0.70413 0.0
C477 C 0.6678 0.59893 0.67706 0.0
C478 C 0.64046 0.51347 0.68923 0.0
C479 C 0.59676 0.52634 0.72042 0.0
N480 N 0.55079 0.58914 0.76088 0.0
N481 N 0.73909 0.53733 0.64855 0.0
C482 C 0.58568 0.57594 0.72859 0.0
C483 C 0.68274 0.54963 0.67083 0.0
N484 N 0.59419 0.65877 0.70686 0.0
N485 N 0.63902 0.4672 0.67602 0.0
H486 H 0.7719 0.56327 0.63572 0.0
H487 H 0.75687 0.50192 0.64586 0.0
H488 H 0.60401 0.44105 0.68689 0.0
H489 H 0.66575 0.45659 0.6516 0.0
H490 H 0.55057 0.66956 0.72297 0.0
H491 H 0.61648 0.68641 0.6905 0.0
H492 H 0.549 0.62465 0.77054 0.0
H493 H 0.52929 0.56441 0.78011 0.0
C494 C 0.82746 0.97822 0.18103 0.0
C495 C 0.83836 0.92785 0.18436 0.0
C496 C 0.93857 0.9445 0.22732 0.0
C497 C 0.93073 0.99496 0.22131 0.0
N498 N 0.88324 0.05725 0.18118 0.0
N499 N 0.91246 0.86287 0.20625 0.0
C500 C 0.88029 0.01098 0.19444 0.0
C501 C 0.89745 0.91106 0.2056 0.0
N502 N 0.76372 0.99507 0.16862 0.0
N503 N 0.98109 0.92848 0.25574 0.0
H504 H 0.88055 0.837 0.1929 0.0
H505 H 0.95903 0.84901 0.21785 0.0
H506 H 0.00762 0.95235 0.27353 0.0
H507 H 0.98372 0.89246 0.26428 0.0
H508 H 0.7512 0.03172 0.16837 0.0
H509 H 0.72055 0.97191 0.16414 0.0
H510 H 0.85062 0.06948 0.15939 0.0
H511 H 0.92375 0.08125 0.189 0.0
C512 C 0.85158 0.1024 0.70903 0.0
C513 C 0.79847 0.08834 0.6828 0.0
C514 C 0.82372 1.00319 0.69735 0.0
C515 C 0.87025 0.01811 0.72701 0.0
N516 N 0.90394 0.08376 0.76893 0.0
N517 N 0.72491 0.02526 0.65665 0.0
C518 C 0.8774 0.06818 0.73518 0.0
C519 C 0.78249 0.03856 0.67783 0.0
N520 N 0.87485 0.14935 0.71024 0.0
N521 N 0.81639 0.95523 0.68897 0.0
H522 H 0.69291 0.05058 0.64329 0.0
H523 H 0.70568 0.98985 0.65487 0.0
H524 H 0.83849 0.92807 0.70556 0.0
H525 H 0.7902 0.94264 0.66495 0.0
H526 H 0.91848 0.16044 0.72642 0.0
H527 H 0.85467 0.17611 0.69255 0.0
H528 H 0.90396 0.12 0.77697 0.0
H529 H 0.91711 0.06077 0.79101 0.0
C530 C 0.71543 0.46645 0.17808 0.0
C531 C 0.69666 0.41762 0.18545 0.0
C532 C 0.61282 0.44305 0.23507 0.0
C533 C 0.63128 0.49208 0.22746 0.0
N534 N 0.70993 0.55029 0.19776 0.0
N535 N 0.62512 0.3584 0.21904 0.0
C536 C 0.68452 0.50383 0.20011 0.0
C537 C 0.64413 0.40582 0.21327 0.0
N538 N 0.76471 0.47671 0.15065 0.0
N539 N 0.56659 0.43204 0.26386 0.0
H540 H 0.65051 0.3298 0.20568 0.0
H541 H 0.58177 0.34683 0.23526 0.0
H542 H 0.5384 0.45816 0.2783 0.0
H543 H 0.55723 0.39749 0.27458 0.0
H544 H 0.77619 0.51128 0.14048 0.0
H545 H 0.79191 0.44975 0.13646 0.0
H546 H 0.75233 0.56154 0.18072 0.0
H547 H 0.69286 0.57733 0.21593 0.0
C548 C 0.31573 0.46232 0.36392 0.0
C549 C 0.354 0.4224 0.3787 0.0
C550 C 0.46595 0.45848 0.35452 0.0
C551 C 0.42716 0.4981 0.33972 0.0
N552 N 0.31981 0.54494 0.34103 0.0
N553 N 0.46245 0.37721 0.38043 0.0
C554 C 0.35348 0.50225 0.34779 0.0
C555 C 0.42866 0.41953 0.37259 0.0
N556 N 0.24296 0.46004 0.36182 0.0
N557 N 0.53875 0.45878 0.35236 0.0
H558 H 0.43539 0.34707 0.39115 0.0
H559 H 0.51498 0.37001 0.3729 0.0
H560 H 0.56745 0.48661 0.33931 0.0
H561 H 0.57104 0.43412 0.36628 0.0
H562 H 0.21255 0.48568 0.34774 0.0
H563 H 0.21319 0.43002 0.37082 0.0
H564 H 0.26798 0.5519 0.35013 0.0
H565 H 0.3461 0.57506 0.32958 0.0
C566 C 0.12582 0.10898 0.85057 0.0
C567 C 0.17776 0.09497 0.87746 0.0
C568 C 0.14 0.01074 0.86929 0.0
C569 C 0.09912 0.02376 0.83727 0.0
N570 N 0.05933 0.08643 0.79503 0.0
N571 N 0.24425 0.03081 0.90621 0.0
C572 C 0.09321 0.07332 0.82742 0.0
C573 C 0.1874 0.04533 0.88537 0.0
N574 N 0.10798 0.15648 0.84695 0.0
N575 N 0.13122 0.96634 0.88557 0.0
H576 H 0.28313 0.05519 0.91538 0.0
H577 H 0.25667 0.99449 0.91027 0.0
H578 H 0.09259 0.94177 0.87626 0.0
H579 H 0.15619 0.95661 0.91073 0.0
H580 H 0.06527 0.16823 0.83066 0.0
H581 H 0.13184 0.18372 0.8629 0.0
H582 H 0.05993 0.12156 0.78428 0.0
H583 H 0.03618 0.06118 0.77707 0.0
C584 C 0.12157 0.12674 0.96919 0.0
C585 C 0.19563 0.1235 0.96162 0.0
C586 C 0.21274 0.08058 1.02205 0.0
C587 C 0.13786 0.08202 1.02874 0.0
N588 N 0.01946 0.10068 1.00686 0.0
N589 N 0.31257 0.09698 0.97944 0.0
C590 C 0.09177 0.10306 1.00157 0.0
C591 C 0.24144 0.10027 0.98777 0.0
N592 N 0.08079 0.15558 0.94678 0.0
N593 N 0.25626 0.0607 0.04879 0.0
H594 H 0.33524 0.11211 0.95511 0.0
H595 H 0.34904 0.07731 0.99513 0.0
H596 H 0.23681 0.04301 0.07287 0.0
H597 H 0.31171 0.06261 0.04815 0.0
H598 H 0.02768 0.16367 0.95236 0.0
H599 H 0.1025 0.17538 0.92438 0.0
H600 H 0.98269 0.11017 0.9862 0.0
H601 H 0.99572 0.08616 0.03113 0.0
C602 C 0.37589 0.35981 0.48622 0.0
C603 C 0.32975 0.38693 0.46251 0.0
C604 C 0.3147 0.44531 0.51404 0.0
C605 C 0.34744 0.41299 0.5396 0.0
N606 N 0.41126 0.3392 0.55029 0.0
N607 N 0.24535 0.45138 0.45698 0.0
C608 C 0.38044 0.37075 0.52559 0.0
C609 C 0.29798 0.42942 0.47689 0.0
N610 N 0.41251 0.32198 0.47132 0.0
N611 N 0.29662 0.4904 0.52604 0.0
H612 H 0.22572 0.43684 0.43205 0.0
H613 H 0.21552 0.47999 0.4674 0.0
H614 H 0.30799 0.50235 0.55336 0.0
H615 H 0.27754 0.51705 0.50791 0.0
H616 H 0.45276 0.30392 0.48561 0.0
H617 H 0.40512 0.31035 0.44364 0.0
H618 H 0.42812 0.30478 0.54284 0.0
H619 H 0.41701 0.34665 0.57899 0.0
C620 C 0.64116 0.37227 0.09573 0.0
C621 C 0.7155 0.37351 0.10329 0.0
C622 C 0.73933 0.38291 0.03505 0.0
C623 C 0.66473 0.38269 1.0279 0.0
N624 N 0.54584 0.39245 0.05239 0.0
N625 N 0.83457 0.3913 0.08098 0.0
C626 C 0.61621 0.38305 0.05873 0.0
C627 C 0.7641 0.38324 0.07313 0.0
N628 N 0.59468 0.35614 0.12272 0.0
N629 N 0.78658 0.37913 1.00572 0.0
H630 H 0.85485 0.38968 0.10837 0.0
H631 H 0.87152 0.40338 0.06089 0.0
H632 H 0.77106 0.37868 0.97748 0.0
H633 H 0.84087 0.37297 1.00943 0.0
H634 H 0.54043 0.35024 0.11789 0.0
H635 H 0.61227 0.34321 0.14849 0.0
H636 H 0.50892 0.39716 0.07414 0.0
H637 H 0.52641 0.40047 1.02549 0.0
C638 C 0.70815 0.10953 0.57461 0.0
C639 C 0.76515 0.12137 0.59933 0.0
C640 C 0.85046 0.0936 0.55142 0.0
C641 C 0.79374 0.08774 0.52513 0.0
N642 N 0.66984 0.10054 0.50981 0.0
N643 N 0.89114 0.13349 0.60845 0.0
C644 C 0.72283 0.09861 0.53624 0.0
C645 C 0.83662 0.11567 0.58703 0.0
N646 N 0.63969 0.10835 0.58804 0.0
N647 N 0.91693 0.07686 0.54297 0.0
H648 H 0.88198 0.15155 0.63368 0.0
H649 H 0.94416 0.13451 0.59944 0.0
H650 H 0.92895 0.05995 0.51747 0.0
H651 H 0.95827 0.07586 0.56259 0.0
H652 H 0.59656 0.09545 0.57235 0.0
H653 H 0.62711 0.11569 0.61617 0.0
H654 H 0.61872 0.11297 0.51573 0.0
H655 H 0.67887 0.09465 0.48109 0.0
C656 C 0.85544 0.88207 0.08265 0.0
C657 C 0.79497 0.90103 0.10152 0.0
C658 C 0.76832 0.94918 0.04524 0.0
C659 C 0.81828 0.92243 1.02406 0.0
N660 N 0.91107 0.86291 1.02241 0.0
N661 N 0.68425 0.9442 0.09674 0.0
C662 C 0.8638 0.88955 0.04287 0.0
C663 C 0.74954 0.93327 0.08206 0.0
N664 N 0.90264 0.85491 0.10249 0.0
N665 N 0.73587 0.98806 1.02916 0.0
H666 H 0.66499 0.92897 0.12182 0.0
H667 H 0.64623 0.96386 0.08194 0.0
H668 H 0.74874 0.99998 1.0019 0.0
H669 H 0.70238 0.0109 0.04427 0.0
H670 H 0.95132 0.8435 0.09163 0.0
H671 H 0.89475 0.84687 0.13092 0.0
H672 H 0.93977 0.83423 0.0336 0.0
H673 H 0.91914 0.86806 0.99351 0.0
C674 C 0.71762 0.62233 0.5713 0.0
C675 C 0.66882 0.64607 0.5955 0.0
C676 C 0.57755 0.64065 0.54597 0.0
C677 C 0.62337 0.61089 0.52415 0.0
N678 N 0.73309 0.56618 0.51979 0.0
N679 N 0.55094 0.67571 0.60715 0.0
C680 C 0.69246 0.59981 0.53779 0.0
C681 C 0.5982 0.65446 0.5832 0.0
N682 N 0.78878 0.62295 0.57956 0.0
N683 N 0.51586 0.65753 0.53045 0.0
H684 H 0.56609 0.68874 0.63351 0.0
H685 H 0.49642 0.67789 0.60182 0.0
H686 H 0.50027 0.64962 0.50285 0.0
H687 H 0.4836 0.68299 0.54348 0.0
H688 H 0.82773 0.61091 0.56084 0.0
H689 H 0.80944 0.6392 0.60377 0.0
H690 H 0.78061 0.55312 0.53091 0.0
H691 H 0.71618 0.54786 0.49565 0.0
C692 C 0.28052 0.62658 0.98087 0.0
C693 C 0.32161 0.65084 0.95275 0.0
C694 C 0.41676 0.66417 0.9991 0.0
C695 C 0.371 0.64765 1.02856 0.0
N696 N 0.25463 0.61747 0.04772 0.0
N697 N 0.42087 0.70374 0.9383 0.0
C698 C 0.30195 0.62904 1.01951 0.0
C699 C 0.38823 0.672 0.96252 0.0
N700 N 0.21909 0.60317 0.97071 0.0
N701 N 0.4872 0.67336 1.00629 0.0
H702 H 0.3968 0.71483 0.91334 0.0
H703 H 0.46661 0.72357 0.94527 0.0
H704 H 0.50983 0.6674 0.0328 0.0
H705 H 0.52404 0.6819 0.98506 0.0
H706 H 0.19034 0.58034 0.9888 0.0
H707 H 0.19957 0.60434 0.94321 0.0
H708 H 0.20111 0.609 0.04291 0.0
H709 H 0.26692 0.62005 0.07632 0.0
C710 C 0.10511 0.86224 0.46664 0.0
C711 C 0.17827 0.85829 0.45722 0.0
C712 C 0.20956 0.85512 0.52453 0.0
C713 C 0.13613 0.85864 0.53405 0.0
N714 N 0.01576 0.87631 0.51531 0.0
N715 N 0.30131 0.86254 0.47631 0.0
C716 C 0.08442 0.86587 0.50536 0.0
C717 C 0.23079 0.85904 0.48605 0.0
N718 N 0.05546 0.86008 0.43859 0.0
N719 N 0.25852 0.84487 0.55194 0.0
H720 H 0.31854 0.86453 0.44831 0.0
H721 H 0.34219 0.86806 0.49574 0.0
H722 H 0.24555 0.84189 0.58053 0.0
H723 H 0.31124 0.8358 0.54622 0.0
H724 H 0.00071 0.8573 0.44339 0.0
H725 H 0.06988 0.85868 0.41018 0.0
H726 H 0.97666 0.88608 0.49598 0.0
H727 H -0.0006 0.87911 0.54344 0.0
C728 C 0.24525 0.22843 0.36409 0.0
C729 C 0.21026 0.27105 0.37548 0.0
C730 C 0.09451 0.23605 0.35759 0.0
C731 C 0.12999 0.19487 0.34305 0.0
N732 N 0.23554 0.14618 0.34065 0.0
N733 N 0.1046 0.31874 0.38011 0.0
C734 C 0.20458 0.18949 0.34854 0.0
C735 C 0.13557 0.27557 0.37169 0.0
N736 N 0.3179 0.22642 0.36689 0.0
N737 N 0.02164 0.23662 0.35939 0.0
H738 H 0.1334 0.34793 0.39119 0.0
H739 H 0.05191 0.32696 0.37372 0.0
H740 H 0.98967 0.20801 0.35031 0.0
H741 H 0.99275 0.26336 0.37304 0.0
H742 H 0.34871 0.19904 0.35542 0.0
H743 H 0.34817 0.25398 0.37934 0.0
H744 H 0.28785 0.13759 0.3475 0.0
H745 H 0.20724 0.11721 0.32899 0.0
C746 C 0.40678 0.23844 0.87775 0.0
C747 C 0.33185 0.24036 0.88059 0.0
C748 C 0.33299 0.31919 0.84873 0.0
C749 C 0.40758 0.31479 0.84151 0.0
N750 N 0.51227 0.26433 0.84379 0.0
N751 N 0.22162 0.27997 0.8673 0.0
C752 C 0.44399 0.27311 0.85505 0.0
C753 C 0.29447 0.28017 0.86577 0.0
N754 N 0.44209 0.20275 0.89647 0.0
N755 N 0.29923 0.36139 0.84058 0.0
H756 H 0.19257 0.2537 0.88218 0.0
H757 H 0.19009 0.30421 0.85239 0.0
H758 H 0.32522 0.39066 0.82798 0.0
H759 H 0.24719 0.36894 0.84892 0.0
H760 H 0.49746 0.20193 0.899 0.0
H761 H 0.41529 0.17631 0.91239 0.0
H762 H 0.53891 0.23229 0.84949 0.0
H763 H 0.53985 0.28684 0.82529 0.0
C764 C 0.5848 0.23052 0.7028 0.0
C765 C 0.65579 0.23567 0.68981 0.0
C766 C 0.65945 0.31903 0.71282 0.0
C767 C 0.59093 0.31206 0.72955 0.0
N768 N 0.49647 0.25641 0.74793 0.0
N769 N 0.76584 0.2812 0.68803 0.0
C770 C 0.5557 0.26645 0.72663 0.0
C771 C 0.69454 0.27907 0.69618 0.0
N772 N 0.54531 0.19106 0.69221 0.0
N773 N 0.69128 0.36364 0.71294 0.0
H774 H 0.79296 0.25247 0.67581 0.0
H775 H 0.79908 0.3098 0.69608 0.0
H776 H 0.66937 0.39299 0.72686 0.0
H777 H 0.73722 0.37217 0.69751 0.0
H778 H 0.49088 0.18733 0.6979 0.0
H779 H 0.56596 0.16422 0.67477 0.0
H780 H 0.47323 0.22206 0.74989 0.0
H781 H 0.47397 0.28154 0.76604 0.0
C782 C 0.91499 0.28426 0.21344 0.0
C783 C 0.84674 0.27523 0.19804 0.0
C784 C 0.84935 0.19259 0.22271 0.0
C785 C 0.91476 0.20344 0.24126 0.0
N786 N 0.99674 0.26486 0.26364 0.0
N787 N 0.74076 0.22508 0.19637 0.0
C788 C 0.94349 0.251 0.23968 0.0
C789 C 0.8114 0.23052 0.20499 0.0
N790 N 0.95275 0.32451 0.20261 0.0
N791 N 0.82306 0.14638 0.22215 0.0
H792 H 0.71096 0.25262 0.18419 0.0
H793 H 0.71035 0.19497 0.20449 0.0
H794 H 0.84693 0.11817 0.23676 0.0
H795 H 0.77976 0.1357 0.20561 0.0
H796 H 0.00537 0.33105 0.21082 0.0
H797 H 0.93304 0.34905 0.18283 0.0
H798 H 0.01475 0.30056 0.26587 0.0
H799 H 0.01884 0.24128 0.28323 0.0
C800 C 0.85806 0.77599 0.66438 0.0
C801 C 0.80705 0.74793 0.68489 0.0
C802 C 0.85024 0.78472 0.74276 0.0
C803 C 0.89073 0.81966 0.72236 0.0
N804 N 0.91733 0.85403 0.66046 0.0
N805 N 0.73968 0.74023 0.74295 0.0
C806 C 0.89025 0.81711 0.68205 0.0
C807 C 0.79797 0.75724 0.72382 0.0
N808 N 0.87791 0.76259 0.62888 0.0
N809 N 0.8658 0.77392 0.77927 0.0
H810 H 0.69751 0.72291 0.7293 0.0
H811 H 0.73076 0.74818 0.77135 0.0
H812 H 0.90969 0.78912 0.79289 0.0
H813 H 0.84072 0.74539 0.7937 0.0
H814 H 0.91733 0.78087 0.61344 0.0
H815 H 0.86007 0.73039 0.61668 0.0
H816 H 0.9128 0.85463 0.6311 0.0
H817 H 0.93712 0.88615 0.6718 0.0
C818 C 0.69279 0.74267 0.18504 0.0
C819 C 0.66689 0.79005 0.18999 0.0
C820 C 0.56725 0.75734 0.22772 0.0
C821 C 0.59027 0.70951 0.22008 0.0
N822 N 0.65926 0.65855 0.17924 0.0
N823 N 0.57056 0.84168 0.20817 0.0
C824 C 0.64862 0.70268 0.19515 0.0
C825 C 0.60094 0.79709 0.20873 0.0
N826 N 0.76024 0.73576 0.17161 0.0
N827 N 0.51654 0.76525 0.25462 0.0
H828 H 0.59453 0.87118 0.19443 0.0
H829 H 0.51936 0.84815 0.21844 0.0
H830 H 0.49453 0.7373 0.27072 0.0
H831 H 0.5024 0.79963 0.26375 0.0
H832 H 0.78371 0.70177 0.17074 0.0
H833 H 0.79483 0.76444 0.16501 0.0
H834 H 0.69825 0.65245 0.15876 0.0
H835 H 0.62269 0.63015 0.18285 0.0
C836 C 0.35919 0.73543 0.38356 0.0
C837 C 0.30775 0.76231 0.36376 0.0
C838 C 0.3433 0.72337 0.30508 0.0
C839 C 0.3882 0.69135 0.32563 0.0
N840 N 0.41493 0.65777 0.38764 0.0
N841 N 0.23466 0.76866 0.30826 0.0
C842 C 0.38929 0.69455 0.36591 0.0
C843 C 0.29457 0.75201 0.32534 0.0
N844 N 0.38072 0.74935 0.41868 0.0
N845 N 0.34885 0.72937 0.26684 0.0
H846 H 0.19592 0.78704 0.32329 0.0
H847 H 0.21997 0.75883 0.2809 0.0
H848 H 0.38571 0.71198 0.24985 0.0
H849 H 0.32102 0.75609 0.25235 0.0
H850 H 0.42257 0.73268 0.43287 0.0
H851 H 0.36173 0.78046 0.43168 0.0
H852 H 0.41239 0.65808 0.41709 0.0
H853 H 0.42876 0.62435 0.37655 0.0
C854 C 0.21736 0.79022 0.85566 0.0
C855 C 0.19031 0.74228 0.85507 0.0
C856 C 0.09265 0.76804 0.8142 0.0
C857 C 0.11293 0.81719 0.81975 0.0
N858 N 0.19461 0.87531 0.84738 0.0
N859 N 0.09678 0.68612 0.8388 0.0
C860 C 0.17506 0.82837 0.84123 0.0
C861 C 0.12626 0.73135 0.83577 0.0
N862 N 0.2851 0.79883 0.86838 0.0
N863 N 0.0435 0.75607 0.78735 0.0
H864 H 0.12026 0.65879 0.85475 0.0
H865 H 0.04633 0.67723 0.8284 0.0
H866 H 0.02142 0.78161 0.76931 0.0
H867 H 0.03097 0.72048 0.7801 0.0
H868 H 0.31107 0.83223 0.86604 0.0
H869 H 0.31805 0.77128 0.87797 0.0
H870 H 0.23367 0.88577 0.86668 0.0
H871 H 0.16961 0.90406 0.83417 0.0
loop_
_geom_bond_atom_site_label_1
_geom_bond_atom_site_label_2
_geom_bond_distance
_geom_bond_site_symmetry_2
_ccdc_geom_bond_type
C0 N1 1.317 . S
C0 N2 1.348 . S
C0 C3 1.485 . S
N1 C0 1.317 . S
N1 N5 1.370 . S
N2 C0 1.348 . S
N2 C4 1.346 . S
C3 C0 1.485 . S
C3 H7 0.960 . S
C3 H8 0.961 . S
C3 H9 0.960 . S
C4 N2 1.346 . S
C4 N5 1.307 . S
C4 C6 1.486 . S
N5 N1 1.370 . S
N5 C4 1.307 . S
C6 C4 1.486 . S
C6 H10 0.960 . S
C6 H11 0.960 . S
C6 H12 0.959 . S
H7 C3 0.960 . S
H8 C3 0.961 . S
H9 C3 0.960 . S
H10 C6 0.960 . S
H11 C6 0.960 . S
H12 C6 0.959 . S
C13 N14 1.317 . S
C13 N15 1.348 . S
C13 C16 1.485 . S
N14 C13 1.317 . S
N14 N18 1.370 . S
N15 C13 1.348 . S
N15 C17 1.346 . S
C16 C13 1.485 . S
C16 H20 0.960 . S
C16 H21 0.961 . S
C16 H22 0.960 . S
C17 N15 1.346 . S
C17 N18 1.307 . S
C17 C19 1.486 . S
N18 N14 1.370 . S
N18 C17 1.307 . S
C19 C17 1.486 . S
C19 H23 0.960 . S
C19 H24 0.960 . S
C19 H25 0.959 . S
H20 C16 0.960 . S
H21 C16 0.961 . S
H22 C16 0.960 . S
H23 C19 0.960 . S
H24 C19 0.960 . S
H25 C19 0.959 . S
C26 N27 1.317 . S
C26 N28 1.348 . S
C26 C29 1.485 . S
N27 C26 1.317 . S
N27 N31 1.370 . S
N28 C26 1.348 . S
N28 C30 1.346 . S
C29 C26 1.485 . S
C29 H33 0.960 . S
C29 H34 0.961 . S
C29 H35 0.960 . S
C30 N28 1.346 . S
C30 N31 1.307 . S
C30 C32 1.486 . S
N31 N27 1.370 . S
N31 C30 1.307 . S
C32 C30 1.486 . S
C32 H36 0.960 . S
C32 H37 0.960 . S
C32 H38 0.959 . S
H33 C29 0.960 . S
H34 C29 0.961 . S
H35 C29 0.960 . S
H36 C32 0.960 . S
H37 C32 0.960 . S
H38 C32 0.959 . S
C39 N40 1.317 . S
C39 N41 1.348 . S
C39 C42 1.485 . S
N40 C39 1.317 . S
N40 N44 1.370 . S
N41 C39 1.348 . S
N41 C43 1.346 . S
C42 C39 1.485 . S
C42 H46 0.960 . S
C42 H47 0.961 . S
C42 H48 0.960 . S
C43 N41 1.346 . S
C43 N44 1.307 . S
C43 C45 1.486 . S
N44 N40 1.370 . S
N44 C43 1.307 . S
C45 C43 1.486 . S
C45 H49 0.960 . S
C45 H50 0.960 . S
C45 H51 0.959 . S
H46 C42 0.960 . S
H47 C42 0.961 . S
H48 C42 0.960 . S
H49 C45 0.960 . S
H50 C45 0.960 . S
H51 C45 0.959 . S
C52 N53 1.317 . S
C52 N54 1.348 . S
C52 C55 1.485 . S
N53 C52 1.317 . S
N53 N57 1.370 . S
N54 C52 1.348 . S
N54 C56 1.346 . S
C55 C52 1.485 . S
C55 H59 0.960 . S
C55 H60 0.961 . S
C55 H61 0.960 . S
C56 N54 1.346 . S
C56 N57 1.307 . S
C56 C58 1.486 . S
N57 N53 1.370 . S
N57 C56 1.307 . S
C58 C56 1.486 . S
C58 H62 0.960 . S
C58 H63 0.960 . S
C58 H64 0.959 . S
H59 C55 0.960 . S
H60 C55 0.961 . S
H61 C55 0.960 . S
H62 C58 0.960 . S
H63 C58 0.960 . S
H64 C58 0.959 . S
C65 N66 1.317 . S
C65 N67 1.348 . S
C65 C68 1.485 . S
N66 C65 1.317 . S
N66 N70 1.370 . S
N67 C65 1.348 . S
N67 C69 1.346 . S
C68 C65 1.485 . S
C68 H72 0.960 . S
C68 H73 0.961 . S
C68 H74 0.960 . S
C69 N67 1.346 . S
C69 N70 1.307 . S
C69 C71 1.486 . S
N70 N66 1.370 . S
N70 C69 1.307 . S
C71 C69 1.486 . S
C71 H75 0.960 . S
C71 H76 0.960 . S
C71 H77 0.959 . S
H72 C68 0.960 . S
H73 C68 0.961 . S
H74 C68 0.960 . S
H75 C71 0.960 . S
H76 C71 0.960 . S
H77 C71 0.959 . S
C78 N79 1.317 . S
C78 N80 1.348 . S
C78 C81 1.485 . S
N79 C78 1.317 . S
N79 N83 1.370 . S
N80 C78 1.348 . S
N80 C82 1.346 . S
C81 C78 1.485 . S
C81 H85 0.960 . S
C81 H86 0.961 . S
C81 H87 0.960 . S
C82 N80 1.346 . S
C82 N83 1.307 . S
C82 C84 1.486 . S
N83 N79 1.370 . S
N83 C82 1.307 . S
C84 C82 1.486 . S
C84 H88 0.960 . S
C84 H89 0.960 . S
C84 H90 0.959 . S
H85 C81 0.960 . S
H86 C81 0.961 . S
H87 C81 0.960 . S
H88 C84 0.960 . S
H89 C84 0.960 . S
H90 C84 0.959 . S
C91 N92 1.317 . S
C91 N93 1.348 . S
C91 C94 1.485 . S
N92 C91 1.317 . S
N92 N96 1.370 . S
N93 C91 1.348 . S
N93 C95 1.346 . S
C94 C91 1.485 . S
C94 H98 0.960 . S
C94 H99 0.961 . S
C94 H100 0.960 . S
C95 N93 1.346 . S
C95 N96 1.307 . S
C95 C97 1.486 . S
N96 N92 1.370 . S
N96 C95 1.307 . S
C97 C95 1.486 . S
C97 H101 0.960 . S
C97 H102 0.960 . S
C97 H103 0.959 . S
H98 C94 0.960 . S
H99 C94 0.961 . S
H100 C94 0.960 . S
H101 C97 0.960 . S
H102 C97 0.960 . S
H103 C97 0.959 . S
Tb104 N133 2.617 . S
Tb104 N139 2.572 . S
Tb104 O148 2.465 . S
Tb104 O149 2.387 . S
Tb104 O151 2.428 . S
Tb104 O152 2.308 1_455 S
Tb104 O156 2.349 1_455 S
Tb104 O159 2.393 . S
Tb104 C168 2.802 . S
C105 N106 1.379 . S
C105 C108 1.416 . S
C105 C112 1.424 . S
N106 C105 1.379 . S
N106 C109 1.334 . S
N106 Tb115 2.617 . S
C107 C109 1.390 . S
C107 C110 1.339 . S
C107 H127 0.930 . S
C108 C105 1.416 . S
C108 C110 1.416 . S
C108 C114 1.448 . S
C109 N106 1.334 . S
C109 C107 1.390 . S
C109 H120 0.930 . S
C110 C107 1.339 . S
C110 C108 1.416 . S
C110 H131 0.930 . S
C111 C112 1.413 1_565 S
C111 C113 1.427 . S
C111 C117 1.416 . S
C112 C105 1.424 . S
C112 C111 1.413 1_545 S
C112 N116 1.361 . S
C113 C111 1.427 . S
C113 C114 1.328 1_565 S
C113 H128 0.929 . S
C114 C108 1.448 . S
C114 C113 1.328 1_545 S
C114 H129 0.930 . S
Tb115 N106 2.617 . S
Tb115 N116 2.572 . S
Tb115 O150 2.349 1_655 S
Tb115 O153 2.393 . S
Tb115 O154 2.465 . S
Tb115 O155 2.387 . S
Tb115 O157 2.428 . S
Tb115 O158 2.308 1_655 S
Tb115 C179 2.802 . S
N116 C112 1.361 . S
N116 Tb115 2.572 . S
N116 C118 1.340 1_545 S
C117 C111 1.416 . S
C117 C119 1.332 . S
C117 H125 0.931 . S
C118 N116 1.340 1_565 S
C118 C119 1.407 . S
C118 H124 0.930 . S
C119 C117 1.332 . S
C119 C118 1.407 . S
C119 H121 0.929 . S
H120 C109 0.930 . S
H121 C119 0.929 . S
H122 C137 0.930 . S
H123 C144 0.929 . S
H124 C118 0.930 . S
H125 C117 0.931 . S
H126 C140 0.930 . S
H127 C107 0.930 . S
H128 C113 0.929 . S
H129 C114 0.930 . S
H130 C135 0.930 . S
H131 C110 0.930 . S
H132 C143 0.931 . S
N133 Tb104 2.617 . S
N133 C134 1.379 . S
N133 C137 1.334 . S
C134 N133 1.379 . S
C134 C136 1.416 . S
C134 C142 1.424 . S
C135 H130 0.930 . S
C135 C137 1.390 . S
C135 C138 1.339 . S
C136 C134 1.416 . S
C136 C138 1.416 . S
C136 C169 1.448 . S
C137 H122 0.930 . S
C137 N133 1.334 . S
C137 C135 1.390 . S
C138 C135 1.339 . S
C138 C136 1.416 . S
C138 H145 0.930 . S
N139 Tb104 2.572 . S
N139 C140 1.340 . S
N139 C142 1.361 . S
C140 H126 0.930 . S
C140 N139 1.340 . S
C140 C144 1.407 . S
C141 C142 1.413 . S
C141 C143 1.416 . S
C141 C170 1.427 . S
C142 C134 1.424 . S
C142 N139 1.361 . S
C142 C141 1.413 . S
C143 H132 0.931 . S
C143 C141 1.416 . S
C143 C144 1.332 . S
C144 H123 0.929 . S
C144 C140 1.407 . S
C144 C143 1.332 . S
H145 C138 0.930 . S
H146 C169 0.930 . S
H147 C170 0.929 . S
O148 Tb104 2.465 . S
O148 C168 1.264 . S
O149 Tb104 2.387 . S
O149 C160 1.264 . S
O150 Tb115 2.349 1_455 S
O150 C160 1.243 . S
O151 Tb104 2.428 . S
O151 C168 1.256 . S
O152 Tb104 2.308 1_655 S
O152 C167 1.266 . S
O153 Tb115 2.393 . S
O153 C167 1.248 . S
O154 Tb115 2.465 . S
O154 C179 1.264 . S
O155 Tb115 2.387 . S
O155 C171 1.264 . S
O156 Tb104 2.349 1_655 S
O156 C171 1.243 . S
O157 Tb115 2.428 . S
O157 C179 1.256 . S
O158 Tb115 2.308 1_455 S
O158 C178 1.266 . S
O159 Tb104 2.393 . S
O159 C178 1.248 . S
C160 O149 1.264 . S
C160 O150 1.243 . S
C161 C164 1.399 . S
C161 C166 1.383 . S
C161 C168 1.496 . S
C162 C163 1.399 . S
C162 C166 1.389 . S
C163 C162 1.399 . S
C163 C165 1.380 . S
C163 H180 0.929 . S
C164 C161 1.399 . S
C164 C165 1.392 . S
C164 H181 0.929 . S
C165 C163 1.380 . S
C165 C164 1.392 . S
C165 H182 0.929 1_545 S
C166 C161 1.383 . S
C166 C162 1.389 . S
C166 H183 0.931 . S
C167 O152 1.266 . S
C167 O153 1.248 . S
C168 Tb104 2.802 . S
C168 O148 1.264 . S
C168 O151 1.256 . S
C168 C161 1.496 . S
C169 C136 1.448 . S
C169 H146 0.930 . S
C169 C170 1.328 . S
C170 C141 1.427 . S
C170 H147 0.929 . S
C170 C169 1.328 . S
C171 O155 1.264 . S
C171 O156 1.243 . S
C172 C175 1.399 . S
C172 C176 1.383 . S
C172 C179 1.496 . S
C173 C174 1.399 . S
C173 C176 1.389 . S
C174 C173 1.399 . S
C174 C177 1.380 . S
C174 H184 0.929 . S
C175 C172 1.399 . S
C175 C177 1.392 . S
C175 H185 0.929 . S
C176 C172 1.383 . S
C176 C173 1.389 . S
C176 H186 0.931 . S
C177 C174 1.380 . S
C177 C175 1.392 . S
C177 H187 0.929 . S
C178 O158 1.266 . S
C178 O159 1.248 . S
C179 Tb115 2.802 . S
C179 O154 1.264 . S
C179 O157 1.256 . S
C179 C172 1.496 . S
H180 C163 0.929 . S
H181 C164 0.929 . S
H182 C165 0.929 1_565 S
H183 C166 0.931 . S
H184 C174 0.929 . S
H185 C175 0.929 . S
H186 C176 0.931 . S
H187 C177 0.929 . S
Tb188 N217 2.617 . S
Tb188 N223 2.572 . S
Tb188 O232 2.465 . S
Tb188 O233 2.387 . S
Tb188 O235 2.428 . S
Tb188 O236 2.308 . S
Tb188 O240 2.349 . S
Tb188 O243 2.393 . S
Tb188 C252 2.802 . S
C189 N190 1.379 . S
C189 C192 1.416 . S
C189 C196 1.424 . S
N190 C189 1.379 . S
N190 C193 1.334 . S
N190 Tb199 2.617 . S
C191 C193 1.390 . S
C191 C194 1.339 . S
C191 H211 0.930 . S
C192 C189 1.416 . S
C192 C194 1.416 . S
C192 C198 1.448 . S
C193 N190 1.334 . S
C193 C191 1.390 . S
C193 H204 0.930 . S
C194 C191 1.339 . S
C194 C192 1.416 . S
C194 H215 0.930 . S
C195 C196 1.413 . S
C195 C197 1.427 . S
C195 C201 1.416 . S
C196 C189 1.424 . S
C196 C195 1.413 . S
C196 N200 1.361 . S
C197 C195 1.427 . S
C197 C198 1.328 . S
C197 H212 0.929 . S
C198 C192 1.448 . S
C198 C197 1.328 . S
C198 H213 0.930 . S
Tb199 N190 2.617 . S
Tb199 N200 2.572 . S
Tb199 O234 2.349 . S
Tb199 O237 2.393 . S
Tb199 O238 2.465 . S
Tb199 O239 2.387 . S
Tb199 O241 2.428 . S
Tb199 O242 2.308 . S
Tb199 C263 2.802 . S
N200 C196 1.361 . S
N200 Tb199 2.572 . S
N200 C202 1.340 . S
C201 C195 1.416 . S
C201 C203 1.332 . S
C201 H209 0.931 . S
C202 N200 1.340 . S
C202 C203 1.407 . S
C202 H208 0.930 . S
C203 C201 1.332 . S
C203 C202 1.407 . S
C203 H205 0.929 . S
H204 C193 0.930 . S
H205 C203 0.929 . S
H206 C221 0.930 . S
H207 C228 0.929 . S
H208 C202 0.930 . S
H209 C201 0.931 . S
H210 C224 0.930 . S
H211 C191 0.930 . S
H212 C197 0.929 . S
H213 C198 0.930 . S
H214 C219 0.930 . S
H215 C194 0.930 . S
H216 C227 0.931 . S
N217 Tb188 2.617 . S
N217 C218 1.379 . S
N217 C221 1.334 . S
C218 N217 1.379 . S
C218 C220 1.416 . S
C218 C226 1.424 . S
C219 H214 0.930 . S
C219 C221 1.390 . S
C219 C222 1.339 . S
C220 C218 1.416 . S
C220 C222 1.416 . S
C220 C253 1.448 . S
C221 H206 0.930 . S
C221 N217 1.334 . S
C221 C219 1.390 . S
C222 C219 1.339 . S
C222 C220 1.416 . S
C222 H229 0.930 . S
N223 Tb188 2.572 . S
N223 C224 1.340 . S
N223 C226 1.361 . S
C224 H210 0.930 . S
C224 N223 1.340 . S
C224 C228 1.407 . S
C225 C226 1.413 . S
C225 C227 1.416 . S
C225 C254 1.427 . S
C226 C218 1.424 . S
C226 N223 1.361 . S
C226 C225 1.413 . S
C227 H216 0.931 . S
C227 C225 1.416 . S
C227 C228 1.332 . S
C228 H207 0.929 . S
C228 C224 1.407 . S
C228 C227 1.332 . S
H229 C222 0.930 . S
H230 C253 0.930 . S
H231 C254 0.929 . S
O232 Tb188 2.465 . S
O232 C252 1.264 . S
O233 Tb188 2.387 . S
O233 C244 1.264 . S
O234 Tb199 2.349 . S
O234 C244 1.243 . S
O235 Tb188 2.428 . S
O235 C252 1.256 . S
O236 Tb188 2.308 . S
O236 C251 1.266 . S
O237 Tb199 2.393 . S
O237 C251 1.248 . S
O238 Tb199 2.465 . S
O238 C263 1.264 . S
O239 Tb199 2.387 . S
O239 C255 1.264 . S
O240 Tb188 2.349 . S
O240 C255 1.243 . S
O241 Tb199 2.428 . S
O241 C263 1.256 . S
O242 Tb199 2.308 . S
O242 C262 1.266 . S
O243 Tb188 2.393 . S
O243 C262 1.248 . S
C244 O233 1.264 . S
C244 O234 1.243 . S
C245 C248 1.399 . S
C245 C250 1.383 . S
C245 C252 1.496 . S
C246 C247 1.399 . S
C246 C250 1.389 . S
C247 C246 1.399 . S
C247 C249 1.380 . S
C247 H264 0.929 . S
C248 C245 1.399 . S
C248 C249 1.392 . S
C248 H265 0.929 . S
C249 C247 1.380 . S
C249 C248 1.392 . S
C249 H266 0.929 . S
C250 C245 1.383 . S
C250 C246 1.389 . S
C250 H267 0.931 . S
C251 O236 1.266 . S
C251 O237 1.248 . S
C252 Tb188 2.802 . S
C252 O232 1.264 . S
C252 O235 1.256 . S
C252 C245 1.496 . S
C253 C220 1.448 . S
C253 H230 0.930 . S
C253 C254 1.328 . S
C254 C225 1.427 . S
C254 H231 0.929 . S
C254 C253 1.328 . S
C255 O239 1.264 . S
C255 O240 1.243 . S
C256 C259 1.399 . S
C256 C260 1.383 . S
C256 C263 1.496 . S
C257 C258 1.399 . S
C257 C260 1.389 . S
C258 C257 1.399 . S
C258 C261 1.380 . S
C258 H268 0.929 . S
C259 C256 1.399 . S
C259 C261 1.392 . S
C259 H269 0.929 . S
C260 C256 1.383 . S
C260 C257 1.389 . S
C260 H270 0.931 . S
C261 C258 1.380 . S
C261 C259 1.392 . S
C261 H271 0.929 . S
C262 O242 1.266 . S
C262 O243 1.248 . S
C263 Tb199 2.802 . S
C263 O238 1.264 . S
C263 O241 1.256 . S
C263 C256 1.496 . S
H264 C247 0.929 . S
H265 C248 0.929 . S
H266 C249 0.929 . S
H267 C250 0.931 . S
H268 C258 0.929 . S
H269 C259 0.929 . S
H270 C260 0.931 . S
H271 C261 0.929 . S
Tb272 N301 2.617 . S
Tb272 N307 2.572 . S
Tb272 O316 2.465 . S
Tb272 O317 2.387 . S
Tb272 O319 2.428 . S
Tb272 O320 2.296 1_455 S
Tb272 O324 2.350 1_455 S
Tb272 O327 2.393 . S
Tb272 C336 2.802 . S
C273 N274 1.379 . S
C273 C276 1.416 . S
C273 C280 1.424 . S
N274 C273 1.379 . S
N274 C277 1.334 . S
N274 Tb283 2.617 . S
C275 C277 1.390 . S
C275 C278 1.339 . S
C275 H295 0.930 . S
C276 C273 1.416 . S
C276 C278 1.416 . S
C276 C282 1.448 . S
C277 N274 1.334 . S
C277 C275 1.390 . S
C277 H288 0.930 . S
C278 C275 1.339 . S
C278 C276 1.416 . S
C278 H299 0.930 . S
C279 C280 1.413 . S
C279 C281 1.427 . S
C279 C285 1.416 . S
C280 C273 1.424 . S
C280 C279 1.413 . S
C280 N284 1.361 . S
C281 C279 1.427 . S
C281 C282 1.328 . S
C281 H296 0.929 . S
C282 C276 1.448 . S
C282 C281 1.328 . S
C282 H297 0.930 . S
Tb283 N274 2.617 . S
Tb283 N284 2.572 . S
Tb283 O318 2.349 1_655 S
Tb283 O321 2.393 . S
Tb283 O322 2.465 . S
Tb283 O323 2.387 . S
Tb283 O325 2.428 . S
Tb283 O326 2.308 1_655 S
Tb283 C347 2.802 . S
N284 C280 1.361 . S
N284 Tb283 2.572 . S
N284 C286 1.340 . S
C285 C279 1.416 . S
C285 C287 1.332 . S
C285 H293 0.931 . S
C286 N284 1.340 . S
C286 C287 1.407 . S
C286 H292 0.930 . S
C287 C285 1.332 . S
C287 C286 1.407 . S
C287 H289 0.929 . S
H288 C277 0.930 . S
H289 C287 0.929 . S
H290 C305 0.930 . S
H291 C312 0.929 . S
H292 C286 0.930 . S
H293 C285 0.931 . S
H294 C308 0.930 . S
H295 C275 0.930 . S
H296 C281 0.929 . S
H297 C282 0.930 . S
H298 C303 0.930 . S
H299 C278 0.930 . S
H300 C311 0.931 . S
N301 Tb272 2.617 . S
N301 C302 1.379 . S
N301 C305 1.334 . S
C302 N301 1.379 . S
C302 C304 1.416 . S
C302 C310 1.424 . S
C303 H298 0.930 . S
C303 C305 1.390 . S
C303 C306 1.339 . S
C304 C302 1.416 . S
C304 C306 1.416 . S
C304 C337 1.448 . S
C305 H290 0.930 . S
C305 N301 1.334 . S
C305 C303 1.390 . S
C306 C303 1.339 . S
C306 C304 1.416 . S
C306 H313 0.930 . S
N307 Tb272 2.572 . S
N307 C308 1.340 1_565 S
N307 C310 1.361 . S
C308 H294 0.930 . S
C308 N307 1.340 1_545 S
C308 C312 1.407 . S
C309 C310 1.413 1_545 S
C309 C311 1.416 . S
C309 C338 1.427 . S
C310 C302 1.424 . S
C310 N307 1.361 . S
C310 C309 1.413 1_565 S
C311 H300 0.931 . S
C311 C309 1.416 . S
C311 C312 1.332 . S
C312 H291 0.929 . S
C312 C308 1.407 . S
C312 C311 1.332 . S
H313 C306 0.930 . S
H314 C337 0.930 . S
H315 C338 0.929 . S
O316 Tb272 2.465 . S
O316 C336 1.264 . S
O317 Tb272 2.387 . S
O317 C328 1.264 . S
O318 Tb283 2.349 1_455 S
O318 C328 1.243 . S
O319 Tb272 2.428 . S
O319 C336 1.256 . S
O320 Tb272 2.296 1_655 S
O320 C335 1.281 . S
O321 Tb283 2.393 . S
O321 C335 1.248 . S
O322 Tb283 2.465 . S
O322 C347 1.264 . S
O323 Tb283 2.387 . S
O323 C339 1.264 . S
O324 Tb272 2.350 1_655 S
O324 C339 1.243 . S
O325 Tb283 2.428 . S
O325 C347 1.256 . S
O326 Tb283 2.308 1_455 S
O326 C346 1.266 . S
O327 Tb272 2.393 . S
O327 C346 1.248 . S
C328 O317 1.264 . S
C328 O318 1.243 . S
C329 C332 1.399 . S
C329 C334 1.383 . S
C329 C336 1.496 . S
C330 C331 1.399 . S
C330 C334 1.389 . S
C331 C330 1.399 . S
C331 C333 1.380 . S
C331 H348 0.929 . S
C332 C329 1.399 . S
C332 C333 1.392 . S
C332 H349 0.929 . S
C333 C331 1.380 . S
C333 C332 1.392 . S
C333 H350 0.929 . S
C334 C329 1.383 . S
C334 C330 1.389 . S
C334 H351 0.931 . S
C335 O320 1.281 . S
C335 O321 1.248 . S
C336 Tb272 2.802 . S
C336 O316 1.264 . S
C336 O319 1.256 . S
C336 C329 1.496 . S
C337 C304 1.448 . S
C337 H314 0.930 . S
C337 C338 1.328 1_565 S
C338 C309 1.427 . S
C338 H315 0.929 . S
C338 C337 1.328 1_545 S
C339 O323 1.264 . S
C339 O324 1.243 . S
C340 C343 1.399 . S
C340 C344 1.383 . S
C340 C347 1.496 . S
C341 C342 1.399 . S
C341 C344 1.389 . S
C342 C341 1.399 . S
C342 C345 1.380 . S
C342 H352 0.929 . S
C343 C340 1.399 . S
C343 C345 1.392 . S
C343 H353 0.929 . S
C344 C340 1.383 . S
C344 C341 1.389 . S
C344 H354 0.931 . S
C345 C342 1.380 . S
C345 C343 1.392 . S
C345 H355 0.929 1_565 S
C346 O326 1.266 . S
C346 O327 1.248 . S
C347 Tb283 2.802 . S
C347 O322 1.264 . S
C347 O325 1.256 . S
C347 C340 1.496 . S
H348 C331 0.929 . S
H349 C332 0.929 . S
H350 C333 0.929 . S
H351 C334 0.931 . S
H352 C342 0.929 . S
H353 C343 0.929 . S
H354 C344 0.931 . S
H355 C345 0.929 1_545 S
Tb356 N385 2.617 . S
Tb356 N391 2.572 . S
Tb356 O400 2.465 . S
Tb356 O401 2.387 . S
Tb356 O403 2.428 . S
Tb356 O404 2.308 . S
Tb356 O408 2.349 . S
Tb356 O411 2.393 . S
Tb356 C420 2.802 . S
C357 N358 1.379 . S
C357 C360 1.416 . S
C357 C364 1.424 . S
N358 C357 1.379 . S
N358 C361 1.334 . S
N358 Tb367 2.617 . S
C359 C361 1.390 . S
C359 C362 1.339 . S
C359 H379 0.930 . S
C360 C357 1.416 . S
C360 C362 1.416 . S
C360 C366 1.448 . S
C361 N358 1.334 . S
C361 C359 1.390 . S
C361 H372 0.930 . S
C362 C359 1.339 . S
C362 C360 1.416 . S
C362 H383 0.930 . S
C363 C364 1.413 . S
C363 C365 1.427 . S
C363 C369 1.416 . S
C364 C357 1.424 . S
C364 C363 1.413 . S
C364 N368 1.361 . S
C365 C363 1.427 . S
C365 C366 1.328 . S
C365 H380 0.929 . S
C366 C360 1.448 . S
C366 C365 1.328 . S
C366 H381 0.930 . S
Tb367 N358 2.617 . S
Tb367 N368 2.572 . S
Tb367 O402 2.349 . S
Tb367 O405 2.393 . S
Tb367 O406 2.465 . S
Tb367 O407 2.387 . S
Tb367 O409 2.428 . S
Tb367 O410 2.308 . S
Tb367 C431 2.802 . S
N368 C364 1.361 . S
N368 Tb367 2.572 . S
N368 C370 1.340 . S
C369 C363 1.416 . S
C369 C371 1.332 . S
C369 H377 0.931 . S
C370 N368 1.340 . S
C370 C371 1.407 . S
C370 H376 0.930 . S
C371 C369 1.332 . S
C371 C370 1.407 . S
C371 H373 0.929 . S
H372 C361 0.930 . S
H373 C371 0.929 . S
H374 C389 0.930 . S
H375 C396 0.929 . S
H376 C370 0.930 . S
H377 C369 0.931 . S
H378 C392 0.930 . S
H379 C359 0.930 . S
H380 C365 0.929 . S
H381 C366 0.930 . S
H382 C387 0.930 . S
H383 C362 0.930 . S
H384 C395 0.931 . S
N385 Tb356 2.617 . S
N385 C386 1.379 . S
N385 C389 1.334 . S
C386 N385 1.379 . S
C386 C388 1.416 . S
C386 C394 1.424 . S
C387 H382 0.930 . S
C387 C389 1.390 . S
C387 C390 1.339 . S
C388 C386 1.416 . S
C388 C390 1.416 . S
C388 C421 1.448 . S
C389 H374 0.930 . S
C389 N385 1.334 . S
C389 C387 1.390 . S
C390 C387 1.339 . S
C390 C388 1.416 . S
C390 H397 0.930 . S
N391 Tb356 2.572 . S
N391 C392 1.340 . S
N391 C394 1.361 . S
C392 H378 0.930 . S
C392 N391 1.340 . S
C392 C396 1.407 . S
C393 C394 1.413 . S
C393 C395 1.416 . S
C393 C422 1.427 . S
C394 C386 1.424 . S
C394 N391 1.361 . S
C394 C393 1.413 . S
C395 H384 0.931 . S
C395 C393 1.416 . S
C395 C396 1.332 . S
C396 H375 0.929 . S
C396 C392 1.407 . S
C396 C395 1.332 . S
H397 C390 0.930 . S
H398 C421 0.930 . S
H399 C422 0.929 . S
O400 Tb356 2.465 . S
O400 C420 1.264 . S
O401 Tb356 2.387 . S
O401 C412 1.264 . S
O402 Tb367 2.349 . S
O402 C412 1.243 . S
O403 Tb356 2.428 . S
O403 C420 1.256 . S
O404 Tb356 2.308 . S
O404 C419 1.266 . S
O405 Tb367 2.393 . S
O405 C419 1.248 . S
O406 Tb367 2.465 . S
O406 C431 1.264 . S
O407 Tb367 2.387 . S
O407 C423 1.264 . S
O408 Tb356 2.349 . S
O408 C423 1.243 . S
O409 Tb367 2.428 . S
O409 C431 1.256 . S
O410 Tb367 2.308 . S
O410 C430 1.266 . S
O411 Tb356 2.393 . S
O411 C430 1.248 . S
C412 O401 1.264 . S
C412 O402 1.243 . S
C413 C416 1.399 . S
C413 C418 1.383 . S
C413 C420 1.496 . S
C414 C415 1.399 . S
C414 C418 1.389 . S
C415 C414 1.399 . S
C415 C417 1.380 . S
C415 H432 0.929 . S
C416 C413 1.399 . S
C416 C417 1.392 . S
C416 H433 0.929 . S
C417 C415 1.380 . S
C417 C416 1.392 . S
C417 H434 0.929 . S
C418 C413 1.383 . S
C418 C414 1.389 . S
C418 H435 0.931 . S
C419 O404 1.266 . S
C419 O405 1.248 . S
C420 Tb356 2.802 . S
C420 O400 1.264 . S
C420 O403 1.256 . S
C420 C413 1.496 . S
C421 C388 1.448 . S
C421 H398 0.930 . S
C421 C422 1.328 . S
C422 C393 1.427 . S
C422 H399 0.929 . S
C422 C421 1.328 . S
C423 O407 1.264 . S
C423 O408 1.243 . S
C424 C427 1.399 . S
C424 C428 1.383 . S
C424 C431 1.496 . S
C425 C426 1.399 . S
C425 C428 1.389 . S
C426 C425 1.399 . S
C426 C429 1.380 . S
C426 H436 0.929 . S
C427 C424 1.399 . S
C427 C429 1.392 . S
C427 H437 0.929 . S
C428 C424 1.383 . S
C428 C425 1.389 . S
C428 H438 0.931 . S
C429 C426 1.380 . S
C429 C427 1.392 . S
C429 H439 0.929 . S
C430 O410 1.266 . S
C430 O411 1.248 . S
C431 Tb367 2.802 . S
C431 O406 1.264 . S
C431 O409 1.256 . S
C431 C424 1.496 . S
H432 C415 0.929 . S
H433 C416 0.929 . S
H434 C417 0.929 . S
H435 C418 0.931 . S
H436 C426 0.929 . S
H437 C427 0.929 . S
H438 C428 0.931 . S
H439 C429 0.929 . S
C440 C441 1.363 . S
C440 C446 1.379 . S
C440 N448 1.356 . S
C441 C440 1.363 . S
C441 C447 1.363 . S
C442 C443 1.363 . S
C442 C447 1.379 . S
C442 N449 1.356 1_565 S
C443 C442 1.363 . S
C443 C446 1.363 . S
N444 C446 1.356 . S
N444 H456 0.984 . S
N444 H457 0.986 . S
N445 C447 1.356 . S
N445 H450 0.984 . S
N445 H451 0.985 . S
C446 C440 1.379 . S
C446 C443 1.363 . S
C446 N444 1.356 . S
C447 C441 1.363 . S
C447 C442 1.379 . S
C447 N445 1.356 . S
N448 C440 1.356 . S
N448 H454 0.984 . S
N448 H455 0.984 . S
N449 C442 1.356 1_545 S
N449 H452 0.984 . S
N449 H453 0.985 . S
H450 N445 0.984 . S
H451 N445 0.985 . S
H452 N449 0.984 . S
H453 N449 0.985 . S
H454 N448 0.984 . S
H455 N448 0.984 . S
H456 N444 0.984 . S
H457 N444 0.986 . S
C458 C459 1.363 . S
C458 C464 1.379 . S
C458 N466 1.356 . S
C459 C458 1.363 . S
C459 C465 1.363 . S
C460 C461 1.363 . S
C460 C465 1.379 . S
C460 N467 1.356 . S
C461 C460 1.363 . S
C461 C464 1.363 . S
N462 C464 1.356 . S
N462 H474 0.984 . S
N462 H475 0.985 . S
N463 C465 1.356 . S
N463 H468 0.984 . S
N463 H469 0.985 . S
C464 C458 1.379 . S
C464 C461 1.363 . S
C464 N462 1.356 . S
C465 C459 1.363 . S
C465 C460 1.379 . S
C465 N463 1.356 . S
N466 C458 1.356 . S
N466 H472 0.984 . S
N466 H473 0.984 . S
N467 C460 1.356 . S
N467 H470 0.984 . S
N467 H471 0.985 . S
H468 N463 0.984 . S
H469 N463 0.985 . S
H470 N467 0.984 . S
H471 N467 0.985 . S
H472 N466 0.984 . S
H473 N466 0.984 . S
H474 N462 0.984 . S
H475 N462 0.985 . S
C476 C477 1.363 . S
C476 C482 1.379 . S
C476 N484 1.356 . S
C477 C476 1.363 . S
C477 C483 1.363 . S
C478 C479 1.363 . S
C478 C483 1.379 . S
C478 N485 1.356 . S
C479 C478 1.363 . S
C479 C482 1.363 . S
N480 C482 1.356 . S
N480 H492 0.984 . S
N480 H493 0.985 . S
N481 C483 1.356 . S
N481 H486 0.984 . S
N481 H487 0.985 . S
C482 C476 1.379 . S
C482 C479 1.363 . S
C482 N480 1.356 . S
C483 C477 1.363 . S
C483 C478 1.379 . S
C483 N481 1.356 . S
N484 C476 1.356 . S
N484 H490 0.984 . S
N484 H491 0.984 . S
N485 C478 1.356 . S
N485 H488 0.984 . S
N485 H489 0.985 . S
H486 N481 0.984 . S
H487 N481 0.985 . S
H488 N485 0.984 . S
H489 N485 0.985 . S
H490 N484 0.984 . S
H491 N484 0.984 . S
H492 N480 0.984 . S
H493 N480 0.985 . S
C494 C495 1.363 . S
C494 C500 1.379 . S
C494 N502 1.356 . S
C495 C494 1.363 . S
C495 C501 1.363 . S
C496 C497 1.363 . S
C496 C501 1.379 . S
C496 N503 1.356 . S
C497 C496 1.363 . S
C497 C500 1.363 . S
N498 C500 1.356 1_545 S
N498 H510 0.984 . S
N498 H511 0.985 . S
N499 C501 1.356 . S
N499 H504 0.984 . S
N499 H505 0.985 . S
C500 C494 1.379 . S
C500 C497 1.363 . S
C500 N498 1.356 1_565 S
C501 C495 1.363 . S
C501 C496 1.379 . S
C501 N499 1.356 . S
N502 C494 1.356 . S
N502 H508 0.984 . S
N502 H509 0.984 . S
N503 C496 1.356 . S
N503 H506 0.984 . S
N503 H507 0.985 . S
H504 N499 0.984 . S
H505 N499 0.985 . S
H506 N503 0.984 . S
H507 N503 0.985 . S
H508 N502 0.984 . S
H509 N502 0.984 . S
H510 N498 0.984 . S
H511 N498 0.985 . S
C512 C513 1.363 . S
C512 C518 1.379 . S
C512 N520 1.356 . S
C513 C512 1.363 . S
C513 C519 1.363 . S
C514 C515 1.363 . S
C514 C519 1.379 . S
C514 N521 1.356 1_545 S
C515 C514 1.363 . S
C515 C518 1.363 . S
N516 C518 1.356 . S
N516 H528 0.984 . S
N516 H529 0.985 . S
N517 C519 1.356 . S
N517 H522 0.984 . S
N517 H523 0.985 . S
C518 C512 1.379 . S
C518 C515 1.363 . S
C518 N516 1.356 . S
C519 C513 1.363 . S
C519 C514 1.379 . S
C519 N517 1.356 . S
N520 C512 1.356 . S
N520 H526 0.984 . S
N520 H527 0.984 . S
N521 C514 1.356 1_565 S
N521 H524 0.984 . S
N521 H525 0.985 . S
H522 N517 0.984 . S
H523 N517 0.985 . S
H524 N521 0.984 . S
H525 N521 0.985 . S
H526 N520 0.984 . S
H527 N520 0.984 . S
H528 N516 0.984 . S
H529 N516 0.985 . S
C530 C531 1.363 . S
C530 C536 1.379 . S
C530 N538 1.356 . S
C531 C530 1.363 . S
C531 C537 1.363 . S
C532 C533 1.363 . S
C532 C537 1.379 . S
C532 N539 1.356 . S
C533 C532 1.363 . S
C533 C536 1.363 . S
N534 C536 1.356 . S
N534 H546 0.984 . S
N534 H547 0.985 . S
N535 C537 1.356 . S
N535 H540 0.984 . S
N535 H541 0.985 . S
C536 C530 1.379 . S
C536 C533 1.363 . S
C536 N534 1.356 . S
C537 C531 1.363 . S
C537 C532 1.379 . S
C537 N535 1.356 . S
N538 C530 1.356 . S
N538 H544 0.984 . S
N538 H545 0.984 . S
N539 C532 1.356 . S
N539 H542 0.984 . S
N539 H543 0.985 . S
H540 N535 0.984 . S
H541 N535 0.985 . S
H542 N539 0.984 . S
H543 N539 0.985 . S
H544 N538 0.984 . S
H545 N538 0.984 . S
H546 N534 0.984 . S
H547 N534 0.985 . S
C548 C549 1.363 . S
C548 C554 1.379 . S
C548 N556 1.356 . S
C549 C548 1.363 . S
C549 C555 1.363 . S
C550 C551 1.363 . S
C550 C555 1.379 . S
C550 N557 1.356 . S
C551 C550 1.363 . S
C551 C554 1.363 . S
N552 C554 1.356 . S
N552 H564 0.984 . S
N552 H565 0.985 . S
N553 C555 1.356 . S
N553 H558 0.984 . S
N553 H559 0.985 . S
C554 C548 1.379 . S
C554 C551 1.363 . S
C554 N552 1.356 . S
C555 C549 1.363 . S
C555 C550 1.379 . S
C555 N553 1.356 . S
N556 C548 1.356 . S
N556 H562 0.984 . S
N556 H563 0.984 . S
N557 C550 1.356 . S
N557 H560 0.984 . S
N557 H561 0.985 . S
H558 N553 0.984 . S
H559 N553 0.985 . S
H560 N557 0.984 . S
H561 N557 0.985 . S
H562 N556 0.984 . S
H563 N556 0.984 . S
H564 N552 0.984 . S
H565 N552 0.985 . S
C566 C567 1.363 . S
C566 C572 1.379 . S
C566 N574 1.356 . S
C567 C566 1.363 . S
C567 C573 1.363 . S
C568 C569 1.363 1_565 S
C568 C573 1.379 1_565 S
C568 N575 1.356 . S
C569 C568 1.363 1_545 S
C569 C572 1.363 . S
N570 C572 1.356 . S
N570 H582 0.984 . S
N570 H583 0.985 . S
N571 C573 1.356 . S
N571 H576 0.984 . S
N571 H577 0.985 1_545 S
C572 C566 1.379 . S
C572 C569 1.363 . S
C572 N570 1.356 . S
C573 C567 1.363 . S
C573 C568 1.379 1_545 S
C573 N571 1.356 . S
N574 C566 1.356 . S
N574 H580 0.984 . S
N574 H581 0.984 . S
N575 C568 1.356 . S
N575 H578 0.984 . S
N575 H579 0.985 . S
H576 N571 0.984 . S
H577 N571 0.985 1_565 S
H578 N575 0.984 . S
H579 N575 0.985 . S
H580 N574 0.984 . S
H581 N574 0.984 . S
H582 N570 0.984 . S
H583 N570 0.985 . S
C584 C585 1.363 . S
C584 C590 1.379 . S
C584 N592 1.356 . S
C585 C584 1.363 . S
C585 C591 1.363 . S
C586 C587 1.363 . S
C586 C591 1.379 1_554 S
C586 N593 1.356 . S
C587 C586 1.363 . S
C587 C590 1.363 1_554 S
N588 C590 1.356 . S
N588 H600 0.984 . S
N588 H601 0.985 1_556 S
N589 C591 1.356 . S
N589 H594 0.984 . S
N589 H595 0.985 . S
C590 C584 1.379 . S
C590 C587 1.363 1_556 S
C590 N588 1.356 . S
C591 C585 1.363 . S
C591 C586 1.379 1_556 S
C591 N589 1.356 . S
N592 C584 1.356 . S
N592 H598 0.984 . S
N592 H599 0.984 . S
N593 C586 1.356 . S
N593 H596 0.984 . S
N593 H597 0.985 . S
H594 N589 0.984 . S
H595 N589 0.985 . S
H596 N593 0.984 . S
H597 N593 0.985 . S
H598 N592 0.984 . S
H599 N592 0.984 . S
H600 N588 0.984 . S
H601 N588 0.985 1_554 S
C602 C603 1.363 . S
C602 C608 1.379 . S
C602 N610 1.356 . S
C603 C602 1.363 . S
C603 C609 1.363 . S
C604 C605 1.363 . S
C604 C609 1.379 . S
C604 N611 1.356 . S
C605 C604 1.363 . S
C605 C608 1.363 . S
N606 C608 1.356 . S
N606 H618 0.984 . S
N606 H619 0.985 . S
N607 C609 1.356 . S
N607 H612 0.984 . S
N607 H613 0.985 . S
C608 C602 1.379 . S
C608 C605 1.363 . S
C608 N606 1.356 . S
C609 C603 1.363 . S
C609 C604 1.379 . S
C609 N607 1.356 . S
N610 C602 1.356 . S
N610 H616 0.984 . S
N610 H617 0.984 . S
N611 C604 1.356 . S
N611 H614 0.984 . S
N611 H615 0.985 . S
H612 N607 0.984 . S
H613 N607 0.985 . S
H614 N611 0.984 . S
H615 N611 0.985 . S
H616 N610 0.984 . S
H617 N610 0.984 . S
H618 N606 0.984 . S
H619 N606 0.985 . S
C620 C621 1.363 . S
C620 C626 1.379 . S
C620 N628 1.356 . S
C621 C620 1.363 . S
C621 C627 1.363 . S
C622 C623 1.363 . S
C622 C627 1.379 1_556 S
C622 N629 1.356 . S
C623 C622 1.363 . S
C623 C626 1.363 1_556 S
N624 C626 1.356 . S
N624 H636 0.984 . S
N624 H637 0.985 1_554 S
N625 C627 1.356 . S
N625 H630 0.984 . S
N625 H631 0.985 . S
C626 C620 1.379 . S
C626 C623 1.363 1_554 S
C626 N624 1.356 . S
C627 C621 1.363 . S
C627 C622 1.379 1_554 S
C627 N625 1.356 . S
N628 C620 1.356 . S
N628 H634 0.984 . S
N628 H635 0.984 . S
N629 C622 1.356 . S
N629 H632 0.984 . S
N629 H633 0.985 . S
H630 N625 0.984 . S
H631 N625 0.985 . S
H632 N629 0.984 . S
H633 N629 0.985 . S
H634 N628 0.984 . S
H635 N628 0.984 . S
H636 N624 0.984 . S
H637 N624 0.985 1_556 S
C638 C639 1.363 . S
C638 C644 1.379 . S
C638 N646 1.356 . S
C639 C638 1.363 . S
C639 C645 1.363 . S
C640 C641 1.363 . S
C640 C645 1.379 . S
C640 N647 1.356 . S
C641 C640 1.363 . S
C641 C644 1.363 . S
N642 C644 1.356 . S
N642 H654 0.984 . S
N642 H655 0.985 . S
N643 C645 1.356 . S
N643 H648 0.984 . S
N643 H649 0.985 . S
C644 C638 1.379 . S
C644 C641 1.363 . S
C644 N642 1.356 . S
C645 C639 1.363 . S
C645 C640 1.379 . S
C645 N643 1.356 . S
N646 C638 1.356 . S
N646 H652 0.984 . S
N646 H653 0.984 . S
N647 C640 1.356 . S
N647 H650 0.984 . S
N647 H651 0.985 . S
H648 N643 0.984 . S
H649 N643 0.985 . S
H650 N647 0.984 . S
H651 N647 0.985 . S
H652 N646 0.984 . S
H653 N646 0.984 . S
H654 N642 0.984 . S
H655 N642 0.985 . S
C656 C657 1.363 . S
C656 C662 1.379 . S
C656 N664 1.356 . S
C657 C656 1.363 . S
C657 C663 1.363 . S
C658 C659 1.363 1_554 S
C658 C663 1.379 . S
C658 N665 1.356 1_554 S
C659 C658 1.363 1_556 S
C659 C662 1.363 1_556 S
N660 C662 1.356 1_556 S
N660 H672 0.984 . S
N660 H673 0.985 . S
N661 C663 1.356 . S
N661 H666 0.984 . S
N661 H667 0.985 . S
C662 C656 1.379 . S
C662 C659 1.363 1_554 S
C662 N660 1.356 1_554 S
C663 C657 1.363 . S
C663 C658 1.379 . S
C663 N661 1.356 . S
N664 C656 1.356 . S
N664 H670 0.984 . S
N664 H671 0.984 . S
N665 C658 1.356 1_556 S
N665 H668 0.984 . S
N665 H669 0.985 . S
H666 N661 0.984 . S
H667 N661 0.985 . S
H668 N665 0.984 . S
H669 N665 0.985 . S
H670 N664 0.984 . S
H671 N664 0.984 . S
H672 N660 0.984 . S
H673 N660 0.985 . S
C674 C675 1.363 . S
C674 C680 1.379 . S
C674 N682 1.356 . S
C675 C674 1.363 . S
C675 C681 1.363 . S
C676 C677 1.363 . S
C676 C681 1.379 . S
C676 N683 1.356 . S
C677 C676 1.363 . S
C677 C680 1.363 . S
N678 C680 1.356 . S
N678 H690 0.984 . S
N678 H691 0.985 . S
N679 C681 1.356 . S
N679 H684 0.984 . S
N679 H685 0.985 . S
C680 C674 1.379 . S
C680 C677 1.363 . S
C680 N678 1.356 . S
C681 C675 1.363 . S
C681 C676 1.379 . S
C681 N679 1.356 . S
N682 C674 1.356 . S
N682 H688 0.984 . S
N682 H689 0.984 . S
N683 C676 1.356 . S
N683 H686 0.984 . S
N683 H687 0.985 . S
H684 N679 0.984 . S
H685 N679 0.985 . S
H686 N683 0.984 . S
H687 N683 0.985 . S
H688 N682 0.984 . S
H689 N682 0.984 . S
H690 N678 0.984 . S
H691 N678 0.985 . S
C692 C693 1.363 . S
C692 C698 1.379 . S
C692 N700 1.356 . S
C693 C692 1.363 . S
C693 C699 1.363 . S
C694 C695 1.363 1_556 S
C694 C699 1.379 . S
C694 N701 1.356 1_556 S
C695 C694 1.363 1_554 S
C695 C698 1.363 1_554 S
N696 C698 1.356 1_554 S
N696 H708 0.984 . S
N696 H709 0.985 . S
N697 C699 1.356 . S
N697 H702 0.984 . S
N697 H703 0.985 . S
C698 C692 1.379 . S
C698 C695 1.363 1_556 S
C698 N696 1.356 1_556 S
C699 C693 1.363 . S
C699 C694 1.379 . S
C699 N697 1.356 . S
N700 C692 1.356 . S
N700 H706 0.984 . S
N700 H707 0.984 . S
N701 C694 1.356 1_554 S
N701 H704 0.984 . S
N701 H705 0.985 . S
H702 N697 0.984 . S
H703 N697 0.985 . S
H704 N701 0.984 . S
H705 N701 0.985 . S
H706 N700 0.984 . S
H707 N700 0.984 . S
H708 N696 0.984 . S
H709 N696 0.985 . S
C710 C711 1.363 . S
C710 C716 1.379 . S
C710 N718 1.356 . S
C711 C710 1.363 . S
C711 C717 1.363 . S
C712 C713 1.363 . S
C712 C717 1.379 . S
C712 N719 1.356 . S
C713 C712 1.363 . S
C713 C716 1.363 . S
N714 C716 1.356 . S
N714 H726 0.984 . S
N714 H727 0.985 . S
N715 C717 1.356 . S
N715 H720 0.984 . S
N715 H721 0.985 . S
C716 C710 1.379 . S
C716 C713 1.363 . S
C716 N714 1.356 . S
C717 C711 1.363 . S
C717 C712 1.379 . S
C717 N715 1.356 . S
N718 C710 1.356 . S
N718 H724 0.984 . S
N718 H725 0.984 . S
N719 C712 1.356 . S
N719 H722 0.984 . S
N719 H723 0.985 . S
H720 N715 0.984 . S
H721 N715 0.985 . S
H722 N719 0.984 . S
H723 N719 0.985 . S
H724 N718 0.984 . S
H725 N718 0.984 . S
H726 N714 0.984 . S
H727 N714 0.985 . S
C728 C729 1.363 . S
C728 C734 1.379 . S
C728 N736 1.356 . S
C729 C728 1.363 . S
C729 C735 1.363 . S
C730 C731 1.363 . S
C730 C735 1.379 . S
C730 N737 1.356 . S
C731 C730 1.363 . S
C731 C734 1.363 . S
N732 C734 1.356 . S
N732 H744 0.984 . S
N732 H745 0.985 . S
N733 C735 1.356 . S
N733 H738 0.984 . S
N733 H739 0.985 . S
C734 C728 1.379 . S
C734 C731 1.363 . S
C734 N732 1.356 . S
C735 C729 1.363 . S
C735 C730 1.379 . S
C735 N733 1.356 . S
N736 C728 1.356 . S
N736 H742 0.984 . S
N736 H743 0.984 . S
N737 C730 1.356 . S
N737 H740 0.984 . S
N737 H741 0.985 . S
H738 N733 0.984 . S
H739 N733 0.985 . S
H740 N737 0.984 . S
H741 N737 0.985 . S
H742 N736 0.984 . S
H743 N736 0.984 . S
H744 N732 0.984 . S
H745 N732 0.985 . S
C746 C747 1.363 . S
C746 C752 1.379 . S
C746 N754 1.356 . S
C747 C746 1.363 . S
C747 C753 1.363 . S
C748 C749 1.363 . S
C748 C753 1.379 . S
C748 N755 1.356 . S
C749 C748 1.363 . S
C749 C752 1.363 . S
N750 C752 1.356 . S
N750 H762 0.984 . S
N750 H763 0.985 . S
N751 C753 1.356 . S
N751 H756 0.984 . S
N751 H757 0.985 . S
C752 C746 1.379 . S
C752 C749 1.363 . S
C752 N750 1.356 . S
C753 C747 1.363 . S
C753 C748 1.379 . S
C753 N751 1.356 . S
N754 C746 1.356 . S
N754 H760 0.984 . S
N754 H761 0.984 . S
N755 C748 1.356 . S
N755 H758 0.984 . S
N755 H759 0.985 . S
H756 N751 0.984 . S
H757 N751 0.985 . S
H758 N755 0.984 . S
H759 N755 0.985 . S
H760 N754 0.984 . S
H761 N754 0.984 . S
H762 N750 0.984 . S
H763 N750 0.985 . S
C764 C765 1.363 . S
C764 C770 1.379 . S
C764 N772 1.356 . S
C765 C764 1.363 . S
C765 C771 1.363 . S
C766 C767 1.363 . S
C766 C771 1.379 . S
C766 N773 1.356 . S
C767 C766 1.363 . S
C767 C770 1.363 . S
N768 C770 1.356 . S
N768 H780 0.984 . S
N768 H781 0.985 . S
N769 C771 1.356 . S
N769 H774 0.984 . S
N769 H775 0.985 . S
C770 C764 1.379 . S
C770 C767 1.363 . S
C770 N768 1.356 . S
C771 C765 1.363 . S
C771 C766 1.379 . S
C771 N769 1.356 . S
N772 C764 1.356 . S
N772 H778 0.984 . S
N772 H779 0.984 . S
N773 C766 1.356 . S
N773 H776 0.984 . S
N773 H777 0.985 . S
H774 N769 0.984 . S
H775 N769 0.985 . S
H776 N773 0.984 . S
H777 N773 0.985 . S
H778 N772 0.984 . S
H779 N772 0.984 . S
H780 N768 0.984 . S
H781 N768 0.985 . S
C782 C783 1.363 . S
C782 C788 1.379 . S
C782 N790 1.356 . S
C783 C782 1.363 . S
C783 C789 1.363 . S
C784 C785 1.363 . S
C784 C789 1.379 . S
C784 N791 1.356 . S
C785 C784 1.363 . S
C785 C788 1.363 . S
N786 C788 1.356 . S
N786 H798 0.984 . S
N786 H799 0.985 . S
N787 C789 1.356 . S
N787 H792 0.984 . S
N787 H793 0.985 . S
C788 C782 1.379 . S
C788 C785 1.363 . S
C788 N786 1.356 . S
C789 C783 1.363 . S
C789 C784 1.379 . S
C789 N787 1.356 . S
N790 C782 1.356 . S
N790 H796 0.984 . S
N790 H797 0.984 . S
N791 C784 1.356 . S
N791 H794 0.984 . S
N791 H795 0.985 . S
H792 N787 0.984 . S
H793 N787 0.985 . S
H794 N791 0.984 . S
H795 N791 0.985 . S
H796 N790 0.984 . S
H797 N790 0.984 . S
H798 N786 0.984 . S
H799 N786 0.985 . S
C800 C801 1.363 . S
C800 C806 1.379 . S
C800 N808 1.356 . S
C801 C800 1.363 . S
C801 C807 1.363 . S
C802 C803 1.363 . S
C802 C807 1.379 . S
C802 N809 1.356 . S
C803 C802 1.363 . S
C803 C806 1.363 . S
N804 C806 1.356 . S
N804 H816 0.978 1_655 S
N804 H817 0.985 . S
N805 C807 1.356 . S
N805 H810 0.984 . S
N805 H811 0.985 . S
C806 C800 1.379 . S
C806 C803 1.363 . S
C806 N804 1.356 . S
C807 C801 1.363 . S
C807 C802 1.379 . S
C807 N805 1.356 . S
N808 C800 1.356 . S
N808 H814 0.984 . S
N808 H815 0.984 . S
N809 C802 1.356 . S
N809 H812 0.984 . S
N809 H813 0.985 . S
H810 N805 0.984 . S
H811 N805 0.985 . S
H812 N809 0.984 . S
H813 N809 0.985 . S
H814 N808 0.984 . S
H815 N808 0.984 . S
H816 N804 0.978 1_455 S
H817 N804 0.985 . S
C818 C819 1.363 . S
C818 C824 1.379 . S
C818 N826 1.356 . S
C819 C818 1.363 . S
C819 C825 1.363 . S
C820 C821 1.363 . S
C820 C825 1.379 . S
C820 N827 1.356 . S
C821 C820 1.363 . S
C821 C824 1.363 . S
N822 C824 1.356 . S
N822 H834 0.984 . S
N822 H835 0.985 . S
N823 C825 1.356 . S
N823 H828 0.984 . S
N823 H829 0.985 . S
C824 C818 1.379 . S
C824 C821 1.363 . S
C824 N822 1.356 . S
C825 C819 1.363 . S
C825 C820 1.379 . S
C825 N823 1.356 . S
N826 C818 1.356 . S
N826 H832 0.984 . S
N826 H833 0.984 . S
N827 C820 1.356 . S
N827 H830 0.984 . S
N827 H831 0.985 . S
H828 N823 0.984 . S
H829 N823 0.985 . S
H830 N827 0.984 . S
H831 N827 0.985 . S
H832 N826 0.984 . S
H833 N826 0.984 . S
H834 N822 0.984 . S
H835 N822 0.985 . S
C836 C837 1.363 . S
C836 C842 1.379 . S
C836 N844 1.356 . S
C837 C836 1.363 . S
C837 C843 1.363 . S
C838 C839 1.363 . S
C838 C843 1.379 . S
C838 N845 1.356 . S
C839 C838 1.363 . S
C839 C842 1.363 . S
N840 C842 1.356 . S
N840 H852 0.984 . S
N840 H853 0.985 . S
N841 C843 1.356 . S
N841 H846 0.984 . S
N841 H847 0.985 . S
C842 C836 1.379 . S
C842 C839 1.363 . S
C842 N840 1.356 . S
C843 C837 1.363 . S
C843 C838 1.379 . S
C843 N841 1.356 . S
N844 C836 1.356 . S
N844 H850 0.984 . S
N844 H851 0.984 . S
N845 C838 1.356 . S
N845 H848 0.984 . S
N845 H849 0.985 . S
H846 N841 0.984 . S
H847 N841 0.985 . S
H848 N845 0.984 . S
H849 N845 0.985 . S
H850 N844 0.984 . S
H851 N844 0.984 . S
H852 N840 0.984 . S
H853 N840 0.985 . S
C854 C855 1.363 . S
C854 C860 1.379 . S
C854 N862 1.356 . S
C855 C854 1.363 . S
C855 C861 1.363 . S
C856 C857 1.363 . S
C856 C861 1.379 . S
C856 N863 1.356 . S
C857 C856 1.363 . S
C857 C860 1.363 . S
N858 C860 1.356 . S
N858 H870 0.984 . S
N858 H871 0.985 . S
N859 C861 1.356 . S
N859 H864 0.984 . S
N859 H865 0.985 . S
C860 C854 1.379 . S
C860 C857 1.363 . S
C860 N858 1.356 . S
C861 C855 1.363 . S
C861 C856 1.379 . S
C861 N859 1.356 . S
N862 C854 1.356 . S
N862 H868 0.984 . S
N862 H869 0.984 . S
N863 C856 1.356 . S
N863 H866 0.984 . S
N863 H867 0.985 . S
H864 N859 0.984 . S
H865 N859 0.985 . S
H866 N863 0.984 . S
H867 N863 0.985 . S
H868 N862 0.984 . S
H869 N862 0.984 . S
H870 N858 0.984 . S
H871 N858 0.985 . S
C441 N83 1.625 . S
C443 C178 1.628 1_565 S
C461 C262 1.628 . S
C459 N96 1.625 . S
C479 C255 1.638 . S
C477 N57 1.619 . S
C495 N70 1.619 . S
C497 C171 1.638 1_565 S
C515 C335 1.628 1_545 S
C513 N31 1.627 . S
C533 C419 1.628 . S
C531 N44 1.627 . S
C549 N5 1.622 . S
C551 C412 1.638 . S
C567 N18 1.621 . S
C569 C328 1.638 1_545 S
C587 C162 1.449 . S
C585 N14 1.625 . S
C605 C246 1.449 . S
C603 N1 1.625 . S
C623 C257 1.349 . S
C621 N40 1.615 . S
C641 C173 1.349 . S
C639 N27 1.615 . S
C659 C341 1.449 . S
C657 N66 1.616 . S
C675 N53 1.616 . S
C677 C425 1.449 . S
C695 C414 1.349 . S
C693 N92 1.607 . S
C711 N79 1.607 . S
C713 C330 1.349 . S
C731 C160 1.524 . S
C729 N2 1.523 . S
C749 C244 1.524 . S
C747 N15 1.523 . S
C765 N28 1.520 . S
C767 C251 1.494 . S
C785 C167 1.494 . S
C783 N41 1.520 . S
C803 C339 1.524 . S
C801 N54 1.517 . S
C819 N67 1.517 . S
C821 C423 1.524 . S
C837 N80 1.515 . S
C839 C430 1.494 . S
C855 N93 1.515 . S
C857 C346 1.494 . S
