# Generated by pormake.
# Topology ptr, (4,4)-cn, num edge types: 1
# Building blocks:
#     Node 0, Type 0, BuildingBlock: QUQFOY_clean_sbu_3, # of connection points: 4
#     Node 1, Type 0, BuildingBlock: QUQFOY_clean_sbu_3, # of connection points: 4
#     Node 2, Type 0, BuildingBlock: QUQFOY_clean_sbu_3, # of connection points: 4
#     Node 3, Type 0, BuildingBlock: QUQFOY_clean_sbu_3, # of connection points: 4
#     Node 4, Type 0, BuildingBlock: QUQFOY_clean_sbu_3, # of connection points: 4
#     Node 5, Type 0, BuildingBlock: QUQFOY_clean_sbu_3, # of connection points: 4
#     Node 6, Type 0, BuildingBlock: QUQFOY_clean_sbu_3, # of connection points: 4
#     Node 7, Type 0, BuildingBlock: QUQFOY_clean_sbu_3, # of connection points: 4
#     Node 8, Type 0, BuildingBlock: QUQFOY_clean_sbu_3, # of connection points: 4
#     Node 9, Type 0, BuildingBlock: QUQFOY_clean_sbu_3, # of connection points: 4
#     Node 10, Type 0, BuildingBlock: QUQFOY_clean_sbu_3, # of connection points: 4
#     Node 11, Type 0, BuildingBlock: QUQFOY_clean_sbu_3, # of connection points: 4
#     Node 12, Type 0, BuildingBlock: QUQFOY_clean_sbu_3, # of connection points: 4
#     Node 13, Type 0, BuildingBlock: QUQFOY_clean_sbu_3, # of connection points: 4
#     Node 14, Type 0, BuildingBlock: QUQFOY_clean_sbu_3, # of connection points: 4
#     Node 15, Type 0, BuildingBlock: QUQFOY_clean_sbu_3, # of connection points: 4
#     Node 16, Type 0, BuildingBlock: QUQFOY_clean_sbu_3, # of connection points: 4
#     Node 17, Type 0, BuildingBlock: QUQFOY_clean_sbu_3, # of connection points: 4
#     Node 18, Type 1, BuildingBlock: NAWXER_clean_linker_0, # of connection points: 4
#     Node 19, Type 1, BuildingBlock: NAWXER_clean_linker_0, # of connection points: 4
#     Node 20, Type 1, BuildingBlock: NAWXER_clean_linker_0, # of connection points: 4
#     Node 21, Type 1, BuildingBlock: NAWXER_clean_linker_0, # of connection points: 4
#     Node 22, Type 1, BuildingBlock: NAWXER_clean_linker_0, # of connection points: 4
#     Node 23, Type 1, BuildingBlock: NAWXER_clean_linker_0, # of connection points: 4
#     Node 24, Type 1, BuildingBlock: NAWXER_clean_linker_0, # of connection points: 4
#     Node 25, Type 1, BuildingBlock: NAWXER_clean_linker_0, # of connection points: 4
#     Node 26, Type 1, BuildingBlock: NAWXER_clean_linker_0, # of connection points: 4
#     Node 27, Type 1, BuildingBlock: NAWXER_clean_linker_0, # of connection points: 4
#     Node 28, Type 1, BuildingBlock: NAWXER_clean_linker_0, # of connection points: 4
#     Node 29, Type 1, BuildingBlock: NAWXER_clean_linker_0, # of connection points: 4
#     Node 30, Type 1, BuildingBlock: NAWXER_clean_linker_0, # of connection points: 4
#     Node 31, Type 1, BuildingBlock: NAWXER_clean_linker_0, # of connection points: 4
#     Node 32, Type 1, BuildingBlock: NAWXER_clean_linker_0, # of connection points: 4
#     Node 33, Type 1, BuildingBlock: NAWXER_clean_linker_0, # of connection points: 4
#     Node 34, Type 1, BuildingBlock: NAWXER_clean_linker_0, # of connection points: 4
#     Node 35, Type 1, BuildingBlock: NAWXER_clean_linker_0, # of connection points: 4
#     Edge 36, Type (0, 1), BuildingBlock: XUDNAN_clean_linker_2, # of connection points: 2
#     Edge 37, Type (0, 1), BuildingBlock: XUDNAN_clean_linker_2, # of connection points: 2
#     Edge 38, Type (0, 1), BuildingBlock: XUDNAN_clean_linker_2, # of connection points: 2
#     Edge 39, Type (0, 1), BuildingBlock: XUDNAN_clean_linker_2, # of connection points: 2
#     Edge 40, Type (0, 1), BuildingBlock: XUDNAN_clean_linker_2, # of connection points: 2
#     Edge 41, Type (0, 1), BuildingBlock: XUDNAN_clean_linker_2, # of connection points: 2
#     Edge 42, Type (0, 1), BuildingBlock: XUDNAN_clean_linker_2, # of connection points: 2
#     Edge 43, Type (0, 1), BuildingBlock: XUDNAN_clean_linker_2, # of connection points: 2
#     Edge 44, Type (0, 1), BuildingBlock: XUDNAN_clean_linker_2, # of connection points: 2
#     Edge 45, Type (0, 1), BuildingBlock: XUDNAN_clean_linker_2, # of connection points: 2
#     Edge 46, Type (0, 1), BuildingBlock: XUDNAN_clean_linker_2, # of connection points: 2
#     Edge 47, Type (0, 1), BuildingBlock: XUDNAN_clean_linker_2, # of connection points: 2
#     Edge 48, Type (0, 1), BuildingBlock: XUDNAN_clean_linker_2, # of connection points: 2
#     Edge 49, Type (0, 1), BuildingBlock: XUDNAN_clean_linker_2, # of connection points: 2
#     Edge 50, Type (0, 1), BuildingBlock: XUDNAN_clean_linker_2, # of connection points: 2
#     Edge 51, Type (0, 1), BuildingBlock: XUDNAN_clean_linker_2, # of connection points: 2
#     Edge 52, Type (0, 1), BuildingBlock: XUDNAN_clean_linker_2, # of connection points: 2
#     Edge 53, Type (0, 1), BuildingBlock: XUDNAN_clean_linker_2, # of connection points: 2
#     Edge 54, Type (0, 1), BuildingBlock: XUDNAN_clean_linker_2, # of connection points: 2
#     Edge 55, Type (0, 1), BuildingBlock: XUDNAN_clean_linker_2, # of connection points: 2
#     Edge 56, Type (0, 1), BuildingBlock: XUDNAN_clean_linker_2, # of connection points: 2
#     Edge 57, Type (0, 1), BuildingBlock: XUDNAN_clean_linker_2, # of connection points: 2
#     Edge 58, Type (0, 1), BuildingBlock: XUDNAN_clean_linker_2, # of connection points: 2
#     Edge 59, Type (0, 1), BuildingBlock: XUDNAN_clean_linker_2, # of connection points: 2
#     Edge 60, Type (0, 1), BuildingBlock: XUDNAN_clean_linker_2, # of connection points: 2
#     Edge 61, Type (0, 1), BuildingBlock: XUDNAN_clean_linker_2, # of connection points: 2
#     Edge 62, Type (0, 1), BuildingBlock: XUDNAN_clean_linker_2, # of connection points: 2
#     Edge 63, Type (0, 1), BuildingBlock: XUDNAN_clean_linker_2, # of connection points: 2
#     Edge 64, Type (0, 1), BuildingBlock: XUDNAN_clean_linker_2, # of connection points: 2
#     Edge 65, Type (0, 1), BuildingBlock: XUDNAN_clean_linker_2, # of connection points: 2
#     Edge 66, Type (0, 1), BuildingBlock: XUDNAN_clean_linker_2, # of connection points: 2
#     Edge 67, Type (0, 1), BuildingBlock: XUDNAN_clean_linker_2, # of connection points: 2
#     Edge 68, Type (0, 1), BuildingBlock: XUDNAN_clean_linker_2, # of connection points: 2
#     Edge 69, Type (0, 1), BuildingBlock: XUDNAN_clean_linker_2, # of connection points: 2
#     Edge 70, Type (0, 1), BuildingBlock: XUDNAN_clean_linker_2, # of connection points: 2
#     Edge 71, Type (0, 1), BuildingBlock: XUDNAN_clean_linker_2, # of connection points: 2
#     Edge 72, Type (0, 1), BuildingBlock: XUDNAN_clean_linker_2, # of connection points: 2
#     Edge 73, Type (0, 1), BuildingBlock: XUDNAN_clean_linker_2, # of connection points: 2
#     Edge 74, Type (0, 1), BuildingBlock: XUDNAN_clean_linker_2, # of connection points: 2
#     Edge 75, Type (0, 1), BuildingBlock: XUDNAN_clean_linker_2, # of connection points: 2
#     Edge 76, Type (0, 1), BuildingBlock: XUDNAN_clean_linker_2, # of connection points: 2
#     Edge 77, Type (0, 1), BuildingBlock: XUDNAN_clean_linker_2, # of connection points: 2
#     Edge 78, Type (0, 1), BuildingBlock: XUDNAN_clean_linker_2, # of connection points: 2
#     Edge 79, Type (0, 1), BuildingBlock: XUDNAN_clean_linker_2, # of connection points: 2
#     Edge 80, Type (0, 1), BuildingBlock: XUDNAN_clean_linker_2, # of connection points: 2
#     Edge 81, Type (0, 1), BuildingBlock: XUDNAN_clean_linker_2, # of connection points: 2
#     Edge 82, Type (0, 1), BuildingBlock: XUDNAN_clean_linker_2, # of connection points: 2
#     Edge 83, Type (0, 1), BuildingBlock: XUDNAN_clean_linker_2, # of connection points: 2
#     Edge 84, Type (0, 1), BuildingBlock: XUDNAN_clean_linker_2, # of connection points: 2
#     Edge 85, Type (0, 1), BuildingBlock: XUDNAN_clean_linker_2, # of connection points: 2
#     Edge 86, Type (0, 1), BuildingBlock: XUDNAN_clean_linker_2, # of connection points: 2
#     Edge 87, Type (0, 1), BuildingBlock: XUDNAN_clean_linker_2, # of connection points: 2
#     Edge 88, Type (0, 1), BuildingBlock: XUDNAN_clean_linker_2, # of connection points: 2
#     Edge 89, Type (0, 1), BuildingBlock: XUDNAN_clean_linker_2, # of connection points: 2
#     Edge 90, Type (0, 1), BuildingBlock: XUDNAN_clean_linker_2, # of connection points: 2
#     Edge 91, Type (0, 1), BuildingBlock: XUDNAN_clean_linker_2, # of connection points: 2
#     Edge 92, Type (0, 1), BuildingBlock: XUDNAN_clean_linker_2, # of connection points: 2
#     Edge 93, Type (0, 1), BuildingBlock: XUDNAN_clean_linker_2, # of connection points: 2
#     Edge 94, Type (0, 1), BuildingBlock: XUDNAN_clean_linker_2, # of connection points: 2
#     Edge 95, Type (0, 1), BuildingBlock: XUDNAN_clean_linker_2, # of connection points: 2
#     Edge 96, Type (0, 1), BuildingBlock: XUDNAN_clean_linker_2, # of connection points: 2
#     Edge 97, Type (0, 1), BuildingBlock: XUDNAN_clean_linker_2, # of connection points: 2
#     Edge 98, Type (0, 1), BuildingBlock: XUDNAN_clean_linker_2, # of connection points: 2
#     Edge 99, Type (0, 1), BuildingBlock: XUDNAN_clean_linker_2, # of connection points: 2
#     Edge 100, Type (0, 1), BuildingBlock: XUDNAN_clean_linker_2, # of connection points: 2
#     Edge 101, Type (0, 1), BuildingBlock: XUDNAN_clean_linker_2, # of connection points: 2
#     Edge 102, Type (0, 1), BuildingBlock: XUDNAN_clean_linker_2, # of connection points: 2
#     Edge 103, Type (0, 1), BuildingBlock: XUDNAN_clean_linker_2, # of connection points: 2
#     Edge 104, Type (0, 1), BuildingBlock: XUDNAN_clean_linker_2, # of connection points: 2
#     Edge 105, Type (0, 1), BuildingBlock: XUDNAN_clean_linker_2, # of connection points: 2
#     Edge 106, Type (0, 1), BuildingBlock: XUDNAN_clean_linker_2, # of connection points: 2
#     Edge 107, Type (0, 1), BuildingBlock: XUDNAN_clean_linker_2, # of connection points: 2
# Relax obj value: 0.029
# Max RMSD: 0.135
# Mean RMSD: 0.051
data_MOF--net-ptr--node1-QUQFOY_clean_sbu_3--node2-NAWXER_clean_linker_0--edge1-XUDNAN_clean_linker_2
_symmetry_space_group_name_H-M    P1
_symmetry_Int_Tables_number       1
_symmetry_cell_setting            triclinic
loop_
_symmetry_equiv_pos_as_xyz
'x, y, z'
_cell_length_a     88.443673
_cell_length_b     88.726828
_cell_length_c     65.136971
_cell_angle_alpha  90.376435
_cell_angle_beta   89.456888
_cell_angle_gamma 120.71996
loop_
_atom_site_label
_atom_site_type_symbol
_atom_site_fract_x
_atom_site_fract_y
_atom_site_fract_z
_atom_type_partial_charge
C0 C 0.96527 0.31599 0.99414 0.0
O1 O 0.95544 0.32211 -0.0014 0.0
Cd2 Cd 0.96726 0.3498 0.01627 0.0
O3 O 0.98123 0.32401 -0.00012 0.0
Cd4 Cd 0.00251 0.34994 0.01979 0.0
C5 C 0.00147 0.37585 0.98328 0.0
O6 O 0.98292 0.35039 0.04644 0.0
O7 O 0.00813 0.37415 0.04256 0.0
O8 O 0.00809 0.32842 0.03464 0.0
C9 C -0.00606 0.3657 0.05276 0.0
O10 O 0.98685 0.37201 0.99165 0.0
C11 C 0.02474 0.33768 0.03433 0.0
O12 O 0.00994 0.36857 0.98916 0.0
O13 O 0.0315 0.35309 0.02704 0.0
C14 C 0.63516 0.68123 0.01399 0.0
O15 O 0.61858 0.67357 0.01228 0.0
Cd16 Cd 0.60326 0.64358 -2e-05 0.0
O17 O 0.64327 0.67371 0.00757 0.0
Cd18 Cd 0.63825 0.6471 0.98963 0.0
C19 C 0.61891 0.62428 0.03231 0.0
O20 O 0.61278 0.63893 0.9667 0.0
O21 O 0.62046 0.61973 0.97242 0.0
O22 O 0.66099 0.66736 0.9665 0.0
C23 C 0.61104 0.62408 0.96246 0.0
O24 O 0.60635 0.62643 0.02687 0.0
C25 C 0.67108 0.66122 0.96842 0.0
O26 O 0.63321 0.63113 0.02199 0.0
O27 O 0.66592 0.64818 0.98037 0.0
C28 C 0.30941 0.96183 0.02359 0.0
O29 O 0.31539 0.95169 0.02037 0.0
Cd30 Cd 0.34276 0.96035 0.00324 0.0
O31 O 0.31777 0.97759 0.01722 0.0
Cd32 Cd 0.34508 -0.00241 -0.00171 0.0
C33 C 0.3704 0.99417 0.03499 0.0
O34 O 0.3436 0.97641 0.97342 0.0
O35 O 0.36763 0.00159 0.97307 0.0
O36 O 0.3304 0.00985 0.97899 0.0
C37 C 0.35851 0.98642 0.96526 0.0
O38 O 0.36512 0.97878 0.02821 0.0
C39 C 0.33935 0.02517 0.98647 0.0
O40 O 0.36467 0.00349 0.02742 0.0
O41 O 0.35111 0.02775 -0.0006 0.0
C42 C 0.95557 0.64957 0.98898 0.0
O43 O 0.94528 0.63436 0.99606 0.0
Cd44 Cd 0.9581 0.61964 0.01341 0.0
O45 O 0.97183 0.65762 0.99335 0.0
Cd46 Cd -0.00696 0.65502 0.01486 0.0
C47 C 0.99144 0.62716 0.97924 0.0
O48 O 0.97444 0.63609 0.04289 0.0
O49 O -0.00057 0.63764 0.03804 0.0
O50 O -0.00122 0.68274 0.02861 0.0
C51 C 0.98574 0.63238 0.04904 0.0
O52 O 0.97686 0.61637 0.98786 0.0
C53 C 0.01539 0.69057 0.02706 0.0
O54 O 0.00017 0.6431 0.98503 0.0
O55 O 0.02194 0.68182 0.01966 0.0
C56 C 0.32312 0.36744 0.02299 0.0
O57 O 0.33478 0.38255 0.01676 0.0
Cd58 Cd 0.36046 0.38861 0.99761 0.0
O59 O 0.32436 0.35404 0.01887 0.0
Cd60 Cd 0.34476 0.34727 8e-05 0.0
C61 C 0.37773 0.37267 0.0326 0.0
O62 O 0.3503 0.36689 0.97135 0.0
O63 O 0.3671 0.35595 0.9729 0.0
O64 O 0.31849 0.32022 0.98928 0.0
C65 C 0.36223 0.365 0.96306 0.0
O66 O 0.37919 0.38559 0.0225 0.0
C67 C 0.32514 0.31061 0.99163 0.0
O68 O 0.36544 0.35707 0.02876 0.0
O69 O 0.34061 0.31792 -0.00121 0.0
C70 C 0.6779 0.0402 -0.00189 0.0
O71 O 0.66682 0.04428 0.00441 0.0
Cd72 Cd 0.63829 0.02414 0.01765 0.0
O73 O 0.67475 0.02454 -3e-05 0.0
Cd74 Cd 0.65116 0.9962 0.01511 0.0
C75 C 0.62377 0.99389 0.97785 0.0
O76 O 0.64188 0.00774 0.0439 0.0
O77 O 0.625 0.98038 0.03657 0.0
O78 O 0.67511 0.99411 0.03037 0.0
C79 C 0.62833 0.99314 0.04829 0.0
O80 O 0.62327 0.00598 0.98794 0.0
C81 C 0.66874 0.97797 0.02638 0.0
O82 O 0.63339 0.98786 0.98364 0.0
O83 O 0.65448 0.97037 0.01632 0.0
C84 C 0.62732 0.64708 0.32198 0.0
O85 O 0.61722 0.65313 0.32504 0.0
Cd86 Cd 0.6278 0.68102 0.34144 0.0
O87 O 0.64299 0.6552 0.32874 0.0
Cd88 Cd 0.66394 0.68095 0.34923 0.0
C89 C 0.66445 0.70641 0.3105 0.0
O90 O 0.64193 0.68067 0.37242 0.0
O91 O 0.66813 0.70324 0.37443 0.0
O92 O 0.66816 0.65827 0.36337 0.0
C93 C 0.6524 0.69517 0.38103 0.0
O94 O 0.64891 0.70167 0.31657 0.0
C95 C 0.68477 0.66737 0.36472 0.0
O96 O 0.67328 0.70051 0.31914 0.0
O97 O 0.69212 0.68325 0.35889 0.0
C98 C 0.31547 0.02413 0.36391 0.0
O99 O 0.29882 0.01644 0.36446 0.0
Cd100 Cd 0.27953 0.98699 0.35312 0.0
O101 O 0.32315 0.01629 0.35699 0.0
Cd102 Cd 0.31308 0.98631 0.34384 0.0
C103 C 0.29199 0.96683 0.38772 0.0
O104 O 0.28847 0.98042 0.32087 0.0
O105 O 0.28963 0.95819 0.33201 0.0
O106 O 0.3379 -0.00174 0.31942 0.0
C107 C 0.28277 0.96409 0.31993 0.0
O108 O 0.27966 0.96879 0.38087 0.0
C109 C 0.34258 0.98738 0.32412 0.0
O110 O 0.30667 0.97344 0.37824 0.0
O111 O 0.33392 0.97651 0.33827 0.0
C112 C 0.98329 0.30303 0.36331 0.0
O113 O 0.9919 0.29517 0.36405 0.0
Cd114 Cd 0.01895 0.3055 0.34505 0.0
O115 O 0.98916 0.31719 0.35325 0.0
Cd116 Cd 0.01491 0.33759 0.33267 0.0
C117 C 0.04455 0.34466 0.36945 0.0
O118 O 0.01489 0.3145 0.31195 0.0
O119 O 0.03653 0.34078 0.30671 0.0
O120 O 0.99258 0.34113 0.31599 0.0
C121 C 0.02854 0.32473 0.30163 0.0
O122 O 0.04208 0.3297 0.36436 0.0
C123 C 0.00159 0.35771 0.31479 0.0
O124 O 0.03521 0.35039 0.3619 0.0
O125 O 0.01708 0.36518 0.32199 0.0
C126 C 0.62485 0.97369 0.32323 0.0
O127 O 0.61552 0.95737 0.32677 0.0
Cd128 Cd 0.62811 0.94233 0.34337 0.0
O129 O 0.64066 0.98238 0.32947 0.0
Cd130 Cd 0.66245 0.97913 0.34948 0.0
C131 C 0.6639 0.95396 0.31148 0.0
O132 O 0.64181 0.95803 0.37446 0.0
O133 O 0.6682 0.96246 0.37479 0.0
O134 O 0.66669 0.00598 0.36437 0.0
C135 C 0.65302 0.95528 0.38296 0.0
O136 O 0.64865 0.94251 0.31792 0.0
C137 C 0.68336 0.0143 0.36394 0.0
O138 O 0.67222 0.9691 0.31973 0.0
O139 O 0.69067 0.00625 0.3566 0.0
C140 C 0.98739 0.69828 0.36917 0.0
O141 O -0.00301 0.71372 0.36231 0.0
Cd142 Cd 0.02169 0.72255 0.34044 0.0
O143 O 0.99031 0.6861 0.36397 0.0
Cd144 Cd 0.01198 0.68352 0.34148 0.0
C145 C 0.04507 0.71114 0.37229 0.0
O146 O 0.01255 0.7016 0.31306 0.0
O147 O 0.03414 0.69692 0.31403 0.0
O148 O 0.98761 0.65516 0.33046 0.0
C149 C 0.0258 0.70259 0.30415 0.0
O150 O 0.0435 0.72305 0.36352 0.0
C151 C -0.00386 0.64724 0.33106 0.0
O152 O 0.03466 0.69503 0.36804 0.0
O153 O 0.01188 0.65599 0.33741 0.0
C154 C 0.35709 0.36784 0.33062 0.0
O155 O 0.34964 0.37665 0.33391 0.0
Cd156 Cd 0.31966 0.36263 0.34649 0.0
O157 O 0.34907 0.35157 0.33474 0.0
Cd158 Cd 0.3209 0.32836 0.34895 0.0
C159 C 0.29788 0.33125 0.30953 0.0
O160 O 0.31423 0.34402 0.37581 0.0
O161 O 0.29362 0.31792 0.367 0.0
O162 O 0.33567 0.31894 0.37223 0.0
C163 C 0.29883 0.331 0.3789 0.0
O164 O 0.30115 0.34557 0.31802 0.0
C165 C 0.33042 0.30416 0.36386 0.0
O166 O 0.30418 0.3223 0.31681 0.0
O167 O 0.3207 0.30047 0.34816 0.0
C168 C 0.2956 0.98273 0.66872 0.0
O169 O 0.28721 0.99067 0.67149 0.0
Cd170 Cd 0.30314 0.02061 0.68392 0.0
O171 O 0.31178 0.9902 0.67335 0.0
Cd172 Cd 0.33593 0.01707 0.68846 0.0
C173 C 0.33627 0.04064 0.64796 0.0
O174 O 0.31974 0.02389 0.71474 0.0
O175 O 0.347 0.0433 0.70854 0.0
O176 O 0.33942 0.9953 0.70634 0.0
C177 C 0.33326 0.03856 0.71924 0.0
O178 O 0.32194 0.0383 0.65566 0.0
C179 C 0.35588 0.00245 0.70355 0.0
O180 O 0.34424 0.03363 0.6561 0.0
O181 O 0.36346 0.0168 0.69365 0.0
C182 C 0.98173 0.35057 0.69466 0.0
O183 O 0.96519 0.3428 0.69228 0.0
Cd184 Cd 0.94803 0.31505 0.6757 0.0
O185 O 0.9905 0.34384 0.68769 0.0
Cd186 Cd 0.98521 0.31733 0.66824 0.0
C187 C 0.95823 0.28963 0.70556 0.0
O188 O 0.96372 0.31676 0.64497 0.0
O189 O 0.96709 0.2944 0.64287 0.0
O190 O 0.01151 0.33456 0.64729 0.0
C191 C 0.95971 0.30244 0.63617 0.0
O192 O 0.94708 0.29375 0.69986 0.0
C193 C 0.01959 0.32711 0.65359 0.0
O194 O 0.97341 0.29662 0.69718 0.0
O195 O 0.01171 0.31503 0.66682 0.0
C196 C 0.6382 0.62514 0.69753 0.0
O197 O 0.64433 0.61496 0.69785 0.0
Cd198 Cd 0.67238 0.62287 0.68332 0.0
O199 O 0.64656 0.63985 0.68838 0.0
Cd200 Cd 0.67363 0.65686 0.66761 0.0
C201 C 0.69912 0.66201 0.7082 0.0
O202 O 0.67328 0.63266 0.64891 0.0
O203 O 0.69708 0.658 0.6465 0.0
O204 O 0.65635 0.66168 0.64289 0.0
C205 C 0.68829 0.64214 0.64067 0.0
O206 O 0.69398 0.64587 0.70544 0.0
C207 C 0.66497 0.67828 0.64392 0.0
O208 O 0.69332 0.66965 0.69703 0.0
O209 O 0.67778 0.68521 0.65636 0.0
C210 C 0.27284 0.29275 0.65441 0.0
O211 O 0.26773 0.27691 0.65875 0.0
Cd212 Cd 0.28316 0.26753 0.67996 0.0
O213 O 0.28727 0.3052 0.66154 0.0
Cd214 Cd 0.3112 0.30812 0.68444 0.0
C215 C 0.32146 0.28449 0.65205 0.0
O216 O 0.29129 0.28643 0.70902 0.0
O217 O 0.31848 0.2949 0.71358 0.0
O218 O 0.31284 0.33506 0.69649 0.0
C219 C 0.30273 0.2859 0.71993 0.0
O220 O 0.30797 0.27103 0.65941 0.0
C221 C 0.32952 0.34423 0.69661 0.0
O222 O 0.32512 0.29987 0.65722 0.0
O223 O 0.33775 0.33669 0.6907 0.0
C224 C 0.64704 0.0146 0.68601 0.0
O225 O 0.65175 0.02956 0.67855 0.0
Cd226 Cd 0.68054 0.04799 0.66406 0.0
O227 O 0.65737 0.00857 0.68537 0.0
Cd228 Cd 0.68694 0.01694 0.67253 0.0
C229 C 0.70537 0.05091 0.70587 0.0
O230 O 0.68687 0.03123 0.64011 0.0
O231 O 0.71127 0.03312 0.64929 0.0
O232 O 0.6724 0.98654 0.66149 0.0
C233 C 0.70268 0.0358 0.63582 0.0
O234 O 0.69973 0.05807 0.69369 0.0
C235 C 0.68443 0.9838 0.66732 0.0
O236 O 0.70212 0.03535 0.70261 0.0
O237 O 0.69738 0.99627 0.67666 0.0
C238 C 0.0112 0.69977 0.65142 0.0
O239 O 0.00474 0.70952 0.65434 0.0
Cd240 Cd 0.97812 0.69996 0.67358 0.0
O241 O 0.00401 0.68458 0.6595 0.0
Cd242 Cd 0.9792 0.66498 0.68254 0.0
C243 C 0.95039 0.66205 0.64661 0.0
O244 O 0.98115 0.68802 0.70503 0.0
O245 O 0.95819 0.66236 0.7091 0.0
O246 O 0.00136 0.66014 0.69743 0.0
C247 C 0.96714 0.67817 0.71501 0.0
O248 O 0.95509 0.67768 0.65195 0.0
C249 C 0.99186 0.64361 0.69886 0.0
O250 O 0.95763 0.65418 0.65447 0.0
O251 O 0.97615 0.63665 0.69243 0.0
C252 C 0.21947 0.33959 0.13013 0.0
C253 C 0.21963 0.33234 0.11095 0.0
C254 C 0.20406 0.33246 0.1418 0.0
C255 C 0.18854 0.31783 0.13462 0.0
C256 C 0.20419 0.31749 0.10394 0.0
C257 C 0.18871 0.31039 0.11561 0.0
C258 C 0.1718 0.31163 0.14582 0.0
C259 C 0.20526 0.29959 0.18588 0.0
C260 C 0.2096 0.30824 0.20497 0.0
C261 C 0.19236 0.29958 0.17359 0.0
C262 C 0.1837 0.3084 0.18003 0.0
C263 C 0.20056 0.31665 0.21158 0.0
C264 C 0.18775 0.31669 0.19927 0.0
C265 C 0.17005 0.30869 0.16723 0.0
C266 C 0.09586 0.2927 0.18518 0.0
C267 C 0.09961 0.30346 0.20262 0.0
C268 C 0.10951 0.29342 0.17337 0.0
C269 C 0.12713 0.30503 0.1787 0.0
C270 C 0.11725 0.31469 0.20816 0.0
C271 C 0.13083 0.31543 0.19635 0.0
C272 C 0.14196 0.30641 0.16646 0.0
C273 C 0.11284 0.32301 0.12429 0.0
C274 C 0.10541 0.31173 0.10735 0.0
C275 C 0.12516 0.322 0.13661 0.0
C276 C 0.1302 0.30965 0.13226 0.0
C277 C 0.11078 0.29963 0.10282 0.0
C278 C 0.12316 0.29871 0.11508 0.0
C279 C 0.14341 0.3086 0.14492 0.0
H280 H 0.23122 0.35096 0.13596 0.0
H281 H 0.20415 0.33875 0.15615 0.0
H282 H 0.20391 0.31176 0.08911 0.0
H283 H 0.1768 0.29928 0.10966 0.0
H284 H 0.21196 0.293 0.18032 0.0
H285 H 0.18913 0.29261 0.15909 0.0
H286 H 0.20326 0.32309 0.22639 0.0
H287 H 0.18113 0.3234 0.20474 0.0
H288 H 0.0824 0.2839 0.18053 0.0
H289 H 0.1063 0.2849 0.16013 0.0
H290 H 0.1206 0.32283 0.22176 0.0
H291 H 0.14431 0.32434 0.20092 0.0
H292 H 0.10891 0.33241 0.12821 0.0
H293 H 0.13076 0.33089 0.14951 0.0
H294 H 0.1055 0.29095 0.0897 0.0
H295 H 0.1271 0.28929 0.11127 0.0
N296 N 0.1583 0.31116 0.13546 0.0
N297 N 0.15529 0.30644 0.17671 0.0
C298 C 0.68052 0.88935 0.11645 0.0
C299 C 0.69417 0.89868 0.10215 0.0
C300 C 0.68039 0.87641 0.1287 0.0
C301 C 0.69389 0.87255 0.12683 0.0
C302 C 0.70761 0.89472 0.10025 0.0
C303 C 0.70736 0.88163 0.11234 0.0
C304 C 0.69356 0.85847 0.13916 0.0
C305 C 0.70323 0.90178 0.18402 0.0
C306 C 0.69125 0.8963 0.20059 0.0
C307 C 0.70367 0.88946 0.17084 0.0
C308 C 0.69192 0.87142 0.17378 0.0
C309 C 0.67974 0.87823 0.20359 0.0
C310 C 0.68005 0.866 0.19036 0.0
C311 C 0.69241 0.85787 0.16082 0.0
C312 C 0.70053 0.79622 0.1822 0.0
C313 C 0.68949 0.79051 0.19965 0.0
C314 C 0.70087 0.80887 0.16911 0.0
C315 C 0.69004 0.8159 0.1731 0.0
C316 C 0.67877 0.79767 0.20358 0.0
C317 C 0.67905 0.81018 0.19049 0.0
C318 C 0.69095 0.83019 0.16044 0.0
C319 C 0.67149 0.78463 0.11671 0.0
C320 C 0.68211 0.78754 0.09925 0.0
C321 C 0.67473 0.79849 0.12982 0.0
C322 C 0.68882 0.81551 0.12592 0.0
C323 C 0.69615 0.80462 0.09534 0.0
C324 C 0.69941 0.81846 0.10849 0.0
C325 C 0.69154 0.83054 0.13874 0.0
H326 H 0.67004 0.89219 0.1183 0.0
H327 H 0.66968 0.86931 0.13952 0.0
H328 H 0.71818 0.90157 0.08921 0.0
H329 H 0.71777 0.87868 0.1105 0.0
H330 H 0.71228 0.91559 0.18122 0.0
H331 H 0.71338 0.89404 0.15862 0.0
H332 H 0.67065 0.87343 0.21646 0.0
H333 H 0.67101 0.85218 0.19318 0.0
H334 H 0.70893 0.79096 0.17868 0.0
H335 H 0.70987 0.81339 0.15615 0.0
H336 H 0.6704 0.79393 0.21709 0.0
H337 H 0.67074 0.81554 0.1941 0.0
H338 H 0.66063 0.77163 0.12025 0.0
H339 H 0.66598 0.79592 0.14277 0.0
H340 H 0.70441 0.80739 0.08185 0.0
H341 H 0.71015 0.83153 0.10494 0.0
N342 N 0.69309 0.84479 0.129 0.0
N343 N 0.69124 0.84379 0.1705 0.0
C344 C 0.10766 0.79202 0.11296 0.0
C345 C 0.09905 0.79731 0.09929 0.0
C346 C 0.11987 0.80391 0.12688 0.0
C347 C 0.12353 0.82127 0.12771 0.0
C348 C 0.10314 0.81486 0.09971 0.0
C349 C 0.11535 0.82676 0.11374 0.0
C350 C 0.13637 0.83382 0.14261 0.0
C351 C 0.09132 0.79627 0.18454 0.0
C352 C 0.09504 0.78435 0.19418 0.0
C353 C 0.10446 0.81072 0.17386 0.0
C354 C 0.1216 0.8137 0.17295 0.0
C355 C 0.11216 0.7871 0.19237 0.0
C356 C 0.12537 0.8018 0.18218 0.0
C357 C 0.13591 0.8298 0.16356 0.0
C358 C 0.19113 0.89638 0.20252 0.0
C359 C 0.19715 0.88894 0.21695 0.0
C360 C 0.18042 0.88626 0.18625 0.0
C361 C 0.17568 0.86861 0.18415 0.0
C362 C 0.19298 0.87151 0.21418 0.0
C363 C 0.18226 0.86143 0.19808 0.0
C364 C 0.16251 0.85691 0.16897 0.0
C365 C 0.20948 0.89246 0.13 0.0
C366 C 0.20666 0.90189 0.11478 0.0
C367 C 0.19542 0.87967 0.14146 0.0
C368 C 0.17827 0.87622 0.13814 0.0
C369 C 0.18958 0.89882 0.1119 0.0
C370 C 0.1755 0.886 0.12339 0.0
C371 C 0.16307 0.86098 0.14794 0.0
H372 H 0.10474 0.77859 0.1132 0.0
H373 H 0.12648 0.7995 0.13697 0.0
H374 H 0.09693 0.81941 0.08917 0.0
H375 H 0.11823 0.84018 0.11387 0.0
H376 H 0.07845 0.79485 0.18582 0.0
H377 H 0.10141 0.81993 0.16696 0.0
H378 H 0.11549 0.77804 0.19903 0.0
H379 H 0.13856 0.80391 0.1815 0.0
H380 H 0.19405 0.90975 0.20432 0.0
H381 H 0.17525 0.892 0.17588 0.0
H382 H 0.19774 0.8655 0.22474 0.0
H383 H 0.17883 0.84787 0.19671 0.0
H384 H 0.22252 0.89464 0.13266 0.0
H385 H 0.19789 0.87195 0.15225 0.0
H386 H 0.18698 0.90575 0.10012 0.0
H387 H 0.16234 0.88338 0.12038 0.0
N388 N 0.1499 0.8493 0.13557 0.0
N389 N 0.14896 0.84144 0.17592 0.0
C390 C 0.32247 0.11494 0.84222 0.0
C391 C 0.31263 0.10599 0.82478 0.0
C392 C 0.31759 0.12474 0.85447 0.0
C393 C 0.30249 0.12547 0.8499 0.0
C394 C 0.29736 0.10651 0.82039 0.0
C395 C 0.2924 0.11621 0.83279 0.0
C396 C 0.29821 0.13725 0.86149 0.0
C397 C 0.29565 0.09861 0.90846 0.0
C398 C 0.30968 0.10666 0.92245 0.0
C399 C 0.29183 0.10876 0.89555 0.0
C400 C 0.30186 0.12711 0.89655 0.0
C401 C 0.31965 0.12509 0.92328 0.0
C402 C 0.31563 0.13517 0.91066 0.0
C403 C 0.2982 0.1382 0.88315 0.0
C404 C 0.28014 0.18513 0.92033 0.0
C405 C 0.29302 0.20279 0.9171 0.0
C406 C 0.28016 0.17196 0.90846 0.0
C407 C 0.29279 0.17629 0.89289 0.0
C408 C 0.30565 0.20708 0.9015 0.0
C409 C 0.30553 0.19393 0.88947 0.0
C410 C 0.29342 0.16226 0.88136 0.0
C411 C 0.30093 0.19271 0.81652 0.0
C412 C 0.28855 0.19779 0.82084 0.0
C413 C 0.30221 0.18074 0.82912 0.0
C414 C 0.29118 0.17358 0.84634 0.0
C415 C 0.27727 0.19034 0.8379 0.0
C416 C 0.27845 0.17822 0.85038 0.0
C417 C 0.29309 0.16118 0.8597 0.0
H418 H 0.33421 0.1147 0.84618 0.0
H419 H 0.32603 0.13225 0.86708 0.0
H420 H 0.28962 0.10001 0.80692 0.0
H421 H 0.28084 0.11679 0.82876 0.0
H422 H 0.28749 0.08447 0.9076 0.0
H423 H 0.28099 0.1023 0.88492 0.0
H424 H 0.3308 0.13182 0.93343 0.0
H425 H 0.32358 0.14933 0.91158 0.0
H426 H 0.27036 0.18149 0.93238 0.0
H427 H 0.27036 0.15838 0.91146 0.0
H428 H 0.31567 0.22061 0.89865 0.0
H429 H 0.31558 0.19751 0.87777 0.0
H430 H 0.30954 0.19782 0.80325 0.0
H431 H 0.31201 0.17723 0.82551 0.0
H432 H 0.26762 0.19397 0.84177 0.0
H433 H 0.26937 0.17249 0.86316 0.0
N434 N 0.29555 0.14873 0.85064 0.0
N435 N 0.29587 0.15069 0.89221 0.0
C436 C 0.89739 0.19306 0.91401 0.0
C437 C 0.90107 0.21002 0.90909 0.0
C438 C 0.88488 0.17854 0.9029 0.0
C439 C 0.87609 0.18075 0.88645 0.0
C440 C 0.89229 0.2122 0.89253 0.0
C441 C 0.87988 0.19769 0.88133 0.0
C442 C 0.86165 0.16525 0.87619 0.0
C443 C 0.88061 0.19229 0.80858 0.0
C444 C 0.89875 0.19999 0.81197 0.0
C445 C 0.8684 0.18017 0.8224 0.0
C446 C 0.87396 0.17534 0.83999 0.0
C447 C 0.90438 0.19472 0.82921 0.0
C448 C 0.89208 0.18241 0.84302 0.0
C449 C 0.86046 0.1629 0.85468 0.0
C450 C 0.78482 0.11763 0.83871 0.0
C451 C 0.78545 0.10812 0.82167 0.0
C452 C 0.79942 0.12681 0.85139 0.0
C453 C 0.81482 0.1263 0.84765 0.0
C454 C 0.80068 0.10718 0.81836 0.0
C455 C 0.81523 0.11623 0.83118 0.0
C456 C 0.83128 0.13831 0.8586 0.0
C457 C 0.79102 0.10357 0.90515 0.0
C458 C 0.78771 0.11291 0.92033 0.0
C459 C 0.806 0.11216 0.89254 0.0
C460 C 0.81771 0.13031 0.89463 0.0
C461 C 0.80017 0.13074 0.92332 0.0
C462 C 0.81491 0.13933 0.91061 0.0
C463 C 0.83262 0.14042 0.88019 0.0
H464 H 0.90378 0.19096 0.92686 0.0
H465 H 0.8819 0.16555 0.90731 0.0
H466 H 0.89491 0.22512 0.88834 0.0
H467 H 0.87293 0.19966 0.86902 0.0
H468 H 0.87576 0.19563 0.79518 0.0
H469 H 0.85453 0.17481 0.81948 0.0
H470 H 0.91825 0.20034 0.83225 0.0
H471 H 0.89676 0.17851 0.85609 0.0
H472 H 0.77323 0.11849 0.84185 0.0
H473 H 0.79891 0.13492 0.86356 0.0
H474 H 0.80175 0.10022 0.80523 0.0
H475 H 0.82708 0.11592 0.82777 0.0
H476 H 0.78176 0.08979 0.9025 0.0
H477 H 0.80814 0.10471 0.88085 0.0
H478 H 0.79837 0.13823 0.93529 0.0
H479 H 0.82384 0.15325 0.91287 0.0
N480 N 0.84779 0.15384 0.88802 0.0
N481 N 0.84531 0.14951 0.84684 0.0
C482 C 0.79936 0.71009 0.9024 0.0
C483 C 0.78311 0.69459 0.89951 0.0
C484 C 0.8146 0.71208 0.89319 0.0
C485 C 0.8137 0.6988 0.88059 0.0
C486 C 0.78234 0.68111 0.88733 0.0
C487 C 0.79754 0.68326 0.87778 0.0
C488 C 0.82963 0.70128 0.87014 0.0
C489 C 0.79969 0.69111 0.8058 0.0
C490 C 0.79249 0.70181 0.8094 0.0
C491 C 0.81279 0.69216 0.81848 0.0
C492 C 0.81887 0.70381 0.83513 0.0
C493 C 0.79899 0.71394 0.82567 0.0
C494 C 0.8121 0.71492 0.83847 0.0
C495 C 0.8322 0.70398 0.84878 0.0
C496 C 0.89016 0.69016 0.82981 0.0
C497 C 0.90052 0.704 0.81624 0.0
C498 C 0.87688 0.69022 0.84151 0.0
C499 C 0.87381 0.70422 0.84005 0.0
C500 C 0.89748 0.71805 0.81491 0.0
C501 C 0.88417 0.71809 0.82661 0.0
C502 C 0.85898 0.70383 0.8512 0.0
C503 C 0.89753 0.70873 0.89888 0.0
C504 C 0.89178 0.69219 0.90774 0.0
C505 C 0.88595 0.71178 0.88772 0.0
C506 C 0.86834 0.6985 0.88557 0.0
C507 C 0.87395 0.67906 0.90583 0.0
C508 C 0.86231 0.68228 0.89509 0.0
C509 C 0.85632 0.70106 0.87257 0.0
H510 H 0.80025 0.72062 0.91182 0.0
H511 H 0.82702 0.72414 0.89551 0.0
H512 H 0.76993 0.66909 0.88481 0.0
H513 H 0.79668 0.67287 0.86811 0.0
H514 H 0.79518 0.68188 0.79314 0.0
H515 H 0.81794 0.68358 0.81552 0.0
H516 H 0.79371 0.72238 0.82873 0.0
H517 H 0.81691 0.72432 0.85095 0.0
H518 H 0.89222 0.67918 0.83124 0.0
H519 H 0.86872 0.6791 0.85129 0.0
H520 H 0.90503 0.72877 0.80437 0.0
H521 H 0.88185 0.7289 0.82504 0.0
H522 H 0.911 0.71934 0.90044 0.0
H523 H 0.89076 0.72445 0.8806 0.0
H524 H 0.86901 0.66607 0.91204 0.0
H525 H 0.84874 0.67185 0.89345 0.0
N526 N 0.84173 0.69986 0.8813 0.0
N527 N 0.84679 0.70515 0.84009 0.0
C528 C 0.75515 0.61988 0.45013 0.0
C529 C 0.76072 0.63438 0.43704 0.0
C530 C 0.76725 0.61823 0.46212 0.0
C531 C 0.78515 0.63125 0.46171 0.0
C532 C 0.77872 0.64717 0.43629 0.0
C533 C 0.79078 0.64561 0.44847 0.0
C534 C 0.79823 0.62987 0.47447 0.0
C535 C 0.76261 0.63397 0.52096 0.0
C536 C 0.7538 0.61967 0.53441 0.0
C537 C 0.77568 0.63521 0.50771 0.0
C538 C 0.78002 0.62204 0.50739 0.0
C539 C 0.75795 0.60634 0.53384 0.0
C540 C 0.77104 0.60759 0.52054 0.0
C541 C 0.79523 0.62434 0.49518 0.0
C542 C 0.86601 0.6446 0.52659 0.0
C543 C 0.86226 0.6298 0.53831 0.0
C544 C 0.8537 0.64394 0.51277 0.0
C545 C 0.8375 0.62837 0.51006 0.0
C546 C 0.84604 0.61421 0.53552 0.0
C547 C 0.83374 0.61355 0.52163 0.0
C548 C 0.82387 0.62794 0.49664 0.0
C549 C 0.87045 0.63971 0.45708 0.0
C550 C 0.87803 0.65627 0.44772 0.0
C551 C 0.85366 0.63207 0.46596 0.0
C552 C 0.84429 0.64096 0.46571 0.0
C553 C 0.86825 0.66469 0.4467 0.0
C554 C 0.85156 0.6571 0.45556 0.0
C555 C 0.82707 0.63396 0.47614 0.0
H556 H 0.74139 0.60983 0.45129 0.0
H557 H 0.76256 0.60672 0.47166 0.0
H558 H 0.78358 0.65833 0.42611 0.0
H559 H 0.80454 0.65575 0.44764 0.0
H560 H 0.75962 0.64438 0.52094 0.0
H561 H 0.78277 0.64677 0.4982 0.0
H562 H 0.75156 0.59529 0.54421 0.0
H563 H 0.7744 0.59743 0.52079 0.0
H564 H 0.87841 0.65679 0.52823 0.0
H565 H 0.85673 0.65572 0.5045 0.0
H566 H 0.84263 0.60266 0.54452 0.0
H567 H 0.8212 0.60149 0.52005 0.0
H568 H 0.87767 0.63289 0.45801 0.0
H569 H 0.84812 0.61938 0.47326 0.0
H570 H 0.87355 0.67725 0.43915 0.0
H571 H 0.84451 0.66411 0.45494 0.0
N572 N 0.8141 0.63462 0.46589 0.0
N573 N 0.80806 0.62334 0.50532 0.0
C574 C 0.3553 0.22866 0.46392 0.0
C575 C 0.36548 0.23483 0.44592 0.0
C576 C 0.35806 0.21836 0.47778 0.0
C577 C 0.37144 0.2145 0.47422 0.0
C578 C 0.37903 0.23126 0.44249 0.0
C579 C 0.38202 0.22125 0.45655 0.0
C580 C 0.37272 0.20128 0.48671 0.0
C581 C 0.37922 0.24196 0.5345 0.0
C582 C 0.36466 0.23545 0.54798 0.0
C583 C 0.38126 0.23062 0.52121 0.0
C584 C 0.36887 0.21258 0.52132 0.0
C585 C 0.35213 0.21739 0.54757 0.0
C586 C 0.35436 0.2061 0.53463 0.0
C587 C 0.37103 0.20008 0.50834 0.0
C588 C 0.37911 0.13755 0.52715 0.0
C589 C 0.36696 0.1306 0.54351 0.0
C590 C 0.38059 0.15137 0.51535 0.0
C591 C 0.36969 0.1583 0.51934 0.0
C592 C 0.3563 0.13782 0.54767 0.0
C593 C 0.35764 0.15146 0.53573 0.0
C594 C 0.3713 0.17328 0.50745 0.0
C595 C 0.34989 0.13216 0.45625 0.0
C596 C 0.36392 0.13202 0.44596 0.0
C597 C 0.35301 0.14569 0.46976 0.0
C598 C 0.37015 0.15961 0.47295 0.0
C599 C 0.38117 0.14603 0.44947 0.0
C600 C 0.3842 0.15987 0.46254 0.0
C601 C 0.37288 0.17444 0.48588 0.0
H602 H 0.34456 0.23099 0.4667 0.0
H603 H 0.34905 0.21266 0.49062 0.0
H604 H 0.38708 0.23592 0.42872 0.0
H605 H 0.39225 0.21827 0.45324 0.0
H606 H 0.38923 0.25573 0.53449 0.0
H607 H 0.39267 0.23585 0.51118 0.0
H608 H 0.34047 0.21188 0.55718 0.0
H609 H 0.34458 0.19223 0.53485 0.0
H610 H 0.38753 0.13234 0.52343 0.0
H611 H 0.39056 0.15685 0.50345 0.0
H612 H 0.34711 0.13318 0.56045 0.0
H613 H 0.34923 0.15671 0.53937 0.0
H614 H 0.33637 0.12207 0.45359 0.0
H615 H 0.34197 0.14553 0.47734 0.0
H616 H 0.39238 0.14636 0.4422 0.0
H617 H 0.39752 0.17068 0.46471 0.0
N618 N 0.37356 0.18835 0.47639 0.0
N619 N 0.37036 0.18614 0.51779 0.0
C620 C 0.77477 0.12111 0.44744 0.0
C621 C 0.76446 0.12435 0.43391 0.0
C622 C 0.78733 0.13453 0.45975 0.0
C623 C 0.78962 0.15139 0.45903 0.0
C624 C 0.76722 0.14141 0.43273 0.0
C625 C 0.77976 0.15482 0.44512 0.0
C626 C 0.8027 0.16563 0.47221 0.0
C627 C 0.76162 0.12453 0.51404 0.0
C628 C 0.76862 0.1167 0.52646 0.0
C629 C 0.77283 0.14003 0.5034 0.0
C630 C 0.79117 0.14786 0.50507 0.0
C631 C 0.78696 0.12483 0.5284 0.0
C632 C 0.79809 0.14028 0.51789 0.0
C633 C 0.80345 0.16392 0.49368 0.0
C634 C 0.86168 0.23625 0.51874 0.0
C635 C 0.86895 0.23135 0.53465 0.0
C636 C 0.84892 0.22361 0.50584 0.0
C637 C 0.84347 0.20581 0.50815 0.0
C638 C 0.86332 0.21348 0.53707 0.0
C639 C 0.85073 0.20088 0.52396 0.0
C640 C 0.82942 0.19216 0.49513 0.0
C641 C 0.87294 0.21845 0.44756 0.0
C642 C 0.87262 0.23281 0.43892 0.0
C643 C 0.85878 0.20601 0.45918 0.0
C644 C 0.84381 0.20735 0.46198 0.0
C645 C 0.8575 0.23409 0.44196 0.0
C646 C 0.84308 0.22126 0.45306 0.0
C647 C 0.82883 0.19369 0.47365 0.0
H648 H 0.77292 0.10811 0.44883 0.0
H649 H 0.79519 0.13171 0.46991 0.0
H650 H 0.75972 0.14441 0.42221 0.0
H651 H 0.78157 0.16783 0.44406 0.0
H652 H 0.74753 0.11857 0.51237 0.0
H653 H 0.76721 0.14586 0.49387 0.0
H654 H 0.79273 0.11933 0.53823 0.0
H655 H 0.81219 0.14618 0.51954 0.0
H656 H 0.86575 0.24986 0.51627 0.0
H657 H 0.84302 0.22777 0.49444 0.0
H658 H 0.86831 0.20913 0.54939 0.0
H659 H 0.84657 0.18721 0.52628 0.0
H660 H 0.88395 0.21653 0.4451 0.0
H661 H 0.85937 0.19511 0.4657 0.0
H662 H 0.85677 0.24503 0.43592 0.0
H663 H 0.83151 0.22238 0.45505 0.0
N664 N 0.81547 0.18045 0.46299 0.0
N665 N 0.81677 0.17725 0.50428 0.0
C666 C 0.96367 0.53808 0.16614 0.0
C667 C 0.97839 0.55002 0.15439 0.0
C668 C 0.9641 0.52511 0.17771 0.0
C669 C 0.97914 0.52363 0.17755 0.0
C670 C -0.00646 0.54859 0.1546 0.0
C671 C -0.0062 0.53536 0.16583 0.0
C672 C 0.97933 0.50948 0.18906 0.0
C673 C 0.98726 0.55039 0.23578 0.0
C674 C 0.97365 0.54475 0.25041 0.0
C675 C 0.98809 0.53837 0.22256 0.0
C676 C 0.97526 0.52048 0.22363 0.0
C677 C 0.96083 0.52683 0.25146 0.0
C678 C 0.96171 0.5148 0.23828 0.0
C679 C 0.97655 0.50751 0.21051 0.0
C680 C 0.99075 0.44974 0.22915 0.0
C681 C 0.97703 0.43966 0.24306 0.0
C682 C 0.99086 0.4632 0.21806 0.0
C683 C 0.97718 0.46673 0.22054 0.0
C684 C 0.96346 0.44336 0.24571 0.0
C685 C 0.96361 0.45688 0.23464 0.0
C686 C 0.97739 0.48113 0.20905 0.0
C687 C 0.96515 0.43925 0.16238 0.0
C688 C 0.98034 0.44247 0.15144 0.0
C689 C 0.96507 0.45247 0.17403 0.0
C690 C 0.98003 0.46929 0.17473 0.0
C691 C -0.00471 0.45949 0.15211 0.0
C692 C -0.00496 0.47282 0.16344 0.0
C693 C 0.97997 0.48301 0.18761 0.0
H694 H 0.95162 0.53843 0.16607 0.0
H695 H 0.95255 0.51598 0.18645 0.0
H696 H 0.00528 0.5577 0.14615 0.0
H697 H 0.00554 0.5344 0.16558 0.0
H698 H -0.00273 0.56413 0.23452 0.0
H699 H -0.00103 0.54304 0.21179 0.0
H700 H 0.9503 0.52207 0.26272 0.0
H701 H 0.9518 0.50103 0.23955 0.0
H702 H 0.00133 0.44713 0.22669 0.0
H703 H 0.00174 0.47095 0.2077 0.0
H704 H 0.95284 0.43596 0.25653 0.0
H705 H 0.95305 0.45955 0.23696 0.0
H706 H 0.95321 0.42654 0.16186 0.0
H707 H 0.95327 0.44958 0.18247 0.0
H708 H 0.00734 0.46249 0.14423 0.0
H709 H 0.00673 0.48574 0.16388 0.0
N710 N 0.98094 0.49716 0.17835 0.0
N711 N 0.97564 0.49337 0.2197 0.0
C712 C 0.47004 0.4241 0.15817 0.0
C713 C 0.46203 0.42914 0.1433 0.0
C714 C 0.48291 0.43663 0.1712 0.0
C715 C 0.48795 0.45436 0.1695 0.0
C716 C 0.46676 0.44686 0.14226 0.0
C717 C 0.4797 0.45932 0.15503 0.0
C718 C 0.5026 0.46815 0.18154 0.0
C719 C 0.45838 0.43961 0.22707 0.0
C720 C 0.46228 0.43233 0.24385 0.0
C721 C 0.47164 0.45088 0.2135 0.0
C722 C 0.48905 0.45492 0.21626 0.0
C723 C 0.47972 0.43635 0.24655 0.0
C724 C 0.49298 0.44762 0.23295 0.0
C725 C 0.50345 0.46812 0.20316 0.0
C726 C 0.55719 0.54202 0.22243 0.0
C727 C 0.5664 0.53991 0.23854 0.0
C728 C 0.54566 0.52772 0.21039 0.0
C729 C 0.5433 0.51106 0.21402 0.0
C730 C 0.56397 0.52321 0.24221 0.0
C731 C 0.55241 0.50888 0.23014 0.0
C732 C 0.53033 0.49572 0.20208 0.0
C733 C 0.57299 0.53118 0.15755 0.0
C734 C 0.56707 0.53717 0.14129 0.0
C735 C 0.56094 0.51764 0.17034 0.0
C736 C 0.54275 0.51001 0.16725 0.0
C737 C 0.54888 0.52916 0.13799 0.0
C738 C 0.53689 0.51576 0.15079 0.0
C739 C 0.52958 0.49562 0.18042 0.0
H740 H 0.4668 0.4106 0.15931 0.0
H741 H 0.48929 0.43257 0.18212 0.0
H742 H 0.46054 0.45117 0.13143 0.0
H743 H 0.48333 0.47293 0.15355 0.0
H744 H 0.44507 0.43669 0.22448 0.0
H745 H 0.46832 0.4568 0.2012 0.0
H746 H 0.48321 0.43115 0.25948 0.0
H747 H 0.50638 0.45081 0.2356 0.0
H748 H 0.55886 0.55474 0.21914 0.0
H749 H 0.53838 0.52963 0.19843 0.0
H750 H 0.57069 0.52113 0.25471 0.0
H751 H 0.55053 0.49607 0.23341 0.0
H752 H 0.58692 0.53704 0.16049 0.0
H753 H 0.56585 0.51311 0.18256 0.0
H754 H 0.54384 0.5331 0.12531 0.0
H755 H 0.52296 0.50995 0.14789 0.0
N756 N 0.51567 0.48188 0.17108 0.0
N757 N 0.51734 0.48189 0.21259 0.0
C758 C 0.45021 0.016 0.22805 0.0
C759 C 0.44394 0.00274 0.24306 0.0
C760 C 0.46558 0.02059 0.21685 0.0
C761 C 0.47468 0.01164 0.22002 0.0
C762 C 0.45372 0.99461 0.24695 0.0
C763 C 0.46875 -0.00111 0.2355 0.0
C764 C 0.49046 0.01517 0.20787 0.0
C765 C 0.44912 0.00322 0.15916 0.0
C766 C 0.45396 0.01762 0.14617 0.0
C767 C 0.46135 0.0032 0.17259 0.0
C768 C 0.47857 0.01763 0.17333 0.0
C769 C 0.47121 0.03205 0.14706 0.0
C770 C 0.48343 0.03199 0.16041 0.0
C771 C 0.492 0.01734 0.1863 0.0
C772 C 0.543 0.99484 0.16629 0.0
C773 C 0.55156 0.00505 0.14889 0.0
C774 C 0.5326 -0.00121 0.17878 0.0
C775 C 0.53083 0.01331 0.17447 0.0
C776 C 0.54988 0.01965 0.14463 0.0
C777 C 0.5395 0.02367 0.15725 0.0
C778 C 0.51855 0.0165 0.18675 0.0
C779 C 0.56147 0.02421 0.22885 0.0
C780 C 0.55598 0.01197 0.24493 0.0
C781 C 0.54913 0.0257 0.21717 0.0
C782 C 0.53105 0.01481 0.22115 0.0
C783 C 0.53791 0.00154 0.24933 0.0
C784 C 0.52559 0.00298 0.23759 0.0
C785 C 0.51771 0.01563 0.2084 0.0
H786 H 0.44311 0.02264 0.22467 0.0
H787 H 0.47022 0.03104 0.20569 0.0
H788 H 0.44979 0.98484 0.25888 0.0
H789 H 0.47562 0.99196 0.23862 0.0
H790 H 0.43591 0.99193 0.15886 0.0
H791 H 0.45745 0.99184 0.18217 0.0
H792 H 0.47541 0.0432 0.13701 0.0
H793 H 0.49675 0.04312 0.16056 0.0
H794 H 0.54413 0.9836 0.17013 0.0
H795 H 0.52558 0.99018 0.19153 0.0
H796 H 0.5561 0.02764 0.13118 0.0
H797 H 0.53806 0.03473 0.15341 0.0
H798 H 0.57528 0.0324 0.22501 0.0
H799 H 0.55373 0.03528 0.20493 0.0
H800 H 0.53325 0.99225 0.26188 0.0
H801 H 0.51174 0.99457 0.24113 0.0
N802 N 0.50357 0.01469 0.218 0.0
N803 N 0.5059 0.01779 0.1766 0.0
C804 C 0.5441 0.98371 0.78685 0.0
C805 C 0.54106 0.97165 0.77104 0.0
C806 C 0.53028 0.98156 0.79945 0.0
C807 C 0.51321 0.96729 0.79645 0.0
C808 C 0.52398 0.95732 0.76816 0.0
C809 C 0.51013 0.95526 0.78065 0.0
C810 C 0.49834 0.96558 0.80872 0.0
C811 C 0.53254 0.95629 0.85146 0.0
C812 C 0.53819 0.96707 0.86903 0.0
C813 C 0.51943 0.95558 0.8389 0.0
C814 C 0.51199 0.96597 0.84335 0.0
C815 C 0.53025 0.97697 0.87376 0.0
C816 C 0.5174 0.97647 0.86106 0.0
C817 C 0.49804 0.96558 0.83043 0.0
C818 C 0.42576 0.95424 0.84921 0.0
C819 C 0.43003 0.96517 0.86656 0.0
C820 C 0.43897 0.95421 0.83731 0.0
C821 C 0.45677 0.96543 0.84223 0.0
C822 C 0.44786 0.97606 0.8717 0.0
C823 C 0.46105 0.97618 0.85966 0.0
C824 C 0.47103 0.96558 0.82993 0.0
C825 C 0.44352 0.98306 0.78715 0.0
C826 C 0.43414 0.97075 0.77166 0.0
C827 C 0.45571 0.9815 0.79903 0.0
C828 C 0.45872 0.9676 0.79564 0.0
C829 C 0.43748 0.95708 0.76799 0.0
C830 C 0.44979 0.95562 0.77977 0.0
C831 C 0.47149 0.96578 0.80825 0.0
H832 H 0.55716 0.99483 0.78944 0.0
H833 H 0.53285 0.99119 0.8113 0.0
H834 H 0.52126 0.94795 0.75594 0.0
H835 H 0.49699 0.9443 0.77796 0.0
H836 H 0.53831 0.94847 0.8473 0.0
H837 H 0.51505 0.94679 0.82583 0.0
H838 H 0.53379 0.98501 0.88746 0.0
H839 H 0.5117 0.98439 0.8651 0.0
H840 H 0.4122 0.94574 0.84473 0.0
H841 H 0.43523 0.94532 0.82438 0.0
H842 H 0.45165 0.98433 0.88522 0.0
H843 H 0.47466 0.98474 0.86397 0.0
H844 H 0.44115 0.99368 0.79038 0.0
H845 H 0.46275 0.99112 0.81093 0.0
H846 H 0.43059 0.94754 0.75598 0.0
H847 H 0.45212 0.94494 0.77674 0.0
N848 N 0.48503 0.96559 0.79849 0.0
N849 N 0.48437 0.9656 0.84012 0.0
C850 C 0.00242 0.55348 0.78949 0.0
C851 C 0.01556 0.56245 0.77453 0.0
C852 C 0.00268 0.54082 0.80187 0.0
C853 C 0.01619 0.53697 0.7997 0.0
C854 C 0.02883 0.55828 0.77208 0.0
C855 C 0.02907 0.5456 0.78447 0.0
C856 C 0.01652 0.52346 0.81261 0.0
C857 C 0.02668 0.56639 0.85845 0.0
C858 C 0.01192 0.56181 0.87105 0.0
C859 C 0.02728 0.55384 0.84594 0.0
C860 C 0.01326 0.53644 0.846 0.0
C861 C -0.0023 0.54439 0.87053 0.0
C862 C -0.0015 0.5318 0.85838 0.0
C863 C 0.01435 0.52282 0.83415 0.0
C864 C 0.03168 0.46914 0.8608 0.0
C865 C 0.01779 0.45903 0.87459 0.0
C866 C 0.03092 0.48118 0.84771 0.0
C867 C 0.01637 0.48349 0.8483 0.0
C868 C 0.0031 0.46124 0.87478 0.0
C869 C 0.00253 0.47352 0.862 0.0
C870 C 0.01585 0.4968 0.8353 0.0
C871 C 0.00436 0.4521 0.7935 0.0
C872 C 0.01673 0.456 0.77768 0.0
C873 C 0.00488 0.46546 0.8054 0.0
C874 C 0.01793 0.48302 0.80195 0.0
C875 C 0.02984 0.47357 0.77427 0.0
C876 C 0.03035 0.48698 0.78622 0.0
C877 C 0.01782 0.49727 0.81374 0.0
H878 H 0.99205 0.55642 0.79184 0.0
H879 H 0.99223 0.53394 0.81303 0.0
H880 H 0.03898 0.56473 0.76046 0.0
H881 H 0.03946 0.54265 0.78228 0.0
H882 H 0.03802 0.57953 0.85863 0.0
H883 H 0.0389 0.55759 0.83666 0.0
H884 H 0.9859 0.54039 0.87954 0.0
H885 H 0.98753 0.51841 0.85856 0.0
H886 H 0.04335 0.4681 0.86039 0.0
H887 H 0.04188 0.48897 0.83744 0.0
H888 H 0.99193 0.45345 0.88475 0.0
H889 H 0.99117 0.47509 0.86264 0.0
H890 H -0.00583 0.43868 0.79661 0.0
H891 H -0.0052 0.46207 0.817 0.0
H892 H 0.03941 0.47699 0.76202 0.0
H893 H 0.04038 0.50045 0.78311 0.0
N894 N 0.01822 0.51066 0.80321 0.0
N895 N 0.01406 0.50951 0.84468 0.0
C896 C 0.51518 0.57058 0.78008 0.0
C897 C 0.52207 0.56534 0.76383 0.0
C898 C 0.49996 0.55819 0.79046 0.0
C899 C 0.49154 0.54041 0.78481 0.0
C900 C 0.51293 0.54776 0.75741 0.0
C901 C 0.49779 0.53543 0.76776 0.0
C902 C 0.47688 0.52662 0.79703 0.0
C903 C 0.52411 0.5492 0.8389 0.0
C904 C 0.52211 0.5564 0.85731 0.0
C905 C 0.5098 0.53956 0.82596 0.0
C906 C 0.49323 0.53714 0.83097 0.0
C907 C 0.5056 0.55428 0.86209 0.0
C908 C 0.49125 0.54461 0.84911 0.0
C909 C 0.47763 0.52525 0.81857 0.0
C910 C 0.4275 0.45028 0.83397 0.0
C911 C 0.42097 0.45101 0.85348 0.0
C912 C 0.43661 0.46538 0.82205 0.0
C913 C 0.43909 0.48146 0.8292 0.0
C914 C 0.42325 0.46708 0.86049 0.0
C915 C 0.43231 0.48217 0.84849 0.0
C916 C 0.45061 0.49784 0.81783 0.0
C917 C 0.40413 0.46442 0.77871 0.0
C918 C 0.40816 0.4583 0.76069 0.0
C919 C 0.41745 0.47814 0.79003 0.0
C920 C 0.4351 0.48589 0.78372 0.0
C921 C 0.42576 0.4666 0.75395 0.0
C922 C 0.43907 0.4803 0.76531 0.0
C923 C 0.44954 0.49947 0.79639 0.0
H924 H 0.52194 0.58407 0.78529 0.0
H925 H 0.49511 0.56241 0.80327 0.0
H926 H 0.51772 0.54343 0.74465 0.0
H927 H 0.49141 0.52183 0.76297 0.0
H928 H 0.53669 0.5507 0.8347 0.0
H929 H 0.51158 0.53352 0.81237 0.0
H930 H 0.50358 0.55947 0.87629 0.0
H931 H 0.47851 0.54265 0.85343 0.0
H932 H 0.42587 0.4381 0.82808 0.0
H933 H 0.44225 0.46456 0.80755 0.0
H934 H 0.41865 0.46815 0.87559 0.0
H935 H 0.43437 0.4945 0.85447 0.0
H936 H 0.39074 0.45828 0.78441 0.0
H937 H 0.41398 0.48249 0.80393 0.0
H938 H 0.42927 0.46244 0.73995 0.0
H939 H 0.45256 0.48618 0.75999 0.0
N940 N 0.46284 0.5137 0.78682 0.0
N941 N 0.46445 0.51092 0.82809 0.0
C942 C 0.65049 0.77618 0.49599 0.0
C943 C 0.63597 0.7679 0.48281 0.0
C944 C 0.65225 0.78914 0.50965 0.0
C945 C 0.63938 0.79393 0.51069 0.0
C946 C 0.62314 0.77278 0.48375 0.0
C947 C 0.62491 0.78578 0.49749 0.0
C948 C 0.64159 0.80807 0.5248 0.0
C949 C 0.63158 0.763 0.56392 0.0
C950 C 0.647 0.76533 0.57304 0.0
C951 C 0.63124 0.77716 0.5553 0.0
C952 C 0.64625 0.79398 0.55578 0.0
C953 C 0.66186 0.78234 0.57403 0.0
C954 C 0.66141 0.79657 0.56565 0.0
C955 C 0.64621 0.80874 0.54556 0.0
C956 C 0.65138 0.87591 0.57665 0.0
C957 C 0.66549 0.8809 0.59024 0.0
C958 C 0.64603 0.86167 0.56332 0.0
C959 C 0.65511 0.8525 0.56262 0.0
C960 C 0.67405 0.8712 0.59003 0.0
C961 C 0.66903 0.85733 0.57632 0.0
C962 C 0.64983 0.8372 0.54885 0.0
C963 C 0.65728 0.88006 0.5044 0.0
C964 C 0.64178 0.8759 0.49388 0.0
C965 C 0.65814 0.86734 0.51609 0.0
C966 C 0.64348 0.8503 0.51753 0.0
C967 C 0.62713 0.85886 0.49555 0.0
C968 C 0.62802 0.84618 0.50715 0.0
C969 C 0.64446 0.8362 0.5282 0.0
H970 H 0.66055 0.77265 0.49577 0.0
H971 H 0.66382 0.79558 0.51921 0.0
H972 H 0.61193 0.76682 0.47359 0.0
H973 H 0.61496 0.78946 0.49783 0.0
H974 H 0.61974 0.7502 0.56336 0.0
H975 H 0.61928 0.77498 0.5481 0.0
H976 H 0.674 0.78463 0.58075 0.0
H977 H 0.6731 0.80949 0.5662 0.0
H978 H 0.64446 0.88304 0.57613 0.0
H979 H 0.63468 0.8578 0.55375 0.0
H980 H 0.68457 0.87413 0.60062 0.0
H981 H 0.67609 0.85031 0.57648 0.0
H982 H 0.66877 0.89309 0.50344 0.0
H983 H 0.67033 0.8707 0.52364 0.0
H984 H 0.61512 0.85513 0.48733 0.0
H985 H 0.61665 0.83304 0.50782 0.0
N986 N 0.64061 0.82169 0.517 0.0
N987 N 0.65037 0.82331 0.55669 0.0
C988 C 0.13945 0.76325 0.49567 0.0
C989 C 0.13621 0.76947 0.47738 0.0
C990 C 0.15144 0.77496 0.51005 0.0
C991 C 0.16008 0.79315 0.50668 0.0
C992 C 0.14567 0.78762 0.4736 0.0
C993 C 0.15736 0.79928 0.48809 0.0
C994 C 0.17215 0.80609 0.52201 0.0
C995 C 0.12007 0.77517 0.55552 0.0
C996 C 0.12076 0.76536 0.57196 0.0
C997 C 0.13553 0.78794 0.54595 0.0
C998 C 0.15194 0.79105 0.55262 0.0
C999 C 0.13722 0.76854 0.5786 0.0
C1000 C 0.15267 0.78138 0.56911 0.0
C1001 C 0.16841 0.80502 0.5433 0.0
C1002 C 0.20995 0.86562 0.59158 0.0
C1003 C 0.2283 0.87299 0.59109 0.0
C1004 C 0.19921 0.85218 0.578 0.0
C1005 C 0.20659 0.84595 0.56354 0.0
C1006 C 0.23562 0.86639 0.57694 0.0
C1007 C 0.22486 0.85293 0.56339 0.0
C1008 C 0.19506 0.83223 0.54869 0.0
C1009 C 0.23721 0.86187 0.49269 0.0
C1010 C 0.23909 0.87846 0.49552 0.0
C1011 C 0.2243 0.84735 0.5035 0.0
C1012 C 0.21327 0.84922 0.51758 0.0
C1013 C 0.2282 0.88035 0.50988 0.0
C1014 C 0.21538 0.86586 0.52078 0.0
C1015 C 0.19857 0.83353 0.52738 0.0
H1016 H 0.13248 0.74937 0.49912 0.0
H1017 H 0.15381 0.76976 0.52384 0.0
H1018 H 0.14401 0.79292 0.45944 0.0
H1019 H 0.16407 0.8132 0.48486 0.0
H1020 H 0.10756 0.77297 0.55005 0.0
H1021 H 0.13471 0.79551 0.53349 0.0
H1022 H 0.13817 0.76139 0.59145 0.0
H1023 H 0.16522 0.78376 0.57465 0.0
H1024 H 0.20388 0.8702 0.60252 0.0
H1025 H 0.18513 0.84687 0.57854 0.0
H1026 H 0.2497 0.87184 0.57607 0.0
H1027 H 0.23085 0.84807 0.5527 0.0
H1028 H 0.24522 0.85996 0.48149 0.0
H1029 H 0.22274 0.83459 0.50064 0.0
H1030 H 0.22939 0.89299 0.5124 0.0
H1031 H 0.20675 0.86755 0.53121 0.0
N1032 N 0.18707 0.82038 0.51495 0.0
N1033 N 0.18007 0.81805 0.5558 0.0
C1034 C 0.23287 0.36381 0.49069 0.0
C1035 C 0.22527 0.35193 0.47432 0.0
C1036 C 0.22267 0.36856 0.50257 0.0
C1037 C 0.20475 0.36152 0.49815 0.0
C1038 C 0.20758 0.34553 0.46945 0.0
C1039 C 0.19746 0.35037 0.48116 0.0
C1040 C 0.19317 0.36503 0.51136 0.0
C1041 C 0.20622 0.33124 0.54904 0.0
C1042 C 0.2149 0.33859 0.56762 0.0
C1043 C 0.1993 0.33947 0.53757 0.0
C1044 C 0.20124 0.35548 0.5441 0.0
C1045 C 0.21703 0.35472 0.57409 0.0
C1046 C 0.21013 0.36303 0.56248 0.0
C1047 C 0.19227 0.36315 0.53292 0.0
C1048 C 0.12375 0.35566 0.55608 0.0
C1049 C 0.12819 0.36356 0.57554 0.0
C1050 C 0.13688 0.35799 0.54216 0.0
C1051 C 0.15475 0.36874 0.54718 0.0
C1052 C 0.146 0.3745 0.5805 0.0
C1053 C 0.15914 0.3771 0.56643 0.0
C1054 C 0.16877 0.36909 0.53416 0.0
C1055 C 0.1414 0.38727 0.48951 0.0
C1056 C 0.13246 0.37461 0.4741 0.0
C1057 C 0.15321 0.38591 0.50254 0.0
C1058 C 0.15627 0.37194 0.50021 0.0
C1059 C 0.13522 0.36037 0.47247 0.0
C1060 C 0.14713 0.3592 0.48515 0.0
C1061 C 0.16938 0.37046 0.51252 0.0
H1062 H 0.24651 0.36896 0.49469 0.0
H1063 H 0.22865 0.37745 0.51539 0.0
H1064 H 0.20148 0.33659 0.4567 0.0
H1065 H 0.18372 0.34486 0.47735 0.0
H1066 H 0.2045 0.31892 0.54352 0.0
H1067 H 0.19194 0.33299 0.52386 0.0
H1068 H 0.22347 0.3606 0.58847 0.0
H1069 H 0.21147 0.37519 0.56802 0.0
H1070 H 0.11011 0.34687 0.55206 0.0
H1071 H 0.13296 0.35056 0.528 0.0
H1072 H 0.14974 0.38073 0.59544 0.0
H1073 H 0.17279 0.38519 0.57085 0.0
H1074 H 0.13961 0.39841 0.49118 0.0
H1075 H 0.16023 0.39592 0.51405 0.0
H1076 H 0.12816 0.35003 0.46133 0.0
H1077 H 0.14915 0.3482 0.48326 0.0
N1078 N 0.18158 0.36844 0.50207 0.0
N1079 N 0.18032 0.36553 0.54346 0.0
H1080 H 0.00707 0.40066 0.05899 0.0
H1081 H 0.97125 0.34945 0.08484 0.0
H1082 H 0.96446 0.36353 0.11358 0.0
H1083 H 0.02388 0.42428 0.10636 0.0
H1084 H 0.02442 0.44372 0.09735 0.0
H1085 H 0.02701 0.42964 0.07942 0.0
H1086 H 0.0009 0.42643 0.05812 0.0
H1087 H -0.00172 0.44055 0.07593 0.0
H1088 H 0.97996 0.41896 0.07054 0.0
H1089 H 0.96245 0.38342 0.13997 0.0
H1090 H 0.96317 0.40717 0.16048 0.0
H1091 H -0.0019 0.44513 0.11522 0.0
C1092 C -0.0021 0.39242 0.07079 0.0
C1093 C 0.9898 0.37399 0.06988 0.0
C1094 C 0.9776 0.3636 0.08534 0.0
C1095 C 0.97373 0.37148 0.10172 0.0
C1096 C 0.98196 0.38972 0.10216 0.0
C1097 C -0.00639 0.40004 0.08696 0.0
C1098 C -1e-05 0.41926 0.09044 0.0
C1099 C 0.02001 0.42984 0.09358 0.0
C1100 C -0.00556 0.42673 0.07271 0.0
C1101 C 0.9902 0.41818 0.11007 0.0
C1102 C 0.98003 0.40106 0.11671 0.0
C1103 C 0.97017 0.39685 0.13476 0.0
C1104 C 0.97055 0.41048 0.14622 0.0
C1105 C 0.9805 0.42815 0.13945 0.0
C1106 C 0.99048 0.4319 0.12109 0.0
H1107 H 0.59347 0.6139 0.06178 0.0
H1108 H 0.63823 0.60925 0.04351 0.0
H1109 H 0.6316 0.58826 0.07188 0.0
H1110 H 0.59758 0.61017 0.11767 0.0
H1111 H 0.57405 0.59785 0.12125 0.0
H1112 H 0.58363 0.61386 0.10101 0.0
H1113 H 0.56412 0.59007 0.0744 0.0
H1114 H 0.55458 0.57399 0.09448 0.0
H1115 H 0.56493 0.57021 0.0727 0.0
H1116 H 0.61777 0.56515 0.1 0.0
H1117 H 0.59854 0.54277 0.12544 0.0
H1118 H 0.5638 0.56389 0.12563 0.0
C1119 C 0.60209 0.60871 0.0639 0.0
C1120 C 0.61635 0.61318 0.0504 0.0
C1121 C 0.62727 0.60607 0.05373 0.0
C1122 C 0.62361 0.59414 0.0698 0.0
C1123 C 0.60915 0.58971 0.08254 0.0
C1124 C 0.59871 0.59698 0.07987 0.0
C1125 C 0.58341 0.58946 0.09479 0.0
C1126 C 0.58476 0.60368 0.10956 0.0
C1127 C 0.56572 0.5804 0.08341 0.0
C1128 C 0.58645 0.57634 0.10584 0.0
C1129 C 0.60143 0.57674 0.09876 0.0
C1130 C 0.60619 0.56495 0.10589 0.0
C1131 C 0.59522 0.55232 0.12041 0.0
C1132 C 0.57963 0.55153 0.12753 0.0
C1133 C 0.57551 0.564 0.12039 0.0
H1134 H 0.38378 0.97704 0.05619 0.0
H1135 H 0.38572 0.02688 0.05268 0.0
H1136 H 0.40674 0.03813 0.08144 0.0
H1137 H 0.38582 0.97564 0.11124 0.0
H1138 H 0.39939 0.96589 0.11086 0.0
H1139 H 0.38441 0.96175 0.09013 0.0
H1140 H 0.41017 0.97299 0.06394 0.0
H1141 H 0.42521 0.97709 0.08457 0.0
H1142 H 0.42923 0.99453 0.06724 0.0
H1143 H 0.42803 0.04406 0.11027 0.0
H1144 H 0.44793 0.04419 0.13678 0.0
H1145 H 0.43177 0.99043 0.12117 0.0
C1146 C 0.38859 0.99033 0.06142 0.0
C1147 C 0.38309 0.00108 0.05213 0.0
C1148 C 0.38973 0.01839 0.05954 0.0
C1149 C 0.40166 0.02489 0.07588 0.0
C1150 C 0.40676 0.01392 0.08468 0.0
C1151 C 0.40043 -0.003 0.07771 0.0
C1152 C 0.40807 0.9879 0.08965 0.0
C1153 C 0.39356 0.97185 0.10115 0.0
C1154 C 0.41881 0.98284 0.0755 0.0
C1155 C 0.41979 0.00237 0.10438 0.0
C1156 C 0.41886 0.01727 0.1013 0.0
C1157 C 0.42883 0.03246 0.11283 0.0
C1158 C 0.44014 0.03243 0.12778 0.0
C1159 C 0.44135 0.01731 0.13108 0.0
C1160 C 0.43092 0.00209 0.11926 0.0
H1161 H 0.38938 0.00545 0.94384 0.0
H1162 H 0.34381 0.95309 0.95004 0.0
H1163 H 0.35647 0.94212 0.92416 0.0
H1164 H 0.3955 0.00299 0.88853 0.0
H1165 H 0.41914 0.01538 0.89024 0.0
H1166 H 0.406 0.01923 0.90844 0.0
H1167 H 0.42131 0.01325 0.93839 0.0
H1168 H 0.43442 0.0093 0.92032 0.0
H1169 H 0.42112 0.99284 0.93906 0.0
H1170 H 0.37508 0.93654 0.89948 0.0
H1171 H 0.39784 0.93684 0.87704 0.0
H1172 H 0.43059 0.99313 0.88581 0.0
C1173 C 0.38197 0.99169 0.93961 0.0
C1174 C 0.36561 0.98009 0.94895 0.0
C1175 C 0.35634 0.9622 0.94304 0.0
C1176 C 0.36344 0.95587 0.92836 0.0
C1177 C 0.3797 0.96761 0.91963 0.0
C1178 C 0.38879 0.98517 0.92491 0.0
C1179 C 0.40622 0.99497 0.91363 0.0
C1180 C 0.40674 0.00897 0.89936 0.0
C1181 C 0.42167 0.00306 0.92876 0.0
C1182 C 0.40567 0.9801 0.9015 0.0
C1183 C 0.39026 0.96444 0.90512 0.0
C1184 C 0.3871 0.94877 0.89628 0.0
C1185 C 0.40008 0.9491 0.88345 0.0
C1186 C 0.41602 0.96502 0.87952 0.0
C1187 C 0.41867 0.9807 0.88859 0.0
H1188 H -0.00547 0.40193 0.97645 0.0
H1189 H 0.0231 0.37819 0.95133 0.0
H1190 H 0.03151 0.3977 0.921 0.0
H1191 H 0.9771 0.40637 0.93047 0.0
H1192 H 0.97955 0.4273 0.93683 0.0
H1193 H 0.97676 0.41227 0.95695 0.0
H1194 H 0.00569 0.43603 0.9739 0.0
H1195 H 0.00847 0.45122 0.95395 0.0
H1196 H 0.02572 0.4466 0.95893 0.0
H1197 H 0.03412 0.41796 0.89187 0.0
H1198 H 0.0329 0.43875 0.86793 0.0
H1199 H 0.00454 0.45056 0.91398 0.0
C1200 C 0.00271 0.40094 0.96467 0.0
C1201 C 0.00811 0.38852 0.96614 0.0
C1202 C 0.0189 0.3877 0.95051 0.0
C1203 C 0.02368 0.39867 0.93323 0.0
C1204 C 0.0178 0.41055 0.93207 0.0
C1205 C 0.00781 0.41194 0.94759 0.0
C1206 C 0.003 0.4256 0.94271 0.0
C1207 C 0.98292 0.41738 0.94168 0.0
C1208 C 0.01122 0.44076 0.9583 0.0
C1209 C 0.01145 0.43142 0.92176 0.0
C1210 C 0.0199 0.4226 0.91581 0.0
C1211 C 0.02783 0.42518 0.89655 0.0
C1212 C 0.02714 0.43712 0.88308 0.0
C1213 C 0.01869 0.44647 0.88896 0.0
C1214 C 0.01091 0.44356 0.90871 0.0
H1215 H 0.58532 0.62655 0.9414 0.0
H1216 H 0.60975 0.59496 0.94698 0.0
H1217 H 0.59016 0.57492 0.92037 0.0
H1218 H 0.54122 0.59027 0.93435 0.0
H1219 H 0.53525 0.6014 0.91596 0.0
H1220 H 0.55156 0.61382 0.93512 0.0
H1221 H 0.57382 0.63243 0.90656 0.0
H1222 H 0.55757 0.62006 0.88731 0.0
H1223 H 0.57869 0.62161 0.88626 0.0
H1224 H 0.56819 0.55815 0.89363 0.0
H1225 H 0.54412 0.54493 0.86858 0.0
H1226 H 0.53317 0.58674 0.87988 0.0
C1227 C 0.58657 0.61546 0.93693 0.0
C1228 C 0.59911 0.61237 0.94627 0.0
C1229 C 0.60025 0.59762 0.94011 0.0
C1230 C 0.5892 0.58615 0.92495 0.0
C1231 C 0.57698 0.58951 0.9161 0.0
C1232 C 0.5755 0.60372 0.92184 0.0
C1233 C 0.56087 0.60393 0.91007 0.0
C1234 C 0.54636 0.60225 0.92475 0.0
C1235 C 0.56818 0.62049 0.89676 0.0
C1236 C 0.55441 0.58761 0.89693 0.0
C1237 C 0.56401 0.57959 0.90063 0.0
C1238 C 0.56061 0.56433 0.89049 0.0
C1239 C 0.54698 0.55698 0.87618 0.0
C1240 C 0.53685 0.56486 0.87212 0.0
C1241 C 0.54065 0.58039 0.88271 0.0
H1242 H 0.98386 0.59375 0.9715 0.0
H1243 H 0.01333 0.64681 0.94778 0.0
H1244 H 0.02226 0.63608 0.91752 0.0
H1245 H 0.01541 0.58115 0.95513 0.0
H1246 H -0.00151 0.55897 0.94928 0.0
H1247 H -0.00514 0.57105 0.9691 0.0
H1248 H 0.96652 0.56534 0.95072 0.0
H1249 H 0.97016 0.55339 0.93075 0.0
H1250 H 0.96776 0.57178 0.92427 0.0
H1251 H 0.02594 0.61893 0.88857 0.0
H1252 H 0.0263 0.59736 0.86481 0.0
H1253 H -0.00349 0.55612 0.90937 0.0
C1254 C 0.99227 0.60314 0.95999 0.0
C1255 C -0.00216 0.62109 0.96189 0.0
C1256 C 0.00897 0.633 0.94663 0.0
C1257 C 0.01405 0.62702 0.92937 0.0
C1258 C 0.00811 0.60916 0.92784 0.0
C1259 C -0.0023 0.59746 0.94292 0.0
C1260 C -0.00677 0.57899 0.9378 0.0
C1261 C 0.00096 0.57214 0.95377 0.0
C1262 C 0.97323 0.56665 0.93576 0.0
C1263 C 0.00245 0.58204 0.91726 0.0
C1264 C 0.01088 0.59949 0.9117 0.0
C1265 C 0.01963 0.60527 0.89294 0.0
C1266 C 0.01985 0.5929 0.87958 0.0
C1267 C 0.01152 0.57494 0.88512 0.0
C1268 C 0.00281 0.56961 0.90435 0.0
H1269 H 0.3581 0.38955 0.94285 0.0
H1270 H 0.38769 0.36278 0.94139 0.0
H1271 H 0.40456 0.38051 0.91139 0.0
H1272 H 0.3564 0.39434 0.88713 0.0
H1273 H 0.35902 0.4158 0.88947 0.0
H1274 H 0.34826 0.39992 0.90965 0.0
H1275 H 0.37036 0.42203 0.93601 0.0
H1276 H 0.38122 0.43793 0.91594 0.0
H1277 H 0.39363 0.43145 0.93158 0.0
H1278 H 0.4195 0.40249 0.88322 0.0
H1279 H 0.43175 0.42738 0.85914 0.0
H1280 H 0.39217 0.4396 0.87884 0.0
C1281 C 0.36794 0.38722 0.93604 0.0
C1282 C 0.37157 0.37476 0.94438 0.0
C1283 C 0.3847 0.37225 0.9352 0.0
C1284 C 0.3943 0.38222 0.91814 0.0
C1285 C 0.39056 0.39457 0.91047 0.0
C1286 C 0.37767 0.39708 0.91909 0.0
C1287 C 0.3769 0.41187 0.90867 0.0
C1288 C 0.35909 0.40507 0.8981 0.0
C1289 C 0.38076 0.42669 0.92396 0.0
C1290 C 0.39161 0.41753 0.89312 0.0
C1291 C 0.39921 0.40729 0.89426 0.0
C1292 C 0.4135 0.41046 0.88198 0.0
C1293 C 0.42031 0.42457 0.86827 0.0
C1294 C 0.41284 0.43538 0.86699 0.0
C1295 C 0.39819 0.43163 0.87949 0.0
H1296 H 0.61244 0.01093 0.95367 0.0
H1297 H 0.61018 0.96121 0.96029 0.0
H1298 H 0.58937 0.94914 0.93117 0.0
H1299 H 0.56834 0.99447 0.94318 0.0
H1300 H 0.57202 0.01098 0.92458 0.0
H1301 H 0.58777 0.01596 0.9446 0.0
H1302 H 0.61252 0.02506 0.91739 0.0
H1303 H 0.59685 0.02024 0.89725 0.0
H1304 H 0.6099 0.00992 0.89721 0.0
H1305 H 0.56614 0.94183 0.90374 0.0
H1306 H 0.54412 0.94039 0.87951 0.0
H1307 H 0.56373 0.99577 0.88973 0.0
C1308 C 0.60775 -0.00245 0.94885 0.0
C1309 C 0.61282 0.98695 0.95926 0.0
C1310 C 0.60649 0.96956 0.95243 0.0
C1311 C 0.59466 0.96261 0.93595 0.0
C1312 C 0.58964 0.97336 0.9263 0.0
C1313 C 0.59623 0.99056 0.93234 0.0
C1314 C 0.58849 -0.00067 0.91998 0.0
C1315 C 0.57857 0.00554 0.93392 0.0
C1316 C 0.60279 0.01453 0.9072 0.0
C1317 C 0.57602 0.98423 0.90646 0.0
C1318 C 0.57685 0.96936 0.91021 0.0
C1319 C 0.56564 0.95351 0.90041 0.0
C1320 C 0.55321 0.95284 0.88657 0.0
C1321 C 0.55211 0.96796 0.88261 0.0
C1322 C 0.56397 0.98388 0.8925 0.0
H1323 H 0.6283 0.01944 0.07087 0.0
H1324 H 0.59984 0.96298 0.06217 0.0
H1325 H 0.57774 0.95995 0.08775 0.0
H1326 H 0.61987 0.01891 0.12603 0.0
H1327 H 0.61732 0.03778 0.12492 0.0
H1328 H 0.63151 0.03549 0.10676 0.0
H1329 H 0.61419 0.03847 0.07676 0.0
H1330 H 0.59988 0.04067 0.09481 0.0
H1331 H 0.59072 0.0238 0.0754 0.0
H1332 H 0.55804 0.96301 0.11279 0.0
H1333 H 0.54201 0.97193 0.13626 0.0
H1334 H 0.58321 0.02643 0.12923 0.0
C1335 C 0.61754 0.00643 0.07455 0.0
C1336 C 0.6158 0.99143 0.06457 0.0
C1337 C 0.60143 0.97465 0.06963 0.0
C1338 C 0.58882 0.97278 0.08415 0.0
C1339 C 0.59076 0.98782 0.09349 0.0
C1340 C 0.60476 0.00432 0.08898 0.0
C1341 C 0.60338 0.01837 0.10077 0.0
C1342 C 0.61895 0.02821 0.1155 0.0
C1343 C 0.60196 0.03107 0.08605 0.0
C1344 C 0.58632 0.00718 0.1124 0.0
C1345 C 0.57933 0.9896 0.10803 0.0
C1346 C 0.56347 0.97672 0.11653 0.0
C1347 C 0.55451 0.98192 0.12994 0.0
C1348 C 0.56142 -0.00013 0.13477 0.0
C1349 C 0.57755 0.01262 0.1258 0.0
H1350 H -0.00031 0.61179 0.05666 0.0
H1351 H 0.96431 0.62755 0.08199 0.0
H1352 H 0.95921 0.6089 0.11245 0.0
H1353 H 0.97393 0.56688 0.07239 0.0
H1354 H 0.99279 0.56485 0.07757 0.0
H1355 H -0.0058 0.58008 0.05844 0.0
H1356 H 0.02099 0.60532 0.07722 0.0
H1357 H 0.0196 0.59018 0.09648 0.0
H1358 H 0.01898 0.60945 0.10396 0.0
H1359 H 0.9588 0.58909 0.14054 0.0
H1360 H 0.96096 0.56784 0.16265 0.0
H1361 H -0.00556 0.56312 0.11692 0.0
C1362 C 0.99097 0.61141 0.06869 0.0
C1363 C 0.98251 0.62121 0.06715 0.0
C1364 C 0.97092 0.62014 0.08297 0.0
C1365 C 0.96801 0.60965 0.10031 0.0
C1366 C 0.97659 0.60015 0.10137 0.0
C1367 C 0.98765 0.60077 0.08585 0.0
C1368 C -0.00542 0.58866 0.09016 0.0
C1369 C 0.9885 0.57426 0.07367 0.0
C1370 C 0.01473 0.59903 0.09207 0.0
C1371 C 0.98579 0.5812 0.11063 0.0
C1372 C 0.97562 0.58811 0.11696 0.0
C1373 C 0.96655 0.58342 0.13561 0.0
C1374 C 0.96776 0.57121 0.148 0.0
C1375 C 0.97775 0.56357 0.14158 0.0
C1376 C 0.98688 0.56878 0.12259 0.0
H1377 H 0.40974 0.402 0.0386 0.0
H1378 H 0.37309 0.35153 0.06561 0.0
H1379 H 0.39208 0.35933 0.09623 0.0
H1380 H 0.45021 0.40512 0.0589 0.0
H1381 H 0.46052 0.42845 0.06273 0.0
H1382 H 0.44497 0.41794 0.04226 0.0
H1383 H 0.42656 0.43098 0.05645 0.0
H1384 H 0.44192 0.44137 0.07703 0.0
H1385 H 0.41894 0.42677 0.08272 0.0
H1386 H 0.41348 0.37446 0.12567 0.0
H1387 H 0.4359 0.39483 0.15027 0.0
H1388 H 0.45894 0.43444 0.10262 0.0
C1389 C 0.40583 0.39244 0.05078 0.0
C1390 C 0.38994 0.37618 0.04976 0.0
C1391 C 0.38529 0.36403 0.06603 0.0
C1392 C 0.39598 0.36836 0.08348 0.0
C1393 C 0.41137 0.38474 0.08421 0.0
C1394 C 0.41639 0.39645 0.0681 0.0
C1395 C 0.43304 0.41352 0.0729 0.0
C1396 C 0.44807 0.41642 0.05833 0.0
C1397 C 0.42992 0.42907 0.07224 0.0
C1398 C 0.43629 0.40986 0.09452 0.0
C1399 C 0.42376 0.39319 0.10081 0.0
C1400 C 0.42354 0.38742 0.12075 0.0
C1401 C 0.43635 0.39907 0.13461 0.0
C1402 C 0.44917 0.41629 0.12844 0.0
C1403 C 0.44922 0.42148 0.10798 0.0
H1404 H 0.67201 0.7265 0.40088 0.0
H1405 H 0.61902 0.68162 0.39664 0.0
H1406 H 0.60883 0.69527 0.42222 0.0
H1407 H 0.67116 0.73376 0.45521 0.0
H1408 H 0.68382 0.7573 0.45296 0.0
H1409 H 0.68685 0.74383 0.43453 0.0
H1410 H 0.68015 0.75892 0.40494 0.0
H1411 H 0.67707 0.77241 0.42328 0.0
H1412 H 0.65987 0.75911 0.40538 0.0
H1413 H 0.60447 0.71425 0.44808 0.0
H1414 H 0.60648 0.73662 0.47261 0.0
H1415 H 0.66228 0.76898 0.45917 0.0
C1416 C 0.65827 0.71949 0.40537 0.0
C1417 C 0.64631 0.70299 0.39678 0.0
C1418 C 0.62843 0.69427 0.40305 0.0
C1419 C 0.62251 0.70192 0.41755 0.0
C1420 C 0.63465 0.71828 0.42561 0.0
C1421 C 0.65216 0.72692 0.41977 0.0
C1422 C 0.66256 0.74439 0.4306 0.0
C1423 C 0.67694 0.74484 0.44413 0.0
C1424 C 0.67037 0.7596 0.41512 0.0
C1425 C 0.64817 0.74426 0.44347 0.0
C1426 C 0.63216 0.72912 0.44039 0.0
C1427 C 0.61695 0.72615 0.4506 0.0
C1428 C 0.61819 0.73897 0.4644 0.0
C1429 C 0.63454 0.75451 0.46787 0.0
C1430 C 0.64964 0.75713 0.45712 0.0
H1431 H 0.26296 0.95254 0.41274 0.0
H1432 H 0.31343 0.95608 0.40426 0.0
H1433 H 0.30648 0.93557 0.43316 0.0
H1434 H 0.26123 0.94896 0.46913 0.0
H1435 H 0.23786 0.93366 0.46927 0.0
H1436 H 0.24765 0.94996 0.44935 0.0
H1437 H 0.23412 0.92549 0.42171 0.0
H1438 H 0.22434 0.90914 0.4415 0.0
H1439 H 0.23859 0.90782 0.42252 0.0
H1440 H 0.29259 0.9123 0.4607 0.0
H1441 H 0.27326 0.88894 0.48519 0.0
H1442 H 0.23225 0.90116 0.47541 0.0
C1443 C 0.27271 0.94927 0.41713 0.0
C1444 C 0.28875 0.95594 0.40622 0.0
C1445 C 0.30108 0.9512 0.41243 0.0
C1446 C 0.29725 0.93957 0.42884 0.0
C1447 C 0.28114 0.93295 0.43897 0.0
C1448 C 0.26915 0.93777 0.43345 0.0
C1449 C 0.25237 0.92812 0.44596 0.0
C1450 C 0.24962 0.94094 0.45922 0.0
C1451 C 0.23642 0.91698 0.43209 0.0
C1452 C 0.25659 0.91676 0.45905 0.0
C1453 C 0.27327 0.91978 0.45492 0.0
C1454 C 0.2796 0.91 0.46426 0.0
C1455 C 0.26852 0.89673 0.47804 0.0
C1456 C 0.25135 0.89338 0.48233 0.0
C1457 C 0.24546 0.9037 0.47283 0.0
H1458 H 0.07616 0.34708 0.37304 0.0
H1459 H 0.04326 0.36486 0.40075 0.0
H1460 H 0.06434 0.37801 0.42953 0.0
H1461 H 0.08712 0.33411 0.41664 0.0
H1462 H 0.10956 0.34145 0.40943 0.0
H1463 H 0.09329 0.33579 0.38992 0.0
H1464 H 0.11214 0.36653 0.3735 0.0
H1465 H 0.12862 0.37226 0.39289 0.0
H1466 H 0.11918 0.38585 0.38905 0.0
H1467 H 0.08669 0.38463 0.45794 0.0
H1468 H 0.10897 0.38586 0.48173 0.0
H1469 H 0.12829 0.36608 0.43331 0.0
C1470 C 0.07363 0.35413 0.38492 0.0
C1471 C 0.05816 0.35499 0.3848 0.0
C1472 C 0.05518 0.36424 0.40056 0.0
C1473 C 0.06705 0.37169 0.41694 0.0
C1474 C 0.08199 0.37015 0.41693 0.0
C1475 C 0.08547 0.36192 0.40103 0.0
C1476 C 0.10182 0.36108 0.40497 0.0
C1477 C 0.09769 0.34198 0.40527 0.0
C1478 C 0.1163 0.37209 0.38917 0.0
C1479 C 0.10656 0.36931 0.42606 0.0
C1480 C 0.0951 0.37458 0.43275 0.0
C1481 C 0.096 0.38095 0.45263 0.0
C1482 C 0.10874 0.38165 0.46604 0.0
C1483 C 0.12037 0.37599 0.45948 0.0
C1484 C 0.1195 0.3703 0.43899 0.0
H1485 H 0.058 0.34369 0.27795 0.0
H1486 H 0.01486 0.29071 0.28899 0.0
H1487 H 0.02728 0.27951 0.26303 0.0
H1488 H 0.06198 0.33884 0.22271 0.0
H1489 H 0.08562 0.35231 0.22296 0.0
H1490 H 0.07265 0.35618 0.24138 0.0
H1491 H 0.09004 0.35284 0.27108 0.0
H1492 H 0.10303 0.34893 0.25277 0.0
H1493 H 0.09116 0.33316 0.27274 0.0
H1494 H 0.0455 0.27399 0.23732 0.0
H1495 H 0.06821 0.27463 0.21427 0.0
H1496 H 0.09885 0.33132 0.21976 0.0
C1497 C 0.05105 0.32975 0.27477 0.0
C1498 C 0.03546 0.31807 0.28546 0.0
C1499 C 0.02682 0.29991 0.28094 0.0
C1500 C 0.03375 0.29343 0.2662 0.0
C1501 C 0.04926 0.3053 0.25607 0.0
C1502 C 0.05776 0.32309 0.26013 0.0
C1503 C 0.07459 0.33302 0.24778 0.0
C1504 C 0.07364 0.34584 0.23282 0.0
C1505 C 0.09065 0.34254 0.26194 0.0
C1506 C 0.07443 0.31801 0.23645 0.0
C1507 C 0.05967 0.30213 0.24129 0.0
C1508 C 0.05703 0.28637 0.23324 0.0
C1509 C 0.06995 0.28687 0.22009 0.0
C1510 C 0.08531 0.30301 0.21523 0.0
C1511 C 0.08735 0.31875 0.22333 0.0
H1512 H 0.64691 0.71624 0.28472 0.0
H1513 H 0.69884 0.72451 0.29659 0.0
H1514 H 0.71093 0.74583 0.26794 0.0
H1515 H 0.65098 0.71922 0.22913 0.0
H1516 H 0.63864 0.73021 0.22718 0.0
H1517 H 0.63419 0.71512 0.2479 0.0
H1518 H 0.63957 0.73934 0.27429 0.0
H1519 H 0.64404 0.7545 0.25369 0.0
H1520 H 0.66007 0.75998 0.27359 0.0
H1521 H 0.71741 0.76777 0.23904 0.0
H1522 H 0.71763 0.78794 0.21285 0.0
H1523 H 0.66106 0.76383 0.21964 0.0
C1524 C 0.66084 0.72243 0.28131 0.0
C1525 C 0.67194 0.71874 0.29298 0.0
C1526 C 0.69006 0.72711 0.28785 0.0
C1527 C 0.69704 0.73923 0.27161 0.0
C1528 C 0.68568 0.74265 0.26054 0.0
C1529 C 0.66793 0.73437 0.26515 0.0
C1530 C 0.65848 0.74051 0.25139 0.0
C1531 C 0.64477 0.72536 0.23811 0.0
C1532 C 0.65005 0.74909 0.264 0.0
C1533 C 0.67372 0.75385 0.23853 0.0
C1534 C 0.68931 0.75489 0.24389 0.0
C1535 C 0.70523 0.76689 0.23457 0.0
C1536 C 0.70521 0.77824 0.21961 0.0
C1537 C 0.68936 0.77752 0.21414 0.0
C1538 C 0.67344 0.7649 0.22357 0.0
H1539 H 0.27376 0.96824 0.28095 0.0
H1540 H 0.25674 0.93224 0.33236 0.0
H1541 H 0.23139 0.91033 0.31237 0.0
H1542 H 0.22937 0.955 0.26109 0.0
H1543 H 0.23621 0.95664 0.23464 0.0
H1544 H 0.25175 0.97058 0.25379 0.0
H1545 H 0.27266 0.95945 0.24311 0.0
H1546 H 0.25719 0.94546 0.224 0.0
H1547 H 0.26459 0.93624 0.24326 0.0
H1548 H 0.20932 0.89173 0.28678 0.0
H1549 H 0.19216 0.87657 0.25609 0.0
H1550 H 0.22403 0.92351 0.21988 0.0
C1551 C 0.26441 0.95589 0.28806 0.0
C1552 C 0.26701 0.95192 0.30821 0.0
C1553 C 0.25489 0.93548 0.31693 0.0
C1554 C 0.24042 0.92301 0.30576 0.0
C1555 C 0.23837 0.92711 0.28579 0.0
C1556 C 0.25001 0.94308 0.2769 0.0
C1557 C 0.24559 0.94335 0.25449 0.0
C1558 C 0.24042 0.95722 0.25079 0.0
C1559 C 0.26092 0.94629 0.24039 0.0
C1560 C 0.22989 0.92494 0.25216 0.0
C1561 C 0.22584 0.91596 0.27054 0.0
C1562 C 0.21231 0.89861 0.27228 0.0
C1563 C 0.20275 0.89006 0.25471 0.0
C1564 C 0.20688 0.89877 0.23552 0.0
C1565 C 0.22048 0.91656 0.23435 0.0
H1566 H 0.64677 0.92693 0.28444 0.0
H1567 H 0.69858 0.9707 0.29899 0.0
H1568 H 0.71133 0.96198 0.27052 0.0
H1569 H 0.65941 0.89625 0.2728 0.0
H1570 H 0.64409 0.88613 0.25203 0.0
H1571 H 0.63915 0.89649 0.27273 0.0
H1572 H 0.63527 0.91619 0.24664 0.0
H1573 H 0.64018 0.90586 0.22583 0.0
H1574 H 0.65282 0.92935 0.22884 0.0
H1575 H 0.71847 0.94676 0.24187 0.0
H1576 H 0.71926 0.92698 0.21554 0.0
H1577 H 0.66235 0.89454 0.21896 0.0
C1578 C 0.6608 0.93478 0.28162 0.0
C1579 C 0.6717 0.94945 0.29401 0.0
C1580 C 0.68998 0.95942 0.28967 0.0
C1581 C 0.69732 0.95456 0.27354 0.0
C1582 C 0.68616 0.93988 0.26175 0.0
C1583 C 0.66826 0.93026 0.26552 0.0
C1584 C 0.65908 0.91485 0.25101 0.0
C1585 C 0.6499 0.89741 0.26286 0.0
C1586 C 0.64607 0.91668 0.23726 0.0
C1587 C 0.67465 0.91699 0.23878 0.0
C1588 C 0.69017 0.93151 0.24508 0.0
C1589 C 0.70635 0.93551 0.23663 0.0
C1590 C 0.70665 0.92424 0.22157 0.0
C1591 C 0.69087 0.90915 0.21511 0.0
C1592 C 0.6747 0.9058 0.22365 0.0
H1593 H 0.06011 0.72193 0.29215 0.0
H1594 H 0.00708 0.70574 0.27316 0.0
H1595 H 0.01887 0.72318 0.24131 0.0
H1596 H 0.07861 0.76585 0.27603 0.0
H1597 H 0.09935 0.76831 0.26817 0.0
H1598 H 0.08656 0.75303 0.28813 0.0
H1599 H 0.0868 0.728 0.26763 0.0
H1600 H 0.09955 0.74322 0.24755 0.0
H1601 H 0.07898 0.72369 0.24156 0.0
H1602 H 0.03671 0.7428 0.21179 0.0
H1603 H 0.05902 0.76507 0.18859 0.0
H1604 H 0.10021 0.77058 0.22935 0.0
C1605 C 0.05098 0.72182 0.28109 0.0
C1606 C 0.0327 0.71235 0.28484 0.0
C1607 C 0.02114 0.71287 0.27039 0.0
C1608 C 0.0277 0.72266 0.25227 0.0
C1609 C 0.04585 0.73201 0.24908 0.0
C1610 C 0.05733 0.73182 0.26322 0.0
C1611 C 0.07627 0.74421 0.25711 0.0
C1612 C 0.08575 0.75871 0.27332 0.0
C1613 C 0.08597 0.73417 0.25323 0.0
C1614 C 0.07369 0.75145 0.23737 0.0
C1615 C 0.05609 0.74406 0.23279 0.0
C1616 C 0.05054 0.74877 0.21529 0.0
C1617 C 0.06335 0.76157 0.20229 0.0
C1618 C 0.0815 0.76978 0.20706 0.0
C1619 C 0.08658 0.76445 0.22485 0.0
H1620 H 0.28539 0.34898 0.28823 0.0
H1621 H 0.28329 0.29904 0.29035 0.0
H1622 H 0.26161 0.28803 0.26213 0.0
H1623 H 0.24056 0.33218 0.28055 0.0
H1624 H 0.24349 0.34941 0.2635 0.0
H1625 H 0.25986 0.35372 0.2825 0.0
H1626 H 0.28386 0.36438 0.2541 0.0
H1627 H 0.26758 0.36021 0.23498 0.0
H1628 H 0.28087 0.35023 0.2326 0.0
H1629 H 0.23832 0.28193 0.2353 0.0
H1630 H 0.21606 0.28147 0.21217 0.0
H1631 H 0.23445 0.33578 0.22762 0.0
C1632 C 0.28058 0.33578 0.28265 0.0
C1633 C 0.28605 0.32487 0.29153 0.0
C1634 C 0.27935 0.30767 0.28373 0.0
C1635 C 0.26703 0.30131 0.26772 0.0
C1636 C 0.2617 0.31236 0.2596 0.0
C1637 C 0.2684 0.32928 0.26673 0.0
C1638 C 0.26012 0.33837 0.25611 0.0
C1639 C 0.25043 0.34373 0.27159 0.0
C1640 C 0.27393 0.35423 0.24371 0.0
C1641 C 0.24738 0.3238 0.24216 0.0
C1642 C 0.24852 0.30892 0.24423 0.0
C1643 C 0.23749 0.29359 0.23339 0.0
C1644 C 0.22493 0.29348 0.22022 0.0
C1645 C 0.22347 0.30858 0.21806 0.0
C1646 C 0.23506 0.32395 0.22906 0.0
H1647 H 0.30156 0.35904 0.40074 0.0
H1648 H 0.26946 0.30251 0.3939 0.0
H1649 H 0.24861 0.30175 0.41973 0.0
H1650 H 0.29367 0.36061 0.4564 0.0
H1651 H 0.29263 0.38031 0.45428 0.0
H1652 H 0.30613 0.37642 0.43667 0.0
H1653 H 0.28983 0.38 0.40596 0.0
H1654 H 0.27629 0.38387 0.42345 0.0
H1655 H 0.26621 0.36657 0.40465 0.0
H1656 H 0.2302 0.30696 0.44401 0.0
H1657 H 0.21483 0.31805 0.46544 0.0
H1658 H 0.25823 0.37129 0.45685 0.0
C1659 C 0.2903 0.3465 0.40498 0.0
C1660 C 0.28716 0.33082 0.39538 0.0
C1661 C 0.27213 0.31468 0.40104 0.0
C1662 C 0.26024 0.31409 0.41577 0.0
C1663 C 0.26354 0.32975 0.42472 0.0
C1664 C 0.27817 0.34567 0.41963 0.0
C1665 C 0.27788 0.36064 0.43066 0.0
C1666 C 0.29351 0.37005 0.44538 0.0
C1667 C 0.27752 0.37352 0.41526 0.0
C1668 C 0.26062 0.35063 0.44237 0.0
C1669 C 0.25269 0.33281 0.43882 0.0
C1670 C 0.23631 0.32086 0.44707 0.0
C1671 C 0.22765 0.32728 0.4591 0.0
C1672 C 0.23535 0.34549 0.46273 0.0
C1673 C 0.25217 0.35729 0.45451 0.0
H1674 H 0.67331 0.94426 0.40166 0.0
H1675 H 0.62253 0.94064 0.40552 0.0
H1676 H 0.61488 0.92145 0.43586 0.0
H1677 H 0.65793 0.8999 0.41442 0.0
H1678 H 0.67711 0.90469 0.42901 0.0
H1679 H 0.67894 0.91897 0.40842 0.0
H1680 H 0.69235 0.94539 0.43351 0.0
H1681 H 0.69047 0.93116 0.45423 0.0
H1682 H 0.68048 0.94443 0.4566 0.0
H1683 H 0.61239 0.90186 0.465 0.0
H1684 H 0.61478 0.8824 0.49003 0.0
H1685 H 0.66695 0.8984 0.46662 0.0
C1686 C 0.66064 0.93955 0.40898 0.0
C1687 C 0.64853 0.94399 0.40128 0.0
C1688 C 0.63201 0.93742 0.41117 0.0
C1689 C 0.62758 0.92656 0.42845 0.0
C1690 C 0.6398 0.92241 0.43561 0.0
C1691 C 0.65597 0.92866 0.42616 0.0
C1692 C 0.66642 0.9216 0.43634 0.0
C1693 C 0.67032 0.91064 0.42114 0.0
C1694 C 0.68344 0.93654 0.44573 0.0
C1695 C 0.65352 0.91024 0.45285 0.0
C1696 C 0.6383 0.911 0.45228 0.0
C1697 C 0.62426 0.9012 0.46563 0.0
C1698 C 0.62571 0.89014 0.47972 0.0
C1699 C 0.64105 0.88889 0.4803 0.0
C1700 C 0.65519 0.89929 0.46682 0.0
H1701 H 0.06237 0.74228 0.39274 0.0
H1702 H 0.05848 0.69161 0.38791 0.0
H1703 H 0.08141 0.70073 0.41453 0.0
H1704 H 0.1087 0.76823 0.40014 0.0
H1705 H 0.10714 0.78277 0.41835 0.0
H1706 H 0.09066 0.77217 0.39886 0.0
H1707 H 0.0663 0.75917 0.42692 0.0
H1708 H 0.0827 0.76976 0.4465 0.0
H1709 H 0.06773 0.7464 0.44739 0.0
H1710 H 0.10565 0.7162 0.4413 0.0
H1711 H 0.12795 0.73596 0.46634 0.0
H1712 H 0.11385 0.77535 0.45454 0.0
C1713 C 0.06637 0.73309 0.39716 0.0
C1714 C 0.05874 0.71628 0.38813 0.0
C1715 C 0.06418 0.70457 0.39461 0.0
C1716 C 0.0772 0.70965 0.40969 0.0
C1717 C 0.08445 0.72637 0.41825 0.0
C1718 C 0.07909 0.73783 0.41228 0.0
C1719 C 0.08854 0.7549 0.42404 0.0
C1720 C 0.09941 0.77043 0.40948 0.0
C1721 C 0.07554 0.75771 0.43698 0.0
C1722 C 0.10026 0.7514 0.43744 0.0
C1723 C 0.09781 0.73494 0.4339 0.0
C1724 C 0.10755 0.72906 0.44429 0.0
C1725 C 0.12012 0.74036 0.45859 0.0
C1726 C 0.12277 0.7573 0.46246 0.0
C1727 C 0.11249 0.76268 0.45177 0.0
H1728 H 0.30509 0.03522 0.74185 0.0
H1729 H 0.36179 0.06756 0.73469 0.0
H1730 H 0.36258 0.08733 0.76183 0.0
H1731 H 0.29735 0.07052 0.74962 0.0
H1732 H 0.28018 0.05935 0.76854 0.0
H1733 H 0.28395 0.04693 0.74929 0.0
H1734 H 0.28789 0.02898 0.77775 0.0
H1735 H 0.28409 0.04132 0.79709 0.0
H1736 H 0.30391 0.04029 0.7976 0.0
H1737 H 0.35746 0.10433 0.78831 0.0
H1738 H 0.34658 0.11787 0.81283 0.0
H1739 H 0.29315 0.07469 0.80378 0.0
C1740 C 0.31766 0.04636 0.74616 0.0
C1741 C 0.33338 0.04981 0.73616 0.0
C1742 C 0.34957 0.06463 0.7421 0.0
C1743 C 0.35018 0.07594 0.75754 0.0
C1744 C 0.3345 0.0723 0.76696 0.0
C1745 C 0.31853 0.05789 0.76158 0.0
C1746 C 0.30359 0.05746 0.77375 0.0
C1747 C 0.2905 0.05864 0.75944 0.0
C1748 C 0.29433 0.04103 0.78736 0.0
C1749 C 0.3137 0.07397 0.78658 0.0
C1750 C 0.33151 0.08222 0.78245 0.0
C1751 C 0.34355 0.0979 0.79189 0.0
C1752 C 0.33724 0.10542 0.80593 0.0
C1753 C 0.31902 0.09728 0.81047 0.0
C1754 C 0.30714 0.08128 0.80064 0.0
H1755 H 0.92982 0.27719 0.73128 0.0
H1756 H 0.97536 0.27249 0.71748 0.0
H1757 H 0.96605 0.24988 0.74452 0.0
H1758 H 0.93004 0.27169 0.78647 0.0
H1759 H 0.90637 0.25953 0.7883 0.0
H1760 H 0.91715 0.27576 0.7685 0.0
H1761 H 0.89906 0.2524 0.74082 0.0
H1762 H 0.88826 0.23611 0.76051 0.0
H1763 H 0.89966 0.2324 0.73982 0.0
H1764 H 0.95044 0.22635 0.77208 0.0
H1765 H 0.93029 0.20458 0.79757 0.0
H1766 H 0.89608 0.22618 0.79365 0.0
C1767 C 0.93793 0.2715 0.73395 0.0
C1768 C 0.95329 0.27657 0.72219 0.0
C1769 C 0.96354 0.26883 0.72631 0.0
C1770 C 0.95836 0.25598 0.74164 0.0
C1771 C 0.94303 0.25119 0.75282 0.0
C1772 C 0.93306 0.25884 0.74921 0.0
C1773 C 0.91699 0.25129 0.76297 0.0
C1774 C 0.91769 0.26541 0.77742 0.0
C1775 C 0.89999 0.24253 0.75027 0.0
C1776 C 0.91922 0.23791 0.77464 0.0
C1777 C 0.93431 0.23803 0.7687 0.0
C1778 C 0.93868 0.22629 0.77698 0.0
C1779 C 0.9272 0.21402 0.79152 0.0
C1780 C 0.91154 0.21359 0.79758 0.0
C1781 C 0.90778 0.22594 0.78918 0.0
H1782 H 0.7096 0.64835 0.73843 0.0
H1783 H 0.71844 0.69776 0.71441 0.0
H1784 H 0.74189 0.71373 0.74009 0.0
H1785 H 0.71793 0.66194 0.79263 0.0
H1786 H 0.72844 0.64941 0.7971 0.0
H1787 H 0.71129 0.6421 0.77826 0.0
H1788 H 0.73231 0.64161 0.75057 0.0
H1789 H 0.7495 0.64895 0.76926 0.0
H1790 H 0.75325 0.66119 0.7459 0.0
H1791 H 0.76625 0.72415 0.76672 0.0
H1792 H 0.78914 0.72789 0.79136 0.0
H1793 H 0.76346 0.67144 0.79752 0.0
C1794 C 0.71628 0.66253 0.73867 0.0
C1795 C 0.71221 0.67181 0.72438 0.0
C1796 C 0.72129 0.69037 0.72528 0.0
C1797 C 0.73461 0.69954 0.73981 0.0
C1798 C 0.73848 0.68994 0.75346 0.0
C1799 C 0.72944 0.67182 0.75306 0.0
C1800 C 0.73659 0.66447 0.76852 0.0
C1801 C 0.72274 0.65385 0.78511 0.0
C1802 C 0.74331 0.65341 0.75792 0.0
C1803 C 0.75151 0.68126 0.77721 0.0
C1804 C 0.75231 0.69586 0.76861 0.0
C1805 C 0.7656 0.71281 0.77372 0.0
C1806 C 0.7785 0.71482 0.78774 0.0
C1807 C 0.77806 0.69995 0.79624 0.0
C1808 C 0.76418 0.68303 0.79114 0.0
H1809 H 0.71948 0.65995 0.61973 0.0
H1810 H 0.67279 0.60841 0.62625 0.0
H1811 H 0.68436 0.59683 0.59967 0.0
H1812 H 0.72395 0.65833 0.56529 0.0
H1813 H 0.74764 0.66981 0.5657 0.0
H1814 H 0.73577 0.67389 0.58544 0.0
H1815 H 0.75134 0.6661 0.61338 0.0
H1816 H 0.76331 0.66206 0.59373 0.0
H1817 H 0.75025 0.64526 0.61224 0.0
H1818 H 0.70117 0.59102 0.57215 0.0
H1819 H 0.72185 0.59152 0.5459 0.0
H1820 H 0.75731 0.64688 0.55793 0.0
C1821 C 0.71169 0.64621 0.61563 0.0
C1822 C 0.69525 0.63507 0.62506 0.0
C1823 C 0.68544 0.61718 0.61922 0.0
C1824 C 0.69189 0.61049 0.60415 0.0
C1825 C 0.70814 0.62187 0.59509 0.0
C1826 C 0.7179 0.63935 0.60064 0.0
C1827 C 0.73491 0.64888 0.58855 0.0
C1828 C 0.7356 0.66359 0.57547 0.0
C1829 C 0.7509 0.65599 0.60283 0.0
C1830 C 0.73321 0.63406 0.57529 0.0
C1831 C 0.71771 0.61856 0.57927 0.0
C1832 C 0.71335 0.60308 0.56891 0.0
C1833 C 0.72519 0.60346 0.5541 0.0
C1834 C 0.74112 0.61925 0.54979 0.0
C1835 C 0.7451 0.63468 0.5606 0.0
H1836 H 0.31958 0.05146 0.62214 0.0
H1837 H 0.3703 0.05662 0.63342 0.0
H1838 H 0.38348 0.07874 0.60574 0.0
H1839 H 0.32478 0.05724 0.56586 0.0
H1840 H 0.31337 0.06923 0.56534 0.0
H1841 H 0.3078 0.05263 0.58455 0.0
H1842 H 0.31352 0.07539 0.61311 0.0
H1843 H 0.31926 0.09207 0.59406 0.0
H1844 H 0.33456 0.09545 0.61415 0.0
H1845 H 0.39161 0.1028 0.57955 0.0
H1846 H 0.39374 0.12559 0.55616 0.0
H1847 H 0.33723 0.10323 0.56099 0.0
C1848 C 0.33341 0.05701 0.6186 0.0
C1849 C 0.34393 0.05234 0.62997 0.0
C1850 C 0.36197 0.05993 0.62484 0.0
C1851 C 0.36957 0.07252 0.60917 0.0
C1852 C 0.35887 0.07713 0.5986 0.0
C1853 C 0.34112 0.06941 0.60294 0.0
C1854 C 0.3326 0.07712 0.59006 0.0
C1855 C 0.31882 0.06323 0.57559 0.0
C1856 C 0.32452 0.08551 0.60366 0.0
C1857 C 0.34843 0.09084 0.57825 0.0
C1858 C 0.36346 0.09061 0.58326 0.0
C1859 C 0.37986 0.10286 0.57521 0.0
C1860 C 0.38092 0.11572 0.56183 0.0
C1861 C 0.36565 0.11625 0.55658 0.0
C1862 C 0.3492 0.10338 0.56475 0.0
H1863 H 0.94997 0.27323 0.61238 0.0
H1864 H 0.93807 0.31428 0.62443 0.0
H1865 H 0.9141 0.301 0.59915 0.0
H1866 H 0.94146 0.27002 0.55742 0.0
H1867 H 0.93194 0.24657 0.5568 0.0
H1868 H 0.94848 0.25956 0.5755 0.0
H1869 H 0.92729 0.24061 0.60472 0.0
H1870 H 0.91066 0.22762 0.58613 0.0
H1871 H 0.90582 0.23823 0.6067 0.0
H1872 H 0.89048 0.28247 0.57411 0.0
H1873 H 0.86941 0.26053 0.5499 0.0
H1874 H 0.89761 0.23234 0.55258 0.0
C1875 C 0.94237 0.27947 0.60962 0.0
C1876 C 0.94586 0.29477 0.62039 0.0
C1877 C 0.93566 0.30257 0.61632 0.0
C1878 C 0.922 0.29512 0.60201 0.0
C1879 C 0.91882 0.27996 0.59176 0.0
C1880 C 0.92878 0.27228 0.59524 0.0
C1881 C 0.92252 0.25597 0.58222 0.0
C1882 C 0.93696 0.25817 0.56708 0.0
C1883 C 0.9162 0.23964 0.59576 0.0
C1884 C 0.90734 0.25555 0.57114 0.0
C1885 C 0.90543 0.2695 0.57688 0.0
C1886 C 0.89198 0.27161 0.56925 0.0
C1887 C 0.88014 0.25912 0.55536 0.0
C1888 C 0.88187 0.24473 0.54908 0.0
C1889 C 0.89576 0.24306 0.55711 0.0
H1890 H 0.3246 0.25571 0.64673 0.0
H1891 H 0.34238 0.30743 0.62196 0.0
H1892 H 0.35755 0.30156 0.5936 0.0
H1893 H 0.36485 0.25471 0.63332 0.0
H1894 H 0.35247 0.23159 0.6276 0.0
H1895 H 0.34449 0.24066 0.64672 0.0
H1896 H 0.31498 0.22772 0.62723 0.0
H1897 H 0.32291 0.21878 0.60798 0.0
H1898 H 0.31517 0.23321 0.60059 0.0
H1899 H 0.36756 0.2883 0.56564 0.0
H1900 H 0.37315 0.26975 0.54203 0.0
H1901 H 0.35072 0.22779 0.58703 0.0
C1902 C 0.33192 0.26592 0.63553 0.0
C1903 C 0.33229 0.282 0.63649 0.0
C1904 C 0.34203 0.29505 0.62157 0.0
C1905 C 0.35064 0.29181 0.60539 0.0
C1906 C 0.34966 0.27562 0.60464 0.0
C1907 C 0.34079 0.26302 0.61956 0.0
C1908 C 0.34118 0.24649 0.61502 0.0
C1909 C 0.35136 0.24318 0.63165 0.0
C1910 C 0.32245 0.23062 0.61255 0.0
C1911 C 0.35109 0.25147 0.59482 0.0
C1912 C 0.35594 0.26831 0.58905 0.0
C1913 C 0.36415 0.27522 0.57022 0.0
C1914 C 0.36735 0.26459 0.55693 0.0
C1915 C 0.36239 0.24722 0.56255 0.0
C1916 C 0.35448 0.24086 0.58199 0.0
H1917 H 0.69977 0.06029 0.6137 0.0
H1918 H 0.72445 0.02882 0.61377 0.0
H1919 H 0.7405 0.04325 0.58188 0.0
H1920 H 0.69781 0.06435 0.55648 0.0
H1921 H 0.70353 0.08694 0.55839 0.0
H1922 H 0.69126 0.07181 0.57879 0.0
H1923 H 0.71483 0.09234 0.60496 0.0
H1924 H 0.72712 0.10747 0.5847 0.0
H1925 H 0.73752 0.09883 0.60057 0.0
H1926 H 0.75618 0.06289 0.55282 0.0
H1927 H 0.77241 0.08819 0.52973 0.0
H1928 H 0.73918 0.1085 0.54936 0.0
C1929 C 0.70815 0.05612 0.60655 0.0
C1930 C 0.71075 0.04332 0.61585 0.0
C1931 C 0.72226 0.03855 0.60667 0.0
C1932 C 0.73131 0.04658 0.58853 0.0
C1933 C 0.72882 0.05946 0.5799 0.0
C1934 C 0.71761 0.06432 0.58863 0.0
C1935 C 0.71922 0.08019 0.57788 0.0
C1936 C 0.70192 0.07554 0.56725 0.0
C1937 C 0.72503 0.09561 0.59293 0.0
C1938 C 0.73353 0.08384 0.5623 0.0
C1939 C 0.73853 0.07143 0.56343 0.0
C1940 C 0.75227 0.07259 0.55161 0.0
C1941 C 0.76148 0.08705 0.53866 0.0
C1942 C 0.75707 0.1003 0.53784 0.0
C1943 C 0.74262 0.0984 0.54942 0.0
H1944 H 0.93236 0.67536 0.62751 0.0
H1945 H 0.93741 0.62922 0.62946 0.0
H1946 H 0.91512 0.61556 0.60207 0.0
H1947 H 0.88566 0.65272 0.61902 0.0
H1948 H 0.88706 0.66944 0.60218 0.0
H1949 H 0.90308 0.67519 0.62213 0.0
H1950 H 0.92815 0.68917 0.595 0.0
H1951 H 0.91222 0.68339 0.57496 0.0
H1952 H 0.92794 0.67622 0.57344 0.0
H1953 H 0.89243 0.60734 0.57372 0.0
H1954 H 0.87148 0.60527 0.54733 0.0
H1955 H 0.88158 0.65685 0.56492 0.0
C1956 C 0.92879 0.66234 0.6223 0.0
C1957 C 0.93667 0.65337 0.63068 0.0
C1958 C 0.93155 0.63635 0.62332 0.0
C1959 C 0.91891 0.6285 0.60775 0.0
C1960 C 0.91151 0.63783 0.59977 0.0
C1961 C 0.91627 0.65436 0.60688 0.0
C1962 C 0.90659 0.66179 0.59574 0.0
C1963 C 0.8949 0.66496 0.61066 0.0
C1964 C 0.9195 0.67864 0.5841 0.0
C1965 C 0.89568 0.6469 0.58112 0.0
C1966 C 0.89863 0.63316 0.58364 0.0
C1967 C 0.89 0.61801 0.57169 0.0
C1968 C 0.87807 0.61692 0.5568 0.0
C1969 C 0.87492 0.63092 0.55398 0.0
C1970 C 0.88387 0.64604 0.56642 0.0
H1971 H 0.93602 0.66065 0.7363 0.0
H1972 H 0.98369 0.71154 0.73061 0.0
H1973 H 0.97243 0.72348 0.75707 0.0
H1974 H 0.90669 0.67654 0.74187 0.0
H1975 H 0.89251 0.66003 0.76012 0.0
H1976 H 0.90477 0.65531 0.74161 0.0
H1977 H 0.91866 0.64696 0.77103 0.0
H1978 H 0.90643 0.65167 0.78965 0.0
H1979 H 0.93004 0.66246 0.79139 0.0
H1980 H 0.95536 0.73013 0.78316 0.0
H1981 H 0.93378 0.73093 0.80689 0.0
H1982 H 0.89727 0.67577 0.79496 0.0
C1983 C 0.94417 0.67426 0.74075 0.0
C1984 C 0.96075 0.68516 0.73144 0.0
C1985 C 0.97096 0.70294 0.73757 0.0
C1986 C 0.96468 0.70984 0.7526 0.0
C1987 C 0.94821 0.69877 0.76134 0.0
C1988 C 0.93811 0.68136 0.75566 0.0
C1989 C 0.92061 0.67238 0.76688 0.0
C1990 C 0.90524 0.66568 0.75171 0.0
C1991 C 0.91884 0.65749 0.78055 0.0
C1992 C 0.92237 0.6875 0.77962 0.0
C1993 C 0.93839 0.7026 0.77629 0.0
C1994 C 0.94279 0.71837 0.78596 0.0
C1995 C 0.93043 0.71872 0.79931 0.0
C1996 C 0.91387 0.70341 0.80284 0.0
C1997 C 0.90992 0.68761 0.79289 0.0
H1998 H 0.32394 0.27839 0.74306 0.0
H1999 H 0.26958 0.26422 0.73476 0.0
H2000 H 0.26023 0.24116 0.76097 0.0
H2001 H 0.3158 0.23543 0.74852 0.0
H2002 H 0.33222 0.24076 0.76788 0.0
H2003 H 0.33494 0.25714 0.74965 0.0
H2004 H 0.33784 0.27797 0.77942 0.0
H2005 H 0.33525 0.26168 0.79776 0.0
H2006 H 0.32081 0.27043 0.79876 0.0
H2007 H 0.25646 0.2182 0.78596 0.0
H2008 H 0.25865 0.19743 0.80889 0.0
H2009 H 0.31552 0.22705 0.80198 0.0
C2010 C 0.31011 0.27061 0.74698 0.0
C2011 C 0.2975 0.27312 0.73687 0.0
C2012 C 0.27949 0.26256 0.74231 0.0
C2013 C 0.27403 0.24942 0.75719 0.0
C2014 C 0.28674 0.24707 0.7666 0.0
C2015 C 0.30442 0.25743 0.76185 0.0
C2016 C 0.31529 0.25172 0.7737 0.0
C2017 C 0.32514 0.24591 0.75906 0.0
C2018 C 0.32805 0.26632 0.78828 0.0
C2019 C 0.30092 0.23631 0.7855 0.0
C2020 C 0.28457 0.23391 0.78125 0.0
C2021 C 0.26922 0.2201 0.78967 0.0
C2022 C 0.27062 0.20841 0.80278 0.0
C2023 C 0.28726 0.21059 0.80741 0.0
C2024 C 0.30258 0.22487 0.79868 0.0
H2025 H 0.72544 0.04371 0.73186 0.0
H2026 H 0.70818 0.08088 0.72116 0.0
H2027 H 0.72521 0.09822 0.7509 0.0
H2028 H 0.7254 0.04595 0.78805 0.0
H2029 H 0.74501 0.04469 0.7905 0.0
H2030 H 0.73056 0.03437 0.76903 0.0
H2031 H 0.75662 0.0519 0.74387 0.0
H2032 H 0.77113 0.06225 0.76524 0.0
H2033 H 0.76926 0.07548 0.74569 0.0
H2034 H 0.74488 0.11233 0.78048 0.0
H2035 H 0.76704 0.12303 0.80775 0.0
H2036 H 0.77178 0.07692 0.80012 0.0
C2037 C 0.72511 0.0554 0.73591 0.0
C2038 C 0.71543 0.06089 0.72415 0.0
C2039 C 0.71551 0.07639 0.72984 0.0
C2040 C 0.72509 0.08632 0.74679 0.0
C2041 C 0.73456 0.08064 0.75795 0.0
C2042 C 0.73473 0.06559 0.75279 0.0
C2043 C 0.74675 0.06297 0.76689 0.0
C2044 C 0.7363 0.04599 0.77936 0.0
C2045 C 0.76183 0.06317 0.75469 0.0
C2046 C 0.75346 0.07903 0.78053 0.0
C2047 C 0.7461 0.08892 0.77518 0.0
C2048 C 0.75059 0.10461 0.78502 0.0
C2049 C 0.76312 0.11051 0.80063 0.0
C2050 C 0.77106 0.10075 0.80631 0.0
C2051 C 0.76598 0.0847 0.79617 0.0
H2052 H 0.05864 0.35606 0.04894 0.0
H2053 H 0.01466 0.3034 0.03883 0.0
H2054 H 0.0312 0.29113 0.05479 0.0
H2055 H 0.09387 0.34612 0.04072 0.0
H2056 H 0.10733 0.36062 0.06094 0.0
H2057 H 0.09271 0.36533 0.04702 0.0
H2058 H 0.07811 0.36635 0.08127 0.0
H2059 H 0.0926 0.36154 0.09527 0.0
H2060 H 0.06911 0.34775 0.09829 0.0
H2061 H 0.05164 0.28448 0.07315 0.0
H2062 H 0.07469 0.28388 0.09356 0.0
H2063 H 0.10532 0.34076 0.09281 0.0
C2064 C 0.05266 0.34196 0.04977 0.0
C2065 C 0.03543 0.33066 0.04253 0.0
C2066 C 0.02786 0.31228 0.04426 0.0
C2067 C 0.03716 0.30518 0.05326 0.0
C2068 C 0.05398 0.31664 0.06058 0.0
C2069 C 0.0617 0.33463 0.05899 0.0
C2070 C 0.07954 0.34396 0.06926 0.0
C2071 C 0.09423 0.35464 0.05354 0.0
C2072 C 0.07985 0.35558 0.08708 0.0
C2073 C 0.0805 0.3284 0.07704 0.0
C2074 C 0.06569 0.31278 0.07166 0.0
C2075 C 0.06338 0.29662 0.07733 0.0
C2076 C 0.07656 0.29641 0.08885 0.0
C2077 C 0.09182 0.31225 0.09471 0.0
C2078 C 0.09376 0.32844 0.08866 0.0
H2079 H 0.62239 0.69916 0.03587 0.0
H2080 H 0.67086 0.70242 0.01541 0.0
H2081 H 0.68801 0.73024 0.03419 0.0
H2082 H 0.63851 0.74621 0.03351 0.0
H2083 H 0.62664 0.74593 0.0563 0.0
H2084 H 0.61809 0.7267 0.04026 0.0
H2085 H 0.61697 0.70837 0.07167 0.0
H2086 H 0.62564 0.72756 0.08776 0.0
H2087 H 0.63669 0.71523 0.08624 0.0
H2088 H 0.7 0.75689 0.05644 0.0
H2089 H 0.70599 0.78102 0.08027 0.0
H2090 H 0.6499 0.76085 0.08608 0.0
C2091 C 0.6366 0.70585 0.03511 0.0
C2092 C 0.64525 0.69859 0.02412 0.0
C2093 C 0.6639 0.70768 0.02372 0.0
C2094 C 0.67379 0.72352 0.03433 0.0
C2095 C 0.66488 0.73016 0.04528 0.0
C2096 C 0.64672 0.72169 0.04569 0.0
C2097 C 0.64045 0.73143 0.05919 0.0
C2098 C 0.63032 0.73796 0.04656 0.0
C2099 C 0.62928 0.71996 0.07729 0.0
C2100 C 0.65791 0.74655 0.06644 0.0
C2101 C 0.67183 0.74559 0.05817 0.0
C2102 C 0.68922 0.75789 0.06288 0.0
C2103 C 0.69249 0.77159 0.07637 0.0
C2104 C 0.67844 0.7729 0.08502 0.0
C2105 C 0.66093 0.76015 0.07991 0.0
H2106 H 0.29009 0.93021 0.04298 0.0
H2107 H 0.29187 0.97932 0.0319 0.0
H2108 H 0.26544 0.96928 0.05369 0.0
H2109 H 0.24265 0.90231 0.04307 0.0
H2110 H 0.24263 0.88848 0.06323 0.0
H2111 H 0.2612 0.89934 0.04603 0.0
H2112 H 0.28188 0.91343 0.07718 0.0
H2113 H 0.26336 0.90273 0.09446 0.0
H2114 H 0.27757 0.92622 0.09536 0.0
H2115 H 0.2391 0.95401 0.07758 0.0
H2116 H 0.21501 0.93462 0.10142 0.0
H2117 H 0.23099 0.8959 0.09653 0.0
C2118 C 0.28486 0.93882 0.04493 0.0
C2119 C 0.29304 0.95553 0.03568 0.0
C2120 C 0.28582 0.96643 0.03881 0.0
C2121 C 0.27081 0.96086 0.05116 0.0
C2122 C 0.26321 0.94438 0.06026 0.0
C2123 C 0.26998 0.93352 0.05723 0.0
C2124 C 0.25966 0.91661 0.06909 0.0
C2125 C 0.25102 0.90075 0.05448 0.0
C2126 C 0.27132 0.91464 0.08496 0.0
C2127 C 0.2461 0.91969 0.0794 0.0
C2128 C 0.24827 0.93573 0.07408 0.0
C2129 C 0.23724 0.94139 0.08181 0.0
C2130 C 0.2236 0.93031 0.09528 0.0
C2131 C 0.22124 0.91384 0.10093 0.0
C2132 C 0.23265 0.90855 0.0928 0.0
H2133 H 0.32416 0.02746 0.9512 0.0
H2134 H 0.34719 0.0546 0.00836 0.0
H2135 H 0.34096 0.07783 -0.00118 0.0
H2136 H 0.342 0.06639 0.92036 0.0
H2137 H 0.32296 0.05793 0.90413 0.0
H2138 H 0.32852 0.04312 0.91595 0.0
H2139 H 0.29738 0.02597 0.93229 0.0
H2140 H 0.29176 0.04081 0.92063 0.0
H2141 H 0.28963 0.03748 0.94802 0.0
H2142 H 0.3314 0.0975 0.98348 0.0
H2143 H 0.32192 0.11391 0.9621 0.0
H2144 H 0.30756 0.07518 0.91356 0.0
C2145 C 0.32781 0.03826 0.96174 0.0
C2146 C 0.33603 0.03923 0.98058 0.0
C2147 C 0.34088 0.05367 0.99385 0.0
C2148 C 0.33732 0.06685 0.98861 0.0
C2149 C 0.32915 0.06548 0.96993 0.0
C2150 C 0.32467 0.05168 0.95657 0.0
C2151 C 0.31681 0.05377 0.93701 0.0
C2152 C 0.32826 0.0554 0.91826 0.0
C2153 C 0.29776 0.03861 0.93434 0.0
C2154 C 0.31749 0.07086 0.94149 0.0
C2155 C 0.32445 0.07728 0.96065 0.0
C2156 C 0.32614 0.09273 0.96834 0.0
C2157 C 0.32083 0.10203 0.95597 0.0
C2158 C 0.31418 0.09603 0.93594 0.0
C2159 C 0.31239 0.08011 0.9288 0.0
H2160 H 0.93351 0.29768 0.97432 0.0
H2161 H 0.98146 0.29721 0.98655 0.0
H2162 H 0.97034 0.27017 0.96605 0.0
H2163 H 0.90392 0.25092 0.9766 0.0
H2164 H 0.8903 0.25061 0.95601 0.0
H2165 H 0.90194 0.26983 0.9719 0.0
H2166 H 0.91661 0.28872 0.9395 0.0
H2167 H 0.90506 0.26954 0.92352 0.0
H2168 H 0.92871 0.28278 0.92212 0.0
H2169 H 0.95396 0.24304 0.94441 0.0
H2170 H 0.93354 0.21796 0.92267 0.0
H2171 H 0.89656 0.23638 0.92415 0.0
C2172 C 0.94165 0.29186 0.97277 0.0
C2173 C 0.95835 0.29958 0.9821 0.0
C2174 C 0.96863 0.29158 0.97955 0.0
C2175 C 0.96243 0.2762 0.96794 0.0
C2176 C 0.94596 0.269 0.95889 0.0
C2177 C 0.93572 0.27656 0.96113 0.0
C2178 C 0.91858 0.26628 0.9496 0.0
C2179 C 0.90275 0.25898 0.96442 0.0
C2180 C 0.91717 0.2775 0.93268 0.0
C2181 C 0.92079 0.25175 0.94056 0.0
C2182 C 0.93664 0.25352 0.94615 0.0
C2183 C 0.94151 0.24152 0.9399 0.0
C2184 C 0.92983 0.22731 0.92763 0.0
C2185 C 0.91353 0.22528 0.92167 0.0
C2186 C 0.90904 0.23773 0.92822 0.0
H2187 H 0.69367 0.64857 0.96472 0.0
H2188 H 0.68671 0.69166 0.94661 0.0
H2189 H 0.71479 0.70501 0.92753 0.0
H2190 H 0.74091 0.67426 0.97117 0.0
H2191 H 0.74461 0.6575 0.96084 0.0
H2192 H 0.72413 0.65146 0.97362 0.0
H2193 H 0.70699 0.6341 0.94137 0.0
H2194 H 0.72741 0.6401 0.92849 0.0
H2195 H 0.71203 0.64504 0.91688 0.0
H2196 H 0.74366 0.71396 0.91079 0.0
H2197 H 0.77101 0.71714 0.896 0.0
H2198 H 0.75885 0.66784 0.92368 0.0
C2199 C 0.6981 0.66085 0.9568 0.0
C2200 C 0.68803 0.6691 0.9572 0.0
C2201 C 0.6942 0.68509 0.94652 0.0
C2202 C 0.71015 0.69281 0.93567 0.0
C2203 C 0.71975 0.68434 0.93554 0.0
C2204 C 0.71396 0.66868 0.94572 0.0
C2205 C 0.72666 0.66214 0.94271 0.0
C2206 C 0.73454 0.6613 0.96331 0.0
C2207 C 0.71773 0.64429 0.9317 0.0
C2208 C 0.74039 0.67651 0.92913 0.0
C2209 C 0.73623 0.68928 0.92537 0.0
C2210 C 0.74705 0.70404 0.91357 0.0
C2211 C 0.76255 0.70577 0.90531 0.0
C2212 C 0.76692 0.69272 0.90872 0.0
C2213 C 0.75568 0.67791 0.92075 0.0
H2214 H 0.922 0.64386 0.98659 0.0
H2215 H 0.97442 0.67454 0.96034 0.0
H2216 H 0.96386 0.68885 0.93691 0.0
H2217 H 0.89779 0.63727 0.94016 0.0
H2218 H 0.88078 0.63976 0.95229 0.0
H2219 H 0.89233 0.63161 0.96683 0.0
H2220 H 0.90097 0.65631 0.99373 0.0
H2221 H 0.88942 0.66451 0.97928 0.0
H2222 H 0.91229 0.67884 0.98543 0.0
H2223 H 0.94746 0.69879 0.91533 0.0
H2224 H 0.92669 0.70519 0.89831 0.0
H2225 H 0.88551 0.67026 0.94081 0.0
C2226 C 0.9312 0.65355 0.97586 0.0
C2227 C 0.94899 0.65804 0.97519 0.0
C2228 C 0.96074 0.67094 0.96113 0.0
C2229 C 0.95486 0.67911 0.94773 0.0
C2230 C 0.93727 0.67442 0.94878 0.0
C2231 C 0.92564 0.6621 0.96261 0.0
C2232 C 0.90754 0.65987 0.96092 0.0
C2233 C 0.8938 0.64101 0.95468 0.0
C2234 C 0.90225 0.66521 0.98103 0.0
C2235 C 0.91081 0.67272 0.94384 0.0
C2236 C 0.92801 0.68086 0.93697 0.0
C2237 C 0.93401 0.69273 0.92078 0.0
C2238 C 0.9221 0.69641 0.91133 0.0
C2239 C 0.9044 0.68845 0.91828 0.0
C2240 C 0.89883 0.67651 0.93488 0.0
H2241 H 0.33994 0.29103 0.98201 0.0
H2242 H 0.29003 0.28929 0.98373 0.0
H2243 H 0.27564 0.26001 0.9673 0.0
H2244 H 0.3349 0.27374 0.93302 0.0
H2245 H 0.34555 0.26142 0.93802 0.0
H2246 H 0.35136 0.28085 0.95273 0.0
H2247 H 0.344 0.26309 0.98652 0.0
H2248 H 0.33834 0.24361 0.97191 0.0
H2249 H 0.32267 0.24367 0.98975 0.0
H2250 H 0.26728 0.23196 0.94825 0.0
H2251 H 0.26584 0.20789 0.92723 0.0
H2252 H 0.32158 0.22901 0.93667 0.0
C2253 C 0.32588 0.28427 0.97948 0.0
C2254 C 0.31602 0.29228 0.98437 0.0
C2255 C 0.29777 0.28328 0.98024 0.0
C2256 C 0.2895 0.26666 0.97095 0.0
C2257 C 0.29971 0.25932 0.96581 0.0
C2258 C 0.31751 0.26785 0.96994 0.0
C2259 C 0.32589 0.25799 0.96117 0.0
C2260 C 0.34027 0.26917 0.94529 0.0
C2261 C 0.33315 0.25171 0.97837 0.0
C2262 C 0.31011 0.24276 0.95108 0.0
C2263 C 0.29506 0.24358 0.95419 0.0
C2264 C 0.27895 0.23111 0.94586 0.0
C2265 C 0.27824 0.21751 0.93398 0.0
C2266 C 0.29361 0.2167 0.93031 0.0
C2267 C 0.30967 0.22943 0.93912 0.0
H2268 H 0.70508 0.03685 0.98197 0.0
H2269 H 0.6876 0.07422 0.99062 0.0
H2270 H 0.71375 0.09653 0.97202 0.0
H2271 H 0.75184 0.06835 0.98811 0.0
H2272 H 0.75851 0.05827 0.96873 0.0
H2273 H 0.73854 0.04513 0.98321 0.0
H2274 H 0.72101 0.03431 0.94933 0.0
H2275 H 0.7409 0.04749 0.93475 0.0
H2276 H 0.72219 0.05012 0.93115 0.0
H2277 H 0.7407 0.11439 0.95138 0.0
H2278 H 0.76801 0.12747 0.93102 0.0
H2279 H 0.7692 0.07929 0.9364 0.0
C2280 C 0.70681 0.04976 0.98008 0.0
C2281 C 0.69422 0.05373 0.98778 0.0
C2282 C 0.697 0.0708 0.98491 0.0
C2283 C 0.71183 0.0836 0.97433 0.0
C2284 C 0.72384 0.07921 0.96676 0.0
C2285 C 0.72163 0.06278 0.96957 0.0
C2286 C 0.7366 0.06159 0.95969 0.0
C2287 C 0.74699 0.05813 0.9759 0.0
C2288 C 0.72976 0.04754 0.94272 0.0
C2289 C 0.74744 0.07988 0.95077 0.0
C2290 C 0.73977 0.08976 0.95505 0.0
C2291 C 0.74699 0.10689 0.94815 0.0
C2292 C 0.7626 0.11424 0.9367 0.0
C2293 C 0.77099 0.10455 0.93235 0.0
C2294 C 0.76316 0.08706 0.93942 0.0
H2295 H 0.65249 0.9429 0.03459 0.0
H2296 H 0.70288 0.99132 0.0379 0.0
H2297 H 0.71553 0.97569 0.05545 0.0
H2298 H 0.65395 0.92874 0.08403 0.0
H2299 H 0.64331 0.90576 0.07769 0.0
H2300 H 0.63881 0.92006 0.06289 0.0
H2301 H 0.64803 0.91068 0.02952 0.0
H2302 H 0.65241 0.8962 0.04422 0.0
H2303 H 0.66933 0.91265 0.02797 0.0
H2304 H 0.72214 0.95522 0.0746 0.0
H2305 H 0.72196 0.93168 0.09494 0.0
H2306 H 0.66687 0.897 0.08057 0.0
C2307 C 0.6663 0.95009 0.03852 0.0
C2308 C 0.6768 0.96825 0.03465 0.0
C2309 C 0.69467 0.97736 0.04059 0.0
C2310 C 0.70197 0.96859 0.05053 0.0
C2311 C 0.69116 0.95076 0.05457 0.0
C2312 C 0.6737 0.9416 0.04877 0.0
C2313 C 0.66453 0.92289 0.05649 0.0
C2314 C 0.64925 0.91915 0.07114 0.0
C2315 C 0.65821 0.90983 0.03847 0.0
C2316 C 0.67947 0.92302 0.06781 0.0
C2317 C 0.69479 0.93913 0.06626 0.0
C2318 C 0.71026 0.94251 0.07579 0.0
C2319 C 0.71005 0.92907 0.08726 0.0
C2320 C 0.69441 0.91256 0.08932 0.0
C2321 C 0.67898 0.90954 0.07936 0.0
H2322 H 0.05073 0.70829 0.0355 0.0
H2323 H 0.0047 0.71378 0.03566 0.0
H2324 H 0.02217 0.74328 0.05081 0.0
H2325 H 0.06601 0.72728 0.08337 0.0
H2326 H 0.08907 0.73833 0.07681 0.0
H2327 H 0.07373 0.71869 0.06334 0.0
H2328 H 0.08417 0.73515 0.02865 0.0
H2329 H 0.09964 0.75487 0.04204 0.0
H2330 H 0.08379 0.75508 0.02503 0.0
H2331 H 0.04357 0.7707 0.06903 0.0
H2332 H 0.06738 0.79396 0.0897 0.0
H2333 H 0.0997 0.77095 0.0776 0.0
C2334 C 0.04446 0.71589 0.03828 0.0
C2335 C 0.0264 0.70881 0.03431 0.0
C2336 C 0.01854 0.71897 0.03856 0.0
C2337 C 0.02836 0.73577 0.04708 0.0
C2338 C 0.04604 0.74224 0.05124 0.0
C2339 C 0.05406 0.73266 0.04694 0.0
C2340 C 0.07285 0.74205 0.05451 0.0
C2341 C 0.07556 0.73092 0.07046 0.0
C2342 C 0.08588 0.74709 0.03648 0.0
C2343 C 0.07392 0.75811 0.06426 0.0
C2344 C 0.05841 0.75809 0.06195 0.0
C2345 C 0.0559 0.77103 0.07066 0.0
C2346 C 0.06954 0.78424 0.0823 0.0
C2347 C 0.08544 0.78434 0.08523 0.0
C2348 C 0.08769 0.77122 0.07574 0.0
H2349 H 0.29495 0.33702 0.03796 0.0
H2350 H 0.31762 0.39351 0.03662 0.0
H2351 H 0.29339 0.39051 0.05855 0.0
H2352 H 0.24936 0.32564 0.03638 0.0
H2353 H 0.24194 0.30729 0.05354 0.0
H2354 H 0.2609 0.31379 0.03734 0.0
H2355 H 0.27947 0.31685 0.06933 0.0
H2356 H 0.26059 0.3104 0.08563 0.0
H2357 H 0.28068 0.33085 0.09022 0.0
H2358 H 0.26741 0.38164 0.0814 0.0
H2359 H 0.24064 0.36725 0.10301 0.0
H2360 H 0.23468 0.31655 0.08943 0.0
C2361 C 0.2948 0.34876 0.04219 0.0
C2362 C 0.30822 0.3655 0.03556 0.0
C2363 C 0.3075 0.38053 0.04146 0.0
C2364 C 0.29379 0.37898 0.05393 0.0
C2365 C 0.28087 0.36232 0.0603 0.0
C2366 C 0.28118 0.34746 0.05457 0.0
C2367 C 0.26572 0.33112 0.06369 0.0
C2368 C 0.25378 0.31873 0.04672 0.0
C2369 C 0.272 0.32176 0.07807 0.0
C2370 C 0.25676 0.33915 0.07555 0.0
C2371 C 0.26574 0.35717 0.07339 0.0
C2372 C 0.26023 0.36754 0.08319 0.0
C2373 C 0.2451 0.35927 0.09552 0.0
C2374 C 0.23565 0.34081 0.09792 0.0
C2375 C 0.24157 0.33066 0.08772 0.0
H2376 H 0.71712 0.68409 0.38348 0.0
H2377 H 0.67465 0.63287 0.36472 0.0
H2378 H 0.69015 0.61909 0.37972 0.0
H2379 H 0.75323 0.67572 0.37568 0.0
H2380 H 0.76484 0.68776 0.39827 0.0
H2381 H 0.75114 0.69386 0.38461 0.0
H2382 H 0.73365 0.69059 0.41807 0.0
H2383 H 0.74727 0.68448 0.43181 0.0
H2384 H 0.72371 0.67019 0.43197 0.0
H2385 H 0.70974 0.61072 0.39726 0.0
H2386 H 0.73166 0.60812 0.41752 0.0
H2387 H 0.76054 0.66452 0.42716 0.0
C2388 C 0.71125 0.67002 0.38228 0.0
C2389 C 0.69476 0.65954 0.37281 0.0
C2390 C 0.68729 0.64113 0.37189 0.0
C2391 C 0.69601 0.63318 0.3803 0.0
C2392 C 0.71212 0.64381 0.38977 0.0
C2393 C 0.71966 0.66181 0.39092 0.0
C2394 C 0.73659 0.67003 0.40309 0.0
C2395 C 0.75239 0.68258 0.3896 0.0
C2396 C 0.73521 0.67937 0.42238 0.0
C2397 C 0.7373 0.65383 0.40863 0.0
C2398 C 0.72315 0.63888 0.40061 0.0
C2399 C 0.72085 0.62233 0.40371 0.0
C2400 C 0.73332 0.62098 0.41542 0.0
C2401 C 0.74782 0.63608 0.42415 0.0
C2402 C 0.74978 0.65272 0.42055 0.0
H2403 H 0.30747 0.03612 0.39822 0.0
H2404 H 0.34708 0.05146 0.35045 0.0
H2405 H 0.36432 0.081 0.36629 0.0
H2406 H 0.30911 0.07684 0.40443 0.0
H2407 H 0.30669 0.07508 0.43196 0.0
H2408 H 0.29744 0.05556 0.4164 0.0
H2409 H 0.31484 0.04452 0.43701 0.0
H2410 H 0.32413 0.064 0.45266 0.0
H2411 H 0.33838 0.05827 0.43916 0.0
H2412 H 0.37602 0.10943 0.38663 0.0
H2413 H 0.38256 0.13339 0.41088 0.0
H2414 H 0.33701 0.09745 0.44762 0.0
C2415 C 0.31971 0.04576 0.39102 0.0
C2416 C 0.32588 0.04174 0.37297 0.0
C2417 C 0.34215 0.05445 0.36423 0.0
C2418 C 0.35197 0.07119 0.3731 0.0
C2419 C 0.34549 0.07476 0.39095 0.0
C2420 C 0.32986 0.06227 0.39997 0.0
C2421 C 0.3261 0.06901 0.41957 0.0
C2422 C 0.30881 0.06913 0.41798 0.0
C2423 C 0.32586 0.05832 0.4382 0.0
C2424 C 0.34186 0.0874 0.42 0.0
C2425 C 0.35282 0.09057 0.40332 0.0
C2426 C 0.36769 0.10699 0.39997 0.0
C2427 C 0.37138 0.12051 0.414 0.0
C2428 C 0.3604 0.11749 0.43143 0.0
C2429 C 0.3456 0.10053 0.43443 0.0
H2430 H 0.97167 0.28247 0.39773 0.0
H2431 H 0.95569 0.30621 0.35119 0.0
H2432 H 0.92587 0.29199 0.36643 0.0
H2433 H 0.93226 0.24175 0.40077 0.0
H2434 H 0.93267 0.23966 0.42824 0.0
H2435 H 0.95294 0.2522 0.41415 0.0
H2436 H 0.96126 0.27927 0.43714 0.0
H2437 H 0.94103 0.26677 0.45138 0.0
H2438 H 0.9462 0.28721 0.43964 0.0
H2439 H 0.89715 0.27272 0.38446 0.0
H2440 H 0.87214 0.25183 0.40577 0.0
H2441 H 0.9078 0.24366 0.44323 0.0
C2442 C 0.9619 0.28474 0.39087 0.0
C2443 C 0.96588 0.29532 0.37326 0.0
C2444 C 0.95287 0.29817 0.36475 0.0
C2445 C 0.93591 0.29014 0.37326 0.0
C2446 C 0.93234 0.27965 0.39052 0.0
C2447 C 0.94504 0.27719 0.39946 0.0
C2448 C 0.93778 0.26534 0.41801 0.0
C2449 C 0.93898 0.24876 0.4151 0.0
C2450 C 0.94712 0.27524 0.43771 0.0
C2451 C 0.91889 0.26109 0.41768 0.0
C2452 C 0.916 0.2694 0.40167 0.0
C2453 C 0.89931 0.26645 0.39737 0.0
C2454 C 0.88517 0.25462 0.40973 0.0
C2455 C 0.88782 0.24604 0.42644 0.0
C2456 C 0.90507 0.24968 0.43052 0.0
H2457 H 0.01919 0.39251 0.30416 0.0
H2458 H 0.96761 0.34526 0.30345 0.0
H2459 H 0.95544 0.36143 0.2863 0.0
H2460 H 0.00417 0.42335 0.3131 0.0
H2461 H 0.02063 0.43981 0.29645 0.0
H2462 H 0.02511 0.42476 0.30969 0.0
H2463 H 0.0324 0.41539 0.27497 0.0
H2464 H 0.0279 0.43036 0.26162 0.0
H2465 H 0.0164 0.40747 0.25468 0.0
H2466 H 0.94903 0.38238 0.26833 0.0
H2467 H 0.94903 0.40667 0.24996 0.0
H2468 H 0.00477 0.44017 0.26219 0.0
C2469 C 0.0053 0.38562 0.30058 0.0
C2470 C -0.00568 0.36766 0.30519 0.0
C2471 C 0.97626 0.35904 0.30005 0.0
C2472 C 0.96921 0.3681 0.29036 0.0
C2473 C 0.9804 0.38576 0.28587 0.0
C2474 C -0.00194 0.39445 0.29078 0.0
C2475 C 0.00736 0.41328 0.28353 0.0
C2476 C 0.01475 0.42605 0.30178 0.0
C2477 C 0.02187 0.41682 0.26776 0.0
C2478 C 0.9922 0.41377 0.27362 0.0
C2479 C 0.97675 0.3978 0.27528 0.0
C2480 C 0.96103 0.39499 0.26704 0.0
C2481 C 0.96114 0.40886 0.25672 0.0
C2482 C 0.97689 0.42528 0.25467 0.0
C2483 C 0.99256 0.42772 0.26336 0.0
H2484 H 0.59557 0.62732 0.30267 0.0
H2485 H 0.64473 0.62932 0.31518 0.0
H2486 H 0.63437 0.60189 0.29564 0.0
H2487 H 0.56747 0.58036 0.30662 0.0
H2488 H 0.55334 0.57898 0.28603 0.0
H2489 H 0.56452 0.59861 0.30134 0.0
H2490 H 0.57834 0.61702 0.2684 0.0
H2491 H 0.56724 0.59744 0.25299 0.0
H2492 H 0.5908 0.61138 0.25121 0.0
H2493 H 0.61877 0.57437 0.2744 0.0
H2494 H 0.59912 0.54897 0.25263 0.0
H2495 H 0.56026 0.56502 0.25428 0.0
C2496 C 0.60415 0.62198 0.30139 0.0
C2497 C 0.62096 0.63049 0.31049 0.0
C2498 C 0.63179 0.62306 0.30834 0.0
C2499 C 0.62603 0.60747 0.29729 0.0
C2500 C 0.60942 0.59947 0.28847 0.0
C2501 C 0.59864 0.60646 0.29038 0.0
C2502 C 0.58147 0.59542 0.27917 0.0
C2503 C 0.56577 0.5879 0.29419 0.0
C2504 C 0.57935 0.60594 0.26192 0.0
C2505 C 0.58432 0.58117 0.27059 0.0
C2506 C 0.60049 0.58369 0.27617 0.0
C2507 C 0.60605 0.57223 0.26998 0.0
C2508 C 0.59478 0.55781 0.25771 0.0
C2509 C 0.57819 0.55504 0.25173 0.0
C2510 C 0.57295 0.5669 0.25837 0.0
H2511 H 0.37046 0.01387 0.30294 0.0
H2512 H 0.34656 0.95912 0.32002 0.0
H2513 H 0.36924 0.95699 0.30005 0.0
H2514 H 0.38374 0.01029 0.25163 0.0
H2515 H 0.40449 0.03064 0.25269 0.0
H2516 H 0.3861 0.02792 0.26782 0.0
H2517 H 0.4048 0.03573 0.30084 0.0
H2518 H 0.42328 0.03862 0.28578 0.0
H2519 H 0.41538 0.02357 0.30709 0.0
H2520 H 0.3933 0.96028 0.2771 0.0
H2521 H 0.41964 0.96951 0.25581 0.0
H2522 H 0.43003 0.023 0.25618 0.0
C2523 C 0.37004 0.00146 0.30243 0.0
C2524 C 0.35674 0.98662 0.3129 0.0
C2525 C 0.35668 0.97064 0.31214 0.0
C2526 C 0.36943 0.96928 0.30075 0.0
C2527 C 0.3823 0.98409 0.2905 0.0
C2528 C 0.38292 -4e-05 0.29148 0.0
C2529 C 0.39871 0.01403 0.27977 0.0
C2530 C 0.39291 0.02113 0.26192 0.0
C2531 C 0.41129 0.02886 0.29423 0.0
C2532 C 0.40676 0.00352 0.27197 0.0
C2533 C 0.39691 0.98624 0.27814 0.0
C2534 C 0.40133 0.97384 0.27246 0.0
C2535 C 0.41645 0.9793 0.26048 0.0
C2536 C 0.42727 -0.00289 0.25461 0.0
C2537 C 0.42213 0.0093 0.26029 0.0
H2538 H 0.59275 0.95904 0.30428 0.0
H2539 H 0.64006 0.00899 0.31669 0.0
H2540 H 0.62764 0.02426 0.29805 0.0
H2541 H 0.58609 0.96952 0.25315 0.0
H2542 H 0.56246 0.95785 0.25556 0.0
H2543 H 0.57505 0.95086 0.27001 0.0
H2544 H 0.5608 0.9535 0.30376 0.0
H2545 H 0.54819 0.96054 0.28942 0.0
H2546 H 0.56214 0.97398 0.31 0.0
H2547 H 0.60994 0.03414 0.27834 0.0
H2548 H 0.58831 0.03781 0.25863 0.0
H2549 H 0.55307 0.98135 0.25835 0.0
C2550 C 0.60051 0.97319 0.30312 0.0
C2551 C 0.61737 0.9828 0.31199 0.0
C2552 C 0.62711 0.00131 0.31001 0.0
C2553 C 0.62017 0.01013 0.29947 0.0
C2554 C 0.60351 0.00024 0.29093 0.0
C2555 C 0.59383 0.98219 0.29258 0.0
C2556 C 0.57631 0.97465 0.28187 0.0
C2557 C 0.57491 0.96251 0.26409 0.0
C2558 C 0.56096 0.96511 0.29718 0.0
C2559 C 0.57763 0.99129 0.27402 0.0
C2560 C 0.59341 0.00592 0.27941 0.0
C2561 C 0.59756 0.02277 0.27394 0.0
C2562 C 0.58524 0.02472 0.26265 0.0
C2563 C 0.56898 0.00988 0.25692 0.0
C2564 C 0.56525 0.99298 0.26271 0.0
H2565 H 0.0139 0.63073 0.31973 0.0
H2566 H 0.96161 0.62359 0.32292 0.0
H2567 H 0.94965 0.59515 0.305 0.0
H2568 H 0.01046 0.61534 0.26993 0.0
H2569 H 0.02285 0.60463 0.27397 0.0
H2570 H 0.02696 0.62309 0.28965 0.0
H2571 H 0.02101 0.60454 0.32254 0.0
H2572 H 0.01707 0.58603 0.30696 0.0
H2573 H 0.00062 0.58395 0.32514 0.0
H2574 H 0.94388 0.56887 0.28401 0.0
H2575 H 0.94479 0.54685 0.26139 0.0
H2576 H 0.00097 0.57158 0.27136 0.0
C2577 C -0.00014 0.62296 0.31718 0.0
C2578 C 0.98864 0.62926 0.32289 0.0
C2579 C 0.97041 0.61894 0.31878 0.0
C2580 C 0.96351 0.60276 0.30864 0.0
C2581 C 0.97501 0.59715 0.30269 0.0
C2582 C 0.9928 0.6069 0.30688 0.0
C2583 C 0.00257 0.59869 0.29735 0.0
C2584 C 0.01653 0.61118 0.2818 0.0
C2585 C 0.0108 0.59296 0.31399 0.0
C2586 C 0.98759 0.58302 0.28674 0.0
C2587 C 0.97176 0.58222 0.29022 0.0
C2588 C 0.95617 0.56924 0.28138 0.0
C2589 C 0.9568 0.55678 0.2686 0.0
C2590 C 0.97294 0.55751 0.26462 0.0
C2591 C 0.98846 0.57076 0.27399 0.0
H2592 H 0.37505 0.3997 0.31104 0.0
H2593 H 0.37871 0.35433 0.32749 0.0
H2594 H 0.40678 0.3666 0.30848 0.0
H2595 H 0.39063 0.40331 0.26043 0.0
H2596 H 0.40281 0.42694 0.25992 0.0
H2597 H 0.38383 0.4155 0.27641 0.0
H2598 H 0.40263 0.43249 0.30794 0.0
H2599 H 0.42165 0.4441 0.2915 0.0
H2600 H 0.4224 0.43214 0.31334 0.0
H2601 H 0.43341 0.38278 0.28589 0.0
H2602 H 0.45691 0.40197 0.26149 0.0
H2603 H 0.43594 0.43678 0.25975 0.0
C2604 C 0.38192 0.39251 0.31098 0.0
C2605 C 0.3747 0.37609 0.32084 0.0
C2606 C 0.38397 0.36694 0.32008 0.0
C2607 C 0.39994 0.37381 0.30934 0.0
C2608 C 0.4065 0.38984 0.29944 0.0
C2609 C 0.39784 0.39912 0.30022 0.0
C2610 C 0.40726 0.41561 0.28736 0.0
C2611 C 0.39542 0.41531 0.27 0.0
C2612 C 0.41388 0.43206 0.30085 0.0
C2613 C 0.42239 0.41398 0.27898 0.0
C2614 C 0.42179 0.3991 0.28625 0.0
C2615 C 0.43413 0.39458 0.28025 0.0
C2616 C 0.44746 0.40558 0.26644 0.0
C2617 C 0.44829 0.42088 0.25871 0.0
C2618 C 0.43558 0.42509 0.2652 0.0
H2619 H 0.3412 0.30368 0.40278 0.0
H2620 H 0.33062 0.27689 0.34408 0.0
H2621 H 0.33954 0.2568 0.35838 0.0
H2622 H 0.37885 0.30075 0.41661 0.0
H2623 H 0.37283 0.29676 0.44338 0.0
H2624 H 0.36624 0.30935 0.42829 0.0
H2625 H 0.33366 0.28807 0.43833 0.0
H2626 H 0.34015 0.27546 0.45351 0.0
H2627 H 0.32402 0.26491 0.4336 0.0
H2628 H 0.35033 0.24018 0.37905 0.0
H2629 H 0.35949 0.22647 0.40532 0.0
H2630 H 0.36128 0.26315 0.45091 0.0
C2631 C 0.34084 0.29364 0.3929 0.0
C2632 C 0.33538 0.29189 0.37228 0.0
C2633 C 0.33479 0.27843 0.35991 0.0
C2634 C 0.33989 0.26703 0.36788 0.0
C2635 C 0.34529 0.26917 0.38828 0.0
C2636 C 0.34558 0.282 0.40069 0.0
C2637 C 0.35114 0.28107 0.42233 0.0
C2638 C 0.36829 0.29799 0.42797 0.0
C2639 C 0.33636 0.27714 0.43785 0.0
C2640 C 0.35401 0.26573 0.42019 0.0
C2641 C 0.35078 0.25918 0.40037 0.0
C2642 C 0.35283 0.24517 0.39462 0.0
C2643 C 0.35812 0.23753 0.40958 0.0
C2644 C 0.36107 0.24379 0.43006 0.0
C2645 C 0.35902 0.25809 0.43537 0.0
H2646 H 0.71863 0.03334 0.37298 0.0
H2647 H 0.67085 0.03581 0.37388 0.0
H2648 H 0.68698 0.06513 0.38972 0.0
H2649 H 0.73382 0.05288 0.42142 0.0
H2650 H 0.75677 0.06497 0.41431 0.0
H2651 H 0.74198 0.04485 0.40123 0.0
H2652 H 0.75108 0.06103 0.36628 0.0
H2653 H 0.76598 0.08121 0.37927 0.0
H2654 H 0.74931 0.0802 0.36264 0.0
H2655 H 0.70755 0.09313 0.40746 0.0
H2656 H 0.7313 0.11799 0.42639 0.0
H2657 H 0.76593 0.09768 0.41393 0.0
C2658 C 0.71166 0.04019 0.3762 0.0
C2659 C 0.69351 0.03233 0.37213 0.0
C2660 C 0.68476 0.04158 0.37686 0.0
C2661 C 0.69381 0.05827 0.3858 0.0
C2662 C 0.71162 0.06554 0.38992 0.0
C2663 C 0.72049 0.05686 0.38527 0.0
C2664 C 0.7394 0.06724 0.39238 0.0
C2665 C 0.74321 0.05686 0.40828 0.0
C2666 C 0.7522 0.07275 0.37405 0.0
C2667 C 0.73963 0.08291 0.4021 0.0
C2668 C 0.72352 0.08175 0.40033 0.0
C2669 C 0.72031 0.09432 0.40873 0.0
C2670 C 0.73392 0.10845 0.41937 0.0
C2671 C 0.75052 0.10986 0.42157 0.0
C2672 C 0.75337 0.09694 0.41262 0.0
H2673 H 0.95791 0.6665 0.37843 0.0
H2674 H 0.98427 0.72216 0.39238 0.0
H2675 H 0.96007 0.71689 0.41582 0.0
H2676 H 0.91491 0.65995 0.37693 0.0
H2677 H 0.90426 0.63847 0.3884 0.0
H2678 H 0.92436 0.64624 0.37399 0.0
H2679 H 0.9387 0.64072 0.40535 0.0
H2680 H 0.91862 0.63295 0.41987 0.0
H2681 H 0.93904 0.65065 0.42971 0.0
H2682 H 0.93293 0.70616 0.4365 0.0
H2683 H 0.90341 0.69061 0.45229 0.0
H2684 H 0.8937 0.64193 0.4243 0.0
C2685 C 0.95867 0.67752 0.38664 0.0
C2686 C 0.97299 0.69473 0.38364 0.0
C2687 C 0.9734 0.70887 0.39439 0.0
C2688 C 0.95977 0.70601 0.40783 0.0
C2689 C 0.94577 0.68895 0.41031 0.0
C2690 C 0.94503 0.67492 0.39999 0.0
C2691 C 0.92789 0.65809 0.40452 0.0
C2692 C 0.91723 0.65023 0.38479 0.0
C2693 C 0.93127 0.64482 0.41552 0.0
C2694 C 0.91908 0.66494 0.41874 0.0
C2695 C 0.92975 0.68275 0.42201 0.0
C2696 C 0.92443 0.69221 0.43409 0.0
C2697 C 0.9076 0.68328 0.44287 0.0
C2698 C 0.89622 0.6651 0.43938 0.0
C2699 C 0.90217 0.65579 0.42739 0.0
H2700 H 0.39094 0.01843 0.71325 0.0
H2701 H 0.34232 0.96807 0.71275 0.0
H2702 H 0.3576 0.95421 0.72815 0.0
H2703 H 0.42094 0.00212 0.70278 0.0
H2704 H 0.43749 0.01748 0.72012 0.0
H2705 H 0.42316 0.02322 0.7073 0.0
H2706 H 0.41369 0.02967 0.74248 0.0
H2707 H 0.42793 0.0239 0.7554 0.0
H2708 H 0.40488 0.01291 0.76196 0.0
H2709 H 0.37764 0.94597 0.74469 0.0
H2710 H 0.40098 0.94411 0.76293 0.0
H2711 H 0.43646 -8e-05 0.75401 0.0
C2712 C 0.38363 0.00444 0.71608 0.0
C2713 C 0.3655 0.99427 0.71169 0.0
C2714 C 0.35623 0.97608 0.716 0.0
C2715 C 0.3648 0.96808 0.72466 0.0
C2716 C 0.38261 0.97849 0.72909 0.0
C2717 C 0.39194 0.99628 0.72505 0.0
C2718 C 0.41069 0.00462 0.7326 0.0
C2719 C 0.42385 0.01231 0.71462 0.0
C2720 C 0.41451 0.0186 0.74909 0.0
C2721 C 0.41036 0.98877 0.74168 0.0
C2722 C 0.3941 0.9738 0.73924 0.0
C2723 C 0.39048 0.95757 0.74659 0.0
C2724 C 0.40382 0.95663 0.75685 0.0
C2725 C 0.42051 0.97185 0.75983 0.0
C2726 C 0.42379 0.98809 0.75203 0.0
H2727 H 0.96668 0.36743 0.71342 0.0
H2728 H 0.0172 0.37188 0.7015 0.0
H2729 H 0.03195 0.39979 0.72087 0.0
H2730 H 0.98143 0.41338 0.70898 0.0
H2731 H 0.96723 0.41285 0.72935 0.0
H2732 H 0.96085 0.39352 0.71413 0.0
H2733 H 0.95737 0.37589 0.74721 0.0
H2734 H 0.96378 0.39517 0.76252 0.0
H2735 H 0.97561 0.38367 0.76462 0.0
H2736 H 0.04105 0.42719 0.74214 0.0
H2737 H 0.04356 0.45135 0.7639 0.0
H2738 H 0.98698 0.42852 0.76132 0.0
C2739 C 0.98086 0.37427 0.71475 0.0
C2740 C 0.99078 0.36746 0.70589 0.0
C2741 C 0.00931 0.37684 0.70814 0.0
C2742 C 0.01781 0.39271 0.7191 0.0
C2743 C 0.00759 0.39899 0.72769 0.0
C2744 C 0.98952 0.39004 0.72562 0.0
C2745 C 0.98145 0.39934 0.73659 0.0
C2746 C 0.9722 0.40512 0.72135 0.0
C2747 C 0.96881 0.38783 0.75375 0.0
C2748 C -0.00221 0.41491 0.74527 0.0
C2749 C 0.01277 0.41456 0.73994 0.0
C2750 C 0.0294 0.42761 0.74635 0.0
C2751 C 0.03072 0.4413 0.75862 0.0
C2752 C 0.01547 0.44177 0.76438 0.0
C2753 C -0.00114 0.42841 0.75745 0.0
H2754 H 0.61609 0.59401 0.71668 0.0
H2755 H 0.62162 0.64411 0.70105 0.0
H2756 H 0.5928 0.63476 0.71729 0.0
H2757 H 0.57048 0.56796 0.70656 0.0
H2758 H 0.56605 0.55309 0.72755 0.0
H2759 H 0.58743 0.56408 0.7155 0.0
H2760 H 0.60194 0.57659 0.75078 0.0
H2761 H 0.58059 0.5656 0.76295 0.0
H2762 H 0.59484 0.58894 0.76598 0.0
H2763 H 0.56286 0.61947 0.73477 0.0
H2764 H 0.53417 0.59922 0.75133 0.0
H2765 H 0.54883 0.55954 0.75513 0.0
C2766 C 0.61134 0.6031 0.71675 0.0
C2767 C 0.62114 0.6198 0.7076 0.0
C2768 C 0.61435 0.63123 0.70797 0.0
C2769 C 0.59801 0.62606 0.71718 0.0
C2770 C 0.58865 0.60944 0.72595 0.0
C2771 C 0.5951 0.59816 0.7258 0.0
C2772 C 0.58235 0.58085 0.73579 0.0
C2773 C 0.57622 0.5656 0.72043 0.0
C2774 C 0.59041 0.57783 0.75502 0.0
C2775 C 0.56762 0.58407 0.74138 0.0
C2776 C 0.57149 0.60066 0.73575 0.0
C2777 C 0.55971 0.60646 0.73929 0.0
C2778 C 0.5435 0.59493 0.74874 0.0
C2779 C 0.53926 0.5778 0.75432 0.0
C2780 C 0.55159 0.57246 0.75072 0.0
H2781 H 0.67562 0.71319 0.64799 0.0
H2782 H 0.6438 0.66713 0.61044 0.0
H2783 H 0.63599 0.68446 0.5882 0.0
H2784 H 0.64609 0.72995 0.64568 0.0
H2785 H 0.66348 0.75259 0.64474 0.0
H2786 H 0.66694 0.73668 0.65754 0.0
H2787 H 0.69433 0.74555 0.6346 0.0
H2788 H 0.69092 0.76146 0.6217 0.0
H2789 H 0.69218 0.74482 0.60706 0.0
H2790 H 0.63225 0.70671 0.56955 0.0
H2791 H 0.63157 0.7323 0.55644 0.0
H2792 H 0.66421 0.76361 0.60731 0.0
C2793 C 0.66705 0.70679 0.63505 0.0
C2794 C 0.66035 0.68884 0.63088 0.0
C2795 C 0.64905 0.68086 0.61393 0.0
C2796 C 0.64457 0.6906 0.60118 0.0
C2797 C 0.65137 0.70824 0.6057 0.0
C2798 C 0.66225 0.71627 0.62229 0.0
C2799 C 0.66737 0.73534 0.62396 0.0
C2800 C 0.66056 0.73884 0.64418 0.0
C2801 C 0.68739 0.74751 0.62169 0.0
C2802 C 0.65776 0.73676 0.60563 0.0
C2803 C 0.6487 0.721 0.59528 0.0
C2804 C 0.63912 0.7191 0.57765 0.0
C2805 C 0.6387 0.7337 0.57042 0.0
C2806 C 0.64765 0.74999 0.58094 0.0
C2807 C 0.65732 0.75144 0.59879 0.0
H2808 H 0.2643 0.96531 0.64768 0.0
H2809 H 0.30745 0.95979 0.6696 0.0
H2810 H 0.29413 0.93057 0.65357 0.0
H2811 H 0.2297 0.91931 0.65366 0.0
H2812 H 0.21865 0.91906 0.63044 0.0
H2813 H 0.23089 0.93911 0.64485 0.0
H2814 H 0.24935 0.95472 0.61239 0.0
H2815 H 0.23719 0.93473 0.59791 0.0
H2816 H 0.26083 0.94561 0.59906 0.0
H2817 H 0.277 0.90259 0.63411 0.0
H2818 H 0.25714 0.87765 0.61201 0.0
H2819 H 0.22554 0.90154 0.60175 0.0
C2820 C 0.2708 0.95784 0.64935 0.0
C2821 C 0.28688 0.96482 0.65996 0.0
C2822 C 0.29513 0.95474 0.66152 0.0
C2823 C 0.28765 0.9381 0.65253 0.0
C2824 C 0.27193 0.93169 0.64196 0.0
C2825 C 0.26358 0.94121 0.6403 0.0
C2826 C 0.24724 0.9316 0.62721 0.0
C2827 C 0.23064 0.92699 0.6398 0.0
C2828 C 0.24875 0.9423 0.608 0.0
C2829 C 0.24785 0.9153 0.62165 0.0
C2830 C 0.26214 0.91558 0.63043 0.0
C2831 C 0.26573 0.90219 0.62716 0.0
C2832 C 0.25445 0.88814 0.61448 0.0
C2833 C 0.23979 0.88763 0.60511 0.0
C2834 C 0.23646 0.9014 0.60891 0.0
H2835 H 0.03457 0.34333 0.61728 0.0
H2836 H 0.04438 0.32223 0.67211 0.0
H2837 H 0.07411 0.33101 0.65897 0.0
H2838 H 0.05549 0.32822 0.58267 0.0
H2839 H 0.06414 0.34709 0.56613 0.0
H2840 H 0.0442 0.34025 0.58053 0.0
H2841 H 0.05799 0.37125 0.5967 0.0
H2842 H 0.07801 0.37816 0.5824 0.0
H2843 H 0.07866 0.38037 0.60996 0.0
H2844 H 0.10272 0.34216 0.63981 0.0
H2845 H 0.12706 0.3522 0.6146 0.0
H2846 H 0.09782 0.36443 0.57147 0.0
C2847 C 0.04305 0.34071 0.6266 0.0
C2848 C 0.0373 0.33226 0.64579 0.0
C2849 C 0.04859 0.32872 0.65738 0.0
C2850 C 0.0655 0.33373 0.65009 0.0
C2851 C 0.07077 0.34205 0.63108 0.0
C2852 C 0.05981 0.34532 0.61938 0.0
C2853 C 0.06822 0.35344 0.59893 0.0
C2854 C 0.05737 0.34154 0.58101 0.0
C2855 C 0.07088 0.3719 0.59689 0.0
C2856 C 0.08562 0.35418 0.60091 0.0
C2857 C 0.08695 0.3478 0.61969 0.0
C2858 C 0.10183 0.34719 0.62506 0.0
C2859 C 0.11561 0.353 0.61072 0.0
C2860 C 0.11428 0.35911 0.59117 0.0
C2861 C 0.09913 0.3598 0.58631 0.0
H2862 H 0.27983 0.32485 0.63973 0.0
H2863 H 0.24046 0.26928 0.6392 0.0
H2864 H 0.22149 0.27524 0.61755 0.0
H2865 H 0.24944 0.34061 0.64185 0.0
H2866 H 0.26234 0.35894 0.62506 0.0
H2867 H 0.27301 0.35051 0.64074 0.0
H2868 H 0.28752 0.34608 0.60832 0.0
H2869 H 0.27693 0.35454 0.59255 0.0
H2870 H 0.27387 0.3332 0.58724 0.0
H2871 H 0.20666 0.28684 0.5963 0.0
H2872 H 0.19698 0.30351 0.57574 0.0
H2873 H 0.24594 0.35163 0.58905 0.0
C2874 C 0.26722 0.31394 0.63508 0.0
C2875 C 0.26167 0.29659 0.64122 0.0
C2876 C 0.24506 0.28268 0.63473 0.0
C2877 C 0.23415 0.28592 0.62244 0.0
C2878 C 0.23999 0.30312 0.6167 0.0
C2879 C 0.25613 0.31692 0.62271 0.0
C2880 C 0.25924 0.33414 0.61411 0.0
C2881 C 0.26111 0.34679 0.63148 0.0
C2882 C 0.27534 0.34247 0.5997 0.0
C2883 C 0.24232 0.3278 0.60234 0.0
C2884 C 0.23143 0.30986 0.60412 0.0
C2885 C 0.2151 0.30088 0.59467 0.0
C2886 C 0.20977 0.31047 0.58291 0.0
C2887 C 0.22077 0.32886 0.58059 0.0
C2888 C 0.23721 0.33761 0.59061 0.0
H2889 H 0.65639 0.9531 0.65363 0.0
H2890 H 0.71222 0.97843 0.6663 0.0
H2891 H 0.71304 0.95361 0.65005 0.0
H2892 H 0.6466 0.90715 0.6616 0.0
H2893 H 0.63061 0.89886 0.6413 0.0
H2894 H 0.63409 0.91753 0.65622 0.0
H2895 H 0.64023 0.9354 0.62272 0.0
H2896 H 0.63711 0.91694 0.60773 0.0
H2897 H 0.65736 0.93769 0.60548 0.0
H2898 H 0.70874 0.92878 0.62747 0.0
H2899 H 0.69908 0.90382 0.60394 0.0
H2900 H 0.64536 0.89306 0.60865 0.0
C2901 C 0.66869 0.95319 0.65349 0.0
C2902 C 0.68425 0.96765 0.66123 0.0
C2903 C 0.70012 0.96739 0.66062 0.0
C2904 C 0.70072 0.95339 0.65135 0.0
C2905 C 0.68527 0.93963 0.64317 0.0
C2906 C 0.66945 0.93921 0.64458 0.0
C2907 C 0.65492 0.92328 0.63376 0.0
C2908 C 0.64072 0.91098 0.64914 0.0
C2909 C 0.64695 0.92866 0.61639 0.0
C2910 C 0.66518 0.9152 0.62532 0.0
C2911 C 0.68265 0.92483 0.63093 0.0
C2912 C 0.69498 0.9208 0.62351 0.0
C2913 C 0.68929 0.90647 0.61018 0.0
C2914 C 0.67133 0.89609 0.60453 0.0
C2915 C 0.65918 0.9006 0.61243 0.0
H2916 H 0.02955 0.73104 0.6308 0.0
H2917 H 0.02958 0.68308 0.64371 0.0
H2918 H 0.05702 0.69414 0.62362 0.0
H2919 H 0.04643 0.73667 0.57863 0.0
H2920 H 0.05957 0.7602 0.5808 0.0
H2921 H 0.03957 0.74824 0.59559 0.0
H2922 H 0.0569 0.7621 0.62907 0.0
H2923 H 0.07693 0.77411 0.6144 0.0
H2924 H 0.07561 0.76 0.63499 0.0
H2925 H 0.08515 0.71096 0.60335 0.0
H2926 H 0.11172 0.73226 0.58404 0.0
H2927 H 0.09313 0.76902 0.58434 0.0
C2928 C 0.03524 0.72279 0.62933 0.0
C2929 C 0.02738 0.70618 0.63886 0.0
C2930 C 0.03532 0.69584 0.63654 0.0
C2931 C 0.05091 0.702 0.62514 0.0
C2932 C 0.05835 0.71847 0.61607 0.0
C2933 C 0.05075 0.7287 0.61797 0.0
C2934 C 0.06159 0.74608 0.60708 0.0
C2935 C 0.05116 0.7479 0.58948 0.0
C2936 C 0.06815 0.76147 0.6223 0.0
C2937 C 0.07658 0.74412 0.59896 0.0
C2938 C 0.07445 0.72809 0.60427 0.0
C2939 C 0.08691 0.72352 0.59902 0.0
C2940 C 0.10198 0.73571 0.58815 0.0
C2941 C 0.10444 0.75224 0.58264 0.0
C2942 C 0.09147 0.75638 0.58804 0.0
H2943 H 0.97339 0.60932 0.71205 0.0
H2944 H 0.02612 0.65463 0.70709 0.0
H2945 H 0.03797 0.63828 0.72441 0.0
H2946 H 0.97833 0.59696 0.76203 0.0
H2947 H 0.96546 0.57369 0.75736 0.0
H2948 H 0.96111 0.58839 0.74314 0.0
H2949 H 0.96547 0.57596 0.70894 0.0
H2950 H 0.96974 0.56114 0.72307 0.0
H2951 H 0.98558 0.57588 0.70452 0.0
H2952 H 0.04405 0.61772 0.74362 0.0
H2953 H 0.04389 0.59425 0.76388 0.0
H2954 H 0.98729 0.56217 0.75665 0.0
C2955 C 0.98745 0.61569 0.71435 0.0
C2956 C -0.00116 0.63323 0.70814 0.0
C2957 C 0.01714 0.64121 0.7117 0.0
C2958 C 0.02401 0.63203 0.7215 0.0
C2959 C 0.01243 0.61487 0.72769 0.0
C2960 C -0.00546 0.60674 0.72427 0.0
C2961 C 0.98493 0.58845 0.73335 0.0
C2962 C 0.97168 0.58679 0.74996 0.0
C2963 C 0.9759 0.57454 0.71646 0.0
C2964 C 0.00019 0.58769 0.7426 0.0
C2965 C 0.01594 0.60302 0.73901 0.0
C2966 C 0.03182 0.60559 0.74638 0.0
C2967 C 0.03161 0.59214 0.75779 0.0
C2968 C 0.01561 0.57633 0.7618 0.0
C2969 C -0.00028 0.57413 0.75398 0.0
H2970 H 0.36456 0.3649 0.70551 0.0
H2971 H 0.31543 0.36479 0.7051 0.0
H2972 H 0.33059 0.39474 0.7196 0.0
H2973 H 0.37931 0.38642 0.7532 0.0
H2974 H 0.40218 0.39888 0.7458 0.0
H2975 H 0.38781 0.37806 0.7338 0.0
H2976 H 0.39624 0.39281 0.69798 0.0
H2977 H 0.41066 0.41369 0.70989 0.0
H2978 H 0.39356 0.41127 0.69293 0.0
H2979 H 0.3508 0.42413 0.73575 0.0
H2980 H 0.37447 0.45059 0.7527 0.0
H2981 H 0.41009 0.431 0.74349 0.0
C2982 C 0.35704 0.37128 0.70817 0.0
C2983 C 0.33884 0.36256 0.70407 0.0
C2984 C 0.32941 0.37124 0.70808 0.0
C2985 C 0.3379 0.38827 0.71627 0.0
C2986 C 0.35582 0.39641 0.7204 0.0
C2987 C 0.36529 0.38821 0.71648 0.0
C2988 C 0.38419 0.39945 0.72332 0.0
C2989 C 0.38862 0.39015 0.74002 0.0
C2990 C 0.39691 0.40461 0.70493 0.0
C2991 C 0.38383 0.41515 0.73191 0.0
C2992 C 0.36739 0.41321 0.72995 0.0
C2993 C 0.36375 0.42582 0.7373 0.0
C2994 C 0.37725 0.44075 0.74703 0.0
C2995 C 0.39416 0.44292 0.74942 0.0
C2996 C 0.39742 0.42993 0.74159 0.0
H2997 H 0.62631 0.02676 0.70128 0.0
H2998 H 0.62925 0.97958 0.69499 0.0
H2999 H 0.60156 0.96302 0.71475 0.0
H3000 H 0.61154 0.01947 0.75262 0.0
H3001 H 0.59723 0.02822 0.74984 0.0
H3002 H 0.61634 0.03602 0.73358 0.0
H3003 H 0.59676 0.02785 0.70127 0.0
H3004 H 0.57758 0.02014 0.71744 0.0
H3005 H 0.57845 0.00579 0.69835 0.0
H3006 H 0.57421 0.9519 0.73636 0.0
H3007 H 0.54958 0.94728 0.75903 0.0
H3008 H 0.56522 0.00196 0.75198 0.0
C3009 C 0.62097 0.01288 0.70373 0.0
C3010 C 0.62984 0.00442 0.69648 0.0
C3011 C 0.62263 0.98631 0.70038 0.0
C3012 C 0.6069 0.97679 0.71154 0.0
C3013 C 0.59864 0.9856 0.71877 0.0
C3014 C 0.60543 0.00324 0.71504 0.0
C3015 C 0.59457 0.00984 0.72554 0.0
C3016 C 0.60558 0.02424 0.74133 0.0
C3017 C 0.58635 0.01628 0.7097 0.0
C3018 C 0.58073 0.99321 0.73593 0.0
C3019 C 0.58318 0.97932 0.73167 0.0
C3020 C 0.57211 0.96265 0.73973 0.0
C3021 C 0.55817 0.96014 0.75253 0.0
C3022 C 0.55559 0.97428 0.75726 0.0
C3023 C 0.56701 0.99097 0.74877 0.0
loop_
_geom_bond_atom_site_label_1
_geom_bond_atom_site_label_2
_geom_bond_distance
_geom_bond_site_symmetry_2
_ccdc_geom_bond_type
C0 O1 1.306 1_556 S
C0 O3 1.160 . S
O1 C0 1.306 1_554 S
O1 Cd2 2.228 . S
Cd2 O1 2.228 . S
Cd2 O6 2.273 . S
Cd2 O10 2.277 1_554 S
O3 C0 1.160 . S
O3 Cd4 2.203 1_656 S
Cd4 O3 2.203 1_454 S
Cd4 O6 2.411 1_455 S
Cd4 O7 2.333 . S
Cd4 O8 2.352 . S
Cd4 O12 2.277 1_554 S
Cd4 O13 2.356 . S
C5 O10 1.209 1_455 S
C5 O12 1.226 . S
O6 Cd2 2.273 . S
O6 Cd4 2.411 1_655 S
O6 C9 1.305 1_655 S
O7 Cd4 2.333 . S
O7 C9 1.253 . S
O8 Cd4 2.352 . S
O8 C11 1.258 . S
C9 O6 1.305 1_455 S
C9 O7 1.253 . S
O10 Cd2 2.277 1_556 S
O10 C5 1.209 1_655 S
C11 O8 1.258 . S
C11 O13 1.282 . S
O12 Cd4 2.277 1_556 S
O12 C5 1.226 . S
O13 Cd4 2.356 . S
O13 C11 1.282 . S
C14 O15 1.306 . S
C14 O17 1.160 . S
O15 C14 1.306 . S
O15 Cd16 2.228 . S
Cd16 O15 2.228 . S
Cd16 O20 2.273 1_554 S
Cd16 O24 2.277 . S
O17 C14 1.160 . S
O17 Cd18 2.203 . S
Cd18 O17 2.203 . S
Cd18 O20 2.411 1_554 S
Cd18 O21 2.333 1_554 S
Cd18 O22 2.352 1_554 S
Cd18 O26 2.277 . S
Cd18 O27 2.365 . S
C19 O24 1.209 . S
C19 O26 1.226 . S
O20 Cd16 2.273 1_556 S
O20 Cd18 2.411 1_556 S
O20 C23 1.320 . S
O21 Cd18 2.333 1_556 S
O21 C23 1.214 . S
O22 Cd18 2.352 1_556 S
O22 C25 1.258 . S
C23 O20 1.320 . S
C23 O21 1.214 . S
O24 Cd16 2.277 . S
O24 C19 1.209 . S
C25 O22 1.258 . S
C25 O27 1.264 1_556 S
O26 Cd18 2.277 . S
O26 C19 1.226 . S
O27 Cd18 2.365 . S
O27 C25 1.264 1_554 S
C28 O29 1.306 . S
C28 O31 1.160 . S
O29 C28 1.306 . S
O29 Cd30 2.228 . S
Cd30 O29 2.228 . S
Cd30 O34 2.273 1_554 S
Cd30 O38 2.277 . S
O31 C28 1.160 . S
O31 Cd32 2.203 1_565 S
Cd32 O31 2.203 1_545 S
Cd32 O34 2.411 1_544 S
Cd32 O35 2.333 1_554 S
Cd32 O36 2.352 1_554 S
Cd32 O40 2.277 . S
Cd32 O41 2.356 . S
C33 O38 1.209 1_545 S
C33 O40 1.226 . S
O34 Cd30 2.273 1_556 S
O34 Cd32 2.411 1_566 S
O34 C37 1.320 1_565 S
O35 Cd32 2.333 1_556 S
O35 C37 1.214 . S
O36 Cd32 2.352 1_556 S
O36 C39 1.258 . S
C37 O34 1.320 1_545 S
C37 O35 1.214 . S
O38 Cd30 2.277 . S
O38 C33 1.209 1_565 S
C39 O36 1.258 . S
C39 O41 1.282 1_556 S
O40 Cd32 2.277 . S
O40 C33 1.226 . S
O41 Cd32 2.356 . S
O41 C39 1.282 1_554 S
C42 O43 1.306 . S
C42 O45 1.160 . S
O43 C42 1.306 . S
O43 Cd44 2.228 1_556 S
Cd44 O43 2.228 1_554 S
Cd44 O48 2.273 . S
Cd44 O52 2.277 1_554 S
O45 C42 1.160 . S
O45 Cd46 2.203 1_656 S
Cd46 O45 2.203 1_454 S
Cd46 O48 2.411 1_455 S
Cd46 O49 2.333 . S
Cd46 O50 2.352 . S
Cd46 O54 2.277 1_554 S
Cd46 O55 2.356 . S
C47 O52 1.209 1_455 S
C47 O54 1.226 . S
O48 Cd44 2.273 . S
O48 Cd46 2.411 1_655 S
O48 C51 1.320 . S
O49 Cd46 2.333 . S
O49 C51 1.214 1_455 S
O50 Cd46 2.352 . S
O50 C53 1.258 . S
C51 O48 1.320 . S
C51 O49 1.214 1_655 S
O52 Cd44 2.277 1_556 S
O52 C47 1.209 1_655 S
C53 O50 1.258 . S
C53 O55 1.282 . S
O54 Cd46 2.277 1_556 S
O54 C47 1.226 . S
O55 Cd46 2.356 . S
O55 C53 1.282 . S
C56 O57 1.306 . S
C56 O59 1.160 . S
O57 C56 1.306 . S
O57 Cd58 2.228 . S
Cd58 O57 2.228 . S
Cd58 O62 2.273 1_554 S
Cd58 O66 2.277 . S
O59 C56 1.160 . S
O59 Cd60 2.203 . S
Cd60 O59 2.203 . S
Cd60 O62 2.411 1_554 S
Cd60 O63 2.333 1_554 S
Cd60 O64 2.352 1_554 S
Cd60 O68 2.277 . S
Cd60 O69 2.346 1_554 S
C61 O66 1.209 . S
C61 O68 1.226 . S
O62 Cd58 2.273 1_556 S
O62 Cd60 2.411 1_556 S
O62 C65 1.320 . S
O63 Cd60 2.333 1_556 S
O63 C65 1.214 . S
O64 Cd60 2.352 1_556 S
O64 C67 1.258 . S
C65 O62 1.320 . S
C65 O63 1.214 . S
O66 Cd58 2.277 . S
O66 C61 1.209 . S
C67 O64 1.258 . S
C67 O69 1.304 . S
O68 Cd60 2.277 . S
O68 C61 1.226 . S
O69 Cd60 2.346 1_556 S
O69 C67 1.304 . S
C70 O71 1.287 1_556 S
C70 O73 1.160 . S
O71 C70 1.287 1_554 S
O71 Cd72 2.240 . S
Cd72 O71 2.240 . S
Cd72 O76 2.273 . S
Cd72 O80 2.277 1_554 S
O73 C70 1.160 . S
O73 Cd74 2.203 1_546 S
Cd74 O73 2.203 1_564 S
Cd74 O76 2.411 1_565 S
Cd74 O77 2.333 . S
Cd74 O78 2.352 . S
Cd74 O82 2.277 1_554 S
Cd74 O83 2.356 . S
C75 O80 1.209 1_565 S
C75 O82 1.226 . S
O76 Cd72 2.273 . S
O76 Cd74 2.411 1_545 S
O76 C79 1.320 . S
O77 Cd74 2.333 . S
O77 C79 1.214 1_565 S
O78 Cd74 2.352 . S
O78 C81 1.258 . S
C79 O76 1.320 . S
C79 O77 1.214 1_545 S
O80 Cd72 2.277 1_556 S
O80 C75 1.209 1_545 S
C81 O78 1.258 . S
C81 O83 1.282 . S
O82 Cd74 2.277 1_556 S
O82 C75 1.226 . S
O83 Cd74 2.356 . S
O83 C81 1.282 . S
C84 O85 1.306 . S
C84 O87 1.160 . S
O85 C84 1.306 . S
O85 Cd86 2.228 . S
Cd86 O85 2.228 . S
Cd86 O90 2.273 . S
Cd86 O94 2.277 . S
O87 C84 1.160 . S
O87 Cd88 2.203 . S
Cd88 O87 2.203 . S
Cd88 O90 2.411 . S
Cd88 O91 2.333 . S
Cd88 O92 2.352 . S
Cd88 O96 2.277 . S
Cd88 O97 2.356 . S
C89 O94 1.209 . S
C89 O96 1.226 . S
O90 Cd86 2.273 . S
O90 Cd88 2.411 . S
O90 C93 1.320 . S
O91 Cd88 2.333 . S
O91 C93 1.214 . S
O92 Cd88 2.352 . S
O92 C95 1.258 . S
C93 O90 1.320 . S
C93 O91 1.214 . S
O94 Cd86 2.277 . S
O94 C89 1.209 . S
C95 O92 1.258 . S
C95 O97 1.282 . S
O96 Cd88 2.277 . S
O96 C89 1.226 . S
O97 Cd88 2.356 . S
O97 C95 1.282 . S
C98 O99 1.306 . S
C98 O101 1.160 . S
O99 C98 1.306 . S
O99 Cd100 2.228 1_545 S
Cd100 O99 2.228 1_565 S
Cd100 O104 2.273 . S
Cd100 O108 2.277 . S
O101 C98 1.160 . S
O101 Cd102 2.203 1_545 S
Cd102 O101 2.203 1_565 S
Cd102 O104 2.411 . S
Cd102 O105 2.333 . S
Cd102 O106 2.353 1_565 S
Cd102 O110 2.277 . S
Cd102 O111 2.356 . S
C103 O108 1.209 . S
C103 O110 1.226 . S
O104 Cd100 2.273 . S
O104 Cd102 2.411 . S
O104 C107 1.320 . S
O105 Cd102 2.333 . S
O105 C107 1.214 . S
O106 Cd102 2.353 1_545 S
O106 C109 1.265 1_545 S
C107 O104 1.320 . S
C107 O105 1.214 . S
O108 Cd100 2.277 . S
O108 C103 1.209 . S
C109 O106 1.265 1_565 S
C109 O111 1.282 . S
O110 Cd102 2.277 . S
O110 C103 1.226 . S
O111 Cd102 2.356 . S
O111 C109 1.282 . S
C112 O113 1.306 . S
C112 O115 1.159 1_655 S
O113 C112 1.306 . S
O113 Cd114 2.228 1_655 S
Cd114 O113 2.228 1_455 S
Cd114 O118 2.273 . S
Cd114 O122 2.277 . S
O115 C112 1.159 1_455 S
O115 Cd116 2.227 . S
Cd116 O115 2.227 . S
Cd116 O118 2.411 . S
Cd116 O119 2.333 . S
Cd116 O120 2.352 . S
Cd116 O124 2.277 . S
Cd116 O125 2.356 . S
C117 O122 1.209 . S
C117 O124 1.226 . S
O118 Cd114 2.273 . S
O118 Cd116 2.411 . S
O118 C121 1.320 . S
O119 Cd116 2.333 . S
O119 C121 1.214 . S
O120 Cd116 2.352 . S
O120 C123 1.258 . S
C121 O118 1.320 . S
C121 O119 1.214 . S
O122 Cd114 2.277 . S
O122 C117 1.209 . S
C123 O120 1.258 . S
C123 O125 1.282 . S
O124 Cd116 2.277 . S
O124 C117 1.226 . S
O125 Cd116 2.356 . S
O125 C123 1.282 . S
C126 O127 1.306 . S
C126 O129 1.160 . S
O127 C126 1.306 . S
O127 Cd128 2.228 . S
Cd128 O127 2.228 . S
Cd128 O132 2.273 . S
Cd128 O136 2.277 . S
O129 C126 1.160 . S
O129 Cd130 2.203 . S
Cd130 O129 2.203 . S
Cd130 O132 2.411 . S
Cd130 O133 2.333 . S
Cd130 O134 2.352 1_565 S
Cd130 O138 2.277 . S
Cd130 O139 2.356 1_565 S
C131 O136 1.209 . S
C131 O138 1.226 . S
O132 Cd128 2.273 . S
O132 Cd130 2.411 . S
O132 C135 1.320 . S
O133 Cd130 2.333 . S
O133 C135 1.214 . S
O134 Cd130 2.352 1_545 S
O134 C137 1.258 . S
C135 O132 1.320 . S
C135 O133 1.214 . S
O136 Cd128 2.277 . S
O136 C131 1.209 . S
C137 O134 1.258 . S
C137 O139 1.282 . S
O138 Cd130 2.277 . S
O138 C131 1.226 . S
O139 Cd130 2.356 1_545 S
O139 C137 1.282 . S
C140 O141 1.306 . S
C140 O143 1.160 . S
O141 C140 1.306 . S
O141 Cd142 2.228 1_655 S
Cd142 O141 2.228 1_455 S
Cd142 O146 2.273 . S
Cd142 O150 2.277 . S
O143 C140 1.160 . S
O143 Cd144 2.203 1_655 S
Cd144 O143 2.203 1_455 S
Cd144 O146 2.411 . S
Cd144 O147 2.333 . S
Cd144 O148 2.352 . S
Cd144 O152 2.277 . S
Cd144 O153 2.356 . S
C145 O150 1.209 . S
C145 O152 1.226 . S
O146 Cd142 2.273 . S
O146 Cd144 2.411 . S
O146 C149 1.320 . S
O147 Cd144 2.333 . S
O147 C149 1.214 . S
O148 Cd144 2.352 . S
O148 C151 1.258 . S
C149 O146 1.320 . S
C149 O147 1.214 . S
O150 Cd142 2.277 . S
O150 C145 1.209 . S
C151 O148 1.258 . S
C151 O153 1.282 . S
O152 Cd144 2.277 . S
O152 C145 1.226 . S
O153 Cd144 2.356 . S
O153 C151 1.282 . S
C154 O155 1.306 . S
C154 O157 1.160 . S
O155 C154 1.306 . S
O155 Cd156 2.228 . S
Cd156 O155 2.228 . S
Cd156 O160 2.273 . S
Cd156 O164 2.277 . S
O157 C154 1.160 . S
O157 Cd158 2.203 . S
Cd158 O157 2.203 . S
Cd158 O160 2.411 . S
Cd158 O161 2.333 . S
Cd158 O162 2.352 . S
Cd158 O166 2.277 . S
Cd158 O167 2.356 . S
C159 O164 1.209 . S
C159 O166 1.226 . S
O160 Cd156 2.273 . S
O160 Cd158 2.411 . S
O160 C163 1.320 . S
O161 Cd158 2.333 . S
O161 C163 1.214 . S
O162 Cd158 2.352 . S
O162 C165 1.258 . S
C163 O160 1.320 . S
C163 O161 1.214 . S
O164 Cd156 2.277 . S
O164 C159 1.209 . S
C165 O162 1.258 . S
C165 O167 1.282 . S
O166 Cd158 2.277 . S
O166 C159 1.226 . S
O167 Cd158 2.356 . S
O167 C165 1.282 . S
C168 O169 1.306 . S
C168 O171 1.160 . S
O169 C168 1.306 . S
O169 Cd170 2.228 1_565 S
Cd170 O169 2.228 1_545 S
Cd170 O174 2.273 . S
Cd170 O178 2.277 . S
O171 C168 1.160 . S
O171 Cd172 2.203 1_565 S
Cd172 O171 2.203 1_545 S
Cd172 O174 2.411 . S
Cd172 O175 2.333 . S
Cd172 O176 2.352 . S
Cd172 O180 2.277 . S
Cd172 O181 2.356 . S
C173 O178 1.209 . S
C173 O180 1.226 . S
O174 Cd170 2.273 . S
O174 Cd172 2.411 . S
O174 C177 1.320 . S
O175 Cd172 2.333 . S
O175 C177 1.214 . S
O176 Cd172 2.352 . S
O176 C179 1.258 . S
C177 O174 1.320 . S
C177 O175 1.214 . S
O178 Cd170 2.277 . S
O178 C173 1.209 . S
C179 O176 1.258 . S
C179 O181 1.282 . S
O180 Cd172 2.277 . S
O180 C173 1.226 . S
O181 Cd172 2.356 . S
O181 C179 1.282 . S
C182 O183 1.306 . S
C182 O185 1.178 . S
O183 C182 1.306 . S
O183 Cd184 2.228 . S
Cd184 O183 2.228 . S
Cd184 O188 2.273 . S
Cd184 O192 2.277 . S
O185 C182 1.178 . S
O185 Cd186 2.201 . S
Cd186 O185 2.201 . S
Cd186 O188 2.411 . S
Cd186 O189 2.333 . S
Cd186 O190 2.352 1_655 S
Cd186 O194 2.277 . S
Cd186 O195 2.356 1_655 S
C187 O192 1.209 . S
C187 O194 1.226 . S
O188 Cd184 2.273 . S
O188 Cd186 2.411 . S
O188 C191 1.320 . S
O189 Cd186 2.333 . S
O189 C191 1.214 . S
O190 Cd186 2.352 1_455 S
O190 C193 1.258 . S
C191 O188 1.320 . S
C191 O189 1.214 . S
O192 Cd184 2.277 . S
O192 C187 1.209 . S
C193 O190 1.258 . S
C193 O195 1.282 . S
O194 Cd186 2.277 . S
O194 C187 1.226 . S
O195 Cd186 2.356 1_455 S
O195 C193 1.282 . S
C196 O197 1.306 . S
C196 O199 1.160 . S
O197 C196 1.306 . S
O197 Cd198 2.228 . S
Cd198 O197 2.228 . S
Cd198 O202 2.273 . S
Cd198 O206 2.277 . S
O199 C196 1.160 . S
O199 Cd200 2.203 . S
Cd200 O199 2.203 . S
Cd200 O202 2.411 . S
Cd200 O203 2.333 . S
Cd200 O204 2.352 . S
Cd200 O208 2.277 . S
Cd200 O209 2.356 . S
C201 O206 1.209 . S
C201 O208 1.226 . S
O202 Cd198 2.273 . S
O202 Cd200 2.411 . S
O202 C205 1.320 . S
O203 Cd200 2.333 . S
O203 C205 1.214 . S
O204 Cd200 2.352 . S
O204 C207 1.258 . S
C205 O202 1.320 . S
C205 O203 1.214 . S
O206 Cd198 2.277 . S
O206 C201 1.209 . S
C207 O204 1.258 . S
C207 O209 1.282 . S
O208 Cd200 2.277 . S
O208 C201 1.226 . S
O209 Cd200 2.356 . S
O209 C207 1.282 . S
C210 O211 1.306 . S
C210 O213 1.160 . S
O211 C210 1.306 . S
O211 Cd212 2.228 . S
Cd212 O211 2.228 . S
Cd212 O216 2.273 . S
Cd212 O220 2.277 . S
O213 C210 1.160 . S
O213 Cd214 2.203 . S
Cd214 O213 2.203 . S
Cd214 O216 2.411 . S
Cd214 O217 2.333 . S
Cd214 O218 2.352 . S
Cd214 O222 2.277 . S
Cd214 O223 2.356 . S
C215 O220 1.209 . S
C215 O222 1.226 . S
O216 Cd212 2.273 . S
O216 Cd214 2.411 . S
O216 C219 1.320 . S
O217 Cd214 2.333 . S
O217 C219 1.214 . S
O218 Cd214 2.352 . S
O218 C221 1.258 . S
C219 O216 1.320 . S
C219 O217 1.214 . S
O220 Cd212 2.277 . S
O220 C215 1.209 . S
C221 O218 1.258 . S
C221 O223 1.282 . S
O222 Cd214 2.277 . S
O222 C215 1.226 . S
O223 Cd214 2.356 . S
O223 C221 1.282 . S
C224 O225 1.306 . S
C224 O227 1.160 . S
O225 C224 1.306 . S
O225 Cd226 2.228 . S
Cd226 O225 2.228 . S
Cd226 O230 2.273 . S
Cd226 O234 2.277 . S
O227 C224 1.160 . S
O227 Cd228 2.203 . S
Cd228 O227 2.203 . S
Cd228 O230 2.411 . S
Cd228 O231 2.333 . S
Cd228 O232 2.352 1_545 S
Cd228 O236 2.277 . S
Cd228 O237 2.356 1_545 S
C229 O234 1.209 . S
C229 O236 1.226 . S
O230 Cd226 2.273 . S
O230 Cd228 2.411 . S
O230 C233 1.320 . S
O231 Cd228 2.333 . S
O231 C233 1.214 . S
O232 Cd228 2.352 1_565 S
O232 C235 1.258 . S
C233 O230 1.320 . S
C233 O231 1.214 . S
O234 Cd226 2.277 . S
O234 C229 1.209 . S
C235 O232 1.258 . S
C235 O237 1.282 . S
O236 Cd228 2.277 . S
O236 C229 1.226 . S
O237 Cd228 2.356 1_565 S
O237 C235 1.282 . S
C238 O239 1.306 . S
C238 O241 1.160 . S
O239 C238 1.306 . S
O239 Cd240 2.228 1_455 S
Cd240 O239 2.228 1_655 S
Cd240 O244 2.273 . S
Cd240 O248 2.277 . S
O241 C238 1.160 . S
O241 Cd242 2.203 1_455 S
Cd242 O241 2.203 1_655 S
Cd242 O244 2.411 . S
Cd242 O245 2.333 . S
Cd242 O246 2.366 . S
Cd242 O250 2.277 . S
Cd242 O251 2.356 . S
C243 O248 1.209 . S
C243 O250 1.226 . S
O244 Cd240 2.273 . S
O244 Cd242 2.411 . S
O244 C247 1.320 . S
O245 Cd242 2.333 . S
O245 C247 1.214 . S
O246 Cd242 2.366 . S
O246 C249 1.259 . S
C247 O244 1.320 . S
C247 O245 1.214 . S
O248 Cd240 2.277 . S
O248 C243 1.209 . S
C249 O246 1.259 . S
C249 O251 1.282 . S
O250 Cd242 2.277 . S
O250 C243 1.226 . S
O251 Cd242 2.356 . S
O251 C249 1.282 . S
C252 C253 1.384 . S
C252 C254 1.384 . S
C252 H280 0.931 . S
C253 C252 1.384 . S
C253 C256 1.382 . S
C254 C252 1.384 . S
C254 C255 1.381 . S
C254 H281 0.930 . S
C255 C254 1.381 . S
C255 C257 1.381 . S
C255 C258 1.487 . S
C256 C253 1.382 . S
C256 C257 1.387 . S
C256 H282 0.930 . S
C257 C255 1.381 . S
C257 C256 1.387 . S
C257 H283 0.931 . S
C258 C255 1.487 . S
C258 C265 1.399 . S
C258 N296 1.343 . S
C259 C260 1.384 . S
C259 C261 1.384 . S
C259 H284 0.931 . S
C260 C259 1.384 . S
C260 C263 1.382 . S
C261 C259 1.384 . S
C261 C262 1.381 . S
C261 H285 0.930 . S
C262 C261 1.381 . S
C262 C264 1.381 . S
C262 C265 1.487 . S
C263 C260 1.382 . S
C263 C264 1.387 . S
C263 H286 0.930 . S
C264 C262 1.381 . S
C264 C263 1.387 . S
C264 H287 0.931 . S
C265 C258 1.399 . S
C265 C262 1.487 . S
C265 N297 1.343 . S
C266 C267 1.384 . S
C266 C268 1.384 . S
C266 H288 0.931 . S
C267 C266 1.384 . S
C267 C270 1.382 . S
C268 C266 1.384 . S
C268 C269 1.381 . S
C268 H289 0.930 . S
C269 C268 1.381 . S
C269 C271 1.381 . S
C269 C272 1.487 . S
C270 C267 1.382 . S
C270 C271 1.387 . S
C270 H290 0.930 . S
C271 C269 1.381 . S
C271 C270 1.387 . S
C271 H291 0.931 . S
C272 C269 1.487 . S
C272 C279 1.399 . S
C272 N297 1.343 . S
C273 C274 1.384 . S
C273 C275 1.384 . S
C273 H292 0.931 . S
C274 C273 1.384 . S
C274 C277 1.382 . S
C275 C273 1.384 . S
C275 C276 1.381 . S
C275 H293 0.930 . S
C276 C275 1.381 . S
C276 C278 1.381 . S
C276 C279 1.487 . S
C277 C274 1.382 . S
C277 C278 1.387 . S
C277 H294 0.930 . S
C278 C276 1.381 . S
C278 C277 1.387 . S
C278 H295 0.931 . S
C279 C272 1.399 . S
C279 C276 1.487 . S
C279 N296 1.343 . S
H280 C252 0.931 . S
H281 C254 0.930 . S
H282 C256 0.930 . S
H283 C257 0.931 . S
H284 C259 0.931 . S
H285 C261 0.930 . S
H286 C263 0.930 . S
H287 C264 0.931 . S
H288 C266 0.931 . S
H289 C268 0.930 . S
H290 C270 0.930 . S
H291 C271 0.931 . S
H292 C273 0.931 . S
H293 C275 0.930 . S
H294 C277 0.930 . S
H295 C278 0.931 . S
N296 C258 1.343 . S
N296 C279 1.343 . S
N297 C265 1.343 . S
N297 C272 1.343 . S
C298 C299 1.384 . S
C298 C300 1.384 . S
C298 H326 0.931 . S
C299 C298 1.384 . S
C299 C302 1.382 . S
C300 C298 1.384 . S
C300 C301 1.381 . S
C300 H327 0.930 . S
C301 C300 1.381 . S
C301 C303 1.381 . S
C301 C304 1.487 . S
C302 C299 1.382 . S
C302 C303 1.387 . S
C302 H328 0.930 . S
C303 C301 1.381 . S
C303 C302 1.387 . S
C303 H329 0.931 . S
C304 C301 1.487 . S
C304 C311 1.399 . S
C304 N342 1.343 . S
C305 C306 1.384 . S
C305 C307 1.384 . S
C305 H330 0.931 . S
C306 C305 1.384 . S
C306 C309 1.382 . S
C307 C305 1.384 . S
C307 C308 1.381 . S
C307 H331 0.930 . S
C308 C307 1.381 . S
C308 C310 1.381 . S
C308 C311 1.487 . S
C309 C306 1.382 . S
C309 C310 1.387 . S
C309 H332 0.930 . S
C310 C308 1.381 . S
C310 C309 1.387 . S
C310 H333 0.931 . S
C311 C304 1.399 . S
C311 C308 1.487 . S
C311 N343 1.343 . S
C312 C313 1.384 . S
C312 C314 1.384 . S
C312 H334 0.931 . S
C313 C312 1.384 . S
C313 C316 1.382 . S
C314 C312 1.384 . S
C314 C315 1.381 . S
C314 H335 0.930 . S
C315 C314 1.381 . S
C315 C317 1.381 . S
C315 C318 1.487 . S
C316 C313 1.382 . S
C316 C317 1.387 . S
C316 H336 0.930 . S
C317 C315 1.381 . S
C317 C316 1.387 . S
C317 H337 0.931 . S
C318 C315 1.487 . S
C318 C325 1.399 . S
C318 N343 1.343 . S
C319 C320 1.384 . S
C319 C321 1.384 . S
C319 H338 0.931 . S
C320 C319 1.384 . S
C320 C323 1.382 . S
C321 C319 1.384 . S
C321 C322 1.381 . S
C321 H339 0.930 . S
C322 C321 1.381 . S
C322 C324 1.381 . S
C322 C325 1.487 . S
C323 C320 1.382 . S
C323 C324 1.387 . S
C323 H340 0.930 . S
C324 C322 1.381 . S
C324 C323 1.387 . S
C324 H341 0.931 . S
C325 C318 1.399 . S
C325 C322 1.487 . S
C325 N342 1.343 . S
H326 C298 0.931 . S
H327 C300 0.930 . S
H328 C302 0.930 . S
H329 C303 0.931 . S
H330 C305 0.931 . S
H331 C307 0.930 . S
H332 C309 0.930 . S
H333 C310 0.931 . S
H334 C312 0.931 . S
H335 C314 0.930 . S
H336 C316 0.930 . S
H337 C317 0.931 . S
H338 C319 0.931 . S
H339 C321 0.930 . S
H340 C323 0.930 . S
H341 C324 0.931 . S
N342 C304 1.343 . S
N342 C325 1.343 . S
N343 C311 1.343 . S
N343 C318 1.343 . S
C344 C345 1.384 . S
C344 C346 1.384 . S
C344 H372 0.931 . S
C345 C344 1.384 . S
C345 C348 1.382 . S
C346 C344 1.384 . S
C346 C347 1.381 . S
C346 H373 0.930 . S
C347 C346 1.381 . S
C347 C349 1.381 . S
C347 C350 1.487 . S
C348 C345 1.382 . S
C348 C349 1.387 . S
C348 H374 0.930 . S
C349 C347 1.381 . S
C349 C348 1.387 . S
C349 H375 0.931 . S
C350 C347 1.487 . S
C350 C357 1.399 . S
C350 N388 1.343 . S
C351 C352 1.384 . S
C351 C353 1.384 . S
C351 H376 0.931 . S
C352 C351 1.384 . S
C352 C355 1.382 . S
C353 C351 1.384 . S
C353 C354 1.381 . S
C353 H377 0.930 . S
C354 C353 1.381 . S
C354 C356 1.381 . S
C354 C357 1.487 . S
C355 C352 1.382 . S
C355 C356 1.387 . S
C355 H378 0.930 . S
C356 C354 1.381 . S
C356 C355 1.387 . S
C356 H379 0.931 . S
C357 C350 1.399 . S
C357 C354 1.487 . S
C357 N389 1.343 . S
C358 C359 1.384 . S
C358 C360 1.384 . S
C358 H380 0.931 . S
C359 C358 1.384 . S
C359 C362 1.382 . S
C360 C358 1.384 . S
C360 C361 1.381 . S
C360 H381 0.930 . S
C361 C360 1.381 . S
C361 C363 1.381 . S
C361 C364 1.487 . S
C362 C359 1.382 . S
C362 C363 1.387 . S
C362 H382 0.930 . S
C363 C361 1.381 . S
C363 C362 1.387 . S
C363 H383 0.931 . S
C364 C361 1.487 . S
C364 C371 1.399 . S
C364 N389 1.343 . S
C365 C366 1.384 . S
C365 C367 1.384 . S
C365 H384 0.931 . S
C366 C365 1.384 . S
C366 C369 1.382 . S
C367 C365 1.384 . S
C367 C368 1.381 . S
C367 H385 0.930 . S
C368 C367 1.381 . S
C368 C370 1.381 . S
C368 C371 1.487 . S
C369 C366 1.382 . S
C369 C370 1.387 . S
C369 H386 0.930 . S
C370 C368 1.381 . S
C370 C369 1.387 . S
C370 H387 0.931 . S
C371 C364 1.399 . S
C371 C368 1.487 . S
C371 N388 1.343 . S
H372 C344 0.931 . S
H373 C346 0.930 . S
H374 C348 0.930 . S
H375 C349 0.931 . S
H376 C351 0.931 . S
H377 C353 0.930 . S
H378 C355 0.930 . S
H379 C356 0.931 . S
H380 C358 0.931 . S
H381 C360 0.930 . S
H382 C362 0.930 . S
H383 C363 0.931 . S
H384 C365 0.931 . S
H385 C367 0.930 . S
H386 C369 0.930 . S
H387 C370 0.931 . S
N388 C350 1.343 . S
N388 C371 1.343 . S
N389 C357 1.343 . S
N389 C364 1.343 . S
C390 C391 1.384 . S
C390 C392 1.384 . S
C390 H418 0.931 . S
C391 C390 1.384 . S
C391 C394 1.382 . S
C392 C390 1.384 . S
C392 C393 1.381 . S
C392 H419 0.930 . S
C393 C392 1.381 . S
C393 C395 1.381 . S
C393 C396 1.487 . S
C394 C391 1.382 . S
C394 C395 1.387 . S
C394 H420 0.930 . S
C395 C393 1.381 . S
C395 C394 1.387 . S
C395 H421 0.931 . S
C396 C393 1.487 . S
C396 C403 1.399 . S
C396 N434 1.343 . S
C397 C398 1.384 . S
C397 C399 1.384 . S
C397 H422 0.931 . S
C398 C397 1.384 . S
C398 C401 1.382 . S
C399 C397 1.384 . S
C399 C400 1.381 . S
C399 H423 0.930 . S
C400 C399 1.381 . S
C400 C402 1.381 . S
C400 C403 1.487 . S
C401 C398 1.382 . S
C401 C402 1.387 . S
C401 H424 0.930 . S
C402 C400 1.381 . S
C402 C401 1.387 . S
C402 H425 0.931 . S
C403 C396 1.399 . S
C403 C400 1.487 . S
C403 N435 1.343 . S
C404 C405 1.384 . S
C404 C406 1.384 . S
C404 H426 0.931 . S
C405 C404 1.384 . S
C405 C408 1.382 . S
C406 C404 1.384 . S
C406 C407 1.381 . S
C406 H427 0.930 . S
C407 C406 1.381 . S
C407 C409 1.381 . S
C407 C410 1.487 . S
C408 C405 1.382 . S
C408 C409 1.387 . S
C408 H428 0.930 . S
C409 C407 1.381 . S
C409 C408 1.387 . S
C409 H429 0.931 . S
C410 C407 1.487 . S
C410 C417 1.399 . S
C410 N435 1.343 . S
C411 C412 1.384 . S
C411 C413 1.384 . S
C411 H430 0.931 . S
C412 C411 1.384 . S
C412 C415 1.382 . S
C413 C411 1.384 . S
C413 C414 1.381 . S
C413 H431 0.930 . S
C414 C413 1.381 . S
C414 C416 1.381 . S
C414 C417 1.487 . S
C415 C412 1.382 . S
C415 C416 1.387 . S
C415 H432 0.930 . S
C416 C414 1.381 . S
C416 C415 1.387 . S
C416 H433 0.931 . S
C417 C410 1.399 . S
C417 C414 1.487 . S
C417 N434 1.343 . S
H418 C390 0.931 . S
H419 C392 0.930 . S
H420 C394 0.930 . S
H421 C395 0.931 . S
H422 C397 0.931 . S
H423 C399 0.930 . S
H424 C401 0.930 . S
H425 C402 0.931 . S
H426 C404 0.931 . S
H427 C406 0.930 . S
H428 C408 0.930 . S
H429 C409 0.931 . S
H430 C411 0.931 . S
H431 C413 0.930 . S
H432 C415 0.930 . S
H433 C416 0.931 . S
N434 C396 1.343 . S
N434 C417 1.343 . S
N435 C403 1.343 . S
N435 C410 1.343 . S
C436 C437 1.384 . S
C436 C438 1.384 . S
C436 H464 0.931 . S
C437 C436 1.384 . S
C437 C440 1.382 . S
C438 C436 1.384 . S
C438 C439 1.381 . S
C438 H465 0.930 . S
C439 C438 1.381 . S
C439 C441 1.381 . S
C439 C442 1.487 . S
C440 C437 1.382 . S
C440 C441 1.387 . S
C440 H466 0.930 . S
C441 C439 1.381 . S
C441 C440 1.387 . S
C441 H467 0.931 . S
C442 C439 1.487 . S
C442 C449 1.399 . S
C442 N480 1.343 . S
C443 C444 1.384 . S
C443 C445 1.384 . S
C443 H468 0.931 . S
C444 C443 1.384 . S
C444 C447 1.382 . S
C445 C443 1.384 . S
C445 C446 1.381 . S
C445 H469 0.930 . S
C446 C445 1.381 . S
C446 C448 1.381 . S
C446 C449 1.487 . S
C447 C444 1.382 . S
C447 C448 1.387 . S
C447 H470 0.930 . S
C448 C446 1.381 . S
C448 C447 1.387 . S
C448 H471 0.931 . S
C449 C442 1.399 . S
C449 C446 1.487 . S
C449 N481 1.343 . S
C450 C451 1.384 . S
C450 C452 1.384 . S
C450 H472 0.931 . S
C451 C450 1.384 . S
C451 C454 1.382 . S
C452 C450 1.384 . S
C452 C453 1.381 . S
C452 H473 0.930 . S
C453 C452 1.381 . S
C453 C455 1.381 . S
C453 C456 1.487 . S
C454 C451 1.382 . S
C454 C455 1.387 . S
C454 H474 0.930 . S
C455 C453 1.381 . S
C455 C454 1.387 . S
C455 H475 0.931 . S
C456 C453 1.487 . S
C456 C463 1.399 . S
C456 N481 1.343 . S
C457 C458 1.384 . S
C457 C459 1.384 . S
C457 H476 0.931 . S
C458 C457 1.384 . S
C458 C461 1.382 . S
C459 C457 1.384 . S
C459 C460 1.381 . S
C459 H477 0.930 . S
C460 C459 1.381 . S
C460 C462 1.381 . S
C460 C463 1.487 . S
C461 C458 1.382 . S
C461 C462 1.387 . S
C461 H478 0.930 . S
C462 C460 1.381 . S
C462 C461 1.387 . S
C462 H479 0.931 . S
C463 C456 1.399 . S
C463 C460 1.487 . S
C463 N480 1.343 . S
H464 C436 0.931 . S
H465 C438 0.930 . S
H466 C440 0.930 . S
H467 C441 0.931 . S
H468 C443 0.931 . S
H469 C445 0.930 . S
H470 C447 0.930 . S
H471 C448 0.931 . S
H472 C450 0.931 . S
H473 C452 0.930 . S
H474 C454 0.930 . S
H475 C455 0.931 . S
H476 C457 0.931 . S
H477 C459 0.930 . S
H478 C461 0.930 . S
H479 C462 0.931 . S
N480 C442 1.343 . S
N480 C463 1.343 . S
N481 C449 1.343 . S
N481 C456 1.343 . S
C482 C483 1.384 . S
C482 C484 1.384 . S
C482 H510 0.931 . S
C483 C482 1.384 . S
C483 C486 1.382 . S
C484 C482 1.384 . S
C484 C485 1.381 . S
C484 H511 0.930 . S
C485 C484 1.381 . S
C485 C487 1.381 . S
C485 C488 1.487 . S
C486 C483 1.382 . S
C486 C487 1.387 . S
C486 H512 0.930 . S
C487 C485 1.381 . S
C487 C486 1.387 . S
C487 H513 0.931 . S
C488 C485 1.487 . S
C488 C495 1.399 . S
C488 N526 1.343 . S
C489 C490 1.384 . S
C489 C491 1.384 . S
C489 H514 0.931 . S
C490 C489 1.384 . S
C490 C493 1.382 . S
C491 C489 1.384 . S
C491 C492 1.381 . S
C491 H515 0.930 . S
C492 C491 1.381 . S
C492 C494 1.381 . S
C492 C495 1.487 . S
C493 C490 1.382 . S
C493 C494 1.387 . S
C493 H516 0.930 . S
C494 C492 1.381 . S
C494 C493 1.387 . S
C494 H517 0.931 . S
C495 C488 1.399 . S
C495 C492 1.487 . S
C495 N527 1.343 . S
C496 C497 1.384 . S
C496 C498 1.384 . S
C496 H518 0.931 . S
C497 C496 1.384 . S
C497 C500 1.382 . S
C498 C496 1.384 . S
C498 C499 1.381 . S
C498 H519 0.930 . S
C499 C498 1.381 . S
C499 C501 1.381 . S
C499 C502 1.487 . S
C500 C497 1.382 . S
C500 C501 1.387 . S
C500 H520 0.930 . S
C501 C499 1.381 . S
C501 C500 1.387 . S
C501 H521 0.931 . S
C502 C499 1.487 . S
C502 C509 1.399 . S
C502 N527 1.343 . S
C503 C504 1.384 . S
C503 C505 1.384 . S
C503 H522 0.931 . S
C504 C503 1.384 . S
C504 C507 1.382 . S
C505 C503 1.384 . S
C505 C506 1.381 . S
C505 H523 0.930 . S
C506 C505 1.381 . S
C506 C508 1.381 . S
C506 C509 1.487 . S
C507 C504 1.382 . S
C507 C508 1.387 . S
C507 H524 0.930 . S
C508 C506 1.381 . S
C508 C507 1.387 . S
C508 H525 0.931 . S
C509 C502 1.399 . S
C509 C506 1.487 . S
C509 N526 1.343 . S
H510 C482 0.931 . S
H511 C484 0.930 . S
H512 C486 0.930 . S
H513 C487 0.931 . S
H514 C489 0.931 . S
H515 C491 0.930 . S
H516 C493 0.930 . S
H517 C494 0.931 . S
H518 C496 0.931 . S
H519 C498 0.930 . S
H520 C500 0.930 . S
H521 C501 0.931 . S
H522 C503 0.931 . S
H523 C505 0.930 . S
H524 C507 0.930 . S
H525 C508 0.931 . S
N526 C488 1.343 . S
N526 C509 1.343 . S
N527 C495 1.343 . S
N527 C502 1.343 . S
C528 C529 1.384 . S
C528 C530 1.384 . S
C528 H556 0.931 . S
C529 C528 1.384 . S
C529 C532 1.382 . S
C530 C528 1.384 . S
C530 C531 1.381 . S
C530 H557 0.930 . S
C531 C530 1.381 . S
C531 C533 1.381 . S
C531 C534 1.487 . S
C532 C529 1.382 . S
C532 C533 1.387 . S
C532 H558 0.930 . S
C533 C531 1.381 . S
C533 C532 1.387 . S
C533 H559 0.931 . S
C534 C531 1.487 . S
C534 C541 1.399 . S
C534 N572 1.343 . S
C535 C536 1.384 . S
C535 C537 1.384 . S
C535 H560 0.931 . S
C536 C535 1.384 . S
C536 C539 1.382 . S
C537 C535 1.384 . S
C537 C538 1.381 . S
C537 H561 0.930 . S
C538 C537 1.381 . S
C538 C540 1.381 . S
C538 C541 1.487 . S
C539 C536 1.382 . S
C539 C540 1.387 . S
C539 H562 0.930 . S
C540 C538 1.381 . S
C540 C539 1.387 . S
C540 H563 0.931 . S
C541 C534 1.399 . S
C541 C538 1.487 . S
C541 N573 1.343 . S
C542 C543 1.384 . S
C542 C544 1.384 . S
C542 H564 0.931 . S
C543 C542 1.384 . S
C543 C546 1.382 . S
C544 C542 1.384 . S
C544 C545 1.381 . S
C544 H565 0.930 . S
C545 C544 1.381 . S
C545 C547 1.381 . S
C545 C548 1.487 . S
C546 C543 1.382 . S
C546 C547 1.387 . S
C546 H566 0.930 . S
C547 C545 1.381 . S
C547 C546 1.387 . S
C547 H567 0.931 . S
C548 C545 1.487 . S
C548 C555 1.399 . S
C548 N573 1.343 . S
C549 C550 1.384 . S
C549 C551 1.384 . S
C549 H568 0.931 . S
C550 C549 1.384 . S
C550 C553 1.382 . S
C551 C549 1.384 . S
C551 C552 1.381 . S
C551 H569 0.930 . S
C552 C551 1.381 . S
C552 C554 1.381 . S
C552 C555 1.487 . S
C553 C550 1.382 . S
C553 C554 1.387 . S
C553 H570 0.930 . S
C554 C552 1.381 . S
C554 C553 1.387 . S
C554 H571 0.931 . S
C555 C548 1.399 . S
C555 C552 1.487 . S
C555 N572 1.343 . S
H556 C528 0.931 . S
H557 C530 0.930 . S
H558 C532 0.930 . S
H559 C533 0.931 . S
H560 C535 0.931 . S
H561 C537 0.930 . S
H562 C539 0.930 . S
H563 C540 0.931 . S
H564 C542 0.931 . S
H565 C544 0.930 . S
H566 C546 0.930 . S
H567 C547 0.931 . S
H568 C549 0.931 . S
H569 C551 0.930 . S
H570 C553 0.930 . S
H571 C554 0.931 . S
N572 C534 1.343 . S
N572 C555 1.343 . S
N573 C541 1.343 . S
N573 C548 1.343 . S
C574 C575 1.384 . S
C574 C576 1.384 . S
C574 H602 0.931 . S
C575 C574 1.384 . S
C575 C578 1.382 . S
C576 C574 1.384 . S
C576 C577 1.381 . S
C576 H603 0.930 . S
C577 C576 1.381 . S
C577 C579 1.381 . S
C577 C580 1.487 . S
C578 C575 1.382 . S
C578 C579 1.387 . S
C578 H604 0.930 . S
C579 C577 1.381 . S
C579 C578 1.387 . S
C579 H605 0.931 . S
C580 C577 1.487 . S
C580 C587 1.399 . S
C580 N618 1.343 . S
C581 C582 1.384 . S
C581 C583 1.384 . S
C581 H606 0.931 . S
C582 C581 1.384 . S
C582 C585 1.382 . S
C583 C581 1.384 . S
C583 C584 1.381 . S
C583 H607 0.930 . S
C584 C583 1.381 . S
C584 C586 1.381 . S
C584 C587 1.487 . S
C585 C582 1.382 . S
C585 C586 1.387 . S
C585 H608 0.930 . S
C586 C584 1.381 . S
C586 C585 1.387 . S
C586 H609 0.931 . S
C587 C580 1.399 . S
C587 C584 1.487 . S
C587 N619 1.343 . S
C588 C589 1.384 . S
C588 C590 1.384 . S
C588 H610 0.931 . S
C589 C588 1.384 . S
C589 C592 1.382 . S
C590 C588 1.384 . S
C590 C591 1.381 . S
C590 H611 0.930 . S
C591 C590 1.381 . S
C591 C593 1.381 . S
C591 C594 1.487 . S
C592 C589 1.382 . S
C592 C593 1.387 . S
C592 H612 0.930 . S
C593 C591 1.381 . S
C593 C592 1.387 . S
C593 H613 0.931 . S
C594 C591 1.487 . S
C594 C601 1.399 . S
C594 N619 1.343 . S
C595 C596 1.384 . S
C595 C597 1.384 . S
C595 H614 0.931 . S
C596 C595 1.384 . S
C596 C599 1.382 . S
C597 C595 1.384 . S
C597 C598 1.381 . S
C597 H615 0.930 . S
C598 C597 1.381 . S
C598 C600 1.381 . S
C598 C601 1.487 . S
C599 C596 1.382 . S
C599 C600 1.387 . S
C599 H616 0.930 . S
C600 C598 1.381 . S
C600 C599 1.387 . S
C600 H617 0.931 . S
C601 C594 1.399 . S
C601 C598 1.487 . S
C601 N618 1.343 . S
H602 C574 0.931 . S
H603 C576 0.930 . S
H604 C578 0.930 . S
H605 C579 0.931 . S
H606 C581 0.931 . S
H607 C583 0.930 . S
H608 C585 0.930 . S
H609 C586 0.931 . S
H610 C588 0.931 . S
H611 C590 0.930 . S
H612 C592 0.930 . S
H613 C593 0.931 . S
H614 C595 0.931 . S
H615 C597 0.930 . S
H616 C599 0.930 . S
H617 C600 0.931 . S
N618 C580 1.343 . S
N618 C601 1.343 . S
N619 C587 1.343 . S
N619 C594 1.343 . S
C620 C621 1.384 . S
C620 C622 1.384 . S
C620 H648 0.931 . S
C621 C620 1.384 . S
C621 C624 1.382 . S
C622 C620 1.384 . S
C622 C623 1.381 . S
C622 H649 0.930 . S
C623 C622 1.381 . S
C623 C625 1.381 . S
C623 C626 1.487 . S
C624 C621 1.382 . S
C624 C625 1.387 . S
C624 H650 0.930 . S
C625 C623 1.381 . S
C625 C624 1.387 . S
C625 H651 0.931 . S
C626 C623 1.487 . S
C626 C633 1.399 . S
C626 N664 1.343 . S
C627 C628 1.384 . S
C627 C629 1.384 . S
C627 H652 0.931 . S
C628 C627 1.384 . S
C628 C631 1.382 . S
C629 C627 1.384 . S
C629 C630 1.381 . S
C629 H653 0.930 . S
C630 C629 1.381 . S
C630 C632 1.381 . S
C630 C633 1.487 . S
C631 C628 1.382 . S
C631 C632 1.387 . S
C631 H654 0.930 . S
C632 C630 1.381 . S
C632 C631 1.387 . S
C632 H655 0.931 . S
C633 C626 1.399 . S
C633 C630 1.487 . S
C633 N665 1.343 . S
C634 C635 1.384 . S
C634 C636 1.384 . S
C634 H656 0.931 . S
C635 C634 1.384 . S
C635 C638 1.382 . S
C636 C634 1.384 . S
C636 C637 1.381 . S
C636 H657 0.930 . S
C637 C636 1.381 . S
C637 C639 1.381 . S
C637 C640 1.487 . S
C638 C635 1.382 . S
C638 C639 1.387 . S
C638 H658 0.930 . S
C639 C637 1.381 . S
C639 C638 1.387 . S
C639 H659 0.931 . S
C640 C637 1.487 . S
C640 C647 1.399 . S
C640 N665 1.343 . S
C641 C642 1.384 . S
C641 C643 1.384 . S
C641 H660 0.931 . S
C642 C641 1.384 . S
C642 C645 1.382 . S
C643 C641 1.384 . S
C643 C644 1.381 . S
C643 H661 0.930 . S
C644 C643 1.381 . S
C644 C646 1.381 . S
C644 C647 1.487 . S
C645 C642 1.382 . S
C645 C646 1.387 . S
C645 H662 0.930 . S
C646 C644 1.381 . S
C646 C645 1.387 . S
C646 H663 0.931 . S
C647 C640 1.399 . S
C647 C644 1.487 . S
C647 N664 1.343 . S
H648 C620 0.931 . S
H649 C622 0.930 . S
H650 C624 0.930 . S
H651 C625 0.931 . S
H652 C627 0.931 . S
H653 C629 0.930 . S
H654 C631 0.930 . S
H655 C632 0.931 . S
H656 C634 0.931 . S
H657 C636 0.930 . S
H658 C638 0.930 . S
H659 C639 0.931 . S
H660 C641 0.931 . S
H661 C643 0.930 . S
H662 C645 0.930 . S
H663 C646 0.931 . S
N664 C626 1.343 . S
N664 C647 1.343 . S
N665 C633 1.343 . S
N665 C640 1.343 . S
C666 C667 1.384 . S
C666 C668 1.384 . S
C666 H694 0.931 . S
C667 C666 1.384 . S
C667 C670 1.382 1_655 S
C668 C666 1.384 . S
C668 C669 1.404 . S
C668 H695 0.930 . S
C669 C668 1.404 . S
C669 C671 1.370 1_655 S
C669 C672 1.473 1_655 S
C670 C667 1.382 1_455 S
C670 C671 1.387 . S
C670 H696 0.930 . S
C671 C669 1.370 1_455 S
C671 C670 1.387 . S
C671 H697 0.931 . S
C672 C669 1.473 1_455 S
C672 C679 1.399 1_455 S
C672 N710 1.316 . S
C673 C674 1.384 . S
C673 C675 1.384 . S
C673 H698 0.931 . S
C674 C673 1.384 . S
C674 C677 1.382 1_455 S
C675 C673 1.384 . S
C675 C676 1.382 . S
C675 H699 0.930 . S
C676 C675 1.382 . S
C676 C678 1.379 1_455 S
C676 C679 1.492 1_455 S
C677 C674 1.382 1_655 S
C677 C678 1.387 . S
C677 H700 0.930 . S
C678 C676 1.379 1_655 S
C678 C677 1.387 . S
C678 H701 0.931 . S
C679 C672 1.399 1_655 S
C679 C676 1.492 1_655 S
C679 N711 1.362 . S
C680 C681 1.384 . S
C680 C682 1.384 . S
C680 H702 0.931 . S
C681 C680 1.384 . S
C681 C684 1.382 1_455 S
C682 C680 1.384 . S
C682 C683 1.420 . S
C682 H703 0.930 . S
C683 C682 1.420 . S
C683 C685 1.362 1_455 S
C683 C686 1.466 . S
C684 C681 1.382 1_655 S
C684 C685 1.387 . S
C684 H704 0.930 . S
C685 C683 1.362 1_655 S
C685 C684 1.387 . S
C685 H705 0.931 . S
C686 C683 1.466 . S
C686 C693 1.399 . S
C686 N711 1.323 1_455 S
C687 C688 1.384 . S
C687 C689 1.384 . S
C687 H706 0.931 . S
C688 C687 1.384 . S
C688 C691 1.382 1_655 S
C689 C687 1.384 . S
C689 C690 1.382 1_655 S
C689 H707 0.930 . S
C690 C689 1.382 1_455 S
C690 C692 1.379 . S
C690 C693 1.499 . S
C691 C688 1.382 1_455 S
C691 C692 1.387 . S
C691 H708 0.930 . S
C692 C690 1.379 . S
C692 C691 1.387 . S
C692 H709 0.931 . S
C693 C686 1.399 . S
C693 C690 1.499 . S
C693 N710 1.362 . S
H694 C666 0.931 . S
H695 C668 0.930 . S
H696 C670 0.930 . S
H697 C671 0.931 . S
H698 C673 0.931 . S
H699 C675 0.930 . S
H700 C677 0.930 . S
H701 C678 0.931 . S
H702 C680 0.931 . S
H703 C682 0.930 . S
H704 C684 0.930 . S
H705 C685 0.931 . S
H706 C687 0.931 . S
H707 C689 0.930 . S
H708 C691 0.930 . S
H709 C692 0.931 . S
N710 C672 1.316 . S
N710 C693 1.362 . S
N711 C679 1.362 . S
N711 C686 1.323 1_655 S
C712 C713 1.384 . S
C712 C714 1.384 . S
C712 H740 0.931 . S
C713 C712 1.384 . S
C713 C716 1.382 . S
C714 C712 1.384 . S
C714 C715 1.381 . S
C714 H741 0.930 . S
C715 C714 1.381 . S
C715 C717 1.381 . S
C715 C718 1.487 . S
C716 C713 1.382 . S
C716 C717 1.387 . S
C716 H742 0.930 . S
C717 C715 1.381 . S
C717 C716 1.387 . S
C717 H743 0.931 . S
C718 C715 1.487 . S
C718 C725 1.399 . S
C718 N756 1.343 . S
C719 C720 1.384 . S
C719 C721 1.384 . S
C719 H744 0.931 . S
C720 C719 1.384 . S
C720 C723 1.382 . S
C721 C719 1.384 . S
C721 C722 1.381 . S
C721 H745 0.930 . S
C722 C721 1.381 . S
C722 C724 1.381 . S
C722 C725 1.487 . S
C723 C720 1.382 . S
C723 C724 1.387 . S
C723 H746 0.930 . S
C724 C722 1.381 . S
C724 C723 1.387 . S
C724 H747 0.931 . S
C725 C718 1.399 . S
C725 C722 1.487 . S
C725 N757 1.343 . S
C726 C727 1.384 . S
C726 C728 1.384 . S
C726 H748 0.931 . S
C727 C726 1.384 . S
C727 C730 1.382 . S
C728 C726 1.384 . S
C728 C729 1.381 . S
C728 H749 0.930 . S
C729 C728 1.381 . S
C729 C731 1.381 . S
C729 C732 1.487 . S
C730 C727 1.382 . S
C730 C731 1.387 . S
C730 H750 0.930 . S
C731 C729 1.381 . S
C731 C730 1.387 . S
C731 H751 0.931 . S
C732 C729 1.487 . S
C732 C739 1.399 . S
C732 N757 1.343 . S
C733 C734 1.384 . S
C733 C735 1.384 . S
C733 H752 0.931 . S
C734 C733 1.384 . S
C734 C737 1.382 . S
C735 C733 1.384 . S
C735 C736 1.381 . S
C735 H753 0.930 . S
C736 C735 1.381 . S
C736 C738 1.381 . S
C736 C739 1.487 . S
C737 C734 1.382 . S
C737 C738 1.387 . S
C737 H754 0.930 . S
C738 C736 1.381 . S
C738 C737 1.387 . S
C738 H755 0.931 . S
C739 C732 1.399 . S
C739 C736 1.487 . S
C739 N756 1.343 . S
H740 C712 0.931 . S
H741 C714 0.930 . S
H742 C716 0.930 . S
H743 C717 0.931 . S
H744 C719 0.931 . S
H745 C721 0.930 . S
H746 C723 0.930 . S
H747 C724 0.931 . S
H748 C726 0.931 . S
H749 C728 0.930 . S
H750 C730 0.930 . S
H751 C731 0.931 . S
H752 C733 0.931 . S
H753 C735 0.930 . S
H754 C737 0.930 . S
H755 C738 0.931 . S
N756 C718 1.343 . S
N756 C739 1.343 . S
N757 C725 1.343 . S
N757 C732 1.343 . S
C758 C759 1.384 1_545 S
C758 C760 1.384 . S
C758 H786 0.931 . S
C759 C758 1.384 1_565 S
C759 C762 1.382 . S
C760 C758 1.384 . S
C760 C761 1.381 1_545 S
C760 H787 0.930 . S
C761 C760 1.381 1_565 S
C761 C763 1.381 . S
C761 C764 1.487 . S
C762 C759 1.382 . S
C762 C763 1.387 . S
C762 H788 0.930 . S
C763 C761 1.381 . S
C763 C762 1.387 . S
C763 H789 0.931 . S
C764 C761 1.487 . S
C764 C771 1.399 1_565 S
C764 N802 1.343 . S
C765 C766 1.384 1_565 S
C765 C767 1.384 . S
C765 H790 0.931 . S
C766 C765 1.384 1_545 S
C766 C769 1.382 . S
C767 C765 1.384 . S
C767 C768 1.381 1_565 S
C767 H791 0.930 . S
C768 C767 1.381 1_545 S
C768 C770 1.381 . S
C768 C771 1.487 . S
C769 C766 1.382 . S
C769 C770 1.387 . S
C769 H792 0.930 . S
C770 C768 1.381 . S
C770 C769 1.387 . S
C770 H793 0.931 . S
C771 C764 1.399 1_545 S
C771 C768 1.487 . S
C771 N803 1.343 . S
C772 C773 1.384 1_565 S
C772 C774 1.384 . S
C772 H794 0.931 . S
C773 C772 1.384 1_545 S
C773 C776 1.382 . S
C774 C772 1.384 . S
C774 C775 1.381 1_565 S
C774 H795 0.930 . S
C775 C774 1.381 1_545 S
C775 C777 1.381 . S
C775 C778 1.487 . S
C776 C773 1.382 . S
C776 C777 1.387 . S
C776 H796 0.930 . S
C777 C775 1.381 . S
C777 C776 1.387 . S
C777 H797 0.931 . S
C778 C775 1.487 . S
C778 C785 1.399 1_545 S
C778 N803 1.343 . S
C779 C780 1.384 1_545 S
C779 C781 1.384 . S
C779 H798 0.931 . S
C780 C779 1.384 1_565 S
C780 C783 1.382 . S
C781 C779 1.384 . S
C781 C782 1.381 1_545 S
C781 H799 0.930 . S
C782 C781 1.381 1_565 S
C782 C784 1.381 . S
C782 C785 1.487 . S
C783 C780 1.382 . S
C783 C784 1.387 . S
C783 H800 0.930 . S
C784 C782 1.381 . S
C784 C783 1.387 . S
C784 H801 0.931 . S
C785 C778 1.399 1_565 S
C785 C782 1.487 . S
C785 N802 1.343 . S
H786 C758 0.931 . S
H787 C760 0.930 . S
H788 C762 0.930 . S
H789 C763 0.931 . S
H790 C765 0.931 . S
H791 C767 0.930 . S
H792 C769 0.930 . S
H793 C770 0.931 . S
H794 C772 0.931 . S
H795 C774 0.930 . S
H796 C776 0.930 . S
H797 C777 0.931 . S
H798 C779 0.931 . S
H799 C781 0.930 . S
H800 C783 0.930 . S
H801 C784 0.931 . S
N802 C764 1.343 . S
N802 C785 1.343 . S
N803 C771 1.343 . S
N803 C778 1.343 . S
C804 C805 1.384 . S
C804 C806 1.384 . S
C804 H832 0.931 . S
C805 C804 1.384 . S
C805 C808 1.382 1_545 S
C806 C804 1.384 . S
C806 C807 1.381 . S
C806 H833 0.930 . S
C807 C806 1.381 . S
C807 C809 1.383 1_545 S
C807 C810 1.490 1_545 S
C808 C805 1.382 1_565 S
C808 C809 1.387 . S
C808 H834 0.930 . S
C809 C807 1.383 1_565 S
C809 C808 1.387 . S
C809 H835 0.931 . S
C810 C807 1.490 1_565 S
C810 C817 1.399 1_565 S
C810 N848 1.363 . S
C811 C812 1.384 . S
C811 C813 1.384 . S
C811 H836 0.931 . S
C812 C811 1.384 . S
C812 C815 1.382 1_565 S
C813 C811 1.384 . S
C813 C814 1.394 . S
C813 H837 0.930 . S
C814 C813 1.394 . S
C814 C816 1.375 1_565 S
C814 C817 1.475 1_565 S
C815 C812 1.382 1_545 S
C815 C816 1.387 . S
C815 H838 0.930 . S
C816 C814 1.375 1_545 S
C816 C815 1.387 . S
C816 H839 0.931 . S
C817 C810 1.399 1_545 S
C817 C814 1.475 1_545 S
C817 N849 1.314 . S
C818 C819 1.384 . S
C818 C820 1.384 . S
C818 H840 0.931 . S
C819 C818 1.384 . S
C819 C822 1.382 1_565 S
C820 C818 1.384 . S
C820 C821 1.381 1_565 S
C820 H841 0.930 . S
C821 C820 1.381 1_545 S
C821 C823 1.383 . S
C821 C824 1.498 . S
C822 C819 1.382 1_545 S
C822 C823 1.387 . S
C822 H842 0.930 . S
C823 C821 1.383 . S
C823 C822 1.387 . S
C823 H843 0.931 . S
C824 C821 1.498 . S
C824 C831 1.399 1_545 S
C824 N849 1.363 . S
C825 C826 1.384 . S
C825 C827 1.384 . S
C825 H844 0.931 . S
C826 C825 1.384 . S
C826 C829 1.382 1_545 S
C827 C825 1.384 . S
C827 C828 1.411 . S
C827 H845 0.930 . S
C828 C827 1.411 . S
C828 C830 1.366 1_545 S
C828 C831 1.475 1_545 S
C829 C826 1.382 1_565 S
C829 C830 1.387 . S
C829 H846 0.930 . S
C830 C828 1.366 1_565 S
C830 C829 1.387 . S
C830 H847 0.931 . S
C831 C824 1.399 1_565 S
C831 C828 1.475 1_565 S
C831 N848 1.314 . S
H832 C804 0.931 . S
H833 C806 0.930 . S
H834 C808 0.930 . S
H835 C809 0.931 . S
H836 C811 0.931 . S
H837 C813 0.930 . S
H838 C815 0.930 . S
H839 C816 0.931 . S
H840 C818 0.931 . S
H841 C820 0.930 . S
H842 C822 0.930 . S
H843 C823 0.931 . S
H844 C825 0.931 . S
H845 C827 0.930 . S
H846 C829 0.930 . S
H847 C830 0.931 . S
N848 C810 1.363 . S
N848 C831 1.314 . S
N849 C817 1.314 . S
N849 C824 1.363 . S
C850 C851 1.384 . S
C850 C852 1.384 . S
C850 H878 0.931 . S
C851 C850 1.384 . S
C851 C854 1.382 1_655 S
C852 C850 1.384 . S
C852 C853 1.412 . S
C852 H879 0.930 . S
C853 C852 1.412 . S
C853 C855 1.366 1_655 S
C853 C856 1.475 1_655 S
C854 C851 1.382 1_455 S
C854 C855 1.387 . S
C854 H880 0.930 . S
C855 C853 1.366 1_455 S
C855 C854 1.387 . S
C855 H881 0.931 . S
C856 C853 1.475 1_455 S
C856 C863 1.399 1_455 S
C856 N894 1.315 . S
C857 C858 1.384 . S
C857 C859 1.384 . S
C857 H882 0.931 . S
C858 C857 1.384 . S
C858 C861 1.382 1_455 S
C859 C857 1.384 . S
C859 C860 1.382 1_455 S
C859 H883 0.930 . S
C860 C859 1.382 1_655 S
C860 C862 1.380 . S
C860 C863 1.499 . S
C861 C858 1.382 1_655 S
C861 C862 1.387 . S
C861 H884 0.930 . S
C862 C860 1.380 . S
C862 C861 1.387 . S
C862 H885 0.931 . S
C863 C856 1.399 1_655 S
C863 C860 1.499 . S
C863 N895 1.363 . S
C864 C865 1.384 . S
C864 C866 1.384 . S
C864 H886 0.931 . S
C865 C864 1.384 . S
C865 C868 1.382 1_455 S
C866 C864 1.384 . S
C866 C867 1.396 . S
C866 H887 0.930 . S
C867 C866 1.396 . S
C867 C869 1.374 1_455 S
C867 C870 1.475 1_455 S
C868 C865 1.382 1_655 S
C868 C869 1.387 . S
C868 H888 0.930 . S
C869 C867 1.374 1_655 S
C869 C868 1.387 . S
C869 H889 0.931 . S
C870 C867 1.475 1_655 S
C870 C877 1.399 1_655 S
C870 N895 1.315 . S
C871 C872 1.384 . S
C871 C873 1.384 . S
C871 H890 0.931 . S
C872 C871 1.384 . S
C872 C875 1.382 1_655 S
C873 C871 1.384 . S
C873 C874 1.382 . S
C873 H891 0.930 . S
C874 C873 1.382 . S
C874 C876 1.380 1_655 S
C874 C877 1.492 1_655 S
C875 C872 1.382 1_455 S
C875 C876 1.387 . S
C875 H892 0.930 . S
C876 C874 1.380 1_455 S
C876 C875 1.387 . S
C876 H893 0.931 . S
C877 C870 1.399 1_455 S
C877 C874 1.492 1_455 S
C877 N894 1.363 . S
H878 C850 0.931 . S
H879 C852 0.930 . S
H880 C854 0.930 . S
H881 C855 0.931 . S
H882 C857 0.931 . S
H883 C859 0.930 . S
H884 C861 0.930 . S
H885 C862 0.931 . S
H886 C864 0.931 . S
H887 C866 0.930 . S
H888 C868 0.930 . S
H889 C869 0.931 . S
H890 C871 0.931 . S
H891 C873 0.930 . S
H892 C875 0.930 . S
H893 C876 0.931 . S
N894 C856 1.315 . S
N894 C877 1.363 . S
N895 C863 1.363 . S
N895 C870 1.315 . S
C896 C897 1.384 . S
C896 C898 1.384 . S
C896 H924 0.931 . S
C897 C896 1.384 . S
C897 C900 1.382 . S
C898 C896 1.384 . S
C898 C899 1.381 . S
C898 H925 0.930 . S
C899 C898 1.381 . S
C899 C901 1.381 . S
C899 C902 1.487 . S
C900 C897 1.382 . S
C900 C901 1.387 . S
C900 H926 0.930 . S
C901 C899 1.381 . S
C901 C900 1.387 . S
C901 H927 0.931 . S
C902 C899 1.487 . S
C902 C909 1.399 . S
C902 N940 1.343 . S
C903 C904 1.384 . S
C903 C905 1.384 . S
C903 H928 0.931 . S
C904 C903 1.384 . S
C904 C907 1.382 . S
C905 C903 1.384 . S
C905 C906 1.381 . S
C905 H929 0.930 . S
C906 C905 1.381 . S
C906 C908 1.381 . S
C906 C909 1.487 . S
C907 C904 1.382 . S
C907 C908 1.387 . S
C907 H930 0.930 . S
C908 C906 1.381 . S
C908 C907 1.387 . S
C908 H931 0.931 . S
C909 C902 1.399 . S
C909 C906 1.487 . S
C909 N941 1.343 . S
C910 C911 1.384 . S
C910 C912 1.384 . S
C910 H932 0.931 . S
C911 C910 1.384 . S
C911 C914 1.382 . S
C912 C910 1.384 . S
C912 C913 1.381 . S
C912 H933 0.930 . S
C913 C912 1.381 . S
C913 C915 1.381 . S
C913 C916 1.487 . S
C914 C911 1.382 . S
C914 C915 1.387 . S
C914 H934 0.930 . S
C915 C913 1.381 . S
C915 C914 1.387 . S
C915 H935 0.931 . S
C916 C913 1.487 . S
C916 C923 1.399 . S
C916 N941 1.343 . S
C917 C918 1.384 . S
C917 C919 1.384 . S
C917 H936 0.931 . S
C918 C917 1.384 . S
C918 C921 1.382 . S
C919 C917 1.384 . S
C919 C920 1.381 . S
C919 H937 0.930 . S
C920 C919 1.381 . S
C920 C922 1.381 . S
C920 C923 1.487 . S
C921 C918 1.382 . S
C921 C922 1.387 . S
C921 H938 0.930 . S
C922 C920 1.381 . S
C922 C921 1.387 . S
C922 H939 0.931 . S
C923 C916 1.399 . S
C923 C920 1.487 . S
C923 N940 1.343 . S
H924 C896 0.931 . S
H925 C898 0.930 . S
H926 C900 0.930 . S
H927 C901 0.931 . S
H928 C903 0.931 . S
H929 C905 0.930 . S
H930 C907 0.930 . S
H931 C908 0.931 . S
H932 C910 0.931 . S
H933 C912 0.930 . S
H934 C914 0.930 . S
H935 C915 0.931 . S
H936 C917 0.931 . S
H937 C919 0.930 . S
H938 C921 0.930 . S
H939 C922 0.931 . S
N940 C902 1.343 . S
N940 C923 1.343 . S
N941 C909 1.343 . S
N941 C916 1.343 . S
C942 C943 1.384 . S
C942 C944 1.384 . S
C942 H970 0.931 . S
C943 C942 1.384 . S
C943 C946 1.382 . S
C944 C942 1.384 . S
C944 C945 1.381 . S
C944 H971 0.930 . S
C945 C944 1.381 . S
C945 C947 1.381 . S
C945 C948 1.487 . S
C946 C943 1.382 . S
C946 C947 1.387 . S
C946 H972 0.930 . S
C947 C945 1.381 . S
C947 C946 1.387 . S
C947 H973 0.931 . S
C948 C945 1.487 . S
C948 C955 1.399 . S
C948 N986 1.343 . S
C949 C950 1.384 . S
C949 C951 1.384 . S
C949 H974 0.931 . S
C950 C949 1.384 . S
C950 C953 1.382 . S
C951 C949 1.384 . S
C951 C952 1.381 . S
C951 H975 0.930 . S
C952 C951 1.381 . S
C952 C954 1.381 . S
C952 C955 1.487 . S
C953 C950 1.382 . S
C953 C954 1.387 . S
C953 H976 0.930 . S
C954 C952 1.381 . S
C954 C953 1.387 . S
C954 H977 0.931 . S
C955 C948 1.399 . S
C955 C952 1.487 . S
C955 N987 1.343 . S
C956 C957 1.384 . S
C956 C958 1.384 . S
C956 H978 0.931 . S
C957 C956 1.384 . S
C957 C960 1.382 . S
C958 C956 1.384 . S
C958 C959 1.381 . S
C958 H979 0.930 . S
C959 C958 1.381 . S
C959 C961 1.381 . S
C959 C962 1.487 . S
C960 C957 1.382 . S
C960 C961 1.387 . S
C960 H980 0.930 . S
C961 C959 1.381 . S
C961 C960 1.387 . S
C961 H981 0.931 . S
C962 C959 1.487 . S
C962 C969 1.399 . S
C962 N987 1.343 . S
C963 C964 1.384 . S
C963 C965 1.384 . S
C963 H982 0.931 . S
C964 C963 1.384 . S
C964 C967 1.382 . S
C965 C963 1.384 . S
C965 C966 1.381 . S
C965 H983 0.930 . S
C966 C965 1.381 . S
C966 C968 1.381 . S
C966 C969 1.487 . S
C967 C964 1.382 . S
C967 C968 1.387 . S
C967 H984 0.930 . S
C968 C966 1.381 . S
C968 C967 1.387 . S
C968 H985 0.931 . S
C969 C962 1.399 . S
C969 C966 1.487 . S
C969 N986 1.343 . S
H970 C942 0.931 . S
H971 C944 0.930 . S
H972 C946 0.930 . S
H973 C947 0.931 . S
H974 C949 0.931 . S
H975 C951 0.930 . S
H976 C953 0.930 . S
H977 C954 0.931 . S
H978 C956 0.931 . S
H979 C958 0.930 . S
H980 C960 0.930 . S
H981 C961 0.931 . S
H982 C963 0.931 . S
H983 C965 0.930 . S
H984 C967 0.930 . S
H985 C968 0.931 . S
N986 C948 1.343 . S
N986 C969 1.343 . S
N987 C955 1.343 . S
N987 C962 1.343 . S
C988 C989 1.384 . S
C988 C990 1.384 . S
C988 H1016 0.931 . S
C989 C988 1.384 . S
C989 C992 1.382 . S
C990 C988 1.384 . S
C990 C991 1.381 . S
C990 H1017 0.930 . S
C991 C990 1.381 . S
C991 C993 1.381 . S
C991 C994 1.487 . S
C992 C989 1.382 . S
C992 C993 1.387 . S
C992 H1018 0.930 . S
C993 C991 1.381 . S
C993 C992 1.387 . S
C993 H1019 0.931 . S
C994 C991 1.487 . S
C994 C1001 1.399 . S
C994 N1032 1.343 . S
C995 C996 1.384 . S
C995 C997 1.384 . S
C995 H1020 0.931 . S
C996 C995 1.384 . S
C996 C999 1.382 . S
C997 C995 1.384 . S
C997 C998 1.381 . S
C997 H1021 0.930 . S
C998 C997 1.381 . S
C998 C1000 1.381 . S
C998 C1001 1.487 . S
C999 C996 1.382 . S
C999 C1000 1.387 . S
C999 H1022 0.930 . S
C1000 C998 1.381 . S
C1000 C999 1.387 . S
C1000 H1023 0.931 . S
C1001 C994 1.399 . S
C1001 C998 1.487 . S
C1001 N1033 1.343 . S
C1002 C1003 1.384 . S
C1002 C1004 1.384 . S
C1002 H1024 0.931 . S
C1003 C1002 1.384 . S
C1003 C1006 1.382 . S
C1004 C1002 1.384 . S
C1004 C1005 1.381 . S
C1004 H1025 0.930 . S
C1005 C1004 1.381 . S
C1005 C1007 1.381 . S
C1005 C1008 1.487 . S
C1006 C1003 1.382 . S
C1006 C1007 1.387 . S
C1006 H1026 0.930 . S
C1007 C1005 1.381 . S
C1007 C1006 1.387 . S
C1007 H1027 0.931 . S
C1008 C1005 1.487 . S
C1008 C1015 1.399 . S
C1008 N1033 1.343 . S
C1009 C1010 1.384 . S
C1009 C1011 1.384 . S
C1009 H1028 0.931 . S
C1010 C1009 1.384 . S
C1010 C1013 1.382 . S
C1011 C1009 1.384 . S
C1011 C1012 1.381 . S
C1011 H1029 0.930 . S
C1012 C1011 1.381 . S
C1012 C1014 1.381 . S
C1012 C1015 1.487 . S
C1013 C1010 1.382 . S
C1013 C1014 1.387 . S
C1013 H1030 0.930 . S
C1014 C1012 1.381 . S
C1014 C1013 1.387 . S
C1014 H1031 0.931 . S
C1015 C1008 1.399 . S
C1015 C1012 1.487 . S
C1015 N1032 1.343 . S
H1016 C988 0.931 . S
H1017 C990 0.930 . S
H1018 C992 0.930 . S
H1019 C993 0.931 . S
H1020 C995 0.931 . S
H1021 C997 0.930 . S
H1022 C999 0.930 . S
H1023 C1000 0.931 . S
H1024 C1002 0.931 . S
H1025 C1004 0.930 . S
H1026 C1006 0.930 . S
H1027 C1007 0.931 . S
H1028 C1009 0.931 . S
H1029 C1011 0.930 . S
H1030 C1013 0.930 . S
H1031 C1014 0.931 . S
N1032 C994 1.343 . S
N1032 C1015 1.343 . S
N1033 C1001 1.343 . S
N1033 C1008 1.343 . S
C1034 C1035 1.384 . S
C1034 C1036 1.384 . S
C1034 H1062 0.931 . S
C1035 C1034 1.384 . S
C1035 C1038 1.382 . S
C1036 C1034 1.384 . S
C1036 C1037 1.381 . S
C1036 H1063 0.930 . S
C1037 C1036 1.381 . S
C1037 C1039 1.381 . S
C1037 C1040 1.487 . S
C1038 C1035 1.382 . S
C1038 C1039 1.387 . S
C1038 H1064 0.930 . S
C1039 C1037 1.381 . S
C1039 C1038 1.387 . S
C1039 H1065 0.931 . S
C1040 C1037 1.487 . S
C1040 C1047 1.399 . S
C1040 N1078 1.343 . S
C1041 C1042 1.384 . S
C1041 C1043 1.384 . S
C1041 H1066 0.931 . S
C1042 C1041 1.384 . S
C1042 C1045 1.382 . S
C1043 C1041 1.384 . S
C1043 C1044 1.381 . S
C1043 H1067 0.930 . S
C1044 C1043 1.381 . S
C1044 C1046 1.381 . S
C1044 C1047 1.487 . S
C1045 C1042 1.382 . S
C1045 C1046 1.387 . S
C1045 H1068 0.930 . S
C1046 C1044 1.381 . S
C1046 C1045 1.387 . S
C1046 H1069 0.931 . S
C1047 C1040 1.399 . S
C1047 C1044 1.487 . S
C1047 N1079 1.343 . S
C1048 C1049 1.384 . S
C1048 C1050 1.384 . S
C1048 H1070 0.931 . S
C1049 C1048 1.384 . S
C1049 C1052 1.382 . S
C1050 C1048 1.384 . S
C1050 C1051 1.381 . S
C1050 H1071 0.930 . S
C1051 C1050 1.381 . S
C1051 C1053 1.381 . S
C1051 C1054 1.487 . S
C1052 C1049 1.382 . S
C1052 C1053 1.387 . S
C1052 H1072 0.930 . S
C1053 C1051 1.381 . S
C1053 C1052 1.387 . S
C1053 H1073 0.931 . S
C1054 C1051 1.487 . S
C1054 C1061 1.399 . S
C1054 N1079 1.343 . S
C1055 C1056 1.384 . S
C1055 C1057 1.384 . S
C1055 H1074 0.931 . S
C1056 C1055 1.384 . S
C1056 C1059 1.382 . S
C1057 C1055 1.384 . S
C1057 C1058 1.381 . S
C1057 H1075 0.930 . S
C1058 C1057 1.381 . S
C1058 C1060 1.381 . S
C1058 C1061 1.487 . S
C1059 C1056 1.382 . S
C1059 C1060 1.387 . S
C1059 H1076 0.930 . S
C1060 C1058 1.381 . S
C1060 C1059 1.387 . S
C1060 H1077 0.931 . S
C1061 C1054 1.399 . S
C1061 C1058 1.487 . S
C1061 N1078 1.343 . S
H1062 C1034 0.931 . S
H1063 C1036 0.930 . S
H1064 C1038 0.930 . S
H1065 C1039 0.931 . S
H1066 C1041 0.931 . S
H1067 C1043 0.930 . S
H1068 C1045 0.930 . S
H1069 C1046 0.931 . S
H1070 C1048 0.931 . S
H1071 C1050 0.930 . S
H1072 C1052 0.930 . S
H1073 C1053 0.931 . S
H1074 C1055 0.931 . S
H1075 C1057 0.930 . S
H1076 C1059 0.930 . S
H1077 C1060 0.931 . S
N1078 C1040 1.343 . S
N1078 C1061 1.343 . S
N1079 C1047 1.343 . S
N1079 C1054 1.343 . S
H1080 C1092 0.930 . S
H1081 C1094 0.930 . S
H1082 C1095 0.930 . S
H1083 C1099 0.959 . S
H1084 C1099 0.959 . S
H1085 C1099 0.961 . S
H1086 C1100 0.960 . S
H1087 C1100 0.961 . S
H1088 C1100 0.959 . S
H1089 C1103 0.929 . S
H1090 C1104 0.931 . S
H1091 C1106 0.930 . S
C1092 H1080 0.930 . S
C1092 C1093 1.399 1_455 S
C1092 C1097 1.402 . S
C1093 C1092 1.399 1_655 S
C1093 C1094 1.376 . S
C1094 H1081 0.930 . S
C1094 C1093 1.376 . S
C1094 C1095 1.388 . S
C1095 H1082 0.930 . S
C1095 C1094 1.388 . S
C1095 C1096 1.390 . S
C1096 C1095 1.390 . S
C1096 C1097 1.392 1_655 S
C1096 C1102 1.465 . S
C1097 C1092 1.402 . S
C1097 C1096 1.392 1_455 S
C1097 C1098 1.514 . S
C1098 C1097 1.514 . S
C1098 C1099 1.502 . S
C1098 C1100 1.561 1_455 S
C1098 C1101 1.524 . S
C1099 H1083 0.959 . S
C1099 H1084 0.959 . S
C1099 H1085 0.961 . S
C1099 C1098 1.502 . S
C1100 H1086 0.960 . S
C1100 H1087 0.961 . S
C1100 H1088 0.959 . S
C1100 C1098 1.561 1_655 S
C1101 C1098 1.524 . S
C1101 C1102 1.396 1_455 S
C1101 C1106 1.391 . S
C1102 C1096 1.465 . S
C1102 C1101 1.396 1_655 S
C1102 C1103 1.399 . S
C1103 H1089 0.929 . S
C1103 C1102 1.399 . S
C1103 C1104 1.385 . S
C1104 H1090 0.931 . S
C1104 C1103 1.385 . S
C1104 C1105 1.389 . S
C1105 C1104 1.389 . S
C1105 C1106 1.387 1_655 S
C1106 H1091 0.930 . S
C1106 C1101 1.391 . S
C1106 C1105 1.387 1_455 S
H1107 C1119 0.930 . S
H1108 C1121 0.930 . S
H1109 C1122 0.930 . S
H1110 C1126 0.959 . S
H1111 C1126 0.959 . S
H1112 C1126 0.961 . S
H1113 C1127 0.960 . S
H1114 C1127 0.961 . S
H1115 C1127 0.959 . S
H1116 C1130 0.929 . S
H1117 C1131 0.931 . S
H1118 C1133 0.930 . S
C1119 H1107 0.930 . S
C1119 C1120 1.399 . S
C1119 C1124 1.399 . S
C1120 C1119 1.399 . S
C1120 C1121 1.376 . S
C1121 H1108 0.930 . S
C1121 C1120 1.376 . S
C1121 C1122 1.388 . S
C1122 H1109 0.930 . S
C1122 C1121 1.388 . S
C1122 C1123 1.390 . S
C1123 C1122 1.390 . S
C1123 C1124 1.394 . S
C1123 C1129 1.465 . S
C1124 C1119 1.399 . S
C1124 C1123 1.394 . S
C1124 C1125 1.516 . S
C1125 C1124 1.516 . S
C1125 C1126 1.502 . S
C1125 C1127 1.561 . S
C1125 C1128 1.526 . S
C1126 H1110 0.959 . S
C1126 H1111 0.959 . S
C1126 H1112 0.961 . S
C1126 C1125 1.502 . S
C1127 H1113 0.960 . S
C1127 H1114 0.961 . S
C1127 H1115 0.959 . S
C1127 C1125 1.561 . S
C1128 C1125 1.526 . S
C1128 C1129 1.396 . S
C1128 C1133 1.390 . S
C1129 C1123 1.465 . S
C1129 C1128 1.396 . S
C1129 C1130 1.399 . S
C1130 H1116 0.929 . S
C1130 C1129 1.399 . S
C1130 C1131 1.385 . S
C1131 H1117 0.931 . S
C1131 C1130 1.385 . S
C1131 C1132 1.389 . S
C1132 C1131 1.389 . S
C1132 C1133 1.387 . S
C1133 H1118 0.930 . S
C1133 C1128 1.390 . S
C1133 C1132 1.387 . S
H1134 C1146 0.930 . S
H1135 C1148 0.930 . S
H1136 C1149 0.930 . S
H1137 C1153 0.959 . S
H1138 C1153 0.959 . S
H1139 C1153 0.961 . S
H1140 C1154 0.960 . S
H1141 C1154 0.961 . S
H1142 C1154 0.959 . S
H1143 C1157 0.929 . S
H1144 C1158 0.931 . S
H1145 C1160 0.930 . S
C1146 H1134 0.930 . S
C1146 C1147 1.399 1_565 S
C1146 C1151 1.399 . S
C1147 C1146 1.399 1_545 S
C1147 C1148 1.376 . S
C1148 H1135 0.930 . S
C1148 C1147 1.376 . S
C1148 C1149 1.388 . S
C1149 H1136 0.930 . S
C1149 C1148 1.388 . S
C1149 C1150 1.390 . S
C1150 C1149 1.390 . S
C1150 C1151 1.394 1_545 S
C1150 C1156 1.465 . S
C1151 C1146 1.399 . S
C1151 C1150 1.394 1_565 S
C1151 C1152 1.516 . S
C1152 C1151 1.516 . S
C1152 C1153 1.502 . S
C1152 C1154 1.561 . S
C1152 C1155 1.526 . S
C1153 H1137 0.959 . S
C1153 H1138 0.959 . S
C1153 H1139 0.961 . S
C1153 C1152 1.502 . S
C1154 H1140 0.960 . S
C1154 H1141 0.961 . S
C1154 H1142 0.959 . S
C1154 C1152 1.561 . S
C1155 C1152 1.526 . S
C1155 C1156 1.396 1_565 S
C1155 C1160 1.390 . S
C1156 C1150 1.465 . S
C1156 C1155 1.396 1_545 S
C1156 C1157 1.399 . S
C1157 H1143 0.929 . S
C1157 C1156 1.399 . S
C1157 C1158 1.385 . S
C1158 H1144 0.931 . S
C1158 C1157 1.385 . S
C1158 C1159 1.389 . S
C1159 C1158 1.389 . S
C1159 C1160 1.387 1_545 S
C1160 H1145 0.930 . S
C1160 C1155 1.390 . S
C1160 C1159 1.387 1_565 S
H1161 C1173 0.930 . S
H1162 C1175 0.930 . S
H1163 C1176 0.930 . S
H1164 C1180 0.959 . S
H1165 C1180 0.959 . S
H1166 C1180 0.961 . S
H1167 C1181 0.960 . S
H1168 C1181 0.961 . S
H1169 C1181 0.959 . S
H1170 C1184 0.929 . S
H1171 C1185 0.931 . S
H1172 C1187 0.930 . S
C1173 H1161 0.930 . S
C1173 C1174 1.399 1_545 S
C1173 C1178 1.399 . S
C1174 C1173 1.399 1_565 S
C1174 C1175 1.376 . S
C1175 H1162 0.930 . S
C1175 C1174 1.376 . S
C1175 C1176 1.388 . S
C1176 H1163 0.930 . S
C1176 C1175 1.388 . S
C1176 C1177 1.390 . S
C1177 C1176 1.390 . S
C1177 C1178 1.394 1_565 S
C1177 C1183 1.465 . S
C1178 C1173 1.399 . S
C1178 C1177 1.394 1_545 S
C1178 C1179 1.516 . S
C1179 C1178 1.516 . S
C1179 C1180 1.502 . S
C1179 C1181 1.561 . S
C1179 C1182 1.526 . S
C1180 H1164 0.959 . S
C1180 H1165 0.959 . S
C1180 H1166 0.961 . S
C1180 C1179 1.502 . S
C1181 H1167 0.960 . S
C1181 H1168 0.961 . S
C1181 H1169 0.959 . S
C1181 C1179 1.561 . S
C1182 C1179 1.526 . S
C1182 C1183 1.396 1_545 S
C1182 C1187 1.390 . S
C1183 C1177 1.465 . S
C1183 C1182 1.396 1_565 S
C1183 C1184 1.399 . S
C1184 H1170 0.929 . S
C1184 C1183 1.399 . S
C1184 C1185 1.385 . S
C1185 H1171 0.931 . S
C1185 C1184 1.385 . S
C1185 C1186 1.389 . S
C1186 C1185 1.389 . S
C1186 C1187 1.387 1_565 S
C1187 H1172 0.930 . S
C1187 C1182 1.390 . S
C1187 C1186 1.387 1_545 S
H1188 C1200 0.930 . S
H1189 C1202 0.930 1_655 S
H1190 C1203 0.940 . S
H1191 C1207 0.959 1_655 S
H1192 C1207 0.959 . S
H1193 C1207 0.961 . S
H1194 C1208 0.960 . S
H1195 C1208 0.961 . S
H1196 C1208 0.959 . S
H1197 C1211 0.929 . S
H1198 C1212 0.931 . S
H1199 C1214 0.930 . S
C1200 H1188 0.930 . S
C1200 C1201 1.399 . S
C1200 C1205 1.399 . S
C1201 C1200 1.399 . S
C1201 C1202 1.376 . S
C1202 H1189 0.930 1_455 S
C1202 C1201 1.376 . S
C1202 C1203 1.366 1_455 S
C1203 H1190 0.940 . S
C1203 C1202 1.366 1_655 S
C1203 C1204 1.405 1_655 S
C1204 C1203 1.405 1_455 S
C1204 C1205 1.394 . S
C1204 C1210 1.465 . S
C1205 C1200 1.399 . S
C1205 C1204 1.394 . S
C1205 C1206 1.516 . S
C1206 C1205 1.516 . S
C1206 C1207 1.502 . S
C1206 C1208 1.561 . S
C1206 C1209 1.526 . S
C1207 H1191 0.959 1_455 S
C1207 H1192 0.959 . S
C1207 H1193 0.961 . S
C1207 C1206 1.502 . S
C1208 H1194 0.960 . S
C1208 H1195 0.961 . S
C1208 H1196 0.959 . S
C1208 C1206 1.561 . S
C1209 C1206 1.526 . S
C1209 C1210 1.396 . S
C1209 C1214 1.390 . S
C1210 C1204 1.465 . S
C1210 C1209 1.396 . S
C1210 C1211 1.399 1_455 S
C1211 H1197 0.929 . S
C1211 C1210 1.399 1_655 S
C1211 C1212 1.385 . S
C1212 H1198 0.931 . S
C1212 C1211 1.385 . S
C1212 C1213 1.389 1_655 S
C1213 C1212 1.389 1_455 S
C1213 C1214 1.387 . S
C1214 H1199 0.930 . S
C1214 C1209 1.390 . S
C1214 C1213 1.387 . S
H1215 C1227 0.930 . S
H1216 C1229 0.930 . S
H1217 C1230 0.930 . S
H1218 C1234 0.959 . S
H1219 C1234 0.959 . S
H1220 C1234 0.961 . S
H1221 C1235 0.960 . S
H1222 C1235 0.961 . S
H1223 C1235 0.959 . S
H1224 C1238 0.929 . S
H1225 C1239 0.931 . S
H1226 C1241 0.930 . S
C1227 H1215 0.930 . S
C1227 C1228 1.399 . S
C1227 C1232 1.399 . S
C1228 C1227 1.399 . S
C1228 C1229 1.376 . S
C1229 H1216 0.930 . S
C1229 C1228 1.376 . S
C1229 C1230 1.388 . S
C1230 H1217 0.930 . S
C1230 C1229 1.388 . S
C1230 C1231 1.390 . S
C1231 C1230 1.390 . S
C1231 C1232 1.394 . S
C1231 C1237 1.465 . S
C1232 C1227 1.399 . S
C1232 C1231 1.394 . S
C1232 C1233 1.516 . S
C1233 C1232 1.516 . S
C1233 C1234 1.502 . S
C1233 C1235 1.561 . S
C1233 C1236 1.526 . S
C1234 H1218 0.959 . S
C1234 H1219 0.959 . S
C1234 H1220 0.961 . S
C1234 C1233 1.502 . S
C1235 H1221 0.960 . S
C1235 H1222 0.961 . S
C1235 H1223 0.959 . S
C1235 C1233 1.561 . S
C1236 C1233 1.526 . S
C1236 C1237 1.396 . S
C1236 C1241 1.390 . S
C1237 C1231 1.465 . S
C1237 C1236 1.396 . S
C1237 C1238 1.399 . S
C1238 H1224 0.929 . S
C1238 C1237 1.399 . S
C1238 C1239 1.385 . S
C1239 H1225 0.931 . S
C1239 C1238 1.385 . S
C1239 C1240 1.389 . S
C1240 C1239 1.389 . S
C1240 C1241 1.387 . S
C1241 H1226 0.930 . S
C1241 C1236 1.390 . S
C1241 C1240 1.387 . S
H1242 C1254 0.929 1_655 S
H1243 C1256 0.930 . S
H1244 C1257 0.930 . S
H1245 C1261 0.959 . S
H1246 C1261 0.959 1_655 S
H1247 C1261 0.961 . S
H1248 C1262 0.960 . S
H1249 C1262 0.961 . S
H1250 C1262 0.959 . S
H1251 C1265 0.929 . S
H1252 C1266 0.931 . S
H1253 C1268 0.930 . S
C1254 H1242 0.929 1_455 S
C1254 C1255 1.387 . S
C1254 C1259 1.402 . S
C1255 C1254 1.387 . S
C1255 C1256 1.376 . S
C1256 H1243 0.930 . S
C1256 C1255 1.376 . S
C1256 C1257 1.388 . S
C1257 H1244 0.930 . S
C1257 C1256 1.388 . S
C1257 C1258 1.390 . S
C1258 C1257 1.390 . S
C1258 C1259 1.398 . S
C1258 C1264 1.465 . S
C1259 C1254 1.402 . S
C1259 C1258 1.398 . S
C1259 C1260 1.528 1_455 S
C1260 C1259 1.528 1_655 S
C1260 C1261 1.502 1_655 S
C1260 C1262 1.561 . S
C1260 C1263 1.533 . S
C1261 H1245 0.959 . S
C1261 H1246 0.959 1_455 S
C1261 H1247 0.961 . S
C1261 C1260 1.502 1_455 S
C1262 H1248 0.960 . S
C1262 H1249 0.961 . S
C1262 H1250 0.959 . S
C1262 C1260 1.561 . S
C1263 C1260 1.533 . S
C1263 C1264 1.399 1_655 S
C1263 C1268 1.381 . S
C1264 C1258 1.465 . S
C1264 C1263 1.399 1_455 S
C1264 C1265 1.399 . S
C1265 H1251 0.929 . S
C1265 C1264 1.399 . S
C1265 C1266 1.385 . S
C1266 H1252 0.931 . S
C1266 C1265 1.385 . S
C1266 C1267 1.389 . S
C1267 C1266 1.389 . S
C1267 C1268 1.387 1_455 S
C1268 H1253 0.930 . S
C1268 C1263 1.381 . S
C1268 C1267 1.387 1_655 S
H1269 C1281 0.930 . S
H1270 C1283 0.930 . S
H1271 C1284 0.930 . S
H1272 C1288 0.959 . S
H1273 C1288 0.959 . S
H1274 C1288 0.961 . S
H1275 C1289 0.960 . S
H1276 C1289 0.961 . S
H1277 C1289 0.959 . S
H1278 C1292 0.929 . S
H1279 C1293 0.931 . S
H1280 C1295 0.930 . S
C1281 H1269 0.930 . S
C1281 C1282 1.399 . S
C1281 C1286 1.399 . S
C1282 C1281 1.399 . S
C1282 C1283 1.376 . S
C1283 H1270 0.930 . S
C1283 C1282 1.376 . S
C1283 C1284 1.388 . S
C1284 H1271 0.930 . S
C1284 C1283 1.388 . S
C1284 C1285 1.390 . S
C1285 C1284 1.390 . S
C1285 C1286 1.394 . S
C1285 C1291 1.465 . S
C1286 C1281 1.399 . S
C1286 C1285 1.394 . S
C1286 C1287 1.516 . S
C1287 C1286 1.516 . S
C1287 C1288 1.502 . S
C1287 C1289 1.561 . S
C1287 C1290 1.526 . S
C1288 H1272 0.959 . S
C1288 H1273 0.959 . S
C1288 H1274 0.961 . S
C1288 C1287 1.502 . S
C1289 H1275 0.960 . S
C1289 H1276 0.961 . S
C1289 H1277 0.959 . S
C1289 C1287 1.561 . S
C1290 C1287 1.526 . S
C1290 C1291 1.396 . S
C1290 C1295 1.390 . S
C1291 C1285 1.465 . S
C1291 C1290 1.396 . S
C1291 C1292 1.399 . S
C1292 H1278 0.929 . S
C1292 C1291 1.399 . S
C1292 C1293 1.385 . S
C1293 H1279 0.931 . S
C1293 C1292 1.385 . S
C1293 C1294 1.389 . S
C1294 C1293 1.389 . S
C1294 C1295 1.387 . S
C1295 H1280 0.930 . S
C1295 C1290 1.390 . S
C1295 C1294 1.387 . S
H1296 C1308 0.930 . S
H1297 C1310 0.930 . S
H1298 C1311 0.930 . S
H1299 C1315 0.959 . S
H1300 C1315 0.959 . S
H1301 C1315 0.961 . S
H1302 C1316 0.960 . S
H1303 C1316 0.961 . S
H1304 C1316 0.959 . S
H1305 C1319 0.929 . S
H1306 C1320 0.931 . S
H1307 C1322 0.930 . S
C1308 H1296 0.930 . S
C1308 C1309 1.399 1_545 S
C1308 C1313 1.399 . S
C1309 C1308 1.399 1_565 S
C1309 C1310 1.376 . S
C1310 H1297 0.930 . S
C1310 C1309 1.376 . S
C1310 C1311 1.388 . S
C1311 H1298 0.930 . S
C1311 C1310 1.388 . S
C1311 C1312 1.390 . S
C1312 C1311 1.390 . S
C1312 C1313 1.394 1_565 S
C1312 C1318 1.465 . S
C1313 C1308 1.399 . S
C1313 C1312 1.394 1_545 S
C1313 C1314 1.516 . S
C1314 C1313 1.516 . S
C1314 C1315 1.502 . S
C1314 C1316 1.561 . S
C1314 C1317 1.526 . S
C1315 H1299 0.959 . S
C1315 H1300 0.959 . S
C1315 H1301 0.961 . S
C1315 C1314 1.502 . S
C1316 H1302 0.960 . S
C1316 H1303 0.961 . S
C1316 H1304 0.959 . S
C1316 C1314 1.561 . S
C1317 C1314 1.526 . S
C1317 C1318 1.396 1_545 S
C1317 C1322 1.390 . S
C1318 C1312 1.465 . S
C1318 C1317 1.396 1_565 S
C1318 C1319 1.399 . S
C1319 H1305 0.929 . S
C1319 C1318 1.399 . S
C1319 C1320 1.385 . S
C1320 H1306 0.931 . S
C1320 C1319 1.385 . S
C1320 C1321 1.389 . S
C1321 C1320 1.389 . S
C1321 C1322 1.387 1_565 S
C1322 H1307 0.930 . S
C1322 C1317 1.390 . S
C1322 C1321 1.387 1_545 S
H1323 C1335 0.930 . S
H1324 C1337 0.930 . S
H1325 C1338 0.930 . S
H1326 C1342 0.959 . S
H1327 C1342 0.959 . S
H1328 C1342 0.961 . S
H1329 C1343 0.960 . S
H1330 C1343 0.961 . S
H1331 C1343 0.959 . S
H1332 C1346 0.929 . S
H1333 C1347 0.931 . S
H1334 C1349 0.930 . S
C1335 H1323 0.930 . S
C1335 C1336 1.399 . S
C1335 C1340 1.399 . S
C1336 C1335 1.399 . S
C1336 C1337 1.376 1_545 S
C1337 H1324 0.930 . S
C1337 C1336 1.376 1_565 S
C1337 C1338 1.388 . S
C1338 H1325 0.930 . S
C1338 C1337 1.388 . S
C1338 C1339 1.390 . S
C1339 C1338 1.390 . S
C1339 C1340 1.394 1_565 S
C1339 C1345 1.465 . S
C1340 C1335 1.399 . S
C1340 C1339 1.394 1_545 S
C1340 C1341 1.516 . S
C1341 C1340 1.516 . S
C1341 C1342 1.502 . S
C1341 C1343 1.561 . S
C1341 C1344 1.526 . S
C1342 H1326 0.959 . S
C1342 H1327 0.959 . S
C1342 H1328 0.961 . S
C1342 C1341 1.502 . S
C1343 H1329 0.960 . S
C1343 H1330 0.961 . S
C1343 H1331 0.959 . S
C1343 C1341 1.561 . S
C1344 C1341 1.526 . S
C1344 C1345 1.396 1_545 S
C1344 C1349 1.390 . S
C1345 C1339 1.465 . S
C1345 C1344 1.396 1_565 S
C1345 C1346 1.399 . S
C1346 H1332 0.929 . S
C1346 C1345 1.399 . S
C1346 C1347 1.385 . S
C1347 H1333 0.931 . S
C1347 C1346 1.385 . S
C1347 C1348 1.389 1_565 S
C1348 C1347 1.389 1_545 S
C1348 C1349 1.387 . S
C1349 H1334 0.930 . S
C1349 C1344 1.390 . S
C1349 C1348 1.387 . S
H1350 C1362 0.930 . S
H1351 C1364 0.930 . S
H1352 C1365 0.930 . S
H1353 C1369 0.959 . S
H1354 C1369 0.959 . S
H1355 C1369 0.961 . S
H1356 C1370 0.960 . S
H1357 C1370 0.961 . S
H1358 C1370 0.920 1_455 S
H1359 C1373 0.929 . S
H1360 C1374 0.931 . S
H1361 C1376 0.930 . S
C1362 H1350 0.930 . S
C1362 C1363 1.399 . S
C1362 C1367 1.399 . S
C1363 C1362 1.399 . S
C1363 C1364 1.376 1_655 S
C1364 H1351 0.930 . S
C1364 C1363 1.376 1_455 S
C1364 C1365 1.388 . S
C1365 H1352 0.930 . S
C1365 C1364 1.388 . S
C1365 C1366 1.390 . S
C1366 C1365 1.390 . S
C1366 C1367 1.394 1_455 S
C1366 C1372 1.465 . S
C1367 C1362 1.399 . S
C1367 C1366 1.394 1_655 S
C1367 C1368 1.516 . S
C1368 C1367 1.516 . S
C1368 C1369 1.502 . S
C1368 C1370 1.561 . S
C1368 C1371 1.526 . S
C1369 H1353 0.959 . S
C1369 H1354 0.959 . S
C1369 H1355 0.961 . S
C1369 C1368 1.502 . S
C1370 H1356 0.960 . S
C1370 H1357 0.961 . S
C1370 H1358 0.920 1_655 S
C1370 C1368 1.561 . S
C1371 C1368 1.526 . S
C1371 C1372 1.396 1_655 S
C1371 C1376 1.390 . S
C1372 C1366 1.465 . S
C1372 C1371 1.396 1_455 S
C1372 C1373 1.399 . S
C1373 H1359 0.929 . S
C1373 C1372 1.399 . S
C1373 C1374 1.385 . S
C1374 H1360 0.931 . S
C1374 C1373 1.385 . S
C1374 C1375 1.389 1_455 S
C1375 C1374 1.389 1_655 S
C1375 C1376 1.387 . S
C1376 H1361 0.930 . S
C1376 C1371 1.390 . S
C1376 C1375 1.387 . S
H1377 C1389 0.930 . S
H1378 C1391 0.930 . S
H1379 C1392 0.930 . S
H1380 C1396 0.959 . S
H1381 C1396 0.959 . S
H1382 C1396 0.961 . S
H1383 C1397 0.960 . S
H1384 C1397 0.961 . S
H1385 C1397 0.959 . S
H1386 C1400 0.929 . S
H1387 C1401 0.931 . S
H1388 C1403 0.930 . S
C1389 H1377 0.930 . S
C1389 C1390 1.399 . S
C1389 C1394 1.399 . S
C1390 C1389 1.399 . S
C1390 C1391 1.376 . S
C1391 H1378 0.930 . S
C1391 C1390 1.376 . S
C1391 C1392 1.388 . S
C1392 H1379 0.930 . S
C1392 C1391 1.388 . S
C1392 C1393 1.390 . S
C1393 C1392 1.390 . S
C1393 C1394 1.394 . S
C1393 C1399 1.465 . S
C1394 C1389 1.399 . S
C1394 C1393 1.394 . S
C1394 C1395 1.516 . S
C1395 C1394 1.516 . S
C1395 C1396 1.502 . S
C1395 C1397 1.561 . S
C1395 C1398 1.526 . S
C1396 H1380 0.959 . S
C1396 H1381 0.959 . S
C1396 H1382 0.961 . S
C1396 C1395 1.502 . S
C1397 H1383 0.960 . S
C1397 H1384 0.961 . S
C1397 H1385 0.959 . S
C1397 C1395 1.561 . S
C1398 C1395 1.526 . S
C1398 C1399 1.396 . S
C1398 C1403 1.390 . S
C1399 C1393 1.465 . S
C1399 C1398 1.396 . S
C1399 C1400 1.399 . S
C1400 H1386 0.929 . S
C1400 C1399 1.399 . S
C1400 C1401 1.385 . S
C1401 H1387 0.931 . S
C1401 C1400 1.385 . S
C1401 C1402 1.389 . S
C1402 C1401 1.389 . S
C1402 C1403 1.387 . S
C1403 H1388 0.930 . S
C1403 C1398 1.390 . S
C1403 C1402 1.387 . S
H1404 C1416 0.930 . S
H1405 C1418 0.930 . S
H1406 C1419 0.930 . S
H1407 C1423 0.959 . S
H1408 C1423 0.959 . S
H1409 C1423 0.961 . S
H1410 C1424 0.960 . S
H1411 C1424 0.961 . S
H1412 C1424 0.959 . S
H1413 C1427 0.929 . S
H1414 C1428 0.931 . S
H1415 C1430 0.930 . S
C1416 H1404 0.930 . S
C1416 C1417 1.399 . S
C1416 C1421 1.399 . S
C1417 C1416 1.399 . S
C1417 C1418 1.376 . S
C1418 H1405 0.930 . S
C1418 C1417 1.376 . S
C1418 C1419 1.388 . S
C1419 H1406 0.930 . S
C1419 C1418 1.388 . S
C1419 C1420 1.390 . S
C1420 C1419 1.390 . S
C1420 C1421 1.394 . S
C1420 C1426 1.465 . S
C1421 C1416 1.399 . S
C1421 C1420 1.394 . S
C1421 C1422 1.516 . S
C1422 C1421 1.516 . S
C1422 C1423 1.502 . S
C1422 C1424 1.561 . S
C1422 C1425 1.526 . S
C1423 H1407 0.959 . S
C1423 H1408 0.959 . S
C1423 H1409 0.961 . S
C1423 C1422 1.502 . S
C1424 H1410 0.960 . S
C1424 H1411 0.961 . S
C1424 H1412 0.959 . S
C1424 C1422 1.561 . S
C1425 C1422 1.526 . S
C1425 C1426 1.396 . S
C1425 C1430 1.390 . S
C1426 C1420 1.465 . S
C1426 C1425 1.396 . S
C1426 C1427 1.399 . S
C1427 H1413 0.929 . S
C1427 C1426 1.399 . S
C1427 C1428 1.385 . S
C1428 H1414 0.931 . S
C1428 C1427 1.385 . S
C1428 C1429 1.389 . S
C1429 C1428 1.389 . S
C1429 C1430 1.387 . S
C1430 H1415 0.930 . S
C1430 C1425 1.390 . S
C1430 C1429 1.387 . S
H1431 C1443 0.930 . S
H1432 C1445 0.930 . S
H1433 C1446 0.930 . S
H1434 C1450 0.959 . S
H1435 C1450 0.959 . S
H1436 C1450 0.961 . S
H1437 C1451 0.960 . S
H1438 C1451 0.961 . S
H1439 C1451 0.959 . S
H1440 C1454 0.929 . S
H1441 C1455 0.931 . S
H1442 C1457 0.930 . S
C1443 H1431 0.930 . S
C1443 C1444 1.399 . S
C1443 C1448 1.399 . S
C1444 C1443 1.399 . S
C1444 C1445 1.376 . S
C1445 H1432 0.930 . S
C1445 C1444 1.376 . S
C1445 C1446 1.388 . S
C1446 H1433 0.930 . S
C1446 C1445 1.388 . S
C1446 C1447 1.390 . S
C1447 C1446 1.390 . S
C1447 C1448 1.394 . S
C1447 C1453 1.465 . S
C1448 C1443 1.399 . S
C1448 C1447 1.394 . S
C1448 C1449 1.516 . S
C1449 C1448 1.516 . S
C1449 C1450 1.502 . S
C1449 C1451 1.561 . S
C1449 C1452 1.526 . S
C1450 H1434 0.959 . S
C1450 H1435 0.959 . S
C1450 H1436 0.961 . S
C1450 C1449 1.502 . S
C1451 H1437 0.960 . S
C1451 H1438 0.961 . S
C1451 H1439 0.959 . S
C1451 C1449 1.561 . S
C1452 C1449 1.526 . S
C1452 C1453 1.396 . S
C1452 C1457 1.390 . S
C1453 C1447 1.465 . S
C1453 C1452 1.396 . S
C1453 C1454 1.399 . S
C1454 H1440 0.929 . S
C1454 C1453 1.399 . S
C1454 C1455 1.385 . S
C1455 H1441 0.931 . S
C1455 C1454 1.385 . S
C1455 C1456 1.389 . S
C1456 C1455 1.389 . S
C1456 C1457 1.387 . S
C1457 H1442 0.930 . S
C1457 C1452 1.390 . S
C1457 C1456 1.387 . S
H1458 C1470 0.930 . S
H1459 C1472 0.930 . S
H1460 C1473 0.930 . S
H1461 C1477 0.959 . S
H1462 C1477 0.959 . S
H1463 C1477 0.961 . S
H1464 C1478 0.960 . S
H1465 C1478 0.961 . S
H1466 C1478 0.959 . S
H1467 C1481 0.929 . S
H1468 C1482 0.931 . S
H1469 C1484 0.930 . S
C1470 H1458 0.930 . S
C1470 C1471 1.399 . S
C1470 C1475 1.399 . S
C1471 C1470 1.399 . S
C1471 C1472 1.376 . S
C1472 H1459 0.930 . S
C1472 C1471 1.376 . S
C1472 C1473 1.388 . S
C1473 H1460 0.930 . S
C1473 C1472 1.388 . S
C1473 C1474 1.390 . S
C1474 C1473 1.390 . S
C1474 C1475 1.394 . S
C1474 C1480 1.465 . S
C1475 C1470 1.399 . S
C1475 C1474 1.394 . S
C1475 C1476 1.516 . S
C1476 C1475 1.516 . S
C1476 C1477 1.502 . S
C1476 C1478 1.561 . S
C1476 C1479 1.526 . S
C1477 H1461 0.959 . S
C1477 H1462 0.959 . S
C1477 H1463 0.961 . S
C1477 C1476 1.502 . S
C1478 H1464 0.960 . S
C1478 H1465 0.961 . S
C1478 H1466 0.959 . S
C1478 C1476 1.561 . S
C1479 C1476 1.526 . S
C1479 C1480 1.396 . S
C1479 C1484 1.390 . S
C1480 C1474 1.465 . S
C1480 C1479 1.396 . S
C1480 C1481 1.399 . S
C1481 H1467 0.929 . S
C1481 C1480 1.399 . S
C1481 C1482 1.385 . S
C1482 H1468 0.931 . S
C1482 C1481 1.385 . S
C1482 C1483 1.389 . S
C1483 C1482 1.389 . S
C1483 C1484 1.387 . S
C1484 H1469 0.930 . S
C1484 C1479 1.390 . S
C1484 C1483 1.387 . S
H1485 C1497 0.930 . S
H1486 C1499 0.930 . S
H1487 C1500 0.930 . S
H1488 C1504 0.959 . S
H1489 C1504 0.959 . S
H1490 C1504 0.961 . S
H1491 C1505 0.960 . S
H1492 C1505 0.961 . S
H1493 C1505 0.959 . S
H1494 C1508 0.929 . S
H1495 C1509 0.931 . S
H1496 C1511 0.930 . S
C1497 H1485 0.930 . S
C1497 C1498 1.399 . S
C1497 C1502 1.399 . S
C1498 C1497 1.399 . S
C1498 C1499 1.376 . S
C1499 H1486 0.930 . S
C1499 C1498 1.376 . S
C1499 C1500 1.388 . S
C1500 H1487 0.930 . S
C1500 C1499 1.388 . S
C1500 C1501 1.390 . S
C1501 C1500 1.390 . S
C1501 C1502 1.394 . S
C1501 C1507 1.465 . S
C1502 C1497 1.399 . S
C1502 C1501 1.394 . S
C1502 C1503 1.516 . S
C1503 C1502 1.516 . S
C1503 C1504 1.502 . S
C1503 C1505 1.561 . S
C1503 C1506 1.526 . S
C1504 H1488 0.959 . S
C1504 H1489 0.959 . S
C1504 H1490 0.961 . S
C1504 C1503 1.502 . S
C1505 H1491 0.960 . S
C1505 H1492 0.961 . S
C1505 H1493 0.959 . S
C1505 C1503 1.561 . S
C1506 C1503 1.526 . S
C1506 C1507 1.396 . S
C1506 C1511 1.390 . S
C1507 C1501 1.465 . S
C1507 C1506 1.396 . S
C1507 C1508 1.399 . S
C1508 H1494 0.929 . S
C1508 C1507 1.399 . S
C1508 C1509 1.385 . S
C1509 H1495 0.931 . S
C1509 C1508 1.385 . S
C1509 C1510 1.389 . S
C1510 C1509 1.389 . S
C1510 C1511 1.387 . S
C1511 H1496 0.930 . S
C1511 C1506 1.390 . S
C1511 C1510 1.387 . S
H1512 C1524 0.930 . S
H1513 C1526 0.930 . S
H1514 C1527 0.930 . S
H1515 C1531 0.959 . S
H1516 C1531 0.959 . S
H1517 C1531 0.961 . S
H1518 C1532 0.960 . S
H1519 C1532 0.961 . S
H1520 C1532 0.959 . S
H1521 C1535 0.929 . S
H1522 C1536 0.931 . S
H1523 C1538 0.930 . S
C1524 H1512 0.930 . S
C1524 C1525 1.399 . S
C1524 C1529 1.399 . S
C1525 C1524 1.399 . S
C1525 C1526 1.376 . S
C1526 H1513 0.930 . S
C1526 C1525 1.376 . S
C1526 C1527 1.388 . S
C1527 H1514 0.930 . S
C1527 C1526 1.388 . S
C1527 C1528 1.390 . S
C1528 C1527 1.390 . S
C1528 C1529 1.394 . S
C1528 C1534 1.465 . S
C1529 C1524 1.399 . S
C1529 C1528 1.394 . S
C1529 C1530 1.516 . S
C1530 C1529 1.516 . S
C1530 C1531 1.502 . S
C1530 C1532 1.561 . S
C1530 C1533 1.526 . S
C1531 H1515 0.959 . S
C1531 H1516 0.959 . S
C1531 H1517 0.961 . S
C1531 C1530 1.502 . S
C1532 H1518 0.960 . S
C1532 H1519 0.961 . S
C1532 H1520 0.959 . S
C1532 C1530 1.561 . S
C1533 C1530 1.526 . S
C1533 C1534 1.396 . S
C1533 C1538 1.390 . S
C1534 C1528 1.465 . S
C1534 C1533 1.396 . S
C1534 C1535 1.399 . S
C1535 H1521 0.929 . S
C1535 C1534 1.399 . S
C1535 C1536 1.385 . S
C1536 H1522 0.931 . S
C1536 C1535 1.385 . S
C1536 C1537 1.389 . S
C1537 C1536 1.389 . S
C1537 C1538 1.387 . S
C1538 H1523 0.930 . S
C1538 C1533 1.390 . S
C1538 C1537 1.387 . S
H1539 C1551 0.930 . S
H1540 C1553 0.930 . S
H1541 C1554 0.930 . S
H1542 C1558 0.959 . S
H1543 C1558 0.959 . S
H1544 C1558 0.961 . S
H1545 C1559 0.960 . S
H1546 C1559 0.961 . S
H1547 C1559 0.959 . S
H1548 C1562 0.929 . S
H1549 C1563 0.931 . S
H1550 C1565 0.930 . S
C1551 H1539 0.930 . S
C1551 C1552 1.399 . S
C1551 C1556 1.399 . S
C1552 C1551 1.399 . S
C1552 C1553 1.376 . S
C1553 H1540 0.930 . S
C1553 C1552 1.376 . S
C1553 C1554 1.388 . S
C1554 H1541 0.930 . S
C1554 C1553 1.388 . S
C1554 C1555 1.390 . S
C1555 C1554 1.390 . S
C1555 C1556 1.394 . S
C1555 C1561 1.465 . S
C1556 C1551 1.399 . S
C1556 C1555 1.394 . S
C1556 C1557 1.516 . S
C1557 C1556 1.516 . S
C1557 C1558 1.502 . S
C1557 C1559 1.561 . S
C1557 C1560 1.526 . S
C1558 H1542 0.959 . S
C1558 H1543 0.959 . S
C1558 H1544 0.961 . S
C1558 C1557 1.502 . S
C1559 H1545 0.960 . S
C1559 H1546 0.961 . S
C1559 H1547 0.959 . S
C1559 C1557 1.561 . S
C1560 C1557 1.526 . S
C1560 C1561 1.396 . S
C1560 C1565 1.390 . S
C1561 C1555 1.465 . S
C1561 C1560 1.396 . S
C1561 C1562 1.399 . S
C1562 H1548 0.929 . S
C1562 C1561 1.399 . S
C1562 C1563 1.385 . S
C1563 H1549 0.931 . S
C1563 C1562 1.385 . S
C1563 C1564 1.389 . S
C1564 C1563 1.389 . S
C1564 C1565 1.387 . S
C1565 H1550 0.930 . S
C1565 C1560 1.390 . S
C1565 C1564 1.387 . S
H1566 C1578 0.930 . S
H1567 C1580 0.930 . S
H1568 C1581 0.930 . S
H1569 C1585 0.959 . S
H1570 C1585 0.959 . S
H1571 C1585 0.961 . S
H1572 C1586 0.960 . S
H1573 C1586 0.961 . S
H1574 C1586 0.959 . S
H1575 C1589 0.929 . S
H1576 C1590 0.931 . S
H1577 C1592 0.930 . S
C1578 H1566 0.930 . S
C1578 C1579 1.399 . S
C1578 C1583 1.399 . S
C1579 C1578 1.399 . S
C1579 C1580 1.376 . S
C1580 H1567 0.930 . S
C1580 C1579 1.376 . S
C1580 C1581 1.388 . S
C1581 H1568 0.930 . S
C1581 C1580 1.388 . S
C1581 C1582 1.390 . S
C1582 C1581 1.390 . S
C1582 C1583 1.394 . S
C1582 C1588 1.465 . S
C1583 C1578 1.399 . S
C1583 C1582 1.394 . S
C1583 C1584 1.516 . S
C1584 C1583 1.516 . S
C1584 C1585 1.502 . S
C1584 C1586 1.561 . S
C1584 C1587 1.526 . S
C1585 H1569 0.959 . S
C1585 H1570 0.959 . S
C1585 H1571 0.961 . S
C1585 C1584 1.502 . S
C1586 H1572 0.960 . S
C1586 H1573 0.961 . S
C1586 H1574 0.959 . S
C1586 C1584 1.561 . S
C1587 C1584 1.526 . S
C1587 C1588 1.396 . S
C1587 C1592 1.390 . S
C1588 C1582 1.465 . S
C1588 C1587 1.396 . S
C1588 C1589 1.399 . S
C1589 H1575 0.929 . S
C1589 C1588 1.399 . S
C1589 C1590 1.385 . S
C1590 H1576 0.931 . S
C1590 C1589 1.385 . S
C1590 C1591 1.389 . S
C1591 C1590 1.389 . S
C1591 C1592 1.387 . S
C1592 H1577 0.930 . S
C1592 C1587 1.390 . S
C1592 C1591 1.387 . S
H1593 C1605 0.930 . S
H1594 C1607 0.930 . S
H1595 C1608 0.930 . S
H1596 C1612 0.959 . S
H1597 C1612 0.959 . S
H1598 C1612 0.961 . S
H1599 C1613 0.960 . S
H1600 C1613 0.961 . S
H1601 C1613 0.959 . S
H1602 C1616 0.929 . S
H1603 C1617 0.931 . S
H1604 C1619 0.930 . S
C1605 H1593 0.930 . S
C1605 C1606 1.399 . S
C1605 C1610 1.399 . S
C1606 C1605 1.399 . S
C1606 C1607 1.376 . S
C1607 H1594 0.930 . S
C1607 C1606 1.376 . S
C1607 C1608 1.388 . S
C1608 H1595 0.930 . S
C1608 C1607 1.388 . S
C1608 C1609 1.390 . S
C1609 C1608 1.390 . S
C1609 C1610 1.394 . S
C1609 C1615 1.465 . S
C1610 C1605 1.399 . S
C1610 C1609 1.394 . S
C1610 C1611 1.516 . S
C1611 C1610 1.516 . S
C1611 C1612 1.502 . S
C1611 C1613 1.561 . S
C1611 C1614 1.526 . S
C1612 H1596 0.959 . S
C1612 H1597 0.959 . S
C1612 H1598 0.961 . S
C1612 C1611 1.502 . S
C1613 H1599 0.960 . S
C1613 H1600 0.961 . S
C1613 H1601 0.959 . S
C1613 C1611 1.561 . S
C1614 C1611 1.526 . S
C1614 C1615 1.396 . S
C1614 C1619 1.390 . S
C1615 C1609 1.465 . S
C1615 C1614 1.396 . S
C1615 C1616 1.399 . S
C1616 H1602 0.929 . S
C1616 C1615 1.399 . S
C1616 C1617 1.385 . S
C1617 H1603 0.931 . S
C1617 C1616 1.385 . S
C1617 C1618 1.389 . S
C1618 C1617 1.389 . S
C1618 C1619 1.387 . S
C1619 H1604 0.930 . S
C1619 C1614 1.390 . S
C1619 C1618 1.387 . S
H1620 C1632 0.930 . S
H1621 C1634 0.930 . S
H1622 C1635 0.930 . S
H1623 C1639 0.959 . S
H1624 C1639 0.959 . S
H1625 C1639 0.961 . S
H1626 C1640 0.960 . S
H1627 C1640 0.961 . S
H1628 C1640 0.959 . S
H1629 C1643 0.929 . S
H1630 C1644 0.931 . S
H1631 C1646 0.930 . S
C1632 H1620 0.930 . S
C1632 C1633 1.399 . S
C1632 C1637 1.399 . S
C1633 C1632 1.399 . S
C1633 C1634 1.376 . S
C1634 H1621 0.930 . S
C1634 C1633 1.376 . S
C1634 C1635 1.388 . S
C1635 H1622 0.930 . S
C1635 C1634 1.388 . S
C1635 C1636 1.390 . S
C1636 C1635 1.390 . S
C1636 C1637 1.394 . S
C1636 C1642 1.465 . S
C1637 C1632 1.399 . S
C1637 C1636 1.394 . S
C1637 C1638 1.516 . S
C1638 C1637 1.516 . S
C1638 C1639 1.502 . S
C1638 C1640 1.561 . S
C1638 C1641 1.526 . S
C1639 H1623 0.959 . S
C1639 H1624 0.959 . S
C1639 H1625 0.961 . S
C1639 C1638 1.502 . S
C1640 H1626 0.960 . S
C1640 H1627 0.961 . S
C1640 H1628 0.959 . S
C1640 C1638 1.561 . S
C1641 C1638 1.526 . S
C1641 C1642 1.396 . S
C1641 C1646 1.390 . S
C1642 C1636 1.465 . S
C1642 C1641 1.396 . S
C1642 C1643 1.399 . S
C1643 H1629 0.929 . S
C1643 C1642 1.399 . S
C1643 C1644 1.385 . S
C1644 H1630 0.931 . S
C1644 C1643 1.385 . S
C1644 C1645 1.389 . S
C1645 C1644 1.389 . S
C1645 C1646 1.387 . S
C1646 H1631 0.930 . S
C1646 C1641 1.390 . S
C1646 C1645 1.387 . S
H1647 C1659 0.930 . S
H1648 C1661 0.930 . S
H1649 C1662 0.930 . S
H1650 C1666 0.959 . S
H1651 C1666 0.959 . S
H1652 C1666 0.961 . S
H1653 C1667 0.960 . S
H1654 C1667 0.961 . S
H1655 C1667 0.959 . S
H1656 C1670 0.929 . S
H1657 C1671 0.931 . S
H1658 C1673 0.930 . S
C1659 H1647 0.930 . S
C1659 C1660 1.399 . S
C1659 C1664 1.399 . S
C1660 C1659 1.399 . S
C1660 C1661 1.376 . S
C1661 H1648 0.930 . S
C1661 C1660 1.376 . S
C1661 C1662 1.388 . S
C1662 H1649 0.930 . S
C1662 C1661 1.388 . S
C1662 C1663 1.390 . S
C1663 C1662 1.390 . S
C1663 C1664 1.394 . S
C1663 C1669 1.465 . S
C1664 C1659 1.399 . S
C1664 C1663 1.394 . S
C1664 C1665 1.516 . S
C1665 C1664 1.516 . S
C1665 C1666 1.502 . S
C1665 C1667 1.561 . S
C1665 C1668 1.526 . S
C1666 H1650 0.959 . S
C1666 H1651 0.959 . S
C1666 H1652 0.961 . S
C1666 C1665 1.502 . S
C1667 H1653 0.960 . S
C1667 H1654 0.961 . S
C1667 H1655 0.959 . S
C1667 C1665 1.561 . S
C1668 C1665 1.526 . S
C1668 C1669 1.396 . S
C1668 C1673 1.390 . S
C1669 C1663 1.465 . S
C1669 C1668 1.396 . S
C1669 C1670 1.399 . S
C1670 H1656 0.929 . S
C1670 C1669 1.399 . S
C1670 C1671 1.385 . S
C1671 H1657 0.931 . S
C1671 C1670 1.385 . S
C1671 C1672 1.389 . S
C1672 C1671 1.389 . S
C1672 C1673 1.387 . S
C1673 H1658 0.930 . S
C1673 C1668 1.390 . S
C1673 C1672 1.387 . S
H1674 C1686 0.930 . S
H1675 C1688 0.930 . S
H1676 C1689 0.930 . S
H1677 C1693 0.959 . S
H1678 C1693 0.959 . S
H1679 C1693 0.961 . S
H1680 C1694 0.960 . S
H1681 C1694 0.961 . S
H1682 C1694 0.959 . S
H1683 C1697 0.929 . S
H1684 C1698 0.931 . S
H1685 C1700 0.930 . S
C1686 H1674 0.930 . S
C1686 C1687 1.399 . S
C1686 C1691 1.399 . S
C1687 C1686 1.399 . S
C1687 C1688 1.376 . S
C1688 H1675 0.930 . S
C1688 C1687 1.376 . S
C1688 C1689 1.388 . S
C1689 H1676 0.930 . S
C1689 C1688 1.388 . S
C1689 C1690 1.390 . S
C1690 C1689 1.390 . S
C1690 C1691 1.394 . S
C1690 C1696 1.465 . S
C1691 C1686 1.399 . S
C1691 C1690 1.394 . S
C1691 C1692 1.516 . S
C1692 C1691 1.516 . S
C1692 C1693 1.502 . S
C1692 C1694 1.561 . S
C1692 C1695 1.526 . S
C1693 H1677 0.959 . S
C1693 H1678 0.959 . S
C1693 H1679 0.961 . S
C1693 C1692 1.502 . S
C1694 H1680 0.960 . S
C1694 H1681 0.961 . S
C1694 H1682 0.959 . S
C1694 C1692 1.561 . S
C1695 C1692 1.526 . S
C1695 C1696 1.396 . S
C1695 C1700 1.390 . S
C1696 C1690 1.465 . S
C1696 C1695 1.396 . S
C1696 C1697 1.399 . S
C1697 H1683 0.929 . S
C1697 C1696 1.399 . S
C1697 C1698 1.385 . S
C1698 H1684 0.931 . S
C1698 C1697 1.385 . S
C1698 C1699 1.389 . S
C1699 C1698 1.389 . S
C1699 C1700 1.387 . S
C1700 H1685 0.930 . S
C1700 C1695 1.390 . S
C1700 C1699 1.387 . S
H1701 C1713 0.930 . S
H1702 C1715 0.930 . S
H1703 C1716 0.930 . S
H1704 C1720 0.959 . S
H1705 C1720 0.959 . S
H1706 C1720 0.961 . S
H1707 C1721 0.960 . S
H1708 C1721 0.961 . S
H1709 C1721 0.959 . S
H1710 C1724 0.929 . S
H1711 C1725 0.931 . S
H1712 C1727 0.930 . S
C1713 H1701 0.930 . S
C1713 C1714 1.399 . S
C1713 C1718 1.399 . S
C1714 C1713 1.399 . S
C1714 C1715 1.376 . S
C1715 H1702 0.930 . S
C1715 C1714 1.376 . S
C1715 C1716 1.388 . S
C1716 H1703 0.930 . S
C1716 C1715 1.388 . S
C1716 C1717 1.390 . S
C1717 C1716 1.390 . S
C1717 C1718 1.394 . S
C1717 C1723 1.465 . S
C1718 C1713 1.399 . S
C1718 C1717 1.394 . S
C1718 C1719 1.516 . S
C1719 C1718 1.516 . S
C1719 C1720 1.502 . S
C1719 C1721 1.561 . S
C1719 C1722 1.526 . S
C1720 H1704 0.959 . S
C1720 H1705 0.959 . S
C1720 H1706 0.961 . S
C1720 C1719 1.502 . S
C1721 H1707 0.960 . S
C1721 H1708 0.961 . S
C1721 H1709 0.959 . S
C1721 C1719 1.561 . S
C1722 C1719 1.526 . S
C1722 C1723 1.396 . S
C1722 C1727 1.390 . S
C1723 C1717 1.465 . S
C1723 C1722 1.396 . S
C1723 C1724 1.399 . S
C1724 H1710 0.929 . S
C1724 C1723 1.399 . S
C1724 C1725 1.385 . S
C1725 H1711 0.931 . S
C1725 C1724 1.385 . S
C1725 C1726 1.389 . S
C1726 C1725 1.389 . S
C1726 C1727 1.387 . S
C1727 H1712 0.930 . S
C1727 C1722 1.390 . S
C1727 C1726 1.387 . S
H1728 C1740 0.930 . S
H1729 C1742 0.930 . S
H1730 C1743 0.930 . S
H1731 C1747 0.959 . S
H1732 C1747 0.959 . S
H1733 C1747 0.961 . S
H1734 C1748 0.960 . S
H1735 C1748 0.961 . S
H1736 C1748 0.959 . S
H1737 C1751 0.929 . S
H1738 C1752 0.931 . S
H1739 C1754 0.930 . S
C1740 H1728 0.930 . S
C1740 C1741 1.399 . S
C1740 C1745 1.399 . S
C1741 C1740 1.399 . S
C1741 C1742 1.376 . S
C1742 H1729 0.930 . S
C1742 C1741 1.376 . S
C1742 C1743 1.388 . S
C1743 H1730 0.930 . S
C1743 C1742 1.388 . S
C1743 C1744 1.390 . S
C1744 C1743 1.390 . S
C1744 C1745 1.394 . S
C1744 C1750 1.465 . S
C1745 C1740 1.399 . S
C1745 C1744 1.394 . S
C1745 C1746 1.516 . S
C1746 C1745 1.516 . S
C1746 C1747 1.502 . S
C1746 C1748 1.561 . S
C1746 C1749 1.526 . S
C1747 H1731 0.959 . S
C1747 H1732 0.959 . S
C1747 H1733 0.961 . S
C1747 C1746 1.502 . S
C1748 H1734 0.960 . S
C1748 H1735 0.961 . S
C1748 H1736 0.959 . S
C1748 C1746 1.561 . S
C1749 C1746 1.526 . S
C1749 C1750 1.396 . S
C1749 C1754 1.390 . S
C1750 C1744 1.465 . S
C1750 C1749 1.396 . S
C1750 C1751 1.399 . S
C1751 H1737 0.929 . S
C1751 C1750 1.399 . S
C1751 C1752 1.385 . S
C1752 H1738 0.931 . S
C1752 C1751 1.385 . S
C1752 C1753 1.389 . S
C1753 C1752 1.389 . S
C1753 C1754 1.387 . S
C1754 H1739 0.930 . S
C1754 C1749 1.390 . S
C1754 C1753 1.387 . S
H1755 C1767 0.930 . S
H1756 C1769 0.930 . S
H1757 C1770 0.930 . S
H1758 C1774 0.959 . S
H1759 C1774 0.959 . S
H1760 C1774 0.961 . S
H1761 C1775 0.960 . S
H1762 C1775 0.961 . S
H1763 C1775 0.959 . S
H1764 C1778 0.929 . S
H1765 C1779 0.931 . S
H1766 C1781 0.930 . S
C1767 H1755 0.930 . S
C1767 C1768 1.399 . S
C1767 C1772 1.399 . S
C1768 C1767 1.399 . S
C1768 C1769 1.376 . S
C1769 H1756 0.930 . S
C1769 C1768 1.376 . S
C1769 C1770 1.388 . S
C1770 H1757 0.930 . S
C1770 C1769 1.388 . S
C1770 C1771 1.390 . S
C1771 C1770 1.390 . S
C1771 C1772 1.394 . S
C1771 C1777 1.465 . S
C1772 C1767 1.399 . S
C1772 C1771 1.394 . S
C1772 C1773 1.516 . S
C1773 C1772 1.516 . S
C1773 C1774 1.502 . S
C1773 C1775 1.561 . S
C1773 C1776 1.526 . S
C1774 H1758 0.959 . S
C1774 H1759 0.959 . S
C1774 H1760 0.961 . S
C1774 C1773 1.502 . S
C1775 H1761 0.960 . S
C1775 H1762 0.961 . S
C1775 H1763 0.959 . S
C1775 C1773 1.561 . S
C1776 C1773 1.526 . S
C1776 C1777 1.396 . S
C1776 C1781 1.390 . S
C1777 C1771 1.465 . S
C1777 C1776 1.396 . S
C1777 C1778 1.399 . S
C1778 H1764 0.929 . S
C1778 C1777 1.399 . S
C1778 C1779 1.385 . S
C1779 H1765 0.931 . S
C1779 C1778 1.385 . S
C1779 C1780 1.389 . S
C1780 C1779 1.389 . S
C1780 C1781 1.387 . S
C1781 H1766 0.930 . S
C1781 C1776 1.390 . S
C1781 C1780 1.387 . S
H1782 C1794 0.930 . S
H1783 C1796 0.930 . S
H1784 C1797 0.930 . S
H1785 C1801 0.959 . S
H1786 C1801 0.959 . S
H1787 C1801 0.961 . S
H1788 C1802 0.960 . S
H1789 C1802 0.961 . S
H1790 C1802 0.959 . S
H1791 C1805 0.929 . S
H1792 C1806 0.931 . S
H1793 C1808 0.930 . S
C1794 H1782 0.930 . S
C1794 C1795 1.399 . S
C1794 C1799 1.399 . S
C1795 C1794 1.399 . S
C1795 C1796 1.376 . S
C1796 H1783 0.930 . S
C1796 C1795 1.376 . S
C1796 C1797 1.388 . S
C1797 H1784 0.930 . S
C1797 C1796 1.388 . S
C1797 C1798 1.390 . S
C1798 C1797 1.390 . S
C1798 C1799 1.394 . S
C1798 C1804 1.465 . S
C1799 C1794 1.399 . S
C1799 C1798 1.394 . S
C1799 C1800 1.516 . S
C1800 C1799 1.516 . S
C1800 C1801 1.502 . S
C1800 C1802 1.561 . S
C1800 C1803 1.526 . S
C1801 H1785 0.959 . S
C1801 H1786 0.959 . S
C1801 H1787 0.961 . S
C1801 C1800 1.502 . S
C1802 H1788 0.960 . S
C1802 H1789 0.961 . S
C1802 H1790 0.959 . S
C1802 C1800 1.561 . S
C1803 C1800 1.526 . S
C1803 C1804 1.396 . S
C1803 C1808 1.390 . S
C1804 C1798 1.465 . S
C1804 C1803 1.396 . S
C1804 C1805 1.399 . S
C1805 H1791 0.929 . S
C1805 C1804 1.399 . S
C1805 C1806 1.385 . S
C1806 H1792 0.931 . S
C1806 C1805 1.385 . S
C1806 C1807 1.389 . S
C1807 C1806 1.389 . S
C1807 C1808 1.387 . S
C1808 H1793 0.930 . S
C1808 C1803 1.390 . S
C1808 C1807 1.387 . S
H1809 C1821 0.930 . S
H1810 C1823 0.930 . S
H1811 C1824 0.930 . S
H1812 C1828 0.959 . S
H1813 C1828 0.959 . S
H1814 C1828 0.961 . S
H1815 C1829 0.960 . S
H1816 C1829 0.961 . S
H1817 C1829 0.959 . S
H1818 C1832 0.929 . S
H1819 C1833 0.931 . S
H1820 C1835 0.930 . S
C1821 H1809 0.930 . S
C1821 C1822 1.399 . S
C1821 C1826 1.399 . S
C1822 C1821 1.399 . S
C1822 C1823 1.376 . S
C1823 H1810 0.930 . S
C1823 C1822 1.376 . S
C1823 C1824 1.388 . S
C1824 H1811 0.930 . S
C1824 C1823 1.388 . S
C1824 C1825 1.390 . S
C1825 C1824 1.390 . S
C1825 C1826 1.394 . S
C1825 C1831 1.465 . S
C1826 C1821 1.399 . S
C1826 C1825 1.394 . S
C1826 C1827 1.516 . S
C1827 C1826 1.516 . S
C1827 C1828 1.502 . S
C1827 C1829 1.561 . S
C1827 C1830 1.526 . S
C1828 H1812 0.959 . S
C1828 H1813 0.959 . S
C1828 H1814 0.961 . S
C1828 C1827 1.502 . S
C1829 H1815 0.960 . S
C1829 H1816 0.961 . S
C1829 H1817 0.959 . S
C1829 C1827 1.561 . S
C1830 C1827 1.526 . S
C1830 C1831 1.396 . S
C1830 C1835 1.390 . S
C1831 C1825 1.465 . S
C1831 C1830 1.396 . S
C1831 C1832 1.399 . S
C1832 H1818 0.929 . S
C1832 C1831 1.399 . S
C1832 C1833 1.385 . S
C1833 H1819 0.931 . S
C1833 C1832 1.385 . S
C1833 C1834 1.389 . S
C1834 C1833 1.389 . S
C1834 C1835 1.387 . S
C1835 H1820 0.930 . S
C1835 C1830 1.390 . S
C1835 C1834 1.387 . S
H1836 C1848 0.930 . S
H1837 C1850 0.930 . S
H1838 C1851 0.930 . S
H1839 C1855 0.959 . S
H1840 C1855 0.959 . S
H1841 C1855 0.961 . S
H1842 C1856 0.960 . S
H1843 C1856 0.961 . S
H1844 C1856 0.959 . S
H1845 C1859 0.929 . S
H1846 C1860 0.931 . S
H1847 C1862 0.930 . S
C1848 H1836 0.930 . S
C1848 C1849 1.399 . S
C1848 C1853 1.399 . S
C1849 C1848 1.399 . S
C1849 C1850 1.376 . S
C1850 H1837 0.930 . S
C1850 C1849 1.376 . S
C1850 C1851 1.388 . S
C1851 H1838 0.930 . S
C1851 C1850 1.388 . S
C1851 C1852 1.390 . S
C1852 C1851 1.390 . S
C1852 C1853 1.394 . S
C1852 C1858 1.465 . S
C1853 C1848 1.399 . S
C1853 C1852 1.394 . S
C1853 C1854 1.516 . S
C1854 C1853 1.516 . S
C1854 C1855 1.502 . S
C1854 C1856 1.561 . S
C1854 C1857 1.526 . S
C1855 H1839 0.959 . S
C1855 H1840 0.959 . S
C1855 H1841 0.961 . S
C1855 C1854 1.502 . S
C1856 H1842 0.960 . S
C1856 H1843 0.961 . S
C1856 H1844 0.959 . S
C1856 C1854 1.561 . S
C1857 C1854 1.526 . S
C1857 C1858 1.396 . S
C1857 C1862 1.390 . S
C1858 C1852 1.465 . S
C1858 C1857 1.396 . S
C1858 C1859 1.399 . S
C1859 H1845 0.929 . S
C1859 C1858 1.399 . S
C1859 C1860 1.385 . S
C1860 H1846 0.931 . S
C1860 C1859 1.385 . S
C1860 C1861 1.389 . S
C1861 C1860 1.389 . S
C1861 C1862 1.387 . S
C1862 H1847 0.930 . S
C1862 C1857 1.390 . S
C1862 C1861 1.387 . S
H1863 C1875 0.930 . S
H1864 C1877 0.930 . S
H1865 C1878 0.930 . S
H1866 C1882 0.959 . S
H1867 C1882 0.959 . S
H1868 C1882 0.961 . S
H1869 C1883 0.960 . S
H1870 C1883 0.961 . S
H1871 C1883 0.959 . S
H1872 C1886 0.929 . S
H1873 C1887 0.931 . S
H1874 C1889 0.930 . S
C1875 H1863 0.930 . S
C1875 C1876 1.399 . S
C1875 C1880 1.399 . S
C1876 C1875 1.399 . S
C1876 C1877 1.376 . S
C1877 H1864 0.930 . S
C1877 C1876 1.376 . S
C1877 C1878 1.388 . S
C1878 H1865 0.930 . S
C1878 C1877 1.388 . S
C1878 C1879 1.390 . S
C1879 C1878 1.390 . S
C1879 C1880 1.394 . S
C1879 C1885 1.465 . S
C1880 C1875 1.399 . S
C1880 C1879 1.394 . S
C1880 C1881 1.516 . S
C1881 C1880 1.516 . S
C1881 C1882 1.502 . S
C1881 C1883 1.561 . S
C1881 C1884 1.526 . S
C1882 H1866 0.959 . S
C1882 H1867 0.959 . S
C1882 H1868 0.961 . S
C1882 C1881 1.502 . S
C1883 H1869 0.960 . S
C1883 H1870 0.961 . S
C1883 H1871 0.959 . S
C1883 C1881 1.561 . S
C1884 C1881 1.526 . S
C1884 C1885 1.396 . S
C1884 C1889 1.390 . S
C1885 C1879 1.465 . S
C1885 C1884 1.396 . S
C1885 C1886 1.399 . S
C1886 H1872 0.929 . S
C1886 C1885 1.399 . S
C1886 C1887 1.385 . S
C1887 H1873 0.931 . S
C1887 C1886 1.385 . S
C1887 C1888 1.389 . S
C1888 C1887 1.389 . S
C1888 C1889 1.387 . S
C1889 H1874 0.930 . S
C1889 C1884 1.390 . S
C1889 C1888 1.387 . S
H1890 C1902 0.930 . S
H1891 C1904 0.930 . S
H1892 C1905 0.930 . S
H1893 C1909 0.959 . S
H1894 C1909 0.959 . S
H1895 C1909 0.961 . S
H1896 C1910 0.960 . S
H1897 C1910 0.961 . S
H1898 C1910 0.959 . S
H1899 C1913 0.929 . S
H1900 C1914 0.931 . S
H1901 C1916 0.930 . S
C1902 H1890 0.930 . S
C1902 C1903 1.399 . S
C1902 C1907 1.399 . S
C1903 C1902 1.399 . S
C1903 C1904 1.376 . S
C1904 H1891 0.930 . S
C1904 C1903 1.376 . S
C1904 C1905 1.388 . S
C1905 H1892 0.930 . S
C1905 C1904 1.388 . S
C1905 C1906 1.390 . S
C1906 C1905 1.390 . S
C1906 C1907 1.394 . S
C1906 C1912 1.465 . S
C1907 C1902 1.399 . S
C1907 C1906 1.394 . S
C1907 C1908 1.516 . S
C1908 C1907 1.516 . S
C1908 C1909 1.502 . S
C1908 C1910 1.561 . S
C1908 C1911 1.526 . S
C1909 H1893 0.959 . S
C1909 H1894 0.959 . S
C1909 H1895 0.961 . S
C1909 C1908 1.502 . S
C1910 H1896 0.960 . S
C1910 H1897 0.961 . S
C1910 H1898 0.959 . S
C1910 C1908 1.561 . S
C1911 C1908 1.526 . S
C1911 C1912 1.396 . S
C1911 C1916 1.390 . S
C1912 C1906 1.465 . S
C1912 C1911 1.396 . S
C1912 C1913 1.399 . S
C1913 H1899 0.929 . S
C1913 C1912 1.399 . S
C1913 C1914 1.385 . S
C1914 H1900 0.931 . S
C1914 C1913 1.385 . S
C1914 C1915 1.389 . S
C1915 C1914 1.389 . S
C1915 C1916 1.387 . S
C1916 H1901 0.930 . S
C1916 C1911 1.390 . S
C1916 C1915 1.387 . S
H1917 C1929 0.930 . S
H1918 C1931 0.930 . S
H1919 C1932 0.930 . S
H1920 C1936 0.959 . S
H1921 C1936 0.959 . S
H1922 C1936 0.961 . S
H1923 C1937 0.960 . S
H1924 C1937 0.961 . S
H1925 C1937 0.959 . S
H1926 C1940 0.929 . S
H1927 C1941 0.931 . S
H1928 C1943 0.930 . S
C1929 H1917 0.930 . S
C1929 C1930 1.399 . S
C1929 C1934 1.399 . S
C1930 C1929 1.399 . S
C1930 C1931 1.376 . S
C1931 H1918 0.930 . S
C1931 C1930 1.376 . S
C1931 C1932 1.388 . S
C1932 H1919 0.930 . S
C1932 C1931 1.388 . S
C1932 C1933 1.390 . S
C1933 C1932 1.390 . S
C1933 C1934 1.394 . S
C1933 C1939 1.465 . S
C1934 C1929 1.399 . S
C1934 C1933 1.394 . S
C1934 C1935 1.516 . S
C1935 C1934 1.516 . S
C1935 C1936 1.502 . S
C1935 C1937 1.561 . S
C1935 C1938 1.526 . S
C1936 H1920 0.959 . S
C1936 H1921 0.959 . S
C1936 H1922 0.961 . S
C1936 C1935 1.502 . S
C1937 H1923 0.960 . S
C1937 H1924 0.961 . S
C1937 H1925 0.959 . S
C1937 C1935 1.561 . S
C1938 C1935 1.526 . S
C1938 C1939 1.396 . S
C1938 C1943 1.390 . S
C1939 C1933 1.465 . S
C1939 C1938 1.396 . S
C1939 C1940 1.399 . S
C1940 H1926 0.929 . S
C1940 C1939 1.399 . S
C1940 C1941 1.385 . S
C1941 H1927 0.931 . S
C1941 C1940 1.385 . S
C1941 C1942 1.389 . S
C1942 C1941 1.389 . S
C1942 C1943 1.387 . S
C1943 H1928 0.930 . S
C1943 C1938 1.390 . S
C1943 C1942 1.387 . S
H1944 C1956 0.930 . S
H1945 C1958 0.930 . S
H1946 C1959 0.930 . S
H1947 C1963 0.959 . S
H1948 C1963 0.959 . S
H1949 C1963 0.961 . S
H1950 C1964 0.960 . S
H1951 C1964 0.961 . S
H1952 C1964 0.959 . S
H1953 C1967 0.929 . S
H1954 C1968 0.931 . S
H1955 C1970 0.930 . S
C1956 H1944 0.930 . S
C1956 C1957 1.399 . S
C1956 C1961 1.399 . S
C1957 C1956 1.399 . S
C1957 C1958 1.376 . S
C1958 H1945 0.930 . S
C1958 C1957 1.376 . S
C1958 C1959 1.388 . S
C1959 H1946 0.930 . S
C1959 C1958 1.388 . S
C1959 C1960 1.390 . S
C1960 C1959 1.390 . S
C1960 C1961 1.394 . S
C1960 C1966 1.465 . S
C1961 C1956 1.399 . S
C1961 C1960 1.394 . S
C1961 C1962 1.516 . S
C1962 C1961 1.516 . S
C1962 C1963 1.502 . S
C1962 C1964 1.561 . S
C1962 C1965 1.526 . S
C1963 H1947 0.959 . S
C1963 H1948 0.959 . S
C1963 H1949 0.961 . S
C1963 C1962 1.502 . S
C1964 H1950 0.960 . S
C1964 H1951 0.961 . S
C1964 H1952 0.959 . S
C1964 C1962 1.561 . S
C1965 C1962 1.526 . S
C1965 C1966 1.396 . S
C1965 C1970 1.390 . S
C1966 C1960 1.465 . S
C1966 C1965 1.396 . S
C1966 C1967 1.399 . S
C1967 H1953 0.929 . S
C1967 C1966 1.399 . S
C1967 C1968 1.385 . S
C1968 H1954 0.931 . S
C1968 C1967 1.385 . S
C1968 C1969 1.389 . S
C1969 C1968 1.389 . S
C1969 C1970 1.387 . S
C1970 H1955 0.930 . S
C1970 C1965 1.390 . S
C1970 C1969 1.387 . S
H1971 C1983 0.930 . S
H1972 C1985 0.930 . S
H1973 C1986 0.930 . S
H1974 C1990 0.959 . S
H1975 C1990 0.959 . S
H1976 C1990 0.961 . S
H1977 C1991 0.960 . S
H1978 C1991 0.961 . S
H1979 C1991 0.959 . S
H1980 C1994 0.929 . S
H1981 C1995 0.931 . S
H1982 C1997 0.930 . S
C1983 H1971 0.930 . S
C1983 C1984 1.399 . S
C1983 C1988 1.399 . S
C1984 C1983 1.399 . S
C1984 C1985 1.376 . S
C1985 H1972 0.930 . S
C1985 C1984 1.376 . S
C1985 C1986 1.388 . S
C1986 H1973 0.930 . S
C1986 C1985 1.388 . S
C1986 C1987 1.390 . S
C1987 C1986 1.390 . S
C1987 C1988 1.394 . S
C1987 C1993 1.465 . S
C1988 C1983 1.399 . S
C1988 C1987 1.394 . S
C1988 C1989 1.516 . S
C1989 C1988 1.516 . S
C1989 C1990 1.502 . S
C1989 C1991 1.561 . S
C1989 C1992 1.526 . S
C1990 H1974 0.959 . S
C1990 H1975 0.959 . S
C1990 H1976 0.961 . S
C1990 C1989 1.502 . S
C1991 H1977 0.960 . S
C1991 H1978 0.961 . S
C1991 H1979 0.959 . S
C1991 C1989 1.561 . S
C1992 C1989 1.526 . S
C1992 C1993 1.396 . S
C1992 C1997 1.390 . S
C1993 C1987 1.465 . S
C1993 C1992 1.396 . S
C1993 C1994 1.399 . S
C1994 H1980 0.929 . S
C1994 C1993 1.399 . S
C1994 C1995 1.385 . S
C1995 H1981 0.931 . S
C1995 C1994 1.385 . S
C1995 C1996 1.389 . S
C1996 C1995 1.389 . S
C1996 C1997 1.387 . S
C1997 H1982 0.930 . S
C1997 C1992 1.390 . S
C1997 C1996 1.387 . S
H1998 C2010 0.930 . S
H1999 C2012 0.930 . S
H2000 C2013 0.930 . S
H2001 C2017 0.959 . S
H2002 C2017 0.959 . S
H2003 C2017 0.961 . S
H2004 C2018 0.960 . S
H2005 C2018 0.961 . S
H2006 C2018 0.959 . S
H2007 C2021 0.929 . S
H2008 C2022 0.931 . S
H2009 C2024 0.930 . S
C2010 H1998 0.930 . S
C2010 C2011 1.399 . S
C2010 C2015 1.399 . S
C2011 C2010 1.399 . S
C2011 C2012 1.376 . S
C2012 H1999 0.930 . S
C2012 C2011 1.376 . S
C2012 C2013 1.388 . S
C2013 H2000 0.930 . S
C2013 C2012 1.388 . S
C2013 C2014 1.390 . S
C2014 C2013 1.390 . S
C2014 C2015 1.394 . S
C2014 C2020 1.465 . S
C2015 C2010 1.399 . S
C2015 C2014 1.394 . S
C2015 C2016 1.516 . S
C2016 C2015 1.516 . S
C2016 C2017 1.502 . S
C2016 C2018 1.561 . S
C2016 C2019 1.526 . S
C2017 H2001 0.959 . S
C2017 H2002 0.959 . S
C2017 H2003 0.961 . S
C2017 C2016 1.502 . S
C2018 H2004 0.960 . S
C2018 H2005 0.961 . S
C2018 H2006 0.959 . S
C2018 C2016 1.561 . S
C2019 C2016 1.526 . S
C2019 C2020 1.396 . S
C2019 C2024 1.390 . S
C2020 C2014 1.465 . S
C2020 C2019 1.396 . S
C2020 C2021 1.399 . S
C2021 H2007 0.929 . S
C2021 C2020 1.399 . S
C2021 C2022 1.385 . S
C2022 H2008 0.931 . S
C2022 C2021 1.385 . S
C2022 C2023 1.389 . S
C2023 C2022 1.389 . S
C2023 C2024 1.387 . S
C2024 H2009 0.930 . S
C2024 C2019 1.390 . S
C2024 C2023 1.387 . S
H2025 C2037 0.930 . S
H2026 C2039 0.930 . S
H2027 C2040 0.930 . S
H2028 C2044 0.959 . S
H2029 C2044 0.959 . S
H2030 C2044 0.961 . S
H2031 C2045 0.960 . S
H2032 C2045 0.961 . S
H2033 C2045 0.959 . S
H2034 C2048 0.929 . S
H2035 C2049 0.931 . S
H2036 C2051 0.930 . S
C2037 H2025 0.930 . S
C2037 C2038 1.399 . S
C2037 C2042 1.399 . S
C2038 C2037 1.399 . S
C2038 C2039 1.376 . S
C2039 H2026 0.930 . S
C2039 C2038 1.376 . S
C2039 C2040 1.388 . S
C2040 H2027 0.930 . S
C2040 C2039 1.388 . S
C2040 C2041 1.390 . S
C2041 C2040 1.390 . S
C2041 C2042 1.394 . S
C2041 C2047 1.465 . S
C2042 C2037 1.399 . S
C2042 C2041 1.394 . S
C2042 C2043 1.516 . S
C2043 C2042 1.516 . S
C2043 C2044 1.502 . S
C2043 C2045 1.561 . S
C2043 C2046 1.526 . S
C2044 H2028 0.959 . S
C2044 H2029 0.959 . S
C2044 H2030 0.961 . S
C2044 C2043 1.502 . S
C2045 H2031 0.960 . S
C2045 H2032 0.961 . S
C2045 H2033 0.959 . S
C2045 C2043 1.561 . S
C2046 C2043 1.526 . S
C2046 C2047 1.396 . S
C2046 C2051 1.390 . S
C2047 C2041 1.465 . S
C2047 C2046 1.396 . S
C2047 C2048 1.399 . S
C2048 H2034 0.929 . S
C2048 C2047 1.399 . S
C2048 C2049 1.385 . S
C2049 H2035 0.931 . S
C2049 C2048 1.385 . S
C2049 C2050 1.389 . S
C2050 C2049 1.389 . S
C2050 C2051 1.387 . S
C2051 H2036 0.930 . S
C2051 C2046 1.390 . S
C2051 C2050 1.387 . S
H2052 C2064 0.930 . S
H2053 C2066 0.930 . S
H2054 C2067 0.930 . S
H2055 C2071 0.959 . S
H2056 C2071 0.959 . S
H2057 C2071 0.961 . S
H2058 C2072 0.960 . S
H2059 C2072 0.961 . S
H2060 C2072 0.959 . S
H2061 C2075 0.929 . S
H2062 C2076 0.931 . S
H2063 C2078 0.930 . S
C2064 H2052 0.930 . S
C2064 C2065 1.399 . S
C2064 C2069 1.399 . S
C2065 C2064 1.399 . S
C2065 C2066 1.376 . S
C2066 H2053 0.930 . S
C2066 C2065 1.376 . S
C2066 C2067 1.388 . S
C2067 H2054 0.930 . S
C2067 C2066 1.388 . S
C2067 C2068 1.390 . S
C2068 C2067 1.390 . S
C2068 C2069 1.394 . S
C2068 C2074 1.465 . S
C2069 C2064 1.399 . S
C2069 C2068 1.394 . S
C2069 C2070 1.516 . S
C2070 C2069 1.516 . S
C2070 C2071 1.502 . S
C2070 C2072 1.561 . S
C2070 C2073 1.526 . S
C2071 H2055 0.959 . S
C2071 H2056 0.959 . S
C2071 H2057 0.961 . S
C2071 C2070 1.502 . S
C2072 H2058 0.960 . S
C2072 H2059 0.961 . S
C2072 H2060 0.959 . S
C2072 C2070 1.561 . S
C2073 C2070 1.526 . S
C2073 C2074 1.396 . S
C2073 C2078 1.390 . S
C2074 C2068 1.465 . S
C2074 C2073 1.396 . S
C2074 C2075 1.399 . S
C2075 H2061 0.929 . S
C2075 C2074 1.399 . S
C2075 C2076 1.385 . S
C2076 H2062 0.931 . S
C2076 C2075 1.385 . S
C2076 C2077 1.389 . S
C2077 C2076 1.389 . S
C2077 C2078 1.387 . S
C2078 H2063 0.930 . S
C2078 C2073 1.390 . S
C2078 C2077 1.387 . S
H2079 C2091 0.930 . S
H2080 C2093 0.930 . S
H2081 C2094 0.930 . S
H2082 C2098 0.959 . S
H2083 C2098 0.959 . S
H2084 C2098 0.961 . S
H2085 C2099 0.960 . S
H2086 C2099 0.961 . S
H2087 C2099 0.959 . S
H2088 C2102 0.929 . S
H2089 C2103 0.931 . S
H2090 C2105 0.930 . S
C2091 H2079 0.930 . S
C2091 C2092 1.399 . S
C2091 C2096 1.399 . S
C2092 C2091 1.399 . S
C2092 C2093 1.376 . S
C2093 H2080 0.930 . S
C2093 C2092 1.376 . S
C2093 C2094 1.388 . S
C2094 H2081 0.930 . S
C2094 C2093 1.388 . S
C2094 C2095 1.390 . S
C2095 C2094 1.390 . S
C2095 C2096 1.394 . S
C2095 C2101 1.465 . S
C2096 C2091 1.399 . S
C2096 C2095 1.394 . S
C2096 C2097 1.516 . S
C2097 C2096 1.516 . S
C2097 C2098 1.502 . S
C2097 C2099 1.561 . S
C2097 C2100 1.526 . S
C2098 H2082 0.959 . S
C2098 H2083 0.959 . S
C2098 H2084 0.961 . S
C2098 C2097 1.502 . S
C2099 H2085 0.960 . S
C2099 H2086 0.961 . S
C2099 H2087 0.959 . S
C2099 C2097 1.561 . S
C2100 C2097 1.526 . S
C2100 C2101 1.396 . S
C2100 C2105 1.390 . S
C2101 C2095 1.465 . S
C2101 C2100 1.396 . S
C2101 C2102 1.399 . S
C2102 H2088 0.929 . S
C2102 C2101 1.399 . S
C2102 C2103 1.385 . S
C2103 H2089 0.931 . S
C2103 C2102 1.385 . S
C2103 C2104 1.389 . S
C2104 C2103 1.389 . S
C2104 C2105 1.387 . S
C2105 H2090 0.930 . S
C2105 C2100 1.390 . S
C2105 C2104 1.387 . S
H2106 C2118 0.930 . S
H2107 C2120 0.930 . S
H2108 C2121 0.930 . S
H2109 C2125 0.959 . S
H2110 C2125 0.959 . S
H2111 C2125 0.961 . S
H2112 C2126 0.960 . S
H2113 C2126 0.961 . S
H2114 C2126 0.959 . S
H2115 C2129 0.929 . S
H2116 C2130 0.931 . S
H2117 C2132 0.930 . S
C2118 H2106 0.930 . S
C2118 C2119 1.399 . S
C2118 C2123 1.399 . S
C2119 C2118 1.399 . S
C2119 C2120 1.376 . S
C2120 H2107 0.930 . S
C2120 C2119 1.376 . S
C2120 C2121 1.388 . S
C2121 H2108 0.930 . S
C2121 C2120 1.388 . S
C2121 C2122 1.390 . S
C2122 C2121 1.390 . S
C2122 C2123 1.394 . S
C2122 C2128 1.465 . S
C2123 C2118 1.399 . S
C2123 C2122 1.394 . S
C2123 C2124 1.516 . S
C2124 C2123 1.516 . S
C2124 C2125 1.502 . S
C2124 C2126 1.561 . S
C2124 C2127 1.526 . S
C2125 H2109 0.959 . S
C2125 H2110 0.959 . S
C2125 H2111 0.961 . S
C2125 C2124 1.502 . S
C2126 H2112 0.960 . S
C2126 H2113 0.961 . S
C2126 H2114 0.959 . S
C2126 C2124 1.561 . S
C2127 C2124 1.526 . S
C2127 C2128 1.396 . S
C2127 C2132 1.390 . S
C2128 C2122 1.465 . S
C2128 C2127 1.396 . S
C2128 C2129 1.399 . S
C2129 H2115 0.929 . S
C2129 C2128 1.399 . S
C2129 C2130 1.385 . S
C2130 H2116 0.931 . S
C2130 C2129 1.385 . S
C2130 C2131 1.389 . S
C2131 C2130 1.389 . S
C2131 C2132 1.387 . S
C2132 H2117 0.930 . S
C2132 C2127 1.390 . S
C2132 C2131 1.387 . S
H2133 C2145 0.930 . S
H2134 C2147 0.930 1_554 S
H2135 C2148 0.930 . S
H2136 C2152 0.959 . S
H2137 C2152 0.959 . S
H2138 C2152 0.961 . S
H2139 C2153 0.960 . S
H2140 C2153 0.961 . S
H2141 C2153 0.959 . S
H2142 C2156 0.929 . S
H2143 C2157 0.931 . S
H2144 C2159 0.930 . S
C2145 H2133 0.930 . S
C2145 C2146 1.399 . S
C2145 C2150 1.399 . S
C2146 C2145 1.399 . S
C2146 C2147 1.376 . S
C2147 H2134 0.930 1_556 S
C2147 C2146 1.376 . S
C2147 C2148 1.388 . S
C2148 H2135 0.930 . S
C2148 C2147 1.388 . S
C2148 C2149 1.390 . S
C2149 C2148 1.390 . S
C2149 C2150 1.394 . S
C2149 C2155 1.465 . S
C2150 C2145 1.399 . S
C2150 C2149 1.394 . S
C2150 C2151 1.516 . S
C2151 C2150 1.516 . S
C2151 C2152 1.502 . S
C2151 C2153 1.561 . S
C2151 C2154 1.526 . S
C2152 H2136 0.959 . S
C2152 H2137 0.959 . S
C2152 H2138 0.961 . S
C2152 C2151 1.502 . S
C2153 H2139 0.960 . S
C2153 H2140 0.961 . S
C2153 H2141 0.959 . S
C2153 C2151 1.561 . S
C2154 C2151 1.526 . S
C2154 C2155 1.396 . S
C2154 C2159 1.390 . S
C2155 C2149 1.465 . S
C2155 C2154 1.396 . S
C2155 C2156 1.399 . S
C2156 H2142 0.929 . S
C2156 C2155 1.399 . S
C2156 C2157 1.385 . S
C2157 H2143 0.931 . S
C2157 C2156 1.385 . S
C2157 C2158 1.389 . S
C2158 C2157 1.389 . S
C2158 C2159 1.387 . S
C2159 H2144 0.930 . S
C2159 C2154 1.390 . S
C2159 C2158 1.387 . S
H2160 C2172 0.973 . S
H2161 C2174 0.930 . S
H2162 C2175 0.930 . S
H2163 C2179 0.959 . S
H2164 C2179 0.959 . S
H2165 C2179 0.961 . S
H2166 C2180 0.960 1_554 S
H2167 C2180 0.961 . S
H2168 C2180 0.959 . S
H2169 C2183 0.929 . S
H2170 C2184 0.931 . S
H2171 C2186 0.930 . S
C2172 H2160 0.973 . S
C2172 C2173 1.399 . S
C2172 C2177 1.399 . S
C2173 C2172 1.399 . S
C2173 C2174 1.376 . S
C2174 H2161 0.930 . S
C2174 C2173 1.376 . S
C2174 C2175 1.388 . S
C2175 H2162 0.930 . S
C2175 C2174 1.388 . S
C2175 C2176 1.390 . S
C2176 C2175 1.390 . S
C2176 C2177 1.394 . S
C2176 C2182 1.465 . S
C2177 C2172 1.399 . S
C2177 C2176 1.394 . S
C2177 C2178 1.516 . S
C2178 C2177 1.516 . S
C2178 C2179 1.502 . S
C2178 C2180 1.561 . S
C2178 C2181 1.526 . S
C2179 H2163 0.959 . S
C2179 H2164 0.959 . S
C2179 H2165 0.961 . S
C2179 C2178 1.502 . S
C2180 H2166 0.960 1_556 S
C2180 H2167 0.961 . S
C2180 H2168 0.959 . S
C2180 C2178 1.561 . S
C2181 C2178 1.526 . S
C2181 C2182 1.396 . S
C2181 C2186 1.390 . S
C2182 C2176 1.465 . S
C2182 C2181 1.396 . S
C2182 C2183 1.399 . S
C2183 H2169 0.929 . S
C2183 C2182 1.399 . S
C2183 C2184 1.385 . S
C2184 H2170 0.931 . S
C2184 C2183 1.385 . S
C2184 C2185 1.389 . S
C2185 C2184 1.389 . S
C2185 C2186 1.387 . S
C2186 H2171 0.930 . S
C2186 C2181 1.390 . S
C2186 C2185 1.387 . S
H2187 C2199 0.930 . S
H2188 C2201 0.930 . S
H2189 C2202 0.930 . S
H2190 C2206 0.959 . S
H2191 C2206 0.959 . S
H2192 C2206 0.961 1_554 S
H2193 C2207 0.960 . S
H2194 C2207 0.961 . S
H2195 C2207 0.959 . S
H2196 C2210 0.929 . S
H2197 C2211 0.931 . S
H2198 C2213 0.930 . S
C2199 H2187 0.930 . S
C2199 C2200 1.399 . S
C2199 C2204 1.399 . S
C2200 C2199 1.399 . S
C2200 C2201 1.376 . S
C2201 H2188 0.930 . S
C2201 C2200 1.376 . S
C2201 C2202 1.388 . S
C2202 H2189 0.930 . S
C2202 C2201 1.388 . S
C2202 C2203 1.390 . S
C2203 C2202 1.390 . S
C2203 C2204 1.394 . S
C2203 C2209 1.465 . S
C2204 C2199 1.399 . S
C2204 C2203 1.394 . S
C2204 C2205 1.516 . S
C2205 C2204 1.516 . S
C2205 C2206 1.502 . S
C2205 C2207 1.561 . S
C2205 C2208 1.526 . S
C2206 H2190 0.959 . S
C2206 H2191 0.959 . S
C2206 H2192 0.961 1_556 S
C2206 C2205 1.502 . S
C2207 H2193 0.960 . S
C2207 H2194 0.961 . S
C2207 H2195 0.959 . S
C2207 C2205 1.561 . S
C2208 C2205 1.526 . S
C2208 C2209 1.396 . S
C2208 C2213 1.390 . S
C2209 C2203 1.465 . S
C2209 C2208 1.396 . S
C2209 C2210 1.399 . S
C2210 H2196 0.929 . S
C2210 C2209 1.399 . S
C2210 C2211 1.385 . S
C2211 H2197 0.931 . S
C2211 C2210 1.385 . S
C2211 C2212 1.389 . S
C2212 C2211 1.389 . S
C2212 C2213 1.387 . S
C2213 H2198 0.930 . S
C2213 C2208 1.390 . S
C2213 C2212 1.387 . S
H2214 C2226 0.930 . S
H2215 C2228 0.930 . S
H2216 C2229 0.930 . S
H2217 C2233 0.959 . S
H2218 C2233 0.959 . S
H2219 C2233 0.961 . S
H2220 C2234 0.960 1_554 S
H2221 C2234 0.961 . S
H2222 C2234 0.959 . S
H2223 C2237 0.929 . S
H2224 C2238 0.931 . S
H2225 C2240 0.930 . S
C2226 H2214 0.930 . S
C2226 C2227 1.399 . S
C2226 C2231 1.399 . S
C2227 C2226 1.399 . S
C2227 C2228 1.376 . S
C2228 H2215 0.930 . S
C2228 C2227 1.376 . S
C2228 C2229 1.388 . S
C2229 H2216 0.930 . S
C2229 C2228 1.388 . S
C2229 C2230 1.390 . S
C2230 C2229 1.390 . S
C2230 C2231 1.394 . S
C2230 C2236 1.465 . S
C2231 C2226 1.399 . S
C2231 C2230 1.394 . S
C2231 C2232 1.516 . S
C2232 C2231 1.516 . S
C2232 C2233 1.502 . S
C2232 C2234 1.561 . S
C2232 C2235 1.526 . S
C2233 H2217 0.959 . S
C2233 H2218 0.959 . S
C2233 H2219 0.961 . S
C2233 C2232 1.502 . S
C2234 H2220 0.960 1_556 S
C2234 H2221 0.961 . S
C2234 H2222 0.959 . S
C2234 C2232 1.561 . S
C2235 C2232 1.526 . S
C2235 C2236 1.396 . S
C2235 C2240 1.390 . S
C2236 C2230 1.465 . S
C2236 C2235 1.396 . S
C2236 C2237 1.399 . S
C2237 H2223 0.929 . S
C2237 C2236 1.399 . S
C2237 C2238 1.385 . S
C2238 H2224 0.931 . S
C2238 C2237 1.385 . S
C2238 C2239 1.389 . S
C2239 C2238 1.389 . S
C2239 C2240 1.387 . S
C2240 H2225 0.930 . S
C2240 C2235 1.390 . S
C2240 C2239 1.387 . S
H2241 C2253 0.930 . S
H2242 C2255 0.930 . S
H2243 C2256 0.930 . S
H2244 C2260 0.959 . S
H2245 C2260 0.959 . S
H2246 C2260 0.983 . S
H2247 C2261 0.960 . S
H2248 C2261 0.961 . S
H2249 C2261 0.959 . S
H2250 C2264 0.929 . S
H2251 C2265 0.931 . S
H2252 C2267 0.930 . S
C2253 H2241 0.930 . S
C2253 C2254 1.399 . S
C2253 C2258 1.399 . S
C2254 C2253 1.399 . S
C2254 C2255 1.376 . S
C2255 H2242 0.930 . S
C2255 C2254 1.376 . S
C2255 C2256 1.388 . S
C2256 H2243 0.930 . S
C2256 C2255 1.388 . S
C2256 C2257 1.390 . S
C2257 C2256 1.390 . S
C2257 C2258 1.394 . S
C2257 C2263 1.465 . S
C2258 C2253 1.399 . S
C2258 C2257 1.394 . S
C2258 C2259 1.516 . S
C2259 C2258 1.516 . S
C2259 C2260 1.502 . S
C2259 C2261 1.561 . S
C2259 C2262 1.526 . S
C2260 H2244 0.959 . S
C2260 H2245 0.959 . S
C2260 H2246 0.983 . S
C2260 C2259 1.502 . S
C2261 H2247 0.960 . S
C2261 H2248 0.961 . S
C2261 H2249 0.959 . S
C2261 C2259 1.561 . S
C2262 C2259 1.526 . S
C2262 C2263 1.396 . S
C2262 C2267 1.390 . S
C2263 C2257 1.465 . S
C2263 C2262 1.396 . S
C2263 C2264 1.399 . S
C2264 H2250 0.929 . S
C2264 C2263 1.399 . S
C2264 C2265 1.385 . S
C2265 H2251 0.931 . S
C2265 C2264 1.385 . S
C2265 C2266 1.389 . S
C2266 C2265 1.389 . S
C2266 C2267 1.387 . S
C2267 H2252 0.930 . S
C2267 C2262 1.390 . S
C2267 C2266 1.387 . S
H2268 C2280 0.930 . S
H2269 C2282 0.930 . S
H2270 C2283 0.930 . S
H2271 C2287 0.959 . S
H2272 C2287 0.959 . S
H2273 C2287 0.961 . S
H2274 C2288 0.960 . S
H2275 C2288 0.961 . S
H2276 C2288 0.959 . S
H2277 C2291 0.929 . S
H2278 C2292 0.931 . S
H2279 C2294 0.930 . S
C2280 H2268 0.930 . S
C2280 C2281 1.399 . S
C2280 C2285 1.399 . S
C2281 C2280 1.399 . S
C2281 C2282 1.376 . S
C2282 H2269 0.930 . S
C2282 C2281 1.376 . S
C2282 C2283 1.388 . S
C2283 H2270 0.930 . S
C2283 C2282 1.388 . S
C2283 C2284 1.390 . S
C2284 C2283 1.390 . S
C2284 C2285 1.394 . S
C2284 C2290 1.465 . S
C2285 C2280 1.399 . S
C2285 C2284 1.394 . S
C2285 C2286 1.516 . S
C2286 C2285 1.516 . S
C2286 C2287 1.502 . S
C2286 C2288 1.561 . S
C2286 C2289 1.526 . S
C2287 H2271 0.959 . S
C2287 H2272 0.959 . S
C2287 H2273 0.961 . S
C2287 C2286 1.502 . S
C2288 H2274 0.960 . S
C2288 H2275 0.961 . S
C2288 H2276 0.959 . S
C2288 C2286 1.561 . S
C2289 C2286 1.526 . S
C2289 C2290 1.396 . S
C2289 C2294 1.390 . S
C2290 C2284 1.465 . S
C2290 C2289 1.396 . S
C2290 C2291 1.399 . S
C2291 H2277 0.929 . S
C2291 C2290 1.399 . S
C2291 C2292 1.385 . S
C2292 H2278 0.931 . S
C2292 C2291 1.385 . S
C2292 C2293 1.389 . S
C2293 C2292 1.389 . S
C2293 C2294 1.387 . S
C2294 H2279 0.930 . S
C2294 C2289 1.390 . S
C2294 C2293 1.387 . S
H2295 C2307 0.930 . S
H2296 C2309 0.930 . S
H2297 C2310 0.930 . S
H2298 C2314 0.959 . S
H2299 C2314 0.959 . S
H2300 C2314 0.961 . S
H2301 C2315 0.960 . S
H2302 C2315 0.961 . S
H2303 C2315 0.959 . S
H2304 C2318 0.929 . S
H2305 C2319 0.931 . S
H2306 C2321 0.930 . S
C2307 H2295 0.930 . S
C2307 C2308 1.399 . S
C2307 C2312 1.399 . S
C2308 C2307 1.399 . S
C2308 C2309 1.376 . S
C2309 H2296 0.930 . S
C2309 C2308 1.376 . S
C2309 C2310 1.388 . S
C2310 H2297 0.930 . S
C2310 C2309 1.388 . S
C2310 C2311 1.390 . S
C2311 C2310 1.390 . S
C2311 C2312 1.394 . S
C2311 C2317 1.465 . S
C2312 C2307 1.399 . S
C2312 C2311 1.394 . S
C2312 C2313 1.516 . S
C2313 C2312 1.516 . S
C2313 C2314 1.502 . S
C2313 C2315 1.561 . S
C2313 C2316 1.526 . S
C2314 H2298 0.959 . S
C2314 H2299 0.959 . S
C2314 H2300 0.961 . S
C2314 C2313 1.502 . S
C2315 H2301 0.960 . S
C2315 H2302 0.961 . S
C2315 H2303 0.959 . S
C2315 C2313 1.561 . S
C2316 C2313 1.526 . S
C2316 C2317 1.396 . S
C2316 C2321 1.390 . S
C2317 C2311 1.465 . S
C2317 C2316 1.396 . S
C2317 C2318 1.399 . S
C2318 H2304 0.929 . S
C2318 C2317 1.399 . S
C2318 C2319 1.385 . S
C2319 H2305 0.931 . S
C2319 C2318 1.385 . S
C2319 C2320 1.389 . S
C2320 C2319 1.389 . S
C2320 C2321 1.387 . S
C2321 H2306 0.930 . S
C2321 C2316 1.390 . S
C2321 C2320 1.387 . S
H2322 C2334 0.930 . S
H2323 C2336 0.930 . S
H2324 C2337 0.930 . S
H2325 C2341 0.959 . S
H2326 C2341 0.959 . S
H2327 C2341 0.961 . S
H2328 C2342 0.960 . S
H2329 C2342 0.961 . S
H2330 C2342 0.959 . S
H2331 C2345 0.929 . S
H2332 C2346 0.931 . S
H2333 C2348 0.930 . S
C2334 H2322 0.930 . S
C2334 C2335 1.399 . S
C2334 C2339 1.399 . S
C2335 C2334 1.399 . S
C2335 C2336 1.376 . S
C2336 H2323 0.930 . S
C2336 C2335 1.376 . S
C2336 C2337 1.388 . S
C2337 H2324 0.930 . S
C2337 C2336 1.388 . S
C2337 C2338 1.390 . S
C2338 C2337 1.390 . S
C2338 C2339 1.394 . S
C2338 C2344 1.465 . S
C2339 C2334 1.399 . S
C2339 C2338 1.394 . S
C2339 C2340 1.516 . S
C2340 C2339 1.516 . S
C2340 C2341 1.502 . S
C2340 C2342 1.561 . S
C2340 C2343 1.526 . S
C2341 H2325 0.959 . S
C2341 H2326 0.959 . S
C2341 H2327 0.961 . S
C2341 C2340 1.502 . S
C2342 H2328 0.960 . S
C2342 H2329 0.961 . S
C2342 H2330 0.959 . S
C2342 C2340 1.561 . S
C2343 C2340 1.526 . S
C2343 C2344 1.396 . S
C2343 C2348 1.390 . S
C2344 C2338 1.465 . S
C2344 C2343 1.396 . S
C2344 C2345 1.399 . S
C2345 H2331 0.929 . S
C2345 C2344 1.399 . S
C2345 C2346 1.385 . S
C2346 H2332 0.931 . S
C2346 C2345 1.385 . S
C2346 C2347 1.389 . S
C2347 C2346 1.389 . S
C2347 C2348 1.387 . S
C2348 H2333 0.930 . S
C2348 C2343 1.390 . S
C2348 C2347 1.387 . S
H2349 C2361 0.930 . S
H2350 C2363 0.930 . S
H2351 C2364 0.930 . S
H2352 C2368 0.959 . S
H2353 C2368 0.959 . S
H2354 C2368 0.961 . S
H2355 C2369 0.960 . S
H2356 C2369 0.961 . S
H2357 C2369 0.959 . S
H2358 C2372 0.929 . S
H2359 C2373 0.931 . S
H2360 C2375 0.930 . S
C2361 H2349 0.930 . S
C2361 C2362 1.399 . S
C2361 C2366 1.399 . S
C2362 C2361 1.399 . S
C2362 C2363 1.376 . S
C2363 H2350 0.930 . S
C2363 C2362 1.376 . S
C2363 C2364 1.388 . S
C2364 H2351 0.930 . S
C2364 C2363 1.388 . S
C2364 C2365 1.390 . S
C2365 C2364 1.390 . S
C2365 C2366 1.394 . S
C2365 C2371 1.465 . S
C2366 C2361 1.399 . S
C2366 C2365 1.394 . S
C2366 C2367 1.516 . S
C2367 C2366 1.516 . S
C2367 C2368 1.502 . S
C2367 C2369 1.561 . S
C2367 C2370 1.526 . S
C2368 H2352 0.959 . S
C2368 H2353 0.959 . S
C2368 H2354 0.961 . S
C2368 C2367 1.502 . S
C2369 H2355 0.960 . S
C2369 H2356 0.961 . S
C2369 H2357 0.959 . S
C2369 C2367 1.561 . S
C2370 C2367 1.526 . S
C2370 C2371 1.396 . S
C2370 C2375 1.390 . S
C2371 C2365 1.465 . S
C2371 C2370 1.396 . S
C2371 C2372 1.399 . S
C2372 H2358 0.929 . S
C2372 C2371 1.399 . S
C2372 C2373 1.385 . S
C2373 H2359 0.931 . S
C2373 C2372 1.385 . S
C2373 C2374 1.389 . S
C2374 C2373 1.389 . S
C2374 C2375 1.387 . S
C2375 H2360 0.930 . S
C2375 C2370 1.390 . S
C2375 C2374 1.387 . S
H2376 C2388 0.930 . S
H2377 C2390 0.930 . S
H2378 C2391 0.930 . S
H2379 C2395 0.959 . S
H2380 C2395 0.959 . S
H2381 C2395 0.961 . S
H2382 C2396 0.960 . S
H2383 C2396 0.961 . S
H2384 C2396 0.959 . S
H2385 C2399 0.929 . S
H2386 C2400 0.931 . S
H2387 C2402 0.930 . S
C2388 H2376 0.930 . S
C2388 C2389 1.399 . S
C2388 C2393 1.399 . S
C2389 C2388 1.399 . S
C2389 C2390 1.376 . S
C2390 H2377 0.930 . S
C2390 C2389 1.376 . S
C2390 C2391 1.388 . S
C2391 H2378 0.930 . S
C2391 C2390 1.388 . S
C2391 C2392 1.390 . S
C2392 C2391 1.390 . S
C2392 C2393 1.394 . S
C2392 C2398 1.465 . S
C2393 C2388 1.399 . S
C2393 C2392 1.394 . S
C2393 C2394 1.516 . S
C2394 C2393 1.516 . S
C2394 C2395 1.502 . S
C2394 C2396 1.561 . S
C2394 C2397 1.526 . S
C2395 H2379 0.959 . S
C2395 H2380 0.959 . S
C2395 H2381 0.961 . S
C2395 C2394 1.502 . S
C2396 H2382 0.960 . S
C2396 H2383 0.961 . S
C2396 H2384 0.959 . S
C2396 C2394 1.561 . S
C2397 C2394 1.526 . S
C2397 C2398 1.396 . S
C2397 C2402 1.390 . S
C2398 C2392 1.465 . S
C2398 C2397 1.396 . S
C2398 C2399 1.399 . S
C2399 H2385 0.929 . S
C2399 C2398 1.399 . S
C2399 C2400 1.385 . S
C2400 H2386 0.931 . S
C2400 C2399 1.385 . S
C2400 C2401 1.389 . S
C2401 C2400 1.389 . S
C2401 C2402 1.387 . S
C2402 H2387 0.930 . S
C2402 C2397 1.390 . S
C2402 C2401 1.387 . S
H2403 C2415 0.930 . S
H2404 C2417 0.930 . S
H2405 C2418 0.930 . S
H2406 C2422 0.959 . S
H2407 C2422 0.959 . S
H2408 C2422 0.961 . S
H2409 C2423 0.960 . S
H2410 C2423 0.961 . S
H2411 C2423 0.959 . S
H2412 C2426 0.929 . S
H2413 C2427 0.931 . S
H2414 C2429 0.930 . S
C2415 H2403 0.930 . S
C2415 C2416 1.399 . S
C2415 C2420 1.399 . S
C2416 C2415 1.399 . S
C2416 C2417 1.376 . S
C2417 H2404 0.930 . S
C2417 C2416 1.376 . S
C2417 C2418 1.388 . S
C2418 H2405 0.930 . S
C2418 C2417 1.388 . S
C2418 C2419 1.390 . S
C2419 C2418 1.390 . S
C2419 C2420 1.394 . S
C2419 C2425 1.465 . S
C2420 C2415 1.399 . S
C2420 C2419 1.394 . S
C2420 C2421 1.516 . S
C2421 C2420 1.516 . S
C2421 C2422 1.502 . S
C2421 C2423 1.561 . S
C2421 C2424 1.526 . S
C2422 H2406 0.959 . S
C2422 H2407 0.959 . S
C2422 H2408 0.961 . S
C2422 C2421 1.502 . S
C2423 H2409 0.960 . S
C2423 H2410 0.961 . S
C2423 H2411 0.959 . S
C2423 C2421 1.561 . S
C2424 C2421 1.526 . S
C2424 C2425 1.396 . S
C2424 C2429 1.390 . S
C2425 C2419 1.465 . S
C2425 C2424 1.396 . S
C2425 C2426 1.399 . S
C2426 H2412 0.929 . S
C2426 C2425 1.399 . S
C2426 C2427 1.385 . S
C2427 H2413 0.931 . S
C2427 C2426 1.385 . S
C2427 C2428 1.389 . S
C2428 C2427 1.389 . S
C2428 C2429 1.387 . S
C2429 H2414 0.930 . S
C2429 C2424 1.390 . S
C2429 C2428 1.387 . S
H2430 C2442 0.930 . S
H2431 C2444 0.930 . S
H2432 C2445 0.930 . S
H2433 C2449 0.959 . S
H2434 C2449 0.959 . S
H2435 C2449 0.961 . S
H2436 C2450 0.960 . S
H2437 C2450 0.961 . S
H2438 C2450 0.959 . S
H2439 C2453 0.929 . S
H2440 C2454 0.931 . S
H2441 C2456 0.930 . S
C2442 H2430 0.930 . S
C2442 C2443 1.399 . S
C2442 C2447 1.399 . S
C2443 C2442 1.399 . S
C2443 C2444 1.376 . S
C2444 H2431 0.930 . S
C2444 C2443 1.376 . S
C2444 C2445 1.388 . S
C2445 H2432 0.930 . S
C2445 C2444 1.388 . S
C2445 C2446 1.390 . S
C2446 C2445 1.390 . S
C2446 C2447 1.394 . S
C2446 C2452 1.465 . S
C2447 C2442 1.399 . S
C2447 C2446 1.394 . S
C2447 C2448 1.516 . S
C2448 C2447 1.516 . S
C2448 C2449 1.502 . S
C2448 C2450 1.561 . S
C2448 C2451 1.526 . S
C2449 H2433 0.959 . S
C2449 H2434 0.959 . S
C2449 H2435 0.961 . S
C2449 C2448 1.502 . S
C2450 H2436 0.960 . S
C2450 H2437 0.961 . S
C2450 H2438 0.959 . S
C2450 C2448 1.561 . S
C2451 C2448 1.526 . S
C2451 C2452 1.396 . S
C2451 C2456 1.390 . S
C2452 C2446 1.465 . S
C2452 C2451 1.396 . S
C2452 C2453 1.399 . S
C2453 H2439 0.929 . S
C2453 C2452 1.399 . S
C2453 C2454 1.385 . S
C2454 H2440 0.931 . S
C2454 C2453 1.385 . S
C2454 C2455 1.389 . S
C2455 C2454 1.389 . S
C2455 C2456 1.387 . S
C2456 H2441 0.930 . S
C2456 C2451 1.390 . S
C2456 C2455 1.387 . S
H2457 C2469 0.930 . S
H2458 C2471 0.930 . S
H2459 C2472 0.930 . S
H2460 C2476 0.959 . S
H2461 C2476 0.959 . S
H2462 C2476 0.961 . S
H2463 C2477 0.960 . S
H2464 C2477 0.961 . S
H2465 C2477 0.959 . S
H2466 C2480 0.929 . S
H2467 C2481 0.931 . S
H2468 C2483 0.930 . S
C2469 H2457 0.930 . S
C2469 C2470 1.399 . S
C2469 C2474 1.399 . S
C2470 C2469 1.399 . S
C2470 C2471 1.376 1_455 S
C2471 H2458 0.930 . S
C2471 C2470 1.376 1_655 S
C2471 C2472 1.388 . S
C2472 H2459 0.930 . S
C2472 C2471 1.388 . S
C2472 C2473 1.390 1_655 S
C2473 C2472 1.390 1_455 S
C2473 C2474 1.394 . S
C2473 C2479 1.465 . S
C2474 C2469 1.399 . S
C2474 C2473 1.394 . S
C2474 C2475 1.516 . S
C2475 C2474 1.516 . S
C2475 C2476 1.502 . S
C2475 C2477 1.561 . S
C2475 C2478 1.526 . S
C2476 H2460 0.959 . S
C2476 H2461 0.959 . S
C2476 H2462 0.961 . S
C2476 C2475 1.502 . S
C2477 H2463 0.960 . S
C2477 H2464 0.961 . S
C2477 H2465 0.959 . S
C2477 C2475 1.561 . S
C2478 C2475 1.526 . S
C2478 C2479 1.396 . S
C2478 C2483 1.390 . S
C2479 C2473 1.465 . S
C2479 C2478 1.396 . S
C2479 C2480 1.399 1_455 S
C2480 H2466 0.929 . S
C2480 C2479 1.399 1_655 S
C2480 C2481 1.385 . S
C2481 H2467 0.931 . S
C2481 C2480 1.385 . S
C2481 C2482 1.389 1_655 S
C2482 C2481 1.389 1_455 S
C2482 C2483 1.387 . S
C2483 H2468 0.930 . S
C2483 C2478 1.390 . S
C2483 C2482 1.387 . S
H2484 C2496 0.930 . S
H2485 C2498 0.930 . S
H2486 C2499 0.930 . S
H2487 C2503 0.959 . S
H2488 C2503 0.959 . S
H2489 C2503 0.961 . S
H2490 C2504 0.960 . S
H2491 C2504 0.961 . S
H2492 C2504 0.959 . S
H2493 C2507 0.929 . S
H2494 C2508 0.931 . S
H2495 C2510 0.930 . S
C2496 H2484 0.930 . S
C2496 C2497 1.399 . S
C2496 C2501 1.399 . S
C2497 C2496 1.399 . S
C2497 C2498 1.376 . S
C2498 H2485 0.930 . S
C2498 C2497 1.376 . S
C2498 C2499 1.388 . S
C2499 H2486 0.930 . S
C2499 C2498 1.388 . S
C2499 C2500 1.390 . S
C2500 C2499 1.390 . S
C2500 C2501 1.394 . S
C2500 C2506 1.465 . S
C2501 C2496 1.399 . S
C2501 C2500 1.394 . S
C2501 C2502 1.516 . S
C2502 C2501 1.516 . S
C2502 C2503 1.502 . S
C2502 C2504 1.561 . S
C2502 C2505 1.526 . S
C2503 H2487 0.959 . S
C2503 H2488 0.959 . S
C2503 H2489 0.961 . S
C2503 C2502 1.502 . S
C2504 H2490 0.960 . S
C2504 H2491 0.961 . S
C2504 H2492 0.959 . S
C2504 C2502 1.561 . S
C2505 C2502 1.526 . S
C2505 C2506 1.396 . S
C2505 C2510 1.390 . S
C2506 C2500 1.465 . S
C2506 C2505 1.396 . S
C2506 C2507 1.399 . S
C2507 H2493 0.929 . S
C2507 C2506 1.399 . S
C2507 C2508 1.385 . S
C2508 H2494 0.931 . S
C2508 C2507 1.385 . S
C2508 C2509 1.389 . S
C2509 C2508 1.389 . S
C2509 C2510 1.387 . S
C2510 H2495 0.930 . S
C2510 C2505 1.390 . S
C2510 C2509 1.387 . S
H2511 C2523 0.930 . S
H2512 C2525 0.930 . S
H2513 C2526 0.930 . S
H2514 C2530 0.959 . S
H2515 C2530 0.959 . S
H2516 C2530 0.961 . S
H2517 C2531 0.960 . S
H2518 C2531 0.961 . S
H2519 C2531 0.959 . S
H2520 C2534 0.929 . S
H2521 C2535 0.931 . S
H2522 C2537 0.930 . S
C2523 H2511 0.930 . S
C2523 C2524 1.399 1_545 S
C2523 C2528 1.399 . S
C2524 C2523 1.399 1_565 S
C2524 C2525 1.376 . S
C2525 H2512 0.930 . S
C2525 C2524 1.376 . S
C2525 C2526 1.388 . S
C2526 H2513 0.930 . S
C2526 C2525 1.388 . S
C2526 C2527 1.390 . S
C2527 C2526 1.390 . S
C2527 C2528 1.394 1_565 S
C2527 C2533 1.465 . S
C2528 C2523 1.399 . S
C2528 C2527 1.394 1_545 S
C2528 C2529 1.516 . S
C2529 C2528 1.516 . S
C2529 C2530 1.502 . S
C2529 C2531 1.561 . S
C2529 C2532 1.526 . S
C2530 H2514 0.959 . S
C2530 H2515 0.959 . S
C2530 H2516 0.961 . S
C2530 C2529 1.502 . S
C2531 H2517 0.960 . S
C2531 H2518 0.961 . S
C2531 H2519 0.959 . S
C2531 C2529 1.561 . S
C2532 C2529 1.526 . S
C2532 C2533 1.396 1_545 S
C2532 C2537 1.390 . S
C2533 C2527 1.465 . S
C2533 C2532 1.396 1_565 S
C2533 C2534 1.399 . S
C2534 H2520 0.929 . S
C2534 C2533 1.399 . S
C2534 C2535 1.385 . S
C2535 H2521 0.931 . S
C2535 C2534 1.385 . S
C2535 C2536 1.389 . S
C2536 C2535 1.389 . S
C2536 C2537 1.387 1_565 S
C2537 H2522 0.930 . S
C2537 C2532 1.390 . S
C2537 C2536 1.387 1_545 S
H2538 C2550 0.930 . S
H2539 C2552 0.930 . S
H2540 C2553 0.930 . S
H2541 C2557 0.959 . S
H2542 C2557 0.959 . S
H2543 C2557 0.961 . S
H2544 C2558 0.960 . S
H2545 C2558 0.961 . S
H2546 C2558 0.959 . S
H2547 C2561 0.929 . S
H2548 C2562 0.931 . S
H2549 C2564 0.930 . S
C2550 H2538 0.930 . S
C2550 C2551 1.399 . S
C2550 C2555 1.399 . S
C2551 C2550 1.399 . S
C2551 C2552 1.376 1_565 S
C2552 H2539 0.930 . S
C2552 C2551 1.376 1_545 S
C2552 C2553 1.388 . S
C2553 H2540 0.930 . S
C2553 C2552 1.388 . S
C2553 C2554 1.378 1_545 S
C2554 C2553 1.378 1_565 S
C2554 C2555 1.430 . S
C2554 C2560 1.423 1_565 S
C2555 C2550 1.399 . S
C2555 C2554 1.430 . S
C2555 C2556 1.516 . S
C2556 C2555 1.516 . S
C2556 C2557 1.502 . S
C2556 C2558 1.561 . S
C2556 C2559 1.526 . S
C2557 H2541 0.959 . S
C2557 H2542 0.959 . S
C2557 H2543 0.961 . S
C2557 C2556 1.502 . S
C2558 H2544 0.960 . S
C2558 H2545 0.961 . S
C2558 H2546 0.959 . S
C2558 C2556 1.561 . S
C2559 C2556 1.526 . S
C2559 C2560 1.364 1_565 S
C2559 C2564 1.390 . S
C2560 C2554 1.423 1_545 S
C2560 C2559 1.364 1_545 S
C2560 C2561 1.448 . S
C2561 H2547 0.929 . S
C2561 C2560 1.448 . S
C2561 C2562 1.385 . S
C2562 H2548 0.931 . S
C2562 C2561 1.385 . S
C2562 C2563 1.389 1_545 S
C2563 C2562 1.389 1_565 S
C2563 C2564 1.387 . S
C2564 H2549 0.930 . S
C2564 C2559 1.390 . S
C2564 C2563 1.387 . S
H2565 C2577 0.930 . S
H2566 C2579 0.930 . S
H2567 C2580 0.918 1_655 S
H2568 C2584 0.959 . S
H2569 C2584 0.959 . S
H2570 C2584 0.961 . S
H2571 C2585 0.960 . S
H2572 C2585 0.961 . S
H2573 C2585 0.959 . S
H2574 C2588 0.929 . S
H2575 C2589 0.931 . S
H2576 C2591 0.930 . S
C2577 H2565 0.930 . S
C2577 C2578 1.399 . S
C2577 C2582 1.399 . S
C2578 C2577 1.399 . S
C2578 C2579 1.376 . S
C2579 H2566 0.930 . S
C2579 C2578 1.376 . S
C2579 C2580 1.380 . S
C2580 H2567 0.918 1_455 S
C2580 C2579 1.380 . S
C2580 C2581 1.411 . S
C2581 C2580 1.411 . S
C2581 C2582 1.394 . S
C2581 C2587 1.465 . S
C2582 C2577 1.399 . S
C2582 C2581 1.394 . S
C2582 C2583 1.516 . S
C2583 C2582 1.516 . S
C2583 C2584 1.502 . S
C2583 C2585 1.561 1_455 S
C2583 C2586 1.526 . S
C2584 H2568 0.959 . S
C2584 H2569 0.959 . S
C2584 H2570 0.961 . S
C2584 C2583 1.502 . S
C2585 H2571 0.960 . S
C2585 H2572 0.961 . S
C2585 H2573 0.959 . S
C2585 C2583 1.561 1_655 S
C2586 C2583 1.526 . S
C2586 C2587 1.396 . S
C2586 C2591 1.390 . S
C2587 C2581 1.465 . S
C2587 C2586 1.396 . S
C2587 C2588 1.399 1_455 S
C2588 H2574 0.929 . S
C2588 C2587 1.399 1_655 S
C2588 C2589 1.385 . S
C2589 H2575 0.931 . S
C2589 C2588 1.385 . S
C2589 C2590 1.389 1_655 S
C2590 C2589 1.389 1_455 S
C2590 C2591 1.387 . S
C2591 H2576 0.930 . S
C2591 C2586 1.390 . S
C2591 C2590 1.387 . S
H2592 C2604 0.930 . S
H2593 C2606 0.930 . S
H2594 C2607 0.930 . S
H2595 C2611 0.959 . S
H2596 C2611 0.959 . S
H2597 C2611 0.961 . S
H2598 C2612 0.960 . S
H2599 C2612 0.961 . S
H2600 C2612 0.959 . S
H2601 C2615 0.929 . S
H2602 C2616 0.931 . S
H2603 C2618 0.930 . S
C2604 H2592 0.930 . S
C2604 C2605 1.399 . S
C2604 C2609 1.399 . S
C2605 C2604 1.399 . S
C2605 C2606 1.376 . S
C2606 H2593 0.930 . S
C2606 C2605 1.376 . S
C2606 C2607 1.388 . S
C2607 H2594 0.930 . S
C2607 C2606 1.388 . S
C2607 C2608 1.390 . S
C2608 C2607 1.390 . S
C2608 C2609 1.394 . S
C2608 C2614 1.465 . S
C2609 C2604 1.399 . S
C2609 C2608 1.394 . S
C2609 C2610 1.516 . S
C2610 C2609 1.516 . S
C2610 C2611 1.502 . S
C2610 C2612 1.561 . S
C2610 C2613 1.526 . S
C2611 H2595 0.959 . S
C2611 H2596 0.959 . S
C2611 H2597 0.961 . S
C2611 C2610 1.502 . S
C2612 H2598 0.960 . S
C2612 H2599 0.961 . S
C2612 H2600 0.959 . S
C2612 C2610 1.561 . S
C2613 C2610 1.526 . S
C2613 C2614 1.396 . S
C2613 C2618 1.390 . S
C2614 C2608 1.465 . S
C2614 C2613 1.396 . S
C2614 C2615 1.399 . S
C2615 H2601 0.929 . S
C2615 C2614 1.399 . S
C2615 C2616 1.385 . S
C2616 H2602 0.931 . S
C2616 C2615 1.385 . S
C2616 C2617 1.389 . S
C2617 C2616 1.389 . S
C2617 C2618 1.387 . S
C2618 H2603 0.930 . S
C2618 C2613 1.390 . S
C2618 C2617 1.387 . S
H2619 C2631 0.930 . S
H2620 C2633 0.930 . S
H2621 C2634 0.930 . S
H2622 C2638 0.959 . S
H2623 C2638 0.959 . S
H2624 C2638 0.961 . S
H2625 C2639 0.960 . S
H2626 C2639 0.961 . S
H2627 C2639 0.959 . S
H2628 C2642 0.929 . S
H2629 C2643 0.931 . S
H2630 C2645 0.930 . S
C2631 H2619 0.930 . S
C2631 C2632 1.399 . S
C2631 C2636 1.399 . S
C2632 C2631 1.399 . S
C2632 C2633 1.376 . S
C2633 H2620 0.930 . S
C2633 C2632 1.376 . S
C2633 C2634 1.388 . S
C2634 H2621 0.930 . S
C2634 C2633 1.388 . S
C2634 C2635 1.390 . S
C2635 C2634 1.390 . S
C2635 C2636 1.394 . S
C2635 C2641 1.465 . S
C2636 C2631 1.399 . S
C2636 C2635 1.394 . S
C2636 C2637 1.516 . S
C2637 C2636 1.516 . S
C2637 C2638 1.502 . S
C2637 C2639 1.561 . S
C2637 C2640 1.526 . S
C2638 H2622 0.959 . S
C2638 H2623 0.959 . S
C2638 H2624 0.961 . S
C2638 C2637 1.502 . S
C2639 H2625 0.960 . S
C2639 H2626 0.961 . S
C2639 H2627 0.959 . S
C2639 C2637 1.561 . S
C2640 C2637 1.526 . S
C2640 C2641 1.396 . S
C2640 C2645 1.390 . S
C2641 C2635 1.465 . S
C2641 C2640 1.396 . S
C2641 C2642 1.399 . S
C2642 H2628 0.929 . S
C2642 C2641 1.399 . S
C2642 C2643 1.385 . S
C2643 H2629 0.931 . S
C2643 C2642 1.385 . S
C2643 C2644 1.389 . S
C2644 C2643 1.389 . S
C2644 C2645 1.387 . S
C2645 H2630 0.930 . S
C2645 C2640 1.390 . S
C2645 C2644 1.387 . S
H2646 C2658 0.930 . S
H2647 C2660 0.930 . S
H2648 C2661 0.930 . S
H2649 C2665 0.959 . S
H2650 C2665 0.959 . S
H2651 C2665 0.961 . S
H2652 C2666 0.960 . S
H2653 C2666 0.961 . S
H2654 C2666 0.959 . S
H2655 C2669 0.929 . S
H2656 C2670 0.931 . S
H2657 C2672 0.930 . S
C2658 H2646 0.930 . S
C2658 C2659 1.399 . S
C2658 C2663 1.399 . S
C2659 C2658 1.399 . S
C2659 C2660 1.376 . S
C2660 H2647 0.930 . S
C2660 C2659 1.376 . S
C2660 C2661 1.388 . S
C2661 H2648 0.930 . S
C2661 C2660 1.388 . S
C2661 C2662 1.390 . S
C2662 C2661 1.390 . S
C2662 C2663 1.394 . S
C2662 C2668 1.465 . S
C2663 C2658 1.399 . S
C2663 C2662 1.394 . S
C2663 C2664 1.516 . S
C2664 C2663 1.516 . S
C2664 C2665 1.502 . S
C2664 C2666 1.561 . S
C2664 C2667 1.526 . S
C2665 H2649 0.959 . S
C2665 H2650 0.959 . S
C2665 H2651 0.961 . S
C2665 C2664 1.502 . S
C2666 H2652 0.960 . S
C2666 H2653 0.961 . S
C2666 H2654 0.959 . S
C2666 C2664 1.561 . S
C2667 C2664 1.526 . S
C2667 C2668 1.396 . S
C2667 C2672 1.390 . S
C2668 C2662 1.465 . S
C2668 C2667 1.396 . S
C2668 C2669 1.399 . S
C2669 H2655 0.929 . S
C2669 C2668 1.399 . S
C2669 C2670 1.385 . S
C2670 H2656 0.931 . S
C2670 C2669 1.385 . S
C2670 C2671 1.389 . S
C2671 C2670 1.389 . S
C2671 C2672 1.387 . S
C2672 H2657 0.930 . S
C2672 C2667 1.390 . S
C2672 C2671 1.387 . S
H2673 C2685 0.930 . S
H2674 C2687 0.930 . S
H2675 C2688 0.930 . S
H2676 C2692 0.959 . S
H2677 C2692 0.959 . S
H2678 C2692 0.961 . S
H2679 C2693 0.960 . S
H2680 C2693 0.961 . S
H2681 C2693 0.959 . S
H2682 C2696 0.929 . S
H2683 C2697 0.931 . S
H2684 C2699 0.930 . S
C2685 H2673 0.930 . S
C2685 C2686 1.399 . S
C2685 C2690 1.399 . S
C2686 C2685 1.399 . S
C2686 C2687 1.376 . S
C2687 H2674 0.930 . S
C2687 C2686 1.376 . S
C2687 C2688 1.388 . S
C2688 H2675 0.930 . S
C2688 C2687 1.388 . S
C2688 C2689 1.390 . S
C2689 C2688 1.390 . S
C2689 C2690 1.394 . S
C2689 C2695 1.465 . S
C2690 C2685 1.399 . S
C2690 C2689 1.394 . S
C2690 C2691 1.516 . S
C2691 C2690 1.516 . S
C2691 C2692 1.502 . S
C2691 C2693 1.561 . S
C2691 C2694 1.526 . S
C2692 H2676 0.959 . S
C2692 H2677 0.959 . S
C2692 H2678 0.961 . S
C2692 C2691 1.502 . S
C2693 H2679 0.960 . S
C2693 H2680 0.961 . S
C2693 H2681 0.959 . S
C2693 C2691 1.561 . S
C2694 C2691 1.526 . S
C2694 C2695 1.396 . S
C2694 C2699 1.390 . S
C2695 C2689 1.465 . S
C2695 C2694 1.396 . S
C2695 C2696 1.399 . S
C2696 H2682 0.929 . S
C2696 C2695 1.399 . S
C2696 C2697 1.385 . S
C2697 H2683 0.931 . S
C2697 C2696 1.385 . S
C2697 C2698 1.389 . S
C2698 C2697 1.389 . S
C2698 C2699 1.387 . S
C2699 H2684 0.930 . S
C2699 C2694 1.390 . S
C2699 C2698 1.387 . S
H2700 C2712 0.930 . S
H2701 C2714 0.930 . S
H2702 C2715 0.930 . S
H2703 C2719 0.959 . S
H2704 C2719 0.959 . S
H2705 C2719 0.961 . S
H2706 C2720 0.960 . S
H2707 C2720 0.961 . S
H2708 C2720 0.959 . S
H2709 C2723 0.929 . S
H2710 C2724 0.931 . S
H2711 C2726 0.930 . S
C2712 H2700 0.930 . S
C2712 C2713 1.399 . S
C2712 C2717 1.399 . S
C2713 C2712 1.399 . S
C2713 C2714 1.376 1_545 S
C2714 H2701 0.930 . S
C2714 C2713 1.376 1_565 S
C2714 C2715 1.388 . S
C2715 H2702 0.930 . S
C2715 C2714 1.388 . S
C2715 C2716 1.386 1_565 S
C2716 C2715 1.386 1_545 S
C2716 C2717 1.422 . S
C2716 C2722 1.416 1_545 S
C2717 C2712 1.399 . S
C2717 C2716 1.422 . S
C2717 C2718 1.516 . S
C2718 C2717 1.516 . S
C2718 C2719 1.502 . S
C2718 C2720 1.561 . S
C2718 C2721 1.526 . S
C2719 H2703 0.959 . S
C2719 H2704 0.959 . S
C2719 H2705 0.961 . S
C2719 C2718 1.502 . S
C2720 H2706 0.960 . S
C2720 H2707 0.961 . S
C2720 H2708 0.959 . S
C2720 C2718 1.561 . S
C2721 C2718 1.526 . S
C2721 C2722 1.374 1_545 S
C2721 C2726 1.390 . S
C2722 C2716 1.416 1_565 S
C2722 C2721 1.374 1_565 S
C2722 C2723 1.447 . S
C2723 H2709 0.929 . S
C2723 C2722 1.447 . S
C2723 C2724 1.385 . S
C2724 H2710 0.931 . S
C2724 C2723 1.385 . S
C2724 C2725 1.389 1_565 S
C2725 C2724 1.389 1_545 S
C2725 C2726 1.387 . S
C2726 H2711 0.930 . S
C2726 C2721 1.390 . S
C2726 C2725 1.387 . S
H2727 C2739 0.944 . S
H2728 C2741 0.930 . S
H2729 C2742 0.930 . S
H2730 C2746 0.959 . S
H2731 C2746 0.959 . S
H2732 C2746 0.961 . S
H2733 C2747 0.960 . S
H2734 C2747 0.961 . S
H2735 C2747 0.959 . S
H2736 C2750 0.929 . S
H2737 C2751 0.931 . S
H2738 C2753 0.930 . S
C2739 H2727 0.944 . S
C2739 C2740 1.403 1_455 S
C2739 C2744 1.381 1_455 S
C2740 C2739 1.403 1_655 S
C2740 C2741 1.376 . S
C2741 H2728 0.930 . S
C2741 C2740 1.376 . S
C2741 C2742 1.388 . S
C2742 H2729 0.930 . S
C2742 C2741 1.388 . S
C2742 C2743 1.390 . S
C2743 C2742 1.390 . S
C2743 C2744 1.394 . S
C2743 C2749 1.465 . S
C2744 C2739 1.381 1_655 S
C2744 C2743 1.394 . S
C2744 C2745 1.516 1_655 S
C2745 C2744 1.516 1_455 S
C2745 C2746 1.502 . S
C2745 C2747 1.561 1_455 S
C2745 C2748 1.505 1_455 S
C2746 H2730 0.959 . S
C2746 H2731 0.959 . S
C2746 H2732 0.961 . S
C2746 C2745 1.502 . S
C2747 H2733 0.960 . S
C2747 H2734 0.961 . S
C2747 H2735 0.959 . S
C2747 C2745 1.561 1_655 S
C2748 C2745 1.505 1_655 S
C2748 C2749 1.401 . S
C2748 C2753 1.407 1_655 S
C2749 C2743 1.465 . S
C2749 C2748 1.401 . S
C2749 C2750 1.399 . S
C2750 H2736 0.929 . S
C2750 C2749 1.399 . S
C2750 C2751 1.385 . S
C2751 H2737 0.931 . S
C2751 C2750 1.385 . S
C2751 C2752 1.389 . S
C2752 C2751 1.389 . S
C2752 C2753 1.387 1_655 S
C2753 H2738 0.930 . S
C2753 C2748 1.407 1_455 S
C2753 C2752 1.387 1_455 S
H2754 C2766 0.930 . S
H2755 C2768 0.930 . S
H2756 C2769 0.930 . S
H2757 C2773 0.959 . S
H2758 C2773 0.959 . S
H2759 C2773 0.961 . S
H2760 C2774 0.960 . S
H2761 C2774 0.961 . S
H2762 C2774 0.959 . S
H2763 C2777 0.929 . S
H2764 C2778 0.931 . S
H2765 C2780 0.930 . S
C2766 H2754 0.930 . S
C2766 C2767 1.399 . S
C2766 C2771 1.399 . S
C2767 C2766 1.399 . S
C2767 C2768 1.376 . S
C2768 H2755 0.930 . S
C2768 C2767 1.376 . S
C2768 C2769 1.388 . S
C2769 H2756 0.930 . S
C2769 C2768 1.388 . S
C2769 C2770 1.390 . S
C2770 C2769 1.390 . S
C2770 C2771 1.394 . S
C2770 C2776 1.465 . S
C2771 C2766 1.399 . S
C2771 C2770 1.394 . S
C2771 C2772 1.516 . S
C2772 C2771 1.516 . S
C2772 C2773 1.502 . S
C2772 C2774 1.561 . S
C2772 C2775 1.526 . S
C2773 H2757 0.959 . S
C2773 H2758 0.959 . S
C2773 H2759 0.961 . S
C2773 C2772 1.502 . S
C2774 H2760 0.960 . S
C2774 H2761 0.961 . S
C2774 H2762 0.959 . S
C2774 C2772 1.561 . S
C2775 C2772 1.526 . S
C2775 C2776 1.396 . S
C2775 C2780 1.390 . S
C2776 C2770 1.465 . S
C2776 C2775 1.396 . S
C2776 C2777 1.399 . S
C2777 H2763 0.929 . S
C2777 C2776 1.399 . S
C2777 C2778 1.385 . S
C2778 H2764 0.931 . S
C2778 C2777 1.385 . S
C2778 C2779 1.389 . S
C2779 C2778 1.389 . S
C2779 C2780 1.387 . S
C2780 H2765 0.930 . S
C2780 C2775 1.390 . S
C2780 C2779 1.387 . S
H2781 C2793 0.930 . S
H2782 C2795 0.930 . S
H2783 C2796 0.930 . S
H2784 C2800 0.959 . S
H2785 C2800 0.959 . S
H2786 C2800 0.961 . S
H2787 C2801 0.960 . S
H2788 C2801 0.961 . S
H2789 C2801 0.959 . S
H2790 C2804 0.929 . S
H2791 C2805 0.931 . S
H2792 C2807 0.930 . S
C2793 H2781 0.930 . S
C2793 C2794 1.399 . S
C2793 C2798 1.399 . S
C2794 C2793 1.399 . S
C2794 C2795 1.376 . S
C2795 H2782 0.930 . S
C2795 C2794 1.376 . S
C2795 C2796 1.388 . S
C2796 H2783 0.930 . S
C2796 C2795 1.388 . S
C2796 C2797 1.390 . S
C2797 C2796 1.390 . S
C2797 C2798 1.394 . S
C2797 C2803 1.465 . S
C2798 C2793 1.399 . S
C2798 C2797 1.394 . S
C2798 C2799 1.516 . S
C2799 C2798 1.516 . S
C2799 C2800 1.502 . S
C2799 C2801 1.561 . S
C2799 C2802 1.526 . S
C2800 H2784 0.959 . S
C2800 H2785 0.959 . S
C2800 H2786 0.961 . S
C2800 C2799 1.502 . S
C2801 H2787 0.960 . S
C2801 H2788 0.961 . S
C2801 H2789 0.959 . S
C2801 C2799 1.561 . S
C2802 C2799 1.526 . S
C2802 C2803 1.396 . S
C2802 C2807 1.390 . S
C2803 C2797 1.465 . S
C2803 C2802 1.396 . S
C2803 C2804 1.399 . S
C2804 H2790 0.929 . S
C2804 C2803 1.399 . S
C2804 C2805 1.385 . S
C2805 H2791 0.931 . S
C2805 C2804 1.385 . S
C2805 C2806 1.389 . S
C2806 C2805 1.389 . S
C2806 C2807 1.387 . S
C2807 H2792 0.930 . S
C2807 C2802 1.390 . S
C2807 C2806 1.387 . S
H2808 C2820 0.930 . S
H2809 C2822 0.930 . S
H2810 C2823 0.930 . S
H2811 C2827 0.959 . S
H2812 C2827 0.959 . S
H2813 C2827 0.961 . S
H2814 C2828 0.960 . S
H2815 C2828 0.961 . S
H2816 C2828 0.959 . S
H2817 C2831 0.929 . S
H2818 C2832 0.931 . S
H2819 C2834 0.930 . S
C2820 H2808 0.930 . S
C2820 C2821 1.399 . S
C2820 C2825 1.399 . S
C2821 C2820 1.399 . S
C2821 C2822 1.376 . S
C2822 H2809 0.930 . S
C2822 C2821 1.376 . S
C2822 C2823 1.388 . S
C2823 H2810 0.930 . S
C2823 C2822 1.388 . S
C2823 C2824 1.390 . S
C2824 C2823 1.390 . S
C2824 C2825 1.394 . S
C2824 C2830 1.465 . S
C2825 C2820 1.399 . S
C2825 C2824 1.394 . S
C2825 C2826 1.516 . S
C2826 C2825 1.516 . S
C2826 C2827 1.502 . S
C2826 C2828 1.561 . S
C2826 C2829 1.526 . S
C2827 H2811 0.959 . S
C2827 H2812 0.959 . S
C2827 H2813 0.961 . S
C2827 C2826 1.502 . S
C2828 H2814 0.960 . S
C2828 H2815 0.961 . S
C2828 H2816 0.959 . S
C2828 C2826 1.561 . S
C2829 C2826 1.526 . S
C2829 C2830 1.396 . S
C2829 C2834 1.390 . S
C2830 C2824 1.465 . S
C2830 C2829 1.396 . S
C2830 C2831 1.399 . S
C2831 H2817 0.929 . S
C2831 C2830 1.399 . S
C2831 C2832 1.385 . S
C2832 H2818 0.931 . S
C2832 C2831 1.385 . S
C2832 C2833 1.389 . S
C2833 C2832 1.389 . S
C2833 C2834 1.387 . S
C2834 H2819 0.930 . S
C2834 C2829 1.390 . S
C2834 C2833 1.387 . S
H2835 C2847 0.930 . S
H2836 C2849 0.930 . S
H2837 C2850 0.930 . S
H2838 C2854 0.959 . S
H2839 C2854 0.959 . S
H2840 C2854 0.961 . S
H2841 C2855 0.960 . S
H2842 C2855 0.961 . S
H2843 C2855 0.959 . S
H2844 C2858 0.929 . S
H2845 C2859 0.931 . S
H2846 C2861 0.930 . S
C2847 H2835 0.930 . S
C2847 C2848 1.399 . S
C2847 C2852 1.399 . S
C2848 C2847 1.399 . S
C2848 C2849 1.376 . S
C2849 H2836 0.930 . S
C2849 C2848 1.376 . S
C2849 C2850 1.388 . S
C2850 H2837 0.930 . S
C2850 C2849 1.388 . S
C2850 C2851 1.390 . S
C2851 C2850 1.390 . S
C2851 C2852 1.394 . S
C2851 C2857 1.465 . S
C2852 C2847 1.399 . S
C2852 C2851 1.394 . S
C2852 C2853 1.516 . S
C2853 C2852 1.516 . S
C2853 C2854 1.502 . S
C2853 C2855 1.561 . S
C2853 C2856 1.526 . S
C2854 H2838 0.959 . S
C2854 H2839 0.959 . S
C2854 H2840 0.961 . S
C2854 C2853 1.502 . S
C2855 H2841 0.960 . S
C2855 H2842 0.961 . S
C2855 H2843 0.959 . S
C2855 C2853 1.561 . S
C2856 C2853 1.526 . S
C2856 C2857 1.396 . S
C2856 C2861 1.390 . S
C2857 C2851 1.465 . S
C2857 C2856 1.396 . S
C2857 C2858 1.399 . S
C2858 H2844 0.929 . S
C2858 C2857 1.399 . S
C2858 C2859 1.385 . S
C2859 H2845 0.931 . S
C2859 C2858 1.385 . S
C2859 C2860 1.389 . S
C2860 C2859 1.389 . S
C2860 C2861 1.387 . S
C2861 H2846 0.930 . S
C2861 C2856 1.390 . S
C2861 C2860 1.387 . S
H2862 C2874 0.930 . S
H2863 C2876 0.930 . S
H2864 C2877 0.930 . S
H2865 C2881 0.959 . S
H2866 C2881 0.959 . S
H2867 C2881 0.961 . S
H2868 C2882 0.960 . S
H2869 C2882 0.961 . S
H2870 C2882 0.959 . S
H2871 C2885 0.929 . S
H2872 C2886 0.931 . S
H2873 C2888 0.930 . S
C2874 H2862 0.930 . S
C2874 C2875 1.399 . S
C2874 C2879 1.399 . S
C2875 C2874 1.399 . S
C2875 C2876 1.376 . S
C2876 H2863 0.930 . S
C2876 C2875 1.376 . S
C2876 C2877 1.388 . S
C2877 H2864 0.930 . S
C2877 C2876 1.388 . S
C2877 C2878 1.390 . S
C2878 C2877 1.390 . S
C2878 C2879 1.394 . S
C2878 C2884 1.465 . S
C2879 C2874 1.399 . S
C2879 C2878 1.394 . S
C2879 C2880 1.516 . S
C2880 C2879 1.516 . S
C2880 C2881 1.502 . S
C2880 C2882 1.561 . S
C2880 C2883 1.526 . S
C2881 H2865 0.959 . S
C2881 H2866 0.959 . S
C2881 H2867 0.961 . S
C2881 C2880 1.502 . S
C2882 H2868 0.960 . S
C2882 H2869 0.961 . S
C2882 H2870 0.959 . S
C2882 C2880 1.561 . S
C2883 C2880 1.526 . S
C2883 C2884 1.396 . S
C2883 C2888 1.390 . S
C2884 C2878 1.465 . S
C2884 C2883 1.396 . S
C2884 C2885 1.399 . S
C2885 H2871 0.929 . S
C2885 C2884 1.399 . S
C2885 C2886 1.385 . S
C2886 H2872 0.931 . S
C2886 C2885 1.385 . S
C2886 C2887 1.389 . S
C2887 C2886 1.389 . S
C2887 C2888 1.387 . S
C2888 H2873 0.930 . S
C2888 C2883 1.390 . S
C2888 C2887 1.387 . S
H2889 C2901 0.930 . S
H2890 C2903 0.930 . S
H2891 C2904 0.930 . S
H2892 C2908 0.959 . S
H2893 C2908 0.959 . S
H2894 C2908 0.961 . S
H2895 C2909 0.960 . S
H2896 C2909 0.961 . S
H2897 C2909 0.959 . S
H2898 C2912 0.929 . S
H2899 C2913 0.931 . S
H2900 C2915 0.930 . S
C2901 H2889 0.930 . S
C2901 C2902 1.399 . S
C2901 C2906 1.399 . S
C2902 C2901 1.399 . S
C2902 C2903 1.376 . S
C2903 H2890 0.930 . S
C2903 C2902 1.376 . S
C2903 C2904 1.388 . S
C2904 H2891 0.930 . S
C2904 C2903 1.388 . S
C2904 C2905 1.390 . S
C2905 C2904 1.390 . S
C2905 C2906 1.394 . S
C2905 C2911 1.465 . S
C2906 C2901 1.399 . S
C2906 C2905 1.394 . S
C2906 C2907 1.516 . S
C2907 C2906 1.516 . S
C2907 C2908 1.502 . S
C2907 C2909 1.561 . S
C2907 C2910 1.526 . S
C2908 H2892 0.959 . S
C2908 H2893 0.959 . S
C2908 H2894 0.961 . S
C2908 C2907 1.502 . S
C2909 H2895 0.960 . S
C2909 H2896 0.961 . S
C2909 H2897 0.959 . S
C2909 C2907 1.561 . S
C2910 C2907 1.526 . S
C2910 C2911 1.396 . S
C2910 C2915 1.390 . S
C2911 C2905 1.465 . S
C2911 C2910 1.396 . S
C2911 C2912 1.399 . S
C2912 H2898 0.929 . S
C2912 C2911 1.399 . S
C2912 C2913 1.385 . S
C2913 H2899 0.931 . S
C2913 C2912 1.385 . S
C2913 C2914 1.389 . S
C2914 C2913 1.389 . S
C2914 C2915 1.387 . S
C2915 H2900 0.930 . S
C2915 C2910 1.390 . S
C2915 C2914 1.387 . S
H2916 C2928 0.930 . S
H2917 C2930 0.930 . S
H2918 C2931 0.930 . S
H2919 C2935 0.959 . S
H2920 C2935 0.959 . S
H2921 C2935 0.961 . S
H2922 C2936 0.960 . S
H2923 C2936 0.961 . S
H2924 C2936 0.959 . S
H2925 C2939 0.929 . S
H2926 C2940 0.931 . S
H2927 C2942 0.930 . S
C2928 H2916 0.930 . S
C2928 C2929 1.399 . S
C2928 C2933 1.399 . S
C2929 C2928 1.399 . S
C2929 C2930 1.376 . S
C2930 H2917 0.930 . S
C2930 C2929 1.376 . S
C2930 C2931 1.388 . S
C2931 H2918 0.930 . S
C2931 C2930 1.388 . S
C2931 C2932 1.390 . S
C2932 C2931 1.390 . S
C2932 C2933 1.394 . S
C2932 C2938 1.465 . S
C2933 C2928 1.399 . S
C2933 C2932 1.394 . S
C2933 C2934 1.516 . S
C2934 C2933 1.516 . S
C2934 C2935 1.502 . S
C2934 C2936 1.561 . S
C2934 C2937 1.526 . S
C2935 H2919 0.959 . S
C2935 H2920 0.959 . S
C2935 H2921 0.961 . S
C2935 C2934 1.502 . S
C2936 H2922 0.960 . S
C2936 H2923 0.961 . S
C2936 H2924 0.959 . S
C2936 C2934 1.561 . S
C2937 C2934 1.526 . S
C2937 C2938 1.396 . S
C2937 C2942 1.390 . S
C2938 C2932 1.465 . S
C2938 C2937 1.396 . S
C2938 C2939 1.399 . S
C2939 H2925 0.929 . S
C2939 C2938 1.399 . S
C2939 C2940 1.385 . S
C2940 H2926 0.931 . S
C2940 C2939 1.385 . S
C2940 C2941 1.389 . S
C2941 C2940 1.389 . S
C2941 C2942 1.387 . S
C2942 H2927 0.930 . S
C2942 C2937 1.390 . S
C2942 C2941 1.387 . S
H2943 C2955 0.930 . S
H2944 C2957 0.930 . S
H2945 C2958 0.930 . S
H2946 C2962 0.959 . S
H2947 C2962 0.959 . S
H2948 C2962 0.961 . S
H2949 C2963 0.960 . S
H2950 C2963 0.961 . S
H2951 C2963 0.959 . S
H2952 C2966 0.929 . S
H2953 C2967 0.931 . S
H2954 C2969 0.930 . S
C2955 H2943 0.930 . S
C2955 C2956 1.399 . S
C2955 C2960 1.399 . S
C2956 C2955 1.399 . S
C2956 C2957 1.376 1_655 S
C2957 H2944 0.930 . S
C2957 C2956 1.376 1_455 S
C2957 C2958 1.388 . S
C2958 H2945 0.930 . S
C2958 C2957 1.388 . S
C2958 C2959 1.390 . S
C2959 C2958 1.390 . S
C2959 C2960 1.394 1_455 S
C2959 C2965 1.465 . S
C2960 C2955 1.399 . S
C2960 C2959 1.394 1_655 S
C2960 C2961 1.516 . S
C2961 C2960 1.516 . S
C2961 C2962 1.502 . S
C2961 C2963 1.561 . S
C2961 C2964 1.526 . S
C2962 H2946 0.959 . S
C2962 H2947 0.959 . S
C2962 H2948 0.961 . S
C2962 C2961 1.502 . S
C2963 H2949 0.960 . S
C2963 H2950 0.961 . S
C2963 H2951 0.959 . S
C2963 C2961 1.561 . S
C2964 C2961 1.526 . S
C2964 C2965 1.396 1_655 S
C2964 C2969 1.390 . S
C2965 C2959 1.465 . S
C2965 C2964 1.396 1_455 S
C2965 C2966 1.399 . S
C2966 H2952 0.929 . S
C2966 C2965 1.399 . S
C2966 C2967 1.385 . S
C2967 H2953 0.931 . S
C2967 C2966 1.385 . S
C2967 C2968 1.389 1_455 S
C2968 C2967 1.389 1_655 S
C2968 C2969 1.387 . S
C2969 H2954 0.930 . S
C2969 C2964 1.390 . S
C2969 C2968 1.387 . S
H2970 C2982 0.930 . S
H2971 C2984 0.930 . S
H2972 C2985 0.930 . S
H2973 C2989 0.959 . S
H2974 C2989 0.959 . S
H2975 C2989 0.961 . S
H2976 C2990 0.960 . S
H2977 C2990 0.961 . S
H2978 C2990 0.959 . S
H2979 C2993 0.929 . S
H2980 C2994 0.931 . S
H2981 C2996 0.930 . S
C2982 H2970 0.930 . S
C2982 C2983 1.399 . S
C2982 C2987 1.399 . S
C2983 C2982 1.399 . S
C2983 C2984 1.376 . S
C2984 H2971 0.930 . S
C2984 C2983 1.376 . S
C2984 C2985 1.388 . S
C2985 H2972 0.930 . S
C2985 C2984 1.388 . S
C2985 C2986 1.390 . S
C2986 C2985 1.390 . S
C2986 C2987 1.394 . S
C2986 C2992 1.465 . S
C2987 C2982 1.399 . S
C2987 C2986 1.394 . S
C2987 C2988 1.516 . S
C2988 C2987 1.516 . S
C2988 C2989 1.502 . S
C2988 C2990 1.561 . S
C2988 C2991 1.526 . S
C2989 H2973 0.959 . S
C2989 H2974 0.959 . S
C2989 H2975 0.961 . S
C2989 C2988 1.502 . S
C2990 H2976 0.960 . S
C2990 H2977 0.961 . S
C2990 H2978 0.959 . S
C2990 C2988 1.561 . S
C2991 C2988 1.526 . S
C2991 C2992 1.396 . S
C2991 C2996 1.390 . S
C2992 C2986 1.465 . S
C2992 C2991 1.396 . S
C2992 C2993 1.399 . S
C2993 H2979 0.929 . S
C2993 C2992 1.399 . S
C2993 C2994 1.385 . S
C2994 H2980 0.931 . S
C2994 C2993 1.385 . S
C2994 C2995 1.389 . S
C2995 C2994 1.389 . S
C2995 C2996 1.387 . S
C2996 H2981 0.930 . S
C2996 C2991 1.390 . S
C2996 C2995 1.387 . S
H2997 C3009 0.930 . S
H2998 C3011 0.930 . S
H2999 C3012 0.930 . S
H3000 C3016 0.959 . S
H3001 C3016 0.959 . S
H3002 C3016 0.961 . S
H3003 C3017 0.960 . S
H3004 C3017 0.961 . S
H3005 C3017 0.959 . S
H3006 C3020 0.929 . S
H3007 C3021 0.931 . S
H3008 C3023 0.930 . S
C3009 H2997 0.930 . S
C3009 C3010 1.399 . S
C3009 C3014 1.399 . S
C3010 C3009 1.399 . S
C3010 C3011 1.376 1_545 S
C3011 H2998 0.930 . S
C3011 C3010 1.376 1_565 S
C3011 C3012 1.388 . S
C3012 H2999 0.930 . S
C3012 C3011 1.388 . S
C3012 C3013 1.427 . S
C3013 C3012 1.427 . S
C3013 C3014 1.365 1_565 S
C3013 C3019 1.451 . S
C3014 C3009 1.399 . S
C3014 C3013 1.365 1_545 S
C3014 C3015 1.516 . S
C3015 C3014 1.516 . S
C3015 C3016 1.502 . S
C3015 C3017 1.561 . S
C3015 C3018 1.526 . S
C3016 H3000 0.959 . S
C3016 H3001 0.959 . S
C3016 H3002 0.961 . S
C3016 C3015 1.502 . S
C3017 H3003 0.960 . S
C3017 H3004 0.961 . S
C3017 H3005 0.959 . S
C3017 C3015 1.561 . S
C3018 C3015 1.526 . S
C3018 C3019 1.396 1_545 S
C3018 C3023 1.390 . S
C3019 C3013 1.451 . S
C3019 C3018 1.396 1_565 S
C3019 C3020 1.399 . S
C3020 H3006 0.929 . S
C3020 C3019 1.399 . S
C3020 C3021 1.385 . S
C3021 H3007 0.931 . S
C3021 C3020 1.385 . S
C3021 C3022 1.389 1_565 S
C3022 C3021 1.389 1_545 S
C3022 C3023 1.387 . S
C3023 H3008 0.930 . S
C3023 C3018 1.390 . S
C3023 C3022 1.387 . S
C1093 C9 1.435 1_655 S
C1105 C688 1.454 . S
C1120 C19 1.565 . S
C1132 C734 1.551 . S
C1159 C766 1.493 . S
C1147 C33 1.490 . S
C1174 C37 1.466 1_565 S
C1186 C819 1.471 . S
C1201 C5 1.449 . S
C1213 C865 1.453 . S
C1228 C23 1.604 . S
C1240 C904 1.579 . S
C1255 C47 1.465 . S
C1267 C858 1.464 . S
C1294 C911 1.596 . S
C1282 C65 1.618 . S
C1321 C812 1.469 . S
C1309 C75 1.471 . S
C1336 C79 1.372 . S
C1348 C773 1.405 . S
C1375 C667 1.481 . S
C1363 C51 1.452 . S
C1390 C61 1.600 . S
C1402 C713 1.573 . S
C1417 C93 1.716 . S
C1429 C943 1.711 . S
C1444 C103 1.644 . S
C1456 C1010 1.626 . S
C1483 C1056 1.625 . S
C1471 C117 1.664 . S
C1498 C121 1.617 . S
C1510 C267 1.600 . S
C1525 C89 1.640 . S
C1537 C313 1.592 . S
C1552 C107 1.656 . S
C1564 C359 1.609 . S
C1579 C131 1.588 . S
C1591 C306 1.570 . S
C1606 C149 1.662 . S
C1618 C352 1.635 . S
C1645 C260 1.629 . S
C1633 C159 1.630 . S
C1672 C1035 1.628 . S
C1660 C163 1.678 . S
C1699 C964 1.679 . S
C1687 C135 1.684 . S
C1726 C989 1.632 . S
C1714 C145 1.659 . S
C1741 C177 1.609 . S
C1753 C391 1.581 . S
C1768 C187 1.609 . S
C1780 C444 1.579 . S
C1795 C201 1.660 . S
C1807 C490 1.653 . S
C1822 C205 1.718 . S
C1834 C536 1.716 . S
C1861 C589 1.590 . S
C1849 C173 1.634 . S
C1888 C635 1.687 . S
C1876 C191 1.696 . S
C1915 C582 1.685 . S
C1903 C215 1.708 . S
C1942 C628 1.657 . S
C1930 C233 1.703 . S
C1957 C243 1.609 . S
C1969 C543 1.620 . S
C1996 C497 1.574 . S
C1984 C247 1.578 . S
C2011 C219 1.696 . S
C2023 C412 1.686 . S
C2050 C451 1.613 . S
C2038 C229 1.646 . S
C2077 C274 1.600 . S
C2065 C11 1.595 . S
C2092 C14 1.525 . S
C2104 C320 1.487 . S
C2131 C366 1.682 . S
C2119 C28 1.682 . S
C2158 C398 1.644 . S
C2146 C39 1.672 . S
C2185 C437 1.560 . S
C2173 C0 1.611 . S
C2212 C483 1.440 . S
C2200 C25 1.494 . S
C2227 C42 1.665 . S
C2239 C504 1.651 . S
C2254 C67 1.549 . S
C2266 C405 1.501 . S
C2281 C70 1.559 . S
C2293 C458 1.509 . S
C2308 C81 1.585 . S
C2320 C299 1.574 . S
C2347 C345 1.637 . S
C2335 C53 1.644 . S
C2362 C56 1.564 . S
C2374 C253 1.523 . S
C2401 C529 1.546 . S
C2389 C95 1.551 . S
C2416 C98 1.662 . S
C2428 C596 1.658 . S
C2443 C112 1.726 . S
C2455 C642 1.717 . S
C2482 C681 1.412 . S
C2470 C123 1.418 . S
C2497 C84 1.573 . S
C2509 C727 1.543 . S
C2524 C109 1.335 . S
C2536 C759 1.363 . S
C2551 C126 1.448 . S
C2563 C780 1.451 . S
C2578 C151 1.404 . S
C2590 C674 1.391 . S
C2617 C720 1.553 . S
C2605 C154 1.555 . S
C2632 C165 1.535 . S
C2644 C575 1.517 . S
C2659 C137 1.679 . S
C2671 C621 1.670 . S
C2698 C550 1.635 . S
C2686 C140 1.686 . S
C2725 C826 1.382 . S
C2713 C179 1.393 . S
C2740 C182 1.360 . S
C2752 C872 1.391 . S
C2767 C196 1.642 . S
C2779 C897 1.613 . S
C2806 C950 1.567 . S
C2794 C207 1.621 . S
C2833 C1003 1.654 . S
C2821 C168 1.658 . S
C2848 C193 1.621 . S
C2860 C1049 1.614 . S
C2875 C210 1.629 . S
C2887 C1042 1.593 . S
C2902 C235 1.673 . S
C2914 C957 1.617 . S
C2941 C996 1.581 . S
C2929 C238 1.612 . S
C2968 C851 1.357 . S
C2956 C249 1.354 . S
C2995 C918 1.597 . S
C2983 C221 1.600 . S
C3010 C224 1.431 . S
C3022 C805 1.429 . S
