# Generated by pormake.
# Topology zzz, (3,6)-cn, num edge types: 1
# Building blocks:
#     Node 0, Type 0, BuildingBlock: CUQRIR_clean_linker_1, # of connection points: 3
#     Node 1, Type 0, BuildingBlock: CUQRIR_clean_linker_1, # of connection points: 3
#     Node 2, Type 0, BuildingBlock: CUQRIR_clean_linker_1, # of connection points: 3
#     Node 3, Type 0, BuildingBlock: CUQRIR_clean_linker_1, # of connection points: 3
#     Node 4, Type 0, BuildingBlock: CUQRIR_clean_linker_1, # of connection points: 3
#     Node 5, Type 0, BuildingBlock: CUQRIR_clean_linker_1, # of connection points: 3
#     Node 6, Type 0, BuildingBlock: CUQRIR_clean_linker_1, # of connection points: 3
#     Node 7, Type 0, BuildingBlock: CUQRIR_clean_linker_1, # of connection points: 3
#     Node 8, Type 1, BuildingBlock: BETDEL_clean_sbu_0, # of connection points: 6
#     Node 9, Type 1, BuildingBlock: BETDEL_clean_sbu_0, # of connection points: 6
#     Node 10, Type 1, BuildingBlock: BETDEL_clean_sbu_0, # of connection points: 6
#     Node 11, Type 1, BuildingBlock: BETDEL_clean_sbu_0, # of connection points: 6
#     Edge 12, Type (0, 1), BuildingBlock: TEMPAE_clean_linker_10, # of connection points: 2
#     Edge 13, Type (0, 1), BuildingBlock: TEMPAE_clean_linker_10, # of connection points: 2
#     Edge 14, Type (0, 1), BuildingBlock: TEMPAE_clean_linker_10, # of connection points: 2
#     Edge 15, Type (0, 1), BuildingBlock: TEMPAE_clean_linker_10, # of connection points: 2
#     Edge 16, Type (0, 1), BuildingBlock: TEMPAE_clean_linker_10, # of connection points: 2
#     Edge 17, Type (0, 1), BuildingBlock: TEMPAE_clean_linker_10, # of connection points: 2
#     Edge 18, Type (0, 1), BuildingBlock: TEMPAE_clean_linker_10, # of connection points: 2
#     Edge 19, Type (0, 1), BuildingBlock: TEMPAE_clean_linker_10, # of connection points: 2
#     Edge 20, Type (0, 1), BuildingBlock: TEMPAE_clean_linker_10, # of connection points: 2
#     Edge 21, Type (0, 1), BuildingBlock: TEMPAE_clean_linker_10, # of connection points: 2
#     Edge 22, Type (0, 1), BuildingBlock: TEMPAE_clean_linker_10, # of connection points: 2
#     Edge 23, Type (0, 1), BuildingBlock: TEMPAE_clean_linker_10, # of connection points: 2
#     Edge 24, Type (0, 1), BuildingBlock: TEMPAE_clean_linker_10, # of connection points: 2
#     Edge 25, Type (0, 1), BuildingBlock: TEMPAE_clean_linker_10, # of connection points: 2
#     Edge 26, Type (0, 1), BuildingBlock: TEMPAE_clean_linker_10, # of connection points: 2
#     Edge 27, Type (0, 1), BuildingBlock: TEMPAE_clean_linker_10, # of connection points: 2
#     Edge 28, Type (0, 1), BuildingBlock: TEMPAE_clean_linker_10, # of connection points: 2
#     Edge 29, Type (0, 1), BuildingBlock: TEMPAE_clean_linker_10, # of connection points: 2
#     Edge 30, Type (0, 1), BuildingBlock: TEMPAE_clean_linker_10, # of connection points: 2
#     Edge 31, Type (0, 1), BuildingBlock: TEMPAE_clean_linker_10, # of connection points: 2
#     Edge 32, Type (0, 1), BuildingBlock: TEMPAE_clean_linker_10, # of connection points: 2
#     Edge 33, Type (0, 1), BuildingBlock: TEMPAE_clean_linker_10, # of connection points: 2
#     Edge 34, Type (0, 1), BuildingBlock: TEMPAE_clean_linker_10, # of connection points: 2
#     Edge 35, Type (0, 1), BuildingBlock: TEMPAE_clean_linker_10, # of connection points: 2
# Relax obj value: 0.173
# Max RMSD: 0.193
# Mean RMSD: 0.119
data_MOF--net-zzz--node1-BETDEL_clean_sbu_0--node2-CUQRIR_clean_linker_1--edge1-TEMPAE_clean_linker_10
_symmetry_space_group_name_H-M    P1
_symmetry_Int_Tables_number       1
_symmetry_cell_setting            triclinic
loop_
_symmetry_equiv_pos_as_xyz
'x, y, z'
_cell_length_a     47.020968
_cell_length_b     48.015996
_cell_length_c     13.368511
_cell_angle_alpha  91.636744
_cell_angle_beta   88.285192
_cell_angle_gamma 95.119328
loop_
_atom_site_label
_atom_site_type_symbol
_atom_site_fract_x
_atom_site_fract_y
_atom_site_fract_z
_atom_type_partial_charge
C0 C 0.73525 0.50759 0.17045 0.0
N1 N 0.76247 0.49997 0.16734 0.0
N2 N 0.72137 0.49866 0.08551 0.0
C3 C 0.72203 0.52277 0.25702 0.0
C4 C 0.74142 0.48588 0.03055 0.0
N5 N 0.76595 0.48642 0.08056 0.0
C6 C 0.73797 0.47505 0.92432 0.0
H7 H 0.73185 0.51789 0.32818 0.0
H8 H 0.69862 0.51718 0.26184 0.0
H9 H 0.72588 0.54561 0.24575 0.0
H10 H 0.72343 0.48748 0.8837 0.0
H11 H 0.72867 0.453 0.92531 0.0
H12 H 0.75883 0.47561 0.88311 0.0
C13 C 0.00893 0.73921 0.16855 0.0
N14 N 0.01444 0.76721 0.15859 0.0
N15 N 0.01721 0.72529 0.08409 0.0
C16 C 0.99496 0.72563 0.25925 0.0
C17 C 0.02751 0.74595 0.02221 0.0
N18 N 0.02587 0.77129 0.0676 0.0
C19 C 0.03845 0.74122 0.91651 0.0
H20 H 1.00097 0.70392 0.26515 0.0
H21 H 0.97144 0.72495 0.25275 0.0
H22 H 1.00099 0.73797 0.32803 0.0
H23 H 0.02394 0.72529 0.87717 0.0
H24 H 0.05977 0.73311 0.91856 0.0
H25 H 0.04078 0.76064 0.87324 0.0
C26 C 0.76918 0.00573 0.17975 0.0
N27 N 0.74187 0.01288 0.17894 0.0
N28 N 0.78466 0.01662 0.09994 0.0
C29 C 0.78023 0.98708 0.25492 0.0
C30 C 0.76556 0.0303 0.05047 0.0
N31 N 0.73986 0.02818 0.09872 0.0
C32 C 0.7716 0.04418 0.9514 0.0
H33 H 0.77016 0.9906 0.32977 0.0
H34 H 0.8038 0.99071 0.25951 0.0
H35 H 0.77462 0.96496 0.23153 0.0
H36 H 0.75179 0.04811 0.91338 0.0
H37 H 0.78456 0.03112 0.90135 0.0
H38 H 0.78407 0.06462 0.96425 0.0
C39 C 0.51225 0.76861 0.15992 0.0
N40 N 0.5022 0.74118 0.16295 0.0
N41 N 0.50278 0.78065 0.07771 0.0
C42 C 0.5317 0.78347 0.23486 0.0
C43 C 0.48681 0.75962 0.03113 0.0
N44 N 0.4863 0.73588 0.08295 0.0
C45 C 0.47365 0.76173 0.93081 0.0
H46 H 0.52837 0.77387 0.30931 0.0
H47 H 0.5281 0.80599 0.24079 0.0
H48 H 0.55416 0.78174 0.20944 0.0
H49 H 0.48968 0.7572 0.87132 0.0
H50 H 0.46729 0.78314 0.92028 0.0
H51 H 0.45478 0.74632 0.92273 0.0
C52 C 0.2776 0.50416 0.97971 0.0
N53 N 0.25043 0.51189 0.98304 0.0
N54 N 0.29142 0.51263 0.06527 0.0
C55 C 0.29087 0.48939 0.89226 0.0
C56 C 0.27136 0.52525 0.12078 0.0
N57 N 0.24691 0.52507 0.07053 0.0
C58 C 0.27472 0.53564 0.22754 0.0
H59 H 0.28701 0.46648 0.90214 0.0
H60 H 0.31427 0.495 0.88779 0.0
H61 H 0.28107 0.49461 0.82143 0.0
H62 H 0.28386 0.55775 0.22781 0.0
H63 H 0.28933 0.52312 0.26746 0.0
H64 H 0.25383 0.53476 0.26865 0.0
C65 C 0.01366 0.27798 0.97516 0.0
N66 N 0.0097 0.24988 0.98591 0.0
N67 N 1.00614 0.29155 0.06134 0.0
C68 C 0.02536 0.29207 0.88212 0.0
C69 C 0.99784 0.27064 0.12475 0.0
N70 N 0.99996 0.2455 0.07882 0.0
C71 C 0.98785 0.27493 0.23178 0.0
H72 H 0.01787 0.31327 0.87767 0.0
H73 H 0.01901 0.27936 0.8145 0.0
H74 H 0.04902 0.29418 0.88421 0.0
H75 H 0.96519 0.27969 0.23288 0.0
H76 H 1.00058 0.29294 0.26729 0.0
H77 H 0.98929 0.25611 0.27669 0.0
C78 C 0.23292 0.01115 0.95293 0.0
N79 N 0.26108 0.00772 0.96297 0.0
N80 N 0.21944 0.01228 0.04437 0.0
C81 C 0.21862 0.01289 0.85491 0.0
C82 C 0.24028 0.00921 0.10967 0.0
N83 N 0.26538 0.00658 0.06051 0.0
C84 C 0.23577 0.0085 0.22155 0.0
H85 H 0.1953 0.00708 0.86285 0.0
H86 H 0.2282 0.9991 0.79762 0.0
H87 H 0.22202 0.03471 0.82901 0.0
H88 H 0.21757 0.99303 0.24049 0.0
H89 H 0.23003 0.02928 0.24972 0.0
H90 H 0.25507 1.00321 0.26001 0.0
C91 C 0.49983 0.24227 0.99304 0.0
N92 N 0.51045 0.26951 0.98761 0.0
N93 N 0.50946 0.23044 0.07539 0.0
C94 C 0.47964 0.22744 0.92043 0.0
C95 C 0.52609 0.2514 0.11968 0.0
N96 N 0.52686 0.2749 0.06632 0.0
C97 C 0.53952 0.24959 0.21965 0.0
H98 H 0.48267 0.23663 0.84521 0.0
H99 H 0.4574 0.22971 0.94744 0.0
H100 H 0.48275 0.20479 0.91552 0.0
H101 H 0.54534 0.22806 0.23169 0.0
H102 H 0.52388 0.25492 0.2794 0.0
H103 H 0.55879 0.2646 0.22567 0.0
Dy104 Dy 0.01716 0.99523 0.67501 0.0
C105 C 0.97401 0.05332 0.34496 0.0
C106 C 0.02421 0.96445 0.83816 0.0
Dy107 Dy 0.98848 0.01886 0.4898 0.0
O108 O 0.04357 0.98247 0.80008 0.0
O109 O 1.0006 0.96466 0.79026 0.0
O110 O 0.06195 0.99377 0.60729 0.0
O111 O 0.02974 0.00712 0.52512 0.0
C112 C 0.05562 1.00249 0.52037 0.0
C113 C 0.95269 1.00057 0.63989 0.0
O114 O 0.99287 0.97518 0.43274 0.0
O115 O 0.99859 0.95698 0.59004 0.0
O116 O 0.95985 0.04851 0.42823 0.0
O117 O 0.99548 0.03799 0.3383 0.0
O118 O 0.94656 0.99833 0.5455 0.0
O119 O 0.97714 0.01354 0.64905 0.0
O120 O 0.01756 0.0402 0.72474 0.0
O121 O 0.00997 0.05719 0.56679 0.0
C122 C 0.99423 0.95374 0.49263 0.0
C123 C 0.01653 0.06114 0.66234 0.0
Dy124 Dy 0.48903 0.98944 0.50371 0.0
C125 C 0.55599 0.04792 0.79942 0.0
C126 C 0.44855 0.97109 0.36961 0.0
Dy127 Dy 0.5176 0.02421 0.666 0.0
O128 O 0.47292 0.98452 0.34657 0.0
O129 O 0.44768 0.96593 0.46425 0.0
O130 O 0.52898 0.96892 0.463 0.0
O131 O 0.53189 0.01069 0.51648 0.0
C132 C 0.54611 0.99026 0.49183 0.0
C133 C 0.45993 0.02208 0.67951 0.0
O134 O 0.51621 0.05812 0.55588 0.0
O135 O 0.48249 0.03343 0.45859 0.0
O136 O 0.53277 0.03256 0.82311 0.0
O137 O 0.55798 0.05044 0.70318 0.0
O138 O 0.47678 0.04346 0.70947 0.0
O139 O 0.47485 1.00243 0.65296 0.0
O140 O 0.49076 0.95554 0.61397 0.0
O141 O 0.52476 0.98034 0.711 0.0
C142 C 0.49823 0.0569 0.48144 0.0
C143 C 0.50905 0.95679 0.68783 0.0
Dy144 Dy 0.48832 0.51549 0.6494 0.0
C145 C 0.55255 0.46304 0.35789 0.0
C146 C 0.46116 0.54749 0.78836 0.0
Dy147 Dy 0.5252 0.49475 0.49729 0.0
O148 O 0.45378 0.54263 0.69676 0.0
O149 O 0.48327 0.53414 0.80553 0.0
O150 O 0.45076 0.49026 0.58511 0.0
O151 O 0.48217 0.50852 0.48693 0.0
C152 C 0.45848 0.49369 0.49192 0.0
C153 C 0.55491 0.51659 0.6549 0.0
O154 O 0.52496 0.5374 0.43448 0.0
O155 O 0.50962 0.55544 0.58549 0.0
O156 O 0.5599 0.46783 0.44957 0.0
O157 O 0.53032 0.47623 0.34098 0.0
O158 O 0.56267 0.52008 0.56178 0.0
O159 O 0.53129 0.50166 0.65972 0.0
O160 O 0.48848 0.4729 0.71239 0.0
O161 O 0.50395 0.45478 0.56159 0.0
C162 C 0.51953 0.55914 0.49261 0.0
C163 C 0.49394 0.45114 0.65444 0.0
Dy164 Dy 0.99357 0.48976 0.65138 0.0
C165 C 0.05712 0.55151 0.36261 0.0
C166 C 0.95616 0.46359 0.7862 0.0
Dy167 Dy 0.01966 0.5257 0.49813 0.0
O168 O 0.96041 0.45561 0.69421 0.0
O169 O 0.9733 0.48566 0.8063 0.0
O170 O 0.01566 0.45369 0.58886 0.0
O171 O 1.00141 0.48231 0.48987 0.0
C172 C 0.01452 0.46053 0.49592 0.0
C173 C 0.99892 0.55502 0.65361 0.0
O174 O 0.97587 0.52216 0.43467 0.0
O175 O 0.95545 0.50724 0.58456 0.0
O176 O 0.05291 0.55968 0.45444 0.0
O177 O 0.03985 0.52949 0.34309 0.0
O178 O 0.99759 0.56171 0.56057 0.0
O179 O 0.01197 0.53317 0.65977 0.0
O180 O 0.03729 0.49315 0.71495 0.0
O181 O 0.05776 0.5082 0.56525 0.0
C182 C 0.95292 0.51604 0.49243 0.0
C183 C 0.06025 0.49925 0.65723 0.0
C184 C 0.18179 0.03853 0.12163 0.0
C185 C 0.18979 0.01431 0.07165 0.0
C186 C 0.15621 0.03827 0.17902 0.0
C187 C 0.13826 0.01305 0.18727 0.0
C188 C 0.14498 0.98924 0.12886 0.0
C189 C 0.17079 0.99014 0.0721 0.0
C190 C 0.14999 0.06424 0.23902 0.0
C191 C 0.12645 0.96197 0.13411 0.0
C192 C 0.10441 0.99998 0.44563 0.0
C193 C 0.07599 0.00559 0.43337 0.0
C194 C 0.12455 1.00212 0.36597 0.0
C195 C 0.11623 0.01014 0.27068 0.0
C196 C 0.08747 0.01579 0.25742 0.0
C197 C 0.06765 0.01338 0.33901 0.0
C198 C 0.15488 0.99587 0.38426 0.0
C199 C 0.07767 0.02432 0.15726 0.0
H200 H 0.19678 0.05704 0.12234 0.0
H201 H 0.17727 0.9713 0.03478 0.0
H202 H 0.12703 0.06776 0.2364 0.0
H203 H 0.15506 0.06154 0.31852 0.0
H204 H 0.16292 0.08312 0.21151 0.0
H205 H 0.13138 0.94737 0.07128 0.0
H206 H 0.1301 0.95177 0.2055 0.0
H207 H 0.10349 0.96559 0.13288 0.0
H208 H 0.11103 0.99384 0.51819 0.0
H209 H 0.04567 0.01745 0.32885 0.0
H210 H 0.16981 0.01456 0.36859 0.0
H211 H 0.16099 0.97873 0.33279 0.0
H212 H 0.15783 0.98964 0.46242 0.0
H213 H 0.09119 0.04295 0.13095 0.0
H214 H 0.055 0.0292 0.1602 0.0
H215 H 0.08012 0.00722 0.10094 0.0
C216 C 0.51691 0.18054 0.08635 0.0
C217 C 0.50169 0.20325 0.11622 0.0
C218 C 0.51415 0.15559 0.14025 0.0
C219 C 0.49577 0.15339 0.22644 0.0
C220 C 0.47931 0.17592 0.25365 0.0
C221 C 0.48262 0.20061 0.19853 0.0
C222 C 0.53214 0.13222 0.10834 0.0
C223 C 0.45938 0.17458 0.3443 0.0
C224 C 0.47719 0.08157 0.34058 0.0
C225 C 0.49656 0.08199 0.41889 0.0
C226 C 0.4765 0.10461 0.27783 0.0
C227 C 0.49571 0.12872 0.29303 0.0
C228 C 0.51512 0.12936 0.37244 0.0
C229 C 0.51526 0.10611 0.43426 0.0
C230 C 0.45534 0.10304 0.19469 0.0
C231 C 0.53603 0.15456 0.39154 0.0
H232 H 0.53206 0.18293 0.02385 0.0
H233 H 0.47131 0.21847 0.22235 0.0
H234 H 0.54848 0.13007 0.16516 0.0
H235 H 0.51874 0.11203 0.10359 0.0
H236 H 0.54321 0.13602 0.03476 0.0
H237 H 0.44593 0.19248 0.34924 0.0
H238 H 0.44522 0.15482 0.34264 0.0
H239 H 0.47201 0.17478 0.41315 0.0
H240 H 0.46263 0.0631 0.32761 0.0
H241 H 0.53041 0.10675 0.49398 0.0
H242 H 0.4669 0.10489 0.12127 0.0
H243 H 0.44177 0.12078 0.20237 0.0
H244 H 0.44129 0.08316 0.19427 0.0
H245 H 0.55007 0.1585 0.32431 0.0
H246 H 0.54965 0.15187 0.45646 0.0
H247 H 0.52436 0.17342 0.40581 0.0
C248 C 0.33709 0.53188 0.13634 0.0
C249 C 0.32024 0.50904 0.09528 0.0
C250 C 0.36211 0.52821 0.18769 0.0
C251 C 0.37125 0.50103 0.19547 0.0
C252 C 0.35583 0.47823 0.14529 0.0
C253 C 0.33029 0.48243 0.09701 0.0
C254 C 0.3774 0.55319 0.24044 0.0
C255 C 0.36541 0.44911 0.14752 0.0
C256 C 0.44458 0.49846 0.31213 0.0
C257 C 0.43684 0.49251 0.41207 0.0
C258 C 0.42361 0.4999 0.23917 0.0
C259 C 0.39418 0.49614 0.26737 0.0
C260 C 0.38641 0.48954 0.36779 0.0
C261 C 0.40772 0.48738 0.43803 0.0
C262 C 0.43299 0.50613 0.13261 0.0
C263 C 0.35545 0.486 0.40256 0.0
H264 H 0.32965 0.55254 0.1333 0.0
H265 H 0.31741 0.46469 0.0654 0.0
H266 H 0.3753 0.55057 0.32265 0.0
H267 H 0.40051 0.5548 0.22029 0.0
H268 H 0.36868 0.57312 0.22196 0.0
H269 H 0.35463 0.43497 0.09035 0.0
H270 H 0.38887 0.44959 0.13458 0.0
H271 H 0.36034 0.44024 0.22232 0.0
H272 H 0.46701 0.50235 0.29123 0.0
H273 H 0.40142 0.48279 0.51488 0.0
H274 H 0.42897 0.5279 0.11585 0.0
H275 H 0.42052 0.49205 0.07951 0.0
H276 H 0.4561 0.50381 0.11909 0.0
H277 H 0.34522 0.50554 0.39035 0.0
H278 H 0.35293 0.48095 0.4831 0.0
H279 H 0.34373 0.46904 0.35827 0.0
C280 C 0.98355 0.33283 0.12598 0.0
C281 C 0.00774 0.3211 0.08576 0.0
C282 C 0.98586 0.35896 0.17626 0.0
C283 C 0.01302 0.37405 0.18456 0.0
C284 C 0.03701 0.36366 0.13404 0.0
C285 C 0.03415 0.33708 0.08604 0.0
C286 C 0.95966 0.36904 0.22872 0.0
C287 C 0.06612 0.37957 0.13744 0.0
C288 C 0.01224 0.44613 0.31332 0.0
C289 C 0.01746 0.4398 0.41259 0.0
C290 C 0.01224 0.42536 0.23645 0.0
C291 C 0.01692 0.39755 0.26013 0.0
C292 C 0.02318 0.39142 0.35978 0.0
C293 C 0.02371 0.41264 0.43417 0.0
C294 C 1.00618 0.43305 0.13102 0.0
C295 C 0.02797 0.36206 0.38918 0.0
H296 H 0.96309 0.32052 0.12422 0.0
H297 H 0.05285 0.328 0.05477 0.0
H298 H 0.96171 0.36764 0.3109 0.0
H299 H 0.95764 0.39126 0.21226 0.0
H300 H 0.93976 0.35645 0.20646 0.0
H301 H 0.08102 0.37172 0.07933 0.0
H302 H 0.06453 0.40222 0.12677 0.0
H303 H 0.07533 0.37727 0.21188 0.0
H304 H 0.00757 0.46714 0.29602 0.0
H305 H 0.02793 0.40759 0.51054 0.0
H306 H 0.98353 0.42652 0.11483 0.0
H307 H 0.01968 0.42217 0.07571 0.0
H308 H 0.00989 0.45597 0.12041 0.0
H309 H 0.0085 0.34785 0.37478 0.0
H310 H 0.03312 0.3609 0.46943 0.0
H311 H 0.0457 0.35416 0.34323 0.0
C312 C 0.82135 0.98524 0.04362 0.0
C313 C 0.81339 0.01227 0.06491 0.0
C314 C 0.84676 0.98104 0.98865 0.0
C315 C 0.86412 0.00441 0.95161 0.0
C316 C 0.85707 0.03173 0.9791 0.0
C317 C 0.8321 0.03525 0.03673 0.0
C318 C 0.85406 0.95157 0.96498 0.0
C319 C 0.87457 0.05732 0.94079 0.0
C320 C 0.93754 1.0006 0.82241 0.0
C321 C 0.93035 0.99871 0.72116 0.0
C322 C 0.91621 1.00096 0.89893 0.0
C323 C 0.88709 1.00054 0.87342 0.0
C324 C 0.87982 0.99824 0.77116 0.0
C325 C 0.90143 0.99687 0.69674 0.0
C326 C 0.92497 1.00248 0.00674 0.0
C327 C 0.84923 0.99842 0.73978 0.0
H328 H 0.80691 0.96741 0.06489 0.0
H329 H 0.82615 0.05613 0.0547 0.0
H330 H 0.84915 0.94599 0.8859 0.0
H331 H 0.87722 0.94985 0.97415 0.0
H332 H 0.84173 0.93617 0.01361 0.0
H333 H 0.86742 0.07701 0.97456 0.0
H334 H 0.89746 0.05638 0.95675 0.0
H335 H 0.87281 0.05802 0.85829 0.0
H336 H 0.95984 1.00205 0.84187 0.0
H337 H 0.89567 0.99553 0.61874 0.0
H338 H 0.91028 0.98843 0.05314 0.0
H339 H 0.92387 0.02411 0.03703 0.0
H340 H 0.94715 0.99671 0.01461 0.0
H341 H 0.83582 0.98087 0.77415 0.0
H342 H 0.84714 0.99662 0.65724 0.0
H343 H 0.84053 0.01812 0.76678 0.0
C344 C 0.49388 0.83029 0.07184 0.0
C345 C 0.50982 0.8083 0.03976 0.0
C346 C 0.49589 0.85565 0.02038 0.0
C347 C 0.51425 0.85899 0.9345 0.0
C348 C 0.53146 0.8372 0.90518 0.0
C349 C 0.52888 0.81207 0.95782 0.0
C350 C 0.47711 0.87819 0.05444 0.0
C351 C 0.55143 0.83977 0.81479 0.0
C352 C 0.49329 0.90699 0.73125 0.0
C353 C 0.51129 0.93148 0.74875 0.0
C354 C 0.49413 0.88339 0.7909 0.0
C355 C 0.51353 0.88405 0.87031 0.0
C356 C 0.53201 0.90856 0.8878 0.0
C357 C 0.53064 0.93194 0.82712 0.0
C358 C 0.47399 0.85777 0.76942 0.0
C359 C 0.55312 0.91017 0.97108 0.0
H360 H 0.47874 0.82702 0.13401 0.0
H361 H 0.54075 0.79476 0.93228 0.0
H362 H 0.48989 0.89868 0.061 0.0
H363 H 0.46066 0.88022 0.9979 0.0
H364 H 0.46614 0.87355 0.12762 0.0
H365 H 0.56551 0.82238 0.80829 0.0
H366 H 0.53881 0.83965 0.74596 0.0
H367 H 0.56497 0.8599 0.81828 0.0
H368 H 0.47819 0.90629 0.67138 0.0
H369 H 0.54468 0.95067 0.84172 0.0
H370 H 0.46007 0.85289 0.83626 0.0
H371 H 0.48631 0.83943 0.75317 0.0
H372 H 0.46023 0.86051 0.70493 0.0
H373 H 0.54161 0.90709 0.04413 0.0
H374 H 0.56632 0.93054 0.9742 0.0
H375 H 0.56752 0.89315 0.96098 0.0
C376 C 0.68272 0.52884 0.05107 0.0
C377 C 0.69257 0.50219 0.05512 0.0
C378 C 0.65726 0.53289 0.00198 0.0
C379 C 0.64173 0.50988 0.95345 0.0
C380 C 0.65065 0.48269 0.96366 0.0
C381 C 0.67561 0.4792 0.01563 0.0
C382 C 0.64797 0.56206 0.99694 0.0
C383 C 0.63522 0.45748 0.9127 0.0
C384 C 0.56861 0.51248 0.83521 0.0
C385 C 0.5765 0.51783 0.73494 0.0
C386 C 0.58947 0.51118 0.90863 0.0
C387 C 0.61893 0.51447 0.88062 0.0
C388 C 0.62686 0.5204 0.77977 0.0
C389 C 0.60566 0.52243 0.70902 0.0
C390 C 0.57997 0.50573 0.01563 0.0
C391 C 0.65786 0.52338 0.74523 0.0
H392 H 0.6957 0.54669 0.08138 0.0
H393 H 0.68293 0.45853 0.02031 0.0
H394 H 0.65331 0.57043 0.92155 0.0
H395 H 0.62449 0.56186 0.00902 0.0
H396 H 0.65872 0.57648 0.05337 0.0
H397 H 0.64353 0.4376 0.93406 0.0
H398 H 0.61204 0.45634 0.9314 0.0
H399 H 0.63777 0.45939 0.83029 0.0
H400 H 0.54614 0.50901 0.85605 0.0
H401 H 0.61207 0.52652 0.6319 0.0
H402 H 0.59179 0.52082 0.06721 0.0
H403 H 0.58487 0.48447 0.03582 0.0
H404 H 0.55669 0.50727 0.02788 0.0
H405 H 0.66972 0.54052 0.78824 0.0
H406 H 0.6605 0.52786 0.66425 0.0
H407 H 0.66785 0.50383 0.75938 0.0
C408 C 0.03699 0.68234 0.02019 0.0
C409 C 0.01363 0.69579 0.0585 0.0
C410 C 0.03314 0.65622 0.97019 0.0
C411 C 1.00522 0.64282 0.96075 0.0
C412 C 0.9819 0.65493 0.00937 0.0
C413 C 0.98633 0.68151 0.05663 0.0
C414 C 0.05868 0.64428 0.91964 0.0
C415 C 0.95199 0.64079 0.00516 0.0
C416 C 0.99264 0.60382 0.71279 0.0
C417 C 0.99708 0.57627 0.73593 0.0
C418 C 0.99449 0.62536 0.78602 0.0
C419 C 1.00011 0.6192 0.88619 0.0
C420 C 1.00291 0.59109 0.91148 0.0
C421 C 1.00176 0.56998 0.83567 0.0
C422 C 0.99181 0.65501 0.75478 0.0
C423 C 0.00811 0.58336 0.01757 0.0
H424 H 0.05815 0.6932 0.02378 0.0
H425 H 0.96824 0.69188 0.08646 0.0
H426 H 0.05931 0.62202 0.93849 0.0
H427 H 0.05691 0.64517 0.83719 0.0
H428 H 0.07914 0.65594 0.94133 0.0
H429 H 0.93747 0.64983 0.06195 0.0
H430 H 0.94336 0.64336 0.92999 0.0
H431 H 0.95202 0.61801 0.01731 0.0
H432 H 0.9889 0.60888 0.63606 0.0
H433 H 1.00504 0.54869 0.85419 0.0
H434 H 0.01194 0.66815 0.76993 0.0
H435 H 0.97446 0.66416 0.79906 0.0
H436 H 0.98724 0.65624 0.67405 0.0
H437 H 0.03108 0.58799 0.03354 0.0
H438 H 1.00237 0.56072 0.02959 0.0
H439 H 0.99571 0.59566 0.07209 0.0
C440 C 0.00957 0.20887 0.19419 0.0
C441 C 0.99279 0.21848 0.1203 0.0
C442 C 1.00382 0.18186 0.2309 0.0
C443 C 0.98146 0.16377 0.18927 0.0
C444 C 0.96367 0.17401 0.1174 0.0
C445 C 0.96973 0.2013 0.08348 0.0
C446 C 0.02187 0.17273 0.31347 0.0
C447 C 0.93801 0.15668 0.07653 0.0
C448 C 0.99367 0.08729 0.2186 0.0
C449 C 0.97224 0.07898 0.28894 0.0
C450 C 0.9966 0.11465 0.1836 0.0
C451 C 0.97735 0.13413 0.21954 0.0
C452 C 0.95497 0.12536 0.28811 0.0
C453 C 0.9524 0.09773 0.3203 0.0
C454 C 0.02168 0.1224 0.11354 0.0
C455 C 0.93435 0.14507 0.33246 0.0
H456 H 0.02734 0.22251 0.2223 0.0
H457 H 0.95664 0.20925 0.02728 0.0
H458 H 0.00869 0.1598 0.36812 0.0
H459 H 0.03848 0.15993 0.28079 0.0
H460 H 0.03282 0.19093 0.35423 0.0
H461 H 0.93354 0.16289 -0.00045 0.0
H462 H 0.94057 0.13394 0.07573 0.0
H463 H 0.91898 0.16056 0.12417 0.0
H464 H 0.00927 0.07292 0.19509 0.0
H465 H 0.93584 0.09136 0.3753 0.0
H466 H 0.04182 0.1207 0.15333 0.0
H467 H 0.0221 0.14379 0.08453 0.0
H468 H 0.02168 0.10719 0.04939 0.0
H469 H 0.94272 0.16738 0.32931 0.0
H470 H 0.92897 0.14016 0.41189 0.0
H471 H 0.91415 0.14214 0.29111 0.0
C472 C 0.31422 0.02361 0.10467 0.0
C473 C 0.29208 1.00219 0.10382 0.0
C474 C 0.34108 0.0189 0.14035 0.0
C475 C 0.34589 0.99187 0.17212 0.0
C476 C 0.3236 0.97005 0.16898 0.0
C477 C 0.29671 0.97565 0.13659 0.0
C478 C 0.36397 0.04294 0.14746 0.0
C479 C 0.32815 0.94086 0.20032 0.0
C480 C 0.42145 0.97252 0.212 0.0
C481 C 0.42249 0.97484 0.31615 0.0
C482 C 0.39684 0.97867 0.16279 0.0
C483 C 0.373 0.98715 0.21988 0.0
C484 C 0.37466 0.99059 0.32486 0.0
C485 C 0.39942 0.98447 0.37124 0.0
C486 C 0.39648 0.97555 0.05046 0.0
C487 C 0.35031 1.00063 0.38876 0.0
H488 H 0.31031 0.04399 0.07804 0.0
H489 H 0.27942 0.95917 0.13356 0.0
H490 H 0.38421 0.03697 0.1117 0.0
H491 H 0.35769 0.06203 0.11191 0.0
H492 H 0.3683 0.04807 0.22734 0.0
H493 H 0.30933 0.92578 0.18562 0.0
H494 H 0.34708 0.93344 0.15958 0.0
H495 H 0.33247 0.94103 0.28149 0.0
H496 H 0.43978 0.96599 0.16929 0.0
H497 H 0.40122 0.98834 0.45081 0.0
H498 H 0.38332 0.99076 0.01718 0.0
H499 H 0.38741 0.95407 0.03054 0.0
H500 H 0.4184 0.97838 0.01676 0.0
H501 H 0.34129 0.01854 0.35444 0.0
H502 H 0.35706 0.00719 0.46544 0.0
H503 H 0.33296 0.98347 0.39502 0.0
C504 C 0.56479 0.31313 0.08797 0.0
C505 C 0.53632 0.30251 0.10203 0.0
C506 C 0.57348 0.34098 0.11541 0.0
C507 C 0.55328 0.35796 0.16028 0.0
C508 C 0.52443 0.34709 0.17388 0.0
C509 C 0.51631 0.31949 0.14381 0.0
C510 C 0.60397 0.35239 0.09512 0.0
C511 C 0.50213 0.36457 0.22071 0.0
C512 C 0.56957 0.41596 0.34914 0.0
C513 C 0.56092 0.43876 0.29847 0.0
C514 C 0.56971 0.38965 0.30177 0.0
C515 C 0.56206 0.38644 0.20029 0.0
C516 C 0.5572 0.41029 0.14519 0.0
C517 C 0.556 0.43623 0.19583 0.0
C518 C 0.5748 0.36482 0.36373 0.0
C519 C 0.55227 0.40834 0.03408 0.0
H520 H 0.57989 0.29981 0.05322 0.0
H521 H 0.49426 0.31098 0.15249 0.0
H522 H 0.60432 0.37018 0.04377 0.0
H523 H 0.61389 0.36053 0.16557 0.0
H524 H 0.61711 0.33634 0.0608 0.0
H525 H 0.48061 0.35298 0.22467 0.0
H526 H 0.50828 0.37144 0.29767 0.0
H527 H 0.50081 0.38363 0.17665 0.0
H528 H 0.57356 0.41796 0.42862 0.0
H529 H 0.55004 0.45415 0.15634 0.0
H530 H 0.58458 0.37129 0.43636 0.0
H531 H 0.58888 0.35083 0.32252 0.0
H532 H 0.55409 0.35253 0.37946 0.0
H533 H 0.57327 0.4084 0.99388 0.0
H534 H 0.54143 0.42636 0.00823 0.0
H535 H 0.53961 0.38866 0.01236 0.0
C536 C 0.21459 0.56153 0.10989 0.0
C537 C 0.22015 0.53341 0.10943 0.0
C538 C 0.18757 0.56951 0.13982 0.0
C539 C 0.1663 0.5489 0.17316 0.0
C540 C 0.17205 0.52041 0.17263 0.0
C541 C 0.19892 0.51301 0.13957 0.0
C542 C 0.1816 0.59976 0.13442 0.0
C543 C 0.14997 0.49781 0.20827 0.0
C544 C 0.10904 0.56357 0.36466 0.0
C545 C 0.08439 0.55803 0.30855 0.0
C546 C 0.13615 0.56247 0.31986 0.0
C547 C 0.1386 0.55682 0.21571 0.0
C548 C 0.11384 0.55437 0.15688 0.0
C549 C 0.08681 0.55436 0.20463 0.0
C550 C 0.1619 0.56477 0.38561 0.0
C551 C 0.11564 0.55115 0.04429 0.0
H552 H 0.23118 0.57699 0.08401 0.0
H553 H 0.20355 0.49128 0.13732 0.0
H554 H 0.16336 0.60149 0.08479 0.0
H555 H 0.17535 0.6079 0.20964 0.0
H556 H 0.20036 0.61314 0.10538 0.0
H557 H 0.14473 0.5015 0.28881 0.0
H558 H 0.12997 0.49845 0.16674 0.0
H559 H 0.15744 0.47657 0.19838 0.0
H560 H 0.10714 0.56632 0.44532 0.0
H561 H 0.06764 0.55061 0.16135 0.0
H562 H 0.15653 0.57116 0.46396 0.0
H563 H 0.17876 0.58012 0.35528 0.0
H564 H 0.171 0.54423 0.38659 0.0
H565 H 0.09568 0.54044 0.01402 0.0
H566 H 0.13394 0.53959 0.01833 0.0
H567 H 0.11876 0.57227 0.01194 0.0
C568 C 0.0163 0.80625 0.94557 0.0
C569 C 0.0323 0.79822 0.02444 0.0
C570 C 0.01991 0.83363 0.91109 0.0
C571 C 0.03867 0.85382 0.9614 0.0
C572 C 0.05669 0.84501 0.03559 0.0
C573 C 0.05315 0.81721 0.06615 0.0
C574 C 1.00282 0.84083 0.823 0.0
C575 C 0.07975 0.86434 0.08372 0.0
C576 C 0.05626 0.92758 0.86706 0.0
C577 C 0.03086 0.93967 0.89141 0.0
C578 C 0.05933 0.89964 0.88923 0.0
C579 C 0.03707 0.88405 0.94284 0.0
C580 C 0.01213 0.89715 0.97367 0.0
C581 C 0.00925 0.92463 0.94611 0.0
C582 C 0.0858 0.88695 0.84938 0.0
C583 C 0.98729 0.88232 0.03083 0.0
H584 H 1.00045 0.79123 0.9126 0.0
H585 H 0.06612 0.8104 0.12491 0.0
H586 H 0.98115 0.84548 0.84961 0.0
H587 H 0.01302 0.85919 0.78275 0.0
H588 H 1.00016 0.8228 0.7691 0.0
H589 H 0.08256 0.85868 0.16261 0.0
H590 H 0.10033 0.86178 0.04319 0.0
H591 H 0.07558 0.88667 0.08188 0.0
H592 H 0.07278 0.93909 0.82258 0.0
H593 H 0.98943 0.93394 0.96349 0.0
H594 H 0.08319 0.86378 0.84439 0.0
H595 H 0.1038 0.89359 0.89902 0.0
H596 H 0.09196 0.89485 0.77374 0.0
H597 H 0.99206 0.86217 0.06186 0.0
H598 H 0.96888 0.87841 0.98074 0.0
H599 H 0.98029 0.8961 0.09326 0.0
C600 C 0.70041 0.02164 0.9833 0.0
C601 C 0.71361 0.03664 0.0627 0.0
C602 C 0.67348 0.02759 0.95271 0.0
C603 C 0.65986 0.0496 0.00146 0.0
C604 C 0.67331 0.06501 0.08151 0.0
C605 C 0.70007 0.05808 0.11206 0.0
C606 C 0.65937 0.0099 0.86971 0.0
C607 C 0.65942 0.08861 0.13463 0.0
C608 C 0.60402 0.07154 0.83197 0.0
C609 C 0.57991 0.05498 0.8664 0.0
C610 C 0.62979 0.07248 0.88247 0.0
C611 C 0.63143 0.05593 0.9677 0.0
C612 C 0.60628 0.04153 0.00843 0.0
C613 C 0.58067 0.04146 0.95747 0.0
C614 C 0.65583 0.08902 0.83903 0.0
C615 C 0.60636 0.02376 0.09963 0.0
H616 H 0.71094 0.00466 0.94753 0.0
H617 H 0.71043 0.06922 0.17458 0.0
H618 H 0.63837 1.00013 0.8969 0.0
H619 H 0.6554 0.02319 0.80595 0.0
H620 H 0.67256 0.99307 0.8419 0.0
H621 H 0.67115 0.09646 0.20216 0.0
H622 H 0.6587 0.10614 0.0827 0.0
H623 H 0.63705 0.08174 0.15716 0.0
H624 H 0.60328 0.08238 0.76215 0.0
H625 H 0.56192 0.02883 0.98478 0.0
H626 H 0.66962 0.07456 0.79865 0.0
H627 H 0.66857 0.09994 0.89928 0.0
H628 H 0.65001 0.1047 0.78547 0.0
H629 H 0.60271 1.0014 0.07606 0.0
H630 H 0.58842 0.02837 0.15165 0.0
H631 H 0.62653 0.02681 0.14077 0.0
C632 C 0.49752 0.69151 0.00522 0.0
C633 C 0.47718 0.70833 0.04579 0.0
C634 C 0.48968 0.66394 0.97404 0.0
C635 C 0.4608 0.65294 0.98531 0.0
C636 C 0.44026 0.66977 0.02882 0.0
C637 C 0.44869 0.69758 0.05745 0.0
C638 C 0.51231 0.64662 0.92855 0.0
C639 C 0.40969 0.65824 0.04635 0.0
C640 C 0.44514 0.59496 0.79551 0.0
C641 C 0.45314 0.57202 0.847 0.0
C642 C 0.4452 0.62133 0.84251 0.0
C643 C 0.45236 0.62448 0.94447 0.0
C644 C 0.45677 0.60059 6e-05 0.0
C645 C 0.45778 0.57458 0.94981 0.0
C646 C 0.44072 0.64622 0.77997 0.0
C647 C 0.46135 0.60254 0.11138 0.0
H648 H 0.51958 0.70011 0.99839 0.0
H649 H 0.43332 0.71078 0.09128 0.0
H650 H 0.51334 0.62742 0.97211 0.0
H651 H 0.50671 0.63997 0.85086 0.0
H652 H 0.53382 0.65825 0.92674 0.0
H653 H 0.3963 0.67415 0.08031 0.0
H654 H 0.40025 0.65036 0.97478 0.0
H655 H 0.40902 0.64025 0.09691 0.0
H656 H 0.44145 0.59295 0.71582 0.0
H657 H 0.46333 0.55658 0.98981 0.0
H658 H 0.42644 0.66026 0.8199 0.0
H659 H 0.43146 0.63984 0.70643 0.0
H660 H 0.46158 0.65843 0.76611 0.0
H661 H 0.47185 0.58439 0.13789 0.0
H662 H 0.44026 0.60277 0.1508 0.0
H663 H 0.4742 0.62209 0.13335 0.0
C664 C 0.81364 0.49917 0.01031 0.0
C665 C 0.79282 0.47847 0.04124 0.0
C666 C 0.84064 0.49222 0.97695 0.0
C667 C 0.84694 0.46389 0.97678 0.0
C668 C 0.82607 0.44297 0.01076 0.0
C669 C 0.79891 0.45051 0.04113 0.0
C670 C 0.86227 0.51513 0.94069 0.0
C671 C 0.83262 0.41289 0.01637 0.0
C672 C 0.90442 0.45037 0.7848 0.0
C673 C 0.92903 0.45655 0.8406 0.0
C674 C 0.87728 0.45081 0.82991 0.0
C675 C 0.87479 0.45645 0.93406 0.0
C676 C 0.89961 0.45952 0.9926 0.0
C677 C 0.92664 0.46017 0.94454 0.0
C678 C 0.85146 0.44789 0.76443 0.0
C679 C 0.89781 0.46274 0.10518 0.0
H680 H 0.8086 0.52077 0.01228 0.0
H681 H 0.78263 0.43482 0.06758 0.0
H682 H 0.86758 0.51138 0.86023 0.0
H683 H 0.85436 0.5362 0.95003 0.0
H684 H 0.88233 0.51499 0.98226 0.0
H685 H 0.81408 0.39922 0.04542 0.0
H686 H 0.83906 0.40484 0.94125 0.0
H687 H 0.8509 0.41153 0.06613 0.0
H688 H 0.90629 0.44763 0.70413 0.0
H689 H 0.9458 0.46439 0.9876 0.0
H690 H 0.83478 0.43251 0.79571 0.0
H691 H 0.85686 0.4412 0.68642 0.0
H692 H 0.84213 0.46829 0.76224 0.0
H693 H 0.89467 0.44163 0.13757 0.0
H694 H 0.87949 0.4743 0.13101 0.0
H695 H 0.91776 0.47347 0.13552 0.0
C696 C 0.99719 0.2196 0.83893 0.0
C697 C 0.01604 0.22778 0.91554 0.0
C698 C 0.99904 0.19405 0.78554 0.0
C699 C 0.02016 0.17622 0.81014 0.0
C700 C 0.04023 0.1853 0.88392 0.0
C701 C 0.03786 0.21092 0.93572 0.0
C702 C 0.97711 0.18537 0.70799 0.0
C703 C 0.06333 0.16727 0.91188 0.0
C704 C 1.00337 0.0972 0.78777 0.0
C705 C 0.01922 0.09028 0.70203 0.0
C706 C 1.00258 0.12514 0.82068 0.0
C707 C 0.0191 0.14674 0.76947 0.0
C708 C 0.0352 0.13981 0.68239 0.0
C709 C 0.03467 0.11167 0.64868 0.0
C710 C 0.98252 0.13141 0.90651 0.0
C711 C 0.05241 0.16214 0.62371 0.0
H712 H 0.97994 0.23241 0.8252 0.0
H713 H 0.05211 0.21721 0.99613 0.0
H714 H 0.98691 0.17478 0.64243 0.0
H715 H 0.96042 0.17034 0.74118 0.0
H716 H 0.96659 0.20355 0.68183 0.0
H717 H 0.07603 0.17647 0.9754 0.0
H718 H 0.05386 0.14615 0.93239 0.0
H719 H 0.07797 0.16454 0.84643 0.0
H720 H 0.9904 0.08082 0.82652 0.0
H721 H 0.04638 0.10635 0.58073 0.0
H722 H 0.96221 0.13697 0.87561 0.0
H723 H 0.99126 0.14933 0.95332 0.0
H724 H 0.97745 0.11299 0.95435 0.0
H725 H 0.03816 0.17755 0.59793 0.0
H726 H 0.06367 0.15336 0.55741 0.0
H727 H 0.06842 0.17366 0.67236 0.0
C728 C 0.29977 0.98189 0.8906 0.0
C729 C 0.28328 0.00465 0.88698 0.0
C730 C 0.32755 0.983 0.84872 0.0
C731 C 0.3382 0.0064 0.79145 0.0
C732 C 0.31928 0.02719 0.77293 0.0
C733 C 0.29254 0.02666 0.82424 0.0
C734 C 0.34517 0.95939 0.87241 0.0
C735 C 0.32728 0.0508 0.70258 0.0
C736 C 0.41655 0.03647 0.77474 0.0
C737 C 0.4287 0.01825 0.70544 0.0
C738 C 0.38755 0.0324 0.80493 0.0
C739 C 0.36935 0.01057 0.75982 0.0
C740 C 0.3815 0.99247 0.68748 0.0
C741 C 0.41107 0.996 0.66422 0.0
C742 C 0.37708 0.05151 0.88701 0.0
C743 C 0.3638 0.96863 0.63659 0.0
H744 H 0.29189 0.96418 0.93508 0.0
H745 H 0.27958 0.0441 0.81906 0.0
H746 H 0.33803 0.94072 0.82581 0.0
H747 H 0.3684 0.96442 0.85961 0.0
H748 H 0.3413 0.95335 0.95158 0.0
H749 H 0.30889 0.05395 0.65516 0.0
H750 H 0.332 0.07052 0.74655 0.0
H751 H 0.34592 0.047 0.65284 0.0
H752 H 0.42999 0.0535 0.80856 0.0
H753 H 0.42034 0.98125 0.61336 0.0
H754 H 0.35818 0.04188 0.92885 0.0
H755 H 0.37141 0.0711 0.8538 0.0
H756 H 0.39421 0.05748 0.94103 0.0
H757 H 0.36588 0.9491 0.67685 0.0
H758 H 0.37174 0.9647 0.55924 0.0
H759 H 0.34089 0.97236 0.63415 0.0
C760 C 0.47678 0.29692 0.89973 0.0
C761 C 0.50472 0.29052 0.91678 0.0
C762 C 0.47164 0.32113 0.84787 0.0
C763 C 0.49495 0.34009 0.81678 0.0
C764 C 0.52318 0.3332 0.83201 0.0
C765 C 0.52757 0.30806 0.87789 0.0
C766 C 0.44123 0.32697 0.83065 0.0
C767 C 0.54893 0.35289 0.8045 0.0
C768 C 0.49392 0.3989 0.63125 0.0
C769 C 0.49053 0.42228 0.69473 0.0
C770 C 0.49343 0.37179 0.66921 0.0
C771 C 0.49028 0.36783 0.7738 0.0
C772 C 0.4855 0.39119 0.83783 0.0
C773 C 0.48548 0.41799 0.79743 0.0
C774 C 0.4968 0.34747 0.59702 0.0
C775 C 0.48043 0.38832 0.94936 0.0
H776 H 0.459 0.28369 0.93061 0.0
H777 H 0.54916 0.30284 0.88924 0.0
H778 H 0.43443 0.34213 0.88873 0.0
H779 H 0.43926 0.33626 0.75633 0.0
H780 H 0.42643 0.30765 0.83541 0.0
H781 H 0.55311 0.35159 0.72254 0.0
H782 H 0.54527 0.37487 0.8248 0.0
H783 H 0.56842 0.34761 0.84226 0.0
H784 H 0.49738 0.40176 0.55153 0.0
H785 H 0.48239 0.43574 0.84724 0.0
H786 H 0.4923 0.35278 0.51902 0.0
H787 H 0.48231 0.32898 0.61892 0.0
H788 H 0.51902 0.34151 0.59812 0.0
H789 H 0.45713 0.38459 0.96509 0.0
H790 H 0.48803 0.40784 0.99065 0.0
H791 H 0.49087 0.37066 0.9796 0.0
C792 C 0.21394 0.53054 0.88226 0.0
C793 C 0.22819 0.50763 0.90976 0.0
C794 C 0.18724 0.52697 0.83695 0.0
C795 C 0.17519 0.49967 0.81106 0.0
C796 C 0.19087 0.47648 0.83015 0.0
C797 C 0.21687 0.48068 0.88131 0.0
C798 C 0.17166 0.55262 0.82106 0.0
C799 C 0.17966 0.4471 0.8007 0.0
C800 C 0.09368 0.48984 0.79478 0.0
C801 C 0.08953 0.4966 0.69506 0.0
C802 C 0.12135 0.48945 0.83256 0.0
C803 C 0.14573 0.49571 0.76891 0.0
C804 C 0.14159 0.50091 0.66671 0.0
C805 C 0.11372 0.50163 0.63154 0.0
C806 C 0.12405 0.48215 0.94081 0.0
C807 C 0.16657 0.50619 0.59408 0.0
H808 H 0.22294 0.55141 0.90271 0.0
H809 H 0.22764 0.46286 0.9031 0.0
H810 H 0.17923 0.57025 0.87203 0.0
H811 H 0.17566 0.5595 0.74305 0.0
H812 H 0.14825 0.54835 0.8332 0.0
H813 H 0.19699 0.43278 0.79657 0.0
H814 H 0.16353 0.43912 0.85752 0.0
H815 H 0.16921 0.44656 0.72721 0.0
H816 H 0.07527 0.48541 0.84438 0.0
H817 H 0.111 0.50647 0.55388 0.0
H818 H 0.14402 0.49188 0.97378 0.0
H819 H 0.12406 0.45913 0.94567 0.0
H820 H 0.10557 0.48847 0.98708 0.0
H821 H 0.18398 0.49295 0.61019 0.0
H822 H 0.17518 0.52839 0.60098 0.0
H823 H 0.16013 0.50204 0.51536 0.0
C824 C 0.02675 0.80007 0.29864 0.0
C825 C 0.00724 0.78945 0.22708 0.0
C826 C 0.02319 0.82548 0.35088 0.0
C827 C 0.99948 0.8406 0.33109 0.0
C828 C 0.97897 0.82909 0.2621 0.0
C829 C 0.98321 0.80374 0.21065 0.0
C830 C 0.04578 0.83696 0.42249 0.0
C831 C 0.95294 0.84391 0.24021 0.0
C832 C 0.98091 0.90205 0.50211 0.0
C833 C 0.99352 0.92501 0.44916 0.0
C834 C 0.98247 0.87445 0.46464 0.0
C835 C 0.9977 0.86969 0.37355 0.0
C836 C 0.01112 0.89299 0.322 0.0
C837 C 0.00834 0.92025 0.35918 0.0
C838 C 0.96855 0.85039 0.52386 0.0
C839 C 0.03039 0.88964 0.23165 0.0
H840 H 0.04562 0.78921 0.30937 0.0
H841 H 0.96842 0.79557 0.15413 0.0
H842 H 0.03588 0.84518 0.49236 0.0
H843 H 0.06014 0.82088 0.44201 0.0
H844 H 0.05894 0.85458 0.38737 0.0
H845 H 0.94182 0.83485 0.17304 0.0
H846 H 0.93777 0.84213 0.30532 0.0
H847 H 0.95873 0.86651 0.22878 0.0
H848 H 0.96986 0.90568 0.573 0.0
H849 H 0.01914 0.93787 0.32017 0.0
H850 H 0.98488 0.83636 0.54412 0.0
H851 H 0.95268 0.83784 0.47752 0.0
H852 H 0.95765 0.85755 0.59359 0.0
H853 H 0.05265 0.89026 0.25732 0.0
H854 H 0.02953 0.90722 0.17997 0.0
H855 H 0.0253 0.86962 0.19049 0.0
C856 C 0.71469 0.01436 0.34008 0.0
C857 C 0.71768 1.00344 0.24251 0.0
C858 C 0.68844 0.01038 0.39407 0.0
C859 C 0.66423 0.99635 0.34735 0.0
C860 C 0.66774 0.98425 0.25002 0.0
C861 C 0.69456 0.98731 0.20054 0.0
C862 C 0.68649 0.02226 0.49945 0.0
C863 C 0.64334 0.96874 0.19479 0.0
C864 C 0.59293 0.9695 0.46968 0.0
C865 C 0.57712 0.99282 0.4657 0.0
C866 C 0.62188 0.97096 0.43828 0.0
C867 C 0.63502 0.99591 0.39646 0.0
C868 C 0.61916 0.01976 0.3945 0.0
C869 C 0.59068 0.01805 0.43129 0.0
C870 C 0.63807 0.94547 0.44813 0.0
C871 C 0.63157 0.04722 0.35242 0.0
H872 H 0.73252 0.02698 0.37247 0.0
H873 H 0.69707 0.97851 0.12558 0.0
H874 H 0.67865 0.04334 0.49783 0.0
H875 H 0.67143 0.00889 0.547 0.0
H876 H 0.70773 0.02447 0.5345 0.0
H877 H 0.64544 0.9727 0.11327 0.0
H878 H 0.64423 0.94594 0.20376 0.0
H879 H 0.62208 0.97446 0.22204 0.0
H880 H 0.58262 0.95003 0.49755 0.0
H881 H 0.5786 0.03622 0.42856 0.0
H882 H 0.66084 0.95139 0.46467 0.0
H883 H 0.63718 0.9331 0.37682 0.0
H884 H 0.62851 0.93179 0.50822 0.0
H885 H 0.63907 0.0614 0.41503 0.0
H886 H 0.61496 0.05763 0.31384 0.0
H887 H 0.64977 0.0449 0.29912 0.0
C888 C 0.53586 0.71388 0.2512 0.0
C889 C 0.50789 0.71999 0.23314 0.0
C890 C 0.5411 0.68956 0.30226 0.0
C891 C 0.51788 0.67027 0.33171 0.0
C892 C 0.48962 0.67688 0.31546 0.0
C893 C 0.48509 0.70207 0.27017 0.0
C894 C 0.57152 0.68396 0.32048 0.0
C895 C 0.46397 0.65687 0.34145 0.0
C896 C 0.52805 0.59248 0.35014 0.0
C897 C 0.52283 0.58803 0.45266 0.0
C898 C 0.52787 0.61932 0.31011 0.0
C899 C 0.52273 0.64254 0.37435 0.0
C900 C 0.51937 0.63843 0.47879 0.0
C901 C 0.51909 0.6113 0.51636 0.0
C902 C 0.53316 0.62236 0.19876 0.0
C903 C 0.51552 0.6626 0.55119 0.0
H904 H 0.55361 0.72742 0.22169 0.0
H905 H 0.46347 0.70706 0.25792 0.0
H906 H 0.57338 0.67497 0.39538 0.0
H907 H 0.57847 0.66859 0.26343 0.0
H908 H 0.58626 0.70331 0.31512 0.0
H909 H 0.44457 0.66197 0.30278 0.0
H910 H 0.46798 0.63497 0.32108 0.0
H911 H 0.45945 0.65802 0.42324 0.0
H912 H 0.5314 0.57482 0.30018 0.0
H913 H 0.51547 0.60832 0.59596 0.0
H914 H 0.55649 0.62605 0.18361 0.0
H915 H 0.52282 0.64009 0.16856 0.0
H916 H 0.52559 0.6029 0.15699 0.0
H917 H 0.5196 0.65719 0.62944 0.0
H918 H 0.4933 0.6685 0.54865 0.0
H919 H 0.53007 0.68117 0.5305 0.0
C920 C 0.79576 0.53191 0.26764 0.0
C921 C 0.78482 0.50476 0.24005 0.0
C922 C 0.82179 0.53662 0.31847 0.0
C923 C 0.83787 0.51376 0.33808 0.0
C924 C 0.82623 0.48626 0.31293 0.0
C925 C 0.7995 0.48218 0.26799 0.0
C926 C 0.83257 0.56619 0.34703 0.0
C927 C 0.84227 0.46094 0.32926 0.0
C928 C 0.91935 0.52482 0.35449 0.0
C929 C 0.92359 0.51835 0.45442 0.0
C930 C 0.89164 0.52474 0.31655 0.0
C931 C 0.86731 0.51825 0.38024 0.0
C932 C 0.87152 0.51335 0.48263 0.0
C933 C 0.89943 0.51313 0.51796 0.0
C934 C 0.88885 0.53176 0.20807 0.0
C935 C 0.84658 0.50784 0.55524 0.0
H936 H 0.78467 0.54948 0.24547 0.0
H937 H 0.7908 0.46116 0.24824 0.0
H938 H 0.84291 0.56706 0.42079 0.0
H939 H 0.84872 0.57419 0.2903 0.0
H940 H 0.81505 0.58028 0.35023 0.0
H941 H 0.83498 0.44315 0.27855 0.0
H942 H 0.86564 0.46556 0.31708 0.0
H943 H 0.83838 0.4541 0.40738 0.0
H944 H 0.93773 0.52938 0.30484 0.0
H945 H 0.90221 0.50848 0.59577 0.0
H946 H 0.86892 0.52184 0.17537 0.0
H947 H 0.90736 0.52544 0.16198 0.0
H948 H 0.88871 0.55475 0.20254 0.0
H949 H 0.85298 0.51195 0.63402 0.0
H950 H 0.83808 0.48561 0.548 0.0
H951 H 0.82908 0.521 0.53927 0.0
loop_
_geom_bond_atom_site_label_1
_geom_bond_atom_site_label_2
_geom_bond_distance
_geom_bond_site_symmetry_2
_ccdc_geom_bond_type
C0 N1 1.317 . S
C0 N2 1.348 . S
C0 C3 1.485 . S
N1 C0 1.317 . S
N1 N5 1.370 . S
N2 C0 1.348 . S
N2 C4 1.346 . S
C3 C0 1.485 . S
C3 H7 0.960 . S
C3 H8 0.961 . S
C3 H9 0.960 . S
C4 N2 1.346 . S
C4 N5 1.307 . S
C4 C6 1.486 1_554 S
N5 N1 1.370 . S
N5 C4 1.307 . S
C6 C4 1.486 1_556 S
C6 H10 0.960 . S
C6 H11 0.960 . S
C6 H12 0.959 . S
H7 C3 0.960 . S
H8 C3 0.961 . S
H9 C3 0.960 . S
H10 C6 0.960 . S
H11 C6 0.960 . S
H12 C6 0.959 . S
C13 N14 1.317 . S
C13 N15 1.351 . S
C13 C16 1.485 . S
N14 C13 1.317 . S
N14 N18 1.370 . S
N15 C13 1.351 . S
N15 C17 1.349 1_654 S
C16 C13 1.485 . S
C16 H20 0.960 1_655 S
C16 H21 0.961 . S
C16 H22 0.960 . S
C17 N15 1.349 1_456 S
C17 N18 1.306 1_456 S
C17 C19 1.486 . S
N18 N14 1.370 . S
N18 C17 1.306 1_654 S
C19 C17 1.486 . S
C19 H23 0.960 1_455 S
C19 H24 0.960 . S
C19 H25 0.959 . S
H20 C16 0.960 1_455 S
H21 C16 0.961 . S
H22 C16 0.960 . S
H23 C19 0.960 1_655 S
H24 C19 0.960 . S
H25 C19 0.959 . S
C26 N27 1.317 . S
C26 N28 1.348 . S
C26 C29 1.485 . S
N27 C26 1.317 . S
N27 N31 1.370 . S
N28 C26 1.348 . S
N28 C30 1.346 1_554 S
C29 C26 1.485 . S
C29 H33 0.960 . S
C29 H34 0.961 . S
C29 H35 0.960 . S
C30 N28 1.346 1_556 S
C30 N31 1.307 1_556 S
C30 C32 1.486 . S
N31 N27 1.370 . S
N31 C30 1.307 1_554 S
C32 C30 1.486 . S
C32 H36 0.960 . S
C32 H37 0.960 . S
C32 H38 0.959 . S
H33 C29 0.960 . S
H34 C29 0.961 . S
H35 C29 0.960 . S
H36 C32 0.960 . S
H37 C32 0.960 . S
H38 C32 0.959 . S
C39 N40 1.317 . S
C39 N41 1.348 . S
C39 C42 1.485 . S
N40 C39 1.317 . S
N40 N44 1.370 . S
N41 C39 1.348 . S
N41 C43 1.346 . S
C42 C39 1.485 . S
C42 H46 0.960 . S
C42 H47 0.961 . S
C42 H48 0.960 . S
C43 N41 1.346 . S
C43 N44 1.307 . S
C43 C45 1.486 1_554 S
N44 N40 1.370 . S
N44 C43 1.307 . S
C45 C43 1.486 1_556 S
C45 H49 0.960 . S
C45 H50 0.960 . S
C45 H51 0.959 . S
H46 C42 0.960 . S
H47 C42 0.961 . S
H48 C42 0.960 . S
H49 C45 0.960 . S
H50 C45 0.960 . S
H51 C45 0.959 . S
C52 N53 1.317 . S
C52 N54 1.348 1_556 S
C52 C55 1.485 . S
N53 C52 1.317 . S
N53 N57 1.370 1_556 S
N54 C52 1.348 1_554 S
N54 C56 1.346 . S
C55 C52 1.485 . S
C55 H59 0.960 . S
C55 H60 0.961 . S
C55 H61 0.960 . S
C56 N54 1.346 . S
C56 N57 1.307 . S
C56 C58 1.486 . S
N57 N53 1.370 1_554 S
N57 C56 1.307 . S
C58 C56 1.486 . S
C58 H62 0.960 . S
C58 H63 0.960 . S
C58 H64 0.959 . S
H59 C55 0.960 . S
H60 C55 0.961 . S
H61 C55 0.960 . S
H62 C58 0.960 . S
H63 C58 0.960 . S
H64 C58 0.959 . S
C65 N66 1.317 . S
C65 N67 1.349 . S
C65 C68 1.485 1_554 S
N66 C65 1.317 . S
N66 N70 1.371 . S
N67 C65 1.349 . S
N67 C69 1.342 1_655 S
C68 C65 1.485 1_556 S
C68 H72 0.960 1_655 S
C68 H73 0.961 . S
C68 H74 0.960 . S
C69 N67 1.342 1_455 S
C69 N70 1.308 1_455 S
C69 C71 1.487 . S
N70 N66 1.371 . S
N70 C69 1.308 1_655 S
C71 C69 1.487 . S
C71 H75 0.960 1_455 S
C71 H76 0.960 . S
C71 H77 0.959 . S
H72 C68 0.960 1_455 S
H73 C68 0.961 . S
H74 C68 0.960 . S
H75 C71 0.960 1_655 S
H76 C71 0.960 . S
H77 C71 0.959 . S
C78 N79 1.317 . S
C78 N80 1.348 . S
C78 C81 1.485 1_554 S
N79 C78 1.317 . S
N79 N83 1.370 . S
N80 C78 1.348 . S
N80 C82 1.346 . S
C81 C78 1.485 1_556 S
C81 H85 0.960 . S
C81 H86 0.961 . S
C81 H87 0.960 . S
C82 N80 1.346 . S
C82 N83 1.307 . S
C82 C84 1.486 . S
N83 N79 1.370 . S
N83 C82 1.307 . S
C84 C82 1.486 . S
C84 H88 0.960 . S
C84 H89 0.960 . S
C84 H90 0.959 . S
H85 C81 0.960 . S
H86 C81 0.961 . S
H87 C81 0.960 . S
H88 C84 0.960 . S
H89 C84 0.960 . S
H90 C84 0.959 . S
C91 N92 1.317 . S
C91 N93 1.348 1_556 S
C91 C94 1.485 . S
N92 C91 1.317 . S
N92 N96 1.370 1_556 S
N93 C91 1.348 1_554 S
N93 C95 1.346 . S
C94 C91 1.485 . S
C94 H98 0.960 . S
C94 H99 0.961 . S
C94 H100 0.960 . S
C95 N93 1.346 . S
C95 N96 1.307 . S
C95 C97 1.486 . S
N96 N92 1.370 1_554 S
N96 C95 1.307 . S
C97 C95 1.486 . S
C97 H101 0.960 . S
C97 H102 0.960 . S
C97 H103 0.959 . S
H98 C94 0.960 . S
H99 C94 0.961 . S
H100 C94 0.960 . S
H101 C97 0.960 . S
H102 C97 0.960 . S
H103 C97 0.959 . S
Dy104 O108 2.398 . S
Dy104 O109 2.491 1_455 S
Dy104 O110 2.403 . S
Dy104 O111 2.664 1_565 S
Dy104 O115 2.326 . S
Dy104 O119 2.310 1_455 S
Dy104 O120 2.351 1_565 S
C105 O116 1.185 . S
C105 O117 1.355 1_655 S
C106 O108 1.185 . S
C106 O109 1.355 1_455 S
Dy107 O111 2.310 1_655 S
Dy107 O114 2.351 1_545 S
Dy107 O116 2.398 . S
Dy107 O117 2.491 1_655 S
Dy107 O118 2.403 . S
Dy107 O119 2.664 1_545 S
Dy107 O121 2.326 . S
O108 Dy104 2.398 . S
O108 C106 1.185 . S
O109 Dy104 2.491 1_655 S
O109 C106 1.355 1_655 S
O110 Dy104 2.403 . S
O110 C112 1.254 1_565 S
O111 Dy104 2.664 1_545 S
O111 Dy107 2.310 1_455 S
O111 C112 1.268 . S
C112 O110 1.254 1_545 S
C112 O111 1.268 . S
C113 O118 1.254 1_565 S
C113 O119 1.268 . S
O114 Dy107 2.351 1_565 S
O114 C122 1.249 . S
O115 Dy104 2.326 . S
O115 C122 1.267 1_455 S
O116 C105 1.185 . S
O116 Dy107 2.398 . S
O117 C105 1.355 1_455 S
O117 Dy107 2.491 1_455 S
O118 Dy107 2.403 . S
O118 C113 1.254 1_545 S
O119 Dy104 2.310 1_655 S
O119 Dy107 2.664 1_565 S
O119 C113 1.268 . S
O120 Dy104 2.351 1_545 S
O120 C123 1.249 . S
O121 Dy107 2.326 . S
O121 C123 1.267 1_655 S
C122 O114 1.249 . S
C122 O115 1.267 1_655 S
C123 O120 1.249 . S
C123 O121 1.267 1_455 S
Dy124 O128 2.398 . S
Dy124 O129 2.491 1_565 S
Dy124 O130 2.403 . S
Dy124 O131 2.664 . S
Dy124 O135 2.326 1_565 S
Dy124 O139 2.310 1_565 S
Dy124 O140 2.351 . S
C125 O136 1.185 . S
C125 O137 1.355 1_545 S
C126 O128 1.185 1_545 S
C126 O129 1.355 . S
Dy127 O131 2.310 1_545 S
Dy127 O134 2.351 . S
Dy127 O136 2.398 . S
Dy127 O137 2.491 1_545 S
Dy127 O138 2.403 . S
Dy127 O139 2.664 . S
Dy127 O141 2.326 1_545 S
O128 Dy124 2.398 . S
O128 C126 1.185 1_565 S
O129 Dy124 2.491 1_545 S
O129 C126 1.355 . S
O130 Dy124 2.403 . S
O130 C132 1.254 . S
O131 Dy124 2.664 . S
O131 Dy127 2.310 1_565 S
O131 C132 1.268 . S
C132 O130 1.254 . S
C132 O131 1.268 . S
C133 O138 1.254 . S
C133 O139 1.268 . S
O134 Dy127 2.351 . S
O134 C142 1.249 . S
O135 Dy124 2.326 1_545 S
O135 C142 1.267 . S
O136 C125 1.185 . S
O136 Dy127 2.398 . S
O137 C125 1.355 1_565 S
O137 Dy127 2.491 1_565 S
O138 Dy127 2.403 . S
O138 C133 1.254 . S
O139 Dy124 2.310 1_545 S
O139 Dy127 2.664 . S
O139 C133 1.268 . S
O140 Dy124 2.351 . S
O140 C143 1.249 . S
O141 Dy127 2.326 1_565 S
O141 C143 1.267 . S
C142 O134 1.249 . S
C142 O135 1.267 . S
C143 O140 1.249 . S
C143 O141 1.267 . S
Dy144 O148 2.398 . S
Dy144 O149 2.491 . S
Dy144 O150 2.403 . S
Dy144 O151 2.664 . S
Dy144 O155 2.326 . S
Dy144 O159 2.310 . S
Dy144 O160 2.351 . S
C145 O156 1.185 . S
C145 O157 1.355 . S
C146 O148 1.185 . S
C146 O149 1.355 . S
Dy147 O151 2.310 . S
Dy147 O154 2.351 . S
Dy147 O156 2.398 . S
Dy147 O157 2.491 . S
Dy147 O158 2.403 . S
Dy147 O159 2.664 . S
Dy147 O161 2.326 . S
O148 Dy144 2.398 . S
O148 C146 1.185 . S
O149 Dy144 2.491 . S
O149 C146 1.355 . S
O150 Dy144 2.403 . S
O150 C152 1.254 . S
O151 Dy144 2.664 . S
O151 Dy147 2.310 . S
O151 C152 1.268 . S
C152 O150 1.254 . S
C152 O151 1.268 . S
C153 O158 1.254 . S
C153 O159 1.268 . S
O154 Dy147 2.351 . S
O154 C162 1.249 . S
O155 Dy144 2.326 . S
O155 C162 1.267 . S
O156 C145 1.185 . S
O156 Dy147 2.398 . S
O157 C145 1.355 . S
O157 Dy147 2.491 . S
O158 Dy147 2.403 . S
O158 C153 1.254 . S
O159 Dy144 2.310 . S
O159 Dy147 2.664 . S
O159 C153 1.268 . S
O160 Dy144 2.351 . S
O160 C163 1.249 . S
O161 Dy147 2.326 . S
O161 C163 1.267 . S
C162 O154 1.249 . S
C162 O155 1.267 . S
C163 O160 1.249 . S
C163 O161 1.267 . S
Dy164 O168 2.398 . S
Dy164 O169 2.491 . S
Dy164 O170 2.403 . S
Dy164 O171 2.664 1_655 S
Dy164 O175 2.326 . S
Dy164 O179 2.310 . S
Dy164 O180 2.351 1_655 S
C165 O176 1.185 . S
C165 O177 1.355 . S
C166 O168 1.185 . S
C166 O169 1.355 . S
Dy167 O171 2.310 . S
Dy167 O174 2.351 1_455 S
Dy167 O176 2.398 . S
Dy167 O177 2.491 . S
Dy167 O178 2.403 . S
Dy167 O179 2.664 1_455 S
Dy167 O181 2.326 . S
O168 Dy164 2.398 . S
O168 C166 1.185 . S
O169 Dy164 2.491 . S
O169 C166 1.355 . S
O170 Dy164 2.403 . S
O170 C172 1.254 . S
O171 Dy164 2.664 1_455 S
O171 Dy167 2.310 . S
O171 C172 1.268 1_455 S
C172 O170 1.254 . S
C172 O171 1.268 1_655 S
C173 O178 1.254 . S
C173 O179 1.268 1_455 S
O174 Dy167 2.351 1_655 S
O174 C182 1.249 . S
O175 Dy164 2.326 . S
O175 C182 1.267 . S
O176 C165 1.185 . S
O176 Dy167 2.398 . S
O177 C165 1.355 . S
O177 Dy167 2.491 . S
O178 Dy167 2.403 . S
O178 C173 1.254 . S
O179 Dy164 2.310 . S
O179 Dy167 2.664 1_655 S
O179 C173 1.268 1_655 S
O180 Dy164 2.351 1_455 S
O180 C183 1.249 . S
O181 Dy167 2.326 . S
O181 C183 1.267 . S
C182 O174 1.249 . S
C182 O175 1.267 . S
C183 O180 1.249 . S
C183 O181 1.267 . S
C184 C185 1.391 . S
C184 C186 1.394 . S
C184 H200 0.931 . S
C185 C184 1.391 . S
C185 C189 1.376 . S
C186 C184 1.394 . S
C186 C187 1.369 . S
C186 C190 1.531 . S
C187 C186 1.369 . S
C187 C188 1.410 . S
C187 C195 1.503 . S
C188 C187 1.410 . S
C188 C189 1.392 . S
C188 C191 1.511 . S
C189 C185 1.376 . S
C189 C188 1.392 . S
C189 H201 0.929 . S
C190 C186 1.531 . S
C190 H202 0.960 . S
C190 H203 0.962 . S
C190 H204 0.960 . S
C191 C188 1.511 . S
C191 H205 0.961 . S
C191 H206 0.961 . S
C191 H207 0.961 . S
C192 C193 1.353 1_565 S
C192 C194 1.359 1_565 S
C192 H208 0.953 . S
C193 C192 1.353 1_545 S
C193 C197 1.408 . S
C194 C192 1.359 1_545 S
C194 C195 1.370 . S
C194 C198 1.524 1_545 S
C195 C187 1.503 . S
C195 C194 1.370 . S
C195 C196 1.403 . S
C196 C195 1.403 . S
C196 C197 1.404 . S
C196 C199 1.539 . S
C197 C193 1.408 . S
C197 C196 1.404 . S
C197 H209 0.930 . S
C198 C194 1.524 1_565 S
C198 H210 0.956 . S
C198 H211 0.961 . S
C198 H212 0.961 . S
C199 C196 1.539 . S
C199 H213 0.958 . S
C199 H214 0.961 . S
C199 H215 0.960 . S
H200 C184 0.931 . S
H201 C189 0.929 . S
H202 C190 0.960 . S
H203 C190 0.962 . S
H204 C190 0.960 . S
H205 C191 0.961 . S
H206 C191 0.961 . S
H207 C191 0.961 . S
H208 C192 0.953 . S
H209 C197 0.930 . S
H210 C198 0.956 . S
H211 C198 0.961 . S
H212 C198 0.961 . S
H213 C199 0.958 . S
H214 C199 0.961 . S
H215 C199 0.960 . S
C216 C217 1.391 . S
C216 C218 1.394 . S
C216 H232 0.931 . S
C217 C216 1.391 . S
C217 C221 1.376 . S
C218 C216 1.394 . S
C218 C219 1.369 . S
C218 C222 1.531 . S
C219 C218 1.369 . S
C219 C220 1.410 . S
C219 C227 1.503 . S
C220 C219 1.410 . S
C220 C221 1.392 . S
C220 C223 1.511 . S
C221 C217 1.376 . S
C221 C220 1.392 . S
C221 H233 0.929 . S
C222 C218 1.531 . S
C222 H234 0.960 . S
C222 H235 0.962 . S
C222 H236 0.960 . S
C223 C220 1.511 . S
C223 H237 0.961 . S
C223 H238 0.961 . S
C223 H239 0.961 . S
C224 C225 1.370 . S
C224 C226 1.363 . S
C224 H240 0.931 . S
C225 C224 1.370 . S
C225 C229 1.408 . S
C226 C224 1.363 . S
C226 C227 1.370 . S
C226 C230 1.524 . S
C227 C219 1.503 . S
C227 C226 1.370 . S
C227 C228 1.403 . S
C228 C227 1.403 . S
C228 C229 1.404 . S
C228 C231 1.539 . S
C229 C225 1.408 . S
C229 C228 1.404 . S
C229 H241 0.930 . S
C230 C226 1.524 . S
C230 H242 0.956 . S
C230 H243 0.961 . S
C230 H244 0.961 . S
C231 C228 1.539 . S
C231 H245 0.958 . S
C231 H246 0.961 . S
C231 H247 0.960 . S
H232 C216 0.931 . S
H233 C221 0.929 . S
H234 C222 0.960 . S
H235 C222 0.962 . S
H236 C222 0.960 . S
H237 C223 0.961 . S
H238 C223 0.961 . S
H239 C223 0.961 . S
H240 C224 0.931 . S
H241 C229 0.930 . S
H242 C230 0.956 . S
H243 C230 0.961 . S
H244 C230 0.961 . S
H245 C231 0.958 . S
H246 C231 0.961 . S
H247 C231 0.960 . S
C248 C249 1.391 . S
C248 C250 1.394 . S
C248 H264 0.931 . S
C249 C248 1.391 . S
C249 C253 1.376 . S
C250 C248 1.394 . S
C250 C251 1.369 . S
C250 C254 1.531 . S
C251 C250 1.369 . S
C251 C252 1.410 . S
C251 C259 1.503 . S
C252 C251 1.410 . S
C252 C253 1.392 . S
C252 C255 1.511 . S
C253 C249 1.376 . S
C253 C252 1.392 . S
C253 H265 0.929 . S
C254 C250 1.531 . S
C254 H266 0.960 . S
C254 H267 0.962 . S
C254 H268 0.960 . S
C255 C252 1.511 . S
C255 H269 0.961 . S
C255 H270 0.961 . S
C255 H271 0.961 . S
C256 C257 1.370 . S
C256 C258 1.363 . S
C256 H272 0.931 . S
C257 C256 1.370 . S
C257 C261 1.408 . S
C258 C256 1.363 . S
C258 C259 1.370 . S
C258 C262 1.524 . S
C259 C251 1.503 . S
C259 C258 1.370 . S
C259 C260 1.403 . S
C260 C259 1.403 . S
C260 C261 1.404 . S
C260 C263 1.539 . S
C261 C257 1.408 . S
C261 C260 1.404 . S
C261 H273 0.930 . S
C262 C258 1.524 . S
C262 H274 0.956 . S
C262 H275 0.961 . S
C262 H276 0.961 . S
C263 C260 1.539 . S
C263 H277 0.958 . S
C263 H278 0.961 . S
C263 H279 0.960 . S
H264 C248 0.931 . S
H265 C253 0.929 . S
H266 C254 0.960 . S
H267 C254 0.962 . S
H268 C254 0.960 . S
H269 C255 0.961 . S
H270 C255 0.961 . S
H271 C255 0.961 . S
H272 C256 0.931 . S
H273 C261 0.930 . S
H274 C262 0.956 . S
H275 C262 0.961 . S
H276 C262 0.961 . S
H277 C263 0.958 . S
H278 C263 0.961 . S
H279 C263 0.960 . S
C280 C281 1.391 1_655 S
C280 C282 1.394 . S
C280 H296 0.931 . S
C281 C280 1.391 1_455 S
C281 C285 1.376 . S
C282 C280 1.394 . S
C282 C283 1.369 1_655 S
C282 C286 1.531 . S
C283 C282 1.369 1_455 S
C283 C284 1.410 . S
C283 C291 1.503 . S
C284 C283 1.410 . S
C284 C285 1.392 . S
C284 C287 1.511 . S
C285 C281 1.376 . S
C285 C284 1.392 . S
C285 H297 0.929 . S
C286 C282 1.531 . S
C286 H298 0.960 . S
C286 H299 0.962 . S
C286 H300 0.960 . S
C287 C284 1.511 . S
C287 H301 0.961 . S
C287 H302 0.961 . S
C287 H303 0.961 . S
C288 C289 1.369 . S
C288 C290 1.363 . S
C288 H304 0.931 . S
C289 C288 1.369 . S
C289 C293 1.409 1_655 S
C290 C288 1.363 . S
C290 C291 1.370 1_655 S
C290 C294 1.524 . S
C291 C283 1.503 . S
C291 C290 1.370 1_455 S
C291 C292 1.403 . S
C292 C291 1.403 . S
C292 C293 1.404 . S
C292 C295 1.539 . S
C293 C289 1.409 1_455 S
C293 C292 1.404 . S
C293 H305 0.930 . S
C294 C290 1.524 . S
C294 H306 0.956 . S
C294 H307 0.961 . S
C294 H308 0.961 . S
C295 C292 1.539 . S
C295 H309 0.958 . S
C295 H310 0.961 . S
C295 H311 0.960 . S
H296 C280 0.931 . S
H297 C285 0.929 . S
H298 C286 0.960 . S
H299 C286 0.962 . S
H300 C286 0.960 . S
H301 C287 0.961 . S
H302 C287 0.961 . S
H303 C287 0.961 . S
H304 C288 0.931 . S
H305 C293 0.930 . S
H306 C294 0.956 . S
H307 C294 0.961 . S
H308 C294 0.961 . S
H309 C295 0.958 . S
H310 C295 0.961 . S
H311 C295 0.960 . S
C312 C313 1.391 . S
C312 C314 1.394 . S
C312 H328 0.931 1_556 S
C313 C312 1.391 . S
C313 C317 1.376 . S
C314 C312 1.394 . S
C314 C315 1.369 . S
C314 C318 1.531 . S
C315 C314 1.369 . S
C315 C316 1.410 . S
C315 C323 1.503 . S
C316 C315 1.410 . S
C316 C317 1.392 . S
C316 C319 1.511 1_565 S
C317 C313 1.376 . S
C317 C316 1.392 . S
C317 H329 0.929 . S
C318 C314 1.531 . S
C318 H330 0.960 . S
C318 H331 0.962 . S
C318 H332 0.960 . S
C319 C316 1.511 1_545 S
C319 H333 0.961 . S
C319 H334 0.961 . S
C319 H335 0.961 . S
C320 C321 1.370 . S
C320 C322 1.363 . S
C320 H336 0.931 1_565 S
C321 C320 1.370 . S
C321 C325 1.408 . S
C322 C320 1.363 . S
C322 C323 1.370 . S
C322 C326 1.524 1_565 S
C323 C315 1.503 . S
C323 C322 1.370 . S
C323 C324 1.403 . S
C324 C323 1.403 . S
C324 C325 1.404 . S
C324 C327 1.539 . S
C325 C321 1.408 . S
C325 C324 1.404 . S
C325 H337 0.930 . S
C326 C322 1.524 1_545 S
C326 H338 0.956 1_545 S
C326 H339 0.961 . S
C326 H340 0.961 . S
C327 C324 1.539 . S
C327 H341 0.958 . S
C327 H342 0.961 . S
C327 H343 0.960 . S
H328 C312 0.931 1_554 S
H329 C317 0.929 . S
H330 C318 0.960 . S
H331 C318 0.962 . S
H332 C318 0.960 . S
H333 C319 0.961 . S
H334 C319 0.961 . S
H335 C319 0.961 . S
H336 C320 0.931 1_545 S
H337 C325 0.930 . S
H338 C326 0.956 1_565 S
H339 C326 0.961 . S
H340 C326 0.961 . S
H341 C327 0.958 . S
H342 C327 0.961 . S
H343 C327 0.960 . S
C344 C345 1.391 1_556 S
C344 C346 1.394 . S
C344 H360 0.931 . S
C345 C344 1.391 1_554 S
C345 C349 1.376 . S
C346 C344 1.394 . S
C346 C347 1.369 . S
C346 C350 1.531 . S
C347 C346 1.369 . S
C347 C348 1.410 1_556 S
C347 C355 1.503 . S
C348 C347 1.410 1_554 S
C348 C349 1.392 . S
C348 C351 1.511 . S
C349 C345 1.376 . S
C349 C348 1.392 . S
C349 H361 0.929 . S
C350 C346 1.531 . S
C350 H362 0.960 . S
C350 H363 0.962 . S
C350 H364 0.960 . S
C351 C348 1.511 . S
C351 H365 0.961 . S
C351 H366 0.961 1_554 S
C351 H367 0.961 . S
C352 C353 1.370 . S
C352 C354 1.363 . S
C352 H368 0.931 . S
C353 C352 1.370 . S
C353 C357 1.408 . S
C354 C352 1.363 . S
C354 C355 1.370 . S
C354 C358 1.524 . S
C355 C347 1.503 . S
C355 C354 1.370 . S
C355 C356 1.403 . S
C356 C355 1.403 . S
C356 C357 1.404 . S
C356 C359 1.539 . S
C357 C353 1.408 . S
C357 C356 1.404 . S
C357 H369 0.930 . S
C358 C354 1.524 . S
C358 H370 0.956 . S
C358 H371 0.961 . S
C358 H372 0.961 . S
C359 C356 1.539 . S
C359 H373 0.958 . S
C359 H374 0.961 . S
C359 H375 0.960 1_556 S
H360 C344 0.931 . S
H361 C349 0.929 . S
H362 C350 0.960 . S
H363 C350 0.962 . S
H364 C350 0.960 . S
H365 C351 0.961 . S
H366 C351 0.961 1_556 S
H367 C351 0.961 . S
H368 C352 0.931 . S
H369 C357 0.930 . S
H370 C358 0.956 . S
H371 C358 0.961 . S
H372 C358 0.961 . S
H373 C359 0.958 . S
H374 C359 0.961 . S
H375 C359 0.960 1_554 S
C376 C377 1.391 . S
C376 C378 1.394 1_554 S
C376 H392 0.931 . S
C377 C376 1.391 . S
C377 C381 1.376 1_554 S
C378 C376 1.394 1_556 S
C378 C379 1.369 . S
C378 C382 1.531 . S
C379 C378 1.369 . S
C379 C380 1.410 . S
C379 C387 1.503 . S
C380 C379 1.410 . S
C380 C381 1.392 . S
C380 C383 1.511 . S
C381 C377 1.376 1_556 S
C381 C380 1.392 . S
C381 H393 0.929 . S
C382 C378 1.531 . S
C382 H394 0.960 . S
C382 H395 0.962 . S
C382 H396 0.960 . S
C383 C380 1.511 . S
C383 H397 0.961 . S
C383 H398 0.961 . S
C383 H399 0.961 . S
C384 C385 1.370 . S
C384 C386 1.363 . S
C384 H400 0.931 . S
C385 C384 1.370 . S
C385 C389 1.408 . S
C386 C384 1.363 . S
C386 C387 1.370 . S
C386 C390 1.524 . S
C387 C379 1.503 . S
C387 C386 1.370 . S
C387 C388 1.403 . S
C388 C387 1.403 . S
C388 C389 1.404 . S
C388 C391 1.539 . S
C389 C385 1.408 . S
C389 C388 1.404 . S
C389 H401 0.930 . S
C390 C386 1.524 . S
C390 H402 0.956 . S
C390 H403 0.961 . S
C390 H404 0.961 . S
C391 C388 1.539 . S
C391 H405 0.958 . S
C391 H406 0.961 . S
C391 H407 0.960 . S
H392 C376 0.931 . S
H393 C381 0.929 . S
H394 C382 0.960 . S
H395 C382 0.962 . S
H396 C382 0.960 . S
H397 C383 0.961 . S
H398 C383 0.961 . S
H399 C383 0.961 . S
H400 C384 0.931 . S
H401 C389 0.930 . S
H402 C390 0.956 . S
H403 C390 0.961 . S
H404 C390 0.961 . S
H405 C391 0.958 . S
H406 C391 0.961 . S
H407 C391 0.960 . S
C408 C409 1.391 . S
C408 C410 1.394 1_554 S
C408 H424 0.931 . S
C409 C408 1.391 . S
C409 C413 1.376 1_554 S
C410 C408 1.394 1_556 S
C410 C411 1.369 . S
C410 C414 1.531 1_556 S
C411 C410 1.369 . S
C411 C412 1.410 . S
C411 C419 1.503 . S
C412 C411 1.410 . S
C412 C413 1.392 . S
C412 C415 1.511 . S
C413 C409 1.376 1_556 S
C413 C412 1.392 . S
C413 H425 0.929 1_655 S
C414 C410 1.531 1_554 S
C414 H426 0.960 1_554 S
C414 H427 0.962 1_655 S
C414 H428 0.960 . S
C415 C412 1.511 . S
C415 H429 0.961 1_655 S
C415 H430 0.961 1_655 S
C415 H431 0.961 . S
C416 C417 1.371 1_455 S
C416 C418 1.363 . S
C416 H432 0.931 . S
C417 C416 1.371 1_655 S
C417 C421 1.408 . S
C418 C416 1.363 . S
C418 C419 1.370 1_455 S
C418 C422 1.524 . S
C419 C411 1.503 . S
C419 C418 1.370 1_655 S
C419 C420 1.403 . S
C420 C419 1.403 . S
C420 C421 1.404 . S
C420 C423 1.539 . S
C421 C417 1.408 . S
C421 C420 1.404 . S
C421 H433 0.930 . S
C422 C418 1.524 . S
C422 H434 0.956 . S
C422 H435 0.961 . S
C422 H436 0.961 . S
C423 C420 1.539 . S
C423 H437 0.958 . S
C423 H438 0.961 . S
C423 H439 0.960 . S
H424 C408 0.931 . S
H425 C413 0.929 1_455 S
H426 C414 0.960 1_556 S
H427 C414 0.962 1_455 S
H428 C414 0.960 . S
H429 C415 0.961 1_455 S
H430 C415 0.961 1_455 S
H431 C415 0.961 . S
H432 C416 0.931 . S
H433 C421 0.930 . S
H434 C422 0.956 . S
H435 C422 0.961 . S
H436 C422 0.961 . S
H437 C423 0.958 . S
H438 C423 0.961 . S
H439 C423 0.960 . S
C440 C441 1.391 1_455 S
C440 C442 1.394 . S
C440 H456 0.931 . S
C441 C440 1.391 1_655 S
C441 C445 1.376 . S
C442 C440 1.394 . S
C442 C443 1.369 1_455 S
C442 C446 1.531 . S
C443 C442 1.369 1_655 S
C443 C444 1.410 . S
C443 C451 1.503 . S
C444 C443 1.410 . S
C444 C445 1.392 . S
C444 C447 1.511 . S
C445 C441 1.376 . S
C445 C444 1.392 . S
C445 H457 0.929 . S
C446 C442 1.531 . S
C446 H458 0.960 . S
C446 H459 0.962 . S
C446 H460 0.960 . S
C447 C444 1.511 . S
C447 H461 0.961 . S
C447 H462 0.961 . S
C447 H463 0.961 . S
C448 C449 1.370 1_455 S
C448 C450 1.363 . S
C448 H464 0.931 . S
C449 C448 1.370 1_655 S
C449 C453 1.408 . S
C450 C448 1.363 . S
C450 C451 1.370 1_455 S
C450 C454 1.524 . S
C451 C443 1.503 . S
C451 C450 1.370 1_655 S
C451 C452 1.403 . S
C452 C451 1.403 . S
C452 C453 1.404 . S
C452 C455 1.539 . S
C453 C449 1.408 . S
C453 C452 1.404 . S
C453 H465 0.930 . S
C454 C450 1.524 . S
C454 H466 0.956 . S
C454 H467 0.961 . S
C454 H468 0.961 . S
C455 C452 1.539 . S
C455 H469 0.958 . S
C455 H470 0.961 . S
C455 H471 0.960 . S
H456 C440 0.931 . S
H457 C445 0.929 . S
H458 C446 0.960 . S
H459 C446 0.962 . S
H460 C446 0.960 . S
H461 C447 0.961 . S
H462 C447 0.961 . S
H463 C447 0.961 . S
H464 C448 0.931 . S
H465 C453 0.930 . S
H466 C454 0.956 . S
H467 C454 0.961 . S
H468 C454 0.961 . S
H469 C455 0.958 . S
H470 C455 0.961 . S
H471 C455 0.960 . S
C472 C473 1.391 . S
C472 C474 1.394 . S
C472 H488 0.931 . S
C473 C472 1.391 . S
C473 C477 1.376 . S
C474 C472 1.394 . S
C474 C475 1.369 . S
C474 C478 1.531 . S
C475 C474 1.369 . S
C475 C476 1.410 . S
C475 C483 1.503 . S
C476 C475 1.410 . S
C476 C477 1.392 . S
C476 C479 1.511 . S
C477 C473 1.376 . S
C477 C476 1.392 . S
C477 H489 0.929 . S
C478 C474 1.531 . S
C478 H490 0.960 . S
C478 H491 0.962 . S
C478 H492 0.960 . S
C479 C476 1.511 . S
C479 H493 0.961 1_545 S
C479 H494 0.961 1_545 S
C479 H495 0.961 . S
C480 C481 1.370 1_565 S
C480 C482 1.363 1_565 S
C480 H496 0.931 . S
C481 C480 1.370 1_545 S
C481 C485 1.408 . S
C482 C480 1.363 1_545 S
C482 C483 1.370 . S
C482 C486 1.524 1_545 S
C483 C475 1.503 . S
C483 C482 1.370 . S
C483 C484 1.403 . S
C484 C483 1.403 . S
C484 C485 1.404 . S
C484 C487 1.539 . S
C485 C481 1.408 . S
C485 C484 1.404 . S
C485 H497 0.930 . S
C486 C482 1.524 1_565 S
C486 H498 0.980 . S
C486 H499 0.961 . S
C486 H500 0.961 . S
C487 C484 1.539 . S
C487 H501 0.958 . S
C487 H502 0.961 . S
C487 H503 0.960 . S
H488 C472 0.931 . S
H489 C477 0.929 . S
H490 C478 0.960 . S
H491 C478 0.962 . S
H492 C478 0.960 . S
H493 C479 0.961 1_565 S
H494 C479 0.961 1_565 S
H495 C479 0.961 . S
H496 C480 0.931 . S
H497 C485 0.930 . S
H498 C486 0.980 . S
H499 C486 0.961 . S
H500 C486 0.961 . S
H501 C487 0.958 . S
H502 C487 0.961 . S
H503 C487 0.960 . S
C504 C505 1.391 . S
C504 C506 1.394 . S
C504 H520 0.931 . S
C505 C504 1.391 . S
C505 C509 1.376 . S
C506 C504 1.394 . S
C506 C507 1.369 . S
C506 C510 1.531 . S
C507 C506 1.369 . S
C507 C508 1.410 . S
C507 C515 1.503 . S
C508 C507 1.410 . S
C508 C509 1.392 . S
C508 C511 1.511 . S
C509 C505 1.376 . S
C509 C508 1.392 . S
C509 H521 0.929 . S
C510 C506 1.531 . S
C510 H522 0.960 . S
C510 H523 0.962 . S
C510 H524 0.960 . S
C511 C508 1.511 . S
C511 H525 0.961 . S
C511 H526 0.961 . S
C511 H527 0.961 . S
C512 C513 1.370 . S
C512 C514 1.363 . S
C512 H528 0.931 . S
C513 C512 1.370 . S
C513 C517 1.408 . S
C514 C512 1.363 . S
C514 C515 1.370 . S
C514 C518 1.524 . S
C515 C507 1.503 . S
C515 C514 1.370 . S
C515 C516 1.403 . S
C516 C515 1.403 . S
C516 C517 1.404 . S
C516 C519 1.539 . S
C517 C513 1.408 . S
C517 C516 1.404 . S
C517 H529 0.930 . S
C518 C514 1.524 . S
C518 H530 0.956 . S
C518 H531 0.961 . S
C518 H532 0.961 . S
C519 C516 1.539 . S
C519 H533 0.958 . S
C519 H534 0.961 . S
C519 H535 0.960 . S
H520 C504 0.931 . S
H521 C509 0.929 . S
H522 C510 0.960 . S
H523 C510 0.962 . S
H524 C510 0.960 . S
H525 C511 0.961 . S
H526 C511 0.961 . S
H527 C511 0.961 . S
H528 C512 0.931 . S
H529 C517 0.930 . S
H530 C518 0.956 . S
H531 C518 0.961 . S
H532 C518 0.961 . S
H533 C519 0.958 . S
H534 C519 0.961 . S
H535 C519 0.960 . S
C536 C537 1.391 . S
C536 C538 1.394 . S
C536 H552 0.931 . S
C537 C536 1.391 . S
C537 C541 1.376 . S
C538 C536 1.394 . S
C538 C539 1.369 . S
C538 C542 1.531 . S
C539 C538 1.369 . S
C539 C540 1.410 . S
C539 C547 1.503 . S
C540 C539 1.410 . S
C540 C541 1.392 . S
C540 C543 1.511 . S
C541 C537 1.376 . S
C541 C540 1.392 . S
C541 H553 0.929 . S
C542 C538 1.531 . S
C542 H554 0.960 . S
C542 H555 0.962 . S
C542 H556 0.960 . S
C543 C540 1.511 . S
C543 H557 0.961 . S
C543 H558 0.961 . S
C543 H559 0.961 . S
C544 C545 1.370 . S
C544 C546 1.363 . S
C544 H560 0.931 . S
C545 C544 1.370 . S
C545 C549 1.408 . S
C546 C544 1.363 . S
C546 C547 1.370 . S
C546 C550 1.524 . S
C547 C539 1.503 . S
C547 C546 1.370 . S
C547 C548 1.403 . S
C548 C547 1.403 . S
C548 C549 1.404 . S
C548 C551 1.539 . S
C549 C545 1.408 . S
C549 C548 1.404 . S
C549 H561 0.930 . S
C550 C546 1.524 . S
C550 H562 0.956 . S
C550 H563 0.961 . S
C550 H564 0.961 . S
C551 C548 1.539 . S
C551 H565 0.958 . S
C551 H566 0.961 . S
C551 H567 0.960 . S
H552 C536 0.931 . S
H553 C541 0.929 . S
H554 C542 0.960 . S
H555 C542 0.962 . S
H556 C542 0.960 . S
H557 C543 0.961 . S
H558 C543 0.961 . S
H559 C543 0.961 . S
H560 C544 0.931 . S
H561 C549 0.930 . S
H562 C550 0.956 . S
H563 C550 0.961 . S
H564 C550 0.961 . S
H565 C551 0.958 . S
H566 C551 0.961 . S
H567 C551 0.960 . S
C568 C569 1.362 1_655 S
C568 C570 1.394 1_554 S
C568 H584 0.931 . S
C569 C568 1.362 1_455 S
C569 C573 1.406 1_554 S
C570 C568 1.394 1_556 S
C570 C571 1.369 1_655 S
C570 C574 1.531 . S
C571 C570 1.369 1_455 S
C571 C572 1.410 . S
C571 C579 1.503 . S
C572 C571 1.410 . S
C572 C573 1.392 . S
C572 C575 1.511 . S
C573 C569 1.406 1_556 S
C573 C572 1.392 . S
C573 H585 0.929 . S
C574 C570 1.531 . S
C574 H586 0.960 . S
C574 H587 0.962 . S
C574 H588 0.960 1_556 S
C575 C572 1.511 . S
C575 H589 0.961 . S
C575 H590 0.961 . S
C575 H591 0.961 . S
C576 C577 1.370 . S
C576 C578 1.363 . S
C576 H592 0.930 . S
C577 C576 1.370 . S
C577 C581 1.408 . S
C578 C576 1.363 . S
C578 C579 1.370 . S
C578 C582 1.524 1_455 S
C579 C571 1.503 . S
C579 C578 1.370 . S
C579 C580 1.403 . S
C580 C579 1.403 . S
C580 C581 1.404 . S
C580 C583 1.539 1_556 S
C581 C577 1.408 . S
C581 C580 1.404 . S
C581 H593 0.930 . S
C582 C578 1.524 1_655 S
C582 H594 0.956 . S
C582 H595 0.961 1_655 S
C582 H596 0.961 . S
C583 C580 1.539 1_554 S
C583 H597 0.958 . S
C583 H598 0.961 . S
C583 H599 0.960 . S
H584 C568 0.931 . S
H585 C573 0.929 . S
H586 C574 0.960 . S
H587 C574 0.962 . S
H588 C574 0.960 1_554 S
H589 C575 0.961 . S
H590 C575 0.961 . S
H591 C575 0.961 . S
H592 C576 0.930 . S
H593 C581 0.930 . S
H594 C582 0.956 . S
H595 C582 0.961 1_455 S
H596 C582 0.961 . S
H597 C583 0.958 . S
H598 C583 0.961 . S
H599 C583 0.960 . S
C600 C601 1.391 . S
C600 C602 1.394 . S
C600 H616 0.931 . S
C601 C600 1.391 . S
C601 C605 1.376 1_556 S
C602 C600 1.394 . S
C602 C603 1.369 . S
C602 C606 1.531 . S
C603 C602 1.369 . S
C603 C604 1.410 1_556 S
C603 C611 1.503 . S
C604 C603 1.410 1_554 S
C604 C605 1.392 . S
C604 C607 1.511 . S
C605 C601 1.376 1_554 S
C605 C604 1.392 . S
C605 H617 0.929 . S
C606 C602 1.531 . S
C606 H618 0.960 . S
C606 H619 0.962 . S
C606 H620 0.960 . S
C607 C604 1.511 . S
C607 H621 0.961 . S
C607 H622 0.970 . S
C607 H623 0.961 . S
C608 C609 1.370 1_545 S
C608 C610 1.363 . S
C608 H624 0.931 . S
C609 C608 1.370 1_565 S
C609 C613 1.408 . S
C610 C608 1.363 . S
C610 C611 1.370 1_545 S
C610 C614 1.524 . S
C611 C603 1.503 . S
C611 C610 1.370 1_565 S
C611 C612 1.403 . S
C612 C611 1.403 . S
C612 C613 1.404 . S
C612 C615 1.539 . S
C613 C609 1.408 . S
C613 C612 1.404 . S
C613 H625 0.930 . S
C614 C610 1.524 . S
C614 H626 0.956 . S
C614 H627 0.961 . S
C614 H628 0.961 . S
C615 C612 1.539 . S
C615 H629 0.958 . S
C615 H630 0.961 . S
C615 H631 0.960 . S
H616 C600 0.931 . S
H617 C605 0.929 . S
H618 C606 0.960 . S
H619 C606 0.962 . S
H620 C606 0.960 . S
H621 C607 0.961 . S
H622 C607 0.970 . S
H623 C607 0.961 . S
H624 C608 0.931 . S
H625 C613 0.930 . S
H626 C614 0.956 . S
H627 C614 0.961 . S
H628 C614 0.961 . S
H629 C615 0.958 . S
H630 C615 0.961 . S
H631 C615 0.960 . S
C632 C633 1.391 . S
C632 C634 1.394 . S
C632 H648 0.931 . S
C633 C632 1.391 . S
C633 C637 1.376 . S
C634 C632 1.394 . S
C634 C635 1.369 1_554 S
C634 C638 1.531 . S
C635 C634 1.369 1_556 S
C635 C636 1.410 . S
C635 C643 1.503 . S
C636 C635 1.410 . S
C636 C637 1.392 1_556 S
C636 C639 1.511 . S
C637 C633 1.376 . S
C637 C636 1.392 1_554 S
C637 H649 0.929 1_554 S
C638 C634 1.531 . S
C638 H650 0.960 . S
C638 H651 0.962 1_554 S
C638 H652 0.960 . S
C639 C636 1.511 . S
C639 H653 0.961 . S
C639 H654 0.961 . S
C639 H655 0.961 . S
C640 C641 1.370 . S
C640 C642 1.363 . S
C640 H656 0.931 . S
C641 C640 1.370 . S
C641 C645 1.408 . S
C642 C640 1.363 . S
C642 C643 1.370 . S
C642 C646 1.524 . S
C643 C635 1.503 . S
C643 C642 1.370 . S
C643 C644 1.403 . S
C644 C643 1.403 . S
C644 C645 1.404 . S
C644 C647 1.539 1_556 S
C645 C641 1.408 . S
C645 C644 1.404 . S
C645 H657 0.930 . S
C646 C642 1.524 . S
C646 H658 0.956 . S
C646 H659 0.961 . S
C646 H660 0.961 . S
C647 C644 1.539 1_554 S
C647 H661 0.958 . S
C647 H662 0.961 . S
C647 H663 0.960 . S
H648 C632 0.931 . S
H649 C637 0.929 1_556 S
H650 C638 0.960 . S
H651 C638 0.962 1_556 S
H652 C638 0.960 . S
H653 C639 0.961 . S
H654 C639 0.961 . S
H655 C639 0.961 . S
H656 C640 0.931 . S
H657 C645 0.930 . S
H658 C646 0.956 . S
H659 C646 0.961 . S
H660 C646 0.961 . S
H661 C647 0.958 . S
H662 C647 0.961 . S
H663 C647 0.960 . S
C664 C665 1.391 . S
C664 C666 1.394 . S
C664 H680 0.931 . S
C665 C664 1.391 . S
C665 C669 1.376 1_554 S
C666 C664 1.394 . S
C666 C667 1.369 1_554 S
C666 C670 1.531 . S
C667 C666 1.369 1_556 S
C667 C668 1.410 . S
C667 C675 1.503 . S
C668 C667 1.410 . S
C668 C669 1.392 . S
C668 C671 1.511 . S
C669 C665 1.376 1_556 S
C669 C668 1.392 . S
C669 H681 0.929 . S
C670 C666 1.531 . S
C670 H682 0.960 . S
C670 H683 0.962 . S
C670 H684 0.960 . S
C671 C668 1.511 . S
C671 H685 0.961 . S
C671 H686 0.961 . S
C671 H687 0.961 . S
C672 C673 1.370 . S
C672 C674 1.363 . S
C672 H688 0.931 . S
C673 C672 1.370 . S
C673 C677 1.408 . S
C674 C672 1.363 . S
C674 C675 1.370 . S
C674 C678 1.524 . S
C675 C667 1.503 . S
C675 C674 1.370 . S
C675 C676 1.403 . S
C676 C675 1.403 . S
C676 C677 1.404 . S
C676 C679 1.539 . S
C677 C673 1.408 . S
C677 C676 1.404 . S
C677 H689 0.930 . S
C678 C674 1.524 . S
C678 H690 0.956 . S
C678 H691 0.961 . S
C678 H692 0.961 . S
C679 C676 1.539 . S
C679 H693 0.964 . S
C679 H694 0.961 . S
C679 H695 0.960 . S
H680 C664 0.931 . S
H681 C669 0.929 . S
H682 C670 0.960 . S
H683 C670 0.962 . S
H684 C670 0.960 . S
H685 C671 0.961 . S
H686 C671 0.961 . S
H687 C671 0.961 . S
H688 C672 0.931 . S
H689 C677 0.930 . S
H690 C678 0.956 . S
H691 C678 0.961 . S
H692 C678 0.961 . S
H693 C679 0.964 . S
H694 C679 0.961 . S
H695 C679 0.960 . S
C696 C697 1.391 1_655 S
C696 C698 1.394 . S
C696 H712 0.931 . S
C697 C696 1.391 1_455 S
C697 C701 1.376 . S
C698 C696 1.394 . S
C698 C699 1.369 1_655 S
C698 C702 1.531 . S
C699 C698 1.369 1_455 S
C699 C700 1.410 . S
C699 C707 1.503 . S
C700 C699 1.410 . S
C700 C701 1.392 . S
C700 C703 1.511 . S
C701 C697 1.376 . S
C701 C700 1.392 . S
C701 H713 0.929 . S
C702 C698 1.531 . S
C702 H714 0.960 . S
C702 H715 0.962 . S
C702 H716 0.960 . S
C703 C700 1.511 . S
C703 H717 0.961 . S
C703 H718 0.961 . S
C703 H719 0.961 . S
C704 C705 1.375 . S
C704 C706 1.361 1_455 S
C704 H720 0.928 1_455 S
C705 C704 1.375 . S
C705 C709 1.408 . S
C706 C704 1.361 1_655 S
C706 C707 1.369 1_655 S
C706 C710 1.526 . S
C707 C699 1.503 . S
C707 C706 1.369 1_455 S
C707 C708 1.403 . S
C708 C707 1.403 . S
C708 C709 1.404 . S
C708 C711 1.539 . S
C709 C705 1.408 . S
C709 C708 1.404 . S
C709 H721 0.930 . S
C710 C706 1.526 . S
C710 H722 0.956 . S
C710 H723 0.961 1_656 S
C710 H724 0.961 1_556 S
C711 C708 1.539 . S
C711 H725 0.958 . S
C711 H726 0.961 . S
C711 H727 0.960 . S
H712 C696 0.931 . S
H713 C701 0.929 . S
H714 C702 0.960 . S
H715 C702 0.962 . S
H716 C702 0.960 . S
H717 C703 0.961 . S
H718 C703 0.961 . S
H719 C703 0.961 . S
H720 C704 0.928 1_655 S
H721 C709 0.930 . S
H722 C710 0.956 . S
H723 C710 0.961 1_454 S
H724 C710 0.961 1_554 S
H725 C711 0.958 . S
H726 C711 0.961 . S
H727 C711 0.960 . S
C728 C729 1.391 . S
C728 C730 1.394 . S
C728 H744 0.944 1_556 S
C729 C728 1.391 . S
C729 C733 1.376 . S
C730 C728 1.394 . S
C730 C731 1.369 . S
C730 C734 1.531 1_545 S
C731 C730 1.369 . S
C731 C732 1.410 . S
C731 C739 1.503 . S
C732 C731 1.410 . S
C732 C733 1.392 . S
C732 C735 1.511 . S
C733 C729 1.376 . S
C733 C732 1.392 . S
C733 H745 0.929 . S
C734 C730 1.531 1_565 S
C734 H746 0.960 . S
C734 H747 0.962 . S
C734 H748 0.960 . S
C735 C732 1.511 . S
C735 H749 0.961 . S
C735 H750 0.961 . S
C735 H751 0.961 . S
C736 C737 1.370 . S
C736 C738 1.363 . S
C736 H752 0.931 . S
C737 C736 1.370 . S
C737 C741 1.408 . S
C738 C736 1.363 . S
C738 C739 1.370 . S
C738 C742 1.524 1_556 S
C739 C731 1.503 . S
C739 C738 1.370 . S
C739 C740 1.403 . S
C740 C739 1.403 . S
C740 C741 1.404 . S
C740 C743 1.539 . S
C741 C737 1.408 . S
C741 C740 1.404 . S
C741 H753 0.930 . S
C742 C738 1.524 1_554 S
C742 H754 0.956 . S
C742 H755 0.961 . S
C742 H756 0.961 . S
C743 C740 1.539 . S
C743 H757 0.958 1_545 S
C743 H758 0.961 . S
C743 H759 0.960 . S
H744 C728 0.944 1_554 S
H745 C733 0.929 . S
H746 C734 0.960 . S
H747 C734 0.962 . S
H748 C734 0.960 . S
H749 C735 0.961 . S
H750 C735 0.961 . S
H751 C735 0.961 . S
H752 C736 0.931 . S
H753 C741 0.930 . S
H754 C742 0.956 . S
H755 C742 0.961 . S
H756 C742 0.961 . S
H757 C743 0.958 1_565 S
H758 C743 0.961 . S
H759 C743 0.960 . S
C760 C761 1.391 . S
C760 C762 1.394 . S
C760 H776 0.931 . S
C761 C760 1.391 . S
C761 C765 1.376 . S
C762 C760 1.394 . S
C762 C763 1.369 . S
C762 C766 1.531 . S
C763 C762 1.369 . S
C763 C764 1.410 . S
C763 C771 1.503 . S
C764 C763 1.410 . S
C764 C765 1.392 . S
C764 C767 1.511 . S
C765 C761 1.376 . S
C765 C764 1.392 . S
C765 H777 0.929 . S
C766 C762 1.531 . S
C766 H778 0.960 . S
C766 H779 0.962 . S
C766 H780 0.960 . S
C767 C764 1.511 . S
C767 H781 0.961 . S
C767 H782 0.961 . S
C767 H783 0.961 . S
C768 C769 1.370 . S
C768 C770 1.363 . S
C768 H784 0.931 . S
C769 C768 1.370 . S
C769 C773 1.408 . S
C770 C768 1.363 . S
C770 C771 1.370 . S
C770 C774 1.524 . S
C771 C763 1.503 . S
C771 C770 1.370 . S
C771 C772 1.403 . S
C772 C771 1.403 . S
C772 C773 1.404 . S
C772 C775 1.539 . S
C773 C769 1.408 . S
C773 C772 1.404 . S
C773 H785 0.930 . S
C774 C770 1.524 . S
C774 H786 0.956 . S
C774 H787 0.961 . S
C774 H788 0.961 . S
C775 C772 1.539 . S
C775 H789 0.958 . S
C775 H790 0.961 . S
C775 H791 0.960 . S
H776 C760 0.931 . S
H777 C765 0.929 . S
H778 C766 0.960 . S
H779 C766 0.962 . S
H780 C766 0.960 . S
H781 C767 0.961 . S
H782 C767 0.961 . S
H783 C767 0.961 . S
H784 C768 0.931 . S
H785 C773 0.930 . S
H786 C774 0.956 . S
H787 C774 0.961 . S
H788 C774 0.961 . S
H789 C775 0.958 . S
H790 C775 0.961 . S
H791 C775 0.960 . S
C792 C793 1.391 . S
C792 C794 1.394 . S
C792 H808 0.931 1_556 S
C793 C792 1.391 . S
C793 C797 1.376 . S
C794 C792 1.394 . S
C794 C795 1.369 . S
C794 C798 1.531 1_556 S
C795 C794 1.369 . S
C795 C796 1.410 . S
C795 C803 1.503 . S
C796 C795 1.410 . S
C796 C797 1.392 . S
C796 C799 1.511 . S
C797 C793 1.376 . S
C797 C796 1.392 . S
C797 H809 0.929 . S
C798 C794 1.531 1_554 S
C798 H810 0.960 1_554 S
C798 H811 0.962 . S
C798 H812 0.960 . S
C799 C796 1.511 . S
C799 H813 0.961 . S
C799 H814 0.961 . S
C799 H815 0.961 . S
C800 C801 1.370 . S
C800 C802 1.363 . S
C800 H816 0.931 . S
C801 C800 1.370 . S
C801 C805 1.408 . S
C802 C800 1.363 . S
C802 C803 1.370 . S
C802 C806 1.524 . S
C803 C795 1.503 . S
C803 C802 1.370 . S
C803 C804 1.403 . S
C804 C803 1.403 . S
C804 C805 1.404 . S
C804 C807 1.539 . S
C805 C801 1.408 . S
C805 C804 1.404 . S
C805 H817 0.930 . S
C806 C802 1.524 . S
C806 H818 0.956 . S
C806 H819 0.961 . S
C806 H820 0.961 . S
C807 C804 1.539 . S
C807 H821 0.958 . S
C807 H822 0.961 . S
C807 H823 0.960 . S
H808 C792 0.931 1_554 S
H809 C797 0.929 . S
H810 C798 0.960 1_556 S
H811 C798 0.962 . S
H812 C798 0.960 . S
H813 C799 0.961 . S
H814 C799 0.961 . S
H815 C799 0.961 . S
H816 C800 0.931 . S
H817 C805 0.930 . S
H818 C806 0.956 . S
H819 C806 0.961 . S
H820 C806 0.961 . S
H821 C807 0.958 . S
H822 C807 0.961 . S
H823 C807 0.960 . S
C824 C825 1.390 . S
C824 C826 1.394 . S
C824 H840 0.931 . S
C825 C824 1.390 . S
C825 C829 1.377 1_455 S
C826 C824 1.394 . S
C826 C827 1.343 1_455 S
C826 C830 1.531 . S
C827 C826 1.343 1_655 S
C827 C828 1.432 . S
C827 C835 1.508 . S
C828 C827 1.432 . S
C828 C829 1.392 . S
C828 C831 1.511 . S
C829 C825 1.377 1_655 S
C829 C828 1.392 . S
C829 H841 0.929 . S
C830 C826 1.531 . S
C830 H842 0.960 . S
C830 H843 0.962 . S
C830 H844 0.960 . S
C831 C828 1.511 . S
C831 H845 0.961 . S
C831 H846 0.961 . S
C831 H847 0.961 . S
C832 C833 1.370 . S
C832 C834 1.363 . S
C832 H848 0.931 . S
C833 C832 1.370 . S
C833 C837 1.408 1_655 S
C834 C832 1.363 . S
C834 C835 1.370 . S
C834 C838 1.524 . S
C835 C827 1.508 . S
C835 C834 1.370 . S
C835 C836 1.403 1_655 S
C836 C835 1.403 1_455 S
C836 C837 1.404 . S
C836 C839 1.539 . S
C837 C833 1.408 1_455 S
C837 C836 1.404 . S
C837 H849 0.930 . S
C838 C834 1.524 . S
C838 H850 0.956 . S
C838 H851 0.961 . S
C838 H852 0.961 . S
C839 C836 1.539 . S
C839 H853 0.958 . S
C839 H854 0.961 . S
C839 H855 0.960 . S
H840 C824 0.931 . S
H841 C829 0.929 . S
H842 C830 0.960 . S
H843 C830 0.962 . S
H844 C830 0.960 . S
H845 C831 0.961 . S
H846 C831 0.961 . S
H847 C831 0.961 . S
H848 C832 0.931 . S
H849 C837 0.930 . S
H850 C838 0.956 . S
H851 C838 0.961 . S
H852 C838 0.961 . S
H853 C839 0.958 . S
H854 C839 0.961 . S
H855 C839 0.960 . S
C856 C857 1.391 . S
C856 C858 1.394 . S
C856 H872 0.931 . S
C857 C856 1.391 . S
C857 C861 1.376 . S
C858 C856 1.394 . S
C858 C859 1.369 . S
C858 C862 1.531 . S
C859 C858 1.369 . S
C859 C860 1.410 . S
C859 C867 1.503 . S
C860 C859 1.410 . S
C860 C861 1.392 . S
C860 C863 1.511 . S
C861 C857 1.376 . S
C861 C860 1.392 . S
C861 H873 0.929 . S
C862 C858 1.531 . S
C862 H874 0.960 . S
C862 H875 0.962 . S
C862 H876 0.960 . S
C863 C860 1.511 . S
C863 H877 0.961 . S
C863 H878 0.961 . S
C863 H879 0.961 . S
C864 C865 1.370 . S
C864 C866 1.363 . S
C864 H880 0.931 . S
C865 C864 1.370 . S
C865 C869 1.408 1_565 S
C866 C864 1.363 . S
C866 C867 1.370 . S
C866 C870 1.524 . S
C867 C859 1.503 . S
C867 C866 1.370 . S
C867 C868 1.403 1_565 S
C868 C867 1.403 1_545 S
C868 C869 1.404 . S
C868 C871 1.539 . S
C869 C865 1.408 1_545 S
C869 C868 1.404 . S
C869 H881 0.930 . S
C870 C866 1.524 . S
C870 H882 0.956 . S
C870 H883 0.961 . S
C870 H884 0.961 . S
C871 C868 1.539 . S
C871 H885 0.958 . S
C871 H886 0.961 . S
C871 H887 0.960 . S
H872 C856 0.931 . S
H873 C861 0.929 . S
H874 C862 0.960 . S
H875 C862 0.962 . S
H876 C862 0.960 . S
H877 C863 0.961 . S
H878 C863 0.961 . S
H879 C863 0.961 . S
H880 C864 0.931 . S
H881 C869 0.930 . S
H882 C870 0.956 . S
H883 C870 0.961 . S
H884 C870 0.961 . S
H885 C871 0.958 . S
H886 C871 0.961 . S
H887 C871 0.960 . S
C888 C889 1.391 . S
C888 C890 1.394 . S
C888 H904 0.931 . S
C889 C888 1.391 . S
C889 C893 1.376 . S
C890 C888 1.394 . S
C890 C891 1.369 . S
C890 C894 1.531 . S
C891 C890 1.369 . S
C891 C892 1.410 . S
C891 C899 1.503 . S
C892 C891 1.410 . S
C892 C893 1.392 . S
C892 C895 1.511 . S
C893 C889 1.376 . S
C893 C892 1.392 . S
C893 H905 0.929 . S
C894 C890 1.531 . S
C894 H906 0.960 . S
C894 H907 0.962 . S
C894 H908 0.960 . S
C895 C892 1.511 . S
C895 H909 0.961 . S
C895 H910 0.961 . S
C895 H911 0.961 . S
C896 C897 1.370 . S
C896 C898 1.363 . S
C896 H912 0.931 . S
C897 C896 1.370 . S
C897 C901 1.408 . S
C898 C896 1.363 . S
C898 C899 1.370 . S
C898 C902 1.524 . S
C899 C891 1.503 . S
C899 C898 1.370 . S
C899 C900 1.403 . S
C900 C899 1.403 . S
C900 C901 1.404 . S
C900 C903 1.539 . S
C901 C897 1.408 . S
C901 C900 1.404 . S
C901 H913 0.930 . S
C902 C898 1.524 . S
C902 H914 0.956 . S
C902 H915 0.961 . S
C902 H916 0.961 . S
C903 C900 1.539 . S
C903 H917 0.958 . S
C903 H918 0.961 . S
C903 H919 0.960 . S
H904 C888 0.931 . S
H905 C893 0.929 . S
H906 C894 0.960 . S
H907 C894 0.962 . S
H908 C894 0.960 . S
H909 C895 0.961 . S
H910 C895 0.961 . S
H911 C895 0.961 . S
H912 C896 0.931 . S
H913 C901 0.930 . S
H914 C902 0.956 . S
H915 C902 0.961 . S
H916 C902 0.961 . S
H917 C903 0.958 . S
H918 C903 0.961 . S
H919 C903 0.960 . S
C920 C921 1.391 . S
C920 C922 1.394 . S
C920 H936 0.931 . S
C921 C920 1.391 . S
C921 C925 1.376 . S
C922 C920 1.394 . S
C922 C923 1.369 . S
C922 C926 1.531 . S
C923 C922 1.369 . S
C923 C924 1.410 . S
C923 C931 1.503 . S
C924 C923 1.410 . S
C924 C925 1.392 . S
C924 C927 1.511 . S
C925 C921 1.376 . S
C925 C924 1.392 . S
C925 H937 0.929 . S
C926 C922 1.531 . S
C926 H938 0.960 . S
C926 H939 0.962 . S
C926 H940 0.960 . S
C927 C924 1.511 . S
C927 H941 0.961 . S
C927 H942 0.961 . S
C927 H943 0.961 . S
C928 C929 1.370 . S
C928 C930 1.363 . S
C928 H944 0.931 . S
C929 C928 1.370 . S
C929 C933 1.408 . S
C930 C928 1.363 . S
C930 C931 1.370 . S
C930 C934 1.524 . S
C931 C923 1.503 . S
C931 C930 1.370 . S
C931 C932 1.403 . S
C932 C931 1.403 . S
C932 C933 1.404 . S
C932 C935 1.539 . S
C933 C929 1.408 . S
C933 C932 1.404 . S
C933 H945 0.930 . S
C934 C930 1.524 . S
C934 H946 0.956 . S
C934 H947 0.961 . S
C934 H948 0.961 . S
C935 C932 1.539 . S
C935 H949 0.958 . S
C935 H950 0.961 . S
C935 H951 0.960 . S
H936 C920 0.931 . S
H937 C925 0.929 . S
H938 C926 0.960 . S
H939 C926 0.962 . S
H940 C926 0.960 . S
H941 C927 0.961 . S
H942 C927 0.961 . S
H943 C927 0.961 . S
H944 C928 0.931 . S
H945 C933 0.930 . S
H946 C934 0.956 . S
H947 C934 0.961 . S
H948 C934 0.961 . S
H949 C935 0.958 . S
H950 C935 0.961 . S
H951 C935 0.960 . S
C185 N80 1.690 . S
C193 C112 1.700 . S
C225 C142 1.795 . S
C217 N93 1.745 . S
C257 C152 1.551 . S
C249 N54 1.507 . S
C289 C172 1.430 . S
C281 N67 1.393 1_455 S
C321 C113 1.695 . S
C313 N28 1.672 1_556 S
C345 N41 1.783 . S
C353 C143 1.785 . S
C377 N2 1.491 . S
C385 C153 1.546 . S
C409 N15 1.403 . S
C417 C173 1.435 1_655 S
C449 C105 0.840 . S
C441 N70 0.819 . S
C481 C126 0.552 . S
C473 N83 0.605 . S
C513 C145 0.945 . S
C505 N96 0.963 . S
C537 N57 0.719 . S
C545 C165 0.716 . S
C569 N18 0.836 1_455 S
C577 C106 0.820 . S
C609 C125 0.583 1_565 S
C601 N31 0.592 1_556 S
C641 C146 0.954 . S
C633 N44 0.948 . S
C665 N5 0.716 . S
C673 C166 0.734 . S
C697 N66 1.588 1_456 S
C705 C123 1.581 . S
C729 N79 1.446 1_556 S
C737 C133 1.467 . S
C769 C163 1.748 . S
C761 N92 1.706 . S
C801 C183 1.749 . S
C793 N53 1.736 . S
C825 N14 1.546 1_455 S
C833 C122 1.572 . S
C865 C132 1.469 . S
C857 N27 1.432 . S
C897 C162 1.746 . S
C889 N40 1.753 . S
C921 N1 1.760 . S
C929 C182 1.759 . S
