# Generated by pormake.
# Topology zzz, (3,6)-cn, num edge types: 1
# Building blocks:
#     Node 0, Type 0, BuildingBlock: CUQRIR_clean_linker_1, # of connection points: 3
#     Node 1, Type 0, BuildingBlock: CUQRIR_clean_linker_1, # of connection points: 3
#     Node 2, Type 0, BuildingBlock: CUQRIR_clean_linker_1, # of connection points: 3
#     Node 3, Type 0, BuildingBlock: CUQRIR_clean_linker_1, # of connection points: 3
#     Node 4, Type 0, BuildingBlock: CUQRIR_clean_linker_1, # of connection points: 3
#     Node 5, Type 0, BuildingBlock: CUQRIR_clean_linker_1, # of connection points: 3
#     Node 6, Type 0, BuildingBlock: CUQRIR_clean_linker_1, # of connection points: 3
#     Node 7, Type 0, BuildingBlock: CUQRIR_clean_linker_1, # of connection points: 3
#     Node 8, Type 1, BuildingBlock: BETDEL_clean_sbu_0, # of connection points: 6
#     Node 9, Type 1, BuildingBlock: BETDEL_clean_sbu_0, # of connection points: 6
#     Node 10, Type 1, BuildingBlock: BETDEL_clean_sbu_0, # of connection points: 6
#     Node 11, Type 1, BuildingBlock: BETDEL_clean_sbu_0, # of connection points: 6
#     Edge 12, Type (0, 1), BuildingBlock: CIFDUS_clean_linker_0, # of connection points: 2
#     Edge 13, Type (0, 1), BuildingBlock: CIFDUS_clean_linker_0, # of connection points: 2
#     Edge 14, Type (0, 1), BuildingBlock: CIFDUS_clean_linker_0, # of connection points: 2
#     Edge 15, Type (0, 1), BuildingBlock: CIFDUS_clean_linker_0, # of connection points: 2
#     Edge 16, Type (0, 1), BuildingBlock: CIFDUS_clean_linker_0, # of connection points: 2
#     Edge 17, Type (0, 1), BuildingBlock: CIFDUS_clean_linker_0, # of connection points: 2
#     Edge 18, Type (0, 1), BuildingBlock: CIFDUS_clean_linker_0, # of connection points: 2
#     Edge 19, Type (0, 1), BuildingBlock: CIFDUS_clean_linker_0, # of connection points: 2
#     Edge 20, Type (0, 1), BuildingBlock: CIFDUS_clean_linker_0, # of connection points: 2
#     Edge 21, Type (0, 1), BuildingBlock: CIFDUS_clean_linker_0, # of connection points: 2
#     Edge 22, Type (0, 1), BuildingBlock: CIFDUS_clean_linker_0, # of connection points: 2
#     Edge 23, Type (0, 1), BuildingBlock: CIFDUS_clean_linker_0, # of connection points: 2
#     Edge 24, Type (0, 1), BuildingBlock: CIFDUS_clean_linker_0, # of connection points: 2
#     Edge 25, Type (0, 1), BuildingBlock: CIFDUS_clean_linker_0, # of connection points: 2
#     Edge 26, Type (0, 1), BuildingBlock: CIFDUS_clean_linker_0, # of connection points: 2
#     Edge 27, Type (0, 1), BuildingBlock: CIFDUS_clean_linker_0, # of connection points: 2
#     Edge 28, Type (0, 1), BuildingBlock: CIFDUS_clean_linker_0, # of connection points: 2
#     Edge 29, Type (0, 1), BuildingBlock: CIFDUS_clean_linker_0, # of connection points: 2
#     Edge 30, Type (0, 1), BuildingBlock: CIFDUS_clean_linker_0, # of connection points: 2
#     Edge 31, Type (0, 1), BuildingBlock: CIFDUS_clean_linker_0, # of connection points: 2
#     Edge 32, Type (0, 1), BuildingBlock: CIFDUS_clean_linker_0, # of connection points: 2
#     Edge 33, Type (0, 1), BuildingBlock: CIFDUS_clean_linker_0, # of connection points: 2
#     Edge 34, Type (0, 1), BuildingBlock: CIFDUS_clean_linker_0, # of connection points: 2
#     Edge 35, Type (0, 1), BuildingBlock: CIFDUS_clean_linker_0, # of connection points: 2
# Relax obj value: 0.182
# Max RMSD: 0.198
# Mean RMSD: 0.122
data_MOF--net-zzz--node1-BETDEL_clean_sbu_0--node2-CUQRIR_clean_linker_1--edge1-CIFDUS_clean_linker_0
_symmetry_space_group_name_H-M    P1
_symmetry_Int_Tables_number       1
_symmetry_cell_setting            triclinic
loop_
_symmetry_equiv_pos_as_xyz
'x, y, z'
_cell_length_a     39.758779
_cell_length_b     40.76211
_cell_length_c     11.326411
_cell_angle_alpha  90.929417
_cell_angle_beta   88.490272
_cell_angle_gamma 95.118323
loop_
_atom_site_label
_atom_site_type_symbol
_atom_site_fract_x
_atom_site_fract_y
_atom_site_fract_z
_atom_type_partial_charge
C0 C 0.73673 0.52378 0.20285 0.0
N1 N 0.7695 0.51673 0.19125 0.0
N2 N 0.71936 0.514 0.10426 0.0
C3 C 0.72213 0.54145 0.30641 0.0
C4 C 0.7428 0.50123 0.03293 0.0
N5 N 0.77288 0.50287 0.08534 0.0
C6 C 0.73702 0.48943 0.9078 0.0
H7 H 0.70667 0.52323 0.36145 0.0
H8 H 0.70523 0.55962 0.27568 0.0
H9 H 0.7423 0.55393 0.36128 0.0
H10 H 0.74047 0.51082 0.84794 0.0
H11 H 0.71092 0.47772 0.89852 0.0
H12 H 0.7554 0.47164 0.88035 0.0
C13 C 1.00996 0.73986 0.18909 0.0
N14 N 1.00936 0.77288 0.17429 0.0
N15 N 1.01016 0.72389 0.08231 0.0
C16 C 1.01182 0.72338 0.30564 0.0
C17 C 1.00872 0.74817 0.00311 0.0
N18 N 1.00864 0.77747 0.05869 0.0
C19 C 1.00601 0.74317 0.87143 0.0
H20 H 0.03365 0.70818 0.30375 0.0
H21 H 0.98865 0.70654 0.32031 0.0
H22 H 0.01434 0.74162 0.37936 0.0
H23 H 0.99178 0.71922 0.85033 0.0
H24 H 0.03177 0.74319 0.83132 0.0
H25 H 0.99335 0.76325 0.83104 0.0
C26 C 0.77791 0.96802 0.16986 0.0
N27 N 0.74401 0.97105 0.1674 0.0
N28 N 0.79253 0.97194 0.05925 0.0
C29 C 0.79668 0.96231 0.27932 0.0
C30 C 0.76627 0.97779 0.99122 0.0
N31 N 0.73745 0.97696 0.05636 0.0
C32 C 0.76893 0.98592 0.86151 0.0
H33 H 0.80492 0.98651 0.3203 0.0
H34 H 0.81943 0.94926 0.25759 0.0
H35 H 0.78005 0.94802 0.34392 0.0
H36 H 0.76993 0.96276 0.80924 0.0
H37 H 0.79232 1.00203 0.84181 0.0
H38 H 0.74691 0.99819 0.83194 0.0
C39 C 0.53685 0.78612 0.19947 0.0
N40 N 0.5467 0.75494 0.19505 0.0
N41 N 0.54129 0.80058 0.09188 0.0
C42 C 0.52078 0.80167 0.30497 0.0
C43 C 0.55429 0.77716 0.02311 0.0
N44 N 0.55656 0.7494 0.08401 0.0
C45 C 0.56101 0.7799 0.89198 0.0
H46 H 0.49292 0.79741 0.29905 0.0
H47 H 0.52762 0.82866 0.30621 0.0
H48 H 0.5287 0.79082 0.38794 0.0
H49 H 0.5838 0.7674 0.86616 0.0
H50 H 0.56479 0.80604 0.86484 0.0
H51 H 0.53927 0.76746 0.84444 0.0
C52 C 0.28627 0.50724 0.98932 0.0
N53 N 0.25287 0.49639 0.99198 0.0
N54 N 0.29929 0.50588 0.09925 0.0
C55 C 0.30558 0.5202 0.88208 0.0
C56 C 0.27262 0.49384 0.16688 0.0
N57 N 0.2446 0.48886 0.10309 0.0
C58 C 0.27318 0.48862 0.29811 0.0
H59 H 0.3152 0.4992 0.83212 0.0
H60 H 0.32745 0.53748 0.90735 0.0
H61 H 0.28893 0.53264 0.82343 0.0
H62 H 0.26744 0.51162 0.34522 0.0
H63 H 0.29837 0.48206 0.32479 0.0
H64 H 0.25362 0.46879 0.32468 0.0
C65 C 1.00922 0.28245 0.99802 0.0
N66 N 0.01743 0.25143 0.01777 0.0
N67 N 0.01928 0.30313 0.08855 0.0
C68 C 0.98891 0.29178 0.89608 0.0
C69 C 0.03323 0.28326 0.16446 0.0
N70 N 0.0317 0.25197 0.12286 0.0
C71 C 0.04388 0.29364 0.28723 0.0
H72 H 1.00591 0.29513 0.81712 0.0
H73 H 0.9772 0.31509 0.91444 0.0
H74 H 0.96908 0.27173 0.87556 0.0
H75 H 0.02108 0.29599 0.34433 0.0
H76 H 0.05855 0.31809 0.28514 0.0
H77 H 0.05937 0.27544 0.32626 0.0
C78 C 0.25227 0.04596 0.00902 0.0
N79 N 0.28625 0.04667 0.02138 0.0
N80 N 0.23647 0.053 0.11347 0.0
C81 C 0.23407 0.03614 0.89787 0.0
C82 C 0.26239 0.05794 0.18859 0.0
N83 N 0.29223 0.05218 0.13531 0.0
C84 C 0.25778 0.06467 0.31899 0.0
H85 H 0.22187 0.05764 0.86571 0.0
H86 H 0.21375 0.01633 0.91673 0.0
H87 H 0.25148 0.02771 0.82789 0.0
H88 H 0.24548 0.04241 0.36282 0.0
H89 H 0.24077 0.08463 0.33263 0.0
H90 H 0.28235 0.07195 0.36059 0.0
C91 C 0.48813 0.24206 0.96057 0.0
N92 N 0.47864 0.2733 0.95957 0.0
N93 N 0.4808 0.22807 0.06745 0.0
C94 C 0.50712 0.22615 0.86243 0.0
C95 C 0.46651 0.2519 0.1303 0.0
N96 N 0.46609 0.27948 0.06679 0.0
C97 C 0.45706 0.24991 0.25971 0.0
H98 H 0.49777 0.19976 0.85394 0.0
H99 H 0.53425 0.22741 0.88431 0.0
H100 H 0.50442 0.23865 0.77735 0.0
H101 H 0.47894 0.25978 0.31234 0.0
H102 H 0.44984 0.22402 0.28546 0.0
H103 H 0.43579 0.26514 0.28023 0.0
Dy104 Dy 0.02556 1.001 0.68967 0.0
C105 C 0.99365 0.06842 0.27716 0.0
C106 C 0.02535 0.96149 0.87758 0.0
Dy107 Dy 0.99445 0.02754 0.46164 0.0
O108 O 0.0514 0.98085 0.8424 0.0
O109 O 0.99934 0.96593 0.81495 0.0
O110 O 0.08098 1.00615 0.62345 0.0
O111 O 0.04247 0.01901 0.52216 0.0
C112 C 0.07378 0.01779 0.52172 0.0
C113 C 0.94952 0.99907 0.61809 0.0
O114 O 1.00503 0.97731 0.39363 0.0
O115 O 1.01364 0.955 0.5775 0.0
O116 O 0.96997 0.06444 0.3587 0.0
O117 O 0.01544 0.04696 0.2899 0.0
O118 O 0.94515 0.99864 0.50405 0.0
O119 O 0.97632 0.01693 0.64249 0.0
O120 O 0.02169 0.05295 0.75479 0.0
O121 O 1.00906 0.0736 0.57113 0.0
C122 C 1.00938 0.95188 0.46179 0.0
C123 C 0.01654 0.07781 0.68468 0.0
Dy124 Dy 0.49575 0.98895 0.49329 0.0
C125 C 0.59048 0.0511 0.76228 0.0
C126 C 0.44953 0.96684 0.33047 0.0
Dy127 Dy 0.5324 0.03646 0.64979 0.0
O128 O 0.4809 0.9766 0.30784 0.0
O129 O 0.44509 0.96516 0.4443 0.0
O130 O 0.54268 0.96212 0.46242 0.0
O131 O 0.54664 0.01353 0.48218 0.0
C132 C 0.56342 0.98863 0.46763 0.0
C133 C 0.46781 0.03864 0.72067 0.0
O134 O 0.52936 0.07292 0.50766 0.0
O135 O 0.49069 0.03795 0.40692 0.0
O136 O 0.56443 0.06817 0.77607 0.0
O137 O 0.58478 0.02798 0.68415 0.0
O138 O 0.49301 0.05725 0.7636 0.0
O139 O 0.47805 0.02032 0.63688 0.0
O140 O 0.494 0.95482 0.64682 0.0
O141 O 0.53037 0.98994 0.75466 0.0
C142 C 0.50823 0.06702 0.42012 0.0
C143 C 0.51253 0.96128 0.74099 0.0
Dy144 Dy 0.50078 0.52843 0.66912 0.0
C145 C 0.53419 0.45336 0.29604 0.0
C146 C 0.5025 0.57039 0.856 0.0
Dy147 Dy 0.53603 0.49831 0.47365 0.0
O148 O 0.47493 0.55995 0.80212 0.0
O149 O 0.52791 0.55633 0.81161 0.0
O150 O 0.44936 0.51436 0.59751 0.0
O151 O 0.49071 0.5247 0.48012 0.0
C152 C 0.45972 0.51426 0.48718 0.0
C153 C 0.57738 0.51708 0.64632 0.0
O154 O 0.54427 0.54991 0.403 0.0
O155 O 0.52147 0.57381 0.57012 0.0
O156 O 0.56229 0.46741 0.33773 0.0
O157 O 0.50866 0.46474 0.34968 0.0
O158 O 0.58666 0.51758 0.53496 0.0
O159 O 0.54743 0.5037 0.66012 0.0
O160 O 0.48912 0.47713 0.73601 0.0
O161 O 0.51786 0.4535 0.58137 0.0
C162 C 0.53711 0.57639 0.46557 0.0
C163 C 0.4993 0.45088 0.68008 0.0
Dy164 Dy 1.00145 0.49647 0.68582 0.0
C165 C 0.06988 0.55024 0.27469 0.0
C166 C 0.96137 0.49541 0.88097 0.0
Dy167 Dy 0.02905 0.53698 0.46603 0.0
O168 O 0.97684 0.47017 0.84305 0.0
O169 O 0.9703 0.52097 0.81718 0.0
O170 O 0.99661 0.44536 0.60173 0.0
O171 O 0.01394 0.48681 0.50582 0.0
C172 C 1.00709 0.45613 0.49812 0.0
C173 C 1.01125 0.57297 0.65405 0.0
O174 O 0.97473 0.53076 0.41285 0.0
O175 O 0.95439 0.50687 0.58936 0.0
O176 O 0.06711 0.56991 0.36516 0.0
O177 O 0.04741 0.52523 0.28475 0.0
O178 O 1.00852 0.58187 0.54464 0.0
O179 O 0.02515 0.5462 0.6545 0.0
O180 O 0.05613 0.49785 0.73131 0.0
O181 O 0.07656 0.52471 0.55904 0.0
C182 C 0.94948 0.51863 0.4829 0.0
C183 C 0.08143 0.51051 0.66202 0.0
H184 H 0.18316 0.08779 0.1702 0.0
H185 H 0.21658 0.99031 0.15927 0.0
H186 H 0.16814 0.97001 0.28357 0.0
H187 H 0.11992 0.98152 0.41477 0.0
H188 H 0.08262 0.07745 0.41352 0.0
H189 H 0.12834 0.09695 0.27451 0.0
C190 C 0.17891 0.06189 0.19133 0.0
C191 C 0.20309 0.04037 0.15412 0.0
C192 C 0.15068 0.05036 0.26289 0.0
C193 C 0.19783 1.007 0.18455 0.0
C194 C 0.17043 0.99556 0.25713 0.0
C195 C 0.1216 1.00655 0.3826 0.0
C196 C 0.09839 0.0282 0.42565 0.0
C197 C 0.14728 0.0172 0.29993 0.0
C198 C 0.10039 0.06042 0.38205 0.0
C199 C 0.12658 0.07156 0.30274 0.0
H200 H 0.4631 0.16347 0.03276 0.0
H201 H 0.53041 0.23232 0.22364 0.0
H202 H 0.546 0.18832 0.35051 0.0
H203 H 0.53637 0.13106 0.4185 0.0
H204 H 0.46995 0.06182 0.22369 0.0
H205 H 0.45869 0.10452 0.08628 0.0
C206 C 0.48192 0.16842 0.09982 0.0
C207 C 0.49558 0.20089 0.11953 0.0
C208 C 0.49059 0.14294 0.17285 0.0
C209 C 0.51973 0.20732 0.20734 0.0
C210 C 0.5284 0.18226 0.28031 0.0
C211 C 0.51959 0.12524 0.3457 0.0
C212 C 0.50347 0.09323 0.33341 0.0
C213 C 0.51328 0.15009 0.26611 0.0
C214 C 0.48219 0.08624 0.23711 0.0
C215 C 0.47579 0.11071 0.15786 0.0
H216 H 0.36188 0.48639 0.05878 0.0
H217 H 0.3066 0.55688 0.25074 0.0
H218 H 0.35203 0.56624 0.3919 0.0
H219 H 0.40353 0.54751 0.47745 0.0
H220 H 0.4636 0.4853 0.26507 0.0
H221 H 0.42094 0.47951 0.11639 0.0
C222 C 0.36057 0.50485 0.12837 0.0
C223 C 0.33067 0.52034 0.14642 0.0
C224 C 0.38724 0.51066 0.20818 0.0
C225 C 0.32934 0.54442 0.23644 0.0
C226 C 0.3551 0.54946 0.31801 0.0
C227 C 0.40743 0.53292 0.39814 0.0
C228 C 0.43615 0.51519 0.38701 0.0
C229 C 0.38347 0.53147 0.30803 0.0
C230 C 0.44136 0.49777 0.28082 0.0
C231 C 0.41688 0.49476 0.19387 0.0
H232 H 0.05304 0.36317 0.08791 0.0
H233 H 0.95817 0.31021 0.18334 0.0
H234 H 0.94417 0.35541 0.31551 0.0
H235 H 0.96366 0.40539 0.4285 0.0
H236 H 0.05796 0.45951 0.33173 0.0
H237 H 0.06757 0.41905 0.17409 0.0
C238 C 0.02867 0.36246 0.13341 0.0
C239 C 1.00644 0.3337 0.12551 0.0
C240 C 0.0212 0.38839 0.21098 0.0
C241 C 0.9752 0.33247 0.18665 0.0
C242 C 0.96754 0.35803 0.26372 0.0
C243 C 0.98597 0.40858 0.37115 0.0
C244 C 1.01029 0.43511 0.39162 0.0
C245 C 0.99106 0.38536 0.28066 0.0
C246 C 0.0389 0.43935 0.31649 0.0
C247 C 0.04444 0.41609 0.22712 0.0
H248 H 0.81747 0.9368 0.88082 0.0
H249 H 0.84578 0.01191 0.13901 0.0
H250 H 0.89995 0.02499 0.03231 0.0
H251 H 0.93574 0.02013 0.84782 0.0
H252 H 0.902 0.94909 0.58025 0.0
H253 H 0.8535 0.93008 0.70493 0.0
C254 C 0.83583 0.95564 0.91474 0.0
C255 C 0.82753 0.97336 0.01777 0.0
C256 C 0.86573 0.96438 0.84859 0.0
C257 C 0.85165 0.99759 0.06104 0.0
C258 C 0.8824 1.00542 0.99859 0.0
C259 C 0.91805 1.00012 0.818 0.0
C260 C 0.92263 0.98603 0.70423 0.0
C261 C 0.88924 0.98981 0.88962 0.0
C262 C 0.89916 0.96041 0.66674 0.0
C263 C 0.87136 0.94946 0.73825 0.0
H264 H 0.55938 0.86534 0.12654 0.0
H265 H 0.48862 0.79689 0.94862 0.0
H266 H 0.47198 0.8408 0.82364 0.0
H267 H 0.48248 0.89763 0.74978 0.0
H268 H 0.54916 0.96738 0.94209 0.0
H269 H 0.56226 0.92456 0.07572 0.0
C270 C 0.53948 0.86047 0.06331 0.0
C271 C 0.52531 0.82802 0.04613 0.0
C272 C 0.52988 0.88601 0.99207 0.0
C273 C 0.49972 0.82182 0.96316 0.0
C274 C 0.49048 0.84685 0.89096 0.0
C275 C 0.49954 0.9036 0.82167 0.0
C276 C 0.51584 0.9356 0.83187 0.0
C277 C 0.50618 0.8789 0.90187 0.0
C278 C 0.53726 0.9428 0.92799 0.0
C279 C 0.54458 0.9183 0.00588 0.0
H280 H 0.70559 0.55751 0.94455 0.0
H281 H 0.65964 0.48245 0.17319 0.0
H282 H 0.60763 0.47938 0.05879 0.0
H283 H 0.57955 0.4915 0.87092 0.0
H284 H 0.63008 0.56276 0.63392 0.0
H285 H 0.67571 0.57389 0.77215 0.0
C286 C 0.68357 0.54151 0.97168 0.0
C287 C 0.68615 0.52049 0.06745 0.0
C288 C 0.6549 0.53852 0.901 0.0
C289 C 0.65791 0.49922 0.10089 0.0
C290 C 0.62846 0.4971 0.03398 0.0
C291 C 0.60025 0.50991 0.85114 0.0
C292 C 0.60162 0.5261 0.74159 0.0
C293 C 0.62725 0.51554 0.9303 0.0
C294 C 0.62865 0.54974 0.71682 0.0
C295 C 0.65476 0.55619 0.79602 0.0
H296 H 0.05814 0.69931 0.94981 0.0
H297 H 0.96516 0.67248 0.14018 0.0
H298 H 0.9588 0.61959 0.03177 0.0
H299 H 0.97471 0.58617 0.85582 0.0
H300 H 0.06506 0.61736 0.65422 0.0
H301 H 0.07703 0.66384 0.78997 0.0
C302 C 0.03709 0.6813 0.96975 0.0
C303 C 1.01212 0.68962 0.05212 0.0
C304 C 0.03254 0.65234 0.9013 0.0
C305 C 0.98482 0.66638 0.07781 0.0
C306 C 0.98091 0.63648 0.01407 0.0
C307 C 0.99728 0.60283 0.84348 0.0
C308 C 0.01895 0.59861 0.74517 0.0
C309 C 1.00373 0.62997 0.9213 0.0
C310 C 0.04802 0.6204 0.72912 0.0
C311 C 0.05492 0.64686 0.80685 0.0
H312 H 0.06715 0.20005 0.0858 0.0
H313 H 0.99196 0.23946 0.31399 0.0
H314 H 0.97253 0.18445 0.38104 0.0
H315 H 0.9705 0.12536 0.34801 0.0
H316 H 0.04406 0.08434 0.11536 0.0
H317 H 0.06949 0.13987 0.07043 0.0
C318 C 0.04756 0.19638 0.15392 0.0
C319 C 0.03088 0.22334 0.19481 0.0
C320 C 0.03493 0.16449 0.18519 0.0
C321 C 1.00543 0.21893 0.28291 0.0
C322 C 0.99368 0.18744 0.31857 0.0
C323 C 0.99173 0.12853 0.28582 0.0
C324 C 1.00464 0.10104 0.23127 0.0
C325 C 1.0069 0.16009 0.26466 0.0
C326 C 0.03297 0.1054 0.15464 0.0
C327 C 0.04794 0.13698 0.13119 0.0
H328 H 0.35991 0.06397 0.10844 0.0
H329 H 0.28183 1.00248 0.28961 0.0
H330 H 0.32365 0.96828 0.36177 0.0
H331 H 0.38236 0.95438 0.36538 0.0
H332 H 0.45724 1.00654 0.13895 0.0
H333 H 0.41587 0.04332 0.07885 0.0
C334 C 0.35193 0.0426 0.16074 0.0
C335 C 0.31785 0.03608 0.19379 0.0
C336 C 0.37526 0.02034 0.1885 0.0
C337 C 0.30811 1.00899 0.26653 0.0
C338 C 0.33184 0.98874 0.30488 0.0
C339 C 0.38926 0.97301 0.29961 0.0
C340 C 0.42281 0.97818 0.2586 0.0
C341 C 0.36535 0.99374 0.2641 0.0
C342 C 0.4315 1.00223 0.17265 0.0
C343 C 0.40808 0.0237 0.1399 0.0
H344 H 0.52454 0.30561 0.14171 0.0
H345 H 0.42086 0.32448 0.10096 0.0
H346 H 0.43493 0.38309 0.14904 0.0
H347 H 0.47698 0.4279 0.20112 0.0
H348 H 0.58039 0.40848 0.25471 0.0
H349 H 0.56677 0.35063 0.19717 0.0
C350 C 0.50512 0.3227 0.14658 0.0
C351 C 0.47184 0.31147 0.11968 0.0
C352 C 0.51365 0.35589 0.17191 0.0
C353 C 0.44647 0.33309 0.12361 0.0
C354 C 0.45467 0.36639 0.14895 0.0
C355 C 0.49672 0.41113 0.19791 0.0
C356 C 0.52971 0.42219 0.23078 0.0
C357 C 0.48826 0.37799 0.17165 0.0
C358 C 0.55506 0.40045 0.22714 0.0
C359 C 0.5471 0.3674 0.19675 0.0
H360 H 0.22406 0.54605 0.16792 0.0
H361 H 0.19271 0.44269 0.13623 0.0
H362 H 0.1334 0.45396 0.16758 0.0
H363 H 0.09152 0.49358 0.19385 0.0
H364 H 0.12294 0.59678 0.2464 0.0
H365 H 0.18194 0.58575 0.20941 0.0
C366 C 0.20404 0.52615 0.17133 0.0
C367 C 0.21188 0.49372 0.15062 0.0
C368 C 0.17054 0.53303 0.18721 0.0
C369 C 0.18655 0.46771 0.15316 0.0
C370 C 0.15294 0.47427 0.16899 0.0
C371 C 0.11114 0.51381 0.19523 0.0
C372 C 0.10301 0.54605 0.22051 0.0
C373 C 0.14472 0.50693 0.18293 0.0
C374 C 0.12872 0.57193 0.22393 0.0
C375 C 0.16234 0.56552 0.20537 0.0
H376 H 0.06029 0.82042 0.00344 0.0
H377 H 0.95219 0.80299 0.99824 0.0
H378 H 0.94749 0.86085 0.94916 0.0
H379 H 0.97422 0.91645 0.92525 0.0
H380 H 0.0825 0.93534 0.9461 0.0
H381 H 0.08726 0.87697 0.98388 0.0
C382 C 0.03592 0.82964 0.99031 0.0
C383 C 1.00654 0.8085 0.00512 0.0
C384 C 0.03353 0.86308 0.97218 0.0
C385 C 0.97485 0.81956 0.98713 0.0
C386 C 0.97226 0.85246 0.96145 0.0
C387 C 0.99882 0.90793 0.94058 0.0
C388 C 0.02795 0.92994 0.93391 0.0
C389 C 1.00137 0.87457 0.95827 0.0
C390 C 0.05971 0.91874 0.95285 0.0
C391 C 0.06249 0.88538 0.97176 0.0
H392 H 0.72306 0.03795 0.02277 0.0
H393 H 0.68241 0.93664 0.01336 0.0
H394 H 0.62826 0.95295 0.94537 0.0
H395 H 0.59703 0.9951 0.86383 0.0
H396 H 0.63842 0.09634 0.85461 0.0
H397 H 0.6883 0.08165 0.9598 0.0
C398 C 0.70203 0.01983 0.00556 0.0
C399 C 0.70601 0.98639 0.01869 0.0
C400 C 0.6717 0.0295 0.96551 0.0
C401 C 0.67925 0.96244 1.00029 0.0
C402 C 0.64862 0.97179 0.96271 0.0
C403 C 0.61647 0.01412 0.88866 0.0
C404 C 0.61471 0.04658 0.85236 0.0
C405 C 0.64509 1.00513 0.942 0.0
C406 C 0.63971 0.07125 0.88298 0.0
C407 C 0.66816 0.06272 0.94121 0.0
H408 H 0.49955 0.71097 0.08233 0.0
H409 H 0.60383 0.71704 0.967 0.0
H410 H 0.59631 0.66004 0.89081 0.0
H411 H 0.56019 0.60905 0.86378 0.0
H412 H 0.45564 0.60265 0.98136 0.0
H413 H 0.46352 0.65933 0.05906 0.0
C414 C 0.52051 0.69948 0.04089 0.0
C415 C 0.55219 0.71737 0.03024 0.0
C416 C 0.51616 0.66683 0.00243 0.0
C417 C 0.57935 0.70322 0.97515 0.0
C418 C 0.57507 0.67079 0.93331 0.0
C419 C 0.53923 0.61981 0.90835 0.0
C420 C 0.50744 0.60187 0.91891 0.0
C421 C 0.5437 0.65234 0.94831 0.0
C422 C 0.48031 0.61617 0.97392 0.0
C423 C 0.48476 0.64849 0.01688 0.0
H424 H 0.81891 0.46068 0.12376 0.0
H425 H 0.79768 0.54409 0.91922 0.0
H426 H 0.85611 0.55052 0.84488 0.0
H427 H 0.91269 0.53432 0.84762 0.0
H428 H 0.93559 0.44897 0.04076 0.0
H429 H 0.87677 0.44202 0.11662 0.0
C430 C 0.82732 0.47972 0.06123 0.0
C431 C 0.80469 0.50175 0.02515 0.0
C432 C 0.861 0.48354 0.02142 0.0
C433 C 0.81505 0.52665 0.94512 0.0
C434 C 0.84834 0.5306 0.90471 0.0
C435 C 0.90513 0.51436 0.9077 0.0
C436 C 0.92839 0.49256 0.94142 0.0
C437 C 0.87154 0.50963 0.94452 0.0
C438 C 0.918 0.46634 0.01615 0.0
C439 C 0.88447 0.46219 0.0579 0.0
H440 H 0.04782 0.22909 0.8208 0.0
H441 H 0.96638 0.20544 0.07061 0.0
H442 H 0.96082 0.14822 0.99848 0.0
H443 H 0.98152 0.1038 0.87007 0.0
H444 H 0.05744 0.12938 0.60091 0.0
H445 H 0.06276 0.1866 0.67293 0.0
C446 C 0.02812 0.21162 0.8562 0.0
C447 C 1.00769 0.22141 0.95144 0.0
C448 C 0.0246 0.17884 0.81201 0.0
C449 C 0.98232 0.19847 0.99715 0.0
C450 C 0.97939 0.16566 0.95659 0.0
C451 C 0.99929 0.12195 0.82775 0.0
C452 C 0.01975 0.1122 0.73224 0.0
C453 C 1.00095 0.1553 0.86583 0.0
C454 C 0.04192 0.13616 0.67595 0.0
C455 C 0.04482 0.16894 0.7167 0.0
H456 H 0.33185 0.09043 0.92169 0.0
H457 H 0.30084 0.98697 0.93562 0.0
H458 H 0.3533 0.9745 0.8304 0.0
H459 H 0.41166 0.99327 0.75439 0.0
H460 H 0.4439 0.09707 0.76758 0.0
H461 H 0.3883 0.10918 0.84203 0.0
C462 C 0.33616 0.06527 0.89744 0.0
C463 C 0.3122 0.0397 0.93395 0.0
C464 C 0.3673 0.05835 0.8438 0.0
C465 C 0.31855 1.00706 0.90611 0.0
C466 C 0.34884 0.99999 0.84759 0.0
C467 C 0.40618 0.01852 0.77122 0.0
C468 C 0.432 0.04427 0.75341 0.0
C469 C 0.37398 0.02539 0.81877 0.0
C470 C 0.42462 0.07678 0.7793 0.0
C471 C 0.3927 0.08379 0.82206 0.0
H472 H 0.43601 0.3146 0.88276 0.0
H473 H 0.53965 0.29242 0.85486 0.0
H474 H 0.555 0.3452 0.75757 0.0
H475 H 0.53968 0.40052 0.69948 0.0
H476 H 0.43797 0.42609 0.76655 0.0
H477 H 0.42125 0.3701 0.83455 0.0
C478 C 0.46185 0.32118 0.85313 0.0
C479 C 0.48646 0.29925 0.874 0.0
C480 C 0.47094 0.35283 0.8083 0.0
C481 C 0.51996 0.30816 0.83644 0.0
C482 C 0.52884 0.33877 0.78341 0.0
C483 C 0.51386 0.39373 0.72897 0.0
C484 C 0.49001 0.41741 0.72768 0.0
C485 C 0.50472 0.36173 0.77206 0.0
C486 C 0.45679 0.40844 0.76746 0.0
C487 C 0.44718 0.37634 0.80533 0.0
H488 H 0.22755 0.54541 0.86949 0.0
H489 H 0.21951 0.44069 0.91976 0.0
H490 H 0.16434 0.4352 0.82782 0.0
H491 H 0.11572 0.46092 0.74829 0.0
H492 H 0.12627 0.5646 0.67357 0.0
H493 H 0.18277 0.56988 0.75724 0.0
C494 C 0.2145 0.52127 0.85457 0.0
C495 C 0.22801 0.49332 0.89984 0.0
C496 C 0.18269 0.51825 0.79944 0.0
C497 C 0.21004 0.46236 0.88317 0.0
C498 C 0.17818 0.45931 0.83243 0.0
C499 C 0.13056 0.48457 0.74944 0.0
C500 C 0.1166 0.5124 0.70612 0.0
C501 C 0.16376 0.48717 0.79304 0.0
C502 C 0.13636 0.54281 0.70679 0.0
C503 C 0.16874 0.54585 0.75467 0.0
H504 H 0.05661 0.82291 0.21393 0.0
H505 H 0.95713 0.78355 0.32371 0.0
H506 H 0.94808 0.83558 0.42847 0.0
H507 H 0.96707 0.89468 0.47315 0.0
H508 H 0.06244 0.9359 0.32695 0.0
H509 H 0.07388 0.88186 0.24579 0.0
C510 C 0.03295 0.82582 0.26077 0.0
C511 C 1.00756 0.7994 0.2609 0.0
C512 C 0.02689 0.85671 0.31075 0.0
C513 C 0.97729 0.80324 0.32418 0.0
C514 C 0.97192 0.83326 0.38192 0.0
C515 C 0.99022 0.89171 0.42292 0.0
C516 C 0.01395 0.91925 0.40588 0.0
C517 C 0.99619 0.86055 0.37307 0.0
C518 C 0.04378 0.91516 0.34047 0.0
C519 C 0.05044 0.88419 0.29493 0.0
H520 H 0.71448 0.02106 0.27322 0.0
H521 H 0.71085 0.91558 0.25171 0.0
H522 H 0.65422 0.91107 0.34534 0.0
H523 H 0.60303 0.9376 0.41559 0.0
H524 H 0.6068 0.04362 0.43167 0.0
H525 H 0.66538 0.04754 0.35822 0.0
C526 C 0.70189 0.99712 0.29442 0.0
C527 C 0.71764 0.96864 0.25943 0.0
C528 C 0.66869 0.99489 0.34442 0.0
C529 C 0.70012 0.93779 0.28222 0.0
C530 C 0.66733 0.9353 0.33345 0.0
C531 C 0.61677 0.96157 0.40431 0.0
C532 C 0.60012 0.99031 0.42927 0.0
C533 C 0.65091 0.9637 0.36217 0.0
C534 C 0.61861 0.02108 0.41345 0.0
C535 C 0.6523 0.02335 0.37145 0.0
H536 H 0.59206 0.71262 0.24055 0.0
H537 H 0.49135 0.73619 0.33439 0.0
H538 H 0.48022 0.68318 0.43326 0.0
H539 H 0.4972 0.62734 0.474 0.0
H540 H 0.59486 0.60104 0.35102 0.0
H541 H 0.60888 0.65718 0.27928 0.0
C542 C 0.56798 0.70643 0.28558 0.0
C543 C 0.54289 0.72884 0.282 0.0
C544 C 0.56088 0.67479 0.33325 0.0
C545 C 0.51158 0.72023 0.339 0.0
C546 C 0.50495 0.68944 0.39305 0.0
C547 C 0.52157 0.63399 0.43159 0.0
C548 C 0.54498 0.61002 0.41739 0.0
C549 C 0.52905 0.66613 0.38756 0.0
C550 C 0.57632 0.61886 0.36156 0.0
C551 C 0.5844 0.65105 0.32154 0.0
H552 H 0.7969 0.47963 0.34907 0.0
H553 H 0.80891 0.57393 0.18277 0.0
H554 H 0.86697 0.58321 0.25334 0.0
H555 H 0.91625 0.56213 0.35157 0.0
H556 H 0.90259 0.46762 0.52021 0.0
H557 H 0.84406 0.46047 0.45877 0.0
C558 C 0.81181 0.50279 0.33314 0.0
C559 C 0.79821 0.52656 0.26434 0.0
C560 C 0.84546 0.50742 0.37153 0.0
C561 C 0.81837 0.55586 0.23934 0.0
C562 C 0.85184 0.5608 0.27765 0.0
C563 C 0.90039 0.54005 0.37487 0.0
C564 C 0.91399 0.51542 0.44059 0.0
C565 C 0.86603 0.53638 0.34167 0.0
C566 C 0.89289 0.48706 0.47051 0.0
C567 C 0.85927 0.48294 0.43558 0.0
loop_
_geom_bond_atom_site_label_1
_geom_bond_atom_site_label_2
_geom_bond_distance
_geom_bond_site_symmetry_2
_ccdc_geom_bond_type
C0 N1 1.317 . S
C0 N2 1.348 . S
C0 C3 1.485 . S
N1 C0 1.317 . S
N1 N5 1.370 . S
N2 C0 1.348 . S
N2 C4 1.346 . S
C3 C0 1.485 . S
C3 H7 0.960 . S
C3 H8 0.961 . S
C3 H9 0.960 . S
C4 N2 1.346 . S
C4 N5 1.307 . S
C4 C6 1.486 1_554 S
N5 N1 1.370 . S
N5 C4 1.307 . S
C6 C4 1.486 1_556 S
C6 H10 0.960 . S
C6 H11 0.960 . S
C6 H12 0.959 . S
H7 C3 0.960 . S
H8 C3 0.961 . S
H9 C3 0.960 . S
H10 C6 0.960 . S
H11 C6 0.960 . S
H12 C6 0.959 . S
C13 N14 1.317 . S
C13 N15 1.348 . S
C13 C16 1.485 . S
N14 C13 1.317 . S
N14 N18 1.370 . S
N15 C13 1.348 . S
N15 C17 1.346 1_654 S
C16 C13 1.485 . S
C16 H20 0.960 1_655 S
C16 H21 0.961 . S
C16 H22 0.960 . S
C17 N15 1.346 1_456 S
C17 N18 1.306 1_456 S
C17 C19 1.486 . S
N18 N14 1.370 . S
N18 C17 1.306 1_654 S
C19 C17 1.486 . S
C19 H23 0.960 1_455 S
C19 H24 0.960 . S
C19 H25 0.959 . S
H20 C16 0.960 1_455 S
H21 C16 0.961 . S
H22 C16 0.960 . S
H23 C19 0.960 1_655 S
H24 C19 0.960 . S
H25 C19 0.959 . S
C26 N27 1.317 . S
C26 N28 1.348 . S
C26 C29 1.485 . S
N27 C26 1.317 . S
N27 N31 1.370 . S
N28 C26 1.348 . S
N28 C30 1.346 1_554 S
C29 C26 1.485 . S
C29 H33 0.960 . S
C29 H34 0.961 . S
C29 H35 0.960 . S
C30 N28 1.346 1_556 S
C30 N31 1.307 1_556 S
C30 C32 1.486 . S
N31 N27 1.370 . S
N31 C30 1.307 1_554 S
C32 C30 1.486 . S
C32 H36 0.960 . S
C32 H37 0.960 . S
C32 H38 0.959 . S
H33 C29 0.960 . S
H34 C29 0.961 . S
H35 C29 0.960 . S
H36 C32 0.960 . S
H37 C32 0.960 . S
H38 C32 0.959 . S
C39 N40 1.317 . S
C39 N41 1.348 . S
C39 C42 1.485 . S
N40 C39 1.317 . S
N40 N44 1.370 . S
N41 C39 1.348 . S
N41 C43 1.346 . S
C42 C39 1.485 . S
C42 H46 0.960 . S
C42 H47 0.961 . S
C42 H48 0.960 . S
C43 N41 1.346 . S
C43 N44 1.307 . S
C43 C45 1.486 1_554 S
N44 N40 1.370 . S
N44 C43 1.307 . S
C45 C43 1.486 1_556 S
C45 H49 0.960 . S
C45 H50 0.960 . S
C45 H51 0.959 . S
H46 C42 0.960 . S
H47 C42 0.961 . S
H48 C42 0.960 . S
H49 C45 0.960 . S
H50 C45 0.960 . S
H51 C45 0.959 . S
C52 N53 1.317 . S
C52 N54 1.348 1_556 S
C52 C55 1.485 . S
N53 C52 1.317 . S
N53 N57 1.370 1_556 S
N54 C52 1.348 1_554 S
N54 C56 1.346 . S
C55 C52 1.485 . S
C55 H59 0.960 . S
C55 H60 0.961 . S
C55 H61 0.960 . S
C56 N54 1.346 . S
C56 N57 1.307 . S
C56 C58 1.486 . S
N57 N53 1.370 1_554 S
N57 C56 1.307 . S
C58 C56 1.486 . S
C58 H62 0.960 . S
C58 H63 0.960 . S
C58 H64 0.959 . S
H59 C55 0.960 . S
H60 C55 0.961 . S
H61 C55 0.960 . S
H62 C58 0.960 . S
H63 C58 0.960 . S
H64 C58 0.959 . S
C65 N66 1.317 1_556 S
C65 N67 1.349 1_556 S
C65 C68 1.485 . S
N66 C65 1.317 1_554 S
N66 N70 1.371 . S
N67 C65 1.349 1_554 S
N67 C69 1.341 1_655 S
C68 C65 1.485 . S
C68 H72 0.960 1_655 S
C68 H73 0.961 . S
C68 H74 0.960 . S
C69 N67 1.341 1_455 S
C69 N70 1.308 1_455 S
C69 C71 1.487 . S
N70 N66 1.371 . S
N70 C69 1.308 1_655 S
C71 C69 1.487 . S
C71 H75 0.960 1_455 S
C71 H76 0.960 . S
C71 H77 0.959 . S
H72 C68 0.960 1_455 S
H73 C68 0.961 . S
H74 C68 0.960 . S
H75 C71 0.960 1_655 S
H76 C71 0.960 . S
H77 C71 0.959 . S
C78 N79 1.317 . S
C78 N80 1.348 . S
C78 C81 1.485 1_554 S
N79 C78 1.317 . S
N79 N83 1.370 . S
N80 C78 1.348 . S
N80 C82 1.346 . S
C81 C78 1.485 1_556 S
C81 H85 0.960 . S
C81 H86 0.961 . S
C81 H87 0.960 . S
C82 N80 1.346 . S
C82 N83 1.307 . S
C82 C84 1.486 . S
N83 N79 1.370 . S
N83 C82 1.307 . S
C84 C82 1.486 . S
C84 H88 0.960 . S
C84 H89 0.960 . S
C84 H90 0.959 . S
H85 C81 0.960 . S
H86 C81 0.961 . S
H87 C81 0.960 . S
H88 C84 0.960 . S
H89 C84 0.960 . S
H90 C84 0.959 . S
C91 N92 1.317 . S
C91 N93 1.348 1_556 S
C91 C94 1.485 . S
N92 C91 1.317 . S
N92 N96 1.370 1_556 S
N93 C91 1.348 1_554 S
N93 C95 1.346 . S
C94 C91 1.485 . S
C94 H98 0.960 . S
C94 H99 0.961 . S
C94 H100 0.960 . S
C95 N93 1.346 . S
C95 N96 1.307 . S
C95 C97 1.486 . S
N96 N92 1.370 1_554 S
N96 C95 1.307 . S
C97 C95 1.486 . S
C97 H101 0.960 . S
C97 H102 0.960 . S
C97 H103 0.959 . S
H98 C94 0.960 . S
H99 C94 0.961 . S
H100 C94 0.960 . S
H101 C97 0.960 . S
H102 C97 0.960 . S
H103 C97 0.959 . S
Dy104 O108 2.398 . S
Dy104 O109 2.491 1_455 S
Dy104 O110 2.403 . S
Dy104 O111 2.664 1_565 S
Dy104 O115 2.326 . S
Dy104 O119 2.310 1_455 S
Dy104 O120 2.351 1_565 S
C105 O116 1.185 . S
C105 O117 1.355 1_655 S
C106 O108 1.185 . S
C106 O109 1.355 1_455 S
Dy107 O111 2.310 1_655 S
Dy107 O114 2.351 1_545 S
Dy107 O116 2.398 . S
Dy107 O117 2.491 1_655 S
Dy107 O118 2.403 . S
Dy107 O119 2.664 1_545 S
Dy107 O121 2.326 . S
O108 Dy104 2.398 . S
O108 C106 1.185 . S
O109 Dy104 2.491 1_655 S
O109 C106 1.355 1_655 S
O110 Dy104 2.403 . S
O110 C112 1.254 1_565 S
O111 Dy104 2.664 1_545 S
O111 Dy107 2.310 1_455 S
O111 C112 1.268 . S
C112 O110 1.254 1_545 S
C112 O111 1.268 . S
C113 O118 1.254 1_565 S
C113 O119 1.268 . S
O114 Dy107 2.351 1_565 S
O114 C122 1.249 . S
O115 Dy104 2.326 . S
O115 C122 1.267 1_455 S
O116 C105 1.185 . S
O116 Dy107 2.398 . S
O117 C105 1.355 1_455 S
O117 Dy107 2.491 1_455 S
O118 Dy107 2.403 . S
O118 C113 1.254 1_545 S
O119 Dy104 2.310 1_655 S
O119 Dy107 2.664 1_565 S
O119 C113 1.268 . S
O120 Dy104 2.351 1_545 S
O120 C123 1.249 . S
O121 Dy107 2.326 . S
O121 C123 1.267 1_655 S
C122 O114 1.249 . S
C122 O115 1.267 1_655 S
C123 O120 1.249 . S
C123 O121 1.267 1_455 S
Dy124 O128 2.398 . S
Dy124 O129 2.491 1_565 S
Dy124 O130 2.403 . S
Dy124 O131 2.664 . S
Dy124 O135 2.326 1_565 S
Dy124 O139 2.310 1_565 S
Dy124 O140 2.351 . S
C125 O136 1.185 . S
C125 O137 1.355 1_545 S
C126 O128 1.165 1_545 S
C126 O129 1.364 . S
Dy127 O131 2.310 1_545 S
Dy127 O134 2.351 . S
Dy127 O136 2.398 . S
Dy127 O137 2.491 1_545 S
Dy127 O138 2.403 . S
Dy127 O139 2.664 . S
Dy127 O141 2.326 1_545 S
O128 Dy124 2.398 . S
O128 C126 1.165 1_565 S
O129 Dy124 2.491 1_545 S
O129 C126 1.364 . S
O130 Dy124 2.403 . S
O130 C132 1.254 . S
O131 Dy124 2.664 . S
O131 Dy127 2.310 1_565 S
O131 C132 1.268 . S
C132 O130 1.254 . S
C132 O131 1.268 . S
C133 O138 1.254 . S
C133 O139 1.268 . S
O134 Dy127 2.351 . S
O134 C142 1.249 . S
O135 Dy124 2.326 1_545 S
O135 C142 1.267 . S
O136 C125 1.185 . S
O136 Dy127 2.398 . S
O137 C125 1.355 1_565 S
O137 Dy127 2.491 1_565 S
O138 Dy127 2.403 . S
O138 C133 1.254 . S
O139 Dy124 2.310 1_545 S
O139 Dy127 2.664 . S
O139 C133 1.268 . S
O140 Dy124 2.351 . S
O140 C143 1.249 . S
O141 Dy127 2.326 1_565 S
O141 C143 1.267 . S
C142 O134 1.249 . S
C142 O135 1.267 . S
C143 O140 1.249 . S
C143 O141 1.267 . S
Dy144 O148 2.398 . S
Dy144 O149 2.491 . S
Dy144 O150 2.403 . S
Dy144 O151 2.664 . S
Dy144 O155 2.326 . S
Dy144 O159 2.310 . S
Dy144 O160 2.351 . S
C145 O156 1.185 . S
C145 O157 1.355 . S
C146 O148 1.185 . S
C146 O149 1.355 . S
Dy147 O151 2.310 . S
Dy147 O154 2.351 . S
Dy147 O156 2.398 . S
Dy147 O157 2.491 . S
Dy147 O158 2.403 . S
Dy147 O159 2.664 . S
Dy147 O161 2.326 . S
O148 Dy144 2.398 . S
O148 C146 1.185 . S
O149 Dy144 2.491 . S
O149 C146 1.355 . S
O150 Dy144 2.403 . S
O150 C152 1.254 . S
O151 Dy144 2.664 . S
O151 Dy147 2.310 . S
O151 C152 1.268 . S
C152 O150 1.254 . S
C152 O151 1.268 . S
C153 O158 1.254 . S
C153 O159 1.268 . S
O154 Dy147 2.351 . S
O154 C162 1.249 . S
O155 Dy144 2.326 . S
O155 C162 1.267 . S
O156 C145 1.185 . S
O156 Dy147 2.398 . S
O157 C145 1.355 . S
O157 Dy147 2.491 . S
O158 Dy147 2.403 . S
O158 C153 1.254 . S
O159 Dy144 2.310 . S
O159 Dy147 2.664 . S
O159 C153 1.268 . S
O160 Dy144 2.351 . S
O160 C163 1.249 . S
O161 Dy147 2.326 . S
O161 C163 1.267 . S
C162 O154 1.249 . S
C162 O155 1.267 . S
C163 O160 1.249 . S
C163 O161 1.267 . S
Dy164 O168 2.398 . S
Dy164 O169 2.491 . S
Dy164 O170 2.403 . S
Dy164 O171 2.664 1_655 S
Dy164 O175 2.326 . S
Dy164 O179 2.310 . S
Dy164 O180 2.351 1_655 S
C165 O176 1.185 . S
C165 O177 1.355 . S
C166 O168 1.185 . S
C166 O169 1.355 . S
Dy167 O171 2.310 . S
Dy167 O174 2.351 1_455 S
Dy167 O176 2.398 . S
Dy167 O177 2.491 . S
Dy167 O178 2.403 . S
Dy167 O179 2.664 1_455 S
Dy167 O181 2.326 . S
O168 Dy164 2.398 . S
O168 C166 1.185 . S
O169 Dy164 2.491 . S
O169 C166 1.355 . S
O170 Dy164 2.403 . S
O170 C172 1.254 . S
O171 Dy164 2.664 1_455 S
O171 Dy167 2.310 . S
O171 C172 1.268 1_455 S
C172 O170 1.254 . S
C172 O171 1.268 1_655 S
C173 O178 1.254 . S
C173 O179 1.268 1_455 S
O174 Dy167 2.351 1_655 S
O174 C182 1.249 . S
O175 Dy164 2.326 . S
O175 C182 1.267 . S
O176 C165 1.185 . S
O176 Dy167 2.398 . S
O177 C165 1.355 . S
O177 Dy167 2.491 . S
O178 Dy167 2.403 . S
O178 C173 1.254 . S
O179 Dy164 2.310 . S
O179 Dy167 2.664 1_655 S
O179 C173 1.268 1_655 S
O180 Dy164 2.351 1_455 S
O180 C183 1.249 . S
O181 Dy167 2.326 . S
O181 C183 1.267 . S
C182 O174 1.249 . S
C182 O175 1.267 . S
C183 O180 1.249 . S
C183 O181 1.267 . S
H184 C190 0.930 . S
H185 C193 0.930 1_565 S
H186 C194 0.930 . S
H187 C195 0.930 1_565 S
H188 C198 0.930 . S
H189 C199 0.930 . S
C190 H184 0.930 . S
C190 C191 1.355 . S
C190 C192 1.415 . S
C191 C190 1.355 . S
C191 C193 1.419 . S
C192 C190 1.415 . S
C192 C197 1.425 . S
C192 C199 1.409 . S
C193 H185 0.930 1_545 S
C193 C191 1.419 . S
C193 C194 1.362 1_545 S
C194 H186 0.930 . S
C194 C193 1.362 1_565 S
C194 C197 1.409 1_565 S
C195 H187 0.930 1_545 S
C195 C196 1.355 . S
C195 C197 1.415 . S
C196 C195 1.355 . S
C196 C198 1.419 . S
C197 C192 1.425 . S
C197 C194 1.409 1_545 S
C197 C195 1.415 . S
C198 H188 0.930 . S
C198 C196 1.419 . S
C198 C199 1.362 . S
C199 H189 0.930 . S
C199 C192 1.409 . S
C199 C198 1.362 . S
H200 C206 0.930 . S
H201 C209 0.930 . S
H202 C210 0.930 . S
H203 C211 0.930 . S
H204 C214 0.930 . S
H205 C215 0.930 . S
C206 H200 0.930 . S
C206 C207 1.355 . S
C206 C208 1.415 . S
C207 C206 1.355 . S
C207 C209 1.419 . S
C208 C206 1.415 . S
C208 C213 1.425 . S
C208 C215 1.409 . S
C209 H201 0.930 . S
C209 C207 1.419 . S
C209 C210 1.362 . S
C210 H202 0.930 . S
C210 C209 1.362 . S
C210 C213 1.409 . S
C211 H203 0.930 . S
C211 C212 1.355 . S
C211 C213 1.415 . S
C212 C211 1.355 . S
C212 C214 1.419 . S
C213 C208 1.425 . S
C213 C210 1.409 . S
C213 C211 1.415 . S
C214 H204 0.930 . S
C214 C212 1.419 . S
C214 C215 1.362 . S
C215 H205 0.930 . S
C215 C208 1.409 . S
C215 C214 1.362 . S
H216 C222 0.930 . S
H217 C225 0.930 . S
H218 C226 0.930 . S
H219 C227 0.930 . S
H220 C230 0.930 . S
H221 C231 0.930 . S
C222 H216 0.930 . S
C222 C223 1.355 . S
C222 C224 1.415 . S
C223 C222 1.355 . S
C223 C225 1.419 . S
C224 C222 1.415 . S
C224 C229 1.425 . S
C224 C231 1.409 . S
C225 H217 0.930 . S
C225 C223 1.419 . S
C225 C226 1.362 . S
C226 H218 0.930 . S
C226 C225 1.362 . S
C226 C229 1.409 . S
C227 H219 0.930 . S
C227 C228 1.355 . S
C227 C229 1.415 . S
C228 C227 1.355 . S
C228 C230 1.419 . S
C229 C224 1.425 . S
C229 C226 1.409 . S
C229 C227 1.415 . S
C230 H220 0.930 . S
C230 C228 1.419 . S
C230 C231 1.362 . S
C231 H221 0.930 . S
C231 C224 1.409 . S
C231 C230 1.362 . S
H232 C238 0.930 . S
H233 C241 0.930 . S
H234 C242 0.930 . S
H235 C243 0.930 . S
H236 C246 0.930 . S
H237 C247 0.930 . S
C238 H232 0.930 . S
C238 C239 1.342 1_455 S
C238 C240 1.415 . S
C239 C238 1.342 1_655 S
C239 C241 1.438 . S
C240 C238 1.415 . S
C240 C245 1.425 1_455 S
C240 C247 1.409 . S
C241 H233 0.930 . S
C241 C239 1.438 . S
C241 C242 1.362 . S
C242 H234 0.930 . S
C242 C241 1.362 . S
C242 C245 1.409 . S
C243 H235 0.930 . S
C243 C244 1.354 1_655 S
C243 C245 1.415 . S
C244 C243 1.354 1_455 S
C244 C246 1.419 . S
C245 C240 1.425 1_655 S
C245 C242 1.409 . S
C245 C243 1.415 . S
C246 H236 0.930 . S
C246 C244 1.419 . S
C246 C247 1.362 . S
C247 H237 0.930 . S
C247 C240 1.409 . S
C247 C246 1.362 . S
H248 C254 0.930 . S
H249 C257 0.930 . S
H250 C258 0.930 . S
H251 C259 0.930 . S
H252 C262 0.930 . S
H253 C263 0.930 . S
C254 H248 0.930 . S
C254 C255 1.355 . S
C254 C256 1.415 . S
C255 C254 1.355 . S
C255 C257 1.419 1_556 S
C256 C254 1.415 . S
C256 C261 1.425 . S
C256 C263 1.409 . S
C257 H249 0.930 . S
C257 C255 1.419 1_554 S
C257 C258 1.362 . S
C258 H250 0.930 . S
C258 C257 1.362 . S
C258 C261 1.409 1_554 S
C259 H251 0.930 . S
C259 C260 1.355 . S
C259 C261 1.415 . S
C260 C259 1.355 . S
C260 C262 1.419 . S
C261 C256 1.425 . S
C261 C258 1.409 1_556 S
C261 C259 1.415 . S
C262 H252 0.930 . S
C262 C260 1.419 . S
C262 C263 1.362 . S
C263 H253 0.930 . S
C263 C256 1.409 . S
C263 C262 1.362 . S
H264 C270 0.930 . S
H265 C273 0.930 . S
H266 C274 0.930 . S
H267 C275 0.930 . S
H268 C278 0.930 . S
H269 C279 0.930 1_554 S
C270 H264 0.930 . S
C270 C271 1.355 . S
C270 C272 1.415 1_554 S
C271 C270 1.355 . S
C271 C273 1.419 1_554 S
C272 C270 1.415 1_556 S
C272 C277 1.425 . S
C272 C279 1.409 . S
C273 H265 0.930 . S
C273 C271 1.419 1_556 S
C273 C274 1.362 . S
C274 H266 0.930 . S
C274 C273 1.362 . S
C274 C277 1.409 . S
C275 H267 0.930 . S
C275 C276 1.355 . S
C275 C277 1.415 . S
C276 C275 1.355 . S
C276 C278 1.419 . S
C277 C272 1.425 . S
C277 C274 1.409 . S
C277 C275 1.415 . S
C278 H268 0.930 . S
C278 C276 1.419 . S
C278 C279 1.362 . S
C279 H269 0.930 1_556 S
C279 C272 1.409 . S
C279 C278 1.362 . S
H280 C286 0.930 . S
H281 C289 0.930 . S
H282 C290 0.930 . S
H283 C291 0.930 . S
H284 C294 0.930 . S
H285 C295 0.930 . S
C286 H280 0.930 . S
C286 C287 1.355 1_556 S
C286 C288 1.415 . S
C287 C286 1.355 1_554 S
C287 C289 1.419 . S
C288 C286 1.415 . S
C288 C293 1.425 . S
C288 C295 1.409 . S
C289 H281 0.930 . S
C289 C287 1.419 . S
C289 C290 1.362 . S
C290 H282 0.930 . S
C290 C289 1.362 . S
C290 C293 1.409 1_554 S
C291 H283 0.930 . S
C291 C292 1.355 . S
C291 C293 1.415 . S
C292 C291 1.355 . S
C292 C294 1.419 . S
C293 C288 1.425 . S
C293 C290 1.409 1_556 S
C293 C291 1.415 . S
C294 H284 0.930 . S
C294 C292 1.419 . S
C294 C295 1.362 . S
C295 H285 0.930 . S
C295 C288 1.409 . S
C295 C294 1.362 . S
H296 C302 0.930 . S
H297 C305 0.930 . S
H298 C306 0.930 . S
H299 C307 0.930 . S
H300 C310 0.930 . S
H301 C311 0.930 . S
C302 H296 0.930 . S
C302 C303 1.355 1_456 S
C302 C304 1.415 . S
C303 C302 1.355 1_654 S
C303 C305 1.419 . S
C304 C302 1.415 . S
C304 C309 1.425 1_455 S
C304 C311 1.409 . S
C305 H297 0.930 . S
C305 C303 1.419 . S
C305 C306 1.362 . S
C306 H298 0.930 . S
C306 C305 1.362 . S
C306 C309 1.409 1_554 S
C307 H299 0.930 . S
C307 C308 1.355 1_655 S
C307 C309 1.415 . S
C308 C307 1.355 1_455 S
C308 C310 1.419 . S
C309 C304 1.425 1_655 S
C309 C306 1.409 1_556 S
C309 C307 1.415 . S
C310 H300 0.930 . S
C310 C308 1.419 . S
C310 C311 1.362 . S
C311 H301 0.930 . S
C311 C304 1.409 . S
C311 C310 1.362 . S
H312 C318 0.930 . S
H313 C321 0.930 . S
H314 C322 0.930 . S
H315 C323 0.930 . S
H316 C326 0.930 . S
H317 C327 0.930 . S
C318 H312 0.930 . S
C318 C319 1.355 1_455 S
C318 C320 1.415 . S
C319 C318 1.355 1_655 S
C319 C321 1.419 . S
C320 C318 1.415 . S
C320 C325 1.425 1_455 S
C320 C327 1.409 . S
C321 H313 0.930 . S
C321 C319 1.419 . S
C321 C322 1.362 . S
C322 H314 0.930 . S
C322 C321 1.362 . S
C322 C325 1.409 . S
C323 H315 0.930 . S
C323 C324 1.355 . S
C323 C325 1.415 . S
C324 C323 1.355 . S
C324 C326 1.419 1_655 S
C325 C320 1.425 1_655 S
C325 C322 1.409 . S
C325 C323 1.415 . S
C326 H316 0.930 . S
C326 C324 1.419 1_455 S
C326 C327 1.362 . S
C327 H317 0.930 . S
C327 C320 1.409 . S
C327 C326 1.362 . S
H328 C334 0.930 . S
H329 C337 0.930 1_565 S
H330 C338 0.930 . S
H331 C339 0.930 . S
H332 C342 0.930 . S
H333 C343 0.930 . S
C334 H328 0.930 . S
C334 C335 1.355 . S
C334 C336 1.415 . S
C335 C334 1.355 . S
C335 C337 1.419 . S
C336 C334 1.415 . S
C336 C341 1.425 . S
C336 C343 1.409 . S
C337 H329 0.930 1_545 S
C337 C335 1.419 . S
C337 C338 1.362 1_545 S
C338 H330 0.930 . S
C338 C337 1.362 1_565 S
C338 C341 1.409 1_565 S
C339 H331 0.930 . S
C339 C340 1.355 1_565 S
C339 C341 1.415 1_565 S
C340 C339 1.355 1_545 S
C340 C342 1.419 . S
C341 C336 1.425 . S
C341 C338 1.409 1_545 S
C341 C339 1.415 1_545 S
C342 H332 0.930 . S
C342 C340 1.419 . S
C342 C343 1.362 . S
C343 H333 0.930 . S
C343 C336 1.409 . S
C343 C342 1.362 . S
H344 C350 0.930 . S
H345 C353 0.930 . S
H346 C354 0.930 . S
H347 C355 0.930 . S
H348 C358 0.930 . S
H349 C359 0.930 . S
C350 H344 0.930 . S
C350 C351 1.355 . S
C350 C352 1.415 . S
C351 C350 1.355 . S
C351 C353 1.419 . S
C352 C350 1.415 . S
C352 C357 1.425 . S
C352 C359 1.409 . S
C353 H345 0.930 . S
C353 C351 1.419 . S
C353 C354 1.362 . S
C354 H346 0.930 . S
C354 C353 1.362 . S
C354 C357 1.409 . S
C355 H347 0.930 . S
C355 C356 1.355 . S
C355 C357 1.415 . S
C356 C355 1.355 . S
C356 C358 1.419 . S
C357 C352 1.425 . S
C357 C354 1.409 . S
C357 C355 1.415 . S
C358 H348 0.930 . S
C358 C356 1.419 . S
C358 C359 1.362 . S
C359 H349 0.930 . S
C359 C352 1.409 . S
C359 C358 1.362 . S
H360 C366 0.930 . S
H361 C369 0.930 . S
H362 C370 0.930 . S
H363 C371 0.930 . S
H364 C374 0.930 . S
H365 C375 0.930 . S
C366 H360 0.930 . S
C366 C367 1.355 . S
C366 C368 1.415 . S
C367 C366 1.355 . S
C367 C369 1.419 . S
C368 C366 1.415 . S
C368 C373 1.425 . S
C368 C375 1.409 . S
C369 H361 0.930 . S
C369 C367 1.419 . S
C369 C370 1.362 . S
C370 H362 0.930 . S
C370 C369 1.362 . S
C370 C373 1.409 . S
C371 H363 0.930 . S
C371 C372 1.355 . S
C371 C373 1.415 . S
C372 C371 1.355 . S
C372 C374 1.419 . S
C373 C368 1.425 . S
C373 C370 1.409 . S
C373 C371 1.415 . S
C374 H364 0.930 . S
C374 C372 1.419 . S
C374 C375 1.362 . S
C375 H365 0.930 . S
C375 C368 1.409 . S
C375 C374 1.362 . S
H376 C382 0.930 . S
H377 C385 0.930 . S
H378 C386 0.930 . S
H379 C387 0.930 . S
H380 C390 0.930 . S
H381 C391 0.930 1_554 S
C382 H376 0.930 . S
C382 C383 1.355 1_455 S
C382 C384 1.415 1_554 S
C383 C382 1.355 1_655 S
C383 C385 1.419 1_554 S
C384 C382 1.415 1_556 S
C384 C389 1.425 1_455 S
C384 C391 1.409 . S
C385 H377 0.930 . S
C385 C383 1.419 1_556 S
C385 C386 1.362 . S
C386 H378 0.930 . S
C386 C385 1.362 . S
C386 C389 1.409 . S
C387 H379 0.930 . S
C387 C388 1.355 1_655 S
C387 C389 1.415 . S
C388 C387 1.355 1_455 S
C388 C390 1.419 . S
C389 C384 1.425 1_655 S
C389 C386 1.409 . S
C389 C387 1.415 . S
C390 H380 0.930 . S
C390 C388 1.419 . S
C390 C391 1.362 . S
C391 H381 0.930 1_556 S
C391 C384 1.409 . S
C391 C390 1.362 . S
H392 C398 0.930 1_545 S
H393 C401 0.930 . S
H394 C402 0.930 1_554 S
H395 C403 0.930 . S
H396 C406 0.930 . S
H397 C407 0.930 . S
C398 H392 0.930 1_565 S
C398 C399 1.355 1_556 S
C398 C400 1.415 . S
C399 C398 1.355 1_554 S
C399 C401 1.419 . S
C400 C398 1.415 . S
C400 C405 1.425 . S
C400 C407 1.409 1_565 S
C401 H393 0.930 . S
C401 C399 1.419 . S
C401 C402 1.362 1_554 S
C402 H394 0.930 1_556 S
C402 C401 1.362 1_556 S
C402 C405 1.409 . S
C403 H395 0.930 . S
C403 C404 1.355 1_565 S
C403 C405 1.415 . S
C404 C403 1.355 1_545 S
C404 C406 1.419 . S
C405 C400 1.425 . S
C405 C402 1.409 . S
C405 C403 1.415 . S
C406 H396 0.930 . S
C406 C404 1.419 . S
C406 C407 1.362 . S
C407 H397 0.930 . S
C407 C400 1.409 1_545 S
C407 C406 1.362 . S
H408 C414 0.930 . S
H409 C417 0.930 . S
H410 C418 0.930 . S
H411 C419 0.930 . S
H412 C422 0.930 . S
H413 C423 0.930 . S
C414 H408 0.930 . S
C414 C415 1.355 . S
C414 C416 1.415 . S
C415 C414 1.355 . S
C415 C417 1.419 1_554 S
C416 C414 1.415 . S
C416 C421 1.425 1_554 S
C416 C423 1.409 . S
C417 H409 0.930 . S
C417 C415 1.419 1_556 S
C417 C418 1.362 . S
C418 H410 0.930 . S
C418 C417 1.362 . S
C418 C421 1.409 . S
C419 H411 0.930 . S
C419 C420 1.355 . S
C419 C421 1.415 . S
C420 C419 1.355 . S
C420 C422 1.419 . S
C421 C416 1.425 1_556 S
C421 C418 1.409 . S
C421 C419 1.415 . S
C422 H412 0.930 . S
C422 C420 1.419 . S
C422 C423 1.362 1_556 S
C423 H413 0.930 . S
C423 C416 1.409 . S
C423 C422 1.362 1_554 S
H424 C430 0.930 . S
H425 C433 0.930 . S
H426 C434 0.930 . S
H427 C435 0.930 . S
H428 C438 0.930 . S
H429 C439 0.930 1_554 S
C430 H424 0.930 . S
C430 C431 1.355 . S
C430 C432 1.415 1_554 S
C431 C430 1.355 . S
C431 C433 1.419 1_554 S
C432 C430 1.415 1_556 S
C432 C437 1.425 . S
C432 C439 1.409 . S
C433 H425 0.930 . S
C433 C431 1.419 1_556 S
C433 C434 1.362 . S
C434 H426 0.930 . S
C434 C433 1.362 . S
C434 C437 1.409 . S
C435 H427 0.930 . S
C435 C436 1.355 . S
C435 C437 1.415 . S
C436 C435 1.355 . S
C436 C438 1.419 . S
C437 C432 1.425 . S
C437 C434 1.409 . S
C437 C435 1.415 . S
C438 H428 0.930 . S
C438 C436 1.419 . S
C438 C439 1.362 . S
C439 H429 0.930 1_556 S
C439 C432 1.409 . S
C439 C438 1.362 . S
H440 C446 0.930 1_655 S
H441 C449 0.930 . S
H442 C450 0.936 . S
H443 C451 0.930 . S
H444 C454 0.930 . S
H445 C455 0.930 . S
C446 H440 0.930 1_455 S
C446 C447 1.355 . S
C446 C448 1.415 . S
C447 C446 1.355 . S
C447 C449 1.423 1_556 S
C448 C446 1.415 . S
C448 C453 1.425 . S
C448 C455 1.409 . S
C449 H441 0.930 . S
C449 C447 1.423 1_554 S
C449 C450 1.364 . S
C450 H442 0.936 . S
C450 C449 1.364 . S
C450 C453 1.402 1_554 S
C451 H443 0.930 . S
C451 C452 1.355 . S
C451 C453 1.415 . S
C452 C451 1.355 . S
C452 C454 1.419 . S
C453 C448 1.425 . S
C453 C450 1.402 1_556 S
C453 C451 1.415 . S
C454 H444 0.930 . S
C454 C452 1.419 . S
C454 C455 1.362 . S
C455 H445 0.930 . S
C455 C448 1.409 . S
C455 C454 1.362 . S
H456 C462 0.930 . S
H457 C465 0.930 1_565 S
H458 C466 0.930 . S
H459 C467 0.930 1_565 S
H460 C470 0.930 . S
H461 C471 0.930 . S
C462 H456 0.930 . S
C462 C463 1.355 . S
C462 C464 1.415 . S
C463 C462 1.355 . S
C463 C465 1.419 . S
C464 C462 1.415 . S
C464 C469 1.425 . S
C464 C471 1.409 . S
C465 H457 0.930 1_545 S
C465 C463 1.419 . S
C465 C466 1.362 1_545 S
C466 H458 0.930 . S
C466 C465 1.362 1_565 S
C466 C469 1.409 1_565 S
C467 H459 0.930 1_545 S
C467 C468 1.355 . S
C467 C469 1.415 . S
C468 C467 1.355 . S
C468 C470 1.419 . S
C469 C464 1.425 . S
C469 C466 1.409 1_545 S
C469 C467 1.415 . S
C470 H460 0.930 . S
C470 C468 1.419 . S
C470 C471 1.362 . S
C471 H461 0.930 . S
C471 C464 1.409 . S
C471 C470 1.362 . S
H472 C478 0.930 . S
H473 C481 0.930 . S
H474 C482 0.930 . S
H475 C483 0.930 . S
H476 C486 0.930 . S
H477 C487 0.930 . S
C478 H472 0.930 . S
C478 C479 1.355 . S
C478 C480 1.415 . S
C479 C478 1.355 . S
C479 C481 1.419 . S
C480 C478 1.415 . S
C480 C485 1.425 . S
C480 C487 1.409 . S
C481 H473 0.930 . S
C481 C479 1.419 . S
C481 C482 1.362 . S
C482 H474 0.930 . S
C482 C481 1.362 . S
C482 C485 1.409 . S
C483 H475 0.930 . S
C483 C484 1.355 . S
C483 C485 1.415 . S
C484 C483 1.355 . S
C484 C486 1.419 . S
C485 C480 1.425 . S
C485 C482 1.409 . S
C485 C483 1.415 . S
C486 H476 0.930 . S
C486 C484 1.419 . S
C486 C487 1.362 . S
C487 H477 0.930 . S
C487 C480 1.409 . S
C487 C486 1.362 . S
H488 C494 0.930 . S
H489 C497 0.930 1_554 S
H490 C498 0.930 1_554 S
H491 C499 0.930 . S
H492 C502 0.930 . S
H493 C503 0.930 . S
C494 H488 0.930 . S
C494 C495 1.355 . S
C494 C496 1.415 . S
C495 C494 1.355 . S
C495 C497 1.419 . S
C496 C494 1.415 . S
C496 C501 1.425 . S
C496 C503 1.409 . S
C497 H489 0.930 1_556 S
C497 C495 1.419 . S
C497 C498 1.362 . S
C498 H490 0.930 1_556 S
C498 C497 1.362 . S
C498 C501 1.409 . S
C499 H491 0.930 . S
C499 C500 1.355 . S
C499 C501 1.415 . S
C500 C499 1.355 . S
C500 C502 1.419 . S
C501 C496 1.425 . S
C501 C498 1.409 . S
C501 C499 1.415 . S
C502 H492 0.930 . S
C502 C500 1.419 . S
C502 C503 1.362 . S
C503 H493 0.930 . S
C503 C496 1.409 . S
C503 C502 1.362 . S
H504 C510 0.930 . S
H505 C513 0.930 . S
H506 C514 0.930 . S
H507 C515 0.930 . S
H508 C518 0.930 . S
H509 C519 0.930 . S
C510 H504 0.930 . S
C510 C511 1.355 1_455 S
C510 C512 1.415 . S
C511 C510 1.355 1_655 S
C511 C513 1.419 . S
C512 C510 1.415 . S
C512 C517 1.425 1_455 S
C512 C519 1.409 . S
C513 H505 0.930 . S
C513 C511 1.419 . S
C513 C514 1.362 . S
C514 H506 0.930 . S
C514 C513 1.362 . S
C514 C517 1.409 . S
C515 H507 0.930 . S
C515 C516 1.355 . S
C515 C517 1.415 . S
C516 C515 1.355 . S
C516 C518 1.419 1_655 S
C517 C512 1.425 1_655 S
C517 C514 1.409 . S
C517 C515 1.415 . S
C518 H508 0.930 . S
C518 C516 1.419 1_455 S
C518 C519 1.362 . S
C519 H509 0.930 . S
C519 C512 1.409 . S
C519 C518 1.362 . S
H520 C526 0.930 1_545 S
H521 C529 0.930 . S
H522 C530 0.930 . S
H523 C531 0.930 . S
H524 C534 0.930 . S
H525 C535 0.930 . S
C526 H520 0.930 1_565 S
C526 C527 1.355 . S
C526 C528 1.415 . S
C527 C526 1.355 . S
C527 C529 1.419 . S
C528 C526 1.415 . S
C528 C533 1.425 . S
C528 C535 1.409 1_565 S
C529 H521 0.930 . S
C529 C527 1.419 . S
C529 C530 1.362 . S
C530 H522 0.930 . S
C530 C529 1.362 . S
C530 C533 1.409 . S
C531 H523 0.930 . S
C531 C532 1.355 . S
C531 C533 1.415 . S
C532 C531 1.355 . S
C532 C534 1.419 1_565 S
C533 C528 1.425 . S
C533 C530 1.409 . S
C533 C531 1.415 . S
C534 H524 0.930 . S
C534 C532 1.419 1_545 S
C534 C535 1.362 . S
C535 H525 0.930 . S
C535 C528 1.409 1_545 S
C535 C534 1.362 . S
H536 C542 0.930 . S
H537 C545 0.930 . S
H538 C546 0.930 . S
H539 C547 0.930 . S
H540 C550 0.930 . S
H541 C551 0.930 . S
C542 H536 0.930 . S
C542 C543 1.355 . S
C542 C544 1.415 . S
C543 C542 1.355 . S
C543 C545 1.419 . S
C544 C542 1.415 . S
C544 C549 1.425 . S
C544 C551 1.409 . S
C545 H537 0.930 . S
C545 C543 1.419 . S
C545 C546 1.362 . S
C546 H538 0.930 . S
C546 C545 1.362 . S
C546 C549 1.409 . S
C547 H539 0.930 . S
C547 C548 1.355 . S
C547 C549 1.415 . S
C548 C547 1.355 . S
C548 C550 1.419 . S
C549 C544 1.425 . S
C549 C546 1.409 . S
C549 C547 1.415 . S
C550 H540 0.930 . S
C550 C548 1.419 . S
C550 C551 1.362 . S
C551 H541 0.930 . S
C551 C544 1.409 . S
C551 C550 1.362 . S
H552 C558 0.930 . S
H553 C561 0.930 . S
H554 C562 0.930 . S
H555 C563 0.930 . S
H556 C566 0.930 . S
H557 C567 0.930 . S
C558 H552 0.930 . S
C558 C559 1.355 . S
C558 C560 1.415 . S
C559 C558 1.355 . S
C559 C561 1.419 . S
C560 C558 1.415 . S
C560 C565 1.425 . S
C560 C567 1.409 . S
C561 H553 0.930 . S
C561 C559 1.419 . S
C561 C562 1.362 . S
C562 H554 0.930 . S
C562 C561 1.362 . S
C562 C565 1.409 . S
C563 H555 0.930 . S
C563 C564 1.355 . S
C563 C565 1.415 . S
C564 C563 1.355 . S
C564 C566 1.419 . S
C565 C560 1.425 . S
C565 C562 1.409 . S
C565 C563 1.415 . S
C566 H556 0.930 . S
C566 C564 1.419 . S
C566 C567 1.362 . S
C567 H557 0.930 . S
C567 C560 1.409 . S
C567 C566 1.362 . S
C191 N80 1.642 . S
C196 C112 1.710 . S
C212 C142 1.762 . S
C207 N93 1.725 . S
C228 C152 1.591 . S
C223 N54 1.520 . S
C244 C172 1.493 1_455 S
C239 N67 1.422 . S
C260 C113 1.688 . S
C255 N28 1.702 1_556 S
C271 N41 1.737 . S
C276 C143 1.774 . S
C287 N2 1.581 . S
C292 C153 1.586 . S
C303 N15 1.471 . S
C308 C173 1.469 . S
C324 C105 0.896 . S
C319 N70 0.900 . S
C340 C126 0.750 . S
C335 N83 0.673 . S
C356 C145 1.053 . S
C351 N96 1.057 . S
C367 N57 0.851 . S
C372 C165 0.846 . S
C383 N18 0.930 . S
C388 C106 0.915 . S
C404 C125 0.673 . S
C399 N31 0.733 . S
C420 C146 1.026 . S
C415 N44 1.041 . S
C431 N5 0.838 . S
C436 C166 0.829 . S
C447 N66 1.558 1_456 S
C452 C123 1.607 . S
C463 N79 1.469 1_556 S
C468 C133 1.511 . S
C484 C163 1.773 . S
C479 N92 1.740 . S
C500 C183 1.754 . S
C495 N53 1.715 . S
C511 N14 1.599 . S
C516 C122 1.583 . S
C532 C132 1.535 . S
C527 N27 1.485 . S
C548 C162 1.766 . S
C543 N40 1.711 . S
C559 N1 1.725 . S
C564 C182 1.741 . S
