# Generated by pormake.
# Topology zzz, (3,6)-cn, num edge types: 1
# Building blocks:
#     Node 0, Type 0, BuildingBlock: INOVEN_clean_linker_0, # of connection points: 3
#     Node 1, Type 0, BuildingBlock: INOVEN_clean_linker_0, # of connection points: 3
#     Node 2, Type 0, BuildingBlock: INOVEN_clean_linker_0, # of connection points: 3
#     Node 3, Type 0, BuildingBlock: INOVEN_clean_linker_0, # of connection points: 3
#     Node 4, Type 0, BuildingBlock: INOVEN_clean_linker_0, # of connection points: 3
#     Node 5, Type 0, BuildingBlock: INOVEN_clean_linker_0, # of connection points: 3
#     Node 6, Type 0, BuildingBlock: INOVEN_clean_linker_0, # of connection points: 3
#     Node 7, Type 0, BuildingBlock: INOVEN_clean_linker_0, # of connection points: 3
#     Node 8, Type 1, BuildingBlock: VOLQOD_clean_sbu_1, # of connection points: 6
#     Node 9, Type 1, BuildingBlock: VOLQOD_clean_sbu_1, # of connection points: 6
#     Node 10, Type 1, BuildingBlock: VOLQOD_clean_sbu_1, # of connection points: 6
#     Node 11, Type 1, BuildingBlock: VOLQOD_clean_sbu_1, # of connection points: 6
#     Edge 12, Type (0, 1), BuildingBlock: OJICUG_clean_linker_0, # of connection points: 2
#     Edge 13, Type (0, 1), BuildingBlock: OJICUG_clean_linker_0, # of connection points: 2
#     Edge 14, Type (0, 1), BuildingBlock: OJICUG_clean_linker_0, # of connection points: 2
#     Edge 15, Type (0, 1), BuildingBlock: OJICUG_clean_linker_0, # of connection points: 2
#     Edge 16, Type (0, 1), BuildingBlock: OJICUG_clean_linker_0, # of connection points: 2
#     Edge 17, Type (0, 1), BuildingBlock: OJICUG_clean_linker_0, # of connection points: 2
#     Edge 18, Type (0, 1), BuildingBlock: OJICUG_clean_linker_0, # of connection points: 2
#     Edge 19, Type (0, 1), BuildingBlock: OJICUG_clean_linker_0, # of connection points: 2
#     Edge 20, Type (0, 1), BuildingBlock: OJICUG_clean_linker_0, # of connection points: 2
#     Edge 21, Type (0, 1), BuildingBlock: OJICUG_clean_linker_0, # of connection points: 2
#     Edge 22, Type (0, 1), BuildingBlock: OJICUG_clean_linker_0, # of connection points: 2
#     Edge 23, Type (0, 1), BuildingBlock: OJICUG_clean_linker_0, # of connection points: 2
#     Edge 24, Type (0, 1), BuildingBlock: OJICUG_clean_linker_0, # of connection points: 2
#     Edge 25, Type (0, 1), BuildingBlock: OJICUG_clean_linker_0, # of connection points: 2
#     Edge 26, Type (0, 1), BuildingBlock: OJICUG_clean_linker_0, # of connection points: 2
#     Edge 27, Type (0, 1), BuildingBlock: OJICUG_clean_linker_0, # of connection points: 2
#     Edge 28, Type (0, 1), BuildingBlock: OJICUG_clean_linker_0, # of connection points: 2
#     Edge 29, Type (0, 1), BuildingBlock: OJICUG_clean_linker_0, # of connection points: 2
#     Edge 30, Type (0, 1), BuildingBlock: OJICUG_clean_linker_0, # of connection points: 2
#     Edge 31, Type (0, 1), BuildingBlock: OJICUG_clean_linker_0, # of connection points: 2
#     Edge 32, Type (0, 1), BuildingBlock: OJICUG_clean_linker_0, # of connection points: 2
#     Edge 33, Type (0, 1), BuildingBlock: OJICUG_clean_linker_0, # of connection points: 2
#     Edge 34, Type (0, 1), BuildingBlock: OJICUG_clean_linker_0, # of connection points: 2
#     Edge 35, Type (0, 1), BuildingBlock: OJICUG_clean_linker_0, # of connection points: 2
# Relax obj value: 0.186
# Max RMSD: 0.232
# Mean RMSD: 0.110
data_MOF--net-zzz--node1-VOLQOD_clean_sbu_1--node2-INOVEN_clean_linker_0--edge1-OJICUG_clean_linker_0
_symmetry_space_group_name_H-M    P1
_symmetry_Int_Tables_number       1
_symmetry_cell_setting            triclinic
loop_
_symmetry_equiv_pos_as_xyz
'x, y, z'
_cell_length_a     37.200655
_cell_length_b     36.859906
_cell_length_c     13.143467
_cell_angle_alpha  89.779647
_cell_angle_beta   89.52117
_cell_angle_gamma 91.131244
loop_
_atom_site_label
_atom_site_type_symbol
_atom_site_fract_x
_atom_site_fract_y
_atom_site_fract_z
_atom_type_partial_charge
H0 H 0.77487 0.55954 0.29174 0.0
H1 H 0.87955 0.51969 0.21768 0.0
H2 H 0.78924 0.49035 0.03175 0.0
N3 N 0.74195 0.53038 0.1265 0.0
N4 N 0.73577 0.53963 0.03691 0.0
C5 C 0.79215 0.54354 0.24355 0.0
C6 C 0.82914 0.54132 0.26439 0.0
C7 C 0.77814 0.52603 0.15676 0.0
C8 C 0.80059 0.50449 0.09644 0.0
C9 C 0.83717 0.50137 0.11864 0.0
C10 C 0.85104 0.52048 0.20158 0.0
H11 H 1.00373 0.75866 0.31479 0.0
H12 H 0.05624 0.86313 0.32452 0.0
H13 H 0.06023 0.79994 0.05062 0.0
N14 N 0.02802 0.73984 0.13157 0.0
N15 N 0.03457 0.73564 0.03905 0.0
C16 C 0.02099 0.77917 0.27934 0.0
C17 C 0.02824 0.81193 0.32979 0.0
C18 C 0.03472 0.77369 0.18063 0.0
C19 C 0.05302 0.80267 0.1301 0.0
C20 C 0.05968 0.83584 0.18028 0.0
C21 C 0.05043 0.83827 0.28338 0.0
H22 H 0.74978 1.00496 0.23704 0.0
H23 H 0.64258 0.0435 0.20043 0.0
H24 H 0.72782 0.08509 0.00765 0.0
N25 N 0.77819 0.04447 0.0762 0.0
N26 N 0.79851 0.01821 0.087 0.0
C27 C 0.73128 0.02301 0.20012 0.0
C28 C 0.69493 0.0232 0.23074 0.0
C29 C 0.74306 0.04578 0.11918 0.0
C30 C 0.71851 0.06849 0.07117 0.0
C31 C 0.68177 0.0671 0.09694 0.0
C32 C 0.67081 0.04543 0.17959 0.0
H33 H 0.52338 0.75472 0.22811 0.0
H34 H 0.48978 0.64336 0.1982 0.0
H35 H 0.44084 0.72541 0.01471 0.0
N36 N 0.48154 0.77899 0.07195 0.0
N37 N 0.50797 0.80035 0.07377 0.0
C38 C 0.50573 0.73443 0.19453 0.0
C39 C 0.50757 0.69801 0.22555 0.0
C40 C 0.48149 0.74404 0.11747 0.0
C41 C 0.45896 0.71741 0.07448 0.0
C42 C 0.46256 0.68054 0.09925 0.0
C43 C 0.48611 0.67153 0.17769 0.0
H44 H 0.25471 0.48406 0.09324 0.0
H45 H 0.15716 0.541 0.14873 0.0
H46 H 0.25083 0.56592 0.32601 0.0
N47 N 0.29273 0.51633 0.24053 0.0
N48 N 0.31341 0.53964 0.27811 0.0
C49 C 0.24038 0.50521 0.13255 0.0
C50 C 0.2042 0.51146 0.11001 0.0
C51 C 0.25763 0.52559 0.20894 0.0
C52 C 0.23817 0.55181 0.26321 0.0
C53 C 0.2015 0.55701 0.24404 0.0
C54 C 0.18553 0.53786 0.16403 0.0
H55 H 0.06201 0.25673 0.08859 0.0
H56 H 1.00914 0.15248 0.09101 0.0
H57 H 1.00202 0.22112 0.35371 0.0
N58 N 0.03456 0.27932 0.2655 0.0
N59 N 0.01394 0.2898 0.33425 0.0
C60 C 0.04535 0.23651 0.12742 0.0
C61 C 0.03824 0.20289 0.08169 0.0
C62 C 0.0301 0.24406 0.22317 0.0
C63 C 0.01077 0.21634 0.2763 0.0
C64 C 1.0044 0.18223 0.23114 0.0
C65 C 0.01577 0.17744 0.13064 0.0
H66 H 0.25942 0.02988 0.06018 0.0
H67 H 0.36023 0.97567 0.04825 0.0
H68 H 0.29709 0.97247 0.32325 0.0
N69 N 0.23912 1.00455 0.24389 0.0
N70 N 0.23502 0.9979 0.33658 0.0
C71 C 0.27908 0.01279 0.09585 0.0
C72 C 0.31141 1.0052 0.04513 0.0
C73 C 0.27276 0.99879 0.19445 0.0
C74 C 0.30047 0.98007 0.24414 0.0
C75 C 0.33301 0.97284 0.19338 0.0
C76 C 0.33622 0.98249 0.0908 0.0
H77 H 0.49159 0.26526 0.05083 0.0
H78 H 0.55296 0.36461 0.05174 0.0
H79 H 0.5461 0.29904 0.32304 0.0
N80 N 0.51193 0.24241 0.23414 0.0
N81 N 0.5163 0.23669 0.32686 0.0
C82 C 0.50905 0.28433 0.09017 0.0
C83 C 0.51994 0.31686 0.0427 0.0
C84 C 0.52049 0.27679 0.18962 0.0
C85 C 0.54018 0.30359 0.24369 0.0
C86 C 0.55099 0.33644 0.19618 0.0
C87 C 0.54331 0.34077 0.09276 0.0
O88 O 0.10291 0.01159 0.65289 0.0
Zn89 Zn 0.06478 0.01655 0.76208 0.0
O90 O 0.01624 1.00656 0.7058 0.0
Zn91 Zn 0.98588 0.04866 0.72217 0.0
Zn92 Zn 0.02033 0.99523 0.56146 0.0
Zn93 Zn 0.99234 0.96595 0.77615 0.0
O94 O 0.94222 0.03844 0.81098 0.0
O95 O 0.94557 0.97973 0.84647 0.0
O96 O 0.06897 0.0686 0.8153 0.0
O97 O 0.01441 0.08897 0.7833 0.0
O98 O 0.97115 0.06986 0.5892 0.0
O99 O 0.99642 0.03316 0.47758 0.0
O100 O 1.00096 0.94482 0.53209 0.0
O101 O 0.07638 0.98004 0.87383 0.0
O102 O 0.98519 0.92269 0.68404 0.0
O103 O 0.02485 0.94825 0.88239 0.0
C104 C 0.10203 1.0039 0.5585 0.0
C105 C 0.92967 1.00994 0.8548 0.0
C106 C 0.97868 0.06148 0.49794 0.0
C107 C 0.04633 0.09419 0.81453 0.0
C108 C 0.98928 0.91889 0.58851 0.0
C109 C 0.05673 0.95466 0.91201 0.0
O110 O 0.07238 0.9969 0.51422 0.0
O111 O 0.49746 0.09607 0.61662 0.0
Zn112 Zn 0.49637 0.05576 0.72157 0.0
O113 O 0.50816 1.00921 0.65434 0.0
Zn114 Zn 0.46895 0.97441 0.67453 0.0
Zn115 Zn 0.51566 0.0164 0.50935 0.0
Zn116 Zn 0.55139 0.98829 0.71062 0.0
O117 O 0.48242 0.9343 0.76959 0.0
O118 O 0.54044 0.9439 0.79948 0.0
O119 O 0.44536 0.05408 0.7845 0.0
O120 O 0.42731 0.99906 0.73652 0.0
O121 O 0.44909 0.95448 0.54477 0.0
O122 O 0.47755 0.98981 0.4322 0.0
O123 O 0.56413 0.99885 0.46415 0.0
O124 O 0.53554 0.07054 0.8234 0.0
O125 O 0.58966 0.97798 0.6043 0.0
O126 O 0.574 0.02605 0.79535 0.0
C127 C 0.50456 0.09777 0.52163 0.0
C128 C 0.51128 0.92579 0.8145 0.0
C129 C 0.45373 0.96567 0.45396 0.0
C130 C 0.42081 0.02947 0.77717 0.0
C131 C 0.59051 0.98443 0.5091 0.0
C132 C 0.56617 0.05619 0.83556 0.0
O133 O 0.51235 0.06947 0.4713 0.0
O134 O 0.44062 0.50172 0.58372 0.0
Zn135 Zn 0.47701 0.50009 0.69925 0.0
O136 O 0.52565 0.51517 0.64816 0.0
Zn137 Zn 0.56042 0.47763 0.67705 0.0
Zn138 Zn 0.52429 0.52319 0.50315 0.0
Zn139 Zn 0.54249 0.5606 0.70668 0.0
O140 O 0.59956 0.49566 0.77249 0.0
O141 O 0.58766 0.55431 0.78902 0.0
O142 O 0.47723 0.44845 0.75936 0.0
O143 O 0.53513 0.43578 0.74281 0.0
O144 O 0.58015 0.45457 0.54938 0.0
O145 O 0.54808 0.48271 0.4327 0.0
O146 O 0.54665 0.57057 0.45843 0.0
O147 O 0.45927 0.53669 0.80476 0.0
O148 O 0.55052 0.60082 0.60316 0.0
O149 O 0.50379 0.57805 0.79614 0.0
C150 C 0.44317 0.51379 0.49274 0.0
C151 C 0.60669 0.5269 0.80963 0.0
C152 C 0.56986 0.45811 0.45778 0.0
C153 C 0.50324 0.42657 0.76866 0.0
C154 C 0.55296 0.59981 0.50667 0.0
C155 C 0.47322 0.56729 0.82949 0.0
O156 O 0.47325 0.52421 0.45492 0.0
O157 O 0.96668 0.56935 0.54366 0.0
Zn158 Zn 0.01511 0.56374 0.6172 0.0
O159 O 0.01942 0.51478 0.67947 0.0
Zn160 Zn 0.02166 0.51808 0.82798 0.0
Zn161 Zn 0.97822 0.48505 0.64216 0.0
Zn162 Zn 0.06203 0.49011 0.63001 0.0
O163 O 0.06715 0.49618 0.88108 0.0
O164 O 0.09617 0.47811 0.74256 0.0
O165 O 0.01719 0.60171 0.7281 0.0
O166 O 0.02175 0.57083 0.87279 0.0
O167 O 0.97858 0.49322 0.89327 0.0
O168 O 0.95006 0.46868 0.76209 0.0
O169 O 0.99129 0.4411 0.56206 0.0
O170 O 0.05841 0.57535 0.52426 0.0
O171 O 0.05073 0.44421 0.54879 0.0
O172 O 0.08991 0.52516 0.54609 0.0
C173 C 0.94053 0.54659 0.53478 0.0
C174 C 0.09439 0.48207 0.83848 0.0
C175 C 0.95258 0.4746 0.85669 0.0
C176 C 0.01992 0.60087 0.82475 0.0
C177 C 0.0208 0.42817 0.53053 0.0
C178 C 0.08678 0.55702 0.51038 0.0
O179 O 0.94289 0.51418 0.56691 0.0
C180 C 0.16878 1.00369 0.33725 0.0
C181 C 0.20164 1.00122 0.38872 0.0
H182 H 0.11134 1.00605 0.35084 0.0
C183 C 0.20151 0.99989 0.49514 0.0
H184 H 0.16812 1.00437 0.25492 0.0
C185 C 0.16926 1.00119 0.55011 0.0
C186 C 0.13621 1.00315 0.49942 0.0
H187 H 0.22659 0.99767 0.53579 0.0
H188 H 0.17022 1.00003 0.63241 0.0
C189 C 0.13632 1.00441 0.39224 0.0
C190 C 0.5079 0.17011 0.31447 0.0
C191 C 0.51044 0.20205 0.37244 0.0
H192 H 0.50426 0.11198 0.31641 0.0
C193 C 0.50968 0.19953 0.47869 0.0
H194 H 0.50877 0.17127 0.23216 0.0
C195 C 0.50674 0.16576 0.52705 0.0
C196 C 0.50517 0.13362 0.46975 0.0
H197 H 0.51187 0.22387 0.52433 0.0
H198 H 0.50671 0.16484 0.60943 0.0
C199 C 0.5055 0.13619 0.36281 0.0
C200 C 0.34972 0.49944 0.38403 0.0
C201 C 0.34672 0.53043 0.32216 0.0
H202 H 0.38256 0.47027 0.48906 0.0
C203 C 0.37585 0.55489 0.314 0.0
H204 H 0.32719 0.48061 0.39297 0.0
C205 C 0.40767 0.54858 0.36644 0.0
C206 C 0.41037 0.51837 0.43148 0.0
H207 H 0.37374 0.57914 0.2678 0.0
H208 H 0.42968 0.56814 0.35924 0.0
C209 C 0.38115 0.49374 0.43954 0.0
C210 C 0.98804 0.33615 0.43956 0.0
C211 C 0.01678 0.32462 0.37962 0.0
H212 H 0.96646 0.37785 0.53271 0.0
C213 C 0.04737 0.3474 0.3679 0.0
H214 H 0.96438 0.31884 0.4495 0.0
C215 C 0.04898 0.3812 0.41694 0.0
C216 C 0.01982 0.39286 0.47666 0.0
H217 H 0.07006 0.33897 0.32229 0.0
H218 H 0.07286 0.39822 0.40773 0.0
C219 C 0.9893 0.36996 0.48675 0.0
C220 C 0.8453 0.0472 0.97751 0.0
C221 C 0.83227 0.01732 0.03492 0.0
H222 H 0.88592 0.06823 0.87619 0.0
C223 C 0.85193 0.98526 0.03473 0.0
H224 H 0.83083 0.07239 0.97585 0.0
C225 C 0.88356 0.98269 0.97647 0.0
C226 C 0.8963 0.01235 0.91761 0.0
H227 H 0.84229 0.96192 0.078 0.0
H228 H 0.8979 0.9574 0.97719 0.0
C229 C 0.87693 0.04475 0.91995 0.0
C230 C 0.47672 0.84448 0.96615 0.0
C231 C 0.5077 0.83345 0.01757 0.0
H232 H 0.45368 0.88189 0.86236 0.0
C233 C 0.53965 0.85386 0.00524 0.0
H234 H 0.45157 0.8294 0.97402 0.0
C235 C 0.54102 0.8841 0.94001 0.0
C236 C 0.51028 0.89449 0.8862 0.0
H237 H 0.56382 0.84569 0.04378 0.0
H238 H 0.56625 0.89897 0.9307 0.0
C239 C 0.47801 0.8746 0.90154 0.0
C240 C 0.69231 0.56564 0.92243 0.0
C241 C 0.70083 0.5392 -0.00536 0.0
H242 H 0.65514 0.58303 0.80916 0.0
C243 C 0.67731 0.50933 0.0096 0.0
H244 H 0.7106 0.58838 0.90848 0.0
C245 C 0.64644 0.50535 0.94981 0.0
C246 C 0.63818 0.53171 0.87646 0.0
H247 H 0.68391 0.48811 0.06308 0.0
H248 H 0.62927 0.48151 0.96003 0.0
C249 C 0.66085 0.5624 0.86538 0.0
C250 C 0.02247 0.66924 0.04156 0.0
C251 C 0.02926 0.70193 -0.01152 0.0
H252 H 0.01436 0.61157 0.03137 0.0
C253 C 0.03218 0.70121 0.88229 0.0
H254 H 0.0203 0.66896 0.12375 0.0
C255 C 0.02846 0.66856 0.82925 0.0
C256 C 0.02223 0.63564 0.88165 0.0
H257 H 0.03755 0.72611 0.84034 0.0
H258 H 0.03114 0.66911 0.74713 0.0
C259 C 0.01918 0.63638 -0.01144 0.0
C260 C 0.9682 0.15359 0.37647 0.0
C261 C 0.99053 0.15003 0.29024 0.0
H262 H 0.946 0.12787 0.51009 0.0
C263 C 1.00251 0.11505 0.26497 0.0
H264 H 0.95758 0.17966 0.39744 0.0
C265 C 0.99439 0.08526 0.32644 0.0
C266 C 0.97547 0.08957 0.418 0.0
H267 H 0.02054 0.1105 0.20156 0.0
H268 H 1.00605 0.05951 0.30651 0.0
C269 C 0.96097 0.12369 0.44022 0.0
C270 C 0.39979 0.97581 0.2185 0.0
C271 C 0.36581 0.9619 0.24977 0.0
H272 H 0.45453 0.98592 0.25576 0.0
C273 C 0.36357 0.94193 0.34119 0.0
H274 H 0.40331 0.992 0.15025 0.0
C275 C 0.39352 0.93964 0.40463 0.0
C276 C 0.42627 0.9569 0.37691 0.0
H277 H 0.33832 0.92983 0.3667 0.0
H278 H 0.3902 0.92676 0.4784 0.0
C279 C 0.42963 0.97272 0.28023 0.0
C280 C 0.58179 0.36431 0.35054 0.0
C281 C 0.56494 0.36835 0.25554 0.0
H282 H 0.59717 0.38994 0.49037 0.0
C283 C 0.55753 0.40386 0.22207 0.0
H284 H 0.58915 0.33784 0.37835 0.0
C285 C 0.56396 0.43365 0.28383 0.0
C286 C 0.57639 0.42903 0.38317 0.0
H287 H 0.54392 0.40919 0.15147 0.0
H288 H 0.55579 0.46002 0.25671 0.0
C289 C 0.58715 0.39436 0.41428 0.0
C290 C 0.18186 0.56426 0.42371 0.0
C291 C 0.17735 0.57366 0.32104 0.0
H292 H 0.15581 0.55215 0.56525 0.0
C293 C 0.14441 0.58883 0.29152 0.0
H294 H 0.20669 0.55285 0.45035 0.0
C295 C 0.11467 0.5876 0.35775 0.0
C296 C 0.1181 0.57202 0.45442 0.0
H297 H 0.14042 0.59752 0.21367 0.0
H298 H 0.08852 0.595 0.32963 0.0
C299 C 0.15243 0.56339 0.48965 0.0
C300 C 0.0519 0.90252 0.15107 0.0
C301 C 0.06855 0.86993 0.12246 0.0
H302 H 0.03683 0.95589 0.10704 0.0
C303 C 0.08886 0.8697 0.03155 0.0
H304 H 0.03509 0.90416 0.2184 0.0
C305 C 0.0893 0.89999 0.96654 0.0
C306 C 0.06988 0.93096 -0.00763 0.0
H307 H 0.10246 0.84546 0.00746 0.0
H308 H 0.10199 0.89796 0.89234 0.0
C309 C 0.05278 0.93262 0.08707 0.0
C310 C 0.61894 0.08841 0.06013 0.0
C311 C 0.6539 0.08022 0.02524 0.0
H312 H 0.56245 0.08688 0.02598 0.0
C313 C 0.65933 0.0753 0.92029 0.0
H314 H 0.61391 0.09378 0.13987 0.0
C315 C 0.63007 0.07235 0.85554 0.0
C316 C 0.59487 0.07412 0.89412 0.0
H317 H 0.68553 0.06918 0.88923 0.0
H318 H 0.63487 0.0647 0.77708 0.0
C319 C 0.58941 0.08492 -0.00502 0.0
C320 C 0.44435 0.61517 0.06433 0.0
C321 C 0.44912 0.65134 0.0297 0.0
H322 H 0.44845 0.55873 0.02578 0.0
C323 C 0.44974 0.65772 0.92406 0.0
H324 H 0.4421 0.60913 0.14485 0.0
C325 C 0.45195 0.62889 0.85655 0.0
C326 C 0.45384 0.5932 0.89293 0.0
H327 H 0.45314 0.68477 0.89283 0.0
H328 H 0.45667 0.63481 0.77661 0.0
C329 C 0.44731 0.58616 -0.00375 0.0
C330 C 0.85811 0.4844 0.94409 0.0
C331 C 0.86232 0.48217 0.05 0.0
H332 H 0.88385 0.48223 0.79882 0.0
C333 C 0.8942 0.46749 0.08867 0.0
H334 H 0.83408 0.49535 0.91094 0.0
C335 C 0.92347 0.46163 0.0243 0.0
C336 C 0.92045 0.46832 0.91996 0.0
H337 H 0.89772 0.46363 0.16967 0.0
H338 H 0.94903 0.45433 0.05671 0.0
C339 C 0.88685 0.47698 0.87948 0.0
C340 C 0.03319 0.19 0.90017 0.0
C341 C 0.05504 0.19071 -0.0136 0.0
H342 H 0.01317 0.15801 0.77721 0.0
C343 C 0.08197 0.16463 -0.00421 0.0
H344 H 0.0122 0.20972 0.89143 0.0
C345 C 0.08195 0.13425 0.93219 0.0
C346 C 0.05538 0.13023 0.85773 0.0
H347 H 0.09902 0.16458 0.06224 0.0
H348 H 0.09988 0.11226 0.94909 0.0
C349 C 0.03319 0.1598 0.83647 0.0
C350 C 0.34899 0.05352 0.96816 0.0
C351 C 0.32448 0.02444 0.95306 0.0
H352 H 0.39982 0.07771 0.92475 0.0
C353 C 0.32691 1.00436 0.86315 0.0
H354 H 0.34788 0.06912 0.0378 0.0
C355 C 0.3568 1.00898 0.79905 0.0
C356 C 0.3847 0.03375 0.82401 0.0
H357 H 0.30863 0.98163 0.85023 0.0
H358 H 0.35972 0.99054 0.73566 0.0
C359 C 0.37916 0.058 0.90439 0.0
C360 C 0.52648 0.3337 0.8622 0.0
C361 C 0.50409 0.33065 0.9481 0.0
H362 H 0.5434 0.36692 0.73659 0.0
C363 C 0.47502 0.35431 0.95797 0.0
H364 H 0.5493 0.31611 0.8537 0.0
C365 C 0.472 0.3841 0.89222 0.0
C366 C 0.49801 0.39029 0.8159 0.0
H367 H 0.45775 0.35277 0.02473 0.0
H368 H 0.45189 0.4042 0.90826 0.0
C369 C 0.52348 0.36333 0.7966 0.0
C370 C 0.15147 0.47235 0.06962 0.0
C371 C 0.18341 0.48976 0.03582 0.0
H372 H 0.09747 0.4566 0.03246 0.0
C373 C 0.1887 0.49576 0.93134 0.0
H374 H 0.14686 0.46752 0.15012 0.0
C375 C 0.16055 0.48885 0.86348 0.0
C376 C 0.12677 0.47658 0.90017 0.0
H377 H 0.21293 0.50947 0.90381 0.0
H378 H 0.16399 0.49701 0.78465 0.0
C379 C 0.12313 0.46635 0.00258 0.0
C380 C 0.02294 0.82841 0.51184 0.0
C381 C 1.00659 0.82462 0.41659 0.0
H382 H 0.02885 0.86163 0.64441 0.0
C383 C 0.9773 0.84659 0.39282 0.0
H384 H 0.04608 0.81238 0.53069 0.0
C385 C 0.96867 0.87584 0.4551 0.0
C386 C 0.98802 0.88229 0.54434 0.0
H387 H 0.9648 0.84461 0.31878 0.0
H388 H 0.94928 0.89526 0.42885 0.0
C389 C 0.01331 0.85687 0.5762 0.0
C390 C 0.68251 1.00991 0.41333 0.0
C391 C 0.67944 0.99934 0.31125 0.0
H392 H 0.65616 0.01225 0.55898 0.0
C393 C 0.65144 0.97517 0.28393 0.0
H394 H 0.7035 0.02896 0.43579 0.0
C395 C 0.62375 0.96676 0.35294 0.0
C396 C 0.62442 0.98121 0.45137 0.0
H397 H 0.64836 0.96696 0.20534 0.0
H398 H 0.60026 0.95185 0.32651 0.0
C399 C 0.65522 1.00056 0.48349 0.0
C400 C 0.55776 0.65919 0.27669 0.0
C401 C 0.53252 0.68534 0.30427 0.0
H402 H 0.5845 0.61088 0.32146 0.0
C403 C 0.52304 0.68912 0.40714 0.0
H404 H 0.5653 0.65575 0.19752 0.0
C405 C 0.53442 0.66361 0.4787 0.0
C406 C 0.55481 0.63386 0.4472 0.0
H407 H 0.50334 0.70885 0.42983 0.0
H408 H 0.52339 0.66461 0.55517 0.0
C409 C 0.56856 0.63338 0.34747 0.0
C410 C 0.87647 0.58137 0.33753 0.0
C411 C 0.8469 0.55747 0.35411 0.0
H412 H 0.93017 0.59649 0.38193 0.0
C413 C 0.84504 0.53759 0.44501 0.0
H414 H 0.87867 0.59667 0.2671 0.0
C415 C 0.87472 0.53689 0.50935 0.0
C416 C 0.90655 0.55642 0.48441 0.0
H417 H 0.82282 0.51873 0.45917 0.0
H418 H 0.87385 0.51851 0.57391 0.0
C419 C 0.90623 0.58082 0.40232 0.0
loop_
_geom_bond_atom_site_label_1
_geom_bond_atom_site_label_2
_geom_bond_distance
_geom_bond_site_symmetry_2
_ccdc_geom_bond_type
H0 C5 0.929 . S
H1 C10 0.931 . S
H2 C8 0.930 . S
N3 N4 1.234 1_554 S
N3 C7 1.453 . S
N4 N3 1.234 1_556 S
C5 H0 0.929 . S
C5 C6 1.373 . S
C5 C7 1.368 . S
C6 C5 1.373 . S
C6 C10 1.397 . S
C7 N3 1.453 . S
C7 C5 1.368 . S
C7 C8 1.373 1_554 S
C8 H2 0.930 . S
C8 C7 1.373 1_556 S
C8 C9 1.371 . S
C9 C8 1.371 . S
C9 C10 1.383 1_556 S
C10 H1 0.931 . S
C10 C6 1.397 . S
C10 C9 1.383 1_554 S
H11 C16 0.929 . S
H12 C21 0.931 . S
H13 C19 0.930 1_556 S
N14 N15 1.234 1_455 S
N14 C18 1.453 . S
N15 N14 1.234 1_655 S
C16 H11 0.929 . S
C16 C17 1.373 . S
C16 C18 1.368 . S
C17 C16 1.373 . S
C17 C21 1.397 1_455 S
C18 N14 1.453 . S
C18 C16 1.368 . S
C18 C19 1.373 . S
C19 H13 0.930 1_554 S
C19 C18 1.373 . S
C19 C20 1.371 . S
C20 C19 1.371 . S
C20 C21 1.383 1_455 S
C21 H12 0.931 . S
C21 C17 1.397 1_655 S
C21 C20 1.383 1_655 S
H22 C27 0.929 . S
H23 C32 0.931 . S
H24 C30 0.939 . S
N25 N26 1.240 1_545 S
N25 C29 1.453 . S
N26 N25 1.240 1_565 S
C27 H22 0.929 . S
C27 C28 1.373 . S
C27 C29 1.368 . S
C28 C27 1.373 . S
C28 C32 1.397 1_545 S
C29 N25 1.453 . S
C29 C27 1.368 . S
C29 C30 1.365 1_554 S
C30 H24 0.939 . S
C30 C29 1.365 1_556 S
C30 C31 1.370 1_556 S
C31 C30 1.370 1_554 S
C31 C32 1.383 1_545 S
C32 H23 0.931 . S
C32 C28 1.397 1_565 S
C32 C31 1.383 1_565 S
H33 C38 0.929 . S
H34 C43 0.931 . S
H35 C41 0.930 . S
N36 N37 1.234 1_554 S
N36 C40 1.453 . S
N37 N36 1.234 1_556 S
C38 H33 0.929 . S
C38 C39 1.373 . S
C38 C40 1.368 . S
C39 C38 1.373 . S
C39 C43 1.397 . S
C40 N36 1.453 . S
C40 C38 1.368 . S
C40 C41 1.373 1_554 S
C41 H35 0.930 . S
C41 C40 1.373 1_556 S
C41 C42 1.371 . S
C42 C41 1.371 . S
C42 C43 1.383 1_556 S
C43 H34 0.931 . S
C43 C39 1.397 . S
C43 C42 1.383 1_554 S
H44 C49 0.929 . S
H45 C54 0.931 . S
H46 C52 0.930 . S
N47 N48 1.234 . S
N47 C51 1.453 . S
N48 N47 1.234 . S
C49 H44 0.929 . S
C49 C50 1.373 . S
C49 C51 1.368 . S
C50 C49 1.373 . S
C50 C54 1.397 . S
C51 N47 1.453 . S
C51 C49 1.368 . S
C51 C52 1.373 . S
C52 H46 0.930 . S
C52 C51 1.373 . S
C52 C53 1.371 . S
C53 C52 1.371 . S
C53 C54 1.383 . S
C54 H45 0.931 . S
C54 C50 1.397 . S
C54 C53 1.383 . S
H55 C60 0.929 . S
H56 C65 0.931 . S
H57 C63 0.930 . S
N58 N59 1.234 . S
N58 C62 1.453 . S
N59 N58 1.234 . S
C60 H55 0.929 . S
C60 C61 1.373 . S
C60 C62 1.368 . S
C61 C60 1.373 . S
C61 C65 1.397 . S
C62 N58 1.453 . S
C62 C60 1.368 . S
C62 C63 1.373 . S
C63 H57 0.930 . S
C63 C62 1.373 . S
C63 C64 1.371 . S
C64 C63 1.371 . S
C64 C65 1.383 . S
C65 H56 0.931 . S
C65 C61 1.397 . S
C65 C64 1.383 . S
H66 C71 0.929 . S
H67 C76 0.931 . S
H68 C74 0.930 . S
N69 N70 1.234 . S
N69 C73 1.453 . S
N70 N69 1.234 . S
C71 H66 0.929 . S
C71 C72 1.373 . S
C71 C73 1.368 . S
C72 C71 1.373 . S
C72 C76 1.397 . S
C73 N69 1.453 . S
C73 C71 1.368 . S
C73 C74 1.373 . S
C74 H68 0.930 . S
C74 C73 1.373 . S
C74 C75 1.371 . S
C75 C74 1.371 . S
C75 C76 1.383 . S
C76 H67 0.931 . S
C76 C72 1.397 . S
C76 C75 1.383 . S
H77 C82 0.929 . S
H78 C87 0.931 . S
H79 C85 0.930 . S
N80 N81 1.234 . S
N80 C84 1.453 . S
N81 N80 1.234 . S
C82 H77 0.929 . S
C82 C83 1.373 . S
C82 C84 1.368 . S
C83 C82 1.373 . S
C83 C87 1.397 . S
C84 N80 1.453 . S
C84 C82 1.368 . S
C84 C85 1.373 . S
C85 H79 0.930 . S
C85 C84 1.373 . S
C85 C86 1.371 . S
C86 C85 1.371 . S
C86 C87 1.383 . S
C87 H78 0.931 . S
C87 C83 1.397 . S
C87 C86 1.383 . S
O88 Zn89 1.955 . S
O88 C104 1.225 1_545 S
Zn89 O88 1.955 . S
Zn89 O90 1.948 1_545 S
Zn89 O96 1.939 . S
Zn89 O101 1.900 1_545 S
O90 Zn89 1.948 1_565 S
O90 Zn91 1.899 1_465 S
O90 Zn92 1.952 . S
O90 Zn93 1.968 1_455 S
Zn91 O90 1.899 1_645 S
Zn91 O94 1.933 . S
Zn91 O97 1.941 1_655 S
Zn91 O98 1.965 . S
Zn92 O90 1.952 . S
Zn92 O99 1.938 1_565 S
Zn92 O100 1.906 . S
Zn92 O110 1.953 . S
Zn93 O90 1.968 1_655 S
Zn93 O95 1.932 . S
Zn93 O102 1.977 . S
Zn93 O103 1.910 1_655 S
O94 Zn91 1.933 . S
O94 C105 1.226 . S
O95 Zn93 1.932 . S
O95 C105 1.307 1_565 S
O96 Zn89 1.939 . S
O96 C107 1.253 . S
O97 Zn91 1.941 1_455 S
O97 C107 1.283 . S
O98 Zn91 1.965 . S
O98 C106 1.303 1_655 S
O99 Zn92 1.938 1_545 S
O99 C106 1.247 . S
O100 Zn92 1.906 . S
O100 C108 1.304 1_455 S
O101 Zn89 1.900 1_565 S
O101 C109 1.311 . S
O102 Zn93 1.977 . S
O102 C108 1.272 . S
O103 Zn93 1.910 1_455 S
O103 C109 1.231 . S
C104 O88 1.225 1_565 S
C104 O110 1.298 . S
C105 O94 1.226 . S
C105 O95 1.307 1_545 S
C106 O98 1.303 1_455 S
C106 O99 1.247 . S
C107 O96 1.253 . S
C107 O97 1.283 . S
C108 O100 1.304 1_655 S
C108 O102 1.272 . S
C109 O101 1.311 . S
C109 O103 1.231 . S
O110 Zn92 1.953 . S
O110 C104 1.298 . S
O111 Zn112 1.953 . S
O111 C127 1.225 . S
Zn112 O111 1.953 . S
Zn112 O113 1.949 . S
Zn112 O119 1.919 . S
Zn112 O124 1.924 . S
O113 Zn112 1.949 . S
O113 Zn114 1.923 1_545 S
O113 Zn115 1.950 . S
O113 Zn116 1.945 1_545 S
Zn114 O113 1.923 1_565 S
Zn114 O117 1.933 . S
Zn114 O120 1.941 . S
Zn114 O121 1.965 . S
Zn115 O113 1.950 . S
Zn115 O122 1.938 . S
Zn115 O123 1.906 . S
Zn115 O133 1.953 . S
Zn116 O113 1.945 1_565 S
Zn116 O118 1.932 . S
Zn116 O125 1.977 . S
Zn116 O126 1.910 1_565 S
O117 Zn114 1.933 . S
O117 C128 1.226 . S
O118 Zn116 1.932 . S
O118 C128 1.307 . S
O119 Zn112 1.919 . S
O119 C130 1.253 . S
O120 Zn114 1.941 . S
O120 C130 1.283 1_565 S
O121 Zn114 1.965 . S
O121 C129 1.303 1_565 S
O122 Zn115 1.938 . S
O122 C129 1.247 . S
O123 Zn115 1.906 . S
O123 C131 1.304 1_545 S
O124 Zn112 1.924 . S
O124 C132 1.311 . S
O125 Zn116 1.977 . S
O125 C131 1.272 . S
O126 Zn116 1.910 1_545 S
O126 C132 1.231 . S
C127 O111 1.225 . S
C127 O133 1.298 . S
C128 O117 1.226 . S
C128 O118 1.307 . S
C129 O121 1.303 1_545 S
C129 O122 1.247 . S
C130 O119 1.253 . S
C130 O120 1.283 1_545 S
C131 O123 1.304 1_565 S
C131 O125 1.272 . S
C132 O124 1.311 . S
C132 O126 1.231 . S
O133 Zn115 1.953 . S
O133 C127 1.298 . S
O134 Zn135 1.953 . S
O134 C150 1.225 . S
Zn135 O134 1.953 . S
Zn135 O136 1.949 . S
Zn135 O142 1.919 . S
Zn135 O147 1.924 . S
O136 Zn135 1.949 . S
O136 Zn137 1.923 . S
O136 Zn138 1.950 . S
O136 Zn139 1.945 . S
Zn137 O136 1.923 . S
Zn137 O140 1.933 . S
Zn137 O143 1.941 . S
Zn137 O144 1.965 . S
Zn138 O136 1.950 . S
Zn138 O145 1.938 . S
Zn138 O146 1.906 . S
Zn138 O156 1.953 . S
Zn139 O136 1.945 . S
Zn139 O141 1.932 . S
Zn139 O148 1.977 . S
Zn139 O149 1.910 . S
O140 Zn137 1.933 . S
O140 C151 1.226 . S
O141 Zn139 1.932 . S
O141 C151 1.307 . S
O142 Zn135 1.919 . S
O142 C153 1.253 . S
O143 Zn137 1.941 . S
O143 C153 1.283 . S
O144 Zn137 1.965 . S
O144 C152 1.303 . S
O145 Zn138 1.938 . S
O145 C152 1.247 . S
O146 Zn138 1.906 . S
O146 C154 1.304 . S
O147 Zn135 1.924 . S
O147 C155 1.311 . S
O148 Zn139 1.977 . S
O148 C154 1.272 . S
O149 Zn139 1.910 . S
O149 C155 1.231 . S
C150 O134 1.225 . S
C150 O156 1.298 . S
C151 O140 1.226 . S
C151 O141 1.307 . S
C152 O144 1.303 . S
C152 O145 1.247 . S
C153 O142 1.253 . S
C153 O143 1.283 . S
C154 O146 1.304 . S
C154 O148 1.272 . S
C155 O147 1.311 . S
C155 O149 1.231 . S
O156 Zn138 1.953 . S
O156 C150 1.298 . S
O157 Zn158 1.953 1_655 S
O157 C173 1.225 . S
Zn158 O157 1.953 1_455 S
Zn158 O159 1.949 . S
Zn158 O165 1.919 . S
Zn158 O170 1.924 . S
O159 Zn158 1.949 . S
O159 Zn160 1.917 1_455 S
O159 Zn161 1.929 1_455 S
O159 Zn162 1.973 . S
Zn160 O159 1.917 1_655 S
Zn160 O163 1.933 1_655 S
Zn160 O166 1.941 . S
Zn160 O167 1.965 . S
Zn161 O159 1.929 1_655 S
Zn161 O168 1.938 . S
Zn161 O169 1.906 . S
Zn161 O179 1.953 . S
Zn162 O159 1.973 . S
Zn162 O164 1.932 . S
Zn162 O171 1.977 . S
Zn162 O172 1.910 . S
O163 Zn160 1.933 1_455 S
O163 C174 1.226 . S
O164 Zn162 1.932 . S
O164 C174 1.307 . S
O165 Zn158 1.919 . S
O165 C176 1.253 . S
O166 Zn160 1.941 . S
O166 C176 1.284 1_655 S
O167 Zn160 1.965 . S
O167 C175 1.303 . S
O168 Zn161 1.938 . S
O168 C175 1.247 . S
O169 Zn161 1.906 . S
O169 C177 1.304 1_655 S
O170 Zn158 1.924 . S
O170 C178 1.311 . S
O171 Zn162 1.977 . S
O171 C177 1.272 . S
O172 Zn162 1.910 . S
O172 C178 1.231 . S
C173 O157 1.225 . S
C173 O179 1.298 . S
C174 O163 1.226 . S
C174 O164 1.307 . S
C175 O167 1.303 . S
C175 O168 1.247 . S
C176 O165 1.253 . S
C176 O166 1.284 1_455 S
C177 O169 1.304 1_455 S
C177 O171 1.272 . S
C178 O170 1.311 . S
C178 O172 1.231 . S
O179 Zn161 1.953 . S
O179 C173 1.298 . S
C180 C181 1.387 . S
C180 H184 0.950 . S
C180 C189 1.390 . S
C181 C180 1.387 . S
C181 C183 1.387 1_545 S
H182 C189 0.950 . S
C183 C181 1.387 1_565 S
C183 C185 1.390 . S
C183 H187 0.950 . S
H184 C180 0.950 . S
C185 C183 1.390 . S
C185 C186 1.387 . S
C185 H188 0.950 . S
C186 C185 1.387 . S
C186 C189 1.387 1_565 S
H187 C183 0.950 . S
H188 C185 0.950 . S
C189 C180 1.390 . S
C189 H182 0.950 . S
C189 C186 1.387 1_545 S
C190 C191 1.387 . S
C190 H194 0.950 . S
C190 C199 1.390 . S
C191 C190 1.387 . S
C191 C193 1.387 . S
H192 C199 0.950 . S
C193 C191 1.387 . S
C193 C195 1.390 . S
C193 H197 0.950 . S
H194 C190 0.950 . S
C195 C193 1.390 . S
C195 C196 1.387 . S
C195 H198 0.950 . S
C196 C195 1.387 . S
C196 C199 1.387 . S
H197 C193 0.950 . S
H198 C195 0.950 . S
C199 C190 1.390 . S
C199 H192 0.950 . S
C199 C196 1.387 . S
C200 C201 1.387 . S
C200 H204 0.950 . S
C200 C209 1.390 . S
C201 C200 1.387 . S
C201 C203 1.387 . S
H202 C209 0.950 . S
C203 C201 1.387 . S
C203 C205 1.390 . S
C203 H207 0.950 . S
H204 C200 0.950 . S
C205 C203 1.390 . S
C205 C206 1.387 . S
C205 H208 0.950 . S
C206 C205 1.387 . S
C206 C209 1.387 . S
H207 C203 0.950 . S
H208 C205 0.950 . S
C209 C200 1.390 . S
C209 H202 0.950 . S
C209 C206 1.387 . S
C210 C211 1.387 . S
C210 H214 0.950 . S
C210 C219 1.390 . S
C211 C210 1.387 . S
C211 C213 1.387 . S
H212 C219 0.950 . S
C213 C211 1.387 . S
C213 C215 1.390 . S
C213 H217 0.950 . S
H214 C210 0.950 . S
C215 C213 1.390 . S
C215 C216 1.387 . S
C215 H218 0.950 . S
C216 C215 1.387 . S
C216 C219 1.387 . S
H217 C213 0.950 . S
H218 C215 0.950 . S
C219 C210 1.390 . S
C219 H212 0.950 . S
C219 C216 1.387 . S
C220 C221 1.385 1_545 S
C220 H224 0.950 . S
C220 C229 1.390 . S
C221 C220 1.385 1_565 S
C221 C223 1.390 . S
H222 C229 0.950 . S
C223 C221 1.390 . S
C223 C225 1.390 . S
C223 H227 0.950 . S
H224 C220 0.950 . S
C225 C223 1.390 . S
C225 C226 1.387 1_565 S
C225 H228 0.950 . S
C226 C225 1.387 1_545 S
C226 C229 1.387 . S
H227 C223 0.950 . S
H228 C225 0.950 . S
C229 C220 1.390 . S
C229 H222 0.950 . S
C229 C226 1.387 . S
C230 C231 1.387 . S
C230 H234 0.950 . S
C230 C239 1.390 . S
C231 C230 1.387 . S
C231 C233 1.387 . S
H232 C239 0.950 . S
C233 C231 1.387 . S
C233 C235 1.390 . S
C233 H237 0.950 . S
H234 C230 0.950 . S
C235 C233 1.390 . S
C235 C236 1.387 . S
C235 H238 0.950 . S
C236 C235 1.387 . S
C236 C239 1.387 . S
H237 C233 0.950 . S
H238 C235 0.950 . S
C239 C230 1.390 . S
C239 H232 0.950 . S
C239 C236 1.387 . S
C240 C241 1.387 . S
C240 H244 0.950 . S
C240 C249 1.390 . S
C241 C240 1.387 . S
C241 C243 1.387 . S
H242 C249 0.950 . S
C243 C241 1.387 . S
C243 C245 1.390 . S
C243 H247 0.950 . S
H244 C240 0.950 . S
C245 C243 1.390 . S
C245 C246 1.387 . S
C245 H248 0.950 . S
C246 C245 1.387 . S
C246 C249 1.387 . S
H247 C243 0.950 . S
H248 C245 0.950 . S
C249 C240 1.390 . S
C249 H242 0.950 . S
C249 C246 1.387 . S
C250 C251 1.387 1_455 S
C250 H254 0.950 . S
C250 C259 1.390 . S
C251 C250 1.387 1_655 S
C251 C253 1.387 . S
H252 C259 0.950 . S
C253 C251 1.387 . S
C253 C255 1.390 . S
C253 H257 0.950 . S
H254 C250 0.950 . S
C255 C253 1.390 . S
C255 C256 1.387 1_655 S
C255 H258 0.950 . S
C256 C255 1.387 1_455 S
C256 C259 1.387 . S
H257 C253 0.950 . S
H258 C255 0.950 . S
C259 C250 1.390 . S
C259 H252 0.950 . S
C259 C256 1.387 . S
C260 C261 1.387 . S
C260 H264 0.950 1_455 S
C260 C269 1.390 . S
C261 C260 1.387 . S
C261 C263 1.387 . S
H262 C269 0.950 1_655 S
C263 C261 1.387 . S
C263 C265 1.390 . S
C263 H267 0.950 . S
H264 C260 0.950 1_655 S
C265 C263 1.390 . S
C265 C266 1.387 . S
C265 H268 0.950 . S
C266 C265 1.387 . S
C266 C269 1.387 . S
H267 C263 0.950 . S
H268 C265 0.950 . S
C269 C260 1.390 . S
C269 H262 0.950 1_455 S
C269 C266 1.387 . S
C270 C271 1.387 . S
C270 H274 0.950 . S
C270 C279 1.390 . S
C271 C270 1.387 . S
C271 C273 1.387 1_545 S
H272 C279 0.950 . S
C273 C271 1.387 1_565 S
C273 C275 1.390 . S
C273 H277 0.950 . S
H274 C270 0.950 . S
C275 C273 1.390 . S
C275 C276 1.387 1_565 S
C275 H278 0.950 . S
C276 C275 1.387 1_545 S
C276 C279 1.387 . S
H277 C273 0.950 . S
H278 C275 0.950 . S
C279 C270 1.390 . S
C279 H272 0.950 . S
C279 C276 1.387 . S
C280 C281 1.387 . S
C280 H284 0.950 . S
C280 C289 1.390 . S
C281 C280 1.387 . S
C281 C283 1.387 . S
H282 C289 0.950 . S
C283 C281 1.387 . S
C283 C285 1.390 . S
C283 H287 0.950 . S
H284 C280 0.950 . S
C285 C283 1.390 . S
C285 C286 1.387 . S
C285 H288 0.950 . S
C286 C285 1.387 . S
C286 C289 1.387 . S
H287 C283 0.950 . S
H288 C285 0.950 . S
C289 C280 1.390 . S
C289 H282 0.950 . S
C289 C286 1.387 . S
C290 C291 1.387 . S
C290 H294 0.950 . S
C290 C299 1.390 . S
C291 C290 1.387 . S
C291 C293 1.387 . S
H292 C299 0.950 . S
C293 C291 1.387 . S
C293 C295 1.390 . S
C293 H297 0.950 . S
H294 C290 0.950 . S
C295 C293 1.390 . S
C295 C296 1.387 . S
C295 H298 0.950 . S
C296 C295 1.387 . S
C296 C299 1.387 . S
H297 C293 0.950 . S
H298 C295 0.950 . S
C299 C290 1.390 . S
C299 H292 0.950 . S
C299 C296 1.387 . S
C300 C301 1.387 1_655 S
C300 H304 0.950 . S
C300 C309 1.390 1_654 S
C301 C300 1.387 1_455 S
C301 C303 1.387 1_554 S
H302 C309 0.950 1_554 S
C303 C301 1.387 1_556 S
C303 C305 1.390 . S
C303 H307 0.950 . S
H304 C300 0.950 . S
C305 C303 1.390 . S
C305 C306 1.387 . S
C305 H308 0.950 . S
C306 C305 1.387 . S
C306 C309 1.387 . S
H307 C303 0.950 . S
H308 C305 0.950 . S
C309 C300 1.390 1_456 S
C309 H302 0.950 1_556 S
C309 C306 1.387 . S
C310 C311 1.387 . S
C310 H314 0.950 1_556 S
C310 C319 1.390 . S
C311 C310 1.387 . S
C311 C313 1.387 1_545 S
H312 C319 0.950 . S
C313 C311 1.387 1_565 S
C313 C315 1.390 1_565 S
C313 H317 0.950 . S
H314 C310 0.950 1_554 S
C315 C313 1.390 1_545 S
C315 C316 1.387 . S
C315 H318 0.950 1_545 S
C316 C315 1.387 . S
C316 C319 1.387 . S
H317 C313 0.950 . S
H318 C315 0.950 1_565 S
C319 C310 1.390 . S
C319 H312 0.950 . S
C319 C316 1.387 . S
C320 C321 1.387 . S
C320 H324 0.950 1_556 S
C320 C329 1.390 . S
C321 C320 1.387 . S
C321 C323 1.387 . S
H322 C329 0.950 1_554 S
C323 C321 1.387 . S
C323 C325 1.390 . S
C323 H327 0.950 . S
H324 C320 0.950 1_554 S
C325 C323 1.390 . S
C325 C326 1.387 . S
C325 H328 0.950 . S
C326 C325 1.387 . S
C326 C329 1.387 . S
H327 C323 0.950 . S
H328 C325 0.950 . S
C329 C320 1.390 . S
C329 H322 0.950 1_556 S
C329 C326 1.387 . S
C330 C331 1.387 . S
C330 H334 0.950 . S
C330 C339 1.390 . S
C331 C330 1.387 . S
C331 C333 1.387 . S
H332 C339 0.950 . S
C333 C331 1.387 . S
C333 C335 1.390 . S
C333 H337 0.950 1_556 S
H334 C330 0.950 . S
C335 C333 1.390 . S
C335 C336 1.387 . S
C335 H338 0.950 . S
C336 C335 1.387 . S
C336 C339 1.387 . S
H337 C333 0.950 1_554 S
H338 C335 0.950 . S
C339 C330 1.390 . S
C339 H332 0.950 . S
C339 C336 1.387 . S
C340 C341 1.387 . S
C340 H344 0.950 1_455 S
C340 C349 1.389 1_455 S
C341 C340 1.387 . S
C341 C343 1.387 . S
H342 C349 0.954 1_556 S
C343 C341 1.387 . S
C343 C345 1.390 . S
C343 H347 0.950 . S
H344 C340 0.950 1_655 S
C345 C343 1.390 . S
C345 C346 1.387 . S
C345 H348 0.950 . S
C346 C345 1.387 . S
C346 C349 1.384 1_455 S
H347 C343 0.950 . S
H348 C345 0.950 . S
C349 C340 1.389 1_655 S
C349 H342 0.954 1_554 S
C349 C346 1.384 1_655 S
C350 C351 1.387 . S
C350 H354 0.950 . S
C350 C359 1.390 . S
C351 C350 1.387 . S
C351 C353 1.387 1_545 S
H352 C359 0.950 1_556 S
C353 C351 1.387 1_565 S
C353 C355 1.390 . S
C353 H357 0.950 . S
H354 C350 0.950 . S
C355 C353 1.390 . S
C355 C356 1.387 1_564 S
C355 H358 0.950 . S
C356 C355 1.387 1_546 S
C356 C359 1.387 1_556 S
H357 C353 0.950 . S
H358 C355 0.950 . S
C359 C350 1.390 . S
C359 H352 0.950 1_554 S
C359 C356 1.387 1_554 S
C360 C361 1.387 . S
C360 H364 0.950 . S
C360 C369 1.390 1_554 S
C361 C360 1.387 . S
C361 C363 1.387 . S
H362 C369 0.950 . S
C363 C361 1.387 . S
C363 C365 1.390 . S
C363 H367 0.950 . S
H364 C360 0.950 . S
C365 C363 1.390 . S
C365 C366 1.387 1_554 S
C365 H368 0.950 . S
C366 C365 1.387 1_556 S
C366 C369 1.387 . S
H367 C363 0.950 . S
H368 C365 0.950 . S
C369 C360 1.390 1_556 S
C369 H362 0.950 . S
C369 C366 1.387 . S
C370 C371 1.387 . S
C370 H374 0.950 . S
C370 C379 1.390 . S
C371 C370 1.387 . S
C371 C373 1.387 . S
H372 C379 0.950 . S
C373 C371 1.387 . S
C373 C375 1.390 1_554 S
C373 H377 0.950 . S
H374 C370 0.950 . S
C375 C373 1.390 1_556 S
C375 C376 1.387 . S
C375 H378 0.950 . S
C376 C375 1.387 . S
C376 C379 1.387 1_556 S
H377 C373 0.950 . S
H378 C375 0.950 . S
C379 C370 1.390 . S
C379 H372 0.950 . S
C379 C376 1.387 1_554 S
C380 C381 1.387 1_455 S
C380 H384 0.950 . S
C380 C389 1.390 . S
C381 C380 1.387 1_655 S
C381 C383 1.387 . S
H382 C389 0.950 . S
C383 C381 1.387 . S
C383 C385 1.390 . S
C383 H387 0.950 . S
H384 C380 0.950 . S
C385 C383 1.390 . S
C385 C386 1.387 . S
C385 H388 0.950 . S
C386 C385 1.387 . S
C386 C389 1.387 1_655 S
H387 C383 0.950 . S
H388 C385 0.950 . S
C389 C380 1.390 . S
C389 H382 0.950 . S
C389 C386 1.387 1_455 S
C390 C391 1.387 1_545 S
C390 H394 0.950 . S
C390 C399 1.390 . S
C391 C390 1.387 1_565 S
C391 C393 1.387 . S
H392 C399 0.950 . S
C393 C391 1.387 . S
C393 C395 1.390 . S
C393 H397 0.950 . S
H394 C390 0.950 . S
C395 C393 1.390 . S
C395 C396 1.387 . S
C395 H398 0.950 . S
C396 C395 1.387 . S
C396 C399 1.387 1_565 S
H397 C393 0.950 . S
H398 C395 0.950 . S
C399 C390 1.390 . S
C399 H392 0.950 . S
C399 C396 1.387 1_545 S
C400 C401 1.387 . S
C400 H404 0.950 . S
C400 C409 1.390 . S
C401 C400 1.387 . S
C401 C403 1.387 . S
H402 C409 0.950 . S
C403 C401 1.387 . S
C403 C405 1.390 . S
C403 H407 0.950 . S
H404 C400 0.950 . S
C405 C403 1.390 . S
C405 C406 1.387 . S
C405 H408 0.950 . S
C406 C405 1.387 . S
C406 C409 1.387 . S
H407 C403 0.950 . S
H408 C405 0.950 . S
C409 C400 1.390 . S
C409 H402 0.950 . S
C409 C406 1.387 . S
C410 C411 1.387 . S
C410 H414 0.950 . S
C410 C419 1.390 . S
C411 C410 1.387 . S
C411 C413 1.387 . S
H412 C419 0.950 . S
C413 C411 1.387 . S
C413 C415 1.390 . S
C413 H417 0.950 . S
H414 C410 0.950 . S
C415 C413 1.390 . S
C415 C416 1.387 . S
C415 H418 0.950 . S
C416 C415 1.387 . S
C416 C419 1.387 . S
H417 C413 0.950 . S
H418 C415 0.950 . S
C419 C410 1.390 . S
C419 H412 0.950 . S
C419 C416 1.387 . S
C181 N70 1.568 . S
C186 C104 1.611 . S
C196 C127 1.640 . S
C191 N81 1.594 . S
C206 C150 1.634 . S
C201 N48 1.591 . S
C216 C177 1.519 . S
C211 N59 1.571 . S
C226 C105 1.561 . S
C221 N26 1.521 1_556 S
C231 N37 1.485 . S
C236 C128 1.527 . S
C241 N4 1.486 . S
C246 C151 1.520 . S
C251 N15 1.551 1_556 S
C256 C176 1.582 . S
C266 C106 0.764 . S
C261 C64 0.761 . S
C276 C129 0.727 . S
C271 C75 0.728 . S
C286 C152 0.754 . S
C281 C86 0.756 . S
C291 C53 0.900 . S
C296 C178 0.876 . S
C301 C20 1.008 . S
C306 C109 0.962 . S
C316 C132 0.951 . S
C311 C31 1.000 1_556 S
C326 C155 0.929 . S
C321 C42 0.976 . S
C331 C9 0.736 . S
C336 C175 0.735 . S
C341 C61 1.573 . S
C346 C107 1.542 1_554 S
C351 C72 1.532 . S
C356 C130 1.529 . S
C366 C153 1.539 . S
C361 C83 1.546 . S
C376 C174 1.458 . S
C371 C50 1.405 . S
C381 C17 1.657 1_655 S
C386 C108 1.564 . S
C396 C131 1.515 . S
C391 C28 1.615 1_565 S
C406 C154 1.502 . S
C401 C39 1.590 . S
C411 C6 1.649 . S
C416 C173 1.693 . S
