# Generated by pormake.
# Topology zzz, (3,6)-cn, num edge types: 1
# Building blocks:
#     Node 0, Type 0, BuildingBlock: BETDAH_clean_linker_0, # of connection points: 3
#     Node 1, Type 0, BuildingBlock: BETDAH_clean_linker_0, # of connection points: 3
#     Node 2, Type 0, BuildingBlock: BETDAH_clean_linker_0, # of connection points: 3
#     Node 3, Type 0, BuildingBlock: BETDAH_clean_linker_0, # of connection points: 3
#     Node 4, Type 0, BuildingBlock: BETDAH_clean_linker_0, # of connection points: 3
#     Node 5, Type 0, BuildingBlock: BETDAH_clean_linker_0, # of connection points: 3
#     Node 6, Type 0, BuildingBlock: BETDAH_clean_linker_0, # of connection points: 3
#     Node 7, Type 0, BuildingBlock: BETDAH_clean_linker_0, # of connection points: 3
#     Node 8, Type 1, BuildingBlock: FUNLAD_clean_sbu_0, # of connection points: 6
#     Node 9, Type 1, BuildingBlock: FUNLAD_clean_sbu_0, # of connection points: 6
#     Node 10, Type 1, BuildingBlock: FUNLAD_clean_sbu_0, # of connection points: 6
#     Node 11, Type 1, BuildingBlock: FUNLAD_clean_sbu_0, # of connection points: 6
#     Edge 12, Type (0, 1), BuildingBlock: XUDNAN_clean_linker_2, # of connection points: 2
#     Edge 13, Type (0, 1), BuildingBlock: XUDNAN_clean_linker_2, # of connection points: 2
#     Edge 14, Type (0, 1), BuildingBlock: XUDNAN_clean_linker_2, # of connection points: 2
#     Edge 15, Type (0, 1), BuildingBlock: XUDNAN_clean_linker_2, # of connection points: 2
#     Edge 16, Type (0, 1), BuildingBlock: XUDNAN_clean_linker_2, # of connection points: 2
#     Edge 17, Type (0, 1), BuildingBlock: XUDNAN_clean_linker_2, # of connection points: 2
#     Edge 18, Type (0, 1), BuildingBlock: XUDNAN_clean_linker_2, # of connection points: 2
#     Edge 19, Type (0, 1), BuildingBlock: XUDNAN_clean_linker_2, # of connection points: 2
#     Edge 20, Type (0, 1), BuildingBlock: XUDNAN_clean_linker_2, # of connection points: 2
#     Edge 21, Type (0, 1), BuildingBlock: XUDNAN_clean_linker_2, # of connection points: 2
#     Edge 22, Type (0, 1), BuildingBlock: XUDNAN_clean_linker_2, # of connection points: 2
#     Edge 23, Type (0, 1), BuildingBlock: XUDNAN_clean_linker_2, # of connection points: 2
#     Edge 24, Type (0, 1), BuildingBlock: XUDNAN_clean_linker_2, # of connection points: 2
#     Edge 25, Type (0, 1), BuildingBlock: XUDNAN_clean_linker_2, # of connection points: 2
#     Edge 26, Type (0, 1), BuildingBlock: XUDNAN_clean_linker_2, # of connection points: 2
#     Edge 27, Type (0, 1), BuildingBlock: XUDNAN_clean_linker_2, # of connection points: 2
#     Edge 28, Type (0, 1), BuildingBlock: XUDNAN_clean_linker_2, # of connection points: 2
#     Edge 29, Type (0, 1), BuildingBlock: XUDNAN_clean_linker_2, # of connection points: 2
#     Edge 30, Type (0, 1), BuildingBlock: XUDNAN_clean_linker_2, # of connection points: 2
#     Edge 31, Type (0, 1), BuildingBlock: XUDNAN_clean_linker_2, # of connection points: 2
#     Edge 32, Type (0, 1), BuildingBlock: XUDNAN_clean_linker_2, # of connection points: 2
#     Edge 33, Type (0, 1), BuildingBlock: XUDNAN_clean_linker_2, # of connection points: 2
#     Edge 34, Type (0, 1), BuildingBlock: XUDNAN_clean_linker_2, # of connection points: 2
#     Edge 35, Type (0, 1), BuildingBlock: XUDNAN_clean_linker_2, # of connection points: 2
# Relax obj value: 0.118
# Max RMSD: 0.175
# Mean RMSD: 0.091
data_MOF--net-zzz--node1-FUNLAD_clean_sbu_0--node2-BETDAH_clean_linker_0--edge1-XUDNAN_clean_linker_2
_symmetry_space_group_name_H-M    P1
_symmetry_Int_Tables_number       1
_symmetry_cell_setting            triclinic
loop_
_symmetry_equiv_pos_as_xyz
'x, y, z'
_cell_length_a     51.583246
_cell_length_b     57.113791
_cell_length_c     17.418738
_cell_angle_alpha  85.423009
_cell_angle_beta   84.976201
_cell_angle_gamma 90.030245
loop_
_atom_site_label
_atom_site_type_symbol
_atom_site_fract_x
_atom_site_fract_y
_atom_site_fract_z
_atom_type_partial_charge
H0 H 0.87126 0.47718 0.25724 0.0
H1 H 0.79818 0.47362 0.15927 0.0
H2 H 0.80048 0.48969 0.39639 0.0
C3 C 0.85016 0.47731 0.26429 0.0
C4 C 0.83757 0.48293 0.33488 0.0
C5 C 0.83613 0.47409 0.20071 0.0
C6 C 0.80896 0.47598 0.20875 0.0
C7 C 0.79593 0.48148 0.2796 0.0
C8 C 0.81038 0.48492 0.34244 0.0
N9 N 0.76857 0.4847 0.28796 0.0
C10 C 0.75372 0.48639 0.22499 0.0
H11 H 0.97665 0.8494 0.10159 0.0
H12 H 0.9991 0.78381 0.0108 0.0
H13 H 0.94406 0.78509 0.21224 0.0
C14 C 0.97551 0.83037 0.10447 0.0
C15 C 0.9589 0.81873 0.16265 0.0
C16 C 0.99054 0.81802 0.05043 0.0
C17 C 0.98793 0.79344 0.05329 0.0
C18 C 0.97093 0.78145 0.11154 0.0
C19 C 0.95679 0.79423 0.16671 0.0
N20 N 0.96743 0.75668 0.11648 0.0
C21 C 0.98078 0.74164 0.06818 0.0
H22 H 0.67599 0.00676 0.16281 0.0
H23 H 0.75068 0.00923 0.03172 0.0
H24 H 0.74553 0.00378 0.28139 0.0
C25 C 0.69707 0.00666 0.16107 0.0
C26 C 0.70887 0.00466 0.23036 0.0
C27 C 0.71188 0.0087 0.08954 0.0
C28 C 0.73924 0.00806 0.08707 0.0
C29 C 0.75155 0.00638 0.15668 0.0
C30 C 0.73617 0.00497 0.22791 0.0
N31 N 0.77914 0.0062 0.15807 0.0
C32 C 0.7973 0.00588 0.0939 0.0
H33 H 0.52773 0.63999 0.1756 0.0
H34 H 0.52503 0.70659 0.04351 0.0
H35 H 0.54505 0.70334 0.27921 0.0
C36 C 0.52968 0.65897 0.17184 0.0
C37 C 0.53716 0.66997 0.23547 0.0
C38 C 0.52518 0.67201 0.10281 0.0
C39 C 0.52811 0.69656 0.09735 0.0
C40 C 0.53501 0.70796 0.16158 0.0
C41 C 0.53942 0.69455 0.23027 0.0
N42 N 0.538 0.73273 0.1593 0.0
C43 C 0.5349 0.74821 0.095 0.0
H44 H 0.17923 0.5023 0.18017 0.0
H45 H 0.25075 0.51196 0.28206 0.0
H46 H 0.25215 0.49385 0.04613 0.0
C47 C 0.20034 0.50243 0.17561 0.0
C48 C 0.21406 0.49722 0.10623 0.0
C49 C 0.21345 0.50803 0.23879 0.0
C50 C 0.24071 0.50779 0.23284 0.0
C51 C 0.25483 0.50256 0.16334 0.0
C52 C 0.24136 0.49761 0.09993 0.0
N53 N 0.28247 0.50217 0.15573 0.0
C54 C 0.29722 0.50475 0.21755 0.0
H55 H 0.04917 0.1605 0.29343 0.0
H56 H 0.03934 0.22706 0.39002 0.0
H57 H 0.08886 0.22134 0.17875 0.0
C58 C 0.05365 0.17914 0.29085 0.0
C59 C 0.07051 0.18922 0.23025 0.0
C60 C 0.04221 0.1927 0.34774 0.0
C61 C 0.04813 0.21672 0.34531 0.0
C62 C 0.06511 0.22721 0.28403 0.0
C63 C 0.07596 0.21337 0.22613 0.0
N64 N 0.07157 0.25152 0.27854 0.0
C65 C 0.06524 0.26638 0.33678 0.0
H66 H 0.35904 0.01501 0.28473 0.0
H67 H 0.2838 0.01776 0.41138 0.0
H68 H 0.29071 0.02313 0.16167 0.0
C69 C 0.33812 0.01723 0.28505 0.0
C70 C 0.3268 0.01919 0.21503 0.0
C71 C 0.32288 0.01658 0.35574 0.0
C72 C 0.29561 0.01826 0.35671 0.0
C73 C 0.28395 0.02125 0.28622 0.0
C74 C 0.29968 0.02144 0.21582 0.0
N75 N 0.25676 0.02485 0.28295 0.0
C76 C 0.23715 0.01819 0.34089 0.0
H77 H 0.49688 0.36177 0.26506 0.0
H78 H 0.50206 0.29644 0.40259 0.0
H79 H 0.48397 0.29686 0.16525 0.0
C80 C 0.49477 0.34279 0.27112 0.0
C81 C 0.4893 0.33094 0.20717 0.0
C82 C 0.49938 0.33054 0.34142 0.0
C83 C 0.49829 0.30589 0.34833 0.0
C84 C 0.49229 0.29367 0.28475 0.0
C85 C 0.48805 0.30631 0.21445 0.0
N86 N 0.49075 0.26877 0.2885 0.0
C87 C 0.49431 0.25384 0.35372 0.0
C88 C 0.02383 0.96064 0.75233 0.0
N89 N 0.98932 0.98052 0.55159 0.0
C90 C 1.0047 0.96362 0.52116 0.0
C91 C 0.99443 0.94723 0.47695 0.0
C92 C 0.96788 0.94781 0.46481 0.0
C93 C 0.95275 0.96631 0.49264 0.0
C94 C 0.96396 0.98261 0.53608 0.0
Zn95 Zn 1.00391 0.99794 0.6372 0.0
C96 C 0.96284 0.00242 0.76787 0.0
N97 N 0.03523 0.02883 0.825 0.0
C98 C 0.0606 0.02695 0.84055 0.0
C99 C 0.01959 0.04541 0.85632 0.0
C100 C 0.0295 0.06152 0.90234 0.0
C101 C 0.05598 0.06104 0.9154 0.0
C102 C 0.07145 0.04299 0.88573 0.0
Zn103 Zn 0.02078 0.01137 0.73905 0.0
O104 O 0.01321 0.96505 0.68984 0.0
C105 C 0.06145 0.00613 0.60669 0.0
O106 O 0.02956 0.97753 0.79147 0.0
H107 H 0.99964 0.04703 0.84239 0.0
H108 H 0.02466 0.96187 0.5349 0.0
H109 H 0.07282 0.01379 0.81472 0.0
O110 O 0.04145 0.99958 0.57615 0.0
O111 O 0.05882 0.01269 0.67506 0.0
H112 H 0.95197 0.99608 0.56103 0.0
O113 O 0.01213 0.04459 0.68457 0.0
O114 O 0.99474 0.0313 0.58561 0.0
O115 O 0.98209 0.00953 0.80114 0.0
O116 O 0.96683 0.9963 0.69941 0.0
C117 C 1.00126 0.04848 0.62216 0.0
H118 H 0.00706 0.93372 0.4548 0.0
H119 H 0.93221 0.96747 0.48454 0.0
H120 H 0.01659 0.07465 0.92563 0.0
H121 H 0.09197 0.04192 0.89411 0.0
C122 C 0.47597 0.99674 0.63449 0.0
N123 N 0.51452 0.05657 0.69639 0.0
C124 C 0.51262 0.06393 0.62088 0.0
C125 C 0.51103 0.08776 0.5978 0.0
C126 C 0.51152 0.10444 0.65266 0.0
C127 C 0.51341 0.09642 0.73047 0.0
C128 C 0.51494 0.07225 0.75119 0.0
Zn129 Zn 0.51627 0.02091 0.72147 0.0
C130 C 0.47872 0.00264 0.84565 0.0
N131 N 0.51935 0.94608 0.75196 0.0
C132 C 0.51919 0.93044 0.69697 0.0
C133 C 0.52064 0.93866 0.82769 0.0
C134 C 0.52182 0.91481 0.85083 0.0
C135 C 0.52156 0.89816 0.79579 0.0
C136 C 0.52033 0.90625 0.71773 0.0
Zn137 Zn 0.51767 0.98176 0.72684 0.0
O138 O 0.48485 0.01642 0.65036 0.0
C139 C 0.55552 1.00064 0.60362 0.0
O140 O 0.48719 0.97794 0.65686 0.0
H141 H 0.52086 0.95132 0.87058 0.0
H142 H 0.51219 0.05125 0.57814 0.0
H143 H 0.51814 0.93671 0.63707 0.0
O144 O 0.54507 0.01909 0.62809 0.0
O145 O 0.54676 0.98061 0.63147 0.0
H146 H 0.51644 0.06602 0.81092 0.0
O147 O 0.54855 0.98595 0.79607 0.0
O148 O 0.54761 0.02445 0.79239 0.0
O149 O 0.48836 0.98381 0.82122 0.0
O150 O 0.48792 0.02234 0.81645 0.0
C151 C 0.5584 0.00513 0.81225 0.0
H152 H 0.50901 0.09299 0.53749 0.0
H153 H 0.51397 0.10867 0.77467 0.0
H154 H 0.52334 0.90952 0.91136 0.0
H155 H 0.51995 0.89404 0.67337 0.0
C156 C 0.53545 0.46511 0.62375 0.0
N157 N 0.46836 0.50405 0.67281 0.0
C158 C 0.4687 0.50413 0.59462 0.0
C159 C 0.44566 0.50462 0.55902 0.0
C160 C 0.4218 0.50511 0.60392 0.0
C161 C 0.4218 0.50554 0.6845 0.0
C162 C 0.44554 0.50485 0.71814 0.0
Zn163 Zn 0.50414 0.50188 0.71423 0.0
C164 C 0.50978 0.46437 0.82982 0.0
N165 N 0.58232 0.49643 0.76867 0.0
C166 C 0.60514 0.49576 0.72329 0.0
C167 C 0.58195 0.49562 0.84698 0.0
C168 C 0.60495 0.49401 0.88283 0.0
C169 C 0.62882 0.49309 0.83807 0.0
C170 C 0.62884 0.49415 0.7571 0.0
Zn171 Zn 0.54653 0.49875 0.72724 0.0
O172 O 0.51371 0.47498 0.63873 0.0
C173 C 0.54042 0.53622 0.61093 0.0
O174 O 0.55548 0.47233 0.65245 0.0
H175 H 0.56368 0.49633 0.88215 0.0
H176 H 0.48698 0.50369 0.55935 0.0
H177 H 0.60495 0.49645 0.6611 0.0
O178 O 0.5173 0.52903 0.63013 0.0
O179 O 0.55927 0.52576 0.641 0.0
H180 H 0.44576 0.50478 0.7802 0.0
O181 O 0.53731 0.52587 0.80099 0.0
O182 O 0.49533 0.5285 0.78985 0.0
O183 O 0.53307 0.47135 0.81163 0.0
O184 O 0.49122 0.47515 0.79955 0.0
C185 C 0.51576 0.536 0.81591 0.0
H186 H 0.44655 0.5048 0.49659 0.0
H187 H 0.40371 0.50598 0.72094 0.0
H188 H 0.604 0.49384 0.94525 0.0
H189 H 0.64688 0.49349 0.72055 0.0
C190 C 0.06587 0.51326 0.61126 0.0
N191 N 0.02885 0.44897 0.68135 0.0
C192 C 0.03202 0.44606 0.60433 0.0
C193 C 0.03502 0.42367 0.5782 0.0
C194 C 0.03451 0.40385 0.63161 0.0
C195 C 0.03069 0.40735 0.71092 0.0
C196 C 0.02798 0.43015 0.73462 0.0
Zn197 Zn 0.02639 0.48279 0.71364 0.0
C198 C 0.06351 0.49438 0.81835 0.0
N199 N 0.02214 0.55521 0.75941 0.0
C200 C 0.02018 0.57441 0.7086 0.0
C201 C 0.0235 0.55754 0.83614 0.0
C202 C 0.02383 0.5797 0.86412 0.0
C203 C 0.0222 0.59978 0.81315 0.0
C204 C 0.01992 0.59704 0.73461 0.0
Zn205 Zn 0.02401 0.52144 0.72603 0.0
O206 O 0.05745 0.49258 0.63116 0.0
C207 C 0.98759 0.51018 0.61891 0.0
O208 O 0.05431 0.53074 0.63909 0.0
H209 H 0.02458 0.54213 0.87598 0.0
H210 H 0.03263 0.46121 0.56279 0.0
H211 H 0.01907 0.57219 0.64788 0.0
O212 O 0.99812 0.49035 0.63341 0.0
O213 O 0.9954 0.52808 0.64938 0.0
H214 H 0.02539 0.43283 0.79558 0.0
O215 O 0.99342 0.51153 0.81151 0.0
O216 O 0.99563 0.4736 0.79776 0.0
O217 O 0.05336 0.51413 0.80121 0.0
O218 O 0.05457 0.47596 0.79358 0.0
C219 C 0.98457 0.49081 0.82856 0.0
H220 H 0.03838 0.42206 0.51663 0.0
H221 H 0.02977 0.39265 0.75435 0.0
H222 H 0.02523 0.58114 0.92528 0.0
H223 H 0.01857 0.61222 0.69374 0.0
H224 H 0.20988 0.04031 0.45655 0.0
H225 H 0.20932 0.98013 0.32015 0.0
H226 H 0.16483 0.96985 0.37742 0.0
H227 H 0.17187 0.01173 0.63147 0.0
H228 H 0.15464 0.03829 0.65194 0.0
H229 H 0.18722 0.03994 0.60494 0.0
H230 H 0.17088 0.06677 0.49255 0.0
H231 H 0.13823 0.06498 0.53869 0.0
H232 H 0.14468 0.05673 0.44115 0.0
H233 H 0.11916 0.9687 0.43652 0.0
H234 H 0.0761 0.97387 0.5059 0.0
H235 H 0.10578 0.03333 0.61257 0.0
C236 C 0.20055 0.02463 0.44064 0.0
C237 C 0.213 0.01072 0.3849 0.0
C238 C 0.20014 0.99071 0.36368 0.0
C239 C 0.17485 0.98482 0.39562 0.0
C240 C 0.16276 0.99907 0.44925 0.0
C241 C 0.17525 0.01833 0.47285 0.0
C242 C 0.15736 0.03094 0.53007 0.0
C243 C 0.16844 0.03017 0.60932 0.0
C244 C 0.15251 0.05636 0.49871 0.0
C245 C 0.13278 0.01604 0.53355 0.0
C246 C 0.13639 0.99787 0.48589 0.0
C247 C 0.11622 0.98261 0.47501 0.0
C248 C 0.09175 0.9858 0.51431 0.0
C249 C 0.08759 0.0039 0.56497 0.0
C250 C 0.10849 0.01915 0.575 0.0
H251 H 0.52391 0.21533 0.34498 0.0
H252 H 0.47061 0.25183 0.49927 0.0
H253 H 0.47236 0.21867 0.60009 0.0
H254 H 0.49714 0.15957 0.39058 0.0
H255 H 0.5276 0.1441 0.38426 0.0
H256 H 0.52456 0.17176 0.32894 0.0
H257 H 0.56384 0.18845 0.39085 0.0
H258 H 0.5671 0.16073 0.44616 0.0
H259 H 0.56344 0.1874 0.49466 0.0
H260 H 0.47691 0.1796 0.67844 0.0
H261 H 0.48347 0.13832 0.72697 0.0
H262 H 0.5346 0.1281 0.52111 0.0
C263 C 0.51315 0.21649 0.40081 0.0
C264 C 0.49739 0.236 0.41553 0.0
C265 C 0.48302 0.23697 0.48799 0.0
C266 C 0.48393 0.21826 0.5453 0.0
C267 C 0.49939 0.19892 0.52879 0.0
C268 C 0.51388 0.19802 0.45836 0.0
C269 C 0.52753 0.1747 0.45271 0.0
C270 C 0.51866 0.16178 0.38514 0.0
C271 C 0.55724 0.17803 0.44571 0.0
C272 C 0.51792 0.16232 0.52998 0.0
C273 C 0.50194 0.17659 0.57352 0.0
C274 C 0.48971 0.1684 0.64527 0.0
C275 C 0.49364 0.14494 0.67256 0.0
C276 C 0.50953 0.1299 0.62793 0.0
C277 C 0.52216 0.13902 0.55646 0.0
H278 H 0.33818 0.47898 0.25926 0.0
H279 H 0.28746 0.53573 0.3254 0.0
H280 H 0.31127 0.53953 0.4416 0.0
H281 H 0.34587 0.45287 0.45484 0.0
H282 H 0.37961 0.44588 0.43228 0.0
H283 H 0.35737 0.44661 0.35792 0.0
H284 H 0.38717 0.47682 0.27285 0.0
H285 H 0.40954 0.47601 0.34662 0.0
H286 H 0.3962 0.50365 0.31203 0.0
H287 H 0.34231 0.53829 0.54658 0.0
H288 H 0.37969 0.53388 0.62667 0.0
H289 H 0.40948 0.47765 0.49139 0.0
C290 C 0.33209 0.49206 0.29873 0.0
C291 C 0.31116 0.50706 0.2845 0.0
C292 C 0.30355 0.5241 0.33629 0.0
C293 C 0.31684 0.52629 0.40232 0.0
C294 C 0.33754 0.51119 0.41522 0.0
C295 C 0.34515 0.49446 0.36468 0.0
C296 C 0.36886 0.48129 0.38919 0.0
C297 C 0.36254 0.45511 0.40979 0.0
C298 C 0.39179 0.48466 0.32646 0.0
C299 C 0.37379 0.49359 0.46029 0.0
C300 C 0.35536 0.51056 0.47516 0.0
C301 C 0.35671 0.52489 0.53597 0.0
C302 C 0.37788 0.52219 0.5814 0.0
C303 C 0.39741 0.50547 0.56501 0.0
C304 C 0.39485 0.49064 0.50499 0.0
H305 H 0.03713 0.30631 0.32605 0.0
H306 H 0.08318 0.26328 0.47794 0.0
H307 H 0.07798 0.29279 0.57518 0.0
H308 H 0.06264 0.36098 0.36397 0.0
H309 H 0.03235 0.37659 0.36081 0.0
H310 H 0.0379 0.35129 0.30642 0.0
H311 H 0.99578 0.33174 0.37468 0.0
H312 H 0.99002 0.35706 0.42906 0.0
H313 H 0.99159 0.32826 0.47882 0.0
H314 H 0.07056 0.32846 0.65061 0.0
H315 H 0.06113 0.36714 0.69975 0.0
H316 H 0.0183 0.3863 0.50042 0.0
C317 C 0.04569 0.30303 0.38047 0.0
C318 C 0.06037 0.28264 0.39554 0.0
C319 C 0.07171 0.27884 0.4663 0.0
C320 C 0.06885 0.29547 0.5216 0.0
C321 C 0.05448 0.31565 0.50496 0.0
C322 C 0.04293 0.31942 0.43631 0.0
C323 C 0.02944 0.34298 0.43121 0.0
C324 C 0.0413 0.35889 0.36148 0.0
C325 C 0.99995 0.33981 0.42829 0.0
C326 C 0.03565 0.3521 0.5069 0.0
C327 C 0.04999 0.33605 0.54877 0.0
C328 C 0.05899 0.34103 0.61886 0.0
C329 C 0.05337 0.36305 0.64659 0.0
C330 C 0.03883 0.3799 0.60441 0.0
C331 C 0.02964 0.37403 0.53405 0.0
H332 H 0.84821 0.01515 0.10655 0.0
H333 H 0.79424 0.99414 0.94731 0.0
H334 H 0.83092 0.99106 0.84651 0.0
H335 H 0.89107 0.05028 0.96553 0.0
H336 H 0.92029 0.04141 0.0093 0.0
H337 H 0.88982 0.04227 0.06804 0.0
H338 H 0.8954 0.9987 0.11697 0.0
H339 H 0.92583 0.99768 0.05819 0.0
H340 H 0.90032 0.97687 0.04794 0.0
H341 H 0.87347 0.98952 0.7647 0.0
H342 H 0.91852 0.99039 0.70516 0.0
H343 H 0.94563 0.01277 0.91707 0.0
C344 C 0.84421 0.01006 0.05014 0.0
C345 C 0.81853 0.00496 0.03394 0.0
C346 C 0.81384 0.99819 0.9602 0.0
C347 C 0.83454 0.99638 0.90288 0.0
C348 C 0.85976 1.0014 0.92054 0.0
C349 C 0.86469 0.00818 0.9923 0.0
C350 C 0.89362 0.01241 0.99641 0.0
C351 C 0.89901 0.03812 0.01065 0.0
C352 C 0.90442 0.9954 0.05857 0.0
C353 C 0.90424 0.00695 0.91578 0.0
C354 C 0.88433 1.00059 0.87319 0.0
C355 C 0.88917 0.99453 0.79748 0.0
C356 C 0.91495 0.99506 0.76419 0.0
C357 C 0.9358 1.00166 0.8062 0.0
C358 C 0.93023 0.00766 0.88324 0.0
H359 H 0.50581 0.78713 0.10262 0.0
H360 H 0.55947 0.75017 0.95072 0.0
H361 H 0.55879 0.78345 0.84996 0.0
H362 H 0.46767 0.81564 0.95033 0.0
H363 H 0.46398 0.84231 -0.00112 0.0
H364 H 0.46654 0.81451 0.0543 0.0
H365 H 0.5055 0.83069 0.11892 0.0
H366 H 0.50316 0.85844 0.06351 0.0
H367 H 0.53342 0.84264 0.05898 0.0
H368 H 0.55527 0.82262 0.77161 0.0
H369 H 0.54959 0.86401 0.72289 0.0
H370 H 0.49736 0.87467 0.92609 0.0
C371 C 0.5169 0.78592 0.04732 0.0
C372 C 0.53247 0.76623 0.03328 0.0
C373 C 0.54723 0.76517 0.96148 0.0
C374 C 0.54692 0.78394 0.9042 0.0
C375 C 0.53163 0.80344 0.92002 0.0
C376 C 0.51675 0.80445 0.98975 0.0
C377 C 0.50336 0.82791 0.99472 0.0
C378 C 0.47362 0.82491 -0.00016 0.0
C379 C 0.51188 0.84066 0.06306 0.0
C380 C 0.51361 0.84026 0.91799 0.0
C381 C 0.52966 0.82583 0.87522 0.0
C382 C 0.54243 0.83394 0.80414 0.0
C383 C 0.539 0.85746 0.77674 0.0
C384 C 0.52305 0.87266 0.82058 0.0
C385 C 0.50986 0.86363 0.89136 0.0
H386 H 0.70938 0.46402 0.20102 0.0
H387 H 0.76795 0.51362 0.09487 0.0
H388 H 0.74446 0.51805 0.97618 0.0
H389 H 0.69761 0.43596 0.0244 0.0
H390 H 0.66318 0.43269 0.05133 0.0
H391 H 0.68565 0.43228 0.12505 0.0
H392 H 0.66052 0.46624 0.18776 0.0
H393 H 0.63796 0.46665 0.11459 0.0
H394 H 0.65524 0.4931 0.1297 0.0
H395 H 0.71268 0.51897 0.87325 0.0
H396 H 0.67458 0.51741 0.79669 0.0
H397 H 0.63788 0.46605 0.9694 0.0
C398 C 0.71725 0.47562 0.15231 0.0
C399 C 0.74022 0.48857 0.15605 0.0
C400 C 0.75019 0.50368 0.09218 0.0
C401 C 0.7371 0.50618 0.02472 0.0
C402 C 0.71427 0.49325 0.02251 0.0
C403 C 0.70448 0.47823 0.08462 0.0
C404 C 0.67899 0.46723 0.0692 0.0
C405 C 0.68152 0.44045 0.06737 0.0
C406 C 0.65688 0.4737 0.12883 0.0
C407 C 0.67558 0.47887 0.98969 0.0
C408 C 0.69622 0.49362 0.96321 0.0
C409 C 0.69657 0.50723 0.89293 0.0
C410 C 0.67493 0.50614 0.84961 0.0
C411 C 0.65326 0.49165 0.87715 0.0
C412 C 0.65407 0.47742 0.94705 0.0
H413 H 0.96132 0.71851 0.95595 0.0
H414 H 0.02874 0.72457 0.0849 0.0
H415 H 0.04911 0.69094 0.02164 0.0
H416 H 0.95779 0.65765 0.97073 0.0
H417 H 0.94812 0.65472 0.87497 0.0
H418 H 0.94042 0.68103 0.92227 0.0
H419 H 0.96394 0.70616 0.8064 0.0
H420 H 0.97164 0.67988 0.75847 0.0
H421 H 0.99727 0.69985 0.77507 0.0
H422 H 0.05942 0.65403 0.9576 0.0
H423 H 0.05976 0.61682 0.89406 0.0
H424 H 0.98621 0.63499 0.80302 0.0
C425 C 0.98067 0.71305 0.96899 0.0
C426 C 0.99378 0.72407 0.02415 0.0
C427 C 0.01871 0.71636 0.04182 0.0
C428 C 0.03036 0.69734 0.0062 0.0
C429 C 0.0168 0.68645 0.9528 0.0
C430 C 0.9926 0.69414 0.93361 0.0
C431 C 0.98142 0.67836 0.87852 0.0
C432 C 0.95541 0.66729 0.91376 0.0
C433 C 0.97839 0.69187 0.79994 0.0
C434 C 1.00265 0.66011 0.87193 0.0
C435 C 0.02298 0.66524 0.91475 0.0
C436 C 0.04389 0.65007 0.92267 0.0
C437 C 0.04388 0.62898 0.88665 0.0
C438 C 0.02318 0.62329 0.84306 0.0
C439 C 1.00255 0.63925 0.83456 0.0
H440 H 0.05386 0.17487 0.4887 0.0
H441 H 0.99221 0.1807 0.33571 0.0
H442 H 0.96952 0.1468 0.40889 0.0
H443 H 0.06083 0.11878 0.49114 0.0
H444 H 0.06686 0.11181 0.59074 0.0
H445 H 0.07387 0.14077 0.54622 0.0
H446 H 0.04388 0.15915 0.65187 0.0
H447 H 0.0373 0.1302 0.69877 0.0
H448 H 0.01077 0.14886 0.67268 0.0
H449 H 0.96153 0.10637 0.46878 0.0
H450 H 0.96492 0.06557 0.52655 0.0
H451 H 0.03052 0.08627 0.64587 0.0
C452 C 0.03464 0.16999 0.47469 0.0
C453 C 0.02428 0.18062 0.40843 0.0
C454 C 0.99988 0.17312 0.38802 0.0
C455 C 0.98701 0.15377 0.42893 0.0
C456 C 0.99868 0.14239 0.49065 0.0
C457 C 0.02157 0.15068 0.51528 0.0
C458 C 0.03217 0.13334 0.57496 0.0
C459 C 0.06005 0.12574 0.54913 0.0
C460 C 0.03094 0.14349 0.65428 0.0
C461 C 0.01291 0.11333 0.5753 0.0
C462 C 0.99354 0.11895 0.5271 0.0
C463 C 0.97595 0.10205 0.50909 0.0
C464 C 0.97816 0.07889 0.54138 0.0
C465 C 0.99772 0.07295 0.59136 0.0
C466 C 0.01492 0.09052 0.60948 0.0
H467 H 0.35759 0.04581 0.40721 0.0
H468 H 0.32144 0.9772 0.45462 0.0
H469 H 0.35609 0.96501 0.53893 0.0
H470 H 0.41916 0.02723 0.3831 0.0
H471 H 0.43462 0.05029 0.42783 0.0
H472 H 0.40431 0.05575 0.38618 0.0
H473 H 0.38279 0.06842 0.51619 0.0
H474 H 0.41335 0.06389 0.55785 0.0
H475 H 0.38432 0.04924 0.60303 0.0
H476 H 0.39907 0.95807 0.59504 0.0
H477 H 0.44334 0.95882 0.6385 0.0
H478 H 0.45126 0.03238 0.55539 0.0
C479 C 0.35623 0.02871 0.43909 0.0
C480 C 0.33663 0.01257 0.42631 0.0
C481 C 0.3359 0.98996 0.46582 0.0
C482 C 0.35569 0.98284 0.51291 0.0
C483 C 0.37576 0.9987 0.52026 0.0
C484 C 0.37577 0.02141 0.48621 0.0
C485 C 0.40066 0.03437 0.49714 0.0
C486 C 0.41555 0.04237 0.41891 0.0
C487 C 0.39493 0.05521 0.54652 0.0
C488 C 0.41508 0.01518 0.54027 0.0
C489 C 0.40044 0.99473 0.55301 0.0
C490 C 0.41046 0.97414 0.58688 0.0
C491 C 0.43577 0.97466 0.61047 0.0
C492 C 0.45076 0.99567 0.60038 0.0
C493 C 0.44023 0.0161 0.56431 0.0
H494 H 0.47282 0.36669 0.40101 0.0
H495 H 0.54362 0.32659 0.41749 0.0
H496 H 0.56102 0.35662 0.49519 0.0
H497 H 0.50209 0.42071 0.36766 0.0
H498 H 0.47762 0.43658 0.42232 0.0
H499 H 0.46891 0.41022 0.38036 0.0
H500 H 0.45034 0.39159 0.5146 0.0
H501 H 0.45823 0.41822 0.55665 0.0
H502 H 0.47037 0.39046 0.59458 0.0
H503 H 0.5725 0.394 0.55658 0.0
H504 H 0.57487 0.43281 0.60998 0.0
H505 H 0.49673 0.4481 0.5469 0.0
C506 C 0.49159 0.36385 0.42349 0.0
C507 C 0.50684 0.34434 0.40429 0.0
C508 C 0.53152 0.34126 0.4331 0.0
C509 C 0.54161 0.35834 0.47643 0.0
C510 C 0.52662 0.37814 0.49051 0.0
C511 C 0.5019 0.38068 0.46609 0.0
C512 C 0.49031 0.40415 0.48359 0.0
C513 C 0.4844 0.41876 0.40904 0.0
C514 C 0.46588 0.4009 0.54078 0.0
C515 C 0.51253 0.4147 0.52037 0.0
C516 C 0.53331 0.39953 0.52419 0.0
C517 C 0.55622 0.40591 0.55455 0.0
C518 C 0.5575 0.42807 0.58393 0.0
C519 C 0.53602 0.4435 0.58244 0.0
C520 C 0.51351 0.43674 0.54897 0.0
H521 H 0.17056 0.53595 0.25504 0.0
H522 H 0.22141 0.49074 0.38544 0.0
H523 H 0.19142 0.49321 0.50268 0.0
H524 H 0.14545 0.57196 0.42038 0.0
H525 H 0.11332 0.57297 0.38712 0.0
H526 H 0.14154 0.5723 0.31846 0.0
H527 H 0.12265 0.53566 0.26387 0.0
H528 H 0.09463 0.53597 0.33272 0.0
H529 H 0.11431 0.50995 0.32828 0.0
H530 H 0.15253 0.49264 0.59402 0.0
H531 H 0.10827 0.49197 0.65944 0.0
H532 H 0.08202 0.53887 0.47456 0.0
C533 C 0.1757 0.52714 0.30892 0.0
C534 C 0.19826 0.51315 0.31145 0.0
C535 C 0.20441 0.5018 0.38261 0.0
C536 C 0.18746 0.50308 0.44939 0.0
C537 C 0.16472 0.51606 0.44405 0.0
C538 C 0.15899 0.52827 0.37602 0.0
C539 C 0.13188 0.53859 0.38346 0.0
C540 C 0.13313 0.56556 0.37699 0.0
C541 C 0.11488 0.52948 0.32356 0.0
C542 C 0.12264 0.52902 0.46479 0.0
C543 C 0.14211 0.51634 0.49882 0.0
C544 C 0.13745 0.50319 0.56933 0.0
C545 C 0.11226 0.50283 0.6058 0.0
C546 C 0.09216 0.51581 0.57248 0.0
C547 C 0.09741 0.52943 0.50187 0.0
H548 H 0.02202 0.85509 0.06881 0.0
H549 H 0.99545 0.81295 0.89458 0.0
H550 H 0.01193 0.84317 0.7929 0.0
H551 H 0.99639 0.90389 0.00128 0.0
H552 H 0.021 0.92431 0.0221 0.0
H553 H 0.01703 0.89659 0.07797 0.0
H554 H 0.06537 0.88655 0.04342 0.0
H555 H 0.06977 0.91461 0.98839 0.0
H556 H 0.0782 0.88795 0.9435 0.0
H557 H 0.02007 0.881 0.71602 0.0
H558 H 0.01953 0.92266 0.6692 0.0
H559 H 0.03716 0.9423 0.8947 0.0
C560 C 0.02067 0.85182 0.00889 0.0
C561 C 0.0074 0.83174 0.98943 0.0
C562 C 0.00586 0.82801 0.91072 0.0
C563 C 0.01511 0.84519 0.85261 0.0
C564 C 0.02593 0.86583 0.87437 0.0
C565 C 0.02907 0.86909 0.95079 0.0
C566 C 0.03625 0.89434 0.96106 0.0
C567 C 0.01648 0.90541 0.01895 0.0
C568 C 0.06406 0.89595 0.98552 0.0
C569 C 0.03469 0.90523 0.87956 0.0
C570 C 0.02966 0.88831 0.83001 0.0
C571 C 0.02463 0.89429 0.7538 0.0
C572 C 0.02415 0.9181 0.72799 0.0
C573 C 0.02825 0.93579 0.77852 0.0
C574 C 0.03433 0.92918 0.85458 0.0
H575 H 0.67483 0.04048 0.05276 0.0
H576 H 0.71508 0.97913 0.9738 0.0
H577 H 0.68164 0.97422 0.88273 0.0
H578 H 0.61456 0.01816 0.06373 0.0
H579 H 0.59777 0.04422 0.03065 0.0
H580 H 0.62764 0.04682 0.07532 0.0
H581 H 0.64832 0.07194 0.95524 0.0
H582 H 0.61819 0.07011 0.91072 0.0
H583 H 0.64818 0.06109 0.86089 0.0
H584 H 0.63973 0.97081 0.82451 0.0
H585 H 0.59506 0.97226 0.78583 0.0
H586 H 0.5814 0.03661 0.8995 0.0
C587 C 0.67721 0.02672 0.01341 0.0
C588 C 0.6976 0.0103 0.0193 0.0
C589 C 0.6999 0.99212 0.96879 0.0
C590 C 0.68086 0.98912 0.9175 0.0
C591 C 0.66 0.0047 0.91689 0.0
C592 C 0.6584 0.02355 0.96199 0.0
C593 C 0.63269 0.03627 0.95648 0.0
C594 C 0.61727 0.03635 0.03628 0.0
C595 C 0.63712 0.06134 0.91855 0.0
C596 C 0.61951 0.02095 0.90419 0.0
C597 C 0.6357 0.00292 0.88191 0.0
C598 C 0.62714 0.98517 0.83995 0.0
C599 C 0.60157 0.98601 0.81919 0.0
C600 C 0.58472 0.00455 0.83987 0.0
C601 C 0.59393 0.02238 0.88237 0.0
H602 H 0.48846 0.63789 0.09627 0.0
H603 H 0.55175 0.67597 0.96073 0.0
H604 H 0.55191 0.64704 0.86284 0.0
H605 H 0.51113 0.5839 0.07663 0.0
H606 H 0.4809 0.56897 0.06736 0.0
H607 H 0.48083 0.59525 0.11763 0.0
H608 H 0.44869 0.615 0.02683 0.0
H609 H 0.44799 0.58849 0.97726 0.0
H610 H 0.4563 0.61616 0.92358 0.0
H611 H 0.55343 0.60983 0.80183 0.0
H612 H 0.55065 0.56948 0.7638 0.0
H613 H 0.48371 0.55556 0.92997 0.0
C614 C 0.5015 0.64064 0.04409 0.0
C615 C 0.52001 0.65915 0.0354 0.0
C616 C 0.53717 0.66212 0.96755 0.0
C617 C 0.53748 0.64569 0.912 0.0
C618 C 0.52011 0.62678 0.92465 0.0
C619 C 0.50184 0.6245 0.9877 0.0
C620 C 0.48714 0.60133 0.9913 0.0
C621 C 0.4902 0.5865 0.06775 0.0
C622 C 0.45832 0.6055 0.97898 0.0
C623 C 0.50114 0.5903 0.92323 0.0
C624 C 0.52006 0.60539 0.88581 0.0
C625 C 0.53805 0.59821 0.82851 0.0
C626 C 0.53647 0.57518 0.80798 0.0
C627 C 0.51666 0.55968 0.84308 0.0
C628 C 0.49858 0.56735 0.90102 0.0
H629 H 0.8786 0.44694 0.16567 0.0
H630 H 0.82733 0.49878 0.06523 0.0
H631 H 0.85813 0.50444 0.94905 0.0
H632 H 0.93386 0.47686 0.11743 0.0
H633 H 0.95482 0.45269 0.0944 0.0
H634 H 0.92628 0.44765 0.1606 0.0
H635 H 0.90943 0.41649 0.07652 0.0
H636 H 0.93832 0.42092 0.01072 0.0
H637 H 0.90662 0.42397 0.97508 0.0
H638 H 0.89794 0.5118 0.86215 0.0
H639 H 0.94239 0.51614 0.79784 0.0
H640 H 0.96848 0.45885 0.9501 0.0
C641 C 0.87344 0.45876 0.11774 0.0
C642 C 0.85058 0.47237 0.12417 0.0
C643 C 0.84449 0.48789 0.06097 0.0
C644 C 0.86197 0.49132 0.99491 0.0
C645 C 0.88518 0.47882 0.99265 0.0
C646 C 0.8907 0.46237 0.05142 0.0
C647 C 0.91826 0.45331 0.03875 0.0
C648 C 0.93423 0.45792 0.10683 0.0
C649 C 0.91814 0.42712 0.02438 0.0
C650 C 0.92786 0.46828 0.96622 0.0
C651 C 0.90835 0.48274 0.94046 0.0
C652 C 0.91316 0.50012 0.88023 0.0
C653 C 0.93848 0.50266 0.84487 0.0
C654 C 0.95859 0.4878 0.86941 0.0
C655 C 0.95321 0.47016 0.92998 0.0
H656 H 0.05401 0.185 0.08849 0.0
H657 H 0.10835 0.15685 0.24679 0.0
H658 H 0.11585 0.12258 0.16968 0.0
H659 H 0.02313 0.13479 0.07334 0.0
H660 H 0.01757 0.13872 0.9724 0.0
H661 H 0.02164 0.16391 0.02569 0.0
H662 H 0.05977 0.17909 0.92776 0.0
H663 H 0.05544 0.15418 0.87263 0.0
H664 H 0.08679 0.16004 0.90552 0.0
H665 H 0.11 0.08791 0.09344 0.0
H666 H 0.09363 0.05692 0.0187 0.0
H667 H 0.04371 0.1079 0.90735 0.0
C668 C 0.06866 0.17229 0.10377 0.0
C669 C 0.08129 0.17378 0.17173 0.0
C670 C 0.0992 0.15624 0.19331 0.0
C671 C 0.10343 0.13669 0.15011 0.0
C672 C 0.08964 0.13504 0.08537 0.0
C673 C 0.07298 0.15262 0.06128 0.0
C674 C 0.0579 0.14521 0.99631 0.0
C675 C 0.02833 0.14568 0.01832 0.0
C676 C 0.06544 0.16054 0.92108 0.0
C677 C 0.06756 0.12033 0.99067 0.0
C678 C 0.08614 0.11487 0.04157 0.0
C679 C 0.096 0.09219 0.05178 0.0
C680 C 0.08657 0.07466 0.00904 0.0
C681 C 0.06731 0.07986 0.9571 0.0
C682 C 0.05822 0.10318 0.94705 0.0
H683 H 0.36974 0.04543 0.15899 0.0
H684 H 0.32308 0.98582 0.11345 0.0
H685 H 0.35697 0.97534 0.01256 0.0
H686 H 0.39636 0.05988 0.95373 0.0
H687 H 0.42751 0.06843 0.98243 0.0
H688 H 0.39836 0.07237 0.04489 0.0
H689 H 0.41883 0.04817 0.15612 0.0
H690 H 0.44777 0.04366 0.09364 0.0
H691 H 0.42993 0.01877 0.142 0.0
H692 H 0.39852 0.96815 0.93177 0.0
H693 H 0.44157 0.96853 0.8579 0.0
H694 H 0.46044 0.03445 0.94857 0.0
C695 C 0.36635 0.03065 0.12579 0.0
C696 C 0.34373 0.01653 0.14309 0.0
C697 C 0.34005 0.99706 0.09984 0.0
C698 C 0.35931 0.99087 0.04311 0.0
C699 C 0.38187 0.00461 0.02959 0.0
C700 C 0.38517 0.02448 0.06809 0.0
C701 C 0.41149 0.03593 0.04374 0.0
C702 C 0.40823 0.06062 0.0038 0.0
C703 C 0.42797 0.03667 0.11301 0.0
C704 C 0.42277 0.01905 0.98698 0.0
C705 C 0.40545 1.00098 0.98041 0.0
C706 C 0.41204 0.98244 0.93537 0.0
C707 C 0.43667 0.98268 0.89431 0.0
C708 C 0.45436 1.00151 0.89752 0.0
C709 C 0.44727 0.01989 0.94476 0.0
H710 H 0.4626 0.37171 0.17839 0.0
H711 H 0.51414 0.32204 0.06782 0.0
H712 H 0.52051 0.34971 0.95144 0.0
H713 H 0.43479 0.39793 0.99608 0.0
H714 H 0.43424 0.42684 0.03084 0.0
H715 H 0.42934 0.40126 0.09827 0.0
H716 H 0.4672 0.41501 0.17251 0.0
H717 H 0.47261 0.44032 0.10473 0.0
H718 H 0.49887 0.42028 0.12159 0.0
H719 H 0.52869 0.38512 0.86109 0.0
H720 H 0.53403 0.4247 0.79366 0.0
H721 H 0.47628 0.45185 0.95903 0.0
C722 C 0.47449 0.36636 0.12852 0.0
C723 C 0.4878 0.34469 0.13181 0.0
C724 C 0.50342 0.33834 0.06599 0.0
C725 C 0.50727 0.35403 -0.00015 0.0
C726 C 0.49503 0.3758 0.00018 0.0
C727 C 0.47847 0.38181 0.06206 0.0
C728 C 0.46973 0.40713 0.05075 0.0
C729 C 0.44027 0.40835 0.04353 0.0
C730 C 0.47758 0.42152 0.11627 0.0
C731 C 0.48499 0.41478 0.9746 0.0
C732 C 0.49933 0.39633 0.94639 0.0
C733 C 0.51705 0.39951 0.88141 0.0
C734 C 0.52014 0.42206 0.84406 0.0
C735 C 0.50545 0.4411 0.8713 0.0
C736 C 0.48736 0.4374 0.93666 0.0
H737 H 0.17358 0.46666 0.10285 0.0
H738 H 0.22001 0.52015 0.96299 0.0
H739 H 0.18808 0.52137 0.86518 0.0
H740 H 0.14769 0.43745 0.93403 0.0
H741 H 0.11648 0.43225 0.98784 0.0
H742 H 0.1457 0.43176 0.03769 0.0
H743 H 0.12584 0.46303 0.12475 0.0
H744 H 0.0969 0.46417 0.07417 0.0
H745 H 0.11532 0.49065 0.08071 0.0
H746 H 0.14731 0.5241 0.80238 0.0
H747 H 0.10272 0.52333 0.76306 0.0
H748 H 0.08266 0.46592 0.93641 0.0
C749 C 0.17748 0.47786 0.04992 0.0
C750 C 0.19922 0.49323 0.03976 0.0
C751 C 0.20367 0.508 0.97089 0.0
C752 C 0.18557 0.50888 0.91539 0.0
C753 C 0.16352 0.49452 0.92926 0.0
C754 C 0.15971 0.47876 0.99366 0.0
C755 C 0.13318 0.46696 -0.00172 0.0
C756 C 0.13593 0.44054 0.98887 0.0
C757 C 0.11686 0.47149 0.07395 0.0
C758 C 0.12207 0.47958 0.9289 0.0
C759 C 0.14001 0.49536 0.89006 0.0
C760 C 0.13342 0.51127 0.83048 0.0
C761 C 0.10798 0.51087 0.80925 0.0
C762 C 0.08953 0.49438 0.8463 0.0
C763 C 0.09667 0.47834 0.90637 0.0
H764 H 0.97135 0.82249 0.3084 0.0
H765 H 0.91953 0.84929 0.14073 0.0
H766 H 0.90958 0.88345 0.21645 0.0
H767 H 0.93532 0.8484 0.48738 0.0
H768 H 0.96614 0.8547 0.52301 0.0
H769 H 0.96257 0.8292 0.47001 0.0
H770 H 1.00179 0.8436 0.37504 0.0
H771 H 0.00507 0.86941 0.42577 0.0
H772 H 1.00077 0.87226 0.32387 0.0
H773 H 0.91431 0.9188 0.28964 0.0
H774 H 0.93061 0.95085 0.36029 0.0
H775 H 0.97894 0.90095 0.48241 0.0
C776 C 0.95656 0.83476 0.29095 0.0
C777 C 0.94553 0.83305 0.22047 0.0
C778 C 0.92744 0.85006 0.19609 0.0
C779 C 0.92184 0.86957 0.23851 0.0
C780 C 0.93441 0.87167 0.30534 0.0
C781 C 0.95097 0.85441 0.33251 0.0
C782 C 0.96519 0.86249 0.39823 0.0
C783 C 0.95679 0.84783 0.47417 0.0
C784 C 0.99494 0.86191 0.37952 0.0
C785 C 0.95541 0.88742 0.40026 0.0
C786 C 0.93731 0.8923 0.34739 0.0
C787 C 0.92785 0.91498 0.33297 0.0
C788 C 0.93725 0.93311 0.37326 0.0
C789 C 0.95613 0.92848 0.42672 0.0
C790 C 0.96469 0.90517 0.44144 0.0
H791 H 0.668 0.9746 0.27496 0.0
H792 H 0.71053 0.03312 0.34847 0.0
H793 H 0.67662 0.03684 0.45639 0.0
H794 H 0.60638 0.99718 0.30614 0.0
H795 H 0.5902 0.97001 0.3421 0.0
H796 H 0.6193 0.96959 0.27724 0.0
H797 H 0.64139 0.94179 0.37631 0.0
H798 H 0.61214 0.94171 0.44108 0.0
H799 H 0.64282 0.94997 0.47371 0.0
H800 H 0.63532 0.03824 0.54142 0.0
H801 H 0.592 0.0339 0.61227 0.0
H802 H 0.57639 0.97288 0.48969 0.0
C803 C 0.67051 0.98772 0.31533 0.0
C804 C 0.69193 0.00352 0.30395 0.0
C805 C 0.6945 0.02066 0.35706 0.0
C806 C 0.67523 0.02298 0.41803 0.0
C807 C 0.65381 0.00777 0.42566 0.0
C808 C 0.65161 0.99009 0.37697 0.0
C809 C 0.62604 0.97676 0.39578 0.0
C810 C 0.60951 0.9785 0.32617 0.0
C811 C 0.63089 0.95103 0.42338 0.0
C812 C 0.61378 0.9902 0.46113 0.0
C813 C 0.63016 0.00807 0.47695 0.0
C814 C 0.62256 0.02405 0.53057 0.0
C815 C 0.59776 0.02157 0.56988 0.0
C816 C 0.5808 0.00307 0.55632 0.0
C817 C 0.58902 0.98706 0.50154 0.0
H818 H 0.56473 0.62902 0.24824 0.0
H819 H 0.51935 0.67757 0.38375 0.0
H820 H 0.52106 0.65008 0.49996 0.0
H821 H 0.53331 0.57896 0.32704 0.0
H822 H 0.5614 0.5602 0.32725 0.0
H823 H 0.56106 0.5853 0.25814 0.0
H824 H 0.60355 0.601 0.3052 0.0
H825 H 0.60419 0.57578 0.37424 0.0
H826 H 0.60508 0.60498 0.40635 0.0
H827 H 0.51981 0.615 0.59208 0.0
H828 H 0.51889 0.57546 0.65949 0.0
H829 H 0.56719 0.54933 0.46931 0.0
C830 C 0.55568 0.63408 0.30287 0.0
C831 C 0.5419 0.65543 0.30721 0.0
C832 C 0.53028 0.66147 0.37944 0.0
C833 C 0.53111 0.64593 0.44561 0.0
C834 C 0.54397 0.62462 0.43866 0.0
C835 C 0.55643 0.6188 0.36947 0.0
C836 C 0.56681 0.59391 0.37609 0.0
C837 C 0.55493 0.57871 0.31875 0.0
C838 C 0.59669 0.59393 0.36481 0.0
C839 C 0.55714 0.58623 0.45892 0.0
C840 C 0.54418 0.60437 0.49386 0.0
C841 C 0.53071 0.60095 0.56657 0.0
C842 C 0.53034 0.57846 0.60446 0.0
C843 C 0.54378 0.55974 0.57064 0.0
C844 C 0.55764 0.56366 0.49734 0.0
H845 H 0.87734 0.45766 0.39102 0.0
H846 H 0.83544 0.52292 0.41163 0.0
H847 H 0.86938 0.53733 0.48883 0.0
H848 H 0.90315 0.4541 0.58403 0.0
H849 H 0.93357 0.44222 0.54611 0.0
H850 H 0.904 0.43624 0.50304 0.0
H851 H 0.92572 0.45273 0.36975 0.0
H852 H 0.95505 0.4594 0.4127 0.0
H853 H 0.93862 0.48226 0.35882 0.0
H854 H 0.91082 0.54618 0.54979 0.0
H855 H 0.95343 0.5468 0.60457 0.0
H856 H 0.96801 0.47582 0.53982 0.0
C857 C 0.87494 0.47468 0.41393 0.0
C858 C 0.85379 0.48915 0.39615 0.0
C859 C 0.85132 0.51145 0.42599 0.0
C860 C 0.87063 0.51984 0.46908 0.0
C861 C 0.89202 0.50558 0.48198 0.0
C862 C 0.89397 0.48328 0.45655 0.0
C863 C 0.91945 0.47188 0.47404 0.0
C864 C 0.91475 0.44981 0.53017 0.0
C865 C 0.93565 0.46625 0.39938 0.0
C866 C 0.9318 0.4914 0.51211 0.0
C867 C 0.91576 0.51071 0.51623 0.0
C868 C 0.92341 0.53106 0.54759 0.0
C869 C 0.94776 0.53133 0.5778 0.0
C870 C 0.96406 0.51137 0.57634 0.0
C871 C 0.95603 0.49137 0.54181 0.0
loop_
_geom_bond_atom_site_label_1
_geom_bond_atom_site_label_2
_geom_bond_distance
_geom_bond_site_symmetry_2
_ccdc_geom_bond_type
H0 C3 0.929 . S
H1 C6 0.929 . S
H2 C8 0.930 . S
C3 H0 0.929 . S
C3 C4 1.398 . S
C3 C5 1.396 . S
C4 C3 1.398 . S
C4 C8 1.407 . S
C5 C3 1.396 . S
C5 C6 1.394 . S
C6 H1 0.929 . S
C6 C5 1.394 . S
C6 C7 1.382 . S
C7 C6 1.382 . S
C7 C8 1.392 . S
C7 N9 1.420 . S
C8 H2 0.930 . S
C8 C4 1.407 . S
C8 C7 1.392 . S
N9 C7 1.420 . S
N9 C10 1.244 . S
C10 N9 1.244 . S
H11 C14 0.929 . S
H12 C17 0.929 . S
H13 C19 0.930 . S
C14 H11 0.929 . S
C14 C15 1.398 . S
C14 C16 1.396 1_554 S
C15 C14 1.398 . S
C15 C19 1.407 . S
C16 C14 1.396 1_556 S
C16 C17 1.394 . S
C17 H12 0.929 . S
C17 C16 1.394 . S
C17 C18 1.382 1_556 S
C18 C17 1.382 1_554 S
C18 C19 1.392 . S
C18 N20 1.420 . S
C19 H13 0.930 . S
C19 C15 1.407 . S
C19 C18 1.392 . S
N20 C18 1.420 . S
N20 C21 1.244 1_554 S
C21 N20 1.244 1_556 S
H22 C25 0.929 . S
H23 C28 0.929 1_556 S
H24 C30 0.930 . S
C25 H22 0.929 . S
C25 C26 1.393 1_565 S
C25 C27 1.396 1_565 S
C26 C25 1.393 1_545 S
C26 C30 1.413 . S
C27 C25 1.396 1_545 S
C27 C28 1.396 . S
C28 H23 0.929 1_554 S
C28 C27 1.396 . S
C28 C29 1.382 . S
C29 C28 1.382 . S
C29 C30 1.392 . S
C29 N31 1.420 . S
C30 H24 0.930 . S
C30 C26 1.413 . S
C30 C29 1.392 . S
N31 C29 1.420 . S
N31 C32 1.230 1_545 S
C32 N31 1.230 1_565 S
H33 C36 0.929 . S
H34 C39 0.929 1_556 S
H35 C41 0.930 . S
C36 H33 0.929 . S
C36 C37 1.398 . S
C36 C38 1.396 . S
C37 C36 1.398 . S
C37 C41 1.407 . S
C38 C36 1.396 . S
C38 C39 1.394 . S
C39 H34 0.929 1_554 S
C39 C38 1.394 . S
C39 C40 1.382 . S
C40 C39 1.382 . S
C40 C41 1.392 . S
C40 N42 1.420 . S
C41 H35 0.930 . S
C41 C37 1.407 . S
C41 C40 1.392 . S
N42 C40 1.420 . S
N42 C43 1.244 . S
C43 N42 1.244 . S
H44 C47 0.929 . S
H45 C50 0.929 . S
H46 C52 0.930 . S
C47 H44 0.929 . S
C47 C48 1.398 . S
C47 C49 1.396 . S
C48 C47 1.398 . S
C48 C52 1.407 . S
C49 C47 1.396 . S
C49 C50 1.394 . S
C50 H45 0.929 . S
C50 C49 1.394 . S
C50 C51 1.382 . S
C51 C50 1.382 . S
C51 C52 1.392 . S
C51 N53 1.420 . S
C52 H46 0.930 . S
C52 C48 1.407 . S
C52 C51 1.392 . S
N53 C51 1.420 . S
N53 C54 1.244 . S
C54 N53 1.244 . S
H55 C58 0.929 . S
H56 C61 0.929 . S
H57 C63 0.930 . S
C58 H55 0.929 . S
C58 C59 1.398 . S
C58 C60 1.396 . S
C59 C58 1.398 . S
C59 C63 1.407 . S
C60 C58 1.396 . S
C60 C61 1.394 . S
C61 H56 0.929 . S
C61 C60 1.394 . S
C61 C62 1.382 . S
C62 C61 1.382 . S
C62 C63 1.392 . S
C62 N64 1.420 . S
C63 H57 0.930 . S
C63 C59 1.407 . S
C63 C62 1.392 . S
N64 C62 1.420 . S
N64 C65 1.244 . S
C65 N64 1.244 . S
H66 C69 0.929 . S
H67 C72 0.929 . S
H68 C74 0.930 . S
C69 H66 0.929 . S
C69 C70 1.397 1_565 S
C69 C71 1.392 1_565 S
C70 C69 1.397 1_545 S
C70 C74 1.416 . S
C71 C69 1.392 1_545 S
C71 C72 1.399 . S
C72 H67 0.929 . S
C72 C71 1.399 . S
C72 C73 1.382 . S
C73 C72 1.382 . S
C73 C74 1.392 . S
C73 N75 1.420 . S
C74 H68 0.930 . S
C74 C70 1.416 . S
C74 C73 1.392 . S
N75 C73 1.420 . S
N75 C76 1.238 1_545 S
C76 N75 1.238 1_565 S
H77 C80 0.929 . S
H78 C83 0.929 . S
H79 C85 0.930 . S
C80 H77 0.929 . S
C80 C81 1.398 . S
C80 C82 1.396 . S
C81 C80 1.398 . S
C81 C85 1.407 . S
C82 C80 1.396 . S
C82 C83 1.394 . S
C83 H78 0.929 . S
C83 C82 1.394 . S
C83 C84 1.382 . S
C84 C83 1.382 . S
C84 C85 1.392 . S
C84 N86 1.420 . S
C85 H79 0.930 . S
C85 C81 1.407 . S
C85 C84 1.392 . S
N86 C84 1.420 . S
N86 C87 1.244 . S
C87 N86 1.244 . S
C88 O104 1.251 . S
C88 O106 1.254 . S
N89 C90 1.344 . S
N89 C94 1.281 1_455 S
N89 Zn95 2.031 . S
C90 N89 1.344 . S
C90 C91 1.379 . S
C90 H108 0.952 . S
C91 C90 1.379 . S
C91 C92 1.390 1_455 S
C91 H118 0.949 . S
C92 C91 1.390 1_655 S
C92 C93 1.357 . S
C93 C92 1.357 . S
C93 C94 1.370 . S
C93 H119 0.950 . S
C94 N89 1.281 1_655 S
C94 C93 1.370 . S
C94 H112 0.948 . S
Zn95 N89 2.031 . S
Zn95 O104 2.039 . S
Zn95 O110 2.034 . S
Zn95 O114 2.025 1_565 S
Zn95 O116 2.024 1_455 S
C96 O115 1.246 . S
C96 O116 1.249 1_545 S
N97 C98 1.307 . S
N97 C99 1.333 . S
N97 Zn103 2.020 . S
C98 N97 1.307 . S
C98 C102 1.370 1_556 S
C98 H109 0.948 . S
C99 N97 1.333 . S
C99 C100 1.379 . S
C99 H107 0.952 . S
C100 C99 1.379 . S
C100 C101 1.390 1_556 S
C100 H120 0.949 . S
C101 C100 1.390 1_554 S
C101 C102 1.357 . S
C102 C98 1.370 1_554 S
C102 C101 1.357 . S
C102 H121 0.950 . S
Zn103 N97 2.020 . S
Zn103 O106 2.025 1_545 S
Zn103 O111 2.024 . S
Zn103 O113 2.039 . S
Zn103 O115 2.034 1_455 S
O104 C88 1.251 . S
O104 Zn95 2.039 . S
C105 O110 1.246 . S
C105 O111 1.249 1_565 S
O106 C88 1.254 . S
O106 Zn103 2.025 1_565 S
H107 C99 0.952 . S
H108 C90 0.952 . S
H109 C98 0.948 . S
O110 Zn95 2.034 . S
O110 C105 1.246 . S
O111 Zn103 2.024 . S
O111 C105 1.249 1_545 S
H112 C94 0.948 . S
O113 Zn103 2.039 . S
O113 C117 1.251 . S
O114 Zn95 2.025 1_545 S
O114 C117 1.254 . S
O115 C96 1.246 . S
O115 Zn103 2.034 1_655 S
O116 Zn95 2.024 1_655 S
O116 C96 1.249 1_565 S
C117 O113 1.251 . S
C117 O114 1.254 . S
H118 C91 0.949 . S
H119 C93 0.950 . S
H120 C100 0.949 . S
H121 C102 0.950 . S
C122 O138 1.251 1_565 S
C122 O140 1.254 . S
N123 C124 1.333 . S
N123 C128 1.307 . S
N123 Zn129 2.020 . S
C124 N123 1.333 . S
C124 C125 1.379 . S
C124 H142 0.952 . S
C125 C124 1.379 . S
C125 C126 1.390 . S
C125 H152 0.949 . S
C126 C125 1.390 . S
C126 C127 1.357 . S
C127 C126 1.357 . S
C127 C128 1.370 . S
C127 H153 0.950 . S
C128 N123 1.307 . S
C128 C127 1.370 . S
C128 H146 0.948 . S
Zn129 N123 2.020 . S
Zn129 O138 2.039 . S
Zn129 O144 2.034 . S
Zn129 O148 2.025 . S
Zn129 O150 2.024 . S
C130 O149 1.246 1_545 S
C130 O150 1.249 . S
N131 C132 1.307 . S
N131 C133 1.333 . S
N131 Zn137 2.020 . S
C132 N131 1.307 . S
C132 C136 1.370 . S
C132 H143 0.948 . S
C133 N131 1.333 . S
C133 C134 1.379 . S
C133 H141 0.952 . S
C134 C133 1.379 . S
C134 C135 1.390 . S
C134 H154 0.949 . S
C135 C134 1.390 . S
C135 C136 1.357 . S
C136 C132 1.370 . S
C136 C135 1.357 . S
C136 H155 0.950 . S
Zn137 N131 2.020 . S
Zn137 O140 2.025 . S
Zn137 O145 2.024 . S
Zn137 O147 2.039 . S
Zn137 O149 2.034 . S
O138 C122 1.251 1_545 S
O138 Zn129 2.039 . S
C139 O144 1.246 1_565 S
C139 O145 1.249 . S
O140 C122 1.254 . S
O140 Zn137 2.025 . S
H141 C133 0.952 . S
H142 C124 0.952 . S
H143 C132 0.948 . S
O144 Zn129 2.034 . S
O144 C139 1.246 1_545 S
O145 Zn137 2.024 . S
O145 C139 1.249 . S
H146 C128 0.948 . S
O147 Zn137 2.039 . S
O147 C151 1.251 1_565 S
O148 Zn129 2.025 . S
O148 C151 1.254 . S
O149 C130 1.246 1_565 S
O149 Zn137 2.034 . S
O150 Zn129 2.024 . S
O150 C130 1.249 . S
C151 O147 1.251 1_545 S
C151 O148 1.254 . S
H152 C125 0.949 . S
H153 C127 0.950 . S
H154 C134 0.949 . S
H155 C136 0.950 . S
C156 O172 1.251 . S
C156 O174 1.254 . S
N157 C158 1.333 . S
N157 C162 1.307 . S
N157 Zn163 2.020 . S
C158 N157 1.333 . S
C158 C159 1.379 . S
C158 H176 0.952 . S
C159 C158 1.379 . S
C159 C160 1.390 . S
C159 H186 0.949 . S
C160 C159 1.390 . S
C160 C161 1.357 . S
C161 C160 1.357 . S
C161 C162 1.370 . S
C161 H187 0.950 . S
C162 N157 1.307 . S
C162 C161 1.370 . S
C162 H180 0.948 . S
Zn163 N157 2.020 . S
Zn163 O172 2.039 . S
Zn163 O178 2.034 . S
Zn163 O182 2.025 . S
Zn163 O184 2.024 . S
C164 O183 1.246 . S
C164 O184 1.249 . S
N165 C166 1.307 . S
N165 C167 1.333 . S
N165 Zn171 2.020 . S
C166 N165 1.307 . S
C166 C170 1.370 . S
C166 H177 0.948 . S
C167 N165 1.333 . S
C167 C168 1.379 . S
C167 H175 0.952 . S
C168 C167 1.379 . S
C168 C169 1.390 . S
C168 H188 0.949 . S
C169 C168 1.390 . S
C169 C170 1.357 . S
C170 C166 1.370 . S
C170 C169 1.357 . S
C170 H189 0.950 . S
Zn171 N165 2.020 . S
Zn171 O174 2.025 . S
Zn171 O179 2.024 . S
Zn171 O181 2.039 . S
Zn171 O183 2.034 . S
O172 C156 1.251 . S
O172 Zn163 2.039 . S
C173 O178 1.246 . S
C173 O179 1.249 . S
O174 C156 1.254 . S
O174 Zn171 2.025 . S
H175 C167 0.952 . S
H176 C158 0.952 . S
H177 C166 0.948 . S
O178 Zn163 2.034 . S
O178 C173 1.246 . S
O179 Zn171 2.024 . S
O179 C173 1.249 . S
H180 C162 0.948 . S
O181 Zn171 2.039 . S
O181 C185 1.251 . S
O182 Zn163 2.025 . S
O182 C185 1.254 . S
O183 C164 1.246 . S
O183 Zn171 2.034 . S
O184 Zn163 2.024 . S
O184 C164 1.249 . S
C185 O181 1.251 . S
C185 O182 1.254 . S
H186 C159 0.949 . S
H187 C161 0.950 . S
H188 C168 0.949 . S
H189 C170 0.950 . S
C190 O206 1.251 . S
C190 O208 1.254 . S
N191 C192 1.333 . S
N191 C196 1.307 . S
N191 Zn197 2.020 . S
C192 N191 1.333 . S
C192 C193 1.379 . S
C192 H210 0.952 . S
C193 C192 1.379 . S
C193 C194 1.390 . S
C193 H220 0.949 . S
C194 C193 1.390 . S
C194 C195 1.357 . S
C195 C194 1.357 . S
C195 C196 1.370 . S
C195 H221 0.950 . S
C196 N191 1.307 . S
C196 C195 1.370 . S
C196 H214 0.948 . S
Zn197 N191 2.020 . S
Zn197 O206 2.039 . S
Zn197 O212 2.034 1_455 S
Zn197 O216 2.025 1_455 S
Zn197 O218 2.024 . S
C198 O217 1.246 . S
C198 O218 1.249 . S
N199 C200 1.307 . S
N199 C201 1.333 1_455 S
N199 Zn205 2.020 . S
C200 N199 1.307 . S
C200 C204 1.370 . S
C200 H211 0.948 . S
C201 N199 1.333 1_655 S
C201 C202 1.379 . S
C201 H209 0.952 . S
C202 C201 1.379 . S
C202 C203 1.390 1_655 S
C202 H222 0.949 . S
C203 C202 1.390 1_455 S
C203 C204 1.357 . S
C204 C200 1.370 . S
C204 C203 1.357 . S
C204 H223 0.950 . S
Zn205 N199 2.020 . S
Zn205 O208 2.025 . S
Zn205 O213 2.024 1_455 S
Zn205 O215 2.039 1_455 S
Zn205 O217 2.034 . S
O206 C190 1.251 . S
O206 Zn197 2.039 . S
C207 O212 1.246 . S
C207 O213 1.249 . S
O208 C190 1.254 . S
O208 Zn205 2.025 . S
H209 C201 0.952 . S
H210 C192 0.952 . S
H211 C200 0.948 . S
O212 Zn197 2.034 1_655 S
O212 C207 1.246 . S
O213 Zn205 2.024 1_655 S
O213 C207 1.249 . S
H214 C196 0.948 . S
O215 Zn205 2.039 1_655 S
O215 C219 1.251 . S
O216 Zn197 2.025 1_655 S
O216 C219 1.254 . S
O217 C198 1.246 . S
O217 Zn205 2.034 . S
O218 Zn197 2.024 . S
O218 C198 1.249 . S
C219 O215 1.251 . S
C219 O216 1.254 . S
H220 C193 0.949 . S
H221 C195 0.950 . S
H222 C202 0.949 . S
H223 C204 0.950 . S
H224 C236 0.930 . S
H225 C238 0.930 . S
H226 C239 0.930 . S
H227 C243 0.959 . S
H228 C243 0.959 . S
H229 C243 0.961 . S
H230 C244 0.960 . S
H231 C244 0.961 . S
H232 C244 0.959 . S
H233 C247 0.929 . S
H234 C248 0.931 . S
H235 C250 0.930 . S
C236 H224 0.930 . S
C236 C237 1.399 1_545 S
C236 C241 1.399 . S
C237 C236 1.399 1_565 S
C237 C238 1.376 . S
C238 H225 0.930 . S
C238 C237 1.376 . S
C238 C239 1.388 . S
C239 H226 0.930 . S
C239 C238 1.388 . S
C239 C240 1.390 . S
C240 C239 1.390 . S
C240 C241 1.394 1_565 S
C240 C246 1.465 . S
C241 C236 1.399 . S
C241 C240 1.394 1_545 S
C241 C242 1.516 . S
C242 C241 1.516 . S
C242 C243 1.502 . S
C242 C244 1.561 . S
C242 C245 1.526 . S
C243 H227 0.959 . S
C243 H228 0.959 . S
C243 H229 0.961 . S
C243 C242 1.502 . S
C244 H230 0.960 . S
C244 H231 0.961 . S
C244 H232 0.959 . S
C244 C242 1.561 . S
C245 C242 1.526 . S
C245 C246 1.396 1_545 S
C245 C250 1.390 . S
C246 C240 1.465 . S
C246 C245 1.396 1_565 S
C246 C247 1.399 . S
C247 H233 0.929 . S
C247 C246 1.399 . S
C247 C248 1.385 . S
C248 H234 0.931 . S
C248 C247 1.385 . S
C248 C249 1.389 . S
C249 C248 1.389 . S
C249 C250 1.387 1_565 S
C250 H235 0.930 . S
C250 C245 1.390 . S
C250 C249 1.387 1_545 S
H251 C263 0.930 . S
H252 C265 0.930 . S
H253 C266 0.930 . S
H254 C270 0.959 . S
H255 C270 0.959 . S
H256 C270 0.961 . S
H257 C271 0.960 . S
H258 C271 0.961 . S
H259 C271 0.959 . S
H260 C274 0.929 . S
H261 C275 0.931 . S
H262 C277 0.930 . S
C263 H251 0.930 . S
C263 C264 1.399 . S
C263 C268 1.399 . S
C264 C263 1.399 . S
C264 C265 1.376 . S
C265 H252 0.930 . S
C265 C264 1.376 . S
C265 C266 1.388 . S
C266 H253 0.930 . S
C266 C265 1.388 . S
C266 C267 1.390 . S
C267 C266 1.390 . S
C267 C268 1.394 . S
C267 C273 1.465 . S
C268 C263 1.399 . S
C268 C267 1.394 . S
C268 C269 1.516 . S
C269 C268 1.516 . S
C269 C270 1.502 . S
C269 C271 1.561 . S
C269 C272 1.526 . S
C270 H254 0.959 . S
C270 H255 0.959 . S
C270 H256 0.961 . S
C270 C269 1.502 . S
C271 H257 0.960 . S
C271 H258 0.961 . S
C271 H259 0.959 . S
C271 C269 1.561 . S
C272 C269 1.526 . S
C272 C273 1.396 . S
C272 C277 1.390 . S
C273 C267 1.465 . S
C273 C272 1.396 . S
C273 C274 1.399 . S
C274 H260 0.929 . S
C274 C273 1.399 . S
C274 C275 1.385 . S
C275 H261 0.931 . S
C275 C274 1.385 . S
C275 C276 1.389 . S
C276 C275 1.389 . S
C276 C277 1.387 . S
C277 H262 0.930 . S
C277 C272 1.390 . S
C277 C276 1.387 . S
H278 C290 0.930 . S
H279 C292 0.930 . S
H280 C293 0.930 . S
H281 C297 0.959 . S
H282 C297 0.959 . S
H283 C297 0.961 . S
H284 C298 0.960 . S
H285 C298 0.961 . S
H286 C298 0.959 . S
H287 C301 0.929 . S
H288 C302 0.931 . S
H289 C304 0.930 . S
C290 H278 0.930 . S
C290 C291 1.399 . S
C290 C295 1.399 . S
C291 C290 1.399 . S
C291 C292 1.376 . S
C292 H279 0.930 . S
C292 C291 1.376 . S
C292 C293 1.388 . S
C293 H280 0.930 . S
C293 C292 1.388 . S
C293 C294 1.390 . S
C294 C293 1.390 . S
C294 C295 1.394 . S
C294 C300 1.465 . S
C295 C290 1.399 . S
C295 C294 1.394 . S
C295 C296 1.516 . S
C296 C295 1.516 . S
C296 C297 1.502 . S
C296 C298 1.561 . S
C296 C299 1.526 . S
C297 H281 0.959 . S
C297 H282 0.959 . S
C297 H283 0.961 . S
C297 C296 1.502 . S
C298 H284 0.960 . S
C298 H285 0.961 . S
C298 H286 0.959 . S
C298 C296 1.561 . S
C299 C296 1.526 . S
C299 C300 1.396 . S
C299 C304 1.390 . S
C300 C294 1.465 . S
C300 C299 1.396 . S
C300 C301 1.399 . S
C301 H287 0.929 . S
C301 C300 1.399 . S
C301 C302 1.385 . S
C302 H288 0.931 . S
C302 C301 1.385 . S
C302 C303 1.389 . S
C303 C302 1.389 . S
C303 C304 1.387 . S
C304 H289 0.930 . S
C304 C299 1.390 . S
C304 C303 1.387 . S
H305 C317 0.930 . S
H306 C319 0.930 . S
H307 C320 0.930 . S
H308 C324 0.959 . S
H309 C324 0.959 . S
H310 C324 0.961 . S
H311 C325 0.960 . S
H312 C325 0.961 . S
H313 C325 0.959 . S
H314 C328 0.929 . S
H315 C329 0.931 . S
H316 C331 0.930 . S
C317 H305 0.930 . S
C317 C318 1.399 . S
C317 C322 1.399 . S
C318 C317 1.399 . S
C318 C319 1.376 . S
C319 H306 0.930 . S
C319 C318 1.376 . S
C319 C320 1.388 . S
C320 H307 0.930 . S
C320 C319 1.388 . S
C320 C321 1.390 . S
C321 C320 1.390 . S
C321 C322 1.394 . S
C321 C327 1.465 . S
C322 C317 1.399 . S
C322 C321 1.394 . S
C322 C323 1.516 . S
C323 C322 1.516 . S
C323 C324 1.502 1_455 S
C323 C325 1.561 . S
C323 C326 1.526 . S
C324 H308 0.959 . S
C324 H309 0.959 . S
C324 H310 0.961 . S
C324 C323 1.502 1_655 S
C325 H311 0.960 . S
C325 H312 0.961 . S
C325 H313 0.959 . S
C325 C323 1.561 . S
C326 C323 1.526 . S
C326 C327 1.396 . S
C326 C331 1.390 . S
C327 C321 1.465 . S
C327 C326 1.396 . S
C327 C328 1.399 . S
C328 H314 0.929 . S
C328 C327 1.399 . S
C328 C329 1.385 . S
C329 H315 0.931 . S
C329 C328 1.385 . S
C329 C330 1.389 . S
C330 C329 1.389 . S
C330 C331 1.387 . S
C331 H316 0.930 . S
C331 C326 1.390 . S
C331 C330 1.387 . S
H332 C344 0.930 . S
H333 C346 0.930 . S
H334 C347 0.930 . S
H335 C351 0.959 . S
H336 C351 0.959 . S
H337 C351 0.961 . S
H338 C352 0.960 . S
H339 C352 0.961 . S
H340 C352 0.959 . S
H341 C355 0.929 . S
H342 C356 0.931 . S
H343 C358 0.930 . S
C344 H332 0.930 . S
C344 C345 1.399 1_545 S
C344 C349 1.399 . S
C345 C344 1.399 1_565 S
C345 C346 1.376 1_556 S
C346 H333 0.930 . S
C346 C345 1.376 1_554 S
C346 C347 1.388 1_554 S
C347 H334 0.930 . S
C347 C346 1.388 1_556 S
C347 C348 1.390 . S
C348 C347 1.390 . S
C348 C349 1.394 1_565 S
C348 C354 1.465 . S
C349 C344 1.399 . S
C349 C348 1.394 1_545 S
C349 C350 1.516 . S
C350 C349 1.516 . S
C350 C351 1.502 . S
C350 C352 1.561 . S
C350 C353 1.526 . S
C351 H335 0.959 . S
C351 H336 0.959 . S
C351 H337 0.961 . S
C351 C350 1.502 . S
C352 H338 0.960 . S
C352 H339 0.961 . S
C352 H340 0.959 . S
C352 C350 1.561 . S
C353 C350 1.526 . S
C353 C354 1.396 1_545 S
C353 C358 1.390 . S
C354 C348 1.465 . S
C354 C353 1.396 1_565 S
C354 C355 1.399 . S
C355 H341 0.929 . S
C355 C354 1.399 . S
C355 C356 1.385 . S
C356 H342 0.931 . S
C356 C355 1.385 . S
C356 C357 1.389 1_565 S
C357 C356 1.389 1_545 S
C357 C358 1.387 . S
C358 H343 0.930 . S
C358 C353 1.390 . S
C358 C357 1.387 . S
H359 C371 0.930 . S
H360 C373 0.930 . S
H361 C374 0.930 . S
H362 C378 0.959 . S
H363 C378 0.959 . S
H364 C378 0.961 . S
H365 C379 0.960 . S
H366 C379 0.961 . S
H367 C379 0.959 . S
H368 C382 0.929 1_554 S
H369 C383 0.931 . S
H370 C385 0.930 . S
C371 H359 0.930 . S
C371 C372 1.399 1_556 S
C371 C376 1.399 . S
C372 C371 1.399 1_554 S
C372 C373 1.376 . S
C373 H360 0.930 . S
C373 C372 1.376 . S
C373 C374 1.388 . S
C374 H361 0.930 . S
C374 C373 1.388 . S
C374 C375 1.390 1_554 S
C375 C374 1.390 1_556 S
C375 C376 1.394 . S
C375 C381 1.465 . S
C376 C371 1.399 . S
C376 C375 1.394 . S
C376 C377 1.516 . S
C377 C376 1.516 . S
C377 C378 1.502 . S
C377 C379 1.561 . S
C377 C380 1.526 . S
C378 H362 0.959 . S
C378 H363 0.959 . S
C378 H364 0.961 . S
C378 C377 1.502 . S
C379 H365 0.960 . S
C379 H366 0.961 . S
C379 H367 0.959 . S
C379 C377 1.561 . S
C380 C377 1.526 . S
C380 C381 1.396 . S
C380 C385 1.390 . S
C381 C375 1.465 . S
C381 C380 1.396 . S
C381 C382 1.399 . S
C382 H368 0.929 1_556 S
C382 C381 1.399 . S
C382 C383 1.385 . S
C383 H369 0.931 . S
C383 C382 1.385 . S
C383 C384 1.389 . S
C384 C383 1.389 . S
C384 C385 1.387 . S
C385 H370 0.930 . S
C385 C380 1.390 . S
C385 C384 1.387 . S
H386 C398 0.930 . S
H387 C400 0.930 . S
H388 C401 0.930 . S
H389 C405 0.959 . S
H390 C405 0.959 . S
H391 C405 0.961 . S
H392 C406 0.960 . S
H393 C406 0.961 . S
H394 C406 0.959 . S
H395 C409 0.929 . S
H396 C410 0.931 . S
H397 C412 0.930 . S
C398 H386 0.930 . S
C398 C399 1.399 . S
C398 C403 1.399 . S
C399 C398 1.399 . S
C399 C400 1.376 . S
C400 H387 0.930 . S
C400 C399 1.376 . S
C400 C401 1.388 . S
C401 H388 0.930 . S
C401 C400 1.388 . S
C401 C402 1.390 1_554 S
C402 C401 1.390 1_556 S
C402 C403 1.394 1_556 S
C402 C408 1.465 . S
C403 C398 1.399 . S
C403 C402 1.394 1_554 S
C403 C404 1.516 1_554 S
C404 C403 1.516 1_556 S
C404 C405 1.502 . S
C404 C406 1.561 1_556 S
C404 C407 1.526 . S
C405 H389 0.959 . S
C405 H390 0.959 . S
C405 H391 0.961 . S
C405 C404 1.502 . S
C406 H392 0.960 . S
C406 H393 0.961 . S
C406 H394 0.959 . S
C406 C404 1.561 1_554 S
C407 C404 1.526 . S
C407 C408 1.396 . S
C407 C412 1.390 . S
C408 C402 1.465 . S
C408 C407 1.396 . S
C408 C409 1.399 . S
C409 H395 0.929 . S
C409 C408 1.399 . S
C409 C410 1.385 . S
C410 H396 0.931 . S
C410 C409 1.385 . S
C410 C411 1.389 . S
C411 C410 1.389 . S
C411 C412 1.387 . S
C412 H397 0.930 . S
C412 C407 1.390 . S
C412 C411 1.387 . S
H413 C425 0.930 . S
H414 C427 0.942 . S
H415 C428 0.930 1_554 S
H416 C432 0.959 . S
H417 C432 0.959 . S
H418 C432 0.961 . S
H419 C433 0.960 . S
H420 C433 0.961 . S
H421 C433 0.959 . S
H422 C436 0.923 1_455 S
H423 C437 0.931 . S
H424 C439 0.930 . S
C425 H413 0.930 . S
C425 C426 1.399 . S
C425 C430 1.399 . S
C426 C425 1.399 . S
C426 C427 1.368 1_556 S
C427 H414 0.942 . S
C427 C426 1.368 1_554 S
C427 C428 1.386 1_554 S
C428 H415 0.930 1_556 S
C428 C427 1.386 1_556 S
C428 C429 1.390 . S
C429 C428 1.390 . S
C429 C430 1.394 . S
C429 C435 1.465 . S
C430 C425 1.399 . S
C430 C429 1.394 . S
C430 C431 1.516 . S
C431 C430 1.516 . S
C431 C432 1.502 . S
C431 C433 1.561 1_655 S
C431 C434 1.526 . S
C432 H416 0.959 . S
C432 H417 0.959 . S
C432 H418 0.961 . S
C432 C431 1.502 . S
C433 H419 0.960 . S
C433 H420 0.961 . S
C433 H421 0.959 . S
C433 C431 1.561 1_455 S
C434 C431 1.526 . S
C434 C435 1.396 . S
C434 C439 1.390 . S
C435 C429 1.465 . S
C435 C434 1.396 . S
C435 C436 1.408 . S
C436 H422 0.923 1_655 S
C436 C435 1.408 . S
C436 C437 1.383 1_655 S
C437 H423 0.931 . S
C437 C436 1.383 1_455 S
C437 C438 1.382 1_455 S
C438 C437 1.382 1_655 S
C438 C439 1.398 . S
C439 H424 0.930 . S
C439 C434 1.390 . S
C439 C438 1.398 . S
H440 C452 0.930 . S
H441 C454 0.930 . S
H442 C455 0.930 . S
H443 C459 0.959 . S
H444 C459 0.959 . S
H445 C459 0.961 . S
H446 C460 0.960 . S
H447 C460 0.961 . S
H448 C460 0.959 . S
H449 C463 0.929 . S
H450 C464 0.931 . S
H451 C466 0.930 . S
C452 H440 0.930 . S
C452 C453 1.399 . S
C452 C457 1.399 . S
C453 C452 1.399 . S
C453 C454 1.376 . S
C454 H441 0.930 . S
C454 C453 1.376 . S
C454 C455 1.388 . S
C455 H442 0.930 . S
C455 C454 1.388 . S
C455 C456 1.390 . S
C456 C455 1.390 . S
C456 C457 1.394 . S
C456 C462 1.465 . S
C457 C452 1.399 . S
C457 C456 1.394 . S
C457 C458 1.516 . S
C458 C457 1.516 . S
C458 C459 1.502 . S
C458 C460 1.561 . S
C458 C461 1.526 . S
C459 H443 0.959 . S
C459 H444 0.959 . S
C459 H445 0.961 . S
C459 C458 1.502 . S
C460 H446 0.960 . S
C460 H447 0.961 . S
C460 H448 0.959 . S
C460 C458 1.561 . S
C461 C458 1.526 . S
C461 C462 1.396 . S
C461 C466 1.390 . S
C462 C456 1.465 . S
C462 C461 1.396 . S
C462 C463 1.399 . S
C463 H449 0.929 . S
C463 C462 1.399 . S
C463 C464 1.385 . S
C464 H450 0.931 . S
C464 C463 1.385 . S
C464 C465 1.389 . S
C465 C464 1.389 . S
C465 C466 1.387 . S
C466 H451 0.930 . S
C466 C461 1.390 . S
C466 C465 1.387 . S
H467 C479 0.930 . S
H468 C481 0.930 . S
H469 C482 0.930 . S
H470 C486 0.959 . S
H471 C486 0.959 . S
H472 C486 0.961 . S
H473 C487 0.960 . S
H474 C487 0.961 . S
H475 C487 0.959 . S
H476 C490 0.929 . S
H477 C491 0.931 . S
H478 C493 0.930 . S
C479 H467 0.930 . S
C479 C480 1.399 1_545 S
C479 C484 1.399 . S
C480 C479 1.399 1_565 S
C480 C481 1.376 . S
C481 H468 0.930 . S
C481 C480 1.376 . S
C481 C482 1.388 . S
C482 H469 0.930 . S
C482 C481 1.388 . S
C482 C483 1.390 . S
C483 C482 1.390 . S
C483 C484 1.394 1_565 S
C483 C489 1.465 . S
C484 C479 1.399 . S
C484 C483 1.394 1_545 S
C484 C485 1.516 . S
C485 C484 1.516 . S
C485 C486 1.502 . S
C485 C487 1.561 . S
C485 C488 1.526 . S
C486 H470 0.959 . S
C486 H471 0.959 . S
C486 H472 0.961 . S
C486 C485 1.502 . S
C487 H473 0.960 . S
C487 H474 0.961 . S
C487 H475 0.959 . S
C487 C485 1.561 . S
C488 C485 1.526 . S
C488 C489 1.396 1_545 S
C488 C493 1.390 . S
C489 C483 1.465 . S
C489 C488 1.396 1_565 S
C489 C490 1.399 . S
C490 H476 0.929 . S
C490 C489 1.399 . S
C490 C491 1.385 . S
C491 H477 0.931 . S
C491 C490 1.385 . S
C491 C492 1.389 . S
C492 C491 1.389 . S
C492 C493 1.387 1_565 S
C493 H478 0.930 . S
C493 C488 1.390 . S
C493 C492 1.387 1_545 S
H494 C506 0.930 . S
H495 C508 0.930 . S
H496 C509 0.930 . S
H497 C513 0.959 . S
H498 C513 0.959 . S
H499 C513 0.961 . S
H500 C514 0.960 . S
H501 C514 0.961 . S
H502 C514 0.959 . S
H503 C517 0.929 . S
H504 C518 0.931 . S
H505 C520 0.930 . S
C506 H494 0.930 . S
C506 C507 1.399 . S
C506 C511 1.399 . S
C507 C506 1.399 . S
C507 C508 1.376 . S
C508 H495 0.930 . S
C508 C507 1.376 . S
C508 C509 1.388 . S
C509 H496 0.930 . S
C509 C508 1.388 . S
C509 C510 1.390 . S
C510 C509 1.390 . S
C510 C511 1.394 . S
C510 C516 1.465 . S
C511 C506 1.399 . S
C511 C510 1.394 . S
C511 C512 1.516 . S
C512 C511 1.516 . S
C512 C513 1.502 . S
C512 C514 1.561 . S
C512 C515 1.526 . S
C513 H497 0.959 . S
C513 H498 0.959 . S
C513 H499 0.961 . S
C513 C512 1.502 . S
C514 H500 0.960 . S
C514 H501 0.961 . S
C514 H502 0.959 . S
C514 C512 1.561 . S
C515 C512 1.526 . S
C515 C516 1.396 . S
C515 C520 1.390 . S
C516 C510 1.465 . S
C516 C515 1.396 . S
C516 C517 1.399 . S
C517 H503 0.929 . S
C517 C516 1.399 . S
C517 C518 1.385 . S
C518 H504 0.931 . S
C518 C517 1.385 . S
C518 C519 1.389 . S
C519 C518 1.389 . S
C519 C520 1.387 . S
C520 H505 0.930 . S
C520 C515 1.390 . S
C520 C519 1.387 . S
H521 C533 0.930 . S
H522 C535 0.930 . S
H523 C536 0.930 . S
H524 C540 0.959 . S
H525 C540 0.959 . S
H526 C540 0.961 . S
H527 C541 0.960 . S
H528 C541 0.961 . S
H529 C541 0.959 . S
H530 C544 0.929 . S
H531 C545 0.931 . S
H532 C547 0.930 . S
C533 H521 0.930 . S
C533 C534 1.399 . S
C533 C538 1.399 . S
C534 C533 1.399 . S
C534 C535 1.376 . S
C535 H522 0.930 . S
C535 C534 1.376 . S
C535 C536 1.388 . S
C536 H523 0.930 . S
C536 C535 1.388 . S
C536 C537 1.390 . S
C537 C536 1.390 . S
C537 C538 1.394 . S
C537 C543 1.465 . S
C538 C533 1.399 . S
C538 C537 1.394 . S
C538 C539 1.516 . S
C539 C538 1.516 . S
C539 C540 1.502 . S
C539 C541 1.561 . S
C539 C542 1.526 . S
C540 H524 0.959 . S
C540 H525 0.959 . S
C540 H526 0.961 . S
C540 C539 1.502 . S
C541 H527 0.960 . S
C541 H528 0.961 . S
C541 H529 0.959 . S
C541 C539 1.561 . S
C542 C539 1.526 . S
C542 C543 1.396 . S
C542 C547 1.390 . S
C543 C537 1.465 . S
C543 C542 1.396 . S
C543 C544 1.399 . S
C544 H530 0.929 . S
C544 C543 1.399 . S
C544 C545 1.385 . S
C545 H531 0.931 . S
C545 C544 1.385 . S
C545 C546 1.389 . S
C546 C545 1.389 . S
C546 C547 1.387 . S
C547 H532 0.930 . S
C547 C542 1.390 . S
C547 C546 1.387 . S
H548 C560 0.930 . S
H549 C562 0.930 1_554 S
H550 C563 0.930 1_554 S
H551 C567 0.959 . S
H552 C567 0.959 . S
H553 C567 0.961 . S
H554 C568 0.960 . S
H555 C568 0.961 . S
H556 C568 0.959 . S
H557 C571 0.929 . S
H558 C572 0.931 . S
H559 C574 0.930 . S
C560 H548 0.930 . S
C560 C561 1.399 . S
C560 C565 1.399 . S
C561 C560 1.399 . S
C561 C562 1.376 . S
C562 H549 0.930 1_556 S
C562 C561 1.376 . S
C562 C563 1.388 . S
C563 H550 0.930 1_556 S
C563 C562 1.388 . S
C563 C564 1.390 . S
C564 C563 1.390 . S
C564 C565 1.394 . S
C564 C570 1.465 . S
C565 C560 1.399 . S
C565 C564 1.394 . S
C565 C566 1.521 . S
C566 C565 1.521 . S
C566 C567 1.492 1_655 S
C566 C568 1.568 . S
C566 C569 1.523 1_655 S
C567 H551 0.959 . S
C567 H552 0.959 . S
C567 H553 0.961 . S
C567 C566 1.492 1_455 S
C568 H554 0.960 . S
C568 H555 0.961 . S
C568 H556 0.959 . S
C568 C566 1.568 . S
C569 C566 1.523 1_455 S
C569 C570 1.381 1_455 S
C569 C574 1.404 . S
C570 C564 1.465 . S
C570 C569 1.381 1_655 S
C570 C571 1.399 . S
C571 H557 0.929 . S
C571 C570 1.399 . S
C571 C572 1.385 . S
C572 H558 0.931 . S
C572 C571 1.385 . S
C572 C573 1.389 1_655 S
C573 C572 1.389 1_455 S
C573 C574 1.387 . S
C574 H559 0.930 . S
C574 C569 1.404 . S
C574 C573 1.387 . S
H575 C587 0.930 . S
H576 C589 0.930 1_554 S
H577 C590 0.930 . S
H578 C594 0.959 . S
H579 C594 0.959 . S
H580 C594 0.961 . S
H581 C595 0.960 . S
H582 C595 0.961 . S
H583 C595 0.959 . S
H584 C598 0.929 . S
H585 C599 0.931 . S
H586 C601 0.930 . S
C587 H575 0.930 . S
C587 C588 1.400 1_545 S
C587 C592 1.399 . S
C588 C587 1.400 1_565 S
C588 C589 1.377 . S
C589 H576 0.930 1_556 S
C589 C588 1.377 . S
C589 C590 1.388 . S
C590 H577 0.930 . S
C590 C589 1.388 . S
C590 C591 1.390 . S
C591 C590 1.390 . S
C591 C592 1.394 1_565 S
C591 C597 1.465 . S
C592 C587 1.399 . S
C592 C591 1.394 1_545 S
C592 C593 1.516 . S
C593 C592 1.516 . S
C593 C594 1.502 . S
C593 C595 1.561 . S
C593 C596 1.526 . S
C594 H578 0.959 . S
C594 H579 0.959 . S
C594 H580 0.961 . S
C594 C593 1.502 . S
C595 H581 0.960 . S
C595 H582 0.961 . S
C595 H583 0.959 . S
C595 C593 1.561 . S
C596 C593 1.526 . S
C596 C597 1.396 1_545 S
C596 C601 1.390 . S
C597 C591 1.465 . S
C597 C596 1.396 1_565 S
C597 C598 1.399 . S
C598 H584 0.929 . S
C598 C597 1.399 . S
C598 C599 1.385 . S
C599 H585 0.931 . S
C599 C598 1.385 . S
C599 C600 1.389 1_565 S
C600 C599 1.389 1_545 S
C600 C601 1.387 . S
C601 H586 0.930 . S
C601 C596 1.390 . S
C601 C600 1.387 . S
H602 C614 0.930 . S
H603 C616 0.930 . S
H604 C617 0.930 . S
H605 C621 0.959 . S
H606 C621 0.959 . S
H607 C621 0.961 . S
H608 C622 0.960 . S
H609 C622 0.961 . S
H610 C622 0.959 . S
H611 C625 0.929 . S
H612 C626 0.931 . S
H613 C628 0.930 . S
C614 H602 0.930 . S
C614 C615 1.399 1_556 S
C614 C619 1.399 . S
C615 C614 1.399 1_554 S
C615 C616 1.376 . S
C616 H603 0.930 . S
C616 C615 1.376 . S
C616 C617 1.388 . S
C617 H604 0.930 . S
C617 C616 1.388 . S
C617 C618 1.390 1_554 S
C618 C617 1.390 1_556 S
C618 C619 1.394 . S
C618 C624 1.465 . S
C619 C614 1.399 . S
C619 C618 1.394 . S
C619 C620 1.516 . S
C620 C619 1.516 . S
C620 C621 1.502 . S
C620 C622 1.561 . S
C620 C623 1.526 . S
C621 H605 0.959 . S
C621 H606 0.959 . S
C621 H607 0.961 . S
C621 C620 1.502 . S
C622 H608 0.960 . S
C622 H609 0.961 . S
C622 H610 0.959 . S
C622 C620 1.561 . S
C623 C620 1.526 . S
C623 C624 1.396 . S
C623 C628 1.390 . S
C624 C618 1.465 . S
C624 C623 1.396 . S
C624 C625 1.399 . S
C625 H611 0.929 . S
C625 C624 1.399 . S
C625 C626 1.385 . S
C626 H612 0.931 . S
C626 C625 1.385 . S
C626 C627 1.389 . S
C627 C626 1.389 . S
C627 C628 1.387 . S
C628 H613 0.930 . S
C628 C623 1.390 . S
C628 C627 1.387 . S
H629 C641 0.930 . S
H630 C643 0.932 . S
H631 C644 0.930 . S
H632 C648 0.959 . S
H633 C648 0.959 . S
H634 C648 0.961 . S
H635 C649 0.960 . S
H636 C649 0.961 . S
H637 C649 0.959 1_556 S
H638 C652 0.929 . S
H639 C653 0.931 . S
H640 C655 0.930 . S
C641 H629 0.930 . S
C641 C642 1.399 . S
C641 C646 1.399 . S
C642 C641 1.399 . S
C642 C643 1.369 1_554 S
C643 H630 0.932 . S
C643 C642 1.369 1_556 S
C643 C644 1.394 . S
C644 H631 0.930 . S
C644 C643 1.394 . S
C644 C645 1.390 . S
C645 C644 1.390 . S
C645 C646 1.394 1_556 S
C645 C651 1.465 . S
C646 C641 1.399 . S
C646 C645 1.394 1_554 S
C646 C647 1.516 . S
C647 C646 1.516 . S
C647 C648 1.502 . S
C647 C649 1.561 . S
C647 C650 1.526 1_554 S
C648 H632 0.959 . S
C648 H633 0.959 . S
C648 H634 0.961 . S
C648 C647 1.502 . S
C649 H635 0.960 . S
C649 H636 0.961 . S
C649 H637 0.959 1_554 S
C649 C647 1.561 . S
C650 C647 1.526 1_556 S
C650 C651 1.396 . S
C650 C655 1.390 . S
C651 C645 1.465 . S
C651 C650 1.396 . S
C651 C652 1.399 . S
C652 H638 0.929 . S
C652 C651 1.399 . S
C652 C653 1.385 . S
C653 H639 0.931 . S
C653 C652 1.385 . S
C653 C654 1.389 . S
C654 C653 1.389 . S
C654 C655 1.387 . S
C655 H640 0.930 . S
C655 C650 1.390 . S
C655 C654 1.387 . S
H656 C668 0.930 . S
H657 C670 0.930 . S
H658 C671 0.930 . S
H659 C675 0.959 . S
H660 C675 0.959 . S
H661 C675 0.961 . S
H662 C676 0.960 . S
H663 C676 0.961 1_556 S
H664 C676 0.959 . S
H665 C679 0.929 . S
H666 C680 0.931 . S
H667 C682 0.930 1_556 S
C668 H656 0.930 . S
C668 C669 1.399 . S
C668 C673 1.399 . S
C669 C668 1.399 . S
C669 C670 1.376 . S
C670 H657 0.930 . S
C670 C669 1.376 . S
C670 C671 1.388 . S
C671 H658 0.930 . S
C671 C670 1.388 . S
C671 C672 1.390 . S
C672 C671 1.390 . S
C672 C673 1.394 . S
C672 C678 1.465 . S
C673 C668 1.399 . S
C673 C672 1.394 . S
C673 C674 1.516 . S
C674 C673 1.516 . S
C674 C675 1.502 . S
C674 C676 1.561 . S
C674 C677 1.526 . S
C675 H659 0.959 . S
C675 H660 0.959 . S
C675 H661 0.961 . S
C675 C674 1.502 . S
C676 H662 0.960 . S
C676 H663 0.961 1_554 S
C676 H664 0.959 . S
C676 C674 1.561 . S
C677 C674 1.526 . S
C677 C678 1.396 . S
C677 C682 1.390 . S
C678 C672 1.465 . S
C678 C677 1.396 . S
C678 C679 1.399 . S
C679 H665 0.929 . S
C679 C678 1.399 . S
C679 C680 1.385 . S
C680 H666 0.931 . S
C680 C679 1.385 . S
C680 C681 1.389 . S
C681 C680 1.389 . S
C681 C682 1.387 . S
C682 H667 0.930 1_554 S
C682 C677 1.390 . S
C682 C681 1.387 . S
H683 C695 0.930 . S
H684 C697 0.930 . S
H685 C698 0.930 . S
H686 C702 0.959 . S
H687 C702 0.959 . S
H688 C702 0.961 . S
H689 C703 0.960 . S
H690 C703 0.961 . S
H691 C703 0.959 . S
H692 C706 0.929 . S
H693 C707 0.931 . S
H694 C709 0.930 . S
C695 H683 0.930 . S
C695 C696 1.399 1_545 S
C695 C700 1.399 . S
C696 C695 1.399 1_565 S
C696 C697 1.376 . S
C697 H684 0.930 . S
C697 C696 1.376 . S
C697 C698 1.388 . S
C698 H685 0.930 . S
C698 C697 1.388 . S
C698 C699 1.390 . S
C699 C698 1.390 . S
C699 C700 1.394 1_565 S
C699 C705 1.465 . S
C700 C695 1.399 . S
C700 C699 1.394 1_545 S
C700 C701 1.516 . S
C701 C700 1.516 . S
C701 C702 1.502 1_554 S
C701 C703 1.561 . S
C701 C704 1.526 1_554 S
C702 H686 0.959 . S
C702 H687 0.959 . S
C702 H688 0.961 . S
C702 C701 1.502 1_556 S
C703 H689 0.960 . S
C703 H690 0.961 . S
C703 H691 0.959 . S
C703 C701 1.561 . S
C704 C701 1.526 1_556 S
C704 C705 1.396 1_546 S
C704 C709 1.390 . S
C705 C699 1.465 . S
C705 C704 1.396 1_564 S
C705 C706 1.399 . S
C706 H692 0.929 . S
C706 C705 1.399 . S
C706 C707 1.385 1_554 S
C707 H693 0.931 . S
C707 C706 1.385 1_556 S
C707 C708 1.389 1_565 S
C708 C707 1.389 1_545 S
C708 C709 1.387 . S
C709 H694 0.930 . S
C709 C704 1.390 . S
C709 C708 1.387 . S
H710 C722 0.930 . S
H711 C724 0.930 . S
H712 C725 0.930 . S
H713 C729 0.959 . S
H714 C729 0.959 . S
H715 C729 0.961 . S
H716 C730 0.960 . S
H717 C730 0.961 . S
H718 C730 0.959 . S
H719 C733 0.929 . S
H720 C734 0.931 . S
H721 C736 0.930 . S
C722 H710 0.930 . S
C722 C723 1.399 . S
C722 C727 1.399 . S
C723 C722 1.399 . S
C723 C724 1.376 . S
C724 H711 0.930 . S
C724 C723 1.376 . S
C724 C725 1.388 . S
C725 H712 0.930 . S
C725 C724 1.388 . S
C725 C726 1.390 . S
C726 C725 1.390 . S
C726 C727 1.394 . S
C726 C732 1.465 1_554 S
C727 C722 1.399 . S
C727 C726 1.394 . S
C727 C728 1.516 . S
C728 C727 1.516 . S
C728 C729 1.502 . S
C728 C730 1.561 . S
C728 C731 1.526 . S
C729 H713 0.959 . S
C729 H714 0.959 . S
C729 H715 0.961 . S
C729 C728 1.502 . S
C730 H716 0.960 . S
C730 H717 0.961 . S
C730 H718 0.959 . S
C730 C728 1.561 . S
C731 C728 1.526 . S
C731 C732 1.396 1_554 S
C731 C736 1.390 1_554 S
C732 C726 1.465 1_556 S
C732 C731 1.396 1_556 S
C732 C733 1.399 . S
C733 H719 0.929 . S
C733 C732 1.399 . S
C733 C734 1.385 . S
C734 H720 0.931 . S
C734 C733 1.385 . S
C734 C735 1.389 . S
C735 C734 1.389 . S
C735 C736 1.387 . S
C736 H721 0.930 . S
C736 C731 1.390 1_556 S
C736 C735 1.387 . S
H737 C749 0.930 . S
H738 C751 0.930 . S
H739 C752 0.930 . S
H740 C756 0.959 . S
H741 C756 0.959 . S
H742 C756 0.961 . S
H743 C757 0.960 . S
H744 C757 0.961 . S
H745 C757 0.959 . S
H746 C760 0.929 . S
H747 C761 0.931 . S
H748 C763 0.930 . S
C749 H737 0.930 . S
C749 C750 1.399 . S
C749 C754 1.399 . S
C750 C749 1.399 . S
C750 C751 1.376 . S
C751 H738 0.930 . S
C751 C750 1.376 . S
C751 C752 1.388 . S
C752 H739 0.930 . S
C752 C751 1.388 . S
C752 C753 1.390 . S
C753 C752 1.390 . S
C753 C754 1.394 . S
C753 C759 1.465 1_554 S
C754 C749 1.399 . S
C754 C753 1.394 . S
C754 C755 1.523 . S
C755 C754 1.523 . S
C755 C756 1.494 1_554 S
C755 C757 1.567 . S
C755 C758 1.521 1_554 S
C756 H740 0.959 . S
C756 H741 0.959 . S
C756 H742 0.961 . S
C756 C755 1.494 1_556 S
C757 H743 0.960 . S
C757 H744 0.961 . S
C757 H745 0.959 . S
C757 C755 1.567 . S
C758 C755 1.521 1_556 S
C758 C759 1.396 . S
C758 C763 1.390 . S
C759 C753 1.465 1_556 S
C759 C758 1.396 . S
C759 C760 1.399 . S
C760 H746 0.929 . S
C760 C759 1.399 . S
C760 C761 1.385 . S
C761 H747 0.931 . S
C761 C760 1.385 . S
C761 C762 1.389 . S
C762 C761 1.389 . S
C762 C763 1.387 . S
C763 H748 0.930 . S
C763 C758 1.390 . S
C763 C762 1.387 . S
H764 C776 0.930 . S
H765 C778 0.930 . S
H766 C779 0.930 . S
H767 C783 0.959 . S
H768 C783 0.959 . S
H769 C783 0.961 . S
H770 C784 0.960 . S
H771 C784 0.961 . S
H772 C784 0.959 1_455 S
H773 C787 0.929 . S
H774 C788 0.931 . S
H775 C790 0.930 . S
C776 H764 0.930 . S
C776 C777 1.399 . S
C776 C781 1.399 . S
C777 C776 1.399 . S
C777 C778 1.376 . S
C778 H765 0.930 . S
C778 C777 1.376 . S
C778 C779 1.388 . S
C779 H766 0.930 . S
C779 C778 1.388 . S
C779 C780 1.390 . S
C780 C779 1.390 . S
C780 C781 1.394 . S
C780 C786 1.465 . S
C781 C776 1.399 . S
C781 C780 1.394 . S
C781 C782 1.516 . S
C782 C781 1.516 . S
C782 C783 1.502 . S
C782 C784 1.561 . S
C782 C785 1.526 . S
C783 H767 0.959 . S
C783 H768 0.959 . S
C783 H769 0.961 . S
C783 C782 1.502 . S
C784 H770 0.960 . S
C784 H771 0.961 . S
C784 H772 0.959 1_655 S
C784 C782 1.561 . S
C785 C782 1.526 . S
C785 C786 1.396 . S
C785 C790 1.390 . S
C786 C780 1.465 . S
C786 C785 1.396 . S
C786 C787 1.399 . S
C787 H773 0.929 . S
C787 C786 1.399 . S
C787 C788 1.385 . S
C788 H774 0.931 . S
C788 C787 1.385 . S
C788 C789 1.389 . S
C789 C788 1.389 . S
C789 C790 1.387 . S
C790 H775 0.930 . S
C790 C785 1.390 . S
C790 C789 1.387 . S
H791 C803 0.930 . S
H792 C805 0.930 . S
H793 C806 0.930 . S
H794 C810 0.959 . S
H795 C810 0.959 . S
H796 C810 0.961 . S
H797 C811 0.960 . S
H798 C811 0.961 . S
H799 C811 0.959 . S
H800 C814 0.929 . S
H801 C815 0.931 . S
H802 C817 0.930 . S
C803 H791 0.930 . S
C803 C804 1.399 1_565 S
C803 C808 1.399 . S
C804 C803 1.399 1_545 S
C804 C805 1.376 . S
C805 H792 0.930 . S
C805 C804 1.376 . S
C805 C806 1.388 . S
C806 H793 0.930 . S
C806 C805 1.388 . S
C806 C807 1.390 . S
C807 C806 1.390 . S
C807 C808 1.394 1_545 S
C807 C813 1.465 . S
C808 C803 1.399 . S
C808 C807 1.394 1_565 S
C808 C809 1.516 . S
C809 C808 1.516 . S
C809 C810 1.502 . S
C809 C811 1.561 . S
C809 C812 1.526 . S
C810 H794 0.959 . S
C810 H795 0.959 . S
C810 H796 0.961 . S
C810 C809 1.502 . S
C811 H797 0.960 . S
C811 H798 0.961 . S
C811 H799 0.959 . S
C811 C809 1.561 . S
C812 C809 1.526 . S
C812 C813 1.396 1_565 S
C812 C817 1.390 . S
C813 C807 1.465 . S
C813 C812 1.396 1_545 S
C813 C814 1.399 . S
C814 H800 0.929 . S
C814 C813 1.399 . S
C814 C815 1.385 . S
C815 H801 0.931 . S
C815 C814 1.385 . S
C815 C816 1.342 1_545 S
C816 C815 1.342 1_565 S
C816 C817 1.427 . S
C817 H802 0.930 . S
C817 C812 1.390 . S
C817 C816 1.427 . S
H818 C830 0.930 . S
H819 C832 0.930 . S
H820 C833 0.930 . S
H821 C837 0.959 . S
H822 C837 0.959 . S
H823 C837 0.961 . S
H824 C838 0.960 . S
H825 C838 0.961 . S
H826 C838 0.959 . S
H827 C841 0.929 . S
H828 C842 0.931 . S
H829 C844 0.930 . S
C830 H818 0.930 . S
C830 C831 1.399 . S
C830 C835 1.399 . S
C831 C830 1.399 . S
C831 C832 1.376 . S
C832 H819 0.930 . S
C832 C831 1.376 . S
C832 C833 1.388 . S
C833 H820 0.930 . S
C833 C832 1.388 . S
C833 C834 1.390 . S
C834 C833 1.390 . S
C834 C835 1.394 . S
C834 C840 1.465 . S
C835 C830 1.399 . S
C835 C834 1.394 . S
C835 C836 1.516 . S
C836 C835 1.516 . S
C836 C837 1.502 . S
C836 C838 1.561 . S
C836 C839 1.526 . S
C837 H821 0.959 . S
C837 H822 0.959 . S
C837 H823 0.961 . S
C837 C836 1.502 . S
C838 H824 0.960 . S
C838 H825 0.961 . S
C838 H826 0.959 . S
C838 C836 1.561 . S
C839 C836 1.526 . S
C839 C840 1.396 . S
C839 C844 1.390 . S
C840 C834 1.465 . S
C840 C839 1.396 . S
C840 C841 1.399 . S
C841 H827 0.929 . S
C841 C840 1.399 . S
C841 C842 1.385 . S
C842 H828 0.931 . S
C842 C841 1.385 . S
C842 C843 1.389 . S
C843 C842 1.389 . S
C843 C844 1.387 . S
C844 H829 0.930 . S
C844 C839 1.390 . S
C844 C843 1.387 . S
H845 C857 0.930 . S
H846 C859 0.930 . S
H847 C860 0.930 . S
H848 C864 0.959 . S
H849 C864 0.959 . S
H850 C864 0.961 . S
H851 C865 0.960 . S
H852 C865 0.961 . S
H853 C865 0.959 . S
H854 C868 0.929 . S
H855 C869 0.931 . S
H856 C871 0.930 . S
C857 H845 0.930 . S
C857 C858 1.399 . S
C857 C862 1.399 . S
C858 C857 1.399 . S
C858 C859 1.376 . S
C859 H846 0.930 . S
C859 C858 1.376 . S
C859 C860 1.388 . S
C860 H847 0.930 . S
C860 C859 1.388 . S
C860 C861 1.390 . S
C861 C860 1.390 . S
C861 C862 1.394 . S
C861 C867 1.465 . S
C862 C857 1.399 . S
C862 C861 1.394 . S
C862 C863 1.516 . S
C863 C862 1.516 . S
C863 C864 1.502 . S
C863 C865 1.561 . S
C863 C866 1.526 . S
C864 H848 0.959 . S
C864 H849 0.959 . S
C864 H850 0.961 . S
C864 C863 1.502 . S
C865 H851 0.960 . S
C865 H852 0.961 . S
C865 H853 0.959 . S
C865 C863 1.561 . S
C866 C863 1.526 . S
C866 C867 1.396 . S
C866 C871 1.390 . S
C867 C861 1.465 . S
C867 C866 1.396 . S
C867 C868 1.399 . S
C868 H854 0.929 . S
C868 C867 1.399 . S
C868 C869 1.385 . S
C869 H855 0.931 . S
C869 C868 1.385 . S
C869 C870 1.389 . S
C870 C869 1.389 . S
C870 C871 1.387 . S
C871 H856 0.930 . S
C871 C866 1.390 . S
C871 C870 1.387 . S
C237 C76 1.855 . S
C249 C105 1.864 . S
C276 C126 1.545 . S
C264 C87 1.484 . S
C303 C160 1.355 . S
C291 C54 1.372 . S
C330 C194 1.531 . S
C318 C65 1.535 . S
C357 C96 1.864 . S
C345 C32 1.856 1_556 S
C372 C43 1.541 . S
C384 C135 1.532 . S
C399 C10 1.360 . S
C411 C169 1.370 . S
C426 C21 1.533 . S
C438 C203 1.521 1_655 S
C465 C117 0.449 . S
C453 C60 0.715 . S
C492 C122 0.993 . S
C480 C71 0.993 1_565 S
C519 C156 0.906 . S
C507 C82 0.952 . S
C534 C49 0.386 . S
C546 C190 0.372 . S
C561 C16 0.573 . S
C573 C88 0.548 . S
C600 C151 0.972 . S
C588 C27 0.987 1_566 S
C627 C185 0.899 . S
C615 C38 0.883 . S
C642 C5 0.501 . S
C654 C219 0.393 . S
C669 C59 1.251 . S
C681 C101 1.337 . S
C696 C70 1.684 1_565 S
C708 C130 1.752 . S
C735 C164 1.537 . S
C723 C81 1.524 . S
C762 C198 1.601 . S
C750 C48 1.537 . S
C777 C15 1.239 . S
C789 C92 1.337 . S
C816 C139 1.752 . S
C804 C26 1.722 . S
C843 C173 1.539 . S
C831 C37 1.482 . S
C858 C4 1.533 . S
C870 C207 1.610 . S
