# Generated by pormake.
# Topology anh, (6,3)-cn, num edge types: 1
# Building blocks:
#     Node 0, Type 0, BuildingBlock: BETGAK_clean_sbu_0, # of connection points: 6
#     Node 1, Type 0, BuildingBlock: BETGAK_clean_sbu_0, # of connection points: 6
#     Node 2, Type 0, BuildingBlock: BETGAK_clean_sbu_0, # of connection points: 6
#     Node 3, Type 1, BuildingBlock: CUQRIR_clean_linker_1, # of connection points: 3
#     Node 4, Type 1, BuildingBlock: CUQRIR_clean_linker_1, # of connection points: 3
#     Node 5, Type 1, BuildingBlock: CUQRIR_clean_linker_1, # of connection points: 3
#     Node 6, Type 1, BuildingBlock: CUQRIR_clean_linker_1, # of connection points: 3
#     Node 7, Type 1, BuildingBlock: CUQRIR_clean_linker_1, # of connection points: 3
#     Node 8, Type 1, BuildingBlock: CUQRIR_clean_linker_1, # of connection points: 3
#     Edge 9, Type (0, 1), BuildingBlock: XIVTED_clean_linker_0, # of connection points: 2
#     Edge 10, Type (0, 1), BuildingBlock: XIVTED_clean_linker_0, # of connection points: 2
#     Edge 11, Type (0, 1), BuildingBlock: XIVTED_clean_linker_0, # of connection points: 2
#     Edge 12, Type (0, 1), BuildingBlock: XIVTED_clean_linker_0, # of connection points: 2
#     Edge 13, Type (0, 1), BuildingBlock: XIVTED_clean_linker_0, # of connection points: 2
#     Edge 14, Type (0, 1), BuildingBlock: XIVTED_clean_linker_0, # of connection points: 2
#     Edge 15, Type (0, 1), BuildingBlock: XIVTED_clean_linker_0, # of connection points: 2
#     Edge 16, Type (0, 1), BuildingBlock: XIVTED_clean_linker_0, # of connection points: 2
#     Edge 17, Type (0, 1), BuildingBlock: XIVTED_clean_linker_0, # of connection points: 2
#     Edge 18, Type (0, 1), BuildingBlock: XIVTED_clean_linker_0, # of connection points: 2
#     Edge 19, Type (0, 1), BuildingBlock: XIVTED_clean_linker_0, # of connection points: 2
#     Edge 20, Type (0, 1), BuildingBlock: XIVTED_clean_linker_0, # of connection points: 2
#     Edge 21, Type (0, 1), BuildingBlock: XIVTED_clean_linker_0, # of connection points: 2
#     Edge 22, Type (0, 1), BuildingBlock: XIVTED_clean_linker_0, # of connection points: 2
#     Edge 23, Type (0, 1), BuildingBlock: XIVTED_clean_linker_0, # of connection points: 2
#     Edge 24, Type (0, 1), BuildingBlock: XIVTED_clean_linker_0, # of connection points: 2
#     Edge 25, Type (0, 1), BuildingBlock: XIVTED_clean_linker_0, # of connection points: 2
#     Edge 26, Type (0, 1), BuildingBlock: XIVTED_clean_linker_0, # of connection points: 2
# Relax obj value: 0.206
# Max RMSD: 0.217
# Mean RMSD: 0.164
data_MOF--net-anh--node1-BETGAK_clean_sbu_0--node2-CUQRIR_clean_linker_1--edge1-XIVTED_clean_linker_0
_symmetry_space_group_name_H-M    P1
_symmetry_Int_Tables_number       1
_symmetry_cell_setting            triclinic
loop_
_symmetry_equiv_pos_as_xyz
'x, y, z'
_cell_length_a     28.332814
_cell_length_b     35.280812
_cell_length_c     46.976896
_cell_angle_alpha  87.536523
_cell_angle_beta   89.951021
_cell_angle_gamma 130.07054
loop_
_atom_site_label
_atom_site_type_symbol
_atom_site_fract_x
_atom_site_fract_y
_atom_site_fract_z
_atom_type_partial_charge
La0 La 0.16175 0.48005 0.14961 0.0
La1 La 1.0811 0.5022 0.15288 0.0
C2 C 0.25576 0.48961 0.14034 0.0
C3 C 0.31518 0.52618 0.15344 0.0
C4 C 0.31673 0.54445 0.1798 0.0
C5 C 0.37253 0.57791 0.19311 0.0
C6 C 0.42775 0.59434 0.18001 0.0
C7 C 0.42635 0.57832 0.15277 0.0
C8 C 0.37038 0.54438 0.13962 0.0
C9 C 0.12076 0.47107 0.20208 0.0
C10 C 0.21747 0.59251 0.15716 0.0
C11 C 0.98938 0.49619 0.1626 0.0
C12 C 0.92538 0.45963 0.15323 0.0
C13 C 0.90799 0.46997 0.12809 0.0
C14 C 0.84951 0.43461 0.11768 0.0
C15 C 0.80646 0.38797 0.13223 0.0
C16 C 0.82354 0.37754 0.15752 0.0
C17 C 0.88249 0.41307 0.16794 0.0
C18 C 0.12462 0.51275 0.10073 0.0
C19 C 1.02504 0.38939 0.14755 0.0
O20 O 0.21085 0.45526 0.1581 0.0
O21 O 0.23885 0.50845 0.12287 0.0
O22 O 0.13006 0.44278 0.19209 0.0
O23 O 0.13797 0.5048 0.1835 0.0
O24 O 0.22599 0.56228 0.14799 0.0
O25 O 0.1617 0.57475 0.16526 0.0
O26 O 1.03107 0.52542 0.14236 0.0
O27 O 1.00816 0.47969 0.18082 0.0
O28 O 0.11729 0.54195 0.1112 0.0
O29 O 0.10513 0.4776 0.11872 0.0
O30 O 1.01732 0.42045 0.15595 0.0
O31 O 1.08018 0.4063 0.13881 0.0
H32 H 0.2745 0.53175 0.19049 0.0
H33 H 0.37232 0.58944 0.21408 0.0
H34 H 0.46813 0.58961 0.14238 0.0
H35 H 0.37008 0.5314 0.11908 0.0
H36 H 0.93967 0.50555 0.11636 0.0
H37 H 0.83733 0.44477 0.09872 0.0
H38 H 0.79112 0.34223 0.1694 0.0
H39 H 0.89447 0.40395 0.18743 0.0
La40 La 0.7428 0.05924 0.46921 0.0
La41 La 0.65822 0.0805 0.45775 0.0
C42 C 0.79378 0.02725 0.49059 0.0
C43 C 0.77588 0.97949 0.50097 0.0
C44 C 0.82067 0.97405 0.50142 0.0
C45 C 0.80498 0.92899 0.51086 0.0
C46 C 0.744 0.88835 0.51994 0.0
C47 C 0.69909 0.89394 0.51943 0.0
C48 C 0.71497 0.93923 0.51012 0.0
C49 C 0.73638 0.0779 0.41508 0.0
C50 C 0.5985 0.97029 0.46083 0.0
C51 C 0.60973 0.1164 0.4399 0.0
C52 C 0.62153 0.16196 0.44692 0.0
C53 C 0.65908 0.18894 0.46968 0.0
C54 C 0.669 0.23133 0.47725 0.0
C55 C 0.64179 0.24782 0.46211 0.0
C56 C 0.60487 0.22097 0.43899 0.0
C57 C 0.59482 0.17834 0.43147 0.0
C58 C 0.66601 0.06305 0.51194 0.0
C59 C 0.80421 0.17074 0.46288 0.0
O60 O 0.79016 0.03257 0.46317 0.0
O61 O 0.77273 0.0444 0.50553 0.0
O62 O 0.78586 0.09013 0.4265 0.0
O63 O 0.69221 0.05306 0.43323 0.0
O64 O 0.64961 0.985 0.47323 0.0
O65 O 0.59571 1.00294 0.44812 0.0
O66 O 0.58626 0.08276 0.46093 0.0
O67 O 0.65497 0.12292 0.42626 0.0
O68 O 0.61647 0.05043 0.50062 0.0
O69 O 0.7097 0.08783 0.49361 0.0
O70 O 0.74943 0.15519 0.45535 0.0
O71 O 0.81214 0.13928 0.47208 0.0
H72 H 0.86786 1.00468 0.49434 0.0
H73 H 0.84047 0.92573 0.51055 0.0
H74 H 0.65186 0.86351 0.52652 0.0
H75 H 0.6798 0.94281 0.51012 0.0
H76 H 0.67998 0.17673 0.48192 0.0
H77 H 0.69677 0.25041 0.49545 0.0
H78 H 0.58385 0.23294 0.42665 0.0
H79 H 0.56591 0.158 0.41376 0.0
La80 La 0.67286 0.61625 0.83609 0.0
La81 La 0.58384 0.50695 0.84664 0.0
C82 C 0.73068 0.7032 0.81467 0.0
C83 C 0.71879 0.73674 0.80568 0.0
C84 C 0.7675 0.78802 0.8051 0.0
C85 C 0.75821 0.82097 0.79612 0.0
C86 C 0.69986 0.80323 0.78749 0.0
C87 C 0.65081 0.75162 0.78839 0.0
C88 C 0.66023 0.71863 0.79737 0.0
C89 C 0.65966 0.58561 0.88946 0.0
C90 C 0.52631 0.55905 0.84642 0.0
C91 C 0.53147 0.41876 0.86332 0.0
C92 C 0.54554 0.38688 0.85569 0.0
C93 C 0.58616 0.40139 0.83247 0.0
C94 C 0.5997 0.37147 0.82475 0.0
C95 C 0.57298 0.32633 0.84013 0.0
C96 C 0.5325 0.31205 0.86356 0.0
C97 C 0.51898 0.34217 0.87129 0.0
C98 C 0.60288 0.53893 0.79266 0.0
C99 C 0.73148 0.56441 0.84046 0.0
O100 O 0.72576 0.69235 0.84206 0.0
O101 O 0.70615 0.6644 0.79961 0.0
O102 O 0.71114 0.6248 0.87771 0.0
O103 O 0.61681 0.56716 0.87216 0.0
O104 O 0.58111 0.59864 0.83508 0.0
O105 O 0.51909 0.51974 0.85653 0.0
O106 O 0.51212 0.43085 0.84244 0.0
O107 O 0.57354 0.45711 0.87773 0.0
O108 O 0.55031 0.49997 0.8035 0.0
O109 O 0.64249 0.55596 0.81135 0.0
O110 O 0.67431 0.52316 0.84765 0.0
O111 O 0.74182 0.60592 0.83254 0.0
H112 H 0.81294 0.80265 0.81157 0.0
H113 H 0.79671 0.86042 0.79621 0.0
H114 H 0.60542 0.73671 0.7817 0.0
H115 H 0.62203 0.67909 0.79758 0.0
H116 H 0.60702 0.43574 0.82007 0.0
H117 H 0.63016 0.38331 0.80632 0.0
H118 H 0.51163 0.2778 0.87605 0.0
H119 H 0.48774 0.33054 0.88937 0.0
C120 C 0.62455 0.99077 0.17029 0.0
N121 N 0.66052 0.02867 0.18791 0.0
N122 N 0.57615 0.94901 0.18517 0.0
C123 C 0.63421 0.99535 0.1385 0.0
C124 C 0.58411 0.96277 0.21233 0.0
N125 N 0.63468 1.01104 0.21398 0.0
C126 C 0.54436 0.92802 0.23755 0.0
H127 H 0.59074 0.96598 0.12809 0.0
H128 H 0.66906 0.99144 0.13333 0.0
H129 H 0.65198 0.03238 0.12989 0.0
H130 H 0.5721 0.93824 0.25682 0.0
H131 H 0.52167 0.88906 0.23321 0.0
H132 H 0.508 0.93051 0.24201 0.0
C133 C 0.67269 0.55177 0.53978 0.0
N134 N 0.67322 0.57564 0.56181 0.0
N135 N 0.6738 0.51566 0.54951 0.0
C136 C 0.6757 0.5659 0.50876 0.0
C137 C 0.67519 0.51845 0.57818 0.0
N138 N 0.67544 0.55519 0.58563 0.0
C139 C 0.67179 0.48301 0.59896 0.0
H140 H 0.62821 0.54715 0.50173 0.0
H141 H 0.69624 0.55418 0.49548 0.0
H142 H 0.70325 0.60656 0.50535 0.0
H143 H 0.71932 0.49935 0.60463 0.0
H144 H 0.64947 0.4469 0.58954 0.0
H145 H 0.64575 0.47659 0.61881 0.0
C146 C 0.12709 0.55777 0.85052 0.0
N147 N 0.1583 0.55003 0.86896 0.0
N148 N 1.07823 0.55008 0.86408 0.0
C149 C 0.14224 0.57041 0.81921 0.0
C150 C 1.08143 0.53773 0.89127 0.0
N151 N 0.12869 0.53727 0.89416 0.0
C152 C 1.03952 0.52808 0.91558 0.0
H153 H 0.18035 0.61099 0.8158 0.0
H154 H 1.10171 0.56016 0.80758 0.0
H155 H 0.158 0.55125 0.81061 0.0
H156 H 1.02 0.54661 0.91117 0.0
H157 H 1.06447 0.54121 0.93576 0.0
H158 H 1.0009 0.48752 0.91857 0.0
C159 C 0.19951 0.57078 0.44695 0.0
N160 N 0.16105 0.5346 0.42879 0.0
N161 N 0.23929 0.61556 0.43244 0.0
C162 C 0.19591 0.56302 0.4788 0.0
C163 C 0.22382 0.60532 0.40494 0.0
N164 N 0.17605 0.55641 0.40273 0.0
C165 C 0.25841 0.64274 0.38005 0.0
H166 H 0.1473 0.53379 0.48656 0.0
H167 H 0.2163 0.59794 0.48931 0.0
H168 H 0.22215 0.55064 0.48481 0.0
H169 H 0.25928 0.62533 0.36117 0.0
H170 H 0.30656 0.67414 0.38541 0.0
H171 H 0.23481 0.65758 0.3744 0.0
C172 C 0.64934 0.0793 0.76485 0.0
N173 N 0.65854 0.0597 0.74354 0.0
N174 N 0.65528 0.11875 0.7547 0.0
C175 C 0.63886 0.06227 0.79583 0.0
C176 C 0.66864 0.1226 0.7265 0.0
N177 N 0.67129 0.08706 0.71977 0.0
C178 C 0.67372 0.15828 0.70517 0.0
H179 H 0.58873 0.03186 0.80029 0.0
H180 H 0.65494 0.09296 0.80972 0.0
H181 H 0.66325 0.04799 0.80112 0.0
H182 H 0.72308 0.19162 0.70176 0.0
H183 H 0.64818 0.17009 0.71292 0.0
H184 H 0.65556 0.14133 0.68438 0.0
C185 C 0.61054 0.48624 0.14211 0.0
N186 N 0.60107 0.47269 0.11474 0.0
N187 N 0.62424 0.53058 0.1437 0.0
C188 C 0.6136 0.45924 0.16676 0.0
C189 C 0.6222 0.54328 0.11637 0.0
N190 N 0.60957 0.50875 0.09873 0.0
C191 C 0.62742 0.58729 0.10703 0.0
H192 H 0.63587 0.44419 0.15984 0.0
H193 H 0.56605 0.4277 0.17486 0.0
H194 H 0.63986 0.48405 0.18439 0.0
H195 H 0.6769 0.62071 0.10427 0.0
H196 H 0.60561 0.59416 0.12328 0.0
H197 H 0.605 0.58144 0.08644 0.0
H198 H 0.43774 0.56746 0.23341 0.0
H199 H 0.71306 0.62827 0.15306 0.0
H200 H 0.5469 0.67658 0.16412 0.0
H201 H 0.55156 0.49001 0.1917 0.0
H202 H 0.698 0.67301 0.18511 0.0
H203 H 0.52674 0.57572 0.2469 0.0
C204 C 0.4814 0.59526 0.22194 0.0
C205 C 0.48426 0.61905 0.19646 0.0
C206 C 0.66778 0.63292 0.18758 0.0
C207 C 0.58483 0.6272 0.21124 0.0
C208 C 0.67582 0.60744 0.16906 0.0
C209 C 0.63112 0.55564 0.16872 0.0
C210 C 0.61464 0.60599 0.20558 0.0
C211 C 0.58571 0.53008 0.19066 0.0
C212 C 0.53236 0.59995 0.2297 0.0
C213 C 0.54223 0.6555 0.18298 0.0
N214 N 0.57761 0.55555 0.20781 0.0
N215 N 0.5901 0.65732 0.18993 0.0
H216 H 0.92543 0.22004 0.47635 0.0
H217 H 1.04286 0.48506 0.41507 0.0
H218 H 0.80516 0.24566 0.44367 0.0
H219 H 0.16152 0.4669 0.45828 0.0
H220 H 0.95555 0.39664 0.42492 0.0
H221 H 1.01273 0.30936 0.46982 0.0
C222 C 0.91721 0.24433 0.46794 0.0
C223 C 0.85764 0.22501 0.46049 0.0
C224 C 1.0005 0.41182 0.43244 0.0
C225 C 0.95763 0.32741 0.4528 0.0
C226 C 1.05023 0.46221 0.42673 0.0
C227 C 0.10913 0.48302 0.43592 0.0
C228 C 1.0097 0.3817 0.44732 0.0
C229 C 0.11654 0.45212 0.45109 0.0
C230 C 0.96715 0.29537 0.46421 0.0
C231 C 0.85005 0.25853 0.44967 0.0
N232 N 1.06746 0.4029 0.45621 0.0
N233 N 0.89932 0.3078 0.44606 0.0
H234 H 0.77759 0.88875 0.75355 0.0
H235 H 0.56929 0.9675 0.76723 0.0
H236 H 0.60108 0.79865 0.79913 0.0
H237 H 0.74992 0.06052 0.72606 0.0
H238 H 0.57585 0.90189 0.77561 0.0
H239 H 0.76456 0.94901 0.73999 0.0
C240 C 0.73609 0.88164 0.76076 0.0
C241 C 0.69063 0.8387 0.77776 0.0
C242 C 0.61396 0.93649 0.76458 0.0
C243 C 0.67509 0.90752 0.76201 0.0
C244 C 0.6102 0.97382 0.75989 0.0
C245 C 0.65942 0.01934 0.74623 0.0
C246 C 0.66743 0.94486 0.7555 0.0
C247 C 0.71106 0.02575 0.73661 0.0
C248 C 0.72852 0.91597 0.75286 0.0
C249 C 0.63719 0.83102 0.78589 0.0
N250 N 0.71396 0.98905 0.7416 0.0
N251 N 0.63108 0.86522 0.77809 0.0
H252 H 0.70092 0.33728 0.16576 0.0
H253 H 0.51514 0.37569 0.13175 0.0
H254 H 0.76361 0.36349 0.07792 0.0
H255 H 0.67375 0.477 0.07511 0.0
H256 H 0.52797 0.31361 0.12702 0.0
H257 H 0.60854 0.32156 0.15044 0.0
C258 C 0.69393 0.3373 0.1431 0.0
C259 C 0.74173 0.35485 0.12313 0.0
C260 C 0.55835 0.34873 0.11476 0.0
C261 C 0.6369 0.33854 0.10545 0.0
C262 C 0.55119 0.38404 0.1175 0.0
C263 C 0.59478 0.43184 0.10455 0.0
C264 C 0.6096 0.36191 0.09901 0.0
C265 C 0.63959 0.44081 0.08569 0.0
C266 C 0.64066 0.32819 0.13423 0.0
C267 C 0.7292 0.35294 0.09408 0.0
N268 N 0.64662 0.40646 0.08393 0.0
N269 N 0.67917 0.34741 0.08607 0.0
H270 H 0.58875 0.88965 0.47841 0.0
H271 H 0.24068 0.6923 0.42787 0.0
H272 H 0.48366 0.92798 0.44191 0.0
H273 H 0.34343 0.64934 0.45959 0.0
H274 H 0.32667 0.77843 0.43799 0.0
H275 H 0.49815 0.8015 0.47599 0.0
C276 C 0.5467 0.87966 0.47002 0.0
C277 C 0.54414 0.91652 0.46023 0.0
C278 C 0.33052 0.75032 0.44311 0.0
C279 C 0.44013 0.81559 0.45748 0.0
C280 C 0.28126 0.70121 0.43749 0.0
C281 C 0.28527 0.66408 0.44301 0.0
C282 C 0.38473 0.76264 0.45415 0.0
C283 C 0.33875 0.67715 0.45529 0.0
C284 C 0.49496 0.82927 0.46864 0.0
C285 C 0.48823 0.90113 0.44954 0.0
N286 N 0.38679 0.72553 0.46023 0.0
N287 N 0.43878 0.85208 0.44842 0.0
H288 H 0.49311 0.2246 0.83888 0.0
H289 H 0.73599 0.21814 0.75761 0.0
H290 H 0.68344 0.35432 0.82063 0.0
H291 H 0.55435 0.08652 0.78596 0.0
H292 H 0.718 0.26877 0.78124 0.0
H293 H 0.51486 0.17308 0.82085 0.0
C294 C 0.53964 0.24226 0.83141 0.0
C295 C 0.58637 0.29403 0.83112 0.0
C296 C 0.68213 0.2288 0.78252 0.0
C297 C 0.61135 0.23519 0.80997 0.0
C298 C 0.69244 0.20011 0.76901 0.0
C299 C 0.6465 0.14842 0.76994 0.0
C300 C 0.62517 0.20553 0.79688 0.0
C301 C 0.59086 0.12638 0.785 0.0
C302 C 0.55194 0.21279 0.82095 0.0
C303 C 0.6456 0.31473 0.82078 0.0
N304 N 0.58152 0.15507 0.79775 0.0
N305 N 0.65626 0.28533 0.81049 0.0
H306 H 0.64122 0.79434 0.50768 0.0
H307 H 0.75951 0.66327 0.58475 0.0
H308 H 0.80943 0.87273 0.55383 0.0
H309 H 0.59776 0.58589 0.5344 0.0
H310 H 0.77245 0.73883 0.57793 0.0
H311 H 0.61853 0.7162 0.52125 0.0
C312 C 0.67306 0.79509 0.52092 0.0
C313 C 0.72757 0.84026 0.52944 0.0
C314 C 0.73383 0.70531 0.56849 0.0
C315 C 0.70214 0.75093 0.54485 0.0
C316 C 0.72633 0.66225 0.57256 0.0
C317 C 0.67782 0.61877 0.55994 0.0
C318 C 0.69243 0.70477 0.55163 0.0
C319 C 0.63619 0.61909 0.54411 0.0
C320 C 0.66025 0.75047 0.52853 0.0
C321 C 0.76741 0.83893 0.54635 0.0
N322 N 0.64461 0.66154 0.54023 0.0
N323 N 0.75403 0.79509 0.55339 0.0
H324 H 0.858 0.64171 0.83048 0.0
H325 H 0.9554 0.47282 0.86251 0.0
H326 H 0.72773 0.48452 0.85205 0.0
H327 H 1.08963 0.63045 0.84475 0.0
H328 H 0.87231 0.47631 0.85521 0.0
H329 H 0.94243 0.63867 0.83274 0.0
C330 C 0.84675 0.60643 0.83561 0.0
C331 C 0.7846 0.56335 0.8411 0.0
C332 C 0.91977 0.51024 0.85243 0.0
C333 C 0.88278 0.55958 0.84369 0.0
C334 C 0.96746 0.5081 0.8563 0.0
C335 C 1.03013 0.55117 0.85366 0.0
C336 C 0.9338 0.55602 0.84604 0.0
C337 C 1.04238 0.59607 0.84637 0.0
C338 C 0.89541 0.60476 0.83691 0.0
C339 C 0.77423 0.51896 0.84766 0.0
N340 N 0.99508 0.59734 0.84298 0.0
N341 N 0.82219 0.51834 0.84876 0.0
H342 H 0.34008 0.64093 0.14539 0.0
H343 H 0.4561 0.90578 0.18893 0.0
H344 H 0.21819 0.66703 0.17285 0.0
H345 H 0.5799 0.88294 0.16031 0.0
H346 H 0.36806 0.81946 0.17993 0.0
H347 H 0.4279 0.72943 0.14838 0.0
C348 C 0.33163 0.6652 0.152 0.0
C349 C 0.27137 0.64625 0.15894 0.0
C350 C 0.41431 0.83322 0.17525 0.0
C351 C 0.37219 0.74805 0.1623 0.0
C352 C 0.4644 0.88253 0.18022 0.0
C353 C 0.52497 0.90125 0.1752 0.0
C354 C 0.42473 0.80201 0.16537 0.0
C355 C 0.53371 0.86979 0.16416 0.0
C356 C 0.38194 0.71585 0.15365 0.0
C357 C 0.26363 0.67972 0.16738 0.0
N358 N 0.48415 0.82154 0.15983 0.0
N359 N 0.3133 0.72878 0.16885 0.0
H360 H 0.7465 0.33436 0.48169 0.0
H361 H 0.58675 0.45116 0.51329 0.0
H362 H 0.55685 0.2618 0.46342 0.0
H363 H 0.75687 0.5018 0.54952 0.0
H364 H 0.58115 0.38848 0.48843 0.0
H365 H 0.75704 0.40283 0.50045 0.0
C366 C 0.70702 0.33274 0.48159 0.0
C367 C 0.65045 0.29181 0.4712 0.0
C368 C 0.61991 0.41346 0.50168 0.0
C369 C 0.66263 0.37069 0.49234 0.0
C370 C 0.62315 0.4492 0.51566 0.0
C371 C 0.6722 0.48117 0.53337 0.0
C372 C 0.66638 0.41011 0.50535 0.0
C373 C 0.71823 0.47737 0.53611 0.0
C374 C 0.71321 0.37202 0.49221 0.0
C375 C 0.60148 0.29261 0.47098 0.0
N376 N 0.71421 0.44238 0.52228 0.0
N377 N 0.60862 0.33127 0.48153 0.0
H378 H 0.52001 0.63226 0.82826 0.0
H379 H 0.16558 0.47867 0.88442 0.0
H380 H 0.40776 0.48583 0.86965 0.0
H381 H 0.27103 0.62289 0.84104 0.0
H382 H 0.25391 0.48149 0.87872 0.0
H383 H 0.43187 0.63057 0.8322 0.0
C384 C 0.47708 0.59965 0.83818 0.0
C385 C 0.47242 0.55911 0.84859 0.0
C386 C 0.25812 0.51263 0.87029 0.0
C387 C 0.36958 0.55698 0.85326 0.0
C388 C 0.20734 0.51107 0.87364 0.0
C389 C 0.21003 0.55057 0.8633 0.0
C390 C 0.31351 0.55421 0.85647 0.0
C391 C 0.26592 0.59122 0.84916 0.0
C392 C 0.42638 0.59874 0.84042 0.0
C393 C 0.41463 0.51816 0.86122 0.0
N394 N 0.31502 0.59204 0.8463 0.0
N395 N 0.36632 0.51826 0.86317 0.0
H396 H 1.01961 0.31011 0.13627 0.0
H397 H 0.67109 0.10803 0.199 0.0
H398 H 0.90652 0.34446 0.16439 0.0
H399 H 0.76723 0.06626 0.15907 0.0
H400 H 0.75928 0.19539 0.18705 0.0
H401 H 0.93016 0.22122 0.14429 0.0
C402 C 0.97604 0.29912 0.14386 0.0
C403 C 0.97094 0.33514 0.1497 0.0
C404 C 0.76135 0.16732 0.18073 0.0
C405 C 0.86856 0.23347 0.15923 0.0
C406 C 0.71106 0.11751 0.18769 0.0
C407 C 0.71211 0.08012 0.18004 0.0
C408 C 0.81369 0.1802 0.16611 0.0
C409 C 0.7647 0.09416 0.16515 0.0
C410 C 0.925 0.24834 0.1485 0.0
C411 C 0.91314 0.31844 0.15961 0.0
N412 N 0.8136 0.14311 0.15879 0.0
N413 N 0.86471 0.26917 0.16418 0.0
H414 H 1.09405 0.43703 0.0684 0.0
H415 H 0.22552 0.60913 0.92356 0.0
H416 H 0.18905 0.59369 0.06392 0.0
H417 H 1.07174 0.45253 0.92656 0.0
H418 H 0.23815 0.6027 0.9749 0.0
H419 H 0.10944 0.4414 0.01635 0.0
C420 C 0.11903 0.47242 0.05651 0.0
C421 C 0.13966 0.51497 0.07028 0.0
C422 C 0.20269 0.56946 0.96418 0.0
C423 C 0.15817 0.52038 0.0112 0.0
C424 C 0.19613 0.57311 0.93493 0.0
C425 C 0.1479 0.53125 0.92111 0.0
C426 C 0.16072 0.52351 0.97954 0.0
C427 C 0.10976 0.48541 0.93668 0.0
C428 C 0.12767 0.47488 0.0269 0.0
C429 C 0.17178 0.55994 0.05399 0.0
N430 N 0.1165 0.48275 0.96519 0.0
N431 N 0.17987 0.56145 0.02533 0.0
H432 H 0.82136 0.11093 0.37166 0.0
H433 H 0.57584 0.02548 0.25105 0.0
H434 H 0.63429 0.05103 0.38829 0.0
H435 H 0.74618 0.05404 0.23579 0.0
H436 H 0.60688 0.05329 0.29954 0.0
H437 H 0.80403 0.10735 0.32031 0.0
C438 C 0.7769 0.09757 0.36447 0.0
C439 C 0.72893 0.08074 0.38417 0.0
C440 C 0.63803 0.05424 0.28552 0.0
C441 C 0.70893 0.0768 0.32566 0.0
C442 C 0.6204 0.03864 0.25791 0.0
C443 C 0.65836 0.0371 0.23982 0.0
C444 C 0.69405 0.06831 0.29509 0.0
C445 C 0.71587 0.05476 0.24932 0.0
C446 C 0.76704 0.0955 0.3352 0.0
C447 C 0.67234 0.064 0.37379 0.0
N448 N 0.73175 0.06907 0.27652 0.0
N449 N 0.6638 0.06218 0.34527 0.0
H450 H 0.71642 0.599 0.76546 0.0
H451 H 0.58145 0.54589 0.60897 0.0
H452 H 0.5221 0.50794 0.74995 0.0
H453 H 0.75723 0.5865 0.62696 0.0
H454 H 0.56597 0.55093 0.65981 0.0
H455 H 0.73858 0.61323 0.71385 0.0
C456 C 0.67851 0.58251 0.75116 0.0
C457 C 0.6173 0.55182 0.76185 0.0
C458 C 0.60831 0.55942 0.65257 0.0
C459 C 0.64227 0.56815 0.70302 0.0
C460 C 0.6172 0.55689 0.62369 0.0
C461 C 0.67043 0.56563 0.61419 0.0
C462 C 0.65341 0.57125 0.67186 0.0
C463 C 0.71553 0.57935 0.63379 0.0
C464 C 0.69116 0.59053 0.72177 0.0
C465 C 0.56988 0.53145 0.74248 0.0
N466 N 0.70593 0.58154 0.66181 0.0
N467 N 0.58332 0.53981 0.71395 0.0
H468 H 0.77191 0.11703 0.54215 0.0
H469 H 0.58734 1.00301 0.69326 0.0
H470 H 0.57439 1.00215 0.55196 0.0
H471 H 0.76728 0.14702 0.68201 0.0
H472 H 0.59019 0.99039 0.64242 0.0
H473 H 0.77859 0.11705 0.59434 0.0
C474 C 0.73014 0.09137 0.55531 0.0
C475 C 0.67242 0.05997 0.5429 0.0
C476 C 0.62948 0.02447 0.65114 0.0
C477 C 0.67968 0.05947 0.60223 0.0
C478 C 0.62796 0.0314 0.68007 0.0
C479 C 0.67699 0.07612 0.69145 0.0
C480 C 0.68065 0.06253 0.63364 0.0
C481 C 0.72857 0.11221 0.6737 0.0
C482 C 0.73392 0.09148 0.585 0.0
C483 C 0.61967 0.02734 0.56078 0.0
N484 N 0.72896 0.10484 0.64556 0.0
N485 N 0.62451 0.02805 0.58955 0.0
H486 H 0.74902 0.625 0.92801 0.0
H487 H 0.52308 0.44702 0.06098 0.0
H488 H 0.55304 0.50942 0.91953 0.0
H489 H 0.70932 0.58321 0.06746 0.0
H490 H 0.53414 0.46105 0.00852 0.0
H491 H 0.73668 0.6017 0.97868 0.0
C492 C 0.7033 0.59456 0.93688 0.0
C493 C 0.65187 0.56942 0.91973 0.0
C494 C 0.57255 0.48774 0.02147 0.0
C495 C 0.63722 0.54245 0.97781 0.0
C496 C 0.56622 0.47964 0.05119 0.0
C497 C 0.61521 0.51443 0.06815 0.0
C498 C 0.62853 0.53058 0.00898 0.0
C499 C 0.67042 0.5561 0.05489 0.0
C500 C 0.69623 0.58126 0.96582 0.0
C501 C 0.59377 0.52991 0.9322 0.0
N502 N 0.67559 0.56305 0.02612 0.0
N503 N 0.58786 0.5177 0.96063 0.0
H504 H 1.09655 0.40608 0.2453 0.0
H505 H 0.16946 0.48201 0.3841 0.0
H506 H 0.12727 0.54174 0.2286 0.0
H507 H 0.1271 0.57646 0.36177 0.0
H508 H 0.14322 0.45086 0.33629 0.0
H509 H 1.09439 0.41507 0.29639 0.0
C510 C 0.10289 0.43782 0.25248 0.0
C511 C 0.11326 0.47372 0.2328 0.0
C512 C 0.13766 0.47723 0.34186 0.0
C513 C 0.1128 0.48527 0.29128 0.0
C514 C 0.15282 0.49499 0.36921 0.0
C515 C 0.15061 0.53183 0.37656 0.0
C516 C 0.12016 0.49663 0.3218 0.0
C517 C 0.12984 0.54832 0.35658 0.0
C518 C 1.10229 0.44326 0.28171 0.0
C519 C 0.11997 0.51357 0.24313 0.0
N520 N 0.11624 0.53114 0.32996 0.0
N521 N 0.12013 0.51848 0.27168 0.0
loop_
_geom_bond_atom_site_label_1
_geom_bond_atom_site_label_2
_geom_bond_distance
_geom_bond_site_symmetry_2
_ccdc_geom_bond_type
La0 C2 2.928 . S
La0 O20 2.521 . S
La0 O21 2.628 . S
La0 O22 2.554 . S
La0 O23 2.757 1_455 S
La0 O24 2.470 . S
La0 O29 2.482 . S
La0 O31 2.503 1_455 S
La1 C11 2.928 . S
La1 O23 2.482 . S
La1 O25 2.503 1_655 S
La1 O26 2.521 . S
La1 O27 2.628 . S
La1 O28 2.554 . S
La1 O29 2.757 1_655 S
La1 O30 2.470 . S
C2 La0 2.928 . S
C2 C3 1.503 . S
C2 O20 1.261 . S
C2 O21 1.243 . S
C3 C2 1.503 . S
C3 C4 1.394 . S
C3 C8 1.373 . S
C4 C3 1.394 . S
C4 C5 1.380 . S
C4 H32 0.930 . S
C5 C4 1.380 . S
C5 C6 1.376 . S
C5 H33 0.930 . S
C6 C5 1.376 . S
C6 C7 1.370 . S
C7 C6 1.370 . S
C7 C8 1.396 . S
C7 H34 0.929 . S
C8 C3 1.373 . S
C8 C7 1.396 . S
C8 H35 0.929 . S
C9 O22 1.269 . S
C9 O23 1.275 1_455 S
C10 O24 1.258 . S
C10 O25 1.256 . S
C11 La1 2.928 . S
C11 C12 1.503 . S
C11 O26 1.261 . S
C11 O27 1.243 . S
C12 C11 1.503 . S
C12 C13 1.394 . S
C12 C17 1.373 . S
C13 C12 1.394 . S
C13 C14 1.380 . S
C13 H36 0.930 . S
C14 C13 1.380 . S
C14 C15 1.376 . S
C14 H37 0.930 . S
C15 C14 1.376 . S
C15 C16 1.370 . S
C16 C15 1.370 . S
C16 C17 1.396 . S
C16 H38 0.929 . S
C17 C12 1.373 . S
C17 C16 1.396 . S
C17 H39 0.929 . S
C18 O28 1.240 1_455 S
C18 O29 1.289 . S
C19 O30 1.258 . S
C19 O31 1.256 . S
O20 La0 2.521 . S
O20 C2 1.261 . S
O21 La0 2.628 . S
O21 C2 1.243 . S
O22 La0 2.554 . S
O22 C9 1.269 . S
O23 La0 2.757 1_655 S
O23 La1 2.482 . S
O23 C9 1.275 1_655 S
O24 La0 2.470 . S
O24 C10 1.258 . S
O25 La1 2.503 1_455 S
O25 C10 1.256 . S
O26 La1 2.521 . S
O26 C11 1.261 . S
O27 La1 2.628 . S
O27 C11 1.243 . S
O28 La1 2.554 . S
O28 C18 1.240 1_655 S
O29 La0 2.482 . S
O29 La1 2.757 1_455 S
O29 C18 1.289 . S
O30 La1 2.470 . S
O30 C19 1.258 . S
O31 La0 2.503 1_655 S
O31 C19 1.256 . S
H32 C4 0.930 . S
H33 C5 0.930 . S
H34 C7 0.929 . S
H35 C8 0.929 . S
H36 C13 0.930 . S
H37 C14 0.930 . S
H38 C16 0.929 . S
H39 C17 0.929 . S
La40 C42 2.928 1_545 S
La40 O60 2.521 1_545 S
La40 O61 2.628 1_545 S
La40 O62 2.554 . S
La40 O63 2.757 . S
La40 O64 2.470 1_545 S
La40 O69 2.482 . S
La40 O71 2.503 . S
La41 C51 2.928 . S
La41 O63 2.482 . S
La41 O65 2.503 1_545 S
La41 O66 2.521 . S
La41 O67 2.628 . S
La41 O68 2.554 . S
La41 O69 2.757 . S
La41 O70 2.470 . S
C42 La40 2.928 1_565 S
C42 C43 1.503 . S
C42 O60 1.261 . S
C42 O61 1.243 . S
C43 C42 1.503 . S
C43 C44 1.394 . S
C43 C48 1.373 . S
C44 C43 1.394 . S
C44 C45 1.380 . S
C44 H72 0.930 . S
C45 C44 1.380 . S
C45 C46 1.376 . S
C45 H73 0.930 . S
C46 C45 1.376 . S
C46 C47 1.370 . S
C47 C46 1.370 . S
C47 C48 1.396 . S
C47 H74 0.929 . S
C48 C43 1.373 . S
C48 C47 1.396 . S
C48 H75 0.929 . S
C49 O62 1.240 . S
C49 O63 1.289 . S
C50 O64 1.258 . S
C50 O65 1.256 . S
C51 La41 2.928 . S
C51 C52 1.503 . S
C51 O66 1.261 . S
C51 O67 1.243 . S
C52 C51 1.503 . S
C52 C53 1.394 . S
C52 C57 1.373 . S
C53 C52 1.394 . S
C53 C54 1.380 . S
C53 H76 0.930 . S
C54 C53 1.380 . S
C54 C55 1.376 . S
C54 H77 0.930 . S
C55 C54 1.376 . S
C55 C56 1.370 . S
C56 C55 1.370 . S
C56 C57 1.396 . S
C56 H78 0.929 . S
C57 C52 1.373 . S
C57 C56 1.396 . S
C57 H79 0.929 . S
C58 O68 1.240 . S
C58 O69 1.289 . S
C59 O70 1.258 . S
C59 O71 1.256 . S
O60 La40 2.521 1_565 S
O60 C42 1.261 . S
O61 La40 2.628 1_565 S
O61 C42 1.243 . S
O62 La40 2.554 . S
O62 C49 1.240 . S
O63 La40 2.757 . S
O63 La41 2.482 . S
O63 C49 1.289 . S
O64 La40 2.470 1_565 S
O64 C50 1.258 . S
O65 La41 2.503 1_565 S
O65 C50 1.256 . S
O66 La41 2.521 . S
O66 C51 1.261 . S
O67 La41 2.628 . S
O67 C51 1.243 . S
O68 La41 2.554 . S
O68 C58 1.240 . S
O69 La40 2.482 . S
O69 La41 2.757 . S
O69 C58 1.289 . S
O70 La41 2.470 . S
O70 C59 1.258 . S
O71 La40 2.503 . S
O71 C59 1.256 . S
H72 C44 0.930 . S
H73 C45 0.930 . S
H74 C47 0.929 . S
H75 C48 0.929 . S
H76 C53 0.930 . S
H77 C54 0.930 . S
H78 C56 0.929 . S
H79 C57 0.929 . S
La80 C82 2.928 . S
La80 O100 2.521 . S
La80 O101 2.628 . S
La80 O102 2.554 . S
La80 O103 2.757 . S
La80 O104 2.470 . S
La80 O109 2.482 . S
La80 O111 2.503 . S
La81 C91 2.928 . S
La81 O103 2.482 . S
La81 O105 2.503 . S
La81 O106 2.521 . S
La81 O107 2.628 . S
La81 O108 2.554 . S
La81 O109 2.757 . S
La81 O110 2.470 . S
C82 La80 2.928 . S
C82 C83 1.503 . S
C82 O100 1.261 . S
C82 O101 1.243 . S
C83 C82 1.503 . S
C83 C84 1.394 . S
C83 C88 1.373 . S
C84 C83 1.394 . S
C84 C85 1.380 . S
C84 H112 0.930 . S
C85 C84 1.380 . S
C85 C86 1.376 . S
C85 H113 0.930 . S
C86 C85 1.376 . S
C86 C87 1.370 . S
C87 C86 1.370 . S
C87 C88 1.396 . S
C87 H114 0.929 . S
C88 C83 1.373 . S
C88 C87 1.396 . S
C88 H115 0.929 . S
C89 O102 1.240 . S
C89 O103 1.289 . S
C90 O104 1.258 . S
C90 O105 1.256 . S
C91 La81 2.928 . S
C91 C92 1.503 . S
C91 O106 1.261 . S
C91 O107 1.243 . S
C92 C91 1.503 . S
C92 C93 1.394 . S
C92 C97 1.373 . S
C93 C92 1.394 . S
C93 C94 1.380 . S
C93 H116 0.930 . S
C94 C93 1.380 . S
C94 C95 1.376 . S
C94 H117 0.930 . S
C95 C94 1.376 . S
C95 C96 1.370 . S
C96 C95 1.370 . S
C96 C97 1.396 . S
C96 H118 0.929 . S
C97 C92 1.373 . S
C97 C96 1.396 . S
C97 H119 0.929 . S
C98 O108 1.240 . S
C98 O109 1.289 . S
C99 O110 1.258 . S
C99 O111 1.256 . S
O100 La80 2.521 . S
O100 C82 1.261 . S
O101 La80 2.628 . S
O101 C82 1.243 . S
O102 La80 2.554 . S
O102 C89 1.240 . S
O103 La80 2.757 . S
O103 La81 2.482 . S
O103 C89 1.289 . S
O104 La80 2.470 . S
O104 C90 1.258 . S
O105 La81 2.503 . S
O105 C90 1.256 . S
O106 La81 2.521 . S
O106 C91 1.261 . S
O107 La81 2.628 . S
O107 C91 1.243 . S
O108 La81 2.554 . S
O108 C98 1.240 . S
O109 La80 2.482 . S
O109 La81 2.757 . S
O109 C98 1.289 . S
O110 La81 2.470 . S
O110 C99 1.258 . S
O111 La80 2.503 . S
O111 C99 1.256 . S
H112 C84 0.930 . S
H113 C85 0.930 . S
H114 C87 0.929 . S
H115 C88 0.929 . S
H116 C93 0.930 . S
H117 C94 0.930 . S
H118 C96 0.929 . S
H119 C97 0.929 . S
C120 N121 1.317 1_565 S
C120 N122 1.348 . S
C120 C123 1.485 1_565 S
N121 C120 1.317 1_545 S
N121 N125 1.370 . S
N122 C120 1.348 . S
N122 C124 1.346 . S
C123 C120 1.485 1_545 S
C123 H127 0.960 . S
C123 H128 0.961 1_545 S
C123 H129 0.960 . S
C124 N122 1.346 . S
C124 N125 1.307 1_565 S
C124 C126 1.486 . S
N125 N121 1.370 . S
N125 C124 1.307 1_545 S
C126 C124 1.486 . S
C126 H130 0.960 . S
C126 H131 0.960 . S
C126 H132 0.959 . S
H127 C123 0.960 . S
H128 C123 0.961 1_565 S
H129 C123 0.960 . S
H130 C126 0.960 . S
H131 C126 0.960 . S
H132 C126 0.959 . S
C133 N134 1.317 . S
C133 N135 1.348 . S
C133 C136 1.485 . S
N134 C133 1.317 . S
N134 N138 1.370 . S
N135 C133 1.348 . S
N135 C137 1.346 . S
C136 C133 1.485 . S
C136 H140 0.960 . S
C136 H141 0.961 . S
C136 H142 0.960 . S
C137 N135 1.346 . S
C137 N138 1.307 . S
C137 C139 1.486 . S
N138 N134 1.370 . S
N138 C137 1.307 . S
C139 C137 1.486 . S
C139 H143 0.960 . S
C139 H144 0.960 . S
C139 H145 0.959 . S
H140 C136 0.960 . S
H141 C136 0.961 . S
H142 C136 0.960 . S
H143 C139 0.960 . S
H144 C139 0.960 . S
H145 C139 0.959 . S
C146 N147 1.317 . S
C146 N148 1.348 . S
C146 C149 1.485 . S
N147 C146 1.317 . S
N147 N151 1.370 . S
N148 C146 1.348 . S
N148 C150 1.346 . S
C149 C146 1.485 . S
C149 H153 0.960 . S
C149 H154 0.961 . S
C149 H155 0.960 . S
C150 N148 1.346 . S
C150 N151 1.307 . S
C150 C152 1.486 1_455 S
N151 N147 1.370 . S
N151 C150 1.307 . S
C152 C150 1.486 1_655 S
C152 H156 0.960 . S
C152 H157 0.960 . S
C152 H158 0.966 . S
H153 C149 0.960 . S
H154 C149 0.961 . S
H155 C149 0.960 . S
H156 C152 0.960 . S
H157 C152 0.960 . S
H158 C152 0.966 . S
C159 N160 1.317 . S
C159 N161 1.348 . S
C159 C162 1.485 . S
N160 C159 1.317 . S
N160 N164 1.370 . S
N161 C159 1.348 . S
N161 C163 1.346 . S
C162 C159 1.485 . S
C162 H166 0.960 . S
C162 H167 0.961 . S
C162 H168 0.960 . S
C163 N161 1.346 . S
C163 N164 1.307 . S
C163 C165 1.486 . S
N164 N160 1.370 . S
N164 C163 1.307 . S
C165 C163 1.486 . S
C165 H169 0.960 . S
C165 H170 0.960 . S
C165 H171 0.959 . S
H166 C162 0.960 . S
H167 C162 0.961 . S
H168 C162 0.960 . S
H169 C165 0.960 . S
H170 C165 0.960 . S
H171 C165 0.959 . S
C172 N173 1.317 . S
C172 N174 1.348 . S
C172 C175 1.485 . S
N173 C172 1.317 . S
N173 N177 1.370 . S
N174 C172 1.348 . S
N174 C176 1.346 . S
C175 C172 1.485 . S
C175 H179 0.960 . S
C175 H180 0.961 . S
C175 H181 0.960 . S
C176 N174 1.346 . S
C176 N177 1.307 . S
C176 C178 1.486 . S
N177 N173 1.370 . S
N177 C176 1.307 . S
C178 C176 1.486 . S
C178 H182 0.960 . S
C178 H183 0.960 . S
C178 H184 0.959 . S
H179 C175 0.960 . S
H180 C175 0.961 . S
H181 C175 0.960 . S
H182 C178 0.960 . S
H183 C178 0.960 . S
H184 C178 0.959 . S
C185 N186 1.317 . S
C185 N187 1.348 . S
C185 C188 1.485 . S
N186 C185 1.317 . S
N186 N190 1.370 . S
N187 C185 1.348 . S
N187 C189 1.346 . S
C188 C185 1.485 . S
C188 H192 0.960 . S
C188 H193 0.961 . S
C188 H194 0.960 . S
C189 N187 1.346 . S
C189 N190 1.307 . S
C189 C191 1.486 . S
N190 N186 1.370 . S
N190 C189 1.307 . S
C191 C189 1.486 . S
C191 H195 0.960 . S
C191 H196 0.960 . S
C191 H197 0.959 . S
H192 C188 0.960 . S
H193 C188 0.961 . S
H194 C188 0.960 . S
H195 C191 0.960 . S
H196 C191 0.960 . S
H197 C191 0.959 . S
H198 C204 0.930 . S
H199 C208 0.930 . S
H200 C213 0.929 . S
H201 C211 0.929 . S
H202 C206 0.929 . S
H203 C212 0.929 . S
C204 H198 0.930 . S
C204 C205 1.367 . S
C204 C212 1.378 . S
C205 C204 1.367 . S
C205 C213 1.433 . S
C206 H202 0.929 . S
C206 C208 1.378 . S
C206 C210 1.350 . S
C207 C210 1.463 . S
C207 C212 1.350 . S
C207 N215 1.427 . S
C208 H199 0.930 . S
C208 C206 1.378 . S
C208 C209 1.367 . S
C209 C208 1.367 . S
C209 C211 1.433 . S
C210 C206 1.350 . S
C210 C207 1.463 . S
C210 N214 1.427 . S
C211 H201 0.929 . S
C211 C209 1.433 . S
C211 N214 1.384 . S
C212 H203 0.929 . S
C212 C204 1.378 . S
C212 C207 1.350 . S
C213 H200 0.929 . S
C213 C205 1.433 . S
C213 N215 1.384 . S
N214 C210 1.427 . S
N214 C211 1.384 . S
N215 C207 1.427 . S
N215 C213 1.384 . S
H216 C222 0.930 . S
H217 C226 0.930 . S
H218 C231 0.929 . S
H219 C229 0.929 . S
H220 C224 0.929 . S
H221 C230 0.929 . S
C222 H216 0.930 . S
C222 C223 1.367 . S
C222 C230 1.378 . S
C223 C222 1.367 . S
C223 C231 1.433 . S
C224 H220 0.929 . S
C224 C226 1.378 . S
C224 C228 1.350 . S
C225 C228 1.463 . S
C225 C230 1.350 . S
C225 N233 1.427 . S
C226 H217 0.930 . S
C226 C224 1.378 . S
C226 C227 1.367 . S
C227 C226 1.367 . S
C227 C229 1.433 . S
C228 C224 1.350 . S
C228 C225 1.463 . S
C228 N232 1.427 . S
C229 H219 0.929 . S
C229 C227 1.433 . S
C229 N232 1.384 . S
C230 H221 0.929 . S
C230 C222 1.378 . S
C230 C225 1.350 . S
C231 H218 0.929 . S
C231 C223 1.433 . S
C231 N233 1.384 . S
N232 C228 1.427 . S
N232 C229 1.384 . S
N233 C225 1.427 . S
N233 C231 1.384 . S
H234 C240 0.930 . S
H235 C244 0.930 . S
H236 C249 0.929 . S
H237 C247 0.929 . S
H238 C242 0.929 . S
H239 C248 0.929 . S
C240 H234 0.930 . S
C240 C241 1.367 . S
C240 C248 1.378 . S
C241 C240 1.367 . S
C241 C249 1.433 . S
C242 H238 0.929 . S
C242 C244 1.378 . S
C242 C246 1.350 . S
C243 C246 1.463 . S
C243 C248 1.350 . S
C243 N251 1.427 . S
C244 H235 0.930 . S
C244 C242 1.378 . S
C244 C245 1.367 . S
C245 C244 1.367 . S
C245 C247 1.433 1_565 S
C246 C242 1.350 . S
C246 C243 1.463 . S
C246 N250 1.427 . S
C247 H237 0.929 . S
C247 C245 1.433 1_545 S
C247 N250 1.384 1_545 S
C248 H239 0.929 . S
C248 C240 1.378 . S
C248 C243 1.350 . S
C249 H236 0.929 . S
C249 C241 1.433 . S
C249 N251 1.384 . S
N250 C246 1.427 . S
N250 C247 1.384 1_565 S
N251 C243 1.427 . S
N251 C249 1.384 . S
H252 C258 0.930 . S
H253 C262 0.930 . S
H254 C267 0.929 . S
H255 C265 0.929 . S
H256 C260 0.929 . S
H257 C266 0.929 . S
C258 H252 0.930 . S
C258 C259 1.367 . S
C258 C266 1.378 . S
C259 C258 1.367 . S
C259 C267 1.433 . S
C260 H256 0.929 . S
C260 C262 1.378 . S
C260 C264 1.350 . S
C261 C264 1.463 . S
C261 C266 1.350 . S
C261 N269 1.427 . S
C262 H253 0.930 . S
C262 C260 1.378 . S
C262 C263 1.367 . S
C263 C262 1.367 . S
C263 C265 1.433 . S
C264 C260 1.350 . S
C264 C261 1.463 . S
C264 N268 1.427 . S
C265 H255 0.929 . S
C265 C263 1.433 . S
C265 N268 1.384 . S
C266 H257 0.929 . S
C266 C258 1.378 . S
C266 C261 1.350 . S
C267 H254 0.929 . S
C267 C259 1.433 . S
C267 N269 1.384 . S
N268 C264 1.427 . S
N268 C265 1.384 . S
N269 C261 1.427 . S
N269 C267 1.384 . S
H270 C276 0.930 . S
H271 C280 0.930 . S
H272 C285 0.929 . S
H273 C283 0.929 . S
H274 C278 0.929 . S
H275 C284 0.929 . S
C276 H270 0.930 . S
C276 C277 1.367 . S
C276 C284 1.378 . S
C277 C276 1.367 . S
C277 C285 1.433 . S
C278 H274 0.929 . S
C278 C280 1.378 . S
C278 C282 1.350 . S
C279 C282 1.463 . S
C279 C284 1.350 . S
C279 N287 1.427 . S
C280 H271 0.930 . S
C280 C278 1.378 . S
C280 C281 1.367 . S
C281 C280 1.367 . S
C281 C283 1.433 . S
C282 C278 1.350 . S
C282 C279 1.463 . S
C282 N286 1.427 . S
C283 H273 0.929 . S
C283 C281 1.433 . S
C283 N286 1.384 . S
C284 H275 0.929 . S
C284 C276 1.378 . S
C284 C279 1.350 . S
C285 H272 0.929 . S
C285 C277 1.433 . S
C285 N287 1.384 . S
N286 C282 1.427 . S
N286 C283 1.384 . S
N287 C279 1.427 . S
N287 C285 1.384 . S
H288 C294 0.930 . S
H289 C298 0.930 . S
H290 C303 0.929 . S
H291 C301 0.929 . S
H292 C296 0.929 . S
H293 C302 0.929 . S
C294 H288 0.930 . S
C294 C295 1.367 . S
C294 C302 1.378 . S
C295 C294 1.367 . S
C295 C303 1.433 . S
C296 H292 0.929 . S
C296 C298 1.378 . S
C296 C300 1.350 . S
C297 C300 1.463 . S
C297 C302 1.350 . S
C297 N305 1.427 . S
C298 H289 0.930 . S
C298 C296 1.378 . S
C298 C299 1.367 . S
C299 C298 1.367 . S
C299 C301 1.433 . S
C300 C296 1.350 . S
C300 C297 1.463 . S
C300 N304 1.427 . S
C301 H291 0.929 . S
C301 C299 1.433 . S
C301 N304 1.384 . S
C302 H293 0.929 . S
C302 C294 1.378 . S
C302 C297 1.350 . S
C303 H290 0.929 . S
C303 C295 1.433 . S
C303 N305 1.384 . S
N304 C300 1.427 . S
N304 C301 1.384 . S
N305 C297 1.427 . S
N305 C303 1.384 . S
H306 C312 0.930 . S
H307 C316 0.930 . S
H308 C321 0.929 . S
H309 C319 0.929 . S
H310 C314 0.929 . S
H311 C320 0.929 . S
C312 H306 0.930 . S
C312 C313 1.367 . S
C312 C320 1.378 . S
C313 C312 1.367 . S
C313 C321 1.433 . S
C314 H310 0.929 . S
C314 C316 1.378 . S
C314 C318 1.350 . S
C315 C318 1.463 . S
C315 C320 1.350 . S
C315 N323 1.427 . S
C316 H307 0.930 . S
C316 C314 1.378 . S
C316 C317 1.367 . S
C317 C316 1.367 . S
C317 C319 1.433 . S
C318 C314 1.350 . S
C318 C315 1.463 . S
C318 N322 1.427 . S
C319 H309 0.929 . S
C319 C317 1.433 . S
C319 N322 1.384 . S
C320 H311 0.929 . S
C320 C312 1.378 . S
C320 C315 1.350 . S
C321 H308 0.929 . S
C321 C313 1.433 . S
C321 N323 1.384 . S
N322 C318 1.427 . S
N322 C319 1.384 . S
N323 C315 1.427 . S
N323 C321 1.384 . S
H324 C330 0.930 . S
H325 C334 0.930 . S
H326 C339 0.929 . S
H327 C337 0.929 . S
H328 C332 0.929 . S
H329 C338 0.929 . S
C330 H324 0.930 . S
C330 C331 1.367 . S
C330 C338 1.378 . S
C331 C330 1.367 . S
C331 C339 1.433 . S
C332 H328 0.929 . S
C332 C334 1.378 . S
C332 C336 1.350 . S
C333 C336 1.463 . S
C333 C338 1.350 . S
C333 N341 1.427 . S
C334 H325 0.930 . S
C334 C332 1.378 . S
C334 C335 1.367 . S
C335 C334 1.367 . S
C335 C337 1.433 . S
C336 C332 1.350 . S
C336 C333 1.463 . S
C336 N340 1.427 . S
C337 H327 0.929 . S
C337 C335 1.433 . S
C337 N340 1.384 . S
C338 H329 0.929 . S
C338 C330 1.378 . S
C338 C333 1.350 . S
C339 H326 0.929 . S
C339 C331 1.433 . S
C339 N341 1.384 . S
N340 C336 1.427 . S
N340 C337 1.384 . S
N341 C333 1.427 . S
N341 C339 1.384 . S
H342 C348 0.930 . S
H343 C352 0.930 . S
H344 C357 0.929 . S
H345 C355 0.929 . S
H346 C350 0.929 . S
H347 C356 0.929 . S
C348 H342 0.930 . S
C348 C349 1.367 . S
C348 C356 1.378 . S
C349 C348 1.367 . S
C349 C357 1.433 . S
C350 H346 0.929 . S
C350 C352 1.378 . S
C350 C354 1.350 . S
C351 C354 1.463 . S
C351 C356 1.350 . S
C351 N359 1.427 . S
C352 H343 0.930 . S
C352 C350 1.378 . S
C352 C353 1.367 . S
C353 C352 1.367 . S
C353 C355 1.433 . S
C354 C350 1.350 . S
C354 C351 1.463 . S
C354 N358 1.427 . S
C355 H345 0.929 . S
C355 C353 1.433 . S
C355 N358 1.384 . S
C356 H347 0.929 . S
C356 C348 1.378 . S
C356 C351 1.350 . S
C357 H344 0.929 . S
C357 C349 1.433 . S
C357 N359 1.384 . S
N358 C354 1.427 . S
N358 C355 1.384 . S
N359 C351 1.427 . S
N359 C357 1.384 . S
H360 C366 0.930 . S
H361 C370 0.930 . S
H362 C375 0.929 . S
H363 C373 0.929 . S
H364 C368 0.929 . S
H365 C374 0.929 . S
C366 H360 0.930 . S
C366 C367 1.367 . S
C366 C374 1.378 . S
C367 C366 1.367 . S
C367 C375 1.433 . S
C368 H364 0.929 . S
C368 C370 1.378 . S
C368 C372 1.350 . S
C369 C372 1.463 . S
C369 C374 1.350 . S
C369 N377 1.427 . S
C370 H361 0.930 . S
C370 C368 1.378 . S
C370 C371 1.367 . S
C371 C370 1.367 . S
C371 C373 1.433 . S
C372 C368 1.350 . S
C372 C369 1.463 . S
C372 N376 1.427 . S
C373 H363 0.929 . S
C373 C371 1.433 . S
C373 N376 1.384 . S
C374 H365 0.929 . S
C374 C366 1.378 . S
C374 C369 1.350 . S
C375 H362 0.929 . S
C375 C367 1.433 . S
C375 N377 1.384 . S
N376 C372 1.427 . S
N376 C373 1.384 . S
N377 C369 1.427 . S
N377 C375 1.384 . S
H378 C384 0.930 . S
H379 C388 0.930 . S
H380 C393 0.929 . S
H381 C391 0.929 . S
H382 C386 0.929 . S
H383 C392 0.929 . S
C384 H378 0.930 . S
C384 C385 1.367 . S
C384 C392 1.378 . S
C385 C384 1.367 . S
C385 C393 1.433 . S
C386 H382 0.929 . S
C386 C388 1.378 . S
C386 C390 1.350 . S
C387 C390 1.463 . S
C387 C392 1.350 . S
C387 N395 1.427 . S
C388 H379 0.930 . S
C388 C386 1.378 . S
C388 C389 1.367 . S
C389 C388 1.367 . S
C389 C391 1.433 . S
C390 C386 1.350 . S
C390 C387 1.463 . S
C390 N394 1.427 . S
C391 H381 0.929 . S
C391 C389 1.433 . S
C391 N394 1.384 . S
C392 H383 0.929 . S
C392 C384 1.378 . S
C392 C387 1.350 . S
C393 H380 0.929 . S
C393 C385 1.433 . S
C393 N395 1.384 . S
N394 C390 1.427 . S
N394 C391 1.384 . S
N395 C387 1.427 . S
N395 C393 1.384 . S
H396 C402 0.930 . S
H397 C406 0.930 . S
H398 C411 0.929 . S
H399 C409 0.929 . S
H400 C404 0.929 . S
H401 C410 0.929 . S
C402 H396 0.930 . S
C402 C403 1.367 . S
C402 C410 1.378 . S
C403 C402 1.367 . S
C403 C411 1.433 . S
C404 H400 0.929 . S
C404 C406 1.378 . S
C404 C408 1.350 . S
C405 C408 1.463 . S
C405 C410 1.350 . S
C405 N413 1.427 . S
C406 H397 0.930 . S
C406 C404 1.378 . S
C406 C407 1.367 . S
C407 C406 1.367 . S
C407 C409 1.433 . S
C408 C404 1.350 . S
C408 C405 1.463 . S
C408 N412 1.427 . S
C409 H399 0.929 . S
C409 C407 1.433 . S
C409 N412 1.384 . S
C410 H401 0.929 . S
C410 C402 1.378 . S
C410 C405 1.350 . S
C411 H398 0.929 . S
C411 C403 1.433 . S
C411 N413 1.384 . S
N412 C408 1.427 . S
N412 C409 1.384 . S
N413 C405 1.427 . S
N413 C411 1.384 . S
H414 C420 0.930 . S
H415 C424 0.930 . S
H416 C429 0.929 . S
H417 C427 0.929 1_655 S
H418 C422 0.929 . S
H419 C428 0.929 . S
C420 H414 0.930 . S
C420 C421 1.367 1_655 S
C420 C428 1.378 . S
C421 C420 1.367 1_455 S
C421 C429 1.433 . S
C422 H418 0.929 . S
C422 C424 1.378 . S
C422 C426 1.350 . S
C423 C426 1.463 1_554 S
C423 C428 1.350 1_455 S
C423 N431 1.427 . S
C424 H415 0.930 . S
C424 C422 1.378 . S
C424 C425 1.367 . S
C425 C424 1.367 . S
C425 C427 1.433 . S
C426 C422 1.350 . S
C426 C423 1.463 1_556 S
C426 N430 1.427 1_455 S
C427 H417 0.929 1_455 S
C427 C425 1.433 . S
C427 N430 1.384 1_455 S
C428 H419 0.929 . S
C428 C420 1.378 . S
C428 C423 1.350 1_655 S
C429 H416 0.929 . S
C429 C421 1.433 . S
C429 N431 1.384 . S
N430 C426 1.427 1_655 S
N430 C427 1.384 1_655 S
N431 C423 1.427 . S
N431 C429 1.384 . S
H432 C438 0.930 . S
H433 C442 0.930 . S
H434 C447 0.929 . S
H435 C445 0.929 . S
H436 C440 0.929 . S
H437 C446 0.929 . S
C438 H432 0.930 . S
C438 C439 1.367 . S
C438 C446 1.378 . S
C439 C438 1.367 . S
C439 C447 1.433 . S
C440 H436 0.929 . S
C440 C442 1.378 . S
C440 C444 1.350 . S
C441 C444 1.463 . S
C441 C446 1.350 . S
C441 N449 1.427 . S
C442 H433 0.930 . S
C442 C440 1.378 . S
C442 C443 1.367 . S
C443 C442 1.367 . S
C443 C445 1.433 . S
C444 C440 1.350 . S
C444 C441 1.463 . S
C444 N448 1.427 . S
C445 H435 0.929 . S
C445 C443 1.433 . S
C445 N448 1.384 . S
C446 H437 0.929 . S
C446 C438 1.378 . S
C446 C441 1.350 . S
C447 H434 0.929 . S
C447 C439 1.433 . S
C447 N449 1.384 . S
N448 C444 1.427 . S
N448 C445 1.384 . S
N449 C441 1.427 . S
N449 C447 1.384 . S
H450 C456 0.930 . S
H451 C460 0.930 . S
H452 C465 0.929 . S
H453 C463 0.929 . S
H454 C458 0.929 . S
H455 C464 0.929 . S
C456 H450 0.930 . S
C456 C457 1.367 . S
C456 C464 1.378 . S
C457 C456 1.367 . S
C457 C465 1.433 . S
C458 H454 0.929 . S
C458 C460 1.378 . S
C458 C462 1.350 . S
C459 C462 1.463 . S
C459 C464 1.350 . S
C459 N467 1.427 . S
C460 H451 0.930 . S
C460 C458 1.378 . S
C460 C461 1.367 . S
C461 C460 1.367 . S
C461 C463 1.433 . S
C462 C458 1.350 . S
C462 C459 1.463 . S
C462 N466 1.427 . S
C463 H453 0.929 . S
C463 C461 1.433 . S
C463 N466 1.384 . S
C464 H455 0.929 . S
C464 C456 1.378 . S
C464 C459 1.350 . S
C465 H452 0.929 . S
C465 C457 1.433 . S
C465 N467 1.384 . S
N466 C462 1.427 . S
N466 C463 1.384 . S
N467 C459 1.427 . S
N467 C465 1.384 . S
H468 C474 0.930 . S
H469 C478 0.930 . S
H470 C483 0.929 . S
H471 C481 0.929 . S
H472 C476 0.929 . S
H473 C482 0.929 . S
C474 H468 0.930 . S
C474 C475 1.367 . S
C474 C482 1.378 . S
C475 C474 1.367 . S
C475 C483 1.433 1_545 S
C476 H472 0.929 . S
C476 C478 1.378 . S
C476 C480 1.350 1_565 S
C477 C480 1.463 . S
C477 C482 1.350 . S
C477 N485 1.427 1_545 S
C478 H469 0.930 . S
C478 C476 1.378 . S
C478 C479 1.367 1_565 S
C479 C478 1.367 1_545 S
C479 C481 1.433 . S
C480 C476 1.350 1_545 S
C480 C477 1.463 . S
C480 N484 1.427 . S
C481 H471 0.929 . S
C481 C479 1.433 . S
C481 N484 1.384 . S
C482 H473 0.929 . S
C482 C474 1.378 . S
C482 C477 1.350 . S
C483 H470 0.929 . S
C483 C475 1.433 1_565 S
C483 N485 1.384 . S
N484 C480 1.427 . S
N484 C481 1.384 . S
N485 C477 1.427 1_565 S
N485 C483 1.384 . S
H486 C492 0.930 . S
H487 C496 0.930 . S
H488 C501 0.929 . S
H489 C499 0.929 . S
H490 C494 0.929 1_556 S
H491 C500 0.929 . S
C492 H486 0.930 . S
C492 C493 1.367 . S
C492 C500 1.378 . S
C493 C492 1.367 . S
C493 C501 1.433 . S
C494 H490 0.929 1_554 S
C494 C496 1.378 . S
C494 C498 1.350 1_554 S
C495 C498 1.463 . S
C495 C500 1.350 . S
C495 N503 1.427 . S
C496 H487 0.930 . S
C496 C494 1.378 . S
C496 C497 1.367 . S
C497 C496 1.367 . S
C497 C499 1.433 . S
C498 C494 1.350 1_556 S
C498 C495 1.463 . S
C498 N502 1.427 1_556 S
C499 H489 0.929 . S
C499 C497 1.433 . S
C499 N502 1.384 . S
C500 H491 0.929 . S
C500 C492 1.378 . S
C500 C495 1.350 . S
C501 H488 0.929 . S
C501 C493 1.433 . S
C501 N503 1.384 . S
N502 C498 1.427 1_554 S
N502 C499 1.384 . S
N503 C495 1.427 . S
N503 C501 1.384 . S
H504 C510 0.930 . S
H505 C514 0.930 . S
H506 C519 0.929 . S
H507 C517 0.929 . S
H508 C512 0.929 . S
H509 C518 0.929 . S
C510 H504 0.930 . S
C510 C511 1.367 . S
C510 C518 1.378 . S
C511 C510 1.367 . S
C511 C519 1.433 1_655 S
C512 H508 0.929 . S
C512 C514 1.378 . S
C512 C516 1.350 . S
C513 C516 1.463 . S
C513 C518 1.350 1_455 S
C513 N521 1.427 . S
C514 H505 0.930 . S
C514 C512 1.378 . S
C514 C515 1.367 . S
C515 C514 1.367 . S
C515 C517 1.433 1_455 S
C516 C512 1.350 . S
C516 C513 1.463 . S
C516 N520 1.427 1_455 S
C517 H507 0.929 . S
C517 C515 1.433 1_655 S
C517 N520 1.384 . S
C518 H509 0.929 . S
C518 C510 1.378 . S
C518 C513 1.350 1_655 S
C519 H506 0.929 . S
C519 C511 1.433 1_455 S
C519 N521 1.384 . S
N520 C516 1.427 1_655 S
N520 C517 1.384 . S
N521 C513 1.427 . S
N521 C519 1.384 . S
C205 C6 0.364 . S
C209 N187 0.284 . S
C223 C59 1.806 . S
C227 N160 1.808 1_655 S
C241 C86 1.176 . S
C245 N173 1.174 1_565 S
C259 C15 0.706 . S
C263 N186 0.710 . S
C281 N161 1.985 . S
C277 C50 1.961 . S
C299 N174 1.360 . S
C295 C95 1.345 . S
C313 C46 1.079 . S
C317 N134 1.075 . S
C331 C99 2.851 . S
C335 N148 2.815 1_655 S
C349 C10 1.978 . S
C353 N122 2.013 . S
C371 N135 1.412 . S
C367 C55 1.372 . S
C389 N147 3.309 . S
C385 C90 3.253 . S
C403 C19 1.796 . S
C407 N121 1.822 . S
C425 N151 1.747 . S
C421 C18 1.722 . S
C439 C49 1.452 . S
C443 N125 1.475 . S
C457 C98 1.482 . S
C461 N138 1.584 . S
C479 N177 1.543 . S
C475 C58 1.454 . S
C497 N190 1.246 . S
C493 C89 1.241 . S
C511 C9 1.420 1_655 S
C515 N164 1.452 . S
