# Generated by pormake.
# Topology tsx, (6,3)-cn, num edge types: 1
# Building blocks:
#     Node 0, Type 0, BuildingBlock: CIFDUS_clean_sbu_1, # of connection points: 6
#     Node 1, Type 0, BuildingBlock: CIFDUS_clean_sbu_1, # of connection points: 6
#     Node 2, Type 1, BuildingBlock: QEWDON_clean_linker_0, # of connection points: 3
#     Node 3, Type 1, BuildingBlock: QEWDON_clean_linker_0, # of connection points: 3
#     Node 4, Type 1, BuildingBlock: QEWDON_clean_linker_0, # of connection points: 3
#     Node 5, Type 1, BuildingBlock: QEWDON_clean_linker_0, # of connection points: 3
#     Edge 6, Type (0, 1), BuildingBlock: FUNLAD_clean_linker_1, # of connection points: 2
#     Edge 7, Type (0, 1), BuildingBlock: FUNLAD_clean_linker_1, # of connection points: 2
#     Edge 8, Type (0, 1), BuildingBlock: FUNLAD_clean_linker_1, # of connection points: 2
#     Edge 9, Type (0, 1), BuildingBlock: FUNLAD_clean_linker_1, # of connection points: 2
#     Edge 10, Type (0, 1), BuildingBlock: FUNLAD_clean_linker_1, # of connection points: 2
#     Edge 11, Type (0, 1), BuildingBlock: FUNLAD_clean_linker_1, # of connection points: 2
#     Edge 12, Type (0, 1), BuildingBlock: FUNLAD_clean_linker_1, # of connection points: 2
#     Edge 13, Type (0, 1), BuildingBlock: FUNLAD_clean_linker_1, # of connection points: 2
#     Edge 14, Type (0, 1), BuildingBlock: FUNLAD_clean_linker_1, # of connection points: 2
#     Edge 15, Type (0, 1), BuildingBlock: FUNLAD_clean_linker_1, # of connection points: 2
#     Edge 16, Type (0, 1), BuildingBlock: FUNLAD_clean_linker_1, # of connection points: 2
#     Edge 17, Type (0, 1), BuildingBlock: FUNLAD_clean_linker_1, # of connection points: 2
# Relax obj value: 0.104
# Max RMSD: 0.202
# Mean RMSD: 0.147
data_MOF--net-tsx--node1-CIFDUS_clean_sbu_1--node2-QEWDON_clean_linker_0--edge1-FUNLAD_clean_linker_1
_symmetry_space_group_name_H-M    P1
_symmetry_Int_Tables_number       1
_symmetry_cell_setting            triclinic
loop_
_symmetry_equiv_pos_as_xyz
'x, y, z'
_cell_length_a     20.352601
_cell_length_b     25.50905
_cell_length_c     34.01707
_cell_angle_alpha  97.318459
_cell_angle_beta   107.64383
_cell_angle_gamma 91.667891
loop_
_atom_site_label
_atom_site_type_symbol
_atom_site_fract_x
_atom_site_fract_y
_atom_site_fract_z
_atom_type_partial_charge
O0 O 0.0453 0.09359 0.02157 0.0
Mn1 Mn 0.10174 0.02687 0.03399 0.0
O2 O 0.95395 0.06717 0.96436 0.0
Mn3 Mn 0.97698 -0.00179 0.95381 0.0
O4 O 0.15792 0.96011 0.04653 0.0
O5 O 0.18642 0.0748 0.0646 0.0
Mn6 Mn 0.22865 0.05588 0.11335 0.0
O7 O 0.07391 0.02595 0.08875 0.0
O8 O 0.2525 0.98745 0.10148 0.0
O9 O 0.13104 0.02708 0.97952 0.0
O10 O 0.04068 0.98969 0.92549 0.0
O11 O 0.28236 0.11241 0.10783 0.0
O12 O 0.16518 0.06348 0.14232 0.0
C13 C 0.96738 0.94261 0.99435 0.0
C14 C 0.98918 0.1024 0.99386 0.0
C15 C 0.216 0.95187 0.07266 0.0
C16 C 0.2359 0.1109 0.07196 0.0
C17 C 0.10275 0.04424 0.12754 0.0
C18 C 0.10318 0.00827 0.94078 0.0
O19 O 1.01673 0.97918 1.00302 0.0
O20 O 0.92277 0.94127 0.95774 0.0
O21 O 0.53827 0.58729 0.54729 0.0
Mn22 Mn 0.5761 0.51254 0.53712 0.0
O23 O 0.42321 0.57619 0.52855 0.0
Mn24 Mn 0.42101 0.51399 0.49444 0.0
O25 O 0.61815 0.43903 0.52862 0.0
O26 O 0.6692 0.55152 0.55088 0.0
Mn27 Mn 0.73233 0.5214 0.58682 0.0
O28 O 0.59125 0.50579 0.60021 0.0
O29 O 0.73342 0.45468 0.55913 0.0
O30 O 0.559 0.51848 0.47371 0.0
O31 O 0.44333 0.51987 0.44627 0.0
O32 O 0.77722 0.57905 0.5759 0.0
O33 O 0.70471 0.52439 0.63415 0.0
C34 C 0.42955 0.43997 0.51664 0.0
C35 C 0.47918 0.60477 0.54563 0.0
C36 C 0.68049 0.42448 0.53731 0.0
C37 C 0.71672 0.58642 0.55142 0.0
C38 C 0.64303 0.51366 0.63386 0.0
C39 C 0.50398 0.5205 0.44283 0.0
O40 O 0.48183 0.47363 0.52266 0.0
O41 O 0.36991 0.45545 0.49716 0.0
H42 H 0.06592 0.00348 0.41569 0.0
C43 C 0.09496 0.97297 0.43037 0.0
C44 C 0.11726 0.93414 0.40497 0.0
C45 C 0.1107 0.97236 0.47379 0.0
H46 H 0.17689 0.86592 0.40433 0.0
C47 C 0.15777 0.89516 0.42345 0.0
C48 C 0.17724 0.89533 0.46663 0.0
C49 C 0.15108 0.93229 0.49124 0.0
C50 C 0.08952 0.01536 0.50093 0.0
H51 H 0.1624 0.92896 0.52386 0.0
C52 C 0.03205 0.05827 0.47789 0.0
C53 C 1.02054 0.13636 0.53315 0.0
C54 C 0.1305 0.0261 0.55342 0.0
H55 H 0.16829 -0.00081 0.56644 0.0
C56 C 0.12376 0.07701 0.58929 0.0
H57 H 1.00547 0.04897 0.4445 0.0
C58 C 0.0732 0.12876 0.58151 0.0
H59 H 0.07456 0.15774 0.60795 0.0
H60 H 0.1559 0.0763 0.62101 0.0
H61 H 1.02336 0.06895 0.62126 0.0
C62 C 1.01101 0.02807 0.60721 0.0
C63 C 1.0059 0.99072 0.63306 0.0
C64 C 1.00245 0.01267 0.56447 0.0
H65 H 0.97147 0.91027 0.63409 0.0
C66 C 0.98032 0.93878 0.61485 0.0
C67 C 0.95996 0.92475 0.57138 0.0
C68 C 0.97347 0.96115 0.54644 0.0
C69 C 1.01261 0.05216 0.53633 0.0
H70 H 0.96049 0.94973 0.51303 0.0
C71 C 0.11481 0.10726 0.52446 0.0
C72 C 0.08449 0.14491 0.48599 0.0
C73 C 0.93545 0.06549 0.50202 0.0
H74 H 0.88777 0.04623 0.50262 0.0
C75 C 0.9318 0.10808 0.46693 0.0
H76 H 0.1709 0.1097 0.53929 0.0
C77 C 0.99888 0.14361 0.45978 0.0
H78 H 0.98466 0.169 0.43582 0.0
H79 H 0.88082 0.11347 0.44668 0.0
H80 H 0.55825 0.50664 0.93927 0.0
C81 C 0.60515 0.48774 0.95219 0.0
C82 C 0.63231 0.45712 0.92431 0.0
C83 C 0.63935 0.49545 0.99553 0.0
H84 H 0.71013 0.40369 0.91903 0.0
C85 C 0.69003 0.42846 0.9403 0.0
C86 C 0.7223 0.43227 0.98356 0.0
C87 C 0.69834 0.46736 1.01061 0.0
C88 C 0.61709 0.53572 0.02418 0.0
H89 H 0.72704 0.47269 0.04338 0.0
C90 C 0.56808 0.5846 1.00361 0.0
C91 C 0.54959 0.654 0.06276 0.0
C92 C 0.64718 0.53621 0.07671 0.0
H93 H 0.67679 0.50382 0.08802 0.0
C94 C 0.63693 0.58158 0.11522 0.0
H95 H 0.55115 0.58308 0.96979 0.0
C96 C 0.59159 0.63642 0.11042 0.0
H97 H 0.58925 0.66076 0.13837 0.0
H98 H 0.66185 0.5742 0.14675 0.0
H99 H 0.53171 0.56922 0.13811 0.0
C100 C 0.51433 0.53163 0.1186 0.0
C101 C 0.4951 0.49078 0.13739 0.0
C102 C 0.51066 0.52439 0.07611 0.0
H103 H 0.44038 0.41448 0.1261 0.0
C104 C 0.45943 0.44474 0.11201 0.0
C105 C 0.44524 0.43936 0.06831 0.0
C106 C 0.47324 0.47842 0.05096 0.0
C107 C 0.53278 0.56853 0.0552 0.0
H108 H 0.46356 0.474 1.01752 0.0
C109 C 0.64616 0.62414 0.05848 0.0
C110 C 0.62748 0.66994 0.02513 0.0
C111 C 0.46318 0.5897 1.01919 0.0
H112 H 0.41209 0.57124 1.01377 0.0
C113 C 0.47203 0.63874 0.99148 0.0
H114 H 0.70037 0.62245 0.07665 0.0
C115 C 0.54568 0.67474 0.99434 0.0
H116 H 0.53894 0.70487 0.97405 0.0
H117 H 0.42539 0.64806 0.96882 0.0
H118 H 0.29911 0.15703 0.04634 0.0
C119 C 0.24541 0.146 0.04294 0.0
H120 H 0.14353 0.16889 0.02329 0.0
H121 H 0.29501 0.39828 0.08414 0.0
H122 H 0.20393 0.4005 0.11687 0.0
H123 H 0.11906 0.32392 0.10305 0.0
H124 H 0.1249 0.24496 0.05658 0.0
C125 C 0.19639 0.17616 0.02346 0.0
C126 C 0.2203 0.22837 1.01517 0.0
C127 C 0.21436 0.27481 0.04116 0.0
C128 C 0.26356 0.3187 0.04939 0.0
C129 C 0.25901 0.36378 0.07711 0.0
C130 C 0.207 0.36557 0.09598 0.0
C131 C 0.15923 0.32247 0.0882 0.0
C132 C 0.1631 0.27733 0.06147 0.0
H133 H 0.36224 0.40598 1.01034 0.0
C134 C 0.39452 0.39697 0.04024 0.0
H135 H 0.415 0.34005 0.08152 0.0
H136 H 0.22825 0.15374 0.95272 0.0
H137 H 0.3131 0.15458 0.91495 0.0
H138 H 0.40107 0.22957 0.93074 0.0
H139 H 0.40438 0.30444 0.9839 0.0
C140 C 0.38229 0.35054 0.05235 0.0
C141 C 0.31804 0.31582 0.03152 0.0
C142 C 0.31636 0.27343 1.00004 0.0
C143 C 0.26639 0.22995 0.99132 0.0
C144 C 0.26606 0.18726 0.96044 0.0
C145 C 0.31413 0.18746 0.93869 0.0
C146 C 0.36368 0.22973 0.94759 0.0
C147 C 0.36525 0.27228 0.9781 0.0
H148 H 0.20665 0.86456 0.05536 0.0
C149 C 0.24284 0.89888 0.06948 0.0
H150 H 0.34667 0.92817 0.09727 0.0
H151 H 0.50135 0.73872 0.1641 0.0
H152 H 0.51491 0.79928 0.22761 0.0
H153 H 0.44786 0.87841 0.22662 0.0
H154 H 0.36787 0.89803 0.16214 0.0
C155 C 0.31134 0.89326 0.08342 0.0
C156 C 0.34257 0.84109 0.08427 0.0
C157 C 0.38745 0.82924 0.12265 0.0
C158 C 0.42479 0.78288 0.12354 0.0
C159 C 0.47131 0.77315 0.16185 0.0
C160 C 0.47948 0.80751 0.19853 0.0
C161 C 0.4418 0.8521 0.19795 0.0
C162 C 0.39629 0.86304 0.16061 0.0
H163 H 0.51211 0.73486 0.04899 0.0
C164 C 0.50725 0.70166 0.06526 0.0
H165 H 0.45501 0.67022 0.10305 0.0
H166 H 0.26778 0.85294 1.00364 0.0
H167 H 0.24205 0.7857 0.94304 0.0
H168 H 0.289 0.69779 0.94855 0.0
H169 H 0.36464 0.67823 1.01486 0.0
C170 C 0.46056 0.70257 0.0861 0.0
C171 C 0.41529 0.74744 0.08644 0.0
C172 C 0.36477 0.75625 0.04923 0.0
C173 C 0.33173 0.8046 0.04731 0.0
C174 C 0.28969 0.81528 1.00798 0.0
C175 C 0.27513 0.77717 0.97271 0.0
C176 C 0.30201 0.72789 0.9757 0.0
C177 C 0.34631 0.71741 1.01352 0.0
H178 H 0.98395 0.9169 0.05665 0.0
C179 C 0.95697 0.90747 0.02348 0.0
H180 H 0.88229 0.85787 0.97521 0.0
H181 H 0.84721 0.66719 0.06375 0.0
H182 H 0.95804 0.64315 0.05631 0.0
H183 H 0.03414 0.70785 0.03928 0.0
H184 H 0.99975 0.79728 0.02966 0.0
C185 C 0.90835 0.86695 1.00855 0.0
C186 C 0.87942 0.83691 0.03466 0.0
C187 C 0.90094 0.78572 0.04134 0.0
C188 C 0.85716 0.74862 0.0513 0.0
C189 C 0.87871 0.69699 0.05633 0.0
C190 C 0.94212 0.68272 0.05213 0.0
C191 C 0.98496 0.71914 0.0425 0.0
C192 C 0.96468 0.7701 0.03692 0.0
H193 H 0.67175 0.72969 0.99724 0.0
C194 C 0.68188 0.70877 0.02414 0.0
H195 H 0.75142 0.70301 0.084 0.0
H196 H 0.83014 0.93533 0.03206 0.0
H197 H 0.72385 0.96185 0.04491 0.0
H198 H 0.64895 0.89811 0.06377 0.0
H199 H 0.67953 0.80735 0.06947 0.0
C200 C 0.74036 0.72189 0.05614 0.0
C201 C 0.79198 0.76312 0.05428 0.0
C202 C 0.77465 0.8164 0.05287 0.0
C203 C 0.81835 0.85331 0.04276 0.0
C204 C 0.79862 0.90575 0.03969 0.0
C205 C 0.73799 0.9215 0.04716 0.0
C206 C 0.69578 0.8856 0.05774 0.0
C207 C 0.71368 0.8336 0.06066 0.0
H208 H 0.9207 0.1619 0.96699 0.0
C209 C 0.96253 0.15541 0.99435 0.0
H210 H 1.02251 0.18894 0.05538 0.0
H211 H 0.87942 0.38072 0.94523 0.0
H212 H 0.97307 0.36987 0.91497 0.0
H213 H 0.05607 0.30175 0.93443 0.0
H214 H 0.04573 0.24396 0.98413 0.0
C215 C 0.98376 0.19469 0.02655 0.0
C216 C 0.94746 0.2446 0.02378 0.0
C217 C 0.95453 0.27833 0.99508 0.0
C218 C 0.90664 0.31744 0.98383 0.0
C219 C 0.91422 0.3501 0.95459 0.0
C220 C 0.96779 0.34438 0.93712 0.0
C221 C 1.01453 0.30604 0.94807 0.0
C222 C 1.00804 0.27312 0.97657 0.0
H223 H 0.8167 0.41571 0.03273 0.0
C224 C 0.78248 0.40133 1.00154 0.0
H225 H 0.75922 0.33796 0.95168 0.0
H226 H 0.92818 0.19314 0.08544 0.0
H227 H 0.83746 0.20594 0.11786 0.0
H228 H 0.75199 0.27192 0.09701 0.0
H229 H 0.7568 0.32567 0.04395 0.0
C230 C 0.7933 0.35448 0.98228 0.0
C231 C 0.85174 0.32264 1.00125 0.0
C232 C 0.8485 0.29215 0.03282 0.0
C233 C 0.89715 0.25352 0.04446 0.0
C234 C 0.89215 0.22274 0.07536 0.0
C235 C 0.84046 0.22975 0.09421 0.0
C236 C 0.79238 0.26694 0.08249 0.0
C237 C 0.79587 0.2977 0.05204 0.0
H238 H 0.65365 0.64104 0.51112 0.0
C239 C 0.70558 0.63253 0.52843 0.0
H240 H 0.81237 0.65427 0.54749 0.0
H241 H 0.89391 0.81484 0.45817 0.0
H242 H 0.91408 0.73637 0.41554 0.0
H243 H 0.8622 0.64829 0.4173 0.0
H244 H 0.78993 0.63807 0.46186 0.0
C245 C 0.76082 0.665 0.53137 0.0
C246 C 0.75959 0.71609 0.51454 0.0
C247 C 0.79907 0.7219 0.48728 0.0
C248 C 0.82861 0.77258 0.48606 0.0
C249 C 0.87052 0.77696 0.46009 0.0
C250 C 0.88225 0.73238 0.43551 0.0
C251 C 0.85305 0.68276 0.43651 0.0
C252 C 0.8121 0.67732 0.46221 0.0
H253 H 0.93507 0.84004 0.57131 0.0
C254 C 0.92167 0.87267 0.5533 0.0
H255 H 0.84537 0.89959 0.50374 0.0
H256 H 0.67201 0.72091 0.56221 0.0
H257 H 0.64359 0.80014 0.5993 0.0
H258 H 0.69348 0.88828 0.59614 0.0
H259 H 0.77245 0.89747 0.55574 0.0
C260 C 0.86363 0.86667 0.5205 0.0
C261 C 0.8177 0.81732 0.51175 0.0
C262 C 0.76944 0.81279 0.53387 0.0
C263 C 0.74035 0.76196 0.53543 0.0
C264 C 0.69545 0.75833 0.55976 0.0
C265 C 0.67859 0.80362 0.58117 0.0
C266 C 0.70666 0.85326 0.57938 0.0
C267 C 0.75189 0.85801 0.55621 0.0
H268 H 0.66424 0.33759 0.5324 0.0
C269 C 0.69394 0.36922 0.52542 0.0
H270 H 0.78084 0.39276 0.50936 0.0
H271 H 0.99935 0.25536 0.60578 0.0
H272 H 0.03875 0.34343 0.64357 0.0
H273 H 0.96542 0.41839 0.62931 0.0
H274 H 0.85281 0.40583 0.5773 0.0
C275 C 0.75264 0.35989 0.51606 0.0
C276 C 0.79226 0.31289 0.52702 0.0
C277 C 0.85812 0.32101 0.55808 0.0
C278 C 0.90049 0.27796 0.56644 0.0
C279 C 0.96571 0.28699 0.59766 0.0
C280 C 0.98879 0.33726 0.61982 0.0
C281 C 0.94751 0.37943 0.61179 0.0
C282 C 0.88291 0.37164 0.58153 0.0
H283 H 0.98821 0.21731 0.51883 0.0
C284 C 0.97769 0.18366 0.53322 0.0
H285 H 0.91217 0.14907 0.56195 0.0
H286 H 0.66926 0.28336 0.46569 0.0
H287 H 0.62796 0.19414 0.43093 0.0
H288 H 0.6992 0.1187 0.44836 0.0
H289 H 0.81248 0.13218 0.50035 0.0
C290 C 0.92449 0.18333 0.54882 0.0
C291 C 0.87698 0.22686 0.54401 0.0
C292 C 0.80946 0.21793 0.5151 0.0
C293 C 0.76748 0.26122 0.50593 0.0
C294 C 0.70229 0.25173 0.47484 0.0
C295 C 0.67814 0.20073 0.45445 0.0
C296 C 0.71831 0.15827 0.4642 0.0
C297 C 0.78333 0.16656 0.49402 0.0
H298 H 0.43068 0.37979 0.55657 0.0
C299 C 0.43377 0.38538 0.52603 0.0
H300 H 0.40907 0.35373 0.46308 0.0
H301 H 0.29264 0.15923 0.54578 0.0
H302 H 0.4127 0.14507 0.5792 0.0
H303 H 0.50632 0.20519 0.57448 0.0
H304 H 0.48017 0.2796 0.53564 0.0
C305 C 0.40741 0.34663 0.49363 0.0
C306 C 0.35194 0.30757 0.49435 0.0
C307 C 0.36779 0.26498 0.51767 0.0
C308 C 0.31354 0.23087 0.52085 0.0
C309 C 0.33133 0.1873 0.54308 0.0
C310 C 0.40019 0.17849 0.56227 0.0
C311 C 0.45292 0.21232 0.5596 0.0
C312 C 0.43722 0.255 0.53743 0.0
H313 H 0.12752 0.18625 0.4449 0.0
C314 C 0.13456 0.18068 0.477 0.0
H315 H 0.19202 0.20173 0.54029 0.0
H316 H 0.30241 0.37968 0.44056 0.0
H317 H 0.18328 0.39859 0.41167 0.0
H318 H 0.09008 0.34887 0.42668 0.0
H319 H 0.11567 0.27885 0.46937 0.0
C320 C 0.18738 0.20673 0.50833 0.0
C321 C 0.24325 0.24065 0.50194 0.0
C322 C 0.22749 0.28406 0.47922 0.0
C323 C 0.28177 0.31558 0.47347 0.0
C324 C 0.26407 0.35606 0.44792 0.0
C325 C 0.19558 0.36725 0.43083 0.0
C326 C 0.14312 0.33908 0.43906 0.0
C327 C 0.15858 0.29823 0.46315 0.0
H328 H 0.52124 0.68804 0.56987 0.0
C329 C 0.47444 0.6617 0.55868 0.0
H330 H 0.36546 0.6551 0.54121 0.0
H331 H 0.25704 0.85885 0.5935 0.0
H332 H 0.25345 0.81324 0.65147 0.0
H333 H 0.31828 0.73386 0.66583 0.0
H334 H 0.38701 0.6995 0.62209 0.0
C335 C 0.41206 0.68163 0.55136 0.0
C336 C 0.40007 0.73886 0.55386 0.0
C337 C 0.36265 0.7597 0.58054 0.0
C338 C 0.32596 0.80567 0.57254 0.0
C339 C 0.28619 0.82417 0.59844 0.0
C340 C 0.28377 0.7984 0.63178 0.0
C341 C 0.32022 0.75366 0.63984 0.0
C342 C 0.35911 0.73424 0.61451 0.0
H343 H 0.22742 0.81978 0.46615 0.0
C344 C 0.22684 0.85726 0.48528 0.0
H345 H 0.2779 0.90682 0.54218 0.0
H346 H 0.47711 0.71512 0.50046 0.0
H347 H 0.49028 0.76639 0.44801 0.0
H348 H 0.43177 0.84916 0.43723 0.0
H349 H 0.3585 0.88038 0.47876 0.0
C350 C 0.27554 0.86919 0.52269 0.0
C351 C 0.32738 0.83064 0.538 0.0
C352 C 0.37329 0.81469 0.51538 0.0
C353 C 0.4089 0.76805 0.52273 0.0
C354 C 0.45001 0.75078 0.49726 0.0
C355 C 0.45804 0.77994 0.46685 0.0
C356 C 0.42501 0.82647 0.46071 0.0
C357 C 0.38289 0.84377 0.48454 0.0
H358 H 0.07471 0.07065 0.18357 0.0
C359 C 0.06716 0.03784 0.15848 0.0
H360 H 0.04977 0.95514 0.14222 0.0
H361 H 0.20788 0.945 0.3334 0.0
H362 H 0.29303 0.91623 0.30047 0.0
H363 H 0.27067 0.91503 0.22493 0.0
H364 H 0.16321 0.94333 0.18207 0.0
C365 C 0.05003 0.98921 0.16503 0.0
C366 C 0.05606 0.97997 0.20838 0.0
C367 C 0.11771 0.96054 0.2327 0.0
C368 C 0.12965 0.95957 0.27607 0.0
C369 C 0.19427 0.94421 0.30007 0.0
C370 C 0.24417 0.92809 0.28161 0.0
C371 C 0.23167 0.92754 0.23912 0.0
C372 C 0.16956 0.94385 0.21486 0.0
H373 H 0.09952 0.8957 0.34004 0.0
C374 C 0.10023 0.93348 0.35909 0.0
H375 H 0.09328 0.01609 0.3586 0.0
H376 H 0.93089 0.0153 0.16992 0.0
H377 H 0.84351 0.04239 0.20224 0.0
H378 H 0.86232 0.03858 0.27695 0.0
H379 H 0.96848 0.00786 0.31988 0.0
C380 C 0.09139 0.97752 0.34053 0.0
C381 C 0.07839 0.97577 0.29471 0.0
C382 C 1.01574 -0.00658 0.26994 0.0
C383 C 1.0047 -0.00439 0.2268 0.0
C384 C 0.9419 0.01347 0.20288 0.0
C385 C 0.89132 0.02888 0.221 0.0
C386 C 0.90191 0.02672 0.26307 0.0
C387 C 0.96319 0.00914 0.28739 0.0
H388 H 0.15466 0.97206 0.8981 0.0
C389 C 0.14137 0.01021 0.91065 0.0
H390 H 0.11035 0.08528 0.89767 0.0
H391 H 0.18106 0.97045 0.72646 0.0
H392 H 0.30142 0.97682 0.76906 0.0
H393 H 0.33548 0.01008 0.8443 0.0
H394 H 0.24922 0.03715 0.87748 0.0
C395 C 0.12821 0.04842 0.88612 0.0
C396 C 0.10984 0.03383 0.83997 0.0
C397 C 0.16069 0.01849 0.82097 0.0
C398 C 0.14096 -0.00038 0.77747 0.0
C399 C 0.19301 0.98477 0.75936 0.0
C400 C 0.26232 0.98836 0.78344 0.0
C401 C 0.2815 0.00705 0.82582 0.0
C402 C 0.23152 0.02216 0.84452 0.0
H403 H 1.02065 0.04976 0.68929 0.0
C404 C 1.02461 0.00823 0.67869 0.0
H405 H 0.05989 0.9357 0.69799 0.0
H406 H 0.99826 0.06155 0.86594 0.0
H407 H 0.87854 0.05422 0.82367 0.0
H408 H 0.84426 0.0189 0.74885 0.0
H409 H 0.92988 -0.00893 0.71596 0.0
C410 C 0.04996 0.97623 0.70743 0.0
C411 C 0.07039 -0.00354 0.75293 0.0
C412 C 1.01947 0.01209 0.7719 0.0
C413 C 0.03926 0.03149 0.81527 0.0
C414 C 0.98694 0.0466 0.83324 0.0
C415 C 0.91761 0.04247 0.80932 0.0
C416 C 0.89833 0.02268 0.76721 0.0
C417 C 0.94828 0.0073 0.74863 0.0
H418 H 0.6781 0.52171 0.70212 0.0
C419 C 0.63368 0.50918 0.67472 0.0
H420 H 0.53282 0.47141 0.65319 0.0
H421 H 0.61299 0.35652 0.81654 0.0
H422 H 0.59478 0.28201 0.76131 0.0
H423 H 0.56803 0.29631 0.68787 0.0
H424 H 0.55921 0.38512 0.66913 0.0
C425 C 0.5767 0.48713 0.67996 0.0
C426 C 0.57763 0.47783 0.72263 0.0
C427 C 0.58105 0.42564 0.73293 0.0
C428 C 0.59692 0.41739 0.77534 0.0
C429 C 0.60162 0.36494 0.78486 0.0
C430 C 0.59113 0.32187 0.75348 0.0
C431 C 0.57604 0.32993 0.71212 0.0
C432 C 0.57118 0.38111 0.70179 0.0
H433 H 0.54774 0.46866 0.86744 0.0
C434 C 0.6009 0.45805 0.87868 0.0
H435 H 0.69187 0.4444 0.8621 0.0
H436 H 0.55992 0.58141 0.71247 0.0
H437 H 0.57612 0.65605 0.76739 0.0
H438 H 0.60889 0.64247 0.8412 0.0
H439 H 0.62473 0.55446 0.86056 0.0
C440 C 0.63793 0.45302 0.85179 0.0
C441 C 0.60886 0.46125 0.80735 0.0
C442 C 0.60047 0.51323 0.79673 0.0
C443 C 0.58378 0.52135 0.75426 0.0
C444 C 0.57455 0.57342 0.74436 0.0
C445 C 0.58332 0.61648 0.77553 0.0
C446 C 0.6016 0.60881 0.81707 0.0
C447 C 0.61033 0.55794 0.82775 0.0
H448 H 0.4591 0.52809 0.37698 0.0
C449 C 0.50727 0.52175 0.40026 0.0
H450 H 0.61001 0.50103 0.40946 0.0
H451 H 0.52351 0.38262 0.22241 0.0
H452 H 0.5659 0.31198 0.26279 0.0
H453 H 0.60241 0.32791 0.33963 0.0
H454 H 0.5976 0.41473 0.37661 0.0
C455 C 0.56227 0.51058 0.38755 0.0
C456 C 0.55351 0.50357 0.34186 0.0
C457 C 0.55678 0.45258 0.32067 0.0
C458 C 0.53457 0.44316 0.27627 0.0
C459 C 0.53877 0.39187 0.25601 0.0
C460 C 0.56312 0.35094 0.27881 0.0
C461 C 0.58372 0.35992 0.32208 0.0
C462 C 0.58059 0.41 0.34293 0.0
H463 H 0.55789 0.52771 0.20039 0.0
C464 C 0.51527 0.4985 0.18376 0.0
H465 H 0.44103 0.44423 0.19152 0.0
H466 H 0.55593 0.6081 0.3725 0.0
H467 H 0.51111 0.67889 0.3326 0.0
H468 H 0.46048 0.66085 0.25609 0.0
H469 H 0.45599 0.57264 0.21902 0.0
C470 C 0.48367 0.47379 0.20644 0.0
C471 C 0.50851 0.4846 0.25303 0.0
C472 C 0.50708 0.53607 0.27432 0.0
C473 C 0.53212 0.54587 0.31864 0.0
C474 C 0.53437 0.59819 0.33901 0.0
C475 C 0.50929 0.63918 0.31649 0.0
C476 C 0.4811 0.62907 0.27341 0.0
C477 C 0.47956 0.57821 0.25245 0.0
loop_
_geom_bond_atom_site_label_1
_geom_bond_atom_site_label_2
_geom_bond_distance
_geom_bond_site_symmetry_2
_ccdc_geom_bond_type
O0 Mn1 2.163 . S
O0 C14 1.244 1_454 S
Mn1 O0 2.163 . S
Mn1 O4 2.160 1_545 S
Mn1 O5 2.221 . S
Mn1 O7 2.163 1_545 S
Mn1 O9 2.160 1_554 S
Mn1 O19 2.221 1_444 S
O2 Mn3 2.087 1_545 S
O2 C14 1.256 . S
Mn3 O2 2.087 1_565 S
Mn3 O10 2.089 1_565 S
Mn3 O19 2.290 . S
Mn3 O20 2.251 . S
O4 Mn1 2.160 1_565 S
O4 C15 1.239 . S
O5 Mn1 2.221 . S
O5 Mn6 2.290 . S
O5 C16 1.278 . S
Mn6 O5 2.290 . S
Mn6 O8 2.089 1_545 S
Mn6 O11 2.251 . S
Mn6 O12 2.087 . S
O7 Mn1 2.163 1_565 S
O7 C17 1.244 1_565 S
O8 Mn6 2.089 1_565 S
O8 C15 1.256 . S
O9 Mn1 2.160 1_556 S
O9 C18 1.239 . S
O10 Mn3 2.089 1_545 S
O10 C18 1.256 1_655 S
O11 Mn6 2.251 . S
O11 C16 1.241 . S
O12 Mn6 2.087 . S
O12 C17 1.256 . S
C13 O19 1.278 . S
C13 O20 1.241 . S
C14 O0 1.244 1_656 S
C14 O2 1.256 . S
C15 O4 1.239 . S
C15 O8 1.256 . S
C16 O5 1.278 . S
C16 O11 1.241 . S
C17 O7 1.244 1_545 S
C17 O12 1.256 . S
C18 O9 1.239 . S
C18 O10 1.256 1_455 S
O19 Mn1 2.221 1_666 S
O19 Mn3 2.290 . S
O19 C13 1.278 . S
O20 Mn3 2.251 . S
O20 C13 1.241 . S
O21 Mn22 2.163 . S
O21 C35 1.244 . S
Mn22 O21 2.163 . S
Mn22 O25 2.160 . S
Mn22 O26 2.221 . S
Mn22 O28 2.163 . S
Mn22 O30 2.160 . S
Mn22 O40 2.221 . S
O23 Mn24 2.087 . S
O23 C35 1.256 . S
Mn24 O23 2.087 . S
Mn24 O31 2.089 . S
Mn24 O40 2.290 . S
Mn24 O41 2.251 . S
O25 Mn22 2.160 . S
O25 C36 1.239 . S
O26 Mn22 2.221 . S
O26 Mn27 2.290 . S
O26 C37 1.278 . S
Mn27 O26 2.290 . S
Mn27 O29 2.089 . S
Mn27 O32 2.251 . S
Mn27 O33 2.087 . S
O28 Mn22 2.163 . S
O28 C38 1.244 . S
O29 Mn27 2.089 . S
O29 C36 1.256 . S
O30 Mn22 2.160 . S
O30 C39 1.239 . S
O31 Mn24 2.089 . S
O31 C39 1.256 . S
O32 Mn27 2.251 . S
O32 C37 1.241 . S
O33 Mn27 2.087 . S
O33 C38 1.256 . S
C34 O40 1.278 . S
C34 O41 1.241 . S
C35 O21 1.244 . S
C35 O23 1.256 . S
C36 O25 1.239 . S
C36 O29 1.256 . S
C37 O26 1.278 . S
C37 O32 1.241 . S
C38 O28 1.244 . S
C38 O33 1.256 . S
C39 O30 1.239 . S
C39 O31 1.256 . S
O40 Mn22 2.221 . S
O40 Mn24 2.290 . S
O40 C34 1.278 . S
O41 Mn24 2.251 . S
O41 C34 1.241 . S
H42 C43 0.949 . S
C43 H42 0.949 . S
C43 C44 1.395 1_545 S
C43 C45 1.391 . S
C44 C43 1.395 1_565 S
C44 C47 1.390 . S
C45 C43 1.391 . S
C45 C49 1.387 1_545 S
C45 C50 1.491 . S
H46 C47 0.950 . S
C47 C44 1.390 . S
C47 H46 0.950 . S
C47 C48 1.378 . S
C48 C47 1.378 . S
C48 C49 1.409 . S
C49 C45 1.387 1_565 S
C49 C48 1.409 . S
C49 H51 0.951 . S
C50 C45 1.491 . S
C50 C52 1.382 . S
C50 C54 1.404 . S
H51 C49 0.951 . S
C52 C50 1.382 . S
C52 C53 1.390 1_455 S
C52 H57 0.949 1_455 S
C53 C52 1.390 1_655 S
C53 C58 1.399 1_655 S
C54 C50 1.404 . S
C54 H55 0.950 . S
C54 C56 1.375 . S
H55 C54 0.950 . S
C56 C54 1.375 . S
C56 C58 1.382 . S
C56 H60 0.950 . S
H57 C52 0.949 1_655 S
C58 C53 1.399 1_455 S
C58 C56 1.382 . S
C58 H59 0.952 . S
H59 C58 0.952 . S
H60 C56 0.950 . S
H61 C62 0.951 . S
C62 H61 0.951 . S
C62 C63 1.393 1_455 S
C62 C64 1.391 1_455 S
C63 C62 1.393 1_655 S
C63 C66 1.390 1_545 S
C64 C62 1.391 1_655 S
C64 C68 1.387 . S
C64 C69 1.491 1_655 S
H65 C66 0.950 . S
C66 C63 1.390 1_565 S
C66 H65 0.950 . S
C66 C67 1.378 . S
C67 C66 1.378 . S
C67 C68 1.409 1_565 S
C68 C64 1.387 . S
C68 C67 1.409 1_545 S
C68 H70 0.951 . S
C69 C64 1.491 1_455 S
C69 C71 1.382 . S
C69 C73 1.404 1_455 S
H70 C68 0.951 . S
C71 C69 1.382 . S
C71 C72 1.390 . S
C71 H76 0.949 . S
C72 C71 1.390 . S
C72 C77 1.399 . S
C73 C69 1.404 1_655 S
C73 H74 0.950 . S
C73 C75 1.375 . S
H74 C73 0.950 . S
C75 C73 1.375 . S
C75 C77 1.382 1_655 S
C75 H79 0.950 . S
H76 C71 0.949 . S
C77 C72 1.399 . S
C77 C75 1.382 1_455 S
C77 H78 0.952 . S
H78 C77 0.952 . S
H79 C75 0.950 . S
H80 C81 0.949 . S
C81 H80 0.949 . S
C81 C82 1.395 . S
C81 C83 1.391 . S
C82 C81 1.395 . S
C82 C85 1.390 . S
C83 C81 1.391 . S
C83 C87 1.387 . S
C83 C88 1.481 1_556 S
H84 C85 0.950 . S
C85 C82 1.390 . S
C85 H84 0.950 . S
C85 C86 1.378 . S
C86 C85 1.378 . S
C86 C87 1.409 . S
C87 C83 1.387 . S
C87 C86 1.409 . S
C87 H89 0.951 1_556 S
C88 C83 1.481 1_554 S
C88 C90 1.380 1_554 S
C88 C92 1.415 . S
H89 C87 0.951 1_554 S
C90 C88 1.380 1_556 S
C90 C91 1.390 1_556 S
C90 H95 0.949 . S
C91 C90 1.390 1_554 S
C91 C96 1.399 . S
C92 C88 1.415 . S
C92 H93 0.950 . S
C92 C94 1.375 . S
H93 C92 0.950 . S
C94 C92 1.375 . S
C94 C96 1.382 . S
C94 H98 0.950 . S
H95 C90 0.949 . S
C96 C91 1.399 . S
C96 C94 1.382 . S
C96 H97 0.952 . S
H97 C96 0.952 . S
H98 C94 0.950 . S
H99 C100 0.949 . S
C100 H99 0.949 . S
C100 C101 1.395 . S
C100 C102 1.391 . S
C101 C100 1.395 . S
C101 C104 1.390 . S
C102 C100 1.391 . S
C102 C106 1.387 . S
C102 C107 1.491 . S
H103 C104 0.950 . S
C104 C101 1.390 . S
C104 H103 0.950 . S
C104 C105 1.378 . S
C105 C104 1.378 . S
C105 C106 1.409 . S
C106 C102 1.387 . S
C106 C105 1.409 . S
C106 H108 0.951 . S
C107 C102 1.491 . S
C107 C109 1.382 . S
C107 C111 1.404 1_554 S
H108 C106 0.951 . S
C109 C107 1.382 . S
C109 C110 1.390 . S
C109 H114 0.949 . S
C110 C109 1.390 . S
C110 C115 1.399 1_554 S
C111 C107 1.404 1_556 S
C111 H112 0.950 . S
C111 C113 1.375 . S
H112 C111 0.950 . S
C113 C111 1.375 . S
C113 C115 1.382 . S
C113 H117 0.950 . S
H114 C109 0.949 . S
C115 C110 1.399 1_556 S
C115 C113 1.382 . S
C115 H116 0.952 . S
H116 C115 0.952 . S
H117 C113 0.950 . S
H118 C119 0.951 . S
C119 H118 0.951 . S
C119 C125 1.265 . S
H120 C125 0.950 . S
H121 C129 0.949 . S
H122 C130 0.950 . S
H123 C131 0.951 . S
H124 C132 0.951 . S
C125 C119 1.265 . S
C125 H120 0.950 . S
C125 C126 1.478 . S
C126 C125 1.478 . S
C126 C127 1.397 . S
C126 C143 1.394 . S
C127 C126 1.397 . S
C127 C128 1.438 . S
C127 C132 1.429 . S
C128 C127 1.438 . S
C128 C129 1.428 . S
C128 C141 1.394 . S
C129 H121 0.949 . S
C129 C128 1.428 . S
C129 C130 1.345 . S
C130 H122 0.950 . S
C130 C129 1.345 . S
C130 C131 1.424 . S
C131 H123 0.951 . S
C131 C130 1.424 . S
C131 C132 1.347 . S
C132 H124 0.951 . S
C132 C127 1.429 . S
C132 C131 1.347 . S
H133 C134 0.951 . S
C134 H133 0.951 . S
C134 C140 1.265 . S
H135 C140 0.950 . S
H136 C144 0.949 . S
H137 C145 0.950 . S
H138 C146 0.951 . S
H139 C147 0.951 . S
C140 C134 1.265 . S
C140 H135 0.950 . S
C140 C141 1.478 . S
C141 C128 1.394 . S
C141 C140 1.478 . S
C141 C142 1.397 . S
C142 C141 1.397 . S
C142 C143 1.438 . S
C142 C147 1.429 1_554 S
C143 C126 1.394 . S
C143 C142 1.438 . S
C143 C144 1.428 1_554 S
C144 H136 0.949 . S
C144 C143 1.428 1_556 S
C144 C145 1.345 . S
C145 H137 0.950 . S
C145 C144 1.345 . S
C145 C146 1.424 . S
C146 H138 0.951 . S
C146 C145 1.424 . S
C146 C147 1.347 . S
C147 H139 0.951 . S
C147 C142 1.429 1_556 S
C147 C146 1.347 . S
H148 C149 0.958 . S
C149 H148 0.958 . S
C149 C155 1.265 . S
H150 C155 0.950 . S
H151 C159 0.949 . S
H152 C160 0.950 . S
H153 C161 0.951 . S
H154 C162 0.951 . S
C155 C149 1.265 . S
C155 H150 0.950 . S
C155 C156 1.478 . S
C156 C155 1.478 . S
C156 C157 1.397 . S
C156 C173 1.394 1_554 S
C157 C156 1.397 . S
C157 C158 1.438 . S
C157 C162 1.429 . S
C158 C157 1.438 . S
C158 C159 1.428 . S
C158 C171 1.394 . S
C159 H151 0.949 . S
C159 C158 1.428 . S
C159 C160 1.345 . S
C160 H152 0.950 . S
C160 C159 1.345 . S
C160 C161 1.424 . S
C161 H153 0.951 . S
C161 C160 1.424 . S
C161 C162 1.347 . S
C162 H154 0.951 . S
C162 C157 1.429 . S
C162 C161 1.347 . S
H163 C164 0.951 . S
C164 H163 0.951 . S
C164 C170 1.265 1_554 S
H165 C170 0.950 . S
H166 C174 0.949 . S
H167 C175 0.950 . S
H168 C176 0.951 . S
H169 C177 0.951 . S
C170 C164 1.265 1_556 S
C170 H165 0.950 . S
C170 C171 1.478 1_556 S
C171 C158 1.394 . S
C171 C170 1.478 1_554 S
C171 C172 1.397 1_554 S
C172 C171 1.397 1_556 S
C172 C173 1.438 . S
C172 C177 1.429 . S
C173 C156 1.394 1_556 S
C173 C172 1.438 . S
C173 C174 1.428 . S
C174 H166 0.949 . S
C174 C173 1.428 . S
C174 C175 1.345 . S
C175 H167 0.950 . S
C175 C174 1.345 . S
C175 C176 1.424 . S
C176 H168 0.951 . S
C176 C175 1.424 . S
C176 C177 1.347 . S
C177 H169 0.951 . S
C177 C172 1.429 . S
C177 C176 1.347 . S
H178 C179 0.951 . S
C179 H178 0.951 . S
C179 C185 1.265 . S
H180 C185 0.950 1_556 S
H181 C189 0.949 . S
H182 C190 0.950 . S
H183 C191 0.951 . S
H184 C192 0.951 . S
C185 C179 1.265 . S
C185 H180 0.950 1_554 S
C185 C186 1.478 . S
C186 C185 1.478 . S
C186 C187 1.397 . S
C186 C203 1.394 1_554 S
C187 C186 1.397 . S
C187 C188 1.438 . S
C187 C192 1.429 . S
C188 C187 1.438 . S
C188 C189 1.428 . S
C188 C201 1.394 . S
C189 H181 0.949 . S
C189 C188 1.428 . S
C189 C190 1.345 . S
C190 H182 0.950 . S
C190 C189 1.345 . S
C190 C191 1.424 . S
C191 H183 0.951 . S
C191 C190 1.424 . S
C191 C192 1.347 . S
C192 H184 0.951 . S
C192 C187 1.429 . S
C192 C191 1.347 . S
H193 C194 0.951 . S
C194 H193 0.951 . S
C194 C200 1.265 . S
H195 C200 0.950 . S
H196 C204 0.949 . S
H197 C205 0.950 . S
H198 C206 0.951 . S
H199 C207 0.951 . S
C200 C194 1.265 . S
C200 H195 0.950 . S
C200 C201 1.478 . S
C201 C188 1.394 . S
C201 C200 1.478 . S
C201 C202 1.397 1_554 S
C202 C201 1.397 1_556 S
C202 C203 1.438 . S
C202 C207 1.429 . S
C203 C186 1.394 1_556 S
C203 C202 1.438 . S
C203 C204 1.428 . S
C204 H196 0.949 . S
C204 C203 1.428 . S
C204 C205 1.345 . S
C205 H197 0.950 . S
C205 C204 1.345 . S
C205 C206 1.424 . S
C206 H198 0.951 . S
C206 C205 1.424 . S
C206 C207 1.347 . S
C207 H199 0.951 . S
C207 C202 1.429 . S
C207 C206 1.347 . S
H208 C209 0.951 . S
C209 H208 0.951 . S
C209 C215 1.265 . S
H210 C215 0.950 . S
H211 C219 0.949 . S
H212 C220 0.950 . S
H213 C221 0.951 . S
H214 C222 0.951 . S
C215 C209 1.265 . S
C215 H210 0.950 . S
C215 C216 1.478 . S
C216 C215 1.478 . S
C216 C217 1.397 . S
C216 C233 1.394 1_556 S
C217 C216 1.397 . S
C217 C218 1.438 . S
C217 C222 1.429 . S
C218 C217 1.438 . S
C218 C219 1.428 . S
C218 C231 1.394 . S
C219 H211 0.949 . S
C219 C218 1.428 . S
C219 C220 1.345 . S
C220 H212 0.950 . S
C220 C219 1.345 . S
C220 C221 1.424 . S
C221 H213 0.951 . S
C221 C220 1.424 . S
C221 C222 1.347 . S
C222 H214 0.951 . S
C222 C217 1.429 . S
C222 C221 1.347 . S
H223 C224 0.951 . S
C224 H223 0.951 . S
C224 C230 1.265 . S
H225 C230 0.950 . S
H226 C234 0.949 . S
H227 C235 0.950 . S
H228 C236 0.951 . S
H229 C237 0.951 . S
C230 C224 1.265 . S
C230 H225 0.950 . S
C230 C231 1.478 . S
C231 C218 1.394 . S
C231 C230 1.478 . S
C231 C232 1.397 1_556 S
C232 C231 1.397 1_554 S
C232 C233 1.438 . S
C232 C237 1.429 . S
C233 C216 1.394 1_554 S
C233 C232 1.438 . S
C233 C234 1.428 . S
C234 H226 0.949 . S
C234 C233 1.428 . S
C234 C235 1.345 . S
C235 H227 0.950 . S
C235 C234 1.345 . S
C235 C236 1.424 . S
C236 H228 0.951 . S
C236 C235 1.424 . S
C236 C237 1.347 . S
C237 H229 0.951 . S
C237 C232 1.429 . S
C237 C236 1.347 . S
H238 C239 0.951 . S
C239 H238 0.951 . S
C239 C245 1.265 . S
H240 C245 0.950 . S
H241 C249 0.949 . S
H242 C250 0.950 . S
H243 C251 0.951 . S
H244 C252 0.951 . S
C245 C239 1.265 . S
C245 H240 0.950 . S
C245 C246 1.478 . S
C246 C245 1.478 . S
C246 C247 1.397 . S
C246 C263 1.394 . S
C247 C246 1.397 . S
C247 C248 1.438 . S
C247 C252 1.429 . S
C248 C247 1.438 . S
C248 C249 1.428 . S
C248 C261 1.394 . S
C249 H241 0.949 . S
C249 C248 1.428 . S
C249 C250 1.345 . S
C250 H242 0.950 . S
C250 C249 1.345 . S
C250 C251 1.424 . S
C251 H243 0.951 . S
C251 C250 1.424 . S
C251 C252 1.347 . S
C252 H244 0.951 . S
C252 C247 1.429 . S
C252 C251 1.347 . S
H253 C254 0.951 . S
C254 H253 0.951 . S
C254 C260 1.265 . S
H255 C260 0.950 . S
H256 C264 0.949 . S
H257 C265 0.950 . S
H258 C266 0.951 . S
H259 C267 0.951 . S
C260 C254 1.265 . S
C260 H255 0.950 . S
C260 C261 1.478 . S
C261 C248 1.394 . S
C261 C260 1.478 . S
C261 C262 1.397 . S
C262 C261 1.397 . S
C262 C263 1.438 . S
C262 C267 1.429 . S
C263 C246 1.394 . S
C263 C262 1.438 . S
C263 C264 1.428 . S
C264 H256 0.949 . S
C264 C263 1.428 . S
C264 C265 1.345 . S
C265 H257 0.950 . S
C265 C264 1.345 . S
C265 C266 1.424 . S
C266 H258 0.951 . S
C266 C265 1.424 . S
C266 C267 1.347 . S
C267 H259 0.951 . S
C267 C262 1.429 . S
C267 C266 1.347 . S
H268 C269 0.951 . S
C269 H268 0.951 . S
C269 C275 1.265 . S
H270 C275 0.950 . S
H271 C279 0.949 . S
H272 C280 0.950 . S
H273 C281 0.951 . S
H274 C282 0.951 . S
C275 C269 1.265 . S
C275 H270 0.950 . S
C275 C276 1.478 . S
C276 C275 1.478 . S
C276 C277 1.397 . S
C276 C293 1.394 . S
C277 C276 1.397 . S
C277 C278 1.438 . S
C277 C282 1.429 . S
C278 C277 1.438 . S
C278 C279 1.428 . S
C278 C291 1.394 . S
C279 H271 0.949 . S
C279 C278 1.428 . S
C279 C280 1.345 . S
C280 H272 0.950 . S
C280 C279 1.345 . S
C280 C281 1.424 . S
C281 H273 0.951 . S
C281 C280 1.424 . S
C281 C282 1.347 . S
C282 H274 0.951 . S
C282 C277 1.429 . S
C282 C281 1.347 . S
H283 C284 0.951 . S
C284 H283 0.951 . S
C284 C290 1.265 . S
H285 C290 0.950 . S
H286 C294 0.949 . S
H287 C295 0.950 . S
H288 C296 0.951 . S
H289 C297 0.951 . S
C290 C284 1.265 . S
C290 H285 0.950 . S
C290 C291 1.478 . S
C291 C278 1.394 . S
C291 C290 1.478 . S
C291 C292 1.397 . S
C292 C291 1.397 . S
C292 C293 1.438 . S
C292 C297 1.429 . S
C293 C276 1.394 . S
C293 C292 1.438 . S
C293 C294 1.428 . S
C294 H286 0.949 . S
C294 C293 1.428 . S
C294 C295 1.345 . S
C295 H287 0.950 . S
C295 C294 1.345 . S
C295 C296 1.424 . S
C296 H288 0.951 . S
C296 C295 1.424 . S
C296 C297 1.347 . S
C297 H289 0.951 . S
C297 C292 1.429 . S
C297 C296 1.347 . S
H298 C299 0.951 . S
C299 H298 0.951 . S
C299 C305 1.265 . S
H300 C305 0.950 . S
H301 C309 0.949 . S
H302 C310 0.950 . S
H303 C311 0.951 . S
H304 C312 0.951 . S
C305 C299 1.265 . S
C305 H300 0.950 . S
C305 C306 1.478 . S
C306 C305 1.478 . S
C306 C307 1.397 . S
C306 C323 1.394 . S
C307 C306 1.397 . S
C307 C308 1.438 . S
C307 C312 1.429 . S
C308 C307 1.438 . S
C308 C309 1.428 . S
C308 C321 1.394 . S
C309 H301 0.949 . S
C309 C308 1.428 . S
C309 C310 1.345 . S
C310 H302 0.950 . S
C310 C309 1.345 . S
C310 C311 1.424 . S
C311 H303 0.951 . S
C311 C310 1.424 . S
C311 C312 1.347 . S
C312 H304 0.951 . S
C312 C307 1.429 . S
C312 C311 1.347 . S
H313 C314 0.951 . S
C314 H313 0.951 . S
C314 C320 1.265 . S
H315 C320 0.950 . S
H316 C324 0.949 . S
H317 C325 0.950 . S
H318 C326 0.951 . S
H319 C327 0.951 . S
C320 C314 1.265 . S
C320 H315 0.950 . S
C320 C321 1.478 . S
C321 C308 1.394 . S
C321 C320 1.478 . S
C321 C322 1.397 . S
C322 C321 1.397 . S
C322 C323 1.438 . S
C322 C327 1.429 . S
C323 C306 1.394 . S
C323 C322 1.438 . S
C323 C324 1.428 . S
C324 H316 0.949 . S
C324 C323 1.428 . S
C324 C325 1.345 . S
C325 H317 0.950 . S
C325 C324 1.345 . S
C325 C326 1.424 . S
C326 H318 0.951 . S
C326 C325 1.424 . S
C326 C327 1.347 . S
C327 H319 0.951 . S
C327 C322 1.429 . S
C327 C326 1.347 . S
H328 C329 0.951 . S
C329 H328 0.951 . S
C329 C335 1.265 . S
H330 C335 0.950 . S
H331 C339 0.949 . S
H332 C340 0.950 . S
H333 C341 0.951 . S
H334 C342 0.951 . S
C335 C329 1.265 . S
C335 H330 0.950 . S
C335 C336 1.478 . S
C336 C335 1.478 . S
C336 C337 1.397 . S
C336 C353 1.394 . S
C337 C336 1.397 . S
C337 C338 1.438 . S
C337 C342 1.429 . S
C338 C337 1.438 . S
C338 C339 1.428 . S
C338 C351 1.394 . S
C339 H331 0.949 . S
C339 C338 1.428 . S
C339 C340 1.345 . S
C340 H332 0.950 . S
C340 C339 1.345 . S
C340 C341 1.424 . S
C341 H333 0.951 . S
C341 C340 1.424 . S
C341 C342 1.347 . S
C342 H334 0.951 . S
C342 C337 1.429 . S
C342 C341 1.347 . S
H343 C344 0.951 . S
C344 H343 0.951 . S
C344 C350 1.265 . S
H345 C350 0.950 . S
H346 C354 0.949 . S
H347 C355 0.950 . S
H348 C356 0.951 . S
H349 C357 0.951 . S
C350 C344 1.265 . S
C350 H345 0.950 . S
C350 C351 1.478 . S
C351 C338 1.394 . S
C351 C350 1.478 . S
C351 C352 1.397 . S
C352 C351 1.397 . S
C352 C353 1.438 . S
C352 C357 1.429 . S
C353 C336 1.394 . S
C353 C352 1.438 . S
C353 C354 1.428 . S
C354 H346 0.949 . S
C354 C353 1.428 . S
C354 C355 1.345 . S
C355 H347 0.950 . S
C355 C354 1.345 . S
C355 C356 1.424 . S
C356 H348 0.951 . S
C356 C355 1.424 . S
C356 C357 1.347 . S
C357 H349 0.951 . S
C357 C352 1.429 . S
C357 C356 1.347 . S
H358 C359 0.951 . S
C359 H358 0.951 . S
C359 C365 1.265 1_545 S
H360 C365 0.950 . S
H361 C369 0.949 . S
H362 C370 0.950 . S
H363 C371 0.951 . S
H364 C372 0.951 . S
C365 C359 1.265 1_565 S
C365 H360 0.950 . S
C365 C366 1.478 . S
C366 C365 1.478 . S
C366 C367 1.397 . S
C366 C383 1.394 1_565 S
C367 C366 1.397 . S
C367 C368 1.438 . S
C367 C372 1.429 . S
C368 C367 1.438 . S
C368 C369 1.428 . S
C368 C381 1.403 . S
C369 H361 0.949 . S
C369 C368 1.428 . S
C369 C370 1.345 . S
C370 H362 0.950 . S
C370 C369 1.345 . S
C370 C371 1.424 . S
C371 H363 0.951 . S
C371 C370 1.424 . S
C371 C372 1.347 . S
C372 H364 0.951 . S
C372 C367 1.429 . S
C372 C371 1.347 . S
H373 C374 0.951 . S
C374 H373 0.951 . S
C374 C380 1.265 1_565 S
H375 C380 0.950 . S
H376 C384 0.949 . S
H377 C385 0.950 . S
H378 C386 0.951 . S
H379 C387 0.951 . S
C380 C374 1.265 1_545 S
C380 H375 0.950 . S
C380 C381 1.478 1_545 S
C381 C368 1.403 . S
C381 C380 1.478 1_565 S
C381 C382 1.387 1_565 S
C382 C381 1.387 1_545 S
C382 C383 1.438 . S
C382 C387 1.429 . S
C383 C366 1.394 1_545 S
C383 C382 1.438 . S
C383 C384 1.428 . S
C384 H376 0.949 . S
C384 C383 1.428 . S
C384 C385 1.345 . S
C385 H377 0.950 . S
C385 C384 1.345 . S
C385 C386 1.424 . S
C386 H378 0.951 . S
C386 C385 1.424 . S
C386 C387 1.347 . S
C387 H379 0.951 . S
C387 C382 1.429 . S
C387 C386 1.347 . S
H388 C389 0.951 1_655 S
C389 H388 0.951 1_455 S
C389 C395 1.265 . S
H390 C395 0.950 . S
H391 C399 0.949 . S
H392 C400 0.950 . S
H393 C401 0.951 . S
H394 C402 0.951 . S
C395 C389 1.265 . S
C395 H390 0.950 . S
C395 C396 1.478 . S
C396 C395 1.478 . S
C396 C397 1.397 1_545 S
C396 C413 1.394 1_455 S
C397 C396 1.397 1_565 S
C397 C398 1.438 . S
C397 C402 1.429 . S
C398 C397 1.438 . S
C398 C399 1.428 . S
C398 C411 1.394 1_465 S
C399 H391 0.949 . S
C399 C398 1.428 . S
C399 C400 1.345 . S
C400 H392 0.950 . S
C400 C399 1.345 . S
C400 C401 1.424 . S
C401 H393 0.951 . S
C401 C400 1.424 . S
C401 C402 1.347 . S
C402 H394 0.951 . S
C402 C397 1.429 . S
C402 C401 1.347 . S
H403 C404 0.951 1_455 S
C404 H403 0.951 1_655 S
C404 C410 1.265 . S
H405 C410 0.950 . S
H406 C414 0.949 . S
H407 C415 0.950 . S
H408 C416 0.951 . S
H409 C417 0.951 . S
C410 C404 1.265 . S
C410 H405 0.950 . S
C410 C411 1.478 . S
C411 C398 1.394 1_645 S
C411 C410 1.478 . S
C411 C412 1.397 . S
C412 C411 1.397 . S
C412 C413 1.438 . S
C412 C417 1.429 . S
C413 C396 1.394 1_655 S
C413 C412 1.438 . S
C413 C414 1.428 . S
C414 H406 0.949 . S
C414 C413 1.428 . S
C414 C415 1.345 . S
C415 H407 0.950 . S
C415 C414 1.345 . S
C415 C416 1.424 . S
C416 H408 0.951 . S
C416 C415 1.424 . S
C416 C417 1.347 . S
C417 H409 0.951 . S
C417 C412 1.429 . S
C417 C416 1.347 . S
H418 C419 0.951 . S
C419 H418 0.951 . S
C419 C425 1.265 . S
H420 C425 0.950 . S
H421 C429 0.949 . S
H422 C430 0.950 . S
H423 C431 0.951 . S
H424 C432 0.951 . S
C425 C419 1.265 . S
C425 H420 0.950 . S
C425 C426 1.478 . S
C426 C425 1.478 . S
C426 C427 1.397 . S
C426 C443 1.394 . S
C427 C426 1.397 . S
C427 C428 1.438 . S
C427 C432 1.429 . S
C428 C427 1.438 . S
C428 C429 1.428 . S
C428 C441 1.394 . S
C429 H421 0.949 . S
C429 C428 1.428 . S
C429 C430 1.345 . S
C430 H422 0.950 . S
C430 C429 1.345 . S
C430 C431 1.424 . S
C431 H423 0.951 . S
C431 C430 1.424 . S
C431 C432 1.347 . S
C432 H424 0.951 . S
C432 C427 1.429 . S
C432 C431 1.347 . S
H433 C434 0.951 . S
C434 H433 0.951 . S
C434 C440 1.265 . S
H435 C440 0.950 . S
H436 C444 0.949 . S
H437 C445 0.950 . S
H438 C446 0.951 . S
H439 C447 0.951 . S
C440 C434 1.265 . S
C440 H435 0.950 . S
C440 C441 1.478 . S
C441 C428 1.394 . S
C441 C440 1.478 . S
C441 C442 1.397 . S
C442 C441 1.397 . S
C442 C443 1.438 . S
C442 C447 1.429 . S
C443 C426 1.394 . S
C443 C442 1.438 . S
C443 C444 1.428 . S
C444 H436 0.949 . S
C444 C443 1.428 . S
C444 C445 1.345 . S
C445 H437 0.950 . S
C445 C444 1.345 . S
C445 C446 1.424 . S
C446 H438 0.951 . S
C446 C445 1.424 . S
C446 C447 1.347 . S
C447 H439 0.951 . S
C447 C442 1.429 . S
C447 C446 1.347 . S
H448 C449 0.951 . S
C449 H448 0.951 . S
C449 C455 1.265 . S
H450 C455 0.950 . S
H451 C459 0.949 . S
H452 C460 0.950 . S
H453 C461 0.951 . S
H454 C462 0.951 . S
C455 C449 1.265 . S
C455 H450 0.950 . S
C455 C456 1.478 . S
C456 C455 1.478 . S
C456 C457 1.397 . S
C456 C473 1.394 . S
C457 C456 1.397 . S
C457 C458 1.438 . S
C457 C462 1.429 . S
C458 C457 1.438 . S
C458 C459 1.428 . S
C458 C471 1.394 . S
C459 H451 0.949 . S
C459 C458 1.428 . S
C459 C460 1.345 . S
C460 H452 0.950 . S
C460 C459 1.345 . S
C460 C461 1.424 . S
C461 H453 0.951 . S
C461 C460 1.424 . S
C461 C462 1.347 . S
C462 H454 0.951 . S
C462 C457 1.429 . S
C462 C461 1.347 . S
H463 C464 0.951 . S
C464 H463 0.951 . S
C464 C470 1.265 . S
H465 C470 0.950 . S
H466 C474 0.949 . S
H467 C475 0.950 . S
H468 C476 0.951 . S
H469 C477 0.951 . S
C470 C464 1.265 . S
C470 H465 0.950 . S
C470 C471 1.478 . S
C471 C458 1.394 . S
C471 C470 1.478 . S
C471 C472 1.397 . S
C472 C471 1.397 . S
C472 C473 1.438 . S
C472 C477 1.429 . S
C473 C456 1.394 . S
C473 C472 1.438 . S
C473 C474 1.428 . S
C474 H466 0.949 . S
C474 C473 1.428 . S
C474 C475 1.345 . S
C475 H467 0.950 . S
C475 C474 1.345 . S
C475 C476 1.424 . S
C476 H468 0.951 . S
C476 C475 1.424 . S
C476 C477 1.347 . S
C477 H469 0.951 . S
C477 C472 1.429 . S
C477 C476 1.347 . S
C134 C105 1.530 . S
C119 C16 1.339 . S
C149 C15 1.458 . S
C164 C91 1.360 . S
C179 C13 1.232 1_554 S
C194 C110 1.435 . S
C209 C14 1.452 . S
C224 C86 1.509 . S
C239 C37 1.445 . S
C254 C67 1.507 . S
C269 C36 1.458 . S
C284 C53 1.365 . S
C314 C72 1.446 . S
C299 C34 1.207 . S
C344 C48 1.517 . S
C329 C35 1.527 . S
C359 C17 1.590 . S
C374 C44 1.655 . S
C389 C18 1.361 . S
C404 C63 1.432 . S
C434 C82 1.661 . S
C419 C38 1.595 . S
C449 C39 1.362 . S
C464 C101 1.426 . S
