# Generated by pormake.
# Topology pyr, (3,6)-cn, num edge types: 1
# Building blocks:
#     Node 0, Type 0, BuildingBlock: BELTOD_clean_linker_0, # of connection points: 3
#     Node 1, Type 0, BuildingBlock: BELTOD_clean_linker_0, # of connection points: 3
#     Node 2, Type 0, BuildingBlock: BELTOD_clean_linker_0, # of connection points: 3
#     Node 3, Type 0, BuildingBlock: BELTOD_clean_linker_0, # of connection points: 3
#     Node 4, Type 0, BuildingBlock: BELTOD_clean_linker_0, # of connection points: 3
#     Node 5, Type 0, BuildingBlock: BELTOD_clean_linker_0, # of connection points: 3
#     Node 6, Type 0, BuildingBlock: BELTOD_clean_linker_0, # of connection points: 3
#     Node 7, Type 0, BuildingBlock: BELTOD_clean_linker_0, # of connection points: 3
#     Node 8, Type 1, BuildingBlock: PAMTUU_clean_sbu_0, # of connection points: 6
#     Node 9, Type 1, BuildingBlock: PAMTUU_clean_sbu_0, # of connection points: 6
#     Node 10, Type 1, BuildingBlock: PAMTUU_clean_sbu_0, # of connection points: 6
#     Node 11, Type 1, BuildingBlock: PAMTUU_clean_sbu_0, # of connection points: 6
#     Edge 12, Type (0, 1), None
#     Edge 13, Type (0, 1), None
#     Edge 14, Type (0, 1), None
#     Edge 15, Type (0, 1), None
#     Edge 16, Type (0, 1), None
#     Edge 17, Type (0, 1), None
#     Edge 18, Type (0, 1), None
#     Edge 19, Type (0, 1), None
#     Edge 20, Type (0, 1), None
#     Edge 21, Type (0, 1), None
#     Edge 22, Type (0, 1), None
#     Edge 23, Type (0, 1), None
#     Edge 24, Type (0, 1), None
#     Edge 25, Type (0, 1), None
#     Edge 26, Type (0, 1), None
#     Edge 27, Type (0, 1), None
#     Edge 28, Type (0, 1), None
#     Edge 29, Type (0, 1), None
#     Edge 30, Type (0, 1), None
#     Edge 31, Type (0, 1), None
#     Edge 32, Type (0, 1), None
#     Edge 33, Type (0, 1), None
#     Edge 34, Type (0, 1), None
#     Edge 35, Type (0, 1), None
# Relax obj value: 0.282
# Max RMSD: 0.182
# Mean RMSD: 0.080
data_MOF--net-pyr--node1-PAMTUU_clean_sbu_0--node2-BELTOD_clean_linker_0--edge1-none
_symmetry_space_group_name_H-M    P1
_symmetry_Int_Tables_number       1
_symmetry_cell_setting            triclinic
loop_
_symmetry_equiv_pos_as_xyz
'x, y, z'
_cell_length_a     22.938663
_cell_length_b     23.219869
_cell_length_c     21.304802
_cell_angle_alpha  90.11107
_cell_angle_beta   90.193104
_cell_angle_gamma 105.39881
loop_
_atom_site_label
_atom_site_type_symbol
_atom_site_fract_x
_atom_site_fract_y
_atom_site_fract_z
_atom_type_partial_charge
P0 P 0.45579 0.37392 0.32088 0.0
H1 H 0.55815 0.36497 0.24 0.0
H2 H 0.5815 0.27827 0.18903 0.0
H3 H 0.42498 0.16119 0.27603 0.0
H4 H 0.40195 0.24642 0.32658 0.0
H5 H 0.39937 0.47241 0.32229 0.0
H6 H 0.29873 0.47969 0.29088 0.0
H7 H 0.26069 0.30257 0.21054 0.0
H8 H 0.36063 0.29616 0.24046 0.0
H9 H 0.51498 0.31037 0.40839 0.0
H10 H 0.3623 0.38621 0.41186 0.0
O11 O 0.51075 0.43729 0.31618 0.0
H12 H 0.47132 0.2439 0.4932 0.0
H13 H 0.31689 0.31735 0.49382 0.0
C14 C 0.47757 0.31216 0.28577 0.0
C15 C 0.5296 0.32053 0.24882 0.0
C16 C 0.5436 0.27112 0.22095 0.0
C17 C 0.50553 0.21344 0.23006 0.0
C18 C 0.45563 0.20519 0.26973 0.0
C19 C 0.44195 0.25402 0.29755 0.0
C20 C 0.38773 0.38365 0.28464 0.0
C21 C 0.36976 0.43574 0.2968 0.0
C22 C 0.31199 0.43945 0.27958 0.0
C23 C 0.27143 0.39117 0.24924 0.0
C24 C 0.29082 0.34043 0.23398 0.0
C25 C 0.34832 0.33667 0.25162 0.0
C26 C 0.4405 0.35131 0.40127 0.0
C27 C 0.47341 0.31486 0.42901 0.0
C28 C 0.44829 0.27649 0.47761 0.0
C29 C 0.38932 0.27313 0.49755 0.0
C30 C 0.36193 0.31776 0.47838 0.0
C31 C 0.38765 0.35693 0.43041 0.0
P32 P 0.1734 0.87827 0.85912 0.0
H33 H 0.21356 0.79881 0.94671 0.0
H34 H 0.20921 0.8153 1.05751 0.0
H35 H 0.0498 0.87679 1.03218 0.0
H36 H 0.0546 0.86167 0.9201 0.0
H37 H 0.28324 0.93708 0.79362 0.0
H38 H 0.36586 0.90166 0.75098 0.0
H39 H 0.26652 0.71973 0.79134 0.0
H40 H 0.18379 0.756 0.83485 0.0
H41 H 0.1004 0.96238 0.87045 0.0
H42 H 0.13266 0.83916 0.73141 0.0
O43 O 0.21259 0.94233 0.89184 0.0
H44 H 0.04529 1.00507 0.79303 0.0
H45 H 0.07855 0.88241 0.6533 0.0
C46 C 0.13755 0.83401 0.92419 0.0
C47 C 0.17512 0.81236 0.96462 0.0
C48 C 0.17249 0.82221 1.02907 0.0
C49 C 0.13563 0.85793 1.05069 0.0
C50 C 0.08372 0.85618 1.01461 0.0
C51 C 0.0865 0.84761 0.94982 0.0
C52 C 0.22838 0.84924 0.81902 0.0
C53 C 0.279 0.88949 0.79289 0.0
C54 C 0.3261 0.86915 0.76813 0.0
C55 C 0.32318 0.80795 0.76862 0.0
C56 C 0.27062 0.76729 0.7916 0.0
C57 C 0.22326 0.78783 0.81617 0.0
C58 C 0.12117 0.89823 0.80623 0.0
C59 C 0.09424 0.9435 0.82358 0.0
C60 C 0.06267 0.96783 0.77938 0.0
C61 C 0.05856 0.9477 0.71703 0.0
C62 C 0.08172 0.89924 0.70101 0.0
C63 C 0.11265 0.87445 0.74551 0.0
P64 P 0.68539 0.39568 0.87819 0.0
H65 H 0.7499 0.35003 0.97639 0.0
H66 H 0.84218 0.39267 1.03676 0.0
H67 H 0.85549 0.56427 0.95175 0.0
H68 H 0.76456 0.52092 0.89006 0.0
H69 H 0.5939 0.28643 0.83913 0.0
H70 H 0.53193 0.20172 0.89887 0.0
H71 H 0.58753 0.2992 1.07092 0.0
H72 H 0.6474 0.38417 1.01134 0.0
H73 H 0.63321 0.36747 0.75462 0.0
H74 H 0.66356 0.51948 0.87864 0.0
O75 O 0.71728 0.35399 0.83274 0.0
H76 H 0.59253 0.42065 0.67562 0.0
H77 H 0.62444 0.57512 0.7969 0.0
C78 C 0.74786 0.43255 0.93029 0.0
C79 C 0.77162 0.3973 0.97186 0.0
C80 C 0.82497 0.42162 1.00616 0.0
C81 C 0.85636 0.48214 0.99986 0.0
C82 C 0.83217 0.51766 0.9588 0.0
C83 C 0.77928 0.49297 0.9237 0.0
C84 C 0.62657 0.34154 0.92063 0.0
C85 C 0.59111 0.29048 0.88959 0.0
C86 C 0.5554 0.24198 0.92374 0.0
C87 C 0.55511 0.24349 0.98966 0.0
C88 C 0.58696 0.2965 1.02015 0.0
C89 C 0.62155 0.34523 0.98602 0.0
C90 C 0.65365 0.43953 0.82246 0.0
C91 C 0.63195 0.41282 0.76485 0.0
C92 C 0.60852 0.4437 0.71915 0.0
C93 C 0.60598 0.50302 0.72882 0.0
C94 C 0.62682 0.53003 0.78706 0.0
C95 C 0.64947 0.49818 0.83388 0.0
P96 P 0.84961 0.74017 0.35594 0.0
H97 H 0.92257 0.85907 0.3159 0.0
H98 H 0.972 0.94991 0.37542 0.0
H99 H 0.93338 0.85089 0.54812 0.0
H100 H 0.88793 0.7596 0.48872 0.0
H101 H 0.91206 0.77127 0.23814 0.0
H102 H 0.96022 0.72007 0.16337 0.0
H103 H 0.92505 0.56588 0.28434 0.0
H104 H 0.87965 0.61965 0.36198 0.0
H105 H 0.779 0.78913 0.44269 0.0
H106 H 0.7837 0.61178 0.38718 0.0
O107 O 0.81229 0.77201 0.30509 0.0
H108 H 0.69628 0.74746 0.51407 0.0
H109 H 0.70117 0.56952 0.45991 0.0
C110 C 0.90042 0.80233 0.39764 0.0
C111 C 0.92628 0.85637 0.36642 0.0
C112 C 0.95402 0.90848 0.40048 0.0
C113 C 0.95489 0.90779 0.46646 0.0
C114 C 0.932 0.85305 0.49736 0.0
C115 C 0.90635 0.80066 0.46325 0.0
C116 C 0.88977 0.69917 0.30542 0.0
C117 C 0.91466 0.72654 0.24931 0.0
C118 C 0.94225 0.69679 0.20598 0.0
C119 C 0.94559 0.6379 0.21655 0.0
C120 C 0.92217 0.61063 0.27367 0.0
C121 C 0.89554 0.64135 0.31814 0.0
C122 C 0.79038 0.704 0.41117 0.0
C123 C 0.76351 0.74101 0.44698 0.0
C124 C 0.71573 0.7171 0.48793 0.0
C125 C 0.6925 0.65509 0.49396 0.0
C126 C 0.71886 0.61762 0.45773 0.0
C127 C 0.76677 0.64184 0.41615 0.0
P128 P 0.68811 0.91402 1.04108 0.0
H129 H 0.56856 0.86483 1.09795 0.0
H130 H 0.48011 0.90254 1.08055 0.0
H131 H 0.55526 0.97937 0.90544 0.0
H132 H 0.63698 0.93087 0.91658 0.0
H133 H 0.75291 0.85368 0.12431 0.0
H134 H 0.82629 0.79845 0.10175 0.0
H135 H 0.77498 0.78884 0.90568 0.0
H136 H 0.7018 0.8461 0.92894 0.0
H137 H 0.66873 1.02702 0.99643 0.0
H138 H 0.81667 0.9454 1.00312 0.0
O139 O 0.6877 0.92936 0.11763 0.0
H140 H 0.71896 0.09309 0.91282 0.0
H141 H 0.86636 1.00973 0.91906 0.0
C142 C 0.61187 0.90025 1.01105 0.0
C143 C 0.56378 0.88581 1.05357 0.0
C144 C 0.51353 0.90816 1.04394 0.0
C145 C 0.5144 0.94867 0.99489 0.0
C146 C 0.55478 0.95018 0.94515 0.0
C147 C 0.60214 0.92311 0.95213 0.0
C148 C 0.72122 0.85316 1.0285 0.0
C149 C 0.75548 0.83768 1.0769 0.0
C150 C 0.7979 0.80623 1.0637 0.0
C151 C 0.80694 0.78956 1.00168 0.0
C152 C 0.76964 0.80173 0.95375 0.0
C153 C 0.72694 0.8333 0.96716 0.0
C154 C 0.73656 0.97834 1.00258 0.0
C155 C 0.71289 1.02461 0.98151 0.0
C156 C 0.74167 1.06237 0.93365 0.0
C157 C 0.79523 1.05476 0.90754 0.0
C158 C 0.82445 1.01604 0.93726 0.0
C159 C 0.79536 0.97827 0.98493 0.0
P160 P 0.96183 0.35791 0.38701 0.0
H161 H 0.92783 0.44495 0.4713 0.0
H162 H 0.82933 0.46199 0.49686 0.0
H163 H 0.74023 0.30711 0.38642 0.0
H164 H 0.83755 0.2917 0.35968 0.0
H165 H 0.07607 0.3321 0.42312 0.0
H166 H 0.09871 0.24197 0.46535 0.0
H167 H 0.90712 0.15536 0.47327 0.0
H168 H 0.88536 0.24426 0.43326 0.0
H169 H 0.90996 0.41172 0.28458 0.0
H170 H 0.98943 0.26418 0.30761 0.0
O171 O 1.01676 0.42062 0.39764 0.0
H172 H 0.85566 0.36346 0.19174 0.0
H173 H 0.93334 0.21461 0.21786 0.0
C174 C 0.89016 0.36727 0.41339 0.0
C175 C 0.88698 0.41449 0.45317 0.0
C176 C 0.8307 0.42399 0.46792 0.0
C177 C 0.77706 0.38623 0.44304 0.0
C178 C 0.78066 0.33767 0.40537 0.0
C179 C 0.83649 0.3285 0.39056 0.0
C180 C 0.97895 0.29587 0.42673 0.0
C181 C 0.03911 0.29399 0.43526 0.0
C182 C 0.05197 0.2422 0.45844 0.0
C183 C 1.00472 0.19129 0.4722 0.0
C184 C 0.94474 0.19348 0.46288 0.0
C185 C 0.93209 0.24508 0.44052 0.0
C186 C 0.95119 0.34009 0.30485 0.0
C187 C 0.91742 0.36997 0.26849 0.0
C188 C 0.88596 0.34204 0.21571 0.0
C189 C 0.88761 0.28373 0.19941 0.0
C190 C 0.92994 0.25899 0.22954 0.0
C191 C 0.96185 0.28726 0.28179 0.0
P192 P 0.388 0.72716 0.2471 0.0
H193 H 0.33105 0.75328 0.13064 0.0
H194 H 0.23362 0.70832 1.07919 0.0
H195 H 0.18141 0.58987 0.23735 0.0
H196 H 0.27809 0.63539 0.28834 0.0
H197 H 0.50858 0.80997 0.23503 0.0
H198 H 0.54307 0.9145 0.20309 0.0
H199 H 0.3596 0.92903 0.21381 0.0
H200 H 0.32543 0.82418 0.24524 0.0
H201 H 0.39004 0.6069 0.28465 0.0
H202 H 0.41857 0.7774 0.37684 0.0
O203 O 0.43174 0.70233 0.19712 0.0
H204 H 0.42351 0.5652 0.379 0.0
H205 H 0.4514 0.73519 0.47271 0.0
C206 C 0.31195 0.69876 0.21424 0.0
C207 C 0.29811 0.71834 0.15479 0.0
C208 C 0.24238 0.6922 0.12499 0.0
C209 C 0.19913 0.64511 0.15358 0.0
C210 C 0.21317 0.62597 0.21342 0.0
C211 C 0.26872 0.65229 0.24317 0.0
C212 C 0.41413 0.80843 0.24137 0.0
C213 C 0.47582 0.83592 0.23182 0.0
C214 C 0.49556 0.89603 0.21334 0.0
C215 C 0.45403 0.93038 0.20378 0.0
C216 C 0.39291 0.90406 0.21899 0.0
C217 C 0.37319 0.84381 0.23742 0.0
C218 C 0.40158 0.69552 0.32297 0.0
C219 C 0.40234 0.63524 0.32566 0.0
C220 C 0.42182 0.61132 0.37991 0.0
C221 C 0.44066 0.64658 0.4339 0.0
C222 C 0.43706 0.70638 0.43239 0.0
C223 C 0.41818 0.73068 0.37739 0.0
P224 P 0.21227 0.38367 0.79352 0.0
H225 H 0.24278 0.27297 0.76294 0.0
H226 H 0.19011 0.18121 0.7095 0.0
H227 H 0.03232 0.24796 0.68936 0.0
H228 H 0.08624 0.34094 0.74341 0.0
H229 H 0.28329 0.50908 0.79481 0.0
H230 H 0.36589 0.5649 0.72938 0.0
H231 H 0.33504 0.41619 0.60003 0.0
H232 H 0.25146 0.36117 0.66516 0.0
H233 H 0.17324 0.35981 0.92324 0.0
H234 H 0.15813 0.48785 0.78236 0.0
O235 O 0.26232 0.36423 0.84035 0.0
H236 H 0.12693 0.41125 1.00041 0.0
H237 H 0.11019 0.53964 0.85984 0.0
C238 C 0.16838 0.3139 0.75823 0.0
C239 C 0.19651 0.26782 0.74802 0.0
C240 C 0.16627 0.21512 0.71693 0.0
C241 C 0.10669 0.20665 0.69498 0.0
C242 C 0.078 0.25256 0.706 0.0
C243 C 0.10875 0.30587 0.7369 0.0
C244 C 0.2597 0.43109 0.73495 0.0
C245 C 0.29254 0.48922 0.7512 0.0
C246 C 0.34056 0.52095 0.71369 0.0
C247 C 0.35803 0.49506 0.65922 0.0
C248 C 0.32321 0.43785 0.64133 0.0
C249 C 0.27485 0.40627 0.67883 0.0
C250 C 0.17001 0.41993 0.84668 0.0
C251 C 0.15961 0.39895 0.90859 0.0
C252 C 0.13323 0.42885 0.95315 0.0
C253 C 0.1153 0.48048 0.93719 0.0
C254 C 0.12376 0.50043 0.87435 0.0
C255 C 0.15096 0.4706 0.82969 0.0
Tb256 Tb 0.09313 1.05832 0.55489 0.0
Tb257 Tb 0.9607 1.05577 0.60789 0.0
C258 C 0.97876 0.96344 0.50357 0.0
C259 C 0.25454 0.11203 0.52895 0.0
C260 C 0.35042 0.2155 0.5198 0.0
C261 C 0.35258 0.16268 0.48809 0.0
C262 C 0.3048 0.11133 0.49261 0.0
C263 C 0.2545 0.16272 0.56501 0.0
C264 C 0.30235 0.21407 0.5608 0.0
C265 C 0.1997 1.06295 0.52389 0.0
O266 O 0.07075 0.13818 0.52082 0.0
O267 O 0.97065 0.09222 0.5142 0.0
O268 O 1.0186 0.13955 0.64521 0.0
O269 O 0.10989 0.11766 0.63678 0.0
O270 O 0.87889 1.00922 0.64878 0.0
O271 O 0.89386 0.10133 0.62078 0.0
O272 O 1.00936 1.02199 0.68065 0.0
O273 O 0.05864 0.9789 0.61056 0.0
O274 O 0.03179 0.99925 0.48914 0.0
O275 O 0.94806 0.97326 0.55289 0.0
C276 C 1.01657 0.13743 0.50055 0.0
O277 O 0.17602 1.04161 0.5773 0.0
O278 O 0.15918 1.07201 0.48462 0.0
C279 C 0.07669 0.15176 0.65798 0.0
C280 C 0.84324 1.07161 0.71535 0.0
C281 C 0.81191 1.07358 0.84226 0.0
C282 C 0.8729 0.09152 0.8243 0.0
C283 C 0.88849 0.09045 0.76115 0.0
C284 C 0.78242 1.05913 0.73231 0.0
C285 C 0.76676 1.06036 0.79541 0.0
C286 C 0.85956 1.05712 0.65215 0.0
C287 C 0.03851 0.98207 0.66732 0.0
H288 H 0.38836 0.16236 0.45515 0.0
H289 H 0.30536 1.07249 0.46456 0.0
H290 H 0.21591 0.16392 0.59341 0.0
H291 H 0.29958 0.2539 0.5859 0.0
H292 H 0.90851 0.10212 0.85935 0.0
H293 H 0.93583 0.10037 0.74852 0.0
H294 H 0.74711 1.04448 0.69738 0.0
H295 H 0.71934 1.04552 0.8077 0.0
Tb296 Tb 0.57303 0.09221 0.10287 0.0
Tb297 Tb 0.42935 0.08031 1.08119 0.0
C298 C 0.49544 1.00315 1.00947 0.0
C299 C 0.73728 0.15299 0.12169 0.0
C300 C 0.83688 0.24403 0.16364 0.0
C301 C 0.84564 0.19649 0.12699 0.0
C302 C 0.79604 0.15111 0.10631 0.0
C303 C 0.72809 0.20218 0.15433 0.0
C304 C 0.77738 0.24716 0.17535 0.0
C305 C 0.68544 0.10382 0.10393 0.0
O306 O 0.56742 0.17941 1.07284 0.0
O307 O 0.4816 0.14706 1.01356 0.0
O308 O 0.46042 0.15362 0.14562 0.0
O309 O 0.552 0.14271 0.18181 0.0
O310 O 0.35257 1.063 1.02269 0.0
O311 O 0.3492 0.09215 0.11877 0.0
O312 O 0.43197 1.01864 0.15867 0.0
O313 O 0.52793 1.00692 0.14686 0.0
O314 O 0.53848 1.05291 1.0126 0.0
O315 O 0.44667 0.99967 1.04222 0.0
C316 C 0.53232 0.18808 1.02735 0.0
O317 O 0.64945 0.07953 0.14955 0.0
O318 O 0.65549 0.1143 1.05522 0.0
C319 C 0.50575 0.16597 0.18533 0.0
C320 C 0.26413 1.02168 1.08022 0.0
C321 C 0.16871 0.9167 1.07874 0.0
C322 C 0.16201 0.9699 1.05075 0.0
C323 C 0.2097 1.02163 1.05092 0.0
C324 C 0.2679 0.9723 0.11627 0.0
C325 C 0.22001 0.92052 0.11668 0.0
C326 C 0.31799 1.0709 1.06881 0.0
C327 C 0.47305 0.98966 0.17082 0.0
H328 H 0.89077 0.1931 0.11649 0.0
H329 H 0.80359 0.11383 1.0799 0.0
H330 H 0.68278 0.20464 0.16562 0.0
H331 H 0.76851 0.28227 0.20426 0.0
H332 H 0.12315 0.97039 1.02205 0.0
H333 H 0.20559 1.06003 1.02417 0.0
H334 H 0.30939 0.97237 0.14042 0.0
H335 H 0.22617 0.88151 0.14077 0.0
Tb336 Tb 0.52636 0.52014 0.54141 0.0
Tb337 Tb 0.53264 0.63926 0.62267 0.0
C338 C 0.46852 0.62178 0.48832 0.0
C339 C 0.60339 0.42022 0.47065 0.0
C340 C 0.71752 0.39845 0.45322 0.0
C341 C 0.67648 0.39276 0.40294 0.0
C342 C 0.62024 0.40377 0.41159 0.0
C343 C 0.64449 0.42668 0.52098 0.0
C344 C 0.70107 0.41576 0.51238 0.0
C345 C 0.54595 0.43662 0.47773 0.0
O346 O 0.6202 0.5727 0.5438 0.0
O347 O 0.60602 0.66507 0.55481 0.0
O348 O 0.59064 0.59165 0.67294 0.0
O349 O 0.5434 0.49823 0.63734 0.0
O350 O 0.54108 0.73151 0.62952 0.0
O351 O 0.5336 0.67726 0.71228 0.0
O352 O 0.44957 0.57471 0.65193 0.0
O353 O 0.4335 0.50071 0.5764 0.0
O354 O 0.49089 0.57609 0.47735 0.0
O355 O 0.47223 0.64681 0.54436 0.0
C356 C 0.63791 0.63011 0.53341 0.0
O357 O 0.52052 0.42857 0.53284 0.0
O358 O 0.54554 0.48801 0.45381 0.0
C359 C 0.57866 0.53301 0.67829 0.0
C360 C 0.47895 0.75059 0.71135 0.0
C361 C 0.37604 0.78733 0.748 0.0
C362 C 0.39498 0.74429 0.78297 0.0
C363 C 0.44593 0.72625 0.76499 0.0
C364 C 0.4605 0.79427 0.6769 0.0
C365 C 0.40954 0.81233 0.69493 0.0
C366 C 0.53029 0.72832 0.68957 0.0
C367 C 0.41564 0.52552 0.62612 0.0
H368 H 0.68825 0.38083 0.35639 0.0
H369 H 0.59034 0.40004 0.37171 0.0
H370 H 0.63329 0.44106 0.5667 0.0
H371 H 0.73171 0.42053 0.552 0.0
H372 H 0.37092 0.72512 0.82485 0.0
H373 H 0.45907 0.69281 0.79294 0.0
H374 H 0.48498 0.81398 0.63543 0.0
H375 H 0.39597 0.84544 0.66685 0.0
Tb376 Tb 0.03223 0.61611 1.0312 0.0
Tb377 Tb 0.02453 0.50197 0.11972 0.0
C378 C 0.08698 0.51169 0.98594 0.0
C379 C 0.96241 0.72289 0.97154 0.0
C380 C 0.85771 0.76305 0.9877 0.0
C381 C 0.89519 0.78089 0.93496 0.0
C382 C 0.94695 0.76031 0.92658 0.0
C383 C 0.92368 0.70343 1.02248 0.0
C384 C 0.87191 0.72283 1.03032 0.0
C385 C 1.0166 0.70071 0.96603 0.0
O386 O 0.9374 0.5658 1.03455 0.0
O387 O 0.94637 0.47274 1.05683 0.0
O388 O 0.96507 0.54874 0.16689 0.0
O389 O 1.00917 0.64071 0.12547 0.0
O390 O 0.01974 0.41058 0.12808 0.0
O391 O 0.02828 0.46689 0.20989 0.0
O392 O 0.10212 0.57208 0.15297 0.0
O393 O 0.12528 0.63292 1.06685 0.0
O394 O 0.06065 0.55316 0.96917 0.0
O395 O 0.08863 0.49652 1.04528 0.0
C396 C 0.91573 0.50771 1.03236 0.0
O397 O 0.05117 0.70862 1.0158 0.0
O398 O 1.00591 0.64616 0.94521 0.0
C399 C 0.97457 0.60727 0.16794 0.0
C400 C 0.09102 0.40151 0.20597 0.0
C401 C 0.20861 0.39296 0.23496 0.0
C402 C 0.17479 0.41463 0.27969 0.0
C403 C 0.11654 0.41863 0.26541 0.0
C404 C 0.12379 0.37715 0.16227 0.0
C405 C 0.18197 0.37294 0.17665 0.0
C406 C 0.03477 0.41679 0.18728 0.0
C407 C 0.13975 0.61542 0.12237 0.0
H408 H 0.88559 0.81204 0.90126 0.0
H409 H 0.97517 0.77426 0.8858 0.0
H410 H 0.93353 0.67326 1.05681 0.0
H411 H 0.84343 0.70689 1.07052 0.0
H412 H 0.19362 0.42911 0.32556 0.0
H413 H 0.09243 0.4375 0.3 0.0
H414 H 0.10558 0.36347 0.116 0.0
H415 H 0.20691 0.35595 0.14125 0.0
loop_
_geom_bond_atom_site_label_1
_geom_bond_atom_site_label_2
_geom_bond_distance
_geom_bond_site_symmetry_2
_ccdc_geom_bond_type
P0 O11 1.490 . S
P0 C14 1.812 . S
P0 C20 1.803 . S
P0 C26 1.819 . S
H1 C15 0.941 . S
H2 C16 0.939 . S
H3 C18 0.940 . S
H4 C19 0.940 . S
H5 C21 0.939 . S
H6 C22 0.942 . S
H7 C24 0.940 . S
H8 C25 0.939 . S
H9 C27 0.941 . S
H10 C31 0.939 . S
O11 P0 1.490 . S
H12 C28 0.939 . S
H13 C30 0.940 . S
C14 P0 1.812 . S
C14 C15 1.389 . S
C14 C19 1.391 . S
C15 H1 0.941 . S
C15 C14 1.389 . S
C15 C16 1.397 . S
C16 H2 0.939 . S
C16 C15 1.397 . S
C16 C17 1.378 . S
C17 C16 1.378 . S
C17 C18 1.378 . S
C18 H3 0.940 . S
C18 C17 1.378 . S
C18 C19 1.396 . S
C19 H4 0.940 . S
C19 C14 1.391 . S
C19 C18 1.396 . S
C20 P0 1.803 . S
C20 C21 1.378 . S
C20 C25 1.400 . S
C21 H5 0.939 . S
C21 C20 1.378 . S
C21 C22 1.361 . S
C22 H6 0.942 . S
C22 C21 1.361 . S
C22 C23 1.369 . S
C23 C22 1.369 . S
C23 C24 1.404 . S
C24 H7 0.940 . S
C24 C23 1.404 . S
C24 C25 1.389 . S
C25 H8 0.939 . S
C25 C20 1.400 . S
C25 C24 1.389 . S
C26 P0 1.819 . S
C26 C27 1.391 . S
C26 C31 1.391 . S
C27 H9 0.941 . S
C27 C26 1.391 . S
C27 C28 1.396 . S
C28 H12 0.939 . S
C28 C27 1.396 . S
C28 C29 1.397 . S
C29 C28 1.397 . S
C29 C30 1.385 . S
C30 H13 0.940 . S
C30 C29 1.385 . S
C30 C31 1.388 . S
C31 H10 0.939 . S
C31 C26 1.391 . S
C31 C30 1.388 . S
P32 O43 1.490 . S
P32 C46 1.812 . S
P32 C52 1.803 . S
P32 C58 1.819 . S
H33 C47 0.941 . S
H34 C48 0.939 . S
H35 C50 0.940 . S
H36 C51 0.940 . S
H37 C53 0.939 . S
H38 C54 0.942 . S
H39 C56 0.940 . S
H40 C57 0.939 . S
H41 C59 0.941 . S
H42 C63 0.939 . S
O43 P32 1.490 . S
H44 C60 0.939 1_655 S
H45 C62 0.940 . S
C46 P32 1.812 . S
C46 C47 1.389 . S
C46 C51 1.391 . S
C47 H33 0.941 . S
C47 C46 1.389 . S
C47 C48 1.397 . S
C48 H34 0.939 . S
C48 C47 1.397 . S
C48 C49 1.378 . S
C49 C48 1.378 . S
C49 C50 1.378 . S
C50 H35 0.940 . S
C50 C49 1.378 . S
C50 C51 1.396 . S
C51 H36 0.940 . S
C51 C46 1.391 . S
C51 C50 1.396 . S
C52 P32 1.803 . S
C52 C53 1.378 . S
C52 C57 1.400 . S
C53 H37 0.939 . S
C53 C52 1.378 . S
C53 C54 1.361 . S
C54 H38 0.942 . S
C54 C53 1.361 . S
C54 C55 1.369 . S
C55 C54 1.369 . S
C55 C56 1.404 . S
C56 H39 0.940 . S
C56 C55 1.404 . S
C56 C57 1.389 . S
C57 H40 0.939 . S
C57 C52 1.400 . S
C57 C56 1.389 . S
C58 P32 1.819 . S
C58 C59 1.391 . S
C58 C63 1.391 . S
C59 H41 0.941 . S
C59 C58 1.391 . S
C59 C60 1.396 . S
C60 H44 0.939 1_455 S
C60 C59 1.396 . S
C60 C61 1.397 1_455 S
C61 C60 1.397 1_655 S
C61 C62 1.385 . S
C62 H45 0.940 . S
C62 C61 1.385 . S
C62 C63 1.388 1_655 S
C63 H42 0.939 . S
C63 C58 1.391 . S
C63 C62 1.388 1_455 S
P64 O75 1.490 . S
P64 C78 1.812 . S
P64 C84 1.803 . S
P64 C90 1.819 . S
H65 C79 0.941 . S
H66 C80 0.939 . S
H67 C82 0.940 . S
H68 C83 0.940 . S
H69 C85 0.939 . S
H70 C86 0.942 . S
H71 C88 0.940 . S
H72 C89 0.939 . S
H73 C91 0.941 . S
H74 C95 0.939 . S
O75 P64 1.490 . S
H76 C92 0.939 . S
H77 C94 0.940 . S
C78 P64 1.812 . S
C78 C79 1.389 . S
C78 C83 1.391 . S
C79 H65 0.941 . S
C79 C78 1.389 . S
C79 C80 1.397 . S
C80 H66 0.939 . S
C80 C79 1.397 . S
C80 C81 1.378 . S
C81 C80 1.378 . S
C81 C82 1.378 . S
C82 H67 0.940 . S
C82 C81 1.378 . S
C82 C83 1.396 . S
C83 H68 0.940 . S
C83 C78 1.391 . S
C83 C82 1.396 . S
C84 P64 1.803 . S
C84 C85 1.378 . S
C84 C89 1.400 . S
C85 H69 0.939 . S
C85 C84 1.378 . S
C85 C86 1.361 . S
C86 H70 0.942 . S
C86 C85 1.361 . S
C86 C87 1.369 . S
C87 C86 1.369 . S
C87 C88 1.404 . S
C88 H71 0.940 . S
C88 C87 1.404 . S
C88 C89 1.389 . S
C89 H72 0.939 . S
C89 C84 1.400 . S
C89 C88 1.389 . S
C90 P64 1.819 . S
C90 C91 1.391 . S
C90 C95 1.391 . S
C91 H73 0.941 . S
C91 C90 1.391 . S
C91 C92 1.396 . S
C92 H76 0.939 . S
C92 C91 1.396 . S
C92 C93 1.397 . S
C93 C92 1.397 . S
C93 C94 1.385 . S
C94 H77 0.940 . S
C94 C93 1.385 . S
C94 C95 1.388 . S
C95 H74 0.939 . S
C95 C90 1.391 . S
C95 C94 1.388 . S
P96 O107 1.490 . S
P96 C110 1.812 . S
P96 C116 1.803 . S
P96 C122 1.819 . S
H97 C111 0.941 . S
H98 C112 0.939 . S
H99 C114 0.940 . S
H100 C115 0.940 . S
H101 C117 0.939 . S
H102 C118 0.942 . S
H103 C120 0.940 . S
H104 C121 0.939 . S
H105 C123 0.941 . S
H106 C127 0.939 . S
O107 P96 1.490 . S
H108 C124 0.939 . S
H109 C126 0.940 . S
C110 P96 1.812 . S
C110 C111 1.389 . S
C110 C115 1.391 . S
C111 H97 0.941 . S
C111 C110 1.389 . S
C111 C112 1.397 . S
C112 H98 0.939 . S
C112 C111 1.397 . S
C112 C113 1.378 . S
C113 C112 1.378 . S
C113 C114 1.378 . S
C114 H99 0.940 . S
C114 C113 1.378 . S
C114 C115 1.396 . S
C115 H100 0.940 . S
C115 C110 1.391 . S
C115 C114 1.396 . S
C116 P96 1.803 . S
C116 C117 1.378 . S
C116 C121 1.400 . S
C117 H101 0.939 . S
C117 C116 1.378 . S
C117 C118 1.361 . S
C118 H102 0.942 . S
C118 C117 1.361 . S
C118 C119 1.369 . S
C119 C118 1.369 . S
C119 C120 1.404 . S
C120 H103 0.940 . S
C120 C119 1.404 . S
C120 C121 1.389 . S
C121 H104 0.939 . S
C121 C116 1.400 . S
C121 C120 1.389 . S
C122 P96 1.819 . S
C122 C123 1.391 . S
C122 C127 1.391 . S
C123 H105 0.941 . S
C123 C122 1.391 . S
C123 C124 1.396 . S
C124 H108 0.939 . S
C124 C123 1.396 . S
C124 C125 1.397 . S
C125 C124 1.397 . S
C125 C126 1.385 . S
C126 H109 0.940 . S
C126 C125 1.385 . S
C126 C127 1.388 . S
C127 H106 0.939 . S
C127 C122 1.391 . S
C127 C126 1.388 . S
P128 O139 1.490 . S
P128 C142 1.812 . S
P128 C148 1.803 . S
P128 C154 1.819 . S
H129 C143 0.941 . S
H130 C144 0.939 1_554 S
H131 C146 0.940 . S
H132 C147 0.940 . S
H133 C149 0.939 . S
H134 C150 0.942 . S
H135 C152 0.940 . S
H136 C153 0.939 . S
H137 C155 0.941 . S
H138 C159 0.939 . S
O139 P128 1.490 . S
H140 C156 0.939 . S
H141 C158 0.940 . S
C142 P128 1.812 . S
C142 C143 1.389 . S
C142 C147 1.391 . S
C143 H129 0.941 . S
C143 C142 1.389 . S
C143 C144 1.397 . S
C144 H130 0.939 1_556 S
C144 C143 1.397 . S
C144 C145 1.378 . S
C145 C144 1.378 . S
C145 C146 1.378 . S
C146 H131 0.940 . S
C146 C145 1.378 . S
C146 C147 1.396 . S
C147 H132 0.940 . S
C147 C142 1.391 . S
C147 C146 1.396 . S
C148 P128 1.803 . S
C148 C149 1.378 . S
C148 C153 1.400 . S
C149 H133 0.939 . S
C149 C148 1.378 . S
C149 C150 1.361 . S
C150 H134 0.942 . S
C150 C149 1.361 . S
C150 C151 1.369 . S
C151 C150 1.369 . S
C151 C152 1.404 . S
C152 H135 0.940 . S
C152 C151 1.404 . S
C152 C153 1.389 . S
C153 H136 0.939 . S
C153 C148 1.400 . S
C153 C152 1.389 . S
C154 P128 1.819 . S
C154 C155 1.391 . S
C154 C159 1.391 . S
C155 H137 0.941 . S
C155 C154 1.391 . S
C155 C156 1.396 . S
C156 H140 0.939 . S
C156 C155 1.396 . S
C156 C157 1.397 . S
C157 C156 1.397 . S
C157 C158 1.385 . S
C158 H141 0.940 . S
C158 C157 1.385 . S
C158 C159 1.388 . S
C159 H138 0.939 . S
C159 C154 1.391 . S
C159 C158 1.388 . S
P160 O171 1.490 1_655 S
P160 C174 1.812 . S
P160 C180 1.803 1_655 S
P160 C186 1.819 . S
H161 C175 0.941 1_455 S
H162 C176 0.939 . S
H163 C178 0.940 . S
H164 C179 0.940 . S
H165 C181 0.939 . S
H166 C182 0.942 . S
H167 C184 0.934 1_655 S
H168 C185 0.939 . S
H169 C187 0.941 . S
H170 C191 0.939 . S
O171 P160 1.490 1_455 S
H172 C188 0.939 . S
H173 C190 0.940 . S
C174 P160 1.812 . S
C174 C175 1.389 . S
C174 C179 1.391 . S
C175 H161 0.941 1_655 S
C175 C174 1.389 . S
C175 C176 1.397 . S
C176 H162 0.939 . S
C176 C175 1.397 . S
C176 C177 1.378 . S
C177 C176 1.378 . S
C177 C178 1.378 . S
C178 H163 0.940 . S
C178 C177 1.378 . S
C178 C179 1.396 . S
C179 H164 0.940 . S
C179 C174 1.391 . S
C179 C178 1.396 . S
C180 P160 1.803 1_455 S
C180 C181 1.378 . S
C180 C185 1.400 1_455 S
C181 H165 0.939 . S
C181 C180 1.378 . S
C181 C182 1.361 . S
C182 H166 0.942 . S
C182 C181 1.361 . S
C182 C183 1.369 . S
C183 C182 1.369 . S
C183 C184 1.404 . S
C184 H167 0.934 1_455 S
C184 C183 1.404 . S
C184 C185 1.389 1_455 S
C185 H168 0.939 . S
C185 C180 1.400 1_655 S
C185 C184 1.389 1_655 S
C186 P160 1.819 . S
C186 C187 1.391 . S
C186 C191 1.391 . S
C187 H169 0.941 . S
C187 C186 1.391 . S
C187 C188 1.396 . S
C188 H172 0.939 . S
C188 C187 1.396 . S
C188 C189 1.397 . S
C189 C188 1.397 . S
C189 C190 1.385 . S
C190 H173 0.940 . S
C190 C189 1.385 . S
C190 C191 1.388 . S
C191 H170 0.939 . S
C191 C186 1.391 . S
C191 C190 1.388 . S
P192 O203 1.490 . S
P192 C206 1.812 . S
P192 C212 1.803 . S
P192 C218 1.819 . S
H193 C207 0.941 . S
H194 C208 0.939 . S
H195 C210 0.940 . S
H196 C211 0.940 . S
H197 C213 0.939 . S
H198 C214 0.942 . S
H199 C216 0.940 . S
H200 C217 0.939 . S
H201 C219 0.941 . S
H202 C223 0.939 . S
O203 P192 1.490 . S
H204 C220 0.939 . S
H205 C222 0.940 . S
C206 P192 1.812 . S
C206 C207 1.389 . S
C206 C211 1.391 . S
C207 H193 0.941 . S
C207 C206 1.389 . S
C207 C208 1.397 . S
C208 H194 0.939 . S
C208 C207 1.397 . S
C208 C209 1.378 . S
C209 C208 1.378 . S
C209 C210 1.378 . S
C210 H195 0.940 . S
C210 C209 1.378 . S
C210 C211 1.396 . S
C211 H196 0.940 . S
C211 C206 1.391 . S
C211 C210 1.396 . S
C212 P192 1.803 . S
C212 C213 1.378 . S
C212 C217 1.400 . S
C213 H197 0.939 . S
C213 C212 1.378 . S
C213 C214 1.361 . S
C214 H198 0.942 . S
C214 C213 1.361 . S
C214 C215 1.369 . S
C215 C214 1.369 . S
C215 C216 1.404 . S
C216 H199 0.940 . S
C216 C215 1.404 . S
C216 C217 1.389 . S
C217 H200 0.939 . S
C217 C212 1.400 . S
C217 C216 1.389 . S
C218 P192 1.819 . S
C218 C219 1.391 . S
C218 C223 1.391 . S
C219 H201 0.941 . S
C219 C218 1.391 . S
C219 C220 1.396 . S
C220 H204 0.939 . S
C220 C219 1.396 . S
C220 C221 1.397 . S
C221 C220 1.397 . S
C221 C222 1.385 . S
C222 H205 0.940 . S
C222 C221 1.385 . S
C222 C223 1.388 . S
C223 H202 0.939 . S
C223 C218 1.391 . S
C223 C222 1.388 . S
P224 O235 1.490 . S
P224 C238 1.812 . S
P224 C244 1.803 . S
P224 C250 1.819 . S
H225 C239 0.941 . S
H226 C240 0.939 . S
H227 C242 0.940 . S
H228 C243 0.940 . S
H229 C245 0.939 . S
H230 C246 0.942 . S
H231 C248 0.940 . S
H232 C249 0.939 . S
H233 C251 0.941 . S
H234 C255 0.939 . S
O235 P224 1.490 . S
H236 C252 0.939 . S
H237 C254 0.940 . S
C238 P224 1.812 . S
C238 C239 1.389 . S
C238 C243 1.391 . S
C239 H225 0.941 . S
C239 C238 1.389 . S
C239 C240 1.397 . S
C240 H226 0.939 . S
C240 C239 1.397 . S
C240 C241 1.378 . S
C241 C240 1.378 . S
C241 C242 1.378 . S
C242 H227 0.940 . S
C242 C241 1.378 . S
C242 C243 1.396 . S
C243 H228 0.940 . S
C243 C238 1.391 . S
C243 C242 1.396 . S
C244 P224 1.803 . S
C244 C245 1.378 . S
C244 C249 1.400 . S
C245 H229 0.939 . S
C245 C244 1.378 . S
C245 C246 1.361 . S
C246 H230 0.942 . S
C246 C245 1.361 . S
C246 C247 1.369 . S
C247 C246 1.369 . S
C247 C248 1.404 . S
C248 H231 0.940 . S
C248 C247 1.404 . S
C248 C249 1.389 . S
C249 H232 0.939 . S
C249 C244 1.400 . S
C249 C248 1.389 . S
C250 P224 1.819 . S
C250 C251 1.391 . S
C250 C255 1.391 . S
C251 H233 0.941 . S
C251 C250 1.391 . S
C251 C252 1.396 . S
C252 H236 0.939 . S
C252 C251 1.396 . S
C252 C253 1.397 . S
C253 C252 1.397 . S
C253 C254 1.385 . S
C254 H237 0.940 . S
C254 C253 1.385 . S
C254 C255 1.388 . S
C255 H234 0.939 . S
C255 C250 1.391 . S
C255 C254 1.388 . S
Tb256 C265 2.764 . S
Tb256 O266 2.325 . S
Tb256 O269 2.303 . S
Tb256 O273 2.322 1_545 S
Tb256 O274 2.349 1_545 S
Tb256 O277 2.415 . S
Tb256 O278 2.399 . S
Tb257 O267 2.322 . S
Tb257 O268 2.349 . S
Tb257 O270 2.415 1_545 S
Tb257 O271 2.399 1_545 S
Tb257 O272 2.325 1_545 S
Tb257 O275 2.303 1_545 S
Tb257 C286 2.764 1_545 S
C258 O274 1.261 1_655 S
C258 O275 1.257 . S
C259 C262 1.358 . S
C259 C263 1.332 . S
C259 C265 1.504 . S
C260 C261 1.373 . S
C260 C264 1.308 . S
C261 C260 1.373 . S
C261 C262 1.429 . S
C261 H288 0.932 . S
C262 C259 1.358 . S
C262 C261 1.429 . S
C262 H289 0.930 . S
C263 C259 1.332 . S
C263 C264 1.394 . S
C263 H290 0.932 . S
C264 C260 1.308 . S
C264 C263 1.394 . S
C264 H291 0.929 . S
C265 Tb256 2.764 . S
C265 C259 1.504 . S
C265 O277 1.239 . S
C265 O278 1.263 . S
O266 Tb256 2.325 . S
O266 C276 1.236 1_455 S
O267 Tb257 2.322 . S
O267 C276 1.257 . S
O268 Tb257 2.349 . S
O268 C279 1.261 1_655 S
O269 Tb256 2.303 . S
O269 C279 1.257 . S
O270 Tb257 2.415 1_565 S
O270 C286 1.239 . S
O271 Tb257 2.399 1_565 S
O271 C286 1.263 . S
O272 Tb257 2.325 1_565 S
O272 C287 1.236 1_655 S
O273 Tb256 2.322 1_565 S
O273 C287 1.257 . S
O274 Tb256 2.349 1_565 S
O274 C258 1.261 1_455 S
O275 Tb257 2.303 1_565 S
O275 C258 1.257 . S
C276 O266 1.236 1_655 S
C276 O267 1.257 . S
O277 Tb256 2.415 . S
O277 C265 1.239 . S
O278 Tb256 2.399 . S
O278 C265 1.263 . S
C279 O268 1.261 1_455 S
C279 O269 1.257 . S
C280 C283 1.358 . S
C280 C284 1.332 . S
C280 C286 1.504 . S
C281 C282 1.373 . S
C281 C285 1.308 . S
C282 C281 1.373 . S
C282 C283 1.429 . S
C282 H292 0.932 . S
C283 C280 1.358 . S
C283 C282 1.429 . S
C283 H293 0.930 . S
C284 C280 1.332 . S
C284 C285 1.394 . S
C284 H294 0.932 . S
C285 C281 1.308 . S
C285 C284 1.394 . S
C285 H295 0.929 . S
C286 Tb257 2.764 1_565 S
C286 O270 1.239 . S
C286 O271 1.263 . S
C286 C280 1.504 . S
C287 O272 1.236 1_455 S
C287 O273 1.257 . S
H288 C261 0.932 . S
H289 C262 0.930 . S
H290 C263 0.932 . S
H291 C264 0.929 . S
H292 C282 0.932 . S
H293 C283 0.930 . S
H294 C284 0.932 . S
H295 C285 0.929 . S
Tb296 C305 2.764 . S
Tb296 O306 2.325 1_554 S
Tb296 O309 2.303 . S
Tb296 O313 2.322 1_545 S
Tb296 O314 2.349 1_544 S
Tb296 O317 2.415 . S
Tb296 O318 2.399 . S
Tb297 O307 2.322 . S
Tb297 O308 2.349 1_556 S
Tb297 O310 2.415 1_545 S
Tb297 O311 2.399 1_545 S
Tb297 O312 2.325 1_546 S
Tb297 O315 2.303 1_545 S
Tb297 C326 2.764 1_545 S
C298 O314 1.261 . S
C298 O315 1.257 . S
C299 C302 1.358 . S
C299 C303 1.332 . S
C299 C305 1.504 . S
C300 C301 1.373 . S
C300 C304 1.308 . S
C301 C300 1.373 . S
C301 C302 1.429 . S
C301 H328 0.932 . S
C302 C299 1.358 . S
C302 C301 1.429 . S
C302 H329 0.930 . S
C303 C299 1.332 . S
C303 C304 1.394 . S
C303 H330 0.932 . S
C304 C300 1.308 . S
C304 C303 1.394 . S
C304 H331 0.929 . S
C305 Tb296 2.764 . S
C305 C299 1.504 . S
C305 O317 1.239 . S
C305 O318 1.263 . S
O306 Tb296 2.325 1_556 S
O306 C316 1.236 . S
O307 Tb297 2.322 . S
O307 C316 1.257 . S
O308 Tb297 2.349 1_554 S
O308 C319 1.261 . S
O309 Tb296 2.303 . S
O309 C319 1.257 . S
O310 Tb297 2.415 1_565 S
O310 C326 1.239 . S
O311 Tb297 2.399 1_565 S
O311 C326 1.263 . S
O312 Tb297 2.325 1_564 S
O312 C327 1.236 . S
O313 Tb296 2.322 1_565 S
O313 C327 1.257 . S
O314 Tb296 2.349 1_566 S
O314 C298 1.261 . S
O315 Tb297 2.303 1_565 S
O315 C298 1.257 . S
C316 O306 1.236 . S
C316 O307 1.257 . S
O317 Tb296 2.415 . S
O317 C305 1.239 . S
O318 Tb296 2.399 . S
O318 C305 1.263 . S
C319 O308 1.261 . S
C319 O309 1.257 . S
C320 C323 1.358 . S
C320 C324 1.332 . S
C320 C326 1.504 . S
C321 C322 1.373 . S
C321 C325 1.308 . S
C322 C321 1.373 . S
C322 C323 1.429 . S
C322 H332 0.932 . S
C323 C320 1.358 . S
C323 C322 1.429 . S
C323 H333 0.930 . S
C324 C320 1.332 . S
C324 C325 1.394 . S
C324 H334 0.932 . S
C325 C321 1.308 . S
C325 C324 1.394 . S
C325 H335 0.929 . S
C326 Tb297 2.764 1_565 S
C326 O310 1.239 . S
C326 O311 1.263 . S
C326 C320 1.504 . S
C327 O312 1.236 . S
C327 O313 1.257 . S
H328 C301 0.932 . S
H329 C302 0.930 . S
H330 C303 0.932 . S
H331 C304 0.929 . S
H332 C322 0.932 . S
H333 C323 0.930 . S
H334 C324 0.932 . S
H335 C325 0.929 . S
Tb336 C345 2.764 . S
Tb336 O346 2.325 . S
Tb336 O349 2.303 . S
Tb336 O353 2.322 . S
Tb336 O354 2.349 . S
Tb336 O357 2.415 . S
Tb336 O358 2.399 . S
Tb337 O347 2.322 . S
Tb337 O348 2.349 . S
Tb337 O350 2.415 . S
Tb337 O351 2.399 . S
Tb337 O352 2.325 . S
Tb337 O355 2.303 . S
Tb337 C366 2.764 . S
C338 O354 1.261 . S
C338 O355 1.257 . S
C339 C342 1.358 . S
C339 C343 1.332 . S
C339 C345 1.504 . S
C340 C341 1.373 . S
C340 C344 1.308 . S
C341 C340 1.373 . S
C341 C342 1.429 . S
C341 H368 0.932 . S
C342 C339 1.358 . S
C342 C341 1.429 . S
C342 H369 0.930 . S
C343 C339 1.332 . S
C343 C344 1.394 . S
C343 H370 0.932 . S
C344 C340 1.308 . S
C344 C343 1.394 . S
C344 H371 0.929 . S
C345 Tb336 2.764 . S
C345 C339 1.504 . S
C345 O357 1.239 . S
C345 O358 1.263 . S
O346 Tb336 2.325 . S
O346 C356 1.236 . S
O347 Tb337 2.322 . S
O347 C356 1.257 . S
O348 Tb337 2.349 . S
O348 C359 1.261 . S
O349 Tb336 2.303 . S
O349 C359 1.257 . S
O350 Tb337 2.415 . S
O350 C366 1.239 . S
O351 Tb337 2.399 . S
O351 C366 1.263 . S
O352 Tb337 2.325 . S
O352 C367 1.236 . S
O353 Tb336 2.322 . S
O353 C367 1.257 . S
O354 Tb336 2.349 . S
O354 C338 1.261 . S
O355 Tb337 2.303 . S
O355 C338 1.257 . S
C356 O346 1.236 . S
C356 O347 1.257 . S
O357 Tb336 2.415 . S
O357 C345 1.239 . S
O358 Tb336 2.399 . S
O358 C345 1.263 . S
C359 O348 1.261 . S
C359 O349 1.257 . S
C360 C363 1.358 . S
C360 C364 1.332 . S
C360 C366 1.504 . S
C361 C362 1.373 . S
C361 C365 1.308 . S
C362 C361 1.373 . S
C362 C363 1.429 . S
C362 H372 0.932 . S
C363 C360 1.358 . S
C363 C362 1.429 . S
C363 H373 0.930 . S
C364 C360 1.332 . S
C364 C365 1.394 . S
C364 H374 0.932 . S
C365 C361 1.308 . S
C365 C364 1.394 . S
C365 H375 0.929 . S
C366 Tb337 2.764 . S
C366 O350 1.239 . S
C366 O351 1.263 . S
C366 C360 1.504 . S
C367 O352 1.236 . S
C367 O353 1.257 . S
H368 C341 0.932 . S
H369 C342 0.930 . S
H370 C343 0.932 . S
H371 C344 0.929 . S
H372 C362 0.932 . S
H373 C363 0.930 . S
H374 C364 0.932 . S
H375 C365 0.929 . S
Tb376 C385 2.764 . S
Tb376 O386 2.325 . S
Tb376 O389 2.303 1_556 S
Tb376 O393 2.316 1_656 S
Tb376 O394 2.349 1_655 S
Tb376 O397 2.415 . S
Tb376 O398 2.399 . S
Tb377 O387 2.322 1_455 S
Tb377 O388 2.349 1_455 S
Tb377 O390 2.415 . S
Tb377 O391 2.399 . S
Tb377 O392 2.325 . S
Tb377 O395 2.303 1_554 S
Tb377 C406 2.764 . S
C378 O394 1.261 . S
C378 O395 1.257 . S
C379 C382 1.358 . S
C379 C383 1.332 . S
C379 C385 1.504 . S
C380 C381 1.373 . S
C380 C384 1.308 . S
C381 C380 1.373 . S
C381 C382 1.429 . S
C381 H408 0.932 . S
C382 C379 1.358 . S
C382 C381 1.429 . S
C382 H409 0.930 . S
C383 C379 1.332 . S
C383 C384 1.394 . S
C383 H410 0.932 . S
C384 C380 1.308 . S
C384 C383 1.394 . S
C384 H411 0.929 . S
C385 Tb376 2.764 . S
C385 C379 1.504 . S
C385 O397 1.239 . S
C385 O398 1.263 . S
O386 Tb376 2.325 . S
O386 C396 1.236 . S
O387 Tb377 2.322 1_655 S
O387 C396 1.257 1_554 S
O388 Tb377 2.349 1_655 S
O388 C399 1.261 . S
O389 Tb376 2.303 1_554 S
O389 C399 1.257 . S
O390 Tb377 2.415 . S
O390 C406 1.239 . S
O391 Tb377 2.399 . S
O391 C406 1.263 . S
O392 Tb377 2.325 . S
O392 C407 1.236 . S
O393 Tb376 2.316 1_454 S
O393 C407 1.268 . S
O394 Tb376 2.349 1_455 S
O394 C378 1.261 . S
O395 Tb377 2.303 1_556 S
O395 C378 1.257 . S
C396 O386 1.236 . S
C396 O387 1.257 1_556 S
O397 Tb376 2.415 . S
O397 C385 1.239 . S
O398 Tb376 2.399 . S
O398 C385 1.263 . S
C399 O388 1.261 . S
C399 O389 1.257 . S
C400 C403 1.358 . S
C400 C404 1.332 . S
C400 C406 1.504 . S
C401 C402 1.373 . S
C401 C405 1.308 . S
C402 C401 1.373 . S
C402 C403 1.429 . S
C402 H412 0.932 . S
C403 C400 1.358 . S
C403 C402 1.429 . S
C403 H413 0.930 . S
C404 C400 1.332 . S
C404 C405 1.394 . S
C404 H414 0.932 . S
C405 C401 1.308 . S
C405 C404 1.394 . S
C405 H415 0.929 . S
C406 Tb377 2.764 . S
C406 O390 1.239 . S
C406 O391 1.263 . S
C406 C400 1.504 . S
C407 O392 1.236 . S
C407 O393 1.268 . S
H408 C381 0.932 . S
H409 C382 0.930 . S
H410 C383 0.932 . S
H411 C384 0.929 . S
H412 C402 0.932 . S
H413 C403 0.930 . S
H414 C404 0.932 . S
H415 C405 0.929 . S
C29 C260 1.521 . S
C49 C321 0.926 . S
C359 C93 3.752 . S
C119 C399 3.435 . S
C319 C17 3.040 . S
C287 C61 3.126 1_455 S
C396 C81 2.405 . S
C356 C125 2.541 . S
C23 C401 2.740 . S
C316 C87 3.327 . S
C113 C258 3.150 . S
C55 C361 2.564 . S
C281 C157 1.293 . S
C189 C300 1.365 . S
C221 C338 3.759 . S
C253 C378 3.571 . S
C145 C298 2.578 . S
C276 C183 3.740 1_655 S
C407 C209 2.458 . S
C367 C247 2.493 . S
C151 C380 2.636 . S
C327 C215 3.486 . S
C279 C241 3.131 . S
C177 C340 2.982 . S
