# Generated by pormake.
# Topology pto, (3,4)-cn, num edge types: 1
# Building blocks:
#     Node 0, Type 0, BuildingBlock: WUSLED_clean_sbu_0, # of connection points: 3
#     Node 1, Type 0, BuildingBlock: WUSLED_clean_sbu_0, # of connection points: 3
#     Node 2, Type 0, BuildingBlock: WUSLED_clean_sbu_0, # of connection points: 3
#     Node 3, Type 0, BuildingBlock: WUSLED_clean_sbu_0, # of connection points: 3
#     Node 4, Type 0, BuildingBlock: WUSLED_clean_sbu_0, # of connection points: 3
#     Node 5, Type 0, BuildingBlock: WUSLED_clean_sbu_0, # of connection points: 3
#     Node 6, Type 0, BuildingBlock: WUSLED_clean_sbu_0, # of connection points: 3
#     Node 7, Type 0, BuildingBlock: WUSLED_clean_sbu_0, # of connection points: 3
#     Node 8, Type 1, BuildingBlock: AZAVOO_clean_linker_0, # of connection points: 4
#     Node 9, Type 1, BuildingBlock: AZAVOO_clean_linker_0, # of connection points: 4
#     Node 10, Type 1, BuildingBlock: AZAVOO_clean_linker_0, # of connection points: 4
#     Node 11, Type 1, BuildingBlock: AZAVOO_clean_linker_0, # of connection points: 4
#     Node 12, Type 1, BuildingBlock: AZAVOO_clean_linker_0, # of connection points: 4
#     Node 13, Type 1, BuildingBlock: AZAVOO_clean_linker_0, # of connection points: 4
#     Edge 14, Type (0, 1), None
#     Edge 15, Type (0, 1), None
#     Edge 16, Type (0, 1), None
#     Edge 17, Type (0, 1), None
#     Edge 18, Type (0, 1), None
#     Edge 19, Type (0, 1), None
#     Edge 20, Type (0, 1), None
#     Edge 21, Type (0, 1), None
#     Edge 22, Type (0, 1), None
#     Edge 23, Type (0, 1), None
#     Edge 24, Type (0, 1), None
#     Edge 25, Type (0, 1), None
#     Edge 26, Type (0, 1), None
#     Edge 27, Type (0, 1), None
#     Edge 28, Type (0, 1), None
#     Edge 29, Type (0, 1), None
#     Edge 30, Type (0, 1), None
#     Edge 31, Type (0, 1), None
#     Edge 32, Type (0, 1), None
#     Edge 33, Type (0, 1), None
#     Edge 34, Type (0, 1), None
#     Edge 35, Type (0, 1), None
#     Edge 36, Type (0, 1), None
#     Edge 37, Type (0, 1), None
# Relax obj value: 0.067
# Max RMSD: 0.248
# Mean RMSD: 0.097
data_MOF--net-pto--node1-WUSLED_clean_sbu_0--node2-AZAVOO_clean_linker_0--edge1-none
_symmetry_space_group_name_H-M    P1
_symmetry_Int_Tables_number       1
_symmetry_cell_setting            triclinic
loop_
_symmetry_equiv_pos_as_xyz
'x, y, z'
_cell_length_a     37.815845
_cell_length_b     37.808742
_cell_length_c     37.65117
_cell_angle_alpha  90.385697
_cell_angle_beta   91.541181
_cell_angle_gamma 90.262237
loop_
_atom_site_label
_atom_site_type_symbol
_atom_site_fract_x
_atom_site_fract_y
_atom_site_fract_z
_atom_type_partial_charge
C0 C 0.24739 0.25061 0.32879 0.0
C1 C 0.26972 0.22275 0.31929 0.0
C2 C 0.25363 0.1902 0.37227 0.0
C3 C 0.27282 0.19279 0.34084 0.0
C4 C 0.2314 0.21837 0.38161 0.0
C5 C 0.22832 0.24824 0.36005 0.0
U6 U 0.27568 0.30622 0.25026 0.0
O7 O 0.24423 0.33639 0.21109 0.0
O8 O 0.28276 0.36395 0.24612 0.0
C9 C 0.25707 0.36704 0.22214 0.0
C10 C 0.24397 0.28237 0.30658 0.0
C11 C 0.23067 0.39456 0.22925 0.0
C12 C 0.17572 0.41343 0.25536 0.0
C13 C 0.20148 0.38753 0.25036 0.0
C14 C 0.20849 0.45401 0.21898 0.0
C15 C 0.17875 0.44694 0.23951 0.0
C16 C 0.23419 0.42804 0.21392 0.0
C17 C 0.35046 0.27031 0.1927 0.0
C18 C 0.36567 0.29076 0.13389 0.0
C19 C 0.40508 0.25132 0.16616 0.0
C20 C 0.38193 0.25096 0.19445 0.0
C21 C 0.39716 0.271 0.13538 0.0
C22 C 0.34251 0.29044 0.16234 0.0
C23 C 0.32626 0.26841 0.2226 0.0
O24 O 0.27105 0.30428 0.30836 0.0
O25 O 0.23187 0.27693 0.27394 0.0
O26 O 0.33192 0.29155 0.24835 0.0
O27 O 0.29256 0.26399 0.21419 0.0
H28 H 0.2847 0.22417 0.2952 0.0
H29 H 0.2899 0.17149 0.33265 0.0
H30 H 0.21671 0.2176 0.4059 0.0
H31 H 0.21113 0.2696 0.3679 0.0
H32 H 0.15288 0.40678 0.27077 0.0
H33 H 0.19829 0.36181 0.26241 0.0
H34 H 0.21184 0.47956 0.20667 0.0
H35 H 0.25663 0.43397 0.19765 0.0
H36 H 0.35864 0.30603 0.11054 0.0
H37 H 0.4294 0.23641 0.1686 0.0
H38 H 0.38859 0.23542 0.21774 0.0
H39 H 0.31831 0.30563 0.16053 0.0
C40 C 0.25491 0.84601 0.67125 0.0
C41 C 0.26831 0.87917 0.68222 0.0
C42 C 0.26221 0.90137 0.62144 0.0
C43 C 0.27196 0.90658 0.65753 0.0
C44 C 0.24959 0.86778 0.61065 0.0
C45 C 0.24597 0.84052 0.63526 0.0
U46 U 0.27244 0.79337 0.75832 0.0
O47 O 0.23394 0.76808 0.79294 0.0
O48 O 0.27284 0.73553 0.7656 0.0
C49 C 0.24518 0.73597 0.78599 0.0
C50 C 0.24863 0.81705 0.6966 0.0
C51 C 0.21791 0.70859 0.77875 0.0
C52 C 0.16017 0.68945 0.75541 0.0
C53 C 0.18638 0.7157 0.75958 0.0
C54 C 0.19705 0.64865 0.78886 0.0
C55 C 0.16501 0.6557 0.77043 0.0
C56 C 0.22311 0.67479 0.79297 0.0
C57 C 0.34446 0.82066 0.82694 0.0
C58 C 0.35491 0.78953 0.88269 0.0
C59 C 0.39407 0.83712 0.86605 0.0
C60 C 0.37414 0.84192 0.83465 0.0
C61 C 0.38476 0.81089 0.89056 0.0
C62 C 0.33488 0.79443 0.85117 0.0
C63 C 0.32433 0.82596 0.79328 0.0
O64 O 0.2736 0.79313 0.69976 0.0
O65 O 0.23498 0.82593 0.72715 0.0
O66 O 0.29088 0.83452 0.79622 0.0
O67 O 0.32945 0.80216 0.76837 0.0
H68 H 0.27544 0.88403 0.70989 0.0
H69 H 0.28154 0.9321 0.6669 0.0
H70 H 0.24246 0.86248 0.58307 0.0
H71 H 0.23573 0.81512 0.62617 0.0
H72 H 0.13578 0.69587 0.74122 0.0
H73 H 0.18179 0.74164 0.74835 0.0
H74 H 0.20204 0.62283 0.80017 0.0
H75 H 0.24728 0.66871 0.80776 0.0
H76 H 0.34699 0.7691 0.90091 0.0
H77 H 0.41737 0.85344 0.87067 0.0
H78 H 0.38216 0.86207 0.81615 0.0
H79 H 0.31208 0.77765 0.8456 0.0
C80 C 0.67946 0.79005 0.21811 0.0
C81 C 0.6865 0.77105 0.18698 0.0
C82 C 0.62662 0.78251 0.16396 0.0
C83 C 0.66032 0.76732 0.16013 0.0
C84 C 0.61973 0.80124 0.1954 0.0
C85 C 0.64589 0.8049 0.2222 0.0
U86 U 0.7716 0.77459 0.2621 0.0
O87 O 0.80706 0.81237 0.28983 0.0
O88 O 0.78495 0.76774 0.31904 0.0
C89 C 0.80343 0.79724 0.32087 0.0
C90 C 0.70667 0.79518 0.24645 0.0
C91 C 0.79569 0.82126 0.35055 0.0
C92 C 0.76781 0.87408 0.37363 0.0
C93 C 0.77228 0.84966 0.34607 0.0
C94 C 0.80893 0.84114 0.41099 0.0
C95 C 0.78649 0.87041 0.40628 0.0
C96 C 0.8135 0.81684 0.38334 0.0
C97 C 0.84179 0.71633 0.22196 0.0
C98 C 0.89988 0.7105 0.25075 0.0
C99 C 0.88409 0.67422 0.19945 0.0
C100 C 0.85088 0.69029 0.1973 0.0
C101 C 0.90899 0.68386 0.22638 0.0
C102 C 0.86658 0.72658 0.24856 0.0
C103 C 0.80615 0.73189 0.22026 0.0
O104 O 0.71402 0.76735 0.26598 0.0
O105 O 0.735 0.81307 0.2377 0.0
O106 O 0.80513 0.76634 0.21594 0.0
O107 O 0.78442 0.72063 0.24445 0.0
H108 H 0.71232 0.75949 0.18331 0.0
H109 H 0.66677 0.7533 0.13599 0.0
H110 H 0.59408 0.81306 0.19932 0.0
H111 H 0.63996 0.8196 0.2461 0.0
H112 H 0.75078 0.89658 0.3688 0.0
H113 H 0.75825 0.85352 0.32094 0.0
H114 H 0.82337 0.83729 0.43589 0.0
H115 H 0.83159 0.79498 0.3873 0.0
H116 H 0.91836 0.71872 0.27171 0.0
H117 H 0.88968 0.65328 0.1807 0.0
H118 H 0.83202 0.68188 0.17674 0.0
H119 H 0.85997 0.7467 0.26788 0.0
C120 C 0.77706 0.15957 0.72878 0.0
C121 C 0.79859 0.16711 0.70003 0.0
C122 C 0.78741 0.10819 0.67548 0.0
C123 C 0.80363 0.14171 0.67356 0.0
C124 C 0.7666 0.10049 0.70489 0.0
C125 C 0.76147 0.12602 0.73132 0.0
U126 U 0.79786 0.2486 0.77225 0.0
O127 O 0.76253 0.29135 0.78839 0.0
O128 O 0.79636 0.26511 0.82843 0.0
C129 C 0.77043 0.28749 0.82235 0.0
C130 C 0.76977 0.18692 0.75546 0.0
C131 C 0.73999 0.28417 0.84555 0.0
C132 C 0.68192 0.26019 0.85789 0.0
C133 C 0.71131 0.262 0.83621 0.0
C134 C 0.71002 0.30199 0.8989 0.0
C135 C 0.68082 0.28037 0.8894 0.0
C136 C 0.73928 0.30391 0.8771 0.0
C137 C 0.87418 0.30463 0.74046 0.0
C138 C 0.88522 0.36349 0.76468 0.0
C139 C 0.92479 0.33867 0.7216 0.0
C140 C 0.90428 0.30782 0.71986 0.0
C141 C 0.9155 0.36691 0.74401 0.0
C142 C 0.86474 0.33259 0.76292 0.0
C143 C 0.85287 0.27207 0.73839 0.0
O144 O 0.79417 0.1911 0.78068 0.0
O145 O 0.75803 0.21701 0.74255 0.0
O146 O 0.82011 0.27614 0.72666 0.0
O147 O 0.85552 0.25149 0.76633 0.0
H148 H 0.81082 0.19293 0.69764 0.0
H149 H 0.8192 0.14884 0.65093 0.0
H150 H 0.75395 0.07489 0.70727 0.0
H151 H 0.74486 0.11977 0.75345 0.0
H152 H 0.6598 0.24354 0.84958 0.0
H153 H 0.71147 0.24644 0.81194 0.0
H154 H 0.71036 0.31735 0.92329 0.0
H155 H 0.76131 0.32099 0.88479 0.0
H156 H 0.87712 0.38484 0.78193 0.0
H157 H 0.94824 0.34017 0.70578 0.0
H158 H 0.91199 0.28639 0.7025 0.0
H159 H 0.84149 0.33052 0.77901 0.0
C160 C 0.86979 0.70977 0.79087 0.0
C161 C 0.89189 0.71693 0.76238 0.0
C162 C 0.93084 0.66858 0.78028 0.0
C163 C 0.92214 0.69648 0.7571 0.0
C164 C 0.90873 0.66191 0.80903 0.0
C165 C 0.87854 0.68233 0.81424 0.0
U166 U 0.80527 0.78126 0.76102 0.0
O167 O 0.74713 0.78246 0.75997 0.0
O168 O 0.77724 0.82169 0.79178 0.0
C169 C 0.74588 0.80881 0.78286 0.0
C170 C 0.83725 0.7302 0.79602 0.0
C171 C 0.72088 0.80483 0.81193 0.0
C172 C 0.69354 0.77024 0.85814 0.0
C173 C 0.71854 0.77345 0.83148 0.0
C174 C 0.67344 0.82984 0.84624 0.0
C175 C 0.67063 0.79842 0.86579 0.0
C176 C 0.69828 0.83295 0.81961 0.0
C177 C 0.82531 0.83312 0.67689 0.0
C178 C 0.78637 0.87858 0.65291 0.0
C179 C 0.84339 0.86843 0.62689 0.0
C180 C 0.85018 0.84153 0.65136 0.0
C181 C 0.81152 0.88748 0.62751 0.0
C182 C 0.79326 0.85166 0.67749 0.0
C183 C 0.83367 0.80557 0.7031 0.0
O184 O 0.84194 0.76388 0.80373 0.0
O185 O 0.8118 0.72457 0.77215 0.0
O186 O 0.81193 0.77835 0.7032 0.0
O187 O 0.84239 0.81716 0.73513 0.0
H188 H 0.88551 0.73807 0.74404 0.0
H189 H 0.9386 0.70238 0.73478 0.0
H190 H 0.91413 0.64016 0.82691 0.0
H191 H 0.86169 0.67632 0.83626 0.0
H192 H 0.69234 0.74582 0.87294 0.0
H193 H 0.73586 0.75145 0.82601 0.0
H194 H 0.65594 0.85186 0.85103 0.0
H195 H 0.6996 0.85732 0.80469 0.0
H196 H 0.76173 0.89296 0.6543 0.0
H197 H 0.86309 0.87427 0.60738 0.0
H198 H 0.87502 0.82741 0.65049 0.0
H199 H 0.7738 0.84556 0.69718 0.0
C200 C 0.66477 0.26797 0.22637 0.0
C201 C 0.66671 0.29372 0.19987 0.0
C202 C 0.61038 0.27332 0.17412 0.0
C203 C 0.63971 0.2964 0.17394 0.0
C204 C 0.60823 0.24813 0.20128 0.0
C205 C 0.63522 0.24554 0.22723 0.0
U206 U 0.7554 0.29367 0.26613 0.0
O207 O 0.79938 0.25953 0.28342 0.0
O208 O 0.77411 0.29436 0.32196 0.0
C209 C 0.79653 0.26843 0.317 0.0
C210 C 0.69403 0.26313 0.25223 0.0
C211 C 0.79359 0.23854 0.34139 0.0
C212 C 0.7602 0.18922 0.36461 0.0
C213 C 0.76237 0.21841 0.34217 0.0
C214 C 0.82044 0.2001 0.38568 0.0
C215 C 0.78929 0.17962 0.38648 0.0
C216 C 0.82253 0.22932 0.3633 0.0
C217 C 0.80859 0.37021 0.23069 0.0
C218 C 0.86406 0.38786 0.25984 0.0
C219 C 0.84453 0.41657 0.20544 0.0
C220 C 0.8142 0.39523 0.20414 0.0
C221 C 0.86974 0.41325 0.23341 0.0
C222 C 0.83378 0.36647 0.25844 0.0
C223 C 0.77647 0.34818 0.22937 0.0
O224 O 0.72384 0.25234 0.23873 0.0
O225 O 0.69848 0.28855 0.27594 0.0
O226 O 0.78112 0.31526 0.21917 0.0
O227 O 0.75629 0.35105 0.25714 0.0
H228 H 0.68949 0.31113 0.19876 0.0
H229 H 0.6425 0.31559 0.15295 0.0
H230 H 0.58594 0.23009 0.20213 0.0
H231 H 0.63337 0.22551 0.24756 0.0
H232 H 0.736 0.17377 0.36434 0.0
H233 H 0.73983 0.2251 0.32517 0.0
H234 H 0.84312 0.19366 0.40255 0.0
H235 H 0.84683 0.24461 0.36294 0.0
H236 H 0.88314 0.38437 0.28148 0.0
H237 H 0.8479 0.43615 0.18492 0.0
H238 H 0.79499 0.39843 0.18254 0.0
H239 H 0.82994 0.34708 0.27907 0.0
C240 C 0.24262 0.20425 0.68743 0.0
C241 C 0.26982 0.18039 0.69617 0.0
C242 C 0.24973 0.14056 0.64839 0.0
C243 C 0.27342 0.14889 0.67675 0.0
C244 C 0.22205 0.16427 0.64039 0.0
C245 C 0.2186 0.19578 0.65967 0.0
U246 U 0.26853 0.26595 0.7644 0.0
O247 O 0.28108 0.32296 0.76506 0.0
O248 O 0.23726 0.30268 0.79625 0.0
C249 C 0.25503 0.33066 0.78614 0.0
C250 C 0.23964 0.23842 0.70624 0.0
C251 C 0.23401 0.3622 0.77718 0.0
C252 C 0.18559 0.3913 0.74546 0.0
C253 C 0.20675 0.36139 0.75117 0.0
C254 C 0.21925 0.42317 0.79114 0.0
C255 C 0.19125 0.42233 0.76585 0.0
C256 C 0.24044 0.39341 0.79665 0.0
C257 C 0.33404 0.23468 0.83567 0.0
C258 C 0.3506 0.27216 0.88619 0.0
C259 C 0.38116 0.21685 0.87663 0.0
C260 C 0.35984 0.21028 0.84639 0.0
C261 C 0.377 0.248 0.89677 0.0
C262 C 0.32931 0.26556 0.85586 0.0
C263 C 0.31309 0.2282 0.80283 0.0
O264 O 0.22453 0.23731 0.73726 0.0
O265 O 0.26816 0.25845 0.70643 0.0
O266 O 0.32258 0.24688 0.77533 0.0
O267 O 0.27865 0.22693 0.80648 0.0
H268 H 0.28859 0.18642 0.71763 0.0
H269 H 0.29495 0.13123 0.68369 0.0
H270 H 0.20374 0.15913 0.61833 0.0
H271 H 0.19754 0.21389 0.65243 0.0
H272 H 0.16391 0.38964 0.72613 0.0
H273 H 0.2013 0.33745 0.73597 0.0
H274 H 0.22438 0.44666 0.80711 0.0
H275 H 0.2614 0.39451 0.81684 0.0
H276 H 0.34662 0.29631 0.90117 0.0
H277 H 0.40172 0.19806 0.88349 0.0
H278 H 0.36397 0.18642 0.83096 0.0
H279 H 0.30948 0.28474 0.84788 0.0
C280 C 0.20167 0.72526 0.27536 0.0
C281 C 0.20024 0.7069 0.24281 0.0
C282 C 0.15035 0.67159 0.2629 0.0
C283 C 0.1747 0.68031 0.23659 0.0
C284 C 0.15199 0.69033 0.29533 0.0
C285 C 0.17736 0.71681 0.30144 0.0
U286 U 0.28607 0.78071 0.25758 0.0
O287 O 0.29431 0.83782 0.26646 0.0
O288 O 0.3259 0.79967 0.29709 0.0
C289 C 0.31719 0.83301 0.29286 0.0
C290 C 0.22801 0.7533 0.28315 0.0
C291 C 0.31028 0.85298 0.32576 0.0
C292 C 0.27444 0.865 0.37724 0.0
C293 C 0.28105 0.84506 0.34657 0.0
C294 C 0.32645 0.90064 0.36681 0.0
C295 C 0.29703 0.89315 0.3877 0.0
C296 C 0.33298 0.88076 0.33621 0.0
C297 C 0.34216 0.76125 0.17462 0.0
C298 C 0.38944 0.79741 0.15093 0.0
C299 C 0.37827 0.7387 0.12704 0.0
C300 C 0.35071 0.73427 0.15068 0.0
C301 C 0.39807 0.77032 0.12674 0.0
C302 C 0.36178 0.79289 0.1747 0.0
C303 C 0.31216 0.75569 0.19837 0.0
O304 O 0.25994 0.74266 0.29243 0.0
O305 O 0.22806 0.78035 0.2614 0.0
O306 O 0.28833 0.78087 0.19921 0.0
O307 O 0.3199 0.74263 0.22988 0.0
H308 H 0.21887 0.71303 0.22236 0.0
H309 H 0.17438 0.66623 0.21145 0.0
H310 H 0.13336 0.68483 0.31595 0.0
H311 H 0.17796 0.7308 0.32667 0.0
H312 H 0.25161 0.85845 0.3927 0.0
H313 H 0.26321 0.82366 0.33892 0.0
H314 H 0.34394 0.9226 0.3735 0.0
H315 H 0.35556 0.8874 0.3204 0.0
H316 H 0.4043 0.82196 0.15174 0.0
H317 H 0.38363 0.71748 0.10851 0.0
H318 H 0.33579 0.70972 0.15003 0.0
H319 H 0.35565 0.81406 0.19302 0.0
H320 H 0.06841 0.31014 0.27667 0.0
H321 H 0.79596 0.6115 0.19212 0.0
H322 H 0.08661 0.49853 0.30045 0.0
H323 H 0.14061 0.46326 0.29836 0.0
H324 H 0.15115 0.49043 0.18781 0.0
H325 H 0.09748 0.52607 0.19045 0.0
H326 H 0.01817 0.45479 0.29711 0.0
H327 H 0.0358 0.39258 0.29865 0.0
H328 H 0.06809 0.39967 0.18958 0.0
H329 H 0.04994 0.46173 0.18832 0.0
H330 H 0.94887 0.48765 0.2949 0.0
H331 H 0.89839 0.44681 0.29208 0.0
H332 H 0.91247 0.43313 0.17927 0.0
H333 H 0.96267 0.47447 0.1824 0.0
H334 H 0.93475 0.56131 0.29254 0.0
H335 H 0.87388 0.58298 0.28789 0.0
H336 H 0.8783 0.57764 0.17331 0.0
H337 H 0.93918 0.55608 0.17843 0.0
H338 H 0.98706 0.61633 0.29402 0.0
H339 H 0.94239 0.66236 0.2882 0.0
H340 H 0.95208 0.65927 0.17411 0.0
H341 H 0.99572 0.6122 0.18029 0.0
H342 H 0.08297 0.57653 0.30167 0.0
H343 H 0.12919 0.6214 0.31004 0.0
H344 H 0.11024 0.65702 0.2024 0.0
H345 H 0.06458 0.61115 0.19397 0.0
O346 O 0.06115 0.33462 0.27533 0.0
O347 O 0.07762 0.33976 0.21933 0.0
O348 O 0.81861 0.60401 0.25375 0.0
O349 O 0.81956 0.60187 0.19475 0.0
C350 C 0.05076 0.52686 0.24398 0.0
C351 C 0.02365 0.50079 0.24234 0.0
C352 C 0.98791 0.5109 0.24024 0.0
C353 C 0.97908 0.54693 0.23874 0.0
C354 C 1.00594 0.57323 0.23978 0.0
C355 C 0.04198 0.56331 0.2429 0.0
C356 C 0.08815 0.5149 0.24562 0.0
C357 C 0.10135 0.49788 0.27617 0.0
C358 C 0.13191 0.47731 0.27475 0.0
C359 C 0.14989 0.47342 0.24273 0.0
C360 C 0.13814 0.49292 0.21296 0.0
C361 C 0.10753 0.51351 0.21443 0.0
C362 C 0.0328 0.46265 0.24262 0.0
C363 C 0.02876 0.44272 0.27351 0.0
C364 C 0.03899 0.40726 0.27434 0.0
C365 C 0.05346 0.39117 0.24426 0.0
C366 C 0.05709 0.41124 0.21322 0.0
C367 C 0.04673 0.44666 0.2124 0.0
C368 C 0.95937 0.48384 0.23888 0.0
C369 C 0.94121 0.4755 0.26969 0.0
C370 C 0.91249 0.45211 0.26802 0.0
C371 C 0.90136 0.43677 0.23542 0.0
C372 C 0.92012 0.44481 0.20468 0.0
C373 C 0.94893 0.46814 0.20643 0.0
C374 C 0.94128 0.55733 0.23582 0.0
C375 C 0.92235 0.56455 0.2665 0.0
C376 C 0.88767 0.57702 0.26374 0.0
C377 C 0.87128 0.58223 0.23019 0.0
C378 C 0.89013 0.57401 0.19953 0.0
C379 C 0.92484 0.56161 0.20235 0.0
C380 C 0.9946 0.61074 0.2376 0.0
C381 C 0.98101 0.62698 0.26792 0.0
C382 C 0.9551 0.65316 0.26446 0.0
C383 C 0.94275 0.66378 0.23057 0.0
C384 C 0.96019 0.65095 0.20056 0.0
C385 C 0.98583 0.62459 0.20406 0.0
C386 C 0.07018 0.59067 0.24731 0.0
C387 C 0.08889 0.59392 0.27983 0.0
C388 C 0.11516 0.61977 0.28462 0.0
C389 C 0.12332 0.64309 0.25698 0.0
C390 C 0.10484 0.6394 0.22417 0.0
C391 C 0.07849 0.61344 0.21941 0.0
C392 C 0.06482 0.35366 0.2454 0.0
C393 C 0.83488 0.59661 0.2271 0.0
H394 H 0.11999 0.30009 0.78555 0.0
H395 H 0.80429 0.56707 0.72661 0.0
H396 H 0.11056 0.49801 0.81617 0.0
H397 H 0.16146 0.45878 0.82009 0.0
H398 H 0.16327 0.4531 0.70557 0.0
H399 H 0.11245 0.49304 0.70193 0.0
H400 H 0.0584 0.4393 0.81082 0.0
H401 H 0.08298 0.3795 0.81102 0.0
H402 H 0.08257 0.37989 0.69614 0.0
H403 H 0.05812 0.43978 0.69641 0.0
H404 H 0.97372 0.4577 0.8067 0.0
H405 H 0.93487 0.40565 0.80329 0.0
H406 H 0.94635 0.40201 0.68937 0.0
H407 H 0.98564 0.45363 0.69329 0.0
H408 H 0.95867 0.54191 0.81264 0.0
H409 H 0.89623 0.55847 0.81369 0.0
H410 H 0.88681 0.53939 0.70042 0.0
H411 H 0.94949 0.52344 0.69971 0.0
H412 H 0.01932 0.59161 0.81833 0.0
H413 H 0.97888 0.64086 0.82838 0.0
H414 H 0.95108 0.64165 0.71632 0.0
H415 H 0.99203 0.593 0.70655 0.0
H416 H 0.09916 0.56315 0.81694 0.0
H417 H 0.14385 0.60997 0.82193 0.0
H418 H 0.12187 0.63876 0.71268 0.0
H419 H 0.07692 0.59178 0.7081 0.0
O420 O 0.10926 0.32325 0.78484 0.0
O421 O 0.10724 0.32419 0.72577 0.0
O422 O 0.83541 0.57035 0.78509 0.0
O423 O 0.82894 0.56025 0.72702 0.0
C424 C 0.07003 0.50885 0.75691 0.0
C425 C 0.04474 0.48116 0.75388 0.0
C426 C 1.00839 0.48875 0.75276 0.0
C427 C 0.99698 0.52402 0.75525 0.0
C428 C 0.02206 0.55202 0.75801 0.0
C429 C 0.05877 0.54451 0.75891 0.0
C430 C 0.10798 0.49884 0.75878 0.0
C431 C 0.12324 0.49014 0.79192 0.0
C432 C 0.1521 0.46721 0.79408 0.0
C433 C 0.166 0.45233 0.76311 0.0
C434 C 0.15281 0.46377 0.72988 0.0
C435 C 0.12422 0.48713 0.72775 0.0
C436 C 0.05659 0.44375 0.75362 0.0
C437 C 0.06333 0.42623 0.78575 0.0
C438 C 0.07747 0.39216 0.78577 0.0
C439 C 0.0849 0.37497 0.75359 0.0
C440 C 0.07721 0.39238 0.72138 0.0
C441 C 0.06313 0.42649 0.72143 0.0
C442 C 0.98237 0.45932 0.75025 0.0
C443 C 0.96747 0.4458 0.78103 0.0
C444 C 0.94523 0.41616 0.77898 0.0
C445 C 0.93763 0.39953 0.74606 0.0
C446 C 0.95209 0.4138 0.71518 0.0
C447 C 0.97429 0.44342 0.71729 0.0
C448 C 0.95853 0.53165 0.75609 0.0
C449 C 0.94302 0.54125 0.78812 0.0
C450 C 0.90737 0.5507 0.78863 0.0
C451 C 0.88654 0.55036 0.75709 0.0
C452 C 0.9021 0.54001 0.72515 0.0
C453 C 0.93782 0.53074 0.72467 0.0
C454 C 1.00863 0.58871 0.76172 0.0
C455 C 1.00576 0.60355 0.79574 0.0
C456 C 0.98215 0.63128 0.8015 0.0
C457 C 0.96115 0.64469 0.77327 0.0
C458 C 0.96685 0.63209 0.73865 0.0
C459 C 0.99045 0.60438 0.73294 0.0
C460 C 0.08517 0.57367 0.76202 0.0
C461 C 0.10417 0.5794 0.79402 0.0
C462 C 0.12975 0.60618 0.79677 0.0
C463 C 0.1368 0.62798 0.76757 0.0
C464 C 0.11704 0.62265 0.73573 0.0
C465 C 0.09148 0.59572 0.733 0.0
C466 C 0.10104 0.33926 0.75374 0.0
C467 C 0.84879 0.56091 0.7574 0.0
H468 H 0.2499 0.98766 0.26294 0.0
H469 H 0.28404 0.26481 0.57465 0.0
H470 H 0.22111 0.96618 0.44918 0.0
H471 H 0.23246 0.9185 0.40699 0.0
H472 H 0.34318 0.92093 0.43834 0.0
H473 H 0.33156 0.96918 0.48009 0.0
H474 H 0.21687 0.03446 0.40668 0.0
H475 H 0.22028 0.01711 0.34409 0.0
H476 H 0.33299 1.00136 0.35818 0.0
H477 H 0.32923 0.01929 0.42054 0.0
H478 H 0.20657 0.10567 0.44744 0.0
H479 H 0.20094 0.15581 0.407 0.0
H480 H 0.31351 0.15257 0.39008 0.0
H481 H 0.31865 0.10192 0.43023 0.0
H482 H 0.20543 0.11396 0.52284 0.0
H483 H 0.20122 0.17405 0.54696 0.0
H484 H 0.31419 0.18719 0.53708 0.0
H485 H 0.31798 0.12699 0.5131 0.0
H486 H 0.2078 0.05386 0.5699 0.0
H487 H 0.19999 0.09439 0.62003 0.0
H488 H 0.31231 0.11592 0.62321 0.0
H489 H 0.3198 0.07507 0.57359 0.0
H490 H 0.21812 0.96506 0.52428 0.0
H491 H 0.21483 0.91745 0.56758 0.0
H492 H 0.3141 0.95237 0.61571 0.0
H493 H 0.317 1.00025 0.57221 0.0
O494 O 0.24928 0.99524 0.28751 0.0
O495 O 0.30702 0.9869 0.29637 0.0
O496 O 0.22686 0.23312 0.56909 0.0
O497 O 0.28481 0.24133 0.56435 0.0
C498 C 0.27121 1.00792 0.48162 0.0
C499 C 0.27016 0.03587 0.45659 0.0
C500 C 0.2663 0.07111 0.46801 0.0
C501 C 0.26493 0.07879 0.50455 0.0
C502 C 0.26656 0.05123 0.52993 0.0
C503 C 0.26909 0.01546 0.51856 0.0
C504 C 0.27548 0.97122 0.4678 0.0
C505 C 0.24752 0.95529 0.44816 0.0
C506 C 0.25415 0.92815 0.42379 0.0
C507 C 0.28889 0.91635 0.41868 0.0
C508 C 0.31624 0.9299 0.44108 0.0
C509 C 0.30955 0.95704 0.46549 0.0
C510 C 0.27278 0.02802 0.41805 0.0
C511 C 0.24231 0.02766 0.39603 0.0
C512 C 0.24433 0.01757 0.36037 0.0
C513 C 0.27689 1.00767 0.34617 0.0
C514 C 0.30749 1.00875 0.36826 0.0
C515 C 0.30544 0.01901 0.40385 0.0
C516 C 0.263 0.10023 0.44178 0.0
C517 C 0.22995 0.1157 0.4348 0.0
C518 C 0.22686 0.1445 0.41187 0.0
C519 C 0.25682 0.15846 0.39544 0.0
C520 C 0.28984 0.14233 0.40198 0.0
C521 C 0.29289 0.11347 0.42498 0.0
C522 C 0.26202 0.11618 0.51648 0.0
C523 C 0.22917 0.12999 0.52571 0.0
C524 C 0.22687 0.16426 0.53953 0.0
C525 C 0.25743 0.18534 0.54419 0.0
C526 C 0.29018 0.17163 0.534 0.0
C527 C 0.29242 0.13734 0.52017 0.0
C528 C 0.26437 0.06144 0.56804 0.0
C529 C 0.23096 0.06578 0.58273 0.0
C530 C 0.22647 0.08954 0.61094 0.0
C531 C 0.2554 0.10913 0.62506 0.0
C532 C 0.28945 0.10134 0.61309 0.0
C533 C 0.29387 0.07764 0.58486 0.0
C534 C 0.26786 0.98617 0.54485 0.0
C535 C 0.23932 0.96231 0.54399 0.0
C536 C 0.23755 0.935 0.56879 0.0
C537 C 0.2643 0.93082 0.59518 0.0
C538 C 0.29284 0.95493 0.59607 0.0
C539 C 0.29461 0.98226 0.57113 0.0
C540 C 0.27879 0.99601 0.30855 0.0
C541 C 0.25529 0.22135 0.55991 0.0
H542 H 0.46219 0.84928 0.78081 0.0
H543 H 0.75959 0.74031 0.06193 0.0
H544 H 0.46451 0.85116 0.97762 0.0
H545 H 0.41599 0.8606 0.93468 0.0
H546 H 0.40576 0.74762 0.91966 0.0
H547 H 0.45378 0.7385 0.96343 0.0
H548 H 0.52245 0.85258 0.92552 0.0
H549 H 0.50016 0.86183 0.86464 0.0
H550 H 0.4863 0.74885 0.85143 0.0
H551 H 0.50858 0.74006 0.91238 0.0
H552 H 0.60581 0.8436 0.95933 0.0
H553 H 0.65194 0.84805 0.91515 0.0
H554 H 0.6279 0.74149 0.87955 0.0
H555 H 0.58228 0.73713 0.92443 0.0
H556 H 0.61197 0.83492 0.04119 0.0
H557 H 0.67324 0.83031 0.06323 0.0
H558 H 0.6779 0.72364 0.02146 0.0
H559 H 0.61643 0.72847 1.0 0.0
H560 H 0.54614 0.83403 0.08447 0.0
H561 H 0.58278 0.8349 0.13902 0.0
H562 H 0.60918 0.72514 0.12199 0.0
H563 H 0.57254 0.72463 0.06741 0.0
H564 H 0.46268 0.83587 0.04555 0.0
H565 H 0.4158 0.82963 0.08883 0.0
H566 H 0.44681 0.72112 0.10632 0.0
H567 H 0.49267 0.72733 0.06224 0.0
O568 O 0.4722 0.84495 0.8043 0.0
O569 O 0.46703 0.78659 0.79829 0.0
O570 O 0.7316 0.79784 0.07432 0.0
O571 O 0.73552 0.74303 0.05304 0.0
C572 C 0.49987 0.78966 0.98691 0.0
C573 C 0.52675 0.79057 0.96132 0.0
C574 C 0.5626 0.78771 0.97184 0.0
C575 C 0.57185 0.78398 1.00809 0.0
C576 C 0.54522 0.78235 0.03392 0.0
C577 C 0.50898 0.7852 0.02343 0.0
C578 C 0.46264 0.79413 0.97392 0.0
C579 C 0.45051 0.82839 0.96657 0.0
C580 C 0.42324 0.83374 0.94138 0.0
C581 C 0.40759 0.80491 0.92295 0.0
C582 C 0.41714 0.77044 0.93329 0.0
C583 C 0.44442 0.76512 0.95864 0.0
C584 C 0.51706 0.79569 0.92323 0.0
C585 C 0.51503 0.82987 0.90922 0.0
C586 C 0.50213 0.83507 0.87453 0.0
C587 C 0.49124 0.80609 0.85323 0.0
C588 C 0.49436 0.77175 0.86713 0.0
C589 C 0.50722 0.76662 0.90184 0.0
C590 C 0.59063 0.79011 0.94497 0.0
C591 C 0.61061 0.82122 0.94203 0.0
C592 C 0.63682 0.82374 0.91666 0.0
C593 C 0.64358 0.79515 0.89369 0.0
C594 C 0.62367 0.76385 0.89702 0.0
C595 C 0.5974 0.76139 0.92241 0.0
C596 C 0.60979 0.78197 0.01918 0.0
C597 C 0.62633 0.81063 0.03677 0.0
C598 C 0.6613 0.80791 0.04932 0.0
C599 C 0.68043 0.77653 0.04423 0.0
C600 C 0.66392 0.74813 0.02591 0.0
C601 C 0.62889 0.75086 0.01348 0.0
C602 C 0.55663 0.7793 0.07192 0.0
C603 C 0.55859 0.80977 0.09333 0.0
C604 C 0.57985 0.81027 0.12437 0.0
C605 C 0.59953 0.78026 0.13449 0.0
C606 C 0.59499 0.74889 0.11456 0.0
C607 C 0.57357 0.74838 0.08369 0.0
C608 C 0.48093 0.78195 0.05032 0.0
C609 C 0.45914 0.81069 0.05854 0.0
C610 C 0.4326 0.80717 0.08362 0.0
C611 C 0.42728 0.77479 0.10106 0.0
C612 C 0.44963 0.74627 0.09307 0.0
C613 C 0.47607 0.74982 0.06801 0.0
C614 C 0.47618 0.8118 0.81692 0.0
C615 C 0.71737 0.77327 0.05812 0.0
H616 H 0.73233 0.99288 0.27545 0.0
H617 H 0.82897 0.24929 0.58649 0.0
H618 H 0.72715 0.96033 0.46439 0.0
H619 H 0.72804 0.90712 0.42709 0.0
H620 H 0.84057 0.89774 0.44808 0.0
H621 H 0.83913 0.95049 0.48588 0.0
H622 H 0.7244 0.03464 0.42493 0.0
H623 H 0.71763 0.02099 0.36145 0.0
H624 H 0.82583 0.98445 0.36087 0.0
H625 H 0.83235 0.99868 0.42421 0.0
H626 H 0.73205 0.10789 0.46731 0.0
H627 H 0.73447 0.15919 0.42793 0.0
H628 H 0.83969 0.12904 0.39778 0.0
H629 H 0.83725 0.07836 0.43776 0.0
H630 H 0.73481 0.1032 0.5497 0.0
H631 H 0.73883 0.16248 0.57607 0.0
H632 H 0.84664 0.17148 0.54154 0.0
H633 H 0.84238 0.11196 0.51572 0.0
H634 H 0.73622 0.03505 0.58884 0.0
H635 H 0.73488 0.06668 0.6456 0.0
H636 H 0.84579 0.09247 0.63685 0.0
H637 H 0.84654 0.06134 0.57971 0.0
H638 H 0.74051 0.9522 0.54836 0.0
H639 H 0.75036 0.90328 0.59001 0.0
H640 H 0.85824 0.93863 0.60804 0.0
H641 H 0.84834 0.9868 0.56604 0.0
O642 O 0.73572 0.99852 0.30043 0.0
O643 O 0.7914 0.97978 0.30164 0.0
O644 O 0.77106 0.21993 0.59321 0.0
O645 O 0.82646 0.22604 0.57577 0.0
C646 C 0.78413 0.99589 0.4921 0.0
C647 C 0.78225 0.02444 0.46794 0.0
C648 C 0.78395 0.0596 0.48061 0.0
C649 C 0.78669 0.06632 0.51742 0.0
C650 C 0.78897 0.03789 0.54161 0.0
C651 C 0.78824 1.0026 0.52899 0.0
C652 C 0.78308 0.95922 0.47779 0.0
C653 C 0.75173 0.94602 0.46185 0.0
C654 C 0.7524 0.9159 0.44019 0.0
C655 C 0.78448 0.89848 0.43407 0.0
C656 C 0.81535 0.9103 0.45236 0.0
C657 C 0.81462 0.94041 0.47409 0.0
C658 C 0.77878 0.01747 0.42913 0.0
C659 C 0.74665 0.02391 0.41095 0.0
C660 C 0.74284 0.01598 0.37474 0.0
C661 C 0.77115 1.00148 0.3561 0.0
C662 C 0.80347 0.99549 0.37442 0.0
C663 C 0.80727 1.00354 0.41059 0.0
C664 C 0.78446 0.08948 0.4553 0.0
C665 C 0.75552 0.11239 0.45206 0.0
C666 C 0.75691 0.14152 0.42947 0.0
C667 C 0.78734 0.14823 0.40985 0.0
C668 C 0.81609 0.12488 0.41291 0.0
C669 C 0.81464 0.09576 0.43544 0.0
C670 C 0.78831 0.10335 0.53088 0.0
C671 C 0.75919 0.11811 0.54774 0.0
C672 C 0.76159 0.15194 0.56279 0.0
C673 C 0.79312 0.17168 0.56101 0.0
C674 C 0.82201 0.15699 0.54344 0.0
C675 C 0.81961 0.12309 0.52852 0.0
C676 C 0.79141 0.04607 0.58017 0.0
C677 C 0.76053 0.04629 0.59993 0.0
C678 C 0.75983 0.06455 0.63231 0.0
C679 C 0.79009 0.08272 0.64541 0.0
C680 C 0.82186 0.0794 0.62711 0.0
C681 C 0.8225 0.06121 0.59473 0.0
C682 C 0.79372 0.97302 0.55422 0.0
C683 C 0.76625 0.94924 0.56129 0.0
C684 C 0.77187 0.92149 0.58522 0.0
C685 C 0.80512 0.91702 0.60228 0.0
C686 C 0.83249 0.94102 0.59503 0.0
C687 C 0.82682 0.96871 0.57125 0.0
C688 C 0.76685 0.99258 0.31777 0.0
C689 C 0.79606 0.20732 0.57764 0.0
H690 H 0.49323 0.29373 0.76936 0.0
H691 H 0.74619 0.24639 0.10057 0.0
H692 H 0.458 0.32237 0.95465 0.0
H693 H 0.40818 0.31167 0.91334 0.0
H694 H 0.40323 0.20301 0.94789 0.0
H695 H 0.45387 0.21382 0.98844 0.0
H696 H 0.5309 0.32582 0.91789 0.0
H697 H 0.51805 0.32264 0.85386 0.0
H698 H 0.49056 0.21204 0.8638 0.0
H699 H 0.50407 0.21548 0.92765 0.0
H700 H 0.59871 0.33326 0.96271 0.0
H701 H 0.64976 0.33545 0.92424 0.0
H702 H 0.64021 0.22269 0.90594 0.0
H703 H 0.58852 0.22114 0.94377 0.0
H704 H 0.6041 0.33385 0.0403 0.0
H705 H 0.66282 0.33446 0.06938 0.0
H706 H 0.66904 0.22099 0.05576 0.0
H707 H 0.61021 0.22082 0.02695 0.0
H708 H 0.54594 0.33095 0.08543 0.0
H709 H 0.5788 0.33056 0.14246 0.0
H710 H 0.58328 0.21646 0.13753 0.0
H711 H 0.55052 0.21721 0.08075 0.0
H712 H 0.46084 0.32734 0.04739 0.0
H713 H 0.41666 0.32695 0.09387 0.0
H714 H 0.43409 0.215 0.10874 0.0
H715 H 0.47871 0.21601 0.06289 0.0
O716 O 0.49859 0.2943 0.79465 0.0
O717 O 0.48428 0.23765 0.8013 0.0
O718 O 0.71875 0.30533 0.09493 0.0
O719 O 0.72335 0.24704 0.08842 0.0
C720 C 0.49604 0.27218 0.98976 0.0
C721 C 0.52481 0.27326 0.96636 0.0
C722 C 0.55978 0.27585 0.98007 0.0
C723 C 0.56618 0.27653 0.01703 0.0
C724 C 0.53764 0.27488 0.04044 0.0
C725 C 0.50249 0.27291 0.02691 0.0
C726 C 0.4596 0.26885 0.97444 0.0
C727 C 0.44527 0.29662 0.95425 0.0
C728 C 0.41682 0.2904 0.93056 0.0
C729 C 0.40211 0.25629 0.92683 0.0
C730 C 0.41444 0.22939 0.94963 0.0
C731 C 0.44299 0.23564 0.97325 0.0
C732 C 0.51833 0.27092 0.92734 0.0
C733 C 0.52238 0.30089 0.9061 0.0
C734 C 0.51489 0.29901 0.86958 0.0
C735 C 0.50318 0.2671 0.85372 0.0
C736 C 0.49948 0.23703 0.87515 0.0
C737 C 0.50714 0.23892 0.91161 0.0
C738 C 0.58999 0.27709 0.95585 0.0
C739 C 0.60763 0.30912 0.9502 0.0
C740 C 0.63693 0.31022 0.92845 0.0
C741 C 0.64925 0.27919 0.91211 0.0
C742 C 0.63121 0.24714 0.91773 0.0
C743 C 0.60179 0.24613 0.93941 0.0
C744 C 0.60305 0.27731 0.03158 0.0
C745 C 0.61838 0.30924 0.04335 0.0
C746 C 0.65184 0.30947 0.06003 0.0
C747 C 0.67057 0.27773 0.06503 0.0
C748 C 0.65533 0.24588 0.05241 0.0
C749 C 0.62184 0.2457 0.0358 0.0
C750 C 0.54578 0.2741 0.07913 0.0
C751 C 0.55269 0.30586 0.0975 0.0
C752 C 0.57187 0.3056 0.12976 0.0
C753 C 0.58406 0.27352 0.14417 0.0
C754 C 0.57409 0.24158 0.12726 0.0
C755 C 0.55517 0.2419 0.09492 0.0
C756 C 0.4729 0.27172 0.05187 0.0
C757 C 0.45469 0.3027 0.06044 0.0
C758 C 0.42942 0.30237 0.08693 0.0
C759 C 0.42201 0.271 0.10532 0.0
C760 C 0.4396 0.23976 0.09565 0.0
C761 C 0.46486 0.24017 0.06925 0.0
C762 C 0.49476 0.26531 0.81501 0.0
C763 C 0.70567 0.27769 0.08365 0.0
loop_
_geom_bond_atom_site_label_1
_geom_bond_atom_site_label_2
_geom_bond_distance
_geom_bond_site_symmetry_2
_ccdc_geom_bond_type
C0 C1 1.264 . S
C0 C5 1.479 . S
C0 C10 1.465 . S
C1 C0 1.264 . S
C1 C3 1.339 . S
C1 H28 0.931 . S
C2 C3 1.395 . S
C2 C4 1.320 . S
C3 C1 1.339 . S
C3 C2 1.395 . S
C3 H29 0.929 . S
C4 C2 1.320 . S
C4 C5 1.405 . S
C4 H30 0.930 . S
C5 C0 1.479 . S
C5 C4 1.405 . S
C5 H31 0.931 . S
U6 O7 2.454 . S
U6 O8 2.458 . S
U6 C9 2.984 . S
U6 C10 2.847 . S
U6 C23 2.882 . S
U6 O24 2.441 . S
U6 O25 2.420 . S
U6 O26 2.455 . S
U6 O27 2.449 . S
O7 U6 2.454 . S
O7 C9 1.353 . S
O8 U6 2.458 . S
O8 C9 1.286 . S
C9 U6 2.984 . S
C9 O7 1.353 . S
C9 O8 1.286 . S
C9 C11 1.363 . S
C10 C0 1.465 . S
C10 U6 2.847 . S
C10 O24 1.249 . S
C10 O25 1.202 . S
C11 C9 1.363 . S
C11 C13 1.408 . S
C11 C16 1.342 . S
C12 C13 1.310 . S
C12 C15 1.461 . S
C12 H32 0.932 . S
C13 C11 1.408 . S
C13 C12 1.310 . S
C13 H33 0.930 . S
C14 C15 1.474 . S
C14 C16 1.285 . S
C14 H34 0.929 . S
C15 C12 1.461 . S
C15 C14 1.474 . S
C16 C11 1.342 . S
C16 C14 1.285 . S
C16 H35 0.930 . S
C17 C20 1.424 . S
C17 C22 1.245 . S
C17 C23 1.428 . S
C18 C21 1.260 . S
C18 C22 1.477 . S
C18 H36 0.932 . S
C19 C20 1.384 . S
C19 C21 1.479 . S
C19 H37 0.929 . S
C20 C17 1.424 . S
C20 C19 1.384 . S
C20 H38 0.928 . S
C21 C18 1.260 . S
C21 C19 1.479 . S
C22 C17 1.245 . S
C22 C18 1.477 . S
C22 H39 0.932 . S
C23 U6 2.882 . S
C23 C17 1.428 . S
C23 O26 1.301 . S
C23 O27 1.282 . S
O24 U6 2.441 . S
O24 C10 1.249 . S
O25 U6 2.420 . S
O25 C10 1.202 . S
O26 U6 2.455 . S
O26 C23 1.301 . S
O27 U6 2.449 . S
O27 C23 1.282 . S
H28 C1 0.931 . S
H29 C3 0.929 . S
H30 C4 0.930 . S
H31 C5 0.931 . S
H32 C12 0.932 . S
H33 C13 0.930 . S
H34 C14 0.929 . S
H35 C16 0.930 . S
H36 C18 0.932 . S
H37 C19 0.929 . S
H38 C20 0.928 . S
H39 C22 0.932 . S
C40 C41 1.264 . S
C40 C45 1.479 . S
C40 C50 1.465 . S
C41 C40 1.264 . S
C41 C43 1.339 . S
C41 H68 0.931 . S
C42 C43 1.395 . S
C42 C44 1.320 . S
C43 C41 1.339 . S
C43 C42 1.395 . S
C43 H69 0.929 . S
C44 C42 1.320 . S
C44 C45 1.405 . S
C44 H70 0.930 . S
C45 C40 1.479 . S
C45 C44 1.405 . S
C45 H71 0.931 . S
U46 O47 2.454 . S
U46 O48 2.458 . S
U46 C49 2.984 . S
U46 C50 2.847 . S
U46 C63 2.882 . S
U46 O64 2.441 . S
U46 O65 2.420 . S
U46 O66 2.455 . S
U46 O67 2.449 . S
O47 U46 2.454 . S
O47 C49 1.353 . S
O48 U46 2.458 . S
O48 C49 1.286 . S
C49 U46 2.984 . S
C49 O47 1.353 . S
C49 O48 1.286 . S
C49 C51 1.363 . S
C50 C40 1.465 . S
C50 U46 2.847 . S
C50 O64 1.249 . S
C50 O65 1.202 . S
C51 C49 1.363 . S
C51 C53 1.408 . S
C51 C56 1.342 . S
C52 C53 1.310 . S
C52 C55 1.461 . S
C52 H72 0.932 . S
C53 C51 1.408 . S
C53 C52 1.310 . S
C53 H73 0.930 . S
C54 C55 1.474 . S
C54 C56 1.285 . S
C54 H74 0.929 . S
C55 C52 1.461 . S
C55 C54 1.474 . S
C56 C51 1.342 . S
C56 C54 1.285 . S
C56 H75 0.930 . S
C57 C60 1.424 . S
C57 C62 1.245 . S
C57 C63 1.428 . S
C58 C61 1.260 . S
C58 C62 1.477 . S
C58 H76 0.932 . S
C59 C60 1.384 . S
C59 C61 1.479 . S
C59 H77 0.929 . S
C60 C57 1.424 . S
C60 C59 1.384 . S
C60 H78 0.928 . S
C61 C58 1.260 . S
C61 C59 1.479 . S
C62 C57 1.245 . S
C62 C58 1.477 . S
C62 H79 0.932 . S
C63 U46 2.882 . S
C63 C57 1.428 . S
C63 O66 1.301 . S
C63 O67 1.282 . S
O64 U46 2.441 . S
O64 C50 1.249 . S
O65 U46 2.420 . S
O65 C50 1.202 . S
O66 U46 2.455 . S
O66 C63 1.301 . S
O67 U46 2.449 . S
O67 C63 1.282 . S
H68 C41 0.931 . S
H69 C43 0.929 . S
H70 C44 0.930 . S
H71 C45 0.931 . S
H72 C52 0.932 . S
H73 C53 0.930 . S
H74 C54 0.929 . S
H75 C56 0.930 . S
H76 C58 0.932 . S
H77 C59 0.929 . S
H78 C60 0.928 . S
H79 C62 0.932 . S
C80 C81 1.264 . S
C80 C85 1.479 . S
C80 C90 1.465 . S
C81 C80 1.264 . S
C81 C83 1.339 . S
C81 H108 0.931 . S
C82 C83 1.395 . S
C82 C84 1.320 . S
C83 C81 1.339 . S
C83 C82 1.395 . S
C83 H109 0.929 . S
C84 C82 1.320 . S
C84 C85 1.405 . S
C84 H110 0.930 . S
C85 C80 1.479 . S
C85 C84 1.405 . S
C85 H111 0.931 . S
U86 O87 2.454 . S
U86 O88 2.458 . S
U86 C89 2.984 . S
U86 C90 2.847 . S
U86 C103 2.882 . S
U86 O104 2.441 . S
U86 O105 2.420 . S
U86 O106 2.455 . S
U86 O107 2.449 . S
O87 U86 2.454 . S
O87 C89 1.353 . S
O88 U86 2.458 . S
O88 C89 1.286 . S
C89 U86 2.984 . S
C89 O87 1.353 . S
C89 O88 1.286 . S
C89 C91 1.363 . S
C90 C80 1.465 . S
C90 U86 2.847 . S
C90 O104 1.249 . S
C90 O105 1.202 . S
C91 C89 1.363 . S
C91 C93 1.408 . S
C91 C96 1.342 . S
C92 C93 1.310 . S
C92 C95 1.461 . S
C92 H112 0.932 . S
C93 C91 1.408 . S
C93 C92 1.310 . S
C93 H113 0.930 . S
C94 C95 1.474 . S
C94 C96 1.285 . S
C94 H114 0.929 . S
C95 C92 1.461 . S
C95 C94 1.474 . S
C96 C91 1.342 . S
C96 C94 1.285 . S
C96 H115 0.930 . S
C97 C100 1.424 . S
C97 C102 1.245 . S
C97 C103 1.428 . S
C98 C101 1.260 . S
C98 C102 1.477 . S
C98 H116 0.932 . S
C99 C100 1.384 . S
C99 C101 1.479 . S
C99 H117 0.929 . S
C100 C97 1.424 . S
C100 C99 1.384 . S
C100 H118 0.928 . S
C101 C98 1.260 . S
C101 C99 1.479 . S
C102 C97 1.245 . S
C102 C98 1.477 . S
C102 H119 0.932 . S
C103 U86 2.882 . S
C103 C97 1.428 . S
C103 O106 1.301 . S
C103 O107 1.282 . S
O104 U86 2.441 . S
O104 C90 1.249 . S
O105 U86 2.420 . S
O105 C90 1.202 . S
O106 U86 2.455 . S
O106 C103 1.301 . S
O107 U86 2.449 . S
O107 C103 1.282 . S
H108 C81 0.931 . S
H109 C83 0.929 . S
H110 C84 0.930 . S
H111 C85 0.931 . S
H112 C92 0.932 . S
H113 C93 0.930 . S
H114 C94 0.929 . S
H115 C96 0.930 . S
H116 C98 0.932 . S
H117 C99 0.929 . S
H118 C100 0.928 . S
H119 C102 0.932 . S
C120 C121 1.264 . S
C120 C125 1.479 . S
C120 C130 1.465 . S
C121 C120 1.264 . S
C121 C123 1.339 . S
C121 H148 0.931 . S
C122 C123 1.395 . S
C122 C124 1.320 . S
C123 C121 1.339 . S
C123 C122 1.395 . S
C123 H149 0.929 . S
C124 C122 1.320 . S
C124 C125 1.405 . S
C124 H150 0.930 . S
C125 C120 1.479 . S
C125 C124 1.405 . S
C125 H151 0.931 . S
U126 O127 2.454 . S
U126 O128 2.458 . S
U126 C129 2.984 . S
U126 C130 2.847 . S
U126 C143 2.882 . S
U126 O144 2.441 . S
U126 O145 2.420 . S
U126 O146 2.455 . S
U126 O147 2.449 . S
O127 U126 2.454 . S
O127 C129 1.353 . S
O128 U126 2.458 . S
O128 C129 1.286 . S
C129 U126 2.984 . S
C129 O127 1.353 . S
C129 O128 1.286 . S
C129 C131 1.363 . S
C130 C120 1.465 . S
C130 U126 2.847 . S
C130 O144 1.249 . S
C130 O145 1.202 . S
C131 C129 1.363 . S
C131 C133 1.408 . S
C131 C136 1.342 . S
C132 C133 1.310 . S
C132 C135 1.461 . S
C132 H152 0.932 . S
C133 C131 1.408 . S
C133 C132 1.310 . S
C133 H153 0.930 . S
C134 C135 1.474 . S
C134 C136 1.285 . S
C134 H154 0.929 . S
C135 C132 1.461 . S
C135 C134 1.474 . S
C136 C131 1.342 . S
C136 C134 1.285 . S
C136 H155 0.930 . S
C137 C140 1.424 . S
C137 C142 1.245 . S
C137 C143 1.428 . S
C138 C141 1.260 . S
C138 C142 1.477 . S
C138 H156 0.932 . S
C139 C140 1.384 . S
C139 C141 1.479 . S
C139 H157 0.929 . S
C140 C137 1.424 . S
C140 C139 1.384 . S
C140 H158 0.928 . S
C141 C138 1.260 . S
C141 C139 1.479 . S
C142 C137 1.245 . S
C142 C138 1.477 . S
C142 H159 0.932 . S
C143 U126 2.882 . S
C143 C137 1.428 . S
C143 O146 1.301 . S
C143 O147 1.282 . S
O144 U126 2.441 . S
O144 C130 1.249 . S
O145 U126 2.420 . S
O145 C130 1.202 . S
O146 U126 2.455 . S
O146 C143 1.301 . S
O147 U126 2.449 . S
O147 C143 1.282 . S
H148 C121 0.931 . S
H149 C123 0.929 . S
H150 C124 0.930 . S
H151 C125 0.931 . S
H152 C132 0.932 . S
H153 C133 0.930 . S
H154 C134 0.929 . S
H155 C136 0.930 . S
H156 C138 0.932 . S
H157 C139 0.929 . S
H158 C140 0.928 . S
H159 C142 0.932 . S
C160 C161 1.264 . S
C160 C165 1.479 . S
C160 C170 1.465 . S
C161 C160 1.264 . S
C161 C163 1.339 . S
C161 H188 0.931 . S
C162 C163 1.395 . S
C162 C164 1.320 . S
C163 C161 1.339 . S
C163 C162 1.395 . S
C163 H189 0.929 . S
C164 C162 1.320 . S
C164 C165 1.405 . S
C164 H190 0.930 . S
C165 C160 1.479 . S
C165 C164 1.405 . S
C165 H191 0.931 . S
U166 O167 2.454 . S
U166 O168 2.458 . S
U166 C169 2.984 . S
U166 C170 2.847 . S
U166 C183 2.882 . S
U166 O184 2.441 . S
U166 O185 2.420 . S
U166 O186 2.455 . S
U166 O187 2.449 . S
O167 U166 2.454 . S
O167 C169 1.353 . S
O168 U166 2.458 . S
O168 C169 1.286 . S
C169 U166 2.984 . S
C169 O167 1.353 . S
C169 O168 1.286 . S
C169 C171 1.363 . S
C170 C160 1.465 . S
C170 U166 2.847 . S
C170 O184 1.249 . S
C170 O185 1.202 . S
C171 C169 1.363 . S
C171 C173 1.408 . S
C171 C176 1.342 . S
C172 C173 1.310 . S
C172 C175 1.461 . S
C172 H192 0.932 . S
C173 C171 1.408 . S
C173 C172 1.310 . S
C173 H193 0.930 . S
C174 C175 1.474 . S
C174 C176 1.285 . S
C174 H194 0.929 . S
C175 C172 1.461 . S
C175 C174 1.474 . S
C176 C171 1.342 . S
C176 C174 1.285 . S
C176 H195 0.930 . S
C177 C180 1.424 . S
C177 C182 1.245 . S
C177 C183 1.428 . S
C178 C181 1.260 . S
C178 C182 1.477 . S
C178 H196 0.932 . S
C179 C180 1.384 . S
C179 C181 1.479 . S
C179 H197 0.929 . S
C180 C177 1.424 . S
C180 C179 1.384 . S
C180 H198 0.928 . S
C181 C178 1.260 . S
C181 C179 1.479 . S
C182 C177 1.245 . S
C182 C178 1.477 . S
C182 H199 0.932 . S
C183 U166 2.882 . S
C183 C177 1.428 . S
C183 O186 1.301 . S
C183 O187 1.282 . S
O184 U166 2.441 . S
O184 C170 1.249 . S
O185 U166 2.420 . S
O185 C170 1.202 . S
O186 U166 2.455 . S
O186 C183 1.301 . S
O187 U166 2.449 . S
O187 C183 1.282 . S
H188 C161 0.931 . S
H189 C163 0.929 . S
H190 C164 0.930 . S
H191 C165 0.931 . S
H192 C172 0.932 . S
H193 C173 0.930 . S
H194 C174 0.929 . S
H195 C176 0.930 . S
H196 C178 0.932 . S
H197 C179 0.929 . S
H198 C180 0.928 . S
H199 C182 0.932 . S
C200 C201 1.264 . S
C200 C205 1.479 . S
C200 C210 1.465 . S
C201 C200 1.264 . S
C201 C203 1.339 . S
C201 H228 0.931 . S
C202 C203 1.395 . S
C202 C204 1.320 . S
C203 C201 1.339 . S
C203 C202 1.395 . S
C203 H229 0.929 . S
C204 C202 1.320 . S
C204 C205 1.405 . S
C204 H230 0.930 . S
C205 C200 1.479 . S
C205 C204 1.405 . S
C205 H231 0.931 . S
U206 O207 2.454 . S
U206 O208 2.458 . S
U206 C209 2.984 . S
U206 C210 2.847 . S
U206 C223 2.882 . S
U206 O224 2.441 . S
U206 O225 2.420 . S
U206 O226 2.455 . S
U206 O227 2.449 . S
O207 U206 2.454 . S
O207 C209 1.353 . S
O208 U206 2.458 . S
O208 C209 1.286 . S
C209 U206 2.984 . S
C209 O207 1.353 . S
C209 O208 1.286 . S
C209 C211 1.363 . S
C210 C200 1.465 . S
C210 U206 2.847 . S
C210 O224 1.249 . S
C210 O225 1.202 . S
C211 C209 1.363 . S
C211 C213 1.408 . S
C211 C216 1.342 . S
C212 C213 1.310 . S
C212 C215 1.461 . S
C212 H232 0.932 . S
C213 C211 1.408 . S
C213 C212 1.310 . S
C213 H233 0.930 . S
C214 C215 1.474 . S
C214 C216 1.285 . S
C214 H234 0.929 . S
C215 C212 1.461 . S
C215 C214 1.474 . S
C216 C211 1.342 . S
C216 C214 1.285 . S
C216 H235 0.930 . S
C217 C220 1.424 . S
C217 C222 1.245 . S
C217 C223 1.428 . S
C218 C221 1.260 . S
C218 C222 1.477 . S
C218 H236 0.932 . S
C219 C220 1.384 . S
C219 C221 1.479 . S
C219 H237 0.929 . S
C220 C217 1.424 . S
C220 C219 1.384 . S
C220 H238 0.928 . S
C221 C218 1.260 . S
C221 C219 1.479 . S
C222 C217 1.245 . S
C222 C218 1.477 . S
C222 H239 0.932 . S
C223 U206 2.882 . S
C223 C217 1.428 . S
C223 O226 1.301 . S
C223 O227 1.282 . S
O224 U206 2.441 . S
O224 C210 1.249 . S
O225 U206 2.420 . S
O225 C210 1.202 . S
O226 U206 2.455 . S
O226 C223 1.301 . S
O227 U206 2.449 . S
O227 C223 1.282 . S
H228 C201 0.931 . S
H229 C203 0.929 . S
H230 C204 0.930 . S
H231 C205 0.931 . S
H232 C212 0.932 . S
H233 C213 0.930 . S
H234 C214 0.929 . S
H235 C216 0.930 . S
H236 C218 0.932 . S
H237 C219 0.929 . S
H238 C220 0.928 . S
H239 C222 0.932 . S
C240 C241 1.264 . S
C240 C245 1.479 . S
C240 C250 1.465 . S
C241 C240 1.264 . S
C241 C243 1.339 . S
C241 H268 0.931 . S
C242 C243 1.395 . S
C242 C244 1.320 . S
C243 C241 1.339 . S
C243 C242 1.395 . S
C243 H269 0.929 . S
C244 C242 1.320 . S
C244 C245 1.405 . S
C244 H270 0.930 . S
C245 C240 1.479 . S
C245 C244 1.405 . S
C245 H271 0.931 . S
U246 O247 2.454 . S
U246 O248 2.458 . S
U246 C249 2.984 . S
U246 C250 2.847 . S
U246 C263 2.882 . S
U246 O264 2.441 . S
U246 O265 2.420 . S
U246 O266 2.455 . S
U246 O267 2.449 . S
O247 U246 2.454 . S
O247 C249 1.353 . S
O248 U246 2.458 . S
O248 C249 1.286 . S
C249 U246 2.984 . S
C249 O247 1.353 . S
C249 O248 1.286 . S
C249 C251 1.363 . S
C250 C240 1.465 . S
C250 U246 2.847 . S
C250 O264 1.249 . S
C250 O265 1.202 . S
C251 C249 1.363 . S
C251 C253 1.408 . S
C251 C256 1.342 . S
C252 C253 1.310 . S
C252 C255 1.461 . S
C252 H272 0.932 . S
C253 C251 1.408 . S
C253 C252 1.310 . S
C253 H273 0.930 . S
C254 C255 1.474 . S
C254 C256 1.285 . S
C254 H274 0.929 . S
C255 C252 1.461 . S
C255 C254 1.474 . S
C256 C251 1.342 . S
C256 C254 1.285 . S
C256 H275 0.930 . S
C257 C260 1.424 . S
C257 C262 1.245 . S
C257 C263 1.428 . S
C258 C261 1.260 . S
C258 C262 1.477 . S
C258 H276 0.932 . S
C259 C260 1.384 . S
C259 C261 1.479 . S
C259 H277 0.929 . S
C260 C257 1.424 . S
C260 C259 1.384 . S
C260 H278 0.928 . S
C261 C258 1.260 . S
C261 C259 1.479 . S
C262 C257 1.245 . S
C262 C258 1.477 . S
C262 H279 0.932 . S
C263 U246 2.882 . S
C263 C257 1.428 . S
C263 O266 1.301 . S
C263 O267 1.282 . S
O264 U246 2.441 . S
O264 C250 1.249 . S
O265 U246 2.420 . S
O265 C250 1.202 . S
O266 U246 2.455 . S
O266 C263 1.301 . S
O267 U246 2.449 . S
O267 C263 1.282 . S
H268 C241 0.931 . S
H269 C243 0.929 . S
H270 C244 0.930 . S
H271 C245 0.931 . S
H272 C252 0.932 . S
H273 C253 0.930 . S
H274 C254 0.929 . S
H275 C256 0.930 . S
H276 C258 0.932 . S
H277 C259 0.929 . S
H278 C260 0.928 . S
H279 C262 0.932 . S
C280 C281 1.264 . S
C280 C285 1.479 . S
C280 C290 1.465 . S
C281 C280 1.264 . S
C281 C283 1.339 . S
C281 H308 0.931 . S
C282 C283 1.395 . S
C282 C284 1.320 . S
C283 C281 1.339 . S
C283 C282 1.395 . S
C283 H309 0.929 . S
C284 C282 1.320 . S
C284 C285 1.405 . S
C284 H310 0.930 . S
C285 C280 1.479 . S
C285 C284 1.405 . S
C285 H311 0.931 . S
U286 O287 2.454 . S
U286 O288 2.458 . S
U286 C289 2.984 . S
U286 C290 2.847 . S
U286 C303 2.882 . S
U286 O304 2.441 . S
U286 O305 2.420 . S
U286 O306 2.455 . S
U286 O307 2.449 . S
O287 U286 2.454 . S
O287 C289 1.353 . S
O288 U286 2.458 . S
O288 C289 1.286 . S
C289 U286 2.984 . S
C289 O287 1.353 . S
C289 O288 1.286 . S
C289 C291 1.363 . S
C290 C280 1.465 . S
C290 U286 2.847 . S
C290 O304 1.249 . S
C290 O305 1.202 . S
C291 C289 1.363 . S
C291 C293 1.408 . S
C291 C296 1.342 . S
C292 C293 1.310 . S
C292 C295 1.461 . S
C292 H312 0.932 . S
C293 C291 1.408 . S
C293 C292 1.310 . S
C293 H313 0.930 . S
C294 C295 1.474 . S
C294 C296 1.285 . S
C294 H314 0.929 . S
C295 C292 1.461 . S
C295 C294 1.474 . S
C296 C291 1.342 . S
C296 C294 1.285 . S
C296 H315 0.930 . S
C297 C300 1.424 . S
C297 C302 1.245 . S
C297 C303 1.428 . S
C298 C301 1.260 . S
C298 C302 1.477 . S
C298 H316 0.932 . S
C299 C300 1.384 . S
C299 C301 1.479 . S
C299 H317 0.929 . S
C300 C297 1.424 . S
C300 C299 1.384 . S
C300 H318 0.928 . S
C301 C298 1.260 . S
C301 C299 1.479 . S
C302 C297 1.245 . S
C302 C298 1.477 . S
C302 H319 0.932 . S
C303 U286 2.882 . S
C303 C297 1.428 . S
C303 O306 1.301 . S
C303 O307 1.282 . S
O304 U286 2.441 . S
O304 C290 1.249 . S
O305 U286 2.420 . S
O305 C290 1.202 . S
O306 U286 2.455 . S
O306 C303 1.301 . S
O307 U286 2.449 . S
O307 C303 1.282 . S
H308 C281 0.931 . S
H309 C283 0.929 . S
H310 C284 0.930 . S
H311 C285 0.931 . S
H312 C292 0.932 . S
H313 C293 0.930 . S
H314 C294 0.929 . S
H315 C296 0.930 . S
H316 C298 0.932 . S
H317 C299 0.929 . S
H318 C300 0.928 . S
H319 C302 0.932 . S
H320 O346 0.858 . S
H321 O349 0.854 . S
H322 C357 0.930 . S
H323 C358 0.930 . S
H324 C360 0.930 . S
H325 C361 0.930 . S
H326 C363 0.931 . S
H327 C364 0.930 . S
H328 C366 0.930 . S
H329 C367 0.923 1_455 S
H330 C369 0.930 . S
H331 C370 0.931 . S
H332 C372 0.930 . S
H333 C373 0.929 . S
H334 C375 0.931 . S
H335 C376 0.930 . S
H336 C378 0.930 . S
H337 C379 0.932 . S
H338 C381 0.930 . S
H339 C382 0.929 . S
H340 C384 0.931 . S
H341 C385 0.930 . S
H342 C387 0.929 . S
H343 C388 0.931 . S
H344 C390 0.930 . S
H345 C391 0.929 . S
O346 H320 0.858 . S
O346 C392 1.300 1_655 S
O347 C392 1.209 . S
O348 C393 1.199 . S
O349 H321 0.854 . S
O349 C393 1.297 . S
C350 C351 1.404 1_455 S
C350 C355 1.397 1_455 S
C350 C356 1.492 . S
C351 C350 1.404 1_655 S
C351 C352 1.396 . S
C351 C362 1.492 . S
C352 C351 1.396 . S
C352 C353 1.397 . S
C352 C368 1.509 . S
C353 C352 1.397 . S
C353 C354 1.412 . S
C353 C374 1.485 . S
C354 C353 1.412 . S
C354 C355 1.388 . S
C354 C380 1.490 . S
C355 C350 1.397 1_655 S
C355 C354 1.388 . S
C355 C386 1.519 1_655 S
C356 C350 1.492 . S
C356 C357 1.363 . S
C356 C361 1.390 . S
C357 H322 0.930 . S
C357 C356 1.363 . S
C357 C358 1.372 . S
C358 H323 0.930 . S
C358 C357 1.372 . S
C358 C359 1.383 . S
C359 C358 1.383 . S
C359 C360 1.395 . S
C360 H324 0.930 . S
C360 C359 1.395 . S
C360 C361 1.362 . S
C361 H325 0.930 . S
C361 C356 1.390 . S
C361 C360 1.362 . S
C362 C351 1.492 . S
C362 C363 1.377 . S
C362 C367 1.409 . S
C363 H326 0.931 . S
C363 C362 1.377 . S
C363 C364 1.376 . S
C364 H327 0.930 . S
C364 C363 1.376 . S
C364 C365 1.376 . S
C365 C364 1.376 . S
C365 C366 1.378 1_655 S
C365 C392 1.486 1_655 S
C366 H328 0.930 . S
C366 C365 1.378 1_455 S
C366 C367 1.371 1_455 S
C367 H329 0.923 1_655 S
C367 C362 1.409 . S
C367 C366 1.371 1_655 S
C368 C352 1.509 . S
C368 C369 1.391 . S
C368 C373 1.386 . S
C369 H330 0.930 . S
C369 C368 1.391 . S
C369 C370 1.375 . S
C370 H331 0.931 . S
C370 C369 1.375 . S
C370 C371 1.375 . S
C371 C370 1.375 . S
C371 C372 1.361 . S
C372 H332 0.930 . S
C372 C371 1.361 . S
C372 C373 1.399 . S
C373 H333 0.929 . S
C373 C368 1.386 . S
C373 C372 1.399 . S
C374 C353 1.485 . S
C374 C375 1.394 . S
C374 C379 1.360 . S
C375 H334 0.931 . S
C375 C374 1.394 . S
C375 C376 1.372 . S
C376 H335 0.930 . S
C376 C375 1.372 . S
C376 C377 1.397 . S
C377 C376 1.397 . S
C377 C378 1.390 . S
C377 C393 1.476 . S
C378 H336 0.930 . S
C378 C377 1.390 . S
C378 C379 1.366 . S
C379 H337 0.932 . S
C379 C374 1.360 . S
C379 C378 1.366 . S
C380 C354 1.490 . S
C380 C381 1.380 . S
C380 C385 1.386 . S
C381 H338 0.930 . S
C381 C380 1.380 . S
C381 C382 1.381 . S
C382 H339 0.929 . S
C382 C381 1.381 . S
C382 C383 1.371 . S
C383 C382 1.371 . S
C383 C384 1.380 . S
C384 H340 0.931 . S
C384 C383 1.380 . S
C384 C385 1.387 . S
C385 H341 0.930 . S
C385 C380 1.386 . S
C385 C384 1.387 . S
C386 C355 1.519 1_455 S
C386 C387 1.377 . S
C386 C391 1.361 . S
C387 H342 0.929 . S
C387 C386 1.377 . S
C387 C388 1.386 . S
C388 H343 0.931 . S
C388 C387 1.386 . S
C388 C389 1.363 . S
C389 C388 1.363 . S
C389 C390 1.385 . S
C390 H344 0.930 . S
C390 C389 1.385 . S
C390 C391 1.396 . S
C391 H345 0.929 . S
C391 C386 1.361 . S
C391 C390 1.396 . S
C392 O346 1.300 1_455 S
C392 O347 1.209 . S
C392 C365 1.486 1_455 S
C393 O348 1.199 . S
C393 O349 1.297 . S
C393 C377 1.476 . S
H394 O420 0.856 . S
H395 O423 0.854 . S
H396 C431 0.930 . S
H397 C432 0.930 . S
H398 C434 0.930 . S
H399 C435 0.930 . S
H400 C437 0.931 . S
H401 C438 0.930 . S
H402 C440 0.930 . S
H403 C441 0.929 . S
H404 C443 0.930 . S
H405 C444 0.931 . S
H406 C446 0.930 . S
H407 C447 0.929 . S
H408 C449 0.931 . S
H409 C450 0.930 . S
H410 C452 0.930 . S
H411 C453 0.932 . S
H412 C455 0.930 1_455 S
H413 C456 0.929 . S
H414 C458 0.931 . S
H415 C459 0.930 . S
H416 C461 0.929 . S
H417 C462 0.931 . S
H418 C464 0.930 . S
H419 C465 0.929 . S
O420 H394 0.856 . S
O420 C466 1.300 . S
O421 C466 1.209 . S
O422 C467 1.199 . S
O423 H395 0.854 . S
O423 C467 1.297 . S
C424 C425 1.404 . S
C424 C429 1.397 . S
C424 C430 1.492 . S
C425 C424 1.404 . S
C425 C426 1.396 1_455 S
C425 C436 1.492 . S
C426 C425 1.396 1_655 S
C426 C427 1.397 . S
C426 C442 1.509 . S
C427 C426 1.397 . S
C427 C428 1.412 . S
C427 C448 1.485 . S
C428 C427 1.412 . S
C428 C429 1.388 1_655 S
C428 C454 1.490 . S
C429 C424 1.397 . S
C429 C428 1.388 1_455 S
C429 C460 1.519 . S
C430 C424 1.492 . S
C430 C431 1.363 . S
C430 C435 1.390 . S
C431 H396 0.930 . S
C431 C430 1.363 . S
C431 C432 1.372 . S
C432 H397 0.930 . S
C432 C431 1.372 . S
C432 C433 1.383 . S
C433 C432 1.383 . S
C433 C434 1.395 . S
C434 H398 0.930 . S
C434 C433 1.395 . S
C434 C435 1.362 . S
C435 H399 0.930 . S
C435 C430 1.390 . S
C435 C434 1.362 . S
C436 C425 1.492 . S
C436 C437 1.377 . S
C436 C441 1.397 . S
C437 H400 0.931 . S
C437 C436 1.377 . S
C437 C438 1.376 . S
C438 H401 0.930 . S
C438 C437 1.376 . S
C438 C439 1.376 . S
C439 C438 1.376 . S
C439 C440 1.378 . S
C439 C466 1.486 . S
C440 H402 0.930 . S
C440 C439 1.378 . S
C440 C441 1.376 . S
C441 H403 0.929 . S
C441 C436 1.397 . S
C441 C440 1.376 . S
C442 C426 1.509 . S
C442 C443 1.391 . S
C442 C447 1.386 . S
C443 H404 0.930 . S
C443 C442 1.391 . S
C443 C444 1.375 . S
C444 H405 0.931 . S
C444 C443 1.375 . S
C444 C445 1.375 . S
C445 C444 1.375 . S
C445 C446 1.361 . S
C446 H406 0.930 . S
C446 C445 1.361 . S
C446 C447 1.399 . S
C447 H407 0.929 . S
C447 C442 1.386 . S
C447 C446 1.399 . S
C448 C427 1.485 . S
C448 C449 1.394 . S
C448 C453 1.360 . S
C449 H408 0.931 . S
C449 C448 1.394 . S
C449 C450 1.372 . S
C450 H409 0.930 . S
C450 C449 1.372 . S
C450 C451 1.397 . S
C451 C450 1.397 . S
C451 C452 1.390 . S
C451 C467 1.476 . S
C452 H410 0.930 . S
C452 C451 1.390 . S
C452 C453 1.366 . S
C453 H411 0.932 . S
C453 C448 1.360 . S
C453 C452 1.366 . S
C454 C428 1.490 . S
C454 C455 1.380 . S
C454 C459 1.386 . S
C455 H412 0.930 1_655 S
C455 C454 1.380 . S
C455 C456 1.381 . S
C456 H413 0.929 . S
C456 C455 1.381 . S
C456 C457 1.371 . S
C457 C456 1.371 . S
C457 C458 1.380 . S
C458 H414 0.931 . S
C458 C457 1.380 . S
C458 C459 1.387 . S
C459 H415 0.930 . S
C459 C454 1.386 . S
C459 C458 1.387 . S
C460 C429 1.519 . S
C460 C461 1.377 . S
C460 C465 1.361 . S
C461 H416 0.929 . S
C461 C460 1.377 . S
C461 C462 1.386 . S
C462 H417 0.931 . S
C462 C461 1.386 . S
C462 C463 1.363 . S
C463 C462 1.363 . S
C463 C464 1.385 . S
C464 H418 0.930 . S
C464 C463 1.385 . S
C464 C465 1.396 . S
C465 H419 0.929 . S
C465 C460 1.361 . S
C465 C464 1.396 . S
C466 O420 1.300 . S
C466 O421 1.209 . S
C466 C439 1.486 . S
C467 O422 1.199 . S
C467 O423 1.297 . S
C467 C451 1.476 . S
H468 O494 0.856 1_565 S
H469 O497 0.854 . S
H470 C505 0.930 . S
H471 C506 0.930 . S
H472 C508 0.930 . S
H473 C509 0.930 . S
H474 C511 0.931 . S
H475 C512 0.930 . S
H476 C514 0.930 . S
H477 C515 0.929 . S
H478 C517 0.930 . S
H479 C518 0.931 . S
H480 C520 0.930 . S
H481 C521 0.929 . S
H482 C523 0.931 . S
H483 C524 0.930 . S
H484 C526 0.930 . S
H485 C527 0.932 . S
H486 C529 0.930 . S
H487 C530 0.929 . S
H488 C532 0.931 . S
H489 C533 0.930 . S
H490 C535 0.929 . S
H491 C536 0.931 . S
H492 C538 0.930 . S
H493 C539 0.929 . S
O494 H468 0.856 1_545 S
O494 C540 1.300 1_545 S
O495 C540 1.209 . S
O496 C541 1.199 . S
O497 H469 0.854 . S
O497 C541 1.297 . S
C498 C499 1.404 . S
C498 C503 1.397 . S
C498 C504 1.492 1_545 S
C499 C498 1.404 . S
C499 C500 1.396 . S
C499 C510 1.492 . S
C500 C499 1.396 . S
C500 C501 1.397 . S
C500 C516 1.509 . S
C501 C500 1.397 . S
C501 C502 1.412 . S
C501 C522 1.485 . S
C502 C501 1.412 . S
C502 C503 1.388 . S
C502 C528 1.490 . S
C503 C498 1.397 . S
C503 C502 1.388 . S
C503 C534 1.519 . S
C504 C498 1.492 1_565 S
C504 C505 1.363 . S
C504 C509 1.390 . S
C505 H470 0.930 . S
C505 C504 1.363 . S
C505 C506 1.372 . S
C506 H471 0.930 . S
C506 C505 1.372 . S
C506 C507 1.383 . S
C507 C506 1.383 . S
C507 C508 1.395 . S
C508 H472 0.930 . S
C508 C507 1.395 . S
C508 C509 1.362 . S
C509 H473 0.930 . S
C509 C504 1.390 . S
C509 C508 1.362 . S
C510 C499 1.492 . S
C510 C511 1.377 . S
C510 C515 1.397 . S
C511 H474 0.931 . S
C511 C510 1.377 . S
C511 C512 1.376 . S
C512 H475 0.930 . S
C512 C511 1.376 . S
C512 C513 1.376 . S
C513 C512 1.376 . S
C513 C514 1.378 1_545 S
C513 C540 1.486 1_545 S
C514 H476 0.930 . S
C514 C513 1.378 1_565 S
C514 C515 1.376 1_565 S
C515 H477 0.929 . S
C515 C510 1.397 . S
C515 C514 1.376 1_545 S
C516 C500 1.509 . S
C516 C517 1.391 . S
C516 C521 1.386 . S
C517 H478 0.930 . S
C517 C516 1.391 . S
C517 C518 1.375 . S
C518 H479 0.931 . S
C518 C517 1.375 . S
C518 C519 1.375 . S
C519 C518 1.375 . S
C519 C520 1.361 . S
C520 H480 0.930 . S
C520 C519 1.361 . S
C520 C521 1.399 . S
C521 H481 0.929 . S
C521 C516 1.386 . S
C521 C520 1.399 . S
C522 C501 1.485 . S
C522 C523 1.394 . S
C522 C527 1.360 . S
C523 H482 0.931 . S
C523 C522 1.394 . S
C523 C524 1.372 . S
C524 H483 0.930 . S
C524 C523 1.372 . S
C524 C525 1.397 . S
C525 C524 1.397 . S
C525 C526 1.390 . S
C525 C541 1.476 . S
C526 H484 0.930 . S
C526 C525 1.390 . S
C526 C527 1.366 . S
C527 H485 0.932 . S
C527 C522 1.360 . S
C527 C526 1.366 . S
C528 C502 1.490 . S
C528 C529 1.380 . S
C528 C533 1.386 . S
C529 H486 0.930 . S
C529 C528 1.380 . S
C529 C530 1.381 . S
C530 H487 0.929 . S
C530 C529 1.381 . S
C530 C531 1.371 . S
C531 C530 1.371 . S
C531 C532 1.380 . S
C532 H488 0.931 . S
C532 C531 1.380 . S
C532 C533 1.387 . S
C533 H489 0.930 . S
C533 C528 1.386 . S
C533 C532 1.387 . S
C534 C503 1.519 . S
C534 C535 1.377 1_545 S
C534 C539 1.361 . S
C535 H490 0.929 . S
C535 C534 1.377 1_565 S
C535 C536 1.386 . S
C536 H491 0.931 . S
C536 C535 1.386 . S
C536 C537 1.363 . S
C537 C536 1.363 . S
C537 C538 1.385 . S
C538 H492 0.930 . S
C538 C537 1.385 . S
C538 C539 1.396 1_565 S
C539 H493 0.929 . S
C539 C534 1.361 . S
C539 C538 1.396 1_545 S
C540 O494 1.300 1_565 S
C540 O495 1.209 . S
C540 C513 1.486 1_565 S
C541 O496 1.199 . S
C541 O497 1.297 . S
C541 C525 1.476 . S
H542 O568 0.856 . S
H543 O571 0.854 . S
H544 C579 0.930 . S
H545 C580 0.930 . S
H546 C582 0.930 . S
H547 C583 0.930 . S
H548 C585 0.931 . S
H549 C586 0.930 . S
H550 C588 0.930 . S
H551 C589 0.929 . S
H552 C591 0.930 . S
H553 C592 0.931 . S
H554 C594 0.930 . S
H555 C595 0.929 . S
H556 C597 0.931 . S
H557 C598 0.930 . S
H558 C600 0.934 . S
H559 C601 0.932 . S
H560 C603 0.930 . S
H561 C604 0.929 . S
H562 C606 0.931 . S
H563 C607 0.930 . S
H564 C609 0.929 . S
H565 C610 0.931 . S
H566 C612 0.930 . S
H567 C613 0.929 . S
O568 H542 0.856 . S
O568 C614 1.300 . S
O569 C614 1.209 . S
O570 C615 1.199 . S
O571 H543 0.854 . S
O571 C615 1.297 . S
C572 C573 1.404 . S
C572 C577 1.397 1_556 S
C572 C578 1.492 . S
C573 C572 1.404 . S
C573 C574 1.396 . S
C573 C584 1.492 . S
C574 C573 1.396 . S
C574 C575 1.397 . S
C574 C590 1.509 . S
C575 C574 1.397 . S
C575 C576 1.412 1_556 S
C575 C596 1.485 . S
C576 C575 1.412 1_554 S
C576 C577 1.388 . S
C576 C602 1.490 . S
C577 C572 1.397 1_554 S
C577 C576 1.388 . S
C577 C608 1.519 . S
C578 C572 1.492 . S
C578 C579 1.363 . S
C578 C583 1.390 . S
C579 H544 0.930 . S
C579 C578 1.363 . S
C579 C580 1.372 . S
C580 H545 0.930 . S
C580 C579 1.372 . S
C580 C581 1.383 . S
C581 C580 1.383 . S
C581 C582 1.395 . S
C582 H546 0.930 . S
C582 C581 1.395 . S
C582 C583 1.362 . S
C583 H547 0.930 . S
C583 C578 1.390 . S
C583 C582 1.362 . S
C584 C573 1.492 . S
C584 C585 1.377 . S
C584 C589 1.397 . S
C585 H548 0.931 . S
C585 C584 1.377 . S
C585 C586 1.376 . S
C586 H549 0.930 . S
C586 C585 1.376 . S
C586 C587 1.376 . S
C587 C586 1.376 . S
C587 C588 1.378 . S
C587 C614 1.486 . S
C588 H550 0.930 . S
C588 C587 1.378 . S
C588 C589 1.376 . S
C589 H551 0.929 . S
C589 C584 1.397 . S
C589 C588 1.376 . S
C590 C574 1.509 . S
C590 C591 1.391 . S
C590 C595 1.386 . S
C591 H552 0.930 . S
C591 C590 1.391 . S
C591 C592 1.375 . S
C592 H553 0.931 . S
C592 C591 1.375 . S
C592 C593 1.375 . S
C593 C592 1.375 . S
C593 C594 1.361 . S
C594 H554 0.930 . S
C594 C593 1.361 . S
C594 C595 1.399 . S
C595 H555 0.929 . S
C595 C590 1.386 . S
C595 C594 1.399 . S
C596 C575 1.485 . S
C596 C597 1.394 1_556 S
C596 C601 1.360 . S
C597 H556 0.931 . S
C597 C596 1.394 1_554 S
C597 C598 1.372 . S
C598 H557 0.930 . S
C598 C597 1.372 . S
C598 C599 1.397 . S
C599 C598 1.397 . S
C599 C600 1.383 1_554 S
C599 C615 1.476 . S
C600 H558 0.934 . S
C600 C599 1.383 1_556 S
C600 C601 1.369 . S
C601 H559 0.932 . S
C601 C596 1.360 . S
C601 C600 1.369 . S
C602 C576 1.490 . S
C602 C603 1.380 . S
C602 C607 1.386 . S
C603 H560 0.930 . S
C603 C602 1.380 . S
C603 C604 1.381 . S
C604 H561 0.929 . S
C604 C603 1.381 . S
C604 C605 1.371 . S
C605 C604 1.371 . S
C605 C606 1.380 . S
C606 H562 0.931 . S
C606 C605 1.380 . S
C606 C607 1.387 . S
C607 H563 0.930 . S
C607 C602 1.386 . S
C607 C606 1.387 . S
C608 C577 1.519 . S
C608 C609 1.377 . S
C608 C613 1.361 . S
C609 H564 0.929 . S
C609 C608 1.377 . S
C609 C610 1.386 . S
C610 H565 0.931 . S
C610 C609 1.386 . S
C610 C611 1.363 . S
C611 C610 1.363 . S
C611 C612 1.385 . S
C612 H566 0.930 . S
C612 C611 1.385 . S
C612 C613 1.396 . S
C613 H567 0.929 . S
C613 C608 1.361 . S
C613 C612 1.396 . S
C614 O568 1.300 . S
C614 O569 1.209 . S
C614 C587 1.486 . S
C615 O570 1.199 . S
C615 O571 1.297 . S
C615 C599 1.476 . S
H616 O642 0.856 . S
H617 O645 0.854 . S
H618 C653 0.930 . S
H619 C654 0.930 . S
H620 C656 0.930 . S
H621 C657 0.930 . S
H622 C659 0.931 . S
H623 C660 0.930 . S
H624 C662 0.930 1_565 S
H625 C663 0.929 . S
H626 C665 0.930 . S
H627 C666 0.931 . S
H628 C668 0.930 . S
H629 C669 0.929 . S
H630 C671 0.931 . S
H631 C672 0.930 . S
H632 C674 0.930 . S
H633 C675 0.932 . S
H634 C677 0.930 . S
H635 C678 0.929 . S
H636 C680 0.931 . S
H637 C681 0.930 . S
H638 C683 0.929 . S
H639 C684 0.931 . S
H640 C686 0.930 . S
H641 C687 0.929 . S
O642 H616 0.856 . S
O642 C688 1.300 . S
O643 C688 1.209 1_565 S
O644 C689 1.199 . S
O645 H617 0.854 . S
O645 C689 1.297 . S
C646 C647 1.404 . S
C646 C651 1.397 . S
C646 C652 1.492 1_545 S
C647 C646 1.404 . S
C647 C648 1.396 . S
C647 C658 1.492 . S
C648 C647 1.396 . S
C648 C649 1.397 . S
C648 C664 1.509 . S
C649 C648 1.397 . S
C649 C650 1.412 . S
C649 C670 1.485 . S
C650 C649 1.412 . S
C650 C651 1.388 . S
C650 C676 1.490 . S
C651 C646 1.397 . S
C651 C650 1.388 . S
C651 C682 1.519 1_545 S
C652 C646 1.492 1_565 S
C652 C653 1.363 . S
C652 C657 1.390 . S
C653 H618 0.930 . S
C653 C652 1.363 . S
C653 C654 1.372 . S
C654 H619 0.930 . S
C654 C653 1.372 . S
C654 C655 1.383 . S
C655 C654 1.383 . S
C655 C656 1.395 . S
C656 H620 0.930 . S
C656 C655 1.395 . S
C656 C657 1.362 . S
C657 H621 0.930 . S
C657 C652 1.390 . S
C657 C656 1.362 . S
C658 C647 1.492 . S
C658 C659 1.377 . S
C658 C663 1.397 . S
C659 H622 0.931 . S
C659 C658 1.377 . S
C659 C660 1.376 . S
C660 H623 0.930 . S
C660 C659 1.376 . S
C660 C661 1.376 . S
C661 C660 1.376 . S
C661 C662 1.378 . S
C661 C688 1.486 . S
C662 H624 0.930 1_545 S
C662 C661 1.378 . S
C662 C663 1.376 . S
C663 H625 0.929 . S
C663 C658 1.397 . S
C663 C662 1.376 . S
C664 C648 1.509 . S
C664 C665 1.391 . S
C664 C669 1.386 . S
C665 H626 0.930 . S
C665 C664 1.391 . S
C665 C666 1.375 . S
C666 H627 0.931 . S
C666 C665 1.375 . S
C666 C667 1.375 . S
C667 C666 1.375 . S
C667 C668 1.361 . S
C668 H628 0.930 . S
C668 C667 1.361 . S
C668 C669 1.399 . S
C669 H629 0.929 . S
C669 C664 1.386 . S
C669 C668 1.399 . S
C670 C649 1.485 . S
C670 C671 1.394 . S
C670 C675 1.360 . S
C671 H630 0.931 . S
C671 C670 1.394 . S
C671 C672 1.372 . S
C672 H631 0.930 . S
C672 C671 1.372 . S
C672 C673 1.397 . S
C673 C672 1.397 . S
C673 C674 1.390 . S
C673 C689 1.476 . S
C674 H632 0.930 . S
C674 C673 1.390 . S
C674 C675 1.366 . S
C675 H633 0.932 . S
C675 C670 1.360 . S
C675 C674 1.366 . S
C676 C650 1.490 . S
C676 C677 1.380 . S
C676 C681 1.386 . S
C677 H634 0.930 . S
C677 C676 1.380 . S
C677 C678 1.381 . S
C678 H635 0.929 . S
C678 C677 1.381 . S
C678 C679 1.371 . S
C679 C678 1.371 . S
C679 C680 1.380 . S
C680 H636 0.931 . S
C680 C679 1.380 . S
C680 C681 1.387 . S
C681 H637 0.930 . S
C681 C676 1.386 . S
C681 C680 1.387 . S
C682 C651 1.519 1_565 S
C682 C683 1.377 . S
C682 C687 1.361 . S
C683 H638 0.929 . S
C683 C682 1.377 . S
C683 C684 1.386 . S
C684 H639 0.931 . S
C684 C683 1.386 . S
C684 C685 1.363 . S
C685 C684 1.363 . S
C685 C686 1.385 . S
C686 H640 0.930 . S
C686 C685 1.385 . S
C686 C687 1.396 . S
C687 H641 0.929 . S
C687 C682 1.361 . S
C687 C686 1.396 . S
C688 O642 1.300 . S
C688 O643 1.209 1_545 S
C688 C661 1.486 . S
C689 O644 1.199 . S
C689 O645 1.297 . S
C689 C673 1.476 . S
H690 O716 0.856 . S
H691 O719 0.854 . S
H692 C727 0.930 . S
H693 C728 0.930 . S
H694 C730 0.930 . S
H695 C731 0.930 . S
H696 C733 0.931 . S
H697 C734 0.930 . S
H698 C736 0.930 . S
H699 C737 0.929 . S
H700 C739 0.930 . S
H701 C740 0.931 . S
H702 C742 0.930 . S
H703 C743 0.929 . S
H704 C745 0.931 . S
H705 C746 0.930 . S
H706 C748 0.930 . S
H707 C749 0.932 . S
H708 C751 0.930 . S
H709 C752 0.929 . S
H710 C754 0.931 . S
H711 C755 0.930 . S
H712 C757 0.929 . S
H713 C758 0.931 . S
H714 C760 0.930 . S
H715 C761 0.929 . S
O716 H690 0.856 . S
O716 C762 1.300 . S
O717 C762 1.209 . S
O718 C763 1.199 . S
O719 H691 0.854 . S
O719 C763 1.297 . S
C720 C721 1.404 . S
C720 C725 1.397 1_556 S
C720 C726 1.492 . S
C721 C720 1.404 . S
C721 C722 1.396 . S
C721 C732 1.492 . S
C722 C721 1.396 . S
C722 C723 1.397 1_556 S
C722 C738 1.509 . S
C723 C722 1.397 1_554 S
C723 C724 1.412 . S
C723 C744 1.485 . S
C724 C723 1.412 . S
C724 C725 1.388 . S
C724 C750 1.490 . S
C725 C720 1.397 1_554 S
C725 C724 1.388 . S
C725 C756 1.519 . S
C726 C720 1.492 . S
C726 C727 1.363 . S
C726 C731 1.390 . S
C727 H692 0.930 . S
C727 C726 1.363 . S
C727 C728 1.372 . S
C728 H693 0.930 . S
C728 C727 1.372 . S
C728 C729 1.383 . S
C729 C728 1.383 . S
C729 C730 1.395 . S
C730 H694 0.930 . S
C730 C729 1.395 . S
C730 C731 1.362 . S
C731 H695 0.930 . S
C731 C726 1.390 . S
C731 C730 1.362 . S
C732 C721 1.492 . S
C732 C733 1.377 . S
C732 C737 1.397 . S
C733 H696 0.931 . S
C733 C732 1.377 . S
C733 C734 1.376 . S
C734 H697 0.930 . S
C734 C733 1.376 . S
C734 C735 1.376 . S
C735 C734 1.376 . S
C735 C736 1.378 . S
C735 C762 1.486 . S
C736 H698 0.930 . S
C736 C735 1.378 . S
C736 C737 1.376 . S
C737 H699 0.929 . S
C737 C732 1.397 . S
C737 C736 1.376 . S
C738 C722 1.509 . S
C738 C739 1.391 . S
C738 C743 1.386 . S
C739 H700 0.930 . S
C739 C738 1.391 . S
C739 C740 1.375 . S
C740 H701 0.931 . S
C740 C739 1.375 . S
C740 C741 1.375 . S
C741 C740 1.375 . S
C741 C742 1.361 . S
C742 H702 0.930 . S
C742 C741 1.361 . S
C742 C743 1.399 . S
C743 H703 0.929 . S
C743 C738 1.386 . S
C743 C742 1.399 . S
C744 C723 1.485 . S
C744 C745 1.394 . S
C744 C749 1.360 . S
C745 H704 0.931 . S
C745 C744 1.394 . S
C745 C746 1.372 . S
C746 H705 0.930 . S
C746 C745 1.372 . S
C746 C747 1.397 . S
C747 C746 1.397 . S
C747 C748 1.390 . S
C747 C763 1.476 . S
C748 H706 0.930 . S
C748 C747 1.390 . S
C748 C749 1.366 . S
C749 H707 0.932 . S
C749 C744 1.360 . S
C749 C748 1.366 . S
C750 C724 1.490 . S
C750 C751 1.380 . S
C750 C755 1.386 . S
C751 H708 0.930 . S
C751 C750 1.380 . S
C751 C752 1.381 . S
C752 H709 0.929 . S
C752 C751 1.381 . S
C752 C753 1.371 . S
C753 C752 1.371 . S
C753 C754 1.380 . S
C754 H710 0.931 . S
C754 C753 1.380 . S
C754 C755 1.387 . S
C755 H711 0.930 . S
C755 C750 1.386 . S
C755 C754 1.387 . S
C756 C725 1.519 . S
C756 C757 1.377 . S
C756 C761 1.361 . S
C757 H712 0.929 . S
C757 C756 1.377 . S
C757 C758 1.386 . S
C758 H713 0.931 . S
C758 C757 1.386 . S
C758 C759 1.363 . S
C759 C758 1.363 . S
C759 C760 1.385 . S
C760 H714 0.930 . S
C760 C759 1.385 . S
C760 C761 1.396 . S
C761 H715 0.929 . S
C761 C756 1.361 . S
C761 C760 1.396 . S
C762 O716 1.300 . S
C762 O717 1.209 . S
C762 C735 1.486 . S
C763 O718 1.199 . S
C763 O719 1.297 . S
C763 C747 1.476 . S
C359 C15 1.610 . S
C463 C55 2.863 . S
C383 C101 2.037 . S
C445 C141 3.090 . S
C519 C2 1.623 . S
C581 C61 2.002 . S
C95 C655 0.903 . S
C741 C135 2.009 . S
C537 C42 3.250 . S
C82 C605 2.012 . S
C679 C122 1.751 . S
C759 C21 1.949 . S
C162 C457 2.286 . S
C371 C221 4.167 . S
C255 C433 1.469 . S
C282 C389 3.505 . S
C685 C181 2.286 . S
C753 C202 2.215 . S
C531 C242 3.067 . S
C301 C611 3.111 . S
C667 C215 3.449 . S
C729 C261 2.081 . S
C507 C295 2.555 . S
C175 C593 1.389 . S
