# Generated by pormake.
# Topology cml, (3,6)-cn, num edge types: 1
# Building blocks:
#     Node 0, Type 0, BuildingBlock: BETDIP_clean_linker_0, # of connection points: 3
#     Node 1, Type 0, BuildingBlock: BETDIP_clean_linker_0, # of connection points: 3
#     Node 2, Type 0, BuildingBlock: BETDIP_clean_linker_0, # of connection points: 3
#     Node 3, Type 0, BuildingBlock: BETDIP_clean_linker_0, # of connection points: 3
#     Node 4, Type 0, BuildingBlock: BETDIP_clean_linker_0, # of connection points: 3
#     Node 5, Type 0, BuildingBlock: BETDIP_clean_linker_0, # of connection points: 3
#     Node 6, Type 0, BuildingBlock: BETDIP_clean_linker_0, # of connection points: 3
#     Node 7, Type 0, BuildingBlock: BETDIP_clean_linker_0, # of connection points: 3
#     Node 8, Type 1, BuildingBlock: OJICUG_clean_sbu_0, # of connection points: 6
#     Node 9, Type 1, BuildingBlock: OJICUG_clean_sbu_0, # of connection points: 6
#     Node 10, Type 1, BuildingBlock: OJICUG_clean_sbu_0, # of connection points: 6
#     Node 11, Type 1, BuildingBlock: OJICUG_clean_sbu_0, # of connection points: 6
#     Edge 12, Type (0, 1), BuildingBlock: MIFKUJ_clean_linker_0, # of connection points: 2
#     Edge 13, Type (0, 1), BuildingBlock: MIFKUJ_clean_linker_0, # of connection points: 2
#     Edge 14, Type (0, 1), BuildingBlock: MIFKUJ_clean_linker_0, # of connection points: 2
#     Edge 15, Type (0, 1), BuildingBlock: MIFKUJ_clean_linker_0, # of connection points: 2
#     Edge 16, Type (0, 1), BuildingBlock: MIFKUJ_clean_linker_0, # of connection points: 2
#     Edge 17, Type (0, 1), BuildingBlock: MIFKUJ_clean_linker_0, # of connection points: 2
#     Edge 18, Type (0, 1), BuildingBlock: MIFKUJ_clean_linker_0, # of connection points: 2
#     Edge 19, Type (0, 1), BuildingBlock: MIFKUJ_clean_linker_0, # of connection points: 2
#     Edge 20, Type (0, 1), BuildingBlock: MIFKUJ_clean_linker_0, # of connection points: 2
#     Edge 21, Type (0, 1), BuildingBlock: MIFKUJ_clean_linker_0, # of connection points: 2
#     Edge 22, Type (0, 1), BuildingBlock: MIFKUJ_clean_linker_0, # of connection points: 2
#     Edge 23, Type (0, 1), BuildingBlock: MIFKUJ_clean_linker_0, # of connection points: 2
#     Edge 24, Type (0, 1), BuildingBlock: MIFKUJ_clean_linker_0, # of connection points: 2
#     Edge 25, Type (0, 1), BuildingBlock: MIFKUJ_clean_linker_0, # of connection points: 2
#     Edge 26, Type (0, 1), BuildingBlock: MIFKUJ_clean_linker_0, # of connection points: 2
#     Edge 27, Type (0, 1), BuildingBlock: MIFKUJ_clean_linker_0, # of connection points: 2
#     Edge 28, Type (0, 1), BuildingBlock: MIFKUJ_clean_linker_0, # of connection points: 2
#     Edge 29, Type (0, 1), BuildingBlock: MIFKUJ_clean_linker_0, # of connection points: 2
#     Edge 30, Type (0, 1), BuildingBlock: MIFKUJ_clean_linker_0, # of connection points: 2
#     Edge 31, Type (0, 1), BuildingBlock: MIFKUJ_clean_linker_0, # of connection points: 2
#     Edge 32, Type (0, 1), BuildingBlock: MIFKUJ_clean_linker_0, # of connection points: 2
#     Edge 33, Type (0, 1), BuildingBlock: MIFKUJ_clean_linker_0, # of connection points: 2
#     Edge 34, Type (0, 1), BuildingBlock: MIFKUJ_clean_linker_0, # of connection points: 2
#     Edge 35, Type (0, 1), BuildingBlock: MIFKUJ_clean_linker_0, # of connection points: 2
# Relax obj value: 0.006
# Max RMSD: 0.053
# Mean RMSD: 0.045
data_MOF--net-cml--node1-OJICUG_clean_sbu_0--node2-BETDIP_clean_linker_0--edge1-MIFKUJ_clean_linker_0
_symmetry_space_group_name_H-M    P1
_symmetry_Int_Tables_number       1
_symmetry_cell_setting            triclinic
loop_
_symmetry_equiv_pos_as_xyz
'x, y, z'
_cell_length_a     52.553398
_cell_length_b     50.875542
_cell_length_c     45.857864
_cell_angle_alpha  89.982665
_cell_angle_beta   89.984608
_cell_angle_gamma 90.021007
loop_
_atom_site_label
_atom_site_type_symbol
_atom_site_fract_x
_atom_site_fract_y
_atom_site_fract_z
_atom_type_partial_charge
H0 H 0.25085 0.36478 0.05134 0.0
H1 H 0.2482 0.41011 0.97215 0.0
H2 H 0.30228 0.42957 0.03881 0.0
H3 H 0.20635 0.39623 0.97319 0.0
C4 C 0.20898 0.37579 0.97936 0.0
C5 C 0.25773 0.38107 0.03829 0.0
C6 C 0.27748 0.39707 0.04875 0.0
C7 C 0.24659 0.38605 0.01109 0.0
C8 C 0.25591 0.40674 0.99372 0.0
C9 C 0.27584 0.4227 0.00377 0.0
C10 C 0.28625 0.41792 0.03142 0.0
N11 N 0.22704 0.36902 0.00113 0.0
H12 H 0.74223 0.63312 0.55302 0.0
H13 H 0.73806 0.59372 0.47001 0.0
H14 H 0.68565 0.57357 0.53804 0.0
H15 H 0.77743 0.60838 0.46411 0.0
C16 C 0.77866 0.62678 0.47598 0.0
C17 C 0.73361 0.61848 0.53897 0.0
C18 C 0.71298 0.60352 0.54909 0.0
C19 C 0.74333 0.61467 0.51082 0.0
C20 C 0.73176 0.59605 0.4923 0.0
C21 C 0.71086 0.58126 0.50202 0.0
C22 C 0.70187 0.58488 0.53052 0.0
N23 N 0.76378 0.63092 0.50145 0.0
H24 H 0.75166 0.37218 0.05006 0.0
H25 H 0.7489 0.42074 0.97319 0.0
H26 H 0.69721 0.43495 0.04364 0.0
H27 H 0.78284 0.39974 0.9592 0.0
C28 C 0.7849 0.38172 0.97158 0.0
C29 C 0.74363 0.38869 0.03828 0.0
C30 C 0.72365 0.40322 0.05058 0.0
C31 C 0.7531 0.39483 0.01055 0.0
C32 C 0.74239 0.41593 0.99488 0.0
C33 C 0.72256 0.43083 0.00704 0.0
C34 C 0.71341 0.42438 0.03488 0.0
N35 N 0.77231 0.3783 0.99875 0.0
H36 H 0.25493 0.63491 0.54891 0.0
H37 H 0.26691 0.59313 0.46838 0.0
H38 H 0.31345 0.5762 0.54282 0.0
H39 H 0.24611 0.62593 0.44854 0.0
C40 C 0.234 0.63507 0.46478 0.0
C41 C 0.265 0.62007 0.53648 0.0
C42 C 0.2848 0.60581 0.54951 0.0
C43 C 0.25844 0.61585 0.50724 0.0
C44 C 0.27167 0.59675 0.49094 0.0
C45 C 0.29173 0.58255 0.50363 0.0
C46 C 0.29785 0.58696 0.533 0.0
N47 N 0.23885 0.63164 0.49504 0.0
H48 H 0.75172 0.86375 0.05378 0.0
H49 H 0.76398 0.90305 0.97159 0.0
H50 H 0.81427 0.91744 0.04314 0.0
H51 H 0.73628 0.87632 0.95393 0.0
C52 C 0.72655 0.86522 0.97073 0.0
C53 C 0.76243 0.87742 0.04042 0.0
C54 C 0.78352 0.89058 0.05218 0.0
C55 C 0.75517 0.88151 0.01135 0.0
C56 C 0.76911 0.89933 0.994 0.0
C57 C 0.79055 0.91213 0.0054 0.0
C58 C 0.79753 0.90774 0.03445 0.0
N59 N 0.73426 0.86676 0.0004 0.0
H60 H 0.24037 0.13789 0.54536 0.0
H61 H 0.25005 0.0874 0.47102 0.0
H62 H 0.19069 0.07164 0.53305 0.0
H63 H 0.29258 0.10261 0.4766 0.0
C64 C 0.28803 0.12329 0.47945 0.0
C65 C 0.2349 0.12046 0.53331 0.0
C66 C 0.21415 0.10526 0.54261 0.0
C67 C 0.24824 0.11388 0.50791 0.0
C68 C 0.24051 0.09203 0.49131 0.0
C69 C 0.21973 0.07666 0.50032 0.0
C70 C 0.20694 0.08322 0.52619 0.0
N71 N 0.26798 0.13086 0.4984 0.0
H72 H 0.23743 0.86403 0.04635 0.0
H73 H 0.23794 0.91098 0.96835 0.0
H74 H 0.18408 0.92748 0.03646 0.0
H75 H 0.24529 0.86672 0.95048 0.0
C76 C 0.261 0.86221 0.96507 0.0
C77 C 0.23008 0.88051 0.03397 0.0
C78 C 0.20954 0.89519 0.04478 0.0
C79 C 0.23994 0.88571 0.00618 0.0
C80 C 0.23003 0.90661 0.98962 0.0
C81 C 0.21015 0.92208 0.00066 0.0
C82 C 0.20001 0.91618 0.0282 0.0
N83 N 0.25934 0.8692 0.99498 0.0
H84 H 0.74197 0.12571 0.55295 0.0
H85 H 0.75444 0.08315 0.47309 0.0
H86 H 0.80249 0.06922 0.54703 0.0
H87 H 0.71812 0.09939 0.45878 0.0
C88 C 0.71352 0.11647 0.47189 0.0
C89 C 0.7522 0.11084 0.54074 0.0
C90 C 0.77293 0.09788 0.55352 0.0
C91 C 0.74485 0.10525 0.51204 0.0
C92 C 0.75882 0.08671 0.49575 0.0
C93 C 0.77971 0.07365 0.50825 0.0
C94 C 0.78624 0.079 0.53732 0.0
N95 N 0.72449 0.12007 0.49994 0.0
Sc96 Sc -2e-05 0.8259 0.31701 0.0
Sc97 Sc 0.00066 0.89511 0.31828 0.0
Sc98 Sc 0.00118 0.85958 0.38428 0.0
O99 O 0.00058 0.86017 0.33988 0.0
C100 C 0.96295 0.81259 0.3704 0.0
C101 C 0.96102 0.86135 0.28095 0.0
C102 C 0.96317 0.90722 0.37131 0.0
C103 C 0.03793 0.8609 0.27879 0.0
C104 C 0.03889 0.81244 0.36815 0.0
C105 C 0.04005 0.90612 0.36986 0.0
O106 O 0.97169 0.8085 0.34495 0.0
O107 O 0.97084 0.88293 0.28923 0.0
O108 O 0.97226 0.8895 0.38787 0.0
O109 O 0.02872 0.83894 0.28672 0.0
O110 O 0.02997 0.82942 0.38575 0.0
O111 O 0.03059 0.91105 0.34495 0.0
O112 O 0.0303 0.80924 0.34248 0.0
O113 O 0.02973 0.88275 0.28832 0.0
O114 O 0.03142 0.8882 0.3865 0.0
O115 O 0.96932 0.83907 0.28919 0.0
O116 O 0.97124 0.83072 0.38694 0.0
O117 O 0.97152 0.91144 0.34573 0.0
Sc118 Sc 0.99594 0.17491 0.80775 0.0
Sc119 Sc 0.99673 0.10553 0.80937 0.0
Sc120 Sc 0.9948 0.14139 0.87499 0.0
O121 O 0.99582 0.14062 0.8307 0.0
C122 C 0.03251 0.18902 0.86096 0.0
C123 C 0.0348 0.14021 0.77086 0.0
C124 C 0.03477 0.09534 0.86224 0.0
C125 C 0.95789 0.13892 0.77078 0.0
C126 C 0.95657 0.1878 0.85893 0.0
C127 C 0.95842 0.0927 0.86153 0.0
O128 O 0.0248 0.1924 0.83495 0.0
O129 O 0.02579 0.11838 0.77948 0.0
O130 O 0.02491 0.11284 0.87852 0.0
O131 O 0.96688 0.16116 0.77821 0.0
O132 O 0.96475 0.17009 0.87608 0.0
O133 O 0.96793 0.088 0.8366 0.0
O134 O 0.96605 0.19184 0.83381 0.0
O135 O 0.9667 0.11726 0.78027 0.0
O136 O 0.966 0.11145 0.87761 0.0
O137 O 0.02605 0.1622 0.77927 0.0
O138 O 0.02332 0.17156 0.87776 0.0
O139 O 0.02671 0.09044 0.83666 0.0
Sc140 Sc 0.50084 0.32464 0.30793 0.0
Sc141 Sc 0.50219 0.39374 0.31158 0.0
Sc142 Sc 0.50351 0.35659 0.37631 0.0
O143 O 0.50217 0.35828 0.33196 0.0
C144 C 0.46416 0.31058 0.36093 0.0
C145 C 0.46249 0.36178 0.27287 0.0
C146 C 0.46537 0.4044 0.36574 0.0
C147 C 0.53928 0.35991 0.27106 0.0
C148 C 0.53994 0.30918 0.35875 0.0
C149 C 0.54198 0.40376 0.36276 0.0
O150 O 0.47098 0.30822 0.33446 0.0
O151 O 0.47146 0.383 0.2832 0.0
O152 O 0.47397 0.38567 0.38124 0.0
O153 O 0.53072 0.33765 0.27904 0.0
O154 O 0.53295 0.32727 0.37611 0.0
O155 O 0.53299 0.40851 0.33761 0.0
O156 O 0.52976 0.30566 0.33388 0.0
O157 O 0.53036 0.38152 0.28048 0.0
O158 O 0.53296 0.38608 0.37942 0.0
O159 O 0.47154 0.33931 0.27918 0.0
O160 O 0.47454 0.32664 0.37856 0.0
O161 O 0.47403 0.4098 0.34056 0.0
Sc162 Sc 0.49821 0.67191 0.81692 0.0
Sc163 Sc 0.49715 0.60273 0.82138 0.0
Sc164 Sc 0.49417 0.64071 0.88545 0.0
O165 O 0.49652 0.63846 0.84126 0.0
C166 C 0.53384 0.68663 0.87038 0.0
C167 C 0.53699 0.63464 0.78268 0.0
C168 C 0.53333 0.59348 0.87646 0.0
C169 C 0.46024 0.63609 0.78006 0.0
C170 C 0.45794 0.68755 0.86629 0.0
C171 C 0.45668 0.59276 0.87196 0.0
O172 O 0.52751 0.68857 0.84372 0.0
O173 O 0.52799 0.61344 0.79305 0.0
O174 O 0.52396 0.61218 0.89139 0.0
O175 O 0.46881 0.65837 0.78792 0.0
O176 O 0.46416 0.66937 0.88389 0.0
O177 O 0.46639 0.58759 0.84727 0.0
O178 O 0.46908 0.69136 0.84205 0.0
O179 O 0.469 0.61446 0.78976 0.0
O180 O 0.46495 0.61105 0.88828 0.0
O181 O 0.52786 0.65708 0.78883 0.0
O182 O 0.523 0.67089 0.88802 0.0
O183 O 0.52532 0.58752 0.85112 0.0
H184 H 0.16696 0.38399 0.94646 0.0
H185 H 0.13815 0.35086 0.92593 0.0
H186 H 0.18439 0.28922 0.96282 0.0
H187 H 0.21308 0.32219 0.9836 0.0
H188 H 0.16969 0.28006 0.90412 0.0
H189 H 0.13288 0.30338 0.9967 0.0
H190 H 0.11635 0.33391 0.03392 0.0
H191 H 0.05917 0.36083 0.97408 0.0
H192 H 0.07562 0.33071 0.93634 0.0
H193 H 0.04847 0.19345 0.91747 0.0
H194 H 0.08016 0.22366 0.93714 0.0
H195 H 0.09353 0.25481 0.85102 0.0
H196 H 0.06179 0.22461 0.83097 0.0
H197 H 0.07939 0.27768 0.93578 0.0
H198 H 0.1578 0.271 0.84781 0.0
H199 H 0.17453 0.23893 0.8123 0.0
H200 H 0.14924 0.17533 0.86664 0.0
H201 H 0.13269 0.207 0.90265 0.0
C202 C 0.17093 0.36336 0.95014 0.0
C203 C 0.19205 0.35563 0.96678 0.0
C204 C 0.15453 0.34451 0.93843 0.0
C205 C 0.15916 0.31766 0.943 0.0
C206 C 0.18056 0.30987 0.95907 0.0
C207 C 0.19682 0.32872 0.97106 0.0
C208 C 0.14124 0.29772 0.93168 0.0
C209 C 0.14994 0.27953 0.91096 0.0
C210 C 0.1156 0.29691 0.94095 0.0
C211 C 0.10565 0.315 0.96361 0.0
C212 C 0.11692 0.31598 0.9914 0.0
C213 C 0.10754 0.33317 0.0126 0.0
C214 C 0.08677 0.34935 0.00634 0.0
C215 C 0.07529 0.34832 0.97888 0.0
C216 C 0.08462 0.33118 0.95758 0.0
C217 C 0.05822 0.20658 0.9026 0.0
C218 C 0.05252 0.20662 0.87261 0.0
C219 C 0.07626 0.2239 0.91394 0.0
C220 C 0.08918 0.24138 0.89552 0.0
C221 C 0.08386 0.2413 0.86554 0.0
C222 C 0.06566 0.22409 0.85416 0.0
C223 C 0.10772 0.26017 0.90792 0.0
C224 C 0.09913 0.27822 0.92883 0.0
C225 C 0.13349 0.26064 0.89902 0.0
C226 C 0.14377 0.2414 0.87776 0.0
C227 C 0.1559 0.25018 0.85223 0.0
C228 C 0.16534 0.23206 0.83201 0.0
C229 C 0.16287 0.20511 0.83716 0.0
C230 C 0.15105 0.19621 0.86261 0.0
C231 C 0.14161 0.21424 0.88291 0.0
H232 H 0.17016 0.19112 0.82146 0.0
H233 H 0.07952 0.36264 0.02279 0.0
H234 H 0.80922 0.62422 0.42856 0.0
H235 H 0.8395 0.65735 0.41112 0.0
H236 H 0.81883 0.70814 0.48263 0.0
H237 H 0.78877 0.67507 0.50028 0.0
H238 H 0.83234 0.7079 0.39328 0.0
H239 H 0.87213 0.74181 0.50423 0.0
H240 H 0.87897 0.7244 0.55384 0.0
H241 H 0.88444 0.64608 0.51955 0.0
H242 H 0.87798 0.66306 0.46972 0.0
H243 H 0.93323 0.81897 0.41907 0.0
H244 H 0.90035 0.78921 0.43747 0.0
H245 H 0.91483 0.73612 0.36602 0.0
H246 H 0.94715 0.76594 0.3471 0.0
H247 H 0.9027 0.73965 0.45626 0.0
H248 H 0.85973 0.70569 0.34561 0.0
H249 H 0.85489 0.72319 0.29576 0.0
H250 H 0.85711 0.80203 0.32905 0.0
H251 H 0.86085 0.78506 0.3791 0.0
C252 C 0.81121 0.64246 0.44054 0.0
C253 C 0.79679 0.64702 0.4658 0.0
C254 C 0.82839 0.66138 0.43052 0.0
C255 C 0.83155 0.6851 0.44571 0.0
C256 C 0.81692 0.68982 0.4708 0.0
C257 C 0.79972 0.67092 0.48082 0.0
C258 C 0.85027 0.7048 0.43536 0.0
C259 C 0.84788 0.71467 0.40691 0.0
C260 C 0.87011 0.71413 0.45348 0.0
C261 C 0.87427 0.7037 0.48331 0.0
C262 C 0.87486 0.72089 0.50728 0.0
C263 C 0.87867 0.71109 0.53544 0.0
C264 C 0.88204 0.68414 0.53985 0.0
C265 C 0.88172 0.66693 0.51611 0.0
C266 C 0.87794 0.67663 0.48792 0.0
C267 C 0.92934 0.80101 0.4072 0.0
C268 C 0.94273 0.79493 0.38149 0.0
C269 C 0.9106 0.784 0.4178 0.0
C270 C 0.90494 0.7606 0.40294 0.0
C271 C 0.91852 0.75432 0.37753 0.0
C272 C 0.93705 0.7714 0.36677 0.0
C273 C 0.88496 0.74258 0.41404 0.0
C274 C 0.88706 0.73306 0.44265 0.0
C275 C 0.86483 0.73363 0.39607 0.0
C276 C 0.86088 0.74405 0.36614 0.0
C277 C 0.85883 0.72675 0.34234 0.0
C278 C 0.85623 0.73659 0.31401 0.0
C279 C 0.85567 0.76371 0.30921 0.0
C280 C 0.8574 0.78104 0.33275 0.0
C281 C 0.85971 0.77131 0.36112 0.0
H282 H 0.85395 0.77127 0.28724 0.0
H283 H 0.88497 0.67659 0.56167 0.0
H284 H 0.79611 0.33396 0.99632 0.0
H285 H 0.82312 0.29939 0.97622 0.0
H286 H 0.83762 0.34707 0.90018 0.0
H287 H 0.81033 0.38181 0.92015 0.0
H288 H 0.82725 0.29535 0.88623 0.0
H289 H 0.88169 0.34283 0.95251 0.0
H290 H 0.89373 0.36229 -0.00022 0.0
H291 H 0.89008 0.2862 0.04012 0.0
H292 H 0.87768 0.26634 0.99314 0.0
H293 H 0.93714 0.23123 0.83157 0.0
H294 H 0.90536 0.26181 0.85021 0.0
H295 H 0.89698 0.21457 0.92777 0.0
H296 H 0.92913 0.18406 0.90958 0.0
H297 H 0.90284 0.26474 0.94144 0.0
H298 H 0.85025 0.21646 0.87572 0.0
H299 H 0.83819 0.1962 0.8289 0.0
H300 H 0.83769 0.27214 0.78805 0.0
H301 H 0.85008 0.29285 0.83457 0.0
C302 C 0.80503 0.33714 0.97533 0.0
C303 C 0.80126 0.36064 0.9598 0.0
C304 C 0.82049 0.31736 0.9639 0.0
C305 C 0.83252 0.32078 0.93684 0.0
C306 C 0.82849 0.34407 0.92111 0.0
C307 C 0.81304 0.3639 0.93256 0.0
C308 C 0.84963 0.3002 0.9252 0.0
C309 C 0.84395 0.28882 0.89809 0.0
C310 C 0.87097 0.29124 0.94114 0.0
C311 C 0.8785 0.30315 0.96938 0.0
C312 C 0.88325 0.33029 0.97151 0.0
C313 C 0.89018 0.34138 0.99824 0.0
C314 C 0.8926 0.32551 0.02296 0.0
C315 C 0.88816 0.29848 0.02097 0.0
C316 C 0.8812 0.28729 0.99429 0.0
C317 C 0.92839 0.22714 0.85248 0.0
C318 C 0.93581 0.20521 0.86913 0.0
C319 C 0.91011 0.24461 0.86304 0.0
C320 C 0.89867 0.24036 0.89028 0.0
C321 C 0.90561 0.21822 0.90669 0.0
C322 C 0.92397 0.20078 0.89622 0.0
C323 C 0.88056 0.25984 0.90237 0.0
C324 C 0.88606 0.27108 0.92958 0.0
C325 C 0.859 0.26852 0.88659 0.0
C326 C 0.85132 0.25618 0.8586 0.0
C327 C 0.84775 0.22883 0.85671 0.0
C328 C 0.84083 0.21726 0.83023 0.0
C329 C 0.83725 0.23286 0.80549 0.0
C330 C 0.8405 0.26008 0.80722 0.0
C331 C 0.84744 0.27175 0.83366 0.0
H332 H 0.83191 0.22386 0.785 0.0
H333 H 0.89796 0.33413 0.04363 0.0
H334 H 0.20104 0.6641 0.49826 0.0
H335 H 0.16843 0.6946 0.48123 0.0
H336 H 0.18859 0.67751 0.392 0.0
H337 H 0.22168 0.64717 0.409 0.0
H338 H 0.18245 0.72944 0.4001 0.0
H339 H 0.13521 0.65148 0.42198 0.0
H340 H 0.12068 0.61411 0.45192 0.0
H341 H 0.0902 0.66751 0.51545 0.0
H342 H 0.10488 0.70523 0.48607 0.0
H343 H 0.07015 0.78179 0.33472 0.0
H344 H 0.1041 0.7526 0.35137 0.0
H345 H 0.0892 0.77494 0.44045 0.0
H346 H 0.05523 0.80428 0.42408 0.0
H347 H 0.09262 0.72052 0.43201 0.0
H348 H 0.13989 0.7986 0.40897 0.0
H349 H 0.15359 0.83544 0.37773 0.0
H350 H 0.18321 0.78095 0.31482 0.0
H351 H 0.16935 0.74375 0.3455 0.0
C352 C 0.19853 0.66676 0.47501 0.0
C353 C 0.21383 0.65321 0.45487 0.0
C354 C 0.17981 0.68415 0.46531 0.0
C355 C 0.1759 0.68811 0.43534 0.0
C356 C 0.19129 0.67472 0.41522 0.0
C357 C 0.21007 0.65735 0.42492 0.0
C358 C 0.15583 0.70635 0.42507 0.0
C359 C 0.16275 0.72728 0.40675 0.0
C360 C 0.13022 0.70381 0.43422 0.0
C361 C 0.12138 0.68118 0.45196 0.0
C362 C 0.1256 0.65526 0.44246 0.0
C363 C 0.1173 0.63401 0.45931 0.0
C364 C 0.10459 0.63843 0.48561 0.0
C365 C 0.10009 0.66412 0.49509 0.0
C366 C 0.10837 0.68544 0.47834 0.0
C367 C 0.0741 0.78056 0.35787 0.0
C368 C 0.05994 0.79535 0.37809 0.0
C369 C 0.09358 0.76396 0.3673 0.0
C370 C 0.09917 0.76175 0.3971 0.0
C371 C 0.08513 0.77644 0.41735 0.0
C372 C 0.06581 0.79325 0.40793 0.0
C373 C 0.11928 0.74358 0.40718 0.0
C374 C 0.11235 0.72265 0.42541 0.0
C375 C 0.14481 0.74604 0.3978 0.0
C376 C 0.15335 0.76838 0.3794 0.0
C377 C 0.14914 0.79446 0.38836 0.0
C378 C 0.15696 0.81541 0.37078 0.0
C379 C 0.1692 0.81054 0.34427 0.0
C380 C 0.1737 0.7847 0.33534 0.0
C381 C 0.16589 0.76367 0.35283 0.0
H382 H 0.17523 0.82679 0.33068 0.0
H383 H 0.09817 0.62196 0.49862 0.0
H384 H 0.70939 0.85683 0.91594 0.0
H385 H 0.67646 0.82595 0.90007 0.0
H386 H 0.66503 0.80147 0.98922 0.0
H387 H 0.69813 0.83209 0.00518 0.0
H388 H 0.66749 0.75969 0.95224 0.0
H389 H 0.62272 0.84178 0.95702 0.0
H390 H 0.61519 0.88869 0.94663 0.0
H391 H 0.61185 0.8721 0.85491 0.0
H392 H 0.61971 0.82511 0.86472 0.0
H393 H 0.55083 0.69183 0.92665 0.0
H394 H 0.58375 0.72157 0.94469 0.0
H395 H 0.59656 0.74994 0.85725 0.0
H396 H 0.56348 0.72065 0.83903 0.0
H397 H 0.59284 0.78974 0.89503 0.0
H398 H 0.63823 0.70796 0.88979 0.0
H399 H 0.6455 0.66092 0.89977 0.0
H400 H 0.64775 0.6767 0.99172 0.0
H401 H 0.64011 0.7238 0.9823 0.0
C402 C 0.69977 0.8449 0.93213 0.0
C403 C 0.70623 0.8469 0.96173 0.0
C404 C 0.68095 0.82734 0.92307 0.0
C405 C 0.66816 0.81161 0.94352 0.0
C406 C 0.67469 0.81346 0.97312 0.0
C407 C 0.69353 0.83103 0.98219 0.0
C408 C 0.64807 0.79313 0.93393 0.0
C409 C 0.65097 0.76627 0.94009 0.0
C410 C 0.62683 0.80171 0.91756 0.0
C411 C 0.62204 0.82996 0.9116 0.0
C412 C 0.62058 0.84816 0.93462 0.0
C413 C 0.61622 0.87476 0.92883 0.0
C414 C 0.61311 0.88338 0.90012 0.0
C415 C 0.61429 0.8654 0.87714 0.0
C416 C 0.61868 0.83878 0.8828 0.0
C417 C 0.56071 0.7043 0.91121 0.0
C418 C 0.55444 0.70385 0.88138 0.0
C419 C 0.57959 0.72122 0.92156 0.0
C420 C 0.59271 0.73782 0.90227 0.0
C421 C 0.58662 0.73731 0.87251 0.0
C422 C 0.56772 0.72049 0.86214 0.0
C423 C 0.61235 0.75625 0.91311 0.0
C424 C 0.60934 0.78313 0.90722 0.0
C425 C 0.6335 0.74765 0.92965 0.0
C426 C 0.63834 0.71937 0.93535 0.0
C427 C 0.64009 0.70137 0.91215 0.0
C428 C 0.6443 0.6747 0.9177 0.0
C429 C 0.64702 0.66582 0.94637 0.0
C430 C 0.64561 0.6836 0.96953 0.0
C431 C 0.64136 0.71029 0.96409 0.0
H432 H 0.65027 0.64516 0.95062 0.0
H433 H 0.60973 0.90398 0.89569 0.0
H434 H 0.27713 0.17519 0.47046 0.0
H435 H 0.30415 0.20822 0.44729 0.0
H436 H 0.36323 0.15012 0.43593 0.0
H437 H 0.3356 0.11671 0.45774 0.0
H438 H 0.34545 0.22959 0.46084 0.0
H439 H 0.4001 0.16291 0.37848 0.0
H440 H 0.39211 0.12365 0.34826 0.0
H441 H 0.31198 0.1401 0.34886 0.0
H442 H 0.31951 0.17963 0.37874 0.0
H443 H 0.45739 0.29337 0.41664 0.0
H444 H 0.42503 0.26305 0.43461 0.0
H445 H 0.39199 0.25903 0.34852 0.0
H446 H 0.42522 0.28836 0.33012 0.0
H447 H 0.39255 0.21312 0.36892 0.0
H448 H 0.36386 0.29445 0.40707 0.0
H449 H 0.36652 0.3369 0.43282 0.0
H450 H 0.38479 0.29689 0.51256 0.0
H451 H 0.3826 0.25419 0.4872 0.0
C452 C 0.29586 0.16947 0.46291 0.0
C453 C 0.30437 0.14344 0.46585 0.0
C454 C 0.31131 0.18837 0.44971 0.0
C455 C 0.33567 0.18168 0.43951 0.0
C456 C 0.3443 0.15569 0.44291 0.0
C457 C 0.32862 0.13665 0.45556 0.0
C458 C 0.35224 0.20202 0.426 0.0
C459 C 0.35566 0.226 0.44068 0.0
C460 C 0.36506 0.19776 0.39924 0.0
C461 C 0.36037 0.1741 0.38109 0.0
C462 C 0.38079 0.1582 0.37207 0.0
C463 C 0.37634 0.13589 0.35502 0.0
C464 C 0.35155 0.12934 0.34673 0.0
C465 C 0.33116 0.14514 0.35539 0.0
C466 C 0.33551 0.16748 0.37242 0.0
C467 C 0.44311 0.28616 0.40159 0.0
C468 C 0.44376 0.29329 0.372 0.0
C469 C 0.42453 0.26891 0.41192 0.0
C470 C 0.40573 0.25905 0.39307 0.0
C471 C 0.40626 0.26633 0.36351 0.0
C472 C 0.42521 0.28314 0.35303 0.0
C473 C 0.38609 0.24047 0.40404 0.0
C474 C 0.38217 0.2168 0.38895 0.0
C475 C 0.37197 0.24549 0.42975 0.0
C476 C 0.37326 0.27112 0.44516 0.0
C477 C 0.36862 0.29471 0.43005 0.0
C478 C 0.37002 0.31882 0.44459 0.0
C479 C 0.37587 0.3196 0.47429 0.0
C480 C 0.38028 0.29626 0.48954 0.0
C481 C 0.37893 0.27209 0.47511 0.0
H482 H 0.37695 0.33828 0.4855 0.0
H483 H 0.34815 0.11205 0.33354 0.0
H484 H 0.30789 0.85468 0.98959 0.0
H485 H 0.34213 0.82651 0.97151 0.0
H486 H 0.29448 0.8023 0.89963 0.0
H487 H 0.26078 0.83159 0.91687 0.0
H488 H 0.34706 0.77757 0.96582 0.0
H489 H 0.32845 0.7855 0.84104 0.0
H490 H 0.31276 0.81806 0.80545 0.0
H491 H 0.33473 0.88087 0.86269 0.0
H492 H 0.35084 0.84872 0.89845 0.0
H493 H 0.41553 0.67591 0.89794 0.0
H494 H 0.3819 0.70609 0.91326 0.0
H495 H 0.42107 0.77017 0.87073 0.0
H496 H 0.45382 0.73966 0.85383 0.0
H497 H 0.37453 0.77688 0.86234 0.0
H498 H 0.42293 0.75822 0.94804 0.0
H499 H 0.44358 0.73044 0.98523 0.0
H500 H 0.37101 0.6982 0.00925 0.0
H501 H 0.34997 0.72555 0.97194 0.0
C502 C 0.30483 0.84343 0.96985 0.0
C503 C 0.28179 0.84526 0.95452 0.0
C504 C 0.32436 0.82729 0.95956 0.0
C505 C 0.32107 0.81246 0.93399 0.0
C506 C 0.2978 0.81401 0.91897 0.0
C507 C 0.27849 0.83059 0.92891 0.0
C508 C 0.34176 0.79499 0.9234 0.0
C509 C 0.35311 0.7775 0.9432 0.0
C510 C 0.35008 0.79517 0.89402 0.0
C511 C 0.34061 0.81467 0.87254 0.0
C512 C 0.33001 0.80626 0.84598 0.0
C513 C 0.32103 0.82465 0.82579 0.0
C514 C 0.32267 0.85151 0.83185 0.0
C515 C 0.33338 0.86005 0.85807 0.0
C516 C 0.34241 0.84176 0.87832 0.0
C517 C 0.41683 0.69643 0.89178 0.0
C518 C 0.43728 0.70554 0.87485 0.0
C519 C 0.39771 0.71371 0.9007 0.0
C520 C 0.3992 0.74059 0.89377 0.0
C521 C 0.41945 0.74956 0.87641 0.0
C522 C 0.43819 0.73215 0.8668 0.0
C523 C 0.37979 0.75941 0.90474 0.0
C524 C 0.36858 0.77704 0.88499 0.0
C525 C 0.37235 0.76013 0.93444 0.0
C526 C 0.38491 0.74377 0.95702 0.0
C527 C 0.4114 0.74509 0.96114 0.0
C528 C 0.42317 0.72944 0.98225 0.0
C529 C 0.40862 0.71252 -0.00045 0.0
C530 C 0.38226 0.71129 0.99582 0.0
C531 C 0.3704 0.72688 0.97471 0.0
H532 H 0.41777 0.70041 0.01587 0.0
H533 H 0.31569 0.86571 0.8162 0.0
H534 H 0.69261 0.11721 0.41786 0.0
H535 H 0.66393 0.15035 0.39718 0.0
H536 H 0.66603 0.19341 0.47818 0.0
H537 H 0.69451 0.16041 0.49896 0.0
H538 H 0.61783 0.18864 0.45706 0.0
H539 H 0.6999 0.21452 0.42099 0.0
H540 H 0.74096 0.20835 0.39589 0.0
H541 H 0.7018 0.18997 0.31629 0.0
H542 H 0.66047 0.19567 0.34105 0.0
H543 H 0.56493 0.30871 0.41114 0.0
H544 H 0.59539 0.27623 0.42872 0.0
H545 H 0.59076 0.23503 0.34672 0.0
H546 H 0.56037 0.26758 0.3287 0.0
H547 H 0.63991 0.23819 0.36728 0.0
H548 H 0.55786 0.21267 0.40322 0.0
H549 H 0.5168 0.21925 0.42819 0.0
H550 H 0.55593 0.23691 0.508 0.0
H551 H 0.59726 0.23083 0.48337 0.0
C552 C 0.68688 0.13375 0.43121 0.0
C553 C 0.69581 0.13627 0.45992 0.0
C554 C 0.67063 0.15269 0.41937 0.0
C555 C 0.66307 0.17445 0.43608 0.0
C556 C 0.67168 0.17678 0.46492 0.0
C557 C 0.688 0.15792 0.47672 0.0
C558 C 0.64603 0.19473 0.42364 0.0
C559 C 0.62279 0.1997 0.43763 0.0
C560 C 0.65227 0.20868 0.3979 0.0
C561 C 0.67709 0.20523 0.38296 0.0
C562 C 0.70004 0.20893 0.39821 0.0
C563 C 0.72336 0.20556 0.38403 0.0
C564 C 0.72399 0.1987 0.35454 0.0
C565 C 0.70129 0.19525 0.33915 0.0
C566 C 0.67791 0.19855 0.35324 0.0
C567 C 0.57047 0.29289 0.39668 0.0
C568 C 0.55995 0.29065 0.36857 0.0
C569 C 0.58785 0.27429 0.40683 0.0
C570 C 0.595 0.25303 0.38917 0.0
C571 C 0.58538 0.25126 0.36072 0.0
C572 C 0.56795 0.26985 0.35051 0.0
C573 C 0.61182 0.23219 0.40083 0.0
C574 C 0.63496 0.22709 0.38668 0.0
C575 C 0.60549 0.21808 0.42643 0.0
C576 C 0.58066 0.22154 0.44137 0.0
C577 C 0.55771 0.21815 0.42604 0.0
C578 C 0.53439 0.22176 0.44014 0.0
C579 C 0.53376 0.22855 0.46965 0.0
C580 C 0.55645 0.23168 0.48514 0.0
C581 C 0.57983 0.22814 0.47112 0.0
H582 H 0.51568 0.23134 0.48053 0.0
H583 H 0.74206 0.19612 0.34359 0.0
H584 H 0.28898 0.47289 0.01845 0.0
H585 H 0.31451 0.50364 0.9898 0.0
H586 H 0.31476 0.4491 0.91775 0.0
H587 H 0.28964 0.41799 0.9466 0.0
H588 H 0.36199 0.46413 0.93219 0.0
H589 H 0.28368 0.50727 0.91199 0.0
H590 H 0.24219 0.52759 0.92292 0.0
H591 H 0.27914 0.58639 0.97504 0.0
H592 H 0.32085 0.5662 0.96478 0.0
H593 H 0.43443 0.55093 0.84431 0.0
H594 H 0.39913 0.52391 0.86155 0.0
H595 H 0.394 0.57098 0.93954 0.0
H596 H 0.42917 0.59837 0.92241 0.0
H597 H 0.34687 0.55939 0.91683 0.0
H598 H 0.42406 0.51318 0.94147 0.0
H599 H 0.46563 0.49264 0.93136 0.0
H600 H 0.43022 0.43923 0.87128 0.0
H601 H 0.38846 0.45973 0.88075 0.0
C602 C 0.29415 0.46765 0.99633 0.0
C603 C 0.28745 0.44301 0.98479 0.0
C604 C 0.30856 0.48531 0.9799 0.0
C605 C 0.31645 0.4787 0.9516 0.0
C606 C 0.3088 0.4546 0.93953 0.0
C607 C 0.29431 0.43694 0.95595 0.0
C608 C 0.33486 0.4957 0.93599 0.0
C609 C 0.35844 0.48483 0.92822 0.0
C610 C 0.33046 0.52284 0.93153 0.0
C611 C 0.3054 0.53508 0.93779 0.0
C612 C 0.28296 0.5244 0.92598 0.0
C613 C 0.25939 0.53593 0.93202 0.0
C614 C 0.25803 0.55823 0.94971 0.0
C615 C 0.28023 0.5691 0.96136 0.0
C616 C 0.30385 0.55764 0.9554 0.0
C617 C 0.42579 0.55566 0.86511 0.0
C618 C 0.43484 0.57672 0.8821 0.0
C619 C 0.40561 0.54015 0.87491 0.0
C620 C 0.39413 0.54531 0.90193 0.0
C621 C 0.40262 0.56669 0.9186 0.0
C622 C 0.42283 0.58222 0.90884 0.0
C623 C 0.37395 0.5278 0.91336 0.0
C624 C 0.35016 0.53859 0.92042 0.0
C625 C 0.37812 0.50055 0.91724 0.0
C626 C 0.4032 0.48819 0.91156 0.0
C627 C 0.42518 0.49721 0.92591 0.0
C628 C 0.44876 0.48555 0.92033 0.0
C629 C 0.45058 0.4647 0.90062 0.0
C630 C 0.42879 0.45542 0.8865 0.0
C631 C 0.40516 0.46704 0.89198 0.0
H632 H 0.46885 0.45568 0.89633 0.0
H633 H 0.23976 0.56713 0.95436 0.0
H634 H 0.73151 0.54362 0.46635 0.0
H635 H 0.70853 0.51211 0.43536 0.0
H636 H 0.63715 0.54594 0.46273 0.0
H637 H 0.65986 0.5775 0.49313 0.0
H638 H 0.67407 0.47446 0.45088 0.0
H639 H 0.59583 0.54578 0.4073 0.0
H640 H 0.59222 0.5921 0.39198 0.0
H641 H 0.67217 0.59414 0.37285 0.0
H642 H 0.67621 0.54774 0.38763 0.0
H643 H 0.55954 0.40913 0.41864 0.0
H644 H 0.59401 0.43734 0.43573 0.0
H645 H 0.60863 0.46226 0.34734 0.0
H646 H 0.57368 0.43468 0.33016 0.0
H647 H 0.60778 0.50292 0.38062 0.0
H648 H 0.65032 0.42095 0.3845 0.0
H649 H 0.65636 0.37411 0.39646 0.0
H650 H 0.65298 0.39212 0.48785 0.0
H651 H 0.64656 0.43902 0.47646 0.0
C652 C 0.71093 0.54445 0.46541 0.0
C653 C 0.69744 0.56289 0.48221 0.0
C654 C 0.69786 0.5264 0.44789 0.0
C655 C 0.67117 0.52683 0.44661 0.0
C656 C 0.65776 0.54545 0.46312 0.0
C657 C 0.67074 0.56332 0.48067 0.0
C658 C 0.65691 0.50741 0.42893 0.0
C659 C 0.65972 0.48059 0.4353 0.0
C660 C 0.6387 0.51542 0.40805 0.0
C661 C 0.63634 0.5433 0.39878 0.0
C662 C 0.61262 0.55606 0.39967 0.0
C663 C 0.6105 0.58235 0.39111 0.0
C664 C 0.63196 0.59607 0.38151 0.0
C665 C 0.65558 0.58352 0.38038 0.0
C666 C 0.6578 0.55723 0.38889 0.0
C667 C 0.57021 0.42044 0.40279 0.0
C668 C 0.56376 0.41974 0.37306 0.0
C669 C 0.59005 0.43645 0.41258 0.0
C670 C 0.60415 0.45171 0.39278 0.0
C671 C 0.59802 0.45069 0.36302 0.0
C672 C 0.57801 0.43491 0.35325 0.0
C673 C 0.62414 0.46996 0.40344 0.0
C674 C 0.62239 0.49662 0.39578 0.0
C675 C 0.64371 0.46169 0.42259 0.0
C676 C 0.64782 0.43351 0.4296 0.0
C677 C 0.65072 0.41491 0.40715 0.0
C678 C 0.65423 0.38834 0.41383 0.0
C679 C 0.65502 0.38014 0.4429 0.0
C680 C 0.65237 0.3985 0.46535 0.0
C681 C 0.64883 0.42509 0.45879 0.0
H682 H 0.65772 0.35956 0.44803 0.0
H683 H 0.63028 0.61642 0.37491 0.0
H684 H 0.70863 0.47962 0.02583 0.0
H685 H 0.68049 0.51067 0.00102 0.0
H686 H 0.67884 0.46031 0.92542 0.0
H687 H 0.70688 0.42902 0.95019 0.0
H688 H 0.67868 0.51479 0.91156 0.0
H689 H 0.63401 0.45301 0.97262 0.0
H690 H 0.62614 0.42942 0.0187 0.0
H691 H 0.61063 0.50257 0.06186 0.0
H692 H 0.61889 0.52666 0.01609 0.0
H693 H 0.55964 0.55282 0.85131 0.0
H694 H 0.59526 0.52823 0.87186 0.0
H695 H 0.59168 0.57523 0.95001 0.0
H696 H 0.55588 0.59978 0.92987 0.0
H697 H 0.5957 0.52362 0.96244 0.0
H698 H 0.63841 0.58549 0.90067 0.0
H699 H 0.64696 0.60906 0.85471 0.0
H700 H 0.66604 0.5362 0.81283 0.0
H701 H 0.65726 0.51213 0.85847 0.0
C702 C 0.7026 0.47538 0.00374 0.0
C703 C 0.70965 0.45175 0.99008 0.0
C704 C 0.68662 0.49315 0.98959 0.0
C705 C 0.67732 0.48753 0.9616 0.0
C706 C 0.68585 0.46496 0.94702 0.0
C707 C 0.70188 0.44713 0.96119 0.0
C708 C 0.65655 0.50357 0.94907 0.0
C709 C 0.66045 0.51658 0.92248 0.0
C710 C 0.63294 0.50612 0.96364 0.0
C711 C 0.62731 0.49165 0.991 0.0
C712 C 0.62908 0.46408 0.99198 0.0
C713 C 0.62455 0.45061 0.01805 0.0
C714 C 0.61795 0.46448 0.04323 0.0
C715 C 0.61578 0.49185 0.04235 0.0
C716 C 0.62038 0.50543 0.01635 0.0
C717 C 0.56638 0.55797 0.87288 0.0
C718 C 0.55482 0.57831 0.88892 0.0
C719 C 0.58686 0.54397 0.88451 0.0
C720 C 0.59628 0.55011 0.91232 0.0
C721 C 0.58472 0.57023 0.92848 0.0
C722 C 0.56425 0.58425 0.91688 0.0
C723 C 0.61777 0.53506 0.92491 0.0
C724 C 0.61396 0.52205 0.95152 0.0
C725 C 0.6414 0.53255 0.91032 0.0
C726 C 0.64695 0.54698 0.88292 0.0
C727 C 0.64425 0.57447 0.8816 0.0
C728 C 0.64917 0.58792 0.85562 0.0
C729 C 0.65697 0.57413 0.83084 0.0
C730 C 0.65996 0.54685 0.83203 0.0
C731 C 0.65505 0.5333 0.85796 0.0
H732 H 0.66075 0.58457 0.81074 0.0
H733 H 0.61448 0.45401 0.06339 0.0
H734 H 0.27581 0.54545 0.46403 0.0
H735 H 0.30245 0.51453 0.43653 0.0
H736 H 0.36957 0.54715 0.47689 0.0
H737 H 0.34335 0.57856 0.5033 0.0
H738 H 0.37811 0.53932 0.42154 0.0
H739 H 0.34216 0.4893 0.5009 0.0
H740 H 0.30734 0.47086 0.53064 0.0
H741 H 0.2786 0.42966 0.45586 0.0
H742 H 0.31308 0.44814 0.42559 0.0
H743 H 0.44673 0.40531 0.42156 0.0
H744 H 0.41421 0.43454 0.44145 0.0
H745 H 0.40385 0.4695 0.35656 0.0
H746 H 0.4367 0.4408 0.3366 0.0
H747 H 0.36498 0.44313 0.43146 0.0
H748 H 0.39324 0.53484 0.36463 0.0
H749 H 0.43092 0.55342 0.33995 0.0
H750 H 0.48001 0.5114 0.3985 0.0
H751 H 0.44264 0.49287 0.42374 0.0
C752 C 0.29627 0.54616 0.46673 0.0
C753 C 0.30747 0.56421 0.48609 0.0
C754 C 0.31143 0.52838 0.45121 0.0
C755 C 0.33798 0.52833 0.45494 0.0
C756 C 0.34915 0.54677 0.47371 0.0
C757 C 0.33409 0.56453 0.48904 0.0
C758 C 0.3544 0.50894 0.43984 0.0
C759 C 0.37509 0.51829 0.42351 0.0
C760 C 0.35069 0.4815 0.44275 0.0
C761 C 0.33001 0.47034 0.46092 0.0
C762 C 0.32829 0.47647 0.49076 0.0
C763 C 0.30864 0.46599 0.50771 0.0
C764 C 0.29072 0.44916 0.49513 0.0
C765 C 0.29246 0.44273 0.46557 0.0
C766 C 0.31205 0.4532 0.4485 0.0
C767 C 0.43747 0.41912 0.40706 0.0
C768 C 0.4446 0.42094 0.37756 0.0
C769 C 0.41879 0.43573 0.41845 0.0
C770 C 0.40684 0.45441 0.40057 0.0
C771 C 0.41314 0.45554 0.37087 0.0
C772 C 0.43195 0.4391 0.35951 0.0
C773 C 0.38876 0.47356 0.41336 0.0
C774 C 0.36775 0.46417 0.42915 0.0
C775 C 0.39253 0.501 0.41064 0.0
C776 C 0.41514 0.51224 0.39582 0.0
C777 C 0.41208 0.52964 0.37227 0.0
C778 C 0.43338 0.54015 0.35818 0.0
C779 C 0.45784 0.53352 0.36758 0.0
C780 C 0.46106 0.51644 0.39116 0.0
C781 C 0.43983 0.5059 0.40534 0.0
H782 H 0.4743 0.54166 0.35663 0.0
H783 H 0.27553 0.44106 0.50829 0.0
H784 H 0.77516 0.95329 0.97137 0.0
H785 H 0.80223 0.98362 0.94366 0.0
H786 H 0.86867 0.9396 0.96979 0.0
H787 H 0.84178 0.90991 0.99812 0.0
H788 H 0.87772 0.98842 0.97697 0.0
H789 H 0.84318 0.93731 0.89892 0.0
H790 H 0.80945 0.91698 0.86912 0.0
H791 H 0.77959 0.99331 0.84852 0.0
H792 H 0.81295 0.0141 0.87855 0.0
H793 H 0.94336 0.04504 0.83966 0.0
H794 H 0.913 0.01423 0.86116 0.0
H795 H 0.89716 0.06965 0.92998 0.0
H796 H 0.92786 0.10032 0.90908 0.0
H797 H 0.86357 0.01393 0.87381 0.0
H798 H 0.89046 0.03694 0.99383 0.0
H799 H 0.92731 0.05326 0.02185 0.0
H800 H 0.97797 0.02539 0.95525 0.0
H801 H 0.94153 0.00845 0.92714 0.0
C802 C 0.79552 0.95003 0.97087 0.0
C803 C 0.80644 0.9294 0.9869 0.0
C804 C 0.81096 0.96728 0.95501 0.0
C805 C 0.8375 0.96381 0.95447 0.0
C806 C 0.84828 0.94279 0.96999 0.0
C807 C 0.83293 0.92583 0.98613 0.0
C808 C 0.85428 0.98267 0.93892 0.0
C809 C 0.87457 0.99395 0.95441 0.0
C810 C 0.85046 0.98968 0.90935 0.0
C811 C 0.83042 0.97724 0.89122 0.0
C812 C 0.8293 0.94975 0.88822 0.0
C813 C 0.81027 0.93815 0.87125 0.0
C814 C 0.79235 0.95384 0.857 0.0
C815 C 0.79347 0.98118 0.85961 0.0
C816 C 0.81244 0.99288 0.87658 0.0
C817 C 0.93328 0.05079 0.85924 0.0
C818 C 0.93833 0.07501 0.87288 0.0
C819 C 0.91586 0.03317 0.87144 0.0
C820 C 0.90313 0.03947 0.89741 0.0
C821 C 0.90715 0.06418 0.91023 0.0
C822 C 0.92471 0.08169 0.89822 0.0
C823 C 0.88676 0.0197 0.91199 0.0
C824 C 0.86659 0.00835 0.89638 0.0
C825 C 0.8911 0.01199 0.94123 0.0
C826 C 0.91322 0.02171 0.95824 0.0
C827 C 0.90948 0.03419 0.98524 0.0
C828 C 0.93031 0.04353 0.00115 0.0
C829 C 0.95497 0.04042 0.9903 0.0
C830 C 0.95887 0.02783 0.9636 0.0
C831 C 0.93814 0.01837 0.94767 0.0
H832 H 0.97106 0.04772 0.00261 0.0
H833 H 0.77763 0.94481 0.84387 0.0
H834 H 0.20478 0.02752 0.51712 0.0
H835 H 0.18045 0.99582 0.48844 0.0
H836 H 0.18704 0.04584 0.41281 0.0
H837 H 0.21088 0.07797 0.44166 0.0
H838 H 0.13871 0.03386 0.42375 0.0
H839 H 0.21559 0.98551 0.41421 0.0
H840 H 0.25515 0.96388 0.43024 0.0
H841 H 0.21199 0.91078 0.48368 0.0
H842 H 0.17216 0.93233 0.46831 0.0
H843 H 0.06549 0.94457 0.33978 0.0
H844 H 0.10152 0.97087 0.3564 0.0
H845 H 0.10103 0.92975 0.43866 0.0
H846 H 0.06518 0.90305 0.42216 0.0
H847 H 0.14942 0.93711 0.41826 0.0
H848 H 0.07374 0.98942 0.43277 0.0
H849 H 0.03406 0.01135 0.41755 0.0
H850 H 0.07565 0.05737 0.35513 0.0
H851 H 0.11555 0.03543 0.36973 0.0
C852 C 0.20142 0.03152 0.49424 0.0
C853 C 0.20955 0.05529 0.48168 0.0
C854 C 0.1877 0.0133 0.4778 0.0
C855 C 0.18198 0.01843 0.44844 0.0
C856 C 0.19129 0.04149 0.43542 0.0
C857 C 0.20507 0.05972 0.45186 0.0
C858 C 0.1638 0.00131 0.4326 0.0
C859 C 0.14137 0.01277 0.42192 0.0
C860 C 0.16695 0.97373 0.4309 0.0
C861 C 0.19087 0.96069 0.44025 0.0
C862 C 0.21453 0.96936 0.42957 0.0
C863 C 0.237 0.95708 0.4385 0.0
C864 C 0.23608 0.936 0.45801 0.0
C865 C 0.21267 0.92712 0.46858 0.0
C866 C 0.19013 0.93934 0.45973 0.0
C867 C 0.07302 0.94103 0.36141 0.0
C868 C 0.06221 0.92183 0.37975 0.0
C869 C 0.09365 0.9561 0.37085 0.0
C870 C 0.10377 0.95243 0.39886 0.0
C871 C 0.0935 0.93287 0.41694 0.0
C872 C 0.07289 0.91774 0.40752 0.0
C873 C 0.12435 0.9697 0.40984 0.0
C874 C 0.14709 0.95826 0.41967 0.0
C875 C 0.12152 0.99734 0.41085 0.0
C876 C 0.09756 0.01057 0.40209 0.0
C877 C 0.07438 0.00406 0.41563 0.0
C878 C 0.05187 0.01652 0.40715 0.0
C879 C 0.05232 0.03568 0.38532 0.0
C880 C 0.07532 0.04248 0.37199 0.0
C881 C 0.09789 0.03005 0.38036 0.0
H882 H 0.03487 0.04532 0.37879 0.0
H883 H 0.25351 0.92652 0.46489 0.0
H884 H 0.19668 0.92065 0.94306 0.0
H885 H 0.17176 0.95338 0.91631 0.0
H886 H 0.17214 0.00393 0.99184 0.0
H887 H 0.19708 0.97135 0.01862 0.0
H888 H 0.12464 0.99429 0.97249 0.0
H889 H 0.20448 0.02052 0.93032 0.0
H890 H 0.24504 0.01389 0.90431 0.0
H891 H 0.20454 0.98639 0.82895 0.0
H892 H 0.16373 0.99249 0.85465 0.0
H893 H 0.05981 0.10214 0.91399 0.0
H894 H 0.09383 0.0752 0.93422 0.0
H895 H 0.09274 0.02625 0.85746 0.0
H896 H 0.05886 0.05336 0.8367 0.0
H897 H 0.1413 0.03528 0.87616 0.0
H898 H 0.06287 0.00543 0.91739 0.0
H899 H 0.02147 0.00975 0.94212 0.0
H900 H 0.05852 0.0413 0.01788 0.0
H901 H 0.1002 0.03735 0.99344 0.0
C902 C 0.19202 0.93904 0.95368 0.0
C903 C 0.19861 0.94338 0.983 0.0
C904 C 0.17777 0.95771 0.93839 0.0
C905 C 0.17008 0.98106 0.95212 0.0
C906 C 0.17778 0.98597 0.9809 0.0
C907 C 0.19195 0.96735 0.99618 0.0
C908 C 0.15186 0.99907 0.93773 0.0
C909 C 0.12852 0.00363 0.95168 0.0
C910 C 0.15652 0.01038 0.91003 0.0
C911 C 0.18105 0.00672 0.89453 0.0
C912 C 0.20422 0.01283 0.9083 0.0
C913 C 0.22726 0.00921 0.89359 0.0
C914 C 0.22737 0.99966 0.86503 0.0
C915 C 0.20443 0.99376 0.85109 0.0
C916 C 0.18134 0.99732 0.86571 0.0
C917 C 0.06682 0.08574 0.90127 0.0
C918 C 0.05633 0.07974 0.87384 0.0
C919 C 0.08629 0.07036 0.9129 0.0
C920 C 0.09553 0.04852 0.89751 0.0
C921 C 0.08582 0.043 0.86969 0.0
C922 C 0.06636 0.05845 0.85795 0.0
C923 C 0.11436 0.03074 0.91122 0.0
C924 C 0.13763 0.02607 0.89708 0.0
C925 C 0.1096 0.01898 0.93863 0.0
C926 C 0.08461 0.02134 0.95347 0.0
C927 C 0.06217 0.01347 0.93924 0.0
C928 C 0.03865 0.01583 0.95323 0.0
C929 C 0.03733 0.0259 0.98153 0.0
C930 C 0.05956 0.03355 0.99594 0.0
C931 C 0.08315 0.03121 0.98205 0.0
H932 H 0.0191 0.02771 0.99233 0.0
H933 H 0.24523 0.99687 0.85367 0.0
H934 H 0.83157 0.07131 0.50742 0.0
H935 H 0.85855 0.04195 0.47922 0.0
H936 H 0.79213 0.00728 0.43948 0.0
H937 H 0.76474 0.03603 0.46882 0.0
H938 H 0.82544 0.9701 0.45405 0.0
H939 H 0.82886 0.04993 0.40098 0.0
H940 H 0.83362 0.09766 0.39347 0.0
H941 H 0.91072 0.09386 0.42414 0.0
H942 H 0.90631 0.04615 0.43225 0.0
H943 H 0.93496 0.94311 0.34069 0.0
H944 H 0.89959 0.96976 0.35839 0.0
H945 H 0.90762 0.93531 0.44387 0.0
H946 H 0.94267 0.90818 0.42627 0.0
H947 H 0.898 0.00656 0.39775 0.0
H948 H 0.85091 0.93161 0.47761 0.0
H949 H 0.84381 0.88376 0.48078 0.0
H950 H 0.84919 0.87745 0.38761 0.0
H951 H 0.85594 0.92528 0.38383 0.0
C952 C 0.8226 0.05723 0.49298 0.0
C953 C 0.79596 0.05589 0.49052 0.0
C954 C 0.8381 0.04067 0.47657 0.0
C955 C 0.82738 0.02267 0.45693 0.0
C956 C 0.80079 0.02112 0.45443 0.0
C957 C 0.78519 0.03767 0.47102 0.0
C958 C 0.84419 0.00539 0.43942 0.0
C959 C 0.84122 0.97804 0.44158 0.0
C960 C 0.86434 0.01577 0.42245 0.0
C961 C 0.86719 0.04446 0.41738 0.0
C962 C 0.84678 0.05929 0.4063 0.0
C963 C 0.84942 0.08635 0.40191 0.0
C964 C 0.87244 0.09879 0.40836 0.0
C965 C 0.8929 0.08419 0.41915 0.0
C966 C 0.89035 0.05713 0.4236 0.0
C967 C 0.9292 0.9411 0.36326 0.0
C968 C 0.94172 0.92347 0.38206 0.0
C969 C 0.90894 0.95638 0.37332 0.0
C970 C 0.90075 0.95433 0.40235 0.0
C971 C 0.91327 0.93685 0.42122 0.0
C972 C 0.93344 0.92146 0.41115 0.0
C973 C 0.87986 0.97126 0.41332 0.0
C974 C 0.88207 0.99857 0.40991 0.0
C975 C 0.85864 0.9608 0.42843 0.0
C976 C 0.85414 0.93204 0.43049 0.0
C977 C 0.85044 0.92004 0.45779 0.0
C978 C 0.8465 0.89291 0.45969 0.0
C979 C 0.84612 0.87756 0.43442 0.0
C980 C 0.84958 0.88934 0.40718 0.0
C981 C 0.85349 0.91646 0.40515 0.0
H982 H 0.84312 0.85656 0.43595 0.0
H983 H 0.87445 0.11974 0.40496 0.0
H984 H 0.29388 0.34943 0.06904 0.0
H985 H 0.32118 0.34134 0.11137 0.0
H986 H 0.31794 0.42369 0.13354 0.0
H987 H 0.29067 0.43185 0.09133 0.0
H988 H 0.36598 0.40664 0.12877 0.0
H989 H 0.28972 0.37754 0.17647 0.0
H990 H 0.25056 0.35135 0.18222 0.0
H991 H 0.29444 0.28019 0.18069 0.0
H992 H 0.33386 0.30595 0.17451 0.0
H993 H 0.43431 0.40527 0.25958 0.0
H994 H 0.39942 0.4088 0.22489 0.0
H995 H 0.40597 0.32618 0.20522 0.0
H996 H 0.44082 0.32227 0.24041 0.0
H997 H 0.35611 0.34179 0.20881 0.0
H998 H 0.43188 0.37035 0.15996 0.0
H999 H 0.47128 0.39609 0.15369 0.0
H1000 H 0.42823 0.46777 0.15629 0.0
H1001 H 0.3886 0.44246 0.16299 0.0
C1002 C 0.29844 0.36565 0.08341 0.0
C1003 C 0.29035 0.39131 0.07679 0.0
C1004 C 0.31405 0.36102 0.10756 0.0
C1005 C 0.32163 0.38194 0.12555 0.0
C1006 C 0.31243 0.4073 0.11983 0.0
C1007 C 0.29691 0.41194 0.09572 0.0
C1008 C 0.34112 0.378 0.14847 0.0
C1009 C 0.36361 0.39276 0.14655 0.0
C1010 C 0.3384 0.35921 0.17102 0.0
C1011 C 0.31472 0.34368 0.17473 0.0
C1012 C 0.291 0.3563 0.17709 0.0
C1013 C 0.26876 0.34153 0.18048 0.0
C1014 C 0.27 0.31412 0.18174 0.0
C1015 C 0.2935 0.30142 0.17967 0.0
C1016 C 0.31581 0.3161 0.17625 0.0
C1017 C 0.42838 0.38777 0.24798 0.0
C1018 C 0.44063 0.36353 0.25255 0.0
C1019 C 0.40839 0.38985 0.22814 0.0
C1020 C 0.40039 0.36784 0.21216 0.0
C1021 C 0.41193 0.34342 0.21729 0.0
C1022 C 0.43191 0.34126 0.23731 0.0
C1023 C 0.38069 0.37076 0.18929 0.0
C1024 C 0.35834 0.35572 0.19108 0.0
C1025 C 0.38351 0.38923 0.16644 0.0
C1026 C 0.4073 0.40451 0.16225 0.0
C1027 C 0.43084 0.39161 0.15942 0.0
C1028 C 0.45321 0.40612 0.15575 0.0
C1029 C 0.45226 0.43355 0.15466 0.0
C1030 C 0.42894 0.44652 0.15717 0.0
C1031 C 0.40651 0.4321 0.16088 0.0
H1032 H 0.4696 0.44475 0.15182 0.0
H1033 H 0.25276 0.30273 0.18437 0.0
H1034 H 0.7003 0.65049 0.57409 0.0
H1035 H 0.67522 0.65722 0.6185 0.0
H1036 H 0.67489 0.57354 0.63394 0.0
H1037 H 0.6998 0.56675 0.58956 0.0
H1038 H 0.62789 0.593 0.63353 0.0
H1039 H 0.70718 0.61587 0.67885 0.0
H1040 H 0.74764 0.63991 0.68423 0.0
H1041 H 0.70694 0.71289 0.69005 0.0
H1042 H 0.66622 0.68931 0.6843 0.0
H1043 H 0.56392 0.59078 0.76732 0.0
H1044 H 0.59812 0.58738 0.73165 0.0
H1045 H 0.59388 0.67082 0.71581 0.0
H1046 H 0.5597 0.67458 0.75183 0.0
H1047 H 0.64368 0.65269 0.71713 0.0
H1048 H 0.5651 0.63068 0.66989 0.0
H1049 H 0.52429 0.60735 0.66399 0.0
H1050 H 0.56373 0.53351 0.66066 0.0
H1051 H 0.60477 0.55639 0.66697 0.0
C1052 C 0.69544 0.63363 0.58741 0.0
C1053 C 0.70177 0.60808 0.5783 0.0
C1054 C 0.68111 0.63749 0.61276 0.0
C1055 C 0.67314 0.61586 0.6295 0.0
C1056 C 0.68071 0.59048 0.62126 0.0
C1057 C 0.6949 0.58662 0.59592 0.0
C1058 C 0.65478 0.61929 0.65375 0.0
C1059 C 0.63158 0.6057 0.65205 0.0
C1060 C 0.65919 0.63661 0.67737 0.0
C1061 C 0.68365 0.65083 0.68085 0.0
C1062 C 0.70686 0.63707 0.68102 0.0
C1063 C 0.72984 0.65061 0.68419 0.0
C1064 C 0.72986 0.67792 0.68741 0.0
C1065 C 0.70689 0.69174 0.68753 0.0
C1066 C 0.68385 0.67829 0.68434 0.0
C1067 C 0.57027 0.60849 0.75641 0.0
C1068 C 0.55877 0.63292 0.7622 0.0
C1069 C 0.58987 0.60649 0.73603 0.0
C1070 C 0.59827 0.62879 0.72082 0.0
C1071 C 0.58761 0.65338 0.7273 0.0
C1072 C 0.56799 0.65544 0.74779 0.0
C1073 C 0.61712 0.62604 0.697 0.0
C1074 C 0.64019 0.63988 0.69866 0.0
C1075 C 0.61262 0.60904 0.67316 0.0
C1076 C 0.58798 0.59523 0.66919 0.0
C1077 C 0.56505 0.60945 0.66813 0.0
C1078 C 0.54188 0.59631 0.66467 0.0
C1079 C 0.54141 0.56896 0.66203 0.0
C1080 C 0.56412 0.55469 0.66275 0.0
C1081 C 0.58734 0.56774 0.66624 0.0
H1082 H 0.52345 0.55882 0.65935 0.0
H1083 H 0.74768 0.68837 0.68987 0.0
H1084 H 0.71182 0.35344 0.06866 0.0
H1085 H 0.68611 0.34098 0.11089 0.0
H1086 H 0.68161 0.42231 0.13699 0.0
H1087 H 0.70807 0.43481 0.09539 0.0
H1088 H 0.68455 0.39017 0.1841 0.0
H1089 H 0.63563 0.39586 0.09518 0.0
H1090 H 0.62534 0.38494 0.04413 0.0
H1091 H 0.61642 0.3037 0.06738 0.0
H1092 H 0.62701 0.31409 0.11855 0.0
H1093 H 0.5662 0.40322 0.25404 0.0
H1094 H 0.60223 0.40516 0.22074 0.0
H1095 H 0.59818 0.32125 0.20831 0.0
H1096 H 0.5618 0.31901 0.24164 0.0
H1097 H 0.60248 0.34861 0.15673 0.0
H1098 H 0.6452 0.34599 0.24865 0.0
H1099 H 0.65343 0.3594 0.29944 0.0
H1100 H 0.6723 0.43731 0.27061 0.0
H1101 H 0.66382 0.42448 0.21966 0.0
C1102 C 0.70601 0.36858 0.08386 0.0
C1103 C 0.71172 0.39516 0.07853 0.0
C1104 C 0.69115 0.36145 0.10785 0.0
C1105 C 0.68158 0.38078 0.12673 0.0
C1106 C 0.6887 0.40709 0.1226 0.0
C1107 C 0.70363 0.41423 0.09869 0.0
C1108 C 0.6622 0.37412 0.14901 0.0
C1109 C 0.66659 0.38112 0.17817 0.0
C1110 C 0.63893 0.36194 0.14127 0.0
C1111 C 0.63241 0.35569 0.11059 0.0
C1112 C 0.63166 0.37564 0.08935 0.0
C1113 C 0.62575 0.36955 0.06042 0.0
C1114 C 0.62031 0.34363 0.0525 0.0
C1115 C 0.62069 0.32375 0.07354 0.0
C1116 C 0.62664 0.32972 0.10251 0.0
C1117 C 0.57288 0.38511 0.24429 0.0
C1118 C 0.56103 0.36094 0.25053 0.0
C1119 C 0.59364 0.38626 0.22541 0.0
C1120 C 0.60308 0.3633 0.21242 0.0
C1121 C 0.59124 0.33915 0.21831 0.0
C1122 C 0.57047 0.33794 0.23734 0.0
C1123 C 0.62468 0.36492 0.1918 0.0
C1124 C 0.62065 0.3571 0.16286 0.0
C1125 C 0.64813 0.37661 0.19973 0.0
C1126 C 0.65371 0.38429 0.23032 0.0
C1127 C 0.65096 0.36602 0.25314 0.0
C1128 C 0.65569 0.37352 0.28197 0.0
C1129 C 0.66334 0.3992 0.28826 0.0
C1130 C 0.66637 0.41742 0.26571 0.0
C1131 C 0.66164 0.41003 0.23684 0.0
H1132 H 0.66695 0.40498 0.31059 0.0
H1133 H 0.61573 0.33896 0.03008 0.0
H1134 H 0.29681 0.57141 0.59306 0.0
H1135 H 0.32022 0.58118 0.63775 0.0
H1136 H 0.31694 0.66403 0.6179 0.0
H1137 H 0.29405 0.65427 0.57271 0.0
H1138 H 0.36462 0.64814 0.62627 0.0
H1139 H 0.28663 0.63921 0.67803 0.0
H1140 H 0.24613 0.61863 0.69269 0.0
H1141 H 0.28654 0.55134 0.72504 0.0
H1142 H 0.32729 0.57134 0.71019 0.0
H1143 H 0.43702 0.67759 0.75279 0.0
H1144 H 0.40162 0.67613 0.71836 0.0
H1145 H 0.39925 0.59163 0.72551 0.0
H1146 H 0.43448 0.59281 0.76018 0.0
H1147 H 0.3514 0.61349 0.72626 0.0
H1148 H 0.42789 0.61939 0.66846 0.0
H1149 H 0.46873 0.63887 0.65307 0.0
H1150 H 0.43074 0.71099 0.63136 0.0
H1151 H 0.38971 0.69203 0.64702 0.0
C1152 C 0.30064 0.59175 0.59855 0.0
C1153 C 0.29383 0.61206 0.57931 0.0
C1154 C 0.31383 0.59733 0.62421 0.0
C1155 C 0.3203 0.62335 0.63118 0.0
C1156 C 0.3121 0.64382 0.61292 0.0
C1157 C 0.29887 0.63824 0.58723 0.0
C1158 C 0.33837 0.62867 0.65527 0.0
C1159 C 0.36142 0.64115 0.64833 0.0
C1160 C 0.33451 0.61887 0.68381 0.0
C1161 C 0.31003 0.60673 0.6928 0.0
C1162 C 0.28688 0.61993 0.68805 0.0
C1163 C 0.26388 0.60838 0.69644 0.0
C1164 C 0.26376 0.58367 0.70974 0.0
C1165 C 0.28666 0.57048 0.71473 0.0
C1166 C 0.30972 0.58193 0.70637 0.0
C1167 C 0.42899 0.65866 0.74711 0.0
C1168 C 0.43878 0.63529 0.75912 0.0
C1169 C 0.40874 0.65789 0.72743 0.0
C1170 C 0.39795 0.63377 0.71929 0.0
C1171 C 0.4073 0.61046 0.73159 0.0
C1172 C 0.42757 0.61118 0.75125 0.0
C1173 C 0.37757 0.63267 0.69705 0.0
C1174 C 0.35426 0.62091 0.70432 0.0
C1175 C 0.38117 0.64301 0.66872 0.0
C1176 C 0.4058 0.65441 0.65924 0.0
C1177 C 0.42829 0.63948 0.66064 0.0
C1178 C 0.45146 0.65041 0.65182 0.0
C1179 C 0.45234 0.67618 0.64133 0.0
C1180 C 0.43004 0.69105 0.63955 0.0
C1181 C 0.40682 0.68022 0.64838 0.0
H1182 H 0.47029 0.68461 0.6345 0.0
H1183 H 0.24592 0.57477 0.71622 0.0
H1184 H 0.79714 0.92658 0.09313 0.0
H1185 H 0.82137 0.91825 0.13765 0.0
H1186 H 0.81457 0.83474 0.12363 0.0
H1187 H 0.79046 0.84296 0.07872 0.0
H1188 H 0.81427 0.85436 0.18662 0.0
H1189 H 0.86227 0.8571 0.09615 0.0
H1190 H 0.87254 0.87751 0.0488 0.0
H1191 H 0.89614 0.94808 0.09244 0.0
H1192 H 0.88543 0.92828 0.14003 0.0
H1193 H 0.93052 0.82072 0.26226 0.0
H1194 H 0.89479 0.82319 0.22802 0.0
H1195 H 0.90577 0.90692 0.22028 0.0
H1196 H 0.94133 0.90474 0.25415 0.0
H1197 H 0.90286 0.8838 0.16788 0.0
H1198 H 0.85651 0.88302 0.25746 0.0
H1199 H 0.84094 0.86748 0.30515 0.0
H1200 H 0.81207 0.79723 0.26522 0.0
H1201 H 0.82794 0.81209 0.21733 0.0
C1202 C 0.80027 0.90644 0.09993 0.0
C1203 C 0.79238 0.88541 0.08227 0.0
C1204 C 0.81394 0.90172 0.12541 0.0
C1205 C 0.81996 0.87591 0.13359 0.0
C1206 C 0.81 0.85478 0.1176 0.0
C1207 C 0.79628 0.85951 0.09199 0.0
C1208 C 0.84004 0.87145 0.15553 0.0
C1209 C 0.83377 0.8603 0.18252 0.0
C1210 C 0.86525 0.8798 0.1501 0.0
C1211 C 0.87286 0.89128 0.12163 0.0
C1212 C 0.86953 0.87701 0.09563 0.0
C1213 C 0.87541 0.88848 0.06875 0.0
C1214 C 0.88494 0.91409 0.0676 0.0
C1215 C 0.88873 0.92825 0.09336 0.0
C1216 C 0.88277 0.91691 0.1203 0.0
C1217 C 0.92529 0.83967 0.25332 0.0
C1218 C 0.93896 0.8625 0.26082 0.0
C1219 C 0.90476 0.84105 0.23393 0.0
C1220 C 0.89762 0.86525 0.2217 0.0
C1221 C 0.91101 0.88804 0.22944 0.0
C1222 C 0.93136 0.88672 0.24885 0.0
C1223 C 0.87723 0.86686 0.19948 0.0
C1224 C 0.88349 0.87747 0.17215 0.0
C1225 C 0.85203 0.85818 0.20481 0.0
C1226 C 0.84372 0.84853 0.23383 0.0
C1227 C 0.84724 0.86405 0.2589 0.0
C1228 C 0.83825 0.85542 0.28595 0.0
C1229 C 0.82548 0.83142 0.28818 0.0
C1230 C 0.82193 0.81585 0.26343 0.0
C1231 C 0.83096 0.82434 0.23634 0.0
H1232 H 0.81829 0.8249 0.30909 0.0
H1233 H 0.88942 0.92296 0.04676 0.0
H1234 H 0.16252 0.1069 0.54738 0.0
H1235 H 0.13724 0.11836 0.59005 0.0
H1236 H 0.20585 0.13377 0.63879 0.0
H1237 H 0.23147 0.12148 0.59611 0.0
H1238 H 0.17271 0.10532 0.67043 0.0
H1239 H 0.16988 0.18459 0.61677 0.0
H1240 H 0.16477 0.21303 0.57363 0.0
H1241 H 0.08672 0.18909 0.56575 0.0
H1242 H 0.09145 0.1602 0.6086 0.0
H1243 H 0.06317 0.18211 0.75185 0.0
H1244 H 0.09906 0.18145 0.71795 0.0
H1245 H 0.09137 0.0974 0.70917 0.0
H1246 H 0.05591 0.09774 0.74339 0.0
H1247 H 0.10102 0.16844 0.66297 0.0
H1248 H 0.14765 0.06885 0.69708 0.0
H1249 H 0.15487 0.04331 0.74204 0.0
H1250 H 0.14995 0.11389 0.79303 0.0
H1251 H 0.14309 0.13992 0.74837 0.0
C1252 C 0.17228 0.11255 0.56722 0.0
C1253 C 0.19899 0.11312 0.56847 0.0
C1254 C 0.15779 0.11939 0.5915 0.0
C1255 C 0.16966 0.12723 0.61748 0.0
C1256 C 0.19634 0.12789 0.61888 0.0
C1257 C 0.21091 0.12103 0.59449 0.0
C1258 C 0.1539 0.13386 0.64324 0.0
C1259 C 0.15716 0.11928 0.66895 0.0
C1260 C 0.13411 0.15264 0.64157 0.0
C1261 C 0.13107 0.17011 0.61584 0.0
C1262 C 0.15167 0.18525 0.60573 0.0
C1263 C 0.14884 0.20148 0.58134 0.0
C1264 C 0.12545 0.20284 0.56694 0.0
C1265 C 0.10483 0.18802 0.57694 0.0
C1266 C 0.10756 0.17174 0.60131 0.0
C1267 C 0.06917 0.16345 0.74281 0.0
C1268 C 0.0566 0.13997 0.75036 0.0
C1269 C 0.08971 0.16313 0.72345 0.0
C1270 C 0.09812 0.13935 0.71132 0.0
C1271 C 0.08558 0.11592 0.71875 0.0
C1272 C 0.06516 0.11618 0.73819 0.0
C1273 C 0.11909 0.13902 0.68968 0.0
C1274 C 0.11681 0.1548 0.66472 0.0
C1275 C 0.14013 0.12181 0.69237 0.0
C1276 C 0.14468 0.10632 0.71933 0.0
C1277 C 0.14827 0.07895 0.71785 0.0
C1278 C 0.15226 0.06438 0.7433 0.0
C1279 C 0.1528 0.07696 0.77038 0.0
C1280 C 0.14944 0.10416 0.77206 0.0
C1281 C 0.14547 0.11882 0.74668 0.0
H1282 H 0.15586 0.06563 0.79006 0.0
H1283 H 0.1233 0.21541 0.54805 0.0
H1284 H 0.23069 0.88359 0.09804 0.0
H1285 H 0.20802 0.87161 0.14313 0.0
H1286 H 0.13642 0.87757 0.09761 0.0
H1287 H 0.15877 0.88912 0.05286 0.0
H1288 H 0.1722 0.89972 0.17413 0.0
H1289 H 0.09702 0.8305 0.1201 0.0
H1290 H 0.09538 0.79764 0.08062 0.0
H1291 H 0.17568 0.7842 0.08932 0.0
H1292 H 0.17774 0.81666 0.12915 0.0
H1293 H 0.05567 0.90242 0.24693 0.0
H1294 H 0.09112 0.90287 0.2127 0.0
H1295 H 0.10508 0.82073 0.22992 0.0
H1296 H 0.06903 0.81991 0.26365 0.0
H1297 H 0.10741 0.82872 0.17461 0.0
H1298 H 0.14568 0.86952 0.25607 0.0
H1299 H 0.14935 0.90024 0.29743 0.0
H1300 H 0.14788 0.96573 0.23838 0.0
H1301 H 0.14381 0.93544 0.19667 0.0
C1302 C 0.21014 0.88212 0.09775 0.0
C1303 C 0.19645 0.88745 0.07207 0.0
C1304 C 0.19724 0.8754 0.12345 0.0
C1305 C 0.17058 0.87349 0.12359 0.0
C1306 C 0.15701 0.87862 0.09789 0.0
C1307 C 0.16979 0.88546 0.07241 0.0
C1308 C 0.1564 0.86698 0.15054 0.0
C1309 C 0.15822 0.88403 0.17447 0.0
C1310 C 0.13874 0.84601 0.15125 0.0
C1311 C 0.13754 0.82615 0.12754 0.0
C1312 C 0.1143 0.82042 0.11373 0.0
C1313 C 0.1133 0.80188 0.09126 0.0
C1314 C 0.13542 0.78888 0.08243 0.0
C1315 C 0.15857 0.79434 0.09612 0.0
C1316 C 0.15967 0.81283 0.11862 0.0
C1317 C 0.06631 0.88444 0.24355 0.0
C1318 C 0.05948 0.86111 0.258 0.0
C1319 C 0.08674 0.88478 0.22412 0.0
C1320 C 0.10111 0.86195 0.21914 0.0
C1321 C 0.09434 0.83861 0.23352 0.0
C1322 C 0.07369 0.83817 0.25273 0.0
C1323 C 0.12224 0.8623 0.19766 0.0
C1324 C 0.12172 0.84407 0.1747 0.0
C1325 C 0.14149 0.88181 0.19824 0.0
C1326 C 0.14433 0.90017 0.22322 0.0
C1327 C 0.14601 0.89047 0.25189 0.0
C1328 C 0.14817 0.90782 0.27541 0.0
C1329 C 0.14882 0.93492 0.27054 0.0
C1330 C 0.14738 0.94473 0.24212 0.0
C1331 C 0.1452 0.92747 0.21853 0.0
H1332 H 0.15045 0.94831 0.28878 0.0
H1333 H 0.13461 0.77456 0.06501 0.0
H1334 H 0.7825 0.14756 0.57269 0.0
H1335 H 0.80763 0.16001 0.61545 0.0
H1336 H 0.81175 0.07868 0.64158 0.0
H1337 H 0.78645 0.06614 0.59896 0.0
H1338 H 0.80902 0.1144 0.68941 0.0
H1339 H 0.85609 0.10016 0.59995 0.0
H1340 H 0.86526 0.10782 0.5479 0.0
H1341 H 0.87927 0.18947 0.56545 0.0
H1342 H 0.86969 0.18235 0.61758 0.0
H1343 H 0.92785 0.09666 0.7577 0.0
H1344 H 0.89091 0.09541 0.72559 0.0
H1345 H 0.90024 0.17793 0.70689 0.0
H1346 H 0.93738 0.17946 0.73905 0.0
H1347 H 0.8933 0.1479 0.65746 0.0
H1348 H 0.85247 0.16008 0.7491 0.0
H1349 H 0.84363 0.15145 0.80102 0.0
H1350 H 0.81848 0.07342 0.78 0.0
H1351 H 0.82754 0.08142 0.72796 0.0
C1352 C 0.78799 0.13246 0.58811 0.0
C1353 C 0.78279 0.10586 0.58243 0.0
C1354 C 0.80243 0.13958 0.61243 0.0
C1355 C 0.81179 0.1202 0.63138 0.0
C1356 C 0.8047 0.0939 0.62717 0.0
C1357 C 0.79042 0.08675 0.60276 0.0
C1358 C 0.83182 0.12665 0.65287 0.0
C1359 C 0.82746 0.12169 0.68253 0.0
C1360 C 0.85571 0.13657 0.64379 0.0
C1361 C 0.86188 0.1408 0.61257 0.0
C1362 C 0.86093 0.11979 0.59266 0.0
C1363 C 0.86622 0.12402 0.56316 0.0
C1364 C 0.87278 0.14914 0.55336 0.0
C1365 C 0.87413 0.17004 0.57307 0.0
C1366 C 0.86877 0.16592 0.60259 0.0
C1367 C 0.92213 0.11459 0.74678 0.0
C1368 C 0.93566 0.13816 0.75093 0.0
C1369 C 0.90086 0.11386 0.72861 0.0
C1370 C 0.89268 0.13665 0.71418 0.0
C1371 C 0.9062 0.16017 0.718 0.0
C1372 C 0.92741 0.16099 0.73638 0.0
C1373 C 0.87066 0.13542 0.69411 0.0
C1374 C 0.87471 0.14117 0.66458 0.0
C1375 C 0.84656 0.12617 0.70337 0.0
C1376 C 0.84087 0.12129 0.73462 0.0
C1377 C 0.84523 0.141 0.75556 0.0
C1378 C 0.84015 0.13624 0.78501 0.0
C1379 C 0.83054 0.11189 0.79381 0.0
C1380 C 0.82593 0.09227 0.77315 0.0
C1381 C 0.83101 0.09692 0.74366 0.0
H1382 H 0.82663 0.10823 0.81663 0.0
H1383 H 0.87687 0.15238 0.53051 0.0
loop_
_geom_bond_atom_site_label_1
_geom_bond_atom_site_label_2
_geom_bond_distance
_geom_bond_site_symmetry_2
_ccdc_geom_bond_type
H0 C5 0.930 . S
H1 C8 0.930 . S
H2 C10 0.930 . S
H3 C4 1.016 . S
C4 H3 1.016 . S
C4 N11 1.287 . S
C5 H0 0.930 . S
C5 C6 1.397 . S
C5 C7 1.361 . S
C6 C5 1.397 . S
C6 C10 1.390 . S
C7 C5 1.361 . S
C7 C8 1.393 1_554 S
C7 N11 1.412 1_554 S
C8 H1 0.930 . S
C8 C7 1.393 1_556 S
C8 C9 1.399 . S
C9 C8 1.399 . S
C9 C10 1.381 1_556 S
C10 H2 0.930 . S
C10 C6 1.390 . S
C10 C9 1.381 1_554 S
N11 C4 1.287 . S
N11 C7 1.412 1_556 S
H12 C17 0.930 . S
H13 C20 0.930 . S
H14 C22 0.930 . S
H15 C16 1.016 . S
C16 H15 1.016 . S
C16 N23 1.286 . S
C17 H12 0.930 . S
C17 C18 1.397 . S
C17 C19 1.361 . S
C18 C17 1.397 . S
C18 C22 1.390 . S
C19 C17 1.361 . S
C19 C20 1.393 . S
C19 N23 1.413 . S
C20 H13 0.930 . S
C20 C19 1.393 . S
C20 C21 1.399 . S
C21 C20 1.399 . S
C21 C22 1.381 . S
C22 H14 0.930 . S
C22 C18 1.390 . S
C22 C21 1.381 . S
N23 C16 1.286 . S
N23 C19 1.413 . S
H24 C29 0.930 . S
H25 C32 0.930 . S
H26 C34 0.930 . S
H27 C28 1.016 . S
C28 H27 1.016 . S
C28 N35 1.286 1_556 S
C29 H24 0.930 . S
C29 C30 1.397 . S
C29 C31 1.361 . S
C30 C29 1.397 . S
C30 C34 1.390 . S
C31 C29 1.361 . S
C31 C32 1.393 1_554 S
C31 N35 1.413 . S
C32 H25 0.930 . S
C32 C31 1.393 1_556 S
C32 C33 1.399 . S
C33 C32 1.399 . S
C33 C34 1.381 1_556 S
C34 H26 0.930 . S
C34 C30 1.390 . S
C34 C33 1.381 1_554 S
N35 C28 1.286 1_554 S
N35 C31 1.413 . S
H36 C41 0.930 . S
H37 C44 0.930 . S
H38 C46 0.930 . S
H39 C40 1.016 . S
C40 H39 1.016 . S
C40 N47 1.286 . S
C41 H36 0.930 . S
C41 C42 1.397 . S
C41 C43 1.361 . S
C42 C41 1.397 . S
C42 C46 1.390 . S
C43 C41 1.361 . S
C43 C44 1.393 . S
C43 N47 1.413 . S
C44 H37 0.930 . S
C44 C43 1.393 . S
C44 C45 1.399 . S
C45 C44 1.399 . S
C45 C46 1.381 . S
C46 H38 0.930 . S
C46 C42 1.390 . S
C46 C45 1.381 . S
N47 C40 1.286 . S
N47 C43 1.413 . S
H48 C53 0.930 . S
H49 C56 0.930 . S
H50 C58 0.930 . S
H51 C52 1.016 . S
C52 H51 1.016 . S
C52 N59 1.287 . S
C53 H48 0.930 . S
C53 C54 1.397 . S
C53 C55 1.361 . S
C54 C53 1.397 . S
C54 C58 1.390 . S
C55 C53 1.361 . S
C55 C56 1.393 1_554 S
C55 N59 1.413 1_554 S
C56 H49 0.930 . S
C56 C55 1.393 1_556 S
C56 C57 1.399 . S
C57 C56 1.399 . S
C57 C58 1.381 1_556 S
C58 H50 0.930 . S
C58 C54 1.390 . S
C58 C57 1.381 1_554 S
N59 C52 1.287 . S
N59 C55 1.413 1_556 S
H60 C65 0.930 . S
H61 C68 0.930 . S
H62 C70 0.930 . S
H63 C64 1.016 . S
C64 H63 1.016 . S
C64 N71 1.286 . S
C65 H60 0.930 . S
C65 C66 1.397 . S
C65 C67 1.361 . S
C66 C65 1.397 . S
C66 C70 1.390 . S
C67 C65 1.361 . S
C67 C68 1.393 . S
C67 N71 1.413 . S
C68 H61 0.930 . S
C68 C67 1.393 . S
C68 C69 1.399 . S
C69 C68 1.399 . S
C69 C70 1.381 . S
C70 H62 0.930 . S
C70 C66 1.390 . S
C70 C69 1.381 . S
N71 C64 1.286 . S
N71 C67 1.413 . S
H72 C77 0.930 . S
H73 C80 0.930 . S
H74 C82 0.930 . S
H75 C76 1.016 . S
C76 H75 1.016 . S
C76 N83 1.286 1_556 S
C77 H72 0.930 . S
C77 C78 1.397 . S
C77 C79 1.361 . S
C78 C77 1.397 . S
C78 C82 1.390 . S
C79 C77 1.361 . S
C79 C80 1.393 1_554 S
C79 N83 1.413 . S
C80 H73 0.930 . S
C80 C79 1.393 1_556 S
C80 C81 1.399 . S
C81 C80 1.399 . S
C81 C82 1.381 1_556 S
C82 H74 0.930 . S
C82 C78 1.390 . S
C82 C81 1.381 1_554 S
N83 C76 1.286 1_554 S
N83 C79 1.413 . S
H84 C89 0.930 . S
H85 C92 0.930 . S
H86 C94 0.930 . S
H87 C88 1.016 . S
C88 H87 1.016 . S
C88 N95 1.286 . S
C89 H84 0.930 . S
C89 C90 1.397 . S
C89 C91 1.361 . S
C90 C89 1.397 . S
C90 C94 1.390 . S
C91 C89 1.361 . S
C91 C92 1.393 . S
C91 N95 1.413 . S
C92 H85 0.930 . S
C92 C91 1.393 . S
C92 C93 1.399 . S
C93 C92 1.399 . S
C93 C94 1.381 . S
C94 H86 0.930 . S
C94 C90 1.390 . S
C94 C93 1.381 . S
N95 C88 1.286 . S
N95 C91 1.413 . S
Sc96 O99 2.025 . S
Sc96 O106 2.105 1_455 S
Sc96 O109 2.105 . S
Sc96 O112 2.105 . S
Sc96 O115 2.105 1_455 S
Sc97 O99 2.025 . S
Sc97 O107 2.105 1_455 S
Sc97 O111 2.105 . S
Sc97 O113 2.105 . S
Sc97 O117 2.105 1_455 S
Sc98 O99 2.025 . S
Sc98 O108 2.105 1_455 S
Sc98 O110 2.105 . S
Sc98 O114 2.105 . S
Sc98 O116 2.105 1_455 S
O99 Sc96 2.025 . S
O99 Sc97 2.025 . S
O99 Sc98 2.025 . S
C100 O106 1.268 . S
C100 O116 1.268 . S
C101 O107 1.268 . S
C101 O115 1.268 . S
C102 O108 1.268 . S
C102 O117 1.268 . S
C103 O109 1.268 . S
C103 O113 1.268 . S
C104 O110 1.268 . S
C104 O112 1.268 . S
C105 O111 1.268 . S
C105 O114 1.268 . S
O106 Sc96 2.105 1_655 S
O106 C100 1.268 . S
O107 Sc97 2.105 1_655 S
O107 C101 1.268 . S
O108 Sc98 2.105 1_655 S
O108 C102 1.268 . S
O109 Sc96 2.105 . S
O109 C103 1.268 . S
O110 Sc98 2.105 . S
O110 C104 1.268 . S
O111 Sc97 2.105 . S
O111 C105 1.268 . S
O112 Sc96 2.105 . S
O112 C104 1.268 . S
O113 Sc97 2.105 . S
O113 C103 1.268 . S
O114 Sc98 2.105 . S
O114 C105 1.268 . S
O115 Sc96 2.105 1_655 S
O115 C101 1.268 . S
O116 Sc98 2.105 1_655 S
O116 C100 1.268 . S
O117 Sc97 2.105 1_655 S
O117 C102 1.268 . S
Sc118 O121 2.025 . S
Sc118 O128 2.105 . S
Sc118 O131 2.105 1_455 S
Sc118 O134 2.105 1_455 S
Sc118 O137 2.105 . S
Sc119 O121 2.025 . S
Sc119 O129 2.105 . S
Sc119 O133 2.105 1_455 S
Sc119 O135 2.105 1_455 S
Sc119 O139 2.105 . S
Sc120 O121 2.025 . S
Sc120 O130 2.105 . S
Sc120 O132 2.105 1_455 S
Sc120 O136 2.105 1_455 S
Sc120 O138 2.105 . S
O121 Sc118 2.025 . S
O121 Sc119 2.025 . S
O121 Sc120 2.025 . S
C122 O128 1.268 . S
C122 O138 1.268 . S
C123 O129 1.268 . S
C123 O137 1.268 . S
C124 O130 1.268 . S
C124 O139 1.268 . S
C125 O131 1.268 . S
C125 O135 1.268 . S
C126 O132 1.268 . S
C126 O134 1.268 . S
C127 O133 1.268 . S
C127 O136 1.268 . S
O128 Sc118 2.105 . S
O128 C122 1.268 . S
O129 Sc119 2.105 . S
O129 C123 1.268 . S
O130 Sc120 2.105 . S
O130 C124 1.268 . S
O131 Sc118 2.105 1_655 S
O131 C125 1.268 . S
O132 Sc120 2.105 1_655 S
O132 C126 1.268 . S
O133 Sc119 2.105 1_655 S
O133 C127 1.268 . S
O134 Sc118 2.105 1_655 S
O134 C126 1.268 . S
O135 Sc119 2.105 1_655 S
O135 C125 1.268 . S
O136 Sc120 2.105 1_655 S
O136 C127 1.268 . S
O137 Sc118 2.105 . S
O137 C123 1.268 . S
O138 Sc120 2.105 . S
O138 C122 1.268 . S
O139 Sc119 2.105 . S
O139 C124 1.268 . S
Sc140 O143 2.025 . S
Sc140 O150 2.105 . S
Sc140 O153 2.105 . S
Sc140 O156 2.105 . S
Sc140 O159 2.105 . S
Sc141 O143 2.025 . S
Sc141 O151 2.105 . S
Sc141 O155 2.105 . S
Sc141 O157 2.105 . S
Sc141 O161 2.105 . S
Sc142 O143 2.025 . S
Sc142 O152 2.105 . S
Sc142 O154 2.105 . S
Sc142 O158 2.105 . S
Sc142 O160 2.105 . S
O143 Sc140 2.025 . S
O143 Sc141 2.025 . S
O143 Sc142 2.025 . S
C144 O150 1.268 . S
C144 O160 1.268 . S
C145 O151 1.268 . S
C145 O159 1.268 . S
C146 O152 1.268 . S
C146 O161 1.268 . S
C147 O153 1.268 . S
C147 O157 1.268 . S
C148 O154 1.268 . S
C148 O156 1.268 . S
C149 O155 1.268 . S
C149 O158 1.268 . S
O150 Sc140 2.105 . S
O150 C144 1.268 . S
O151 Sc141 2.105 . S
O151 C145 1.268 . S
O152 Sc142 2.105 . S
O152 C146 1.268 . S
O153 Sc140 2.105 . S
O153 C147 1.268 . S
O154 Sc142 2.105 . S
O154 C148 1.268 . S
O155 Sc141 2.105 . S
O155 C149 1.268 . S
O156 Sc140 2.105 . S
O156 C148 1.268 . S
O157 Sc141 2.105 . S
O157 C147 1.268 . S
O158 Sc142 2.105 . S
O158 C149 1.268 . S
O159 Sc140 2.105 . S
O159 C145 1.268 . S
O160 Sc142 2.105 . S
O160 C144 1.268 . S
O161 Sc141 2.105 . S
O161 C146 1.268 . S
Sc162 O165 2.025 . S
Sc162 O172 2.105 . S
Sc162 O175 2.105 . S
Sc162 O178 2.105 . S
Sc162 O181 2.105 . S
Sc163 O165 2.025 . S
Sc163 O173 2.105 . S
Sc163 O177 2.105 . S
Sc163 O179 2.105 . S
Sc163 O183 2.105 . S
Sc164 O165 2.025 . S
Sc164 O174 2.105 . S
Sc164 O176 2.105 . S
Sc164 O180 2.105 . S
Sc164 O182 2.105 . S
O165 Sc162 2.025 . S
O165 Sc163 2.025 . S
O165 Sc164 2.025 . S
C166 O172 1.268 . S
C166 O182 1.268 . S
C167 O173 1.268 . S
C167 O181 1.268 . S
C168 O174 1.268 . S
C168 O183 1.268 . S
C169 O175 1.268 . S
C169 O179 1.268 . S
C170 O176 1.268 . S
C170 O178 1.268 . S
C171 O177 1.268 . S
C171 O180 1.268 . S
O172 Sc162 2.105 . S
O172 C166 1.268 . S
O173 Sc163 2.105 . S
O173 C167 1.268 . S
O174 Sc164 2.105 . S
O174 C168 1.268 . S
O175 Sc162 2.105 . S
O175 C169 1.268 . S
O176 Sc164 2.105 . S
O176 C170 1.268 . S
O177 Sc163 2.105 . S
O177 C171 1.268 . S
O178 Sc162 2.105 . S
O178 C170 1.268 . S
O179 Sc163 2.105 . S
O179 C169 1.268 . S
O180 Sc164 2.105 . S
O180 C171 1.268 . S
O181 Sc162 2.105 . S
O181 C167 1.268 . S
O182 Sc164 2.105 . S
O182 C166 1.268 . S
O183 Sc163 2.105 . S
O183 C168 1.268 . S
H184 C202 0.951 . S
H185 C204 0.951 . S
H186 C206 0.950 . S
H187 C207 0.950 . S
H188 C209 0.950 . S
H189 C212 0.950 1_556 S
H190 C213 0.950 . S
H191 C215 0.950 . S
H192 C216 0.950 . S
H193 C217 0.951 . S
H194 C219 0.951 . S
H195 C221 0.950 . S
H196 C222 0.950 . S
H197 C224 0.950 . S
H198 C227 0.950 . S
H199 C228 0.950 . S
H200 C230 0.950 . S
H201 C231 0.950 . S
C202 H184 0.951 . S
C202 C203 1.366 . S
C202 C204 1.388 . S
C203 C202 1.366 . S
C203 C207 1.385 . S
C204 H185 0.951 . S
C204 C202 1.388 . S
C204 C205 1.366 . S
C205 C204 1.366 . S
C205 C206 1.414 . S
C205 C208 1.499 . S
C206 H186 0.950 . S
C206 C205 1.414 . S
C206 C207 1.374 . S
C207 H187 0.950 . S
C207 C203 1.385 . S
C207 C206 1.374 . S
C208 C205 1.499 . S
C208 C209 1.373 . S
C208 C210 1.389 . S
C209 H188 0.950 . S
C209 C208 1.373 . S
C209 C225 1.377 . S
C210 C208 1.389 . S
C210 C211 1.524 . S
C210 C224 1.377 . S
C211 C210 1.524 . S
C211 C212 1.397 1_556 S
C211 C216 1.363 . S
C212 H189 0.950 1_554 S
C212 C211 1.397 1_554 S
C212 C213 1.334 . S
C213 H190 0.950 . S
C213 C212 1.334 . S
C213 C214 1.287 . S
C214 C213 1.287 . S
C214 C215 1.524 . S
C214 H233 0.913 . S
C215 H191 0.950 . S
C215 C214 1.524 . S
C215 C216 1.415 1_554 S
C216 H192 0.950 . S
C216 C211 1.363 . S
C216 C215 1.415 1_556 S
C217 H193 0.951 . S
C217 C218 1.366 . S
C217 C219 1.388 . S
C218 C217 1.366 . S
C218 C222 1.385 . S
C219 H194 0.951 . S
C219 C217 1.388 . S
C219 C220 1.366 . S
C220 C219 1.366 . S
C220 C221 1.414 . S
C220 C223 1.499 . S
C221 H195 0.950 . S
C221 C220 1.414 . S
C221 C222 1.374 . S
C222 H196 0.950 . S
C222 C218 1.385 . S
C222 C221 1.374 . S
C223 C220 1.499 . S
C223 C224 1.373 . S
C223 C225 1.389 . S
C224 H197 0.950 . S
C224 C210 1.377 . S
C224 C223 1.373 . S
C225 C209 1.377 . S
C225 C223 1.389 . S
C225 C226 1.524 . S
C226 C225 1.524 . S
C226 C227 1.397 . S
C226 C231 1.363 . S
C227 H198 0.950 . S
C227 C226 1.397 . S
C227 C228 1.334 . S
C228 H199 0.950 . S
C228 C227 1.334 . S
C228 C229 1.287 . S
C229 C228 1.287 . S
C229 C230 1.524 . S
C229 H232 0.999 . S
C230 H200 0.950 . S
C230 C229 1.524 . S
C230 C231 1.415 . S
C231 H201 0.950 . S
C231 C226 1.363 . S
C231 C230 1.415 . S
H232 C229 0.999 . S
H233 C214 0.913 . S
H234 C252 0.951 . S
H235 C254 0.951 . S
H236 C256 0.950 . S
H237 C257 0.950 . S
H238 C259 0.950 . S
H239 C262 0.950 . S
H240 C263 0.950 . S
H241 C265 0.950 . S
H242 C266 0.950 . S
H243 C267 0.951 . S
H244 C269 0.951 . S
H245 C271 0.950 . S
H246 C272 0.950 . S
H247 C274 0.950 . S
H248 C277 0.950 . S
H249 C278 0.950 . S
H250 C280 0.950 . S
H251 C281 0.950 . S
C252 H234 0.951 . S
C252 C253 1.366 . S
C252 C254 1.388 . S
C253 C252 1.366 . S
C253 C257 1.385 . S
C254 H235 0.951 . S
C254 C252 1.388 . S
C254 C255 1.366 . S
C255 C254 1.366 . S
C255 C256 1.414 . S
C255 C258 1.499 . S
C256 H236 0.950 . S
C256 C255 1.414 . S
C256 C257 1.374 . S
C257 H237 0.950 . S
C257 C253 1.385 . S
C257 C256 1.374 . S
C258 C255 1.499 . S
C258 C259 1.373 . S
C258 C260 1.389 . S
C259 H238 0.950 . S
C259 C258 1.373 . S
C259 C275 1.377 . S
C260 C258 1.389 . S
C260 C261 1.524 . S
C260 C274 1.377 . S
C261 C260 1.524 . S
C261 C262 1.397 . S
C261 C266 1.363 . S
C262 H239 0.950 . S
C262 C261 1.397 . S
C262 C263 1.334 . S
C263 H240 0.950 . S
C263 C262 1.334 . S
C263 C264 1.287 . S
C264 C263 1.287 . S
C264 C265 1.524 . S
C264 H283 0.913 . S
C265 H241 0.950 . S
C265 C264 1.524 . S
C265 C266 1.415 . S
C266 H242 0.950 . S
C266 C261 1.363 . S
C266 C265 1.415 . S
C267 H243 0.951 . S
C267 C268 1.366 . S
C267 C269 1.388 . S
C268 C267 1.366 . S
C268 C272 1.385 . S
C269 H244 0.951 . S
C269 C267 1.388 . S
C269 C270 1.366 . S
C270 C269 1.366 . S
C270 C271 1.414 . S
C270 C273 1.499 . S
C271 H245 0.950 . S
C271 C270 1.414 . S
C271 C272 1.374 . S
C272 H246 0.950 . S
C272 C268 1.385 . S
C272 C271 1.374 . S
C273 C270 1.499 . S
C273 C274 1.373 . S
C273 C275 1.389 . S
C274 H247 0.950 . S
C274 C260 1.377 . S
C274 C273 1.373 . S
C275 C259 1.377 . S
C275 C273 1.389 . S
C275 C276 1.524 . S
C276 C275 1.524 . S
C276 C277 1.397 . S
C276 C281 1.363 . S
C277 H248 0.950 . S
C277 C276 1.397 . S
C277 C278 1.334 . S
C278 H249 0.950 . S
C278 C277 1.334 . S
C278 C279 1.287 . S
C279 C278 1.287 . S
C279 C280 1.524 . S
C279 H282 0.999 . S
C280 H250 0.950 . S
C280 C279 1.524 . S
C280 C281 1.415 . S
C281 H251 0.950 . S
C281 C276 1.363 . S
C281 C280 1.415 . S
H282 C279 0.999 . S
H283 C264 0.913 . S
H284 C302 0.951 . S
H285 C304 0.951 . S
H286 C306 0.950 . S
H287 C307 0.950 . S
H288 C309 0.950 . S
H289 C312 0.950 1_556 S
H290 C313 0.950 . S
H291 C315 0.950 . S
H292 C316 0.950 . S
H293 C317 0.951 . S
H294 C319 0.951 . S
H295 C321 0.950 . S
H296 C322 0.950 . S
H297 C324 0.950 . S
H298 C327 0.950 . S
H299 C328 0.950 . S
H300 C330 0.950 . S
H301 C331 0.950 . S
C302 H284 0.951 . S
C302 C303 1.366 . S
C302 C304 1.388 . S
C303 C302 1.366 . S
C303 C307 1.385 . S
C304 H285 0.951 . S
C304 C302 1.388 . S
C304 C305 1.366 . S
C305 C304 1.366 . S
C305 C306 1.414 . S
C305 C308 1.499 . S
C306 H286 0.950 . S
C306 C305 1.414 . S
C306 C307 1.374 . S
C307 H287 0.950 . S
C307 C303 1.385 . S
C307 C306 1.374 . S
C308 C305 1.499 . S
C308 C309 1.373 . S
C308 C310 1.389 . S
C309 H288 0.950 . S
C309 C308 1.373 . S
C309 C325 1.377 . S
C310 C308 1.389 . S
C310 C311 1.524 . S
C310 C324 1.377 . S
C311 C310 1.524 . S
C311 C312 1.397 1_556 S
C311 C316 1.363 . S
C312 H289 0.950 1_554 S
C312 C311 1.397 1_554 S
C312 C313 1.334 . S
C313 H290 0.950 . S
C313 C312 1.334 . S
C313 C314 1.287 . S
C314 C313 1.287 . S
C314 C315 1.524 . S
C314 H333 0.913 . S
C315 H291 0.950 . S
C315 C314 1.524 . S
C315 C316 1.415 1_554 S
C316 H292 0.950 . S
C316 C311 1.363 . S
C316 C315 1.415 1_556 S
C317 H293 0.951 . S
C317 C318 1.366 . S
C317 C319 1.388 . S
C318 C317 1.366 . S
C318 C322 1.385 . S
C319 H294 0.951 . S
C319 C317 1.388 . S
C319 C320 1.366 . S
C320 C319 1.366 . S
C320 C321 1.414 . S
C320 C323 1.499 . S
C321 H295 0.950 . S
C321 C320 1.414 . S
C321 C322 1.374 . S
C322 H296 0.950 . S
C322 C318 1.385 . S
C322 C321 1.374 . S
C323 C320 1.499 . S
C323 C324 1.373 . S
C323 C325 1.389 . S
C324 H297 0.950 . S
C324 C310 1.377 . S
C324 C323 1.373 . S
C325 C309 1.377 . S
C325 C323 1.389 . S
C325 C326 1.524 . S
C326 C325 1.524 . S
C326 C327 1.397 . S
C326 C331 1.363 . S
C327 H298 0.950 . S
C327 C326 1.397 . S
C327 C328 1.334 . S
C328 H299 0.950 . S
C328 C327 1.334 . S
C328 C329 1.287 . S
C329 C328 1.287 . S
C329 C330 1.524 . S
C329 H332 0.999 . S
C330 H300 0.950 . S
C330 C329 1.524 . S
C330 C331 1.415 . S
C331 H301 0.950 . S
C331 C326 1.363 . S
C331 C330 1.415 . S
H332 C329 0.999 . S
H333 C314 0.913 . S
H334 C352 0.951 . S
H335 C354 0.951 . S
H336 C356 0.950 . S
H337 C357 0.950 . S
H338 C359 0.950 . S
H339 C362 0.950 . S
H340 C363 0.950 . S
H341 C365 0.950 . S
H342 C366 0.950 . S
H343 C367 0.951 . S
H344 C369 0.951 . S
H345 C371 0.950 . S
H346 C372 0.950 . S
H347 C374 0.950 . S
H348 C377 0.950 . S
H349 C378 0.950 . S
H350 C380 0.950 . S
H351 C381 0.950 . S
C352 H334 0.951 . S
C352 C353 1.366 . S
C352 C354 1.388 . S
C353 C352 1.366 . S
C353 C357 1.385 . S
C354 H335 0.951 . S
C354 C352 1.388 . S
C354 C355 1.366 . S
C355 C354 1.366 . S
C355 C356 1.414 . S
C355 C358 1.499 . S
C356 H336 0.950 . S
C356 C355 1.414 . S
C356 C357 1.374 . S
C357 H337 0.950 . S
C357 C353 1.385 . S
C357 C356 1.374 . S
C358 C355 1.499 . S
C358 C359 1.373 . S
C358 C360 1.389 . S
C359 H338 0.950 . S
C359 C358 1.373 . S
C359 C375 1.377 . S
C360 C358 1.389 . S
C360 C361 1.524 . S
C360 C374 1.377 . S
C361 C360 1.524 . S
C361 C362 1.397 . S
C361 C366 1.363 . S
C362 H339 0.950 . S
C362 C361 1.397 . S
C362 C363 1.334 . S
C363 H340 0.950 . S
C363 C362 1.334 . S
C363 C364 1.287 . S
C364 C363 1.287 . S
C364 C365 1.524 . S
C364 H383 0.913 . S
C365 H341 0.950 . S
C365 C364 1.524 . S
C365 C366 1.415 . S
C366 H342 0.950 . S
C366 C361 1.363 . S
C366 C365 1.415 . S
C367 H343 0.951 . S
C367 C368 1.366 . S
C367 C369 1.388 . S
C368 C367 1.366 . S
C368 C372 1.385 . S
C369 H344 0.951 . S
C369 C367 1.388 . S
C369 C370 1.366 . S
C370 C369 1.366 . S
C370 C371 1.414 . S
C370 C373 1.499 . S
C371 H345 0.950 . S
C371 C370 1.414 . S
C371 C372 1.374 . S
C372 H346 0.950 . S
C372 C368 1.385 . S
C372 C371 1.374 . S
C373 C370 1.499 . S
C373 C374 1.373 . S
C373 C375 1.389 . S
C374 H347 0.950 . S
C374 C360 1.377 . S
C374 C373 1.373 . S
C375 C359 1.377 . S
C375 C373 1.389 . S
C375 C376 1.524 . S
C376 C375 1.524 . S
C376 C377 1.397 . S
C376 C381 1.363 . S
C377 H348 0.950 . S
C377 C376 1.397 . S
C377 C378 1.334 . S
C378 H349 0.950 . S
C378 C377 1.334 . S
C378 C379 1.287 . S
C379 C378 1.287 . S
C379 C380 1.524 . S
C379 H382 0.999 . S
C380 H350 0.950 . S
C380 C379 1.524 . S
C380 C381 1.415 . S
C381 H351 0.950 . S
C381 C376 1.363 . S
C381 C380 1.415 . S
H382 C379 0.999 . S
H383 C364 0.913 . S
H384 C402 0.951 . S
H385 C404 0.951 . S
H386 C406 0.950 . S
H387 C407 0.950 1_554 S
H388 C409 0.950 . S
H389 C412 0.950 . S
H390 C413 0.950 . S
H391 C415 0.950 . S
H392 C416 0.950 . S
H393 C417 0.951 . S
H394 C419 0.951 . S
H395 C421 0.950 . S
H396 C422 0.950 . S
H397 C424 0.950 . S
H398 C427 0.950 . S
H399 C428 0.950 . S
H400 C430 0.950 1_554 S
H401 C431 0.950 . S
C402 H384 0.951 . S
C402 C403 1.366 . S
C402 C404 1.388 . S
C403 C402 1.366 . S
C403 C407 1.385 . S
C404 H385 0.951 . S
C404 C402 1.388 . S
C404 C405 1.366 . S
C405 C404 1.366 . S
C405 C406 1.414 . S
C405 C408 1.499 . S
C406 H386 0.950 . S
C406 C405 1.414 . S
C406 C407 1.374 . S
C407 H387 0.950 1_556 S
C407 C403 1.385 . S
C407 C406 1.374 . S
C408 C405 1.499 . S
C408 C409 1.373 . S
C408 C410 1.389 . S
C409 H388 0.950 . S
C409 C408 1.373 . S
C409 C425 1.377 . S
C410 C408 1.389 . S
C410 C411 1.524 . S
C410 C424 1.377 . S
C411 C410 1.524 . S
C411 C412 1.397 . S
C411 C416 1.363 . S
C412 H389 0.950 . S
C412 C411 1.397 . S
C412 C413 1.334 . S
C413 H390 0.950 . S
C413 C412 1.334 . S
C413 C414 1.287 . S
C414 C413 1.287 . S
C414 C415 1.524 . S
C414 H433 0.913 . S
C415 H391 0.950 . S
C415 C414 1.524 . S
C415 C416 1.415 . S
C416 H392 0.950 . S
C416 C411 1.363 . S
C416 C415 1.415 . S
C417 H393 0.951 . S
C417 C418 1.366 . S
C417 C419 1.388 . S
C418 C417 1.366 . S
C418 C422 1.385 . S
C419 H394 0.951 . S
C419 C417 1.388 . S
C419 C420 1.366 . S
C420 C419 1.366 . S
C420 C421 1.414 . S
C420 C423 1.499 . S
C421 H395 0.950 . S
C421 C420 1.414 . S
C421 C422 1.374 . S
C422 H396 0.950 . S
C422 C418 1.385 . S
C422 C421 1.374 . S
C423 C420 1.499 . S
C423 C424 1.373 . S
C423 C425 1.389 . S
C424 H397 0.950 . S
C424 C410 1.377 . S
C424 C423 1.373 . S
C425 C409 1.377 . S
C425 C423 1.389 . S
C425 C426 1.524 . S
C426 C425 1.524 . S
C426 C427 1.397 . S
C426 C431 1.363 . S
C427 H398 0.950 . S
C427 C426 1.397 . S
C427 C428 1.334 . S
C428 H399 0.950 . S
C428 C427 1.334 . S
C428 C429 1.287 . S
C429 C428 1.287 . S
C429 C430 1.524 . S
C429 H432 0.999 . S
C430 H400 0.950 1_556 S
C430 C429 1.524 . S
C430 C431 1.415 . S
C431 H401 0.950 . S
C431 C426 1.363 . S
C431 C430 1.415 . S
H432 C429 0.999 . S
H433 C414 0.913 . S
H434 C452 0.951 . S
H435 C454 0.951 . S
H436 C456 0.950 . S
H437 C457 0.950 . S
H438 C459 0.950 . S
H439 C462 0.950 . S
H440 C463 0.950 . S
H441 C465 0.950 . S
H442 C466 0.950 . S
H443 C467 0.951 . S
H444 C469 0.951 . S
H445 C471 0.950 . S
H446 C472 0.950 . S
H447 C474 0.950 . S
H448 C477 0.950 . S
H449 C478 0.950 . S
H450 C480 0.950 . S
H451 C481 0.950 . S
C452 H434 0.951 . S
C452 C453 1.366 . S
C452 C454 1.388 . S
C453 C452 1.366 . S
C453 C457 1.385 . S
C454 H435 0.951 . S
C454 C452 1.388 . S
C454 C455 1.366 . S
C455 C454 1.366 . S
C455 C456 1.414 . S
C455 C458 1.499 . S
C456 H436 0.950 . S
C456 C455 1.414 . S
C456 C457 1.374 . S
C457 H437 0.950 . S
C457 C453 1.385 . S
C457 C456 1.374 . S
C458 C455 1.499 . S
C458 C459 1.373 . S
C458 C460 1.389 . S
C459 H438 0.950 . S
C459 C458 1.373 . S
C459 C475 1.377 . S
C460 C458 1.389 . S
C460 C461 1.524 . S
C460 C474 1.377 . S
C461 C460 1.524 . S
C461 C462 1.397 . S
C461 C466 1.363 . S
C462 H439 0.950 . S
C462 C461 1.397 . S
C462 C463 1.334 . S
C463 H440 0.950 . S
C463 C462 1.334 . S
C463 C464 1.287 . S
C464 C463 1.287 . S
C464 C465 1.524 . S
C464 H483 0.913 . S
C465 H441 0.950 . S
C465 C464 1.524 . S
C465 C466 1.415 . S
C466 H442 0.950 . S
C466 C461 1.363 . S
C466 C465 1.415 . S
C467 H443 0.951 . S
C467 C468 1.366 . S
C467 C469 1.388 . S
C468 C467 1.366 . S
C468 C472 1.385 . S
C469 H444 0.951 . S
C469 C467 1.388 . S
C469 C470 1.366 . S
C470 C469 1.366 . S
C470 C471 1.414 . S
C470 C473 1.499 . S
C471 H445 0.950 . S
C471 C470 1.414 . S
C471 C472 1.374 . S
C472 H446 0.950 . S
C472 C468 1.385 . S
C472 C471 1.374 . S
C473 C470 1.499 . S
C473 C474 1.373 . S
C473 C475 1.389 . S
C474 H447 0.950 . S
C474 C460 1.377 . S
C474 C473 1.373 . S
C475 C459 1.377 . S
C475 C473 1.389 . S
C475 C476 1.524 . S
C476 C475 1.524 . S
C476 C477 1.397 . S
C476 C481 1.363 . S
C477 H448 0.950 . S
C477 C476 1.397 . S
C477 C478 1.334 . S
C478 H449 0.950 . S
C478 C477 1.334 . S
C478 C479 1.287 . S
C479 C478 1.287 . S
C479 C480 1.524 . S
C479 H482 0.999 . S
C480 H450 0.950 . S
C480 C479 1.524 . S
C480 C481 1.415 . S
C481 H451 0.950 . S
C481 C476 1.363 . S
C481 C480 1.415 . S
H482 C479 0.999 . S
H483 C464 0.913 . S
H484 C502 0.951 . S
H485 C504 0.951 . S
H486 C506 0.950 . S
H487 C507 0.950 . S
H488 C509 0.950 . S
H489 C512 0.950 . S
H490 C513 0.950 . S
H491 C515 0.950 . S
H492 C516 0.950 . S
H493 C517 0.951 . S
H494 C519 0.951 . S
H495 C521 0.950 . S
H496 C522 0.950 . S
H497 C524 0.950 . S
H498 C527 0.950 . S
H499 C528 0.950 . S
H500 C530 0.950 . S
H501 C531 0.950 . S
C502 H484 0.951 . S
C502 C503 1.366 . S
C502 C504 1.388 . S
C503 C502 1.366 . S
C503 C507 1.385 . S
C504 H485 0.951 . S
C504 C502 1.388 . S
C504 C505 1.366 . S
C505 C504 1.366 . S
C505 C506 1.414 . S
C505 C508 1.499 . S
C506 H486 0.950 . S
C506 C505 1.414 . S
C506 C507 1.374 . S
C507 H487 0.950 . S
C507 C503 1.385 . S
C507 C506 1.374 . S
C508 C505 1.499 . S
C508 C509 1.373 . S
C508 C510 1.389 . S
C509 H488 0.950 . S
C509 C508 1.373 . S
C509 C525 1.377 . S
C510 C508 1.389 . S
C510 C511 1.524 . S
C510 C524 1.377 . S
C511 C510 1.524 . S
C511 C512 1.397 . S
C511 C516 1.363 . S
C512 H489 0.950 . S
C512 C511 1.397 . S
C512 C513 1.334 . S
C513 H490 0.950 . S
C513 C512 1.334 . S
C513 C514 1.287 . S
C514 C513 1.287 . S
C514 C515 1.524 . S
C514 H533 0.913 . S
C515 H491 0.950 . S
C515 C514 1.524 . S
C515 C516 1.415 . S
C516 H492 0.950 . S
C516 C511 1.363 . S
C516 C515 1.415 . S
C517 H493 0.951 . S
C517 C518 1.366 . S
C517 C519 1.388 . S
C518 C517 1.366 . S
C518 C522 1.385 . S
C519 H494 0.951 . S
C519 C517 1.388 . S
C519 C520 1.366 . S
C520 C519 1.366 . S
C520 C521 1.414 . S
C520 C523 1.499 . S
C521 H495 0.950 . S
C521 C520 1.414 . S
C521 C522 1.374 . S
C522 H496 0.950 . S
C522 C518 1.385 . S
C522 C521 1.374 . S
C523 C520 1.499 . S
C523 C524 1.373 . S
C523 C525 1.389 . S
C524 H497 0.950 . S
C524 C510 1.377 . S
C524 C523 1.373 . S
C525 C509 1.377 . S
C525 C523 1.389 . S
C525 C526 1.524 . S
C526 C525 1.524 . S
C526 C527 1.397 . S
C526 C531 1.363 . S
C527 H498 0.950 . S
C527 C526 1.397 . S
C527 C528 1.334 . S
C528 H499 0.950 . S
C528 C527 1.334 . S
C528 C529 1.287 . S
C529 C528 1.287 . S
C529 C530 1.524 . S
C529 H532 0.999 . S
C530 H500 0.950 . S
C530 C529 1.524 . S
C530 C531 1.415 . S
C531 H501 0.950 . S
C531 C526 1.363 . S
C531 C530 1.415 . S
H532 C529 0.999 . S
H533 C514 0.913 . S
H534 C552 0.951 . S
H535 C554 0.951 . S
H536 C556 0.950 . S
H537 C557 0.950 . S
H538 C559 0.950 . S
H539 C562 0.950 . S
H540 C563 0.950 . S
H541 C565 0.950 . S
H542 C566 0.950 . S
H543 C567 0.951 . S
H544 C569 0.951 . S
H545 C571 0.950 . S
H546 C572 0.950 . S
H547 C574 0.950 . S
H548 C577 0.950 . S
H549 C578 0.950 . S
H550 C580 0.950 . S
H551 C581 0.950 . S
C552 H534 0.951 . S
C552 C553 1.366 . S
C552 C554 1.388 . S
C553 C552 1.366 . S
C553 C557 1.385 . S
C554 H535 0.951 . S
C554 C552 1.388 . S
C554 C555 1.366 . S
C555 C554 1.366 . S
C555 C556 1.414 . S
C555 C558 1.499 . S
C556 H536 0.950 . S
C556 C555 1.414 . S
C556 C557 1.374 . S
C557 H537 0.950 . S
C557 C553 1.385 . S
C557 C556 1.374 . S
C558 C555 1.499 . S
C558 C559 1.373 . S
C558 C560 1.389 . S
C559 H538 0.950 . S
C559 C558 1.373 . S
C559 C575 1.377 . S
C560 C558 1.389 . S
C560 C561 1.524 . S
C560 C574 1.377 . S
C561 C560 1.524 . S
C561 C562 1.397 . S
C561 C566 1.363 . S
C562 H539 0.950 . S
C562 C561 1.397 . S
C562 C563 1.334 . S
C563 H540 0.950 . S
C563 C562 1.334 . S
C563 C564 1.287 . S
C564 C563 1.287 . S
C564 C565 1.524 . S
C564 H583 0.913 . S
C565 H541 0.950 . S
C565 C564 1.524 . S
C565 C566 1.415 . S
C566 H542 0.950 . S
C566 C561 1.363 . S
C566 C565 1.415 . S
C567 H543 0.951 . S
C567 C568 1.366 . S
C567 C569 1.388 . S
C568 C567 1.366 . S
C568 C572 1.385 . S
C569 H544 0.951 . S
C569 C567 1.388 . S
C569 C570 1.366 . S
C570 C569 1.366 . S
C570 C571 1.414 . S
C570 C573 1.499 . S
C571 H545 0.950 . S
C571 C570 1.414 . S
C571 C572 1.374 . S
C572 H546 0.950 . S
C572 C568 1.385 . S
C572 C571 1.374 . S
C573 C570 1.499 . S
C573 C574 1.373 . S
C573 C575 1.389 . S
C574 H547 0.950 . S
C574 C560 1.377 . S
C574 C573 1.373 . S
C575 C559 1.377 . S
C575 C573 1.389 . S
C575 C576 1.524 . S
C576 C575 1.524 . S
C576 C577 1.397 . S
C576 C581 1.363 . S
C577 H548 0.950 . S
C577 C576 1.397 . S
C577 C578 1.334 . S
C578 H549 0.950 . S
C578 C577 1.334 . S
C578 C579 1.287 . S
C579 C578 1.287 . S
C579 C580 1.524 . S
C579 H582 0.999 . S
C580 H550 0.950 . S
C580 C579 1.524 . S
C580 C581 1.415 . S
C581 H551 0.950 . S
C581 C576 1.363 . S
C581 C580 1.415 . S
H582 C579 0.999 . S
H583 C564 0.913 . S
H584 C602 0.951 . S
H585 C604 0.951 . S
H586 C606 0.950 . S
H587 C607 0.950 . S
H588 C609 0.950 . S
H589 C612 0.950 . S
H590 C613 0.950 . S
H591 C615 0.950 . S
H592 C616 0.950 . S
H593 C617 0.951 . S
H594 C619 0.951 . S
H595 C621 0.950 . S
H596 C622 0.950 . S
H597 C624 0.950 . S
H598 C627 0.950 . S
H599 C628 0.950 . S
H600 C630 0.950 . S
H601 C631 0.950 . S
C602 H584 0.951 . S
C602 C603 1.366 . S
C602 C604 1.388 . S
C603 C602 1.366 . S
C603 C607 1.385 . S
C604 H585 0.951 . S
C604 C602 1.388 . S
C604 C605 1.366 . S
C605 C604 1.366 . S
C605 C606 1.414 . S
C605 C608 1.499 . S
C606 H586 0.950 . S
C606 C605 1.414 . S
C606 C607 1.374 . S
C607 H587 0.950 . S
C607 C603 1.385 . S
C607 C606 1.374 . S
C608 C605 1.499 . S
C608 C609 1.373 . S
C608 C610 1.389 . S
C609 H588 0.950 . S
C609 C608 1.373 . S
C609 C625 1.377 . S
C610 C608 1.389 . S
C610 C611 1.524 . S
C610 C624 1.377 . S
C611 C610 1.524 . S
C611 C612 1.397 . S
C611 C616 1.363 . S
C612 H589 0.950 . S
C612 C611 1.397 . S
C612 C613 1.334 . S
C613 H590 0.950 . S
C613 C612 1.334 . S
C613 C614 1.287 . S
C614 C613 1.287 . S
C614 C615 1.524 . S
C614 H633 0.913 . S
C615 H591 0.950 . S
C615 C614 1.524 . S
C615 C616 1.415 . S
C616 H592 0.950 . S
C616 C611 1.363 . S
C616 C615 1.415 . S
C617 H593 0.951 . S
C617 C618 1.366 . S
C617 C619 1.388 . S
C618 C617 1.366 . S
C618 C622 1.385 . S
C619 H594 0.951 . S
C619 C617 1.388 . S
C619 C620 1.366 . S
C620 C619 1.366 . S
C620 C621 1.414 . S
C620 C623 1.499 . S
C621 H595 0.950 . S
C621 C620 1.414 . S
C621 C622 1.374 . S
C622 H596 0.950 . S
C622 C618 1.385 . S
C622 C621 1.374 . S
C623 C620 1.499 . S
C623 C624 1.373 . S
C623 C625 1.389 . S
C624 H597 0.950 . S
C624 C610 1.377 . S
C624 C623 1.373 . S
C625 C609 1.377 . S
C625 C623 1.389 . S
C625 C626 1.524 . S
C626 C625 1.524 . S
C626 C627 1.397 . S
C626 C631 1.363 . S
C627 H598 0.950 . S
C627 C626 1.397 . S
C627 C628 1.334 . S
C628 H599 0.950 . S
C628 C627 1.334 . S
C628 C629 1.287 . S
C629 C628 1.287 . S
C629 C630 1.524 . S
C629 H632 0.999 1_556 S
C630 H600 0.950 . S
C630 C629 1.524 . S
C630 C631 1.415 . S
C631 H601 0.950 . S
C631 C626 1.363 . S
C631 C630 1.415 . S
H632 C629 0.999 1_554 S
H633 C614 0.913 . S
H634 C652 0.951 . S
H635 C654 0.951 . S
H636 C656 0.950 . S
H637 C657 0.950 . S
H638 C659 0.950 . S
H639 C662 0.950 . S
H640 C663 0.950 . S
H641 C665 0.950 . S
H642 C666 0.950 . S
H643 C667 0.951 . S
H644 C669 0.951 . S
H645 C671 0.950 . S
H646 C672 0.950 . S
H647 C674 0.950 . S
H648 C677 0.950 . S
H649 C678 0.950 . S
H650 C680 0.950 . S
H651 C681 0.950 . S
C652 H634 0.951 . S
C652 C653 1.366 . S
C652 C654 1.388 . S
C653 C652 1.366 . S
C653 C657 1.385 . S
C654 H635 0.951 . S
C654 C652 1.388 . S
C654 C655 1.366 . S
C655 C654 1.366 . S
C655 C656 1.414 . S
C655 C658 1.499 . S
C656 H636 0.950 . S
C656 C655 1.414 . S
C656 C657 1.374 . S
C657 H637 0.950 . S
C657 C653 1.385 . S
C657 C656 1.374 . S
C658 C655 1.499 . S
C658 C659 1.373 . S
C658 C660 1.389 . S
C659 H638 0.950 . S
C659 C658 1.373 . S
C659 C675 1.377 . S
C660 C658 1.389 . S
C660 C661 1.524 . S
C660 C674 1.377 . S
C661 C660 1.524 . S
C661 C662 1.397 . S
C661 C666 1.363 . S
C662 H639 0.950 . S
C662 C661 1.397 . S
C662 C663 1.334 . S
C663 H640 0.950 . S
C663 C662 1.334 . S
C663 C664 1.287 . S
C664 C663 1.287 . S
C664 C665 1.524 . S
C664 H683 0.913 . S
C665 H641 0.950 . S
C665 C664 1.524 . S
C665 C666 1.415 . S
C666 H642 0.950 . S
C666 C661 1.363 . S
C666 C665 1.415 . S
C667 H643 0.951 . S
C667 C668 1.366 . S
C667 C669 1.388 . S
C668 C667 1.366 . S
C668 C672 1.385 . S
C669 H644 0.951 . S
C669 C667 1.388 . S
C669 C670 1.366 . S
C670 C669 1.366 . S
C670 C671 1.414 . S
C670 C673 1.499 . S
C671 H645 0.950 . S
C671 C670 1.414 . S
C671 C672 1.374 . S
C672 H646 0.950 . S
C672 C668 1.385 . S
C672 C671 1.374 . S
C673 C670 1.499 . S
C673 C674 1.373 . S
C673 C675 1.389 . S
C674 H647 0.950 . S
C674 C660 1.377 . S
C674 C673 1.373 . S
C675 C659 1.377 . S
C675 C673 1.389 . S
C675 C676 1.524 . S
C676 C675 1.524 . S
C676 C677 1.397 . S
C676 C681 1.363 . S
C677 H648 0.950 . S
C677 C676 1.397 . S
C677 C678 1.334 . S
C678 H649 0.950 . S
C678 C677 1.334 . S
C678 C679 1.287 . S
C679 C678 1.287 . S
C679 C680 1.524 . S
C679 H682 0.999 . S
C680 H650 0.950 . S
C680 C679 1.524 . S
C680 C681 1.415 . S
C681 H651 0.950 . S
C681 C676 1.363 . S
C681 C680 1.415 . S
H682 C679 0.999 . S
H683 C664 0.913 . S
H684 C702 0.932 1_554 S
H685 C704 0.951 . S
H686 C706 0.950 . S
H687 C707 0.950 . S
H688 C709 0.950 . S
H689 C712 0.950 1_556 S
H690 C713 0.950 . S
H691 C715 0.950 . S
H692 C716 0.950 1_556 S
H693 C717 0.951 . S
H694 C719 0.951 . S
H695 C721 0.950 . S
H696 C722 0.950 . S
H697 C724 0.950 . S
H698 C727 0.950 . S
H699 C728 0.950 . S
H700 C730 0.950 . S
H701 C731 0.950 . S
C702 H684 0.932 1_556 S
C702 C703 1.366 . S
C702 C704 1.388 . S
C703 C702 1.366 . S
C703 C707 1.385 . S
C704 H685 0.951 . S
C704 C702 1.388 . S
C704 C705 1.366 . S
C705 C704 1.366 . S
C705 C706 1.414 . S
C705 C708 1.499 . S
C706 H686 0.950 . S
C706 C705 1.414 . S
C706 C707 1.374 . S
C707 H687 0.950 . S
C707 C703 1.385 . S
C707 C706 1.374 . S
C708 C705 1.499 . S
C708 C709 1.373 . S
C708 C710 1.389 . S
C709 H688 0.950 . S
C709 C708 1.373 . S
C709 C725 1.377 . S
C710 C708 1.389 . S
C710 C711 1.524 . S
C710 C724 1.377 . S
C711 C710 1.524 . S
C711 C712 1.397 1_556 S
C711 C716 1.363 1_556 S
C712 H689 0.950 1_554 S
C712 C711 1.397 1_554 S
C712 C713 1.334 . S
C713 H690 0.950 . S
C713 C712 1.334 . S
C713 C714 1.287 . S
C714 C713 1.287 . S
C714 C715 1.524 . S
C714 H733 0.913 . S
C715 H691 0.950 . S
C715 C714 1.524 . S
C715 C716 1.415 . S
C716 H692 0.950 1_554 S
C716 C711 1.363 1_554 S
C716 C715 1.415 . S
C717 H693 0.951 . S
C717 C718 1.366 . S
C717 C719 1.388 . S
C718 C717 1.366 . S
C718 C722 1.385 . S
C719 H694 0.951 . S
C719 C717 1.388 . S
C719 C720 1.366 . S
C720 C719 1.366 . S
C720 C721 1.414 . S
C720 C723 1.499 . S
C721 H695 0.950 . S
C721 C720 1.414 . S
C721 C722 1.374 . S
C722 H696 0.950 . S
C722 C718 1.385 . S
C722 C721 1.374 . S
C723 C720 1.499 . S
C723 C724 1.373 . S
C723 C725 1.389 . S
C724 H697 0.950 . S
C724 C710 1.377 . S
C724 C723 1.373 . S
C725 C709 1.377 . S
C725 C723 1.389 . S
C725 C726 1.524 . S
C726 C725 1.524 . S
C726 C727 1.397 . S
C726 C731 1.363 . S
C727 H698 0.950 . S
C727 C726 1.397 . S
C727 C728 1.334 . S
C728 H699 0.950 . S
C728 C727 1.334 . S
C728 C729 1.287 . S
C729 C728 1.287 . S
C729 C730 1.524 . S
C729 H732 0.999 . S
C730 H700 0.950 . S
C730 C729 1.524 . S
C730 C731 1.415 . S
C731 H701 0.950 . S
C731 C726 1.363 . S
C731 C730 1.415 . S
H732 C729 0.999 . S
H733 C714 0.913 . S
H734 C752 0.951 . S
H735 C754 0.951 . S
H736 C756 0.950 . S
H737 C757 0.950 . S
H738 C759 0.950 . S
H739 C762 0.950 . S
H740 C763 0.950 . S
H741 C765 0.950 . S
H742 C766 0.950 . S
H743 C767 0.951 . S
H744 C769 0.951 . S
H745 C771 0.950 . S
H746 C772 0.950 . S
H747 C774 0.950 . S
H748 C777 0.950 . S
H749 C778 0.950 . S
H750 C780 0.950 . S
H751 C781 0.950 . S
C752 H734 0.951 . S
C752 C753 1.366 . S
C752 C754 1.388 . S
C753 C752 1.366 . S
C753 C757 1.385 . S
C754 H735 0.951 . S
C754 C752 1.388 . S
C754 C755 1.366 . S
C755 C754 1.366 . S
C755 C756 1.414 . S
C755 C758 1.499 . S
C756 H736 0.950 . S
C756 C755 1.414 . S
C756 C757 1.374 . S
C757 H737 0.950 . S
C757 C753 1.385 . S
C757 C756 1.374 . S
C758 C755 1.499 . S
C758 C759 1.373 . S
C758 C760 1.389 . S
C759 H738 0.950 . S
C759 C758 1.373 . S
C759 C775 1.377 . S
C760 C758 1.389 . S
C760 C761 1.524 . S
C760 C774 1.377 . S
C761 C760 1.524 . S
C761 C762 1.397 . S
C761 C766 1.363 . S
C762 H739 0.950 . S
C762 C761 1.397 . S
C762 C763 1.334 . S
C763 H740 0.950 . S
C763 C762 1.334 . S
C763 C764 1.287 . S
C764 C763 1.287 . S
C764 C765 1.524 . S
C764 H783 0.913 . S
C765 H741 0.950 . S
C765 C764 1.524 . S
C765 C766 1.415 . S
C766 H742 0.950 . S
C766 C761 1.363 . S
C766 C765 1.415 . S
C767 H743 0.951 . S
C767 C768 1.366 . S
C767 C769 1.388 . S
C768 C767 1.366 . S
C768 C772 1.385 . S
C769 H744 0.951 . S
C769 C767 1.388 . S
C769 C770 1.366 . S
C770 C769 1.366 . S
C770 C771 1.414 . S
C770 C773 1.499 . S
C771 H745 0.950 . S
C771 C770 1.414 . S
C771 C772 1.374 . S
C772 H746 0.950 . S
C772 C768 1.385 . S
C772 C771 1.374 . S
C773 C770 1.499 . S
C773 C774 1.373 . S
C773 C775 1.389 . S
C774 H747 0.950 . S
C774 C760 1.377 . S
C774 C773 1.373 . S
C775 C759 1.377 . S
C775 C773 1.389 . S
C775 C776 1.524 . S
C776 C775 1.524 . S
C776 C777 1.397 . S
C776 C781 1.363 . S
C777 H748 0.950 . S
C777 C776 1.397 . S
C777 C778 1.334 . S
C778 H749 0.950 . S
C778 C777 1.334 . S
C778 C779 1.287 . S
C779 C778 1.287 . S
C779 C780 1.524 . S
C779 H782 0.999 . S
C780 H750 0.950 . S
C780 C779 1.524 . S
C780 C781 1.415 . S
C781 H751 0.950 . S
C781 C776 1.363 . S
C781 C780 1.415 . S
H782 C779 0.999 . S
H783 C764 0.913 . S
H784 C802 0.951 . S
H785 C804 0.951 . S
H786 C806 0.950 . S
H787 C807 0.950 . S
H788 C809 0.950 . S
H789 C812 0.950 . S
H790 C813 0.950 . S
H791 C815 0.950 . S
H792 C816 0.950 . S
H793 C817 0.951 . S
H794 C819 0.951 . S
H795 C821 0.950 . S
H796 C822 0.950 . S
H797 C824 0.950 . S
H798 C827 0.950 . S
H799 C828 0.950 . S
H800 C830 0.948 1_554 S
H801 C831 0.950 . S
C802 H784 0.951 . S
C802 C803 1.366 . S
C802 C804 1.388 . S
C803 C802 1.366 . S
C803 C807 1.385 . S
C804 H785 0.951 . S
C804 C802 1.388 . S
C804 C805 1.366 . S
C805 C804 1.366 . S
C805 C806 1.414 . S
C805 C808 1.499 . S
C806 H786 0.950 . S
C806 C805 1.414 . S
C806 C807 1.374 . S
C807 H787 0.950 . S
C807 C803 1.385 . S
C807 C806 1.374 . S
C808 C805 1.499 . S
C808 C809 1.373 . S
C808 C810 1.389 . S
C809 H788 0.950 . S
C809 C808 1.373 . S
C809 C825 1.377 1_565 S
C810 C808 1.389 . S
C810 C811 1.524 . S
C810 C824 1.377 1_565 S
C811 C810 1.524 . S
C811 C812 1.397 . S
C811 C816 1.363 1_565 S
C812 H789 0.950 . S
C812 C811 1.397 . S
C812 C813 1.334 . S
C813 H790 0.950 . S
C813 C812 1.334 . S
C813 C814 1.287 . S
C814 C813 1.287 . S
C814 C815 1.524 1_565 S
C814 H833 0.913 . S
C815 H791 0.950 . S
C815 C814 1.524 1_545 S
C815 C816 1.415 . S
C816 H792 0.950 . S
C816 C811 1.363 1_545 S
C816 C815 1.415 . S
C817 H793 0.951 . S
C817 C818 1.366 . S
C817 C819 1.388 . S
C818 C817 1.366 . S
C818 C822 1.385 . S
C819 H794 0.951 . S
C819 C817 1.388 . S
C819 C820 1.366 . S
C820 C819 1.366 . S
C820 C821 1.414 . S
C820 C823 1.499 . S
C821 H795 0.950 . S
C821 C820 1.414 . S
C821 C822 1.374 . S
C822 H796 0.950 . S
C822 C818 1.385 . S
C822 C821 1.374 . S
C823 C820 1.499 . S
C823 C824 1.373 . S
C823 C825 1.389 . S
C824 H797 0.950 . S
C824 C810 1.377 1_545 S
C824 C823 1.373 . S
C825 C809 1.377 1_545 S
C825 C823 1.389 . S
C825 C826 1.524 . S
C826 C825 1.524 . S
C826 C827 1.397 . S
C826 C831 1.363 1_545 S
C827 H798 0.950 . S
C827 C826 1.397 . S
C827 C828 1.334 . S
C828 H799 0.950 . S
C828 C827 1.334 . S
C828 C829 1.300 . S
C829 C828 1.300 . S
C829 C830 1.531 1_545 S
C829 H832 0.979 1_556 S
C830 H800 0.948 1_556 S
C830 C829 1.531 1_565 S
C830 C831 1.415 . S
C831 H801 0.950 . S
C831 C826 1.363 1_565 S
C831 C830 1.415 . S
H832 C829 0.979 1_554 S
H833 C814 0.913 . S
H834 C852 0.951 . S
H835 C854 0.951 . S
H836 C856 0.950 . S
H837 C857 0.950 . S
H838 C859 0.950 . S
H839 C862 0.950 . S
H840 C863 0.950 1_545 S
H841 C865 0.950 . S
H842 C866 0.950 . S
H843 C867 0.951 . S
H844 C869 0.951 . S
H845 C871 0.950 . S
H846 C872 0.950 . S
H847 C874 0.950 . S
H848 C877 0.942 1_565 S
H849 C878 0.950 1_565 S
H850 C880 0.950 . S
H851 C881 0.950 . S
C852 H834 0.951 . S
C852 C853 1.366 . S
C852 C854 1.388 . S
C853 C852 1.366 . S
C853 C857 1.385 . S
C854 H835 0.951 . S
C854 C852 1.388 . S
C854 C855 1.366 . S
C855 C854 1.366 . S
C855 C856 1.414 . S
C855 C858 1.499 . S
C856 H836 0.950 . S
C856 C855 1.414 . S
C856 C857 1.374 . S
C857 H837 0.950 . S
C857 C853 1.385 . S
C857 C856 1.374 . S
C858 C855 1.499 . S
C858 C859 1.373 . S
C858 C860 1.389 1_545 S
C859 H838 0.950 . S
C859 C858 1.373 . S
C859 C875 1.377 . S
C860 C858 1.389 1_565 S
C860 C861 1.524 . S
C860 C874 1.377 . S
C861 C860 1.524 . S
C861 C862 1.397 1_565 S
C861 C866 1.363 . S
C862 H839 0.950 . S
C862 C861 1.397 1_545 S
C862 C863 1.334 1_545 S
C863 H840 0.950 1_565 S
C863 C862 1.334 1_565 S
C863 C864 1.287 . S
C864 C863 1.287 . S
C864 C865 1.524 . S
C864 H883 0.913 . S
C865 H841 0.950 . S
C865 C864 1.524 . S
C865 C866 1.415 . S
C866 H842 0.950 . S
C866 C861 1.363 . S
C866 C865 1.415 . S
C867 H843 0.951 . S
C867 C868 1.366 . S
C867 C869 1.388 . S
C868 C867 1.366 . S
C868 C872 1.385 . S
C869 H844 0.951 . S
C869 C867 1.388 . S
C869 C870 1.366 . S
C870 C869 1.366 . S
C870 C871 1.414 . S
C870 C873 1.499 . S
C871 H845 0.950 . S
C871 C870 1.414 . S
C871 C872 1.374 . S
C872 H846 0.950 . S
C872 C868 1.385 . S
C872 C871 1.374 . S
C873 C870 1.499 . S
C873 C874 1.373 . S
C873 C875 1.389 1_565 S
C874 H847 0.950 . S
C874 C860 1.377 . S
C874 C873 1.373 . S
C875 C859 1.377 . S
C875 C873 1.389 1_545 S
C875 C876 1.524 . S
C876 C875 1.524 . S
C876 C877 1.402 . S
C876 C881 1.363 . S
C877 H848 0.942 1_545 S
C877 C876 1.402 . S
C877 C878 1.336 . S
C878 H849 0.950 1_545 S
C878 C877 1.336 . S
C878 C879 1.287 . S
C879 C878 1.287 . S
C879 C880 1.524 . S
C879 H882 0.999 . S
C880 H850 0.950 . S
C880 C879 1.524 . S
C880 C881 1.415 . S
C881 H851 0.950 . S
C881 C876 1.363 . S
C881 C880 1.415 . S
H882 C879 0.999 . S
H883 C864 0.913 . S
H884 C902 0.951 . S
H885 C904 0.951 . S
H886 C906 0.950 . S
H887 C907 0.950 1_554 S
H888 C909 0.950 . S
H889 C912 0.950 . S
H890 C913 0.950 . S
H891 C915 0.950 . S
H892 C916 0.950 . S
H893 C917 0.951 . S
H894 C919 0.951 . S
H895 C921 0.950 . S
H896 C922 0.950 . S
H897 C924 0.950 . S
H898 C927 0.950 . S
H899 C928 0.950 . S
H900 C930 0.950 . S
H901 C931 0.950 . S
C902 H884 0.951 . S
C902 C903 1.366 . S
C902 C904 1.388 . S
C903 C902 1.366 . S
C903 C907 1.385 . S
C904 H885 0.951 . S
C904 C902 1.388 . S
C904 C905 1.366 . S
C905 C904 1.366 . S
C905 C906 1.414 . S
C905 C908 1.499 . S
C906 H886 0.950 . S
C906 C905 1.414 . S
C906 C907 1.374 . S
C907 H887 0.950 1_556 S
C907 C903 1.385 . S
C907 C906 1.374 . S
C908 C905 1.499 . S
C908 C909 1.373 . S
C908 C910 1.389 . S
C909 H888 0.950 . S
C909 C908 1.373 . S
C909 C925 1.377 1_565 S
C910 C908 1.389 . S
C910 C911 1.524 . S
C910 C924 1.377 1_565 S
C911 C910 1.524 . S
C911 C912 1.397 . S
C911 C916 1.363 . S
C912 H889 0.950 . S
C912 C911 1.397 . S
C912 C913 1.334 . S
C913 H890 0.950 . S
C913 C912 1.334 . S
C913 C914 1.287 . S
C914 C913 1.287 . S
C914 C915 1.524 . S
C914 H933 0.913 . S
C915 H891 0.950 . S
C915 C914 1.524 . S
C915 C916 1.415 . S
C916 H892 0.950 . S
C916 C911 1.363 . S
C916 C915 1.415 . S
C917 H893 0.951 . S
C917 C918 1.366 . S
C917 C919 1.388 . S
C918 C917 1.366 . S
C918 C922 1.385 . S
C919 H894 0.951 . S
C919 C917 1.388 . S
C919 C920 1.366 . S
C920 C919 1.366 . S
C920 C921 1.414 . S
C920 C923 1.499 . S
C921 H895 0.950 . S
C921 C920 1.414 . S
C921 C922 1.374 . S
C922 H896 0.950 . S
C922 C918 1.385 . S
C922 C921 1.374 . S
C923 C920 1.499 . S
C923 C924 1.373 . S
C923 C925 1.389 . S
C924 H897 0.950 . S
C924 C910 1.377 1_545 S
C924 C923 1.373 . S
C925 C909 1.377 1_545 S
C925 C923 1.389 . S
C925 C926 1.524 . S
C926 C925 1.524 . S
C926 C927 1.397 . S
C926 C931 1.363 . S
C927 H898 0.950 . S
C927 C926 1.397 . S
C927 C928 1.334 . S
C928 H899 0.950 . S
C928 C927 1.334 . S
C928 C929 1.287 1_556 S
C929 C928 1.287 1_554 S
C929 C930 1.524 . S
C929 H932 0.999 . S
C930 H900 0.950 . S
C930 C929 1.524 . S
C930 C931 1.415 1_554 S
C931 H901 0.950 . S
C931 C926 1.363 . S
C931 C930 1.415 1_556 S
H932 C929 0.999 . S
H933 C914 0.913 . S
H934 C952 0.951 . S
H935 C954 0.951 . S
H936 C956 0.950 . S
H937 C957 0.950 . S
H938 C959 0.950 . S
H939 C962 0.950 . S
H940 C963 0.950 . S
H941 C965 0.950 . S
H942 C966 0.950 . S
H943 C967 0.951 . S
H944 C969 0.951 . S
H945 C971 0.950 . S
H946 C972 0.950 . S
H947 C974 0.950 . S
H948 C977 0.950 . S
H949 C978 0.950 . S
H950 C980 0.950 . S
H951 C981 0.950 . S
C952 H934 0.951 . S
C952 C953 1.366 . S
C952 C954 1.388 . S
C953 C952 1.366 . S
C953 C957 1.385 . S
C954 H935 0.951 . S
C954 C952 1.388 . S
C954 C955 1.366 . S
C955 C954 1.366 . S
C955 C956 1.414 . S
C955 C958 1.499 . S
C956 H936 0.950 . S
C956 C955 1.414 . S
C956 C957 1.374 . S
C957 H937 0.950 . S
C957 C953 1.385 . S
C957 C956 1.374 . S
C958 C955 1.499 . S
C958 C959 1.373 1_545 S
C958 C960 1.389 . S
C959 H938 0.950 . S
C959 C958 1.373 1_565 S
C959 C975 1.377 . S
C960 C958 1.389 . S
C960 C961 1.524 . S
C960 C974 1.377 . S
C961 C960 1.524 . S
C961 C962 1.397 . S
C961 C966 1.363 . S
C962 H939 0.950 . S
C962 C961 1.397 . S
C962 C963 1.334 . S
C963 H940 0.950 . S
C963 C962 1.334 . S
C963 C964 1.287 . S
C964 C963 1.287 . S
C964 C965 1.524 . S
C964 H983 0.913 . S
C965 H941 0.950 . S
C965 C964 1.524 . S
C965 C966 1.415 . S
C966 H942 0.950 . S
C966 C961 1.363 . S
C966 C965 1.415 . S
C967 H943 0.951 . S
C967 C968 1.366 . S
C967 C969 1.388 . S
C968 C967 1.366 . S
C968 C972 1.385 . S
C969 H944 0.951 . S
C969 C967 1.388 . S
C969 C970 1.366 . S
C970 C969 1.366 . S
C970 C971 1.414 . S
C970 C973 1.499 . S
C971 H945 0.950 . S
C971 C970 1.414 . S
C971 C972 1.374 . S
C972 H946 0.950 . S
C972 C968 1.385 . S
C972 C971 1.374 . S
C973 C970 1.499 . S
C973 C974 1.373 1_565 S
C973 C975 1.389 . S
C974 H947 0.950 . S
C974 C960 1.377 . S
C974 C973 1.373 1_545 S
C975 C959 1.377 . S
C975 C973 1.389 . S
C975 C976 1.524 . S
C976 C975 1.524 . S
C976 C977 1.397 . S
C976 C981 1.363 . S
C977 H948 0.950 . S
C977 C976 1.397 . S
C977 C978 1.334 . S
C978 H949 0.950 . S
C978 C977 1.334 . S
C978 C979 1.287 . S
C979 C978 1.287 . S
C979 C980 1.524 . S
C979 H982 0.999 . S
C980 H950 0.950 . S
C980 C979 1.524 . S
C980 C981 1.415 . S
C981 H951 0.950 . S
C981 C976 1.363 . S
C981 C980 1.415 . S
H982 C979 0.999 . S
H983 C964 0.913 . S
H984 C1002 0.951 . S
H985 C1004 0.951 . S
H986 C1006 0.950 . S
H987 C1007 0.950 . S
H988 C1009 0.950 . S
H989 C1012 0.950 . S
H990 C1013 0.950 . S
H991 C1015 0.950 . S
H992 C1016 0.950 . S
H993 C1017 0.951 . S
H994 C1019 0.951 . S
H995 C1021 0.950 . S
H996 C1022 0.950 . S
H997 C1024 0.950 . S
H998 C1027 0.950 . S
H999 C1028 0.950 . S
H1000 C1030 0.950 . S
H1001 C1031 0.950 . S
C1002 H984 0.951 . S
C1002 C1003 1.366 . S
C1002 C1004 1.388 . S
C1003 C1002 1.366 . S
C1003 C1007 1.385 . S
C1004 H985 0.951 . S
C1004 C1002 1.388 . S
C1004 C1005 1.366 . S
C1005 C1004 1.366 . S
C1005 C1006 1.414 . S
C1005 C1008 1.499 . S
C1006 H986 0.950 . S
C1006 C1005 1.414 . S
C1006 C1007 1.374 . S
C1007 H987 0.950 . S
C1007 C1003 1.385 . S
C1007 C1006 1.374 . S
C1008 C1005 1.499 . S
C1008 C1009 1.373 . S
C1008 C1010 1.389 . S
C1009 H988 0.950 . S
C1009 C1008 1.373 . S
C1009 C1025 1.377 . S
C1010 C1008 1.389 . S
C1010 C1011 1.524 . S
C1010 C1024 1.377 . S
C1011 C1010 1.524 . S
C1011 C1012 1.397 . S
C1011 C1016 1.363 . S
C1012 H989 0.950 . S
C1012 C1011 1.397 . S
C1012 C1013 1.334 . S
C1013 H990 0.950 . S
C1013 C1012 1.334 . S
C1013 C1014 1.287 . S
C1014 C1013 1.287 . S
C1014 C1015 1.524 . S
C1014 H1033 0.913 . S
C1015 H991 0.950 . S
C1015 C1014 1.524 . S
C1015 C1016 1.415 . S
C1016 H992 0.950 . S
C1016 C1011 1.363 . S
C1016 C1015 1.415 . S
C1017 H993 0.951 . S
C1017 C1018 1.366 . S
C1017 C1019 1.388 . S
C1018 C1017 1.366 . S
C1018 C1022 1.385 . S
C1019 H994 0.951 . S
C1019 C1017 1.388 . S
C1019 C1020 1.366 . S
C1020 C1019 1.366 . S
C1020 C1021 1.414 . S
C1020 C1023 1.499 . S
C1021 H995 0.950 . S
C1021 C1020 1.414 . S
C1021 C1022 1.374 . S
C1022 H996 0.950 . S
C1022 C1018 1.385 . S
C1022 C1021 1.374 . S
C1023 C1020 1.499 . S
C1023 C1024 1.373 . S
C1023 C1025 1.389 . S
C1024 H997 0.950 . S
C1024 C1010 1.377 . S
C1024 C1023 1.373 . S
C1025 C1009 1.377 . S
C1025 C1023 1.389 . S
C1025 C1026 1.524 . S
C1026 C1025 1.524 . S
C1026 C1027 1.397 . S
C1026 C1031 1.363 . S
C1027 H998 0.950 . S
C1027 C1026 1.397 . S
C1027 C1028 1.334 . S
C1028 H999 0.950 . S
C1028 C1027 1.334 . S
C1028 C1029 1.287 . S
C1029 C1028 1.287 . S
C1029 C1030 1.524 . S
C1029 H1032 0.999 . S
C1030 H1000 0.950 . S
C1030 C1029 1.524 . S
C1030 C1031 1.415 . S
C1031 H1001 0.950 . S
C1031 C1026 1.363 . S
C1031 C1030 1.415 . S
H1032 C1029 0.999 . S
H1033 C1014 0.913 . S
H1034 C1052 0.951 . S
H1035 C1054 0.951 . S
H1036 C1056 0.950 . S
H1037 C1057 0.950 . S
H1038 C1059 0.950 . S
H1039 C1062 0.950 . S
H1040 C1063 0.950 . S
H1041 C1065 0.950 . S
H1042 C1066 0.950 . S
H1043 C1067 0.951 . S
H1044 C1069 0.951 . S
H1045 C1071 0.950 . S
H1046 C1072 0.950 . S
H1047 C1074 0.950 . S
H1048 C1077 0.950 . S
H1049 C1078 0.950 . S
H1050 C1080 0.950 . S
H1051 C1081 0.950 . S
C1052 H1034 0.951 . S
C1052 C1053 1.366 . S
C1052 C1054 1.388 . S
C1053 C1052 1.366 . S
C1053 C1057 1.385 . S
C1054 H1035 0.951 . S
C1054 C1052 1.388 . S
C1054 C1055 1.366 . S
C1055 C1054 1.366 . S
C1055 C1056 1.414 . S
C1055 C1058 1.499 . S
C1056 H1036 0.950 . S
C1056 C1055 1.414 . S
C1056 C1057 1.374 . S
C1057 H1037 0.950 . S
C1057 C1053 1.385 . S
C1057 C1056 1.374 . S
C1058 C1055 1.499 . S
C1058 C1059 1.373 . S
C1058 C1060 1.389 . S
C1059 H1038 0.950 . S
C1059 C1058 1.373 . S
C1059 C1075 1.377 . S
C1060 C1058 1.389 . S
C1060 C1061 1.524 . S
C1060 C1074 1.377 . S
C1061 C1060 1.524 . S
C1061 C1062 1.397 . S
C1061 C1066 1.363 . S
C1062 H1039 0.950 . S
C1062 C1061 1.397 . S
C1062 C1063 1.334 . S
C1063 H1040 0.950 . S
C1063 C1062 1.334 . S
C1063 C1064 1.287 . S
C1064 C1063 1.287 . S
C1064 C1065 1.524 . S
C1064 H1083 0.913 . S
C1065 H1041 0.950 . S
C1065 C1064 1.524 . S
C1065 C1066 1.415 . S
C1066 H1042 0.950 . S
C1066 C1061 1.363 . S
C1066 C1065 1.415 . S
C1067 H1043 0.951 . S
C1067 C1068 1.366 . S
C1067 C1069 1.388 . S
C1068 C1067 1.366 . S
C1068 C1072 1.385 . S
C1069 H1044 0.951 . S
C1069 C1067 1.388 . S
C1069 C1070 1.366 . S
C1070 C1069 1.366 . S
C1070 C1071 1.414 . S
C1070 C1073 1.499 . S
C1071 H1045 0.950 . S
C1071 C1070 1.414 . S
C1071 C1072 1.374 . S
C1072 H1046 0.950 . S
C1072 C1068 1.385 . S
C1072 C1071 1.374 . S
C1073 C1070 1.499 . S
C1073 C1074 1.373 . S
C1073 C1075 1.389 . S
C1074 H1047 0.950 . S
C1074 C1060 1.377 . S
C1074 C1073 1.373 . S
C1075 C1059 1.377 . S
C1075 C1073 1.389 . S
C1075 C1076 1.524 . S
C1076 C1075 1.524 . S
C1076 C1077 1.397 . S
C1076 C1081 1.363 . S
C1077 H1048 0.950 . S
C1077 C1076 1.397 . S
C1077 C1078 1.334 . S
C1078 H1049 0.950 . S
C1078 C1077 1.334 . S
C1078 C1079 1.287 . S
C1079 C1078 1.287 . S
C1079 C1080 1.524 . S
C1079 H1082 0.999 . S
C1080 H1050 0.950 . S
C1080 C1079 1.524 . S
C1080 C1081 1.415 . S
C1081 H1051 0.950 . S
C1081 C1076 1.363 . S
C1081 C1080 1.415 . S
H1082 C1079 0.999 . S
H1083 C1064 0.913 . S
H1084 C1102 0.951 . S
H1085 C1104 0.951 . S
H1086 C1106 0.950 . S
H1087 C1107 0.950 . S
H1088 C1109 0.950 . S
H1089 C1112 0.950 . S
H1090 C1113 0.950 . S
H1091 C1115 0.950 . S
H1092 C1116 0.950 . S
H1093 C1117 0.951 . S
H1094 C1119 0.951 . S
H1095 C1121 0.950 . S
H1096 C1122 0.950 . S
H1097 C1124 0.950 . S
H1098 C1127 0.950 . S
H1099 C1128 0.950 . S
H1100 C1130 0.950 . S
H1101 C1131 0.950 . S
C1102 H1084 0.951 . S
C1102 C1103 1.366 . S
C1102 C1104 1.388 . S
C1103 C1102 1.366 . S
C1103 C1107 1.385 . S
C1104 H1085 0.951 . S
C1104 C1102 1.388 . S
C1104 C1105 1.366 . S
C1105 C1104 1.366 . S
C1105 C1106 1.414 . S
C1105 C1108 1.499 . S
C1106 H1086 0.950 . S
C1106 C1105 1.414 . S
C1106 C1107 1.374 . S
C1107 H1087 0.950 . S
C1107 C1103 1.385 . S
C1107 C1106 1.374 . S
C1108 C1105 1.499 . S
C1108 C1109 1.373 . S
C1108 C1110 1.389 . S
C1109 H1088 0.950 . S
C1109 C1108 1.373 . S
C1109 C1125 1.377 . S
C1110 C1108 1.389 . S
C1110 C1111 1.524 . S
C1110 C1124 1.377 . S
C1111 C1110 1.524 . S
C1111 C1112 1.397 . S
C1111 C1116 1.363 . S
C1112 H1089 0.950 . S
C1112 C1111 1.397 . S
C1112 C1113 1.334 . S
C1113 H1090 0.950 . S
C1113 C1112 1.334 . S
C1113 C1114 1.287 . S
C1114 C1113 1.287 . S
C1114 C1115 1.524 . S
C1114 H1133 0.913 . S
C1115 H1091 0.950 . S
C1115 C1114 1.524 . S
C1115 C1116 1.415 . S
C1116 H1092 0.950 . S
C1116 C1111 1.363 . S
C1116 C1115 1.415 . S
C1117 H1093 0.951 . S
C1117 C1118 1.366 . S
C1117 C1119 1.388 . S
C1118 C1117 1.366 . S
C1118 C1122 1.385 . S
C1119 H1094 0.951 . S
C1119 C1117 1.388 . S
C1119 C1120 1.366 . S
C1120 C1119 1.366 . S
C1120 C1121 1.414 . S
C1120 C1123 1.499 . S
C1121 H1095 0.950 . S
C1121 C1120 1.414 . S
C1121 C1122 1.374 . S
C1122 H1096 0.950 . S
C1122 C1118 1.385 . S
C1122 C1121 1.374 . S
C1123 C1120 1.499 . S
C1123 C1124 1.373 . S
C1123 C1125 1.389 . S
C1124 H1097 0.950 . S
C1124 C1110 1.377 . S
C1124 C1123 1.373 . S
C1125 C1109 1.377 . S
C1125 C1123 1.389 . S
C1125 C1126 1.524 . S
C1126 C1125 1.524 . S
C1126 C1127 1.397 . S
C1126 C1131 1.363 . S
C1127 H1098 0.950 . S
C1127 C1126 1.397 . S
C1127 C1128 1.334 . S
C1128 H1099 0.950 . S
C1128 C1127 1.334 . S
C1128 C1129 1.287 . S
C1129 C1128 1.287 . S
C1129 C1130 1.524 . S
C1129 H1132 0.999 . S
C1130 H1100 0.950 . S
C1130 C1129 1.524 . S
C1130 C1131 1.415 . S
C1131 H1101 0.950 . S
C1131 C1126 1.363 . S
C1131 C1130 1.415 . S
H1132 C1129 0.999 . S
H1133 C1114 0.913 . S
H1134 C1152 0.951 . S
H1135 C1154 0.951 . S
H1136 C1156 0.950 . S
H1137 C1157 0.950 . S
H1138 C1159 0.950 . S
H1139 C1162 0.950 . S
H1140 C1163 0.950 . S
H1141 C1165 0.950 . S
H1142 C1166 0.950 . S
H1143 C1167 0.951 . S
H1144 C1169 0.951 . S
H1145 C1171 0.950 . S
H1146 C1172 0.950 . S
H1147 C1174 0.950 . S
H1148 C1177 0.950 . S
H1149 C1178 0.950 . S
H1150 C1180 0.950 . S
H1151 C1181 0.950 . S
C1152 H1134 0.951 . S
C1152 C1153 1.366 . S
C1152 C1154 1.388 . S
C1153 C1152 1.366 . S
C1153 C1157 1.385 . S
C1154 H1135 0.951 . S
C1154 C1152 1.388 . S
C1154 C1155 1.366 . S
C1155 C1154 1.366 . S
C1155 C1156 1.414 . S
C1155 C1158 1.499 . S
C1156 H1136 0.950 . S
C1156 C1155 1.414 . S
C1156 C1157 1.374 . S
C1157 H1137 0.950 . S
C1157 C1153 1.385 . S
C1157 C1156 1.374 . S
C1158 C1155 1.499 . S
C1158 C1159 1.373 . S
C1158 C1160 1.389 . S
C1159 H1138 0.950 . S
C1159 C1158 1.373 . S
C1159 C1175 1.377 . S
C1160 C1158 1.389 . S
C1160 C1161 1.524 . S
C1160 C1174 1.377 . S
C1161 C1160 1.524 . S
C1161 C1162 1.397 . S
C1161 C1166 1.363 . S
C1162 H1139 0.950 . S
C1162 C1161 1.397 . S
C1162 C1163 1.334 . S
C1163 H1140 0.950 . S
C1163 C1162 1.334 . S
C1163 C1164 1.287 . S
C1164 C1163 1.287 . S
C1164 C1165 1.524 . S
C1164 H1183 0.913 . S
C1165 H1141 0.950 . S
C1165 C1164 1.524 . S
C1165 C1166 1.415 . S
C1166 H1142 0.950 . S
C1166 C1161 1.363 . S
C1166 C1165 1.415 . S
C1167 H1143 0.951 . S
C1167 C1168 1.366 . S
C1167 C1169 1.388 . S
C1168 C1167 1.366 . S
C1168 C1172 1.385 . S
C1169 H1144 0.951 . S
C1169 C1167 1.388 . S
C1169 C1170 1.366 . S
C1170 C1169 1.366 . S
C1170 C1171 1.414 . S
C1170 C1173 1.499 . S
C1171 H1145 0.950 . S
C1171 C1170 1.414 . S
C1171 C1172 1.374 . S
C1172 H1146 0.950 . S
C1172 C1168 1.385 . S
C1172 C1171 1.374 . S
C1173 C1170 1.499 . S
C1173 C1174 1.373 . S
C1173 C1175 1.389 . S
C1174 H1147 0.950 . S
C1174 C1160 1.377 . S
C1174 C1173 1.373 . S
C1175 C1159 1.377 . S
C1175 C1173 1.389 . S
C1175 C1176 1.524 . S
C1176 C1175 1.524 . S
C1176 C1177 1.397 . S
C1176 C1181 1.363 . S
C1177 H1148 0.950 . S
C1177 C1176 1.397 . S
C1177 C1178 1.334 . S
C1178 H1149 0.950 . S
C1178 C1177 1.334 . S
C1178 C1179 1.287 . S
C1179 C1178 1.287 . S
C1179 C1180 1.524 . S
C1179 H1182 0.999 . S
C1180 H1150 0.950 . S
C1180 C1179 1.524 . S
C1180 C1181 1.415 . S
C1181 H1151 0.950 . S
C1181 C1176 1.363 . S
C1181 C1180 1.415 . S
H1182 C1179 0.999 . S
H1183 C1164 0.913 . S
H1184 C1202 0.951 . S
H1185 C1204 0.951 . S
H1186 C1206 0.950 . S
H1187 C1207 0.950 . S
H1188 C1209 0.950 . S
H1189 C1212 0.950 . S
H1190 C1213 0.950 . S
H1191 C1215 0.950 . S
H1192 C1216 0.950 . S
H1193 C1217 0.951 . S
H1194 C1219 0.951 . S
H1195 C1221 0.950 . S
H1196 C1222 0.950 . S
H1197 C1224 0.950 . S
H1198 C1227 0.950 . S
H1199 C1228 0.950 . S
H1200 C1230 0.950 . S
H1201 C1231 0.950 . S
C1202 H1184 0.951 . S
C1202 C1203 1.366 . S
C1202 C1204 1.388 . S
C1203 C1202 1.366 . S
C1203 C1207 1.385 . S
C1204 H1185 0.951 . S
C1204 C1202 1.388 . S
C1204 C1205 1.366 . S
C1205 C1204 1.366 . S
C1205 C1206 1.414 . S
C1205 C1208 1.499 . S
C1206 H1186 0.950 . S
C1206 C1205 1.414 . S
C1206 C1207 1.374 . S
C1207 H1187 0.950 . S
C1207 C1203 1.385 . S
C1207 C1206 1.374 . S
C1208 C1205 1.499 . S
C1208 C1209 1.373 . S
C1208 C1210 1.389 . S
C1209 H1188 0.950 . S
C1209 C1208 1.373 . S
C1209 C1225 1.377 . S
C1210 C1208 1.389 . S
C1210 C1211 1.524 . S
C1210 C1224 1.377 . S
C1211 C1210 1.524 . S
C1211 C1212 1.397 . S
C1211 C1216 1.363 . S
C1212 H1189 0.950 . S
C1212 C1211 1.397 . S
C1212 C1213 1.334 . S
C1213 H1190 0.950 . S
C1213 C1212 1.334 . S
C1213 C1214 1.287 . S
C1214 C1213 1.287 . S
C1214 C1215 1.524 . S
C1214 H1233 0.913 . S
C1215 H1191 0.950 . S
C1215 C1214 1.524 . S
C1215 C1216 1.415 . S
C1216 H1192 0.950 . S
C1216 C1211 1.363 . S
C1216 C1215 1.415 . S
C1217 H1193 0.951 . S
C1217 C1218 1.366 . S
C1217 C1219 1.388 . S
C1218 C1217 1.366 . S
C1218 C1222 1.385 . S
C1219 H1194 0.951 . S
C1219 C1217 1.388 . S
C1219 C1220 1.366 . S
C1220 C1219 1.366 . S
C1220 C1221 1.414 . S
C1220 C1223 1.499 . S
C1221 H1195 0.950 . S
C1221 C1220 1.414 . S
C1221 C1222 1.374 . S
C1222 H1196 0.950 . S
C1222 C1218 1.385 . S
C1222 C1221 1.374 . S
C1223 C1220 1.499 . S
C1223 C1224 1.373 . S
C1223 C1225 1.389 . S
C1224 H1197 0.950 . S
C1224 C1210 1.377 . S
C1224 C1223 1.373 . S
C1225 C1209 1.377 . S
C1225 C1223 1.389 . S
C1225 C1226 1.524 . S
C1226 C1225 1.524 . S
C1226 C1227 1.397 . S
C1226 C1231 1.363 . S
C1227 H1198 0.950 . S
C1227 C1226 1.397 . S
C1227 C1228 1.334 . S
C1228 H1199 0.950 . S
C1228 C1227 1.334 . S
C1228 C1229 1.287 . S
C1229 C1228 1.287 . S
C1229 C1230 1.524 . S
C1229 H1232 0.999 . S
C1230 H1200 0.950 . S
C1230 C1229 1.524 . S
C1230 C1231 1.415 . S
C1231 H1201 0.950 . S
C1231 C1226 1.363 . S
C1231 C1230 1.415 . S
H1232 C1229 0.999 . S
H1233 C1214 0.913 . S
H1234 C1252 0.951 . S
H1235 C1254 0.951 . S
H1236 C1256 0.950 . S
H1237 C1257 0.950 . S
H1238 C1259 0.950 . S
H1239 C1262 0.950 . S
H1240 C1263 0.950 . S
H1241 C1265 0.950 . S
H1242 C1266 0.950 . S
H1243 C1267 0.951 . S
H1244 C1269 0.951 . S
H1245 C1271 0.950 . S
H1246 C1272 0.950 . S
H1247 C1274 0.950 . S
H1248 C1277 0.950 . S
H1249 C1278 0.950 . S
H1250 C1280 0.950 . S
H1251 C1281 0.950 . S
C1252 H1234 0.951 . S
C1252 C1253 1.366 . S
C1252 C1254 1.388 . S
C1253 C1252 1.366 . S
C1253 C1257 1.385 . S
C1254 H1235 0.951 . S
C1254 C1252 1.388 . S
C1254 C1255 1.366 . S
C1255 C1254 1.366 . S
C1255 C1256 1.414 . S
C1255 C1258 1.499 . S
C1256 H1236 0.950 . S
C1256 C1255 1.414 . S
C1256 C1257 1.374 . S
C1257 H1237 0.950 . S
C1257 C1253 1.385 . S
C1257 C1256 1.374 . S
C1258 C1255 1.499 . S
C1258 C1259 1.373 . S
C1258 C1260 1.389 . S
C1259 H1238 0.950 . S
C1259 C1258 1.373 . S
C1259 C1275 1.377 . S
C1260 C1258 1.389 . S
C1260 C1261 1.524 . S
C1260 C1274 1.377 . S
C1261 C1260 1.524 . S
C1261 C1262 1.397 . S
C1261 C1266 1.363 . S
C1262 H1239 0.950 . S
C1262 C1261 1.397 . S
C1262 C1263 1.334 . S
C1263 H1240 0.950 . S
C1263 C1262 1.334 . S
C1263 C1264 1.287 . S
C1264 C1263 1.287 . S
C1264 C1265 1.524 . S
C1264 H1283 0.913 . S
C1265 H1241 0.950 . S
C1265 C1264 1.524 . S
C1265 C1266 1.415 . S
C1266 H1242 0.950 . S
C1266 C1261 1.363 . S
C1266 C1265 1.415 . S
C1267 H1243 0.951 . S
C1267 C1268 1.366 . S
C1267 C1269 1.388 . S
C1268 C1267 1.366 . S
C1268 C1272 1.385 . S
C1269 H1244 0.951 . S
C1269 C1267 1.388 . S
C1269 C1270 1.366 . S
C1270 C1269 1.366 . S
C1270 C1271 1.414 . S
C1270 C1273 1.499 . S
C1271 H1245 0.950 . S
C1271 C1270 1.414 . S
C1271 C1272 1.374 . S
C1272 H1246 0.950 . S
C1272 C1268 1.385 . S
C1272 C1271 1.374 . S
C1273 C1270 1.499 . S
C1273 C1274 1.373 . S
C1273 C1275 1.389 . S
C1274 H1247 0.950 . S
C1274 C1260 1.377 . S
C1274 C1273 1.373 . S
C1275 C1259 1.377 . S
C1275 C1273 1.389 . S
C1275 C1276 1.524 . S
C1276 C1275 1.524 . S
C1276 C1277 1.397 . S
C1276 C1281 1.363 . S
C1277 H1248 0.950 . S
C1277 C1276 1.397 . S
C1277 C1278 1.334 . S
C1278 H1249 0.950 . S
C1278 C1277 1.334 . S
C1278 C1279 1.287 . S
C1279 C1278 1.287 . S
C1279 C1280 1.524 . S
C1279 H1282 0.999 . S
C1280 H1250 0.950 . S
C1280 C1279 1.524 . S
C1280 C1281 1.415 . S
C1281 H1251 0.950 . S
C1281 C1276 1.363 . S
C1281 C1280 1.415 . S
H1282 C1279 0.999 . S
H1283 C1264 0.913 . S
H1284 C1302 0.951 . S
H1285 C1304 0.951 . S
H1286 C1306 0.950 . S
H1287 C1307 0.950 . S
H1288 C1309 0.950 . S
H1289 C1312 0.950 . S
H1290 C1313 0.950 . S
H1291 C1315 0.950 . S
H1292 C1316 0.950 . S
H1293 C1317 0.951 . S
H1294 C1319 0.951 . S
H1295 C1321 0.950 . S
H1296 C1322 0.950 . S
H1297 C1324 0.950 . S
H1298 C1327 0.950 . S
H1299 C1328 0.950 . S
H1300 C1330 0.950 . S
H1301 C1331 0.950 . S
C1302 H1284 0.951 . S
C1302 C1303 1.366 . S
C1302 C1304 1.388 . S
C1303 C1302 1.366 . S
C1303 C1307 1.385 . S
C1304 H1285 0.951 . S
C1304 C1302 1.388 . S
C1304 C1305 1.366 . S
C1305 C1304 1.366 . S
C1305 C1306 1.414 . S
C1305 C1308 1.499 . S
C1306 H1286 0.950 . S
C1306 C1305 1.414 . S
C1306 C1307 1.374 . S
C1307 H1287 0.950 . S
C1307 C1303 1.385 . S
C1307 C1306 1.374 . S
C1308 C1305 1.499 . S
C1308 C1309 1.373 . S
C1308 C1310 1.389 . S
C1309 H1288 0.950 . S
C1309 C1308 1.373 . S
C1309 C1325 1.377 . S
C1310 C1308 1.389 . S
C1310 C1311 1.524 . S
C1310 C1324 1.377 . S
C1311 C1310 1.524 . S
C1311 C1312 1.397 . S
C1311 C1316 1.363 . S
C1312 H1289 0.950 . S
C1312 C1311 1.397 . S
C1312 C1313 1.334 . S
C1313 H1290 0.950 . S
C1313 C1312 1.334 . S
C1313 C1314 1.287 . S
C1314 C1313 1.287 . S
C1314 C1315 1.524 . S
C1314 H1333 0.913 . S
C1315 H1291 0.950 . S
C1315 C1314 1.524 . S
C1315 C1316 1.415 . S
C1316 H1292 0.950 . S
C1316 C1311 1.363 . S
C1316 C1315 1.415 . S
C1317 H1293 0.951 . S
C1317 C1318 1.366 . S
C1317 C1319 1.388 . S
C1318 C1317 1.366 . S
C1318 C1322 1.385 . S
C1319 H1294 0.951 . S
C1319 C1317 1.388 . S
C1319 C1320 1.366 . S
C1320 C1319 1.366 . S
C1320 C1321 1.414 . S
C1320 C1323 1.499 . S
C1321 H1295 0.950 . S
C1321 C1320 1.414 . S
C1321 C1322 1.374 . S
C1322 H1296 0.950 . S
C1322 C1318 1.385 . S
C1322 C1321 1.374 . S
C1323 C1320 1.499 . S
C1323 C1324 1.373 . S
C1323 C1325 1.389 . S
C1324 H1297 0.950 . S
C1324 C1310 1.377 . S
C1324 C1323 1.373 . S
C1325 C1309 1.377 . S
C1325 C1323 1.389 . S
C1325 C1326 1.524 . S
C1326 C1325 1.524 . S
C1326 C1327 1.397 . S
C1326 C1331 1.363 . S
C1327 H1298 0.950 . S
C1327 C1326 1.397 . S
C1327 C1328 1.334 . S
C1328 H1299 0.950 . S
C1328 C1327 1.334 . S
C1328 C1329 1.287 . S
C1329 C1328 1.287 . S
C1329 C1330 1.524 . S
C1329 H1332 0.999 . S
C1330 H1300 0.950 . S
C1330 C1329 1.524 . S
C1330 C1331 1.415 . S
C1331 H1301 0.950 . S
C1331 C1326 1.363 . S
C1331 C1330 1.415 . S
H1332 C1329 0.999 . S
H1333 C1314 0.913 . S
H1334 C1352 0.951 . S
H1335 C1354 0.951 . S
H1336 C1356 0.950 . S
H1337 C1357 0.950 . S
H1338 C1359 0.950 . S
H1339 C1362 0.950 . S
H1340 C1363 0.950 . S
H1341 C1365 0.950 . S
H1342 C1366 0.950 . S
H1343 C1367 0.951 . S
H1344 C1369 0.951 . S
H1345 C1371 0.950 . S
H1346 C1372 0.950 . S
H1347 C1374 0.950 . S
H1348 C1377 0.950 . S
H1349 C1378 0.950 . S
H1350 C1380 0.950 . S
H1351 C1381 0.950 . S
C1352 H1334 0.951 . S
C1352 C1353 1.366 . S
C1352 C1354 1.388 . S
C1353 C1352 1.366 . S
C1353 C1357 1.385 . S
C1354 H1335 0.951 . S
C1354 C1352 1.388 . S
C1354 C1355 1.366 . S
C1355 C1354 1.366 . S
C1355 C1356 1.414 . S
C1355 C1358 1.499 . S
C1356 H1336 0.950 . S
C1356 C1355 1.414 . S
C1356 C1357 1.374 . S
C1357 H1337 0.950 . S
C1357 C1353 1.385 . S
C1357 C1356 1.374 . S
C1358 C1355 1.499 . S
C1358 C1359 1.373 . S
C1358 C1360 1.389 . S
C1359 H1338 0.950 . S
C1359 C1358 1.373 . S
C1359 C1375 1.377 . S
C1360 C1358 1.389 . S
C1360 C1361 1.524 . S
C1360 C1374 1.377 . S
C1361 C1360 1.524 . S
C1361 C1362 1.397 . S
C1361 C1366 1.363 . S
C1362 H1339 0.950 . S
C1362 C1361 1.397 . S
C1362 C1363 1.334 . S
C1363 H1340 0.950 . S
C1363 C1362 1.334 . S
C1363 C1364 1.287 . S
C1364 C1363 1.287 . S
C1364 C1365 1.524 . S
C1364 H1383 0.913 . S
C1365 H1341 0.950 . S
C1365 C1364 1.524 . S
C1365 C1366 1.415 . S
C1366 H1342 0.950 . S
C1366 C1361 1.363 . S
C1366 C1365 1.415 . S
C1367 H1343 0.951 . S
C1367 C1368 1.366 . S
C1367 C1369 1.388 . S
C1368 C1367 1.366 . S
C1368 C1372 1.385 . S
C1369 H1344 0.951 . S
C1369 C1367 1.388 . S
C1369 C1370 1.366 . S
C1370 C1369 1.366 . S
C1370 C1371 1.414 . S
C1370 C1373 1.499 . S
C1371 H1345 0.950 . S
C1371 C1370 1.414 . S
C1371 C1372 1.374 . S
C1372 H1346 0.950 . S
C1372 C1368 1.385 . S
C1372 C1371 1.374 . S
C1373 C1370 1.499 . S
C1373 C1374 1.373 . S
C1373 C1375 1.389 . S
C1374 H1347 0.950 . S
C1374 C1360 1.377 . S
C1374 C1373 1.373 . S
C1375 C1359 1.377 . S
C1375 C1373 1.389 . S
C1375 C1376 1.524 . S
C1376 C1375 1.524 . S
C1376 C1377 1.397 . S
C1376 C1381 1.363 . S
C1377 H1348 0.950 . S
C1377 C1376 1.397 . S
C1377 C1378 1.334 . S
C1378 H1349 0.950 . S
C1378 C1377 1.334 . S
C1378 C1379 1.287 . S
C1379 C1378 1.287 . S
C1379 C1380 1.524 . S
C1379 H1382 0.999 . S
C1380 H1350 0.950 . S
C1380 C1379 1.524 . S
C1380 C1381 1.415 . S
C1381 H1351 0.950 . S
C1381 C1376 1.363 . S
C1381 C1380 1.415 . S
H1382 C1379 0.999 . S
H1383 C1364 0.913 . S
C203 C4 1.545 . S
C218 C122 1.529 . S
C268 C100 1.529 . S
C253 C16 1.546 . S
C318 C126 1.529 . S
C303 C28 1.538 . S
C368 C104 1.529 . S
C353 C40 1.538 . S
C418 C166 1.529 . S
C403 C52 1.546 . S
C468 C144 1.529 . S
C453 C64 1.546 . S
C503 C76 1.538 . S
C518 C170 1.529 . S
C568 C148 1.530 . S
C553 C88 1.538 . S
C603 C9 1.490 . S
C618 C171 1.508 . S
C668 C149 1.507 . S
C653 C21 1.491 . S
C703 C33 1.497 . S
C718 C168 1.507 . S
C753 C45 1.497 . S
C768 C146 1.507 . S
C818 C127 1.507 . S
C803 C57 1.491 . S
C853 C69 1.490 . S
C868 C105 1.507 . S
C918 C124 1.508 . S
C903 C81 1.496 . S
C968 C102 1.507 . S
C953 C93 1.497 . S
C1018 C145 1.471 . S
C1003 C6 1.472 . S
C1068 C167 1.471 . S
C1053 C18 1.472 . S
C1103 C30 1.483 . S
C1118 C147 1.470 . S
C1168 C169 1.471 . S
C1153 C42 1.483 . S
C1218 C101 1.471 . S
C1203 C54 1.473 . S
C1253 C66 1.472 . S
C1268 C123 1.471 . S
C1303 C78 1.483 . S
C1318 C103 1.471 . S
C1353 C90 1.483 . S
C1368 C125 1.471 . S
