# Generated by pormake.
# Topology anh, (6,3)-cn, num edge types: 1
# Building blocks:
#     Node 0, Type 0, BuildingBlock: MIFKUJ_clean_sbu_0, # of connection points: 6
#     Node 1, Type 0, BuildingBlock: MIFKUJ_clean_sbu_0, # of connection points: 6
#     Node 2, Type 0, BuildingBlock: MIFKUJ_clean_sbu_0, # of connection points: 6
#     Node 3, Type 1, BuildingBlock: BELTOD_clean_linker_0, # of connection points: 3
#     Node 4, Type 1, BuildingBlock: BELTOD_clean_linker_0, # of connection points: 3
#     Node 5, Type 1, BuildingBlock: BELTOD_clean_linker_0, # of connection points: 3
#     Node 6, Type 1, BuildingBlock: BELTOD_clean_linker_0, # of connection points: 3
#     Node 7, Type 1, BuildingBlock: BELTOD_clean_linker_0, # of connection points: 3
#     Node 8, Type 1, BuildingBlock: BELTOD_clean_linker_0, # of connection points: 3
#     Edge 9, Type (0, 1), BuildingBlock: KIFKEQ_clean_linker_1, # of connection points: 2
#     Edge 10, Type (0, 1), BuildingBlock: KIFKEQ_clean_linker_1, # of connection points: 2
#     Edge 11, Type (0, 1), BuildingBlock: KIFKEQ_clean_linker_1, # of connection points: 2
#     Edge 12, Type (0, 1), BuildingBlock: KIFKEQ_clean_linker_1, # of connection points: 2
#     Edge 13, Type (0, 1), BuildingBlock: KIFKEQ_clean_linker_1, # of connection points: 2
#     Edge 14, Type (0, 1), BuildingBlock: KIFKEQ_clean_linker_1, # of connection points: 2
#     Edge 15, Type (0, 1), BuildingBlock: KIFKEQ_clean_linker_1, # of connection points: 2
#     Edge 16, Type (0, 1), BuildingBlock: KIFKEQ_clean_linker_1, # of connection points: 2
#     Edge 17, Type (0, 1), BuildingBlock: KIFKEQ_clean_linker_1, # of connection points: 2
#     Edge 18, Type (0, 1), BuildingBlock: KIFKEQ_clean_linker_1, # of connection points: 2
#     Edge 19, Type (0, 1), BuildingBlock: KIFKEQ_clean_linker_1, # of connection points: 2
#     Edge 20, Type (0, 1), BuildingBlock: KIFKEQ_clean_linker_1, # of connection points: 2
#     Edge 21, Type (0, 1), BuildingBlock: KIFKEQ_clean_linker_1, # of connection points: 2
#     Edge 22, Type (0, 1), BuildingBlock: KIFKEQ_clean_linker_1, # of connection points: 2
#     Edge 23, Type (0, 1), BuildingBlock: KIFKEQ_clean_linker_1, # of connection points: 2
#     Edge 24, Type (0, 1), BuildingBlock: KIFKEQ_clean_linker_1, # of connection points: 2
#     Edge 25, Type (0, 1), BuildingBlock: KIFKEQ_clean_linker_1, # of connection points: 2
#     Edge 26, Type (0, 1), BuildingBlock: KIFKEQ_clean_linker_1, # of connection points: 2
# Relax obj value: 0.123
# Max RMSD: 0.177
# Mean RMSD: 0.136
data_MOF--net-anh--node1-MIFKUJ_clean_sbu_0--node2-BELTOD_clean_linker_0--edge1-KIFKEQ_clean_linker_1
_symmetry_space_group_name_H-M    P1
_symmetry_Int_Tables_number       1
_symmetry_cell_setting            triclinic
loop_
_symmetry_equiv_pos_as_xyz
'x, y, z'
_cell_length_a     35.303624
_cell_length_b     35.257301
_cell_length_c     59.138844
_cell_angle_alpha  94.029475
_cell_angle_beta   90.765836
_cell_angle_gamma 119.91053
loop_
_atom_site_label
_atom_site_type_symbol
_atom_site_fract_x
_atom_site_fract_y
_atom_site_fract_z
_atom_type_partial_charge
Zn0 Zn 0.0396 0.60042 0.16376 0.0
Zn1 Zn 0.91358 0.50604 0.16297 0.0
C2 C 0.1055 0.57955 0.16559 0.0
O3 O 0.11526 0.60842 0.18317 0.0
C4 C 0.86357 0.54935 0.14973 0.0
O5 O 0.89122 0.56611 0.13374 0.0
O6 O 0.08349 0.66491 0.16382 0.0
O7 O 0.98569 0.58363 0.14479 0.0
O8 O 0.94195 0.51496 0.13303 0.0
C9 C 0.11037 0.67689 0.14814 0.0
O10 O 0.10544 0.64776 0.13153 0.0
O11 O 0.07101 0.56807 0.15326 0.0
C12 C 0.8504 0.42904 0.18059 0.0
O13 O 0.84671 0.45903 0.19329 0.0
O14 O 0.8787 0.44118 0.16564 0.0
O15 O 0.95478 0.53176 0.19127 0.0
O16 O 0.02412 0.5856 0.19569 0.0
O17 O 0.86884 0.52594 0.16343 0.0
C18 C 0.97328 0.5524 0.12936 0.0
C19 C 0.98938 0.55642 0.20384 0.0
Zn20 Zn 0.51739 0.05255 0.50271 0.0
Zn21 Zn 0.49378 0.93237 0.50774 0.0
C22 C 0.61196 0.08522 0.49294 0.0
O23 O 0.60597 0.04589 0.49541 0.0
C24 C 0.39842 0.8778 0.49293 0.0
O25 O 0.40353 0.90858 0.47995 0.0
O26 O 0.49251 0.09252 0.50136 0.0
O27 O 0.48508 0.00327 0.47806 0.0
O28 O 0.51349 0.96024 0.47865 0.0
C29 C 0.49991 0.11308 0.48365 0.0
O30 O 0.51842 0.10323 0.46687 0.0
O31 O 0.58019 0.09227 0.49515 0.0
C32 C 0.5195 0.87669 0.52736 0.0
O33 O 0.48977 0.87283 0.5416 0.0
O34 O 0.52798 0.90196 0.51161 0.0
O35 O 0.50459 0.9705 0.53653 0.0
O36 O 0.51693 0.03853 0.53532 0.0
O37 O 0.43084 0.88285 0.5051 0.0
C38 C 0.50489 0.98555 0.4683 0.0
C39 C 0.51236 0.00701 0.54642 0.0
Zn40 Zn 0.57263 0.52114 0.83397 0.0
Zn41 Zn 0.47897 0.52363 0.82054 0.0
C42 C 0.55231 0.43774 0.84762 0.0
O43 O 0.57237 0.46331 0.86622 0.0
C44 C 0.50072 0.608 0.8092 0.0
O45 O 0.4803 0.58306 0.79049 0.0
O46 O 0.63607 0.54311 0.84226 0.0
O47 O 0.57247 0.54324 0.8036 0.0
O48 O 0.50225 0.50892 0.79236 0.0
C49 C 0.65788 0.53492 0.82776 0.0
O50 O 0.63848 0.51357 0.80813 0.0
O51 O 0.54555 0.45467 0.8308 0.0
C52 C 0.38395 0.47557 0.8235 0.0
O53 O 0.39166 0.45261 0.83751 0.0
O54 O 0.41553 0.50484 0.81347 0.0
O55 O 0.47992 0.49702 0.84961 0.0
O56 O 0.54932 0.53997 0.86058 0.0
O57 O 0.50718 0.59021 0.82573 0.0
C58 C 0.54241 0.52787 0.78788 0.0
C59 C 0.50993 0.5153 0.86533 0.0
P60 P 0.55683 0.96971 0.22272 0.0
H61 H 0.51181 0.91057 0.18199 0.0
H62 H 0.43624 0.8761 0.16629 0.0
H63 H 0.40745 0.94671 0.21957 0.0
H64 H 0.48288 0.98096 0.23516 0.0
H65 H 0.63524 0.00846 0.19619 0.0
H66 H 0.68418 0.08401 0.18705 0.0
H67 H 0.60077 0.12498 0.22049 0.0
H68 H 0.55223 0.04969 0.22962 0.0
H69 H 0.49496 0.91076 0.25358 0.0
H70 H 0.61602 0.0348 0.25909 0.0
O71 O 0.57712 0.93735 0.21479 0.0
H72 H 0.48912 0.91741 0.29464 0.0
H73 H 0.60997 0.04199 0.30003 0.0
C74 C 0.50251 0.94732 0.21005 0.0
C75 C 0.48928 0.9188 0.19019 0.0
C76 C 0.44624 0.89945 0.18113 0.0
C77 C 0.41592 0.90848 0.19184 0.0
C78 C 0.42998 0.93872 0.21115 0.0
C79 C 0.47305 0.95827 0.22006 0.0
C80 C 0.5903 0.02367 0.21366 0.0
C81 C 0.62726 0.03362 0.20131 0.0
C82 C 0.6551 0.0767 0.19605 0.0
C83 C 0.6464 0.1103 0.20325 0.0
C84 C 0.60853 0.09978 0.21499 0.0
C85 C 0.58063 0.05677 0.22007 0.0
C86 C 0.5551 0.97296 0.25318 0.0
C87 C 0.52018 0.93951 0.2636 0.0
C88 C 0.51676 0.94345 0.28704 0.0
C89 C 0.54866 0.98063 0.30051 0.0
C90 C 0.5848 0.01303 0.29011 0.0
C91 C 0.5881 0.00908 0.26665 0.0
P92 P 0.66841 0.56506 0.55125 0.0
H93 H 0.67936 0.51594 0.51242 0.0
H94 H 0.63497 0.43956 0.49618 0.0
H95 H 0.53662 0.41837 0.54419 0.0
H96 H 0.58063 0.49413 0.56021 0.0
H97 H 0.71582 0.66007 0.55603 0.0
H98 H 0.6949 0.71384 0.54698 0.0
H99 H 0.57682 0.61024 0.51119 0.0
H100 H 0.59747 0.55658 0.52083 0.0
H101 H 0.7085 0.55517 0.59255 0.0
H102 H 0.60158 0.57575 0.57466 0.0
O103 O 0.72089 0.57957 0.54897 0.0
H104 H 0.68883 0.55152 0.63234 0.0
H105 H 0.5815 0.57132 0.61412 0.0
C106 C 0.63403 0.51035 0.53798 0.0
C107 C 0.64811 0.49488 0.51932 0.0
C108 C 0.62258 0.45143 0.50994 0.0
C109 C 0.58261 0.42301 0.51913 0.0
C110 C 0.56761 0.4394 0.53703 0.0
C111 C 0.59296 0.48278 0.54626 0.0
C112 C 0.65842 0.60452 0.53895 0.0
C113 C 0.68609 0.64919 0.54565 0.0
C114 C 0.67407 0.67988 0.54045 0.0
C115 C 0.634 0.66623 0.52852 0.0
C116 C 0.60759 0.62166 0.52069 0.0
C117 C 0.61959 0.59098 0.52598 0.0
C118 C 0.65687 0.56629 0.58074 0.0
C119 C 0.6812 0.55942 0.59721 0.0
C120 C 0.66996 0.55731 0.61986 0.0
C121 C 0.63363 0.56105 0.62616 0.0
C122 C 0.6095 0.56813 0.60963 0.0
C123 C 0.6212 0.57099 0.58714 0.0
P124 P 0.10044 0.6331 0.8947 0.0
H125 H 0.11038 0.61504 0.847 0.0
H126 H 0.14352 0.57559 0.82775 0.0
H127 H 0.16844 0.5402 0.8924 0.0
H128 H 0.13704 0.58071 0.91157 0.0
H129 H 0.06649 0.68986 0.88228 0.0
H130 H 0.99386 0.67386 0.86851 0.0
H131 H 0.94854 0.53489 0.86545 0.0
H132 H 0.02148 0.55109 0.87884 0.0
H133 H 0.12617 0.69129 0.93679 0.0
H134 H 0.05132 0.5522 0.91698 0.0
O135 O 0.13789 0.68573 0.89295 0.0
H136 H 0.10882 0.67738 0.97627 0.0
H137 H 0.03485 0.53783 0.95644 0.0
C138 C 0.12027 0.59997 0.88065 0.0
C139 C 0.12242 0.59823 0.85697 0.0
C140 C 0.14133 0.5758 0.846 0.0
C141 C 0.1579 0.55442 0.8586 0.0
C142 C 0.15501 0.55562 0.88227 0.0
C143 C 0.13695 0.57875 0.89324 0.0
C144 C 0.04939 0.62165 0.88136 0.0
C145 C 0.04121 0.65599 0.87818 0.0
C146 C 0.99974 0.64683 0.87033 0.0
C147 C 0.96564 0.60315 0.866 0.0
C148 C 0.97421 0.56884 0.86882 0.0
C149 C 0.01584 0.57806 0.87637 0.0
C150 C 0.09052 0.62273 0.92401 0.0
C151 C 0.10654 0.6577 0.94098 0.0
C152 C 0.09672 0.64966 0.96359 0.0
C153 C 0.0705 0.60646 0.96958 0.0
C154 C 0.05466 0.57153 0.95243 0.0
C155 C 0.0643 0.57966 0.92986 0.0
P156 P 0.03863 0.44089 0.43184 0.0
H157 H 0.10164 0.46942 0.47062 0.0
H158 H 0.15407 0.54239 0.48835 0.0
H159 H 0.09475 0.59876 0.44803 0.0
H160 H 0.04109 0.52556 0.43148 0.0
H161 H 0.00406 0.34867 0.43927 0.0
H162 H 0.93458 0.29253 0.45208 0.0
H163 H 0.8935 0.38877 0.46311 0.0
H164 H 0.96374 0.44526 0.45015 0.0
H165 H 0.09676 0.49771 0.39974 0.0
H166 H 0.95792 0.40933 0.40239 0.0
O167 O 0.07174 0.41998 0.42891 0.0
H168 H 0.08465 0.5178 0.36274 0.0
H169 H 0.94559 0.42953 0.36542 0.0
C170 C 0.06831 0.49221 0.44927 0.0
C171 C 0.09925 0.49741 0.46608 0.0
C172 C 0.12956 0.5393 0.47601 0.0
C173 C 0.12969 0.57684 0.46913 0.0
C174 C 0.09594 0.57087 0.45376 0.0
C175 C 0.06528 0.52886 0.4441 0.0
C176 C 0.98925 0.40128 0.44398 0.0
C177 C 0.98052 0.35803 0.44479 0.0
C178 C 0.94071 0.32586 0.45219 0.0
C179 C 0.90849 0.33614 0.45867 0.0
C180 C 0.91756 0.37976 0.4581 0.0
C181 C 0.95773 0.41212 0.45088 0.0
C182 C 0.0283 0.4524 0.40394 0.0
C183 C 0.06367 0.48257 0.39233 0.0
C184 C 0.05668 0.49426 0.37127 0.0
C185 C 0.01411 0.47559 0.36129 0.0
C186 C 0.97875 0.4444 0.37269 0.0
C187 C 0.98579 0.43297 0.3939 0.0
P188 P 0.60022 0.06025 0.79406 0.0
H189 H 0.60819 0.10358 0.83922 0.0
H190 H 0.58649 0.15649 0.85318 0.0
H191 H 0.51328 0.13308 0.78953 0.0
H192 H 0.53284 0.07866 0.77643 0.0
H193 H 0.65191 0.01846 0.80096 0.0
H194 H 0.6332 0.94469 0.80917 0.0
H195 H 0.49908 0.9121 0.81725 0.0
H196 H 0.51831 0.98664 0.80867 0.0
H197 H 0.62922 0.1231 0.75997 0.0
H198 H 0.54925 0.98262 0.76123 0.0
O199 O 0.65376 0.09428 0.79959 0.0
H200 H 0.61441 0.11562 0.71883 0.0
H201 H 0.53459 0.97502 0.72024 0.0
C202 C 0.57293 0.08771 0.80664 0.0
C203 C 0.5863 0.10885 0.8286 0.0
C204 C 0.57434 0.13965 0.83641 0.0
C205 C 0.5491 0.15027 0.82227 0.0
C206 C 0.53272 0.12607 0.80099 0.0
C207 C 0.54426 0.09492 0.79335 0.0
C208 C 0.58671 0.00839 0.80465 0.0
C209 C 0.61868 0.99591 0.80509 0.0
C210 C 0.6079 0.95353 0.80983 0.0
C211 C 0.56463 0.9223 0.81399 0.0
C212 C 0.53269 0.93522 0.81403 0.0
C213 C 0.54367 0.97793 0.80936 0.0
C214 C 0.59086 0.05345 0.76364 0.0
C215 C 0.60882 0.09065 0.75137 0.0
C216 C 0.60006 0.08639 0.72792 0.0
C217 C 0.57342 0.04473 0.71634 0.0
C218 C 0.55566 0.00748 0.72869 0.0
C219 C 0.56404 0.01184 0.75217 0.0
P220 P 0.41836 0.4337 0.10418 0.0
H221 H 0.46343 0.41716 0.14082 0.0
H222 H 0.54074 0.45257 0.15339 0.0
H223 H 0.57063 0.55505 0.10903 0.0
H224 H 0.49321 0.51961 0.09662 0.0
H225 H 0.32746 0.40087 0.09129 0.0
H226 H 0.27525 0.42413 0.10206 0.0
H227 H 0.37324 0.52616 0.14956 0.0
H228 H 0.42582 0.50338 0.13802 0.0
H229 H 0.43988 0.38752 0.06836 0.0
H230 H 0.41056 0.49268 0.07437 0.0
O231 O 0.39781 0.38097 0.10872 0.0
H232 H 0.45213 0.39765 0.02804 0.0
H233 H 0.42331 0.50345 0.0343 0.0
C234 C 0.47275 0.46523 0.11743 0.0
C235 C 0.48644 0.44775 0.13416 0.0
C236 C 0.53065 0.46813 0.14141 0.0
C237 C 0.56184 0.50626 0.13193 0.0
C238 C 0.54743 0.52532 0.11634 0.0
C239 C 0.50317 0.50513 0.10928 0.0
C240 C 0.38036 0.45036 0.11387 0.0
C241 C 0.33758 0.42812 0.10412 0.0
C242 C 0.30768 0.44132 0.11041 0.0
C243 C 0.31989 0.47698 0.12675 0.0
C244 C 0.36286 0.49893 0.13671 0.0
C245 C 0.39291 0.48576 0.13027 0.0
C246 C 0.42324 0.43857 0.07417 0.0
C247 C 0.4355 0.41237 0.06091 0.0
C248 C 0.44289 0.41849 0.03795 0.0
C249 C 0.4385 0.45124 0.02795 0.0
C250 C 0.42613 0.47738 0.04136 0.0
C251 C 0.4188 0.47124 0.0643 0.0
H252 H 0.18571 0.60687 0.18578 0.0
H253 H 0.09402 0.51523 0.13259 0.0
H254 H 0.23677 0.58156 0.17647 0.0
H255 H 0.14563 0.48991 0.12321 0.0
H256 H 0.23177 0.42574 0.13202 0.0
H257 H 0.17927 0.44975 0.14079 0.0
H258 H 0.28323 0.58501 0.14457 0.0
H259 H 0.33568 0.56123 0.13532 0.0
C260 C 0.17637 0.58123 0.1721 0.0
C261 C 0.13573 0.56304 0.15992 0.0
C262 C 0.20583 0.56695 0.16669 0.0
C263 C 0.19532 0.5339 0.14907 0.0
C264 C 0.15449 0.51525 0.137 0.0
C265 C 0.12504 0.52985 0.1423 0.0
C266 C 0.24344 0.46064 0.13448 0.0
C267 C 0.28806 0.49154 0.13294 0.0
C268 C 0.2133 0.47434 0.13952 0.0
C269 C 0.22711 0.51923 0.14334 0.0
C270 C 0.27169 0.55014 0.14198 0.0
C271 C 0.30179 0.53648 0.13677 0.0
H272 H 0.6355 0.1711 0.49005 0.0
H273 H 0.68727 0.08283 0.48501 0.0
H274 H 0.70687 0.23202 0.48289 0.0
H275 H 0.7587 0.14382 0.47713 0.0
H276 H 0.89124 0.27041 0.48601 0.0
H277 H 0.82003 0.2101 0.49456 0.0
H278 H 0.75634 0.26105 0.45349 0.0
H279 H 0.82754 0.32164 0.44529 0.0
C280 C 0.66207 0.16458 0.48727 0.0
C281 C 0.65559 0.12197 0.48813 0.0
C282 C 0.70304 0.19959 0.48302 0.0
C283 C 0.73869 0.19299 0.47937 0.0
C284 C 0.7322 0.15031 0.48018 0.0
C285 C 0.69114 0.11523 0.48454 0.0
C286 C 0.86198 0.2687 0.47883 0.0
C287 C 0.86507 0.30087 0.46499 0.0
C288 C 0.82113 0.23399 0.48364 0.0
C289 C 0.78229 0.23045 0.47464 0.0
C290 C 0.78545 0.26299 0.46101 0.0
C291 C 0.82631 0.29781 0.45631 0.0
H292 H 0.49183 0.65364 0.77627 0.0
H293 H 0.53495 0.66845 0.84668 0.0
H294 H 0.50584 0.7286 0.77942 0.0
H295 H 0.54846 0.74393 0.84995 0.0
H296 H 0.61095 0.89224 0.83727 0.0
H297 H 0.59611 0.81679 0.83718 0.0
H298 H 0.47615 0.77147 0.79674 0.0
H299 H 0.4918 0.84691 0.79608 0.0
C300 C 0.50434 0.67289 0.79248 0.0
C301 C 0.51216 0.65485 0.81124 0.0
C302 C 0.51201 0.7159 0.79433 0.0
C303 C 0.52773 0.74226 0.81502 0.0
C304 C 0.53648 0.72462 0.83373 0.0
C305 C 0.52871 0.68135 0.83187 0.0
C306 C 0.58135 0.86616 0.82838 0.0
C307 C 0.55278 0.87584 0.81651 0.0
C308 C 0.57264 0.8228 0.82852 0.0
C309 C 0.53518 0.78799 0.81673 0.0
C310 C 0.50573 0.79751 0.80566 0.0
C311 C 0.5144 0.84081 0.80554 0.0
H312 H 0.84185 0.5986 0.12433 0.0
H313 H 0.79366 0.50673 0.17577 0.0
H314 H 0.77211 0.59727 0.12219 0.0
H315 H 0.72376 0.50401 0.17303 0.0
H316 H 0.60605 0.51972 0.17288 0.0
H317 H 0.6823 0.53903 0.17942 0.0
H318 H 0.70004 0.54761 0.10738 0.0
H319 H 0.62456 0.5297 0.10109 0.0
C320 C 0.81652 0.57836 0.13529 0.0
C321 C 0.82327 0.55255 0.15009 0.0
C322 C 0.77639 0.57735 0.13397 0.0
C323 C 0.74198 0.55022 0.14728 0.0
C324 C 0.74951 0.52579 0.16273 0.0
C325 C 0.78967 0.52711 0.16419 0.0
C326 C 0.62654 0.52635 0.15854 0.0
C327 C 0.60931 0.52313 0.13649 0.0
C328 C 0.67018 0.53722 0.16224 0.0
C329 C 0.69743 0.54455 0.14392 0.0
C330 C 0.68047 0.54294 0.12198 0.0
C331 C 0.63704 0.53255 0.11833 0.0
H332 H 0.37906 0.8071 0.51659 0.0
H333 H 0.32233 0.85301 0.46781 0.0
H334 H 0.31233 0.73583 0.51348 0.0
H335 H 0.25543 0.78116 0.4646 0.0
H336 H 0.12869 0.65432 0.47822 0.0
H337 H 0.1916 0.72844 0.48581 0.0
H338 H 0.27837 0.67522 0.48312 0.0
H339 H 0.21626 0.6018 0.47501 0.0
C340 C 0.35226 0.80215 0.5053 0.0
C341 C 0.35627 0.83575 0.49228 0.0
C342 C 0.31404 0.76116 0.50347 0.0
C343 C 0.27872 0.7527 0.48866 0.0
C344 C 0.28197 0.78676 0.47628 0.0
C345 C 0.3204 0.82784 0.47803 0.0
C346 C 0.16117 0.6584 0.47924 0.0
C347 C 0.16715 0.62178 0.47607 0.0
C348 C 0.1972 0.7009 0.48361 0.0
C349 C 0.23996 0.7077 0.48512 0.0
C350 C 0.24583 0.67109 0.48246 0.0
C351 C 0.21001 0.6288 0.47792 0.0
H352 H 0.56833 0.39494 0.87979 0.0
H353 H 0.51663 0.37632 0.81073 0.0
H354 H 0.56231 0.32294 0.87536 0.0
H355 H 0.51076 0.30399 0.80632 0.0
H356 H 0.47825 0.16113 0.81285 0.0
H357 H 0.47363 0.22784 0.81986 0.0
H358 H 0.60291 0.29417 0.85304 0.0
H359 H 0.60831 0.22856 0.84553 0.0
C360 C 0.55521 0.37533 0.86371 0.0
C361 C 0.54334 0.39169 0.84554 0.0
C362 C 0.55196 0.33407 0.86116 0.0
C363 C 0.5365 0.3079 0.84042 0.0
C364 C 0.5226 0.32325 0.82256 0.0
C365 C 0.52611 0.36478 0.82506 0.0
C366 C 0.50576 0.18991 0.82162 0.0
C367 C 0.54366 0.18909 0.82862 0.0
C368 C 0.50302 0.22813 0.82566 0.0
C369 C 0.53786 0.2663 0.83704 0.0
C370 C 0.57516 0.26514 0.84456 0.0
C371 C 0.57812 0.22723 0.84033 0.0
H372 H 0.57744 0.87261 0.49852 0.0
H373 H 0.5071 0.81765 0.55801 0.0
H374 H 0.60582 0.82218 0.49797 0.0
H375 H 0.53626 0.7679 0.55772 0.0
H376 H 0.55145 0.65137 0.5345 0.0
H377 H 0.52572 0.70369 0.53404 0.0
H378 H 0.65487 0.80507 0.51891 0.0
H379 H 0.6803 0.75205 0.51843 0.0
C380 C 0.56843 0.85012 0.51164 0.0
C381 C 0.53977 0.8489 0.52823 0.0
C382 C 0.58484 0.82135 0.51136 0.0
C383 C 0.57295 0.7908 0.52767 0.0
C384 C 0.54534 0.7905 0.54465 0.0
C385 C 0.52889 0.81923 0.54493 0.0
C386 C 0.57418 0.68456 0.5306 0.0
C387 C 0.6179 0.69752 0.5264 0.0
C388 C 0.55959 0.71473 0.53071 0.0
C389 C 0.58839 0.75862 0.52671 0.0
C390 C 0.63186 0.77142 0.52198 0.0
C391 C 0.64649 0.74116 0.52185 0.0
H392 H 0.70135 0.55902 0.86948 0.0
H393 H 0.71811 0.53879 0.79823 0.0
H394 H 0.77641 0.57634 0.87843 0.0
H395 H 0.79323 0.55646 0.80724 0.0
H396 H 0.94004 0.63813 0.83332 0.0
H397 H 0.86576 0.62325 0.8239 0.0
H398 H 0.81616 0.5319 0.87548 0.0
H399 H 0.89021 0.54668 0.88485 0.0
C400 C 0.72114 0.55859 0.85573 0.0
C401 C 0.70384 0.54745 0.83316 0.0
C402 C 0.76395 0.56825 0.86087 0.0
C403 C 0.79047 0.5676 0.84351 0.0
C404 C 0.77353 0.55744 0.82091 0.0
C405 C 0.73051 0.54713 0.81579 0.0
C406 C 0.91319 0.61489 0.8426 0.0
C407 C 0.92074 0.59342 0.85974 0.0
C408 C 0.87079 0.60625 0.83716 0.0
C409 C 0.83536 0.57656 0.84904 0.0
C410 C 0.84297 0.55521 0.86621 0.0
C411 C 0.88521 0.56334 0.8714 0.0
H412 H 0.13151 0.74589 0.17986 0.0
H413 H 0.18223 0.70462 0.12308 0.0
H414 H 0.20352 0.81061 0.1885 0.0
H415 H 0.25425 0.76791 0.13222 0.0
H416 H 0.38058 0.89184 0.14831 0.0
H417 H 0.30379 0.84443 0.13538 0.0
H418 H 0.26965 0.82054 0.20497 0.0
H419 H 0.34578 0.86871 0.21773 0.0
C420 C 0.15786 0.75093 0.16904 0.0
C421 C 0.15131 0.71982 0.15099 0.0
C422 C 0.19923 0.78786 0.17409 0.0
C423 C 0.23498 0.79417 0.16132 0.0
C424 C 0.22756 0.76449 0.14234 0.0
C425 C 0.18616 0.72789 0.13716 0.0
C426 C 0.35641 0.87681 0.16078 0.0
C427 C 0.3691 0.88377 0.18399 0.0
C428 C 0.31248 0.84961 0.15341 0.0
C429 C 0.28043 0.82838 0.1691 0.0
C430 C 0.29312 0.83687 0.19239 0.0
C431 C 0.33688 0.86438 0.19974 0.0
H432 H 0.54047 0.18003 0.45658 0.0
H433 H 0.45434 0.1382 0.51206 0.0
H434 H 0.55048 0.25318 0.46292 0.0
H435 H 0.46236 0.21107 0.5177 0.0
H436 H 0.551 0.35533 0.54577 0.0
H437 H 0.51969 0.27783 0.53415 0.0
H438 H 0.5279 0.30543 0.46367 0.0
H439 H 0.5611 0.38382 0.47559 0.0
C440 C 0.52247 0.18608 0.46967 0.0
C441 C 0.49732 0.15364 0.48413 0.0
C442 C 0.52801 0.22814 0.47325 0.0
C443 C 0.50794 0.23848 0.49114 0.0
C444 C 0.4794 0.20468 0.5042 0.0
C445 C 0.47449 0.1628 0.50087 0.0
C446 C 0.54532 0.34474 0.52779 0.0
C447 C 0.55867 0.37554 0.51157 0.0
C448 C 0.52704 0.30013 0.52106 0.0
C449 C 0.52118 0.2851 0.49791 0.0
C450 C 0.53259 0.31585 0.48164 0.0
C451 C 0.5515 0.36069 0.48842 0.0
H452 H 0.35143 0.50733 0.79235 0.0
H453 H 0.32101 0.44201 0.85418 0.0
H454 H 0.2881 0.51724 0.79571 0.0
H455 H 0.25951 0.45399 0.85832 0.0
H456 H 0.14473 0.47194 0.86197 0.0
H457 H 0.19076 0.44267 0.84815 0.0
H458 H 0.27284 0.56424 0.81816 0.0
H459 H 0.22536 0.59197 0.83095 0.0
C460 C 0.33087 0.49462 0.80651 0.0
C461 C 0.34147 0.47433 0.82313 0.0
C462 C 0.29476 0.50063 0.80857 0.0
C463 C 0.26896 0.48726 0.82754 0.0
C464 C 0.27808 0.4644 0.84334 0.0
C465 C 0.31367 0.45769 0.84104 0.0
C466 C 0.17216 0.49182 0.852 0.0
C467 C 0.18172 0.53421 0.84758 0.0
C468 C 0.19875 0.47528 0.8442 0.0
C469 C 0.23607 0.5012 0.83226 0.0
C470 C 0.24417 0.54286 0.82695 0.0
C471 C 0.21709 0.559 0.83438 0.0
H472 H 0.8564 0.35891 0.16208 0.0
H473 H 0.77821 0.39294 0.20538 0.0
H474 H 0.8082 0.28137 0.16741 0.0
H475 H 0.72939 0.31575 0.21005 0.0
H476 H 0.67805 0.18119 0.23423 0.0
H477 H 0.72856 0.25767 0.22853 0.0
H478 H 0.73536 0.22052 0.15809 0.0
H479 H 0.68543 0.14351 0.16409 0.0
C480 C 0.82879 0.3498 0.17262 0.0
C481 C 0.82124 0.38202 0.18343 0.0
C482 C 0.80104 0.30538 0.17556 0.0
C483 C 0.76504 0.29234 0.18925 0.0
C484 C 0.75731 0.32466 0.19978 0.0
C485 C 0.7852 0.36896 0.19701 0.0
C486 C 0.6902 0.18944 0.21751 0.0
C487 C 0.67757 0.15657 0.19954 0.0
C488 C 0.71907 0.23326 0.21421 0.0
C489 C 0.7357 0.24534 0.19279 0.0
C490 C 0.72351 0.2123 0.17486 0.0
C491 C 0.69484 0.16828 0.17824 0.0
H492 H 0.02679 0.63113 0.11257 0.0
H493 H 0.96177 0.49096 0.09509 0.0
H494 H 0.05323 0.6437 0.07437 0.0
H495 H 0.98806 0.50356 0.05689 0.0
H496 H 0.99157 0.54677 0.98474 0.0
H497 H 0.97168 0.53314 0.02378 0.0
H498 H 0.10228 0.63361 0.04776 0.0
H499 H 0.12258 0.64693 0.00856 0.0
C500 C 0.01882 0.60301 0.10071 0.0
C501 C 0.99235 0.56007 0.10688 0.0
C502 C 0.03394 0.61022 0.07882 0.0
C503 C 0.02252 0.57461 0.0626 0.0
C504 C 0.9969 0.53166 0.06894 0.0
C505 C 0.982 0.52446 0.09085 0.0
C506 C 0.01632 0.56552 0.99828 0.0
C507 C 0.05874 0.59787 0.99347 0.0
C508 C 0.00488 0.55771 0.02068 0.0
C509 C 0.03547 0.58219 0.03884 0.0
C510 C 0.0779 0.61452 0.03411 0.0
C511 C 0.08945 0.6222 0.01166 0.0
H512 H 0.55542 0.96077 0.44439 0.0
H513 H 0.47487 0.02019 0.43721 0.0
H514 H 0.56756 0.96371 0.40407 0.0
H515 H 0.48768 0.02367 0.39664 0.0
H516 H 0.47469 0.96402 0.3221 0.0
H517 H 0.4662 0.96968 0.36287 0.0
H518 H 0.60386 0.01598 0.37554 0.0
H519 H 0.61209 0.00907 0.3348 0.0
C520 C 0.54046 0.97471 0.43422 0.0
C521 C 0.51382 0.98988 0.44398 0.0
C522 C 0.54778 0.97674 0.41113 0.0
C523 C 0.52856 0.99389 0.39718 0.0
C524 C 0.50257 0.00988 0.40696 0.0
C525 C 0.49542 0.00809 0.43018 0.0
C526 C 0.50308 0.97521 0.33361 0.0
C527 C 0.54398 0.98571 0.32525 0.0
C528 C 0.49834 0.97901 0.35693 0.0
C529 C 0.53435 0.99323 0.3724 0.0
C530 C 0.57542 0.00454 0.36403 0.0
C531 C 0.5802 0.0009 0.3407 0.0
H532 H 0.62065 0.54494 0.77167 0.0
H533 H 0.49269 0.52141 0.75028 0.0
H534 H 0.64187 0.55198 0.73272 0.0
H535 H 0.51471 0.53095 0.71122 0.0
H536 H 0.55284 0.50663 0.64062 0.0
H537 H 0.53022 0.49804 0.67958 0.0
H538 H 0.66112 0.59855 0.70369 0.0
H539 H 0.68387 0.60523 0.66472 0.0
C540 C 0.59711 0.5416 0.75864 0.0
C541 C 0.5549 0.53239 0.76406 0.0
C542 C 0.60944 0.54607 0.73625 0.0
C543 C 0.58017 0.54232 0.71872 0.0
C544 C 0.53793 0.53334 0.72418 0.0
C545 C 0.52532 0.52809 0.74659 0.0
C546 C 0.57662 0.52681 0.65434 0.0
C547 C 0.62007 0.55647 0.64979 0.0
C548 C 0.56366 0.52215 0.67665 0.0
C549 C 0.59377 0.54759 0.69489 0.0
C550 C 0.6372 0.57771 0.69018 0.0
C551 C 0.65029 0.58178 0.66788 0.0
H552 H 0.54933 0.08422 0.57387 0.0
H553 H 0.48856 0.94359 0.5758 0.0
H554 H 0.56395 0.09401 0.61493 0.0
H555 H 0.50168 0.9532 0.61676 0.0
H556 H 0.57651 0.98623 0.68482 0.0
H557 H 0.56073 0.97805 0.644 0.0
H558 H 0.53208 0.08395 0.65094 0.0
H559 H 0.54911 0.09277 0.69179 0.0
C560 C 0.53852 0.05537 0.58309 0.0
C561 C 0.51806 0.01316 0.57152 0.0
C562 C 0.54677 0.06095 0.60665 0.0
C563 C 0.53438 0.02441 0.61919 0.0
C564 C 0.51266 0.98217 0.60764 0.0
C565 C 0.50483 0.97663 0.58412 0.0
C566 C 0.56667 0.00761 0.6776 0.0
C567 C 0.56397 0.04006 0.69147 0.0
C568 C 0.55744 0.00285 0.65421 0.0
C569 C 0.5448 0.03013 0.64412 0.0
C570 C 0.54225 0.06274 0.65805 0.0
C571 C 0.55191 0.06776 0.68145 0.0
H572 H 0.42917 0.46487 0.88164 0.0
H573 H 0.56629 0.54454 0.90297 0.0
H574 H 0.41159 0.4482 0.92068 0.0
H575 H 0.54849 0.52851 0.9421 0.0
H576 H 0.50586 0.45248 0.00508 0.0
H577 H 0.52245 0.46699 0.96565 0.0
H578 H 0.41039 0.48427 0.95714 0.0
H579 H 0.39286 0.46813 0.99632 0.0
C580 C 0.45557 0.47903 0.89465 0.0
C581 C 0.49916 0.50608 0.88916 0.0
C582 C 0.44542 0.46963 0.91706 0.0
C583 C 0.47863 0.48701 0.93449 0.0
C584 C 0.52221 0.51414 0.92901 0.0
C585 C 0.53238 0.5236 0.9066 0.0
C586 C 0.48444 0.45879 0.9947 0.0
C587 C 0.44801 0.4591 0.00381 0.0
C588 C 0.49426 0.46765 0.9722 0.0
C589 C 0.46784 0.47696 0.9583 0.0
C590 C 0.43117 0.47685 0.96735 0.0
C591 C 0.42139 0.46804 0.98985 0.0
H592 H 0.05968 0.59485 0.2346 0.0
H593 H 0.9214 0.49938 0.22794 0.0
H594 H 0.06303 0.5763 0.27309 0.0
H595 H 0.92455 0.4817 0.26677 0.0
H596 H 0.96174 0.42271 0.32462 0.0
H597 H 0.95345 0.44446 0.28743 0.0
H598 H 0.04154 0.58053 0.31091 0.0
H599 H 0.05033 0.55858 0.3479 0.0
C600 C 0.02978 0.57041 0.24146 0.0
C601 C 0.99029 0.5485 0.22809 0.0
C602 C 0.03168 0.5599 0.26362 0.0
C603 C 0.99409 0.52736 0.27304 0.0
C604 C 0.95429 0.50641 0.25992 0.0
C605 C 0.9524 0.51679 0.23769 0.0
C606 C 0.97892 0.45728 0.32187 0.0
C607 C 0.00695 0.48889 0.3391 0.0
C608 C 0.9741 0.46981 0.30059 0.0
C609 C 0.99699 0.51428 0.29611 0.0
C610 C 0.02408 0.54595 0.3136 0.0
C611 C 0.02909 0.53339 0.33481 0.0
loop_
_geom_bond_atom_site_label_1
_geom_bond_atom_site_label_2
_geom_bond_distance
_geom_bond_site_symmetry_2
_ccdc_geom_bond_type
Zn0 O6 1.969 . S
Zn0 O7 1.965 . S
Zn0 O11 2.024 . S
Zn0 O16 1.969 . S
Zn1 O8 1.969 . S
Zn1 O14 1.969 . S
Zn1 O15 1.965 . S
Zn1 O17 2.024 . S
C2 O3 1.229 . S
C2 O11 1.058 . S
O3 C2 1.229 . S
C4 O5 1.229 . S
C4 O17 1.058 . S
O5 C4 1.229 . S
O6 Zn0 1.969 . S
O6 C9 1.267 . S
O7 Zn0 1.965 . S
O7 C18 1.260 1_455 S
O8 Zn1 1.969 . S
O8 C18 1.258 . S
C9 O6 1.267 . S
C9 O10 1.228 . S
O10 C9 1.228 . S
O11 Zn0 2.024 . S
O11 C2 1.058 . S
C12 O13 1.228 . S
C12 O14 1.267 . S
O13 C12 1.228 . S
O14 Zn1 1.969 . S
O14 C12 1.267 . S
O15 Zn1 1.965 . S
O15 C19 1.260 1_655 S
O16 Zn0 1.969 . S
O16 C19 1.258 . S
O17 Zn1 2.024 . S
O17 C4 1.058 . S
C18 O7 1.260 1_655 S
C18 O8 1.258 . S
C19 O15 1.260 1_455 S
C19 O16 1.258 . S
Zn20 O26 1.969 . S
Zn20 O27 1.965 . S
Zn20 O31 2.024 . S
Zn20 O36 1.969 . S
Zn21 O28 1.969 . S
Zn21 O34 1.969 . S
Zn21 O35 1.965 . S
Zn21 O37 2.024 . S
C22 O23 1.229 . S
C22 O31 1.058 . S
O23 C22 1.229 . S
C24 O25 1.229 . S
C24 O37 1.058 . S
O25 C24 1.229 . S
O26 Zn20 1.969 . S
O26 C29 1.267 . S
O27 Zn20 1.965 . S
O27 C38 1.260 . S
O28 Zn21 1.969 . S
O28 C38 1.258 1_565 S
C29 O26 1.267 . S
C29 O30 1.228 . S
O30 C29 1.228 . S
O31 Zn20 2.024 . S
O31 C22 1.058 . S
C32 O33 1.228 . S
C32 O34 1.267 . S
O33 C32 1.228 . S
O34 Zn21 1.969 . S
O34 C32 1.267 . S
O35 Zn21 1.965 . S
O35 C39 1.260 1_565 S
O36 Zn20 1.969 . S
O36 C39 1.258 . S
O37 Zn21 2.024 . S
O37 C24 1.058 . S
C38 O27 1.260 . S
C38 O28 1.258 1_545 S
C39 O35 1.260 1_545 S
C39 O36 1.258 . S
Zn40 O46 1.969 . S
Zn40 O47 1.965 . S
Zn40 O51 2.024 . S
Zn40 O56 1.969 . S
Zn41 O48 1.969 . S
Zn41 O54 1.969 . S
Zn41 O55 1.965 . S
Zn41 O57 2.024 . S
C42 O43 1.229 . S
C42 O51 1.058 . S
O43 C42 1.229 . S
C44 O45 1.229 . S
C44 O57 1.058 . S
O45 C44 1.229 . S
O46 Zn40 1.969 . S
O46 C49 1.267 . S
O47 Zn40 1.965 . S
O47 C58 1.260 . S
O48 Zn41 1.969 . S
O48 C58 1.258 . S
C49 O46 1.267 . S
C49 O50 1.228 . S
O50 C49 1.228 . S
O51 Zn40 2.024 . S
O51 C42 1.058 . S
C52 O53 1.228 . S
C52 O54 1.267 . S
O53 C52 1.228 . S
O54 Zn41 1.969 . S
O54 C52 1.267 . S
O55 Zn41 1.965 . S
O55 C59 1.260 . S
O56 Zn40 1.969 . S
O56 C59 1.258 . S
O57 Zn41 2.024 . S
O57 C44 1.058 . S
C58 O47 1.260 . S
C58 O48 1.258 . S
C59 O55 1.260 . S
C59 O56 1.258 . S
P60 O71 1.490 . S
P60 C74 1.812 . S
P60 C80 1.803 1_565 S
P60 C86 1.819 1_565 S
H61 C75 0.941 . S
H62 C76 0.939 . S
H63 C78 0.940 . S
H64 C79 0.940 . S
H65 C81 0.939 . S
H66 C82 0.942 . S
H67 C84 0.940 . S
H68 C85 0.939 . S
H69 C87 0.941 . S
H70 C91 0.939 . S
O71 P60 1.490 . S
H72 C88 0.939 . S
H73 C90 0.940 . S
C74 P60 1.812 . S
C74 C75 1.389 . S
C74 C79 1.391 . S
C75 H61 0.941 . S
C75 C74 1.389 . S
C75 C76 1.397 . S
C76 H62 0.939 . S
C76 C75 1.397 . S
C76 C77 1.378 . S
C77 C76 1.378 . S
C77 C78 1.378 . S
C78 H63 0.940 . S
C78 C77 1.378 . S
C78 C79 1.396 . S
C79 H64 0.940 . S
C79 C74 1.391 . S
C79 C78 1.396 . S
C80 P60 1.803 1_545 S
C80 C81 1.378 . S
C80 C85 1.400 . S
C81 H65 0.939 . S
C81 C80 1.378 . S
C81 C82 1.361 . S
C82 H66 0.942 . S
C82 C81 1.361 . S
C82 C83 1.369 . S
C83 C82 1.369 . S
C83 C84 1.404 . S
C84 H67 0.940 . S
C84 C83 1.404 . S
C84 C85 1.389 . S
C85 H68 0.939 . S
C85 C80 1.400 . S
C85 C84 1.389 . S
C86 P60 1.819 1_545 S
C86 C87 1.391 1_545 S
C86 C91 1.391 . S
C87 H69 0.941 . S
C87 C86 1.391 1_565 S
C87 C88 1.396 . S
C88 H72 0.939 . S
C88 C87 1.396 . S
C88 C89 1.397 1_565 S
C89 C88 1.397 1_545 S
C89 C90 1.385 . S
C90 H73 0.940 . S
C90 C89 1.385 . S
C90 C91 1.388 . S
C91 H70 0.939 . S
C91 C86 1.391 . S
C91 C90 1.388 . S
P92 O103 1.490 . S
P92 C106 1.812 . S
P92 C112 1.803 . S
P92 C118 1.819 . S
H93 C107 0.941 . S
H94 C108 0.939 . S
H95 C110 0.940 . S
H96 C111 0.940 . S
H97 C113 0.939 . S
H98 C114 0.942 . S
H99 C116 0.940 . S
H100 C117 0.939 . S
H101 C119 0.941 . S
H102 C123 0.939 . S
O103 P92 1.490 . S
H104 C120 0.939 . S
H105 C122 0.940 . S
C106 P92 1.812 . S
C106 C107 1.389 . S
C106 C111 1.391 . S
C107 H93 0.941 . S
C107 C106 1.389 . S
C107 C108 1.397 . S
C108 H94 0.939 . S
C108 C107 1.397 . S
C108 C109 1.378 . S
C109 C108 1.378 . S
C109 C110 1.378 . S
C110 H95 0.940 . S
C110 C109 1.378 . S
C110 C111 1.396 . S
C111 H96 0.940 . S
C111 C106 1.391 . S
C111 C110 1.396 . S
C112 P92 1.803 . S
C112 C113 1.378 . S
C112 C117 1.400 . S
C113 H97 0.939 . S
C113 C112 1.378 . S
C113 C114 1.361 . S
C114 H98 0.942 . S
C114 C113 1.361 . S
C114 C115 1.369 . S
C115 C114 1.369 . S
C115 C116 1.404 . S
C116 H99 0.940 . S
C116 C115 1.404 . S
C116 C117 1.389 . S
C117 H100 0.939 . S
C117 C112 1.400 . S
C117 C116 1.389 . S
C118 P92 1.819 . S
C118 C119 1.391 . S
C118 C123 1.391 . S
C119 H101 0.941 . S
C119 C118 1.391 . S
C119 C120 1.396 . S
C120 H104 0.939 . S
C120 C119 1.396 . S
C120 C121 1.397 . S
C121 C120 1.397 . S
C121 C122 1.385 . S
C122 H105 0.940 . S
C122 C121 1.385 . S
C122 C123 1.388 . S
C123 H102 0.939 . S
C123 C118 1.391 . S
C123 C122 1.388 . S
P124 O135 1.490 . S
P124 C138 1.812 . S
P124 C144 1.803 . S
P124 C150 1.819 . S
H125 C139 0.941 . S
H126 C140 0.939 . S
H127 C142 0.940 . S
H128 C143 0.940 . S
H129 C145 0.939 1_455 S
H130 C146 0.942 . S
H131 C148 0.940 . S
H132 C149 0.944 . S
H133 C151 0.941 . S
H134 C155 0.939 1_655 S
O135 P124 1.490 . S
H136 C152 0.939 . S
H137 C154 0.940 1_655 S
C138 P124 1.812 . S
C138 C139 1.389 . S
C138 C143 1.391 . S
C139 H125 0.941 . S
C139 C138 1.389 . S
C139 C140 1.397 . S
C140 H126 0.939 . S
C140 C139 1.397 . S
C140 C141 1.378 . S
C141 C140 1.378 . S
C141 C142 1.378 . S
C142 H127 0.940 . S
C142 C141 1.378 . S
C142 C143 1.396 . S
C143 H128 0.940 . S
C143 C138 1.391 . S
C143 C142 1.396 . S
C144 P124 1.803 . S
C144 C145 1.378 1_455 S
C144 C149 1.400 1_455 S
C145 H129 0.939 1_655 S
C145 C144 1.378 1_655 S
C145 C146 1.361 . S
C146 H130 0.942 . S
C146 C145 1.361 . S
C146 C147 1.369 . S
C147 C146 1.369 . S
C147 C148 1.404 . S
C148 H131 0.940 . S
C148 C147 1.404 . S
C148 C149 1.389 . S
C149 H132 0.944 . S
C149 C144 1.400 1_655 S
C149 C148 1.389 . S
C150 P124 1.819 . S
C150 C151 1.391 . S
C150 C155 1.391 . S
C151 H133 0.941 . S
C151 C150 1.391 . S
C151 C152 1.396 . S
C152 H136 0.939 . S
C152 C151 1.396 . S
C152 C153 1.397 . S
C153 C152 1.397 . S
C153 C154 1.385 . S
C154 H137 0.940 1_455 S
C154 C153 1.385 . S
C154 C155 1.388 . S
C155 H134 0.939 1_455 S
C155 C150 1.391 . S
C155 C154 1.388 . S
P156 O167 1.490 . S
P156 C170 1.812 . S
P156 C176 1.801 . S
P156 C182 1.819 . S
H157 C171 0.941 . S
H158 C172 0.939 . S
H159 C174 0.940 . S
H160 C175 0.940 . S
H161 C177 0.939 . S
H162 C178 0.942 . S
H163 C180 0.940 . S
H164 C181 0.939 . S
H165 C183 0.941 . S
H166 C187 0.939 . S
O167 P156 1.490 . S
H168 C184 0.939 . S
H169 C186 0.940 . S
C170 P156 1.812 . S
C170 C171 1.389 . S
C170 C175 1.391 . S
C171 H157 0.941 . S
C171 C170 1.389 . S
C171 C172 1.397 . S
C172 H158 0.939 . S
C172 C171 1.397 . S
C172 C173 1.378 . S
C173 C172 1.378 . S
C173 C174 1.378 . S
C174 H159 0.940 . S
C174 C173 1.378 . S
C174 C175 1.396 . S
C175 H160 0.940 . S
C175 C170 1.391 . S
C175 C174 1.396 . S
C176 P156 1.801 . S
C176 C177 1.378 1_455 S
C176 C181 1.402 1_455 S
C177 H161 0.939 . S
C177 C176 1.378 1_655 S
C177 C178 1.361 . S
C178 H162 0.942 . S
C178 C177 1.361 . S
C178 C179 1.369 . S
C179 C178 1.369 . S
C179 C180 1.404 . S
C180 H163 0.940 . S
C180 C179 1.404 . S
C180 C181 1.389 . S
C181 H164 0.939 . S
C181 C176 1.402 1_655 S
C181 C180 1.389 . S
C182 P156 1.819 . S
C182 C183 1.391 . S
C182 C187 1.391 1_455 S
C183 H165 0.941 . S
C183 C182 1.391 . S
C183 C184 1.396 . S
C184 H168 0.939 . S
C184 C183 1.396 . S
C184 C185 1.397 . S
C185 C184 1.397 . S
C185 C186 1.385 1_455 S
C186 H169 0.940 . S
C186 C185 1.385 1_655 S
C186 C187 1.388 . S
C187 H166 0.939 . S
C187 C182 1.391 1_655 S
C187 C186 1.388 . S
P188 O199 1.490 . S
P188 C202 1.812 . S
P188 C208 1.803 1_545 S
P188 C214 1.819 . S
H189 C203 0.941 . S
H190 C204 0.939 . S
H191 C206 0.940 . S
H192 C207 0.940 . S
H193 C209 0.939 . S
H194 C210 0.942 . S
H195 C212 0.940 . S
H196 C213 0.939 . S
H197 C215 0.941 . S
H198 C219 0.939 . S
O199 P188 1.490 . S
H200 C216 0.939 . S
H201 C218 0.940 . S
C202 P188 1.812 . S
C202 C203 1.389 . S
C202 C207 1.391 . S
C203 H189 0.941 . S
C203 C202 1.389 . S
C203 C204 1.397 . S
C204 H190 0.939 . S
C204 C203 1.397 . S
C204 C205 1.378 . S
C205 C204 1.378 . S
C205 C206 1.378 . S
C206 H191 0.940 . S
C206 C205 1.378 . S
C206 C207 1.396 . S
C207 H192 0.940 . S
C207 C202 1.391 . S
C207 C206 1.396 . S
C208 P188 1.803 1_565 S
C208 C209 1.378 . S
C208 C213 1.400 . S
C209 H193 0.939 . S
C209 C208 1.378 . S
C209 C210 1.361 . S
C210 H194 0.942 . S
C210 C209 1.361 . S
C210 C211 1.369 . S
C211 C210 1.369 . S
C211 C212 1.404 . S
C212 H195 0.940 . S
C212 C211 1.404 . S
C212 C213 1.389 . S
C213 H196 0.939 . S
C213 C208 1.400 . S
C213 C212 1.389 . S
C214 P188 1.819 . S
C214 C215 1.391 . S
C214 C219 1.391 1_545 S
C215 H197 0.941 . S
C215 C214 1.391 . S
C215 C216 1.396 . S
C216 H200 0.939 . S
C216 C215 1.396 . S
C216 C217 1.397 . S
C217 C216 1.397 . S
C217 C218 1.385 1_545 S
C218 H201 0.940 . S
C218 C217 1.385 1_565 S
C218 C219 1.388 . S
C219 H198 0.939 . S
C219 C214 1.391 1_565 S
C219 C218 1.388 . S
P220 O231 1.490 . S
P220 C234 1.812 . S
P220 C240 1.803 . S
P220 C246 1.819 . S
H221 C235 0.941 . S
H222 C236 0.939 . S
H223 C238 0.940 . S
H224 C239 0.940 . S
H225 C241 0.939 . S
H226 C242 0.942 . S
H227 C244 0.940 . S
H228 C245 0.939 . S
H229 C247 0.941 . S
H230 C251 0.939 . S
O231 P220 1.490 . S
H232 C248 0.939 . S
H233 C250 0.940 . S
C234 P220 1.812 . S
C234 C235 1.389 . S
C234 C239 1.391 . S
C235 H221 0.941 . S
C235 C234 1.389 . S
C235 C236 1.397 . S
C236 H222 0.939 . S
C236 C235 1.397 . S
C236 C237 1.378 . S
C237 C236 1.378 . S
C237 C238 1.378 . S
C238 H223 0.940 . S
C238 C237 1.378 . S
C238 C239 1.396 . S
C239 H224 0.940 . S
C239 C234 1.391 . S
C239 C238 1.396 . S
C240 P220 1.803 . S
C240 C241 1.378 . S
C240 C245 1.400 . S
C241 H225 0.939 . S
C241 C240 1.378 . S
C241 C242 1.361 . S
C242 H226 0.942 . S
C242 C241 1.361 . S
C242 C243 1.369 . S
C243 C242 1.369 . S
C243 C244 1.404 . S
C244 H227 0.940 . S
C244 C243 1.404 . S
C244 C245 1.389 . S
C245 H228 0.939 . S
C245 C240 1.400 . S
C245 C244 1.389 . S
C246 P220 1.819 . S
C246 C247 1.391 . S
C246 C251 1.391 . S
C247 H229 0.941 . S
C247 C246 1.391 . S
C247 C248 1.396 . S
C248 H232 0.939 . S
C248 C247 1.396 . S
C248 C249 1.397 . S
C249 C248 1.397 . S
C249 C250 1.385 . S
C250 H233 0.940 . S
C250 C249 1.385 . S
C250 C251 1.388 . S
C251 H230 0.939 . S
C251 C246 1.391 . S
C251 C250 1.388 . S
H252 C260 0.950 . S
H253 C265 0.950 . S
H254 C262 0.950 . S
H255 C264 0.950 . S
H256 C266 0.950 . S
H257 C268 0.950 . S
H258 C270 0.950 . S
H259 C271 0.950 . S
C260 H252 0.950 . S
C260 C261 1.386 . S
C260 C262 1.391 . S
C261 C260 1.386 . S
C261 C265 1.393 . S
C262 H254 0.950 . S
C262 C260 1.391 . S
C262 C263 1.400 . S
C263 C262 1.400 . S
C263 C264 1.398 . S
C263 C269 1.491 . S
C264 H255 0.950 . S
C264 C263 1.398 . S
C264 C265 1.391 . S
C265 H253 0.950 . S
C265 C261 1.393 . S
C265 C264 1.391 . S
C266 H256 0.950 . S
C266 C267 1.386 . S
C266 C268 1.391 . S
C267 C266 1.386 . S
C267 C271 1.393 . S
C268 H257 0.950 . S
C268 C266 1.391 . S
C268 C269 1.400 . S
C269 C263 1.491 . S
C269 C268 1.400 . S
C269 C270 1.398 . S
C270 H258 0.950 . S
C270 C269 1.398 . S
C270 C271 1.391 . S
C271 H259 0.950 . S
C271 C267 1.393 . S
C271 C270 1.391 . S
H272 C280 0.950 . S
H273 C285 0.950 . S
H274 C282 0.950 . S
H275 C284 0.950 . S
H276 C286 0.950 . S
H277 C288 0.950 . S
H278 C290 0.950 . S
H279 C291 0.950 . S
C280 H272 0.950 . S
C280 C281 1.386 . S
C280 C282 1.391 . S
C281 C280 1.386 . S
C281 C285 1.393 . S
C282 H274 0.950 . S
C282 C280 1.391 . S
C282 C283 1.400 . S
C283 C282 1.400 . S
C283 C284 1.398 . S
C283 C289 1.491 . S
C284 H275 0.950 . S
C284 C283 1.398 . S
C284 C285 1.391 . S
C285 H273 0.950 . S
C285 C281 1.393 . S
C285 C284 1.391 . S
C286 H276 0.950 . S
C286 C287 1.386 . S
C286 C288 1.391 . S
C287 C286 1.386 . S
C287 C291 1.393 . S
C288 H277 0.950 . S
C288 C286 1.391 . S
C288 C289 1.400 . S
C289 C283 1.491 . S
C289 C288 1.400 . S
C289 C290 1.398 . S
C290 H278 0.950 . S
C290 C289 1.398 . S
C290 C291 1.391 . S
C291 H279 0.950 . S
C291 C287 1.393 . S
C291 C290 1.391 . S
H292 C300 0.950 . S
H293 C305 0.950 . S
H294 C302 0.950 . S
H295 C304 0.950 . S
H296 C306 0.950 . S
H297 C308 0.950 . S
H298 C310 0.950 . S
H299 C311 0.950 . S
C300 H292 0.950 . S
C300 C301 1.386 . S
C300 C302 1.391 . S
C301 C300 1.386 . S
C301 C305 1.393 . S
C302 H294 0.950 . S
C302 C300 1.391 . S
C302 C303 1.400 . S
C303 C302 1.400 . S
C303 C304 1.398 . S
C303 C309 1.491 . S
C304 H295 0.950 . S
C304 C303 1.398 . S
C304 C305 1.391 . S
C305 H293 0.950 . S
C305 C301 1.393 . S
C305 C304 1.391 . S
C306 H296 0.950 . S
C306 C307 1.386 . S
C306 C308 1.391 . S
C307 C306 1.386 . S
C307 C311 1.393 . S
C308 H297 0.950 . S
C308 C306 1.391 . S
C308 C309 1.400 . S
C309 C303 1.491 . S
C309 C308 1.400 . S
C309 C310 1.398 . S
C310 H298 0.950 . S
C310 C309 1.398 . S
C310 C311 1.391 . S
C311 H299 0.950 . S
C311 C307 1.393 . S
C311 C310 1.391 . S
H312 C320 0.950 . S
H313 C325 0.950 . S
H314 C322 0.950 . S
H315 C324 0.950 . S
H316 C326 0.950 . S
H317 C328 0.950 . S
H318 C330 0.950 . S
H319 C331 0.950 . S
C320 H312 0.950 . S
C320 C321 1.386 . S
C320 C322 1.391 . S
C321 C320 1.386 . S
C321 C325 1.393 . S
C322 H314 0.950 . S
C322 C320 1.391 . S
C322 C323 1.400 . S
C323 C322 1.400 . S
C323 C324 1.398 . S
C323 C329 1.491 . S
C324 H315 0.950 . S
C324 C323 1.398 . S
C324 C325 1.391 . S
C325 H313 0.950 . S
C325 C321 1.393 . S
C325 C324 1.391 . S
C326 H316 0.950 . S
C326 C327 1.386 . S
C326 C328 1.391 . S
C327 C326 1.386 . S
C327 C331 1.393 . S
C328 H317 0.950 . S
C328 C326 1.391 . S
C328 C329 1.400 . S
C329 C323 1.491 . S
C329 C328 1.400 . S
C329 C330 1.398 . S
C330 H318 0.950 . S
C330 C329 1.398 . S
C330 C331 1.391 . S
C331 H319 0.950 . S
C331 C327 1.393 . S
C331 C330 1.391 . S
H332 C340 0.950 . S
H333 C345 0.950 . S
H334 C342 0.950 . S
H335 C344 0.950 . S
H336 C346 0.950 . S
H337 C348 0.950 . S
H338 C350 0.950 . S
H339 C351 0.950 . S
C340 H332 0.950 . S
C340 C341 1.386 . S
C340 C342 1.391 . S
C341 C340 1.386 . S
C341 C345 1.393 . S
C342 H334 0.950 . S
C342 C340 1.391 . S
C342 C343 1.400 . S
C343 C342 1.400 . S
C343 C344 1.398 . S
C343 C349 1.491 . S
C344 H335 0.950 . S
C344 C343 1.398 . S
C344 C345 1.391 . S
C345 H333 0.950 . S
C345 C341 1.393 . S
C345 C344 1.391 . S
C346 H336 0.950 . S
C346 C347 1.386 . S
C346 C348 1.391 . S
C347 C346 1.386 . S
C347 C351 1.393 . S
C348 H337 0.950 . S
C348 C346 1.391 . S
C348 C349 1.400 . S
C349 C343 1.491 . S
C349 C348 1.400 . S
C349 C350 1.398 . S
C350 H338 0.950 . S
C350 C349 1.398 . S
C350 C351 1.391 . S
C351 H339 0.950 . S
C351 C347 1.393 . S
C351 C350 1.391 . S
H352 C360 0.950 . S
H353 C365 0.950 . S
H354 C362 0.950 . S
H355 C364 0.950 . S
H356 C366 0.950 . S
H357 C368 0.950 . S
H358 C370 0.950 . S
H359 C371 0.950 . S
C360 H352 0.950 . S
C360 C361 1.386 . S
C360 C362 1.391 . S
C361 C360 1.386 . S
C361 C365 1.393 . S
C362 H354 0.950 . S
C362 C360 1.391 . S
C362 C363 1.400 . S
C363 C362 1.400 . S
C363 C364 1.398 . S
C363 C369 1.491 . S
C364 H355 0.950 . S
C364 C363 1.398 . S
C364 C365 1.391 . S
C365 H353 0.950 . S
C365 C361 1.393 . S
C365 C364 1.391 . S
C366 H356 0.950 . S
C366 C367 1.386 . S
C366 C368 1.391 . S
C367 C366 1.386 . S
C367 C371 1.393 . S
C368 H357 0.950 . S
C368 C366 1.391 . S
C368 C369 1.400 . S
C369 C363 1.491 . S
C369 C368 1.400 . S
C369 C370 1.398 . S
C370 H358 0.950 . S
C370 C369 1.398 . S
C370 C371 1.391 . S
C371 H359 0.950 . S
C371 C367 1.393 . S
C371 C370 1.391 . S
H372 C380 0.950 . S
H373 C385 0.950 . S
H374 C382 0.950 . S
H375 C384 0.950 . S
H376 C386 0.950 . S
H377 C388 0.950 . S
H378 C390 0.950 . S
H379 C391 0.950 . S
C380 H372 0.950 . S
C380 C381 1.386 . S
C380 C382 1.391 . S
C381 C380 1.386 . S
C381 C385 1.393 . S
C382 H374 0.950 . S
C382 C380 1.391 . S
C382 C383 1.400 . S
C383 C382 1.400 . S
C383 C384 1.398 . S
C383 C389 1.491 . S
C384 H375 0.950 . S
C384 C383 1.398 . S
C384 C385 1.391 . S
C385 H373 0.950 . S
C385 C381 1.393 . S
C385 C384 1.391 . S
C386 H376 0.950 . S
C386 C387 1.386 . S
C386 C388 1.391 . S
C387 C386 1.386 . S
C387 C391 1.393 . S
C388 H377 0.950 . S
C388 C386 1.391 . S
C388 C389 1.400 . S
C389 C383 1.491 . S
C389 C388 1.400 . S
C389 C390 1.398 . S
C390 H378 0.950 . S
C390 C389 1.398 . S
C390 C391 1.391 . S
C391 H379 0.950 . S
C391 C387 1.393 . S
C391 C390 1.391 . S
H392 C400 0.950 . S
H393 C405 0.950 . S
H394 C402 0.950 . S
H395 C404 0.950 . S
H396 C406 0.950 . S
H397 C408 0.950 . S
H398 C410 0.950 . S
H399 C411 0.950 . S
C400 H392 0.950 . S
C400 C401 1.386 . S
C400 C402 1.391 . S
C401 C400 1.386 . S
C401 C405 1.393 . S
C402 H394 0.950 . S
C402 C400 1.391 . S
C402 C403 1.400 . S
C403 C402 1.400 . S
C403 C404 1.398 . S
C403 C409 1.491 . S
C404 H395 0.950 . S
C404 C403 1.398 . S
C404 C405 1.391 . S
C405 H393 0.950 . S
C405 C401 1.393 . S
C405 C404 1.391 . S
C406 H396 0.950 . S
C406 C407 1.386 . S
C406 C408 1.391 . S
C407 C406 1.386 . S
C407 C411 1.393 . S
C408 H397 0.950 . S
C408 C406 1.391 . S
C408 C409 1.400 . S
C409 C403 1.491 . S
C409 C408 1.400 . S
C409 C410 1.398 . S
C410 H398 0.950 . S
C410 C409 1.398 . S
C410 C411 1.391 . S
C411 H399 0.950 . S
C411 C407 1.393 . S
C411 C410 1.391 . S
H412 C420 0.950 . S
H413 C425 0.950 . S
H414 C422 0.950 . S
H415 C424 0.950 . S
H416 C426 0.950 . S
H417 C428 0.950 . S
H418 C430 0.950 . S
H419 C431 0.950 . S
C420 H412 0.950 . S
C420 C421 1.386 . S
C420 C422 1.391 . S
C421 C420 1.386 . S
C421 C425 1.393 . S
C422 H414 0.950 . S
C422 C420 1.391 . S
C422 C423 1.400 . S
C423 C422 1.400 . S
C423 C424 1.398 . S
C423 C429 1.491 . S
C424 H415 0.950 . S
C424 C423 1.398 . S
C424 C425 1.391 . S
C425 H413 0.950 . S
C425 C421 1.393 . S
C425 C424 1.391 . S
C426 H416 0.950 . S
C426 C427 1.386 . S
C426 C428 1.391 . S
C427 C426 1.386 . S
C427 C431 1.393 . S
C428 H417 0.950 . S
C428 C426 1.391 . S
C428 C429 1.400 . S
C429 C423 1.491 . S
C429 C428 1.400 . S
C429 C430 1.398 . S
C430 H418 0.950 . S
C430 C429 1.398 . S
C430 C431 1.391 . S
C431 H419 0.950 . S
C431 C427 1.393 . S
C431 C430 1.391 . S
H432 C440 0.950 . S
H433 C445 0.950 . S
H434 C442 0.950 . S
H435 C444 0.950 . S
H436 C446 0.950 . S
H437 C448 0.950 . S
H438 C450 0.950 . S
H439 C451 0.950 . S
C440 H432 0.950 . S
C440 C441 1.386 . S
C440 C442 1.391 . S
C441 C440 1.386 . S
C441 C445 1.393 . S
C442 H434 0.950 . S
C442 C440 1.391 . S
C442 C443 1.400 . S
C443 C442 1.400 . S
C443 C444 1.398 . S
C443 C449 1.491 . S
C444 H435 0.950 . S
C444 C443 1.398 . S
C444 C445 1.391 . S
C445 H433 0.950 . S
C445 C441 1.393 . S
C445 C444 1.391 . S
C446 H436 0.950 . S
C446 C447 1.386 . S
C446 C448 1.391 . S
C447 C446 1.386 . S
C447 C451 1.393 . S
C448 H437 0.950 . S
C448 C446 1.391 . S
C448 C449 1.400 . S
C449 C443 1.491 . S
C449 C448 1.400 . S
C449 C450 1.398 . S
C450 H438 0.950 . S
C450 C449 1.398 . S
C450 C451 1.391 . S
C451 H439 0.950 . S
C451 C447 1.393 . S
C451 C450 1.391 . S
H452 C460 0.950 . S
H453 C465 0.950 . S
H454 C462 0.950 . S
H455 C464 0.950 . S
H456 C466 0.950 . S
H457 C468 0.950 . S
H458 C470 0.950 . S
H459 C471 0.950 . S
C460 H452 0.950 . S
C460 C461 1.386 . S
C460 C462 1.391 . S
C461 C460 1.386 . S
C461 C465 1.393 . S
C462 H454 0.950 . S
C462 C460 1.391 . S
C462 C463 1.400 . S
C463 C462 1.400 . S
C463 C464 1.398 . S
C463 C469 1.491 . S
C464 H455 0.950 . S
C464 C463 1.398 . S
C464 C465 1.391 . S
C465 H453 0.950 . S
C465 C461 1.393 . S
C465 C464 1.391 . S
C466 H456 0.950 . S
C466 C467 1.386 . S
C466 C468 1.391 . S
C467 C466 1.386 . S
C467 C471 1.393 . S
C468 H457 0.950 . S
C468 C466 1.391 . S
C468 C469 1.400 . S
C469 C463 1.491 . S
C469 C468 1.400 . S
C469 C470 1.398 . S
C470 H458 0.950 . S
C470 C469 1.398 . S
C470 C471 1.391 . S
C471 H459 0.950 . S
C471 C467 1.393 . S
C471 C470 1.391 . S
H472 C480 0.950 . S
H473 C485 0.950 . S
H474 C482 0.950 . S
H475 C484 0.950 . S
H476 C486 0.950 . S
H477 C488 0.950 . S
H478 C490 0.950 . S
H479 C491 0.950 . S
C480 H472 0.950 . S
C480 C481 1.386 . S
C480 C482 1.391 . S
C481 C480 1.386 . S
C481 C485 1.393 . S
C482 H474 0.950 . S
C482 C480 1.391 . S
C482 C483 1.400 . S
C483 C482 1.400 . S
C483 C484 1.398 . S
C483 C489 1.491 . S
C484 H475 0.950 . S
C484 C483 1.398 . S
C484 C485 1.391 . S
C485 H473 0.950 . S
C485 C481 1.393 . S
C485 C484 1.391 . S
C486 H476 0.950 . S
C486 C487 1.386 . S
C486 C488 1.391 . S
C487 C486 1.386 . S
C487 C491 1.393 . S
C488 H477 0.950 . S
C488 C486 1.391 . S
C488 C489 1.400 . S
C489 C483 1.491 . S
C489 C488 1.400 . S
C489 C490 1.398 . S
C490 H478 0.950 . S
C490 C489 1.398 . S
C490 C491 1.391 . S
C491 H479 0.950 . S
C491 C487 1.393 . S
C491 C490 1.391 . S
H492 C500 0.950 . S
H493 C505 0.950 . S
H494 C502 0.950 . S
H495 C504 0.950 . S
H496 C506 0.950 . S
H497 C508 0.950 . S
H498 C510 0.950 . S
H499 C511 0.950 1_556 S
C500 H492 0.950 . S
C500 C501 1.386 . S
C500 C502 1.391 . S
C501 C500 1.386 . S
C501 C505 1.393 1_455 S
C502 H494 0.950 . S
C502 C500 1.391 . S
C502 C503 1.400 . S
C503 C502 1.400 . S
C503 C504 1.398 1_455 S
C503 C509 1.491 . S
C504 H495 0.950 . S
C504 C503 1.398 1_655 S
C504 C505 1.391 . S
C505 H493 0.950 . S
C505 C501 1.393 1_655 S
C505 C504 1.391 . S
C506 H496 0.950 . S
C506 C507 1.386 1_655 S
C506 C508 1.391 1_556 S
C507 C506 1.386 1_455 S
C507 C511 1.393 1_556 S
C508 H497 0.950 . S
C508 C506 1.391 1_554 S
C508 C509 1.400 1_655 S
C509 C503 1.491 . S
C509 C508 1.400 1_455 S
C509 C510 1.398 . S
C510 H498 0.950 . S
C510 C509 1.398 . S
C510 C511 1.391 . S
C511 H499 0.950 1_554 S
C511 C507 1.393 1_554 S
C511 C510 1.391 . S
H512 C520 0.950 . S
H513 C525 0.950 . S
H514 C522 0.950 . S
H515 C524 0.950 . S
H516 C526 0.950 . S
H517 C528 0.950 . S
H518 C530 0.950 . S
H519 C531 0.950 . S
C520 H512 0.950 . S
C520 C521 1.386 . S
C520 C522 1.391 . S
C521 C520 1.386 . S
C521 C525 1.393 . S
C522 H514 0.950 . S
C522 C520 1.391 . S
C522 C523 1.400 . S
C523 C522 1.400 . S
C523 C524 1.398 . S
C523 C529 1.491 . S
C524 H515 0.950 . S
C524 C523 1.398 . S
C524 C525 1.391 . S
C525 H513 0.950 . S
C525 C521 1.393 . S
C525 C524 1.391 . S
C526 H516 0.950 . S
C526 C527 1.386 . S
C526 C528 1.391 . S
C527 C526 1.386 . S
C527 C531 1.393 . S
C528 H517 0.950 . S
C528 C526 1.391 . S
C528 C529 1.400 . S
C529 C523 1.491 . S
C529 C528 1.400 . S
C529 C530 1.398 . S
C530 H518 0.950 . S
C530 C529 1.398 . S
C530 C531 1.391 . S
C531 H519 0.950 . S
C531 C527 1.393 . S
C531 C530 1.391 . S
H532 C540 0.950 . S
H533 C545 0.950 . S
H534 C542 0.950 . S
H535 C544 0.950 . S
H536 C546 0.950 . S
H537 C548 0.950 . S
H538 C550 0.950 . S
H539 C551 0.950 . S
C540 H532 0.950 . S
C540 C541 1.386 . S
C540 C542 1.391 . S
C541 C540 1.386 . S
C541 C545 1.393 . S
C542 H534 0.950 . S
C542 C540 1.391 . S
C542 C543 1.400 . S
C543 C542 1.400 . S
C543 C544 1.398 . S
C543 C549 1.491 . S
C544 H535 0.950 . S
C544 C543 1.398 . S
C544 C545 1.391 . S
C545 H533 0.950 . S
C545 C541 1.393 . S
C545 C544 1.391 . S
C546 H536 0.950 . S
C546 C547 1.386 . S
C546 C548 1.391 . S
C547 C546 1.386 . S
C547 C551 1.393 . S
C548 H537 0.950 . S
C548 C546 1.391 . S
C548 C549 1.400 . S
C549 C543 1.491 . S
C549 C548 1.400 . S
C549 C550 1.398 . S
C550 H538 0.950 . S
C550 C549 1.398 . S
C550 C551 1.391 . S
C551 H539 0.950 . S
C551 C547 1.393 . S
C551 C550 1.391 . S
H552 C560 0.950 . S
H553 C565 0.950 . S
H554 C562 0.950 . S
H555 C564 0.950 . S
H556 C566 0.950 . S
H557 C568 0.950 . S
H558 C570 0.950 . S
H559 C571 0.950 . S
C560 H552 0.950 . S
C560 C561 1.386 . S
C560 C562 1.391 . S
C561 C560 1.386 . S
C561 C565 1.393 1_545 S
C562 H554 0.950 . S
C562 C560 1.391 . S
C562 C563 1.400 . S
C563 C562 1.400 . S
C563 C564 1.398 1_545 S
C563 C569 1.491 . S
C564 H555 0.950 . S
C564 C563 1.398 1_565 S
C564 C565 1.391 . S
C565 H553 0.950 . S
C565 C561 1.393 1_565 S
C565 C564 1.391 . S
C566 H556 0.950 . S
C566 C567 1.386 1_565 S
C566 C568 1.391 . S
C567 C566 1.386 1_545 S
C567 C571 1.393 . S
C568 H557 0.950 . S
C568 C566 1.391 . S
C568 C569 1.400 1_565 S
C569 C563 1.491 . S
C569 C568 1.400 1_545 S
C569 C570 1.398 . S
C570 H558 0.950 . S
C570 C569 1.398 . S
C570 C571 1.391 . S
C571 H559 0.950 . S
C571 C567 1.393 . S
C571 C570 1.391 . S
H572 C580 0.950 . S
H573 C585 0.950 . S
H574 C582 0.950 . S
H575 C584 0.950 . S
H576 C586 0.950 . S
H577 C588 0.950 . S
H578 C590 0.950 . S
H579 C591 0.950 1_554 S
C580 H572 0.950 . S
C580 C581 1.386 . S
C580 C582 1.391 . S
C581 C580 1.386 . S
C581 C585 1.393 . S
C582 H574 0.950 . S
C582 C580 1.391 . S
C582 C583 1.400 . S
C583 C582 1.400 . S
C583 C584 1.398 . S
C583 C589 1.491 . S
C584 H575 0.950 . S
C584 C583 1.398 . S
C584 C585 1.391 . S
C585 H573 0.950 . S
C585 C581 1.393 . S
C585 C584 1.391 . S
C586 H576 0.950 . S
C586 C587 1.386 . S
C586 C588 1.391 1_554 S
C587 C586 1.386 . S
C587 C591 1.393 1_554 S
C588 H577 0.950 . S
C588 C586 1.391 1_556 S
C588 C589 1.400 . S
C589 C583 1.491 . S
C589 C588 1.400 . S
C589 C590 1.398 . S
C590 H578 0.950 . S
C590 C589 1.398 . S
C590 C591 1.391 . S
C591 H579 0.950 1_556 S
C591 C587 1.393 1_556 S
C591 C590 1.391 . S
H592 C600 0.950 . S
H593 C605 0.950 . S
H594 C602 0.950 . S
H595 C604 0.950 . S
H596 C606 0.950 . S
H597 C608 0.950 . S
H598 C610 0.950 . S
H599 C611 0.950 . S
C600 H592 0.950 . S
C600 C601 1.386 1_455 S
C600 C602 1.391 . S
C601 C600 1.386 1_655 S
C601 C605 1.393 . S
C602 H594 0.950 . S
C602 C600 1.391 . S
C602 C603 1.400 . S
C603 C602 1.400 . S
C603 C604 1.398 1_455 S
C603 C609 1.491 . S
C604 H595 0.950 . S
C604 C603 1.398 1_655 S
C604 C605 1.391 . S
C605 H593 0.950 . S
C605 C601 1.393 . S
C605 C604 1.391 . S
C606 H596 0.950 . S
C606 C607 1.386 1_655 S
C606 C608 1.391 . S
C607 C606 1.386 1_455 S
C607 C611 1.393 . S
C608 H597 0.950 . S
C608 C606 1.391 . S
C608 C609 1.400 1_655 S
C609 C603 1.491 . S
C609 C608 1.400 1_455 S
C609 C610 1.398 . S
C610 H598 0.950 . S
C610 C609 1.398 . S
C610 C611 1.391 . S
C611 H599 0.950 . S
C611 C607 1.393 . S
C611 C610 1.391 . S
C261 C2 1.326 . S
C267 C243 1.374 . S
C281 C22 1.339 . S
C287 C179 1.395 . S
C301 C44 1.379 . S
C307 C211 1.434 . S
C321 C4 1.506 . S
C327 C237 1.609 . S
C347 C173 1.577 . S
C341 C24 1.529 . S
C367 C205 1.530 . S
C361 C42 1.475 . S
C381 C32 1.324 . S
C387 C115 1.321 . S
C401 C49 1.231 . S
C407 C147 1.228 . S
C421 C9 1.222 . S
C427 C77 1.244 . S
C447 C109 1.246 . S
C441 C29 1.222 . S
C467 C141 1.299 . S
C461 C52 1.261 . S
C481 C12 1.237 . S
C487 C83 1.266 . S
C507 C153 1.413 . S
C501 C18 1.441 1_455 S
C521 C38 1.419 . S
C527 C89 1.409 . S
C541 C58 1.432 . S
C547 C121 1.422 . S
C567 C217 1.461 . S
C561 C39 1.491 . S
C587 C249 1.460 . S
C581 C59 1.469 . S
C601 C19 1.480 1_655 S
C607 C185 1.457 . S
