# Generated by pormake.
# Topology pth, (4,4)-cn, num edge types: 1
# Building blocks:
#     Node 0, Type 0, BuildingBlock: QUQFOY_clean_sbu_3, # of connection points: 4
#     Node 1, Type 0, BuildingBlock: QUQFOY_clean_sbu_3, # of connection points: 4
#     Node 2, Type 0, BuildingBlock: QUQFOY_clean_sbu_3, # of connection points: 4
#     Node 3, Type 1, BuildingBlock: MIFKUJ_clean_linker_1, # of connection points: 4
#     Node 4, Type 1, BuildingBlock: MIFKUJ_clean_linker_1, # of connection points: 4
#     Node 5, Type 1, BuildingBlock: MIFKUJ_clean_linker_1, # of connection points: 4
#     Edge 6, Type (0, 1), BuildingBlock: AJUNOK_clean_linker_0, # of connection points: 2
#     Edge 7, Type (0, 1), BuildingBlock: AJUNOK_clean_linker_0, # of connection points: 2
#     Edge 8, Type (0, 1), BuildingBlock: AJUNOK_clean_linker_0, # of connection points: 2
#     Edge 9, Type (0, 1), BuildingBlock: AJUNOK_clean_linker_0, # of connection points: 2
#     Edge 10, Type (0, 1), BuildingBlock: AJUNOK_clean_linker_0, # of connection points: 2
#     Edge 11, Type (0, 1), BuildingBlock: AJUNOK_clean_linker_0, # of connection points: 2
#     Edge 12, Type (0, 1), BuildingBlock: AJUNOK_clean_linker_0, # of connection points: 2
#     Edge 13, Type (0, 1), BuildingBlock: AJUNOK_clean_linker_0, # of connection points: 2
#     Edge 14, Type (0, 1), BuildingBlock: AJUNOK_clean_linker_0, # of connection points: 2
#     Edge 15, Type (0, 1), BuildingBlock: AJUNOK_clean_linker_0, # of connection points: 2
#     Edge 16, Type (0, 1), BuildingBlock: AJUNOK_clean_linker_0, # of connection points: 2
#     Edge 17, Type (0, 1), BuildingBlock: AJUNOK_clean_linker_0, # of connection points: 2
# Relax obj value: 0.016
# Max RMSD: 0.073
# Mean RMSD: 0.058
data_MOF--net-pth--node1-QUQFOY_clean_sbu_3--node2-MIFKUJ_clean_linker_1--edge1-AJUNOK_clean_linker_0
_symmetry_space_group_name_H-M    P1
_symmetry_Int_Tables_number       1
_symmetry_cell_setting            triclinic
loop_
_symmetry_equiv_pos_as_xyz
'x, y, z'
_cell_length_a     23.497335
_cell_length_b     23.320845
_cell_length_c     51.577923
_cell_angle_alpha  90.143943
_cell_angle_beta   90.634453
_cell_angle_gamma 120.91705
loop_
_atom_site_label
_atom_site_type_symbol
_atom_site_fract_x
_atom_site_fract_y
_atom_site_fract_z
_atom_type_partial_charge
C0 C 0.97066 0.17009 0.06441 0.0
O1 O 0.93428 0.16365 0.04493 0.0
Cd2 Cd 0.91901 0.09297 0.00849 0.0
O3 O -0.00029 0.13672 0.06574 0.0
Cd4 Cd 0.00759 0.05128 0.03975 0.0
C5 C 0.08284 0.16181 0.99174 0.0
O6 O 0.89337 0.98499 0.02309 0.0
O7 O 0.96678 0.97126 0.00394 0.0
O8 O -0.00429 -0.00303 0.08113 0.0
C9 C 0.90624 0.95297 0.00656 0.0
O10 O 0.02487 0.15045 0.98634 0.0
C11 C 0.04183 0.98471 0.07781 0.0
O12 O 0.09292 0.13567 0.01163 0.0
O13 O 0.07364 0.00464 0.05677 0.0
C14 C 0.1666 0.12345 0.40322 0.0
O15 O 0.20013 0.17005 0.38737 0.0
Cd16 Cd 0.15032 0.17229 0.34687 0.0
O17 O 0.10417 0.08543 0.40013 0.0
Cd18 Cd 0.01272 0.07818 0.37294 0.0
C19 C 0.06104 0.00288 0.33105 0.0
O20 O 0.06066 0.1901 0.35453 0.0
O21 O 0.97386 0.1105 0.33505 0.0
O22 O 0.97105 0.10162 0.41158 0.0
C23 C 0.01661 0.17239 0.33681 0.0
O24 O 0.11088 0.06147 0.328 0.0
C25 C 0.91326 0.0503 0.41039 0.0
O26 O 0.01516 0.99212 0.34676 0.0
O27 O 0.90128 0.00981 0.39165 0.0
C28 C 0.90491 0.07711 0.67404 0.0
O29 O 0.9149 0.11784 0.69236 0.0
Cd30 Cd 0.98547 0.13394 0.72932 0.0
O31 O 0.93697 0.04672 0.67353 0.0
Cd32 Cd 0.02519 0.04364 0.69908 0.0
C33 C 0.91951 0.97048 0.74801 0.0
O34 O 0.09295 0.15861 0.71638 0.0
O35 O 0.10393 0.08182 0.7348 0.0
O36 O 0.0839 0.05801 0.65884 0.0
C37 C 0.12352 0.14335 0.73286 0.0
O38 O 0.93137 0.02916 0.75304 0.0
C39 C 0.09293 0.00934 0.6622 0.0
O40 O 0.94258 0.95865 0.72776 0.0
O41 O 0.06784 0.97444 0.68236 0.0
H42 H 0.12222 0.53649 0.15355 0.0
H43 H 0.10708 0.44687 0.12413 0.0
H44 H 0.93095 0.30632 0.16492 0.0
H45 H 0.9438 0.39629 0.19357 0.0
H46 H 0.05083 0.58807 0.15793 0.0
H47 H 0.12152 0.48284 0.22087 0.0
H48 H 0.11633 0.39415 0.24816 0.0
H49 H 0.93084 0.35702 0.27944 0.0
H50 H 0.93591 0.44521 0.25213 0.0
H51 H 0.95196 0.62229 0.25629 0.0
H52 H 0.95734 0.70996 0.28413 0.0
H53 H 0.13435 0.85674 0.24504 0.0
H54 H 0.13201 0.76846 0.21886 0.0
H55 H 0.02967 0.57622 0.25355 0.0
H56 H 0.95572 0.67613 0.18888 0.0
H57 H 0.96103 0.76589 0.16267 0.0
H58 H 0.15494 0.81631 0.13599 0.0
H59 H 0.14805 0.72454 0.16155 0.0
C60 C 0.03458 0.47331 0.17602 0.0
C61 C 0.08052 0.48638 0.15634 0.0
C62 C 0.0721 0.43532 0.13962 0.0
C63 C 0.01821 0.3701 0.14253 0.0
C64 C 0.97336 0.35625 0.16263 0.0
C65 C 0.98104 0.4076 0.17908 0.0
C66 C 0.03971 0.52929 0.19182 0.0
C67 C 0.04736 0.58579 0.1789 0.0
C68 C 0.03338 0.52608 0.21911 0.0
C69 C 0.02885 0.4702 0.23437 0.0
C70 C 0.07937 0.455 0.23337 0.0
C71 C 0.07658 0.40476 0.24901 0.0
C72 C 0.02296 0.36867 0.26569 0.0
C73 C 0.97218 0.38352 0.26646 0.0
C74 C 0.97525 0.43404 0.25101 0.0
C75 C 0.0413 0.68862 0.23529 0.0
C76 C -0.00775 0.67331 0.25384 0.0
C77 C -0.00496 0.72352 0.26961 0.0
C78 C 0.04678 0.79018 0.26706 0.0
C79 C 0.09484 0.80565 0.24801 0.0
C80 C 0.09278 0.75528 0.23261 0.0
C81 C 0.04005 0.63436 0.21964 0.0
C82 C 0.03334 0.5784 0.23258 0.0
C83 C 0.04734 0.63808 0.19239 0.0
C84 C 0.05168 0.69407 0.17727 0.0
C85 C -0.00042 0.70692 0.17755 0.0
C86 C 0.00302 0.75866 0.16275 0.0
C87 C 0.05903 0.79911 0.14761 0.0
C88 C 0.11119 0.78608 0.14743 0.0
C89 C 0.10736 0.73379 0.16202 0.0
H90 H 0.62839 0.10947 0.49061 0.0
H91 H 0.71926 0.11646 0.46532 0.0
H92 H 0.67292 0.92319 0.49341 0.0
H93 H 0.58169 0.91621 0.51885 0.0
H94 H 0.49908 0.02409 0.4876 0.0
H95 H 0.66364 0.10468 0.5507 0.0
H96 H 0.75485 0.12157 0.57929 0.0
H97 H 0.62942 0.926 0.61178 0.0
H98 H 0.538 0.90888 0.5829 0.0
H99 H 0.33371 0.89052 0.57178 0.0
H100 H 0.24463 0.8857 0.59768 0.0
H101 H 0.32607 0.09703 0.58573 0.0
H102 H 0.41333 0.10071 0.55897 0.0
H103 H 0.47826 0.98308 0.58224 0.0
H104 H 0.30438 0.94444 0.51863 0.0
H105 H 0.23435 0.97531 0.49432 0.0
H106 H 0.40983 0.14682 0.46393 0.0
H107 H 0.47907 0.11986 0.4902 0.0
C108 C 0.59852 0.01248 0.50669 0.0
C109 C 0.63775 0.0686 0.49136 0.0
C110 C 0.68975 0.07271 0.47706 0.0
C111 C 0.70309 0.02053 0.47764 0.0
C112 C 0.66346 0.964 0.49273 0.0
C113 C 0.61178 0.9602 0.50731 0.0
C114 C 0.54285 0.00818 0.52157 0.0
C115 C 0.49457 0.01551 0.50834 0.0
C116 C 0.53792 -0.00179 0.54863 0.0
C117 C 0.59427 0.00509 0.56442 0.0
C118 C 0.65609 0.06479 0.56357 0.0
C119 C 0.70798 0.07467 0.58003 0.0
C120 C 0.69914 0.02495 0.59757 0.0
C121 C 0.63768 0.96468 0.59813 0.0
C122 C 0.58548 0.95499 0.58177 0.0
C123 C 0.37982 -0.0041 0.56347 0.0
C124 C 0.33209 0.93568 0.57472 0.0
C125 C 0.28158 0.93314 0.58965 0.0
C126 C 0.27884 0.9912 0.59407 0.0
C127 C 0.32658 0.05137 0.58255 0.0
C128 C 0.37659 0.05367 0.56737 0.0
C129 C 0.434 -0.00149 0.54822 0.0
C130 C 0.48207 0.99059 0.56144 0.0
C131 C 0.44138 0.01333 0.52142 0.0
C132 C 0.39726 0.03042 0.50673 0.0
C133 C 0.32779 0.98989 0.50742 0.0
C134 C 0.28773 0.00715 0.49321 0.0
C135 C 0.31633 0.0644 0.47754 0.0
C136 C 0.38584 0.10397 0.47654 0.0
C137 C 0.42567 0.08773 0.49121 0.0
H138 H 0.48286 0.41104 0.82229 0.0
H139 H 0.40028 0.32617 0.79267 0.0
H140 H 0.25438 0.37207 0.81922 0.0
H141 H 0.3376 0.45816 0.84844 0.0
H142 H 0.5316 0.54236 0.8221 0.0
H143 H 0.41721 0.36608 0.88441 0.0
H144 H 0.32597 0.2809 0.91033 0.0
H145 H 0.28055 0.42886 0.93636 0.0
H146 H 0.371 0.51349 0.91028 0.0
H147 H 0.55248 0.69741 0.91098 0.0
H148 H 0.63469 0.78431 0.94009 0.0
H149 H 0.77109 0.71654 0.92427 0.0
H150 H 0.68982 0.63214 0.89417 0.0
H151 H 0.50079 0.5567 0.91637 0.0
H152 H 0.60768 0.72986 0.85452 0.0
H153 H 0.69635 0.81873 0.82937 0.0
H154 H 0.75516 0.68102 0.80291 0.0
H155 H 0.66502 0.59151 0.82781 0.0
C156 C 0.41615 0.44026 0.83783 0.0
C157 C 0.433 0.40258 0.82185 0.0
C158 C 0.38578 0.35395 0.80505 0.0
C159 C 0.32089 0.34225 0.8039 0.0
C160 C 0.30409 0.38017 0.8198 0.0
C161 C 0.35134 0.42877 0.83665 0.0
C162 C 0.46749 0.49437 0.8545 0.0
C163 C 0.52535 0.5447 0.84281 0.0
C164 C 0.45846 0.49879 0.88135 0.0
C165 C 0.40058 0.44598 0.89534 0.0
C166 C 0.38704 0.3799 0.89546 0.0
C167 C 0.33554 0.33156 0.91045 0.0
C168 C 0.29687 0.34868 0.9255 0.0
C169 C 0.30967 0.41447 0.92491 0.0
C170 C 0.36129 0.46276 0.91008 0.0
C171 C 0.61529 0.65863 0.90048 0.0
C172 C 0.60033 0.70173 0.91372 0.0
C173 C 0.64704 0.75079 0.93054 0.0
C174 C 0.70891 0.7564 0.93493 0.0
C175 C 0.72398 0.71365 0.92127 0.0
C176 C 0.67766 0.66537 0.90411 0.0
C177 C 0.56443 0.60412 0.88394 0.0
C178 C 0.50697 0.55383 0.89568 0.0
C179 C 0.57365 0.5998 0.85717 0.0
C180 C 0.63043 0.65439 0.84333 0.0
C181 C 0.64039 0.71906 0.84369 0.0
C182 C 0.69122 0.76984 0.82937 0.0
C183 C 0.7334 0.75706 0.81453 0.0
C184 C 0.72345 0.69225 0.81422 0.0
C185 C 0.67223 0.64126 0.82846 0.0
C186 C 0.97785 0.27586 0.07879 0.0
C187 C 0.98178 0.21924 0.08501 0.0
C188 C 0.99036 0.32464 0.09754 0.0
C189 C 0.00595 0.31792 0.12328 0.0
H190 H 0.96618 0.28325 0.05916 0.0
H191 H 0.98738 0.36778 0.09192 0.0
S192 S 0.02064 0.17874 0.14996 0.0
N193 N 0.00197 0.1592 0.11897 0.0
N194 N 0.02376 0.25052 0.15435 0.0
C195 C 0.00911 0.26136 0.12996 0.0
C196 C -0.00243 0.21214 0.11077 0.0
C197 C 0.79689 0.98447 0.42697 0.0
C198 C 0.86164 0.0404 0.42922 0.0
C199 C 0.74614 0.97703 0.44331 0.0
C200 C 0.75826 0.02552 0.46228 0.0
H201 H 0.78486 0.94681 0.41214 0.0
H202 H 0.69661 0.93419 0.44052 0.0
S203 S 0.91961 0.1778 0.47793 0.0
N204 N 0.93555 0.14275 0.45343 0.0
N205 N 0.83988 0.12851 0.48377 0.0
C206 C 0.82295 0.0803 0.46539 0.0
C207 C 0.87471 0.08777 0.44897 0.0
C208 C 0.8367 0.84992 0.75613 0.0
C209 C 0.87675 0.91554 0.76572 0.0
C210 C 0.79167 0.79844 0.77222 0.0
C211 C 0.78557 0.81067 0.79849 0.0
H212 H 0.83841 0.8387 0.73586 0.0
H213 H 0.75987 0.74922 0.76379 0.0
S214 S 0.88626 0.97155 0.83391 0.0
N215 N 0.91191 0.98856 0.8037 0.0
N216 N 0.82843 0.8915 0.83397 0.0
C217 C 0.82776 0.8753 0.80859 0.0
C218 C 0.87307 0.92777 0.7922 0.0
C219 C 0.07755 0.90314 0.08815 0.0
C220 C 0.05378 0.94422 0.09668 0.0
C221 C 0.08088 0.85772 0.10494 0.0
C222 C 0.06128 0.85224 0.13097 0.0
H223 H 0.09085 0.90386 0.06805 0.0
H224 H 0.09653 0.82487 0.09718 0.0
S225 S 0.00587 0.95661 0.16383 0.0
N226 N 0.01667 0.98148 0.1334 0.0
N227 N 0.02502 0.89774 0.16518 0.0
C228 C 0.04123 0.89598 0.14009 0.0
C229 C 0.03702 0.94158 0.12291 0.0
C230 C 0.18348 0.04339 0.42916 0.0
C231 C 0.20099 0.10964 0.42416 0.0
C232 C 0.21981 0.02909 0.447 0.0
C233 C 0.27426 0.08048 0.46088 0.0
H234 H 0.14322 0.00244 0.41837 0.0
H235 H 0.20659 0.97752 0.44916 0.0
S236 S 0.33274 0.26165 0.45769 0.0
N237 N 0.27202 0.22662 0.43591 0.0
N238 N 0.33823 0.19988 0.47058 0.0
C239 C 0.28953 0.14677 0.45712 0.0
C240 C 0.25345 0.16131 0.43848 0.0
C241 C 0.18806 0.25968 0.75125 0.0
C242 C 0.17499 0.19361 0.75075 0.0
C243 C 0.23499 0.30739 0.76861 0.0
C244 C 0.27095 0.29093 0.78593 0.0
H245 H 0.16154 0.27466 0.73828 0.0
H246 H 0.24368 0.35773 0.7683 0.0
S247 S 0.25503 0.12515 0.79289 0.0
N248 N 0.20199 0.1144 0.76943 0.0
N249 N 0.28967 0.20414 0.80201 0.0
C250 C 0.25854 0.22529 0.78566 0.0
C251 C 0.21069 0.17663 0.7681 0.0
C252 C 0.83015 0.10749 0.6507 0.0
C253 C 0.85429 0.06366 0.65363 0.0
C254 C 0.78075 0.09501 0.63226 0.0
C255 C 0.75289 0.03779 0.61625 0.0
H256 H 0.84944 0.15188 0.66277 0.0
H257 H 0.76331 0.12983 0.63085 0.0
S258 S 0.799 0.90788 0.61546 0.0
N259 N 0.84696 0.96104 0.63834 0.0
N260 N 0.75371 0.93777 0.60387 0.0
C261 C 0.77664 0.99377 0.61873 0.0
C262 C 0.82751 0.00673 0.63732 0.0
C263 C 0.87281 0.89147 0.9643 0.0
C264 C 0.85478 0.90277 0.98886 0.0
C265 C 0.82527 0.84467 0.94695 0.0
C266 C 0.75793 0.80664 0.95361 0.0
H267 H 0.924 0.91967 0.95823 0.0
H268 H 0.84142 0.83866 0.92808 0.0
S269 S 0.68601 0.81376 0.01645 0.0
N270 N 0.76558 0.87089 0.01937 0.0
N271 N 0.67633 0.78095 0.98717 0.0
C272 C 0.7394 0.81677 0.97831 0.0
C273 C 0.78778 0.86525 0.99583 0.0
C274 C -0.0033 0.89689 0.30531 0.0
C275 C 0.05736 0.9471 0.31605 0.0
C276 C -0.00644 0.84613 0.28958 0.0
C277 C 0.05084 0.84331 0.28437 0.0
H278 H 0.95174 0.89796 0.30846 0.0
H279 H 0.94616 0.80965 0.28101 0.0
S280 S 0.22001 0.95815 0.31105 0.0
N281 N 0.1749 0.98836 0.32212 0.0
N282 N 0.16871 0.89163 0.29351 0.0
C283 C 0.11127 0.89182 0.29596 0.0
C284 C 0.11458 0.944 0.31157 0.0
C285 C 0.1488 0.0268 0.61957 0.0
C286 C 0.13484 -0.00245 0.64428 0.0
C287 C 0.19388 0.02282 0.60321 0.0
C288 C 0.22727 0.98988 0.61097 0.0
H289 H 0.12547 0.05398 0.61292 0.0
H290 H 0.20326 0.04648 0.58443 0.0
S291 S 0.20893 0.90546 0.6739 0.0
N292 N 0.15739 0.93363 0.67559 0.0
N293 N 0.24344 0.92768 0.64514 0.0
C294 C 0.21286 0.95927 0.63544 0.0
C295 C 0.16636 0.96273 0.65201 0.0
C296 C 0.1281 0.24474 0.95584 0.0
C297 C 0.13851 0.20744 0.97478 0.0
C298 C 0.17935 0.28953 0.93985 0.0
C299 C 0.24304 0.29849 0.94191 0.0
H300 H 0.08003 0.24013 0.95347 0.0
H301 H 0.16904 0.31746 0.92573 0.0
S302 S 0.29721 0.21329 0.98788 0.0
N303 N 0.21807 0.18243 0.99436 0.0
N304 N 0.31443 0.26694 0.96414 0.0
C305 C 0.25435 0.26119 0.96041 0.0
C306 C 0.20218 0.21571 0.97691 0.0
C307 C 0.07252 0.28655 0.3174 0.0
C308 C 0.01716 0.22115 0.31827 0.0
C309 C 0.07454 0.33357 0.29997 0.0
C310 C 0.021 0.31718 0.283 0.0
H311 H 0.1148 0.30163 0.33022 0.0
H312 H 0.11784 0.38353 0.3001 0.0
S313 S 0.86521 0.15291 0.2769 0.0
N314 N 0.90789 0.14233 0.3001 0.0
N315 N 0.91198 0.23112 0.26751 0.0
C316 C 0.96559 0.25209 0.28349 0.0
C317 C 0.96363 0.20397 0.30107 0.0
loop_
_geom_bond_atom_site_label_1
_geom_bond_atom_site_label_2
_geom_bond_distance
_geom_bond_site_symmetry_2
_ccdc_geom_bond_type
C0 O1 1.306 1_455 S
C0 O3 1.160 . S
O1 C0 1.306 1_655 S
O1 Cd2 2.228 . S
Cd2 O1 2.228 . S
Cd2 O6 2.273 . S
Cd2 O10 2.277 1_655 S
O3 C0 1.160 . S
O3 Cd4 2.203 . S
Cd4 O3 2.203 . S
Cd4 O6 2.411 1_455 S
Cd4 O7 2.333 1_445 S
Cd4 O8 2.352 1_445 S
Cd4 O12 2.277 . S
Cd4 O13 2.356 1_545 S
C5 O10 1.209 . S
C5 O12 1.226 . S
O6 Cd2 2.273 . S
O6 Cd4 2.411 1_655 S
O6 C9 1.320 1_545 S
O7 Cd4 2.333 1_665 S
O7 C9 1.214 . S
O8 Cd4 2.352 1_665 S
O8 C11 1.258 1_655 S
C9 O6 1.320 1_565 S
C9 O7 1.214 . S
O10 Cd2 2.277 1_455 S
O10 C5 1.209 . S
C11 O8 1.258 1_455 S
C11 O13 1.282 . S
O12 Cd4 2.277 . S
O12 C5 1.226 . S
O13 Cd4 2.356 1_565 S
O13 C11 1.282 . S
C14 O15 1.306 . S
C14 O17 1.160 . S
O15 C14 1.306 . S
O15 Cd16 2.228 . S
Cd16 O15 2.228 . S
Cd16 O20 2.273 . S
Cd16 O24 2.277 . S
O17 C14 1.160 . S
O17 Cd18 2.203 1_455 S
Cd18 O17 2.203 1_655 S
Cd18 O20 2.411 1_655 S
Cd18 O21 2.333 . S
Cd18 O22 2.352 . S
Cd18 O26 2.277 1_545 S
Cd18 O27 2.356 1_545 S
C19 O24 1.209 1_565 S
C19 O26 1.226 1_455 S
O20 Cd16 2.273 . S
O20 Cd18 2.411 1_455 S
O20 C23 1.320 . S
O21 Cd18 2.333 . S
O21 C23 1.214 1_655 S
O22 Cd18 2.352 . S
O22 C25 1.258 . S
C23 O20 1.320 . S
C23 O21 1.214 1_455 S
O24 Cd16 2.277 . S
O24 C19 1.209 1_545 S
C25 O22 1.258 . S
C25 O27 1.282 1_545 S
O26 Cd18 2.277 1_565 S
O26 C19 1.226 1_655 S
O27 Cd18 2.356 1_565 S
O27 C25 1.282 1_565 S
C28 O29 1.306 . S
C28 O31 1.160 . S
O29 C28 1.306 . S
O29 Cd30 2.228 . S
Cd30 O29 2.228 . S
Cd30 O34 2.273 1_655 S
Cd30 O38 2.277 . S
O31 C28 1.160 . S
O31 Cd32 2.203 1_655 S
Cd32 O31 2.203 1_455 S
Cd32 O34 2.411 . S
Cd32 O35 2.333 . S
Cd32 O36 2.352 . S
Cd32 O40 2.277 1_445 S
Cd32 O41 2.354 1_545 S
C33 O38 1.209 1_565 S
C33 O40 1.226 . S
O34 Cd30 2.273 1_455 S
O34 Cd32 2.411 . S
O34 C37 1.320 . S
O35 Cd32 2.333 . S
O35 C37 1.214 . S
O36 Cd32 2.352 . S
O36 C39 1.258 . S
C37 O34 1.320 . S
C37 O35 1.214 . S
O38 Cd30 2.277 . S
O38 C33 1.209 1_545 S
C39 O36 1.258 . S
C39 O41 1.280 1_545 S
O40 Cd32 2.277 1_665 S
O40 C33 1.226 . S
O41 Cd32 2.354 1_565 S
O41 C39 1.280 1_565 S
H42 C61 0.949 . S
H43 C62 0.950 . S
H44 C64 0.950 . S
H45 C65 0.950 . S
H46 C67 0.950 . S
H47 C70 0.950 . S
H48 C71 0.950 . S
H49 C73 0.951 . S
H50 C74 0.949 . S
H51 C76 0.949 . S
H52 C77 0.950 . S
H53 C79 0.950 . S
H54 C80 0.950 . S
H55 C82 0.950 . S
H56 C85 0.943 1_655 S
H57 C86 0.950 1_655 S
H58 C88 0.951 . S
H59 C89 0.949 . S
C60 C61 1.376 . S
C60 C65 1.386 1_455 S
C60 C66 1.483 . S
C61 H42 0.949 . S
C61 C60 1.376 . S
C61 C62 1.397 . S
C62 H43 0.950 . S
C62 C61 1.397 . S
C62 C63 1.391 . S
C63 C62 1.391 . S
C63 C64 1.405 1_455 S
C64 H44 0.950 . S
C64 C63 1.405 1_655 S
C64 C65 1.367 . S
C65 H45 0.950 . S
C65 C60 1.386 1_655 S
C65 C64 1.367 . S
C66 C60 1.483 . S
C66 C67 1.382 . S
C66 C68 1.403 . S
C67 H46 0.950 . S
C67 C66 1.382 . S
C67 C83 1.411 . S
C68 C66 1.403 . S
C68 C69 1.489 . S
C68 C82 1.411 . S
C69 C68 1.489 . S
C69 C70 1.383 . S
C69 C74 1.382 1_455 S
C70 H47 0.950 . S
C70 C69 1.383 . S
C70 C71 1.395 . S
C71 H48 0.950 . S
C71 C70 1.395 . S
C71 C72 1.288 . S
C72 C71 1.288 . S
C72 C73 1.392 1_455 S
C73 H49 0.951 . S
C73 C72 1.392 1_655 S
C73 C74 1.392 . S
C74 H50 0.949 . S
C74 C69 1.382 1_655 S
C74 C73 1.392 . S
C75 C76 1.376 1_455 S
C75 C80 1.386 . S
C75 C81 1.483 . S
C76 H51 0.949 . S
C76 C75 1.376 1_655 S
C76 C77 1.397 . S
C77 H52 0.950 . S
C77 C76 1.397 . S
C77 C78 1.391 1_655 S
C78 C77 1.391 1_455 S
C78 C79 1.405 . S
C79 H53 0.950 . S
C79 C78 1.405 . S
C79 C80 1.367 . S
C80 H54 0.950 . S
C80 C75 1.386 . S
C80 C79 1.367 . S
C81 C75 1.483 . S
C81 C82 1.382 . S
C81 C83 1.403 . S
C82 H55 0.950 . S
C82 C68 1.411 . S
C82 C81 1.382 . S
C83 C67 1.411 . S
C83 C81 1.403 . S
C83 C84 1.489 . S
C84 C83 1.489 . S
C84 C85 1.394 . S
C84 C89 1.382 . S
C85 H56 0.943 1_455 S
C85 C84 1.394 . S
C85 C86 1.391 . S
C86 H57 0.950 1_455 S
C86 C85 1.391 . S
C86 C87 1.288 . S
C87 C86 1.288 . S
C87 C88 1.392 . S
C88 H58 0.951 . S
C88 C87 1.392 . S
C88 C89 1.392 . S
C89 H59 0.949 . S
C89 C84 1.382 . S
C89 C88 1.392 . S
H90 C109 0.949 . S
H91 C110 0.950 . S
H92 C112 0.953 . S
H93 C113 0.950 1_565 S
H94 C115 0.950 . S
H95 C118 0.950 . S
H96 C119 0.950 . S
H97 C121 0.951 . S
H98 C122 0.949 . S
H99 C124 0.949 . S
H100 C125 0.950 . S
H101 C127 0.950 . S
H102 C128 0.950 . S
H103 C130 0.950 . S
H104 C133 0.950 1_565 S
H105 C134 0.950 1_565 S
H106 C136 0.951 . S
H107 C137 0.949 . S
C108 C109 1.376 . S
C108 C113 1.386 . S
C108 C114 1.483 . S
C109 H90 0.949 . S
C109 C108 1.376 . S
C109 C110 1.397 . S
C110 H91 0.950 . S
C110 C109 1.397 . S
C110 C111 1.391 . S
C111 C110 1.391 . S
C111 C112 1.404 1_545 S
C112 H92 0.953 . S
C112 C111 1.404 1_565 S
C112 C113 1.366 1_565 S
C113 H93 0.950 1_545 S
C113 C108 1.386 . S
C113 C112 1.366 1_545 S
C114 C108 1.483 . S
C114 C115 1.382 . S
C114 C116 1.403 . S
C115 H94 0.950 . S
C115 C114 1.382 . S
C115 C131 1.411 . S
C116 C114 1.403 . S
C116 C117 1.489 . S
C116 C130 1.411 . S
C117 C116 1.489 . S
C117 C118 1.383 . S
C117 C122 1.382 1_545 S
C118 H95 0.950 . S
C118 C117 1.383 . S
C118 C119 1.395 . S
C119 H96 0.950 . S
C119 C118 1.395 . S
C119 C120 1.288 . S
C120 C119 1.288 . S
C120 C121 1.392 1_545 S
C121 H97 0.951 . S
C121 C120 1.392 1_565 S
C121 C122 1.392 . S
C122 H98 0.949 . S
C122 C117 1.382 1_565 S
C122 C121 1.392 . S
C123 C124 1.376 1_545 S
C123 C128 1.386 . S
C123 C129 1.483 . S
C124 H99 0.949 . S
C124 C123 1.376 1_565 S
C124 C125 1.397 . S
C125 H100 0.950 . S
C125 C124 1.397 . S
C125 C126 1.391 1_565 S
C126 C125 1.391 1_545 S
C126 C127 1.405 . S
C127 H101 0.950 . S
C127 C126 1.405 . S
C127 C128 1.367 . S
C128 H102 0.950 . S
C128 C123 1.386 . S
C128 C127 1.367 . S
C129 C123 1.483 . S
C129 C130 1.382 . S
C129 C131 1.403 . S
C130 H103 0.950 . S
C130 C116 1.411 . S
C130 C129 1.382 . S
C131 C115 1.411 . S
C131 C129 1.403 . S
C131 C132 1.489 . S
C132 C131 1.489 . S
C132 C133 1.383 . S
C132 C137 1.382 . S
C133 H104 0.950 1_545 S
C133 C132 1.383 . S
C133 C134 1.395 . S
C134 H105 0.950 1_545 S
C134 C133 1.395 . S
C134 C135 1.288 . S
C135 C134 1.288 . S
C135 C136 1.392 . S
C136 H106 0.951 . S
C136 C135 1.392 . S
C136 C137 1.392 . S
C137 H107 0.949 . S
C137 C132 1.382 . S
C137 C136 1.392 . S
H138 C157 0.949 . S
H139 C158 0.950 . S
H140 C160 0.950 . S
H141 C161 0.950 . S
H142 C163 0.950 . S
H143 C166 0.950 . S
H144 C167 0.950 . S
H145 C169 0.951 . S
H146 C170 0.949 . S
H147 C172 0.949 . S
H148 C173 0.950 . S
H149 C175 0.950 . S
H150 C176 0.950 . S
H151 C178 0.950 . S
H152 C181 0.950 . S
H153 C182 0.950 . S
H154 C184 0.951 . S
H155 C185 0.949 . S
C156 C157 1.376 . S
C156 C161 1.386 . S
C156 C162 1.483 . S
C157 H138 0.949 . S
C157 C156 1.376 . S
C157 C158 1.397 . S
C158 H139 0.950 . S
C158 C157 1.397 . S
C158 C159 1.391 . S
C159 C158 1.391 . S
C159 C160 1.405 . S
C160 H140 0.950 . S
C160 C159 1.405 . S
C160 C161 1.367 . S
C161 H141 0.950 . S
C161 C156 1.386 . S
C161 C160 1.367 . S
C162 C156 1.483 . S
C162 C163 1.382 . S
C162 C164 1.403 . S
C163 H142 0.950 . S
C163 C162 1.382 . S
C163 C179 1.411 . S
C164 C162 1.403 . S
C164 C165 1.489 . S
C164 C178 1.411 . S
C165 C164 1.489 . S
C165 C166 1.383 . S
C165 C170 1.382 . S
C166 H143 0.950 . S
C166 C165 1.383 . S
C166 C167 1.395 . S
C167 H144 0.950 . S
C167 C166 1.395 . S
C167 C168 1.288 . S
C168 C167 1.288 . S
C168 C169 1.392 . S
C169 H145 0.951 . S
C169 C168 1.392 . S
C169 C170 1.392 . S
C170 H146 0.949 . S
C170 C165 1.382 . S
C170 C169 1.392 . S
C171 C172 1.376 . S
C171 C176 1.386 . S
C171 C177 1.483 . S
C172 H147 0.949 . S
C172 C171 1.376 . S
C172 C173 1.397 . S
C173 H148 0.950 . S
C173 C172 1.397 . S
C173 C174 1.391 . S
C174 C173 1.391 . S
C174 C175 1.405 . S
C175 H149 0.950 . S
C175 C174 1.405 . S
C175 C176 1.367 . S
C176 H150 0.950 . S
C176 C171 1.386 . S
C176 C175 1.367 . S
C177 C171 1.483 . S
C177 C178 1.382 . S
C177 C179 1.403 . S
C178 H151 0.950 . S
C178 C164 1.411 . S
C178 C177 1.382 . S
C179 C163 1.411 . S
C179 C177 1.403 . S
C179 C180 1.489 . S
C180 C179 1.489 . S
C180 C181 1.383 . S
C180 C185 1.382 . S
C181 H152 0.950 . S
C181 C180 1.383 . S
C181 C182 1.395 . S
C182 H153 0.950 . S
C182 C181 1.395 . S
C182 C183 1.288 . S
C183 C182 1.288 . S
C183 C184 1.392 . S
C184 H154 0.951 . S
C184 C183 1.392 . S
C184 C185 1.392 . S
C185 H155 0.949 . S
C185 C180 1.382 . S
C185 C184 1.392 . S
C186 C187 1.369 . S
C186 C188 1.419 . S
C186 H190 0.930 . S
C187 C186 1.369 . S
C187 C196 1.429 . S
C188 C186 1.419 . S
C188 C189 1.363 . S
C188 H191 0.929 . S
C189 C188 1.363 . S
C189 C195 1.428 . S
H190 C186 0.930 . S
H191 C188 0.929 . S
S192 N193 1.613 . S
S192 N194 1.610 . S
N193 S192 1.613 . S
N193 C196 1.350 . S
N194 S192 1.610 . S
N194 C195 1.351 . S
C195 C189 1.428 . S
C195 N194 1.351 . S
C195 C196 1.434 . S
C196 C187 1.429 . S
C196 N193 1.350 . S
C196 C195 1.434 . S
C197 C198 1.369 1_565 S
C197 C199 1.419 . S
C197 H201 0.930 . S
C198 C197 1.369 1_545 S
C198 C207 1.429 . S
C199 C197 1.419 . S
C199 C200 1.363 1_565 S
C199 H202 0.929 . S
C200 C199 1.363 1_545 S
C200 C206 1.428 . S
H201 C197 0.930 . S
H202 C199 0.929 . S
S203 N204 1.613 . S
S203 N205 1.610 . S
N204 S203 1.613 . S
N204 C207 1.350 . S
N205 S203 1.610 . S
N205 C206 1.351 . S
C206 C200 1.428 . S
C206 N205 1.351 . S
C206 C207 1.434 . S
C207 C198 1.429 . S
C207 N204 1.350 . S
C207 C206 1.434 . S
C208 C209 1.369 . S
C208 C210 1.419 . S
C208 H212 0.930 . S
C209 C208 1.369 . S
C209 C218 1.429 . S
C210 C208 1.419 . S
C210 C211 1.363 . S
C210 H213 0.929 . S
C211 C210 1.363 . S
C211 C217 1.428 . S
H212 C208 0.930 . S
H213 C210 0.929 . S
S214 N215 1.613 . S
S214 N216 1.610 . S
N215 S214 1.613 . S
N215 C218 1.350 . S
N216 S214 1.610 . S
N216 C217 1.351 . S
C217 C211 1.428 . S
C217 N216 1.351 . S
C217 C218 1.434 . S
C218 C209 1.429 . S
C218 N215 1.350 . S
C218 C217 1.434 . S
C219 C220 1.369 . S
C219 C221 1.419 . S
C219 H223 0.930 1_455 S
C220 C219 1.369 . S
C220 C229 1.429 . S
C221 C219 1.419 . S
C221 C222 1.363 . S
C221 H224 0.929 1_455 S
C222 C221 1.363 . S
C222 C228 1.428 . S
H223 C219 0.930 1_655 S
H224 C221 0.929 1_655 S
S225 N226 1.613 . S
S225 N227 1.610 . S
N226 S225 1.613 . S
N226 C229 1.350 . S
N227 S225 1.610 . S
N227 C228 1.351 . S
C228 C222 1.428 . S
C228 N227 1.351 . S
C228 C229 1.434 . S
C229 C220 1.429 . S
C229 N226 1.350 . S
C229 C228 1.434 . S
C230 C231 1.359 1_565 S
C230 C232 1.423 . S
C230 H234 0.936 . S
C231 C230 1.359 1_545 S
C231 C240 1.429 . S
C232 C230 1.423 . S
C232 C233 1.363 1_565 S
C232 H235 0.929 . S
C233 C232 1.363 1_545 S
C233 C239 1.428 . S
H234 C230 0.936 . S
H235 C232 0.929 . S
S236 N237 1.613 . S
S236 N238 1.610 . S
N237 S236 1.613 . S
N237 C240 1.350 . S
N238 S236 1.610 . S
N238 C239 1.351 . S
C239 C233 1.428 . S
C239 N238 1.351 . S
C239 C240 1.434 . S
C240 C231 1.429 . S
C240 N237 1.350 . S
C240 C239 1.434 . S
C241 C242 1.369 . S
C241 C243 1.419 . S
C241 H245 0.930 . S
C242 C241 1.369 . S
C242 C251 1.429 . S
C243 C241 1.419 . S
C243 C244 1.363 . S
C243 H246 0.929 . S
C244 C243 1.363 . S
C244 C250 1.428 . S
H245 C241 0.930 . S
H246 C243 0.929 . S
S247 N248 1.613 . S
S247 N249 1.610 . S
N248 S247 1.613 . S
N248 C251 1.350 . S
N249 S247 1.610 . S
N249 C250 1.351 . S
C250 C244 1.428 . S
C250 N249 1.351 . S
C250 C251 1.434 . S
C251 C242 1.429 . S
C251 N248 1.350 . S
C251 C250 1.434 . S
C252 C253 1.369 . S
C252 C254 1.419 . S
C252 H256 0.930 . S
C253 C252 1.369 . S
C253 C262 1.429 . S
C254 C252 1.419 . S
C254 C255 1.363 . S
C254 H257 0.929 . S
C255 C254 1.363 . S
C255 C261 1.428 . S
H256 C252 0.930 . S
H257 C254 0.929 . S
S258 N259 1.613 . S
S258 N260 1.610 . S
N259 S258 1.613 . S
N259 C262 1.350 1_565 S
N260 S258 1.610 . S
N260 C261 1.351 1_565 S
C261 C255 1.428 . S
C261 N260 1.351 1_545 S
C261 C262 1.434 . S
C262 C253 1.429 . S
C262 N259 1.350 1_545 S
C262 C261 1.434 . S
C263 C264 1.369 . S
C263 C265 1.419 . S
C263 H267 0.930 . S
C264 C263 1.369 . S
C264 C273 1.429 . S
C265 C263 1.419 . S
C265 C266 1.363 . S
C265 H268 0.929 . S
C266 C265 1.363 . S
C266 C272 1.428 . S
H267 C263 0.930 . S
H268 C265 0.929 . S
S269 N270 1.613 . S
S269 N271 1.610 1_554 S
N270 S269 1.613 . S
N270 C273 1.350 1_554 S
N271 S269 1.610 1_556 S
N271 C272 1.351 . S
C272 C266 1.428 . S
C272 N271 1.351 . S
C272 C273 1.434 . S
C273 C264 1.429 . S
C273 N270 1.350 1_556 S
C273 C272 1.434 . S
C274 C275 1.369 1_655 S
C274 C276 1.419 . S
C274 H278 0.930 . S
C275 C274 1.369 1_455 S
C275 C284 1.429 . S
C276 C274 1.419 . S
C276 C277 1.363 1_655 S
C276 H279 0.929 . S
C277 C276 1.363 1_455 S
C277 C283 1.428 . S
H278 C274 0.930 . S
H279 C276 0.929 . S
S280 N281 1.613 . S
S280 N282 1.610 . S
N281 S280 1.613 . S
N281 C284 1.350 . S
N282 S280 1.610 . S
N282 C283 1.351 . S
C283 C277 1.428 . S
C283 N282 1.351 . S
C283 C284 1.434 . S
C284 C275 1.429 . S
C284 N281 1.350 . S
C284 C283 1.434 . S
C285 C286 1.369 . S
C285 C287 1.419 . S
C285 H289 0.930 . S
C286 C285 1.369 . S
C286 C295 1.429 . S
C287 C285 1.419 . S
C287 C288 1.363 . S
C287 H290 0.929 . S
C288 C287 1.363 . S
C288 C294 1.428 . S
H289 C285 0.930 . S
H290 C287 0.929 . S
S291 N292 1.613 . S
S291 N293 1.610 . S
N292 S291 1.613 . S
N292 C295 1.350 . S
N293 S291 1.610 . S
N293 C294 1.351 . S
C294 C288 1.428 . S
C294 N293 1.351 . S
C294 C295 1.434 . S
C295 C286 1.429 . S
C295 N292 1.350 . S
C295 C294 1.434 . S
C296 C297 1.369 . S
C296 C298 1.419 . S
C296 H300 0.930 . S
C297 C296 1.369 . S
C297 C306 1.429 . S
C298 C296 1.419 . S
C298 C299 1.363 . S
C298 H301 0.929 . S
C299 C298 1.363 . S
C299 C305 1.428 . S
H300 C296 0.930 . S
H301 C298 0.929 . S
S302 N303 1.613 . S
S302 N304 1.610 . S
N303 S302 1.613 . S
N303 C306 1.350 . S
N304 S302 1.610 . S
N304 C305 1.351 . S
C305 C299 1.428 . S
C305 N304 1.351 . S
C305 C306 1.434 . S
C306 C297 1.429 . S
C306 N303 1.350 . S
C306 C305 1.434 . S
C307 C308 1.369 . S
C307 C309 1.419 . S
C307 H311 0.930 . S
C308 C307 1.369 . S
C308 C317 1.429 1_455 S
C309 C307 1.419 . S
C309 C310 1.363 . S
C309 H312 0.929 . S
C310 C309 1.363 . S
C310 C316 1.428 1_455 S
H311 C307 0.930 . S
H312 C309 0.929 . S
S313 N314 1.613 . S
S313 N315 1.610 . S
N314 S313 1.613 . S
N314 C317 1.350 . S
N315 S313 1.610 . S
N315 C316 1.351 . S
C316 C310 1.428 1_655 S
C316 N315 1.351 . S
C316 C317 1.434 . S
C317 C308 1.429 1_655 S
C317 N314 1.350 . S
C317 C316 1.434 . S
C189 C63 1.478 . S
C187 C0 1.474 . S
C198 C25 1.508 . S
C200 C111 1.509 . S
C209 C33 1.532 . S
C211 C183 1.517 . S
C220 C11 1.469 . S
C222 C87 1.464 . S
C233 C135 1.492 . S
C231 C14 1.497 . S
C242 C37 1.528 . S
C244 C159 1.529 . S
C255 C120 1.496 . S
C253 C28 1.496 . S
C264 C9 1.528 1_556 S
C266 C174 1.533 . S
C277 C78 1.553 . S
C275 C19 1.551 . S
C288 C126 1.507 . S
C286 C39 1.506 . S
C299 C168 1.533 . S
C297 C5 1.530 1_556 S
C308 C23 1.556 . S
C310 C72 1.556 . S
