# Generated by pormake.
# Topology pyr, (3,6)-cn, num edge types: 1
# Building blocks:
#     Node 0, Type 0, BuildingBlock: MIDCAF_clean_linker_0, # of connection points: 3
#     Node 1, Type 0, BuildingBlock: MIDCAF_clean_linker_0, # of connection points: 3
#     Node 2, Type 0, BuildingBlock: MIDCAF_clean_linker_0, # of connection points: 3
#     Node 3, Type 0, BuildingBlock: MIDCAF_clean_linker_0, # of connection points: 3
#     Node 4, Type 0, BuildingBlock: MIDCAF_clean_linker_0, # of connection points: 3
#     Node 5, Type 0, BuildingBlock: MIDCAF_clean_linker_0, # of connection points: 3
#     Node 6, Type 0, BuildingBlock: MIDCAF_clean_linker_0, # of connection points: 3
#     Node 7, Type 0, BuildingBlock: MIDCAF_clean_linker_0, # of connection points: 3
#     Node 8, Type 1, BuildingBlock: JUFBIX_clean_sbu_0, # of connection points: 6
#     Node 9, Type 1, BuildingBlock: JUFBIX_clean_sbu_0, # of connection points: 6
#     Node 10, Type 1, BuildingBlock: JUFBIX_clean_sbu_0, # of connection points: 6
#     Node 11, Type 1, BuildingBlock: JUFBIX_clean_sbu_0, # of connection points: 6
#     Edge 12, Type (0, 1), BuildingBlock: AJUNOK_clean_linker_0, # of connection points: 2
#     Edge 13, Type (0, 1), BuildingBlock: AJUNOK_clean_linker_0, # of connection points: 2
#     Edge 14, Type (0, 1), BuildingBlock: AJUNOK_clean_linker_0, # of connection points: 2
#     Edge 15, Type (0, 1), BuildingBlock: AJUNOK_clean_linker_0, # of connection points: 2
#     Edge 16, Type (0, 1), BuildingBlock: AJUNOK_clean_linker_0, # of connection points: 2
#     Edge 17, Type (0, 1), BuildingBlock: AJUNOK_clean_linker_0, # of connection points: 2
#     Edge 18, Type (0, 1), BuildingBlock: AJUNOK_clean_linker_0, # of connection points: 2
#     Edge 19, Type (0, 1), BuildingBlock: AJUNOK_clean_linker_0, # of connection points: 2
#     Edge 20, Type (0, 1), BuildingBlock: AJUNOK_clean_linker_0, # of connection points: 2
#     Edge 21, Type (0, 1), BuildingBlock: AJUNOK_clean_linker_0, # of connection points: 2
#     Edge 22, Type (0, 1), BuildingBlock: AJUNOK_clean_linker_0, # of connection points: 2
#     Edge 23, Type (0, 1), BuildingBlock: AJUNOK_clean_linker_0, # of connection points: 2
#     Edge 24, Type (0, 1), BuildingBlock: AJUNOK_clean_linker_0, # of connection points: 2
#     Edge 25, Type (0, 1), BuildingBlock: AJUNOK_clean_linker_0, # of connection points: 2
#     Edge 26, Type (0, 1), BuildingBlock: AJUNOK_clean_linker_0, # of connection points: 2
#     Edge 27, Type (0, 1), BuildingBlock: AJUNOK_clean_linker_0, # of connection points: 2
#     Edge 28, Type (0, 1), BuildingBlock: AJUNOK_clean_linker_0, # of connection points: 2
#     Edge 29, Type (0, 1), BuildingBlock: AJUNOK_clean_linker_0, # of connection points: 2
#     Edge 30, Type (0, 1), BuildingBlock: AJUNOK_clean_linker_0, # of connection points: 2
#     Edge 31, Type (0, 1), BuildingBlock: AJUNOK_clean_linker_0, # of connection points: 2
#     Edge 32, Type (0, 1), BuildingBlock: AJUNOK_clean_linker_0, # of connection points: 2
#     Edge 33, Type (0, 1), BuildingBlock: AJUNOK_clean_linker_0, # of connection points: 2
#     Edge 34, Type (0, 1), BuildingBlock: AJUNOK_clean_linker_0, # of connection points: 2
#     Edge 35, Type (0, 1), BuildingBlock: AJUNOK_clean_linker_0, # of connection points: 2
# Relax obj value: 0.065
# Max RMSD: 0.100
# Mean RMSD: 0.035
data_MOF--net-pry--node1-JUFBIX_clean_sbu_0--node2-MIDCAF_clean_linker_0--edge1-AJUNOK_clean_linker_0
_symmetry_space_group_name_H-M    P1
_symmetry_Int_Tables_number       1
_symmetry_cell_setting            triclinic
loop_
_symmetry_equiv_pos_as_xyz
'x, y, z'
_cell_length_a     35.826356
_cell_length_b     33.829454
_cell_length_c     35.92586
_cell_angle_alpha  83.730604
_cell_angle_beta   90.126321
_cell_angle_gamma 91.32894
loop_
_atom_site_label
_atom_site_type_symbol
_atom_site_fract_x
_atom_site_fract_y
_atom_site_fract_z
_atom_type_partial_charge
C0 C 0.12501 0.13465 0.3046 0.0
C1 C 0.13692 0.09902 0.32431 0.0
C2 C 0.16764 0.0801 0.31001 0.0
C3 C 0.185 0.09581 0.27614 0.0
H4 H 0.27871 0.0874 0.19877 0.0
H5 H 0.33347 0.06129 0.16961 0.0
H6 H 0.32181 0.14924 0.07424 0.0
H7 H 0.2672 0.17495 0.10273 0.0
H8 H 0.2107 0.24959 0.10734 0.0
H9 H 0.17872 0.30737 0.07658 0.0
H10 H 0.08246 0.27806 0.14718 0.0
H11 H 0.11479 0.22154 0.17882 0.0
H12 H 0.13152 0.1776 0.25697 0.0
H13 H 0.10223 0.15072 0.31519 0.0
H14 H 0.1777 0.0527 0.3246 0.0
H15 H 0.20807 0.08013 0.26562 0.0
N16 N 0.21986 0.13292 0.20412 0.0
N17 N 0.21636 0.18122 0.1517 0.0
N18 N 0.17186 0.17933 0.19945 0.0
C19 C 0.23394 0.1495 0.17033 0.0
C20 C 0.18522 0.19625 0.16601 0.0
C21 C 0.1887 0.14793 0.21895 0.0
C22 C 0.26797 0.1333 0.15324 0.0
C23 C 0.28768 0.10116 0.17153 0.0
C24 C 0.31925 0.08621 0.15483 0.0
C25 C 0.33191 0.10267 0.1192 0.0
C26 C 0.3125 0.13506 0.10121 0.0
C27 C 0.28114 0.15005 0.11786 0.0
C28 C 0.16551 0.23072 0.14571 0.0
C29 C 0.18264 0.25534 0.11618 0.0
C30 C 0.16411 0.28838 0.09829 0.0
C31 C 0.12768 0.29736 0.10902 0.0
C32 C 0.11053 0.27244 0.13828 0.0
C33 C 0.12915 0.2398 0.1564 0.0
C34 C 0.17217 0.13094 0.25588 0.0
C35 C 0.14216 0.15022 0.27105 0.0
C36 C 0.334 0.97297 0.57027 0.0
C37 C 0.30767 0.94523 0.55932 0.0
C38 C 0.31925 0.90758 0.55193 0.0
C39 C 0.35631 0.89673 0.55809 0.0
H40 H 0.45365 0.82518 0.53232 0.0
H41 H 0.4698 0.75864 0.51846 0.0
H42 H 0.51074 0.73156 0.63115 0.0
H43 H 0.49499 0.79853 0.64523 0.0
H44 H 0.49211 0.86968 0.70046 0.0
H45 H 0.49888 0.8952 0.76122 0.0
H46 H 0.46815 0.01186 0.7114 0.0
H47 H 0.46009 0.98615 0.65098 0.0
H48 H 0.3902 0.9831 0.5878 0.0
H49 H 0.32542 1.00214 0.5762 0.0
H50 H 0.29917 0.88583 0.54348 0.0
H51 H 0.36391 0.86662 0.55434 0.0
N52 N 0.43141 0.87358 0.57951 0.0
N53 N 0.47537 0.87352 0.62811 0.0
N54 N 0.43351 0.92581 0.6171 0.0
C55 C 0.46045 0.85623 0.59883 0.0
C56 C 0.46231 0.90876 0.63696 0.0
C57 C 0.41778 0.90838 0.58848 0.0
C58 C 0.47309 0.8171 0.58987 0.0
C59 C 0.4664 0.80523 0.5541 0.0
C60 C 0.47573 0.76728 0.54608 0.0
C61 C 0.49152 0.7403 0.57376 0.0
C62 C 0.49857 0.75205 0.60943 0.0
C63 C 0.48978 0.79034 0.61733 0.0
C64 C 0.4749 0.92576 0.67115 0.0
C65 C 0.48763 0.90097 0.70229 0.0
C66 C 0.49149 0.91557 0.73709 0.0
C67 C 0.48299 0.95523 0.74118 0.0
C68 C 0.47368 0.98084 0.70927 0.0
C69 C 0.46934 0.96618 0.67466 0.0
C70 C 0.38206 0.92318 0.57249 0.0
C71 C 0.37094 0.96197 0.577 0.0
C72 C 0.65843 0.23198 0.93964 0.0
C73 C 0.62203 0.22201 0.92857 0.0
C74 C 0.60515 0.24632 0.89936 0.0
C75 C 0.62415 0.27976 0.88166 0.0
H76 H 0.62938 0.34682 0.78082 0.0
H77 H 0.6018 0.37772 0.72349 0.0
H78 H 0.67757 0.4786 0.72503 0.0
H79 H 0.7062 0.44709 0.78244 0.0
H80 H 0.78836 0.41791 0.8362 0.0
H81 H 0.84599 0.4409 0.86494 0.0
H82 H 0.81028 0.3828 0.97217 0.0
H83 H 0.75314 0.35932 0.94374 0.0
H84 H 0.7054 0.27227 0.93131 0.0
H85 H 0.67267 0.21332 0.96135 0.0
H86 H 0.57709 0.23957 0.89027 0.0
H87 H 0.61017 0.29774 0.85927 0.0
N88 N 0.66768 0.34328 0.84073 0.0
N89 N 0.71787 0.38942 0.83742 0.0
N90 N 0.71259 0.33951 0.88827 0.0
C91 C 0.68586 0.37533 0.82238 0.0
C92 C 0.73136 0.37159 0.87052 0.0
C93 C 0.68076 0.32513 0.87355 0.0
C94 C 0.67014 0.3944 0.78652 0.0
C95 C 0.64045 0.37555 0.76908 0.0
C96 C 0.62441 0.39335 0.73614 0.0
C97 C 0.63742 0.43063 0.71956 0.0
C98 C 0.66726 0.44955 0.73671 0.0
C99 C 0.68356 0.43156 0.76975 0.0
C100 C 0.76608 0.38667 0.88758 0.0
C101 C 0.79277 0.41006 0.8659 0.0
C102 C 0.82585 0.42301 0.88226 0.0
C103 C 0.83262 0.41341 0.92073 0.0
C104 C 0.80577 0.39059 0.94247 0.0
C105 C 0.77309 0.37708 0.92607 0.0
C106 C 0.66049 0.28989 0.89284 0.0
C107 C 0.67733 0.26566 0.92219 0.0
C108 C 0.82817 0.60447 0.49661 0.0
C109 C 0.81597 0.56847 0.48409 0.0
C110 C 0.84188 0.54451 0.46861 0.0
C111 C 0.87844 0.55839 0.46178 0.0
H112 H 0.95498 0.5492 0.37762 0.0
H113 H 0.95885 0.52965 0.31461 0.0
H114 H 0.99069 0.65002 0.27219 0.0
H115 H 0.98759 0.66967 0.33571 0.0
H116 H 1.00005 0.73156 0.39737 0.0
H117 H 1.01863 0.79735 0.41389 0.0
H118 H 0.98058 0.76444 0.52709 0.0
H119 H 0.96154 0.69862 0.51079 0.0
H120 H 0.87263 0.64787 0.4968 0.0
H121 H 0.80856 0.62335 0.50873 0.0
H122 H 0.83312 0.51635 0.45927 0.0
H123 H 0.89706 0.54044 0.4473 0.0
N124 N 0.93575 0.60295 0.4201 0.0
N125 N 0.97632 0.65819 0.40942 0.0
N126 N 0.93794 0.65033 0.46289 0.0
C127 C 0.96207 0.6237 0.39861 0.0
C128 C 0.96489 0.6713 0.44195 0.0
C129 C 0.92338 0.61592 0.45212 0.0
C130 C 0.97079 0.61103 0.3616 0.0
C131 C 0.96341 0.57143 0.355 0.0
C132 C 0.9654 0.56025 0.31891 0.0
C133 C 0.97466 0.5884 0.28852 0.0
C134 C 0.98379 0.62765 0.2952 0.0
C135 C 0.98206 0.63885 0.33154 0.0
C136 C 0.97913 0.70987 0.45274 0.0
C137 C 0.99606 0.73806 0.42593 0.0
C138 C 1.00664 0.77573 0.43528 0.0
C139 C 1.00115 0.78567 0.47173 0.0
C140 C 0.98545 0.7572 0.4989 0.0
C141 C 0.97435 0.71969 0.48945 0.0
C142 C 0.88963 0.59655 0.47022 0.0
C143 C 0.86486 0.61845 0.48978 0.0
C144 C 0.72616 0.93029 0.89316 0.0
C145 C 0.71286 0.91247 0.92804 0.0
C146 C 0.73224 0.87973 0.9455 0.0
C147 C 0.7643 0.86581 0.92906 0.0
H148 H 0.83894 0.76852 0.93671 0.0
H149 H 0.87107 0.70885 0.96356 0.0
H150 H 0.96788 0.74467 0.89585 0.0
H151 H 0.93572 0.80325 0.8683 0.0
H152 H 0.9346 0.89461 0.81724 0.0
H153 H 0.96364 0.92528 0.75967 0.0
H154 H 0.85497 0.93515 0.70738 0.0
H155 H 0.82591 0.90746 0.76634 0.0
H156 H 0.76782 0.93145 0.85014 0.0
H157 H 0.71204 0.95553 0.87882 0.0
H158 H 0.72247 0.86457 0.97191 0.0
H159 H 0.77836 0.84073 0.94373 0.0
N160 N 0.8317 0.83824 0.89531 0.0
N161 N 0.87886 0.8465 0.84975 0.0
N162 N 0.82807 0.88949 0.84552 0.0
C163 C 0.86445 0.82615 0.88141 0.0
C164 C 0.86097 0.87789 0.83145 0.0
C165 C 0.81335 0.87008 0.8778 0.0
C166 C 0.8844 0.79075 0.89988 0.0
C167 C 0.86709 0.76372 0.92754 0.0
C168 C 0.88557 0.72947 0.94304 0.0
C169 C 0.92187 0.72133 0.93137 0.0
C170 C 0.93955 0.7491 0.9047 0.0
C171 C 0.92107 0.78303 0.88905 0.0
C172 C 0.87788 0.89885 0.79655 0.0
C173 C 0.91686 0.90397 0.7936 0.0
C174 C 0.93357 0.92133 0.76029 0.0
C175 C 0.91198 0.9332 0.72832 0.0
C176 C 0.8728 0.9279 0.73138 0.0
C177 C 0.85598 0.9116 0.76521 0.0
C178 C 0.77815 0.88412 0.89451 0.0
C179 C 0.75835 0.91647 0.87673 0.0
C180 C 0.56997 0.04138 0.3314 0.0
C181 C 0.55681 0.06802 0.3019 0.0
C182 C 0.54658 0.10628 0.30909 0.0
C183 C 0.55158 0.11854 0.34472 0.0
H184 H 0.52962 0.20768 0.41544 0.0
H185 H 0.51624 0.27578 0.42726 0.0
H186 H 0.60387 0.27182 0.51004 0.0
H187 H 0.61753 0.20418 0.49853 0.0
H188 H 0.67156 0.13674 0.50832 0.0
H189 H 0.73541 0.11769 0.52379 0.0
H190 H 0.72423 0.02036 0.45593 0.0
H191 H 0.66038 0.03857 0.44096 0.0
H192 H 0.5874 0.03312 0.38859 0.0
H193 H 0.57842 0.01185 0.32645 0.0
H194 H 0.5363 0.12729 0.28669 0.0
H195 H 0.54525 0.1489 0.34887 0.0
N196 N 0.56903 0.14375 0.41801 0.0
N197 N 0.61364 0.14138 0.46602 0.0
N198 N 0.60935 0.08997 0.42764 0.0
C199 C 0.58508 0.16022 0.44721 0.0
C200 C 0.6259 0.10622 0.45654 0.0
C201 C 0.58083 0.10832 0.40834 0.0
C202 C 0.5747 0.20034 0.45597 0.0
C203 C 0.54586 0.22115 0.43639 0.0
C204 C 0.5381 0.26006 0.44316 0.0
C205 C 0.5591 0.27885 0.4695 0.0
C206 C 0.5875 0.25799 0.48939 0.0
C207 C 0.59511 0.21913 0.48286 0.0
C208 C 0.66098 0.08963 0.4728 0.0
C209 C 0.68227 0.11059 0.49749 0.0
C210 C 0.7189 0.09981 0.50633 0.0
C211 C 0.73477 0.06772 0.49092 0.0
C212 C 0.71258 0.04491 0.46866 0.0
C213 C 0.67599 0.05562 0.45983 0.0
C214 C 0.5675 0.09289 0.37357 0.0
C215 C 0.57533 0.05371 0.3669 0.0
C216 C 0.23576 0.57104 0.14587 0.0
C217 C 0.21587 0.59548 0.11877 0.0
C218 C 0.22907 0.63469 0.10909 0.0
C219 C 0.26102 0.64917 0.12609 0.0
H220 H 0.33847 0.74267 0.11183 0.0
H221 H 0.37065 0.80254 0.08264 0.0
H222 H 0.46614 0.77661 0.15393 0.0
H223 H 0.43375 0.71766 0.18394 0.0
H224 H 0.41864 0.66645 0.25799 0.0
H225 H 0.44789 0.63686 0.31469 0.0
H226 H 0.37118 0.53635 0.31859 0.0
H227 H 0.34088 0.56639 0.26109 0.0
H228 H 0.28216 0.56603 0.1839 0.0
H229 H 0.22711 0.54033 0.15332 0.0
H230 H 0.2144 0.65446 0.08857 0.0
H231 H 0.27009 0.67963 0.11785 0.0
N232 N 0.3324 0.6742 0.15403 0.0
N233 N 0.37772 0.67055 0.20106 0.0
N234 N 0.32949 0.62223 0.20334 0.0
C235 C 0.3639 0.68916 0.16885 0.0
C236 C 0.3609 0.63734 0.21872 0.0
C237 C 0.31501 0.64073 0.17089 0.0
C238 C 0.38344 0.72523 0.15026 0.0
C239 C 0.36637 0.74962 0.12119 0.0
C240 C 0.38494 0.78381 0.10426 0.0
C241 C 0.42117 0.79408 0.11565 0.0
C242 C 0.43819 0.76966 0.14464 0.0
C243 C 0.41957 0.73575 0.16177 0.0
C244 C 0.37747 0.61867 0.25438 0.0
C245 C 0.40775 0.63796 0.27053 0.0
C246 C 0.42481 0.62092 0.30313 0.0
C247 C 0.41241 0.58389 0.32067 0.0
C248 C 0.38148 0.56485 0.30546 0.0
C249 C 0.36421 0.58202 0.27252 0.0
C250 C 0.28066 0.62497 0.15353 0.0
C251 C 0.26754 0.58571 0.16329 0.0
C252 C 0.07293 0.27617 0.54835 0.0
C253 C 0.04451 0.25512 0.56932 0.0
C254 C 0.02433 0.27445 0.59522 0.0
C255 C 0.03348 0.31386 0.60098 0.0
H256 H 0.03299 0.39186 0.68577 0.0
H257 H 0.02548 0.41629 0.74679 0.0
H258 H 0.07855 0.52796 0.7045 0.0
H259 H 0.08632 0.50377 0.64367 0.0
H260 H 0.16425 0.48721 0.60415 0.0
H261 H 0.23039 0.49957 0.59236 0.0
H262 H 0.22879 0.41289 0.51262 0.0
H263 H 0.1626 0.39919 0.52532 0.0
H264 H 0.1045 0.3303 0.53751 0.0
H265 H 0.08866 0.26199 0.52798 0.0
H266 H 1.0024 0.25868 0.61188 0.0
H267 H 1.0182 0.32761 0.62193 0.0
N268 N 0.05984 0.39272 0.61722 0.0
N269 N 0.10461 0.44458 0.60828 0.0
N270 N 0.10644 0.39194 0.57145 0.0
C271 C 0.07399 0.42806 0.62652 0.0
C272 C 0.12106 0.42685 0.58077 0.0
C273 C 0.0757 0.37476 0.58919 0.0
C274 C 0.06082 0.44559 0.66002 0.0
C275 C 0.04197 0.42206 0.68908 0.0
C276 C 0.0376 0.43608 0.72404 0.0
C277 C 0.05175 0.4739 0.73035 0.0
C278 C 0.06775 0.49856 0.70042 0.0
C279 C 0.07215 0.48462 0.66561 0.0
C280 C 0.15825 0.44133 0.56648 0.0
C281 C 0.17764 0.47122 0.58353 0.0
C282 C 0.21563 0.4785 0.57669 0.0
C283 C 0.23493 0.45633 0.55244 0.0
C284 C 0.21478 0.42946 0.53241 0.0
C285 C 0.17681 0.42185 0.53951 0.0
C286 C 0.06286 0.33459 0.5808 0.0
C287 C 0.08188 0.31543 0.55384 0.0
Co288 Co 0.99689 0.02424 0.51256 0.0
C289 C 0.02195 0.94727 0.50915 0.0
Co290 Co 0.05065 0.01193 0.54032 0.0
C291 C 0.92024 0.04574 0.50246 0.0
C292 C 0.94255 0.02221 0.45436 0.0
N293 N 0.95196 0.03257 0.48845 0.0
N294 N 0.89155 0.04362 0.47856 0.0
C295 C 0.90518 0.02879 0.4483 0.0
H296 H 0.91777 0.0549 0.53028 0.0
H297 H 0.96126 1.00899 0.43589 0.0
C298 C 0.02545 0.08903 0.54381 0.0
N299 N 0.0956 1.00312 0.56445 0.0
C300 C 0.12738 0.99047 0.55011 0.0
C301 C 0.10367 1.00755 0.60049 0.0
N302 N 0.15473 0.98651 0.57587 0.0
C303 C 0.14009 0.99715 0.60764 0.0
C304 C 0.05841 0.04156 0.46461 0.0
O305 O 0.99798 0.0772 0.52519 0.0
O306 O 0.05145 0.06502 0.55335 0.0
O307 O 0.07666 0.03003 0.49411 0.0
O308 O 0.02296 0.04152 0.4667 0.0
O309 O 0.04973 0.95906 0.52731 0.0
H310 H 0.08436 0.01777 0.62027 0.0
H311 H 0.13034 0.98377 0.52149 0.0
O312 O 0.99592 0.97123 0.49996 0.0
O313 O 0.97093 1.0069 0.55856 0.0
O314 O 0.02429 0.99357 0.58615 0.0
C315 C 0.98884 0.99418 0.58786 0.0
H316 H 0.88892 0.02182 0.42433 0.0
H317 H 0.15486 0.99787 0.63389 0.0
Co318 Co 0.50715 1.00563 0.99632 0.0
C319 C 0.49645 0.94007 0.05008 0.0
Co320 Co 0.53703 0.01023 0.04917 0.0
C321 C 0.49432 1.00166 0.91758 0.0
C322 C 0.44466 0.98941 0.95025 0.0
N323 N 0.48102 0.99991 0.95285 0.0
N324 N 0.46769 0.99264 0.89308 0.0
C325 C 0.4364 0.98481 0.91358 0.0
H326 H 0.52321 1.00843 0.91015 0.0
H327 H 0.42575 0.98381 0.97377 0.0
C328 C 0.54765 0.07587 0.99532 0.0
N329 N 0.56314 0.01609 0.09268 0.0
C330 C 0.54938 0.01641 0.12758 0.0
C331 C 0.59953 0.02659 0.09528 0.0
N332 N 0.57561 0.02724 0.15169 0.0
C333 C 0.60722 0.03366 0.1315 0.0
C334 C 0.57952 0.97537 0.99595 0.0
O335 O 0.52588 0.05639 0.97567 0.0
O336 O 0.55572 0.06104 0.0283 0.0
O337 O 0.57965 0.98544 0.02909 0.0
O338 O 0.55002 0.98114 0.97648 0.0
O339 O 0.51808 0.95953 0.06991 0.0
H340 H 0.61873 0.03094 0.07193 0.0
H341 H 0.52017 0.0114 0.13464 0.0
O342 O 0.48864 0.95487 1.01704 0.0
O343 O 0.46435 0.0302 1.01656 0.0
O344 O 0.49429 0.03484 0.06891 0.0
C345 C 0.46462 0.0403 0.0497 0.0
H346 H 0.40996 0.97438 0.90324 0.0
H347 H 0.63358 0.04426 0.1419 0.0
Co348 Co 0.55271 0.51964 0.50638 0.0
C349 C 0.49091 0.52763 0.45847 0.0
Co350 Co 0.49934 0.50087 0.53394 0.0
C351 C 0.63191 0.52796 0.49137 0.0
C352 C 0.59985 0.569 0.4555 0.0
N353 N 0.59652 0.53858 0.48301 0.0
N354 N 0.65699 0.55048 0.47013 0.0
C355 C 0.637 0.57631 0.44747 0.0
H356 H 0.63929 0.50467 0.513 0.0
H357 H 0.57684 0.58587 0.44305 0.0
C358 C 0.56158 0.49247 0.58154 0.0
N359 N 0.45538 0.48159 0.5571 0.0
C360 C 0.41985 0.4893 0.54648 0.0
C361 C 0.45233 0.45198 0.58542 0.0
N362 N 0.39501 0.46515 0.56648 0.0
C363 C 0.4153 0.44201 0.59138 0.0
C364 C 0.53635 0.44102 0.50192 0.0
O365 O 0.57904 0.50695 0.55229 0.0
O366 O 0.52636 0.48758 0.57963 0.0
O367 O 0.5076 0.44958 0.51974 0.0
O368 O 0.56115 0.46789 0.49313 0.0
O369 O 0.47298 0.51443 0.48786 0.0
H370 H 0.47555 0.43721 0.59978 0.0
H371 H 0.4123 0.51074 0.52326 0.0
O372 O 0.52612 0.53194 0.46065 0.0
O373 O 0.54394 0.57124 0.51973 0.0
O374 O 0.49126 0.55237 0.54801 0.0
C375 C 0.5154 0.5796 0.53801 0.0
H376 H 0.64854 0.59995 0.42781 0.0
H377 H 0.40424 0.41895 0.61193 0.0
Co378 Co 0.03928 0.50663 0.99127 0.0
C379 C 0.96676 0.47342 0.99059 0.0
Co380 Co 1.00832 0.50814 0.04376 0.0
C381 C 0.04831 0.51014 0.91171 0.0
C382 C 0.09843 0.4926 0.94093 0.0
N383 N 0.06352 0.50476 0.94624 0.0
N384 N 0.07201 0.50087 0.88495 0.0
C385 C 0.10372 0.49018 0.90335 0.0
H386 H 1.02007 0.51994 0.90668 0.0
H387 H 0.1181 0.48421 0.96312 0.0
C388 C 0.08119 0.53994 0.04525 0.0
N389 N 0.98406 0.50919 0.0888 0.0
C390 C 0.98684 0.53754 0.11237 0.0
C391 C 0.96361 0.47948 0.10735 0.0
N392 N 0.96966 0.52635 0.14538 0.0
C393 C 0.95468 0.48994 0.14209 0.0
C394 C 0.05086 0.43968 0.04201 0.0
O395 O 0.08204 0.53281 1.01118 0.0
O396 O 0.05127 0.53233 0.06378 0.0
O397 O 0.02794 0.45692 0.06152 0.0
O398 O 0.05944 0.45623 1.0096 0.0
O399 O 0.96542 0.48356 0.02358 0.0
H400 H 0.95713 0.45128 0.09697 0.0
H401 H 1.00191 0.56545 0.10554 0.0
O402 O 0.99673 0.48015 0.97189 0.0
O403 O 1.01882 0.55707 0.97309 0.0
O404 O 0.98897 0.55947 0.02586 0.0
C405 C 0.99669 0.57511 0.9928 0.0
H406 H 0.12843 0.47938 0.89084 0.0
H407 H 0.93997 0.47129 0.16397 0.0
C408 C 0.13639 0.07056 0.39272 0.0
C409 C 0.11679 0.08205 0.35937 0.0
C410 C 0.11747 0.05736 0.42643 0.0
C411 C 0.07808 0.05486 0.42829 0.0
H412 H 0.1666 0.07273 0.39301 0.0
H413 H 0.13395 0.04947 0.45134 0.0
S414 S 1.01375 0.07783 0.34783 0.0
N415 N 0.05578 0.08729 0.32984 0.0
N416 N 0.02041 0.06302 0.39261 0.0
C417 C 0.05827 0.06523 0.39478 0.0
C418 C 0.07751 0.07863 0.36059 0.0
C419 C 0.50882 0.96009 0.80556 0.0
C420 C 0.48032 0.96856 0.77908 0.0
C421 C 0.50514 0.96937 0.84246 0.0
C422 C 0.47267 0.98707 0.85426 0.0
H423 H 0.53388 0.94563 0.79783 0.0
H424 H 0.52725 0.96129 0.86224 0.0
S425 S 0.39068 0.01683 0.79554 0.0
N426 N 0.41887 0.9965 0.76713 0.0
N427 N 0.41254 0.01474 0.83617 0.0
C428 C 0.4445 0.99674 0.82782 0.0
C429 C 0.4482 0.98734 0.79031 0.0
C430 C 0.57988 0.44931 0.6822 0.0
C431 C 0.61912 0.44936 0.68479 0.0
C432 C 0.5617 0.4641 0.64911 0.0
C433 C 0.5819 0.47969 0.61701 0.0
H434 H 0.56296 0.43742 0.70595 0.0
H435 H 0.53147 0.46274 0.64865 0.0
S436 S 0.68536 0.48725 0.60922 0.0
N437 N 0.67769 0.4666 0.65239 0.0
N438 N 0.64372 0.49506 0.59045 0.0
C439 C 0.62123 0.4808 0.61949 0.0
C440 C 0.63976 0.46556 0.65326 0.0
C441 C 0.9414 0.55518 0.23895 0.0
C442 C 0.97288 0.5766 0.25001 0.0
C443 C 0.94007 0.54036 0.20414 0.0
C444 C 0.97016 0.54624 0.17893 0.0
H445 H 0.91775 0.54932 0.25765 0.0
H446 H 0.91545 0.52355 0.19712 0.0
S447 S 0.05846 0.6022 0.19398 0.0
N448 N 0.03421 0.60455 0.23265 0.0
N449 N 0.03203 0.57646 0.16713 0.0
C450 C 1.00131 0.569 0.18906 0.0
C451 C 1.00257 0.58423 0.22462 0.0
C452 C 0.39868 0.07903 0.1211 0.0
C453 C 0.36531 0.08647 0.10091 0.0
C454 C 0.43052 0.06471 0.10427 0.0
C455 C 0.43054 0.05677 0.06646 0.0
H456 H 0.40041 0.08483 0.15012 0.0
H457 H 0.45532 0.05965 0.12126 0.0
S458 S 0.34959 0.06922 1.00164 0.0
N459 N 0.33399 0.08333 0.04121 0.0
N460 N 0.39337 0.05673 1.0097 0.0
C461 C 0.39718 0.06374 0.04606 0.0
C462 C 0.36482 0.07847 0.06318 0.0
C463 C 0.25147 0.98336 0.53686 0.0
C464 C 0.26762 0.95345 0.56151 0.0
C465 C 0.21398 0.99326 0.54094 0.0
C466 C 0.19213 0.97425 0.57039 0.0
H467 H 0.268 0.99936 0.51464 0.0
H468 H 0.20229 0.01672 0.52181 0.0
S469 S 0.22136 0.89361 0.64168 0.0
N470 N 0.25889 0.9043 0.61555 0.0
N471 N 0.18872 0.92367 0.62365 0.0
C472 C 0.2079 0.9441 0.59485 0.0
C473 C 0.24566 0.9335 0.5903 0.0
C474 C 0.86499 0.44972 0.96935 0.0
C475 C 0.8673 0.42761 0.93849 0.0
C476 C 0.89727 0.46375 0.98644 0.0
C477 C 0.93317 0.45619 0.97335 0.0
H478 H 0.83796 0.45675 0.98003 0.0
H479 H 0.89401 0.48132 1.00963 0.0
S480 S 0.95432 0.39469 0.89688 0.0
N481 N 0.90826 0.39564 0.89777 0.0
N482 N 0.96895 0.42194 0.92972 0.0
C483 C 0.93584 0.43305 0.94319 0.0
C484 C 0.90293 0.4188 0.92582 0.0
C485 C 0.75238 0.55637 0.5128 0.0
C486 C 0.77559 0.5595 0.48107 0.0
C487 C 0.71354 0.55155 0.50927 0.0
C488 C 0.69685 0.55066 0.47387 0.0
H489 H 0.76427 0.5583 0.54031 0.0
H490 H 0.69629 0.55022 0.5341 0.0
S491 S 0.74534 0.55702 0.3825 0.0
N492 N 0.77916 0.56057 0.41335 0.0
N493 N 0.70622 0.55198 0.40695 0.0
C494 C 0.7198 0.55305 0.44217 0.0
C495 C 0.75919 0.55736 0.44572 0.0
C496 C 0.0877 0.35732 0.11289 0.0
C497 C 0.10777 0.33308 0.09081 0.0
C498 C 0.06882 0.39101 0.09683 0.0
C499 C 0.06928 0.4023 0.0579 0.0
H500 H 0.08703 0.35064 0.14306 0.0
H501 H 0.05438 0.40882 0.1153 0.0
S502 S 0.11538 0.3477 0.98707 0.0
N503 N 0.12494 0.32174 0.02745 0.0
N504 N 0.09039 0.3854 0.99744 0.0
C505 C 0.08882 0.37812 0.03537 0.0
C506 C 0.10783 0.34357 0.05173 0.0
C507 C 0.58336 0.15976 0.92428 0.0
C508 C 0.60202 0.18574 0.94656 0.0
C509 C 0.56518 0.12485 0.94032 0.0
C510 C 0.56506 0.1143 0.97933 0.0
H511 H 0.58344 0.16602 0.89405 0.0
H512 H 0.55185 0.10554 0.92185 0.0
S513 S 0.60704 0.17382 0.05039 0.0
N514 N 0.61698 0.19984 1.00989 0.0
N515 N 0.58357 0.1339 0.04003 0.0
C516 C 0.58294 0.14042 1.00203 0.0
C517 C 0.60125 0.17613 0.98567 0.0
C518 C 0.99108 0.85853 0.46005 0.0
C519 C 1.009 0.8267 0.4806 0.0
C520 C 0.99585 0.89745 0.4693 0.0
C521 C 1.01919 0.90607 0.49907 0.0
H522 H 0.97246 0.85313 0.43725 0.0
H523 H 0.98096 0.92094 0.45304 0.0
S524 S 0.07372 0.83313 0.56041 0.0
N525 N 0.05164 0.8061 0.53128 0.0
N526 N 0.06126 0.8795 0.54844 0.0
C527 C 0.03807 0.87456 0.51924 0.0
C528 C 0.03274 0.83479 0.51011 0.0
C529 C 0.48165 0.66673 0.58606 0.0
C530 C 0.49946 0.69952 0.56548 0.0
C531 C 0.48681 0.62797 0.57691 0.0
C532 C 0.51044 0.62071 0.54728 0.0
H533 H 0.46296 0.67119 0.60882 0.0
H534 H 0.47227 0.60357 0.59327 0.0
S535 S 0.5643 0.69687 0.48567 0.0
N536 N 0.54194 0.72256 0.51479 0.0
N537 N 0.55222 0.64984 0.49774 0.0
C538 C 0.52891 0.65338 0.52695 0.0
C539 C 0.52324 0.69277 0.53599 0.0
C540 C 0.96517 0.93431 0.68164 0.0
C541 C 0.93074 0.94959 0.69201 0.0
C542 C 0.98383 0.94918 0.64838 0.0
C543 C 0.96868 0.97949 0.62331 0.0
H544 H 0.97782 0.91017 0.69915 0.0
H545 H 1.0101 0.93622 0.64194 0.0
S546 S 0.88065 0.03173 0.6371 0.0
N547 N 0.8836 0.999 0.67455 0.0
N548 N 0.91769 0.02517 0.61142 0.0
C549 C 0.93434 0.99506 0.63296 0.0
C550 C 0.91565 0.98056 0.66729 0.0
C551 C 0.57998 0.08255 0.23652 0.0
C552 C 0.5588 0.05784 0.26295 0.0
C553 C 0.58547 0.07221 0.20032 0.0
C554 C 0.56962 0.03702 0.1891 0.0
H555 H 0.59323 0.10962 0.24418 0.0
H556 H 0.60206 0.092 0.18085 0.0
S557 S 0.5111 0.96265 0.24735 0.0
N558 N 0.52144 0.99696 0.27537 0.0
N559 N 0.53151 0.9777 0.20691 0.0
C560 C 0.54782 0.01238 0.21497 0.0
C561 C 0.54256 0.02269 0.25205 0.0
C562 C 0.41274 0.55345 0.38796 0.0
C563 C 0.43231 0.56576 0.35463 0.0
C564 C 0.43177 0.54036 0.42123 0.0
C565 C 0.47111 0.53899 0.42241 0.0
H566 H 0.38261 0.55523 0.38866 0.0
H567 H 0.4155 0.53218 0.44638 0.0
S568 S 0.53491 0.56364 0.34131 0.0
N569 N 0.49284 0.57246 0.324 0.0
N570 N 0.52857 0.54821 0.38607 0.0
C571 C 0.49079 0.54969 0.38875 0.0
C572 C 0.47143 0.56295 0.35503 0.0
C573 C 0.08964 0.49698 0.78243 0.0
C574 C 0.05465 0.48536 0.76895 0.0
C575 C 0.09456 0.50348 0.81993 0.0
C576 C 0.06477 0.4986 0.84561 0.0
H577 H 0.1138 0.49963 0.76417 0.0
H578 H 0.12222 0.51167 0.82905 0.0
S579 S 0.9664 0.47294 0.82281 0.0
N580 N 0.98898 0.47276 0.78285 0.0
N581 N 0.99805 0.48406 0.85373 0.0
C582 C 0.02911 0.48879 0.83197 0.0
C583 C 0.02416 0.48223 0.7936 0.0
C584 C 0.6462 0.93647 0.92531 0.0
C585 C 0.67904 0.92805 0.94613 0.0
C586 C 0.61424 0.95109 0.94168 0.0
C587 C 0.61359 0.95841 0.97964 0.0
H588 H 0.64502 0.93137 0.89608 0.0
H589 H 0.58989 0.95699 0.9242 0.0
S590 S 0.69288 0.94291 0.04622 0.0
N591 N 0.7091 0.92929 1.00669 0.0
N592 N 0.64951 0.95647 0.03736 0.0
C593 C 0.64637 0.95028 1.00073 0.0
C594 C 0.67883 0.93521 0.98407 0.0
C595 C 0.80037 0.0938 0.48386 0.0
C596 C 0.77549 0.06142 0.4935 0.0
C597 C 0.83872 0.088 0.48024 0.0
C598 C 0.85317 0.04974 0.4861 0.0
H599 H 0.78996 0.12357 0.47733 0.0
H600 H 0.85704 0.11321 0.47152 0.0
S601 S 0.80125 0.95597 0.51589 0.0
N602 N 0.76893 0.99025 0.51211 0.0
N603 N 0.84119 0.97963 0.50464 0.0
C604 C 0.82917 0.01747 0.49736 0.0
C605 C 0.79021 0.02324 0.50122 0.0
C606 C 0.17623 0.58866 0.06147 0.0
C607 C 0.18147 0.58054 0.10049 0.0
C608 C 0.1439 0.57548 0.0437 0.0
C609 C 0.11519 0.55411 0.06428 0.0
H610 H 0.19751 0.60503 0.04438 0.0
H611 H 0.14128 0.58236 1.01366 0.0
S612 S 0.11563 0.52338 0.16682 0.0
N613 N 0.15514 0.54895 0.15893 0.0
N614 N 0.09493 0.52383 0.1257 0.0
C615 C 0.12019 0.54547 0.10325 0.0
C616 C 0.15314 0.55867 0.12126 0.0
C617 C 0.29568 0.49499 0.54886 0.0
C618 C 0.27634 0.45808 0.55178 0.0
C619 C 0.33462 0.4971 0.55278 0.0
C620 C 0.35542 0.46242 0.56026 0.0
H621 H 0.28052 0.52243 0.54416 0.0
H622 H 0.34845 0.52604 0.55115 0.0
S623 S 0.31861 0.35849 0.5681 0.0
N624 N 0.28126 0.38603 0.5613 0.0
N625 N 0.35438 0.39016 0.56766 0.0
C626 C 0.33663 0.42537 0.56196 0.0
C627 C 0.2971 0.42316 0.55791 0.0
C628 C 0.94079 0.67102 0.98525 0.0
C629 C 0.94119 0.68395 0.94657 0.0
C630 C 0.95904 0.63623 0.99998 0.0
C631 C 0.97861 0.61277 0.97674 0.0
H632 H 0.92656 0.68815 1.00442 0.0
H633 H 0.95782 0.62773 0.02992 0.0
S634 S 0.98574 0.63171 0.87307 0.0
N635 N 0.96107 0.66891 0.88511 0.0
N636 N 0.99571 0.60443 0.9126 0.0
C637 C 0.97891 0.62521 0.93795 0.0
C638 C 0.96018 0.66045 0.92297 0.0
C639 C 0.45943 0.85644 0.12062 0.0
C640 C 0.44108 0.83054 0.09804 0.0
C641 C 0.47797 0.89125 0.10486 0.0
C642 C 0.47878 0.90173 0.06586 0.0
H643 H 0.45891 0.85014 0.15083 0.0
H644 H 0.49106 0.91052 0.12353 0.0
S645 S 0.43771 0.84239 0.99416 0.0
N646 N 0.42703 0.81648 0.03451 0.0
N647 N 0.46115 0.88219 1.00487 0.0
C648 C 0.46114 0.8757 0.04289 0.0
C649 C 0.44245 0.84013 0.05896 0.0
C650 C 0.06782 0.18629 0.56916 0.0
C651 C 0.03778 0.21242 0.56521 0.0
C652 C 0.06321 0.14627 0.56321 0.0
C653 C 0.02843 0.13084 0.55259 0.0
H654 H 0.09527 0.19701 0.57663 0.0
H655 H 0.08742 0.12758 0.56608 0.0
S656 S 0.94053 0.18686 0.53988 0.0
N657 N 0.97183 0.22009 0.55129 0.0
N658 N 0.96297 0.14477 0.53976 0.0
C659 C 0.9979 0.15653 0.54931 0.0
C660 C 1.0026 0.19731 0.55577 0.0
C661 C 0.58174 0.34855 0.47383 0.0
C662 C 0.55208 0.32042 0.47611 0.0
C663 C 0.57625 0.38771 0.48149 0.0
C664 C 0.54098 0.40002 0.49219 0.0
H665 H 0.60944 0.34015 0.46611 0.0
H666 H 0.60002 0.40822 0.47968 0.0
S667 S 0.45411 0.33749 0.50183 0.0
N668 N 0.48625 0.30734 0.48931 0.0
N669 N 0.47567 0.38087 0.50386 0.0
C670 C 0.51096 0.37216 0.49416 0.0
C671 C 0.51656 0.33239 0.48603 0.0
loop_
_geom_bond_atom_site_label_1
_geom_bond_atom_site_label_2
_geom_bond_distance
_geom_bond_site_symmetry_2
_ccdc_geom_bond_type
C0 C1 1.384 . S
C0 H13 0.947 . S
C0 C35 1.382 . S
C1 C0 1.384 . S
C1 C2 1.378 . S
C2 C1 1.378 . S
C2 C3 1.378 . S
C2 H14 0.952 . S
C3 C2 1.378 . S
C3 H15 0.950 . S
C3 C34 1.383 . S
H4 C23 0.947 . S
H5 C24 0.946 . S
H6 C26 0.953 . S
H7 C27 0.945 . S
H8 C29 0.952 . S
H9 C30 0.949 . S
H10 C32 0.950 . S
H11 C33 0.948 . S
H12 C35 0.951 . S
H13 C0 0.947 . S
H14 C2 0.952 . S
H15 C3 0.950 . S
N16 C19 1.382 . S
N16 C21 1.363 . S
N17 C19 1.371 . S
N17 C20 1.372 . S
N18 C20 1.361 . S
N18 C21 1.377 . S
C19 N16 1.382 . S
C19 N17 1.371 . S
C19 C22 1.480 . S
C20 N17 1.372 . S
C20 N18 1.361 . S
C20 C28 1.457 . S
C21 N16 1.363 . S
C21 N18 1.377 . S
C21 C34 1.479 . S
C22 C19 1.480 . S
C22 C23 1.383 . S
C22 C27 1.385 . S
C23 H4 0.947 . S
C23 C22 1.383 . S
C23 C24 1.388 . S
C24 H5 0.946 . S
C24 C23 1.388 . S
C24 C25 1.384 . S
C25 C24 1.384 . S
C25 C26 1.377 . S
C26 H6 0.953 . S
C26 C25 1.377 . S
C26 C27 1.369 . S
C27 H7 0.945 . S
C27 C22 1.385 . S
C27 C26 1.369 . S
C28 C20 1.457 . S
C28 C29 1.372 . S
C28 C33 1.364 . S
C29 H8 0.952 . S
C29 C28 1.372 . S
C29 C30 1.389 . S
C30 H9 0.949 . S
C30 C29 1.389 . S
C30 C31 1.387 . S
C31 C30 1.387 . S
C31 C32 1.372 . S
C32 H10 0.950 . S
C32 C31 1.372 . S
C32 C33 1.379 . S
C33 H11 0.948 . S
C33 C28 1.364 . S
C33 C32 1.379 . S
C34 C3 1.383 . S
C34 C21 1.479 . S
C34 C35 1.398 . S
C35 C0 1.382 . S
C35 H12 0.951 . S
C35 C34 1.398 . S
C36 C37 1.384 . S
C36 H49 0.947 . S
C36 C71 1.382 . S
C37 C36 1.384 . S
C37 C38 1.378 . S
C38 C37 1.378 . S
C38 C39 1.378 . S
C38 H50 0.952 . S
C39 C38 1.378 . S
C39 H51 0.950 . S
C39 C70 1.383 . S
H40 C59 0.947 . S
H41 C60 0.946 . S
H42 C62 0.953 . S
H43 C63 0.945 . S
H44 C65 0.952 . S
H45 C66 0.949 . S
H46 C68 0.950 . S
H47 C69 0.948 . S
H48 C71 0.951 . S
H49 C36 0.947 . S
H50 C38 0.952 . S
H51 C39 0.950 . S
N52 C55 1.382 . S
N52 C57 1.363 . S
N53 C55 1.371 . S
N53 C56 1.372 . S
N54 C56 1.361 . S
N54 C57 1.377 . S
C55 N52 1.382 . S
C55 N53 1.371 . S
C55 C58 1.480 . S
C56 N53 1.372 . S
C56 N54 1.361 . S
C56 C64 1.457 . S
C57 N52 1.363 . S
C57 N54 1.377 . S
C57 C70 1.479 . S
C58 C55 1.480 . S
C58 C59 1.383 . S
C58 C63 1.385 . S
C59 H40 0.947 . S
C59 C58 1.383 . S
C59 C60 1.388 . S
C60 H41 0.946 . S
C60 C59 1.388 . S
C60 C61 1.384 . S
C61 C60 1.384 . S
C61 C62 1.377 . S
C62 H42 0.953 . S
C62 C61 1.377 . S
C62 C63 1.369 . S
C63 H43 0.945 . S
C63 C58 1.385 . S
C63 C62 1.369 . S
C64 C56 1.457 . S
C64 C65 1.372 . S
C64 C69 1.364 . S
C65 H44 0.952 . S
C65 C64 1.372 . S
C65 C66 1.389 . S
C66 H45 0.949 . S
C66 C65 1.389 . S
C66 C67 1.387 . S
C67 C66 1.387 . S
C67 C68 1.372 . S
C68 H46 0.950 . S
C68 C67 1.372 . S
C68 C69 1.379 . S
C69 H47 0.948 . S
C69 C64 1.364 . S
C69 C68 1.379 . S
C70 C39 1.383 . S
C70 C57 1.479 . S
C70 C71 1.398 . S
C71 C36 1.382 . S
C71 H48 0.951 . S
C71 C70 1.398 . S
C72 C73 1.384 . S
C72 H85 0.947 . S
C72 C107 1.382 . S
C73 C72 1.384 . S
C73 C74 1.378 . S
C74 C73 1.378 . S
C74 C75 1.378 . S
C74 H86 0.952 . S
C75 C74 1.378 . S
C75 H87 0.950 . S
C75 C106 1.383 . S
H76 C95 0.947 . S
H77 C96 0.946 . S
H78 C98 0.953 . S
H79 C99 0.945 . S
H80 C101 0.952 . S
H81 C102 0.949 . S
H82 C104 0.950 . S
H83 C105 0.948 . S
H84 C107 0.951 . S
H85 C72 0.947 . S
H86 C74 0.952 . S
H87 C75 0.950 . S
N88 C91 1.382 . S
N88 C93 1.363 . S
N89 C91 1.371 . S
N89 C92 1.372 . S
N90 C92 1.361 . S
N90 C93 1.377 . S
C91 N88 1.382 . S
C91 N89 1.371 . S
C91 C94 1.480 . S
C92 N89 1.372 . S
C92 N90 1.361 . S
C92 C100 1.457 . S
C93 N88 1.363 . S
C93 N90 1.377 . S
C93 C106 1.479 . S
C94 C91 1.480 . S
C94 C95 1.383 . S
C94 C99 1.385 . S
C95 H76 0.947 . S
C95 C94 1.383 . S
C95 C96 1.388 . S
C96 H77 0.946 . S
C96 C95 1.388 . S
C96 C97 1.384 . S
C97 C96 1.384 . S
C97 C98 1.377 . S
C98 H78 0.953 . S
C98 C97 1.377 . S
C98 C99 1.369 . S
C99 H79 0.945 . S
C99 C94 1.385 . S
C99 C98 1.369 . S
C100 C92 1.457 . S
C100 C101 1.372 . S
C100 C105 1.364 . S
C101 H80 0.952 . S
C101 C100 1.372 . S
C101 C102 1.389 . S
C102 H81 0.949 . S
C102 C101 1.389 . S
C102 C103 1.387 . S
C103 C102 1.387 . S
C103 C104 1.372 . S
C104 H82 0.950 . S
C104 C103 1.372 . S
C104 C105 1.379 . S
C105 H83 0.948 . S
C105 C100 1.364 . S
C105 C104 1.379 . S
C106 C75 1.383 . S
C106 C93 1.479 . S
C106 C107 1.398 . S
C107 C72 1.382 . S
C107 H84 0.951 . S
C107 C106 1.398 . S
C108 C109 1.384 . S
C108 H121 0.947 . S
C108 C143 1.382 . S
C109 C108 1.384 . S
C109 C110 1.378 . S
C110 C109 1.378 . S
C110 C111 1.378 . S
C110 H122 0.952 . S
C111 C110 1.378 . S
C111 H123 0.950 . S
C111 C142 1.383 . S
H112 C131 0.947 . S
H113 C132 0.946 . S
H114 C134 0.953 1_455 S
H115 C135 0.945 . S
H116 C137 0.952 . S
H117 C138 0.949 1_455 S
H118 C140 0.950 . S
H119 C141 0.948 . S
H120 C143 0.951 . S
H121 C108 0.947 . S
H122 C110 0.952 . S
H123 C111 0.950 . S
N124 C127 1.382 . S
N124 C129 1.363 . S
N125 C127 1.371 . S
N125 C128 1.372 . S
N126 C128 1.361 . S
N126 C129 1.377 . S
C127 N124 1.382 . S
C127 N125 1.371 . S
C127 C130 1.480 . S
C128 N125 1.372 . S
C128 N126 1.361 . S
C128 C136 1.457 . S
C129 N124 1.363 . S
C129 N126 1.377 . S
C129 C142 1.479 . S
C130 C127 1.480 . S
C130 C131 1.383 . S
C130 C135 1.385 . S
C131 H112 0.947 . S
C131 C130 1.383 . S
C131 C132 1.388 . S
C132 H113 0.946 . S
C132 C131 1.388 . S
C132 C133 1.384 . S
C133 C132 1.384 . S
C133 C134 1.377 . S
C134 H114 0.953 1_655 S
C134 C133 1.377 . S
C134 C135 1.369 . S
C135 H115 0.945 . S
C135 C130 1.385 . S
C135 C134 1.369 . S
C136 C128 1.457 . S
C136 C137 1.372 . S
C136 C141 1.364 . S
C137 H116 0.952 . S
C137 C136 1.372 . S
C137 C138 1.389 . S
C138 H117 0.949 1_655 S
C138 C137 1.389 . S
C138 C139 1.387 . S
C139 C138 1.387 . S
C139 C140 1.372 . S
C140 H118 0.950 . S
C140 C139 1.372 . S
C140 C141 1.379 . S
C141 H119 0.948 . S
C141 C136 1.364 . S
C141 C140 1.379 . S
C142 C111 1.383 . S
C142 C129 1.479 . S
C142 C143 1.398 . S
C143 C108 1.382 . S
C143 H120 0.951 . S
C143 C142 1.398 . S
C144 C145 1.384 . S
C144 H157 0.947 . S
C144 C179 1.382 . S
C145 C144 1.384 . S
C145 C146 1.378 . S
C146 C145 1.378 . S
C146 C147 1.378 . S
C146 H158 0.952 . S
C147 C146 1.378 . S
C147 H159 0.950 . S
C147 C178 1.383 . S
H148 C167 0.947 . S
H149 C168 0.946 . S
H150 C170 0.953 . S
H151 C171 0.945 . S
H152 C173 0.952 . S
H153 C174 0.949 . S
H154 C176 0.950 . S
H155 C177 0.948 . S
H156 C179 0.951 . S
H157 C144 0.947 . S
H158 C146 0.952 . S
H159 C147 0.950 . S
N160 C163 1.382 . S
N160 C165 1.363 . S
N161 C163 1.371 . S
N161 C164 1.372 . S
N162 C164 1.361 . S
N162 C165 1.377 . S
C163 N160 1.382 . S
C163 N161 1.371 . S
C163 C166 1.480 . S
C164 N161 1.372 . S
C164 N162 1.361 . S
C164 C172 1.457 . S
C165 N160 1.363 . S
C165 N162 1.377 . S
C165 C178 1.479 . S
C166 C163 1.480 . S
C166 C167 1.383 . S
C166 C171 1.385 . S
C167 H148 0.947 . S
C167 C166 1.383 . S
C167 C168 1.388 . S
C168 H149 0.946 . S
C168 C167 1.388 . S
C168 C169 1.384 . S
C169 C168 1.384 . S
C169 C170 1.377 . S
C170 H150 0.953 . S
C170 C169 1.377 . S
C170 C171 1.369 . S
C171 H151 0.945 . S
C171 C166 1.385 . S
C171 C170 1.369 . S
C172 C164 1.457 . S
C172 C173 1.372 . S
C172 C177 1.364 . S
C173 H152 0.952 . S
C173 C172 1.372 . S
C173 C174 1.389 . S
C174 H153 0.949 . S
C174 C173 1.389 . S
C174 C175 1.387 . S
C175 C174 1.387 . S
C175 C176 1.372 . S
C176 H154 0.950 . S
C176 C175 1.372 . S
C176 C177 1.379 . S
C177 H155 0.948 . S
C177 C172 1.364 . S
C177 C176 1.379 . S
C178 C147 1.383 . S
C178 C165 1.479 . S
C178 C179 1.398 . S
C179 C144 1.382 . S
C179 H156 0.951 . S
C179 C178 1.398 . S
C180 C181 1.384 . S
C180 H193 0.947 . S
C180 C215 1.382 . S
C181 C180 1.384 . S
C181 C182 1.378 . S
C182 C181 1.378 . S
C182 C183 1.378 . S
C182 H194 0.952 . S
C183 C182 1.378 . S
C183 H195 0.950 . S
C183 C214 1.383 . S
H184 C203 0.947 . S
H185 C204 0.946 . S
H186 C206 0.953 . S
H187 C207 0.945 . S
H188 C209 0.952 . S
H189 C210 0.949 . S
H190 C212 0.950 . S
H191 C213 0.948 . S
H192 C215 0.951 . S
H193 C180 0.947 . S
H194 C182 0.952 . S
H195 C183 0.950 . S
N196 C199 1.382 . S
N196 C201 1.363 . S
N197 C199 1.371 . S
N197 C200 1.372 . S
N198 C200 1.361 . S
N198 C201 1.377 . S
C199 N196 1.382 . S
C199 N197 1.371 . S
C199 C202 1.480 . S
C200 N197 1.372 . S
C200 N198 1.361 . S
C200 C208 1.457 . S
C201 N196 1.363 . S
C201 N198 1.377 . S
C201 C214 1.479 . S
C202 C199 1.480 . S
C202 C203 1.383 . S
C202 C207 1.385 . S
C203 H184 0.947 . S
C203 C202 1.383 . S
C203 C204 1.388 . S
C204 H185 0.946 . S
C204 C203 1.388 . S
C204 C205 1.384 . S
C205 C204 1.384 . S
C205 C206 1.377 . S
C206 H186 0.953 . S
C206 C205 1.377 . S
C206 C207 1.369 . S
C207 H187 0.945 . S
C207 C202 1.385 . S
C207 C206 1.369 . S
C208 C200 1.457 . S
C208 C209 1.372 . S
C208 C213 1.364 . S
C209 H188 0.952 . S
C209 C208 1.372 . S
C209 C210 1.389 . S
C210 H189 0.949 . S
C210 C209 1.389 . S
C210 C211 1.387 . S
C211 C210 1.387 . S
C211 C212 1.372 . S
C212 H190 0.950 . S
C212 C211 1.372 . S
C212 C213 1.379 . S
C213 H191 0.948 . S
C213 C208 1.364 . S
C213 C212 1.379 . S
C214 C183 1.383 . S
C214 C201 1.479 . S
C214 C215 1.398 . S
C215 C180 1.382 . S
C215 H192 0.951 . S
C215 C214 1.398 . S
C216 C217 1.384 . S
C216 H229 0.947 . S
C216 C251 1.382 . S
C217 C216 1.384 . S
C217 C218 1.378 . S
C218 C217 1.378 . S
C218 C219 1.378 . S
C218 H230 0.952 . S
C219 C218 1.378 . S
C219 H231 0.950 . S
C219 C250 1.383 . S
H220 C239 0.947 . S
H221 C240 0.946 . S
H222 C242 0.953 . S
H223 C243 0.945 . S
H224 C245 0.952 . S
H225 C246 0.949 . S
H226 C248 0.950 . S
H227 C249 0.948 . S
H228 C251 0.951 . S
H229 C216 0.947 . S
H230 C218 0.952 . S
H231 C219 0.950 . S
N232 C235 1.382 . S
N232 C237 1.363 . S
N233 C235 1.371 . S
N233 C236 1.372 . S
N234 C236 1.361 . S
N234 C237 1.377 . S
C235 N232 1.382 . S
C235 N233 1.371 . S
C235 C238 1.480 . S
C236 N233 1.372 . S
C236 N234 1.361 . S
C236 C244 1.457 . S
C237 N232 1.363 . S
C237 N234 1.377 . S
C237 C250 1.479 . S
C238 C235 1.480 . S
C238 C239 1.383 . S
C238 C243 1.385 . S
C239 H220 0.947 . S
C239 C238 1.383 . S
C239 C240 1.388 . S
C240 H221 0.946 . S
C240 C239 1.388 . S
C240 C241 1.384 . S
C241 C240 1.384 . S
C241 C242 1.377 . S
C242 H222 0.953 . S
C242 C241 1.377 . S
C242 C243 1.369 . S
C243 H223 0.945 . S
C243 C238 1.385 . S
C243 C242 1.369 . S
C244 C236 1.457 . S
C244 C245 1.372 . S
C244 C249 1.364 . S
C245 H224 0.952 . S
C245 C244 1.372 . S
C245 C246 1.389 . S
C246 H225 0.949 . S
C246 C245 1.389 . S
C246 C247 1.387 . S
C247 C246 1.387 . S
C247 C248 1.372 . S
C248 H226 0.950 . S
C248 C247 1.372 . S
C248 C249 1.379 . S
C249 H227 0.948 . S
C249 C244 1.364 . S
C249 C248 1.379 . S
C250 C219 1.383 . S
C250 C237 1.479 . S
C250 C251 1.398 . S
C251 C216 1.382 . S
C251 H228 0.951 . S
C251 C250 1.398 . S
C252 C253 1.384 . S
C252 H265 0.947 . S
C252 C287 1.382 . S
C253 C252 1.384 . S
C253 C254 1.378 . S
C254 C253 1.378 . S
C254 C255 1.378 . S
C254 H266 0.952 1_455 S
C255 C254 1.378 . S
C255 H267 0.950 . S
C255 C286 1.383 . S
H256 C275 0.947 . S
H257 C276 0.946 . S
H258 C278 0.953 . S
H259 C279 0.945 . S
H260 C281 0.952 . S
H261 C282 0.949 . S
H262 C284 0.950 . S
H263 C285 0.948 . S
H264 C287 0.951 . S
H265 C252 0.947 . S
H266 C254 0.952 1_655 S
H267 C255 0.950 . S
N268 C271 1.382 . S
N268 C273 1.363 . S
N269 C271 1.371 . S
N269 C272 1.372 . S
N270 C272 1.361 . S
N270 C273 1.377 . S
C271 N268 1.382 . S
C271 N269 1.371 . S
C271 C274 1.480 . S
C272 N269 1.372 . S
C272 N270 1.361 . S
C272 C280 1.457 . S
C273 N268 1.363 . S
C273 N270 1.377 . S
C273 C286 1.479 . S
C274 C271 1.480 . S
C274 C275 1.383 . S
C274 C279 1.385 . S
C275 H256 0.947 . S
C275 C274 1.383 . S
C275 C276 1.388 . S
C276 H257 0.946 . S
C276 C275 1.388 . S
C276 C277 1.384 . S
C277 C276 1.384 . S
C277 C278 1.377 . S
C278 H258 0.953 . S
C278 C277 1.377 . S
C278 C279 1.369 . S
C279 H259 0.945 . S
C279 C274 1.385 . S
C279 C278 1.369 . S
C280 C272 1.457 . S
C280 C281 1.372 . S
C280 C285 1.364 . S
C281 H260 0.952 . S
C281 C280 1.372 . S
C281 C282 1.389 . S
C282 H261 0.949 . S
C282 C281 1.389 . S
C282 C283 1.387 . S
C283 C282 1.387 . S
C283 C284 1.372 . S
C284 H262 0.950 . S
C284 C283 1.372 . S
C284 C285 1.379 . S
C285 H263 0.948 . S
C285 C280 1.364 . S
C285 C284 1.379 . S
C286 C255 1.383 . S
C286 C273 1.479 . S
C286 C287 1.398 . S
C287 C252 1.382 . S
C287 H264 0.951 . S
C287 C286 1.398 . S
Co288 N293 2.057 . S
Co288 O305 2.021 . S
Co288 O308 2.062 . S
Co288 O312 2.117 1_545 S
Co288 O313 2.020 1_545 S
C289 O309 1.259 1_655 S
C289 O312 1.258 . S
Co290 N299 2.057 . S
Co290 O306 2.117 1_565 S
Co290 O307 2.020 1_565 S
Co290 O309 2.021 . S
Co290 O314 2.062 . S
C291 N293 1.316 . S
C291 N294 1.347 . S
C291 H296 0.931 . S
C292 N293 1.375 1_565 S
C292 C295 1.350 1_565 S
C292 H297 0.930 . S
N293 Co288 2.057 . S
N293 C291 1.316 . S
N293 C292 1.375 1_545 S
N294 C291 1.347 . S
N294 C295 1.373 . S
C295 C292 1.350 1_545 S
C295 N294 1.373 . S
C295 H316 0.931 1_545 S
H296 C291 0.931 . S
H297 C292 0.930 . S
C298 O305 1.259 1_455 S
C298 O306 1.258 . S
N299 Co290 2.057 . S
N299 C300 1.316 . S
N299 C301 1.375 1_565 S
C300 N299 1.316 . S
C300 N302 1.347 . S
C300 H311 0.931 . S
C301 N299 1.375 1_545 S
C301 C303 1.350 1_545 S
C301 H310 0.930 . S
N302 C300 1.347 . S
N302 C303 1.373 . S
C303 C301 1.350 1_565 S
C303 N302 1.373 . S
C303 H317 0.931 1_565 S
C304 O307 1.256 . S
C304 O308 1.255 1_455 S
O305 Co288 2.021 . S
O305 C298 1.259 1_655 S
O306 Co290 2.117 1_545 S
O306 C298 1.258 . S
O307 Co290 2.020 1_545 S
O307 C304 1.256 . S
O308 Co288 2.062 . S
O308 C304 1.255 1_655 S
O309 C289 1.259 1_455 S
O309 Co290 2.021 . S
H310 C301 0.930 . S
H311 C300 0.931 . S
O312 Co288 2.117 1_565 S
O312 C289 1.258 . S
O313 Co288 2.020 1_565 S
O313 C315 1.256 . S
O314 Co290 2.062 . S
O314 C315 1.255 1_455 S
C315 O313 1.256 . S
C315 O314 1.255 1_655 S
H316 C295 0.931 1_565 S
H317 C303 0.931 1_545 S
Co318 N323 2.057 . S
Co318 O335 2.021 1_565 S
Co318 O338 2.062 . S
Co318 O342 2.112 1_556 S
Co318 O343 2.020 1_565 S
C319 O339 1.259 . S
C319 O342 1.267 . S
Co320 N329 2.057 . S
Co320 O336 2.117 . S
Co320 O337 2.020 1_545 S
Co320 O339 2.021 1_545 S
Co320 O344 2.062 . S
C321 N323 1.316 . S
C321 N324 1.347 . S
C321 H326 0.931 1_565 S
C322 N323 1.375 . S
C322 C325 1.350 . S
C322 H327 0.930 . S
N323 Co318 2.057 . S
N323 C321 1.316 . S
N323 C322 1.375 . S
N324 C321 1.347 . S
N324 C325 1.373 . S
C325 C322 1.350 . S
C325 N324 1.373 . S
C325 H346 0.931 . S
H326 C321 0.931 1_545 S
H327 C322 0.930 . S
C328 O335 1.259 . S
C328 O336 1.258 1_556 S
N329 Co320 2.057 . S
N329 C330 1.316 . S
N329 C331 1.375 . S
C330 N329 1.316 . S
C330 N332 1.347 . S
C330 H341 0.931 1_545 S
C331 N329 1.375 . S
C331 C333 1.350 . S
C331 H340 0.930 . S
N332 C330 1.347 . S
N332 C333 1.373 . S
C333 C331 1.350 . S
C333 N332 1.373 . S
C333 H347 0.931 . S
C334 O337 1.256 1_556 S
C334 O338 1.255 . S
O335 Co318 2.021 1_545 S
O335 C328 1.259 . S
O336 Co320 2.117 . S
O336 C328 1.258 1_554 S
O337 Co320 2.020 1_565 S
O337 C334 1.256 1_554 S
O338 Co318 2.062 . S
O338 C334 1.255 . S
O339 C319 1.259 . S
O339 Co320 2.021 1_565 S
H340 C331 0.930 . S
H341 C330 0.931 1_565 S
O342 Co318 2.112 1_554 S
O342 C319 1.267 . S
O343 Co318 2.020 1_545 S
O343 C345 1.256 1_556 S
O344 Co320 2.062 . S
O344 C345 1.255 . S
C345 O343 1.256 1_554 S
C345 O344 1.255 . S
H346 C325 0.931 . S
H347 C333 0.931 . S
Co348 N353 2.057 . S
Co348 O365 2.021 . S
Co348 O368 2.062 . S
Co348 O372 2.117 . S
Co348 O373 2.020 . S
C349 O369 1.259 . S
C349 O372 1.258 . S
Co350 N359 2.057 . S
Co350 O366 2.117 . S
Co350 O367 2.020 . S
Co350 O369 2.021 . S
Co350 O374 2.062 . S
C351 N353 1.316 . S
C351 N354 1.347 . S
C351 H356 0.931 . S
C352 N353 1.375 . S
C352 C355 1.350 . S
C352 H357 0.930 . S
N353 Co348 2.057 . S
N353 C351 1.316 . S
N353 C352 1.375 . S
N354 C351 1.347 . S
N354 C355 1.373 . S
C355 C352 1.350 . S
C355 N354 1.373 . S
C355 H376 0.931 . S
H356 C351 0.931 . S
H357 C352 0.930 . S
C358 O365 1.259 . S
C358 O366 1.258 . S
N359 Co350 2.057 . S
N359 C360 1.316 . S
N359 C361 1.375 . S
C360 N359 1.316 . S
C360 N362 1.347 . S
C360 H371 0.931 . S
C361 N359 1.375 . S
C361 C363 1.350 . S
C361 H370 0.930 . S
N362 C360 1.347 . S
N362 C363 1.373 . S
C363 C361 1.350 . S
C363 N362 1.373 . S
C363 H377 0.931 . S
C364 O367 1.256 . S
C364 O368 1.255 . S
O365 Co348 2.021 . S
O365 C358 1.259 . S
O366 Co350 2.117 . S
O366 C358 1.258 . S
O367 Co350 2.020 . S
O367 C364 1.256 . S
O368 Co348 2.062 . S
O368 C364 1.255 . S
O369 C349 1.259 . S
O369 Co350 2.021 . S
H370 C361 0.930 . S
H371 C360 0.931 . S
O372 Co348 2.117 . S
O372 C349 1.258 . S
O373 Co348 2.020 . S
O373 C375 1.256 . S
O374 Co350 2.062 . S
O374 C375 1.255 . S
C375 O373 1.256 . S
C375 O374 1.255 . S
H376 C355 0.931 . S
H377 C363 0.931 . S
Co378 N383 2.057 . S
Co378 O395 2.021 . S
Co378 O398 2.062 . S
Co378 O402 2.117 1_455 S
Co378 O403 2.020 1_455 S
C379 O399 1.259 1_556 S
C379 O402 1.258 . S
Co380 N389 2.057 . S
Co380 O396 2.117 1_655 S
Co380 O397 2.020 1_655 S
Co380 O399 2.021 . S
Co380 O404 2.062 . S
C381 N383 1.316 . S
C381 N384 1.347 . S
C381 H386 0.931 . S
C382 N383 1.375 1_655 S
C382 C385 1.350 1_655 S
C382 H387 0.930 . S
N383 Co378 2.057 . S
N383 C381 1.316 . S
N383 C382 1.375 1_455 S
N384 C381 1.347 . S
N384 C385 1.373 . S
C385 C382 1.350 1_455 S
C385 N384 1.373 . S
C385 H406 0.931 1_455 S
H386 C381 0.931 . S
H387 C382 0.930 . S
C388 O395 1.259 1_554 S
C388 O396 1.258 . S
N389 Co380 2.057 . S
N389 C390 1.316 . S
N389 C391 1.375 1_655 S
C390 N389 1.316 . S
C390 N392 1.347 . S
C390 H401 0.931 . S
C391 N389 1.375 1_455 S
C391 C393 1.350 1_455 S
C391 H400 0.930 . S
N392 C390 1.347 . S
N392 C393 1.373 . S
C393 C391 1.350 1_655 S
C393 N392 1.373 . S
C393 H407 0.931 1_655 S
C394 O397 1.256 . S
C394 O398 1.255 1_554 S
O395 Co378 2.021 . S
O395 C388 1.259 1_556 S
O396 Co380 2.117 1_455 S
O396 C388 1.258 . S
O397 Co380 2.020 1_455 S
O397 C394 1.256 . S
O398 Co378 2.062 . S
O398 C394 1.255 1_556 S
O399 C379 1.259 1_554 S
O399 Co380 2.021 . S
H400 C391 0.930 . S
H401 C390 0.931 . S
O402 Co378 2.117 1_655 S
O402 C379 1.258 . S
O403 Co378 2.020 1_655 S
O403 C405 1.256 . S
O404 Co380 2.062 . S
O404 C405 1.255 1_554 S
C405 O403 1.256 . S
C405 O404 1.255 1_556 S
H406 C385 0.931 1_655 S
H407 C393 0.931 1_455 S
C408 C409 1.369 . S
C408 C410 1.419 . S
C408 H412 0.930 . S
C409 C408 1.369 . S
C409 C418 1.429 . S
C410 C408 1.419 . S
C410 C411 1.363 . S
C410 H413 0.929 . S
C411 C410 1.363 . S
C411 C417 1.428 . S
H412 C408 0.930 . S
H413 C410 0.929 . S
S414 N415 1.613 . S
S414 N416 1.610 . S
N415 S414 1.613 . S
N415 C418 1.350 1_655 S
N416 S414 1.610 . S
N416 C417 1.351 1_655 S
C417 C411 1.428 . S
C417 N416 1.351 1_455 S
C417 C418 1.434 . S
C418 C409 1.429 . S
C418 N415 1.350 1_455 S
C418 C417 1.434 . S
C419 C420 1.369 . S
C419 C421 1.419 . S
C419 H423 0.930 . S
C420 C419 1.369 . S
C420 C429 1.429 . S
C421 C419 1.419 . S
C421 C422 1.363 . S
C421 H424 0.929 . S
C422 C421 1.363 . S
C422 C428 1.428 . S
H423 C419 0.930 . S
H424 C421 0.929 . S
S425 N426 1.613 . S
S425 N427 1.610 . S
N426 S425 1.613 . S
N426 C429 1.350 . S
N427 S425 1.610 . S
N427 C428 1.351 . S
C428 C422 1.428 . S
C428 N427 1.351 . S
C428 C429 1.434 . S
C429 C420 1.429 . S
C429 N426 1.350 . S
C429 C428 1.434 . S
C430 C431 1.369 . S
C430 C432 1.419 . S
C430 H434 0.930 . S
C431 C430 1.369 . S
C431 C440 1.429 . S
C432 C430 1.419 . S
C432 C433 1.363 . S
C432 H435 0.929 . S
C433 C432 1.363 . S
C433 C439 1.428 . S
H434 C430 0.930 . S
H435 C432 0.929 . S
S436 N437 1.613 . S
S436 N438 1.610 . S
N437 S436 1.613 . S
N437 C440 1.350 . S
N438 S436 1.610 . S
N438 C439 1.351 . S
C439 C433 1.428 . S
C439 N438 1.351 . S
C439 C440 1.434 . S
C440 C431 1.429 . S
C440 N437 1.350 . S
C440 C439 1.434 . S
C441 C442 1.369 . S
C441 C443 1.419 . S
C441 H445 0.930 . S
C442 C441 1.369 . S
C442 C451 1.429 . S
C443 C441 1.419 . S
C443 C444 1.363 . S
C443 H446 0.929 . S
C444 C443 1.363 . S
C444 C450 1.428 . S
H445 C441 0.930 . S
H446 C443 0.929 . S
S447 N448 1.613 . S
S447 N449 1.610 . S
N448 S447 1.613 . S
N448 C451 1.350 1_455 S
N449 S447 1.610 . S
N449 C450 1.351 1_455 S
C450 C444 1.428 . S
C450 N449 1.351 1_655 S
C450 C451 1.434 . S
C451 C442 1.429 . S
C451 N448 1.350 1_655 S
C451 C450 1.434 . S
C452 C453 1.369 . S
C452 C454 1.419 . S
C452 H456 0.930 . S
C453 C452 1.369 . S
C453 C462 1.429 . S
C454 C452 1.419 . S
C454 C455 1.363 . S
C454 H457 0.929 . S
C455 C454 1.363 . S
C455 C461 1.428 . S
H456 C452 0.930 . S
H457 C454 0.929 . S
S458 N459 1.613 . S
S458 N460 1.610 . S
N459 S458 1.613 . S
N459 C462 1.350 1_556 S
N460 S458 1.610 . S
N460 C461 1.351 1_556 S
C461 C455 1.428 . S
C461 N460 1.351 1_554 S
C461 C462 1.434 . S
C462 C453 1.429 . S
C462 N459 1.350 1_554 S
C462 C461 1.434 . S
C463 C464 1.369 . S
C463 C465 1.419 . S
C463 H467 0.930 . S
C464 C463 1.369 . S
C464 C473 1.429 . S
C465 C463 1.419 . S
C465 C466 1.363 . S
C465 H468 0.929 . S
C466 C465 1.363 . S
C466 C472 1.428 . S
H467 C463 0.930 . S
H468 C465 0.929 . S
S469 N470 1.613 . S
S469 N471 1.610 . S
N470 S469 1.613 . S
N470 C473 1.350 . S
N471 S469 1.610 . S
N471 C472 1.351 . S
C472 C466 1.428 . S
C472 N471 1.351 . S
C472 C473 1.434 . S
C473 C464 1.429 . S
C473 N470 1.350 . S
C473 C472 1.434 . S
C474 C475 1.369 . S
C474 C476 1.419 . S
C474 H478 0.930 . S
C475 C474 1.369 . S
C475 C484 1.429 . S
C476 C474 1.419 . S
C476 C477 1.363 . S
C476 H479 0.929 1_556 S
C477 C476 1.363 . S
C477 C483 1.428 . S
H478 C474 0.930 . S
H479 C476 0.929 1_554 S
S480 N481 1.613 . S
S480 N482 1.610 . S
N481 S480 1.613 . S
N481 C484 1.350 . S
N482 S480 1.610 . S
N482 C483 1.351 . S
C483 C477 1.428 . S
C483 N482 1.351 . S
C483 C484 1.434 . S
C484 C475 1.429 . S
C484 N481 1.350 . S
C484 C483 1.434 . S
C485 C486 1.369 . S
C485 C487 1.419 . S
C485 H489 0.930 . S
C486 C485 1.369 . S
C486 C495 1.429 . S
C487 C485 1.419 . S
C487 C488 1.363 . S
C487 H490 0.929 . S
C488 C487 1.363 . S
C488 C494 1.428 . S
H489 C485 0.930 . S
H490 C487 0.929 . S
S491 N492 1.613 . S
S491 N493 1.610 . S
N492 S491 1.613 . S
N492 C495 1.350 . S
N493 S491 1.610 . S
N493 C494 1.351 . S
C494 C488 1.428 . S
C494 N493 1.351 . S
C494 C495 1.434 . S
C495 C486 1.429 . S
C495 N492 1.350 . S
C495 C494 1.434 . S
C496 C497 1.369 . S
C496 C498 1.419 . S
C496 H500 0.930 . S
C497 C496 1.369 . S
C497 C506 1.429 . S
C498 C496 1.419 . S
C498 C499 1.363 . S
C498 H501 0.929 . S
C499 C498 1.363 . S
C499 C505 1.428 . S
H500 C496 0.930 . S
H501 C498 0.929 . S
S502 N503 1.613 1_655 S
S502 N504 1.610 . S
N503 S502 1.613 1_455 S
N503 C506 1.350 1_556 S
N504 S502 1.610 . S
N504 C505 1.351 1_656 S
C505 C499 1.428 . S
C505 N504 1.351 1_454 S
C505 C506 1.434 . S
C506 C497 1.429 . S
C506 N503 1.350 1_554 S
C506 C505 1.434 . S
C507 C508 1.369 . S
C507 C509 1.419 . S
C507 H511 0.930 . S
C508 C507 1.369 . S
C508 C517 1.429 . S
C509 C507 1.419 . S
C509 C510 1.363 . S
C509 H512 0.929 . S
C510 C509 1.363 . S
C510 C516 1.428 . S
H511 C507 0.930 . S
H512 C509 0.929 . S
S513 N514 1.613 . S
S513 N515 1.610 . S
N514 S513 1.613 . S
N514 C517 1.350 1_554 S
N515 S513 1.610 . S
N515 C516 1.351 1_554 S
C516 C510 1.428 . S
C516 N515 1.351 1_556 S
C516 C517 1.434 . S
C517 C508 1.429 . S
C517 N514 1.350 1_556 S
C517 C516 1.434 . S
C518 C519 1.369 . S
C518 C520 1.419 . S
C518 H522 0.930 . S
C519 C518 1.369 . S
C519 C528 1.429 . S
C520 C518 1.419 . S
C520 C521 1.363 . S
C520 H523 0.929 . S
C521 C520 1.363 . S
C521 C527 1.428 . S
H522 C518 0.930 . S
H523 C520 0.929 . S
S524 N525 1.613 . S
S524 N526 1.610 . S
N525 S524 1.613 . S
N525 C528 1.350 1_455 S
N526 S524 1.610 . S
N526 C527 1.351 1_455 S
C527 C521 1.428 . S
C527 N526 1.351 1_655 S
C527 C528 1.434 . S
C528 C519 1.429 . S
C528 N525 1.350 1_655 S
C528 C527 1.434 . S
C529 C530 1.369 . S
C529 C531 1.419 . S
C529 H533 0.930 . S
C530 C529 1.369 . S
C530 C539 1.429 . S
C531 C529 1.419 . S
C531 C532 1.363 . S
C531 H534 0.929 . S
C532 C531 1.363 . S
C532 C538 1.428 . S
H533 C529 0.930 . S
H534 C531 0.929 . S
S535 N536 1.613 . S
S535 N537 1.610 . S
N536 S535 1.613 . S
N536 C539 1.350 . S
N537 S535 1.610 . S
N537 C538 1.351 . S
C538 C532 1.428 . S
C538 N537 1.351 . S
C538 C539 1.434 . S
C539 C530 1.429 . S
C539 N536 1.350 . S
C539 C538 1.434 . S
C540 C541 1.369 . S
C540 C542 1.419 . S
C540 H544 0.930 . S
C541 C540 1.369 . S
C541 C550 1.429 . S
C542 C540 1.419 . S
C542 C543 1.363 . S
C542 H545 0.929 . S
C543 C542 1.363 . S
C543 C549 1.421 1_565 S
H544 C540 0.930 . S
H545 C542 0.929 . S
S546 N547 1.613 . S
S546 N548 1.610 . S
N547 S546 1.613 . S
N547 C550 1.350 1_545 S
N548 S546 1.610 . S
N548 C549 1.360 . S
C549 C543 1.421 1_545 S
C549 N548 1.360 . S
C549 C550 1.434 1_545 S
C550 C541 1.429 . S
C550 N547 1.350 1_565 S
C550 C549 1.434 1_565 S
C551 C552 1.369 . S
C551 C553 1.419 . S
C551 H555 0.930 . S
C552 C551 1.369 . S
C552 C561 1.429 . S
C553 C551 1.419 . S
C553 C554 1.363 . S
C553 H556 0.929 . S
C554 C553 1.363 . S
C554 C560 1.428 . S
H555 C551 0.930 . S
H556 C553 0.929 . S
S557 N558 1.613 1_565 S
S557 N559 1.610 . S
N558 S557 1.613 1_545 S
N558 C561 1.350 . S
N559 S557 1.610 . S
N559 C560 1.351 1_565 S
C560 C554 1.428 . S
C560 N559 1.351 1_545 S
C560 C561 1.434 . S
C561 C552 1.429 . S
C561 N558 1.350 . S
C561 C560 1.434 . S
C562 C563 1.369 . S
C562 C564 1.419 . S
C562 H566 0.930 . S
C563 C562 1.369 . S
C563 C572 1.429 . S
C564 C562 1.419 . S
C564 C565 1.363 . S
C564 H567 0.929 . S
C565 C564 1.363 . S
C565 C571 1.428 . S
H566 C562 0.930 . S
H567 C564 0.929 . S
S568 N569 1.613 . S
S568 N570 1.610 . S
N569 S568 1.613 . S
N569 C572 1.350 . S
N570 S568 1.610 . S
N570 C571 1.351 . S
C571 C565 1.428 . S
C571 N570 1.351 . S
C571 C572 1.434 . S
C572 C563 1.429 . S
C572 N569 1.350 . S
C572 C571 1.434 . S
C573 C574 1.369 . S
C573 C575 1.419 . S
C573 H577 0.930 . S
C574 C573 1.369 . S
C574 C583 1.429 . S
C575 C573 1.419 . S
C575 C576 1.363 . S
C575 H578 0.929 . S
C576 C575 1.363 . S
C576 C582 1.428 . S
H577 C573 0.930 . S
H578 C575 0.929 . S
S579 N580 1.613 . S
S579 N581 1.610 . S
N580 S579 1.613 . S
N580 C583 1.350 1_655 S
N581 S579 1.610 . S
N581 C582 1.351 1_655 S
C582 C576 1.428 . S
C582 N581 1.351 1_455 S
C582 C583 1.434 . S
C583 C574 1.429 . S
C583 N580 1.350 1_455 S
C583 C582 1.434 . S
C584 C585 1.369 . S
C584 C586 1.419 . S
C584 H588 0.930 . S
C585 C584 1.369 . S
C585 C594 1.429 . S
C586 C584 1.419 . S
C586 C587 1.363 . S
C586 H589 0.929 . S
C587 C586 1.363 . S
C587 C593 1.428 . S
H588 C584 0.930 . S
H589 C586 0.929 . S
S590 N591 1.613 . S
S590 N592 1.610 . S
N591 S590 1.613 . S
N591 C594 1.350 1_544 S
N592 S590 1.610 . S
N592 C593 1.351 1_544 S
C593 C587 1.428 . S
C593 N592 1.351 1_566 S
C593 C594 1.434 . S
C594 C585 1.429 . S
C594 N591 1.350 1_566 S
C594 C593 1.434 . S
C595 C596 1.369 . S
C595 C597 1.419 . S
C595 H599 0.930 . S
C596 C595 1.369 . S
C596 C605 1.429 . S
C597 C595 1.419 . S
C597 C598 1.363 . S
C597 H600 0.929 . S
C598 C597 1.363 . S
C598 C604 1.428 . S
H599 C595 0.930 . S
H600 C597 0.929 . S
S601 N602 1.613 1_565 S
S601 N603 1.610 . S
N602 S601 1.613 1_545 S
N602 C605 1.350 . S
N603 S601 1.610 . S
N603 C604 1.351 1_565 S
C604 C598 1.428 . S
C604 N603 1.351 1_545 S
C604 C605 1.434 . S
C605 C596 1.429 . S
C605 N602 1.350 . S
C605 C604 1.434 . S
C606 C607 1.369 . S
C606 C608 1.419 . S
C606 H610 0.930 . S
C607 C606 1.369 . S
C607 C616 1.429 . S
C608 C606 1.419 . S
C608 C609 1.363 . S
C608 H611 0.929 1_554 S
C609 C608 1.363 . S
C609 C615 1.428 . S
H610 C606 0.930 . S
H611 C608 0.929 1_556 S
S612 N613 1.613 . S
S612 N614 1.610 . S
N613 S612 1.613 . S
N613 C616 1.350 . S
N614 S612 1.610 . S
N614 C615 1.351 . S
C615 C609 1.428 . S
C615 N614 1.351 . S
C615 C616 1.434 . S
C616 C607 1.429 . S
C616 N613 1.350 . S
C616 C615 1.434 . S
C617 C618 1.369 . S
C617 C619 1.419 . S
C617 H621 0.930 . S
C618 C617 1.369 . S
C618 C627 1.429 . S
C619 C617 1.419 . S
C619 C620 1.363 . S
C619 H622 0.929 . S
C620 C619 1.363 . S
C620 C626 1.428 . S
H621 C617 0.930 . S
H622 C619 0.929 . S
S623 N624 1.613 . S
S623 N625 1.610 . S
N624 S623 1.613 . S
N624 C627 1.350 . S
N625 S623 1.610 . S
N625 C626 1.351 . S
C626 C620 1.428 . S
C626 N625 1.351 . S
C626 C627 1.434 . S
C627 C618 1.429 . S
C627 N624 1.350 . S
C627 C626 1.434 . S
C628 C629 1.369 . S
C628 C630 1.419 . S
C628 H632 0.930 1_556 S
C629 C628 1.369 . S
C629 C638 1.429 . S
C630 C628 1.419 . S
C630 C631 1.363 . S
C630 H633 0.929 1_556 S
C631 C630 1.363 . S
C631 C637 1.428 . S
H632 C628 0.930 1_554 S
H633 C630 0.929 1_554 S
S634 N635 1.613 1_455 S
S634 N636 1.610 . S
N635 S634 1.613 1_655 S
N635 C638 1.350 . S
N636 S634 1.610 . S
N636 C637 1.351 1_455 S
C637 C631 1.428 . S
C637 N636 1.351 1_655 S
C637 C638 1.434 . S
C638 C629 1.429 . S
C638 N635 1.350 . S
C638 C637 1.434 . S
C639 C640 1.369 . S
C639 C641 1.419 . S
C639 H643 0.930 . S
C640 C639 1.369 . S
C640 C649 1.429 . S
C641 C639 1.419 . S
C641 C642 1.363 . S
C641 H644 0.929 . S
C642 C641 1.363 . S
C642 C648 1.428 . S
H643 C639 0.930 . S
H644 C641 0.929 . S
S645 N646 1.613 . S
S645 N647 1.610 . S
N646 S645 1.613 . S
N646 C649 1.350 1_556 S
N647 S645 1.610 . S
N647 C648 1.351 1_556 S
C648 C642 1.428 . S
C648 N647 1.351 1_554 S
C648 C649 1.434 . S
C649 C640 1.429 . S
C649 N646 1.350 1_554 S
C649 C648 1.434 . S
C650 C651 1.369 . S
C650 C652 1.419 . S
C650 H654 0.930 . S
C651 C650 1.369 . S
C651 C660 1.429 1_455 S
C652 C650 1.419 . S
C652 C653 1.363 . S
C652 H655 0.929 . S
C653 C652 1.363 . S
C653 C659 1.428 1_455 S
H654 C650 0.930 . S
H655 C652 0.929 . S
S656 N657 1.613 . S
S656 N658 1.610 . S
N657 S656 1.613 . S
N657 C660 1.350 . S
N658 S656 1.610 . S
N658 C659 1.351 . S
C659 C653 1.428 1_655 S
C659 N658 1.351 . S
C659 C660 1.434 . S
C660 C651 1.429 1_655 S
C660 N657 1.350 . S
C660 C659 1.434 . S
C661 C662 1.369 . S
C661 C663 1.419 . S
C661 H665 0.930 . S
C662 C661 1.369 . S
C662 C671 1.429 . S
C663 C661 1.419 . S
C663 C664 1.363 . S
C663 H666 0.929 . S
C664 C663 1.363 . S
C664 C670 1.428 . S
H665 C661 0.930 . S
H666 C663 0.929 . S
S667 N668 1.613 . S
S667 N669 1.610 . S
N668 S667 1.613 . S
N668 C671 1.350 . S
N669 S667 1.610 . S
N669 C670 1.351 . S
C670 C664 1.428 . S
C670 N669 1.351 . S
C670 C671 1.434 . S
C671 C662 1.429 . S
C671 N668 1.350 . S
C671 C670 1.434 . S
C409 C1 2.132 . S
C411 C304 2.175 . S
C420 C67 1.158 . S
C422 N324 1.194 . S
C433 C358 2.022 . S
C431 C97 1.975 . S
C442 C133 1.458 . S
C444 N392 1.317 . S
C455 C345 2.326 . S
C453 C25 2.277 . S
C466 N302 1.219 . S
C464 C37 1.244 . S
C477 C379 2.058 . S
C475 C103 2.006 . S
C488 N354 1.151 . S
C486 C109 1.117 . S
C497 C31 1.806 . S
C499 C394 1.862 . S
C510 C328 1.759 . S
C508 C73 1.709 . S
C519 C139 1.547 . S
C521 C289 1.550 . S
C530 C61 1.442 . S
C532 C375 1.495 . S
C543 C315 2.184 . S
C541 C175 2.182 . S
C552 C181 1.170 . S
C554 N332 1.188 . S
C563 C247 2.046 . S
C565 C349 2.039 . S
C574 C277 1.440 . S
C576 N384 1.309 . S
C585 C145 2.319 . S
C587 C334 2.322 . S
C598 N294 1.214 . S
C596 C211 1.246 . S
C609 C388 2.045 . S
C607 C217 2.031 . S
C620 N362 1.160 . S
C618 C283 1.135 . S
C629 C169 1.838 . S
C631 C405 1.857 . S
C642 C319 1.758 . S
C640 C241 1.752 . S
C653 C298 1.537 . S
C651 C253 1.534 . S
C662 C205 1.444 . S
C664 C364 1.503 . S
