# Generated by pormake.
# Topology pyr, (3,6)-cn, num edge types: 1
# Building blocks:
#     Node 0, Type 0, BuildingBlock: PAMTOO_clean_linker_0, # of connection points: 3
#     Node 1, Type 0, BuildingBlock: PAMTOO_clean_linker_0, # of connection points: 3
#     Node 2, Type 0, BuildingBlock: PAMTOO_clean_linker_0, # of connection points: 3
#     Node 3, Type 0, BuildingBlock: PAMTOO_clean_linker_0, # of connection points: 3
#     Node 4, Type 0, BuildingBlock: PAMTOO_clean_linker_0, # of connection points: 3
#     Node 5, Type 0, BuildingBlock: PAMTOO_clean_linker_0, # of connection points: 3
#     Node 6, Type 0, BuildingBlock: PAMTOO_clean_linker_0, # of connection points: 3
#     Node 7, Type 0, BuildingBlock: PAMTOO_clean_linker_0, # of connection points: 3
#     Node 8, Type 1, BuildingBlock: BETDAH_clean_sbu_0, # of connection points: 6
#     Node 9, Type 1, BuildingBlock: BETDAH_clean_sbu_0, # of connection points: 6
#     Node 10, Type 1, BuildingBlock: BETDAH_clean_sbu_0, # of connection points: 6
#     Node 11, Type 1, BuildingBlock: BETDAH_clean_sbu_0, # of connection points: 6
#     Edge 12, Type (0, 1), BuildingBlock: XIVTED_clean_linker_0, # of connection points: 2
#     Edge 13, Type (0, 1), BuildingBlock: XIVTED_clean_linker_0, # of connection points: 2
#     Edge 14, Type (0, 1), BuildingBlock: XIVTED_clean_linker_0, # of connection points: 2
#     Edge 15, Type (0, 1), BuildingBlock: XIVTED_clean_linker_0, # of connection points: 2
#     Edge 16, Type (0, 1), BuildingBlock: XIVTED_clean_linker_0, # of connection points: 2
#     Edge 17, Type (0, 1), BuildingBlock: XIVTED_clean_linker_0, # of connection points: 2
#     Edge 18, Type (0, 1), BuildingBlock: XIVTED_clean_linker_0, # of connection points: 2
#     Edge 19, Type (0, 1), BuildingBlock: XIVTED_clean_linker_0, # of connection points: 2
#     Edge 20, Type (0, 1), BuildingBlock: XIVTED_clean_linker_0, # of connection points: 2
#     Edge 21, Type (0, 1), BuildingBlock: XIVTED_clean_linker_0, # of connection points: 2
#     Edge 22, Type (0, 1), BuildingBlock: XIVTED_clean_linker_0, # of connection points: 2
#     Edge 23, Type (0, 1), BuildingBlock: XIVTED_clean_linker_0, # of connection points: 2
#     Edge 24, Type (0, 1), BuildingBlock: XIVTED_clean_linker_0, # of connection points: 2
#     Edge 25, Type (0, 1), BuildingBlock: XIVTED_clean_linker_0, # of connection points: 2
#     Edge 26, Type (0, 1), BuildingBlock: XIVTED_clean_linker_0, # of connection points: 2
#     Edge 27, Type (0, 1), BuildingBlock: XIVTED_clean_linker_0, # of connection points: 2
#     Edge 28, Type (0, 1), BuildingBlock: XIVTED_clean_linker_0, # of connection points: 2
#     Edge 29, Type (0, 1), BuildingBlock: XIVTED_clean_linker_0, # of connection points: 2
#     Edge 30, Type (0, 1), BuildingBlock: XIVTED_clean_linker_0, # of connection points: 2
#     Edge 31, Type (0, 1), BuildingBlock: XIVTED_clean_linker_0, # of connection points: 2
#     Edge 32, Type (0, 1), BuildingBlock: XIVTED_clean_linker_0, # of connection points: 2
#     Edge 33, Type (0, 1), BuildingBlock: XIVTED_clean_linker_0, # of connection points: 2
#     Edge 34, Type (0, 1), BuildingBlock: XIVTED_clean_linker_0, # of connection points: 2
#     Edge 35, Type (0, 1), BuildingBlock: XIVTED_clean_linker_0, # of connection points: 2
# Relax obj value: 0.176
# Max RMSD: 0.225
# Mean RMSD: 0.150
data_MOF--net-pyr--node1-BETDAH_clean_sbu_0--node2-PAMTOO_clean_linker_0--edge1-XIVTED_clean_linker_0
_symmetry_space_group_name_H-M    P1
_symmetry_Int_Tables_number       1
_symmetry_cell_setting            triclinic
loop_
_symmetry_equiv_pos_as_xyz
'x, y, z'
_cell_length_a     37.444266
_cell_length_b     41.089854
_cell_length_c     36.141292
_cell_angle_alpha  91.717131
_cell_angle_beta   89.362656
_cell_angle_gamma 106.44357
loop_
_atom_site_label
_atom_site_type_symbol
_atom_site_fract_x
_atom_site_fract_y
_atom_site_fract_z
_atom_type_partial_charge
H0 H 0.31685 0.33213 0.26662 0.0
H1 H 0.38597 0.26584 0.28374 0.0
H2 H 0.38812 0.3133 0.17973 0.0
H3 H 0.45927 0.28492 0.2449 0.0
C4 C 0.44874 0.27806 0.2162 0.0
O5 O 0.41041 0.26883 0.21632 0.0
H6 H 0.45968 0.30029 0.19835 0.0
C7 C 0.33869 0.32114 0.25761 0.0
C8 C 0.35273 0.32703 0.22146 0.0
C9 C 0.34985 0.29872 0.28055 0.0
C10 C 0.37666 0.28328 0.26702 0.0
C11 C 0.39005 0.28839 0.23078 0.0
C12 C 0.37826 0.31027 0.20807 0.0
H13 H 0.28838 0.90852 0.67456 0.0
H14 H 0.21169 0.83893 0.60108 0.0
H15 H 0.28927 0.80403 0.66406 0.0
H16 H 0.25444 0.79908 0.56213 0.0
C17 C 0.24756 0.77744 0.58133 0.0
O18 O 0.23554 0.78688 0.61514 0.0
H19 H 0.22435 0.75749 0.56821 0.0
C20 C 0.27758 0.88334 0.66214 0.0
C21 C 0.29251 0.85717 0.67241 0.0
C22 C 0.24842 0.87717 0.63644 0.0
C23 C 0.23446 0.84441 0.62068 0.0
C24 C 0.24942 0.81829 0.63042 0.0
C25 C 0.27816 0.82455 0.65644 0.0
H26 H 0.74311 0.34169 0.93358 0.0
H27 H 0.65919 0.33162 0.85 0.0
H28 H 0.751 0.42206 0.85723 0.0
H29 H 0.67307 0.42898 0.84882 0.0
C30 C 0.66495 0.41086 0.82478 0.0
O31 O 0.68995 0.39162 0.82123 0.0
H32 H 0.63678 0.39376 0.83062 0.0
C33 C 0.73245 0.35167 0.91003 0.0
C34 C 0.75166 0.3842 0.89757 0.0
C35 C 0.69912 0.33212 0.89327 0.0
C36 C 0.68454 0.34615 0.86365 0.0
C37 C 0.70313 0.37874 0.85086 0.0
C38 C 0.73654 0.39744 0.86786 0.0
H39 H 0.88862 0.75602 0.44128 0.0
H40 H 0.88581 0.67676 0.35972 0.0
H41 H 0.97564 0.76934 0.35938 0.0
H42 H 0.95151 0.73754 0.28205 0.0
C43 C 0.94092 0.71055 0.28997 0.0
O44 O 0.94869 0.70835 0.32721 0.0
H45 H 0.91027 0.70234 0.28567 0.0
C46 C 0.90097 0.74636 0.41766 0.0
C47 C 0.93438 0.76681 0.40265 0.0
C48 C 0.8829 0.71393 0.40256 0.0
C49 C 0.89873 0.70194 0.37124 0.0
C50 C 0.93212 0.72177 0.3554 0.0
C51 C 0.94962 0.75436 0.37104 0.0
H52 H 0.75341 0.8624 0.87428 0.0
H53 H 0.69321 0.81561 0.97018 0.0
H54 H 0.78461 0.78233 0.92755 0.0
H55 H 0.70163 0.73267 0.94862 0.0
C56 C 0.7167 0.73946 0.97544 0.0
O57 O 0.73336 0.77396 0.97915 0.0
H58 H 0.69566 0.73159 0.99777 0.0
C59 C 0.74854 0.84337 0.89534 0.0
C60 C 0.77158 0.82178 0.89685 0.0
C61 C 0.72048 0.84177 0.9219 0.0
C62 C 0.71432 0.81698 0.94906 0.0
C63 C 0.73734 0.79556 0.95094 0.0
C64 C 0.76631 0.79838 0.9253 0.0
H65 H 0.78764 0.12997 0.47259 0.0
H66 H 0.70426 0.18045 0.50006 0.0
H67 H 0.76928 0.15634 0.58622 0.0
H68 H 0.76453 0.22697 0.57827 0.0
C69 C 0.73453 0.21756 0.58602 0.0
O70 O 0.71825 0.18543 0.5713 0.0
H71 H 0.7337 0.2163 0.6167 0.0
C72 C 0.77264 0.14056 0.4933 0.0
C73 C 0.78254 0.14154 0.53083 0.0
C74 C 0.74411 0.15403 0.48193 0.0
C75 C 0.72616 0.16971 0.50832 0.0
C76 C 0.73555 0.17053 0.54577 0.0
C77 C 0.763 0.15591 0.557 0.0
H78 H 0.38545 0.76652 0.15595 0.0
H79 H 0.37972 0.68855 0.23498 0.0
H80 H 0.46921 0.78068 0.24046 0.0
H81 H 0.49497 0.72341 0.2615 0.0
C82 C 0.46785 0.70456 0.26734 0.0
O83 O 0.44043 0.72122 0.27049 0.0
H84 H 0.46135 0.68615 0.24341 0.0
C85 C 0.39635 0.75749 0.18 0.0
C86 C 0.42939 0.77805 0.19649 0.0
C87 C 0.37786 0.72504 0.19338 0.0
C88 C 0.39349 0.71306 0.2237 0.0
C89 C 0.42646 0.73293 0.24053 0.0
C90 C 0.44416 0.76534 0.22693 0.0
H91 H 0.15036 0.34921 0.79383 0.0
H92 H 0.22909 0.44716 0.77508 0.0
H93 H 0.22551 0.36511 0.69982 0.0
H94 H 0.29975 0.4023 0.72574 0.0
C95 C 0.29665 0.42846 0.72616 0.0
O96 O 0.26032 0.42721 0.71747 0.0
H97 H 0.30282 0.43924 0.75477 0.0
C98 C 0.17218 0.36555 0.77746 0.0
C99 C 0.18598 0.35182 0.7454 0.0
C100 C 0.18759 0.40017 0.78913 0.0
C101 C 0.21692 0.4206 0.76781 0.0
C102 C 0.23093 0.40749 0.73651 0.0
C103 C 0.2149 0.37381 0.72505 0.0
Ho104 Ho 0.06399 0.07288 0.5479 0.0
Ho105 Ho 0.05698 1.03628 0.62085 0.0
C106 C 0.08996 0.11697 0.62538 0.0
C107 C 0.0637 0.11441 0.49592 0.0
C108 C 0.09255 0.14523 0.48595 0.0
C109 C 0.08975 0.16182 0.45331 0.0
C110 C 0.12032 0.18736 0.44064 0.0
C111 C 0.15407 0.19625 0.46035 0.0
C112 C 0.15589 0.18092 0.49421 0.0
C113 C 0.12536 0.15561 0.50692 0.0
C114 C 0.12319 0.05117 0.56531 0.0
C115 C 0.03118 0.99249 0.54287 0.0
C116 C 0.05935 0.99594 0.67378 0.0
C117 C 0.03231 0.96622 0.689 0.0
C118 C 0.04378 0.946 0.71418 0.0
C119 C 0.0174 0.92006 0.732 0.0
C120 C 0.97912 0.91421 0.72507 0.0
C121 C 0.96807 0.93366 0.69837 0.0
C122 C 0.99445 0.95931 0.6804 0.0
C123 C 0.99725 0.05683 0.60264 0.0
O124 O 0.07929 0.11662 0.59047 0.0
O125 O 0.0892 0.08848 0.64201 0.0
O126 O 0.07354 0.08653 0.49075 0.0
O127 O 0.04739 0.11562 0.52796 0.0
O128 O 0.11268 0.05357 0.53177 0.0
O129 O 0.10418 0.06362 0.58748 0.0
O130 O 0.04299 0.99287 0.5775 0.0
O131 O 0.0307 1.02102 0.52697 0.0
O132 O 0.05087 1.0245 0.67868 0.0
O133 O 0.07135 0.99217 0.64029 0.0
O134 O 1.00731 0.05473 0.63639 0.0
O135 O 0.01669 0.04464 0.58087 0.0
H136 H 0.06469 0.15389 0.43672 0.0
H137 H 0.11832 0.19854 0.41425 0.0
H138 H 0.18149 0.18743 0.51 0.0
H139 H 0.12803 0.14286 0.53211 0.0
H140 H 0.07299 0.95091 0.72089 0.0
H141 H 0.02695 0.9052 0.75187 0.0
H142 H 0.93892 0.93031 0.69263 0.0
H143 H 0.98516 0.97471 0.66089 0.0
Ho144 Ho 0.60212 0.06683 0.06174 0.0
Ho145 Ho 0.5296 0.04192 1.02611 0.0
C146 C 0.53172 0.08966 0.09549 0.0
C147 C 0.66136 0.10194 0.09612 0.0
C148 C 0.66775 0.11029 0.1357 0.0
C149 C 0.70063 0.13385 0.14801 0.0
C150 C 0.7069 0.14062 0.18596 0.0
C151 C 0.68043 0.12368 0.212 0.0
C152 C 0.64714 0.10069 0.19936 0.0
C153 C 0.6408 0.09416 0.16155 0.0
C154 C 0.56202 1.00481 0.08558 0.0
C155 C 0.59994 1.0202 0.99239 0.0
C156 C 0.46895 1.00601 0.99433 0.0
C157 C 0.45912 0.98236 0.96241 0.0
C158 C 0.42259 0.96142 0.95898 0.0
C159 C 0.41176 0.94082 0.92732 0.0
C160 C 0.43734 0.94091 0.89848 0.0
C161 C 0.4744 0.96103 0.90269 0.0
C162 C 0.48524 0.98155 0.9345 0.0
C163 C 0.56925 0.10468 1.004 0.0
O164 O 0.5682 0.09616 0.09277 0.0
O165 O 0.50924 0.06539 0.07527 0.0
O166 O 0.65499 0.06981 0.08707 0.0
O167 O 0.63814 0.1156 0.08029 0.0
O168 O 0.59763 1.01413 0.08051 0.0
O169 O 0.54923 1.02957 0.07971 0.0
O170 O 0.56371 1.01089 0.99836 0.0
O171 O 0.62142 0.04749 1.00919 0.0
O172 O 0.48553 1.03753 0.98667 0.0
O173 O 0.48402 0.99563 1.02238 0.0
O174 O 0.53377 0.09535 1.01033 0.0
O175 O 0.58236 0.0798 1.00847 0.0
H176 H 0.72162 0.14661 0.12835 0.0
H177 H 0.73288 0.15831 0.19498 0.0
H178 H 0.62605 0.08763 0.21876 0.0
H179 H 0.61505 0.07612 0.15245 0.0
H180 H 0.40213 0.96176 0.98033 0.0
H181 H 0.3829 0.926 0.92473 0.0
H182 H 0.49479 0.96138 0.88111 0.0
H183 H 0.51369 0.99744 0.93685 0.0
Ho184 Ho 0.57763 0.53776 0.52104 0.0
Ho185 Ho 0.57778 0.59601 0.57168 0.0
C186 C 0.60631 0.53751 0.60692 0.0
C187 C 0.59647 0.4914 0.48203 0.0
C188 C 0.60799 0.46112 0.49064 0.0
C189 C 0.62819 0.46036 0.52292 0.0
C190 C 0.63812 0.43124 0.5315 0.0
C191 C 0.62835 0.4024 0.50778 0.0
C192 C 0.60853 0.40332 0.47519 0.0
C193 C 0.59826 0.43246 0.4668 0.0
C194 C 0.51182 0.53125 0.55675 0.0
C195 C 0.5458 0.59381 0.48764 0.0
C196 C 0.5596 0.64287 0.61046 0.0
C197 C 0.52876 0.6582 0.60813 0.0
C198 C 0.49656 0.64154 0.58811 0.0
C199 C 0.46686 0.65567 0.58657 0.0
C200 C 0.46881 0.68677 0.60499 0.0
C201 C 0.50137 0.70361 0.62462 0.0
C202 C 0.53111 0.68937 0.6262 0.0
C203 C 0.64395 0.60201 0.53713 0.0
O204 O 0.60329 0.5237 0.57303 0.0
O205 O 0.59646 0.56551 0.61419 0.0
O206 O 0.56193 0.48997 0.48989 0.0
O207 O 0.61974 0.52063 0.49165 0.0
O208 O 0.51466 0.52091 0.52284 0.0
O209 O 0.54396 0.54294 0.57026 0.0
O210 O 0.54305 0.60341 0.52268 0.0
O211 O 0.56319 0.57082 0.47901 0.0
O212 O 0.58376 0.64935 0.58338 0.0
O213 O 0.54999 0.61092 0.6191 0.0
O214 O 0.64036 0.61121 0.5713 0.0
O215 O 0.61207 0.59111 0.52256 0.0
H216 H 0.63648 0.48231 0.54147 0.0
H217 H 0.65394 0.43146 0.55647 0.0
H218 H 0.60051 0.38138 0.45652 0.0
H219 H 0.58264 0.43259 0.44178 0.0
H220 H 0.49426 0.61745 0.57389 0.0
H221 H 0.44244 0.64234 0.57073 0.0
H222 H 0.50359 0.72746 0.63931 0.0
H223 H 0.5558 0.70253 0.64177 0.0
Ho224 Ho 0.06696 0.51611 0.06798 0.0
Ho225 Ho 0.06521 0.58388 1.02282 0.0
C226 C 0.13645 0.5861 0.07418 0.0
C227 C 0.08086 0.46001 0.08321 0.0
C228 C 0.11458 0.44876 0.08503 0.0
C229 C 0.14994 0.47233 0.08372 0.0
C230 C 0.18183 0.4619 0.0893 0.0
C231 C 0.17881 0.42769 0.096 0.0
C232 C 0.14336 0.40395 0.09563 0.0
C233 C 0.11148 0.41446 0.09028 0.0
C234 C 0.03282 0.55688 0.10827 0.0
C235 C 0.9944 0.5151 1.01921 0.0
C236 C 0.04968 0.638 1.00296 0.0
C237 C 0.01546 0.64863 1.00434 0.0
C238 C 0.98474 0.6306 1.02516 0.0
C239 C 0.95104 0.6388 1.02364 0.0
C240 C 0.94744 0.66489 1.00094 0.0
C241 C 0.97853 0.68319 0.98059 0.0
C242 C 1.01228 0.6751 0.98231 0.0
C243 C 0.09955 0.54226 0.98389 0.0
O244 O 0.1245 0.55255 0.07787 0.0
O245 O 0.11723 0.60363 0.05667 0.0
O246 O 0.07843 0.48292 0.10836 0.0
O247 O 0.07105 0.46655 0.05019 0.0
O248 O 0.0364 0.52811 0.11923 0.0
O249 O 0.04639 0.56069 0.07594 0.0
O250 O 1.007 0.54851 1.01533 0.0
O251 O 1.01347 0.49711 1.03613 0.0
O252 O 0.04837 0.61217 0.98037 0.0
O253 O 0.06495 0.63567 1.03489 0.0
O254 O 0.09798 0.57154 0.97263 0.0
O255 O 0.08428 0.53901 1.01521 0.0
H256 H 0.15281 0.4989 0.07941 0.0
H257 H 0.20879 0.48067 0.0891 0.0
H258 H 0.14011 0.3775 0.10114 0.0
H259 H 0.08435 0.39599 0.09137 0.0
H260 H 0.98657 0.60967 0.04186 0.0
H261 H 0.92749 0.62402 0.03931 0.0
H262 H 0.97671 0.70368 0.96321 0.0
H263 H 0.03568 0.68906 0.96586 0.0
H264 H 0.33317 0.23594 0.31198 0.0
H265 H 0.16494 0.25736 0.42656 0.0
H266 H 0.31892 0.33611 0.32988 0.0
H267 H 0.2209 0.18282 0.45397 0.0
H268 H 0.2197 0.28713 0.39025 0.0
H269 H 0.29201 0.21611 0.36378 0.0
C270 C 0.32229 0.25416 0.32716 0.0
C271 C 0.32956 0.28788 0.3159 0.0
C272 C 0.22019 0.26466 0.40492 0.0
C273 C 0.28071 0.26449 0.37469 0.0
C274 C 0.18897 0.24763 0.4254 0.0
C275 C 0.18844 0.21759 0.44312 0.0
C276 C 0.25049 0.25098 0.4015 0.0
C277 C 0.22027 0.20602 0.44092 0.0
C278 C 0.29839 0.24258 0.35672 0.0
C279 C 0.31341 0.30967 0.33663 0.0
N280 N 0.24975 0.22239 0.41991 0.0
N281 N 0.2891 0.29742 0.36453 0.0
H282 H 0.35588 0.91014 0.67711 0.0
H283 H 0.38959 0.87697 0.88773 0.0
H284 H 0.29516 0.82003 0.73339 0.0
H285 H 0.45474 0.96346 0.82831 0.0
H286 H 0.3607 0.85157 0.82941 0.0
H287 H 0.39838 0.92591 0.72963 0.0
C288 C 0.35181 0.8935 0.70043 0.0
C289 C 0.32171 0.86402 0.70122 0.0
C290 C 0.38173 0.87586 0.82904 0.0
C291 C 0.37 0.88195 0.76157 0.0
C292 C 0.39813 0.89042 0.86234 0.0
C293 C 0.42426 0.92259 0.86296 0.0
C294 C 0.39127 0.89375 0.79617 0.0
C295 C 0.4348 0.9386 0.82917 0.0
C296 C 0.3761 0.90243 0.73037 0.0
C297 C 0.31801 0.84302 0.73176 0.0
N298 N 0.41788 0.92424 0.79725 0.0
N299 N 0.34152 0.85267 0.76101 0.0
H300 H 0.65144 0.38676 0.75215 0.0
H301 H 0.62479 0.56131 0.67825 0.0
H302 H 0.67081 0.47886 0.81856 0.0
H303 H 0.61619 0.47328 0.60709 0.0
H304 H 0.6426 0.53148 0.72937 0.0
H305 H 0.63999 0.41772 0.69824 0.0
C306 C 0.65396 0.41362 0.75522 0.0
C307 C 0.66273 0.43028 0.78988 0.0
C308 C 0.63705 0.51869 0.70254 0.0
C309 C 0.64866 0.46586 0.72844 0.0
C310 C 0.6268 0.53577 0.6732 0.0
C311 C 0.619 0.52001 0.63797 0.0
C312 C 0.63934 0.48527 0.69705 0.0
C313 C 0.62218 0.48674 0.63349 0.0
C314 C 0.64719 0.43127 0.7245 0.0
C315 C 0.66468 0.46499 0.79237 0.0
N316 N 0.63186 0.47051 0.66258 0.0
N317 N 0.65761 0.48146 0.76231 0.0
H318 H 0.94147 0.64358 0.29788 0.0
H319 H 0.03217 0.62387 0.09724 0.0
H320 H 0.97656 0.72606 0.22274 0.0
H321 H 1.00115 0.54419 0.17614 0.0
H322 H 1.01122 0.66163 0.1414 0.0
H323 H 0.96318 0.60697 0.25324 0.0
C324 C 0.95434 0.65417 0.27229 0.0
C325 C 0.95803 0.6883 0.26466 0.0
C326 C 1.00892 0.63583 0.149 0.0
C327 C 0.9821 0.64605 0.21242 0.0
C328 C 0.02074 0.61419 0.12357 0.0
C329 C 0.01843 0.58065 0.13268 0.0
C330 C 0.99462 0.6239 0.18394 0.0
C331 C 1.00355 0.56977 0.16766 0.0
C332 C 0.96652 0.63318 0.24656 0.0
C333 C 0.97388 0.70018 0.23028 0.0
N334 N 0.99237 0.59114 0.19177 0.0
N335 N 0.98527 0.67924 0.20561 0.0
H336 H 0.50283 0.25121 0.24271 0.0
H337 H 0.46228 0.0987 0.09227 0.0
H338 H 0.42352 0.23898 0.1541 0.0
H339 H 0.5666 0.13347 0.15099 0.0
H340 H 0.44106 0.14318 0.1242 0.0
H341 H 0.52124 0.20219 0.21719 0.0
C342 C 0.48927 0.2381 0.21798 0.0
C343 C 0.46128 0.24871 0.20073 0.0
C344 C 0.46846 0.14084 0.13029 0.0
C345 C 0.4818 0.19283 0.17175 0.0
C346 C 0.48046 0.11529 0.11236 0.0
C347 C 0.51635 0.11258 0.11879 0.0
C348 C 0.49237 0.16357 0.15509 0.0
C349 C 0.53882 0.13489 0.14498 0.0
C350 C 0.4997 0.21022 0.2035 0.0
C351 C 0.44485 0.23123 0.16848 0.0
N352 N 0.52651 0.15958 0.16211 0.0
N353 N 0.45515 0.20399 0.15519 0.0
H354 H 0.23046 0.9243 0.68269 0.0
H355 H 0.15359 1.01286 0.51916 0.0
H356 H 0.22973 0.89295 0.5676 0.0
H357 H 0.14468 1.03924 0.63463 0.0
H358 H 0.18653 0.97217 0.53636 0.0
H359 H 0.20351 0.96945 0.66564 0.0
C360 C 0.22486 0.92707 0.65379 0.0
C361 C 0.23231 0.90481 0.6265 0.0
C362 C 0.17756 0.98692 0.55799 0.0
C363 C 0.20129 0.95627 0.60684 0.0
C364 C 0.15889 1.01026 0.54817 0.0
C365 C 0.14621 1.02918 0.57558 0.0
C366 C 0.18365 0.98248 0.59553 0.0
C367 C 0.15385 1.02491 0.61271 0.0
C368 C 0.20933 0.95275 0.64411 0.0
C369 C 0.22402 0.90928 0.58957 0.0
N370 N 0.17193 1.00182 0.62166 0.0
N371 N 0.20897 0.93449 0.58084 0.0
H372 H 0.80777 0.36 0.92391 0.0
H373 H 0.94249 0.54177 0.98745 0.0
H374 H 0.77845 0.45346 0.91197 0.0
H375 H 0.96189 0.44621 1.01292 0.0
H376 H 0.88354 0.51063 0.95806 0.0
H377 H 0.86527 0.39176 0.95453 0.0
C378 C 0.81316 0.38718 0.92791 0.0
C379 C 0.78768 0.40385 0.91543 0.0
C380 C 0.90065 0.4965 0.9702 0.0
C381 C 0.85454 0.44078 0.95026 0.0
C382 C 0.9344 0.51428 0.98704 0.0
C383 C 0.95746 0.4967 1.00282 0.0
C384 C 0.88981 0.46081 0.96879 0.0
C385 C 0.94522 0.46101 1.00132 0.0
C386 C 0.84627 0.40539 0.9453 0.0
C387 C 0.79715 0.43938 0.92072 0.0
N388 N 0.91248 0.44436 0.98454 0.0
N389 N 0.82969 0.45658 0.93769 0.0
H390 H 0.81747 0.67474 0.37011 0.0
H391 H 0.71317 0.6297 0.56569 0.0
H392 H 0.86885 0.70475 0.4767 0.0
H393 H 0.65638 0.60158 0.46143 0.0
H394 H 0.77135 0.65341 0.53246 0.0
H395 H 0.7596 0.64407 0.40163 0.0
C396 C 0.81676 0.67465 0.40007 0.0
C397 C 0.84813 0.69277 0.42069 0.0
C398 C 0.74631 0.64197 0.51666 0.0
C399 C 0.78184 0.65777 0.457 0.0
C400 C 0.71297 0.62833 0.53571 0.0
C401 C 0.67971 0.61377 0.51639 0.0
C402 C 0.74675 0.64128 0.47773 0.0
C403 C 0.68135 0.61262 0.47747 0.0
C404 C 0.78362 0.65728 0.41806 0.0
C405 C 0.84533 0.69179 0.45951 0.0
N406 N 0.71422 0.62638 0.45942 0.0
N407 N 0.81295 0.67481 0.47623 0.0
H408 H 0.3438 0.38988 0.23555 0.0
H409 H 0.19862 0.37101 0.07269 0.0
H410 H 0.32461 0.30986 0.15184 0.0
H411 H 0.2339 0.46018 0.14422 0.0
H412 H 0.24856 0.35051 0.09752 0.0
H413 H 0.30816 0.41877 0.19891 0.0
C414 C 0.33252 0.37872 0.20913 0.0
C415 C 0.33688 0.3474 0.19676 0.0
C416 C 0.24574 0.37481 0.10737 0.0
C417 C 0.29563 0.37992 0.15494 0.0
C418 C 0.21715 0.38643 0.09332 0.0
C419 C 0.21191 0.41717 0.10666 0.0
C420 C 0.26893 0.39388 0.13532 0.0
C421 C 0.23701 0.43639 0.13304 0.0
C422 C 0.31222 0.39518 0.18819 0.0
C423 C 0.32197 0.33405 0.16226 0.0
N424 N 0.26409 0.4242 0.14687 0.0
N425 N 0.30148 0.35013 0.1428 0.0
H426 H 0.73095 0.28275 0.91455 0.0
H427 H 0.53948 0.15511 0.98499 0.0
H428 H 0.6239 0.30146 0.904 0.0
H429 H 0.64367 0.12989 0.98432 0.0
H430 H 0.57048 0.2091 0.95669 0.0
H431 H 0.70027 0.22757 0.94081 0.0
C432 C 0.70096 0.27536 0.91776 0.0
C433 C 0.68013 0.29722 0.90713 0.0
C434 C 0.58668 0.19184 0.9626 0.0
C435 C 0.64458 0.23341 0.93735 0.0
C436 C 0.56898 0.1609 0.97887 0.0
C437 C 0.58892 0.13771 0.98703 0.0
C438 C 0.62491 0.20015 0.95442 0.0
C439 C 0.62713 0.14686 0.97848 0.0
C440 C 0.68343 0.24365 0.93267 0.0
C441 C 0.64123 0.28563 0.91148 0.0
N442 N 0.64386 0.17733 0.96274 0.0
N443 N 0.62487 0.25478 0.9264 0.0
H444 H 0.96351 0.83004 0.37191 0.0
H445 H 0.0185 0.9279 0.56893 0.0
H446 H 0.94729 0.78061 0.47679 0.0
H447 H 0.01384 0.98061 0.46846 0.0
H448 H 0.99781 0.87385 0.53428 0.0
H449 H 0.98799 0.88513 0.40506 0.0
C450 C 0.96549 0.83067 0.40181 0.0
C451 C 0.95303 0.80047 0.42147 0.0
C452 C 1.00126 0.89719 0.51972 0.0
C453 C 0.98099 0.86363 0.45976 0.0
C454 C 1.01314 0.92823 0.53957 0.0
C455 C 0.01787 0.95918 0.52183 0.0
C456 C 0.99426 0.89668 0.48148 0.0
C457 C 1.01043 0.95756 0.48354 0.0
C458 C 0.97919 0.86219 0.42078 0.0
C459 C 0.95609 0.8031 0.46034 0.0
N460 N 0.99914 0.927 0.46473 0.0
N461 N 0.96963 0.83387 0.47802 0.0
H462 H 0.24759 0.71311 0.59876 0.0
H463 H 0.46996 0.75315 0.59583 0.0
H464 H 0.32183 0.81183 0.57705 0.0
H465 H 0.39468 0.65343 0.61164 0.0
H466 H 0.41644 0.77598 0.59235 0.0
H467 H 0.30152 0.69143 0.60691 0.0
C468 C 0.27537 0.73009 0.59556 0.0
C469 C 0.2805 0.76398 0.58642 0.0
C470 C 0.41165 0.74911 0.59664 0.0
C471 C 0.34222 0.73975 0.59611 0.0
C472 C 0.4422 0.7361 0.59883 0.0
C473 C 0.43678 0.70129 0.60383 0.0
C474 C 0.37543 0.72717 0.59959 0.0
C475 C 0.40015 0.68033 0.60715 0.0
C476 C 0.3061 0.71783 0.60026 0.0
C477 C 0.3169 0.78533 0.58337 0.0
N478 N 0.37092 0.69358 0.60492 0.0
N479 N 0.34644 0.77282 0.58802 0.0
H480 H 0.84443 0.82648 0.91145 0.0
H481 H 0.91071 0.87234 0.70362 0.0
H482 H 0.76938 0.82625 0.82168 0.0
H483 H 0.98207 0.90234 0.79914 0.0
H484 H 0.86048 0.84172 0.74414 0.0
H485 H 0.89668 0.8403 0.86776 0.0
C486 C 0.83891 0.82872 0.88242 0.0
C487 C 0.80266 0.82563 0.87014 0.0
C488 C 0.88734 0.85465 0.75606 0.0
C489 C 0.86212 0.84153 0.82022 0.0
C490 C 0.916 0.87226 0.733 0.0
C491 C 0.95059 0.89053 0.74798 0.0
C492 C 0.89333 0.85509 0.79435 0.0
C493 C 0.95604 0.88861 0.78618 0.0
C494 C 0.86871 0.83678 0.85758 0.0
C495 C 0.79703 0.82898 0.8323 0.0
N496 N 0.9276 0.87155 0.80808 0.0
N497 N 0.8265 0.83699 0.80868 0.0
H498 H 0.73316 0.20315 0.43702 0.0
H499 H 0.67023 0.0749 0.26363 0.0
H500 H 0.72909 0.0972 0.43758 0.0
H501 H 0.70815 0.18346 0.2518 0.0
H502 H 0.68359 0.08276 0.32974 0.0
H503 H 0.71613 0.19653 0.37112 0.0
C504 C 0.72847 0.17851 0.42329 0.0
C505 C 0.73274 0.15071 0.44257 0.0
C506 C 0.68897 0.1049 0.31274 0.0
C507 C 0.71319 0.14295 0.36773 0.0
C508 C 0.68113 0.10044 0.27505 0.0
C509 C 0.68807 0.12858 0.25224 0.0
C510 C 0.70362 0.13778 0.32793 0.0
C511 C 0.70269 0.16109 0.26843 0.0
C512 C 0.71899 0.1748 0.38576 0.0
C513 C 0.72652 0.11936 0.42357 0.0
N514 N 0.7099 0.16484 0.30538 0.0
N515 N 0.71699 0.11631 0.38727 0.0
H516 H 0.47077 0.63891 0.27348 0.0
H517 H 0.51944 0.65046 0.49073 0.0
H518 H 0.47727 0.72889 0.34043 0.0
H519 H 0.53609 0.57312 0.41465 0.0
H520 H 0.49661 0.67671 0.43901 0.0
H521 H 0.48643 0.61155 0.32763 0.0
C522 C 0.47481 0.65274 0.2998 0.0
C523 C 0.47206 0.68614 0.30239 0.0
C524 C 0.50515 0.65393 0.43373 0.0
C525 C 0.49098 0.65496 0.36498 0.0
C526 C 0.51811 0.63883 0.46329 0.0
C527 C 0.52995 0.60948 0.45722 0.0
C528 C 0.50352 0.63941 0.39778 0.0
C529 C 0.52754 0.59574 0.42089 0.0
C530 C 0.48407 0.63715 0.33076 0.0
C531 C 0.47846 0.70294 0.33725 0.0
N532 N 0.51465 0.61071 0.39281 0.0
N533 N 0.48763 0.68724 0.36712 0.0
H534 H 0.11592 0.38705 0.81948 0.0
H535 H 0.16226 0.55706 0.94187 0.0
H536 H 0.22848 0.44952 0.83794 0.0
H537 H 0.07036 0.47264 0.97297 0.0
H538 H 0.18364 0.51951 0.8985 0.0
H539 H 0.09512 0.41816 0.87094 0.0
C540 C 0.1364 0.40695 0.83431 0.0
C541 C 0.17411 0.41588 0.82319 0.0
C542 C 0.15904 0.50896 0.91509 0.0
C543 C 0.15005 0.45224 0.88194 0.0
C544 C 0.14689 0.53042 0.94 0.0
C545 C 0.11491 0.51792 0.96173 0.0
C546 C 0.13844 0.4747 0.91057 0.0
C547 C 0.09568 0.4832 0.95746 0.0
C548 C 0.12438 0.42482 0.86369 0.0
C549 C 0.19897 0.4422 0.84396 0.0
N550 N 0.10738 0.46291 0.93203 0.0
N551 N 0.1865 0.45956 0.87157 0.0
H552 H 0.6458 0.83367 0.93287 0.0
H553 H 0.67337 1.03 0.97368 0.0
H554 H 0.75007 0.91016 0.91578 0.0
H555 H 0.56507 0.95701 0.96367 0.0
H556 H 0.70165 0.98712 0.9489 0.0
H557 H 0.61508 0.87866 0.9417 0.0
C558 C 0.66211 0.85992 0.93066 0.0
C559 C 0.70051 0.86821 0.92366 0.0
C560 C 0.67164 0.98064 0.95161 0.0
C561 C 0.66574 0.91975 0.9339 0.0
C562 C 0.65548 1.00515 0.96571 0.0
C563 C 0.61685 0.99698 0.97122 0.0
C564 C 0.64906 0.94761 0.94344 0.0
C565 C 0.59503 0.96439 0.96023 0.0
C566 C 0.64459 0.88557 0.93549 0.0
C567 C 0.72034 0.90261 0.92078 0.0
N568 N 0.61148 0.94074 0.94742 0.0
N569 N 0.70282 0.92711 0.92633 0.0
H570 H 0.83394 0.16696 0.58573 0.0
H571 H 0.96274 0.04828 0.5355 0.0
H572 H 0.80297 0.08642 0.50236 0.0
H573 H 0.96008 0.09252 0.6449 0.0
H574 H 0.90958 0.06832 0.51816 0.0
H575 H 0.88559 0.14568 0.60374 0.0
C576 C 0.83765 0.14463 0.5714 0.0
C577 C 0.81378 0.12845 0.54248 0.0
C578 C 0.92061 0.0735 0.54597 0.0
C579 C 0.8737 0.10469 0.56237 0.0
C580 C 0.95092 0.06222 0.55581 0.0
C581 C 0.9655 0.0687 0.5917 0.0
C582 C 0.9054 0.0919 0.57202 0.0
C583 C 0.94939 0.08689 0.61701 0.0
C584 C 0.86734 0.13267 0.58159 0.0
C585 C 0.82086 0.10013 0.52437 0.0
N586 N 0.92027 0.09809 0.60662 0.0
N587 N 0.85031 0.08928 0.53447 0.0
H588 H 0.32085 0.74685 0.16489 0.0
H589 H 0.18882 0.56147 0.10868 0.0
H590 H 0.35242 0.65519 0.1819 0.0
H591 H 0.1676 0.6552 0.07875 0.0
H592 H 0.24745 0.59446 0.13758 0.0
H593 H 0.2636 0.713 0.13542 0.0
C594 C 0.31604 0.71963 0.16224 0.0
C595 C 0.34209 0.70412 0.17586 0.0
C596 C 0.22997 0.60776 0.12459 0.0
C597 C 0.2754 0.66473 0.14235 0.0
C598 C 0.19639 0.58892 0.10804 0.0
C599 C 0.17293 0.60542 0.09107 0.0
C600 C 0.24022 0.64346 0.1245 0.0
C601 C 0.18454 0.64114 0.09129 0.0
C602 C 0.28303 0.70021 0.14552 0.0
C603 C 0.33328 0.66846 0.17227 0.0
N604 N 0.21708 0.6588 0.10775 0.0
N605 N 0.30083 0.65007 0.15592 0.0
H606 H 0.35642 0.48416 0.74062 0.0
H607 H 0.44252 0.49179 0.53526 0.0
H608 H 0.30162 0.41871 0.65048 0.0
H609 H 0.5026 0.54507 0.63028 0.0
H610 H 0.38758 0.47008 0.57468 0.0
H611 H 0.40651 0.51217 0.69843 0.0
C612 C 0.3546 0.47608 0.71172 0.0
C613 C 0.32459 0.44921 0.69899 0.0
C614 C 0.41269 0.4867 0.58687 0.0
C615 C 0.38244 0.48089 0.65039 0.0
C616 C 0.44406 0.49919 0.56434 0.0
C617 C 0.47732 0.52019 0.5795 0.0
C618 C 0.41442 0.49541 0.62488 0.0
C619 C 0.47763 0.52893 0.61739 0.0
C620 C 0.38338 0.49196 0.68765 0.0
C621 C 0.32405 0.43954 0.66133 0.0
N622 N 0.44681 0.51645 0.63871 0.0
N623 N 0.35257 0.45523 0.63842 0.0
H624 H 0.75391 0.71579 0.91971 0.0
H625 H 0.89847 0.66978 0.05639 0.0
H626 H 0.7478 0.72456 1.03854 0.0
H627 H 0.91368 0.67685 0.93807 0.0
H628 H 0.83911 0.68303 0.05024 0.0
H629 H 0.80823 0.69428 0.9257 0.0
C630 C 0.76367 0.71251 0.94706 0.0
C631 C 0.74628 0.72149 0.97871 0.0
C632 C 0.85541 0.68161 1.02562 0.0
C633 C 0.8086 0.69761 0.98589 0.0
C634 C 0.88921 0.67393 1.0291 0.0
C635 C 0.91117 0.67247 0.99772 0.0
C636 C 0.84336 0.68766 0.99047 0.0
C637 C 0.89793 0.6783 0.96306 0.0
C638 C 0.79477 0.70049 0.95051 0.0
C639 C 0.76029 0.71746 1.01355 0.0
N640 N 0.86493 0.68566 0.96038 0.0
N641 N 0.79073 0.70588 1.01623 0.0
H642 H 0.39743 0.82619 0.17127 0.0
H643 H 0.59101 0.9546 0.10675 0.0
H644 H 0.5046 0.80907 0.18718 0.0
H645 H 0.48687 0.97962 0.10268 0.0
H646 H 0.55903 0.90063 0.13442 0.0
H647 H 0.42857 0.88122 0.14471 0.0
C648 C 0.42751 0.83386 0.16914 0.0
C649 C 0.44826 0.81255 0.18153 0.0
C650 C 0.54302 0.91782 0.1276 0.0
C651 C 0.48431 0.87614 0.15101 0.0
C652 C 0.56131 0.94877 0.1117 0.0
C653 C 0.54169 0.97189 0.10238 0.0
C654 C 0.50448 0.90941 0.13423 0.0
C655 C 0.50317 0.96267 0.10944 0.0
C656 C 0.4453 0.86549 0.15409 0.0
C657 C 0.48727 0.82448 0.17845 0.0
N658 N 0.48584 0.93217 0.12484 0.0
N659 N 0.50387 0.8552 0.16341 0.0
H660 H 0.22422 0.31156 0.70903 0.0
H661 H 0.07837 0.13277 0.69842 0.0
H662 H 0.11472 0.30607 0.7524 0.0
H663 H 0.13224 0.17764 0.59878 0.0
H664 H 0.09951 0.18894 0.73044 0.0
H665 H 0.19958 0.25538 0.68065 0.0
C666 C 0.19488 0.29898 0.71252 0.0
C667 C 0.17143 0.31494 0.73235 0.0
C668 C 0.10661 0.18634 0.70159 0.0
C669 C 0.14356 0.24855 0.70116 0.0
C670 C 0.09487 0.15431 0.68337 0.0
C671 C 0.10363 0.15039 0.64582 0.0
C672 C 0.12838 0.21443 0.68251 0.0
C673 C 0.12478 0.17937 0.62766 0.0
C674 C 0.18101 0.2665 0.69645 0.0
C675 C 0.1341 0.29545 0.73734 0.0
N676 N 0.13688 0.20989 0.64625 0.0
N677 N 0.12136 0.26335 0.72192 0.0
H678 H 0.68359 0.2424 0.62404 0.0
H679 H 0.65911 0.36316 0.46205 0.0
H680 H 0.73944 0.24716 0.51859 0.0
H681 H 0.62277 0.37205 0.57465 0.0
H682 H 0.68105 0.31492 0.47933 0.0
H683 H 0.65349 0.2844 0.60345 0.0
C684 C 0.68935 0.25229 0.59648 0.0
C685 C 0.71436 0.2419 0.5731 0.0
C686 C 0.6681 0.32734 0.50019 0.0
C687 C 0.68 0.28955 0.54924 0.0
C688 C 0.65539 0.3547 0.4903 0.0
C689 C 0.63938 0.37174 0.51705 0.0
C690 C 0.6645 0.31684 0.53702 0.0
C691 C 0.63548 0.35993 0.55332 0.0
C692 C 0.67224 0.27621 0.58474 0.0
C693 C 0.72056 0.25495 0.53747 0.0
N694 N 0.64804 0.33327 0.56226 0.0
N695 N 0.70364 0.27829 0.52664 0.0
loop_
_geom_bond_atom_site_label_1
_geom_bond_atom_site_label_2
_geom_bond_distance
_geom_bond_site_symmetry_2
_ccdc_geom_bond_type
H0 C7 0.929 . S
H1 C10 0.930 . S
H2 C12 0.929 . S
H3 C4 0.969 . S
C4 H3 0.969 . S
C4 O5 1.550 . S
C4 H6 0.973 . S
O5 C4 1.550 . S
O5 C11 1.412 . S
H6 C4 0.973 . S
C7 H0 0.929 . S
C7 C8 1.400 . S
C7 C9 1.364 . S
C8 C7 1.400 . S
C8 C12 1.377 . S
C9 C7 1.364 . S
C9 C10 1.374 . S
C10 H1 0.930 . S
C10 C9 1.374 . S
C10 C11 1.383 . S
C11 O5 1.412 . S
C11 C10 1.383 . S
C11 C12 1.394 . S
C12 H2 0.929 . S
C12 C8 1.377 . S
C12 C11 1.394 . S
H13 C20 0.929 . S
H14 C23 0.930 . S
H15 C25 0.929 . S
H16 C17 0.969 . S
C17 H16 0.969 . S
C17 O18 1.550 . S
C17 H19 0.973 . S
O18 C17 1.550 . S
O18 C24 1.412 . S
H19 C17 0.973 . S
C20 H13 0.929 . S
C20 C21 1.400 . S
C20 C22 1.364 . S
C21 C20 1.400 . S
C21 C25 1.377 . S
C22 C20 1.364 . S
C22 C23 1.374 . S
C23 H14 0.930 . S
C23 C22 1.374 . S
C23 C24 1.383 . S
C24 O18 1.412 . S
C24 C23 1.383 . S
C24 C25 1.394 . S
C25 H15 0.929 . S
C25 C21 1.377 . S
C25 C24 1.394 . S
H26 C33 0.929 . S
H27 C36 0.930 . S
H28 C38 0.929 . S
H29 C30 0.969 . S
C30 H29 0.969 . S
C30 O31 1.550 . S
C30 H32 0.973 . S
O31 C30 1.550 . S
O31 C37 1.412 . S
H32 C30 0.973 . S
C33 H26 0.929 . S
C33 C34 1.400 . S
C33 C35 1.364 . S
C34 C33 1.400 . S
C34 C38 1.377 . S
C35 C33 1.364 . S
C35 C36 1.374 . S
C36 H27 0.930 . S
C36 C35 1.374 . S
C36 C37 1.383 . S
C37 O31 1.412 . S
C37 C36 1.383 . S
C37 C38 1.394 . S
C38 H28 0.929 . S
C38 C34 1.377 . S
C38 C37 1.394 . S
H39 C46 0.929 . S
H40 C49 0.930 . S
H41 C51 0.929 . S
H42 C43 0.969 . S
C43 H42 0.969 . S
C43 O44 1.550 . S
C43 H45 0.973 . S
O44 C43 1.550 . S
O44 C50 1.412 . S
H45 C43 0.973 . S
C46 H39 0.929 . S
C46 C47 1.400 . S
C46 C48 1.364 . S
C47 C46 1.400 . S
C47 C51 1.377 . S
C48 C46 1.364 . S
C48 C49 1.374 . S
C49 H40 0.930 . S
C49 C48 1.374 . S
C49 C50 1.383 . S
C50 O44 1.412 . S
C50 C49 1.383 . S
C50 C51 1.394 . S
C51 H41 0.929 . S
C51 C47 1.377 . S
C51 C50 1.394 . S
H52 C59 0.929 . S
H53 C62 0.930 . S
H54 C64 0.929 . S
H55 C56 0.969 . S
C56 H55 0.969 . S
C56 O57 1.550 . S
C56 H58 0.973 . S
O57 C56 1.550 . S
O57 C63 1.412 . S
H58 C56 0.973 . S
C59 H52 0.929 . S
C59 C60 1.400 . S
C59 C61 1.364 . S
C60 C59 1.400 . S
C60 C64 1.377 . S
C61 C59 1.364 . S
C61 C62 1.374 . S
C62 H53 0.930 . S
C62 C61 1.374 . S
C62 C63 1.383 . S
C63 O57 1.412 . S
C63 C62 1.383 . S
C63 C64 1.394 . S
C64 H54 0.929 . S
C64 C60 1.377 . S
C64 C63 1.394 . S
H65 C72 0.929 . S
H66 C75 0.930 . S
H67 C77 0.929 . S
H68 C69 0.969 . S
C69 H68 0.969 . S
C69 O70 1.550 . S
C69 H71 0.973 . S
O70 C69 1.550 . S
O70 C76 1.412 . S
H71 C69 0.973 . S
C72 H65 0.929 . S
C72 C73 1.400 . S
C72 C74 1.364 . S
C73 C72 1.400 . S
C73 C77 1.377 . S
C74 C72 1.364 . S
C74 C75 1.374 . S
C75 H66 0.930 . S
C75 C74 1.374 . S
C75 C76 1.383 . S
C76 O70 1.412 . S
C76 C75 1.383 . S
C76 C77 1.394 . S
C77 H67 0.929 . S
C77 C73 1.377 . S
C77 C76 1.394 . S
H78 C85 0.929 . S
H79 C88 0.930 . S
H80 C90 0.929 . S
H81 C82 0.969 . S
C82 H81 0.969 . S
C82 O83 1.550 . S
C82 H84 0.973 . S
O83 C82 1.550 . S
O83 C89 1.412 . S
H84 C82 0.973 . S
C85 H78 0.929 . S
C85 C86 1.400 . S
C85 C87 1.364 . S
C86 C85 1.400 . S
C86 C90 1.377 . S
C87 C85 1.364 . S
C87 C88 1.374 . S
C88 H79 0.930 . S
C88 C87 1.374 . S
C88 C89 1.383 . S
C89 O83 1.412 . S
C89 C88 1.383 . S
C89 C90 1.394 . S
C90 H80 0.929 . S
C90 C86 1.377 . S
C90 C89 1.394 . S
H91 C98 0.929 . S
H92 C101 0.930 . S
H93 C103 0.929 . S
H94 C95 0.969 . S
C95 H94 0.969 . S
C95 O96 1.550 . S
C95 H97 0.973 . S
O96 C95 1.550 . S
O96 C102 1.412 . S
H97 C95 0.973 . S
C98 H91 0.929 . S
C98 C99 1.400 . S
C98 C100 1.364 . S
C99 C98 1.400 . S
C99 C103 1.377 . S
C100 C98 1.364 . S
C100 C101 1.374 . S
C101 H92 0.930 . S
C101 C100 1.374 . S
C101 C102 1.383 . S
C102 O96 1.412 . S
C102 C101 1.383 . S
C102 C103 1.394 . S
C103 H93 0.929 . S
C103 C99 1.377 . S
C103 C102 1.394 . S
Ho104 C107 2.811 . S
Ho104 O124 2.322 . S
Ho104 O126 2.378 . S
Ho104 O127 2.524 . S
Ho104 O128 2.381 . S
Ho104 O129 2.658 1_545 S
Ho104 O131 2.346 1_545 S
Ho104 O135 2.305 . S
Ho105 C116 2.811 1_545 S
Ho105 O125 2.346 1_655 S
Ho105 O129 2.294 1_645 S
Ho105 O130 2.322 1_545 S
Ho105 O132 2.378 1_545 S
Ho105 O133 2.524 1_545 S
Ho105 O134 2.381 . S
Ho105 O135 2.669 1_655 S
C106 O124 1.259 . S
C106 O125 1.268 . S
C107 Ho104 2.811 . S
C107 C108 1.488 . S
C107 O126 1.215 . S
C107 O127 1.289 . S
C108 C107 1.488 . S
C108 C109 1.348 . S
C108 C113 1.413 . S
C109 C108 1.348 . S
C109 C110 1.442 . S
C109 H136 0.930 . S
C110 C109 1.442 . S
C110 C111 1.381 . S
C110 H137 0.931 . S
C111 C110 1.381 . S
C111 C112 1.321 . S
C112 C111 1.321 . S
C112 C113 1.403 . S
C112 H138 0.934 . S
C113 C108 1.413 . S
C113 C112 1.403 . S
C113 H139 0.930 . S
C114 O128 1.275 1_565 S
C114 O129 1.266 . S
C115 O130 1.259 . S
C115 O131 1.268 1_655 S
C116 Ho105 2.811 1_565 S
C116 C117 1.488 . S
C116 O132 1.215 . S
C116 O133 1.289 . S
C117 C116 1.488 . S
C117 C118 1.348 . S
C117 C122 1.413 . S
C118 C117 1.348 . S
C118 C119 1.442 . S
C118 H140 0.930 . S
C119 C118 1.442 . S
C119 C120 1.381 . S
C119 H141 0.931 . S
C120 C119 1.381 . S
C120 C121 1.321 . S
C121 C120 1.321 . S
C121 C122 1.403 . S
C121 H142 0.934 . S
C122 C117 1.413 . S
C122 C121 1.403 . S
C122 H143 0.930 . S
C123 O134 1.275 . S
C123 O135 1.256 1_655 S
O124 Ho104 2.322 . S
O124 C106 1.259 . S
O125 Ho105 2.346 1_455 S
O125 C106 1.268 . S
O126 Ho104 2.378 . S
O126 C107 1.215 . S
O127 Ho104 2.524 . S
O127 C107 1.289 . S
O128 Ho104 2.381 . S
O128 C114 1.275 1_545 S
O129 Ho104 2.658 1_565 S
O129 Ho105 2.294 1_465 S
O129 C114 1.266 . S
O130 Ho105 2.322 1_565 S
O130 C115 1.259 . S
O131 Ho104 2.346 1_565 S
O131 C115 1.268 1_455 S
O132 Ho105 2.378 1_565 S
O132 C116 1.215 . S
O133 Ho105 2.524 1_565 S
O133 C116 1.289 . S
O134 Ho105 2.381 . S
O134 C123 1.275 . S
O135 Ho104 2.305 . S
O135 Ho105 2.669 1_455 S
O135 C123 1.256 1_455 S
H136 C109 0.930 . S
H137 C110 0.931 . S
H138 C112 0.934 . S
H139 C113 0.930 . S
H140 C118 0.930 . S
H141 C119 0.931 . S
H142 C121 0.934 . S
H143 C122 0.930 . S
Ho144 C147 2.811 . S
Ho144 O164 2.322 . S
Ho144 O166 2.378 . S
Ho144 O167 2.524 . S
Ho144 O168 2.381 1_545 S
Ho144 O169 2.669 1_545 S
Ho144 O171 2.346 1_544 S
Ho144 O175 2.310 . S
Ho145 C156 2.811 1_545 S
Ho145 O165 2.346 1_556 S
Ho145 O169 2.305 1_546 S
Ho145 O170 2.322 1_545 S
Ho145 O172 2.378 1_545 S
Ho145 O173 2.524 1_545 S
Ho145 O174 2.381 . S
Ho145 O175 2.667 1_556 S
C146 O164 1.259 . S
C146 O165 1.268 . S
C147 Ho144 2.811 . S
C147 C148 1.488 . S
C147 O166 1.215 . S
C147 O167 1.289 . S
C148 C147 1.488 . S
C148 C149 1.348 . S
C148 C153 1.413 . S
C149 C148 1.348 . S
C149 C150 1.442 . S
C149 H176 0.930 . S
C150 C149 1.442 . S
C150 C151 1.381 . S
C150 H177 0.931 . S
C151 C150 1.381 . S
C151 C152 1.321 . S
C152 C151 1.321 . S
C152 C153 1.403 . S
C152 H178 0.934 . S
C153 C148 1.413 . S
C153 C152 1.403 . S
C153 H179 0.930 . S
C154 O168 1.275 . S
C154 O169 1.256 . S
C155 O170 1.259 . S
C155 O171 1.268 . S
C156 Ho145 2.811 1_565 S
C156 C157 1.488 . S
C156 O172 1.215 . S
C156 O173 1.289 . S
C157 C156 1.488 . S
C157 C158 1.348 . S
C157 C162 1.413 . S
C158 C157 1.348 . S
C158 C159 1.442 . S
C158 H180 0.930 . S
C159 C158 1.442 . S
C159 C160 1.381 . S
C159 H181 0.931 . S
C160 C159 1.381 . S
C160 C161 1.321 . S
C161 C160 1.321 . S
C161 C162 1.403 . S
C161 H182 0.934 . S
C162 C157 1.413 . S
C162 C161 1.403 . S
C162 H183 0.930 . S
C163 O174 1.275 . S
C163 O175 1.250 1_556 S
O164 Ho144 2.322 . S
O164 C146 1.259 . S
O165 Ho145 2.346 1_554 S
O165 C146 1.268 . S
O166 Ho144 2.378 . S
O166 C147 1.215 . S
O167 Ho144 2.524 . S
O167 C147 1.289 . S
O168 Ho144 2.381 1_565 S
O168 C154 1.275 . S
O169 Ho144 2.669 1_565 S
O169 Ho145 2.305 1_564 S
O169 C154 1.256 . S
O170 Ho145 2.322 1_565 S
O170 C155 1.259 . S
O171 Ho144 2.346 1_566 S
O171 C155 1.268 . S
O172 Ho145 2.378 1_565 S
O172 C156 1.215 . S
O173 Ho145 2.524 1_565 S
O173 C156 1.289 . S
O174 Ho145 2.381 . S
O174 C163 1.275 . S
O175 Ho144 2.310 . S
O175 Ho145 2.667 1_554 S
O175 C163 1.250 1_554 S
H176 C149 0.930 . S
H177 C150 0.931 . S
H178 C152 0.934 . S
H179 C153 0.930 . S
H180 C158 0.930 . S
H181 C159 0.931 . S
H182 C161 0.934 . S
H183 C162 0.930 . S
Ho184 C187 2.811 . S
Ho184 O204 2.322 . S
Ho184 O206 2.378 . S
Ho184 O207 2.524 . S
Ho184 O208 2.381 . S
Ho184 O209 2.669 . S
Ho184 O211 2.346 . S
Ho184 O215 2.305 . S
Ho185 C196 2.811 . S
Ho185 O205 2.346 . S
Ho185 O209 2.305 . S
Ho185 O210 2.322 . S
Ho185 O212 2.378 . S
Ho185 O213 2.524 . S
Ho185 O214 2.381 . S
Ho185 O215 2.669 . S
C186 O204 1.259 . S
C186 O205 1.268 . S
C187 Ho184 2.811 . S
C187 C188 1.488 . S
C187 O206 1.215 . S
C187 O207 1.289 . S
C188 C187 1.488 . S
C188 C189 1.348 . S
C188 C193 1.413 . S
C189 C188 1.348 . S
C189 C190 1.442 . S
C189 H216 0.930 . S
C190 C189 1.442 . S
C190 C191 1.381 . S
C190 H217 0.931 . S
C191 C190 1.381 . S
C191 C192 1.321 . S
C192 C191 1.321 . S
C192 C193 1.403 . S
C192 H218 0.934 . S
C193 C188 1.413 . S
C193 C192 1.403 . S
C193 H219 0.930 . S
C194 O208 1.275 . S
C194 O209 1.256 . S
C195 O210 1.259 . S
C195 O211 1.268 . S
C196 Ho185 2.811 . S
C196 C197 1.488 . S
C196 O212 1.215 . S
C196 O213 1.289 . S
C197 C196 1.488 . S
C197 C198 1.348 . S
C197 C202 1.413 . S
C198 C197 1.348 . S
C198 C199 1.442 . S
C198 H220 0.930 . S
C199 C198 1.442 . S
C199 C200 1.381 . S
C199 H221 0.931 . S
C200 C199 1.381 . S
C200 C201 1.321 . S
C201 C200 1.321 . S
C201 C202 1.403 . S
C201 H222 0.934 . S
C202 C197 1.413 . S
C202 C201 1.403 . S
C202 H223 0.930 . S
C203 O214 1.275 . S
C203 O215 1.256 . S
O204 Ho184 2.322 . S
O204 C186 1.259 . S
O205 Ho185 2.346 . S
O205 C186 1.268 . S
O206 Ho184 2.378 . S
O206 C187 1.215 . S
O207 Ho184 2.524 . S
O207 C187 1.289 . S
O208 Ho184 2.381 . S
O208 C194 1.275 . S
O209 Ho184 2.669 . S
O209 Ho185 2.305 . S
O209 C194 1.256 . S
O210 Ho185 2.322 . S
O210 C195 1.259 . S
O211 Ho184 2.346 . S
O211 C195 1.268 . S
O212 Ho185 2.378 . S
O212 C196 1.215 . S
O213 Ho185 2.524 . S
O213 C196 1.289 . S
O214 Ho185 2.381 . S
O214 C203 1.275 . S
O215 Ho184 2.305 . S
O215 Ho185 2.669 . S
O215 C203 1.256 . S
H216 C189 0.930 . S
H217 C190 0.931 . S
H218 C192 0.934 . S
H219 C193 0.930 . S
H220 C198 0.930 . S
H221 C199 0.931 . S
H222 C201 0.934 . S
H223 C202 0.930 . S
Ho224 C227 2.811 . S
Ho224 O244 2.322 . S
Ho224 O246 2.378 . S
Ho224 O247 2.524 . S
Ho224 O248 2.381 . S
Ho224 O249 2.669 . S
Ho224 O251 2.346 1_455 S
Ho224 O255 2.305 . S
Ho225 C236 2.811 1_454 S
Ho225 O245 2.346 . S
Ho225 O249 2.305 . S
Ho225 O250 2.322 1_454 S
Ho225 O252 2.378 1_554 S
Ho225 O253 2.524 1_455 S
Ho225 O254 2.381 1_554 S
Ho225 O255 2.669 . S
C226 O244 1.259 . S
C226 O245 1.268 . S
C227 Ho224 2.811 . S
C227 C228 1.488 . S
C227 O246 1.215 . S
C227 O247 1.289 . S
C228 C227 1.488 . S
C228 C229 1.348 . S
C228 C233 1.413 . S
C229 C228 1.348 . S
C229 C230 1.442 . S
C229 H256 0.930 . S
C230 C229 1.442 . S
C230 C231 1.381 . S
C230 H257 0.931 . S
C231 C230 1.381 . S
C231 C232 1.321 . S
C232 C231 1.321 . S
C232 C233 1.403 . S
C232 H258 0.934 . S
C233 C228 1.413 . S
C233 C232 1.403 . S
C233 H259 0.930 . S
C234 O248 1.275 . S
C234 O249 1.256 . S
C235 O250 1.259 1_554 S
C235 O251 1.268 . S
C236 Ho225 2.811 1_656 S
C236 C237 1.488 . S
C236 O252 1.215 1_655 S
C236 O253 1.289 1_556 S
C237 C236 1.488 . S
C237 C238 1.348 . S
C237 C242 1.413 . S
C238 C237 1.348 . S
C238 C239 1.442 . S
C238 H260 0.930 1_556 S
C239 C238 1.442 . S
C239 C240 1.381 . S
C239 H261 0.931 . S
C240 C239 1.381 . S
C240 C241 1.321 . S
C241 C240 1.321 . S
C241 C242 1.403 . S
C241 H262 0.934 . S
C242 C237 1.413 . S
C242 C241 1.403 . S
C242 H263 0.930 . S
C243 O254 1.275 . S
C243 O255 1.256 1_556 S
O244 Ho224 2.322 . S
O244 C226 1.259 . S
O245 Ho225 2.346 . S
O245 C226 1.268 . S
O246 Ho224 2.378 . S
O246 C227 1.215 . S
O247 Ho224 2.524 . S
O247 C227 1.289 . S
O248 Ho224 2.381 . S
O248 C234 1.275 . S
O249 Ho224 2.669 . S
O249 Ho225 2.305 . S
O249 C234 1.256 . S
O250 Ho225 2.322 1_656 S
O250 C235 1.259 1_556 S
O251 Ho224 2.346 1_655 S
O251 C235 1.268 . S
O252 Ho225 2.378 1_556 S
O252 C236 1.215 1_455 S
O253 Ho225 2.524 1_655 S
O253 C236 1.289 1_554 S
O254 Ho225 2.381 1_556 S
O254 C243 1.275 . S
O255 Ho224 2.305 . S
O255 Ho225 2.669 . S
O255 C243 1.256 1_554 S
H256 C229 0.930 . S
H257 C230 0.931 . S
H258 C232 0.934 . S
H259 C233 0.930 . S
H260 C238 0.930 1_554 S
H261 C239 0.931 . S
H262 C241 0.934 . S
H263 C242 0.930 . S
H264 C270 0.930 . S
H265 C274 0.930 . S
H266 C279 0.929 . S
H267 C277 0.929 . S
H268 C272 0.929 . S
H269 C278 0.929 . S
C270 H264 0.930 . S
C270 C271 1.367 . S
C270 C278 1.378 . S
C271 C270 1.367 . S
C271 C279 1.433 . S
C272 H268 0.929 . S
C272 C274 1.378 . S
C272 C276 1.350 . S
C273 C276 1.463 . S
C273 C278 1.350 . S
C273 N281 1.427 . S
C274 H265 0.930 . S
C274 C272 1.378 . S
C274 C275 1.367 . S
C275 C274 1.367 . S
C275 C277 1.433 . S
C276 C272 1.350 . S
C276 C273 1.463 . S
C276 N280 1.427 . S
C277 H267 0.929 . S
C277 C275 1.433 . S
C277 N280 1.384 . S
C278 H269 0.929 . S
C278 C270 1.378 . S
C278 C273 1.350 . S
C279 H266 0.929 . S
C279 C271 1.433 . S
C279 N281 1.384 . S
N280 C276 1.427 . S
N280 C277 1.384 . S
N281 C273 1.427 . S
N281 C279 1.384 . S
H282 C288 0.930 . S
H283 C292 0.930 . S
H284 C297 0.929 . S
H285 C295 0.929 . S
H286 C290 0.929 . S
H287 C296 0.929 . S
C288 H282 0.930 . S
C288 C289 1.367 . S
C288 C296 1.378 . S
C289 C288 1.367 . S
C289 C297 1.433 . S
C290 H286 0.929 . S
C290 C292 1.378 . S
C290 C294 1.350 . S
C291 C294 1.463 . S
C291 C296 1.350 . S
C291 N299 1.427 . S
C292 H283 0.930 . S
C292 C290 1.378 . S
C292 C293 1.367 . S
C293 C292 1.367 . S
C293 C295 1.433 . S
C294 C290 1.350 . S
C294 C291 1.463 . S
C294 N298 1.427 . S
C295 H285 0.929 . S
C295 C293 1.433 . S
C295 N298 1.384 . S
C296 H287 0.929 . S
C296 C288 1.378 . S
C296 C291 1.350 . S
C297 H284 0.929 . S
C297 C289 1.433 . S
C297 N299 1.384 . S
N298 C294 1.427 . S
N298 C295 1.384 . S
N299 C291 1.427 . S
N299 C297 1.384 . S
H300 C306 0.930 . S
H301 C310 0.930 . S
H302 C315 0.929 . S
H303 C313 0.929 . S
H304 C308 0.929 . S
H305 C314 0.929 . S
C306 H300 0.930 . S
C306 C307 1.367 . S
C306 C314 1.378 . S
C307 C306 1.367 . S
C307 C315 1.433 . S
C308 H304 0.929 . S
C308 C310 1.378 . S
C308 C312 1.350 . S
C309 C312 1.463 . S
C309 C314 1.350 . S
C309 N317 1.427 . S
C310 H301 0.930 . S
C310 C308 1.378 . S
C310 C311 1.367 . S
C311 C310 1.367 . S
C311 C313 1.433 . S
C312 C308 1.350 . S
C312 C309 1.463 . S
C312 N316 1.427 . S
C313 H303 0.929 . S
C313 C311 1.433 . S
C313 N316 1.384 . S
C314 H305 0.929 . S
C314 C306 1.378 . S
C314 C309 1.350 . S
C315 H302 0.929 . S
C315 C307 1.433 . S
C315 N317 1.384 . S
N316 C312 1.427 . S
N316 C313 1.384 . S
N317 C309 1.427 . S
N317 C315 1.384 . S
H318 C324 0.930 . S
H319 C328 0.930 . S
H320 C333 0.929 . S
H321 C331 0.929 1_455 S
H322 C326 0.929 . S
H323 C332 0.929 . S
C324 H318 0.930 . S
C324 C325 1.367 . S
C324 C332 1.378 . S
C325 C324 1.367 . S
C325 C333 1.433 . S
C326 H322 0.929 . S
C326 C328 1.378 . S
C326 C330 1.350 . S
C327 C330 1.463 . S
C327 C332 1.350 . S
C327 N335 1.427 . S
C328 H319 0.930 . S
C328 C326 1.378 . S
C328 C329 1.367 . S
C329 C328 1.367 . S
C329 C331 1.433 . S
C330 C326 1.350 . S
C330 C327 1.463 . S
C330 N334 1.427 . S
C331 H321 0.929 1_655 S
C331 C329 1.433 . S
C331 N334 1.384 . S
C332 H323 0.929 . S
C332 C324 1.378 . S
C332 C327 1.350 . S
C333 H320 0.929 . S
C333 C325 1.433 . S
C333 N335 1.384 . S
N334 C330 1.427 . S
N334 C331 1.384 . S
N335 C327 1.427 . S
N335 C333 1.384 . S
H336 C342 0.930 . S
H337 C346 0.930 . S
H338 C351 0.929 . S
H339 C349 0.929 . S
H340 C344 0.929 . S
H341 C350 0.929 . S
C342 H336 0.930 . S
C342 C343 1.367 . S
C342 C350 1.378 . S
C343 C342 1.367 . S
C343 C351 1.433 . S
C344 H340 0.929 . S
C344 C346 1.378 . S
C344 C348 1.350 . S
C345 C348 1.463 . S
C345 C350 1.350 . S
C345 N353 1.427 . S
C346 H337 0.930 . S
C346 C344 1.378 . S
C346 C347 1.367 . S
C347 C346 1.367 . S
C347 C349 1.433 . S
C348 C344 1.350 . S
C348 C345 1.463 . S
C348 N352 1.427 . S
C349 H339 0.929 . S
C349 C347 1.433 . S
C349 N352 1.384 . S
C350 H341 0.929 . S
C350 C342 1.378 . S
C350 C345 1.350 . S
C351 H338 0.929 . S
C351 C343 1.433 . S
C351 N353 1.384 . S
N352 C348 1.427 . S
N352 C349 1.384 . S
N353 C345 1.427 . S
N353 C351 1.384 . S
H354 C360 0.930 . S
H355 C364 0.930 . S
H356 C369 0.929 . S
H357 C367 0.929 . S
H358 C362 0.929 . S
H359 C368 0.929 . S
C360 H354 0.930 . S
C360 C361 1.367 . S
C360 C368 1.378 . S
C361 C360 1.367 . S
C361 C369 1.433 . S
C362 H358 0.929 . S
C362 C364 1.378 . S
C362 C366 1.350 . S
C363 C366 1.463 . S
C363 C368 1.350 . S
C363 N371 1.427 . S
C364 H355 0.930 . S
C364 C362 1.378 . S
C364 C365 1.367 . S
C365 C364 1.367 . S
C365 C367 1.433 . S
C366 C362 1.350 . S
C366 C363 1.463 . S
C366 N370 1.427 . S
C367 H357 0.929 . S
C367 C365 1.433 . S
C367 N370 1.384 . S
C368 H359 0.929 . S
C368 C360 1.378 . S
C368 C363 1.350 . S
C369 H356 0.929 . S
C369 C361 1.433 . S
C369 N371 1.384 . S
N370 C366 1.427 . S
N370 C367 1.384 . S
N371 C363 1.427 . S
N371 C369 1.384 . S
H372 C378 0.930 . S
H373 C382 0.930 1_554 S
H374 C387 0.929 . S
H375 C385 0.929 . S
H376 C380 0.929 . S
H377 C386 0.929 . S
C378 H372 0.930 . S
C378 C379 1.367 . S
C378 C386 1.378 . S
C379 C378 1.367 . S
C379 C387 1.433 . S
C380 H376 0.929 . S
C380 C382 1.378 . S
C380 C384 1.350 . S
C381 C384 1.463 . S
C381 C386 1.350 . S
C381 N389 1.427 . S
C382 H373 0.930 1_556 S
C382 C380 1.378 . S
C382 C383 1.367 . S
C383 C382 1.367 . S
C383 C385 1.433 . S
C384 C380 1.350 . S
C384 C381 1.463 . S
C384 N388 1.427 . S
C385 H375 0.929 . S
C385 C383 1.433 . S
C385 N388 1.384 . S
C386 H377 0.929 . S
C386 C378 1.378 . S
C386 C381 1.350 . S
C387 H374 0.929 . S
C387 C379 1.433 . S
C387 N389 1.384 . S
N388 C384 1.427 . S
N388 C385 1.384 . S
N389 C381 1.427 . S
N389 C387 1.384 . S
H390 C396 0.930 . S
H391 C400 0.930 . S
H392 C405 0.929 . S
H393 C403 0.929 . S
H394 C398 0.929 . S
H395 C404 0.929 . S
C396 H390 0.930 . S
C396 C397 1.367 . S
C396 C404 1.378 . S
C397 C396 1.367 . S
C397 C405 1.433 . S
C398 H394 0.929 . S
C398 C400 1.378 . S
C398 C402 1.350 . S
C399 C402 1.463 . S
C399 C404 1.350 . S
C399 N407 1.427 . S
C400 H391 0.930 . S
C400 C398 1.378 . S
C400 C401 1.367 . S
C401 C400 1.367 . S
C401 C403 1.433 . S
C402 C398 1.350 . S
C402 C399 1.463 . S
C402 N406 1.427 . S
C403 H393 0.929 . S
C403 C401 1.433 . S
C403 N406 1.384 . S
C404 H395 0.929 . S
C404 C396 1.378 . S
C404 C399 1.350 . S
C405 H392 0.929 . S
C405 C397 1.433 . S
C405 N407 1.384 . S
N406 C402 1.427 . S
N406 C403 1.384 . S
N407 C399 1.427 . S
N407 C405 1.384 . S
H408 C414 0.930 . S
H409 C418 0.930 . S
H410 C423 0.929 . S
H411 C421 0.929 . S
H412 C416 0.929 . S
H413 C422 0.929 . S
C414 H408 0.930 . S
C414 C415 1.367 . S
C414 C422 1.378 . S
C415 C414 1.367 . S
C415 C423 1.433 . S
C416 H412 0.929 . S
C416 C418 1.378 . S
C416 C420 1.350 . S
C417 C420 1.463 . S
C417 C422 1.350 . S
C417 N425 1.427 . S
C418 H409 0.930 . S
C418 C416 1.378 . S
C418 C419 1.367 . S
C419 C418 1.367 . S
C419 C421 1.433 . S
C420 C416 1.350 . S
C420 C417 1.463 . S
C420 N424 1.427 . S
C421 H411 0.929 . S
C421 C419 1.433 . S
C421 N424 1.384 . S
C422 H413 0.929 . S
C422 C414 1.378 . S
C422 C417 1.350 . S
C423 H410 0.929 . S
C423 C415 1.433 . S
C423 N425 1.384 . S
N424 C420 1.427 . S
N424 C421 1.384 . S
N425 C417 1.427 . S
N425 C423 1.384 . S
H426 C432 0.930 . S
H427 C436 0.930 . S
H428 C441 0.929 . S
H429 C439 0.929 . S
H430 C434 0.929 . S
H431 C440 0.929 . S
C432 H426 0.930 . S
C432 C433 1.367 . S
C432 C440 1.378 . S
C433 C432 1.367 . S
C433 C441 1.433 . S
C434 H430 0.929 . S
C434 C436 1.378 . S
C434 C438 1.350 . S
C435 C438 1.463 . S
C435 C440 1.350 . S
C435 N443 1.427 . S
C436 H427 0.930 . S
C436 C434 1.378 . S
C436 C437 1.367 . S
C437 C436 1.367 . S
C437 C439 1.433 . S
C438 C434 1.350 . S
C438 C435 1.463 . S
C438 N442 1.427 . S
C439 H429 0.929 . S
C439 C437 1.433 . S
C439 N442 1.384 . S
C440 H431 0.929 . S
C440 C432 1.378 . S
C440 C435 1.350 . S
C441 H428 0.929 . S
C441 C433 1.433 . S
C441 N443 1.384 . S
N442 C438 1.427 . S
N442 C439 1.384 . S
N443 C435 1.427 . S
N443 C441 1.384 . S
H444 C450 0.930 . S
H445 C454 0.930 . S
H446 C459 0.929 . S
H447 C457 0.929 1_455 S
H448 C452 0.929 . S
H449 C458 0.929 . S
C450 H444 0.930 . S
C450 C451 1.367 . S
C450 C458 1.378 . S
C451 C450 1.367 . S
C451 C459 1.433 . S
C452 H448 0.929 . S
C452 C454 1.378 . S
C452 C456 1.350 . S
C453 C456 1.463 . S
C453 C458 1.350 . S
C453 N461 1.427 . S
C454 H445 0.930 . S
C454 C452 1.378 . S
C454 C455 1.367 . S
C455 C454 1.367 . S
C455 C457 1.433 . S
C456 C452 1.350 . S
C456 C453 1.463 . S
C456 N460 1.427 . S
C457 H447 0.929 1_655 S
C457 C455 1.433 . S
C457 N460 1.384 . S
C458 H449 0.929 . S
C458 C450 1.378 . S
C458 C453 1.350 . S
C459 H446 0.929 . S
C459 C451 1.433 . S
C459 N461 1.384 . S
N460 C456 1.427 . S
N460 C457 1.384 . S
N461 C453 1.427 . S
N461 C459 1.384 . S
H462 C468 0.930 . S
H463 C472 0.930 . S
H464 C477 0.929 . S
H465 C475 0.929 . S
H466 C470 0.929 . S
H467 C476 0.929 . S
C468 H462 0.930 . S
C468 C469 1.367 . S
C468 C476 1.378 . S
C469 C468 1.367 . S
C469 C477 1.433 . S
C470 H466 0.929 . S
C470 C472 1.378 . S
C470 C474 1.350 . S
C471 C474 1.463 . S
C471 C476 1.350 . S
C471 N479 1.427 . S
C472 H463 0.930 . S
C472 C470 1.378 . S
C472 C473 1.367 . S
C473 C472 1.367 . S
C473 C475 1.433 . S
C474 C470 1.350 . S
C474 C471 1.463 . S
C474 N478 1.427 . S
C475 H465 0.929 . S
C475 C473 1.433 . S
C475 N478 1.384 . S
C476 H467 0.929 . S
C476 C468 1.378 . S
C476 C471 1.350 . S
C477 H464 0.929 . S
C477 C469 1.433 . S
C477 N479 1.384 . S
N478 C474 1.427 . S
N478 C475 1.384 . S
N479 C471 1.427 . S
N479 C477 1.384 . S
H480 C486 0.930 . S
H481 C490 0.930 . S
H482 C495 0.929 . S
H483 C493 0.929 . S
H484 C488 0.929 . S
H485 C494 0.929 . S
C486 H480 0.930 . S
C486 C487 1.367 . S
C486 C494 1.378 . S
C487 C486 1.367 . S
C487 C495 1.433 . S
C488 H484 0.929 . S
C488 C490 1.378 . S
C488 C492 1.350 . S
C489 C492 1.463 . S
C489 C494 1.350 . S
C489 N497 1.427 . S
C490 H481 0.930 . S
C490 C488 1.378 . S
C490 C491 1.367 . S
C491 C490 1.367 . S
C491 C493 1.433 . S
C492 C488 1.350 . S
C492 C489 1.463 . S
C492 N496 1.427 . S
C493 H483 0.929 . S
C493 C491 1.433 . S
C493 N496 1.384 . S
C494 H485 0.929 . S
C494 C486 1.378 . S
C494 C489 1.350 . S
C495 H482 0.929 . S
C495 C487 1.433 . S
C495 N497 1.384 . S
N496 C492 1.427 . S
N496 C493 1.384 . S
N497 C489 1.427 . S
N497 C495 1.384 . S
H498 C504 0.930 . S
H499 C508 0.930 . S
H500 C513 0.929 . S
H501 C511 0.929 . S
H502 C506 0.929 . S
H503 C512 0.929 . S
C504 H498 0.930 . S
C504 C505 1.367 . S
C504 C512 1.378 . S
C505 C504 1.367 . S
C505 C513 1.433 . S
C506 H502 0.929 . S
C506 C508 1.378 . S
C506 C510 1.350 . S
C507 C510 1.463 . S
C507 C512 1.350 . S
C507 N515 1.427 . S
C508 H499 0.930 . S
C508 C506 1.378 . S
C508 C509 1.367 . S
C509 C508 1.367 . S
C509 C511 1.433 . S
C510 C506 1.350 . S
C510 C507 1.463 . S
C510 N514 1.427 . S
C511 H501 0.929 . S
C511 C509 1.433 . S
C511 N514 1.384 . S
C512 H503 0.929 . S
C512 C504 1.378 . S
C512 C507 1.350 . S
C513 H500 0.929 . S
C513 C505 1.433 . S
C513 N515 1.384 . S
N514 C510 1.427 . S
N514 C511 1.384 . S
N515 C507 1.427 . S
N515 C513 1.384 . S
H516 C522 0.930 . S
H517 C526 0.930 . S
H518 C531 0.929 . S
H519 C529 0.929 . S
H520 C524 0.929 . S
H521 C530 0.929 . S
C522 H516 0.930 . S
C522 C523 1.367 . S
C522 C530 1.378 . S
C523 C522 1.367 . S
C523 C531 1.433 . S
C524 H520 0.929 . S
C524 C526 1.378 . S
C524 C528 1.350 . S
C525 C528 1.463 . S
C525 C530 1.350 . S
C525 N533 1.427 . S
C526 H517 0.930 . S
C526 C524 1.378 . S
C526 C527 1.367 . S
C527 C526 1.367 . S
C527 C529 1.433 . S
C528 C524 1.350 . S
C528 C525 1.463 . S
C528 N532 1.427 . S
C529 H519 0.929 . S
C529 C527 1.433 . S
C529 N532 1.384 . S
C530 H521 0.929 . S
C530 C522 1.378 . S
C530 C525 1.350 . S
C531 H518 0.929 . S
C531 C523 1.433 . S
C531 N533 1.384 . S
N532 C528 1.427 . S
N532 C529 1.384 . S
N533 C525 1.427 . S
N533 C531 1.384 . S
H534 C540 0.930 . S
H535 C544 0.930 . S
H536 C549 0.929 . S
H537 C547 0.929 . S
H538 C542 0.929 . S
H539 C548 0.929 . S
C540 H534 0.930 . S
C540 C541 1.367 . S
C540 C548 1.378 . S
C541 C540 1.367 . S
C541 C549 1.433 . S
C542 H538 0.929 . S
C542 C544 1.378 . S
C542 C546 1.350 . S
C543 C546 1.463 . S
C543 C548 1.350 . S
C543 N551 1.427 . S
C544 H535 0.930 . S
C544 C542 1.378 . S
C544 C545 1.367 . S
C545 C544 1.367 . S
C545 C547 1.433 . S
C546 C542 1.350 . S
C546 C543 1.463 . S
C546 N550 1.427 . S
C547 H537 0.929 . S
C547 C545 1.433 . S
C547 N550 1.384 . S
C548 H539 0.929 . S
C548 C540 1.378 . S
C548 C543 1.350 . S
C549 H536 0.929 . S
C549 C541 1.433 . S
C549 N551 1.384 . S
N550 C546 1.427 . S
N550 C547 1.384 . S
N551 C543 1.427 . S
N551 C549 1.384 . S
H552 C558 0.930 . S
H553 C562 0.930 . S
H554 C567 0.929 . S
H555 C565 0.929 . S
H556 C560 0.929 . S
H557 C566 0.929 . S
C558 H552 0.930 . S
C558 C559 1.367 . S
C558 C566 1.378 . S
C559 C558 1.367 . S
C559 C567 1.433 . S
C560 H556 0.929 . S
C560 C562 1.378 . S
C560 C564 1.350 . S
C561 C564 1.463 . S
C561 C566 1.350 . S
C561 N569 1.427 . S
C562 H553 0.930 . S
C562 C560 1.378 . S
C562 C563 1.367 . S
C563 C562 1.367 . S
C563 C565 1.433 . S
C564 C560 1.350 . S
C564 C561 1.463 . S
C564 N568 1.427 . S
C565 H555 0.929 . S
C565 C563 1.433 . S
C565 N568 1.384 . S
C566 H557 0.929 . S
C566 C558 1.378 . S
C566 C561 1.350 . S
C567 H554 0.929 . S
C567 C559 1.433 . S
C567 N569 1.384 . S
N568 C564 1.427 . S
N568 C565 1.384 . S
N569 C561 1.427 . S
N569 C567 1.384 . S
H570 C576 0.930 . S
H571 C580 0.930 . S
H572 C585 0.929 . S
H573 C583 0.929 1_455 S
H574 C578 0.929 . S
H575 C584 0.929 . S
C576 H570 0.930 . S
C576 C577 1.367 . S
C576 C584 1.378 . S
C577 C576 1.367 . S
C577 C585 1.433 . S
C578 H574 0.929 . S
C578 C580 1.378 . S
C578 C582 1.350 . S
C579 C582 1.463 . S
C579 C584 1.350 . S
C579 N587 1.427 . S
C580 H571 0.930 . S
C580 C578 1.378 . S
C580 C581 1.367 . S
C581 C580 1.367 . S
C581 C583 1.433 . S
C582 C578 1.350 . S
C582 C579 1.463 . S
C582 N586 1.427 . S
C583 H573 0.929 1_655 S
C583 C581 1.433 . S
C583 N586 1.384 . S
C584 H575 0.929 . S
C584 C576 1.378 . S
C584 C579 1.350 . S
C585 H572 0.929 . S
C585 C577 1.433 . S
C585 N587 1.384 . S
N586 C582 1.427 . S
N586 C583 1.384 . S
N587 C579 1.427 . S
N587 C585 1.384 . S
H588 C594 0.930 . S
H589 C598 0.930 . S
H590 C603 0.929 . S
H591 C601 0.929 . S
H592 C596 0.929 . S
H593 C602 0.929 . S
C594 H588 0.930 . S
C594 C595 1.367 . S
C594 C602 1.378 . S
C595 C594 1.367 . S
C595 C603 1.433 . S
C596 H592 0.929 . S
C596 C598 1.378 . S
C596 C600 1.350 . S
C597 C600 1.463 . S
C597 C602 1.350 . S
C597 N605 1.427 . S
C598 H589 0.930 . S
C598 C596 1.378 . S
C598 C599 1.367 . S
C599 C598 1.367 . S
C599 C601 1.433 . S
C600 C596 1.350 . S
C600 C597 1.463 . S
C600 N604 1.427 . S
C601 H591 0.929 . S
C601 C599 1.433 . S
C601 N604 1.384 . S
C602 H593 0.929 . S
C602 C594 1.378 . S
C602 C597 1.350 . S
C603 H590 0.929 . S
C603 C595 1.433 . S
C603 N605 1.384 . S
N604 C600 1.427 . S
N604 C601 1.384 . S
N605 C597 1.427 . S
N605 C603 1.384 . S
H606 C612 0.930 . S
H607 C616 0.930 . S
H608 C621 0.929 . S
H609 C619 0.929 . S
H610 C614 0.929 . S
H611 C620 0.929 . S
C612 H606 0.930 . S
C612 C613 1.367 . S
C612 C620 1.378 . S
C613 C612 1.367 . S
C613 C621 1.433 . S
C614 H610 0.929 . S
C614 C616 1.378 . S
C614 C618 1.350 . S
C615 C618 1.463 . S
C615 C620 1.350 . S
C615 N623 1.427 . S
C616 H607 0.930 . S
C616 C614 1.378 . S
C616 C617 1.367 . S
C617 C616 1.367 . S
C617 C619 1.433 . S
C618 C614 1.350 . S
C618 C615 1.463 . S
C618 N622 1.427 . S
C619 H609 0.929 . S
C619 C617 1.433 . S
C619 N622 1.384 . S
C620 H611 0.929 . S
C620 C612 1.378 . S
C620 C615 1.350 . S
C621 H608 0.929 . S
C621 C613 1.433 . S
C621 N623 1.384 . S
N622 C618 1.427 . S
N622 C619 1.384 . S
N623 C615 1.427 . S
N623 C621 1.384 . S
H624 C630 0.930 . S
H625 C634 0.930 . S
H626 C639 0.929 . S
H627 C637 0.929 . S
H628 C632 0.929 . S
H629 C638 0.929 . S
C630 H624 0.930 . S
C630 C631 1.367 . S
C630 C638 1.378 . S
C631 C630 1.367 . S
C631 C639 1.433 . S
C632 H628 0.929 . S
C632 C634 1.378 . S
C632 C636 1.350 . S
C633 C636 1.463 . S
C633 C638 1.350 . S
C633 N641 1.427 . S
C634 H625 0.930 . S
C634 C632 1.378 . S
C634 C635 1.367 . S
C635 C634 1.367 . S
C635 C637 1.433 . S
C636 C632 1.350 . S
C636 C633 1.463 . S
C636 N640 1.427 . S
C637 H627 0.929 . S
C637 C635 1.433 . S
C637 N640 1.384 . S
C638 H629 0.929 . S
C638 C630 1.378 . S
C638 C633 1.350 . S
C639 H626 0.929 . S
C639 C631 1.433 . S
C639 N641 1.384 . S
N640 C636 1.427 . S
N640 C637 1.384 . S
N641 C633 1.427 . S
N641 C639 1.384 . S
H642 C648 0.930 . S
H643 C652 0.930 . S
H644 C657 0.929 . S
H645 C655 0.929 . S
H646 C650 0.929 . S
H647 C656 0.929 . S
C648 H642 0.930 . S
C648 C649 1.367 . S
C648 C656 1.378 . S
C649 C648 1.367 . S
C649 C657 1.433 . S
C650 H646 0.929 . S
C650 C652 1.378 . S
C650 C654 1.350 . S
C651 C654 1.463 . S
C651 C656 1.350 . S
C651 N659 1.427 . S
C652 H643 0.930 . S
C652 C650 1.378 . S
C652 C653 1.367 . S
C653 C652 1.367 . S
C653 C655 1.433 . S
C654 C650 1.350 . S
C654 C651 1.463 . S
C654 N658 1.427 . S
C655 H645 0.929 . S
C655 C653 1.433 . S
C655 N658 1.384 . S
C656 H647 0.929 . S
C656 C648 1.378 . S
C656 C651 1.350 . S
C657 H644 0.929 . S
C657 C649 1.433 . S
C657 N659 1.384 . S
N658 C654 1.427 . S
N658 C655 1.384 . S
N659 C651 1.427 . S
N659 C657 1.384 . S
H660 C666 0.930 . S
H661 C670 0.930 . S
H662 C675 0.929 . S
H663 C673 0.929 . S
H664 C668 0.929 . S
H665 C674 0.929 . S
C666 H660 0.930 . S
C666 C667 1.367 . S
C666 C674 1.378 . S
C667 C666 1.367 . S
C667 C675 1.433 . S
C668 H664 0.929 . S
C668 C670 1.378 . S
C668 C672 1.350 . S
C669 C672 1.463 . S
C669 C674 1.350 . S
C669 N677 1.427 . S
C670 H661 0.930 . S
C670 C668 1.378 . S
C670 C671 1.367 . S
C671 C670 1.367 . S
C671 C673 1.433 . S
C672 C668 1.350 . S
C672 C669 1.463 . S
C672 N676 1.427 . S
C673 H663 0.929 . S
C673 C671 1.433 . S
C673 N676 1.384 . S
C674 H665 0.929 . S
C674 C666 1.378 . S
C674 C669 1.350 . S
C675 H662 0.929 . S
C675 C667 1.433 . S
C675 N677 1.384 . S
N676 C672 1.427 . S
N676 C673 1.384 . S
N677 C669 1.427 . S
N677 C675 1.384 . S
H678 C684 0.930 . S
H679 C688 0.930 . S
H680 C693 0.929 . S
H681 C691 0.929 . S
H682 C686 0.929 . S
H683 C692 0.929 . S
C684 H678 0.930 . S
C684 C685 1.367 . S
C684 C692 1.378 . S
C685 C684 1.367 . S
C685 C693 1.433 . S
C686 H682 0.929 . S
C686 C688 1.378 . S
C686 C690 1.350 . S
C687 C690 1.463 . S
C687 C692 1.350 . S
C687 N695 1.427 . S
C688 H679 0.930 . S
C688 C686 1.378 . S
C688 C689 1.367 . S
C689 C688 1.367 . S
C689 C691 1.433 . S
C690 C686 1.350 . S
C690 C687 1.463 . S
C690 N694 1.427 . S
C691 H681 0.929 . S
C691 C689 1.433 . S
C691 N694 1.384 . S
C692 H683 0.929 . S
C692 C684 1.378 . S
C692 C687 1.350 . S
C693 H680 0.929 . S
C693 C685 1.433 . S
C693 N695 1.384 . S
N694 C690 1.427 . S
N694 C691 1.384 . S
N695 C687 1.427 . S
N695 C693 1.384 . S
C271 C9 1.425 . S
C275 C111 1.465 . S
C289 C21 1.118 . S
C293 C160 1.121 . S
C311 C186 2.203 . S
C307 C30 2.212 . S
C325 C43 2.179 . S
C329 C234 2.260 1_655 S
C347 C146 2.111 . S
C343 C4 1.852 . S
C365 C114 1.531 . S
C361 C22 1.573 . S
C383 C235 1.584 1_556 S
C379 C34 1.626 . S
C401 C203 1.534 . S
C397 C48 1.555 . S
C415 C8 1.571 . S
C419 C231 1.616 . S
C437 C163 2.278 . S
C433 C35 2.344 . S
C451 C47 2.568 . S
C455 C115 2.564 . S
C469 C17 0.879 . S
C473 C200 0.879 . S
C491 C120 1.034 . S
C487 C60 1.013 . S
C505 C74 1.116 . S
C509 C151 1.103 . S
C523 C82 1.935 . S
C527 C195 1.989 . S
C541 C100 2.752 . S
C545 C243 2.691 . S
C559 C61 2.425 . S
C563 C155 2.534 . S
C581 C123 0.751 . S
C577 C73 0.761 . S
C599 C226 2.142 . S
C595 C87 2.195 . S
C617 C194 1.316 . S
C613 C95 1.295 . S
C631 C56 1.511 . S
C635 C240 1.506 . S
C653 C154 2.474 . S
C649 C86 2.534 . S
C671 C106 2.359 . S
C667 C99 2.363 . S
C685 C69 0.758 . S
C689 C191 0.733 . S
