# Generated by pormake.
# Topology wbl, (4,4)-cn, num edge types: 1
# Building blocks:
#     Node 0, Type 0, BuildingBlock: MIFKUJ_clean_linker_1, # of connection points: 4
#     Node 1, Type 0, BuildingBlock: MIFKUJ_clean_linker_1, # of connection points: 4
#     Node 2, Type 0, BuildingBlock: MIFKUJ_clean_linker_1, # of connection points: 4
#     Node 3, Type 0, BuildingBlock: MIFKUJ_clean_linker_1, # of connection points: 4
#     Node 4, Type 0, BuildingBlock: MIFKUJ_clean_linker_1, # of connection points: 4
#     Node 5, Type 0, BuildingBlock: MIFKUJ_clean_linker_1, # of connection points: 4
#     Node 6, Type 0, BuildingBlock: MIFKUJ_clean_linker_1, # of connection points: 4
#     Node 7, Type 0, BuildingBlock: MIFKUJ_clean_linker_1, # of connection points: 4
#     Node 8, Type 1, BuildingBlock: CEKHIL_clean_sbu_0, # of connection points: 4
#     Node 9, Type 1, BuildingBlock: CEKHIL_clean_sbu_0, # of connection points: 4
#     Node 10, Type 1, BuildingBlock: CEKHIL_clean_sbu_0, # of connection points: 4
#     Node 11, Type 1, BuildingBlock: CEKHIL_clean_sbu_0, # of connection points: 4
#     Node 12, Type 1, BuildingBlock: CEKHIL_clean_sbu_0, # of connection points: 4
#     Node 13, Type 1, BuildingBlock: CEKHIL_clean_sbu_0, # of connection points: 4
#     Node 14, Type 1, BuildingBlock: CEKHIL_clean_sbu_0, # of connection points: 4
#     Node 15, Type 1, BuildingBlock: CEKHIL_clean_sbu_0, # of connection points: 4
#     Edge 16, Type (0, 1), BuildingBlock: OJICUG_clean_linker_0, # of connection points: 2
#     Edge 17, Type (0, 1), BuildingBlock: OJICUG_clean_linker_0, # of connection points: 2
#     Edge 18, Type (0, 1), BuildingBlock: OJICUG_clean_linker_0, # of connection points: 2
#     Edge 19, Type (0, 1), BuildingBlock: OJICUG_clean_linker_0, # of connection points: 2
#     Edge 20, Type (0, 1), BuildingBlock: OJICUG_clean_linker_0, # of connection points: 2
#     Edge 21, Type (0, 1), BuildingBlock: OJICUG_clean_linker_0, # of connection points: 2
#     Edge 22, Type (0, 1), BuildingBlock: OJICUG_clean_linker_0, # of connection points: 2
#     Edge 23, Type (0, 1), BuildingBlock: OJICUG_clean_linker_0, # of connection points: 2
#     Edge 24, Type (0, 1), BuildingBlock: OJICUG_clean_linker_0, # of connection points: 2
#     Edge 25, Type (0, 1), BuildingBlock: OJICUG_clean_linker_0, # of connection points: 2
#     Edge 26, Type (0, 1), BuildingBlock: OJICUG_clean_linker_0, # of connection points: 2
#     Edge 27, Type (0, 1), BuildingBlock: OJICUG_clean_linker_0, # of connection points: 2
#     Edge 28, Type (0, 1), BuildingBlock: OJICUG_clean_linker_0, # of connection points: 2
#     Edge 29, Type (0, 1), BuildingBlock: OJICUG_clean_linker_0, # of connection points: 2
#     Edge 30, Type (0, 1), BuildingBlock: OJICUG_clean_linker_0, # of connection points: 2
#     Edge 31, Type (0, 1), BuildingBlock: OJICUG_clean_linker_0, # of connection points: 2
#     Edge 32, Type (0, 1), BuildingBlock: OJICUG_clean_linker_0, # of connection points: 2
#     Edge 33, Type (0, 1), BuildingBlock: OJICUG_clean_linker_0, # of connection points: 2
#     Edge 34, Type (0, 1), BuildingBlock: OJICUG_clean_linker_0, # of connection points: 2
#     Edge 35, Type (0, 1), BuildingBlock: OJICUG_clean_linker_0, # of connection points: 2
#     Edge 36, Type (0, 1), BuildingBlock: OJICUG_clean_linker_0, # of connection points: 2
#     Edge 37, Type (0, 1), BuildingBlock: OJICUG_clean_linker_0, # of connection points: 2
#     Edge 38, Type (0, 1), BuildingBlock: OJICUG_clean_linker_0, # of connection points: 2
#     Edge 39, Type (0, 1), BuildingBlock: OJICUG_clean_linker_0, # of connection points: 2
#     Edge 40, Type (0, 1), BuildingBlock: OJICUG_clean_linker_0, # of connection points: 2
#     Edge 41, Type (0, 1), BuildingBlock: OJICUG_clean_linker_0, # of connection points: 2
#     Edge 42, Type (0, 1), BuildingBlock: OJICUG_clean_linker_0, # of connection points: 2
#     Edge 43, Type (0, 1), BuildingBlock: OJICUG_clean_linker_0, # of connection points: 2
#     Edge 44, Type (0, 1), BuildingBlock: OJICUG_clean_linker_0, # of connection points: 2
#     Edge 45, Type (0, 1), BuildingBlock: OJICUG_clean_linker_0, # of connection points: 2
#     Edge 46, Type (0, 1), BuildingBlock: OJICUG_clean_linker_0, # of connection points: 2
#     Edge 47, Type (0, 1), BuildingBlock: OJICUG_clean_linker_0, # of connection points: 2
# Relax obj value: 0.158
# Max RMSD: 0.159
# Mean RMSD: 0.139
data_MOF--net-wbl--node1-CEKHIL_clean_sbu_0--node2-MIFKUJ_clean_linker_1--edge1-OJICUG_clean_linker_0
_symmetry_space_group_name_H-M    P1
_symmetry_Int_Tables_number       1
_symmetry_cell_setting            triclinic
loop_
_symmetry_equiv_pos_as_xyz
'x, y, z'
_cell_length_a     35.535305
_cell_length_b     35.685144
_cell_length_c     58.308073
_cell_angle_alpha  90.411432
_cell_angle_beta   90.10665
_cell_angle_gamma 89.933575
loop_
_atom_site_label
_atom_site_type_symbol
_atom_site_fract_x
_atom_site_fract_y
_atom_site_fract_z
_atom_type_partial_charge
H0 H 0.99653 0.11291 0.34136 0.0
H1 H 0.95499 0.1435 0.36927 0.0
H2 H 0.88492 0.04468 0.37036 0.0
H3 H 0.9266 0.01437 0.34227 0.0
H4 H 0.02064 0.0235 0.35758 0.0
H5 H 0.97585 0.1116 0.29559 0.0
H6 H 0.91761 0.13745 0.2796 0.0
H7 H 0.87804 0.02477 0.26608 0.0
H8 H 0.93655 0.99966 0.28131 0.0
H9 H 0.04607 0.93828 0.27476 0.0
H10 H 0.09985 0.9034 0.2587 0.0
H11 H 0.17587 0.9839 0.28932 0.0
H12 H 0.12248 0.01826 0.30521 0.0
H13 H 0.0197 0.01495 0.27257 0.0
H14 H 0.06665 0.92631 0.32411 0.0
H15 H 0.10525 0.88926 0.34977 0.0
H16 H 0.1247 0.98796 0.39177 0.0
H17 H 0.08986 0.02544 0.3645 0.0
C18 C 0.96442 0.06155 0.33981 0.0
C19 C 0.97157 0.09835 0.34712 0.0
C20 C 0.94775 0.11579 0.36297 0.0
C21 C 0.91681 0.09638 0.37202 0.0
C22 C 0.90866 0.06018 0.36372 0.0
C23 C 0.9323 0.04292 0.34768 0.0
C24 C 0.99323 0.04086 0.32665 0.0
C25 C 0.02122 0.02225 0.33898 0.0
C26 C 0.99215 0.03773 0.30256 0.0
C27 C 0.96036 0.05376 0.28955 0.0
C28 C 0.95485 0.09267 0.28865 0.0
C29 C 0.92143 0.10735 0.27968 0.0
C30 C 0.89291 0.08328 0.27159 0.0
C31 C 0.8995 0.04432 0.27168 0.0
C32 C 0.93295 0.02978 0.28047 0.0
C33 C 0.0804 0.98079 0.29116 0.0
C34 C 0.07434 0.94867 0.27759 0.0
C35 C 0.10499 0.92861 0.26867 0.0
C36 C 0.14198 0.94093 0.27281 0.0
C37 C 0.1477 0.97391 0.28566 0.0
C38 C 0.11724 0.99357 0.29476 0.0
C39 C 0.04902 0.99918 0.30354 0.0
C40 C 0.02013 0.01691 0.29114 0.0
C41 C 0.04887 0.00089 0.32782 0.0
C42 C 0.07553 0.97891 0.34214 0.0
C43 C 0.08061 0.94034 0.33826 0.0
C44 C 0.10215 0.9189 0.35334 0.0
C45 C 0.11789 0.93521 0.37322 0.0
C46 C 0.11378 0.97415 0.37658 0.0
C47 C 0.09321 0.99573 0.36111 0.0
H48 H 0.01274 0.42607 0.53906 0.0
H49 H 0.98556 0.36804 0.52427 0.0
H50 H 0.87525 0.41957 0.52453 0.0
H51 H 0.90283 0.47702 0.54042 0.0
H52 H 0.99953 0.51504 0.52428 0.0
H53 H 0.99666 0.42136 0.59074 0.0
H54 H 0.96706 0.37848 0.61801 0.0
H55 H 0.86904 0.45014 0.6205 0.0
H56 H 0.89886 0.49277 0.59331 0.0
H57 H 0.9836 0.59333 0.61286 0.0
H58 H 0.02108 0.62364 0.64299 0.0
H59 H 0.12281 0.58326 0.61081 0.0
H60 H 0.08531 0.55283 0.58085 0.0
H61 H 0.9849 0.51779 0.60898 0.0
H62 H 0.99106 0.6172 0.55633 0.0
H63 H 0.02355 0.6711 0.54022 0.0
H64 H 0.10984 0.59789 0.51315 0.0
H65 H 0.07679 0.54355 0.52939 0.0
C66 C 0.95984 0.45584 0.54049 0.0
C67 C 0.98286 0.42506 0.53537 0.0
C68 C 0.96716 0.39187 0.5269 0.0
C69 C 0.92806 0.38891 0.52319 0.0
C70 C 0.90532 0.42053 0.5275 0.0
C71 C 0.92106 0.4536 0.53623 0.0
C72 C 0.97544 0.48764 0.55371 0.0
C73 C 0.99642 0.5157 0.54278 0.0
C74 C 0.97046 0.48926 0.57764 0.0
C75 C 0.94984 0.46008 0.59019 0.0
C76 C 0.96838 0.42715 0.59672 0.0
C77 C 0.95152 0.40281 0.61227 0.0
C78 C 0.91586 0.41111 0.62142 0.0
C79 C 0.89634 0.44282 0.61354 0.0
C80 C 0.91336 0.46729 0.59814 0.0
C81 C 0.03165 0.57078 0.59465 0.0
C82 C 0.01402 0.59202 0.61191 0.0
C83 C 0.03546 0.6095 0.62903 0.0
C84 C 0.07481 0.60554 0.62928 0.0
C85 C 0.09251 0.58661 0.61104 0.0
C86 C 0.0711 0.56942 0.59385 0.0
C87 C 0.00934 0.54523 0.57979 0.0
C88 C 0.98741 0.51787 0.59042 0.0
C89 C 0.01293 0.5449 0.55566 0.0
C90 C 0.03149 0.57648 0.54395 0.0
C91 C 0.01673 0.61267 0.54669 0.0
C92 C 0.03528 0.64341 0.53746 0.0
C93 C 0.06917 0.63863 0.52541 0.0
C94 C 0.08384 0.60229 0.52245 0.0
C95 C 0.06488 0.57131 0.5315 0.0
H96 H 0.47493 0.6049 0.84243 0.0
H97 H 0.43541 0.63069 0.87301 0.0
H98 H 0.37538 0.52573 0.87661 0.0
H99 H 0.41513 0.50015 0.84595 0.0
H100 H 0.50278 0.51178 0.86005 0.0
H101 H 0.46928 0.60729 0.79753 0.0
H102 H 0.41305 0.63685 0.78121 0.0
H103 H 0.36638 0.52697 0.76754 0.0
H104 H 0.42288 0.49814 0.78319 0.0
H105 H 0.5409 0.43663 0.77642 0.0
H106 H 0.5976 0.4056 0.76119 0.0
H107 H 0.6669 0.48784 0.79578 0.0
H108 H 0.61056 0.51839 0.81088 0.0
H109 H 0.51212 0.51483 0.77517 0.0
H110 H 0.55995 0.42176 0.82621 0.0
H111 H 0.59997 0.38696 0.8524 0.0
H112 H 0.60722 0.48501 0.89642 0.0
H113 H 0.57115 0.52042 0.86886 0.0
C114 C 0.44776 0.55074 0.84195 0.0
C115 C 0.45213 0.58808 0.8491 0.0
C116 C 0.42948 0.60277 0.86656 0.0
C117 C 0.40253 0.58008 0.87732 0.0
C118 C 0.39608 0.54374 0.8687 0.0
C119 C 0.41862 0.52915 0.85116 0.0
C120 C 0.4782 0.53214 0.82894 0.0
C121 C 0.50539 0.51284 0.84152 0.0
C122 C 0.48035 0.53272 0.80484 0.0
C123 C 0.45014 0.5506 0.7914 0.0
C124 C 0.44722 0.58977 0.79043 0.0
C125 C 0.41494 0.60657 0.78129 0.0
C126 C 0.38499 0.5844 0.77309 0.0
C127 C 0.38901 0.54509 0.77323 0.0
C128 C 0.4213 0.52841 0.78225 0.0
C129 C 0.57164 0.4798 0.79472 0.0
C130 C 0.56834 0.44825 0.78033 0.0
C131 C 0.60067 0.43034 0.77189 0.0
C132 C 0.63663 0.44426 0.77736 0.0
C133 C 0.6396 0.47665 0.79111 0.0
C134 C 0.60746 0.49416 0.79973 0.0
C135 C 0.53833 0.49574 0.8065 0.0
C136 C 0.51027 0.51421 0.79372 0.0
C137 C 0.53547 0.49456 0.8307 0.0
C138 C 0.56271 0.47394 0.84537 0.0
C139 C 0.57149 0.43617 0.84102 0.0
C140 C 0.59385 0.41599 0.85637 0.0
C141 C 0.60681 0.43274 0.87687 0.0
C142 C 0.59872 0.47093 0.88076 0.0
C143 C 0.5774 0.49129 0.8651 0.0
H144 H 0.51688 0.91792 0.05052 0.0
H145 H 0.49457 0.85844 0.03509 0.0
H146 H 0.38774 0.90976 0.01833 0.0
H147 H 0.4104 0.96943 0.03455 0.0
H148 H 0.49386 0.01213 0.02583 0.0
H149 H 0.5156 0.92917 0.10413 0.0
H150 H 0.48981 0.88543 0.1321 0.0
H151 H 0.37741 0.92312 0.11536 0.0
H152 H 0.40354 0.96574 0.08686 0.0
H153 H 0.4858 0.08623 0.11575 0.0
H154 H 0.52465 0.11841 0.1444 0.0
H155 H 0.62452 0.08812 0.10643 0.0
H156 H 0.58561 0.05555 0.07802 0.0
H157 H 0.49447 0.01071 0.11099 0.0
H158 H 0.48823 0.1147 0.06016 0.0
H159 H 0.51953 0.16949 0.04428 0.0
H160 H 0.59958 0.09727 0.00994 0.0
H161 H 0.56809 0.04224 0.02617 0.0
C162 C 0.46542 0.94799 0.0434 0.0
C163 C 0.48896 0.91652 0.04306 0.0
C164 C 0.47611 0.88254 0.03414 0.0
C165 C 0.43935 0.87926 0.0253 0.0
C166 C 0.4161 0.91126 0.0251 0.0
C167 C 0.42908 0.94542 0.03411 0.0
C168 C 0.47771 0.9817 0.05613 0.0
C169 C 0.49357 0.01215 0.04443 0.0
C170 C 0.47737 0.9818 0.08029 0.0
C171 C 0.4614 0.95066 0.09363 0.0
C172 C 0.48535 0.92716 0.10611 0.0
C173 C 0.47057 0.9024 0.12216 0.0
C174 C 0.43159 0.90122 0.12626 0.0
C175 C 0.40752 0.92304 0.11253 0.0
C176 C 0.42237 0.94757 0.0963 0.0
C177 C 0.53281 0.06842 0.09481 0.0
C178 C 0.51596 0.08759 0.11322 0.0
C179 C 0.53818 0.10619 0.12949 0.0
C180 C 0.57763 0.10551 0.12771 0.0
C181 C 0.59419 0.08891 0.10825 0.0
C182 C 0.57196 0.07049 0.09195 0.0
C183 C 0.51066 0.04135 0.08091 0.0
C184 C 0.49367 0.01156 0.09239 0.0
C185 C 0.50987 0.04219 0.05668 0.0
C186 C 0.52586 0.0745 0.04432 0.0
C187 C 0.51216 0.11064 0.04891 0.0
C188 C 0.53003 0.1419 0.03979 0.0
C189 C 0.56208 0.13767 0.02591 0.0
C190 C 0.57513 0.10134 0.02075 0.0
C191 C 0.55697 0.06994 0.02977 0.0
H192 H 0.01779 0.61764 0.90554 0.0
H193 H 0.05976 0.64792 0.87804 0.0
H194 H 0.13733 0.55511 0.8835 0.0
H195 H 0.09528 0.52517 0.91123 0.0
H196 H 0.99703 0.53301 0.89132 0.0
H197 H 0.03772 0.61559 0.95699 0.0
H198 H 0.09431 0.64412 0.97349 0.0
H199 H 0.14358 0.53384 0.98065 0.0
H200 H 0.08634 0.50583 0.96514 0.0
H201 H 0.97782 0.43976 0.97194 0.0
H202 H 0.92593 0.39887 0.98467 0.0
H203 H 0.84581 0.47392 0.95352 0.0
H204 H 0.89692 0.51478 0.94144 0.0
H205 H 0.00083 0.51511 0.9757 0.0
H206 H 0.9661 0.43013 0.91807 0.0
H207 H 0.93536 0.39233 0.88839 0.0
H208 H 0.89163 0.49298 0.85741 0.0
H209 H 0.92193 0.53072 0.8874 0.0
C210 C 0.0536 0.56933 0.91032 0.0
C211 C 0.04442 0.60449 0.90135 0.0
C212 C 0.06847 0.62177 0.88575 0.0
C213 C 0.10169 0.60373 0.87862 0.0
C214 C 0.11184 0.56951 0.8887 0.0
C215 C 0.08799 0.55248 0.90454 0.0
C216 C 0.02493 0.5477 0.92279 0.0
C217 C 0.99707 0.52987 0.90983 0.0
C218 C 0.02683 0.54193 0.94666 0.0
C219 C 0.05784 0.55865 0.96012 0.0
C220 C 0.06043 0.59766 0.96274 0.0
C221 C 0.09301 0.6139 0.97188 0.0
C222 C 0.12379 0.59139 0.97829 0.0
C223 C 0.12035 0.55214 0.97633 0.0
C224 C 0.08761 0.53596 0.96745 0.0
C225 C 0.94116 0.48004 0.95552 0.0
C226 C 0.949 0.44777 0.9684 0.0
C227 C 0.91954 0.42437 0.97548 0.0
C228 C 0.88223 0.43309 0.96959 0.0
C229 C 0.87449 0.46641 0.95789 0.0
C230 C 0.90362 0.48979 0.95109 0.0
C231 C 0.97149 0.50149 0.94421 0.0
C232 C -0.0001 0.51899 0.95728 0.0
C233 C 0.97094 0.50609 0.92012 0.0
C234 C 0.9464 0.48326 0.9049 0.0
C235 C 0.94882 0.44401 0.90537 0.0
C236 C 0.93141 0.42244 0.88835 0.0
C237 C 0.91138 0.43977 0.87053 0.0
C238 C 0.90661 0.47886 0.87105 0.0
C239 C 0.92417 0.50047 0.88804 0.0
H240 H 0.51164 0.57131 0.21524 0.0
H241 H 0.48668 0.62934 0.23124 0.0
H242 H 0.37329 0.58911 0.21981 0.0
H243 H 0.39897 0.53138 0.203 0.0
H244 H 0.49513 0.48677 0.22398 0.0
H245 H 0.50102 0.57975 0.15449 0.0
H246 H 0.47275 0.62365 0.12723 0.0
H247 H 0.36839 0.56187 0.13003 0.0
H248 H 0.39695 0.5181 0.15719 0.0
H249 H 0.48732 0.41354 0.13363 0.0
H250 H 0.52736 0.38457 0.10433 0.0
H251 H 0.62612 0.4246 0.14009 0.0
H252 H 0.586 0.45366 0.16927 0.0
H253 H 0.48776 0.48939 0.13897 0.0
H254 H 0.49342 0.38573 0.18855 0.0
H255 H 0.52614 0.33209 0.20496 0.0
H256 H 0.60456 0.40683 0.23866 0.0
H257 H 0.57142 0.46085 0.22202 0.0
C258 C 0.45715 0.54715 0.20803 0.0
C259 C 0.48142 0.57466 0.21671 0.0
C260 C 0.46696 0.60785 0.22594 0.0
C261 C 0.42781 0.61411 0.22687 0.0
C262 C 0.40353 0.58555 0.21911 0.0
C263 C 0.41811 0.55239 0.20969 0.0
C264 C 0.47289 0.5157 0.19451 0.0
C265 C 0.49337 0.48714 0.20542 0.0
C266 C 0.47013 0.51572 0.17039 0.0
C267 C 0.45094 0.5459 0.15777 0.0
C268 C 0.47176 0.57636 0.14966 0.0
C269 C 0.45564 0.60128 0.13409 0.0
C270 C 0.41844 0.59605 0.12646 0.0
C271 C 0.39695 0.56685 0.13581 0.0
C272 C 0.41321 0.54176 0.15123 0.0
C273 C 0.53367 0.43578 0.15359 0.0
C274 C 0.51762 0.4151 0.1355 0.0
C275 C 0.54053 0.39837 0.11887 0.0
C276 C 0.57983 0.40254 0.1199 0.0
C277 C 0.59591 0.42109 0.13886 0.0
C278 C 0.57301 0.4375 0.1556 0.0
C279 C 0.50986 0.46019 0.16826 0.0
C280 C 0.48857 0.48807 0.15756 0.0
C281 C 0.51139 0.45896 0.19246 0.0
C282 C 0.52999 0.42719 0.20411 0.0
C283 C 0.51744 0.39062 0.19964 0.0
C284 C 0.53609 0.36002 0.20909 0.0
C285 C 0.56784 0.3653 0.22314 0.0
C286 C 0.58026 0.402 0.22781 0.0
C287 C 0.56122 0.4328 0.2185 0.0
H288 H 0.50328 0.91152 0.40051 0.0
H289 H 0.46672 0.87803 0.37161 0.0
H290 H 0.37321 0.95342 0.38315 0.0
H291 H 0.41061 0.98735 0.41199 0.0
H292 H 0.51749 0.98952 0.39189 0.0
H293 H 0.46688 0.90915 0.45405 0.0
H294 H 0.41017 0.88183 0.47082 0.0
H295 H 0.36421 0.99331 0.48014 0.0
H296 H 0.42154 0.01998 0.4645 0.0
H297 H 0.54239 0.09642 0.45914 0.0
H298 H 0.59918 0.12706 0.47461 0.0
H299 H 0.65596 0.0198 0.47485 0.0
H300 H 0.5996 0.98992 0.45978 0.0
H301 H 0.50337 0.01024 0.47572 0.0
H302 H 0.54612 0.09202 0.4145 0.0
H303 H 0.58541 0.12285 0.38603 0.0
H304 H 0.63705 0.01645 0.36919 0.0
H305 H 0.5971 0.98573 0.39757 0.0
C306 C 0.45966 0.95188 0.40831 0.0
C307 C 0.47453 0.92019 0.39726 0.0
C308 C 0.45342 0.90091 0.38083 0.0
C309 C 0.41701 0.91312 0.37497 0.0
C310 C 0.40127 0.94352 0.38715 0.0
C311 C 0.42246 0.96276 0.40372 0.0
C312 C 0.48505 0.9763 0.42188 0.0
C313 C 0.51454 0.99378 0.41026 0.0
C314 C 0.48023 0.98305 0.44559 0.0
C315 C 0.44825 0.96654 0.45808 0.0
C316 C 0.44476 0.92756 0.46019 0.0
C317 C 0.41219 0.91202 0.46961 0.0
C318 C 0.38232 0.93522 0.47682 0.0
C319 C 0.38672 0.9744 0.47531 0.0
C320 C 0.41946 0.98984 0.46621 0.0
C321 C 0.56693 0.04095 0.45856 0.0
C322 C 0.56689 0.0796 0.46314 0.0
C323 C 0.59938 0.09704 0.47176 0.0
C324 C 0.63207 0.07588 0.47607 0.0
C325 C 0.63115 0.03691 0.47223 0.0
C326 C 0.59896 0.0197 0.46356 0.0
C327 C 0.53614 0.02287 0.44563 0.0
C328 C 0.50606 0.00615 0.45734 0.0
C329 C 0.53978 0.01731 0.42178 0.0
C330 C 0.5688 0.03665 0.40813 0.0
C331 C 0.56682 0.07558 0.40523 0.0
C332 C 0.58936 0.09317 0.38894 0.0
C333 C 0.61412 0.07203 0.37518 0.0
C334 C 0.61785 0.03339 0.37929 0.0
C335 C 0.59521 0.01583 0.39554 0.0
H336 H 0.01667 0.09615 0.70286 0.0
H337 H 0.99168 0.15402 0.71925 0.0
H338 H 0.88445 0.09993 0.73017 0.0
H339 H 0.90998 0.04179 0.71343 0.0
H340 H 0.00068 0.00225 0.7225 0.0
H341 H 0.00645 0.08525 0.64178 0.0
H342 H 0.97371 0.1224 0.6129 0.0
H343 H 0.86694 0.0851 0.63965 0.0
H344 H 0.9 0.0474 0.66823 0.0
H345 H 0.97192 0.92804 0.63675 0.0
H346 H 0.99959 0.89331 0.60467 0.0
H347 H 0.1108 0.92217 0.62898 0.0
H348 H 0.08288 0.9565 0.66127 0.0
H349 H 0.98731 0.00457 0.63777 0.0
H350 H 0.98888 0.90087 0.68932 0.0
H351 H 0.02069 0.84579 0.7046 0.0
H352 H 0.10838 0.91653 0.73252 0.0
H353 H 0.07634 0.97187 0.71683 0.0
C354 C 0.96529 0.06476 0.70723 0.0
C355 C 0.98813 0.09648 0.70939 0.0
C356 C 0.97372 0.12953 0.71878 0.0
C357 C 0.93603 0.13159 0.72612 0.0
C358 C 0.9135 0.09927 0.72459 0.0
C359 C 0.92811 0.06602 0.71527 0.0
C360 C 0.97878 0.03265 0.69347 0.0
C361 C 0.99768 0.00261 0.70399 0.0
C362 C 0.9751 0.03317 0.66941 0.0
C363 C 0.9556 0.0636 0.65706 0.0
C364 C 0.97597 0.08628 0.64197 0.0
C365 C 0.95719 0.10767 0.62555 0.0
C366 C 0.91775 0.10631 0.62385 0.0
C367 C 0.89737 0.08642 0.64047 0.0
C368 C 0.91619 0.06507 0.6569 0.0
C369 C 0.02536 0.94508 0.65122 0.0
C370 C 0.00227 0.92581 0.63559 0.0
C371 C 0.0181 0.90609 0.61726 0.0
C372 C 0.05732 0.9056 0.61413 0.0
C373 C 0.08051 0.9219 0.63102 0.0
C374 C 0.0646 0.9416 0.64946 0.0
C375 C 0.00862 0.97376 0.66659 0.0
C376 C 0.98997 0.00381 0.65631 0.0
C377 C 0.01243 0.9729 0.6907 0.0
C378 C 0.03027 0.94037 0.70197 0.0
C379 C 0.01478 0.90456 0.69891 0.0
C380 C 0.03294 0.87314 0.70772 0.0
C381 C 0.06704 0.87683 0.71978 0.0
C382 C 0.08229 0.91283 0.72314 0.0
C383 C 0.06387 0.94443 0.71442 0.0
Co384 Co 0.33134 0.66591 0.00839 0.0
O385 O 0.29605 0.62528 0.00875 0.0
O386 O 0.28265 0.68304 0.99765 0.0
C387 C 0.35566 0.65464 0.04342 0.0
O388 O 0.36029 0.71526 0.00705 0.0
Co389 Co 0.41716 0.64846 0.01018 0.0
O390 O 0.42212 0.70367 0.01217 0.0
C391 C 0.37343 0.63077 0.96882 0.0
C392 C 0.27129 0.6489 0.00121 0.0
C393 C 0.39463 0.72623 0.00948 0.0
O394 O 0.3465 0.65196 0.97597 0.0
O395 O 0.40194 0.62219 0.98114 0.0
O396 O 0.32442 0.67335 0.04148 0.0
O397 O 0.36886 0.64088 0.02458 0.0
Co398 Co 0.33616 0.83683 0.24324 0.0
O399 O 0.30751 0.88228 0.24281 0.0
O400 O 0.2844 0.82683 0.25201 0.0
C401 C 0.3645 0.84629 0.20916 0.0
O402 O 0.35773 0.78369 0.24438 0.0
Co403 Co 0.42363 0.84213 0.24429 0.0
O404 O 0.421 0.78697 0.24157 0.0
C405 C 0.38021 0.8599 0.28576 0.0
C406 C 0.27877 0.86257 0.24908 0.0
C407 C 0.39053 0.76834 0.24297 0.0
O408 O 0.35013 0.84685 0.27639 0.0
O409 O 0.41148 0.86356 0.27521 0.0
O410 O 0.33096 0.83187 0.20994 0.0
O411 O 0.3781 0.85719 0.22862 0.0
Co412 Co 0.16401 0.83352 0.48981 0.0
O413 O 0.12033 0.80214 0.48826 0.0
O414 O 0.17535 0.78473 0.50256 0.0
C415 C 0.15993 0.85555 0.45396 0.0
O416 O 0.21559 0.85825 0.49301 0.0
Co417 Co 0.15393 0.92001 0.48522 0.0
O418 O 0.20952 0.9204 0.48691 0.0
C419 C 0.12664 0.88119 0.52607 0.0
C420 C 0.14058 0.77625 0.49773 0.0
C421 C 0.22942 0.89144 0.49092 0.0
O422 O 0.14717 0.85261 0.52093 0.0
O423 O 0.1221 0.90901 0.51263 0.0
O424 O 0.17501 0.8229 0.45748 0.0
O425 O 0.14458 0.87144 0.4715 0.0
Co426 Co 0.16364 0.68288 0.75746 0.0
O427 O 0.11863 0.71261 0.75672 0.0
O428 O 0.17455 0.73204 0.74515 0.0
C429 C 0.15521 0.66125 0.79331 0.0
O430 O 0.21664 0.66031 0.75671 0.0
Co431 Co 0.15767 0.59619 0.76241 0.0
O432 O 0.21306 0.59844 0.76422 0.0
C433 C 0.14035 0.6312 0.71803 0.0
C434 C 0.13898 0.73924 0.74823 0.0
C435 C 0.23185 0.62801 0.76019 0.0
O436 O 0.15178 0.66319 0.72563 0.0
O437 O 0.13818 0.60186 0.73044 0.0
O438 O 0.16998 0.6941 0.79013 0.0
O439 O 0.14324 0.64434 0.77507 0.0
Co440 Co 0.84832 0.18405 0.49114 0.0
O441 O 0.89112 0.21685 0.49245 0.0
O442 O 0.83314 0.23306 0.50228 0.0
C443 C 0.86098 0.1606 0.45591 0.0
O444 O 0.7969 0.1583 0.49099 0.0
Co445 Co 0.86 0.09748 0.48736 0.0
O446 O 0.80469 0.09638 0.48445 0.0
C447 C 0.86894 0.13551 0.53219 0.0
C448 C 0.86823 0.24259 0.49977 0.0
C449 C 0.78387 0.12498 0.48777 0.0
O450 O 0.85851 0.16704 0.52365 0.0
O451 O 0.87335 0.10554 0.52031 0.0
O452 O 0.84385 0.19262 0.45807 0.0
O453 O 0.87251 0.14575 0.47475 0.0
Co454 Co 0.83433 0.35021 0.74219 0.0
O455 O 0.80353 0.39435 0.74262 0.0
O456 O 0.78481 0.3386 0.75435 0.0
C457 C 0.85639 0.35845 0.70636 0.0
O458 O 0.85865 0.29809 0.74325 0.0
Co459 Co 0.9214 0.35926 0.7372 0.0
O460 O 0.92059 0.30407 0.73549 0.0
C461 C 0.88517 0.37519 0.78164 0.0
C462 C 0.77696 0.37383 0.75105 0.0
C463 C 0.89173 0.28418 0.73977 0.0
O464 O 0.85337 0.36306 0.77402 0.0
O465 O 0.91465 0.37821 0.76923 0.0
O466 O 0.82375 0.34295 0.70946 0.0
O467 O 0.87261 0.3712 0.7246 0.0
Co468 Co 0.66642 0.32869 0.99141 0.0
O469 O 0.61951 0.30217 0.99276 0.0
O470 O 0.67489 0.27821 0.00221 0.0
C471 C 0.65703 0.35326 0.95647 0.0
O472 O 0.72095 0.34712 0.9911 0.0
Co473 Co 0.66698 0.41594 0.98851 0.0
O474 O 0.72064 0.40814 0.98122 0.0
C475 C 0.64955 0.37937 0.03241 0.0
C476 C 0.63873 0.27363 -5e-05 0.0
C477 C 0.73776 0.37755 0.98527 0.0
O478 O 0.65835 0.34715 0.02389 0.0
O479 O 0.64899 0.4096 0.02074 0.0
O480 O 0.66927 0.3191 0.95836 0.0
O481 O 0.64775 0.36987 0.97535 0.0
Co482 Co 0.66793 0.17216 0.25762 0.0
O483 O 0.62234 0.20105 0.25798 0.0
O484 O 0.6782 0.22308 0.24815 0.0
C485 C 0.65909 0.14489 0.29197 0.0
O486 O 0.72141 0.15099 0.25624 0.0
Co487 Co 0.66418 0.08485 0.25781 0.0
O488 O 0.71943 0.08819 0.26036 0.0
C489 C 0.647 0.12585 0.21537 0.0
C490 C 0.64238 0.22912 0.25104 0.0
C491 C 0.73747 0.11876 0.25815 0.0
O492 O 0.6573 0.15697 0.22474 0.0
O493 O 0.64541 0.09476 0.22612 0.0
O494 O 0.67321 0.17842 0.29088 0.0
O495 O 0.648 0.13069 0.27271 0.0
C496 C 0.20516 0.93844 0.25429 0.0
C497 C 0.17499 0.91943 0.2644 0.0
H498 H 0.26118 0.93535 0.24142 0.0
C499 C 0.178 0.88058 0.26799 0.0
H500 H 0.20343 0.96825 0.25103 0.0
C501 C 0.21138 0.8615 0.26249 0.0
C502 C 0.24209 0.88102 0.25326 0.0
H503 H 0.15519 0.8653 0.2759 0.0
H504 H 0.21348 0.83183 0.26607 0.0
C505 C 0.23825 0.91949 0.24877 0.0
C506 C 0.06846 0.69961 0.50476 0.0
C507 C 0.08893 0.67195 0.51638 0.0
H508 H 0.06877 0.75388 0.48969 0.0
C509 C 0.12746 0.67772 0.52064 0.0
H510 H 0.03884 0.6957 0.501 0.0
C511 C 0.14477 0.71134 0.51422 0.0
C512 C 0.12381 0.73951 0.50329 0.0
H513 H 0.14383 0.65689 0.5297 0.0
H514 H 0.17423 0.71558 0.51824 0.0
C515 C 0.08568 0.73293 0.49826 0.0
C516 C 0.33308 0.63176 0.77899 0.0
C517 C 0.34833 0.60149 0.76637 0.0
H518 H 0.28378 0.6646 0.7865 0.0
C519 C 0.32627 0.58484 0.74905 0.0
H520 H 0.34905 0.64509 0.7926 0.0
C521 C 0.28886 0.59556 0.74597 0.0
C522 C 0.27299 0.62386 0.75968 0.0
H523 H 0.33732 0.5622 0.73858 0.0
H524 H 0.27174 0.58051 0.73357 0.0
C525 C 0.2957 0.643 0.77555 0.0
C526 C 0.38869 0.82985 0.02358 0.0
C527 C 0.42518 0.84187 0.01779 0.0
H528 H 0.35013 0.78364 0.02527 0.0
C529 C 0.44945 0.81649 0.00667 0.0
H530 H 0.36933 0.84855 0.0323 0.0
C531 C 0.43872 0.77933 0.00309 0.0
C532 C 0.40317 0.76675 0.01012 0.0
H533 H 0.47735 0.82501 0.00139 0.0
H534 H 0.45872 0.76014 0.99534 0.0
C535 C 0.3777 0.79263 0.01964 0.0
C536 C 0.18277 0.59061 0.00216 0.0
C537 C 0.16009 0.60852 0.98576 0.0
H538 H 0.23559 0.58931 0.01973 0.0
C539 C 0.17349 0.64166 0.9756 0.0
H540 H 0.17314 0.56564 0.01078 0.0
C541 C 0.20913 0.65577 0.98119 0.0
C542 C 0.23228 0.63667 0.99674 0.0
H543 H 0.15711 0.65601 0.96268 0.0
H544 H 0.21913 0.68073 0.97268 0.0
C545 C 0.21853 0.60431 0.0074 0.0
C546 C 0.43196 0.67246 0.25111 0.0
C547 C 0.41303 0.65147 0.23417 0.0
H548 H 0.43949 0.72612 0.26709 0.0
C549 C 0.38241 0.66813 0.22265 0.0
H550 H 0.4549 0.66035 0.26082 0.0
C551 C 0.37282 0.70567 0.22684 0.0
C552 C 0.39408 0.72724 0.24231 0.0
H553 H 0.36731 0.65302 0.20936 0.0
H554 H 0.35066 0.7185 0.21681 0.0
C555 C 0.42293 0.71004 0.2549 0.0
C556 C 0.33097 0.88674 0.47324 0.0
C557 C 0.34553 0.91909 0.48406 0.0
H558 H 0.28252 0.85199 0.46746 0.0
C559 C 0.32285 0.93815 0.50012 0.0
H560 H 0.34731 0.87145 0.46062 0.0
C561 C 0.28552 0.92748 0.5035 0.0
C562 C 0.27042 0.8968 0.4915 0.0
H563 H 0.33334 0.96242 0.50936 0.0
H564 H 0.26794 0.94418 0.5148 0.0
C565 C 0.2938 0.87551 0.4771 0.0
C566 C 0.06562 0.81439 0.73896 0.0
C567 C 0.08649 0.84291 0.72848 0.0
H568 H 0.06583 0.75965 0.75344 0.0
C569 C 0.12543 0.83783 0.72541 0.0
H570 H 0.0357 0.81768 0.74188 0.0
C571 C 0.14288 0.80436 0.73208 0.0
C572 C 0.12167 0.77552 0.74202 0.0
H573 H 0.14219 0.85924 0.71722 0.0
H574 H 0.17276 0.80086 0.72911 0.0
C575 C 0.08298 0.78116 0.74565 0.0
C576 C 0.70083 0.44645 0.76008 0.0
C577 C 0.67128 0.42519 0.76916 0.0
H578 H 0.75696 0.44691 0.74722 0.0
C579 C 0.67604 0.38624 0.77147 0.0
H580 H 0.69784 0.47643 0.75786 0.0
C581 C 0.71024 0.36913 0.76543 0.0
C582 C 0.74005 0.39071 0.75682 0.0
H583 H 0.65377 0.36922 0.77858 0.0
H584 H 0.71347 0.33922 0.76777 0.0
C585 C 0.73471 0.42944 0.75395 0.0
C586 C 0.62171 0.17383 0.01938 0.0
C587 C 0.5823 0.17132 0.01768 0.0
H588 H 0.6706 0.20834 0.01526 0.0
C589 C 0.56202 0.20211 0.00929 0.0
H590 H 0.63805 0.15065 0.02601 0.0
C591 C 0.58054 0.23503 0.00326 0.0
C592 C 0.61981 0.23798 0.00552 0.0
H593 H 0.53169 0.20085 0.00753 0.0
H594 H 0.56392 0.25835 0.99708 0.0
C595 C 0.64031 0.20692 0.0134 0.0
C596 C 0.83407 0.07976 0.24777 0.0
C597 C 0.85521 0.09799 0.26493 0.0
H598 H 0.7799 0.07222 0.23229 0.0
C599 C 0.8383 0.12758 0.27735 0.0
H600 H 0.84636 0.05764 0.2374 0.0
C601 C 0.80039 0.13673 0.27383 0.0
C602 C 0.77874 0.11603 0.25812 0.0
H603 H 0.85353 0.14209 0.29083 0.0
H604 H 0.78736 0.158 0.28454 0.0
C605 C 0.79612 0.08832 0.24465 0.0
C606 C 0.93077 0.32815 0.50109 0.0
C607 C 0.91115 0.35244 0.51596 0.0
H608 H 0.93269 0.27454 0.48453 0.0
C609 C 0.87613 0.34072 0.52467 0.0
H610 H 0.95733 0.3364 0.4936 0.0
C611 C 0.86157 0.30539 0.51901 0.0
C612 C 0.88199 0.28082 0.50483 0.0
H613 H 0.86042 0.35833 0.53644 0.0
H614 H 0.83491 0.29689 0.52628 0.0
C615 C 0.91654 0.2927 0.49578 0.0
C616 C 0.69246 0.07564 0.49816 0.0
C617 C 0.66817 0.09392 0.48282 0.0
H618 H 0.7483 0.0714 0.51161 0.0
C619 C 0.68085 0.12662 0.47185 0.0
H620 H 0.68332 0.05098 0.50732 0.0
C621 C 0.71807 0.13886 0.47477 0.0
C622 C 0.74305 0.11826 0.48844 0.0
H623 H 0.66289 0.14125 0.45985 0.0
H624 H 0.72799 0.16267 0.46508 0.0
C625 C 0.72958 0.08741 0.50072 0.0
C626 C 0.94237 0.19269 0.74703 0.0
C627 C 0.92025 0.16824 0.73372 0.0
H628 H 0.95021 0.24859 0.75949 0.0
C629 C 0.88514 0.18091 0.72556 0.0
H630 H 0.96908 0.18358 0.75404 0.0
C631 C 0.87395 0.21825 0.72907 0.0
C632 C 0.89791 0.24334 0.74059 0.0
H633 H 0.86749 0.16277 0.71517 0.0
H634 H 0.84802 0.22809 0.72137 0.0
C635 C 0.93146 0.22985 0.75026 0.0
C636 C 0.83761 0.40357 0.99713 0.0
C637 C 0.85068 0.40765 0.9746 0.0
H638 H 0.79036 0.38954 0.01834 0.0
C639 C 0.82907 0.3936 0.95629 0.0
H640 H 0.85371 0.41469 0.01143 0.0
C641 C 0.79328 0.37905 0.96023 0.0
C642 C 0.77869 0.37829 0.98252 0.0
H643 H 0.83865 0.39673 0.93877 0.0
H644 H 0.77571 0.37161 0.94568 0.0
C645 C 0.80157 0.38909 0.00107 0.0
C646 C 0.62722 0.32885 0.23061 0.0
C647 C 0.58789 0.33221 0.23241 0.0
H648 H 0.67551 0.29336 0.23498 0.0
C649 C 0.56729 0.30249 0.24177 0.0
H650 H 0.64376 0.35127 0.22333 0.0
C651 C 0.58531 0.26957 0.2484 0.0
C652 C 0.6244 0.26547 0.24575 0.0
H653 H 0.53702 0.30449 0.24366 0.0
H654 H 0.56835 0.24698 0.25513 0.0
C655 C 0.64533 0.29567 0.23716 0.0
C656 C 0.12053 0.87527 0.39578 0.0
C657 C 0.13474 0.91148 0.39157 0.0
H658 H 0.11852 0.8287 0.41879 0.0
C659 C 0.16206 0.92618 0.4067 0.0
H660 H 0.09907 0.86296 0.38492 0.0
C661 C 0.17204 0.90687 0.42656 0.0
C662 C 0.15612 0.87187 0.43115 0.0
H663 H 0.17464 0.95333 0.40378 0.0
H664 H 0.19119 0.91983 0.43872 0.0
C665 C 0.13148 0.85552 0.41527 0.0
C666 C 0.11896 0.58774 0.66049 0.0
C667 C 0.09632 0.61526 0.65026 0.0
H668 H 0.1505 0.57136 0.69001 0.0
C669 C 0.09129 0.64982 0.66159 0.0
H670 H 0.12294 0.56068 0.6523 0.0
C671 C 0.10761 0.65615 0.68318 0.0
C672 C 0.12829 0.62761 0.69391 0.0
H673 H 0.0739 0.67144 0.65405 0.0
H674 H 0.10234 0.68247 0.69199 0.0
C675 C 0.13449 0.59373 0.68215 0.0
C676 C 0.37389 0.62809 0.90405 0.0
C677 C 0.38716 0.59148 0.89996 0.0
H678 H 0.35796 0.66917 0.92942 0.0
C679 C 0.39095 0.56689 0.91854 0.0
H680 H 0.3708 0.6476 0.89003 0.0
C681 C 0.38432 0.57935 0.94086 0.0
C682 C 0.37303 0.61641 0.94509 0.0
H683 H 0.40161 0.53871 0.91602 0.0
H684 H 0.38956 0.56041 0.95496 0.0
C685 C 0.36642 0.64036 0.9265 0.0
C686 C 0.3814 0.86352 0.14607 0.0
C687 C 0.41662 0.88148 0.14667 0.0
H688 H 0.33734 0.83774 0.16544 0.0
C689 C 0.436 0.88395 0.16768 0.0
H690 H 0.36596 0.86078 0.13011 0.0
C691 C 0.41976 0.87066 0.18778 0.0
C692 C 0.38372 0.85466 0.18739 0.0
H693 H 0.46291 0.89804 0.1689 0.0
H694 H 0.43484 0.87441 0.20379 0.0
C695 C 0.36512 0.85014 0.16626 0.0
C696 C 0.13097 0.65592 0.8562 0.0
C697 C 0.12215 0.61774 0.85834 0.0
H698 H 0.14942 0.69965 0.83383 0.0
C699 C 0.12856 0.59347 0.83968 0.0
H700 H 0.12627 0.67515 0.87037 0.0
C701 C 0.14114 0.60749 0.81879 0.0
C702 C 0.14812 0.64592 0.81627 0.0
H703 H 0.12163 0.56398 0.84078 0.0
H704 H 0.14406 0.58842 0.80436 0.0
C705 C 0.14428 0.66986 0.83536 0.0
C706 C 0.36684 0.631 0.10613 0.0
C707 C 0.40391 0.61719 0.10653 0.0
H708 H 0.32256 0.65469 0.08574 0.0
C709 C 0.426 0.61982 0.08666 0.0
H710 H 0.34928 0.62939 0.12126 0.0
C711 C 0.41068 0.63377 0.06641 0.0
C712 C 0.37311 0.64585 0.06568 0.0
H713 H 0.45451 0.60904 0.08636 0.0
H714 H 0.4279 0.63383 0.0511 0.0
C715 C 0.35165 0.64558 0.08588 0.0
C716 C 0.38257 0.92179 0.33784 0.0
C717 C 0.39841 0.89748 0.35415 0.0
H718 H 0.36393 0.92841 0.30307 0.0
C719 C 0.4017 0.85914 0.34864 0.0
H720 H 0.38005 0.95152 0.34137 0.0
C721 C 0.39262 0.8461 0.32666 0.0
C722 C 0.37965 0.87108 0.30998 0.0
H723 H 0.41338 0.83963 0.3609 0.0
H724 H 0.39795 0.81702 0.32226 0.0
C725 C 0.37341 0.90868 0.31589 0.0
C726 C 0.10654 0.87332 0.58978 0.0
C727 C 0.07323 0.89447 0.59159 0.0
H728 H 0.14946 0.85166 0.56732 0.0
C729 C 0.0566 0.90856 0.57155 0.0
H730 H 0.11994 0.86219 0.60498 0.0
C731 C 0.07357 0.90306 0.55031 0.0
C732 C 0.10743 0.883 0.54848 0.0
H733 H 0.03129 0.92547 0.57237 0.0
H734 H 0.06051 0.91529 0.53531 0.0
C735 C 0.12332 0.86722 0.56829 0.0
C736 C 0.65007 0.42714 0.91106 0.0
C737 C 0.62544 0.41009 0.89514 0.0
H738 H 0.67866 0.42261 0.9433 0.0
C739 C 0.61584 0.37212 0.89833 0.0
H740 H 0.65943 0.45573 0.9089 0.0
C741 C 0.62865 0.35265 0.91755 0.0
C742 C 0.65032 0.37102 0.93424 0.0
H743 H 0.59665 0.35786 0.88681 0.0
H744 H 0.61941 0.32407 0.92015 0.0
C745 C 0.66161 0.40807 0.93067 0.0
C746 C 0.59376 0.14793 0.16103 0.0
C747 C 0.60099 0.11546 0.14793 0.0
H748 H 0.60377 0.17731 0.19277 0.0
C749 C 0.62733 0.0893 0.15602 0.0
H750 H 0.57357 0.16851 0.15515 0.0
C751 C 0.64396 0.09401 0.17749 0.0
C752 C 0.63513 0.12528 0.19117 0.0
H753 H 0.63316 0.06379 0.14649 0.0
H754 H 0.66253 0.07231 0.18385 0.0
C755 C 0.6111 0.15303 0.18244 0.0
C756 C 0.88547 0.14959 0.39314 0.0
C757 C 0.89664 0.1118 0.39222 0.0
H758 H 0.86447 0.19466 0.41409 0.0
C759 C 0.89231 0.08953 0.4118 0.0
H760 H 0.88846 0.16732 0.37825 0.0
C761 C 0.87916 0.1052 0.43225 0.0
C762 C 0.86957 0.14332 0.43348 0.0
H763 H 0.90107 0.06044 0.41169 0.0
H764 H 0.87766 0.08767 0.44731 0.0
C765 C 0.87166 0.16515 0.41357 0.0
C766 C 0.86351 0.38055 0.64333 0.0
C767 C 0.90163 0.39059 0.64159 0.0
H768 H 0.81926 0.36149 0.66533 0.0
C769 C 0.92542 0.38544 0.66057 0.0
H770 H 0.84464 0.38418 0.62889 0.0
C771 C 0.91089 0.37302 0.68136 0.0
C772 C 0.87243 0.36502 0.68349 0.0
H773 H 0.95482 0.39331 0.65982 0.0
H774 H 0.92955 0.37114 0.69602 0.0
C775 C 0.84907 0.36748 0.6641 0.0
C776 C 0.64563 0.126 0.35523 0.0
C777 C 0.63156 0.08916 0.35464 0.0
H778 H 0.66594 0.17259 0.33576 0.0
C779 C 0.63033 0.06991 0.33354 0.0
H780 H 0.6472 0.14144 0.37126 0.0
C781 C 0.64095 0.08765 0.31336 0.0
C782 C 0.65314 0.12504 0.31377 0.0
H783 H 0.61917 0.04173 0.33237 0.0
H784 H 0.63824 0.07242 0.29731 0.0
C785 C 0.65649 0.14376 0.33495 0.0
C786 C 0.8753 0.09329 0.59083 0.0
C787 C 0.89913 0.11855 0.60237 0.0
H788 H 0.84726 0.07911 0.55952 0.0
C789 C 0.90914 0.1522 0.59149 0.0
H790 H 0.86749 0.06688 0.59853 0.0
C791 C 0.89713 0.15936 0.569 0.0
C792 C 0.87574 0.13254 0.55703 0.0
H793 H 0.92749 0.17214 0.60001 0.0
H794 H 0.90653 0.18458 0.56053 0.0
C795 C 0.864 0.10008 0.56838 0.0
C796 C 0.9288 0.39564 0.83913 0.0
C797 C 0.9013 0.41823 0.8496 0.0
H798 H 0.94503 0.36438 0.80936 0.0
C799 C 0.86649 0.4233 0.8385 0.0
H800 H 0.95605 0.3916 0.8471 0.0
C801 C 0.86 0.40722 0.81684 0.0
C802 C 0.8886 0.38671 0.80585 0.0
H803 H 0.84485 0.44061 0.84625 0.0
H804 H 0.83356 0.4126 0.80818 0.0
C805 C 0.92262 0.3803 0.81743 0.0
C806 C 0.59838 0.35902 0.08769 0.0
C807 C 0.60304 0.39313 0.09958 0.0
H808 H 0.61049 0.32743 0.0571 0.0
C809 C 0.62678 0.42059 0.09036 0.0
H810 H 0.58024 0.3374 0.09448 0.0
C811 C 0.6435 0.41517 0.06899 0.0
C812 C 0.63735 0.38192 0.05654 0.0
H813 H 0.63058 0.44731 0.09899 0.0
H814 H 0.66014 0.43762 0.0618 0.0
C815 C 0.61579 0.35328 0.06642 0.0
loop_
_geom_bond_atom_site_label_1
_geom_bond_atom_site_label_2
_geom_bond_distance
_geom_bond_site_symmetry_2
_ccdc_geom_bond_type
H0 C19 0.949 . S
H1 C20 0.950 . S
H2 C22 0.950 . S
H3 C23 0.950 . S
H4 C25 0.950 . S
H5 C28 0.950 . S
H6 C29 0.950 . S
H7 C31 0.951 . S
H8 C32 0.949 1_565 S
H9 C34 0.949 . S
H10 C35 0.950 . S
H11 C37 0.950 . S
H12 C38 0.950 . S
H13 C40 0.956 . S
H14 C43 0.950 . S
H15 C44 0.950 . S
H16 C46 0.951 . S
H17 C47 0.949 1_545 S
C18 C19 1.376 . S
C18 C23 1.386 . S
C18 C24 1.483 . S
C19 H0 0.949 . S
C19 C18 1.376 . S
C19 C20 1.397 . S
C20 H1 0.950 . S
C20 C19 1.397 . S
C20 C21 1.391 . S
C21 C20 1.391 . S
C21 C22 1.405 . S
C22 H2 0.950 . S
C22 C21 1.405 . S
C22 C23 1.367 . S
C23 H3 0.950 . S
C23 C18 1.386 . S
C23 C22 1.367 . S
C24 C18 1.483 . S
C24 C25 1.382 1_655 S
C24 C26 1.403 . S
C25 H4 0.950 . S
C25 C24 1.382 1_455 S
C25 C41 1.411 1_545 S
C26 C24 1.403 . S
C26 C27 1.489 . S
C26 C40 1.395 1_645 S
C27 C26 1.489 . S
C27 C28 1.383 . S
C27 C32 1.382 . S
C28 H5 0.950 . S
C28 C27 1.383 . S
C28 C29 1.395 . S
C29 H6 0.950 . S
C29 C28 1.395 . S
C29 C30 1.288 . S
C30 C29 1.288 . S
C30 C31 1.392 . S
C31 H7 0.951 . S
C31 C30 1.392 . S
C31 C32 1.392 . S
C32 H8 0.949 1_545 S
C32 C27 1.382 . S
C32 C31 1.392 . S
C33 C34 1.376 . S
C33 C38 1.386 . S
C33 C39 1.483 . S
C34 H9 0.949 . S
C34 C33 1.376 . S
C34 C35 1.397 . S
C35 H10 0.950 . S
C35 C34 1.397 . S
C35 C36 1.391 . S
C36 C35 1.391 . S
C36 C37 1.405 . S
C37 H11 0.950 . S
C37 C36 1.405 . S
C37 C38 1.367 . S
C38 H12 0.950 . S
C38 C33 1.386 . S
C38 C37 1.367 . S
C39 C33 1.483 . S
C39 C40 1.394 . S
C39 C41 1.403 . S
C40 H13 0.956 . S
C40 C26 1.395 1_465 S
C40 C39 1.394 . S
C41 C25 1.411 1_565 S
C41 C39 1.403 . S
C41 C42 1.489 . S
C42 C41 1.489 . S
C42 C43 1.383 . S
C42 C47 1.382 . S
C43 H14 0.950 . S
C43 C42 1.383 . S
C43 C44 1.395 . S
C44 H15 0.950 . S
C44 C43 1.395 . S
C44 C45 1.288 . S
C45 C44 1.288 . S
C45 C46 1.392 . S
C46 H16 0.951 . S
C46 C45 1.392 . S
C46 C47 1.392 . S
C47 H17 0.949 1_565 S
C47 C42 1.382 . S
C47 C46 1.392 . S
H48 C67 0.949 1_455 S
H49 C68 0.950 . S
H50 C70 0.950 . S
H51 C71 0.950 . S
H52 C73 0.950 . S
H53 C76 0.950 . S
H54 C77 0.950 . S
H55 C79 0.951 . S
H56 C80 0.949 . S
H57 C82 0.949 . S
H58 C83 0.950 . S
H59 C85 0.950 . S
H60 C86 0.950 . S
H61 C88 0.947 1_655 S
H62 C91 0.950 . S
H63 C92 0.950 . S
H64 C94 0.951 . S
H65 C95 0.949 . S
C66 C67 1.376 . S
C66 C71 1.386 . S
C66 C72 1.483 . S
C67 H48 0.949 1_655 S
C67 C66 1.376 . S
C67 C68 1.397 . S
C68 H49 0.950 . S
C68 C67 1.397 . S
C68 C69 1.391 . S
C69 C68 1.391 . S
C69 C70 1.405 . S
C70 H50 0.950 . S
C70 C69 1.405 . S
C70 C71 1.367 . S
C71 H51 0.950 . S
C71 C66 1.386 . S
C71 C70 1.367 . S
C72 C66 1.483 . S
C72 C73 1.382 1_655 S
C72 C74 1.403 . S
C73 H52 0.950 . S
C73 C72 1.382 1_455 S
C73 C89 1.411 . S
C74 C72 1.403 . S
C74 C75 1.489 . S
C74 C88 1.398 1_655 S
C75 C74 1.489 . S
C75 C76 1.383 . S
C75 C80 1.382 . S
C76 H53 0.950 . S
C76 C75 1.383 . S
C76 C77 1.395 . S
C77 H54 0.950 . S
C77 C76 1.395 . S
C77 C78 1.288 . S
C78 C77 1.288 . S
C78 C79 1.392 . S
C79 H55 0.951 . S
C79 C78 1.392 . S
C79 C80 1.392 . S
C80 H56 0.949 . S
C80 C75 1.382 . S
C80 C79 1.392 . S
C81 C82 1.376 . S
C81 C86 1.386 . S
C81 C87 1.483 . S
C82 H57 0.949 . S
C82 C81 1.376 . S
C82 C83 1.397 . S
C83 H58 0.950 . S
C83 C82 1.397 . S
C83 C84 1.391 . S
C84 C83 1.391 . S
C84 C85 1.405 . S
C85 H59 0.950 . S
C85 C84 1.405 . S
C85 C86 1.367 . S
C86 H60 0.950 . S
C86 C81 1.386 . S
C86 C85 1.367 . S
C87 C81 1.483 . S
C87 C88 1.399 . S
C87 C89 1.403 . S
C88 H61 0.947 1_455 S
C88 C74 1.398 1_455 S
C88 C87 1.399 . S
C89 C73 1.411 . S
C89 C87 1.403 . S
C89 C90 1.489 . S
C90 C89 1.489 . S
C90 C91 1.383 . S
C90 C95 1.382 . S
C91 H62 0.950 . S
C91 C90 1.383 . S
C91 C92 1.395 . S
C92 H63 0.950 . S
C92 C91 1.395 . S
C92 C93 1.288 . S
C93 C92 1.288 . S
C93 C94 1.392 . S
C94 H64 0.951 . S
C94 C93 1.392 . S
C94 C95 1.392 . S
C95 H65 0.949 . S
C95 C90 1.382 . S
C95 C94 1.392 . S
H96 C115 0.949 . S
H97 C116 0.950 . S
H98 C118 0.950 . S
H99 C119 0.950 . S
H100 C121 0.950 . S
H101 C124 0.950 . S
H102 C125 0.950 . S
H103 C127 0.951 . S
H104 C128 0.949 . S
H105 C130 0.949 . S
H106 C131 0.950 . S
H107 C133 0.950 . S
H108 C134 0.950 . S
H109 C136 0.950 . S
H110 C139 0.950 . S
H111 C140 0.950 . S
H112 C142 0.951 . S
H113 C143 0.949 . S
C114 C115 1.376 . S
C114 C119 1.386 . S
C114 C120 1.483 . S
C115 H96 0.949 . S
C115 C114 1.376 . S
C115 C116 1.397 . S
C116 H97 0.950 . S
C116 C115 1.397 . S
C116 C117 1.391 . S
C117 C116 1.391 . S
C117 C118 1.405 . S
C118 H98 0.950 . S
C118 C117 1.405 . S
C118 C119 1.367 . S
C119 H99 0.950 . S
C119 C114 1.386 . S
C119 C118 1.367 . S
C120 C114 1.483 . S
C120 C121 1.382 . S
C120 C122 1.403 . S
C121 H100 0.950 . S
C121 C120 1.382 . S
C121 C137 1.411 . S
C122 C120 1.403 . S
C122 C123 1.489 . S
C122 C136 1.411 . S
C123 C122 1.489 . S
C123 C124 1.383 . S
C123 C128 1.382 . S
C124 H101 0.950 . S
C124 C123 1.383 . S
C124 C125 1.395 . S
C125 H102 0.950 . S
C125 C124 1.395 . S
C125 C126 1.288 . S
C126 C125 1.288 . S
C126 C127 1.392 . S
C127 H103 0.951 . S
C127 C126 1.392 . S
C127 C128 1.392 . S
C128 H104 0.949 . S
C128 C123 1.382 . S
C128 C127 1.392 . S
C129 C130 1.376 . S
C129 C134 1.386 . S
C129 C135 1.483 . S
C130 H105 0.949 . S
C130 C129 1.376 . S
C130 C131 1.397 . S
C131 H106 0.950 . S
C131 C130 1.397 . S
C131 C132 1.391 . S
C132 C131 1.391 . S
C132 C133 1.405 . S
C133 H107 0.950 . S
C133 C132 1.405 . S
C133 C134 1.367 . S
C134 H108 0.950 . S
C134 C129 1.386 . S
C134 C133 1.367 . S
C135 C129 1.483 . S
C135 C136 1.382 . S
C135 C137 1.403 . S
C136 H109 0.950 . S
C136 C122 1.411 . S
C136 C135 1.382 . S
C137 C121 1.411 . S
C137 C135 1.403 . S
C137 C138 1.489 . S
C138 C137 1.489 . S
C138 C139 1.383 . S
C138 C143 1.382 . S
C139 H110 0.950 . S
C139 C138 1.383 . S
C139 C140 1.395 . S
C140 H111 0.950 . S
C140 C139 1.395 . S
C140 C141 1.288 . S
C141 C140 1.288 . S
C141 C142 1.392 . S
C142 H112 0.951 . S
C142 C141 1.392 . S
C142 C143 1.392 . S
C143 H113 0.949 . S
C143 C138 1.382 . S
C143 C142 1.392 . S
H144 C163 0.949 . S
H145 C164 0.950 . S
H146 C166 0.950 . S
H147 C167 0.950 . S
H148 C169 0.950 . S
H149 C172 0.950 . S
H150 C173 0.950 . S
H151 C175 0.951 . S
H152 C176 0.949 . S
H153 C178 0.949 . S
H154 C179 0.950 . S
H155 C181 0.950 . S
H156 C182 0.950 . S
H157 C184 0.950 . S
H158 C187 0.950 . S
H159 C188 0.950 . S
H160 C190 0.951 . S
H161 C191 0.949 . S
C162 C163 1.376 . S
C162 C167 1.386 . S
C162 C168 1.483 . S
C163 H144 0.949 . S
C163 C162 1.376 . S
C163 C164 1.397 . S
C164 H145 0.950 . S
C164 C163 1.397 . S
C164 C165 1.391 . S
C165 C164 1.391 . S
C165 C166 1.405 . S
C166 H146 0.950 . S
C166 C165 1.405 . S
C166 C167 1.367 . S
C167 H147 0.950 . S
C167 C162 1.386 . S
C167 C166 1.367 . S
C168 C162 1.483 . S
C168 C169 1.382 . S
C168 C170 1.403 . S
C169 H148 0.950 . S
C169 C168 1.382 . S
C169 C185 1.411 1_565 S
C170 C168 1.403 . S
C170 C171 1.489 . S
C170 C184 1.411 1_565 S
C171 C170 1.489 . S
C171 C172 1.383 . S
C171 C176 1.382 . S
C172 H149 0.950 . S
C172 C171 1.383 . S
C172 C173 1.395 . S
C173 H150 0.950 . S
C173 C172 1.395 . S
C173 C174 1.288 . S
C174 C173 1.288 . S
C174 C175 1.392 . S
C175 H151 0.951 . S
C175 C174 1.392 . S
C175 C176 1.392 . S
C176 H152 0.949 . S
C176 C171 1.382 . S
C176 C175 1.392 . S
C177 C178 1.376 . S
C177 C182 1.386 . S
C177 C183 1.483 . S
C178 H153 0.949 . S
C178 C177 1.376 . S
C178 C179 1.397 . S
C179 H154 0.950 . S
C179 C178 1.397 . S
C179 C180 1.391 . S
C180 C179 1.391 . S
C180 C181 1.405 . S
C181 H155 0.950 . S
C181 C180 1.405 . S
C181 C182 1.367 . S
C182 H156 0.950 . S
C182 C177 1.386 . S
C182 C181 1.367 . S
C183 C177 1.483 . S
C183 C184 1.382 . S
C183 C185 1.403 . S
C184 H157 0.950 . S
C184 C170 1.411 1_545 S
C184 C183 1.382 . S
C185 C169 1.411 1_545 S
C185 C183 1.403 . S
C185 C186 1.489 . S
C186 C185 1.489 . S
C186 C187 1.383 . S
C186 C191 1.382 . S
C187 H158 0.950 . S
C187 C186 1.383 . S
C187 C188 1.395 . S
C188 H159 0.950 . S
C188 C187 1.395 . S
C188 C189 1.288 . S
C189 C188 1.288 . S
C189 C190 1.392 . S
C190 H160 0.951 . S
C190 C189 1.392 . S
C190 C191 1.392 . S
C191 H161 0.949 . S
C191 C186 1.382 . S
C191 C190 1.392 . S
H192 C211 0.949 . S
H193 C212 0.950 . S
H194 C214 0.950 . S
H195 C215 0.950 . S
H196 C217 0.950 . S
H197 C220 0.950 . S
H198 C221 0.950 . S
H199 C223 0.951 . S
H200 C224 0.949 . S
H201 C226 0.949 . S
H202 C227 0.950 . S
H203 C229 0.950 . S
H204 C230 0.950 . S
H205 C232 0.950 . S
H206 C235 0.950 . S
H207 C236 0.950 . S
H208 C238 0.951 . S
H209 C239 0.949 . S
C210 C211 1.376 . S
C210 C215 1.386 . S
C210 C216 1.483 . S
C211 H192 0.949 . S
C211 C210 1.376 . S
C211 C212 1.397 . S
C212 H193 0.950 . S
C212 C211 1.397 . S
C212 C213 1.391 . S
C213 C212 1.391 . S
C213 C214 1.405 . S
C214 H194 0.950 . S
C214 C213 1.405 . S
C214 C215 1.367 . S
C215 H195 0.950 . S
C215 C210 1.386 . S
C215 C214 1.367 . S
C216 C210 1.483 . S
C216 C217 1.382 1_455 S
C216 C218 1.403 . S
C217 H196 0.950 . S
C217 C216 1.382 1_655 S
C217 C233 1.411 . S
C218 C216 1.403 . S
C218 C219 1.489 . S
C218 C232 1.411 . S
C219 C218 1.489 . S
C219 C220 1.383 . S
C219 C224 1.382 . S
C220 H197 0.950 . S
C220 C219 1.383 . S
C220 C221 1.395 . S
C221 H198 0.950 . S
C221 C220 1.395 . S
C221 C222 1.288 . S
C222 C221 1.288 . S
C222 C223 1.392 . S
C223 H199 0.951 . S
C223 C222 1.392 . S
C223 C224 1.392 . S
C224 H200 0.949 . S
C224 C219 1.382 . S
C224 C223 1.392 . S
C225 C226 1.376 . S
C225 C230 1.386 . S
C225 C231 1.483 . S
C226 H201 0.949 . S
C226 C225 1.376 . S
C226 C227 1.397 . S
C227 H202 0.950 . S
C227 C226 1.397 . S
C227 C228 1.391 . S
C228 C227 1.391 . S
C228 C229 1.405 . S
C229 H203 0.950 . S
C229 C228 1.405 . S
C229 C230 1.367 . S
C230 H204 0.950 . S
C230 C225 1.386 . S
C230 C229 1.367 . S
C231 C225 1.483 . S
C231 C232 1.382 1_655 S
C231 C233 1.403 . S
C232 H205 0.950 . S
C232 C218 1.411 . S
C232 C231 1.382 1_455 S
C233 C217 1.411 . S
C233 C231 1.403 . S
C233 C234 1.489 . S
C234 C233 1.489 . S
C234 C235 1.383 . S
C234 C239 1.382 . S
C235 H206 0.950 . S
C235 C234 1.383 . S
C235 C236 1.395 . S
C236 H207 0.950 . S
C236 C235 1.395 . S
C236 C237 1.288 . S
C237 C236 1.288 . S
C237 C238 1.392 . S
C238 H208 0.951 . S
C238 C237 1.392 . S
C238 C239 1.392 . S
C239 H209 0.949 . S
C239 C234 1.382 . S
C239 C238 1.392 . S
H240 C259 0.949 . S
H241 C260 0.950 . S
H242 C262 0.950 . S
H243 C263 0.950 . S
H244 C265 0.950 . S
H245 C268 0.950 . S
H246 C269 0.950 . S
H247 C271 0.951 . S
H248 C272 0.949 . S
H249 C274 0.949 . S
H250 C275 0.950 . S
H251 C277 0.950 . S
H252 C278 0.950 . S
H253 C280 0.950 . S
H254 C283 0.950 . S
H255 C284 0.950 . S
H256 C286 0.951 . S
H257 C287 0.949 . S
C258 C259 1.376 . S
C258 C263 1.386 . S
C258 C264 1.483 . S
C259 H240 0.949 . S
C259 C258 1.376 . S
C259 C260 1.397 . S
C260 H241 0.950 . S
C260 C259 1.397 . S
C260 C261 1.391 . S
C261 C260 1.391 . S
C261 C262 1.405 . S
C262 H242 0.950 . S
C262 C261 1.405 . S
C262 C263 1.367 . S
C263 H243 0.950 . S
C263 C258 1.386 . S
C263 C262 1.367 . S
C264 C258 1.483 . S
C264 C265 1.382 . S
C264 C266 1.403 . S
C265 H244 0.950 . S
C265 C264 1.382 . S
C265 C281 1.411 . S
C266 C264 1.403 . S
C266 C267 1.489 . S
C266 C280 1.411 . S
C267 C266 1.489 . S
C267 C268 1.383 . S
C267 C272 1.382 . S
C268 H245 0.950 . S
C268 C267 1.383 . S
C268 C269 1.395 . S
C269 H246 0.950 . S
C269 C268 1.395 . S
C269 C270 1.288 . S
C270 C269 1.288 . S
C270 C271 1.392 . S
C271 H247 0.951 . S
C271 C270 1.392 . S
C271 C272 1.392 . S
C272 H248 0.949 . S
C272 C267 1.382 . S
C272 C271 1.392 . S
C273 C274 1.376 . S
C273 C278 1.386 . S
C273 C279 1.483 . S
C274 H249 0.949 . S
C274 C273 1.376 . S
C274 C275 1.397 . S
C275 H250 0.950 . S
C275 C274 1.397 . S
C275 C276 1.391 . S
C276 C275 1.391 . S
C276 C277 1.405 . S
C277 H251 0.950 . S
C277 C276 1.405 . S
C277 C278 1.367 . S
C278 H252 0.950 . S
C278 C273 1.386 . S
C278 C277 1.367 . S
C279 C273 1.483 . S
C279 C280 1.382 . S
C279 C281 1.403 . S
C280 H253 0.950 . S
C280 C266 1.411 . S
C280 C279 1.382 . S
C281 C265 1.411 . S
C281 C279 1.403 . S
C281 C282 1.489 . S
C282 C281 1.489 . S
C282 C283 1.383 . S
C282 C287 1.382 . S
C283 H254 0.950 . S
C283 C282 1.383 . S
C283 C284 1.395 . S
C284 H255 0.950 . S
C284 C283 1.395 . S
C284 C285 1.288 . S
C285 C284 1.288 . S
C285 C286 1.392 . S
C286 H256 0.951 . S
C286 C285 1.392 . S
C286 C287 1.392 . S
C287 H257 0.949 . S
C287 C282 1.382 . S
C287 C286 1.392 . S
H288 C307 0.949 . S
H289 C308 0.950 . S
H290 C310 0.950 . S
H291 C311 0.950 . S
H292 C313 0.950 . S
H293 C316 0.950 . S
H294 C317 0.950 . S
H295 C319 0.951 . S
H296 C320 0.949 1_545 S
H297 C322 0.949 . S
H298 C323 0.950 . S
H299 C325 0.950 . S
H300 C326 0.950 . S
H301 C328 0.950 . S
H302 C331 0.950 . S
H303 C332 0.950 . S
H304 C334 0.951 . S
H305 C335 0.949 1_565 S
C306 C307 1.376 . S
C306 C311 1.386 . S
C306 C312 1.483 . S
C307 H288 0.949 . S
C307 C306 1.376 . S
C307 C308 1.397 . S
C308 H289 0.950 . S
C308 C307 1.397 . S
C308 C309 1.391 . S
C309 C308 1.391 . S
C309 C310 1.405 . S
C310 H290 0.950 . S
C310 C309 1.405 . S
C310 C311 1.367 . S
C311 H291 0.950 . S
C311 C306 1.386 . S
C311 C310 1.367 . S
C312 C306 1.483 . S
C312 C313 1.382 . S
C312 C314 1.403 . S
C313 H292 0.950 . S
C313 C312 1.382 . S
C313 C329 1.411 1_565 S
C314 C312 1.403 . S
C314 C315 1.489 . S
C314 C328 1.411 1_565 S
C315 C314 1.489 . S
C315 C316 1.383 . S
C315 C320 1.382 . S
C316 H293 0.950 . S
C316 C315 1.383 . S
C316 C317 1.395 . S
C317 H294 0.950 . S
C317 C316 1.395 . S
C317 C318 1.288 . S
C318 C317 1.288 . S
C318 C319 1.392 . S
C319 H295 0.951 . S
C319 C318 1.392 . S
C319 C320 1.392 . S
C320 H296 0.949 1_565 S
C320 C315 1.382 . S
C320 C319 1.392 . S
C321 C322 1.376 . S
C321 C326 1.386 . S
C321 C327 1.483 . S
C322 H297 0.949 . S
C322 C321 1.376 . S
C322 C323 1.397 . S
C323 H298 0.950 . S
C323 C322 1.397 . S
C323 C324 1.391 . S
C324 C323 1.391 . S
C324 C325 1.405 . S
C325 H299 0.950 . S
C325 C324 1.405 . S
C325 C326 1.367 . S
C326 H300 0.950 . S
C326 C321 1.386 . S
C326 C325 1.367 . S
C327 C321 1.483 . S
C327 C328 1.382 . S
C327 C329 1.403 . S
C328 H301 0.950 . S
C328 C314 1.411 1_545 S
C328 C327 1.382 . S
C329 C313 1.411 1_545 S
C329 C327 1.403 . S
C329 C330 1.489 . S
C330 C329 1.489 . S
C330 C331 1.383 . S
C330 C335 1.382 . S
C331 H302 0.950 . S
C331 C330 1.383 . S
C331 C332 1.395 . S
C332 H303 0.950 . S
C332 C331 1.395 . S
C332 C333 1.288 . S
C333 C332 1.288 . S
C333 C334 1.392 . S
C334 H304 0.951 . S
C334 C333 1.392 . S
C334 C335 1.392 . S
C335 H305 0.949 1_545 S
C335 C330 1.382 . S
C335 C334 1.392 . S
H336 C355 0.949 1_455 S
H337 C356 0.950 . S
H338 C358 0.950 . S
H339 C359 0.950 . S
H340 C361 0.950 . S
H341 C364 0.950 . S
H342 C365 0.950 . S
H343 C367 0.951 . S
H344 C368 0.949 . S
H345 C370 0.949 . S
H346 C371 0.950 . S
H347 C373 0.950 . S
H348 C374 0.950 . S
H349 C376 0.950 . S
H350 C379 0.950 . S
H351 C380 0.950 . S
H352 C382 0.951 . S
H353 C383 0.932 1_545 S
C354 C355 1.376 . S
C354 C359 1.386 . S
C354 C360 1.483 . S
C355 H336 0.949 1_655 S
C355 C354 1.376 . S
C355 C356 1.397 . S
C356 H337 0.950 . S
C356 C355 1.397 . S
C356 C357 1.391 . S
C357 C356 1.391 . S
C357 C358 1.405 . S
C358 H338 0.950 . S
C358 C357 1.405 . S
C358 C359 1.367 . S
C359 H339 0.950 . S
C359 C354 1.386 . S
C359 C358 1.367 . S
C360 C354 1.483 . S
C360 C361 1.382 1_655 S
C360 C362 1.403 . S
C361 H340 0.950 . S
C361 C360 1.382 1_455 S
C361 C377 1.411 1_545 S
C362 C360 1.403 . S
C362 C363 1.489 . S
C362 C376 1.411 1_655 S
C363 C362 1.489 . S
C363 C364 1.383 . S
C363 C368 1.382 . S
C364 H341 0.950 . S
C364 C363 1.383 . S
C364 C365 1.395 . S
C365 H342 0.950 . S
C365 C364 1.395 . S
C365 C366 1.288 . S
C366 C365 1.288 . S
C366 C367 1.392 . S
C367 H343 0.951 . S
C367 C366 1.392 . S
C367 C368 1.392 . S
C368 H344 0.949 . S
C368 C363 1.382 . S
C368 C367 1.392 . S
C369 C370 1.376 . S
C369 C374 1.386 . S
C369 C375 1.483 . S
C370 H345 0.949 . S
C370 C369 1.376 . S
C370 C371 1.397 . S
C371 H346 0.950 . S
C371 C370 1.397 . S
C371 C372 1.391 . S
C372 C371 1.391 . S
C372 C373 1.405 . S
C373 H347 0.950 . S
C373 C372 1.405 . S
C373 C374 1.367 . S
C374 H348 0.950 . S
C374 C369 1.386 . S
C374 C373 1.367 . S
C375 C369 1.483 . S
C375 C376 1.382 1_565 S
C375 C377 1.403 . S
C376 H349 0.950 . S
C376 C362 1.411 1_455 S
C376 C375 1.382 1_545 S
C377 C361 1.411 1_565 S
C377 C375 1.403 . S
C377 C378 1.489 . S
C378 C377 1.489 . S
C378 C379 1.383 . S
C378 C383 1.382 . S
C379 H350 0.950 . S
C379 C378 1.383 . S
C379 C380 1.395 . S
C380 H351 0.950 . S
C380 C379 1.395 . S
C380 C381 1.288 . S
C381 C380 1.288 . S
C381 C382 1.392 . S
C382 H352 0.951 . S
C382 C381 1.392 . S
C382 C383 1.392 . S
C383 H353 0.932 1_565 S
C383 C378 1.382 . S
C383 C382 1.392 . S
Co384 O385 2.216 1_554 S
Co384 O386 2.091 1_554 S
Co384 O388 2.004 . S
Co384 O394 2.021 1_554 S
Co384 O396 2.137 . S
Co384 O397 2.244 . S
O385 Co384 2.216 1_556 S
O385 C392 1.247 . S
O386 Co384 2.091 1_556 S
O386 C392 1.261 . S
C387 O396 1.247 . S
C387 O397 1.272 . S
O388 Co384 2.004 . S
O388 C393 1.259 . S
Co389 O390 2.061 . S
Co389 O395 2.052 1_554 S
Co389 O397 2.135 . S
O390 Co389 2.061 . S
O390 C393 1.235 . S
C391 O394 1.238 . S
C391 O395 1.241 . S
C392 O385 1.247 . S
C392 O386 1.261 . S
C393 O388 1.259 . S
C393 O390 1.235 . S
O394 Co384 2.021 1_556 S
O394 C391 1.238 . S
O395 Co389 2.052 1_556 S
O395 C391 1.241 . S
O396 Co384 2.137 . S
O396 C387 1.247 . S
O397 Co384 2.244 . S
O397 C387 1.272 . S
O397 Co389 2.135 . S
Co398 O399 2.216 . S
Co398 O400 2.091 . S
Co398 O402 2.004 . S
Co398 O408 2.021 . S
Co398 O410 2.137 . S
Co398 O411 2.244 . S
O399 Co398 2.216 . S
O399 C406 1.247 . S
O400 Co398 2.091 . S
O400 C406 1.261 . S
C401 O410 1.247 . S
C401 O411 1.272 . S
O402 Co398 2.004 . S
O402 C407 1.259 . S
Co403 O404 2.061 . S
Co403 O409 2.052 . S
Co403 O411 2.135 . S
O404 Co403 2.061 . S
O404 C407 1.235 . S
C405 O408 1.238 . S
C405 O409 1.241 . S
C406 O399 1.247 . S
C406 O400 1.261 . S
C407 O402 1.259 . S
C407 O404 1.235 . S
O408 Co398 2.021 . S
O408 C405 1.238 . S
O409 Co403 2.052 . S
O409 C405 1.241 . S
O410 Co398 2.137 . S
O410 C401 1.247 . S
O411 Co398 2.244 . S
O411 C401 1.272 . S
O411 Co403 2.135 . S
Co412 O413 2.216 . S
Co412 O414 2.091 . S
Co412 O416 2.004 . S
Co412 O422 2.021 . S
Co412 O424 2.137 . S
Co412 O425 2.244 . S
O413 Co412 2.216 . S
O413 C420 1.247 . S
O414 Co412 2.091 . S
O414 C420 1.261 . S
C415 O424 1.247 . S
C415 O425 1.272 . S
O416 Co412 2.004 . S
O416 C421 1.259 . S
Co417 O418 2.061 . S
Co417 O423 2.052 . S
Co417 O425 2.135 . S
O418 Co417 2.061 . S
O418 C421 1.235 . S
C419 O422 1.238 . S
C419 O423 1.241 . S
C420 O413 1.247 . S
C420 O414 1.261 . S
C421 O416 1.259 . S
C421 O418 1.235 . S
O422 Co412 2.021 . S
O422 C419 1.238 . S
O423 Co417 2.052 . S
O423 C419 1.241 . S
O424 Co412 2.137 . S
O424 C415 1.247 . S
O425 Co412 2.244 . S
O425 C415 1.272 . S
O425 Co417 2.135 . S
Co426 O427 2.216 . S
Co426 O428 2.091 . S
Co426 O430 2.004 . S
Co426 O436 2.021 . S
Co426 O438 2.137 . S
Co426 O439 2.244 . S
O427 Co426 2.216 . S
O427 C434 1.247 . S
O428 Co426 2.091 . S
O428 C434 1.261 . S
C429 O438 1.247 . S
C429 O439 1.272 . S
O430 Co426 2.004 . S
O430 C435 1.259 . S
Co431 O432 2.061 . S
Co431 O437 2.052 . S
Co431 O439 2.135 . S
O432 Co431 2.061 . S
O432 C435 1.235 . S
C433 O436 1.238 . S
C433 O437 1.241 . S
C434 O427 1.247 . S
C434 O428 1.261 . S
C435 O430 1.259 . S
C435 O432 1.235 . S
O436 Co426 2.021 . S
O436 C433 1.238 . S
O437 Co431 2.052 . S
O437 C433 1.241 . S
O438 Co426 2.137 . S
O438 C429 1.247 . S
O439 Co426 2.244 . S
O439 C429 1.272 . S
O439 Co431 2.135 . S
Co440 O441 2.216 . S
Co440 O442 2.091 . S
Co440 O444 2.004 . S
Co440 O450 2.021 . S
Co440 O452 2.137 . S
Co440 O453 2.244 . S
O441 Co440 2.216 . S
O441 C448 1.247 . S
O442 Co440 2.091 . S
O442 C448 1.261 . S
C443 O452 1.247 . S
C443 O453 1.272 . S
O444 Co440 2.004 . S
O444 C449 1.259 . S
Co445 O446 2.061 . S
Co445 O451 2.052 . S
Co445 O453 2.135 . S
O446 Co445 2.061 . S
O446 C449 1.235 . S
C447 O450 1.238 . S
C447 O451 1.241 . S
C448 O441 1.247 . S
C448 O442 1.261 . S
C449 O444 1.259 . S
C449 O446 1.235 . S
O450 Co440 2.021 . S
O450 C447 1.238 . S
O451 Co445 2.052 . S
O451 C447 1.241 . S
O452 Co440 2.137 . S
O452 C443 1.247 . S
O453 Co440 2.244 . S
O453 C443 1.272 . S
O453 Co445 2.135 . S
Co454 O455 2.216 . S
Co454 O456 2.091 . S
Co454 O458 2.004 . S
Co454 O464 2.021 . S
Co454 O466 2.137 . S
Co454 O467 2.244 . S
O455 Co454 2.216 . S
O455 C462 1.247 . S
O456 Co454 2.091 . S
O456 C462 1.261 . S
C457 O466 1.247 . S
C457 O467 1.272 . S
O458 Co454 2.004 . S
O458 C463 1.259 . S
Co459 O460 2.061 . S
Co459 O465 2.052 . S
Co459 O467 2.135 . S
O460 Co459 2.061 . S
O460 C463 1.235 . S
C461 O464 1.238 . S
C461 O465 1.241 . S
C462 O455 1.247 . S
C462 O456 1.261 . S
C463 O458 1.259 . S
C463 O460 1.235 . S
O464 Co454 2.021 . S
O464 C461 1.238 . S
O465 Co459 2.052 . S
O465 C461 1.241 . S
O466 Co454 2.137 . S
O466 C457 1.247 . S
O467 Co454 2.244 . S
O467 C457 1.272 . S
O467 Co459 2.135 . S
Co468 O469 2.216 1_556 S
Co468 O470 2.091 1_556 S
Co468 O472 2.004 . S
Co468 O478 2.021 1_556 S
Co468 O480 2.137 . S
Co468 O481 2.244 . S
O469 Co468 2.216 1_554 S
O469 C476 1.247 . S
O470 Co468 2.091 1_554 S
O470 C476 1.261 . S
C471 O480 1.247 . S
C471 O481 1.272 . S
O472 Co468 2.004 . S
O472 C477 1.259 . S
Co473 O474 2.061 . S
Co473 O479 2.052 1_556 S
Co473 O481 2.135 . S
O474 Co473 2.061 . S
O474 C477 1.235 . S
C475 O478 1.238 . S
C475 O479 1.241 . S
C476 O469 1.247 . S
C476 O470 1.261 . S
C477 O472 1.259 . S
C477 O474 1.235 . S
O478 Co468 2.021 1_554 S
O478 C475 1.238 . S
O479 Co473 2.052 1_554 S
O479 C475 1.241 . S
O480 Co468 2.137 . S
O480 C471 1.247 . S
O481 Co468 2.244 . S
O481 C471 1.272 . S
O481 Co473 2.135 . S
Co482 O483 2.216 . S
Co482 O484 2.091 . S
Co482 O486 2.004 . S
Co482 O492 2.021 . S
Co482 O494 2.137 . S
Co482 O495 2.244 . S
O483 Co482 2.216 . S
O483 C490 1.247 . S
O484 Co482 2.091 . S
O484 C490 1.261 . S
C485 O494 1.247 . S
C485 O495 1.272 . S
O486 Co482 2.004 . S
O486 C491 1.259 . S
Co487 O488 2.061 . S
Co487 O493 2.052 . S
Co487 O495 2.135 . S
O488 Co487 2.061 . S
O488 C491 1.235 . S
C489 O492 1.238 . S
C489 O493 1.241 . S
C490 O483 1.247 . S
C490 O484 1.261 . S
C491 O486 1.259 . S
C491 O488 1.235 . S
O492 Co482 2.021 . S
O492 C489 1.238 . S
O493 Co487 2.052 . S
O493 C489 1.241 . S
O494 Co482 2.137 . S
O494 C485 1.247 . S
O495 Co482 2.244 . S
O495 C485 1.272 . S
O495 Co487 2.135 . S
C496 C497 1.387 . S
C496 H500 0.950 . S
C496 C505 1.390 . S
C497 C496 1.387 . S
C497 C499 1.387 . S
H498 C505 0.950 . S
C499 C497 1.387 . S
C499 C501 1.390 . S
C499 H503 0.950 . S
H500 C496 0.950 . S
C501 C499 1.390 . S
C501 C502 1.387 . S
C501 H504 0.950 . S
C502 C501 1.387 . S
C502 C505 1.387 . S
H503 C499 0.950 . S
H504 C501 0.950 . S
C505 C496 1.390 . S
C505 H498 0.950 . S
C505 C502 1.387 . S
C506 C507 1.387 . S
C506 H510 0.950 . S
C506 C515 1.390 . S
C507 C506 1.387 . S
C507 C509 1.387 . S
H508 C515 0.950 . S
C509 C507 1.387 . S
C509 C511 1.390 . S
C509 H513 0.950 . S
H510 C506 0.950 . S
C511 C509 1.390 . S
C511 C512 1.387 . S
C511 H514 0.950 . S
C512 C511 1.387 . S
C512 C515 1.387 . S
H513 C509 0.950 . S
H514 C511 0.950 . S
C515 C506 1.390 . S
C515 H508 0.950 . S
C515 C512 1.387 . S
C516 C517 1.387 . S
C516 H520 0.950 . S
C516 C525 1.390 . S
C517 C516 1.387 . S
C517 C519 1.387 . S
H518 C525 0.950 . S
C519 C517 1.387 . S
C519 C521 1.390 . S
C519 H523 0.950 . S
H520 C516 0.950 . S
C521 C519 1.390 . S
C521 C522 1.387 . S
C521 H524 0.950 . S
C522 C521 1.387 . S
C522 C525 1.387 . S
H523 C519 0.950 . S
H524 C521 0.950 . S
C525 C516 1.390 . S
C525 H518 0.950 . S
C525 C522 1.387 . S
C526 C527 1.387 . S
C526 H530 0.950 . S
C526 C535 1.390 . S
C527 C526 1.387 . S
C527 C529 1.387 1_554 S
H528 C535 0.950 . S
C529 C527 1.387 1_556 S
C529 C531 1.390 . S
C529 H533 0.950 . S
H530 C526 0.950 . S
C531 C529 1.390 . S
C531 C532 1.387 1_556 S
C531 H534 0.950 . S
C532 C531 1.387 1_554 S
C532 C535 1.387 . S
H533 C529 0.950 . S
H534 C531 0.950 . S
C535 C526 1.390 . S
C535 H528 0.950 . S
C535 C532 1.387 . S
C536 C537 1.387 1_554 S
C536 H540 0.950 . S
C536 C545 1.390 . S
C537 C536 1.387 1_556 S
C537 C539 1.387 . S
H538 C545 0.950 . S
C539 C537 1.387 . S
C539 C541 1.390 . S
C539 H543 0.950 . S
H540 C536 0.950 . S
C541 C539 1.390 . S
C541 C542 1.387 . S
C541 H544 0.950 . S
C542 C541 1.387 . S
C542 C545 1.387 1_556 S
H543 C539 0.950 . S
H544 C541 0.950 . S
C545 C536 1.390 . S
C545 H538 0.950 . S
C545 C542 1.387 1_554 S
C546 C547 1.387 . S
C546 H550 0.950 . S
C546 C555 1.390 . S
C547 C546 1.387 . S
C547 C549 1.387 . S
H548 C555 0.950 . S
C549 C547 1.387 . S
C549 C551 1.390 . S
C549 H553 0.950 . S
H550 C546 0.950 . S
C551 C549 1.390 . S
C551 C552 1.387 . S
C551 H554 0.950 . S
C552 C551 1.387 . S
C552 C555 1.387 . S
H553 C549 0.950 . S
H554 C551 0.950 . S
C555 C546 1.390 . S
C555 H548 0.950 . S
C555 C552 1.387 . S
C556 C557 1.387 . S
C556 H560 0.950 . S
C556 C565 1.390 . S
C557 C556 1.387 . S
C557 C559 1.387 . S
H558 C565 0.950 . S
C559 C557 1.387 . S
C559 C561 1.390 . S
C559 H563 0.950 . S
H560 C556 0.950 . S
C561 C559 1.390 . S
C561 C562 1.387 . S
C561 H564 0.950 . S
C562 C561 1.387 . S
C562 C565 1.387 . S
H563 C559 0.950 . S
H564 C561 0.950 . S
C565 C556 1.390 . S
C565 H558 0.950 . S
C565 C562 1.387 . S
C566 C567 1.387 . S
C566 H570 0.950 . S
C566 C575 1.390 . S
C567 C566 1.387 . S
C567 C569 1.387 . S
H568 C575 0.950 . S
C569 C567 1.387 . S
C569 C571 1.390 . S
C569 H573 0.950 . S
H570 C566 0.950 . S
C571 C569 1.390 . S
C571 C572 1.387 . S
C571 H574 0.950 . S
C572 C571 1.387 . S
C572 C575 1.387 . S
H573 C569 0.950 . S
H574 C571 0.950 . S
C575 C566 1.390 . S
C575 H568 0.950 . S
C575 C572 1.387 . S
C576 C577 1.387 . S
C576 H580 0.950 . S
C576 C585 1.390 . S
C577 C576 1.387 . S
C577 C579 1.387 . S
H578 C585 0.950 . S
C579 C577 1.387 . S
C579 C581 1.390 . S
C579 H583 0.950 . S
H580 C576 0.950 . S
C581 C579 1.390 . S
C581 C582 1.387 . S
C581 H584 0.950 . S
C582 C581 1.387 . S
C582 C585 1.387 . S
H583 C579 0.950 . S
H584 C581 0.950 . S
C585 C576 1.390 . S
C585 H578 0.950 . S
C585 C582 1.387 . S
C586 C587 1.387 . S
C586 H590 0.950 . S
C586 C595 1.390 . S
C587 C586 1.387 . S
C587 C589 1.387 1_554 S
H588 C595 0.950 . S
C589 C587 1.387 1_556 S
C589 C591 1.390 . S
C589 H593 0.950 . S
H590 C586 0.950 . S
C591 C589 1.390 . S
C591 C592 1.387 1_556 S
C591 H594 0.950 . S
C592 C591 1.387 1_554 S
C592 C595 1.387 . S
H593 C589 0.950 . S
H594 C591 0.950 . S
C595 C586 1.390 . S
C595 H588 0.950 . S
C595 C592 1.387 . S
C596 C597 1.387 . S
C596 H600 0.950 . S
C596 C605 1.390 . S
C597 C596 1.387 . S
C597 C599 1.387 . S
H598 C605 0.950 . S
C599 C597 1.387 . S
C599 C601 1.390 . S
C599 H603 0.950 . S
H600 C596 0.950 . S
C601 C599 1.390 . S
C601 C602 1.387 . S
C601 H604 0.950 . S
C602 C601 1.387 . S
C602 C605 1.387 . S
H603 C599 0.950 . S
H604 C601 0.950 . S
C605 C596 1.390 . S
C605 H598 0.950 . S
C605 C602 1.387 . S
C606 C607 1.387 . S
C606 H610 0.950 . S
C606 C615 1.390 . S
C607 C606 1.387 . S
C607 C609 1.387 . S
H608 C615 0.950 . S
C609 C607 1.387 . S
C609 C611 1.390 . S
C609 H613 0.950 . S
H610 C606 0.950 . S
C611 C609 1.390 . S
C611 C612 1.387 . S
C611 H614 0.950 . S
C612 C611 1.387 . S
C612 C615 1.387 . S
H613 C609 0.950 . S
H614 C611 0.950 . S
C615 C606 1.390 . S
C615 H608 0.950 . S
C615 C612 1.387 . S
C616 C617 1.387 . S
C616 H620 0.950 . S
C616 C625 1.390 . S
C617 C616 1.387 . S
C617 C619 1.387 . S
H618 C625 0.950 . S
C619 C617 1.387 . S
C619 C621 1.390 . S
C619 H623 0.950 . S
H620 C616 0.950 . S
C621 C619 1.390 . S
C621 C622 1.387 . S
C621 H624 0.950 . S
C622 C621 1.387 . S
C622 C625 1.387 . S
H623 C619 0.950 . S
H624 C621 0.950 . S
C625 C616 1.390 . S
C625 H618 0.950 . S
C625 C622 1.387 . S
C626 C627 1.387 . S
C626 H630 0.950 . S
C626 C635 1.390 . S
C627 C626 1.387 . S
C627 C629 1.387 . S
H628 C635 0.950 . S
C629 C627 1.387 . S
C629 C631 1.390 . S
C629 H633 0.950 . S
H630 C626 0.950 . S
C631 C629 1.390 . S
C631 C632 1.387 . S
C631 H634 0.950 . S
C632 C631 1.387 . S
C632 C635 1.387 . S
H633 C629 0.950 . S
H634 C631 0.950 . S
C635 C626 1.390 . S
C635 H628 0.950 . S
C635 C632 1.387 . S
C636 C637 1.387 1_554 S
C636 H640 0.950 . S
C636 C645 1.390 . S
C637 C636 1.387 1_556 S
C637 C639 1.387 . S
H638 C645 0.950 . S
C639 C637 1.387 . S
C639 C641 1.390 . S
C639 H643 0.950 . S
H640 C636 0.950 . S
C641 C639 1.390 . S
C641 C642 1.387 . S
C641 H644 0.950 . S
C642 C641 1.387 . S
C642 C645 1.387 1_556 S
H643 C639 0.950 . S
H644 C641 0.950 . S
C645 C636 1.390 . S
C645 H638 0.950 . S
C645 C642 1.387 1_554 S
C646 C647 1.387 . S
C646 H650 0.950 . S
C646 C655 1.390 . S
C647 C646 1.387 . S
C647 C649 1.387 . S
H648 C655 0.950 . S
C649 C647 1.387 . S
C649 C651 1.390 . S
C649 H653 0.950 . S
H650 C646 0.950 . S
C651 C649 1.390 . S
C651 C652 1.387 . S
C651 H654 0.950 . S
C652 C651 1.387 . S
C652 C655 1.387 . S
H653 C649 0.950 . S
H654 C651 0.950 . S
C655 C646 1.390 . S
C655 H648 0.950 . S
C655 C652 1.387 . S
C656 C657 1.387 . S
C656 H660 0.950 . S
C656 C665 1.390 . S
C657 C656 1.387 . S
C657 C659 1.387 . S
H658 C665 0.950 . S
C659 C657 1.387 . S
C659 C661 1.390 . S
C659 H663 0.950 . S
H660 C656 0.950 . S
C661 C659 1.390 . S
C661 C662 1.387 . S
C661 H664 0.950 . S
C662 C661 1.387 . S
C662 C665 1.387 . S
H663 C659 0.950 . S
H664 C661 0.950 . S
C665 C656 1.390 . S
C665 H658 0.950 . S
C665 C662 1.387 . S
C666 C667 1.387 . S
C666 H670 0.950 . S
C666 C675 1.390 . S
C667 C666 1.387 . S
C667 C669 1.387 . S
H668 C675 0.950 . S
C669 C667 1.387 . S
C669 C671 1.390 . S
C669 H673 0.950 . S
H670 C666 0.950 . S
C671 C669 1.390 . S
C671 C672 1.387 . S
C671 H674 0.950 . S
C672 C671 1.387 . S
C672 C675 1.387 . S
H673 C669 0.950 . S
H674 C671 0.950 . S
C675 C666 1.390 . S
C675 H668 0.950 . S
C675 C672 1.387 . S
C676 C677 1.387 . S
C676 H680 0.950 . S
C676 C685 1.390 . S
C677 C676 1.387 . S
C677 C679 1.387 . S
H678 C685 0.950 . S
C679 C677 1.387 . S
C679 C681 1.390 . S
C679 H683 0.950 . S
H680 C676 0.950 . S
C681 C679 1.390 . S
C681 C682 1.387 . S
C681 H684 0.950 . S
C682 C681 1.387 . S
C682 C685 1.387 . S
H683 C679 0.950 . S
H684 C681 0.950 . S
C685 C676 1.390 . S
C685 H678 0.950 . S
C685 C682 1.387 . S
C686 C687 1.387 . S
C686 H690 0.950 . S
C686 C695 1.390 . S
C687 C686 1.387 . S
C687 C689 1.387 . S
H688 C695 0.950 . S
C689 C687 1.387 . S
C689 C691 1.390 . S
C689 H693 0.950 . S
H690 C686 0.950 . S
C691 C689 1.390 . S
C691 C692 1.387 . S
C691 H694 0.950 . S
C692 C691 1.387 . S
C692 C695 1.387 . S
H693 C689 0.950 . S
H694 C691 0.950 . S
C695 C686 1.390 . S
C695 H688 0.950 . S
C695 C692 1.387 . S
C696 C697 1.387 . S
C696 H700 0.950 . S
C696 C705 1.390 . S
C697 C696 1.387 . S
C697 C699 1.387 . S
H698 C705 0.950 . S
C699 C697 1.387 . S
C699 C701 1.390 . S
C699 H703 0.950 . S
H700 C696 0.950 . S
C701 C699 1.390 . S
C701 C702 1.387 . S
C701 H704 0.950 . S
C702 C701 1.387 . S
C702 C705 1.387 . S
H703 C699 0.950 . S
H704 C701 0.950 . S
C705 C696 1.390 . S
C705 H698 0.950 . S
C705 C702 1.387 . S
C706 C707 1.387 . S
C706 H710 0.950 . S
C706 C715 1.390 . S
C707 C706 1.387 . S
C707 C709 1.387 . S
H708 C715 0.950 . S
C709 C707 1.387 . S
C709 C711 1.390 . S
C709 H713 0.950 . S
H710 C706 0.950 . S
C711 C709 1.390 . S
C711 C712 1.387 . S
C711 H714 0.950 . S
C712 C711 1.387 . S
C712 C715 1.387 . S
H713 C709 0.950 . S
H714 C711 0.950 . S
C715 C706 1.390 . S
C715 H708 0.950 . S
C715 C712 1.387 . S
C716 C717 1.387 . S
C716 H720 0.950 . S
C716 C725 1.390 . S
C717 C716 1.387 . S
C717 C719 1.387 . S
H718 C725 0.950 . S
C719 C717 1.387 . S
C719 C721 1.390 . S
C719 H723 0.950 . S
H720 C716 0.950 . S
C721 C719 1.390 . S
C721 C722 1.387 . S
C721 H724 0.950 . S
C722 C721 1.387 . S
C722 C725 1.387 . S
H723 C719 0.950 . S
H724 C721 0.950 . S
C725 C716 1.390 . S
C725 H718 0.950 . S
C725 C722 1.387 . S
C726 C727 1.387 . S
C726 H730 0.950 . S
C726 C735 1.390 . S
C727 C726 1.387 . S
C727 C729 1.387 . S
H728 C735 0.950 . S
C729 C727 1.387 . S
C729 C731 1.390 . S
C729 H733 0.950 . S
H730 C726 0.950 . S
C731 C729 1.390 . S
C731 C732 1.387 . S
C731 H734 0.950 . S
C732 C731 1.387 . S
C732 C735 1.387 . S
H733 C729 0.950 . S
H734 C731 0.950 . S
C735 C726 1.390 . S
C735 H728 0.950 . S
C735 C732 1.387 . S
C736 C737 1.387 . S
C736 H740 0.950 . S
C736 C745 1.390 . S
C737 C736 1.387 . S
C737 C739 1.387 . S
H738 C745 0.950 . S
C739 C737 1.387 . S
C739 C741 1.390 . S
C739 H743 0.950 . S
H740 C736 0.950 . S
C741 C739 1.390 . S
C741 C742 1.387 . S
C741 H744 0.950 . S
C742 C741 1.387 . S
C742 C745 1.387 . S
H743 C739 0.950 . S
H744 C741 0.950 . S
C745 C736 1.390 . S
C745 H738 0.950 . S
C745 C742 1.387 . S
C746 C747 1.387 . S
C746 H750 0.950 . S
C746 C755 1.390 . S
C747 C746 1.387 . S
C747 C749 1.387 . S
H748 C755 0.950 . S
C749 C747 1.387 . S
C749 C751 1.390 . S
C749 H753 0.950 . S
H750 C746 0.950 . S
C751 C749 1.390 . S
C751 C752 1.387 . S
C751 H754 0.950 . S
C752 C751 1.387 . S
C752 C755 1.387 . S
H753 C749 0.950 . S
H754 C751 0.950 . S
C755 C746 1.390 . S
C755 H748 0.950 . S
C755 C752 1.387 . S
C756 C757 1.387 . S
C756 H760 0.950 . S
C756 C765 1.390 . S
C757 C756 1.387 . S
C757 C759 1.387 . S
H758 C765 0.950 . S
C759 C757 1.387 . S
C759 C761 1.390 . S
C759 H763 0.950 . S
H760 C756 0.950 . S
C761 C759 1.390 . S
C761 C762 1.387 . S
C761 H764 0.950 . S
C762 C761 1.387 . S
C762 C765 1.387 . S
H763 C759 0.950 . S
H764 C761 0.950 . S
C765 C756 1.390 . S
C765 H758 0.950 . S
C765 C762 1.387 . S
C766 C767 1.387 . S
C766 H770 0.950 . S
C766 C775 1.390 . S
C767 C766 1.387 . S
C767 C769 1.387 . S
H768 C775 0.950 . S
C769 C767 1.387 . S
C769 C771 1.390 . S
C769 H773 0.950 . S
H770 C766 0.950 . S
C771 C769 1.390 . S
C771 C772 1.387 . S
C771 H774 0.950 . S
C772 C771 1.387 . S
C772 C775 1.387 . S
H773 C769 0.950 . S
H774 C771 0.950 . S
C775 C766 1.390 . S
C775 H768 0.950 . S
C775 C772 1.387 . S
C776 C777 1.387 . S
C776 H780 0.950 . S
C776 C785 1.390 . S
C777 C776 1.387 . S
C777 C779 1.387 . S
H778 C785 0.950 . S
C779 C777 1.387 . S
C779 C781 1.390 . S
C779 H783 0.950 . S
H780 C776 0.950 . S
C781 C779 1.390 . S
C781 C782 1.387 . S
C781 H784 0.950 . S
C782 C781 1.387 . S
C782 C785 1.387 . S
H783 C779 0.950 . S
H784 C781 0.950 . S
C785 C776 1.390 . S
C785 H778 0.950 . S
C785 C782 1.387 . S
C786 C787 1.387 . S
C786 H790 0.950 . S
C786 C795 1.390 . S
C787 C786 1.387 . S
C787 C789 1.387 . S
H788 C795 0.950 . S
C789 C787 1.387 . S
C789 C791 1.390 . S
C789 H793 0.950 . S
H790 C786 0.950 . S
C791 C789 1.390 . S
C791 C792 1.387 . S
C791 H794 0.950 . S
C792 C791 1.387 . S
C792 C795 1.387 . S
H793 C789 0.950 . S
H794 C791 0.950 . S
C795 C786 1.390 . S
C795 H788 0.950 . S
C795 C792 1.387 . S
C796 C797 1.387 . S
C796 H800 0.950 . S
C796 C805 1.390 . S
C797 C796 1.387 . S
C797 C799 1.387 . S
H798 C805 0.950 . S
C799 C797 1.387 . S
C799 C801 1.390 . S
C799 H803 0.950 . S
H800 C796 0.950 . S
C801 C799 1.390 . S
C801 C802 1.387 . S
C801 H804 0.950 . S
C802 C801 1.387 . S
C802 C805 1.387 . S
H803 C799 0.950 . S
H804 C801 0.950 . S
C805 C796 1.390 . S
C805 H798 0.950 . S
C805 C802 1.387 . S
C806 C807 1.387 . S
C806 H810 0.950 . S
C806 C815 1.390 . S
C807 C806 1.387 . S
C807 C809 1.387 . S
H808 C815 0.950 . S
C809 C807 1.387 . S
C809 C811 1.390 . S
C809 H813 0.950 . S
H810 C806 0.950 . S
C811 C809 1.390 . S
C811 C812 1.387 . S
C811 H814 0.950 . S
C812 C811 1.387 . S
C812 C815 1.387 . S
H813 C809 0.950 . S
H814 C811 0.950 . S
C815 C806 1.390 . S
C815 H808 0.950 . S
C815 C812 1.387 . S
C502 C406 1.463 . S
C497 C36 1.402 . S
C512 C420 1.460 . S
C507 C93 1.423 . S
C522 C435 1.444 . S
C517 C126 1.421 . S
C527 C165 1.394 . S
C532 C393 1.432 . S
C537 C222 1.399 . S
C542 C392 1.451 . S
C547 C261 1.389 . S
C552 C407 1.423 . S
C562 C421 1.468 . S
C557 C318 1.433 . S
C572 C434 1.472 . S
C567 C381 1.434 . S
C577 C132 1.392 . S
C582 C462 1.452 . S
C592 C476 1.485 . S
C587 C189 1.441 . S
C597 C30 1.406 . S
C602 C491 1.429 . S
C612 C448 1.435 . S
C607 C69 1.373 . S
C617 C324 1.409 . S
C622 C449 1.440 . S
C627 C357 1.405 . S
C632 C463 1.435 . S
C642 C477 1.440 . S
C637 C228 1.410 . S
C647 C285 1.443 . S
C652 C490 1.482 . S
C662 C415 1.752 . S
C657 C45 1.742 . S
C672 C433 1.737 . S
C667 C84 1.752 . S
C677 C117 1.743 . S
C682 C391 1.748 . S
C687 C174 1.714 . S
C692 C401 1.771 . S
C697 C213 1.732 . S
C702 C429 1.748 . S
C712 C387 1.760 . S
C707 C270 1.708 . S
C722 C405 1.735 . S
C717 C309 1.739 . S
C732 C419 1.730 . S
C727 C372 1.749 . S
C742 C471 1.747 . S
C737 C141 1.744 . S
C752 C489 1.723 . S
C747 C180 1.741 . S
C757 C21 1.735 . S
C762 C443 1.753 . S
C772 C457 1.748 . S
C767 C78 1.699 . S
C782 C485 1.767 . S
C777 C333 1.759 . S
C787 C366 1.717 . S
C792 C447 1.757 . S
C802 C461 1.749 . S
C797 C237 1.758 . S
C812 C475 1.734 . S
C807 C276 1.748 . S
