# Generated by pormake.
# Topology cml, (3,6)-cn, num edge types: 1
# Building blocks:
#     Node 0, Type 0, BuildingBlock: QEWDON_clean_linker_0, # of connection points: 3
#     Node 1, Type 0, BuildingBlock: QEWDON_clean_linker_0, # of connection points: 3
#     Node 2, Type 0, BuildingBlock: QEWDON_clean_linker_0, # of connection points: 3
#     Node 3, Type 0, BuildingBlock: QEWDON_clean_linker_0, # of connection points: 3
#     Node 4, Type 0, BuildingBlock: QEWDON_clean_linker_0, # of connection points: 3
#     Node 5, Type 0, BuildingBlock: QEWDON_clean_linker_0, # of connection points: 3
#     Node 6, Type 0, BuildingBlock: QEWDON_clean_linker_0, # of connection points: 3
#     Node 7, Type 0, BuildingBlock: QEWDON_clean_linker_0, # of connection points: 3
#     Node 8, Type 1, BuildingBlock: OJICUG_clean_sbu_0, # of connection points: 6
#     Node 9, Type 1, BuildingBlock: OJICUG_clean_sbu_0, # of connection points: 6
#     Node 10, Type 1, BuildingBlock: OJICUG_clean_sbu_0, # of connection points: 6
#     Node 11, Type 1, BuildingBlock: OJICUG_clean_sbu_0, # of connection points: 6
#     Edge 12, Type (0, 1), BuildingBlock: XUDNAN_clean_linker_2, # of connection points: 2
#     Edge 13, Type (0, 1), BuildingBlock: XUDNAN_clean_linker_2, # of connection points: 2
#     Edge 14, Type (0, 1), BuildingBlock: XUDNAN_clean_linker_2, # of connection points: 2
#     Edge 15, Type (0, 1), BuildingBlock: XUDNAN_clean_linker_2, # of connection points: 2
#     Edge 16, Type (0, 1), BuildingBlock: XUDNAN_clean_linker_2, # of connection points: 2
#     Edge 17, Type (0, 1), BuildingBlock: XUDNAN_clean_linker_2, # of connection points: 2
#     Edge 18, Type (0, 1), BuildingBlock: XUDNAN_clean_linker_2, # of connection points: 2
#     Edge 19, Type (0, 1), BuildingBlock: XUDNAN_clean_linker_2, # of connection points: 2
#     Edge 20, Type (0, 1), BuildingBlock: XUDNAN_clean_linker_2, # of connection points: 2
#     Edge 21, Type (0, 1), BuildingBlock: XUDNAN_clean_linker_2, # of connection points: 2
#     Edge 22, Type (0, 1), BuildingBlock: XUDNAN_clean_linker_2, # of connection points: 2
#     Edge 23, Type (0, 1), BuildingBlock: XUDNAN_clean_linker_2, # of connection points: 2
#     Edge 24, Type (0, 1), BuildingBlock: XUDNAN_clean_linker_2, # of connection points: 2
#     Edge 25, Type (0, 1), BuildingBlock: XUDNAN_clean_linker_2, # of connection points: 2
#     Edge 26, Type (0, 1), BuildingBlock: XUDNAN_clean_linker_2, # of connection points: 2
#     Edge 27, Type (0, 1), BuildingBlock: XUDNAN_clean_linker_2, # of connection points: 2
#     Edge 28, Type (0, 1), BuildingBlock: XUDNAN_clean_linker_2, # of connection points: 2
#     Edge 29, Type (0, 1), BuildingBlock: XUDNAN_clean_linker_2, # of connection points: 2
#     Edge 30, Type (0, 1), BuildingBlock: XUDNAN_clean_linker_2, # of connection points: 2
#     Edge 31, Type (0, 1), BuildingBlock: XUDNAN_clean_linker_2, # of connection points: 2
#     Edge 32, Type (0, 1), BuildingBlock: XUDNAN_clean_linker_2, # of connection points: 2
#     Edge 33, Type (0, 1), BuildingBlock: XUDNAN_clean_linker_2, # of connection points: 2
#     Edge 34, Type (0, 1), BuildingBlock: XUDNAN_clean_linker_2, # of connection points: 2
#     Edge 35, Type (0, 1), BuildingBlock: XUDNAN_clean_linker_2, # of connection points: 2
# Relax obj value: 0.005
# Max RMSD: 0.109
# Mean RMSD: 0.080
data_MOF--net-cml--node1-OJICUG_clean_sbu_0--node2-QEWDON_clean_linker_0--edge1-XUDNAN_clean_linker_2
_symmetry_space_group_name_H-M    P1
_symmetry_Int_Tables_number       1
_symmetry_cell_setting            triclinic
loop_
_symmetry_equiv_pos_as_xyz
'x, y, z'
_cell_length_a     42.841303
_cell_length_b     40.611145
_cell_length_c     35.775666
_cell_angle_alpha  89.858048
_cell_angle_beta   89.772071
_cell_angle_gamma 89.793692
loop_
_atom_site_label
_atom_site_type_symbol
_atom_site_fract_x
_atom_site_fract_y
_atom_site_fract_z
_atom_type_partial_charge
H0 H 0.2626 0.44019 0.96107 0.0
C1 C 0.27504 0.43173 0.9856 0.0
C2 C 0.3053 0.44319 0.99305 0.0
C3 C 0.26059 0.40889 0.00952 0.0
H4 H 0.34228 0.44317 0.03343 0.0
C5 C 0.3203 0.43216 0.02568 0.0
C6 C 0.30701 0.40791 0.0489 0.0
C7 C 0.27701 0.39617 0.04023 0.0
C8 C 0.22749 0.40018 0.0038 0.0
H9 H 0.26593 0.37775 0.05767 0.0
C10 C 0.2184 0.36742 0.99748 0.0
C11 C 0.1867 0.35965 0.99197 0.0
C12 C 0.20472 0.42509 0.00503 0.0
H13 H 0.21128 0.45044 0.01001 0.0
C14 C 0.17329 0.41745 0.00033 0.0
H15 H 0.23599 0.3482 0.99639 0.0
C16 C 0.16427 0.38501 0.99379 0.0
H17 H 0.13979 0.37995 0.9891 0.0
H18 H 0.15586 0.4368 0.00138 0.0
H19 H 0.74718 0.55779 0.46252 0.0
C20 C 0.73326 0.57003 0.48377 0.0
C21 C 0.70135 0.56311 0.48679 0.0
C22 C 0.7473 0.59283 0.50781 0.0
H23 H 0.65899 0.57279 0.51731 0.0
C24 C 0.68357 0.57866 0.51459 0.0
C25 C 0.69743 0.60063 0.53982 0.0
C26 C 0.72926 0.60831 0.53563 0.0
C27 C 0.78118 0.59897 0.50475 0.0
H28 H 0.74039 0.62497 0.55506 0.0
C29 C 0.79259 0.63085 0.49791 0.0
C30 C 0.82472 0.63595 0.49192 0.0
C31 C 0.80218 0.57239 0.50677 0.0
H32 H 0.79382 0.54766 0.51209 0.0
C33 C 0.8341 0.5775 0.50191 0.0
H34 H 0.77638 0.6513 0.49557 0.0
C35 C 0.84534 0.60901 0.4943 0.0
H36 H 0.87021 0.61234 0.49028 0.0
H37 H 0.85015 0.55692 0.50363 0.0
H38 H 0.68974 0.36484 0.91211 0.0
C39 C 0.68373 0.36247 0.94144 0.0
C40 C 0.66331 0.38538 0.95823 0.0
C41 C 0.696 0.33569 0.96168 0.0
H42 H 0.63999 0.39831 0.00997 0.0
C43 C 0.65628 0.38165 0.99645 0.0
C44 C 0.66909 0.35556 0.01729 0.0
C45 C 0.689 0.33263 -0.0001 0.0
C46 C 0.71244 0.30902 0.94116 0.0
H47 H 0.69786 0.31179 0.01565 0.0
C48 C 0.74317 0.2991 0.95004 0.0
C49 C 0.75864 0.27531 0.92783 0.0
C50 C 0.6971 0.29408 0.91102 0.0
H51 H 0.67343 0.30111 0.90388 0.0
C52 C 0.71201 0.27 0.88978 0.0
H53 H 0.75531 0.31071 0.973 0.0
C54 C 0.74257 0.26079 0.89792 0.0
H55 H 0.75368 0.2421 0.88082 0.0
H56 H 0.69991 0.25861 0.8667 0.0
H57 H 0.30655 0.62927 0.41562 0.0
C58 C 0.31395 0.63388 0.44405 0.0
C59 C 0.33631 0.6133 0.46091 0.0
C60 C 0.30207 0.66168 0.46253 0.0
H61 H 0.36371 0.6055 0.51046 0.0
C62 C 0.34525 0.61998 0.4979 0.0
C63 C 0.33237 0.64681 0.51777 0.0
C64 C 0.3105 0.66743 0.49976 0.0
C65 C 0.28534 0.68715 0.44049 0.0
H66 H 0.30115 0.68886 0.51393 0.0
C67 C 0.25584 0.69957 0.45123 0.0
C68 C 0.24032 0.72259 0.42818 0.0
C69 C 0.29949 0.69896 0.40757 0.0
H70 H 0.32234 0.69016 0.39904 0.0
C71 C 0.28452 0.7223 0.38539 0.0
H72 H 0.24462 0.6905 0.47641 0.0
C73 C 0.25509 0.73392 0.39544 0.0
H74 H 0.24379 0.7519 0.37756 0.0
H75 H 0.29569 0.73124 0.36016 0.0
H76 H 0.77252 0.91525 0.96812 0.0
C77 C 0.78305 0.90661 0.99385 0.0
C78 C 0.81428 0.91442 0.00203 0.0
C79 C 0.76478 0.8894 0.02002 0.0
H80 H 0.8511 0.90978 0.04271 0.0
C81 C 0.82712 0.90375 0.03611 0.0
C82 C 0.80898 0.88673 0.0625 0.0
C83 C 0.77778 0.87963 0.05419 0.0
C84 C 0.73116 0.8844 0.01382 0.0
H85 H 0.76335 0.8669 0.07455 0.0
C86 C 0.72047 0.85837 0.99152 0.0
C87 C 0.68825 0.85205 0.98867 0.0
C88 C 0.70961 0.90447 0.03271 0.0
H89 H 0.71756 0.92446 0.05024 0.0
C90 C 0.67768 0.89869 0.02943 0.0
H91 H 0.73719 0.84251 0.97751 0.0
C92 C 0.667 0.87258 0.00771 0.0
H93 H 0.64209 0.8686 0.00556 0.0
H94 H 0.66115 0.91432 0.044 0.0
H95 H 0.23295 0.08236 0.47006 0.0
C96 C 0.22373 0.09136 0.49641 0.0
C97 C 0.19266 0.08479 0.50646 0.0
C98 C 0.24339 0.10848 0.52087 0.0
H99 H 0.15743 0.09107 0.54899 0.0
C100 C 0.18153 0.09562 0.54124 0.0
C101 C 0.20102 0.11236 0.56619 0.0
C102 C 0.23192 0.11925 0.55562 0.0
C103 C 0.27671 0.11198 0.51146 0.0
H104 H 0.24737 0.13163 0.57492 0.0
C105 C 0.28841 0.14157 0.49666 0.0
C106 C 0.32004 0.14394 0.48599 0.0
C107 C 0.29669 0.08487 0.51604 0.0
H108 H 0.28792 0.06188 0.52728 0.0
C109 C 0.3281 0.08723 0.50608 0.0
H110 H 0.27275 0.16227 0.49258 0.0
C111 C 0.33974 0.11649 0.49111 0.0
H112 H 0.36428 0.11772 0.48386 0.0
H113 H 0.34346 0.06627 0.50986 0.0
H114 H 0.21441 0.86048 0.97228 0.0
C115 C 0.20627 0.86327 0.0008 0.0
C116 C 0.1889 0.89144 0.01132 0.0
C117 C 0.21161 0.83758 0.02652 0.0
H118 H 0.16405 0.91445 0.05721 0.0
C119 C 0.17865 0.89399 0.04861 0.0
C120 C 0.18475 0.86909 0.07474 0.0
C121 C 0.20084 0.84076 0.06348 0.0
C122 C 0.22544 0.80589 0.0142 0.0
H123 H 0.20473 0.82102 0.08341 0.0
C124 C 0.2548 0.80443 0.99639 0.0
C125 C 0.2678 0.77379 0.98589 0.0
C126 C 0.20892 0.77661 0.02078 0.0
H127 H 0.18619 0.77717 0.03416 0.0
C128 C 0.22132 0.7464 0.00976 0.0
H129 H 0.2678 0.82694 0.99184 0.0
C130 C 0.25048 0.74492 0.99245 0.0
H131 H 0.25933 0.72109 0.98386 0.0
H132 H 0.20827 0.72402 0.01464 0.0
H133 H 0.78253 0.13852 0.47183 0.0
C134 C 0.79685 0.13838 0.49671 0.0
C135 C 0.81575 0.11072 0.50473 0.0
C136 C 0.79803 0.16674 0.51941 0.0
H137 H 0.85138 0.09178 0.54166 0.0
C138 C 0.83534 0.11186 0.53607 0.0
C139 C 0.83679 0.13976 0.5588 0.0
C140 C 0.81744 0.16668 0.55113 0.0
C141 C 0.78237 0.1979 0.50776 0.0
H142 H 0.81901 0.1884 0.56856 0.0
C143 C 0.75186 0.19816 0.49307 0.0
C144 C 0.73767 0.22808 0.48218 0.0
C145 C 0.79862 0.22787 0.51064 0.0
H146 H 0.82241 0.22853 0.52071 0.0
C147 C 0.7847 0.2574 0.49982 0.0
H148 H 0.739 0.17533 0.4908 0.0
C149 C 0.75448 0.25759 0.48574 0.0
H150 H 0.74449 0.28086 0.47688 0.0
H151 H 0.79753 0.28022 0.50203 0.0
Sc152 Sc 0.99233 0.83792 0.33317 0.0
Sc153 Sc 0.98713 0.92395 0.32345 0.0
Sc154 Sc 0.98714 0.88878 0.41348 0.0
O155 O 0.98877 0.88348 0.35678 0.0
C156 C 0.94512 0.8249 0.40125 0.0
C157 C 0.94404 0.87354 0.27912 0.0
C158 C 0.93731 0.9429 0.38636 0.0
C159 C 0.03815 0.88004 0.28156 0.0
C160 C 0.03849 0.83177 0.4029 0.0
C161 C 0.03141 0.94846 0.38911 0.0
O162 O 0.95722 0.81757 0.36979 0.0
O163 O 0.9528 0.90243 0.28743 0.0
O164 O 0.94838 0.92366 0.41128 0.0
O165 O 0.02848 0.85261 0.29417 0.0
O166 O 0.02573 0.85461 0.42206 0.0
O167 O 0.02109 0.94988 0.35592 0.0
O168 O 0.0288 0.82352 0.37073 0.0
O169 O 0.02533 0.90733 0.28963 0.0
O170 O 0.02122 0.92799 0.41319 0.0
O171 O 0.95607 0.8476 0.29286 0.0
O172 O 0.95323 0.85001 0.42001 0.0
O173 O 0.94916 0.94533 0.35392 0.0
Sc174 Sc 0.01596 0.17002 0.8358 0.0
Sc175 Sc 0.01707 0.08443 0.82331 0.0
Sc176 Sc 0.0148 0.117 0.91456 0.0
O177 O 0.0159 0.12386 0.85794 0.0
C178 C 0.06097 0.17801 0.90619 0.0
C179 C 0.06619 0.13233 0.78466 0.0
C180 C 0.06079 0.0591 0.89001 0.0
C181 C 0.97451 0.13376 0.77583 0.0
C182 C 0.9664 0.17658 0.90277 0.0
C183 C 0.96765 0.06157 0.88434 0.0
O184 O 0.05118 0.1861 0.87402 0.0
O185 O 0.05646 0.10362 0.7929 0.0
O186 O 0.0522 0.08052 0.91393 0.0
O187 O 0.98137 0.15959 0.79383 0.0
O188 O 0.97712 0.15238 0.92157 0.0
O189 O 0.97764 0.06204 0.85079 0.0
O190 O 0.97831 0.18584 0.87185 0.0
O191 O 0.98615 0.10574 0.78304 0.0
O192 O 0.97962 0.07895 0.91021 0.0
O193 O 0.05341 0.15849 0.79713 0.0
O194 O 0.04982 0.15421 0.92508 0.0
O195 O 0.04897 0.0575 0.85764 0.0
Sc196 Sc 0.49899 0.31904 0.30144 0.0
Sc197 Sc 0.50904 0.40451 0.2932 0.0
Sc198 Sc 0.50106 0.3685 0.3819 0.0
O199 O 0.50297 0.36405 0.32557 0.0
C200 C 0.45061 0.31339 0.3702 0.0
C201 C 0.45741 0.36292 0.24891 0.0
C202 C 0.46246 0.43223 0.35479 0.0
C203 C 0.55056 0.35364 0.24908 0.0
C204 C 0.54334 0.30358 0.36933 0.0
C205 C 0.5549 0.41858 0.36148 0.0
O206 O 0.46425 0.302 0.34128 0.0
O207 O 0.47457 0.38825 0.25289 0.0
O208 O 0.47153 0.41239 0.38027 0.0
O209 O 0.53338 0.32918 0.25763 0.0
O210 O 0.53083 0.3257 0.38982 0.0
O211 O 0.54406 0.42565 0.3294 0.0
O212 O 0.53593 0.29922 0.33528 0.0
O213 O 0.54641 0.38216 0.26258 0.0
O214 O 0.54287 0.39721 0.383 0.0
O215 O 0.46145 0.33625 0.26692 0.0
O216 O 0.45938 0.33956 0.38633 0.0
O217 O 0.47266 0.43086 0.32143 0.0
Sc218 Sc 0.50683 0.68594 0.79968 0.0
Sc219 Sc 0.49752 0.60071 0.78875 0.0
Sc220 Sc 0.50676 0.63386 0.87904 0.0
O221 O 0.50382 0.64018 0.82252 0.0
C222 C 0.55705 0.6906 0.86496 0.0
C223 C 0.54829 0.64236 0.74376 0.0
C224 C 0.5444 0.57127 0.85094 0.0
C225 C 0.45572 0.65446 0.74641 0.0
C226 C 0.46329 0.69782 0.8714 0.0
C227 C 0.45253 0.58364 0.85626 0.0
O228 O 0.5463 0.69876 0.83326 0.0
O229 O 0.536 0.61497 0.75302 0.0
O230 O 0.54066 0.5942 0.8748 0.0
O231 O 0.46798 0.67904 0.76249 0.0
O232 O 0.47246 0.67214 0.88878 0.0
O233 O 0.45836 0.58362 0.82141 0.0
O234 O 0.47428 0.70634 0.83971 0.0
O235 O 0.46458 0.62509 0.75262 0.0
O236 O 0.46905 0.5987 0.88017 0.0
O237 O 0.53951 0.66979 0.75748 0.0
O238 O 0.54483 0.66838 0.88535 0.0
O239 O 0.52951 0.57049 0.82025 0.0
H240 H 0.13582 0.32531 0.01786 0.0
H241 H 0.21466 0.3182 0.94179 0.0
H242 H 0.19424 0.26564 0.91778 0.0
H243 H 0.12713 0.23446 0.0353 0.0
H244 H 0.08516 0.23757 0.03634 0.0
H245 H 0.10864 0.27158 0.052 0.0
H246 H 0.08047 0.31017 0.00512 0.0
H247 H 0.05708 0.27636 0.98923 0.0
H248 H 0.08008 0.2996 0.9562 0.0
H249 H 0.16099 0.22007 0.89434 0.0
H250 H 0.11847 0.18258 0.87565 0.0
H251 H 0.06177 0.21737 0.96801 0.0
C252 C 0.14913 0.31229 0.99673 0.0
C253 C 0.17692 0.32578 0.9818 0.0
C254 C 0.19363 0.30809 0.9541 0.0
C255 C 0.18215 0.27826 0.9402 0.0
C256 C 0.15417 0.26619 0.95468 0.0
C257 C 0.13808 0.28239 0.98272 0.0
C258 C 0.10726 0.26565 0.99122 0.0
C259 C 0.10705 0.25147 0.03109 0.0
C260 C 0.07961 0.28936 0.98505 0.0
C261 C 0.10782 0.23845 0.96233 0.0
C262 C 0.13527 0.23902 0.94179 0.0
C263 C 0.13984 0.21871 0.9109 0.0
C264 C 0.11563 0.19759 0.90045 0.0
C265 C 0.08742 0.19672 0.92104 0.0
C266 C 0.08364 0.21692 0.95272 0.0
H267 H 0.86514 0.65097 0.43537 0.0
H268 H 0.8117 0.69518 0.5255 0.0
H269 H 0.83446 0.74962 0.51006 0.0
H270 H 0.93416 0.69642 0.44813 0.0
H271 H 0.94283 0.70015 0.39896 0.0
H272 H 0.92088 0.66546 0.41591 0.0
H273 H 0.87617 0.67956 0.36985 0.0
H274 H 0.89801 0.71434 0.35275 0.0
H275 H 0.85896 0.72014 0.37053 0.0
H276 H 0.86659 0.79826 0.48748 0.0
H277 H 0.90345 0.8374 0.45816 0.0
H278 H 0.93426 0.76084 0.38183 0.0
C279 C 0.85816 0.67214 0.4518 0.0
C280 C 0.83684 0.66894 0.48176 0.0
C281 C 0.82792 0.69722 0.50232 0.0
C282 C 0.84076 0.72815 0.49379 0.0
C283 C 0.86211 0.73034 0.46434 0.0
C284 C 0.87048 0.70309 0.44346 0.0
C285 C 0.89431 0.71169 0.41374 0.0
C286 C 0.92485 0.69229 0.41956 0.0
C287 C 0.88106 0.7061 0.37439 0.0
C288 C 0.89863 0.74794 0.4216 0.0
C289 C 0.87987 0.75832 0.45084 0.0
C290 C 0.88109 0.79049 0.46427 0.0
C291 C 0.90217 0.81251 0.44751 0.0
C292 C 0.92161 0.80229 0.41751 0.0
C293 C 0.91942 0.76963 0.4043 0.0
H294 H 0.80569 0.2723 0.8765 0.0
H295 H 0.78559 0.25511 0.99372 0.0
H296 H 0.83853 0.23109 0.00182 0.0
H297 H 0.8453 0.19891 0.85973 0.0
H298 H 0.87367 0.21629 0.82808 0.0
H299 H 0.83582 0.23515 0.83281 0.0
H300 H 0.86163 0.29079 0.84961 0.0
H301 H 0.89964 0.27213 0.84464 0.0
H302 H 0.8891 0.29251 0.8876 0.0
H303 H 0.89166 0.20265 0.99446 0.0
H304 H 0.94111 0.17654 0.97377 0.0
H305 H 0.92606 0.21437 0.86171 0.0
C306 C 0.81264 0.264 0.90405 0.0
C307 C 0.79161 0.26551 0.93453 0.0
C308 C 0.8015 0.25445 0.97013 0.0
C309 C 0.83144 0.24064 0.97488 0.0
C310 C 0.85128 0.23857 0.94386 0.0
C311 C 0.84236 0.25046 0.90926 0.0
C312 C 0.86724 0.24424 0.87994 0.0
C313 C 0.85475 0.22234 0.84829 0.0
C314 C 0.88017 0.27686 0.86455 0.0
C315 C 0.89136 0.22625 0.90312 0.0
C316 C 0.88185 0.22316 0.93993 0.0
C317 C 0.89953 0.20547 0.96586 0.0
C318 C 0.92755 0.19062 0.95381 0.0
C319 C 0.93774 0.19369 0.91621 0.0
C320 C 0.91936 0.21205 0.89082 0.0
H321 H 0.19047 0.72144 0.38188 0.0
H322 H 0.21872 0.75196 0.49256 0.0
H323 H 0.16764 0.78023 0.50119 0.0
H324 H 0.15505 0.79417 0.35601 0.0
H325 H 0.12384 0.77552 0.32999 0.0
H326 H 0.16044 0.75422 0.33504 0.0
H327 H 0.13192 0.70374 0.36345 0.0
H328 H 0.0951 0.72479 0.3581 0.0
H329 H 0.10655 0.70928 0.40328 0.0
H330 H 0.11552 0.81121 0.4934 0.0
H331 H 0.06698 0.83856 0.47182 0.0
H332 H 0.07431 0.78615 0.36649 0.0
C333 C 0.18559 0.73344 0.40829 0.0
C334 C 0.20835 0.73455 0.43662 0.0
C335 C 0.20134 0.75058 0.47073 0.0
C336 C 0.17249 0.76679 0.47573 0.0
C337 C 0.15091 0.76623 0.44653 0.0
C338 C 0.15707 0.74946 0.4137 0.0
C339 C 0.1312 0.75398 0.38557 0.0
C340 C 0.14337 0.77046 0.34955 0.0
C341 C 0.11524 0.72099 0.37712 0.0
C342 C 0.10978 0.7767 0.40714 0.0
C343 C 0.12128 0.78348 0.44231 0.0
C344 C 0.1061 0.80559 0.46614 0.0
C345 C 0.07858 0.8211 0.45359 0.0
C346 C 0.06657 0.81445 0.41751 0.0
C347 C 0.08246 0.79166 0.39439 0.0
H348 H 0.64363 0.80706 0.00837 0.0
H349 H 0.70588 0.83466 0.91776 0.0
H350 H 0.6827 0.79145 0.87802 0.0
H351 H 0.64293 0.71744 0.9884 0.0
H352 H 0.60226 0.71372 0.00078 0.0
H353 H 0.62614 0.74424 0.02326 0.0
H354 H 0.58724 0.7899 0.0031 0.0
H355 H 0.56331 0.7596 0.9806 0.0
H356 H 0.57757 0.79442 0.95435 0.0
H357 H 0.64803 0.75088 0.84584 0.0
H358 H 0.60611 0.7139 0.82434 0.0
H359 H 0.56784 0.7108 0.93666 0.0
C360 C 0.65264 0.8037 0.9803 0.0
C361 C 0.67651 0.82419 0.96604 0.0
C362 C 0.68781 0.819 0.92929 0.0
C363 C 0.67476 0.79458 0.90655 0.0
C364 C 0.65078 0.77526 0.92123 0.0
C365 C 0.64009 0.77926 0.95742 0.0
C366 C 0.61296 0.75655 0.96582 0.0
C367 C 0.6216 0.7315 0.99638 0.0
C368 C 0.58354 0.77631 0.97658 0.0
C369 C 0.60928 0.73995 0.92825 0.0
C370 C 0.63144 0.75098 0.90297 0.0
C371 C 0.63101 0.74152 0.86557 0.0
C372 C 0.60709 0.72062 0.8536 0.0
C373 C 0.58411 0.70918 0.879 0.0
C374 C 0.58564 0.71847 0.91693 0.0
H375 H 0.36008 0.14991 0.42645 0.0
H376 H 0.30919 0.20753 0.50867 0.0
H377 H 0.33362 0.25829 0.48404 0.0
H378 H 0.43059 0.19276 0.43295 0.0
H379 H 0.44003 0.19007 0.3839 0.0
H380 H 0.41611 0.15899 0.40545 0.0
H381 H 0.37274 0.16988 0.35658 0.0
H382 H 0.39657 0.20106 0.33485 0.0
H383 H 0.35766 0.21105 0.35057 0.0
H384 H 0.36763 0.30185 0.45449 0.0
H385 H 0.40752 0.33489 0.42163 0.0
H386 H 0.43575 0.24857 0.35844 0.0
C387 C 0.35389 0.17323 0.43913 0.0
C388 C 0.33275 0.17477 0.46953 0.0
C389 C 0.32505 0.20581 0.4851 0.0
C390 C 0.33888 0.23474 0.47137 0.0
C391 C 0.36009 0.23222 0.44182 0.0
C392 C 0.36736 0.20226 0.42572 0.0
C393 C 0.392 0.20594 0.39555 0.0
C394 C 0.42141 0.18575 0.40505 0.0
C395 C 0.37895 0.19642 0.35711 0.0
C396 C 0.39812 0.24255 0.39783 0.0
C397 C 0.37935 0.25733 0.42451 0.0
C398 C 0.38214 0.29062 0.43319 0.0
C399 C 0.40495 0.30916 0.41443 0.0
C400 C 0.42468 0.29441 0.38726 0.0
C401 C 0.42074 0.26075 0.37857 0.0
H402 H 0.31308 0.72719 0.99871 0.0
H403 H 0.29355 0.81449 0.93244 0.0
H404 H 0.34405 0.80742 0.89963 0.0
H405 H 0.39764 0.73802 0.00596 0.0
H406 H 0.40532 0.69452 0.00167 0.0
H407 H 0.36934 0.7086 0.02254 0.0
H408 H 0.33793 0.67428 0.97474 0.0
H409 H 0.37376 0.66013 0.95375 0.0
H410 H 0.34471 0.68036 0.92544 0.0
H411 H 0.39455 0.78771 0.87019 0.0
H412 H 0.4407 0.75748 0.84684 0.0
H413 H 0.42631 0.68254 0.93196 0.0
C414 C 0.31941 0.74498 0.97742 0.0
C415 C 0.29924 0.7714 0.96814 0.0
C416 C 0.30872 0.7943 0.94041 0.0
C417 C 0.33731 0.79039 0.92151 0.0
C418 C 0.35625 0.7636 0.93082 0.0
C419 C 0.3477 0.74138 0.95826 0.0
C420 C 0.37122 0.71361 0.9616 0.0
C421 C 0.38681 0.71371 0.00024 0.0
C422 C 0.35599 0.68013 0.95338 0.0
C423 C 0.39408 0.72324 0.93117 0.0
C424 C 0.3852 0.75228 0.91392 0.0
C425 C 0.40189 0.76516 0.88378 0.0
C426 C 0.42808 0.74773 0.87068 0.0
C427 C 0.43735 0.71762 0.88761 0.0
C428 C 0.42021 0.70563 0.91861 0.0
H429 H 0.69103 0.27218 0.49782 0.0
H430 H 0.71266 0.18701 0.42939 0.0
H431 H 0.66217 0.19367 0.39678 0.0
H432 H 0.60577 0.25922 0.50423 0.0
H433 H 0.5977 0.30274 0.50128 0.0
H434 H 0.63342 0.28843 0.52235 0.0
H435 H 0.66526 0.32472 0.47637 0.0
H436 H 0.62973 0.33897 0.45505 0.0
H437 H 0.65964 0.31997 0.42676 0.0
H438 H 0.6126 0.21424 0.3663 0.0
H439 H 0.56708 0.24528 0.34249 0.0
H440 H 0.57827 0.31678 0.4314 0.0
C441 C 0.68495 0.2546 0.47636 0.0
C442 C 0.70576 0.22906 0.46612 0.0
C443 C 0.69689 0.20649 0.43801 0.0
C444 C 0.66834 0.21019 0.41924 0.0
C445 C 0.64883 0.23634 0.42923 0.0
C446 C 0.65666 0.25794 0.45744 0.0
C447 C 0.63278 0.2853 0.46126 0.0
C448 C 0.61645 0.28381 0.49956 0.0
C449 C 0.64775 0.31923 0.45444 0.0
C450 C 0.61068 0.27629 0.4301 0.0
C451 C 0.62019 0.24789 0.41205 0.0
C452 C 0.60464 0.23616 0.38065 0.0
C453 C 0.57888 0.25404 0.36725 0.0
C454 C 0.56889 0.28331 0.38527 0.0
C455 C 0.58487 0.29417 0.4174 0.0
H456 H 0.36828 0.44705 0.97829 0.0
H457 H 0.27968 0.49265 0.949 0.0
H458 H 0.30746 0.53103 0.90707 0.0
H459 H 0.40942 0.5227 0.98559 0.0
H460 H 0.44556 0.50572 0.96813 0.0
H461 H 0.41829 0.47969 0.9925 0.0
H462 H 0.41724 0.44009 0.93581 0.0
H463 H 0.4444 0.4661 0.91114 0.0
H464 H 0.40747 0.45596 0.89021 0.0
H465 H 0.34564 0.565 0.86829 0.0
H466 H 0.39109 0.59461 0.84115 0.0
H467 H 0.45392 0.53077 0.90251 0.0
C468 C 0.35448 0.46523 0.96353 0.0
C469 C 0.32158 0.4665 0.96717 0.0
C470 C 0.30477 0.49046 0.94635 0.0
C471 C 0.32038 0.51259 0.92256 0.0
C472 C 0.35283 0.51079 0.9202 0.0
C473 C 0.36965 0.48794 0.94055 0.0
C474 C 0.40444 0.49238 0.93529 0.0
C475 C 0.42035 0.50062 0.97259 0.0
C476 C 0.41925 0.46181 0.91702 0.0
C477 C 0.40466 0.52151 0.90894 0.0
C478 C 0.37469 0.53143 0.8999 0.0
C479 C 0.36917 0.55752 0.87532 0.0
C480 C 0.39498 0.5741 0.86 0.0
C481 C 0.42566 0.56485 0.87005 0.0
C482 C 0.43053 0.53825 0.89467 0.0
H483 H 0.64851 0.56948 0.44474 0.0
H484 H 0.72093 0.49998 0.47602 0.0
H485 H 0.69334 0.45587 0.44203 0.0
H486 H 0.58532 0.51707 0.45572 0.0
H487 H 0.56364 0.53199 0.41602 0.0
H488 H 0.59061 0.55873 0.43941 0.0
H489 H 0.6198 0.56905 0.37691 0.0
H490 H 0.59277 0.54243 0.35322 0.0
H491 H 0.63414 0.5345 0.35026 0.0
H492 H 0.65418 0.41819 0.41331 0.0
H493 H 0.60838 0.39027 0.38596 0.0
H494 H 0.56333 0.48475 0.36872 0.0
C495 C 0.65877 0.54508 0.44374 0.0
C496 C 0.6868 0.53797 0.46278 0.0
C497 C 0.69962 0.50585 0.46118 0.0
C498 C 0.68409 0.48071 0.44207 0.0
C499 C 0.65614 0.48833 0.42418 0.0
C500 C 0.64386 0.51986 0.42424 0.0
C501 C 0.61286 0.52124 0.40407 0.0
C502 C 0.58657 0.53294 0.43038 0.0
C503 C 0.61504 0.5431 0.36903 0.0
C504 C 0.60908 0.48534 0.39379 0.0
C505 C 0.63429 0.46677 0.40574 0.0
C506 C 0.63472 0.43255 0.40288 0.0
C507 C 0.60868 0.41692 0.38748 0.0
C508 C 0.58292 0.43558 0.37464 0.0
C509 C 0.58327 0.47018 0.37737 0.0
H510 H 0.64564 0.44877 0.97916 0.0
H511 H 0.64414 0.38109 0.88516 0.0
H512 H 0.61817 0.42315 0.84701 0.0
H513 H 0.56877 0.48033 0.96337 0.0
H514 H 0.57791 0.52176 0.97747 0.0
H515 H 0.59933 0.48757 0.99685 0.0
H516 H 0.65119 0.51395 0.97472 0.0
H517 H 0.62989 0.54818 0.95509 0.0
H518 H 0.65618 0.52459 0.92611 0.0
H519 H 0.59087 0.47104 0.81917 0.0
H520 H 0.56049 0.52071 0.8044 0.0
H521 H 0.57579 0.55722 0.91697 0.0
C522 C 0.63991 0.44269 0.95057 0.0
C523 C 0.64776 0.41153 0.93521 0.0
C524 C 0.63961 0.40493 0.89754 0.0
C525 C 0.62453 0.42865 0.87556 0.0
C526 C 0.61726 0.45892 0.89155 0.0
C527 C 0.62436 0.466 0.92825 0.0
C528 C 0.61203 0.49982 0.93906 0.0
C529 C 0.58809 0.4972 0.97108 0.0
C530 C 0.63893 0.523 0.94935 0.0
C531 C 0.59661 0.51037 0.90277 0.0
C532 C 0.60032 0.48647 0.8757 0.0
C533 C 0.58781 0.48998 0.8401 0.0
C534 C 0.57053 0.51841 0.83203 0.0
C535 C 0.56555 0.54307 0.85948 0.0
C536 C 0.57924 0.53905 0.89523 0.0
H537 H 0.35999 0.55279 0.48468 0.0
H538 H 0.35127 0.61518 0.38619 0.0
H539 H 0.37818 0.57344 0.34877 0.0
H540 H 0.43818 0.52729 0.46379 0.0
H541 H 0.43342 0.48602 0.48151 0.0
H542 H 0.41033 0.51915 0.50055 0.0
H543 H 0.35981 0.48711 0.48532 0.0
H544 H 0.38276 0.4539 0.46609 0.0
H545 H 0.35303 0.47343 0.43815 0.0
H546 H 0.40699 0.52677 0.32173 0.0
H547 H 0.44003 0.47914 0.30715 0.0
H548 H 0.43491 0.44744 0.42323 0.0
C549 C 0.36363 0.55774 0.45525 0.0
C550 C 0.3525 0.58722 0.43847 0.0
C551 C 0.35815 0.59247 0.39977 0.0
C552 C 0.37379 0.56896 0.37815 0.0
C553 C 0.38425 0.54035 0.39551 0.0
C554 C 0.37979 0.53468 0.4332 0.0
C555 C 0.39551 0.50272 0.4451 0.0
C556 C 0.42086 0.50919 0.47447 0.0
C557 C 0.37133 0.47782 0.45951 0.0
C558 C 0.40968 0.49164 0.40819 0.0
C559 C 0.40242 0.51364 0.38 0.0
C560 C 0.41288 0.50932 0.34352 0.0
C561 C 0.43171 0.48204 0.33557 0.0
C562 C 0.44032 0.45936 0.36401 0.0
C563 C 0.42878 0.46417 0.4008 0.0
H564 H 0.85227 0.96561 0.0212 0.0
H565 H 0.81897 0.91092 0.92534 0.0
H566 H 0.85267 0.94461 0.88388 0.0
H567 H 0.85867 0.04512 0.97556 0.0
H568 H 0.89366 0.05594 0.00043 0.0
H569 H 0.86545 0.02892 0.02179 0.0
H570 H 0.90849 0.98475 0.03169 0.0
H571 H 0.93681 0.01159 0.01039 0.0
H572 H 0.93109 0.97073 0.99216 0.0
H573 H 0.89257 0.98256 0.85366 0.0
H574 H 0.93449 0.02155 0.83703 0.0
H575 H 0.94161 0.05037 0.95354 0.0
C576 C 0.85206 0.96059 0.99149 0.0
C577 C 0.83315 0.93544 0.97651 0.0
C578 C 0.83314 0.93018 0.93738 0.0
C579 C 0.85227 0.94911 0.91368 0.0
C580 C 0.87105 0.97331 0.92957 0.0
C581 C 0.87094 0.97914 0.96758 0.0
C582 C 0.89387 0.00581 0.97801 0.0
C583 C 0.87689 0.03572 0.99494 0.0
C584 C 0.91905 0.99241 0.00462 0.0
C585 C 0.90735 0.01383 0.93996 0.0
C586 C 0.89382 0.995 0.91231 0.0
C587 C 0.90317 0.99756 0.87508 0.0
C588 C 0.92706 0.01979 0.86594 0.0
C589 C 0.94145 0.03917 0.89393 0.0
C590 C 0.93112 0.03615 0.93136 0.0
H591 H 0.15253 0.03524 0.52589 0.0
H592 H 0.18553 0.09182 0.43065 0.0
H593 H 0.14851 0.06227 0.38986 0.0
H594 H 0.14063 0.95843 0.47678 0.0
H595 H 0.10599 0.94824 0.50305 0.0
H596 H 0.13605 0.97283 0.52412 0.0
H597 H 0.09539 0.0185 0.53866 0.0
H598 H 0.06522 0.99413 0.51753 0.0
H599 H 0.0723 0.03546 0.50119 0.0
H600 H 0.10618 0.02834 0.36033 0.0
H601 H 0.06318 0.99119 0.34341 0.0
H602 H 0.05773 0.95715 0.45851 0.0
C603 C 0.15197 0.04147 0.49644 0.0
C604 C 0.17181 0.06593 0.48141 0.0
C605 C 0.17071 0.07298 0.44265 0.0
C606 C 0.14967 0.05645 0.41935 0.0
C607 C 0.13008 0.03287 0.43527 0.0
C608 C 0.1312 0.02524 0.47288 0.0
C609 C 0.10739 0.99928 0.48319 0.0
C610 C 0.12348 0.96783 0.49763 0.0
C611 C 0.08367 0.01265 0.51183 0.0
C612 C 0.09239 0.99369 0.44554 0.0
C613 C 0.10583 0.01328 0.41827 0.0
C614 C 0.09557 0.0128 0.38142 0.0
C615 C 0.07102 0.99164 0.37214 0.0
C616 C 0.05694 0.97117 0.39962 0.0
C617 C 0.06793 0.97236 0.43679 0.0
H618 H 0.17676 0.95796 0.02182 0.0
H619 H 0.17442 0.8813 0.93717 0.0
H620 H 0.14786 0.91941 0.89448 0.0
H621 H 0.10032 0.98192 0.00834 0.0
H622 H 0.10628 0.02517 0.01688 0.0
H623 H 0.13175 0.99521 0.03801 0.0
H624 H 0.1798 0.02386 0.00837 0.0
H625 H 0.15447 0.05417 0.98735 0.0
H626 H 0.18104 0.03072 0.95858 0.0
H627 H 0.11558 0.96236 0.86392 0.0
H628 H 0.07896 0.00656 0.84767 0.0
H629 H 0.09663 0.05388 0.95435 0.0
C630 C 0.17106 0.94908 0.9942 0.0
C631 C 0.17799 0.91627 0.9832 0.0
C632 C 0.17031 0.9063 0.9464 0.0
C633 C 0.15488 0.92779 0.92187 0.0
C634 C 0.147 0.95918 0.93446 0.0
C635 C 0.15482 0.96987 0.96975 0.0
C636 C 0.14015 0.00317 0.97812 0.0
C637 C 0.11833 1.00123 0.01235 0.0
C638 C 0.16538 0.02954 0.98341 0.0
C639 C 0.12195 0.00899 0.94245 0.0
C640 C 0.12689 0.98361 0.91739 0.0
C641 C 0.11179 0.98254 0.88313 0.0
C642 C 0.09088 0.00787 0.87426 0.0
C643 C 0.08472 0.0339 0.89973 0.0
C644 C 0.10082 0.03451 0.93419 0.0
H645 H 0.8271 0.04545 0.521 0.0
H646 H 0.81542 0.11301 0.42779 0.0
H647 H 0.83626 0.07095 0.38515 0.0
H648 H 0.89986 0.02403 0.4973 0.0
H649 H 0.89835 0.98156 0.51195 0.0
H650 H 0.87303 0.01137 0.53349 0.0
H651 H 0.82461 0.97682 0.51584 0.0
H652 H 0.84985 0.94644 0.49468 0.0
H653 H 0.81878 0.96486 0.46789 0.0
H654 H 0.8682 0.02748 0.355 0.0
H655 H 0.90849 0.98664 0.33947 0.0
H656 H 0.90537 0.94941 0.45339 0.0
C657 C 0.82806 0.05115 0.49145 0.0
C658 C 0.81958 0.08279 0.47797 0.0
C659 C 0.82107 0.08895 0.43901 0.0
C660 C 0.83315 0.06516 0.41447 0.0
C661 C 0.8437 0.03532 0.42923 0.0
C662 C 0.84106 0.02812 0.46685 0.0
C663 C 0.85905 0.99706 0.47682 0.0
C664 C 0.88405 0.00394 0.50663 0.0
C665 C 0.83673 0.96967 0.48955 0.0
C666 C 0.87371 0.98897 0.43935 0.0
C667 C 0.86373 0.01076 0.41209 0.0
C668 C 0.87574 0.00993 0.37594 0.0
C669 C 0.89886 0.98666 0.3675 0.0
C670 C 0.91035 0.96472 0.39525 0.0
C671 C 0.89701 0.96557 0.43146 0.0
H672 H 0.37087 0.40254 0.05804 0.0
H673 H 0.28312 0.38631 0.11679 0.0
H674 H 0.31234 0.36884 0.17252 0.0
H675 H 0.41692 0.33869 0.10117 0.0
H676 H 0.45128 0.36401 0.10431 0.0
H677 H 0.42358 0.37089 0.06732 0.0
H678 H 0.41787 0.4319 0.08736 0.0
H679 H 0.44555 0.42525 0.12437 0.0
H680 H 0.40729 0.44142 0.13497 0.0
H681 H 0.35146 0.35387 0.22257 0.0
H682 H 0.39706 0.34803 0.26455 0.0
H683 H 0.45807 0.38233 0.17586 0.0
C684 C 0.35749 0.39566 0.08253 0.0
C685 C 0.3244 0.39582 0.08246 0.0
C686 C 0.30834 0.38574 0.11533 0.0
C687 C 0.32477 0.37599 0.1474 0.0
C688 C 0.35727 0.37694 0.14652 0.0
C689 C 0.37341 0.38694 0.11506 0.0
C690 C 0.40819 0.38859 0.12221 0.0
C691 C 0.42604 0.36408 0.09727 0.0
C692 C 0.42043 0.42389 0.11692 0.0
C693 C 0.4091 0.3782 0.1628 0.0
C694 C 0.37956 0.37082 0.17608 0.0
C695 C 0.37464 0.35977 0.21254 0.0
C696 C 0.40058 0.35648 0.23609 0.0
C697 C 0.43076 0.36503 0.2233 0.0
C698 C 0.43507 0.376 0.18625 0.0
H699 H 0.65711 0.56639 0.58452 0.0
H700 H 0.69598 0.66382 0.56748 0.0
H701 H 0.66346 0.68496 0.61967 0.0
H702 H 0.5794 0.59223 0.60346 0.0
H703 H 0.57239 0.56087 0.6382 0.0
H704 H 0.59988 0.55343 0.60095 0.0
H705 H 0.6429 0.5402 0.64956 0.0
H706 H 0.61553 0.54763 0.68699 0.0
H707 H 0.65181 0.56994 0.68527 0.0
H708 H 0.62467 0.69558 0.672 0.0
H709 H 0.58364 0.69497 0.72057 0.0
H710 H 0.57032 0.59024 0.7023 0.0
C711 C 0.65872 0.59224 0.5916 0.0
C712 C 0.67889 0.61356 0.57176 0.0
C713 C 0.68078 0.64705 0.58244 0.0
C714 C 0.66235 0.65925 0.61193 0.0
C715 C 0.64237 0.63757 0.63052 0.0
C716 C 0.6406 0.60474 0.62082 0.0
C717 C 0.61693 0.58658 0.64458 0.0
C718 C 0.5906 0.57246 0.62034 0.0
C719 C 0.63275 0.55949 0.66799 0.0
C720 C 0.60528 0.61442 0.66896 0.0
C721 C 0.62028 0.64361 0.66055 0.0
C722 C 0.61289 0.67282 0.67891 0.0
C723 C 0.58947 0.6722 0.70644 0.0
C724 C 0.57365 0.64254 0.71538 0.0
C725 C 0.58196 0.6133 0.69638 0.0
H726 H 0.61863 0.32285 0.04513 0.0
H727 H 0.69819 0.38147 0.07761 0.0
H728 H 0.67936 0.38145 0.14323 0.0
H729 H 0.56383 0.363 0.10012 0.0
H730 H 0.54158 0.32701 0.11263 0.0
H731 H 0.56345 0.32772 0.06963 0.0
H732 H 0.59277 0.2746 0.08943 0.0
H733 H 0.57087 0.27366 0.13256 0.0
H734 H 0.61293 0.27341 0.13355 0.0
H735 H 0.64845 0.38151 0.20246 0.0
H736 H 0.6083 0.38059 0.25216 0.0
H737 H 0.54919 0.32 0.18259 0.0
C738 C 0.63243 0.33479 0.06643 0.0
C739 C 0.66006 0.35172 0.05688 0.0
C740 C 0.67725 0.36798 0.08486 0.0
C741 C 0.66671 0.36805 0.12205 0.0
C742 C 0.63907 0.35155 0.13066 0.0
C743 C 0.62228 0.33494 0.10374 0.0
C744 C 0.59212 0.32133 0.11982 0.0
C745 C 0.56357 0.33563 0.09934 0.0
C746 C 0.59219 0.2835 0.11878 0.0
C747 C 0.59401 0.33387 0.15963 0.0
C748 C 0.62142 0.35103 0.16531 0.0
C749 C 0.62725 0.36752 0.19864 0.0
C750 C 0.60431 0.36692 0.22665 0.0
C751 C 0.57597 0.34976 0.22138 0.0
C752 C 0.57106 0.33246 0.18772 0.0
H753 H 0.34999 0.604 0.57386 0.0
H754 H 0.34352 0.70825 0.54728 0.0
H755 H 0.3683 0.72153 0.60725 0.0
H756 H 0.34028 0.61081 0.67638 0.0
H757 H 0.36894 0.57918 0.68525 0.0
H758 H 0.34589 0.57792 0.64324 0.0
H759 H 0.39646 0.57598 0.60328 0.0
H760 H 0.41961 0.57726 0.64507 0.0
H761 H 0.42536 0.60772 0.60899 0.0
H762 H 0.39887 0.72352 0.66682 0.0
H763 H 0.43421 0.71391 0.72001 0.0
H764 H 0.42334 0.60833 0.70608 0.0
C765 C 0.3534 0.62968 0.58073 0.0
C766 C 0.34438 0.65501 0.55573 0.0
C767 C 0.34935 0.68828 0.56612 0.0
C768 C 0.36363 0.69614 0.60015 0.0
C769 C 0.37293 0.67051 0.62358 0.0
C770 C 0.368 0.63794 0.61433 0.0
C771 C 0.3829 0.61496 0.64256 0.0
C772 C 0.35801 0.59451 0.66308 0.0
C773 C 0.40754 0.59269 0.62385 0.0
C774 C 0.39782 0.63971 0.6685 0.0
C775 C 0.39133 0.67162 0.65745 0.0
C776 C 0.40384 0.69864 0.67598 0.0
C777 C 0.42394 0.6929 0.7062 0.0
C778 C 0.43166 0.66035 0.71737 0.0
C779 C 0.41785 0.63353 0.69852 0.0
H780 H 0.86661 0.86091 0.07914 0.0
H781 H 0.78115 0.89701 0.1303 0.0
H782 H 0.80494 0.89124 0.19266 0.0
H783 H 0.88811 0.80207 0.15515 0.0
H784 H 0.9291 0.81108 0.15036 0.0
H785 H 0.90389 0.8136 0.11022 0.0
H786 H 0.92157 0.87376 0.0988 0.0
H787 H 0.94665 0.8715 0.13892 0.0
H788 H 0.91749 0.9035 0.13585 0.0
H789 H 0.84015 0.88984 0.24786 0.0
H790 H 0.88388 0.88951 0.29294 0.0
H791 H 0.94611 0.85263 0.2069 0.0
C792 C 0.85274 0.86699 0.10355 0.0
C793 C 0.82197 0.87921 0.09993 0.0
C794 C 0.80456 0.88705 0.13247 0.0
C795 C 0.81791 0.88397 0.16799 0.0
C796 C 0.84857 0.87266 0.17051 0.0
C797 C 0.86567 0.86388 0.13923 0.0
C798 C 0.89885 0.85461 0.14942 0.0
C799 C 0.90536 0.81817 0.14078 0.0
C800 C 0.92252 0.8772 0.12958 0.0
C801 C 0.89807 0.86075 0.19113 0.0
C802 C 0.86876 0.87097 0.20275 0.0
C803 C 0.86297 0.88106 0.23935 0.0
C804 C 0.88783 0.88089 0.26467 0.0
C805 C 0.91785 0.8704 0.25326 0.0
C806 C 0.923 0.85984 0.21628 0.0
H807 H 0.17014 0.07215 0.61436 0.0
H808 H 0.20358 0.17217 0.60187 0.0
H809 H 0.17661 0.18761 0.66086 0.0
H810 H 0.09576 0.09192 0.64423 0.0
H811 H 0.09213 0.05818 0.67676 0.0
H812 H 0.11748 0.05438 0.63683 0.0
H813 H 0.16401 0.04048 0.68031 0.0
H814 H 0.13871 0.04406 0.72047 0.0
H815 H 0.17385 0.06824 0.71766 0.0
H816 H 0.14016 0.1931 0.71695 0.0
H817 H 0.09971 0.18784 0.7661 0.0
H818 H 0.09127 0.08371 0.741 0.0
C819 C 0.17223 0.09719 0.62441 0.0
C820 C 0.18881 0.12106 0.60369 0.0
C821 C 0.19116 0.15352 0.61762 0.0
C822 C 0.17587 0.16246 0.65098 0.0
C823 C 0.15881 0.13847 0.67014 0.0
C824 C 0.15731 0.10638 0.6575 0.0
C825 C 0.13593 0.08563 0.68153 0.0
C826 C 0.10872 0.07174 0.65846 0.0
C827 C 0.15423 0.05797 0.70116 0.0
C828 C 0.12476 0.11123 0.70911 0.0
C829 C 0.13832 0.14152 0.70238 0.0
C830 C 0.12982 0.16936 0.72283 0.0
C831 C 0.10673 0.16614 0.75062 0.0
C832 C 0.09238 0.13531 0.75764 0.0
C833 C 0.10202 0.10753 0.73684 0.0
H834 H 0.14715 0.82548 0.11191 0.0
H835 H 0.19182 0.92061 0.12222 0.0
H836 H 0.16321 0.93057 0.18118 0.0
H837 H 0.07434 0.85067 0.13909 0.0
H838 H 0.06377 0.81426 0.16506 0.0
H839 H 0.0918 0.81149 0.12765 0.0
H840 H 0.13232 0.7857 0.17272 0.0
H841 H 0.10423 0.78799 0.2103 0.0
H842 H 0.14202 0.80678 0.2154 0.0
H843 H 0.1246 0.9341 0.23227 0.0
H844 H 0.07957 0.93018 0.27498 0.0
H845 H 0.05947 0.83234 0.23303 0.0
C846 C 0.15172 0.84779 0.12745 0.0
C847 C 0.17186 0.87219 0.11296 0.0
C848 C 0.17658 0.90163 0.13317 0.0
C849 C 0.16052 0.90742 0.16664 0.0
C850 C 0.13996 0.88343 0.17957 0.0
C851 C 0.13572 0.85402 0.16092 0.0
C852 C 0.10989 0.83391 0.1789 0.0
C853 C 0.08339 0.82721 0.15101 0.0
C854 C 0.1229 0.80168 0.19531 0.0
C855 C 0.09946 0.85724 0.20953 0.0
C856 C 0.11741 0.88547 0.20959 0.0
C857 C 0.11076 0.91188 0.23304 0.0
C858 C 0.08497 0.90951 0.25696 0.0
C859 C 0.06612 0.88092 0.25734 0.0
C860 C 0.07381 0.85424 0.23373 0.0
H861 H 0.83236 0.15718 0.63336 0.0
H862 H 0.89809 0.12774 0.54693 0.0
H863 H 0.94047 0.12688 0.59303 0.0
H864 H 0.88798 0.20985 0.68592 0.0
H865 H 0.87261 0.19764 0.73082 0.0
H866 H 0.84743 0.1988 0.69057 0.0
H867 H 0.83257 0.13784 0.70209 0.0
H868 H 0.8578 0.13646 0.74219 0.0
H869 H 0.86297 0.10712 0.70492 0.0
H870 H 0.97414 0.12333 0.64749 0.0
H871 H 0.99931 0.12027 0.70918 0.0
H872 H 0.91391 0.15434 0.76217 0.0
C873 C 0.85582 0.15114 0.62424 0.0
C874 C 0.862 0.14213 0.58678 0.0
C875 C 0.89286 0.13415 0.57567 0.0
C876 C 0.9171 0.13382 0.60155 0.0
C877 C 0.91022 0.1419 0.63839 0.0
C878 C 0.88052 0.15075 0.6499 0.0
C879 C 0.87966 0.15684 0.69179 0.0
C880 C 0.87144 0.19294 0.70027 0.0
C881 C 0.8569 0.13315 0.71139 0.0
C882 C 0.91329 0.14913 0.70191 0.0
C883 C 0.93035 0.14069 0.67044 0.0
C884 C 0.96128 0.1304 0.67232 0.0
C885 C 0.97528 0.12857 0.70737 0.0
C886 C 0.95848 0.13725 0.73997 0.0
C887 C 0.92721 0.14805 0.73737 0.0
loop_
_geom_bond_atom_site_label_1
_geom_bond_atom_site_label_2
_geom_bond_distance
_geom_bond_site_symmetry_2
_ccdc_geom_bond_type
H0 C1 0.949 . S
C1 H0 0.949 . S
C1 C2 1.395 . S
C1 C3 1.391 1_556 S
C2 C1 1.395 . S
C2 C5 1.390 1_556 S
C3 C1 1.391 1_554 S
C3 C7 1.387 . S
C3 C8 1.491 . S
H4 C5 0.950 . S
C5 C2 1.390 1_554 S
C5 H4 0.950 . S
C5 C6 1.378 . S
C6 C5 1.378 . S
C6 C7 1.409 . S
C7 C3 1.387 . S
C7 C6 1.409 . S
C7 H9 0.951 . S
C8 C3 1.491 . S
C8 C10 1.382 1_554 S
C8 C12 1.404 . S
H9 C7 0.951 . S
C10 C8 1.382 1_556 S
C10 C11 1.390 . S
C10 H15 0.949 . S
C11 C10 1.390 . S
C11 C16 1.399 1_556 S
C12 C8 1.404 . S
C12 H13 0.950 . S
C12 C14 1.375 . S
H13 C12 0.950 . S
C14 C12 1.375 . S
C14 C16 1.382 . S
C14 H18 0.950 . S
H15 C10 0.949 . S
C16 C11 1.399 1_554 S
C16 C14 1.382 . S
C16 H17 0.952 . S
H17 C16 0.952 . S
H18 C14 0.950 . S
H19 C20 0.949 . S
C20 H19 0.949 . S
C20 C21 1.395 . S
C20 C22 1.391 . S
C21 C20 1.395 . S
C21 C24 1.390 . S
C22 C20 1.391 . S
C22 C26 1.387 . S
C22 C27 1.491 . S
H23 C24 0.950 . S
C24 C21 1.390 . S
C24 H23 0.950 . S
C24 C25 1.378 . S
C25 C24 1.378 . S
C25 C26 1.409 . S
C26 C22 1.387 . S
C26 C25 1.409 . S
C26 H28 0.951 . S
C27 C22 1.491 . S
C27 C29 1.382 . S
C27 C31 1.404 . S
H28 C26 0.951 . S
C29 C27 1.382 . S
C29 C30 1.390 . S
C29 H34 0.949 . S
C30 C29 1.390 . S
C30 C35 1.399 . S
C31 C27 1.404 . S
C31 H32 0.950 . S
C31 C33 1.375 . S
H32 C31 0.950 . S
C33 C31 1.375 . S
C33 C35 1.382 . S
C33 H37 0.950 . S
H34 C29 0.949 . S
C35 C30 1.399 . S
C35 C33 1.382 . S
C35 H36 0.952 . S
H36 C35 0.952 . S
H37 C33 0.950 . S
H38 C39 0.949 . S
C39 H38 0.949 . S
C39 C40 1.395 . S
C39 C41 1.391 1_556 S
C40 C39 1.395 . S
C40 C43 1.390 1_556 S
C41 C39 1.391 1_554 S
C41 C45 1.387 . S
C41 C46 1.491 . S
H42 C43 0.950 . S
C43 C40 1.390 1_554 S
C43 H42 0.950 . S
C43 C44 1.378 . S
C44 C43 1.378 . S
C44 C45 1.409 . S
C45 C41 1.387 . S
C45 C44 1.409 . S
C45 H47 0.951 . S
C46 C41 1.491 . S
C46 C48 1.382 1_554 S
C46 C50 1.404 . S
H47 C45 0.951 . S
C48 C46 1.382 1_556 S
C48 C49 1.390 . S
C48 H53 0.949 . S
C49 C48 1.390 . S
C49 C54 1.399 . S
C50 C46 1.404 . S
C50 H51 0.950 . S
C50 C52 1.375 . S
H51 C50 0.950 . S
C52 C50 1.375 . S
C52 C54 1.382 1_554 S
C52 H56 0.950 . S
H53 C48 0.949 . S
C54 C49 1.399 . S
C54 C52 1.382 1_556 S
C54 H55 0.952 . S
H55 C54 0.952 . S
H56 C52 0.950 . S
H57 C58 0.949 . S
C58 H57 0.949 . S
C58 C59 1.395 . S
C58 C60 1.391 . S
C59 C58 1.395 . S
C59 C62 1.390 . S
C60 C58 1.391 . S
C60 C64 1.387 . S
C60 C65 1.491 . S
H61 C62 0.950 . S
C62 C59 1.390 . S
C62 H61 0.950 . S
C62 C63 1.378 . S
C63 C62 1.378 . S
C63 C64 1.409 . S
C64 C60 1.387 . S
C64 C63 1.409 . S
C64 H66 0.951 . S
C65 C60 1.491 . S
C65 C67 1.382 . S
C65 C69 1.404 . S
H66 C64 0.951 . S
C67 C65 1.382 . S
C67 C68 1.390 . S
C67 H72 0.949 . S
C68 C67 1.390 . S
C68 C73 1.399 . S
C69 C65 1.404 . S
C69 H70 0.950 . S
C69 C71 1.375 . S
H70 C69 0.950 . S
C71 C69 1.375 . S
C71 C73 1.382 . S
C71 H75 0.950 . S
H72 C67 0.949 . S
C73 C68 1.399 . S
C73 C71 1.382 . S
C73 H74 0.952 . S
H74 C73 0.952 . S
H75 C71 0.950 . S
H76 C77 0.949 . S
C77 H76 0.949 . S
C77 C78 1.395 . S
C77 C79 1.391 1_556 S
C78 C77 1.395 . S
C78 C81 1.390 1_556 S
C79 C77 1.391 1_554 S
C79 C83 1.387 . S
C79 C84 1.491 . S
H80 C81 0.950 . S
C81 C78 1.390 1_554 S
C81 H80 0.950 . S
C81 C82 1.378 . S
C82 C81 1.378 . S
C82 C83 1.409 . S
C83 C79 1.387 . S
C83 C82 1.409 . S
C83 H85 0.951 . S
C84 C79 1.491 . S
C84 C86 1.382 1_554 S
C84 C88 1.404 . S
H85 C83 0.951 . S
C86 C84 1.382 1_556 S
C86 C87 1.390 . S
C86 H91 0.949 . S
C87 C86 1.390 . S
C87 C92 1.399 1_556 S
C88 C84 1.404 . S
C88 H89 0.950 . S
C88 C90 1.375 . S
H89 C88 0.950 . S
C90 C88 1.375 . S
C90 C92 1.382 . S
C90 H94 0.950 . S
H91 C86 0.949 . S
C92 C87 1.399 1_554 S
C92 C90 1.382 . S
C92 H93 0.952 . S
H93 C92 0.952 . S
H94 C90 0.950 . S
H95 C96 0.949 . S
C96 H95 0.949 . S
C96 C97 1.395 . S
C96 C98 1.391 . S
C97 C96 1.395 . S
C97 C100 1.390 . S
C98 C96 1.391 . S
C98 C102 1.387 . S
C98 C103 1.491 . S
H99 C100 0.950 . S
C100 C97 1.390 . S
C100 H99 0.950 . S
C100 C101 1.378 . S
C101 C100 1.378 . S
C101 C102 1.409 . S
C102 C98 1.387 . S
C102 C101 1.409 . S
C102 H104 0.951 . S
C103 C98 1.491 . S
C103 C105 1.382 . S
C103 C107 1.404 . S
H104 C102 0.951 . S
C105 C103 1.382 . S
C105 C106 1.390 . S
C105 H110 0.949 . S
C106 C105 1.390 . S
C106 C111 1.399 . S
C107 C103 1.404 . S
C107 H108 0.950 . S
C107 C109 1.375 . S
H108 C107 0.950 . S
C109 C107 1.375 . S
C109 C111 1.382 . S
C109 H113 0.950 . S
H110 C105 0.949 . S
C111 C106 1.399 . S
C111 C109 1.382 . S
C111 H112 0.952 . S
H112 C111 0.952 . S
H113 C109 0.950 . S
H114 C115 0.949 . S
C115 H114 0.949 . S
C115 C116 1.395 . S
C115 C117 1.391 1_556 S
C116 C115 1.395 . S
C116 C119 1.390 1_556 S
C117 C115 1.391 1_554 S
C117 C121 1.387 . S
C117 C122 1.491 . S
H118 C119 0.950 . S
C119 C116 1.390 1_554 S
C119 H118 0.950 . S
C119 C120 1.378 . S
C120 C119 1.378 . S
C120 C121 1.409 . S
C121 C117 1.387 . S
C121 C120 1.409 . S
C121 H123 0.951 . S
C122 C117 1.491 . S
C122 C124 1.382 1_554 S
C122 C126 1.404 . S
H123 C121 0.951 . S
C124 C122 1.382 1_556 S
C124 C125 1.390 . S
C124 H129 0.949 . S
C125 C124 1.390 . S
C125 C130 1.399 . S
C126 C122 1.404 . S
C126 H127 0.950 . S
C126 C128 1.375 . S
H127 C126 0.950 . S
C128 C126 1.375 . S
C128 C130 1.382 1_554 S
C128 H132 0.950 . S
H129 C124 0.949 . S
C130 C125 1.399 . S
C130 C128 1.382 1_556 S
C130 H131 0.952 . S
H131 C130 0.952 . S
H132 C128 0.950 . S
H133 C134 0.949 . S
C134 H133 0.949 . S
C134 C135 1.395 . S
C134 C136 1.391 . S
C135 C134 1.395 . S
C135 C138 1.390 . S
C136 C134 1.391 . S
C136 C140 1.387 . S
C136 C141 1.491 . S
H137 C138 0.950 . S
C138 C135 1.390 . S
C138 H137 0.950 . S
C138 C139 1.378 . S
C139 C138 1.378 . S
C139 C140 1.409 . S
C140 C136 1.387 . S
C140 C139 1.409 . S
C140 H142 0.951 . S
C141 C136 1.491 . S
C141 C143 1.382 . S
C141 C145 1.404 . S
H142 C140 0.951 . S
C143 C141 1.382 . S
C143 C144 1.390 . S
C143 H148 0.949 . S
C144 C143 1.390 . S
C144 C149 1.399 . S
C145 C141 1.404 . S
C145 H146 0.950 . S
C145 C147 1.375 . S
H146 C145 0.950 . S
C147 C145 1.375 . S
C147 C149 1.382 . S
C147 H151 0.950 . S
H148 C143 0.949 . S
C149 C144 1.399 . S
C149 C147 1.382 . S
C149 H150 0.952 . S
H150 C149 0.952 . S
H151 C147 0.950 . S
Sc152 O155 2.025 . S
Sc152 O162 2.105 1_455 S
Sc152 O165 2.105 . S
Sc152 O168 2.105 . S
Sc152 O171 2.105 1_455 S
Sc153 O155 2.025 . S
Sc153 O163 2.105 1_455 S
Sc153 O167 2.105 . S
Sc153 O169 2.105 . S
Sc153 O173 2.105 1_455 S
Sc154 O155 2.025 . S
Sc154 O164 2.105 1_455 S
Sc154 O166 2.105 . S
Sc154 O170 2.105 . S
Sc154 O172 2.105 1_455 S
O155 Sc152 2.025 . S
O155 Sc153 2.025 . S
O155 Sc154 2.025 . S
C156 O162 1.268 . S
C156 O172 1.268 . S
C157 O163 1.268 . S
C157 O171 1.268 . S
C158 O164 1.268 . S
C158 O173 1.268 . S
C159 O165 1.268 . S
C159 O169 1.268 . S
C160 O166 1.268 . S
C160 O168 1.268 . S
C161 O167 1.268 . S
C161 O170 1.268 . S
O162 Sc152 2.105 1_655 S
O162 C156 1.268 . S
O163 Sc153 2.105 1_655 S
O163 C157 1.268 . S
O164 Sc154 2.105 1_655 S
O164 C158 1.268 . S
O165 Sc152 2.105 . S
O165 C159 1.268 . S
O166 Sc154 2.105 . S
O166 C160 1.268 . S
O167 Sc153 2.105 . S
O167 C161 1.268 . S
O168 Sc152 2.105 . S
O168 C160 1.268 . S
O169 Sc153 2.105 . S
O169 C159 1.268 . S
O170 Sc154 2.105 . S
O170 C161 1.268 . S
O171 Sc152 2.105 1_655 S
O171 C157 1.268 . S
O172 Sc154 2.105 1_655 S
O172 C156 1.268 . S
O173 Sc153 2.105 1_655 S
O173 C158 1.268 . S
Sc174 O177 2.025 . S
Sc174 O184 2.105 . S
Sc174 O187 2.105 1_455 S
Sc174 O190 2.105 1_455 S
Sc174 O193 2.105 . S
Sc175 O177 2.025 . S
Sc175 O185 2.105 . S
Sc175 O189 2.105 1_455 S
Sc175 O191 2.105 1_455 S
Sc175 O195 2.105 . S
Sc176 O177 2.025 . S
Sc176 O186 2.105 . S
Sc176 O188 2.105 1_455 S
Sc176 O192 2.105 1_455 S
Sc176 O194 2.105 . S
O177 Sc174 2.025 . S
O177 Sc175 2.025 . S
O177 Sc176 2.025 . S
C178 O184 1.268 . S
C178 O194 1.268 . S
C179 O185 1.268 . S
C179 O193 1.268 . S
C180 O186 1.268 . S
C180 O195 1.268 . S
C181 O187 1.268 . S
C181 O191 1.268 . S
C182 O188 1.268 . S
C182 O190 1.268 . S
C183 O189 1.268 . S
C183 O192 1.268 . S
O184 Sc174 2.105 . S
O184 C178 1.268 . S
O185 Sc175 2.105 . S
O185 C179 1.268 . S
O186 Sc176 2.105 . S
O186 C180 1.268 . S
O187 Sc174 2.105 1_655 S
O187 C181 1.268 . S
O188 Sc176 2.105 1_655 S
O188 C182 1.268 . S
O189 Sc175 2.105 1_655 S
O189 C183 1.268 . S
O190 Sc174 2.105 1_655 S
O190 C182 1.268 . S
O191 Sc175 2.105 1_655 S
O191 C181 1.268 . S
O192 Sc176 2.105 1_655 S
O192 C183 1.268 . S
O193 Sc174 2.105 . S
O193 C179 1.268 . S
O194 Sc176 2.105 . S
O194 C178 1.268 . S
O195 Sc175 2.105 . S
O195 C180 1.268 . S
Sc196 O199 2.025 . S
Sc196 O206 2.105 . S
Sc196 O209 2.105 . S
Sc196 O212 2.105 . S
Sc196 O215 2.105 . S
Sc197 O199 2.025 . S
Sc197 O207 2.105 . S
Sc197 O211 2.105 . S
Sc197 O213 2.105 . S
Sc197 O217 2.105 . S
Sc198 O199 2.025 . S
Sc198 O208 2.105 . S
Sc198 O210 2.105 . S
Sc198 O214 2.105 . S
Sc198 O216 2.105 . S
O199 Sc196 2.025 . S
O199 Sc197 2.025 . S
O199 Sc198 2.025 . S
C200 O206 1.268 . S
C200 O216 1.268 . S
C201 O207 1.268 . S
C201 O215 1.268 . S
C202 O208 1.268 . S
C202 O217 1.268 . S
C203 O209 1.268 . S
C203 O213 1.268 . S
C204 O210 1.268 . S
C204 O212 1.268 . S
C205 O211 1.268 . S
C205 O214 1.268 . S
O206 Sc196 2.105 . S
O206 C200 1.268 . S
O207 Sc197 2.105 . S
O207 C201 1.268 . S
O208 Sc198 2.105 . S
O208 C202 1.268 . S
O209 Sc196 2.105 . S
O209 C203 1.268 . S
O210 Sc198 2.105 . S
O210 C204 1.268 . S
O211 Sc197 2.105 . S
O211 C205 1.268 . S
O212 Sc196 2.105 . S
O212 C204 1.268 . S
O213 Sc197 2.105 . S
O213 C203 1.268 . S
O214 Sc198 2.105 . S
O214 C205 1.268 . S
O215 Sc196 2.105 . S
O215 C201 1.268 . S
O216 Sc198 2.105 . S
O216 C200 1.268 . S
O217 Sc197 2.105 . S
O217 C202 1.268 . S
Sc218 O221 2.025 . S
Sc218 O228 2.105 . S
Sc218 O231 2.105 . S
Sc218 O234 2.105 . S
Sc218 O237 2.105 . S
Sc219 O221 2.025 . S
Sc219 O229 2.105 . S
Sc219 O233 2.105 . S
Sc219 O235 2.105 . S
Sc219 O239 2.105 . S
Sc220 O221 2.025 . S
Sc220 O230 2.105 . S
Sc220 O232 2.105 . S
Sc220 O236 2.105 . S
Sc220 O238 2.105 . S
O221 Sc218 2.025 . S
O221 Sc219 2.025 . S
O221 Sc220 2.025 . S
C222 O228 1.268 . S
C222 O238 1.268 . S
C223 O229 1.268 . S
C223 O237 1.268 . S
C224 O230 1.268 . S
C224 O239 1.268 . S
C225 O231 1.268 . S
C225 O235 1.268 . S
C226 O232 1.268 . S
C226 O234 1.268 . S
C227 O233 1.268 . S
C227 O236 1.268 . S
O228 Sc218 2.105 . S
O228 C222 1.268 . S
O229 Sc219 2.105 . S
O229 C223 1.268 . S
O230 Sc220 2.105 . S
O230 C224 1.268 . S
O231 Sc218 2.105 . S
O231 C225 1.268 . S
O232 Sc220 2.105 . S
O232 C226 1.268 . S
O233 Sc219 2.105 . S
O233 C227 1.268 . S
O234 Sc218 2.105 . S
O234 C226 1.268 . S
O235 Sc219 2.105 . S
O235 C225 1.268 . S
O236 Sc220 2.105 . S
O236 C227 1.268 . S
O237 Sc218 2.105 . S
O237 C223 1.268 . S
O238 Sc220 2.105 . S
O238 C222 1.268 . S
O239 Sc219 2.105 . S
O239 C224 1.268 . S
H240 C252 0.930 . S
H241 C254 0.930 . S
H242 C255 0.930 . S
H243 C259 0.959 . S
H244 C259 0.959 . S
H245 C259 0.961 . S
H246 C260 0.960 1_554 S
H247 C260 0.956 1_554 S
H248 C260 0.959 . S
H249 C263 0.929 . S
H250 C264 0.931 . S
H251 C266 0.930 . S
C252 H240 0.930 . S
C252 C253 1.399 . S
C252 C257 1.399 . S
C253 C252 1.399 . S
C253 C254 1.376 . S
C254 H241 0.930 . S
C254 C253 1.376 . S
C254 C255 1.388 . S
C255 H242 0.930 . S
C255 C254 1.388 . S
C255 C256 1.390 . S
C256 C255 1.390 . S
C256 C257 1.394 . S
C256 C262 1.465 . S
C257 C252 1.399 . S
C257 C256 1.394 . S
C257 C258 1.516 . S
C258 C257 1.516 . S
C258 C259 1.502 . S
C258 C260 1.561 . S
C258 C261 1.526 . S
C259 H243 0.959 . S
C259 H244 0.959 . S
C259 H245 0.961 . S
C259 C258 1.502 . S
C260 H246 0.960 1_556 S
C260 H247 0.956 1_556 S
C260 H248 0.959 . S
C260 C258 1.561 . S
C261 C258 1.526 . S
C261 C262 1.396 . S
C261 C266 1.390 . S
C262 C256 1.465 . S
C262 C261 1.396 . S
C262 C263 1.399 . S
C263 H249 0.929 . S
C263 C262 1.399 . S
C263 C264 1.385 . S
C264 H250 0.931 . S
C264 C263 1.385 . S
C264 C265 1.389 . S
C265 C264 1.389 . S
C265 C266 1.387 . S
C266 H251 0.930 . S
C266 C261 1.390 . S
C266 C265 1.387 . S
H267 C279 0.930 . S
H268 C281 0.930 . S
H269 C282 0.930 . S
H270 C286 0.959 . S
H271 C286 0.959 . S
H272 C286 0.961 . S
H273 C287 0.960 . S
H274 C287 0.961 . S
H275 C287 0.959 . S
H276 C290 0.929 . S
H277 C291 0.931 . S
H278 C293 0.930 . S
C279 H267 0.930 . S
C279 C280 1.399 . S
C279 C284 1.399 . S
C280 C279 1.399 . S
C280 C281 1.376 . S
C281 H268 0.930 . S
C281 C280 1.376 . S
C281 C282 1.388 . S
C282 H269 0.930 . S
C282 C281 1.388 . S
C282 C283 1.390 . S
C283 C282 1.390 . S
C283 C284 1.394 . S
C283 C289 1.465 . S
C284 C279 1.399 . S
C284 C283 1.394 . S
C284 C285 1.516 . S
C285 C284 1.516 . S
C285 C286 1.502 . S
C285 C287 1.561 . S
C285 C288 1.526 . S
C286 H270 0.959 . S
C286 H271 0.959 . S
C286 H272 0.961 . S
C286 C285 1.502 . S
C287 H273 0.960 . S
C287 H274 0.961 . S
C287 H275 0.959 . S
C287 C285 1.561 . S
C288 C285 1.526 . S
C288 C289 1.396 . S
C288 C293 1.390 . S
C289 C283 1.465 . S
C289 C288 1.396 . S
C289 C290 1.399 . S
C290 H276 0.929 . S
C290 C289 1.399 . S
C290 C291 1.385 . S
C291 H277 0.931 . S
C291 C290 1.385 . S
C291 C292 1.389 . S
C292 C291 1.389 . S
C292 C293 1.387 . S
C293 H278 0.930 . S
C293 C288 1.390 . S
C293 C292 1.387 . S
H294 C306 0.930 . S
H295 C308 0.930 1_554 S
H296 C309 0.930 . S
H297 C313 0.959 . S
H298 C313 0.959 . S
H299 C313 0.961 . S
H300 C314 0.960 . S
H301 C314 0.961 . S
H302 C314 0.959 . S
H303 C317 0.929 . S
H304 C318 0.931 . S
H305 C320 0.930 . S
C306 H294 0.930 . S
C306 C307 1.399 . S
C306 C311 1.399 . S
C307 C306 1.399 . S
C307 C308 1.376 . S
C308 H295 0.930 1_556 S
C308 C307 1.376 . S
C308 C309 1.388 . S
C309 H296 0.930 . S
C309 C308 1.388 . S
C309 C310 1.390 . S
C310 C309 1.390 . S
C310 C311 1.394 . S
C310 C316 1.465 . S
C311 C306 1.399 . S
C311 C310 1.394 . S
C311 C312 1.516 . S
C312 C311 1.516 . S
C312 C313 1.502 . S
C312 C314 1.561 . S
C312 C315 1.526 . S
C313 H297 0.959 . S
C313 H298 0.959 . S
C313 H299 0.961 . S
C313 C312 1.502 . S
C314 H300 0.960 . S
C314 H301 0.961 . S
C314 H302 0.959 . S
C314 C312 1.561 . S
C315 C312 1.526 . S
C315 C316 1.396 . S
C315 C320 1.390 . S
C316 C310 1.465 . S
C316 C315 1.396 . S
C316 C317 1.399 . S
C317 H303 0.929 . S
C317 C316 1.399 . S
C317 C318 1.385 . S
C318 H304 0.931 . S
C318 C317 1.385 . S
C318 C319 1.389 . S
C319 C318 1.389 . S
C319 C320 1.387 . S
C320 H305 0.930 . S
C320 C315 1.390 . S
C320 C319 1.387 . S
H321 C333 0.930 . S
H322 C335 0.930 . S
H323 C336 0.930 . S
H324 C340 0.959 . S
H325 C340 0.959 . S
H326 C340 0.961 . S
H327 C341 0.960 . S
H328 C341 0.961 . S
H329 C341 0.959 . S
H330 C344 0.929 . S
H331 C345 0.931 . S
H332 C347 0.930 . S
C333 H321 0.930 . S
C333 C334 1.399 . S
C333 C338 1.399 . S
C334 C333 1.399 . S
C334 C335 1.376 . S
C335 H322 0.930 . S
C335 C334 1.376 . S
C335 C336 1.388 . S
C336 H323 0.930 . S
C336 C335 1.388 . S
C336 C337 1.390 . S
C337 C336 1.390 . S
C337 C338 1.394 . S
C337 C343 1.465 . S
C338 C333 1.399 . S
C338 C337 1.394 . S
C338 C339 1.516 . S
C339 C338 1.516 . S
C339 C340 1.502 . S
C339 C341 1.561 . S
C339 C342 1.526 . S
C340 H324 0.959 . S
C340 H325 0.959 . S
C340 H326 0.961 . S
C340 C339 1.502 . S
C341 H327 0.960 . S
C341 H328 0.961 . S
C341 H329 0.959 . S
C341 C339 1.561 . S
C342 C339 1.526 . S
C342 C343 1.396 . S
C342 C347 1.390 . S
C343 C337 1.465 . S
C343 C342 1.396 . S
C343 C344 1.399 . S
C344 H330 0.929 . S
C344 C343 1.399 . S
C344 C345 1.385 . S
C345 H331 0.931 . S
C345 C344 1.385 . S
C345 C346 1.389 . S
C346 C345 1.389 . S
C346 C347 1.387 . S
C347 H332 0.930 . S
C347 C342 1.390 . S
C347 C346 1.387 . S
H348 C360 0.930 . S
H349 C362 0.930 . S
H350 C363 0.930 . S
H351 C367 0.959 . S
H352 C367 0.959 . S
H353 C367 0.961 . S
H354 C368 0.960 1_554 S
H355 C368 0.961 . S
H356 C368 0.959 . S
H357 C371 0.929 . S
H358 C372 0.931 . S
H359 C374 0.930 . S
C360 H348 0.930 . S
C360 C361 1.399 . S
C360 C365 1.399 . S
C361 C360 1.399 . S
C361 C362 1.376 . S
C362 H349 0.930 . S
C362 C361 1.376 . S
C362 C363 1.388 . S
C363 H350 0.930 . S
C363 C362 1.388 . S
C363 C364 1.390 . S
C364 C363 1.390 . S
C364 C365 1.394 . S
C364 C370 1.465 . S
C365 C360 1.399 . S
C365 C364 1.394 . S
C365 C366 1.516 . S
C366 C365 1.516 . S
C366 C367 1.502 . S
C366 C368 1.561 . S
C366 C369 1.526 . S
C367 H351 0.959 . S
C367 H352 0.959 . S
C367 H353 0.961 . S
C367 C366 1.502 . S
C368 H354 0.960 1_556 S
C368 H355 0.961 . S
C368 H356 0.959 . S
C368 C366 1.561 . S
C369 C366 1.526 . S
C369 C370 1.396 . S
C369 C374 1.390 . S
C370 C364 1.465 . S
C370 C369 1.396 . S
C370 C371 1.399 . S
C371 H357 0.929 . S
C371 C370 1.399 . S
C371 C372 1.385 . S
C372 H358 0.931 . S
C372 C371 1.385 . S
C372 C373 1.389 . S
C373 C372 1.389 . S
C373 C374 1.387 . S
C374 H359 0.930 . S
C374 C369 1.390 . S
C374 C373 1.387 . S
H375 C387 0.930 . S
H376 C389 0.930 . S
H377 C390 0.930 . S
H378 C394 0.959 . S
H379 C394 0.959 . S
H380 C394 0.961 . S
H381 C395 0.960 . S
H382 C395 0.961 . S
H383 C395 0.959 . S
H384 C398 0.929 . S
H385 C399 0.931 . S
H386 C401 0.930 . S
C387 H375 0.930 . S
C387 C388 1.399 . S
C387 C392 1.399 . S
C388 C387 1.399 . S
C388 C389 1.376 . S
C389 H376 0.930 . S
C389 C388 1.376 . S
C389 C390 1.388 . S
C390 H377 0.930 . S
C390 C389 1.388 . S
C390 C391 1.390 . S
C391 C390 1.390 . S
C391 C392 1.394 . S
C391 C397 1.465 . S
C392 C387 1.399 . S
C392 C391 1.394 . S
C392 C393 1.516 . S
C393 C392 1.516 . S
C393 C394 1.502 . S
C393 C395 1.561 . S
C393 C396 1.526 . S
C394 H378 0.959 . S
C394 H379 0.959 . S
C394 H380 0.961 . S
C394 C393 1.502 . S
C395 H381 0.960 . S
C395 H382 0.961 . S
C395 H383 0.959 . S
C395 C393 1.561 . S
C396 C393 1.526 . S
C396 C397 1.396 . S
C396 C401 1.390 . S
C397 C391 1.465 . S
C397 C396 1.396 . S
C397 C398 1.399 . S
C398 H384 0.929 . S
C398 C397 1.399 . S
C398 C399 1.385 . S
C399 H385 0.931 . S
C399 C398 1.385 . S
C399 C400 1.389 . S
C400 C399 1.389 . S
C400 C401 1.387 . S
C401 H386 0.930 . S
C401 C396 1.390 . S
C401 C400 1.387 . S
H402 C414 0.930 . S
H403 C416 0.930 . S
H404 C417 0.930 . S
H405 C421 0.959 . S
H406 C421 0.959 . S
H407 C421 0.961 1_554 S
H408 C422 0.960 . S
H409 C422 0.961 . S
H410 C422 0.959 . S
H411 C425 0.929 . S
H412 C426 0.931 . S
H413 C428 0.930 . S
C414 H402 0.930 . S
C414 C415 1.399 . S
C414 C419 1.399 . S
C415 C414 1.399 . S
C415 C416 1.376 . S
C416 H403 0.930 . S
C416 C415 1.376 . S
C416 C417 1.388 . S
C417 H404 0.930 . S
C417 C416 1.388 . S
C417 C418 1.390 . S
C418 C417 1.390 . S
C418 C419 1.394 . S
C418 C424 1.465 . S
C419 C414 1.399 . S
C419 C418 1.394 . S
C419 C420 1.516 . S
C420 C419 1.516 . S
C420 C421 1.502 . S
C420 C422 1.561 . S
C420 C423 1.526 . S
C421 H405 0.959 . S
C421 H406 0.959 . S
C421 H407 0.961 1_556 S
C421 C420 1.502 . S
C422 H408 0.960 . S
C422 H409 0.961 . S
C422 H410 0.959 . S
C422 C420 1.561 . S
C423 C420 1.526 . S
C423 C424 1.396 . S
C423 C428 1.390 . S
C424 C418 1.465 . S
C424 C423 1.396 . S
C424 C425 1.399 . S
C425 H411 0.929 . S
C425 C424 1.399 . S
C425 C426 1.385 . S
C426 H412 0.931 . S
C426 C425 1.385 . S
C426 C427 1.389 . S
C427 C426 1.389 . S
C427 C428 1.387 . S
C428 H413 0.930 . S
C428 C423 1.390 . S
C428 C427 1.387 . S
H429 C441 0.930 . S
H430 C443 0.930 . S
H431 C444 0.930 . S
H432 C448 0.959 . S
H433 C448 0.959 . S
H434 C448 0.961 . S
H435 C449 0.960 . S
H436 C449 0.961 . S
H437 C449 0.959 . S
H438 C452 0.929 . S
H439 C453 0.931 . S
H440 C455 0.930 . S
C441 H429 0.930 . S
C441 C442 1.399 . S
C441 C446 1.399 . S
C442 C441 1.399 . S
C442 C443 1.376 . S
C443 H430 0.930 . S
C443 C442 1.376 . S
C443 C444 1.388 . S
C444 H431 0.930 . S
C444 C443 1.388 . S
C444 C445 1.390 . S
C445 C444 1.390 . S
C445 C446 1.394 . S
C445 C451 1.465 . S
C446 C441 1.399 . S
C446 C445 1.394 . S
C446 C447 1.516 . S
C447 C446 1.516 . S
C447 C448 1.502 . S
C447 C449 1.561 . S
C447 C450 1.526 . S
C448 H432 0.959 . S
C448 H433 0.959 . S
C448 H434 0.961 . S
C448 C447 1.502 . S
C449 H435 0.960 . S
C449 H436 0.961 . S
C449 H437 0.959 . S
C449 C447 1.561 . S
C450 C447 1.526 . S
C450 C451 1.396 . S
C450 C455 1.390 . S
C451 C445 1.465 . S
C451 C450 1.396 . S
C451 C452 1.399 . S
C452 H438 0.929 . S
C452 C451 1.399 . S
C452 C453 1.385 . S
C453 H439 0.931 . S
C453 C452 1.385 . S
C453 C454 1.389 . S
C454 C453 1.389 . S
C454 C455 1.387 . S
C455 H440 0.930 . S
C455 C450 1.390 . S
C455 C454 1.387 . S
H456 C468 0.930 . S
H457 C470 0.930 . S
H458 C471 0.930 . S
H459 C475 0.959 . S
H460 C475 0.959 . S
H461 C475 0.961 . S
H462 C476 0.960 . S
H463 C476 0.961 . S
H464 C476 0.959 . S
H465 C479 0.929 . S
H466 C480 0.931 . S
H467 C482 0.930 . S
C468 H456 0.930 . S
C468 C469 1.399 . S
C468 C473 1.399 . S
C469 C468 1.399 . S
C469 C470 1.376 . S
C470 H457 0.930 . S
C470 C469 1.376 . S
C470 C471 1.388 . S
C471 H458 0.930 . S
C471 C470 1.388 . S
C471 C472 1.390 . S
C472 C471 1.390 . S
C472 C473 1.394 . S
C472 C478 1.465 . S
C473 C468 1.399 . S
C473 C472 1.394 . S
C473 C474 1.516 . S
C474 C473 1.516 . S
C474 C475 1.502 . S
C474 C476 1.561 . S
C474 C477 1.526 . S
C475 H459 0.959 . S
C475 H460 0.959 . S
C475 H461 0.961 . S
C475 C474 1.502 . S
C476 H462 0.960 . S
C476 H463 0.961 . S
C476 H464 0.959 . S
C476 C474 1.561 . S
C477 C474 1.526 . S
C477 C478 1.396 . S
C477 C482 1.390 . S
C478 C472 1.465 . S
C478 C477 1.396 . S
C478 C479 1.399 . S
C479 H465 0.929 . S
C479 C478 1.399 . S
C479 C480 1.385 . S
C480 H466 0.931 . S
C480 C479 1.385 . S
C480 C481 1.389 . S
C481 C480 1.389 . S
C481 C482 1.387 . S
C482 H467 0.930 . S
C482 C477 1.390 . S
C482 C481 1.387 . S
H483 C495 0.930 . S
H484 C497 0.930 . S
H485 C498 0.930 . S
H486 C502 0.959 . S
H487 C502 0.959 . S
H488 C502 0.961 . S
H489 C503 0.960 . S
H490 C503 0.961 . S
H491 C503 0.959 . S
H492 C506 0.929 . S
H493 C507 0.931 . S
H494 C509 0.930 . S
C495 H483 0.930 . S
C495 C496 1.399 . S
C495 C500 1.399 . S
C496 C495 1.399 . S
C496 C497 1.376 . S
C497 H484 0.930 . S
C497 C496 1.376 . S
C497 C498 1.388 . S
C498 H485 0.930 . S
C498 C497 1.388 . S
C498 C499 1.390 . S
C499 C498 1.390 . S
C499 C500 1.394 . S
C499 C505 1.465 . S
C500 C495 1.399 . S
C500 C499 1.394 . S
C500 C501 1.516 . S
C501 C500 1.516 . S
C501 C502 1.502 . S
C501 C503 1.561 . S
C501 C504 1.526 . S
C502 H486 0.959 . S
C502 H487 0.959 . S
C502 H488 0.961 . S
C502 C501 1.502 . S
C503 H489 0.960 . S
C503 H490 0.961 . S
C503 H491 0.959 . S
C503 C501 1.561 . S
C504 C501 1.526 . S
C504 C505 1.396 . S
C504 C509 1.390 . S
C505 C499 1.465 . S
C505 C504 1.396 . S
C505 C506 1.399 . S
C506 H492 0.929 . S
C506 C505 1.399 . S
C506 C507 1.385 . S
C507 H493 0.931 . S
C507 C506 1.385 . S
C507 C508 1.389 . S
C508 C507 1.389 . S
C508 C509 1.387 . S
C509 H494 0.930 . S
C509 C504 1.390 . S
C509 C508 1.387 . S
H510 C522 0.930 . S
H511 C524 0.930 1_554 S
H512 C525 0.930 . S
H513 C529 0.959 . S
H514 C529 0.959 . S
H515 C529 0.961 . S
H516 C530 0.960 . S
H517 C530 0.961 . S
H518 C530 0.959 . S
H519 C533 0.929 . S
H520 C534 0.931 . S
H521 C536 0.930 . S
C522 H510 0.930 . S
C522 C523 1.399 . S
C522 C527 1.399 . S
C523 C522 1.399 . S
C523 C524 1.376 . S
C524 H511 0.930 1_556 S
C524 C523 1.376 . S
C524 C525 1.388 . S
C525 H512 0.930 . S
C525 C524 1.388 . S
C525 C526 1.390 . S
C526 C525 1.390 . S
C526 C527 1.394 . S
C526 C532 1.465 . S
C527 C522 1.399 . S
C527 C526 1.394 . S
C527 C528 1.516 . S
C528 C527 1.516 . S
C528 C529 1.502 . S
C528 C530 1.561 . S
C528 C531 1.526 . S
C529 H513 0.959 . S
C529 H514 0.959 . S
C529 H515 0.961 . S
C529 C528 1.502 . S
C530 H516 0.960 . S
C530 H517 0.961 . S
C530 H518 0.959 . S
C530 C528 1.561 . S
C531 C528 1.526 . S
C531 C532 1.396 . S
C531 C536 1.390 . S
C532 C526 1.465 . S
C532 C531 1.396 . S
C532 C533 1.399 . S
C533 H519 0.929 . S
C533 C532 1.399 . S
C533 C534 1.385 . S
C534 H520 0.931 . S
C534 C533 1.385 . S
C534 C535 1.389 . S
C535 C534 1.389 . S
C535 C536 1.387 . S
C536 H521 0.930 . S
C536 C531 1.390 . S
C536 C535 1.387 . S
H537 C549 0.930 . S
H538 C551 0.930 . S
H539 C552 0.930 . S
H540 C556 0.959 . S
H541 C556 0.959 . S
H542 C556 0.961 . S
H543 C557 0.960 . S
H544 C557 0.961 . S
H545 C557 0.959 . S
H546 C560 0.929 . S
H547 C561 0.931 . S
H548 C563 0.930 . S
C549 H537 0.930 . S
C549 C550 1.399 . S
C549 C554 1.399 . S
C550 C549 1.399 . S
C550 C551 1.376 . S
C551 H538 0.930 . S
C551 C550 1.376 . S
C551 C552 1.388 . S
C552 H539 0.930 . S
C552 C551 1.388 . S
C552 C553 1.390 . S
C553 C552 1.390 . S
C553 C554 1.394 . S
C553 C559 1.465 . S
C554 C549 1.399 . S
C554 C553 1.394 . S
C554 C555 1.516 . S
C555 C554 1.516 . S
C555 C556 1.502 . S
C555 C557 1.561 . S
C555 C558 1.526 . S
C556 H540 0.959 . S
C556 H541 0.959 . S
C556 H542 0.961 . S
C556 C555 1.502 . S
C557 H543 0.960 . S
C557 H544 0.961 . S
C557 H545 0.959 . S
C557 C555 1.561 . S
C558 C555 1.526 . S
C558 C559 1.396 . S
C558 C563 1.390 . S
C559 C553 1.465 . S
C559 C558 1.396 . S
C559 C560 1.399 . S
C560 H546 0.929 . S
C560 C559 1.399 . S
C560 C561 1.385 . S
C561 H547 0.931 . S
C561 C560 1.385 . S
C561 C562 1.389 . S
C562 C561 1.389 . S
C562 C563 1.387 . S
C563 H548 0.930 . S
C563 C558 1.390 . S
C563 C562 1.387 . S
H564 C576 0.930 1_554 S
H565 C578 0.930 . S
H566 C579 0.930 . S
H567 C583 0.959 . S
H568 C583 0.959 . S
H569 C583 0.961 . S
H570 C584 0.960 . S
H571 C584 0.961 1_545 S
H572 C584 0.959 1_556 S
H573 C587 0.929 . S
H574 C588 0.931 . S
H575 C590 0.930 . S
C576 H564 0.930 1_556 S
C576 C577 1.399 . S
C576 C581 1.399 . S
C577 C576 1.399 . S
C577 C578 1.376 . S
C578 H565 0.930 . S
C578 C577 1.376 . S
C578 C579 1.388 . S
C579 H566 0.930 . S
C579 C578 1.388 . S
C579 C580 1.390 . S
C580 C579 1.390 . S
C580 C581 1.394 . S
C580 C586 1.465 . S
C581 C576 1.399 . S
C581 C580 1.394 . S
C581 C582 1.516 1_565 S
C582 C581 1.516 1_545 S
C582 C583 1.502 . S
C582 C584 1.561 1_546 S
C582 C585 1.526 . S
C583 H567 0.959 . S
C583 H568 0.959 . S
C583 H569 0.961 . S
C583 C582 1.502 . S
C584 H570 0.960 . S
C584 H571 0.961 1_565 S
C584 H572 0.959 1_554 S
C584 C582 1.561 1_564 S
C585 C582 1.526 . S
C585 C586 1.396 1_545 S
C585 C590 1.390 . S
C586 C580 1.465 . S
C586 C585 1.396 1_565 S
C586 C587 1.399 . S
C587 H573 0.929 . S
C587 C586 1.399 . S
C587 C588 1.385 1_565 S
C588 H574 0.931 . S
C588 C587 1.385 1_545 S
C588 C589 1.389 . S
C589 C588 1.389 . S
C589 C590 1.387 . S
C590 H575 0.930 . S
C590 C585 1.390 . S
C590 C589 1.387 . S
H591 C603 0.930 . S
H592 C605 0.930 . S
H593 C606 0.930 . S
H594 C610 0.959 . S
H595 C610 0.959 . S
H596 C610 0.961 . S
H597 C611 0.960 . S
H598 C611 0.961 . S
H599 C611 0.959 . S
H600 C614 0.929 . S
H601 C615 0.931 1_545 S
H602 C617 0.930 . S
C603 H591 0.930 . S
C603 C604 1.399 . S
C603 C608 1.399 . S
C604 C603 1.399 . S
C604 C605 1.376 . S
C605 H592 0.930 . S
C605 C604 1.376 . S
C605 C606 1.388 . S
C606 H593 0.930 . S
C606 C605 1.388 . S
C606 C607 1.390 . S
C607 C606 1.390 . S
C607 C608 1.394 . S
C607 C613 1.465 . S
C608 C603 1.399 . S
C608 C607 1.394 . S
C608 C609 1.516 1_545 S
C609 C608 1.516 1_565 S
C609 C610 1.502 . S
C609 C611 1.561 . S
C609 C612 1.526 . S
C610 H594 0.959 . S
C610 H595 0.959 . S
C610 H596 0.961 . S
C610 C609 1.502 . S
C611 H597 0.960 . S
C611 H598 0.961 . S
C611 H599 0.959 . S
C611 C609 1.561 . S
C612 C609 1.526 . S
C612 C613 1.396 1_565 S
C612 C617 1.390 . S
C613 C607 1.465 . S
C613 C612 1.396 1_545 S
C613 C614 1.399 . S
C614 H600 0.929 . S
C614 C613 1.399 . S
C614 C615 1.385 1_545 S
C615 H601 0.931 1_565 S
C615 C614 1.385 1_565 S
C615 C616 1.389 . S
C616 C615 1.389 . S
C616 C617 1.387 . S
C617 H602 0.930 . S
C617 C612 1.390 . S
C617 C616 1.387 . S
H618 C630 0.930 . S
H619 C632 0.930 1_554 S
H620 C633 0.930 . S
H621 C637 0.959 . S
H622 C637 0.959 . S
H623 C637 0.961 . S
H624 C638 0.960 . S
H625 C638 0.961 . S
H626 C638 0.959 . S
H627 C641 0.929 . S
H628 C642 0.931 . S
H629 C644 0.930 . S
C630 H618 0.930 . S
C630 C631 1.399 . S
C630 C635 1.399 . S
C631 C630 1.399 . S
C631 C632 1.376 . S
C632 H619 0.930 1_556 S
C632 C631 1.376 . S
C632 C633 1.388 . S
C633 H620 0.930 . S
C633 C632 1.388 . S
C633 C634 1.390 . S
C634 C633 1.390 . S
C634 C635 1.394 . S
C634 C640 1.465 . S
C635 C630 1.399 . S
C635 C634 1.394 . S
C635 C636 1.516 . S
C636 C635 1.516 . S
C636 C637 1.502 1_565 S
C636 C638 1.561 . S
C636 C639 1.526 1_565 S
C637 H621 0.959 . S
C637 H622 0.959 . S
C637 H623 0.961 . S
C637 C636 1.502 1_545 S
C638 H624 0.960 . S
C638 H625 0.961 . S
C638 H626 0.959 . S
C638 C636 1.561 . S
C639 C636 1.526 1_545 S
C639 C640 1.396 1_545 S
C639 C644 1.390 . S
C640 C634 1.465 . S
C640 C639 1.396 1_565 S
C640 C641 1.399 . S
C641 H627 0.929 . S
C641 C640 1.399 . S
C641 C642 1.385 1_565 S
C642 H628 0.931 . S
C642 C641 1.385 1_545 S
C642 C643 1.389 . S
C643 C642 1.389 . S
C643 C644 1.387 . S
C644 H629 0.930 . S
C644 C639 1.390 . S
C644 C643 1.387 . S
H645 C657 0.930 . S
H646 C659 0.930 . S
H647 C660 0.930 . S
H648 C664 0.959 1_545 S
H649 C664 0.959 . S
H650 C664 0.967 . S
H651 C665 0.960 . S
H652 C665 0.961 . S
H653 C665 0.959 . S
H654 C668 0.929 . S
H655 C669 0.931 . S
H656 C671 0.930 . S
C657 H645 0.930 . S
C657 C658 1.399 . S
C657 C662 1.399 . S
C658 C657 1.399 . S
C658 C659 1.376 . S
C659 H646 0.930 . S
C659 C658 1.376 . S
C659 C660 1.388 . S
C660 H647 0.930 . S
C660 C659 1.388 . S
C660 C661 1.390 . S
C661 C660 1.390 . S
C661 C662 1.394 . S
C661 C667 1.465 . S
C662 C657 1.399 . S
C662 C661 1.394 . S
C662 C663 1.516 1_545 S
C663 C662 1.516 1_565 S
C663 C664 1.502 . S
C663 C665 1.561 . S
C663 C666 1.526 . S
C664 H648 0.959 1_565 S
C664 H649 0.959 . S
C664 H650 0.967 . S
C664 C663 1.502 . S
C665 H651 0.960 . S
C665 H652 0.961 . S
C665 H653 0.959 . S
C665 C663 1.561 . S
C666 C663 1.526 . S
C666 C667 1.396 1_565 S
C666 C671 1.390 . S
C667 C661 1.465 . S
C667 C666 1.396 1_545 S
C667 C668 1.399 . S
C668 H654 0.929 . S
C668 C667 1.399 . S
C668 C669 1.385 1_545 S
C669 H655 0.931 . S
C669 C668 1.385 1_565 S
C669 C670 1.389 . S
C670 C669 1.389 . S
C670 C671 1.387 . S
C671 H656 0.930 . S
C671 C666 1.390 . S
C671 C670 1.387 . S
H672 C684 0.930 . S
H673 C686 0.930 . S
H674 C687 0.930 . S
H675 C691 0.959 . S
H676 C691 0.959 . S
H677 C691 0.961 . S
H678 C692 0.960 . S
H679 C692 0.961 . S
H680 C692 0.959 . S
H681 C695 0.929 . S
H682 C696 0.931 . S
H683 C698 0.930 . S
C684 H672 0.930 . S
C684 C685 1.399 . S
C684 C689 1.399 . S
C685 C684 1.399 . S
C685 C686 1.376 . S
C686 H673 0.930 . S
C686 C685 1.376 . S
C686 C687 1.388 . S
C687 H674 0.930 . S
C687 C686 1.388 . S
C687 C688 1.390 . S
C688 C687 1.390 . S
C688 C689 1.394 . S
C688 C694 1.465 . S
C689 C684 1.399 . S
C689 C688 1.394 . S
C689 C690 1.516 . S
C690 C689 1.516 . S
C690 C691 1.502 . S
C690 C692 1.561 . S
C690 C693 1.526 . S
C691 H675 0.959 . S
C691 H676 0.959 . S
C691 H677 0.961 . S
C691 C690 1.502 . S
C692 H678 0.960 . S
C692 H679 0.961 . S
C692 H680 0.959 . S
C692 C690 1.561 . S
C693 C690 1.526 . S
C693 C694 1.396 . S
C693 C698 1.390 . S
C694 C688 1.465 . S
C694 C693 1.396 . S
C694 C695 1.399 . S
C695 H681 0.929 . S
C695 C694 1.399 . S
C695 C696 1.385 . S
C696 H682 0.931 . S
C696 C695 1.385 . S
C696 C697 1.389 . S
C697 C696 1.389 . S
C697 C698 1.387 . S
C698 H683 0.930 . S
C698 C693 1.390 . S
C698 C697 1.387 . S
H699 C711 0.930 . S
H700 C713 0.930 . S
H701 C714 0.930 . S
H702 C718 0.959 . S
H703 C718 0.959 . S
H704 C718 0.961 . S
H705 C719 0.960 . S
H706 C719 0.961 . S
H707 C719 0.959 . S
H708 C722 0.929 . S
H709 C723 0.931 . S
H710 C725 0.930 . S
C711 H699 0.930 . S
C711 C712 1.399 . S
C711 C716 1.399 . S
C712 C711 1.399 . S
C712 C713 1.376 . S
C713 H700 0.930 . S
C713 C712 1.376 . S
C713 C714 1.388 . S
C714 H701 0.930 . S
C714 C713 1.388 . S
C714 C715 1.390 . S
C715 C714 1.390 . S
C715 C716 1.394 . S
C715 C721 1.465 . S
C716 C711 1.399 . S
C716 C715 1.394 . S
C716 C717 1.516 . S
C717 C716 1.516 . S
C717 C718 1.502 . S
C717 C719 1.561 . S
C717 C720 1.526 . S
C718 H702 0.959 . S
C718 H703 0.959 . S
C718 H704 0.961 . S
C718 C717 1.502 . S
C719 H705 0.960 . S
C719 H706 0.961 . S
C719 H707 0.959 . S
C719 C717 1.561 . S
C720 C717 1.526 . S
C720 C721 1.396 . S
C720 C725 1.390 . S
C721 C715 1.465 . S
C721 C720 1.396 . S
C721 C722 1.399 . S
C722 H708 0.929 . S
C722 C721 1.399 . S
C722 C723 1.385 . S
C723 H709 0.931 . S
C723 C722 1.385 . S
C723 C724 1.389 . S
C724 C723 1.389 . S
C724 C725 1.387 . S
C725 H710 0.930 . S
C725 C720 1.390 . S
C725 C724 1.387 . S
H726 C738 0.930 . S
H727 C740 0.930 . S
H728 C741 0.930 . S
H729 C745 0.959 . S
H730 C745 0.959 . S
H731 C745 0.961 . S
H732 C746 0.960 . S
H733 C746 0.961 . S
H734 C746 0.959 . S
H735 C749 0.929 . S
H736 C750 0.931 . S
H737 C752 0.930 . S
C738 H726 0.930 . S
C738 C739 1.399 . S
C738 C743 1.399 . S
C739 C738 1.399 . S
C739 C740 1.376 . S
C740 H727 0.930 . S
C740 C739 1.376 . S
C740 C741 1.388 . S
C741 H728 0.930 . S
C741 C740 1.388 . S
C741 C742 1.390 . S
C742 C741 1.390 . S
C742 C743 1.394 . S
C742 C748 1.465 . S
C743 C738 1.399 . S
C743 C742 1.394 . S
C743 C744 1.516 . S
C744 C743 1.516 . S
C744 C745 1.502 . S
C744 C746 1.561 . S
C744 C747 1.526 . S
C745 H729 0.959 . S
C745 H730 0.959 . S
C745 H731 0.961 . S
C745 C744 1.502 . S
C746 H732 0.960 . S
C746 H733 0.961 . S
C746 H734 0.959 . S
C746 C744 1.561 . S
C747 C744 1.526 . S
C747 C748 1.396 . S
C747 C752 1.390 . S
C748 C742 1.465 . S
C748 C747 1.396 . S
C748 C749 1.399 . S
C749 H735 0.929 . S
C749 C748 1.399 . S
C749 C750 1.385 . S
C750 H736 0.931 . S
C750 C749 1.385 . S
C750 C751 1.389 . S
C751 C750 1.389 . S
C751 C752 1.387 . S
C752 H737 0.930 . S
C752 C747 1.390 . S
C752 C751 1.387 . S
H753 C765 0.930 . S
H754 C767 0.930 . S
H755 C768 0.930 . S
H756 C772 0.959 . S
H757 C772 0.959 . S
H758 C772 0.961 . S
H759 C773 0.960 . S
H760 C773 0.961 . S
H761 C773 0.959 . S
H762 C776 0.929 . S
H763 C777 0.931 . S
H764 C779 0.930 . S
C765 H753 0.930 . S
C765 C766 1.399 . S
C765 C770 1.399 . S
C766 C765 1.399 . S
C766 C767 1.376 . S
C767 H754 0.930 . S
C767 C766 1.376 . S
C767 C768 1.388 . S
C768 H755 0.930 . S
C768 C767 1.388 . S
C768 C769 1.390 . S
C769 C768 1.390 . S
C769 C770 1.394 . S
C769 C775 1.465 . S
C770 C765 1.399 . S
C770 C769 1.394 . S
C770 C771 1.516 . S
C771 C770 1.516 . S
C771 C772 1.502 . S
C771 C773 1.561 . S
C771 C774 1.526 . S
C772 H756 0.959 . S
C772 H757 0.959 . S
C772 H758 0.961 . S
C772 C771 1.502 . S
C773 H759 0.960 . S
C773 H760 0.961 . S
C773 H761 0.959 . S
C773 C771 1.561 . S
C774 C771 1.526 . S
C774 C775 1.396 . S
C774 C779 1.390 . S
C775 C769 1.465 . S
C775 C774 1.396 . S
C775 C776 1.399 . S
C776 H762 0.929 . S
C776 C775 1.399 . S
C776 C777 1.385 . S
C777 H763 0.931 . S
C777 C776 1.385 . S
C777 C778 1.389 . S
C778 C777 1.389 . S
C778 C779 1.387 . S
C779 H764 0.930 . S
C779 C774 1.390 . S
C779 C778 1.387 . S
H780 C792 0.930 . S
H781 C794 0.930 . S
H782 C795 0.930 . S
H783 C799 0.959 . S
H784 C799 0.959 . S
H785 C799 0.961 . S
H786 C800 0.960 . S
H787 C800 0.961 . S
H788 C800 0.959 . S
H789 C803 0.929 . S
H790 C804 0.931 . S
H791 C806 0.930 . S
C792 H780 0.930 . S
C792 C793 1.399 . S
C792 C797 1.399 . S
C793 C792 1.399 . S
C793 C794 1.376 . S
C794 H781 0.930 . S
C794 C793 1.376 . S
C794 C795 1.388 . S
C795 H782 0.930 . S
C795 C794 1.388 . S
C795 C796 1.390 . S
C796 C795 1.390 . S
C796 C797 1.394 . S
C796 C802 1.465 . S
C797 C792 1.399 . S
C797 C796 1.394 . S
C797 C798 1.516 . S
C798 C797 1.516 . S
C798 C799 1.502 . S
C798 C800 1.561 . S
C798 C801 1.526 . S
C799 H783 0.959 . S
C799 H784 0.959 . S
C799 H785 0.961 . S
C799 C798 1.502 . S
C800 H786 0.960 . S
C800 H787 0.961 . S
C800 H788 0.959 . S
C800 C798 1.561 . S
C801 C798 1.526 . S
C801 C802 1.396 . S
C801 C806 1.390 . S
C802 C796 1.465 . S
C802 C801 1.396 . S
C802 C803 1.399 . S
C803 H789 0.929 . S
C803 C802 1.399 . S
C803 C804 1.385 . S
C804 H790 0.931 . S
C804 C803 1.385 . S
C804 C805 1.389 . S
C805 C804 1.389 . S
C805 C806 1.387 . S
C806 H791 0.930 . S
C806 C801 1.390 . S
C806 C805 1.387 . S
H807 C819 0.930 . S
H808 C821 0.930 . S
H809 C822 0.930 . S
H810 C826 0.959 . S
H811 C826 0.959 . S
H812 C826 0.961 . S
H813 C827 0.960 . S
H814 C827 0.961 . S
H815 C827 0.959 . S
H816 C830 0.929 . S
H817 C831 0.931 . S
H818 C833 0.930 . S
C819 H807 0.930 . S
C819 C820 1.399 . S
C819 C824 1.399 . S
C820 C819 1.399 . S
C820 C821 1.376 . S
C821 H808 0.930 . S
C821 C820 1.376 . S
C821 C822 1.388 . S
C822 H809 0.930 . S
C822 C821 1.388 . S
C822 C823 1.390 . S
C823 C822 1.390 . S
C823 C824 1.394 . S
C823 C829 1.465 . S
C824 C819 1.399 . S
C824 C823 1.394 . S
C824 C825 1.516 . S
C825 C824 1.516 . S
C825 C826 1.502 . S
C825 C827 1.561 . S
C825 C828 1.526 . S
C826 H810 0.959 . S
C826 H811 0.959 . S
C826 H812 0.961 . S
C826 C825 1.502 . S
C827 H813 0.960 . S
C827 H814 0.961 . S
C827 H815 0.959 . S
C827 C825 1.561 . S
C828 C825 1.526 . S
C828 C829 1.396 . S
C828 C833 1.390 . S
C829 C823 1.465 . S
C829 C828 1.396 . S
C829 C830 1.399 . S
C830 H816 0.929 . S
C830 C829 1.399 . S
C830 C831 1.385 . S
C831 H817 0.931 . S
C831 C830 1.385 . S
C831 C832 1.389 . S
C832 C831 1.389 . S
C832 C833 1.387 . S
C833 H818 0.930 . S
C833 C828 1.390 . S
C833 C832 1.387 . S
H834 C846 0.930 . S
H835 C848 0.930 . S
H836 C849 0.930 . S
H837 C853 0.959 . S
H838 C853 0.959 . S
H839 C853 0.961 . S
H840 C854 0.960 . S
H841 C854 0.961 . S
H842 C854 0.959 . S
H843 C857 0.929 . S
H844 C858 0.931 . S
H845 C860 0.930 . S
C846 H834 0.930 . S
C846 C847 1.399 . S
C846 C851 1.399 . S
C847 C846 1.399 . S
C847 C848 1.376 . S
C848 H835 0.930 . S
C848 C847 1.376 . S
C848 C849 1.388 . S
C849 H836 0.930 . S
C849 C848 1.388 . S
C849 C850 1.390 . S
C850 C849 1.390 . S
C850 C851 1.394 . S
C850 C856 1.465 . S
C851 C846 1.399 . S
C851 C850 1.394 . S
C851 C852 1.516 . S
C852 C851 1.516 . S
C852 C853 1.502 . S
C852 C854 1.561 . S
C852 C855 1.526 . S
C853 H837 0.959 . S
C853 H838 0.959 . S
C853 H839 0.961 . S
C853 C852 1.502 . S
C854 H840 0.960 . S
C854 H841 0.961 . S
C854 H842 0.959 . S
C854 C852 1.561 . S
C855 C852 1.526 . S
C855 C856 1.396 . S
C855 C860 1.390 . S
C856 C850 1.465 . S
C856 C855 1.396 . S
C856 C857 1.399 . S
C857 H843 0.929 . S
C857 C856 1.399 . S
C857 C858 1.385 . S
C858 H844 0.931 . S
C858 C857 1.385 . S
C858 C859 1.389 . S
C859 C858 1.389 . S
C859 C860 1.387 . S
C860 H845 0.930 . S
C860 C855 1.390 . S
C860 C859 1.387 . S
H861 C873 0.930 . S
H862 C875 0.930 . S
H863 C876 0.930 . S
H864 C880 0.959 . S
H865 C880 0.959 . S
H866 C880 0.961 . S
H867 C881 0.960 . S
H868 C881 0.961 . S
H869 C881 0.959 . S
H870 C884 0.929 . S
H871 C885 0.931 . S
H872 C887 0.930 . S
C873 H861 0.930 . S
C873 C874 1.399 . S
C873 C878 1.399 . S
C874 C873 1.399 . S
C874 C875 1.376 . S
C875 H862 0.930 . S
C875 C874 1.376 . S
C875 C876 1.388 . S
C876 H863 0.930 . S
C876 C875 1.388 . S
C876 C877 1.390 . S
C877 C876 1.390 . S
C877 C878 1.394 . S
C877 C883 1.465 . S
C878 C873 1.399 . S
C878 C877 1.394 . S
C878 C879 1.516 . S
C879 C878 1.516 . S
C879 C880 1.502 . S
C879 C881 1.561 . S
C879 C882 1.526 . S
C880 H864 0.959 . S
C880 H865 0.959 . S
C880 H866 0.961 . S
C880 C879 1.502 . S
C881 H867 0.960 . S
C881 H868 0.961 . S
C881 H869 0.959 . S
C881 C879 1.561 . S
C882 C879 1.526 . S
C882 C883 1.396 . S
C882 C887 1.390 . S
C883 C877 1.465 . S
C883 C882 1.396 . S
C883 C884 1.399 . S
C884 H870 0.929 . S
C884 C883 1.399 . S
C884 C885 1.385 . S
C885 H871 0.931 . S
C885 C884 1.385 . S
C885 C886 1.389 . S
C886 C885 1.389 . S
C886 C887 1.387 . S
C887 H872 0.930 . S
C887 C882 1.390 . S
C887 C886 1.387 . S
C253 C11 1.489 . S
C265 C178 1.524 . S
C292 C156 1.554 . S
C280 C30 1.468 . S
C319 C182 1.512 . S
C307 C49 1.417 . S
C346 C160 1.519 . S
C334 C68 1.396 . S
C373 C222 1.513 . S
C361 C87 1.467 . S
C400 C200 1.526 . S
C388 C106 1.421 . S
C415 C125 1.429 . S
C427 C226 1.523 . S
C454 C204 1.533 . S
C442 C144 1.410 . S
C469 C2 1.566 . S
C481 C227 1.588 . S
C508 C205 1.561 . S
C496 C21 1.517 . S
C523 C40 1.497 . S
C535 C224 1.551 . S
C550 C59 1.559 . S
C562 C202 1.578 . S
C589 C183 1.570 . S
C577 C78 1.529 . S
C604 C97 1.496 . S
C616 C161 1.552 . S
C643 C180 1.551 . S
C631 C116 1.498 . S
C670 C158 1.578 . S
C658 C135 1.559 . S
C697 C201 1.527 . S
C685 C6 1.532 . S
C724 C223 1.523 . S
C712 C25 1.531 . S
C739 C44 1.529 . S
C751 C203 1.520 . S
C778 C225 1.497 . S
C766 C63 1.497 . S
C805 C157 1.498 . S
C793 C82 1.505 . S
C820 C101 1.524 . S
C832 C179 1.511 . S
C847 C120 1.522 . S
C859 C159 1.509 . S
C874 C139 1.499 . S
C886 C181 1.487 . S
