# Generated by pormake.
# Topology tbo, (3,4)-cn, num edge types: 1
# Building blocks:
#     Node 0, Type 0, BuildingBlock: ESEHIV_clean_linker_0, # of connection points: 3
#     Node 1, Type 0, BuildingBlock: ESEHIV_clean_linker_0, # of connection points: 3
#     Node 2, Type 0, BuildingBlock: ESEHIV_clean_linker_0, # of connection points: 3
#     Node 3, Type 0, BuildingBlock: ESEHIV_clean_linker_0, # of connection points: 3
#     Node 4, Type 0, BuildingBlock: ESEHIV_clean_linker_0, # of connection points: 3
#     Node 5, Type 0, BuildingBlock: ESEHIV_clean_linker_0, # of connection points: 3
#     Node 6, Type 0, BuildingBlock: ESEHIV_clean_linker_0, # of connection points: 3
#     Node 7, Type 0, BuildingBlock: ESEHIV_clean_linker_0, # of connection points: 3
#     Node 8, Type 0, BuildingBlock: ESEHIV_clean_linker_0, # of connection points: 3
#     Node 9, Type 0, BuildingBlock: ESEHIV_clean_linker_0, # of connection points: 3
#     Node 10, Type 0, BuildingBlock: ESEHIV_clean_linker_0, # of connection points: 3
#     Node 11, Type 0, BuildingBlock: ESEHIV_clean_linker_0, # of connection points: 3
#     Node 12, Type 0, BuildingBlock: ESEHIV_clean_linker_0, # of connection points: 3
#     Node 13, Type 0, BuildingBlock: ESEHIV_clean_linker_0, # of connection points: 3
#     Node 14, Type 0, BuildingBlock: ESEHIV_clean_linker_0, # of connection points: 3
#     Node 15, Type 0, BuildingBlock: ESEHIV_clean_linker_0, # of connection points: 3
#     Node 16, Type 0, BuildingBlock: ESEHIV_clean_linker_0, # of connection points: 3
#     Node 17, Type 0, BuildingBlock: ESEHIV_clean_linker_0, # of connection points: 3
#     Node 18, Type 0, BuildingBlock: ESEHIV_clean_linker_0, # of connection points: 3
#     Node 19, Type 0, BuildingBlock: ESEHIV_clean_linker_0, # of connection points: 3
#     Node 20, Type 0, BuildingBlock: ESEHIV_clean_linker_0, # of connection points: 3
#     Node 21, Type 0, BuildingBlock: ESEHIV_clean_linker_0, # of connection points: 3
#     Node 22, Type 0, BuildingBlock: ESEHIV_clean_linker_0, # of connection points: 3
#     Node 23, Type 0, BuildingBlock: ESEHIV_clean_linker_0, # of connection points: 3
#     Node 24, Type 0, BuildingBlock: ESEHIV_clean_linker_0, # of connection points: 3
#     Node 25, Type 0, BuildingBlock: ESEHIV_clean_linker_0, # of connection points: 3
#     Node 26, Type 0, BuildingBlock: ESEHIV_clean_linker_0, # of connection points: 3
#     Node 27, Type 0, BuildingBlock: ESEHIV_clean_linker_0, # of connection points: 3
#     Node 28, Type 0, BuildingBlock: ESEHIV_clean_linker_0, # of connection points: 3
#     Node 29, Type 0, BuildingBlock: ESEHIV_clean_linker_0, # of connection points: 3
#     Node 30, Type 0, BuildingBlock: ESEHIV_clean_linker_0, # of connection points: 3
#     Node 31, Type 0, BuildingBlock: ESEHIV_clean_linker_0, # of connection points: 3
#     Node 32, Type 1, BuildingBlock: ESEHIV_clean_sbu_0, # of connection points: 4
#     Node 33, Type 1, BuildingBlock: ESEHIV_clean_sbu_0, # of connection points: 4
#     Node 34, Type 1, BuildingBlock: ESEHIV_clean_sbu_0, # of connection points: 4
#     Node 35, Type 1, BuildingBlock: ESEHIV_clean_sbu_0, # of connection points: 4
#     Node 36, Type 1, BuildingBlock: ESEHIV_clean_sbu_0, # of connection points: 4
#     Node 37, Type 1, BuildingBlock: ESEHIV_clean_sbu_0, # of connection points: 4
#     Node 38, Type 1, BuildingBlock: ESEHIV_clean_sbu_0, # of connection points: 4
#     Node 39, Type 1, BuildingBlock: ESEHIV_clean_sbu_0, # of connection points: 4
#     Node 40, Type 1, BuildingBlock: ESEHIV_clean_sbu_0, # of connection points: 4
#     Node 41, Type 1, BuildingBlock: ESEHIV_clean_sbu_0, # of connection points: 4
#     Node 42, Type 1, BuildingBlock: ESEHIV_clean_sbu_0, # of connection points: 4
#     Node 43, Type 1, BuildingBlock: ESEHIV_clean_sbu_0, # of connection points: 4
#     Node 44, Type 1, BuildingBlock: ESEHIV_clean_sbu_0, # of connection points: 4
#     Node 45, Type 1, BuildingBlock: ESEHIV_clean_sbu_0, # of connection points: 4
#     Node 46, Type 1, BuildingBlock: ESEHIV_clean_sbu_0, # of connection points: 4
#     Node 47, Type 1, BuildingBlock: ESEHIV_clean_sbu_0, # of connection points: 4
#     Node 48, Type 1, BuildingBlock: ESEHIV_clean_sbu_0, # of connection points: 4
#     Node 49, Type 1, BuildingBlock: ESEHIV_clean_sbu_0, # of connection points: 4
#     Node 50, Type 1, BuildingBlock: ESEHIV_clean_sbu_0, # of connection points: 4
#     Node 51, Type 1, BuildingBlock: ESEHIV_clean_sbu_0, # of connection points: 4
#     Node 52, Type 1, BuildingBlock: ESEHIV_clean_sbu_0, # of connection points: 4
#     Node 53, Type 1, BuildingBlock: ESEHIV_clean_sbu_0, # of connection points: 4
#     Node 54, Type 1, BuildingBlock: ESEHIV_clean_sbu_0, # of connection points: 4
#     Node 55, Type 1, BuildingBlock: ESEHIV_clean_sbu_0, # of connection points: 4
#     Edge 56, Type (0, 1), BuildingBlock: KIFKEQ_clean_linker_1, # of connection points: 2
#     Edge 57, Type (0, 1), BuildingBlock: KIFKEQ_clean_linker_1, # of connection points: 2
#     Edge 58, Type (0, 1), BuildingBlock: KIFKEQ_clean_linker_1, # of connection points: 2
#     Edge 59, Type (0, 1), BuildingBlock: KIFKEQ_clean_linker_1, # of connection points: 2
#     Edge 60, Type (0, 1), BuildingBlock: KIFKEQ_clean_linker_1, # of connection points: 2
#     Edge 61, Type (0, 1), BuildingBlock: KIFKEQ_clean_linker_1, # of connection points: 2
#     Edge 62, Type (0, 1), BuildingBlock: KIFKEQ_clean_linker_1, # of connection points: 2
#     Edge 63, Type (0, 1), BuildingBlock: KIFKEQ_clean_linker_1, # of connection points: 2
#     Edge 64, Type (0, 1), BuildingBlock: KIFKEQ_clean_linker_1, # of connection points: 2
#     Edge 65, Type (0, 1), BuildingBlock: KIFKEQ_clean_linker_1, # of connection points: 2
#     Edge 66, Type (0, 1), BuildingBlock: KIFKEQ_clean_linker_1, # of connection points: 2
#     Edge 67, Type (0, 1), BuildingBlock: KIFKEQ_clean_linker_1, # of connection points: 2
#     Edge 68, Type (0, 1), BuildingBlock: KIFKEQ_clean_linker_1, # of connection points: 2
#     Edge 69, Type (0, 1), BuildingBlock: KIFKEQ_clean_linker_1, # of connection points: 2
#     Edge 70, Type (0, 1), BuildingBlock: KIFKEQ_clean_linker_1, # of connection points: 2
#     Edge 71, Type (0, 1), BuildingBlock: KIFKEQ_clean_linker_1, # of connection points: 2
#     Edge 72, Type (0, 1), BuildingBlock: KIFKEQ_clean_linker_1, # of connection points: 2
#     Edge 73, Type (0, 1), BuildingBlock: KIFKEQ_clean_linker_1, # of connection points: 2
#     Edge 74, Type (0, 1), BuildingBlock: KIFKEQ_clean_linker_1, # of connection points: 2
#     Edge 75, Type (0, 1), BuildingBlock: KIFKEQ_clean_linker_1, # of connection points: 2
#     Edge 76, Type (0, 1), BuildingBlock: KIFKEQ_clean_linker_1, # of connection points: 2
#     Edge 77, Type (0, 1), BuildingBlock: KIFKEQ_clean_linker_1, # of connection points: 2
#     Edge 78, Type (0, 1), BuildingBlock: KIFKEQ_clean_linker_1, # of connection points: 2
#     Edge 79, Type (0, 1), BuildingBlock: KIFKEQ_clean_linker_1, # of connection points: 2
#     Edge 80, Type (0, 1), BuildingBlock: KIFKEQ_clean_linker_1, # of connection points: 2
#     Edge 81, Type (0, 1), BuildingBlock: KIFKEQ_clean_linker_1, # of connection points: 2
#     Edge 82, Type (0, 1), BuildingBlock: KIFKEQ_clean_linker_1, # of connection points: 2
#     Edge 83, Type (0, 1), BuildingBlock: KIFKEQ_clean_linker_1, # of connection points: 2
#     Edge 84, Type (0, 1), BuildingBlock: KIFKEQ_clean_linker_1, # of connection points: 2
#     Edge 85, Type (0, 1), BuildingBlock: KIFKEQ_clean_linker_1, # of connection points: 2
#     Edge 86, Type (0, 1), BuildingBlock: KIFKEQ_clean_linker_1, # of connection points: 2
#     Edge 87, Type (0, 1), BuildingBlock: KIFKEQ_clean_linker_1, # of connection points: 2
#     Edge 88, Type (0, 1), BuildingBlock: KIFKEQ_clean_linker_1, # of connection points: 2
#     Edge 89, Type (0, 1), BuildingBlock: KIFKEQ_clean_linker_1, # of connection points: 2
#     Edge 90, Type (0, 1), BuildingBlock: KIFKEQ_clean_linker_1, # of connection points: 2
#     Edge 91, Type (0, 1), BuildingBlock: KIFKEQ_clean_linker_1, # of connection points: 2
#     Edge 92, Type (0, 1), BuildingBlock: KIFKEQ_clean_linker_1, # of connection points: 2
#     Edge 93, Type (0, 1), BuildingBlock: KIFKEQ_clean_linker_1, # of connection points: 2
#     Edge 94, Type (0, 1), BuildingBlock: KIFKEQ_clean_linker_1, # of connection points: 2
#     Edge 95, Type (0, 1), BuildingBlock: KIFKEQ_clean_linker_1, # of connection points: 2
#     Edge 96, Type (0, 1), BuildingBlock: KIFKEQ_clean_linker_1, # of connection points: 2
#     Edge 97, Type (0, 1), BuildingBlock: KIFKEQ_clean_linker_1, # of connection points: 2
#     Edge 98, Type (0, 1), BuildingBlock: KIFKEQ_clean_linker_1, # of connection points: 2
#     Edge 99, Type (0, 1), BuildingBlock: KIFKEQ_clean_linker_1, # of connection points: 2
#     Edge 100, Type (0, 1), BuildingBlock: KIFKEQ_clean_linker_1, # of connection points: 2
#     Edge 101, Type (0, 1), BuildingBlock: KIFKEQ_clean_linker_1, # of connection points: 2
#     Edge 102, Type (0, 1), BuildingBlock: KIFKEQ_clean_linker_1, # of connection points: 2
#     Edge 103, Type (0, 1), BuildingBlock: KIFKEQ_clean_linker_1, # of connection points: 2
#     Edge 104, Type (0, 1), BuildingBlock: KIFKEQ_clean_linker_1, # of connection points: 2
#     Edge 105, Type (0, 1), BuildingBlock: KIFKEQ_clean_linker_1, # of connection points: 2
#     Edge 106, Type (0, 1), BuildingBlock: KIFKEQ_clean_linker_1, # of connection points: 2
#     Edge 107, Type (0, 1), BuildingBlock: KIFKEQ_clean_linker_1, # of connection points: 2
#     Edge 108, Type (0, 1), BuildingBlock: KIFKEQ_clean_linker_1, # of connection points: 2
#     Edge 109, Type (0, 1), BuildingBlock: KIFKEQ_clean_linker_1, # of connection points: 2
#     Edge 110, Type (0, 1), BuildingBlock: KIFKEQ_clean_linker_1, # of connection points: 2
#     Edge 111, Type (0, 1), BuildingBlock: KIFKEQ_clean_linker_1, # of connection points: 2
#     Edge 112, Type (0, 1), BuildingBlock: KIFKEQ_clean_linker_1, # of connection points: 2
#     Edge 113, Type (0, 1), BuildingBlock: KIFKEQ_clean_linker_1, # of connection points: 2
#     Edge 114, Type (0, 1), BuildingBlock: KIFKEQ_clean_linker_1, # of connection points: 2
#     Edge 115, Type (0, 1), BuildingBlock: KIFKEQ_clean_linker_1, # of connection points: 2
#     Edge 116, Type (0, 1), BuildingBlock: KIFKEQ_clean_linker_1, # of connection points: 2
#     Edge 117, Type (0, 1), BuildingBlock: KIFKEQ_clean_linker_1, # of connection points: 2
#     Edge 118, Type (0, 1), BuildingBlock: KIFKEQ_clean_linker_1, # of connection points: 2
#     Edge 119, Type (0, 1), BuildingBlock: KIFKEQ_clean_linker_1, # of connection points: 2
#     Edge 120, Type (0, 1), BuildingBlock: KIFKEQ_clean_linker_1, # of connection points: 2
#     Edge 121, Type (0, 1), BuildingBlock: KIFKEQ_clean_linker_1, # of connection points: 2
#     Edge 122, Type (0, 1), BuildingBlock: KIFKEQ_clean_linker_1, # of connection points: 2
#     Edge 123, Type (0, 1), BuildingBlock: KIFKEQ_clean_linker_1, # of connection points: 2
#     Edge 124, Type (0, 1), BuildingBlock: KIFKEQ_clean_linker_1, # of connection points: 2
#     Edge 125, Type (0, 1), BuildingBlock: KIFKEQ_clean_linker_1, # of connection points: 2
#     Edge 126, Type (0, 1), BuildingBlock: KIFKEQ_clean_linker_1, # of connection points: 2
#     Edge 127, Type (0, 1), BuildingBlock: KIFKEQ_clean_linker_1, # of connection points: 2
#     Edge 128, Type (0, 1), BuildingBlock: KIFKEQ_clean_linker_1, # of connection points: 2
#     Edge 129, Type (0, 1), BuildingBlock: KIFKEQ_clean_linker_1, # of connection points: 2
#     Edge 130, Type (0, 1), BuildingBlock: KIFKEQ_clean_linker_1, # of connection points: 2
#     Edge 131, Type (0, 1), BuildingBlock: KIFKEQ_clean_linker_1, # of connection points: 2
#     Edge 132, Type (0, 1), BuildingBlock: KIFKEQ_clean_linker_1, # of connection points: 2
#     Edge 133, Type (0, 1), BuildingBlock: KIFKEQ_clean_linker_1, # of connection points: 2
#     Edge 134, Type (0, 1), BuildingBlock: KIFKEQ_clean_linker_1, # of connection points: 2
#     Edge 135, Type (0, 1), BuildingBlock: KIFKEQ_clean_linker_1, # of connection points: 2
#     Edge 136, Type (0, 1), BuildingBlock: KIFKEQ_clean_linker_1, # of connection points: 2
#     Edge 137, Type (0, 1), BuildingBlock: KIFKEQ_clean_linker_1, # of connection points: 2
#     Edge 138, Type (0, 1), BuildingBlock: KIFKEQ_clean_linker_1, # of connection points: 2
#     Edge 139, Type (0, 1), BuildingBlock: KIFKEQ_clean_linker_1, # of connection points: 2
#     Edge 140, Type (0, 1), BuildingBlock: KIFKEQ_clean_linker_1, # of connection points: 2
#     Edge 141, Type (0, 1), BuildingBlock: KIFKEQ_clean_linker_1, # of connection points: 2
#     Edge 142, Type (0, 1), BuildingBlock: KIFKEQ_clean_linker_1, # of connection points: 2
#     Edge 143, Type (0, 1), BuildingBlock: KIFKEQ_clean_linker_1, # of connection points: 2
#     Edge 144, Type (0, 1), BuildingBlock: KIFKEQ_clean_linker_1, # of connection points: 2
#     Edge 145, Type (0, 1), BuildingBlock: KIFKEQ_clean_linker_1, # of connection points: 2
#     Edge 146, Type (0, 1), BuildingBlock: KIFKEQ_clean_linker_1, # of connection points: 2
#     Edge 147, Type (0, 1), BuildingBlock: KIFKEQ_clean_linker_1, # of connection points: 2
#     Edge 148, Type (0, 1), BuildingBlock: KIFKEQ_clean_linker_1, # of connection points: 2
#     Edge 149, Type (0, 1), BuildingBlock: KIFKEQ_clean_linker_1, # of connection points: 2
#     Edge 150, Type (0, 1), BuildingBlock: KIFKEQ_clean_linker_1, # of connection points: 2
#     Edge 151, Type (0, 1), BuildingBlock: KIFKEQ_clean_linker_1, # of connection points: 2
# Relax obj value: 0.002
# Max RMSD: 0.123
# Mean RMSD: 0.049
data_MOF--net-tbo--node1-ESEHIV_clean_sbu_0--node2-ESEHIV_clean_linker_0--edge1-KIFKEQ_clean_linker_1
_symmetry_space_group_name_H-M    P1
_symmetry_Int_Tables_number       1
_symmetry_cell_setting            triclinic
loop_
_symmetry_equiv_pos_as_xyz
'x, y, z'
_cell_length_a     70.862001
_cell_length_b     70.71057
_cell_length_c     70.913864
_cell_angle_alpha  90.154776
_cell_angle_beta   92.672942
_cell_angle_gamma 90.916147
loop_
_atom_site_label
_atom_site_type_symbol
_atom_site_fract_x
_atom_site_fract_y
_atom_site_fract_z
_atom_type_partial_charge
H0 H 0.18655 0.19139 0.18025 0.0
H1 H 0.22917 0.14858 0.18064 0.0
H2 H 0.18858 0.14873 0.22351 0.0
C3 C 0.19311 0.17915 0.18675 0.0
C4 C 0.18548 0.17113 0.203 0.0
C5 C 0.20884 0.17105 0.17847 0.0
C6 C 0.21685 0.15472 0.18659 0.0
C7 C 0.20954 0.14655 0.20274 0.0
C8 C 0.19405 0.15496 0.21091 0.0
H9 H 0.89522 0.19054 0.21048 0.0
H10 H 0.89561 0.2304 0.16491 0.0
H11 H 0.84941 0.19056 0.1683 0.0
C12 C 0.8886 0.19605 0.1976 0.0
C13 C 0.87118 0.1884 0.19061 0.0
C14 C 0.89755 0.21108 0.18842 0.0
C15 C 0.88878 0.21883 0.1721 0.0
C16 C 0.87127 0.21156 0.16497 0.0
C17 C 0.8626 0.19641 0.17426 0.0
H18 H 0.8058 0.89424 0.15741 0.0
H19 H 0.84889 0.85216 0.1576 0.0
H20 H 0.84925 0.89382 0.20194 0.0
C21 C 0.81841 0.88816 0.16394 0.0
C22 C 0.82652 0.89612 0.1807 0.0
C23 C 0.82644 0.8724 0.15544 0.0
C24 C 0.84269 0.86434 0.16408 0.0
C25 C 0.85097 0.87186 0.18097 0.0
C26 C 0.84285 0.88785 0.18904 0.0
H27 H 0.13655 0.83988 0.20014 0.0
H28 H 0.1848 0.85249 0.16776 0.0
H29 H 0.1479 0.80561 0.15172 0.0
C30 C 0.14534 0.83655 0.18851 0.0
C31 C 0.14033 0.82126 0.17645 0.0
C32 C 0.16118 0.848 0.18531 0.0
C33 C 0.1724 0.8438 0.17013 0.0
C34 C 0.16786 0.8285 0.158 0.0
C35 C 0.15152 0.81746 0.16099 0.0
H36 H 0.18085 0.89324 0.82572 0.0
H37 H 0.173 0.84549 0.86244 0.0
H38 H 0.22087 0.88315 0.87179 0.0
C39 C 0.18559 0.88464 0.83761 0.0
C40 C 0.20219 0.88988 0.84803 0.0
C41 C 0.17498 0.86855 0.84257 0.0
C42 C 0.18113 0.85779 0.85835 0.0
C43 C 0.19757 0.86306 0.8691 0.0
C44 C 0.20812 0.879 0.86366 0.0
H45 H 0.17793 0.23209 0.88376 0.0
H46 H 0.2211 0.19083 0.87912 0.0
H47 H 0.17431 0.19202 0.83786 0.0
C48 C 0.18356 0.22013 0.87639 0.0
C49 C 0.17376 0.21274 0.86028 0.0
C50 C 0.20053 0.21231 0.88324 0.0
C51 C 0.20802 0.19694 0.87367 0.0
C52 C 0.19886 0.18959 0.85703 0.0
C53 C 0.18159 0.19755 0.85052 0.0
H54 H 0.84853 0.15769 0.85097 0.0
H55 H 0.88838 0.16592 0.80748 0.0
H56 H 0.89015 0.20278 0.85558 0.0
C57 C 0.86025 0.16552 0.84534 0.0
C58 C 0.86848 0.18091 0.8556 0.0
C59 C 0.86723 0.16013 0.82782 0.0
C60 C 0.88257 0.17024 0.82067 0.0
C61 C 0.89109 0.18531 0.83086 0.0
C62 C 0.88386 0.19067 0.84811 0.0
H63 H 0.83526 0.88362 0.86982 0.0
H64 H 0.88226 0.84599 0.87066 0.0
H65 H 0.87626 0.88751 0.82682 0.0
C66 C 0.84787 0.87854 0.86351 0.0
C67 C 0.85426 0.88724 0.84706 0.0
C68 C 0.85807 0.86385 0.87231 0.0
C69 C 0.87467 0.85775 0.86435 0.0
C70 C 0.88148 0.86628 0.84813 0.0
C71 C 0.87113 0.88095 0.83942 0.0
H72 H 0.17479 0.72397 0.65888 0.0
H73 H 0.22192 0.68786 0.65053 0.0
H74 H 0.189 0.68105 0.69968 0.0
C75 C 0.1837 0.71246 0.66364 0.0
C76 C 0.18017 0.70331 0.68073 0.0
C77 C 0.19871 0.70702 0.65265 0.0
C78 C 0.21027 0.69205 0.6589 0.0
C79 C 0.20687 0.68248 0.67585 0.0
C80 C 0.19175 0.68826 0.68661 0.0
H81 H 0.88781 0.70718 0.6963 0.0
H82 H 0.88564 0.74717 0.65087 0.0
H83 H 0.84323 0.70289 0.65325 0.0
C84 C 0.88077 0.71254 0.68356 0.0
C85 C 0.86456 0.70309 0.67595 0.0
C86 C 0.88833 0.72857 0.67478 0.0
C87 C 0.87972 0.73494 0.65777 0.0
C88 C 0.86347 0.72571 0.64974 0.0
C89 C 0.85602 0.70977 0.65897 0.0
H90 H 0.8185 0.39525 0.66418 0.0
H91 H 0.86607 0.35985 0.67767 0.0
H92 H 0.85516 0.40733 0.71314 0.0
C93 C 0.83068 0.39186 0.67328 0.0
C94 C 0.83528 0.40319 0.68933 0.0
C95 C 0.84182 0.37624 0.66886 0.0
C96 C 0.85765 0.37206 0.68071 0.0
C97 C 0.86246 0.38308 0.69677 0.0
C98 C 0.85116 0.39852 0.70103 0.0
H99 H 0.16327 0.38995 0.71905 0.0
H100 H 0.20556 0.3823 0.67823 0.0
H101 H 0.16057 0.34127 0.68251 0.0
C102 C 0.16914 0.38161 0.70797 0.0
C103 C 0.15978 0.3649 0.70164 0.0
C104 C 0.18573 0.38798 0.69969 0.0
C105 C 0.19285 0.37746 0.68477 0.0
C106 C 0.18369 0.36071 0.67827 0.0
C107 C 0.1673 0.35452 0.68695 0.0
H108 H 0.18511 0.37639 0.33914 0.0
H109 H 0.1832 0.33378 0.38249 0.0
H110 H 0.22998 0.37309 0.38186 0.0
C111 C 0.19136 0.3696 0.35155 0.0
C112 C 0.20873 0.37649 0.35942 0.0
C113 C 0.18197 0.3541 0.35963 0.0
C114 C 0.19013 0.34576 0.37608 0.0
C115 C 0.2076 0.35241 0.38396 0.0
C116 C 0.21678 0.36765 0.37548 0.0
H117 H 0.16721 0.70914 0.36191 0.0
H118 H 0.20449 0.66203 0.3593 0.0
H119 H 0.15901 0.6674 0.31762 0.0
C120 C 0.17119 0.69609 0.35523 0.0
C121 C 0.16071 0.68942 0.33906 0.0
C122 C 0.18697 0.68633 0.36275 0.0
C123 C 0.1925 0.66983 0.35358 0.0
C124 C 0.1827 0.66313 0.33715 0.0
C125 C 0.16686 0.67298 0.32992 0.0
H126 H 0.82189 0.64863 0.34603 0.0
H127 H 0.86477 0.64934 0.30536 0.0
H128 H 0.86169 0.69531 0.34508 0.0
C129 C 0.83378 0.65576 0.33989 0.0
C130 C 0.84081 0.67295 0.34761 0.0
C131 C 0.84246 0.64715 0.32486 0.0
C132 C 0.85788 0.65622 0.3168 0.0
C133 C 0.86475 0.67382 0.32373 0.0
C134 C 0.85617 0.68204 0.33927 0.0
H135 H 0.83697 0.35228 0.37778 0.0
H136 H 0.87393 0.30654 0.39356 0.0
H137 H 0.88385 0.33985 0.34408 0.0
C138 C 0.84931 0.34389 0.37537 0.0
C139 C 0.85975 0.34758 0.35942 0.0
C140 C 0.85427 0.32916 0.38787 0.0
C141 C 0.87 0.31795 0.38408 0.0
C142 C 0.88072 0.32151 0.36811 0.0
C143 C 0.87543 0.33645 0.35602 0.0
H144 H 0.68278 0.20604 0.66713 0.0
H145 H 0.72161 0.15994 0.66245 0.0
H146 H 0.6872 0.16391 0.71051 0.0
C147 C 0.68896 0.19308 0.67247 0.0
C148 C 0.68325 0.18589 0.68978 0.0
C149 C 0.70308 0.1841 0.66251 0.0
C150 C 0.71102 0.16733 0.67002 0.0
C151 C 0.70549 0.16015 0.68745 0.0
C152 C 0.69174 0.16961 0.69724 0.0
H153 H 0.39914 0.20323 0.71484 0.0
H154 H 0.39485 0.24345 0.66959 0.0
H155 H 0.3516 0.20066 0.67473 0.0
C156 C 0.39163 0.20858 0.70236 0.0
C157 C 0.37444 0.19992 0.696 0.0
C158 C 0.39901 0.22441 0.69303 0.0
C159 C 0.38895 0.23163 0.67717 0.0
C160 C 0.37188 0.22315 0.67041 0.0
C161 C 0.36471 0.20732 0.67994 0.0
H162 H 0.30987 0.9011 0.66908 0.0
H163 H 0.35499 0.8621 0.67979 0.0
H164 H 0.34754 0.90807 0.7183 0.0
C165 C 0.32187 0.89649 0.67782 0.0
C166 C 0.32746 0.90669 0.69437 0.0
C167 C 0.33184 0.8804 0.67246 0.0
C168 C 0.3473 0.87446 0.68391 0.0
C169 C 0.35299 0.88419 0.70055 0.0
C170 C 0.34306 0.90036 0.70561 0.0
H171 H 0.65716 0.8599 0.6919 0.0
H172 H 0.69444 0.85024 0.64697 0.0
H173 H 0.64553 0.81429 0.65232 0.0
C174 C 0.66083 0.85181 0.67964 0.0
C175 C 0.64925 0.83639 0.67337 0.0
C176 C 0.67726 0.85677 0.6703 0.0
C177 C 0.68183 0.84644 0.65427 0.0
C178 C 0.67037 0.83125 0.64757 0.0
C179 C 0.65421 0.8262 0.65729 0.0
H180 H 0.67499 0.87972 0.32098 0.0
H181 H 0.67546 0.83238 0.35925 0.0
H182 H 0.71464 0.87864 0.36879 0.0
C183 C 0.68056 0.87278 0.3336 0.0
C184 C 0.69565 0.88137 0.34426 0.0
C185 C 0.67312 0.855 0.33873 0.0
C186 C 0.68114 0.84588 0.3548 0.0
C187 C 0.6961 0.85434 0.36566 0.0
C188 C 0.70316 0.87209 0.36036 0.0
H189 H 0.66175 0.21777 0.36695 0.0
H190 H 0.7049 0.17941 0.352 0.0
H191 H 0.65486 0.18465 0.31575 0.0
C192 C 0.6668 0.20723 0.35736 0.0
C193 C 0.65597 0.20233 0.34079 0.0
C194 C 0.68457 0.19917 0.36126 0.0
C195 C 0.69139 0.18588 0.34867 0.0
C196 C 0.6808 0.18044 0.33223 0.0
C197 C 0.66308 0.18874 0.32841 0.0
H198 H 0.3144 0.15546 0.38199 0.0
H199 H 0.35428 0.14941 0.33879 0.0
H200 H 0.35775 0.19792 0.37592 0.0
C201 C 0.32633 0.16099 0.37458 0.0
C202 C 0.33495 0.17812 0.38048 0.0
C203 C 0.33324 0.15053 0.35967 0.0
C204 C 0.34919 0.15729 0.3506 0.0
C205 C 0.35817 0.17444 0.35627 0.0
C206 C 0.35095 0.18476 0.37132 0.0
H207 H 0.3286 0.85704 0.36606 0.0
H208 H 0.37568 0.82092 0.37917 0.0
H209 H 0.37473 0.85516 0.32898 0.0
C210 C 0.34227 0.85158 0.36277 0.0
C211 C 0.35078 0.85779 0.34636 0.0
C212 C 0.3511 0.83833 0.37481 0.0
C213 C 0.36859 0.83101 0.36993 0.0
C214 C 0.37727 0.83691 0.35342 0.0
C215 C 0.36837 0.85062 0.34186 0.0
H216 H 0.68037 0.70018 0.17399 0.0
H217 H 0.72481 0.66044 0.16771 0.0
H218 H 0.68142 0.64901 0.20687 0.0
C219 C 0.68692 0.68688 0.17779 0.0
C220 C 0.67913 0.67536 0.19169 0.0
C221 C 0.70358 0.68161 0.16934 0.0
C222 C 0.71197 0.66443 0.17434 0.0
C223 C 0.70398 0.65229 0.18752 0.0
C224 C 0.68773 0.65809 0.19652 0.0
H225 H 0.38195 0.69178 0.19953 0.0
H226 H 0.37496 0.72709 0.15063 0.0
H227 H 0.3381 0.67862 0.15745 0.0
C228 C 0.37459 0.69484 0.18617 0.0
C229 C 0.35937 0.68324 0.17974 0.0
C230 C 0.38038 0.71054 0.17569 0.0
C231 C 0.37071 0.71473 0.15847 0.0
C232 C 0.35505 0.70351 0.15191 0.0
C233 C 0.34967 0.68771 0.16262 0.0
H234 H 0.32126 0.38241 0.17675 0.0
H235 H 0.36188 0.33802 0.17869 0.0
H236 H 0.36629 0.38318 0.21972 0.0
C237 C 0.33369 0.37604 0.18338 0.0
C238 C 0.34274 0.38477 0.19927 0.0
C239 C 0.34046 0.35922 0.17587 0.0
C240 C 0.35666 0.35106 0.18443 0.0
C241 C 0.36625 0.35962 0.2002 0.0
C242 C 0.35909 0.37647 0.20759 0.0
H243 H 0.6609 0.35381 0.20401 0.0
H244 H 0.70356 0.35946 0.16328 0.0
H245 H 0.66569 0.31126 0.16099 0.0
C246 C 0.66792 0.34817 0.19201 0.0
C247 C 0.66115 0.33138 0.18316 0.0
C248 C 0.68323 0.35828 0.18491 0.0
C249 C 0.69194 0.35145 0.16889 0.0
C250 C 0.6857 0.3345 0.16006 0.0
C251 C 0.67036 0.32455 0.16741 0.0
H252 H 0.69902 0.38835 0.82545 0.0
H253 H 0.69826 0.34171 0.86447 0.0
H254 H 0.7431 0.3834 0.86871 0.0
C255 C 0.70505 0.38089 0.83757 0.0
C256 C 0.72178 0.38795 0.84663 0.0
C257 C 0.69662 0.3639 0.84356 0.0
C258 C 0.70497 0.35438 0.8592 0.0
C259 C 0.7217 0.36127 0.86843 0.0
C260 C 0.73007 0.37803 0.86191 0.0
H261 H 0.67691 0.73186 0.8636 0.0
H262 H 0.71897 0.68896 0.86402 0.0
H263 H 0.67524 0.68995 0.81947 0.0
C264 C 0.68289 0.71958 0.85707 0.0
C265 C 0.6741 0.71184 0.84061 0.0
C266 C 0.69897 0.71141 0.86558 0.0
C267 C 0.70651 0.69525 0.85739 0.0
C268 C 0.69822 0.6874 0.84054 0.0
C269 C 0.68173 0.69565 0.83246 0.0
H270 H 0.33455 0.67807 0.86688 0.0
H271 H 0.37083 0.66993 0.82034 0.0
H272 H 0.38 0.71741 0.85774 0.0
C273 C 0.34647 0.68246 0.85882 0.0
C274 C 0.3566 0.69904 0.86407 0.0
C275 C 0.35129 0.67187 0.8429 0.0
C276 C 0.3666 0.67809 0.83235 0.0
C277 C 0.3771 0.69437 0.83782 0.0
C278 C 0.37191 0.70482 0.85354 0.0
H279 H 0.34684 0.37653 0.87787 0.0
H280 H 0.3902 0.33468 0.88338 0.0
H281 H 0.38991 0.37334 0.83696 0.0
C282 C 0.35931 0.36998 0.87266 0.0
C283 C 0.36714 0.37669 0.85593 0.0
C284 C 0.36772 0.35492 0.88279 0.0
C285 C 0.38375 0.34639 0.8758 0.0
C286 C 0.39179 0.35294 0.85934 0.0
C287 C 0.3835 0.36813 0.84956 0.0
Cu288 Cu 0.28644 0.2696 0.03393 0.0
N289 N 0.30837 0.27462 0.02102 0.0
N290 N 0.32623 0.28829 0.99949 0.0
C291 C 0.30891 0.28147 1.00331 0.0
C292 C 0.33704 0.28544 0.01537 0.0
C293 C 0.32598 0.27715 0.02863 0.0
O294 O 0.26675 0.26227 0.01517 0.0
C295 C 0.27458 0.29233 0.06468 0.0
O296 O 0.26277 0.27843 0.06816 0.0
H297 H 0.29652 0.2829 0.99396 0.0
H298 H 0.33014 0.27459 0.04324 0.0
N299 N 0.28905 0.24911 0.05052 0.0
N300 N 0.28034 0.22869 0.07272 0.0
C301 C 0.2745 0.24058 0.05886 0.0
C302 C 0.30473 0.24192 0.05902 0.0
C303 C 0.29939 0.22929 0.07269 0.0
C304 C 0.25833 0.27254 1.00284 0.0
O305 O 0.2607 0.29099 1.00353 0.0
H306 H 0.25987 0.24378 0.0554 0.0
H307 H 0.31901 0.24624 0.05625 0.0
O308 O 0.28322 0.29218 0.04933 0.0
H309 H 0.35167 0.28987 0.0176 0.0
H310 H 0.30882 0.22208 0.08263 0.0
Cu311 Cu 0.78661 0.26413 1.00991 0.0
N312 N 0.76414 0.2714 0.02324 0.0
N313 N 0.74443 0.28307 0.0439 0.0
C314 C 0.76269 0.28056 0.03984 0.0
C315 C 0.73412 0.27522 0.02935 0.0
C316 C 0.74628 0.26801 0.0167 0.0
O317 O 0.79829 0.2525 0.03404 0.0
C318 C 0.78142 0.29236 0.9808 0.0
O319 O 0.79524 0.30062 0.99089 0.0
H320 H 0.77462 0.28552 0.04864 0.0
H321 H 0.74241 0.26078 1.00359 0.0
N322 N 0.80843 0.25616 0.99602 0.0
N323 N 0.82539 0.24197 0.97445 0.0
C324 C 0.80788 0.24616 0.97978 0.0
C325 C 0.82685 0.2585 1.00109 0.0
C326 C 0.83735 0.24969 0.98783 0.0
C327 C 0.80775 0.26294 0.04585 0.0
O328 O 0.80975 0.28107 0.04228 0.0
H329 H 0.79491 0.24169 0.97228 0.0
H330 H 0.83227 0.26589 0.01361 0.0
O331 O 0.77531 0.27626 0.98597 0.0
H332 H 0.71884 0.27444 0.0281 0.0
H333 H 0.85261 0.2491 0.98795 0.0
Cu334 Cu 0.77519 0.7756 0.01844 0.0
N335 N 0.7981 0.78009 1.00726 0.0
N336 N 0.81787 0.79202 0.98658 0.0
C337 C 0.79991 0.78677 0.98968 0.0
C338 C 0.82782 0.78826 1.0028 0.0
C339 C 0.81557 0.78085 0.01555 0.0
O340 O 0.75708 0.7669 0.99876 0.0
C341 C 0.77786 0.81333 0.03269 0.0
O342 O 0.78779 0.81691 0.01789 0.0
H343 H 0.78805 0.78911 0.97986 0.0
H344 H 0.81892 0.7773 0.03014 0.0
N345 N 0.77721 0.75602 0.03575 0.0
N346 N 0.76966 0.73819 0.06034 0.0
C347 C 0.76648 0.75441 0.05081 0.0
C348 C 0.78769 0.74036 0.03563 0.0
C349 C 0.7831 0.72932 0.05085 0.0
C350 C 0.74918 0.77653 0.98559 0.0
O351 O 0.75102 0.79504 0.98578 0.0
H352 H 0.7564 0.76497 0.05452 0.0
H353 H 0.79759 0.73701 0.025 0.0
O354 O 0.76899 0.79756 0.03358 0.0
H355 H 0.84272 0.7913 1.0055 0.0
H356 H 0.7888 0.71558 0.05424 0.0
Cu357 Cu 0.27672 0.78075 1.01089 0.0
N358 N 0.27281 0.79915 0.02924 0.0
N359 N 0.25804 0.81223 0.05317 0.0
C360 C 0.25844 0.79764 0.0409 0.0
C361 C 0.27296 0.8234 0.04902 0.0
C362 C 0.28206 0.81528 0.03423 0.0
O363 O 0.27739 0.75699 0.02502 0.0
C364 C 0.26003 0.80123 0.98334 0.0
O365 O 0.2739 0.81189 0.99061 0.0
H366 H 0.24869 0.7857 0.04051 0.0
H367 H 0.29447 0.82073 0.02762 0.0
N368 N 0.29959 0.78222 0.9987 0.0
N369 N 0.31942 0.77428 0.9765 0.0
C370 C 0.3014 0.77408 0.98173 0.0
C371 C 0.31714 0.78804 1.0044 0.0
C372 C 0.32948 0.78298 0.99073 0.0
C373 C 0.29049 0.75751 0.03804 0.0
O374 O 0.30107 0.77283 0.04011 0.0
H375 H 0.2898 0.76714 0.97383 0.0
H376 H 0.32086 0.79477 0.01781 0.0
O377 O 0.25739 0.78495 0.99066 0.0
H378 H 0.27699 0.83657 0.05602 0.0
H379 H 0.34465 0.78515 0.99137 0.0
Cu380 Cu 0.0417 0.2627 0.29104 0.0
N381 N 0.05692 0.2415 0.28852 0.0
N382 N 0.07845 0.22271 0.27646 0.0
C383 C 0.07132 0.24028 0.2768 0.0
C384 C 0.06824 0.21247 0.2885 0.0
C385 C 0.05506 0.22415 0.29605 0.0
O386 O 0.05952 0.28418 0.29241 0.0
C387 C 1.01245 0.24718 0.26969 0.0
O388 O 0.0154 0.23481 0.28325 0.0
H389 H 0.07597 0.25187 0.26811 0.0
H390 H 0.0445 0.22013 0.30588 0.0
N391 N 0.02812 0.26177 0.31317 0.0
N392 N 1.00443 0.26629 0.33243 0.0
C393 C 1.00982 0.26636 0.31442 0.0
C394 C 0.03455 0.25864 0.33103 0.0
C395 C 0.01997 0.26151 0.34297 0.0
C396 C 0.05909 0.29733 0.30472 0.0
O397 O 0.04404 0.29894 0.31471 0.0
H398 H 1.00084 0.27049 0.30242 0.0
H399 H 0.04897 0.25515 0.33512 0.0
O400 O 0.02297 0.26202 0.26975 0.0
H401 H 0.07007 0.19759 0.29148 0.0
H402 H 0.02078 0.26041 0.35821 0.0
Cu403 Cu 0.76736 0.0423 0.26527 0.0
N404 N 0.79041 0.05561 0.26516 0.0
N405 N 0.81189 0.07702 0.25658 0.0
C406 C 0.79345 0.07189 0.25585 0.0
C407 C 0.82082 0.06345 0.26674 0.0
C408 C 0.80751 0.05029 0.27209 0.0
O409 O 0.74712 0.06078 0.26336 0.0
C410 C 0.7784 1.00919 0.24893 0.0
O411 O 0.78796 1.00871 0.26522 0.0
H412 H 0.78245 0.07941 0.24803 0.0
H413 H 0.81019 0.03749 0.28001 0.0
N414 N 0.76425 0.02903 0.28774 0.0
N415 N 0.75423 1.00604 0.30667 0.0
C416 C 0.75306 0.0136 0.28919 0.0
C417 C 0.77276 0.03156 0.30493 0.0
C418 C 0.76661 0.01737 0.31665 0.0
C419 C 0.74865 0.07413 0.27551 0.0
O420 O 0.76319 0.0745 0.28768 0.0
H421 H 0.74483 1.00762 0.27732 0.0
H422 H 0.78293 0.04268 0.30857 0.0
O423 O 0.76778 0.02324 0.24517 0.0
H424 H 0.8359 0.06299 0.2699 0.0
H425 H 0.77105 0.01554 0.33133 0.0
Cu426 Cu 0.9998 0.76653 0.25557 0.0
N427 N 0.98736 0.78973 0.25366 0.0
N428 N 0.96562 0.81112 0.24491 0.0
C429 C 0.97081 0.79282 0.24404 0.0
C430 C 0.97946 0.81982 0.25564 0.0
C431 C 0.99283 0.80661 0.26098 0.0
O432 O 0.97997 0.74723 0.25819 0.0
C433 C 0.01682 0.77454 0.22044 0.0
O434 O 1.00381 0.78744 0.21809 0.0
H435 H 0.96279 0.78178 0.23654 0.0
H436 H 1.00573 0.80917 0.26942 0.0
N437 N 0.01645 0.7659 0.27689 0.0
N438 N 0.04121 0.7569 0.29534 0.0
C439 C 0.03359 0.75779 0.27755 0.0
C440 C 1.01319 0.7705 0.29485 0.0
C441 C 0.02842 0.76493 0.30627 0.0
C442 C 0.98138 0.73355 0.26982 0.0
O443 O 0.9978 0.73033 0.27848 0.0
H444 H 0.0398 0.75162 0.26536 0.0
H445 H 1.00028 0.77667 0.2994 0.0
O446 O 0.01599 0.76313 0.23427 0.0
H447 H 0.98015 0.83474 0.25906 0.0
H448 H 0.02976 0.76626 0.32149 0.0
Cu449 Cu 0.25031 0.99182 0.28337 0.0
N450 N 0.25306 1.00577 0.30569 0.0
N451 N 0.2647 0.0289 0.32455 0.0
C452 C 0.26495 0.02071 0.30739 0.0
C453 C 0.25202 0.01867 0.33408 0.0
C454 C 0.24489 1.00431 0.32239 0.0
O455 O 0.25005 1.01082 0.26347 0.0
C456 C 0.26864 0.9615 0.29724 0.0
O457 O 0.25422 0.96328 0.30808 0.0
H458 H 0.27331 0.02568 0.29596 0.0
H459 H 0.23456 0.99361 0.32585 0.0
N460 N 0.22767 0.9779 0.28083 0.0
N461 N 0.20722 0.95625 0.2686 0.0
C462 C 0.22469 0.96406 0.26798 0.0
C463 C 0.21156 0.97896 0.29008 0.0
C464 C 0.1989 0.96558 0.28257 0.0
C465 C 0.2362 0.02196 0.26488 0.0
O466 O 0.22417 0.0185 0.27803 0.0
H467 H 0.23535 0.95973 0.2585 0.0
H468 H 0.20908 0.98889 0.30128 0.0
O469 O 0.27058 0.97349 0.28404 0.0
H470 H 0.24827 0.02125 0.34847 0.0
H471 H 0.18459 0.96321 0.28683 0.0
Cu472 Cu 0.03549 0.79038 0.76582 0.0
N473 N 0.05072 0.76905 0.7663 0.0
N474 N 0.07309 0.74964 0.75678 0.0
C475 C 0.06419 0.76622 0.75391 0.0
C476 C 0.06484 0.74179 0.77176 0.0
C477 C 0.05104 0.7538 0.7776 0.0
O478 O 0.05344 0.81157 0.76494 0.0
C479 C 1.00684 0.77226 0.74654 0.0
O480 O 1.01057 0.76137 0.76118 0.0
H481 H 0.06744 0.77637 0.7431 0.0
H482 H 0.04177 0.75148 0.7891 0.0
N483 N 0.02146 0.79268 0.78737 0.0
N484 N 0.99835 0.8028 0.80514 0.0
C485 C 1.00458 0.80112 0.78753 0.0
C486 C 0.02613 0.78869 0.8055 0.0
C487 C 1.01185 0.79486 0.81651 0.0
C488 C 0.05293 0.8259 0.77584 0.0
O489 O 0.03742 0.82918 0.78465 0.0
H490 H 0.99728 0.80635 0.7749 0.0
H491 H 0.03928 0.78242 0.81042 0.0
O492 O 0.01694 0.78719 0.74474 0.0
H493 H 0.06825 0.72821 0.77791 0.0
H494 H 1.01184 0.79426 0.83176 0.0
Cu495 Cu 0.28021 0.05071 0.77801 0.0
N496 N 0.30305 0.06388 0.77477 0.0
N497 N 0.32305 0.08613 0.76462 0.0
C498 C 0.30485 0.08012 0.76503 0.0
C499 C 0.33303 0.07315 0.77468 0.0
C500 C 0.32066 0.05945 0.78088 0.0
O501 O 0.26143 0.06975 0.7843 0.0
C502 C 0.28548 0.03225 0.74256 0.0
O503 O 0.29876 0.04508 0.74031 0.0
H504 H 0.29297 0.08732 0.75836 0.0
H505 H 0.32428 0.04702 0.78905 0.0
N506 N 0.28183 0.03353 0.7981 0.0
N507 N 0.27426 1.00795 0.81483 0.0
C508 C 0.2723 0.01688 0.79809 0.0
C509 C 0.29032 0.0351 0.81544 0.0
C510 C 0.28553 0.01937 0.82586 0.0
C511 C 0.26674 0.0803 0.7983 0.0
O512 O 0.2835 0.07746 0.80637 0.0
H513 H 0.2634 1.01179 0.78627 0.0
H514 H 0.29902 0.04698 0.82035 0.0
O515 O 0.27444 0.03407 0.75616 0.0
H516 H 0.34823 0.07325 0.77702 0.0
H517 H 0.28985 0.01662 0.84042 0.0
Cu518 Cu 0.01724 0.3029 0.7849 0.0
N519 N 1.00038 0.32301 0.78601 0.0
N520 N 0.97591 0.3409 0.77651 0.0
C521 C 0.98551 0.32484 0.77371 0.0
C522 C 0.98517 0.34944 0.7914 0.0
C523 C 1.00026 0.33839 0.79722 0.0
O524 O 1.0017 0.27997 0.7836 0.0
C525 C 0.04269 0.32345 0.76658 0.0
O526 O 0.03932 0.33376 0.78145 0.0
H527 H 0.98194 0.31446 0.76284 0.0
H528 H 1.01064 0.3416 0.80847 0.0
N529 N 0.03388 0.30014 0.80596 0.0
N530 N 0.05823 0.28779 0.82276 0.0
C531 C 0.04887 0.28871 0.80577 0.0
C532 C 0.03366 0.30688 0.8237 0.0
C533 C 0.04869 0.29931 0.83409 0.0
C534 C 0.99204 0.27841 0.79826 0.0
O535 O 0.99375 0.29182 0.81112 0.0
H536 H 0.05267 0.28113 0.79326 0.0
H537 H 0.02307 0.31616 0.82886 0.0
O538 O 0.03355 0.30789 0.76414 0.0
H539 H 0.9817 0.36297 0.79738 0.0
H540 H 0.05192 0.30169 0.84898 0.0
Cu541 Cu 0.77929 1.00849 0.7456 0.0
N542 N 0.80265 0.02115 0.746 0.0
N543 N 0.82362 0.04374 0.75509 0.0
C544 C 0.80528 0.03942 0.75099 0.0
C545 C 0.83299 0.02757 0.75223 0.0
C546 C 0.82 0.01366 0.74658 0.0
O547 O 0.7601 0.02718 0.73959 0.0
C548 C 0.78854 0.99739 0.78348 0.0
O549 O 0.79723 0.0139 0.78506 0.0
H550 H 0.79382 0.04889 0.75341 0.0
H551 H 0.82282 0.99881 0.74458 0.0
N552 N 0.77684 0.9905 0.72638 0.0
N553 N 0.76397 0.96613 0.70985 0.0
C554 C 0.76389 0.97637 0.72596 0.0
C555 C 0.78558 0.98927 0.71002 0.0
C556 C 0.7777 0.9742 0.6998 0.0
C557 C 0.75481 0.04074 0.7498 0.0
O558 O 0.7603 0.04146 0.76774 0.0
H559 H 0.7545 0.97385 0.73731 0.0
H560 H 0.79654 0.9989 0.70565 0.0
O561 O 0.77784 0.99396 0.76888 0.0
H562 H 0.84798 0.02566 0.75504 0.0
H563 H 0.78145 0.96994 0.68581 0.0
Cu564 Cu 0.26843 0.77569 0.51786 0.0
N565 N 0.28623 0.77734 0.53814 0.0
N566 N 0.29995 0.79035 0.5643 0.0
C567 C 0.28717 0.79244 0.54976 0.0
C568 C 0.30746 0.77314 0.56158 0.0
C569 C 0.2989 0.76511 0.54545 0.0
O570 O 0.24493 0.78026 0.53024 0.0
C571 C 0.29274 0.79 0.49326 0.0
O572 O 0.30206 0.77615 0.50153 0.0
H573 H 0.27844 0.80471 0.54751 0.0
H574 H 0.30152 0.75127 0.53971 0.0
N575 N 0.26667 0.75232 0.50534 0.0
N576 N 0.25681 0.73237 0.4822 0.0
C577 C 0.25888 0.75058 0.48772 0.0
C578 C 0.26993 0.73454 0.51122 0.0
C579 C 0.26394 0.72217 0.49689 0.0
C580 C 0.23148 0.76806 0.53018 0.0
O581 O 0.22932 0.75619 0.51596 0.0
H582 H 0.25416 0.76257 0.4794 0.0
H583 H 0.2754 0.73078 0.52517 0.0
O584 O 0.27628 0.7936 0.49877 0.0
H585 H 0.318 0.76655 0.5708 0.0
H586 H 0.26391 0.70688 0.49762 0.0
Cu587 Cu 0.76483 0.75661 0.50239 0.0
N588 N 0.76858 0.73503 0.48801 0.0
N589 N 0.77993 0.71712 0.46526 0.0
C590 C 0.77466 0.73463 0.47028 0.0
C591 C 0.77691 0.7061 0.48038 0.0
C592 C 0.77005 0.7172 0.4944 0.0
O593 O 0.76038 0.7776 0.48485 0.0
C594 C 0.78927 0.7702 0.53327 0.0
O595 O 0.77702 0.78373 0.53508 0.0
H596 H 0.77656 0.74718 0.46181 0.0
H597 H 0.76757 0.71283 0.50868 0.0
N598 N 0.74421 0.75344 0.5178 0.0
N599 N 0.72364 0.76039 0.53972 0.0
C600 C 0.73702 0.76711 0.52844 0.0
C601 C 0.73475 0.73751 0.52217 0.0
C602 C 0.72206 0.74174 0.53569 0.0
C603 C 0.74346 0.78091 0.47898 0.0
O604 O 0.72953 0.7708 0.48552 0.0
H605 H 0.74164 0.78173 0.52793 0.0
H606 H 0.7372 0.72367 0.51637 0.0
O607 O 0.78732 0.75891 0.51927 0.0
H608 H 0.78019 0.69123 0.48152 0.0
H609 H 0.71298 0.7317 0.54255 0.0
Cu610 Cu 0.7741 0.26569 0.52105 0.0
N611 N 0.77611 0.2462 0.50332 0.0
N612 N 0.76691 0.23001 0.47722 0.0
C613 C 0.76544 0.24616 0.48709 0.0
C614 C 0.77909 0.21931 0.48759 0.0
C615 C 0.7849 0.22943 0.50367 0.0
O616 O 0.76972 0.28739 0.50438 0.0
C617 C 0.75954 0.24303 0.54763 0.0
O618 O 0.77602 0.23572 0.54448 0.0
H619 H 0.75593 0.25744 0.48307 0.0
H620 H 0.79433 0.22461 0.51502 0.0
N621 N 0.79565 0.27093 0.53664 0.0
N622 N 0.81212 0.286 0.56005 0.0
C623 C 0.79483 0.28133 0.55251 0.0
C624 C 0.81415 0.26853 0.53412 0.0
C625 C 0.82437 0.27776 0.54863 0.0
C626 C 0.78114 0.30152 0.50416 0.0
O627 O 0.7906 0.30641 0.51981 0.0
H628 H 0.78168 0.28613 0.55787 0.0
H629 H 0.8198 0.26146 0.52212 0.0
O630 O 0.75459 0.25772 0.53829 0.0
H631 H 0.78325 0.20515 0.48395 0.0
H632 H 0.8396 0.2792 0.55002 0.0
Cu633 Cu 0.2687 0.27238 0.53317 0.0
N634 N 0.24894 0.27144 0.54947 0.0
N635 N 0.23121 0.28118 0.57278 0.0
C636 C 0.24809 0.28261 0.56475 0.0
C637 C 0.22114 0.26836 0.56211 0.0
C638 C 0.2321 0.26244 0.54767 0.0
O639 O 0.29138 0.27628 0.54957 0.0
C640 C 0.27194 0.29951 0.50263 0.0
O641 O 0.2902 0.29647 0.50297 0.0
H642 H 0.25955 0.29201 0.56947 0.0
H643 H 0.22782 0.25293 0.53623 0.0
N644 N 0.27027 0.24989 0.51956 0.0
N645 N 0.27863 0.23026 0.49678 0.0
C646 C 0.2783 0.24834 0.50282 0.0
C647 C 0.26513 0.23219 0.52427 0.0
C648 C 0.27021 0.22002 0.51016 0.0
C649 C 0.30578 0.26575 0.549 0.0
O650 O 0.30751 0.25462 0.53436 0.0
H651 H 0.28407 0.26024 0.49536 0.0
H652 H 0.25856 0.22837 0.53722 0.0
O653 O 0.26189 0.29191 0.51501 0.0
H654 H 0.20658 0.26421 0.56398 0.0
H655 H 0.26841 0.20479 0.51007 0.0
Cu656 Cu 0.78289 0.54958 0.76372 0.0
N657 N 0.80444 0.56405 0.75853 0.0
N658 N 0.82223 0.58714 0.74656 0.0
C659 C 0.80461 0.57977 0.74782 0.0
C660 C 0.83354 0.57559 0.757 0.0
C661 C 0.82253 0.56135 0.76432 0.0
O662 O 0.76322 0.56749 0.77032 0.0
C663 C 0.78771 0.52927 0.72932 0.0
O664 O 0.80044 0.54236 0.72595 0.0
H665 H 0.79199 0.58574 0.74122 0.0
H666 H 0.82738 0.54979 0.77316 0.0
N667 N 0.78701 0.53366 0.78452 0.0
N668 N 0.78232 0.5086 0.80298 0.0
C669 C 0.77852 0.51659 0.78602 0.0
C670 C 0.79674 0.53649 0.8011 0.0
C671 C 0.79372 0.52108 0.8126 0.0
C672 C 0.76843 0.57867 0.78384 0.0
O673 O 0.78571 0.57724 0.79115 0.0
H674 H 0.76907 0.51046 0.77514 0.0
H675 H 0.80511 0.549 0.80475 0.0
O676 O 0.77697 0.53153 0.74309 0.0
H677 H 0.84872 0.57711 0.75896 0.0
H678 H 0.79935 0.51923 0.82692 0.0
Cu679 Cu 0.28482 0.52855 0.764 0.0
N680 N 0.30634 0.51391 0.76866 0.0
N681 N 0.32405 0.49066 0.78102 0.0
C682 C 0.30659 0.49799 0.77906 0.0
C683 C 0.3352 0.5024 0.77125 0.0
C684 C 0.32424 0.51677 0.76369 0.0
O685 O 0.26386 0.51069 0.75887 0.0
C686 C 0.29356 0.54746 0.79916 0.0
O687 O 0.30458 0.53312 0.80312 0.0
H688 H 0.29413 0.49202 0.78521 0.0
H689 H 0.32904 0.52863 0.75549 0.0
N690 N 0.28626 0.54414 0.74281 0.0
N691 N 0.27817 0.56818 0.72363 0.0
C692 C 0.27554 0.55955 0.74033 0.0
C693 C 0.29626 0.54288 0.72722 0.0
C694 C 0.29131 0.55768 0.71536 0.0
C695 C 0.26657 0.49975 0.74494 0.0
O696 O 0.2823 0.50189 0.73602 0.0
H697 H 0.26596 0.56421 0.75075 0.0
H698 H 0.30618 0.53184 0.7245 0.0
O699 O 0.28227 0.54657 0.78464 0.0
H700 H 0.35029 0.50103 0.77008 0.0
H701 H 0.29673 0.56017 0.70156 0.0
Cu702 Cu 0.2821 0.53202 0.2721 0.0
N703 N 0.28361 0.51696 0.29367 0.0
N704 N 0.27559 0.49305 0.31246 0.0
C705 C 0.27258 0.5015 0.29556 0.0
C706 C 0.28923 0.50366 0.32153 0.0
C707 C 0.29413 0.51844 0.3099 0.0
O708 O 0.28117 0.51328 0.25163 0.0
C709 C 0.26181 0.55881 0.28921 0.0
O710 O 0.27739 0.55777 0.29992 0.0
H711 H 0.2626 0.49655 0.28457 0.0
H712 H 0.30439 0.5296 0.31319 0.0
N713 N 0.30306 0.54817 0.27003 0.0
N714 N 0.32044 0.57197 0.25886 0.0
C715 C 0.30314 0.56372 0.25912 0.0
C716 C 0.3209 0.54652 0.2771 0.0
C717 C 0.33165 0.56124 0.27029 0.0
C718 C 0.29438 0.51176 0.24011 0.0
O719 O 0.30655 0.52579 0.23857 0.0
H720 H 0.29072 0.5686 0.25123 0.0
H721 H 0.32588 0.53508 0.28601 0.0
O722 O 0.26013 0.54819 0.27462 0.0
H723 H 0.29498 0.50122 0.3357 0.0
H724 H 0.3467 0.5634 0.27293 0.0
Cu725 Cu 0.78501 0.49216 0.25332 0.0
N726 N 0.80495 0.47519 0.25574 0.0
N727 N 0.82213 0.4521 0.26913 0.0
C728 C 0.80625 0.46237 0.26967 0.0
C729 C 0.83111 0.45876 0.25403 0.0
C730 C 0.82047 0.47301 0.24578 0.0
O731 O 0.76192 0.4767 0.25052 0.0
C732 C 0.80421 0.51845 0.2739 0.0
O733 O 0.81595 0.51288 0.26129 0.0
H734 H 0.79555 0.46068 0.27995 0.0
H735 H 0.82394 0.48136 0.23364 0.0
N736 N 0.78512 0.50792 0.23222 0.0
N737 N 0.77596 0.53302 0.21533 0.0
C738 C 0.77642 0.52465 0.23234 0.0
C739 C 0.7906 0.5056 0.21443 0.0
C740 C 0.78479 0.5211 0.20389 0.0
C741 C 0.76242 0.46605 0.23599 0.0
O742 O 0.77765 0.46664 0.22614 0.0
H743 H 0.76963 0.53013 0.24455 0.0
H744 H 0.79767 0.4933 0.20929 0.0
O745 O 0.78811 0.5101 0.27427 0.0
H746 H 0.84459 0.45401 0.24942 0.0
H747 H 0.7866 0.52326 0.18898 0.0
Cu748 Cu 0.546 0.2826 0.77581 0.0
N749 N 0.53274 0.28334 0.79778 0.0
N750 N 0.51021 0.29191 0.81693 0.0
C751 C 0.51729 0.29378 0.79968 0.0
C752 C 0.52174 0.27966 0.82622 0.0
C753 C 0.53567 0.2744 0.81434 0.0
O754 O 0.52675 0.28557 0.75552 0.0
C755 C 0.57932 0.2987 0.78976 0.0
O756 O 0.57882 0.28305 0.79966 0.0
H757 H 0.51121 0.30234 0.7884 0.0
H758 H 0.54708 0.26477 0.81753 0.0
N759 N 0.55732 0.2592 0.77288 0.0
N760 N 0.57727 0.23803 0.7622 0.0
C761 C 0.5739 0.25652 0.76487 0.0
C762 C 0.54991 0.24181 0.77545 0.0
C763 C 0.56221 0.22867 0.7688 0.0
C764 C 0.52612 0.27561 0.7405 0.0
O765 O 0.54102 0.26594 0.73628 0.0
H766 H 0.58278 0.26797 0.76007 0.0
H767 H 0.53619 0.23896 0.78099 0.0
O768 O 0.56586 0.30205 0.77774 0.0
H769 H 0.52038 0.27497 0.84061 0.0
H770 H 0.56006 0.21348 0.76844 0.0
Cu771 Cu 0.50936 0.79243 0.77157 0.0
N772 N 0.52729 0.78991 0.7916 0.0
N773 N 0.55317 0.77908 0.80703 0.0
C774 C 0.54237 0.77866 0.79084 0.0
C775 C 0.54446 0.79116 0.81846 0.0
C776 C 0.52847 0.7978 0.80891 0.0
O777 O 0.52441 0.79441 0.74921 0.0
C778 C 0.48322 0.77127 0.78871 0.0
O779 O 0.4871 0.78528 0.80054 0.0
H780 H 0.54545 0.77053 0.77843 0.0
H781 H 0.51839 0.8075 0.81431 0.0
N782 N 0.49488 0.81433 0.77299 0.0
N783 N 0.47112 0.8341 0.76618 0.0
C784 C 0.4785 0.81692 0.76302 0.0
C785 C 0.49804 0.83039 0.78295 0.0
C786 C 0.48342 0.8426 0.77878 0.0
C787 C 0.53545 0.80887 0.75007 0.0
O788 O 0.53446 0.82036 0.76456 0.0
H789 H 0.47215 0.80623 0.7537 0.0
H790 H 0.51025 0.83319 0.7923 0.0
O791 O 0.49171 0.77101 0.77323 0.0
H792 H 0.5491 0.79476 0.83279 0.0
H793 H 0.48225 0.85678 0.78432 0.0
Cu794 Cu 0.52983 0.76461 0.26736 0.0
N795 N 0.51737 0.76632 0.28999 0.0
N796 N 0.4957 0.77577 0.30988 0.0
C797 C 0.50209 0.77701 0.29226 0.0
C798 C 0.50758 0.76374 0.31906 0.0
C799 C 0.52094 0.75796 0.30675 0.0
O800 O 0.50983 0.76461 0.24718 0.0
C801 C 0.56228 0.78322 0.2798 0.0
O802 O 0.56279 0.76794 0.29027 0.0
H803 H 0.49561 0.78524 0.28094 0.0
H804 H 0.5324 0.74836 0.3098 0.0
N805 N 0.54324 0.74206 0.26523 0.0
N806 N 0.56518 0.72217 0.25581 0.0
C807 C 0.55917 0.74018 0.25576 0.0
C808 C 0.5391 0.72462 0.27158 0.0
C809 C 0.55255 0.71228 0.26566 0.0
C810 C 0.49699 0.75206 0.2496 0.0
O811 O 0.49901 0.7408 0.26423 0.0
H812 H 0.56604 0.75176 0.24866 0.0
H813 H 0.52709 0.72107 0.27983 0.0
O814 O 0.54848 0.78538 0.26781 0.0
H815 H 0.50685 0.7595 0.33366 0.0
H816 H 0.55312 0.69726 0.26849 0.0
Cu817 Cu 0.5051 0.26284 0.2688 0.0
N818 N 0.49091 0.2407 0.27232 0.0
N819 N 0.46867 0.22157 0.2836 0.0
C820 C 0.47526 0.23953 0.28235 0.0
C821 C 0.48064 0.21106 0.27379 0.0
C822 C 0.49436 0.2229 0.2669 0.0
O823 O 0.48704 0.2835 0.26464 0.0
C824 C 0.52717 0.25323 0.30228 0.0
O825 O 0.5134 0.24119 0.30548 0.0
H826 H 0.46902 0.25169 0.28877 0.0
H827 H 0.5063 0.21877 0.25895 0.0
N828 N 0.51923 0.26142 0.2473 0.0
N829 N 0.54289 0.2684 0.22854 0.0
C830 C 0.53509 0.27173 0.24522 0.0
C831 C 0.5168 0.25103 0.23143 0.0
C832 C 0.5314 0.25531 0.21981 0.0
C833 C 0.47521 0.28035 0.25077 0.0
O834 O 0.47646 0.26435 0.24148 0.0
H835 H 0.54088 0.28132 0.25599 0.0
H836 H 0.50525 0.24113 0.22849 0.0
O837 O 0.52482 0.26543 0.28916 0.0
H838 H 0.47994 0.19584 0.27223 0.0
H839 H 0.53321 0.2494 0.20594 0.0
H840 H 0.21486 0.20867 0.17077 0.0
H841 H 0.22205 0.15276 0.14772 0.0
H842 H 0.23117 0.22232 0.14429 0.0
H843 H 0.23854 0.16639 0.12146 0.0
H844 H 0.28768 0.19645 0.09209 0.0
H845 H 0.26919 0.18251 0.11693 0.0
H846 H 0.22841 0.22695 0.10974 0.0
H847 H 0.24708 0.24107 0.08527 0.0
C848 C 0.21966 0.1993 0.15994 0.0
C849 C 0.21728 0.1796 0.16151 0.0
C850 C 0.22906 0.20713 0.14477 0.0
C851 C 0.23633 0.19543 0.13085 0.0
C852 C 0.23345 0.17578 0.13213 0.0
C853 C 0.22399 0.16798 0.14721 0.0
C854 C 0.27477 0.20321 0.09581 0.0
C855 C 0.26886 0.21982 0.08662 0.0
C856 C 0.26408 0.19515 0.10993 0.0
C857 C 0.2473 0.20362 0.11533 0.0
C858 C 0.24133 0.22015 0.10603 0.0
C859 C 0.25193 0.22812 0.09182 0.0
H860 H 0.83642 0.2271 0.16099 0.0
H861 H 0.88526 0.21343 0.12982 0.0
H862 H 0.82074 0.23945 0.13207 0.0
H863 H 0.86933 0.22525 0.10074 0.0
H864 H 0.82019 0.22691 0.05206 0.0
H865 H 0.83592 0.21448 0.08095 0.0
H866 H 0.83026 0.26855 0.10824 0.0
H867 H 0.8151 0.28116 0.07929 0.0
C868 C 0.84375 0.22674 0.14792 0.0
C869 C 0.86205 0.21944 0.14758 0.0
C870 C 0.83481 0.23379 0.13144 0.0
C871 C 0.84382 0.2332 0.11422 0.0
C872 C 0.86207 0.22574 0.11384 0.0
C873 C 0.87119 0.21912 0.13043 0.0
C874 C 0.82227 0.2361 0.06425 0.0
C875 C 0.81646 0.255 0.06343 0.0
C876 C 0.83134 0.22903 0.0807 0.0
C877 C 0.83428 0.2406 0.09676 0.0
C878 C 0.82811 0.25936 0.09605 0.0
C879 C 0.8195 0.26655 0.07949 0.0
H880 H 0.78903 0.86508 0.14603 0.0
H881 H 0.84466 0.8621 0.12395 0.0
H882 H 0.77516 0.85286 0.11608 0.0
H883 H 0.83087 0.84963 0.09419 0.0
H884 H 0.80025 0.84502 0.0373 0.0
H885 H 0.81076 0.86028 0.06687 0.0
H886 H 0.77433 0.82293 0.09732 0.0
H887 H 0.76369 0.80763 0.0677 0.0
C888 C 0.79829 0.86186 0.13477 0.0
C889 C 0.81796 0.86456 0.13737 0.0
C890 C 0.79035 0.85475 0.11766 0.0
C891 C 0.80188 0.85038 0.10269 0.0
C892 C 0.82155 0.8531 0.10533 0.0
C893 C 0.82949 0.86003 0.12246 0.0
C894 C 0.79417 0.84025 0.05022 0.0
C895 C 0.7812 0.82496 0.05007 0.0
C896 C 0.80035 0.84891 0.06722 0.0
C897 C 0.79363 0.84261 0.0845 0.0
C898 C 0.77977 0.82814 0.08426 0.0
C899 C 0.77366 0.81937 0.06725 0.0
H900 H 0.20611 0.82537 0.16049 0.0
H901 H 0.15837 0.82239 0.1205 0.0
H902 H 0.22755 0.82136 0.13499 0.0
H903 H 0.17985 0.81889 0.09472 0.0
H904 H 0.22308 0.79592 0.05508 0.0
H905 H 0.20139 0.79865 0.08033 0.0
H906 H 0.23989 0.83813 0.10933 0.0
H907 H 0.26216 0.83454 0.08454 0.0
C908 C 0.20022 0.82388 0.14617 0.0
C909 C 0.18057 0.82428 0.14247 0.0
C910 C 0.21252 0.82172 0.13151 0.0
C911 C 0.20553 0.82006 0.11268 0.0
C912 C 0.18579 0.81997 0.10903 0.0
C913 C 0.17344 0.82197 0.12378 0.0
C914 C 0.22713 0.80502 0.0669 0.0
C915 C 0.24463 0.81482 0.06774 0.0
C916 C 0.21447 0.80679 0.08134 0.0
C917 C 0.21883 0.81853 0.09701 0.0
C918 C 0.23614 0.82866 0.09768 0.0
C919 C 0.24887 0.8268 0.08328 0.0
H920 H 0.2017 0.82466 0.87375 0.0
H921 H 0.20651 0.87776 0.90382 0.0
H922 H 0.21464 0.8082 0.90186 0.0
H923 H 0.21883 0.86148 0.93183 0.0
H924 H 0.26598 0.83427 0.96544 0.0
H925 H 0.24895 0.84748 0.93863 0.0
H926 H 0.21133 0.7988 0.93598 0.0
H927 H 0.22903 0.785 0.96327 0.0
C928 C 0.20523 0.83274 0.88646 0.0
C929 C 0.20349 0.85254 0.88649 0.0
C930 C 0.21255 0.82332 0.90257 0.0
C931 C 0.21811 0.83355 0.91902 0.0
C932 C 0.2152 0.8532 0.91927 0.0
C933 C 0.20812 0.86256 0.90322 0.0
C934 C 0.25405 0.82623 0.95935 0.0
C935 C 0.24882 0.80856 0.96674 0.0
C936 C 0.24415 0.83397 0.94392 0.0
C937 C 0.2285 0.82444 0.9353 0.0
C938 C 0.22331 0.80654 0.94235 0.0
C939 C 0.23337 0.79867 0.958 0.0
H940 H 0.21265 0.24864 0.88897 0.0
H941 H 0.20948 0.19451 0.91649 0.0
H942 H 0.22626 0.26291 0.91793 0.0
H943 H 0.22204 0.2088 0.94594 0.0
H944 H 0.26107 0.23588 0.99132 0.0
H945 H 0.24803 0.22132 0.96251 0.0
H946 H 0.21983 0.27342 0.94782 0.0
H947 H 0.23394 0.28831 0.97628 0.0
C948 C 0.21489 0.23982 0.90132 0.0
C949 C 0.21016 0.22047 0.90051 0.0
C950 C 0.22247 0.24802 0.91804 0.0
C951 C 0.22516 0.23715 0.93455 0.0
C952 C 0.22053 0.21767 0.93357 0.0
C953 C 0.21328 0.20941 0.9167 0.0
C954 C 0.25196 0.24422 0.98203 0.0
C955 C 0.24856 0.26331 0.98615 0.0
C956 C 0.24436 0.2358 0.96544 0.0
C957 C 0.23283 0.24609 0.95259 0.0
C958 C 0.22898 0.26507 0.95704 0.0
C959 C 0.23689 0.27361 0.97351 0.0
H960 H 0.88915 0.19274 0.88712 0.0
H961 H 0.8316 0.18322 0.86608 0.0
H962 H 0.87792 0.20646 0.91573 0.0
H963 H 0.82021 0.19586 0.8955 0.0
H964 H 0.80734 0.24138 0.93991 0.0
H965 H 0.81694 0.22477 0.91176 0.0
H966 H 0.86397 0.20104 0.9442 0.0
H967 H 0.85471 0.21828 0.97197 0.0
C968 C 0.87404 0.19342 0.88866 0.0
C969 C 0.8613 0.1871 0.87408 0.0
C970 C 0.86756 0.20107 0.90529 0.0
C971 C 0.84809 0.20239 0.90808 0.0
C972 C 0.8353 0.19541 0.89379 0.0
C973 C 0.84183 0.18788 0.877 0.0
C974 C 0.81965 0.2325 0.94098 0.0
C975 C 0.83039 0.2313 0.95808 0.0
C976 C 0.82513 0.22287 0.92486 0.0
C977 C 0.84137 0.2116 0.92553 0.0
C978 C 0.85168 0.20993 0.9429 0.0
C979 C 0.84636 0.21977 0.95889 0.0
H980 H 0.82197 0.85373 0.88125 0.0
H981 H 0.87987 0.85335 0.9032 0.0
H982 H 0.81215 0.83702 0.90934 0.0
H983 H 0.87029 0.83577 0.93058 0.0
H984 H 0.84516 0.81923 0.98602 0.0
H985 H 0.85425 0.83784 0.95894 0.0
H986 H 0.81382 0.8063 0.92319 0.0
H987 H 0.80449 0.78805 0.95046 0.0
C988 C 0.83258 0.85017 0.89209 0.0
C989 C 0.85172 0.85475 0.88988 0.0
C990 C 0.827 0.84035 0.90808 0.0
C991 C 0.84044 0.83485 0.9222 0.0
C992 C 0.8595 0.83987 0.92014 0.0
C993 C 0.86504 0.84976 0.90427 0.0
C994 C 0.83839 0.81614 0.97233 0.0
C995 C 0.82415 0.80214 0.97035 0.0
C996 C 0.84356 0.82683 0.95679 0.0
C997 C 0.83474 0.82365 0.93883 0.0
C998 C 0.82066 0.80944 0.93684 0.0
C999 C 0.81538 0.79887 0.95243 0.0
H1000 H 0.15675 0.15215 0.22003 0.0
H1001 H 0.1755 0.20865 0.2061 0.0
H1002 H 0.13148 0.16499 0.23741 0.0
H1003 H 0.14879 0.22158 0.22192 0.0
H1004 H 0.11142 0.24041 0.26937 0.0
H1005 H 0.13674 0.22846 0.25064 0.0
H1006 H 0.10276 0.17839 0.2371 0.0
H1007 H 0.07831 0.18995 0.25696 0.0
C1008 C 0.15548 0.16738 0.22056 0.0
C1009 C 0.1686 0.17929 0.21189 0.0
C1010 C 0.14058 0.17481 0.23029 0.0
C1011 C 0.13783 0.19446 0.23125 0.0
C1012 C 0.15051 0.2064 0.22193 0.0
C1013 C 0.16574 0.19894 0.21251 0.0
C1014 C 0.10952 0.22684 0.26236 0.0
C1015 C 0.09306 0.21598 0.26477 0.0
C1016 C 0.12396 0.22 0.25145 0.0
C1017 C 0.12209 0.20228 0.24228 0.0
C1018 C 0.1052 0.19178 0.2443 0.0
C1019 C 0.09103 0.19842 0.2556 0.0
H1020 H 0.88872 0.15876 0.20899 0.0
H1021 H 0.83325 0.18031 0.19414 0.0
H1022 H 0.8745 0.1328 0.22563 0.0
H1023 H 0.81895 0.15321 0.20918 0.0
H1024 H 0.79781 0.11215 0.25296 0.0
H1025 H 0.81208 0.13922 0.23742 0.0
H1026 H 0.85881 0.10434 0.22255 0.0
H1027 H 0.84492 0.07781 0.2391 0.0
C1028 C 0.87347 0.15803 0.20922 0.0
C1029 C 0.86224 0.17192 0.20025 0.0
C1030 C 0.86523 0.14279 0.21851 0.0
C1031 C 0.84546 0.14065 0.2188 0.0
C1032 C 0.83421 0.1544 0.20962 0.0
C1033 C 0.84246 0.16987 0.20063 0.0
C1034 C 0.81116 0.1104 0.24638 0.0
C1035 C 0.82033 0.09295 0.24732 0.0
C1036 C 0.81933 0.12587 0.23732 0.0
C1037 C 0.83671 0.12416 0.22861 0.0
C1038 C 0.8457 0.10651 0.22942 0.0
C1039 C 0.83772 0.0912 0.23884 0.0
H1040 H 0.88259 0.88931 0.19736 0.0
H1041 H 0.85789 0.83405 0.18576 0.0
H1042 H 0.91016 0.87467 0.21274 0.0
H1043 H 0.88536 0.81939 0.20126 0.0
H1044 H 0.94565 0.79889 0.2134 0.0
H1045 H 0.91819 0.81351 0.19794 0.0
H1046 H 0.9204 0.85755 0.24036 0.0
H1047 H 0.94796 0.84298 0.25571 0.0
C1048 C 0.88296 0.87403 0.19822 0.0
C1049 C 0.86797 0.8629 0.19028 0.0
C1050 C 0.89879 0.86561 0.20709 0.0
C1051 C 0.90008 0.84579 0.20831 0.0
C1052 C 0.88508 0.83466 0.20034 0.0
C1053 C 0.86928 0.84309 0.19144 0.0
C1054 C 0.94021 0.81158 0.21955 0.0
C1055 C 0.94912 0.8197 0.23586 0.0
C1056 C 0.9244 0.82001 0.21066 0.0
C1057 C 0.91697 0.83677 0.21784 0.0
C1058 C 0.92585 0.84484 0.23419 0.0
C1059 C 0.9417 0.83645 0.24305 0.0
H1060 H 0.17032 0.88385 0.17466 0.0
H1061 H 0.16305 0.84926 0.22393 0.0
H1062 H 0.17983 0.91061 0.19481 0.0
H1063 H 0.17304 0.87592 0.24422 0.0
H1064 H 0.17797 0.93231 0.27582 0.0
H1065 H 0.1651 0.90678 0.25561 0.0
H1066 H 0.20631 0.92013 0.21442 0.0
H1067 H 0.21839 0.9461 0.23397 0.0
C1068 C 0.17086 0.88198 0.18983 0.0
C1069 C 0.1661 0.86445 0.19773 0.0
C1070 C 0.17636 0.89729 0.2014 0.0
C1071 C 0.17741 0.8954 0.22117 0.0
C1072 C 0.1722 0.87796 0.22908 0.0
C1073 C 0.16653 0.86266 0.21747 0.0
C1074 C 0.18411 0.92996 0.26234 0.0
C1075 C 0.19931 0.94128 0.25663 0.0
C1076 C 0.17687 0.91517 0.25083 0.0
C1077 C 0.18465 0.91136 0.23336 0.0
C1078 C 0.19975 0.92278 0.22764 0.0
C1079 C 0.2069 0.93756 0.23905 0.0
H1080 H 0.14088 0.85809 0.85616 0.0
H1081 H 0.16884 0.86739 0.80411 0.0
H1082 H 0.11165 0.84986 0.83826 0.0
H1083 H 0.13944 0.85943 0.78614 0.0
H1084 H 0.08885 0.8197 0.76436 0.0
H1085 H 0.1185 0.83122 0.77953 0.0
H1086 H 0.08733 0.86524 0.81758 0.0
H1087 H 0.05773 0.85374 0.80254 0.0
C1088 C 0.1408 0.85831 0.84089 0.0
C1089 C 0.15721 0.86335 0.83157 0.0
C1090 C 0.12399 0.85382 0.83062 0.0
C1091 C 0.12317 0.85412 0.81075 0.0
C1092 C 0.13961 0.85902 0.80141 0.0
C1093 C 0.15641 0.86369 0.81171 0.0
C1094 C 0.0883 0.82995 0.77569 0.0
C1095 C 0.07084 0.83564 0.78231 0.0
C1096 C 0.10532 0.83655 0.7844 0.0
C1097 C 0.10527 0.84891 0.79997 0.0
C1098 C 0.08785 0.85543 0.80586 0.0
C1099 C 0.07086 0.84894 0.7971 0.0
H1100 H 0.23604 0.18566 0.84945 0.0
H1101 H 0.18159 0.15806 0.84026 0.0
H1102 H 0.25098 0.15952 0.83395 0.0
H1103 H 0.19668 0.13164 0.82468 0.0
H1104 H 0.23241 0.09438 0.7842 0.0
H1105 H 0.21492 0.12106 0.79692 0.0
H1106 H 0.2573 0.12716 0.84237 0.0
H1107 H 0.27458 0.10122 0.8298 0.0
C1108 C 0.22723 0.17395 0.84421 0.0
C1109 C 0.20762 0.17389 0.84643 0.0
C1110 C 0.23581 0.15892 0.83527 0.0
C1111 C 0.2251 0.14327 0.82828 0.0
C1112 C 0.20537 0.14348 0.82981 0.0
C1113 C 0.19672 0.15862 0.83878 0.0
C1114 C 0.2379 0.10144 0.79691 0.0
C1115 C 0.25503 0.09571 0.8058 0.0
C1116 C 0.22787 0.11669 0.80424 0.0
C1117 C 0.23486 0.12651 0.82052 0.0
C1118 C 0.2517 0.12034 0.82955 0.0
C1119 C 0.26159 0.10528 0.82233 0.0
H1120 H 0.89554 0.20111 0.79605 0.0
H1121 H 0.92451 0.19194 0.85004 0.0
H1122 H 0.92193 0.22125 0.78647 0.0
H1123 H 0.95099 0.21146 0.84041 0.0
H1124 H 0.97524 0.27014 0.83065 0.0
H1125 H 0.95263 0.24532 0.83663 0.0
H1126 H 0.95638 0.22473 0.77953 0.0
H1127 H 0.97925 0.2503 0.77329 0.0
C1128 C 0.90774 0.2031 0.80568 0.0
C1129 C 0.90789 0.19534 0.82391 0.0
C1130 C 0.92287 0.21451 0.80018 0.0
C1131 C 0.9384 0.21819 0.8128 0.0
C1132 C 0.93903 0.20927 0.83052 0.0
C1133 C 0.9239 0.1981 0.83605 0.0
C1134 C 0.97142 0.26034 0.81929 0.0
C1135 C 0.97905 0.26225 0.80145 0.0
C1136 C 0.95852 0.24593 0.82281 0.0
C1137 C 0.95284 0.23289 0.80864 0.0
C1138 C 0.9605 0.23461 0.79073 0.0
C1139 C 0.97362 0.24914 0.78719 0.0
H1140 H 0.86837 0.92054 0.83341 0.0
H1141 H 0.81588 0.89028 0.84104 0.0
H1142 H 0.85089 0.94702 0.81975 0.0
H1143 H 0.79834 0.91699 0.82778 0.0
H1144 H 0.77753 0.95996 0.78138 0.0
H1145 H 0.7926 0.93333 0.7975 0.0
H1146 H 0.82969 0.97204 0.8292 0.0
H1147 H 0.81481 0.99865 0.813 0.0
C1148 C 0.8531 0.9195 0.8321 0.0
C1149 C 0.84356 0.90325 0.8383 0.0
C1150 C 0.84304 0.93479 0.8245 0.0
C1151 C 0.82317 0.93423 0.8228 0.0
C1152 C 0.81362 0.91789 0.82882 0.0
C1153 C 0.82368 0.90263 0.83654 0.0
C1154 C 0.78864 0.96284 0.79206 0.0
C1155 C 0.79501 0.9815 0.79577 0.0
C1156 C 0.7973 0.94753 0.80131 0.0
C1157 C 0.81258 0.95051 0.81444 0.0
C1158 C 0.81824 0.96921 0.81887 0.0
C1159 C 0.80955 0.9845 0.8097 0.0
H1160 H 0.22055 0.11474 0.1841 0.0
H1161 H 0.21697 0.13852 0.23999 0.0
H1162 H 0.22982 0.08437 0.19803 0.0
H1163 H 0.22586 0.10821 0.25375 0.0
H1164 H 0.20842 0.0475 0.2672 0.0
H1165 H 0.20534 0.07768 0.25156 0.0
H1166 H 0.25563 0.06725 0.22138 0.0
H1167 H 0.25904 0.0365 0.23746 0.0
C1168 C 0.22211 0.11361 0.19932 0.0
C1169 C 0.21767 0.12894 0.21096 0.0
C1170 C 0.22744 0.09624 0.20726 0.0
C1171 C 0.22831 0.09392 0.22693 0.0
C1172 C 0.22501 0.10956 0.23852 0.0
C1173 C 0.21981 0.12687 0.23063 0.0
C1174 C 0.21891 0.05145 0.25723 0.0
C1175 C 0.2341 0.03957 0.25372 0.0
C1176 C 0.21715 0.06886 0.24834 0.0
C1177 C 0.23041 0.07493 0.23552 0.0
C1178 C 0.24528 0.06288 0.23132 0.0
C1179 C 0.2472 0.04534 0.24048 0.0
H1180 H 0.19002 0.92621 0.8466 0.0
H1181 H 0.23893 0.89218 0.83827 0.0
H1182 H 0.20831 0.95481 0.83913 0.0
H1183 H 0.25706 0.92073 0.83018 0.0
H1184 H 0.26904 0.9765 0.79343 0.0
H1185 H 0.25201 0.94738 0.8017 0.0
H1186 H 0.24069 0.97137 0.85593 0.0
H1187 H 0.25818 1.00028 0.84785 0.0
C1188 C 0.20464 0.92489 0.84303 0.0
C1189 C 0.2131 0.90706 0.84297 0.0
C1190 C 0.21509 0.9412 0.83886 0.0
C1191 C 0.23406 0.93992 0.83411 0.0
C1192 C 0.24245 0.92205 0.83376 0.0
C1193 C 0.23212 0.90579 0.8384 0.0
C1194 C 0.26301 0.97545 0.80715 0.0
C1195 C 0.26495 0.99058 0.82003 0.0
C1196 C 0.25335 0.95882 0.81189 0.0
C1197 C 0.24502 0.95721 0.82942 0.0
C1198 C 0.24695 0.97232 0.84231 0.0
C1199 C 0.25703 0.98876 0.83775 0.0
H1200 H 0.16142 0.22218 0.82419 0.0
H1201 H 0.14481 0.22296 0.88201 0.0
H1202 H 0.13304 0.23978 0.8147 0.0
H1203 H 0.11671 0.2406 0.8726 0.0
H1204 H 0.08308 0.29236 0.85293 0.0
H1205 H 0.11022 0.27295 0.8614 0.0
H1206 H 0.09788 0.23777 0.8124 0.0
H1207 H 0.07057 0.25691 0.80402 0.0
C1208 C 0.15158 0.22583 0.83481 0.0
C1209 C 0.15551 0.22137 0.85389 0.0
C1210 C 0.13536 0.23597 0.82939 0.0
C1211 C 0.12277 0.24187 0.84295 0.0
C1212 C 0.12634 0.23669 0.86187 0.0
C1213 C 0.14243 0.22653 0.86725 0.0
C1214 C 0.08597 0.28041 0.84402 0.0
C1215 C 0.07448 0.27634 0.82776 0.0
C1216 C 0.10159 0.26926 0.84888 0.0
C1217 C 0.10621 0.25376 0.83759 0.0
C1218 C 0.09485 0.24973 0.82128 0.0
C1219 C 0.07916 0.2608 0.81647 0.0
H1220 H 0.85915 0.12485 0.84136 0.0
H1221 H 0.85766 0.15776 0.79014 0.0
H1222 H 0.8487 0.09678 0.82322 0.0
H1223 H 0.84748 0.1297 0.77199 0.0
H1224 H 0.81044 0.07909 0.74991 0.0
H1225 H 0.82009 0.10754 0.76772 0.0
H1226 H 0.86225 0.07556 0.79921 0.0
H1227 H 0.85238 0.04707 0.78159 0.0
C1228 C 0.85637 0.12612 0.82627 0.0
C1229 C 0.85924 0.14349 0.81717 0.0
C1230 C 0.85061 0.11002 0.81585 0.0
C1231 C 0.84741 0.11099 0.79615 0.0
C1232 C 0.84975 0.1285 0.78715 0.0
C1233 C 0.85567 0.14453 0.79752 0.0
C1234 C 0.82183 0.07818 0.76058 0.0
C1235 C 0.83066 0.06083 0.76431 0.0
C1236 C 0.8274 0.09448 0.77073 0.0
C1237 C 0.84184 0.09378 0.78498 0.0
C1238 C 0.85091 0.0765 0.78849 0.0
C1239 C 0.84545 0.06024 0.77821 0.0
H1240 H 0.91446 0.8598 0.86809 0.0
H1241 H 0.88916 0.8573 0.81156 0.0
H1242 H 0.94277 0.84499 0.8572 0.0
H1243 H 0.9176 0.84228 0.80057 0.0
H1244 H 0.97925 0.83037 0.78593 0.0
H1245 H 0.95138 0.84689 0.79555 0.0
H1246 H 0.95138 0.81378 0.84663 0.0
H1247 H 0.97925 0.79721 0.837 0.0
C1248 C 0.915 0.85612 0.85328 0.0
C1249 C 0.89949 0.85953 0.84071 0.0
C1250 C 0.93119 0.84754 0.84706 0.0
C1251 C 0.93236 0.84213 0.82808 0.0
C1252 C 0.91719 0.84631 0.81529 0.0
C1253 C 0.90092 0.85495 0.82155 0.0
C1254 C 0.97322 0.82641 0.79911 0.0
C1255 C 0.98158 0.81239 0.81068 0.0
C1256 C 0.95721 0.83595 0.80463 0.0
C1257 C 0.94917 0.83176 0.8219 0.0
C1258 C 0.95742 0.81763 0.83339 0.0
C1259 C 0.97341 0.80809 0.82787 0.0
H1260 H 0.80987 0.92684 0.16319 0.0
H1261 H 0.82321 0.90357 0.21841 0.0
H1262 H 0.79487 0.95361 0.17775 0.0
H1263 H 0.80953 0.93087 0.23293 0.0
H1264 H 0.77167 0.9726 0.25674 0.0
H1265 H 0.78106 0.94508 0.23896 0.0
H1266 H 0.80076 0.98189 0.19515 0.0
H1267 H 0.79025 1.00939 0.21273 0.0
C1268 C 0.80961 0.92738 0.17843 0.0
C1269 C 0.81777 0.91289 0.18957 0.0
C1270 C 0.80119 0.94292 0.18681 0.0
C1271 C 0.80079 0.94449 0.20657 0.0
C1272 C 0.80912 0.93007 0.21767 0.0
C1273 C 0.81734 0.91449 0.20931 0.0
C1274 C 0.77748 0.9747 0.24301 0.0
C1275 C 0.7801 0.99302 0.23598 0.0
C1276 C 0.78318 0.95896 0.23293 0.0
C1277 C 0.79217 0.96116 0.21577 0.0
C1278 C 0.79383 0.97955 0.20824 0.0
C1279 C 0.78776 0.99534 0.21824 0.0
H1280 H 0.13095 0.80594 0.20998 0.0
H1281 H 0.11111 0.81055 0.15174 0.0
H1282 H 0.10121 0.7908 0.21769 0.0
H1283 H 0.08121 0.79505 0.15939 0.0
H1284 H 0.05005 0.75566 0.22681 0.0
H1285 H 0.08049 0.76301 0.21361 0.0
H1286 H 0.05407 0.80491 0.1774 0.0
H1287 H 0.02362 0.79742 0.19036 0.0
C1288 C 0.12029 0.80343 0.19876 0.0
C1289 C 0.12329 0.80959 0.18029 0.0
C1290 C 0.10329 0.79458 0.20314 0.0
C1291 C 0.08875 0.79174 0.18918 0.0
C1292 C 0.09205 0.79717 0.17051 0.0
C1293 C 0.10921 0.8059 0.16608 0.0
C1294 C 0.05062 0.76611 0.2157 0.0
C1295 C 0.03438 0.7761 0.20981 0.0
C1296 C 0.06812 0.77042 0.20823 0.0
C1297 C 0.0698 0.78474 0.19463 0.0
C1298 C 0.05331 0.79374 0.18777 0.0
C1299 C 0.03583 0.78949 0.19529 0.0
H1300 H 0.90801 0.24741 0.19861 0.0
H1301 H 0.92909 0.19067 0.19561 0.0
H1302 H 0.93724 0.2576 0.21603 0.0
H1303 H 0.95834 0.20079 0.21229 0.0
H1304 H 0.99026 0.21576 0.26687 0.0
H1305 H 0.96417 0.20875 0.24488 0.0
H1306 H 0.97247 0.26254 0.21749 0.0
H1307 H 0.99895 0.26991 0.24023 0.0
C1308 C 0.9191 0.23726 0.20127 0.0
C1309 C 0.91622 0.2182 0.19605 0.0
C1310 C 0.93585 0.24308 0.21118 0.0
C1311 C 0.95001 0.22993 0.2159 0.0
C1312 C 0.94755 0.21119 0.20937 0.0
C1313 C 0.93083 0.20538 0.19973 0.0
C1314 C 0.98673 0.22619 0.25618 0.0
C1315 C 0.99684 0.24342 0.25535 0.0
C1316 C 0.97175 0.22205 0.24338 0.0
C1317 C 0.96633 0.23492 0.22917 0.0
C1318 C 0.9763 0.25229 0.22827 0.0
C1319 C 0.9915 0.25648 0.24122 0.0
H1320 H 0.1729 0.71746 0.62481 0.0
H1321 H 0.23259 0.71973 0.64008 0.0
H1322 H 0.17863 0.73486 0.59586 0.0
H1323 H 0.23838 0.73677 0.61094 0.0
H1324 H 0.20259 0.74292 0.53581 0.0
H1325 H 0.19364 0.72938 0.56575 0.0
H1326 H 0.23258 0.7677 0.59567 0.0
H1327 H 0.24169 0.78118 0.56573 0.0
C1328 C 0.18724 0.72172 0.622 0.0
C1329 C 0.2023 0.71719 0.63476 0.0
C1330 C 0.19053 0.73159 0.60536 0.0
C1331 C 0.20894 0.73731 0.60111 0.0
C1332 C 0.22399 0.73283 0.6139 0.0
C1333 C 0.22072 0.72283 0.63048 0.0
C1334 C 0.20894 0.74878 0.54878 0.0
C1335 C 0.22295 0.76307 0.5483 0.0
C1336 C 0.2038 0.74099 0.56597 0.0
C1337 C 0.21262 0.74724 0.5831 0.0
C1338 C 0.22578 0.76232 0.5827 0.0
C1339 C 0.23083 0.77021 0.56552 0.0
H1340 H 0.858 0.76266 0.63917 0.0
H1341 H 0.84752 0.70527 0.61992 0.0
H1342 H 0.84263 0.7745 0.61024 0.0
H1343 H 0.83127 0.71709 0.59143 0.0
H1344 H 0.81628 0.74281 0.53474 0.0
H1345 H 0.83565 0.73289 0.56215 0.0
H1346 H 0.8119 0.77708 0.59545 0.0
H1347 H 0.79298 0.78731 0.56795 0.0
C1348 C 0.85251 0.75253 0.62874 0.0
C1349 C 0.85406 0.73297 0.63194 0.0
C1350 C 0.84346 0.75935 0.6122 0.0
C1351 C 0.83565 0.7468 0.59841 0.0
C1352 C 0.83732 0.72723 0.60156 0.0
C1353 C 0.84642 0.72042 0.61807 0.0
C1354 C 0.81542 0.75061 0.54783 0.0
C1355 C 0.803 0.76584 0.54911 0.0
C1356 C 0.8264 0.7448 0.56363 0.0
C1357 C 0.82522 0.75401 0.58115 0.0
C1358 C 0.81336 0.76972 0.5822 0.0
C1359 C 0.80244 0.77558 0.56638 0.0
H1360 H 0.80712 0.36201 0.65653 0.0
H1361 H 0.86593 0.36261 0.6432 0.0
H1362 H 0.79996 0.3401 0.63039 0.0
H1363 H 0.85882 0.34101 0.61692 0.0
H1364 H 0.84329 0.28684 0.58386 0.0
H1365 H 0.85029 0.3089 0.60994 0.0
H1366 H 0.79771 0.33722 0.59695 0.0
H1367 H 0.79069 0.31509 0.57123 0.0
C1368 C 0.81847 0.35768 0.64784 0.0
C1369 C 0.8371 0.36402 0.65203 0.0
C1370 C 0.81439 0.34509 0.63283 0.0
C1371 C 0.82882 0.33859 0.62152 0.0
C1372 C 0.84738 0.3453 0.62551 0.0
C1373 C 0.85146 0.35779 0.64055 0.0
C1374 C 0.83328 0.29781 0.58658 0.0
C1375 C 0.81636 0.29902 0.57552 0.0
C1376 C 0.83729 0.31053 0.6015 0.0
C1377 C 0.82456 0.32491 0.60567 0.0
C1378 C 0.8077 0.32615 0.5945 0.0
C1379 C 0.80366 0.3134 0.57968 0.0
H1380 H 0.22061 0.35263 0.6717 0.0
H1381 H 0.16351 0.34332 0.64912 0.0
H1382 H 0.23241 0.33315 0.64644 0.0
H1383 H 0.17529 0.32366 0.62414 0.0
H1384 H 0.20189 0.27319 0.59505 0.0
H1385 H 0.19064 0.29254 0.6206 0.0
H1386 H 0.2348 0.33384 0.61159 0.0
H1387 H 0.24587 0.31483 0.58595 0.0
C1388 C 0.21059 0.34659 0.66128 0.0
C1389 C 0.1911 0.34948 0.66251 0.0
C1390 C 0.21735 0.33537 0.64684 0.0
C1391 C 0.20476 0.32674 0.63339 0.0
C1392 C 0.18532 0.32981 0.6345 0.0
C1393 C 0.17858 0.34109 0.64883 0.0
C1394 C 0.20915 0.28643 0.59839 0.0
C1395 C 0.22483 0.29232 0.58832 0.0
C1396 C 0.20271 0.29752 0.61307 0.0
C1397 C 0.21185 0.31472 0.61811 0.0
C1398 C 0.22762 0.32053 0.60823 0.0
C1399 C 0.23399 0.30953 0.59349 0.0
H1400 H 0.19199 0.34735 0.41809 0.0
H1401 H 0.24319 0.33877 0.38891 0.0
H1402 H 0.20751 0.33628 0.44736 0.0
H1403 H 0.25856 0.32668 0.41777 0.0
H1404 H 0.28773 0.32154 0.47543 0.0
H1405 H 0.27195 0.33476 0.44724 0.0
H1406 H 0.21884 0.31049 0.46386 0.0
H1407 H 0.23439 0.29836 0.49233 0.0
C1408 C 0.20648 0.34271 0.41791 0.0
C1409 C 0.21638 0.34387 0.40127 0.0
C1410 C 0.21543 0.33632 0.43468 0.0
C1411 C 0.23444 0.33059 0.43514 0.0
C1412 C 0.24412 0.33137 0.41824 0.0
C1413 C 0.23526 0.33808 0.4016 0.0
C1414 C 0.27264 0.31929 0.47315 0.0
C1415 C 0.26236 0.30895 0.4862 0.0
C1416 C 0.26357 0.32668 0.45685 0.0
C1417 C 0.24403 0.32363 0.45302 0.0
C1418 C 0.23378 0.31351 0.46631 0.0
C1419 C 0.24277 0.30643 0.48271 0.0
H1420 H 0.17247 0.70171 0.39449 0.0
H1421 H 0.22532 0.6862 0.37112 0.0
H1422 H 0.18948 0.71247 0.42331 0.0
H1423 H 0.24225 0.69662 0.40016 0.0
H1424 H 0.26305 0.69977 0.46325 0.0
H1425 H 0.24624 0.68827 0.43435 0.0
H1426 H 0.21167 0.73802 0.43359 0.0
H1427 H 0.22812 0.74924 0.46245 0.0
C1428 C 0.18772 0.70073 0.39539 0.0
C1429 C 0.19746 0.69311 0.38036 0.0
C1430 C 0.19747 0.70684 0.41197 0.0
C1431 C 0.21724 0.7054 0.41406 0.0
C1432 C 0.227 0.69769 0.39912 0.0
C1433 C 0.21726 0.69171 0.38246 0.0
C1434 C 0.25181 0.70817 0.45693 0.0
C1435 C 0.24704 0.72548 0.46513 0.0
C1436 C 0.24228 0.70168 0.4403 0.0
C1437 C 0.22759 0.71223 0.43165 0.0
C1438 C 0.22278 0.72946 0.43995 0.0
C1439 C 0.23239 0.73601 0.45641 0.0
H1440 H 0.83302 0.70995 0.3565 0.0
H1441 H 0.83034 0.65305 0.37838 0.0
H1442 H 0.81914 0.72171 0.38519 0.0
H1443 H 0.81563 0.66452 0.40622 0.0
H1444 H 0.80702 0.69094 0.46244 0.0
H1445 H 0.82274 0.68164 0.43426 0.0
H1446 H 0.78987 0.72196 0.40152 0.0
H1447 H 0.77443 0.73161 0.43011 0.0
C1448 C 0.82948 0.69997 0.3674 0.0
C1449 C 0.83267 0.68053 0.36504 0.0
C1450 C 0.82133 0.70667 0.38373 0.0
C1451 C 0.81625 0.69408 0.39807 0.0
C1452 C 0.81958 0.6747 0.39568 0.0
C1453 C 0.82778 0.66806 0.3795 0.0
C1454 C 0.80303 0.69773 0.44922 0.0
C1455 C 0.78928 0.71182 0.44846 0.0
C1456 C 0.81206 0.69241 0.43301 0.0
C1457 C 0.80744 0.70086 0.4155 0.0
C1458 C 0.79392 0.71525 0.41478 0.0
C1459 C 0.785 0.72073 0.43112 0.0
H1460 H 0.84237 0.2951 0.40226 0.0
H1461 H 0.84003 0.35536 0.41169 0.0
H1462 H 0.82289 0.28972 0.42937 0.0
H1463 H 0.8201 0.35004 0.43828 0.0
H1464 H 0.77406 0.28639 0.46865 0.0
H1465 H 0.79086 0.29352 0.44017 0.0
H1466 H 0.82227 0.33806 0.47002 0.0
H1467 H 0.80533 0.33115 0.49832 0.0
C1468 C 0.83776 0.3072 0.41013 0.0
C1469 C 0.84281 0.32566 0.40474 0.0
C1470 C 0.82635 0.30413 0.42552 0.0
C1471 C 0.81978 0.31945 0.43601 0.0
C1472 C 0.82496 0.33789 0.43066 0.0
C1473 C 0.83629 0.34094 0.41528 0.0
C1474 C 0.78423 0.29799 0.46904 0.0
C1475 C 0.78834 0.30817 0.48587 0.0
C1476 C 0.79407 0.30192 0.45274 0.0
C1477 C 0.80814 0.31621 0.4528 0.0
C1478 C 0.81148 0.32702 0.46935 0.0
C1479 C 0.80174 0.32305 0.48564 0.0
H1480 H 0.16941 0.73961 0.68772 0.0
H1481 H 0.15546 0.68147 0.70057 0.0
H1482 H 0.14339 0.75011 0.70618 0.0
H1483 H 0.12965 0.69212 0.71947 0.0
H1484 H 0.09821 0.72237 0.76739 0.0
H1485 H 0.12407 0.71056 0.74929 0.0
H1486 H 0.1082 0.74807 0.70356 0.0
H1487 H 0.08224 0.75958 0.72126 0.0
C1488 C 0.16073 0.72904 0.69435 0.0
C1489 C 0.1645 0.70966 0.69249 0.0
C1490 C 0.14585 0.73508 0.705 0.0
C1491 C 0.13441 0.72194 0.71421 0.0
C1492 C 0.13833 0.70259 0.71267 0.0
C1493 C 0.15315 0.69651 0.70187 0.0
C1494 C 0.10006 0.72798 0.75341 0.0
C1495 C 0.08812 0.74213 0.74597 0.0
C1496 C 0.11493 0.7212 0.74305 0.0
C1497 C 0.11828 0.72852 0.72507 0.0
C1498 C 0.10621 0.74242 0.71753 0.0
C1499 C 0.09131 0.74906 0.72777 0.0
H1500 H 0.84996 0.66977 0.66073 0.0
H1501 H 0.86128 0.69848 0.71401 0.0
H1502 H 0.83913 0.64177 0.67757 0.0
H1503 H 0.85072 0.67053 0.73073 0.0
H1504 H 0.85242 0.61037 0.75438 0.0
H1505 H 0.86185 0.63834 0.73689 0.0
H1506 H 0.81388 0.62996 0.69779 0.0
H1507 H 0.80468 0.60169 0.71507 0.0
C1508 C 0.84995 0.67021 0.676 0.0
C1509 C 0.85671 0.68636 0.68598 0.0
C1510 C 0.84377 0.65414 0.68566 0.0
C1511 C 0.84425 0.65381 0.70553 0.0
C1512 C 0.85054 0.67012 0.71545 0.0
C1513 C 0.85662 0.68617 0.70583 0.0
C1514 C 0.84395 0.61439 0.74198 0.0
C1515 C 0.82777 0.60375 0.73618 0.0
C1516 C 0.84925 0.63055 0.73205 0.0
C1517 C 0.83858 0.63647 0.71596 0.0
C1518 C 0.82248 0.62575 0.71004 0.0
C1519 C 0.8171 0.60965 0.72007 0.0
H1520 H 0.89772 0.37495 0.68553 0.0
H1521 H 0.86561 0.38076 0.73539 0.0
H1522 H 0.92529 0.36593 0.70501 0.0
H1523 H 0.89308 0.37119 0.755 0.0
H1524 H 0.95106 0.36803 0.78614 0.0
H1525 H 0.92418 0.37958 0.7671 0.0
H1526 H 0.93635 0.34005 0.7229 0.0
H1527 H 0.96366 0.32934 0.74128 0.0
C1528 C 0.89654 0.37418 0.70069 0.0
C1529 C 0.87945 0.37843 0.70891 0.0
C1530 C 0.91233 0.36892 0.71189 0.0
C1531 C 0.91144 0.36758 0.73163 0.0
C1532 C 0.89441 0.37224 0.73989 0.0
C1533 C 0.87863 0.37768 0.72866 0.0
C1534 C 0.94817 0.36193 0.77229 0.0
C1535 C 0.95971 0.34767 0.7654 0.0
C1536 C 0.93257 0.36843 0.76142 0.0
C1537 C 0.92804 0.36082 0.74337 0.0
C1538 C 0.93951 0.34652 0.73656 0.0
C1539 C 0.95513 0.34013 0.74733 0.0
H1540 H 0.20038 0.41657 0.67868 0.0
H1541 H 0.19324 0.3994 0.73633 0.0
H1542 H 0.21787 0.44468 0.68983 0.0
H1543 H 0.211 0.42749 0.74755 0.0
H1544 H 0.23332 0.48824 0.76084 0.0
H1545 H 0.21198 0.46227 0.75003 0.0
H1546 H 0.24849 0.45073 0.70441 0.0
H1547 H 0.26926 0.4765 0.71478 0.0
C1548 C 0.20262 0.41876 0.69375 0.0
C1549 C 0.1956 0.40562 0.7066 0.0
C1550 C 0.21264 0.4349 0.70016 0.0
C1551 C 0.21604 0.43829 0.71961 0.0
C1552 C 0.2085 0.42545 0.73249 0.0
C1553 C 0.19838 0.40931 0.72605 0.0
C1554 C 0.23664 0.4802 0.74844 0.0
C1555 C 0.25299 0.48451 0.73868 0.0
C1556 C 0.2245 0.46527 0.7423 0.0
C1557 C 0.22843 0.45447 0.72624 0.0
C1558 C 0.24475 0.45893 0.71657 0.0
C1559 C 0.2568 0.4737 0.72266 0.0
H1560 H 0.17241 0.34908 0.32196 0.0
H1561 H 0.15019 0.34218 0.37725 0.0
H1562 H 0.14257 0.33734 0.30749 0.0
H1563 H 0.12059 0.32981 0.36281 0.0
H1564 H 0.06358 0.325 0.3317 0.0
H1565 H 0.09296 0.33958 0.34416 0.0
H1566 H 0.12399 0.30836 0.3037 0.0
H1567 H 0.09453 0.29397 0.291 0.0
C1568 C 0.16114 0.34512 0.33105 0.0
C1569 C 0.16375 0.34665 0.35081 0.0
C1570 C 0.14407 0.3382 0.32273 0.0
C1571 C 0.12909 0.33265 0.33393 0.0
C1572 C 0.13169 0.33419 0.3537 0.0
C1573 C 0.14878 0.34106 0.36201 0.0
C1574 C 0.07661 0.32142 0.32524 0.0
C1575 C 0.07663 0.30823 0.31035 0.0
C1576 C 0.09352 0.32967 0.33254 0.0
C1577 C 0.11093 0.32498 0.32514 0.0
C1578 C 0.11087 0.31241 0.3097 0.0
C1579 C 0.09394 0.30413 0.30241 0.0
H1580 H 0.19159 0.65786 0.30023 0.0
H1581 H 0.18881 0.62894 0.35352 0.0
H1582 H 0.20787 0.63074 0.2871 0.0
H1583 H 0.20451 0.60181 0.34043 0.0
H1584 H 0.25932 0.57561 0.32322 0.0
H1585 H 0.2372 0.59889 0.33294 0.0
H1586 H 0.20825 0.5961 0.27801 0.0
H1587 H 0.231 0.57246 0.268 0.0
C1588 C 0.19401 0.6455 0.30895 0.0
C1589 C 0.18923 0.6456 0.32798 0.0
C1590 C 0.20329 0.62995 0.30143 0.0
C1591 C 0.20783 0.61422 0.31281 0.0
C1592 C 0.20166 0.61385 0.33139 0.0
C1593 C 0.19261 0.62937 0.3389 0.0
C1594 C 0.24822 0.57977 0.31312 0.0
C1595 C 0.247 0.57213 0.29478 0.0
C1596 C 0.23536 0.59308 0.31881 0.0
C1597 C 0.22077 0.59929 0.30636 0.0
C1598 C 0.21935 0.59162 0.28795 0.0
C1599 C 0.23228 0.57803 0.28225 0.0
H1600 H 0.89583 0.69025 0.34194 0.0
H1601 H 0.87144 0.67806 0.28622 0.0
H1602 H 0.92367 0.70414 0.32797 0.0
H1603 H 0.89946 0.69169 0.27223 0.0
H1604 H 0.94468 0.73695 0.25595 0.0
H1605 H 0.91625 0.72266 0.26853 0.0
H1606 H 0.9507 0.693 0.31025 0.0
H1607 H 0.97903 0.70723 0.2978 0.0
C1608 C 0.89634 0.69067 0.3267 0.0
C1609 C 0.8814 0.68304 0.31521 0.0
C1610 C 0.91239 0.69844 0.31869 0.0
C1611 C 0.91386 0.69892 0.29897 0.0
C1612 C 0.89875 0.69163 0.28745 0.0
C1613 C 0.88277 0.68369 0.29548 0.0
C1614 C 0.94621 0.7272 0.26765 0.0
C1615 C 0.96419 0.7233 0.27586 0.0
C1616 C 0.9299 0.719 0.27486 0.0
C1617 C 0.93118 0.70685 0.29053 0.0
C1618 C 0.94918 0.70256 0.29837 0.0
C1619 C 0.96546 0.71061 0.2911 0.0
H1620 H 0.85083 0.38395 0.36812 0.0
H1621 H 0.85665 0.3462 0.32091 0.0
H1622 H 0.84267 0.40957 0.34642 0.0
H1623 H 0.84794 0.37157 0.29914 0.0
H1624 H 0.84862 0.4252 0.26409 0.0
H1625 H 0.85842 0.40052 0.2861 0.0
H1626 H 0.81834 0.42016 0.32555 0.0
H1627 H 0.80944 0.44543 0.30424 0.0
C1628 C 0.85015 0.3811 0.35309 0.0
C1629 C 0.85437 0.36309 0.34622 0.0
C1630 C 0.84544 0.39576 0.34061 0.0
C1631 C 0.84461 0.3927 0.32094 0.0
C1632 C 0.84877 0.3746 0.31413 0.0
C1633 C 0.85367 0.36001 0.32661 0.0
C1634 C 0.84204 0.42445 0.27753 0.0
C1635 C 0.82812 0.43742 0.28219 0.0
C1636 C 0.84752 0.41009 0.29011 0.0
C1637 C 0.83914 0.40822 0.30764 0.0
C1638 C 0.82531 0.42123 0.31232 0.0
C1639 C 0.81997 0.43565 0.29985 0.0
H1640 H 0.22168 0.65416 0.65456 0.0
H1641 H 0.21957 0.67427 0.71202 0.0
H1642 H 0.2399 0.62697 0.66566 0.0
H1643 H 0.23732 0.64692 0.72304 0.0
H1644 H 0.24641 0.58427 0.7365 0.0
H1645 H 0.23067 0.61223 0.72468 0.0
H1646 H 0.27133 0.61806 0.68157 0.0
H1647 H 0.28761 0.59012 0.69364 0.0
C1648 C 0.22526 0.65294 0.66952 0.0
C1649 C 0.21894 0.66639 0.68239 0.0
C1650 C 0.23568 0.63731 0.67587 0.0
C1651 C 0.2399 0.63468 0.69525 0.0
C1652 C 0.234 0.64835 0.70805 0.0
C1653 C 0.22375 0.66401 0.70171 0.0
C1654 C 0.25233 0.59148 0.72468 0.0
C1655 C 0.26856 0.58476 0.71624 0.0
C1656 C 0.24318 0.60761 0.71786 0.0
C1657 C 0.2498 0.61746 0.70227 0.0
C1658 C 0.26581 0.6107 0.69356 0.0
C1659 C 0.27513 0.59462 0.70051 0.0
H1660 H 0.19301 0.40989 0.34801 0.0
H1661 H 0.24626 0.38108 0.35288 0.0
H1662 H 0.20914 0.43817 0.33687 0.0
H1663 H 0.26241 0.40923 0.34149 0.0
H1664 H 0.28786 0.46895 0.34009 0.0
H1665 H 0.27148 0.44083 0.35122 0.0
H1666 H 0.22527 0.45074 0.31074 0.0
H1667 H 0.2411 0.47922 0.30032 0.0
C1668 C 0.20813 0.40951 0.34642 0.0
C1669 C 0.21835 0.39326 0.35135 0.0
C1670 C 0.2174 0.42573 0.34005 0.0
C1671 C 0.23713 0.42605 0.33836 0.0
C1672 C 0.24728 0.40965 0.34297 0.0
C1673 C 0.23802 0.39347 0.34942 0.0
C1674 C 0.27412 0.46526 0.3337 0.0
C1675 C 0.26591 0.47641 0.31922 0.0
C1676 C 0.26481 0.44898 0.33993 0.0
C1677 C 0.24705 0.44343 0.33184 0.0
C1678 C 0.23882 0.45464 0.31745 0.0
C1679 C 0.24808 0.47091 0.31127 0.0
H1680 H 0.13472 0.70729 0.36022 0.0
H1681 H 0.14643 0.69416 0.30241 0.0
H1682 H 0.1069 0.72426 0.34953 0.0
H1683 H 0.11752 0.70983 0.29176 0.0
H1684 H 0.07361 0.7547 0.27663 0.0
H1685 H 0.10259 0.73871 0.28689 0.0
H1686 H 0.07618 0.72087 0.33781 0.0
H1687 H 0.04772 0.73755 0.32781 0.0
C1688 C 0.13144 0.708 0.34518 0.0
C1689 C 0.14314 0.69939 0.33223 0.0
C1690 C 0.11513 0.71751 0.33902 0.0
C1691 C 0.10967 0.71845 0.31971 0.0
C1692 C 0.12127 0.70971 0.30673 0.0
C1693 C 0.13779 0.7004 0.31289 0.0
C1694 C 0.07409 0.74737 0.29003 0.0
C1695 C 0.05842 0.74753 0.30147 0.0
C1696 C 0.09068 0.73807 0.2959 0.0
C1697 C 0.09195 0.72841 0.31328 0.0
C1698 C 0.0761 0.72847 0.32458 0.0
C1699 C 0.05966 0.73801 0.31883 0.0
H1700 H 0.86359 0.61562 0.32551 0.0
H1701 H 0.80744 0.6353 0.31146 0.0
H1702 H 0.85366 0.58348 0.31706 0.0
H1703 H 0.79755 0.60325 0.30173 0.0
H1704 H 0.78158 0.54082 0.29539 0.0
H1705 H 0.79038 0.57147 0.30991 0.0
H1706 H 0.84693 0.56591 0.29032 0.0
H1707 H 0.83855 0.53544 0.27709 0.0
C1708 C 0.84917 0.61303 0.32026 0.0
C1709 C 0.83636 0.62789 0.31879 0.0
C1710 C 0.84342 0.59462 0.31538 0.0
C1711 C 0.8248 0.59067 0.30842 0.0
C1712 C 0.81191 0.60562 0.30722 0.0
C1713 C 0.8176 0.62402 0.31253 0.0
C1714 C 0.79597 0.54604 0.29466 0.0
C1715 C 0.80932 0.53568 0.28506 0.0
C1716 C 0.80099 0.56371 0.30275 0.0
C1717 C 0.81941 0.57132 0.3013 0.0
C1718 C 0.83275 0.56054 0.29216 0.0
C1719 C 0.82784 0.54299 0.28435 0.0
H1720 H 0.89197 0.30982 0.33359 0.0
H1721 H 0.90811 0.30739 0.39301 0.0
H1722 H 0.92139 0.29543 0.32603 0.0
H1723 H 0.93715 0.29147 0.38552 0.0
H1724 H 0.99737 0.28599 0.36409 0.0
H1725 H 0.96684 0.29723 0.37359 0.0
H1726 H 0.9396 0.26892 0.32523 0.0
H1727 H 0.9703 0.25866 0.31539 0.0
C1728 C 0.90173 0.30604 0.34512 0.0
C1729 C 0.8977 0.31015 0.36393 0.0
C1730 C 0.91861 0.29742 0.34077 0.0
C1731 C 0.93192 0.29224 0.35511 0.0
C1732 C 0.92751 0.29555 0.37402 0.0
C1733 C 0.91066 0.30444 0.37837 0.0
C1734 C 0.98479 0.28208 0.35563 0.0
C1735 C 0.98623 0.2716 0.33891 0.0
C1736 C 0.96721 0.28843 0.36111 0.0
C1737 C 0.95054 0.28419 0.35016 0.0
C1738 C 0.95203 0.273 0.33382 0.0
C1739 C 0.96964 0.26698 0.32818 0.0
H1740 H 0.82126 0.43004 0.66472 0.0
H1741 H 0.82415 0.41529 0.72381 0.0
H1742 H 0.80568 0.45951 0.67228 0.0
H1743 H 0.80918 0.44495 0.73143 0.0
H1744 H 0.807 0.52039 0.69814 0.0
H1745 H 0.8153 0.48909 0.68726 0.0
H1746 H 0.78078 0.4637 0.72927 0.0
H1747 H 0.77269 0.49515 0.74041 0.0
C1748 C 0.81835 0.43295 0.6793 0.0
C1749 C 0.82412 0.42031 0.69366 0.0
C1750 C 0.80957 0.44995 0.68366 0.0
C1751 C 0.80624 0.45475 0.7025 0.0
C1752 C 0.81132 0.44173 0.71676 0.0
C1753 C 0.82014 0.42478 0.7124 0.0
C1754 C 0.80083 0.50815 0.70483 0.0
C1755 C 0.78925 0.51036 0.72025 0.0
C1756 C 0.80556 0.49013 0.69852 0.0
C1757 C 0.7989 0.47377 0.70749 0.0
C1758 C 0.78642 0.47596 0.72221 0.0
C1759 C 0.7816 0.49403 0.72848 0.0
H1760 H 0.15157 0.36555 0.73898 0.0
H1761 H 0.12809 0.3489 0.68394 0.0
H1762 H 0.12253 0.35506 0.75311 0.0
H1763 H 0.09918 0.33798 0.69827 0.0
H1764 H 0.05938 0.30336 0.73851 0.0
H1765 H 0.08762 0.31288 0.72178 0.0
H1766 H 0.08908 0.36648 0.75114 0.0
H1767 H 0.06124 0.3572 0.76762 0.0
C1768 C 0.1402 0.35976 0.72987 0.0
C1769 C 0.14216 0.35821 0.71031 0.0
C1770 C 0.12361 0.35367 0.73798 0.0
C1771 C 0.10859 0.34577 0.72675 0.0
C1772 C 0.11061 0.34384 0.70726 0.0
C1773 C 0.12717 0.3501 0.6991 0.0
C1774 C 0.06562 0.31725 0.74115 0.0
C1775 C 0.05819 0.32942 0.75453 0.0
C1776 C 0.08175 0.32268 0.73161 0.0
C1777 C 0.0907 0.34029 0.73545 0.0
C1778 C 0.08274 0.35267 0.74822 0.0
C1779 C 0.0667 0.34734 0.75759 0.0
H1780 H 0.92003 0.74243 0.65795 0.0
H1781 H 0.89461 0.73743 0.71195 0.0
H1782 H 0.94903 0.75537 0.6738 0.0
H1783 H 0.92345 0.75 0.7276 0.0
H1784 H 0.9841 0.74133 0.74863 0.0
H1785 H 0.95556 0.73356 0.73006 0.0
H1786 H 0.96283 0.78378 0.69657 0.0
H1787 H 0.99191 0.79191 0.71556 0.0
C1788 C 0.9205 0.74439 0.67312 0.0
C1789 C 0.90515 0.73854 0.68374 0.0
C1790 C 0.93707 0.75181 0.68215 0.0
C1791 C 0.93855 0.75342 0.70193 0.0
C1792 C 0.92281 0.74861 0.71236 0.0
C1793 C 0.90633 0.74132 0.70339 0.0
C1794 C 0.9798 0.75082 0.73732 0.0
C1795 C 0.99027 0.76739 0.73374 0.0
C1796 C 0.96333 0.74634 0.72671 0.0
C1797 C 0.95681 0.7582 0.71208 0.0
C1798 C 0.96755 0.77443 0.70785 0.0
C1799 C 0.98414 0.77908 0.7187 0.0
H1800 H 0.73941 0.18598 0.65092 0.0
H1801 H 0.68257 0.20212 0.63395 0.0
H1802 H 0.75098 0.20034 0.6225 0.0
H1803 H 0.69435 0.21688 0.60552 0.0
H1804 H 0.73036 0.25823 0.56736 0.0
H1805 H 0.71536 0.24405 0.59474 0.0
H1806 H 0.74834 0.1938 0.58846 0.0
H1807 H 0.76317 0.20775 0.56164 0.0
C1808 C 0.72931 0.19238 0.64105 0.0
C1809 C 0.71 0.19267 0.64477 0.0
C1810 C 0.73598 0.20073 0.62475 0.0
C1811 C 0.72358 0.20969 0.61165 0.0
C1812 C 0.7043 0.21024 0.61539 0.0
C1813 C 0.69757 0.20175 0.63171 0.0
C1814 C 0.73414 0.24406 0.57172 0.0
C1815 C 0.74815 0.23425 0.56246 0.0
C1816 C 0.72558 0.23594 0.58738 0.0
C1817 C 0.73095 0.21792 0.59402 0.0
C1818 C 0.74422 0.20787 0.58408 0.0
C1819 C 0.75267 0.21589 0.56859 0.0
H1820 H 0.35666 0.20282 0.64038 0.0
H1821 H 0.36513 0.26005 0.6608 0.0
H1822 H 0.34195 0.2148 0.61108 0.0
H1823 H 0.3507 0.27208 0.6313 0.0
H1824 H 0.30325 0.28223 0.58396 0.0
H1825 H 0.31955 0.27275 0.61349 0.0
H1826 H 0.35174 0.23244 0.583 0.0
H1827 H 0.33548 0.24177 0.55357 0.0
C1828 C 0.35525 0.21795 0.63867 0.0
C1829 C 0.36206 0.23046 0.65294 0.0
C1830 C 0.34704 0.22484 0.62178 0.0
C1831 C 0.34531 0.24442 0.61877 0.0
C1832 C 0.35178 0.25693 0.63318 0.0
C1833 C 0.36014 0.25004 0.65003 0.0
C1834 C 0.31406 0.2716 0.58349 0.0
C1835 C 0.31793 0.26268 0.56636 0.0
C1836 C 0.32339 0.26616 0.60044 0.0
C1837 C 0.33672 0.25161 0.60064 0.0
C1838 C 0.34126 0.2434 0.58339 0.0
C1839 C 0.33204 0.2489 0.56647 0.0
H1840 H 0.29663 0.86702 0.66083 0.0
H1841 H 0.35471 0.86838 0.64512 0.0
H1842 H 0.2886 0.84535 0.63462 0.0
H1843 H 0.34675 0.84714 0.61874 0.0
H1844 H 0.33169 0.79238 0.58743 0.0
H1845 H 0.3387 0.81478 0.61302 0.0
H1846 H 0.28508 0.84154 0.60123 0.0
H1847 H 0.27766 0.8186 0.57636 0.0
C1848 C 0.30759 0.86298 0.65154 0.0
C1849 C 0.32631 0.86931 0.65512 0.0
C1850 C 0.30302 0.85053 0.63651 0.0
C1851 C 0.31707 0.84422 0.62462 0.0
C1852 C 0.33564 0.85123 0.62782 0.0
C1853 C 0.34019 0.86354 0.64287 0.0
C1854 C 0.3213 0.80289 0.59038 0.0
C1855 C 0.30414 0.80361 0.57963 0.0
C1856 C 0.32542 0.81595 0.60496 0.0
C1857 C 0.31254 0.83016 0.60919 0.0
C1858 C 0.29532 0.83077 0.59854 0.0
C1859 C 0.29116 0.81768 0.58403 0.0
H1860 H 0.67027 0.79282 0.64209 0.0
H1861 H 0.68234 0.84574 0.61448 0.0
H1862 H 0.6816 0.77557 0.61501 0.0
H1863 H 0.69367 0.82856 0.58753 0.0
H1864 H 0.73631 0.7925 0.5575 0.0
H1865 H 0.72152 0.80944 0.58246 0.0
H1866 H 0.67556 0.76853 0.58081 0.0
H1867 H 0.69034 0.75152 0.55546 0.0
C1868 C 0.67506 0.80076 0.63012 0.0
C1869 C 0.67562 0.82064 0.63051 0.0
C1870 C 0.68154 0.79088 0.61462 0.0
C1871 C 0.68872 0.80071 0.59922 0.0
C1872 C 0.68858 0.82058 0.59934 0.0
C1873 C 0.6821 0.83042 0.61478 0.0
C1874 C 0.72289 0.78722 0.56212 0.0
C1875 C 0.71448 0.77066 0.55427 0.0
C1876 C 0.71441 0.79696 0.57652 0.0
C1877 C 0.6973 0.7904 0.58355 0.0
C1878 C 0.68883 0.77385 0.57578 0.0
C1879 C 0.69731 0.76411 0.56126 0.0
H1880 H 0.70999 0.81858 0.36804 0.0
H1881 H 0.70107 0.86848 0.40141 0.0
H1882 H 0.72384 0.80276 0.39605 0.0
H1883 H 0.71453 0.85253 0.42949 0.0
H1884 H 0.71259 0.80288 0.47501 0.0
H1885 H 0.70269 0.82206 0.44779 0.0
H1886 H 0.75386 0.808 0.42058 0.0
H1887 H 0.76408 0.78913 0.44819 0.0
C1888 C 0.71098 0.82612 0.38138 0.0
C1889 C 0.70442 0.84471 0.38261 0.0
C1890 C 0.71904 0.81716 0.39733 0.0
C1891 C 0.72033 0.82648 0.41488 0.0
C1892 C 0.71373 0.84505 0.41611 0.0
C1893 C 0.70605 0.85416 0.40008 0.0
C1894 C 0.72191 0.80421 0.46338 0.0
C1895 C 0.73913 0.79461 0.46373 0.0
C1896 C 0.71625 0.81518 0.44783 0.0
C1897 C 0.72746 0.81642 0.43207 0.0
C1898 C 0.74493 0.8072 0.43255 0.0
C1899 C 0.75084 0.79657 0.44838 0.0
H1900 H 0.67557 0.19645 0.39828 0.0
H1901 H 0.72039 0.21369 0.36265 0.0
H1902 H 0.6962 0.20329 0.42641 0.0
H1903 H 0.74081 0.22097 0.39066 0.0
H1904 H 0.75962 0.25265 0.44738 0.0
H1905 H 0.73953 0.24535 0.41913 0.0
H1906 H 0.72914 0.18921 0.44039 0.0
H1907 H 0.74964 0.19645 0.46851 0.0
C1908 C 0.68974 0.20191 0.39651 0.0
C1909 C 0.69639 0.20461 0.37834 0.0
C1910 C 0.70158 0.20567 0.41255 0.0
C1911 C 0.72012 0.21259 0.41069 0.0
C1912 C 0.72658 0.21568 0.39251 0.0
C1913 C 0.71492 0.21153 0.37651 0.0
C1914 C 0.75315 0.23871 0.4459 0.0
C1915 C 0.75622 0.22508 0.46006 0.0
C1916 C 0.7417 0.23453 0.42976 0.0
C1917 C 0.7327 0.21675 0.42763 0.0
C1918 C 0.73581 0.20306 0.44175 0.0
C1919 C 0.74765 0.20712 0.45771 0.0
H1920 H 0.29796 0.18513 0.3863 0.0
H1921 H 0.35423 0.19446 0.41096 0.0
H1922 H 0.2846 0.19836 0.41439 0.0
H1923 H 0.3408 0.20787 0.43914 0.0
H1924 H 0.3084 0.24579 0.47942 0.0
H1925 H 0.32223 0.2348 0.45058 0.0
H1926 H 0.2823 0.18798 0.44751 0.0
H1927 H 0.26818 0.19924 0.47615 0.0
C1928 C 0.30748 0.1901 0.39771 0.0
C1929 C 0.32715 0.18855 0.39651 0.0
C1930 C 0.29982 0.19761 0.41382 0.0
C1931 C 0.31163 0.20388 0.4291 0.0
C1932 C 0.33134 0.20319 0.42756 0.0
C1933 C 0.33903 0.19558 0.41142 0.0
C1934 C 0.30246 0.23325 0.4725 0.0
C1935 C 0.28708 0.22345 0.48 0.0
C1936 C 0.31052 0.22685 0.45608 0.0
C1937 C 0.30331 0.21059 0.44671 0.0
C1938 C 0.28802 0.20071 0.45428 0.0
C1939 C 0.28005 0.20704 0.47078 0.0
H1940 H 0.33145 0.85972 0.39952 0.0
H1941 H 0.34965 0.80263 0.3897 0.0
H1942 H 0.31648 0.8493 0.42814 0.0
H1943 H 0.33506 0.7924 0.41845 0.0
H1944 H 0.32812 0.7858 0.48109 0.0
H1945 H 0.34143 0.79817 0.45271 0.0
H1946 H 0.28982 0.82792 0.43929 0.0
H1947 H 0.27624 0.8154 0.4681 0.0
C1948 C 0.33215 0.84493 0.40335 0.0
C1949 C 0.3419 0.83204 0.3923 0.0
C1950 C 0.32356 0.83899 0.41977 0.0
C1951 C 0.32468 0.82007 0.42562 0.0
C1952 C 0.33421 0.80716 0.41448 0.0
C1953 C 0.34267 0.81305 0.39803 0.0
C1954 C 0.31952 0.79505 0.47222 0.0
C1955 C 0.301 0.79947 0.47683 0.0
C1956 C 0.32718 0.80205 0.45585 0.0
C1957 C 0.31659 0.81376 0.44359 0.0
C1958 C 0.29832 0.8189 0.44849 0.0
C1959 C 0.29055 0.81175 0.46496 0.0
H1960 H 0.68437 0.19631 0.72684 0.0
H1961 H 0.64816 0.19579 0.67617 0.0
H1962 H 0.6587 0.20913 0.74465 0.0
H1963 H 0.6224 0.20856 0.69402 0.0
H1964 H 0.57634 0.20769 0.73883 0.0
H1965 H 0.60241 0.19582 0.7209 0.0
H1966 H 0.6393 0.23941 0.74539 0.0
H1967 H 0.61322 0.25125 0.7633 0.0
C1968 C 0.67093 0.19906 0.71953 0.0
C1969 C 0.6682 0.19508 0.70016 0.0
C1970 C 0.65629 0.20644 0.72968 0.0
C1971 C 0.63856 0.20972 0.72072 0.0
C1972 C 0.6359 0.20598 0.70129 0.0
C1973 C 0.65064 0.19887 0.69106 0.0
C1974 C 0.59007 0.21458 0.74051 0.0
C1975 C 0.5928 0.23036 0.75246 0.0
C1976 C 0.60491 0.20794 0.73011 0.0
C1977 C 0.62282 0.21677 0.7317 0.0
C1978 C 0.62564 0.23232 0.74394 0.0
C1979 C 0.61074 0.23913 0.7541 0.0
H1980 H 0.39384 0.16958 0.71059 0.0
H1981 H 0.33764 0.19214 0.7043 0.0
H1982 H 0.38142 0.1423 0.72722 0.0
H1983 H 0.32521 0.16489 0.721 0.0
H1984 H 0.30689 0.10406 0.73422 0.0
H1985 H 0.31919 0.13143 0.71776 0.0
H1986 H 0.36808 0.1331 0.75648 0.0
H1987 H 0.35579 0.10562 0.7729 0.0
C1988 C 0.37884 0.16882 0.7129 0.0
C1989 C 0.36677 0.18313 0.70608 0.0
C1990 C 0.37171 0.15315 0.72247 0.0
C1991 C 0.35228 0.15132 0.72553 0.0
C1992 C 0.34019 0.16562 0.71868 0.0
C1993 C 0.34733 0.18129 0.70908 0.0
C1994 C 0.32017 0.11034 0.73938 0.0
C1995 C 0.3303 0.10255 0.75496 0.0
C1996 C 0.32725 0.1261 0.72991 0.0
C1997 C 0.34467 0.13456 0.73574 0.0
C1998 C 0.35478 0.12681 0.75136 0.0
C1999 C 0.3477 0.11102 0.76082 0.0
H2000 H 0.36137 0.84769 0.70991 0.0
H2001 H 0.38194 0.90513 0.71791 0.0
H2002 H 0.38967 0.83603 0.72652 0.0
H2003 H 0.41026 0.89338 0.73483 0.0
H2004 H 0.45061 0.86355 0.77873 0.0
H2005 H 0.42163 0.8762 0.7641 0.0
H2006 H 0.42348 0.83474 0.71948 0.0
H2007 H 0.45246 0.82232 0.73374 0.0
C2008 C 0.37194 0.85785 0.7152 0.0
C2009 C 0.36947 0.87735 0.71233 0.0
C2010 C 0.38817 0.85115 0.72474 0.0
C2011 C 0.40233 0.86376 0.7318 0.0
C2012 C 0.39956 0.88331 0.72964 0.0
C2013 C 0.38332 0.89004 0.71997 0.0
C2014 C 0.44498 0.8572 0.76572 0.0
C2015 C 0.45397 0.84176 0.75756 0.0
C2016 C 0.42832 0.86447 0.75735 0.0
C2017 C 0.42016 0.85638 0.74072 0.0
C2018 C 0.42918 0.84107 0.7325 0.0
C2019 C 0.44586 0.83391 0.74076 0.0
H2020 H 0.71576 0.85718 0.67475 0.0
H2021 H 0.66722 0.8923 0.68124 0.0
H2022 H 0.73662 0.88348 0.68454 0.0
H2023 H 0.68807 0.91882 0.69072 0.0
H2024 H 0.72985 0.95715 0.72397 0.0
H2025 H 0.70922 0.93054 0.7153 0.0
H2026 H 0.74817 0.91318 0.67373 0.0
H2027 H 0.76936 0.93928 0.68311 0.0
C2028 C 0.70955 0.87059 0.67817 0.0
C2029 C 0.68983 0.87268 0.67714 0.0
C2030 C 0.72152 0.88571 0.68372 0.0
C2031 C 0.7141 0.90339 0.68831 0.0
C2032 C 0.69432 0.90538 0.68753 0.0
C2033 C 0.68234 0.89019 0.68208 0.0
C2034 C 0.73423 0.94758 0.71316 0.0
C2035 C 0.75147 0.95044 0.70437 0.0
C2036 C 0.72219 0.93239 0.70798 0.0
C2037 C 0.72695 0.91963 0.69379 0.0
C2038 C 0.74411 0.92253 0.68491 0.0
C2039 C 0.75621 0.9377 0.69014 0.0
H2040 H 0.66758 0.81733 0.33038 0.0
H2041 H 0.6422 0.87187 0.32114 0.0
H2042 H 0.64094 0.80218 0.31351 0.0
H2043 H 0.61598 0.85675 0.30304 0.0
H2044 H 0.5613 0.81904 0.29408 0.0
H2045 H 0.58852 0.83774 0.30648 0.0
H2046 H 0.62603 0.79651 0.28406 0.0
H2047 H 0.59876 0.77756 0.27271 0.0
C2048 C 0.65636 0.82615 0.32469 0.0
C2049 C 0.6571 0.84588 0.32735 0.0
C2050 C 0.64113 0.81745 0.31464 0.0
C2051 C 0.62621 0.82818 0.30666 0.0
C2052 C 0.62707 0.84795 0.30905 0.0
C2053 C 0.64228 0.85667 0.31927 0.0
C2054 C 0.57541 0.81438 0.29134 0.0
C2055 C 0.57801 0.79702 0.2823 0.0
C2056 C 0.59106 0.82503 0.2985 0.0
C2057 C 0.60961 0.81853 0.29664 0.0
C2058 C 0.61204 0.80177 0.2863 0.0
C2059 C 0.59644 0.79103 0.27948 0.0
H2060 H 0.71702 0.17756 0.32103 0.0
H2061 H 0.66208 0.15047 0.31431 0.0
H2062 H 0.7307 0.15217 0.30348 0.0
H2063 H 0.67566 0.12528 0.29577 0.0
H2064 H 0.71405 0.0719 0.29043 0.0
H2065 H 0.69552 0.09856 0.30085 0.0
H2066 H 0.73397 0.13722 0.27432 0.0
H2067 H 0.7528 0.1105 0.26481 0.0
C2068 C 0.70779 0.16625 0.3156 0.0
C2069 C 0.68847 0.16598 0.31935 0.0
C2070 C 0.71561 0.15175 0.30523 0.0
C2071 C 0.70435 0.13653 0.29809 0.0
C2072 C 0.68485 0.13662 0.30119 0.0
C2073 C 0.677 0.15118 0.31166 0.0
C2074 C 0.71807 0.08609 0.28631 0.0
C2075 C 0.73465 0.08921 0.27664 0.0
C2076 C 0.70751 0.10142 0.2923 0.0
C2077 C 0.71336 0.12018 0.28873 0.0
C2078 C 0.72923 0.12306 0.27776 0.0
C2079 C 0.73988 0.10777 0.27202 0.0
H2080 H 0.38792 0.15421 0.34399 0.0
H2081 H 0.36616 0.21088 0.34565 0.0
H2082 H 0.41457 0.16565 0.32646 0.0
H2083 H 0.39287 0.22233 0.32815 0.0
H2084 H 0.45342 0.23865 0.3136 0.0
H2085 H 0.42694 0.22742 0.33135 0.0
H2086 H 0.42138 0.17804 0.29543 0.0
H2087 H 0.44788 0.18932 0.27758 0.0
C2088 C 0.38876 0.1691 0.34053 0.0
C2089 C 0.37484 0.18161 0.34621 0.0
C2090 C 0.40404 0.17566 0.33045 0.0
C2091 C 0.40585 0.1949 0.32581 0.0
C2092 C 0.39206 0.20746 0.33168 0.0
C2093 C 0.37675 0.2009 0.34175 0.0
C2094 C 0.44646 0.22551 0.30929 0.0
C2095 C 0.45283 0.21494 0.29406 0.0
C2096 C 0.43125 0.21905 0.31953 0.0
C2097 C 0.42201 0.20182 0.31484 0.0
C2098 C 0.42835 0.19124 0.29961 0.0
C2099 C 0.44356 0.19771 0.28936 0.0
H2100 H 0.36332 0.89254 0.33485 0.0
H2101 H 0.31561 0.85392 0.33007 0.0
H2102 H 0.34429 0.91721 0.31922 0.0
H2103 H 0.29683 0.87812 0.314 0.0
H2104 H 0.26299 0.93161 0.31997 0.0
H2105 H 0.28402 0.90609 0.32791 0.0
H2106 H 0.32513 0.92909 0.29076 0.0
H2107 H 0.30376 0.95535 0.28283 0.0
C2108 C 0.34893 0.88922 0.32997 0.0
C2109 C 0.34077 0.87151 0.3339 0.0
C2110 C 0.33807 0.90327 0.32097 0.0
C2111 C 0.31895 0.89973 0.31569 0.0
C2112 C 0.31138 0.88146 0.3183 0.0
C2113 C 0.32211 0.86757 0.32744 0.0
C2114 C 0.27644 0.93132 0.31333 0.0
C2115 C 0.28169 0.94559 0.30077 0.0
C2116 C 0.28848 0.91649 0.31778 0.0
C2117 C 0.30619 0.91538 0.30981 0.0
C2118 C 0.31155 0.92957 0.29712 0.0
C2119 C 0.29932 0.94453 0.29253 0.0
H2120 H 0.72299 0.15597 0.7221 0.0
H2121 H 0.70589 0.12492 0.67162 0.0
H2122 H 0.73423 0.12695 0.73692 0.0
H2123 H 0.71608 0.09554 0.68666 0.0
H2124 H 0.75232 0.04872 0.71215 0.0
H2125 H 0.74118 0.07733 0.69693 0.0
H2126 H 0.72504 0.09893 0.75088 0.0
H2127 H 0.73732 0.07056 0.76626 0.0
C2128 C 0.72166 0.14284 0.7142 0.0
C2129 C 0.71371 0.14267 0.69569 0.0
C2130 C 0.72787 0.12612 0.72277 0.0
C2131 C 0.72595 0.10866 0.71317 0.0
C2132 C 0.71813 0.10863 0.6945 0.0
C2133 C 0.71224 0.12546 0.68581 0.0
C2134 C 0.74623 0.05948 0.72079 0.0
C2135 C 0.74574 0.0573 0.74048 0.0
C2136 C 0.73973 0.07597 0.71199 0.0
C2137 C 0.73221 0.0907 0.72256 0.0
C2138 C 0.73112 0.0882 0.74223 0.0
C2139 C 0.73796 0.0718 0.75108 0.0
H2140 H 0.67695 0.91316 0.33231 0.0
H2141 H 0.73299 0.89146 0.34325 0.0
H2142 H 0.69059 0.94377 0.32389 0.0
H2143 H 0.74664 0.92186 0.33464 0.0
H2144 H 0.76525 0.98345 0.33606 0.0
H2145 H 0.75051 0.95386 0.34552 0.0
H2146 H 0.70816 0.95922 0.3001 0.0
H2147 H 0.72233 0.98923 0.29122 0.0
C2148 C 0.69218 0.91488 0.33275 0.0
C2149 C 0.70387 0.89989 0.33855 0.0
C2150 C 0.70002 0.93242 0.32791 0.0
C2151 C 0.71975 0.93538 0.32867 0.0
C2152 C 0.7314 0.92028 0.33427 0.0
C2153 C 0.72357 0.9028 0.33917 0.0
C2154 C 0.75265 0.97851 0.32824 0.0
C2155 C 0.7451 0.98881 0.31279 0.0
C2156 C 0.74431 0.96136 0.33352 0.0
C2157 C 0.7282 0.95402 0.32349 0.0
C2158 C 0.72045 0.96447 0.30826 0.0
C2159 C 0.72876 0.98163 0.30301 0.0
H2160 H 0.64179 0.21468 0.30633 0.0
H2161 H 0.6281 0.21122 0.36494 0.0
H2162 H 0.61136 0.22906 0.29874 0.0
H2163 H 0.59792 0.22626 0.35745 0.0
H2164 H 0.53666 0.2296 0.33152 0.0
H2165 H 0.56797 0.21886 0.34158 0.0
H2166 H 0.59289 0.25729 0.30218 0.0
H2167 H 0.5614 0.26781 0.29182 0.0
C2168 C 0.63231 0.21698 0.31763 0.0
C2169 C 0.63744 0.2116 0.33625 0.0
C2170 C 0.61492 0.22552 0.31331 0.0
C2171 C 0.60209 0.22892 0.32746 0.0
C2172 C 0.60731 0.22374 0.34613 0.0
C2173 C 0.62473 0.21524 0.35046 0.0
C2174 C 0.54881 0.23604 0.32521 0.0
C2175 C 0.54641 0.24956 0.31079 0.0
C2176 C 0.56684 0.22989 0.33103 0.0
C2177 C 0.58306 0.23702 0.32259 0.0
C2178 C 0.58073 0.25121 0.30879 0.0
C2179 C 0.56266 0.25744 0.303 0.0
H2180 H 0.29541 0.14379 0.35409 0.0
H2181 H 0.34941 0.11657 0.35229 0.0
H2182 H 0.27935 0.11385 0.34642 0.0
H2183 H 0.33335 0.08645 0.34484 0.0
H2184 H 0.29819 0.04125 0.31186 0.0
H2185 H 0.31488 0.07059 0.32007 0.0
H2186 H 0.2728 0.08337 0.3602 0.0
H2187 H 0.25556 0.05431 0.35129 0.0
C2188 C 0.30384 0.13135 0.35213 0.0
C2189 C 0.32366 0.1325 0.35384 0.0
C2190 C 0.29464 0.11417 0.34784 0.0
C2191 C 0.30504 0.09769 0.3452 0.0
C2192 C 0.3249 0.09891 0.34662 0.0
C2193 C 0.33412 0.11615 0.35084 0.0
C2194 C 0.29239 0.05035 0.32234 0.0
C2195 C 0.27537 0.04551 0.33073 0.0
C2196 C 0.30212 0.06709 0.32723 0.0
C2197 C 0.29514 0.07942 0.34072 0.0
C2198 C 0.27841 0.07434 0.34953 0.0
C2199 C 0.26864 0.05756 0.3446 0.0
H2200 H 0.4086 0.85473 0.34011 0.0
H2201 H 0.38661 0.79956 0.35429 0.0
H2202 H 0.43783 0.84042 0.33066 0.0
H2203 H 0.4156 0.78516 0.3445 0.0
H2204 H 0.47605 0.76602 0.34065 0.0
H2205 H 0.44834 0.78137 0.35222 0.0
H2206 H 0.44986 0.82151 0.30647 0.0
H2207 H 0.47807 0.80689 0.29555 0.0
C2208 C 0.40998 0.83953 0.3411 0.0
C2209 C 0.39529 0.8283 0.34798 0.0
C2210 C 0.42673 0.83129 0.33564 0.0
C2211 C 0.42915 0.81158 0.33676 0.0
C2212 C 0.41445 0.80039 0.34374 0.0
C2213 C 0.39777 0.80865 0.34932 0.0
C2214 C 0.47068 0.77827 0.33318 0.0
C2215 C 0.47941 0.78507 0.31705 0.0
C2216 C 0.45458 0.78696 0.3397 0.0
C2217 C 0.44671 0.80267 0.33026 0.0
C2218 C 0.45557 0.80959 0.31428 0.0
C2219 C 0.47169 0.80098 0.30782 0.0
H2220 H 0.31709 0.91723 0.72962 0.0
H2221 H 0.31522 0.93589 0.67166 0.0
H2222 H 0.30366 0.94708 0.73921 0.0
H2223 H 0.30127 0.96563 0.68119 0.0
H2224 H 0.26896 0.99804 0.75113 0.0
H2225 H 0.27595 0.96706 0.73802 0.0
H2226 H 0.31227 0.99378 0.69836 0.0
H2227 H 0.3051 0.02464 0.71125 0.0
C2228 C 0.31366 0.92765 0.71888 0.0
C2229 C 0.31743 0.92418 0.69988 0.0
C2230 C 0.30573 0.94472 0.72436 0.0
C2231 C 0.30139 0.95887 0.711 0.0
C2232 C 0.30459 0.95516 0.6919 0.0
C2233 C 0.31244 0.93802 0.6864 0.0
C2234 C 0.27805 0.99735 0.7393 0.0
C2235 C 0.28651 0.01389 0.73232 0.0
C2236 C 0.28223 0.97954 0.73191 0.0
C2237 C 0.29487 0.97783 0.71725 0.0
C2238 C 0.30239 0.99448 0.70953 0.0
C2239 C 0.29831 1.01224 0.71699 0.0
H2240 H 0.64524 0.83596 0.71159 0.0
H2241 H 0.61449 0.82391 0.65873 0.0
H2242 H 0.61706 0.82838 0.72859 0.0
H2243 H 0.58636 0.81578 0.67597 0.0
H2244 H 0.54657 0.78621 0.72069 0.0
H2245 H 0.57391 0.79168 0.70106 0.0
H2246 H 0.5856 0.84475 0.72978 0.0
H2247 H 0.55869 0.83955 0.749 0.0
C2248 C 0.63248 0.83178 0.70356 0.0
C2249 C 0.63216 0.83083 0.68374 0.0
C2250 C 0.61635 0.8273 0.71333 0.0
C2251 C 0.59947 0.8216 0.70359 0.0
C2252 C 0.59921 0.82 0.68384 0.0
C2253 C 0.61536 0.82466 0.674 0.0
C2254 C 0.55488 0.79912 0.7226 0.0
C2255 C 0.55051 0.81233 0.73655 0.0
C2256 C 0.5705 0.80224 0.7114 0.0
C2257 C 0.58206 0.8185 0.71415 0.0
C2258 C 0.57722 0.83192 0.72761 0.0
C2259 C 0.56167 0.82892 0.73858 0.0
H2260 H 0.40816 0.26207 0.69704 0.0
H2261 H 0.43173 0.20638 0.70328 0.0
H2262 H 0.43889 0.27627 0.7065 0.0
H2263 H 0.46229 0.22052 0.71301 0.0
H2264 H 0.51869 0.25075 0.71141 0.0
H2265 H 0.48788 0.23944 0.69907 0.0
H2266 H 0.46061 0.27883 0.73516 0.0
H2267 H 0.49146 0.29027 0.74751 0.0
C2268 C 0.41991 0.25287 0.70042 0.0
C2269 C 0.41751 0.23309 0.69942 0.0
C2270 C 0.43747 0.261 0.70594 0.0
C2271 C 0.45307 0.24953 0.71038 0.0
C2272 C 0.45063 0.22976 0.70942 0.0
C2273 C 0.43306 0.22164 0.70407 0.0
C2274 C 0.50616 0.25727 0.7165 0.0
C2275 C 0.5076 0.27135 0.73057 0.0
C2276 C 0.48848 0.25065 0.70953 0.0
C2277 C 0.47179 0.25801 0.71635 0.0
C2278 C 0.4732 0.27287 0.72959 0.0
C2279 C 0.49091 0.27943 0.73667 0.0
H2280 H 0.68704 0.69591 0.13698 0.0
H2281 H 0.74015 0.6937 0.16913 0.0
H2282 H 0.70299 0.71085 0.11088 0.0
H2283 H 0.75607 0.70905 0.14341 0.0
H2284 H 0.78178 0.71184 0.08576 0.0
H2285 H 0.76524 0.70007 0.11272 0.0
H2286 H 0.71943 0.73816 0.09961 0.0
H2287 H 0.73545 0.74919 0.0721 0.0
C2288 C 0.70204 0.69908 0.13861 0.0
C2289 C 0.71241 0.69356 0.15495 0.0
C2290 C 0.71121 0.70761 0.12368 0.0
C2291 C 0.7309 0.7109 0.12491 0.0
C2292 C 0.741 0.7063 0.14176 0.0
C2293 C 0.73188 0.69766 0.15657 0.0
C2294 C 0.76813 0.71761 0.08849 0.0
C2295 C 0.76005 0.7315 0.07664 0.0
C2296 C 0.75872 0.71105 0.10414 0.0
C2297 C 0.74102 0.71825 0.10844 0.0
C2298 C 0.73296 0.73218 0.09666 0.0
C2299 C 0.74232 0.73869 0.08096 0.0
H2300 H 0.36828 0.71662 0.11843 0.0
H2301 H 0.3166 0.70146 0.14505 0.0
H2302 H 0.35007 0.7253 0.08987 0.0
H2303 H 0.29845 0.70928 0.11619 0.0
H2304 H 0.27443 0.75267 0.0715 0.0
H2305 H 0.28915 0.73686 0.09883 0.0
H2306 H 0.33108 0.71377 0.06329 0.0
H2307 H 0.31648 0.73012 0.03614 0.0
C2308 C 0.35305 0.71505 0.11819 0.0
C2309 C 0.34398 0.70836 0.13414 0.0
C2310 C 0.34258 0.71974 0.10166 0.0
C2311 C 0.32272 0.71787 0.10058 0.0
C2312 C 0.31368 0.711 0.11647 0.0
C2313 C 0.32414 0.70634 0.133 0.0
C2314 C 0.2862 0.74341 0.06941 0.0
C2315 C 0.29404 0.74219 0.05166 0.0
C2316 C 0.29481 0.73447 0.08512 0.0
C2317 C 0.31155 0.72425 0.08339 0.0
C2318 C 0.31844 0.72181 0.06524 0.0
C2319 C 0.30984 0.73081 0.04958 0.0
H2320 H 0.33039 0.32196 0.17074 0.0
H2321 H 0.32778 0.37625 0.14315 0.0
H2322 H 0.31305 0.30746 0.14366 0.0
H2323 H 0.31025 0.3618 0.11614 0.0
H2324 H 0.30011 0.32189 0.06337 0.0
H2325 H 0.31551 0.33881 0.0901 0.0
H2326 H 0.28064 0.30811 0.12828 0.0
H2327 H 0.26523 0.2912 0.10166 0.0
C2328 C 0.32619 0.33077 0.15885 0.0
C2329 C 0.33044 0.35025 0.15911 0.0
C2330 C 0.31607 0.32252 0.14342 0.0
C2331 C 0.31014 0.33351 0.12779 0.0
C2332 C 0.31465 0.35294 0.12792 0.0
C2333 C 0.32459 0.36123 0.14344 0.0
C2334 C 0.29545 0.31901 0.07742 0.0
C2335 C 0.28146 0.3051 0.08032 0.0
C2336 C 0.30431 0.3287 0.09276 0.0
C2337 C 0.2995 0.3246 0.11135 0.0
C2338 C 0.28491 0.31135 0.11416 0.0
C2339 C 0.27594 0.30179 0.09884 0.0
H2340 H 0.72352 0.33513 0.15275 0.0
H2341 H 0.66887 0.31771 0.12856 0.0
H2342 H 0.73837 0.32405 0.12451 0.0
H2343 H 0.68379 0.30563 0.10095 0.0
H2344 H 0.71218 0.3027 0.04564 0.0
H2345 H 0.69867 0.3159 0.07361 0.0
H2346 H 0.74644 0.29615 0.1078 0.0
H2347 H 0.76015 0.28335 0.07954 0.0
C2348 C 0.71465 0.32895 0.14143 0.0
C2349 C 0.69495 0.32737 0.14299 0.0
C2350 C 0.72322 0.32236 0.12531 0.0
C2351 C 0.71232 0.31396 0.11035 0.0
C2352 C 0.69265 0.31229 0.112 0.0
C2353 C 0.68409 0.31897 0.12802 0.0
C2354 C 0.71979 0.30118 0.05913 0.0
C2355 C 0.73715 0.29185 0.0604 0.0
C2356 C 0.71201 0.30868 0.07522 0.0
C2357 C 0.7213 0.30691 0.09309 0.0
C2358 C 0.73894 0.29796 0.09428 0.0
C2359 C 0.74682 0.29059 0.0781 0.0
H2360 H 0.72636 0.32304 0.87241 0.0
H2361 H 0.73674 0.3761 0.90165 0.0
H2362 H 0.7408 0.30617 0.89921 0.0
H2363 H 0.751 0.35927 0.92852 0.0
H2364 H 0.79278 0.3256 0.96503 0.0
H2365 H 0.77857 0.34183 0.93782 0.0
H2366 H 0.73605 0.29749 0.93148 0.0
H2367 H 0.75061 0.28098 0.95848 0.0
C2368 C 0.73157 0.3311 0.88464 0.0
C2369 C 0.73042 0.35094 0.88485 0.0
C2370 C 0.73983 0.32141 0.90003 0.0
C2371 C 0.74712 0.33132 0.91607 0.0
C2372 C 0.74587 0.35117 0.9163 0.0
C2373 C 0.73766 0.36084 0.90089 0.0
C2374 C 0.78043 0.31926 0.95782 0.0
C2375 C 0.77284 0.30198 0.96397 0.0
C2376 C 0.77218 0.32866 0.94226 0.0
C2377 C 0.75607 0.32106 0.93246 0.0
C2378 C 0.74857 0.30367 0.93853 0.0
C2379 C 0.75686 0.29424 0.95408 0.0
H2380 H 0.70564 0.69489 0.89999 0.0
H2381 H 0.71128 0.74775 0.87051 0.0
H2382 H 0.71646 0.71034 0.9295 0.0
H2383 H 0.72308 0.76312 0.8996 0.0
H2384 H 0.72638 0.79099 0.95695 0.0
H2385 H 0.71418 0.77483 0.92839 0.0
H2386 H 0.74167 0.72356 0.9471 0.0
H2387 H 0.75287 0.73942 0.97594 0.0
C2388 C 0.70961 0.70974 0.89981 0.0
C2389 C 0.70766 0.72013 0.88303 0.0
C2390 C 0.71585 0.71866 0.9167 0.0
C2391 C 0.72058 0.73813 0.91713 0.0
C2392 C 0.71914 0.74829 0.90008 0.0
C2393 C 0.7126 0.73944 0.88331 0.0
C2394 C 0.7296 0.77621 0.95502 0.0
C2395 C 0.74055 0.76653 0.96878 0.0
C2396 C 0.72279 0.76693 0.93852 0.0
C2397 C 0.72703 0.74782 0.93518 0.0
C2398 C 0.73778 0.73813 0.94915 0.0
C2399 C 0.74431 0.74731 0.96575 0.0
H2400 H 0.35186 0.68706 0.90019 0.0
H2401 H 0.34967 0.7368 0.86509 0.0
H2402 H 0.34412 0.7063 0.92757 0.0
H2403 H 0.34163 0.75594 0.89233 0.0
H2404 H 0.30301 0.77425 0.94151 0.0
H2405 H 0.31264 0.75633 0.91406 0.0
H2406 H 0.36034 0.73492 0.94702 0.0
H2407 H 0.35081 0.75319 0.97444 0.0
C2408 C 0.34961 0.70207 0.89835 0.0
C2409 C 0.35133 0.71046 0.88056 0.0
C2410 C 0.34535 0.71308 0.914 0.0
C2411 C 0.34235 0.7326 0.91205 0.0
C2412 C 0.34385 0.74093 0.89421 0.0
C2413 C 0.34848 0.73 0.87866 0.0
C2414 C 0.31565 0.76587 0.94278 0.0
C2415 C 0.32621 0.76512 0.96003 0.0
C2416 C 0.32118 0.75567 0.92711 0.0
C2417 C 0.33717 0.74418 0.92846 0.0
C2418 C 0.34789 0.74359 0.94565 0.0
C2419 C 0.34256 0.75414 0.96124 0.0
H2420 H 0.38794 0.34683 0.91524 0.0
H2421 H 0.33087 0.34692 0.89114 0.0
H2422 H 0.37706 0.33144 0.94333 0.0
H2423 H 0.31967 0.33215 0.91989 0.0
H2424 H 0.31185 0.28403 0.96359 0.0
H2425 H 0.32061 0.30201 0.93582 0.0
H2426 H 0.36011 0.33542 0.9708 0.0
H2427 H 0.35166 0.31721 0.99826 0.0
C2428 C 0.37298 0.34373 0.91605 0.0
C2429 C 0.3603 0.3479 0.90084 0.0
C2430 C 0.36668 0.33506 0.9323 0.0
C2431 C 0.34746 0.33044 0.93395 0.0
C2432 C 0.33461 0.33524 0.91901 0.0
C2433 C 0.34097 0.34393 0.90264 0.0
C2434 C 0.32236 0.29526 0.96529 0.0
C2435 C 0.33125 0.29899 0.98309 0.0
C2436 C 0.32731 0.30567 0.94941 0.0
C2437 C 0.34117 0.32015 0.95098 0.0
C2438 C 0.34969 0.32412 0.96891 0.0
C2439 C 0.34488 0.31363 0.9847 0.0
H2440 H 0.64437 0.68307 0.17571 0.0
H2441 H 0.67578 0.6817 0.22926 0.0
H2442 H 0.61639 0.69387 0.19164 0.0
H2443 H 0.648 0.69312 0.24511 0.0
H2444 H 0.5996 0.73896 0.25496 0.0
H2445 H 0.62744 0.72694 0.23968 0.0
H2446 H 0.59529 0.67758 0.22079 0.0
H2447 H 0.56761 0.68935 0.23655 0.0
C2448 C 0.64524 0.68511 0.19087 0.0
C2449 C 0.66214 0.68153 0.20131 0.0
C2450 C 0.62929 0.69122 0.19996 0.0
C2451 C 0.63013 0.69432 0.21956 0.0
C2452 C 0.64706 0.69086 0.22997 0.0
C2453 C 0.66286 0.68428 0.22095 0.0
C2454 C 0.59855 0.72554 0.24757 0.0
C2455 C 0.58151 0.71505 0.24693 0.0
C2456 C 0.61443 0.71865 0.23893 0.0
C2457 C 0.61343 0.70137 0.22908 0.0
C2458 C 0.59637 0.69095 0.22828 0.0
C2459 C 0.58062 0.69762 0.23734 0.0
H2460 H 0.3821 0.65741 0.19789 0.0
H2461 H 0.32348 0.67148 0.18738 0.0
H2462 H 0.37269 0.63065 0.21712 0.0
H2463 H 0.31404 0.64476 0.20669 0.0
H2464 H 0.30369 0.58389 0.22588 0.0
H2465 H 0.31303 0.61064 0.20679 0.0
H2466 H 0.35919 0.62333 0.24701 0.0
H2467 H 0.34983 0.59642 0.26613 0.0
C2468 C 0.3672 0.65487 0.19979 0.0
C2469 C 0.35355 0.66662 0.1911 0.0
C2470 C 0.3618 0.63953 0.21086 0.0
C2471 C 0.3426 0.63554 0.21353 0.0
C2472 C 0.32894 0.64724 0.20473 0.0
C2473 C 0.33435 0.66257 0.19364 0.0
C2474 C 0.31569 0.59248 0.23081 0.0
C2475 C 0.32595 0.588 0.24764 0.0
C2476 C 0.32107 0.60786 0.21982 0.0
C2477 C 0.33685 0.6192 0.22534 0.0
C2478 C 0.34712 0.61474 0.24217 0.0
C2479 C 0.34175 0.59932 0.25317 0.0
H2480 H 0.39577 0.34529 0.18162 0.0
H2481 H 0.37667 0.35425 0.2378 0.0
H2482 H 0.42299 0.32838 0.19464 0.0
H2483 H 0.40405 0.33705 0.25095 0.0
H2484 H 0.4648 0.31424 0.26723 0.0
H2485 H 0.43954 0.33552 0.25584 0.0
H2486 H 0.42646 0.2977 0.20898 0.0
H2487 H 0.45132 0.27697 0.21996 0.0
C2488 C 0.39736 0.34363 0.19679 0.0
C2489 C 0.3838 0.35086 0.20861 0.0
C2490 C 0.41302 0.33392 0.20428 0.0
C2491 C 0.41561 0.33103 0.22386 0.0
C2492 C 0.40256 0.33905 0.23582 0.0
C2493 C 0.38684 0.34888 0.22828 0.0
C2494 C 0.45655 0.31059 0.25446 0.0
C2495 C 0.46023 0.29389 0.24452 0.0
C2496 C 0.44202 0.32272 0.24798 0.0
C2497 C 0.43106 0.31847 0.23133 0.0
C2498 C 0.4348 0.30172 0.22159 0.0
C2499 C 0.44908 0.28969 0.22804 0.0
H2500 H 0.69471 0.36431 0.22183 0.0
H2501 H 0.68717 0.39256 0.16825 0.0
H2502 H 0.71032 0.39275 0.23539 0.0
H2503 H 0.70191 0.42117 0.18184 0.0
H2504 H 0.75633 0.45203 0.20093 0.0
H2505 H 0.734 0.42796 0.19 0.0
H2506 H 0.71021 0.42627 0.24502 0.0
H2507 H 0.73341 0.45057 0.25629 0.0
C2508 C 0.69601 0.37679 0.21312 0.0
C2509 C 0.69011 0.3762 0.19393 0.0
C2510 C 0.70482 0.39311 0.22089 0.0
C2511 C 0.70768 0.40918 0.20964 0.0
C2512 C 0.70042 0.40891 0.19081 0.0
C2513 C 0.69193 0.39256 0.183 0.0
C2514 C 0.74627 0.44673 0.21076 0.0
C2515 C 0.74676 0.45313 0.22955 0.0
C2516 C 0.73324 0.43299 0.20438 0.0
C2517 C 0.72016 0.42516 0.21655 0.0
C2518 C 0.72018 0.43194 0.23529 0.0
C2519 C 0.73333 0.44592 0.24172 0.0
H2520 H 0.66599 0.38258 0.82741 0.0
H2521 H 0.68822 0.32659 0.83627 0.0
H2522 H 0.63809 0.36885 0.81078 0.0
H2523 H 0.65998 0.31291 0.82101 0.0
H2524 H 0.61507 0.29041 0.78207 0.0
H2525 H 0.64375 0.3078 0.79223 0.0
H2526 H 0.60978 0.35158 0.81564 0.0
H2527 H 0.5811 0.33446 0.80434 0.0
C2528 C 0.66499 0.36736 0.82581 0.0
C2529 C 0.67942 0.35574 0.83332 0.0
C2530 C 0.64884 0.35946 0.81645 0.0
C2531 C 0.64667 0.33972 0.81441 0.0
C2532 C 0.66117 0.32817 0.82188 0.0
C2533 C 0.67732 0.33604 0.83103 0.0
C2534 C 0.61383 0.30406 0.78888 0.0
C2535 C 0.596 0.31124 0.7923 0.0
C2536 C 0.63024 0.31392 0.79498 0.0
C2537 C 0.6292 0.33095 0.80521 0.0
C2538 C 0.61123 0.33861 0.80773 0.0
C2539 C 0.59476 0.32885 0.80125 0.0
H2540 H 0.68129 0.656 0.82319 0.0
H2541 H 0.73584 0.68225 0.83598 0.0
H2542 H 0.69677 0.62923 0.80861 0.0
H2543 H 0.75115 0.65577 0.82151 0.0
H2544 H 0.77436 0.59771 0.81674 0.0
H2545 H 0.75642 0.62315 0.82944 0.0
H2546 H 0.71631 0.6189 0.78182 0.0
H2547 H 0.73443 0.59273 0.76901 0.0
C2548 C 0.69655 0.65615 0.82278 0.0
C2549 C 0.70732 0.67119 0.83108 0.0
C2550 C 0.70541 0.64082 0.81438 0.0
C2551 C 0.72524 0.64017 0.81409 0.0
C2552 C 0.73589 0.65551 0.82187 0.0
C2553 C 0.72709 0.67073 0.83025 0.0
C2554 C 0.76171 0.60207 0.80886 0.0
C2555 C 0.75601 0.59326 0.79167 0.0
C2556 C 0.75143 0.61682 0.81616 0.0
C2557 C 0.7351 0.62341 0.80651 0.0
C2558 C 0.72886 0.61419 0.78962 0.0
C2559 C 0.73923 0.59923 0.78226 0.0
H2560 H 0.37917 0.70699 0.80145 0.0
H2561 H 0.41311 0.69567 0.85206 0.0
H2562 H 0.40648 0.72259 0.78758 0.0
H2563 H 0.44046 0.71049 0.83816 0.0
H2564 H 0.47043 0.76534 0.82345 0.0
H2565 H 0.4462 0.74359 0.83305 0.0
H2566 H 0.43964 0.72171 0.77614 0.0
H2567 H 0.46421 0.74418 0.76625 0.0
C2568 C 0.39263 0.70737 0.80934 0.0
C2569 C 0.39408 0.70038 0.82786 0.0
C2570 C 0.40827 0.71622 0.80141 0.0
C2571 C 0.42558 0.7181 0.81189 0.0
C2572 C 0.42725 0.7097 0.82986 0.0
C2573 C 0.41164 0.70112 0.83781 0.0
C2574 C 0.464 0.75587 0.81288 0.0
C2575 C 0.46927 0.75658 0.79403 0.0
C2576 C 0.45015 0.74319 0.81848 0.0
C2577 C 0.44106 0.73071 0.80544 0.0
C2578 C 0.44638 0.73116 0.78653 0.0
C2579 C 0.46049 0.74392 0.78089 0.0
H2580 H 0.36228 0.38027 0.81759 0.0
H2581 H 0.35309 0.4098 0.86968 0.0
H2582 H 0.35149 0.4077 0.79967 0.0
H2583 H 0.34208 0.43726 0.85167 0.0
H2584 H 0.30738 0.47635 0.81175 0.0
H2585 H 0.31654 0.44841 0.82986 0.0
H2586 H 0.3629 0.43991 0.7935 0.0
H2587 H 0.35345 0.46759 0.77511 0.0
C2588 C 0.35798 0.39263 0.82524 0.0
C2589 C 0.35876 0.39286 0.84511 0.0
C2590 C 0.3518 0.40838 0.81494 0.0
C2591 C 0.34611 0.42479 0.8242 0.0
C2592 C 0.34625 0.42482 0.84407 0.0
C2593 C 0.35252 0.40905 0.85441 0.0
C2594 C 0.31942 0.46844 0.80749 0.0
C2595 C 0.32962 0.47421 0.79187 0.0
C2596 C 0.32479 0.45251 0.81802 0.0
C2597 C 0.34042 0.44186 0.81313 0.0
C2598 C 0.35064 0.44765 0.79754 0.0
C2599 C 0.34535 0.46364 0.78709 0.0
H2600 H 0.70894 0.63404 0.22163 0.0
H2601 H 0.71901 0.62813 0.1623 0.0
H2602 H 0.72553 0.60462 0.22799 0.0
H2603 H 0.73676 0.59972 0.16877 0.0
H2604 H 0.75496 0.54011 0.1834 0.0
H2605 H 0.73583 0.56795 0.17682 0.0
H2606 H 0.7562 0.59267 0.22997 0.0
H2607 H 0.77453 0.56442 0.23672 0.0
C2608 C 0.71463 0.62646 0.20993 0.0
C2609 C 0.71284 0.63364 0.1915 0.0
C2610 C 0.72442 0.60971 0.2136 0.0
C2611 C 0.73279 0.59982 0.19894 0.0
C2612 C 0.73046 0.60675 0.18044 0.0
C2613 C 0.72048 0.62329 0.17676 0.0
C2614 C 0.75543 0.55163 0.19352 0.0
C2615 C 0.7662 0.55016 0.21054 0.0
C2616 C 0.74447 0.56761 0.18981 0.0
C2617 C 0.7443 0.58264 0.20291 0.0
C2618 C 0.75552 0.58126 0.21974 0.0
C2619 C 0.7662 0.56517 0.22355 0.0
H2620 H 0.75716 0.39236 0.83371 0.0
H2621 H 0.7068 0.42318 0.84479 0.0
H2622 H 0.77236 0.42165 0.82307 0.0
H2623 H 0.72221 0.45261 0.83471 0.0
H2624 H 0.76935 0.50153 0.83755 0.0
H2625 H 0.75447 0.47204 0.84818 0.0
H2626 H 0.76317 0.44643 0.79405 0.0
H2627 H 0.77757 0.47606 0.78329 0.0
C2628 C 0.74941 0.40544 0.8339 0.0
C2629 C 0.73083 0.40559 0.84 0.0
C2630 C 0.75806 0.42212 0.82781 0.0
C2631 C 0.74845 0.43933 0.82816 0.0
C2632 C 0.72993 0.43952 0.83442 0.0
C2633 C 0.7211 0.42274 0.84007 0.0
C2634 C 0.76818 0.48953 0.82802 0.0
C2635 C 0.7746 0.49101 0.80963 0.0
C2636 C 0.75958 0.47277 0.83403 0.0
C2637 C 0.75769 0.45704 0.8219 0.0
C2638 C 0.76451 0.45836 0.80366 0.0
C2639 C 0.77267 0.47527 0.79751 0.0
H2640 H 0.66919 0.74928 0.83352 0.0
H2641 H 0.64018 0.6952 0.82939 0.0
H2642 H 0.63997 0.76519 0.82435 0.0
H2643 H 0.61068 0.71115 0.82043 0.0
H2644 H 0.56418 0.74649 0.79062 0.0
H2645 H 0.59379 0.73 0.79659 0.0
H2646 H 0.61073 0.77156 0.83908 0.0
H2647 H 0.58152 0.78845 0.83258 0.0
C2648 C 0.65654 0.74079 0.83053 0.0
C2649 C 0.65692 0.72101 0.83234 0.0
C2650 C 0.63975 0.74991 0.8254 0.0
C2651 C 0.62287 0.7395 0.82199 0.0
C2652 C 0.62343 0.71961 0.82289 0.0
C2653 C 0.64032 0.71045 0.82798 0.0
C2654 C 0.57429 0.75225 0.8011 0.0
C2655 C 0.57044 0.76892 0.81103 0.0
C2656 C 0.5912 0.74265 0.80466 0.0
C2657 C 0.60472 0.74949 0.81823 0.0
C2658 C 0.60078 0.76604 0.8283 0.0
C2659 C 0.58389 0.77562 0.82475 0.0
H2660 H 0.33869 0.64399 0.86624 0.0
H2661 H 0.33957 0.65965 0.80746 0.0
H2662 H 0.32165 0.61477 0.85749 0.0
H2663 H 0.32304 0.63016 0.79866 0.0
H2664 H 0.28086 0.58251 0.7885 0.0
H2665 H 0.29276 0.61316 0.80017 0.0
H2666 H 0.32851 0.58507 0.84199 0.0
H2667 H 0.31646 0.5545 0.83056 0.0
C2668 C 0.33513 0.64128 0.85145 0.0
C2669 C 0.34055 0.65418 0.83755 0.0
C2670 C 0.32549 0.62443 0.84642 0.0
C2671 C 0.32095 0.62008 0.82737 0.0
C2672 C 0.32609 0.63314 0.81349 0.0
C2673 C 0.3358 0.64995 0.81851 0.0
C2674 C 0.29092 0.58287 0.80048 0.0
C2675 C 0.29777 0.56599 0.80851 0.0
C2676 C 0.29791 0.60046 0.80703 0.0
C2677 C 0.3118 0.6016 0.82185 0.0
C2678 C 0.31777 0.58476 0.83062 0.0
C2679 C 0.31086 0.56719 0.82402 0.0
H2680 H 0.39889 0.31529 0.85581 0.0
H2681 H 0.42393 0.37063 0.84819 0.0
H2682 H 0.42779 0.30066 0.84595 0.0
H2683 H 0.45301 0.35609 0.8387 0.0
H2684 H 0.49432 0.32425 0.80368 0.0
H2685 H 0.46559 0.33865 0.81357 0.0
H2686 H 0.46008 0.29552 0.8561 0.0
H2687 H 0.4884 0.28044 0.84547 0.0
C2688 C 0.41065 0.32431 0.85212 0.0
C2689 C 0.40916 0.34409 0.85273 0.0
C2690 C 0.42724 0.31594 0.84656 0.0
C2691 C 0.44279 0.32717 0.84159 0.0
C2692 C 0.44123 0.34699 0.84215 0.0
C2693 C 0.42458 0.35535 0.84759 0.0
C2694 C 0.48693 0.31764 0.815 0.0
C2695 C 0.49367 0.30101 0.82362 0.0
C2696 C 0.47053 0.3261 0.82086 0.0
C2697 C 0.46046 0.31827 0.83563 0.0
C2698 C 0.46733 0.3018 0.84449 0.0
C2699 C 0.48373 0.29327 0.83855 0.0
H2700 H 0.36234 0.41697 0.21053 0.0
H2701 H 0.30578 0.39347 0.20434 0.0
H2702 H 0.3495 0.44729 0.21981 0.0
H2703 H 0.2929 0.42389 0.21295 0.0
H2704 H 0.27862 0.47699 0.24783 0.0
H2705 H 0.29004 0.44602 0.23873 0.0
H2706 H 0.33208 0.47308 0.2053 0.0
H2707 H 0.32089 0.50394 0.21459 0.0
C2708 C 0.34718 0.41821 0.21131 0.0
C2709 C 0.33511 0.40279 0.20658 0.0
C2710 C 0.33978 0.43568 0.21637 0.0
C2711 C 0.32011 0.43816 0.21689 0.0
C2712 C 0.30809 0.42254 0.21275 0.0
C2713 C 0.31549 0.40511 0.20766 0.0
C2714 C 0.29006 0.47633 0.23825 0.0
C2715 C 0.29885 0.49301 0.232 0.0
C2716 C 0.29667 0.45854 0.23307 0.0
C2717 C 0.31222 0.457 0.22152 0.0
C2718 C 0.3204 0.47369 0.21459 0.0
C2719 C 0.31381 0.49143 0.21976 0.0
H2720 H 0.65125 0.32557 0.21973 0.0
H2721 H 0.63231 0.31441 0.16189 0.0
H2722 H 0.6228 0.30993 0.23058 0.0
H2723 H 0.6041 0.29851 0.1728 0.0
H2724 H 0.56516 0.25518 0.20127 0.0
H2725 H 0.59406 0.26982 0.1903 0.0
H2726 H 0.58837 0.31595 0.22951 0.0
H2727 H 0.55945 0.30164 0.24024 0.0
C2728 C 0.64102 0.31985 0.20932 0.0
C2729 C 0.64412 0.32129 0.18993 0.0
C2730 C 0.62473 0.31085 0.21555 0.0
C2731 C 0.61119 0.30298 0.20254 0.0
C2732 C 0.61438 0.30419 0.18318 0.0
C2733 C 0.6306 0.31329 0.17695 0.0
C2734 C 0.56993 0.26852 0.20745 0.0
C2735 C 0.5599 0.2771 0.22176 0.0
C2736 C 0.58655 0.27689 0.20118 0.0
C2737 C 0.59358 0.29398 0.20914 0.0
C2738 C 0.58353 0.30259 0.22335 0.0
C2739 C 0.5669 0.29432 0.22952 0.0
H2740 H 0.41488 0.71727 0.16077 0.0
H2741 H 0.38183 0.73022 0.20851 0.0
H2742 H 0.44307 0.73119 0.17731 0.0
H2743 H 0.40958 0.74457 0.22478 0.0
H2744 H 0.46471 0.7341 0.25829 0.0
H2745 H 0.43651 0.72821 0.23869 0.0
H2746 H 0.46063 0.75926 0.19306 0.0
H2747 H 0.4896 0.76515 0.21306 0.0
C2748 C 0.41355 0.72366 0.17453 0.0
C2749 C 0.39628 0.72254 0.18348 0.0
C2750 C 0.42965 0.73165 0.184 0.0
C2751 C 0.42867 0.73869 0.20252 0.0
C2752 C 0.41095 0.73892 0.2107 0.0
C2753 C 0.39502 0.7308 0.20137 0.0
C2754 C 0.46413 0.73984 0.24413 0.0
C2755 C 0.47952 0.75007 0.23725 0.0
C2756 C 0.44777 0.73658 0.2329 0.0
C2757 C 0.44614 0.74341 0.21433 0.0
C2758 C 0.46145 0.75381 0.20733 0.0
C2759 C 0.47796 0.75727 0.21877 0.0
loop_
_geom_bond_atom_site_label_1
_geom_bond_atom_site_label_2
_geom_bond_distance
_geom_bond_site_symmetry_2
_ccdc_geom_bond_type
H0 C3 0.931 . S
H1 C6 0.928 . S
H2 C8 0.930 . S
C3 H0 0.931 . S
C3 C4 1.413 . S
C3 C5 1.360 . S
C4 C3 1.413 . S
C4 C8 1.429 . S
C5 C3 1.360 . S
C5 C6 1.372 . S
C6 H1 0.928 . S
C6 C5 1.372 . S
C6 C7 1.404 . S
C7 C6 1.404 . S
C7 C8 1.391 . S
C8 H2 0.930 . S
C8 C4 1.429 . S
C8 C7 1.391 . S
H9 C12 0.931 . S
H10 C15 0.928 . S
H11 C17 0.930 . S
C12 H9 0.931 . S
C12 C13 1.413 . S
C12 C14 1.360 . S
C13 C12 1.413 . S
C13 C17 1.429 . S
C14 C12 1.360 . S
C14 C15 1.372 . S
C15 H10 0.928 . S
C15 C14 1.372 . S
C15 C16 1.404 . S
C16 C15 1.404 . S
C16 C17 1.391 . S
C17 H11 0.930 . S
C17 C13 1.429 . S
C17 C16 1.391 . S
H18 C21 0.931 . S
H19 C24 0.928 . S
H20 C26 0.930 . S
C21 H18 0.931 . S
C21 C22 1.413 . S
C21 C23 1.360 . S
C22 C21 1.413 . S
C22 C26 1.429 . S
C23 C21 1.360 . S
C23 C24 1.372 . S
C24 H19 0.928 . S
C24 C23 1.372 . S
C24 C25 1.404 . S
C25 C24 1.404 . S
C25 C26 1.391 . S
C26 H20 0.930 . S
C26 C22 1.429 . S
C26 C25 1.391 . S
H27 C30 0.931 . S
H28 C33 0.928 . S
H29 C35 0.930 . S
C30 H27 0.931 . S
C30 C31 1.413 . S
C30 C32 1.360 . S
C31 C30 1.413 . S
C31 C35 1.429 . S
C32 C30 1.360 . S
C32 C33 1.372 . S
C33 H28 0.928 . S
C33 C32 1.372 . S
C33 C34 1.404 . S
C34 C33 1.404 . S
C34 C35 1.391 . S
C35 H29 0.930 . S
C35 C31 1.429 . S
C35 C34 1.391 . S
H36 C39 0.931 . S
H37 C42 0.928 . S
H38 C44 0.930 . S
C39 H36 0.931 . S
C39 C40 1.413 . S
C39 C41 1.360 . S
C40 C39 1.413 . S
C40 C44 1.429 . S
C41 C39 1.360 . S
C41 C42 1.372 . S
C42 H37 0.928 . S
C42 C41 1.372 . S
C42 C43 1.404 . S
C43 C42 1.404 . S
C43 C44 1.391 . S
C44 H38 0.930 . S
C44 C40 1.429 . S
C44 C43 1.391 . S
H45 C48 0.931 . S
H46 C51 0.928 . S
H47 C53 0.930 . S
C48 H45 0.931 . S
C48 C49 1.413 . S
C48 C50 1.360 . S
C49 C48 1.413 . S
C49 C53 1.429 . S
C50 C48 1.360 . S
C50 C51 1.372 . S
C51 H46 0.928 . S
C51 C50 1.372 . S
C51 C52 1.404 . S
C52 C51 1.404 . S
C52 C53 1.391 . S
C53 H47 0.930 . S
C53 C49 1.429 . S
C53 C52 1.391 . S
H54 C57 0.931 . S
H55 C60 0.928 . S
H56 C62 0.930 . S
C57 H54 0.931 . S
C57 C58 1.413 . S
C57 C59 1.360 . S
C58 C57 1.413 . S
C58 C62 1.429 . S
C59 C57 1.360 . S
C59 C60 1.372 . S
C60 H55 0.928 . S
C60 C59 1.372 . S
C60 C61 1.404 . S
C61 C60 1.404 . S
C61 C62 1.391 . S
C62 H56 0.930 . S
C62 C58 1.429 . S
C62 C61 1.391 . S
H63 C66 0.931 . S
H64 C69 0.928 . S
H65 C71 0.930 . S
C66 H63 0.931 . S
C66 C67 1.413 . S
C66 C68 1.360 . S
C67 C66 1.413 . S
C67 C71 1.429 . S
C68 C66 1.360 . S
C68 C69 1.372 . S
C69 H64 0.928 . S
C69 C68 1.372 . S
C69 C70 1.404 . S
C70 C69 1.404 . S
C70 C71 1.391 . S
C71 H65 0.930 . S
C71 C67 1.429 . S
C71 C70 1.391 . S
H72 C75 0.931 . S
H73 C78 0.928 . S
H74 C80 0.930 . S
C75 H72 0.931 . S
C75 C76 1.413 . S
C75 C77 1.360 . S
C76 C75 1.413 . S
C76 C80 1.429 . S
C77 C75 1.360 . S
C77 C78 1.372 . S
C78 H73 0.928 . S
C78 C77 1.372 . S
C78 C79 1.404 . S
C79 C78 1.404 . S
C79 C80 1.391 . S
C80 H74 0.930 . S
C80 C76 1.429 . S
C80 C79 1.391 . S
H81 C84 0.931 . S
H82 C87 0.928 . S
H83 C89 0.930 . S
C84 H81 0.931 . S
C84 C85 1.413 . S
C84 C86 1.360 . S
C85 C84 1.413 . S
C85 C89 1.429 . S
C86 C84 1.360 . S
C86 C87 1.372 . S
C87 H82 0.928 . S
C87 C86 1.372 . S
C87 C88 1.404 . S
C88 C87 1.404 . S
C88 C89 1.391 . S
C89 H83 0.930 . S
C89 C85 1.429 . S
C89 C88 1.391 . S
H90 C93 0.931 . S
H91 C96 0.928 . S
H92 C98 0.930 . S
C93 H90 0.931 . S
C93 C94 1.413 . S
C93 C95 1.360 . S
C94 C93 1.413 . S
C94 C98 1.429 . S
C95 C93 1.360 . S
C95 C96 1.372 . S
C96 H91 0.928 . S
C96 C95 1.372 . S
C96 C97 1.404 . S
C97 C96 1.404 . S
C97 C98 1.391 . S
C98 H92 0.930 . S
C98 C94 1.429 . S
C98 C97 1.391 . S
H99 C102 0.931 . S
H100 C105 0.928 . S
H101 C107 0.930 . S
C102 H99 0.931 . S
C102 C103 1.413 . S
C102 C104 1.360 . S
C103 C102 1.413 . S
C103 C107 1.429 . S
C104 C102 1.360 . S
C104 C105 1.372 . S
C105 H100 0.928 . S
C105 C104 1.372 . S
C105 C106 1.404 . S
C106 C105 1.404 . S
C106 C107 1.391 . S
C107 H101 0.930 . S
C107 C103 1.429 . S
C107 C106 1.391 . S
H108 C111 0.931 . S
H109 C114 0.928 . S
H110 C116 0.930 . S
C111 H108 0.931 . S
C111 C112 1.413 . S
C111 C113 1.360 . S
C112 C111 1.413 . S
C112 C116 1.429 . S
C113 C111 1.360 . S
C113 C114 1.372 . S
C114 H109 0.928 . S
C114 C113 1.372 . S
C114 C115 1.404 . S
C115 C114 1.404 . S
C115 C116 1.391 . S
C116 H110 0.930 . S
C116 C112 1.429 . S
C116 C115 1.391 . S
H117 C120 0.931 . S
H118 C123 0.928 . S
H119 C125 0.930 . S
C120 H117 0.931 . S
C120 C121 1.413 . S
C120 C122 1.360 . S
C121 C120 1.413 . S
C121 C125 1.429 . S
C122 C120 1.360 . S
C122 C123 1.372 . S
C123 H118 0.928 . S
C123 C122 1.372 . S
C123 C124 1.404 . S
C124 C123 1.404 . S
C124 C125 1.391 . S
C125 H119 0.930 . S
C125 C121 1.429 . S
C125 C124 1.391 . S
H126 C129 0.931 . S
H127 C132 0.928 . S
H128 C134 0.930 . S
C129 H126 0.931 . S
C129 C130 1.413 . S
C129 C131 1.360 . S
C130 C129 1.413 . S
C130 C134 1.429 . S
C131 C129 1.360 . S
C131 C132 1.372 . S
C132 H127 0.928 . S
C132 C131 1.372 . S
C132 C133 1.404 . S
C133 C132 1.404 . S
C133 C134 1.391 . S
C134 H128 0.930 . S
C134 C130 1.429 . S
C134 C133 1.391 . S
H135 C138 0.931 . S
H136 C141 0.928 . S
H137 C143 0.930 . S
C138 H135 0.931 . S
C138 C139 1.413 . S
C138 C140 1.360 . S
C139 C138 1.413 . S
C139 C143 1.429 . S
C140 C138 1.360 . S
C140 C141 1.372 . S
C141 H136 0.928 . S
C141 C140 1.372 . S
C141 C142 1.404 . S
C142 C141 1.404 . S
C142 C143 1.391 . S
C143 H137 0.930 . S
C143 C139 1.429 . S
C143 C142 1.391 . S
H144 C147 0.931 . S
H145 C150 0.928 . S
H146 C152 0.930 . S
C147 H144 0.931 . S
C147 C148 1.413 . S
C147 C149 1.360 . S
C148 C147 1.413 . S
C148 C152 1.429 . S
C149 C147 1.360 . S
C149 C150 1.372 . S
C150 H145 0.928 . S
C150 C149 1.372 . S
C150 C151 1.404 . S
C151 C150 1.404 . S
C151 C152 1.391 . S
C152 H146 0.930 . S
C152 C148 1.429 . S
C152 C151 1.391 . S
H153 C156 0.931 . S
H154 C159 0.928 . S
H155 C161 0.930 . S
C156 H153 0.931 . S
C156 C157 1.413 . S
C156 C158 1.360 . S
C157 C156 1.413 . S
C157 C161 1.429 . S
C158 C156 1.360 . S
C158 C159 1.372 . S
C159 H154 0.928 . S
C159 C158 1.372 . S
C159 C160 1.404 . S
C160 C159 1.404 . S
C160 C161 1.391 . S
C161 H155 0.930 . S
C161 C157 1.429 . S
C161 C160 1.391 . S
H162 C165 0.931 . S
H163 C168 0.928 . S
H164 C170 0.930 . S
C165 H162 0.931 . S
C165 C166 1.413 . S
C165 C167 1.360 . S
C166 C165 1.413 . S
C166 C170 1.429 . S
C167 C165 1.360 . S
C167 C168 1.372 . S
C168 H163 0.928 . S
C168 C167 1.372 . S
C168 C169 1.404 . S
C169 C168 1.404 . S
C169 C170 1.391 . S
C170 H164 0.930 . S
C170 C166 1.429 . S
C170 C169 1.391 . S
H171 C174 0.931 . S
H172 C177 0.928 . S
H173 C179 0.930 . S
C174 H171 0.931 . S
C174 C175 1.413 . S
C174 C176 1.360 . S
C175 C174 1.413 . S
C175 C179 1.429 . S
C176 C174 1.360 . S
C176 C177 1.372 . S
C177 H172 0.928 . S
C177 C176 1.372 . S
C177 C178 1.404 . S
C178 C177 1.404 . S
C178 C179 1.391 . S
C179 H173 0.930 . S
C179 C175 1.429 . S
C179 C178 1.391 . S
H180 C183 0.931 . S
H181 C186 0.928 . S
H182 C188 0.930 . S
C183 H180 0.931 . S
C183 C184 1.413 . S
C183 C185 1.360 . S
C184 C183 1.413 . S
C184 C188 1.429 . S
C185 C183 1.360 . S
C185 C186 1.372 . S
C186 H181 0.928 . S
C186 C185 1.372 . S
C186 C187 1.404 . S
C187 C186 1.404 . S
C187 C188 1.391 . S
C188 H182 0.930 . S
C188 C184 1.429 . S
C188 C187 1.391 . S
H189 C192 0.931 . S
H190 C195 0.928 . S
H191 C197 0.930 . S
C192 H189 0.931 . S
C192 C193 1.413 . S
C192 C194 1.360 . S
C193 C192 1.413 . S
C193 C197 1.429 . S
C194 C192 1.360 . S
C194 C195 1.372 . S
C195 H190 0.928 . S
C195 C194 1.372 . S
C195 C196 1.404 . S
C196 C195 1.404 . S
C196 C197 1.391 . S
C197 H191 0.930 . S
C197 C193 1.429 . S
C197 C196 1.391 . S
H198 C201 0.931 . S
H199 C204 0.928 . S
H200 C206 0.930 . S
C201 H198 0.931 . S
C201 C202 1.413 . S
C201 C203 1.360 . S
C202 C201 1.413 . S
C202 C206 1.429 . S
C203 C201 1.360 . S
C203 C204 1.372 . S
C204 H199 0.928 . S
C204 C203 1.372 . S
C204 C205 1.404 . S
C205 C204 1.404 . S
C205 C206 1.391 . S
C206 H200 0.930 . S
C206 C202 1.429 . S
C206 C205 1.391 . S
H207 C210 0.931 . S
H208 C213 0.928 . S
H209 C215 0.930 . S
C210 H207 0.931 . S
C210 C211 1.413 . S
C210 C212 1.360 . S
C211 C210 1.413 . S
C211 C215 1.429 . S
C212 C210 1.360 . S
C212 C213 1.372 . S
C213 H208 0.928 . S
C213 C212 1.372 . S
C213 C214 1.404 . S
C214 C213 1.404 . S
C214 C215 1.391 . S
C215 H209 0.930 . S
C215 C211 1.429 . S
C215 C214 1.391 . S
H216 C219 0.931 . S
H217 C222 0.928 . S
H218 C224 0.930 . S
C219 H216 0.931 . S
C219 C220 1.413 . S
C219 C221 1.360 . S
C220 C219 1.413 . S
C220 C224 1.429 . S
C221 C219 1.360 . S
C221 C222 1.372 . S
C222 H217 0.928 . S
C222 C221 1.372 . S
C222 C223 1.404 . S
C223 C222 1.404 . S
C223 C224 1.391 . S
C224 H218 0.930 . S
C224 C220 1.429 . S
C224 C223 1.391 . S
H225 C228 0.931 . S
H226 C231 0.928 . S
H227 C233 0.930 . S
C228 H225 0.931 . S
C228 C229 1.413 . S
C228 C230 1.360 . S
C229 C228 1.413 . S
C229 C233 1.429 . S
C230 C228 1.360 . S
C230 C231 1.372 . S
C231 H226 0.928 . S
C231 C230 1.372 . S
C231 C232 1.404 . S
C232 C231 1.404 . S
C232 C233 1.391 . S
C233 H227 0.930 . S
C233 C229 1.429 . S
C233 C232 1.391 . S
H234 C237 0.931 . S
H235 C240 0.928 . S
H236 C242 0.930 . S
C237 H234 0.931 . S
C237 C238 1.413 . S
C237 C239 1.360 . S
C238 C237 1.413 . S
C238 C242 1.429 . S
C239 C237 1.360 . S
C239 C240 1.372 . S
C240 H235 0.928 . S
C240 C239 1.372 . S
C240 C241 1.404 . S
C241 C240 1.404 . S
C241 C242 1.391 . S
C242 H236 0.930 . S
C242 C238 1.429 . S
C242 C241 1.391 . S
H243 C246 0.931 . S
H244 C249 0.928 . S
H245 C251 0.930 . S
C246 H243 0.931 . S
C246 C247 1.413 . S
C246 C248 1.360 . S
C247 C246 1.413 . S
C247 C251 1.429 . S
C248 C246 1.360 . S
C248 C249 1.372 . S
C249 H244 0.928 . S
C249 C248 1.372 . S
C249 C250 1.404 . S
C250 C249 1.404 . S
C250 C251 1.391 . S
C251 H245 0.930 . S
C251 C247 1.429 . S
C251 C250 1.391 . S
H252 C255 0.931 . S
H253 C258 0.928 . S
H254 C260 0.930 . S
C255 H252 0.931 . S
C255 C256 1.413 . S
C255 C257 1.360 . S
C256 C255 1.413 . S
C256 C260 1.429 . S
C257 C255 1.360 . S
C257 C258 1.372 . S
C258 H253 0.928 . S
C258 C257 1.372 . S
C258 C259 1.404 . S
C259 C258 1.404 . S
C259 C260 1.391 . S
C260 H254 0.930 . S
C260 C256 1.429 . S
C260 C259 1.391 . S
H261 C264 0.931 . S
H262 C267 0.928 . S
H263 C269 0.930 . S
C264 H261 0.931 . S
C264 C265 1.413 . S
C264 C266 1.360 . S
C265 C264 1.413 . S
C265 C269 1.429 . S
C266 C264 1.360 . S
C266 C267 1.372 . S
C267 H262 0.928 . S
C267 C266 1.372 . S
C267 C268 1.404 . S
C268 C267 1.404 . S
C268 C269 1.391 . S
C269 H263 0.930 . S
C269 C265 1.429 . S
C269 C268 1.391 . S
H270 C273 0.931 . S
H271 C276 0.928 . S
H272 C278 0.930 . S
C273 H270 0.931 . S
C273 C274 1.413 . S
C273 C275 1.360 . S
C274 C273 1.413 . S
C274 C278 1.429 . S
C275 C273 1.360 . S
C275 C276 1.372 . S
C276 H271 0.928 . S
C276 C275 1.372 . S
C276 C277 1.404 . S
C277 C276 1.404 . S
C277 C278 1.391 . S
C278 H272 0.930 . S
C278 C274 1.429 . S
C278 C277 1.391 . S
H279 C282 0.931 . S
H280 C285 0.928 . S
H281 C287 0.930 . S
C282 H279 0.931 . S
C282 C283 1.413 . S
C282 C284 1.360 . S
C283 C282 1.413 . S
C283 C287 1.429 . S
C284 C282 1.360 . S
C284 C285 1.372 . S
C285 H280 0.928 . S
C285 C284 1.372 . S
C285 C286 1.404 . S
C286 C285 1.404 . S
C286 C287 1.391 . S
C287 H281 0.930 . S
C287 C283 1.429 . S
C287 C286 1.391 . S
Cu288 N289 1.999 . S
Cu288 O294 1.974 1_554 S
Cu288 N299 1.985 . S
Cu288 O308 1.959 . S
N289 Cu288 1.999 . S
N289 C291 1.263 1_554 S
N289 C293 1.389 . S
N290 C291 1.358 . S
N290 C292 1.400 . S
C291 N289 1.263 1_556 S
C291 N290 1.358 . S
C291 H297 0.930 . S
C292 N290 1.400 . S
C292 C293 1.351 1_556 S
C292 H309 0.930 . S
C293 N289 1.389 . S
C293 C292 1.351 1_554 S
C293 H298 0.930 . S
O294 Cu288 1.974 1_556 S
O294 C304 1.282 . S
C295 O296 1.261 . S
C295 O308 1.251 . S
O296 C295 1.261 . S
H297 C291 0.930 . S
H298 C293 0.930 . S
N299 Cu288 1.985 . S
N299 C301 1.335 . S
N299 C302 1.390 . S
N300 C301 1.345 . S
N300 C303 1.336 . S
C301 N299 1.335 . S
C301 N300 1.345 . S
C301 H306 0.930 . S
C302 N299 1.390 . S
C302 C303 1.346 . S
C302 H307 0.930 . S
C303 N300 1.336 . S
C303 C302 1.346 . S
C303 H310 0.929 . S
C304 O294 1.282 . S
C304 O305 1.216 . S
O305 C304 1.216 . S
H306 C301 0.930 . S
H307 C302 0.930 . S
O308 Cu288 1.959 . S
O308 C295 1.251 . S
H309 C292 0.930 . S
H310 C303 0.929 . S
Cu311 N312 1.999 . S
Cu311 O317 1.974 . S
Cu311 N322 1.985 1_554 S
Cu311 O331 1.959 1_554 S
N312 Cu311 1.999 . S
N312 C314 1.263 . S
N312 C316 1.389 . S
N313 C314 1.358 . S
N313 C315 1.400 . S
C314 N312 1.263 . S
C314 N313 1.358 . S
C314 H320 0.930 . S
C315 N313 1.400 . S
C315 C316 1.351 . S
C315 H332 0.930 . S
C316 N312 1.389 . S
C316 C315 1.351 . S
C316 H321 0.930 . S
O317 Cu311 1.974 . S
O317 C327 1.282 . S
C318 O319 1.261 . S
C318 O331 1.251 . S
O319 C318 1.261 . S
H320 C314 0.930 . S
H321 C316 0.930 . S
N322 Cu311 1.985 1_556 S
N322 C324 1.335 . S
N322 C325 1.390 . S
N323 C324 1.345 . S
N323 C326 1.336 . S
C324 N322 1.335 . S
C324 N323 1.345 . S
C324 H329 0.930 . S
C325 N322 1.390 . S
C325 C326 1.346 . S
C325 H330 0.930 1_556 S
C326 N323 1.336 . S
C326 C325 1.346 . S
C326 H333 0.929 . S
C327 O317 1.282 . S
C327 O328 1.216 . S
O328 C327 1.216 . S
H329 C324 0.930 . S
H330 C325 0.930 1_554 S
O331 Cu311 1.959 1_556 S
O331 C318 1.251 . S
H332 C315 0.930 . S
H333 C326 0.929 . S
Cu334 N335 1.999 1_554 S
Cu334 O340 1.974 1_554 S
Cu334 N345 1.985 . S
Cu334 O354 1.959 . S
N335 Cu334 1.999 1_556 S
N335 C337 1.263 . S
N335 C339 1.389 . S
N336 C337 1.358 . S
N336 C338 1.400 . S
C337 N335 1.263 . S
C337 N336 1.358 . S
C337 H343 0.930 . S
C338 N336 1.400 . S
C338 C339 1.351 . S
C338 H355 0.930 . S
C339 N335 1.389 . S
C339 C338 1.351 . S
C339 H344 0.968 . S
O340 Cu334 1.974 1_556 S
O340 C350 1.282 . S
C341 O342 1.261 . S
C341 O354 1.251 . S
O342 C341 1.261 . S
H343 C337 0.930 . S
H344 C339 0.968 . S
N345 Cu334 1.985 . S
N345 C347 1.335 . S
N345 C348 1.390 . S
N346 C347 1.345 . S
N346 C349 1.336 . S
C347 N345 1.335 . S
C347 N346 1.345 . S
C347 H352 0.930 . S
C348 N345 1.390 . S
C348 C349 1.346 . S
C348 H353 0.937 . S
C349 N346 1.336 . S
C349 C348 1.346 . S
C349 H356 0.929 . S
C350 O340 1.282 . S
C350 O351 1.216 . S
O351 C350 1.216 . S
H352 C347 0.930 . S
H353 C348 0.937 . S
O354 Cu334 1.959 . S
O354 C341 1.251 . S
H355 C338 0.930 . S
H356 C349 0.929 . S
Cu357 N358 2.002 . S
Cu357 O363 1.977 . S
Cu357 N368 1.982 1_554 S
Cu357 O377 1.955 1_554 S
N358 Cu357 2.002 . S
N358 C360 1.263 . S
N358 C362 1.389 . S
N359 C360 1.358 . S
N359 C361 1.400 . S
C360 N358 1.263 . S
C360 N359 1.358 . S
C360 H366 0.930 . S
C361 N359 1.400 . S
C361 C362 1.351 . S
C361 H378 0.930 . S
C362 N358 1.389 . S
C362 C361 1.351 . S
C362 H367 0.930 . S
O363 Cu357 1.977 . S
O363 C373 1.282 . S
C364 O365 1.261 . S
C364 O377 1.251 . S
O365 C364 1.261 . S
H366 C360 0.930 . S
H367 C362 0.930 . S
N368 Cu357 1.982 1_556 S
N368 C370 1.335 . S
N368 C371 1.390 . S
N369 C370 1.345 . S
N369 C372 1.336 . S
C370 N368 1.335 . S
C370 N369 1.345 . S
C370 H375 0.930 . S
C371 N368 1.390 . S
C371 C372 1.346 . S
C371 H376 0.890 1_556 S
C372 N369 1.336 . S
C372 C371 1.346 . S
C372 H379 0.929 . S
C373 O363 1.282 . S
C373 O374 1.216 . S
O374 C373 1.216 . S
H375 C370 0.930 . S
H376 C371 0.890 1_554 S
O377 Cu357 1.955 1_556 S
O377 C364 1.251 . S
H378 C361 0.930 . S
H379 C372 0.929 . S
Cu380 N381 1.999 . S
Cu380 O386 1.974 . S
Cu380 N391 1.985 1_455 S
Cu380 O400 1.959 1_455 S
N381 Cu380 1.999 . S
N381 C383 1.263 . S
N381 C385 1.389 . S
N382 C383 1.358 . S
N382 C384 1.400 . S
C383 N381 1.263 . S
C383 N382 1.358 . S
C383 H389 0.930 . S
C384 N382 1.400 . S
C384 C385 1.351 . S
C384 H401 0.930 . S
C385 N381 1.389 . S
C385 C384 1.351 . S
C385 H390 0.930 . S
O386 Cu380 1.974 . S
O386 C396 1.282 . S
C387 O388 1.261 . S
C387 O400 1.251 . S
O388 C387 1.261 . S
H389 C383 0.930 . S
H390 C385 0.930 . S
N391 Cu380 1.985 1_655 S
N391 C393 1.335 . S
N391 C394 1.389 1_655 S
N392 C393 1.345 . S
N392 C395 1.336 . S
C393 N391 1.335 . S
C393 N392 1.345 . S
C393 H398 0.930 . S
C394 N391 1.389 1_455 S
C394 C395 1.342 1_455 S
C394 H399 0.935 . S
C395 N392 1.336 . S
C395 C394 1.342 1_655 S
C395 H402 0.929 . S
C396 O386 1.282 . S
C396 O397 1.216 . S
O397 C396 1.216 . S
H398 C393 0.930 . S
H399 C394 0.935 . S
O400 Cu380 1.959 1_655 S
O400 C387 1.251 . S
H401 C384 0.930 . S
H402 C395 0.929 . S
Cu403 N404 1.999 . S
Cu403 O409 1.974 . S
Cu403 N414 1.985 1_545 S
Cu403 O423 1.959 1_545 S
N404 Cu403 1.999 . S
N404 C406 1.263 . S
N404 C408 1.389 . S
N405 C406 1.358 . S
N405 C407 1.400 . S
C406 N404 1.263 . S
C406 N405 1.358 . S
C406 H412 0.930 . S
C407 N405 1.400 . S
C407 C408 1.351 . S
C407 H424 0.930 . S
C408 N404 1.389 . S
C408 C407 1.351 . S
C408 H413 0.930 . S
O409 Cu403 1.974 . S
O409 C419 1.282 . S
C410 O411 1.261 . S
C410 O423 1.251 . S
O411 C410 1.261 . S
H412 C406 0.930 . S
H413 C408 0.930 . S
N414 Cu403 1.985 1_565 S
N414 C416 1.335 . S
N414 C417 1.390 . S
N415 C416 1.345 . S
N415 C418 1.336 . S
C416 N414 1.335 . S
C416 N415 1.345 . S
C416 H421 0.930 . S
C417 N414 1.390 . S
C417 C418 1.346 . S
C417 H422 0.930 1_565 S
C418 N415 1.336 . S
C418 C417 1.346 . S
C418 H425 0.929 . S
C419 O409 1.282 . S
C419 O420 1.216 . S
O420 C419 1.216 . S
H421 C416 0.930 . S
H422 C417 0.930 1_545 S
O423 Cu403 1.959 1_565 S
O423 C410 1.251 . S
H424 C407 0.930 . S
H425 C418 0.929 . S
Cu426 N427 2.001 . S
Cu426 O432 1.976 . S
Cu426 N437 1.983 1_655 S
Cu426 O446 1.957 1_655 S
N427 Cu426 2.001 . S
N427 C429 1.263 . S
N427 C431 1.389 . S
N428 C429 1.358 . S
N428 C430 1.400 . S
C429 N427 1.263 . S
C429 N428 1.358 . S
C429 H435 0.930 . S
C430 N428 1.400 . S
C430 C431 1.351 . S
C430 H447 0.930 . S
C431 N427 1.389 . S
C431 C430 1.351 . S
C431 H436 0.930 . S
O432 Cu426 1.976 . S
O432 C442 1.282 . S
C433 O434 1.261 . S
C433 O446 1.251 . S
O434 C433 1.261 . S
H435 C429 0.930 . S
H436 C431 0.930 . S
N437 Cu426 1.983 1_455 S
N437 C439 1.335 . S
N437 C440 1.390 . S
N438 C439 1.345 . S
N438 C441 1.336 . S
C439 N437 1.335 . S
C439 N438 1.345 . S
C439 H444 0.930 . S
C440 N437 1.390 . S
C440 C441 1.346 . S
C440 H445 0.930 . S
C441 N438 1.336 . S
C441 C440 1.346 . S
C441 H448 0.929 . S
C442 O432 1.282 . S
C442 O443 1.216 . S
O443 C442 1.216 . S
H444 C439 0.930 . S
H445 C440 0.930 . S
O446 Cu426 1.957 1_455 S
O446 C433 1.251 . S
H447 C430 0.930 . S
H448 C441 0.929 . S
Cu449 N450 1.985 1_565 S
Cu449 O455 1.955 1_565 S
Cu449 N460 1.999 . S
Cu449 O469 1.978 . S
N450 Cu449 1.985 1_545 S
N450 C452 1.263 . S
N450 C454 1.389 . S
N451 C452 1.358 . S
N451 C453 1.400 . S
C452 N450 1.263 . S
C452 N451 1.358 . S
C452 H458 0.930 . S
C453 N451 1.400 . S
C453 C454 1.351 . S
C453 H470 0.930 . S
C454 N450 1.389 . S
C454 C453 1.351 . S
C454 H459 0.930 . S
O455 Cu449 1.955 1_545 S
O455 C465 1.282 . S
C456 O457 1.261 . S
C456 O469 1.251 . S
O457 C456 1.261 . S
H458 C452 0.930 . S
H459 C454 0.930 . S
N460 Cu449 1.999 . S
N460 C462 1.335 . S
N460 C463 1.390 . S
N461 C462 1.345 . S
N461 C464 1.336 . S
C462 N460 1.335 . S
C462 N461 1.345 . S
C462 H467 0.930 . S
C463 N460 1.390 . S
C463 C464 1.346 . S
C463 H468 0.930 . S
C464 N461 1.336 . S
C464 C463 1.346 . S
C464 H471 0.929 . S
C465 O455 1.282 . S
C465 O466 1.216 . S
O466 C465 1.216 . S
H467 C462 0.930 . S
H468 C463 0.930 . S
O469 Cu449 1.978 . S
O469 C456 1.251 . S
H470 C453 0.930 . S
H471 C464 0.929 . S
Cu472 N473 1.999 . S
Cu472 O478 1.974 . S
Cu472 N483 1.985 1_455 S
Cu472 O492 1.959 1_455 S
N473 Cu472 1.999 . S
N473 C475 1.263 . S
N473 C477 1.389 . S
N474 C475 1.358 . S
N474 C476 1.400 . S
C475 N473 1.263 . S
C475 N474 1.358 . S
C475 H481 0.930 . S
C476 N474 1.400 . S
C476 C477 1.351 . S
C476 H493 0.930 . S
C477 N473 1.389 . S
C477 C476 1.351 . S
C477 H482 0.930 . S
O478 Cu472 1.974 . S
O478 C488 1.282 . S
C479 O480 1.261 . S
C479 O492 1.251 . S
O480 C479 1.261 . S
H481 C475 0.930 . S
H482 C477 0.930 . S
N483 Cu472 1.985 1_655 S
N483 C485 1.335 . S
N483 C486 1.399 . S
N484 C485 1.345 . S
N484 C487 1.336 . S
C485 N483 1.335 . S
C485 N484 1.345 . S
C485 H490 0.930 . S
C486 N483 1.399 . S
C486 C487 1.384 . S
C486 H491 0.892 1_655 S
C487 N484 1.336 . S
C487 C486 1.384 . S
C487 H494 0.929 . S
C488 O478 1.282 . S
C488 O489 1.216 . S
O489 C488 1.216 . S
H490 C485 0.930 . S
H491 C486 0.892 1_455 S
O492 Cu472 1.959 1_655 S
O492 C479 1.251 . S
H493 C476 0.930 . S
H494 C487 0.929 . S
Cu495 N496 1.999 . S
Cu495 O501 1.974 . S
Cu495 N506 1.985 1_545 S
Cu495 O515 1.959 1_545 S
N496 Cu495 1.999 . S
N496 C498 1.263 . S
N496 C500 1.389 . S
N497 C498 1.358 . S
N497 C499 1.400 . S
C498 N496 1.263 . S
C498 N497 1.358 . S
C498 H504 0.930 . S
C499 N497 1.400 . S
C499 C500 1.351 . S
C499 H516 0.930 . S
C500 N496 1.389 . S
C500 C499 1.351 . S
C500 H505 0.930 . S
O501 Cu495 1.974 . S
O501 C511 1.282 . S
C502 O503 1.261 . S
C502 O515 1.251 . S
O503 C502 1.261 . S
H504 C498 0.930 . S
H505 C500 0.930 . S
N506 Cu495 1.985 1_565 S
N506 C508 1.335 . S
N506 C509 1.390 1_565 S
N507 C508 1.345 . S
N507 C510 1.336 . S
C508 N506 1.335 . S
C508 N507 1.345 . S
C508 H513 0.930 . S
C509 N506 1.390 1_545 S
C509 C510 1.346 1_545 S
C509 H514 0.930 . S
C510 N507 1.336 . S
C510 C509 1.346 1_565 S
C510 H517 0.929 . S
C511 O501 1.282 . S
C511 O512 1.216 . S
O512 C511 1.216 . S
H513 C508 0.930 . S
H514 C509 0.930 . S
O515 Cu495 1.959 1_565 S
O515 C502 1.251 . S
H516 C499 0.930 . S
H517 C510 0.929 . S
Cu518 N519 1.999 . S
Cu518 O524 1.974 . S
Cu518 N529 1.985 . S
Cu518 O538 1.959 . S
N519 Cu518 1.999 . S
N519 C521 1.263 1_455 S
N519 C523 1.389 . S
N520 C521 1.358 . S
N520 C522 1.400 . S
C521 N519 1.263 1_655 S
C521 N520 1.358 . S
C521 H527 0.930 . S
C522 N520 1.400 . S
C522 C523 1.351 1_655 S
C522 H539 0.930 . S
C523 N519 1.389 . S
C523 C522 1.351 1_455 S
C523 H528 0.930 . S
O524 Cu518 1.974 . S
O524 C534 1.282 1_455 S
C525 O526 1.261 . S
C525 O538 1.251 . S
O526 C525 1.261 . S
H527 C521 0.930 . S
H528 C523 0.930 . S
N529 Cu518 1.985 . S
N529 C531 1.335 . S
N529 C532 1.390 . S
N530 C531 1.345 . S
N530 C533 1.336 . S
C531 N529 1.335 . S
C531 N530 1.345 . S
C531 H536 0.930 . S
C532 N529 1.390 . S
C532 C533 1.346 . S
C532 H537 0.930 . S
C533 N530 1.336 . S
C533 C532 1.346 . S
C533 H540 0.929 . S
C534 O524 1.282 1_655 S
C534 O535 1.216 1_655 S
O535 C534 1.216 1_455 S
H536 C531 0.930 . S
H537 C532 0.930 . S
O538 Cu518 1.959 . S
O538 C525 1.251 . S
H539 C522 0.930 . S
H540 C533 0.929 . S
Cu541 N542 1.999 . S
Cu541 O547 1.974 . S
Cu541 N552 1.985 . S
Cu541 O561 1.959 1_545 S
N542 Cu541 1.999 . S
N542 C544 1.263 . S
N542 C546 1.389 . S
N543 C544 1.358 . S
N543 C545 1.400 . S
C544 N542 1.263 . S
C544 N543 1.358 . S
C544 H550 0.930 . S
C545 N543 1.400 . S
C545 C546 1.351 . S
C545 H562 0.930 . S
C546 N542 1.389 . S
C546 C545 1.351 . S
C546 H551 0.930 . S
O547 Cu541 1.974 . S
O547 C557 1.282 . S
C548 O549 1.241 1_565 S
C548 O561 1.251 . S
O549 C548 1.241 1_545 S
H550 C544 0.930 . S
H551 C546 0.930 . S
N552 Cu541 1.985 . S
N552 C554 1.335 1_545 S
N552 C555 1.390 . S
N553 C554 1.345 . S
N553 C556 1.336 . S
C554 N552 1.335 1_565 S
C554 N553 1.345 . S
C554 H559 0.930 . S
C555 N552 1.390 . S
C555 C556 1.346 1_545 S
C555 H560 0.930 . S
C556 N553 1.336 . S
C556 C555 1.346 1_565 S
C556 H563 0.929 . S
C557 O547 1.282 . S
C557 O558 1.216 . S
O558 C557 1.216 . S
H559 C554 0.930 . S
H560 C555 0.930 . S
O561 Cu541 1.959 1_565 S
O561 C548 1.251 . S
H562 C545 0.930 . S
H563 C556 0.929 . S
Cu564 N565 1.999 . S
Cu564 O570 1.974 . S
Cu564 N575 1.985 . S
Cu564 O584 1.959 . S
N565 Cu564 1.999 . S
N565 C567 1.263 . S
N565 C569 1.389 . S
N566 C567 1.358 . S
N566 C568 1.400 . S
C567 N565 1.263 . S
C567 N566 1.358 . S
C567 H573 0.930 . S
C568 N566 1.400 . S
C568 C569 1.351 . S
C568 H585 0.930 . S
C569 N565 1.389 . S
C569 C568 1.351 . S
C569 H574 0.930 . S
O570 Cu564 1.974 . S
O570 C580 1.282 . S
C571 O572 1.261 . S
C571 O584 1.251 . S
O572 C571 1.261 . S
H573 C567 0.930 . S
H574 C569 0.930 . S
N575 Cu564 1.985 . S
N575 C577 1.335 . S
N575 C578 1.390 . S
N576 C577 1.345 . S
N576 C579 1.336 . S
C577 N575 1.335 . S
C577 N576 1.345 . S
C577 H582 0.930 . S
C578 N575 1.390 . S
C578 C579 1.346 . S
C578 H583 0.930 . S
C579 N576 1.336 . S
C579 C578 1.346 . S
C579 H586 0.929 . S
C580 O570 1.282 . S
C580 O581 1.216 . S
O581 C580 1.216 . S
H582 C577 0.930 . S
H583 C578 0.930 . S
O584 Cu564 1.959 . S
O584 C571 1.251 . S
H585 C568 0.930 . S
H586 C579 0.929 . S
Cu587 N588 1.999 . S
Cu587 O593 1.974 . S
Cu587 N598 1.985 . S
Cu587 O607 1.959 . S
N588 Cu587 1.999 . S
N588 C590 1.263 . S
N588 C592 1.389 . S
N589 C590 1.358 . S
N589 C591 1.400 . S
C590 N588 1.263 . S
C590 N589 1.358 . S
C590 H596 0.930 . S
C591 N589 1.400 . S
C591 C592 1.351 . S
C591 H608 0.930 . S
C592 N588 1.389 . S
C592 C591 1.351 . S
C592 H597 0.930 . S
O593 Cu587 1.974 . S
O593 C603 1.282 . S
C594 O595 1.261 . S
C594 O607 1.251 . S
O595 C594 1.261 . S
H596 C590 0.930 . S
H597 C592 0.930 . S
N598 Cu587 1.985 . S
N598 C600 1.335 . S
N598 C601 1.390 . S
N599 C600 1.345 . S
N599 C602 1.336 . S
C600 N598 1.335 . S
C600 N599 1.345 . S
C600 H605 0.930 . S
C601 N598 1.390 . S
C601 C602 1.346 . S
C601 H606 0.930 . S
C602 N599 1.336 . S
C602 C601 1.346 . S
C602 H609 0.929 . S
C603 O593 1.282 . S
C603 O604 1.216 . S
O604 C603 1.216 . S
H605 C600 0.930 . S
H606 C601 0.930 . S
O607 Cu587 1.959 . S
O607 C594 1.251 . S
H608 C591 0.930 . S
H609 C602 0.929 . S
Cu610 N611 1.999 . S
Cu610 O616 1.974 . S
Cu610 N621 1.985 . S
Cu610 O630 1.959 . S
N611 Cu610 1.999 . S
N611 C613 1.263 . S
N611 C615 1.389 . S
N612 C613 1.358 . S
N612 C614 1.400 . S
C613 N611 1.263 . S
C613 N612 1.358 . S
C613 H619 0.930 . S
C614 N612 1.400 . S
C614 C615 1.351 . S
C614 H631 0.930 . S
C615 N611 1.389 . S
C615 C614 1.351 . S
C615 H620 0.930 . S
O616 Cu610 1.974 . S
O616 C626 1.282 . S
C617 O618 1.261 . S
C617 O630 1.251 . S
O618 C617 1.261 . S
H619 C613 0.930 . S
H620 C615 0.930 . S
N621 Cu610 1.985 . S
N621 C623 1.335 . S
N621 C624 1.390 . S
N622 C623 1.345 . S
N622 C625 1.336 . S
C623 N621 1.335 . S
C623 N622 1.345 . S
C623 H628 0.930 . S
C624 N621 1.390 . S
C624 C625 1.346 . S
C624 H629 0.930 . S
C625 N622 1.336 . S
C625 C624 1.346 . S
C625 H632 0.929 . S
C626 O616 1.282 . S
C626 O627 1.216 . S
O627 C626 1.216 . S
H628 C623 0.930 . S
H629 C624 0.930 . S
O630 Cu610 1.959 . S
O630 C617 1.251 . S
H631 C614 0.930 . S
H632 C625 0.929 . S
Cu633 N634 1.999 . S
Cu633 O639 1.974 . S
Cu633 N644 1.985 . S
Cu633 O653 1.959 . S
N634 Cu633 1.999 . S
N634 C636 1.263 . S
N634 C638 1.389 . S
N635 C636 1.358 . S
N635 C637 1.400 . S
C636 N634 1.263 . S
C636 N635 1.358 . S
C636 H642 0.930 . S
C637 N635 1.400 . S
C637 C638 1.351 . S
C637 H654 0.930 . S
C638 N634 1.389 . S
C638 C637 1.351 . S
C638 H643 0.930 . S
O639 Cu633 1.974 . S
O639 C649 1.282 . S
C640 O641 1.261 . S
C640 O653 1.251 . S
O641 C640 1.261 . S
H642 C636 0.930 . S
H643 C638 0.930 . S
N644 Cu633 1.985 . S
N644 C646 1.335 . S
N644 C647 1.390 . S
N645 C646 1.345 . S
N645 C648 1.336 . S
C646 N644 1.335 . S
C646 N645 1.345 . S
C646 H651 0.930 . S
C647 N644 1.390 . S
C647 C648 1.346 . S
C647 H652 0.930 . S
C648 N645 1.336 . S
C648 C647 1.346 . S
C648 H655 0.929 . S
C649 O639 1.282 . S
C649 O650 1.216 . S
O650 C649 1.216 . S
H651 C646 0.930 . S
H652 C647 0.930 . S
O653 Cu633 1.959 . S
O653 C640 1.251 . S
H654 C637 0.930 . S
H655 C648 0.929 . S
Cu656 N657 1.999 . S
Cu656 O662 1.974 . S
Cu656 N667 1.985 . S
Cu656 O676 1.959 . S
N657 Cu656 1.999 . S
N657 C659 1.263 . S
N657 C661 1.389 . S
N658 C659 1.358 . S
N658 C660 1.400 . S
C659 N657 1.263 . S
C659 N658 1.358 . S
C659 H665 0.930 . S
C660 N658 1.400 . S
C660 C661 1.351 . S
C660 H677 0.930 . S
C661 N657 1.389 . S
C661 C660 1.351 . S
C661 H666 0.930 . S
O662 Cu656 1.974 . S
O662 C672 1.282 . S
C663 O664 1.261 . S
C663 O676 1.251 . S
O664 C663 1.261 . S
H665 C659 0.930 . S
H666 C661 0.930 . S
N667 Cu656 1.985 . S
N667 C669 1.335 . S
N667 C670 1.390 . S
N668 C669 1.345 . S
N668 C671 1.336 . S
C669 N667 1.335 . S
C669 N668 1.345 . S
C669 H674 0.930 . S
C670 N667 1.390 . S
C670 C671 1.346 . S
C670 H675 0.930 . S
C671 N668 1.336 . S
C671 C670 1.346 . S
C671 H678 0.929 . S
C672 O662 1.282 . S
C672 O673 1.216 . S
O673 C672 1.216 . S
H674 C669 0.930 . S
H675 C670 0.930 . S
O676 Cu656 1.959 . S
O676 C663 1.251 . S
H677 C660 0.930 . S
H678 C671 0.929 . S
Cu679 N680 1.999 . S
Cu679 O685 1.974 . S
Cu679 N690 1.985 . S
Cu679 O699 1.959 . S
N680 Cu679 1.999 . S
N680 C682 1.263 . S
N680 C684 1.389 . S
N681 C682 1.358 . S
N681 C683 1.400 . S
C682 N680 1.263 . S
C682 N681 1.358 . S
C682 H688 0.930 . S
C683 N681 1.400 . S
C683 C684 1.351 . S
C683 H700 0.930 . S
C684 N680 1.389 . S
C684 C683 1.351 . S
C684 H689 0.930 . S
O685 Cu679 1.974 . S
O685 C695 1.282 . S
C686 O687 1.261 . S
C686 O699 1.251 . S
O687 C686 1.261 . S
H688 C682 0.930 . S
H689 C684 0.930 . S
N690 Cu679 1.985 . S
N690 C692 1.335 . S
N690 C693 1.390 . S
N691 C692 1.345 . S
N691 C694 1.336 . S
C692 N690 1.335 . S
C692 N691 1.345 . S
C692 H697 0.930 . S
C693 N690 1.390 . S
C693 C694 1.346 . S
C693 H698 0.930 . S
C694 N691 1.336 . S
C694 C693 1.346 . S
C694 H701 0.929 . S
C695 O685 1.282 . S
C695 O696 1.216 . S
O696 C695 1.216 . S
H697 C692 0.930 . S
H698 C693 0.930 . S
O699 Cu679 1.959 . S
O699 C686 1.251 . S
H700 C683 0.930 . S
H701 C694 0.929 . S
Cu702 N703 1.999 . S
Cu702 O708 1.974 . S
Cu702 N713 1.985 . S
Cu702 O722 1.959 . S
N703 Cu702 1.999 . S
N703 C705 1.263 . S
N703 C707 1.389 . S
N704 C705 1.358 . S
N704 C706 1.400 . S
C705 N703 1.263 . S
C705 N704 1.358 . S
C705 H711 0.930 . S
C706 N704 1.400 . S
C706 C707 1.351 . S
C706 H723 0.930 . S
C707 N703 1.389 . S
C707 C706 1.351 . S
C707 H712 0.930 . S
O708 Cu702 1.974 . S
O708 C718 1.282 . S
C709 O710 1.261 . S
C709 O722 1.251 . S
O710 C709 1.261 . S
H711 C705 0.930 . S
H712 C707 0.930 . S
N713 Cu702 1.985 . S
N713 C715 1.335 . S
N713 C716 1.390 . S
N714 C715 1.345 . S
N714 C717 1.336 . S
C715 N713 1.335 . S
C715 N714 1.345 . S
C715 H720 0.930 . S
C716 N713 1.390 . S
C716 C717 1.346 . S
C716 H721 0.930 . S
C717 N714 1.336 . S
C717 C716 1.346 . S
C717 H724 0.929 . S
C718 O708 1.282 . S
C718 O719 1.216 . S
O719 C718 1.216 . S
H720 C715 0.930 . S
H721 C716 0.930 . S
O722 Cu702 1.959 . S
O722 C709 1.251 . S
H723 C706 0.930 . S
H724 C717 0.929 . S
Cu725 N726 1.999 . S
Cu725 O731 1.974 . S
Cu725 N736 1.985 . S
Cu725 O745 1.959 . S
N726 Cu725 1.999 . S
N726 C728 1.263 . S
N726 C730 1.389 . S
N727 C728 1.358 . S
N727 C729 1.400 . S
C728 N726 1.263 . S
C728 N727 1.358 . S
C728 H734 0.930 . S
C729 N727 1.400 . S
C729 C730 1.351 . S
C729 H746 0.930 . S
C730 N726 1.389 . S
C730 C729 1.351 . S
C730 H735 0.930 . S
O731 Cu725 1.974 . S
O731 C741 1.282 . S
C732 O733 1.261 . S
C732 O745 1.251 . S
O733 C732 1.261 . S
H734 C728 0.930 . S
H735 C730 0.930 . S
N736 Cu725 1.985 . S
N736 C738 1.335 . S
N736 C739 1.390 . S
N737 C738 1.345 . S
N737 C740 1.336 . S
C738 N736 1.335 . S
C738 N737 1.345 . S
C738 H743 0.930 . S
C739 N736 1.390 . S
C739 C740 1.346 . S
C739 H744 0.930 . S
C740 N737 1.336 . S
C740 C739 1.346 . S
C740 H747 0.929 . S
C741 O731 1.282 . S
C741 O742 1.216 . S
O742 C741 1.216 . S
H743 C738 0.930 . S
H744 C739 0.930 . S
O745 Cu725 1.959 . S
O745 C732 1.251 . S
H746 C729 0.930 . S
H747 C740 0.929 . S
Cu748 N749 1.999 . S
Cu748 O754 1.974 . S
Cu748 N759 1.985 . S
Cu748 O768 1.959 . S
N749 Cu748 1.999 . S
N749 C751 1.263 . S
N749 C753 1.389 . S
N750 C751 1.358 . S
N750 C752 1.400 . S
C751 N749 1.263 . S
C751 N750 1.358 . S
C751 H757 0.930 . S
C752 N750 1.400 . S
C752 C753 1.351 . S
C752 H769 0.930 . S
C753 N749 1.389 . S
C753 C752 1.351 . S
C753 H758 0.930 . S
O754 Cu748 1.974 . S
O754 C764 1.282 . S
C755 O756 1.261 . S
C755 O768 1.251 . S
O756 C755 1.261 . S
H757 C751 0.930 . S
H758 C753 0.930 . S
N759 Cu748 1.985 . S
N759 C761 1.335 . S
N759 C762 1.390 . S
N760 C761 1.345 . S
N760 C763 1.336 . S
C761 N759 1.335 . S
C761 N760 1.345 . S
C761 H766 0.930 . S
C762 N759 1.390 . S
C762 C763 1.346 . S
C762 H767 0.930 . S
C763 N760 1.336 . S
C763 C762 1.346 . S
C763 H770 0.929 . S
C764 O754 1.282 . S
C764 O765 1.216 . S
O765 C764 1.216 . S
H766 C761 0.930 . S
H767 C762 0.930 . S
O768 Cu748 1.959 . S
O768 C755 1.251 . S
H769 C752 0.930 . S
H770 C763 0.929 . S
Cu771 N772 1.999 . S
Cu771 O777 1.974 . S
Cu771 N782 1.985 . S
Cu771 O791 1.959 . S
N772 Cu771 1.999 . S
N772 C774 1.263 . S
N772 C776 1.389 . S
N773 C774 1.358 . S
N773 C775 1.400 . S
C774 N772 1.263 . S
C774 N773 1.358 . S
C774 H780 0.930 . S
C775 N773 1.400 . S
C775 C776 1.351 . S
C775 H792 0.930 . S
C776 N772 1.389 . S
C776 C775 1.351 . S
C776 H781 0.930 . S
O777 Cu771 1.974 . S
O777 C787 1.282 . S
C778 O779 1.261 . S
C778 O791 1.251 . S
O779 C778 1.261 . S
H780 C774 0.930 . S
H781 C776 0.930 . S
N782 Cu771 1.985 . S
N782 C784 1.335 . S
N782 C785 1.390 . S
N783 C784 1.345 . S
N783 C786 1.336 . S
C784 N782 1.335 . S
C784 N783 1.345 . S
C784 H789 0.930 . S
C785 N782 1.390 . S
C785 C786 1.346 . S
C785 H790 0.930 . S
C786 N783 1.336 . S
C786 C785 1.346 . S
C786 H793 0.929 . S
C787 O777 1.282 . S
C787 O788 1.216 . S
O788 C787 1.216 . S
H789 C784 0.930 . S
H790 C785 0.930 . S
O791 Cu771 1.959 . S
O791 C778 1.251 . S
H792 C775 0.930 . S
H793 C786 0.929 . S
Cu794 N795 1.999 . S
Cu794 O800 1.974 . S
Cu794 N805 1.985 . S
Cu794 O814 1.959 . S
N795 Cu794 1.999 . S
N795 C797 1.263 . S
N795 C799 1.389 . S
N796 C797 1.358 . S
N796 C798 1.400 . S
C797 N795 1.263 . S
C797 N796 1.358 . S
C797 H803 0.930 . S
C798 N796 1.400 . S
C798 C799 1.351 . S
C798 H815 0.930 . S
C799 N795 1.389 . S
C799 C798 1.351 . S
C799 H804 0.930 . S
O800 Cu794 1.974 . S
O800 C810 1.282 . S
C801 O802 1.261 . S
C801 O814 1.251 . S
O802 C801 1.261 . S
H803 C797 0.930 . S
H804 C799 0.930 . S
N805 Cu794 1.985 . S
N805 C807 1.335 . S
N805 C808 1.390 . S
N806 C807 1.345 . S
N806 C809 1.336 . S
C807 N805 1.335 . S
C807 N806 1.345 . S
C807 H812 0.930 . S
C808 N805 1.390 . S
C808 C809 1.346 . S
C808 H813 0.930 . S
C809 N806 1.336 . S
C809 C808 1.346 . S
C809 H816 0.929 . S
C810 O800 1.282 . S
C810 O811 1.216 . S
O811 C810 1.216 . S
H812 C807 0.930 . S
H813 C808 0.930 . S
O814 Cu794 1.959 . S
O814 C801 1.251 . S
H815 C798 0.930 . S
H816 C809 0.929 . S
Cu817 N818 1.999 . S
Cu817 O823 1.974 . S
Cu817 N828 1.985 . S
Cu817 O837 1.959 . S
N818 Cu817 1.999 . S
N818 C820 1.263 . S
N818 C822 1.389 . S
N819 C820 1.358 . S
N819 C821 1.400 . S
C820 N818 1.263 . S
C820 N819 1.358 . S
C820 H826 0.930 . S
C821 N819 1.400 . S
C821 C822 1.351 . S
C821 H838 0.930 . S
C822 N818 1.389 . S
C822 C821 1.351 . S
C822 H827 0.930 . S
O823 Cu817 1.974 . S
O823 C833 1.282 . S
C824 O825 1.261 . S
C824 O837 1.251 . S
O825 C824 1.261 . S
H826 C820 0.930 . S
H827 C822 0.930 . S
N828 Cu817 1.985 . S
N828 C830 1.335 . S
N828 C831 1.390 . S
N829 C830 1.345 . S
N829 C832 1.336 . S
C830 N828 1.335 . S
C830 N829 1.345 . S
C830 H835 0.930 . S
C831 N828 1.390 . S
C831 C832 1.346 . S
C831 H836 0.930 . S
C832 N829 1.336 . S
C832 C831 1.346 . S
C832 H839 0.929 . S
C833 O823 1.282 . S
C833 O834 1.216 . S
O834 C833 1.216 . S
H835 C830 0.930 . S
H836 C831 0.930 . S
O837 Cu817 1.959 . S
O837 C824 1.251 . S
H838 C821 0.930 . S
H839 C832 0.929 . S
H840 C848 0.950 . S
H841 C853 0.950 . S
H842 C850 0.950 . S
H843 C852 0.950 . S
H844 C854 0.950 . S
H845 C856 0.950 . S
H846 C858 0.950 . S
H847 C859 0.950 . S
C848 H840 0.950 . S
C848 C849 1.386 . S
C848 C850 1.391 . S
C849 C848 1.386 . S
C849 C853 1.393 . S
C850 H842 0.950 . S
C850 C848 1.391 . S
C850 C851 1.400 . S
C851 C850 1.400 . S
C851 C852 1.398 . S
C851 C857 1.491 . S
C852 H843 0.950 . S
C852 C851 1.398 . S
C852 C853 1.391 . S
C853 H841 0.950 . S
C853 C849 1.393 . S
C853 C852 1.391 . S
C854 H844 0.950 . S
C854 C855 1.386 . S
C854 C856 1.391 . S
C855 C854 1.386 . S
C855 C859 1.393 . S
C856 H845 0.950 . S
C856 C854 1.391 . S
C856 C857 1.400 . S
C857 C851 1.491 . S
C857 C856 1.400 . S
C857 C858 1.398 . S
C858 H846 0.950 . S
C858 C857 1.398 . S
C858 C859 1.391 . S
C859 H847 0.950 . S
C859 C855 1.393 . S
C859 C858 1.391 . S
H860 C868 0.950 . S
H861 C873 0.950 . S
H862 C870 0.950 . S
H863 C872 0.950 . S
H864 C874 0.950 . S
H865 C876 0.950 . S
H866 C878 0.950 . S
H867 C879 0.950 . S
C868 H860 0.950 . S
C868 C869 1.386 . S
C868 C870 1.391 . S
C869 C868 1.386 . S
C869 C873 1.393 . S
C870 H862 0.950 . S
C870 C868 1.391 . S
C870 C871 1.400 . S
C871 C870 1.400 . S
C871 C872 1.398 . S
C871 C877 1.491 . S
C872 H863 0.950 . S
C872 C871 1.398 . S
C872 C873 1.391 . S
C873 H861 0.950 . S
C873 C869 1.393 . S
C873 C872 1.391 . S
C874 H864 0.950 . S
C874 C875 1.386 . S
C874 C876 1.391 . S
C875 C874 1.386 . S
C875 C879 1.393 . S
C876 H865 0.950 . S
C876 C874 1.391 . S
C876 C877 1.400 . S
C877 C871 1.491 . S
C877 C876 1.400 . S
C877 C878 1.398 . S
C878 H866 0.950 . S
C878 C877 1.398 . S
C878 C879 1.391 . S
C879 H867 0.950 . S
C879 C875 1.393 . S
C879 C878 1.391 . S
H880 C888 0.950 . S
H881 C893 0.950 . S
H882 C890 0.950 . S
H883 C892 0.950 . S
H884 C894 0.950 . S
H885 C896 0.950 . S
H886 C898 0.950 . S
H887 C899 0.950 . S
C888 H880 0.950 . S
C888 C889 1.386 . S
C888 C890 1.391 . S
C889 C888 1.386 . S
C889 C893 1.393 . S
C890 H882 0.950 . S
C890 C888 1.391 . S
C890 C891 1.400 . S
C891 C890 1.400 . S
C891 C892 1.398 . S
C891 C897 1.491 . S
C892 H883 0.950 . S
C892 C891 1.398 . S
C892 C893 1.391 . S
C893 H881 0.950 . S
C893 C889 1.393 . S
C893 C892 1.391 . S
C894 H884 0.950 . S
C894 C895 1.386 . S
C894 C896 1.391 . S
C895 C894 1.386 . S
C895 C899 1.393 . S
C896 H885 0.950 . S
C896 C894 1.391 . S
C896 C897 1.400 . S
C897 C891 1.491 . S
C897 C896 1.400 . S
C897 C898 1.398 . S
C898 H886 0.950 . S
C898 C897 1.398 . S
C898 C899 1.391 . S
C899 H887 0.950 . S
C899 C895 1.393 . S
C899 C898 1.391 . S
H900 C908 0.950 . S
H901 C913 0.950 . S
H902 C910 0.950 . S
H903 C912 0.950 . S
H904 C914 0.950 . S
H905 C916 0.950 . S
H906 C918 0.950 . S
H907 C919 0.950 . S
C908 H900 0.950 . S
C908 C909 1.386 . S
C908 C910 1.391 . S
C909 C908 1.386 . S
C909 C913 1.393 . S
C910 H902 0.950 . S
C910 C908 1.391 . S
C910 C911 1.400 . S
C911 C910 1.400 . S
C911 C912 1.398 . S
C911 C917 1.491 . S
C912 H903 0.950 . S
C912 C911 1.398 . S
C912 C913 1.391 . S
C913 H901 0.950 . S
C913 C909 1.393 . S
C913 C912 1.391 . S
C914 H904 0.950 . S
C914 C915 1.386 . S
C914 C916 1.391 . S
C915 C914 1.386 . S
C915 C919 1.393 . S
C916 H905 0.950 . S
C916 C914 1.391 . S
C916 C917 1.400 . S
C917 C911 1.491 . S
C917 C916 1.400 . S
C917 C918 1.398 . S
C918 H906 0.950 . S
C918 C917 1.398 . S
C918 C919 1.391 . S
C919 H907 0.950 . S
C919 C915 1.393 . S
C919 C918 1.391 . S
H920 C928 0.950 . S
H921 C933 0.950 . S
H922 C930 0.950 . S
H923 C932 0.950 . S
H924 C934 0.950 . S
H925 C936 0.950 . S
H926 C938 0.950 . S
H927 C939 0.950 . S
C928 H920 0.950 . S
C928 C929 1.386 . S
C928 C930 1.391 . S
C929 C928 1.386 . S
C929 C933 1.393 . S
C930 H922 0.950 . S
C930 C928 1.391 . S
C930 C931 1.400 . S
C931 C930 1.400 . S
C931 C932 1.398 . S
C931 C937 1.491 . S
C932 H923 0.950 . S
C932 C931 1.398 . S
C932 C933 1.391 . S
C933 H921 0.950 . S
C933 C929 1.393 . S
C933 C932 1.391 . S
C934 H924 0.950 . S
C934 C935 1.386 . S
C934 C936 1.391 . S
C935 C934 1.386 . S
C935 C939 1.393 . S
C936 H925 0.950 . S
C936 C934 1.391 . S
C936 C937 1.400 . S
C937 C931 1.491 . S
C937 C936 1.400 . S
C937 C938 1.398 . S
C938 H926 0.950 . S
C938 C937 1.398 . S
C938 C939 1.391 . S
C939 H927 0.950 . S
C939 C935 1.393 . S
C939 C938 1.391 . S
H940 C948 0.950 . S
H941 C953 0.950 . S
H942 C950 0.950 . S
H943 C952 0.950 . S
H944 C954 0.950 . S
H945 C956 0.950 . S
H946 C958 0.950 . S
H947 C959 0.950 . S
C948 H940 0.950 . S
C948 C949 1.386 . S
C948 C950 1.391 . S
C949 C948 1.386 . S
C949 C953 1.393 . S
C950 H942 0.950 . S
C950 C948 1.391 . S
C950 C951 1.400 . S
C951 C950 1.400 . S
C951 C952 1.398 . S
C951 C957 1.491 . S
C952 H943 0.950 . S
C952 C951 1.398 . S
C952 C953 1.391 . S
C953 H941 0.950 . S
C953 C949 1.393 . S
C953 C952 1.391 . S
C954 H944 0.950 . S
C954 C955 1.386 . S
C954 C956 1.391 . S
C955 C954 1.386 . S
C955 C959 1.393 . S
C956 H945 0.950 . S
C956 C954 1.391 . S
C956 C957 1.400 . S
C957 C951 1.491 . S
C957 C956 1.400 . S
C957 C958 1.398 . S
C958 H946 0.950 . S
C958 C957 1.398 . S
C958 C959 1.391 . S
C959 H947 0.950 . S
C959 C955 1.393 . S
C959 C958 1.391 . S
H960 C968 0.950 . S
H961 C973 0.950 . S
H962 C970 0.950 . S
H963 C972 0.950 . S
H964 C974 0.950 . S
H965 C976 0.950 . S
H966 C978 0.950 . S
H967 C979 0.950 . S
C968 H960 0.950 . S
C968 C969 1.386 . S
C968 C970 1.391 . S
C969 C968 1.386 . S
C969 C973 1.393 . S
C970 H962 0.950 . S
C970 C968 1.391 . S
C970 C971 1.400 . S
C971 C970 1.400 . S
C971 C972 1.398 . S
C971 C977 1.491 . S
C972 H963 0.950 . S
C972 C971 1.398 . S
C972 C973 1.391 . S
C973 H961 0.950 . S
C973 C969 1.393 . S
C973 C972 1.391 . S
C974 H964 0.950 . S
C974 C975 1.386 . S
C974 C976 1.391 . S
C975 C974 1.386 . S
C975 C979 1.393 . S
C976 H965 0.950 . S
C976 C974 1.391 . S
C976 C977 1.400 . S
C977 C971 1.491 . S
C977 C976 1.400 . S
C977 C978 1.398 . S
C978 H966 0.950 . S
C978 C977 1.398 . S
C978 C979 1.391 . S
C979 H967 0.950 . S
C979 C975 1.393 . S
C979 C978 1.391 . S
H980 C988 0.950 . S
H981 C993 0.950 . S
H982 C990 0.950 . S
H983 C992 0.950 . S
H984 C994 0.950 . S
H985 C996 0.950 . S
H986 C998 0.950 . S
H987 C999 0.950 . S
C988 H980 0.950 . S
C988 C989 1.386 . S
C988 C990 1.391 . S
C989 C988 1.386 . S
C989 C993 1.393 . S
C990 H982 0.950 . S
C990 C988 1.391 . S
C990 C991 1.400 . S
C991 C990 1.400 . S
C991 C992 1.398 . S
C991 C997 1.491 . S
C992 H983 0.950 . S
C992 C991 1.398 . S
C992 C993 1.391 . S
C993 H981 0.950 . S
C993 C989 1.393 . S
C993 C992 1.391 . S
C994 H984 0.950 . S
C994 C995 1.386 . S
C994 C996 1.391 . S
C995 C994 1.386 . S
C995 C999 1.393 . S
C996 H985 0.950 . S
C996 C994 1.391 . S
C996 C997 1.400 . S
C997 C991 1.491 . S
C997 C996 1.400 . S
C997 C998 1.398 . S
C998 H986 0.950 . S
C998 C997 1.398 . S
C998 C999 1.391 . S
C999 H987 0.950 . S
C999 C995 1.393 . S
C999 C998 1.391 . S
H1000 C1008 0.950 . S
H1001 C1013 0.950 . S
H1002 C1010 0.950 . S
H1003 C1012 0.950 . S
H1004 C1014 0.950 . S
H1005 C1016 0.950 . S
H1006 C1018 0.950 . S
H1007 C1019 0.950 . S
C1008 H1000 0.950 . S
C1008 C1009 1.386 . S
C1008 C1010 1.391 . S
C1009 C1008 1.386 . S
C1009 C1013 1.393 . S
C1010 H1002 0.950 . S
C1010 C1008 1.391 . S
C1010 C1011 1.400 . S
C1011 C1010 1.400 . S
C1011 C1012 1.398 . S
C1011 C1017 1.491 . S
C1012 H1003 0.950 . S
C1012 C1011 1.398 . S
C1012 C1013 1.391 . S
C1013 H1001 0.950 . S
C1013 C1009 1.393 . S
C1013 C1012 1.391 . S
C1014 H1004 0.950 . S
C1014 C1015 1.386 . S
C1014 C1016 1.391 . S
C1015 C1014 1.386 . S
C1015 C1019 1.393 . S
C1016 H1005 0.950 . S
C1016 C1014 1.391 . S
C1016 C1017 1.400 . S
C1017 C1011 1.491 . S
C1017 C1016 1.400 . S
C1017 C1018 1.398 . S
C1018 H1006 0.950 . S
C1018 C1017 1.398 . S
C1018 C1019 1.391 . S
C1019 H1007 0.950 . S
C1019 C1015 1.393 . S
C1019 C1018 1.391 . S
H1020 C1028 0.950 . S
H1021 C1033 0.950 . S
H1022 C1030 0.950 . S
H1023 C1032 0.950 . S
H1024 C1034 0.950 . S
H1025 C1036 0.950 . S
H1026 C1038 0.950 . S
H1027 C1039 0.950 . S
C1028 H1020 0.950 . S
C1028 C1029 1.386 . S
C1028 C1030 1.391 . S
C1029 C1028 1.386 . S
C1029 C1033 1.393 . S
C1030 H1022 0.950 . S
C1030 C1028 1.391 . S
C1030 C1031 1.400 . S
C1031 C1030 1.400 . S
C1031 C1032 1.398 . S
C1031 C1037 1.491 . S
C1032 H1023 0.950 . S
C1032 C1031 1.398 . S
C1032 C1033 1.391 . S
C1033 H1021 0.950 . S
C1033 C1029 1.393 . S
C1033 C1032 1.391 . S
C1034 H1024 0.950 . S
C1034 C1035 1.386 . S
C1034 C1036 1.391 . S
C1035 C1034 1.386 . S
C1035 C1039 1.393 . S
C1036 H1025 0.950 . S
C1036 C1034 1.391 . S
C1036 C1037 1.400 . S
C1037 C1031 1.491 . S
C1037 C1036 1.400 . S
C1037 C1038 1.398 . S
C1038 H1026 0.950 . S
C1038 C1037 1.398 . S
C1038 C1039 1.391 . S
C1039 H1027 0.950 . S
C1039 C1035 1.393 . S
C1039 C1038 1.391 . S
H1040 C1048 0.950 . S
H1041 C1053 0.950 . S
H1042 C1050 0.950 . S
H1043 C1052 0.950 . S
H1044 C1054 0.950 . S
H1045 C1056 0.950 . S
H1046 C1058 0.950 . S
H1047 C1059 0.950 . S
C1048 H1040 0.950 . S
C1048 C1049 1.386 . S
C1048 C1050 1.391 . S
C1049 C1048 1.386 . S
C1049 C1053 1.393 . S
C1050 H1042 0.950 . S
C1050 C1048 1.391 . S
C1050 C1051 1.400 . S
C1051 C1050 1.400 . S
C1051 C1052 1.398 . S
C1051 C1057 1.491 . S
C1052 H1043 0.950 . S
C1052 C1051 1.398 . S
C1052 C1053 1.391 . S
C1053 H1041 0.950 . S
C1053 C1049 1.393 . S
C1053 C1052 1.391 . S
C1054 H1044 0.950 . S
C1054 C1055 1.386 . S
C1054 C1056 1.391 . S
C1055 C1054 1.386 . S
C1055 C1059 1.393 . S
C1056 H1045 0.950 . S
C1056 C1054 1.391 . S
C1056 C1057 1.400 . S
C1057 C1051 1.491 . S
C1057 C1056 1.400 . S
C1057 C1058 1.398 . S
C1058 H1046 0.950 . S
C1058 C1057 1.398 . S
C1058 C1059 1.391 . S
C1059 H1047 0.950 . S
C1059 C1055 1.393 . S
C1059 C1058 1.391 . S
H1060 C1068 0.950 . S
H1061 C1073 0.950 . S
H1062 C1070 0.950 . S
H1063 C1072 0.950 . S
H1064 C1074 0.950 . S
H1065 C1076 0.950 . S
H1066 C1078 0.950 . S
H1067 C1079 0.950 . S
C1068 H1060 0.950 . S
C1068 C1069 1.386 . S
C1068 C1070 1.391 . S
C1069 C1068 1.386 . S
C1069 C1073 1.393 . S
C1070 H1062 0.950 . S
C1070 C1068 1.391 . S
C1070 C1071 1.400 . S
C1071 C1070 1.400 . S
C1071 C1072 1.398 . S
C1071 C1077 1.491 . S
C1072 H1063 0.950 . S
C1072 C1071 1.398 . S
C1072 C1073 1.391 . S
C1073 H1061 0.950 . S
C1073 C1069 1.393 . S
C1073 C1072 1.391 . S
C1074 H1064 0.950 . S
C1074 C1075 1.386 . S
C1074 C1076 1.391 . S
C1075 C1074 1.386 . S
C1075 C1079 1.393 . S
C1076 H1065 0.950 . S
C1076 C1074 1.391 . S
C1076 C1077 1.400 . S
C1077 C1071 1.491 . S
C1077 C1076 1.400 . S
C1077 C1078 1.398 . S
C1078 H1066 0.950 . S
C1078 C1077 1.398 . S
C1078 C1079 1.391 . S
C1079 H1067 0.950 . S
C1079 C1075 1.393 . S
C1079 C1078 1.391 . S
H1080 C1088 0.950 . S
H1081 C1093 0.950 . S
H1082 C1090 0.950 . S
H1083 C1092 0.950 . S
H1084 C1094 0.950 . S
H1085 C1096 0.950 . S
H1086 C1098 0.950 . S
H1087 C1099 0.950 . S
C1088 H1080 0.950 . S
C1088 C1089 1.386 . S
C1088 C1090 1.391 . S
C1089 C1088 1.386 . S
C1089 C1093 1.393 . S
C1090 H1082 0.950 . S
C1090 C1088 1.391 . S
C1090 C1091 1.400 . S
C1091 C1090 1.400 . S
C1091 C1092 1.398 . S
C1091 C1097 1.491 . S
C1092 H1083 0.950 . S
C1092 C1091 1.398 . S
C1092 C1093 1.391 . S
C1093 H1081 0.950 . S
C1093 C1089 1.393 . S
C1093 C1092 1.391 . S
C1094 H1084 0.950 . S
C1094 C1095 1.386 . S
C1094 C1096 1.391 . S
C1095 C1094 1.386 . S
C1095 C1099 1.393 . S
C1096 H1085 0.950 . S
C1096 C1094 1.391 . S
C1096 C1097 1.400 . S
C1097 C1091 1.491 . S
C1097 C1096 1.400 . S
C1097 C1098 1.398 . S
C1098 H1086 0.950 . S
C1098 C1097 1.398 . S
C1098 C1099 1.391 . S
C1099 H1087 0.950 . S
C1099 C1095 1.393 . S
C1099 C1098 1.391 . S
H1100 C1108 0.950 . S
H1101 C1113 0.950 . S
H1102 C1110 0.950 . S
H1103 C1112 0.950 . S
H1104 C1114 0.950 . S
H1105 C1116 0.950 . S
H1106 C1118 0.950 . S
H1107 C1119 0.950 . S
C1108 H1100 0.950 . S
C1108 C1109 1.386 . S
C1108 C1110 1.391 . S
C1109 C1108 1.386 . S
C1109 C1113 1.393 . S
C1110 H1102 0.950 . S
C1110 C1108 1.391 . S
C1110 C1111 1.400 . S
C1111 C1110 1.400 . S
C1111 C1112 1.398 . S
C1111 C1117 1.491 . S
C1112 H1103 0.950 . S
C1112 C1111 1.398 . S
C1112 C1113 1.391 . S
C1113 H1101 0.950 . S
C1113 C1109 1.393 . S
C1113 C1112 1.391 . S
C1114 H1104 0.950 . S
C1114 C1115 1.386 . S
C1114 C1116 1.391 . S
C1115 C1114 1.386 . S
C1115 C1119 1.393 . S
C1116 H1105 0.950 . S
C1116 C1114 1.391 . S
C1116 C1117 1.400 . S
C1117 C1111 1.491 . S
C1117 C1116 1.400 . S
C1117 C1118 1.398 . S
C1118 H1106 0.950 . S
C1118 C1117 1.398 . S
C1118 C1119 1.391 . S
C1119 H1107 0.950 . S
C1119 C1115 1.393 . S
C1119 C1118 1.391 . S
H1120 C1128 0.950 . S
H1121 C1133 0.950 . S
H1122 C1130 0.950 . S
H1123 C1132 0.950 . S
H1124 C1134 0.950 . S
H1125 C1136 0.950 . S
H1126 C1138 0.950 . S
H1127 C1139 0.950 . S
C1128 H1120 0.950 . S
C1128 C1129 1.386 . S
C1128 C1130 1.391 . S
C1129 C1128 1.386 . S
C1129 C1133 1.393 . S
C1130 H1122 0.950 . S
C1130 C1128 1.391 . S
C1130 C1131 1.400 . S
C1131 C1130 1.400 . S
C1131 C1132 1.398 . S
C1131 C1137 1.491 . S
C1132 H1123 0.950 . S
C1132 C1131 1.398 . S
C1132 C1133 1.391 . S
C1133 H1121 0.950 . S
C1133 C1129 1.393 . S
C1133 C1132 1.391 . S
C1134 H1124 0.950 . S
C1134 C1135 1.386 . S
C1134 C1136 1.391 . S
C1135 C1134 1.386 . S
C1135 C1139 1.393 . S
C1136 H1125 0.950 . S
C1136 C1134 1.391 . S
C1136 C1137 1.400 . S
C1137 C1131 1.491 . S
C1137 C1136 1.400 . S
C1137 C1138 1.398 . S
C1138 H1126 0.950 . S
C1138 C1137 1.398 . S
C1138 C1139 1.391 . S
C1139 H1127 0.950 . S
C1139 C1135 1.393 . S
C1139 C1138 1.391 . S
H1140 C1148 0.950 . S
H1141 C1153 0.950 . S
H1142 C1150 0.950 . S
H1143 C1152 0.950 . S
H1144 C1154 0.950 . S
H1145 C1156 0.950 . S
H1146 C1158 0.950 . S
H1147 C1159 0.950 . S
C1148 H1140 0.950 . S
C1148 C1149 1.386 . S
C1148 C1150 1.391 . S
C1149 C1148 1.386 . S
C1149 C1153 1.393 . S
C1150 H1142 0.950 . S
C1150 C1148 1.391 . S
C1150 C1151 1.400 . S
C1151 C1150 1.400 . S
C1151 C1152 1.398 . S
C1151 C1157 1.491 . S
C1152 H1143 0.950 . S
C1152 C1151 1.398 . S
C1152 C1153 1.391 . S
C1153 H1141 0.950 . S
C1153 C1149 1.393 . S
C1153 C1152 1.391 . S
C1154 H1144 0.950 . S
C1154 C1155 1.386 . S
C1154 C1156 1.391 . S
C1155 C1154 1.386 . S
C1155 C1159 1.393 . S
C1156 H1145 0.950 . S
C1156 C1154 1.391 . S
C1156 C1157 1.400 . S
C1157 C1151 1.491 . S
C1157 C1156 1.400 . S
C1157 C1158 1.398 . S
C1158 H1146 0.950 . S
C1158 C1157 1.398 . S
C1158 C1159 1.391 . S
C1159 H1147 0.950 . S
C1159 C1155 1.393 . S
C1159 C1158 1.391 . S
H1160 C1168 0.950 . S
H1161 C1173 0.950 . S
H1162 C1170 0.950 . S
H1163 C1172 0.950 . S
H1164 C1174 0.950 . S
H1165 C1176 0.950 . S
H1166 C1178 0.950 . S
H1167 C1179 0.950 . S
C1168 H1160 0.950 . S
C1168 C1169 1.386 . S
C1168 C1170 1.391 . S
C1169 C1168 1.386 . S
C1169 C1173 1.393 . S
C1170 H1162 0.950 . S
C1170 C1168 1.391 . S
C1170 C1171 1.400 . S
C1171 C1170 1.400 . S
C1171 C1172 1.398 . S
C1171 C1177 1.491 . S
C1172 H1163 0.950 . S
C1172 C1171 1.398 . S
C1172 C1173 1.391 . S
C1173 H1161 0.950 . S
C1173 C1169 1.393 . S
C1173 C1172 1.391 . S
C1174 H1164 0.950 . S
C1174 C1175 1.386 . S
C1174 C1176 1.391 . S
C1175 C1174 1.386 . S
C1175 C1179 1.393 . S
C1176 H1165 0.950 . S
C1176 C1174 1.391 . S
C1176 C1177 1.400 . S
C1177 C1171 1.491 . S
C1177 C1176 1.400 . S
C1177 C1178 1.398 . S
C1178 H1166 0.950 . S
C1178 C1177 1.398 . S
C1178 C1179 1.391 . S
C1179 H1167 0.950 . S
C1179 C1175 1.393 . S
C1179 C1178 1.391 . S
H1180 C1188 0.950 . S
H1181 C1193 0.950 . S
H1182 C1190 0.950 . S
H1183 C1192 0.950 . S
H1184 C1194 0.950 . S
H1185 C1196 0.950 . S
H1186 C1198 0.950 . S
H1187 C1199 0.950 . S
C1188 H1180 0.950 . S
C1188 C1189 1.386 . S
C1188 C1190 1.391 . S
C1189 C1188 1.386 . S
C1189 C1193 1.393 . S
C1190 H1182 0.950 . S
C1190 C1188 1.391 . S
C1190 C1191 1.400 . S
C1191 C1190 1.400 . S
C1191 C1192 1.398 . S
C1191 C1197 1.491 . S
C1192 H1183 0.950 . S
C1192 C1191 1.398 . S
C1192 C1193 1.391 . S
C1193 H1181 0.950 . S
C1193 C1189 1.393 . S
C1193 C1192 1.391 . S
C1194 H1184 0.950 . S
C1194 C1195 1.386 . S
C1194 C1196 1.391 . S
C1195 C1194 1.386 . S
C1195 C1199 1.393 . S
C1196 H1185 0.950 . S
C1196 C1194 1.391 . S
C1196 C1197 1.400 . S
C1197 C1191 1.491 . S
C1197 C1196 1.400 . S
C1197 C1198 1.398 . S
C1198 H1186 0.950 . S
C1198 C1197 1.398 . S
C1198 C1199 1.391 . S
C1199 H1187 0.950 . S
C1199 C1195 1.393 . S
C1199 C1198 1.391 . S
H1200 C1208 0.950 . S
H1201 C1213 0.950 . S
H1202 C1210 0.950 . S
H1203 C1212 0.950 . S
H1204 C1214 0.950 . S
H1205 C1216 0.950 . S
H1206 C1218 0.950 . S
H1207 C1219 0.950 . S
C1208 H1200 0.950 . S
C1208 C1209 1.386 . S
C1208 C1210 1.391 . S
C1209 C1208 1.386 . S
C1209 C1213 1.393 . S
C1210 H1202 0.950 . S
C1210 C1208 1.391 . S
C1210 C1211 1.400 . S
C1211 C1210 1.400 . S
C1211 C1212 1.398 . S
C1211 C1217 1.491 . S
C1212 H1203 0.950 . S
C1212 C1211 1.398 . S
C1212 C1213 1.391 . S
C1213 H1201 0.950 . S
C1213 C1209 1.393 . S
C1213 C1212 1.391 . S
C1214 H1204 0.950 . S
C1214 C1215 1.386 . S
C1214 C1216 1.391 . S
C1215 C1214 1.386 . S
C1215 C1219 1.393 . S
C1216 H1205 0.950 . S
C1216 C1214 1.391 . S
C1216 C1217 1.400 . S
C1217 C1211 1.491 . S
C1217 C1216 1.400 . S
C1217 C1218 1.398 . S
C1218 H1206 0.950 . S
C1218 C1217 1.398 . S
C1218 C1219 1.391 . S
C1219 H1207 0.950 . S
C1219 C1215 1.393 . S
C1219 C1218 1.391 . S
H1220 C1228 0.950 . S
H1221 C1233 0.950 . S
H1222 C1230 0.950 . S
H1223 C1232 0.950 . S
H1224 C1234 0.950 . S
H1225 C1236 0.950 . S
H1226 C1238 0.950 . S
H1227 C1239 0.950 . S
C1228 H1220 0.950 . S
C1228 C1229 1.386 . S
C1228 C1230 1.391 . S
C1229 C1228 1.386 . S
C1229 C1233 1.393 . S
C1230 H1222 0.950 . S
C1230 C1228 1.391 . S
C1230 C1231 1.400 . S
C1231 C1230 1.400 . S
C1231 C1232 1.398 . S
C1231 C1237 1.491 . S
C1232 H1223 0.950 . S
C1232 C1231 1.398 . S
C1232 C1233 1.391 . S
C1233 H1221 0.950 . S
C1233 C1229 1.393 . S
C1233 C1232 1.391 . S
C1234 H1224 0.950 . S
C1234 C1235 1.386 . S
C1234 C1236 1.391 . S
C1235 C1234 1.386 . S
C1235 C1239 1.393 . S
C1236 H1225 0.950 . S
C1236 C1234 1.391 . S
C1236 C1237 1.400 . S
C1237 C1231 1.491 . S
C1237 C1236 1.400 . S
C1237 C1238 1.398 . S
C1238 H1226 0.950 . S
C1238 C1237 1.398 . S
C1238 C1239 1.391 . S
C1239 H1227 0.950 . S
C1239 C1235 1.393 . S
C1239 C1238 1.391 . S
H1240 C1248 0.950 . S
H1241 C1253 0.950 . S
H1242 C1250 0.950 . S
H1243 C1252 0.950 . S
H1244 C1254 0.950 . S
H1245 C1256 0.950 . S
H1246 C1258 0.950 . S
H1247 C1259 0.950 . S
C1248 H1240 0.950 . S
C1248 C1249 1.386 . S
C1248 C1250 1.391 . S
C1249 C1248 1.386 . S
C1249 C1253 1.393 . S
C1250 H1242 0.950 . S
C1250 C1248 1.391 . S
C1250 C1251 1.400 . S
C1251 C1250 1.400 . S
C1251 C1252 1.398 . S
C1251 C1257 1.491 . S
C1252 H1243 0.950 . S
C1252 C1251 1.398 . S
C1252 C1253 1.391 . S
C1253 H1241 0.950 . S
C1253 C1249 1.393 . S
C1253 C1252 1.391 . S
C1254 H1244 0.950 . S
C1254 C1255 1.386 . S
C1254 C1256 1.391 . S
C1255 C1254 1.386 . S
C1255 C1259 1.393 . S
C1256 H1245 0.950 . S
C1256 C1254 1.391 . S
C1256 C1257 1.400 . S
C1257 C1251 1.491 . S
C1257 C1256 1.400 . S
C1257 C1258 1.398 . S
C1258 H1246 0.950 . S
C1258 C1257 1.398 . S
C1258 C1259 1.391 . S
C1259 H1247 0.950 . S
C1259 C1255 1.393 . S
C1259 C1258 1.391 . S
H1260 C1268 0.950 . S
H1261 C1273 0.950 . S
H1262 C1270 0.950 . S
H1263 C1272 0.950 . S
H1264 C1274 0.950 . S
H1265 C1276 0.950 . S
H1266 C1278 0.950 . S
H1267 C1279 0.950 . S
C1268 H1260 0.950 . S
C1268 C1269 1.386 . S
C1268 C1270 1.391 . S
C1269 C1268 1.386 . S
C1269 C1273 1.393 . S
C1270 H1262 0.950 . S
C1270 C1268 1.391 . S
C1270 C1271 1.400 . S
C1271 C1270 1.400 . S
C1271 C1272 1.398 . S
C1271 C1277 1.491 . S
C1272 H1263 0.950 . S
C1272 C1271 1.398 . S
C1272 C1273 1.391 . S
C1273 H1261 0.950 . S
C1273 C1269 1.393 . S
C1273 C1272 1.391 . S
C1274 H1264 0.950 . S
C1274 C1275 1.386 . S
C1274 C1276 1.391 . S
C1275 C1274 1.386 . S
C1275 C1279 1.393 . S
C1276 H1265 0.950 . S
C1276 C1274 1.391 . S
C1276 C1277 1.400 . S
C1277 C1271 1.491 . S
C1277 C1276 1.400 . S
C1277 C1278 1.398 . S
C1278 H1266 0.950 . S
C1278 C1277 1.398 . S
C1278 C1279 1.391 . S
C1279 H1267 0.950 . S
C1279 C1275 1.393 . S
C1279 C1278 1.391 . S
H1280 C1288 0.950 . S
H1281 C1293 0.950 . S
H1282 C1290 0.950 . S
H1283 C1292 0.950 . S
H1284 C1294 0.950 . S
H1285 C1296 0.950 . S
H1286 C1298 0.950 . S
H1287 C1299 0.950 . S
C1288 H1280 0.950 . S
C1288 C1289 1.386 . S
C1288 C1290 1.391 . S
C1289 C1288 1.386 . S
C1289 C1293 1.393 . S
C1290 H1282 0.950 . S
C1290 C1288 1.391 . S
C1290 C1291 1.400 . S
C1291 C1290 1.400 . S
C1291 C1292 1.398 . S
C1291 C1297 1.491 . S
C1292 H1283 0.950 . S
C1292 C1291 1.398 . S
C1292 C1293 1.391 . S
C1293 H1281 0.950 . S
C1293 C1289 1.393 . S
C1293 C1292 1.391 . S
C1294 H1284 0.950 . S
C1294 C1295 1.386 . S
C1294 C1296 1.391 . S
C1295 C1294 1.386 . S
C1295 C1299 1.393 . S
C1296 H1285 0.950 . S
C1296 C1294 1.391 . S
C1296 C1297 1.400 . S
C1297 C1291 1.491 . S
C1297 C1296 1.400 . S
C1297 C1298 1.398 . S
C1298 H1286 0.950 . S
C1298 C1297 1.398 . S
C1298 C1299 1.391 . S
C1299 H1287 0.950 . S
C1299 C1295 1.393 . S
C1299 C1298 1.391 . S
H1300 C1308 0.950 . S
H1301 C1313 0.950 . S
H1302 C1310 0.950 . S
H1303 C1312 0.950 . S
H1304 C1314 0.950 . S
H1305 C1316 0.950 . S
H1306 C1318 0.950 . S
H1307 C1319 0.950 . S
C1308 H1300 0.950 . S
C1308 C1309 1.386 . S
C1308 C1310 1.391 . S
C1309 C1308 1.386 . S
C1309 C1313 1.393 . S
C1310 H1302 0.950 . S
C1310 C1308 1.391 . S
C1310 C1311 1.400 . S
C1311 C1310 1.400 . S
C1311 C1312 1.398 . S
C1311 C1317 1.491 . S
C1312 H1303 0.950 . S
C1312 C1311 1.398 . S
C1312 C1313 1.391 . S
C1313 H1301 0.950 . S
C1313 C1309 1.393 . S
C1313 C1312 1.391 . S
C1314 H1304 0.950 . S
C1314 C1315 1.386 . S
C1314 C1316 1.391 . S
C1315 C1314 1.386 . S
C1315 C1319 1.393 . S
C1316 H1305 0.950 . S
C1316 C1314 1.391 . S
C1316 C1317 1.400 . S
C1317 C1311 1.491 . S
C1317 C1316 1.400 . S
C1317 C1318 1.398 . S
C1318 H1306 0.950 . S
C1318 C1317 1.398 . S
C1318 C1319 1.391 . S
C1319 H1307 0.950 . S
C1319 C1315 1.393 . S
C1319 C1318 1.391 . S
H1320 C1328 0.950 . S
H1321 C1333 0.950 . S
H1322 C1330 0.950 . S
H1323 C1332 0.950 . S
H1324 C1334 0.950 . S
H1325 C1336 0.950 . S
H1326 C1338 0.950 . S
H1327 C1339 0.950 . S
C1328 H1320 0.950 . S
C1328 C1329 1.386 . S
C1328 C1330 1.391 . S
C1329 C1328 1.386 . S
C1329 C1333 1.393 . S
C1330 H1322 0.950 . S
C1330 C1328 1.391 . S
C1330 C1331 1.400 . S
C1331 C1330 1.400 . S
C1331 C1332 1.398 . S
C1331 C1337 1.491 . S
C1332 H1323 0.950 . S
C1332 C1331 1.398 . S
C1332 C1333 1.391 . S
C1333 H1321 0.950 . S
C1333 C1329 1.393 . S
C1333 C1332 1.391 . S
C1334 H1324 0.950 . S
C1334 C1335 1.386 . S
C1334 C1336 1.391 . S
C1335 C1334 1.386 . S
C1335 C1339 1.393 . S
C1336 H1325 0.950 . S
C1336 C1334 1.391 . S
C1336 C1337 1.400 . S
C1337 C1331 1.491 . S
C1337 C1336 1.400 . S
C1337 C1338 1.398 . S
C1338 H1326 0.950 . S
C1338 C1337 1.398 . S
C1338 C1339 1.391 . S
C1339 H1327 0.950 . S
C1339 C1335 1.393 . S
C1339 C1338 1.391 . S
H1340 C1348 0.950 . S
H1341 C1353 0.950 . S
H1342 C1350 0.950 . S
H1343 C1352 0.950 . S
H1344 C1354 0.950 . S
H1345 C1356 0.950 . S
H1346 C1358 0.950 . S
H1347 C1359 0.950 . S
C1348 H1340 0.950 . S
C1348 C1349 1.386 . S
C1348 C1350 1.391 . S
C1349 C1348 1.386 . S
C1349 C1353 1.393 . S
C1350 H1342 0.950 . S
C1350 C1348 1.391 . S
C1350 C1351 1.400 . S
C1351 C1350 1.400 . S
C1351 C1352 1.398 . S
C1351 C1357 1.491 . S
C1352 H1343 0.950 . S
C1352 C1351 1.398 . S
C1352 C1353 1.391 . S
C1353 H1341 0.950 . S
C1353 C1349 1.393 . S
C1353 C1352 1.391 . S
C1354 H1344 0.950 . S
C1354 C1355 1.386 . S
C1354 C1356 1.391 . S
C1355 C1354 1.386 . S
C1355 C1359 1.393 . S
C1356 H1345 0.950 . S
C1356 C1354 1.391 . S
C1356 C1357 1.400 . S
C1357 C1351 1.491 . S
C1357 C1356 1.400 . S
C1357 C1358 1.398 . S
C1358 H1346 0.950 . S
C1358 C1357 1.398 . S
C1358 C1359 1.391 . S
C1359 H1347 0.950 . S
C1359 C1355 1.393 . S
C1359 C1358 1.391 . S
H1360 C1368 0.950 . S
H1361 C1373 0.950 . S
H1362 C1370 0.950 . S
H1363 C1372 0.950 . S
H1364 C1374 0.950 . S
H1365 C1376 0.950 . S
H1366 C1378 0.950 . S
H1367 C1379 0.950 . S
C1368 H1360 0.950 . S
C1368 C1369 1.386 . S
C1368 C1370 1.391 . S
C1369 C1368 1.386 . S
C1369 C1373 1.393 . S
C1370 H1362 0.950 . S
C1370 C1368 1.391 . S
C1370 C1371 1.400 . S
C1371 C1370 1.400 . S
C1371 C1372 1.398 . S
C1371 C1377 1.491 . S
C1372 H1363 0.950 . S
C1372 C1371 1.398 . S
C1372 C1373 1.391 . S
C1373 H1361 0.950 . S
C1373 C1369 1.393 . S
C1373 C1372 1.391 . S
C1374 H1364 0.950 . S
C1374 C1375 1.386 . S
C1374 C1376 1.391 . S
C1375 C1374 1.386 . S
C1375 C1379 1.393 . S
C1376 H1365 0.950 . S
C1376 C1374 1.391 . S
C1376 C1377 1.400 . S
C1377 C1371 1.491 . S
C1377 C1376 1.400 . S
C1377 C1378 1.398 . S
C1378 H1366 0.950 . S
C1378 C1377 1.398 . S
C1378 C1379 1.391 . S
C1379 H1367 0.950 . S
C1379 C1375 1.393 . S
C1379 C1378 1.391 . S
H1380 C1388 0.950 . S
H1381 C1393 0.950 . S
H1382 C1390 0.950 . S
H1383 C1392 0.950 . S
H1384 C1394 0.950 . S
H1385 C1396 0.950 . S
H1386 C1398 0.950 . S
H1387 C1399 0.950 . S
C1388 H1380 0.950 . S
C1388 C1389 1.386 . S
C1388 C1390 1.391 . S
C1389 C1388 1.386 . S
C1389 C1393 1.393 . S
C1390 H1382 0.950 . S
C1390 C1388 1.391 . S
C1390 C1391 1.400 . S
C1391 C1390 1.400 . S
C1391 C1392 1.398 . S
C1391 C1397 1.491 . S
C1392 H1383 0.950 . S
C1392 C1391 1.398 . S
C1392 C1393 1.391 . S
C1393 H1381 0.950 . S
C1393 C1389 1.393 . S
C1393 C1392 1.391 . S
C1394 H1384 0.950 . S
C1394 C1395 1.386 . S
C1394 C1396 1.391 . S
C1395 C1394 1.386 . S
C1395 C1399 1.393 . S
C1396 H1385 0.950 . S
C1396 C1394 1.391 . S
C1396 C1397 1.400 . S
C1397 C1391 1.491 . S
C1397 C1396 1.400 . S
C1397 C1398 1.398 . S
C1398 H1386 0.950 . S
C1398 C1397 1.398 . S
C1398 C1399 1.391 . S
C1399 H1387 0.950 . S
C1399 C1395 1.393 . S
C1399 C1398 1.391 . S
H1400 C1408 0.950 . S
H1401 C1413 0.950 . S
H1402 C1410 0.950 . S
H1403 C1412 0.950 . S
H1404 C1414 0.950 . S
H1405 C1416 0.950 . S
H1406 C1418 0.950 . S
H1407 C1419 0.950 . S
C1408 H1400 0.950 . S
C1408 C1409 1.386 . S
C1408 C1410 1.391 . S
C1409 C1408 1.386 . S
C1409 C1413 1.393 . S
C1410 H1402 0.950 . S
C1410 C1408 1.391 . S
C1410 C1411 1.400 . S
C1411 C1410 1.400 . S
C1411 C1412 1.398 . S
C1411 C1417 1.491 . S
C1412 H1403 0.950 . S
C1412 C1411 1.398 . S
C1412 C1413 1.391 . S
C1413 H1401 0.950 . S
C1413 C1409 1.393 . S
C1413 C1412 1.391 . S
C1414 H1404 0.950 . S
C1414 C1415 1.386 . S
C1414 C1416 1.391 . S
C1415 C1414 1.386 . S
C1415 C1419 1.393 . S
C1416 H1405 0.950 . S
C1416 C1414 1.391 . S
C1416 C1417 1.400 . S
C1417 C1411 1.491 . S
C1417 C1416 1.400 . S
C1417 C1418 1.398 . S
C1418 H1406 0.950 . S
C1418 C1417 1.398 . S
C1418 C1419 1.391 . S
C1419 H1407 0.950 . S
C1419 C1415 1.393 . S
C1419 C1418 1.391 . S
H1420 C1428 0.950 . S
H1421 C1433 0.950 . S
H1422 C1430 0.950 . S
H1423 C1432 0.950 . S
H1424 C1434 0.950 . S
H1425 C1436 0.950 . S
H1426 C1438 0.950 . S
H1427 C1439 0.950 . S
C1428 H1420 0.950 . S
C1428 C1429 1.386 . S
C1428 C1430 1.391 . S
C1429 C1428 1.386 . S
C1429 C1433 1.393 . S
C1430 H1422 0.950 . S
C1430 C1428 1.391 . S
C1430 C1431 1.400 . S
C1431 C1430 1.400 . S
C1431 C1432 1.398 . S
C1431 C1437 1.491 . S
C1432 H1423 0.950 . S
C1432 C1431 1.398 . S
C1432 C1433 1.391 . S
C1433 H1421 0.950 . S
C1433 C1429 1.393 . S
C1433 C1432 1.391 . S
C1434 H1424 0.950 . S
C1434 C1435 1.386 . S
C1434 C1436 1.391 . S
C1435 C1434 1.386 . S
C1435 C1439 1.393 . S
C1436 H1425 0.950 . S
C1436 C1434 1.391 . S
C1436 C1437 1.400 . S
C1437 C1431 1.491 . S
C1437 C1436 1.400 . S
C1437 C1438 1.398 . S
C1438 H1426 0.950 . S
C1438 C1437 1.398 . S
C1438 C1439 1.391 . S
C1439 H1427 0.950 . S
C1439 C1435 1.393 . S
C1439 C1438 1.391 . S
H1440 C1448 0.950 . S
H1441 C1453 0.950 . S
H1442 C1450 0.950 . S
H1443 C1452 0.950 . S
H1444 C1454 0.950 . S
H1445 C1456 0.950 . S
H1446 C1458 0.950 . S
H1447 C1459 0.950 . S
C1448 H1440 0.950 . S
C1448 C1449 1.386 . S
C1448 C1450 1.391 . S
C1449 C1448 1.386 . S
C1449 C1453 1.393 . S
C1450 H1442 0.950 . S
C1450 C1448 1.391 . S
C1450 C1451 1.400 . S
C1451 C1450 1.400 . S
C1451 C1452 1.398 . S
C1451 C1457 1.491 . S
C1452 H1443 0.950 . S
C1452 C1451 1.398 . S
C1452 C1453 1.391 . S
C1453 H1441 0.950 . S
C1453 C1449 1.393 . S
C1453 C1452 1.391 . S
C1454 H1444 0.950 . S
C1454 C1455 1.386 . S
C1454 C1456 1.391 . S
C1455 C1454 1.386 . S
C1455 C1459 1.393 . S
C1456 H1445 0.950 . S
C1456 C1454 1.391 . S
C1456 C1457 1.400 . S
C1457 C1451 1.491 . S
C1457 C1456 1.400 . S
C1457 C1458 1.398 . S
C1458 H1446 0.950 . S
C1458 C1457 1.398 . S
C1458 C1459 1.391 . S
C1459 H1447 0.950 . S
C1459 C1455 1.393 . S
C1459 C1458 1.391 . S
H1460 C1468 0.950 . S
H1461 C1473 0.950 . S
H1462 C1470 0.950 . S
H1463 C1472 0.950 . S
H1464 C1474 0.950 . S
H1465 C1476 0.950 . S
H1466 C1478 0.950 . S
H1467 C1479 0.950 . S
C1468 H1460 0.950 . S
C1468 C1469 1.386 . S
C1468 C1470 1.391 . S
C1469 C1468 1.386 . S
C1469 C1473 1.393 . S
C1470 H1462 0.950 . S
C1470 C1468 1.391 . S
C1470 C1471 1.400 . S
C1471 C1470 1.400 . S
C1471 C1472 1.398 . S
C1471 C1477 1.491 . S
C1472 H1463 0.950 . S
C1472 C1471 1.398 . S
C1472 C1473 1.391 . S
C1473 H1461 0.950 . S
C1473 C1469 1.393 . S
C1473 C1472 1.391 . S
C1474 H1464 0.950 . S
C1474 C1475 1.386 . S
C1474 C1476 1.391 . S
C1475 C1474 1.386 . S
C1475 C1479 1.393 . S
C1476 H1465 0.950 . S
C1476 C1474 1.391 . S
C1476 C1477 1.400 . S
C1477 C1471 1.491 . S
C1477 C1476 1.400 . S
C1477 C1478 1.398 . S
C1478 H1466 0.950 . S
C1478 C1477 1.398 . S
C1478 C1479 1.391 . S
C1479 H1467 0.950 . S
C1479 C1475 1.393 . S
C1479 C1478 1.391 . S
H1480 C1488 0.950 . S
H1481 C1493 0.950 . S
H1482 C1490 0.950 . S
H1483 C1492 0.950 . S
H1484 C1494 0.950 . S
H1485 C1496 0.950 . S
H1486 C1498 0.950 . S
H1487 C1499 0.950 . S
C1488 H1480 0.950 . S
C1488 C1489 1.386 . S
C1488 C1490 1.391 . S
C1489 C1488 1.386 . S
C1489 C1493 1.393 . S
C1490 H1482 0.950 . S
C1490 C1488 1.391 . S
C1490 C1491 1.400 . S
C1491 C1490 1.400 . S
C1491 C1492 1.398 . S
C1491 C1497 1.491 . S
C1492 H1483 0.950 . S
C1492 C1491 1.398 . S
C1492 C1493 1.391 . S
C1493 H1481 0.950 . S
C1493 C1489 1.393 . S
C1493 C1492 1.391 . S
C1494 H1484 0.950 . S
C1494 C1495 1.386 . S
C1494 C1496 1.391 . S
C1495 C1494 1.386 . S
C1495 C1499 1.393 . S
C1496 H1485 0.950 . S
C1496 C1494 1.391 . S
C1496 C1497 1.400 . S
C1497 C1491 1.491 . S
C1497 C1496 1.400 . S
C1497 C1498 1.398 . S
C1498 H1486 0.950 . S
C1498 C1497 1.398 . S
C1498 C1499 1.391 . S
C1499 H1487 0.950 . S
C1499 C1495 1.393 . S
C1499 C1498 1.391 . S
H1500 C1508 0.950 . S
H1501 C1513 0.950 . S
H1502 C1510 0.950 . S
H1503 C1512 0.950 . S
H1504 C1514 0.950 . S
H1505 C1516 0.950 . S
H1506 C1518 0.950 . S
H1507 C1519 0.950 . S
C1508 H1500 0.950 . S
C1508 C1509 1.386 . S
C1508 C1510 1.391 . S
C1509 C1508 1.386 . S
C1509 C1513 1.393 . S
C1510 H1502 0.950 . S
C1510 C1508 1.391 . S
C1510 C1511 1.400 . S
C1511 C1510 1.400 . S
C1511 C1512 1.398 . S
C1511 C1517 1.491 . S
C1512 H1503 0.950 . S
C1512 C1511 1.398 . S
C1512 C1513 1.391 . S
C1513 H1501 0.950 . S
C1513 C1509 1.393 . S
C1513 C1512 1.391 . S
C1514 H1504 0.950 . S
C1514 C1515 1.386 . S
C1514 C1516 1.391 . S
C1515 C1514 1.386 . S
C1515 C1519 1.393 . S
C1516 H1505 0.950 . S
C1516 C1514 1.391 . S
C1516 C1517 1.400 . S
C1517 C1511 1.491 . S
C1517 C1516 1.400 . S
C1517 C1518 1.398 . S
C1518 H1506 0.950 . S
C1518 C1517 1.398 . S
C1518 C1519 1.391 . S
C1519 H1507 0.950 . S
C1519 C1515 1.393 . S
C1519 C1518 1.391 . S
H1520 C1528 0.950 . S
H1521 C1533 0.950 . S
H1522 C1530 0.950 . S
H1523 C1532 0.950 . S
H1524 C1534 0.950 . S
H1525 C1536 0.950 . S
H1526 C1538 0.950 . S
H1527 C1539 0.950 . S
C1528 H1520 0.950 . S
C1528 C1529 1.386 . S
C1528 C1530 1.391 . S
C1529 C1528 1.386 . S
C1529 C1533 1.393 . S
C1530 H1522 0.950 . S
C1530 C1528 1.391 . S
C1530 C1531 1.400 . S
C1531 C1530 1.400 . S
C1531 C1532 1.398 . S
C1531 C1537 1.491 . S
C1532 H1523 0.950 . S
C1532 C1531 1.398 . S
C1532 C1533 1.391 . S
C1533 H1521 0.950 . S
C1533 C1529 1.393 . S
C1533 C1532 1.391 . S
C1534 H1524 0.950 . S
C1534 C1535 1.386 . S
C1534 C1536 1.391 . S
C1535 C1534 1.386 . S
C1535 C1539 1.393 . S
C1536 H1525 0.950 . S
C1536 C1534 1.391 . S
C1536 C1537 1.400 . S
C1537 C1531 1.491 . S
C1537 C1536 1.400 . S
C1537 C1538 1.398 . S
C1538 H1526 0.950 . S
C1538 C1537 1.398 . S
C1538 C1539 1.391 . S
C1539 H1527 0.950 . S
C1539 C1535 1.393 . S
C1539 C1538 1.391 . S
H1540 C1548 0.950 . S
H1541 C1553 0.950 . S
H1542 C1550 0.950 . S
H1543 C1552 0.950 . S
H1544 C1554 0.950 . S
H1545 C1556 0.950 . S
H1546 C1558 0.950 . S
H1547 C1559 0.950 . S
C1548 H1540 0.950 . S
C1548 C1549 1.386 . S
C1548 C1550 1.391 . S
C1549 C1548 1.386 . S
C1549 C1553 1.393 . S
C1550 H1542 0.950 . S
C1550 C1548 1.391 . S
C1550 C1551 1.400 . S
C1551 C1550 1.400 . S
C1551 C1552 1.398 . S
C1551 C1557 1.491 . S
C1552 H1543 0.950 . S
C1552 C1551 1.398 . S
C1552 C1553 1.391 . S
C1553 H1541 0.950 . S
C1553 C1549 1.393 . S
C1553 C1552 1.391 . S
C1554 H1544 0.950 . S
C1554 C1555 1.386 . S
C1554 C1556 1.391 . S
C1555 C1554 1.386 . S
C1555 C1559 1.393 . S
C1556 H1545 0.950 . S
C1556 C1554 1.391 . S
C1556 C1557 1.400 . S
C1557 C1551 1.491 . S
C1557 C1556 1.400 . S
C1557 C1558 1.398 . S
C1558 H1546 0.950 . S
C1558 C1557 1.398 . S
C1558 C1559 1.391 . S
C1559 H1547 0.950 . S
C1559 C1555 1.393 . S
C1559 C1558 1.391 . S
H1560 C1568 0.950 . S
H1561 C1573 0.950 . S
H1562 C1570 0.950 . S
H1563 C1572 0.950 . S
H1564 C1574 0.950 . S
H1565 C1576 0.950 . S
H1566 C1578 0.950 . S
H1567 C1579 0.950 . S
C1568 H1560 0.950 . S
C1568 C1569 1.386 . S
C1568 C1570 1.391 . S
C1569 C1568 1.386 . S
C1569 C1573 1.393 . S
C1570 H1562 0.950 . S
C1570 C1568 1.391 . S
C1570 C1571 1.400 . S
C1571 C1570 1.400 . S
C1571 C1572 1.398 . S
C1571 C1577 1.491 . S
C1572 H1563 0.950 . S
C1572 C1571 1.398 . S
C1572 C1573 1.391 . S
C1573 H1561 0.950 . S
C1573 C1569 1.393 . S
C1573 C1572 1.391 . S
C1574 H1564 0.950 . S
C1574 C1575 1.386 . S
C1574 C1576 1.391 . S
C1575 C1574 1.386 . S
C1575 C1579 1.393 . S
C1576 H1565 0.950 . S
C1576 C1574 1.391 . S
C1576 C1577 1.400 . S
C1577 C1571 1.491 . S
C1577 C1576 1.400 . S
C1577 C1578 1.398 . S
C1578 H1566 0.950 . S
C1578 C1577 1.398 . S
C1578 C1579 1.391 . S
C1579 H1567 0.950 . S
C1579 C1575 1.393 . S
C1579 C1578 1.391 . S
H1580 C1588 0.950 . S
H1581 C1593 0.950 . S
H1582 C1590 0.950 . S
H1583 C1592 0.950 . S
H1584 C1594 0.950 . S
H1585 C1596 0.950 . S
H1586 C1598 0.950 . S
H1587 C1599 0.950 . S
C1588 H1580 0.950 . S
C1588 C1589 1.386 . S
C1588 C1590 1.391 . S
C1589 C1588 1.386 . S
C1589 C1593 1.393 . S
C1590 H1582 0.950 . S
C1590 C1588 1.391 . S
C1590 C1591 1.400 . S
C1591 C1590 1.400 . S
C1591 C1592 1.398 . S
C1591 C1597 1.491 . S
C1592 H1583 0.950 . S
C1592 C1591 1.398 . S
C1592 C1593 1.391 . S
C1593 H1581 0.950 . S
C1593 C1589 1.393 . S
C1593 C1592 1.391 . S
C1594 H1584 0.950 . S
C1594 C1595 1.386 . S
C1594 C1596 1.391 . S
C1595 C1594 1.386 . S
C1595 C1599 1.393 . S
C1596 H1585 0.950 . S
C1596 C1594 1.391 . S
C1596 C1597 1.400 . S
C1597 C1591 1.491 . S
C1597 C1596 1.400 . S
C1597 C1598 1.398 . S
C1598 H1586 0.950 . S
C1598 C1597 1.398 . S
C1598 C1599 1.391 . S
C1599 H1587 0.950 . S
C1599 C1595 1.393 . S
C1599 C1598 1.391 . S
H1600 C1608 0.950 . S
H1601 C1613 0.950 . S
H1602 C1610 0.950 . S
H1603 C1612 0.950 . S
H1604 C1614 0.950 . S
H1605 C1616 0.950 . S
H1606 C1618 0.950 . S
H1607 C1619 0.950 . S
C1608 H1600 0.950 . S
C1608 C1609 1.386 . S
C1608 C1610 1.391 . S
C1609 C1608 1.386 . S
C1609 C1613 1.393 . S
C1610 H1602 0.950 . S
C1610 C1608 1.391 . S
C1610 C1611 1.400 . S
C1611 C1610 1.400 . S
C1611 C1612 1.398 . S
C1611 C1617 1.491 . S
C1612 H1603 0.950 . S
C1612 C1611 1.398 . S
C1612 C1613 1.391 . S
C1613 H1601 0.950 . S
C1613 C1609 1.393 . S
C1613 C1612 1.391 . S
C1614 H1604 0.950 . S
C1614 C1615 1.386 . S
C1614 C1616 1.391 . S
C1615 C1614 1.386 . S
C1615 C1619 1.393 . S
C1616 H1605 0.950 . S
C1616 C1614 1.391 . S
C1616 C1617 1.400 . S
C1617 C1611 1.491 . S
C1617 C1616 1.400 . S
C1617 C1618 1.398 . S
C1618 H1606 0.950 . S
C1618 C1617 1.398 . S
C1618 C1619 1.391 . S
C1619 H1607 0.950 . S
C1619 C1615 1.393 . S
C1619 C1618 1.391 . S
H1620 C1628 0.950 . S
H1621 C1633 0.950 . S
H1622 C1630 0.950 . S
H1623 C1632 0.950 . S
H1624 C1634 0.950 . S
H1625 C1636 0.950 . S
H1626 C1638 0.950 . S
H1627 C1639 0.950 . S
C1628 H1620 0.950 . S
C1628 C1629 1.386 . S
C1628 C1630 1.391 . S
C1629 C1628 1.386 . S
C1629 C1633 1.393 . S
C1630 H1622 0.950 . S
C1630 C1628 1.391 . S
C1630 C1631 1.400 . S
C1631 C1630 1.400 . S
C1631 C1632 1.398 . S
C1631 C1637 1.491 . S
C1632 H1623 0.950 . S
C1632 C1631 1.398 . S
C1632 C1633 1.391 . S
C1633 H1621 0.950 . S
C1633 C1629 1.393 . S
C1633 C1632 1.391 . S
C1634 H1624 0.950 . S
C1634 C1635 1.386 . S
C1634 C1636 1.391 . S
C1635 C1634 1.386 . S
C1635 C1639 1.393 . S
C1636 H1625 0.950 . S
C1636 C1634 1.391 . S
C1636 C1637 1.400 . S
C1637 C1631 1.491 . S
C1637 C1636 1.400 . S
C1637 C1638 1.398 . S
C1638 H1626 0.950 . S
C1638 C1637 1.398 . S
C1638 C1639 1.391 . S
C1639 H1627 0.950 . S
C1639 C1635 1.393 . S
C1639 C1638 1.391 . S
H1640 C1648 0.950 . S
H1641 C1653 0.950 . S
H1642 C1650 0.950 . S
H1643 C1652 0.950 . S
H1644 C1654 0.950 . S
H1645 C1656 0.950 . S
H1646 C1658 0.950 . S
H1647 C1659 0.950 . S
C1648 H1640 0.950 . S
C1648 C1649 1.386 . S
C1648 C1650 1.391 . S
C1649 C1648 1.386 . S
C1649 C1653 1.393 . S
C1650 H1642 0.950 . S
C1650 C1648 1.391 . S
C1650 C1651 1.400 . S
C1651 C1650 1.400 . S
C1651 C1652 1.398 . S
C1651 C1657 1.491 . S
C1652 H1643 0.950 . S
C1652 C1651 1.398 . S
C1652 C1653 1.391 . S
C1653 H1641 0.950 . S
C1653 C1649 1.393 . S
C1653 C1652 1.391 . S
C1654 H1644 0.950 . S
C1654 C1655 1.386 . S
C1654 C1656 1.391 . S
C1655 C1654 1.386 . S
C1655 C1659 1.393 . S
C1656 H1645 0.950 . S
C1656 C1654 1.391 . S
C1656 C1657 1.400 . S
C1657 C1651 1.491 . S
C1657 C1656 1.400 . S
C1657 C1658 1.398 . S
C1658 H1646 0.950 . S
C1658 C1657 1.398 . S
C1658 C1659 1.391 . S
C1659 H1647 0.950 . S
C1659 C1655 1.393 . S
C1659 C1658 1.391 . S
H1660 C1668 0.950 . S
H1661 C1673 0.950 . S
H1662 C1670 0.950 . S
H1663 C1672 0.950 . S
H1664 C1674 0.950 . S
H1665 C1676 0.950 . S
H1666 C1678 0.950 . S
H1667 C1679 0.950 . S
C1668 H1660 0.950 . S
C1668 C1669 1.386 . S
C1668 C1670 1.391 . S
C1669 C1668 1.386 . S
C1669 C1673 1.393 . S
C1670 H1662 0.950 . S
C1670 C1668 1.391 . S
C1670 C1671 1.400 . S
C1671 C1670 1.400 . S
C1671 C1672 1.398 . S
C1671 C1677 1.491 . S
C1672 H1663 0.950 . S
C1672 C1671 1.398 . S
C1672 C1673 1.391 . S
C1673 H1661 0.950 . S
C1673 C1669 1.393 . S
C1673 C1672 1.391 . S
C1674 H1664 0.950 . S
C1674 C1675 1.386 . S
C1674 C1676 1.391 . S
C1675 C1674 1.386 . S
C1675 C1679 1.393 . S
C1676 H1665 0.950 . S
C1676 C1674 1.391 . S
C1676 C1677 1.400 . S
C1677 C1671 1.491 . S
C1677 C1676 1.400 . S
C1677 C1678 1.398 . S
C1678 H1666 0.950 . S
C1678 C1677 1.398 . S
C1678 C1679 1.391 . S
C1679 H1667 0.950 . S
C1679 C1675 1.393 . S
C1679 C1678 1.391 . S
H1680 C1688 0.950 . S
H1681 C1693 0.950 . S
H1682 C1690 0.950 . S
H1683 C1692 0.950 . S
H1684 C1694 0.950 . S
H1685 C1696 0.950 . S
H1686 C1698 0.950 . S
H1687 C1699 0.950 . S
C1688 H1680 0.950 . S
C1688 C1689 1.386 . S
C1688 C1690 1.391 . S
C1689 C1688 1.386 . S
C1689 C1693 1.393 . S
C1690 H1682 0.950 . S
C1690 C1688 1.391 . S
C1690 C1691 1.400 . S
C1691 C1690 1.400 . S
C1691 C1692 1.398 . S
C1691 C1697 1.491 . S
C1692 H1683 0.950 . S
C1692 C1691 1.398 . S
C1692 C1693 1.391 . S
C1693 H1681 0.950 . S
C1693 C1689 1.393 . S
C1693 C1692 1.391 . S
C1694 H1684 0.950 . S
C1694 C1695 1.386 . S
C1694 C1696 1.391 . S
C1695 C1694 1.386 . S
C1695 C1699 1.393 . S
C1696 H1685 0.950 . S
C1696 C1694 1.391 . S
C1696 C1697 1.400 . S
C1697 C1691 1.491 . S
C1697 C1696 1.400 . S
C1697 C1698 1.398 . S
C1698 H1686 0.950 . S
C1698 C1697 1.398 . S
C1698 C1699 1.391 . S
C1699 H1687 0.950 . S
C1699 C1695 1.393 . S
C1699 C1698 1.391 . S
H1700 C1708 0.950 . S
H1701 C1713 0.950 . S
H1702 C1710 0.950 . S
H1703 C1712 0.950 . S
H1704 C1714 0.950 . S
H1705 C1716 0.950 . S
H1706 C1718 0.950 . S
H1707 C1719 0.950 . S
C1708 H1700 0.950 . S
C1708 C1709 1.386 . S
C1708 C1710 1.391 . S
C1709 C1708 1.386 . S
C1709 C1713 1.393 . S
C1710 H1702 0.950 . S
C1710 C1708 1.391 . S
C1710 C1711 1.400 . S
C1711 C1710 1.400 . S
C1711 C1712 1.398 . S
C1711 C1717 1.491 . S
C1712 H1703 0.950 . S
C1712 C1711 1.398 . S
C1712 C1713 1.391 . S
C1713 H1701 0.950 . S
C1713 C1709 1.393 . S
C1713 C1712 1.391 . S
C1714 H1704 0.950 . S
C1714 C1715 1.386 . S
C1714 C1716 1.391 . S
C1715 C1714 1.386 . S
C1715 C1719 1.393 . S
C1716 H1705 0.950 . S
C1716 C1714 1.391 . S
C1716 C1717 1.400 . S
C1717 C1711 1.491 . S
C1717 C1716 1.400 . S
C1717 C1718 1.398 . S
C1718 H1706 0.950 . S
C1718 C1717 1.398 . S
C1718 C1719 1.391 . S
C1719 H1707 0.950 . S
C1719 C1715 1.393 . S
C1719 C1718 1.391 . S
H1720 C1728 0.950 . S
H1721 C1733 0.950 . S
H1722 C1730 0.950 . S
H1723 C1732 0.950 . S
H1724 C1734 0.950 . S
H1725 C1736 0.950 . S
H1726 C1738 0.950 . S
H1727 C1739 0.950 . S
C1728 H1720 0.950 . S
C1728 C1729 1.386 . S
C1728 C1730 1.391 . S
C1729 C1728 1.386 . S
C1729 C1733 1.393 . S
C1730 H1722 0.950 . S
C1730 C1728 1.391 . S
C1730 C1731 1.400 . S
C1731 C1730 1.400 . S
C1731 C1732 1.398 . S
C1731 C1737 1.491 . S
C1732 H1723 0.950 . S
C1732 C1731 1.398 . S
C1732 C1733 1.391 . S
C1733 H1721 0.950 . S
C1733 C1729 1.393 . S
C1733 C1732 1.391 . S
C1734 H1724 0.950 . S
C1734 C1735 1.386 . S
C1734 C1736 1.391 . S
C1735 C1734 1.386 . S
C1735 C1739 1.393 . S
C1736 H1725 0.950 . S
C1736 C1734 1.391 . S
C1736 C1737 1.400 . S
C1737 C1731 1.491 . S
C1737 C1736 1.400 . S
C1737 C1738 1.398 . S
C1738 H1726 0.950 . S
C1738 C1737 1.398 . S
C1738 C1739 1.391 . S
C1739 H1727 0.950 . S
C1739 C1735 1.393 . S
C1739 C1738 1.391 . S
H1740 C1748 0.950 . S
H1741 C1753 0.950 . S
H1742 C1750 0.950 . S
H1743 C1752 0.950 . S
H1744 C1754 0.950 . S
H1745 C1756 0.950 . S
H1746 C1758 0.950 . S
H1747 C1759 0.950 . S
C1748 H1740 0.950 . S
C1748 C1749 1.386 . S
C1748 C1750 1.391 . S
C1749 C1748 1.386 . S
C1749 C1753 1.393 . S
C1750 H1742 0.950 . S
C1750 C1748 1.391 . S
C1750 C1751 1.400 . S
C1751 C1750 1.400 . S
C1751 C1752 1.398 . S
C1751 C1757 1.491 . S
C1752 H1743 0.950 . S
C1752 C1751 1.398 . S
C1752 C1753 1.391 . S
C1753 H1741 0.950 . S
C1753 C1749 1.393 . S
C1753 C1752 1.391 . S
C1754 H1744 0.950 . S
C1754 C1755 1.386 . S
C1754 C1756 1.391 . S
C1755 C1754 1.386 . S
C1755 C1759 1.393 . S
C1756 H1745 0.950 . S
C1756 C1754 1.391 . S
C1756 C1757 1.400 . S
C1757 C1751 1.491 . S
C1757 C1756 1.400 . S
C1757 C1758 1.398 . S
C1758 H1746 0.950 . S
C1758 C1757 1.398 . S
C1758 C1759 1.391 . S
C1759 H1747 0.950 . S
C1759 C1755 1.393 . S
C1759 C1758 1.391 . S
H1760 C1768 0.950 . S
H1761 C1773 0.950 . S
H1762 C1770 0.950 . S
H1763 C1772 0.950 . S
H1764 C1774 0.950 . S
H1765 C1776 0.950 . S
H1766 C1778 0.950 . S
H1767 C1779 0.950 . S
C1768 H1760 0.950 . S
C1768 C1769 1.386 . S
C1768 C1770 1.391 . S
C1769 C1768 1.386 . S
C1769 C1773 1.393 . S
C1770 H1762 0.950 . S
C1770 C1768 1.391 . S
C1770 C1771 1.400 . S
C1771 C1770 1.400 . S
C1771 C1772 1.398 . S
C1771 C1777 1.491 . S
C1772 H1763 0.950 . S
C1772 C1771 1.398 . S
C1772 C1773 1.391 . S
C1773 H1761 0.950 . S
C1773 C1769 1.393 . S
C1773 C1772 1.391 . S
C1774 H1764 0.950 . S
C1774 C1775 1.386 . S
C1774 C1776 1.391 . S
C1775 C1774 1.386 . S
C1775 C1779 1.393 . S
C1776 H1765 0.950 . S
C1776 C1774 1.391 . S
C1776 C1777 1.400 . S
C1777 C1771 1.491 . S
C1777 C1776 1.400 . S
C1777 C1778 1.398 . S
C1778 H1766 0.950 . S
C1778 C1777 1.398 . S
C1778 C1779 1.391 . S
C1779 H1767 0.950 . S
C1779 C1775 1.393 . S
C1779 C1778 1.391 . S
H1780 C1788 0.950 . S
H1781 C1793 0.950 . S
H1782 C1790 0.950 . S
H1783 C1792 0.950 . S
H1784 C1794 0.950 . S
H1785 C1796 0.950 . S
H1786 C1798 0.950 . S
H1787 C1799 0.950 . S
C1788 H1780 0.950 . S
C1788 C1789 1.386 . S
C1788 C1790 1.391 . S
C1789 C1788 1.386 . S
C1789 C1793 1.393 . S
C1790 H1782 0.950 . S
C1790 C1788 1.391 . S
C1790 C1791 1.400 . S
C1791 C1790 1.400 . S
C1791 C1792 1.398 . S
C1791 C1797 1.491 . S
C1792 H1783 0.950 . S
C1792 C1791 1.398 . S
C1792 C1793 1.391 . S
C1793 H1781 0.950 . S
C1793 C1789 1.393 . S
C1793 C1792 1.391 . S
C1794 H1784 0.950 . S
C1794 C1795 1.386 . S
C1794 C1796 1.391 . S
C1795 C1794 1.386 . S
C1795 C1799 1.393 . S
C1796 H1785 0.950 . S
C1796 C1794 1.391 . S
C1796 C1797 1.400 . S
C1797 C1791 1.491 . S
C1797 C1796 1.400 . S
C1797 C1798 1.398 . S
C1798 H1786 0.950 . S
C1798 C1797 1.398 . S
C1798 C1799 1.391 . S
C1799 H1787 0.950 . S
C1799 C1795 1.393 . S
C1799 C1798 1.391 . S
H1800 C1808 0.950 . S
H1801 C1813 0.950 . S
H1802 C1810 0.950 . S
H1803 C1812 0.950 . S
H1804 C1814 0.950 . S
H1805 C1816 0.950 . S
H1806 C1818 0.950 . S
H1807 C1819 0.950 . S
C1808 H1800 0.950 . S
C1808 C1809 1.386 . S
C1808 C1810 1.391 . S
C1809 C1808 1.386 . S
C1809 C1813 1.393 . S
C1810 H1802 0.950 . S
C1810 C1808 1.391 . S
C1810 C1811 1.400 . S
C1811 C1810 1.400 . S
C1811 C1812 1.398 . S
C1811 C1817 1.491 . S
C1812 H1803 0.950 . S
C1812 C1811 1.398 . S
C1812 C1813 1.391 . S
C1813 H1801 0.950 . S
C1813 C1809 1.393 . S
C1813 C1812 1.391 . S
C1814 H1804 0.950 . S
C1814 C1815 1.386 . S
C1814 C1816 1.391 . S
C1815 C1814 1.386 . S
C1815 C1819 1.393 . S
C1816 H1805 0.950 . S
C1816 C1814 1.391 . S
C1816 C1817 1.400 . S
C1817 C1811 1.491 . S
C1817 C1816 1.400 . S
C1817 C1818 1.398 . S
C1818 H1806 0.950 . S
C1818 C1817 1.398 . S
C1818 C1819 1.391 . S
C1819 H1807 0.950 . S
C1819 C1815 1.393 . S
C1819 C1818 1.391 . S
H1820 C1828 0.950 . S
H1821 C1833 0.950 . S
H1822 C1830 0.950 . S
H1823 C1832 0.950 . S
H1824 C1834 0.950 . S
H1825 C1836 0.950 . S
H1826 C1838 0.950 . S
H1827 C1839 0.950 . S
C1828 H1820 0.950 . S
C1828 C1829 1.386 . S
C1828 C1830 1.391 . S
C1829 C1828 1.386 . S
C1829 C1833 1.393 . S
C1830 H1822 0.950 . S
C1830 C1828 1.391 . S
C1830 C1831 1.400 . S
C1831 C1830 1.400 . S
C1831 C1832 1.398 . S
C1831 C1837 1.491 . S
C1832 H1823 0.950 . S
C1832 C1831 1.398 . S
C1832 C1833 1.391 . S
C1833 H1821 0.950 . S
C1833 C1829 1.393 . S
C1833 C1832 1.391 . S
C1834 H1824 0.950 . S
C1834 C1835 1.386 . S
C1834 C1836 1.391 . S
C1835 C1834 1.386 . S
C1835 C1839 1.393 . S
C1836 H1825 0.950 . S
C1836 C1834 1.391 . S
C1836 C1837 1.400 . S
C1837 C1831 1.491 . S
C1837 C1836 1.400 . S
C1837 C1838 1.398 . S
C1838 H1826 0.950 . S
C1838 C1837 1.398 . S
C1838 C1839 1.391 . S
C1839 H1827 0.950 . S
C1839 C1835 1.393 . S
C1839 C1838 1.391 . S
H1840 C1848 0.950 . S
H1841 C1853 0.950 . S
H1842 C1850 0.950 . S
H1843 C1852 0.950 . S
H1844 C1854 0.950 . S
H1845 C1856 0.950 . S
H1846 C1858 0.950 . S
H1847 C1859 0.950 . S
C1848 H1840 0.950 . S
C1848 C1849 1.386 . S
C1848 C1850 1.391 . S
C1849 C1848 1.386 . S
C1849 C1853 1.393 . S
C1850 H1842 0.950 . S
C1850 C1848 1.391 . S
C1850 C1851 1.400 . S
C1851 C1850 1.400 . S
C1851 C1852 1.398 . S
C1851 C1857 1.491 . S
C1852 H1843 0.950 . S
C1852 C1851 1.398 . S
C1852 C1853 1.391 . S
C1853 H1841 0.950 . S
C1853 C1849 1.393 . S
C1853 C1852 1.391 . S
C1854 H1844 0.950 . S
C1854 C1855 1.386 . S
C1854 C1856 1.391 . S
C1855 C1854 1.386 . S
C1855 C1859 1.393 . S
C1856 H1845 0.950 . S
C1856 C1854 1.391 . S
C1856 C1857 1.400 . S
C1857 C1851 1.491 . S
C1857 C1856 1.400 . S
C1857 C1858 1.398 . S
C1858 H1846 0.950 . S
C1858 C1857 1.398 . S
C1858 C1859 1.391 . S
C1859 H1847 0.950 . S
C1859 C1855 1.393 . S
C1859 C1858 1.391 . S
H1860 C1868 0.950 . S
H1861 C1873 0.950 . S
H1862 C1870 0.950 . S
H1863 C1872 0.950 . S
H1864 C1874 0.950 . S
H1865 C1876 0.950 . S
H1866 C1878 0.950 . S
H1867 C1879 0.950 . S
C1868 H1860 0.950 . S
C1868 C1869 1.386 . S
C1868 C1870 1.391 . S
C1869 C1868 1.386 . S
C1869 C1873 1.393 . S
C1870 H1862 0.950 . S
C1870 C1868 1.391 . S
C1870 C1871 1.400 . S
C1871 C1870 1.400 . S
C1871 C1872 1.398 . S
C1871 C1877 1.491 . S
C1872 H1863 0.950 . S
C1872 C1871 1.398 . S
C1872 C1873 1.391 . S
C1873 H1861 0.950 . S
C1873 C1869 1.393 . S
C1873 C1872 1.391 . S
C1874 H1864 0.950 . S
C1874 C1875 1.386 . S
C1874 C1876 1.391 . S
C1875 C1874 1.386 . S
C1875 C1879 1.393 . S
C1876 H1865 0.950 . S
C1876 C1874 1.391 . S
C1876 C1877 1.400 . S
C1877 C1871 1.491 . S
C1877 C1876 1.400 . S
C1877 C1878 1.398 . S
C1878 H1866 0.950 . S
C1878 C1877 1.398 . S
C1878 C1879 1.391 . S
C1879 H1867 0.950 . S
C1879 C1875 1.393 . S
C1879 C1878 1.391 . S
H1880 C1888 0.950 . S
H1881 C1893 0.950 . S
H1882 C1890 0.950 . S
H1883 C1892 0.950 . S
H1884 C1894 0.950 . S
H1885 C1896 0.950 . S
H1886 C1898 0.950 . S
H1887 C1899 0.950 . S
C1888 H1880 0.950 . S
C1888 C1889 1.386 . S
C1888 C1890 1.391 . S
C1889 C1888 1.386 . S
C1889 C1893 1.393 . S
C1890 H1882 0.950 . S
C1890 C1888 1.391 . S
C1890 C1891 1.400 . S
C1891 C1890 1.400 . S
C1891 C1892 1.398 . S
C1891 C1897 1.491 . S
C1892 H1883 0.950 . S
C1892 C1891 1.398 . S
C1892 C1893 1.391 . S
C1893 H1881 0.950 . S
C1893 C1889 1.393 . S
C1893 C1892 1.391 . S
C1894 H1884 0.950 . S
C1894 C1895 1.386 . S
C1894 C1896 1.391 . S
C1895 C1894 1.386 . S
C1895 C1899 1.393 . S
C1896 H1885 0.950 . S
C1896 C1894 1.391 . S
C1896 C1897 1.400 . S
C1897 C1891 1.491 . S
C1897 C1896 1.400 . S
C1897 C1898 1.398 . S
C1898 H1886 0.950 . S
C1898 C1897 1.398 . S
C1898 C1899 1.391 . S
C1899 H1887 0.950 . S
C1899 C1895 1.393 . S
C1899 C1898 1.391 . S
H1900 C1908 0.950 . S
H1901 C1913 0.950 . S
H1902 C1910 0.950 . S
H1903 C1912 0.950 . S
H1904 C1914 0.950 . S
H1905 C1916 0.950 . S
H1906 C1918 0.950 . S
H1907 C1919 0.950 . S
C1908 H1900 0.950 . S
C1908 C1909 1.386 . S
C1908 C1910 1.391 . S
C1909 C1908 1.386 . S
C1909 C1913 1.393 . S
C1910 H1902 0.950 . S
C1910 C1908 1.391 . S
C1910 C1911 1.400 . S
C1911 C1910 1.400 . S
C1911 C1912 1.398 . S
C1911 C1917 1.491 . S
C1912 H1903 0.950 . S
C1912 C1911 1.398 . S
C1912 C1913 1.391 . S
C1913 H1901 0.950 . S
C1913 C1909 1.393 . S
C1913 C1912 1.391 . S
C1914 H1904 0.950 . S
C1914 C1915 1.386 . S
C1914 C1916 1.391 . S
C1915 C1914 1.386 . S
C1915 C1919 1.393 . S
C1916 H1905 0.950 . S
C1916 C1914 1.391 . S
C1916 C1917 1.400 . S
C1917 C1911 1.491 . S
C1917 C1916 1.400 . S
C1917 C1918 1.398 . S
C1918 H1906 0.950 . S
C1918 C1917 1.398 . S
C1918 C1919 1.391 . S
C1919 H1907 0.950 . S
C1919 C1915 1.393 . S
C1919 C1918 1.391 . S
H1920 C1928 0.950 . S
H1921 C1933 0.950 . S
H1922 C1930 0.950 . S
H1923 C1932 0.950 . S
H1924 C1934 0.950 . S
H1925 C1936 0.950 . S
H1926 C1938 0.950 . S
H1927 C1939 0.950 . S
C1928 H1920 0.950 . S
C1928 C1929 1.386 . S
C1928 C1930 1.391 . S
C1929 C1928 1.386 . S
C1929 C1933 1.393 . S
C1930 H1922 0.950 . S
C1930 C1928 1.391 . S
C1930 C1931 1.400 . S
C1931 C1930 1.400 . S
C1931 C1932 1.398 . S
C1931 C1937 1.491 . S
C1932 H1923 0.950 . S
C1932 C1931 1.398 . S
C1932 C1933 1.391 . S
C1933 H1921 0.950 . S
C1933 C1929 1.393 . S
C1933 C1932 1.391 . S
C1934 H1924 0.950 . S
C1934 C1935 1.386 . S
C1934 C1936 1.391 . S
C1935 C1934 1.386 . S
C1935 C1939 1.393 . S
C1936 H1925 0.950 . S
C1936 C1934 1.391 . S
C1936 C1937 1.400 . S
C1937 C1931 1.491 . S
C1937 C1936 1.400 . S
C1937 C1938 1.398 . S
C1938 H1926 0.950 . S
C1938 C1937 1.398 . S
C1938 C1939 1.391 . S
C1939 H1927 0.950 . S
C1939 C1935 1.393 . S
C1939 C1938 1.391 . S
H1940 C1948 0.950 . S
H1941 C1953 0.950 . S
H1942 C1950 0.950 . S
H1943 C1952 0.950 . S
H1944 C1954 0.950 . S
H1945 C1956 0.950 . S
H1946 C1958 0.950 . S
H1947 C1959 0.950 . S
C1948 H1940 0.950 . S
C1948 C1949 1.386 . S
C1948 C1950 1.391 . S
C1949 C1948 1.386 . S
C1949 C1953 1.393 . S
C1950 H1942 0.950 . S
C1950 C1948 1.391 . S
C1950 C1951 1.400 . S
C1951 C1950 1.400 . S
C1951 C1952 1.398 . S
C1951 C1957 1.491 . S
C1952 H1943 0.950 . S
C1952 C1951 1.398 . S
C1952 C1953 1.391 . S
C1953 H1941 0.950 . S
C1953 C1949 1.393 . S
C1953 C1952 1.391 . S
C1954 H1944 0.950 . S
C1954 C1955 1.386 . S
C1954 C1956 1.391 . S
C1955 C1954 1.386 . S
C1955 C1959 1.393 . S
C1956 H1945 0.950 . S
C1956 C1954 1.391 . S
C1956 C1957 1.400 . S
C1957 C1951 1.491 . S
C1957 C1956 1.400 . S
C1957 C1958 1.398 . S
C1958 H1946 0.950 . S
C1958 C1957 1.398 . S
C1958 C1959 1.391 . S
C1959 H1947 0.950 . S
C1959 C1955 1.393 . S
C1959 C1958 1.391 . S
H1960 C1968 0.950 . S
H1961 C1973 0.950 . S
H1962 C1970 0.950 . S
H1963 C1972 0.950 . S
H1964 C1974 0.950 . S
H1965 C1976 0.950 . S
H1966 C1978 0.950 . S
H1967 C1979 0.950 . S
C1968 H1960 0.950 . S
C1968 C1969 1.386 . S
C1968 C1970 1.391 . S
C1969 C1968 1.386 . S
C1969 C1973 1.393 . S
C1970 H1962 0.950 . S
C1970 C1968 1.391 . S
C1970 C1971 1.400 . S
C1971 C1970 1.400 . S
C1971 C1972 1.398 . S
C1971 C1977 1.491 . S
C1972 H1963 0.950 . S
C1972 C1971 1.398 . S
C1972 C1973 1.391 . S
C1973 H1961 0.950 . S
C1973 C1969 1.393 . S
C1973 C1972 1.391 . S
C1974 H1964 0.950 . S
C1974 C1975 1.386 . S
C1974 C1976 1.391 . S
C1975 C1974 1.386 . S
C1975 C1979 1.393 . S
C1976 H1965 0.950 . S
C1976 C1974 1.391 . S
C1976 C1977 1.400 . S
C1977 C1971 1.491 . S
C1977 C1976 1.400 . S
C1977 C1978 1.398 . S
C1978 H1966 0.950 . S
C1978 C1977 1.398 . S
C1978 C1979 1.391 . S
C1979 H1967 0.950 . S
C1979 C1975 1.393 . S
C1979 C1978 1.391 . S
H1980 C1988 0.950 . S
H1981 C1993 0.950 . S
H1982 C1990 0.950 . S
H1983 C1992 0.950 . S
H1984 C1994 0.950 . S
H1985 C1996 0.950 . S
H1986 C1998 0.950 . S
H1987 C1999 0.950 . S
C1988 H1980 0.950 . S
C1988 C1989 1.386 . S
C1988 C1990 1.391 . S
C1989 C1988 1.386 . S
C1989 C1993 1.393 . S
C1990 H1982 0.950 . S
C1990 C1988 1.391 . S
C1990 C1991 1.400 . S
C1991 C1990 1.400 . S
C1991 C1992 1.398 . S
C1991 C1997 1.491 . S
C1992 H1983 0.950 . S
C1992 C1991 1.398 . S
C1992 C1993 1.391 . S
C1993 H1981 0.950 . S
C1993 C1989 1.393 . S
C1993 C1992 1.391 . S
C1994 H1984 0.950 . S
C1994 C1995 1.386 . S
C1994 C1996 1.391 . S
C1995 C1994 1.386 . S
C1995 C1999 1.393 . S
C1996 H1985 0.950 . S
C1996 C1994 1.391 . S
C1996 C1997 1.400 . S
C1997 C1991 1.491 . S
C1997 C1996 1.400 . S
C1997 C1998 1.398 . S
C1998 H1986 0.950 . S
C1998 C1997 1.398 . S
C1998 C1999 1.391 . S
C1999 H1987 0.950 . S
C1999 C1995 1.393 . S
C1999 C1998 1.391 . S
H2000 C2008 0.950 . S
H2001 C2013 0.950 . S
H2002 C2010 0.950 . S
H2003 C2012 0.950 . S
H2004 C2014 0.950 . S
H2005 C2016 0.950 . S
H2006 C2018 0.950 . S
H2007 C2019 0.950 . S
C2008 H2000 0.950 . S
C2008 C2009 1.386 . S
C2008 C2010 1.391 . S
C2009 C2008 1.386 . S
C2009 C2013 1.393 . S
C2010 H2002 0.950 . S
C2010 C2008 1.391 . S
C2010 C2011 1.400 . S
C2011 C2010 1.400 . S
C2011 C2012 1.398 . S
C2011 C2017 1.491 . S
C2012 H2003 0.950 . S
C2012 C2011 1.398 . S
C2012 C2013 1.391 . S
C2013 H2001 0.950 . S
C2013 C2009 1.393 . S
C2013 C2012 1.391 . S
C2014 H2004 0.950 . S
C2014 C2015 1.386 . S
C2014 C2016 1.391 . S
C2015 C2014 1.386 . S
C2015 C2019 1.393 . S
C2016 H2005 0.950 . S
C2016 C2014 1.391 . S
C2016 C2017 1.400 . S
C2017 C2011 1.491 . S
C2017 C2016 1.400 . S
C2017 C2018 1.398 . S
C2018 H2006 0.950 . S
C2018 C2017 1.398 . S
C2018 C2019 1.391 . S
C2019 H2007 0.950 . S
C2019 C2015 1.393 . S
C2019 C2018 1.391 . S
H2020 C2028 0.950 . S
H2021 C2033 0.950 . S
H2022 C2030 0.950 . S
H2023 C2032 0.950 . S
H2024 C2034 0.950 . S
H2025 C2036 0.950 . S
H2026 C2038 0.950 . S
H2027 C2039 0.950 . S
C2028 H2020 0.950 . S
C2028 C2029 1.386 . S
C2028 C2030 1.391 . S
C2029 C2028 1.386 . S
C2029 C2033 1.393 . S
C2030 H2022 0.950 . S
C2030 C2028 1.391 . S
C2030 C2031 1.400 . S
C2031 C2030 1.400 . S
C2031 C2032 1.398 . S
C2031 C2037 1.491 . S
C2032 H2023 0.950 . S
C2032 C2031 1.398 . S
C2032 C2033 1.391 . S
C2033 H2021 0.950 . S
C2033 C2029 1.393 . S
C2033 C2032 1.391 . S
C2034 H2024 0.950 . S
C2034 C2035 1.386 . S
C2034 C2036 1.391 . S
C2035 C2034 1.386 . S
C2035 C2039 1.393 . S
C2036 H2025 0.950 . S
C2036 C2034 1.391 . S
C2036 C2037 1.400 . S
C2037 C2031 1.491 . S
C2037 C2036 1.400 . S
C2037 C2038 1.398 . S
C2038 H2026 0.950 . S
C2038 C2037 1.398 . S
C2038 C2039 1.391 . S
C2039 H2027 0.950 . S
C2039 C2035 1.393 . S
C2039 C2038 1.391 . S
H2040 C2048 0.950 . S
H2041 C2053 0.950 . S
H2042 C2050 0.950 . S
H2043 C2052 0.950 . S
H2044 C2054 0.950 . S
H2045 C2056 0.950 . S
H2046 C2058 0.950 . S
H2047 C2059 0.950 . S
C2048 H2040 0.950 . S
C2048 C2049 1.386 . S
C2048 C2050 1.391 . S
C2049 C2048 1.386 . S
C2049 C2053 1.393 . S
C2050 H2042 0.950 . S
C2050 C2048 1.391 . S
C2050 C2051 1.400 . S
C2051 C2050 1.400 . S
C2051 C2052 1.398 . S
C2051 C2057 1.491 . S
C2052 H2043 0.950 . S
C2052 C2051 1.398 . S
C2052 C2053 1.391 . S
C2053 H2041 0.950 . S
C2053 C2049 1.393 . S
C2053 C2052 1.391 . S
C2054 H2044 0.950 . S
C2054 C2055 1.386 . S
C2054 C2056 1.391 . S
C2055 C2054 1.386 . S
C2055 C2059 1.393 . S
C2056 H2045 0.950 . S
C2056 C2054 1.391 . S
C2056 C2057 1.400 . S
C2057 C2051 1.491 . S
C2057 C2056 1.400 . S
C2057 C2058 1.398 . S
C2058 H2046 0.950 . S
C2058 C2057 1.398 . S
C2058 C2059 1.391 . S
C2059 H2047 0.950 . S
C2059 C2055 1.393 . S
C2059 C2058 1.391 . S
H2060 C2068 0.950 . S
H2061 C2073 0.950 . S
H2062 C2070 0.950 . S
H2063 C2072 0.950 . S
H2064 C2074 0.950 . S
H2065 C2076 0.950 . S
H2066 C2078 0.950 . S
H2067 C2079 0.950 . S
C2068 H2060 0.950 . S
C2068 C2069 1.386 . S
C2068 C2070 1.391 . S
C2069 C2068 1.386 . S
C2069 C2073 1.393 . S
C2070 H2062 0.950 . S
C2070 C2068 1.391 . S
C2070 C2071 1.400 . S
C2071 C2070 1.400 . S
C2071 C2072 1.398 . S
C2071 C2077 1.491 . S
C2072 H2063 0.950 . S
C2072 C2071 1.398 . S
C2072 C2073 1.391 . S
C2073 H2061 0.950 . S
C2073 C2069 1.393 . S
C2073 C2072 1.391 . S
C2074 H2064 0.950 . S
C2074 C2075 1.386 . S
C2074 C2076 1.391 . S
C2075 C2074 1.386 . S
C2075 C2079 1.393 . S
C2076 H2065 0.950 . S
C2076 C2074 1.391 . S
C2076 C2077 1.400 . S
C2077 C2071 1.491 . S
C2077 C2076 1.400 . S
C2077 C2078 1.398 . S
C2078 H2066 0.950 . S
C2078 C2077 1.398 . S
C2078 C2079 1.391 . S
C2079 H2067 0.950 . S
C2079 C2075 1.393 . S
C2079 C2078 1.391 . S
H2080 C2088 0.950 . S
H2081 C2093 0.950 . S
H2082 C2090 0.950 . S
H2083 C2092 0.950 . S
H2084 C2094 0.950 . S
H2085 C2096 0.950 . S
H2086 C2098 0.950 . S
H2087 C2099 0.950 . S
C2088 H2080 0.950 . S
C2088 C2089 1.386 . S
C2088 C2090 1.391 . S
C2089 C2088 1.386 . S
C2089 C2093 1.393 . S
C2090 H2082 0.950 . S
C2090 C2088 1.391 . S
C2090 C2091 1.400 . S
C2091 C2090 1.400 . S
C2091 C2092 1.398 . S
C2091 C2097 1.491 . S
C2092 H2083 0.950 . S
C2092 C2091 1.398 . S
C2092 C2093 1.391 . S
C2093 H2081 0.950 . S
C2093 C2089 1.393 . S
C2093 C2092 1.391 . S
C2094 H2084 0.950 . S
C2094 C2095 1.386 . S
C2094 C2096 1.391 . S
C2095 C2094 1.386 . S
C2095 C2099 1.393 . S
C2096 H2085 0.950 . S
C2096 C2094 1.391 . S
C2096 C2097 1.400 . S
C2097 C2091 1.491 . S
C2097 C2096 1.400 . S
C2097 C2098 1.398 . S
C2098 H2086 0.950 . S
C2098 C2097 1.398 . S
C2098 C2099 1.391 . S
C2099 H2087 0.950 . S
C2099 C2095 1.393 . S
C2099 C2098 1.391 . S
H2100 C2108 0.950 . S
H2101 C2113 0.950 . S
H2102 C2110 0.950 . S
H2103 C2112 0.950 . S
H2104 C2114 0.950 . S
H2105 C2116 0.950 . S
H2106 C2118 0.950 . S
H2107 C2119 0.950 . S
C2108 H2100 0.950 . S
C2108 C2109 1.386 . S
C2108 C2110 1.391 . S
C2109 C2108 1.386 . S
C2109 C2113 1.393 . S
C2110 H2102 0.950 . S
C2110 C2108 1.391 . S
C2110 C2111 1.400 . S
C2111 C2110 1.400 . S
C2111 C2112 1.398 . S
C2111 C2117 1.491 . S
C2112 H2103 0.950 . S
C2112 C2111 1.398 . S
C2112 C2113 1.391 . S
C2113 H2101 0.950 . S
C2113 C2109 1.393 . S
C2113 C2112 1.391 . S
C2114 H2104 0.950 . S
C2114 C2115 1.386 . S
C2114 C2116 1.391 . S
C2115 C2114 1.386 . S
C2115 C2119 1.393 . S
C2116 H2105 0.950 . S
C2116 C2114 1.391 . S
C2116 C2117 1.400 . S
C2117 C2111 1.491 . S
C2117 C2116 1.400 . S
C2117 C2118 1.398 . S
C2118 H2106 0.950 . S
C2118 C2117 1.398 . S
C2118 C2119 1.391 . S
C2119 H2107 0.950 . S
C2119 C2115 1.393 . S
C2119 C2118 1.391 . S
H2120 C2128 0.950 . S
H2121 C2133 0.950 . S
H2122 C2130 0.950 . S
H2123 C2132 0.950 . S
H2124 C2134 0.950 . S
H2125 C2136 0.950 . S
H2126 C2138 0.950 . S
H2127 C2139 0.950 . S
C2128 H2120 0.950 . S
C2128 C2129 1.386 . S
C2128 C2130 1.391 . S
C2129 C2128 1.386 . S
C2129 C2133 1.393 . S
C2130 H2122 0.950 . S
C2130 C2128 1.391 . S
C2130 C2131 1.400 . S
C2131 C2130 1.400 . S
C2131 C2132 1.398 . S
C2131 C2137 1.491 . S
C2132 H2123 0.950 . S
C2132 C2131 1.398 . S
C2132 C2133 1.391 . S
C2133 H2121 0.950 . S
C2133 C2129 1.393 . S
C2133 C2132 1.391 . S
C2134 H2124 0.950 . S
C2134 C2135 1.386 . S
C2134 C2136 1.391 . S
C2135 C2134 1.386 . S
C2135 C2139 1.393 . S
C2136 H2125 0.950 . S
C2136 C2134 1.391 . S
C2136 C2137 1.400 . S
C2137 C2131 1.491 . S
C2137 C2136 1.400 . S
C2137 C2138 1.398 . S
C2138 H2126 0.950 . S
C2138 C2137 1.398 . S
C2138 C2139 1.391 . S
C2139 H2127 0.950 . S
C2139 C2135 1.393 . S
C2139 C2138 1.391 . S
H2140 C2148 0.950 . S
H2141 C2153 0.950 . S
H2142 C2150 0.950 . S
H2143 C2152 0.950 . S
H2144 C2154 0.950 . S
H2145 C2156 0.950 . S
H2146 C2158 0.950 . S
H2147 C2159 0.950 . S
C2148 H2140 0.950 . S
C2148 C2149 1.386 . S
C2148 C2150 1.391 . S
C2149 C2148 1.386 . S
C2149 C2153 1.393 . S
C2150 H2142 0.950 . S
C2150 C2148 1.391 . S
C2150 C2151 1.400 . S
C2151 C2150 1.400 . S
C2151 C2152 1.398 . S
C2151 C2157 1.491 . S
C2152 H2143 0.950 . S
C2152 C2151 1.398 . S
C2152 C2153 1.391 . S
C2153 H2141 0.950 . S
C2153 C2149 1.393 . S
C2153 C2152 1.391 . S
C2154 H2144 0.950 . S
C2154 C2155 1.386 . S
C2154 C2156 1.391 . S
C2155 C2154 1.386 . S
C2155 C2159 1.393 . S
C2156 H2145 0.950 . S
C2156 C2154 1.391 . S
C2156 C2157 1.400 . S
C2157 C2151 1.491 . S
C2157 C2156 1.400 . S
C2157 C2158 1.398 . S
C2158 H2146 0.950 . S
C2158 C2157 1.398 . S
C2158 C2159 1.391 . S
C2159 H2147 0.950 . S
C2159 C2155 1.393 . S
C2159 C2158 1.391 . S
H2160 C2168 0.950 . S
H2161 C2173 0.950 . S
H2162 C2170 0.950 . S
H2163 C2172 0.950 . S
H2164 C2174 0.950 . S
H2165 C2176 0.950 . S
H2166 C2178 0.950 . S
H2167 C2179 0.950 . S
C2168 H2160 0.950 . S
C2168 C2169 1.386 . S
C2168 C2170 1.391 . S
C2169 C2168 1.386 . S
C2169 C2173 1.393 . S
C2170 H2162 0.950 . S
C2170 C2168 1.391 . S
C2170 C2171 1.400 . S
C2171 C2170 1.400 . S
C2171 C2172 1.398 . S
C2171 C2177 1.491 . S
C2172 H2163 0.950 . S
C2172 C2171 1.398 . S
C2172 C2173 1.391 . S
C2173 H2161 0.950 . S
C2173 C2169 1.393 . S
C2173 C2172 1.391 . S
C2174 H2164 0.950 . S
C2174 C2175 1.386 . S
C2174 C2176 1.391 . S
C2175 C2174 1.386 . S
C2175 C2179 1.393 . S
C2176 H2165 0.950 . S
C2176 C2174 1.391 . S
C2176 C2177 1.400 . S
C2177 C2171 1.491 . S
C2177 C2176 1.400 . S
C2177 C2178 1.398 . S
C2178 H2166 0.950 . S
C2178 C2177 1.398 . S
C2178 C2179 1.391 . S
C2179 H2167 0.950 . S
C2179 C2175 1.393 . S
C2179 C2178 1.391 . S
H2180 C2188 0.950 . S
H2181 C2193 0.950 . S
H2182 C2190 0.950 . S
H2183 C2192 0.950 . S
H2184 C2194 0.950 . S
H2185 C2196 0.950 . S
H2186 C2198 0.950 . S
H2187 C2199 0.950 . S
C2188 H2180 0.950 . S
C2188 C2189 1.386 . S
C2188 C2190 1.391 . S
C2189 C2188 1.386 . S
C2189 C2193 1.393 . S
C2190 H2182 0.950 . S
C2190 C2188 1.391 . S
C2190 C2191 1.400 . S
C2191 C2190 1.400 . S
C2191 C2192 1.398 . S
C2191 C2197 1.491 . S
C2192 H2183 0.950 . S
C2192 C2191 1.398 . S
C2192 C2193 1.391 . S
C2193 H2181 0.950 . S
C2193 C2189 1.393 . S
C2193 C2192 1.391 . S
C2194 H2184 0.950 . S
C2194 C2195 1.386 . S
C2194 C2196 1.391 . S
C2195 C2194 1.386 . S
C2195 C2199 1.393 . S
C2196 H2185 0.950 . S
C2196 C2194 1.391 . S
C2196 C2197 1.400 . S
C2197 C2191 1.491 . S
C2197 C2196 1.400 . S
C2197 C2198 1.398 . S
C2198 H2186 0.950 . S
C2198 C2197 1.398 . S
C2198 C2199 1.391 . S
C2199 H2187 0.950 . S
C2199 C2195 1.393 . S
C2199 C2198 1.391 . S
H2200 C2208 0.950 . S
H2201 C2213 0.950 . S
H2202 C2210 0.950 . S
H2203 C2212 0.950 . S
H2204 C2214 0.950 . S
H2205 C2216 0.950 . S
H2206 C2218 0.950 . S
H2207 C2219 0.950 . S
C2208 H2200 0.950 . S
C2208 C2209 1.386 . S
C2208 C2210 1.391 . S
C2209 C2208 1.386 . S
C2209 C2213 1.393 . S
C2210 H2202 0.950 . S
C2210 C2208 1.391 . S
C2210 C2211 1.400 . S
C2211 C2210 1.400 . S
C2211 C2212 1.398 . S
C2211 C2217 1.491 . S
C2212 H2203 0.950 . S
C2212 C2211 1.398 . S
C2212 C2213 1.391 . S
C2213 H2201 0.950 . S
C2213 C2209 1.393 . S
C2213 C2212 1.391 . S
C2214 H2204 0.950 . S
C2214 C2215 1.386 . S
C2214 C2216 1.391 . S
C2215 C2214 1.386 . S
C2215 C2219 1.393 . S
C2216 H2205 0.950 . S
C2216 C2214 1.391 . S
C2216 C2217 1.400 . S
C2217 C2211 1.491 . S
C2217 C2216 1.400 . S
C2217 C2218 1.398 . S
C2218 H2206 0.950 . S
C2218 C2217 1.398 . S
C2218 C2219 1.391 . S
C2219 H2207 0.950 . S
C2219 C2215 1.393 . S
C2219 C2218 1.391 . S
H2220 C2228 0.950 . S
H2221 C2233 0.950 . S
H2222 C2230 0.950 . S
H2223 C2232 0.950 . S
H2224 C2234 0.950 . S
H2225 C2236 0.950 . S
H2226 C2238 0.950 . S
H2227 C2239 0.950 . S
C2228 H2220 0.950 . S
C2228 C2229 1.386 . S
C2228 C2230 1.391 . S
C2229 C2228 1.386 . S
C2229 C2233 1.393 . S
C2230 H2222 0.950 . S
C2230 C2228 1.391 . S
C2230 C2231 1.400 . S
C2231 C2230 1.400 . S
C2231 C2232 1.398 . S
C2231 C2237 1.491 . S
C2232 H2223 0.950 . S
C2232 C2231 1.398 . S
C2232 C2233 1.391 . S
C2233 H2221 0.950 . S
C2233 C2229 1.393 . S
C2233 C2232 1.391 . S
C2234 H2224 0.950 . S
C2234 C2235 1.386 . S
C2234 C2236 1.391 . S
C2235 C2234 1.386 . S
C2235 C2239 1.393 . S
C2236 H2225 0.950 . S
C2236 C2234 1.391 . S
C2236 C2237 1.400 . S
C2237 C2231 1.491 . S
C2237 C2236 1.400 . S
C2237 C2238 1.398 . S
C2238 H2226 0.950 . S
C2238 C2237 1.398 . S
C2238 C2239 1.391 . S
C2239 H2227 0.950 . S
C2239 C2235 1.393 . S
C2239 C2238 1.391 . S
H2240 C2248 0.950 . S
H2241 C2253 0.950 . S
H2242 C2250 0.950 . S
H2243 C2252 0.950 . S
H2244 C2254 0.950 . S
H2245 C2256 0.950 . S
H2246 C2258 0.950 . S
H2247 C2259 0.950 . S
C2248 H2240 0.950 . S
C2248 C2249 1.386 . S
C2248 C2250 1.391 . S
C2249 C2248 1.386 . S
C2249 C2253 1.393 . S
C2250 H2242 0.950 . S
C2250 C2248 1.391 . S
C2250 C2251 1.400 . S
C2251 C2250 1.400 . S
C2251 C2252 1.398 . S
C2251 C2257 1.491 . S
C2252 H2243 0.950 . S
C2252 C2251 1.398 . S
C2252 C2253 1.391 . S
C2253 H2241 0.950 . S
C2253 C2249 1.393 . S
C2253 C2252 1.391 . S
C2254 H2244 0.950 . S
C2254 C2255 1.386 . S
C2254 C2256 1.391 . S
C2255 C2254 1.386 . S
C2255 C2259 1.393 . S
C2256 H2245 0.950 . S
C2256 C2254 1.391 . S
C2256 C2257 1.400 . S
C2257 C2251 1.491 . S
C2257 C2256 1.400 . S
C2257 C2258 1.398 . S
C2258 H2246 0.950 . S
C2258 C2257 1.398 . S
C2258 C2259 1.391 . S
C2259 H2247 0.950 . S
C2259 C2255 1.393 . S
C2259 C2258 1.391 . S
H2260 C2268 0.950 . S
H2261 C2273 0.950 . S
H2262 C2270 0.950 . S
H2263 C2272 0.950 . S
H2264 C2274 0.950 . S
H2265 C2276 0.950 . S
H2266 C2278 0.950 . S
H2267 C2279 0.950 . S
C2268 H2260 0.950 . S
C2268 C2269 1.386 . S
C2268 C2270 1.391 . S
C2269 C2268 1.386 . S
C2269 C2273 1.393 . S
C2270 H2262 0.950 . S
C2270 C2268 1.391 . S
C2270 C2271 1.400 . S
C2271 C2270 1.400 . S
C2271 C2272 1.398 . S
C2271 C2277 1.491 . S
C2272 H2263 0.950 . S
C2272 C2271 1.398 . S
C2272 C2273 1.391 . S
C2273 H2261 0.950 . S
C2273 C2269 1.393 . S
C2273 C2272 1.391 . S
C2274 H2264 0.950 . S
C2274 C2275 1.386 . S
C2274 C2276 1.391 . S
C2275 C2274 1.386 . S
C2275 C2279 1.393 . S
C2276 H2265 0.950 . S
C2276 C2274 1.391 . S
C2276 C2277 1.400 . S
C2277 C2271 1.491 . S
C2277 C2276 1.400 . S
C2277 C2278 1.398 . S
C2278 H2266 0.950 . S
C2278 C2277 1.398 . S
C2278 C2279 1.391 . S
C2279 H2267 0.950 . S
C2279 C2275 1.393 . S
C2279 C2278 1.391 . S
H2280 C2288 0.950 . S
H2281 C2293 0.950 . S
H2282 C2290 0.950 . S
H2283 C2292 0.950 . S
H2284 C2294 0.950 . S
H2285 C2296 0.950 . S
H2286 C2298 0.950 . S
H2287 C2299 0.950 . S
C2288 H2280 0.950 . S
C2288 C2289 1.386 . S
C2288 C2290 1.391 . S
C2289 C2288 1.386 . S
C2289 C2293 1.393 . S
C2290 H2282 0.950 . S
C2290 C2288 1.391 . S
C2290 C2291 1.400 . S
C2291 C2290 1.400 . S
C2291 C2292 1.398 . S
C2291 C2297 1.491 . S
C2292 H2283 0.950 . S
C2292 C2291 1.398 . S
C2292 C2293 1.391 . S
C2293 H2281 0.950 . S
C2293 C2289 1.393 . S
C2293 C2292 1.391 . S
C2294 H2284 0.950 . S
C2294 C2295 1.386 . S
C2294 C2296 1.391 . S
C2295 C2294 1.386 . S
C2295 C2299 1.393 . S
C2296 H2285 0.950 . S
C2296 C2294 1.391 . S
C2296 C2297 1.400 . S
C2297 C2291 1.491 . S
C2297 C2296 1.400 . S
C2297 C2298 1.398 . S
C2298 H2286 0.950 . S
C2298 C2297 1.398 . S
C2298 C2299 1.391 . S
C2299 H2287 0.950 . S
C2299 C2295 1.393 . S
C2299 C2298 1.391 . S
H2300 C2308 0.950 . S
H2301 C2313 0.950 . S
H2302 C2310 0.950 . S
H2303 C2312 0.950 . S
H2304 C2314 0.950 . S
H2305 C2316 0.950 . S
H2306 C2318 0.950 . S
H2307 C2319 0.950 . S
C2308 H2300 0.950 . S
C2308 C2309 1.386 . S
C2308 C2310 1.391 . S
C2309 C2308 1.386 . S
C2309 C2313 1.393 . S
C2310 H2302 0.950 . S
C2310 C2308 1.391 . S
C2310 C2311 1.400 . S
C2311 C2310 1.400 . S
C2311 C2312 1.398 . S
C2311 C2317 1.491 . S
C2312 H2303 0.950 . S
C2312 C2311 1.398 . S
C2312 C2313 1.391 . S
C2313 H2301 0.950 . S
C2313 C2309 1.393 . S
C2313 C2312 1.391 . S
C2314 H2304 0.950 . S
C2314 C2315 1.386 . S
C2314 C2316 1.391 . S
C2315 C2314 1.386 . S
C2315 C2319 1.393 . S
C2316 H2305 0.950 . S
C2316 C2314 1.391 . S
C2316 C2317 1.400 . S
C2317 C2311 1.491 . S
C2317 C2316 1.400 . S
C2317 C2318 1.398 . S
C2318 H2306 0.950 . S
C2318 C2317 1.398 . S
C2318 C2319 1.391 . S
C2319 H2307 0.950 . S
C2319 C2315 1.393 . S
C2319 C2318 1.391 . S
H2320 C2328 0.950 . S
H2321 C2333 0.950 . S
H2322 C2330 0.950 . S
H2323 C2332 0.950 . S
H2324 C2334 0.950 . S
H2325 C2336 0.950 . S
H2326 C2338 0.950 . S
H2327 C2339 0.950 . S
C2328 H2320 0.950 . S
C2328 C2329 1.386 . S
C2328 C2330 1.391 . S
C2329 C2328 1.386 . S
C2329 C2333 1.393 . S
C2330 H2322 0.950 . S
C2330 C2328 1.391 . S
C2330 C2331 1.400 . S
C2331 C2330 1.400 . S
C2331 C2332 1.398 . S
C2331 C2337 1.491 . S
C2332 H2323 0.950 . S
C2332 C2331 1.398 . S
C2332 C2333 1.391 . S
C2333 H2321 0.950 . S
C2333 C2329 1.393 . S
C2333 C2332 1.391 . S
C2334 H2324 0.950 . S
C2334 C2335 1.386 . S
C2334 C2336 1.391 . S
C2335 C2334 1.386 . S
C2335 C2339 1.393 . S
C2336 H2325 0.950 . S
C2336 C2334 1.391 . S
C2336 C2337 1.400 . S
C2337 C2331 1.491 . S
C2337 C2336 1.400 . S
C2337 C2338 1.398 . S
C2338 H2326 0.950 . S
C2338 C2337 1.398 . S
C2338 C2339 1.391 . S
C2339 H2327 0.950 . S
C2339 C2335 1.393 . S
C2339 C2338 1.391 . S
H2340 C2348 0.950 . S
H2341 C2353 0.950 . S
H2342 C2350 0.950 . S
H2343 C2352 0.950 . S
H2344 C2354 0.950 . S
H2345 C2356 0.950 . S
H2346 C2358 0.950 . S
H2347 C2359 0.950 . S
C2348 H2340 0.950 . S
C2348 C2349 1.386 . S
C2348 C2350 1.391 . S
C2349 C2348 1.386 . S
C2349 C2353 1.393 . S
C2350 H2342 0.950 . S
C2350 C2348 1.391 . S
C2350 C2351 1.400 . S
C2351 C2350 1.400 . S
C2351 C2352 1.398 . S
C2351 C2357 1.491 . S
C2352 H2343 0.950 . S
C2352 C2351 1.398 . S
C2352 C2353 1.391 . S
C2353 H2341 0.950 . S
C2353 C2349 1.393 . S
C2353 C2352 1.391 . S
C2354 H2344 0.950 . S
C2354 C2355 1.386 . S
C2354 C2356 1.391 . S
C2355 C2354 1.386 . S
C2355 C2359 1.393 . S
C2356 H2345 0.950 . S
C2356 C2354 1.391 . S
C2356 C2357 1.400 . S
C2357 C2351 1.491 . S
C2357 C2356 1.400 . S
C2357 C2358 1.398 . S
C2358 H2346 0.950 . S
C2358 C2357 1.398 . S
C2358 C2359 1.391 . S
C2359 H2347 0.950 . S
C2359 C2355 1.393 . S
C2359 C2358 1.391 . S
H2360 C2368 0.950 . S
H2361 C2373 0.950 . S
H2362 C2370 0.950 . S
H2363 C2372 0.950 . S
H2364 C2374 0.950 . S
H2365 C2376 0.950 . S
H2366 C2378 0.950 . S
H2367 C2379 0.950 . S
C2368 H2360 0.950 . S
C2368 C2369 1.386 . S
C2368 C2370 1.391 . S
C2369 C2368 1.386 . S
C2369 C2373 1.393 . S
C2370 H2362 0.950 . S
C2370 C2368 1.391 . S
C2370 C2371 1.400 . S
C2371 C2370 1.400 . S
C2371 C2372 1.398 . S
C2371 C2377 1.491 . S
C2372 H2363 0.950 . S
C2372 C2371 1.398 . S
C2372 C2373 1.391 . S
C2373 H2361 0.950 . S
C2373 C2369 1.393 . S
C2373 C2372 1.391 . S
C2374 H2364 0.950 . S
C2374 C2375 1.386 . S
C2374 C2376 1.391 . S
C2375 C2374 1.386 . S
C2375 C2379 1.393 . S
C2376 H2365 0.950 . S
C2376 C2374 1.391 . S
C2376 C2377 1.400 . S
C2377 C2371 1.491 . S
C2377 C2376 1.400 . S
C2377 C2378 1.398 . S
C2378 H2366 0.950 . S
C2378 C2377 1.398 . S
C2378 C2379 1.391 . S
C2379 H2367 0.950 . S
C2379 C2375 1.393 . S
C2379 C2378 1.391 . S
H2380 C2388 0.950 . S
H2381 C2393 0.950 . S
H2382 C2390 0.950 . S
H2383 C2392 0.950 . S
H2384 C2394 0.950 . S
H2385 C2396 0.950 . S
H2386 C2398 0.950 . S
H2387 C2399 0.950 . S
C2388 H2380 0.950 . S
C2388 C2389 1.386 . S
C2388 C2390 1.391 . S
C2389 C2388 1.386 . S
C2389 C2393 1.393 . S
C2390 H2382 0.950 . S
C2390 C2388 1.391 . S
C2390 C2391 1.400 . S
C2391 C2390 1.400 . S
C2391 C2392 1.398 . S
C2391 C2397 1.491 . S
C2392 H2383 0.950 . S
C2392 C2391 1.398 . S
C2392 C2393 1.391 . S
C2393 H2381 0.950 . S
C2393 C2389 1.393 . S
C2393 C2392 1.391 . S
C2394 H2384 0.950 . S
C2394 C2395 1.386 . S
C2394 C2396 1.391 . S
C2395 C2394 1.386 . S
C2395 C2399 1.393 . S
C2396 H2385 0.950 . S
C2396 C2394 1.391 . S
C2396 C2397 1.400 . S
C2397 C2391 1.491 . S
C2397 C2396 1.400 . S
C2397 C2398 1.398 . S
C2398 H2386 0.950 . S
C2398 C2397 1.398 . S
C2398 C2399 1.391 . S
C2399 H2387 0.950 . S
C2399 C2395 1.393 . S
C2399 C2398 1.391 . S
H2400 C2408 0.950 . S
H2401 C2413 0.950 . S
H2402 C2410 0.950 . S
H2403 C2412 0.950 . S
H2404 C2414 0.950 . S
H2405 C2416 0.950 . S
H2406 C2418 0.950 . S
H2407 C2419 0.950 . S
C2408 H2400 0.950 . S
C2408 C2409 1.386 . S
C2408 C2410 1.391 . S
C2409 C2408 1.386 . S
C2409 C2413 1.393 . S
C2410 H2402 0.950 . S
C2410 C2408 1.391 . S
C2410 C2411 1.400 . S
C2411 C2410 1.400 . S
C2411 C2412 1.398 . S
C2411 C2417 1.491 . S
C2412 H2403 0.950 . S
C2412 C2411 1.398 . S
C2412 C2413 1.391 . S
C2413 H2401 0.950 . S
C2413 C2409 1.393 . S
C2413 C2412 1.391 . S
C2414 H2404 0.950 . S
C2414 C2415 1.386 . S
C2414 C2416 1.391 . S
C2415 C2414 1.386 . S
C2415 C2419 1.393 . S
C2416 H2405 0.950 . S
C2416 C2414 1.391 . S
C2416 C2417 1.400 . S
C2417 C2411 1.491 . S
C2417 C2416 1.400 . S
C2417 C2418 1.398 . S
C2418 H2406 0.950 . S
C2418 C2417 1.398 . S
C2418 C2419 1.391 . S
C2419 H2407 0.950 . S
C2419 C2415 1.393 . S
C2419 C2418 1.391 . S
H2420 C2428 0.950 . S
H2421 C2433 0.950 . S
H2422 C2430 0.950 . S
H2423 C2432 0.950 . S
H2424 C2434 0.950 . S
H2425 C2436 0.950 . S
H2426 C2438 0.950 . S
H2427 C2439 0.950 . S
C2428 H2420 0.950 . S
C2428 C2429 1.386 . S
C2428 C2430 1.391 . S
C2429 C2428 1.386 . S
C2429 C2433 1.393 . S
C2430 H2422 0.950 . S
C2430 C2428 1.391 . S
C2430 C2431 1.400 . S
C2431 C2430 1.400 . S
C2431 C2432 1.398 . S
C2431 C2437 1.491 . S
C2432 H2423 0.950 . S
C2432 C2431 1.398 . S
C2432 C2433 1.391 . S
C2433 H2421 0.950 . S
C2433 C2429 1.393 . S
C2433 C2432 1.391 . S
C2434 H2424 0.950 . S
C2434 C2435 1.386 . S
C2434 C2436 1.391 . S
C2435 C2434 1.386 . S
C2435 C2439 1.393 . S
C2436 H2425 0.950 . S
C2436 C2434 1.391 . S
C2436 C2437 1.400 . S
C2437 C2431 1.491 . S
C2437 C2436 1.400 . S
C2437 C2438 1.398 . S
C2438 H2426 0.950 . S
C2438 C2437 1.398 . S
C2438 C2439 1.391 . S
C2439 H2427 0.950 . S
C2439 C2435 1.393 . S
C2439 C2438 1.391 . S
H2440 C2448 0.950 . S
H2441 C2453 0.950 . S
H2442 C2450 0.950 . S
H2443 C2452 0.950 . S
H2444 C2454 0.950 . S
H2445 C2456 0.950 . S
H2446 C2458 0.950 . S
H2447 C2459 0.950 . S
C2448 H2440 0.950 . S
C2448 C2449 1.386 . S
C2448 C2450 1.391 . S
C2449 C2448 1.386 . S
C2449 C2453 1.393 . S
C2450 H2442 0.950 . S
C2450 C2448 1.391 . S
C2450 C2451 1.400 . S
C2451 C2450 1.400 . S
C2451 C2452 1.398 . S
C2451 C2457 1.491 . S
C2452 H2443 0.950 . S
C2452 C2451 1.398 . S
C2452 C2453 1.391 . S
C2453 H2441 0.950 . S
C2453 C2449 1.393 . S
C2453 C2452 1.391 . S
C2454 H2444 0.950 . S
C2454 C2455 1.386 . S
C2454 C2456 1.391 . S
C2455 C2454 1.386 . S
C2455 C2459 1.393 . S
C2456 H2445 0.950 . S
C2456 C2454 1.391 . S
C2456 C2457 1.400 . S
C2457 C2451 1.491 . S
C2457 C2456 1.400 . S
C2457 C2458 1.398 . S
C2458 H2446 0.950 . S
C2458 C2457 1.398 . S
C2458 C2459 1.391 . S
C2459 H2447 0.950 . S
C2459 C2455 1.393 . S
C2459 C2458 1.391 . S
H2460 C2468 0.950 . S
H2461 C2473 0.950 . S
H2462 C2470 0.950 . S
H2463 C2472 0.950 . S
H2464 C2474 0.950 . S
H2465 C2476 0.950 . S
H2466 C2478 0.950 . S
H2467 C2479 0.950 . S
C2468 H2460 0.950 . S
C2468 C2469 1.386 . S
C2468 C2470 1.391 . S
C2469 C2468 1.386 . S
C2469 C2473 1.393 . S
C2470 H2462 0.950 . S
C2470 C2468 1.391 . S
C2470 C2471 1.400 . S
C2471 C2470 1.400 . S
C2471 C2472 1.398 . S
C2471 C2477 1.491 . S
C2472 H2463 0.950 . S
C2472 C2471 1.398 . S
C2472 C2473 1.391 . S
C2473 H2461 0.950 . S
C2473 C2469 1.393 . S
C2473 C2472 1.391 . S
C2474 H2464 0.950 . S
C2474 C2475 1.386 . S
C2474 C2476 1.391 . S
C2475 C2474 1.386 . S
C2475 C2479 1.393 . S
C2476 H2465 0.950 . S
C2476 C2474 1.391 . S
C2476 C2477 1.400 . S
C2477 C2471 1.491 . S
C2477 C2476 1.400 . S
C2477 C2478 1.398 . S
C2478 H2466 0.950 . S
C2478 C2477 1.398 . S
C2478 C2479 1.391 . S
C2479 H2467 0.950 . S
C2479 C2475 1.393 . S
C2479 C2478 1.391 . S
H2480 C2488 0.950 . S
H2481 C2493 0.950 . S
H2482 C2490 0.950 . S
H2483 C2492 0.950 . S
H2484 C2494 0.950 . S
H2485 C2496 0.950 . S
H2486 C2498 0.950 . S
H2487 C2499 0.950 . S
C2488 H2480 0.950 . S
C2488 C2489 1.386 . S
C2488 C2490 1.391 . S
C2489 C2488 1.386 . S
C2489 C2493 1.393 . S
C2490 H2482 0.950 . S
C2490 C2488 1.391 . S
C2490 C2491 1.400 . S
C2491 C2490 1.400 . S
C2491 C2492 1.398 . S
C2491 C2497 1.491 . S
C2492 H2483 0.950 . S
C2492 C2491 1.398 . S
C2492 C2493 1.391 . S
C2493 H2481 0.950 . S
C2493 C2489 1.393 . S
C2493 C2492 1.391 . S
C2494 H2484 0.950 . S
C2494 C2495 1.386 . S
C2494 C2496 1.391 . S
C2495 C2494 1.386 . S
C2495 C2499 1.393 . S
C2496 H2485 0.950 . S
C2496 C2494 1.391 . S
C2496 C2497 1.400 . S
C2497 C2491 1.491 . S
C2497 C2496 1.400 . S
C2497 C2498 1.398 . S
C2498 H2486 0.950 . S
C2498 C2497 1.398 . S
C2498 C2499 1.391 . S
C2499 H2487 0.950 . S
C2499 C2495 1.393 . S
C2499 C2498 1.391 . S
H2500 C2508 0.950 . S
H2501 C2513 0.950 . S
H2502 C2510 0.950 . S
H2503 C2512 0.950 . S
H2504 C2514 0.950 . S
H2505 C2516 0.950 . S
H2506 C2518 0.950 . S
H2507 C2519 0.950 . S
C2508 H2500 0.950 . S
C2508 C2509 1.386 . S
C2508 C2510 1.391 . S
C2509 C2508 1.386 . S
C2509 C2513 1.393 . S
C2510 H2502 0.950 . S
C2510 C2508 1.391 . S
C2510 C2511 1.400 . S
C2511 C2510 1.400 . S
C2511 C2512 1.398 . S
C2511 C2517 1.491 . S
C2512 H2503 0.950 . S
C2512 C2511 1.398 . S
C2512 C2513 1.391 . S
C2513 H2501 0.950 . S
C2513 C2509 1.393 . S
C2513 C2512 1.391 . S
C2514 H2504 0.950 . S
C2514 C2515 1.386 . S
C2514 C2516 1.391 . S
C2515 C2514 1.386 . S
C2515 C2519 1.393 . S
C2516 H2505 0.950 . S
C2516 C2514 1.391 . S
C2516 C2517 1.400 . S
C2517 C2511 1.491 . S
C2517 C2516 1.400 . S
C2517 C2518 1.398 . S
C2518 H2506 0.950 . S
C2518 C2517 1.398 . S
C2518 C2519 1.391 . S
C2519 H2507 0.950 . S
C2519 C2515 1.393 . S
C2519 C2518 1.391 . S
H2520 C2528 0.950 . S
H2521 C2533 0.950 . S
H2522 C2530 0.950 . S
H2523 C2532 0.950 . S
H2524 C2534 0.950 . S
H2525 C2536 0.950 . S
H2526 C2538 0.950 . S
H2527 C2539 0.950 . S
C2528 H2520 0.950 . S
C2528 C2529 1.386 . S
C2528 C2530 1.391 . S
C2529 C2528 1.386 . S
C2529 C2533 1.393 . S
C2530 H2522 0.950 . S
C2530 C2528 1.391 . S
C2530 C2531 1.400 . S
C2531 C2530 1.400 . S
C2531 C2532 1.398 . S
C2531 C2537 1.491 . S
C2532 H2523 0.950 . S
C2532 C2531 1.398 . S
C2532 C2533 1.391 . S
C2533 H2521 0.950 . S
C2533 C2529 1.393 . S
C2533 C2532 1.391 . S
C2534 H2524 0.950 . S
C2534 C2535 1.386 . S
C2534 C2536 1.391 . S
C2535 C2534 1.386 . S
C2535 C2539 1.393 . S
C2536 H2525 0.950 . S
C2536 C2534 1.391 . S
C2536 C2537 1.400 . S
C2537 C2531 1.491 . S
C2537 C2536 1.400 . S
C2537 C2538 1.398 . S
C2538 H2526 0.950 . S
C2538 C2537 1.398 . S
C2538 C2539 1.391 . S
C2539 H2527 0.950 . S
C2539 C2535 1.393 . S
C2539 C2538 1.391 . S
H2540 C2548 0.950 . S
H2541 C2553 0.950 . S
H2542 C2550 0.950 . S
H2543 C2552 0.950 . S
H2544 C2554 0.950 . S
H2545 C2556 0.950 . S
H2546 C2558 0.950 . S
H2547 C2559 0.950 . S
C2548 H2540 0.950 . S
C2548 C2549 1.386 . S
C2548 C2550 1.391 . S
C2549 C2548 1.386 . S
C2549 C2553 1.393 . S
C2550 H2542 0.950 . S
C2550 C2548 1.391 . S
C2550 C2551 1.400 . S
C2551 C2550 1.400 . S
C2551 C2552 1.398 . S
C2551 C2557 1.491 . S
C2552 H2543 0.950 . S
C2552 C2551 1.398 . S
C2552 C2553 1.391 . S
C2553 H2541 0.950 . S
C2553 C2549 1.393 . S
C2553 C2552 1.391 . S
C2554 H2544 0.950 . S
C2554 C2555 1.386 . S
C2554 C2556 1.391 . S
C2555 C2554 1.386 . S
C2555 C2559 1.393 . S
C2556 H2545 0.950 . S
C2556 C2554 1.391 . S
C2556 C2557 1.400 . S
C2557 C2551 1.491 . S
C2557 C2556 1.400 . S
C2557 C2558 1.398 . S
C2558 H2546 0.950 . S
C2558 C2557 1.398 . S
C2558 C2559 1.391 . S
C2559 H2547 0.950 . S
C2559 C2555 1.393 . S
C2559 C2558 1.391 . S
H2560 C2568 0.950 . S
H2561 C2573 0.950 . S
H2562 C2570 0.950 . S
H2563 C2572 0.950 . S
H2564 C2574 0.950 . S
H2565 C2576 0.950 . S
H2566 C2578 0.950 . S
H2567 C2579 0.950 . S
C2568 H2560 0.950 . S
C2568 C2569 1.386 . S
C2568 C2570 1.391 . S
C2569 C2568 1.386 . S
C2569 C2573 1.393 . S
C2570 H2562 0.950 . S
C2570 C2568 1.391 . S
C2570 C2571 1.400 . S
C2571 C2570 1.400 . S
C2571 C2572 1.398 . S
C2571 C2577 1.491 . S
C2572 H2563 0.950 . S
C2572 C2571 1.398 . S
C2572 C2573 1.391 . S
C2573 H2561 0.950 . S
C2573 C2569 1.393 . S
C2573 C2572 1.391 . S
C2574 H2564 0.950 . S
C2574 C2575 1.386 . S
C2574 C2576 1.391 . S
C2575 C2574 1.386 . S
C2575 C2579 1.393 . S
C2576 H2565 0.950 . S
C2576 C2574 1.391 . S
C2576 C2577 1.400 . S
C2577 C2571 1.491 . S
C2577 C2576 1.400 . S
C2577 C2578 1.398 . S
C2578 H2566 0.950 . S
C2578 C2577 1.398 . S
C2578 C2579 1.391 . S
C2579 H2567 0.950 . S
C2579 C2575 1.393 . S
C2579 C2578 1.391 . S
H2580 C2588 0.950 . S
H2581 C2593 0.950 . S
H2582 C2590 0.950 . S
H2583 C2592 0.950 . S
H2584 C2594 0.950 . S
H2585 C2596 0.950 . S
H2586 C2598 0.950 . S
H2587 C2599 0.950 . S
C2588 H2580 0.950 . S
C2588 C2589 1.386 . S
C2588 C2590 1.391 . S
C2589 C2588 1.386 . S
C2589 C2593 1.393 . S
C2590 H2582 0.950 . S
C2590 C2588 1.391 . S
C2590 C2591 1.400 . S
C2591 C2590 1.400 . S
C2591 C2592 1.398 . S
C2591 C2597 1.491 . S
C2592 H2583 0.950 . S
C2592 C2591 1.398 . S
C2592 C2593 1.391 . S
C2593 H2581 0.950 . S
C2593 C2589 1.393 . S
C2593 C2592 1.391 . S
C2594 H2584 0.950 . S
C2594 C2595 1.386 . S
C2594 C2596 1.391 . S
C2595 C2594 1.386 . S
C2595 C2599 1.393 . S
C2596 H2585 0.950 . S
C2596 C2594 1.391 . S
C2596 C2597 1.400 . S
C2597 C2591 1.491 . S
C2597 C2596 1.400 . S
C2597 C2598 1.398 . S
C2598 H2586 0.950 . S
C2598 C2597 1.398 . S
C2598 C2599 1.391 . S
C2599 H2587 0.950 . S
C2599 C2595 1.393 . S
C2599 C2598 1.391 . S
H2600 C2608 0.950 . S
H2601 C2613 0.950 . S
H2602 C2610 0.950 . S
H2603 C2612 0.950 . S
H2604 C2614 0.950 . S
H2605 C2616 0.950 . S
H2606 C2618 0.950 . S
H2607 C2619 0.950 . S
C2608 H2600 0.950 . S
C2608 C2609 1.386 . S
C2608 C2610 1.391 . S
C2609 C2608 1.386 . S
C2609 C2613 1.393 . S
C2610 H2602 0.950 . S
C2610 C2608 1.391 . S
C2610 C2611 1.400 . S
C2611 C2610 1.400 . S
C2611 C2612 1.398 . S
C2611 C2617 1.491 . S
C2612 H2603 0.950 . S
C2612 C2611 1.398 . S
C2612 C2613 1.391 . S
C2613 H2601 0.950 . S
C2613 C2609 1.393 . S
C2613 C2612 1.391 . S
C2614 H2604 0.950 . S
C2614 C2615 1.386 . S
C2614 C2616 1.391 . S
C2615 C2614 1.386 . S
C2615 C2619 1.393 . S
C2616 H2605 0.950 . S
C2616 C2614 1.391 . S
C2616 C2617 1.400 . S
C2617 C2611 1.491 . S
C2617 C2616 1.400 . S
C2617 C2618 1.398 . S
C2618 H2606 0.950 . S
C2618 C2617 1.398 . S
C2618 C2619 1.391 . S
C2619 H2607 0.950 . S
C2619 C2615 1.393 . S
C2619 C2618 1.391 . S
H2620 C2628 0.950 . S
H2621 C2633 0.950 . S
H2622 C2630 0.950 . S
H2623 C2632 0.950 . S
H2624 C2634 0.950 . S
H2625 C2636 0.950 . S
H2626 C2638 0.950 . S
H2627 C2639 0.950 . S
C2628 H2620 0.950 . S
C2628 C2629 1.386 . S
C2628 C2630 1.391 . S
C2629 C2628 1.386 . S
C2629 C2633 1.393 . S
C2630 H2622 0.950 . S
C2630 C2628 1.391 . S
C2630 C2631 1.400 . S
C2631 C2630 1.400 . S
C2631 C2632 1.398 . S
C2631 C2637 1.491 . S
C2632 H2623 0.950 . S
C2632 C2631 1.398 . S
C2632 C2633 1.391 . S
C2633 H2621 0.950 . S
C2633 C2629 1.393 . S
C2633 C2632 1.391 . S
C2634 H2624 0.950 . S
C2634 C2635 1.386 . S
C2634 C2636 1.391 . S
C2635 C2634 1.386 . S
C2635 C2639 1.393 . S
C2636 H2625 0.950 . S
C2636 C2634 1.391 . S
C2636 C2637 1.400 . S
C2637 C2631 1.491 . S
C2637 C2636 1.400 . S
C2637 C2638 1.398 . S
C2638 H2626 0.950 . S
C2638 C2637 1.398 . S
C2638 C2639 1.391 . S
C2639 H2627 0.950 . S
C2639 C2635 1.393 . S
C2639 C2638 1.391 . S
H2640 C2648 0.950 . S
H2641 C2653 0.950 . S
H2642 C2650 0.950 . S
H2643 C2652 0.950 . S
H2644 C2654 0.950 . S
H2645 C2656 0.950 . S
H2646 C2658 0.950 . S
H2647 C2659 0.950 . S
C2648 H2640 0.950 . S
C2648 C2649 1.386 . S
C2648 C2650 1.391 . S
C2649 C2648 1.386 . S
C2649 C2653 1.393 . S
C2650 H2642 0.950 . S
C2650 C2648 1.391 . S
C2650 C2651 1.400 . S
C2651 C2650 1.400 . S
C2651 C2652 1.398 . S
C2651 C2657 1.491 . S
C2652 H2643 0.950 . S
C2652 C2651 1.398 . S
C2652 C2653 1.391 . S
C2653 H2641 0.950 . S
C2653 C2649 1.393 . S
C2653 C2652 1.391 . S
C2654 H2644 0.950 . S
C2654 C2655 1.386 . S
C2654 C2656 1.391 . S
C2655 C2654 1.386 . S
C2655 C2659 1.393 . S
C2656 H2645 0.950 . S
C2656 C2654 1.391 . S
C2656 C2657 1.400 . S
C2657 C2651 1.491 . S
C2657 C2656 1.400 . S
C2657 C2658 1.398 . S
C2658 H2646 0.950 . S
C2658 C2657 1.398 . S
C2658 C2659 1.391 . S
C2659 H2647 0.950 . S
C2659 C2655 1.393 . S
C2659 C2658 1.391 . S
H2660 C2668 0.950 . S
H2661 C2673 0.950 . S
H2662 C2670 0.950 . S
H2663 C2672 0.950 . S
H2664 C2674 0.950 . S
H2665 C2676 0.950 . S
H2666 C2678 0.950 . S
H2667 C2679 0.950 . S
C2668 H2660 0.950 . S
C2668 C2669 1.386 . S
C2668 C2670 1.391 . S
C2669 C2668 1.386 . S
C2669 C2673 1.393 . S
C2670 H2662 0.950 . S
C2670 C2668 1.391 . S
C2670 C2671 1.400 . S
C2671 C2670 1.400 . S
C2671 C2672 1.398 . S
C2671 C2677 1.491 . S
C2672 H2663 0.950 . S
C2672 C2671 1.398 . S
C2672 C2673 1.391 . S
C2673 H2661 0.950 . S
C2673 C2669 1.393 . S
C2673 C2672 1.391 . S
C2674 H2664 0.950 . S
C2674 C2675 1.386 . S
C2674 C2676 1.391 . S
C2675 C2674 1.386 . S
C2675 C2679 1.393 . S
C2676 H2665 0.950 . S
C2676 C2674 1.391 . S
C2676 C2677 1.400 . S
C2677 C2671 1.491 . S
C2677 C2676 1.400 . S
C2677 C2678 1.398 . S
C2678 H2666 0.950 . S
C2678 C2677 1.398 . S
C2678 C2679 1.391 . S
C2679 H2667 0.950 . S
C2679 C2675 1.393 . S
C2679 C2678 1.391 . S
H2680 C2688 0.950 . S
H2681 C2693 0.950 . S
H2682 C2690 0.950 . S
H2683 C2692 0.950 . S
H2684 C2694 0.950 . S
H2685 C2696 0.950 . S
H2686 C2698 0.950 . S
H2687 C2699 0.950 . S
C2688 H2680 0.950 . S
C2688 C2689 1.386 . S
C2688 C2690 1.391 . S
C2689 C2688 1.386 . S
C2689 C2693 1.393 . S
C2690 H2682 0.950 . S
C2690 C2688 1.391 . S
C2690 C2691 1.400 . S
C2691 C2690 1.400 . S
C2691 C2692 1.398 . S
C2691 C2697 1.491 . S
C2692 H2683 0.950 . S
C2692 C2691 1.398 . S
C2692 C2693 1.391 . S
C2693 H2681 0.950 . S
C2693 C2689 1.393 . S
C2693 C2692 1.391 . S
C2694 H2684 0.950 . S
C2694 C2695 1.386 . S
C2694 C2696 1.391 . S
C2695 C2694 1.386 . S
C2695 C2699 1.393 . S
C2696 H2685 0.950 . S
C2696 C2694 1.391 . S
C2696 C2697 1.400 . S
C2697 C2691 1.491 . S
C2697 C2696 1.400 . S
C2697 C2698 1.398 . S
C2698 H2686 0.950 . S
C2698 C2697 1.398 . S
C2698 C2699 1.391 . S
C2699 H2687 0.950 . S
C2699 C2695 1.393 . S
C2699 C2698 1.391 . S
H2700 C2708 0.950 . S
H2701 C2713 0.950 . S
H2702 C2710 0.950 . S
H2703 C2712 0.950 . S
H2704 C2714 0.950 . S
H2705 C2716 0.950 . S
H2706 C2718 0.950 . S
H2707 C2719 0.950 . S
C2708 H2700 0.950 . S
C2708 C2709 1.386 . S
C2708 C2710 1.391 . S
C2709 C2708 1.386 . S
C2709 C2713 1.393 . S
C2710 H2702 0.950 . S
C2710 C2708 1.391 . S
C2710 C2711 1.400 . S
C2711 C2710 1.400 . S
C2711 C2712 1.398 . S
C2711 C2717 1.491 . S
C2712 H2703 0.950 . S
C2712 C2711 1.398 . S
C2712 C2713 1.391 . S
C2713 H2701 0.950 . S
C2713 C2709 1.393 . S
C2713 C2712 1.391 . S
C2714 H2704 0.950 . S
C2714 C2715 1.386 . S
C2714 C2716 1.391 . S
C2715 C2714 1.386 . S
C2715 C2719 1.393 . S
C2716 H2705 0.950 . S
C2716 C2714 1.391 . S
C2716 C2717 1.400 . S
C2717 C2711 1.491 . S
C2717 C2716 1.400 . S
C2717 C2718 1.398 . S
C2718 H2706 0.950 . S
C2718 C2717 1.398 . S
C2718 C2719 1.391 . S
C2719 H2707 0.950 . S
C2719 C2715 1.393 . S
C2719 C2718 1.391 . S
H2720 C2728 0.950 . S
H2721 C2733 0.950 . S
H2722 C2730 0.950 . S
H2723 C2732 0.950 . S
H2724 C2734 0.950 . S
H2725 C2736 0.950 . S
H2726 C2738 0.950 . S
H2727 C2739 0.950 . S
C2728 H2720 0.950 . S
C2728 C2729 1.386 . S
C2728 C2730 1.391 . S
C2729 C2728 1.386 . S
C2729 C2733 1.393 . S
C2730 H2722 0.950 . S
C2730 C2728 1.391 . S
C2730 C2731 1.400 . S
C2731 C2730 1.400 . S
C2731 C2732 1.398 . S
C2731 C2737 1.491 . S
C2732 H2723 0.950 . S
C2732 C2731 1.398 . S
C2732 C2733 1.391 . S
C2733 H2721 0.950 . S
C2733 C2729 1.393 . S
C2733 C2732 1.391 . S
C2734 H2724 0.950 . S
C2734 C2735 1.386 . S
C2734 C2736 1.391 . S
C2735 C2734 1.386 . S
C2735 C2739 1.393 . S
C2736 H2725 0.950 . S
C2736 C2734 1.391 . S
C2736 C2737 1.400 . S
C2737 C2731 1.491 . S
C2737 C2736 1.400 . S
C2737 C2738 1.398 . S
C2738 H2726 0.950 . S
C2738 C2737 1.398 . S
C2738 C2739 1.391 . S
C2739 H2727 0.950 . S
C2739 C2735 1.393 . S
C2739 C2738 1.391 . S
H2740 C2748 0.950 . S
H2741 C2753 0.950 . S
H2742 C2750 0.950 . S
H2743 C2752 0.950 . S
H2744 C2754 0.950 . S
H2745 C2756 0.950 . S
H2746 C2758 0.950 . S
H2747 C2759 0.950 . S
C2748 H2740 0.950 . S
C2748 C2749 1.386 . S
C2748 C2750 1.391 . S
C2749 C2748 1.386 . S
C2749 C2753 1.393 . S
C2750 H2742 0.950 . S
C2750 C2748 1.391 . S
C2750 C2751 1.400 . S
C2751 C2750 1.400 . S
C2751 C2752 1.398 . S
C2751 C2757 1.491 . S
C2752 H2743 0.950 . S
C2752 C2751 1.398 . S
C2752 C2753 1.391 . S
C2753 H2741 0.950 . S
C2753 C2749 1.393 . S
C2753 C2752 1.391 . S
C2754 H2744 0.950 . S
C2754 C2755 1.386 . S
C2754 C2756 1.391 . S
C2755 C2754 1.386 . S
C2755 C2759 1.393 . S
C2756 H2745 0.950 . S
C2756 C2754 1.391 . S
C2756 C2757 1.400 . S
C2757 C2751 1.491 . S
C2757 C2756 1.400 . S
C2757 C2758 1.398 . S
C2758 H2746 0.950 . S
C2758 C2757 1.398 . S
C2758 C2759 1.391 . S
C2759 H2747 0.950 . S
C2759 C2755 1.393 . S
C2759 C2758 1.391 . S
C855 N300 1.457 . S
C849 C5 1.509 . S
C875 C327 1.586 . S
C869 C16 1.585 . S
C889 C23 1.523 . S
C895 C341 1.518 . S
C915 N359 1.436 . S
C909 C34 1.475 . S
C929 C43 1.568 . S
C935 C364 1.566 . S
C949 C50 1.506 . S
C955 C304 1.506 . S
C969 C58 1.423 . S
C975 N323 1.388 . S
C995 N336 1.458 . S
C989 C68 1.490 . S
C1015 N382 1.401 . S
C1009 C4 1.446 . S
C1029 C13 1.536 . S
C1035 N405 1.498 . S
C1049 C25 1.546 . S
C1055 N428 1.521 . S
C1075 N461 1.424 . S
C1069 C32 1.457 . S
C1089 C41 1.550 . S
C1095 C488 1.533 . S
C1115 C511 1.572 . S
C1109 C52 1.575 . S
C1129 C61 1.485 . S
C1135 C534 1.484 . S
C1155 C548 1.446 . S
C1149 C67 1.446 . S
C1169 C7 1.451 . S
C1175 C465 1.441 . S
C1189 C40 1.491 . S
C1195 N507 1.465 . S
C1215 N530 1.453 . S
C1209 C49 1.485 . S
C1229 C59 1.472 . S
C1235 N543 1.428 . S
C1255 N484 1.413 . S
C1249 C70 1.459 . S
C1275 C410 1.661 . S
C1269 C22 1.663 . S
C1289 C31 1.500 . S
C1295 C433 1.494 . S
C1315 C387 1.589 . S
C1309 C14 1.592 . S
C1335 C580 1.458 . S
C1329 C77 1.469 . S
C1349 C88 1.593 . S
C1355 C594 1.593 . S
C1369 C95 1.509 . S
C1375 N622 1.476 . S
C1395 N635 1.430 . S
C1389 C106 1.463 . S
C1409 C115 1.578 . S
C1415 C640 1.576 . S
C1429 C122 1.495 . S
C1435 N576 1.462 . S
C1449 C130 1.505 . S
C1455 N589 1.479 . S
C1469 C140 1.461 . S
C1475 C626 1.457 . S
C1495 N474 1.427 . S
C1489 C76 1.449 . S
C1509 C85 1.515 . S
C1515 N658 1.472 . S
C1535 N520 1.446 . S
C1529 C97 1.477 . S
C1549 C104 1.502 . S
C1555 C695 1.496 . S
C1569 C113 1.583 . S
C1575 C396 1.582 . S
C1595 C709 1.590 . S
C1589 C124 1.591 . S
C1609 C133 1.528 . S
C1615 C442 1.520 . S
C1635 N727 1.414 . S
C1629 C139 1.444 . S
C1649 C79 1.472 . S
C1655 N691 1.428 . S
C1675 N704 1.486 . S
C1669 C112 1.522 . S
C1689 C121 1.486 . S
C1695 N438 1.445 . S
C1715 C732 1.433 . S
C1709 C131 1.433 . S
C1729 C142 1.442 . S
C1735 N392 1.405 . S
C1749 C94 1.564 . S
C1755 C663 1.563 . S
C1769 C103 1.548 . S
C1775 C525 1.545 . S
C1789 C86 1.587 . S
C1795 C479 1.586 . S
C1809 C149 1.535 . S
C1815 C617 1.535 . S
C1835 C649 1.532 . S
C1829 C160 1.542 . S
C1849 C167 1.483 . S
C1855 N566 1.463 . S
C1869 C178 1.453 . S
C1875 N599 1.421 . S
C1889 C187 1.582 . S
C1895 C603 1.575 . S
C1909 C194 1.552 . S
C1915 N612 1.516 . S
C1935 N645 1.369 . S
C1929 C202 1.398 . S
C1949 C212 1.505 . S
C1955 C571 1.502 . S
C1975 N760 1.429 . S
C1969 C148 1.474 . S
C1989 C157 1.474 . S
C1995 N497 1.428 . S
C2015 N783 1.387 . S
C2009 C169 1.421 . S
C2029 C176 1.475 . S
C2035 N553 1.450 . S
C2049 C185 1.557 . S
C2055 C801 1.557 . S
C2069 C196 1.654 . S
C2075 C419 1.654 . S
C2095 N819 1.359 . S
C2089 C205 1.408 . S
C2109 C211 1.491 . S
C2115 C456 1.492 . S
C2135 C557 1.496 . S
C2129 C151 1.496 . S
C2155 N415 1.499 . S
C2149 C184 1.540 . S
C2169 C193 1.577 . S
C2175 C824 1.576 . S
C2189 C203 1.391 . S
C2195 N451 1.349 . S
C2215 N796 1.476 . S
C2209 C214 1.505 . S
C2235 C502 1.560 . S
C2229 C166 1.558 . S
C2255 C787 1.554 . S
C2249 C175 1.555 . S
C2275 C764 1.564 . S
C2269 C158 1.563 . S
C2289 C221 1.424 . S
C2295 N346 1.383 . S
C2309 C232 1.561 . S
C2315 C373 1.548 . S
C2335 C295 1.553 . S
C2329 C239 1.554 . S
C2355 N313 1.380 . S
C2349 C250 1.411 . S
C2375 C318 1.575 . S
C2369 C259 1.580 . S
C2395 C350 1.501 . S
C2389 C266 1.505 . S
C2415 N369 1.483 . S
C2409 C274 1.516 . S
C2429 C284 1.510 . S
C2435 N290 1.474 . S
C2449 C220 1.394 . S
C2455 N806 1.366 . S
C2475 N714 1.459 . S
C2469 C229 1.500 . S
C2495 C833 1.582 . S
C2489 C241 1.586 . S
C2515 C741 1.376 . S
C2509 C248 1.381 . S
C2529 C257 1.580 . S
C2535 C755 1.577 . S
C2555 C672 1.577 . S
C2549 C268 1.586 . S
C2575 C778 1.620 . S
C2569 C277 1.625 . S
C2589 C283 1.478 . S
C2595 N681 1.440 . S
C2615 N737 1.364 . S
C2609 C223 1.397 . S
C2635 N668 1.453 . S
C2629 C256 1.492 . S
C2655 N773 1.405 . S
C2649 C265 1.433 . S
C2669 C275 1.502 . S
C2675 C686 1.500 . S
C2689 C286 1.436 . S
C2695 N750 1.397 . S
C2709 C238 1.671 . S
C2715 C718 1.661 . S
C2729 C247 1.425 . S
C2735 N829 1.395 . S
C2755 C810 1.532 . S
C2749 C230 1.544 . S
