# Generated by pormake.
# Topology anh, (6,3)-cn, num edge types: 1
# Building blocks:
#     Node 0, Type 0, BuildingBlock: BETFEN_clean_sbu_0, # of connection points: 6
#     Node 1, Type 0, BuildingBlock: BETFEN_clean_sbu_0, # of connection points: 6
#     Node 2, Type 0, BuildingBlock: BETFEN_clean_sbu_0, # of connection points: 6
#     Node 3, Type 1, BuildingBlock: VETTIZ_charged_linker_0, # of connection points: 3
#     Node 4, Type 1, BuildingBlock: VETTIZ_charged_linker_0, # of connection points: 3
#     Node 5, Type 1, BuildingBlock: VETTIZ_charged_linker_0, # of connection points: 3
#     Node 6, Type 1, BuildingBlock: VETTIZ_charged_linker_0, # of connection points: 3
#     Node 7, Type 1, BuildingBlock: VETTIZ_charged_linker_0, # of connection points: 3
#     Node 8, Type 1, BuildingBlock: VETTIZ_charged_linker_0, # of connection points: 3
#     Edge 9, Type (0, 1), BuildingBlock: MIFKUJ_clean_linker_0, # of connection points: 2
#     Edge 10, Type (0, 1), BuildingBlock: MIFKUJ_clean_linker_0, # of connection points: 2
#     Edge 11, Type (0, 1), BuildingBlock: MIFKUJ_clean_linker_0, # of connection points: 2
#     Edge 12, Type (0, 1), BuildingBlock: MIFKUJ_clean_linker_0, # of connection points: 2
#     Edge 13, Type (0, 1), BuildingBlock: MIFKUJ_clean_linker_0, # of connection points: 2
#     Edge 14, Type (0, 1), BuildingBlock: MIFKUJ_clean_linker_0, # of connection points: 2
#     Edge 15, Type (0, 1), BuildingBlock: MIFKUJ_clean_linker_0, # of connection points: 2
#     Edge 16, Type (0, 1), BuildingBlock: MIFKUJ_clean_linker_0, # of connection points: 2
#     Edge 17, Type (0, 1), BuildingBlock: MIFKUJ_clean_linker_0, # of connection points: 2
#     Edge 18, Type (0, 1), BuildingBlock: MIFKUJ_clean_linker_0, # of connection points: 2
#     Edge 19, Type (0, 1), BuildingBlock: MIFKUJ_clean_linker_0, # of connection points: 2
#     Edge 20, Type (0, 1), BuildingBlock: MIFKUJ_clean_linker_0, # of connection points: 2
#     Edge 21, Type (0, 1), BuildingBlock: MIFKUJ_clean_linker_0, # of connection points: 2
#     Edge 22, Type (0, 1), BuildingBlock: MIFKUJ_clean_linker_0, # of connection points: 2
#     Edge 23, Type (0, 1), BuildingBlock: MIFKUJ_clean_linker_0, # of connection points: 2
#     Edge 24, Type (0, 1), BuildingBlock: MIFKUJ_clean_linker_0, # of connection points: 2
#     Edge 25, Type (0, 1), BuildingBlock: MIFKUJ_clean_linker_0, # of connection points: 2
#     Edge 26, Type (0, 1), BuildingBlock: MIFKUJ_clean_linker_0, # of connection points: 2
# Relax obj value: 0.168
# Max RMSD: 0.199
# Mean RMSD: 0.153
data_MOF--net-anh--node1-BETFEN_clean_sbu_0--node2-VETTIZ_charged_linker_0--edge1-MIFKUJ_clean_linker_0
_symmetry_space_group_name_H-M    P1
_symmetry_Int_Tables_number       1
_symmetry_cell_setting            triclinic
loop_
_symmetry_equiv_pos_as_xyz
'x, y, z'
_cell_length_a     43.893945
_cell_length_b     45.629721
_cell_length_c     83.005602
_cell_angle_alpha  90.298304
_cell_angle_beta   92.202628
_cell_angle_gamma 108.50912
loop_
_atom_site_label
_atom_site_type_symbol
_atom_site_fract_x
_atom_site_fract_y
_atom_site_fract_z
_atom_type_partial_charge
Pr0 Pr 0.02873 0.52766 0.15332 0.0
Pr1 Pr 0.05345 0.60196 0.14699 0.0
C2 C 1.00038 0.46971 0.16334 0.0
C3 C 0.96811 0.44783 0.16609 0.0
C4 C 0.94484 0.43757 0.15341 0.0
C5 C 0.9154 0.41501 0.15603 0.0
C6 C 0.90853 0.40229 0.17139 0.0
C7 C 0.93147 0.41338 0.18415 0.0
C8 C 0.96096 0.43578 0.18151 0.0
C9 C 0.04134 0.54623 0.12174 0.0
C10 C 0.97483 0.5663 0.14876 0.0
C11 C 0.07894 0.65759 0.13384 0.0
C12 C 0.10773 0.68393 0.13806 0.0
C13 C 0.1231 0.68577 0.15333 0.0
C14 C 0.15126 0.70994 0.15722 0.0
C15 C 0.16485 0.73266 0.14586 0.0
C16 C 0.1492 0.73082 0.13057 0.0
C17 C 0.12088 0.70659 0.1267 0.0
C18 C 0.05527 0.58994 0.18011 0.0
C19 C 0.10633 0.56281 0.15256 0.0
O20 O 1.01143 0.49339 0.17333 0.0
O21 O 1.00786 0.47641 0.14838 0.0
O22 O 0.02775 0.55858 0.13164 0.0
O23 O 0.04745 0.52234 0.12779 0.0
O24 O 0.99764 0.59162 0.14452 0.0
O25 O 0.98097 0.54081 0.15328 0.0
O26 O 0.08455 0.63266 0.12865 0.0
O27 O 0.05579 0.65181 0.14408 0.0
O28 O 0.04668 0.57102 0.16855 0.0
O29 O 0.06429 0.61782 0.17459 0.0
O30 O 0.08402 0.53927 0.15878 0.0
O31 O 0.09945 0.58623 0.14567 0.0
H32 H 0.94958 0.44645 0.14137 0.0
H33 H 0.89847 0.40686 0.14588 0.0
H34 H 0.92676 0.40458 0.19621 0.0
H35 H 0.97844 0.44336 0.19149 0.0
H36 H 0.11343 0.66836 0.16223 0.0
H37 H 0.16229 0.71088 0.16919 0.0
H38 H 0.15918 0.74772 0.12148 0.0
H39 H 0.10947 0.70534 0.1148 0.0
Pr40 Pr 0.57463 0.06023 0.51254 0.0
Pr41 Pr 0.50333 0.03934 0.51588 0.0
C42 C 0.63579 0.08712 0.50384 0.0
C43 C 0.65928 0.11803 0.50192 0.0
C44 C 0.69194 0.12109 0.50098 0.0
C45 C 0.71459 0.15009 0.49869 0.0
C46 C 0.705 0.17665 0.4973 0.0
C47 C 0.67216 0.17348 0.49845 0.0
C48 C 0.64952 0.14443 0.50075 0.0
C49 C 0.55574 0.04889 0.54412 0.0
C50 C 0.53733 0.11505 0.51597 0.0
C51 C 0.44211 1.01036 0.5237 0.0
C52 C 0.41748 0.98021 0.52 0.0
C53 C 0.41384 0.96673 0.5045 0.0
C54 C 0.3902 0.93833 0.5011 0.0
C55 C 0.36987 0.92256 0.51316 0.0
C56 C 0.37391 0.93603 0.52873 0.0
C57 C 0.39745 0.96458 0.53209 0.0
C58 C 0.52167 0.04856 0.48413 0.0
C59 C 0.54101 0.98442 0.5129 0.0
O60 O 0.61107 0.07901 0.49356 0.0
O61 O 0.62827 0.07858 0.51856 0.0
O62 O 0.54399 0.06346 0.53408 0.0
O63 O 0.57853 0.04027 0.53814 0.0
O64 O 0.51162 0.09269 0.52043 0.0
O65 O 0.5629 0.10818 0.51125 0.0
O66 O 0.46693 1.00993 0.53282 0.0
O67 O 0.44984 1.02964 0.5118 0.0
O68 O 0.5338 0.03497 0.4945 0.0
O69 O 0.49863 0.05704 0.48985 0.0
O70 O 0.56722 1.00684 0.50907 0.0
O71 O 0.5149 0.99122 0.51682 0.0
H72 H 0.6999 0.10095 0.50181 0.0
H73 H 0.73954 0.15155 0.49762 0.0
H74 H 0.66396 0.19346 0.49761 0.0
H75 H 0.62439 0.14253 0.50149 0.0
H76 H 0.42914 0.97822 0.49497 0.0
H77 H 0.38756 0.92902 0.48892 0.0
H78 H 0.3591 0.9244 0.53839 0.0
H79 H 0.40003 0.97447 0.54416 0.0
Pr80 Pr 0.52469 0.53674 0.81687 0.0
Pr81 Pr 0.54848 0.60901 0.82853 0.0
C82 C 0.50488 0.47914 0.80489 0.0
C83 C 0.51477 0.45265 0.81027 0.0
C84 C 0.51039 0.4425 0.82625 0.0
C85 C 0.52447 0.4211 0.83215 0.0
C86 C 0.54338 0.40957 0.82225 0.0
C87 C 0.54701 0.41896 0.80614 0.0
C88 C 0.53273 0.44027 0.80019 0.0
C89 C 0.53338 0.54883 0.84993 0.0
C90 C 0.60275 0.57262 0.82289 0.0
C91 C 0.56245 0.65849 0.84834 0.0
C92 C 0.54347 0.66908 0.85985 0.0
C93 C 0.50983 0.65779 0.85845 0.0
C94 C 0.49148 0.67123 0.86745 0.0
C95 C 0.50641 0.69611 0.87819 0.0
C96 C 0.54011 0.7053 0.88066 0.0
C97 C 0.55853 0.69201 0.87144 0.0
C98 C 0.55186 0.60361 0.795 0.0
C99 C 0.47077 0.5741 0.81877 0.0
O100 O 0.52729 0.50141 0.79822 0.0
O101 O 0.48788 0.48924 0.81489 0.0
O102 O 0.5213 0.563 0.83991 0.0
O103 O 0.54012 0.52612 0.84307 0.0
O104 O 0.59598 0.59534 0.83048 0.0
O105 O 0.58042 0.54988 0.81513 0.0
O106 O 0.56948 0.63348 0.85219 0.0
O107 O 0.55319 0.65892 0.83314 0.0
O108 O 0.54295 0.58261 0.80505 0.0
O109 O 0.55984 0.63037 0.8024 0.0
O110 O 0.47804 0.55084 0.81209 0.0
O111 O 0.49244 0.59707 0.82678 0.0
H112 H 0.49702 0.45183 0.83443 0.0
H113 H 0.52132 0.41424 0.84461 0.0
H114 H 0.56096 0.40988 0.79817 0.0
H115 H 0.53662 0.44787 0.78787 0.0
H116 H 0.49775 0.6398 0.8497 0.0
H117 H 0.46574 0.66358 0.86493 0.0
H118 H 0.55241 0.72389 0.88907 0.0
H119 H 0.58451 0.70062 0.87284 0.0
C120 C 0.61314 0.13272 0.21212 0.0
C121 C 0.63887 0.15508 0.22034 0.0
C122 C 0.64111 0.15491 0.23732 0.0
C123 C 0.59366 0.10986 0.23766 0.0
C124 C 0.59096 0.11024 0.22102 0.0
C125 C 0.56278 0.08392 0.21434 0.0
H126 H 0.4386 0.95428 0.22836 0.0
C127 C 0.56787 0.08289 0.24329 0.0
C128 C 0.54969 0.0674 0.22971 0.0
H129 H 0.46585 0.99741 0.18257 0.0
H130 H 0.50972 0.03751 0.19591 0.0
H131 H 0.5093 0.96185 0.24214 0.0
H132 H 0.44756 1.01764 0.24802 0.0
H133 H 0.46521 1.01453 0.26703 0.0
H134 H 0.43982 0.98014 0.2567 0.0
H135 H 0.4759 0.95076 0.2551 0.0
H136 H 0.51509 0.97547 0.2622 0.0
C137 C 0.57573 0.06359 0.20326 0.0
C138 C 0.53864 0.09778 0.2058 0.0
C139 C 0.55904 0.06272 0.30331 0.0
C140 C 0.53897 0.03871 0.31224 0.0
C141 C 0.5161 1.01372 0.30403 0.0
C142 C 0.51273 1.01305 0.28715 0.0
C143 C 0.5326 0.03754 0.27837 0.0
C144 C 0.55563 0.06153 0.28646 0.0
C145 C 0.57567 0.08476 0.27517 0.0
C146 C 0.56025 0.07125 0.25896 0.0
C147 C 0.53488 0.04379 0.2609 0.0
C148 C 0.61096 0.08467 0.27723 0.0
C149 C 0.57097 0.11638 0.27876 0.0
C150 C 0.45423 0.97215 0.22116 0.0
C151 C 0.44887 0.97255 0.20437 0.0
C152 C 0.46937 0.99667 0.19553 0.0
C153 C 0.49488 1.01987 0.20329 0.0
C154 C 0.49987 1.01909 0.22011 0.0
C155 C 0.47958 0.99553 0.22873 0.0
C156 C 0.48778 0.99871 0.24654 0.0
C157 C 0.51633 1.02808 0.24722 0.0
C158 C 0.5235 0.0399 0.23171 0.0
C159 C 0.49733 0.97021 0.25192 0.0
C160 C 0.45864 1.00278 0.25516 0.0
H161 H 0.62194 0.13369 0.25887 0.0
H162 H 0.61085 0.13223 0.19908 0.0
H163 H 0.53831 0.11923 0.21214 0.0
H164 H 0.51357 0.08223 0.20585 0.0
H165 H 0.54517 0.10385 0.19317 0.0
H166 H 0.59815 0.06072 0.2087 0.0
H167 H 0.58142 0.0743 0.19129 0.0
H168 H 0.55894 0.03993 0.20146 0.0
H169 H 0.57717 0.08195 0.30933 0.0
H170 H 0.50034 0.99503 0.31072 0.0
H171 H 0.49462 0.99361 0.2816 0.0
H172 H 0.61215 0.06199 0.28154 0.0
H173 H 0.625 0.10263 0.28612 0.0
H174 H 0.62344 0.08802 0.26573 0.0
H175 H 0.54543 0.11332 0.28125 0.0
H176 H 0.57647 0.13222 0.26849 0.0
H177 H 0.58594 0.12796 0.28949 0.0
H178 H 0.66034 0.1722 0.24394 0.0
C179 C 0.6187 0.13253 0.24599 0.0
C180 C 0.54116 0.63625 0.51913 0.0
C181 C 0.54362 0.66502 0.52704 0.0
C182 C 0.54836 0.66692 0.54385 0.0
C183 C 0.54719 0.61331 0.54511 0.0
C184 C 0.54317 0.61046 0.52852 0.0
C185 C 0.54134 0.57746 0.52315 0.0
H186 H 0.5473 0.43326 0.54973 0.0
C187 C 0.54742 0.58334 0.55191 0.0
C188 C 0.54424 0.56149 0.53927 0.0
H189 H 0.53608 0.45532 0.49996 0.0
H190 H 0.53685 0.50784 0.50812 0.0
H191 H 0.59849 0.49613 0.56148 0.0
H192 H 0.49557 0.45981 0.56101 0.0
H193 H 0.50612 0.48307 0.57849 0.0
H194 H 0.52015 0.45008 0.57646 0.0
H195 H 0.57667 0.46537 0.5741 0.0
H196 H 0.58703 0.50523 0.58042 0.0
C197 C 0.56972 0.57926 0.51248 0.0
C198 C 0.50874 0.56173 0.5143 0.0
C199 C 0.55473 0.57717 0.613 0.0
C200 C 0.55248 0.55279 0.6237 0.0
C201 C 0.54928 0.52328 0.61716 0.0
C202 C 0.5484 0.51827 0.60045 0.0
C203 C 0.55015 0.54281 0.58995 0.0
C204 C 0.55299 0.57152 0.59634 0.0
C205 C 0.55285 0.59453 0.58352 0.0
C206 C 0.54948 0.57491 0.56826 0.0
C207 C 0.54841 0.54486 0.57209 0.0
C208 C 0.58581 0.62062 0.5849 0.0
C209 C 0.52295 0.60521 0.58582 0.0
C210 C 0.54531 0.44925 0.54045 0.0
C211 C 0.5422 0.43992 0.52422 0.0
C212 C 0.53874 0.4617 0.51264 0.0
C213 C 0.5393 0.49217 0.51735 0.0
C214 C 0.54276 0.50103 0.53386 0.0
C215 C 0.54516 0.479 0.54491 0.0
C216 C 0.54656 0.49004 0.56193 0.0
C217 C 0.54627 0.5228 0.55966 0.0
C218 C 0.54406 0.53027 0.54318 0.0
C219 C 0.57867 0.48905 0.57005 0.0
C220 C 0.51575 0.46972 0.57002 0.0
H221 H 0.55374 0.64561 0.5655 0.0
H222 H 0.53765 0.63393 0.50615 0.0
H223 H 0.48872 0.56234 0.52197 0.0
H224 H 0.5055 0.53724 0.51137 0.0
H225 H 0.50672 0.57372 0.50289 0.0
H226 H 0.59287 0.5921 0.5189 0.0
H227 H 0.56777 0.59146 0.50112 0.0
H228 H 0.57064 0.55601 0.50931 0.0
H229 H 0.5577 0.60033 0.61739 0.0
H230 H 0.54683 0.50374 0.62492 0.0
H231 H 0.54622 0.49532 0.5964 0.0
H232 H 0.60526 0.61165 0.58947 0.0
H233 H 0.58509 0.63935 0.59332 0.0
H234 H 0.59406 0.63068 0.57312 0.0
H235 H 0.5033 0.58704 0.59155 0.0
H236 H 0.51177 0.60951 0.57428 0.0
H237 H 0.52903 0.62628 0.59363 0.0
H238 H 0.55046 0.68832 0.55024 0.0
C239 C 0.55021 0.64172 0.55277 0.0
C240 C 0.12311 0.56759 0.84675 0.0
C241 C 0.15343 0.57041 0.85414 0.0
C242 C 0.15737 0.57313 0.87102 0.0
C243 C 0.10187 0.57099 0.87312 0.0
C244 C 0.09765 0.56822 0.85651 0.0
C245 C 0.06395 0.56705 0.85102 0.0
H246 H 0.91767 0.57505 0.87224 0.0
C247 C 0.07155 0.57185 0.8799 0.0
C248 C 0.04902 0.56977 0.86705 0.0
H249 H 0.94647 0.56391 0.82403 0.0
H250 H 0.99873 0.5634 0.83478 0.0
H251 H 0.94585 0.52617 0.88805 0.0
H252 H 0.98212 0.62495 0.8844 0.0
H253 H 0.99324 0.61646 0.90391 0.0
H254 H 0.95119 0.60585 0.89782 0.0
H255 H 0.93181 0.55147 0.9002 0.0
H256 H 0.966 0.53988 0.90659 0.0
C257 C 0.04726 0.53552 0.84251 0.0
C258 C 0.06641 0.59508 0.84019 0.0
C259 C 0.06521 0.58061 0.94079 0.0
C260 C 0.04073 0.58276 0.95073 0.0
C261 C 1.0112 0.58297 0.94352 0.0
C262 C 1.00602 0.58085 0.92675 0.0
C263 C 0.03062 0.57854 0.91696 0.0
C264 C 0.05966 0.57862 0.92401 0.0
C265 C 0.08318 0.57656 0.91168 0.0
C266 C 0.06321 0.57466 0.89608 0.0
C267 C 0.03253 0.57578 0.89928 0.0
C268 C 0.09157 0.54644 0.91463 0.0
C269 C 0.1124 0.60666 0.91298 0.0
C270 C 0.93527 0.57283 0.86391 0.0
C271 C 0.92804 0.57003 0.84725 0.0
C272 C 0.95144 0.56621 0.83694 0.0
C273 C 0.9818 0.56608 0.84319 0.0
C274 C 0.98877 0.56958 0.85995 0.0
C275 C 0.96533 0.57253 0.86993 0.0
C276 C 0.97589 0.57529 0.88739 0.0
C277 C 1.00976 0.57397 0.88642 0.0
C278 C 1.01761 0.57074 0.87035 0.0
C279 C 0.95376 0.54697 0.89615 0.0
C280 C 0.97546 0.60712 0.89388 0.0
H281 H 0.13667 0.57549 0.89329 0.0
H282 H 0.11959 0.56568 0.83375 0.0
H283 H 0.0841 0.61637 0.8456 0.0
H284 H 0.04354 0.60018 0.83878 0.0
H285 H 0.07446 0.59137 0.82805 0.0
H286 H 0.05247 0.51659 0.84932 0.0
H287 H 0.05592 0.53519 0.83013 0.0
H288 H 1.02084 0.52948 0.84183 0.0
H289 H 0.08831 0.58076 0.94594 0.0
H290 H 0.9918 0.58422 0.9509 0.0
H291 H 0.98293 0.58096 0.92208 0.0
H292 H 0.06987 0.52732 0.91792 0.0
H293 H 0.10991 0.54966 0.92465 0.0
H294 H 0.10018 0.53782 0.90383 0.0
H295 H 0.10553 0.62635 0.91784 0.0
H296 H 0.12224 0.61461 0.90112 0.0
H297 H 0.13189 0.60375 0.92111 0.0
H298 H 0.18047 0.57524 0.8769 0.0
C299 C 0.13186 0.5733 0.88051 0.0
C300 C 0.96614 0.47518 0.45206 0.0
C301 C 0.94283 0.45075 0.44366 0.0
C302 C 0.94302 0.4494 0.4267 0.0
C303 C 0.98817 0.49658 0.42665 0.0
C304 C 0.98842 0.49795 0.4433 0.0
C305 C 1.01426 0.52626 0.45006 0.0
H306 H 0.1363 0.65792 0.4355 0.0
C307 C 1.01355 0.52394 0.42106 0.0
C308 C 0.02894 0.54169 0.43469 0.0
H309 H 0.10326 0.62173 0.48195 0.0
H310 H 0.06211 0.57865 0.46879 0.0
H311 H 0.13239 0.59214 0.41908 0.0
H312 H 0.06919 0.6473 0.41919 0.0
H313 H 0.06322 0.62922 0.4001 0.0
H314 H 0.10238 0.65557 0.40613 0.0
H315 H 0.14075 0.62877 0.40938 0.0
H316 H 0.11781 0.59334 0.39914 0.0
C317 C 0.03848 0.51541 0.46049 0.0
C318 C 0.99792 0.54626 0.45934 0.0
C319 C 0.03096 0.538 0.36093 0.0
C320 C 0.05095 0.5621 0.3519 0.0
C321 C 0.07138 0.58855 0.36024 0.0
C322 C 0.07242 0.59067 0.3771 0.0
C323 C 0.05256 0.5663 0.38589 0.0
C324 C 0.0319 0.54078 0.37779 0.0
C325 C 1.01106 0.51807 0.3891 0.0
C326 C 1.02322 0.53392 0.40533 0.0
C327 C 0.04777 0.56191 0.40336 0.0
C328 C 1.01839 0.48718 0.38743 0.0
C329 C 0.97548 0.5157 0.38512 0.0
C330 C 0.12049 0.64057 0.44289 0.0
C331 C 0.12335 0.64307 0.45979 0.0
C332 C 0.10156 0.62037 0.4689 0.0
C333 C 0.07781 0.5953 0.46123 0.0
C334 C 0.07567 0.59297 0.44428 0.0
C335 C 0.09678 0.61558 0.43546 0.0
C336 C 0.09119 0.60992 0.41761 0.0
C337 C 0.06357 0.57984 0.41706 0.0
C338 C 0.05438 0.56986 0.43268 0.0
C339 C 0.12208 0.60599 0.4108 0.0
C340 C 0.08118 0.63688 0.41025 0.0
H341 H 0.9642 0.46953 0.40532 0.0
H342 H 0.96656 0.47687 0.46509 0.0
H343 H 0.97549 0.54664 0.45276 0.0
H344 H 1.01299 0.5707 0.46061 0.0
H345 H 0.99139 0.53694 0.47152 0.0
H346 H 0.04301 0.49524 0.45468 0.0
H347 H 0.02909 0.50827 0.47259 0.0
H348 H 0.0623 0.53317 0.46198 0.0
H349 H 1.01495 0.51726 0.3551 0.0
H350 H 0.08637 0.608 0.35376 0.0
H351 H 0.08859 0.61136 0.38262 0.0
H352 H 0.04465 0.4915 0.38639 0.0
H353 H 1.00596 0.47398 0.37648 0.0
H354 H 1.01172 0.47231 0.39802 0.0
H355 H 0.97355 0.53715 0.37947 0.0
H356 H 0.96118 0.51319 0.39602 0.0
H357 H 0.96369 0.49618 0.37661 0.0
H358 H 0.92577 0.43057 0.41995 0.0
C359 C 0.96548 0.47203 0.41819 0.0
C360 C 0.42901 0.93976 0.81641 0.0
C361 C 0.41873 0.90949 0.8102 0.0
C362 C 0.4173 0.90461 0.79336 0.0
C363 C 0.44058 0.96 0.78957 0.0
C364 C 0.44046 0.96435 0.80607 0.0
C365 C 0.45736 0.99697 0.81147 0.0
H366 H 0.54937 0.14083 0.79469 0.0
C367 C 0.45716 0.99052 0.7826 0.0
C368 C 0.46712 1.01199 0.7955 0.0
H369 H 0.52059 0.1022 0.84125 0.0
H370 H 0.48856 0.05419 0.82847 0.0
H371 H 0.55957 0.07789 0.77764 0.0
H372 H 0.48381 0.11843 0.77843 0.0
H373 H 0.47571 0.09553 0.7607 0.0
H374 H 0.51251 0.12772 0.76297 0.0
H375 H 0.56131 0.1152 0.77005 0.0
H376 H 0.54495 0.08104 0.75777 0.0
C377 C 0.4869 0.99733 0.82258 0.0
C378 C 0.43264 1.00957 0.81952 0.0
C379 C 0.47559 1.00328 0.72219 0.0
C380 C 0.48923 1.02965 0.71283 0.0
C381 C 0.49852 0.05905 0.72049 0.0
C382 C 0.49656 0.06213 0.73711 0.0
C383 C 0.4848 0.03567 0.74635 0.0
C384 C 0.47321 1.00691 0.73889 0.0
C385 C 0.45886 0.98187 0.75081 0.0
C386 C 0.46459 1.00047 0.76656 0.0
C387 C 0.48071 1.03185 0.7638 0.0
C388 C 0.47794 0.95863 0.75067 0.0
C389 C 0.42265 0.96731 0.74631 0.0
C390 C 0.53674 0.12168 0.8021 0.0
C391 C 0.53803 0.12488 0.81899 0.0
C392 C 0.52018 0.10004 0.82823 0.0
C393 C 0.50162 0.07221 0.82076 0.0
C394 C 0.50093 0.06915 0.80387 0.0
C395 C 0.51797 0.09375 0.79481 0.0
C396 C 0.51312 0.08674 0.77699 0.0
C397 C 0.49179 0.05314 0.77692 0.0
C398 C 0.48485 0.04317 0.79267 0.0
C399 C 0.54641 0.09045 0.77012 0.0
C400 C 0.49556 0.10823 0.76928 0.0
H401 H 0.42752 0.92482 0.77029 0.0
H402 H 0.43034 0.94419 0.82931 0.0
H403 H 0.40885 1.00119 0.8129 0.0
H404 H 0.43947 0.03505 0.81937 0.0
H405 H 0.42908 1.00177 0.83216 0.0
H406 H 0.49496 0.97697 0.82021 0.0
H407 H 0.48121 0.99698 0.83551 0.0
H408 H 0.50841 1.01737 0.82052 0.0
H409 H 0.46765 0.98032 0.71678 0.0
H410 H 0.50757 0.07994 0.71364 0.0
H411 H 0.50462 0.08508 0.74214 0.0
H412 H 0.50417 0.97101 0.75009 0.0
H413 H 0.47052 0.9427 0.74003 0.0
H414 H 0.47527 0.9448 0.76169 0.0
H415 H 0.41185 0.98549 0.74282 0.0
H416 H 0.40869 0.95525 0.75644 0.0
H417 H 0.41883 0.95086 0.73594 0.0
H418 H 0.40954 0.88134 0.78833 0.0
C419 C 0.42808 0.92983 0.78296 0.0
C420 C 0.6246 0.56537 0.12531 0.0
C421 C 0.65366 0.56823 0.11777 0.0
C422 C 0.65462 0.57054 0.10091 0.0
C423 C 0.59866 0.56783 0.09914 0.0
C424 C 0.59739 0.56559 0.11572 0.0
C425 C 0.56459 0.56434 0.12139 0.0
H426 H 0.41476 0.57193 0.10112 0.0
C427 C 0.56711 0.5682 0.09255 0.0
C428 C 0.54684 0.56651 0.10547 0.0
H429 H 0.45144 0.56039 0.14885 0.0
H430 H 0.50205 0.56027 0.13782 0.0
H431 H 0.47804 0.62147 0.08898 0.0
H432 H 0.43981 0.5225 0.08448 0.0
H433 H 0.45674 0.53551 0.066 0.0
H434 H 0.42388 0.54756 0.07271 0.0
H435 H 0.44392 0.6021 0.07595 0.0
H436 H 0.48443 0.61175 0.06918 0.0
C437 C 0.56876 0.59262 0.13258 0.0
C438 C 0.54955 0.53298 0.12954 0.0
C439 C 0.5497 0.57217 0.03184 0.0
C440 C 0.52356 0.57361 0.02193 0.0
C441 C 0.49559 0.57526 0.02913 0.0
C442 C 0.49345 0.57481 0.04595 0.0
C443 C 0.51963 0.57284 0.05571 0.0
C444 C 0.54725 0.57193 0.04861 0.0
C445 C 0.573 0.57082 0.06082 0.0
C446 C 0.5559 0.57018 0.07645 0.0
C447 C 0.52471 0.57129 0.07338 0.0
C448 C 0.602 0.6008 0.05937 0.0
C449 C 0.58079 0.54042 0.05788 0.0
C450 C 0.43379 0.56974 0.10927 0.0
C451 C 0.42932 0.56671 0.12589 0.0
C452 C 0.45439 0.56292 0.13599 0.0
C453 C 0.48374 0.56297 0.12956 0.0
C454 C 0.48791 0.56652 0.11285 0.0
C455 C 0.46282 0.56942 0.10306 0.0
C456 C 0.47028 0.57155 0.08557 0.0
C457 C 0.50424 0.57008 0.08633 0.0
C458 C 0.51488 0.56736 0.10232 0.0
C459 C 0.46894 0.6032 0.07945 0.0
C460 C 0.44644 0.54303 0.07659 0.0
H461 H 0.62993 0.57196 0.07883 0.0
H462 H 0.62335 0.5637 0.13829 0.0
H463 H 0.55411 0.514 0.12257 0.0
H464 H 0.52318 0.52654 0.13006 0.0
H465 H 0.56003 0.53318 0.14195 0.0
H466 H 0.58518 0.61388 0.1273 0.0
H467 H 0.57924 0.58941 0.14458 0.0
H468 H 0.54601 0.59741 0.13432 0.0
H469 H 0.57174 0.57144 0.02666 0.0
H470 H 0.47508 0.57625 0.02173 0.0
H471 H 0.47139 0.57582 0.05067 0.0
H472 H 0.59454 0.61984 0.05393 0.0
H473 H 0.62058 0.59691 0.05169 0.0
H474 H 0.61325 0.61029 0.07125 0.0
H475 H 0.55841 0.52099 0.05489 0.0
H476 H 0.59178 0.53284 0.06858 0.0
H477 H 0.59694 0.5427 0.04765 0.0
H478 H 0.67665 0.57252 0.09489 0.0
C479 C 0.62739 0.57022 0.09159 0.0
H480 H 0.15816 0.6069 0.14074 0.0
H481 H 0.21289 0.60551 0.13884 0.0
H482 H 0.18677 0.5173 0.16217 0.0
H483 H 0.13153 0.51849 0.16423 0.0
H484 H 0.24748 0.55696 0.17294 0.0
H485 H 0.1914 0.51835 0.12272 0.0
H486 H 0.15699 0.51919 0.09865 0.0
H487 H 0.22576 0.60371 0.08386 0.0
H488 H 0.26036 0.60366 0.10799 0.0
H489 H 0.38991 0.52615 0.14647 0.0
H490 H 0.33536 0.52382 0.15356 0.0
H491 H 0.34434 0.60648 0.12656 0.0
H492 H 0.39832 0.60852 0.1193 0.0
H493 H 0.29017 0.56422 0.11811 0.0
H494 H 0.3449 0.60468 0.16881 0.0
H495 H 0.37885 0.60519 0.19325 0.0
H496 H 0.3131 0.51827 0.20721 0.0
H497 H 0.27896 0.51705 0.18273 0.0
C498 C 0.1639 0.58719 0.14558 0.0
C499 C 0.14018 0.56263 0.1525 0.0
C500 C 0.19531 0.58646 0.14445 0.0
C501 C 0.20387 0.56111 0.15015 0.0
C502 C 0.18068 0.53705 0.15764 0.0
C503 C 0.14908 0.53774 0.15876 0.0
C504 C 0.23666 0.55942 0.14756 0.0
C505 C 0.25672 0.55806 0.16094 0.0
C506 C 0.24886 0.56129 0.13193 0.0
C507 C 0.22836 0.56112 0.11724 0.0
C508 C 0.1991 0.53722 0.11439 0.0
C509 C 0.17956 0.53755 0.10073 0.0
C510 C 0.18915 0.56152 0.08975 0.0
C511 C 0.21836 0.58516 0.09238 0.0
C512 C 0.23795 0.58498 0.10604 0.0
C513 C 0.3804 0.54411 0.14234 0.0
C514 C 0.3983 0.56741 0.13225 0.0
C515 C 0.3492 0.54276 0.14637 0.0
C516 C 0.33557 0.56496 0.14058 0.0
C517 C 0.35408 0.58891 0.13107 0.0
C518 C 0.38499 0.59011 0.12695 0.0
C519 C 0.30152 0.56258 0.14352 0.0
C520 C 0.28105 0.56299 0.13014 0.0
C521 C 0.28907 0.55991 0.15915 0.0
C522 C 0.30958 0.56061 0.17385 0.0
C523 C 0.33783 0.58555 0.17702 0.0
C524 C 0.35708 0.58599 0.1909 0.0
C525 C 0.3482 0.56173 0.20175 0.0
C526 C 0.31999 0.53702 0.19878 0.0
C527 C 0.30067 0.53645 0.18491 0.0
H528 H 0.36313 0.56212 0.21249 0.0
H529 H 0.17398 0.56174 0.07918 0.0
H530 H 0.69826 0.22114 0.47671 0.0
H531 H 0.73872 0.26982 0.47015 0.0
H532 H 0.807 0.2499 0.50351 0.0
H533 H 0.76629 0.20148 0.51052 0.0
H534 H 0.81123 0.31115 0.50498 0.0
H535 H 0.81012 0.2363 0.46408 0.0
H536 H 0.78549 0.19611 0.44327 0.0
H537 H 0.75279 0.2608 0.41591 0.0
H538 H 0.77684 0.30128 0.43668 0.0
H539 H 0.95107 0.41776 0.47014 0.0
H540 H 0.91079 0.37338 0.48174 0.0
H541 H 0.83853 0.38478 0.44785 0.0
H542 H 0.87858 0.42872 0.43622 0.0
H543 H 0.83811 0.32691 0.4475 0.0
H544 H 0.83945 0.40205 0.48865 0.0
H545 H 0.86439 0.44199 0.50954 0.0
H546 H 0.89753 0.37699 0.53639 0.0
H547 H 0.87314 0.33675 0.51554 0.0
C548 C 0.72168 0.2273 0.48288 0.0
C549 C 0.72904 0.20724 0.49407 0.0
C550 C 0.7449 0.25506 0.47901 0.0
C551 C 0.77606 0.26332 0.48617 0.0
C552 C 0.78318 0.24395 0.49778 0.0
C553 C 0.75995 0.21614 0.50166 0.0
C554 C 0.80151 0.29145 0.48096 0.0
C555 C 0.81742 0.31449 0.49245 0.0
C556 C 0.80934 0.29597 0.46458 0.0
C557 C 0.79502 0.27173 0.45201 0.0
C558 C 0.79747 0.24189 0.45368 0.0
C559 C 0.78365 0.21907 0.44188 0.0
C560 C 0.76752 0.22588 0.42829 0.0
C561 C 0.76525 0.25555 0.42645 0.0
C562 C 0.779 0.27845 0.43823 0.0
C563 C 0.92645 0.41109 0.4654 0.0
C564 C 0.91804 0.42651 0.45218 0.0
C565 C 0.90344 0.38573 0.47202 0.0
C566 C 0.87156 0.37564 0.46565 0.0
C567 C 0.86297 0.3919 0.45289 0.0
C568 C 0.8859 0.41702 0.44624 0.0
C569 C 0.84749 0.34707 0.47144 0.0
C570 C 0.83195 0.32373 0.46005 0.0
C571 C 0.84014 0.34235 0.48789 0.0
C572 C 0.85476 0.36648 0.50045 0.0
C573 C 0.85228 0.39634 0.49894 0.0
C574 C 0.86627 0.41902 0.51079 0.0
C575 C 0.88261 0.41206 0.52426 0.0
C576 C 0.88491 0.38236 0.52593 0.0
C577 C 0.87098 0.35961 0.51411 0.0
H578 H 0.89343 0.42964 0.53342 0.0
H579 H 0.75683 0.20817 0.41917 0.0
H580 H 0.44353 0.67793 0.88736 0.0
H581 H 0.40832 0.71004 0.8848 0.0
H582 H 0.49123 0.79094 0.88088 0.0
H583 H 0.52611 0.75918 0.88207 0.0
H584 H 0.43249 0.80125 0.89407 0.0
H585 H 0.47319 0.75611 0.84842 0.0
H586 H 0.48038 0.71231 0.83327 0.0
H587 H 0.37827 0.66689 0.83161 0.0
H588 H 0.37068 0.71005 0.84724 0.0
H589 H 0.45961 0.90657 0.83473 0.0
H590 H 0.454 0.86607 0.85419 0.0
H591 H 0.36303 0.81335 0.83122 0.0
H592 H 0.36882 0.85452 0.81129 0.0
H593 H 0.40047 0.77898 0.83614 0.0
H594 H 0.36543 0.84258 0.87054 0.0
H595 H 0.36402 0.89101 0.88329 0.0
H596 H 0.45802 0.90556 0.90515 0.0
H597 H 0.46029 0.85752 0.89235 0.0
C598 C 0.45427 0.70265 0.88631 0.0
C599 C 0.48747 0.71566 0.88405 0.0
C600 C 0.43415 0.72098 0.88513 0.0
C601 C 0.44723 0.75267 0.88229 0.0
C602 C 0.48071 0.76645 0.88303 0.0
C603 C 0.50073 0.74807 0.88373 0.0
C604 C 0.4276 0.7696 0.87416 0.0
C605 C 0.42481 0.79627 0.8815 0.0
C606 C 0.41692 0.76252 0.85788 0.0
C607 C 0.42143 0.73598 0.84915 0.0
C608 C 0.45236 0.73651 0.84505 0.0
C609 C 0.45652 0.71185 0.83638 0.0
C610 C 0.42983 0.68683 0.8315 0.0
C611 C 0.39896 0.68621 0.83547 0.0
C612 C 0.39471 0.7107 0.84429 0.0
C613 C 0.43806 0.88664 0.83395 0.0
C614 C 0.41438 0.88387 0.82165 0.0
C615 C 0.43472 0.86358 0.84521 0.0
C616 C 0.4075 0.83715 0.84458 0.0
C617 C 0.38389 0.83392 0.83214 0.0
C618 C 0.38731 0.85719 0.82071 0.0
C619 C 0.40665 0.81171 0.85577 0.0
C620 C 0.40594 0.78334 0.84897 0.0
C621 C 0.41423 0.81748 0.8725 0.0
C622 C 0.41295 0.84628 0.88049 0.0
C623 C 0.38586 0.85613 0.87803 0.0
C624 C 0.38491 0.88355 0.88526 0.0
C625 C 0.41089 0.90133 0.89504 0.0
C626 C 0.43787 0.89171 0.89761 0.0
C627 C 0.43895 0.86432 0.8904 0.0
H628 H 0.41013 0.92257 0.90061 0.0
H629 H 0.43313 0.66818 0.82447 0.0
H630 H 0.92096 0.51886 0.15622 0.0
H631 H 0.86511 0.5183 0.15481 0.0
H632 H 0.89531 0.6123 0.13842 0.0
H633 H 0.95136 0.61328 0.14 0.0
H634 H 0.84984 0.60392 0.16051 0.0
H635 H 0.86319 0.55163 0.11203 0.0
H636 H 0.87798 0.51234 0.09647 0.0
H637 H 0.80767 0.44009 0.12046 0.0
H638 H 0.79277 0.47898 0.13633 0.0
H639 H 0.7097 0.61547 0.11941 0.0
H640 H 0.76239 0.61378 0.12912 0.0
H641 H 0.7187 0.5207 0.14534 0.0
H642 H 0.66563 0.52249 0.13556 0.0
H643 H 0.76908 0.5252 0.1262 0.0
H644 H 0.75176 0.57853 0.17261 0.0
H645 H 0.73726 0.61841 0.18779 0.0
H646 H 0.81491 0.68928 0.16742 0.0
H647 H 0.82961 0.64985 0.15192 0.0
C648 C 0.91584 0.5395 0.15234 0.0
C649 C 0.94081 0.56609 0.14815 0.0
C650 C 0.88379 0.53909 0.1515 0.0
C651 C 0.87588 0.56515 0.14635 0.0
C652 C 0.90077 0.5919 0.14244 0.0
C653 C 0.93285 0.59236 0.14328 0.0
C654 C 0.84169 0.56439 0.1447 0.0
C655 C 0.83224 0.58687 0.15291 0.0
C656 C 0.81843 0.54162 0.13514 0.0
C657 C 0.8271 0.51821 0.12548 0.0
C658 C 0.85104 0.52736 0.11406 0.0
C659 C 0.85941 0.50517 0.10517 0.0
C660 C 0.84383 0.47374 0.1075 0.0
C661 C 0.81975 0.46444 0.11869 0.0
C662 C 0.81131 0.48655 0.12762 0.0
C663 C 0.71126 0.59501 0.1255 0.0
C664 C 0.68366 0.56922 0.12691 0.0
C665 C 0.74138 0.59402 0.13103 0.0
C666 C 0.74459 0.56715 0.13803 0.0
C667 C 0.71681 0.54172 0.14003 0.0
C668 C 0.6865 0.54283 0.1346 0.0
C669 C 0.77727 0.56499 0.14186 0.0
C670 C 0.78651 0.54201 0.134 0.0
C671 C 0.80035 0.58738 0.15169 0.0
C672 C 0.79164 0.61121 0.16101 0.0
C673 C 0.7656 0.60263 0.17126 0.0
C674 C 0.75737 0.62516 0.17995 0.0
C675 C 0.77512 0.65636 0.17854 0.0
C676 C 0.80118 0.6651 0.16848 0.0
C677 C 0.8095 0.64266 0.15976 0.0
H678 H 0.76871 0.67377 0.18528 0.0
H679 H 0.85036 0.45659 0.10062 0.0
H680 H 0.37324 0.87532 0.4934 0.0
H681 H 0.33061 0.82739 0.48602 0.0
H682 H 0.26646 0.85265 0.51728 0.0
H683 H 0.30867 0.90121 0.5244 0.0
H684 H 0.2635 0.79006 0.51974 0.0
H685 H 0.25778 0.86217 0.47885 0.0
H686 H 0.27912 0.90093 0.45809 0.0
H687 H 0.30741 0.83437 0.43081 0.0
H688 H 0.28667 0.7953 0.45154 0.0
H689 H 0.11896 0.6796 0.48548 0.0
H690 H 0.16052 0.72582 0.49647 0.0
H691 H 0.22728 0.71226 0.46266 0.0
H692 H 0.18603 0.66626 0.45168 0.0
H693 H 0.22719 0.77023 0.46222 0.0
H694 H 0.23418 0.69832 0.50306 0.0
H695 H 0.21383 0.6594 0.52387 0.0
H696 H 0.18387 0.72483 0.5512 0.0
H697 H 0.20365 0.76404 0.53042 0.0
C698 C 0.35002 0.87092 0.49863 0.0
C699 C 0.34441 0.89242 0.50939 0.0
C700 C 0.32572 0.84336 0.49447 0.0
C701 C 0.29528 0.83657 0.501 0.0
C702 C 0.28981 0.85741 0.51213 0.0
C703 C 0.31405 0.88514 0.51622 0.0
C704 C 0.26897 0.80819 0.49576 0.0
C705 C 0.25519 0.78585 0.50721 0.0
C706 C 0.25857 0.80251 0.47936 0.0
C707 C 0.27095 0.8259 0.46683 0.0
C708 C 0.2688 0.85587 0.46849 0.0
C709 C 0.28075 0.87788 0.45672 0.0
C710 C 0.29469 0.87014 0.44316 0.0
C711 C 0.29665 0.84034 0.44133 0.0
C712 C 0.28477 0.81824 0.45308 0.0
C713 C 0.14266 0.68621 0.48059 0.0
C714 C 0.1491 0.6694 0.46762 0.0
C715 C 0.1664 0.71265 0.48686 0.0
C716 C 0.19708 0.72257 0.48039 0.0
C717 C 0.20375 0.70526 0.46777 0.0
C718 C 0.1801 0.67897 0.46149 0.0
C719 C 0.2219 0.7517 0.48615 0.0
C720 C 0.23537 0.77433 0.47477 0.0
C721 C 0.23203 0.75753 0.5026 0.0
C722 C 0.22006 0.734 0.51509 0.0
C723 C 0.22298 0.70433 0.51343 0.0
C724 C 0.21161 0.68223 0.52524 0.0
C725 C 0.19747 0.68961 0.53882 0.0
C726 C 0.19477 0.71913 0.54065 0.0
C727 C 0.20608 0.74131 0.52887 0.0
H728 H 0.18869 0.67248 0.54795 0.0
H729 H 0.30392 0.88722 0.43406 0.0
H730 H 0.60518 0.40985 0.81881 0.0
H731 H 0.62773 0.36885 0.82634 0.0
H732 H 0.53824 0.31806 0.84735 0.0
H733 H 0.51586 0.35892 0.84006 0.0
H734 H 0.58989 0.30827 0.8636 0.0
H735 H 0.54873 0.30912 0.80738 0.0
H736 H 0.54955 0.33382 0.78094 0.0
H737 H 0.64915 0.34165 0.77722 0.0
H738 H 0.64893 0.31732 0.80376 0.0
H739 H 0.5163 0.15654 0.84113 0.0
H740 H 0.54094 0.21021 0.84959 0.0
H741 H 0.62485 0.21487 0.82289 0.0
H742 H 0.59953 0.16105 0.81395 0.0
H743 H 0.60133 0.25572 0.81282 0.0
H744 H 0.63048 0.23238 0.86502 0.0
H745 H 0.6256 0.20545 0.89092 0.0
H746 H 0.54686 0.23734 0.90255 0.0
H747 H 0.55087 0.26407 0.87664 0.0
C748 C 0.59058 0.3901 0.82526 0.0
C749 C 0.55859 0.38715 0.82859 0.0
C750 C 0.60358 0.36693 0.8297 0.0
C751 C 0.58451 0.34031 0.83723 0.0
C752 C 0.55343 0.33851 0.84163 0.0
C753 C 0.54057 0.36175 0.83735 0.0
C754 C 0.59393 0.312 0.83789 0.0
C755 C 0.59282 0.29672 0.85259 0.0
C756 C 0.5989 0.29757 0.82357 0.0
C757 C 0.59893 0.3118 0.80757 0.0
C758 C 0.57081 0.31626 0.80093 0.0
C759 C 0.57117 0.33018 0.78595 0.0
C760 C 0.59942 0.33939 0.77743 0.0
C761 C 0.62733 0.33459 0.78386 0.0
C762 C 0.62711 0.32075 0.79886 0.0
C763 C 0.54045 0.16869 0.83752 0.0
C764 C 0.55589 0.15491 0.82674 0.0
C765 C 0.55473 0.19937 0.84249 0.0
C766 C 0.58495 0.21665 0.83699 0.0
C767 C 0.60156 0.20201 0.8273 0.0
C768 C 0.58704 0.1714 0.82213 0.0
C769 C 0.59537 0.25082 0.83847 0.0
C770 C 0.60017 0.26741 0.82409 0.0
C771 C 0.59353 0.26617 0.85309 0.0
C772 C 0.59105 0.25032 0.86883 0.0
C773 C 0.61202 0.23356 0.87305 0.0
C774 C 0.6094 0.21832 0.88775 0.0
C775 C 0.58595 0.2197 0.89838 0.0
C776 C 0.56507 0.23636 0.89433 0.0
C777 C 0.56757 0.25164 0.87964 0.0
H778 H 0.58395 0.20786 0.90975 0.0
H779 H 0.59966 0.35016 0.76583 0.0
H780 H 0.59078 0.96102 0.50707 0.0
H781 H 0.59067 0.90735 0.50741 0.0
H782 H 0.49056 0.87722 0.51867 0.0
H783 H 0.49081 0.93103 0.51873 0.0
H784 H 0.51731 0.8443 0.53559 0.0
H785 H 0.52166 0.86757 0.47936 0.0
H786 H 0.54298 0.89689 0.45515 0.0
H787 H 0.63319 0.88045 0.46387 0.0
H788 H 0.61255 0.85136 0.48826 0.0
H789 H 0.4904 0.68375 0.52304 0.0
H790 H 0.48906 0.73647 0.51861 0.0
H791 H 0.59084 0.76692 0.51114 0.0
H792 H 0.59198 0.71396 0.51545 0.0
H793 H 0.56315 0.79934 0.49179 0.0
H794 H 0.55872 0.77635 0.54801 0.0
H795 H 0.53729 0.74668 0.5721 0.0
H796 H 0.44688 0.76267 0.56324 0.0
H797 H 0.46762 0.79202 0.53893 0.0
C798 C 0.56861 0.94307 0.50957 0.0
C799 C 0.54077 0.95095 0.5128 0.0
C800 C 0.5685 0.912 0.50966 0.0
C801 C 0.54044 0.88732 0.5128 0.0
C802 C 0.51269 0.89524 0.51616 0.0
C803 C 0.51282 0.92633 0.51614 0.0
C804 C 0.54009 0.85363 0.51283 0.0
C805 C 0.52692 0.83455 0.52582 0.0
C806 C 0.55323 0.84021 0.50042 0.0
C807 C 0.56566 0.85755 0.48573 0.0
C808 C 0.54612 0.87039 0.47618 0.0
C809 C 0.55807 0.88694 0.46241 0.0
C810 C 0.58945 0.8906 0.458 0.0
C811 C 0.60891 0.87763 0.46731 0.0
C812 C 0.59709 0.86109 0.4811 0.0
C813 C 0.51226 0.70135 0.51976 0.0
C814 C 0.54107 0.69399 0.51905 0.0
C815 C 0.51165 0.73189 0.51753 0.0
C816 C 0.53997 0.75651 0.51478 0.0
C817 C 0.56849 0.74885 0.51321 0.0
C818 C 0.56909 0.71825 0.51548 0.0
C819 C 0.54016 0.79009 0.51447 0.0
C820 C 0.5534 0.80913 0.50149 0.0
C821 C 0.52706 0.8035 0.52688 0.0
C822 C 0.51462 0.78611 0.54156 0.0
C823 C 0.5342 0.77336 0.55113 0.0
C824 C 0.52218 0.75661 0.56483 0.0
C825 C 0.49072 0.75273 0.56917 0.0
C826 C 0.47123 0.76565 0.55985 0.0
C827 C 0.4831 0.78235 0.54611 0.0
H828 H 0.48146 0.73976 0.57979 0.0
H829 H 0.59866 0.90343 0.44734 0.0
H830 H 0.62723 0.53294 0.8068 0.0
H831 H 0.68258 0.53195 0.80768 0.0
H832 H 0.71044 0.61011 0.8407 0.0
H833 H 0.65526 0.61167 0.83966 0.0
H834 H 0.7541 0.61694 0.81841 0.0
H835 H 0.6979 0.53417 0.85328 0.0
H836 H 0.65513 0.48605 0.85954 0.0
H837 H 0.686 0.43754 0.82232 0.0
H838 H 0.72878 0.4855 0.81572 0.0
H839 H 0.89754 0.61065 0.85624 0.0
H840 H 0.84313 0.60995 0.84873 0.0
H841 H 0.83144 0.5321 0.81666 0.0
H842 H 0.88612 0.53225 0.82453 0.0
H843 H 0.77957 0.52265 0.83482 0.0
H844 H 0.8389 0.60349 0.8016 0.0
H845 H 0.88139 0.65136 0.79479 0.0
H846 H 0.84446 0.70315 0.82782 0.0
H847 H 0.80199 0.6555 0.83501 0.0
C848 C 0.64508 0.54998 0.81426 0.0
C849 C 0.63661 0.57232 0.82322 0.0
C850 C 0.67678 0.54929 0.81479 0.0
C851 C 0.70073 0.57068 0.82443 0.0
C852 C 0.69245 0.5933 0.83318 0.0
C853 C 0.66079 0.59412 0.8326 0.0
C854 C 0.73438 0.56957 0.8255 0.0
C855 C 0.75966 0.5964 0.82215 0.0
C856 C 0.74172 0.54243 0.82978 0.0
C857 C 0.71633 0.51349 0.83391 0.0
C858 C 0.69546 0.51329 0.84637 0.0
C859 C 0.67123 0.48604 0.84999 0.0
C860 C 0.66781 0.45878 0.84131 0.0
C861 C 0.68867 0.45868 0.82903 0.0
C862 C 0.71293 0.48588 0.82535 0.0
C863 C 0.8835 0.59342 0.84753 0.0
C864 C 0.89617 0.57139 0.84105 0.0
C865 C 0.85239 0.59319 0.84314 0.0
C866 C 0.83311 0.57113 0.83201 0.0
C867 C 0.84584 0.5494 0.82524 0.0
C868 C 0.87718 0.54967 0.82963 0.0
C869 C 0.79934 0.57031 0.82812 0.0
C870 C 0.77403 0.54311 0.83091 0.0
C871 C 0.79192 0.59707 0.82324 0.0
C872 C 0.81737 0.62585 0.81893 0.0
C873 C 0.83996 0.62504 0.8075 0.0
C874 C 0.86403 0.65215 0.80356 0.0
C875 C 0.86566 0.68027 0.81089 0.0
C876 C 0.84318 0.68135 0.82216 0.0
C877 C 0.81907 0.6543 0.82615 0.0
H878 H 0.88431 0.70123 0.80782 0.0
H879 H 0.64904 0.43771 0.84413 0.0
H880 H 0.21785 0.72846 0.16293 0.0
H881 H 0.26645 0.77025 0.17125 0.0
H882 H 0.23023 0.83579 0.1463 0.0
H883 H 0.18104 0.79409 0.13814 0.0
H884 H 0.29566 0.84526 0.14162 0.0
H885 H 0.22481 0.83176 0.18556 0.0
H886 H 0.1886 0.80215 0.20593 0.0
H887 H 0.26565 0.77459 0.22734 0.0
H888 H 0.30223 0.80368 0.20693 0.0
H889 H 0.40555 0.97948 0.18124 0.0
H890 H 0.35837 0.93944 0.16952 0.0
H891 H 0.38346 0.87049 0.19759 0.0
H892 H 0.43041 0.9104 0.20941 0.0
H893 H 0.32224 0.86412 0.20019 0.0
H894 H 0.39308 0.87648 0.15631 0.0
H895 H 0.42958 0.90506 0.13578 0.0
H896 H 0.35358 0.93396 0.11419 0.0
H897 H 0.31672 0.90588 0.13474 0.0
C898 C 0.22004 0.75177 0.15929 0.0
C899 C 0.19529 0.75794 0.15003 0.0
C900 C 0.24794 0.77561 0.16399 0.0
C901 C 0.25177 0.80616 0.15956 0.0
C902 C 0.22772 0.81235 0.14985 0.0
C903 C 0.19966 0.78847 0.14517 0.0
C904 C 0.28045 0.83164 0.16556 0.0
C905 C 0.30131 0.84974 0.15442 0.0
C906 C 0.28806 0.837 0.18226 0.0
C907 C 0.26618 0.81967 0.19462 0.0
C908 C 0.23397 0.81919 0.19453 0.0
C909 C 0.21339 0.80253 0.2061 0.0
C910 C 0.22479 0.78644 0.2179 0.0
C911 C 0.25684 0.78704 0.21818 0.0
C912 C 0.27751 0.80363 0.20662 0.0
C913 C 0.40125 0.95571 0.18472 0.0
C914 C 0.42163 0.9481 0.19629 0.0
C915 C 0.37427 0.93283 0.17802 0.0
C916 C 0.36741 0.90188 0.18261 0.0
C917 C 0.38814 0.89421 0.19392 0.0
C918 C 0.41494 0.91704 0.20068 0.0
C919 C 0.3379 0.87762 0.17626 0.0
C920 C 0.31672 0.85977 0.18737 0.0
C921 C 0.33013 0.87246 0.15954 0.0
C922 C 0.35224 0.88935 0.14717 0.0
C923 C 0.38423 0.88915 0.14727 0.0
C924 C 0.40497 0.90522 0.13561 0.0
C925 C 0.39394 0.92139 0.12371 0.0
C926 C 0.36211 0.92146 0.12343 0.0
C927 C 0.34127 0.90546 0.13507 0.0
H928 H 0.41003 0.93381 0.11469 0.0
H929 H 0.20882 0.77355 0.22684 0.0
H930 H 0.58953 0.16881 0.51704 0.0
H931 H 0.58998 0.2228 0.51748 0.0
H932 H 0.48649 0.19205 0.51531 0.0
H933 H 0.48588 0.13796 0.51536 0.0
H934 H 0.5164 0.24303 0.49317 0.0
H935 H 0.52112 0.21818 0.54948 0.0
H936 H 0.5437 0.19959 0.57351 0.0
H937 H 0.63438 0.27025 0.56813 0.0
H938 H 0.61246 0.28897 0.54391 0.0
H939 H 0.49481 0.3907 0.50921 0.0
H940 H 0.49306 0.33648 0.50708 0.0
H941 H 0.58934 0.36114 0.52826 0.0
H942 H 0.59009 0.41475 0.53121 0.0
H943 H 0.56237 0.31179 0.54044 0.0
H944 H 0.56235 0.33682 0.48473 0.0
H945 H 0.54449 0.35562 0.45942 0.0
H946 H 0.45193 0.28635 0.46161 0.0
H947 H 0.46913 0.26737 0.48705 0.0
C948 C 0.56677 0.17338 0.51667 0.0
C949 C 0.53765 0.14851 0.51621 0.0
C950 C 0.56707 0.20451 0.51694 0.0
C951 C 0.53827 0.21209 0.51641 0.0
C952 C 0.50916 0.1873 0.51569 0.0
C953 C 0.50885 0.15615 0.5158 0.0
C954 C 0.53856 0.24561 0.5169 0.0
C955 C 0.5261 0.25794 0.50361 0.0
C956 C 0.5521 0.26589 0.53019 0.0
C957 C 0.56525 0.25477 0.54479 0.0
C958 C 0.54596 0.22958 0.55334 0.0
C959 C 0.55862 0.21905 0.56701 0.0
C960 C 0.59048 0.23367 0.57232 0.0
C961 C 0.60972 0.25891 0.56399 0.0
C962 C 0.59718 0.26951 0.5503 0.0
C963 C 0.51585 0.38467 0.5131 0.0
C964 C 0.5428 0.40756 0.52014 0.0
C965 C 0.51493 0.35334 0.51186 0.0
C966 C 0.54126 0.34375 0.51727 0.0
C967 C 0.56842 0.36699 0.52398 0.0
C968 C 0.56904 0.39805 0.52551 0.0
C969 C 0.54037 0.3098 0.51659 0.0
C970 C 0.5527 0.29721 0.5299 0.0
C971 C 0.52741 0.28951 0.50312 0.0
C972 C 0.51691 0.30091 0.48788 0.0
C973 C 0.53811 0.32575 0.47988 0.0
C974 C 0.52812 0.33641 0.4655 0.0
C975 C 0.49706 0.32225 0.45894 0.0
C976 C 0.47596 0.29734 0.46673 0.0
C977 C 0.48582 0.2866 0.48112 0.0
H978 H 0.48937 0.33054 0.44781 0.0
H979 H 0.60024 0.22549 0.58291 0.0
H980 H 0.44794 0.62138 0.82606 0.0
H981 H 0.39207 0.61942 0.82822 0.0
H982 H 0.36012 0.52342 0.81364 0.0
H983 H 0.41618 0.52539 0.81085 0.0
H984 H 0.31942 0.55103 0.80132 0.0
H985 H 0.36771 0.5481 0.85396 0.0
H986 H 0.40884 0.56642 0.87602 0.0
H987 H 0.38746 0.65178 0.879 0.0
H988 H 0.34701 0.63442 0.85669 0.0
H989 H 0.16474 0.52346 0.83727 0.0
H990 H 0.21679 0.5229 0.82755 0.0
H991 H 0.25858 0.61926 0.84109 0.0
H992 H 0.20697 0.61945 0.85113 0.0
H993 H 0.29324 0.58779 0.85373 0.0
H994 H 0.24668 0.59217 0.80075 0.0
H995 H 0.20621 0.57501 0.77832 0.0
H996 H 0.22323 0.48748 0.77624 0.0
H997 H 0.26351 0.50397 0.79881 0.0
C998 C 0.42908 0.59994 0.82306 0.0
C999 C 0.43665 0.57352 0.81837 0.0
C1000 C 0.3971 0.59884 0.82438 0.0
C1001 C 0.3718 0.57118 0.82147 0.0
C1002 C 0.37914 0.54504 0.81606 0.0
C1003 C 0.41126 0.54621 0.81449 0.0
C1004 C 0.3381 0.56944 0.82493 0.0
C1005 C 0.3136 0.55868 0.81286 0.0
C1006 C 0.33039 0.57979 0.83991 0.0
C1007 C 0.35448 0.59004 0.85354 0.0
C1008 C 0.37198 0.57089 0.85924 0.0
C1009 C 0.39526 0.58114 0.87178 0.0
C1010 C 0.40095 0.61033 0.87886 0.0
C1011 C 0.38329 0.62929 0.87345 0.0
C1012 C 0.36017 0.61925 0.86086 0.0
C1013 C 0.18486 0.54468 0.83766 0.0
C1014 C 0.18189 0.57158 0.84479 0.0
C1015 C 0.21464 0.54437 0.83215 0.0
C1016 C 0.2418 0.57106 0.83357 0.0
C1017 C 0.23816 0.59833 0.8399 0.0
C1018 C 0.20861 0.59854 0.84552 0.0
C1019 C 0.27463 0.57016 0.83 0.0
C1020 C 0.29898 0.58016 0.84217 0.0
C1021 C 0.28206 0.55912 0.81515 0.0
C1022 C 0.25786 0.54919 0.80159 0.0
C1023 C 0.24159 0.56916 0.7956 0.0
C1024 C 0.21873 0.55958 0.78285 0.0
C1025 C 0.21208 0.53014 0.77589 0.0
C1026 C 0.22836 0.51026 0.78166 0.0
C1027 C 0.25123 0.51972 0.79442 0.0
H1028 H 0.19438 0.52277 0.76602 0.0
H1029 H 0.41894 0.6182 0.88858 0.0
H1030 H 0.84774 0.39476 0.15844 0.0
H1031 H 0.79861 0.35162 0.16229 0.0
H1032 H 0.85144 0.30924 0.19432 0.0
H1033 H 0.90074 0.35129 0.18993 0.0
H1034 H 0.81297 0.26725 0.17437 0.0
H1035 H 0.80213 0.35055 0.20803 0.0
H1036 H 0.79918 0.40289 0.21307 0.0
H1037 H 0.71775 0.38447 0.17975 0.0
H1038 H 0.72047 0.33212 0.17438 0.0
H1039 H 0.7036 0.1712 0.22569 0.0
H1040 H 0.7453 0.21184 0.21284 0.0
H1041 H 0.6732 0.2319 0.18208 0.0
H1042 H 0.63099 0.19123 0.19519 0.0
H1043 H 0.7161 0.28437 0.19606 0.0
H1044 H 0.72214 0.19778 0.16589 0.0
H1045 H 0.72487 0.14522 0.16149 0.0
H1046 H 0.81517 0.16945 0.1884 0.0
H1047 H 0.81278 0.22204 0.19318 0.0
C1048 C 0.84896 0.37612 0.16619 0.0
C1049 C 0.87823 0.37665 0.17396 0.0
C1050 C 0.82077 0.3516 0.16849 0.0
C1051 C 0.82124 0.32731 0.17872 0.0
C1052 C 0.85044 0.32772 0.18638 0.0
C1053 C 0.87858 0.35204 0.18402 0.0
C1054 C 0.79152 0.30136 0.18165 0.0
C1055 C 0.79185 0.271 0.17919 0.0
C1056 C 0.76346 0.30621 0.18736 0.0
C1057 C 0.76174 0.33759 0.19066 0.0
C1058 C 0.78375 0.35775 0.2017 0.0
C1059 C 0.78209 0.3874 0.20463 0.0
C1060 C 0.75836 0.39703 0.1967 0.0
C1061 C 0.73616 0.377 0.18586 0.0
C1062 C 0.73773 0.34734 0.18287 0.0
C1063 C 0.69659 0.1842 0.21616 0.0
C1064 C 0.66403 0.17819 0.2115 0.0
C1065 C 0.72047 0.20725 0.20873 0.0
C1066 C 0.7124 0.22473 0.1964 0.0
C1067 C 0.67993 0.21857 0.19153 0.0
C1068 C 0.65591 0.19527 0.19894 0.0
C1069 C 0.73809 0.25033 0.18933 0.0
C1070 C 0.73698 0.2806 0.19096 0.0
C1071 C 0.76549 0.24543 0.18289 0.0
C1072 C 0.76718 0.21385 0.17996 0.0
C1073 C 0.74248 0.19185 0.17096 0.0
C1074 C 0.74398 0.16205 0.16839 0.0
C1075 C 0.77016 0.15399 0.17467 0.0
C1076 C 0.79492 0.17573 0.18353 0.0
C1077 C 0.79352 0.20556 0.18615 0.0
H1078 H 0.77127 0.1309 0.17267 0.0
H1079 H 0.75712 0.41999 0.19898 0.0
H1080 H 0.02674 0.59335 0.10656 0.0
H1081 H 0.03144 0.60586 0.07789 0.0
H1082 H 0.07134 0.53209 0.07011 0.0
H1083 H 0.06724 0.51989 0.09875 0.0
H1084 H 0.10199 0.58227 0.05315 0.0
H1085 H 0.99158 0.52193 0.06203 0.0
H1086 H 0.93955 0.51072 0.07499 0.0
H1087 H 0.93028 0.59636 0.05805 0.0
H1088 H 0.98248 0.60827 0.04517 0.0
H1089 H 0.06804 0.5482 0.96966 0.0
H1090 H 0.0727 0.54813 -0.0009 0.0
H1091 H 0.02871 0.62014 0.00156 0.0
H1092 H 1.02375 0.62011 0.97211 0.0
H1093 H 1.00172 0.57597 0.0216 0.0
H1094 H 0.10984 0.63439 0.01062 0.0
H1095 H 0.16202 0.64599 -0.00218 0.0
H1096 H 0.17617 0.56512 0.01868 0.0
H1097 H 0.12383 0.55276 0.03141 0.0
C1098 C 0.03676 0.58001 0.09873 0.0
C1099 C 0.04629 0.55543 0.1048 0.0
C1100 C 0.03936 0.58711 0.08237 0.0
C1101 C 0.05126 0.56957 0.07181 0.0
C1102 C 0.062 0.54585 0.07802 0.0
C1103 C 0.05951 0.53882 0.09436 0.0
C1104 C 0.05115 0.5748 0.05419 0.0
C1105 C 0.08005 0.58068 0.04621 0.0
C1106 C 1.02265 0.57348 0.04521 0.0
C1107 C 0.99108 0.56614 0.05278 0.0
C1108 C 0.97854 0.53846 0.06116 0.0
C1109 C 0.94901 0.53197 0.06848 0.0
C1110 C 0.93167 0.55285 0.06738 0.0
C1111 C 0.94377 0.58023 0.05891 0.0
C1112 C 0.97331 0.58685 0.05159 0.0
C1113 C 0.05983 0.56435 0.97647 0.0
C1114 C 0.04549 0.58413 0.96857 0.0
C1115 C 0.06252 0.56432 0.9933 0.0
C1116 C 0.05133 0.58435 0.00257 0.0
C1117 C 0.03746 0.60445 0.99468 0.0
C1118 C 0.03458 0.60436 0.97786 0.0
C1119 C 0.05255 0.58315 0.02046 0.0
C1120 C 1.0238 0.57794 0.02851 0.0
C1121 C 0.08121 0.58513 0.02948 0.0
C1122 C 0.11275 0.59251 0.02186 0.0
C1123 C 0.12394 0.61893 0.01237 0.0
C1124 C 0.15358 0.62567 0.00515 0.0
C1125 C 0.17236 0.60626 0.00741 0.0
C1126 C 0.16158 0.58012 0.01693 0.0
C1127 C 0.13194 0.57325 0.02417 0.0
H1128 H 0.19531 0.61152 0.00181 0.0
H1129 H 0.90882 0.5478 0.07306 0.0
H1130 H 0.5512 1.01387 0.46769 0.0
H1131 H 0.55777 1.01271 0.43857 0.0
H1132 H 0.51476 0.08521 0.43271 0.0
H1133 H 0.50668 0.0852 0.46167 0.0
H1134 H 0.48967 0.04413 0.41133 0.0
H1135 H 0.5984 0.09608 0.42923 0.0
H1136 H 0.64887 0.1038 0.44529 0.0
H1137 H 0.65833 1.02093 0.42449 0.0
H1138 H 0.60763 1.01245 0.40848 0.0
H1139 H 0.53835 0.08667 0.33165 0.0
H1140 H 0.53936 0.08849 0.36119 0.0
H1141 H 0.54602 0.99626 0.36258 0.0
H1142 H 0.54441 0.99408 0.33294 0.0
H1143 H 0.59061 0.04625 0.38569 0.0
H1144 H 0.47912 0.99613 0.36801 0.0
H1145 H 0.43 0.9926 0.35161 0.0
H1146 H 0.42852 0.07877 0.37204 0.0
H1147 H 0.47796 0.08303 0.38838 0.0
C1148 C 0.5434 1.02969 0.46016 0.0
C1149 C 0.52831 0.04953 0.46685 0.0
C1150 C 0.54733 1.02916 0.44353 0.0
C1151 C 0.53704 0.04909 0.43339 0.0
C1152 C 0.52275 0.06949 0.44022 0.0
C1153 C 0.51823 0.06956 0.45677 0.0
C1154 C 0.53956 0.04772 0.4156 0.0
C1155 C 0.51194 0.04502 0.4058 0.0
C1156 C 0.5684 0.04831 0.40826 0.0
C1157 C 0.59904 0.05347 0.41777 0.0
C1158 C 0.61112 0.07938 0.42817 0.0
C1159 C 0.63978 0.08391 0.43725 0.0
C1160 C 0.65675 0.06283 0.43594 0.0
C1161 C 0.64513 0.03722 0.42551 0.0
C1162 C 0.61645 1.03255 0.41642 0.0
C1163 C 0.54034 0.06692 0.33827 0.0
C1164 C 0.54121 0.0402 0.33007 0.0
C1165 C 0.5409 0.06798 0.35509 0.0
C1166 C 0.54281 0.04253 0.36398 0.0
C1167 C 0.54467 1.01615 0.35587 0.0
C1168 C 0.54352 1.01485 0.33901 0.0
C1169 C 0.5409 0.04294 0.38171 0.0
C1170 C 0.56852 0.04539 0.39139 0.0
C1171 C 0.5123 0.04274 0.38898 0.0
C1172 C 0.48241 0.04005 0.37928 0.0
C1173 C 0.46848 1.01446 0.36889 0.0
C1174 C 0.44055 1.0123 0.35963 0.0
C1175 C 0.42619 0.03549 0.36074 0.0
C1176 C 0.43969 0.06084 0.37117 0.0
C1177 C 0.46765 0.06313 0.38044 0.0
H1178 H 0.40457 0.03378 0.35356 0.0
H1179 H 0.67894 0.06638 0.44298 0.0
H1180 H 0.55284 0.55141 0.77941 0.0
H1181 H 0.5538 0.54304 0.75023 0.0
H1182 H 0.5527 0.63594 0.74205 0.0
H1183 H 0.5526 0.64471 0.77127 0.0
H1184 H 0.50401 0.58098 0.72304 0.0
H1185 H 0.61765 0.63086 0.73736 0.0
H1186 H 0.66738 0.63538 0.75347 0.0
H1187 H 0.66307 0.54416 0.73798 0.0
H1188 H 0.61301 0.53893 0.72196 0.0
H1189 H 0.52907 0.59317 0.64012 0.0
H1190 H 0.53061 0.6023 0.66899 0.0
H1191 H 0.57495 0.53137 0.67695 0.0
H1192 H 0.5767 0.52435 0.64796 0.0
H1193 H 0.60129 0.57412 0.69682 0.0
H1194 H 0.49116 0.52136 0.68277 0.0
H1195 H 0.43889 0.51063 0.66795 0.0
H1196 H 0.43239 0.59798 0.68401 0.0
H1197 H 0.48485 0.60942 0.69876 0.0
C1198 C 0.55279 0.56999 0.77137 0.0
C1199 C 0.55257 0.59866 0.77751 0.0
C1200 C 0.55341 0.56522 0.75476 0.0
C1201 C 0.55329 0.58889 0.74408 0.0
C1202 C 0.55277 0.61745 0.75017 0.0
C1203 C 0.55282 0.62244 0.7668 0.0
C1204 C 0.55363 0.58375 0.72652 0.0
C1205 C 0.52532 0.57988 0.71719 0.0
C1206 C 0.58111 0.58106 0.71916 0.0
C1207 C 0.61142 0.58439 0.72861 0.0
C1208 C 0.62715 0.61166 0.7375 0.0
C1209 C 0.65543 0.61438 0.74659 0.0
C1210 C 0.66833 0.59004 0.74679 0.0
C1211 C 0.65303 0.56298 0.73784 0.0
C1212 C 0.62473 0.56014 0.72874 0.0
C1213 C 0.53983 0.57988 0.6479 0.0
C1214 C 0.55277 0.55794 0.64151 0.0
C1215 C 0.54008 0.58473 0.66453 0.0
C1216 C 0.55216 0.56702 0.67527 0.0
C1217 C 0.56526 0.54524 0.66897 0.0
C1218 C 0.56581 0.54092 0.65231 0.0
C1219 C 0.55155 0.57153 0.69303 0.0
C1220 C 0.57981 0.57519 0.7025 0.0
C1221 C 0.52366 0.57315 0.7006 0.0
C1222 C 0.4921 0.56637 0.69174 0.0
C1223 C 0.4787 0.53838 0.68304 0.0
C1224 C 0.44902 0.53216 0.67467 0.0
C1225 C 0.43237 0.55364 0.675 0.0
C1226 C 0.44534 0.58137 0.68374 0.0
C1227 C 0.47503 0.58773 0.69212 0.0
H1228 H 0.40939 0.54878 0.66852 0.0
H1229 H 0.69021 0.59217 0.75384 0.0
H1230 H 0.52064 0.07719 0.56115 0.0
H1231 H 0.50705 0.06983 0.58952 0.0
H1232 H 0.55309 0.99922 0.59284 0.0
H1233 H 0.56805 1.00767 0.56477 0.0
H1234 H 0.47301 1.0266 0.60706 0.0
H1235 H 0.58802 0.99922 0.62927 0.0
H1236 H 0.6448 1.01152 0.62227 0.0
H1237 H 0.64151 0.09522 0.59996 0.0
H1238 H 0.58487 0.08362 0.60701 0.0
H1239 H 0.45233 0.98763 0.6899 0.0
H1240 H 0.46165 0.98555 0.66111 0.0
H1241 H 0.54655 0.0654 0.66718 0.0
H1242 H 0.53928 0.06574 0.69589 0.0
H1243 H 0.55977 1.03069 0.64792 0.0
H1244 H 0.46843 0.06674 0.65139 0.0
H1245 H 0.41387 0.06446 0.65885 0.0
H1246 H 0.3737 0.98088 0.63068 0.0
H1247 H 0.42809 0.98249 0.62321 0.0
C1248 C 0.52784 0.06014 0.56798 0.0
C1249 C 0.54582 0.04334 0.5609 0.0
C1250 C 0.51992 0.05581 0.58416 0.0
C1251 C 0.5295 0.03433 0.59345 0.0
C1252 C 0.54614 1.0165 0.58609 0.0
C1253 C 0.55461 1.02127 0.57003 0.0
C1254 C 0.5232 1.03144 0.61096 0.0
C1255 C 0.49197 1.02746 0.616 0.0
C1256 C 0.54798 0.03309 0.62271 0.0
C1257 C 0.5821 0.04033 0.61849 0.0
C1258 C 0.59945 1.02027 0.6229 0.0
C1259 C 0.6316 1.02713 0.61892 0.0
C1260 C 0.64671 0.05407 0.61062 0.0
C1261 C 0.62974 0.07429 0.60633 0.0
C1262 C 0.59761 0.06757 0.61029 0.0
C1263 C 0.4733 1.0044 0.68516 0.0
C1264 C 0.49469 1.02721 0.6953 0.0
C1265 C 0.47835 1.00347 0.6686 0.0
C1266 C 0.50446 1.02574 0.66181 0.0
C1267 C 0.52613 0.04799 0.672 0.0
C1268 C 0.52157 0.04847 0.68849 0.0
C1269 C 0.50963 1.02637 0.64414 0.0
C1270 C 0.54068 1.02967 0.63903 0.0
C1271 C 0.48501 1.02557 0.63242 0.0
C1272 C 0.45233 1.02454 0.6369 0.0
C1273 C 0.44797 0.04776 0.64689 0.0
C1274 C 0.41708 0.04661 0.6511 0.0
C1275 C 0.39034 1.02249 0.64529 0.0
C1276 C 0.39444 0.99951 0.63521 0.0
C1277 C 0.42528 1.00054 0.63097 0.0
H1278 H 0.36645 1.02164 0.64856 0.0
H1279 H 0.6716 0.05933 0.60754 0.0
H1280 H 0.55379 0.517 0.87332 0.0
H1281 H 0.55254 0.52365 0.90255 0.0
H1282 H 0.51452 0.5992 0.89537 0.0
H1283 H 0.51542 0.59245 0.86611 0.0
H1284 H 0.56241 0.6111 0.91996 0.0
H1285 H 0.4644 0.53254 0.90421 0.0
H1286 H 0.43057 0.48428 0.89073 0.0
H1287 H 0.47739 0.43212 0.91965 0.0
H1288 H 0.51188 0.48017 0.93315 0.0
H1289 H 0.50601 0.61044 -3e-05 0.0
H1290 H 0.50856 0.6084 0.97053 0.0
H1291 H 0.54737 0.5328 0.97443 0.0
H1292 H 0.54474 0.53462 0.00381 0.0
H1293 H 0.49747 0.52233 0.95128 0.0
H1294 H 0.596 0.60201 0.96684 0.0
H1295 H 0.62928 0.65071 0.98012 0.0
H1296 H 0.58023 0.70133 0.95149 0.0
H1297 H 0.54629 0.65283 0.9382 0.0
C1298 C 0.54537 0.53514 0.87799 0.0
C1299 C 0.53467 0.55418 0.86749 0.0
C1300 C 0.5446 0.53887 0.89465 0.0
C1301 C 0.53315 0.56172 0.90109 0.0
C1302 C 0.52343 0.58143 0.89063 0.0
C1303 C 0.52396 0.57755 0.87395 0.0
C1304 C 0.53039 0.56424 0.91872 0.0
C1305 C 0.54787 0.59188 0.92681 0.0
C1306 C 0.51172 0.53897 0.92761 0.0
C1307 C 0.49096 0.50999 0.91957 0.0
C1308 C 0.46769 0.51081 0.9076 0.0
C1309 C 0.44835 0.48349 0.89997 0.0
C1310 C 0.45189 0.45516 0.9043 0.0
C1311 C 0.47472 0.45409 0.9163 0.0
C1312 C 0.49415 0.48136 0.92395 0.0
C1313 C 0.51499 0.59335 0.99452 0.0
C1314 C 0.52526 0.57274 0.00415 0.0
C1315 C 0.51662 0.59233 0.97775 0.0
C1316 C 0.52834 0.57057 0.97035 0.0
C1317 C 0.53833 0.5498 0.97993 0.0
C1318 C 0.537 0.551 -0.00331 0.0
C1319 C 0.52981 0.56906 0.95259 0.0
C1320 C 0.51196 0.5416 0.94445 0.0
C1321 C 0.548 0.59455 0.94367 0.0
C1322 C 0.56833 0.62373 0.95167 0.0
C1323 C 0.59208 0.62348 0.96349 0.0
C1324 C 0.61111 0.65106 0.971 0.0
C1325 C 0.6068 0.67909 0.96669 0.0
C1326 C 0.58349 0.6796 0.95484 0.0
C1327 C 0.56436 0.65207 0.94731 0.0
H1328 H 0.62158 0.70042 0.97251 0.0
H1329 H 0.43688 0.43403 0.89839 0.0
H1330 H 0.0923 0.62421 0.20464 0.0
H1331 H 0.08986 0.61266 0.23349 0.0
H1332 H 1.01291 0.52772 0.22322 0.0
H1333 H 1.01584 0.53883 0.19425 0.0
H1334 H 1.00666 0.57694 0.24922 0.0
H1335 H 0.06885 0.51185 0.23291 0.0
H1336 H 0.1135 0.50208 0.21908 0.0
H1337 H 0.18177 0.57238 0.24837 0.0
H1338 H 0.13747 0.58294 0.26219 0.0
H1339 H 0.99957 0.53367 0.33091 0.0
H1340 H 0.99884 0.53133 0.3016 0.0
H1341 H 0.09924 0.58577 0.30254 0.0
H1342 H 0.10106 0.58558 0.33182 0.0
H1343 H 0.09039 0.54637 0.28017 0.0
H1344 H 0.03341 0.61612 0.29478 0.0
H1345 H 0.99193 0.63249 0.308 0.0
H1346 H 0.91776 0.56179 0.28183 0.0
H1347 H 0.95882 0.54476 0.26859 0.0
C1348 C 0.07509 0.60295 0.20855 0.0
C1349 C 0.05446 0.58221 0.1973 0.0
C1350 C 0.07374 0.59639 0.22497 0.0
C1351 C 0.05129 0.56933 0.23038 0.0
C1352 C 0.03049 0.54863 0.21919 0.0
C1353 C 0.03234 0.55486 0.2027 0.0
C1354 C 0.04915 0.5634 0.24784 0.0
C1355 C 1.02452 0.56964 0.25602 0.0
C1356 C 0.07316 0.55496 0.25662 0.0
C1357 C 0.09983 0.54839 0.24847 0.0
C1358 C 0.09337 0.52543 0.23629 0.0
C1359 C 0.11862 0.51971 0.22848 0.0
C1360 C 0.15045 0.53665 0.23281 0.0
C1361 C 0.1571 0.5593 0.24501 0.0
C1362 C 0.13193 0.56514 0.25285 0.0
C1363 C 1.02175 0.5446 0.32497 0.0
C1364 C 0.05033 0.5601 0.33391 0.0
C1365 C 1.02113 0.54367 0.30811 0.0
C1366 C 0.04878 0.55903 0.29976 0.0
C1367 C 0.07748 0.57389 0.30863 0.0
C1368 C 0.07833 0.57419 0.32547 0.0
C1369 C 0.0479 0.56019 0.28181 0.0
C1370 C 0.07211 0.55323 0.27348 0.0
C1371 C 1.02388 0.56875 0.27291 0.0
C1372 C 0.99917 0.57895 0.28084 0.0
C1373 C 1.00824 0.60393 0.29193 0.0
C1374 C 0.98482 0.61334 0.29941 0.0
C1375 C 0.95223 0.59812 0.29579 0.0
C1376 C 0.94301 0.57351 0.28465 0.0
C1377 C 0.96634 0.56398 0.27715 0.0
H1378 H 0.93413 0.60545 0.3016 0.0
H1379 H 0.16996 0.53219 0.22674 0.0
loop_
_geom_bond_atom_site_label_1
_geom_bond_atom_site_label_2
_geom_bond_distance
_geom_bond_site_symmetry_2
_ccdc_geom_bond_type
Pr0 C2 2.880 . S
Pr0 O20 2.562 . S
Pr0 O21 2.490 . S
Pr0 O22 2.695 1_655 S
Pr0 O23 2.512 . S
Pr0 O25 2.437 . S
Pr0 O28 2.436 . S
Pr0 O30 2.438 1_655 S
Pr1 C11 2.880 . S
Pr1 O22 2.436 . S
Pr1 O24 2.438 1_455 S
Pr1 O26 2.562 . S
Pr1 O27 2.490 . S
Pr1 O28 2.695 1_455 S
Pr1 O29 2.512 . S
Pr1 O31 2.437 . S
C2 Pr0 2.880 . S
C2 C3 1.491 . S
C2 O20 1.254 . S
C2 O21 1.225 . S
C3 C2 1.491 . S
C3 C4 1.392 . S
C3 C8 1.356 . S
C4 C3 1.392 . S
C4 C5 1.368 . S
C4 H32 0.929 . S
C5 C4 1.368 . S
C5 C6 1.386 . S
C5 H33 0.929 . S
C6 C5 1.386 . S
C6 C7 1.373 . S
C7 C6 1.373 . S
C7 C8 1.409 . S
C7 H34 0.931 . S
C8 C3 1.356 . S
C8 C7 1.409 . S
C8 H35 0.930 . S
C9 O22 1.270 . S
C9 O23 1.248 1_455 S
C10 O24 1.267 . S
C10 O25 1.278 . S
C11 Pr1 2.880 . S
C11 C12 1.491 . S
C11 O26 1.254 . S
C11 O27 1.225 . S
C12 C11 1.491 . S
C12 C13 1.392 . S
C12 C17 1.356 . S
C13 C12 1.392 . S
C13 C14 1.368 . S
C13 H36 0.929 . S
C14 C13 1.368 . S
C14 C15 1.386 . S
C14 H37 0.929 . S
C15 C14 1.386 . S
C15 C16 1.373 . S
C16 C15 1.373 . S
C16 C17 1.409 . S
C16 H38 0.931 . S
C17 C12 1.356 . S
C17 C16 1.409 . S
C17 H39 0.930 . S
C18 O28 1.270 1_455 S
C18 O29 1.248 . S
C19 O30 1.267 . S
C19 O31 1.278 . S
O20 Pr0 2.562 . S
O20 C2 1.254 . S
O21 Pr0 2.490 . S
O21 C2 1.225 . S
O22 Pr0 2.695 1_455 S
O22 Pr1 2.436 . S
O22 C9 1.270 . S
O23 Pr0 2.512 . S
O23 C9 1.248 1_655 S
O24 Pr1 2.438 1_655 S
O24 C10 1.267 . S
O25 Pr0 2.437 . S
O25 C10 1.278 . S
O26 Pr1 2.562 . S
O26 C11 1.254 . S
O27 Pr1 2.490 . S
O27 C11 1.225 . S
O28 Pr0 2.436 . S
O28 Pr1 2.695 1_655 S
O28 C18 1.270 1_655 S
O29 Pr1 2.512 . S
O29 C18 1.248 . S
O30 Pr0 2.438 1_455 S
O30 C19 1.267 . S
O31 Pr1 2.437 . S
O31 C19 1.278 . S
H32 C4 0.929 . S
H33 C5 0.929 . S
H34 C7 0.931 . S
H35 C8 0.930 . S
H36 C13 0.929 . S
H37 C14 0.929 . S
H38 C16 0.931 . S
H39 C17 0.930 . S
Pr40 C42 2.880 . S
Pr40 O60 2.562 . S
Pr40 O61 2.490 . S
Pr40 O62 2.695 . S
Pr40 O63 2.512 . S
Pr40 O65 2.437 . S
Pr40 O68 2.436 . S
Pr40 O70 2.438 1_545 S
Pr41 C51 2.868 1_545 S
Pr41 O62 2.434 . S
Pr41 O64 2.454 . S
Pr41 O66 2.550 1_545 S
Pr41 O67 2.480 1_545 S
Pr41 O68 2.698 . S
Pr41 O69 2.512 . S
Pr41 O71 2.422 1_545 S
C42 Pr40 2.880 . S
C42 C43 1.491 . S
C42 O60 1.254 . S
C42 O61 1.225 . S
C43 C42 1.491 . S
C43 C44 1.392 . S
C43 C48 1.356 . S
C44 C43 1.392 . S
C44 C45 1.368 . S
C44 H72 0.929 . S
C45 C44 1.368 . S
C45 C46 1.386 . S
C45 H73 0.929 . S
C46 C45 1.386 . S
C46 C47 1.373 . S
C47 C46 1.373 . S
C47 C48 1.409 . S
C47 H74 0.931 . S
C48 C43 1.356 . S
C48 C47 1.409 . S
C48 H75 0.930 . S
C49 O62 1.270 . S
C49 O63 1.248 . S
C50 O64 1.267 . S
C50 O65 1.278 . S
C51 Pr41 2.868 1_565 S
C51 C52 1.491 . S
C51 O66 1.254 . S
C51 O67 1.225 . S
C52 C51 1.491 . S
C52 C53 1.392 . S
C52 C57 1.356 . S
C53 C52 1.392 . S
C53 C54 1.368 . S
C53 H76 0.929 . S
C54 C53 1.368 . S
C54 C55 1.386 . S
C54 H77 0.929 . S
C55 C54 1.386 . S
C55 C56 1.373 . S
C56 C55 1.373 . S
C56 C57 1.409 . S
C56 H78 0.931 . S
C57 C52 1.356 . S
C57 C56 1.409 . S
C57 H79 0.930 . S
C58 O68 1.270 . S
C58 O69 1.248 . S
C59 O70 1.267 . S
C59 O71 1.278 . S
O60 Pr40 2.562 . S
O60 C42 1.254 . S
O61 Pr40 2.490 . S
O61 C42 1.225 . S
O62 Pr40 2.695 . S
O62 Pr41 2.434 . S
O62 C49 1.270 . S
O63 Pr40 2.512 . S
O63 C49 1.248 . S
O64 Pr41 2.454 . S
O64 C50 1.267 . S
O65 Pr40 2.437 . S
O65 C50 1.278 . S
O66 Pr41 2.550 1_565 S
O66 C51 1.254 . S
O67 Pr41 2.480 1_565 S
O67 C51 1.225 . S
O68 Pr40 2.436 . S
O68 Pr41 2.698 . S
O68 C58 1.270 . S
O69 Pr41 2.512 . S
O69 C58 1.248 . S
O70 Pr40 2.438 1_565 S
O70 C59 1.267 . S
O71 Pr41 2.422 1_565 S
O71 C59 1.278 . S
H72 C44 0.929 . S
H73 C45 0.929 . S
H74 C47 0.931 . S
H75 C48 0.930 . S
H76 C53 0.929 . S
H77 C54 0.929 . S
H78 C56 0.931 . S
H79 C57 0.930 . S
Pr80 C82 2.880 . S
Pr80 O100 2.562 . S
Pr80 O101 2.490 . S
Pr80 O102 2.695 . S
Pr80 O103 2.512 . S
Pr80 O105 2.437 . S
Pr80 O108 2.436 . S
Pr80 O110 2.438 . S
Pr81 C91 2.880 . S
Pr81 O102 2.436 . S
Pr81 O104 2.438 . S
Pr81 O106 2.562 . S
Pr81 O107 2.490 . S
Pr81 O108 2.695 . S
Pr81 O109 2.512 . S
Pr81 O111 2.437 . S
C82 Pr80 2.880 . S
C82 C83 1.491 . S
C82 O100 1.254 . S
C82 O101 1.225 . S
C83 C82 1.491 . S
C83 C84 1.392 . S
C83 C88 1.356 . S
C84 C83 1.392 . S
C84 C85 1.368 . S
C84 H112 0.929 . S
C85 C84 1.368 . S
C85 C86 1.386 . S
C85 H113 0.929 . S
C86 C85 1.386 . S
C86 C87 1.373 . S
C87 C86 1.373 . S
C87 C88 1.409 . S
C87 H114 0.931 . S
C88 C83 1.356 . S
C88 C87 1.409 . S
C88 H115 0.930 . S
C89 O102 1.270 . S
C89 O103 1.248 . S
C90 O104 1.267 . S
C90 O105 1.278 . S
C91 Pr81 2.880 . S
C91 C92 1.491 . S
C91 O106 1.254 . S
C91 O107 1.225 . S
C92 C91 1.491 . S
C92 C93 1.392 . S
C92 C97 1.356 . S
C93 C92 1.392 . S
C93 C94 1.368 . S
C93 H116 0.929 . S
C94 C93 1.368 . S
C94 C95 1.386 . S
C94 H117 0.929 . S
C95 C94 1.386 . S
C95 C96 1.373 . S
C96 C95 1.373 . S
C96 C97 1.409 . S
C96 H118 0.931 . S
C97 C92 1.356 . S
C97 C96 1.409 . S
C97 H119 0.930 . S
C98 O108 1.270 . S
C98 O109 1.248 . S
C99 O110 1.267 . S
C99 O111 1.278 . S
O100 Pr80 2.562 . S
O100 C82 1.254 . S
O101 Pr80 2.490 . S
O101 C82 1.225 . S
O102 Pr80 2.695 . S
O102 Pr81 2.436 . S
O102 C89 1.270 . S
O103 Pr80 2.512 . S
O103 C89 1.248 . S
O104 Pr81 2.438 . S
O104 C90 1.267 . S
O105 Pr80 2.437 . S
O105 C90 1.278 . S
O106 Pr81 2.562 . S
O106 C91 1.254 . S
O107 Pr81 2.490 . S
O107 C91 1.225 . S
O108 Pr80 2.436 . S
O108 Pr81 2.695 . S
O108 C98 1.270 . S
O109 Pr81 2.512 . S
O109 C98 1.248 . S
O110 Pr80 2.438 . S
O110 C99 1.267 . S
O111 Pr81 2.437 . S
O111 C99 1.278 . S
H112 C84 0.929 . S
H113 C85 0.929 . S
H114 C87 0.931 . S
H115 C88 0.930 . S
H116 C93 0.929 . S
H117 C94 0.929 . S
H118 C96 0.931 . S
H119 C97 0.930 . S
C120 C121 1.391 . S
C120 C124 1.391 . S
C120 H162 0.948 . S
C121 C120 1.391 . S
C121 C122 1.391 . S
C122 C121 1.391 . S
C122 H178 0.947 . S
C122 C179 1.392 . S
C123 C124 1.391 . S
C123 C127 1.397 . S
C123 C179 1.419 . S
C124 C120 1.391 . S
C124 C123 1.391 . S
C124 C125 1.399 . S
C125 C124 1.399 . S
C125 C128 1.396 . S
C125 C137 1.453 . S
C125 C138 1.684 . S
H126 C150 0.948 . S
C127 C123 1.397 . S
C127 C128 1.394 . S
C127 C146 1.723 . S
C128 C125 1.396 . S
C128 C127 1.394 . S
C128 C158 1.723 . S
H129 C152 0.947 . S
H130 C153 0.948 1_545 S
H131 C159 0.982 . S
H132 C160 0.979 . S
H133 C160 0.980 . S
H134 C160 0.983 . S
H135 C159 0.979 . S
H136 C159 0.977 . S
C137 C125 1.453 . S
C137 H166 0.982 . S
C137 H167 0.979 . S
C137 H168 0.977 . S
C138 C125 1.684 . S
C138 H163 0.979 . S
C138 H164 0.980 . S
C138 H165 0.983 . S
C139 C140 1.391 . S
C139 C144 1.391 . S
C139 H169 0.948 . S
C140 C139 1.391 . S
C140 C141 1.391 . S
C141 C140 1.391 . S
C141 C142 1.392 . S
C141 H170 0.947 1_545 S
C142 C141 1.392 . S
C142 C143 1.419 . S
C142 H171 0.948 1_545 S
C143 C142 1.419 . S
C143 C144 1.391 . S
C143 C147 1.397 . S
C144 C139 1.391 . S
C144 C143 1.391 . S
C144 C145 1.399 . S
C145 C144 1.399 . S
C145 C146 1.396 . S
C145 C148 1.453 . S
C145 C149 1.684 . S
C146 C127 1.723 . S
C146 C145 1.396 . S
C146 C147 1.394 . S
C147 C143 1.397 . S
C147 C146 1.394 . S
C147 C157 1.723 . S
C148 C145 1.453 . S
C148 H172 0.982 . S
C148 H173 0.979 . S
C148 H174 0.977 . S
C149 C145 1.684 . S
C149 H175 0.979 . S
C149 H176 0.980 . S
C149 H177 0.983 . S
C150 H126 0.948 . S
C150 C151 1.391 . S
C150 C155 1.391 . S
C151 C150 1.391 . S
C151 C152 1.391 . S
C152 H129 0.947 . S
C152 C151 1.391 . S
C152 C153 1.392 . S
C153 H130 0.948 1_565 S
C153 C152 1.392 . S
C153 C154 1.419 . S
C154 C153 1.419 . S
C154 C155 1.391 . S
C154 C158 1.397 1_565 S
C155 C150 1.391 . S
C155 C154 1.391 . S
C155 C156 1.399 . S
C156 C155 1.399 . S
C156 C157 1.396 1_565 S
C156 C159 1.453 . S
C156 C160 1.684 . S
C157 C147 1.723 . S
C157 C156 1.396 1_545 S
C157 C158 1.394 . S
C158 C128 1.723 . S
C158 C154 1.397 1_545 S
C158 C157 1.394 . S
C159 H131 0.982 . S
C159 H135 0.979 . S
C159 H136 0.977 . S
C159 C156 1.453 . S
C160 H132 0.979 . S
C160 H133 0.980 . S
C160 H134 0.983 . S
C160 C156 1.684 . S
H161 C179 0.948 . S
H162 C120 0.948 . S
H163 C138 0.979 . S
H164 C138 0.980 . S
H165 C138 0.983 . S
H166 C137 0.982 . S
H167 C137 0.979 . S
H168 C137 0.977 . S
H169 C139 0.948 . S
H170 C141 0.947 1_565 S
H171 C142 0.948 1_565 S
H172 C148 0.982 . S
H173 C148 0.979 . S
H174 C148 0.977 . S
H175 C149 0.979 . S
H176 C149 0.980 . S
H177 C149 0.983 . S
H178 C122 0.947 . S
C179 C122 1.392 . S
C179 C123 1.419 . S
C179 H161 0.948 . S
C180 C181 1.391 . S
C180 C184 1.391 . S
C180 H222 0.948 . S
C181 C180 1.391 . S
C181 C182 1.391 . S
C182 C181 1.391 . S
C182 H238 0.947 . S
C182 C239 1.392 . S
C183 C184 1.391 . S
C183 C187 1.397 . S
C183 C239 1.419 . S
C184 C180 1.391 . S
C184 C183 1.391 . S
C184 C185 1.399 . S
C185 C184 1.399 . S
C185 C188 1.396 . S
C185 C197 1.453 . S
C185 C198 1.684 . S
H186 C210 0.948 . S
C187 C183 1.397 . S
C187 C188 1.394 . S
C187 C206 1.723 . S
C188 C185 1.396 . S
C188 C187 1.394 . S
C188 C218 1.723 . S
H189 C212 0.947 . S
H190 C213 0.948 . S
H191 C219 0.982 . S
H192 C220 0.979 . S
H193 C220 0.980 . S
H194 C220 0.983 . S
H195 C219 0.979 . S
H196 C219 0.977 . S
C197 C185 1.453 . S
C197 H226 0.982 . S
C197 H227 0.979 . S
C197 H228 0.977 . S
C198 C185 1.684 . S
C198 H223 0.979 . S
C198 H224 0.980 . S
C198 H225 0.983 . S
C199 C200 1.391 . S
C199 C204 1.391 . S
C199 H229 0.948 . S
C200 C199 1.391 . S
C200 C201 1.391 . S
C201 C200 1.391 . S
C201 C202 1.392 . S
C201 H230 0.947 . S
C202 C201 1.392 . S
C202 C203 1.419 . S
C202 H231 0.948 . S
C203 C202 1.419 . S
C203 C204 1.391 . S
C203 C207 1.397 . S
C204 C199 1.391 . S
C204 C203 1.391 . S
C204 C205 1.399 . S
C205 C204 1.399 . S
C205 C206 1.396 . S
C205 C208 1.453 . S
C205 C209 1.684 . S
C206 C187 1.723 . S
C206 C205 1.396 . S
C206 C207 1.394 . S
C207 C203 1.397 . S
C207 C206 1.394 . S
C207 C217 1.723 . S
C208 C205 1.453 . S
C208 H232 0.982 . S
C208 H233 0.979 . S
C208 H234 0.977 . S
C209 C205 1.684 . S
C209 H235 0.979 . S
C209 H236 0.980 . S
C209 H237 0.983 . S
C210 H186 0.948 . S
C210 C211 1.391 . S
C210 C215 1.391 . S
C211 C210 1.391 . S
C211 C212 1.391 . S
C212 H189 0.947 . S
C212 C211 1.391 . S
C212 C213 1.392 . S
C213 H190 0.948 . S
C213 C212 1.392 . S
C213 C214 1.419 . S
C214 C213 1.419 . S
C214 C215 1.391 . S
C214 C218 1.397 . S
C215 C210 1.391 . S
C215 C214 1.391 . S
C215 C216 1.399 . S
C216 C215 1.399 . S
C216 C217 1.396 . S
C216 C219 1.453 . S
C216 C220 1.684 . S
C217 C207 1.723 . S
C217 C216 1.396 . S
C217 C218 1.394 . S
C218 C188 1.723 . S
C218 C214 1.397 . S
C218 C217 1.394 . S
C219 H191 0.982 . S
C219 H195 0.979 . S
C219 H196 0.977 . S
C219 C216 1.453 . S
C220 H192 0.979 . S
C220 H193 0.980 . S
C220 H194 0.983 . S
C220 C216 1.684 . S
H221 C239 0.948 . S
H222 C180 0.948 . S
H223 C198 0.979 . S
H224 C198 0.980 . S
H225 C198 0.983 . S
H226 C197 0.982 . S
H227 C197 0.979 . S
H228 C197 0.977 . S
H229 C199 0.948 . S
H230 C201 0.947 . S
H231 C202 0.948 . S
H232 C208 0.982 . S
H233 C208 0.979 . S
H234 C208 0.977 . S
H235 C209 0.979 . S
H236 C209 0.980 . S
H237 C209 0.983 . S
H238 C182 0.947 . S
C239 C182 1.392 . S
C239 C183 1.419 . S
C239 H221 0.948 . S
C240 C241 1.391 . S
C240 C244 1.391 . S
C240 H282 0.948 . S
C241 C240 1.391 . S
C241 C242 1.391 . S
C242 C241 1.391 . S
C242 H298 0.947 . S
C242 C299 1.392 . S
C243 C244 1.391 . S
C243 C247 1.397 . S
C243 C299 1.419 . S
C244 C240 1.391 . S
C244 C243 1.391 . S
C244 C245 1.399 . S
C245 C244 1.399 . S
C245 C248 1.396 . S
C245 C257 1.453 . S
C245 C258 1.684 . S
H246 C270 0.948 . S
C247 C243 1.397 . S
C247 C248 1.394 . S
C247 C266 1.723 . S
C248 C245 1.396 . S
C248 C247 1.394 . S
C248 C278 1.723 1_455 S
H249 C272 0.947 . S
H250 C273 0.948 . S
H251 C279 0.982 . S
H252 C280 0.979 . S
H253 C280 0.980 . S
H254 C280 0.983 . S
H255 C279 0.979 . S
H256 C279 0.977 . S
C257 C245 1.453 . S
C257 H286 0.982 . S
C257 H287 0.979 . S
C257 H288 0.977 1_455 S
C258 C245 1.684 . S
C258 H283 0.979 . S
C258 H284 0.980 . S
C258 H285 0.983 . S
C259 C260 1.391 . S
C259 C264 1.391 . S
C259 H289 0.948 . S
C260 C259 1.391 . S
C260 C261 1.391 1_455 S
C261 C260 1.391 1_655 S
C261 C262 1.392 . S
C261 H290 0.947 . S
C262 C261 1.392 . S
C262 C263 1.419 1_655 S
C262 H291 0.948 . S
C263 C262 1.419 1_455 S
C263 C264 1.391 . S
C263 C267 1.397 . S
C264 C259 1.391 . S
C264 C263 1.391 . S
C264 C265 1.399 . S
C265 C264 1.399 . S
C265 C266 1.396 . S
C265 C268 1.453 . S
C265 C269 1.684 . S
C266 C247 1.723 . S
C266 C265 1.396 . S
C266 C267 1.394 . S
C267 C263 1.397 . S
C267 C266 1.394 . S
C267 C277 1.723 1_455 S
C268 C265 1.453 . S
C268 H292 0.982 . S
C268 H293 0.979 . S
C268 H294 0.977 . S
C269 C265 1.684 . S
C269 H295 0.979 . S
C269 H296 0.980 . S
C269 H297 0.983 . S
C270 H246 0.948 . S
C270 C271 1.391 . S
C270 C275 1.391 . S
C271 C270 1.391 . S
C271 C272 1.391 . S
C272 H249 0.947 . S
C272 C271 1.391 . S
C272 C273 1.392 . S
C273 H250 0.948 . S
C273 C272 1.392 . S
C273 C274 1.419 . S
C274 C273 1.419 . S
C274 C275 1.391 . S
C274 C278 1.397 . S
C275 C270 1.391 . S
C275 C274 1.391 . S
C275 C276 1.399 . S
C276 C275 1.399 . S
C276 C277 1.396 . S
C276 C279 1.453 . S
C276 C280 1.684 . S
C277 C267 1.723 1_655 S
C277 C276 1.396 . S
C277 C278 1.394 . S
C278 C248 1.723 1_655 S
C278 C274 1.397 . S
C278 C277 1.394 . S
C279 H251 0.982 . S
C279 H255 0.979 . S
C279 H256 0.977 . S
C279 C276 1.453 . S
C280 H252 0.979 . S
C280 H253 0.980 . S
C280 H254 0.983 . S
C280 C276 1.684 . S
H281 C299 0.948 . S
H282 C240 0.948 . S
H283 C258 0.979 . S
H284 C258 0.980 . S
H285 C258 0.983 . S
H286 C257 0.982 . S
H287 C257 0.979 . S
H288 C257 0.977 1_655 S
H289 C259 0.948 . S
H290 C261 0.947 . S
H291 C262 0.948 . S
H292 C268 0.982 . S
H293 C268 0.979 . S
H294 C268 0.977 . S
H295 C269 0.979 . S
H296 C269 0.980 . S
H297 C269 0.983 . S
H298 C242 0.947 . S
C299 C242 1.392 . S
C299 C243 1.419 . S
C299 H281 0.948 . S
C300 C301 1.391 . S
C300 C304 1.391 . S
C300 H342 0.948 . S
C301 C300 1.391 . S
C301 C302 1.391 . S
C302 C301 1.391 . S
C302 H358 0.947 . S
C302 C359 1.392 . S
C303 C304 1.391 . S
C303 C307 1.397 . S
C303 C359 1.419 . S
C304 C300 1.391 . S
C304 C303 1.391 . S
C304 C305 1.399 . S
C305 C304 1.399 . S
C305 C308 1.396 . S
C305 C317 1.453 1_655 S
C305 C318 1.684 . S
H306 C330 0.948 . S
C307 C303 1.397 . S
C307 C308 1.394 . S
C307 C326 1.723 . S
C308 C305 1.396 . S
C308 C307 1.394 . S
C308 C338 1.723 1_655 S
H309 C332 0.947 . S
H310 C333 0.948 . S
H311 C339 0.982 . S
H312 C340 0.979 . S
H313 C340 0.980 . S
H314 C340 0.983 . S
H315 C339 0.979 . S
H316 C339 0.977 . S
C317 C305 1.453 1_455 S
C317 H346 0.982 . S
C317 H347 0.979 1_455 S
C317 H348 0.977 . S
C318 C305 1.684 . S
C318 H343 0.979 . S
C318 H344 0.980 . S
C318 H345 0.983 . S
C319 C320 1.406 . S
C319 C324 1.391 . S
C319 H349 0.948 . S
C320 C319 1.406 . S
C320 C321 1.376 1_655 S
C321 C320 1.376 1_455 S
C321 C322 1.392 . S
C321 H350 0.947 . S
C322 C321 1.392 . S
C322 C323 1.419 . S
C322 H351 0.948 . S
C323 C322 1.419 . S
C323 C324 1.391 1_455 S
C323 C327 1.397 . S
C324 C319 1.391 . S
C324 C323 1.391 1_655 S
C324 C325 1.399 . S
C325 C324 1.399 . S
C325 C326 1.396 . S
C325 C328 1.453 . S
C325 C329 1.684 . S
C326 C307 1.723 . S
C326 C325 1.396 . S
C326 C327 1.394 1_655 S
C327 C323 1.397 . S
C327 C326 1.394 1_455 S
C327 C337 1.723 . S
C328 C325 1.453 . S
C328 H352 0.982 . S
C328 H353 0.979 . S
C328 H354 0.977 . S
C329 C325 1.684 . S
C329 H355 0.979 . S
C329 H356 0.980 . S
C329 H357 0.983 . S
C330 H306 0.948 . S
C330 C331 1.391 . S
C330 C335 1.391 . S
C331 C330 1.391 . S
C331 C332 1.391 . S
C332 H309 0.947 . S
C332 C331 1.391 . S
C332 C333 1.392 . S
C333 H310 0.948 . S
C333 C332 1.392 . S
C333 C334 1.419 . S
C334 C333 1.419 . S
C334 C335 1.391 . S
C334 C338 1.397 . S
C335 C330 1.391 . S
C335 C334 1.391 . S
C335 C336 1.399 . S
C336 C335 1.399 . S
C336 C337 1.396 . S
C336 C339 1.453 . S
C336 C340 1.684 . S
C337 C327 1.723 . S
C337 C336 1.396 . S
C337 C338 1.394 . S
C338 C308 1.723 1_455 S
C338 C334 1.397 . S
C338 C337 1.394 . S
C339 H311 0.982 . S
C339 H315 0.979 . S
C339 H316 0.977 . S
C339 C336 1.453 . S
C340 H312 0.979 . S
C340 H313 0.980 . S
C340 H314 0.983 . S
C340 C336 1.684 . S
H341 C359 0.948 . S
H342 C300 0.948 . S
H343 C318 0.979 . S
H344 C318 0.980 . S
H345 C318 0.983 . S
H346 C317 0.982 . S
H347 C317 0.979 1_655 S
H348 C317 0.977 . S
H349 C319 0.948 . S
H350 C321 0.947 . S
H351 C322 0.948 . S
H352 C328 0.982 . S
H353 C328 0.979 . S
H354 C328 0.977 . S
H355 C329 0.979 . S
H356 C329 0.980 . S
H357 C329 0.983 . S
H358 C302 0.947 . S
C359 C302 1.392 . S
C359 C303 1.419 . S
C359 H341 0.948 . S
C360 C361 1.391 . S
C360 C364 1.391 . S
C360 H402 0.948 . S
C361 C360 1.391 . S
C361 C362 1.391 . S
C362 C361 1.391 . S
C362 H418 0.947 . S
C362 C419 1.392 . S
C363 C364 1.391 . S
C363 C367 1.397 . S
C363 C419 1.419 . S
C364 C360 1.391 . S
C364 C363 1.391 . S
C364 C365 1.399 . S
C365 C364 1.399 . S
C365 C368 1.396 . S
C365 C377 1.453 . S
C365 C378 1.684 . S
H366 C390 0.948 . S
C367 C363 1.397 . S
C367 C368 1.394 . S
C367 C386 1.723 . S
C368 C365 1.396 . S
C368 C367 1.394 . S
C368 C398 1.723 1_565 S
H369 C392 0.947 . S
H370 C393 0.948 . S
H371 C399 0.982 . S
H372 C400 0.979 . S
H373 C400 0.980 . S
H374 C400 0.983 . S
H375 C399 0.979 . S
H376 C399 0.977 . S
C377 C365 1.453 . S
C377 H406 0.982 1_565 S
C377 H407 0.979 . S
C377 H408 0.977 1_565 S
C378 C365 1.684 . S
C378 H403 0.979 . S
C378 H404 0.980 1_565 S
C378 H405 0.983 . S
C379 C380 1.391 1_565 S
C379 C384 1.391 . S
C379 H409 0.948 . S
C380 C379 1.391 1_545 S
C380 C381 1.391 . S
C381 C380 1.391 . S
C381 C382 1.392 . S
C381 H410 0.947 . S
C382 C381 1.392 . S
C382 C383 1.419 . S
C382 H411 0.948 . S
C383 C382 1.419 . S
C383 C384 1.391 1_545 S
C383 C387 1.397 . S
C384 C379 1.391 . S
C384 C383 1.391 1_565 S
C384 C385 1.399 . S
C385 C384 1.399 . S
C385 C386 1.396 . S
C385 C388 1.453 . S
C385 C389 1.684 . S
C386 C367 1.723 . S
C386 C385 1.396 . S
C386 C387 1.394 1_565 S
C387 C383 1.397 . S
C387 C386 1.394 1_545 S
C387 C397 1.723 . S
C388 C385 1.453 . S
C388 H412 0.982 . S
C388 H413 0.979 . S
C388 H414 0.977 . S
C389 C385 1.684 . S
C389 H415 0.979 . S
C389 H416 0.980 . S
C389 H417 0.983 . S
C390 H366 0.948 . S
C390 C391 1.391 . S
C390 C395 1.391 . S
C391 C390 1.391 . S
C391 C392 1.391 . S
C392 H369 0.947 . S
C392 C391 1.391 . S
C392 C393 1.392 . S
C393 H370 0.948 . S
C393 C392 1.392 . S
C393 C394 1.419 . S
C394 C393 1.419 . S
C394 C395 1.391 . S
C394 C398 1.397 . S
C395 C390 1.391 . S
C395 C394 1.391 . S
C395 C396 1.399 . S
C396 C395 1.399 . S
C396 C397 1.396 . S
C396 C399 1.453 . S
C396 C400 1.684 . S
C397 C387 1.723 . S
C397 C396 1.396 . S
C397 C398 1.394 . S
C398 C368 1.723 1_545 S
C398 C394 1.397 . S
C398 C397 1.394 . S
C399 H371 0.982 . S
C399 H375 0.979 . S
C399 H376 0.977 . S
C399 C396 1.453 . S
C400 H372 0.979 . S
C400 H373 0.980 . S
C400 H374 0.983 . S
C400 C396 1.684 . S
H401 C419 0.948 . S
H402 C360 0.948 . S
H403 C378 0.979 . S
H404 C378 0.980 1_545 S
H405 C378 0.983 . S
H406 C377 0.982 1_545 S
H407 C377 0.979 . S
H408 C377 0.977 1_545 S
H409 C379 0.948 . S
H410 C381 0.947 . S
H411 C382 0.948 . S
H412 C388 0.982 . S
H413 C388 0.979 . S
H414 C388 0.977 . S
H415 C389 0.979 . S
H416 C389 0.980 . S
H417 C389 0.983 . S
H418 C362 0.947 . S
C419 C362 1.392 . S
C419 C363 1.419 . S
C419 H401 0.948 . S
C420 C421 1.391 . S
C420 C424 1.391 . S
C420 H462 0.948 . S
C421 C420 1.391 . S
C421 C422 1.391 . S
C422 C421 1.391 . S
C422 H478 0.947 . S
C422 C479 1.392 . S
C423 C424 1.391 . S
C423 C427 1.397 . S
C423 C479 1.419 . S
C424 C420 1.391 . S
C424 C423 1.391 . S
C424 C425 1.399 . S
C425 C424 1.399 . S
C425 C428 1.396 . S
C425 C437 1.453 . S
C425 C438 1.684 . S
H426 C450 0.948 . S
C427 C423 1.397 . S
C427 C428 1.394 . S
C427 C446 1.723 . S
C428 C425 1.396 . S
C428 C427 1.394 . S
C428 C458 1.723 . S
H429 C452 0.947 . S
H430 C453 0.948 . S
H431 C459 0.982 . S
H432 C460 0.979 . S
H433 C460 0.980 . S
H434 C460 0.983 . S
H435 C459 0.979 . S
H436 C459 0.977 . S
C437 C425 1.453 . S
C437 H466 0.982 . S
C437 H467 0.979 . S
C437 H468 0.977 . S
C438 C425 1.684 . S
C438 H463 0.979 . S
C438 H464 0.980 . S
C438 H465 0.983 . S
C439 C440 1.391 . S
C439 C444 1.391 . S
C439 H469 0.948 . S
C440 C439 1.391 . S
C440 C441 1.391 . S
C441 C440 1.391 . S
C441 C442 1.392 . S
C441 H470 0.947 . S
C442 C441 1.392 . S
C442 C443 1.419 . S
C442 H471 0.948 . S
C443 C442 1.419 . S
C443 C444 1.391 . S
C443 C447 1.397 . S
C444 C439 1.391 . S
C444 C443 1.391 . S
C444 C445 1.399 . S
C445 C444 1.399 . S
C445 C446 1.396 . S
C445 C448 1.453 . S
C445 C449 1.684 . S
C446 C427 1.723 . S
C446 C445 1.396 . S
C446 C447 1.394 . S
C447 C443 1.397 . S
C447 C446 1.394 . S
C447 C457 1.723 . S
C448 C445 1.453 . S
C448 H472 0.982 . S
C448 H473 0.979 . S
C448 H474 0.977 . S
C449 C445 1.684 . S
C449 H475 0.979 . S
C449 H476 0.980 . S
C449 H477 0.983 . S
C450 H426 0.948 . S
C450 C451 1.391 . S
C450 C455 1.391 . S
C451 C450 1.391 . S
C451 C452 1.391 . S
C452 H429 0.947 . S
C452 C451 1.391 . S
C452 C453 1.392 . S
C453 H430 0.948 . S
C453 C452 1.392 . S
C453 C454 1.419 . S
C454 C453 1.419 . S
C454 C455 1.391 . S
C454 C458 1.397 . S
C455 C450 1.391 . S
C455 C454 1.391 . S
C455 C456 1.399 . S
C456 C455 1.399 . S
C456 C457 1.396 . S
C456 C459 1.453 . S
C456 C460 1.684 . S
C457 C447 1.723 . S
C457 C456 1.396 . S
C457 C458 1.394 . S
C458 C428 1.723 . S
C458 C454 1.397 . S
C458 C457 1.394 . S
C459 H431 0.982 . S
C459 H435 0.979 . S
C459 H436 0.977 . S
C459 C456 1.453 . S
C460 H432 0.979 . S
C460 H433 0.980 . S
C460 H434 0.983 . S
C460 C456 1.684 . S
H461 C479 0.948 . S
H462 C420 0.948 . S
H463 C438 0.979 . S
H464 C438 0.980 . S
H465 C438 0.983 . S
H466 C437 0.982 . S
H467 C437 0.979 . S
H468 C437 0.977 . S
H469 C439 0.948 . S
H470 C441 0.947 . S
H471 C442 0.948 . S
H472 C448 0.982 . S
H473 C448 0.979 . S
H474 C448 0.977 . S
H475 C449 0.979 . S
H476 C449 0.980 . S
H477 C449 0.983 . S
H478 C422 0.947 . S
C479 C422 1.392 . S
C479 C423 1.419 . S
C479 H461 0.948 . S
H480 C498 0.951 . S
H481 C500 0.951 . S
H482 C502 0.950 . S
H483 C503 0.950 . S
H484 C505 0.950 . S
H485 C508 0.950 . S
H486 C509 0.950 . S
H487 C511 0.950 . S
H488 C512 0.950 . S
H489 C513 0.951 . S
H490 C515 0.951 . S
H491 C517 0.950 . S
H492 C518 0.950 . S
H493 C520 0.950 . S
H494 C523 0.950 . S
H495 C524 0.950 . S
H496 C526 0.950 . S
H497 C527 0.950 . S
C498 H480 0.951 . S
C498 C499 1.366 . S
C498 C500 1.388 . S
C499 C498 1.366 . S
C499 C503 1.385 . S
C500 H481 0.951 . S
C500 C498 1.388 . S
C500 C501 1.366 . S
C501 C500 1.366 . S
C501 C502 1.414 . S
C501 C504 1.499 . S
C502 H482 0.950 . S
C502 C501 1.414 . S
C502 C503 1.374 . S
C503 H483 0.950 . S
C503 C499 1.385 . S
C503 C502 1.374 . S
C504 C501 1.499 . S
C504 C505 1.373 . S
C504 C506 1.389 . S
C505 H484 0.950 . S
C505 C504 1.373 . S
C505 C521 1.377 . S
C506 C504 1.389 . S
C506 C507 1.524 . S
C506 C520 1.377 . S
C507 C506 1.524 . S
C507 C508 1.397 . S
C507 C512 1.363 . S
C508 H485 0.950 . S
C508 C507 1.397 . S
C508 C509 1.334 . S
C509 H486 0.950 . S
C509 C508 1.334 . S
C509 C510 1.287 . S
C510 C509 1.287 . S
C510 C511 1.524 . S
C510 H529 0.913 . S
C511 H487 0.950 . S
C511 C510 1.524 . S
C511 C512 1.415 . S
C512 H488 0.950 . S
C512 C507 1.363 . S
C512 C511 1.415 . S
C513 H489 0.951 . S
C513 C514 1.366 . S
C513 C515 1.388 . S
C514 C513 1.366 . S
C514 C518 1.385 . S
C515 H490 0.951 . S
C515 C513 1.388 . S
C515 C516 1.366 . S
C516 C515 1.366 . S
C516 C517 1.414 . S
C516 C519 1.499 . S
C517 H491 0.950 . S
C517 C516 1.414 . S
C517 C518 1.374 . S
C518 H492 0.950 . S
C518 C514 1.385 . S
C518 C517 1.374 . S
C519 C516 1.499 . S
C519 C520 1.373 . S
C519 C521 1.389 . S
C520 H493 0.950 . S
C520 C506 1.377 . S
C520 C519 1.373 . S
C521 C505 1.377 . S
C521 C519 1.389 . S
C521 C522 1.524 . S
C522 C521 1.524 . S
C522 C523 1.397 . S
C522 C527 1.363 . S
C523 H494 0.950 . S
C523 C522 1.397 . S
C523 C524 1.334 . S
C524 H495 0.950 . S
C524 C523 1.334 . S
C524 C525 1.287 . S
C525 C524 1.287 . S
C525 C526 1.524 . S
C525 H528 0.999 . S
C526 H496 0.950 . S
C526 C525 1.524 . S
C526 C527 1.415 . S
C527 H497 0.950 . S
C527 C522 1.363 . S
C527 C526 1.415 . S
H528 C525 0.999 . S
H529 C510 0.913 . S
H530 C548 0.951 . S
H531 C550 0.951 . S
H532 C552 0.950 . S
H533 C553 0.950 . S
H534 C555 0.950 . S
H535 C558 0.950 . S
H536 C559 0.950 . S
H537 C561 0.950 . S
H538 C562 0.950 . S
H539 C563 0.951 . S
H540 C565 0.951 . S
H541 C567 0.950 . S
H542 C568 0.950 . S
H543 C570 0.950 . S
H544 C573 0.950 . S
H545 C574 0.950 . S
H546 C576 0.950 . S
H547 C577 0.950 . S
C548 H530 0.951 . S
C548 C549 1.366 . S
C548 C550 1.388 . S
C549 C548 1.366 . S
C549 C553 1.385 . S
C550 H531 0.951 . S
C550 C548 1.388 . S
C550 C551 1.366 . S
C551 C550 1.366 . S
C551 C552 1.414 . S
C551 C554 1.499 . S
C552 H532 0.950 . S
C552 C551 1.414 . S
C552 C553 1.374 . S
C553 H533 0.950 . S
C553 C549 1.385 . S
C553 C552 1.374 . S
C554 C551 1.499 . S
C554 C555 1.373 . S
C554 C556 1.389 . S
C555 H534 0.950 . S
C555 C554 1.373 . S
C555 C571 1.377 . S
C556 C554 1.389 . S
C556 C557 1.524 . S
C556 C570 1.377 . S
C557 C556 1.524 . S
C557 C558 1.397 . S
C557 C562 1.363 . S
C558 H535 0.950 . S
C558 C557 1.397 . S
C558 C559 1.334 . S
C559 H536 0.950 . S
C559 C558 1.334 . S
C559 C560 1.287 . S
C560 C559 1.287 . S
C560 C561 1.524 . S
C560 H579 0.913 . S
C561 H537 0.950 . S
C561 C560 1.524 . S
C561 C562 1.415 . S
C562 H538 0.950 . S
C562 C557 1.363 . S
C562 C561 1.415 . S
C563 H539 0.951 . S
C563 C564 1.366 . S
C563 C565 1.388 . S
C564 C563 1.366 . S
C564 C568 1.385 . S
C565 H540 0.951 . S
C565 C563 1.388 . S
C565 C566 1.366 . S
C566 C565 1.366 . S
C566 C567 1.414 . S
C566 C569 1.499 . S
C567 H541 0.950 . S
C567 C566 1.414 . S
C567 C568 1.374 . S
C568 H542 0.950 . S
C568 C564 1.385 . S
C568 C567 1.374 . S
C569 C566 1.499 . S
C569 C570 1.373 . S
C569 C571 1.389 . S
C570 H543 0.950 . S
C570 C556 1.377 . S
C570 C569 1.373 . S
C571 C555 1.377 . S
C571 C569 1.389 . S
C571 C572 1.524 . S
C572 C571 1.524 . S
C572 C573 1.397 . S
C572 C577 1.363 . S
C573 H544 0.950 . S
C573 C572 1.397 . S
C573 C574 1.334 . S
C574 H545 0.950 . S
C574 C573 1.334 . S
C574 C575 1.287 . S
C575 C574 1.287 . S
C575 C576 1.524 . S
C575 H578 0.999 . S
C576 H546 0.950 . S
C576 C575 1.524 . S
C576 C577 1.415 . S
C577 H547 0.950 . S
C577 C572 1.363 . S
C577 C576 1.415 . S
H578 C575 0.999 . S
H579 C560 0.913 . S
H580 C598 0.951 . S
H581 C600 0.951 . S
H582 C602 0.950 . S
H583 C603 0.950 . S
H584 C605 0.950 . S
H585 C608 0.950 . S
H586 C609 0.950 . S
H587 C611 0.950 . S
H588 C612 0.950 . S
H589 C613 0.951 . S
H590 C615 0.951 . S
H591 C617 0.950 . S
H592 C618 0.950 . S
H593 C620 0.950 . S
H594 C623 0.950 . S
H595 C624 0.950 . S
H596 C626 0.950 . S
H597 C627 0.950 . S
C598 H580 0.951 . S
C598 C599 1.366 . S
C598 C600 1.388 . S
C599 C598 1.366 . S
C599 C603 1.385 . S
C600 H581 0.951 . S
C600 C598 1.388 . S
C600 C601 1.366 . S
C601 C600 1.366 . S
C601 C602 1.414 . S
C601 C604 1.499 . S
C602 H582 0.950 . S
C602 C601 1.414 . S
C602 C603 1.374 . S
C603 H583 0.950 . S
C603 C599 1.385 . S
C603 C602 1.374 . S
C604 C601 1.499 . S
C604 C605 1.373 . S
C604 C606 1.389 . S
C605 H584 0.950 . S
C605 C604 1.373 . S
C605 C621 1.377 . S
C606 C604 1.389 . S
C606 C607 1.524 . S
C606 C620 1.377 . S
C607 C606 1.524 . S
C607 C608 1.397 . S
C607 C612 1.363 . S
C608 H585 0.950 . S
C608 C607 1.397 . S
C608 C609 1.334 . S
C609 H586 0.950 . S
C609 C608 1.334 . S
C609 C610 1.287 . S
C610 C609 1.287 . S
C610 C611 1.524 . S
C610 H629 0.913 . S
C611 H587 0.950 . S
C611 C610 1.524 . S
C611 C612 1.415 . S
C612 H588 0.950 . S
C612 C607 1.363 . S
C612 C611 1.415 . S
C613 H589 0.951 . S
C613 C614 1.366 . S
C613 C615 1.388 . S
C614 C613 1.366 . S
C614 C618 1.385 . S
C615 H590 0.951 . S
C615 C613 1.388 . S
C615 C616 1.366 . S
C616 C615 1.366 . S
C616 C617 1.414 . S
C616 C619 1.499 . S
C617 H591 0.950 . S
C617 C616 1.414 . S
C617 C618 1.374 . S
C618 H592 0.950 . S
C618 C614 1.385 . S
C618 C617 1.374 . S
C619 C616 1.499 . S
C619 C620 1.373 . S
C619 C621 1.389 . S
C620 H593 0.950 . S
C620 C606 1.377 . S
C620 C619 1.373 . S
C621 C605 1.377 . S
C621 C619 1.389 . S
C621 C622 1.524 . S
C622 C621 1.524 . S
C622 C623 1.397 . S
C622 C627 1.363 . S
C623 H594 0.950 . S
C623 C622 1.397 . S
C623 C624 1.334 . S
C624 H595 0.950 . S
C624 C623 1.334 . S
C624 C625 1.287 . S
C625 C624 1.287 . S
C625 C626 1.524 . S
C625 H628 0.999 . S
C626 H596 0.950 . S
C626 C625 1.524 . S
C626 C627 1.415 . S
C627 H597 0.950 . S
C627 C622 1.363 . S
C627 C626 1.415 . S
H628 C625 0.999 . S
H629 C610 0.913 . S
H630 C648 0.951 . S
H631 C650 0.951 . S
H632 C652 0.950 . S
H633 C653 0.950 . S
H634 C655 0.950 . S
H635 C658 0.950 . S
H636 C659 0.950 . S
H637 C661 0.950 . S
H638 C662 0.950 . S
H639 C663 0.951 . S
H640 C665 0.951 . S
H641 C667 0.950 . S
H642 C668 0.950 . S
H643 C670 0.950 . S
H644 C673 0.950 . S
H645 C674 0.950 . S
H646 C676 0.950 . S
H647 C677 0.950 . S
C648 H630 0.951 . S
C648 C649 1.366 . S
C648 C650 1.388 . S
C649 C648 1.366 . S
C649 C653 1.385 . S
C650 H631 0.951 . S
C650 C648 1.388 . S
C650 C651 1.366 . S
C651 C650 1.366 . S
C651 C652 1.414 . S
C651 C654 1.499 . S
C652 H632 0.950 . S
C652 C651 1.414 . S
C652 C653 1.374 . S
C653 H633 0.950 . S
C653 C649 1.385 . S
C653 C652 1.374 . S
C654 C651 1.499 . S
C654 C655 1.373 . S
C654 C656 1.389 . S
C655 H634 0.950 . S
C655 C654 1.373 . S
C655 C671 1.377 . S
C656 C654 1.389 . S
C656 C657 1.524 . S
C656 C670 1.377 . S
C657 C656 1.524 . S
C657 C658 1.397 . S
C657 C662 1.363 . S
C658 H635 0.950 . S
C658 C657 1.397 . S
C658 C659 1.334 . S
C659 H636 0.950 . S
C659 C658 1.334 . S
C659 C660 1.287 . S
C660 C659 1.287 . S
C660 C661 1.524 . S
C660 H679 0.913 . S
C661 H637 0.950 . S
C661 C660 1.524 . S
C661 C662 1.415 . S
C662 H638 0.950 . S
C662 C657 1.363 . S
C662 C661 1.415 . S
C663 H639 0.951 . S
C663 C664 1.366 . S
C663 C665 1.388 . S
C664 C663 1.366 . S
C664 C668 1.385 . S
C665 H640 0.951 . S
C665 C663 1.388 . S
C665 C666 1.366 . S
C666 C665 1.366 . S
C666 C667 1.414 . S
C666 C669 1.499 . S
C667 H641 0.950 . S
C667 C666 1.414 . S
C667 C668 1.374 . S
C668 H642 0.950 . S
C668 C664 1.385 . S
C668 C667 1.374 . S
C669 C666 1.499 . S
C669 C670 1.373 . S
C669 C671 1.389 . S
C670 H643 0.950 . S
C670 C656 1.377 . S
C670 C669 1.373 . S
C671 C655 1.377 . S
C671 C669 1.389 . S
C671 C672 1.524 . S
C672 C671 1.524 . S
C672 C673 1.397 . S
C672 C677 1.363 . S
C673 H644 0.950 . S
C673 C672 1.397 . S
C673 C674 1.334 . S
C674 H645 0.950 . S
C674 C673 1.334 . S
C674 C675 1.287 . S
C675 C674 1.287 . S
C675 C676 1.524 . S
C675 H678 0.999 . S
C676 H646 0.950 . S
C676 C675 1.524 . S
C676 C677 1.415 . S
C677 H647 0.950 . S
C677 C672 1.363 . S
C677 C676 1.415 . S
H678 C675 0.999 . S
H679 C660 0.913 . S
H680 C698 0.951 . S
H681 C700 0.951 . S
H682 C702 0.950 . S
H683 C703 0.950 . S
H684 C705 0.950 . S
H685 C708 0.950 . S
H686 C709 0.950 . S
H687 C711 0.950 . S
H688 C712 0.950 . S
H689 C713 0.951 . S
H690 C715 0.951 . S
H691 C717 0.950 . S
H692 C718 0.950 . S
H693 C720 0.950 . S
H694 C723 0.950 . S
H695 C724 0.950 . S
H696 C726 0.950 . S
H697 C727 0.950 . S
C698 H680 0.951 . S
C698 C699 1.366 . S
C698 C700 1.388 . S
C699 C698 1.366 . S
C699 C703 1.385 . S
C700 H681 0.951 . S
C700 C698 1.388 . S
C700 C701 1.366 . S
C701 C700 1.366 . S
C701 C702 1.414 . S
C701 C704 1.499 . S
C702 H682 0.950 . S
C702 C701 1.414 . S
C702 C703 1.374 . S
C703 H683 0.950 . S
C703 C699 1.385 . S
C703 C702 1.374 . S
C704 C701 1.499 . S
C704 C705 1.373 . S
C704 C706 1.389 . S
C705 H684 0.950 . S
C705 C704 1.373 . S
C705 C721 1.377 . S
C706 C704 1.389 . S
C706 C707 1.524 . S
C706 C720 1.377 . S
C707 C706 1.524 . S
C707 C708 1.397 . S
C707 C712 1.363 . S
C708 H685 0.950 . S
C708 C707 1.397 . S
C708 C709 1.334 . S
C709 H686 0.950 . S
C709 C708 1.334 . S
C709 C710 1.287 . S
C710 C709 1.287 . S
C710 C711 1.524 . S
C710 H729 0.913 . S
C711 H687 0.950 . S
C711 C710 1.524 . S
C711 C712 1.415 . S
C712 H688 0.950 . S
C712 C707 1.363 . S
C712 C711 1.415 . S
C713 H689 0.951 . S
C713 C714 1.366 . S
C713 C715 1.388 . S
C714 C713 1.366 . S
C714 C718 1.385 . S
C715 H690 0.951 . S
C715 C713 1.388 . S
C715 C716 1.366 . S
C716 C715 1.366 . S
C716 C717 1.414 . S
C716 C719 1.499 . S
C717 H691 0.950 . S
C717 C716 1.414 . S
C717 C718 1.374 . S
C718 H692 0.950 . S
C718 C714 1.385 . S
C718 C717 1.374 . S
C719 C716 1.499 . S
C719 C720 1.373 . S
C719 C721 1.389 . S
C720 H693 0.950 . S
C720 C706 1.377 . S
C720 C719 1.373 . S
C721 C705 1.377 . S
C721 C719 1.389 . S
C721 C722 1.524 . S
C722 C721 1.524 . S
C722 C723 1.397 . S
C722 C727 1.363 . S
C723 H694 0.950 . S
C723 C722 1.397 . S
C723 C724 1.334 . S
C724 H695 0.950 . S
C724 C723 1.334 . S
C724 C725 1.287 . S
C725 C724 1.287 . S
C725 C726 1.524 . S
C725 H728 0.999 . S
C726 H696 0.950 . S
C726 C725 1.524 . S
C726 C727 1.415 . S
C727 H697 0.950 . S
C727 C722 1.363 . S
C727 C726 1.415 . S
H728 C725 0.999 . S
H729 C710 0.913 . S
H730 C748 0.951 . S
H731 C750 0.951 . S
H732 C752 0.950 . S
H733 C753 0.950 . S
H734 C755 0.950 . S
H735 C758 0.950 . S
H736 C759 0.950 . S
H737 C761 0.950 . S
H738 C762 0.950 . S
H739 C763 0.951 . S
H740 C765 0.951 . S
H741 C767 0.950 . S
H742 C768 0.950 . S
H743 C770 0.950 . S
H744 C773 0.950 . S
H745 C774 0.950 . S
H746 C776 0.950 . S
H747 C777 0.950 . S
C748 H730 0.951 . S
C748 C749 1.366 . S
C748 C750 1.388 . S
C749 C748 1.366 . S
C749 C753 1.385 . S
C750 H731 0.951 . S
C750 C748 1.388 . S
C750 C751 1.366 . S
C751 C750 1.366 . S
C751 C752 1.414 . S
C751 C754 1.499 . S
C752 H732 0.950 . S
C752 C751 1.414 . S
C752 C753 1.374 . S
C753 H733 0.950 . S
C753 C749 1.385 . S
C753 C752 1.374 . S
C754 C751 1.499 . S
C754 C755 1.373 . S
C754 C756 1.389 . S
C755 H734 0.950 . S
C755 C754 1.373 . S
C755 C771 1.377 . S
C756 C754 1.389 . S
C756 C757 1.524 . S
C756 C770 1.377 . S
C757 C756 1.524 . S
C757 C758 1.397 . S
C757 C762 1.363 . S
C758 H735 0.950 . S
C758 C757 1.397 . S
C758 C759 1.334 . S
C759 H736 0.950 . S
C759 C758 1.334 . S
C759 C760 1.287 . S
C760 C759 1.287 . S
C760 C761 1.524 . S
C760 H779 0.913 . S
C761 H737 0.950 . S
C761 C760 1.524 . S
C761 C762 1.415 . S
C762 H738 0.950 . S
C762 C757 1.363 . S
C762 C761 1.415 . S
C763 H739 0.951 . S
C763 C764 1.366 . S
C763 C765 1.388 . S
C764 C763 1.366 . S
C764 C768 1.385 . S
C765 H740 0.951 . S
C765 C763 1.388 . S
C765 C766 1.366 . S
C766 C765 1.366 . S
C766 C767 1.414 . S
C766 C769 1.499 . S
C767 H741 0.950 . S
C767 C766 1.414 . S
C767 C768 1.374 . S
C768 H742 0.950 . S
C768 C764 1.385 . S
C768 C767 1.374 . S
C769 C766 1.499 . S
C769 C770 1.373 . S
C769 C771 1.389 . S
C770 H743 0.950 . S
C770 C756 1.377 . S
C770 C769 1.373 . S
C771 C755 1.377 . S
C771 C769 1.389 . S
C771 C772 1.524 . S
C772 C771 1.524 . S
C772 C773 1.397 . S
C772 C777 1.363 . S
C773 H744 0.950 . S
C773 C772 1.397 . S
C773 C774 1.334 . S
C774 H745 0.950 . S
C774 C773 1.334 . S
C774 C775 1.287 . S
C775 C774 1.287 . S
C775 C776 1.524 . S
C775 H778 0.999 . S
C776 H746 0.950 . S
C776 C775 1.524 . S
C776 C777 1.415 . S
C777 H747 0.950 . S
C777 C772 1.363 . S
C777 C776 1.415 . S
H778 C775 0.999 . S
H779 C760 0.913 . S
H780 C798 0.951 . S
H781 C800 0.951 . S
H782 C802 0.950 . S
H783 C803 0.950 . S
H784 C805 0.950 . S
H785 C808 0.950 . S
H786 C809 0.950 . S
H787 C811 0.950 . S
H788 C812 0.950 . S
H789 C813 0.951 . S
H790 C815 0.951 . S
H791 C817 0.950 . S
H792 C818 0.950 . S
H793 C820 0.950 . S
H794 C823 0.950 . S
H795 C824 0.950 . S
H796 C826 0.950 . S
H797 C827 0.950 . S
C798 H780 0.951 . S
C798 C799 1.366 . S
C798 C800 1.388 . S
C799 C798 1.366 . S
C799 C803 1.385 . S
C800 H781 0.951 . S
C800 C798 1.388 . S
C800 C801 1.366 . S
C801 C800 1.366 . S
C801 C802 1.414 . S
C801 C804 1.499 . S
C802 H782 0.950 . S
C802 C801 1.414 . S
C802 C803 1.374 . S
C803 H783 0.950 . S
C803 C799 1.385 . S
C803 C802 1.374 . S
C804 C801 1.499 . S
C804 C805 1.373 . S
C804 C806 1.389 . S
C805 H784 0.950 . S
C805 C804 1.373 . S
C805 C821 1.377 . S
C806 C804 1.389 . S
C806 C807 1.524 . S
C806 C820 1.377 . S
C807 C806 1.524 . S
C807 C808 1.397 . S
C807 C812 1.363 . S
C808 H785 0.950 . S
C808 C807 1.397 . S
C808 C809 1.334 . S
C809 H786 0.950 . S
C809 C808 1.334 . S
C809 C810 1.287 . S
C810 C809 1.287 . S
C810 C811 1.524 . S
C810 H829 0.913 . S
C811 H787 0.950 . S
C811 C810 1.524 . S
C811 C812 1.415 . S
C812 H788 0.950 . S
C812 C807 1.363 . S
C812 C811 1.415 . S
C813 H789 0.951 . S
C813 C814 1.366 . S
C813 C815 1.388 . S
C814 C813 1.366 . S
C814 C818 1.385 . S
C815 H790 0.951 . S
C815 C813 1.388 . S
C815 C816 1.366 . S
C816 C815 1.366 . S
C816 C817 1.414 . S
C816 C819 1.499 . S
C817 H791 0.950 . S
C817 C816 1.414 . S
C817 C818 1.374 . S
C818 H792 0.950 . S
C818 C814 1.385 . S
C818 C817 1.374 . S
C819 C816 1.499 . S
C819 C820 1.373 . S
C819 C821 1.389 . S
C820 H793 0.950 . S
C820 C806 1.377 . S
C820 C819 1.373 . S
C821 C805 1.377 . S
C821 C819 1.389 . S
C821 C822 1.524 . S
C822 C821 1.524 . S
C822 C823 1.397 . S
C822 C827 1.363 . S
C823 H794 0.950 . S
C823 C822 1.397 . S
C823 C824 1.334 . S
C824 H795 0.950 . S
C824 C823 1.334 . S
C824 C825 1.287 . S
C825 C824 1.287 . S
C825 C826 1.524 . S
C825 H828 0.999 . S
C826 H796 0.950 . S
C826 C825 1.524 . S
C826 C827 1.415 . S
C827 H797 0.950 . S
C827 C822 1.363 . S
C827 C826 1.415 . S
H828 C825 0.999 . S
H829 C810 0.913 . S
H830 C848 0.951 . S
H831 C850 0.951 . S
H832 C852 0.950 . S
H833 C853 0.950 . S
H834 C855 0.950 . S
H835 C858 0.950 . S
H836 C859 0.950 . S
H837 C861 0.950 . S
H838 C862 0.950 . S
H839 C863 0.951 . S
H840 C865 0.951 . S
H841 C867 0.950 . S
H842 C868 0.950 . S
H843 C870 0.950 . S
H844 C873 0.950 . S
H845 C874 0.950 . S
H846 C876 0.950 . S
H847 C877 0.950 . S
C848 H830 0.951 . S
C848 C849 1.366 . S
C848 C850 1.388 . S
C849 C848 1.366 . S
C849 C853 1.385 . S
C850 H831 0.951 . S
C850 C848 1.388 . S
C850 C851 1.366 . S
C851 C850 1.366 . S
C851 C852 1.414 . S
C851 C854 1.499 . S
C852 H832 0.950 . S
C852 C851 1.414 . S
C852 C853 1.374 . S
C853 H833 0.950 . S
C853 C849 1.385 . S
C853 C852 1.374 . S
C854 C851 1.499 . S
C854 C855 1.373 . S
C854 C856 1.389 . S
C855 H834 0.950 . S
C855 C854 1.373 . S
C855 C871 1.377 . S
C856 C854 1.389 . S
C856 C857 1.524 . S
C856 C870 1.377 . S
C857 C856 1.524 . S
C857 C858 1.397 . S
C857 C862 1.363 . S
C858 H835 0.950 . S
C858 C857 1.397 . S
C858 C859 1.334 . S
C859 H836 0.950 . S
C859 C858 1.334 . S
C859 C860 1.287 . S
C860 C859 1.287 . S
C860 C861 1.524 . S
C860 H879 0.913 . S
C861 H837 0.950 . S
C861 C860 1.524 . S
C861 C862 1.415 . S
C862 H838 0.950 . S
C862 C857 1.363 . S
C862 C861 1.415 . S
C863 H839 0.951 . S
C863 C864 1.366 . S
C863 C865 1.388 . S
C864 C863 1.366 . S
C864 C868 1.385 . S
C865 H840 0.951 . S
C865 C863 1.388 . S
C865 C866 1.366 . S
C866 C865 1.366 . S
C866 C867 1.414 . S
C866 C869 1.499 . S
C867 H841 0.950 . S
C867 C866 1.414 . S
C867 C868 1.374 . S
C868 H842 0.950 . S
C868 C864 1.385 . S
C868 C867 1.374 . S
C869 C866 1.499 . S
C869 C870 1.373 . S
C869 C871 1.389 . S
C870 H843 0.950 . S
C870 C856 1.377 . S
C870 C869 1.373 . S
C871 C855 1.377 . S
C871 C869 1.389 . S
C871 C872 1.524 . S
C872 C871 1.524 . S
C872 C873 1.397 . S
C872 C877 1.363 . S
C873 H844 0.950 . S
C873 C872 1.397 . S
C873 C874 1.334 . S
C874 H845 0.950 . S
C874 C873 1.334 . S
C874 C875 1.287 . S
C875 C874 1.287 . S
C875 C876 1.524 . S
C875 H878 0.999 . S
C876 H846 0.950 . S
C876 C875 1.524 . S
C876 C877 1.415 . S
C877 H847 0.950 . S
C877 C872 1.363 . S
C877 C876 1.415 . S
H878 C875 0.999 . S
H879 C860 0.913 . S
H880 C898 0.951 . S
H881 C900 0.951 . S
H882 C902 0.950 . S
H883 C903 0.950 . S
H884 C905 0.950 . S
H885 C908 0.950 . S
H886 C909 0.950 . S
H887 C911 0.950 . S
H888 C912 0.950 . S
H889 C913 0.951 . S
H890 C915 0.951 . S
H891 C917 0.950 . S
H892 C918 0.950 . S
H893 C920 0.950 . S
H894 C923 0.950 . S
H895 C924 0.950 . S
H896 C926 0.950 . S
H897 C927 0.950 . S
C898 H880 0.951 . S
C898 C899 1.366 . S
C898 C900 1.388 . S
C899 C898 1.366 . S
C899 C903 1.385 . S
C900 H881 0.951 . S
C900 C898 1.388 . S
C900 C901 1.366 . S
C901 C900 1.366 . S
C901 C902 1.414 . S
C901 C904 1.499 . S
C902 H882 0.950 . S
C902 C901 1.414 . S
C902 C903 1.374 . S
C903 H883 0.950 . S
C903 C899 1.385 . S
C903 C902 1.374 . S
C904 C901 1.499 . S
C904 C905 1.373 . S
C904 C906 1.389 . S
C905 H884 0.950 . S
C905 C904 1.373 . S
C905 C921 1.377 . S
C906 C904 1.389 . S
C906 C907 1.524 . S
C906 C920 1.377 . S
C907 C906 1.524 . S
C907 C908 1.397 . S
C907 C912 1.363 . S
C908 H885 0.950 . S
C908 C907 1.397 . S
C908 C909 1.334 . S
C909 H886 0.950 . S
C909 C908 1.334 . S
C909 C910 1.287 . S
C910 C909 1.287 . S
C910 C911 1.524 . S
C910 H929 0.913 . S
C911 H887 0.950 . S
C911 C910 1.524 . S
C911 C912 1.415 . S
C912 H888 0.950 . S
C912 C907 1.363 . S
C912 C911 1.415 . S
C913 H889 0.951 . S
C913 C914 1.366 . S
C913 C915 1.388 . S
C914 C913 1.366 . S
C914 C918 1.385 . S
C915 H890 0.951 . S
C915 C913 1.388 . S
C915 C916 1.366 . S
C916 C915 1.366 . S
C916 C917 1.414 . S
C916 C919 1.499 . S
C917 H891 0.950 . S
C917 C916 1.414 . S
C917 C918 1.374 . S
C918 H892 0.950 . S
C918 C914 1.385 . S
C918 C917 1.374 . S
C919 C916 1.499 . S
C919 C920 1.373 . S
C919 C921 1.389 . S
C920 H893 0.950 . S
C920 C906 1.377 . S
C920 C919 1.373 . S
C921 C905 1.377 . S
C921 C919 1.389 . S
C921 C922 1.524 . S
C922 C921 1.524 . S
C922 C923 1.397 . S
C922 C927 1.363 . S
C923 H894 0.950 . S
C923 C922 1.397 . S
C923 C924 1.334 . S
C924 H895 0.950 . S
C924 C923 1.334 . S
C924 C925 1.287 . S
C925 C924 1.287 . S
C925 C926 1.524 . S
C925 H928 0.999 . S
C926 H896 0.950 . S
C926 C925 1.524 . S
C926 C927 1.415 . S
C927 H897 0.950 . S
C927 C922 1.363 . S
C927 C926 1.415 . S
H928 C925 0.999 . S
H929 C910 0.913 . S
H930 C948 0.951 . S
H931 C950 0.951 . S
H932 C952 0.950 . S
H933 C953 0.950 . S
H934 C955 0.950 . S
H935 C958 0.950 . S
H936 C959 0.950 . S
H937 C961 0.950 . S
H938 C962 0.950 . S
H939 C963 0.951 . S
H940 C965 0.951 . S
H941 C967 0.950 . S
H942 C968 0.950 . S
H943 C970 0.950 . S
H944 C973 0.950 . S
H945 C974 0.950 . S
H946 C976 0.950 . S
H947 C977 0.950 . S
C948 H930 0.951 . S
C948 C949 1.366 . S
C948 C950 1.388 . S
C949 C948 1.366 . S
C949 C953 1.385 . S
C950 H931 0.951 . S
C950 C948 1.388 . S
C950 C951 1.366 . S
C951 C950 1.366 . S
C951 C952 1.414 . S
C951 C954 1.499 . S
C952 H932 0.950 . S
C952 C951 1.414 . S
C952 C953 1.374 . S
C953 H933 0.950 . S
C953 C949 1.385 . S
C953 C952 1.374 . S
C954 C951 1.499 . S
C954 C955 1.373 . S
C954 C956 1.389 . S
C955 H934 0.950 . S
C955 C954 1.373 . S
C955 C971 1.377 . S
C956 C954 1.389 . S
C956 C957 1.524 . S
C956 C970 1.377 . S
C957 C956 1.524 . S
C957 C958 1.397 . S
C957 C962 1.363 . S
C958 H935 0.950 . S
C958 C957 1.397 . S
C958 C959 1.334 . S
C959 H936 0.950 . S
C959 C958 1.334 . S
C959 C960 1.287 . S
C960 C959 1.287 . S
C960 C961 1.524 . S
C960 H979 0.913 . S
C961 H937 0.950 . S
C961 C960 1.524 . S
C961 C962 1.415 . S
C962 H938 0.950 . S
C962 C957 1.363 . S
C962 C961 1.415 . S
C963 H939 0.951 . S
C963 C964 1.366 . S
C963 C965 1.388 . S
C964 C963 1.366 . S
C964 C968 1.385 . S
C965 H940 0.951 . S
C965 C963 1.388 . S
C965 C966 1.366 . S
C966 C965 1.366 . S
C966 C967 1.414 . S
C966 C969 1.499 . S
C967 H941 0.950 . S
C967 C966 1.414 . S
C967 C968 1.374 . S
C968 H942 0.950 . S
C968 C964 1.385 . S
C968 C967 1.374 . S
C969 C966 1.499 . S
C969 C970 1.373 . S
C969 C971 1.389 . S
C970 H943 0.950 . S
C970 C956 1.377 . S
C970 C969 1.373 . S
C971 C955 1.377 . S
C971 C969 1.389 . S
C971 C972 1.524 . S
C972 C971 1.524 . S
C972 C973 1.397 . S
C972 C977 1.363 . S
C973 H944 0.950 . S
C973 C972 1.397 . S
C973 C974 1.334 . S
C974 H945 0.950 . S
C974 C973 1.334 . S
C974 C975 1.287 . S
C975 C974 1.287 . S
C975 C976 1.524 . S
C975 H978 0.999 . S
C976 H946 0.950 . S
C976 C975 1.524 . S
C976 C977 1.415 . S
C977 H947 0.950 . S
C977 C972 1.363 . S
C977 C976 1.415 . S
H978 C975 0.999 . S
H979 C960 0.913 . S
H980 C998 0.951 . S
H981 C1000 0.951 . S
H982 C1002 0.950 . S
H983 C1003 0.950 . S
H984 C1005 0.950 . S
H985 C1008 0.950 . S
H986 C1009 0.950 . S
H987 C1011 0.950 . S
H988 C1012 0.950 . S
H989 C1013 0.951 . S
H990 C1015 0.951 . S
H991 C1017 0.950 . S
H992 C1018 0.950 . S
H993 C1020 0.950 . S
H994 C1023 0.950 . S
H995 C1024 0.950 . S
H996 C1026 0.950 . S
H997 C1027 0.950 . S
C998 H980 0.951 . S
C998 C999 1.366 . S
C998 C1000 1.388 . S
C999 C998 1.366 . S
C999 C1003 1.385 . S
C1000 H981 0.951 . S
C1000 C998 1.388 . S
C1000 C1001 1.366 . S
C1001 C1000 1.366 . S
C1001 C1002 1.414 . S
C1001 C1004 1.499 . S
C1002 H982 0.950 . S
C1002 C1001 1.414 . S
C1002 C1003 1.374 . S
C1003 H983 0.950 . S
C1003 C999 1.385 . S
C1003 C1002 1.374 . S
C1004 C1001 1.499 . S
C1004 C1005 1.373 . S
C1004 C1006 1.389 . S
C1005 H984 0.950 . S
C1005 C1004 1.373 . S
C1005 C1021 1.377 . S
C1006 C1004 1.389 . S
C1006 C1007 1.524 . S
C1006 C1020 1.377 . S
C1007 C1006 1.524 . S
C1007 C1008 1.397 . S
C1007 C1012 1.363 . S
C1008 H985 0.950 . S
C1008 C1007 1.397 . S
C1008 C1009 1.334 . S
C1009 H986 0.950 . S
C1009 C1008 1.334 . S
C1009 C1010 1.287 . S
C1010 C1009 1.287 . S
C1010 C1011 1.524 . S
C1010 H1029 0.913 . S
C1011 H987 0.950 . S
C1011 C1010 1.524 . S
C1011 C1012 1.415 . S
C1012 H988 0.950 . S
C1012 C1007 1.363 . S
C1012 C1011 1.415 . S
C1013 H989 0.951 . S
C1013 C1014 1.366 . S
C1013 C1015 1.388 . S
C1014 C1013 1.366 . S
C1014 C1018 1.385 . S
C1015 H990 0.951 . S
C1015 C1013 1.388 . S
C1015 C1016 1.366 . S
C1016 C1015 1.366 . S
C1016 C1017 1.414 . S
C1016 C1019 1.499 . S
C1017 H991 0.950 . S
C1017 C1016 1.414 . S
C1017 C1018 1.374 . S
C1018 H992 0.950 . S
C1018 C1014 1.385 . S
C1018 C1017 1.374 . S
C1019 C1016 1.499 . S
C1019 C1020 1.373 . S
C1019 C1021 1.389 . S
C1020 H993 0.950 . S
C1020 C1006 1.377 . S
C1020 C1019 1.373 . S
C1021 C1005 1.377 . S
C1021 C1019 1.389 . S
C1021 C1022 1.524 . S
C1022 C1021 1.524 . S
C1022 C1023 1.397 . S
C1022 C1027 1.363 . S
C1023 H994 0.950 . S
C1023 C1022 1.397 . S
C1023 C1024 1.334 . S
C1024 H995 0.950 . S
C1024 C1023 1.334 . S
C1024 C1025 1.287 . S
C1025 C1024 1.287 . S
C1025 C1026 1.524 . S
C1025 H1028 0.999 . S
C1026 H996 0.950 . S
C1026 C1025 1.524 . S
C1026 C1027 1.415 . S
C1027 H997 0.950 . S
C1027 C1022 1.363 . S
C1027 C1026 1.415 . S
H1028 C1025 0.999 . S
H1029 C1010 0.913 . S
H1030 C1048 0.951 . S
H1031 C1050 0.951 . S
H1032 C1052 0.950 . S
H1033 C1053 0.950 . S
H1034 C1055 0.950 . S
H1035 C1058 0.950 . S
H1036 C1059 0.950 . S
H1037 C1061 0.950 . S
H1038 C1062 0.950 . S
H1039 C1063 0.951 . S
H1040 C1065 0.951 . S
H1041 C1067 0.950 . S
H1042 C1068 0.950 . S
H1043 C1070 0.950 . S
H1044 C1073 0.950 . S
H1045 C1074 0.950 . S
H1046 C1076 0.950 . S
H1047 C1077 0.950 . S
C1048 H1030 0.951 . S
C1048 C1049 1.366 . S
C1048 C1050 1.388 . S
C1049 C1048 1.366 . S
C1049 C1053 1.385 . S
C1050 H1031 0.951 . S
C1050 C1048 1.388 . S
C1050 C1051 1.366 . S
C1051 C1050 1.366 . S
C1051 C1052 1.414 . S
C1051 C1054 1.499 . S
C1052 H1032 0.950 . S
C1052 C1051 1.414 . S
C1052 C1053 1.374 . S
C1053 H1033 0.950 . S
C1053 C1049 1.385 . S
C1053 C1052 1.374 . S
C1054 C1051 1.499 . S
C1054 C1055 1.373 . S
C1054 C1056 1.389 . S
C1055 H1034 0.950 . S
C1055 C1054 1.373 . S
C1055 C1071 1.377 . S
C1056 C1054 1.389 . S
C1056 C1057 1.524 . S
C1056 C1070 1.377 . S
C1057 C1056 1.524 . S
C1057 C1058 1.397 . S
C1057 C1062 1.363 . S
C1058 H1035 0.950 . S
C1058 C1057 1.397 . S
C1058 C1059 1.334 . S
C1059 H1036 0.950 . S
C1059 C1058 1.334 . S
C1059 C1060 1.287 . S
C1060 C1059 1.287 . S
C1060 C1061 1.524 . S
C1060 H1079 0.913 . S
C1061 H1037 0.950 . S
C1061 C1060 1.524 . S
C1061 C1062 1.415 . S
C1062 H1038 0.950 . S
C1062 C1057 1.363 . S
C1062 C1061 1.415 . S
C1063 H1039 0.951 . S
C1063 C1064 1.366 . S
C1063 C1065 1.388 . S
C1064 C1063 1.366 . S
C1064 C1068 1.385 . S
C1065 H1040 0.951 . S
C1065 C1063 1.388 . S
C1065 C1066 1.366 . S
C1066 C1065 1.366 . S
C1066 C1067 1.414 . S
C1066 C1069 1.499 . S
C1067 H1041 0.950 . S
C1067 C1066 1.414 . S
C1067 C1068 1.374 . S
C1068 H1042 0.950 . S
C1068 C1064 1.385 . S
C1068 C1067 1.374 . S
C1069 C1066 1.499 . S
C1069 C1070 1.373 . S
C1069 C1071 1.389 . S
C1070 H1043 0.950 . S
C1070 C1056 1.377 . S
C1070 C1069 1.373 . S
C1071 C1055 1.377 . S
C1071 C1069 1.389 . S
C1071 C1072 1.524 . S
C1072 C1071 1.524 . S
C1072 C1073 1.397 . S
C1072 C1077 1.363 . S
C1073 H1044 0.950 . S
C1073 C1072 1.397 . S
C1073 C1074 1.334 . S
C1074 H1045 0.950 . S
C1074 C1073 1.334 . S
C1074 C1075 1.287 . S
C1075 C1074 1.287 . S
C1075 C1076 1.524 . S
C1075 H1078 0.999 . S
C1076 H1046 0.950 . S
C1076 C1075 1.524 . S
C1076 C1077 1.415 . S
C1077 H1047 0.950 . S
C1077 C1072 1.363 . S
C1077 C1076 1.415 . S
H1078 C1075 0.999 . S
H1079 C1060 0.913 . S
H1080 C1098 0.951 . S
H1081 C1100 0.951 . S
H1082 C1102 0.950 . S
H1083 C1103 0.950 . S
H1084 C1105 0.950 . S
H1085 C1108 0.950 . S
H1086 C1109 0.950 . S
H1087 C1111 0.950 . S
H1088 C1112 0.950 . S
H1089 C1113 0.951 . S
H1090 C1115 0.952 . S
H1091 C1117 0.949 1_554 S
H1092 C1118 0.950 . S
H1093 C1120 0.950 . S
H1094 C1123 0.950 . S
H1095 C1124 0.950 . S
H1096 C1126 0.950 . S
H1097 C1127 0.950 . S
C1098 H1080 0.951 . S
C1098 C1099 1.366 . S
C1098 C1100 1.388 . S
C1099 C1098 1.366 . S
C1099 C1103 1.385 . S
C1100 H1081 0.951 . S
C1100 C1098 1.388 . S
C1100 C1101 1.366 . S
C1101 C1100 1.366 . S
C1101 C1102 1.414 . S
C1101 C1104 1.499 . S
C1102 H1082 0.950 . S
C1102 C1101 1.414 . S
C1102 C1103 1.374 . S
C1103 H1083 0.950 . S
C1103 C1099 1.385 . S
C1103 C1102 1.374 . S
C1104 C1101 1.499 . S
C1104 C1105 1.373 . S
C1104 C1106 1.389 1_455 S
C1105 H1084 0.950 . S
C1105 C1104 1.373 . S
C1105 C1121 1.377 . S
C1106 C1104 1.389 1_655 S
C1106 C1107 1.524 . S
C1106 C1120 1.377 . S
C1107 C1106 1.524 . S
C1107 C1108 1.397 . S
C1107 C1112 1.363 . S
C1108 H1085 0.950 . S
C1108 C1107 1.397 . S
C1108 C1109 1.334 . S
C1109 H1086 0.950 . S
C1109 C1108 1.334 . S
C1109 C1110 1.287 . S
C1110 C1109 1.287 . S
C1110 C1111 1.524 . S
C1110 H1129 0.913 . S
C1111 H1087 0.950 . S
C1111 C1110 1.524 . S
C1111 C1112 1.415 . S
C1112 H1088 0.950 . S
C1112 C1107 1.363 . S
C1112 C1111 1.415 . S
C1113 H1089 0.951 . S
C1113 C1114 1.366 . S
C1113 C1115 1.384 1_556 S
C1114 C1113 1.366 . S
C1114 C1118 1.385 . S
C1115 H1090 0.952 . S
C1115 C1113 1.384 1_554 S
C1115 C1116 1.367 . S
C1116 C1115 1.367 . S
C1116 C1117 1.413 1_554 S
C1116 C1119 1.499 . S
C1117 H1091 0.949 1_556 S
C1117 C1116 1.413 1_556 S
C1117 C1118 1.376 . S
C1118 H1092 0.950 . S
C1118 C1114 1.385 . S
C1118 C1117 1.376 . S
C1119 C1116 1.499 . S
C1119 C1120 1.373 1_455 S
C1119 C1121 1.389 . S
C1120 H1093 0.950 . S
C1120 C1106 1.377 . S
C1120 C1119 1.373 1_655 S
C1121 C1105 1.377 . S
C1121 C1119 1.389 . S
C1121 C1122 1.524 . S
C1122 C1121 1.524 . S
C1122 C1123 1.397 . S
C1122 C1127 1.363 . S
C1123 H1094 0.950 . S
C1123 C1122 1.397 . S
C1123 C1124 1.334 . S
C1124 H1095 0.950 . S
C1124 C1123 1.334 . S
C1124 C1125 1.287 . S
C1125 C1124 1.287 . S
C1125 C1126 1.524 . S
C1125 H1128 0.999 . S
C1126 H1096 0.950 . S
C1126 C1125 1.524 . S
C1126 C1127 1.415 . S
C1127 H1097 0.950 . S
C1127 C1122 1.363 . S
C1127 C1126 1.415 . S
H1128 C1125 0.999 . S
H1129 C1110 0.913 . S
H1130 C1148 0.915 1_565 S
H1131 C1150 0.951 1_565 S
H1132 C1152 0.950 . S
H1133 C1153 0.950 . S
H1134 C1155 0.950 . S
H1135 C1158 0.950 . S
H1136 C1159 0.950 . S
H1137 C1161 0.950 . S
H1138 C1162 0.950 . S
H1139 C1163 0.951 . S
H1140 C1165 0.951 . S
H1141 C1167 0.950 1_565 S
H1142 C1168 0.950 1_565 S
H1143 C1170 0.950 . S
H1144 C1173 0.950 1_565 S
H1145 C1174 0.950 1_565 S
H1146 C1176 0.950 . S
H1147 C1177 0.950 . S
C1148 H1130 0.915 1_545 S
C1148 C1149 1.400 . S
C1148 C1150 1.390 . S
C1149 C1148 1.400 . S
C1149 C1153 1.385 . S
C1150 H1131 0.951 1_545 S
C1150 C1148 1.390 . S
C1150 C1151 1.366 . S
C1151 C1150 1.366 . S
C1151 C1152 1.414 . S
C1151 C1154 1.499 . S
C1152 H1132 0.950 . S
C1152 C1151 1.414 . S
C1152 C1153 1.374 . S
C1153 H1133 0.950 . S
C1153 C1149 1.385 . S
C1153 C1152 1.374 . S
C1154 C1151 1.499 . S
C1154 C1155 1.373 . S
C1154 C1156 1.389 . S
C1155 H1134 0.950 . S
C1155 C1154 1.373 . S
C1155 C1171 1.377 . S
C1156 C1154 1.389 . S
C1156 C1157 1.524 . S
C1156 C1170 1.377 . S
C1157 C1156 1.524 . S
C1157 C1158 1.397 . S
C1157 C1162 1.363 1_545 S
C1158 H1135 0.950 . S
C1158 C1157 1.397 . S
C1158 C1159 1.334 . S
C1159 H1136 0.950 . S
C1159 C1158 1.334 . S
C1159 C1160 1.287 . S
C1160 C1159 1.287 . S
C1160 C1161 1.524 1_545 S
C1160 H1179 0.913 . S
C1161 H1137 0.950 . S
C1161 C1160 1.524 1_565 S
C1161 C1162 1.415 . S
C1162 H1138 0.950 . S
C1162 C1157 1.363 1_565 S
C1162 C1161 1.415 . S
C1163 H1139 0.951 . S
C1163 C1164 1.366 . S
C1163 C1165 1.388 . S
C1164 C1163 1.366 . S
C1164 C1168 1.385 . S
C1165 H1140 0.951 . S
C1165 C1163 1.388 . S
C1165 C1166 1.366 . S
C1166 C1165 1.366 . S
C1166 C1167 1.414 . S
C1166 C1169 1.499 . S
C1167 H1141 0.950 1_545 S
C1167 C1166 1.414 . S
C1167 C1168 1.374 . S
C1168 H1142 0.950 1_545 S
C1168 C1164 1.385 . S
C1168 C1167 1.374 . S
C1169 C1166 1.499 . S
C1169 C1170 1.373 . S
C1169 C1171 1.389 . S
C1170 H1143 0.950 . S
C1170 C1156 1.377 . S
C1170 C1169 1.373 . S
C1171 C1155 1.377 . S
C1171 C1169 1.389 . S
C1171 C1172 1.524 . S
C1172 C1171 1.524 . S
C1172 C1173 1.397 . S
C1172 C1177 1.363 . S
C1173 H1144 0.950 1_545 S
C1173 C1172 1.397 . S
C1173 C1174 1.334 . S
C1174 H1145 0.950 1_545 S
C1174 C1173 1.334 . S
C1174 C1175 1.287 . S
C1175 C1174 1.287 . S
C1175 C1176 1.524 . S
C1175 H1178 0.999 . S
C1176 H1146 0.950 . S
C1176 C1175 1.524 . S
C1176 C1177 1.415 . S
C1177 H1147 0.950 . S
C1177 C1172 1.363 . S
C1177 C1176 1.415 . S
H1178 C1175 0.999 . S
H1179 C1160 0.913 . S
H1180 C1198 0.951 . S
H1181 C1200 0.951 . S
H1182 C1202 0.950 . S
H1183 C1203 0.950 . S
H1184 C1205 0.950 . S
H1185 C1208 0.950 . S
H1186 C1209 0.950 . S
H1187 C1211 0.950 . S
H1188 C1212 0.950 . S
H1189 C1213 0.951 . S
H1190 C1215 0.951 . S
H1191 C1217 0.950 . S
H1192 C1218 0.950 . S
H1193 C1220 0.950 . S
H1194 C1223 0.950 . S
H1195 C1224 0.950 . S
H1196 C1226 0.950 . S
H1197 C1227 0.950 . S
C1198 H1180 0.951 . S
C1198 C1199 1.366 . S
C1198 C1200 1.388 . S
C1199 C1198 1.366 . S
C1199 C1203 1.385 . S
C1200 H1181 0.951 . S
C1200 C1198 1.388 . S
C1200 C1201 1.366 . S
C1201 C1200 1.366 . S
C1201 C1202 1.414 . S
C1201 C1204 1.499 . S
C1202 H1182 0.950 . S
C1202 C1201 1.414 . S
C1202 C1203 1.374 . S
C1203 H1183 0.950 . S
C1203 C1199 1.385 . S
C1203 C1202 1.374 . S
C1204 C1201 1.499 . S
C1204 C1205 1.373 . S
C1204 C1206 1.389 . S
C1205 H1184 0.950 . S
C1205 C1204 1.373 . S
C1205 C1221 1.377 . S
C1206 C1204 1.389 . S
C1206 C1207 1.524 . S
C1206 C1220 1.377 . S
C1207 C1206 1.524 . S
C1207 C1208 1.397 . S
C1207 C1212 1.363 . S
C1208 H1185 0.950 . S
C1208 C1207 1.397 . S
C1208 C1209 1.334 . S
C1209 H1186 0.950 . S
C1209 C1208 1.334 . S
C1209 C1210 1.287 . S
C1210 C1209 1.287 . S
C1210 C1211 1.524 . S
C1210 H1229 0.913 . S
C1211 H1187 0.950 . S
C1211 C1210 1.524 . S
C1211 C1212 1.415 . S
C1212 H1188 0.950 . S
C1212 C1207 1.363 . S
C1212 C1211 1.415 . S
C1213 H1189 0.951 . S
C1213 C1214 1.366 . S
C1213 C1215 1.388 . S
C1214 C1213 1.366 . S
C1214 C1218 1.385 . S
C1215 H1190 0.951 . S
C1215 C1213 1.388 . S
C1215 C1216 1.366 . S
C1216 C1215 1.366 . S
C1216 C1217 1.414 . S
C1216 C1219 1.499 . S
C1217 H1191 0.950 . S
C1217 C1216 1.414 . S
C1217 C1218 1.374 . S
C1218 H1192 0.950 . S
C1218 C1214 1.385 . S
C1218 C1217 1.374 . S
C1219 C1216 1.499 . S
C1219 C1220 1.373 . S
C1219 C1221 1.389 . S
C1220 H1193 0.950 . S
C1220 C1206 1.377 . S
C1220 C1219 1.373 . S
C1221 C1205 1.377 . S
C1221 C1219 1.389 . S
C1221 C1222 1.524 . S
C1222 C1221 1.524 . S
C1222 C1223 1.397 . S
C1222 C1227 1.363 . S
C1223 H1194 0.950 . S
C1223 C1222 1.397 . S
C1223 C1224 1.334 . S
C1224 H1195 0.950 . S
C1224 C1223 1.334 . S
C1224 C1225 1.287 . S
C1225 C1224 1.287 . S
C1225 C1226 1.524 . S
C1225 H1228 0.999 . S
C1226 H1196 0.950 . S
C1226 C1225 1.524 . S
C1226 C1227 1.415 . S
C1227 H1197 0.950 . S
C1227 C1222 1.363 . S
C1227 C1226 1.415 . S
H1228 C1225 0.999 . S
H1229 C1210 0.913 . S
H1230 C1248 0.951 . S
H1231 C1250 0.951 . S
H1232 C1252 0.950 . S
H1233 C1253 0.950 . S
H1234 C1255 0.950 1_565 S
H1235 C1258 0.950 1_565 S
H1236 C1259 0.950 1_565 S
H1237 C1261 0.950 . S
H1238 C1262 0.950 . S
H1239 C1263 0.951 . S
H1240 C1265 0.951 . S
H1241 C1267 0.950 . S
H1242 C1268 0.950 . S
H1243 C1270 0.950 . S
H1244 C1273 0.950 . S
H1245 C1274 0.950 . S
H1246 C1276 0.950 . S
H1247 C1277 0.950 . S
C1248 H1230 0.951 . S
C1248 C1249 1.366 . S
C1248 C1250 1.388 . S
C1249 C1248 1.366 . S
C1249 C1253 1.385 1_545 S
C1250 H1231 0.951 . S
C1250 C1248 1.388 . S
C1250 C1251 1.366 . S
C1251 C1250 1.366 . S
C1251 C1252 1.414 1_545 S
C1251 C1254 1.499 . S
C1252 H1232 0.950 . S
C1252 C1251 1.414 1_565 S
C1252 C1253 1.374 . S
C1253 H1233 0.950 . S
C1253 C1249 1.385 1_565 S
C1253 C1252 1.374 . S
C1254 C1251 1.499 . S
C1254 C1255 1.373 . S
C1254 C1256 1.389 . S
C1255 H1234 0.950 1_545 S
C1255 C1254 1.373 . S
C1255 C1271 1.377 . S
C1256 C1254 1.389 . S
C1256 C1257 1.524 . S
C1256 C1270 1.377 . S
C1257 C1256 1.524 . S
C1257 C1258 1.397 . S
C1257 C1262 1.363 . S
C1258 H1235 0.950 1_545 S
C1258 C1257 1.397 . S
C1258 C1259 1.334 . S
C1259 H1236 0.950 1_545 S
C1259 C1258 1.334 . S
C1259 C1260 1.287 . S
C1260 C1259 1.287 . S
C1260 C1261 1.524 . S
C1260 H1279 0.913 . S
C1261 H1237 0.950 . S
C1261 C1260 1.524 . S
C1261 C1262 1.415 . S
C1262 H1238 0.950 . S
C1262 C1257 1.363 . S
C1262 C1261 1.415 . S
C1263 H1239 0.951 . S
C1263 C1264 1.366 1_565 S
C1263 C1265 1.388 . S
C1264 C1263 1.366 1_545 S
C1264 C1268 1.385 . S
C1265 H1240 0.951 . S
C1265 C1263 1.388 . S
C1265 C1266 1.366 1_565 S
C1266 C1265 1.366 1_545 S
C1266 C1267 1.414 . S
C1266 C1269 1.499 . S
C1267 H1241 0.950 . S
C1267 C1266 1.414 . S
C1267 C1268 1.374 . S
C1268 H1242 0.950 . S
C1268 C1264 1.385 . S
C1268 C1267 1.374 . S
C1269 C1266 1.499 . S
C1269 C1270 1.373 . S
C1269 C1271 1.389 . S
C1270 H1243 0.950 . S
C1270 C1256 1.377 . S
C1270 C1269 1.373 . S
C1271 C1255 1.377 . S
C1271 C1269 1.389 . S
C1271 C1272 1.524 1_545 S
C1272 C1271 1.524 1_565 S
C1272 C1273 1.397 1_565 S
C1272 C1277 1.363 . S
C1273 H1244 0.950 . S
C1273 C1272 1.397 1_545 S
C1273 C1274 1.334 . S
C1274 H1245 0.950 . S
C1274 C1273 1.334 . S
C1274 C1275 1.287 1_545 S
C1275 C1274 1.287 1_565 S
C1275 C1276 1.524 . S
C1275 H1278 0.999 . S
C1276 H1246 0.950 . S
C1276 C1275 1.524 . S
C1276 C1277 1.415 . S
C1277 H1247 0.950 . S
C1277 C1272 1.363 . S
C1277 C1276 1.415 . S
H1278 C1275 0.999 . S
H1279 C1260 0.913 . S
H1280 C1298 0.951 . S
H1281 C1300 0.951 . S
H1282 C1302 0.950 . S
H1283 C1303 0.950 . S
H1284 C1305 0.950 . S
H1285 C1308 0.950 . S
H1286 C1309 0.950 . S
H1287 C1311 0.950 . S
H1288 C1312 0.950 . S
H1289 C1313 0.951 . S
H1290 C1315 0.930 1_556 S
H1291 C1317 0.950 1_556 S
H1292 C1318 0.950 . S
H1293 C1320 0.950 . S
H1294 C1323 0.950 . S
H1295 C1324 0.970 . S
H1296 C1326 0.950 . S
H1297 C1327 0.950 . S
C1298 H1280 0.951 . S
C1298 C1299 1.366 . S
C1298 C1300 1.388 . S
C1299 C1298 1.366 . S
C1299 C1303 1.385 . S
C1300 H1281 0.951 . S
C1300 C1298 1.388 . S
C1300 C1301 1.366 . S
C1301 C1300 1.366 . S
C1301 C1302 1.414 . S
C1301 C1304 1.499 . S
C1302 H1282 0.950 . S
C1302 C1301 1.414 . S
C1302 C1303 1.374 . S
C1303 H1283 0.950 . S
C1303 C1299 1.385 . S
C1303 C1302 1.374 . S
C1304 C1301 1.499 . S
C1304 C1305 1.373 . S
C1304 C1306 1.389 . S
C1305 H1284 0.950 . S
C1305 C1304 1.373 . S
C1305 C1321 1.377 . S
C1306 C1304 1.389 . S
C1306 C1307 1.524 . S
C1306 C1320 1.377 . S
C1307 C1306 1.524 . S
C1307 C1308 1.397 . S
C1307 C1312 1.363 . S
C1308 H1285 0.950 . S
C1308 C1307 1.397 . S
C1308 C1309 1.334 . S
C1309 H1286 0.950 . S
C1309 C1308 1.334 . S
C1309 C1310 1.287 . S
C1310 C1309 1.287 . S
C1310 C1311 1.524 . S
C1310 H1329 0.913 . S
C1311 H1287 0.950 . S
C1311 C1310 1.524 . S
C1311 C1312 1.415 . S
C1312 H1288 0.950 . S
C1312 C1307 1.363 . S
C1312 C1311 1.415 . S
C1313 H1289 0.951 . S
C1313 C1314 1.366 . S
C1313 C1315 1.427 . S
C1314 C1313 1.366 . S
C1314 C1318 1.385 . S
C1315 H1290 0.930 1_554 S
C1315 C1313 1.427 . S
C1315 C1316 1.348 1_554 S
C1316 C1315 1.348 1_556 S
C1316 C1317 1.414 1_556 S
C1316 C1319 1.499 . S
C1317 H1291 0.950 1_554 S
C1317 C1316 1.414 1_554 S
C1317 C1318 1.374 . S
C1318 H1292 0.950 . S
C1318 C1314 1.385 . S
C1318 C1317 1.374 . S
C1319 C1316 1.499 . S
C1319 C1320 1.373 . S
C1319 C1321 1.389 . S
C1320 H1293 0.950 . S
C1320 C1306 1.377 . S
C1320 C1319 1.373 . S
C1321 C1305 1.377 . S
C1321 C1319 1.389 . S
C1321 C1322 1.524 . S
C1322 C1321 1.524 . S
C1322 C1323 1.397 . S
C1322 C1327 1.363 . S
C1323 H1294 0.950 . S
C1323 C1322 1.397 . S
C1323 C1324 1.334 . S
C1324 H1295 0.970 . S
C1324 C1323 1.334 . S
C1324 C1325 1.287 . S
C1325 C1324 1.287 . S
C1325 C1326 1.524 . S
C1325 H1328 0.999 . S
C1326 H1296 0.950 . S
C1326 C1325 1.524 . S
C1326 C1327 1.415 . S
C1327 H1297 0.950 . S
C1327 C1322 1.363 . S
C1327 C1326 1.415 . S
H1328 C1325 0.999 . S
H1329 C1310 0.913 . S
H1330 C1348 0.951 . S
H1331 C1350 0.951 . S
H1332 C1352 0.950 . S
H1333 C1353 0.950 . S
H1334 C1355 0.950 . S
H1335 C1358 0.950 . S
H1336 C1359 0.950 . S
H1337 C1361 0.950 . S
H1338 C1362 0.950 . S
H1339 C1363 0.951 . S
H1340 C1365 0.951 . S
H1341 C1367 0.950 . S
H1342 C1368 0.950 . S
H1343 C1370 0.950 . S
H1344 C1373 0.950 . S
H1345 C1374 0.950 . S
H1346 C1376 0.950 . S
H1347 C1377 0.950 . S
C1348 H1330 0.951 . S
C1348 C1349 1.366 . S
C1348 C1350 1.388 . S
C1349 C1348 1.366 . S
C1349 C1353 1.385 1_455 S
C1350 H1331 0.951 . S
C1350 C1348 1.388 . S
C1350 C1351 1.366 . S
C1351 C1350 1.366 . S
C1351 C1352 1.414 1_455 S
C1351 C1354 1.499 . S
C1352 H1332 0.950 . S
C1352 C1351 1.414 1_655 S
C1352 C1353 1.374 . S
C1353 H1333 0.950 . S
C1353 C1349 1.385 1_655 S
C1353 C1352 1.374 . S
C1354 C1351 1.499 . S
C1354 C1355 1.373 1_455 S
C1354 C1356 1.389 . S
C1355 H1334 0.950 . S
C1355 C1354 1.373 1_655 S
C1355 C1371 1.377 . S
C1356 C1354 1.389 . S
C1356 C1357 1.524 . S
C1356 C1370 1.377 . S
C1357 C1356 1.524 . S
C1357 C1358 1.397 . S
C1357 C1362 1.363 . S
C1358 H1335 0.950 . S
C1358 C1357 1.397 . S
C1358 C1359 1.334 . S
C1359 H1336 0.950 . S
C1359 C1358 1.334 . S
C1359 C1360 1.287 . S
C1360 C1359 1.287 . S
C1360 C1361 1.524 . S
C1360 H1379 0.913 . S
C1361 H1337 0.950 . S
C1361 C1360 1.524 . S
C1361 C1362 1.415 . S
C1362 H1338 0.950 . S
C1362 C1357 1.363 . S
C1362 C1361 1.415 . S
C1363 H1339 0.951 . S
C1363 C1364 1.366 . S
C1363 C1365 1.388 . S
C1364 C1363 1.366 . S
C1364 C1368 1.385 1_655 S
C1365 H1340 0.951 . S
C1365 C1363 1.388 . S
C1365 C1366 1.366 . S
C1366 C1365 1.366 . S
C1366 C1367 1.414 1_655 S
C1366 C1369 1.499 1_655 S
C1367 H1341 0.950 . S
C1367 C1366 1.414 1_455 S
C1367 C1368 1.374 . S
C1368 H1342 0.950 . S
C1368 C1364 1.385 1_455 S
C1368 C1367 1.374 . S
C1369 C1366 1.499 1_455 S
C1369 C1370 1.373 . S
C1369 C1371 1.390 1_455 S
C1370 H1343 0.950 . S
C1370 C1356 1.377 . S
C1370 C1369 1.373 . S
C1371 C1355 1.377 . S
C1371 C1369 1.390 1_655 S
C1371 C1372 1.524 . S
C1372 C1371 1.524 . S
C1372 C1373 1.397 . S
C1372 C1377 1.363 . S
C1373 H1344 0.950 . S
C1373 C1372 1.397 . S
C1373 C1374 1.334 . S
C1374 H1345 0.950 . S
C1374 C1373 1.334 . S
C1374 C1375 1.287 . S
C1375 C1374 1.287 . S
C1375 C1376 1.524 . S
C1375 H1378 0.999 . S
C1376 H1346 0.950 . S
C1376 C1375 1.524 . S
C1376 C1377 1.415 . S
C1377 H1347 0.950 . S
C1377 C1372 1.363 . S
C1377 C1376 1.415 . S
H1378 C1375 0.999 . S
H1379 C1360 0.913 . S
C499 C19 1.854 . S
C514 C451 1.848 . S
C549 C46 1.147 . S
C564 C301 1.115 . S
C599 C95 0.333 . S
C614 C361 0.408 . S
C649 C10 1.949 . S
C664 C421 1.818 . S
C714 C331 1.267 . S
C699 C55 1.258 . S
C764 C391 0.375 . S
C749 C86 0.435 . S
C799 C59 3.044 . S
C814 C181 2.886 . S
C849 C90 1.973 . S
C864 C271 1.998 . S
C899 C15 1.236 . S
C914 C151 1.249 . S
C964 C211 2.938 . S
C949 C50 2.924 . S
C1014 C241 1.731 . S
C999 C99 1.845 . S
C1049 C6 1.148 . S
C1064 C121 1.109 . S
C1114 C260 1.354 . S
C1099 C9 1.331 . S
C1149 C58 1.450 . S
C1164 C140 1.479 . S
C1199 C98 1.692 . S
C1214 C200 1.734 . S
C1264 C380 1.095 . S
C1249 C49 1.084 . S
C1314 C440 1.350 . S
C1299 C89 1.327 . S
C1349 C18 1.438 . S
C1364 C320 1.459 . S
