# Generated by pormake.
# Topology eea, (3,6)-cn, num edge types: 1
# Building blocks:
#     Node 0, Type 0, BuildingBlock: PAMTOO_clean_linker_0, # of connection points: 3
#     Node 1, Type 0, BuildingBlock: PAMTOO_clean_linker_0, # of connection points: 3
#     Node 2, Type 0, BuildingBlock: PAMTOO_clean_linker_0, # of connection points: 3
#     Node 3, Type 0, BuildingBlock: PAMTOO_clean_linker_0, # of connection points: 3
#     Node 4, Type 0, BuildingBlock: PAMTOO_clean_linker_0, # of connection points: 3
#     Node 5, Type 0, BuildingBlock: PAMTOO_clean_linker_0, # of connection points: 3
#     Node 6, Type 0, BuildingBlock: PAMTOO_clean_linker_0, # of connection points: 3
#     Node 7, Type 0, BuildingBlock: PAMTOO_clean_linker_0, # of connection points: 3
#     Node 8, Type 0, BuildingBlock: PAMTOO_clean_linker_0, # of connection points: 3
#     Node 9, Type 0, BuildingBlock: PAMTOO_clean_linker_0, # of connection points: 3
#     Node 10, Type 0, BuildingBlock: PAMTOO_clean_linker_0, # of connection points: 3
#     Node 11, Type 0, BuildingBlock: PAMTOO_clean_linker_0, # of connection points: 3
#     Node 12, Type 0, BuildingBlock: PAMTOO_clean_linker_0, # of connection points: 3
#     Node 13, Type 0, BuildingBlock: PAMTOO_clean_linker_0, # of connection points: 3
#     Node 14, Type 0, BuildingBlock: PAMTOO_clean_linker_0, # of connection points: 3
#     Node 15, Type 0, BuildingBlock: PAMTOO_clean_linker_0, # of connection points: 3
#     Node 16, Type 0, BuildingBlock: PAMTOO_clean_linker_0, # of connection points: 3
#     Node 17, Type 0, BuildingBlock: PAMTOO_clean_linker_0, # of connection points: 3
#     Node 18, Type 1, BuildingBlock: CUWYAW_clean_sbu_0, # of connection points: 6
#     Node 19, Type 1, BuildingBlock: CUWYAW_clean_sbu_0, # of connection points: 6
#     Node 20, Type 1, BuildingBlock: CUWYAW_clean_sbu_0, # of connection points: 6
#     Node 21, Type 1, BuildingBlock: CUWYAW_clean_sbu_0, # of connection points: 6
#     Node 22, Type 1, BuildingBlock: CUWYAW_clean_sbu_0, # of connection points: 6
#     Node 23, Type 1, BuildingBlock: CUWYAW_clean_sbu_0, # of connection points: 6
#     Node 24, Type 1, BuildingBlock: CUWYAW_clean_sbu_0, # of connection points: 6
#     Node 25, Type 1, BuildingBlock: CUWYAW_clean_sbu_0, # of connection points: 6
#     Node 26, Type 1, BuildingBlock: CUWYAW_clean_sbu_0, # of connection points: 6
#     Edge 27, Type (0, 1), BuildingBlock: TEMPAE_clean_linker_10, # of connection points: 2
#     Edge 28, Type (0, 1), BuildingBlock: TEMPAE_clean_linker_10, # of connection points: 2
#     Edge 29, Type (0, 1), BuildingBlock: TEMPAE_clean_linker_10, # of connection points: 2
#     Edge 30, Type (0, 1), BuildingBlock: TEMPAE_clean_linker_10, # of connection points: 2
#     Edge 31, Type (0, 1), BuildingBlock: TEMPAE_clean_linker_10, # of connection points: 2
#     Edge 32, Type (0, 1), BuildingBlock: TEMPAE_clean_linker_10, # of connection points: 2
#     Edge 33, Type (0, 1), BuildingBlock: TEMPAE_clean_linker_10, # of connection points: 2
#     Edge 34, Type (0, 1), BuildingBlock: TEMPAE_clean_linker_10, # of connection points: 2
#     Edge 35, Type (0, 1), BuildingBlock: TEMPAE_clean_linker_10, # of connection points: 2
#     Edge 36, Type (0, 1), BuildingBlock: TEMPAE_clean_linker_10, # of connection points: 2
#     Edge 37, Type (0, 1), BuildingBlock: TEMPAE_clean_linker_10, # of connection points: 2
#     Edge 38, Type (0, 1), BuildingBlock: TEMPAE_clean_linker_10, # of connection points: 2
#     Edge 39, Type (0, 1), BuildingBlock: TEMPAE_clean_linker_10, # of connection points: 2
#     Edge 40, Type (0, 1), BuildingBlock: TEMPAE_clean_linker_10, # of connection points: 2
#     Edge 41, Type (0, 1), BuildingBlock: TEMPAE_clean_linker_10, # of connection points: 2
#     Edge 42, Type (0, 1), BuildingBlock: TEMPAE_clean_linker_10, # of connection points: 2
#     Edge 43, Type (0, 1), BuildingBlock: TEMPAE_clean_linker_10, # of connection points: 2
#     Edge 44, Type (0, 1), BuildingBlock: TEMPAE_clean_linker_10, # of connection points: 2
#     Edge 45, Type (0, 1), BuildingBlock: TEMPAE_clean_linker_10, # of connection points: 2
#     Edge 46, Type (0, 1), BuildingBlock: TEMPAE_clean_linker_10, # of connection points: 2
#     Edge 47, Type (0, 1), BuildingBlock: TEMPAE_clean_linker_10, # of connection points: 2
#     Edge 48, Type (0, 1), BuildingBlock: TEMPAE_clean_linker_10, # of connection points: 2
#     Edge 49, Type (0, 1), BuildingBlock: TEMPAE_clean_linker_10, # of connection points: 2
#     Edge 50, Type (0, 1), BuildingBlock: TEMPAE_clean_linker_10, # of connection points: 2
#     Edge 51, Type (0, 1), BuildingBlock: TEMPAE_clean_linker_10, # of connection points: 2
#     Edge 52, Type (0, 1), BuildingBlock: TEMPAE_clean_linker_10, # of connection points: 2
#     Edge 53, Type (0, 1), BuildingBlock: TEMPAE_clean_linker_10, # of connection points: 2
#     Edge 54, Type (0, 1), BuildingBlock: TEMPAE_clean_linker_10, # of connection points: 2
#     Edge 55, Type (0, 1), BuildingBlock: TEMPAE_clean_linker_10, # of connection points: 2
#     Edge 56, Type (0, 1), BuildingBlock: TEMPAE_clean_linker_10, # of connection points: 2
#     Edge 57, Type (0, 1), BuildingBlock: TEMPAE_clean_linker_10, # of connection points: 2
#     Edge 58, Type (0, 1), BuildingBlock: TEMPAE_clean_linker_10, # of connection points: 2
#     Edge 59, Type (0, 1), BuildingBlock: TEMPAE_clean_linker_10, # of connection points: 2
#     Edge 60, Type (0, 1), BuildingBlock: TEMPAE_clean_linker_10, # of connection points: 2
#     Edge 61, Type (0, 1), BuildingBlock: TEMPAE_clean_linker_10, # of connection points: 2
#     Edge 62, Type (0, 1), BuildingBlock: TEMPAE_clean_linker_10, # of connection points: 2
#     Edge 63, Type (0, 1), BuildingBlock: TEMPAE_clean_linker_10, # of connection points: 2
#     Edge 64, Type (0, 1), BuildingBlock: TEMPAE_clean_linker_10, # of connection points: 2
#     Edge 65, Type (0, 1), BuildingBlock: TEMPAE_clean_linker_10, # of connection points: 2
#     Edge 66, Type (0, 1), BuildingBlock: TEMPAE_clean_linker_10, # of connection points: 2
#     Edge 67, Type (0, 1), BuildingBlock: TEMPAE_clean_linker_10, # of connection points: 2
#     Edge 68, Type (0, 1), BuildingBlock: TEMPAE_clean_linker_10, # of connection points: 2
#     Edge 69, Type (0, 1), BuildingBlock: TEMPAE_clean_linker_10, # of connection points: 2
#     Edge 70, Type (0, 1), BuildingBlock: TEMPAE_clean_linker_10, # of connection points: 2
#     Edge 71, Type (0, 1), BuildingBlock: TEMPAE_clean_linker_10, # of connection points: 2
#     Edge 72, Type (0, 1), BuildingBlock: TEMPAE_clean_linker_10, # of connection points: 2
#     Edge 73, Type (0, 1), BuildingBlock: TEMPAE_clean_linker_10, # of connection points: 2
#     Edge 74, Type (0, 1), BuildingBlock: TEMPAE_clean_linker_10, # of connection points: 2
#     Edge 75, Type (0, 1), BuildingBlock: TEMPAE_clean_linker_10, # of connection points: 2
#     Edge 76, Type (0, 1), BuildingBlock: TEMPAE_clean_linker_10, # of connection points: 2
#     Edge 77, Type (0, 1), BuildingBlock: TEMPAE_clean_linker_10, # of connection points: 2
#     Edge 78, Type (0, 1), BuildingBlock: TEMPAE_clean_linker_10, # of connection points: 2
#     Edge 79, Type (0, 1), BuildingBlock: TEMPAE_clean_linker_10, # of connection points: 2
#     Edge 80, Type (0, 1), BuildingBlock: TEMPAE_clean_linker_10, # of connection points: 2
# Relax obj value: 0.057
# Max RMSD: 0.206
# Mean RMSD: 0.145
data_MOF--net-eea--node1-CUWYAW_clean_sbu_0--node2-PAMTOO_clean_linker_0--edge1-TEMPAE_clean_linker_10
_symmetry_space_group_name_H-M    P1
_symmetry_Int_Tables_number       1
_symmetry_cell_setting            triclinic
loop_
_symmetry_equiv_pos_as_xyz
'x, y, z'
_cell_length_a     55.389837
_cell_length_b     55.005751
_cell_length_c     70.327048
_cell_angle_alpha  93.38927
_cell_angle_beta   93.429872
_cell_angle_gamma 119.87358
loop_
_atom_site_label
_atom_site_type_symbol
_atom_site_fract_x
_atom_site_fract_y
_atom_site_fract_z
_atom_type_partial_charge
H0 H 0.20644 0.05863 0.42793 0.0
H1 H 0.21258 0.13963 0.42821 0.0
H2 H 0.1966 0.09004 0.37482 0.0
H3 H 0.23288 0.15263 0.37385 0.0
C4 C 0.22433 0.15962 0.38554 0.0
O5 O 0.20149 0.13635 0.39124 0.0
H6 H 0.24104 0.17035 0.39771 0.0
C7 C 0.20595 0.07475 0.42009 0.0
C8 C 0.20092 0.07065 0.39993 0.0
C9 C 0.21088 0.09976 0.4304 0.0
C10 C 0.2094 0.12046 0.42048 0.0
C11 C 0.20383 0.11662 0.40053 0.0
C12 C 0.20003 0.09207 0.39028 0.0
H13 H 0.94867 0.18039 0.43492 0.0
H14 H 0.87676 0.09643 0.42659 0.0
H15 H 0.92858 0.12895 0.3812 0.0
H16 H 0.86684 0.09342 0.36759 0.0
C17 C 0.86009 0.0819 0.3805 0.0
O18 O 0.88358 0.08592 0.39149 0.0
H19 H 0.84899 0.09058 0.38868 0.0
C20 C 0.93537 0.1608 0.42597 0.0
C21 C 0.94198 0.1574 0.40729 0.0
C22 C 0.91173 0.13906 0.43316 0.0
C23 C 0.89477 0.11372 0.42137 0.0
C24 C 0.9007 0.11026 0.40269 0.0
C25 C 0.92429 0.13194 0.39572 0.0
H26 H 0.84134 0.76882 0.439 0.0
H27 H 0.91988 0.77089 0.43807 0.0
H28 H 0.89237 0.80273 0.3927 0.0
H29 H 0.91699 0.76993 0.37889 0.0
C30 C 0.93066 0.77247 0.39199 0.0
O31 O 0.93105 0.79214 0.40534 0.0
H32 H 0.92172 0.75162 0.39779 0.0
C33 C 0.86008 0.77423 0.43211 0.0
C34 C 0.86391 0.7865 0.41469 0.0
C35 C 0.88028 0.76899 0.44093 0.0
C36 C 0.9043 0.77529 0.43177 0.0
C37 C 0.90819 0.78687 0.41425 0.0
C38 C 0.88839 0.79293 0.40595 0.0
H39 H 0.06772 0.24532 0.57757 0.0
H40 H 0.1383 0.23253 0.58006 0.0
H41 H 0.08209 0.20321 0.62323 0.0
H42 H 0.13985 0.22622 0.63992 0.0
C43 C 0.14936 0.22688 0.62633 0.0
O44 O 0.12856 0.20937 0.61204 0.0
H45 H 0.15985 0.24913 0.62279 0.0
C46 C 0.07948 0.23683 0.5845 0.0
C47 C 0.07139 0.22389 0.60156 0.0
C48 C 0.10335 0.23975 0.57648 0.0
C49 C 0.11973 0.23033 0.58592 0.0
C50 C 0.11216 0.21766 0.60286 0.0
C51 C 0.08785 0.2139 0.61041 0.0
H52 H 0.79699 0.84543 0.59132 0.0
H53 H 0.79753 0.92398 0.59788 0.0
H54 H 0.81452 0.89117 0.64726 0.0
H55 H 0.78426 0.92373 0.65476 0.0
C56 C 0.79032 0.93582 0.64206 0.0
O57 O 0.81166 0.93345 0.63461 0.0
H58 H 0.77161 0.92675 0.63132 0.0
C59 C 0.79917 0.86305 0.60051 0.0
C60 C 0.80609 0.86519 0.62043 0.0
C61 C 0.79572 0.88393 0.59218 0.0
C62 C 0.80012 0.90764 0.60391 0.0
C63 C 0.80705 0.91019 0.62364 0.0
C64 C 0.80972 0.88896 0.63189 0.0
H65 H 0.16635 0.9491 0.58337 0.0
H66 H 0.08992 0.86915 0.57831 0.0
H67 H 0.12033 0.91948 0.63245 0.0
H68 H 0.09277 0.85924 0.63618 0.0
C69 C 0.07876 0.85099 0.62254 0.0
O70 O 0.07954 0.87317 0.61377 0.0
H71 H 0.08653 0.83999 0.61307 0.0
C72 C 0.1488 0.93329 0.58991 0.0
C73 C 0.14638 0.93776 0.60949 0.0
C74 C 0.12892 0.90851 0.57857 0.0
C75 C 0.10575 0.88817 0.58686 0.0
C76 C 0.10257 0.89243 0.60618 0.0
C77 C 0.1229 0.91698 0.61746 0.0
H78 H 0.88231 0.39535 0.7609 0.0
H79 H 0.88477 0.4747 0.76094 0.0
H80 H 0.87121 0.42571 0.70769 0.0
H81 H 0.90608 0.48874 0.70671 0.0
C82 C 0.89723 0.49511 0.71851 0.0
O83 O 0.87459 0.47139 0.72394 0.0
H84 H 0.91384 0.5058 0.73075 0.0
C85 C 0.88113 0.41113 0.75306 0.0
C86 C 0.87618 0.40692 0.73291 0.0
C87 C 0.88488 0.43571 0.76334 0.0
C88 C 0.88257 0.45589 0.7533 0.0
C89 C 0.87742 0.45204 0.73333 0.0
C90 C 0.87456 0.42787 0.72317 0.0
H91 H 0.61519 0.50753 0.76663 0.0
H92 H 0.54154 0.42506 0.7566 0.0
H93 H 0.59513 0.45796 0.71205 0.0
H94 H 0.53319 0.42261 0.69754 0.0
C95 C 0.52618 0.41123 0.71047 0.0
O96 O 0.54943 0.41493 0.7216 0.0
H97 H 0.51522 0.42022 0.71851 0.0
C98 C 0.60166 0.48845 0.75724 0.0
C99 C 0.60843 0.48558 0.73854 0.0
C100 C 0.57745 0.46685 0.76389 0.0
C101 C 0.56009 0.44209 0.75169 0.0
C102 C 0.56647 0.43897 0.7331 0.0
C103 C 0.59057 0.46059 0.72655 0.0
H104 H 0.50988 0.1037 0.7733 0.0
H105 H 0.59134 0.11214 0.7743 0.0
H106 H 0.56173 0.1405 0.72781 0.0
H107 H 0.58961 0.11074 0.7147 0.0
C108 C 0.60259 0.11327 0.72818 0.0
O109 O 0.60195 0.13264 0.74125 0.0
H110 H 0.59342 0.09231 0.73384 0.0
C111 C 0.52916 0.11053 0.76678 0.0
C112 C 0.53282 0.12281 0.74938 0.0
C113 C 0.5503 0.10717 0.77611 0.0
C114 C 0.57504 0.11511 0.76752 0.0
C115 C 0.57865 0.12639 0.74989 0.0
C116 C 0.55795 0.1308 0.74109 0.0
H117 H 0.7292 0.57098 0.90864 0.0
H118 H 0.8029 0.56309 0.91305 0.0
H119 H 0.75146 0.5428 0.95926 0.0
H120 H 0.81077 0.56831 0.97327 0.0
C121 C 0.81861 0.56567 0.95955 0.0
O122 O 0.7964 0.54578 0.94699 0.0
H123 H 0.82868 0.5865 0.95365 0.0
C124 C 0.74321 0.56602 0.9167 0.0
C125 C 0.73725 0.55667 0.935 0.0
C126 C 0.7667 0.56818 0.9085 0.0
C127 C 0.78439 0.56108 0.91888 0.0
C128 C 0.77884 0.55201 0.93709 0.0
C129 C 0.75529 0.54963 0.94505 0.0
H130 H 0.45125 0.17436 0.92602 0.0
H131 H 0.45602 0.25512 0.93101 0.0
H132 H 0.48155 0.22725 0.97976 0.0
H133 H 0.45654 0.2626 0.99164 0.0
C134 C 0.45642 0.27061 0.97751 0.0
O135 O 0.47539 0.26786 0.96699 0.0
H136 H 0.43493 0.25777 0.96992 0.0
C137 C 0.45665 0.19381 0.93451 0.0
C138 C 0.46695 0.19803 0.95397 0.0
C139 C 0.45245 0.21416 0.92605 0.0
C140 C 0.45869 0.23898 0.93728 0.0
C141 C 0.46894 0.24351 0.95657 0.0
C142 C 0.47313 0.22317 0.96488 0.0
H143 H 0.83634 0.28411 0.9202 0.0
H144 H 0.75921 0.20431 0.91354 0.0
H145 H 0.78474 0.25681 0.96675 0.0
H146 H 0.7589 0.1968 0.97158 0.0
C147 C 0.74537 0.18766 0.95778 0.0
O148 O 0.74601 0.20907 0.94805 0.0
H149 H 0.75383 0.17655 0.9491 0.0
C150 C 0.81769 0.2686 0.92596 0.0
C151 C 0.81321 0.27366 0.94493 0.0
C152 C 0.79842 0.24373 0.91438 0.0
C153 C 0.77424 0.22376 0.92205 0.0
C154 C 0.76948 0.22843 0.94092 0.0
C155 C 0.78887 0.25332 0.95227 0.0
H156 H 0.54485 0.72808 0.09417 0.0
H157 H 0.55056 0.80895 0.09499 0.0
H158 H 0.53208 0.75874 0.04154 0.0
H159 H 0.5676 0.82138 0.04025 0.0
C160 C 0.55948 0.82832 0.05225 0.0
O161 O 0.53713 0.80496 0.05832 0.0
H162 H 0.57665 0.83925 0.06411 0.0
C163 C 0.54439 0.74433 0.08646 0.0
C164 C 0.5383 0.73997 0.06638 0.0
C165 C 0.54958 0.76933 0.09692 0.0
C166 C 0.54685 0.78958 0.08725 0.0
C167 C 0.54021 0.78547 0.06737 0.0
C168 C 0.53637 0.76101 0.05695 0.0
H169 H 0.2806 0.84139 0.09929 0.0
H170 H 0.20731 0.7587 0.08887 0.0
H171 H 0.2609 0.79257 0.04443 0.0
H172 H 0.19893 0.75676 0.02977 0.0
C173 C 0.192 0.74544 0.04274 0.0
O174 O 0.21532 0.74916 0.05379 0.0
H175 H 0.18111 0.75447 0.05082 0.0
C176 C 0.26717 0.82238 0.0898 0.0
C177 C 0.27402 0.81985 0.07107 0.0
C178 C 0.24303 0.80055 0.09635 0.0
C179 C 0.22582 0.7759 0.08404 0.0
C180 C 0.23226 0.7731 0.06541 0.0
C181 C 0.25629 0.79496 0.05895 0.0
H182 H 0.17747 0.43951 0.10616 0.0
H183 H 0.25753 0.44472 0.1065 0.0
H184 H 0.22712 0.47037 0.05884 0.0
H185 H 0.25247 0.43742 0.04674 0.0
C186 C 0.26635 0.44112 0.05999 0.0
O187 O 0.26678 0.46176 0.07242 0.0
H188 H 0.25769 0.42097 0.06672 0.0
C189 C 0.19649 0.4455 0.09945 0.0
C190 C 0.19954 0.45606 0.08145 0.0
C191 C 0.21747 0.44198 0.10891 0.0
C192 C 0.24117 0.4475 0.09961 0.0
C193 C 0.24415 0.45708 0.08142 0.0
C194 C 0.22377 0.46194 0.07258 0.0
H195 H 0.39468 0.90305 0.24197 0.0
H196 H 0.46852 0.89543 0.24684 0.0
H197 H 0.41661 0.87505 0.2928 0.0
H198 H 0.47585 0.90039 0.30722 0.0
C199 C 0.48383 0.89822 0.29346 0.0
O200 O 0.4618 0.87823 0.28082 0.0
H201 H 0.49353 0.91917 0.28774 0.0
C202 C 0.40865 0.89814 0.25013 0.0
C203 C 0.40254 0.88881 0.26841 0.0
C204 C 0.43226 0.90037 0.24207 0.0
C205 C 0.44992 0.89335 0.25257 0.0
C206 C 0.44423 0.88431 0.27077 0.0
C207 C 0.42054 0.88184 0.2786 0.0
H208 H 0.11804 0.5071 0.26084 0.0
H209 H 0.12275 0.58783 0.26591 0.0
H210 H 0.14835 0.55992 0.31461 0.0
H211 H 0.12356 0.59571 0.32662 0.0
C212 C 0.12312 0.60328 0.31238 0.0
O213 O 0.14211 0.60052 0.30188 0.0
H214 H 0.10157 0.59008 0.30494 0.0
C215 C 0.12342 0.52653 0.26934 0.0
C216 C 0.13377 0.53074 0.28879 0.0
C217 C 0.11918 0.54687 0.26091 0.0
C218 C 0.12542 0.57167 0.27216 0.0
C219 C 0.13567 0.57618 0.29145 0.0
C220 C 0.13991 0.55585 0.29972 0.0
H221 H 0.50581 0.61581 0.25348 0.0
H222 H 0.42858 0.53618 0.24686 0.0
H223 H 0.45275 0.59022 0.29934 0.0
H224 H 0.42619 0.53011 0.30513 0.0
C225 C 0.41334 0.52073 0.2911 0.0
O226 O 0.41439 0.54192 0.28092 0.0
H227 H 0.4224 0.50965 0.28305 0.0
C228 C 0.48694 0.60055 0.25918 0.0
C229 C 0.48184 0.60631 0.27781 0.0
C230 C 0.46796 0.57539 0.2478 0.0
C231 C 0.44345 0.55576 0.25531 0.0
C232 C 0.43814 0.56101 0.27391 0.0
C233 C 0.45728 0.58623 0.28509 0.0
C234 C 0.53506 0.02493 0.06886 0.0
Eu235 Eu 0.51788 0.02159 0.03298 0.0
C236 C 0.52327 0.0104 0.08579 0.0
C237 C 0.53166 0.02594 0.10382 0.0
C238 C 0.52036 0.01289 0.12009 0.0
C239 C 0.50045 0.98394 0.11866 0.0
C240 C 0.49196 0.96841 0.10049 0.0
C241 C 0.50325 0.98153 0.08418 0.0
C242 C 0.50441 0.05772 0.01744 0.0
C243 C 0.45077 0.97493 0.02516 0.0
C244 C 0.47199 1.00022 0.95678 0.0
Eu245 Eu 0.48961 0.00291 0.99245 0.0
C246 C 0.48378 0.01436 0.93974 0.0
C247 C 0.51162 0.02329 0.93645 0.0
C248 C 0.52201 0.03559 0.91975 0.0
C249 C 0.5048 0.03939 0.90616 0.0
C250 C 0.47718 0.03109 0.90979 0.0
C251 C 0.46678 0.01865 0.92643 0.0
C252 C 0.50339 0.96688 0.0078 0.0
C253 C 0.55716 0.0485 1.00027 0.0
O254 O 0.53892 0.01053 0.05509 0.0
O255 O 0.52473 0.04005 0.06249 0.0
O256 O 0.52717 0.06571 0.02856 0.0
O257 O 0.48922 0.03121 0.01575 0.0
O258 O 0.47439 0.98534 0.0365 0.0
O259 O 0.45059 0.98181 0.0075 0.0
O260 O 0.46955 0.01556 0.97062 0.0
O261 O 0.48108 0.98399 0.96302 0.0
O262 O 0.48068 0.95882 0.9966 0.0
O263 O 0.51844 0.9934 0.00957 0.0
O264 O 0.53367 0.03829 0.98877 0.0
O265 O 0.55698 0.04196 0.01806 0.0
H266 H 0.54687 0.04829 0.10531 0.0
H267 H 0.52701 0.02561 0.13378 0.0
H268 H 0.47686 0.94604 0.09889 0.0
H269 H 0.49636 0.96914 0.07036 0.0
H270 H 0.52523 0.02046 0.94667 0.0
H271 H 0.54347 0.04212 0.91744 0.0
H272 H 0.46337 0.03353 0.89952 0.0
H273 H 0.44529 0.012 0.92877 0.0
C274 C 0.01288 0.53384 0.067 0.0
Eu275 Eu 1.00257 0.50913 0.03225 0.0
C276 C 0.02663 0.53422 0.08567 0.0
C277 C 0.02995 0.51146 0.09021 0.0
C278 C 0.04177 0.51166 0.10844 0.0
C279 C 0.05064 0.53472 0.12235 0.0
C280 C 0.04781 0.5577 0.11752 0.0
C281 C 0.03588 0.55741 0.09936 0.0
C282 C 0.96268 0.45484 0.0207 0.0
C283 C 0.04396 0.4839 0.02521 0.0
C284 C 0.99366 0.46023 0.958 0.0
Eu285 Eu 0.0049 0.48695 0.99213 0.0
C286 C 0.98025 0.45884 0.93901 0.0
C287 C 0.97439 0.47986 0.93412 0.0
C288 C 0.9625 0.47846 0.91565 0.0
C289 C 0.95632 0.45599 0.90184 0.0
C290 C 0.9616 0.43465 0.90709 0.0
C291 C 0.97347 0.4361 0.92549 0.0
C292 C 0.04495 0.54113 0.00342 0.0
C293 C 0.96502 0.51455 0.99888 0.0
O294 O 0.02914 0.54493 0.05349 0.0
O295 O 0.98979 0.51048 0.06076 0.0
O296 O 0.95809 0.47228 0.03086 0.0
O297 O 0.98813 0.46639 0.0179 0.0
O298 O 0.03954 0.50186 0.0356 0.0
O299 O 0.02909 0.47083 0.00871 0.0
O300 O 0.97714 0.45084 0.97157 0.0
O301 O 0.01724 0.48339 0.96375 0.0
O302 O 0.04923 0.5237 0.99293 0.0
O303 O 0.01957 0.52982 0.00643 0.0
O304 O 0.96973 0.49707 0.98807 0.0
O305 O 0.97884 0.52585 0.01598 0.0
H306 H 0.02311 0.49343 0.07976 0.0
H307 H 0.04396 0.4938 0.11165 0.0
H308 H 0.05413 0.57563 0.12796 0.0
H309 H 0.03348 0.57514 0.0961 0.0
H310 H 0.97933 0.49749 0.94448 0.0
H311 H 0.95879 0.49527 0.91204 0.0
H312 H 0.95656 0.41678 0.89695 0.0
H313 H 0.97759 0.41954 0.92913 0.0
C314 C 0.47844 0.48751 0.94478 0.0
Eu315 Eu 0.49395 0.50725 0.98064 0.0
C316 C 0.49213 0.48449 0.92815 0.0
C317 C 0.51924 0.50563 0.92519 0.0
C318 C 0.53111 0.50363 0.90859 0.0
C319 C 0.51619 0.48037 0.8947 0.0
C320 C 0.48948 0.45876 0.89805 0.0
C321 C 0.47755 0.46086 0.91461 0.0
C322 C 0.50566 0.55854 0.99597 0.0
C323 C 0.56195 0.53172 0.98942 0.0
C324 C 0.54348 0.55891 0.05649 0.0
Eu325 Eu 0.52465 0.52823 0.02365 0.0
C326 C 0.53388 0.55831 0.07583 0.0
C327 C 0.54156 0.54625 0.09039 0.0
C328 C 0.533 0.54636 0.10872 0.0
C329 C 0.51673 0.5587 0.11298 0.0
C330 C 0.50905 0.57073 0.09841 0.0
C331 C 0.51758 0.57062 0.0801 0.0
C332 C 0.50578 0.47221 0.01436 0.0
C333 C 0.45585 0.4964 0.015 0.0
O334 O 0.47572 0.47144 0.95849 0.0
O335 O 0.48589 0.51336 0.95125 0.0
O336 O 0.48274 0.54139 0.98517 0.0
O337 O 0.52136 0.54816 0.99792 0.0
O338 O 0.53855 0.51763 0.97765 0.0
O339 O 0.56245 0.5406 0.00748 0.0
O340 O 0.52971 0.56338 0.04263 0.0
O341 O 0.5504 0.5401 0.05109 0.0
O342 O 0.5185 0.48539 0.03106 0.0
O343 O 0.50365 0.48944 0.00453 0.0
O344 O 0.47889 0.51397 0.02644 0.0
O345 O 0.45642 0.48735 0.99721 0.0
H346 H 0.53106 0.52399 0.93551 0.0
H347 H 0.55187 0.52041 0.90654 0.0
H348 H 0.4774 0.44068 0.88755 0.0
H349 H 0.45665 0.44432 0.91664 0.0
H350 H 0.55439 0.53692 0.08767 0.0
H351 H 0.53964 0.53727 0.11968 0.0
H352 H 0.49631 0.58016 0.10112 0.0
H353 H 0.51142 0.58031 0.06931 0.0
C354 C 0.20359 0.35472 0.40065 0.0
Eu355 Eu 0.18602 0.35351 0.36523 0.0
C356 C 0.19065 0.34144 0.4177 0.0
C357 C 0.1641 0.3368 0.4214 0.0
C358 C 0.15239 0.32463 0.43785 0.0
C359 C 0.16689 0.3166 0.45075 0.0
C360 C 0.19318 0.32072 0.44676 0.0
C361 C 0.20497 0.3331 0.4304 0.0
C362 C 0.17214 0.39003 0.35087 0.0
C363 C 0.11832 0.30841 0.35813 0.0
C364 C 0.1382 0.33335 0.28956 0.0
Eu365 Eu 0.15673 0.33569 0.32496 0.0
C366 C 0.14949 0.34641 0.27211 0.0
C367 C 0.17717 0.35502 0.26857 0.0
C368 C 0.187 0.36617 0.25143 0.0
C369 C 0.16934 0.36896 0.23759 0.0
C370 C 0.14191 0.36108 0.24154 0.0
C371 C 0.1321 0.34986 0.25862 0.0
C372 C 0.17072 0.29927 0.33939 0.0
C373 C 0.22453 0.38058 0.33219 0.0
O374 O 0.20352 0.33787 0.3867 0.0
O375 O 0.19759 0.3733 0.39456 0.0
O376 O 0.19509 0.3978 0.36172 0.0
O377 O 0.15696 0.3635 0.34889 0.0
O378 O 0.14206 0.31869 0.36932 0.0
O379 O 0.11798 0.31497 0.34038 0.0
O380 O 0.13767 0.34986 0.30349 0.0
O381 O 0.14615 0.31615 0.2956 0.0
O382 O 0.14765 0.29144 0.32868 0.0
O383 O 0.18588 0.32579 0.34122 0.0
O384 O 0.20082 0.37087 0.32099 0.0
O385 O 0.22465 0.37349 0.3498 0.0
H386 H 0.15246 0.34269 0.41164 0.0
H387 H 0.13195 0.32135 0.44045 0.0
H388 H 0.20489 0.3149 0.45652 0.0
H389 H 0.22538 0.33635 0.42772 0.0
H390 H 0.19102 0.35272 0.2789 0.0
H391 H 0.20819 0.37193 0.24883 0.0
H392 H 0.12796 0.36355 0.23142 0.0
H393 H 0.11078 0.34361 0.26122 0.0
C394 C 0.67691 0.86566 0.40096 0.0
Eu395 Eu 0.66915 0.84355 0.3657 0.0
C396 C 0.69223 0.86776 0.41936 0.0
C397 C 0.70014 0.84783 0.4233 0.0
C398 C 0.7131 0.84928 0.44139 0.0
C399 C 0.7184 0.87073 0.4558 0.0
C400 C 0.71116 0.89111 0.4515 0.0
C401 C 0.69816 0.88958 0.43347 0.0
C402 C 0.62925 0.79027 0.35189 0.0
C403 C 0.71122 0.81912 0.35877 0.0
C404 C 0.66551 0.80207 0.29032 0.0
Eu405 Eu 0.67418 0.82463 0.3255 0.0
C406 C 0.65109 0.80137 0.27176 0.0
C407 C 0.66644 0.80949 0.25587 0.0
C408 C 0.65335 0.80837 0.23798 0.0
C409 C 0.62454 0.79891 0.23557 0.0
C410 C 0.60915 0.7909 0.25152 0.0
C411 C 0.62231 0.79221 0.26949 0.0
C412 C 0.71411 0.87791 0.3391 0.0
C413 C 0.63293 0.85056 0.33234 0.0
O414 O 0.69193 0.87945 0.38752 0.0
O415 O 0.65622 0.84064 0.39446 0.0
O416 O 0.62426 0.80729 0.36223 0.0
O417 O 0.655 0.80165 0.34998 0.0
O418 O 0.70615 0.83637 0.36943 0.0
O419 O 0.69753 0.80735 0.34173 0.0
O420 O 0.64992 0.78914 0.30377 0.0
O421 O 0.68768 0.82608 0.29687 0.0
O422 O 0.71896 0.8609 0.32862 0.0
O423 O 0.68838 0.86662 0.34114 0.0
O424 O 0.63859 0.83409 0.32126 0.0
O425 O 0.64563 0.86075 0.34982 0.0
H426 H 0.69582 0.83087 0.41253 0.0
H427 H 0.71825 0.83317 0.44425 0.0
H428 H 0.71544 0.90823 0.46211 0.0
H429 H 0.69237 0.90526 0.43062 0.0
H430 H 0.68859 0.81646 0.25725 0.0
H431 H 0.66569 0.81427 0.22591 0.0
H432 H 0.58695 0.78369 0.25011 0.0
H433 H 0.60993 0.78589 0.28152 0.0
C434 C 0.14318 0.81926 0.27727 0.0
Eu435 Eu 0.15867 0.83934 0.31308 0.0
C436 C 0.15697 0.8164 0.26065 0.0
C437 C 0.18405 0.83764 0.25774 0.0
C438 C 0.196 0.83579 0.24116 0.0
C439 C 0.1812 0.81258 0.22721 0.0
C440 C 0.15452 0.79085 0.23052 0.0
C441 C 0.1425 0.7928 0.24707 0.0
C442 C 0.1702 0.89071 0.32816 0.0
C443 C 0.22676 0.86411 0.32189 0.0
C444 C 0.20812 0.89178 0.38875 0.0
Eu445 Eu 0.18943 0.86086 0.35602 0.0
C446 C 0.19803 0.89106 0.40791 0.0
C447 C 0.20777 0.88162 0.42308 0.0
C448 C 0.19862 0.88134 0.44124 0.0
C449 C 0.17964 0.89066 0.44471 0.0
C450 C 0.16995 0.90016 0.42952 0.0
C451 C 0.17906 0.90042 0.41137 0.0
C452 C 0.17072 0.8048 0.34711 0.0
C453 C 0.12064 0.82884 0.34744 0.0
O454 O 0.14076 0.80339 0.29104 0.0
O455 O 0.15029 0.84505 0.28365 0.0
O456 O 0.14724 0.87334 0.31746 0.0
O457 O 0.18598 0.88044 0.33015 0.0
O458 O 0.20336 0.84992 0.31012 0.0
O459 O 0.22723 0.8731 0.33991 0.0
O460 O 0.19474 0.89638 0.37469 0.0
O461 O 0.21494 0.87283 0.38356 0.0
O462 O 0.18345 0.81823 0.36375 0.0
O463 O 0.16848 0.82182 0.33711 0.0
O464 O 0.14369 0.84668 0.35877 0.0
O465 O 0.1212 0.81947 0.32974 0.0
H466 H 0.19577 0.85598 0.2681 0.0
H467 H 0.21674 0.85266 0.23914 0.0
H468 H 0.14253 0.7728 0.21998 0.0
H469 H 0.12162 0.77618 0.24906 0.0
H470 H 0.22252 0.87447 0.42093 0.0
H471 H 0.20631 0.87364 0.45256 0.0
H472 H 0.15571 0.90794 0.43173 0.0
H473 H 0.17132 0.90816 0.40011 0.0
C474 C 0.86956 0.69012 0.73451 0.0
Eu475 Eu 0.85212 0.68581 0.69856 0.0
C476 C 0.85766 0.67614 0.7516 0.0
C477 C 0.86595 0.69215 0.76946 0.0
C478 C 0.85456 0.67958 0.78586 0.0
C479 C 0.83463 0.65066 0.78473 0.0
C480 C 0.82624 0.63466 0.76673 0.0
C481 C 0.83763 0.64729 0.75031 0.0
C482 C 0.83781 0.72107 0.6828 0.0
C483 C 0.78502 0.63888 0.69128 0.0
C484 C 0.80522 0.66298 0.62262 0.0
Eu485 Eu 0.82331 0.66635 0.65828 0.0
C486 C 0.81667 0.67566 0.60504 0.0
C487 C 0.80865 0.65818 0.58781 0.0
C488 C 0.81909 0.66945 0.57088 0.0
C489 C 0.8377 0.6985 0.57082 0.0
C490 C 0.84583 0.71604 0.58815 0.0
C491 C 0.83551 0.7047 0.60516 0.0
C492 C 0.83787 0.63096 0.67374 0.0
C493 C 0.89093 0.712 0.66557 0.0
O494 O 0.87313 0.67518 0.72096 0.0
O495 O 0.8595 0.70531 0.72782 0.0
O496 O 0.86129 0.72964 0.69315 0.0
O497 O 0.82274 0.69461 0.68152 0.0
O498 O 0.80882 0.64945 0.70246 0.0
O499 O 0.78455 0.64554 0.67358 0.0
O500 O 0.80388 0.67931 0.63633 0.0
O501 O 0.81349 0.64621 0.62902 0.0
O502 O 0.81492 0.62251 0.66271 0.0
O503 O 0.85269 0.65748 0.67529 0.0
O504 O 0.86731 0.70156 0.65417 0.0
O505 O 0.89101 0.70575 0.68341 0.0
H506 H 0.88118 0.71449 0.77071 0.0
H507 H 0.86115 0.69264 0.7994 0.0
H508 H 0.81116 0.6123 0.76537 0.0
H509 H 0.83082 0.63453 0.73663 0.0
H510 H 0.79417 0.63575 0.58743 0.0
H511 H 0.81217 0.65547 0.55772 0.0
H512 H 0.8603 0.73847 0.58856 0.0
H513 H 0.84223 0.71861 0.61833 0.0
C514 C 0.3426 0.19655 0.73238 0.0
Eu515 Eu 0.33499 0.17397 0.69726 0.0
C516 C 0.35717 0.19779 0.75094 0.0
C517 C 0.36155 0.1757 0.75558 0.0
C518 C 0.37389 0.17657 0.77376 0.0
C519 C 0.38228 0.19966 0.78754 0.0
C520 C 0.37849 0.22204 0.78261 0.0
C521 C 0.36601 0.22107 0.76449 0.0
C522 C 0.29502 0.12043 0.68429 0.0
C523 C 0.37708 0.14922 0.69144 0.0
C524 C 0.33063 0.12876 0.62299 0.0
Eu525 Eu 0.33994 0.15331 0.65764 0.0
C526 C 0.3164 0.12729 0.60416 0.0
C527 C 0.33152 0.13309 0.58813 0.0
C528 C 0.31856 0.13101 0.56998 0.0
C529 C 0.29002 0.12279 0.56739 0.0
C530 C 0.27494 0.11738 0.58355 0.0
C531 C 0.28801 0.11963 0.60178 0.0
C532 C 0.38004 0.20693 0.67032 0.0
C533 C 0.29959 0.18065 0.66327 0.0
O534 O 0.35832 0.20983 0.71908 0.0
O535 O 0.3212 0.17204 0.72571 0.0
O536 O 0.28984 0.13823 0.6934 0.0
O537 O 0.32076 0.13147 0.68255 0.0
O538 O 0.37195 0.16684 0.7016 0.0
O539 O 0.36336 0.13673 0.67454 0.0
O540 O 0.31493 0.11695 0.63666 0.0
O541 O 0.35314 0.15276 0.62908 0.0
O542 O 0.38478 0.18948 0.66024 0.0
O543 O 0.35435 0.19589 0.67236 0.0
O544 O 0.30498 0.16353 0.65266 0.0
O545 O 0.31237 0.19144 0.68067 0.0
H546 H 0.35509 0.15762 0.74524 0.0
H547 H 0.37684 0.15918 0.77706 0.0
H548 H 0.38446 0.23998 0.79295 0.0
H549 H 0.3628 0.23831 0.76117 0.0
H550 H 0.35344 0.13913 0.58963 0.0
H551 H 0.33098 0.1359 0.55796 0.0
H552 H 0.2529 0.11081 0.58208 0.0
H553 H 0.27582 0.1151 0.61392 0.0
C554 C 0.81214 0.1495 0.61615 0.0
Eu555 Eu 0.82952 0.17122 0.65165 0.0
C556 C 0.825 0.14926 0.59838 0.0
C557 C 0.81515 0.15522 0.58147 0.0
C558 C 0.82735 0.15596 0.56453 0.0
C559 C 0.8496 0.15055 0.5641 0.0
C560 C 0.85942 0.14444 0.58104 0.0
C561 C 0.84735 0.14396 0.59807 0.0
C562 C 0.84309 0.2244 0.6642 0.0
C563 C 0.89719 0.19723 0.65829 0.0
C564 C 0.87807 0.21738 0.72632 0.0
Eu565 Eu 0.86011 0.19275 0.69147 0.0
C566 C 0.8663 0.21812 0.74457 0.0
C567 C 0.875 0.20973 0.76082 0.0
C568 C 0.86475 0.21071 0.77836 0.0
C569 C 0.84568 0.22035 0.78011 0.0
C570 C 0.83688 0.22872 0.76382 0.0
C571 C 0.84701 0.22754 0.7462 0.0
C572 C 0.84651 0.13931 0.67939 0.0
C573 C 0.7916 0.1643 0.68488 0.0
O574 O 0.81489 0.13563 0.62983 0.0
O575 O 0.81534 0.17379 0.62263 0.0
O576 O 0.81915 0.20613 0.65502 0.0
O577 O 0.85872 0.21401 0.66626 0.0
O578 O 0.8733 0.17905 0.64815 0.0
O579 O 0.89794 0.20984 0.67505 0.0
O580 O 0.87269 0.22905 0.71222 0.0
O581 O 0.87703 0.19379 0.72055 0.0
O582 O 0.86969 0.15719 0.68967 0.0
O583 O 0.83101 0.14982 0.67686 0.0
O584 O 0.81535 0.18181 0.69556 0.0
O585 O 0.79143 0.15338 0.6676 0.0
H586 H 0.79799 0.15942 0.58139 0.0
H587 H 0.8191 0.16039 0.55167 0.0
H588 H 0.87668 0.14041 0.58117 0.0
H589 H 0.85559 0.1396 0.61097 0.0
H590 H 0.88998 0.20257 0.75998 0.0
H591 H 0.87223 0.20449 0.79068 0.0
H592 H 0.82204 0.23603 0.76468 0.0
H593 H 0.8398 0.2341 0.73392 0.0
C594 C 0.31727 0.83734 0.05381 0.0
C595 C 0.29957 0.84317 0.0642 0.0
C596 C 0.34161 0.85913 0.04747 0.0
C597 C 0.34842 0.88752 0.05151 0.0
C598 C 0.33054 0.89354 0.06187 0.0
C599 C 0.30641 0.87134 0.06813 0.0
C600 C 0.36021 0.85179 0.03661 0.0
C601 C 0.3369 0.92345 0.06636 0.0
C602 C 0.42447 0.94479 0.05051 0.0
C603 C 0.42421 0.95369 0.03221 0.0
C604 C 0.39996 0.92357 0.05704 0.0
C605 C 0.37441 0.91088 0.04503 0.0
C606 C 0.37385 0.92011 0.0267 0.0
C607 C 0.39873 0.94134 0.0205 0.0
C608 C 0.40155 0.91441 0.07668 0.0
C609 C 0.34703 0.90726 0.01351 0.0
H610 H 0.31234 0.81569 0.05091 0.0
H611 H 0.29267 0.87602 0.07592 0.0
H612 H 0.36246 0.85993 0.02237 0.0
H613 H 0.38145 0.86204 0.04445 0.0
H614 H 0.3519 0.8287 0.0345 0.0
H615 H 0.32075 0.9246 0.07437 0.0
H616 H 0.3575 0.93604 0.07501 0.0
H617 H 0.33831 0.93342 0.0529 0.0
H618 H 0.44395 0.95413 0.05972 0.0
H619 H 0.39822 0.94801 0.00636 0.0
H620 H 0.39558 0.89185 0.07536 0.0
H621 H 0.38651 0.91647 0.0854 0.0
H622 H 0.42284 0.92694 0.08448 0.0
H623 H 0.33909 0.88445 0.00989 0.0
H624 H 0.34986 0.91744 1.0 0.0
H625 H 0.33072 0.90913 0.0208 0.0
C626 C 0.16152 0.46837 0.08347 0.0
C627 C 0.17736 0.46082 0.07218 0.0
C628 C 0.13957 0.47133 0.0752 0.0
C629 C 0.13402 0.46808 0.05504 0.0
C630 C 0.15047 0.46152 0.04346 0.0
C631 C 0.17154 0.45744 0.05215 0.0
C632 C 0.12214 0.47772 0.08811 0.0
C633 C 0.14583 0.45887 0.02189 0.0
C634 C 0.06212 0.45232 0.03407 0.0
C635 C 0.06695 0.47946 0.03198 0.0
C636 C 0.08382 0.44824 0.04152 0.0
C637 C 0.11111 0.47181 0.04619 0.0
C638 C 0.11618 0.49918 0.04332 0.0
C639 C 0.09385 0.50271 0.03663 0.0
C640 C 0.07733 0.41887 0.04504 0.0
C641 C 0.14511 0.52474 0.04742 0.0
H642 H 0.16619 0.47204 0.09889 0.0
H643 H 0.18319 0.45127 0.04317 0.0
H644 H 0.12476 0.49865 0.08586 0.0
H645 H 0.09962 0.46189 0.08453 0.0
H646 H 0.12794 0.47771 0.10351 0.0
H647 H 0.16152 0.45543 0.01493 0.0
H648 H 0.12466 0.44099 0.01682 0.0
H649 H 0.14689 0.47822 0.01711 0.0
H650 H 0.04118 0.43442 0.03052 0.0
H651 H 0.09748 0.52368 0.03478 0.0
H652 H 0.08188 0.41815 0.06052 0.0
H653 H 0.09088 0.41315 0.03722 0.0
H654 H 0.0551 0.4028 0.04051 0.0
H655 H 0.15176 0.52852 0.06301 0.0
H656 H 0.146 0.54404 0.04265 0.0
H657 H 0.16044 0.5211 0.04015 0.0
C658 C 0.51569 0.70154 0.03867 0.0
C659 C 0.53409 0.71355 0.05555 0.0
C660 C 0.51139 0.67656 0.02865 0.0
C661 C 0.52497 0.66254 0.03599 0.0
C662 C 0.54332 0.67427 0.05306 0.0
C663 C 0.54818 0.69987 0.06232 0.0
C664 C 0.49224 0.66514 0.01019 0.0
C665 C 0.55763 0.65961 0.0617 0.0
C666 C 0.49232 0.58449 0.01924 0.0
C667 C 0.51087 0.58491 0.00644 0.0
C668 C 0.49705 0.60953 0.02936 0.0
C669 C 0.5201 0.63566 0.02581 0.0
C670 C 0.53862 0.63607 0.01258 0.0
C671 C 0.53411 0.61055 0.00337 0.0
C672 C 0.47761 0.60797 0.044 0.0
C673 C 0.5629 0.66347 0.00791 0.0
H674 H 0.50426 0.71137 0.03331 0.0
H675 H 0.56316 0.7091 0.07493 0.0
H676 H 0.50336 0.66195 0.99854 0.0
H677 H 0.47388 0.64431 0.01183 0.0
H678 H 0.48463 0.67941 0.00576 0.0
H679 H 0.56997 0.67062 0.07565 0.0
H680 H 0.54184 0.63766 0.06389 0.0
H681 H 0.57188 0.65838 0.05176 0.0
H682 H 0.47446 0.56448 0.02165 0.0
H683 H 0.54829 0.61069 0.99333 0.0
H684 H 0.46695 0.61966 0.0398 0.0
H685 H 0.48981 0.61813 0.05812 0.0
H686 H 0.46145 0.58591 0.04566 0.0
H687 H 0.55517 0.67735 0.00286 0.0
H688 H 0.57462 0.6602 0.99672 0.0
H689 H 0.57759 0.67475 0.02096 0.0
C690 C 0.84212 0.29939 0.97618 0.0
C691 C 0.83419 0.30008 0.95696 0.0
C692 C 0.86274 0.32395 0.98738 0.0
C693 C 0.87581 0.34989 0.97921 0.0
C694 C 0.86771 0.3508 0.9599 0.0
C695 C 0.84699 0.32596 0.94906 0.0
C696 C 0.87081 0.32209 0.0079 0.0
C697 C 0.88106 0.37802 0.95064 0.0
C698 C 0.91221 0.41929 0.01137 0.0
C699 C 0.94048 0.42721 0.01111 0.0
C700 C 0.89093 0.39397 0.00132 0.0
C701 C 0.89808 0.37611 0.99078 0.0
C702 C 0.9266 0.38377 0.99083 0.0
C703 C 0.94744 0.40918 1.00106 0.0
C704 C 0.86082 0.38662 0.00165 0.0
C705 C 0.93516 0.36543 0.97974 0.0
H706 H 0.83264 0.27948 0.98236 0.0
H707 H 0.84072 0.32685 0.93434 0.0
H708 H 0.8933 0.32849 0.00989 0.0
H709 H 0.86791 0.33685 0.01763 0.0
H710 H 0.8583 0.30048 0.01224 0.0
H711 H 0.87234 0.37521 0.93551 0.0
H712 H 0.8779 0.39398 0.95874 0.0
H713 H 0.90397 0.38662 0.95104 0.0
H714 H 0.90672 0.43317 0.01913 0.0
H715 H 0.96927 0.41515 1.00094 0.0
H716 H 0.84829 0.36547 0.00663 0.0
H717 H 0.85173 0.3857 0.98695 0.0
H718 H 0.85867 0.40219 0.01111 0.0
H719 H 0.92419 0.34375 0.98414 0.0
H720 H 0.95809 0.37378 0.98188 0.0
H721 H 0.92893 0.36389 0.96423 0.0
C722 C 0.705 0.57514 0.9421 0.0
C723 C 0.71222 0.55416 0.94357 0.0
C724 C 0.6813 0.57286 0.94998 0.0
C725 C 0.66436 0.54903 0.95954 0.0
C726 C 0.67167 0.52791 0.96121 0.0
C727 C 0.69547 0.53073 0.95322 0.0
C728 C 0.67426 0.59586 0.94792 0.0
C729 C 0.65407 0.50208 0.97118 0.0
C730 C 0.61415 0.55155 0.99335 0.0
C731 C 0.58851 0.53719 0.98179 0.0
C732 C 0.63908 0.55586 0.98626 0.0
C733 C 0.63838 0.54557 0.96715 0.0
C734 C 0.61264 0.53137 0.95536 0.0
C735 C 0.58812 0.52734 0.9628 0.0
C736 C 0.66612 0.57112 0.99927 0.0
C737 C 0.61092 0.52009 0.9349 0.0
H738 H 0.71804 0.5935 0.93492 0.0
H739 H 0.70068 0.51426 0.95421 0.0
H740 H 0.65345 0.58704 0.93966 0.0
H741 H 0.67295 0.6045 0.96224 0.0
H742 H 0.68997 0.6134 0.94055 0.0
H743 H 0.66312 0.48806 0.97184 0.0
H744 H 0.65196 0.50839 0.98598 0.0
H745 H 0.63269 0.4899 0.96354 0.0
H746 H 0.61477 0.55925 0.00802 0.0
H747 H 0.56852 0.51614 0.95369 0.0
H748 H 0.68188 0.58959 0.99266 0.0
H749 H 0.67477 0.55696 1.00123 0.0
H750 H 0.66331 0.57849 0.01358 0.0
H751 H 0.62496 0.53747 0.92669 0.0
H752 H 0.58933 0.50977 0.92755 0.0
H753 H 0.61812 0.50453 0.93456 0.0
C754 C 0.48246 0.16201 0.95277 0.0
C755 C 0.47123 0.17625 0.96285 0.0
C756 C 0.48692 0.14173 0.96106 0.0
C757 C 0.48012 0.13553 0.97994 0.0
C758 C 0.4685 0.14957 0.99011 0.0
C759 C 0.46418 0.16969 0.98146 0.0
C760 C 0.49937 0.12727 0.94972 0.0
C761 C 0.46089 0.14356 0.01024 0.0
C762 C 0.47189 0.06756 0.99726 0.0
C763 C 0.49788 0.07729 0.00778 0.0
C764 C 0.46584 0.08619 0.98799 0.0
C765 C 0.48623 0.11526 0.98937 0.0
C766 C 0.51251 0.12512 0.99998 0.0
C767 C 0.518 0.10604 0.00904 0.0
C768 C 0.43762 0.0748 0.97676 0.0
C769 C 0.53487 0.15588 0.00182 0.0
H770 H 0.4883 0.16711 0.93849 0.0
H771 H 0.45507 0.18018 0.98926 0.0
H772 H 0.51998 0.13261 0.95703 0.0
H773 H 0.48569 0.10406 0.94895 0.0
H774 H 0.50232 0.13347 0.93491 0.0
H775 H 0.45133 0.15567 0.01602 0.0
H776 H 0.44596 0.12075 0.01058 0.0
H777 H 0.47988 0.14896 0.01985 0.0
H778 H 0.4562 0.04539 0.99637 0.0
H779 H 0.53817 0.11367 0.01711 0.0
H780 H 0.44033 0.07972 0.96169 0.0
H781 H 0.42656 0.08513 0.98283 0.0
H782 H 0.42422 0.05163 0.97684 0.0
H783 H 0.54022 0.16289 0.98741 0.0
H784 H 0.55427 0.16012 0.01045 0.0
H785 H 0.52692 0.16885 0.00864 0.0
C786 C 0.70032 0.17672 0.97168 0.0
C787 C 0.71589 0.16712 0.96203 0.0
C788 C 0.67383 0.15767 0.97715 0.0
C789 C 0.6628 0.12826 0.9731 0.0
C790 C 0.67835 0.1185 0.96315 0.0
C791 C 0.70469 0.13802 0.95778 0.0
C792 C 0.65794 0.16898 0.98766 0.0
C793 C 0.66749 0.08738 0.95862 0.0
C794 C 0.60958 0.0789 0.00472 0.0
C795 C 0.58421 0.06851 0.99316 0.0
C796 C 0.63521 0.0983 0.99836 0.0
C797 C 0.63561 0.10769 0.97998 0.0
C798 C 0.6101 0.09724 0.96821 0.0
C799 C 0.58476 0.0778 0.97492 0.0
C800 C 0.66192 0.10876 0.01133 0.0
C801 C 0.60954 0.10669 0.94855 0.0
H802 H 0.70912 0.19919 0.97521 0.0
H803 H 0.7168 0.13048 0.95054 0.0
H804 H 0.63662 0.16029 0.98021 0.0
H805 H 0.65546 0.16217 0.0023 0.0
H806 H 0.66868 0.19236 0.98882 0.0
H807 H 0.68155 0.08323 0.95011 0.0
H808 H 0.66526 0.07732 0.97212 0.0
H809 H 0.64643 0.07709 0.95052 0.0
H810 H 0.60947 0.07192 0.01882 0.0
H811 H 0.56533 0.07005 0.96586 0.0
H812 H 0.6727 0.13202 0.01434 0.0
H813 H 0.67636 0.10365 0.00413 0.0
H814 H 0.65809 0.09936 0.02517 0.0
H815 H 0.61843 0.12986 0.94972 0.0
H816 H 0.58802 0.09636 0.94107 0.0
H817 H 0.62277 0.10189 0.9396 0.0
C818 C 0.86582 0.57018 0.95621 0.0
C819 C 0.83964 0.55629 0.96333 0.0
C820 C 0.88618 0.56271 0.96068 0.0
C821 C 0.88008 0.54068 0.97241 0.0
C822 C 0.85325 0.52589 0.97901 0.0
C823 C 0.83335 0.53391 0.97439 0.0
C824 C 0.9145 0.57899 0.95336 0.0
C825 C 0.84585 0.50214 0.99141 0.0
C826 C 0.92672 0.50806 0.97448 0.0
C827 C 0.94385 0.52174 0.99167 0.0
C828 C 0.90596 0.51408 0.96794 0.0
C829 C 0.90231 0.53432 0.9788 0.0
C830 C 0.91977 0.54844 0.99601 0.0
C831 C 0.94025 0.54195 0.00225 0.0
C832 C 0.88771 0.49854 0.94954 0.0
C833 C 0.9167 0.57031 0.00795 0.0
H834 H 0.87059 0.58733 0.94749 0.0
H835 H 0.81299 0.52306 0.97973 0.0
H836 H 0.93078 0.59061 0.96561 0.0
H837 H 0.91987 0.56434 0.94577 0.0
H838 H 0.91535 0.59437 0.94348 0.0
H839 H 0.82355 0.49157 0.99429 0.0
H840 H 0.85007 0.48619 0.98444 0.0
H841 H 0.85916 0.51043 0.00529 0.0
H842 H 0.92928 0.49238 0.96621 0.0
H843 H 0.9534 0.55272 0.01551 0.0
H844 H 0.88904 0.51377 0.9394 0.0
H845 H 0.86552 0.48614 0.95248 0.0
H846 H 0.89373 0.484 0.94249 0.0
H847 H 0.9192 0.58741 0.99922 0.0
H848 H 0.9323 0.57977 0.02078 0.0
H849 H 0.89542 0.56063 0.01275 0.0
C850 C 0.49185 0.32291 0.98443 0.0
C851 C 0.46387 0.30113 0.98081 0.0
C852 C 0.49866 0.35103 0.98885 0.0
C853 C 0.47698 0.35748 0.99015 0.0
C854 C 0.44871 0.33555 0.98655 0.0
C855 C 0.44252 0.30768 0.98198 0.0
C856 C 0.52906 0.37378 0.99251 0.0
C857 C 0.42496 0.34142 0.98802 0.0
C858 C 0.49398 0.42393 0.02157 0.0
C859 C 0.49737 0.44272 0.00798 0.0
C860 C 0.48704 0.39608 0.01594 0.0
C861 C 0.48382 0.3869 0.99622 0.0
C862 C 0.48731 0.40588 0.98242 0.0
C863 C 0.49399 0.43356 0.98849 0.0
C864 C 0.48324 0.37651 0.03112 0.0
C865 C 0.48443 0.39711 0.96129 0.0
H866 H 0.50843 0.31791 0.984 0.0
H867 H 0.42087 0.29084 0.97961 0.0
H868 H 0.53348 0.39092 0.98329 0.0
H869 H 0.53375 0.38321 0.0076 0.0
H870 H 0.5434 0.36561 0.98977 0.0
H871 H 0.40416 0.32222 0.98409 0.0
H872 H 0.42568 0.34992 0.00288 0.0
H873 H 0.42719 0.35766 0.97852 0.0
H874 H 0.4967 0.43102 0.03667 0.0
H875 H 0.4974 0.44829 0.97802 0.0
H876 H 0.49866 0.3693 0.03033 0.0
H877 H 0.46208 0.35749 0.0286 0.0
H878 H 0.48585 0.38672 0.0458 0.0
H879 H 0.50022 0.39099 0.95824 0.0
H880 H 0.48725 0.41419 0.95239 0.0
H881 H 0.4635 0.37838 0.9569 0.0
C882 C 0.15736 0.70521 0.01872 0.0
C883 C 0.17145 0.71446 0.03722 0.0
C884 C 0.13683 0.67684 0.01361 0.0
C885 C 0.13009 0.6572 0.02737 0.0
C886 C 0.14416 0.66645 0.04612 0.0
C887 C 0.16447 0.69503 0.05088 0.0
C888 C 0.12214 0.66795 0.99353 0.0
C889 C 0.13766 0.64618 0.06118 0.0
C890 C 0.05936 0.58938 0.01856 0.0
C891 C 0.06666 0.57052 0.01015 0.0
C892 C 0.07982 0.61757 0.02446 0.0
C893 C 0.10828 0.62702 0.02205 0.0
C894 C 0.11578 0.60781 0.01396 0.0
C895 C 0.09486 0.57984 0.00803 0.0
C896 C 0.07091 0.63737 0.03293 0.0
C897 C 0.14588 0.6169 0.01137 0.0
H898 H 0.16225 0.72029 0.00826 0.0
H899 H 0.17485 0.70226 0.06532 0.0
H900 H 0.12538 0.65134 0.98652 0.0
H901 H 0.09926 0.65877 0.99402 0.0
H902 H 0.12972 0.68581 0.98455 0.0
H903 H 0.15083 0.6566 0.07497 0.0
H904 H 0.11533 0.63664 0.06378 0.0
H905 H 0.14102 0.62872 0.05607 0.0
H906 H 0.03757 0.58221 0.02026 0.0
H907 H 0.10061 0.56523 0.00169 0.0
H908 H 0.07625 0.65477 0.02378 0.0
H909 H 0.0824 0.64704 0.04729 0.0
H910 H 0.04808 0.62656 0.03431 0.0
H911 H 0.15393 0.63341 0.00134 0.0
H912 H 0.14839 0.5991 0.00567 0.0
H913 H 0.15906 0.62625 0.02524 0.0
C914 C 0.30943 0.47394 0.0447 0.0
C915 C 0.29541 0.45019 0.05465 0.0
C916 C 0.33589 0.48188 0.0387 0.0
C917 C 0.34852 0.46553 0.04266 0.0
C918 C 0.33456 0.44171 0.05294 0.0
C919 C 0.30819 0.43435 0.05883 0.0
C920 C 0.35015 0.5075 0.02788 0.0
C921 C 0.3473 0.42373 0.05744 0.0
C922 C 0.40326 0.46913 0.0109 0.0
C923 C 0.42834 0.48767 0.02229 0.0
C924 C 0.37718 0.46168 0.01739 0.0
C925 C 0.37607 0.47301 0.03572 0.0
C926 C 0.40126 0.49154 0.04736 0.0
C927 C 0.42704 0.49863 0.04052 0.0
C928 C 0.35078 0.44182 0.00456 0.0
C929 C 0.40099 0.50408 0.06698 0.0
H930 H 0.29946 0.4861 0.04144 0.0
H931 H 0.29734 0.41593 0.0665 0.0
H932 H 0.37119 0.52262 0.03526 0.0
H933 H 0.35317 0.5012 0.01333 0.0
H934 H 0.33793 0.51844 0.02648 0.0
H935 H 0.33405 0.4063 0.06593 0.0
H936 H 0.35031 0.41454 0.04394 0.0
H937 H 0.36823 0.43688 0.06556 0.0
H938 H 0.40396 0.46054 0.9968 0.0
H939 H 0.44622 0.51306 0.04946 0.0
H940 H 0.33859 0.45238 0.00141 0.0
H941 H 0.33737 0.42307 0.01194 0.0
H942 H 0.35519 0.43461 0.99079 0.0
H943 H 0.3904 0.51661 0.06577 0.0
H944 H 0.42241 0.51792 0.07433 0.0
H945 H 0.38893 0.48703 0.07606 0.0
C946 C 0.55429 0.85771 0.02772 0.0
C947 C 0.55056 0.8488 0.04613 0.0
C948 C 0.54693 0.87746 0.0221 0.0
C949 C 0.53553 0.88858 0.03519 0.0
C950 C 0.5318 0.8797 0.05384 0.0
C951 C 0.53948 0.86 0.0591 0.0
C952 C 0.55135 0.88642 0.00212 0.0
C953 C 0.51961 0.89093 0.06819 0.0
C954 C 0.53828 0.95721 0.02496 0.0
C955 C 0.51146 0.94727 0.01568 0.0
C956 C 0.54629 0.9384 0.03169 0.0
C957 C 0.52696 0.909 0.02915 0.0
C958 C 0.49963 0.89899 0.02019 0.0
C959 C 0.49226 0.91823 0.01354 0.0
C960 C 0.57561 0.94993 0.04115 0.0
C961 C 0.4783 0.86789 0.01734 0.0
H962 H 0.56309 0.84928 0.01772 0.0
H963 H 0.53686 0.8533 0.0734 0.0
H964 H 0.53104 0.88102 0.99428 0.0
H965 H 0.56512 0.90962 0.00282 0.0
H966 H 0.56091 0.8762 0.99379 0.0
H967 H 0.51829 0.88211 0.08214 0.0
H968 H 0.53258 0.91424 0.07065 0.0
H969 H 0.4983 0.88577 0.06246 0.0
H970 H 0.55317 0.97965 0.02665 0.0
H971 H 0.47142 0.91047 0.00649 0.0
H972 H 0.58689 0.94201 0.03255 0.0
H973 H 0.57492 0.94248 0.05553 0.0
H974 H 0.58775 0.97335 0.04272 0.0
H975 H 0.48582 0.85677 0.00787 0.0
H976 H 0.45759 0.86363 0.01088 0.0
H977 H 0.47556 0.85879 0.03125 0.0
C978 C 0.97427 0.20858 0.40314 0.0
C979 C 0.96735 0.1803 0.39991 0.0
C980 C 0.99828 0.23032 0.3964 0.0
C981 C 0.01595 0.22372 0.38624 0.0
C982 C 0.00905 0.19522 0.3829 0.0
C983 C 0.98486 0.17391 0.38972 0.0
C984 C 0.00475 0.26038 0.40017 0.0
C985 C 0.0274 0.18725 0.37228 0.0
C986 C 0.06611 0.27544 0.35406 0.0
C987 C 0.09175 0.28797 0.3656 0.0
C988 C 0.04122 0.25491 0.3607 0.0
C989 C 0.0419 0.24659 0.37933 0.0
C990 C 0.06761 0.25956 0.39118 0.0
C991 C 0.09213 0.28003 0.3842 0.0
C992 C 0.01425 0.24173 0.34765 0.0
C993 C 0.06936 0.2514 0.41114 0.0
H994 H 0.9607 0.21371 0.41078 0.0
H995 H 0.97991 0.15219 0.38736 0.0
H996 H 0.02545 0.27326 0.40865 0.0
H997 H 0.00601 0.26968 0.38643 0.0
H998 H 0.98873 0.262 0.40806 0.0
H999 H 0.01897 0.16412 0.37065 0.0
H1000 H 0.02951 0.19473 0.35783 0.0
H1001 H 0.04872 0.19767 0.38002 0.0
H1002 H 0.0655 0.28137 0.33969 0.0
H1003 H 0.11174 0.2895 0.3933 0.0
H1004 H 0.99812 0.24406 0.35484 0.0
H1005 H 0.00615 0.21882 0.34447 0.0
H1006 H 0.01696 0.25132 0.3339 0.0
H1007 H 0.05438 0.25391 0.41966 0.0
H1008 H 0.0907 0.26425 0.41882 0.0
H1009 H 0.0634 0.22886 0.41038 0.0
C1010 C 0.83712 0.79043 0.38575 0.0
C1011 C 0.84226 0.7923 0.40577 0.0
C1012 C 0.81649 0.79535 0.3773 0.0
C1013 C 0.79975 0.8012 0.38906 0.0
C1014 C 0.80462 0.80296 0.4092 0.0
C1015 C 0.82617 0.79919 0.41728 0.0
C1016 C 0.81261 0.79429 0.35577 0.0
C1017 C 0.78684 0.80852 0.42228 0.0
C1018 C 0.76057 0.83726 0.37142 0.0
C1019 C 0.73381 0.81423 0.36581 0.0
C1020 C 0.78252 0.83326 0.37831 0.0
C1021 C 0.77718 0.8056 0.38039 0.0
C1022 C 0.75001 0.78226 0.37482 0.0
C1023 C 0.72874 0.78685 0.36719 0.0
C1024 C 0.81138 0.85863 0.38336 0.0
C1025 C 0.7432 0.75254 0.37747 0.0
H1026 H 0.84892 0.78475 0.37657 0.0
H1027 H 0.83031 0.80169 0.43272 0.0
H1028 H 0.79157 0.77665 0.35014 0.0
H1029 H 0.81384 0.81403 0.35169 0.0
H1030 H 0.82857 0.79142 0.34873 0.0
H1031 H 0.79218 0.80749 0.43758 0.0
H1032 H 0.7896 0.82967 0.42069 0.0
H1033 H 0.76437 0.79287 0.41825 0.0
H1034 H 0.76441 0.85842 0.37013 0.0
H1035 H 0.7079 0.76913 0.36291 0.0
H1036 H 0.82701 0.8556 0.376 0.0
H1037 H 0.81742 0.86117 0.39898 0.0
H1038 H 0.81254 0.87839 0.37934 0.0
H1039 H 0.75685 0.7472 0.36945 0.0
H1040 H 0.72101 0.73676 0.37256 0.0
H1041 H 0.74735 0.75084 0.39283 0.0
C1042 C 0.17944 0.03286 0.37179 0.0
C1043 C 0.19678 0.04418 0.38917 0.0
C1044 C 0.17541 0.00806 0.36167 0.0
C1045 C 0.18808 0.99343 0.36941 0.0
C1046 C 0.2052 0.00434 0.38703 0.0
C1047 C 0.2099 0.02983 0.3964 0.0
C1048 C 0.15761 0.99754 0.34264 0.0
C1049 C 0.21843 0.98896 0.3961 0.0
C1050 C 0.1555 0.91592 0.35102 0.0
C1051 C 0.17501 0.91674 0.33893 0.0
C1052 C 0.1599 0.9406 0.36149 0.0
C1053 C 0.18365 0.96685 0.35899 0.0
C1054 C 0.20318 0.96769 0.34651 0.0
C1055 C 0.19893 0.94247 0.33696 0.0
C1056 C 0.13934 0.93851 0.37536 0.0
C1057 C 0.22825 0.99525 0.34295 0.0
H1058 H 0.16866 0.04314 0.36607 0.0
H1059 H 0.22407 0.03847 0.40942 0.0
H1060 H 0.16957 0.99473 0.33145 0.0
H1061 H 0.13887 0.97666 0.34356 0.0
H1062 H 0.15058 0.01219 0.33803 0.0
H1063 H 0.22957 0.99919 0.41049 0.0
H1064 H 0.20216 0.96687 0.3975 0.0
H1065 H 0.23357 0.98814 0.38684 0.0
H1066 H 0.13714 0.89584 0.35262 0.0
H1067 H 0.21388 0.94294 0.3275 0.0
H1068 H 0.12916 0.95053 0.37088 0.0
H1069 H 0.15053 0.94802 0.38984 0.0
H1070 H 0.12282 0.91635 0.37637 0.0
H1071 H 0.22127 0.00964 0.33775 0.0
H1072 H 0.24081 0.99237 0.33225 0.0
H1073 H 0.24195 0.00577 0.35649 0.0
C1074 C 0.51477 0.65872 0.28102 0.0
C1075 C 0.50236 0.63328 0.28948 0.0
C1076 C 0.53518 0.68411 0.29148 0.0
C1077 C 0.54343 0.68418 0.31094 0.0
C1078 C 0.53073 0.65868 0.31967 0.0
C1079 C 0.51033 0.63357 0.30885 0.0
C1080 C 0.54806 0.71084 0.28164 0.0
C1081 C 0.53899 0.65786 0.34036 0.0
C1082 C 0.61471 0.74476 0.33225 0.0
C1083 C 0.60737 0.76267 0.34206 0.0
C1084 C 0.59412 0.71902 0.32225 0.0
C1085 C 0.56548 0.71096 0.32209 0.0
C1086 C 0.55798 0.72886 0.33221 0.0
C1087 C 0.57901 0.75446 0.34209 0.0
C1088 C 0.60303 0.7006 0.31165 0.0
C1089 C 0.52775 0.72116 0.33234 0.0
H1090 H 0.50845 0.65882 0.26615 0.0
H1091 H 0.5011 0.614 0.31545 0.0
H1092 H 0.54462 0.72689 0.28932 0.0
H1093 H 0.57102 0.71977 0.28206 0.0
H1094 H 0.53923 0.70727 0.26647 0.0
H1095 H 0.5268 0.63648 0.34513 0.0
H1096 H 0.56157 0.66469 0.34245 0.0
H1097 H 0.53579 0.67279 0.34968 0.0
H1098 H 0.63661 0.75097 0.33229 0.0
H1099 H 0.57324 0.76827 0.34963 0.0
H1100 H 0.5964 0.69807 0.29612 0.0
H1101 H 0.59263 0.67927 0.31664 0.0
H1102 H 0.62605 0.70947 0.31364 0.0
H1103 H 0.51849 0.71926 0.31751 0.0
H1104 H 0.52535 0.73703 0.34127 0.0
H1105 H 0.51553 0.70037 0.33787 0.0
C1106 C 0.36055 0.86288 0.28644 0.0
C1107 C 0.37742 0.8863 0.27682 0.0
C1108 C 0.33663 0.86005 0.29426 0.0
C1109 C 0.32933 0.88115 0.29244 0.0
C1110 C 0.34639 0.90497 0.28291 0.0
C1111 C 0.3702 0.90726 0.27521 0.0
C1112 C 0.31892 0.83424 0.30421 0.0
C1113 C 0.33936 0.92795 0.2807 0.0
C1114 C 0.25305 0.8596 0.29539 0.0
C1115 C 0.25335 0.86953 0.31434 0.0
C1116 C 0.27762 0.86354 0.28806 0.0
C1117 C 0.30329 0.87775 0.29993 0.0
C1118 C 0.30389 0.88812 0.31899 0.0
C1119 C 0.27893 0.88389 0.32597 0.0
C1120 C 0.27601 0.85219 0.26764 0.0
C1121 C 0.33087 0.90338 0.33207 0.0
H1122 H 0.36577 0.84642 0.28755 0.0
H1123 H 0.38333 0.92562 0.26805 0.0
H1124 H 0.31669 0.84057 0.31898 0.0
H1125 H 0.29758 0.82207 0.2965 0.0
H1126 H 0.32793 0.8202 0.30497 0.0
H1127 H 0.35514 0.94546 0.27333 0.0
H1128 H 0.3186 0.91911 0.27237 0.0
H1129 H 0.33797 0.93666 0.29496 0.0
H1130 H 0.23349 0.8484 0.28623 0.0
H1131 H 0.27948 0.89165 0.34061 0.0
H1132 H 0.28311 0.83655 0.26741 0.0
H1133 H 0.29019 0.86951 0.25945 0.0
H1134 H 0.25447 0.84194 0.26021 0.0
H1135 H 0.33947 0.88921 0.33412 0.0
H1136 H 0.32798 0.91081 0.34633 0.0
H1137 H 0.34669 0.92181 0.32547 0.0
C1138 C 0.14953 0.49493 0.28747 0.0
C1139 C 0.13823 0.50903 0.29762 0.0
C1140 C 0.15413 0.47469 0.29568 0.0
C1141 C 0.1474 0.46838 0.31456 0.0
C1142 C 0.13574 0.48231 0.32481 0.0
C1143 C 0.13128 0.50239 0.31623 0.0
C1144 C 0.16664 0.46037 0.28426 0.0
C1145 C 0.1282 0.47618 0.34495 0.0
C1146 C 0.13935 0.40018 0.33131 0.0
C1147 C 0.16544 0.4098 0.34166 0.0
C1148 C 0.13318 0.41894 0.32233 0.0
C1149 C 0.15354 0.44803 0.32385 0.0
C1150 C 0.17987 0.4578 0.33437 0.0
C1151 C 0.18548 0.43858 0.34313 0.0
C1152 C 0.10491 0.40765 0.3112 0.0
C1153 C 0.20218 0.48858 0.33637 0.0
H1154 H 0.15531 0.5001 0.27318 0.0
H1155 H 0.12212 0.51279 0.32409 0.0
H1156 H 0.18722 0.46563 0.29157 0.0
H1157 H 0.15294 0.43714 0.28337 0.0
H1158 H 0.16964 0.46674 0.26949 0.0
H1159 H 0.11867 0.48826 0.35082 0.0
H1160 H 0.11327 0.45336 0.34524 0.0
H1161 H 0.14722 0.48152 0.3545 0.0
H1162 H 0.12371 0.37799 0.33026 0.0
H1163 H 0.20571 0.44613 0.35108 0.0
H1164 H 0.10754 0.41259 0.29613 0.0
H1165 H 0.09394 0.41803 0.31735 0.0
H1166 H 0.09147 0.38448 0.31127 0.0
H1167 H 0.2076 0.49575 0.32201 0.0
H1168 H 0.22156 0.49278 0.34502 0.0
H1169 H 0.19417 0.50146 0.34325 0.0
C1170 C 0.37226 0.47104 0.29 0.0
C1171 C 0.38358 0.50006 0.29475 0.0
C1172 C 0.34571 0.45134 0.29498 0.0
C1173 C 0.33003 0.46085 0.30501 0.0
C1174 C 0.34109 0.4902 0.30944 0.0
C1175 C 0.36778 0.50943 0.30435 0.0
C1176 C 0.33482 0.4203 0.29002 0.0
C1177 C 0.32506 0.50126 0.32005 0.0
C1178 C 0.25196 0.41016 0.30684 0.0
C1179 C 0.25151 0.4006 0.32498 0.0
C1180 C 0.27727 0.42972 0.30013 0.0
C1181 C 0.30285 0.44005 0.31181 0.0
C1182 C 0.30254 0.43035 0.33007 0.0
C1183 C 0.27695 0.41082 0.33642 0.0
C1184 C 0.27661 0.43947 0.28058 0.0
C1185 C 0.3293 0.44065 0.34296 0.0
H1186 H 0.38449 0.46366 0.28274 0.0
H1187 H 0.37662 0.53183 0.30822 0.0
H1188 H 0.33271 0.40989 0.30336 0.0
H1189 H 0.31371 0.41016 0.282 0.0
H1190 H 0.34884 0.41639 0.28129 0.0
H1191 H 0.33571 0.52464 0.32134 0.0
H1192 H 0.30374 0.49255 0.31261 0.0
H1193 H 0.32261 0.49427 0.33464 0.0
H1194 H 0.23248 0.40253 0.29787 0.0
H1195 H 0.27695 0.40365 0.35045 0.0
H1196 H 0.29003 0.4351 0.27155 0.0
H1197 H 0.28522 0.4626 0.28197 0.0
H1198 H 0.25509 0.42902 0.27309 0.0
H1199 H 0.34375 0.43574 0.33559 0.0
H1200 H 0.32554 0.43097 0.35669 0.0
H1201 H 0.34003 0.46388 0.34618 0.0
C1202 C 0.5317 0.90425 0.29033 0.0
C1203 C 0.50533 0.88939 0.29707 0.0
C1204 C 0.55247 0.89732 0.29472 0.0
C1205 C 0.54663 0.87486 0.30599 0.0
C1206 C 0.51964 0.85911 0.31219 0.0
C1207 C 0.49931 0.86661 0.30767 0.0
C1208 C 0.58096 0.91462 0.28784 0.0
C1209 C 0.5125 0.83489 0.3241 0.0
C1210 C 0.59492 0.84413 0.30771 0.0
C1211 C 0.61149 0.85741 0.32515 0.0
C1212 C 0.57381 0.84967 0.3012 0.0
C1213 C 0.56924 0.86903 0.31235 0.0
C1214 C 0.58616 0.88277 0.32981 0.0
C1215 C 0.607 0.87675 0.33601 0.0
C1216 C 0.55617 0.83455 0.28252 0.0
C1217 C 0.58209 0.90369 0.34207 0.0
H1218 H 0.53628 0.92173 0.28199 0.0
H1219 H 0.47882 0.85503 0.31273 0.0
H1220 H 0.59686 0.92607 0.30031 0.0
H1221 H 0.58703 0.90069 0.28004 0.0
H1222 H 0.58161 0.93025 0.27826 0.0
H1223 H 0.49006 0.8236 0.32668 0.0
H1224 H 0.51745 0.81964 0.3169 0.0
H1225 H 0.52541 0.84288 0.33814 0.0
H1226 H 0.59815 0.82908 0.29923 0.0
H1227 H 0.61971 0.88721 0.34946 0.0
H1228 H 0.55738 0.85006 0.27267 0.0
H1229 H 0.53391 0.82152 0.28514 0.0
H1230 H 0.56284 0.82067 0.2753 0.0
H1231 H 0.58434 0.92102 0.33367 0.0
H1232 H 0.59734 0.91295 0.35509 0.0
H1233 H 0.56063 0.89322 0.34659 0.0
C1234 C 0.10868 0.64001 0.31631 0.0
C1235 C 0.13023 0.63373 0.31529 0.0
C1236 C 0.11457 0.66784 0.32055 0.0
C1237 C 0.14275 0.69002 0.32396 0.0
C1238 C 0.16464 0.68385 0.3228 0.0
C1239 C 0.15812 0.65576 0.31871 0.0
C1240 C 0.09061 0.67342 0.32187 0.0
C1241 C 0.19495 0.70687 0.32628 0.0
C1242 C 0.15895 0.76575 0.32156 0.0
C1243 C 0.16243 0.77526 0.34098 0.0
C1244 C 0.15248 0.73806 0.31575 0.0
C1245 C 0.1493 0.71942 0.32974 0.0
C1246 C 0.15257 0.72895 0.3494 0.0
C1247 C 0.1593 0.7568 0.35477 0.0
C1248 C 0.14954 0.7289 0.29467 0.0
C1249 C 0.14908 0.70976 0.3648 0.0
H1250 H 0.0871 0.62299 0.31408 0.0
H1251 H 0.17487 0.65099 0.3184 0.0
H1252 H 0.09131 0.68213 0.33667 0.0
H1253 H 0.0926 0.68939 0.3122 0.0
H1254 H 0.06991 0.65404 0.31808 0.0
H1255 H 0.20946 0.69887 0.32365 0.0
H1256 H 0.1991 0.72375 0.31688 0.0
H1257 H 0.19967 0.71658 0.3413 0.0
H1258 H 0.16214 0.78022 0.31093 0.0
H1259 H 0.16208 0.76416 0.36982 0.0
H1260 H 0.12869 0.70997 0.29044 0.0
H1261 H 0.16548 0.72296 0.29171 0.0
H1262 H 0.15207 0.74572 0.28559 0.0
H1263 H 0.12803 0.69058 0.3624 0.0
H1264 H 0.15166 0.72019 0.37939 0.0
H1265 H 0.16469 0.70279 0.36413 0.0
C1266 C 0.83244 0.03144 0.38852 0.0
C1267 C 0.83985 0.05088 0.37484 0.0
C1268 C 0.81224 0.00284 0.38364 0.0
C1269 C 0.79876 0.99358 0.36472 0.0
C1270 C 0.806 0.01322 0.35093 0.0
C1271 C 0.82639 0.0416 0.35617 0.0
C1272 C 0.80519 0.98259 0.39874 0.0
C1273 C 0.79199 0.00431 0.33066 0.0
C1274 C 0.76404 0.91636 0.34514 0.0
C1275 C 0.73566 0.90708 0.34653 0.0
C1276 C 0.78483 0.94423 0.35148 0.0
C1277 C 0.77705 0.96339 0.35925 0.0
C1278 C 0.74842 0.95394 0.36101 0.0
C1279 C 0.72807 0.92584 0.35469 0.0
C1280 C 0.8151 0.9533 0.34955 0.0
C1281 C 0.73922 0.97367 0.36914 0.0
H1282 H 0.84236 0.0387 0.40307 0.0
H1283 H 0.83163 0.05668 0.34567 0.0
H1284 H 0.78273 0.97306 0.40098 0.0
H1285 H 0.80867 0.96511 0.3939 0.0
H1286 H 0.81793 0.993 0.41267 0.0
H1287 H 0.79995 0.02216 0.32167 0.0
H1288 H 0.79545 0.98769 0.32392 0.0
H1289 H 0.76905 0.99515 0.33074 0.0
H1290 H 0.77001 0.90183 0.33899 0.0
H1291 H 0.70614 0.91871 0.35582 0.0
H1292 H 0.82778 0.96273 0.3636 0.0
H1293 H 0.82358 0.96975 0.3395 0.0
H1294 H 0.81781 0.93548 0.34421 0.0
H1295 H 0.75035 0.98341 0.38358 0.0
H1296 H 0.71631 0.96279 0.37024 0.0
H1297 H 0.74475 0.99102 0.35992 0.0
C1298 C 0.97403 0.7681 0.39262 0.0
C1299 C 0.95983 0.78193 0.38671 0.0
C1300 C 1.00056 0.77576 0.38688 0.0
C1301 C 0.01327 0.79793 0.37507 0.0
C1302 C 0.9993 0.81247 0.36951 0.0
C1303 C 0.97272 0.80428 0.3754 0.0
C1304 C 0.01477 0.75978 0.39316 0.0
C1305 C 0.01221 0.83637 0.35707 0.0
C1306 C 0.09183 0.83312 0.37219 0.0
C1307 C 0.09316 0.82021 0.35474 0.0
C1308 C 0.06603 0.82604 0.379 0.0
C1309 C 0.04086 0.80548 0.36817 0.0
C1310 C 0.04203 0.79219 0.35064 0.0
C1311 C 0.06813 0.79974 0.34412 0.0
C1312 C 0.06573 0.84079 0.39772 0.0
C1313 C 0.01566 0.77007 0.3387 0.0
H1314 H 0.96414 0.75093 0.40148 0.0
H1315 H 0.96175 0.81505 0.37095 0.0
H1316 H 0.01797 0.74921 0.38042 0.0
H1317 H 0.03574 0.77458 0.40078 0.0
H1318 H 1.00243 0.74358 0.40273 0.0
H1319 H 0.99909 0.84616 0.35457 0.0
H1320 H 0.03318 0.85286 0.36381 0.0
H1321 H 0.01518 0.82851 0.34301 0.0
H1322 H 0.11098 0.8491 0.38049 0.0
H1323 H 0.06887 0.78962 0.33065 0.0
H1324 H 0.0545 0.82508 0.40785 0.0
H1325 H 0.05426 0.85227 0.39529 0.0
H1326 H 0.08715 0.85604 0.40455 0.0
H1327 H 1.00322 0.75243 0.34726 0.0
H1328 H 0.02013 0.76147 0.32555 0.0
H1329 H 1.00249 0.77921 0.33446 0.0
C1330 C 0.20535 0.19234 0.39177 0.0
C1331 C 0.21596 0.18034 0.37902 0.0
C1332 C 0.1981 0.21218 0.38612 0.0
C1333 C 0.20173 0.22035 0.36729 0.0
C1334 C 0.21261 0.20838 0.3544 0.0
C1335 C 0.21955 0.1885 0.36041 0.0
C1336 C 0.18646 0.22433 0.40027 0.0
C1337 C 0.21689 0.21655 0.33423 0.0
C1338 C 0.15912 0.25053 0.3453 0.0
C1339 C 0.17864 0.27949 0.34715 0.0
C1340 C 0.16623 0.23116 0.35208 0.0
C1341 C 0.19359 0.24093 0.36087 0.0
C1342 C 0.2133 0.27024 0.36301 0.0
C1343 C 0.20557 0.28918 0.35615 0.0
C1344 C 0.14451 0.20017 0.34962 0.0
C1345 C 0.24269 0.28153 0.37228 0.0
H1346 H 0.20278 0.18616 0.4062 0.0
H1347 H 0.22793 0.1794 0.35056 0.0
H1348 H 0.1998 0.24762 0.40237 0.0
H1349 H 0.16522 0.2194 0.39457 0.0
H1350 H 0.18515 0.21598 0.41441 0.0
H1351 H 0.22602 0.20571 0.32609 0.0
H1352 H 0.1966 0.21127 0.32643 0.0
H1353 H 0.23098 0.23965 0.33455 0.0
H1354 H 0.13822 0.24295 0.33845 0.0
H1355 H 0.22073 0.31155 0.35759 0.0
H1356 H 0.14168 0.19152 0.3637 0.0
H1357 H 0.1517 0.18847 0.34039 0.0
H1358 H 0.1239 0.19609 0.34309 0.0
H1359 H 0.2421 0.27469 0.38685 0.0
H1360 H 0.25525 0.30491 0.37337 0.0
H1361 H 0.25346 0.27281 0.36384 0.0
C1362 C 0.64108 0.5369 0.73527 0.0
C1363 C 0.63405 0.50865 0.73157 0.0
C1364 C 0.66525 0.55886 0.72888 0.0
C1365 C 0.68297 0.55249 0.71858 0.0
C1366 C 0.67599 0.52402 0.7148 0.0
C1367 C 0.65162 0.50248 0.72127 0.0
C1368 C 0.6718 0.58888 0.73311 0.0
C1369 C 0.6944 0.51632 0.70401 0.0
C1370 C 0.73298 0.60537 0.68699 0.0
C1371 C 0.75858 0.61786 0.69857 0.0
C1372 C 0.70817 0.5844 0.69342 0.0
C1373 C 0.70891 0.57558 0.71187 0.0
C1374 C 0.73458 0.58841 0.72375 0.0
C1375 C 0.75902 0.60936 0.71698 0.0
C1376 C 0.68121 0.5714 0.68035 0.0
C1377 C 0.73634 0.57968 0.74351 0.0
H1378 H 0.62745 0.54184 0.743 0.0
H1379 H 0.64653 0.48076 0.71854 0.0
H1380 H 0.69251 0.60154 0.74161 0.0
H1381 H 0.67307 0.59857 0.71953 0.0
H1382 H 0.65582 0.59031 0.74115 0.0
H1383 H 0.68601 0.49321 0.70216 0.0
H1384 H 0.69653 0.52411 0.68966 0.0
H1385 H 0.71571 0.52666 0.71176 0.0
H1386 H 0.73232 0.61174 0.67276 0.0
H1387 H 0.7786 0.61882 0.7261 0.0
H1388 H 0.66506 0.57356 0.68764 0.0
H1389 H 0.67314 0.54852 0.67697 0.0
H1390 H 0.68393 0.58124 0.66671 0.0
H1391 H 0.72146 0.58204 0.75223 0.0
H1392 H 0.75771 0.59228 0.75118 0.0
H1393 H 0.73027 0.5571 0.74243 0.0
C1394 C 0.49317 0.13275 0.75129 0.0
C1395 C 0.51039 0.12716 0.74008 0.0
C1396 C 0.47115 0.13549 0.74287 0.0
C1397 C 0.46689 0.13397 0.72271 0.0
C1398 C 0.48463 0.12928 0.71125 0.0
C1399 C 0.50577 0.12539 0.72003 0.0
C1400 C 0.45231 0.13984 0.75561 0.0
C1401 C 0.48135 0.12848 0.68972 0.0
C1402 C 0.39568 0.11785 0.69995 0.0
C1403 C 0.39999 0.14499 0.69877 0.0
C1404 C 0.4173 0.11389 0.70776 0.0
C1405 C 0.44404 0.13767 0.71371 0.0
C1406 C 0.44863 0.16512 0.71182 0.0
C1407 C 0.42634 0.16845 0.70474 0.0
C1408 C 0.41127 0.08436 0.71019 0.0
C1409 C 0.47704 0.19097 0.71731 0.0
H1410 H 0.49685 0.13514 0.76675 0.0
H1411 H 0.51846 0.12067 0.71109 0.0
H1412 H 0.45448 0.16078 0.75418 0.0
H1413 H 0.4301 0.12375 0.75114 0.0
H1414 H 0.45719 0.13853 0.77094 0.0
H1415 H 0.49783 0.12622 0.68293 0.0
H1416 H 0.46061 0.11061 0.68378 0.0
H1417 H 0.48224 0.14809 0.68566 0.0
H1418 H 0.37517 0.09978 0.69537 0.0
H1419 H 0.42961 0.18943 0.70357 0.0
H1420 H 0.41496 0.0824 0.72557 0.0
H1421 H 0.4257 0.07986 0.70244 0.0
H1422 H 0.38939 0.06816 0.70485 0.0
H1423 H 0.48262 0.19334 0.73298 0.0
H1424 H 0.47771 0.21053 0.71332 0.0
H1425 H 0.49327 0.18868 0.71021 0.0
C1426 C 0.85447 0.36849 0.70525 0.0
C1427 C 0.87254 0.38065 0.72228 0.0
C1428 C 0.85041 0.34349 0.69546 0.0
C1429 C 0.8639 0.3296 0.70315 0.0
C1430 C 0.88202 0.34154 0.72032 0.0
C1431 C 0.88661 0.36715 0.72939 0.0
C1432 C 0.83147 0.33182 0.67691 0.0
C1433 C 0.89625 0.32703 0.72929 0.0
C1434 C 0.83045 0.25128 0.68716 0.0
C1435 C 0.84876 0.25113 0.67435 0.0
C1436 C 0.83558 0.27659 0.69707 0.0
C1437 C 0.85886 0.30243 0.69335 0.0
C1438 C 0.87723 0.30228 0.68019 0.0
C1439 C 0.87228 0.27649 0.67117 0.0
C1440 C 0.81623 0.27562 0.71163 0.0
C1441 C 0.90175 0.32937 0.67537 0.0
H1442 H 0.84305 0.3782 0.69965 0.0
H1443 H 0.90131 0.3765 0.74213 0.0
H1444 H 0.84263 0.32818 0.66547 0.0
H1445 H 0.81292 0.31117 0.67866 0.0
H1446 H 0.82413 0.34614 0.67212 0.0
H1447 H 0.9087 0.3384 0.74315 0.0
H1448 H 0.88038 0.30525 0.73177 0.0
H1449 H 0.91037 0.32535 0.71944 0.0
H1450 H 0.8124 0.2315 0.6897 0.0
H1451 H 0.88632 0.27618 0.66118 0.0
H1452 H 0.80558 0.28718 0.70709 0.0
H1453 H 0.82848 0.28621 0.72566 0.0
H1454 H 0.80005 0.25369 0.7136 0.0
H1455 H 0.89427 0.34323 0.6699 0.0
H1456 H 0.91354 0.32565 0.66443 0.0
H1457 H 0.91632 0.34091 0.68842 0.0
C1458 C 0.16135 0.97674 0.63634 0.0
C1459 C 0.16836 0.96411 0.62134 0.0
C1460 C 0.18177 1.0018 0.6472 0.0
C1461 C 0.20981 0.01519 0.64262 0.0
C1462 C 0.21708 0.00273 0.62751 0.0
C1463 C 0.19649 0.97715 0.61739 0.0
C1464 C 0.1733 0.01405 0.66352 0.0
C1465 C 0.24658 0.01662 0.62185 0.0
C1466 C 0.25597 0.09368 0.65847 0.0
C1467 C 0.27329 0.09365 0.67377 0.0
C1468 C 0.23554 0.06834 0.64799 0.0
C1469 C 0.23156 0.04232 0.65353 0.0
C1470 C 0.2487 0.0423 0.66934 0.0
C1471 C 0.26979 0.06805 0.67903 0.0
C1472 C 0.21863 0.06948 0.63076 0.0
C1473 C 0.2446 0.01507 0.67611 0.0
H1474 H 0.13979 0.96735 0.63949 0.0
H1475 H 0.20263 0.96741 0.60631 0.0
H1476 H 0.18677 0.01746 0.67688 0.0
H1477 H 0.17635 0.03489 0.66044 0.0
H1478 H 0.15108 1.0002 0.66603 0.0
H1479 H 0.24856 0.0049 0.60919 0.0
H1480 H 0.25332 0.03843 0.6185 0.0
H1481 H 0.26122 0.01813 0.63394 0.0
H1482 H 0.2588 0.11358 0.65444 0.0
H1483 H 0.28319 0.0682 0.69098 0.0
H1484 H 0.19597 0.05722 0.63248 0.0
H1485 H 0.22214 0.05968 0.61775 0.0
H1486 H 0.22424 0.0914 0.62841 0.0
H1487 H 0.2226 1.00168 0.67922 0.0
H1488 H 0.2587 0.01867 0.68919 0.0
H1489 H 0.24857 0.00311 0.66469 0.0
C1490 C 0.04506 0.22157 0.63017 0.0
C1491 C 0.04611 0.22107 0.61022 0.0
C1492 C 0.02119 0.21801 0.63845 0.0
C1493 C 0.99812 0.21511 0.62665 0.0
C1494 C 0.99925 0.21546 0.60661 0.0
C1495 C 0.02289 0.21783 0.59862 0.0
C1496 C 0.02049 0.21685 0.65983 0.0
C1497 C 0.97538 0.21317 0.59355 0.0
C1498 C 0.92538 0.17913 0.64337 0.0
C1499 C 0.92339 0.20215 0.65087 0.0
C1500 C 0.94985 0.18304 0.63591 0.0
C1501 C 0.97243 0.21074 0.6352 0.0
C1502 C 0.97034 0.23412 0.64255 0.0
C1503 C 0.94599 0.2295 0.65069 0.0
C1504 C 0.95157 0.1575 0.62891 0.0
C1505 C 0.9935 0.26397 0.64139 0.0
H1506 H 0.06292 0.22482 0.63947 0.0
H1507 H 0.0229 0.21677 0.5832 0.0
H1508 H 0.01799 0.23423 0.66633 0.0
H1509 H 1.00219 0.19676 0.66288 0.0
H1510 H 0.03977 0.21849 0.66694 0.0
H1511 H 0.98055 0.21639 0.57855 0.0
H1512 H 0.95656 0.19207 0.59362 0.0
H1513 H 0.96981 0.229 0.59878 0.0
H1514 H 0.90787 0.15796 0.64366 0.0
H1515 H 0.94422 0.24726 0.65634 0.0
H1516 H 0.97054 0.15858 0.63607 0.0
H1517 H 0.95344 0.15711 0.6133 0.0
H1518 H 0.93292 0.13746 0.63167 0.0
H1519 H 0.01315 0.26772 0.64933 0.0
H1520 H 0.98832 0.27979 0.64733 0.0
H1521 H 0.99761 0.26732 0.62624 0.0
C1522 C 0.82952 0.84984 0.645 0.0
C1523 C 0.80975 0.84283 0.62913 0.0
C1524 C 0.83312 0.82912 0.65336 0.0
C1525 C 0.81721 0.80066 0.64536 0.0
C1526 C 0.79754 0.79339 0.6292 0.0
C1527 C 0.79372 0.81441 0.6215 0.0
C1528 C 0.854 0.83772 0.67079 0.0
C1529 C 0.7806 0.76341 0.61998 0.0
C1530 C 0.84778 0.75453 0.65818 0.0
C1531 C 0.83117 0.73969 0.6723 0.0
C1532 C 0.84264 0.77348 0.64864 0.0
C1533 C 0.82116 0.77859 0.65402 0.0
C1534 C 0.80426 0.76342 0.66828 0.0
C1535 C 0.80917 0.74372 0.67702 0.0
C1536 C 0.86041 0.78827 0.63299 0.0
C1537 C 0.78168 0.76875 0.67482 0.0
H1538 H 0.84253 0.87164 0.65086 0.0
H1539 H 0.77795 0.80841 0.60952 0.0
H1540 H 0.84355 0.82523 0.68266 0.0
H1541 H 0.87079 0.83321 0.6675 0.0
H1542 H 0.86377 0.86047 0.67582 0.0
H1543 H 0.76715 0.76142 0.60693 0.0
H1544 H 0.79476 0.75552 0.61603 0.0
H1545 H 0.76705 0.74955 0.63028 0.0
H1546 H 0.86476 0.75123 0.65455 0.0
H1547 H 0.79652 0.73227 0.68808 0.0
H1548 H 0.87338 0.81119 0.63754 0.0
H1549 H 0.84686 0.78566 0.61985 0.0
H1550 H 0.87451 0.7801 0.6294 0.0
H1551 H 0.79116 0.79104 0.68089 0.0
H1552 H 0.7701 0.7549 0.68584 0.0
H1553 H 0.76652 0.76531 0.66248 0.0
C1554 C 0.03465 0.84023 0.63775 0.0
C1555 C 0.04934 0.83062 0.62701 0.0
C1556 C 0.00816 0.82127 0.64325 0.0
C1557 C 0.99621 0.79194 0.6381 0.0
C1558 C 0.01085 0.78219 0.62706 0.0
C1559 C 0.03722 0.80163 0.62168 0.0
C1560 C 0.99325 0.83257 0.65495 0.0
C1561 C 0.99899 0.75114 0.62134 0.0
C1562 C 0.94342 0.74117 0.66932 0.0
C1563 C 0.91784 0.73203 0.65833 0.0
C1564 C 0.96897 0.76059 0.66288 0.0
C1565 C 0.96908 0.77134 0.64505 0.0
C1566 C 0.94334 0.76223 0.63388 0.0
C1567 C 0.91807 0.74266 0.64062 0.0
C1568 C 0.99591 0.76961 0.67521 0.0
C1569 C 0.94245 0.77325 0.61485 0.0
H1570 H 0.04414 0.8626 0.64208 0.0
H1571 H 0.04863 0.79407 0.61356 0.0
H1572 H 0.97183 0.82481 0.648 0.0
H1573 H 0.99107 0.82478 0.6693 0.0
H1574 H 0.00457 0.85598 0.65683 0.0
H1575 H 0.0124 0.74706 0.61207 0.0
H1576 H 0.9968 0.74001 0.63434 0.0
H1577 H 0.97778 0.74189 0.61359 0.0
H1578 H 0.94354 0.73312 0.683 0.0
H1579 H 0.89846 0.73593 0.63206 0.0
H1580 H 0.00735 0.79278 0.67893 0.0
H1581 H 0.00968 0.76444 0.66715 0.0
H1582 H 0.99229 0.75925 0.68867 0.0
H1583 H 0.95235 0.79653 0.61683 0.0
H1584 H 0.92074 0.7642 0.60795 0.0
H1585 H 0.95462 0.7682 0.605 0.0
C1586 C 0.16543 0.19546 0.64011 0.0
C1587 C 0.17061 0.21758 0.62903 0.0
C1588 C 0.18591 0.18798 0.64403 0.0
C1589 C 0.21212 0.20296 0.63661 0.0
C1590 C 0.21687 0.22437 0.62459 0.0
C1591 C 0.19596 0.23134 0.62086 0.0
C1592 C 0.17992 0.16486 0.65675 0.0
C1593 C 0.24445 0.24074 0.61634 0.0
C1594 C 0.27438 0.20764 0.6659 0.0
C1595 C 0.27816 0.18727 0.65574 0.0
C1596 C 0.25324 0.21317 0.65963 0.0
C1597 C 0.2353 0.1979 0.6428 0.0
C1598 C 0.23924 0.1776 0.63228 0.0
C1599 C 0.26066 0.17255 0.63886 0.0
C1600 C 0.24986 0.23511 0.67121 0.0
C1601 C 0.22052 0.16085 0.61428 0.0
H1602 H 0.14561 0.18458 0.64615 0.0
H1603 H 0.19975 0.24815 0.61203 0.0
H1604 H 0.18467 0.14926 0.64988 0.0
H1605 H 0.19363 0.17396 0.67044 0.0
H1606 H 0.15777 0.1537 0.66001 0.0
H1607 H 0.24396 0.25503 0.60599 0.0
H1608 H 0.26125 0.25359 0.62808 0.0
H1609 H 0.25011 0.22613 0.60901 0.0
H1610 H 0.28783 0.21921 0.67892 0.0
H1611 H 0.26333 0.15666 0.63095 0.0
H1612 H 0.22889 0.22514 0.67653 0.0
H1613 H 0.2512 0.25141 0.66206 0.0
H1614 H 0.26599 0.24565 0.68369 0.0
H1615 H 0.19865 0.14786 0.61774 0.0
H1616 H 0.22708 0.14669 0.60733 0.0
H1617 H 0.22058 0.17527 0.60388 0.0
C1618 C 0.7968 0.97567 0.66563 0.0
C1619 C 0.79961 0.96647 0.64732 0.0
C1620 C 0.80437 0.00391 0.67045 0.0
C1621 C 0.815 0.02343 0.65662 0.0
C1622 C 0.8178 0.0142 0.63807 0.0
C1623 C 0.80991 0.98578 0.63361 0.0
C1624 C 0.80088 0.01283 0.69034 0.0
C1625 C 0.82912 0.03434 0.62294 0.0
C1626 C 0.81151 0.09072 0.66443 0.0
C1627 C 0.8386 0.10998 0.6729 0.0
C1628 C 0.80361 0.06256 0.65883 0.0
C1629 C 0.82336 0.05353 0.66167 0.0
C1630 C 0.85093 0.07311 0.66986 0.0
C1631 C 0.85818 0.10107 0.67542 0.0
C1632 C 0.77401 0.04236 0.65019 0.0
C1633 C 0.87268 0.06445 0.67297 0.0
H1634 H 0.78851 0.96071 0.67618 0.0
H1635 H 0.81173 0.97856 0.61937 0.0
H1636 H 0.82141 0.02964 0.69751 0.0
H1637 H 0.78681 0.02175 0.68949 0.0
H1638 H 0.7921 0.99504 0.69938 0.0
H1639 H 0.83013 0.02387 0.60926 0.0
H1640 H 0.81574 0.04372 0.62013 0.0
H1641 H 0.85044 0.05192 0.62811 0.0
H1642 H 0.79633 0.09757 0.66242 0.0
H1643 H 0.87922 0.11597 0.68184 0.0
H1644 H 0.76353 0.02509 0.65944 0.0
H1645 H 0.77415 0.03256 0.63598 0.0
H1646 H 0.76143 0.05287 0.64844 0.0
H1647 H 0.86584 0.04802 0.68306 0.0
H1648 H 0.89345 0.08245 0.67883 0.0
H1649 H 0.87501 0.05513 0.65926 0.0
C1650 C 0.49246 0.37084 0.6862 0.0
C1651 C 0.5057 0.38025 0.70492 0.0
C1652 C 0.47206 0.34244 0.68102 0.0
C1653 C 0.46461 0.32295 0.69493 0.0
C1654 C 0.47784 0.33237 0.7139 0.0
C1655 C 0.49804 0.36097 0.71871 0.0
C1656 C 0.45829 0.33335 0.6607 0.0
C1657 C 0.47055 0.31228 0.72913 0.0
C1658 C 0.39397 0.2552 0.68512 0.0
C1659 C 0.4016 0.23626 0.67734 0.0
C1660 C 0.41428 0.28339 0.69117 0.0
C1661 C 0.44292 0.29275 0.68955 0.0
C1662 C 0.45074 0.27345 0.68212 0.0
C1663 C 0.42997 0.24547 0.67603 0.0
C1664 C 0.40504 0.30328 0.69894 0.0
C1665 C 0.48103 0.28245 0.68036 0.0
H1666 H 0.49791 0.3858 0.67561 0.0
H1667 H 0.5078 0.36835 0.7333 0.0
H1668 H 0.46182 0.31667 0.65416 0.0
H1669 H 0.43534 0.32421 0.66062 0.0
H1670 H 0.46638 0.3511 0.65162 0.0
H1671 H 0.48309 0.32282 0.7431 0.0
H1672 H 0.44803 0.30277 0.73118 0.0
H1673 H 0.47411 0.29477 0.72452 0.0
H1674 H 0.37204 0.24811 0.68619 0.0
H1675 H 0.43597 0.2308 0.67017 0.0
H1676 H 0.41082 0.32055 0.6896 0.0
H1677 H 0.41595 0.31312 0.71342 0.0
H1678 H 0.38209 0.29251 0.69984 0.0
H1679 H 0.48964 0.29882 0.67026 0.0
H1680 H 0.48375 0.26458 0.67516 0.0
H1681 H 0.49359 0.29196 0.69443 0.0
C1682 C 0.64542 0.1451 0.7123 0.0
C1683 C 0.6322 0.1231 0.72383 0.0
C1684 C 0.67222 0.15316 0.70692 0.0
C1685 C 0.68606 0.13883 0.71323 0.0
C1686 C 0.67317 0.11727 0.72547 0.0
C1687 C 0.64642 0.10974 0.73068 0.0
C1688 C 0.68535 0.1764 0.694 0.0
C1689 C 0.68724 0.10154 0.73254 0.0
C1690 C 0.73918 0.13685 0.68231 0.0
C1691 C 0.76466 0.15737 0.69239 0.0
C1692 C 0.71352 0.13059 0.689 0.0
C1693 C 0.71327 0.14526 0.70616 0.0
C1694 C 0.7389 0.16595 0.71645 0.0
C1695 C 0.76428 0.17173 0.70946 0.0
C1696 C 0.68665 0.10829 0.67764 0.0
C1697 C 0.73954 0.18214 0.73476 0.0
H1698 H 0.63446 0.15554 0.70716 0.0
H1699 H 0.63628 0.09289 0.73975 0.0
H1700 H 0.70664 0.19269 0.70037 0.0
H1701 H 0.68761 0.16769 0.68002 0.0
H1702 H 0.6727 0.18666 0.69139 0.0
H1703 H 0.67512 0.08644 0.7428 0.0
H1704 H 0.68972 0.0897 0.72022 0.0
H1705 H 0.70849 0.11659 0.73964 0.0
H1706 H 0.73923 0.12563 0.66913 0.0
H1707 H 0.78384 0.18776 0.71732 0.0
H1708 H 0.67375 0.11761 0.67314 0.0
H1709 H 0.67423 0.09138 0.68672 0.0
H1710 H 0.69044 0.09864 0.66467 0.0
H1711 H 0.72841 0.19386 0.73194 0.0
H1712 H 0.76123 0.19738 0.74114 0.0
H1713 H 0.72843 0.16734 0.74541 0.0
C1714 C 0.89169 0.52416 0.69388 0.0
C1715 C 0.88829 0.51554 0.71237 0.0
C1716 C 0.8839 0.54356 0.68817 0.0
C1717 C 0.87235 0.55453 0.70124 0.0
C1718 C 0.86897 0.54594 0.71997 0.0
C1719 C 0.87709 0.52661 0.72533 0.0
C1720 C 0.88796 0.55225 0.66811 0.0
C1721 C 0.85663 0.55703 0.7343 0.0
C1722 C 0.87352 0.62227 0.69072 0.0
C1723 C 0.84652 0.61179 0.6816 0.0
C1724 C 0.88213 0.60393 0.69747 0.0
C1725 C 0.8632 0.57445 0.6951 0.0
C1726 C 0.83569 0.56387 0.68629 0.0
C1727 C 0.82773 0.58267 0.6796 0.0
C1728 C 0.91162 0.61604 0.70678 0.0
C1729 C 0.81479 0.53265 0.68363 0.0
H1730 H 0.90051 0.51576 0.68388 0.0
H1731 H 0.87465 0.52005 0.73966 0.0
H1732 H 0.86746 0.54633 0.66032 0.0
H1733 H 0.90132 0.57548 0.66864 0.0
H1734 H 0.89779 0.54228 0.65983 0.0
H1735 H 0.85576 0.54856 0.74835 0.0
H1736 H 0.86921 0.58038 0.73654 0.0
H1737 H 0.83512 0.55133 0.72867 0.0
H1738 H 0.8881 0.64479 0.6923 0.0
H1739 H 0.80675 0.57449 0.67267 0.0
H1740 H 0.92303 0.60828 0.69819 0.0
H1741 H 0.91129 0.60888 0.72123 0.0
H1742 H 0.92343 0.63946 0.70816 0.0
H1743 H 0.82254 0.52169 0.6742 0.0
H1744 H 0.79391 0.52792 0.67721 0.0
H1745 H 0.81236 0.52376 0.69761 0.0
C1746 C 0.43774 0.93432 0.21806 0.0
C1747 C 0.43894 0.91054 0.22288 0.0
C1748 C 0.44597 0.94533 0.20053 0.0
C1749 C 0.45551 0.93216 0.18748 0.0
C1750 C 0.45587 0.90759 0.192 0.0
C1751 C 0.44764 0.89712 0.20965 0.0
C1752 C 0.44542 0.97164 0.19628 0.0
C1753 C 0.46566 0.89279 0.17841 0.0
C1754 C 0.46023 0.95023 0.13587 0.0
C1755 C 0.4888 0.97015 0.13614 0.0
C1756 C 0.44905 0.93758 0.15243 0.0
C1757 C 0.46684 0.9451 0.16969 0.0
C1758 C 0.49569 0.96506 0.17001 0.0
C1759 C 0.50631 0.97723 0.15325 0.0
C1760 C 0.4182 0.91633 0.1515 0.0
C1761 C 0.51539 0.97362 0.1881 0.0
H1762 H 0.43126 0.94492 0.22828 0.0
H1763 H 0.44821 0.87848 0.21319 0.0
H1764 H 0.46709 0.98913 0.19557 0.0
H1765 H 0.4336 0.96819 0.18213 0.0
H1766 H 0.43575 0.97827 0.20733 0.0
H1767 H 0.46298 0.87293 0.18351 0.0
H1768 H 0.45393 0.88781 0.16404 0.0
H1769 H 0.48812 0.90688 0.17673 0.0
H1770 H 0.44648 0.94486 0.12278 0.0
H1771 H 0.52848 0.99221 0.15352 0.0
H1772 H 0.40816 0.92391 0.16161 0.0
H1773 H 0.41516 0.89607 0.15599 0.0
H1774 H 0.40731 0.91236 0.1369 0.0
H1775 H 0.50817 0.98237 0.19962 0.0
H1776 H 0.53721 0.98964 0.18601 0.0
H1777 H 0.5154 0.95489 0.19315 0.0
C1778 C 0.11938 0.53263 0.22632 0.0
C1779 C 0.10846 0.54251 0.24034 0.0
C1780 C 0.11042 0.52987 0.20677 0.0
C1781 C 0.08998 0.53706 0.20113 0.0
C1782 C 0.07846 0.54645 0.21526 0.0
C1783 C 0.08785 0.5491 0.23466 0.0
C1784 C 0.12328 0.51988 0.19214 0.0
C1785 C 0.05646 0.55411 0.20987 0.0
C1786 C 0.08537 0.55894 0.15138 0.0
C1787 C 0.06199 0.53458 0.14205 0.0
C1788 C 0.09516 0.55975 0.17043 0.0
C1789 C 0.08118 0.53566 0.18045 0.0
C1790 C 0.05802 0.51077 0.17096 0.0
C1791 C 0.04874 0.51051 0.15187 0.0
C1792 C 0.12007 0.58664 0.17997 0.0
C1793 C 0.04249 0.48469 0.18117 0.0
H1794 H 0.13549 0.52775 0.2306 0.0
H1795 H 0.07904 0.55635 0.24544 0.0
H1796 H 0.10666 0.50136 0.18281 0.0
H1797 H 0.13471 0.53674 0.18278 0.0
H1798 H 0.13806 0.51402 0.19889 0.0
H1799 H 0.04894 0.56016 0.22261 0.0
H1800 H 0.0651 0.57198 0.20093 0.0
H1801 H 0.03828 0.53607 0.20118 0.0
H1802 H 0.09594 0.57748 0.14379 0.0
H1803 H 0.03049 0.49171 0.14482 0.0
H1804 H 0.13635 0.58229 0.18599 0.0
H1805 H 0.11362 0.59522 0.19206 0.0
H1806 H 0.12949 0.60301 0.16991 0.0
H1807 H 0.05727 0.47856 0.1875 0.0
H1808 H 0.02593 0.46656 0.17147 0.0
H1809 H 0.0326 0.48916 0.19312 0.0
C1810 C 0.45274 0.55955 0.21269 0.0
C1811 C 0.47384 0.57003 0.22805 0.0
C1812 C 0.45856 0.55617 0.19383 0.0
C1813 C 0.48614 0.5634 0.19024 0.0
C1814 C 0.50734 0.57328 0.20575 0.0
C1815 C 0.50093 0.57644 0.22443 0.0
C1816 C 0.43537 0.54557 0.1777 0.0
C1817 C 0.53696 0.58106 0.20258 0.0
C1818 C 0.49911 0.53609 0.14312 0.0
C1819 C 0.5083 0.55957 0.13265 0.0
C1820 C 0.4915 0.53688 0.16177 0.0
C1821 C 0.49316 0.56177 0.17021 0.0
C1822 C 0.50223 0.58546 0.15968 0.0
C1823 C 0.50968 0.58408 0.14107 0.0
C1824 C 0.48185 0.51115 0.1725 0.0
C1825 C 0.50444 0.61245 0.16817 0.0
H1826 H 0.43182 0.55477 0.21533 0.0
H1827 H 0.51725 0.58409 0.23625 0.0
H1828 H 0.44026 0.56221 0.16795 0.0
H1829 H 0.4337 0.5271 0.16912 0.0
H1830 H 0.41477 0.53941 0.18296 0.0
H1831 H 0.55077 0.58743 0.21622 0.0
H1832 H 0.53713 0.56299 0.19483 0.0
H1833 H 0.54587 0.59876 0.1935 0.0
H1834 H 0.49763 0.51696 0.13665 0.0
H1835 H 0.51713 0.60246 0.13322 0.0
H1836 H 0.46065 0.50426 0.17687 0.0
H1837 H 0.49608 0.51636 0.18578 0.0
H1838 H 0.48123 0.49328 0.1638 0.0
H1839 H 0.48394 0.60818 0.17267 0.0
H1840 H 0.51117 0.62873 0.15794 0.0
H1841 H 0.51972 0.62112 0.18115 0.0
C1842 C 0.9139 0.46701 0.7929 0.0
C1843 C 0.89238 0.44064 0.78444 0.0
C1844 C 0.92325 0.47118 0.81246 0.0
C1845 C 0.91088 0.4484 0.82381 0.0
C1846 C 0.88838 0.42208 0.81554 0.0
C1847 C 0.87936 0.41854 0.79597 0.0
C1848 C 0.94724 0.49959 0.82076 0.0
C1849 C 0.87459 0.39728 0.82716 0.0
C1850 C 0.9553 0.44691 0.86643 0.0
C1851 C 0.94504 0.45495 0.88189 0.0
C1852 C 0.9445 0.44496 0.8475 0.0
C1853 C 0.92296 0.45135 0.84387 0.0
C1854 C 0.9128 0.45996 0.85936 0.0
C1855 C 0.92396 0.46165 0.87821 0.0
C1856 C 0.95602 0.43582 0.83139 0.0
C1857 C 0.88991 0.46701 0.85603 0.0
H1858 H 0.92424 0.48412 0.78407 0.0
H1859 H 0.86239 0.39825 0.78961 0.0
H1860 H 0.94199 0.50688 0.83411 0.0
H1861 H 0.96599 0.49782 0.82457 0.0
H1862 H 0.9527 0.51582 0.81057 0.0
H1863 H 0.85605 0.37891 0.81897 0.0
H1864 H 0.88984 0.39072 0.83171 0.0
H1865 H 0.86795 0.40331 0.84034 0.0
H1866 H 0.97197 0.44225 0.86913 0.0
H1867 H 0.91579 0.46769 0.89009 0.0
H1868 H 0.96435 0.4522 0.82128 0.0
H1869 H 0.93902 0.4162 0.82321 0.0
H1870 H 0.97299 0.43193 0.83663 0.0
H1871 H 0.89613 0.48368 0.84616 0.0
H1872 H 0.88501 0.47432 0.86955 0.0
H1873 H 0.87059 0.44816 0.84908 0.0
C1874 C 0.59006 0.4795 0.7994 0.0
C1875 C 0.56999 0.47005 0.78347 0.0
C1876 C 0.58288 0.4817 0.81801 0.0
C1877 C 0.55506 0.47458 0.82071 0.0
C1878 C 0.53483 0.46541 0.80463 0.0
C1879 C 0.54251 0.46313 0.78624 0.0
C1880 C 0.60496 0.49131 0.8348 0.0
C1881 C 0.50504 0.45798 0.80685 0.0
C1882 C 0.52617 0.45438 0.86865 0.0
C1883 C 0.52781 0.47932 0.87634 0.0
C1884 C 0.53574 0.45279 0.85081 0.0
C1885 C 0.54691 0.47662 0.84031 0.0
C1886 C 0.54906 0.502 0.84817 0.0
C1887 C 0.53959 0.50308 0.86611 0.0
C1888 C 0.53342 0.42544 0.84303 0.0
C1889 C 0.56055 0.52778 0.83736 0.0
H1890 H 0.61126 0.48462 0.79733 0.0
H1891 H 0.52702 0.45614 0.77394 0.0
H1892 H 0.60733 0.51041 0.84292 0.0
H1893 H 0.59842 0.47471 0.84475 0.0
H1894 H 0.62565 0.49616 0.83028 0.0
H1895 H 0.49198 0.45166 0.79288 0.0
H1896 H 0.49533 0.4404 0.81595 0.0
H1897 H 0.50477 0.47627 0.81416 0.0
H1898 H 0.51735 0.43606 0.87659 0.0
H1899 H 0.5406 0.52232 0.87188 0.0
H1900 H 0.55408 0.42921 0.83924 0.0
H1901 H 0.51878 0.41674 0.82973 0.0
H1902 H 0.52577 0.4094 0.85344 0.0
H1903 H 0.58169 0.53351 0.83339 0.0
H1904 H 0.56195 0.54624 0.84581 0.0
H1905 H 0.54691 0.52315 0.82385 0.0
C1906 C 0.52129 0.07212 0.79814 0.0
C1907 C 0.54652 0.096 0.79508 0.0
C1908 C 0.51631 0.06286 0.81641 0.0
C1909 C 0.53701 0.07795 0.83204 0.0
C1910 C 0.56289 0.10156 0.82894 0.0
C1911 C 0.56738 0.11025 0.81045 0.0
C1912 C 0.48856 0.03739 0.81908 0.0
C1913 C 0.58541 0.11824 0.84526 0.0
C1914 C 0.50963 0.0712 0.8808 0.0
C1915 C 0.51511 0.05095 0.88789 0.0
C1916 C 0.51744 0.0808 0.8629 0.0
C1917 C 0.53089 0.06974 0.85174 0.0
C1918 C 0.53715 0.04984 0.85903 0.0
C1919 C 0.52925 0.04074 0.87706 0.0
C1920 C 0.51066 0.10227 0.85571 0.0
C1921 C 0.55131 0.03744 0.84752 0.0
H1922 H 0.50526 0.06086 0.78622 0.0
H1923 H 0.58682 0.12885 0.80816 0.0
H1924 H 0.49198 0.02173 0.8262 0.0
H1925 H 0.47687 0.04374 0.82852 0.0
H1926 H 0.47537 0.02706 0.80529 0.0
H1927 H 0.605 0.13493 0.84027 0.0
H1928 H 0.57782 0.12831 0.85557 0.0
H1929 H 0.5903 0.10407 0.85313 0.0
H1930 H 0.49902 0.0794 0.88925 0.0
H1931 H 0.53329 0.02488 0.8824 0.0
H1932 H 0.49548 0.09284 0.8427 0.0
H1933 H 0.52983 0.1206 0.85162 0.0
H1934 H 0.50159 0.10995 0.86658 0.0
H1935 H 0.5375 0.02497 0.83434 0.0
H1936 H 0.55625 0.02353 0.8557 0.0
H1937 H 0.57099 0.05448 0.84293 0.0
C1938 C 0.1389 0.27269 0.55626 0.0
C1939 C 0.11112 0.2523 0.55813 0.0
C1940 C 0.14691 0.28353 0.53868 0.0
C1941 C 0.12671 0.27351 0.52253 0.0
C1942 C 0.09852 0.25327 0.52441 0.0
C1943 C 0.09103 0.24301 0.54223 0.0
C1944 C 0.1771 0.30539 0.53733 0.0
C1945 C 0.07644 0.24188 0.50748 0.0
C1946 C 0.14445 0.3177 0.48042 0.0
C1947 C 0.15505 0.30459 0.46858 0.0
C1948 C 0.13475 0.30758 0.49791 0.0
C1949 C 0.13539 0.2836 0.50356 0.0
C1950 C 0.14535 0.26983 0.49139 0.0
C1951 C 0.15522 0.2806 0.4741 0.0
C1952 C 0.12456 0.323 0.51058 0.0
C1953 C 0.146 0.24398 0.49677 0.0
H1954 H 0.15441 0.28013 0.56858 0.0
H1955 H 0.06958 0.22706 0.5436 0.0
H1956 H 0.18637 0.29689 0.52723 0.0
H1957 H 0.1784 0.32433 0.53161 0.0
H1958 H 0.18992 0.31192 0.55142 0.0
H1959 H 0.05528 0.22699 0.51149 0.0
H1960 H 0.07572 0.25943 0.50099 0.0
H1961 H 0.08183 0.23077 0.49633 0.0
H1962 H 0.14453 0.3364 0.47627 0.0
H1963 H 0.1631 0.27025 0.46486 0.0
H1964 H 0.13827 0.33161 0.52429 0.0
H1965 H 0.1031 0.30824 0.51409 0.0
H1966 H 0.12439 0.34064 0.50378 0.0
H1967 H 0.16038 0.24941 0.51001 0.0
H1968 H 0.15303 0.23493 0.48529 0.0
H1969 H 0.12489 0.22758 0.49986 0.0
C1970 C 0.79857 0.90396 0.56065 0.0
C1971 C 0.78675 0.8807 0.57135 0.0
C1972 C 0.78868 0.90175 0.54141 0.0
C1973 C 0.76647 0.87563 0.5326 0.0
C1974 C 0.75509 0.85182 0.54311 0.0
C1975 C 0.76533 0.85465 0.56236 0.0
C1976 C 0.80142 0.92761 0.5307 0.0
C1977 C 0.73141 0.8236 0.53423 0.0
C1978 C 0.72029 0.87805 0.4915 0.0
C1979 C 0.73064 0.87152 0.47543 0.0
C1980 C 0.73169 0.8793 0.51013 0.0
C1981 C 0.75393 0.87372 0.51284 0.0
C1982 C 0.76429 0.86676 0.49673 0.0
C1983 C 0.75255 0.86578 0.4782 0.0
C1984 C 0.71996 0.88671 0.52693 0.0
C1985 C 0.78793 0.86061 0.49905 0.0
H1986 H 0.81543 0.92404 0.5674 0.0
H1987 H 0.75587 0.83665 0.57056 0.0
H1988 H 0.80833 0.92309 0.51712 0.0
H1989 H 0.78545 0.93356 0.52689 0.0
H1990 H 0.81961 0.94591 0.53923 0.0
H1991 H 0.72636 0.8067 0.54381 0.0
H1992 H 0.71237 0.82509 0.53095 0.0
H1993 H 0.73678 0.81744 0.52051 0.0
H1994 H 0.703 0.88195 0.48953 0.0
H1995 H 0.76083 0.86094 0.46588 0.0
H1996 H 0.73671 0.90605 0.53552 0.0
H1997 H 0.71218 0.86953 0.53645 0.0
H1998 H 0.70254 0.89031 0.52238 0.0
H1999 H 0.80695 0.87939 0.50638 0.0
H2000 H 0.79306 0.85475 0.4851 0.0
H2001 H 0.78235 0.84316 0.50819 0.0
C2002 C 0.12948 0.87801 0.55075 0.0
C2003 C 0.13292 0.90391 0.55818 0.0
C2004 C 0.1355 0.87421 0.53203 0.0
C2005 C 0.14513 0.89683 0.52044 0.0
C2006 C 0.14782 0.92274 0.52768 0.0
C2007 C 0.14168 0.92595 0.54643 0.0
C2008 C 0.13239 0.84628 0.52486 0.0
C2009 C 0.15783 0.94733 0.51576 0.0
C2010 C 0.18973 0.90002 0.48053 0.0
C2011 C 0.17044 0.89111 0.46417 0.0
C2012 C 0.18163 0.90147 0.49892 0.0
C2013 C 0.15355 0.89392 0.50106 0.0
C2014 C 0.13387 0.88454 0.48465 0.0
C2015 C 0.14253 0.88322 0.46642 0.0
C2016 C 0.20328 0.9116 0.51604 0.0
C2017 C 0.10373 0.87623 0.48633 0.0
H2018 H 0.12296 0.86097 0.5598 0.0
H2019 H 0.14397 0.94588 0.55197 0.0
H2020 H 0.11902 0.83799 0.511 0.0
H2021 H 0.15319 0.8492 0.52227 0.0
H2022 H 0.12309 0.83029 0.53518 0.0
H2023 H 0.15768 0.96564 0.52319 0.0
H2024 H 0.17946 0.95414 0.51237 0.0
H2025 H 0.14442 0.9409 0.50196 0.0
H2026 H 0.2114 0.90652 0.47894 0.0
H2027 H 0.12738 0.87591 0.4539 0.0
H2028 H 0.19616 0.89576 0.52656 0.0
H2029 H 0.20595 0.93138 0.5233 0.0
H2030 H 0.22395 0.91561 0.51203 0.0
H2031 H 0.09442 0.85939 0.49604 0.0
H2032 H 0.09085 0.8686 0.47225 0.0
H2033 H 0.10265 0.89455 0.49272 0.0
C2034 C 0.57854 0.76733 0.12483 0.0
C2035 C 0.55889 0.77449 0.1178 0.0
C2036 C 0.58776 0.77193 0.14439 0.0
C2037 C 0.57728 0.78421 0.15733 0.0
C2038 C 0.55755 0.79166 0.15038 0.0
C2039 C 0.54857 0.7867 0.13068 0.0
C2040 C 0.60889 0.76376 0.1512 0.0
C2041 C 0.54597 0.80486 0.16375 0.0
C2042 C 0.58554 0.77189 0.20931 0.0
C2043 C 0.61064 0.79646 0.21624 0.0
C2044 C 0.57377 0.76807 0.19035 0.0
C2045 C 0.58737 0.78941 0.17808 0.0
C2046 C 0.61201 0.8148 0.18527 0.0
C2047 C 0.62339 0.81799 0.20424 0.0
C2048 C 0.54753 0.74065 0.1832 0.0
C2049 C 0.62702 0.83816 0.17271 0.0
H2050 H 0.58706 0.75842 0.11495 0.0
H2051 H 0.53323 0.79208 0.12539 0.0
H2052 H 0.62821 0.78264 0.15811 0.0
H2053 H 0.6004 0.74864 0.16211 0.0
H2054 H 0.61461 0.75398 0.13933 0.0
H2055 H 0.53088 0.80955 0.15608 0.0
H2056 H 0.53529 0.79053 0.17474 0.0
H2057 H 0.5633 0.82474 0.17143 0.0
H2058 H 0.57573 0.75509 0.21846 0.0
H2059 H 0.64257 0.8372 0.20963 0.0
H2060 H 0.55251 0.72867 0.17242 0.0
H2061 H 0.53173 0.74475 0.17601 0.0
H2062 H 0.53816 0.72728 0.19493 0.0
H2063 H 0.63567 0.83094 0.16128 0.0
H2064 H 0.64448 0.85748 0.18091 0.0
H2065 H 0.61219 0.84361 0.16558 0.0
C2066 C 0.20792 0.79626 0.11873 0.0
C2067 C 0.23547 0.80343 0.11596 0.0
C2068 C 0.20015 0.79828 0.13713 0.0
C2069 C 0.22036 0.80746 0.15322 0.0
C2070 C 0.24824 0.81481 0.15052 0.0
C2071 C 0.25551 0.81286 0.1319 0.0
C2072 C 0.17029 0.79061 0.13935 0.0
C2073 C 0.27031 0.82443 0.16732 0.0
C2074 C 0.20458 0.83552 0.19868 0.0
C2075 C 0.19289 0.8117 0.20886 0.0
C2076 C 0.21411 0.8346 0.18074 0.0
C2077 C 0.21215 0.80933 0.17283 0.0
C2078 C 0.20107 0.78544 0.18327 0.0
C2079 C 0.19143 0.78686 0.20111 0.0
C2080 C 0.22549 0.86044 0.16999 0.0
C2081 C 0.19894 0.75821 0.17544 0.0
H2082 H 0.19244 0.78929 0.10642 0.0
H2083 H 0.27676 0.81818 0.12983 0.0
H2084 H 0.16068 0.77297 0.14842 0.0
H2085 H 0.16986 0.80879 0.14669 0.0
H2086 H 0.15724 0.78426 0.12537 0.0
H2087 H 0.29104 0.8294 0.16281 0.0
H2088 H 0.27257 0.84346 0.17549 0.0
H2089 H 0.26382 0.80778 0.17723 0.0
H2090 H 0.20546 0.85467 0.20449 0.0
H2091 H 0.18268 0.7685 0.20901 0.0
H2092 H 0.21186 0.85578 0.15647 0.0
H2093 H 0.24667 0.86633 0.16603 0.0
H2094 H 0.22674 0.87879 0.17847 0.0
H2095 H 0.18433 0.74949 0.16213 0.0
H2096 H 0.19137 0.74211 0.18581 0.0
H2097 H 0.21966 0.76213 0.17165 0.0
C2098 C 0.20366 0.44382 0.14197 0.0
C2099 C 0.21433 0.43275 0.12853 0.0
C2100 C 0.19854 0.43407 0.16009 0.0
C2101 C 0.20448 0.4129 0.16503 0.0
C2102 C 0.21631 0.40241 0.15185 0.0
C2103 C 0.22104 0.41242 0.13372 0.0
C2104 C 0.18588 0.44581 0.17371 0.0
C2105 C 0.22312 0.37998 0.15668 0.0
C2106 C 0.20625 0.40211 0.21793 0.0
C2107 C 0.17911 0.3795 0.21891 0.0
C2108 C 0.21518 0.41269 0.20039 0.0
C2109 C 0.19646 0.4005 0.18347 0.0
C2110 C 0.16928 0.37732 0.18431 0.0
C2111 C 0.16101 0.36704 0.20197 0.0
C2112 C 0.24437 0.43733 0.20004 0.0
C2113 C 0.14866 0.36375 0.16661 0.0
H2114 H 0.19901 0.46 0.13823 0.0
H2115 H 0.22917 0.40368 0.1234 0.0
H2116 H 0.16484 0.4288 0.17642 0.0
H2117 H 0.19895 0.45386 0.18768 0.0
H2118 H 0.18374 0.46314 0.16803 0.0
H2119 H 0.23448 0.37586 0.14559 0.0
H2120 H 0.23608 0.38628 0.17067 0.0
H2121 H 0.2035 0.36004 0.15803 0.0
H2122 H 0.22031 0.412 0.23095 0.0
H2123 H 0.14024 0.34916 0.20251 0.0
H2124 H 0.24325 0.45599 0.19605 0.0
H2125 H 0.25531 0.43244 0.18904 0.0
H2126 H 0.25706 0.44298 0.21412 0.0
H2127 H 0.14398 0.37936 0.16066 0.0
H2128 H 0.12868 0.34527 0.16959 0.0
H2129 H 0.15784 0.35681 0.15542 0.0
C2130 C 0.78191 0.56489 0.87603 0.0
C2131 C 0.77321 0.57829 0.88927 0.0
C2132 C 0.79008 0.57535 0.85836 0.0
C2133 C 0.78963 0.59987 0.85383 0.0
C2134 C 0.78005 0.61299 0.86688 0.0
C2135 C 0.7719 0.60201 0.88444 0.0
C2136 C 0.79994 0.5606 0.84479 0.0
C2137 C 0.77935 0.63922 0.86261 0.0
C2138 C 0.84039 0.64472 0.8195 0.0
C2139 C 0.82292 0.63734 0.80233 0.0
C2140 C 0.82976 0.63279 0.83632 0.0
C2141 C 0.80092 0.61279 0.83602 0.0
C2142 C 0.78315 0.60507 0.81874 0.0
C2143 C 0.79435 0.61746 0.8021 0.0
C2144 C 0.84945 0.64155 0.85443 0.0
C2145 C 0.7523 0.58381 0.81784 0.0
H2146 H 0.78254 0.54629 0.87956 0.0
H2147 H 0.76542 0.6126 0.89466 0.0
H2148 H 0.78817 0.55554 0.83042 0.0
H2149 H 0.82238 0.57477 0.84308 0.0
H2150 H 0.79737 0.5408 0.84991 0.0
H2151 H 0.76957 0.64576 0.87363 0.0
H2152 H 0.80099 0.65679 0.86194 0.0
H2153 H 0.76757 0.63572 0.84843 0.0
H2154 H 0.86256 0.65969 0.81974 0.0
H2155 H 0.78063 0.61187 0.78897 0.0
H2156 H 0.8496 0.62292 0.85953 0.0
H2157 H 0.84212 0.65023 0.86591 0.0
H2158 H 0.87123 0.65766 0.85234 0.0
H2159 H 0.7493 0.56354 0.82227 0.0
H2160 H 0.74137 0.57987 0.80325 0.0
H2161 H 0.74228 0.59134 0.82799 0.0
C2162 C 0.4209 0.21605 0.89983 0.0
C2163 C 0.44171 0.20975 0.9055 0.0
C2164 C 0.41134 0.21318 0.88044 0.0
C2165 C 0.42296 0.20391 0.8663 0.0
C2166 C 0.44368 0.19709 0.87194 0.0
C2167 C 0.45275 0.20001 0.89147 0.0
C2168 C 0.38901 0.2204 0.87506 0.0
C2169 C 0.45667 0.18728 0.8573 0.0
C2170 C 0.38125 0.17615 0.81724 0.0
C2171 C 0.394 0.20008 0.80724 0.0
C2172 C 0.39084 0.17687 0.83634 0.0
C2173 C 0.41383 0.20208 0.84563 0.0
C2174 C 0.4273 0.22604 0.83542 0.0
C2175 C 0.41717 0.22478 0.81638 0.0
C2176 C 0.3758 0.15093 0.84677 0.0
C2177 C 0.45205 0.25324 0.84474 0.0
H2178 H 0.412 0.2232 0.91062 0.0
H2179 H 0.46903 0.19536 0.89575 0.0
H2180 H 0.39732 0.23812 0.86598 0.0
H2181 H 0.37088 0.20212 0.86652 0.0
H2182 H 0.38152 0.22647 0.8878 0.0
H2183 H 0.47185 0.18192 0.86404 0.0
H2184 H 0.44015 0.16847 0.84813 0.0
H2185 H 0.46768 0.20402 0.84778 0.0
H2186 H 0.36315 0.15709 0.81033 0.0
H2187 H 0.42734 0.24322 0.80864 0.0
H2188 H 0.36597 0.15538 0.85876 0.0
H2189 H 0.39089 0.14518 0.85307 0.0
H2190 H 0.35928 0.13256 0.83722 0.0
H2191 H 0.44554 0.26182 0.8568 0.0
H2192 H 0.46111 0.26944 0.83454 0.0
H2193 H 0.46862 0.24931 0.85078 0.0
C2194 C 0.78195 0.22709 0.87939 0.0
C2195 C 0.80376 0.23878 0.89434 0.0
C2196 C 0.78699 0.22307 0.86041 0.0
C2197 C 0.81452 0.23109 0.85621 0.0
C2198 C 0.83656 0.24269 0.87124 0.0
C2199 C 0.83091 0.24624 0.89008 0.0
C2200 C 0.76289 0.21048 0.84481 0.0
C2201 C 0.86622 0.25149 0.86741 0.0
C2202 C 0.82764 0.20025 0.81076 0.0
C2203 C 0.83571 0.22228 0.79904 0.0
C2204 C 0.81991 0.2025 0.82917 0.0
C2205 C 0.82045 0.22748 0.83613 0.0
C2206 C 0.82797 0.24954 0.8242 0.0
C2207 C 0.83539 0.24663 0.80578 0.0
C2208 C 0.81172 0.17836 0.84132 0.0
C2209 C 0.82903 0.2766 0.83112 0.0
H2210 H 0.76098 0.22153 0.88247 0.0
H2211 H 0.84782 0.25476 0.90154 0.0
H2212 H 0.76672 0.22575 0.83413 0.0
H2213 H 0.76121 0.1914 0.83715 0.0
H2214 H 0.7426 0.20464 0.85049 0.0
H2215 H 0.88104 0.26038 0.88065 0.0
H2216 H 0.86709 0.23313 0.86087 0.0
H2217 H 0.87338 0.26755 0.85704 0.0
H2218 H 0.82749 0.18123 0.80554 0.0
H2219 H 0.84185 0.26383 0.79688 0.0
H2220 H 0.79096 0.17182 0.84639 0.0
H2221 H 0.82704 0.18524 0.85419 0.0
H2222 H 0.81083 0.15978 0.83343 0.0
H2223 H 0.80867 0.27199 0.8361 0.0
H2224 H 0.834 0.29118 0.81981 0.0
H2225 H 0.84518 0.28747 0.84353 0.0
C2226 C 0.20482 0.08328 0.46324 0.0
C2227 C 0.21905 0.10467 0.45141 0.0
C2228 C 0.21429 0.08657 0.4827 0.0
C2229 C 0.23869 0.11179 0.4905 0.0
C2230 C 0.25248 0.1339 0.47881 0.0
C2231 C 0.24243 0.1301 0.45942 0.0
C2232 C 0.19881 0.06262 0.49474 0.0
C2233 C 0.27866 0.16104 0.48653 0.0
C2234 C 0.25666 0.12839 0.54459 0.0
C2235 C 0.27614 0.11944 0.54782 0.0
C2236 C 0.24403 0.1258 0.52605 0.0
C2237 C 0.25116 0.11412 0.51037 0.0
C2238 C 0.2706 0.10483 0.51357 0.0
C2239 C 0.28269 0.10745 0.53222 0.0
C2240 C 0.22328 0.1358 0.52321 0.0
C2241 C 0.2788 0.09226 0.49725 0.0
H2242 H 0.18651 0.06372 0.45716 0.0
H2243 H 0.25366 0.14661 0.45031 0.0
H2244 H 0.21213 0.05357 0.49881 0.0
H2245 H 0.19425 0.07043 0.50818 0.0
H2246 H 0.17882 0.04554 0.48703 0.0
H2247 H 0.28555 0.177 0.47606 0.0
H2248 H 0.27519 0.1701 0.49989 0.0
H2249 H 0.29585 0.15672 0.49015 0.0
H2250 H 0.25165 0.13791 0.5565 0.0
H2251 H 0.29725 0.09992 0.53459 0.0
H2252 H 0.20314 0.11842 0.51594 0.0
H2253 H 0.23123 0.15311 0.51379 0.0
H2254 H 0.21926 0.14349 0.53695 0.0
H2255 H 0.26001 0.07331 0.48986 0.0
H2256 H 0.29431 0.08617 0.50214 0.0
H2257 H 0.28788 0.10764 0.48655 0.0
C2258 C 0.92533 0.1562 0.46833 0.0
C2259 C 0.90446 0.14264 0.45284 0.0
C2260 C 0.91844 0.15891 0.48698 0.0
C2261 C 0.89 0.14756 0.49028 0.0
C2262 C 0.86889 0.13404 0.4747 0.0
C2263 C 0.87637 0.13194 0.45622 0.0
C2264 C 0.94158 0.17369 0.50318 0.0
C2265 C 0.8383 0.12162 0.47758 0.0
C2266 C 0.86659 0.12888 0.53978 0.0
C2267 C 0.86209 0.15091 0.54589 0.0
C2268 C 0.87637 0.1279 0.52192 0.0
C2269 C 0.88208 0.14962 0.50997 0.0
C2270 C 0.87855 0.17244 0.51639 0.0
C2271 C 0.86845 0.17272 0.53421 0.0
C2272 C 0.8796 0.10307 0.51554 0.0
C2273 C 0.88477 0.19622 0.50422 0.0
H2274 H 0.94706 0.16428 0.46596 0.0
H2275 H 0.8601 0.12194 0.44434 0.0
H2276 H 0.94027 0.19133 0.51057 0.0
H2277 H 0.93911 0.15885 0.51392 0.0
H2278 H 0.96268 0.18218 0.49816 0.0
H2279 H 0.82442 0.11149 0.46401 0.0
H2280 H 0.83235 0.10564 0.48797 0.0
H2281 H 0.83449 0.13833 0.48368 0.0
H2282 H 0.86151 0.11187 0.54868 0.0
H2283 H 0.86538 0.19 0.53899 0.0
H2284 H 0.90095 0.11047 0.51129 0.0
H2285 H 0.86459 0.09087 0.50277 0.0
H2286 H 0.87581 0.08875 0.52691 0.0
H2287 H 0.90624 0.20521 0.49982 0.0
H2288 H 0.88287 0.21337 0.51185 0.0
H2289 H 0.87005 0.18806 0.49096 0.0
C2290 C 0.84984 0.73623 0.46373 0.0
C2291 C 0.87632 0.75751 0.45987 0.0
C2292 C 0.84516 0.72686 0.48199 0.0
C2293 C 0.86757 0.73881 0.49677 0.0
C2294 C 0.89457 0.75961 0.49283 0.0
C2295 C 0.89861 0.76878 0.47445 0.0
C2296 C 0.81606 0.70457 0.48558 0.0
C2297 C 0.91903 0.77267 0.50817 0.0
C2298 C 0.84701 0.73427 0.54759 0.0
C2299 C 0.84776 0.71033 0.55256 0.0
C2300 C 0.85411 0.74421 0.52965 0.0
C2301 C 0.86239 0.72999 0.51643 0.0
C2302 C 0.86418 0.70643 0.52166 0.0
C2303 C 0.85672 0.69681 0.53962 0.0
C2304 C 0.85176 0.76929 0.52457 0.0
C2305 C 0.87324 0.69093 0.50807 0.0
H2306 H 0.83263 0.72701 0.45246 0.0
H2307 H 0.91908 0.78539 0.47165 0.0
H2308 H 0.81652 0.68626 0.491 0.0
H2309 H 0.8082 0.71315 0.49676 0.0
H2310 H 0.80104 0.69705 0.47247 0.0
H2311 H 0.93901 0.78729 0.50251 0.0
H2312 H 0.91516 0.78452 0.51975 0.0
H2313 H 0.92136 0.75598 0.51471 0.0
H2314 H 0.83986 0.74463 0.55747 0.0
H2315 H 0.85769 0.67851 0.54352 0.0
H2316 H 0.83531 0.76272 0.51244 0.0
H2317 H 0.87173 0.78562 0.51985 0.0
H2318 H 0.84643 0.77887 0.53679 0.0
H2319 H 0.85768 0.681 0.49528 0.0
H2320 H 0.87541 0.67425 0.5148 0.0
H2321 H 0.89356 0.7059 0.503 0.0
loop_
_geom_bond_atom_site_label_1
_geom_bond_atom_site_label_2
_geom_bond_distance
_geom_bond_site_symmetry_2
_ccdc_geom_bond_type
H0 C7 0.929 . S
H1 C10 0.930 . S
H2 C12 0.929 . S
H3 C4 0.969 . S
C4 H3 0.969 . S
C4 O5 1.550 . S
C4 H6 0.973 . S
O5 C4 1.550 . S
O5 C11 1.412 . S
H6 C4 0.973 . S
C7 H0 0.929 . S
C7 C8 1.400 . S
C7 C9 1.364 . S
C8 C7 1.400 . S
C8 C12 1.377 . S
C9 C7 1.364 . S
C9 C10 1.374 . S
C10 H1 0.930 . S
C10 C9 1.374 . S
C10 C11 1.383 . S
C11 O5 1.412 . S
C11 C10 1.383 . S
C11 C12 1.394 . S
C12 H2 0.929 . S
C12 C8 1.377 . S
C12 C11 1.394 . S
H13 C20 0.929 . S
H14 C23 0.930 . S
H15 C25 0.929 . S
H16 C17 0.969 . S
C17 H16 0.969 . S
C17 O18 1.550 . S
C17 H19 0.973 . S
O18 C17 1.550 . S
O18 C24 1.412 . S
H19 C17 0.973 . S
C20 H13 0.929 . S
C20 C21 1.400 . S
C20 C22 1.364 . S
C21 C20 1.400 . S
C21 C25 1.377 . S
C22 C20 1.364 . S
C22 C23 1.374 . S
C23 H14 0.930 . S
C23 C22 1.374 . S
C23 C24 1.383 . S
C24 O18 1.412 . S
C24 C23 1.383 . S
C24 C25 1.394 . S
C25 H15 0.929 . S
C25 C21 1.377 . S
C25 C24 1.394 . S
H26 C33 0.929 . S
H27 C36 0.930 . S
H28 C38 0.929 . S
H29 C30 0.969 . S
C30 H29 0.969 . S
C30 O31 1.550 . S
C30 H32 0.973 . S
O31 C30 1.550 . S
O31 C37 1.412 . S
H32 C30 0.973 . S
C33 H26 0.929 . S
C33 C34 1.400 . S
C33 C35 1.364 . S
C34 C33 1.400 . S
C34 C38 1.377 . S
C35 C33 1.364 . S
C35 C36 1.374 . S
C36 H27 0.930 . S
C36 C35 1.374 . S
C36 C37 1.383 . S
C37 O31 1.412 . S
C37 C36 1.383 . S
C37 C38 1.394 . S
C38 H28 0.929 . S
C38 C34 1.377 . S
C38 C37 1.394 . S
H39 C46 0.929 . S
H40 C49 0.930 . S
H41 C51 0.929 . S
H42 C43 0.969 . S
C43 H42 0.969 . S
C43 O44 1.550 . S
C43 H45 0.973 . S
O44 C43 1.550 . S
O44 C50 1.412 . S
H45 C43 0.973 . S
C46 H39 0.929 . S
C46 C47 1.400 . S
C46 C48 1.364 . S
C47 C46 1.400 . S
C47 C51 1.377 . S
C48 C46 1.364 . S
C48 C49 1.374 . S
C49 H40 0.930 . S
C49 C48 1.374 . S
C49 C50 1.383 . S
C50 O44 1.412 . S
C50 C49 1.383 . S
C50 C51 1.394 . S
C51 H41 0.929 . S
C51 C47 1.377 . S
C51 C50 1.394 . S
H52 C59 0.929 . S
H53 C62 0.930 . S
H54 C64 0.929 . S
H55 C56 0.969 . S
C56 H55 0.969 . S
C56 O57 1.550 . S
C56 H58 0.973 . S
O57 C56 1.550 . S
O57 C63 1.412 . S
H58 C56 0.973 . S
C59 H52 0.929 . S
C59 C60 1.400 . S
C59 C61 1.364 . S
C60 C59 1.400 . S
C60 C64 1.377 . S
C61 C59 1.364 . S
C61 C62 1.374 . S
C62 H53 0.930 . S
C62 C61 1.374 . S
C62 C63 1.383 . S
C63 O57 1.412 . S
C63 C62 1.383 . S
C63 C64 1.394 . S
C64 H54 0.929 . S
C64 C60 1.377 . S
C64 C63 1.394 . S
H65 C72 0.929 . S
H66 C75 0.930 . S
H67 C77 0.929 . S
H68 C69 0.969 . S
C69 H68 0.969 . S
C69 O70 1.550 . S
C69 H71 0.973 . S
O70 C69 1.550 . S
O70 C76 1.412 . S
H71 C69 0.973 . S
C72 H65 0.929 . S
C72 C73 1.400 . S
C72 C74 1.364 . S
C73 C72 1.400 . S
C73 C77 1.377 . S
C74 C72 1.364 . S
C74 C75 1.374 . S
C75 H66 0.930 . S
C75 C74 1.374 . S
C75 C76 1.383 . S
C76 O70 1.412 . S
C76 C75 1.383 . S
C76 C77 1.394 . S
C77 H67 0.929 . S
C77 C73 1.377 . S
C77 C76 1.394 . S
H78 C85 0.929 . S
H79 C88 0.930 . S
H80 C90 0.929 . S
H81 C82 0.969 . S
C82 H81 0.969 . S
C82 O83 1.550 . S
C82 H84 0.973 . S
O83 C82 1.550 . S
O83 C89 1.412 . S
H84 C82 0.973 . S
C85 H78 0.929 . S
C85 C86 1.400 . S
C85 C87 1.364 . S
C86 C85 1.400 . S
C86 C90 1.377 . S
C87 C85 1.364 . S
C87 C88 1.374 . S
C88 H79 0.930 . S
C88 C87 1.374 . S
C88 C89 1.383 . S
C89 O83 1.412 . S
C89 C88 1.383 . S
C89 C90 1.394 . S
C90 H80 0.929 . S
C90 C86 1.377 . S
C90 C89 1.394 . S
H91 C98 0.929 . S
H92 C101 0.930 . S
H93 C103 0.929 . S
H94 C95 0.969 . S
C95 H94 0.969 . S
C95 O96 1.550 . S
C95 H97 0.973 . S
O96 C95 1.550 . S
O96 C102 1.412 . S
H97 C95 0.973 . S
C98 H91 0.929 . S
C98 C99 1.400 . S
C98 C100 1.364 . S
C99 C98 1.400 . S
C99 C103 1.377 . S
C100 C98 1.364 . S
C100 C101 1.374 . S
C101 H92 0.930 . S
C101 C100 1.374 . S
C101 C102 1.383 . S
C102 O96 1.412 . S
C102 C101 1.383 . S
C102 C103 1.394 . S
C103 H93 0.929 . S
C103 C99 1.377 . S
C103 C102 1.394 . S
H104 C111 0.929 . S
H105 C114 0.930 . S
H106 C116 0.929 . S
H107 C108 0.969 . S
C108 H107 0.969 . S
C108 O109 1.550 . S
C108 H110 0.973 . S
O109 C108 1.550 . S
O109 C115 1.412 . S
H110 C108 0.973 . S
C111 H104 0.929 . S
C111 C112 1.400 . S
C111 C113 1.364 . S
C112 C111 1.400 . S
C112 C116 1.377 . S
C113 C111 1.364 . S
C113 C114 1.374 . S
C114 H105 0.930 . S
C114 C113 1.374 . S
C114 C115 1.383 . S
C115 O109 1.412 . S
C115 C114 1.383 . S
C115 C116 1.394 . S
C116 H106 0.929 . S
C116 C112 1.377 . S
C116 C115 1.394 . S
H117 C124 0.929 . S
H118 C127 0.930 . S
H119 C129 0.929 . S
H120 C121 0.969 . S
C121 H120 0.969 . S
C121 O122 1.550 . S
C121 H123 0.973 . S
O122 C121 1.550 . S
O122 C128 1.412 . S
H123 C121 0.973 . S
C124 H117 0.929 . S
C124 C125 1.400 . S
C124 C126 1.364 . S
C125 C124 1.400 . S
C125 C129 1.377 . S
C126 C124 1.364 . S
C126 C127 1.374 . S
C127 H118 0.930 . S
C127 C126 1.374 . S
C127 C128 1.383 . S
C128 O122 1.412 . S
C128 C127 1.383 . S
C128 C129 1.394 . S
C129 H119 0.929 . S
C129 C125 1.377 . S
C129 C128 1.394 . S
H130 C137 0.929 . S
H131 C140 0.930 . S
H132 C142 0.929 . S
H133 C134 0.969 . S
C134 H133 0.969 . S
C134 O135 1.550 . S
C134 H136 0.973 . S
O135 C134 1.550 . S
O135 C141 1.412 . S
H136 C134 0.973 . S
C137 H130 0.929 . S
C137 C138 1.400 . S
C137 C139 1.364 . S
C138 C137 1.400 . S
C138 C142 1.377 . S
C139 C137 1.364 . S
C139 C140 1.374 . S
C140 H131 0.930 . S
C140 C139 1.374 . S
C140 C141 1.383 . S
C141 O135 1.412 . S
C141 C140 1.383 . S
C141 C142 1.394 . S
C142 H132 0.929 . S
C142 C138 1.377 . S
C142 C141 1.394 . S
H143 C150 0.929 . S
H144 C153 0.930 . S
H145 C155 0.929 . S
H146 C147 0.969 . S
C147 H146 0.969 . S
C147 O148 1.550 . S
C147 H149 0.973 . S
O148 C147 1.550 . S
O148 C154 1.412 . S
H149 C147 0.973 . S
C150 H143 0.929 . S
C150 C151 1.400 . S
C150 C152 1.364 . S
C151 C150 1.400 . S
C151 C155 1.377 . S
C152 C150 1.364 . S
C152 C153 1.374 . S
C153 H144 0.930 . S
C153 C152 1.374 . S
C153 C154 1.383 . S
C154 O148 1.412 . S
C154 C153 1.383 . S
C154 C155 1.394 . S
C155 H145 0.929 . S
C155 C151 1.377 . S
C155 C154 1.394 . S
H156 C163 0.929 . S
H157 C166 0.930 . S
H158 C168 0.929 . S
H159 C160 0.969 . S
C160 H159 0.969 . S
C160 O161 1.550 . S
C160 H162 0.973 . S
O161 C160 1.550 . S
O161 C167 1.412 . S
H162 C160 0.973 . S
C163 H156 0.929 . S
C163 C164 1.400 . S
C163 C165 1.364 . S
C164 C163 1.400 . S
C164 C168 1.377 . S
C165 C163 1.364 . S
C165 C166 1.374 . S
C166 H157 0.930 . S
C166 C165 1.374 . S
C166 C167 1.383 . S
C167 O161 1.412 . S
C167 C166 1.383 . S
C167 C168 1.394 . S
C168 H158 0.929 . S
C168 C164 1.377 . S
C168 C167 1.394 . S
H169 C176 0.929 . S
H170 C179 0.930 . S
H171 C181 0.929 . S
H172 C173 0.969 . S
C173 H172 0.969 . S
C173 O174 1.550 . S
C173 H175 0.973 . S
O174 C173 1.550 . S
O174 C180 1.412 . S
H175 C173 0.973 . S
C176 H169 0.929 . S
C176 C177 1.400 . S
C176 C178 1.364 . S
C177 C176 1.400 . S
C177 C181 1.377 . S
C178 C176 1.364 . S
C178 C179 1.374 . S
C179 H170 0.930 . S
C179 C178 1.374 . S
C179 C180 1.383 . S
C180 O174 1.412 . S
C180 C179 1.383 . S
C180 C181 1.394 . S
C181 H171 0.929 . S
C181 C177 1.377 . S
C181 C180 1.394 . S
H182 C189 0.929 . S
H183 C192 0.930 . S
H184 C194 0.929 . S
H185 C186 0.969 . S
C186 H185 0.969 . S
C186 O187 1.550 . S
C186 H188 0.973 . S
O187 C186 1.550 . S
O187 C193 1.412 . S
H188 C186 0.973 . S
C189 H182 0.929 . S
C189 C190 1.400 . S
C189 C191 1.364 . S
C190 C189 1.400 . S
C190 C194 1.377 . S
C191 C189 1.364 . S
C191 C192 1.374 . S
C192 H183 0.930 . S
C192 C191 1.374 . S
C192 C193 1.383 . S
C193 O187 1.412 . S
C193 C192 1.383 . S
C193 C194 1.394 . S
C194 H184 0.929 . S
C194 C190 1.377 . S
C194 C193 1.394 . S
H195 C202 0.929 . S
H196 C205 0.930 . S
H197 C207 0.929 . S
H198 C199 0.969 . S
C199 H198 0.969 . S
C199 O200 1.550 . S
C199 H201 0.973 . S
O200 C199 1.550 . S
O200 C206 1.412 . S
H201 C199 0.973 . S
C202 H195 0.929 . S
C202 C203 1.400 . S
C202 C204 1.364 . S
C203 C202 1.400 . S
C203 C207 1.377 . S
C204 C202 1.364 . S
C204 C205 1.374 . S
C205 H196 0.930 . S
C205 C204 1.374 . S
C205 C206 1.383 . S
C206 O200 1.412 . S
C206 C205 1.383 . S
C206 C207 1.394 . S
C207 H197 0.929 . S
C207 C203 1.377 . S
C207 C206 1.394 . S
H208 C215 0.929 . S
H209 C218 0.930 . S
H210 C220 0.929 . S
H211 C212 0.969 . S
C212 H211 0.969 . S
C212 O213 1.550 . S
C212 H214 0.973 . S
O213 C212 1.550 . S
O213 C219 1.412 . S
H214 C212 0.973 . S
C215 H208 0.929 . S
C215 C216 1.400 . S
C215 C217 1.364 . S
C216 C215 1.400 . S
C216 C220 1.377 . S
C217 C215 1.364 . S
C217 C218 1.374 . S
C218 H209 0.930 . S
C218 C217 1.374 . S
C218 C219 1.383 . S
C219 O213 1.412 . S
C219 C218 1.383 . S
C219 C220 1.394 . S
C220 H210 0.929 . S
C220 C216 1.377 . S
C220 C219 1.394 . S
H221 C228 0.929 . S
H222 C231 0.930 . S
H223 C233 0.929 . S
H224 C225 0.969 . S
C225 H224 0.969 . S
C225 O226 1.550 . S
C225 H227 0.973 . S
O226 C225 1.550 . S
O226 C232 1.412 . S
H227 C225 0.973 . S
C228 H221 0.929 . S
C228 C229 1.400 . S
C228 C230 1.364 . S
C229 C228 1.400 . S
C229 C233 1.377 . S
C230 C228 1.364 . S
C230 C231 1.374 . S
C231 H222 0.930 . S
C231 C230 1.374 . S
C231 C232 1.383 . S
C232 O226 1.412 . S
C232 C231 1.383 . S
C232 C233 1.394 . S
C233 H223 0.929 . S
C233 C229 1.377 . S
C233 C232 1.394 . S
C234 Eu235 2.835 . S
C234 C236 1.500 1_545 S
C234 O254 1.257 1_545 S
C234 O255 1.260 . S
Eu235 C234 2.835 . S
Eu235 O254 2.473 1_545 S
Eu235 O255 2.480 . S
Eu235 O256 2.430 . S
Eu235 O257 2.670 1_554 S
Eu235 O258 2.394 1_545 S
Eu235 O263 2.355 1_545 S
Eu235 O265 2.374 . S
C236 C234 1.500 1_565 S
C236 C237 1.377 1_565 S
C236 C241 1.377 . S
C237 C236 1.377 1_545 S
C237 C238 1.395 1_545 S
C237 H266 0.931 . S
C238 C237 1.395 1_565 S
C238 C239 1.384 . S
C238 H267 0.930 1_565 S
C239 C238 1.384 . S
C239 C240 1.394 . S
C240 C239 1.394 . S
C240 C241 1.378 . S
C240 H268 0.931 . S
C241 C236 1.377 . S
C241 C240 1.378 . S
C241 H269 0.931 . S
C242 O256 1.259 . S
C242 O257 1.270 1_554 S
C243 O258 1.251 . S
C243 O259 1.251 1_554 S
C244 Eu245 2.835 1_545 S
C244 C246 1.500 . S
C244 O260 1.257 . S
C244 O261 1.260 1_545 S
Eu245 C244 2.835 1_565 S
Eu245 O257 2.355 1_565 S
Eu245 O259 2.374 . S
Eu245 O260 2.473 1_565 S
Eu245 O261 2.480 . S
Eu245 O262 2.430 . S
Eu245 O263 2.670 1_556 S
Eu245 O264 2.394 1_565 S
C246 C244 1.500 . S
C246 C247 1.377 . S
C246 C251 1.377 . S
C247 C246 1.377 . S
C247 C248 1.395 . S
C247 H270 0.931 1_545 S
C248 C247 1.395 . S
C248 C249 1.383 . S
C248 H271 0.931 1_545 S
C249 C248 1.383 . S
C249 C250 1.394 . S
C250 C249 1.394 . S
C250 C251 1.378 . S
C250 H272 0.931 . S
C251 C246 1.377 . S
C251 C250 1.378 . S
C251 H273 0.931 . S
C252 O262 1.259 1_554 S
C252 O263 1.270 . S
C253 O264 1.251 . S
C253 O265 1.251 1_556 S
O254 C234 1.257 1_565 S
O254 Eu235 2.473 1_565 S
O255 C234 1.260 . S
O255 Eu235 2.480 . S
O256 Eu235 2.430 . S
O256 C242 1.259 . S
O257 Eu235 2.670 1_556 S
O257 C242 1.270 1_556 S
O257 Eu245 2.355 1_545 S
O258 Eu235 2.394 1_565 S
O258 C243 1.251 . S
O259 C243 1.251 1_556 S
O259 Eu245 2.374 . S
O260 C244 1.257 . S
O260 Eu245 2.473 1_545 S
O261 C244 1.260 1_565 S
O261 Eu245 2.480 . S
O262 Eu245 2.430 . S
O262 C252 1.259 1_556 S
O263 Eu235 2.355 1_565 S
O263 Eu245 2.670 1_554 S
O263 C252 1.270 . S
O264 Eu245 2.394 1_545 S
O264 C253 1.251 . S
O265 Eu235 2.374 . S
O265 C253 1.251 1_554 S
H266 C237 0.931 . S
H267 C238 0.930 1_545 S
H268 C240 0.931 . S
H269 C241 0.931 . S
H270 C247 0.931 1_565 S
H271 C248 0.931 1_565 S
H272 C250 0.931 . S
H273 C251 0.931 . S
C274 Eu275 2.835 1_455 S
C274 C276 1.500 . S
C274 O294 1.257 . S
C274 O295 1.260 1_455 S
Eu275 C274 2.835 1_655 S
Eu275 O294 2.473 1_655 S
Eu275 O295 2.480 . S
Eu275 O296 2.430 . S
Eu275 O297 2.670 1_554 S
Eu275 O298 2.394 1_655 S
Eu275 O303 2.355 1_655 S
Eu275 O305 2.374 . S
C276 C274 1.500 . S
C276 C277 1.377 . S
C276 C281 1.377 . S
C277 C276 1.377 . S
C277 C278 1.395 . S
C277 H306 0.931 1_455 S
C278 C277 1.395 . S
C278 C279 1.383 . S
C278 H307 0.931 . S
C279 C278 1.383 . S
C279 C280 1.394 . S
C280 C279 1.394 . S
C280 C281 1.378 . S
C280 H308 0.931 . S
C281 C276 1.377 . S
C281 C280 1.378 . S
C281 H309 0.931 . S
C282 O296 1.259 . S
C282 O297 1.270 1_554 S
C283 O298 1.251 . S
C283 O299 1.251 . S
C284 Eu285 2.835 1_655 S
C284 C286 1.500 . S
C284 O300 1.257 . S
C284 O301 1.260 1_655 S
Eu285 C284 2.835 1_455 S
Eu285 O297 2.355 1_455 S
Eu285 O299 2.374 1_556 S
Eu285 O300 2.473 1_455 S
Eu285 O301 2.480 . S
Eu285 O302 2.430 . S
Eu285 O303 2.670 1_556 S
Eu285 O304 2.394 1_455 S
C286 C284 1.500 . S
C286 C287 1.386 . S
C286 C291 1.377 . S
C287 C286 1.386 . S
C287 C288 1.405 . S
C287 H310 0.913 1_655 S
C288 C287 1.405 . S
C288 C289 1.383 . S
C288 H311 0.931 1_655 S
C289 C288 1.383 . S
C289 C290 1.394 . S
C290 C289 1.394 . S
C290 C291 1.378 . S
C290 H312 0.931 . S
C291 C286 1.377 . S
C291 C290 1.378 . S
C291 H313 0.931 . S
C292 O302 1.259 1_554 S
C292 O303 1.270 . S
C293 O304 1.251 . S
C293 O305 1.251 1_556 S
O294 C274 1.257 . S
O294 Eu275 2.473 1_455 S
O295 C274 1.260 1_655 S
O295 Eu275 2.480 . S
O296 Eu275 2.430 . S
O296 C282 1.259 . S
O297 Eu275 2.670 1_556 S
O297 C282 1.270 1_556 S
O297 Eu285 2.355 1_655 S
O298 Eu275 2.394 1_455 S
O298 C283 1.251 . S
O299 C283 1.251 . S
O299 Eu285 2.374 1_554 S
O300 C284 1.257 . S
O300 Eu285 2.473 1_655 S
O301 C284 1.260 1_455 S
O301 Eu285 2.480 . S
O302 Eu285 2.430 . S
O302 C292 1.259 1_556 S
O303 Eu275 2.355 1_455 S
O303 Eu285 2.670 1_554 S
O303 C292 1.270 . S
O304 Eu285 2.394 1_655 S
O304 C293 1.251 . S
O305 Eu275 2.374 . S
O305 C293 1.251 1_554 S
H306 C277 0.931 1_655 S
H307 C278 0.931 . S
H308 C280 0.931 . S
H309 C281 0.931 . S
H310 C287 0.913 1_455 S
H311 C288 0.931 1_455 S
H312 C290 0.931 . S
H313 C291 0.931 . S
C314 Eu315 2.835 . S
C314 C316 1.500 . S
C314 O334 1.257 . S
C314 O335 1.260 . S
Eu315 C314 2.835 . S
Eu315 O334 2.473 . S
Eu315 O335 2.480 . S
Eu315 O336 2.430 . S
Eu315 O337 2.670 1_556 S
Eu315 O338 2.394 . S
Eu315 O343 2.355 1_556 S
Eu315 O345 2.374 1_556 S
C316 C314 1.500 . S
C316 C317 1.377 . S
C316 C321 1.377 . S
C317 C316 1.377 . S
C317 C318 1.395 . S
C317 H346 0.931 . S
C318 C317 1.395 . S
C318 C319 1.383 . S
C318 H347 0.931 . S
C319 C318 1.383 . S
C319 C320 1.394 . S
C320 C319 1.394 . S
C320 C321 1.378 . S
C320 H348 0.931 . S
C321 C316 1.377 . S
C321 C320 1.378 . S
C321 H349 0.931 . S
C322 O336 1.259 1_554 S
C322 O337 1.270 . S
C323 O338 1.251 . S
C323 O339 1.251 1_556 S
C324 Eu325 2.835 . S
C324 C326 1.500 . S
C324 O340 1.257 . S
C324 O341 1.260 . S
Eu325 C324 2.835 . S
Eu325 O337 2.355 . S
Eu325 O339 2.374 . S
Eu325 O340 2.473 . S
Eu325 O341 2.480 . S
Eu325 O342 2.430 . S
Eu325 O343 2.670 . S
Eu325 O344 2.394 . S
C326 C324 1.500 . S
C326 C327 1.377 . S
C326 C331 1.377 . S
C327 C326 1.377 . S
C327 C328 1.395 . S
C327 H350 0.931 . S
C328 C327 1.395 . S
C328 C329 1.383 . S
C328 H351 0.931 . S
C329 C328 1.383 . S
C329 C330 1.394 . S
C330 C329 1.394 . S
C330 C331 1.378 . S
C330 H352 0.931 . S
C331 C326 1.377 . S
C331 C330 1.378 . S
C331 H353 0.931 . S
C332 O342 1.259 . S
C332 O343 1.270 . S
C333 O344 1.251 . S
C333 O345 1.251 . S
O334 C314 1.257 . S
O334 Eu315 2.473 . S
O335 C314 1.260 . S
O335 Eu315 2.480 . S
O336 Eu315 2.430 . S
O336 C322 1.259 1_556 S
O337 Eu315 2.670 1_554 S
O337 C322 1.270 . S
O337 Eu325 2.355 . S
O338 Eu315 2.394 . S
O338 C323 1.251 . S
O339 C323 1.251 1_554 S
O339 Eu325 2.374 . S
O340 C324 1.257 . S
O340 Eu325 2.473 . S
O341 C324 1.260 . S
O341 Eu325 2.480 . S
O342 Eu325 2.430 . S
O342 C332 1.259 . S
O343 Eu315 2.355 1_554 S
O343 Eu325 2.670 . S
O343 C332 1.270 . S
O344 Eu325 2.394 . S
O344 C333 1.251 . S
O345 Eu315 2.374 1_554 S
O345 C333 1.251 . S
H346 C317 0.931 . S
H347 C318 0.931 . S
H348 C320 0.931 . S
H349 C321 0.931 . S
H350 C327 0.931 . S
H351 C328 0.931 . S
H352 C330 0.931 . S
H353 C331 0.931 . S
C354 Eu355 2.835 . S
C354 C356 1.500 . S
C354 O374 1.257 . S
C354 O375 1.260 . S
Eu355 C354 2.835 . S
Eu355 O374 2.473 . S
Eu355 O375 2.480 . S
Eu355 O376 2.430 . S
Eu355 O377 2.670 . S
Eu355 O378 2.394 . S
Eu355 O383 2.355 . S
Eu355 O385 2.374 . S
C356 C354 1.500 . S
C356 C357 1.377 . S
C356 C361 1.377 . S
C357 C356 1.377 . S
C357 C358 1.395 . S
C357 H386 0.931 . S
C358 C357 1.395 . S
C358 C359 1.383 . S
C358 H387 0.931 . S
C359 C358 1.383 . S
C359 C360 1.394 . S
C360 C359 1.394 . S
C360 C361 1.378 . S
C360 H388 0.931 . S
C361 C356 1.377 . S
C361 C360 1.378 . S
C361 H389 0.931 . S
C362 O376 1.259 . S
C362 O377 1.270 . S
C363 O378 1.251 . S
C363 O379 1.251 . S
C364 Eu365 2.835 . S
C364 C366 1.500 . S
C364 O380 1.257 . S
C364 O381 1.260 . S
Eu365 C364 2.835 . S
Eu365 O377 2.355 . S
Eu365 O379 2.374 . S
Eu365 O380 2.473 . S
Eu365 O381 2.480 . S
Eu365 O382 2.430 . S
Eu365 O383 2.670 . S
Eu365 O384 2.394 . S
C366 C364 1.500 . S
C366 C367 1.377 . S
C366 C371 1.377 . S
C367 C366 1.377 . S
C367 C368 1.395 . S
C367 H390 0.931 . S
C368 C367 1.395 . S
C368 C369 1.383 . S
C368 H391 0.931 . S
C369 C368 1.383 . S
C369 C370 1.394 . S
C370 C369 1.394 . S
C370 C371 1.378 . S
C370 H392 0.931 . S
C371 C366 1.377 . S
C371 C370 1.378 . S
C371 H393 0.931 . S
C372 O382 1.259 . S
C372 O383 1.270 . S
C373 O384 1.251 . S
C373 O385 1.251 . S
O374 C354 1.257 . S
O374 Eu355 2.473 . S
O375 C354 1.260 . S
O375 Eu355 2.480 . S
O376 Eu355 2.430 . S
O376 C362 1.259 . S
O377 Eu355 2.670 . S
O377 C362 1.270 . S
O377 Eu365 2.355 . S
O378 Eu355 2.394 . S
O378 C363 1.251 . S
O379 C363 1.251 . S
O379 Eu365 2.374 . S
O380 C364 1.257 . S
O380 Eu365 2.473 . S
O381 C364 1.260 . S
O381 Eu365 2.480 . S
O382 Eu365 2.430 . S
O382 C372 1.259 . S
O383 Eu355 2.355 . S
O383 Eu365 2.670 . S
O383 C372 1.270 . S
O384 Eu365 2.394 . S
O384 C373 1.251 . S
O385 Eu355 2.374 . S
O385 C373 1.251 . S
H386 C357 0.931 . S
H387 C358 0.931 . S
H388 C360 0.931 . S
H389 C361 0.931 . S
H390 C367 0.931 . S
H391 C368 0.931 . S
H392 C370 0.931 . S
H393 C371 0.931 . S
C394 Eu395 2.835 . S
C394 C396 1.500 . S
C394 O414 1.257 . S
C394 O415 1.260 . S
Eu395 C394 2.835 . S
Eu395 O414 2.473 . S
Eu395 O415 2.480 . S
Eu395 O416 2.430 . S
Eu395 O417 2.670 . S
Eu395 O418 2.394 . S
Eu395 O423 2.355 . S
Eu395 O425 2.374 . S
C396 C394 1.500 . S
C396 C397 1.377 . S
C396 C401 1.377 . S
C397 C396 1.377 . S
C397 C398 1.395 . S
C397 H426 0.931 . S
C398 C397 1.395 . S
C398 C399 1.383 . S
C398 H427 0.931 . S
C399 C398 1.383 . S
C399 C400 1.394 . S
C400 C399 1.394 . S
C400 C401 1.378 . S
C400 H428 0.931 . S
C401 C396 1.377 . S
C401 C400 1.378 . S
C401 H429 0.931 . S
C402 O416 1.259 . S
C402 O417 1.270 . S
C403 O418 1.251 . S
C403 O419 1.251 . S
C404 Eu405 2.835 . S
C404 C406 1.500 . S
C404 O420 1.257 . S
C404 O421 1.260 . S
Eu405 C404 2.835 . S
Eu405 O417 2.355 . S
Eu405 O419 2.374 . S
Eu405 O420 2.473 . S
Eu405 O421 2.480 . S
Eu405 O422 2.430 . S
Eu405 O423 2.670 . S
Eu405 O424 2.394 . S
C406 C404 1.500 . S
C406 C407 1.377 . S
C406 C411 1.377 . S
C407 C406 1.377 . S
C407 C408 1.395 . S
C407 H430 0.931 . S
C408 C407 1.395 . S
C408 C409 1.383 . S
C408 H431 0.931 . S
C409 C408 1.383 . S
C409 C410 1.394 . S
C410 C409 1.394 . S
C410 C411 1.378 . S
C410 H432 0.931 . S
C411 C406 1.377 . S
C411 C410 1.378 . S
C411 H433 0.931 . S
C412 O422 1.259 . S
C412 O423 1.270 . S
C413 O424 1.251 . S
C413 O425 1.251 . S
O414 C394 1.257 . S
O414 Eu395 2.473 . S
O415 C394 1.260 . S
O415 Eu395 2.480 . S
O416 Eu395 2.430 . S
O416 C402 1.259 . S
O417 Eu395 2.670 . S
O417 C402 1.270 . S
O417 Eu405 2.355 . S
O418 Eu395 2.394 . S
O418 C403 1.251 . S
O419 C403 1.251 . S
O419 Eu405 2.374 . S
O420 C404 1.257 . S
O420 Eu405 2.473 . S
O421 C404 1.260 . S
O421 Eu405 2.480 . S
O422 Eu405 2.430 . S
O422 C412 1.259 . S
O423 Eu395 2.355 . S
O423 Eu405 2.670 . S
O423 C412 1.270 . S
O424 Eu405 2.394 . S
O424 C413 1.251 . S
O425 Eu395 2.374 . S
O425 C413 1.251 . S
H426 C397 0.931 . S
H427 C398 0.931 . S
H428 C400 0.931 . S
H429 C401 0.931 . S
H430 C407 0.931 . S
H431 C408 0.931 . S
H432 C410 0.931 . S
H433 C411 0.931 . S
C434 Eu435 2.835 . S
C434 C436 1.500 . S
C434 O454 1.257 . S
C434 O455 1.260 . S
Eu435 C434 2.835 . S
Eu435 O454 2.473 . S
Eu435 O455 2.480 . S
Eu435 O456 2.430 . S
Eu435 O457 2.670 . S
Eu435 O458 2.394 . S
Eu435 O463 2.355 . S
Eu435 O465 2.374 . S
C436 C434 1.500 . S
C436 C437 1.377 . S
C436 C441 1.377 . S
C437 C436 1.377 . S
C437 C438 1.395 . S
C437 H466 0.931 . S
C438 C437 1.395 . S
C438 C439 1.383 . S
C438 H467 0.931 . S
C439 C438 1.383 . S
C439 C440 1.394 . S
C440 C439 1.394 . S
C440 C441 1.378 . S
C440 H468 0.931 . S
C441 C436 1.377 . S
C441 C440 1.378 . S
C441 H469 0.931 . S
C442 O456 1.259 . S
C442 O457 1.270 . S
C443 O458 1.251 . S
C443 O459 1.251 . S
C444 Eu445 2.835 . S
C444 C446 1.500 . S
C444 O460 1.257 . S
C444 O461 1.260 . S
Eu445 C444 2.835 . S
Eu445 O457 2.355 . S
Eu445 O459 2.374 . S
Eu445 O460 2.473 . S
Eu445 O461 2.480 . S
Eu445 O462 2.430 . S
Eu445 O463 2.670 . S
Eu445 O464 2.394 . S
C446 C444 1.500 . S
C446 C447 1.377 . S
C446 C451 1.377 . S
C447 C446 1.377 . S
C447 C448 1.395 . S
C447 H470 0.931 . S
C448 C447 1.395 . S
C448 C449 1.383 . S
C448 H471 0.931 . S
C449 C448 1.383 . S
C449 C450 1.394 . S
C450 C449 1.394 . S
C450 C451 1.378 . S
C450 H472 0.931 . S
C451 C446 1.377 . S
C451 C450 1.378 . S
C451 H473 0.931 . S
C452 O462 1.259 . S
C452 O463 1.270 . S
C453 O464 1.251 . S
C453 O465 1.251 . S
O454 C434 1.257 . S
O454 Eu435 2.473 . S
O455 C434 1.260 . S
O455 Eu435 2.480 . S
O456 Eu435 2.430 . S
O456 C442 1.259 . S
O457 Eu435 2.670 . S
O457 C442 1.270 . S
O457 Eu445 2.355 . S
O458 Eu435 2.394 . S
O458 C443 1.251 . S
O459 C443 1.251 . S
O459 Eu445 2.374 . S
O460 C444 1.257 . S
O460 Eu445 2.473 . S
O461 C444 1.260 . S
O461 Eu445 2.480 . S
O462 Eu445 2.430 . S
O462 C452 1.259 . S
O463 Eu435 2.355 . S
O463 Eu445 2.670 . S
O463 C452 1.270 . S
O464 Eu445 2.394 . S
O464 C453 1.251 . S
O465 Eu435 2.374 . S
O465 C453 1.251 . S
H466 C437 0.931 . S
H467 C438 0.931 . S
H468 C440 0.931 . S
H469 C441 0.931 . S
H470 C447 0.931 . S
H471 C448 0.931 . S
H472 C450 0.931 . S
H473 C451 0.931 . S
C474 Eu475 2.835 . S
C474 C476 1.500 . S
C474 O494 1.257 . S
C474 O495 1.260 . S
Eu475 C474 2.835 . S
Eu475 O494 2.473 . S
Eu475 O495 2.480 . S
Eu475 O496 2.430 . S
Eu475 O497 2.670 . S
Eu475 O498 2.394 . S
Eu475 O503 2.355 . S
Eu475 O505 2.374 . S
C476 C474 1.500 . S
C476 C477 1.377 . S
C476 C481 1.377 . S
C477 C476 1.377 . S
C477 C478 1.395 . S
C477 H506 0.931 . S
C478 C477 1.395 . S
C478 C479 1.383 . S
C478 H507 0.931 . S
C479 C478 1.383 . S
C479 C480 1.394 . S
C480 C479 1.394 . S
C480 C481 1.378 . S
C480 H508 0.931 . S
C481 C476 1.377 . S
C481 C480 1.378 . S
C481 H509 0.931 . S
C482 O496 1.259 . S
C482 O497 1.270 . S
C483 O498 1.251 . S
C483 O499 1.251 . S
C484 Eu485 2.835 . S
C484 C486 1.500 . S
C484 O500 1.257 . S
C484 O501 1.260 . S
Eu485 C484 2.835 . S
Eu485 O497 2.355 . S
Eu485 O499 2.374 . S
Eu485 O500 2.473 . S
Eu485 O501 2.480 . S
Eu485 O502 2.430 . S
Eu485 O503 2.670 . S
Eu485 O504 2.394 . S
C486 C484 1.500 . S
C486 C487 1.377 . S
C486 C491 1.377 . S
C487 C486 1.377 . S
C487 C488 1.395 . S
C487 H510 0.931 . S
C488 C487 1.395 . S
C488 C489 1.383 . S
C488 H511 0.931 . S
C489 C488 1.383 . S
C489 C490 1.394 . S
C490 C489 1.394 . S
C490 C491 1.378 . S
C490 H512 0.931 . S
C491 C486 1.377 . S
C491 C490 1.378 . S
C491 H513 0.931 . S
C492 O502 1.259 . S
C492 O503 1.270 . S
C493 O504 1.251 . S
C493 O505 1.251 . S
O494 C474 1.257 . S
O494 Eu475 2.473 . S
O495 C474 1.260 . S
O495 Eu475 2.480 . S
O496 Eu475 2.430 . S
O496 C482 1.259 . S
O497 Eu475 2.670 . S
O497 C482 1.270 . S
O497 Eu485 2.355 . S
O498 Eu475 2.394 . S
O498 C483 1.251 . S
O499 C483 1.251 . S
O499 Eu485 2.374 . S
O500 C484 1.257 . S
O500 Eu485 2.473 . S
O501 C484 1.260 . S
O501 Eu485 2.480 . S
O502 Eu485 2.430 . S
O502 C492 1.259 . S
O503 Eu475 2.355 . S
O503 Eu485 2.670 . S
O503 C492 1.270 . S
O504 Eu485 2.394 . S
O504 C493 1.251 . S
O505 Eu475 2.374 . S
O505 C493 1.251 . S
H506 C477 0.931 . S
H507 C478 0.931 . S
H508 C480 0.931 . S
H509 C481 0.931 . S
H510 C487 0.931 . S
H511 C488 0.931 . S
H512 C490 0.931 . S
H513 C491 0.931 . S
C514 Eu515 2.835 . S
C514 C516 1.500 . S
C514 O534 1.257 . S
C514 O535 1.260 . S
Eu515 C514 2.835 . S
Eu515 O534 2.473 . S
Eu515 O535 2.480 . S
Eu515 O536 2.430 . S
Eu515 O537 2.670 . S
Eu515 O538 2.394 . S
Eu515 O543 2.355 . S
Eu515 O545 2.374 . S
C516 C514 1.500 . S
C516 C517 1.377 . S
C516 C521 1.377 . S
C517 C516 1.377 . S
C517 C518 1.395 . S
C517 H546 0.931 . S
C518 C517 1.395 . S
C518 C519 1.383 . S
C518 H547 0.931 . S
C519 C518 1.383 . S
C519 C520 1.394 . S
C520 C519 1.394 . S
C520 C521 1.378 . S
C520 H548 0.931 . S
C521 C516 1.377 . S
C521 C520 1.378 . S
C521 H549 0.931 . S
C522 O536 1.259 . S
C522 O537 1.270 . S
C523 O538 1.251 . S
C523 O539 1.251 . S
C524 Eu525 2.835 . S
C524 C526 1.500 . S
C524 O540 1.257 . S
C524 O541 1.260 . S
Eu525 C524 2.835 . S
Eu525 O537 2.355 . S
Eu525 O539 2.374 . S
Eu525 O540 2.473 . S
Eu525 O541 2.480 . S
Eu525 O542 2.430 . S
Eu525 O543 2.670 . S
Eu525 O544 2.394 . S
C526 C524 1.500 . S
C526 C527 1.377 . S
C526 C531 1.377 . S
C527 C526 1.377 . S
C527 C528 1.395 . S
C527 H550 0.931 . S
C528 C527 1.395 . S
C528 C529 1.383 . S
C528 H551 0.931 . S
C529 C528 1.383 . S
C529 C530 1.394 . S
C530 C529 1.394 . S
C530 C531 1.378 . S
C530 H552 0.931 . S
C531 C526 1.377 . S
C531 C530 1.378 . S
C531 H553 0.931 . S
C532 O542 1.259 . S
C532 O543 1.270 . S
C533 O544 1.251 . S
C533 O545 1.251 . S
O534 C514 1.257 . S
O534 Eu515 2.473 . S
O535 C514 1.260 . S
O535 Eu515 2.480 . S
O536 Eu515 2.430 . S
O536 C522 1.259 . S
O537 Eu515 2.670 . S
O537 C522 1.270 . S
O537 Eu525 2.355 . S
O538 Eu515 2.394 . S
O538 C523 1.251 . S
O539 C523 1.251 . S
O539 Eu525 2.374 . S
O540 C524 1.257 . S
O540 Eu525 2.473 . S
O541 C524 1.260 . S
O541 Eu525 2.480 . S
O542 Eu525 2.430 . S
O542 C532 1.259 . S
O543 Eu515 2.355 . S
O543 Eu525 2.670 . S
O543 C532 1.270 . S
O544 Eu525 2.394 . S
O544 C533 1.251 . S
O545 Eu515 2.374 . S
O545 C533 1.251 . S
H546 C517 0.931 . S
H547 C518 0.931 . S
H548 C520 0.931 . S
H549 C521 0.931 . S
H550 C527 0.931 . S
H551 C528 0.931 . S
H552 C530 0.931 . S
H553 C531 0.931 . S
C554 Eu555 2.835 . S
C554 C556 1.500 . S
C554 O574 1.257 . S
C554 O575 1.260 . S
Eu555 C554 2.835 . S
Eu555 O574 2.473 . S
Eu555 O575 2.480 . S
Eu555 O576 2.430 . S
Eu555 O577 2.670 . S
Eu555 O578 2.394 . S
Eu555 O583 2.355 . S
Eu555 O585 2.374 . S
C556 C554 1.500 . S
C556 C557 1.377 . S
C556 C561 1.377 . S
C557 C556 1.377 . S
C557 C558 1.395 . S
C557 H586 0.931 . S
C558 C557 1.395 . S
C558 C559 1.383 . S
C558 H587 0.931 . S
C559 C558 1.383 . S
C559 C560 1.394 . S
C560 C559 1.394 . S
C560 C561 1.378 . S
C560 H588 0.931 . S
C561 C556 1.377 . S
C561 C560 1.378 . S
C561 H589 0.931 . S
C562 O576 1.259 . S
C562 O577 1.270 . S
C563 O578 1.251 . S
C563 O579 1.251 . S
C564 Eu565 2.835 . S
C564 C566 1.500 . S
C564 O580 1.257 . S
C564 O581 1.260 . S
Eu565 C564 2.835 . S
Eu565 O577 2.355 . S
Eu565 O579 2.374 . S
Eu565 O580 2.473 . S
Eu565 O581 2.480 . S
Eu565 O582 2.430 . S
Eu565 O583 2.670 . S
Eu565 O584 2.394 . S
C566 C564 1.500 . S
C566 C567 1.377 . S
C566 C571 1.377 . S
C567 C566 1.377 . S
C567 C568 1.395 . S
C567 H590 0.931 . S
C568 C567 1.395 . S
C568 C569 1.383 . S
C568 H591 0.931 . S
C569 C568 1.383 . S
C569 C570 1.394 . S
C570 C569 1.394 . S
C570 C571 1.378 . S
C570 H592 0.931 . S
C571 C566 1.377 . S
C571 C570 1.378 . S
C571 H593 0.931 . S
C572 O582 1.259 . S
C572 O583 1.270 . S
C573 O584 1.251 . S
C573 O585 1.251 . S
O574 C554 1.257 . S
O574 Eu555 2.473 . S
O575 C554 1.260 . S
O575 Eu555 2.480 . S
O576 Eu555 2.430 . S
O576 C562 1.259 . S
O577 Eu555 2.670 . S
O577 C562 1.270 . S
O577 Eu565 2.355 . S
O578 Eu555 2.394 . S
O578 C563 1.251 . S
O579 C563 1.251 . S
O579 Eu565 2.374 . S
O580 C564 1.257 . S
O580 Eu565 2.473 . S
O581 C564 1.260 . S
O581 Eu565 2.480 . S
O582 Eu565 2.430 . S
O582 C572 1.259 . S
O583 Eu555 2.355 . S
O583 Eu565 2.670 . S
O583 C572 1.270 . S
O584 Eu565 2.394 . S
O584 C573 1.251 . S
O585 Eu555 2.374 . S
O585 C573 1.251 . S
H586 C557 0.931 . S
H587 C558 0.931 . S
H588 C560 0.931 . S
H589 C561 0.931 . S
H590 C567 0.931 . S
H591 C568 0.931 . S
H592 C570 0.931 . S
H593 C571 0.931 . S
C594 C595 1.391 . S
C594 C596 1.394 . S
C594 H610 0.931 . S
C595 C594 1.391 . S
C595 C599 1.376 . S
C596 C594 1.394 . S
C596 C597 1.369 . S
C596 C600 1.531 . S
C597 C596 1.369 . S
C597 C598 1.410 . S
C597 C605 1.503 . S
C598 C597 1.410 . S
C598 C599 1.392 . S
C598 C601 1.511 . S
C599 C595 1.376 . S
C599 C598 1.392 . S
C599 H611 0.929 . S
C600 C596 1.531 . S
C600 H612 0.960 . S
C600 H613 0.962 . S
C600 H614 0.960 . S
C601 C598 1.511 . S
C601 H615 0.961 . S
C601 H616 0.961 . S
C601 H617 0.961 . S
C602 C603 1.370 . S
C602 C604 1.363 . S
C602 H618 0.931 . S
C603 C602 1.370 . S
C603 C607 1.408 . S
C604 C602 1.363 . S
C604 C605 1.370 . S
C604 C608 1.524 . S
C605 C597 1.503 . S
C605 C604 1.370 . S
C605 C606 1.403 . S
C606 C605 1.403 . S
C606 C607 1.404 . S
C606 C609 1.539 1_554 S
C607 C603 1.408 . S
C607 C606 1.404 . S
C607 H619 0.930 1_554 S
C608 C604 1.524 . S
C608 H620 0.956 . S
C608 H621 0.961 . S
C608 H622 0.961 . S
C609 C606 1.539 1_556 S
C609 H623 0.958 . S
C609 H624 0.961 . S
C609 H625 0.960 . S
H610 C594 0.931 . S
H611 C599 0.929 . S
H612 C600 0.960 . S
H613 C600 0.962 . S
H614 C600 0.960 . S
H615 C601 0.961 . S
H616 C601 0.961 . S
H617 C601 0.961 . S
H618 C602 0.931 . S
H619 C607 0.930 1_556 S
H620 C608 0.956 . S
H621 C608 0.961 . S
H622 C608 0.961 . S
H623 C609 0.958 . S
H624 C609 0.961 . S
H625 C609 0.960 . S
C626 C627 1.391 . S
C626 C628 1.394 . S
C626 H642 0.931 . S
C627 C626 1.391 . S
C627 C631 1.376 . S
C628 C626 1.394 . S
C628 C629 1.369 . S
C628 C632 1.531 . S
C629 C628 1.369 . S
C629 C630 1.410 . S
C629 C637 1.503 . S
C630 C629 1.410 . S
C630 C631 1.392 . S
C630 C633 1.511 . S
C631 C627 1.376 . S
C631 C630 1.392 . S
C631 H643 0.929 . S
C632 C628 1.531 . S
C632 H644 0.960 . S
C632 H645 0.962 . S
C632 H646 0.960 . S
C633 C630 1.511 . S
C633 H647 0.961 . S
C633 H648 0.961 . S
C633 H649 0.961 . S
C634 C635 1.370 . S
C634 C636 1.363 . S
C634 H650 0.931 . S
C635 C634 1.370 . S
C635 C639 1.408 . S
C636 C634 1.363 . S
C636 C637 1.370 . S
C636 C640 1.524 . S
C637 C629 1.503 . S
C637 C636 1.370 . S
C637 C638 1.403 . S
C638 C637 1.403 . S
C638 C639 1.404 . S
C638 C641 1.539 . S
C639 C635 1.408 . S
C639 C638 1.404 . S
C639 H651 0.930 . S
C640 C636 1.524 . S
C640 H652 0.956 . S
C640 H653 0.961 . S
C640 H654 0.961 . S
C641 C638 1.539 . S
C641 H655 0.958 . S
C641 H656 0.961 . S
C641 H657 0.960 . S
H642 C626 0.931 . S
H643 C631 0.929 . S
H644 C632 0.960 . S
H645 C632 0.962 . S
H646 C632 0.960 . S
H647 C633 0.961 . S
H648 C633 0.961 . S
H649 C633 0.961 . S
H650 C634 0.931 . S
H651 C639 0.930 . S
H652 C640 0.956 . S
H653 C640 0.961 . S
H654 C640 0.961 . S
H655 C641 0.958 . S
H656 C641 0.961 . S
H657 C641 0.960 . S
C658 C659 1.391 . S
C658 C660 1.394 . S
C658 H674 0.931 . S
C659 C658 1.391 . S
C659 C663 1.376 . S
C660 C658 1.394 . S
C660 C661 1.369 . S
C660 C664 1.505 1_554 S
C661 C660 1.369 . S
C661 C662 1.410 . S
C661 C669 1.503 . S
C662 C661 1.410 . S
C662 C663 1.392 . S
C662 C665 1.511 . S
C663 C659 1.376 . S
C663 C662 1.392 . S
C663 H675 0.929 . S
C664 C660 1.505 1_556 S
C664 H676 0.976 . S
C664 H677 0.942 1_556 S
C664 H678 0.991 . S
C665 C662 1.511 . S
C665 H679 0.961 . S
C665 H680 0.961 . S
C665 H681 0.961 . S
C666 C667 1.370 . S
C666 C668 1.363 . S
C666 H682 0.931 . S
C667 C666 1.370 . S
C667 C671 1.408 . S
C668 C666 1.363 . S
C668 C669 1.370 . S
C668 C672 1.524 . S
C669 C661 1.503 . S
C669 C668 1.370 . S
C669 C670 1.403 . S
C670 C669 1.403 . S
C670 C671 1.404 . S
C670 C673 1.539 1_554 S
C671 C667 1.408 . S
C671 C670 1.404 . S
C671 H683 0.930 1_554 S
C672 C668 1.524 . S
C672 H684 0.956 . S
C672 H685 0.961 . S
C672 H686 0.961 . S
C673 C670 1.539 1_556 S
C673 H687 0.958 . S
C673 H688 0.961 . S
C673 H689 0.960 1_556 S
H674 C658 0.931 . S
H675 C663 0.929 . S
H676 C664 0.976 . S
H677 C664 0.942 1_554 S
H678 C664 0.991 . S
H679 C665 0.961 . S
H680 C665 0.961 . S
H681 C665 0.961 . S
H682 C666 0.931 . S
H683 C671 0.930 1_556 S
H684 C672 0.956 . S
H685 C672 0.961 . S
H686 C672 0.961 . S
H687 C673 0.958 . S
H688 C673 0.961 . S
H689 C673 0.960 1_554 S
C690 C691 1.391 . S
C690 C692 1.394 . S
C690 H706 0.931 . S
C691 C690 1.391 . S
C691 C695 1.376 . S
C692 C690 1.394 . S
C692 C693 1.369 . S
C692 C696 1.531 . S
C693 C692 1.369 . S
C693 C694 1.410 . S
C693 C701 1.503 . S
C694 C693 1.410 . S
C694 C695 1.392 . S
C694 C697 1.511 . S
C695 C691 1.376 . S
C695 C694 1.392 . S
C695 H707 0.929 . S
C696 C692 1.531 . S
C696 H708 0.960 . S
C696 H709 0.962 . S
C696 H710 0.960 . S
C697 C694 1.511 . S
C697 H711 0.961 . S
C697 H712 0.961 . S
C697 H713 0.961 . S
C698 C699 1.370 1_554 S
C698 C700 1.370 . S
C698 H714 0.931 . S
C699 C698 1.370 1_556 S
C699 C703 1.408 . S
C700 C698 1.370 . S
C700 C701 1.337 1_554 S
C700 C704 1.552 . S
C701 C693 1.503 . S
C701 C700 1.337 1_556 S
C701 C702 1.403 . S
C702 C701 1.403 . S
C702 C703 1.404 . S
C702 C705 1.539 . S
C703 C699 1.408 . S
C703 C702 1.404 . S
C703 H715 0.930 . S
C704 C700 1.552 . S
C704 H716 0.956 . S
C704 H717 0.961 . S
C704 H718 0.961 . S
C705 C702 1.539 . S
C705 H719 0.958 . S
C705 H720 0.961 . S
C705 H721 0.960 . S
H706 C690 0.931 . S
H707 C695 0.929 . S
H708 C696 0.960 . S
H709 C696 0.962 . S
H710 C696 0.960 . S
H711 C697 0.961 . S
H712 C697 0.961 . S
H713 C697 0.961 . S
H714 C698 0.931 . S
H715 C703 0.930 . S
H716 C704 0.956 . S
H717 C704 0.961 . S
H718 C704 0.961 . S
H719 C705 0.958 . S
H720 C705 0.961 . S
H721 C705 0.960 . S
C722 C723 1.391 . S
C722 C724 1.394 . S
C722 H738 0.931 . S
C723 C722 1.391 . S
C723 C727 1.376 . S
C724 C722 1.394 . S
C724 C725 1.369 . S
C724 C728 1.531 . S
C725 C724 1.369 . S
C725 C726 1.410 . S
C725 C733 1.503 . S
C726 C725 1.410 . S
C726 C727 1.392 . S
C726 C729 1.511 . S
C727 C723 1.376 . S
C727 C726 1.392 . S
C727 H739 0.929 . S
C728 C724 1.531 . S
C728 H740 0.960 . S
C728 H741 0.962 . S
C728 H742 0.960 . S
C729 C726 1.511 . S
C729 H743 0.961 . S
C729 H744 0.961 . S
C729 H745 0.961 . S
C730 C731 1.388 . S
C730 C732 1.381 . S
C730 H746 0.896 1_556 S
C731 C730 1.388 . S
C731 C735 1.408 . S
C732 C730 1.381 . S
C732 C733 1.370 . S
C732 C736 1.524 1_556 S
C733 C725 1.503 . S
C733 C732 1.370 . S
C733 C734 1.403 . S
C734 C733 1.403 . S
C734 C735 1.404 . S
C734 C737 1.539 . S
C735 C731 1.408 . S
C735 C734 1.404 . S
C735 H747 0.930 . S
C736 C732 1.524 1_554 S
C736 H748 0.956 . S
C736 H749 0.961 1_554 S
C736 H750 0.961 . S
C737 C734 1.539 . S
C737 H751 0.958 . S
C737 H752 0.961 . S
C737 H753 0.960 . S
H738 C722 0.931 . S
H739 C727 0.929 . S
H740 C728 0.960 . S
H741 C728 0.962 . S
H742 C728 0.960 . S
H743 C729 0.961 . S
H744 C729 0.961 . S
H745 C729 0.961 . S
H746 C730 0.896 1_554 S
H747 C735 0.930 . S
H748 C736 0.956 . S
H749 C736 0.961 1_556 S
H750 C736 0.961 . S
H751 C737 0.958 . S
H752 C737 0.961 . S
H753 C737 0.960 . S
C754 C755 1.391 . S
C754 C756 1.394 . S
C754 H770 0.931 . S
C755 C754 1.391 . S
C755 C759 1.376 . S
C756 C754 1.394 . S
C756 C757 1.369 . S
C756 C760 1.531 . S
C757 C756 1.369 . S
C757 C758 1.372 1_556 S
C757 C765 1.503 . S
C758 C757 1.372 1_554 S
C758 C759 1.382 1_554 S
C758 C761 1.560 . S
C759 C755 1.376 . S
C759 C758 1.382 1_556 S
C759 H771 0.929 1_556 S
C760 C756 1.531 . S
C760 H772 0.960 . S
C760 H773 0.962 . S
C760 H774 0.960 . S
C761 C758 1.560 . S
C761 H775 0.961 . S
C761 H776 0.961 . S
C761 H777 0.961 . S
C762 C763 1.366 1_554 S
C762 C764 1.363 1_554 S
C762 H778 0.931 . S
C763 C762 1.366 1_556 S
C763 C767 1.419 . S
C764 C762 1.363 1_556 S
C764 C765 1.370 . S
C764 C768 1.524 1_556 S
C765 C757 1.503 . S
C765 C764 1.370 . S
C765 C766 1.403 . S
C766 C765 1.403 . S
C766 C767 1.404 . S
C766 C769 1.539 . S
C767 C763 1.419 . S
C767 C766 1.404 . S
C767 H779 0.930 . S
C768 C764 1.524 1_554 S
C768 H780 0.956 1_554 S
C768 H781 0.961 . S
C768 H782 0.961 . S
C769 C766 1.539 . S
C769 H783 0.958 . S
C769 H784 0.961 . S
C769 H785 0.960 . S
H770 C754 0.931 . S
H771 C759 0.929 1_554 S
H772 C760 0.960 . S
H773 C760 0.962 . S
H774 C760 0.960 . S
H775 C761 0.961 . S
H776 C761 0.961 . S
H777 C761 0.961 . S
H778 C762 0.931 . S
H779 C767 0.930 . S
H780 C768 0.956 1_556 S
H781 C768 0.961 . S
H782 C768 0.961 . S
H783 C769 0.958 . S
H784 C769 0.961 . S
H785 C769 0.960 . S
C786 C787 1.391 . S
C786 C788 1.394 . S
C786 H802 0.931 . S
C787 C786 1.391 . S
C787 C791 1.376 . S
C788 C786 1.394 . S
C788 C789 1.369 . S
C788 C792 1.531 . S
C789 C788 1.369 . S
C789 C790 1.410 . S
C789 C797 1.503 . S
C790 C789 1.410 . S
C790 C791 1.392 . S
C790 C793 1.511 . S
C791 C787 1.376 . S
C791 C790 1.392 . S
C791 H803 0.929 . S
C792 C788 1.531 . S
C792 H804 0.960 . S
C792 H805 0.962 . S
C792 H806 0.960 . S
C793 C790 1.511 . S
C793 H807 0.961 . S
C793 H808 0.961 . S
C793 H809 0.961 . S
C794 C795 1.370 1_554 S
C794 C796 1.363 1_554 S
C794 H810 0.931 . S
C795 C794 1.370 1_556 S
C795 C799 1.408 . S
C796 C794 1.363 1_556 S
C796 C797 1.370 . S
C796 C800 1.524 1_556 S
C797 C789 1.503 . S
C797 C796 1.370 . S
C797 C798 1.403 . S
C798 C797 1.403 . S
C798 C799 1.404 . S
C798 C801 1.539 . S
C799 C795 1.408 . S
C799 C798 1.404 . S
C799 H811 0.930 . S
C800 C796 1.524 1_554 S
C800 H812 0.956 . S
C800 H813 0.961 . S
C800 H814 0.961 . S
C801 C798 1.539 . S
C801 H815 0.958 . S
C801 H816 0.961 . S
C801 H817 0.960 . S
H802 C786 0.931 . S
H803 C791 0.929 . S
H804 C792 0.960 . S
H805 C792 0.962 . S
H806 C792 0.960 . S
H807 C793 0.961 . S
H808 C793 0.961 . S
H809 C793 0.961 . S
H810 C794 0.931 . S
H811 C799 0.930 . S
H812 C800 0.956 . S
H813 C800 0.961 . S
H814 C800 0.961 . S
H815 C801 0.958 . S
H816 C801 0.961 . S
H817 C801 0.960 . S
C818 C819 1.391 . S
C818 C820 1.394 . S
C818 H834 0.931 . S
C819 C818 1.391 . S
C819 C823 1.376 . S
C820 C818 1.394 . S
C820 C821 1.369 . S
C820 C824 1.531 . S
C821 C820 1.369 . S
C821 C822 1.410 . S
C821 C829 1.503 . S
C822 C821 1.410 . S
C822 C823 1.392 . S
C822 C825 1.511 1_556 S
C823 C819 1.376 . S
C823 C822 1.392 . S
C823 H835 0.929 . S
C824 C820 1.531 . S
C824 H836 0.960 . S
C824 H837 0.962 . S
C824 H838 0.960 . S
C825 C822 1.511 1_554 S
C825 H839 0.961 . S
C825 H840 0.961 . S
C825 H841 0.961 . S
C826 C827 1.370 . S
C826 C828 1.363 . S
C826 H842 0.931 . S
C827 C826 1.370 . S
C827 C831 1.408 . S
C828 C826 1.363 . S
C828 C829 1.370 . S
C828 C832 1.524 . S
C829 C821 1.503 . S
C829 C828 1.370 . S
C829 C830 1.403 . S
C830 C829 1.403 . S
C830 C831 1.404 . S
C830 C833 1.539 . S
C831 C827 1.408 . S
C831 C830 1.404 . S
C831 H843 0.930 . S
C832 C828 1.524 . S
C832 H844 0.956 . S
C832 H845 0.961 . S
C832 H846 0.961 . S
C833 C830 1.539 . S
C833 H847 0.958 . S
C833 H848 0.961 . S
C833 H849 0.960 . S
H834 C818 0.931 . S
H835 C823 0.929 . S
H836 C824 0.960 . S
H837 C824 0.962 . S
H838 C824 0.960 . S
H839 C825 0.961 . S
H840 C825 0.961 . S
H841 C825 0.961 . S
H842 C826 0.931 . S
H843 C831 0.930 . S
H844 C832 0.956 . S
H845 C832 0.961 . S
H846 C832 0.961 . S
H847 C833 0.958 . S
H848 C833 0.961 . S
H849 C833 0.960 . S
C850 C851 1.391 . S
C850 C852 1.394 . S
C850 H866 0.931 . S
C851 C850 1.391 . S
C851 C855 1.376 . S
C852 C850 1.394 . S
C852 C853 1.369 . S
C852 C856 1.531 . S
C853 C852 1.369 . S
C853 C854 1.410 . S
C853 C861 1.503 . S
C854 C853 1.410 . S
C854 C855 1.392 . S
C854 C857 1.511 1_556 S
C855 C851 1.376 . S
C855 C854 1.392 . S
C855 H867 0.929 . S
C856 C852 1.531 . S
C856 H868 0.960 . S
C856 H869 0.962 . S
C856 H870 0.960 . S
C857 C854 1.511 1_554 S
C857 H871 0.961 . S
C857 H872 0.961 . S
C857 H873 0.961 1_554 S
C858 C859 1.370 . S
C858 C860 1.363 . S
C858 H874 0.931 . S
C859 C858 1.370 . S
C859 C863 1.408 1_554 S
C860 C858 1.363 . S
C860 C861 1.370 1_554 S
C860 C864 1.524 . S
C861 C853 1.503 . S
C861 C860 1.370 1_556 S
C861 C862 1.403 . S
C862 C861 1.403 . S
C862 C863 1.404 . S
C862 C865 1.539 . S
C863 C859 1.408 1_556 S
C863 C862 1.404 . S
C863 H875 0.930 . S
C864 C860 1.524 . S
C864 H876 0.956 . S
C864 H877 0.961 . S
C864 H878 0.961 . S
C865 C862 1.539 . S
C865 H879 0.958 . S
C865 H880 0.961 . S
C865 H881 0.960 . S
H866 C850 0.931 . S
H867 C855 0.929 . S
H868 C856 0.960 . S
H869 C856 0.962 . S
H870 C856 0.960 . S
H871 C857 0.961 . S
H872 C857 0.961 . S
H873 C857 0.961 1_556 S
H874 C858 0.931 . S
H875 C863 0.930 . S
H876 C864 0.956 . S
H877 C864 0.961 . S
H878 C864 0.961 . S
H879 C865 0.958 . S
H880 C865 0.961 . S
H881 C865 0.960 . S
C882 C883 1.391 . S
C882 C884 1.394 . S
C882 H898 0.931 . S
C883 C882 1.391 . S
C883 C887 1.376 . S
C884 C882 1.394 . S
C884 C885 1.369 . S
C884 C888 1.531 . S
C885 C884 1.369 . S
C885 C886 1.410 . S
C885 C893 1.503 . S
C886 C885 1.410 . S
C886 C887 1.392 . S
C886 C889 1.511 . S
C887 C883 1.376 . S
C887 C886 1.392 . S
C887 H899 0.929 . S
C888 C884 1.531 . S
C888 H900 0.960 1_554 S
C888 H901 0.962 . S
C888 H902 0.960 1_554 S
C889 C886 1.511 . S
C889 H903 0.961 . S
C889 H904 0.961 . S
C889 H905 0.961 . S
C890 C891 1.370 . S
C890 C892 1.363 . S
C890 H906 0.931 . S
C891 C890 1.370 . S
C891 C895 1.408 . S
C892 C890 1.363 . S
C892 C893 1.370 . S
C892 C896 1.524 . S
C893 C885 1.503 . S
C893 C892 1.370 . S
C893 C894 1.403 . S
C894 C893 1.403 . S
C894 C895 1.404 . S
C894 C897 1.539 1_554 S
C895 C891 1.408 . S
C895 C894 1.404 . S
C895 H907 0.930 1_554 S
C896 C892 1.524 . S
C896 H908 0.956 . S
C896 H909 0.961 . S
C896 H910 0.961 . S
C897 C894 1.539 1_556 S
C897 H911 0.958 . S
C897 H912 0.961 . S
C897 H913 0.960 . S
H898 C882 0.931 . S
H899 C887 0.929 . S
H900 C888 0.960 1_556 S
H901 C888 0.962 . S
H902 C888 0.960 1_556 S
H903 C889 0.961 . S
H904 C889 0.961 . S
H905 C889 0.961 . S
H906 C890 0.931 . S
H907 C895 0.930 1_556 S
H908 C896 0.956 . S
H909 C896 0.961 . S
H910 C896 0.961 . S
H911 C897 0.958 . S
H912 C897 0.961 . S
H913 C897 0.960 . S
C914 C915 1.391 . S
C914 C916 1.394 . S
C914 H930 0.931 . S
C915 C914 1.391 . S
C915 C919 1.376 . S
C916 C914 1.394 . S
C916 C917 1.369 . S
C916 C920 1.531 . S
C917 C916 1.369 . S
C917 C918 1.410 . S
C917 C925 1.503 . S
C918 C917 1.410 . S
C918 C919 1.392 . S
C918 C921 1.511 . S
C919 C915 1.376 . S
C919 C918 1.392 . S
C919 H931 0.929 . S
C920 C916 1.531 . S
C920 H932 0.960 . S
C920 H933 0.962 . S
C920 H934 0.960 . S
C921 C918 1.511 . S
C921 H935 0.961 . S
C921 H936 0.961 . S
C921 H937 0.961 . S
C922 C923 1.370 . S
C922 C924 1.363 . S
C922 H938 0.931 . S
C923 C922 1.370 . S
C923 C927 1.408 . S
C924 C922 1.363 . S
C924 C925 1.370 . S
C924 C928 1.524 . S
C925 C917 1.503 . S
C925 C924 1.370 . S
C925 C926 1.403 . S
C926 C925 1.403 . S
C926 C927 1.404 . S
C926 C929 1.539 . S
C927 C923 1.408 . S
C927 C926 1.404 . S
C927 H939 0.930 . S
C928 C924 1.524 . S
C928 H940 0.956 . S
C928 H941 0.961 . S
C928 H942 0.961 . S
C929 C926 1.539 . S
C929 H943 0.958 . S
C929 H944 0.961 . S
C929 H945 0.960 . S
H930 C914 0.931 . S
H931 C919 0.929 . S
H932 C920 0.960 . S
H933 C920 0.962 . S
H934 C920 0.960 . S
H935 C921 0.961 . S
H936 C921 0.961 . S
H937 C921 0.961 . S
H938 C922 0.931 . S
H939 C927 0.930 . S
H940 C928 0.956 . S
H941 C928 0.961 . S
H942 C928 0.961 . S
H943 C929 0.958 . S
H944 C929 0.961 . S
H945 C929 0.960 . S
C946 C947 1.391 . S
C946 C948 1.394 . S
C946 H962 0.931 . S
C947 C946 1.391 . S
C947 C951 1.376 . S
C948 C946 1.394 . S
C948 C949 1.369 . S
C948 C952 1.531 1_554 S
C949 C948 1.369 . S
C949 C950 1.410 . S
C949 C957 1.503 . S
C950 C949 1.410 . S
C950 C951 1.392 . S
C950 C953 1.511 . S
C951 C947 1.376 . S
C951 C950 1.392 . S
C951 H963 0.929 . S
C952 C948 1.531 1_556 S
C952 H964 0.960 . S
C952 H965 0.962 1_556 S
C952 H966 0.960 . S
C953 C950 1.511 . S
C953 H967 0.961 . S
C953 H968 0.961 . S
C953 H969 0.961 . S
C954 C955 1.370 . S
C954 C956 1.363 . S
C954 H970 0.931 . S
C955 C954 1.370 . S
C955 C959 1.408 1_554 S
C956 C954 1.363 . S
C956 C957 1.370 . S
C956 C960 1.524 . S
C957 C949 1.503 . S
C957 C956 1.370 . S
C957 C958 1.440 . S
C958 C957 1.440 . S
C958 C959 1.399 1_554 S
C958 C961 1.511 1_554 S
C959 C955 1.408 1_556 S
C959 C958 1.399 1_556 S
C959 H971 0.930 . S
C960 C956 1.524 . S
C960 H972 0.956 . S
C960 H973 0.961 . S
C960 H974 0.961 . S
C961 C958 1.511 1_556 S
C961 H975 0.958 . S
C961 H976 0.961 . S
C961 H977 0.960 . S
H962 C946 0.931 . S
H963 C951 0.929 . S
H964 C952 0.960 . S
H965 C952 0.962 1_554 S
H966 C952 0.960 . S
H967 C953 0.961 . S
H968 C953 0.961 . S
H969 C953 0.961 . S
H970 C954 0.931 . S
H971 C959 0.930 . S
H972 C960 0.956 . S
H973 C960 0.961 . S
H974 C960 0.961 . S
H975 C961 0.958 . S
H976 C961 0.961 . S
H977 C961 0.960 . S
C978 C979 1.391 . S
C978 C980 1.394 . S
C978 H994 0.931 . S
C979 C978 1.391 . S
C979 C983 1.376 . S
C980 C978 1.394 . S
C980 C981 1.369 . S
C980 C984 1.531 . S
C981 C980 1.369 . S
C981 C982 1.410 . S
C981 C989 1.503 1_655 S
C982 C981 1.410 . S
C982 C983 1.392 . S
C982 C985 1.511 . S
C983 C979 1.376 . S
C983 C982 1.392 . S
C983 H995 0.929 . S
C984 C980 1.531 . S
C984 H996 0.960 1_655 S
C984 H997 0.962 . S
C984 H998 0.960 . S
C985 C982 1.511 . S
C985 H999 0.961 . S
C985 H1000 0.961 . S
C985 H1001 0.961 . S
C986 C987 1.370 . S
C986 C988 1.363 . S
C986 H1002 0.931 . S
C987 C986 1.370 . S
C987 C991 1.408 . S
C988 C986 1.363 . S
C988 C989 1.370 . S
C988 C992 1.524 1_455 S
C989 C981 1.503 1_455 S
C989 C988 1.370 . S
C989 C990 1.403 . S
C990 C989 1.403 . S
C990 C991 1.404 . S
C990 C993 1.539 . S
C991 C987 1.408 . S
C991 C990 1.404 . S
C991 H1003 0.930 . S
C992 C988 1.524 1_655 S
C992 H1004 0.956 . S
C992 H1005 0.961 . S
C992 H1006 0.961 . S
C993 C990 1.539 . S
C993 H1007 0.958 . S
C993 H1008 0.961 . S
C993 H1009 0.960 . S
H994 C978 0.931 . S
H995 C983 0.929 . S
H996 C984 0.960 1_455 S
H997 C984 0.962 . S
H998 C984 0.960 . S
H999 C985 0.961 . S
H1000 C985 0.961 . S
H1001 C985 0.961 . S
H1002 C986 0.931 . S
H1003 C991 0.930 . S
H1004 C992 0.956 . S
H1005 C992 0.961 . S
H1006 C992 0.961 . S
H1007 C993 0.958 . S
H1008 C993 0.961 . S
H1009 C993 0.960 . S
C1010 C1011 1.391 . S
C1010 C1012 1.394 . S
C1010 H1026 0.931 . S
C1011 C1010 1.391 . S
C1011 C1015 1.376 . S
C1012 C1010 1.394 . S
C1012 C1013 1.369 . S
C1012 C1016 1.531 . S
C1013 C1012 1.369 . S
C1013 C1014 1.410 . S
C1013 C1021 1.503 . S
C1014 C1013 1.410 . S
C1014 C1015 1.392 . S
C1014 C1017 1.511 . S
C1015 C1011 1.376 . S
C1015 C1014 1.392 . S
C1015 H1027 0.929 . S
C1016 C1012 1.531 . S
C1016 H1028 0.960 . S
C1016 H1029 0.962 . S
C1016 H1030 0.960 . S
C1017 C1014 1.511 . S
C1017 H1031 0.961 . S
C1017 H1032 0.961 . S
C1017 H1033 0.961 . S
C1018 C1019 1.370 . S
C1018 C1020 1.363 . S
C1018 H1034 0.931 . S
C1019 C1018 1.370 . S
C1019 C1023 1.408 . S
C1020 C1018 1.363 . S
C1020 C1021 1.370 . S
C1020 C1024 1.524 . S
C1021 C1013 1.503 . S
C1021 C1020 1.370 . S
C1021 C1022 1.403 . S
C1022 C1021 1.403 . S
C1022 C1023 1.404 . S
C1022 C1025 1.539 . S
C1023 C1019 1.408 . S
C1023 C1022 1.404 . S
C1023 H1035 0.930 . S
C1024 C1020 1.524 . S
C1024 H1036 0.956 . S
C1024 H1037 0.961 . S
C1024 H1038 0.961 . S
C1025 C1022 1.539 . S
C1025 H1039 0.958 . S
C1025 H1040 0.961 . S
C1025 H1041 0.960 . S
H1026 C1010 0.931 . S
H1027 C1015 0.929 . S
H1028 C1016 0.960 . S
H1029 C1016 0.962 . S
H1030 C1016 0.960 . S
H1031 C1017 0.961 . S
H1032 C1017 0.961 . S
H1033 C1017 0.961 . S
H1034 C1018 0.931 . S
H1035 C1023 0.930 . S
H1036 C1024 0.956 . S
H1037 C1024 0.961 . S
H1038 C1024 0.961 . S
H1039 C1025 0.958 . S
H1040 C1025 0.961 . S
H1041 C1025 0.960 . S
C1042 C1043 1.391 . S
C1042 C1044 1.394 . S
C1042 H1058 0.931 . S
C1043 C1042 1.391 . S
C1043 C1047 1.376 . S
C1044 C1042 1.394 . S
C1044 C1045 1.369 . S
C1044 C1048 1.531 . S
C1045 C1044 1.369 . S
C1045 C1046 1.410 . S
C1045 C1053 1.503 . S
C1046 C1045 1.410 . S
C1046 C1047 1.392 . S
C1046 C1049 1.511 . S
C1047 C1043 1.376 . S
C1047 C1046 1.392 . S
C1047 H1059 0.929 . S
C1048 C1044 1.531 . S
C1048 H1060 0.960 . S
C1048 H1061 0.962 . S
C1048 H1062 0.960 . S
C1049 C1046 1.511 . S
C1049 H1063 0.961 . S
C1049 H1064 0.961 . S
C1049 H1065 0.961 . S
C1050 C1051 1.370 . S
C1050 C1052 1.363 . S
C1050 H1066 0.931 . S
C1051 C1050 1.370 . S
C1051 C1055 1.408 . S
C1052 C1050 1.363 . S
C1052 C1053 1.370 1_565 S
C1052 C1056 1.524 . S
C1053 C1045 1.503 . S
C1053 C1052 1.370 1_545 S
C1053 C1054 1.403 1_545 S
C1054 C1053 1.403 1_565 S
C1054 C1055 1.404 . S
C1054 C1057 1.539 1_565 S
C1055 C1051 1.408 . S
C1055 C1054 1.404 . S
C1055 H1067 0.930 . S
C1056 C1052 1.524 . S
C1056 H1068 0.956 1_565 S
C1056 H1069 0.961 1_565 S
C1056 H1070 0.961 . S
C1057 C1054 1.539 1_545 S
C1057 H1071 0.958 . S
C1057 H1072 0.961 . S
C1057 H1073 0.960 . S
H1058 C1042 0.931 . S
H1059 C1047 0.929 . S
H1060 C1048 0.960 . S
H1061 C1048 0.962 . S
H1062 C1048 0.960 . S
H1063 C1049 0.961 . S
H1064 C1049 0.961 . S
H1065 C1049 0.961 . S
H1066 C1050 0.931 . S
H1067 C1055 0.930 . S
H1068 C1056 0.956 1_545 S
H1069 C1056 0.961 1_545 S
H1070 C1056 0.961 . S
H1071 C1057 0.958 . S
H1072 C1057 0.961 . S
H1073 C1057 0.960 . S
C1074 C1075 1.391 . S
C1074 C1076 1.394 . S
C1074 H1090 0.931 . S
C1075 C1074 1.391 . S
C1075 C1079 1.376 . S
C1076 C1074 1.394 . S
C1076 C1077 1.369 . S
C1076 C1080 1.531 . S
C1077 C1076 1.369 . S
C1077 C1078 1.410 . S
C1077 C1085 1.503 . S
C1078 C1077 1.410 . S
C1078 C1079 1.392 . S
C1078 C1081 1.511 . S
C1079 C1075 1.376 . S
C1079 C1078 1.392 . S
C1079 H1091 0.929 . S
C1080 C1076 1.531 . S
C1080 H1092 0.960 . S
C1080 H1093 0.962 . S
C1080 H1094 0.960 . S
C1081 C1078 1.511 . S
C1081 H1095 0.961 . S
C1081 H1096 0.961 . S
C1081 H1097 0.961 . S
C1082 C1083 1.370 . S
C1082 C1084 1.363 . S
C1082 H1098 0.931 . S
C1083 C1082 1.370 . S
C1083 C1087 1.408 . S
C1084 C1082 1.363 . S
C1084 C1085 1.370 . S
C1084 C1088 1.524 . S
C1085 C1077 1.503 . S
C1085 C1084 1.370 . S
C1085 C1086 1.403 . S
C1086 C1085 1.403 . S
C1086 C1087 1.404 . S
C1086 C1089 1.539 . S
C1087 C1083 1.408 . S
C1087 C1086 1.404 . S
C1087 H1099 0.930 . S
C1088 C1084 1.524 . S
C1088 H1100 0.956 . S
C1088 H1101 0.961 . S
C1088 H1102 0.961 . S
C1089 C1086 1.539 . S
C1089 H1103 0.958 . S
C1089 H1104 0.961 . S
C1089 H1105 0.960 . S
H1090 C1074 0.931 . S
H1091 C1079 0.929 . S
H1092 C1080 0.960 . S
H1093 C1080 0.962 . S
H1094 C1080 0.960 . S
H1095 C1081 0.961 . S
H1096 C1081 0.961 . S
H1097 C1081 0.961 . S
H1098 C1082 0.931 . S
H1099 C1087 0.930 . S
H1100 C1088 0.956 . S
H1101 C1088 0.961 . S
H1102 C1088 0.961 . S
H1103 C1089 0.958 . S
H1104 C1089 0.961 . S
H1105 C1089 0.960 . S
C1106 C1107 1.391 . S
C1106 C1108 1.394 . S
C1106 H1122 0.931 . S
C1107 C1106 1.391 . S
C1107 C1111 1.376 . S
C1108 C1106 1.394 . S
C1108 C1109 1.369 . S
C1108 C1112 1.531 . S
C1109 C1108 1.369 . S
C1109 C1110 1.410 . S
C1109 C1117 1.503 . S
C1110 C1109 1.410 . S
C1110 C1111 1.392 . S
C1110 C1113 1.511 . S
C1111 C1107 1.376 . S
C1111 C1110 1.392 . S
C1111 H1123 0.929 . S
C1112 C1108 1.531 . S
C1112 H1124 0.960 . S
C1112 H1125 0.962 . S
C1112 H1126 0.960 . S
C1113 C1110 1.511 . S
C1113 H1127 0.961 . S
C1113 H1128 0.961 . S
C1113 H1129 0.961 . S
C1114 C1115 1.370 . S
C1114 C1116 1.363 . S
C1114 H1130 0.931 . S
C1115 C1114 1.370 . S
C1115 C1119 1.408 . S
C1116 C1114 1.363 . S
C1116 C1117 1.370 . S
C1116 C1120 1.524 . S
C1117 C1109 1.503 . S
C1117 C1116 1.370 . S
C1117 C1118 1.403 . S
C1118 C1117 1.403 . S
C1118 C1119 1.404 . S
C1118 C1121 1.539 . S
C1119 C1115 1.408 . S
C1119 C1118 1.404 . S
C1119 H1131 0.930 . S
C1120 C1116 1.524 . S
C1120 H1132 0.956 . S
C1120 H1133 0.961 . S
C1120 H1134 0.961 . S
C1121 C1118 1.539 . S
C1121 H1135 0.958 . S
C1121 H1136 0.961 . S
C1121 H1137 0.960 . S
H1122 C1106 0.931 . S
H1123 C1111 0.929 . S
H1124 C1112 0.960 . S
H1125 C1112 0.962 . S
H1126 C1112 0.960 . S
H1127 C1113 0.961 . S
H1128 C1113 0.961 . S
H1129 C1113 0.961 . S
H1130 C1114 0.931 . S
H1131 C1119 0.930 . S
H1132 C1120 0.956 . S
H1133 C1120 0.961 . S
H1134 C1120 0.961 . S
H1135 C1121 0.958 . S
H1136 C1121 0.961 . S
H1137 C1121 0.960 . S
C1138 C1139 1.391 . S
C1138 C1140 1.394 . S
C1138 H1154 0.931 . S
C1139 C1138 1.391 . S
C1139 C1143 1.376 . S
C1140 C1138 1.394 . S
C1140 C1141 1.369 . S
C1140 C1144 1.531 . S
C1141 C1140 1.369 . S
C1141 C1142 1.410 . S
C1141 C1149 1.503 . S
C1142 C1141 1.410 . S
C1142 C1143 1.392 . S
C1142 C1145 1.511 . S
C1143 C1139 1.376 . S
C1143 C1142 1.392 . S
C1143 H1155 0.929 . S
C1144 C1140 1.531 . S
C1144 H1156 0.960 . S
C1144 H1157 0.962 . S
C1144 H1158 0.960 . S
C1145 C1142 1.511 . S
C1145 H1159 0.961 . S
C1145 H1160 0.961 . S
C1145 H1161 0.961 . S
C1146 C1147 1.370 . S
C1146 C1148 1.363 . S
C1146 H1162 0.931 . S
C1147 C1146 1.370 . S
C1147 C1151 1.408 . S
C1148 C1146 1.363 . S
C1148 C1149 1.370 . S
C1148 C1152 1.524 . S
C1149 C1141 1.503 . S
C1149 C1148 1.370 . S
C1149 C1150 1.403 . S
C1150 C1149 1.403 . S
C1150 C1151 1.404 . S
C1150 C1153 1.539 . S
C1151 C1147 1.408 . S
C1151 C1150 1.404 . S
C1151 H1163 0.930 . S
C1152 C1148 1.524 . S
C1152 H1164 0.956 . S
C1152 H1165 0.961 . S
C1152 H1166 0.961 . S
C1153 C1150 1.539 . S
C1153 H1167 0.958 . S
C1153 H1168 0.961 . S
C1153 H1169 0.960 . S
H1154 C1138 0.931 . S
H1155 C1143 0.929 . S
H1156 C1144 0.960 . S
H1157 C1144 0.962 . S
H1158 C1144 0.960 . S
H1159 C1145 0.961 . S
H1160 C1145 0.961 . S
H1161 C1145 0.961 . S
H1162 C1146 0.931 . S
H1163 C1151 0.930 . S
H1164 C1152 0.956 . S
H1165 C1152 0.961 . S
H1166 C1152 0.961 . S
H1167 C1153 0.958 . S
H1168 C1153 0.961 . S
H1169 C1153 0.960 . S
C1170 C1171 1.391 . S
C1170 C1172 1.394 . S
C1170 H1186 0.931 . S
C1171 C1170 1.391 . S
C1171 C1175 1.376 . S
C1172 C1170 1.394 . S
C1172 C1173 1.369 . S
C1172 C1176 1.531 . S
C1173 C1172 1.369 . S
C1173 C1174 1.410 . S
C1173 C1181 1.503 . S
C1174 C1173 1.410 . S
C1174 C1175 1.392 . S
C1174 C1177 1.511 . S
C1175 C1171 1.376 . S
C1175 C1174 1.392 . S
C1175 H1187 0.929 . S
C1176 C1172 1.531 . S
C1176 H1188 0.960 . S
C1176 H1189 0.962 . S
C1176 H1190 0.960 . S
C1177 C1174 1.511 . S
C1177 H1191 0.961 . S
C1177 H1192 0.961 . S
C1177 H1193 0.961 . S
C1178 C1179 1.370 . S
C1178 C1180 1.363 . S
C1178 H1194 0.931 . S
C1179 C1178 1.370 . S
C1179 C1183 1.408 . S
C1180 C1178 1.363 . S
C1180 C1181 1.370 . S
C1180 C1184 1.524 . S
C1181 C1173 1.503 . S
C1181 C1180 1.370 . S
C1181 C1182 1.403 . S
C1182 C1181 1.403 . S
C1182 C1183 1.404 . S
C1182 C1185 1.539 . S
C1183 C1179 1.408 . S
C1183 C1182 1.404 . S
C1183 H1195 0.930 . S
C1184 C1180 1.524 . S
C1184 H1196 0.956 . S
C1184 H1197 0.961 . S
C1184 H1198 0.961 . S
C1185 C1182 1.539 . S
C1185 H1199 0.958 . S
C1185 H1200 0.961 . S
C1185 H1201 0.960 . S
H1186 C1170 0.931 . S
H1187 C1175 0.929 . S
H1188 C1176 0.960 . S
H1189 C1176 0.962 . S
H1190 C1176 0.960 . S
H1191 C1177 0.961 . S
H1192 C1177 0.961 . S
H1193 C1177 0.961 . S
H1194 C1178 0.931 . S
H1195 C1183 0.930 . S
H1196 C1184 0.956 . S
H1197 C1184 0.961 . S
H1198 C1184 0.961 . S
H1199 C1185 0.958 . S
H1200 C1185 0.961 . S
H1201 C1185 0.960 . S
C1202 C1203 1.391 . S
C1202 C1204 1.394 . S
C1202 H1218 0.931 . S
C1203 C1202 1.391 . S
C1203 C1207 1.376 . S
C1204 C1202 1.394 . S
C1204 C1205 1.369 . S
C1204 C1208 1.531 . S
C1205 C1204 1.369 . S
C1205 C1206 1.410 . S
C1205 C1213 1.503 . S
C1206 C1205 1.410 . S
C1206 C1207 1.392 . S
C1206 C1209 1.511 . S
C1207 C1203 1.376 . S
C1207 C1206 1.392 . S
C1207 H1219 0.929 . S
C1208 C1204 1.531 . S
C1208 H1220 0.960 . S
C1208 H1221 0.962 . S
C1208 H1222 0.960 . S
C1209 C1206 1.511 . S
C1209 H1223 0.961 . S
C1209 H1224 0.961 . S
C1209 H1225 0.961 . S
C1210 C1211 1.370 . S
C1210 C1212 1.363 . S
C1210 H1226 0.931 . S
C1211 C1210 1.370 . S
C1211 C1215 1.408 . S
C1212 C1210 1.363 . S
C1212 C1213 1.370 . S
C1212 C1216 1.524 . S
C1213 C1205 1.503 . S
C1213 C1212 1.370 . S
C1213 C1214 1.403 . S
C1214 C1213 1.403 . S
C1214 C1215 1.404 . S
C1214 C1217 1.539 . S
C1215 C1211 1.408 . S
C1215 C1214 1.404 . S
C1215 H1227 0.930 . S
C1216 C1212 1.524 . S
C1216 H1228 0.956 . S
C1216 H1229 0.961 . S
C1216 H1230 0.961 . S
C1217 C1214 1.539 . S
C1217 H1231 0.958 . S
C1217 H1232 0.961 . S
C1217 H1233 0.960 . S
H1218 C1202 0.931 . S
H1219 C1207 0.929 . S
H1220 C1208 0.960 . S
H1221 C1208 0.962 . S
H1222 C1208 0.960 . S
H1223 C1209 0.961 . S
H1224 C1209 0.961 . S
H1225 C1209 0.961 . S
H1226 C1210 0.931 . S
H1227 C1215 0.930 . S
H1228 C1216 0.956 . S
H1229 C1216 0.961 . S
H1230 C1216 0.961 . S
H1231 C1217 0.958 . S
H1232 C1217 0.961 . S
H1233 C1217 0.960 . S
C1234 C1235 1.391 . S
C1234 C1236 1.394 . S
C1234 H1250 0.931 . S
C1235 C1234 1.391 . S
C1235 C1239 1.376 . S
C1236 C1234 1.394 . S
C1236 C1237 1.369 . S
C1236 C1240 1.531 . S
C1237 C1236 1.369 . S
C1237 C1238 1.410 . S
C1237 C1245 1.503 . S
C1238 C1237 1.410 . S
C1238 C1239 1.392 . S
C1238 C1241 1.511 . S
C1239 C1235 1.376 . S
C1239 C1238 1.392 . S
C1239 H1251 0.929 . S
C1240 C1236 1.531 . S
C1240 H1252 0.960 . S
C1240 H1253 0.962 . S
C1240 H1254 0.960 . S
C1241 C1238 1.511 . S
C1241 H1255 0.961 . S
C1241 H1256 0.961 . S
C1241 H1257 0.961 . S
C1242 C1243 1.370 . S
C1242 C1244 1.363 . S
C1242 H1258 0.931 . S
C1243 C1242 1.370 . S
C1243 C1247 1.408 . S
C1244 C1242 1.363 . S
C1244 C1245 1.370 . S
C1244 C1248 1.524 . S
C1245 C1237 1.503 . S
C1245 C1244 1.370 . S
C1245 C1246 1.403 . S
C1246 C1245 1.403 . S
C1246 C1247 1.404 . S
C1246 C1249 1.539 . S
C1247 C1243 1.408 . S
C1247 C1246 1.404 . S
C1247 H1259 0.930 . S
C1248 C1244 1.524 . S
C1248 H1260 0.956 . S
C1248 H1261 0.961 . S
C1248 H1262 0.961 . S
C1249 C1246 1.539 . S
C1249 H1263 0.958 . S
C1249 H1264 0.961 . S
C1249 H1265 0.960 . S
H1250 C1234 0.931 . S
H1251 C1239 0.929 . S
H1252 C1240 0.960 . S
H1253 C1240 0.962 . S
H1254 C1240 0.960 . S
H1255 C1241 0.961 . S
H1256 C1241 0.961 . S
H1257 C1241 0.961 . S
H1258 C1242 0.931 . S
H1259 C1247 0.930 . S
H1260 C1248 0.956 . S
H1261 C1248 0.961 . S
H1262 C1248 0.961 . S
H1263 C1249 0.958 . S
H1264 C1249 0.961 . S
H1265 C1249 0.960 . S
C1266 C1267 1.391 . S
C1266 C1268 1.394 1_545 S
C1266 H1282 0.931 . S
C1267 C1266 1.391 . S
C1267 C1271 1.376 . S
C1268 C1266 1.394 1_565 S
C1268 C1269 1.369 . S
C1268 C1272 1.531 . S
C1269 C1268 1.369 . S
C1269 C1270 1.410 . S
C1269 C1277 1.503 . S
C1270 C1269 1.410 . S
C1270 C1271 1.392 1_565 S
C1270 C1273 1.511 . S
C1271 C1267 1.376 . S
C1271 C1270 1.392 1_545 S
C1271 H1283 0.929 . S
C1272 C1268 1.531 . S
C1272 H1284 0.960 . S
C1272 H1285 0.962 . S
C1272 H1286 0.960 . S
C1273 C1270 1.511 . S
C1273 H1287 0.961 . S
C1273 H1288 0.961 . S
C1273 H1289 0.961 . S
C1274 C1275 1.370 . S
C1274 C1276 1.363 . S
C1274 H1290 0.931 . S
C1275 C1274 1.370 . S
C1275 C1279 1.408 . S
C1276 C1274 1.363 . S
C1276 C1277 1.370 . S
C1276 C1280 1.524 . S
C1277 C1269 1.503 . S
C1277 C1276 1.370 . S
C1277 C1278 1.403 . S
C1278 C1277 1.403 . S
C1278 C1279 1.404 . S
C1278 C1281 1.539 . S
C1279 C1275 1.408 . S
C1279 C1278 1.404 . S
C1279 H1291 0.930 . S
C1280 C1276 1.524 . S
C1280 H1292 0.956 . S
C1280 H1293 0.961 . S
C1280 H1294 0.961 . S
C1281 C1278 1.539 . S
C1281 H1295 0.958 . S
C1281 H1296 0.961 . S
C1281 H1297 0.960 . S
H1282 C1266 0.931 . S
H1283 C1271 0.929 . S
H1284 C1272 0.960 . S
H1285 C1272 0.962 . S
H1286 C1272 0.960 . S
H1287 C1273 0.961 . S
H1288 C1273 0.961 . S
H1289 C1273 0.961 . S
H1290 C1274 0.931 . S
H1291 C1279 0.930 . S
H1292 C1280 0.956 . S
H1293 C1280 0.961 . S
H1294 C1280 0.961 . S
H1295 C1281 0.958 . S
H1296 C1281 0.961 . S
H1297 C1281 0.960 . S
C1298 C1299 1.391 . S
C1298 C1300 1.394 1_655 S
C1298 H1314 0.931 . S
C1299 C1298 1.391 . S
C1299 C1303 1.376 1_655 S
C1300 C1298 1.394 1_455 S
C1300 C1301 1.369 . S
C1300 C1304 1.531 . S
C1301 C1300 1.369 . S
C1301 C1302 1.410 . S
C1301 C1309 1.503 . S
C1302 C1301 1.410 . S
C1302 C1303 1.392 . S
C1302 C1305 1.511 . S
C1303 C1299 1.376 1_455 S
C1303 C1302 1.392 . S
C1303 H1315 0.929 1_455 S
C1304 C1300 1.531 . S
C1304 H1316 0.960 . S
C1304 H1317 0.962 . S
C1304 H1318 0.960 . S
C1305 C1302 1.511 . S
C1305 H1319 0.961 . S
C1305 H1320 0.961 . S
C1305 H1321 0.961 . S
C1306 C1307 1.370 . S
C1306 C1308 1.363 . S
C1306 H1322 0.931 . S
C1307 C1306 1.370 . S
C1307 C1311 1.408 . S
C1308 C1306 1.363 . S
C1308 C1309 1.370 . S
C1308 C1312 1.524 . S
C1309 C1301 1.503 . S
C1309 C1308 1.370 . S
C1309 C1310 1.403 . S
C1310 C1309 1.403 . S
C1310 C1311 1.404 . S
C1310 C1313 1.539 . S
C1311 C1307 1.408 . S
C1311 C1310 1.404 . S
C1311 H1323 0.930 . S
C1312 C1308 1.524 . S
C1312 H1324 0.956 . S
C1312 H1325 0.961 . S
C1312 H1326 0.961 . S
C1313 C1310 1.539 . S
C1313 H1327 0.958 . S
C1313 H1328 0.961 . S
C1313 H1329 0.960 . S
H1314 C1298 0.931 . S
H1315 C1303 0.929 1_655 S
H1316 C1304 0.960 . S
H1317 C1304 0.962 . S
H1318 C1304 0.960 . S
H1319 C1305 0.961 . S
H1320 C1305 0.961 . S
H1321 C1305 0.961 . S
H1322 C1306 0.931 . S
H1323 C1311 0.930 . S
H1324 C1312 0.956 . S
H1325 C1312 0.961 . S
H1326 C1312 0.961 . S
H1327 C1313 0.958 . S
H1328 C1313 0.961 . S
H1329 C1313 0.960 . S
C1330 C1331 1.391 . S
C1330 C1332 1.394 . S
C1330 H1346 0.931 . S
C1331 C1330 1.391 . S
C1331 C1335 1.376 . S
C1332 C1330 1.394 . S
C1332 C1333 1.369 . S
C1332 C1336 1.531 . S
C1333 C1332 1.369 . S
C1333 C1334 1.410 . S
C1333 C1341 1.503 . S
C1334 C1333 1.410 . S
C1334 C1335 1.392 . S
C1334 C1337 1.511 . S
C1335 C1331 1.376 . S
C1335 C1334 1.392 . S
C1335 H1347 0.929 . S
C1336 C1332 1.531 . S
C1336 H1348 0.960 . S
C1336 H1349 0.962 . S
C1336 H1350 0.960 . S
C1337 C1334 1.511 . S
C1337 H1351 0.961 . S
C1337 H1352 0.961 . S
C1337 H1353 0.961 . S
C1338 C1339 1.370 . S
C1338 C1340 1.363 . S
C1338 H1354 0.931 . S
C1339 C1338 1.370 . S
C1339 C1343 1.408 . S
C1340 C1338 1.363 . S
C1340 C1341 1.370 . S
C1340 C1344 1.524 . S
C1341 C1333 1.503 . S
C1341 C1340 1.370 . S
C1341 C1342 1.403 . S
C1342 C1341 1.403 . S
C1342 C1343 1.404 . S
C1342 C1345 1.539 . S
C1343 C1339 1.408 . S
C1343 C1342 1.404 . S
C1343 H1355 0.930 . S
C1344 C1340 1.524 . S
C1344 H1356 0.956 . S
C1344 H1357 0.961 . S
C1344 H1358 0.961 . S
C1345 C1342 1.539 . S
C1345 H1359 0.958 . S
C1345 H1360 0.961 . S
C1345 H1361 0.960 . S
H1346 C1330 0.931 . S
H1347 C1335 0.929 . S
H1348 C1336 0.960 . S
H1349 C1336 0.962 . S
H1350 C1336 0.960 . S
H1351 C1337 0.961 . S
H1352 C1337 0.961 . S
H1353 C1337 0.961 . S
H1354 C1338 0.931 . S
H1355 C1343 0.930 . S
H1356 C1344 0.956 . S
H1357 C1344 0.961 . S
H1358 C1344 0.961 . S
H1359 C1345 0.958 . S
H1360 C1345 0.961 . S
H1361 C1345 0.960 . S
C1362 C1363 1.391 . S
C1362 C1364 1.394 . S
C1362 H1378 0.931 . S
C1363 C1362 1.391 . S
C1363 C1367 1.376 . S
C1364 C1362 1.394 . S
C1364 C1365 1.369 . S
C1364 C1368 1.531 . S
C1365 C1364 1.369 . S
C1365 C1366 1.410 . S
C1365 C1373 1.503 . S
C1366 C1365 1.410 . S
C1366 C1367 1.392 . S
C1366 C1369 1.511 . S
C1367 C1363 1.376 . S
C1367 C1366 1.392 . S
C1367 H1379 0.929 . S
C1368 C1364 1.531 . S
C1368 H1380 0.960 . S
C1368 H1381 0.962 . S
C1368 H1382 0.960 . S
C1369 C1366 1.511 . S
C1369 H1383 0.961 . S
C1369 H1384 0.961 . S
C1369 H1385 0.961 . S
C1370 C1371 1.370 . S
C1370 C1372 1.363 . S
C1370 H1386 0.931 . S
C1371 C1370 1.370 . S
C1371 C1375 1.408 . S
C1372 C1370 1.363 . S
C1372 C1373 1.370 . S
C1372 C1376 1.524 . S
C1373 C1365 1.503 . S
C1373 C1372 1.370 . S
C1373 C1374 1.403 . S
C1374 C1373 1.403 . S
C1374 C1375 1.404 . S
C1374 C1377 1.539 . S
C1375 C1371 1.408 . S
C1375 C1374 1.404 . S
C1375 H1387 0.930 . S
C1376 C1372 1.524 . S
C1376 H1388 0.956 . S
C1376 H1389 0.961 . S
C1376 H1390 0.961 . S
C1377 C1374 1.539 . S
C1377 H1391 0.958 . S
C1377 H1392 0.961 . S
C1377 H1393 0.960 . S
H1378 C1362 0.931 . S
H1379 C1367 0.929 . S
H1380 C1368 0.960 . S
H1381 C1368 0.962 . S
H1382 C1368 0.960 . S
H1383 C1369 0.961 . S
H1384 C1369 0.961 . S
H1385 C1369 0.961 . S
H1386 C1370 0.931 . S
H1387 C1375 0.930 . S
H1388 C1376 0.956 . S
H1389 C1376 0.961 . S
H1390 C1376 0.961 . S
H1391 C1377 0.958 . S
H1392 C1377 0.961 . S
H1393 C1377 0.960 . S
C1394 C1395 1.391 . S
C1394 C1396 1.394 . S
C1394 H1410 0.931 . S
C1395 C1394 1.391 . S
C1395 C1399 1.376 . S
C1396 C1394 1.394 . S
C1396 C1397 1.369 . S
C1396 C1400 1.531 . S
C1397 C1396 1.369 . S
C1397 C1398 1.410 . S
C1397 C1405 1.503 . S
C1398 C1397 1.410 . S
C1398 C1399 1.392 . S
C1398 C1401 1.511 . S
C1399 C1395 1.376 . S
C1399 C1398 1.392 . S
C1399 H1411 0.929 . S
C1400 C1396 1.531 . S
C1400 H1412 0.960 . S
C1400 H1413 0.962 . S
C1400 H1414 0.960 . S
C1401 C1398 1.511 . S
C1401 H1415 0.961 . S
C1401 H1416 0.961 . S
C1401 H1417 0.961 . S
C1402 C1403 1.370 . S
C1402 C1404 1.363 . S
C1402 H1418 0.931 . S
C1403 C1402 1.370 . S
C1403 C1407 1.408 . S
C1404 C1402 1.363 . S
C1404 C1405 1.370 . S
C1404 C1408 1.524 . S
C1405 C1397 1.503 . S
C1405 C1404 1.370 . S
C1405 C1406 1.403 . S
C1406 C1405 1.403 . S
C1406 C1407 1.404 . S
C1406 C1409 1.539 . S
C1407 C1403 1.408 . S
C1407 C1406 1.404 . S
C1407 H1419 0.930 . S
C1408 C1404 1.524 . S
C1408 H1420 0.956 . S
C1408 H1421 0.961 . S
C1408 H1422 0.961 . S
C1409 C1406 1.539 . S
C1409 H1423 0.958 . S
C1409 H1424 0.961 . S
C1409 H1425 0.960 . S
H1410 C1394 0.931 . S
H1411 C1399 0.929 . S
H1412 C1400 0.960 . S
H1413 C1400 0.962 . S
H1414 C1400 0.960 . S
H1415 C1401 0.961 . S
H1416 C1401 0.961 . S
H1417 C1401 0.961 . S
H1418 C1402 0.931 . S
H1419 C1407 0.930 . S
H1420 C1408 0.956 . S
H1421 C1408 0.961 . S
H1422 C1408 0.961 . S
H1423 C1409 0.958 . S
H1424 C1409 0.961 . S
H1425 C1409 0.960 . S
C1426 C1427 1.391 . S
C1426 C1428 1.394 . S
C1426 H1442 0.931 . S
C1427 C1426 1.391 . S
C1427 C1431 1.376 . S
C1428 C1426 1.394 . S
C1428 C1429 1.369 . S
C1428 C1432 1.531 . S
C1429 C1428 1.369 . S
C1429 C1430 1.410 . S
C1429 C1437 1.503 . S
C1430 C1429 1.410 . S
C1430 C1431 1.392 . S
C1430 C1433 1.511 . S
C1431 C1427 1.376 . S
C1431 C1430 1.392 . S
C1431 H1443 0.929 . S
C1432 C1428 1.531 . S
C1432 H1444 0.960 . S
C1432 H1445 0.962 . S
C1432 H1446 0.960 . S
C1433 C1430 1.511 . S
C1433 H1447 0.961 . S
C1433 H1448 0.961 . S
C1433 H1449 0.961 . S
C1434 C1435 1.370 . S
C1434 C1436 1.363 . S
C1434 H1450 0.931 . S
C1435 C1434 1.370 . S
C1435 C1439 1.408 . S
C1436 C1434 1.363 . S
C1436 C1437 1.370 . S
C1436 C1440 1.524 . S
C1437 C1429 1.503 . S
C1437 C1436 1.370 . S
C1437 C1438 1.403 . S
C1438 C1437 1.403 . S
C1438 C1439 1.404 . S
C1438 C1441 1.539 . S
C1439 C1435 1.408 . S
C1439 C1438 1.404 . S
C1439 H1451 0.930 . S
C1440 C1436 1.524 . S
C1440 H1452 0.956 . S
C1440 H1453 0.961 . S
C1440 H1454 0.961 . S
C1441 C1438 1.539 . S
C1441 H1455 0.958 . S
C1441 H1456 0.961 . S
C1441 H1457 0.960 . S
H1442 C1426 0.931 . S
H1443 C1431 0.929 . S
H1444 C1432 0.960 . S
H1445 C1432 0.962 . S
H1446 C1432 0.960 . S
H1447 C1433 0.961 . S
H1448 C1433 0.961 . S
H1449 C1433 0.961 . S
H1450 C1434 0.931 . S
H1451 C1439 0.930 . S
H1452 C1440 0.956 . S
H1453 C1440 0.961 . S
H1454 C1440 0.961 . S
H1455 C1441 0.958 . S
H1456 C1441 0.961 . S
H1457 C1441 0.960 . S
C1458 C1459 1.391 . S
C1458 C1460 1.394 . S
C1458 H1474 0.931 . S
C1459 C1458 1.391 . S
C1459 C1463 1.376 . S
C1460 C1458 1.394 . S
C1460 C1461 1.369 . S
C1460 C1464 1.531 . S
C1461 C1460 1.369 . S
C1461 C1462 1.410 . S
C1461 C1469 1.503 1_565 S
C1462 C1461 1.410 . S
C1462 C1463 1.392 . S
C1462 C1465 1.511 . S
C1463 C1459 1.376 . S
C1463 C1462 1.392 . S
C1463 H1475 0.929 . S
C1464 C1460 1.531 . S
C1464 H1476 0.960 1_565 S
C1464 H1477 0.962 . S
C1464 H1478 0.960 . S
C1465 C1462 1.511 . S
C1465 H1479 0.961 . S
C1465 H1480 0.961 . S
C1465 H1481 0.961 . S
C1466 C1467 1.370 . S
C1466 C1468 1.363 . S
C1466 H1482 0.931 . S
C1467 C1466 1.370 . S
C1467 C1471 1.408 . S
C1468 C1466 1.363 . S
C1468 C1469 1.370 . S
C1468 C1472 1.524 . S
C1469 C1461 1.503 1_545 S
C1469 C1468 1.370 . S
C1469 C1470 1.403 . S
C1470 C1469 1.403 . S
C1470 C1471 1.404 . S
C1470 C1473 1.539 1_545 S
C1471 C1467 1.408 . S
C1471 C1470 1.404 . S
C1471 H1483 0.930 . S
C1472 C1468 1.524 . S
C1472 H1484 0.956 . S
C1472 H1485 0.961 1_545 S
C1472 H1486 0.961 . S
C1473 C1470 1.539 1_565 S
C1473 H1487 0.958 . S
C1473 H1488 0.961 1_565 S
C1473 H1489 0.960 . S
H1474 C1458 0.931 . S
H1475 C1463 0.929 . S
H1476 C1464 0.960 1_545 S
H1477 C1464 0.962 . S
H1478 C1464 0.960 . S
H1479 C1465 0.961 . S
H1480 C1465 0.961 . S
H1481 C1465 0.961 . S
H1482 C1466 0.931 . S
H1483 C1471 0.930 . S
H1484 C1472 0.956 . S
H1485 C1472 0.961 1_565 S
H1486 C1472 0.961 . S
H1487 C1473 0.958 . S
H1488 C1473 0.961 1_545 S
H1489 C1473 0.960 . S
C1490 C1491 1.391 . S
C1490 C1492 1.394 . S
C1490 H1506 0.931 . S
C1491 C1490 1.391 . S
C1491 C1495 1.376 . S
C1492 C1490 1.394 . S
C1492 C1493 1.369 . S
C1492 C1496 1.531 . S
C1493 C1492 1.369 . S
C1493 C1494 1.410 . S
C1493 C1501 1.503 1_455 S
C1494 C1493 1.410 . S
C1494 C1495 1.392 . S
C1494 C1497 1.511 . S
C1495 C1491 1.376 . S
C1495 C1494 1.392 . S
C1495 H1507 0.929 . S
C1496 C1492 1.531 . S
C1496 H1508 0.960 . S
C1496 H1509 0.962 . S
C1496 H1510 0.960 . S
C1497 C1494 1.511 . S
C1497 H1511 0.961 . S
C1497 H1512 0.961 1_455 S
C1497 H1513 0.961 . S
C1498 C1499 1.370 . S
C1498 C1500 1.363 . S
C1498 H1514 0.931 . S
C1499 C1498 1.370 . S
C1499 C1503 1.408 . S
C1500 C1498 1.363 . S
C1500 C1501 1.370 . S
C1500 C1504 1.524 . S
C1501 C1493 1.503 1_655 S
C1501 C1500 1.370 . S
C1501 C1502 1.403 . S
C1502 C1501 1.403 . S
C1502 C1503 1.404 . S
C1502 C1505 1.539 1_655 S
C1503 C1499 1.408 . S
C1503 C1502 1.404 . S
C1503 H1515 0.930 . S
C1504 C1500 1.524 . S
C1504 H1516 0.956 . S
C1504 H1517 0.961 . S
C1504 H1518 0.961 . S
C1505 C1502 1.539 1_455 S
C1505 H1519 0.958 . S
C1505 H1520 0.961 . S
C1505 H1521 0.960 . S
H1506 C1490 0.931 . S
H1507 C1495 0.929 . S
H1508 C1496 0.960 . S
H1509 C1496 0.962 . S
H1510 C1496 0.960 . S
H1511 C1497 0.961 . S
H1512 C1497 0.961 1_655 S
H1513 C1497 0.961 . S
H1514 C1498 0.931 . S
H1515 C1503 0.930 . S
H1516 C1504 0.956 . S
H1517 C1504 0.961 . S
H1518 C1504 0.961 . S
H1519 C1505 0.958 . S
H1520 C1505 0.961 . S
H1521 C1505 0.960 . S
C1522 C1523 1.391 . S
C1522 C1524 1.394 . S
C1522 H1538 0.931 . S
C1523 C1522 1.391 . S
C1523 C1527 1.376 . S
C1524 C1522 1.394 . S
C1524 C1525 1.369 . S
C1524 C1528 1.531 . S
C1525 C1524 1.369 . S
C1525 C1526 1.410 . S
C1525 C1533 1.503 . S
C1526 C1525 1.410 . S
C1526 C1527 1.392 . S
C1526 C1529 1.511 . S
C1527 C1523 1.376 . S
C1527 C1526 1.392 . S
C1527 H1539 0.929 . S
C1528 C1524 1.531 . S
C1528 H1540 0.960 . S
C1528 H1541 0.962 . S
C1528 H1542 0.960 . S
C1529 C1526 1.511 . S
C1529 H1543 0.961 . S
C1529 H1544 0.961 . S
C1529 H1545 0.961 . S
C1530 C1531 1.370 . S
C1530 C1532 1.363 . S
C1530 H1546 0.931 . S
C1531 C1530 1.370 . S
C1531 C1535 1.408 . S
C1532 C1530 1.363 . S
C1532 C1533 1.370 . S
C1532 C1536 1.524 . S
C1533 C1525 1.503 . S
C1533 C1532 1.370 . S
C1533 C1534 1.403 . S
C1534 C1533 1.403 . S
C1534 C1535 1.404 . S
C1534 C1537 1.539 . S
C1535 C1531 1.408 . S
C1535 C1534 1.404 . S
C1535 H1547 0.930 . S
C1536 C1532 1.524 . S
C1536 H1548 0.956 . S
C1536 H1549 0.961 . S
C1536 H1550 0.961 . S
C1537 C1534 1.539 . S
C1537 H1551 0.958 . S
C1537 H1552 0.961 . S
C1537 H1553 0.960 . S
H1538 C1522 0.931 . S
H1539 C1527 0.929 . S
H1540 C1528 0.960 . S
H1541 C1528 0.962 . S
H1542 C1528 0.960 . S
H1543 C1529 0.961 . S
H1544 C1529 0.961 . S
H1545 C1529 0.961 . S
H1546 C1530 0.931 . S
H1547 C1535 0.930 . S
H1548 C1536 0.956 . S
H1549 C1536 0.961 . S
H1550 C1536 0.961 . S
H1551 C1537 0.958 . S
H1552 C1537 0.961 . S
H1553 C1537 0.960 . S
C1554 C1555 1.391 . S
C1554 C1556 1.394 1_455 S
C1554 H1570 0.931 . S
C1555 C1554 1.391 . S
C1555 C1559 1.376 . S
C1556 C1554 1.394 1_655 S
C1556 C1557 1.369 . S
C1556 C1560 1.531 . S
C1557 C1556 1.369 . S
C1557 C1558 1.410 . S
C1557 C1565 1.503 . S
C1558 C1557 1.410 . S
C1558 C1559 1.392 1_655 S
C1558 C1561 1.511 . S
C1559 C1555 1.376 . S
C1559 C1558 1.392 1_455 S
C1559 H1571 0.929 . S
C1560 C1556 1.531 . S
C1560 H1572 0.960 . S
C1560 H1573 0.962 . S
C1560 H1574 0.960 . S
C1561 C1558 1.511 . S
C1561 H1575 0.966 . S
C1561 H1576 0.961 . S
C1561 H1577 0.961 . S
C1562 C1563 1.370 . S
C1562 C1564 1.363 . S
C1562 H1578 0.931 . S
C1563 C1562 1.370 . S
C1563 C1567 1.408 . S
C1564 C1562 1.363 . S
C1564 C1565 1.370 . S
C1564 C1568 1.524 . S
C1565 C1557 1.503 . S
C1565 C1564 1.370 . S
C1565 C1566 1.403 . S
C1566 C1565 1.403 . S
C1566 C1567 1.404 . S
C1566 C1569 1.539 . S
C1567 C1563 1.408 . S
C1567 C1566 1.404 . S
C1567 H1579 0.930 . S
C1568 C1564 1.524 . S
C1568 H1580 0.956 . S
C1568 H1581 0.961 . S
C1568 H1582 0.961 . S
C1569 C1566 1.539 . S
C1569 H1583 0.958 . S
C1569 H1584 0.961 . S
C1569 H1585 0.960 . S
H1570 C1554 0.931 . S
H1571 C1559 0.929 . S
H1572 C1560 0.960 . S
H1573 C1560 0.962 . S
H1574 C1560 0.960 . S
H1575 C1561 0.966 . S
H1576 C1561 0.961 . S
H1577 C1561 0.961 . S
H1578 C1562 0.931 . S
H1579 C1567 0.930 . S
H1580 C1568 0.956 . S
H1581 C1568 0.961 . S
H1582 C1568 0.961 . S
H1583 C1569 0.958 . S
H1584 C1569 0.961 . S
H1585 C1569 0.960 . S
C1586 C1587 1.391 . S
C1586 C1588 1.394 . S
C1586 H1602 0.931 . S
C1587 C1586 1.391 . S
C1587 C1591 1.376 . S
C1588 C1586 1.394 . S
C1588 C1589 1.369 . S
C1588 C1592 1.531 . S
C1589 C1588 1.369 . S
C1589 C1590 1.410 . S
C1589 C1597 1.503 . S
C1590 C1589 1.410 . S
C1590 C1591 1.392 . S
C1590 C1593 1.511 . S
C1591 C1587 1.376 . S
C1591 C1590 1.392 . S
C1591 H1603 0.929 . S
C1592 C1588 1.531 . S
C1592 H1604 0.960 . S
C1592 H1605 0.962 . S
C1592 H1606 0.960 . S
C1593 C1590 1.511 . S
C1593 H1607 0.961 . S
C1593 H1608 0.961 . S
C1593 H1609 0.961 . S
C1594 C1595 1.370 . S
C1594 C1596 1.363 . S
C1594 H1610 0.931 . S
C1595 C1594 1.370 . S
C1595 C1599 1.408 . S
C1596 C1594 1.363 . S
C1596 C1597 1.370 . S
C1596 C1600 1.524 . S
C1597 C1589 1.503 . S
C1597 C1596 1.370 . S
C1597 C1598 1.403 . S
C1598 C1597 1.403 . S
C1598 C1599 1.404 . S
C1598 C1601 1.539 . S
C1599 C1595 1.408 . S
C1599 C1598 1.404 . S
C1599 H1611 0.930 . S
C1600 C1596 1.524 . S
C1600 H1612 0.956 . S
C1600 H1613 0.961 . S
C1600 H1614 0.961 . S
C1601 C1598 1.539 . S
C1601 H1615 0.958 . S
C1601 H1616 0.961 . S
C1601 H1617 0.960 . S
H1602 C1586 0.931 . S
H1603 C1591 0.929 . S
H1604 C1592 0.960 . S
H1605 C1592 0.962 . S
H1606 C1592 0.960 . S
H1607 C1593 0.961 . S
H1608 C1593 0.961 . S
H1609 C1593 0.961 . S
H1610 C1594 0.931 . S
H1611 C1599 0.930 . S
H1612 C1600 0.956 . S
H1613 C1600 0.961 . S
H1614 C1600 0.961 . S
H1615 C1601 0.958 . S
H1616 C1601 0.961 . S
H1617 C1601 0.960 . S
C1618 C1619 1.391 . S
C1618 C1620 1.394 1_565 S
C1618 H1634 0.931 . S
C1619 C1618 1.391 . S
C1619 C1623 1.376 . S
C1620 C1618 1.394 1_545 S
C1620 C1621 1.369 . S
C1620 C1624 1.531 . S
C1621 C1620 1.369 . S
C1621 C1622 1.410 . S
C1621 C1629 1.503 . S
C1622 C1621 1.410 . S
C1622 C1623 1.392 1_545 S
C1622 C1625 1.511 . S
C1623 C1619 1.376 . S
C1623 C1622 1.392 1_565 S
C1623 H1635 0.929 . S
C1624 C1620 1.531 . S
C1624 H1636 0.960 . S
C1624 H1637 0.962 . S
C1624 H1638 0.960 . S
C1625 C1622 1.511 . S
C1625 H1639 0.961 . S
C1625 H1640 0.961 . S
C1625 H1641 0.961 . S
C1626 C1627 1.370 . S
C1626 C1628 1.363 . S
C1626 H1642 0.931 . S
C1627 C1626 1.370 . S
C1627 C1631 1.408 . S
C1628 C1626 1.363 . S
C1628 C1629 1.370 . S
C1628 C1632 1.524 . S
C1629 C1621 1.503 . S
C1629 C1628 1.370 . S
C1629 C1630 1.403 . S
C1630 C1629 1.403 . S
C1630 C1631 1.404 . S
C1630 C1633 1.539 . S
C1631 C1627 1.408 . S
C1631 C1630 1.404 . S
C1631 H1643 0.930 . S
C1632 C1628 1.524 . S
C1632 H1644 0.956 . S
C1632 H1645 0.961 . S
C1632 H1646 0.961 . S
C1633 C1630 1.539 . S
C1633 H1647 0.958 . S
C1633 H1648 0.961 . S
C1633 H1649 0.960 . S
H1634 C1618 0.931 . S
H1635 C1623 0.929 . S
H1636 C1624 0.960 . S
H1637 C1624 0.962 . S
H1638 C1624 0.960 . S
H1639 C1625 0.961 . S
H1640 C1625 0.961 . S
H1641 C1625 0.961 . S
H1642 C1626 0.931 . S
H1643 C1631 0.930 . S
H1644 C1632 0.956 . S
H1645 C1632 0.961 . S
H1646 C1632 0.961 . S
H1647 C1633 0.958 . S
H1648 C1633 0.961 . S
H1649 C1633 0.960 . S
C1650 C1651 1.391 . S
C1650 C1652 1.394 . S
C1650 H1666 0.931 . S
C1651 C1650 1.391 . S
C1651 C1655 1.376 . S
C1652 C1650 1.394 . S
C1652 C1653 1.369 . S
C1652 C1656 1.531 . S
C1653 C1652 1.369 . S
C1653 C1654 1.410 . S
C1653 C1661 1.503 . S
C1654 C1653 1.410 . S
C1654 C1655 1.392 . S
C1654 C1657 1.511 . S
C1655 C1651 1.376 . S
C1655 C1654 1.392 . S
C1655 H1667 0.929 . S
C1656 C1652 1.531 . S
C1656 H1668 0.960 . S
C1656 H1669 0.962 . S
C1656 H1670 0.960 . S
C1657 C1654 1.511 . S
C1657 H1671 0.961 . S
C1657 H1672 0.961 . S
C1657 H1673 0.961 . S
C1658 C1659 1.370 . S
C1658 C1660 1.363 . S
C1658 H1674 0.931 . S
C1659 C1658 1.370 . S
C1659 C1663 1.408 . S
C1660 C1658 1.363 . S
C1660 C1661 1.370 . S
C1660 C1664 1.524 . S
C1661 C1653 1.503 . S
C1661 C1660 1.370 . S
C1661 C1662 1.403 . S
C1662 C1661 1.403 . S
C1662 C1663 1.404 . S
C1662 C1665 1.539 . S
C1663 C1659 1.408 . S
C1663 C1662 1.404 . S
C1663 H1675 0.930 . S
C1664 C1660 1.524 . S
C1664 H1676 0.956 . S
C1664 H1677 0.961 . S
C1664 H1678 0.961 . S
C1665 C1662 1.539 . S
C1665 H1679 0.958 . S
C1665 H1680 0.961 . S
C1665 H1681 0.960 . S
H1666 C1650 0.931 . S
H1667 C1655 0.929 . S
H1668 C1656 0.960 . S
H1669 C1656 0.962 . S
H1670 C1656 0.960 . S
H1671 C1657 0.961 . S
H1672 C1657 0.961 . S
H1673 C1657 0.961 . S
H1674 C1658 0.931 . S
H1675 C1663 0.930 . S
H1676 C1664 0.956 . S
H1677 C1664 0.961 . S
H1678 C1664 0.961 . S
H1679 C1665 0.958 . S
H1680 C1665 0.961 . S
H1681 C1665 0.960 . S
C1682 C1683 1.391 . S
C1682 C1684 1.394 . S
C1682 H1698 0.931 . S
C1683 C1682 1.391 . S
C1683 C1687 1.376 . S
C1684 C1682 1.394 . S
C1684 C1685 1.369 . S
C1684 C1688 1.531 . S
C1685 C1684 1.369 . S
C1685 C1686 1.410 . S
C1685 C1693 1.503 . S
C1686 C1685 1.410 . S
C1686 C1687 1.392 . S
C1686 C1689 1.511 . S
C1687 C1683 1.376 . S
C1687 C1686 1.392 . S
C1687 H1699 0.929 . S
C1688 C1684 1.531 . S
C1688 H1700 0.960 . S
C1688 H1701 0.962 . S
C1688 H1702 0.960 . S
C1689 C1686 1.511 . S
C1689 H1703 0.961 . S
C1689 H1704 0.961 . S
C1689 H1705 0.961 . S
C1690 C1691 1.370 . S
C1690 C1692 1.363 . S
C1690 H1706 0.931 . S
C1691 C1690 1.370 . S
C1691 C1695 1.408 . S
C1692 C1690 1.363 . S
C1692 C1693 1.370 . S
C1692 C1696 1.524 . S
C1693 C1685 1.503 . S
C1693 C1692 1.370 . S
C1693 C1694 1.403 . S
C1694 C1693 1.403 . S
C1694 C1695 1.404 . S
C1694 C1697 1.539 . S
C1695 C1691 1.408 . S
C1695 C1694 1.404 . S
C1695 H1707 0.930 . S
C1696 C1692 1.524 . S
C1696 H1708 0.956 . S
C1696 H1709 0.961 . S
C1696 H1710 0.961 . S
C1697 C1694 1.539 . S
C1697 H1711 0.958 . S
C1697 H1712 0.961 . S
C1697 H1713 0.960 . S
H1698 C1682 0.931 . S
H1699 C1687 0.929 . S
H1700 C1688 0.960 . S
H1701 C1688 0.962 . S
H1702 C1688 0.960 . S
H1703 C1689 0.961 . S
H1704 C1689 0.961 . S
H1705 C1689 0.961 . S
H1706 C1690 0.931 . S
H1707 C1695 0.930 . S
H1708 C1696 0.956 . S
H1709 C1696 0.961 . S
H1710 C1696 0.961 . S
H1711 C1697 0.958 . S
H1712 C1697 0.961 . S
H1713 C1697 0.960 . S
C1714 C1715 1.391 . S
C1714 C1716 1.394 . S
C1714 H1730 0.931 . S
C1715 C1714 1.391 . S
C1715 C1719 1.376 . S
C1716 C1714 1.394 . S
C1716 C1717 1.369 . S
C1716 C1720 1.531 . S
C1717 C1716 1.369 . S
C1717 C1718 1.410 . S
C1717 C1725 1.503 . S
C1718 C1717 1.410 . S
C1718 C1719 1.392 . S
C1718 C1721 1.511 . S
C1719 C1715 1.376 . S
C1719 C1718 1.392 . S
C1719 H1731 0.929 . S
C1720 C1716 1.531 . S
C1720 H1732 0.960 . S
C1720 H1733 0.962 . S
C1720 H1734 0.960 . S
C1721 C1718 1.511 . S
C1721 H1735 0.961 . S
C1721 H1736 0.961 . S
C1721 H1737 0.961 . S
C1722 C1723 1.370 . S
C1722 C1724 1.363 . S
C1722 H1738 0.931 . S
C1723 C1722 1.370 . S
C1723 C1727 1.408 . S
C1724 C1722 1.363 . S
C1724 C1725 1.370 . S
C1724 C1728 1.524 . S
C1725 C1717 1.503 . S
C1725 C1724 1.370 . S
C1725 C1726 1.403 . S
C1726 C1725 1.403 . S
C1726 C1727 1.404 . S
C1726 C1729 1.539 . S
C1727 C1723 1.408 . S
C1727 C1726 1.404 . S
C1727 H1739 0.930 . S
C1728 C1724 1.524 . S
C1728 H1740 0.956 . S
C1728 H1741 0.961 . S
C1728 H1742 0.961 . S
C1729 C1726 1.539 . S
C1729 H1743 0.958 . S
C1729 H1744 0.961 . S
C1729 H1745 0.960 . S
H1730 C1714 0.931 . S
H1731 C1719 0.929 . S
H1732 C1720 0.960 . S
H1733 C1720 0.962 . S
H1734 C1720 0.960 . S
H1735 C1721 0.961 . S
H1736 C1721 0.961 . S
H1737 C1721 0.961 . S
H1738 C1722 0.931 . S
H1739 C1727 0.930 . S
H1740 C1728 0.956 . S
H1741 C1728 0.961 . S
H1742 C1728 0.961 . S
H1743 C1729 0.958 . S
H1744 C1729 0.961 . S
H1745 C1729 0.960 . S
C1746 C1747 1.391 . S
C1746 C1748 1.394 . S
C1746 H1762 0.931 . S
C1747 C1746 1.391 . S
C1747 C1751 1.376 . S
C1748 C1746 1.394 . S
C1748 C1749 1.369 . S
C1748 C1752 1.531 . S
C1749 C1748 1.369 . S
C1749 C1750 1.410 . S
C1749 C1757 1.503 . S
C1750 C1749 1.410 . S
C1750 C1751 1.392 . S
C1750 C1753 1.511 . S
C1751 C1747 1.376 . S
C1751 C1750 1.392 . S
C1751 H1763 0.929 . S
C1752 C1748 1.531 . S
C1752 H1764 0.960 . S
C1752 H1765 0.962 . S
C1752 H1766 0.960 . S
C1753 C1750 1.511 . S
C1753 H1767 0.961 . S
C1753 H1768 0.961 . S
C1753 H1769 0.961 . S
C1754 C1755 1.370 . S
C1754 C1756 1.363 . S
C1754 H1770 0.931 . S
C1755 C1754 1.370 . S
C1755 C1759 1.408 . S
C1756 C1754 1.363 . S
C1756 C1757 1.370 . S
C1756 C1760 1.524 . S
C1757 C1749 1.503 . S
C1757 C1756 1.370 . S
C1757 C1758 1.403 . S
C1758 C1757 1.403 . S
C1758 C1759 1.404 . S
C1758 C1761 1.546 . S
C1759 C1755 1.408 . S
C1759 C1758 1.404 . S
C1759 H1771 0.930 1_565 S
C1760 C1756 1.524 . S
C1760 H1772 0.956 . S
C1760 H1773 0.961 . S
C1760 H1774 0.961 . S
C1761 C1758 1.546 . S
C1761 H1775 0.922 1_565 S
C1761 H1776 0.959 1_565 S
C1761 H1777 0.994 . S
H1762 C1746 0.931 . S
H1763 C1751 0.929 . S
H1764 C1752 0.960 . S
H1765 C1752 0.962 . S
H1766 C1752 0.960 . S
H1767 C1753 0.961 . S
H1768 C1753 0.961 . S
H1769 C1753 0.961 . S
H1770 C1754 0.931 . S
H1771 C1759 0.930 1_545 S
H1772 C1760 0.956 . S
H1773 C1760 0.961 . S
H1774 C1760 0.961 . S
H1775 C1761 0.922 1_545 S
H1776 C1761 0.959 1_545 S
H1777 C1761 0.994 . S
C1778 C1779 1.391 . S
C1778 C1780 1.394 . S
C1778 H1794 0.931 . S
C1779 C1778 1.391 . S
C1779 C1783 1.376 . S
C1780 C1778 1.394 . S
C1780 C1781 1.369 . S
C1780 C1784 1.531 . S
C1781 C1780 1.369 . S
C1781 C1782 1.410 . S
C1781 C1789 1.503 . S
C1782 C1781 1.410 . S
C1782 C1783 1.392 . S
C1782 C1785 1.511 . S
C1783 C1779 1.376 . S
C1783 C1782 1.392 . S
C1783 H1795 0.929 . S
C1784 C1780 1.531 . S
C1784 H1796 0.960 . S
C1784 H1797 0.962 . S
C1784 H1798 0.960 . S
C1785 C1782 1.511 . S
C1785 H1799 0.961 . S
C1785 H1800 0.961 . S
C1785 H1801 0.961 . S
C1786 C1787 1.370 . S
C1786 C1788 1.363 . S
C1786 H1802 0.931 . S
C1787 C1786 1.370 . S
C1787 C1791 1.408 . S
C1788 C1786 1.363 . S
C1788 C1789 1.370 . S
C1788 C1792 1.524 . S
C1789 C1781 1.503 . S
C1789 C1788 1.370 . S
C1789 C1790 1.403 . S
C1790 C1789 1.403 . S
C1790 C1791 1.404 . S
C1790 C1793 1.539 1_455 S
C1791 C1787 1.408 . S
C1791 C1790 1.404 . S
C1791 H1803 0.930 . S
C1792 C1788 1.524 . S
C1792 H1804 0.956 . S
C1792 H1805 0.961 . S
C1792 H1806 0.961 . S
C1793 C1790 1.539 1_655 S
C1793 H1807 0.958 . S
C1793 H1808 0.961 . S
C1793 H1809 0.960 . S
H1794 C1778 0.931 . S
H1795 C1783 0.929 . S
H1796 C1784 0.960 . S
H1797 C1784 0.962 . S
H1798 C1784 0.960 . S
H1799 C1785 0.961 . S
H1800 C1785 0.961 . S
H1801 C1785 0.961 . S
H1802 C1786 0.931 . S
H1803 C1791 0.930 . S
H1804 C1792 0.956 . S
H1805 C1792 0.961 . S
H1806 C1792 0.961 . S
H1807 C1793 0.958 . S
H1808 C1793 0.961 . S
H1809 C1793 0.960 . S
C1810 C1811 1.391 . S
C1810 C1812 1.394 . S
C1810 H1826 0.931 . S
C1811 C1810 1.391 . S
C1811 C1815 1.376 . S
C1812 C1810 1.394 . S
C1812 C1813 1.369 . S
C1812 C1816 1.531 . S
C1813 C1812 1.369 . S
C1813 C1814 1.410 . S
C1813 C1821 1.503 . S
C1814 C1813 1.410 . S
C1814 C1815 1.392 . S
C1814 C1817 1.511 . S
C1815 C1811 1.376 . S
C1815 C1814 1.392 . S
C1815 H1827 0.929 . S
C1816 C1812 1.531 . S
C1816 H1828 0.960 . S
C1816 H1829 0.962 . S
C1816 H1830 0.960 . S
C1817 C1814 1.511 . S
C1817 H1831 0.961 . S
C1817 H1832 0.961 . S
C1817 H1833 0.961 . S
C1818 C1819 1.370 . S
C1818 C1820 1.363 . S
C1818 H1834 0.931 . S
C1819 C1818 1.370 . S
C1819 C1823 1.408 . S
C1820 C1818 1.363 . S
C1820 C1821 1.370 . S
C1820 C1824 1.524 . S
C1821 C1813 1.503 . S
C1821 C1820 1.370 . S
C1821 C1822 1.403 . S
C1822 C1821 1.403 . S
C1822 C1823 1.404 . S
C1822 C1825 1.539 . S
C1823 C1819 1.408 . S
C1823 C1822 1.404 . S
C1823 H1835 0.930 . S
C1824 C1820 1.524 . S
C1824 H1836 0.956 . S
C1824 H1837 0.961 . S
C1824 H1838 0.961 . S
C1825 C1822 1.539 . S
C1825 H1839 0.958 . S
C1825 H1840 0.961 . S
C1825 H1841 0.960 . S
H1826 C1810 0.931 . S
H1827 C1815 0.929 . S
H1828 C1816 0.960 . S
H1829 C1816 0.962 . S
H1830 C1816 0.960 . S
H1831 C1817 0.961 . S
H1832 C1817 0.961 . S
H1833 C1817 0.961 . S
H1834 C1818 0.931 . S
H1835 C1823 0.930 . S
H1836 C1824 0.956 . S
H1837 C1824 0.961 . S
H1838 C1824 0.961 . S
H1839 C1825 0.958 . S
H1840 C1825 0.961 . S
H1841 C1825 0.960 . S
C1842 C1843 1.391 . S
C1842 C1844 1.394 . S
C1842 H1858 0.931 . S
C1843 C1842 1.391 . S
C1843 C1847 1.376 . S
C1844 C1842 1.394 . S
C1844 C1845 1.369 . S
C1844 C1848 1.531 1_655 S
C1845 C1844 1.369 . S
C1845 C1846 1.410 . S
C1845 C1853 1.503 . S
C1846 C1845 1.410 . S
C1846 C1847 1.392 . S
C1846 C1849 1.511 . S
C1847 C1843 1.376 . S
C1847 C1846 1.392 . S
C1847 H1859 0.929 . S
C1848 C1844 1.531 1_455 S
C1848 H1860 0.960 . S
C1848 H1861 0.962 . S
C1848 H1862 0.960 . S
C1849 C1846 1.511 . S
C1849 H1863 0.961 . S
C1849 H1864 0.961 . S
C1849 H1865 0.961 . S
C1850 C1851 1.370 . S
C1850 C1852 1.363 . S
C1850 H1866 0.931 . S
C1851 C1850 1.370 . S
C1851 C1855 1.408 . S
C1852 C1850 1.363 . S
C1852 C1853 1.370 . S
C1852 C1856 1.524 . S
C1853 C1845 1.503 . S
C1853 C1852 1.370 . S
C1853 C1854 1.403 . S
C1854 C1853 1.403 . S
C1854 C1855 1.404 . S
C1854 C1857 1.539 . S
C1855 C1851 1.408 . S
C1855 C1854 1.404 . S
C1855 H1867 0.930 . S
C1856 C1852 1.524 . S
C1856 H1868 0.956 . S
C1856 H1869 0.961 . S
C1856 H1870 0.961 . S
C1857 C1854 1.539 . S
C1857 H1871 0.958 . S
C1857 H1872 0.961 . S
C1857 H1873 0.960 . S
H1858 C1842 0.931 . S
H1859 C1847 0.929 . S
H1860 C1848 0.960 . S
H1861 C1848 0.962 . S
H1862 C1848 0.960 . S
H1863 C1849 0.961 . S
H1864 C1849 0.961 . S
H1865 C1849 0.961 . S
H1866 C1850 0.931 . S
H1867 C1855 0.930 . S
H1868 C1856 0.956 . S
H1869 C1856 0.961 . S
H1870 C1856 0.961 . S
H1871 C1857 0.958 . S
H1872 C1857 0.961 . S
H1873 C1857 0.960 . S
C1874 C1875 1.391 . S
C1874 C1876 1.394 . S
C1874 H1890 0.931 . S
C1875 C1874 1.391 . S
C1875 C1879 1.376 . S
C1876 C1874 1.394 . S
C1876 C1877 1.369 . S
C1876 C1880 1.531 . S
C1877 C1876 1.369 . S
C1877 C1878 1.410 . S
C1877 C1885 1.503 . S
C1878 C1877 1.410 . S
C1878 C1879 1.392 . S
C1878 C1881 1.511 . S
C1879 C1875 1.376 . S
C1879 C1878 1.392 . S
C1879 H1891 0.929 . S
C1880 C1876 1.531 . S
C1880 H1892 0.960 . S
C1880 H1893 0.962 . S
C1880 H1894 0.960 . S
C1881 C1878 1.511 . S
C1881 H1895 0.961 . S
C1881 H1896 0.961 . S
C1881 H1897 0.961 . S
C1882 C1883 1.370 . S
C1882 C1884 1.363 . S
C1882 H1898 0.931 . S
C1883 C1882 1.370 . S
C1883 C1887 1.408 . S
C1884 C1882 1.363 . S
C1884 C1885 1.370 . S
C1884 C1888 1.524 . S
C1885 C1877 1.503 . S
C1885 C1884 1.370 . S
C1885 C1886 1.403 . S
C1886 C1885 1.403 . S
C1886 C1887 1.404 . S
C1886 C1889 1.539 . S
C1887 C1883 1.408 . S
C1887 C1886 1.404 . S
C1887 H1899 0.930 . S
C1888 C1884 1.524 . S
C1888 H1900 0.956 . S
C1888 H1901 0.961 . S
C1888 H1902 0.961 . S
C1889 C1886 1.539 . S
C1889 H1903 0.958 . S
C1889 H1904 0.961 . S
C1889 H1905 0.960 . S
H1890 C1874 0.931 . S
H1891 C1879 0.929 . S
H1892 C1880 0.960 . S
H1893 C1880 0.962 . S
H1894 C1880 0.960 . S
H1895 C1881 0.961 . S
H1896 C1881 0.961 . S
H1897 C1881 0.961 . S
H1898 C1882 0.931 . S
H1899 C1887 0.930 . S
H1900 C1888 0.956 . S
H1901 C1888 0.961 . S
H1902 C1888 0.961 . S
H1903 C1889 0.958 . S
H1904 C1889 0.961 . S
H1905 C1889 0.960 . S
C1906 C1907 1.391 . S
C1906 C1908 1.394 . S
C1906 H1922 0.931 . S
C1907 C1906 1.391 . S
C1907 C1911 1.376 . S
C1908 C1906 1.394 . S
C1908 C1909 1.369 . S
C1908 C1912 1.531 . S
C1909 C1908 1.369 . S
C1909 C1910 1.410 . S
C1909 C1917 1.503 . S
C1910 C1909 1.410 . S
C1910 C1911 1.392 . S
C1910 C1913 1.511 . S
C1911 C1907 1.376 . S
C1911 C1910 1.392 . S
C1911 H1923 0.929 . S
C1912 C1908 1.531 . S
C1912 H1924 0.960 . S
C1912 H1925 0.962 . S
C1912 H1926 0.960 . S
C1913 C1910 1.511 . S
C1913 H1927 0.961 . S
C1913 H1928 0.961 . S
C1913 H1929 0.961 . S
C1914 C1915 1.370 . S
C1914 C1916 1.363 . S
C1914 H1930 0.931 . S
C1915 C1914 1.370 . S
C1915 C1919 1.408 . S
C1916 C1914 1.363 . S
C1916 C1917 1.370 . S
C1916 C1920 1.524 . S
C1917 C1909 1.503 . S
C1917 C1916 1.370 . S
C1917 C1918 1.403 . S
C1918 C1917 1.403 . S
C1918 C1919 1.404 . S
C1918 C1921 1.539 . S
C1919 C1915 1.408 . S
C1919 C1918 1.404 . S
C1919 H1931 0.930 . S
C1920 C1916 1.524 . S
C1920 H1932 0.956 . S
C1920 H1933 0.961 . S
C1920 H1934 0.961 . S
C1921 C1918 1.539 . S
C1921 H1935 0.958 1_545 S
C1921 H1936 0.961 1_545 S
C1921 H1937 0.960 . S
H1922 C1906 0.931 . S
H1923 C1911 0.929 . S
H1924 C1912 0.960 . S
H1925 C1912 0.962 . S
H1926 C1912 0.960 . S
H1927 C1913 0.961 . S
H1928 C1913 0.961 . S
H1929 C1913 0.961 . S
H1930 C1914 0.931 . S
H1931 C1919 0.930 . S
H1932 C1920 0.956 . S
H1933 C1920 0.961 . S
H1934 C1920 0.961 . S
H1935 C1921 0.958 1_565 S
H1936 C1921 0.961 1_565 S
H1937 C1921 0.960 . S
C1938 C1939 1.391 . S
C1938 C1940 1.394 . S
C1938 H1954 0.931 . S
C1939 C1938 1.391 . S
C1939 C1943 1.376 . S
C1940 C1938 1.394 . S
C1940 C1941 1.369 . S
C1940 C1944 1.531 . S
C1941 C1940 1.369 . S
C1941 C1942 1.410 . S
C1941 C1949 1.503 . S
C1942 C1941 1.410 . S
C1942 C1943 1.392 . S
C1942 C1945 1.511 . S
C1943 C1939 1.376 . S
C1943 C1942 1.392 . S
C1943 H1955 0.929 . S
C1944 C1940 1.531 . S
C1944 H1956 0.960 . S
C1944 H1957 0.962 . S
C1944 H1958 0.960 . S
C1945 C1942 1.511 . S
C1945 H1959 0.961 . S
C1945 H1960 0.961 . S
C1945 H1961 0.961 . S
C1946 C1947 1.370 . S
C1946 C1948 1.363 . S
C1946 H1962 0.931 . S
C1947 C1946 1.370 . S
C1947 C1951 1.408 . S
C1948 C1946 1.363 . S
C1948 C1949 1.370 . S
C1948 C1952 1.524 . S
C1949 C1941 1.503 . S
C1949 C1948 1.370 . S
C1949 C1950 1.403 . S
C1950 C1949 1.403 . S
C1950 C1951 1.404 . S
C1950 C1953 1.539 . S
C1951 C1947 1.408 . S
C1951 C1950 1.404 . S
C1951 H1963 0.930 . S
C1952 C1948 1.524 . S
C1952 H1964 0.956 . S
C1952 H1965 0.961 . S
C1952 H1966 0.961 . S
C1953 C1950 1.539 . S
C1953 H1967 0.958 . S
C1953 H1968 0.961 . S
C1953 H1969 0.960 . S
H1954 C1938 0.931 . S
H1955 C1943 0.929 . S
H1956 C1944 0.960 . S
H1957 C1944 0.962 . S
H1958 C1944 0.960 . S
H1959 C1945 0.961 . S
H1960 C1945 0.961 . S
H1961 C1945 0.961 . S
H1962 C1946 0.931 . S
H1963 C1951 0.930 . S
H1964 C1952 0.956 . S
H1965 C1952 0.961 . S
H1966 C1952 0.961 . S
H1967 C1953 0.958 . S
H1968 C1953 0.961 . S
H1969 C1953 0.960 . S
C1970 C1971 1.391 . S
C1970 C1972 1.394 . S
C1970 H1986 0.931 . S
C1971 C1970 1.391 . S
C1971 C1975 1.376 . S
C1972 C1970 1.394 . S
C1972 C1973 1.369 . S
C1972 C1976 1.531 . S
C1973 C1972 1.369 . S
C1973 C1974 1.410 . S
C1973 C1981 1.503 . S
C1974 C1973 1.410 . S
C1974 C1975 1.392 . S
C1974 C1977 1.511 . S
C1975 C1971 1.376 . S
C1975 C1974 1.392 . S
C1975 H1987 0.929 . S
C1976 C1972 1.531 . S
C1976 H1988 0.960 . S
C1976 H1989 0.962 . S
C1976 H1990 0.960 . S
C1977 C1974 1.511 . S
C1977 H1991 0.961 . S
C1977 H1992 0.961 . S
C1977 H1993 0.961 . S
C1978 C1979 1.370 . S
C1978 C1980 1.363 . S
C1978 H1994 0.931 . S
C1979 C1978 1.370 . S
C1979 C1983 1.408 . S
C1980 C1978 1.363 . S
C1980 C1981 1.370 . S
C1980 C1984 1.524 . S
C1981 C1973 1.503 . S
C1981 C1980 1.370 . S
C1981 C1982 1.403 . S
C1982 C1981 1.403 . S
C1982 C1983 1.404 . S
C1982 C1985 1.539 . S
C1983 C1979 1.408 . S
C1983 C1982 1.404 . S
C1983 H1995 0.930 . S
C1984 C1980 1.524 . S
C1984 H1996 0.956 . S
C1984 H1997 0.961 . S
C1984 H1998 0.961 . S
C1985 C1982 1.539 . S
C1985 H1999 0.958 . S
C1985 H2000 0.961 . S
C1985 H2001 0.960 . S
H1986 C1970 0.931 . S
H1987 C1975 0.929 . S
H1988 C1976 0.960 . S
H1989 C1976 0.962 . S
H1990 C1976 0.960 . S
H1991 C1977 0.961 . S
H1992 C1977 0.961 . S
H1993 C1977 0.961 . S
H1994 C1978 0.931 . S
H1995 C1983 0.930 . S
H1996 C1984 0.956 . S
H1997 C1984 0.961 . S
H1998 C1984 0.961 . S
H1999 C1985 0.958 . S
H2000 C1985 0.961 . S
H2001 C1985 0.960 . S
C2002 C2003 1.391 . S
C2002 C2004 1.394 . S
C2002 H2018 0.931 . S
C2003 C2002 1.391 . S
C2003 C2007 1.376 . S
C2004 C2002 1.394 . S
C2004 C2005 1.369 . S
C2004 C2008 1.531 . S
C2005 C2004 1.369 . S
C2005 C2006 1.410 . S
C2005 C2013 1.503 . S
C2006 C2005 1.410 . S
C2006 C2007 1.392 . S
C2006 C2009 1.511 . S
C2007 C2003 1.376 . S
C2007 C2006 1.392 . S
C2007 H2019 0.929 . S
C2008 C2004 1.531 . S
C2008 H2020 0.960 . S
C2008 H2021 0.962 . S
C2008 H2022 0.960 . S
C2009 C2006 1.511 . S
C2009 H2023 0.961 . S
C2009 H2024 0.961 . S
C2009 H2025 0.961 . S
C2010 C2011 1.370 . S
C2010 C2012 1.363 . S
C2010 H2026 0.931 . S
C2011 C2010 1.370 . S
C2011 C2015 1.408 . S
C2012 C2010 1.363 . S
C2012 C2013 1.370 . S
C2012 C2016 1.524 . S
C2013 C2005 1.503 . S
C2013 C2012 1.370 . S
C2013 C2014 1.403 . S
C2014 C2013 1.403 . S
C2014 C2015 1.404 . S
C2014 C2017 1.539 . S
C2015 C2011 1.408 . S
C2015 C2014 1.404 . S
C2015 H2027 0.930 . S
C2016 C2012 1.524 . S
C2016 H2028 0.956 . S
C2016 H2029 0.961 . S
C2016 H2030 0.961 . S
C2017 C2014 1.539 . S
C2017 H2031 0.958 . S
C2017 H2032 0.961 . S
C2017 H2033 0.960 . S
H2018 C2002 0.931 . S
H2019 C2007 0.929 . S
H2020 C2008 0.960 . S
H2021 C2008 0.962 . S
H2022 C2008 0.960 . S
H2023 C2009 0.961 . S
H2024 C2009 0.961 . S
H2025 C2009 0.961 . S
H2026 C2010 0.931 . S
H2027 C2015 0.930 . S
H2028 C2016 0.956 . S
H2029 C2016 0.961 . S
H2030 C2016 0.961 . S
H2031 C2017 0.958 . S
H2032 C2017 0.961 . S
H2033 C2017 0.960 . S
C2034 C2035 1.391 . S
C2034 C2036 1.394 . S
C2034 H2050 0.931 . S
C2035 C2034 1.391 . S
C2035 C2039 1.376 . S
C2036 C2034 1.394 . S
C2036 C2037 1.369 . S
C2036 C2040 1.531 . S
C2037 C2036 1.369 . S
C2037 C2038 1.410 . S
C2037 C2045 1.503 . S
C2038 C2037 1.410 . S
C2038 C2039 1.392 . S
C2038 C2041 1.511 . S
C2039 C2035 1.376 . S
C2039 C2038 1.392 . S
C2039 H2051 0.929 . S
C2040 C2036 1.531 . S
C2040 H2052 0.960 . S
C2040 H2053 0.962 . S
C2040 H2054 0.960 . S
C2041 C2038 1.511 . S
C2041 H2055 0.961 . S
C2041 H2056 0.961 . S
C2041 H2057 0.961 . S
C2042 C2043 1.370 . S
C2042 C2044 1.363 . S
C2042 H2058 0.931 . S
C2043 C2042 1.370 . S
C2043 C2047 1.408 . S
C2044 C2042 1.363 . S
C2044 C2045 1.370 . S
C2044 C2048 1.524 . S
C2045 C2037 1.503 . S
C2045 C2044 1.370 . S
C2045 C2046 1.403 . S
C2046 C2045 1.403 . S
C2046 C2047 1.404 . S
C2046 C2049 1.539 . S
C2047 C2043 1.408 . S
C2047 C2046 1.404 . S
C2047 H2059 0.930 . S
C2048 C2044 1.524 . S
C2048 H2060 0.956 . S
C2048 H2061 0.961 . S
C2048 H2062 0.961 . S
C2049 C2046 1.539 . S
C2049 H2063 0.958 . S
C2049 H2064 0.961 . S
C2049 H2065 0.960 . S
H2050 C2034 0.931 . S
H2051 C2039 0.929 . S
H2052 C2040 0.960 . S
H2053 C2040 0.962 . S
H2054 C2040 0.960 . S
H2055 C2041 0.961 . S
H2056 C2041 0.961 . S
H2057 C2041 0.961 . S
H2058 C2042 0.931 . S
H2059 C2047 0.930 . S
H2060 C2048 0.956 . S
H2061 C2048 0.961 . S
H2062 C2048 0.961 . S
H2063 C2049 0.958 . S
H2064 C2049 0.961 . S
H2065 C2049 0.960 . S
C2066 C2067 1.391 . S
C2066 C2068 1.394 . S
C2066 H2082 0.931 . S
C2067 C2066 1.391 . S
C2067 C2071 1.376 . S
C2068 C2066 1.394 . S
C2068 C2069 1.369 . S
C2068 C2072 1.531 . S
C2069 C2068 1.369 . S
C2069 C2070 1.410 . S
C2069 C2077 1.503 . S
C2070 C2069 1.410 . S
C2070 C2071 1.392 . S
C2070 C2073 1.511 . S
C2071 C2067 1.376 . S
C2071 C2070 1.392 . S
C2071 H2083 0.929 . S
C2072 C2068 1.531 . S
C2072 H2084 0.960 . S
C2072 H2085 0.962 . S
C2072 H2086 0.960 . S
C2073 C2070 1.511 . S
C2073 H2087 0.961 . S
C2073 H2088 0.961 . S
C2073 H2089 0.961 . S
C2074 C2075 1.370 . S
C2074 C2076 1.363 . S
C2074 H2090 0.931 . S
C2075 C2074 1.370 . S
C2075 C2079 1.408 . S
C2076 C2074 1.363 . S
C2076 C2077 1.370 . S
C2076 C2080 1.524 . S
C2077 C2069 1.503 . S
C2077 C2076 1.370 . S
C2077 C2078 1.403 . S
C2078 C2077 1.403 . S
C2078 C2079 1.404 . S
C2078 C2081 1.539 . S
C2079 C2075 1.408 . S
C2079 C2078 1.404 . S
C2079 H2091 0.930 . S
C2080 C2076 1.524 . S
C2080 H2092 0.956 . S
C2080 H2093 0.961 . S
C2080 H2094 0.961 . S
C2081 C2078 1.539 . S
C2081 H2095 0.958 . S
C2081 H2096 0.961 . S
C2081 H2097 0.960 . S
H2082 C2066 0.931 . S
H2083 C2071 0.929 . S
H2084 C2072 0.960 . S
H2085 C2072 0.962 . S
H2086 C2072 0.960 . S
H2087 C2073 0.961 . S
H2088 C2073 0.961 . S
H2089 C2073 0.961 . S
H2090 C2074 0.931 . S
H2091 C2079 0.930 . S
H2092 C2080 0.956 . S
H2093 C2080 0.961 . S
H2094 C2080 0.961 . S
H2095 C2081 0.958 . S
H2096 C2081 0.961 . S
H2097 C2081 0.960 . S
C2098 C2099 1.391 . S
C2098 C2100 1.394 . S
C2098 H2114 0.931 . S
C2099 C2098 1.391 . S
C2099 C2103 1.376 . S
C2100 C2098 1.394 . S
C2100 C2101 1.369 . S
C2100 C2104 1.531 . S
C2101 C2100 1.369 . S
C2101 C2102 1.410 . S
C2101 C2109 1.503 . S
C2102 C2101 1.410 . S
C2102 C2103 1.392 . S
C2102 C2105 1.511 . S
C2103 C2099 1.376 . S
C2103 C2102 1.392 . S
C2103 H2115 0.929 . S
C2104 C2100 1.531 . S
C2104 H2116 0.960 . S
C2104 H2117 0.962 . S
C2104 H2118 0.960 . S
C2105 C2102 1.511 . S
C2105 H2119 0.961 . S
C2105 H2120 0.961 . S
C2105 H2121 0.961 . S
C2106 C2107 1.370 . S
C2106 C2108 1.363 . S
C2106 H2122 0.931 . S
C2107 C2106 1.370 . S
C2107 C2111 1.408 . S
C2108 C2106 1.363 . S
C2108 C2109 1.370 . S
C2108 C2112 1.524 . S
C2109 C2101 1.503 . S
C2109 C2108 1.370 . S
C2109 C2110 1.403 . S
C2110 C2109 1.403 . S
C2110 C2111 1.404 . S
C2110 C2113 1.539 . S
C2111 C2107 1.408 . S
C2111 C2110 1.404 . S
C2111 H2123 0.930 . S
C2112 C2108 1.524 . S
C2112 H2124 0.956 . S
C2112 H2125 0.961 . S
C2112 H2126 0.961 . S
C2113 C2110 1.539 . S
C2113 H2127 0.958 . S
C2113 H2128 0.961 . S
C2113 H2129 0.960 . S
H2114 C2098 0.931 . S
H2115 C2103 0.929 . S
H2116 C2104 0.960 . S
H2117 C2104 0.962 . S
H2118 C2104 0.960 . S
H2119 C2105 0.961 . S
H2120 C2105 0.961 . S
H2121 C2105 0.961 . S
H2122 C2106 0.931 . S
H2123 C2111 0.930 . S
H2124 C2112 0.956 . S
H2125 C2112 0.961 . S
H2126 C2112 0.961 . S
H2127 C2113 0.958 . S
H2128 C2113 0.961 . S
H2129 C2113 0.960 . S
C2130 C2131 1.391 . S
C2130 C2132 1.394 . S
C2130 H2146 0.931 . S
C2131 C2130 1.391 . S
C2131 C2135 1.376 . S
C2132 C2130 1.394 . S
C2132 C2133 1.369 . S
C2132 C2136 1.531 . S
C2133 C2132 1.369 . S
C2133 C2134 1.410 . S
C2133 C2141 1.503 . S
C2134 C2133 1.410 . S
C2134 C2135 1.392 . S
C2134 C2137 1.511 . S
C2135 C2131 1.376 . S
C2135 C2134 1.392 . S
C2135 H2147 0.929 . S
C2136 C2132 1.531 . S
C2136 H2148 0.960 . S
C2136 H2149 0.962 . S
C2136 H2150 0.960 . S
C2137 C2134 1.511 . S
C2137 H2151 0.961 . S
C2137 H2152 0.961 . S
C2137 H2153 0.961 . S
C2138 C2139 1.370 . S
C2138 C2140 1.363 . S
C2138 H2154 0.931 . S
C2139 C2138 1.370 . S
C2139 C2143 1.408 . S
C2140 C2138 1.363 . S
C2140 C2141 1.370 . S
C2140 C2144 1.524 . S
C2141 C2133 1.503 . S
C2141 C2140 1.370 . S
C2141 C2142 1.403 . S
C2142 C2141 1.403 . S
C2142 C2143 1.404 . S
C2142 C2145 1.539 . S
C2143 C2139 1.408 . S
C2143 C2142 1.404 . S
C2143 H2155 0.930 . S
C2144 C2140 1.524 . S
C2144 H2156 0.956 . S
C2144 H2157 0.961 . S
C2144 H2158 0.961 . S
C2145 C2142 1.539 . S
C2145 H2159 0.958 . S
C2145 H2160 0.961 . S
C2145 H2161 0.960 . S
H2146 C2130 0.931 . S
H2147 C2135 0.929 . S
H2148 C2136 0.960 . S
H2149 C2136 0.962 . S
H2150 C2136 0.960 . S
H2151 C2137 0.961 . S
H2152 C2137 0.961 . S
H2153 C2137 0.961 . S
H2154 C2138 0.931 . S
H2155 C2143 0.930 . S
H2156 C2144 0.956 . S
H2157 C2144 0.961 . S
H2158 C2144 0.961 . S
H2159 C2145 0.958 . S
H2160 C2145 0.961 . S
H2161 C2145 0.960 . S
C2162 C2163 1.391 . S
C2162 C2164 1.394 . S
C2162 H2178 0.931 . S
C2163 C2162 1.391 . S
C2163 C2167 1.376 . S
C2164 C2162 1.394 . S
C2164 C2165 1.369 . S
C2164 C2168 1.531 . S
C2165 C2164 1.369 . S
C2165 C2166 1.410 . S
C2165 C2173 1.503 . S
C2166 C2165 1.410 . S
C2166 C2167 1.392 . S
C2166 C2169 1.511 . S
C2167 C2163 1.376 . S
C2167 C2166 1.392 . S
C2167 H2179 0.929 . S
C2168 C2164 1.531 . S
C2168 H2180 0.960 . S
C2168 H2181 0.962 . S
C2168 H2182 0.960 . S
C2169 C2166 1.511 . S
C2169 H2183 0.961 . S
C2169 H2184 0.961 . S
C2169 H2185 0.961 . S
C2170 C2171 1.370 . S
C2170 C2172 1.363 . S
C2170 H2186 0.931 . S
C2171 C2170 1.370 . S
C2171 C2175 1.408 . S
C2172 C2170 1.363 . S
C2172 C2173 1.370 . S
C2172 C2176 1.524 . S
C2173 C2165 1.503 . S
C2173 C2172 1.370 . S
C2173 C2174 1.403 . S
C2174 C2173 1.403 . S
C2174 C2175 1.404 . S
C2174 C2177 1.539 . S
C2175 C2171 1.408 . S
C2175 C2174 1.404 . S
C2175 H2187 0.930 . S
C2176 C2172 1.524 . S
C2176 H2188 0.956 . S
C2176 H2189 0.961 . S
C2176 H2190 0.961 . S
C2177 C2174 1.539 . S
C2177 H2191 0.958 . S
C2177 H2192 0.961 . S
C2177 H2193 0.960 . S
H2178 C2162 0.931 . S
H2179 C2167 0.929 . S
H2180 C2168 0.960 . S
H2181 C2168 0.962 . S
H2182 C2168 0.960 . S
H2183 C2169 0.961 . S
H2184 C2169 0.961 . S
H2185 C2169 0.961 . S
H2186 C2170 0.931 . S
H2187 C2175 0.930 . S
H2188 C2176 0.956 . S
H2189 C2176 0.961 . S
H2190 C2176 0.961 . S
H2191 C2177 0.958 . S
H2192 C2177 0.961 . S
H2193 C2177 0.960 . S
C2194 C2195 1.391 . S
C2194 C2196 1.394 . S
C2194 H2210 0.931 . S
C2195 C2194 1.391 . S
C2195 C2199 1.376 . S
C2196 C2194 1.394 . S
C2196 C2197 1.369 . S
C2196 C2200 1.531 . S
C2197 C2196 1.369 . S
C2197 C2198 1.410 . S
C2197 C2205 1.503 . S
C2198 C2197 1.410 . S
C2198 C2199 1.392 . S
C2198 C2201 1.511 . S
C2199 C2195 1.376 . S
C2199 C2198 1.392 . S
C2199 H2211 0.929 . S
C2200 C2196 1.531 . S
C2200 H2212 0.960 . S
C2200 H2213 0.962 . S
C2200 H2214 0.960 . S
C2201 C2198 1.511 . S
C2201 H2215 0.961 . S
C2201 H2216 0.961 . S
C2201 H2217 0.961 . S
C2202 C2203 1.370 . S
C2202 C2204 1.363 . S
C2202 H2218 0.931 . S
C2203 C2202 1.370 . S
C2203 C2207 1.408 . S
C2204 C2202 1.363 . S
C2204 C2205 1.370 . S
C2204 C2208 1.524 . S
C2205 C2197 1.503 . S
C2205 C2204 1.370 . S
C2205 C2206 1.403 . S
C2206 C2205 1.403 . S
C2206 C2207 1.404 . S
C2206 C2209 1.539 . S
C2207 C2203 1.408 . S
C2207 C2206 1.404 . S
C2207 H2219 0.930 . S
C2208 C2204 1.524 . S
C2208 H2220 0.956 . S
C2208 H2221 0.961 . S
C2208 H2222 0.961 . S
C2209 C2206 1.539 . S
C2209 H2223 0.958 . S
C2209 H2224 0.961 . S
C2209 H2225 0.960 . S
H2210 C2194 0.931 . S
H2211 C2199 0.929 . S
H2212 C2200 0.960 . S
H2213 C2200 0.962 . S
H2214 C2200 0.960 . S
H2215 C2201 0.961 . S
H2216 C2201 0.961 . S
H2217 C2201 0.961 . S
H2218 C2202 0.931 . S
H2219 C2207 0.930 . S
H2220 C2208 0.956 . S
H2221 C2208 0.961 . S
H2222 C2208 0.961 . S
H2223 C2209 0.958 . S
H2224 C2209 0.961 . S
H2225 C2209 0.960 . S
C2226 C2227 1.391 . S
C2226 C2228 1.394 . S
C2226 H2242 0.931 . S
C2227 C2226 1.391 . S
C2227 C2231 1.376 . S
C2228 C2226 1.394 . S
C2228 C2229 1.369 . S
C2228 C2232 1.531 . S
C2229 C2228 1.369 . S
C2229 C2230 1.410 . S
C2229 C2237 1.503 . S
C2230 C2229 1.410 . S
C2230 C2231 1.392 . S
C2230 C2233 1.511 . S
C2231 C2227 1.376 . S
C2231 C2230 1.392 . S
C2231 H2243 0.929 . S
C2232 C2228 1.531 . S
C2232 H2244 0.960 . S
C2232 H2245 0.962 . S
C2232 H2246 0.960 . S
C2233 C2230 1.511 . S
C2233 H2247 0.961 . S
C2233 H2248 0.961 . S
C2233 H2249 0.961 . S
C2234 C2235 1.370 . S
C2234 C2236 1.363 . S
C2234 H2250 0.931 . S
C2235 C2234 1.370 . S
C2235 C2239 1.408 . S
C2236 C2234 1.363 . S
C2236 C2237 1.370 . S
C2236 C2240 1.524 . S
C2237 C2229 1.503 . S
C2237 C2236 1.370 . S
C2237 C2238 1.403 . S
C2238 C2237 1.403 . S
C2238 C2239 1.404 . S
C2238 C2241 1.539 . S
C2239 C2235 1.408 . S
C2239 C2238 1.404 . S
C2239 H2251 0.930 . S
C2240 C2236 1.524 . S
C2240 H2252 0.956 . S
C2240 H2253 0.961 . S
C2240 H2254 0.961 . S
C2241 C2238 1.539 . S
C2241 H2255 0.958 . S
C2241 H2256 0.961 . S
C2241 H2257 0.960 . S
H2242 C2226 0.931 . S
H2243 C2231 0.929 . S
H2244 C2232 0.960 . S
H2245 C2232 0.962 . S
H2246 C2232 0.960 . S
H2247 C2233 0.961 . S
H2248 C2233 0.961 . S
H2249 C2233 0.961 . S
H2250 C2234 0.931 . S
H2251 C2239 0.930 . S
H2252 C2240 0.956 . S
H2253 C2240 0.961 . S
H2254 C2240 0.961 . S
H2255 C2241 0.958 . S
H2256 C2241 0.961 . S
H2257 C2241 0.960 . S
C2258 C2259 1.391 . S
C2258 C2260 1.394 . S
C2258 H2274 0.931 . S
C2259 C2258 1.391 . S
C2259 C2263 1.376 . S
C2260 C2258 1.394 . S
C2260 C2261 1.369 . S
C2260 C2264 1.531 . S
C2261 C2260 1.369 . S
C2261 C2262 1.410 . S
C2261 C2269 1.503 . S
C2262 C2261 1.410 . S
C2262 C2263 1.392 . S
C2262 C2265 1.511 . S
C2263 C2259 1.376 . S
C2263 C2262 1.392 . S
C2263 H2275 0.929 . S
C2264 C2260 1.531 . S
C2264 H2276 0.960 . S
C2264 H2277 0.962 . S
C2264 H2278 0.960 . S
C2265 C2262 1.511 . S
C2265 H2279 0.961 . S
C2265 H2280 0.961 . S
C2265 H2281 0.961 . S
C2266 C2267 1.370 . S
C2266 C2268 1.363 . S
C2266 H2282 0.931 . S
C2267 C2266 1.370 . S
C2267 C2271 1.408 . S
C2268 C2266 1.363 . S
C2268 C2269 1.370 . S
C2268 C2272 1.524 . S
C2269 C2261 1.503 . S
C2269 C2268 1.370 . S
C2269 C2270 1.403 . S
C2270 C2269 1.403 . S
C2270 C2271 1.404 . S
C2270 C2273 1.539 . S
C2271 C2267 1.408 . S
C2271 C2270 1.404 . S
C2271 H2283 0.930 . S
C2272 C2268 1.524 . S
C2272 H2284 0.956 . S
C2272 H2285 0.961 . S
C2272 H2286 0.961 . S
C2273 C2270 1.539 . S
C2273 H2287 0.958 . S
C2273 H2288 0.961 . S
C2273 H2289 0.960 . S
H2274 C2258 0.931 . S
H2275 C2263 0.929 . S
H2276 C2264 0.960 . S
H2277 C2264 0.962 . S
H2278 C2264 0.960 . S
H2279 C2265 0.961 . S
H2280 C2265 0.961 . S
H2281 C2265 0.961 . S
H2282 C2266 0.931 . S
H2283 C2271 0.930 . S
H2284 C2272 0.956 . S
H2285 C2272 0.961 . S
H2286 C2272 0.961 . S
H2287 C2273 0.958 . S
H2288 C2273 0.961 . S
H2289 C2273 0.960 . S
C2290 C2291 1.391 . S
C2290 C2292 1.394 . S
C2290 H2306 0.931 . S
C2291 C2290 1.391 . S
C2291 C2295 1.376 . S
C2292 C2290 1.394 . S
C2292 C2293 1.369 . S
C2292 C2296 1.531 . S
C2293 C2292 1.369 . S
C2293 C2294 1.410 . S
C2293 C2301 1.503 . S
C2294 C2293 1.410 . S
C2294 C2295 1.392 . S
C2294 C2297 1.511 . S
C2295 C2291 1.376 . S
C2295 C2294 1.392 . S
C2295 H2307 0.929 . S
C2296 C2292 1.531 . S
C2296 H2308 0.960 . S
C2296 H2309 0.962 . S
C2296 H2310 0.960 . S
C2297 C2294 1.511 . S
C2297 H2311 0.961 . S
C2297 H2312 0.961 . S
C2297 H2313 0.961 . S
C2298 C2299 1.370 . S
C2298 C2300 1.363 . S
C2298 H2314 0.931 . S
C2299 C2298 1.370 . S
C2299 C2303 1.408 . S
C2300 C2298 1.363 . S
C2300 C2301 1.370 . S
C2300 C2304 1.524 . S
C2301 C2293 1.503 . S
C2301 C2300 1.370 . S
C2301 C2302 1.403 . S
C2302 C2301 1.403 . S
C2302 C2303 1.404 . S
C2302 C2305 1.539 . S
C2303 C2299 1.408 . S
C2303 C2302 1.404 . S
C2303 H2315 0.930 . S
C2304 C2300 1.524 . S
C2304 H2316 0.956 . S
C2304 H2317 0.961 . S
C2304 H2318 0.961 . S
C2305 C2302 1.539 . S
C2305 H2319 0.958 . S
C2305 H2320 0.961 . S
C2305 H2321 0.960 . S
H2306 C2290 0.931 . S
H2307 C2295 0.929 . S
H2308 C2296 0.960 . S
H2309 C2296 0.962 . S
H2310 C2296 0.960 . S
H2311 C2297 0.961 . S
H2312 C2297 0.961 . S
H2313 C2297 0.961 . S
H2314 C2298 0.931 . S
H2315 C2303 0.930 . S
H2316 C2304 0.956 . S
H2317 C2304 0.961 . S
H2318 C2304 0.961 . S
H2319 C2305 0.958 . S
H2320 C2305 0.961 . S
H2321 C2305 0.960 . S
C595 C177 1.665 . S
C603 C243 1.651 . S
C627 C190 1.771 . S
C635 C283 1.775 . S
C659 C164 1.609 . S
C667 C322 1.564 . S
C691 C151 1.459 . S
C699 C282 1.448 1_556 S
C731 C323 1.499 . S
C723 C125 1.495 . S
C755 C138 1.342 . S
C763 C242 1.330 1_556 S
C795 C253 1.628 . S
C787 C147 1.598 . S
C827 C293 1.633 . S
C819 C121 1.583 . S
C851 C134 1.573 . S
C859 C332 1.674 . S
C883 C173 1.501 . S
C891 C292 1.492 . S
C915 C186 1.412 . S
C923 C333 1.429 . S
C955 C252 1.467 . S
C947 C160 1.467 . S
C987 C363 1.662 . S
C979 C21 1.642 . S
C1011 C34 1.775 . S
C1019 C403 1.771 . S
C1043 C8 1.608 . S
C1051 C442 1.565 . S
C1075 C229 1.467 . S
C1083 C402 1.430 . S
C1107 C203 1.501 . S
C1115 C443 1.495 . S
C1139 C216 1.363 . S
C1147 C362 1.333 . S
C1171 C225 1.649 . S
C1179 C373 1.633 . S
C1203 C199 1.634 . S
C1211 C413 1.637 . S
C1243 C452 1.653 . S
C1235 C212 1.644 . S
C1267 C17 1.430 . S
C1275 C412 1.513 . S
C1307 C453 1.438 . S
C1299 C30 1.457 . S
C1331 C4 1.402 . S
C1339 C372 1.483 . S
C1371 C483 1.656 . S
C1363 C99 1.652 . S
C1395 C112 1.770 . S
C1403 C523 1.775 . S
C1435 C562 1.564 . S
C1427 C86 1.610 . S
C1467 C522 1.436 . S
C1459 C73 1.491 . S
C1499 C563 1.494 . S
C1491 C47 1.502 . S
C1523 C60 1.377 . S
C1531 C482 1.339 . S
C1555 C69 1.599 . S
C1563 C493 1.624 . S
C1587 C43 1.613 . S
C1595 C533 1.649 . S
C1627 C572 1.653 . S
C1619 C56 1.642 . S
C1651 C95 1.454 . S
C1659 C532 1.509 . S
C1683 C108 1.411 . S
C1691 C573 1.440 . S
C1715 C82 1.469 . S
C1723 C492 1.467 . S
C1747 C204 1.504 . S
C1755 C239 1.481 . S
C1787 C279 1.920 . S
C1779 C217 1.924 . S
C1811 C230 1.535 . S
C1819 C329 1.577 . S
C1843 C87 1.769 . S
C1851 C289 1.781 . S
C1875 C100 1.673 . S
C1883 C319 1.676 . S
C1915 C249 1.322 . S
C1907 C113 1.320 . S
C1939 C48 1.490 . S
C1947 C359 1.488 . S
C1971 C61 1.902 . S
C1979 C399 1.929 . S
C2003 C74 1.564 . S
C2011 C449 1.571 . S
C2035 C165 1.774 . S
C2043 C409 1.780 . S
C2075 C439 1.678 . S
C2067 C178 1.664 . S
C2099 C191 1.295 . S
C2107 C369 1.324 . S
C2131 C126 1.482 . S
C2139 C479 1.493 . S
C2163 C139 1.914 . S
C2171 C519 1.923 . S
C2203 C569 1.578 . S
C2195 C152 1.534 . S
C2227 C9 1.767 . S
C2235 C529 1.778 . S
C2259 C22 1.670 . S
C2267 C559 1.677 . S
C2291 C35 1.320 . S
C2299 C489 1.322 . S
