# Generated by pormake.
# Topology pyr, (3,6)-cn, num edge types: 1
# Building blocks:
#     Node 0, Type 0, BuildingBlock: QEWDON_clean_linker_0, # of connection points: 3
#     Node 1, Type 0, BuildingBlock: QEWDON_clean_linker_0, # of connection points: 3
#     Node 2, Type 0, BuildingBlock: QEWDON_clean_linker_0, # of connection points: 3
#     Node 3, Type 0, BuildingBlock: QEWDON_clean_linker_0, # of connection points: 3
#     Node 4, Type 0, BuildingBlock: QEWDON_clean_linker_0, # of connection points: 3
#     Node 5, Type 0, BuildingBlock: QEWDON_clean_linker_0, # of connection points: 3
#     Node 6, Type 0, BuildingBlock: QEWDON_clean_linker_0, # of connection points: 3
#     Node 7, Type 0, BuildingBlock: QEWDON_clean_linker_0, # of connection points: 3
#     Node 8, Type 1, BuildingBlock: BETDEL_clean_sbu_0, # of connection points: 6
#     Node 9, Type 1, BuildingBlock: BETDEL_clean_sbu_0, # of connection points: 6
#     Node 10, Type 1, BuildingBlock: BETDEL_clean_sbu_0, # of connection points: 6
#     Node 11, Type 1, BuildingBlock: BETDEL_clean_sbu_0, # of connection points: 6
#     Edge 12, Type (0, 1), BuildingBlock: CIFDUS_clean_linker_0, # of connection points: 2
#     Edge 13, Type (0, 1), BuildingBlock: CIFDUS_clean_linker_0, # of connection points: 2
#     Edge 14, Type (0, 1), BuildingBlock: CIFDUS_clean_linker_0, # of connection points: 2
#     Edge 15, Type (0, 1), BuildingBlock: CIFDUS_clean_linker_0, # of connection points: 2
#     Edge 16, Type (0, 1), BuildingBlock: CIFDUS_clean_linker_0, # of connection points: 2
#     Edge 17, Type (0, 1), BuildingBlock: CIFDUS_clean_linker_0, # of connection points: 2
#     Edge 18, Type (0, 1), BuildingBlock: CIFDUS_clean_linker_0, # of connection points: 2
#     Edge 19, Type (0, 1), BuildingBlock: CIFDUS_clean_linker_0, # of connection points: 2
#     Edge 20, Type (0, 1), BuildingBlock: CIFDUS_clean_linker_0, # of connection points: 2
#     Edge 21, Type (0, 1), BuildingBlock: CIFDUS_clean_linker_0, # of connection points: 2
#     Edge 22, Type (0, 1), BuildingBlock: CIFDUS_clean_linker_0, # of connection points: 2
#     Edge 23, Type (0, 1), BuildingBlock: CIFDUS_clean_linker_0, # of connection points: 2
#     Edge 24, Type (0, 1), BuildingBlock: CIFDUS_clean_linker_0, # of connection points: 2
#     Edge 25, Type (0, 1), BuildingBlock: CIFDUS_clean_linker_0, # of connection points: 2
#     Edge 26, Type (0, 1), BuildingBlock: CIFDUS_clean_linker_0, # of connection points: 2
#     Edge 27, Type (0, 1), BuildingBlock: CIFDUS_clean_linker_0, # of connection points: 2
#     Edge 28, Type (0, 1), BuildingBlock: CIFDUS_clean_linker_0, # of connection points: 2
#     Edge 29, Type (0, 1), BuildingBlock: CIFDUS_clean_linker_0, # of connection points: 2
#     Edge 30, Type (0, 1), BuildingBlock: CIFDUS_clean_linker_0, # of connection points: 2
#     Edge 31, Type (0, 1), BuildingBlock: CIFDUS_clean_linker_0, # of connection points: 2
#     Edge 32, Type (0, 1), BuildingBlock: CIFDUS_clean_linker_0, # of connection points: 2
#     Edge 33, Type (0, 1), BuildingBlock: CIFDUS_clean_linker_0, # of connection points: 2
#     Edge 34, Type (0, 1), BuildingBlock: CIFDUS_clean_linker_0, # of connection points: 2
#     Edge 35, Type (0, 1), BuildingBlock: CIFDUS_clean_linker_0, # of connection points: 2
# Relax obj value: 0.123
# Max RMSD: 0.262
# Mean RMSD: 0.189
data_MOF--net-pyr--node1-BETDEL_clean_sbu_0--node2-QEWDON_clean_linker_0--edge1-CIFDUS_clean_linker_0
_symmetry_space_group_name_H-M    P1
_symmetry_Int_Tables_number       1
_symmetry_cell_setting            triclinic
loop_
_symmetry_equiv_pos_as_xyz
'x, y, z'
_cell_length_a     32.096851
_cell_length_b     33.982805
_cell_length_c     33.208731
_cell_angle_alpha  92.232839
_cell_angle_beta   89.781062
_cell_angle_gamma 105.34622
loop_
_atom_site_label
_atom_site_type_symbol
_atom_site_fract_x
_atom_site_fract_y
_atom_site_fract_z
_atom_type_partial_charge
H0 H 0.28699 0.22706 0.16488 0.0
C1 C 0.2673 0.21429 0.19025 0.0
C2 C 0.26961 0.17657 0.20422 0.0
C3 C 0.24059 0.23611 0.20909 0.0
H4 H 0.24714 0.13163 0.24879 0.0
C5 C 0.24453 0.16031 0.23726 0.0
C6 C 0.2179 0.18185 0.25687 0.0
C7 C 0.21529 0.21941 0.24205 0.0
C8 C 0.24276 0.27789 0.19619 0.0
H9 H 0.19586 0.23677 0.25768 0.0
C10 C 0.20514 0.28989 0.18722 0.0
C11 C 0.20857 0.32858 0.17168 0.0
C12 C 0.28344 0.30561 0.19113 0.0
H13 H 0.31283 0.29734 0.19837 0.0
C14 C 0.28672 0.34419 0.17655 0.0
H15 H 0.17359 0.26877 0.1907 0.0
C16 C 0.24956 0.35552 0.16651 0.0
H17 H 0.25275 0.38549 0.15478 0.0
H18 H 0.31818 0.36522 0.17265 0.0
H19 H 0.28331 0.89734 0.79093 0.0
C20 C 0.30315 0.88213 0.77292 0.0
C21 C 0.34485 0.88309 0.78626 0.0
C22 C 0.28647 0.86133 0.73678 0.0
H23 H 0.40143 0.86206 0.77407 0.0
C24 C 0.36987 0.86251 0.76297 0.0
C25 C 0.35337 0.84059 0.72687 0.0
C26 C 0.31159 0.84075 0.71382 0.0
C27 C 0.24071 0.85703 0.72626 0.0
H28 H 0.29808 0.82416 0.68631 0.0
C29 C 0.22867 0.88187 0.69784 0.0
C30 C 0.18461 0.87979 0.69169 0.0
C31 C 0.2086 0.82952 0.74745 0.0
H32 H 0.21733 0.81038 0.76954 0.0
C33 C 0.16507 0.82689 0.74083 0.0
H34 H 0.25334 0.90358 0.68177 0.0
C35 C 0.1531 0.85203 0.7134 0.0
H36 H 0.11909 0.84971 0.70897 0.0
H37 H 0.14051 0.80562 0.75738 0.0
H38 H 0.66745 0.47126 0.93069 0.0
C39 C 0.65471 0.44209 0.94434 0.0
C40 C 0.68173 0.42552 0.968 0.0
C41 C 0.6108 0.42178 0.9393 0.0
H42 H 0.68415 0.37607 1.00604 0.0
C43 C 0.66416 0.38801 0.9862 0.0
C44 C 0.62056 0.3667 0.98048 0.0
C45 C 0.59435 0.38382 0.95659 0.0
C46 C 0.58083 0.4414 0.91911 0.0
H47 H 0.56076 0.36771 0.95135 0.0
C48 C 0.58939 0.45742 0.88052 0.0
C49 C 0.56003 0.47566 0.86207 0.0
C50 C 0.54291 0.44403 0.93909 0.0
H51 H 0.53581 0.43227 0.96892 0.0
C52 C 0.51397 0.46215 0.92104 0.0
H53 H 0.61853 0.45546 0.86489 0.0
C54 C 0.52232 0.47778 0.88283 0.0
H55 H 0.49878 0.49094 0.86918 0.0
H56 H 0.48481 0.46391 0.93666 0.0
H57 H 0.87508 0.76774 0.34959 0.0
C58 C 0.8528 0.74895 0.37018 0.0
C59 C 0.85287 0.76091 0.41115 0.0
C60 C 0.82212 0.71415 0.35487 0.0
H61 H 0.82454 0.74411 0.46884 0.0
C62 C 0.82285 0.73627 0.43689 0.0
C63 C 0.78992 0.70278 0.42176 0.0
C64 C 0.79027 0.69178 0.38038 0.0
C65 C 0.81994 0.70468 0.31106 0.0
H66 H 0.76488 0.667 0.36733 0.0
C67 C 0.84425 0.67984 0.29314 0.0
C68 C 0.84375 0.67321 0.25094 0.0
C69 C 0.79464 0.72227 0.28679 0.0
H70 H 0.77586 0.74154 0.30018 0.0
C71 C 0.79384 0.71555 0.24506 0.0
H72 H 0.86407 0.66646 0.31184 0.0
C73 C 0.81837 0.69139 0.22717 0.0
H74 H 0.81717 0.68652 0.19471 0.0
H75 H 0.77431 0.72929 0.22649 0.0
H76 H 0.82517 0.80942 0.95293 0.0
C77 C 0.84241 0.82869 0.92967 0.0
C78 C 0.87972 0.8212 0.91285 0.0
C79 C 0.82632 0.86029 0.91643 0.0
H80 H 0.92858 0.83851 0.86789 0.0
C81 C 0.90127 0.84611 0.88229 0.0
C82 C 0.88621 0.87897 0.86897 0.0
C83 C 0.84902 0.88631 0.88738 0.0
C84 C 0.78298 0.86234 0.9297 0.0
H85 H 0.83645 0.91121 0.87834 0.0
C86 C 0.7761 0.89789 0.94841 0.0
C87 C 0.73443 0.8982 0.9612 0.0
C88 C 0.748 0.82753 0.92381 0.0
H89 H 0.75267 0.79991 0.90928 0.0
C90 C 0.70668 0.82809 0.93626 0.0
H91 H 0.80284 0.92486 0.9532 0.0
C92 C 0.69985 0.86325 0.95485 0.0
H93 H 0.66753 0.86324 0.96442 0.0
H94 H 0.67991 0.80122 0.93149 0.0
H95 H 0.77042 0.21209 0.50204 0.0
C96 C 0.76268 0.20977 0.47011 0.0
C97 C 0.78105 0.18517 0.44452 0.0
C98 C 0.73225 0.22899 0.4558 0.0
H99 H 0.78406 0.16204 0.38363 0.0
C100 C 0.77049 0.18161 0.40324 0.0
C101 C 0.7404 0.20114 0.38788 0.0
C102 C 0.72189 0.22513 0.41454 0.0
C103 C 0.70647 0.24696 0.48517 0.0
H104 H 0.6968 0.23818 0.40385 0.0
C105 C 0.69681 0.2846 0.47921 0.0
C106 C 0.67069 0.2994 0.50711 0.0
C107 C 0.68978 0.22483 0.51929 0.0
H108 H 0.69578 0.1955 0.52434 0.0
C109 C 0.6643 0.23963 0.54686 0.0
H110 H 0.70914 0.302 0.45305 0.0
C111 C 0.6547 0.27655 0.54082 0.0
H112 H 0.63472 0.28744 0.56266 0.0
H113 H 0.65163 0.22222 0.57287 0.0
H114 H 0.44421 0.76898 0.19877 0.0
C115 C 0.40997 0.75831 0.19191 0.0
C116 C 0.38894 0.7837 0.17234 0.0
C117 C 0.38716 0.71861 0.20136 0.0
H118 H 0.32928 0.78783 0.14539 0.0
C119 C 0.34494 0.76894 0.16215 0.0
C120 C 0.32221 0.72878 0.17048 0.0
C121 C 0.34342 0.70422 0.19099 0.0
C122 C 0.40982 0.68965 0.21642 0.0
H123 H 0.32636 0.6731 0.19756 0.0
C124 C 0.41737 0.6874 0.25784 0.0
C125 C 0.4356 0.6569 0.27183 0.0
C126 C 0.42086 0.6618 0.18892 0.0
H127 H 0.41476 0.66298 0.15697 0.0
C128 C 0.43899 0.63173 0.20245 0.0
H129 H 0.40875 0.70907 0.27889 0.0
C130 C 0.44602 0.62902 0.24352 0.0
H131 H 0.4589 0.60446 0.25308 0.0
H132 H 0.447 0.61002 0.18109 0.0
H133 H 0.25013 0.43494 0.75934 0.0
C134 C 0.23259 0.40995 0.73965 0.0
C135 C 0.24397 0.40757 0.69866 0.0
C136 C 0.20009 0.37885 0.75618 0.0
H137 H 0.23024 0.37033 0.64334 0.0
C138 C 0.22065 0.37397 0.67426 0.0
C139 C 0.18688 0.34333 0.69025 0.0
C140 C 0.17668 0.34654 0.7312 0.0
C141 C 0.19459 0.37635 0.80034 0.0
H142 H 0.15104 0.32319 0.74432 0.0
C143 C 0.18114 0.40623 0.82353 0.0
C144 C 0.17538 0.40232 0.86549 0.0
C145 C 0.20262 0.34285 0.81934 0.0
H146 H 0.21308 0.31956 0.802 0.0
C147 C 0.19749 0.33915 0.8608 0.0
H148 H 0.17485 0.43208 0.80894 0.0
C149 C 0.1839 0.36858 0.88378 0.0
H150 H 0.17921 0.36448 0.91582 0.0
H151 H 0.20371 0.3132 0.87515 0.0
Dy152 Dy 0.03808 0.06426 0.51677 0.0
C153 C 0.95816 1.00451 0.6699 0.0
C154 C 0.07428 0.09967 0.44816 0.0
Dy155 Dy 0.98481 0.03784 0.59795 0.0
O156 O 0.09556 0.09182 0.47869 0.0
O157 O 0.033 0.08828 0.45511 0.0
O158 O 0.07462 0.01721 0.52724 0.0
O159 O 0.0505 0.04479 0.57631 0.0
C160 C 0.06899 0.01755 0.56608 0.0
C161 C 0.94065 0.07313 0.54731 0.0
O162 O 0.03198 0.09587 0.61855 0.0
O163 O 0.05689 0.12219 0.55612 0.0
O164 O 0.9508 0.03776 0.65718 0.0
O165 O 0.98017 0.98936 0.64339 0.0
O166 O 0.92609 0.05939 0.58204 0.0
O167 O 0.97717 0.06654 0.54268 0.0
O168 O 0.99035 0.00607 0.49545 0.0
O169 O 0.96493 0.98133 0.55838 0.0
C170 C 0.05426 0.12575 0.59611 0.0
C171 C 0.96743 0.97717 0.51861 0.0
Dy172 Dy 0.56196 0.08485 0.11879 0.0
C173 C 0.46423 0.01974 0.97573 0.0
C174 C 0.62112 0.11181 0.17986 0.0
Dy175 Dy 0.50477 0.05763 0.04487 0.0
O176 O 0.60747 0.0744 0.16588 0.0
O177 O 0.60294 0.13513 0.15985 0.0
O178 O 0.51129 0.04339 0.15529 0.0
O179 O 0.52131 0.02552 0.09566 0.0
C180 C 0.49852 0.01605 0.12659 0.0
C181 C 0.54348 0.13787 0.05003 0.0
O182 O 0.45768 0.07255 0.0891 0.0
O183 O 0.51035 0.11755 0.12836 0.0
O184 O 0.45056 0.01057 0.0121 0.0
O185 O 0.49884 0.04986 0.97762 0.0
O186 O 0.50494 0.12228 0.03544 0.0
O187 O 0.56063 0.10994 0.05918 0.0
O188 O 0.60917 0.06342 0.07926 0.0
O189 O 0.56154 0.03548 0.02685 0.0
C190 C 0.46944 0.10255 0.11694 0.0
C191 C 0.60005 0.04339 0.04402 0.0
Dy192 Dy 0.52803 0.5465 0.55514 0.0
C193 C 0.45643 0.67572 0.61364 0.0
C194 C 0.56059 0.48258 0.53048 0.0
Dy195 Dy 0.5026 0.62212 0.58751 0.0
O196 O 0.52018 0.48238 0.53099 0.0
O197 O 0.58393 0.51816 0.54356 0.0
O198 O 0.45764 0.51723 0.54355 0.0
O199 O 0.47605 0.55665 0.59393 0.0
C200 C 0.44414 0.53481 0.57436 0.0
C201 C 0.58668 0.63571 0.56781 0.0
O202 O 0.51565 0.59639 0.64551 0.0
O203 O 0.55164 0.55019 0.61946 0.0
O204 O 0.49831 0.68341 0.61377 0.0
O205 O 0.43993 0.63901 0.59864 0.0
O206 O 0.57237 0.6564 0.59592 0.0
O207 O 0.55502 0.61184 0.54966 0.0
O208 O 0.5224 0.57609 0.49734 0.0
O209 O 0.4823 0.61945 0.52184 0.0
C210 C 0.53956 0.5705 0.65038 0.0
C211 C 0.498 0.60135 0.49132 0.0
Dy212 Dy 0.02168 0.51317 0.06571 0.0
C213 C 0.99006 0.6597 1.00373 0.0
C214 C 0.05248 0.4476 0.0811 0.0
Dy215 Dy 0.01304 0.59247 0.0276 0.0
O216 O 0.03515 0.4673 0.1078 0.0
O217 O 0.05198 0.46322 0.04614 0.0
O218 O 0.97445 0.51958 0.11435 0.0
O219 O 0.01397 0.57194 0.08847 0.0
C220 C 0.98271 0.55907 0.11184 0.0
C221 C 0.051 0.5462 0.98125 0.0
O222 O 0.07116 0.61736 0.06717 0.0
O223 O 0.0883 0.55557 0.07124 0.0
O224 O 0.02882 0.655 1.00202 0.0
O225 O 0.96393 0.62797 0.01903 0.0
O226 O 0.05794 0.58513 0.97724 0.0
O227 O 0.02007 0.5338 1.00483 0.0
O228 O 0.95858 0.48774 0.03437 0.0
O229 O 0.9457 0.55042 0.02119 0.0
C230 C 0.09907 0.59596 0.07494 0.0
C231 C 0.93284 0.50991 0.0225 0.0
H232 H 0.13363 0.17257 0.2784 0.0
H233 H 0.25522 0.15829 0.32143 0.0
H234 H 0.22176 0.13279 0.38466 0.0
H235 H 0.158 0.11345 0.42741 0.0
H236 H 0.03531 0.12502 0.38472 0.0
H237 H 0.06898 0.15285 0.32185 0.0
C238 C 0.15267 0.16398 0.30177 0.0
C239 C 0.19671 0.16698 0.29519 0.0
C240 C 0.13304 0.14888 0.33806 0.0
C241 C 0.22111 0.15566 0.32559 0.0
C242 C 0.20207 0.14126 0.36182 0.0
C243 C 0.13867 0.12221 0.40439 0.0
C244 C 0.09435 0.11731 0.41059 0.0
C245 C 0.15807 0.13753 0.36829 0.0
C246 C 0.06957 0.12854 0.3805 0.0
C247 C 0.0888 0.14442 0.3446 0.0
H248 H 0.42144 0.93952 0.80062 0.0
H249 H 0.30491 0.87477 0.85938 0.0
H250 H 0.33106 0.91077 0.92347 0.0
H251 H 0.38748 0.96131 0.96308 0.0
H252 H 0.50219 0.02806 0.90266 0.0
H253 H 0.47656 0.9909 0.83942 0.0
C254 C 0.40196 0.93318 0.82755 0.0
C255 C 0.36141 0.90446 0.8253 0.0
C256 C 0.41686 0.95454 0.86412 0.0
C257 C 0.33619 0.8969 0.86032 0.0
C258 C 0.35116 0.91743 0.89699 0.0
C259 C 0.40669 0.9677 0.936 0.0
C260 C 0.44665 0.99742 0.93762 0.0
C261 C 0.39143 0.94647 0.8993 0.0
C262 C 0.4712 0.00548 0.90226 0.0
C263 C 0.45664 0.98414 0.86602 0.0
H264 H 0.55017 0.54742 0.83672 0.0
H265 H 0.58534 0.439 0.79471 0.0
H266 H 0.58625 0.46068 0.72512 0.0
H267 H 0.56944 0.5071 0.67581 0.0
H268 H 0.53146 0.61396 0.71911 0.0
H269 H 0.53902 0.59608 0.7884 0.0
C270 C 0.55828 0.52864 0.81233 0.0
C271 C 0.56713 0.49144 0.82079 0.0
C272 C 0.55777 0.54081 0.77253 0.0
C273 C 0.57852 0.46785 0.78901 0.0
C274 C 0.57868 0.48007 0.74919 0.0
C275 C 0.5634 0.52676 0.7004 0.0
C276 C 0.54938 0.56158 0.69212 0.0
C277 C 0.56724 0.516 0.74048 0.0
C278 C 0.54176 0.58671 0.72445 0.0
C279 C 0.54611 0.57656 0.76419 0.0
H280 H 0.89955 0.69295 0.18892 0.0
H281 H 0.84514 0.59578 0.26871 0.0
H282 H 0.883 0.55139 0.23254 0.0
H283 H 0.9298 0.53963 0.17647 0.0
H284 H 0.98726 0.63856 0.09946 0.0
H285 H 0.94974 0.68272 0.13587 0.0
C286 C 0.89614 0.66207 0.19839 0.0
C287 C 0.86942 0.64749 0.23121 0.0
C288 C 0.91826 0.63698 0.17771 0.0
C289 C 0.86569 0.60767 0.24362 0.0
C290 C 0.88712 0.58225 0.22281 0.0
C291 C 0.93406 0.57087 0.16777 0.0
C292 C 0.96076 0.58569 0.135 0.0
C293 C 0.91316 0.59645 0.18953 0.0
C294 C 0.96654 0.62637 0.12433 0.0
C295 C 0.94518 0.65166 0.1452 0.0
H296 H 0.35478 0.20994 0.19383 0.0
H297 H 0.25519 0.09741 0.17586 0.0
H298 H 0.30813 0.0643 0.14635 0.0
H299 H 0.38314 0.06784 0.12562 0.0
H300 H 0.48263 0.18014 0.14718 0.0
H301 H 0.42939 0.21295 0.17521 0.0
C302 C 0.3447 0.17823 0.18318 0.0
C303 C 0.30124 0.15617 0.18651 0.0
C304 C 0.3753 0.15942 0.16698 0.0
C305 C 0.28857 0.11491 0.17346 0.0
C306 C 0.31877 0.09607 0.15657 0.0
C307 C 0.39302 0.0995 0.13639 0.0
C308 C 0.43669 0.12156 0.13429 0.0
C309 C 0.36226 0.11807 0.15313 0.0
C310 C 0.44924 0.16242 0.14874 0.0
C311 C 0.41881 0.18127 0.16465 0.0
H312 H 0.13596 0.93216 0.70879 0.0
H313 H 0.20125 0.88674 0.61118 0.0
H314 H 0.17061 0.92482 0.56318 0.0
H315 H 0.12237 0.96874 0.54887 0.0
H316 H 0.06251 0.01854 0.64782 0.0
H317 H 0.09311 0.9806 0.69534 0.0
C318 C 0.14371 0.93095 0.67701 0.0
C319 C 0.17058 0.9066 0.66338 0.0
C320 C 0.12631 0.95315 0.64983 0.0
C321 C 0.18079 0.90547 0.62228 0.0
C322 C 0.16304 0.927 0.59488 0.0
C323 C 0.11603 0.9712 0.58084 0.0
C324 C 0.08891 0.99531 0.59467 0.0
C325 C 0.13524 0.9505 0.60824 0.0
C326 C 0.0819 0.99904 0.63625 0.0
C327 C 0.09984 0.97771 0.66351 0.0
H328 H 0.75106 0.39376 0.9721 0.0
H329 H 0.71602 0.508 0.98117 0.0
H330 H 0.79087 0.54431 0.9967 0.0
H331 H 0.86564 0.5433 0.01094 0.0
H332 H 0.89944 0.42835 1.00571 0.0
H333 H 0.82551 0.39268 0.98634 0.0
C334 C 0.75965 0.42657 0.97776 0.0
C335 C 0.72776 0.44799 0.97548 0.0
C336 C 0.80252 0.44717 0.98773 0.0
C337 C 0.73985 0.49067 0.9821 0.0
C338 C 0.78264 0.51148 0.99137 0.0
C339 C 0.85692 0.51047 1.00537 0.0
C340 C 0.88811 0.48858 0.00987 0.0
C341 C 0.81416 0.48999 0.99466 0.0
C342 C 0.87611 0.446 1.00273 0.0
C343 C 0.83382 0.42553 0.99154 0.0
H344 H 0.75604 0.73608 0.48653 0.0
H345 H 0.74015 0.6225 0.4174 0.0
H346 H 0.67658 0.59145 0.45694 0.0
H347 H 0.62336 0.59754 0.50948 0.0
H348 H 0.64479 0.70919 0.58218 0.0
H349 H 0.70963 0.73927 0.54388 0.0
C350 C 0.73991 0.70413 0.48056 0.0
C351 C 0.7534 0.68206 0.44842 0.0
C352 C 0.70424 0.68592 0.50429 0.0
C353 C 0.73039 0.64091 0.44107 0.0
C354 C 0.69409 0.62288 0.46398 0.0
C355 C 0.64267 0.62822 0.51726 0.0
C356 C 0.6291 0.65123 0.54839 0.0
C357 C 0.68037 0.64527 0.49534 0.0
C358 C 0.65447 0.69084 0.55836 0.0
C359 C 0.69146 0.70816 0.53631 0.0
H360 H 0.18877 0.34665 0.09725 0.0
H361 H 0.14341 0.34025 0.21962 0.0
H362 H 0.08733 0.37369 0.20161 0.0
H363 H 0.0571 0.41174 0.15234 0.0
H364 H 0.10293 0.41704 0.02982 0.0
H365 H 0.15261 0.37668 0.04632 0.0
C366 C 0.16596 0.35194 0.11968 0.0
C367 C 0.17006 0.34141 0.15965 0.0
C368 C 0.13424 0.37125 0.10911 0.0
C369 C 0.14051 0.34809 0.18864 0.0
C370 C 0.10876 0.36741 0.17838 0.0
C371 C 0.07743 0.40336 0.12918 0.0
C372 C 0.07671 0.41762 0.09007 0.0
C373 C 0.10613 0.38018 0.13894 0.0
C374 C 0.103 0.40648 0.06019 0.0
C375 C 0.13156 0.38354 0.06962 0.0
H376 H 0.65949 0.30542 0.99347 0.0
H377 H 0.53969 0.33872 0.01235 0.0
H378 H 0.50641 0.27158 0.03771 0.0
H379 H 0.50949 0.20183 0.05014 0.0
H380 H 0.62974 0.16917 0.03597 0.0
H381 H 0.6652 0.23826 0.01457 0.0
C382 C 0.62638 0.29842 1.00384 0.0
C383 C 0.60195 0.32702 0.99987 0.0
C384 C 0.60754 0.25991 0.01943 0.0
C385 C 0.55897 0.31701 0.01352 0.0
C386 C 0.53992 0.2787 0.02849 0.0
C387 C 0.54364 0.21013 0.04289 0.0
C388 C 0.56698 0.18065 0.04409 0.0
C389 C 0.56361 0.24967 0.03077 0.0
C390 C 0.61124 0.19157 0.03522 0.0
C391 C 0.63137 0.23091 0.02273 0.0
H392 H 0.83173 0.81375 0.46586 0.0
H393 H 0.93683 0.79943 0.39022 0.0
H394 H 0.98071 0.86662 0.41419 0.0
H395 H 0.98979 0.92916 0.45856 0.0
H396 H 0.88571 0.93886 0.53757 0.0
H397 H 0.84114 0.87354 0.51076 0.0
C398 C 0.86454 0.82471 0.45508 0.0
C399 C 0.88093 0.80108 0.42652 0.0
C400 C 0.88981 0.86279 0.46958 0.0
C401 C 0.92312 0.81687 0.41204 0.0
C402 C 0.94835 0.85529 0.42586 0.0
C403 C 0.95722 0.91694 0.46951 0.0
C404 C 0.94088 0.9387 0.49984 0.0
C405 C 0.93205 0.87856 0.45472 0.0
C406 C 0.89893 0.9225 0.51431 0.0
C407 C 0.87344 0.88518 0.49902 0.0
H408 H 0.3235 0.76502 0.68953 0.0
H409 H 0.4409 0.86001 0.71344 0.0
H410 H 0.48296 0.81797 0.68029 0.0
H411 H 0.48682 0.75325 0.64573 0.0
H412 H 0.36912 0.65934 0.62048 0.0
H413 H 0.32689 0.70218 0.65211 0.0
C414 C 0.35819 0.77697 0.68694 0.0
C415 C 0.37879 0.81581 0.70426 0.0
C416 C 0.38227 0.75271 0.6675 0.0
C417 C 0.42402 0.83011 0.70108 0.0
C418 C 0.44818 0.80612 0.68188 0.0
C419 C 0.4519 0.74233 0.64694 0.0
C420 C 0.43116 0.70311 0.63081 0.0
C421 C 0.42772 0.76721 0.66526 0.0
C422 C 0.3859 0.68939 0.63261 0.0
C423 C 0.36171 0.71387 0.65079 0.0
H424 H 0.84898 0.91763 0.81354 0.0
H425 H 0.97172 0.89632 0.84496 0.0
H426 H 1.00396 0.9309 0.78521 0.0
H427 H 0.99738 0.96707 0.72314 0.0
H428 H 0.87812 0.99763 0.69899 0.0
H429 H 0.84494 0.96082 0.7578 0.0
C430 C 0.88311 0.92133 0.80851 0.0
C431 C 0.90732 0.90351 0.83422 0.0
C432 C 0.90226 0.94316 0.7752 0.0
C433 C 0.95141 0.90826 0.82552 0.0
C434 C 0.97023 0.92854 0.79141 0.0
C435 C 0.96422 0.96572 0.73108 0.0
C436 C 0.93991 0.98452 0.70685 0.0
C437 C 0.94588 0.94583 0.76584 0.0
C438 C 0.89727 0.9833 0.71741 0.0
C439 C 0.87832 0.96219 0.7509 0.0
H440 H 0.72285 0.12876 0.34417 0.0
H441 H 0.71986 0.25441 0.33604 0.0
H442 H 0.68435 0.23865 0.27018 0.0
H443 H 0.64977 0.1879 0.2165 0.0
H444 H 0.6547 0.06287 0.22498 0.0
H445 H 0.6945 0.0799 0.28844 0.0
C446 C 0.7155 0.15304 0.3277 0.0
C447 C 0.72398 0.19274 0.34542 0.0
C448 C 0.6951 0.1438 0.28977 0.0
C449 C 0.71323 0.22344 0.32358 0.0
C450 C 0.69297 0.21448 0.28578 0.0
C451 C 0.66005 0.16457 0.23206 0.0
C452 C 0.64905 0.12413 0.21612 0.0
C453 C 0.68298 0.17457 0.26887 0.0
C454 C 0.66262 0.09421 0.2366 0.0
C455 C 0.68535 0.10389 0.273 0.0
H456 H 0.50312 0.63666 0.30663 0.0
H457 H 0.38459 0.66827 0.33592 0.0
H458 H 0.39454 0.65639 0.40699 0.0
H459 H 0.4349 0.6326 0.46041 0.0
H460 H 0.55016 0.59616 0.42822 0.0
H461 H 0.54275 0.6133 0.35873 0.0
C462 C 0.47911 0.6406 0.32837 0.0
C463 C 0.44294 0.65295 0.31565 0.0
C464 C 0.48419 0.63237 0.36879 0.0
C465 C 0.41299 0.65912 0.34471 0.0
C466 C 0.41843 0.65194 0.38539 0.0
C467 C 0.45839 0.62859 0.43814 0.0
C468 C 0.49279 0.61279 0.44948 0.0
C469 C 0.4536 0.63793 0.39771 0.0
C470 C 0.523 0.6077 0.42029 0.0
C471 C 0.51896 0.61769 0.3805 0.0
H472 H 0.10819 0.43401 0.84872 0.0
H473 H 0.20558 0.4369 0.93879 0.0
H474 H 0.17513 0.48119 0.98293 0.0
H475 H 0.11999 0.51838 0.99648 0.0
H476 H 0.02257 0.51566 0.90692 0.0
H477 H 0.05383 0.47227 0.86177 0.0
C478 C 0.12312 0.44489 0.87773 0.0
C479 C 0.15908 0.43221 0.89045 0.0
C480 C 0.10525 0.47015 0.90309 0.0
C481 C 0.17767 0.446 0.92844 0.0
C482 C 0.16033 0.47134 0.95368 0.0
C483 C 0.10574 0.50807 0.96707 0.0
C484 C 0.06914 0.51962 0.95476 0.0
C485 C 0.12393 0.48332 0.94148 0.0
C486 C 0.05075 0.50666 0.91672 0.0
C487 C 0.06865 0.48204 0.89101 0.0
H488 H 0.69552 0.94912 0.92737 0.0
H489 H 0.75128 0.92642 0.03883 0.0
H490 H 0.71926 0.97567 0.0749 0.0
H491 H 0.66549 0.01634 0.07568 0.0
H492 H 0.60744 0.03508 0.96347 0.0
H493 H 0.65068 0.997 0.92657 0.0
C494 C 0.70166 0.95609 0.95932 0.0
C495 C 0.72552 0.93467 0.98063 0.0
C496 C 0.68221 0.98329 0.97974 0.0
C497 C 0.73318 0.94314 0.02203 0.0
C498 C 0.71457 0.97092 0.0426 0.0
C499 C 0.66327 0.01291 0.04309 0.0
C500 C 0.6329 0.02781 0.02235 0.0
C501 C 0.68754 0.98994 0.022 0.0
C502 C 0.63013 0.02321 0.98012 0.0
C503 C 0.65482 1.00145 0.95896 0.0
H504 H 0.86367 0.17879 0.4284 0.0
H505 H 0.75211 0.13155 0.50226 0.0
H506 H 0.79105 0.09135 0.53856 0.0
H507 H 0.85739 0.07261 0.55244 0.0
H508 H 0.97093 0.11956 0.48144 0.0
H509 H 0.9309 0.15647 0.44068 0.0
C510 C 0.84796 0.1593 0.45214 0.0
C511 C 0.80518 0.15846 0.46295 0.0
C512 C 0.87095 0.13636 0.47349 0.0
C513 C 0.78513 0.1331 0.49377 0.0
C514 C 0.80736 0.11006 0.51453 0.0
C515 C 0.8734 0.09069 0.52785 0.0
C516 C 0.91705 0.0933 0.5199 0.0
C517 C 0.8504 0.11201 0.50517 0.0
C518 C 0.93724 0.11672 0.48787 0.0
C519 C 0.91436 0.13803 0.46477 0.0
H520 H 0.29236 0.65473 0.13317 0.0
H521 H 0.25344 0.76286 0.16966 0.0
H522 H 0.18102 0.73216 0.14161 0.0
H523 H 0.12833 0.67335 0.10818 0.0
H524 H 0.16865 0.56505 0.0744 0.0
H525 H 0.24085 0.59697 0.10046 0.0
C526 C 0.26789 0.67143 0.1356 0.0
C527 C 0.27806 0.71075 0.15401 0.0
C528 C 0.22657 0.65354 0.11988 0.0
C529 C 0.24637 0.73249 0.15565 0.0
C530 C 0.20498 0.71491 0.13973 0.0
C531 C 0.15303 0.6569 0.10638 0.0
C532 C 0.14304 0.61682 0.08956 0.0
C533 C 0.19466 0.67532 0.1219 0.0
C534 C 0.17531 0.59579 0.08753 0.0
C535 C 0.21669 0.61401 0.10236 0.0
H536 H 0.25694 0.4356 0.62181 0.0
H537 H 0.31937 0.44737 0.73848 0.0
H538 H 0.3839 0.49281 0.71145 0.0
H539 H 0.42583 0.52403 0.6535 0.0
H540 H 0.36766 0.50458 0.53517 0.0
H541 H 0.29876 0.46704 0.56382 0.0
C542 C 0.28464 0.44777 0.64142 0.0
C543 C 0.2826 0.43776 0.68236 0.0
C544 C 0.3228 0.4725 0.62524 0.0
C545 C 0.31896 0.4549 0.70716 0.0
C546 C 0.35638 0.48069 0.6916 0.0
C547 C 0.39779 0.51218 0.63415 0.0
C548 C 0.40151 0.51721 0.59237 0.0
C549 C 0.35898 0.4891 0.65058 0.0
C550 C 0.36532 0.50112 0.56746 0.0
C551 C 0.32606 0.47955 0.58381 0.0
H552 H 0.96213 0.81923 0.93014 0.0
H553 H 0.83046 0.7444 0.92651 0.0
H554 H 0.85284 0.68875 0.95612 0.0
H555 H 0.90931 0.66166 0.98443 0.0
H556 H 0.04172 0.734 0.98482 0.0
H557 H 0.01969 0.79035 0.95512 0.0
C558 C 0.93852 0.79053 0.93533 0.0
C559 C 0.89464 0.78621 0.9267 0.0
C560 C 0.95165 0.75839 0.95213 0.0
C561 C 0.86432 0.74884 0.93369 0.0
C562 C 0.87706 0.71694 0.95053 0.0
C563 C 0.93325 0.68987 0.97819 0.0
C564 C 0.97689 0.69406 0.9871 0.0
C565 C 0.9205 0.72156 0.96035 0.0
C566 C 0.00783 0.73037 0.97833 0.0
C567 C 0.99528 0.76247 0.96128 0.0
H568 H 0.37058 0.85609 0.18803 0.0
H569 H 0.46198 0.80197 0.12737 0.0
H570 H 0.50182 0.8689 0.10409 0.0
H571 H 0.51178 0.94331 0.10272 0.0
H572 H 0.42432 0.99813 0.16873 0.0
H573 H 0.38122 0.93057 0.18766 0.0
C574 C 0.3992 0.85913 0.16967 0.0
C575 C 0.41353 0.82443 0.15946 0.0
C576 C 0.42232 0.89774 0.15711 0.0
C577 C 0.45075 0.82849 0.13589 0.0
C578 C 0.47332 0.86664 0.1224 0.0
C579 C 0.48289 0.9402 0.12072 0.0
C580 C 0.47066 0.97521 0.13398 0.0
C581 C 0.4595 0.9015 0.13292 0.0
C582 C 0.43392 0.97128 0.15808 0.0
C583 C 0.40947 0.93279 0.16901 0.0
H584 H 0.16168 0.26491 0.71373 0.0
H585 H 0.16138 0.33814 0.61049 0.0
H586 H 0.12191 0.27718 0.57128 0.0
H587 H 0.08481 0.20289 0.56741 0.0
H588 H 0.08182 0.13273 0.67362 0.0
H589 H 0.12406 0.19293 0.71072 0.0
C590 C 0.15241 0.26794 0.68287 0.0
C591 C 0.16407 0.30636 0.66542 0.0
C592 C 0.12873 0.2332 0.66101 0.0
C593 C 0.15307 0.30901 0.62479 0.0
C594 C 0.1302 0.27417 0.60241 0.0
C595 C 0.09348 0.20089 0.59864 0.0
C596 C 0.07988 0.16331 0.61768 0.0
C597 C 0.11749 0.23607 0.62033 0.0
C598 C 0.09131 0.16125 0.65824 0.0
C599 C 0.11571 0.19566 0.67954 0.0
H600 H 0.59072 0.30856 0.49788 0.0
H601 H 0.72412 0.37695 0.50737 0.0
H602 H 0.70239 0.44108 0.51374 0.0
H603 H 0.64425 0.47679 0.52331 0.0
H604 H 0.51114 0.40645 0.51292 0.0
H605 H 0.53376 0.34422 0.50023 0.0
C606 C 0.61499 0.33765 0.50046 0.0
C607 C 0.65885 0.33824 0.50212 0.0
C608 C 0.6022 0.37401 0.50459 0.0
C609 C 0.69015 0.37594 0.50561 0.0
C610 C 0.67767 0.41249 0.50968 0.0
C611 C 0.62036 0.44785 0.51789 0.0
C612 C 0.57605 0.4462 0.51955 0.0
C613 C 0.63366 0.41182 0.51031 0.0
C614 C 0.54541 0.40858 0.51209 0.0
C615 C 0.55829 0.37289 0.5048 0.0
loop_
_geom_bond_atom_site_label_1
_geom_bond_atom_site_label_2
_geom_bond_distance
_geom_bond_site_symmetry_2
_ccdc_geom_bond_type
H0 C1 0.949 . S
C1 H0 0.949 . S
C1 C2 1.395 . S
C1 C3 1.391 . S
C2 C1 1.395 . S
C2 C5 1.390 . S
C3 C1 1.391 . S
C3 C7 1.387 . S
C3 C8 1.491 . S
H4 C5 0.950 . S
C5 C2 1.390 . S
C5 H4 0.950 . S
C5 C6 1.378 . S
C6 C5 1.378 . S
C6 C7 1.409 . S
C7 C3 1.387 . S
C7 C6 1.409 . S
C7 H9 0.951 . S
C8 C3 1.491 . S
C8 C10 1.382 . S
C8 C12 1.404 . S
H9 C7 0.951 . S
C10 C8 1.382 . S
C10 C11 1.390 . S
C10 H15 0.949 . S
C11 C10 1.390 . S
C11 C16 1.399 . S
C12 C8 1.404 . S
C12 H13 0.950 . S
C12 C14 1.375 . S
H13 C12 0.950 . S
C14 C12 1.375 . S
C14 C16 1.382 . S
C14 H18 0.950 . S
H15 C10 0.949 . S
C16 C11 1.399 . S
C16 C14 1.382 . S
C16 H17 0.952 . S
H17 C16 0.952 . S
H18 C14 0.950 . S
H19 C20 0.949 . S
C20 H19 0.949 . S
C20 C21 1.395 . S
C20 C22 1.391 . S
C21 C20 1.395 . S
C21 C24 1.390 . S
C22 C20 1.391 . S
C22 C26 1.387 . S
C22 C27 1.491 . S
H23 C24 0.950 . S
C24 C21 1.390 . S
C24 H23 0.950 . S
C24 C25 1.378 . S
C25 C24 1.378 . S
C25 C26 1.409 . S
C26 C22 1.387 . S
C26 C25 1.409 . S
C26 H28 0.951 . S
C27 C22 1.491 . S
C27 C29 1.382 . S
C27 C31 1.404 . S
H28 C26 0.951 . S
C29 C27 1.382 . S
C29 C30 1.390 . S
C29 H34 0.949 . S
C30 C29 1.390 . S
C30 C35 1.399 . S
C31 C27 1.404 . S
C31 H32 0.950 . S
C31 C33 1.375 . S
H32 C31 0.950 . S
C33 C31 1.375 . S
C33 C35 1.382 . S
C33 H37 0.950 . S
H34 C29 0.949 . S
C35 C30 1.399 . S
C35 C33 1.382 . S
C35 H36 0.952 . S
H36 C35 0.952 . S
H37 C33 0.950 . S
H38 C39 0.949 . S
C39 H38 0.949 . S
C39 C40 1.395 . S
C39 C41 1.391 . S
C40 C39 1.395 . S
C40 C43 1.390 . S
C41 C39 1.391 . S
C41 C45 1.387 . S
C41 C46 1.491 . S
H42 C43 0.950 . S
C43 C40 1.390 . S
C43 H42 0.950 . S
C43 C44 1.378 . S
C44 C43 1.378 . S
C44 C45 1.409 . S
C45 C41 1.387 . S
C45 C44 1.409 . S
C45 H47 0.951 . S
C46 C41 1.491 . S
C46 C48 1.382 . S
C46 C50 1.404 . S
H47 C45 0.951 . S
C48 C46 1.382 . S
C48 C49 1.390 . S
C48 H53 0.949 . S
C49 C48 1.390 . S
C49 C54 1.399 . S
C50 C46 1.404 . S
C50 H51 0.950 . S
C50 C52 1.375 . S
H51 C50 0.950 . S
C52 C50 1.375 . S
C52 C54 1.382 . S
C52 H56 0.950 . S
H53 C48 0.949 . S
C54 C49 1.399 . S
C54 C52 1.382 . S
C54 H55 0.952 . S
H55 C54 0.952 . S
H56 C52 0.950 . S
H57 C58 0.949 . S
C58 H57 0.949 . S
C58 C59 1.395 . S
C58 C60 1.391 . S
C59 C58 1.395 . S
C59 C62 1.390 . S
C60 C58 1.391 . S
C60 C64 1.387 . S
C60 C65 1.491 . S
H61 C62 0.950 . S
C62 C59 1.390 . S
C62 H61 0.950 . S
C62 C63 1.378 . S
C63 C62 1.378 . S
C63 C64 1.409 . S
C64 C60 1.387 . S
C64 C63 1.409 . S
C64 H66 0.951 . S
C65 C60 1.491 . S
C65 C67 1.382 . S
C65 C69 1.404 . S
H66 C64 0.951 . S
C67 C65 1.382 . S
C67 C68 1.390 . S
C67 H72 0.949 . S
C68 C67 1.390 . S
C68 C73 1.399 . S
C69 C65 1.404 . S
C69 H70 0.950 . S
C69 C71 1.375 . S
H70 C69 0.950 . S
C71 C69 1.375 . S
C71 C73 1.382 . S
C71 H75 0.950 . S
H72 C67 0.949 . S
C73 C68 1.399 . S
C73 C71 1.382 . S
C73 H74 0.952 . S
H74 C73 0.952 . S
H75 C71 0.950 . S
H76 C77 0.949 . S
C77 H76 0.949 . S
C77 C78 1.395 . S
C77 C79 1.391 . S
C78 C77 1.395 . S
C78 C81 1.390 . S
C79 C77 1.391 . S
C79 C83 1.387 . S
C79 C84 1.491 . S
H80 C81 0.950 . S
C81 C78 1.390 . S
C81 H80 0.950 . S
C81 C82 1.378 . S
C82 C81 1.378 . S
C82 C83 1.409 . S
C83 C79 1.387 . S
C83 C82 1.409 . S
C83 H85 0.951 . S
C84 C79 1.491 . S
C84 C86 1.382 . S
C84 C88 1.404 . S
H85 C83 0.951 . S
C86 C84 1.382 . S
C86 C87 1.390 . S
C86 H91 0.949 . S
C87 C86 1.390 . S
C87 C92 1.399 . S
C88 C84 1.404 . S
C88 H89 0.950 . S
C88 C90 1.375 . S
H89 C88 0.950 . S
C90 C88 1.375 . S
C90 C92 1.382 . S
C90 H94 0.950 . S
H91 C86 0.949 . S
C92 C87 1.399 . S
C92 C90 1.382 . S
C92 H93 0.952 . S
H93 C92 0.952 . S
H94 C90 0.950 . S
H95 C96 0.949 . S
C96 H95 0.949 . S
C96 C97 1.395 . S
C96 C98 1.391 . S
C97 C96 1.395 . S
C97 C100 1.390 . S
C98 C96 1.391 . S
C98 C102 1.387 . S
C98 C103 1.491 . S
H99 C100 0.950 . S
C100 C97 1.390 . S
C100 H99 0.950 . S
C100 C101 1.378 . S
C101 C100 1.378 . S
C101 C102 1.409 . S
C102 C98 1.387 . S
C102 C101 1.409 . S
C102 H104 0.951 . S
C103 C98 1.491 . S
C103 C105 1.382 . S
C103 C107 1.404 . S
H104 C102 0.951 . S
C105 C103 1.382 . S
C105 C106 1.390 . S
C105 H110 0.949 . S
C106 C105 1.390 . S
C106 C111 1.399 . S
C107 C103 1.404 . S
C107 H108 0.950 . S
C107 C109 1.375 . S
H108 C107 0.950 . S
C109 C107 1.375 . S
C109 C111 1.382 . S
C109 H113 0.950 . S
H110 C105 0.949 . S
C111 C106 1.399 . S
C111 C109 1.382 . S
C111 H112 0.952 . S
H112 C111 0.952 . S
H113 C109 0.950 . S
H114 C115 0.949 . S
C115 H114 0.949 . S
C115 C116 1.395 . S
C115 C117 1.391 . S
C116 C115 1.395 . S
C116 C119 1.390 . S
C117 C115 1.391 . S
C117 C121 1.387 . S
C117 C122 1.491 . S
H118 C119 0.950 . S
C119 C116 1.390 . S
C119 H118 0.950 . S
C119 C120 1.378 . S
C120 C119 1.378 . S
C120 C121 1.409 . S
C121 C117 1.387 . S
C121 C120 1.409 . S
C121 H123 0.951 . S
C122 C117 1.491 . S
C122 C124 1.382 . S
C122 C126 1.404 . S
H123 C121 0.951 . S
C124 C122 1.382 . S
C124 C125 1.390 . S
C124 H129 0.949 . S
C125 C124 1.390 . S
C125 C130 1.399 . S
C126 C122 1.404 . S
C126 H127 0.950 . S
C126 C128 1.375 . S
H127 C126 0.950 . S
C128 C126 1.375 . S
C128 C130 1.382 . S
C128 H132 0.950 . S
H129 C124 0.949 . S
C130 C125 1.399 . S
C130 C128 1.382 . S
C130 H131 0.952 . S
H131 C130 0.952 . S
H132 C128 0.950 . S
H133 C134 0.949 . S
C134 H133 0.949 . S
C134 C135 1.395 . S
C134 C136 1.391 . S
C135 C134 1.395 . S
C135 C138 1.390 . S
C136 C134 1.391 . S
C136 C140 1.387 . S
C136 C141 1.491 . S
H137 C138 0.950 . S
C138 C135 1.390 . S
C138 H137 0.950 . S
C138 C139 1.378 . S
C139 C138 1.378 . S
C139 C140 1.409 . S
C140 C136 1.387 . S
C140 C139 1.409 . S
C140 H142 0.951 . S
C141 C136 1.491 . S
C141 C143 1.382 . S
C141 C145 1.404 . S
H142 C140 0.951 . S
C143 C141 1.382 . S
C143 C144 1.390 . S
C143 H148 0.949 . S
C144 C143 1.390 . S
C144 C149 1.399 . S
C145 C141 1.404 . S
C145 H146 0.950 . S
C145 C147 1.375 . S
H146 C145 0.950 . S
C147 C145 1.375 . S
C147 C149 1.382 . S
C147 H151 0.950 . S
H148 C143 0.949 . S
C149 C144 1.399 . S
C149 C147 1.382 . S
C149 H150 0.952 . S
H150 C149 0.952 . S
H151 C147 0.950 . S
Dy152 O156 2.398 . S
Dy152 O157 2.491 . S
Dy152 O158 2.403 . S
Dy152 O159 2.664 . S
Dy152 O163 2.326 . S
Dy152 O167 2.310 1_455 S
Dy152 O168 2.351 1_445 S
C153 O164 1.185 . S
C153 O165 1.355 . S
C154 O156 1.185 . S
C154 O157 1.355 . S
Dy155 O159 2.310 1_655 S
Dy155 O162 2.351 1_655 S
Dy155 O164 2.398 1_545 S
Dy155 O165 2.491 1_545 S
Dy155 O166 2.403 . S
Dy155 O167 2.664 . S
Dy155 O169 2.326 1_545 S
O156 Dy152 2.398 . S
O156 C154 1.185 . S
O157 Dy152 2.491 . S
O157 C154 1.355 . S
O158 Dy152 2.403 . S
O158 C160 1.254 . S
O159 Dy152 2.664 . S
O159 Dy155 2.310 1_455 S
O159 C160 1.268 . S
C160 O158 1.254 . S
C160 O159 1.268 . S
C161 O166 1.254 . S
C161 O167 1.268 . S
O162 Dy155 2.351 1_455 S
O162 C170 1.249 . S
O163 Dy152 2.326 . S
O163 C170 1.267 . S
O164 C153 1.185 . S
O164 Dy155 2.398 1_565 S
O165 C153 1.355 . S
O165 Dy155 2.491 1_565 S
O166 Dy155 2.403 . S
O166 C161 1.254 . S
O167 Dy152 2.310 1_655 S
O167 Dy155 2.664 . S
O167 C161 1.268 . S
O168 Dy152 2.351 1_665 S
O168 C171 1.249 . S
O169 Dy155 2.326 1_565 S
O169 C171 1.267 . S
C170 O162 1.249 . S
C170 O163 1.267 . S
C171 O168 1.249 . S
C171 O169 1.267 . S
Dy172 O176 2.398 . S
Dy172 O177 2.491 . S
Dy172 O178 2.403 1_545 S
Dy172 O179 2.664 1_545 S
Dy172 O183 2.326 . S
Dy172 O187 2.310 . S
Dy172 O188 2.351 . S
C173 O184 1.185 1_565 S
C173 O185 1.355 1_556 S
C174 O176 1.185 . S
C174 O177 1.355 . S
Dy175 O179 2.310 1_545 S
Dy175 O182 2.351 . S
Dy175 O184 2.398 1_554 S
Dy175 O185 2.491 1_545 S
Dy175 O186 2.403 . S
Dy175 O187 2.664 . S
Dy175 O189 2.326 . S
O176 Dy172 2.398 . S
O176 C174 1.185 . S
O177 Dy172 2.491 . S
O177 C174 1.355 . S
O178 Dy172 2.403 1_565 S
O178 C180 1.254 . S
O179 Dy172 2.664 1_565 S
O179 Dy175 2.310 1_565 S
O179 C180 1.268 . S
C180 O178 1.254 . S
C180 O179 1.268 . S
C181 O186 1.254 . S
C181 O187 1.268 . S
O182 Dy175 2.351 . S
O182 C190 1.249 . S
O183 Dy172 2.326 . S
O183 C190 1.267 . S
O184 C173 1.185 1_545 S
O184 Dy175 2.398 1_556 S
O185 C173 1.355 1_554 S
O185 Dy175 2.491 1_565 S
O186 Dy175 2.403 . S
O186 C181 1.254 . S
O187 Dy172 2.310 . S
O187 Dy175 2.664 . S
O187 C181 1.268 . S
O188 Dy172 2.351 . S
O188 C191 1.249 1_545 S
O189 Dy175 2.326 . S
O189 C191 1.267 1_545 S
C190 O182 1.249 . S
C190 O183 1.267 . S
C191 O188 1.249 1_565 S
C191 O189 1.267 1_565 S
Dy192 O196 2.398 . S
Dy192 O197 2.491 . S
Dy192 O198 2.403 . S
Dy192 O199 2.664 . S
Dy192 O203 2.326 . S
Dy192 O207 2.310 . S
Dy192 O208 2.351 . S
C193 O204 1.185 . S
C193 O205 1.355 . S
C194 O196 1.185 . S
C194 O197 1.355 . S
Dy195 O199 2.310 . S
Dy195 O202 2.351 . S
Dy195 O204 2.398 . S
Dy195 O205 2.491 . S
Dy195 O206 2.403 . S
Dy195 O207 2.664 . S
Dy195 O209 2.326 . S
O196 Dy192 2.398 . S
O196 C194 1.185 . S
O197 Dy192 2.491 . S
O197 C194 1.355 . S
O198 Dy192 2.403 . S
O198 C200 1.254 . S
O199 Dy192 2.664 . S
O199 Dy195 2.310 . S
O199 C200 1.268 . S
C200 O198 1.254 . S
C200 O199 1.268 . S
C201 O206 1.254 . S
C201 O207 1.268 . S
O202 Dy195 2.351 . S
O202 C210 1.249 . S
O203 Dy192 2.326 . S
O203 C210 1.267 . S
O204 C193 1.185 . S
O204 Dy195 2.398 . S
O205 C193 1.355 . S
O205 Dy195 2.491 . S
O206 Dy195 2.403 . S
O206 C201 1.254 . S
O207 Dy192 2.310 . S
O207 Dy195 2.664 . S
O207 C201 1.268 . S
O208 Dy192 2.351 . S
O208 C211 1.249 . S
O209 Dy195 2.326 . S
O209 C211 1.267 . S
C210 O202 1.249 . S
C210 O203 1.267 . S
C211 O208 1.249 . S
C211 O209 1.267 . S
Dy212 O216 2.398 . S
Dy212 O217 2.491 . S
Dy212 O218 2.399 1_455 S
Dy212 O219 2.677 . S
Dy212 O223 2.326 . S
Dy212 O227 2.310 1_554 S
Dy212 O228 2.351 1_455 S
C213 O224 1.185 . S
C213 O225 1.379 . S
C214 O216 1.185 . S
C214 O217 1.355 . S
Dy215 O219 2.314 1_556 S
Dy215 O222 2.351 1_556 S
Dy215 O224 2.398 1_455 S
Dy215 O225 2.492 1_455 S
Dy215 O226 2.403 . S
Dy215 O227 2.664 . S
Dy215 O229 2.326 1_455 S
O216 Dy212 2.398 . S
O216 C214 1.185 . S
O217 Dy212 2.491 . S
O217 C214 1.355 . S
O218 Dy212 2.399 1_655 S
O218 C220 1.258 . S
O219 Dy212 2.677 . S
O219 Dy215 2.314 1_554 S
O219 C220 1.264 1_455 S
C220 O218 1.258 . S
C220 O219 1.264 1_655 S
C221 O226 1.254 . S
C221 O227 1.268 . S
O222 Dy215 2.351 1_554 S
O222 C230 1.249 . S
O223 Dy212 2.326 . S
O223 C230 1.267 . S
O224 C213 1.185 . S
O224 Dy215 2.398 1_655 S
O225 C213 1.379 . S
O225 Dy215 2.492 1_655 S
O226 Dy215 2.403 . S
O226 C221 1.254 . S
O227 Dy212 2.310 1_556 S
O227 Dy215 2.664 . S
O227 C221 1.268 . S
O228 Dy212 2.351 1_655 S
O228 C231 1.249 1_554 S
O229 Dy215 2.326 1_655 S
O229 C231 1.267 . S
C230 O222 1.249 . S
C230 O223 1.267 . S
C231 O228 1.249 1_556 S
C231 O229 1.267 . S
H232 C238 0.930 . S
H233 C241 0.930 . S
H234 C242 0.930 . S
H235 C243 0.930 . S
H236 C246 0.930 . S
H237 C247 0.930 . S
C238 H232 0.930 . S
C238 C239 1.355 . S
C238 C240 1.415 . S
C239 C238 1.355 . S
C239 C241 1.419 . S
C240 C238 1.415 . S
C240 C245 1.425 . S
C240 C247 1.409 . S
C241 H233 0.930 . S
C241 C239 1.419 . S
C241 C242 1.362 . S
C242 H234 0.930 . S
C242 C241 1.362 . S
C242 C245 1.409 . S
C243 H235 0.930 . S
C243 C244 1.355 . S
C243 C245 1.415 . S
C244 C243 1.355 . S
C244 C246 1.419 . S
C245 C240 1.425 . S
C245 C242 1.409 . S
C245 C243 1.415 . S
C246 H236 0.930 . S
C246 C244 1.419 . S
C246 C247 1.362 . S
C247 H237 0.930 . S
C247 C240 1.409 . S
C247 C246 1.362 . S
H248 C254 0.930 . S
H249 C257 0.930 . S
H250 C258 0.930 . S
H251 C259 0.930 . S
H252 C262 0.930 . S
H253 C263 0.930 . S
C254 H248 0.930 . S
C254 C255 1.355 . S
C254 C256 1.415 . S
C255 C254 1.355 . S
C255 C257 1.419 . S
C256 C254 1.415 . S
C256 C261 1.425 . S
C256 C263 1.409 . S
C257 H249 0.930 . S
C257 C255 1.419 . S
C257 C258 1.362 . S
C258 H250 0.930 . S
C258 C257 1.362 . S
C258 C261 1.409 . S
C259 H251 0.930 . S
C259 C260 1.355 . S
C259 C261 1.415 . S
C260 C259 1.355 . S
C260 C262 1.419 . S
C261 C256 1.425 . S
C261 C258 1.409 . S
C261 C259 1.415 . S
C262 H252 0.930 . S
C262 C260 1.419 . S
C262 C263 1.362 . S
C263 H253 0.930 . S
C263 C256 1.409 . S
C263 C262 1.362 . S
H264 C270 0.930 . S
H265 C273 0.930 . S
H266 C274 0.930 . S
H267 C275 0.930 . S
H268 C278 0.930 . S
H269 C279 0.930 . S
C270 H264 0.930 . S
C270 C271 1.355 . S
C270 C272 1.415 . S
C271 C270 1.355 . S
C271 C273 1.419 . S
C272 C270 1.415 . S
C272 C277 1.425 . S
C272 C279 1.409 . S
C273 H265 0.930 . S
C273 C271 1.419 . S
C273 C274 1.362 . S
C274 H266 0.930 . S
C274 C273 1.362 . S
C274 C277 1.409 . S
C275 H267 0.930 . S
C275 C276 1.355 . S
C275 C277 1.415 . S
C276 C275 1.355 . S
C276 C278 1.419 . S
C277 C272 1.425 . S
C277 C274 1.409 . S
C277 C275 1.415 . S
C278 H268 0.930 . S
C278 C276 1.419 . S
C278 C279 1.362 . S
C279 H269 0.930 . S
C279 C272 1.409 . S
C279 C278 1.362 . S
H280 C286 0.930 . S
H281 C289 0.930 . S
H282 C290 0.904 1_455 S
H283 C291 0.930 1_455 S
H284 C294 0.930 . S
H285 C295 0.930 . S
C286 H280 0.930 . S
C286 C287 1.355 . S
C286 C288 1.415 . S
C287 C286 1.355 . S
C287 C289 1.419 . S
C288 C286 1.415 . S
C288 C293 1.425 . S
C288 C295 1.409 . S
C289 H281 0.930 . S
C289 C287 1.419 . S
C289 C290 1.362 . S
C290 H282 0.904 1_655 S
C290 C289 1.362 . S
C290 C293 1.409 . S
C291 H283 0.930 1_655 S
C291 C292 1.355 . S
C291 C293 1.415 . S
C292 C291 1.355 . S
C292 C294 1.419 . S
C293 C288 1.425 . S
C293 C290 1.409 . S
C293 C291 1.415 . S
C294 H284 0.930 . S
C294 C292 1.419 . S
C294 C295 1.362 . S
C295 H285 0.930 . S
C295 C288 1.409 . S
C295 C294 1.362 . S
H296 C302 0.930 . S
H297 C305 0.930 . S
H298 C306 0.930 . S
H299 C307 0.930 . S
H300 C310 0.930 . S
H301 C311 0.930 . S
C302 H296 0.930 . S
C302 C303 1.355 . S
C302 C304 1.415 . S
C303 C302 1.355 . S
C303 C305 1.419 . S
C304 C302 1.415 . S
C304 C309 1.425 . S
C304 C311 1.409 . S
C305 H297 0.930 . S
C305 C303 1.419 . S
C305 C306 1.362 . S
C306 H298 0.930 . S
C306 C305 1.362 . S
C306 C309 1.409 . S
C307 H299 0.930 . S
C307 C308 1.355 . S
C307 C309 1.415 . S
C308 C307 1.355 . S
C308 C310 1.419 . S
C309 C304 1.425 . S
C309 C306 1.409 . S
C309 C307 1.415 . S
C310 H300 0.930 . S
C310 C308 1.419 . S
C310 C311 1.362 . S
C311 H301 0.930 . S
C311 C304 1.409 . S
C311 C310 1.362 . S
H312 C318 0.930 . S
H313 C321 0.930 . S
H314 C322 0.930 . S
H315 C323 0.930 . S
H316 C326 0.930 . S
H317 C327 0.930 . S
C318 H312 0.930 . S
C318 C319 1.355 . S
C318 C320 1.415 . S
C319 C318 1.355 . S
C319 C321 1.419 . S
C320 C318 1.415 . S
C320 C325 1.425 . S
C320 C327 1.409 1_565 S
C321 H313 0.930 . S
C321 C319 1.419 . S
C321 C322 1.362 . S
C322 H314 0.930 . S
C322 C321 1.362 . S
C322 C325 1.409 . S
C323 H315 0.930 . S
C323 C324 1.341 1_565 S
C323 C325 1.415 . S
C324 C323 1.341 1_545 S
C324 C326 1.424 . S
C325 C320 1.425 . S
C325 C322 1.409 . S
C325 C323 1.415 . S
C326 H316 0.930 . S
C326 C324 1.424 . S
C326 C327 1.362 . S
C327 H317 0.930 . S
C327 C320 1.409 1_545 S
C327 C326 1.362 . S
H328 C334 0.930 . S
H329 C337 0.930 . S
H330 C338 0.930 . S
H331 C339 0.930 . S
H332 C342 0.930 . S
H333 C343 0.930 . S
C334 H328 0.930 . S
C334 C335 1.355 . S
C334 C336 1.415 . S
C335 C334 1.355 . S
C335 C337 1.419 . S
C336 C334 1.415 . S
C336 C341 1.425 . S
C336 C343 1.409 . S
C337 H329 0.930 . S
C337 C335 1.419 . S
C337 C338 1.362 . S
C338 H330 0.930 . S
C338 C337 1.362 . S
C338 C341 1.409 . S
C339 H331 0.930 . S
C339 C340 1.355 . S
C339 C341 1.415 . S
C340 C339 1.355 . S
C340 C342 1.419 . S
C341 C336 1.425 . S
C341 C338 1.409 . S
C341 C339 1.415 . S
C342 H332 0.930 . S
C342 C340 1.419 . S
C342 C343 1.362 . S
C343 H333 0.930 . S
C343 C336 1.409 . S
C343 C342 1.362 . S
H344 C350 0.930 . S
H345 C353 0.930 . S
H346 C354 0.930 . S
H347 C355 0.930 . S
H348 C358 0.930 . S
H349 C359 0.930 . S
C350 H344 0.930 . S
C350 C351 1.355 . S
C350 C352 1.415 . S
C351 C350 1.355 . S
C351 C353 1.419 . S
C352 C350 1.415 . S
C352 C357 1.425 . S
C352 C359 1.409 . S
C353 H345 0.930 . S
C353 C351 1.419 . S
C353 C354 1.362 . S
C354 H346 0.930 . S
C354 C353 1.362 . S
C354 C357 1.409 . S
C355 H347 0.930 . S
C355 C356 1.355 . S
C355 C357 1.415 . S
C356 C355 1.355 . S
C356 C358 1.419 . S
C357 C352 1.425 . S
C357 C354 1.409 . S
C357 C355 1.415 . S
C358 H348 0.930 . S
C358 C356 1.419 . S
C358 C359 1.362 . S
C359 H349 0.930 . S
C359 C352 1.409 . S
C359 C358 1.362 . S
H360 C366 0.930 . S
H361 C369 0.930 . S
H362 C370 0.930 . S
H363 C371 0.930 . S
H364 C374 0.930 . S
H365 C375 0.930 . S
C366 H360 0.930 . S
C366 C367 1.355 . S
C366 C368 1.415 . S
C367 C366 1.355 . S
C367 C369 1.419 . S
C368 C366 1.415 . S
C368 C373 1.425 . S
C368 C375 1.409 . S
C369 H361 0.930 . S
C369 C367 1.419 . S
C369 C370 1.362 . S
C370 H362 0.930 . S
C370 C369 1.362 . S
C370 C373 1.409 . S
C371 H363 0.930 . S
C371 C372 1.355 . S
C371 C373 1.415 . S
C372 C371 1.355 . S
C372 C374 1.419 . S
C373 C368 1.425 . S
C373 C370 1.409 . S
C373 C371 1.415 . S
C374 H364 0.930 . S
C374 C372 1.419 . S
C374 C375 1.362 . S
C375 H365 0.930 . S
C375 C368 1.409 . S
C375 C374 1.362 . S
H376 C382 0.930 . S
H377 C385 0.930 . S
H378 C386 0.930 . S
H379 C387 0.930 . S
H380 C390 0.930 1_556 S
H381 C391 0.930 . S
C382 H376 0.930 . S
C382 C383 1.355 . S
C382 C384 1.415 . S
C383 C382 1.355 . S
C383 C385 1.419 . S
C384 C382 1.415 . S
C384 C389 1.425 1_556 S
C384 C391 1.409 . S
C385 H377 0.930 . S
C385 C383 1.419 . S
C385 C386 1.362 1_556 S
C386 H378 0.930 . S
C386 C385 1.362 1_554 S
C386 C389 1.409 . S
C387 H379 0.930 . S
C387 C388 1.355 . S
C387 C389 1.415 . S
C388 C387 1.355 . S
C388 C390 1.419 . S
C389 C384 1.425 1_554 S
C389 C386 1.409 . S
C389 C387 1.415 . S
C390 H380 0.930 1_554 S
C390 C388 1.419 . S
C390 C391 1.362 1_554 S
C391 H381 0.930 . S
C391 C384 1.409 . S
C391 C390 1.362 1_556 S
H392 C398 0.930 . S
H393 C401 0.930 . S
H394 C402 0.930 . S
H395 C403 0.930 . S
H396 C406 0.930 . S
H397 C407 0.930 . S
C398 H392 0.930 . S
C398 C399 1.355 . S
C398 C400 1.415 . S
C399 C398 1.355 . S
C399 C401 1.419 . S
C400 C398 1.415 . S
C400 C405 1.425 . S
C400 C407 1.409 . S
C401 H393 0.930 . S
C401 C399 1.419 . S
C401 C402 1.362 . S
C402 H394 0.930 . S
C402 C401 1.362 . S
C402 C405 1.409 . S
C403 H395 0.930 . S
C403 C404 1.355 . S
C403 C405 1.415 . S
C404 C403 1.355 . S
C404 C406 1.419 . S
C405 C400 1.425 . S
C405 C402 1.409 . S
C405 C403 1.415 . S
C406 H396 0.930 . S
C406 C404 1.419 . S
C406 C407 1.362 . S
C407 H397 0.930 . S
C407 C400 1.409 . S
C407 C406 1.362 . S
H408 C414 0.930 . S
H409 C417 0.930 . S
H410 C418 0.930 . S
H411 C419 0.930 . S
H412 C422 0.930 . S
H413 C423 0.930 . S
C414 H408 0.930 . S
C414 C415 1.355 . S
C414 C416 1.415 . S
C415 C414 1.355 . S
C415 C417 1.419 . S
C416 C414 1.415 . S
C416 C421 1.425 . S
C416 C423 1.409 . S
C417 H409 0.930 . S
C417 C415 1.419 . S
C417 C418 1.362 . S
C418 H410 0.930 . S
C418 C417 1.362 . S
C418 C421 1.409 . S
C419 H411 0.930 . S
C419 C420 1.355 . S
C419 C421 1.415 . S
C420 C419 1.355 . S
C420 C422 1.419 . S
C421 C416 1.425 . S
C421 C418 1.409 . S
C421 C419 1.415 . S
C422 H412 0.930 . S
C422 C420 1.419 . S
C422 C423 1.362 . S
C423 H413 0.930 . S
C423 C416 1.409 . S
C423 C422 1.362 . S
H424 C430 0.930 . S
H425 C433 0.930 . S
H426 C434 0.930 . S
H427 C435 0.930 . S
H428 C438 0.930 . S
H429 C439 0.930 . S
C430 H424 0.930 . S
C430 C431 1.355 . S
C430 C432 1.415 . S
C431 C430 1.355 . S
C431 C433 1.419 . S
C432 C430 1.415 . S
C432 C437 1.425 . S
C432 C439 1.409 . S
C433 H425 0.930 . S
C433 C431 1.419 . S
C433 C434 1.362 . S
C434 H426 0.930 . S
C434 C433 1.362 . S
C434 C437 1.409 . S
C435 H427 0.930 . S
C435 C436 1.355 . S
C435 C437 1.415 . S
C436 C435 1.355 . S
C436 C438 1.419 . S
C437 C432 1.425 . S
C437 C434 1.409 . S
C437 C435 1.415 . S
C438 H428 0.930 . S
C438 C436 1.419 . S
C438 C439 1.362 . S
C439 H429 0.930 . S
C439 C432 1.409 . S
C439 C438 1.362 . S
H440 C446 0.930 . S
H441 C449 0.930 . S
H442 C450 0.930 . S
H443 C451 0.930 . S
H444 C454 0.930 . S
H445 C455 0.930 . S
C446 H440 0.930 . S
C446 C447 1.355 . S
C446 C448 1.415 . S
C447 C446 1.355 . S
C447 C449 1.419 . S
C448 C446 1.415 . S
C448 C453 1.425 . S
C448 C455 1.409 . S
C449 H441 0.930 . S
C449 C447 1.419 . S
C449 C450 1.362 . S
C450 H442 0.930 . S
C450 C449 1.362 . S
C450 C453 1.409 . S
C451 H443 0.930 . S
C451 C452 1.355 . S
C451 C453 1.415 . S
C452 C451 1.355 . S
C452 C454 1.419 . S
C453 C448 1.425 . S
C453 C450 1.409 . S
C453 C451 1.415 . S
C454 H444 0.930 . S
C454 C452 1.419 . S
C454 C455 1.362 . S
C455 H445 0.930 . S
C455 C448 1.409 . S
C455 C454 1.362 . S
H456 C462 0.930 . S
H457 C465 0.930 . S
H458 C466 0.930 . S
H459 C467 0.930 . S
H460 C470 0.930 . S
H461 C471 0.930 . S
C462 H456 0.930 . S
C462 C463 1.355 . S
C462 C464 1.415 . S
C463 C462 1.355 . S
C463 C465 1.419 . S
C464 C462 1.415 . S
C464 C469 1.425 . S
C464 C471 1.409 . S
C465 H457 0.930 . S
C465 C463 1.419 . S
C465 C466 1.362 . S
C466 H458 0.930 . S
C466 C465 1.362 . S
C466 C469 1.409 . S
C467 H459 0.930 . S
C467 C468 1.355 . S
C467 C469 1.415 . S
C468 C467 1.355 . S
C468 C470 1.419 . S
C469 C464 1.425 . S
C469 C466 1.409 . S
C469 C467 1.415 . S
C470 H460 0.930 . S
C470 C468 1.419 . S
C470 C471 1.362 . S
C471 H461 0.930 . S
C471 C464 1.409 . S
C471 C470 1.362 . S
H472 C478 0.930 . S
H473 C481 0.930 . S
H474 C482 0.930 . S
H475 C483 0.930 . S
H476 C486 0.930 . S
H477 C487 0.930 . S
C478 H472 0.930 . S
C478 C479 1.355 . S
C478 C480 1.415 . S
C479 C478 1.355 . S
C479 C481 1.419 . S
C480 C478 1.415 . S
C480 C485 1.425 . S
C480 C487 1.409 . S
C481 H473 0.930 . S
C481 C479 1.419 . S
C481 C482 1.362 . S
C482 H474 0.930 . S
C482 C481 1.362 . S
C482 C485 1.409 . S
C483 H475 0.930 . S
C483 C484 1.355 . S
C483 C485 1.415 . S
C484 C483 1.355 . S
C484 C486 1.419 . S
C485 C480 1.425 . S
C485 C482 1.409 . S
C485 C483 1.415 . S
C486 H476 0.930 . S
C486 C484 1.419 . S
C486 C487 1.362 . S
C487 H477 0.930 . S
C487 C480 1.409 . S
C487 C486 1.362 . S
H488 C494 0.930 . S
H489 C497 0.930 . S
H490 C498 0.930 1_554 S
H491 C499 0.930 . S
H492 C502 0.930 . S
H493 C503 0.930 . S
C494 H488 0.930 . S
C494 C495 1.355 . S
C494 C496 1.415 . S
C495 C494 1.355 . S
C495 C497 1.419 . S
C496 C494 1.415 . S
C496 C501 1.425 . S
C496 C503 1.409 . S
C497 H489 0.930 . S
C497 C495 1.419 . S
C497 C498 1.362 . S
C498 H490 0.930 1_556 S
C498 C497 1.362 . S
C498 C501 1.409 . S
C499 H491 0.930 . S
C499 C500 1.355 . S
C499 C501 1.415 1_554 S
C500 C499 1.355 . S
C500 C502 1.419 1_554 S
C501 C496 1.425 . S
C501 C498 1.409 . S
C501 C499 1.415 1_556 S
C502 H492 0.930 . S
C502 C500 1.419 1_556 S
C502 C503 1.362 . S
C503 H493 0.930 . S
C503 C496 1.409 . S
C503 C502 1.362 . S
H504 C510 0.930 . S
H505 C513 0.930 . S
H506 C514 0.930 . S
H507 C515 0.930 . S
H508 C518 0.930 . S
H509 C519 0.930 . S
C510 H504 0.930 . S
C510 C511 1.355 . S
C510 C512 1.415 . S
C511 C510 1.355 . S
C511 C513 1.419 . S
C512 C510 1.415 . S
C512 C517 1.425 . S
C512 C519 1.409 . S
C513 H505 0.930 . S
C513 C511 1.419 . S
C513 C514 1.362 . S
C514 H506 0.930 . S
C514 C513 1.362 . S
C514 C517 1.409 . S
C515 H507 0.930 . S
C515 C516 1.355 . S
C515 C517 1.415 . S
C516 C515 1.355 . S
C516 C518 1.419 . S
C517 C512 1.425 . S
C517 C514 1.409 . S
C517 C515 1.415 . S
C518 H508 0.930 . S
C518 C516 1.419 . S
C518 C519 1.362 . S
C519 H509 0.930 . S
C519 C512 1.409 . S
C519 C518 1.362 . S
H520 C526 0.930 . S
H521 C529 0.930 . S
H522 C530 0.930 . S
H523 C531 0.930 . S
H524 C534 0.930 . S
H525 C535 0.930 . S
C526 H520 0.930 . S
C526 C527 1.355 . S
C526 C528 1.415 . S
C527 C526 1.355 . S
C527 C529 1.419 . S
C528 C526 1.415 . S
C528 C533 1.425 . S
C528 C535 1.409 . S
C529 H521 0.930 . S
C529 C527 1.419 . S
C529 C530 1.362 . S
C530 H522 0.930 . S
C530 C529 1.362 . S
C530 C533 1.409 . S
C531 H523 0.930 . S
C531 C532 1.355 . S
C531 C533 1.415 . S
C532 C531 1.355 . S
C532 C534 1.419 . S
C533 C528 1.425 . S
C533 C530 1.409 . S
C533 C531 1.415 . S
C534 H524 0.930 . S
C534 C532 1.419 . S
C534 C535 1.362 . S
C535 H525 0.930 . S
C535 C528 1.409 . S
C535 C534 1.362 . S
H536 C542 0.930 . S
H537 C545 0.930 . S
H538 C546 0.930 . S
H539 C547 0.930 . S
H540 C550 0.930 . S
H541 C551 0.930 . S
C542 H536 0.930 . S
C542 C543 1.355 . S
C542 C544 1.415 . S
C543 C542 1.355 . S
C543 C545 1.419 . S
C544 C542 1.415 . S
C544 C549 1.425 . S
C544 C551 1.409 . S
C545 H537 0.930 . S
C545 C543 1.419 . S
C545 C546 1.362 . S
C546 H538 0.930 . S
C546 C545 1.362 . S
C546 C549 1.409 . S
C547 H539 0.930 . S
C547 C548 1.355 . S
C547 C549 1.415 . S
C548 C547 1.355 . S
C548 C550 1.419 . S
C549 C544 1.425 . S
C549 C546 1.409 . S
C549 C547 1.415 . S
C550 H540 0.930 . S
C550 C548 1.419 . S
C550 C551 1.362 . S
C551 H541 0.930 . S
C551 C544 1.409 . S
C551 C550 1.362 . S
H552 C558 0.930 . S
H553 C561 0.930 . S
H554 C562 0.930 . S
H555 C563 0.930 . S
H556 C566 0.930 . S
H557 C567 0.930 . S
C558 H552 0.930 . S
C558 C559 1.355 . S
C558 C560 1.415 . S
C559 C558 1.355 . S
C559 C561 1.419 . S
C560 C558 1.415 . S
C560 C565 1.425 . S
C560 C567 1.409 . S
C561 H553 0.930 . S
C561 C559 1.419 . S
C561 C562 1.362 . S
C562 H554 0.930 . S
C562 C561 1.362 . S
C562 C565 1.409 . S
C563 H555 0.930 . S
C563 C564 1.355 . S
C563 C565 1.415 . S
C564 C563 1.355 . S
C564 C566 1.419 . S
C565 C560 1.425 . S
C565 C562 1.409 . S
C565 C563 1.415 . S
C566 H556 0.930 . S
C566 C564 1.419 . S
C566 C567 1.362 . S
C567 H557 0.930 . S
C567 C560 1.409 . S
C567 C566 1.362 . S
H568 C574 0.930 . S
H569 C577 0.930 . S
H570 C578 0.930 . S
H571 C579 0.930 . S
H572 C582 0.930 . S
H573 C583 0.930 . S
C574 H568 0.930 . S
C574 C575 1.355 . S
C574 C576 1.415 . S
C575 C574 1.355 . S
C575 C577 1.419 . S
C576 C574 1.415 . S
C576 C581 1.425 . S
C576 C583 1.409 . S
C577 H569 0.930 . S
C577 C575 1.419 . S
C577 C578 1.362 . S
C578 H570 0.930 . S
C578 C577 1.362 . S
C578 C581 1.409 . S
C579 H571 0.930 . S
C579 C580 1.355 . S
C579 C581 1.415 . S
C580 C579 1.355 . S
C580 C582 1.419 . S
C581 C576 1.425 . S
C581 C578 1.409 . S
C581 C579 1.415 . S
C582 H572 0.930 . S
C582 C580 1.419 . S
C582 C583 1.362 . S
C583 H573 0.930 . S
C583 C576 1.409 . S
C583 C582 1.362 . S
H584 C590 0.930 . S
H585 C593 0.930 . S
H586 C594 0.930 . S
H587 C595 0.930 . S
H588 C598 0.930 . S
H589 C599 0.930 . S
C590 H584 0.930 . S
C590 C591 1.355 . S
C590 C592 1.415 . S
C591 C590 1.355 . S
C591 C593 1.419 . S
C592 C590 1.415 . S
C592 C597 1.425 . S
C592 C599 1.409 . S
C593 H585 0.930 . S
C593 C591 1.419 . S
C593 C594 1.362 . S
C594 H586 0.930 . S
C594 C593 1.362 . S
C594 C597 1.409 . S
C595 H587 0.930 . S
C595 C596 1.355 . S
C595 C597 1.415 . S
C596 C595 1.355 . S
C596 C598 1.419 . S
C597 C592 1.425 . S
C597 C594 1.409 . S
C597 C595 1.415 . S
C598 H588 0.930 . S
C598 C596 1.419 . S
C598 C599 1.362 . S
C599 H589 0.930 . S
C599 C592 1.409 . S
C599 C598 1.362 . S
H600 C606 0.930 . S
H601 C609 0.930 . S
H602 C610 0.930 . S
H603 C611 0.930 . S
H604 C614 0.930 . S
H605 C615 0.930 . S
C606 H600 0.930 . S
C606 C607 1.355 . S
C606 C608 1.415 . S
C607 C606 1.355 . S
C607 C609 1.419 . S
C608 C606 1.415 . S
C608 C613 1.425 . S
C608 C615 1.409 . S
C609 H601 0.930 . S
C609 C607 1.419 . S
C609 C610 1.362 . S
C610 H602 0.930 . S
C610 C609 1.362 . S
C610 C613 1.409 . S
C611 H603 0.930 . S
C611 C612 1.355 . S
C611 C613 1.415 . S
C612 C611 1.355 . S
C612 C614 1.419 . S
C613 C608 1.425 . S
C613 C610 1.409 . S
C613 C611 1.415 . S
C614 H604 0.930 . S
C614 C612 1.419 . S
C614 C615 1.362 . S
C615 H605 0.930 . S
C615 C608 1.409 . S
C615 C614 1.362 . S
C239 C6 1.615 . S
C244 C154 1.579 . S
C255 C21 1.748 . S
C260 C173 1.724 . S
C276 C210 1.294 . S
C271 C49 1.181 . S
C287 C68 1.453 . S
C292 C220 1.508 . S
C308 C190 2.484 . S
C303 C2 2.404 . S
C324 C160 1.177 . S
C319 C30 1.026 . S
C340 C231 1.449 . S
C335 C40 1.500 . S
C356 C201 1.284 . S
C351 C63 1.310 . S
C367 C11 1.482 . S
C372 C214 1.666 . S
C388 C181 1.894 . S
C383 C44 1.931 . S
C399 C59 1.517 . S
C404 C171 1.507 . S
C415 C25 1.439 . S
C420 C193 1.418 . S
C436 C153 1.741 . S
C431 C82 1.759 . S
C447 C101 1.572 . S
C452 C174 1.520 . S
C463 C125 1.560 . S
C468 C211 1.599 . S
C479 C144 1.180 . S
C484 C221 1.281 . S
C495 C87 1.582 . S
C500 C191 1.669 . S
C516 C161 2.032 . S
C511 C97 2.094 . S
C532 C230 1.328 . S
C527 C120 1.359 . S
C548 C200 1.288 . S
C543 C135 1.350 . S
C559 C78 1.924 . S
C564 C213 1.958 . S
C580 C180 1.336 . S
C575 C116 1.394 . S
C596 C170 1.954 . S
C591 C139 1.961 . S
C607 C106 1.253 . S
C612 C194 1.329 . S
