# Generated by pormake.
# Topology anh, (6,3)-cn, num edge types: 1
# Building blocks:
#     Node 0, Type 0, BuildingBlock: INOVEN_clean_sbu_0, # of connection points: 6
#     Node 1, Type 0, BuildingBlock: INOVEN_clean_sbu_0, # of connection points: 6
#     Node 2, Type 0, BuildingBlock: INOVEN_clean_sbu_0, # of connection points: 6
#     Node 3, Type 1, BuildingBlock: BETDIP_clean_linker_0, # of connection points: 3
#     Node 4, Type 1, BuildingBlock: BETDIP_clean_linker_0, # of connection points: 3
#     Node 5, Type 1, BuildingBlock: BETDIP_clean_linker_0, # of connection points: 3
#     Node 6, Type 1, BuildingBlock: BETDIP_clean_linker_0, # of connection points: 3
#     Node 7, Type 1, BuildingBlock: BETDIP_clean_linker_0, # of connection points: 3
#     Node 8, Type 1, BuildingBlock: BETDIP_clean_linker_0, # of connection points: 3
#     Edge 9, Type (0, 1), BuildingBlock: CIFDUS_clean_linker_0, # of connection points: 2
#     Edge 10, Type (0, 1), BuildingBlock: CIFDUS_clean_linker_0, # of connection points: 2
#     Edge 11, Type (0, 1), BuildingBlock: CIFDUS_clean_linker_0, # of connection points: 2
#     Edge 12, Type (0, 1), BuildingBlock: CIFDUS_clean_linker_0, # of connection points: 2
#     Edge 13, Type (0, 1), BuildingBlock: CIFDUS_clean_linker_0, # of connection points: 2
#     Edge 14, Type (0, 1), BuildingBlock: CIFDUS_clean_linker_0, # of connection points: 2
#     Edge 15, Type (0, 1), BuildingBlock: CIFDUS_clean_linker_0, # of connection points: 2
#     Edge 16, Type (0, 1), BuildingBlock: CIFDUS_clean_linker_0, # of connection points: 2
#     Edge 17, Type (0, 1), BuildingBlock: CIFDUS_clean_linker_0, # of connection points: 2
#     Edge 18, Type (0, 1), BuildingBlock: CIFDUS_clean_linker_0, # of connection points: 2
#     Edge 19, Type (0, 1), BuildingBlock: CIFDUS_clean_linker_0, # of connection points: 2
#     Edge 20, Type (0, 1), BuildingBlock: CIFDUS_clean_linker_0, # of connection points: 2
#     Edge 21, Type (0, 1), BuildingBlock: CIFDUS_clean_linker_0, # of connection points: 2
#     Edge 22, Type (0, 1), BuildingBlock: CIFDUS_clean_linker_0, # of connection points: 2
#     Edge 23, Type (0, 1), BuildingBlock: CIFDUS_clean_linker_0, # of connection points: 2
#     Edge 24, Type (0, 1), BuildingBlock: CIFDUS_clean_linker_0, # of connection points: 2
#     Edge 25, Type (0, 1), BuildingBlock: CIFDUS_clean_linker_0, # of connection points: 2
#     Edge 26, Type (0, 1), BuildingBlock: CIFDUS_clean_linker_0, # of connection points: 2
# Relax obj value: 0.175
# Max RMSD: 0.194
# Mean RMSD: 0.129
data_MOF--net-anh--node1-INOVEN_clean_sbu_0--node2-BETDIP_clean_linker_0--edge1-CIFDUS_clean_linker_0
_symmetry_space_group_name_H-M    P1
_symmetry_Int_Tables_number       1
_symmetry_cell_setting            triclinic
loop_
_symmetry_equiv_pos_as_xyz
'x, y, z'
_cell_length_a     27.448974
_cell_length_b     34.448386
_cell_length_c     43.231818
_cell_angle_alpha  95.417887
_cell_angle_beta   88.857309
_cell_angle_gamma 131.24812
loop_
_atom_site_label
_atom_site_type_symbol
_atom_site_fract_x
_atom_site_fract_y
_atom_site_fract_z
_atom_type_partial_charge
Gd0 Gd 0.19709 0.57948 0.1487 0.0
Gd1 Gd 0.11062 0.60067 0.16097 0.0
C2 C 0.26556 0.69913 0.15721 0.0
C3 C 0.25659 0.54759 0.13054 0.0
C4 C 0.32008 0.56252 0.1356 0.0
C5 C 0.3217 0.52653 0.14679 0.0
C6 C 0.37825 0.61034 0.12822 0.0
C7 C 0.43733 0.58264 0.13935 0.0
C8 C 0.43652 0.6203 0.13007 0.0
C9 C 0.37964 0.53649 0.14876 0.0
C10 C 0.19835 0.60614 0.20933 0.0
C11 C 1.04207 0.48293 0.15453 0.0
C12 C 1.04273 0.62405 0.18132 0.0
C13 C 0.97379 0.5903 0.18816 0.0
C14 C 0.94182 0.54084 0.19734 0.0
C15 C 0.93767 0.60427 0.18151 0.0
C16 C 0.8377 0.51752 0.18944 0.0
C17 C 0.86998 0.56819 0.18233 0.0
C18 C 0.87434 0.50469 0.19785 0.0
C19 C 0.11576 0.57667 0.0999 0.0
O20 O 0.2734 0.66643 0.14625 0.0
O21 O 0.20868 0.68182 0.16659 0.0
O22 O 0.22035 0.53168 0.15444 0.0
O23 O 0.2535 0.57637 0.11446 0.0
O24 O 0.24916 0.62123 0.19489 0.0
O25 O 0.14799 0.57602 0.1912 0.0
O26 O 1.04065 0.51749 0.16885 0.0
O27 O 0.09492 0.49827 0.1406 0.0
O28 O 1.05346 0.62157 0.15193 0.0
O29 O 1.07977 0.62358 0.19956 0.0
O30 O 1.06249 0.55926 0.11277 0.0
O31 O 0.1628 0.60629 0.11954 0.0
H32 H 0.27742 0.4895 0.15272 0.0
H33 H 0.3784 0.63913 0.11994 0.0
H34 H 0.48026 0.65629 0.12281 0.0
H35 H 0.37798 0.50613 0.15545 0.0
H36 H 0.96868 0.52922 0.20272 0.0
H37 H 0.96147 0.64212 0.17417 0.0
H38 H 0.84273 0.57885 0.17549 0.0
H39 H 0.85058 0.46598 0.2036 0.0
Gd40 Gd 0.65807 0.05428 0.47676 0.0
Gd41 Gd 0.56445 0.06904 0.46735 0.0
C42 C 0.50113 0.95339 0.46559 0.0
C43 C 0.71591 0.02378 0.4958 0.0
C44 C 0.69514 0.97424 0.50367 0.0
C45 C 0.73858 0.96577 0.50178 0.0
C46 C 0.63177 0.93473 0.51238 0.0
C47 C 0.65558 0.8787 0.51742 0.0
C48 C 0.61207 0.88738 0.51901 0.0
C49 C 0.71912 0.91854 0.50867 0.0
C50 C 0.6415 0.0627 0.41728 0.0
C51 C 0.72103 0.17122 0.47456 0.0
C52 C 0.50707 0.10114 0.45103 0.0
C53 C 0.52065 0.15026 0.45811 0.0
C54 C 0.55485 0.18216 0.48591 0.0
C55 C 0.5003 0.16596 0.43684 0.0
C56 C 0.54595 0.24422 0.47169 0.0
C57 C 0.51292 0.21254 0.44351 0.0
C58 C 0.56701 0.22844 0.49273 0.0
C59 C 0.5837 0.06214 0.52685 0.0
O60 O 0.55732 0.97291 0.47909 0.0
O61 O 0.49567 0.98405 0.45335 0.0
O62 O 0.70796 0.02575 0.46647 0.0
O63 O 0.69933 0.04508 0.51453 0.0
O64 O 0.69692 0.08293 0.43036 0.0
O65 O 0.59676 0.03677 0.43576 0.0
O66 O 0.66119 0.15011 0.46655 0.0
O67 O 0.73362 0.14235 0.48266 0.0
O68 O 0.48993 0.07353 0.47432 0.0
O69 O 0.54871 0.10358 0.43395 0.0
O70 O 0.52752 0.0412 0.51451 0.0
O71 O 0.62692 0.08741 0.50778 0.0
H72 H 0.7877 0.9958 0.49508 0.0
H73 H 0.59744 0.94042 0.51409 0.0
H74 H 0.56251 0.85744 0.52519 0.0
H75 H 0.75424 0.91361 0.50764 0.0
H76 H 0.57164 0.17103 0.50254 0.0
H77 H 0.47455 0.14214 0.41508 0.0
H78 H 0.49692 0.22375 0.42651 0.0
H79 H 0.59165 0.25118 0.51486 0.0
Gd80 Gd 0.69707 0.59344 0.83592 0.0
Gd81 Gd 0.59439 0.47711 0.83556 0.0
C82 C 0.53926 0.53642 0.84208 0.0
C83 C 0.75606 0.68582 0.82109 0.0
C84 C 0.73756 0.71688 0.81574 0.0
C85 C 0.75 0.75413 0.83917 0.0
C86 C 0.70848 0.71045 0.78703 0.0
C87 C 0.70376 0.77714 0.8055 0.0
C88 C 0.69179 0.74009 0.78201 0.0
C89 C 0.73318 0.78374 0.83416 0.0
C90 C 0.67907 0.55987 0.89177 0.0
C91 C 0.75422 0.53665 0.83772 0.0
C92 C 0.5317 0.37996 0.84177 0.0
C93 C 0.54603 0.3454 0.83555 0.0
C94 C 0.49552 0.29122 0.83142 0.0
C95 C 0.60995 0.36623 0.83195 0.0
C96 C 0.57284 0.27979 0.81858 0.0
C97 C 0.62329 0.33398 0.82378 0.0
C98 C 0.50875 0.25864 0.82307 0.0
C99 C 0.61886 0.51288 0.77946 0.0
O100 O 0.60021 0.57743 0.83621 0.0
O101 O 0.52456 0.49182 0.84602 0.0
O102 O 0.75568 0.67603 0.84969 0.0
O103 O 0.7333 0.64603 0.80057 0.0
O104 O 0.73514 0.60042 0.8833 0.0
O105 O 0.6343 0.54181 0.87143 0.0
O106 O 0.69214 0.49566 0.8417 0.0
O107 O 0.76985 0.58081 0.83169 0.0
O108 O 0.52464 0.39562 0.81727 0.0
O109 O 0.56629 0.41745 0.86442 0.0
O110 O 0.5612 0.47543 0.78786 0.0
O111 O 0.66071 0.52847 0.80064 0.0
H112 H 0.77276 0.76042 0.86148 0.0
H113 H 0.69878 0.68263 0.76826 0.0
H114 H 0.67039 0.73449 0.75944 0.0
H115 H 0.74266 0.81147 0.85293 0.0
H116 H 0.4457 0.27415 0.8339 0.0
H117 H 0.64973 0.40753 0.83476 0.0
H118 H 0.6733 0.3517 0.82103 0.0
H119 H 0.46863 0.21713 0.81898 0.0
H120 H 0.63998 0.03134 0.14186 0.0
H121 H 0.72971 0.13675 0.22569 0.0
H122 H 0.55438 0.97788 0.22935 0.0
H123 H 0.71316 0.1794 0.18319 0.0
C124 C 0.74856 0.18012 0.17075 0.0
C125 C 0.64089 0.03869 0.16685 0.0
C126 C 0.59186 0.99814 0.18416 0.0
C127 C 0.68893 0.08955 0.18182 0.0
C128 C 0.69035 0.09836 0.21436 0.0
C129 C 0.64286 0.05828 0.23212 0.0
C130 C 0.59305 1.00886 0.21644 0.0
N131 N 0.73513 0.13228 0.16445 0.0
H132 H 0.62204 0.53065 0.50813 0.0
H133 H 0.61165 0.59445 0.59616 0.0
H134 H 0.6308 0.48044 0.59379 0.0
H135 H 0.55285 0.60265 0.56499 0.0
C136 C 0.58534 0.61994 0.54608 0.0
C137 C 0.62223 0.53288 0.53331 0.0
C138 C 0.62775 0.50184 0.549 0.0
C139 C 0.61629 0.56647 0.55005 0.0
C140 C 0.61555 0.56852 0.58273 0.0
C141 C 0.62109 0.53779 0.59851 0.0
C142 C 0.62818 0.50519 0.58161 0.0
N143 N 0.61292 0.59878 0.53376 0.0
H144 H 0.10079 0.53694 0.82362 0.0
H145 H 0.172 0.53337 0.91097 0.0
H146 H 1.02136 0.53972 0.91017 0.0
H147 H 0.27271 0.5835 0.88357 0.0
C148 C 0.25217 0.55348 0.86412 0.0
C149 C 0.09983 0.53718 0.84867 0.0
C150 C 1.05326 0.53772 0.86476 0.0
C151 C 0.14485 0.53648 0.86531 0.0
C152 C 0.14106 0.53587 0.89789 0.0
C153 C 0.09555 0.53559 0.91377 0.0
C154 C 1.05385 0.53754 0.8972 0.0
N155 N 0.19022 0.53297 0.84984 0.0
H156 H 0.1935 0.6041 0.48251 0.0
H157 H 1.08601 0.50832 0.39681 0.0
H158 H 0.23976 0.67314 0.39682 0.0
H159 H 1.00202 0.48119 0.43866 0.0
C160 C 1.02335 0.46919 0.45125 0.0
C161 C 0.18499 0.60022 0.45761 0.0
C162 C 0.22295 0.64475 0.44137 0.0
C163 C 0.13352 0.55095 0.44171 0.0
C164 C 0.12338 0.54634 0.40924 0.0
C165 C 0.16264 0.59003 0.39268 0.0
C166 C 0.21076 0.63888 0.40919 0.0
N167 N 1.09186 0.5061 0.45817 0.0
H168 H 0.60062 0.03301 0.79548 0.0
H169 H 0.5868 0.9622 0.70445 0.0
H170 H 0.58186 0.08436 0.71286 0.0
H171 H 0.52727 0.89008 0.73524 0.0
C172 C 0.56652 0.90848 0.75284 0.0
C173 C 0.59617 0.03048 0.77038 0.0
C174 C 0.59179 0.06372 0.75656 0.0
C175 C 0.59386 0.99332 0.7518 0.0
C176 C 0.58781 0.99002 0.71915 0.0
C177 C 0.58454 0.02341 0.70526 0.0
C178 C 0.58659 0.05994 0.72394 0.0
N179 N 0.5986 0.96014 0.76608 0.0
H180 H 0.50197 0.38915 0.12351 0.0
H181 H 0.51717 0.33284 0.03486 0.0
H182 H 0.62984 0.49667 0.05801 0.0
H183 H 0.43922 0.25538 0.1269 0.0
C184 C 0.47717 0.2943 0.12049 0.0
C185 C 0.52693 0.39792 0.10215 0.0
C186 C 0.56872 0.4489 0.09373 0.0
C187 C 0.51197 0.35665 0.08181 0.0
C188 C 0.53362 0.36537 0.05157 0.0
C189 C 0.57566 0.41602 0.04281 0.0
C190 C 0.59673 0.45767 0.06483 0.0
N191 N 0.47053 0.30548 0.09078 0.0
H192 H 0.48871 0.55505 0.17567 0.0
H193 H 0.50951 0.61509 0.08846 0.0
H194 H 0.56767 0.58818 0.06881 0.0
H195 H 0.58239 0.52692 0.07102 0.0
H196 H 0.56171 0.46411 0.15723 0.0
H197 H 0.53197 0.51195 0.18232 0.0
C198 C 0.50779 0.56359 0.15272 0.0
C199 C 0.49289 0.58547 0.13322 0.0
C200 C 0.53875 0.54578 0.14091 0.0
C201 C 0.51964 0.59794 0.10394 0.0
C202 C 0.5522 0.58183 0.09245 0.0
C203 C 0.57465 0.52502 0.09567 0.0
C204 C 0.572 0.48991 0.11172 0.0
C205 C 0.55765 0.55248 0.10992 0.0
C206 C 0.5613 0.48883 0.14376 0.0
C207 C 0.54466 0.51649 0.15824 0.0
H208 H 0.85601 0.2348 0.48071 0.0
H209 H 0.70355 0.23817 0.46567 0.0
H210 H 0.78306 0.32925 0.45862 0.0
H211 H 0.89478 0.40763 0.45356 0.0
H212 H 1.05084 0.40979 0.46956 0.0
H213 H 0.97187 0.31794 0.47953 0.0
C214 C 0.84033 0.25561 0.4762 0.0
C215 C 0.77318 0.22866 0.47339 0.0
C216 C 0.88712 0.30933 0.47217 0.0
C217 C 0.75429 0.25686 0.46763 0.0
C218 C 0.79993 0.30942 0.46358 0.0
C219 C 0.91166 0.38818 0.45955 0.0
C220 C 0.97849 0.41548 0.46074 0.0
C221 C 0.86622 0.33583 0.46529 0.0
C222 C 0.99962 0.38977 0.46863 0.0
C223 C 0.95433 0.33711 0.47418 0.0
H224 H 0.59587 0.74576 0.77391 0.0
H225 H 0.77191 0.88042 0.82462 0.0
H226 H 0.74414 0.93263 0.81457 0.0
H227 H 0.67134 0.94105 0.78951 0.0
H228 H 0.49818 0.80658 0.73711 0.0
H229 H 0.52364 0.75377 0.74939 0.0
C230 C 0.62859 0.78663 0.78258 0.0
C231 C 0.68608 0.8089 0.79995 0.0
C232 C 0.6128 0.81669 0.77635 0.0
C233 C 0.72694 0.86183 0.81149 0.0
C234 C 0.7113 0.89192 0.80558 0.0
C235 C 0.63904 0.90013 0.78102 0.0
C236 C 0.58275 0.87769 0.76248 0.0
C237 C 0.6545 0.8699 0.78786 0.0
C238 C 0.54171 0.82471 0.75144 0.0
C239 C 0.55627 0.79447 0.75842 0.0
H240 H 0.77172 0.42462 0.15562 0.0
H241 H 0.74471 0.51963 0.21066 0.0
H242 H 0.62757 0.45447 0.19742 0.0
H243 H 0.53435 0.37324 0.16701 0.0
H244 H 0.56495 0.28422 0.10752 0.0
H245 H 0.67893 0.343 0.12658 0.0
C246 C 0.73994 0.43053 0.1652 0.0
C247 C 0.7664 0.47651 0.18423 0.0
C248 C 0.67343 0.39383 0.15674 0.0
C249 C 0.72514 0.48441 0.19594 0.0
C250 C 0.65835 0.44722 0.1884 0.0
C251 C 0.56617 0.36683 0.15844 0.0
C252 C 0.54226 0.32513 0.13581 0.0
C253 C 0.63217 0.40225 0.16835 0.0
C254 C 0.58299 0.3163 0.12502 0.0
C255 C 0.648 0.35002 0.13573 0.0
H256 H 0.48954 0.87103 0.48115 0.0
H257 H 0.37862 0.90774 0.44679 0.0
H258 H 0.2817 0.81667 0.44113 0.0
H259 H 0.229 0.72581 0.44135 0.0
H260 H 0.33623 0.68502 0.47315 0.0
H261 H 0.43266 0.77768 0.48526 0.0
C262 C 0.4441 0.85911 0.47265 0.0
C263 C 0.44232 0.8968 0.46404 0.0
C264 C 0.38731 0.80564 0.46919 0.0
C265 C 0.38247 0.88018 0.45323 0.0
C266 C 0.32646 0.82781 0.45007 0.0
C267 C 0.27307 0.73722 0.45167 0.0
C268 C 0.27533 0.69862 0.45652 0.0
C269 C 0.32846 0.7902 0.45744 0.0
C270 C 0.33289 0.71394 0.46965 0.0
C271 C 0.3883 0.76699 0.47612 0.0
H272 H 0.52201 0.18461 0.83522 0.0
H273 H 0.65577 0.29971 0.77384 0.0
H274 H 0.67843 0.2457 0.75193 0.0
H275 H 0.65626 0.16403 0.74778 0.0
H276 H 0.52032 0.04655 0.80725 0.0
H277 H 0.50363 0.10343 0.83265 0.0
C278 C 0.55607 0.1978 0.81705 0.0
C279 C 0.58716 0.24638 0.80631 0.0
C280 C 0.56881 0.16619 0.80425 0.0
C281 C 0.63174 0.263 0.78295 0.0
C282 C 0.64456 0.23197 0.77023 0.0
C283 C 0.6232 0.15092 0.76643 0.0
C284 C 0.58922 0.10089 0.77539 0.0
C285 C 0.61292 0.18332 0.78043 0.0
C286 C 0.54748 0.08497 0.8 0.0
C287 C 0.53741 0.11731 0.81432 0.0
H288 H 0.6866 0.82315 0.4895 0.0
H289 H 0.57868 0.82198 0.56407 0.0
H290 H 0.54531 0.74092 0.57811 0.0
H291 H 0.54912 0.67154 0.57044 0.0
H292 H 0.66031 0.6738 0.4976 0.0
H293 H 0.69062 0.75344 0.4819 0.0
C294 C 0.65622 0.80544 0.50899 0.0
C295 C 0.63513 0.82883 0.52559 0.0
C296 C 0.63789 0.75901 0.51731 0.0
C297 C 0.59487 0.80465 0.55048 0.0
C298 C 0.57607 0.75838 0.55871 0.0
C299 C 0.57976 0.68941 0.55103 0.0
C300 C 0.6024 0.66691 0.53522 0.0
C301 C 0.59747 0.73536 0.54239 0.0
C302 C 0.64225 0.6904 0.51018 0.0
C303 C 0.65963 0.73597 0.50121 0.0
H304 H 0.88385 0.59335 0.81663 0.0
H305 H 0.74278 0.46793 0.87084 0.0
H306 H 0.81667 0.4539 0.88027 0.0
H307 H 0.92282 0.47755 0.8758 0.0
H308 H 1.06836 0.60286 0.82321 0.0
H309 H 0.99244 0.61518 0.8103 0.0
C310 C 0.86901 0.56286 0.8305 0.0
C311 C 0.80555 0.53152 0.84262 0.0
C312 C 0.91318 0.5544 0.83611 0.0
C313 C 0.7893 0.49241 0.86046 0.0
C314 C 0.83226 0.48432 0.86612 0.0
C315 C 0.9383 0.50732 0.86108 0.0
C316 C 1.00271 0.53885 0.85051 0.0
C317 C 0.89439 0.51492 0.85425 0.0
C318 C 1.01983 0.577 0.83148 0.0
C319 C 0.97611 0.58456 0.82441 0.0
H320 H 0.39366 0.75602 0.141 0.0
H321 H 0.26174 0.77324 0.17991 0.0
H322 H 0.34873 0.86651 0.18787 0.0
H323 H 0.46345 0.94357 0.18767 0.0
H324 H 0.59885 0.93034 0.15008 0.0
H325 H 0.50989 0.83624 0.13708 0.0
C326 C 0.38391 0.78021 0.15103 0.0
C327 C 0.32066 0.75679 0.16007 0.0
C328 C 0.43497 0.83498 0.15567 0.0
C329 C 0.30941 0.78931 0.17286 0.0
C330 C 0.35935 0.84309 0.17743 0.0
C331 C 0.47331 0.92021 0.17607 0.0
C332 C 0.53766 0.94397 0.16982 0.0
C333 C 0.42236 0.8663 0.16939 0.0
C334 C 0.54967 0.91317 0.15482 0.0
C335 C 0.49881 0.85921 0.14775 0.0
H336 H 0.65144 0.33651 0.50258 0.0
H337 H 0.46342 0.26059 0.45921 0.0
H338 H 0.47641 0.33672 0.47573 0.0
H339 H 0.53639 0.42171 0.50686 0.0
H340 H 0.71936 0.49391 0.55408 0.0
H341 H 0.71302 0.42246 0.53198 0.0
C342 C 0.61307 0.33638 0.49682 0.0
C343 C 0.55632 0.29242 0.47979 0.0
C344 C 0.61991 0.37975 0.50722 0.0
C345 C 0.50799 0.29383 0.47195 0.0
C346 C 0.51511 0.33731 0.48162 0.0
C347 C 0.57539 0.42215 0.5117 0.0
C348 C 0.62847 0.46296 0.53182 0.0
C349 C 0.57028 0.38009 0.49976 0.0
C350 C 0.67823 0.46285 0.53851 0.0
C351 C 0.67444 0.42196 0.52601 0.0
H352 H 0.40128 0.46764 0.82823 0.0
H353 H 0.56431 0.62412 0.86642 0.0
H354 H 0.49298 0.64239 0.87545 0.0
H355 H 0.38398 0.61537 0.87409 0.0
H356 H 0.21981 0.46264 0.83244 0.0
H357 H 0.29035 0.44233 0.82319 0.0
C358 C 0.42142 0.50576 0.83861 0.0
C359 C 0.48982 0.54416 0.84689 0.0
C360 C 0.3792 0.51711 0.84305 0.0
C361 C 0.51317 0.59334 0.85977 0.0
C362 C 0.47188 0.60402 0.865 0.0
C363 C 0.36323 0.57764 0.86256 0.0
C364 C 0.2954 0.54097 0.85392 0.0
C365 C 0.40481 0.56647 0.85687 0.0
C366 C 0.27105 0.49237 0.83914 0.0
C367 C 0.31189 0.48057 0.83405 0.0
H368 H 1.02578 0.39353 0.14371 0.0
H369 H 0.9212 0.44567 0.16468 0.0
H370 H 0.82287 0.35761 0.16993 0.0
H371 H 0.76643 0.26635 0.17186 0.0
H372 H 0.86515 0.20965 0.15085 0.0
H373 H 0.96477 0.29792 0.14216 0.0
C374 C 0.98129 0.38543 0.14908 0.0
C375 C 0.98184 0.42693 0.15421 0.0
C376 C 0.92349 0.33362 0.15224 0.0
C377 C 0.92329 0.41527 0.16112 0.0
C378 C 0.8665 0.36459 0.16408 0.0
C379 C 0.80958 0.27313 0.16507 0.0
C380 C 0.80828 0.23146 0.16207 0.0
C381 C 0.8662 0.32366 0.16025 0.0
C382 C 0.86462 0.24094 0.1532 0.0
C383 C 0.92172 0.29156 0.14837 0.0
H384 H 1.0198 0.51326 0.05423 0.0
H385 H 0.22795 0.62731 0.0698 0.0
H386 H 0.24087 0.62258 0.01383 0.0
H387 H 0.19273 0.58983 0.95995 0.0
H388 H 0.98443 0.47414 0.94475 0.0
H389 H 0.97201 0.47561 0.00074 0.0
C390 C 1.06792 0.53684 0.04533 0.0
C391 C 0.12273 0.57093 0.06609 0.0
C392 C 1.07506 0.53381 0.01306 0.0
C393 C 0.18488 0.60091 0.05428 0.0
C394 C 0.19235 0.59826 0.02224 0.0
C395 C 0.14472 0.56436 0.96891 0.0
C396 C 1.08964 0.53255 0.94807 0.0
C397 C 0.13777 0.56533 0.00133 0.0
C398 C 1.0277 0.49984 0.9602 0.0
C399 C 1.02047 0.50052 0.99226 0.0
H400 H 0.68274 0.13287 0.37683 0.0
H401 H 0.57704 0.97063 0.38227 0.0
H402 H 0.5697 0.95509 0.32539 0.0
H403 H 0.59928 0.98881 0.27492 0.0
H404 H 0.69162 0.14887 0.26864 0.0
H405 H 0.70017 0.16443 0.32513 0.0
C406 C 0.6574 0.0941 0.36536 0.0
C407 C 0.63044 0.05286 0.38332 0.0
C408 C 0.65211 0.08532 0.33268 0.0
C409 C 0.59764 1.0027 0.36862 0.0
C410 C 0.59383 0.99396 0.33621 0.0
C411 C 0.6197 0.0269 0.2855 0.0
C412 C 0.64523 0.06754 0.2669 0.0
C413 C 0.62154 0.03512 0.31803 0.0
C414 C 0.67316 0.11688 0.28189 0.0
C415 C 0.67741 0.12582 0.31436 0.0
H416 H 0.53873 0.50112 0.73683 0.0
H417 H 0.73116 0.55591 0.75047 0.0
H418 H 0.75005 0.57001 0.6954 0.0
H419 H 0.70853 0.56125 0.64256 0.0
H420 H 0.51842 0.51118 0.63002 0.0
H421 H 0.50171 0.50089 0.6855 0.0
C422 C 0.58495 0.51655 0.72772 0.0
C423 C 0.6332 0.52686 0.74736 0.0
C424 C 0.59563 0.52516 0.69628 0.0
C425 C 0.69329 0.54758 0.73561 0.0
C426 C 0.70397 0.55543 0.70416 0.0
C427 C 0.66383 0.54857 0.65219 0.0
C428 C 0.61453 0.53662 0.63247 0.0
C429 C 0.65504 0.5435 0.68416 0.0
C430 C 0.55693 0.52065 0.64497 0.0
C431 C 0.54732 0.5146 0.67658 0.0
H432 H 0.49733 0.98978 0.5646 0.0
H433 H 0.69776 0.12905 0.56167 0.0
H434 H 0.71679 0.12831 0.61663 0.0
H435 H 0.67453 0.0903 0.66635 0.0
H436 H 0.47594 0.94853 0.66854 0.0
H437 H 0.4578 0.94741 0.613 0.0
C438 C 0.54515 0.01981 0.57606 0.0
C439 C 0.59588 0.05984 0.55941 0.0
C440 C 0.55594 0.01851 0.60744 0.0
C441 C 0.65795 0.09805 0.57418 0.0
C442 C 0.66881 0.09765 0.60556 0.0
C443 C 0.62769 0.0589 0.65439 0.0
C444 C 0.57653 0.01952 0.67115 0.0
C445 C 0.61799 0.05842 0.62251 0.0
C446 C 0.5159 0.97894 0.65579 0.0
C447 C 0.50553 0.97852 0.62418 0.0
H448 H 0.56788 0.47184 0.9112 0.0
H449 H 0.77306 0.59275 0.93484 0.0
H450 H 0.76127 0.55346 0.98172 0.0
H451 H 0.69104 0.48886 0.01807 0.0
H452 H 0.48622 0.36732 -0.0058 0.0
H453 H 0.50005 0.40068 0.94434 0.0
C454 C 0.61011 0.48897 0.92633 0.0
C455 C 0.67111 0.53514 0.9197 0.0
C456 C 0.60324 0.46553 0.95289 0.0
C457 C 0.72541 0.55739 0.93965 0.0
C458 C 0.71884 0.53479 0.96633 0.0
C459 C 0.64986 0.46894 0.00152 0.0
C460 C 0.58776 0.42592 0.00978 0.0
C461 C 0.65784 0.4893 0.97341 0.0
C462 C 0.53465 0.4002 0.9882 0.0
C463 C 0.54234 0.4198 0.95993 0.0
H464 H 0.09524 0.55255 0.24708 0.0
H465 H 0.30422 0.67023 0.24848 0.0
H466 H 0.3111 0.67409 0.30478 0.0
H467 H 0.25948 0.64199 0.35312 0.0
H468 H 1.05072 0.52752 0.35418 0.0
H469 H 1.04215 0.52313 0.29737 0.0
C470 C 0.14205 0.57934 0.25985 0.0
C471 C 0.19919 0.61084 0.24364 0.0
C472 C 0.14586 0.58131 0.29254 0.0
C473 C 0.25958 0.64536 0.26039 0.0
C474 C 0.26366 0.64753 0.2926 0.0
C475 C 0.21185 0.61668 0.34115 0.0
C476 C 0.15587 0.58555 0.35808 0.0
C477 C 0.2073 0.61533 0.30883 0.0
C478 C 0.09476 0.5517 0.34179 0.0
C479 C 1.0898 0.54951 0.30931 0.0
loop_
_geom_bond_atom_site_label_1
_geom_bond_atom_site_label_2
_geom_bond_distance
_geom_bond_site_symmetry_2
_ccdc_geom_bond_type
Gd0 C3 2.818 . S
Gd0 O20 2.377 . S
Gd0 O22 2.448 . S
Gd0 O23 2.506 . S
Gd0 O24 2.435 . S
Gd0 O25 2.717 . S
Gd0 O27 2.395 . S
Gd0 O31 2.327 . S
Gd1 C12 2.818 1_455 S
Gd1 O21 2.395 . S
Gd1 O25 2.327 . S
Gd1 O26 2.377 1_455 S
Gd1 O28 2.448 1_455 S
Gd1 O29 2.506 1_455 S
Gd1 O30 2.435 . S
Gd1 O31 2.717 . S
C2 O20 1.240 . S
C2 O21 1.240 . S
C3 Gd0 2.818 . S
C3 C4 1.510 . S
C3 O22 1.249 . S
C3 O23 1.252 . S
C4 C3 1.510 . S
C4 C5 1.404 . S
C4 C6 1.352 . S
C5 C4 1.404 . S
C5 C9 1.389 . S
C5 H32 0.930 . S
C6 C4 1.352 . S
C6 C8 1.374 . S
C6 H33 0.931 . S
C7 C8 1.359 . S
C7 C9 1.364 . S
C8 C6 1.374 . S
C8 C7 1.359 . S
C8 H34 0.931 . S
C9 C5 1.389 . S
C9 C7 1.364 . S
C9 H35 0.931 . S
C10 O24 1.256 . S
C10 O25 1.257 . S
C11 O26 1.240 . S
C11 O27 1.240 1_655 S
C12 Gd1 2.818 1_655 S
C12 C13 1.510 . S
C12 O28 1.249 . S
C12 O29 1.252 . S
C13 C12 1.510 . S
C13 C14 1.404 . S
C13 C15 1.352 . S
C14 C13 1.404 . S
C14 C18 1.389 . S
C14 H36 0.930 . S
C15 C13 1.352 . S
C15 C17 1.374 . S
C15 H37 0.931 . S
C16 C17 1.359 . S
C16 C18 1.364 . S
C17 C15 1.374 . S
C17 C16 1.359 . S
C17 H38 0.931 . S
C18 C14 1.389 . S
C18 C16 1.364 . S
C18 H39 0.931 . S
C19 O30 1.256 . S
C19 O31 1.257 . S
O20 Gd0 2.377 . S
O20 C2 1.240 . S
O21 Gd1 2.395 . S
O21 C2 1.240 . S
O22 Gd0 2.448 . S
O22 C3 1.249 . S
O23 Gd0 2.506 . S
O23 C3 1.252 . S
O24 Gd0 2.435 . S
O24 C10 1.256 . S
O25 Gd0 2.717 . S
O25 Gd1 2.327 . S
O25 C10 1.257 . S
O26 Gd1 2.377 1_655 S
O26 C11 1.240 . S
O27 Gd0 2.395 . S
O27 C11 1.240 1_455 S
O28 Gd1 2.448 1_655 S
O28 C12 1.249 . S
O29 Gd1 2.506 1_655 S
O29 C12 1.252 . S
O30 Gd1 2.435 . S
O30 C19 1.256 . S
O31 Gd0 2.327 . S
O31 Gd1 2.717 . S
O31 C19 1.257 . S
H32 C5 0.930 . S
H33 C6 0.931 . S
H34 C8 0.931 . S
H35 C9 0.931 . S
H36 C14 0.930 . S
H37 C15 0.931 . S
H38 C17 0.931 . S
H39 C18 0.931 . S
Gd40 C43 2.818 1_545 S
Gd40 O60 2.377 1_545 S
Gd40 O62 2.448 1_545 S
Gd40 O63 2.506 1_545 S
Gd40 O64 2.435 . S
Gd40 O65 2.717 . S
Gd40 O67 2.395 . S
Gd40 O71 2.327 . S
Gd41 C52 2.818 . S
Gd41 O61 2.395 1_545 S
Gd41 O65 2.327 . S
Gd41 O66 2.377 . S
Gd41 O68 2.448 . S
Gd41 O69 2.506 . S
Gd41 O70 2.435 . S
Gd41 O71 2.717 . S
C42 O60 1.240 . S
C42 O61 1.240 . S
C43 Gd40 2.818 1_565 S
C43 C44 1.510 . S
C43 O62 1.249 . S
C43 O63 1.252 . S
C44 C43 1.510 . S
C44 C45 1.404 . S
C44 C46 1.352 . S
C45 C44 1.404 . S
C45 C49 1.389 . S
C45 H72 0.930 . S
C46 C44 1.352 . S
C46 C48 1.374 . S
C46 H73 0.931 . S
C47 C48 1.359 . S
C47 C49 1.364 . S
C48 C46 1.374 . S
C48 C47 1.359 . S
C48 H74 0.931 . S
C49 C45 1.389 . S
C49 C47 1.364 . S
C49 H75 0.931 . S
C50 O64 1.256 . S
C50 O65 1.257 . S
C51 O66 1.240 . S
C51 O67 1.240 . S
C52 Gd41 2.818 . S
C52 C53 1.510 . S
C52 O68 1.249 . S
C52 O69 1.252 . S
C53 C52 1.510 . S
C53 C54 1.404 . S
C53 C55 1.352 . S
C54 C53 1.404 . S
C54 C58 1.389 . S
C54 H76 0.930 . S
C55 C53 1.352 . S
C55 C57 1.374 . S
C55 H77 0.931 . S
C56 C57 1.359 . S
C56 C58 1.364 . S
C57 C55 1.374 . S
C57 C56 1.359 . S
C57 H78 0.931 . S
C58 C54 1.389 . S
C58 C56 1.364 . S
C58 H79 0.931 . S
C59 O70 1.256 . S
C59 O71 1.257 . S
O60 Gd40 2.377 1_565 S
O60 C42 1.240 . S
O61 Gd41 2.395 1_565 S
O61 C42 1.240 . S
O62 Gd40 2.448 1_565 S
O62 C43 1.249 . S
O63 Gd40 2.506 1_565 S
O63 C43 1.252 . S
O64 Gd40 2.435 . S
O64 C50 1.256 . S
O65 Gd40 2.717 . S
O65 Gd41 2.327 . S
O65 C50 1.257 . S
O66 Gd41 2.377 . S
O66 C51 1.240 . S
O67 Gd40 2.395 . S
O67 C51 1.240 . S
O68 Gd41 2.448 . S
O68 C52 1.249 . S
O69 Gd41 2.506 . S
O69 C52 1.252 . S
O70 Gd41 2.435 . S
O70 C59 1.256 . S
O71 Gd40 2.327 . S
O71 Gd41 2.717 . S
O71 C59 1.257 . S
H72 C45 0.930 . S
H73 C46 0.931 . S
H74 C48 0.931 . S
H75 C49 0.931 . S
H76 C54 0.930 . S
H77 C55 0.931 . S
H78 C57 0.931 . S
H79 C58 0.931 . S
Gd80 C83 2.818 . S
Gd80 O100 2.377 . S
Gd80 O102 2.448 . S
Gd80 O103 2.506 . S
Gd80 O104 2.435 . S
Gd80 O105 2.717 . S
Gd80 O107 2.395 . S
Gd80 O111 2.327 . S
Gd81 C92 2.818 . S
Gd81 O101 2.395 . S
Gd81 O105 2.327 . S
Gd81 O106 2.377 . S
Gd81 O108 2.448 . S
Gd81 O109 2.506 . S
Gd81 O110 2.435 . S
Gd81 O111 2.717 . S
C82 O100 1.240 . S
C82 O101 1.240 . S
C83 Gd80 2.818 . S
C83 C84 1.510 . S
C83 O102 1.249 . S
C83 O103 1.252 . S
C84 C83 1.510 . S
C84 C85 1.404 . S
C84 C86 1.352 . S
C85 C84 1.404 . S
C85 C89 1.389 . S
C85 H112 0.930 . S
C86 C84 1.352 . S
C86 C88 1.374 . S
C86 H113 0.931 . S
C87 C88 1.359 . S
C87 C89 1.364 . S
C88 C86 1.374 . S
C88 C87 1.359 . S
C88 H114 0.931 . S
C89 C85 1.389 . S
C89 C87 1.364 . S
C89 H115 0.931 . S
C90 O104 1.256 . S
C90 O105 1.257 . S
C91 O106 1.240 . S
C91 O107 1.240 . S
C92 Gd81 2.818 . S
C92 C93 1.510 . S
C92 O108 1.249 . S
C92 O109 1.252 . S
C93 C92 1.510 . S
C93 C94 1.404 . S
C93 C95 1.352 . S
C94 C93 1.404 . S
C94 C98 1.389 . S
C94 H116 0.930 . S
C95 C93 1.352 . S
C95 C97 1.374 . S
C95 H117 0.931 . S
C96 C97 1.359 . S
C96 C98 1.364 . S
C97 C95 1.374 . S
C97 C96 1.359 . S
C97 H118 0.931 . S
C98 C94 1.389 . S
C98 C96 1.364 . S
C98 H119 0.931 . S
C99 O110 1.256 . S
C99 O111 1.257 . S
O100 Gd80 2.377 . S
O100 C82 1.240 . S
O101 Gd81 2.395 . S
O101 C82 1.240 . S
O102 Gd80 2.448 . S
O102 C83 1.249 . S
O103 Gd80 2.506 . S
O103 C83 1.252 . S
O104 Gd80 2.435 . S
O104 C90 1.256 . S
O105 Gd80 2.717 . S
O105 Gd81 2.327 . S
O105 C90 1.257 . S
O106 Gd81 2.377 . S
O106 C91 1.240 . S
O107 Gd80 2.395 . S
O107 C91 1.240 . S
O108 Gd81 2.448 . S
O108 C92 1.249 . S
O109 Gd81 2.506 . S
O109 C92 1.252 . S
O110 Gd81 2.435 . S
O110 C99 1.256 . S
O111 Gd80 2.327 . S
O111 Gd81 2.717 . S
O111 C99 1.257 . S
H112 C85 0.930 . S
H113 C86 0.931 . S
H114 C88 0.931 . S
H115 C89 0.931 . S
H116 C94 0.930 . S
H117 C95 0.931 . S
H118 C97 0.931 . S
H119 C98 0.931 . S
H120 C125 0.930 . S
H121 C128 0.930 . S
H122 C130 0.930 . S
H123 C124 1.016 . S
C124 H123 1.016 . S
C124 N131 1.286 . S
C125 H120 0.930 . S
C125 C126 1.397 1_545 S
C125 C127 1.361 . S
C126 C125 1.397 1_565 S
C126 C130 1.390 . S
C127 C125 1.361 . S
C127 C128 1.393 . S
C127 N131 1.413 . S
C128 H121 0.930 . S
C128 C127 1.393 . S
C128 C129 1.399 . S
C129 C128 1.399 . S
C129 C130 1.381 1_545 S
C130 H122 0.930 . S
C130 C126 1.390 . S
C130 C129 1.381 1_565 S
N131 C124 1.286 . S
N131 C127 1.413 . S
H132 C137 0.930 . S
H133 C140 0.930 . S
H134 C142 0.930 . S
H135 C136 1.016 . S
C136 H135 1.016 . S
C136 N143 1.286 . S
C137 H132 0.930 . S
C137 C138 1.397 . S
C137 C139 1.361 . S
C138 C137 1.397 . S
C138 C142 1.390 . S
C139 C137 1.361 . S
C139 C140 1.393 . S
C139 N143 1.413 . S
C140 H133 0.930 . S
C140 C139 1.393 . S
C140 C141 1.399 . S
C141 C140 1.399 . S
C141 C142 1.381 . S
C142 H134 0.930 . S
C142 C138 1.390 . S
C142 C141 1.381 . S
N143 C136 1.286 . S
N143 C139 1.413 . S
H144 C149 0.930 . S
H145 C152 0.930 . S
H146 C154 0.930 1_655 S
H147 C148 1.016 . S
C148 H147 1.016 . S
C148 N155 1.286 . S
C149 H144 0.930 . S
C149 C150 1.397 1_455 S
C149 C151 1.361 . S
C150 C149 1.397 1_655 S
C150 C154 1.390 1_655 S
C151 C149 1.361 . S
C151 C152 1.393 . S
C151 N155 1.413 . S
C152 H145 0.930 . S
C152 C151 1.393 . S
C152 C153 1.399 . S
C153 C152 1.399 . S
C153 C154 1.381 . S
C154 H146 0.930 1_455 S
C154 C150 1.390 1_455 S
C154 C153 1.381 . S
N155 C148 1.286 . S
N155 C151 1.413 . S
H156 C161 0.930 . S
H157 C164 0.930 . S
H158 C166 0.930 . S
H159 C160 1.016 . S
C160 H159 1.016 . S
C160 N167 1.286 . S
C161 H156 0.930 . S
C161 C162 1.397 . S
C161 C163 1.361 1_455 S
C162 C161 1.397 . S
C162 C166 1.390 . S
C163 C161 1.361 1_655 S
C163 C164 1.393 . S
C163 N167 1.413 . S
C164 H157 0.930 . S
C164 C163 1.393 . S
C164 C165 1.399 1_655 S
C165 C164 1.399 1_455 S
C165 C166 1.381 . S
C166 H158 0.930 . S
C166 C162 1.390 . S
C166 C165 1.381 . S
N167 C160 1.286 . S
N167 C163 1.413 . S
H168 C173 0.930 . S
H169 C176 0.932 1_565 S
H170 C178 0.930 . S
H171 C172 1.016 . S
C172 H171 1.016 . S
C172 N179 1.286 . S
C173 H168 0.930 . S
C173 C174 1.397 . S
C173 C175 1.361 . S
C174 C173 1.397 . S
C174 C178 1.390 . S
C175 C173 1.361 . S
C175 C176 1.393 . S
C175 N179 1.413 1_545 S
C176 H169 0.932 1_545 S
C176 C175 1.393 . S
C176 C177 1.397 . S
C177 C176 1.397 . S
C177 C178 1.381 . S
C178 H170 0.930 . S
C178 C174 1.390 . S
C178 C177 1.381 . S
N179 C172 1.286 . S
N179 C175 1.413 1_565 S
H180 C185 0.930 . S
H181 C188 0.930 . S
H182 C190 0.930 . S
H183 C184 1.016 . S
C184 H183 1.016 . S
C184 N191 1.286 . S
C185 H180 0.930 . S
C185 C186 1.397 . S
C185 C187 1.361 . S
C186 C185 1.397 . S
C186 C190 1.390 . S
C187 C185 1.361 . S
C187 C188 1.393 . S
C187 N191 1.413 . S
C188 H181 0.930 . S
C188 C187 1.393 . S
C188 C189 1.399 . S
C189 C188 1.399 . S
C189 C190 1.381 . S
C190 H182 0.930 . S
C190 C186 1.390 . S
C190 C189 1.381 . S
N191 C184 1.286 . S
N191 C187 1.413 . S
H192 C198 0.930 . S
H193 C201 0.930 . S
H194 C202 0.930 . S
H195 C203 0.930 . S
H196 C206 0.930 . S
H197 C207 0.930 . S
C198 H192 0.930 . S
C198 C199 1.355 . S
C198 C200 1.415 . S
C199 C198 1.355 . S
C199 C201 1.419 . S
C200 C198 1.415 . S
C200 C205 1.425 . S
C200 C207 1.409 . S
C201 H193 0.930 . S
C201 C199 1.419 . S
C201 C202 1.362 . S
C202 H194 0.930 . S
C202 C201 1.362 . S
C202 C205 1.409 . S
C203 H195 0.930 . S
C203 C204 1.355 . S
C203 C205 1.415 . S
C204 C203 1.355 . S
C204 C206 1.419 . S
C205 C200 1.425 . S
C205 C202 1.409 . S
C205 C203 1.415 . S
C206 H196 0.930 . S
C206 C204 1.419 . S
C206 C207 1.362 . S
C207 H197 0.930 . S
C207 C200 1.409 . S
C207 C206 1.362 . S
H208 C214 0.930 . S
H209 C217 0.930 . S
H210 C218 0.930 . S
H211 C219 0.930 . S
H212 C222 0.930 . S
H213 C223 0.930 . S
C214 H208 0.930 . S
C214 C215 1.355 . S
C214 C216 1.415 . S
C215 C214 1.355 . S
C215 C217 1.419 . S
C216 C214 1.415 . S
C216 C221 1.425 . S
C216 C223 1.409 . S
C217 H209 0.930 . S
C217 C215 1.419 . S
C217 C218 1.362 . S
C218 H210 0.930 . S
C218 C217 1.362 . S
C218 C221 1.409 . S
C219 H211 0.930 . S
C219 C220 1.355 . S
C219 C221 1.415 . S
C220 C219 1.355 . S
C220 C222 1.419 . S
C221 C216 1.425 . S
C221 C218 1.409 . S
C221 C219 1.415 . S
C222 H212 0.930 . S
C222 C220 1.419 . S
C222 C223 1.362 . S
C223 H213 0.930 . S
C223 C216 1.409 . S
C223 C222 1.362 . S
H224 C230 0.930 . S
H225 C233 0.930 . S
H226 C234 0.930 . S
H227 C235 0.930 . S
H228 C238 0.930 . S
H229 C239 0.930 . S
C230 H224 0.930 . S
C230 C231 1.355 . S
C230 C232 1.415 . S
C231 C230 1.355 . S
C231 C233 1.419 . S
C232 C230 1.415 . S
C232 C237 1.425 . S
C232 C239 1.409 . S
C233 H225 0.930 . S
C233 C231 1.419 . S
C233 C234 1.362 . S
C234 H226 0.930 . S
C234 C233 1.362 . S
C234 C237 1.409 . S
C235 H227 0.930 . S
C235 C236 1.355 . S
C235 C237 1.415 . S
C236 C235 1.355 . S
C236 C238 1.419 . S
C237 C232 1.425 . S
C237 C234 1.409 . S
C237 C235 1.415 . S
C238 H228 0.930 . S
C238 C236 1.419 . S
C238 C239 1.362 . S
C239 H229 0.930 . S
C239 C232 1.409 . S
C239 C238 1.362 . S
H240 C246 0.930 . S
H241 C249 0.930 . S
H242 C250 0.930 . S
H243 C251 0.930 . S
H244 C254 0.930 . S
H245 C255 0.930 . S
C246 H240 0.930 . S
C246 C247 1.355 . S
C246 C248 1.415 . S
C247 C246 1.355 . S
C247 C249 1.419 . S
C248 C246 1.415 . S
C248 C253 1.425 . S
C248 C255 1.409 . S
C249 H241 0.930 . S
C249 C247 1.419 . S
C249 C250 1.362 . S
C250 H242 0.930 . S
C250 C249 1.362 . S
C250 C253 1.409 . S
C251 H243 0.930 . S
C251 C252 1.355 . S
C251 C253 1.415 . S
C252 C251 1.355 . S
C252 C254 1.419 . S
C253 C248 1.425 . S
C253 C250 1.409 . S
C253 C251 1.415 . S
C254 H244 0.930 . S
C254 C252 1.419 . S
C254 C255 1.362 . S
C255 H245 0.930 . S
C255 C248 1.409 . S
C255 C254 1.362 . S
H256 C262 0.930 . S
H257 C265 0.930 . S
H258 C266 0.930 . S
H259 C267 0.930 . S
H260 C270 0.930 . S
H261 C271 0.930 . S
C262 H256 0.930 . S
C262 C263 1.355 . S
C262 C264 1.415 . S
C263 C262 1.355 . S
C263 C265 1.419 . S
C264 C262 1.415 . S
C264 C269 1.425 . S
C264 C271 1.409 . S
C265 H257 0.930 . S
C265 C263 1.419 . S
C265 C266 1.362 . S
C266 H258 0.930 . S
C266 C265 1.362 . S
C266 C269 1.409 . S
C267 H259 0.930 . S
C267 C268 1.355 . S
C267 C269 1.415 . S
C268 C267 1.355 . S
C268 C270 1.419 . S
C269 C264 1.425 . S
C269 C266 1.409 . S
C269 C267 1.415 . S
C270 H260 0.930 . S
C270 C268 1.419 . S
C270 C271 1.362 . S
C271 H261 0.930 . S
C271 C264 1.409 . S
C271 C270 1.362 . S
H272 C278 0.930 . S
H273 C281 0.930 . S
H274 C282 0.930 . S
H275 C283 0.930 . S
H276 C286 0.930 . S
H277 C287 0.930 . S
C278 H272 0.930 . S
C278 C279 1.355 . S
C278 C280 1.415 . S
C279 C278 1.355 . S
C279 C281 1.419 . S
C280 C278 1.415 . S
C280 C285 1.425 . S
C280 C287 1.409 . S
C281 H273 0.930 . S
C281 C279 1.419 . S
C281 C282 1.362 . S
C282 H274 0.930 . S
C282 C281 1.362 . S
C282 C285 1.409 . S
C283 H275 0.930 . S
C283 C284 1.355 . S
C283 C285 1.415 . S
C284 C283 1.355 . S
C284 C286 1.419 . S
C285 C280 1.425 . S
C285 C282 1.409 . S
C285 C283 1.415 . S
C286 H276 0.930 . S
C286 C284 1.419 . S
C286 C287 1.362 . S
C287 H277 0.930 . S
C287 C280 1.409 . S
C287 C286 1.362 . S
H288 C294 0.930 . S
H289 C297 0.930 . S
H290 C298 0.930 . S
H291 C299 0.930 . S
H292 C302 0.930 . S
H293 C303 0.930 . S
C294 H288 0.930 . S
C294 C295 1.355 . S
C294 C296 1.415 . S
C295 C294 1.355 . S
C295 C297 1.419 . S
C296 C294 1.415 . S
C296 C301 1.425 . S
C296 C303 1.409 . S
C297 H289 0.930 . S
C297 C295 1.419 . S
C297 C298 1.362 . S
C298 H290 0.930 . S
C298 C297 1.362 . S
C298 C301 1.409 . S
C299 H291 0.930 . S
C299 C300 1.355 . S
C299 C301 1.415 . S
C300 C299 1.355 . S
C300 C302 1.419 . S
C301 C296 1.425 . S
C301 C298 1.409 . S
C301 C299 1.415 . S
C302 H292 0.930 . S
C302 C300 1.419 . S
C302 C303 1.362 . S
C303 H293 0.930 . S
C303 C296 1.409 . S
C303 C302 1.362 . S
H304 C310 0.930 . S
H305 C313 0.930 . S
H306 C314 0.930 . S
H307 C315 0.930 . S
H308 C318 0.930 . S
H309 C319 0.930 . S
C310 H304 0.930 . S
C310 C311 1.355 . S
C310 C312 1.415 . S
C311 C310 1.355 . S
C311 C313 1.419 . S
C312 C310 1.415 . S
C312 C317 1.425 . S
C312 C319 1.409 . S
C313 H305 0.930 . S
C313 C311 1.419 . S
C313 C314 1.362 . S
C314 H306 0.930 . S
C314 C313 1.362 . S
C314 C317 1.409 . S
C315 H307 0.930 . S
C315 C316 1.355 . S
C315 C317 1.415 . S
C316 C315 1.355 . S
C316 C318 1.419 . S
C317 C312 1.425 . S
C317 C314 1.409 . S
C317 C315 1.415 . S
C318 H308 0.930 . S
C318 C316 1.419 . S
C318 C319 1.362 . S
C319 H309 0.930 . S
C319 C312 1.409 . S
C319 C318 1.362 . S
H320 C326 0.930 . S
H321 C329 0.930 . S
H322 C330 0.930 . S
H323 C331 0.930 . S
H324 C334 0.930 . S
H325 C335 0.930 . S
C326 H320 0.930 . S
C326 C327 1.355 . S
C326 C328 1.415 . S
C327 C326 1.355 . S
C327 C329 1.419 . S
C328 C326 1.415 . S
C328 C333 1.425 . S
C328 C335 1.409 . S
C329 H321 0.930 . S
C329 C327 1.419 . S
C329 C330 1.362 . S
C330 H322 0.930 . S
C330 C329 1.362 . S
C330 C333 1.409 . S
C331 H323 0.930 . S
C331 C332 1.355 . S
C331 C333 1.415 . S
C332 C331 1.355 . S
C332 C334 1.419 . S
C333 C328 1.425 . S
C333 C330 1.409 . S
C333 C331 1.415 . S
C334 H324 0.930 . S
C334 C332 1.419 . S
C334 C335 1.362 . S
C335 H325 0.930 . S
C335 C328 1.409 . S
C335 C334 1.362 . S
H336 C342 0.930 . S
H337 C345 0.930 . S
H338 C346 0.930 . S
H339 C347 0.930 . S
H340 C350 0.930 . S
H341 C351 0.930 . S
C342 H336 0.930 . S
C342 C343 1.355 . S
C342 C344 1.415 . S
C343 C342 1.355 . S
C343 C345 1.419 . S
C344 C342 1.415 . S
C344 C349 1.425 . S
C344 C351 1.409 . S
C345 H337 0.930 . S
C345 C343 1.419 . S
C345 C346 1.362 . S
C346 H338 0.930 . S
C346 C345 1.362 . S
C346 C349 1.409 . S
C347 H339 0.930 . S
C347 C348 1.355 . S
C347 C349 1.415 . S
C348 C347 1.355 . S
C348 C350 1.419 . S
C349 C344 1.425 . S
C349 C346 1.409 . S
C349 C347 1.415 . S
C350 H340 0.930 . S
C350 C348 1.419 . S
C350 C351 1.362 . S
C351 H341 0.930 . S
C351 C344 1.409 . S
C351 C350 1.362 . S
H352 C358 0.930 . S
H353 C361 0.930 . S
H354 C362 0.930 . S
H355 C363 0.930 . S
H356 C366 0.930 . S
H357 C367 0.930 . S
C358 H352 0.930 . S
C358 C359 1.355 . S
C358 C360 1.415 . S
C359 C358 1.355 . S
C359 C361 1.419 . S
C360 C358 1.415 . S
C360 C365 1.425 . S
C360 C367 1.409 . S
C361 H353 0.930 . S
C361 C359 1.419 . S
C361 C362 1.362 . S
C362 H354 0.930 . S
C362 C361 1.362 . S
C362 C365 1.409 . S
C363 H355 0.930 . S
C363 C364 1.355 . S
C363 C365 1.415 . S
C364 C363 1.355 . S
C364 C366 1.419 . S
C365 C360 1.425 . S
C365 C362 1.409 . S
C365 C363 1.415 . S
C366 H356 0.930 . S
C366 C364 1.419 . S
C366 C367 1.362 . S
C367 H357 0.930 . S
C367 C360 1.409 . S
C367 C366 1.362 . S
H368 C374 0.930 . S
H369 C377 0.930 . S
H370 C378 0.930 . S
H371 C379 0.930 . S
H372 C382 0.930 . S
H373 C383 0.930 . S
C374 H368 0.930 . S
C374 C375 1.355 . S
C374 C376 1.415 . S
C375 C374 1.355 . S
C375 C377 1.419 . S
C376 C374 1.415 . S
C376 C381 1.425 . S
C376 C383 1.409 . S
C377 H369 0.930 . S
C377 C375 1.419 . S
C377 C378 1.362 . S
C378 H370 0.930 . S
C378 C377 1.362 . S
C378 C381 1.409 . S
C379 H371 0.930 . S
C379 C380 1.355 . S
C379 C381 1.415 . S
C380 C379 1.355 . S
C380 C382 1.419 . S
C381 C376 1.425 . S
C381 C378 1.409 . S
C381 C379 1.415 . S
C382 H372 0.930 . S
C382 C380 1.419 . S
C382 C383 1.362 . S
C383 H373 0.930 . S
C383 C376 1.409 . S
C383 C382 1.362 . S
H384 C390 0.930 . S
H385 C393 0.930 . S
H386 C394 0.930 . S
H387 C395 0.930 . S
H388 C398 0.930 . S
H389 C399 0.930 1_554 S
C390 H384 0.930 . S
C390 C391 1.355 . S
C390 C392 1.415 . S
C391 C390 1.355 . S
C391 C393 1.419 . S
C392 C390 1.415 . S
C392 C397 1.425 . S
C392 C399 1.409 1_454 S
C393 H385 0.930 . S
C393 C391 1.419 . S
C393 C394 1.362 . S
C394 H386 0.930 . S
C394 C393 1.362 . S
C394 C397 1.409 . S
C395 H387 0.930 . S
C395 C396 1.355 . S
C395 C397 1.415 1_556 S
C396 C395 1.355 . S
C396 C398 1.419 1_455 S
C397 C392 1.425 . S
C397 C394 1.409 . S
C397 C395 1.415 1_554 S
C398 H388 0.930 . S
C398 C396 1.419 1_655 S
C398 C399 1.362 . S
C399 H389 0.930 1_556 S
C399 C392 1.409 1_656 S
C399 C398 1.362 . S
H400 C406 0.930 . S
H401 C409 0.930 . S
H402 C410 0.930 . S
H403 C411 0.930 1_565 S
H404 C414 0.930 . S
H405 C415 0.930 . S
C406 H400 0.930 . S
C406 C407 1.355 . S
C406 C408 1.415 . S
C407 C406 1.355 . S
C407 C409 1.419 1_545 S
C408 C406 1.415 . S
C408 C413 1.425 . S
C408 C415 1.409 . S
C409 H401 0.930 . S
C409 C407 1.419 1_565 S
C409 C410 1.362 . S
C410 H402 0.930 . S
C410 C409 1.362 . S
C410 C413 1.409 1_565 S
C411 H403 0.930 1_545 S
C411 C412 1.355 . S
C411 C413 1.415 . S
C412 C411 1.355 . S
C412 C414 1.419 . S
C413 C408 1.425 . S
C413 C410 1.409 1_545 S
C413 C411 1.415 . S
C414 H404 0.930 . S
C414 C412 1.419 . S
C414 C415 1.362 . S
C415 H405 0.930 . S
C415 C408 1.409 . S
C415 C414 1.362 . S
H416 C422 0.930 . S
H417 C425 0.930 . S
H418 C426 0.930 . S
H419 C427 0.930 . S
H420 C430 0.930 . S
H421 C431 0.930 . S
C422 H416 0.930 . S
C422 C423 1.355 . S
C422 C424 1.415 . S
C423 C422 1.355 . S
C423 C425 1.419 . S
C424 C422 1.415 . S
C424 C429 1.425 . S
C424 C431 1.409 . S
C425 H417 0.930 . S
C425 C423 1.419 . S
C425 C426 1.362 . S
C426 H418 0.930 . S
C426 C425 1.362 . S
C426 C429 1.409 . S
C427 H419 0.930 . S
C427 C428 1.355 . S
C427 C429 1.415 . S
C428 C427 1.355 . S
C428 C430 1.419 . S
C429 C424 1.425 . S
C429 C426 1.409 . S
C429 C427 1.415 . S
C430 H420 0.930 . S
C430 C428 1.419 . S
C430 C431 1.362 . S
C431 H421 0.930 . S
C431 C424 1.409 . S
C431 C430 1.362 . S
H432 C438 0.930 . S
H433 C441 0.930 . S
H434 C442 0.930 . S
H435 C443 0.930 . S
H436 C446 0.930 . S
H437 C447 0.930 . S
C438 H432 0.930 . S
C438 C439 1.355 1_565 S
C438 C440 1.415 . S
C439 C438 1.355 1_545 S
C439 C441 1.419 . S
C440 C438 1.415 . S
C440 C445 1.425 1_565 S
C440 C447 1.409 . S
C441 H433 0.930 . S
C441 C439 1.419 . S
C441 C442 1.362 . S
C442 H434 0.930 . S
C442 C441 1.362 . S
C442 C445 1.409 . S
C443 H435 0.930 . S
C443 C444 1.355 . S
C443 C445 1.415 . S
C444 C443 1.355 . S
C444 C446 1.419 1_545 S
C445 C440 1.425 1_545 S
C445 C442 1.409 . S
C445 C443 1.415 . S
C446 H436 0.930 . S
C446 C444 1.419 1_565 S
C446 C447 1.362 . S
C447 H437 0.930 . S
C447 C440 1.409 . S
C447 C446 1.362 . S
H448 C454 0.930 . S
H449 C457 0.930 . S
H450 C458 0.930 . S
H451 C459 0.930 . S
H452 C462 0.930 . S
H453 C463 0.930 . S
C454 H448 0.930 . S
C454 C455 1.355 . S
C454 C456 1.415 . S
C455 C454 1.355 . S
C455 C457 1.419 . S
C456 C454 1.415 . S
C456 C461 1.425 . S
C456 C463 1.409 . S
C457 H449 0.930 . S
C457 C455 1.419 . S
C457 C458 1.362 . S
C458 H450 0.930 . S
C458 C457 1.362 . S
C458 C461 1.409 . S
C459 H451 0.930 . S
C459 C460 1.355 . S
C459 C461 1.415 1_554 S
C460 C459 1.355 . S
C460 C462 1.419 . S
C461 C456 1.425 . S
C461 C458 1.409 . S
C461 C459 1.415 1_556 S
C462 H452 0.930 . S
C462 C460 1.419 . S
C462 C463 1.362 1_554 S
C463 H453 0.930 . S
C463 C456 1.409 . S
C463 C462 1.362 1_556 S
H464 C470 0.930 . S
H465 C473 0.930 . S
H466 C474 0.930 . S
H467 C475 0.930 . S
H468 C478 0.930 . S
H469 C479 0.930 . S
C470 H464 0.930 . S
C470 C471 1.355 . S
C470 C472 1.415 . S
C471 C470 1.355 . S
C471 C473 1.419 . S
C472 C470 1.415 . S
C472 C477 1.425 . S
C472 C479 1.409 . S
C473 H465 0.930 . S
C473 C471 1.419 . S
C473 C474 1.362 . S
C474 H466 0.930 . S
C474 C473 1.362 . S
C474 C477 1.409 . S
C475 H467 0.930 . S
C475 C476 1.355 . S
C475 C477 1.415 . S
C476 C475 1.355 . S
C476 C478 1.419 . S
C477 C472 1.425 . S
C477 C474 1.409 . S
C477 C475 1.415 . S
C478 H468 0.930 . S
C478 C476 1.419 . S
C478 C479 1.362 . S
C479 H469 0.930 . S
C479 C472 1.409 . S
C479 C478 1.362 . S
C199 C7 0.914 . S
C204 C186 1.001 . S
C215 C51 1.949 . S
C220 C160 1.872 . S
C231 C87 1.304 . S
C236 C172 1.317 . S
C247 C16 0.533 . S
C252 C184 0.229 . S
C268 C162 1.828 . S
C263 C42 1.900 . S
C284 C174 1.192 . S
C279 C96 1.194 . S
C295 C47 1.286 . S
C300 C136 1.340 . S
C311 C91 3.331 . S
C316 C150 3.303 . S
C327 C2 1.902 . S
C332 C126 1.907 . S
C348 C138 1.208 . S
C343 C56 1.187 . S
C364 C148 2.710 . S
C359 C82 2.828 . S
C375 C11 1.967 . S
C380 C124 1.912 . S
C396 C153 1.779 . S
C391 C19 1.711 . S
C407 C50 1.401 . S
C412 C129 1.477 . S
C423 C99 1.509 . S
C428 C141 1.513 . S
C444 C177 1.529 . S
C439 C59 1.489 . S
C460 C189 1.245 . S
C455 C90 1.185 . S
C471 C10 1.364 . S
C476 C165 1.427 . S
