# Generated by pormake.
# Topology pyr, (3,6)-cn, num edge types: 1
# Building blocks:
#     Node 0, Type 0, BuildingBlock: KAKCAD_clean_linker_0, # of connection points: 3
#     Node 1, Type 0, BuildingBlock: KAKCAD_clean_linker_0, # of connection points: 3
#     Node 2, Type 0, BuildingBlock: KAKCAD_clean_linker_0, # of connection points: 3
#     Node 3, Type 0, BuildingBlock: KAKCAD_clean_linker_0, # of connection points: 3
#     Node 4, Type 0, BuildingBlock: KAKCAD_clean_linker_0, # of connection points: 3
#     Node 5, Type 0, BuildingBlock: KAKCAD_clean_linker_0, # of connection points: 3
#     Node 6, Type 0, BuildingBlock: KAKCAD_clean_linker_0, # of connection points: 3
#     Node 7, Type 0, BuildingBlock: KAKCAD_clean_linker_0, # of connection points: 3
#     Node 8, Type 1, BuildingBlock: VOLQOD_clean_sbu_1, # of connection points: 6
#     Node 9, Type 1, BuildingBlock: VOLQOD_clean_sbu_1, # of connection points: 6
#     Node 10, Type 1, BuildingBlock: VOLQOD_clean_sbu_1, # of connection points: 6
#     Node 11, Type 1, BuildingBlock: VOLQOD_clean_sbu_1, # of connection points: 6
#     Edge 12, Type (0, 1), None
#     Edge 13, Type (0, 1), None
#     Edge 14, Type (0, 1), None
#     Edge 15, Type (0, 1), None
#     Edge 16, Type (0, 1), None
#     Edge 17, Type (0, 1), None
#     Edge 18, Type (0, 1), None
#     Edge 19, Type (0, 1), None
#     Edge 20, Type (0, 1), None
#     Edge 21, Type (0, 1), None
#     Edge 22, Type (0, 1), None
#     Edge 23, Type (0, 1), None
#     Edge 24, Type (0, 1), None
#     Edge 25, Type (0, 1), None
#     Edge 26, Type (0, 1), None
#     Edge 27, Type (0, 1), None
#     Edge 28, Type (0, 1), None
#     Edge 29, Type (0, 1), None
#     Edge 30, Type (0, 1), None
#     Edge 31, Type (0, 1), None
#     Edge 32, Type (0, 1), None
#     Edge 33, Type (0, 1), None
#     Edge 34, Type (0, 1), None
#     Edge 35, Type (0, 1), None
# Relax obj value: 0.035
# Max RMSD: 0.118
# Mean RMSD: 0.043
data_MOF--net-pry--node1-VOLQOD_clean_sbu_1--node2-KAKCAD_clean_linker_0--edge1-none
_symmetry_space_group_name_H-M    P1
_symmetry_Int_Tables_number       1
_symmetry_cell_setting            triclinic
loop_
_symmetry_equiv_pos_as_xyz
'x, y, z'
_cell_length_a     25.742335
_cell_length_b     25.759075
_cell_length_c     25.83891
_cell_angle_alpha  90.336094
_cell_angle_beta   89.981684
_cell_angle_gamma 90.11018
loop_
_atom_site_label
_atom_site_type_symbol
_atom_site_fract_x
_atom_site_fract_y
_atom_site_fract_z
_atom_type_partial_charge
C0 C 0.01056 0.05878 0.28183 0.0
C1 C 0.04775 0.05309 0.32126 0.0
C2 C 0.02596 0.07295 0.23185 0.0
C3 C 0.07878 0.08042 0.22048 0.0
C4 C 0.11583 0.07381 0.25971 0.0
C5 C 0.10049 0.06059 0.30957 0.0
C6 C 0.0961 0.09748 0.16876 0.0
C7 C 0.07593 0.14291 0.14702 0.0
C8 C 0.09885 0.16467 0.10272 0.0
C9 C 0.14177 0.13958 0.07993 0.0
C10 C 0.16288 0.09447 0.10176 0.0
C11 C 0.13843 0.07277 0.14513 0.0
C12 C 0.21417 0.07443 0.084 0.0
C13 C 0.22915 0.07688 0.03164 0.0
C14 C 0.2504 0.05646 0.1205 0.0
C15 C 0.30025 0.04203 0.10535 0.0
C16 C 0.31572 0.04623 0.05347 0.0
C17 C 0.08214 0.2166 0.08411 0.0
C18 C 0.02957 0.23155 0.08546 0.0
C19 C 0.11938 0.25277 0.06717 0.0
C20 C 0.10459 0.30233 0.05188 0.0
C21 C 0.05231 0.31753 0.05411 0.0
C22 C 0.01485 0.28168 0.07097 0.0
C23 C 0.27961 0.06338 0.01661 0.0
H24 H 0.9696 0.05341 0.28985 0.0
H25 H -0.00325 0.07803 0.20214 0.0
H26 H 0.15676 0.08008 0.2521 0.0
H27 H 0.1301 0.05628 0.33902 0.0
H28 H 0.04495 0.16328 0.16695 0.0
H29 H 0.15377 0.0377 0.16228 0.0
H30 H 0.16051 0.15685 0.0467 0.0
H31 H 0.20216 0.08982 0.00232 0.0
H32 H 0.24117 0.05533 0.16136 0.0
H33 H 0.32732 0.02937 0.13477 0.0
H34 H -0.0002 0.20458 0.09784 0.0
H35 H 0.16038 0.24351 0.06704 0.0
H36 H 0.29039 0.06651 0.97622 0.0
H37 H 0.97419 0.29228 0.07281 0.0
H38 H 0.1345 0.32925 0.03967 0.0
C39 C 0.40585 0.98017 0.80122 0.0
C40 C 0.45711 0.97175 0.81733 0.0
C41 C 0.38974 0.96414 0.75209 0.0
C42 C 0.42501 0.94068 0.7174 0.0
C43 C 0.47718 0.93526 0.73285 0.0
C44 C 0.49283 0.94982 0.78259 0.0
C45 C 0.40662 0.91826 0.66729 0.0
C46 C 0.36403 0.94 0.64097 0.0
C47 C 0.34217 0.91459 0.59806 0.0
C48 C 0.36555 0.86949 0.57877 0.0
C49 C 0.40772 0.84677 0.60442 0.0
C50 C 0.42802 0.87143 0.64859 0.0
C51 C 0.42625 0.79447 0.58844 0.0
C52 C 0.39021 0.75698 0.57159 0.0
C53 C 0.47914 0.78085 0.59122 0.0
C54 C 0.49544 0.73084 0.57716 0.0
C55 C 0.45918 0.694 0.55944 0.0
C56 C 0.29042 0.92988 0.57859 0.0
C57 C 0.25105 0.89218 0.57494 0.0
C58 C 0.27886 0.98167 0.56665 0.0
C59 C 0.22856 0.99545 0.55147 0.0
C60 C 0.18893 0.95778 0.54905 0.0
C61 C 0.20084 0.906 0.5606 0.0
C62 C 0.40651 0.7077 0.5568 0.0
H63 H 0.37751 -0.00334 0.82759 0.0
H64 H 0.34904 0.96812 0.7425 0.0
H65 H 0.50585 0.91871 0.70695 0.0
H66 H 0.53279 0.94354 0.79408 0.0
H67 H 0.34594 0.97516 0.65533 0.0
H68 H 0.4583 0.85221 0.67029 0.0
H69 H 0.3491 0.85083 0.54481 0.0
H70 H 0.34899 0.76524 0.5706 0.0
H71 H 0.50792 0.80887 0.60388 0.0
H72 H 0.53632 0.72125 0.57952 0.0
H73 H 0.25873 0.85207 0.58471 0.0
H74 H 0.30859 0.01138 0.56933 0.0
H75 H 0.37743 0.67991 0.54419 0.0
H76 H 0.17124 0.87608 0.55896 0.0
H77 H 0.22042 0.03575 0.54297 0.0
C78 C 0.78363 0.49868 0.94497 0.0
C79 C 0.81647 0.46313 0.9697 0.0
C80 C 0.73326 0.48417 0.93059 0.0
C81 C 0.71521 0.43335 0.93943 0.0
C82 C 0.74828 0.39821 0.96491 0.0
C83 C 0.79795 0.41317 0.9805 0.0
C84 C 0.6639 0.4155 0.91912 0.0
C85 C 0.64517 0.43347 0.87135 0.0
C86 C 0.60054 0.41159 0.84861 0.0
C87 C 0.57546 0.3701 0.87357 0.0
C88 C 0.59443 0.35061 0.92049 0.0
C89 C 0.63651 0.37584 0.94442 0.0
C90 C 0.57611 0.29952 0.94021 0.0
C91 C 0.5241 0.28327 0.93481 0.0
C92 C 0.6125 0.26435 0.96035 0.0
C93 C 0.59774 0.21433 0.97397 0.0
C94 C 0.5463 0.19748 0.96709 0.0
C95 C 0.58319 0.42867 0.7965 0.0
C96 C 0.58572 0.48127 0.78214 0.0
C97 C 0.56522 0.39206 0.76009 0.0
C98 C 0.54965 0.40757 0.71096 0.0
C99 C 0.55257 0.45996 0.69648 0.0
C100 C 0.57092 0.49672 0.73245 0.0
C101 C 0.50939 0.23257 0.94784 0.0
H102 H 0.79694 0.53767 0.93663 0.0
H103 H 0.7088 0.51264 0.91197 0.0
H104 H 0.73683 0.3583 0.97125 0.0
H105 H 0.82269 0.38482 -0.00099 0.0
H106 H 0.66703 0.46233 0.85017 0.0
H107 H 0.64957 0.36259 0.9819 0.0
H108 H 0.5426 0.35135 0.85517 0.0
H109 H 0.4949 0.3094 0.91989 0.0
H110 H 0.65319 0.27454 0.96375 0.0
H111 H 0.62735 0.1883 0.98836 0.0
H112 H 0.59892 0.51058 0.80936 0.0
H113 H 0.56413 0.35106 0.76899 0.0
H114 H 0.46932 0.22081 0.94252 0.0
H115 H 0.5734 0.53741 0.72239 0.0
H116 H 0.53635 0.37816 0.68387 0.0
C117 C 0.91271 0.52887 0.21837 0.0
C118 C 0.96279 0.54042 0.20055 0.0
C119 C 0.8971 0.54467 0.26768 0.0
C120 C 0.93174 0.57117 0.30087 0.0
C121 C 0.98297 0.5798 0.28383 0.0
C122 C -0.00191 0.56525 0.2339 0.0
C123 C 0.91283 0.59378 0.35064 0.0
C124 C 0.8723 0.56985 0.37808 0.0
C125 C 0.84649 0.59597 0.41849 0.0
C126 C 0.86585 0.64413 0.43552 0.0
C127 C 0.90813 0.66735 0.41039 0.0
C128 C 0.93081 0.64253 0.3676 0.0
C129 C 0.92523 0.71998 0.42561 0.0
C130 C 0.92759 0.75956 0.38859 0.0
C131 C 0.93818 0.73119 0.47721 0.0
C132 C 0.95344 0.78132 0.49157 0.0
C133 C 0.95499 0.82122 0.45469 0.0
C134 C 0.79528 0.5767 0.43707 0.0
C135 C 0.76055 0.55391 0.40156 0.0
C136 C 0.77873 0.58458 0.48846 0.0
C137 C 0.72819 0.57109 0.50347 0.0
C138 C 0.69358 0.54894 0.46749 0.0
C139 C 0.71067 0.53984 0.41666 0.0
C140 C 0.94197 0.80982 0.40305 0.0
H141 H 0.88465 0.51009 0.19319 0.0
H142 H 0.85701 0.5382 0.27852 0.0
H143 H 0.01117 0.59889 0.30855 0.0
H144 H 0.03722 0.57399 0.22115 0.0
H145 H 0.859 0.53166 0.36634 0.0
H146 H 0.96118 0.66245 0.34651 0.0
H147 H 0.84597 0.66548 0.46585 0.0
H148 H 0.91729 0.75184 0.34862 0.0
H149 H 0.93665 0.70112 0.50632 0.0
H150 H 0.96299 0.78903 0.53171 0.0
H151 H 0.77099 0.54858 0.36129 0.0
H152 H 0.80456 0.60166 0.51693 0.0
H153 H 0.94289 0.83973 0.37377 0.0
H154 H 0.68495 0.52325 0.38777 0.0
H155 H 0.71619 0.57823 0.54305 0.0
C156 C 0.96429 0.91532 0.71655 0.0
C157 C 0.95847 0.96708 0.70094 0.0
C158 C 0.95258 0.90068 0.76692 0.0
C159 C 0.93556 0.93752 0.80351 0.0
C160 C 0.93043 0.98961 0.78821 0.0
C161 C 0.94157 0.00423 0.73726 0.0
C162 C 0.91974 0.92008 0.85594 0.0
C163 C 0.94573 0.87848 0.87941 0.0
C164 C 0.92442 0.85331 0.92242 0.0
C165 C 0.87864 0.87246 0.94466 0.0
C166 C 0.85315 0.91517 0.92287 0.0
C167 C 0.87406 0.93915 0.87887 0.0
C168 C 0.80058 0.92938 0.94061 0.0
C169 C 0.76156 0.8913 0.94242 0.0
C170 C 0.78815 0.98111 0.95239 0.0
C171 C 0.73728 0.99457 0.96573 0.0
C172 C 0.69794 0.95662 0.9663 0.0
C173 C 0.94427 0.80182 0.93758 0.0
C174 C 0.95099 0.7635 0.89931 0.0
C175 C 0.95242 0.78908 0.98972 0.0
C176 C 0.96657 0.7385 0.0033 0.0
C177 C 0.97156 0.69984 0.96496 0.0
C178 C 0.9642 0.71303 0.91286 0.0
C179 C 0.71064 0.90484 0.95477 0.0
H180 H 0.9767 0.88556 0.68947 0.0
H181 H 0.95541 0.85993 0.77653 0.0
H182 H 0.91759 0.01898 0.81547 0.0
H183 H 0.93699 0.0445 0.72636 0.0
H184 H 0.98108 0.86332 0.86229 0.0
H185 H 0.85223 0.96964 0.86008 0.0
H186 H 0.86093 0.85207 0.97678 0.0
H187 H 0.77017 0.85123 0.93277 0.0
H188 H 0.81772 0.01106 0.95097 0.0
H189 H 0.72852 0.03482 0.97434 0.0
H190 H 0.94414 0.77208 0.85888 0.0
H191 H 0.94722 0.81802 0.01985 0.0
H192 H 0.68119 0.87474 0.95517 0.0
H193 H 0.96808 0.68416 0.88245 0.0
H194 H 0.97194 0.72928 0.04379 0.0
C195 C 0.51999 0.04326 0.23653 0.0
C196 C 0.55818 0.04368 0.19762 0.0
C197 C 0.53247 0.05817 0.28704 0.0
C198 C 0.58348 0.07273 0.29957 0.0
C199 C 0.622 0.07156 0.26114 0.0
C200 C 0.6094 0.05749 0.2105 0.0
C201 C 0.596 0.09286 0.35159 0.0
C202 C 0.63916 0.07403 0.37851 0.0
C203 C 0.65496 0.097 0.4255 0.0
C204 C 0.62641 0.13928 0.44517 0.0
C205 C 0.58461 0.15981 0.41715 0.0
C206 C 0.56861 0.13543 0.37127 0.0
C207 C 0.56393 0.21151 0.4308 0.0
C208 C 0.54913 0.22361 0.48171 0.0
C209 C 0.56347 0.25058 0.39312 0.0
C210 C 0.55004 0.30126 0.40636 0.0
C211 C 0.53628 0.31381 0.45746 0.0
C212 C 0.70485 0.08102 0.44978 0.0
C213 C 0.72225 0.02938 0.44566 0.0
C214 C 0.73799 0.11829 0.4726 0.0
C215 C 0.78792 0.10473 0.48854 0.0
C216 C 0.80617 0.05412 0.48062 0.0
C217 C 0.77274 0.01629 0.46005 0.0
C218 C 0.53489 0.27435 0.49486 0.0
H219 H 0.48016 0.03288 0.22768 0.0
H220 H 0.50223 0.05893 0.31621 0.0
H221 H 0.6615 0.08324 0.26991 0.0
H222 H 0.63966 0.05791 0.18136 0.0
H223 H 0.66172 0.04299 0.36122 0.0
H224 H 0.53689 0.15176 0.34907 0.0
H225 H 0.63858 0.15843 0.48058 0.0
H226 H 0.54937 0.19406 0.51136 0.0
H227 H 0.57551 0.24239 0.35373 0.0
H228 H 0.55119 0.33076 0.37668 0.0
H229 H 0.69747 -0.00075 0.42975 0.0
H230 H 0.72673 0.15863 0.47572 0.0
H231 H 0.52449 0.28299 0.53461 0.0
H232 H 0.78597 0.97676 0.45433 0.0
H233 H 0.8133 0.13455 0.50415 0.0
C234 C 0.2128 0.61026 0.05647 0.0
C235 C 0.19989 0.55856 0.04468 0.0
C236 C 0.26356 0.62351 0.06994 0.0
C237 C 0.30213 0.58518 0.07264 0.0
C238 C 0.28962 0.53363 0.05995 0.0
C239 C 0.23896 0.52049 0.04547 0.0
C240 C 0.35383 0.59877 0.09323 0.0
C241 C 0.37212 0.574 0.13778 0.0
C242 C 0.41633 0.59273 0.16359 0.0
C243 C 0.44331 0.63544 0.14343 0.0
C244 C 0.42524 0.66062 0.0989 0.0
C245 C 0.3809 0.64159 0.07356 0.0
C246 C 0.44671 0.71163 0.08399 0.0
C247 C 0.45178 0.75079 0.12164 0.0
C248 C 0.45689 0.72334 0.03192 0.0
C249 C 0.47066 0.77383 0.01765 0.0
C250 C 0.47344 0.81347 0.05517 0.0
C251 C 0.42943 0.57329 0.21563 0.0
C252 C 0.39094 0.57196 0.2541 0.0
C253 C 0.48063 0.55981 0.22834 0.0
C254 C 0.49317 0.54553 0.27895 0.0
C255 C 0.45487 0.54563 0.31779 0.0
C256 C 0.40358 0.55861 0.30475 0.0
C257 C 0.46475 0.80121 0.10736 0.0
H258 H 0.18353 0.64042 0.05591 0.0
H259 H 0.27223 0.66343 0.08023 0.0
H260 H 0.31885 0.5035 0.06202 0.0
H261 H 0.23 0.48029 0.03668 0.0
H262 H 0.35003 0.54226 0.15431 0.0
H263 H 0.36535 0.66218 0.04052 0.0
H264 H 0.47631 0.65126 0.16435 0.0
H265 H 0.44339 0.74301 0.16195 0.0
H266 H 0.4531 0.69371 0.00223 0.0
H267 H 0.47724 0.78219 0.97714 0.0
H268 H 0.35129 0.58293 0.24538 0.0
H269 H 0.51093 0.56077 0.19925 0.0
H270 H 0.46705 0.83083 0.13722 0.0
H271 H 0.37319 0.55877 0.33376 0.0
H272 H 0.53307 0.53579 0.28793 0.0
C273 C 0.09323 0.21641 0.55159 0.0
C274 C 0.04137 0.20041 0.55625 0.0
C275 C 0.10765 0.26683 0.5644 0.0
C276 C 0.07044 0.30315 0.58117 0.0
C277 C 0.0183 0.28733 0.58556 0.0
C278 C 0.00391 0.23621 0.57345 0.0
C279 C 0.08756 0.35604 0.59682 0.0
C280 C 0.1295 0.37934 0.57107 0.0
C281 C 0.15512 0.42224 0.59253 0.0
C282 C 0.13576 0.44521 0.63774 0.0
C283 C 0.09257 0.42374 0.663 0.0
C284 C 0.06827 0.37944 0.64217 0.0
C285 C 0.07889 0.44171 0.71555 0.0
C286 C 0.11757 0.44414 0.75375 0.0
C287 C 0.02735 0.45349 0.72874 0.0
C288 C 0.01473 0.46753 0.77957 0.0
C289 C 0.05335 0.46881 0.81805 0.0
C290 C 0.20759 0.43568 0.57411 0.0
C291 C 0.24545 0.39659 0.57138 0.0
C292 C 0.22135 0.4871 0.56293 0.0
C293 C 0.27249 0.49916 0.54914 0.0
C294 C 0.31061 0.4601 0.54766 0.0
C295 C 0.29653 0.40872 0.55864 0.0
C296 C 0.10489 0.45724 0.80455 0.0
H297 H 0.12317 0.18957 0.5392 0.0
H298 H 0.14849 0.27676 0.56237 0.0
H299 H 0.98871 0.31435 0.59834 0.0
H300 H 0.96356 0.22485 0.57725 0.0
H301 H 0.14497 0.36184 0.53606 0.0
H302 H 0.03752 0.36071 0.66386 0.0
H303 H 0.15659 0.47738 0.6554 0.0
H304 H 0.1575 0.43447 0.74462 0.0
H305 H -0.00305 0.4516 0.6998 0.0
H306 H 0.97463 0.47611 0.789 0.0
H307 H 0.23583 0.35674 0.58067 0.0
H308 H 0.19271 0.51779 0.5652 0.0
H309 H 0.13551 0.45811 0.8333 0.0
H310 H 0.32505 0.37785 0.55755 0.0
H311 H 0.28246 0.53917 0.54102 0.0
O312 O 0.98616 0.12643 0.56191 0.0
Zn313 Zn 0.95672 0.05407 0.55643 0.0
O314 O -0.00146 0.00981 0.51022 0.0
Zn315 Zn 0.95824 0.98968 0.44935 0.0
Zn316 Zn 0.06007 0.04748 0.48848 0.0
Zn317 Zn 0.02034 0.94749 0.54612 0.0
O318 O 0.95462 0.91224 0.44151 0.0
O319 O 0.99293 0.88264 0.51233 0.0
O320 O 0.88374 0.06063 0.52951 0.0
O321 O 0.88485 0.01409 0.45665 0.0
O322 O 0.98884 0.01856 0.38345 0.0
O323 O 0.06352 0.05171 0.41138 0.0
O324 O 0.12616 0.01499 0.51359 0.0
O325 O 0.95319 0.02396 0.62854 0.0
O326 O 0.09808 0.94223 0.54963 0.0
O327 O 0.99449 0.9489 0.61871 0.0
C328 C 0.02756 0.14624 0.54367 0.0
C329 C 0.9686 0.87477 0.47016 0.0
C330 C 0.03234 0.0405 0.37477 0.0
C331 C 0.86098 0.0418 0.4899 0.0
C332 C 0.13498 0.97233 0.53642 0.0
C333 C 0.96954 0.9811 0.6467 0.0
O334 O 0.05866 0.11986 0.5158 0.0
O335 O 0.49032 0.12337 0.96221 0.0
Zn336 Zn 0.46113 0.05017 0.96693 0.0
O337 O 0.50712 0.00522 0.00761 0.0
Zn338 Zn 0.52945 0.94547 0.96642 0.0
Zn339 Zn 0.56838 0.04361 0.02994 0.0
Zn340 Zn 0.4702 0.98117 0.06854 0.0
O341 O 0.50484 0.87792 -0.00279 0.0
O342 O 0.46943 0.90378 0.07134 0.0
O343 O 0.45282 0.02151 0.89468 0.0
O344 O 0.50249 0.95085 0.89381 0.0
O345 O 0.60717 0.94139 0.96238 0.0
O346 O 0.63449 0.01224 0.00339 0.0
O347 O 0.57376 0.04706 0.10727 0.0
O348 O 0.38932 0.05408 -0.00177 0.0
O349 O 0.50266 0.00667 0.13419 0.0
O350 O 0.39671 0.00586 0.06878 0.0
C351 C 0.53266 0.14303 0.97893 0.0
C352 C 0.48327 0.86783 0.04036 0.0
C353 C 0.64373 0.97085 0.97801 0.0
C354 C 0.47222 0.98249 0.87121 0.0
C355 C 0.54435 0.03147 0.14358 0.0
C356 C 0.36984 0.03424 0.0389 0.0
O357 O 0.56512 0.11618 0.0044 0.0
O358 O 0.5545 0.51725 0.6243 0.0
Zn359 Zn 0.54697 0.54895 0.55307 0.0
O360 O 0.50233 0.50518 0.50853 0.0
Zn361 Zn 0.5404 0.48197 0.4477 0.0
Zn362 Zn 0.4785 0.44463 0.54662 0.0
Zn363 Zn 0.44216 0.54418 0.48549 0.0
O364 O 0.5094 0.50802 0.38147 0.0
O365 O 0.43861 0.54917 0.40811 0.0
O366 O 0.61924 0.55538 0.52249 0.0
O367 O 0.61316 0.50792 0.45065 0.0
O368 O 0.54253 0.40435 0.44302 0.0
O369 O 0.50074 0.37801 0.51324 0.0
O370 O 0.40086 0.44295 0.55213 0.0
O371 O 0.5165 0.6212 0.56168 0.0
O372 O 0.37537 0.51317 0.50987 0.0
O373 O 0.44436 0.61545 0.51474 0.0
C374 C 0.53719 0.47523 0.64367 0.0
C375 C 0.4683 0.53351 0.3719 0.0
C376 C 0.52558 0.36819 0.47184 0.0
C377 C 0.63937 0.53635 0.48149 0.0
C378 C 0.3651 0.47273 0.53585 0.0
C379 C 0.47486 0.64108 0.54398 0.0
O380 O 0.50818 0.44462 0.61782 0.0
O381 O 0.95639 0.49134 0.1228 0.0
Zn382 Zn 0.96456 0.46215 0.05073 0.0
O383 O 0.00844 0.5079 0.00909 0.0
Zn384 Zn 0.96891 0.53227 0.94969 0.0
Zn385 Zn 0.03152 0.56761 0.05006 0.0
Zn386 Zn 0.06922 0.46983 0.98522 0.0
O387 O -0.00101 0.50602 0.88265 0.0
O388 O 0.07067 0.46557 0.90791 0.0
O389 O 0.89327 0.4548 0.01964 0.0
O390 O 0.89459 0.50869 0.95282 0.0
O391 O 0.96857 0.60976 0.94729 0.0
O392 O 0.00483 0.63508 0.02124 0.0
O393 O 0.10925 0.57284 0.05137 0.0
O394 O 0.99553 0.39042 0.05685 0.0
O395 O 0.13582 0.50297 0.00837 0.0
O396 O 0.06923 0.39755 0.01278 0.0
C397 C 0.97683 0.5299 0.14629 0.0
C398 C 0.04024 0.48085 0.87234 0.0
C399 C 0.98238 0.64544 0.97867 0.0
C400 C 0.8707 0.47688 0.98188 0.0
C401 C 0.14551 0.54423 0.03383 0.0
C402 C 0.03783 0.37107 0.04005 0.0
O403 O 0.00715 0.56137 0.12338 0.0
loop_
_geom_bond_atom_site_label_1
_geom_bond_atom_site_label_2
_geom_bond_distance
_geom_bond_site_symmetry_2
_ccdc_geom_bond_type
C0 C1 1.386 . S
C0 C2 1.397 . S
C0 H24 0.931 1_455 S
C1 C0 1.386 . S
C1 C5 1.397 . S
C2 C0 1.397 . S
C2 C3 1.384 . S
C2 H25 0.930 . S
C3 C2 1.384 . S
C3 C4 1.377 . S
C3 C6 1.481 . S
C4 C3 1.377 . S
C4 C5 1.389 . S
C4 H26 0.929 . S
C5 C1 1.397 . S
C5 C4 1.389 . S
C5 H27 0.931 . S
C6 C3 1.481 . S
C6 C7 1.387 . S
C6 C11 1.390 . S
C7 C6 1.387 . S
C7 C8 1.401 . S
C7 H28 0.930 . S
C8 C7 1.401 . S
C8 C9 1.376 . S
C8 C17 1.511 . S
C9 C8 1.376 . S
C9 C10 1.392 . S
C9 H30 0.931 . S
C10 C9 1.392 . S
C10 C11 1.361 . S
C10 C12 1.500 . S
C11 C6 1.390 . S
C11 C10 1.361 . S
C11 H29 0.931 . S
C12 C10 1.500 . S
C12 C13 1.371 . S
C12 C14 1.365 . S
C13 C12 1.371 . S
C13 C23 1.386 . S
C13 H31 0.931 . S
C14 C12 1.365 . S
C14 C15 1.409 . S
C14 H32 0.929 . S
C15 C14 1.409 . S
C15 C16 1.380 . S
C15 H33 0.930 . S
C16 C15 1.380 . S
C16 C23 1.357 . S
C17 C8 1.511 . S
C17 C18 1.341 . S
C17 C19 1.371 . S
C18 C17 1.341 . S
C18 C22 1.394 . S
C18 H34 0.930 . S
C19 C17 1.371 . S
C19 C20 1.392 . S
C19 H35 0.931 . S
C20 C19 1.392 . S
C20 C21 1.331 . S
C20 H38 0.932 . S
C21 C20 1.331 . S
C21 C22 1.336 . S
C22 C18 1.394 . S
C22 C21 1.336 . S
C22 H37 0.929 1_455 S
C23 C13 1.386 . S
C23 C16 1.357 . S
C23 H36 0.912 1_554 S
H24 C0 0.931 1_655 S
H25 C2 0.930 . S
H26 C4 0.929 . S
H27 C5 0.931 . S
H28 C7 0.930 . S
H29 C11 0.931 . S
H30 C9 0.931 . S
H31 C13 0.931 . S
H32 C14 0.929 . S
H33 C15 0.930 . S
H34 C18 0.930 . S
H35 C19 0.931 . S
H36 C23 0.912 1_556 S
H37 C22 0.929 1_655 S
H38 C20 0.932 . S
C39 C40 1.386 . S
C39 C41 1.397 . S
C39 H63 0.931 . S
C40 C39 1.386 . S
C40 C44 1.397 . S
C41 C39 1.397 . S
C41 C42 1.384 . S
C41 H64 0.930 . S
C42 C41 1.384 . S
C42 C43 1.377 . S
C42 C45 1.481 . S
C43 C42 1.377 . S
C43 C44 1.389 . S
C43 H65 0.929 . S
C44 C40 1.397 . S
C44 C43 1.389 . S
C44 H66 0.931 . S
C45 C42 1.481 . S
C45 C46 1.387 . S
C45 C50 1.390 . S
C46 C45 1.387 . S
C46 C47 1.401 . S
C46 H67 0.930 . S
C47 C46 1.401 . S
C47 C48 1.376 . S
C47 C56 1.511 . S
C48 C47 1.376 . S
C48 C49 1.392 . S
C48 H69 0.931 . S
C49 C48 1.392 . S
C49 C50 1.361 . S
C49 C51 1.500 . S
C50 C45 1.390 . S
C50 C49 1.361 . S
C50 H68 0.931 . S
C51 C49 1.500 . S
C51 C52 1.371 . S
C51 C53 1.365 . S
C52 C51 1.371 . S
C52 C62 1.386 . S
C52 H70 0.931 . S
C53 C51 1.365 . S
C53 C54 1.409 . S
C53 H71 0.929 . S
C54 C53 1.409 . S
C54 C55 1.380 . S
C54 H72 0.930 . S
C55 C54 1.380 . S
C55 C62 1.357 . S
C56 C47 1.511 . S
C56 C57 1.341 . S
C56 C58 1.371 . S
C57 C56 1.341 . S
C57 C61 1.394 . S
C57 H73 0.930 . S
C58 C56 1.371 . S
C58 C59 1.392 . S
C58 H74 0.931 . S
C59 C58 1.392 . S
C59 C60 1.331 . S
C59 H77 0.932 . S
C60 C59 1.331 . S
C60 C61 1.336 . S
C61 C57 1.394 . S
C61 C60 1.336 . S
C61 H76 0.929 . S
C62 C52 1.386 . S
C62 C55 1.357 . S
C62 H75 0.928 . S
H63 C39 0.931 . S
H64 C41 0.930 . S
H65 C43 0.929 . S
H66 C44 0.931 . S
H67 C46 0.930 . S
H68 C50 0.931 . S
H69 C48 0.931 . S
H70 C52 0.931 . S
H71 C53 0.929 . S
H72 C54 0.930 . S
H73 C57 0.930 . S
H74 C58 0.931 . S
H75 C62 0.928 . S
H76 C61 0.929 . S
H77 C59 0.932 . S
C78 C79 1.386 . S
C78 C80 1.397 . S
C78 H102 0.931 . S
C79 C78 1.386 . S
C79 C83 1.397 . S
C80 C78 1.397 . S
C80 C81 1.384 . S
C80 H103 0.930 . S
C81 C80 1.384 . S
C81 C82 1.377 . S
C81 C84 1.481 . S
C82 C81 1.377 . S
C82 C83 1.389 . S
C82 H104 0.929 . S
C83 C79 1.397 . S
C83 C82 1.389 . S
C83 H105 0.931 . S
C84 C81 1.481 . S
C84 C85 1.387 . S
C84 C89 1.390 . S
C85 C84 1.387 . S
C85 C86 1.401 . S
C85 H106 0.930 . S
C86 C85 1.401 . S
C86 C87 1.376 . S
C86 C95 1.511 . S
C87 C86 1.376 . S
C87 C88 1.392 . S
C87 H108 0.931 . S
C88 C87 1.392 . S
C88 C89 1.361 . S
C88 C90 1.500 . S
C89 C84 1.390 . S
C89 C88 1.361 . S
C89 H107 0.931 . S
C90 C88 1.500 . S
C90 C91 1.371 . S
C90 C92 1.365 . S
C91 C90 1.371 . S
C91 C101 1.386 . S
C91 H109 0.931 . S
C92 C90 1.365 . S
C92 C93 1.409 . S
C92 H110 0.929 . S
C93 C92 1.409 . S
C93 C94 1.380 . S
C93 H111 0.923 1_556 S
C94 C93 1.380 . S
C94 C101 1.357 . S
C95 C86 1.511 . S
C95 C96 1.341 . S
C95 C97 1.371 . S
C96 C95 1.341 . S
C96 C100 1.394 . S
C96 H112 0.930 . S
C97 C95 1.371 . S
C97 C98 1.392 . S
C97 H113 0.931 . S
C98 C97 1.392 . S
C98 C99 1.331 . S
C98 H116 0.932 . S
C99 C98 1.331 . S
C99 C100 1.336 . S
C100 C96 1.394 . S
C100 C99 1.336 . S
C100 H115 0.929 . S
C101 C91 1.386 . S
C101 C94 1.357 . S
C101 H114 0.928 . S
H102 C78 0.931 . S
H103 C80 0.930 . S
H104 C82 0.929 . S
H105 C83 0.931 . S
H106 C85 0.930 . S
H107 C89 0.931 . S
H108 C87 0.931 . S
H109 C91 0.931 . S
H110 C92 0.929 . S
H111 C93 0.923 1_554 S
H112 C96 0.930 . S
H113 C97 0.931 . S
H114 C101 0.928 . S
H115 C100 0.929 . S
H116 C98 0.932 . S
C117 C118 1.386 . S
C117 C119 1.397 . S
C117 H141 0.931 . S
C118 C117 1.386 . S
C118 C122 1.397 1_655 S
C119 C117 1.397 . S
C119 C120 1.384 . S
C119 H142 0.930 . S
C120 C119 1.384 . S
C120 C121 1.377 . S
C120 C123 1.481 . S
C121 C120 1.377 . S
C121 C122 1.389 1_655 S
C121 H143 0.929 1_655 S
C122 C118 1.397 1_455 S
C122 C121 1.389 1_455 S
C122 H144 0.931 . S
C123 C120 1.481 . S
C123 C124 1.387 . S
C123 C128 1.390 . S
C124 C123 1.387 . S
C124 C125 1.401 . S
C124 H145 0.930 . S
C125 C124 1.401 . S
C125 C126 1.376 . S
C125 C134 1.511 . S
C126 C125 1.376 . S
C126 C127 1.392 . S
C126 H147 0.931 . S
C127 C126 1.392 . S
C127 C128 1.361 . S
C127 C129 1.500 . S
C128 C123 1.390 . S
C128 C127 1.361 . S
C128 H146 0.931 . S
C129 C127 1.500 . S
C129 C130 1.371 . S
C129 C131 1.365 . S
C130 C129 1.371 . S
C130 C140 1.386 . S
C130 H148 0.931 . S
C131 C129 1.365 . S
C131 C132 1.409 1_655 S
C131 H149 0.929 1_655 S
C132 C131 1.409 1_455 S
C132 C133 1.380 1_455 S
C132 H150 0.930 . S
C133 C132 1.380 1_655 S
C133 C140 1.357 . S
C134 C125 1.511 . S
C134 C135 1.341 . S
C134 C136 1.371 . S
C135 C134 1.341 . S
C135 C139 1.394 . S
C135 H151 0.930 . S
C136 C134 1.371 . S
C136 C137 1.392 . S
C136 H152 0.931 . S
C137 C136 1.392 . S
C137 C138 1.331 . S
C137 H155 0.932 . S
C138 C137 1.331 . S
C138 C139 1.336 . S
C139 C135 1.394 . S
C139 C138 1.336 . S
C139 H154 0.929 . S
C140 C130 1.386 . S
C140 C133 1.357 . S
C140 H153 0.928 . S
H141 C117 0.931 . S
H142 C119 0.930 . S
H143 C121 0.929 1_455 S
H144 C122 0.931 . S
H145 C124 0.930 . S
H146 C128 0.931 . S
H147 C126 0.931 . S
H148 C130 0.931 . S
H149 C131 0.929 1_455 S
H150 C132 0.930 . S
H151 C135 0.930 . S
H152 C136 0.931 . S
H153 C140 0.928 . S
H154 C139 0.929 . S
H155 C137 0.932 . S
C156 C157 1.386 1_565 S
C156 C158 1.397 . S
C156 H180 0.931 . S
C157 C156 1.386 1_545 S
C157 C161 1.397 . S
C158 C156 1.397 . S
C158 C159 1.384 . S
C158 H181 0.930 . S
C159 C158 1.384 . S
C159 C160 1.377 1_565 S
C159 C162 1.481 . S
C160 C159 1.377 1_545 S
C160 C161 1.389 . S
C160 H182 0.929 . S
C161 C157 1.397 . S
C161 C160 1.389 . S
C161 H183 0.931 . S
C162 C159 1.481 . S
C162 C163 1.387 . S
C162 C167 1.390 . S
C163 C162 1.387 . S
C163 C164 1.401 . S
C163 H184 0.930 . S
C164 C163 1.401 . S
C164 C165 1.376 . S
C164 C173 1.511 . S
C165 C164 1.376 . S
C165 C166 1.392 . S
C165 H186 0.931 . S
C166 C165 1.392 . S
C166 C167 1.361 . S
C166 C168 1.500 . S
C167 C162 1.390 . S
C167 C166 1.361 . S
C167 H185 0.931 1_565 S
C168 C166 1.500 . S
C168 C169 1.371 . S
C168 C170 1.365 1_565 S
C169 C168 1.371 . S
C169 C179 1.386 1_556 S
C169 H187 0.931 . S
C170 C168 1.365 1_545 S
C170 C171 1.409 . S
C170 H188 0.929 . S
C171 C170 1.409 . S
C171 C172 1.380 1_556 S
C171 H189 0.930 . S
C172 C171 1.380 1_554 S
C172 C179 1.357 1_545 S
C173 C164 1.511 . S
C173 C174 1.341 . S
C173 C175 1.371 1_556 S
C174 C173 1.341 . S
C174 C178 1.394 1_655 S
C174 H190 0.930 . S
C175 C173 1.371 1_554 S
C175 C176 1.392 . S
C175 H191 0.931 . S
C176 C175 1.392 . S
C176 C177 1.331 . S
C176 H194 0.932 . S
C177 C176 1.331 . S
C177 C178 1.336 1_654 S
C178 C174 1.394 1_455 S
C178 C177 1.336 1_456 S
C178 H193 0.929 . S
C179 C169 1.386 1_554 S
C179 C172 1.357 1_565 S
C179 H192 0.928 . S
H180 C156 0.931 . S
H181 C158 0.930 . S
H182 C160 0.929 . S
H183 C161 0.931 . S
H184 C163 0.930 . S
H185 C167 0.931 1_545 S
H186 C165 0.931 . S
H187 C169 0.931 . S
H188 C170 0.929 . S
H189 C171 0.930 . S
H190 C174 0.930 . S
H191 C175 0.931 . S
H192 C179 0.928 . S
H193 C178 0.929 . S
H194 C176 0.932 . S
C195 C196 1.386 1_565 S
C195 C197 1.397 . S
C195 H219 0.931 . S
C196 C195 1.386 1_545 S
C196 C200 1.397 . S
C197 C195 1.397 . S
C197 C198 1.384 1_565 S
C197 H220 0.930 . S
C198 C197 1.384 1_545 S
C198 C199 1.377 . S
C198 C201 1.481 . S
C199 C198 1.377 . S
C199 C200 1.389 . S
C199 H221 0.929 . S
C200 C196 1.397 . S
C200 C199 1.389 . S
C200 H222 0.931 . S
C201 C198 1.481 . S
C201 C202 1.387 . S
C201 C206 1.390 . S
C202 C201 1.387 . S
C202 C203 1.401 . S
C202 H223 0.930 . S
C203 C202 1.401 . S
C203 C204 1.376 . S
C203 C212 1.511 . S
C204 C203 1.376 . S
C204 C205 1.392 . S
C204 H225 0.931 . S
C205 C204 1.392 . S
C205 C206 1.361 . S
C205 C207 1.500 . S
C206 C201 1.390 . S
C206 C205 1.361 . S
C206 H224 0.931 . S
C207 C205 1.500 . S
C207 C208 1.371 . S
C207 C209 1.365 . S
C208 C207 1.371 . S
C208 C218 1.386 . S
C208 H226 0.931 . S
C209 C207 1.365 . S
C209 C210 1.409 . S
C209 H227 0.929 . S
C210 C209 1.409 . S
C210 C211 1.380 . S
C210 H228 0.930 . S
C211 C210 1.380 . S
C211 C218 1.357 . S
C212 C203 1.511 . S
C212 C213 1.341 1_545 S
C212 C214 1.371 . S
C213 C212 1.341 1_565 S
C213 C217 1.394 . S
C213 H229 0.930 . S
C214 C212 1.371 . S
C214 C215 1.392 . S
C214 H230 0.931 . S
C215 C214 1.392 . S
C215 C216 1.331 . S
C215 H233 0.932 . S
C216 C215 1.331 . S
C216 C217 1.336 1_545 S
C217 C213 1.394 . S
C217 C216 1.336 1_565 S
C217 H232 0.929 . S
C218 C208 1.386 . S
C218 C211 1.357 . S
C218 H231 0.928 . S
H219 C195 0.931 . S
H220 C197 0.930 . S
H221 C199 0.929 . S
H222 C200 0.931 . S
H223 C202 0.930 . S
H224 C206 0.931 . S
H225 C204 0.931 . S
H226 C208 0.931 . S
H227 C209 0.929 . S
H228 C210 0.930 . S
H229 C213 0.930 . S
H230 C214 0.931 . S
H231 C218 0.928 . S
H232 C217 0.929 . S
H233 C215 0.932 . S
C234 C235 1.386 . S
C234 C236 1.397 . S
C234 H258 0.931 . S
C235 C234 1.386 . S
C235 C239 1.397 1_554 S
C236 C234 1.397 . S
C236 C237 1.384 . S
C236 H259 0.930 . S
C237 C236 1.384 . S
C237 C238 1.377 . S
C237 C240 1.481 . S
C238 C237 1.377 . S
C238 C239 1.389 1_554 S
C238 H260 0.929 1_554 S
C239 C235 1.397 1_556 S
C239 C238 1.389 1_556 S
C239 H261 0.931 . S
C240 C237 1.481 . S
C240 C241 1.387 . S
C240 C245 1.390 . S
C241 C240 1.387 . S
C241 C242 1.401 . S
C241 H262 0.930 . S
C242 C241 1.401 . S
C242 C243 1.376 . S
C242 C251 1.511 . S
C243 C242 1.376 . S
C243 C244 1.392 . S
C243 H264 0.931 . S
C244 C243 1.392 . S
C244 C245 1.361 . S
C244 C246 1.500 . S
C245 C240 1.390 . S
C245 C244 1.361 . S
C245 H263 0.931 . S
C246 C244 1.500 . S
C246 C247 1.371 . S
C246 C248 1.365 . S
C247 C246 1.371 . S
C247 C257 1.386 . S
C247 H265 0.931 . S
C248 C246 1.365 . S
C248 C249 1.409 1_554 S
C248 H266 0.929 1_554 S
C249 C248 1.409 1_556 S
C249 C250 1.380 1_556 S
C249 H267 0.930 . S
C250 C249 1.380 1_554 S
C250 C257 1.357 . S
C251 C242 1.511 . S
C251 C252 1.341 . S
C251 C253 1.371 . S
C252 C251 1.341 . S
C252 C256 1.394 . S
C252 H268 0.930 . S
C253 C251 1.371 . S
C253 C254 1.392 . S
C253 H269 0.931 . S
C254 C253 1.392 . S
C254 C255 1.331 . S
C254 H272 0.932 . S
C255 C254 1.331 . S
C255 C256 1.336 . S
C256 C252 1.394 . S
C256 C255 1.336 . S
C256 H271 0.929 . S
C257 C247 1.386 . S
C257 C250 1.357 . S
C257 H270 0.928 . S
H258 C234 0.931 . S
H259 C236 0.930 . S
H260 C238 0.929 1_556 S
H261 C239 0.931 . S
H262 C241 0.930 . S
H263 C245 0.931 . S
H264 C243 0.931 . S
H265 C247 0.931 . S
H266 C248 0.929 1_556 S
H267 C249 0.930 . S
H268 C252 0.930 . S
H269 C253 0.931 . S
H270 C257 0.928 . S
H271 C256 0.929 . S
H272 C254 0.932 . S
C273 C274 1.386 . S
C273 C275 1.397 . S
C273 H297 0.931 . S
C274 C273 1.386 . S
C274 C278 1.397 1_455 S
C275 C273 1.397 . S
C275 C276 1.384 . S
C275 H298 0.930 . S
C276 C275 1.384 . S
C276 C277 1.377 . S
C276 C279 1.481 . S
C277 C276 1.377 . S
C277 C278 1.389 1_455 S
C277 H299 0.929 1_455 S
C278 C274 1.397 1_655 S
C278 C277 1.389 1_655 S
C278 H300 0.931 . S
C279 C276 1.481 . S
C279 C280 1.387 . S
C279 C284 1.390 . S
C280 C279 1.387 . S
C280 C281 1.401 . S
C280 H301 0.930 . S
C281 C280 1.401 . S
C281 C282 1.376 . S
C281 C290 1.511 . S
C282 C281 1.376 . S
C282 C283 1.392 . S
C282 H303 0.931 . S
C283 C282 1.392 . S
C283 C284 1.361 . S
C283 C285 1.500 . S
C284 C279 1.390 . S
C284 C283 1.361 . S
C284 H302 0.931 . S
C285 C283 1.500 . S
C285 C286 1.371 . S
C285 C287 1.365 . S
C286 C285 1.371 . S
C286 C296 1.386 . S
C286 H304 0.931 . S
C287 C285 1.365 . S
C287 C288 1.409 1_455 S
C287 H305 0.929 1_455 S
C288 C287 1.409 1_655 S
C288 C289 1.380 1_655 S
C288 H306 0.930 . S
C289 C288 1.380 1_455 S
C289 C296 1.357 . S
C290 C281 1.511 . S
C290 C291 1.341 . S
C290 C292 1.371 . S
C291 C290 1.341 . S
C291 C295 1.394 . S
C291 H307 0.930 . S
C292 C290 1.371 . S
C292 C293 1.392 . S
C292 H308 0.931 . S
C293 C292 1.392 . S
C293 C294 1.331 . S
C293 H311 0.932 . S
C294 C293 1.331 . S
C294 C295 1.336 . S
C295 C291 1.394 . S
C295 C294 1.336 . S
C295 H310 0.929 . S
C296 C286 1.386 . S
C296 C289 1.357 . S
C296 H309 0.928 . S
H297 C273 0.931 . S
H298 C275 0.930 . S
H299 C277 0.929 1_655 S
H300 C278 0.931 . S
H301 C280 0.930 . S
H302 C284 0.931 . S
H303 C282 0.931 . S
H304 C286 0.931 . S
H305 C287 0.929 1_655 S
H306 C288 0.930 . S
H307 C291 0.930 . S
H308 C292 0.931 . S
H309 C296 0.928 . S
H310 C295 0.929 . S
H311 C293 0.932 . S
O312 Zn313 1.953 . S
O312 C328 1.225 1_655 S
Zn313 O312 1.953 . S
Zn313 O314 1.949 1_655 S
Zn313 O320 1.919 . S
Zn313 O325 1.924 . S
O314 Zn313 1.949 1_455 S
O314 Zn315 1.923 1_445 S
O314 Zn316 1.950 . S
O314 Zn317 1.945 1_545 S
Zn315 O314 1.923 1_665 S
Zn315 O318 1.933 . S
Zn315 O321 1.941 1_565 S
Zn315 O322 1.965 1_665 S
Zn316 O314 1.950 . S
Zn316 O323 1.938 . S
Zn316 O324 1.906 1_545 S
Zn316 O334 1.953 . S
Zn317 O314 1.945 1_565 S
Zn317 O319 1.932 1_455 S
Zn317 O326 1.977 . S
Zn317 O327 1.910 1_455 S
O318 Zn315 1.933 . S
O318 C329 1.226 . S
O319 Zn317 1.932 1_655 S
O319 C329 1.307 . S
O320 Zn313 1.919 . S
O320 C331 1.253 . S
O321 Zn315 1.941 1_545 S
O321 C331 1.283 . S
O322 Zn315 1.965 1_445 S
O322 C330 1.303 . S
O323 Zn316 1.938 . S
O323 C330 1.247 . S
O324 Zn316 1.906 1_565 S
O324 C332 1.304 . S
O325 Zn313 1.924 . S
O325 C333 1.311 1_545 S
O326 Zn317 1.977 . S
O326 C332 1.272 . S
O327 Zn317 1.910 1_655 S
O327 C333 1.231 . S
C328 O312 1.225 1_455 S
C328 O334 1.298 . S
C329 O318 1.226 . S
C329 O319 1.307 . S
C330 O322 1.303 . S
C330 O323 1.247 . S
C331 O320 1.253 . S
C331 O321 1.283 . S
C332 O324 1.304 . S
C332 O326 1.272 . S
C333 O325 1.311 1_565 S
C333 O327 1.231 . S
O334 Zn316 1.953 . S
O334 C328 1.298 . S
O335 Zn336 1.953 . S
O335 C351 1.225 . S
Zn336 O335 1.953 . S
Zn336 O337 1.949 1_556 S
Zn336 O343 1.919 . S
Zn336 O348 1.924 . S
O337 Zn336 1.949 1_554 S
O337 Zn338 1.923 1_544 S
O337 Zn339 1.950 . S
O337 Zn340 1.945 1_545 S
Zn338 O337 1.923 1_566 S
Zn338 O341 1.933 1_556 S
Zn338 O344 1.941 . S
Zn338 O345 1.965 . S
Zn339 O337 1.950 . S
Zn339 O346 1.938 . S
Zn339 O347 1.906 . S
Zn339 O357 1.953 . S
Zn340 O337 1.945 1_565 S
Zn340 O342 1.932 . S
Zn340 O349 1.977 1_565 S
Zn340 O350 1.910 1_565 S
O341 Zn338 1.933 1_554 S
O341 C352 1.226 . S
O342 Zn340 1.932 . S
O342 C352 1.307 . S
O343 Zn336 1.919 . S
O343 C354 1.253 1_545 S
O344 Zn338 1.941 . S
O344 C354 1.283 . S
O345 Zn338 1.965 . S
O345 C353 1.303 . S
O346 Zn339 1.938 . S
O346 C353 1.247 1_544 S
O347 Zn339 1.906 . S
O347 C355 1.304 . S
O348 Zn336 1.924 . S
O348 C356 1.311 1_556 S
O349 Zn340 1.977 1_545 S
O349 C355 1.272 . S
O350 Zn340 1.910 1_545 S
O350 C356 1.231 . S
C351 O335 1.225 . S
C351 O357 1.298 1_556 S
C352 O341 1.226 . S
C352 O342 1.307 . S
C353 O345 1.303 . S
C353 O346 1.247 1_566 S
C354 O343 1.253 1_565 S
C354 O344 1.283 . S
C355 O347 1.304 . S
C355 O349 1.272 . S
C356 O348 1.311 1_554 S
C356 O350 1.231 . S
O357 Zn339 1.953 . S
O357 C351 1.298 1_554 S
O358 Zn359 1.953 . S
O358 C374 1.225 . S
Zn359 O358 1.953 . S
Zn359 O360 1.949 . S
Zn359 O366 1.919 . S
Zn359 O371 1.924 . S
O360 Zn359 1.949 . S
O360 Zn361 1.923 . S
O360 Zn362 1.950 . S
O360 Zn363 1.945 . S
Zn361 O360 1.923 . S
Zn361 O364 1.933 . S
Zn361 O367 1.941 . S
Zn361 O368 1.965 . S
Zn362 O360 1.950 . S
Zn362 O369 1.938 . S
Zn362 O370 1.906 . S
Zn362 O380 1.953 . S
Zn363 O360 1.945 . S
Zn363 O365 1.932 . S
Zn363 O372 1.977 . S
Zn363 O373 1.910 . S
O364 Zn361 1.933 . S
O364 C375 1.226 . S
O365 Zn363 1.932 . S
O365 C375 1.307 . S
O366 Zn359 1.919 . S
O366 C377 1.253 . S
O367 Zn361 1.941 . S
O367 C377 1.283 . S
O368 Zn361 1.965 . S
O368 C376 1.303 . S
O369 Zn362 1.938 . S
O369 C376 1.247 . S
O370 Zn362 1.906 . S
O370 C378 1.304 . S
O371 Zn359 1.924 . S
O371 C379 1.311 . S
O372 Zn363 1.977 . S
O372 C378 1.272 . S
O373 Zn363 1.910 . S
O373 C379 1.231 . S
C374 O358 1.225 . S
C374 O380 1.298 . S
C375 O364 1.226 . S
C375 O365 1.307 . S
C376 O368 1.303 . S
C376 O369 1.247 . S
C377 O366 1.253 . S
C377 O367 1.283 . S
C378 O370 1.304 . S
C378 O372 1.272 . S
C379 O371 1.311 . S
C379 O373 1.231 . S
O380 Zn362 1.953 . S
O380 C374 1.298 . S
O381 Zn382 1.953 . S
O381 C397 1.225 . S
Zn382 O381 1.953 . S
Zn382 O383 1.949 1_655 S
Zn382 O389 1.919 . S
Zn382 O394 1.924 . S
O383 Zn382 1.949 1_455 S
O383 Zn384 1.923 1_454 S
O383 Zn385 1.950 . S
O383 Zn386 1.945 1_554 S
Zn384 O383 1.923 1_656 S
Zn384 O387 1.933 1_655 S
Zn384 O390 1.941 . S
Zn384 O391 1.965 . S
Zn385 O383 1.950 . S
Zn385 O392 1.938 . S
Zn385 O393 1.906 . S
Zn385 O403 1.953 . S
Zn386 O383 1.945 1_556 S
Zn386 O388 1.932 . S
Zn386 O395 1.977 1_556 S
Zn386 O396 1.910 1_556 S
O387 Zn384 1.933 1_455 S
O387 C398 1.226 . S
O388 Zn386 1.932 . S
O388 C398 1.307 . S
O389 Zn382 1.919 . S
O389 C400 1.253 1_554 S
O390 Zn384 1.941 . S
O390 C400 1.283 . S
O391 Zn384 1.965 . S
O391 C399 1.303 . S
O392 Zn385 1.938 . S
O392 C399 1.247 1_454 S
O393 Zn385 1.906 . S
O393 C401 1.304 . S
O394 Zn382 1.924 . S
O394 C402 1.311 1_655 S
O395 Zn386 1.977 1_554 S
O395 C401 1.272 . S
O396 Zn386 1.910 1_554 S
O396 C402 1.231 . S
C397 O381 1.225 . S
C397 O403 1.298 1_655 S
C398 O387 1.226 . S
C398 O388 1.307 . S
C399 O391 1.303 . S
C399 O392 1.247 1_656 S
C400 O389 1.253 1_556 S
C400 O390 1.283 . S
C401 O393 1.304 . S
C401 O395 1.272 . S
C402 O394 1.311 1_455 S
C402 O396 1.231 . S
O403 Zn385 1.953 . S
O403 C397 1.298 1_455 S
C1 C330 1.834 . S
C40 C354 1.685 . S
C374 C99 1.765 . S
C118 C397 1.750 . S
C356 C16 1.805 . S
C332 C60 1.802 . S
C400 C79 1.932 . S
C377 C138 1.860 . S
C21 C402 1.465 . S
C351 C94 1.888 . S
C133 C329 1.845 . S
C55 C379 1.472 . S
C333 C157 2.321 1_565 S
C196 C355 2.192 . S
C255 C375 2.299 . S
C289 C398 2.360 . S
C172 C353 2.242 1_544 S
C331 C216 2.505 . S
C401 C235 1.940 . S
C378 C294 1.946 . S
C177 C399 2.416 1_554 S
C352 C250 2.282 . S
C328 C274 2.258 . S
C211 C376 2.393 . S
