# Generated by pormake.
# Topology apo, (3,6)-cn, num edge types: 1
# Building blocks:
#     Node 0, Type 0, BuildingBlock: QEWDON_clean_linker_0, # of connection points: 3
#     Node 1, Type 0, BuildingBlock: QEWDON_clean_linker_0, # of connection points: 3
#     Node 2, Type 0, BuildingBlock: QEWDON_clean_linker_0, # of connection points: 3
#     Node 3, Type 0, BuildingBlock: QEWDON_clean_linker_0, # of connection points: 3
#     Node 4, Type 0, BuildingBlock: QEWDON_clean_linker_0, # of connection points: 3
#     Node 5, Type 0, BuildingBlock: QEWDON_clean_linker_0, # of connection points: 3
#     Node 6, Type 0, BuildingBlock: QEWDON_clean_linker_0, # of connection points: 3
#     Node 7, Type 0, BuildingBlock: QEWDON_clean_linker_0, # of connection points: 3
#     Node 8, Type 1, BuildingBlock: MIDCAF_clean_sbu_0, # of connection points: 6
#     Node 9, Type 1, BuildingBlock: MIDCAF_clean_sbu_0, # of connection points: 6
#     Node 10, Type 1, BuildingBlock: MIDCAF_clean_sbu_0, # of connection points: 6
#     Node 11, Type 1, BuildingBlock: MIDCAF_clean_sbu_0, # of connection points: 6
#     Edge 12, Type (0, 1), BuildingBlock: MIFKUJ_clean_linker_0, # of connection points: 2
#     Edge 13, Type (0, 1), BuildingBlock: MIFKUJ_clean_linker_0, # of connection points: 2
#     Edge 14, Type (0, 1), BuildingBlock: MIFKUJ_clean_linker_0, # of connection points: 2
#     Edge 15, Type (0, 1), BuildingBlock: MIFKUJ_clean_linker_0, # of connection points: 2
#     Edge 16, Type (0, 1), BuildingBlock: MIFKUJ_clean_linker_0, # of connection points: 2
#     Edge 17, Type (0, 1), BuildingBlock: MIFKUJ_clean_linker_0, # of connection points: 2
#     Edge 18, Type (0, 1), BuildingBlock: MIFKUJ_clean_linker_0, # of connection points: 2
#     Edge 19, Type (0, 1), BuildingBlock: MIFKUJ_clean_linker_0, # of connection points: 2
#     Edge 20, Type (0, 1), BuildingBlock: MIFKUJ_clean_linker_0, # of connection points: 2
#     Edge 21, Type (0, 1), BuildingBlock: MIFKUJ_clean_linker_0, # of connection points: 2
#     Edge 22, Type (0, 1), BuildingBlock: MIFKUJ_clean_linker_0, # of connection points: 2
#     Edge 23, Type (0, 1), BuildingBlock: MIFKUJ_clean_linker_0, # of connection points: 2
#     Edge 24, Type (0, 1), BuildingBlock: MIFKUJ_clean_linker_0, # of connection points: 2
#     Edge 25, Type (0, 1), BuildingBlock: MIFKUJ_clean_linker_0, # of connection points: 2
#     Edge 26, Type (0, 1), BuildingBlock: MIFKUJ_clean_linker_0, # of connection points: 2
#     Edge 27, Type (0, 1), BuildingBlock: MIFKUJ_clean_linker_0, # of connection points: 2
#     Edge 28, Type (0, 1), BuildingBlock: MIFKUJ_clean_linker_0, # of connection points: 2
#     Edge 29, Type (0, 1), BuildingBlock: MIFKUJ_clean_linker_0, # of connection points: 2
#     Edge 30, Type (0, 1), BuildingBlock: MIFKUJ_clean_linker_0, # of connection points: 2
#     Edge 31, Type (0, 1), BuildingBlock: MIFKUJ_clean_linker_0, # of connection points: 2
#     Edge 32, Type (0, 1), BuildingBlock: MIFKUJ_clean_linker_0, # of connection points: 2
#     Edge 33, Type (0, 1), BuildingBlock: MIFKUJ_clean_linker_0, # of connection points: 2
#     Edge 34, Type (0, 1), BuildingBlock: MIFKUJ_clean_linker_0, # of connection points: 2
#     Edge 35, Type (0, 1), BuildingBlock: MIFKUJ_clean_linker_0, # of connection points: 2
# Relax obj value: 0.009
# Max RMSD: 0.115
# Mean RMSD: 0.096
data_MOF--net-apo--node1-MIDCAF_clean_sbu_0--node2-QEWDON_clean_linker_0--edge1-MIFKUJ_clean_linker_0
_symmetry_space_group_name_H-M    P1
_symmetry_Int_Tables_number       1
_symmetry_cell_setting            triclinic
loop_
_symmetry_equiv_pos_as_xyz
'x, y, z'
_cell_length_a     49.864759
_cell_length_b     54.753479
_cell_length_c     45.389144
_cell_angle_alpha  90.023672
_cell_angle_beta   90.208675
_cell_angle_gamma 90.184543
loop_
_atom_site_label
_atom_site_type_symbol
_atom_site_fract_x
_atom_site_fract_y
_atom_site_fract_z
_atom_type_partial_charge
H0 H 0.32154 0.35946 0.35217 0.0
C1 C 0.32908 0.35236 0.37287 0.0
C2 C 0.3554 0.35796 0.38209 0.0
C3 C 0.31143 0.33972 0.39167 0.0
H4 H 0.38464 0.35269 0.41661 0.0
C5 C 0.36414 0.34934 0.40968 0.0
C6 C 0.34637 0.33815 0.42951 0.0
C7 C 0.32008 0.33296 0.42009 0.0
C8 C 0.28256 0.33827 0.38414 0.0
H9 H 0.30584 0.32506 0.43538 0.0
C10 C 0.27253 0.32171 0.36293 0.0
C11 C 0.24488 0.32139 0.35588 0.0
C12 C 0.26487 0.3543 0.39828 0.0
H13 H 0.27224 0.36716 0.41459 0.0
C14 C 0.23765 0.35411 0.3913 0.0
H15 H 0.28611 0.30926 0.352 0.0
C16 C 0.2277 0.33785 0.37027 0.0
H17 H 0.20637 0.33782 0.36566 0.0
H18 H 0.22417 0.36657 0.4023 0.0
H19 H 0.18802 0.14938 0.8519 0.0
C20 C 0.18192 0.1528 0.87441 0.0
C21 C 0.15606 0.14597 0.88391 0.0
C22 C 0.20065 0.16268 0.89432 0.0
H23 H 0.12954 0.14452 0.92151 0.0
C24 C 0.14892 0.15045 0.91345 0.0
C25 C 0.16732 0.16075 0.93348 0.0
C26 C 0.19324 0.16659 0.92375 0.0
C27 C 0.22909 0.16538 0.88569 0.0
H28 H 0.20789 0.17382 0.9392 0.0
C29 C 0.23743 0.18281 0.86474 0.0
C30 C 0.26479 0.1848 0.85707 0.0
C31 C 0.24814 0.14996 0.89876 0.0
H32 H 0.24208 0.13642 0.91485 0.0
C33 C 0.27507 0.15167 0.89104 0.0
H34 H 0.22277 0.19481 0.8547 0.0
C35 C 0.28339 0.16893 0.87043 0.0
H36 H 0.30458 0.17025 0.86548 0.0
H37 H 0.28962 0.1397 0.90126 0.0
H38 H 0.82337 0.14529 0.65534 0.0
C39 C 0.82901 0.15202 0.63375 0.0
C40 C 0.85455 0.14677 0.62245 0.0
C41 C 0.81009 0.16483 0.61687 0.0
H42 H 0.88041 0.15022 0.58477 0.0
C43 C 0.86119 0.15513 0.59413 0.0
C44 C 0.84239 0.16781 0.57672 0.0
C45 C 0.8168 0.17266 0.58836 0.0
C46 C 0.78207 0.16593 0.62727 0.0
H47 H 0.80181 0.18173 0.57495 0.0
C48 C 0.77172 0.18679 0.64139 0.0
C49 C 0.74563 0.18626 0.65339 0.0
C50 C 0.76608 0.14492 0.62459 0.0
H51 H 0.77382 0.12871 0.61392 0.0
C52 C 0.74017 0.14451 0.63596 0.0
H53 H 0.7841 0.20298 0.64379 0.0
C54 C 0.73003 0.16495 0.65039 0.0
H55 H 0.70983 0.16418 0.65906 0.0
H56 H 0.72797 0.12822 0.63379 0.0
H57 H 0.70579 0.3563 0.15571 0.0
C58 C 0.69753 0.35321 0.13389 0.0
C59 C 0.67182 0.36205 0.12688 0.0
C60 C 0.71331 0.34178 0.11231 0.0
H61 H 0.64232 0.36624 0.09239 0.0
C62 C 0.66183 0.3589 0.09812 0.0
C63 C 0.67735 0.34766 0.07621 0.0
C64 C 0.70292 0.33884 0.08361 0.0
C65 C 0.74196 0.33631 0.11836 0.0
H66 H 0.71535 0.3308 0.06665 0.0
C67 C 0.75003 0.32187 0.1426 0.0
C68 C 0.77754 0.31802 0.14831 0.0
C69 C 0.76161 0.3466 0.1 0.0
H70 H 0.75596 0.35795 0.08145 0.0
C71 C 0.78876 0.34286 0.10569 0.0
H72 H 0.73508 0.31373 0.15685 0.0
C73 C 0.79671 0.32875 0.12969 0.0
H74 H 0.81794 0.32585 0.13345 0.0
H75 H 0.80371 0.35095 0.09145 0.0
H76 H 0.66073 0.67608 0.67737 0.0
C77 C 0.66134 0.6738 0.65366 0.0
C78 C 0.64949 0.65312 0.64054 0.0
C79 C 0.67193 0.69266 0.63616 0.0
H80 H 0.64105 0.63499 0.5994 0.0
C81 C 0.64942 0.65119 0.60965 0.0
C82 C 0.65878 0.67032 0.59172 0.0
C83 C 0.67044 0.69092 0.60524 0.0
C84 C 0.67913 0.71622 0.65004 0.0
H85 H 0.67683 0.70627 0.59189 0.0
C86 C 0.7052 0.72112 0.66076 0.0
C87 C 0.71124 0.74408 0.67342 0.0
C88 C 0.65917 0.73407 0.65256 0.0
H89 H 0.63903 0.73053 0.64454 0.0
C90 C 0.66494 0.75655 0.6655 0.0
H91 H 0.72071 0.70742 0.65862 0.0
C92 C 0.69073 0.76157 0.67581 0.0
H93 H 0.69465 0.77921 0.6858 0.0
H94 H 0.64938 0.77018 0.66746 0.0
H95 H 0.85164 0.82959 0.16626 0.0
C96 C 0.85293 0.83133 0.14252 0.0
C97 C 0.86641 0.85147 0.13009 0.0
C98 C 0.84336 0.81227 0.12446 0.0
H99 H 0.87951 0.8681 0.08944 0.0
C100 C 0.86921 0.85268 0.09931 0.0
C101 C 0.85958 0.83391 0.08102 0.0
C102 C 0.84646 0.81384 0.09371 0.0
C103 C 0.83486 0.78882 0.13775 0.0
H104 H 0.84008 0.79875 0.07984 0.0
C105 C 0.81141 0.78674 0.15487 0.0
C106 C 0.80428 0.76403 0.16746 0.0
C107 C 0.85101 0.7682 0.13337 0.0
H108 H 0.86916 0.76947 0.12037 0.0
C109 C 0.84416 0.74586 0.14595 0.0
H110 H 0.79882 0.80258 0.15824 0.0
C111 C 0.82101 0.74374 0.16285 0.0
H112 H 0.81587 0.72601 0.17184 0.0
H113 H 0.85677 0.73007 0.14245 0.0
H114 H 0.17055 0.8293 0.33924 0.0
C115 C 0.16842 0.82951 0.363 0.0
C116 C 0.15792 0.85025 0.37709 0.0
C117 C 0.17496 0.80855 0.37935 0.0
H118 H 0.14541 0.86533 0.41875 0.0
C119 C 0.15425 0.84973 0.40777 0.0
C120 C 0.16043 0.82887 0.42438 0.0
C121 C 0.17111 0.80837 0.41005 0.0
C122 C 0.18113 0.78553 0.36388 0.0
H123 H 0.175 0.79183 0.42245 0.0
C124 C 0.20712 0.78022 0.35364 0.0
C125 C 0.21235 0.75761 0.33985 0.0
C126 C 0.1604 0.76851 0.35966 0.0
H127 H 0.1403 0.77238 0.36734 0.0
C128 C 0.16536 0.74642 0.34549 0.0
H129 H 0.22325 0.79322 0.3572 0.0
C130 C 0.19112 0.74094 0.33573 0.0
H131 H 0.19448 0.72358 0.3249 0.0
H132 H 0.14923 0.73342 0.34222 0.0
H133 H 0.33915 0.67331 0.84909 0.0
C134 C 0.3418 0.67263 0.87278 0.0
C135 C 0.35239 0.65153 0.8861 0.0
C136 C 0.33582 0.69336 0.88983 0.0
H137 H 0.36442 0.63515 0.9272 0.0
C138 C 0.35616 0.65128 0.91684 0.0
C139 C 0.35062 0.67188 0.93427 0.0
C140 C 0.34028 0.69284 0.92049 0.0
C141 C 0.32836 0.71665 0.87533 0.0
H142 H 0.33664 0.70916 0.93338 0.0
C143 C 0.30497 0.71881 0.85791 0.0
C144 C 0.29843 0.74135 0.84451 0.0
C145 C 0.34519 0.73702 0.87903 0.0
H146 H 0.36331 0.73572 0.89218 0.0
C147 C 0.339 0.75917 0.86561 0.0
H148 H 0.29188 0.70315 0.85507 0.0
C149 C 0.31584 0.76139 0.84857 0.0
H150 H 0.31123 0.77906 0.83914 0.0
H151 H 0.35211 0.77478 0.86865 0.0
Zn152 Zn 0.03216 0.12023 0.31157 0.0
Zn153 Zn 0.98261 0.11383 0.21039 0.0
Zn154 Zn 0.00794 0.11729 0.26136 0.0
C155 C 0.03154 0.13693 0.1991 0.0
C156 C 0.98738 0.06641 0.23073 0.0
O157 O 0.98132 0.13753 0.29269 0.0
O158 O 1.0051 0.13879 0.33382 0.0
C159 C 0.06624 0.14313 0.27215 0.0
O160 O 0.03451 0.13337 0.22702 0.0
O161 O 0.01011 0.13055 0.18632 0.0
O162 O 0.97957 0.07787 0.20819 0.0
O163 O 0.99847 0.07795 0.25245 0.0
O164 O 0.06489 0.13745 0.29903 0.0
O165 O 0.04694 0.13724 0.25443 0.0
O166 O 0.01626 0.0791 0.27683 0.0
O167 O 0.03612 0.08516 0.31978 0.0
C168 C 0.02794 0.07063 0.30011 0.0
O169 O 0.97002 0.13876 0.26424 0.0
O170 O 0.95018 0.13251 0.22118 0.0
C171 C 0.98386 0.14387 0.31996 0.0
C172 C 0.95025 0.14236 0.24632 0.0
Zn173 Zn 0.51955 0.39731 0.70208 0.0
Zn174 Zn 0.48691 0.38376 0.80853 0.0
Zn175 Zn 0.50342 0.38904 0.75554 0.0
C176 C 0.47858 0.43253 0.79566 0.0
C177 C 0.4548 0.3534 0.77439 0.0
O178 O 0.54314 0.37084 0.75176 0.0
O179 O 0.55177 0.37608 0.70444 0.0
C180 C 0.51826 0.44264 0.72753 0.0
O181 O 0.49179 0.42576 0.77267 0.0
O182 O 0.47257 0.41702 0.81514 0.0
O183 O 0.46137 0.35691 0.80093 0.0
O184 O 0.46683 0.3652 0.75366 0.0
O185 O 0.52519 0.43288 0.70359 0.0
O186 O 0.50861 0.42938 0.74855 0.0
O187 O 0.47382 0.37136 0.72487 0.0
O188 O 0.48712 0.38534 0.68156 0.0
C189 C 0.47045 0.37348 0.69679 0.0
O190 O 0.53663 0.372 0.78184 0.0
O191 O 0.52105 0.3749 0.82731 0.0
C192 C 0.55821 0.36715 0.72914 0.0
C193 C 0.53972 0.36942 0.80991 0.0
Zn194 Zn 0.03353 0.89629 0.79962 0.0
Zn195 Zn 0.98382 0.88344 0.69812 0.0
Zn196 Zn 0.00909 0.88907 0.74926 0.0
C197 C 0.98578 0.93345 0.70938 0.0
C198 C 0.95246 0.85969 0.73954 0.0
O199 O 0.04864 0.86986 0.74719 0.0
O200 O 0.06765 0.88011 0.78953 0.0
C201 C 0.02415 0.94245 0.77853 0.0
O202 O 0.99948 0.92579 0.73166 0.0
O203 O 0.97606 0.91851 0.69102 0.0
O204 O 0.95359 0.86365 0.71221 0.0
O205 O 0.97101 0.86784 0.7569 0.0
O206 O 0.03317 0.93238 0.80147 0.0
O207 O 0.01484 0.92935 0.75712 0.0
O208 O 0.98344 0.87239 0.78402 0.0
O209 O 0.00778 0.87797 0.8243 0.0
C210 C 0.98685 0.86978 0.81203 0.0
O211 O 0.03684 0.86971 0.71891 0.0
O212 O 0.01358 0.86684 0.67739 0.0
C213 C 0.06868 0.86894 0.76522 0.0
C214 C 0.03489 0.86298 0.69174 0.0
Zn215 Zn 0.53407 0.61787 0.20999 0.0
Zn216 Zn 0.49349 0.61414 0.3097 0.0
Zn217 Zn 0.51328 0.61724 0.2574 0.0
C218 C 0.5413 0.63928 0.3168 0.0
C219 C 0.49711 0.56642 0.2913 0.0
O220 O 0.483 0.63257 0.22593 0.0
O221 O 0.50078 0.61621 0.18623 0.0
C222 C 0.56025 0.65371 0.23839 0.0
O223 O 0.54191 0.63587 0.28865 0.0
O224 O 0.52165 0.63173 0.33169 0.0
O225 O 0.49088 0.57829 0.31407 0.0
O226 O 0.50629 0.5777 0.26844 0.0
O227 O 0.55266 0.64979 0.21229 0.0
O228 O 0.55015 0.64089 0.25953 0.0
O229 O 0.52441 0.57918 0.24493 0.0
O230 O 0.55641 0.58791 0.21323 0.0
C231 C 0.5444 0.5724 0.22897 0.0
O232 O 0.47387 0.63649 0.25521 0.0
O233 O 0.45988 0.63177 0.3011 0.0
C234 C 0.48135 0.62692 0.19837 0.0
C235 C 0.45621 0.64006 0.27546 0.0
H236 H 0.16425 0.89861 0.39033 0.0
H237 H 0.1397 0.93293 0.36906 0.0
H238 H 0.10441 0.88502 0.30422 0.0
H239 H 0.12836 0.85027 0.32592 0.0
H240 H 0.12251 0.93913 0.28657 0.0
H241 H 0.06675 0.89047 0.35358 0.0
H242 H 0.06169 0.8685 0.40071 0.0
H243 H 0.0781 0.93471 0.4483 0.0
H244 H 0.08369 0.95697 0.40143 0.0
H245 H 0.03007 0.03437 0.25774 0.0
H246 H 0.04663 0.99272 0.26395 0.0
H247 H 0.06158 0.00746 0.35607 0.0
H248 H 0.04218 0.04763 0.35061 0.0
H249 H 0.04955 0.96445 0.35398 0.0
H250 H 0.11092 0.01253 0.29429 0.0
H251 H 0.12374 0.03703 0.2509 0.0
H252 H 0.10428 0.97679 0.194 0.0
H253 H 0.09118 0.95202 0.23704 0.0
C254 C 0.15162 0.8954 0.37123 0.0
C255 C 0.14796 0.87164 0.3601 0.0
C256 C 0.13776 0.91506 0.35901 0.0
C257 C 0.12015 0.9114 0.33527 0.0
C258 C 0.11804 0.88815 0.32249 0.0
C259 C 0.1318 0.86835 0.33488 0.0
C260 C 0.10152 0.93119 0.32673 0.0
C261 C 0.10621 0.94452 0.30093 0.0
C262 C 0.08073 0.93839 0.34589 0.0
C263 C 0.07574 0.92534 0.37401 0.0
C264 C 0.06931 0.90032 0.3741 0.0
C265 C 0.06638 0.88782 0.40076 0.0
C266 C 0.06962 0.90019 0.42748 0.0
C267 C 0.07559 0.92514 0.42759 0.0
C268 C 0.0786 0.93772 0.40098 0.0
C269 C 0.03557 0.02828 0.27954 0.0
C270 C 0.03435 0.04432 0.30369 0.0
C271 C 0.0458 0.0046 0.28298 0.0
C272 C 0.05619 0.99694 0.31037 0.0
C273 C 0.05383 0.01266 0.33466 0.0
C274 C 0.04283 0.03586 0.33143 0.0
C275 C 0.07088 0.97337 0.31404 0.0
C276 C 0.06546 0.95909 0.33911 0.0
C277 C 0.09157 0.96583 0.29463 0.0
C278 C 0.09976 0.98056 0.26881 0.0
C279 C 0.10928 0.00457 0.2725 0.0
C280 C 0.1166 0.01849 0.24798 0.0
C281 C 0.11473 0.0085 0.21971 0.0
C282 C 0.10565 0.98453 0.21591 0.0
C283 C 0.09829 0.97054 0.24035 0.0
H284 H 0.12039 0.01931 0.20075 0.0
H285 H 0.06748 0.89046 0.4481 0.0
H286 H 0.38018 0.65255 0.83384 0.0
H287 H 0.40273 0.61824 0.80957 0.0
H288 H 0.37095 0.56896 0.87473 0.0
H289 H 0.34738 0.60272 0.8983 0.0
H290 H 0.43571 0.57741 0.8618 0.0
H291 H 0.34548 0.55563 0.82385 0.0
H292 H 0.30485 0.56527 0.79502 0.0
H293 H 0.35305 0.57833 0.71837 0.0
H294 H 0.39398 0.56909 0.74695 0.0
H295 H 0.46418 0.45432 0.84685 0.0
H296 H 0.44523 0.49468 0.85393 0.0
H297 H 0.45325 0.5095 0.761 0.0
H298 H 0.47095 0.46819 0.7535 0.0
H299 H 0.40592 0.52439 0.77919 0.0
H300 H 0.49427 0.53613 0.81239 0.0
H301 H 0.53653 0.52861 0.83895 0.0
H302 H 0.49614 0.53751 0.92162 0.0
H303 H 0.45349 0.54481 0.89555 0.0
C304 C 0.37723 0.6343 0.84245 0.0
C305 C 0.36214 0.63047 0.86825 0.0
C306 C 0.39031 0.61477 0.82866 0.0
C307 C 0.38856 0.59117 0.8405 0.0
C308 C 0.37255 0.58709 0.86533 0.0
C309 C 0.35922 0.60645 0.87885 0.0
C310 C 0.40529 0.57104 0.82902 0.0
C311 C 0.42926 0.56568 0.84384 0.0
C312 C 0.39738 0.55661 0.80471 0.0
C313 C 0.37279 0.56209 0.78763 0.0
C314 C 0.34743 0.56087 0.80096 0.0
C315 C 0.32434 0.56617 0.78464 0.0
C316 C 0.32637 0.57252 0.75491 0.0
C317 C 0.3515 0.57349 0.74142 0.0
C318 C 0.37464 0.56822 0.75766 0.0
C319 C 0.46216 0.46617 0.82787 0.0
C320 C 0.46958 0.45813 0.79965 0.0
C321 C 0.45145 0.48939 0.832 0.0
C322 C 0.44823 0.5054 0.80812 0.0
C323 C 0.45577 0.49757 0.77983 0.0
C324 C 0.4663 0.47409 0.77563 0.0
C325 C 0.43585 0.52977 0.81307 0.0
C326 C 0.4128 0.53616 0.79692 0.0
C327 C 0.44488 0.54542 0.83598 0.0
C328 C 0.47057 0.54106 0.8519 0.0
C329 C 0.49432 0.53646 0.83621 0.0
C330 C 0.51838 0.5322 0.8512 0.0
C331 C 0.51903 0.53259 0.88197 0.0
C332 C 0.49562 0.53725 0.89779 0.0
C333 C 0.47149 0.5415 0.88289 0.0
H334 H 0.53768 0.52928 0.89355 0.0
H335 H 0.30847 0.5766 0.74231 0.0
H336 H 0.66283 0.63379 0.69492 0.0
H337 H 0.6377 0.60329 0.72337 0.0
H338 H 0.57768 0.60021 0.65473 0.0
H339 H 0.60162 0.63136 0.62729 0.0
H340 H 0.55373 0.59865 0.70492 0.0
H341 H 0.63046 0.5571 0.66252 0.0
H342 H 0.67868 0.54979 0.65454 0.0
H343 H 0.69013 0.53894 0.74743 0.0
H344 H 0.64199 0.54647 0.75598 0.0
H345 H 0.50908 0.47808 0.68742 0.0
H346 H 0.52721 0.51952 0.68776 0.0
H347 H 0.55892 0.50794 0.77517 0.0
H348 H 0.54 0.4663 0.77515 0.0
H349 H 0.59778 0.5205 0.73105 0.0
H350 H 0.51697 0.55353 0.76959 0.0
H351 H 0.46807 0.55928 0.77431 0.0
H352 H 0.46367 0.58369 0.68463 0.0
H353 H 0.5125 0.57818 0.67937 0.0
C354 C 0.64414 0.62677 0.68608 0.0
C355 C 0.63459 0.63473 0.65849 0.0
C356 C 0.62987 0.60921 0.70228 0.0
C357 C 0.60591 0.59914 0.69106 0.0
C358 C 0.59609 0.60758 0.66393 0.0
C359 C 0.61011 0.62519 0.64797 0.0
C360 C 0.59122 0.5792 0.70657 0.0
C361 C 0.56342 0.58159 0.71068 0.0
C362 C 0.60385 0.55712 0.71504 0.0
C363 C 0.63275 0.55268 0.70993 0.0
C364 C 0.64332 0.55335 0.68126 0.0
C365 C 0.67062 0.54914 0.67663 0.0
C366 C 0.68748 0.544 0.70047 0.0
C367 C 0.67706 0.543 0.72899 0.0
C368 C 0.64978 0.54723 0.73374 0.0
C369 C 0.51911 0.48466 0.70711 0.0
C370 C 0.52326 0.46905 0.7312 0.0
C371 C 0.52943 0.50836 0.70733 0.0
C372 C 0.54449 0.51681 0.73145 0.0
C373 C 0.54729 0.50177 0.75637 0.0
C374 C 0.5364 0.4781 0.7564 0.0
C375 C 0.56025 0.5397 0.7282 0.0
C376 C 0.58826 0.53785 0.72625 0.0
C377 C 0.54777 0.5621 0.7212 0.0
C378 C 0.51836 0.56532 0.7241 0.0
C379 C 0.50551 0.55995 0.75084 0.0
C380 C 0.47784 0.5632 0.75363 0.0
C381 C 0.46277 0.5717 0.72977 0.0
C382 C 0.47537 0.57709 0.70309 0.0
C383 C 0.50306 0.57401 0.70024 0.0
H384 H 0.44137 0.57419 0.73198 0.0
H385 H 0.70861 0.54073 0.69684 0.0
H386 H 0.84651 0.87475 0.17913 0.0
H387 H 0.86818 0.90731 0.20802 0.0
H388 H 0.93786 0.90309 0.15223 0.0
H389 H 0.91674 0.87038 0.12397 0.0
H390 H 0.95276 0.90906 0.20863 0.0
H391 H 0.88927 0.94628 0.14121 0.0
H392 H 0.84446 0.95309 0.11961 0.0
H393 H 0.81462 0.97518 0.20413 0.0
H394 H 0.85923 0.96818 0.2263 0.0
H395 H 0.99944 0.03229 0.18984 0.0
H396 H 0.98098 0.99088 0.18618 0.0
H397 H 0.94108 1.00045 0.26946 0.0
H398 H 0.96064 0.04171 0.27383 0.0
H399 H 0.90854 0.99006 0.21088 0.0
H400 H 0.97378 0.95797 0.27686 0.0
H401 H 0.01826 0.95017 0.29855 0.0
H402 H 0.04512 0.9197 0.21668 0.0
H403 H 1.00061 0.92717 0.1945 0.0
C404 C 0.86656 0.8806 0.1733 0.0
C405 C 0.8797 0.87026 0.14895 0.0
C406 C 0.87888 0.89927 0.18972 0.0
C407 C 0.90457 0.90787 0.1821 0.0
C408 C 0.91805 0.89685 0.15854 0.0
C409 C 0.90579 0.87832 0.14216 0.0
C410 C 0.91707 0.92916 0.19736 0.0
C411 C 0.94305 0.92676 0.20913 0.0
C412 C 0.90423 0.95217 0.19877 0.0
C413 C 0.87745 0.9564 0.18548 0.0
C414 C 0.87309 0.95239 0.15523 0.0
C415 C 0.84775 0.95632 0.14288 0.0
C416 C 0.82668 0.96448 0.16051 0.0
C417 C 0.83094 0.9688 0.19052 0.0
C418 C 0.85624 0.96486 0.20299 0.0
C419 C 0.98753 0.0252 0.20785 0.0
C420 C 0.9815 0.04003 0.23215 0.0
C421 C 0.97699 1.0016 0.20575 0.0
C422 C 0.95965 0.99267 0.22752 0.0
C423 C 0.95457 0.007 0.25255 0.0
C424 C 0.9658 0.03045 0.25507 0.0
C425 C 0.94428 0.96996 0.22161 0.0
C426 C 0.91789 0.97219 0.21117 0.0
C427 C 0.95677 0.94687 0.22132 0.0
C428 C 0.98392 0.94328 0.23397 0.0
C429 C 0.98926 0.94986 0.26336 0.0
C430 C 0.01444 0.94538 0.2758 0.0
C431 C 0.03453 0.93447 0.259 0.0
C432 C 0.02951 0.92811 0.22967 0.0
C433 C 1.00427 0.93237 0.21719 0.0
H434 H 0.05392 0.93079 0.26874 0.0
H435 H 0.80707 0.96753 0.15091 0.0
H436 H 0.90917 0.15096 0.63004 0.0
H437 H 0.93954 0.1212 0.65283 0.0
H438 H 0.87193 0.07483 0.67299 0.0
H439 H 0.84171 0.10441 0.65072 0.0
H440 H 0.90606 0.07423 0.71735 0.0
H441 H 0.91294 0.06768 0.61017 0.0
H442 H 0.92345 0.08342 0.5606 0.0
H443 H 1.00425 0.09887 0.58809 0.0
H444 H 0.99408 0.0835 0.63796 0.0
H445 H 0.93597 0.95111 0.70243 0.0
H446 H 0.92232 0.99365 0.69654 0.0
H447 H 1.00492 0.01657 0.70364 0.0
H448 H 0.01864 0.9737 0.70971 0.0
H449 H 0.97472 0.03604 0.65347 0.0
H450 H 0.96912 0.03234 0.75764 0.0
H451 H 0.95754 0.01444 0.80584 0.0
H452 H 0.87395 0.01657 0.78329 0.0
H453 H 0.88492 0.03418 0.73482 0.0
C454 C 0.90083 0.13449 0.63958 0.0
C455 C 0.87301 0.13008 0.63859 0.0
C456 C 0.9182 0.11749 0.65258 0.0
C457 C 0.9081 0.09559 0.66439 0.0
C458 C 0.88026 0.09161 0.66423 0.0
C459 C 0.86294 0.10861 0.6515 0.0
C460 C 0.92615 0.07598 0.67547 0.0
C461 C 0.92114 0.06596 0.70341 0.0
C462 C 0.94658 0.06564 0.6578 0.0
C463 C 0.95265 0.07479 0.62785 0.0
C464 C 0.93288 0.07462 0.60568 0.0
C465 C 0.93878 0.08344 0.57754 0.0
C466 C 0.96447 0.09223 0.57123 0.0
C467 C 0.98434 0.09213 0.59303 0.0
C468 C 0.97852 0.08338 0.62124 0.0
C469 C 0.95118 0.96529 0.70297 0.0
C470 C 0.9783 0.95933 0.70686 0.0
C471 C 0.94338 0.98955 0.69977 0.0
C472 C 0.96257 0.00833 0.70001 0.0
C473 C 0.98978 1.00243 0.70373 0.0
C474 C 0.99758 0.97803 0.70741 0.0
C475 C 0.95363 0.03375 0.69465 0.0
C476 C 0.96028 0.04482 0.6678 0.0
C477 C 0.93462 0.04498 0.71324 0.0
C478 C 0.92787 0.03455 0.74251 0.0
C479 C 0.94827 0.02887 0.76286 0.0
C480 C 0.94182 0.01878 0.79025 0.0
C481 C 0.91507 0.01435 0.79758 0.0
C482 C 0.89467 0.02004 0.77758 0.0
C483 C 0.90098 0.03013 0.75017 0.0
H484 H 0.91014 0.00653 0.81879 0.0
H485 H 0.96901 0.09904 0.54942 0.0
H486 H 0.6186 0.35879 0.14125 0.0
H487 H 0.59224 0.38834 0.16943 0.0
H488 H 0.66407 0.43014 0.18695 0.0
H489 H 0.69048 0.40034 0.15955 0.0
H490 H 0.6321 0.43301 0.23277 0.0
H491 H 0.6216 0.44214 0.12745 0.0
H492 H 0.60973 0.42869 0.07717 0.0
H493 H 0.52895 0.41435 0.10486 0.0
H494 H 0.54047 0.42735 0.15546 0.0
H495 H 0.59588 0.55713 0.22983 0.0
H496 H 0.61251 0.51558 0.2233 0.0
H497 H 0.53114 0.48863 0.21954 0.0
H498 H 0.51456 0.53055 0.22517 0.0
H499 H 0.56061 0.47282 0.17383 0.0
H500 H 0.57206 0.47644 0.27761 0.0
H501 H 0.58669 0.49308 0.32536 0.0
H502 H 0.66897 0.4877 0.29872 0.0
H503 H 0.65488 0.47128 0.25055 0.0
C504 C 0.62879 0.37404 0.15165 0.0
C505 C 0.65657 0.37734 0.14805 0.0
C506 C 0.61372 0.39096 0.16767 0.0
C507 C 0.62604 0.4118 0.17983 0.0
C508 C 0.65404 0.41426 0.17781 0.0
C509 C 0.66916 0.39718 0.16215 0.0
C510 C 0.6098 0.4322 0.1921 0.0
C511 C 0.6165 0.44178 0.21991 0.0
C512 C 0.58893 0.4433 0.17564 0.0
C513 C 0.58198 0.43541 0.14529 0.0
C514 C 0.60137 0.43592 0.12286 0.0
C515 C 0.5947 0.4284 0.09432 0.0
C516 C 0.56862 0.42063 0.08785 0.0
C517 C 0.54916 0.42033 0.10993 0.0
C518 C 0.55574 0.42775 0.13855 0.0
C519 C 0.58156 0.54225 0.22818 0.0
C520 C 0.55389 0.5469 0.22872 0.0
C521 C 0.59107 0.51849 0.22465 0.0
C522 C 0.57311 0.49885 0.22148 0.0
C523 C 0.54539 0.50341 0.22246 0.0
C524 C 0.53588 0.52728 0.22612 0.0
C525 C 0.58353 0.47419 0.2141 0.0
C526 C 0.57573 0.46378 0.18714 0.0
C527 C 0.60376 0.46271 0.23112 0.0
C528 C 0.61234 0.47249 0.2603 0.0
C529 C 0.59328 0.47878 0.2818 0.0
C530 C 0.60149 0.48823 0.30899 0.0
C531 C 0.62875 0.49143 0.31509 0.0
C532 C 0.64785 0.48517 0.29399 0.0
C533 C 0.63975 0.47573 0.26674 0.0
H534 H 0.63506 0.49876 0.33616 0.0
H535 H 0.56348 0.41497 0.06571 0.0
H536 H 0.38834 0.39313 0.40515 0.0
H537 H 0.41452 0.42363 0.37971 0.0
H538 H 0.38617 0.39647 0.29602 0.0
H539 H 0.36073 0.36425 0.32158 0.0
H540 H 0.43994 0.41139 0.29328 0.0
H541 H 0.35757 0.44588 0.32282 0.0
H542 H 0.31961 0.45489 0.35568 0.0
H543 H 0.37265 0.49223 0.41542 0.0
H544 H 0.41103 0.48311 0.38316 0.0
H545 H 0.47193 0.54064 0.24775 0.0
H546 H 0.45122 0.50003 0.25266 0.0
H547 H 0.4848 0.49345 0.3399 0.0
H548 H 0.50593 0.53361 0.33484 0.0
H549 H 0.42353 0.49537 0.33008 0.0
H550 H 0.50679 0.45393 0.29978 0.0
H551 H 0.54249 0.44482 0.26386 0.0
H552 H 0.48335 0.42382 0.19976 0.0
H553 H 0.44728 0.43243 0.23539 0.0
C554 C 0.38813 0.39288 0.3813 0.0
C555 C 0.37247 0.37581 0.36554 0.0
C556 C 0.40294 0.41072 0.36674 0.0
C557 C 0.40203 0.41265 0.33596 0.0
C558 C 0.3871 0.39537 0.31982 0.0
C559 C 0.37237 0.37712 0.3345 0.0
C560 C 0.41555 0.43379 0.3216 0.0
C561 C 0.43603 0.4298 0.30091 0.0
C562 C 0.41028 0.45793 0.33116 0.0
C563 C 0.38722 0.4637 0.3506 0.0
C564 C 0.36118 0.45589 0.34305 0.0
C565 C 0.33958 0.46103 0.36157 0.0
C566 C 0.34372 0.4741 0.38764 0.0
C567 C 0.36947 0.48211 0.39521 0.0
C568 C 0.39116 0.47699 0.37679 0.0
C569 C 0.476 0.52994 0.26732 0.0
C570 C 0.49088 0.54004 0.29073 0.0
C571 C 0.46403 0.50684 0.27017 0.0
C572 C 0.46659 0.49374 0.2966 0.0
C573 C 0.48281 0.50319 0.31924 0.0
C574 C 0.49485 0.52611 0.31633 0.0
C575 C 0.44871 0.47279 0.3031 0.0
C576 C 0.42717 0.47697 0.32216 0.0
C577 C 0.45266 0.44914 0.29145 0.0
C578 C 0.47435 0.44405 0.27012 0.0
C579 C 0.5014 0.44754 0.27795 0.0
C580 C 0.5217 0.44241 0.2577 0.0
C581 C 0.51519 0.43397 0.22951 0.0
C582 C 0.48836 0.43042 0.22158 0.0
C583 C 0.46799 0.43529 0.24184 0.0
H584 H 0.53095 0.43009 0.21387 0.0
H585 H 0.32697 0.47806 0.40195 0.0
H586 H 0.10086 0.14794 0.88086 0.0
H587 H 0.07081 0.11975 0.85493 0.0
H588 H 0.13884 0.084 0.81591 0.0
H589 H 0.16912 0.11115 0.84272 0.0
H590 H 0.09109 0.09126 0.77666 0.0
H591 H 0.11726 0.06038 0.87418 0.0
H592 H 0.12075 0.0643 0.92822 0.0
H593 H 0.03545 0.07355 0.93398 0.0
H594 H 0.03153 0.07012 0.8799 0.0
H595 H 0.06198 0.96749 0.74857 0.0
H596 H 0.07547 0.00981 0.75736 0.0
H597 H 0.007 0.01961 0.81401 0.0
H598 H 0.99404 0.97689 0.80574 0.0
H599 H 0.04794 0.03097 0.84299 0.0
H600 H 0.01779 0.06028 0.75043 0.0
H601 H 0.00987 0.0628 0.69685 0.0
H602 H 0.09468 0.06019 0.68129 0.0
H603 H 0.10316 0.05841 0.73486 0.0
C604 C 0.10952 0.13417 0.86668 0.0
C605 C 0.13757 0.13175 0.86429 0.0
C606 C 0.09225 0.11823 0.85166 0.0
C607 C 0.10263 0.09976 0.83361 0.0
C608 C 0.13043 0.09827 0.82958 0.0
C609 C 0.14774 0.11395 0.84491 0.0
C610 C 0.08492 0.08028 0.82163 0.0
C611 C 0.08168 0.07796 0.79104 0.0
C612 C 0.07175 0.06361 0.84049 0.0
C613 C 0.07414 0.06528 0.873 0.0
C614 C 0.09928 0.06346 0.88696 0.0
C615 C 0.10133 0.06556 0.91759 0.0
C616 C 0.07834 0.06924 0.93451 0.0
C617 C 0.05324 0.07075 0.92084 0.0
C618 C 0.0511 0.06873 0.89021 0.0
C619 C 0.04921 0.97906 0.76184 0.0
C620 C 0.02682 0.96915 0.77619 0.0
C621 C 0.05687 1.00333 0.76685 0.0
C622 C 0.04224 0.01814 0.78634 0.0
C623 C 0.01863 0.00866 0.79887 0.0
C624 C 0.01111 0.98431 0.79403 0.0
C625 C 0.05418 0.04141 0.79763 0.0
C626 C 0.05667 0.04442 0.8283 0.0
C627 C 0.06598 0.05905 0.77883 0.0
C628 C 0.06109 0.05898 0.74661 0.0
C629 C 0.03475 0.06007 0.73557 0.0
C630 C 0.03016 0.06156 0.70522 0.0
C631 C 0.05173 0.06145 0.68566 0.0
C632 C 0.07798 0.06019 0.69645 0.0
C633 C 0.0827 0.05915 0.72681 0.0
H634 H 0.0481 0.06244 0.66217 0.0
H635 H 0.07994 0.07083 0.95821 0.0
H636 H 0.19607 0.14669 0.98206 0.0
H637 H 0.18199 0.14806 0.03374 0.0
H638 H 0.10772 0.18213 0.00779 0.0
H639 H 0.12169 0.18079 0.95609 0.0
H640 H 0.13089 0.20229 0.06035 0.0
H641 H 0.1081 0.12368 0.01707 0.0
H642 H 0.11883 0.08523 0.99145 0.0
H643 H 0.17339 0.06581 0.06093 0.0
H644 H 0.16338 0.10443 0.08669 0.0
H645 H 0.02607 0.16811 0.15346 0.0
H646 H 0.0593 0.17784 0.11599 0.0
H647 H 0.11901 0.13731 0.16439 0.0
H648 H 0.0855 0.12767 0.20242 0.0
H649 H 0.11337 0.12177 0.10675 0.0
H650 H 0.12887 0.19646 0.15521 0.0
H651 H 0.11764 0.23453 0.18128 0.0
H652 H 0.07751 0.26139 0.10402 0.0
H653 H 0.0881 0.2233 0.07758 0.0
C654 C 0.17696 0.15488 0.98744 0.0
C655 C 0.15992 0.16356 0.96502 0.0
C656 C 0.16891 0.15558 0.01695 0.0
C657 C 0.14378 0.16514 0.02459 0.0
C658 C 0.12724 0.17476 1.00239 0.0
C659 C 0.13513 0.17381 0.97286 0.0
C660 C 0.13364 0.16329 0.05525 0.0
C661 C 0.12703 0.18473 0.07056 0.0
C662 C 0.12947 0.14037 0.06893 0.0
C663 C 0.13528 0.11707 0.0536 0.0
C664 C 0.12257 0.11131 0.02675 0.0
C665 C 0.12848 0.08948 0.01222 0.0
C666 C 0.14682 0.07311 0.02452 0.0
C667 C 0.15924 0.07853 0.0514 0.0
C668 C 0.15347 0.10039 0.06596 0.0
C669 C 0.04649 0.16187 0.15657 0.0
C670 C 0.05325 0.14714 0.18078 0.0
C671 C 0.06551 0.1675 0.13517 0.0
C672 C 0.09168 0.15833 0.13735 0.0
C673 C 0.09894 0.14463 0.16233 0.0
C674 C 0.07989 0.13928 0.18411 0.0
C675 C 0.10992 0.16077 0.11168 0.0
C676 C 0.11792 0.13942 0.09708 0.0
C677 C 0.11545 0.18377 0.09877 0.0
C678 C 0.10921 0.20691 0.11441 0.0
C679 C 0.11749 0.2104 0.1438 0.0
C680 C 0.11126 0.232 0.15866 0.0
C681 C 0.09685 0.25036 0.14432 0.0
C682 C 0.08869 0.24716 0.11508 0.0
C683 C 0.09485 0.22557 0.10013 0.0
H684 H 0.09202 0.26707 0.15586 0.0
H685 H 0.15136 0.05621 0.01325 0.0
H686 H 0.3364 0.2997 0.46773 0.0
H687 H 0.35141 0.29589 0.51934 0.0
H688 H 0.38917 0.3667 0.51372 0.0
H689 H 0.37412 0.37075 0.46307 0.0
H690 H 0.42294 0.33309 0.53655 0.0
H691 H 0.33009 0.35853 0.54875 0.0
H692 H 0.28111 0.3536 0.54361 0.0
H693 H 0.28459 0.2862 0.59181 0.0
H694 H 0.33368 0.29059 0.59687 0.0
H695 H 0.43574 0.39807 0.66286 0.0
H696 H 0.40669 0.3809 0.62474 0.0
H697 H 0.42466 0.30826 0.65539 0.0
H698 H 0.45388 0.32561 0.69415 0.0
H699 H 0.36285 0.3299 0.62341 0.0
H700 H 0.45847 0.30603 0.6105 0.0
H701 H 0.50649 0.31566 0.61738 0.0
H702 H 0.49612 0.38327 0.57084 0.0
H703 H 0.44796 0.37414 0.56408 0.0
C704 C 0.3478 0.31444 0.47763 0.0
C705 C 0.35456 0.33528 0.461 0.0
C706 C 0.35637 0.31225 0.50708 0.0
C707 C 0.37166 0.33092 0.52033 0.0
C708 C 0.37778 0.35188 0.5039 0.0
C709 C 0.36927 0.35409 0.47478 0.0
C710 C 0.38203 0.32912 0.55105 0.0
C711 C 0.40975 0.33188 0.55547 0.0
C712 C 0.36501 0.3273 0.57591 0.0
C713 C 0.33557 0.32471 0.57281 0.0
C714 C 0.32044 0.34254 0.55799 0.0
C715 C 0.29265 0.33987 0.55515 0.0
C716 C 0.27976 0.31955 0.56727 0.0
C717 C 0.29462 0.3019 0.58235 0.0
C718 C 0.32241 0.30447 0.58522 0.0
C719 C 0.43255 0.37849 0.66232 0.0
C720 C 0.44701 0.36313 0.6813 0.0
C721 C 0.4159 0.3687 0.64059 0.0
C722 C 0.41362 0.34335 0.63717 0.0
C723 C 0.42601 0.3279 0.65786 0.0
C724 C 0.44265 0.33779 0.67995 0.0
C725 C 0.40354 0.33399 0.60853 0.0
C726 C 0.37602 0.3297 0.60445 0.0
C727 C 0.42064 0.33433 0.58379 0.0
C728 C 0.44969 0.33946 0.58692 0.0
C729 C 0.46646 0.32298 0.60184 0.0
C730 C 0.49367 0.32835 0.60572 0.0
C731 C 0.50434 0.35008 0.59459 0.0
C732 C 0.48783 0.36645 0.57946 0.0
C733 C 0.4606 0.36117 0.57556 0.0
H734 H 0.5254 0.35423 0.59766 0.0
H735 H 0.25825 0.31752 0.56507 0.0
H736 H 0.65569 0.38528 0.04506 0.0
H737 H 0.6388 0.38496 0.99459 0.0
H738 H 0.66039 0.30905 0.98615 0.0
H739 H 0.67796 0.30945 0.03684 0.0
H740 H 0.67071 0.33244 0.93558 0.0
H741 H 0.59535 0.32534 0.99876 0.0
H742 H 0.5657 0.33533 0.04038 0.0
H743 H 0.55107 0.40627 1.00353 0.0
H744 H 0.58094 0.39683 0.96184 0.0
H745 H 0.55115 0.32447 0.83099 0.0
H746 H 0.58319 0.31619 0.87086 0.0
H747 H 0.61468 0.38923 0.86264 0.0
H748 H 0.58304 0.39733 0.82235 0.0
H749 H 0.57812 0.36294 0.9201 0.0
H750 H 0.66158 0.36869 0.86007 0.0
H751 H 0.68893 0.35478 0.81816 0.0
H752 H 0.68309 0.28076 0.84872 0.0
H753 H 0.65584 0.29433 0.891 0.0
C754 C 0.65674 0.36846 0.03254 0.0
C755 C 0.66772 0.34726 0.04512 0.0
C756 C 0.64713 0.36831 1.00362 0.0
C757 C 0.6478 0.34685 0.98666 0.0
C758 C 0.65955 0.32581 0.99879 0.0
C759 C 0.6695 0.32603 0.02776 0.0
C760 C 0.63524 0.34643 0.9568 0.0
C761 C 0.6504 0.33894 0.93231 0.0
C762 C 0.60861 0.35464 0.9523 0.0
C763 C 0.59054 0.36043 0.97728 0.0
C764 C 0.58595 0.34313 0.99962 0.0
C765 C 0.56908 0.34869 0.02321 0.0
C766 C 0.55652 0.37142 0.0246 0.0
C767 C 0.56081 0.38866 1.0024 0.0
C768 C 0.57768 0.38321 0.97877 0.0
C769 C 0.56606 0.33818 0.83649 0.0
C770 C 0.56507 0.36135 0.82329 0.0
C771 C 0.58421 0.33352 0.85939 0.0
C772 C 0.60137 0.35205 0.86957 0.0
C773 C 0.60194 0.37454 0.85474 0.0
C774 C 0.584 0.37911 0.83159 0.0
C775 C 0.61391 0.34989 0.89909 0.0
C776 C 0.59849 0.35659 0.92353 0.0
C777 C 0.63996 0.34059 0.90351 0.0
C778 C 0.65651 0.33247 0.87842 0.0
C779 C 0.66599 0.34944 0.85771 0.0
C780 C 0.68151 0.34163 0.83394 0.0
C781 C 0.68756 0.31688 0.83061 0.0
C782 C 0.67832 0.29992 0.85126 0.0
C783 C 0.66294 0.30767 0.87519 0.0
H784 H 0.69949 0.31087 0.81211 0.0
H785 H 0.54342 0.37565 0.04285 0.0
H786 H 0.88864 0.18769 0.55507 0.0
H787 H 0.90195 0.19155 0.50356 0.0
H788 H 0.82451 0.16446 0.47594 0.0
H789 H 0.81126 0.1601 0.52764 0.0
H790 H 0.86378 0.14012 0.44929 0.0
H791 H 0.84242 0.22361 0.46123 0.0
H792 H 0.84159 0.26399 0.48522 0.0
H793 H 0.92717 0.26954 0.47737 0.0
H794 H 0.9286 0.22902 0.45372 0.0
H795 H 0.92926 0.13948 0.31145 0.0
H796 H 0.89404 0.15272 0.34543 0.0
H797 H 0.95414 0.18583 0.40144 0.0
H798 H 0.98885 0.17395 0.36693 0.0
H799 H 0.91054 0.21137 0.40544 0.0
H800 H 0.93103 0.1231 0.40927 0.0
H801 H 0.93291 0.08212 0.38666 0.0
H802 H 0.84902 0.08621 0.36547 0.0
H803 H 0.84676 0.12731 0.38775 0.0
C804 C 0.8743 0.18288 0.53803 0.0
C805 C 0.84891 0.17357 0.54547 0.0
C806 C 0.88184 0.18529 0.50854 0.0
C807 C 0.86415 0.17852 0.48576 0.0
C808 C 0.83845 0.16994 0.49309 0.0
C809 C 0.83083 0.16763 0.52266 0.0
C810 C 0.87368 0.17821 0.45469 0.0
C811 C 0.87335 0.15592 0.43938 0.0
C812 C 0.88631 0.19872 0.44167 0.0
C813 C 0.88561 0.22319 0.45577 0.0
C814 C 0.86109 0.23336 0.46477 0.0
C815 C 0.86051 0.25629 0.4783 0.0
C816 C 0.88431 0.26931 0.48284 0.0
C817 C 0.90875 0.25944 0.47382 0.0
C818 C 0.90945 0.2365 0.4603 0.0
C819 C 0.93476 0.15047 0.33035 0.0
C820 C 0.96184 0.15563 0.33652 0.0
C821 C 0.91464 0.15776 0.35003 0.0
C822 C 0.92142 0.16982 0.37647 0.0
C823 C 0.94826 0.17651 0.38135 0.0
C824 C 0.96818 0.16954 0.36164 0.0
C825 C 0.90182 0.17301 0.40091 0.0
C826 C 0.9002 0.19583 0.41498 0.0
C827 C 0.88749 0.15299 0.41293 0.0
C828 C 0.88878 0.12825 0.39993 0.0
C829 C 0.91303 0.11523 0.39972 0.0
C830 C 0.91416 0.09202 0.38696 0.0
C831 C 0.89111 0.08158 0.37459 0.0
C832 C 0.86686 0.09432 0.37503 0.0
C833 C 0.86563 0.11756 0.38773 0.0
H834 H 0.89203 0.06362 0.3647 0.0
H835 H 0.88382 0.28706 0.49332 0.0
H836 H 0.90888 0.83793 0.05701 0.0
H837 H 0.92066 0.84105 1.00507 0.0
H838 H 0.83719 0.83411 0.98093 0.0
H839 H 0.8254 0.83005 0.03347 0.0
H840 H 0.86866 0.81074 0.94085 0.0
H841 H 0.86552 0.89001 0.98117 0.0
H842 H 0.87331 0.92275 0.01753 0.0
H843 H 0.95831 0.91686 1.00469 0.0
H844 H 0.95108 0.8838 0.9686 0.0
H845 H 0.9319 0.87281 0.80686 0.0
H846 H 0.89918 0.86319 0.84579 0.0
H847 H 0.96279 0.834 0.89967 0.0
H848 H 0.9952 0.84319 0.86117 0.0
H849 H 0.92846 0.88081 0.91808 0.0
H850 H 0.9269 0.79527 0.88143 0.0
H851 H 0.91563 0.76592 0.84203 0.0
H852 H 0.83351 0.78918 0.84391 0.0
H853 H 0.84443 0.81901 0.88302 0.0
C854 C 0.89304 0.83696 0.04063 0.0
C855 C 0.86621 0.83419 0.04919 0.0
C856 C 0.89976 0.83876 0.01094 0.0
C857 C 0.87975 0.83847 0.98906 0.0
C858 C 0.85294 0.83458 0.99742 0.0
C859 C 0.84622 0.83235 0.02734 0.0
C860 C 0.88733 0.84348 0.95793 0.0
C861 C 0.88133 0.82629 0.93575 0.0
C862 C 0.9032 0.86415 0.95083 0.0
C863 C 0.90773 0.88434 0.97221 0.0
C864 C 0.88589 0.89561 0.98619 0.0
C865 C 0.8902 0.91423 0.00677 0.0
C866 C 0.91629 0.92187 0.01343 0.0
C867 C 0.93811 0.91094 0.99949 0.0
C868 C 0.93391 0.89228 0.97892 0.0
C869 C 0.93863 0.8634 0.8265 0.0
C870 C 0.96608 0.8588 0.83107 0.0
C871 C 0.91998 0.85807 0.84875 0.0
C872 C 0.92868 0.84798 0.87556 0.0
C873 C 0.95572 0.84175 0.8791 0.0
C874 C 0.97421 0.84704 0.85709 0.0
C875 C 0.91126 0.84733 0.90186 0.0
C876 C 0.91529 0.86556 0.92308 0.0
C877 C 0.89314 0.82806 0.90764 0.0
C878 C 0.88655 0.80956 0.8849 0.0
C879 C 0.9065 0.79428 0.87328 0.0
C880 C 0.90016 0.77753 0.85103 0.0
C881 C 0.87389 0.77573 0.84042 0.0
C882 C 0.85386 0.79061 0.85214 0.0
C883 C 0.86011 0.80743 0.87435 0.0
H884 H 0.86905 0.76279 0.82316 0.0
H885 H 0.91959 0.93628 0.02939 0.0
H886 H 0.69147 0.68513 0.54584 0.0
H887 H 0.68155 0.68314 0.49272 0.0
H888 H 0.60386 0.65223 0.51168 0.0
H889 H 0.61329 0.65449 0.56413 0.0
H890 H 0.62823 0.62702 0.46875 0.0
H891 H 0.61141 0.71202 0.49332 0.0
H892 H 0.62426 0.75294 0.51133 0.0
H893 H 0.68476 0.75801 0.44451 0.0
H894 H 0.67247 0.71695 0.42634 0.0
H895 H 0.53913 0.67827 0.35303 0.0
H896 H 0.57068 0.68765 0.39277 0.0
H897 H 0.62502 0.63318 0.35937 0.0
H898 H 0.59294 0.62336 0.31992 0.0
H899 H 0.62215 0.70052 0.40521 0.0
H900 H 0.64519 0.5991 0.41777 0.0
H901 H 0.62781 0.55904 0.40133 0.0
H902 H 0.54802 0.58819 0.39729 0.0
H903 H 0.56491 0.62828 0.41407 0.0
C904 C 0.67225 0.67801 0.53862 0.0
C905 C 0.65338 0.66959 0.55932 0.0
C906 C 0.66664 0.67683 0.50827 0.0
C907 C 0.64201 0.66736 0.49816 0.0
C908 C 0.62315 0.65926 0.51884 0.0
C909 C 0.62867 0.66048 0.54893 0.0
C910 C 0.6352 0.66581 0.46623 0.0
C911 C 0.62737 0.64306 0.45474 0.0
C912 C 0.63394 0.68668 0.44784 0.0
C913 C 0.64127 0.71132 0.45874 0.0
C914 C 0.62761 0.72178 0.48264 0.0
C915 C 0.63475 0.74501 0.49284 0.0
C916 C 0.65538 0.75803 0.47914 0.0
C917 C 0.66884 0.74788 0.45515 0.0
C918 C 0.66179 0.72464 0.44489 0.0
C919 C 0.55834 0.66908 0.35345 0.0
C920 C 0.56381 0.65035 0.33323 0.0
C921 C 0.57639 0.67443 0.37618 0.0
C922 C 0.60009 0.66089 0.37938 0.0
C923 C 0.60678 0.64376 0.35749 0.0
C924 C 0.5886 0.63834 0.33474 0.0
C925 C 0.61478 0.6618 0.40801 0.0
C926 C 0.62396 0.68437 0.4189 0.0
C927 C 0.61686 0.64084 0.42616 0.0
C928 C 0.60637 0.61669 0.41681 0.0
C929 C 0.62394 0.59689 0.41347 0.0
C930 C 0.61417 0.5742 0.40409 0.0
C931 C 0.58684 0.5711 0.39817 0.0
C932 C 0.56919 0.59063 0.4018 0.0
C933 C 0.57885 0.61333 0.41125 0.0
H934 H 0.57934 0.55354 0.39083 0.0
H935 H 0.66088 0.77602 0.48706 0.0
H936 H 0.39426 0.65123 0.96115 0.0
H937 H 0.404 0.64826 0.01359 0.0
H938 H 0.33355 0.69045 0.03332 0.0
H939 H 0.32266 0.69256 0.98046 0.0
H940 H 0.39383 0.70121 0.06295 0.0
H941 H 0.31956 0.64459 0.05316 0.0
H942 H 0.29436 0.61205 0.02749 0.0
H943 H 0.36244 0.5645 0.03399 0.0
H944 H 0.38818 0.59691 0.05929 0.0
H945 H 0.44515 0.66472 0.20397 0.0
H946 H 0.41025 0.67653 0.16845 0.0
H947 H 0.43146 0.61493 0.11396 0.0
H948 H 0.46483 0.60264 0.14984 0.0
H949 H 0.38109 0.62024 0.10994 0.0
H950 H 0.45779 0.67702 0.10732 0.0
H951 H 0.48706 0.70863 0.12927 0.0
H952 H 0.4188 0.75485 0.14304 0.0
H953 H 0.38917 0.72344 0.12122 0.0
C954 C 0.38049 0.65961 0.97648 0.0
C955 C 0.3573 0.6717 0.96642 0.0
C956 C 0.38631 0.65812 1.00649 0.0
C957 C 0.36943 0.66901 0.02726 0.0
C958 C 0.34681 0.68193 0.01754 0.0
C959 C 0.3407 0.68316 0.98734 0.0
C960 C 0.37553 0.66573 0.059 0.0
C961 C 0.39041 0.68379 0.07372 0.0
C962 C 0.37136 0.6429 0.07273 0.0
C963 C 0.35582 0.62323 0.05797 0.0
C964 C 0.32921 0.62726 0.04892 0.0
C965 C 0.31482 0.60882 0.03447 0.0
C966 C 0.3268 0.58623 0.02908 0.0
C967 C 0.35318 0.58201 0.03819 0.0
C968 C 0.36766 0.60039 0.05262 0.0
C969 C 0.44154 0.65329 0.18501 0.0
C970 C 0.45767 0.63276 0.17984 0.0
C971 C 0.42184 0.6602 0.16443 0.0
C972 C 0.41829 0.64682 0.13816 0.0
C973 C 0.43356 0.62562 0.13394 0.0
C974 C 0.45289 0.61868 0.15446 0.0
C975 C 0.40067 0.65529 0.11356 0.0
C976 C 0.38366 0.63809 0.09996 0.0
C977 C 0.40333 0.67877 0.10065 0.0
C978 C 0.42124 0.69775 0.11319 0.0
C979 C 0.44904 0.69388 0.11518 0.0
C980 C 0.46569 0.71177 0.12755 0.0
C981 C 0.45478 0.73369 0.13769 0.0
C982 C 0.42722 0.73782 0.1353 0.0
C983 C 0.41049 0.72 0.12294 0.0
H984 H 0.4677 0.7475 0.14728 0.0
H985 H 0.31564 0.57199 0.01787 0.0
H986 H 0.11284 0.8412 0.44908 0.0
H987 H 0.10167 0.84349 0.50125 0.0
H988 H 0.18067 0.81755 0.52401 0.0
H989 H 0.19185 0.81477 0.47128 0.0
H990 H 0.14196 0.79765 0.5598 0.0
H991 H 0.1675 0.87818 0.52927 0.0
H992 H 0.16667 0.91345 0.49548 0.0
H993 H 0.08243 0.92259 0.51108 0.0
H994 H 0.08269 0.88724 0.54475 0.0
H995 H 0.08696 0.87874 0.69195 0.0
H996 H 0.12069 0.86924 0.65423 0.0
H997 H 0.06763 0.81497 0.617 0.0
H998 H 0.03384 0.82488 0.6539 0.0
H999 H 0.10687 0.87723 0.5948 0.0
H1000 H 0.10627 0.77097 0.5838 0.0
H1001 H 0.10695 0.73494 0.61635 0.0
H1002 H 0.14324 0.77764 0.68513 0.0
H1003 H 0.1432 0.81388 0.65293 0.0
C1004 C 0.12785 0.83594 0.46517 0.0
C1005 C 0.15338 0.82819 0.45615 0.0
C1006 C 0.12145 0.83727 0.495 0.0
C1007 C 0.14055 0.83128 0.5166 0.0
C1008 C 0.1657 0.82246 0.50772 0.0
C1009 C 0.17207 0.82088 0.47767 0.0
C1010 C 0.13411 0.83509 0.54826 0.0
C1011 C 0.13454 0.81508 0.56761 0.0
C1012 C 0.12511 0.85803 0.55868 0.0
C1013 C 0.12513 0.88004 0.53953 0.0
C1014 C 0.14881 0.88773 0.52552 0.0
C1015 C 0.14843 0.90772 0.50636 0.0
C1016 C 0.12451 0.92024 0.50113 0.0
C1017 C 0.10095 0.9129 0.5152 0.0
C1018 C 0.10122 0.89293 0.5344 0.0
C1019 C 0.083 0.86417 0.67636 0.0
C1020 C 0.05784 0.85257 0.67567 0.0
C1021 C 0.10218 0.85886 0.65476 0.0
C1022 C 0.09666 0.84142 0.63278 0.0
C1023 C 0.07246 0.82831 0.63386 0.0
C1024 C 0.05315 0.83399 0.65493 0.0
C1025 C 0.1136 0.83952 0.60602 0.0
C1026 C 0.11498 0.85993 0.58739 0.0
C1027 C 0.12434 0.81699 0.59642 0.0
C1028 C 0.12459 0.79521 0.61592 0.0
C1029 C 0.11455 0.77267 0.6058 0.0
C1030 C 0.1148 0.75221 0.62423 0.0
C1031 C 0.1251 0.75402 0.65281 0.0
C1032 C 0.13521 0.7763 0.66303 0.0
C1033 C 0.13502 0.79682 0.64471 0.0
H1034 H 0.12528 0.73817 0.66704 0.0
H1035 H 0.12423 0.93564 0.48619 0.0
H1036 H 0.25246 0.27188 0.35358 0.0
H1037 H 0.2267 0.24216 0.32461 0.0
H1038 H 0.18468 0.30098 0.28145 0.0
H1039 H 0.21003 0.33063 0.31077 0.0
H1040 H 0.15011 0.27018 0.30163 0.0
H1041 H 0.22882 0.26196 0.2437 0.0
H1042 H 0.27692 0.256 0.23371 0.0
H1043 H 0.27347 0.18485 0.27329 0.0
H1044 H 0.22543 0.19051 0.28392 0.0
H1045 H 0.06712 0.18242 0.23441 0.0
H1046 H 0.10269 0.21359 0.23221 0.0
H1047 H 0.15263 0.16913 0.28833 0.0
H1048 H 0.11751 0.13816 0.2903 0.0
H1049 H 0.18334 0.19601 0.25093 0.0
H1050 H 0.10862 0.20912 0.31834 0.0
H1051 H 0.06062 0.21451 0.3296 0.0
H1052 H 0.0575 0.27672 0.27211 0.0
H1053 H 0.10544 0.27146 0.26023 0.0
C1054 C 0.23824 0.27845 0.33734 0.0
C1055 C 0.23316 0.30358 0.33459 0.0
C1056 C 0.2235 0.26144 0.32072 0.0
C1057 C 0.20368 0.26924 0.30067 0.0
C1058 C 0.1997 0.29442 0.2968 0.0
C1059 C 0.21424 0.31137 0.31356 0.0
C1060 C 0.18525 0.25129 0.28617 0.0
C1061 C 0.15748 0.25433 0.28985 0.0
C1062 C 0.19463 0.23028 0.27118 0.0
C1063 C 0.22353 0.22674 0.26478 0.0
C1064 C 0.23835 0.24511 0.25047 0.0
C1065 C 0.26561 0.24177 0.24466 0.0
C1066 C 0.27825 0.22008 0.2529 0.0
C1067 C 0.26365 0.20165 0.26692 0.0
C1068 C 0.23639 0.2049 0.27281 0.0
C1069 C 0.08613 0.17892 0.2452 0.0
C1070 C 0.08949 0.15804 0.2628 0.0
C1071 C 0.10638 0.19679 0.24413 0.0
C1072 C 0.13015 0.19394 0.26066 0.0
C1073 C 0.13451 0.17185 0.27551 0.0
C1074 C 0.11435 0.15417 0.27669 0.0
C1075 C 0.14849 0.21491 0.26681 0.0
C1076 C 0.17614 0.21232 0.26187 0.0
C1077 C 0.13911 0.23637 0.28073 0.0
C1078 C 0.11046 0.23975 0.28817 0.0
C1079 C 0.09763 0.22387 0.30801 0.0
C1080 C 0.07046 0.2269 0.3145 0.0
C1081 C 0.056 0.24591 0.30152 0.0
C1082 C 0.06871 0.26198 0.2821 0.0
C1083 C 0.09587 0.25898 0.27548 0.0
H1084 H 0.03496 0.24822 0.30656 0.0
H1085 H 0.29936 0.21753 0.24839 0.0
H1086 H 0.25129 0.23331 0.85558 0.0
H1087 H 0.27426 0.26595 0.82859 0.0
H1088 H 0.32489 0.21247 0.78683 0.0
H1089 H 0.30146 0.17991 0.81286 0.0
H1090 H 0.32357 0.27752 0.83735 0.0
H1091 H 0.35276 0.23294 0.72455 0.0
H1092 H 0.33151 0.20755 0.6861 0.0
H1093 H 0.25371 0.23175 0.71359 0.0
H1094 H 0.27447 0.25759 0.75191 0.0
H1095 H 0.44996 0.30912 0.79908 0.0
H1096 H 0.40997 0.2835 0.80064 0.0
H1097 H 0.37013 0.33186 0.73975 0.0
H1098 H 0.41078 0.3577 0.73784 0.0
H1099 H 0.35652 0.27849 0.73428 0.0
H1100 H 0.35683 0.34349 0.80452 0.0
H1101 H 0.37732 0.37035 0.84202 0.0
H1102 H 0.39133 0.3085 0.89805 0.0
H1103 H 0.37134 0.28119 0.86066 0.0
C1104 C 0.26668 0.22848 0.83986 0.0
C1105 C 0.27475 0.20404 0.83662 0.0
C1106 C 0.27993 0.24716 0.82456 0.0
C1107 C 0.30137 0.24178 0.80558 0.0
C1108 C 0.30821 0.21722 0.80092 0.0
C1109 C 0.29498 0.19858 0.81613 0.0
C1110 C 0.31914 0.26157 0.79417 0.0
C1111 C 0.33031 0.27793 0.81466 0.0
C1112 C 0.32784 0.26252 0.76444 0.0
C1113 C 0.31521 0.24712 0.74126 0.0
C1114 C 0.33113 0.23298 0.7223 0.0
C1115 C 0.31916 0.21847 0.70054 0.0
C1116 C 0.29128 0.218 0.69744 0.0
C1117 C 0.2753 0.23207 0.71607 0.0
C1118 C 0.28716 0.24662 0.73785 0.0
C1119 C 0.43298 0.31391 0.7853 0.0
C1120 C 0.43332 0.33543 0.76851 0.0
C1121 C 0.41013 0.29928 0.78624 0.0
C1122 C 0.38694 0.30603 0.77077 0.0
C1123 C 0.38785 0.32639 0.75191 0.0
C1124 C 0.41103 0.34107 0.75075 0.0
C1125 C 0.36137 0.29337 0.77781 0.0
C1126 C 0.34901 0.27838 0.75668 0.0
C1127 C 0.35113 0.29388 0.80685 0.0
C1128 C 0.36267 0.31029 0.82972 0.0
C1129 C 0.3644 0.3356 0.82478 0.0
C1130 C 0.37593 0.3509 0.84601 0.0
C1131 C 0.38564 0.34114 0.87239 0.0
C1132 C 0.38379 0.31604 0.87761 0.0
C1133 C 0.37232 0.30064 0.85642 0.0
H1134 H 0.39457 0.35301 0.8888 0.0
H1135 H 0.28205 0.20675 0.68059 0.0
H1136 H 0.72299 0.18686 0.70783 0.0
H1137 H 0.69728 0.21988 0.7304 0.0
H1138 H 0.71528 0.26641 0.65631 0.0
H1139 H 0.74172 0.23348 0.63405 0.0
H1140 H 0.71367 0.29276 0.70636 0.0
H1141 H 0.65698 0.2325 0.6594 0.0
H1142 H 0.63957 0.19092 0.65057 0.0
H1143 H 0.61483 0.18595 0.7409 0.0
H1144 H 0.63248 0.2274 0.75036 0.0
H1145 H 0.60034 0.36776 0.69151 0.0
H1146 H 0.63754 0.33931 0.68894 0.0
H1147 H 0.60926 0.30315 0.76739 0.0
H1148 H 0.57116 0.33143 0.76959 0.0
H1149 H 0.61833 0.2712 0.72392 0.0
H1150 H 0.66778 0.3365 0.76673 0.0
H1151 H 0.68364 0.37896 0.77238 0.0
H1152 H 0.72112 0.37561 0.68752 0.0
H1153 H 0.70487 0.33341 0.68091 0.0
C1154 C 0.72184 0.20431 0.69664 0.0
C1155 C 0.73407 0.20757 0.66905 0.0
C1156 C 0.70709 0.22314 0.7095 0.0
C1157 C 0.70377 0.24547 0.69475 0.0
C1158 C 0.71744 0.24931 0.66808 0.0
C1159 C 0.73255 0.23052 0.65536 0.0
C1160 C 0.68429 0.26391 0.70577 0.0
C1161 C 0.6928 0.28812 0.71009 0.0
C1162 C 0.65715 0.25774 0.71139 0.0
C1163 C 0.64632 0.23292 0.70566 0.0
C1164 C 0.64799 0.22247 0.67742 0.0
C1165 C 0.63807 0.19894 0.6723 0.0
C1166 C 0.62617 0.18578 0.69518 0.0
C1167 C 0.6241 0.19615 0.72321 0.0
C1168 C 0.63406 0.21966 0.72847 0.0
C1169 C 0.60216 0.35401 0.70854 0.0
C1170 C 0.58273 0.35191 0.73081 0.0
C1171 C 0.62366 0.33783 0.70716 0.0
C1172 C 0.62647 0.31919 0.72813 0.0
C1173 C 0.60762 0.31749 0.75105 0.0
C1174 C 0.58597 0.33378 0.75246 0.0
C1175 C 0.64753 0.30026 0.72404 0.0
C1176 C 0.63931 0.27587 0.72088 0.0
C1177 C 0.67482 0.3064 0.71919 0.0
C1178 C 0.68499 0.33173 0.72329 0.0
C1179 C 0.67927 0.34484 0.74918 0.0
C1180 C 0.68833 0.36887 0.75256 0.0
C1181 C 0.70342 0.37993 0.73037 0.0
C1182 C 0.70946 0.367 0.70472 0.0
C1183 C 0.70031 0.34302 0.70114 0.0
H1184 H 0.71044 0.39853 0.73305 0.0
H1185 H 0.61849 0.16756 0.69117 0.0
H1186 H 0.81209 0.33023 0.19241 0.0
H1187 H 0.83643 0.3022 0.22478 0.0
H1188 H 0.79034 0.24179 0.19023 0.0
H1189 H 0.76543 0.27002 0.15827 0.0
H1190 H 0.80512 0.23438 0.2493 0.0
H1191 H 0.84711 0.25753 0.15742 0.0
H1192 H 0.86415 0.28711 0.12099 0.0
H1193 H 0.91914 0.31597 0.18529 0.0
H1194 H 0.90205 0.28682 0.22228 0.0
H1195 H 0.89768 0.13768 0.2322 0.0
H1196 H 0.86393 0.16988 0.23201 0.0
H1197 H 0.92023 0.21903 0.27366 0.0
H1198 H 0.95412 0.18652 0.27424 0.0
H1199 H 0.90093 0.23569 0.22002 0.0
H1200 H 0.86464 0.20617 0.30913 0.0
H1201 H 0.84819 0.17534 0.34429 0.0
H1202 H 0.78379 0.15686 0.28523 0.0
H1203 H 0.80003 0.18737 0.24949 0.0
C1204 C 0.80656 0.31107 0.19247 0.0
C1205 C 0.78706 0.30221 0.17272 0.0
C1206 C 0.8205 0.29506 0.21092 0.0
C1207 C 0.81561 0.26981 0.20951 0.0
C1208 C 0.79448 0.26118 0.19169 0.0
C1209 C 0.78026 0.2773 0.17343 0.0
C1210 C 0.83503 0.25237 0.22287 0.0
C1211 C 0.82605 0.23459 0.24291 0.0
C1212 C 0.86252 0.25295 0.21503 0.0
C1213 C 0.87309 0.27021 0.19269 0.0
C1214 C 0.86271 0.2703 0.16384 0.0
C1215 C 0.87238 0.28698 0.14309 0.0
C1216 C 0.89266 0.30345 0.15084 0.0
C1217 C 0.90338 0.30323 0.17934 0.0
C1218 C 0.89371 0.28665 0.2002 0.0
C1219 C 0.90257 0.15511 0.24221 0.0
C1220 C 0.92849 0.15967 0.25317 0.0
C1221 C 0.88323 0.17349 0.24218 0.0
C1222 C 0.88954 0.1969 0.25278 0.0
C1223 C 0.91493 0.20107 0.26545 0.0
C1224 C 0.93421 0.18249 0.26591 0.0
C1225 C 0.87109 0.21749 0.24631 0.0
C1226 C 0.88018 0.23579 0.22716 0.0
C1227 C 0.84382 0.21721 0.25492 0.0
C1228 C 0.83367 0.19902 0.2765 0.0
C1229 C 0.84707 0.19544 0.30351 0.0
C1230 C 0.83777 0.17802 0.32358 0.0
C1231 C 0.815 0.16411 0.31696 0.0
C1232 C 0.80143 0.16766 0.29032 0.0
C1233 C 0.81064 0.18506 0.27017 0.0
H1234 H 0.80786 0.1506 0.3325 0.0
H1235 H 0.90013 0.31635 0.13475 0.0
H1236 H 0.74563 0.7176 0.70875 0.0
H1237 H 0.78942 0.73091 0.72849 0.0
H1238 H 0.78204 0.79884 0.68106 0.0
H1239 H 0.73895 0.78559 0.66119 0.0
H1240 H 0.83119 0.78088 0.67548 0.0
H1241 H 0.76774 0.79357 0.7549 0.0
H1242 H 0.73483 0.78092 0.79239 0.0
H1243 H 0.7935 0.73412 0.83244 0.0
H1244 H 0.82661 0.74617 0.79483 0.0
H1245 H 0.90142 0.8743 0.73507 0.0
H1246 H 0.8621 0.84769 0.73456 0.0
H1247 H 0.9105 0.78762 0.76494 0.0
H1248 H 0.95026 0.81453 0.76555 0.0
H1249 H 0.84617 0.79299 0.78269 0.0
H1250 H 0.91073 0.78293 0.70301 0.0
H1251 H 0.94316 0.79987 0.66749 0.0
H1252 H 0.88117 0.84394 0.629 0.0
H1253 H 0.8485 0.82758 0.6647 0.0
C1254 C 0.75361 0.73521 0.7023 0.0
C1255 C 0.73879 0.75062 0.68357 0.0
C1256 C 0.77848 0.7429 0.71379 0.0
C1257 C 0.78894 0.76601 0.70652 0.0
C1258 C 0.77444 0.78097 0.68709 0.0
C1259 C 0.74972 0.77341 0.67582 0.0
C1260 C 0.81484 0.77518 0.71884 0.0
C1261 C 0.83447 0.78322 0.69896 0.0
C1262 C 0.81956 0.77795 0.74953 0.0
C1263 C 0.79951 0.77047 0.7718 0.0
C1264 C 0.77352 0.78035 0.77148 0.0
C1265 C 0.75484 0.77334 0.79279 0.0
C1266 C 0.76203 0.75665 0.81471 0.0
C1267 C 0.78792 0.74697 0.81539 0.0
C1268 C 0.80664 0.75387 0.79407 0.0
C1269 C 0.90342 0.85574 0.74305 0.0
C1270 C 0.92875 0.84641 0.75035 0.0
C1271 C 0.88096 0.84054 0.74271 0.0
C1272 C 0.88347 0.81565 0.74937 0.0
C1273 C 0.90817 0.80681 0.75983 0.0
C1274 C 0.93082 0.82218 0.76027 0.0
C1275 C 0.86197 0.79879 0.73925 0.0
C1276 C 0.8432 0.78963 0.75936 0.0
C1277 C 0.85789 0.79491 0.70876 0.0
C1278 C 0.87725 0.80416 0.68663 0.0
C1279 C 0.90407 0.79634 0.68708 0.0
C1280 C 0.92249 0.80583 0.66692 0.0
C1281 C 0.91424 0.82301 0.64603 0.0
C1282 C 0.88753 0.83065 0.6452 0.0
C1283 C 0.86906 0.82125 0.66537 0.0
H1284 H 0.92853 0.83036 0.63046 0.0
H1285 H 0.74756 0.75127 0.83122 0.0
H1286 H 0.75362 0.77874 0.15228 0.0
H1287 H 0.71141 0.76607 0.17522 0.0
H1288 H 0.75564 0.72837 0.24315 0.0
H1289 H 0.79777 0.7408 0.22013 0.0
H1290 H 0.72062 0.69875 0.21875 0.0
H1291 H 0.71686 0.77941 0.25838 0.0
H1292 H 0.71822 0.82442 0.25741 0.0
H1293 H 0.65025 0.82546 0.19908 0.0
H1294 H 0.64871 0.78043 0.19935 0.0
H1295 H 0.60136 0.65213 0.27858 0.0
H1296 H 0.64202 0.67747 0.27871 0.0
H1297 H 0.61009 0.71963 0.20644 0.0
H1298 H 0.56922 0.69507 0.20722 0.0
H1299 H 0.64015 0.74836 0.241 0.0
H1300 H 0.6491 0.6691 0.19443 0.0
H1301 H 0.64739 0.62408 0.19332 0.0
H1302 H 0.70586 0.62089 0.26291 0.0
H1303 H 0.70764 0.66595 0.26466 0.0
C1304 C 0.75431 0.76835 0.17256 0.0
C1305 C 0.77899 0.76061 0.18427 0.0
C1306 C 0.73016 0.76109 0.18569 0.0
C1307 C 0.73028 0.74621 0.21097 0.0
C1308 C 0.75498 0.73971 0.2236 0.0
C1309 C 0.77905 0.74683 0.21043 0.0
C1310 C 0.70493 0.73527 0.22234 0.0
C1311 C 0.70326 0.70971 0.22429 0.0
C1312 C 0.68198 0.74941 0.22891 0.0
C1313 C 0.6828 0.77651 0.22873 0.0
C1314 C 0.70233 0.78922 0.24517 0.0
C1315 C 0.70311 0.81474 0.24477 0.0
C1316 C 0.68436 0.82779 0.22815 0.0
C1317 C 0.66476 0.81533 0.21193 0.0
C1318 C 0.66391 0.7898 0.21223 0.0
C1319 C 0.60254 0.66752 0.26378 0.0
C1320 C 0.58208 0.67169 0.2431 0.0
C1321 C 0.62594 0.68178 0.26349 0.0
C1322 C 0.62935 0.70022 0.24219 0.0
C1323 C 0.60803 0.70554 0.22304 0.0
C1324 C 0.5847 0.69139 0.22342 0.0
C1325 C 0.65594 0.71195 0.23717 0.0
C1326 C 0.65778 0.73756 0.23614 0.0
C1327 C 0.67908 0.69789 0.23118 0.0
C1328 C 0.67827 0.67085 0.22991 0.0
C1329 C 0.66147 0.65878 0.20961 0.0
C1330 C 0.6605 0.63327 0.20885 0.0
C1331 C 0.67645 0.61963 0.2281 0.0
C1332 C 0.69348 0.63149 0.24806 0.0
C1333 C 0.69448 0.657 0.24895 0.0
H1334 H 0.67566 0.59988 0.22749 0.0
H1335 H 0.685 0.84755 0.22788 0.0
H1336 H 0.23783 0.715 0.35164 0.0
H1337 H 0.28164 0.70155 0.3345 0.0
H1338 H 0.29316 0.77033 0.28997 0.0
H1339 H 0.24878 0.78398 0.30715 0.0
H1340 H 0.30738 0.72825 0.25508 0.0
H1341 H 0.32806 0.76255 0.34851 0.0
H1342 H 0.32257 0.77077 0.40155 0.0
H1343 H 0.33387 0.69469 0.42068 0.0
H1344 H 0.33902 0.68594 0.3677 0.0
H1345 H 0.4506 0.68582 0.25162 0.0
H1346 H 0.41039 0.7118 0.2549 0.0
H1347 H 0.36677 0.65207 0.29412 0.0
H1348 H 0.40634 0.62612 0.2902 0.0
H1349 H 0.37375 0.69889 0.32857 0.0
H1350 H 0.34662 0.66486 0.23376 0.0
H1351 H 0.35268 0.65714 0.18067 0.0
H1352 H 0.35552 0.73432 0.16427 0.0
H1353 H 0.34993 0.7425 0.21738 0.0
C1354 C 0.24965 0.72731 0.3382 0.0
C1355 C 0.23985 0.75053 0.33069 0.0
C1356 C 0.27473 0.71962 0.32847 0.0
C1357 C 0.29072 0.73495 0.311 0.0
C1358 C 0.28112 0.75822 0.30341 0.0
C1359 C 0.25594 0.76606 0.31343 0.0
C1360 C 0.31745 0.7262 0.30126 0.0
C1361 C 0.32221 0.72235 0.27108 0.0
C1362 C 0.33678 0.71844 0.32211 0.0
C1363 C 0.33378 0.72357 0.35407 0.0
C1364 C 0.32918 0.74753 0.364 0.0
C1365 C 0.32616 0.7523 0.39406 0.0
C1366 C 0.32784 0.73326 0.41447 0.0
C1367 C 0.33258 0.70942 0.40485 0.0
C1368 C 0.33559 0.70456 0.3748 0.0
C1369 C 0.43203 0.67802 0.25967 0.0
C1370 C 0.43133 0.65389 0.27018 0.0
C1371 C 0.40921 0.69289 0.26179 0.0
C1372 C 0.3857 0.68381 0.27484 0.0
C1373 C 0.38471 0.65937 0.28394 0.0
C1374 C 0.40726 0.64456 0.28157 0.0
C1375 C 0.36313 0.7001 0.28261 0.0
C1376 C 0.35923 0.70535 0.31252 0.0
C1377 C 0.34484 0.70923 0.26149 0.0
C1378 C 0.34819 0.7043 0.2296 0.0
C1379 C 0.34884 0.68019 0.21889 0.0
C1380 C 0.35208 0.67573 0.18878 0.0
C1381 C 0.35448 0.69522 0.16912 0.0
C1382 C 0.35366 0.71923 0.17953 0.0
C1383 C 0.35044 0.72379 0.20963 0.0
H1384 H 0.35695 0.6917 0.14582 0.0
H1385 H 0.3255 0.73698 0.43773 0.0
H1386 H 0.24786 0.72527 0.85858 0.0
H1387 H 0.20545 0.73781 0.83591 0.0
H1388 H 0.24901 0.7794 0.77095 0.0
H1389 H 0.29126 0.76616 0.79275 0.0
H1390 H 0.18774 0.78138 0.83596 0.0
H1391 H 0.21154 0.79093 0.70972 0.0
H1392 H 0.23457 0.76766 0.67087 0.0
H1393 H 0.22598 0.7018 0.72131 0.0
H1394 H 0.20246 0.72454 0.76024 0.0
H1395 H 0.11975 0.87886 0.78124 0.0
H1396 H 0.15652 0.84988 0.78543 0.0
H1397 H 0.10833 0.79471 0.74259 0.0
H1398 H 0.07121 0.82409 0.7379 0.0
H1399 H 0.16458 0.79091 0.7302 0.0
H1400 H 0.10669 0.79469 0.81322 0.0
H1401 H 0.08008 0.8152 0.85158 0.0
H1402 H 0.15176 0.84714 0.88772 0.0
H1403 H 0.17876 0.82716 0.84924 0.0
C1404 C 0.2484 0.7364 0.83887 0.0
C1405 C 0.27297 0.74494 0.82771 0.0
C1406 C 0.22411 0.74373 0.82602 0.0
C1407 C 0.22387 0.75963 0.80166 0.0
C1408 C 0.24846 0.7669 0.78942 0.0
C1409 C 0.27269 0.75953 0.80217 0.0
C1410 C 0.19841 0.77132 0.7916 0.0
C1411 C 0.18259 0.78307 0.81281 0.0
C1412 C 0.19116 0.77334 0.76141 0.0
C1413 C 0.20543 0.75954 0.73809 0.0
C1414 C 0.21446 0.77147 0.71251 0.0
C1415 C 0.22761 0.75836 0.69045 0.0
C1416 C 0.23182 0.73329 0.69366 0.0
C1417 C 0.22281 0.72125 0.71891 0.0
C1418 C 0.20961 0.73425 0.74101 0.0
C1419 C 0.11721 0.86079 0.77188 0.0
C1420 C 0.0925 0.85361 0.75963 0.0
C1421 C 0.13823 0.84421 0.77438 0.0
C1422 C 0.1349 0.81995 0.7651 0.0
C1423 C 0.11121 0.8133 0.75016 0.0
C1424 C 0.09007 0.8301 0.74739 0.0
C1425 C 0.15491 0.80139 0.77447 0.0
C1426 C 0.16962 0.78858 0.75325 0.0
C1427 C 0.16081 0.79778 0.80469 0.0
C1428 C 0.14473 0.80952 0.82823 0.0
C1429 C 0.11676 0.8062 0.82924 0.0
C1430 C 0.10161 0.81773 0.85101 0.0
C1431 C 0.11421 0.83249 0.87205 0.0
C1432 C 0.14202 0.8357 0.8714 0.0
C1433 C 0.15726 0.82425 0.84963 0.0
H1434 H 0.10245 0.84141 0.88889 0.0
H1435 H 0.24201 0.72318 0.67656 0.0
loop_
_geom_bond_atom_site_label_1
_geom_bond_atom_site_label_2
_geom_bond_distance
_geom_bond_site_symmetry_2
_ccdc_geom_bond_type
H0 C1 0.949 . S
C1 H0 0.949 . S
C1 C2 1.395 . S
C1 C3 1.391 . S
C2 C1 1.395 . S
C2 C5 1.390 . S
C3 C1 1.391 . S
C3 C7 1.387 . S
C3 C8 1.491 . S
H4 C5 0.950 . S
C5 C2 1.390 . S
C5 H4 0.950 . S
C5 C6 1.378 . S
C6 C5 1.378 . S
C6 C7 1.409 . S
C7 C3 1.387 . S
C7 C6 1.409 . S
C7 H9 0.951 . S
C8 C3 1.491 . S
C8 C10 1.382 . S
C8 C12 1.404 . S
H9 C7 0.951 . S
C10 C8 1.382 . S
C10 C11 1.390 . S
C10 H15 0.949 . S
C11 C10 1.390 . S
C11 C16 1.399 . S
C12 C8 1.404 . S
C12 H13 0.950 . S
C12 C14 1.375 . S
H13 C12 0.950 . S
C14 C12 1.375 . S
C14 C16 1.382 . S
C14 H18 0.950 . S
H15 C10 0.949 . S
C16 C11 1.399 . S
C16 C14 1.382 . S
C16 H17 0.952 . S
H17 C16 0.952 . S
H18 C14 0.950 . S
H19 C20 0.949 . S
C20 H19 0.949 . S
C20 C21 1.395 . S
C20 C22 1.391 . S
C21 C20 1.395 . S
C21 C24 1.390 . S
C22 C20 1.391 . S
C22 C26 1.387 . S
C22 C27 1.491 . S
H23 C24 0.950 . S
C24 C21 1.390 . S
C24 H23 0.950 . S
C24 C25 1.378 . S
C25 C24 1.378 . S
C25 C26 1.409 . S
C26 C22 1.387 . S
C26 C25 1.409 . S
C26 H28 0.951 . S
C27 C22 1.491 . S
C27 C29 1.382 . S
C27 C31 1.404 . S
H28 C26 0.951 . S
C29 C27 1.382 . S
C29 C30 1.390 . S
C29 H34 0.949 . S
C30 C29 1.390 . S
C30 C35 1.399 . S
C31 C27 1.404 . S
C31 H32 0.950 . S
C31 C33 1.375 . S
H32 C31 0.950 . S
C33 C31 1.375 . S
C33 C35 1.382 . S
C33 H37 0.950 . S
H34 C29 0.949 . S
C35 C30 1.399 . S
C35 C33 1.382 . S
C35 H36 0.952 . S
H36 C35 0.952 . S
H37 C33 0.950 . S
H38 C39 0.949 . S
C39 H38 0.949 . S
C39 C40 1.395 . S
C39 C41 1.391 . S
C40 C39 1.395 . S
C40 C43 1.390 . S
C41 C39 1.391 . S
C41 C45 1.387 . S
C41 C46 1.491 . S
H42 C43 0.950 . S
C43 C40 1.390 . S
C43 H42 0.950 . S
C43 C44 1.378 . S
C44 C43 1.378 . S
C44 C45 1.409 . S
C45 C41 1.387 . S
C45 C44 1.409 . S
C45 H47 0.951 . S
C46 C41 1.491 . S
C46 C48 1.382 . S
C46 C50 1.404 . S
H47 C45 0.951 . S
C48 C46 1.382 . S
C48 C49 1.390 . S
C48 H53 0.949 . S
C49 C48 1.390 . S
C49 C54 1.399 . S
C50 C46 1.404 . S
C50 H51 0.950 . S
C50 C52 1.375 . S
H51 C50 0.950 . S
C52 C50 1.375 . S
C52 C54 1.382 . S
C52 H56 0.950 . S
H53 C48 0.949 . S
C54 C49 1.399 . S
C54 C52 1.382 . S
C54 H55 0.952 . S
H55 C54 0.952 . S
H56 C52 0.950 . S
H57 C58 0.949 . S
C58 H57 0.949 . S
C58 C59 1.395 . S
C58 C60 1.391 . S
C59 C58 1.395 . S
C59 C62 1.390 . S
C60 C58 1.391 . S
C60 C64 1.387 . S
C60 C65 1.491 . S
H61 C62 0.950 . S
C62 C59 1.390 . S
C62 H61 0.950 . S
C62 C63 1.378 . S
C63 C62 1.378 . S
C63 C64 1.409 . S
C64 C60 1.387 . S
C64 C63 1.409 . S
C64 H66 0.951 . S
C65 C60 1.491 . S
C65 C67 1.382 . S
C65 C69 1.404 . S
H66 C64 0.951 . S
C67 C65 1.382 . S
C67 C68 1.390 . S
C67 H72 0.949 . S
C68 C67 1.390 . S
C68 C73 1.399 . S
C69 C65 1.404 . S
C69 H70 0.950 . S
C69 C71 1.375 . S
H70 C69 0.950 . S
C71 C69 1.375 . S
C71 C73 1.382 . S
C71 H75 0.950 . S
H72 C67 0.949 . S
C73 C68 1.399 . S
C73 C71 1.382 . S
C73 H74 0.952 . S
H74 C73 0.952 . S
H75 C71 0.950 . S
H76 C77 0.949 . S
C77 H76 0.949 . S
C77 C78 1.395 . S
C77 C79 1.391 . S
C78 C77 1.395 . S
C78 C81 1.390 . S
C79 C77 1.391 . S
C79 C83 1.387 . S
C79 C84 1.491 . S
H80 C81 0.950 . S
C81 C78 1.390 . S
C81 H80 0.950 . S
C81 C82 1.378 . S
C82 C81 1.378 . S
C82 C83 1.409 . S
C83 C79 1.387 . S
C83 C82 1.409 . S
C83 H85 0.951 . S
C84 C79 1.491 . S
C84 C86 1.382 . S
C84 C88 1.404 . S
H85 C83 0.951 . S
C86 C84 1.382 . S
C86 C87 1.390 . S
C86 H91 0.949 . S
C87 C86 1.390 . S
C87 C92 1.399 . S
C88 C84 1.404 . S
C88 H89 0.950 . S
C88 C90 1.375 . S
H89 C88 0.950 . S
C90 C88 1.375 . S
C90 C92 1.382 . S
C90 H94 0.950 . S
H91 C86 0.949 . S
C92 C87 1.399 . S
C92 C90 1.382 . S
C92 H93 0.952 . S
H93 C92 0.952 . S
H94 C90 0.950 . S
H95 C96 0.949 . S
C96 H95 0.949 . S
C96 C97 1.395 . S
C96 C98 1.391 . S
C97 C96 1.395 . S
C97 C100 1.390 . S
C98 C96 1.391 . S
C98 C102 1.387 . S
C98 C103 1.491 . S
H99 C100 0.950 . S
C100 C97 1.390 . S
C100 H99 0.950 . S
C100 C101 1.378 . S
C101 C100 1.378 . S
C101 C102 1.409 . S
C102 C98 1.387 . S
C102 C101 1.409 . S
C102 H104 0.951 . S
C103 C98 1.491 . S
C103 C105 1.382 . S
C103 C107 1.404 . S
H104 C102 0.951 . S
C105 C103 1.382 . S
C105 C106 1.390 . S
C105 H110 0.949 . S
C106 C105 1.390 . S
C106 C111 1.399 . S
C107 C103 1.404 . S
C107 H108 0.950 . S
C107 C109 1.375 . S
H108 C107 0.950 . S
C109 C107 1.375 . S
C109 C111 1.382 . S
C109 H113 0.950 . S
H110 C105 0.949 . S
C111 C106 1.399 . S
C111 C109 1.382 . S
C111 H112 0.952 . S
H112 C111 0.952 . S
H113 C109 0.950 . S
H114 C115 0.949 . S
C115 H114 0.949 . S
C115 C116 1.395 . S
C115 C117 1.391 . S
C116 C115 1.395 . S
C116 C119 1.390 . S
C117 C115 1.391 . S
C117 C121 1.387 . S
C117 C122 1.491 . S
H118 C119 0.950 . S
C119 C116 1.390 . S
C119 H118 0.950 . S
C119 C120 1.378 . S
C120 C119 1.378 . S
C120 C121 1.409 . S
C121 C117 1.387 . S
C121 C120 1.409 . S
C121 H123 0.951 . S
C122 C117 1.491 . S
C122 C124 1.382 . S
C122 C126 1.404 . S
H123 C121 0.951 . S
C124 C122 1.382 . S
C124 C125 1.390 . S
C124 H129 0.949 . S
C125 C124 1.390 . S
C125 C130 1.399 . S
C126 C122 1.404 . S
C126 H127 0.950 . S
C126 C128 1.375 . S
H127 C126 0.950 . S
C128 C126 1.375 . S
C128 C130 1.382 . S
C128 H132 0.950 . S
H129 C124 0.949 . S
C130 C125 1.399 . S
C130 C128 1.382 . S
C130 H131 0.952 . S
H131 C130 0.952 . S
H132 C128 0.950 . S
H133 C134 0.949 . S
C134 H133 0.949 . S
C134 C135 1.395 . S
C134 C136 1.391 . S
C135 C134 1.395 . S
C135 C138 1.390 . S
C136 C134 1.391 . S
C136 C140 1.387 . S
C136 C141 1.491 . S
H137 C138 0.950 . S
C138 C135 1.390 . S
C138 H137 0.950 . S
C138 C139 1.378 . S
C139 C138 1.378 . S
C139 C140 1.409 . S
C140 C136 1.387 . S
C140 C139 1.409 . S
C140 H142 0.951 . S
C141 C136 1.491 . S
C141 C143 1.382 . S
C141 C145 1.404 . S
H142 C140 0.951 . S
C143 C141 1.382 . S
C143 C144 1.390 . S
C143 H148 0.949 . S
C144 C143 1.390 . S
C144 C149 1.399 . S
C145 C141 1.404 . S
C145 H146 0.950 . S
C145 C147 1.375 . S
H146 C145 0.950 . S
C147 C145 1.375 . S
C147 C149 1.382 . S
C147 H151 0.950 . S
H148 C143 0.949 . S
C149 C144 1.399 . S
C149 C147 1.382 . S
C149 H150 0.952 . S
H150 C149 0.952 . S
H151 C147 0.950 . S
Zn152 O158 1.920 1_455 S
Zn152 O164 1.898 . S
Zn152 O167 1.905 . S
Zn153 O161 1.905 1_655 S
Zn153 O162 1.898 . S
Zn153 O170 1.920 . S
Zn154 O157 2.062 1_455 S
Zn154 O160 2.133 . S
Zn154 O163 2.095 1_455 S
Zn154 O165 2.142 . S
Zn154 O166 2.139 . S
Zn154 O169 2.059 1_455 S
C155 O160 1.166 . S
C155 O161 1.182 . S
C156 O162 1.167 . S
C156 O163 1.299 . S
O157 Zn154 2.062 1_655 S
O157 C171 1.305 . S
O158 Zn152 1.920 1_655 S
O158 C171 1.234 . S
C159 O164 1.167 . S
C159 O165 1.299 . S
O160 Zn154 2.133 . S
O160 C155 1.166 . S
O161 Zn153 1.905 1_455 S
O161 C155 1.182 . S
O162 Zn153 1.898 . S
O162 C156 1.167 . S
O163 Zn154 2.095 1_655 S
O163 C156 1.299 . S
O164 Zn152 1.898 . S
O164 C159 1.167 . S
O165 Zn154 2.142 . S
O165 C159 1.299 . S
O166 Zn154 2.139 . S
O166 C168 1.166 . S
O167 Zn152 1.905 . S
O167 C168 1.182 . S
C168 O166 1.166 . S
C168 O167 1.182 . S
O169 Zn154 2.059 1_655 S
O169 C172 1.305 . S
O170 Zn153 1.920 . S
O170 C172 1.234 . S
C171 O157 1.305 . S
C171 O158 1.234 . S
C172 O169 1.305 . S
C172 O170 1.234 . S
Zn173 O179 1.920 . S
Zn173 O185 1.898 . S
Zn173 O188 1.905 . S
Zn174 O182 1.905 . S
Zn174 O183 1.898 . S
Zn174 O191 1.920 . S
Zn175 O178 2.080 . S
Zn175 O181 2.114 . S
Zn175 O184 2.120 . S
Zn175 O186 2.120 . S
Zn175 O187 2.114 . S
Zn175 O190 2.080 . S
C176 O181 1.166 . S
C176 O182 1.182 . S
C177 O183 1.167 . S
C177 O184 1.299 . S
O178 Zn175 2.080 . S
O178 C192 1.305 . S
O179 Zn173 1.920 . S
O179 C192 1.234 . S
C180 O185 1.167 . S
C180 O186 1.299 . S
O181 Zn175 2.114 . S
O181 C176 1.166 . S
O182 Zn174 1.905 . S
O182 C176 1.182 . S
O183 Zn174 1.898 . S
O183 C177 1.167 . S
O184 Zn175 2.120 . S
O184 C177 1.299 . S
O185 Zn173 1.898 . S
O185 C180 1.167 . S
O186 Zn175 2.120 . S
O186 C180 1.299 . S
O187 Zn175 2.114 . S
O187 C189 1.166 . S
O188 Zn173 1.905 . S
O188 C189 1.182 . S
C189 O187 1.166 . S
C189 O188 1.182 . S
O190 Zn175 2.080 . S
O190 C193 1.305 . S
O191 Zn174 1.920 . S
O191 C193 1.234 . S
C192 O178 1.305 . S
C192 O179 1.234 . S
C193 O190 1.305 . S
C193 O191 1.234 . S
Zn194 O200 1.920 . S
Zn194 O206 1.898 . S
Zn194 O209 1.905 1_455 S
Zn195 O203 1.905 . S
Zn195 O204 1.898 . S
Zn195 O212 1.920 1_655 S
Zn196 O199 2.080 . S
Zn196 O202 2.114 1_455 S
Zn196 O205 2.120 1_455 S
Zn196 O207 2.120 . S
Zn196 O208 2.114 1_455 S
Zn196 O211 2.080 . S
C197 O202 1.166 . S
C197 O203 1.182 . S
C198 O204 1.167 . S
C198 O205 1.299 . S
O199 Zn196 2.080 . S
O199 C213 1.305 . S
O200 Zn194 1.920 . S
O200 C213 1.234 . S
C201 O206 1.167 . S
C201 O207 1.299 . S
O202 Zn196 2.114 1_655 S
O202 C197 1.166 . S
O203 Zn195 1.905 . S
O203 C197 1.182 . S
O204 Zn195 1.898 . S
O204 C198 1.167 . S
O205 Zn196 2.120 1_655 S
O205 C198 1.299 . S
O206 Zn194 1.898 . S
O206 C201 1.167 . S
O207 Zn196 2.120 . S
O207 C201 1.299 . S
O208 Zn196 2.114 1_655 S
O208 C210 1.166 . S
O209 Zn194 1.905 1_655 S
O209 C210 1.182 . S
C210 O208 1.166 . S
C210 O209 1.182 . S
O211 Zn196 2.080 . S
O211 C214 1.305 . S
O212 Zn195 1.920 1_455 S
O212 C214 1.234 . S
C213 O199 1.305 . S
C213 O200 1.234 . S
C214 O211 1.305 . S
C214 O212 1.234 . S
Zn215 O221 1.920 . S
Zn215 O227 1.898 . S
Zn215 O230 1.905 . S
Zn216 O224 1.905 . S
Zn216 O225 1.898 . S
Zn216 O233 1.920 . S
Zn217 O220 2.080 . S
Zn217 O223 2.114 . S
Zn217 O226 2.120 . S
Zn217 O228 2.120 . S
Zn217 O229 2.114 . S
Zn217 O232 2.080 . S
C218 O223 1.166 . S
C218 O224 1.182 . S
C219 O225 1.167 . S
C219 O226 1.299 . S
O220 Zn217 2.080 . S
O220 C234 1.305 . S
O221 Zn215 1.920 . S
O221 C234 1.234 . S
C222 O227 1.167 . S
C222 O228 1.299 . S
O223 Zn217 2.114 . S
O223 C218 1.166 . S
O224 Zn216 1.905 . S
O224 C218 1.182 . S
O225 Zn216 1.898 . S
O225 C219 1.167 . S
O226 Zn217 2.120 . S
O226 C219 1.299 . S
O227 Zn215 1.898 . S
O227 C222 1.167 . S
O228 Zn217 2.120 . S
O228 C222 1.299 . S
O229 Zn217 2.114 . S
O229 C231 1.166 . S
O230 Zn215 1.905 . S
O230 C231 1.182 . S
C231 O229 1.166 . S
C231 O230 1.182 . S
O232 Zn217 2.080 . S
O232 C235 1.305 . S
O233 Zn216 1.920 . S
O233 C235 1.234 . S
C234 O220 1.305 . S
C234 O221 1.234 . S
C235 O232 1.305 . S
C235 O233 1.234 . S
H236 C254 0.951 . S
H237 C256 0.951 . S
H238 C258 0.950 . S
H239 C259 0.950 . S
H240 C261 0.950 . S
H241 C264 0.950 . S
H242 C265 0.950 . S
H243 C267 0.950 . S
H244 C268 0.950 . S
H245 C269 0.951 . S
H246 C271 0.951 . S
H247 C273 0.950 . S
H248 C274 0.950 . S
H249 C276 0.950 . S
H250 C279 0.950 . S
H251 C280 0.950 . S
H252 C282 0.950 . S
H253 C283 0.950 . S
C254 H236 0.951 . S
C254 C255 1.366 . S
C254 C256 1.388 . S
C255 C254 1.366 . S
C255 C259 1.385 . S
C256 H237 0.951 . S
C256 C254 1.388 . S
C256 C257 1.366 . S
C257 C256 1.366 . S
C257 C258 1.414 . S
C257 C260 1.499 . S
C258 H238 0.950 . S
C258 C257 1.414 . S
C258 C259 1.374 . S
C259 H239 0.950 . S
C259 C255 1.385 . S
C259 C258 1.374 . S
C260 C257 1.499 . S
C260 C261 1.373 . S
C260 C262 1.389 . S
C261 H240 0.950 . S
C261 C260 1.373 . S
C261 C277 1.377 . S
C262 C260 1.389 . S
C262 C263 1.524 . S
C262 C276 1.377 . S
C263 C262 1.524 . S
C263 C264 1.397 . S
C263 C268 1.363 . S
C264 H241 0.950 . S
C264 C263 1.397 . S
C264 C265 1.334 . S
C265 H242 0.950 . S
C265 C264 1.334 . S
C265 C266 1.287 . S
C266 C265 1.287 . S
C266 C267 1.524 . S
C266 H285 0.913 . S
C267 H243 0.950 . S
C267 C266 1.524 . S
C267 C268 1.415 . S
C268 H244 0.950 . S
C268 C263 1.363 . S
C268 C267 1.415 . S
C269 H245 0.951 . S
C269 C270 1.366 . S
C269 C271 1.388 1_545 S
C270 C269 1.366 . S
C270 C274 1.385 . S
C271 H246 0.951 . S
C271 C269 1.388 1_565 S
C271 C272 1.366 . S
C272 C271 1.366 . S
C272 C273 1.414 1_565 S
C272 C275 1.499 . S
C273 H247 0.950 . S
C273 C272 1.414 1_545 S
C273 C274 1.374 . S
C274 H248 0.950 . S
C274 C270 1.385 . S
C274 C273 1.374 . S
C275 C272 1.499 . S
C275 C276 1.373 . S
C275 C277 1.389 . S
C276 H249 0.950 . S
C276 C262 1.377 . S
C276 C275 1.373 . S
C277 C261 1.377 . S
C277 C275 1.389 . S
C277 C278 1.524 . S
C278 C277 1.524 . S
C278 C279 1.397 . S
C278 C283 1.363 . S
C279 H250 0.950 . S
C279 C278 1.397 . S
C279 C280 1.334 . S
C280 H251 0.950 . S
C280 C279 1.334 . S
C280 C281 1.287 . S
C281 C280 1.287 . S
C281 C282 1.524 . S
C281 H284 0.999 . S
C282 H252 0.950 . S
C282 C281 1.524 . S
C282 C283 1.415 . S
C283 H253 0.950 . S
C283 C278 1.363 . S
C283 C282 1.415 . S
H284 C281 0.999 . S
H285 C266 0.913 . S
H286 C304 0.951 . S
H287 C306 0.951 . S
H288 C308 0.950 . S
H289 C309 0.950 . S
H290 C311 0.950 . S
H291 C314 0.950 . S
H292 C315 0.950 . S
H293 C317 0.950 . S
H294 C318 0.950 . S
H295 C319 0.951 . S
H296 C321 0.951 . S
H297 C323 0.950 . S
H298 C324 0.950 . S
H299 C326 0.950 . S
H300 C329 0.950 . S
H301 C330 0.950 . S
H302 C332 0.950 . S
H303 C333 0.950 . S
C304 H286 0.951 . S
C304 C305 1.366 . S
C304 C306 1.388 . S
C305 C304 1.366 . S
C305 C309 1.385 . S
C306 H287 0.951 . S
C306 C304 1.388 . S
C306 C307 1.366 . S
C307 C306 1.366 . S
C307 C308 1.414 . S
C307 C310 1.499 . S
C308 H288 0.950 . S
C308 C307 1.414 . S
C308 C309 1.374 . S
C309 H289 0.950 . S
C309 C305 1.385 . S
C309 C308 1.374 . S
C310 C307 1.499 . S
C310 C311 1.373 . S
C310 C312 1.389 . S
C311 H290 0.950 . S
C311 C310 1.373 . S
C311 C327 1.377 . S
C312 C310 1.389 . S
C312 C313 1.524 . S
C312 C326 1.377 . S
C313 C312 1.524 . S
C313 C314 1.397 . S
C313 C318 1.363 . S
C314 H291 0.950 . S
C314 C313 1.397 . S
C314 C315 1.334 . S
C315 H292 0.950 . S
C315 C314 1.334 . S
C315 C316 1.287 . S
C316 C315 1.287 . S
C316 C317 1.524 . S
C316 H335 0.913 . S
C317 H293 0.950 . S
C317 C316 1.524 . S
C317 C318 1.415 . S
C318 H294 0.950 . S
C318 C313 1.363 . S
C318 C317 1.415 . S
C319 H295 0.951 . S
C319 C320 1.366 . S
C319 C321 1.388 . S
C320 C319 1.366 . S
C320 C324 1.385 . S
C321 H296 0.951 . S
C321 C319 1.388 . S
C321 C322 1.366 . S
C322 C321 1.366 . S
C322 C323 1.414 . S
C322 C325 1.499 . S
C323 H297 0.950 . S
C323 C322 1.414 . S
C323 C324 1.374 . S
C324 H298 0.950 . S
C324 C320 1.385 . S
C324 C323 1.374 . S
C325 C322 1.499 . S
C325 C326 1.373 . S
C325 C327 1.389 . S
C326 H299 0.950 . S
C326 C312 1.377 . S
C326 C325 1.373 . S
C327 C311 1.377 . S
C327 C325 1.389 . S
C327 C328 1.524 . S
C328 C327 1.524 . S
C328 C329 1.397 . S
C328 C333 1.363 . S
C329 H300 0.950 . S
C329 C328 1.397 . S
C329 C330 1.334 . S
C330 H301 0.950 . S
C330 C329 1.334 . S
C330 C331 1.287 . S
C331 C330 1.287 . S
C331 C332 1.524 . S
C331 H334 0.999 . S
C332 H302 0.950 . S
C332 C331 1.524 . S
C332 C333 1.415 . S
C333 H303 0.950 . S
C333 C328 1.363 . S
C333 C332 1.415 . S
H334 C331 0.999 . S
H335 C316 0.913 . S
H336 C354 0.951 . S
H337 C356 0.951 . S
H338 C358 0.950 . S
H339 C359 0.950 . S
H340 C361 0.950 . S
H341 C364 0.950 . S
H342 C365 0.950 . S
H343 C367 0.950 . S
H344 C368 0.950 . S
H345 C369 0.951 . S
H346 C371 0.951 . S
H347 C373 0.950 . S
H348 C374 0.950 . S
H349 C376 0.950 . S
H350 C379 0.950 . S
H351 C380 0.950 . S
H352 C382 0.950 . S
H353 C383 0.950 . S
C354 H336 0.951 . S
C354 C355 1.366 . S
C354 C356 1.388 . S
C355 C354 1.366 . S
C355 C359 1.385 . S
C356 H337 0.951 . S
C356 C354 1.388 . S
C356 C357 1.366 . S
C357 C356 1.366 . S
C357 C358 1.414 . S
C357 C360 1.499 . S
C358 H338 0.950 . S
C358 C357 1.414 . S
C358 C359 1.374 . S
C359 H339 0.950 . S
C359 C355 1.385 . S
C359 C358 1.374 . S
C360 C357 1.499 . S
C360 C361 1.373 . S
C360 C362 1.389 . S
C361 H340 0.950 . S
C361 C360 1.373 . S
C361 C377 1.377 . S
C362 C360 1.389 . S
C362 C363 1.524 . S
C362 C376 1.377 . S
C363 C362 1.524 . S
C363 C364 1.397 . S
C363 C368 1.363 . S
C364 H341 0.950 . S
C364 C363 1.397 . S
C364 C365 1.334 . S
C365 H342 0.950 . S
C365 C364 1.334 . S
C365 C366 1.287 . S
C366 C365 1.287 . S
C366 C367 1.524 . S
C366 H385 0.913 . S
C367 H343 0.950 . S
C367 C366 1.524 . S
C367 C368 1.415 . S
C368 H344 0.950 . S
C368 C363 1.363 . S
C368 C367 1.415 . S
C369 H345 0.951 . S
C369 C370 1.366 . S
C369 C371 1.388 . S
C370 C369 1.366 . S
C370 C374 1.385 . S
C371 H346 0.951 . S
C371 C369 1.388 . S
C371 C372 1.366 . S
C372 C371 1.366 . S
C372 C373 1.414 . S
C372 C375 1.499 . S
C373 H347 0.950 . S
C373 C372 1.414 . S
C373 C374 1.374 . S
C374 H348 0.950 . S
C374 C370 1.385 . S
C374 C373 1.374 . S
C375 C372 1.499 . S
C375 C376 1.373 . S
C375 C377 1.389 . S
C376 H349 0.950 . S
C376 C362 1.377 . S
C376 C375 1.373 . S
C377 C361 1.377 . S
C377 C375 1.389 . S
C377 C378 1.524 . S
C378 C377 1.524 . S
C378 C379 1.397 . S
C378 C383 1.363 . S
C379 H350 0.950 . S
C379 C378 1.397 . S
C379 C380 1.334 . S
C380 H351 0.950 . S
C380 C379 1.334 . S
C380 C381 1.287 . S
C381 C380 1.287 . S
C381 C382 1.524 . S
C381 H384 0.999 . S
C382 H352 0.950 . S
C382 C381 1.524 . S
C382 C383 1.415 . S
C383 H353 0.950 . S
C383 C378 1.363 . S
C383 C382 1.415 . S
H384 C381 0.999 . S
H385 C366 0.913 . S
H386 C404 0.951 . S
H387 C406 0.951 . S
H388 C408 0.950 . S
H389 C409 0.950 . S
H390 C411 0.950 . S
H391 C414 0.950 . S
H392 C415 0.950 . S
H393 C417 0.950 . S
H394 C418 0.950 . S
H395 C419 0.951 . S
H396 C421 0.951 . S
H397 C423 0.950 . S
H398 C424 0.950 . S
H399 C426 0.950 . S
H400 C429 0.950 . S
H401 C430 0.950 . S
H402 C432 0.950 . S
H403 C433 0.950 . S
C404 H386 0.951 . S
C404 C405 1.366 . S
C404 C406 1.388 . S
C405 C404 1.366 . S
C405 C409 1.385 . S
C406 H387 0.951 . S
C406 C404 1.388 . S
C406 C407 1.366 . S
C407 C406 1.366 . S
C407 C408 1.414 . S
C407 C410 1.499 . S
C408 H388 0.950 . S
C408 C407 1.414 . S
C408 C409 1.374 . S
C409 H389 0.950 . S
C409 C405 1.385 . S
C409 C408 1.374 . S
C410 C407 1.499 . S
C410 C411 1.373 . S
C410 C412 1.389 . S
C411 H390 0.950 . S
C411 C410 1.373 . S
C411 C427 1.377 . S
C412 C410 1.389 . S
C412 C413 1.524 . S
C412 C426 1.377 . S
C413 C412 1.524 . S
C413 C414 1.397 . S
C413 C418 1.363 . S
C414 H391 0.950 . S
C414 C413 1.397 . S
C414 C415 1.334 . S
C415 H392 0.950 . S
C415 C414 1.334 . S
C415 C416 1.287 . S
C416 C415 1.287 . S
C416 C417 1.524 . S
C416 H435 0.913 . S
C417 H393 0.950 . S
C417 C416 1.524 . S
C417 C418 1.415 . S
C418 H394 0.950 . S
C418 C413 1.363 . S
C418 C417 1.415 . S
C419 H395 0.951 . S
C419 C420 1.366 . S
C419 C421 1.388 1_545 S
C420 C419 1.366 . S
C420 C424 1.385 . S
C421 H396 0.951 . S
C421 C419 1.388 1_565 S
C421 C422 1.366 . S
C422 C421 1.366 . S
C422 C423 1.414 1_565 S
C422 C425 1.499 . S
C423 H397 0.950 . S
C423 C422 1.414 1_545 S
C423 C424 1.374 . S
C424 H398 0.950 . S
C424 C420 1.385 . S
C424 C423 1.374 . S
C425 C422 1.499 . S
C425 C426 1.373 . S
C425 C427 1.389 . S
C426 H399 0.950 . S
C426 C412 1.377 . S
C426 C425 1.373 . S
C427 C411 1.377 . S
C427 C425 1.389 . S
C427 C428 1.524 . S
C428 C427 1.524 . S
C428 C429 1.397 . S
C428 C433 1.363 . S
C429 H400 0.950 . S
C429 C428 1.397 . S
C429 C430 1.334 . S
C430 H401 0.950 . S
C430 C429 1.334 . S
C430 C431 1.287 1_655 S
C431 C430 1.287 1_455 S
C431 C432 1.524 . S
C431 H434 0.999 . S
C432 H402 0.950 . S
C432 C431 1.524 . S
C432 C433 1.415 1_455 S
C433 H403 0.950 . S
C433 C428 1.363 . S
C433 C432 1.415 1_655 S
H434 C431 0.999 . S
H435 C416 0.913 . S
H436 C454 0.951 . S
H437 C456 0.951 . S
H438 C458 0.950 . S
H439 C459 0.950 . S
H440 C461 0.950 . S
H441 C464 0.950 . S
H442 C465 0.950 . S
H443 C467 0.950 . S
H444 C468 0.950 . S
H445 C469 0.951 . S
H446 C471 0.951 . S
H447 C473 0.950 . S
H448 C474 0.950 . S
H449 C476 0.950 . S
H450 C479 0.950 . S
H451 C480 0.950 . S
H452 C482 0.950 . S
H453 C483 0.950 . S
C454 H436 0.951 . S
C454 C455 1.366 . S
C454 C456 1.388 . S
C455 C454 1.366 . S
C455 C459 1.385 . S
C456 H437 0.951 . S
C456 C454 1.388 . S
C456 C457 1.366 . S
C457 C456 1.366 . S
C457 C458 1.414 . S
C457 C460 1.499 . S
C458 H438 0.950 . S
C458 C457 1.414 . S
C458 C459 1.374 . S
C459 H439 0.950 . S
C459 C455 1.385 . S
C459 C458 1.374 . S
C460 C457 1.499 . S
C460 C461 1.373 . S
C460 C462 1.389 . S
C461 H440 0.950 . S
C461 C460 1.373 . S
C461 C477 1.377 . S
C462 C460 1.389 . S
C462 C463 1.524 . S
C462 C476 1.377 . S
C463 C462 1.524 . S
C463 C464 1.397 . S
C463 C468 1.363 . S
C464 H441 0.950 . S
C464 C463 1.397 . S
C464 C465 1.334 . S
C465 H442 0.950 . S
C465 C464 1.334 . S
C465 C466 1.287 . S
C466 C465 1.287 . S
C466 C467 1.524 . S
C466 H485 0.913 . S
C467 H443 0.950 . S
C467 C466 1.524 . S
C467 C468 1.415 . S
C468 H444 0.950 . S
C468 C463 1.363 . S
C468 C467 1.415 . S
C469 H445 0.951 . S
C469 C470 1.366 . S
C469 C471 1.388 . S
C470 C469 1.366 . S
C470 C474 1.385 . S
C471 H446 0.951 . S
C471 C469 1.388 . S
C471 C472 1.366 1_565 S
C472 C471 1.366 1_545 S
C472 C473 1.414 . S
C472 C475 1.499 . S
C473 H447 0.950 . S
C473 C472 1.414 . S
C473 C474 1.374 1_545 S
C474 H448 0.950 . S
C474 C470 1.385 . S
C474 C473 1.374 1_565 S
C475 C472 1.499 . S
C475 C476 1.373 . S
C475 C477 1.389 . S
C476 H449 0.950 . S
C476 C462 1.377 . S
C476 C475 1.373 . S
C477 C461 1.377 . S
C477 C475 1.389 . S
C477 C478 1.524 . S
C478 C477 1.524 . S
C478 C479 1.397 . S
C478 C483 1.363 . S
C479 H450 0.950 . S
C479 C478 1.397 . S
C479 C480 1.334 1_545 S
C480 H451 0.950 . S
C480 C479 1.334 1_565 S
C480 C481 1.287 . S
C481 C480 1.287 . S
C481 C482 1.524 . S
C481 H484 0.999 . S
C482 H452 0.950 . S
C482 C481 1.524 . S
C482 C483 1.415 1_565 S
C483 H453 0.950 . S
C483 C478 1.363 . S
C483 C482 1.415 1_545 S
H484 C481 0.999 . S
H485 C466 0.913 . S
H486 C504 0.951 . S
H487 C506 0.951 . S
H488 C508 0.950 . S
H489 C509 0.950 . S
H490 C511 0.950 . S
H491 C514 0.950 . S
H492 C515 0.950 . S
H493 C517 0.950 . S
H494 C518 0.950 . S
H495 C519 0.951 . S
H496 C521 0.951 . S
H497 C523 0.950 . S
H498 C524 0.950 . S
H499 C526 0.950 . S
H500 C529 0.950 . S
H501 C530 0.950 . S
H502 C532 0.950 . S
H503 C533 0.950 . S
C504 H486 0.951 . S
C504 C505 1.366 . S
C504 C506 1.388 . S
C505 C504 1.366 . S
C505 C509 1.385 . S
C506 H487 0.951 . S
C506 C504 1.388 . S
C506 C507 1.366 . S
C507 C506 1.366 . S
C507 C508 1.414 . S
C507 C510 1.499 . S
C508 H488 0.950 . S
C508 C507 1.414 . S
C508 C509 1.374 . S
C509 H489 0.950 . S
C509 C505 1.385 . S
C509 C508 1.374 . S
C510 C507 1.499 . S
C510 C511 1.373 . S
C510 C512 1.389 . S
C511 H490 0.950 . S
C511 C510 1.373 . S
C511 C527 1.377 . S
C512 C510 1.389 . S
C512 C513 1.524 . S
C512 C526 1.377 . S
C513 C512 1.524 . S
C513 C514 1.397 . S
C513 C518 1.363 . S
C514 H491 0.950 . S
C514 C513 1.397 . S
C514 C515 1.334 . S
C515 H492 0.950 . S
C515 C514 1.334 . S
C515 C516 1.287 . S
C516 C515 1.287 . S
C516 C517 1.524 . S
C516 H535 0.913 . S
C517 H493 0.950 . S
C517 C516 1.524 . S
C517 C518 1.415 . S
C518 H494 0.950 . S
C518 C513 1.363 . S
C518 C517 1.415 . S
C519 H495 0.951 . S
C519 C520 1.366 . S
C519 C521 1.388 . S
C520 C519 1.366 . S
C520 C524 1.385 . S
C521 H496 0.951 . S
C521 C519 1.388 . S
C521 C522 1.366 . S
C522 C521 1.366 . S
C522 C523 1.414 . S
C522 C525 1.499 . S
C523 H497 0.950 . S
C523 C522 1.414 . S
C523 C524 1.374 . S
C524 H498 0.950 . S
C524 C520 1.385 . S
C524 C523 1.374 . S
C525 C522 1.499 . S
C525 C526 1.373 . S
C525 C527 1.389 . S
C526 H499 0.950 . S
C526 C512 1.377 . S
C526 C525 1.373 . S
C527 C511 1.377 . S
C527 C525 1.389 . S
C527 C528 1.524 . S
C528 C527 1.524 . S
C528 C529 1.397 . S
C528 C533 1.363 . S
C529 H500 0.950 . S
C529 C528 1.397 . S
C529 C530 1.334 . S
C530 H501 0.950 . S
C530 C529 1.334 . S
C530 C531 1.287 . S
C531 C530 1.287 . S
C531 C532 1.524 . S
C531 H534 0.999 . S
C532 H502 0.950 . S
C532 C531 1.524 . S
C532 C533 1.415 . S
C533 H503 0.950 . S
C533 C528 1.363 . S
C533 C532 1.415 . S
H534 C531 0.999 . S
H535 C516 0.913 . S
H536 C554 0.951 . S
H537 C556 0.951 . S
H538 C558 0.950 . S
H539 C559 0.950 . S
H540 C561 0.950 . S
H541 C564 0.950 . S
H542 C565 0.950 . S
H543 C567 0.950 . S
H544 C568 0.950 . S
H545 C569 0.951 . S
H546 C571 0.951 . S
H547 C573 0.950 . S
H548 C574 0.950 . S
H549 C576 0.950 . S
H550 C579 0.950 . S
H551 C580 0.950 . S
H552 C582 0.950 . S
H553 C583 0.950 . S
C554 H536 0.951 . S
C554 C555 1.366 . S
C554 C556 1.388 . S
C555 C554 1.366 . S
C555 C559 1.385 . S
C556 H537 0.951 . S
C556 C554 1.388 . S
C556 C557 1.366 . S
C557 C556 1.366 . S
C557 C558 1.414 . S
C557 C560 1.499 . S
C558 H538 0.950 . S
C558 C557 1.414 . S
C558 C559 1.374 . S
C559 H539 0.950 . S
C559 C555 1.385 . S
C559 C558 1.374 . S
C560 C557 1.499 . S
C560 C561 1.373 . S
C560 C562 1.389 . S
C561 H540 0.950 . S
C561 C560 1.373 . S
C561 C577 1.377 . S
C562 C560 1.389 . S
C562 C563 1.524 . S
C562 C576 1.377 . S
C563 C562 1.524 . S
C563 C564 1.397 . S
C563 C568 1.363 . S
C564 H541 0.950 . S
C564 C563 1.397 . S
C564 C565 1.334 . S
C565 H542 0.950 . S
C565 C564 1.334 . S
C565 C566 1.287 . S
C566 C565 1.287 . S
C566 C567 1.524 . S
C566 H585 0.913 . S
C567 H543 0.950 . S
C567 C566 1.524 . S
C567 C568 1.415 . S
C568 H544 0.950 . S
C568 C563 1.363 . S
C568 C567 1.415 . S
C569 H545 0.951 . S
C569 C570 1.366 . S
C569 C571 1.388 . S
C570 C569 1.366 . S
C570 C574 1.385 . S
C571 H546 0.951 . S
C571 C569 1.388 . S
C571 C572 1.366 . S
C572 C571 1.366 . S
C572 C573 1.414 . S
C572 C575 1.499 . S
C573 H547 0.950 . S
C573 C572 1.414 . S
C573 C574 1.374 . S
C574 H548 0.950 . S
C574 C570 1.385 . S
C574 C573 1.374 . S
C575 C572 1.499 . S
C575 C576 1.373 . S
C575 C577 1.389 . S
C576 H549 0.950 . S
C576 C562 1.377 . S
C576 C575 1.373 . S
C577 C561 1.377 . S
C577 C575 1.389 . S
C577 C578 1.524 . S
C578 C577 1.524 . S
C578 C579 1.397 . S
C578 C583 1.363 . S
C579 H550 0.950 . S
C579 C578 1.397 . S
C579 C580 1.334 . S
C580 H551 0.950 . S
C580 C579 1.334 . S
C580 C581 1.287 . S
C581 C580 1.287 . S
C581 C582 1.524 . S
C581 H584 0.999 . S
C582 H552 0.950 . S
C582 C581 1.524 . S
C582 C583 1.415 . S
C583 H553 0.950 . S
C583 C578 1.363 . S
C583 C582 1.415 . S
H584 C581 0.999 . S
H585 C566 0.913 . S
H586 C604 0.951 . S
H587 C606 0.951 . S
H588 C608 0.950 . S
H589 C609 0.950 . S
H590 C611 0.950 . S
H591 C614 0.950 . S
H592 C615 0.950 . S
H593 C617 0.950 . S
H594 C618 0.950 . S
H595 C619 0.951 . S
H596 C621 0.951 . S
H597 C623 0.950 . S
H598 C624 0.950 . S
H599 C626 0.950 . S
H600 C629 0.950 . S
H601 C630 0.950 . S
H602 C632 0.950 . S
H603 C633 0.950 . S
C604 H586 0.951 . S
C604 C605 1.366 . S
C604 C606 1.388 . S
C605 C604 1.366 . S
C605 C609 1.385 . S
C606 H587 0.951 . S
C606 C604 1.388 . S
C606 C607 1.366 . S
C607 C606 1.366 . S
C607 C608 1.414 . S
C607 C610 1.499 . S
C608 H588 0.950 . S
C608 C607 1.414 . S
C608 C609 1.374 . S
C609 H589 0.950 . S
C609 C605 1.385 . S
C609 C608 1.374 . S
C610 C607 1.499 . S
C610 C611 1.373 . S
C610 C612 1.389 . S
C611 H590 0.950 . S
C611 C610 1.373 . S
C611 C627 1.377 . S
C612 C610 1.389 . S
C612 C613 1.524 . S
C612 C626 1.377 . S
C613 C612 1.524 . S
C613 C614 1.397 . S
C613 C618 1.363 . S
C614 H591 0.950 . S
C614 C613 1.397 . S
C614 C615 1.334 . S
C615 H592 0.950 . S
C615 C614 1.334 . S
C615 C616 1.287 . S
C616 C615 1.287 . S
C616 C617 1.524 . S
C616 H635 0.913 . S
C617 H593 0.950 . S
C617 C616 1.524 . S
C617 C618 1.415 . S
C618 H594 0.950 . S
C618 C613 1.363 . S
C618 C617 1.415 . S
C619 H595 0.951 . S
C619 C620 1.366 . S
C619 C621 1.388 . S
C620 C619 1.366 . S
C620 C624 1.385 . S
C621 H596 0.951 . S
C621 C619 1.388 . S
C621 C622 1.366 1_565 S
C622 C621 1.366 1_545 S
C622 C623 1.414 . S
C622 C625 1.499 . S
C623 H597 0.950 . S
C623 C622 1.414 . S
C623 C624 1.374 1_545 S
C624 H598 0.950 . S
C624 C620 1.385 . S
C624 C623 1.374 1_565 S
C625 C622 1.499 . S
C625 C626 1.373 . S
C625 C627 1.389 . S
C626 H599 0.950 . S
C626 C612 1.377 . S
C626 C625 1.373 . S
C627 C611 1.377 . S
C627 C625 1.389 . S
C627 C628 1.524 . S
C628 C627 1.524 . S
C628 C629 1.397 . S
C628 C633 1.363 . S
C629 H600 0.950 . S
C629 C628 1.397 . S
C629 C630 1.334 . S
C630 H601 0.950 . S
C630 C629 1.334 . S
C630 C631 1.287 . S
C631 C630 1.287 . S
C631 C632 1.524 . S
C631 H634 0.999 . S
C632 H602 0.950 . S
C632 C631 1.524 . S
C632 C633 1.415 . S
C633 H603 0.950 . S
C633 C628 1.363 . S
C633 C632 1.415 . S
H634 C631 0.999 . S
H635 C616 0.913 . S
H636 C654 0.951 . S
H637 C656 0.951 . S
H638 C658 0.950 . S
H639 C659 0.950 . S
H640 C661 0.950 . S
H641 C664 0.950 1_556 S
H642 C665 0.950 . S
H643 C667 0.950 . S
H644 C668 0.950 . S
H645 C669 0.951 . S
H646 C671 0.951 . S
H647 C673 0.950 . S
H648 C674 0.950 . S
H649 C676 0.950 . S
H650 C679 0.950 . S
H651 C680 0.950 . S
H652 C682 0.950 . S
H653 C683 0.950 . S
C654 H636 0.951 . S
C654 C655 1.366 . S
C654 C656 1.388 1_556 S
C655 C654 1.366 . S
C655 C659 1.385 . S
C656 H637 0.951 . S
C656 C654 1.388 1_554 S
C656 C657 1.366 . S
C657 C656 1.366 . S
C657 C658 1.414 1_554 S
C657 C660 1.499 . S
C658 H638 0.950 . S
C658 C657 1.414 1_556 S
C658 C659 1.374 . S
C659 H639 0.950 . S
C659 C655 1.385 . S
C659 C658 1.374 . S
C660 C657 1.499 . S
C660 C661 1.373 . S
C660 C662 1.389 . S
C661 H640 0.950 . S
C661 C660 1.373 . S
C661 C677 1.377 . S
C662 C660 1.389 . S
C662 C663 1.524 . S
C662 C676 1.377 . S
C663 C662 1.524 . S
C663 C664 1.397 . S
C663 C668 1.363 . S
C664 H641 0.950 1_554 S
C664 C663 1.397 . S
C664 C665 1.334 1_554 S
C665 H642 0.950 . S
C665 C664 1.334 1_556 S
C665 C666 1.287 . S
C666 C665 1.287 . S
C666 C667 1.524 1_556 S
C666 H685 0.913 . S
C667 H643 0.950 . S
C667 C666 1.524 1_554 S
C667 C668 1.415 . S
C668 H644 0.950 . S
C668 C663 1.363 . S
C668 C667 1.415 . S
C669 H645 0.951 . S
C669 C670 1.366 . S
C669 C671 1.388 . S
C670 C669 1.366 . S
C670 C674 1.385 . S
C671 H646 0.951 . S
C671 C669 1.388 . S
C671 C672 1.366 . S
C672 C671 1.366 . S
C672 C673 1.414 . S
C672 C675 1.499 . S
C673 H647 0.950 . S
C673 C672 1.414 . S
C673 C674 1.374 . S
C674 H648 0.950 . S
C674 C670 1.385 . S
C674 C673 1.374 . S
C675 C672 1.499 . S
C675 C676 1.373 . S
C675 C677 1.389 . S
C676 H649 0.950 . S
C676 C662 1.377 . S
C676 C675 1.373 . S
C677 C661 1.377 . S
C677 C675 1.389 . S
C677 C678 1.524 . S
C678 C677 1.524 . S
C678 C679 1.397 . S
C678 C683 1.363 . S
C679 H650 0.950 . S
C679 C678 1.397 . S
C679 C680 1.334 . S
C680 H651 0.950 . S
C680 C679 1.334 . S
C680 C681 1.287 . S
C681 C680 1.287 . S
C681 C682 1.524 . S
C681 H684 0.999 . S
C682 H652 0.950 . S
C682 C681 1.524 . S
C682 C683 1.415 . S
C683 H653 0.950 . S
C683 C678 1.363 . S
C683 C682 1.415 . S
H684 C681 0.999 . S
H685 C666 0.913 . S
H686 C704 0.951 . S
H687 C706 0.951 . S
H688 C708 0.950 . S
H689 C709 0.950 . S
H690 C711 0.950 . S
H691 C714 0.950 . S
H692 C715 0.950 . S
H693 C717 0.950 . S
H694 C718 0.950 . S
H695 C719 0.951 . S
H696 C721 0.951 . S
H697 C723 0.950 . S
H698 C724 0.950 . S
H699 C726 0.950 . S
H700 C729 0.950 . S
H701 C730 0.950 . S
H702 C732 0.950 . S
H703 C733 0.950 . S
C704 H686 0.951 . S
C704 C705 1.366 . S
C704 C706 1.388 . S
C705 C704 1.366 . S
C705 C709 1.385 . S
C706 H687 0.951 . S
C706 C704 1.388 . S
C706 C707 1.366 . S
C707 C706 1.366 . S
C707 C708 1.414 . S
C707 C710 1.499 . S
C708 H688 0.950 . S
C708 C707 1.414 . S
C708 C709 1.374 . S
C709 H689 0.950 . S
C709 C705 1.385 . S
C709 C708 1.374 . S
C710 C707 1.499 . S
C710 C711 1.373 . S
C710 C712 1.389 . S
C711 H690 0.950 . S
C711 C710 1.373 . S
C711 C727 1.377 . S
C712 C710 1.389 . S
C712 C713 1.524 . S
C712 C726 1.377 . S
C713 C712 1.524 . S
C713 C714 1.397 . S
C713 C718 1.363 . S
C714 H691 0.950 . S
C714 C713 1.397 . S
C714 C715 1.334 . S
C715 H692 0.950 . S
C715 C714 1.334 . S
C715 C716 1.287 . S
C716 C715 1.287 . S
C716 C717 1.524 . S
C716 H735 0.913 . S
C717 H693 0.950 . S
C717 C716 1.524 . S
C717 C718 1.415 . S
C718 H694 0.950 . S
C718 C713 1.363 . S
C718 C717 1.415 . S
C719 H695 0.951 . S
C719 C720 1.366 . S
C719 C721 1.388 . S
C720 C719 1.366 . S
C720 C724 1.385 . S
C721 H696 0.951 . S
C721 C719 1.388 . S
C721 C722 1.366 . S
C722 C721 1.366 . S
C722 C723 1.414 . S
C722 C725 1.499 . S
C723 H697 0.950 . S
C723 C722 1.414 . S
C723 C724 1.374 . S
C724 H698 0.950 . S
C724 C720 1.385 . S
C724 C723 1.374 . S
C725 C722 1.499 . S
C725 C726 1.373 . S
C725 C727 1.389 . S
C726 H699 0.950 . S
C726 C712 1.377 . S
C726 C725 1.373 . S
C727 C711 1.377 . S
C727 C725 1.389 . S
C727 C728 1.524 . S
C728 C727 1.524 . S
C728 C729 1.397 . S
C728 C733 1.363 . S
C729 H700 0.950 . S
C729 C728 1.397 . S
C729 C730 1.334 . S
C730 H701 0.950 . S
C730 C729 1.334 . S
C730 C731 1.287 . S
C731 C730 1.287 . S
C731 C732 1.524 . S
C731 H734 0.999 . S
C732 H702 0.950 . S
C732 C731 1.524 . S
C732 C733 1.415 . S
C733 H703 0.950 . S
C733 C728 1.363 . S
C733 C732 1.415 . S
H734 C731 0.999 . S
H735 C716 0.913 . S
H736 C754 0.951 . S
H737 C756 0.951 . S
H738 C758 0.950 . S
H739 C759 0.950 . S
H740 C761 0.950 . S
H741 C764 0.950 . S
H742 C765 0.950 . S
H743 C767 0.950 . S
H744 C768 0.950 . S
H745 C769 0.951 . S
H746 C771 0.951 . S
H747 C773 0.950 . S
H748 C774 0.950 . S
H749 C776 0.950 . S
H750 C779 0.950 . S
H751 C780 0.950 . S
H752 C782 0.950 . S
H753 C783 0.950 . S
C754 H736 0.951 . S
C754 C755 1.366 . S
C754 C756 1.388 . S
C755 C754 1.366 . S
C755 C759 1.385 . S
C756 H737 0.951 . S
C756 C754 1.388 . S
C756 C757 1.366 1_554 S
C757 C756 1.366 1_556 S
C757 C758 1.414 . S
C757 C760 1.499 . S
C758 H738 0.950 . S
C758 C757 1.414 . S
C758 C759 1.374 1_556 S
C759 H739 0.950 . S
C759 C755 1.385 . S
C759 C758 1.374 1_554 S
C760 C757 1.499 . S
C760 C761 1.373 . S
C760 C762 1.389 . S
C761 H740 0.950 . S
C761 C760 1.373 . S
C761 C777 1.377 . S
C762 C760 1.389 . S
C762 C763 1.524 . S
C762 C776 1.377 . S
C763 C762 1.524 . S
C763 C764 1.397 1_556 S
C763 C768 1.363 . S
C764 H741 0.950 . S
C764 C763 1.397 1_554 S
C764 C765 1.334 . S
C765 H742 0.950 . S
C765 C764 1.334 . S
C765 C766 1.287 . S
C766 C765 1.287 . S
C766 C767 1.524 . S
C766 H785 0.913 . S
C767 H743 0.950 . S
C767 C766 1.524 . S
C767 C768 1.415 1_554 S
C768 H744 0.950 . S
C768 C763 1.363 . S
C768 C767 1.415 1_556 S
C769 H745 0.951 . S
C769 C770 1.366 . S
C769 C771 1.388 . S
C770 C769 1.366 . S
C770 C774 1.385 . S
C771 H746 0.951 . S
C771 C769 1.388 . S
C771 C772 1.366 . S
C772 C771 1.366 . S
C772 C773 1.414 . S
C772 C775 1.499 . S
C773 H747 0.950 . S
C773 C772 1.414 . S
C773 C774 1.374 . S
C774 H748 0.950 . S
C774 C770 1.385 . S
C774 C773 1.374 . S
C775 C772 1.499 . S
C775 C776 1.373 . S
C775 C777 1.389 . S
C776 H749 0.950 . S
C776 C762 1.377 . S
C776 C775 1.373 . S
C777 C761 1.377 . S
C777 C775 1.389 . S
C777 C778 1.524 . S
C778 C777 1.524 . S
C778 C779 1.397 . S
C778 C783 1.363 . S
C779 H750 0.950 . S
C779 C778 1.397 . S
C779 C780 1.334 . S
C780 H751 0.950 . S
C780 C779 1.334 . S
C780 C781 1.287 . S
C781 C780 1.287 . S
C781 C782 1.524 . S
C781 H784 0.999 . S
C782 H752 0.950 . S
C782 C781 1.524 . S
C782 C783 1.415 . S
C783 H753 0.950 . S
C783 C778 1.363 . S
C783 C782 1.415 . S
H784 C781 0.999 . S
H785 C766 0.913 . S
H786 C804 0.951 . S
H787 C806 0.951 . S
H788 C808 0.950 . S
H789 C809 0.950 . S
H790 C811 0.950 . S
H791 C814 0.950 . S
H792 C815 0.950 . S
H793 C817 0.950 . S
H794 C818 0.950 . S
H795 C819 0.951 . S
H796 C821 0.951 . S
H797 C823 0.950 . S
H798 C824 0.950 . S
H799 C826 0.950 . S
H800 C829 0.950 . S
H801 C830 0.950 . S
H802 C832 0.950 . S
H803 C833 0.950 . S
C804 H786 0.951 . S
C804 C805 1.366 . S
C804 C806 1.388 . S
C805 C804 1.366 . S
C805 C809 1.385 . S
C806 H787 0.951 . S
C806 C804 1.388 . S
C806 C807 1.366 . S
C807 C806 1.366 . S
C807 C808 1.414 . S
C807 C810 1.499 . S
C808 H788 0.950 . S
C808 C807 1.414 . S
C808 C809 1.374 . S
C809 H789 0.950 . S
C809 C805 1.385 . S
C809 C808 1.374 . S
C810 C807 1.499 . S
C810 C811 1.373 . S
C810 C812 1.389 . S
C811 H790 0.950 . S
C811 C810 1.373 . S
C811 C827 1.377 . S
C812 C810 1.389 . S
C812 C813 1.524 . S
C812 C826 1.377 . S
C813 C812 1.524 . S
C813 C814 1.397 . S
C813 C818 1.363 . S
C814 H791 0.950 . S
C814 C813 1.397 . S
C814 C815 1.334 . S
C815 H792 0.950 . S
C815 C814 1.334 . S
C815 C816 1.287 . S
C816 C815 1.287 . S
C816 C817 1.524 . S
C816 H835 0.913 . S
C817 H793 0.950 . S
C817 C816 1.524 . S
C817 C818 1.415 . S
C818 H794 0.950 . S
C818 C813 1.363 . S
C818 C817 1.415 . S
C819 H795 0.951 . S
C819 C820 1.366 . S
C819 C821 1.388 . S
C820 C819 1.366 . S
C820 C824 1.385 . S
C821 H796 0.951 . S
C821 C819 1.388 . S
C821 C822 1.366 . S
C822 C821 1.366 . S
C822 C823 1.414 . S
C822 C825 1.499 . S
C823 H797 0.950 . S
C823 C822 1.414 . S
C823 C824 1.374 . S
C824 H798 0.950 . S
C824 C820 1.385 . S
C824 C823 1.374 . S
C825 C822 1.499 . S
C825 C826 1.373 . S
C825 C827 1.389 . S
C826 H799 0.950 . S
C826 C812 1.377 . S
C826 C825 1.373 . S
C827 C811 1.377 . S
C827 C825 1.389 . S
C827 C828 1.524 . S
C828 C827 1.524 . S
C828 C829 1.397 . S
C828 C833 1.363 . S
C829 H800 0.950 . S
C829 C828 1.397 . S
C829 C830 1.334 . S
C830 H801 0.950 . S
C830 C829 1.334 . S
C830 C831 1.287 . S
C831 C830 1.287 . S
C831 C832 1.524 . S
C831 H834 0.999 . S
C832 H802 0.950 . S
C832 C831 1.524 . S
C832 C833 1.415 . S
C833 H803 0.950 . S
C833 C828 1.363 . S
C833 C832 1.415 . S
H834 C831 0.999 . S
H835 C816 0.913 . S
H836 C854 0.951 . S
H837 C856 0.951 . S
H838 C858 0.950 . S
H839 C859 0.950 . S
H840 C861 0.950 . S
H841 C864 0.950 . S
H842 C865 0.950 . S
H843 C867 0.950 . S
H844 C868 0.950 . S
H845 C869 0.951 . S
H846 C871 0.951 . S
H847 C873 0.950 . S
H848 C874 0.950 . S
H849 C876 0.950 . S
H850 C879 0.950 . S
H851 C880 0.950 . S
H852 C882 0.950 . S
H853 C883 0.950 . S
C854 H836 0.951 . S
C854 C855 1.366 . S
C854 C856 1.388 . S
C855 C854 1.366 . S
C855 C859 1.385 . S
C856 H837 0.951 . S
C856 C854 1.388 . S
C856 C857 1.366 1_554 S
C857 C856 1.366 1_556 S
C857 C858 1.414 . S
C857 C860 1.499 . S
C858 H838 0.950 . S
C858 C857 1.414 . S
C858 C859 1.374 1_556 S
C859 H839 0.950 . S
C859 C855 1.385 . S
C859 C858 1.374 1_554 S
C860 C857 1.499 . S
C860 C861 1.373 . S
C860 C862 1.389 . S
C861 H840 0.950 . S
C861 C860 1.373 . S
C861 C877 1.377 . S
C862 C860 1.389 . S
C862 C863 1.524 . S
C862 C876 1.377 . S
C863 C862 1.524 . S
C863 C864 1.397 . S
C863 C868 1.363 . S
C864 H841 0.950 . S
C864 C863 1.397 . S
C864 C865 1.334 1_556 S
C865 H842 0.950 . S
C865 C864 1.334 1_554 S
C865 C866 1.287 . S
C866 C865 1.287 . S
C866 C867 1.524 . S
C866 H885 0.913 . S
C867 H843 0.950 . S
C867 C866 1.524 . S
C867 C868 1.415 1_554 S
C868 H844 0.950 . S
C868 C863 1.363 . S
C868 C867 1.415 1_556 S
C869 H845 0.951 . S
C869 C870 1.366 . S
C869 C871 1.388 . S
C870 C869 1.366 . S
C870 C874 1.385 . S
C871 H846 0.951 . S
C871 C869 1.388 . S
C871 C872 1.366 . S
C872 C871 1.366 . S
C872 C873 1.414 . S
C872 C875 1.499 . S
C873 H847 0.950 . S
C873 C872 1.414 . S
C873 C874 1.374 . S
C874 H848 0.950 . S
C874 C870 1.385 . S
C874 C873 1.374 . S
C875 C872 1.499 . S
C875 C876 1.373 . S
C875 C877 1.389 . S
C876 H849 0.950 . S
C876 C862 1.377 . S
C876 C875 1.373 . S
C877 C861 1.377 . S
C877 C875 1.389 . S
C877 C878 1.524 . S
C878 C877 1.524 . S
C878 C879 1.397 . S
C878 C883 1.363 . S
C879 H850 0.950 . S
C879 C878 1.397 . S
C879 C880 1.334 . S
C880 H851 0.950 . S
C880 C879 1.334 . S
C880 C881 1.287 . S
C881 C880 1.287 . S
C881 C882 1.524 . S
C881 H884 0.999 . S
C882 H852 0.950 . S
C882 C881 1.524 . S
C882 C883 1.415 . S
C883 H853 0.950 . S
C883 C878 1.363 . S
C883 C882 1.415 . S
H884 C881 0.999 . S
H885 C866 0.913 . S
H886 C904 0.951 . S
H887 C906 0.951 . S
H888 C908 0.950 . S
H889 C909 0.950 . S
H890 C911 0.950 . S
H891 C914 0.950 . S
H892 C915 0.950 . S
H893 C917 0.950 . S
H894 C918 0.950 . S
H895 C919 0.951 . S
H896 C921 0.951 . S
H897 C923 0.950 . S
H898 C924 0.950 . S
H899 C926 0.950 . S
H900 C929 0.950 . S
H901 C930 0.950 . S
H902 C932 0.950 . S
H903 C933 0.950 . S
C904 H886 0.951 . S
C904 C905 1.366 . S
C904 C906 1.388 . S
C905 C904 1.366 . S
C905 C909 1.385 . S
C906 H887 0.951 . S
C906 C904 1.388 . S
C906 C907 1.366 . S
C907 C906 1.366 . S
C907 C908 1.414 . S
C907 C910 1.499 . S
C908 H888 0.950 . S
C908 C907 1.414 . S
C908 C909 1.374 . S
C909 H889 0.950 . S
C909 C905 1.385 . S
C909 C908 1.374 . S
C910 C907 1.499 . S
C910 C911 1.373 . S
C910 C912 1.389 . S
C911 H890 0.950 . S
C911 C910 1.373 . S
C911 C927 1.377 . S
C912 C910 1.389 . S
C912 C913 1.524 . S
C912 C926 1.377 . S
C913 C912 1.524 . S
C913 C914 1.397 . S
C913 C918 1.363 . S
C914 H891 0.950 . S
C914 C913 1.397 . S
C914 C915 1.334 . S
C915 H892 0.950 . S
C915 C914 1.334 . S
C915 C916 1.287 . S
C916 C915 1.287 . S
C916 C917 1.524 . S
C916 H935 0.913 . S
C917 H893 0.950 . S
C917 C916 1.524 . S
C917 C918 1.415 . S
C918 H894 0.950 . S
C918 C913 1.363 . S
C918 C917 1.415 . S
C919 H895 0.951 . S
C919 C920 1.366 . S
C919 C921 1.388 . S
C920 C919 1.366 . S
C920 C924 1.385 . S
C921 H896 0.951 . S
C921 C919 1.388 . S
C921 C922 1.366 . S
C922 C921 1.366 . S
C922 C923 1.414 . S
C922 C925 1.499 . S
C923 H897 0.950 . S
C923 C922 1.414 . S
C923 C924 1.374 . S
C924 H898 0.950 . S
C924 C920 1.385 . S
C924 C923 1.374 . S
C925 C922 1.499 . S
C925 C926 1.373 . S
C925 C927 1.389 . S
C926 H899 0.950 . S
C926 C912 1.377 . S
C926 C925 1.373 . S
C927 C911 1.377 . S
C927 C925 1.389 . S
C927 C928 1.524 . S
C928 C927 1.524 . S
C928 C929 1.397 . S
C928 C933 1.363 . S
C929 H900 0.950 . S
C929 C928 1.397 . S
C929 C930 1.334 . S
C930 H901 0.950 . S
C930 C929 1.334 . S
C930 C931 1.287 . S
C931 C930 1.287 . S
C931 C932 1.524 . S
C931 H934 0.999 . S
C932 H902 0.950 . S
C932 C931 1.524 . S
C932 C933 1.415 . S
C933 H903 0.950 . S
C933 C928 1.363 . S
C933 C932 1.415 . S
H934 C931 0.999 . S
H935 C916 0.913 . S
H936 C954 0.951 . S
H937 C956 0.951 . S
H938 C958 0.950 . S
H939 C959 0.950 . S
H940 C961 0.950 . S
H941 C964 0.950 . S
H942 C965 0.950 . S
H943 C967 0.950 . S
H944 C968 0.950 . S
H945 C969 0.951 . S
H946 C971 0.951 . S
H947 C973 0.950 . S
H948 C974 0.950 . S
H949 C976 0.950 . S
H950 C979 0.950 . S
H951 C980 0.950 . S
H952 C982 0.950 . S
H953 C983 0.950 . S
C954 H936 0.951 . S
C954 C955 1.366 . S
C954 C956 1.388 . S
C955 C954 1.366 . S
C955 C959 1.385 . S
C956 H937 0.951 . S
C956 C954 1.388 . S
C956 C957 1.366 1_556 S
C957 C956 1.366 1_554 S
C957 C958 1.414 . S
C957 C960 1.499 . S
C958 H938 0.950 . S
C958 C957 1.414 . S
C958 C959 1.374 1_554 S
C959 H939 0.950 . S
C959 C955 1.385 . S
C959 C958 1.374 1_556 S
C960 C957 1.499 . S
C960 C961 1.373 . S
C960 C962 1.389 . S
C961 H940 0.950 . S
C961 C960 1.373 . S
C961 C977 1.377 . S
C962 C960 1.389 . S
C962 C963 1.524 . S
C962 C976 1.377 . S
C963 C962 1.524 . S
C963 C964 1.397 . S
C963 C968 1.363 . S
C964 H941 0.950 . S
C964 C963 1.397 . S
C964 C965 1.334 1_554 S
C965 H942 0.950 . S
C965 C964 1.334 1_556 S
C965 C966 1.287 . S
C966 C965 1.287 . S
C966 C967 1.524 . S
C966 H985 0.913 . S
C967 H943 0.950 . S
C967 C966 1.524 . S
C967 C968 1.415 1_556 S
C968 H944 0.950 . S
C968 C963 1.363 . S
C968 C967 1.415 1_554 S
C969 H945 0.951 . S
C969 C970 1.366 . S
C969 C971 1.388 . S
C970 C969 1.366 . S
C970 C974 1.385 . S
C971 H946 0.951 . S
C971 C969 1.388 . S
C971 C972 1.366 . S
C972 C971 1.366 . S
C972 C973 1.414 . S
C972 C975 1.499 . S
C973 H947 0.950 . S
C973 C972 1.414 . S
C973 C974 1.374 . S
C974 H948 0.950 . S
C974 C970 1.385 . S
C974 C973 1.374 . S
C975 C972 1.499 . S
C975 C976 1.373 . S
C975 C977 1.389 . S
C976 H949 0.950 . S
C976 C962 1.377 . S
C976 C975 1.373 . S
C977 C961 1.377 . S
C977 C975 1.389 . S
C977 C978 1.524 . S
C978 C977 1.524 . S
C978 C979 1.397 . S
C978 C983 1.363 . S
C979 H950 0.950 . S
C979 C978 1.397 . S
C979 C980 1.334 . S
C980 H951 0.950 . S
C980 C979 1.334 . S
C980 C981 1.287 . S
C981 C980 1.287 . S
C981 C982 1.524 . S
C981 H984 0.999 . S
C982 H952 0.950 . S
C982 C981 1.524 . S
C982 C983 1.415 . S
C983 H953 0.950 . S
C983 C978 1.363 . S
C983 C982 1.415 . S
H984 C981 0.999 . S
H985 C966 0.913 . S
H986 C1004 0.951 . S
H987 C1006 0.951 . S
H988 C1008 0.950 . S
H989 C1009 0.950 . S
H990 C1011 0.950 . S
H991 C1014 0.950 . S
H992 C1015 0.950 . S
H993 C1017 0.950 . S
H994 C1018 0.950 . S
H995 C1019 0.951 . S
H996 C1021 0.951 . S
H997 C1023 0.950 . S
H998 C1024 0.950 . S
H999 C1026 0.950 . S
H1000 C1029 0.950 . S
H1001 C1030 0.950 . S
H1002 C1032 0.950 . S
H1003 C1033 0.950 . S
C1004 H986 0.951 . S
C1004 C1005 1.366 . S
C1004 C1006 1.388 . S
C1005 C1004 1.366 . S
C1005 C1009 1.385 . S
C1006 H987 0.951 . S
C1006 C1004 1.388 . S
C1006 C1007 1.366 . S
C1007 C1006 1.366 . S
C1007 C1008 1.414 . S
C1007 C1010 1.499 . S
C1008 H988 0.950 . S
C1008 C1007 1.414 . S
C1008 C1009 1.374 . S
C1009 H989 0.950 . S
C1009 C1005 1.385 . S
C1009 C1008 1.374 . S
C1010 C1007 1.499 . S
C1010 C1011 1.373 . S
C1010 C1012 1.389 . S
C1011 H990 0.950 . S
C1011 C1010 1.373 . S
C1011 C1027 1.377 . S
C1012 C1010 1.389 . S
C1012 C1013 1.524 . S
C1012 C1026 1.377 . S
C1013 C1012 1.524 . S
C1013 C1014 1.397 . S
C1013 C1018 1.363 . S
C1014 H991 0.950 . S
C1014 C1013 1.397 . S
C1014 C1015 1.334 . S
C1015 H992 0.950 . S
C1015 C1014 1.334 . S
C1015 C1016 1.287 . S
C1016 C1015 1.287 . S
C1016 C1017 1.524 . S
C1016 H1035 0.913 . S
C1017 H993 0.950 . S
C1017 C1016 1.524 . S
C1017 C1018 1.415 . S
C1018 H994 0.950 . S
C1018 C1013 1.363 . S
C1018 C1017 1.415 . S
C1019 H995 0.951 . S
C1019 C1020 1.366 . S
C1019 C1021 1.388 . S
C1020 C1019 1.366 . S
C1020 C1024 1.385 . S
C1021 H996 0.951 . S
C1021 C1019 1.388 . S
C1021 C1022 1.366 . S
C1022 C1021 1.366 . S
C1022 C1023 1.414 . S
C1022 C1025 1.499 . S
C1023 H997 0.950 . S
C1023 C1022 1.414 . S
C1023 C1024 1.374 . S
C1024 H998 0.950 . S
C1024 C1020 1.385 . S
C1024 C1023 1.374 . S
C1025 C1022 1.499 . S
C1025 C1026 1.373 . S
C1025 C1027 1.389 . S
C1026 H999 0.950 . S
C1026 C1012 1.377 . S
C1026 C1025 1.373 . S
C1027 C1011 1.377 . S
C1027 C1025 1.389 . S
C1027 C1028 1.524 . S
C1028 C1027 1.524 . S
C1028 C1029 1.397 . S
C1028 C1033 1.363 . S
C1029 H1000 0.950 . S
C1029 C1028 1.397 . S
C1029 C1030 1.334 . S
C1030 H1001 0.950 . S
C1030 C1029 1.334 . S
C1030 C1031 1.287 . S
C1031 C1030 1.287 . S
C1031 C1032 1.524 . S
C1031 H1034 0.999 . S
C1032 H1002 0.950 . S
C1032 C1031 1.524 . S
C1032 C1033 1.415 . S
C1033 H1003 0.950 . S
C1033 C1028 1.363 . S
C1033 C1032 1.415 . S
H1034 C1031 0.999 . S
H1035 C1016 0.913 . S
H1036 C1054 0.951 . S
H1037 C1056 0.951 . S
H1038 C1058 0.950 . S
H1039 C1059 0.950 . S
H1040 C1061 0.950 . S
H1041 C1064 0.950 . S
H1042 C1065 0.950 . S
H1043 C1067 0.950 . S
H1044 C1068 0.950 . S
H1045 C1069 0.951 . S
H1046 C1071 0.951 . S
H1047 C1073 0.950 . S
H1048 C1074 0.950 . S
H1049 C1076 0.950 . S
H1050 C1079 0.950 . S
H1051 C1080 0.950 . S
H1052 C1082 0.950 . S
H1053 C1083 0.950 . S
C1054 H1036 0.951 . S
C1054 C1055 1.366 . S
C1054 C1056 1.388 . S
C1055 C1054 1.366 . S
C1055 C1059 1.385 . S
C1056 H1037 0.951 . S
C1056 C1054 1.388 . S
C1056 C1057 1.366 . S
C1057 C1056 1.366 . S
C1057 C1058 1.414 . S
C1057 C1060 1.499 . S
C1058 H1038 0.950 . S
C1058 C1057 1.414 . S
C1058 C1059 1.374 . S
C1059 H1039 0.950 . S
C1059 C1055 1.385 . S
C1059 C1058 1.374 . S
C1060 C1057 1.499 . S
C1060 C1061 1.373 . S
C1060 C1062 1.389 . S
C1061 H1040 0.950 . S
C1061 C1060 1.373 . S
C1061 C1077 1.377 . S
C1062 C1060 1.389 . S
C1062 C1063 1.524 . S
C1062 C1076 1.377 . S
C1063 C1062 1.524 . S
C1063 C1064 1.397 . S
C1063 C1068 1.363 . S
C1064 H1041 0.950 . S
C1064 C1063 1.397 . S
C1064 C1065 1.334 . S
C1065 H1042 0.950 . S
C1065 C1064 1.334 . S
C1065 C1066 1.287 . S
C1066 C1065 1.287 . S
C1066 C1067 1.524 . S
C1066 H1085 0.913 . S
C1067 H1043 0.950 . S
C1067 C1066 1.524 . S
C1067 C1068 1.415 . S
C1068 H1044 0.950 . S
C1068 C1063 1.363 . S
C1068 C1067 1.415 . S
C1069 H1045 0.951 . S
C1069 C1070 1.366 . S
C1069 C1071 1.388 . S
C1070 C1069 1.366 . S
C1070 C1074 1.385 . S
C1071 H1046 0.951 . S
C1071 C1069 1.388 . S
C1071 C1072 1.366 . S
C1072 C1071 1.366 . S
C1072 C1073 1.414 . S
C1072 C1075 1.499 . S
C1073 H1047 0.950 . S
C1073 C1072 1.414 . S
C1073 C1074 1.374 . S
C1074 H1048 0.950 . S
C1074 C1070 1.385 . S
C1074 C1073 1.374 . S
C1075 C1072 1.499 . S
C1075 C1076 1.373 . S
C1075 C1077 1.389 . S
C1076 H1049 0.950 . S
C1076 C1062 1.377 . S
C1076 C1075 1.373 . S
C1077 C1061 1.377 . S
C1077 C1075 1.389 . S
C1077 C1078 1.524 . S
C1078 C1077 1.524 . S
C1078 C1079 1.397 . S
C1078 C1083 1.363 . S
C1079 H1050 0.950 . S
C1079 C1078 1.397 . S
C1079 C1080 1.334 . S
C1080 H1051 0.950 . S
C1080 C1079 1.334 . S
C1080 C1081 1.287 . S
C1081 C1080 1.287 . S
C1081 C1082 1.524 . S
C1081 H1084 0.999 . S
C1082 H1052 0.950 . S
C1082 C1081 1.524 . S
C1082 C1083 1.415 . S
C1083 H1053 0.950 . S
C1083 C1078 1.363 . S
C1083 C1082 1.415 . S
H1084 C1081 0.999 . S
H1085 C1066 0.913 . S
H1086 C1104 0.951 . S
H1087 C1106 0.951 . S
H1088 C1108 0.950 . S
H1089 C1109 0.950 . S
H1090 C1111 0.950 . S
H1091 C1114 0.950 . S
H1092 C1115 0.950 . S
H1093 C1117 0.950 . S
H1094 C1118 0.950 . S
H1095 C1119 0.951 . S
H1096 C1121 0.951 . S
H1097 C1123 0.950 . S
H1098 C1124 0.950 . S
H1099 C1126 0.950 . S
H1100 C1129 0.950 . S
H1101 C1130 0.950 . S
H1102 C1132 0.950 . S
H1103 C1133 0.950 . S
C1104 H1086 0.951 . S
C1104 C1105 1.366 . S
C1104 C1106 1.388 . S
C1105 C1104 1.366 . S
C1105 C1109 1.385 . S
C1106 H1087 0.951 . S
C1106 C1104 1.388 . S
C1106 C1107 1.366 . S
C1107 C1106 1.366 . S
C1107 C1108 1.414 . S
C1107 C1110 1.499 . S
C1108 H1088 0.950 . S
C1108 C1107 1.414 . S
C1108 C1109 1.374 . S
C1109 H1089 0.950 . S
C1109 C1105 1.385 . S
C1109 C1108 1.374 . S
C1110 C1107 1.499 . S
C1110 C1111 1.373 . S
C1110 C1112 1.389 . S
C1111 H1090 0.950 . S
C1111 C1110 1.373 . S
C1111 C1127 1.377 . S
C1112 C1110 1.389 . S
C1112 C1113 1.524 . S
C1112 C1126 1.377 . S
C1113 C1112 1.524 . S
C1113 C1114 1.397 . S
C1113 C1118 1.363 . S
C1114 H1091 0.950 . S
C1114 C1113 1.397 . S
C1114 C1115 1.334 . S
C1115 H1092 0.950 . S
C1115 C1114 1.334 . S
C1115 C1116 1.287 . S
C1116 C1115 1.287 . S
C1116 C1117 1.524 . S
C1116 H1135 0.913 . S
C1117 H1093 0.950 . S
C1117 C1116 1.524 . S
C1117 C1118 1.415 . S
C1118 H1094 0.950 . S
C1118 C1113 1.363 . S
C1118 C1117 1.415 . S
C1119 H1095 0.951 . S
C1119 C1120 1.366 . S
C1119 C1121 1.388 . S
C1120 C1119 1.366 . S
C1120 C1124 1.385 . S
C1121 H1096 0.951 . S
C1121 C1119 1.388 . S
C1121 C1122 1.366 . S
C1122 C1121 1.366 . S
C1122 C1123 1.414 . S
C1122 C1125 1.499 . S
C1123 H1097 0.950 . S
C1123 C1122 1.414 . S
C1123 C1124 1.374 . S
C1124 H1098 0.950 . S
C1124 C1120 1.385 . S
C1124 C1123 1.374 . S
C1125 C1122 1.499 . S
C1125 C1126 1.373 . S
C1125 C1127 1.389 . S
C1126 H1099 0.950 . S
C1126 C1112 1.377 . S
C1126 C1125 1.373 . S
C1127 C1111 1.377 . S
C1127 C1125 1.389 . S
C1127 C1128 1.524 . S
C1128 C1127 1.524 . S
C1128 C1129 1.397 . S
C1128 C1133 1.363 . S
C1129 H1100 0.950 . S
C1129 C1128 1.397 . S
C1129 C1130 1.334 . S
C1130 H1101 0.950 . S
C1130 C1129 1.334 . S
C1130 C1131 1.287 . S
C1131 C1130 1.287 . S
C1131 C1132 1.524 . S
C1131 H1134 0.999 . S
C1132 H1102 0.950 . S
C1132 C1131 1.524 . S
C1132 C1133 1.415 . S
C1133 H1103 0.950 . S
C1133 C1128 1.363 . S
C1133 C1132 1.415 . S
H1134 C1131 0.999 . S
H1135 C1116 0.913 . S
H1136 C1154 0.951 . S
H1137 C1156 0.951 . S
H1138 C1158 0.950 . S
H1139 C1159 0.950 . S
H1140 C1161 0.950 . S
H1141 C1164 0.950 . S
H1142 C1165 0.950 . S
H1143 C1167 0.950 . S
H1144 C1168 0.950 . S
H1145 C1169 0.951 . S
H1146 C1171 0.951 . S
H1147 C1173 0.950 . S
H1148 C1174 0.950 . S
H1149 C1176 0.950 . S
H1150 C1179 0.950 . S
H1151 C1180 0.950 . S
H1152 C1182 0.950 . S
H1153 C1183 0.950 . S
C1154 H1136 0.951 . S
C1154 C1155 1.366 . S
C1154 C1156 1.388 . S
C1155 C1154 1.366 . S
C1155 C1159 1.385 . S
C1156 H1137 0.951 . S
C1156 C1154 1.388 . S
C1156 C1157 1.366 . S
C1157 C1156 1.366 . S
C1157 C1158 1.414 . S
C1157 C1160 1.499 . S
C1158 H1138 0.950 . S
C1158 C1157 1.414 . S
C1158 C1159 1.374 . S
C1159 H1139 0.950 . S
C1159 C1155 1.385 . S
C1159 C1158 1.374 . S
C1160 C1157 1.499 . S
C1160 C1161 1.373 . S
C1160 C1162 1.389 . S
C1161 H1140 0.950 . S
C1161 C1160 1.373 . S
C1161 C1177 1.377 . S
C1162 C1160 1.389 . S
C1162 C1163 1.524 . S
C1162 C1176 1.377 . S
C1163 C1162 1.524 . S
C1163 C1164 1.397 . S
C1163 C1168 1.363 . S
C1164 H1141 0.950 . S
C1164 C1163 1.397 . S
C1164 C1165 1.334 . S
C1165 H1142 0.950 . S
C1165 C1164 1.334 . S
C1165 C1166 1.287 . S
C1166 C1165 1.287 . S
C1166 C1167 1.524 . S
C1166 H1185 0.913 . S
C1167 H1143 0.950 . S
C1167 C1166 1.524 . S
C1167 C1168 1.415 . S
C1168 H1144 0.950 . S
C1168 C1163 1.363 . S
C1168 C1167 1.415 . S
C1169 H1145 0.951 . S
C1169 C1170 1.366 . S
C1169 C1171 1.388 . S
C1170 C1169 1.366 . S
C1170 C1174 1.385 . S
C1171 H1146 0.951 . S
C1171 C1169 1.388 . S
C1171 C1172 1.366 . S
C1172 C1171 1.366 . S
C1172 C1173 1.414 . S
C1172 C1175 1.499 . S
C1173 H1147 0.950 . S
C1173 C1172 1.414 . S
C1173 C1174 1.374 . S
C1174 H1148 0.950 . S
C1174 C1170 1.385 . S
C1174 C1173 1.374 . S
C1175 C1172 1.499 . S
C1175 C1176 1.373 . S
C1175 C1177 1.389 . S
C1176 H1149 0.950 . S
C1176 C1162 1.377 . S
C1176 C1175 1.373 . S
C1177 C1161 1.377 . S
C1177 C1175 1.389 . S
C1177 C1178 1.524 . S
C1178 C1177 1.524 . S
C1178 C1179 1.397 . S
C1178 C1183 1.363 . S
C1179 H1150 0.950 . S
C1179 C1178 1.397 . S
C1179 C1180 1.334 . S
C1180 H1151 0.950 . S
C1180 C1179 1.334 . S
C1180 C1181 1.287 . S
C1181 C1180 1.287 . S
C1181 C1182 1.524 . S
C1181 H1184 0.999 . S
C1182 H1152 0.950 . S
C1182 C1181 1.524 . S
C1182 C1183 1.415 . S
C1183 H1153 0.950 . S
C1183 C1178 1.363 . S
C1183 C1182 1.415 . S
H1184 C1181 0.999 . S
H1185 C1166 0.913 . S
H1186 C1204 0.951 . S
H1187 C1206 0.951 . S
H1188 C1208 0.950 . S
H1189 C1209 0.950 . S
H1190 C1211 0.950 . S
H1191 C1214 0.950 . S
H1192 C1215 0.950 . S
H1193 C1217 0.950 . S
H1194 C1218 0.950 . S
H1195 C1219 0.951 . S
H1196 C1221 0.951 . S
H1197 C1223 0.950 . S
H1198 C1224 0.950 . S
H1199 C1226 0.950 . S
H1200 C1229 0.950 . S
H1201 C1230 0.950 . S
H1202 C1232 0.950 . S
H1203 C1233 0.950 . S
C1204 H1186 0.951 . S
C1204 C1205 1.366 . S
C1204 C1206 1.388 . S
C1205 C1204 1.366 . S
C1205 C1209 1.385 . S
C1206 H1187 0.951 . S
C1206 C1204 1.388 . S
C1206 C1207 1.366 . S
C1207 C1206 1.366 . S
C1207 C1208 1.414 . S
C1207 C1210 1.499 . S
C1208 H1188 0.950 . S
C1208 C1207 1.414 . S
C1208 C1209 1.374 . S
C1209 H1189 0.950 . S
C1209 C1205 1.385 . S
C1209 C1208 1.374 . S
C1210 C1207 1.499 . S
C1210 C1211 1.373 . S
C1210 C1212 1.389 . S
C1211 H1190 0.950 . S
C1211 C1210 1.373 . S
C1211 C1227 1.377 . S
C1212 C1210 1.389 . S
C1212 C1213 1.524 . S
C1212 C1226 1.377 . S
C1213 C1212 1.524 . S
C1213 C1214 1.397 . S
C1213 C1218 1.363 . S
C1214 H1191 0.950 . S
C1214 C1213 1.397 . S
C1214 C1215 1.334 . S
C1215 H1192 0.950 . S
C1215 C1214 1.334 . S
C1215 C1216 1.287 . S
C1216 C1215 1.287 . S
C1216 C1217 1.524 . S
C1216 H1235 0.913 . S
C1217 H1193 0.950 . S
C1217 C1216 1.524 . S
C1217 C1218 1.415 . S
C1218 H1194 0.950 . S
C1218 C1213 1.363 . S
C1218 C1217 1.415 . S
C1219 H1195 0.951 . S
C1219 C1220 1.366 . S
C1219 C1221 1.388 . S
C1220 C1219 1.366 . S
C1220 C1224 1.385 . S
C1221 H1196 0.951 . S
C1221 C1219 1.388 . S
C1221 C1222 1.366 . S
C1222 C1221 1.366 . S
C1222 C1223 1.414 . S
C1222 C1225 1.499 . S
C1223 H1197 0.950 . S
C1223 C1222 1.414 . S
C1223 C1224 1.374 . S
C1224 H1198 0.950 . S
C1224 C1220 1.385 . S
C1224 C1223 1.374 . S
C1225 C1222 1.499 . S
C1225 C1226 1.373 . S
C1225 C1227 1.389 . S
C1226 H1199 0.950 . S
C1226 C1212 1.377 . S
C1226 C1225 1.373 . S
C1227 C1211 1.377 . S
C1227 C1225 1.389 . S
C1227 C1228 1.524 . S
C1228 C1227 1.524 . S
C1228 C1229 1.397 . S
C1228 C1233 1.363 . S
C1229 H1200 0.950 . S
C1229 C1228 1.397 . S
C1229 C1230 1.334 . S
C1230 H1201 0.950 . S
C1230 C1229 1.334 . S
C1230 C1231 1.287 . S
C1231 C1230 1.287 . S
C1231 C1232 1.524 . S
C1231 H1234 0.999 . S
C1232 H1202 0.950 . S
C1232 C1231 1.524 . S
C1232 C1233 1.415 . S
C1233 H1203 0.950 . S
C1233 C1228 1.363 . S
C1233 C1232 1.415 . S
H1234 C1231 0.999 . S
H1235 C1216 0.913 . S
H1236 C1254 0.951 . S
H1237 C1256 0.951 . S
H1238 C1258 0.950 . S
H1239 C1259 0.950 . S
H1240 C1261 0.950 . S
H1241 C1264 0.950 . S
H1242 C1265 0.950 . S
H1243 C1267 0.950 . S
H1244 C1268 0.950 . S
H1245 C1269 0.951 . S
H1246 C1271 0.951 . S
H1247 C1273 0.950 . S
H1248 C1274 0.950 . S
H1249 C1276 0.950 . S
H1250 C1279 0.950 . S
H1251 C1280 0.950 . S
H1252 C1282 0.950 . S
H1253 C1283 0.950 . S
C1254 H1236 0.951 . S
C1254 C1255 1.366 . S
C1254 C1256 1.388 . S
C1255 C1254 1.366 . S
C1255 C1259 1.385 . S
C1256 H1237 0.951 . S
C1256 C1254 1.388 . S
C1256 C1257 1.366 . S
C1257 C1256 1.366 . S
C1257 C1258 1.414 . S
C1257 C1260 1.499 . S
C1258 H1238 0.950 . S
C1258 C1257 1.414 . S
C1258 C1259 1.374 . S
C1259 H1239 0.950 . S
C1259 C1255 1.385 . S
C1259 C1258 1.374 . S
C1260 C1257 1.499 . S
C1260 C1261 1.373 . S
C1260 C1262 1.389 . S
C1261 H1240 0.950 . S
C1261 C1260 1.373 . S
C1261 C1277 1.377 . S
C1262 C1260 1.389 . S
C1262 C1263 1.524 . S
C1262 C1276 1.377 . S
C1263 C1262 1.524 . S
C1263 C1264 1.397 . S
C1263 C1268 1.363 . S
C1264 H1241 0.950 . S
C1264 C1263 1.397 . S
C1264 C1265 1.334 . S
C1265 H1242 0.950 . S
C1265 C1264 1.334 . S
C1265 C1266 1.287 . S
C1266 C1265 1.287 . S
C1266 C1267 1.524 . S
C1266 H1285 0.913 . S
C1267 H1243 0.950 . S
C1267 C1266 1.524 . S
C1267 C1268 1.415 . S
C1268 H1244 0.950 . S
C1268 C1263 1.363 . S
C1268 C1267 1.415 . S
C1269 H1245 0.951 . S
C1269 C1270 1.366 . S
C1269 C1271 1.388 . S
C1270 C1269 1.366 . S
C1270 C1274 1.385 . S
C1271 H1246 0.951 . S
C1271 C1269 1.388 . S
C1271 C1272 1.366 . S
C1272 C1271 1.366 . S
C1272 C1273 1.414 . S
C1272 C1275 1.499 . S
C1273 H1247 0.950 . S
C1273 C1272 1.414 . S
C1273 C1274 1.374 . S
C1274 H1248 0.950 . S
C1274 C1270 1.385 . S
C1274 C1273 1.374 . S
C1275 C1272 1.499 . S
C1275 C1276 1.373 . S
C1275 C1277 1.389 . S
C1276 H1249 0.950 . S
C1276 C1262 1.377 . S
C1276 C1275 1.373 . S
C1277 C1261 1.377 . S
C1277 C1275 1.389 . S
C1277 C1278 1.524 . S
C1278 C1277 1.524 . S
C1278 C1279 1.397 . S
C1278 C1283 1.363 . S
C1279 H1250 0.950 . S
C1279 C1278 1.397 . S
C1279 C1280 1.334 . S
C1280 H1251 0.950 . S
C1280 C1279 1.334 . S
C1280 C1281 1.287 . S
C1281 C1280 1.287 . S
C1281 C1282 1.524 . S
C1281 H1284 0.999 . S
C1282 H1252 0.950 . S
C1282 C1281 1.524 . S
C1282 C1283 1.415 . S
C1283 H1253 0.950 . S
C1283 C1278 1.363 . S
C1283 C1282 1.415 . S
H1284 C1281 0.999 . S
H1285 C1266 0.913 . S
H1286 C1304 0.951 . S
H1287 C1306 0.951 . S
H1288 C1308 0.950 . S
H1289 C1309 0.950 . S
H1290 C1311 0.950 . S
H1291 C1314 0.950 . S
H1292 C1315 0.950 . S
H1293 C1317 0.950 . S
H1294 C1318 0.950 . S
H1295 C1319 0.951 . S
H1296 C1321 0.951 . S
H1297 C1323 0.950 . S
H1298 C1324 0.950 . S
H1299 C1326 0.950 . S
H1300 C1329 0.950 . S
H1301 C1330 0.950 . S
H1302 C1332 0.950 . S
H1303 C1333 0.950 . S
C1304 H1286 0.951 . S
C1304 C1305 1.366 . S
C1304 C1306 1.388 . S
C1305 C1304 1.366 . S
C1305 C1309 1.385 . S
C1306 H1287 0.951 . S
C1306 C1304 1.388 . S
C1306 C1307 1.366 . S
C1307 C1306 1.366 . S
C1307 C1308 1.414 . S
C1307 C1310 1.499 . S
C1308 H1288 0.950 . S
C1308 C1307 1.414 . S
C1308 C1309 1.374 . S
C1309 H1289 0.950 . S
C1309 C1305 1.385 . S
C1309 C1308 1.374 . S
C1310 C1307 1.499 . S
C1310 C1311 1.373 . S
C1310 C1312 1.389 . S
C1311 H1290 0.950 . S
C1311 C1310 1.373 . S
C1311 C1327 1.377 . S
C1312 C1310 1.389 . S
C1312 C1313 1.524 . S
C1312 C1326 1.377 . S
C1313 C1312 1.524 . S
C1313 C1314 1.397 . S
C1313 C1318 1.363 . S
C1314 H1291 0.950 . S
C1314 C1313 1.397 . S
C1314 C1315 1.334 . S
C1315 H1292 0.950 . S
C1315 C1314 1.334 . S
C1315 C1316 1.287 . S
C1316 C1315 1.287 . S
C1316 C1317 1.524 . S
C1316 H1335 0.913 . S
C1317 H1293 0.950 . S
C1317 C1316 1.524 . S
C1317 C1318 1.415 . S
C1318 H1294 0.950 . S
C1318 C1313 1.363 . S
C1318 C1317 1.415 . S
C1319 H1295 0.951 . S
C1319 C1320 1.366 . S
C1319 C1321 1.388 . S
C1320 C1319 1.366 . S
C1320 C1324 1.385 . S
C1321 H1296 0.951 . S
C1321 C1319 1.388 . S
C1321 C1322 1.366 . S
C1322 C1321 1.366 . S
C1322 C1323 1.414 . S
C1322 C1325 1.499 . S
C1323 H1297 0.950 . S
C1323 C1322 1.414 . S
C1323 C1324 1.374 . S
C1324 H1298 0.950 . S
C1324 C1320 1.385 . S
C1324 C1323 1.374 . S
C1325 C1322 1.499 . S
C1325 C1326 1.373 . S
C1325 C1327 1.389 . S
C1326 H1299 0.950 . S
C1326 C1312 1.377 . S
C1326 C1325 1.373 . S
C1327 C1311 1.377 . S
C1327 C1325 1.389 . S
C1327 C1328 1.524 . S
C1328 C1327 1.524 . S
C1328 C1329 1.397 . S
C1328 C1333 1.363 . S
C1329 H1300 0.950 . S
C1329 C1328 1.397 . S
C1329 C1330 1.334 . S
C1330 H1301 0.950 . S
C1330 C1329 1.334 . S
C1330 C1331 1.287 . S
C1331 C1330 1.287 . S
C1331 C1332 1.524 . S
C1331 H1334 0.999 . S
C1332 H1302 0.950 . S
C1332 C1331 1.524 . S
C1332 C1333 1.415 . S
C1333 H1303 0.950 . S
C1333 C1328 1.363 . S
C1333 C1332 1.415 . S
H1334 C1331 0.999 . S
H1335 C1316 0.913 . S
H1336 C1354 0.951 . S
H1337 C1356 0.951 . S
H1338 C1358 0.950 . S
H1339 C1359 0.950 . S
H1340 C1361 0.950 . S
H1341 C1364 0.950 . S
H1342 C1365 0.950 . S
H1343 C1367 0.950 . S
H1344 C1368 0.950 . S
H1345 C1369 0.951 . S
H1346 C1371 0.951 . S
H1347 C1373 0.950 . S
H1348 C1374 0.950 . S
H1349 C1376 0.950 . S
H1350 C1379 0.950 . S
H1351 C1380 0.950 . S
H1352 C1382 0.950 . S
H1353 C1383 0.950 . S
C1354 H1336 0.951 . S
C1354 C1355 1.366 . S
C1354 C1356 1.388 . S
C1355 C1354 1.366 . S
C1355 C1359 1.385 . S
C1356 H1337 0.951 . S
C1356 C1354 1.388 . S
C1356 C1357 1.366 . S
C1357 C1356 1.366 . S
C1357 C1358 1.414 . S
C1357 C1360 1.499 . S
C1358 H1338 0.950 . S
C1358 C1357 1.414 . S
C1358 C1359 1.374 . S
C1359 H1339 0.950 . S
C1359 C1355 1.385 . S
C1359 C1358 1.374 . S
C1360 C1357 1.499 . S
C1360 C1361 1.373 . S
C1360 C1362 1.389 . S
C1361 H1340 0.950 . S
C1361 C1360 1.373 . S
C1361 C1377 1.377 . S
C1362 C1360 1.389 . S
C1362 C1363 1.524 . S
C1362 C1376 1.377 . S
C1363 C1362 1.524 . S
C1363 C1364 1.397 . S
C1363 C1368 1.363 . S
C1364 H1341 0.950 . S
C1364 C1363 1.397 . S
C1364 C1365 1.334 . S
C1365 H1342 0.950 . S
C1365 C1364 1.334 . S
C1365 C1366 1.287 . S
C1366 C1365 1.287 . S
C1366 C1367 1.524 . S
C1366 H1385 0.913 . S
C1367 H1343 0.950 . S
C1367 C1366 1.524 . S
C1367 C1368 1.415 . S
C1368 H1344 0.950 . S
C1368 C1363 1.363 . S
C1368 C1367 1.415 . S
C1369 H1345 0.951 . S
C1369 C1370 1.366 . S
C1369 C1371 1.388 . S
C1370 C1369 1.366 . S
C1370 C1374 1.385 . S
C1371 H1346 0.951 . S
C1371 C1369 1.388 . S
C1371 C1372 1.366 . S
C1372 C1371 1.366 . S
C1372 C1373 1.414 . S
C1372 C1375 1.499 . S
C1373 H1347 0.950 . S
C1373 C1372 1.414 . S
C1373 C1374 1.374 . S
C1374 H1348 0.950 . S
C1374 C1370 1.385 . S
C1374 C1373 1.374 . S
C1375 C1372 1.499 . S
C1375 C1376 1.373 . S
C1375 C1377 1.389 . S
C1376 H1349 0.950 . S
C1376 C1362 1.377 . S
C1376 C1375 1.373 . S
C1377 C1361 1.377 . S
C1377 C1375 1.389 . S
C1377 C1378 1.524 . S
C1378 C1377 1.524 . S
C1378 C1379 1.397 . S
C1378 C1383 1.363 . S
C1379 H1350 0.950 . S
C1379 C1378 1.397 . S
C1379 C1380 1.334 . S
C1380 H1351 0.950 . S
C1380 C1379 1.334 . S
C1380 C1381 1.287 . S
C1381 C1380 1.287 . S
C1381 C1382 1.524 . S
C1381 H1384 0.999 . S
C1382 H1352 0.950 . S
C1382 C1381 1.524 . S
C1382 C1383 1.415 . S
C1383 H1353 0.950 . S
C1383 C1378 1.363 . S
C1383 C1382 1.415 . S
H1384 C1381 0.999 . S
H1385 C1366 0.913 . S
H1386 C1404 0.951 . S
H1387 C1406 0.951 . S
H1388 C1408 0.950 . S
H1389 C1409 0.950 . S
H1390 C1411 0.950 . S
H1391 C1414 0.950 . S
H1392 C1415 0.950 . S
H1393 C1417 0.950 . S
H1394 C1418 0.950 . S
H1395 C1419 0.951 . S
H1396 C1421 0.951 . S
H1397 C1423 0.950 . S
H1398 C1424 0.950 . S
H1399 C1426 0.950 . S
H1400 C1429 0.950 . S
H1401 C1430 0.950 . S
H1402 C1432 0.950 . S
H1403 C1433 0.950 . S
C1404 H1386 0.951 . S
C1404 C1405 1.366 . S
C1404 C1406 1.388 . S
C1405 C1404 1.366 . S
C1405 C1409 1.385 . S
C1406 H1387 0.951 . S
C1406 C1404 1.388 . S
C1406 C1407 1.366 . S
C1407 C1406 1.366 . S
C1407 C1408 1.414 . S
C1407 C1410 1.499 . S
C1408 H1388 0.950 . S
C1408 C1407 1.414 . S
C1408 C1409 1.374 . S
C1409 H1389 0.950 . S
C1409 C1405 1.385 . S
C1409 C1408 1.374 . S
C1410 C1407 1.499 . S
C1410 C1411 1.373 . S
C1410 C1412 1.389 . S
C1411 H1390 0.950 . S
C1411 C1410 1.373 . S
C1411 C1427 1.377 . S
C1412 C1410 1.389 . S
C1412 C1413 1.524 . S
C1412 C1426 1.377 . S
C1413 C1412 1.524 . S
C1413 C1414 1.397 . S
C1413 C1418 1.363 . S
C1414 H1391 0.950 . S
C1414 C1413 1.397 . S
C1414 C1415 1.334 . S
C1415 H1392 0.950 . S
C1415 C1414 1.334 . S
C1415 C1416 1.287 . S
C1416 C1415 1.287 . S
C1416 C1417 1.524 . S
C1416 H1435 0.913 . S
C1417 H1393 0.950 . S
C1417 C1416 1.524 . S
C1417 C1418 1.415 . S
C1418 H1394 0.950 . S
C1418 C1413 1.363 . S
C1418 C1417 1.415 . S
C1419 H1395 0.951 . S
C1419 C1420 1.366 . S
C1419 C1421 1.388 . S
C1420 C1419 1.366 . S
C1420 C1424 1.385 . S
C1421 H1396 0.951 . S
C1421 C1419 1.388 . S
C1421 C1422 1.366 . S
C1422 C1421 1.366 . S
C1422 C1423 1.414 . S
C1422 C1425 1.499 . S
C1423 H1397 0.950 . S
C1423 C1422 1.414 . S
C1423 C1424 1.374 . S
C1424 H1398 0.950 . S
C1424 C1420 1.385 . S
C1424 C1423 1.374 . S
C1425 C1422 1.499 . S
C1425 C1426 1.373 . S
C1425 C1427 1.389 . S
C1426 H1399 0.950 . S
C1426 C1412 1.377 . S
C1426 C1425 1.373 . S
C1427 C1411 1.377 . S
C1427 C1425 1.389 . S
C1427 C1428 1.524 . S
C1428 C1427 1.524 . S
C1428 C1429 1.397 . S
C1428 C1433 1.363 . S
C1429 H1400 0.950 . S
C1429 C1428 1.397 . S
C1429 C1430 1.334 . S
C1430 H1401 0.950 . S
C1430 C1429 1.334 . S
C1430 C1431 1.287 . S
C1431 C1430 1.287 . S
C1431 C1432 1.524 . S
C1431 H1434 0.999 . S
C1432 H1402 0.950 . S
C1432 C1431 1.524 . S
C1432 C1433 1.415 . S
C1433 H1403 0.950 . S
C1433 C1428 1.363 . S
C1433 C1432 1.415 . S
H1434 C1431 0.999 . S
H1435 C1416 0.913 . S
C255 C116 1.435 . S
C270 C168 1.377 . S
C320 C176 1.377 . S
C305 C135 1.434 . S
C370 C180 1.366 . S
C355 C78 1.434 . S
C405 C97 1.434 . S
C420 C156 1.366 . S
C470 C197 1.377 . S
C455 C40 1.435 . S
C520 C231 1.377 . S
C505 C59 1.435 . S
C555 C2 1.433 . S
C570 C219 1.366 . S
C605 C21 1.434 . S
C620 C201 1.366 . S
C670 C155 1.422 . S
C655 C25 1.551 . S
C720 C189 1.423 . S
C705 C6 1.550 . S
C770 C193 1.417 . S
C755 C63 1.549 . S
C820 C171 1.418 . S
C805 C44 1.549 . S
C870 C210 1.422 . S
C855 C101 1.553 . S
C905 C82 1.552 . S
C920 C218 1.422 . S
C970 C234 1.418 . S
C955 C139 1.551 . S
C1005 C120 1.551 . S
C1020 C214 1.418 . S
C1070 C159 1.390 . S
C1055 C11 1.404 . S
C1120 C177 1.390 . S
C1105 C30 1.405 . S
C1155 C49 1.400 . S
C1170 C192 1.392 . S
C1220 C172 1.391 . S
C1205 C68 1.401 . S
C1270 C198 1.390 . S
C1255 C87 1.438 . S
C1305 C106 1.438 . S
C1320 C222 1.390 . S
C1355 C125 1.429 . S
C1370 C235 1.390 . S
C1405 C144 1.428 . S
C1420 C213 1.392 . S
