# Generated by pormake.
# Topology wbl, (4,4)-cn, num edge types: 1
# Building blocks:
#     Node 0, Type 0, BuildingBlock: MIFKUJ_clean_linker_1, # of connection points: 4
#     Node 1, Type 0, BuildingBlock: MIFKUJ_clean_linker_1, # of connection points: 4
#     Node 2, Type 0, BuildingBlock: MIFKUJ_clean_linker_1, # of connection points: 4
#     Node 3, Type 0, BuildingBlock: MIFKUJ_clean_linker_1, # of connection points: 4
#     Node 4, Type 0, BuildingBlock: MIFKUJ_clean_linker_1, # of connection points: 4
#     Node 5, Type 0, BuildingBlock: MIFKUJ_clean_linker_1, # of connection points: 4
#     Node 6, Type 0, BuildingBlock: MIFKUJ_clean_linker_1, # of connection points: 4
#     Node 7, Type 0, BuildingBlock: MIFKUJ_clean_linker_1, # of connection points: 4
#     Node 8, Type 1, BuildingBlock: QUQFOY_clean_sbu_1, # of connection points: 4
#     Node 9, Type 1, BuildingBlock: QUQFOY_clean_sbu_1, # of connection points: 4
#     Node 10, Type 1, BuildingBlock: QUQFOY_clean_sbu_1, # of connection points: 4
#     Node 11, Type 1, BuildingBlock: QUQFOY_clean_sbu_1, # of connection points: 4
#     Node 12, Type 1, BuildingBlock: QUQFOY_clean_sbu_1, # of connection points: 4
#     Node 13, Type 1, BuildingBlock: QUQFOY_clean_sbu_1, # of connection points: 4
#     Node 14, Type 1, BuildingBlock: QUQFOY_clean_sbu_1, # of connection points: 4
#     Node 15, Type 1, BuildingBlock: QUQFOY_clean_sbu_1, # of connection points: 4
#     Edge 16, Type (0, 1), BuildingBlock: OJICUG_clean_linker_0, # of connection points: 2
#     Edge 17, Type (0, 1), BuildingBlock: OJICUG_clean_linker_0, # of connection points: 2
#     Edge 18, Type (0, 1), BuildingBlock: OJICUG_clean_linker_0, # of connection points: 2
#     Edge 19, Type (0, 1), BuildingBlock: OJICUG_clean_linker_0, # of connection points: 2
#     Edge 20, Type (0, 1), BuildingBlock: OJICUG_clean_linker_0, # of connection points: 2
#     Edge 21, Type (0, 1), BuildingBlock: OJICUG_clean_linker_0, # of connection points: 2
#     Edge 22, Type (0, 1), BuildingBlock: OJICUG_clean_linker_0, # of connection points: 2
#     Edge 23, Type (0, 1), BuildingBlock: OJICUG_clean_linker_0, # of connection points: 2
#     Edge 24, Type (0, 1), BuildingBlock: OJICUG_clean_linker_0, # of connection points: 2
#     Edge 25, Type (0, 1), BuildingBlock: OJICUG_clean_linker_0, # of connection points: 2
#     Edge 26, Type (0, 1), BuildingBlock: OJICUG_clean_linker_0, # of connection points: 2
#     Edge 27, Type (0, 1), BuildingBlock: OJICUG_clean_linker_0, # of connection points: 2
#     Edge 28, Type (0, 1), BuildingBlock: OJICUG_clean_linker_0, # of connection points: 2
#     Edge 29, Type (0, 1), BuildingBlock: OJICUG_clean_linker_0, # of connection points: 2
#     Edge 30, Type (0, 1), BuildingBlock: OJICUG_clean_linker_0, # of connection points: 2
#     Edge 31, Type (0, 1), BuildingBlock: OJICUG_clean_linker_0, # of connection points: 2
#     Edge 32, Type (0, 1), BuildingBlock: OJICUG_clean_linker_0, # of connection points: 2
#     Edge 33, Type (0, 1), BuildingBlock: OJICUG_clean_linker_0, # of connection points: 2
#     Edge 34, Type (0, 1), BuildingBlock: OJICUG_clean_linker_0, # of connection points: 2
#     Edge 35, Type (0, 1), BuildingBlock: OJICUG_clean_linker_0, # of connection points: 2
#     Edge 36, Type (0, 1), BuildingBlock: OJICUG_clean_linker_0, # of connection points: 2
#     Edge 37, Type (0, 1), BuildingBlock: OJICUG_clean_linker_0, # of connection points: 2
#     Edge 38, Type (0, 1), BuildingBlock: OJICUG_clean_linker_0, # of connection points: 2
#     Edge 39, Type (0, 1), BuildingBlock: OJICUG_clean_linker_0, # of connection points: 2
#     Edge 40, Type (0, 1), BuildingBlock: OJICUG_clean_linker_0, # of connection points: 2
#     Edge 41, Type (0, 1), BuildingBlock: OJICUG_clean_linker_0, # of connection points: 2
#     Edge 42, Type (0, 1), BuildingBlock: OJICUG_clean_linker_0, # of connection points: 2
#     Edge 43, Type (0, 1), BuildingBlock: OJICUG_clean_linker_0, # of connection points: 2
#     Edge 44, Type (0, 1), BuildingBlock: OJICUG_clean_linker_0, # of connection points: 2
#     Edge 45, Type (0, 1), BuildingBlock: OJICUG_clean_linker_0, # of connection points: 2
#     Edge 46, Type (0, 1), BuildingBlock: OJICUG_clean_linker_0, # of connection points: 2
#     Edge 47, Type (0, 1), BuildingBlock: OJICUG_clean_linker_0, # of connection points: 2
# Relax obj value: 0.175
# Max RMSD: 0.208
# Mean RMSD: 0.159
data_MOF--net-wbl--node1-QUQFOY_clean_sbu_1--node2-MIFKUJ_clean_linker_1--edge1-OJICUG_clean_linker_0
_symmetry_space_group_name_H-M    P1
_symmetry_Int_Tables_number       1
_symmetry_cell_setting            triclinic
loop_
_symmetry_equiv_pos_as_xyz
'x, y, z'
_cell_length_a     35.740292
_cell_length_b     35.740824
_cell_length_c     59.693584
_cell_angle_alpha  93.588546
_cell_angle_beta   93.580842
_cell_angle_gamma 90.18888
loop_
_atom_site_label
_atom_site_type_symbol
_atom_site_fract_x
_atom_site_fract_y
_atom_site_fract_z
_atom_type_partial_charge
H0 H 0.13142 0.19054 0.38921 0.0
H1 H 0.09169 0.22185 0.41661 0.0
H2 H 0.00029 0.14698 0.39345 0.0
H3 H 0.0403 0.11506 0.36688 0.0
H4 H 0.14824 0.11563 0.39225 0.0
H5 H 0.09312 0.19034 0.33049 0.0
H6 H 0.03596 0.21542 0.31255 0.0
H7 H 0.9893 0.10305 0.30397 0.0
H8 H 0.04728 0.07848 0.32036 0.0
H9 H 0.13404 0.01011 0.31507 0.0
H10 H 0.17204 0.96129 0.29699 0.0
H11 H 0.27268 0.02253 0.32069 0.0
H12 H 0.23467 0.07116 0.33865 0.0
H13 H 0.12419 0.08352 0.31059 0.0
H14 H 0.1614 0.00612 0.36714 0.0
H15 H 0.19112 0.97004 0.39658 0.0
H16 H 0.25168 0.06911 0.42391 0.0
H17 H 0.22172 0.1052 0.39432 0.0
C18 C 0.08875 0.15071 0.37578 0.0
C19 C 0.10254 0.18148 0.38972 0.0
C20 C 0.07979 0.19944 0.40529 0.0
C21 C 0.04298 0.18665 0.4073 0.0
C22 C 0.02867 0.15721 0.39246 0.0
C23 C 0.05139 0.13925 0.377 0.0
C24 C 0.11456 0.12719 0.36245 0.0
C25 C 0.14407 0.1097 0.37421 0.0
C26 C 0.10718 0.11742 0.33928 0.0
C27 C 0.07437 0.1326 0.32662 0.0
C28 C 0.07072 0.17122 0.32426 0.0
C29 C 0.03779 0.1855 0.31423 0.0
C30 C 0.0076 0.16143 0.30679 0.0
C31 C 0.01196 0.12259 0.30889 0.0
C32 C 0.04514 0.10835 0.3184 0.0
C33 C 0.18155 0.04416 0.32831 0.0
C34 C 0.16427 0.0132 0.31613 0.0
C35 C 0.18597 0.98527 0.3059 0.0
C36 C 0.22529 0.98817 0.30737 0.0
C37 C 0.24242 0.01976 0.31902 0.0
C38 C 0.22077 0.04741 0.32945 0.0
C39 C 0.15876 0.0726 0.34036 0.0
C40 C 0.12974 0.09072 0.32841 0.0
C41 C 0.16535 0.08158 0.36371 0.0
C42 C 0.18949 0.05837 0.37841 0.0
C43 C 0.1821 0.01982 0.37895 0.0
C44 C 0.19903 0.9992 0.39588 0.0
C45 C 0.22342 0.01682 0.41274 0.0
C46 C 0.23252 0.0549 0.41137 0.0
C47 C 0.21565 0.07549 0.39439 0.0
H48 H 0.04493 0.54893 0.56439 0.0
H49 H 0.01158 0.49394 0.54687 0.0
H50 H 0.90592 0.54567 0.56161 0.0
H51 H 0.93976 0.5999 0.57994 0.0
H52 H 0.04485 0.6294 0.56263 0.0
H53 H 0.01754 0.53247 0.61072 0.0
H54 H 0.98561 0.48779 0.63237 0.0
H55 H 0.91989 0.57766 0.66121 0.0
H56 H 0.95112 0.62218 0.63883 0.0
H57 H 0.03518 0.70779 0.65178 0.0
H58 H 0.07503 0.73659 0.68307 0.0
H59 H 0.17269 0.68808 0.65387 0.0
H60 H 0.13284 0.65873 0.62296 0.0
H61 H 0.0271 0.63508 0.64458 0.0
H62 H 0.05598 0.7326 0.59529 0.0
H63 H 0.09978 0.77688 0.5816 0.0
H64 H 0.17052 0.68469 0.56071 0.0
H65 H 0.125 0.64051 0.57328 0.0
C66 C 0.99478 0.57812 0.57371 0.0
C67 C 0.01455 0.54882 0.56323 0.0
C68 C 0.99535 0.5174 0.55316 0.0
C69 C 0.95601 0.51503 0.55317 0.0
C70 C 0.93624 0.54615 0.56181 0.0
C71 C 0.95548 0.57731 0.57211 0.0
C72 C 0.0151 0.60641 0.58904 0.0
C73 C 0.04093 0.63076 0.58054 0.0
C74 C 0.00971 0.60838 0.61237 0.0
C75 C 0.98649 0.58066 0.62297 0.0
C76 C 0.9954 0.54242 0.62111 0.0
C77 C 0.97742 0.51695 0.63371 0.0
C78 C 0.95047 0.52924 0.64867 0.0
C79 C 0.94027 0.56725 0.64971 0.0
C80 C 0.95826 0.59275 0.63704 0.0
C81 C 0.081 0.6814 0.63486 0.0
C82 C 0.06525 0.70392 0.65191 0.0
C83 C 0.08798 0.72019 0.66981 0.0
C84 C 0.12689 0.71435 0.67093 0.0
C85 C 0.14284 0.69338 0.6533 0.0
C86 C 0.12006 0.6768 0.63553 0.0
C87 C 0.05645 0.65857 0.61828 0.0
C88 C 0.03007 0.63478 0.62658 0.0
C89 C 0.06152 0.65702 0.59492 0.0
C90 C 0.08734 0.68337 0.58535 0.0
C91 C 0.08076 0.722 0.58754 0.0
C92 C 0.10618 0.7473 0.57991 0.0
C93 C 0.13927 0.73461 0.57032 0.0
C94 C 0.14531 0.69566 0.56774 0.0
C95 C 0.11938 0.67029 0.575 0.0
H96 H 0.53095 0.57204 0.89367 0.0
H97 H 0.50028 0.608 0.92317 0.0
H98 H 0.39672 0.60507 0.88167 0.0
H99 H 0.42788 0.56865 0.85188 0.0
H100 H 0.51251 0.50222 0.87739 0.0
H101 H 0.51675 0.62658 0.8512 0.0
H102 H 0.47921 0.6818 0.84275 0.0
H103 H 0.42416 0.61985 0.78559 0.0
H104 H 0.46017 0.56393 0.79476 0.0
H105 H 0.54416 0.4251 0.81134 0.0
H106 H 0.59224 0.3901 0.79159 0.0
H107 H 0.65353 0.49329 0.78618 0.0
H108 H 0.60534 0.52795 0.80561 0.0
H109 H 0.53305 0.54168 0.80094 0.0
H110 H 0.50845 0.42935 0.86564 0.0
H111 H 0.53983 0.3912 0.8937 0.0
H112 H 0.64631 0.43952 0.88034 0.0
H113 H 0.61481 0.47854 0.8528 0.0
C114 C 0.48163 0.56744 0.87068 0.0
C115 C 0.50162 0.57906 0.89089 0.0
C116 C 0.48404 0.59954 0.90775 0.0
C117 C 0.44597 0.60884 0.90484 0.0
C118 C 0.4261 0.59824 0.88432 0.0
C119 C 0.44379 0.57743 0.86736 0.0
C120 C 0.50092 0.54393 0.85367 0.0
C121 C 0.51649 0.51034 0.86047 0.0
C122 C 0.50666 0.55539 0.83189 0.0
C123 C 0.49042 0.59078 0.824 0.0
C124 C 0.49683 0.62491 0.83673 0.0
C125 C 0.47565 0.65648 0.83185 0.0
C126 C 0.44884 0.65479 0.81363 0.0
C127 C 0.44487 0.62173 0.79967 0.0
C128 C 0.46541 0.58985 0.80489 0.0
C129 C 0.57139 0.47908 0.81021 0.0
C130 C 0.56773 0.44019 0.80561 0.0
C131 C 0.59525 0.42022 0.79434 0.0
C132 C 0.62693 0.43881 0.78743 0.0
C133 C 0.62933 0.47807 0.79095 0.0
C134 C 0.60181 0.49797 0.80217 0.0
C135 C 0.54541 0.49979 0.82488 0.0
C136 C 0.52837 0.53282 0.81759 0.0
C137 C 0.53914 0.48838 0.84663 0.0
C138 C 0.5592 0.45696 0.85715 0.0
C139 C 0.53873 0.43069 0.86809 0.0
C140 C 0.55662 0.40895 0.88413 0.0
C141 C 0.59536 0.41272 0.88924 0.0
C142 C 0.61643 0.43589 0.87653 0.0
C143 C 0.59843 0.45812 0.86071 0.0
H144 H 0.55949 0.9573 0.09501 0.0
H145 H 0.52332 0.90271 0.08017 0.0
H146 H 0.45279 0.97341 0.03933 0.0
H147 H 0.48776 0.02859 0.05578 0.0
H148 H 0.56376 0.04786 0.05551 0.0
H149 H 0.58326 0.98569 0.13513 0.0
H150 H 0.55803 0.95109 0.16471 0.0
H151 H 0.45108 0.00549 0.15357 0.0
H152 H 0.47633 0.03831 0.12286 0.0
H153 H 0.56999 0.15129 0.1336 0.0
H154 H 0.61143 0.18699 0.1613 0.0
H155 H 0.70735 0.13123 0.13434 0.0
H156 H 0.66572 0.09561 0.10659 0.0
H157 H 0.57255 0.07417 0.13829 0.0
H158 H 0.57327 0.15708 0.07576 0.0
H159 H 0.61008 0.19933 0.05495 0.0
H160 H 0.68394 0.10823 0.03729 0.0
H161 H 0.64645 0.06578 0.05799 0.0
C162 C 0.5257 0.9971 0.07698 0.0
C163 C 0.53581 0.96117 0.0832 0.0
C164 C 0.51542 0.92982 0.07431 0.0
C165 C 0.48503 0.93349 0.05846 0.0
C166 C 0.47558 0.96954 0.05177 0.0
C167 C 0.49576 0.00107 0.06097 0.0
C168 C 0.54645 0.03036 0.08733 0.0
C169 C 0.56541 0.05379 0.07359 0.0
C170 C 0.54887 0.03821 0.11088 0.0
C171 C 0.53152 0.01415 0.12671 0.0
C172 C 0.55414 0.98949 0.13876 0.0
C173 C 0.53973 0.97015 0.15592 0.0
C174 C 0.50262 0.97598 0.16196 0.0
C175 C 0.47965 3e-05 0.14935 0.0
C176 C 0.494 0.0189 0.13181 0.0
C177 C 0.61479 0.12074 0.11814 0.0
C178 C 0.60004 0.1478 0.13311 0.0
C179 C 0.6237 0.168 0.14897 0.0
C180 C 0.66247 0.16132 0.15017 0.0
C181 C 0.67758 0.137 0.13372 0.0
C182 C 0.65382 0.11671 0.11782 0.0
C183 C 0.58961 0.09174 0.10659 0.0
C184 C 0.57009 0.06887 0.12014 0.0
C185 C 0.58725 0.08428 0.08305 0.0
C186 C 0.60715 0.10839 0.06834 0.0
C187 C 0.59694 0.14605 0.06703 0.0
C188 C 0.61789 0.17007 0.05505 0.0
C189 C 0.64979 0.15699 0.04442 0.0
C190 C 0.65948 0.11899 0.04531 0.0
C191 C 0.63805 0.09476 0.05701 0.0
H192 H 0.02414 0.68184 0.90912 0.0
H193 H 0.06705 0.71575 0.88702 0.0
H194 H 0.16048 0.65612 0.91693 0.0
H195 H 0.11739 0.62191 0.93867 0.0
H196 H 0.02096 0.60135 0.90313 0.0
H197 H 0.04504 0.69796 0.96673 0.0
H198 H 0.09829 0.73309 0.98537 0.0
H199 H 0.14915 0.62887 0.00394 0.0
H200 H 0.09524 0.59442 0.98614 0.0
H201 H 0.99028 0.49479 0.94729 0.0
H202 H 0.94345 0.45275 0.96073 0.0
H203 H 0.89071 0.54778 0.99389 0.0
H204 H 0.93672 0.58962 0.97981 0.0
H205 H 0.01389 0.5945 0.98549 0.0
H206 H 0.03015 0.52457 0.9012 0.0
H207 H 0.00188 0.48458 0.87006 0.0
H208 H 0.89172 0.52024 0.88803 0.0
H209 H 0.92042 0.56052 0.91944 0.0
C210 C 0.0676 0.6495 0.92559 0.0
C211 C 0.05398 0.67674 0.91128 0.0
C212 C 0.07853 0.69623 0.89876 0.0
C213 C 0.11709 0.68842 0.90015 0.0
C214 C 0.13086 0.6625 0.91539 0.0
C215 C 0.10632 0.64315 0.92795 0.0
C216 C 0.04105 0.62449 0.93573 0.0
C217 C 0.01894 0.60019 0.92114 0.0
C218 C 0.03978 0.62194 0.9592 0.0
C219 C 0.06646 0.64364 0.97492 0.0
C220 C 0.06714 0.68292 0.97552 0.0
C221 C 0.09778 0.70288 0.98599 0.0
C222 C 0.12848 0.68382 0.99578 0.0
C223 C 0.12603 0.64463 0.99679 0.0
C224 C 0.09518 0.62478 0.98655 0.0
C225 C 0.96659 0.54545 0.96221 0.0
C226 C 0.96855 0.50653 0.95741 0.0
C227 C 0.94199 0.48249 0.96529 0.0
C228 C 0.91309 0.49694 0.97819 0.0
C229 C 0.91215 0.53579 0.98364 0.0
C230 C 0.93863 0.55974 0.97576 0.0
C231 C 0.9928 0.57169 0.95273 0.0
C232 C 0.01506 0.59617 0.96747 0.0
C233 C 0.99578 0.57309 0.92927 0.0
C234 C 0.97737 0.54559 0.91253 0.0
C235 C -0.00013 0.52349 0.8986 0.0
C236 C 0.98372 0.50081 0.88076 0.0
C237 C 0.94467 0.49975 0.87644 0.0
C238 C 0.92192 0.52051 0.89104 0.0
C239 C 0.93821 0.54347 0.90894 0.0
H240 H 0.55399 0.58269 0.23325 0.0
H241 H 0.52803 0.64168 0.24785 0.0
H242 H 0.41725 0.6051 0.2224 0.0
H243 H 0.44331 0.54544 0.20828 0.0
H244 H 0.54851 0.50985 0.23709 0.0
H245 H 0.52529 0.59455 0.18035 0.0
H246 H 0.49611 0.63594 0.15344 0.0
H247 H 0.42133 0.54623 0.12728 0.0
H248 H 0.45016 0.505 0.15474 0.0
H249 H 0.53568 0.41221 0.15396 0.0
H250 H 0.57318 0.38364 0.12466 0.0
H251 H 0.67005 0.44685 0.15283 0.0
H252 H 0.63252 0.47502 0.18217 0.0
H253 H 0.52596 0.48727 0.15453 0.0
H254 H 0.56631 0.40036 0.20951 0.0
H255 H 0.61422 0.36361 0.2291 0.0
H256 H 0.67107 0.46578 0.25466 0.0
H257 H 0.62301 0.50249 0.23493 0.0
C258 C 0.50068 0.55982 0.21944 0.0
C259 C 0.52399 0.58688 0.23131 0.0
C260 C 0.50916 0.62077 0.23942 0.0
C261 C 0.47072 0.62824 0.23587 0.0
C262 C 0.44697 0.60012 0.22535 0.0
C263 C 0.46186 0.56613 0.2172 0.0
C264 C 0.51773 0.52728 0.20733 0.0
C265 C 0.5434 0.5047 0.21905 0.0
C266 C 0.51106 0.52046 0.18381 0.0
C267 C 0.48965 0.54677 0.16971 0.0
C268 C 0.50188 0.58406 0.1693 0.0
C269 C 0.48542 0.60759 0.15377 0.0
C270 C 0.45663 0.59421 0.13816 0.0
C271 C 0.44323 0.55739 0.13924 0.0
C272 C 0.45978 0.53378 0.15481 0.0
C273 C 0.58127 0.44569 0.17029 0.0
C274 C 0.56527 0.41903 0.15422 0.0
C275 C 0.58667 0.40298 0.13738 0.0
C276 C 0.62443 0.41349 0.1362 0.0
C277 C 0.64113 0.43798 0.15333 0.0
C278 C 0.61969 0.45403 0.1702 0.0
C279 C 0.55678 0.46981 0.18417 0.0
C280 C 0.52983 0.49117 0.17271 0.0
C281 C 0.56332 0.47625 0.20772 0.0
C282 C 0.59122 0.45413 0.22064 0.0
C283 C 0.58894 0.41485 0.21945 0.0
C284 C 0.61614 0.39392 0.23083 0.0
C285 C 0.64631 0.41186 0.24349 0.0
C286 C 0.64819 0.45123 0.24499 0.0
C287 C 0.6207 0.47219 0.23381 0.0
H288 H 0.6078 0.94717 0.42349 0.0
H289 H 0.57255 0.9047 0.39619 0.0
H290 H 0.47123 0.96595 0.40878 0.0
H291 H 0.50671 0.0083 0.43627 0.0
H292 H 0.60754 0.02253 0.41217 0.0
H293 H 0.58348 0.95064 0.47674 0.0
H294 H 0.53718 0.91612 0.49595 0.0
H295 H 0.47353 0.01794 0.50562 0.0
H296 H 0.52067 0.05232 0.48707 0.0
H297 H 0.61555 0.14307 0.48029 0.0
H298 H 0.66387 0.19027 0.49314 0.0
H299 H 0.74989 0.10833 0.48032 0.0
H300 H 0.70193 0.06209 0.46729 0.0
H301 H 0.60209 0.06221 0.49309 0.0
H302 H 0.62377 0.13382 0.4281 0.0
H303 H 0.65518 0.16316 0.39833 0.0
H304 H 0.71793 0.06146 0.38608 0.0
H305 H 0.68536 0.03207 0.41522 0.0
C306 C 0.55986 0.98094 0.43174 0.0
C307 C 0.57777 0.95067 0.42091 0.0
C308 C 0.55766 0.92658 0.40526 0.0
C309 C 0.51934 0.9325 0.40011 0.0
C310 C 0.50072 0.96069 0.4125 0.0
C311 C 0.52093 0.98488 0.4282 0.0
C312 C 0.58287 0.01178 0.44314 0.0
C313 C 0.6067 0.03086 0.42994 0.0
C314 C 0.58042 0.02356 0.46604 0.0
C315 C 0.55527 0.00393 0.48033 0.0
C316 C 0.55985 0.96557 0.48339 0.0
C317 C 0.53323 0.94586 0.49426 0.0
C318 C 0.50129 0.96406 0.50216 0.0
C319 C 0.49791 0.00299 0.50006 0.0
C320 C 0.52475 0.02274 0.48934 0.0
C321 C 0.65536 0.09934 0.47274 0.0
C322 C 0.64485 0.13535 0.48062 0.0
C323 C 0.67241 0.16219 0.48789 0.0
C324 C 0.71065 0.15317 0.48731 0.0
C325 C 0.72072 0.11644 0.48042 0.0
C326 C 0.69338 0.08988 0.47317 0.0
C327 C 0.62755 0.07211 0.46209 0.0
C328 C 0.60281 0.05385 0.47534 0.0
C329 C 0.62878 0.061 0.43905 0.0
C330 C 0.65212 0.08073 0.42374 0.0
C331 C 0.64479 0.11816 0.41922 0.0
C332 C 0.66285 0.13491 0.40221 0.0
C333 C 0.68869 0.11451 0.3895 0.0
C334 C 0.69747 0.07771 0.39507 0.0
C335 C 0.67914 0.06092 0.41187 0.0
H336 H 0.07242 0.1758 0.74892 0.0
H337 H 0.01665 0.21179 0.75825 0.0
H338 H 0.95463 0.15781 0.70076 0.0
H339 H 0.00974 0.1202 0.69214 0.0
H340 H 0.09485 0.10392 0.74276 0.0
H341 H 0.06814 0.20829 0.69151 0.0
H342 H 0.03125 0.2393 0.66194 0.0
H343 H 0.02771 0.13562 0.62049 0.0
H344 H 0.06445 0.10516 0.64979 0.0
H345 H 0.16202 0.0233 0.69138 0.0
H346 H 0.20448 0.99358 0.66514 0.0
H347 H 0.24955 0.1021 0.65301 0.0
H348 H 0.2077 0.13171 0.67964 0.0
H349 H 0.13483 0.12419 0.66638 0.0
H350 H 0.11023 0.03176 0.73841 0.0
H351 H 0.14565 0.98481 0.75849 0.0
H352 H 0.24751 0.04855 0.75364 0.0
H353 H 0.21174 0.09546 0.7333 0.0
C354 C 0.0456 0.14605 0.71948 0.0
C355 C 0.04652 0.17077 0.73873 0.0
C356 C 0.0147 0.19131 0.74405 0.0
C357 C 0.98164 0.18767 0.73007 0.0
C358 C 0.97994 0.16116 0.71169 0.0
C359 C 0.01147 0.13994 0.7067 0.0
C360 C 0.08102 0.12974 0.71163 0.0
C361 C 0.10378 0.10853 0.72611 0.0
C362 C 0.09257 0.1353 0.68983 0.0
C363 C 0.06912 0.1545 0.67276 0.0
C364 C 0.05918 0.19233 0.67607 0.0
C365 C 0.03806 0.20993 0.65922 0.0
C366 C 0.02698 0.18999 0.63879 0.0
C367 C 0.03648 0.15196 0.63582 0.0
C368 C 0.05738 0.13448 0.65258 0.0
C369 C 0.18158 0.07978 0.68744 0.0
C370 C 0.18232 0.04056 0.68397 0.0
C371 C 0.20657 0.02358 0.66893 0.0
C372 C 0.22997 0.04565 0.65692 0.0
C373 C 0.23165 0.08452 0.662 0.0
C374 C 0.20779 0.10142 0.67721 0.0
C375 C 0.1489 0.09845 0.6974 0.0
C376 C 0.12651 0.12021 0.68326 0.0
C377 C 0.13729 0.09214 0.71911 0.0
C378 C 0.15838 0.06686 0.73406 0.0
C379 C 0.14006 0.0361 0.7421 0.0
C380 C 0.16039 0.0093 0.75369 0.0
C381 C 0.19952 0.01276 0.75758 0.0
C382 C 0.21751 0.04475 0.75063 0.0
C383 C 0.19711 0.07159 0.73901 0.0
O384 O 0.36547 0.72023 0.97816 0.0
Cd385 Cd 0.34274 0.75109 0.00438 0.0
Cd386 Cd 0.39559 0.71372 0.03047 0.0
O387 O 0.39926 0.6841 1.00005 0.0
O388 O 0.291 0.76374 0.99365 0.0
O389 O 0.30389 0.72594 0.02114 0.0
C390 C 0.27925 0.74158 0.00801 0.0
C391 C 0.41007 0.67941 0.06212 0.0
C392 C 0.38682 0.69223 0.98056 0.0
C393 C 0.40153 0.79878 0.02844 0.0
O394 O 0.41591 0.76797 0.03398 0.0
O395 O 0.36998 0.79926 0.01745 0.0
O396 O 0.43521 0.68906 0.04908 0.0
O397 O 0.37588 0.68882 0.05713 0.0
O398 O 0.41529 0.84909 0.31767 0.0
Cd399 Cd 0.38222 0.83488 0.28898 0.0
Cd400 Cd 0.43953 0.86126 0.2669 0.0
O401 O 0.45601 0.88005 0.29945 0.0
O402 O 0.32909 0.84232 0.29609 0.0
O403 O 0.35937 0.87868 0.27428 0.0
C404 C 0.32969 0.87199 0.28478 0.0
C405 C 0.4545 0.89928 0.23801 0.0
C406 C 0.44398 0.87015 0.31781 0.0
C407 C 0.42124 0.77787 0.26149 0.0
O408 O 0.4435 0.80472 0.25865 0.0
O409 O 0.39191 0.78382 0.27216 0.0
O410 O 0.47988 0.88252 0.24981 0.0
O411 O 0.42006 0.89511 0.24277 0.0
O412 O 0.27605 0.90272 0.48983 0.0
Cd413 Cd 0.30107 0.87776 0.51687 0.0
Cd414 Cd 0.26374 0.92821 0.542 0.0
O415 O 0.261 0.95221 0.51112 0.0
O416 O 0.35234 0.86309 0.50887 0.0
O417 O 0.34065 0.90963 0.53381 0.0
C418 C 0.36448 0.89135 0.52194 0.0
C419 C 0.26591 0.96891 0.57428 0.0
C420 C 0.26433 0.93618 0.49172 0.0
C421 C 0.24259 0.84544 0.54215 0.0
O422 O 0.23425 0.87958 0.54645 0.0
O423 O 0.27119 0.83702 0.53129 0.0
O424 O 0.23675 0.96621 0.56051 0.0
O425 O 0.2949 0.94926 0.56951 0.0
O426 O 0.24834 0.78301 0.74853 0.0
Cd427 Cd 0.27941 0.80959 0.77478 0.0
Cd428 Cd 0.24091 0.75845 0.80079 0.0
O429 O 0.21239 0.75103 0.76937 0.0
O430 O 0.29179 0.85959 0.76445 0.0
O431 O 0.25376 0.85125 0.79169 0.0
C432 C 0.26871 0.87358 0.77847 0.0
C433 C 0.206 0.74174 0.83081 0.0
C434 C 0.22043 0.76161 0.75027 0.0
C435 C 0.32733 0.75613 0.79862 0.0
O436 O 0.29684 0.74377 0.80533 0.0
O437 O 0.32746 0.78367 0.78619 0.0
O438 O 0.21871 0.71716 0.81666 0.0
O439 O 0.21248 0.77658 0.82788 0.0
O440 O 0.91527 0.27655 0.56857 0.0
Cd441 Cd 0.88447 0.30188 0.54365 0.0
Cd442 Cd 0.92335 0.25366 0.51413 0.0
O443 O 0.94992 0.24415 0.54507 0.0
O444 O 0.87366 0.35368 0.55496 0.0
O445 O 0.91078 0.34013 0.52715 0.0
C446 C 0.89607 0.36499 0.54058 0.0
C447 C 0.95953 0.23759 0.4834 0.0
C448 C 0.94227 0.2544 0.56505 0.0
C449 C 0.83693 0.24938 0.51475 0.0
O450 O 0.86779 0.23847 0.50718 0.0
O451 O 0.83634 0.27563 0.53004 0.0
O452 O 0.9461 0.21285 0.49544 0.0
O453 O 0.95311 0.27233 0.48896 0.0
O454 O 0.85882 0.39102 0.79771 0.0
Cd455 Cd 0.83175 0.36066 0.77127 0.0
Cd456 Cd 0.88443 0.39709 0.74541 0.0
O457 O 0.89631 0.42218 0.77737 0.0
O458 O 0.78177 0.3485 0.78172 0.0
O459 O 0.79007 0.38668 0.75456 0.0
C460 C 0.76776 0.37162 0.76775 0.0
C461 C 0.90021 0.43434 0.71618 0.0
C462 C 0.88396 0.41575 0.79631 0.0
C463 C 0.88313 0.31097 0.74622 0.0
O464 O 0.89601 0.34087 0.73906 0.0
O465 O 0.85679 0.31205 0.75958 0.0
O466 O 0.92519 0.41904 0.72898 0.0
O467 O 0.86552 0.42885 0.71995 0.0
O468 O 0.7376 0.36727 0.05696 0.0
Cd469 Cd 0.75938 0.34215 0.02867 0.0
Cd470 Cd 0.71154 0.38446 0.00616 0.0
O471 O 0.68741 0.38389 0.03683 0.0
O472 O 0.76853 0.28835 0.03407 0.0
O473 O 0.72212 0.30825 0.01147 0.0
C474 C 0.73801 0.28111 0.02171 0.0
C475 C 0.67229 0.38291 0.97328 0.0
C476 C 0.70415 0.37925 0.05589 0.0
C477 C 0.79419 0.40195 0.00551 0.0
O478 O 0.76074 0.41394 0.00364 0.0
O479 O 0.80073 0.37013 0.01332 0.0
O480 O 0.67378 0.41161 0.98746 0.0
O481 O 0.6924 0.35418 0.97794 0.0
O482 O 0.78082 0.22724 0.23122 0.0
Cd483 Cd 0.79835 0.25619 0.26106 0.0
Cd484 Cd 0.77681 0.19438 0.27918 0.0
O485 O 0.74425 0.19176 0.2494 0.0
O486 O 0.79189 0.31012 0.2558 0.0
O487 O 0.75592 0.2788 0.2773 0.0
C488 C 0.76262 0.30912 0.26741 0.0
C489 C 0.74962 0.17369 0.31095 0.0
C490 C 0.75343 0.2045 0.2311 0.0
C491 C 0.85909 0.21137 0.27953 0.0
O492 O 0.83395 0.18601 0.27859 0.0
O493 O 0.85031 0.24506 0.27619 0.0
O494 O 0.75917 0.15068 0.29487 0.0
O495 O 0.75505 0.20904 0.30894 0.0
C496 C 0.24144 0.92007 0.30278 0.0
C497 C 0.24871 0.95737 0.29814 0.0
H498 H 0.26128 0.86358 0.30197 0.0
C499 C 0.28032 0.9653 0.28634 0.0
H500 H 0.2174 0.91314 0.31194 0.0
C501 C 0.30531 0.93686 0.28044 0.0
C502 C 0.29943 0.90001 0.28648 0.0
H503 H 0.28634 0.99375 0.28231 0.0
H504 H 0.3303 0.94422 0.27227 0.0
C505 C 0.26664 0.8917 0.2971 0.0
C506 C 0.18885 0.75415 0.54474 0.0
C507 C 0.16739 0.76206 0.56348 0.0
H508 H 0.22988 0.7741 0.52343 0.0
C509 C 0.17271 0.7969 0.57564 0.0
H510 H 0.18538 0.72787 0.53477 0.0
C511 C 0.19743 0.82357 0.56877 0.0
C512 C 0.21827 0.8159 0.54988 0.0
H513 H 0.1578 0.80376 0.59058 0.0
H514 H 0.2003 0.85031 0.57836 0.0
C515 C 0.21429 0.78067 0.53814 0.0
C516 C 0.39698 0.69377 0.82788 0.0
C517 C 0.42163 0.68537 0.8109 0.0
H518 H 0.34743 0.72287 0.83717 0.0
C519 C 0.41743 0.7035 0.79071 0.0
H520 H 0.39957 0.6798 0.8435 0.0
C521 C 0.38818 0.72889 0.78731 0.0
C522 C 0.36214 0.73552 0.80379 0.0
H523 H 0.4361 0.69719 0.77739 0.0
H524 H 0.38459 0.74154 0.7713 0.0
C525 C 0.3672 0.71828 0.82425 0.0
C526 C 0.48185 0.86537 0.04548 0.0
C527 C 0.46343 0.8997 0.0492 0.0
H528 H 0.4767 0.80681 0.03622 0.0
C529 C 0.42428 0.90093 0.04482 0.0
H530 H 0.51203 0.86344 0.04799 0.0
C531 C 0.40402 0.86836 0.03747 0.0
C532 C 0.42249 0.83391 0.03473 0.0
H533 H 0.40907 0.92676 0.0477 0.0
H534 H 0.37385 0.86992 0.03463 0.0
C535 C 0.4616 0.83287 0.03858 0.0
C536 C 0.18913 0.69234 0.01962 0.0
C537 C 0.16478 0.7036 0.00187 0.0
H538 H 0.24453 0.69567 0.03564 0.0
C539 C 0.17731 0.73096 0.98808 0.0
H540 H 0.18022 0.67181 0.03081 0.0
C541 C 0.21386 0.74497 0.99106 0.0
C542 C 0.23898 0.73173 0.00775 0.0
H543 H 0.15974 0.73999 0.97402 0.0
H544 H 0.22296 0.76472 0.97943 0.0
C545 C 0.22593 0.70617 0.02248 0.0
C546 C 0.47643 0.69778 0.23601 0.0
C547 C 0.45632 0.66627 0.24164 0.0
H548 H 0.48087 0.75734 0.23749 0.0
C549 C 0.42289 0.6716 0.25262 0.0
H550 H 0.50179 0.69458 0.22706 0.0
C551 C 0.41063 0.70788 0.2586 0.0
C552 C 0.43152 0.73938 0.25354 0.0
H553 H 0.40679 0.64775 0.25709 0.0
H554 H 0.38535 0.71121 0.2676 0.0
C555 C 0.4642 0.73381 0.24185 0.0
C556 C 0.44796 0.95738 0.52747 0.0
C557 C 0.4699 0.94216 0.51041 0.0
H558 H 0.39762 0.95291 0.54486 0.0
C559 C 0.4594 0.90717 0.49969 0.0
H560 H 0.45559 0.98387 0.53641 0.0
C561 C 0.42653 0.88916 0.50479 0.0
C562 C 0.40315 0.90579 0.52061 0.0
H563 H 0.47527 0.89466 0.48632 0.0
H564 H 0.41836 0.86329 0.4953 0.0
C565 C 0.4149 0.93942 0.53249 0.0
C566 C 0.20785 0.95964 0.78323 0.0
C567 C 0.22157 0.98109 0.7665 0.0
H568 H 0.21244 0.90893 0.80051 0.0
C569 C 0.25444 0.96943 0.75641 0.0
H570 H 0.18296 0.96819 0.79161 0.0
C571 C 0.27148 0.9357 0.76164 0.0
C572 C 0.25602 0.9128 0.77704 0.0
H573 H 0.26567 0.98504 0.74334 0.0
H574 H 0.2955 0.92658 0.75259 0.0
C575 C 0.22493 0.92582 0.78847 0.0
C576 C 0.68082 0.4312 0.76228 0.0
C577 C 0.65931 0.41735 0.77895 0.0
H578 H 0.73189 0.42721 0.74533 0.0
C579 C 0.67144 0.38493 0.78936 0.0
H580 H 0.67193 0.45575 0.75367 0.0
C581 C 0.70556 0.36843 0.78445 0.0
C582 C 0.72842 0.38398 0.76906 0.0
H583 H 0.65583 0.37364 0.8024 0.0
H584 H 0.71494 0.3447 0.79369 0.0
C585 C 0.71505 0.41467 0.75737 0.0
C586 C 0.71288 0.18575 0.04049 0.0
C587 C 0.67431 0.184 0.03425 0.0
H588 H 0.76368 0.21788 0.04115 0.0
C589 C 0.65868 0.21116 0.02051 0.0
H590 H 0.72565 0.16526 0.05114 0.0
C591 C 0.68049 0.24109 0.01459 0.0
C592 C 0.71828 0.24475 0.02257 0.0
H593 H 0.62911 0.2102 0.01525 0.0
H594 H 0.66698 0.2627 0.0051 0.0
C595 C 0.73464 0.21595 0.03479 0.0
C596 C 0.94795 0.15499 0.28201 0.0
C597 C 0.97104 0.17652 0.29793 0.0
H598 H 0.89429 0.149 0.26406 0.0
C599 C 0.95776 0.21148 0.30628 0.0
H600 H 0.95741 0.12858 0.27455 0.0
C601 C 0.92194 0.22382 0.29947 0.0
C602 C 0.89838 0.20103 0.28467 0.0
H603 H 0.97427 0.22875 0.31878 0.0
H604 H 0.91199 0.25028 0.30662 0.0
C605 C 0.91184 0.1668 0.27578 0.0
C606 C 0.9484 0.4538 0.52985 0.0
C607 C 0.93642 0.47866 0.54714 0.0
H608 H 0.9448 0.39829 0.51402 0.0
C609 C 0.90804 0.46682 0.56045 0.0
H610 H 0.96982 0.46219 0.51908 0.0
C611 C 0.89346 0.43052 0.55737 0.0
C612 C 0.90709 0.40496 0.54105 0.0
H613 H 0.89847 0.48483 0.57417 0.0
H614 H 0.87277 0.42199 0.56858 0.0
C615 C 0.93391 0.41727 0.52685 0.0
C616 C 0.77151 0.18286 0.47986 0.0
C617 C 0.74048 0.1817 0.49313 0.0
H618 H 0.82597 0.20536 0.47618 0.0
C619 C 0.73952 0.20629 0.51241 0.0
H620 H 0.77262 0.165 0.46457 0.0
C621 C 0.77015 0.22993 0.519 0.0
C622 C 0.80216 0.22917 0.50641 0.0
H623 H 0.71591 0.20603 0.52293 0.0
H624 H 0.76947 0.24743 0.53445 0.0
C625 C 0.80202 0.20616 0.48646 0.0
C626 C 0.93406 0.21983 0.75353 0.0
C627 C 0.95113 0.21496 0.73301 0.0
H628 H 0.8977 0.25372 0.77353 0.0
C629 C 0.94206 0.23929 0.71595 0.0
H630 H 0.94086 0.20141 0.76692 0.0
C631 C 0.9182 0.26953 0.71986 0.0
C632 C 0.90227 0.27539 0.7407 0.0
H633 H 0.95521 0.23623 0.70007 0.0
H634 H 0.91328 0.28914 0.70688 0.0
C635 C 0.90932 0.24955 0.75723 0.0
C636 C 0.89126 0.43664 0.99326 0.0
C637 C 0.88304 0.47206 0.9852 0.0
H638 H 0.86978 0.38668 0.00617 0.0
C639 C 0.84554 0.48377 0.98371 0.0
H640 H 0.91992 0.42689 0.99473 0.0
C641 C 0.817 0.46093 0.99028 0.0
C642 C 0.82508 0.42565 0.99853 0.0
H643 H 0.8381 0.51054 0.97719 0.0
H644 H 0.78847 0.47107 0.98883 0.0
C645 C 0.86257 0.41369 0.99991 0.0
C646 C 0.66882 0.3572 0.26498 0.0
C647 C 0.67696 0.38925 0.25363 0.0
H648 H 0.68989 0.30711 0.27893 0.0
C649 C 0.71451 0.39755 0.25012 0.0
H650 H 0.64015 0.3504 0.26817 0.0
C651 C 0.743 0.37277 0.25623 0.0
C652 C 0.73454 0.33937 0.26616 0.0
H653 H 0.72163 0.42197 0.24134 0.0
H654 H 0.77137 0.3788 0.25204 0.0
C655 C 0.69737 0.33261 0.27133 0.0
C656 C 0.24747 0.9589 0.43062 0.0
C657 C 0.23625 0.99655 0.43277 0.0
H658 H 0.26526 0.91028 0.44751 0.0
C659 C 0.23501 0.01424 0.45441 0.0
H660 H 0.2489 0.94457 0.41417 0.0
C661 C 0.24424 0.99466 0.47347 0.0
C662 C 0.25502 0.95688 0.47138 0.0
H663 H 0.22585 0.04301 0.45668 0.0
H664 H 0.24258 0.00913 0.48987 0.0
C665 C 0.25687 0.93929 0.44973 0.0
C666 C 0.13883 0.72146 0.71272 0.0
C667 C 0.15044 0.72766 0.69119 0.0
H668 H 0.15197 0.72687 0.74822 0.0
C669 C 0.18523 0.74508 0.68919 0.0
H670 H 0.11237 0.70758 0.71473 0.0
C671 C 0.20795 0.75619 0.70838 0.0
C672 C 0.19651 0.74967 0.72993 0.0
H673 H 0.19478 0.75028 0.67279 0.0
H674 H 0.2346 0.76965 0.70629 0.0
C675 C 0.16169 0.73219 0.73188 0.0
C676 C 0.4344 0.61697 0.94559 0.0
C677 C 0.42744 0.62853 0.92368 0.0
H678 H 0.42695 0.62773 0.98054 0.0
C679 C 0.40453 0.65981 0.9203 0.0
H680 H 0.45132 0.59249 0.94867 0.0
C681 C 0.39031 0.68016 0.9387 0.0
C682 C 0.39874 0.66943 0.96073 0.0
H683 H 0.39876 0.66932 0.90356 0.0
H684 H 0.37364 0.70482 0.93571 0.0
C685 C 0.4203 0.63715 0.96387 0.0
C686 C 0.51366 0.95335 0.2008 0.0
C687 C 0.48894 0.95817 0.18192 0.0
H688 H 0.52213 0.93107 0.2331 0.0
C689 C 0.45161 0.94555 0.18237 0.0
H690 H 0.54222 0.96375 0.20151 0.0
C691 C 0.43977 0.92758 0.20096 0.0
C692 C 0.46516 0.92147 0.21928 0.0
H693 H 0.43178 0.94858 0.16814 0.0
H694 H 0.41118 0.91733 0.20065 0.0
C695 C 0.50204 0.93492 0.21908 0.0
C696 C 0.14041 0.74145 0.87857 0.0
C697 C 0.14199 0.70363 0.88384 0.0
H698 H 0.15994 0.78354 0.85779 0.0
C699 C 0.16581 0.67925 0.87219 0.0
H700 H 0.12231 0.76087 0.88732 0.0
C701 C 0.18683 0.69201 0.85527 0.0
C702 C 0.18488 0.72959 0.84967 0.0
H703 H 0.16725 0.64985 0.87559 0.0
H704 H 0.20435 0.67218 0.84638 0.0
C705 C 0.16197 0.75442 0.86174 0.0
C706 C 0.40543 0.6201 0.1126 0.0
C707 C 0.44368 0.61727 0.11939 0.0
H708 H 0.36452 0.64252 0.08922 0.0
C709 C 0.47025 0.63546 0.10746 0.0
H710 H 0.38436 0.60636 0.12153 0.0
C711 C 0.45904 0.65569 0.08904 0.0
C712 C 0.42092 0.65851 0.08211 0.0
H713 H 0.49995 0.6333 0.11203 0.0
H714 H 0.48045 0.66901 0.08015 0.0
C715 C 0.3941 0.64084 0.09419 0.0
C716 C 0.46409 0.89868 0.37972 0.0
C717 C 0.50057 0.91343 0.37968 0.0
H718 H 0.41758 0.87276 0.3601 0.0
C719 C 0.51854 0.91253 0.35939 0.0
H720 H 0.44963 0.89913 0.39515 0.0
C721 C 0.50023 0.89801 0.33944 0.0
C722 C 0.4636 0.88369 0.33932 0.0
H723 H 0.54641 0.92429 0.35876 0.0
H724 H 0.51473 0.89836 0.32405 0.0
C725 C 0.44586 0.88358 0.35971 0.0
C726 C 0.23659 0.04485 0.61571 0.0
C727 C 0.24626 0.02933 0.63632 0.0
H728 H 0.23529 0.03752 0.57981 0.0
C729 C 0.26697 0.99597 0.6364 0.0
H730 H 0.22019 0.07025 0.61513 0.0
C731 C 0.27642 0.97766 0.61608 0.0
C732 C 0.26428 0.99197 0.59549 0.0
H733 H 0.27453 0.9834 0.65209 0.0
H734 H 0.29084 0.95106 0.61643 0.0
C735 C 0.24511 0.02611 0.5955 0.0
C736 C 0.64549 0.37814 0.91092 0.0
C737 C 0.61224 0.39902 0.91043 0.0
H738 H 0.69016 0.3554 0.93158 0.0
C739 C 0.59712 0.41101 0.9308 0.0
H740 H 0.65775 0.36887 0.8954 0.0
C741 C 0.61596 0.40421 0.95129 0.0
C742 C 0.6498 0.38446 0.95184 0.0
H743 H 0.5718 0.4276 0.93088 0.0
H744 H 0.60465 0.41542 0.96673 0.0
C745 C 0.66386 0.37037 0.93154 0.0
C746 C 0.67283 0.16846 0.19177 0.0
C747 C 0.68572 0.1745 0.17054 0.0
H748 H 0.68415 0.17277 0.22731 0.0
C749 C 0.72139 0.19058 0.1692 0.0
H750 H 0.64578 0.15541 0.1933 0.0
C751 C 0.74356 0.20075 0.18887 0.0
C752 C 0.73066 0.19422 0.21008 0.0
H753 H 0.73201 0.1953 0.15301 0.0
H754 H 0.77091 0.21322 0.18745 0.0
C755 C 0.69505 0.17802 0.21126 0.0
C756 C 0.00255 0.17507 0.43875 0.0
C757 C 0.021 0.20079 0.42634 0.0
H758 H 0.9691 0.16648 0.46631 0.0
C759 C 0.01929 0.23924 0.43286 0.0
H760 H 0.00394 0.14521 0.43449 0.0
C761 C 0.99916 0.25162 0.45135 0.0
C762 C 0.98085 0.22566 0.46373 0.0
H763 H 0.03328 0.2597 0.4236 0.0
H764 H 0.99813 0.28136 0.456 0.0
C765 C 0.98282 0.1873 0.45718 0.0
C766 C 0.89839 0.50327 0.67006 0.0
C767 C 0.93626 0.50339 0.66483 0.0
H768 H 0.85697 0.48093 0.69028 0.0
C769 C 0.96147 0.4799 0.67614 0.0
H770 H 0.87829 0.52101 0.66157 0.0
C771 C 0.94941 0.45731 0.69251 0.0
C772 C 0.91175 0.45742 0.698 0.0
H773 H 0.99093 0.47976 0.67283 0.0
H774 H 0.96987 0.44 0.70105 0.0
C775 C 0.88618 0.48027 0.68642 0.0
C776 C 0.71436 0.16851 0.3695 0.0
C777 C 0.7045 0.13032 0.36955 0.0
H778 H 0.73626 0.21233 0.35093 0.0
C779 C 0.70899 0.10711 0.35 0.0
H780 H 0.71151 0.18717 0.38429 0.0
C781 C 0.72343 0.12139 0.33109 0.0
C782 C 0.73348 0.15941 0.33105 0.0
H783 H 0.70082 0.07782 0.34912 0.0
H784 H 0.72651 0.10253 0.31641 0.0
C785 C 0.72862 0.18293 0.35041 0.0
C786 C 0.97624 0.23267 0.62441 0.0
C787 C 0.00631 0.2085 0.62024 0.0
H788 H 0.93218 0.2661 0.61023 0.0
C789 C 0.01601 0.201 0.59796 0.0
H790 H 0.96801 0.23882 0.6414 0.0
C791 C 0.99551 0.21632 0.58018 0.0
C792 C 0.96479 0.2397 0.5842 0.0
H793 H 0.03951 0.18308 0.59423 0.0
H794 H 0.00363 0.20953 0.56324 0.0
C795 C 0.95563 0.2481 0.60655 0.0
C796 C 0.89699 0.45505 0.8569 0.0
C797 C 0.9283 0.4786 0.85599 0.0
H798 H 0.85857 0.41633 0.83876 0.0
C799 C 0.94447 0.48174 0.83532 0.0
H800 H 0.88408 0.45204 0.87263 0.0
C801 C 0.92995 0.46148 0.81598 0.0
C802 C 0.89899 0.43743 0.81687 0.0
H803 H 0.9683 0.50013 0.83406 0.0
H804 H 0.94319 0.46456 0.80036 0.0
C805 C 0.88257 0.43449 0.83753 0.0
C806 C 0.62661 0.40435 0.09442 0.0
C807 C 0.64484 0.40253 0.11588 0.0
H808 H 0.63092 0.39876 0.05887 0.0
C809 C 0.68291 0.39257 0.11752 0.0
H810 H 0.59752 0.41267 0.09252 0.0
C811 C 0.70228 0.38474 0.09809 0.0
C812 C 0.68403 0.38706 0.07664 0.0
H813 H 0.6977 0.39085 0.13382 0.0
H814 H 0.73159 0.37719 0.09988 0.0
C815 C 0.64593 0.39676 0.07508 0.0
loop_
_geom_bond_atom_site_label_1
_geom_bond_atom_site_label_2
_geom_bond_distance
_geom_bond_site_symmetry_2
_ccdc_geom_bond_type
H0 C19 0.949 . S
H1 C20 0.950 . S
H2 C22 0.950 . S
H3 C23 0.950 1_655 S
H4 C25 0.950 . S
H5 C28 0.950 . S
H6 C29 0.950 . S
H7 C31 0.951 . S
H8 C32 0.949 . S
H9 C34 0.949 . S
H10 C35 0.950 . S
H11 C37 0.950 . S
H12 C38 0.950 1_545 S
H13 C40 0.950 . S
H14 C43 0.950 . S
H15 C44 0.950 . S
H16 C46 0.951 . S
H17 C47 0.949 . S
C18 C19 1.376 . S
C18 C23 1.386 . S
C18 C24 1.483 . S
C19 H0 0.949 . S
C19 C18 1.376 . S
C19 C20 1.397 . S
C20 H1 0.950 . S
C20 C19 1.397 . S
C20 C21 1.391 1_455 S
C21 C20 1.391 1_655 S
C21 C22 1.405 . S
C22 H2 0.950 . S
C22 C21 1.405 . S
C22 C23 1.367 1_655 S
C23 H3 0.950 1_455 S
C23 C18 1.386 . S
C23 C22 1.367 1_455 S
C24 C18 1.483 . S
C24 C25 1.382 . S
C24 C26 1.403 . S
C25 H4 0.950 . S
C25 C24 1.382 . S
C25 C41 1.411 . S
C26 C24 1.403 . S
C26 C27 1.489 . S
C26 C40 1.411 . S
C27 C26 1.489 . S
C27 C28 1.383 . S
C27 C32 1.382 . S
C28 H5 0.950 . S
C28 C27 1.383 . S
C28 C29 1.395 . S
C29 H6 0.950 . S
C29 C28 1.395 . S
C29 C30 1.288 1_455 S
C30 C29 1.288 1_655 S
C30 C31 1.392 . S
C31 H7 0.951 . S
C31 C30 1.392 . S
C31 C32 1.392 1_655 S
C32 H8 0.949 . S
C32 C27 1.382 . S
C32 C31 1.392 1_455 S
C33 C34 1.376 . S
C33 C38 1.386 . S
C33 C39 1.483 1_565 S
C34 H9 0.949 . S
C34 C33 1.376 . S
C34 C35 1.397 . S
C35 H10 0.950 . S
C35 C34 1.397 . S
C35 C36 1.391 . S
C36 C35 1.391 . S
C36 C37 1.405 . S
C37 H11 0.950 . S
C37 C36 1.405 . S
C37 C38 1.367 . S
C38 H12 0.950 1_565 S
C38 C33 1.386 . S
C38 C37 1.367 . S
C39 C33 1.483 1_545 S
C39 C40 1.382 . S
C39 C41 1.403 . S
C40 H13 0.950 . S
C40 C26 1.411 . S
C40 C39 1.382 . S
C41 C25 1.411 . S
C41 C39 1.403 . S
C41 C42 1.489 1_545 S
C42 C41 1.489 1_565 S
C42 C43 1.383 . S
C42 C47 1.382 1_565 S
C43 H14 0.950 . S
C43 C42 1.383 . S
C43 C44 1.395 . S
C44 H15 0.950 . S
C44 C43 1.395 . S
C44 C45 1.288 . S
C45 C44 1.288 . S
C45 C46 1.392 1_565 S
C46 H16 0.951 . S
C46 C45 1.392 1_545 S
C46 C47 1.392 . S
C47 H17 0.949 . S
C47 C42 1.382 1_545 S
C47 C46 1.392 . S
H48 C67 0.949 . S
H49 C68 0.950 . S
H50 C70 0.950 . S
H51 C71 0.950 . S
H52 C73 0.950 . S
H53 C76 0.950 1_455 S
H54 C77 0.950 . S
H55 C79 0.951 . S
H56 C80 0.949 . S
H57 C82 0.949 . S
H58 C83 0.950 . S
H59 C85 0.950 . S
H60 C86 0.950 . S
H61 C88 0.950 . S
H62 C91 0.950 . S
H63 C92 0.950 . S
H64 C94 0.951 . S
H65 C95 0.949 . S
C66 C67 1.376 . S
C66 C71 1.386 1_455 S
C66 C72 1.483 . S
C67 H48 0.949 . S
C67 C66 1.376 . S
C67 C68 1.397 . S
C68 H49 0.950 . S
C68 C67 1.397 . S
C68 C69 1.391 1_455 S
C69 C68 1.391 1_655 S
C69 C70 1.405 . S
C70 H50 0.950 . S
C70 C69 1.405 . S
C70 C71 1.367 . S
C71 H51 0.950 . S
C71 C66 1.386 1_655 S
C71 C70 1.367 . S
C72 C66 1.483 . S
C72 C73 1.382 . S
C72 C74 1.403 . S
C73 H52 0.950 . S
C73 C72 1.382 . S
C73 C89 1.411 . S
C74 C72 1.403 . S
C74 C75 1.489 1_455 S
C74 C88 1.411 . S
C75 C74 1.489 1_655 S
C75 C76 1.383 . S
C75 C80 1.382 . S
C76 H53 0.950 1_655 S
C76 C75 1.383 . S
C76 C77 1.395 . S
C77 H54 0.950 . S
C77 C76 1.395 . S
C77 C78 1.288 . S
C78 C77 1.288 . S
C78 C79 1.392 . S
C79 H55 0.951 . S
C79 C78 1.392 . S
C79 C80 1.392 . S
C80 H56 0.949 . S
C80 C75 1.382 . S
C80 C79 1.392 . S
C81 C82 1.376 . S
C81 C86 1.386 . S
C81 C87 1.483 . S
C82 H57 0.949 . S
C82 C81 1.376 . S
C82 C83 1.397 . S
C83 H58 0.950 . S
C83 C82 1.397 . S
C83 C84 1.391 . S
C84 C83 1.391 . S
C84 C85 1.405 . S
C85 H59 0.950 . S
C85 C84 1.405 . S
C85 C86 1.367 . S
C86 H60 0.950 . S
C86 C81 1.386 . S
C86 C85 1.367 . S
C87 C81 1.483 . S
C87 C88 1.382 . S
C87 C89 1.403 . S
C88 H61 0.950 . S
C88 C74 1.411 . S
C88 C87 1.382 . S
C89 C73 1.411 . S
C89 C87 1.403 . S
C89 C90 1.489 . S
C90 C89 1.489 . S
C90 C91 1.383 . S
C90 C95 1.382 . S
C91 H62 0.950 . S
C91 C90 1.383 . S
C91 C92 1.395 . S
C92 H63 0.950 . S
C92 C91 1.395 . S
C92 C93 1.288 . S
C93 C92 1.288 . S
C93 C94 1.392 . S
C94 H64 0.951 . S
C94 C93 1.392 . S
C94 C95 1.392 . S
C95 H65 0.949 . S
C95 C90 1.382 . S
C95 C94 1.392 . S
H96 C115 0.949 . S
H97 C116 0.950 . S
H98 C118 0.950 . S
H99 C119 0.950 . S
H100 C121 0.950 . S
H101 C124 0.950 . S
H102 C125 0.950 . S
H103 C127 0.951 . S
H104 C128 0.949 . S
H105 C130 0.949 . S
H106 C131 0.950 . S
H107 C133 0.950 . S
H108 C134 0.950 . S
H109 C136 0.950 . S
H110 C139 0.950 . S
H111 C140 0.950 . S
H112 C142 0.951 . S
H113 C143 0.949 . S
C114 C115 1.376 . S
C114 C119 1.386 . S
C114 C120 1.483 . S
C115 H96 0.949 . S
C115 C114 1.376 . S
C115 C116 1.397 . S
C116 H97 0.950 . S
C116 C115 1.397 . S
C116 C117 1.391 . S
C117 C116 1.391 . S
C117 C118 1.405 . S
C118 H98 0.950 . S
C118 C117 1.405 . S
C118 C119 1.367 . S
C119 H99 0.950 . S
C119 C114 1.386 . S
C119 C118 1.367 . S
C120 C114 1.483 . S
C120 C121 1.382 . S
C120 C122 1.403 . S
C121 H100 0.950 . S
C121 C120 1.382 . S
C121 C137 1.411 . S
C122 C120 1.403 . S
C122 C123 1.489 . S
C122 C136 1.411 . S
C123 C122 1.489 . S
C123 C124 1.383 . S
C123 C128 1.382 . S
C124 H101 0.950 . S
C124 C123 1.383 . S
C124 C125 1.395 . S
C125 H102 0.950 . S
C125 C124 1.395 . S
C125 C126 1.288 . S
C126 C125 1.288 . S
C126 C127 1.392 . S
C127 H103 0.951 . S
C127 C126 1.392 . S
C127 C128 1.392 . S
C128 H104 0.949 . S
C128 C123 1.382 . S
C128 C127 1.392 . S
C129 C130 1.376 . S
C129 C134 1.386 . S
C129 C135 1.483 . S
C130 H105 0.949 . S
C130 C129 1.376 . S
C130 C131 1.397 . S
C131 H106 0.950 . S
C131 C130 1.397 . S
C131 C132 1.391 . S
C132 C131 1.391 . S
C132 C133 1.405 . S
C133 H107 0.950 . S
C133 C132 1.405 . S
C133 C134 1.367 . S
C134 H108 0.950 . S
C134 C129 1.386 . S
C134 C133 1.367 . S
C135 C129 1.483 . S
C135 C136 1.382 . S
C135 C137 1.403 . S
C136 H109 0.950 . S
C136 C122 1.411 . S
C136 C135 1.382 . S
C137 C121 1.411 . S
C137 C135 1.403 . S
C137 C138 1.489 . S
C138 C137 1.489 . S
C138 C139 1.383 . S
C138 C143 1.382 . S
C139 H110 0.950 . S
C139 C138 1.383 . S
C139 C140 1.395 . S
C140 H111 0.950 . S
C140 C139 1.395 . S
C140 C141 1.288 . S
C141 C140 1.288 . S
C141 C142 1.392 . S
C142 H112 0.951 . S
C142 C141 1.392 . S
C142 C143 1.392 . S
C143 H113 0.949 . S
C143 C138 1.382 . S
C143 C142 1.392 . S
H144 C163 0.949 . S
H145 C164 0.950 . S
H146 C166 0.950 . S
H147 C167 0.950 . S
H148 C169 0.950 . S
H149 C172 0.950 . S
H150 C173 0.950 . S
H151 C175 0.951 . S
H152 C176 0.949 . S
H153 C178 0.949 . S
H154 C179 0.950 . S
H155 C181 0.950 . S
H156 C182 0.950 . S
H157 C184 0.950 . S
H158 C187 0.950 . S
H159 C188 0.950 . S
H160 C190 0.951 . S
H161 C191 0.949 . S
C162 C163 1.376 . S
C162 C167 1.386 . S
C162 C168 1.483 . S
C163 H144 0.949 . S
C163 C162 1.376 . S
C163 C164 1.397 . S
C164 H145 0.950 . S
C164 C163 1.397 . S
C164 C165 1.391 . S
C165 C164 1.391 . S
C165 C166 1.405 . S
C166 H146 0.950 . S
C166 C165 1.405 . S
C166 C167 1.367 . S
C167 H147 0.950 . S
C167 C162 1.386 . S
C167 C166 1.367 . S
C168 C162 1.483 . S
C168 C169 1.382 . S
C168 C170 1.403 . S
C169 H148 0.950 . S
C169 C168 1.382 . S
C169 C185 1.411 1_565 S
C170 C168 1.403 . S
C170 C171 1.489 . S
C170 C184 1.411 1_565 S
C171 C170 1.489 . S
C171 C172 1.383 . S
C171 C176 1.382 . S
C172 H149 0.950 . S
C172 C171 1.383 . S
C172 C173 1.395 . S
C173 H150 0.950 . S
C173 C172 1.395 . S
C173 C174 1.288 . S
C174 C173 1.288 . S
C174 C175 1.392 . S
C175 H151 0.951 . S
C175 C174 1.392 . S
C175 C176 1.392 . S
C176 H152 0.949 . S
C176 C171 1.382 . S
C176 C175 1.392 . S
C177 C178 1.376 . S
C177 C182 1.386 . S
C177 C183 1.483 . S
C178 H153 0.949 . S
C178 C177 1.376 . S
C178 C179 1.397 . S
C179 H154 0.950 . S
C179 C178 1.397 . S
C179 C180 1.391 . S
C180 C179 1.391 . S
C180 C181 1.405 . S
C181 H155 0.950 . S
C181 C180 1.405 . S
C181 C182 1.367 . S
C182 H156 0.950 . S
C182 C177 1.386 . S
C182 C181 1.367 . S
C183 C177 1.483 . S
C183 C184 1.382 . S
C183 C185 1.403 . S
C184 H157 0.950 . S
C184 C170 1.411 1_545 S
C184 C183 1.382 . S
C185 C169 1.411 1_545 S
C185 C183 1.403 . S
C185 C186 1.489 . S
C186 C185 1.489 . S
C186 C187 1.383 . S
C186 C191 1.382 . S
C187 H158 0.950 . S
C187 C186 1.383 . S
C187 C188 1.395 . S
C188 H159 0.950 . S
C188 C187 1.395 . S
C188 C189 1.288 . S
C189 C188 1.288 . S
C189 C190 1.392 . S
C190 H160 0.951 . S
C190 C189 1.392 . S
C190 C191 1.392 . S
C191 H161 0.949 . S
C191 C186 1.382 . S
C191 C190 1.392 . S
H192 C211 0.949 . S
H193 C212 0.950 . S
H194 C214 0.950 . S
H195 C215 0.950 . S
H196 C217 0.950 . S
H197 C220 0.950 . S
H198 C221 0.952 1_554 S
H199 C223 0.951 . S
H200 C224 0.949 . S
H201 C226 0.949 . S
H202 C227 0.950 . S
H203 C229 0.950 . S
H204 C230 0.950 . S
H205 C232 0.950 . S
H206 C235 0.950 . S
H207 C236 0.950 . S
H208 C238 0.951 . S
H209 C239 0.949 . S
C210 C211 1.376 . S
C210 C215 1.386 . S
C210 C216 1.483 . S
C211 H192 0.949 . S
C211 C210 1.376 . S
C211 C212 1.397 . S
C212 H193 0.950 . S
C212 C211 1.397 . S
C212 C213 1.391 . S
C213 C212 1.391 . S
C213 C214 1.405 . S
C214 H194 0.950 . S
C214 C213 1.405 . S
C214 C215 1.367 . S
C215 H195 0.950 . S
C215 C210 1.386 . S
C215 C214 1.367 . S
C216 C210 1.483 . S
C216 C217 1.382 1_455 S
C216 C218 1.403 . S
C217 H196 0.950 . S
C217 C216 1.382 1_655 S
C217 C233 1.411 . S
C218 C216 1.403 . S
C218 C219 1.489 . S
C218 C232 1.411 . S
C219 C218 1.489 . S
C219 C220 1.383 . S
C219 C224 1.382 . S
C220 H197 0.950 . S
C220 C219 1.383 . S
C220 C221 1.426 . S
C221 H198 0.952 1_556 S
C221 C220 1.426 . S
C221 C222 1.260 1_556 S
C222 C221 1.260 1_554 S
C222 C223 1.392 . S
C223 H199 0.951 . S
C223 C222 1.392 . S
C223 C224 1.392 1_554 S
C224 H200 0.949 . S
C224 C219 1.382 . S
C224 C223 1.392 1_556 S
C225 C226 1.376 . S
C225 C230 1.386 . S
C225 C231 1.483 . S
C226 H201 0.949 . S
C226 C225 1.376 . S
C226 C227 1.397 . S
C227 H202 0.950 . S
C227 C226 1.397 . S
C227 C228 1.391 . S
C228 C227 1.391 . S
C228 C229 1.405 . S
C229 H203 0.950 . S
C229 C228 1.405 . S
C229 C230 1.367 . S
C230 H204 0.950 . S
C230 C225 1.386 . S
C230 C229 1.367 . S
C231 C225 1.483 . S
C231 C232 1.382 1_655 S
C231 C233 1.403 . S
C232 H205 0.950 . S
C232 C218 1.411 . S
C232 C231 1.382 1_455 S
C233 C217 1.411 . S
C233 C231 1.403 . S
C233 C234 1.489 . S
C234 C233 1.489 . S
C234 C235 1.383 . S
C234 C239 1.382 . S
C235 H206 0.950 . S
C235 C234 1.383 . S
C235 C236 1.395 . S
C236 H207 0.950 . S
C236 C235 1.395 . S
C236 C237 1.288 . S
C237 C236 1.288 . S
C237 C238 1.392 . S
C238 H208 0.951 . S
C238 C237 1.392 . S
C238 C239 1.392 . S
C239 H209 0.949 . S
C239 C234 1.382 . S
C239 C238 1.392 . S
H240 C259 0.949 . S
H241 C260 0.950 . S
H242 C262 0.950 . S
H243 C263 0.950 . S
H244 C265 0.950 . S
H245 C268 0.950 . S
H246 C269 0.950 . S
H247 C271 0.951 . S
H248 C272 0.949 . S
H249 C274 0.949 . S
H250 C275 0.950 . S
H251 C277 0.950 . S
H252 C278 0.950 . S
H253 C280 0.950 . S
H254 C283 0.950 . S
H255 C284 0.950 . S
H256 C286 0.951 . S
H257 C287 0.949 . S
C258 C259 1.376 . S
C258 C263 1.386 . S
C258 C264 1.483 . S
C259 H240 0.949 . S
C259 C258 1.376 . S
C259 C260 1.397 . S
C260 H241 0.950 . S
C260 C259 1.397 . S
C260 C261 1.391 . S
C261 C260 1.391 . S
C261 C262 1.405 . S
C262 H242 0.950 . S
C262 C261 1.405 . S
C262 C263 1.367 . S
C263 H243 0.950 . S
C263 C258 1.386 . S
C263 C262 1.367 . S
C264 C258 1.483 . S
C264 C265 1.382 . S
C264 C266 1.403 . S
C265 H244 0.950 . S
C265 C264 1.382 . S
C265 C281 1.411 . S
C266 C264 1.403 . S
C266 C267 1.489 . S
C266 C280 1.411 . S
C267 C266 1.489 . S
C267 C268 1.383 . S
C267 C272 1.382 . S
C268 H245 0.950 . S
C268 C267 1.383 . S
C268 C269 1.395 . S
C269 H246 0.950 . S
C269 C268 1.395 . S
C269 C270 1.288 . S
C270 C269 1.288 . S
C270 C271 1.392 . S
C271 H247 0.951 . S
C271 C270 1.392 . S
C271 C272 1.392 . S
C272 H248 0.949 . S
C272 C267 1.382 . S
C272 C271 1.392 . S
C273 C274 1.376 . S
C273 C278 1.386 . S
C273 C279 1.483 . S
C274 H249 0.949 . S
C274 C273 1.376 . S
C274 C275 1.397 . S
C275 H250 0.950 . S
C275 C274 1.397 . S
C275 C276 1.391 . S
C276 C275 1.391 . S
C276 C277 1.405 . S
C277 H251 0.950 . S
C277 C276 1.405 . S
C277 C278 1.367 . S
C278 H252 0.950 . S
C278 C273 1.386 . S
C278 C277 1.367 . S
C279 C273 1.483 . S
C279 C280 1.382 . S
C279 C281 1.403 . S
C280 H253 0.950 . S
C280 C266 1.411 . S
C280 C279 1.382 . S
C281 C265 1.411 . S
C281 C279 1.403 . S
C281 C282 1.489 . S
C282 C281 1.489 . S
C282 C283 1.383 . S
C282 C287 1.382 . S
C283 H254 0.950 . S
C283 C282 1.383 . S
C283 C284 1.395 . S
C284 H255 0.950 . S
C284 C283 1.395 . S
C284 C285 1.288 . S
C285 C284 1.288 . S
C285 C286 1.392 . S
C286 H256 0.951 . S
C286 C285 1.392 . S
C286 C287 1.392 . S
C287 H257 0.949 . S
C287 C282 1.382 . S
C287 C286 1.392 . S
H288 C307 0.949 . S
H289 C308 0.950 . S
H290 C310 0.950 . S
H291 C311 0.950 . S
H292 C313 0.950 . S
H293 C316 0.950 . S
H294 C317 0.950 . S
H295 C319 0.952 . S
H296 C320 0.949 . S
H297 C322 0.949 . S
H298 C323 0.950 . S
H299 C325 0.950 . S
H300 C326 0.950 . S
H301 C328 0.950 . S
H302 C331 0.950 . S
H303 C332 0.950 . S
H304 C334 0.951 . S
H305 C335 0.949 . S
C306 C307 1.376 . S
C306 C311 1.386 . S
C306 C312 1.483 . S
C307 H288 0.949 . S
C307 C306 1.376 . S
C307 C308 1.397 . S
C308 H289 0.950 . S
C308 C307 1.397 . S
C308 C309 1.391 . S
C309 C308 1.391 . S
C309 C310 1.405 . S
C310 H290 0.950 . S
C310 C309 1.405 . S
C310 C311 1.367 . S
C311 H291 0.950 . S
C311 C306 1.386 . S
C311 C310 1.367 . S
C312 C306 1.483 . S
C312 C313 1.382 1_565 S
C312 C314 1.403 1_565 S
C313 H292 0.950 . S
C313 C312 1.382 1_545 S
C313 C329 1.411 . S
C314 C312 1.403 1_545 S
C314 C315 1.489 1_545 S
C314 C328 1.411 . S
C315 C314 1.489 1_565 S
C315 C316 1.383 . S
C315 C320 1.382 1_565 S
C316 H293 0.950 . S
C316 C315 1.383 . S
C316 C317 1.395 . S
C317 H294 0.950 . S
C317 C316 1.395 . S
C317 C318 1.288 . S
C318 C317 1.288 . S
C318 C319 1.390 1_565 S
C319 H295 0.952 . S
C319 C318 1.390 1_545 S
C319 C320 1.393 . S
C320 H296 0.949 . S
C320 C315 1.382 1_545 S
C320 C319 1.393 . S
C321 C322 1.376 . S
C321 C326 1.386 . S
C321 C327 1.483 . S
C322 H297 0.949 . S
C322 C321 1.376 . S
C322 C323 1.397 . S
C323 H298 0.950 . S
C323 C322 1.397 . S
C323 C324 1.391 . S
C324 C323 1.391 . S
C324 C325 1.405 . S
C325 H299 0.950 . S
C325 C324 1.405 . S
C325 C326 1.367 . S
C326 H300 0.950 . S
C326 C321 1.386 . S
C326 C325 1.367 . S
C327 C321 1.483 . S
C327 C328 1.382 . S
C327 C329 1.403 . S
C328 H301 0.950 . S
C328 C314 1.411 . S
C328 C327 1.382 . S
C329 C313 1.411 . S
C329 C327 1.403 . S
C329 C330 1.489 . S
C330 C329 1.489 . S
C330 C331 1.383 . S
C330 C335 1.382 . S
C331 H302 0.950 . S
C331 C330 1.383 . S
C331 C332 1.395 . S
C332 H303 0.950 . S
C332 C331 1.395 . S
C332 C333 1.288 . S
C333 C332 1.288 . S
C333 C334 1.392 . S
C334 H304 0.951 . S
C334 C333 1.392 . S
C334 C335 1.392 . S
C335 H305 0.949 . S
C335 C330 1.382 . S
C335 C334 1.392 . S
H336 C355 0.949 . S
H337 C356 0.950 . S
H338 C358 0.950 . S
H339 C359 0.950 . S
H340 C361 0.950 . S
H341 C364 0.950 . S
H342 C365 0.950 . S
H343 C367 0.951 1_655 S
H344 C368 0.949 . S
H345 C370 0.949 . S
H346 C371 0.950 . S
H347 C373 0.950 . S
H348 C374 0.950 . S
H349 C376 0.950 . S
H350 C379 0.950 . S
H351 C380 0.950 . S
H352 C382 0.951 . S
H353 C383 0.949 . S
C354 C355 1.376 . S
C354 C359 1.386 1_455 S
C354 C360 1.483 . S
C355 H336 0.949 . S
C355 C354 1.376 . S
C355 C356 1.397 . S
C356 H337 0.950 . S
C356 C355 1.397 . S
C356 C357 1.391 1_455 S
C357 C356 1.391 1_655 S
C357 C358 1.405 . S
C358 H338 0.950 . S
C358 C357 1.405 . S
C358 C359 1.367 . S
C359 H339 0.950 . S
C359 C354 1.386 1_655 S
C359 C358 1.367 . S
C360 C354 1.483 . S
C360 C361 1.382 . S
C360 C362 1.403 . S
C361 H340 0.950 . S
C361 C360 1.382 . S
C361 C377 1.411 . S
C362 C360 1.403 . S
C362 C363 1.489 . S
C362 C376 1.411 . S
C363 C362 1.489 . S
C363 C364 1.383 . S
C363 C368 1.382 . S
C364 H341 0.950 . S
C364 C363 1.383 . S
C364 C365 1.395 . S
C365 H342 0.950 . S
C365 C364 1.395 . S
C365 C366 1.288 . S
C366 C365 1.288 . S
C366 C367 1.392 . S
C367 H343 0.951 1_455 S
C367 C366 1.392 . S
C367 C368 1.392 . S
C368 H344 0.949 . S
C368 C363 1.382 . S
C368 C367 1.392 . S
C369 C370 1.376 . S
C369 C374 1.386 . S
C369 C375 1.483 . S
C370 H345 0.949 . S
C370 C369 1.376 . S
C370 C371 1.397 . S
C371 H346 0.950 . S
C371 C370 1.397 . S
C371 C372 1.391 . S
C372 C371 1.391 . S
C372 C373 1.405 . S
C373 H347 0.950 . S
C373 C372 1.405 . S
C373 C374 1.367 . S
C374 H348 0.950 . S
C374 C369 1.386 . S
C374 C373 1.367 . S
C375 C369 1.483 . S
C375 C376 1.382 . S
C375 C377 1.403 . S
C376 H349 0.950 . S
C376 C362 1.411 . S
C376 C375 1.382 . S
C377 C361 1.411 . S
C377 C375 1.403 . S
C377 C378 1.489 . S
C378 C377 1.489 . S
C378 C379 1.383 . S
C378 C383 1.382 . S
C379 H350 0.950 . S
C379 C378 1.383 . S
C379 C380 1.395 . S
C380 H351 0.950 . S
C380 C379 1.395 . S
C380 C381 1.288 . S
C381 C380 1.288 . S
C381 C382 1.392 . S
C382 H352 0.951 . S
C382 C381 1.392 . S
C382 C383 1.392 . S
C383 H353 0.949 . S
C383 C378 1.382 . S
C383 C382 1.392 . S
O384 Cd385 2.223 1_556 S
O384 C392 1.315 . S
Cd385 O384 2.223 1_554 S
Cd385 O388 2.297 . S
Cd385 O389 2.439 . S
Cd385 O395 2.240 . S
Cd386 O387 2.240 . S
Cd386 O394 2.223 . S
Cd386 O396 2.297 . S
Cd386 O397 2.439 . S
O387 Cd386 2.240 . S
O387 C392 1.279 1_554 S
O388 Cd385 2.297 . S
O388 C390 1.247 . S
O389 Cd385 2.439 . S
O389 C390 1.208 . S
C390 O388 1.247 . S
C390 O389 1.208 . S
C391 O396 1.247 . S
C391 O397 1.208 . S
C392 O384 1.315 . S
C392 O387 1.279 1_556 S
C393 O394 1.315 . S
C393 O395 1.279 . S
O394 Cd386 2.223 . S
O394 C393 1.315 . S
O395 Cd385 2.240 . S
O395 C393 1.279 . S
O396 Cd386 2.297 . S
O396 C391 1.247 . S
O397 Cd386 2.439 . S
O397 C391 1.208 . S
O398 Cd399 2.223 . S
O398 C406 1.315 . S
Cd399 O398 2.223 . S
Cd399 O402 2.297 . S
Cd399 O403 2.439 . S
Cd399 O409 2.240 . S
Cd400 O401 2.240 . S
Cd400 O408 2.223 . S
Cd400 O410 2.297 . S
Cd400 O411 2.439 . S
O401 Cd400 2.240 . S
O401 C406 1.279 . S
O402 Cd399 2.297 . S
O402 C404 1.247 . S
O403 Cd399 2.439 . S
O403 C404 1.208 . S
C404 O402 1.247 . S
C404 O403 1.208 . S
C405 O410 1.247 . S
C405 O411 1.208 . S
C406 O398 1.315 . S
C406 O401 1.279 . S
C407 O408 1.315 . S
C407 O409 1.279 . S
O408 Cd400 2.223 . S
O408 C407 1.315 . S
O409 Cd399 2.240 . S
O409 C407 1.279 . S
O410 Cd400 2.297 . S
O410 C405 1.247 . S
O411 Cd400 2.439 . S
O411 C405 1.208 . S
O412 Cd413 2.223 . S
O412 C420 1.315 . S
Cd413 O412 2.223 . S
Cd413 O416 2.297 . S
Cd413 O417 2.439 . S
Cd413 O423 2.240 . S
Cd414 O415 2.240 . S
Cd414 O422 2.223 . S
Cd414 O424 2.297 . S
Cd414 O425 2.439 . S
O415 Cd414 2.240 . S
O415 C420 1.279 . S
O416 Cd413 2.297 . S
O416 C418 1.247 . S
O417 Cd413 2.439 . S
O417 C418 1.208 . S
C418 O416 1.247 . S
C418 O417 1.208 . S
C419 O424 1.247 . S
C419 O425 1.208 . S
C420 O412 1.315 . S
C420 O415 1.279 . S
C421 O422 1.315 . S
C421 O423 1.279 . S
O422 Cd414 2.223 . S
O422 C421 1.315 . S
O423 Cd413 2.240 . S
O423 C421 1.279 . S
O424 Cd414 2.297 . S
O424 C419 1.247 . S
O425 Cd414 2.439 . S
O425 C419 1.208 . S
O426 Cd427 2.223 . S
O426 C434 1.315 . S
Cd427 O426 2.223 . S
Cd427 O430 2.297 . S
Cd427 O431 2.439 . S
Cd427 O437 2.240 . S
Cd428 O429 2.240 . S
Cd428 O436 2.223 . S
Cd428 O438 2.297 . S
Cd428 O439 2.439 . S
O429 Cd428 2.240 . S
O429 C434 1.279 . S
O430 Cd427 2.297 . S
O430 C432 1.247 . S
O431 Cd427 2.439 . S
O431 C432 1.208 . S
C432 O430 1.247 . S
C432 O431 1.208 . S
C433 O438 1.247 . S
C433 O439 1.208 . S
C434 O426 1.315 . S
C434 O429 1.279 . S
C435 O436 1.315 . S
C435 O437 1.279 . S
O436 Cd428 2.223 . S
O436 C435 1.315 . S
O437 Cd427 2.240 . S
O437 C435 1.279 . S
O438 Cd428 2.297 . S
O438 C433 1.247 . S
O439 Cd428 2.439 . S
O439 C433 1.208 . S
O440 Cd441 2.223 . S
O440 C448 1.315 . S
Cd441 O440 2.223 . S
Cd441 O444 2.297 . S
Cd441 O445 2.439 . S
Cd441 O451 2.240 . S
Cd442 O443 2.240 . S
Cd442 O450 2.223 . S
Cd442 O452 2.297 . S
Cd442 O453 2.439 . S
O443 Cd442 2.240 . S
O443 C448 1.279 . S
O444 Cd441 2.297 . S
O444 C446 1.247 . S
O445 Cd441 2.439 . S
O445 C446 1.208 . S
C446 O444 1.247 . S
C446 O445 1.208 . S
C447 O452 1.247 . S
C447 O453 1.208 . S
C448 O440 1.315 . S
C448 O443 1.279 . S
C449 O450 1.315 . S
C449 O451 1.279 . S
O450 Cd442 2.223 . S
O450 C449 1.315 . S
O451 Cd441 2.240 . S
O451 C449 1.279 . S
O452 Cd442 2.297 . S
O452 C447 1.247 . S
O453 Cd442 2.439 . S
O453 C447 1.208 . S
O454 Cd455 2.223 . S
O454 C462 1.315 . S
Cd455 O454 2.223 . S
Cd455 O458 2.297 . S
Cd455 O459 2.439 . S
Cd455 O465 2.240 . S
Cd456 O457 2.240 . S
Cd456 O464 2.223 . S
Cd456 O466 2.297 . S
Cd456 O467 2.439 . S
O457 Cd456 2.240 . S
O457 C462 1.279 . S
O458 Cd455 2.297 . S
O458 C460 1.247 . S
O459 Cd455 2.439 . S
O459 C460 1.208 . S
C460 O458 1.247 . S
C460 O459 1.208 . S
C461 O466 1.247 . S
C461 O467 1.208 . S
C462 O454 1.315 . S
C462 O457 1.279 . S
C463 O464 1.315 . S
C463 O465 1.279 . S
O464 Cd456 2.223 . S
O464 C463 1.315 . S
O465 Cd455 2.240 . S
O465 C463 1.279 . S
O466 Cd456 2.297 . S
O466 C461 1.247 . S
O467 Cd456 2.439 . S
O467 C461 1.208 . S
O468 Cd469 2.223 . S
O468 C476 1.315 . S
Cd469 O468 2.223 . S
Cd469 O472 2.297 . S
Cd469 O473 2.439 . S
Cd469 O479 2.240 1_554 S
Cd470 O471 2.240 1_556 S
Cd470 O478 2.223 . S
Cd470 O480 2.297 . S
Cd470 O481 2.439 . S
O471 Cd470 2.240 1_554 S
O471 C476 1.279 . S
O472 Cd469 2.297 . S
O472 C474 1.247 . S
O473 Cd469 2.439 . S
O473 C474 1.208 . S
C474 O472 1.247 . S
C474 O473 1.208 . S
C475 O480 1.247 . S
C475 O481 1.208 . S
C476 O468 1.315 . S
C476 O471 1.279 . S
C477 O478 1.315 . S
C477 O479 1.279 . S
O478 Cd470 2.223 . S
O478 C477 1.315 . S
O479 Cd469 2.240 1_556 S
O479 C477 1.279 . S
O480 Cd470 2.297 . S
O480 C475 1.247 . S
O481 Cd470 2.439 . S
O481 C475 1.208 . S
O482 Cd483 2.223 . S
O482 C490 1.315 . S
Cd483 O482 2.223 . S
Cd483 O486 2.297 . S
Cd483 O487 2.439 . S
Cd483 O493 2.240 . S
Cd484 O485 2.240 . S
Cd484 O492 2.223 . S
Cd484 O494 2.297 . S
Cd484 O495 2.439 . S
O485 Cd484 2.240 . S
O485 C490 1.279 . S
O486 Cd483 2.297 . S
O486 C488 1.247 . S
O487 Cd483 2.439 . S
O487 C488 1.208 . S
C488 O486 1.247 . S
C488 O487 1.208 . S
C489 O494 1.247 . S
C489 O495 1.208 . S
C490 O482 1.315 . S
C490 O485 1.279 . S
C491 O492 1.315 . S
C491 O493 1.279 . S
O492 Cd484 2.223 . S
O492 C491 1.315 . S
O493 Cd483 2.240 . S
O493 C491 1.279 . S
O494 Cd484 2.297 . S
O494 C489 1.247 . S
O495 Cd484 2.439 . S
O495 C489 1.208 . S
C496 C497 1.387 . S
C496 H500 0.950 . S
C496 C505 1.390 . S
C497 C496 1.387 . S
C497 C499 1.387 . S
H498 C505 0.950 . S
C499 C497 1.387 . S
C499 C501 1.390 . S
C499 H503 0.950 . S
H500 C496 0.950 . S
C501 C499 1.390 . S
C501 C502 1.387 . S
C501 H504 0.950 . S
C502 C501 1.387 . S
C502 C505 1.387 . S
H503 C499 0.950 . S
H504 C501 0.950 . S
C505 C496 1.390 . S
C505 H498 0.950 . S
C505 C502 1.387 . S
C506 C507 1.387 . S
C506 H510 0.950 . S
C506 C515 1.390 . S
C507 C506 1.387 . S
C507 C509 1.387 . S
H508 C515 0.950 . S
C509 C507 1.387 . S
C509 C511 1.390 . S
C509 H513 0.950 . S
H510 C506 0.950 . S
C511 C509 1.390 . S
C511 C512 1.387 . S
C511 H514 0.950 . S
C512 C511 1.387 . S
C512 C515 1.387 . S
H513 C509 0.950 . S
H514 C511 0.950 . S
C515 C506 1.390 . S
C515 H508 0.950 . S
C515 C512 1.387 . S
C516 C517 1.387 . S
C516 H520 0.950 . S
C516 C525 1.390 . S
C517 C516 1.387 . S
C517 C519 1.387 . S
H518 C525 0.950 . S
C519 C517 1.387 . S
C519 C521 1.390 . S
C519 H523 0.950 . S
H520 C516 0.950 . S
C521 C519 1.390 . S
C521 C522 1.387 . S
C521 H524 0.950 . S
C522 C521 1.387 . S
C522 C525 1.387 . S
H523 C519 0.950 . S
H524 C521 0.950 . S
C525 C516 1.390 . S
C525 H518 0.950 . S
C525 C522 1.387 . S
C526 C527 1.387 . S
C526 H530 0.950 . S
C526 C535 1.390 . S
C527 C526 1.387 . S
C527 C529 1.387 . S
H528 C535 0.950 . S
C529 C527 1.387 . S
C529 C531 1.390 . S
C529 H533 0.950 . S
H530 C526 0.950 . S
C531 C529 1.390 . S
C531 C532 1.387 . S
C531 H534 0.950 . S
C532 C531 1.387 . S
C532 C535 1.387 . S
H533 C529 0.950 . S
H534 C531 0.950 . S
C535 C526 1.390 . S
C535 H528 0.950 . S
C535 C532 1.387 . S
C536 C537 1.387 . S
C536 H540 0.950 . S
C536 C545 1.390 . S
C537 C536 1.387 . S
C537 C539 1.387 . S
H538 C545 0.950 . S
C539 C537 1.387 . S
C539 C541 1.390 . S
C539 H543 0.950 1_554 S
H540 C536 0.950 . S
C541 C539 1.390 . S
C541 C542 1.387 . S
C541 H544 0.950 1_554 S
C542 C541 1.387 . S
C542 C545 1.387 . S
H543 C539 0.950 1_556 S
H544 C541 0.950 1_556 S
C545 C536 1.390 . S
C545 H538 0.950 . S
C545 C542 1.387 . S
C546 C547 1.387 . S
C546 H550 0.950 . S
C546 C555 1.390 . S
C547 C546 1.387 . S
C547 C549 1.387 . S
H548 C555 0.950 . S
C549 C547 1.387 . S
C549 C551 1.390 . S
C549 H553 0.950 . S
H550 C546 0.950 . S
C551 C549 1.390 . S
C551 C552 1.387 . S
C551 H554 0.950 . S
C552 C551 1.387 . S
C552 C555 1.387 . S
H553 C549 0.950 . S
H554 C551 0.950 . S
C555 C546 1.390 . S
C555 H548 0.950 . S
C555 C552 1.387 . S
C556 C557 1.387 . S
C556 H560 0.950 . S
C556 C565 1.390 . S
C557 C556 1.387 . S
C557 C559 1.387 . S
H558 C565 0.950 . S
C559 C557 1.387 . S
C559 C561 1.390 . S
C559 H563 0.950 . S
H560 C556 0.950 . S
C561 C559 1.390 . S
C561 C562 1.387 . S
C561 H564 0.950 . S
C562 C561 1.387 . S
C562 C565 1.387 . S
H563 C559 0.950 . S
H564 C561 0.950 . S
C565 C556 1.390 . S
C565 H558 0.950 . S
C565 C562 1.387 . S
C566 C567 1.387 . S
C566 H570 0.950 . S
C566 C575 1.390 1_545 S
C567 C566 1.387 . S
C567 C569 1.387 1_545 S
H568 C575 0.950 . S
C569 C567 1.387 1_565 S
C569 C571 1.390 . S
C569 H573 0.950 1_565 S
H570 C566 0.950 . S
C571 C569 1.390 . S
C571 C572 1.387 . S
C571 H574 0.950 . S
C572 C571 1.387 . S
C572 C575 1.387 . S
H573 C569 0.950 1_545 S
H574 C571 0.950 . S
C575 C566 1.390 1_565 S
C575 H568 0.950 . S
C575 C572 1.387 . S
C576 C577 1.387 . S
C576 H580 0.950 . S
C576 C585 1.390 . S
C577 C576 1.387 . S
C577 C579 1.387 . S
H578 C585 0.950 . S
C579 C577 1.387 . S
C579 C581 1.390 . S
C579 H583 0.950 . S
H580 C576 0.950 . S
C581 C579 1.390 . S
C581 C582 1.387 . S
C581 H584 0.950 . S
C582 C581 1.387 . S
C582 C585 1.387 . S
H583 C579 0.950 . S
H584 C581 0.950 . S
C585 C576 1.390 . S
C585 H578 0.950 . S
C585 C582 1.387 . S
C586 C587 1.387 . S
C586 H590 0.950 . S
C586 C595 1.390 . S
C587 C586 1.387 . S
C587 C589 1.387 . S
H588 C595 0.950 . S
C589 C587 1.387 . S
C589 C591 1.390 . S
C589 H593 0.950 1_554 S
H590 C586 0.950 . S
C591 C589 1.390 . S
C591 C592 1.387 . S
C591 H594 0.950 1_554 S
C592 C591 1.387 . S
C592 C595 1.387 . S
H593 C589 0.950 1_556 S
H594 C591 0.950 1_556 S
C595 C586 1.390 . S
C595 H588 0.950 . S
C595 C592 1.387 . S
C596 C597 1.387 . S
C596 H600 0.950 . S
C596 C605 1.390 . S
C597 C596 1.387 . S
C597 C599 1.387 . S
H598 C605 0.950 . S
C599 C597 1.387 . S
C599 C601 1.390 . S
C599 H603 0.950 . S
H600 C596 0.950 . S
C601 C599 1.390 . S
C601 C602 1.387 . S
C601 H604 0.950 . S
C602 C601 1.387 . S
C602 C605 1.387 . S
H603 C599 0.950 . S
H604 C601 0.950 . S
C605 C596 1.390 . S
C605 H598 0.950 . S
C605 C602 1.387 . S
C606 C607 1.387 . S
C606 H610 0.950 . S
C606 C615 1.390 . S
C607 C606 1.387 . S
C607 C609 1.387 . S
H608 C615 0.950 . S
C609 C607 1.387 . S
C609 C611 1.390 . S
C609 H613 0.950 . S
H610 C606 0.950 . S
C611 C609 1.390 . S
C611 C612 1.387 . S
C611 H614 0.950 . S
C612 C611 1.387 . S
C612 C615 1.387 . S
H613 C609 0.950 . S
H614 C611 0.950 . S
C615 C606 1.390 . S
C615 H608 0.950 . S
C615 C612 1.387 . S
C616 C617 1.387 . S
C616 H620 0.950 . S
C616 C625 1.390 . S
C617 C616 1.387 . S
C617 C619 1.387 . S
H618 C625 0.950 . S
C619 C617 1.387 . S
C619 C621 1.390 . S
C619 H623 0.950 . S
H620 C616 0.950 . S
C621 C619 1.390 . S
C621 C622 1.387 . S
C621 H624 0.950 . S
C622 C621 1.387 . S
C622 C625 1.387 . S
H623 C619 0.950 . S
H624 C621 0.950 . S
C625 C616 1.390 . S
C625 H618 0.950 . S
C625 C622 1.387 . S
C626 C627 1.387 . S
C626 H630 0.950 . S
C626 C635 1.390 . S
C627 C626 1.387 . S
C627 C629 1.387 . S
H628 C635 0.950 . S
C629 C627 1.387 . S
C629 C631 1.390 . S
C629 H633 0.950 . S
H630 C626 0.950 . S
C631 C629 1.390 . S
C631 C632 1.387 . S
C631 H634 0.950 . S
C632 C631 1.387 . S
C632 C635 1.387 . S
H633 C629 0.950 . S
H634 C631 0.950 . S
C635 C626 1.390 . S
C635 H628 0.950 . S
C635 C632 1.387 . S
C636 C637 1.387 1_554 S
C636 H640 0.950 . S
C636 C645 1.390 . S
C637 C636 1.387 1_556 S
C637 C639 1.387 . S
H638 C645 0.950 . S
C639 C637 1.387 . S
C639 C641 1.390 . S
C639 H643 0.950 . S
H640 C636 0.950 . S
C641 C639 1.390 . S
C641 C642 1.387 . S
C641 H644 0.950 . S
C642 C641 1.387 . S
C642 C645 1.387 1_556 S
H643 C639 0.950 . S
H644 C641 0.950 . S
C645 C636 1.390 . S
C645 H638 0.950 . S
C645 C642 1.387 1_554 S
C646 C647 1.387 . S
C646 H650 0.950 . S
C646 C655 1.390 . S
C647 C646 1.387 . S
C647 C649 1.387 . S
H648 C655 0.950 . S
C649 C647 1.387 . S
C649 C651 1.390 . S
C649 H653 0.950 . S
H650 C646 0.950 . S
C651 C649 1.390 . S
C651 C652 1.387 . S
C651 H654 0.950 . S
C652 C651 1.387 . S
C652 C655 1.387 . S
H653 C649 0.950 . S
H654 C651 0.950 . S
C655 C646 1.390 . S
C655 H648 0.950 . S
C655 C652 1.387 . S
C656 C657 1.387 . S
C656 H660 0.950 . S
C656 C665 1.390 . S
C657 C656 1.387 . S
C657 C659 1.387 . S
H658 C665 0.950 . S
C659 C657 1.387 . S
C659 C661 1.390 . S
C659 H663 0.950 . S
H660 C656 0.950 . S
C661 C659 1.390 . S
C661 C662 1.387 . S
C661 H664 0.950 . S
C662 C661 1.387 . S
C662 C665 1.387 . S
H663 C659 0.950 . S
H664 C661 0.950 . S
C665 C656 1.390 . S
C665 H658 0.950 . S
C665 C662 1.387 . S
C666 C667 1.387 . S
C666 H670 0.950 . S
C666 C675 1.390 . S
C667 C666 1.387 . S
C667 C669 1.387 . S
H668 C675 0.950 . S
C669 C667 1.387 . S
C669 C671 1.390 . S
C669 H673 0.950 . S
H670 C666 0.950 . S
C671 C669 1.390 . S
C671 C672 1.387 . S
C671 H674 0.950 . S
C672 C671 1.387 . S
C672 C675 1.387 . S
H673 C669 0.950 . S
H674 C671 0.950 . S
C675 C666 1.390 . S
C675 H668 0.950 . S
C675 C672 1.387 . S
C676 C677 1.387 . S
C676 H680 0.950 . S
C676 C685 1.390 . S
C677 C676 1.387 . S
C677 C679 1.387 . S
H678 C685 0.950 . S
C679 C677 1.387 . S
C679 C681 1.390 . S
C679 H683 0.950 . S
H680 C676 0.950 . S
C681 C679 1.390 . S
C681 C682 1.387 . S
C681 H684 0.950 . S
C682 C681 1.387 . S
C682 C685 1.387 . S
H683 C679 0.950 . S
H684 C681 0.950 . S
C685 C676 1.390 . S
C685 H678 0.950 . S
C685 C682 1.387 . S
C686 C687 1.387 . S
C686 H690 0.950 . S
C686 C695 1.390 . S
C687 C686 1.387 . S
C687 C689 1.387 . S
H688 C695 0.950 . S
C689 C687 1.387 . S
C689 C691 1.390 . S
C689 H693 0.950 . S
H690 C686 0.950 . S
C691 C689 1.390 . S
C691 C692 1.387 . S
C691 H694 0.950 . S
C692 C691 1.387 . S
C692 C695 1.387 . S
H693 C689 0.950 . S
H694 C691 0.950 . S
C695 C686 1.390 . S
C695 H688 0.950 . S
C695 C692 1.387 . S
C696 C697 1.387 . S
C696 H700 0.950 . S
C696 C705 1.390 . S
C697 C696 1.387 . S
C697 C699 1.387 . S
H698 C705 0.950 . S
C699 C697 1.387 . S
C699 C701 1.390 . S
C699 H703 0.950 . S
H700 C696 0.950 . S
C701 C699 1.390 . S
C701 C702 1.387 . S
C701 H704 0.950 . S
C702 C701 1.387 . S
C702 C705 1.387 . S
H703 C699 0.950 . S
H704 C701 0.950 . S
C705 C696 1.390 . S
C705 H698 0.950 . S
C705 C702 1.387 . S
C706 C707 1.387 . S
C706 H710 0.950 . S
C706 C715 1.390 . S
C707 C706 1.387 . S
C707 C709 1.387 . S
H708 C715 0.950 . S
C709 C707 1.387 . S
C709 C711 1.390 . S
C709 H713 0.950 . S
H710 C706 0.950 . S
C711 C709 1.390 . S
C711 C712 1.387 . S
C711 H714 0.950 . S
C712 C711 1.387 . S
C712 C715 1.387 . S
H713 C709 0.950 . S
H714 C711 0.950 . S
C715 C706 1.390 . S
C715 H708 0.950 . S
C715 C712 1.387 . S
C716 C717 1.387 . S
C716 H720 0.950 . S
C716 C725 1.390 . S
C717 C716 1.387 . S
C717 C719 1.387 . S
H718 C725 0.950 . S
C719 C717 1.387 . S
C719 C721 1.390 . S
C719 H723 0.950 . S
H720 C716 0.950 . S
C721 C719 1.390 . S
C721 C722 1.387 . S
C721 H724 0.950 . S
C722 C721 1.387 . S
C722 C725 1.387 . S
H723 C719 0.950 . S
H724 C721 0.950 . S
C725 C716 1.390 . S
C725 H718 0.950 . S
C725 C722 1.387 . S
C726 C727 1.387 . S
C726 H730 0.950 . S
C726 C735 1.390 . S
C727 C726 1.387 . S
C727 C729 1.387 1_545 S
H728 C735 0.950 . S
C729 C727 1.387 1_565 S
C729 C731 1.390 . S
C729 H733 0.950 . S
H730 C726 0.950 . S
C731 C729 1.390 . S
C731 C732 1.387 . S
C731 H734 0.950 . S
C732 C731 1.387 . S
C732 C735 1.387 1_565 S
H733 C729 0.950 . S
H734 C731 0.950 . S
C735 C726 1.390 . S
C735 H728 0.950 . S
C735 C732 1.387 1_545 S
C736 C737 1.387 . S
C736 H740 0.950 . S
C736 C745 1.390 . S
C737 C736 1.387 . S
C737 C739 1.387 . S
H738 C745 0.950 . S
C739 C737 1.387 . S
C739 C741 1.390 . S
C739 H743 0.950 . S
H740 C736 0.950 . S
C741 C739 1.390 . S
C741 C742 1.387 . S
C741 H744 0.950 . S
C742 C741 1.387 . S
C742 C745 1.387 . S
H743 C739 0.950 . S
H744 C741 0.950 . S
C745 C736 1.390 . S
C745 H738 0.950 . S
C745 C742 1.387 . S
C746 C747 1.387 . S
C746 H750 0.950 . S
C746 C755 1.390 . S
C747 C746 1.387 . S
C747 C749 1.387 . S
H748 C755 0.950 . S
C749 C747 1.387 . S
C749 C751 1.390 . S
C749 H753 0.950 . S
H750 C746 0.950 . S
C751 C749 1.390 . S
C751 C752 1.387 . S
C751 H754 0.950 . S
C752 C751 1.387 . S
C752 C755 1.387 . S
H753 C749 0.950 . S
H754 C751 0.950 . S
C755 C746 1.390 . S
C755 H748 0.950 . S
C755 C752 1.387 . S
C756 C757 1.387 . S
C756 H760 0.950 1_655 S
C756 C765 1.390 . S
C757 C756 1.387 . S
C757 C759 1.387 . S
H758 C765 0.950 . S
C759 C757 1.387 . S
C759 C761 1.390 . S
C759 H763 0.950 . S
H760 C756 0.950 1_455 S
C761 C759 1.390 . S
C761 C762 1.387 . S
C761 H764 0.950 . S
C762 C761 1.387 . S
C762 C765 1.387 . S
H763 C759 0.950 . S
H764 C761 0.950 . S
C765 C756 1.390 . S
C765 H758 0.950 . S
C765 C762 1.387 . S
C766 C767 1.387 . S
C766 H770 0.950 . S
C766 C775 1.390 . S
C767 C766 1.387 . S
C767 C769 1.387 . S
H768 C775 0.950 . S
C769 C767 1.387 . S
C769 C771 1.390 . S
C769 H773 0.950 . S
H770 C766 0.950 . S
C771 C769 1.390 . S
C771 C772 1.387 . S
C771 H774 0.950 . S
C772 C771 1.387 . S
C772 C775 1.387 . S
H773 C769 0.950 . S
H774 C771 0.950 . S
C775 C766 1.390 . S
C775 H768 0.950 . S
C775 C772 1.387 . S
C776 C777 1.387 . S
C776 H780 0.950 . S
C776 C785 1.390 . S
C777 C776 1.387 . S
C777 C779 1.387 . S
H778 C785 0.950 . S
C779 C777 1.387 . S
C779 C781 1.390 . S
C779 H783 0.950 . S
H780 C776 0.950 . S
C781 C779 1.390 . S
C781 C782 1.387 . S
C781 H784 0.950 . S
C782 C781 1.387 . S
C782 C785 1.387 . S
H783 C779 0.950 . S
H784 C781 0.950 . S
C785 C776 1.390 . S
C785 H778 0.950 . S
C785 C782 1.387 . S
C786 C787 1.387 . S
C786 H790 0.950 . S
C786 C795 1.390 . S
C787 C786 1.387 . S
C787 C789 1.387 . S
H788 C795 0.950 . S
C789 C787 1.387 . S
C789 C791 1.390 . S
C789 H793 0.950 . S
H790 C786 0.950 . S
C791 C789 1.390 . S
C791 C792 1.387 . S
C791 H794 0.950 . S
C792 C791 1.387 . S
C792 C795 1.387 . S
H793 C789 0.950 . S
H794 C791 0.950 . S
C795 C786 1.390 . S
C795 H788 0.950 . S
C795 C792 1.387 . S
C796 C797 1.387 . S
C796 H800 0.950 . S
C796 C805 1.390 . S
C797 C796 1.387 . S
C797 C799 1.387 . S
H798 C805 0.950 . S
C799 C797 1.387 . S
C799 C801 1.390 . S
C799 H803 0.950 . S
H800 C796 0.950 . S
C801 C799 1.390 . S
C801 C802 1.387 . S
C801 H804 0.950 . S
C802 C801 1.387 . S
C802 C805 1.387 . S
H803 C799 0.950 . S
H804 C801 0.950 . S
C805 C796 1.390 . S
C805 H798 0.950 . S
C805 C802 1.387 . S
C806 C807 1.387 . S
C806 H810 0.950 . S
C806 C815 1.390 . S
C807 C806 1.387 . S
C807 C809 1.387 . S
H808 C815 0.950 . S
C809 C807 1.387 . S
C809 C811 1.390 . S
C809 H813 0.950 . S
H810 C806 0.950 . S
C811 C809 1.390 . S
C811 C812 1.387 . S
C811 H814 0.950 . S
C812 C811 1.387 . S
C812 C815 1.387 . S
H813 C809 0.950 . S
H814 C811 0.950 . S
C815 C806 1.390 . S
C815 H808 0.950 . S
C815 C812 1.387 . S
C502 C404 1.490 . S
C497 C36 1.438 . S
C512 C421 1.450 . S
C507 C93 1.463 . S
C522 C435 1.569 . S
C517 C126 1.596 . S
C527 C165 1.434 . S
C532 C393 1.446 . S
C537 C222 1.408 . S
C542 C390 1.503 . S
C547 C261 1.299 . S
C552 C407 1.325 . S
C562 C418 1.622 . S
C557 C318 1.553 . S
C572 C432 1.533 . S
C567 C381 1.502 . S
C577 C132 1.470 . S
C582 C460 1.531 . S
C592 C474 1.621 . S
C587 C189 1.612 . S
C597 C30 1.317 . S
C602 C491 1.322 . S
C612 C446 1.501 . S
C607 C69 1.403 . S
C617 C324 1.421 . S
C622 C449 1.450 . S
C627 C357 1.568 . S
C632 C463 1.565 . S
C642 C477 1.450 . S
C637 C228 1.456 . S
C647 C285 1.461 . S
C652 C488 1.490 . S
C662 C420 1.947 . S
C657 C45 1.943 . S
C672 C434 2.079 . S
C667 C84 2.084 . S
C677 C117 2.009 . S
C682 C392 2.031 . S
C687 C174 1.820 . S
C692 C405 1.767 . S
C697 C213 1.706 . S
C702 C433 1.559 . S
C712 C391 1.581 . S
C707 C270 1.694 . S
C722 C406 1.887 . S
C717 C309 1.897 . S
C732 C419 1.650 . S
C727 C372 1.775 . S
C742 C475 1.646 . S
C737 C141 1.760 . S
C752 C490 1.888 . S
C747 C180 1.896 . S
C757 C21 1.727 . S
C762 C447 1.582 . S
C772 C461 1.559 . S
C767 C78 1.691 . S
C782 C489 1.764 . S
C777 C333 1.900 . S
C787 C366 1.959 1_655 S
C792 C448 2.031 . S
C802 C462 2.077 . S
C797 C237 2.089 . S
C812 C476 1.948 . S
C807 C276 1.957 . S
