# Generated by pormake.
# Topology ctn, (3,4)-cn, num edge types: 1
# Building blocks:
#     Node 0, Type 0, BuildingBlock: PAMTOO_clean_linker_0, # of connection points: 3
#     Node 1, Type 0, BuildingBlock: PAMTOO_clean_linker_0, # of connection points: 3
#     Node 2, Type 0, BuildingBlock: PAMTOO_clean_linker_0, # of connection points: 3
#     Node 3, Type 0, BuildingBlock: PAMTOO_clean_linker_0, # of connection points: 3
#     Node 4, Type 0, BuildingBlock: PAMTOO_clean_linker_0, # of connection points: 3
#     Node 5, Type 0, BuildingBlock: PAMTOO_clean_linker_0, # of connection points: 3
#     Node 6, Type 0, BuildingBlock: PAMTOO_clean_linker_0, # of connection points: 3
#     Node 7, Type 0, BuildingBlock: PAMTOO_clean_linker_0, # of connection points: 3
#     Node 8, Type 0, BuildingBlock: PAMTOO_clean_linker_0, # of connection points: 3
#     Node 9, Type 0, BuildingBlock: PAMTOO_clean_linker_0, # of connection points: 3
#     Node 10, Type 0, BuildingBlock: PAMTOO_clean_linker_0, # of connection points: 3
#     Node 11, Type 0, BuildingBlock: PAMTOO_clean_linker_0, # of connection points: 3
#     Node 12, Type 0, BuildingBlock: PAMTOO_clean_linker_0, # of connection points: 3
#     Node 13, Type 0, BuildingBlock: PAMTOO_clean_linker_0, # of connection points: 3
#     Node 14, Type 0, BuildingBlock: PAMTOO_clean_linker_0, # of connection points: 3
#     Node 15, Type 0, BuildingBlock: PAMTOO_clean_linker_0, # of connection points: 3
#     Node 16, Type 1, BuildingBlock: UXUYUI_clean_sbu_0, # of connection points: 4
#     Node 17, Type 1, BuildingBlock: UXUYUI_clean_sbu_0, # of connection points: 4
#     Node 18, Type 1, BuildingBlock: UXUYUI_clean_sbu_0, # of connection points: 4
#     Node 19, Type 1, BuildingBlock: UXUYUI_clean_sbu_0, # of connection points: 4
#     Node 20, Type 1, BuildingBlock: UXUYUI_clean_sbu_0, # of connection points: 4
#     Node 21, Type 1, BuildingBlock: UXUYUI_clean_sbu_0, # of connection points: 4
#     Node 22, Type 1, BuildingBlock: UXUYUI_clean_sbu_0, # of connection points: 4
#     Node 23, Type 1, BuildingBlock: UXUYUI_clean_sbu_0, # of connection points: 4
#     Node 24, Type 1, BuildingBlock: UXUYUI_clean_sbu_0, # of connection points: 4
#     Node 25, Type 1, BuildingBlock: UXUYUI_clean_sbu_0, # of connection points: 4
#     Node 26, Type 1, BuildingBlock: UXUYUI_clean_sbu_0, # of connection points: 4
#     Node 27, Type 1, BuildingBlock: UXUYUI_clean_sbu_0, # of connection points: 4
#     Edge 28, Type (0, 1), BuildingBlock: OJICUG_clean_linker_0, # of connection points: 2
#     Edge 29, Type (0, 1), BuildingBlock: OJICUG_clean_linker_0, # of connection points: 2
#     Edge 30, Type (0, 1), BuildingBlock: OJICUG_clean_linker_0, # of connection points: 2
#     Edge 31, Type (0, 1), BuildingBlock: OJICUG_clean_linker_0, # of connection points: 2
#     Edge 32, Type (0, 1), BuildingBlock: OJICUG_clean_linker_0, # of connection points: 2
#     Edge 33, Type (0, 1), BuildingBlock: OJICUG_clean_linker_0, # of connection points: 2
#     Edge 34, Type (0, 1), BuildingBlock: OJICUG_clean_linker_0, # of connection points: 2
#     Edge 35, Type (0, 1), BuildingBlock: OJICUG_clean_linker_0, # of connection points: 2
#     Edge 36, Type (0, 1), BuildingBlock: OJICUG_clean_linker_0, # of connection points: 2
#     Edge 37, Type (0, 1), BuildingBlock: OJICUG_clean_linker_0, # of connection points: 2
#     Edge 38, Type (0, 1), BuildingBlock: OJICUG_clean_linker_0, # of connection points: 2
#     Edge 39, Type (0, 1), BuildingBlock: OJICUG_clean_linker_0, # of connection points: 2
#     Edge 40, Type (0, 1), BuildingBlock: OJICUG_clean_linker_0, # of connection points: 2
#     Edge 41, Type (0, 1), BuildingBlock: OJICUG_clean_linker_0, # of connection points: 2
#     Edge 42, Type (0, 1), BuildingBlock: OJICUG_clean_linker_0, # of connection points: 2
#     Edge 43, Type (0, 1), BuildingBlock: OJICUG_clean_linker_0, # of connection points: 2
#     Edge 44, Type (0, 1), BuildingBlock: OJICUG_clean_linker_0, # of connection points: 2
#     Edge 45, Type (0, 1), BuildingBlock: OJICUG_clean_linker_0, # of connection points: 2
#     Edge 46, Type (0, 1), BuildingBlock: OJICUG_clean_linker_0, # of connection points: 2
#     Edge 47, Type (0, 1), BuildingBlock: OJICUG_clean_linker_0, # of connection points: 2
#     Edge 48, Type (0, 1), BuildingBlock: OJICUG_clean_linker_0, # of connection points: 2
#     Edge 49, Type (0, 1), BuildingBlock: OJICUG_clean_linker_0, # of connection points: 2
#     Edge 50, Type (0, 1), BuildingBlock: OJICUG_clean_linker_0, # of connection points: 2
#     Edge 51, Type (0, 1), BuildingBlock: OJICUG_clean_linker_0, # of connection points: 2
#     Edge 52, Type (0, 1), BuildingBlock: OJICUG_clean_linker_0, # of connection points: 2
#     Edge 53, Type (0, 1), BuildingBlock: OJICUG_clean_linker_0, # of connection points: 2
#     Edge 54, Type (0, 1), BuildingBlock: OJICUG_clean_linker_0, # of connection points: 2
#     Edge 55, Type (0, 1), BuildingBlock: OJICUG_clean_linker_0, # of connection points: 2
#     Edge 56, Type (0, 1), BuildingBlock: OJICUG_clean_linker_0, # of connection points: 2
#     Edge 57, Type (0, 1), BuildingBlock: OJICUG_clean_linker_0, # of connection points: 2
#     Edge 58, Type (0, 1), BuildingBlock: OJICUG_clean_linker_0, # of connection points: 2
#     Edge 59, Type (0, 1), BuildingBlock: OJICUG_clean_linker_0, # of connection points: 2
#     Edge 60, Type (0, 1), BuildingBlock: OJICUG_clean_linker_0, # of connection points: 2
#     Edge 61, Type (0, 1), BuildingBlock: OJICUG_clean_linker_0, # of connection points: 2
#     Edge 62, Type (0, 1), BuildingBlock: OJICUG_clean_linker_0, # of connection points: 2
#     Edge 63, Type (0, 1), BuildingBlock: OJICUG_clean_linker_0, # of connection points: 2
#     Edge 64, Type (0, 1), BuildingBlock: OJICUG_clean_linker_0, # of connection points: 2
#     Edge 65, Type (0, 1), BuildingBlock: OJICUG_clean_linker_0, # of connection points: 2
#     Edge 66, Type (0, 1), BuildingBlock: OJICUG_clean_linker_0, # of connection points: 2
#     Edge 67, Type (0, 1), BuildingBlock: OJICUG_clean_linker_0, # of connection points: 2
#     Edge 68, Type (0, 1), BuildingBlock: OJICUG_clean_linker_0, # of connection points: 2
#     Edge 69, Type (0, 1), BuildingBlock: OJICUG_clean_linker_0, # of connection points: 2
#     Edge 70, Type (0, 1), BuildingBlock: OJICUG_clean_linker_0, # of connection points: 2
#     Edge 71, Type (0, 1), BuildingBlock: OJICUG_clean_linker_0, # of connection points: 2
#     Edge 72, Type (0, 1), BuildingBlock: OJICUG_clean_linker_0, # of connection points: 2
#     Edge 73, Type (0, 1), BuildingBlock: OJICUG_clean_linker_0, # of connection points: 2
#     Edge 74, Type (0, 1), BuildingBlock: OJICUG_clean_linker_0, # of connection points: 2
#     Edge 75, Type (0, 1), BuildingBlock: OJICUG_clean_linker_0, # of connection points: 2
# Relax obj value: 0.066
# Max RMSD: 0.181
# Mean RMSD: 0.115
data_MOF--net-ctn--node1-UXUYUI_clean_sbu_0--node2-PAMTOO_clean_linker_0--edge1-OJICUG_clean_linker_0
_symmetry_space_group_name_H-M    P1
_symmetry_Int_Tables_number       1
_symmetry_cell_setting            triclinic
loop_
_symmetry_equiv_pos_as_xyz
'x, y, z'
_cell_length_a     51.462335
_cell_length_b     51.827611
_cell_length_c     52.80906
_cell_angle_alpha  85.229612
_cell_angle_beta   92.344506
_cell_angle_gamma 97.18787
loop_
_atom_site_label
_atom_site_type_symbol
_atom_site_fract_x
_atom_site_fract_y
_atom_site_fract_z
_atom_type_partial_charge
H0 H 0.0134 0.09481 0.07477 0.0
H1 H 0.04939 0.0255 0.09675 0.0
H2 H 0.07681 0.07493 0.03198 0.0
H3 H 0.0694 0.02051 0.02347 0.0
C4 C 0.07502 0.01186 0.04259 0.0
O5 O 0.08139 0.03134 0.05891 0.0
H6 H 0.05802 0.99839 0.0501 0.0
C7 C 0.02824 0.08236 0.07188 0.0
C8 C 0.04495 0.0882 0.05115 0.0
C9 C 0.02992 0.06013 0.08875 0.0
C10 C 0.04783 0.04285 0.08411 0.0
C11 C 0.0643 0.04813 0.06338 0.0
C12 C 0.06324 0.07092 0.04735 0.0
H13 H 0.32591 0.688 0.28785 0.0
H14 H 0.27943 0.70953 0.22138 0.0
H15 H 0.34392 0.76277 0.24619 0.0
H16 H 0.29741 0.78758 0.22748 0.0
C17 C 0.28928 0.77337 0.21364 0.0
O18 O 0.30629 0.75508 0.21195 0.0
H19 H 0.27007 0.7637 0.22064 0.0
C20 C 0.32173 0.70189 0.27219 0.0
C21 C 0.33741 0.72618 0.26933 0.0
C22 C 0.30066 0.69552 0.25503 0.0
C23 C 0.29567 0.71374 0.23471 0.0
C24 C 0.31118 0.73789 0.2317 0.0
C25 C 0.33193 0.74409 0.24894 0.0
H26 H 0.98416 0.52506 0.11236 0.0
H27 H 0.95674 0.49215 0.04224 0.0
H28 H 0.02067 0.46279 0.08482 0.0
H29 H 0.02622 0.47415 0.02896 0.0
C30 C 1.00632 0.4653 0.02293 0.0
O31 O 0.99092 0.45886 0.04387 0.0
H32 H 0.99749 0.48002 0.00988 0.0
C33 C 0.9854 0.51131 0.09823 0.0
C34 C 1.00435 0.49377 0.10157 0.0
C35 C 0.96805 0.51116 0.07682 0.0
C36 C 0.97004 0.49313 0.05866 0.0
C37 C 0.98906 0.47592 0.06158 0.0
C38 C 1.00599 0.47617 0.08298 0.0
H39 H 0.71617 0.84147 0.27918 0.0
H40 H 0.69124 0.76809 0.2476 0.0
H41 H 0.76136 0.81481 0.22182 0.0
H42 H 0.72199 0.79282 0.18305 0.0
C43 C 0.71904 0.77253 0.19216 0.0
O44 O 0.73015 0.7717 0.2164 0.0
H45 H 0.69755 0.76656 0.19318 0.0
C46 C 0.71914 0.82696 0.26627 0.0
C47 C 0.7411 0.83094 0.25081 0.0
C48 C 0.70099 0.80441 0.26532 0.0
C49 C 0.70505 0.78558 0.24867 0.0
C50 C 0.72661 0.78959 0.2328 0.0
C51 C 0.74457 0.81216 0.23392 0.0
H52 H 0.10434 0.96122 0.53632 0.0
H53 H 0.03283 0.94118 0.49323 0.0
H54 H 0.08165 0.01225 0.47271 0.0
H55 H 0.02469 0.01511 0.47209 0.0
C56 C 0.01769 0.99591 0.46463 0.0
O57 O 0.03876 0.9826 0.4614 0.0
H58 H 1.00433 0.9846 0.47872 0.0
C59 C 0.09059 0.96595 0.52107 0.0
C60 C 0.09604 0.98903 0.50514 0.0
C61 C 0.06785 0.94848 0.51703 0.0
C62 C 0.05059 0.95419 0.4966 0.0
C63 C 0.05567 0.97714 0.48077 0.0
C64 C 0.07827 0.99444 0.485 0.0
H65 H 0.1895 0.76809 0.82617 0.0
H66 H 0.21587 0.70976 0.7831 0.0
H67 H 0.26164 0.73647 0.84737 0.0
H68 H 0.29315 0.72614 0.80548 0.0
C69 C 0.27913 0.71132 0.79634 0.0
O70 O 0.25773 0.70435 0.81144 0.0
H71 H 0.27282 0.72022 0.77752 0.0
C72 C 0.20398 0.75541 0.82277 0.0
C73 C 0.22617 0.75468 0.83926 0.0
C74 C 0.1999 0.73932 0.80238 0.0
C75 C 0.21831 0.72215 0.79878 0.0
C76 C 0.24035 0.72114 0.81506 0.0
C77 C 0.24425 0.7373 0.8352 0.0
H78 H 0.94446 0.56229 0.53386 0.0
H79 H 0.9724 0.5243 0.47263 0.0
H80 H 0.01885 0.59092 0.50068 0.0
H81 H 0.01958 0.58885 0.44432 0.0
C82 C 0.01475 0.5674 0.44343 0.0
O83 O 0.016 0.55554 0.46779 0.0
H84 H 0.9946 0.56338 0.43504 0.0
C85 C 0.95933 0.56099 0.52023 0.0
C86 C 0.98216 0.57912 0.51967 0.0
C87 C 0.95542 0.54125 0.50322 0.0
C88 C 0.97485 0.53952 0.48572 0.0
C89 C 0.99762 0.55736 0.48493 0.0
C90 C 1.00127 0.57705 0.50184 0.0
H91 H 0.76664 0.81036 0.86293 0.0
H92 H 0.82625 0.76994 0.834 0.0
H93 H 0.79668 0.83233 0.78819 0.0
H94 H 0.81022 0.79135 0.75765 0.0
C95 C 0.82385 0.78222 0.77152 0.0
O96 O 0.83023 0.79821 0.79107 0.0
H97 H 0.81384 0.76304 0.77924 0.0
C98 C 0.77956 0.80755 0.84798 0.0
C99 C 0.77909 0.82345 0.82499 0.0
C100 C 0.79655 0.78808 0.85169 0.0
C101 C 0.81324 0.78492 0.83199 0.0
C102 C 0.81322 0.80084 0.80928 0.0
C103 C 0.79622 0.81997 0.8058 0.0
H104 H 0.26443 0.30722 0.36163 0.0
H105 H 0.32612 0.26908 0.33365 0.0
H106 H 0.297 0.33194 0.28828 0.0
H107 H 0.31039 0.29098 0.25757 0.0
C108 C 0.32416 0.28191 0.27135 0.0
O109 O 0.3304 0.29782 0.29098 0.0
H110 H 0.31421 0.26263 0.27887 0.0
C111 C 0.27802 0.30528 0.34699 0.0
C112 C 0.27804 0.32184 0.32436 0.0
C113 C 0.29547 0.28625 0.35085 0.0
C114 C 0.31286 0.28384 0.33154 0.0
C115 C 0.31318 0.30016 0.3091 0.0
C116 C 0.29602 0.31916 0.30561 0.0
H117 H 0.4809 0.0233 0.61468 0.0
H118 H 0.45628 0.99129 0.54353 0.0
H119 H 0.52046 0.96324 0.5867 0.0
H120 H 0.52672 0.97409 0.53123 0.0
C121 C 0.50687 0.96542 0.52487 0.0
O122 O 0.49121 0.95872 0.54558 0.0
H123 H 0.49825 0.98035 0.5119 0.0
C124 C 0.4831 0.01002 0.60036 0.0
C125 C 0.50269 0.99314 0.60381 0.0
C126 C 0.4663 0.00988 0.57855 0.0
C127 C 0.46923 0.99231 0.5602 0.0
C128 C 0.48871 0.97563 0.56328 0.0
C129 C 0.50532 0.97609 0.58492 0.0
H130 H 0.21638 0.34246 0.77923 0.0
H131 H 0.19104 0.26996 0.74611 0.0
H132 H 0.26172 0.31653 0.72159 0.0
H133 H 0.22739 0.29571 0.68134 0.0
C134 C 0.22058 0.27602 0.69046 0.0
O135 O 0.23022 0.27379 0.71523 0.0
H136 H 0.19878 0.27362 0.69052 0.0
C137 C 0.21929 0.32818 0.76606 0.0
C138 C 0.24133 0.33231 0.7507 0.0
C139 C 0.201 0.30578 0.76463 0.0
C140 C 0.20498 0.2873 0.74758 0.0
C141 C 0.2267 0.2914 0.73192 0.0
C142 C 0.24484 0.31377 0.73357 0.0
H143 H 0.82339 0.18784 0.78841 0.0
H144 H 0.7811 0.20825 0.71876 0.0
H145 H 0.84545 0.26074 0.74488 0.0
H146 H 0.80028 0.28656 0.72518 0.0
C147 C 0.79185 0.27235 0.71145 0.0
O148 O 0.8084 0.25358 0.71001 0.0
H149 H 0.77248 0.26318 0.7185 0.0
C150 C 0.82065 0.20102 0.77176 0.0
C151 C 0.83721 0.22475 0.76865 0.0
C152 C 0.79999 0.19478 0.75408 0.0
C153 C 0.79644 0.21261 0.73298 0.0
C154 C 0.81258 0.23638 0.72997 0.0
C155 C 0.83292 0.24238 0.74767 0.0
H156 H 0.51357 0.59447 0.57456 0.0
H157 H 0.5495 0.52506 0.59611 0.0
H158 H 0.57697 0.57486 0.53156 0.0
H159 H 0.56999 0.52049 0.5228 0.0
C160 C 0.57547 0.51178 0.54194 0.0
O161 O 0.58166 0.5312 0.55835 0.0
H162 H 0.55842 0.49826 0.54929 0.0
C163 C 0.52838 0.58203 0.57154 0.0
C164 C 0.54509 0.588 0.55082 0.0
C165 C 0.53007 0.55972 0.58829 0.0
C166 C 0.54796 0.54246 0.58354 0.0
C167 C 0.56446 0.54788 0.56283 0.0
C168 C 0.56338 0.57075 0.54691 0.0
H169 H 0.60407 0.46427 0.03816 0.0
H170 H 0.53364 0.44356 0.99344 0.0
H171 H 0.58336 0.51396 0.97282 0.0
H172 H 0.52666 0.5181 0.97131 0.0
C173 C 0.5193 0.4987 0.96444 0.0
O174 O 0.54006 0.48483 0.96163 0.0
H175 H 0.50587 0.48807 0.97886 0.0
C176 C 0.59089 0.4684 0.02223 0.0
C177 C 0.59687 0.49109 1.00588 0.0
C178 C 0.56804 0.45103 0.01813 0.0
C179 C 0.55115 0.45672 0.99734 0.0
C180 C 0.5567 0.4794 0.98125 0.0
C181 C 0.5795 0.49641 0.98541 0.0
H182 H 0.69069 0.27021 0.32444 0.0
H183 H 0.7153 0.21005 0.28266 0.0
H184 H 0.76263 0.23804 0.34551 0.0
H185 H 0.7918 0.2278 0.3006 0.0
C186 C 0.77815 0.21131 0.29367 0.0
O187 O 0.75783 0.20516 0.31025 0.0
H188 H 0.77037 0.21747 0.27444 0.0
C189 C 0.70492 0.25717 0.32126 0.0
C190 C 0.72723 0.25643 0.33759 0.0
C191 C 0.70032 0.24056 0.30135 0.0
C192 C 0.71828 0.2229 0.29797 0.0
C193 C 0.74064 0.22214 0.31385 0.0
C194 C 0.74508 0.23878 0.33356 0.0
H195 H 0.44312 0.06294 0.03371 0.0
H196 H 0.4714 0.02304 0.97395 0.0
H197 H 0.51911 0.08858 1.00269 0.0
H198 H 0.52302 0.08646 0.94706 0.0
C199 C 0.5163 0.06533 0.94586 0.0
O200 O 0.51592 0.0529 0.97001 0.0
H201 H 0.49622 0.06357 0.93696 0.0
C202 C 0.45824 0.0609 0.02058 0.0
C203 C 0.48159 0.07828 0.02047 0.0
C204 C 0.45424 0.04091 1.00383 0.0
C205 C 0.47394 0.03841 0.98686 0.0
C206 C 0.49721 0.05554 0.98655 0.0
C207 C 0.50109 0.07531 1.00336 0.0
Li208 Li 0.28024 0.91191 0.01053 0.0
Li209 Li 0.25817 0.87592 0.0375 0.0
Li210 Li 0.25056 0.87603 0.99078 0.0
Li211 Li 0.23269 0.90617 0.01597 0.0
C212 C 0.30367 0.86936 0.99617 0.0
N213 N 0.34275 0.85951 0.96527 0.0
C214 C 0.31866 0.84909 1.00325 0.0
C215 C 0.30857 0.88466 0.9734 0.0
C216 C 0.33833 0.84442 0.98736 0.0
C217 C 0.32841 0.87936 0.95803 0.0
C218 C 0.2635 0.9138 0.06735 0.0
C219 C 0.24496 0.90509 0.10887 0.0
N220 N 0.26911 0.91127 0.11975 0.0
C221 C 0.28808 0.92034 0.07894 0.0
C222 C 0.24171 0.90635 0.08242 0.0
C223 C 0.29053 0.91885 0.10545 0.0
C224 C 0.31355 0.9566 0.99043 0.0
N225 N 0.31197 0.93502 1.00707 0.0
C226 C 0.35631 0.94603 0.02147 0.0
C227 C 0.33286 0.92925 0.02211 0.0
C228 C 0.35838 0.96883 1.00493 0.0
C229 C 0.33672 0.97385 0.98902 0.0
H230 H 0.29679 0.96051 0.97839 0.0
H231 H 0.33118 0.91168 0.03481 0.0
C232 C 0.24331 0.84014 0.07989 0.0
N233 N 0.26378 0.85447 0.06784 0.0
C234 C 0.24741 0.82608 0.10313 0.0
C235 C 0.29369 0.8412 0.10076 0.0
C236 C 0.28868 0.85496 0.07756 0.0
C237 C 0.27286 0.8267 0.11402 0.0
H238 H 0.22373 0.84002 0.07169 0.0
H239 H 0.30459 0.86649 0.06749 0.0
C240 C 0.23635 0.93044 0.97052 0.0
N241 N 0.20308 0.96296 0.94594 0.0
C242 C 0.21762 0.92084 0.95262 0.0
C243 C 0.23818 0.95657 0.97592 0.0
C244 C 0.201 0.93761 0.94037 0.0
C245 C 0.22115 0.97269 0.96331 0.0
C246 C 0.19822 0.86244 0.01671 0.0
C247 C 0.18541 0.85601 0.9938 0.0
C248 C 0.18349 0.86372 0.03815 0.0
C249 C 0.15808 0.8511 0.9927 0.0
C250 C 0.1562 0.85876 0.03625 0.0
N251 N 0.14416 0.8526 0.01376 0.0
C252 C 0.23911 0.82853 0.96768 0.0
C253 C 0.25245 0.86487 0.93891 0.0
C254 C 0.23603 0.81201 0.94787 0.0
N255 N 0.24692 0.85445 0.96285 0.0
C256 C 0.24979 0.84903 0.91855 0.0
C257 C 0.24132 0.82219 0.92282 0.0
H258 H 0.23498 0.82076 0.98695 0.0
H259 H 0.25899 0.88549 0.93564 0.0
C260 C 0.20677 0.94453 0.03628 0.0
N261 N 0.20356 0.92589 0.01935 0.0
C262 C 0.18646 0.95916 0.04022 0.0
C263 C 0.16001 0.93575 0.00874 0.0
C264 C 0.18091 0.92174 1.00525 0.0
C265 C 0.16256 0.95462 0.02659 0.0
H266 H 0.22513 0.94808 0.04681 0.0
H267 H 0.17897 0.90763 0.9912 0.0
O268 O 0.28432 0.87407 0.01154 0.0
O269 O 0.2608 0.91434 0.04142 0.0
O270 O 0.25249 0.91422 0.98302 0.0
O271 O 0.225 0.86707 0.01821 0.0
H272 H 0.3151 0.8371 0.02084 0.0
H273 H 0.2972 0.90045 0.96761 0.0
H274 H 0.35008 0.82878 0.99259 0.0
H275 H 0.33239 0.89102 0.94035 0.0
H276 H 0.22829 0.89914 0.12075 0.0
H277 H 0.30512 0.92635 0.06763 0.0
H278 H 0.22254 0.90138 0.07378 0.0
H279 H 0.30947 0.92368 0.11467 0.0
H280 H 0.37268 0.94116 0.03371 0.0
H281 H 0.33746 0.99122 0.97604 0.0
H282 H 0.23073 0.8154 0.11277 0.0
H283 H 0.31366 0.84194 0.10822 0.0
H284 H 0.21566 0.90059 0.94849 0.0
H285 H 0.25226 0.96419 0.99004 0.0
H286 H 0.18634 0.93043 0.92655 0.0
H287 H 0.22222 0.9929 0.96743 0.0
H288 H 0.19634 0.85517 0.97693 0.0
H289 H 0.19296 0.8687 0.05602 0.0
H290 H 0.14793 0.84624 0.97507 0.0
H291 H 0.14458 0.85984 0.05266 0.0
H292 H 0.22915 0.79156 0.95213 0.0
H293 H 0.25458 0.85773 0.8997 0.0
H294 H 0.18929 0.97354 0.05415 0.0
H295 H 0.14212 0.93203 0.9974 0.0
Li296 Li 0.1332 0.50457 0.30898 0.0
Li297 Li 0.16161 0.47534 0.29193 0.0
Li298 Li 0.16938 0.52436 0.28141 0.0
Li299 Li 0.13221 0.49717 0.26225 0.0
C300 C 0.17884 0.50848 0.33967 0.0
N301 N 0.19317 0.51762 0.38948 0.0
C302 C 0.18284 0.48771 0.35744 0.0
C303 C 0.18256 0.53396 0.34718 0.0
C304 C 0.18997 0.49271 0.38254 0.0
C305 C 0.18967 0.53816 0.37246 0.0
C306 C 0.11519 0.4464 0.30052 0.0
C307 C 0.10761 0.40066 0.29345 0.0
N308 N 0.10122 0.39507 0.31821 0.0
C309 C 0.10837 0.44023 0.32584 0.0
C310 C 0.11463 0.42651 0.28412 0.0
C311 C 0.1014 0.41415 0.33444 0.0
C312 C 0.0914 0.52561 0.32811 0.0
N313 N 0.11158 0.51192 0.33582 0.0
C314 C 0.10068 0.51294 0.37939 0.0
C315 C 0.1161 0.50502 0.36091 0.0
C316 C 0.08051 0.52817 0.37194 0.0
C317 C 0.07574 0.53416 0.34588 0.0
H318 H 0.08773 0.53033 0.30807 0.0
H319 H 0.13173 0.49356 0.36669 0.0
C320 C 0.19851 0.44193 0.28185 0.0
N321 N 0.17979 0.44484 0.29848 0.0
C322 C 0.21346 0.42113 0.28563 0.0
C323 C 0.18993 0.40662 0.32385 0.0
C324 C 0.17523 0.4276 0.31918 0.0
C325 C 0.20943 0.40321 0.30697 0.0
H326 H 0.20222 0.45606 0.26579 0.0
H327 H 0.16048 0.43028 0.33234 0.0
C328 C 0.12984 0.55627 0.27754 0.0
N329 N 0.12576 0.60911 0.27517 0.0
C330 C 0.12167 0.56922 0.25488 0.0
C331 C 0.13551 0.57014 0.29908 0.0
C332 C 0.11986 0.59596 0.25403 0.0
C333 C 0.13343 0.59685 0.29748 0.0
C334 C 0.1721 0.49116 0.23388 0.0
C335 C 0.18313 0.51099 0.21659 0.0
C336 C 0.16259 0.4668 0.22546 0.0
C337 C 0.18408 0.50623 0.19101 0.0
C338 C 0.16387 0.4628 0.19973 0.0
N339 N 0.17448 0.48244 0.18317 0.0
C340 C 0.21636 0.55732 0.29141 0.0
C341 C 0.19118 0.57188 0.25571 0.0
C342 C 0.23458 0.57963 0.28823 0.0
N343 N 0.19493 0.55412 0.27554 0.0
C344 C 0.20895 0.59439 0.25173 0.0
C345 C 0.23088 0.59864 0.26828 0.0
H346 H 0.21926 0.54262 0.30666 0.0
H347 H 0.17429 0.56862 0.24302 0.0
C348 C 0.08852 0.4765 0.23207 0.0
N349 N 0.10988 0.4948 0.23231 0.0
C350 C 0.07128 0.47556 0.21087 0.0
C351 C 0.09844 0.5122 0.19051 0.0
C352 C 0.11511 0.51242 0.21207 0.0
C353 C 0.07601 0.49373 0.18975 0.0
H354 H 0.08459 0.46291 0.24852 0.0
H355 H 0.13211 0.5269 0.21277 0.0
O356 O 0.17184 0.5039 0.31499 0.0
O357 O 0.12212 0.47181 0.29178 0.0
O358 O 0.13197 0.53011 0.27866 0.0
O359 O 0.17061 0.49557 0.25893 0.0
H360 H 0.18032 0.46793 0.35199 0.0
H361 H 0.18028 0.55036 0.33364 0.0
H362 H 0.19295 0.47678 0.3965 0.0
H363 H 0.19252 0.55778 0.37851 0.0
H364 H 0.10722 0.38505 0.28101 0.0
H365 H 0.1086 0.45539 0.33875 0.0
H366 H 0.11956 0.43097 0.26441 0.0
H367 H 0.09621 0.40907 0.35402 0.0
H368 H 0.10493 0.5078 0.39929 0.0
H369 H 0.06003 0.54537 0.33928 0.0
H370 H 0.22853 0.41951 0.27233 0.0
H371 H 0.18605 0.39318 0.34047 0.0
H372 H 0.11687 0.55881 0.2381 0.0
H373 H 0.14115 0.56035 0.31691 0.0
H374 H 0.11373 0.60624 0.23657 0.0
H375 H 0.13782 0.6078 0.31402 0.0
H376 H 0.19076 0.52989 0.22282 0.0
H377 H 0.15423 0.45119 0.23865 0.0
H378 H 0.19242 0.52144 0.17739 0.0
H379 H 0.15644 0.44409 0.19292 0.0
H380 H 0.25146 0.58189 0.30115 0.0
H381 H 0.20526 0.60857 0.23617 0.0
H382 H 0.0541 0.46118 0.2113 0.0
H383 H 0.10312 0.52635 0.17459 0.0
Li384 Li 0.76777 0.6197 0.03653 0.0
Li385 Li 0.78586 0.65495 0.06263 0.0
Li386 Li 0.79563 0.65896 0.01632 0.0
Li387 Li 0.81486 0.62872 0.04686 0.0
C388 C 0.7401 0.65951 0.01695 0.0
N389 N 0.69754 0.66492 0.98421 0.0
C390 C 0.7193 0.67181 0.02435 0.0
C391 C 0.73925 0.64988 0.99293 0.0
C392 C 0.69796 0.67438 0.00751 0.0
C393 C 0.71757 0.65284 0.97664 0.0
C394 C 0.78224 0.61497 0.09579 0.0
C395 C 0.7984 0.62285 0.13833 0.0
N396 N 0.77439 0.61351 0.14738 0.0
C397 C 0.75782 0.60517 0.10555 0.0
C398 C 0.80278 0.62363 0.11233 0.0
C399 C 0.75421 0.60469 0.13167 0.0
C400 C 0.73671 0.5782 0.01267 0.0
N401 N 0.73723 0.59566 0.03059 0.0
C402 C 0.6926 0.58071 0.04031 0.0
C403 C 0.71564 0.59749 0.04402 0.0
C404 C 0.69164 0.56203 0.02236 0.0
C405 C 0.7141 0.56103 0.00834 0.0
H406 H 0.75377 0.57769 1.00156 0.0
H407 H 0.71625 0.61224 0.05743 0.0
C408 C 0.79451 0.6915 0.10082 0.0
N409 N 0.77653 0.67436 0.08939 0.0
C410 C 0.78685 0.70658 0.11934 0.0
C411 C 0.74244 0.68581 0.11415 0.0
C412 C 0.75095 0.67116 0.09577 0.0
C413 C 0.76042 0.70405 0.12606 0.0
H414 H 0.81471 0.69373 0.09531 0.0
H415 H 0.73706 0.65748 0.08623 0.0
C416 C 0.80976 0.60053 0.00772 0.0
N417 N 0.83636 0.55894 0.99956 0.0
C418 C 0.80433 0.57669 0.02211 0.0
C419 C 0.82875 0.60318 0.98918 0.0
C420 C 0.81797 0.55591 0.01769 0.0
C421 C 0.84196 0.58193 0.98533 0.0
C422 C 0.84584 0.67438 0.04688 0.0
C423 C 0.85919 0.6835 0.02475 0.0
C424 C 0.85978 0.67239 0.0701 0.0
C425 C 0.88636 0.69003 0.02615 0.0
C426 C 0.88695 0.67906 0.0707 0.0
N427 N 0.89957 0.68764 0.0489 0.0
C428 C 0.78512 0.7047 0.98697 0.0
C429 C 0.81059 0.67862 0.9658 0.0
C430 C 0.78471 0.72245 0.96556 0.0
N431 N 0.79773 0.68317 0.98665 0.0
C432 C 0.81106 0.6961 0.94411 0.0
C433 C 0.79781 0.71825 0.94375 0.0
H434 H 0.7751 0.70795 1.00382 0.0
H435 H 0.82041 0.66141 0.96595 0.0
C436 C 0.84408 0.59122 0.07316 0.0
N437 N 0.84572 0.61104 0.0545 0.0
C438 C 0.86451 0.57586 0.07778 0.0
C439 C 0.88833 0.60174 0.04417 0.0
C440 C 0.86734 0.61648 0.04008 0.0
C441 C 0.88702 0.58084 0.06306 0.0
H442 H 0.82645 0.58664 0.08389 0.0
H443 H 0.86799 0.63171 0.02479 0.0
O444 O 0.76096 0.65651 0.03335 0.0
O445 O 0.78602 0.61626 0.07018 0.0
O446 O 0.79718 0.62132 0.01247 0.0
O447 O 0.81923 0.66793 0.04586 0.0
H448 H 0.71964 0.67928 0.04292 0.0
H449 H 0.7551 0.64014 0.98696 0.0
H450 H 0.68171 0.68386 0.01298 0.0
H451 H 0.71663 0.64549 0.958 0.0
H452 H 0.81409 0.62967 0.15131 0.0
H453 H 0.74181 0.59802 0.09313 0.0
H454 H 0.82186 0.63096 0.10514 0.0
H455 H 0.73536 0.5973 0.13945 0.0
H456 H 0.6756 0.58266 0.05109 0.0
H457 H 0.7143 0.54696 0.99432 0.0
H458 H 0.80146 0.72016 0.12818 0.0
H459 H 0.72183 0.68342 0.11837 0.0
H460 H 0.79004 0.5744 0.03686 0.0
H461 H 0.83355 0.6215 0.97811 0.0
H462 H 0.81406 0.53743 0.0288 0.0
H463 H 0.85678 0.58376 0.97113 0.0
H464 H 0.84875 0.68535 1.00666 0.0
H465 H 0.84979 0.66576 0.08747 0.0
H466 H 0.89695 0.69695 0.00914 0.0
H467 H 0.89799 0.67744 0.08852 0.0
H468 H 0.77445 0.7394 0.96613 0.0
H469 H 0.82125 0.69205 0.92761 0.0
H470 H 0.86221 0.55967 0.09216 0.0
H471 H 0.90528 0.60656 0.03243 0.0
Li472 Li 0.87807 0.0494 0.27228 0.0
Li473 Li 0.908 0.02093 0.2941 0.0
Li474 Li 0.90878 0.03021 0.24637 0.0
Li475 Li 0.87328 1.00072 0.26689 0.0
C476 C 0.92631 0.0807 0.27132 0.0
N477 N 0.94454 0.1333 0.26652 0.0
C478 C 0.93804 0.093 0.29221 0.0
C479 C 0.9243 0.09507 0.24789 0.0
C480 C 0.947 0.11964 0.28944 0.0
C481 C 0.93352 0.12166 0.24587 0.0
C482 C 0.866 0.01429 0.32341 0.0
C483 C 0.86374 0.98444 0.36105 0.0
N484 N 0.86019 1.00437 0.37525 0.0
C485 C 0.86201 0.0344 0.33834 0.0
C486 C 0.86657 0.98904 0.33481 0.0
C487 C 0.85923 0.02902 0.36452 0.0
C488 C 0.83786 0.08216 0.2614 0.0
N489 N 0.85994 0.07899 0.27575 0.0
C490 C 0.856 0.11757 0.29651 0.0
C491 C 0.86903 0.09608 0.29319 0.0
C492 C 0.83329 0.1216 0.28175 0.0
C493 C 0.82425 0.10348 0.26399 0.0
H494 H 0.83073 0.06807 0.24796 0.0
H495 H 0.88614 0.09274 0.30495 0.0
C496 C 0.9435 0.99611 0.32783 0.0
N497 N 0.92882 0.01626 0.32455 0.0
C498 C 0.95843 0.99237 0.35024 0.0
C499 C 0.94327 0.03049 0.36527 0.0
C500 C 0.92858 0.03343 0.34262 0.0
C501 C 0.95842 0.0097 0.36935 0.0
H502 H 0.94375 0.98299 0.31302 0.0
H503 H 0.91685 0.04937 0.3395 0.0
C504 C 0.86329 0.03726 0.21622 0.0
N505 N 0.8492 0.05097 0.16629 0.0
C506 C 0.85295 0.01807 0.20024 0.0
C507 C 0.86592 0.06347 0.20692 0.0
C508 C 0.84611 0.02538 0.17502 0.0
C509 C 0.85883 0.07 0.1816 0.0
C510 C 0.91319 0.97122 0.26406 0.0
C511 C 0.92203 0.96417 0.24123 0.0
C512 C 0.90623 0.9519 0.2835 0.0
C513 C 0.92326 0.93786 0.23804 0.0
C514 C 0.9077 0.92581 0.27958 0.0
N515 N 0.91608 0.91938 0.25711 0.0
C516 C 0.95441 0.05027 0.21947 0.0
C517 C 0.92277 0.02427 0.19568 0.0
C518 C 0.97105 0.05434 0.19889 0.0
N519 N 0.93064 0.03572 0.21743 0.0
C520 C 0.93885 0.02767 0.17469 0.0
C521 C 0.96332 0.04297 0.17609 0.0
H522 H 0.96057 0.05857 0.23718 0.0
H523 H 0.90424 0.01204 0.19476 0.0
C524 C 0.82893 0.96453 0.27908 0.0
N525 N 0.84893 0.97022 0.26273 0.0
C526 C 0.8112 0.94201 0.27716 0.0
C527 C 0.83469 0.93179 0.24132 0.0
C528 C 0.85186 0.95459 0.24386 0.0
C529 C 0.81406 0.92512 0.25821 0.0
H530 H 0.82672 0.9775 0.29364 0.0
H531 H 0.86765 0.95972 0.23082 0.0
O532 O 0.9172 0.05466 0.27376 0.0
O533 O 0.86918 0.01928 0.29778 0.0
O534 O 0.87009 0.03041 0.24099 0.0
O535 O 0.9116 0.99689 0.2674 0.0
H536 H 0.9401 0.08216 0.31041 0.0
H537 H 0.91604 0.08574 0.23137 0.0
H538 H 0.95593 0.12943 0.3055 0.0
H539 H 0.93201 0.133 0.22784 0.0
H540 H 0.86429 0.96501 0.37012 0.0
H541 H 0.86122 0.05399 0.32986 0.0
H542 H 0.86909 0.97315 0.32353 0.0
H543 H 0.85633 0.04446 0.37631 0.0
H544 H 0.86341 0.13061 0.31085 0.0
H545 H 0.80699 0.10584 0.25202 0.0
H546 H 0.97013 0.97631 0.35244 0.0
H547 H 0.94247 0.04416 0.37957 0.0
H548 H 0.85042 0.99774 0.20715 0.0
H549 H 0.87302 0.07867 0.21917 0.0
H550 H 0.8383 0.01069 0.16241 0.0
H551 H 0.86086 0.09021 0.17416 0.0
H552 H 0.92786 0.97881 0.2261 0.0
H553 H 0.89975 0.95698 0.30141 0.0
H554 H 0.92993 0.93214 0.22041 0.0
H555 H 0.9022 0.91067 0.29442 0.0
H556 H 0.98994 0.0659 0.20094 0.0
H557 H 0.93209 0.01858 0.15748 0.0
H558 H 0.7953 0.93801 0.29027 0.0
H559 H 0.83784 0.91934 0.22655 0.0
Li560 Li 0.28354 0.15379 0.56281 0.0
Li561 Li 0.26621 0.11861 0.53651 0.0
Li562 Li 0.31293 0.12714 0.54689 0.0
Li563 Li 0.29406 0.15744 0.51566 0.0
C564 C 0.28253 0.11215 0.59608 0.0
N565 N 0.27964 0.10636 0.64843 0.0
C566 C 0.26004 0.09904 0.60745 0.0
C567 C 0.30369 0.12194 0.61135 0.0
C568 C 0.25892 0.09641 0.63394 0.0
C569 C 0.30182 0.11893 0.63777 0.0
C570 C 0.2355 0.15538 0.52107 0.0
C571 C 0.20677 0.1482 0.48445 0.0
N572 N 0.18622 0.15301 0.498 0.0
C573 C 0.21413 0.16032 0.53463 0.0
C574 C 0.23185 0.14933 0.49577 0.0
C575 C 0.18936 0.159 0.52262 0.0
C576 C 0.28977 0.19563 0.59504 0.0
N577 N 0.27434 0.17347 0.58939 0.0
C578 C 0.24295 0.1807 0.6194 0.0
C579 C 0.25137 0.16576 0.60122 0.0
C580 C 0.25812 0.20407 0.62528 0.0
C581 C 0.28202 0.21128 0.61301 0.0
H582 H 0.30775 0.20154 0.58507 0.0
H583 H 0.2393 0.14823 0.59613 0.0
C584 C 0.23445 0.07912 0.5109 0.0
N585 N 0.23582 0.09434 0.53078 0.0
C586 C 0.21196 0.06183 0.50642 0.0
C587 C 0.19236 0.07683 0.54244 0.0
C588 C 0.21532 0.09365 0.54634 0.0
C589 C 0.19046 0.06047 0.52232 0.0
H590 H 0.25076 0.08047 0.49841 0.0
H591 H 0.21663 0.10654 0.56154 0.0
C592 C 0.34351 0.17407 0.54784 0.0
N593 N 0.39666 0.19028 0.55191 0.0
C594 C 0.35793 0.18149 0.526 0.0
C595 C 0.35603 0.17541 0.57177 0.0
C596 C 0.3848 0.1895 0.52845 0.0
C597 C 0.38294 0.1835 0.57342 0.0
C598 C 0.30793 0.09891 0.50768 0.0
C599 C 0.30161 0.07474 0.52125 0.0
C600 C 0.32772 0.10188 0.48994 0.0
C601 C 0.31522 0.05394 0.51684 0.0
C602 C 0.34087 0.08059 0.48607 0.0
N603 N 0.33442 0.05727 0.4995 0.0
C604 C 0.34124 0.08861 0.57264 0.0
C605 C 0.36581 0.11526 0.54133 0.0
C606 C 0.36158 0.07317 0.57744 0.0
N607 N 0.3436 0.10923 0.55483 0.0
C608 C 0.38672 0.10042 0.54561 0.0
C609 C 0.38473 0.07884 0.56375 0.0
H610 H 0.32313 0.08345 0.58251 0.0
H611 H 0.36701 0.13099 0.52654 0.0
C612 C 0.2817 0.20153 0.48514 0.0
N613 N 0.29633 0.18135 0.48587 0.0
C614 C 0.28131 0.21913 0.46362 0.0
C615 C 0.31161 0.19531 0.44416 0.0
C616 C 0.31116 0.17797 0.46596 0.0
C617 C 0.29638 0.21613 0.44273 0.0
H618 H 0.27012 0.20384 0.50125 0.0
H619 H 0.32258 0.1618 0.46693 0.0
O620 O 0.28387 0.11533 0.57016 0.0
O621 O 0.25978 0.15587 0.53266 0.0
O622 O 0.31716 0.16632 0.54578 0.0
O623 O 0.2954 0.11971 0.51247 0.0
H624 H 0.24363 0.09097 0.59597 0.0
H625 H 0.32137 0.13169 0.60285 0.0
H626 H 0.24158 0.08643 0.64298 0.0
H627 H 0.31803 0.12654 0.64979 0.0
H628 H 0.20362 0.14341 0.46492 0.0
H629 H 0.21663 0.16497 0.55424 0.0
H630 H 0.24818 0.14522 0.4851 0.0
H631 H 0.17261 0.1627 0.53289 0.0
H632 H 0.22459 0.17411 0.62855 0.0
H633 H 0.2942 0.22929 0.61656 0.0
H634 H 0.21155 0.04951 0.49079 0.0
H635 H 0.17614 0.07699 0.55483 0.0
H636 H 0.34855 0.18079 0.50735 0.0
H637 H 0.3451 0.17049 0.5889 0.0
H638 H 0.39623 0.19507 0.51169 0.0
H639 H 0.3929 0.18449 0.59182 0.0
H640 H 0.28667 0.07221 0.53539 0.0
H641 H 0.33315 0.12046 0.47951 0.0
H642 H 0.31064 0.0352 0.52733 0.0
H643 H 0.35632 0.08265 0.47249 0.0
H644 H 0.35875 0.05641 0.59115 0.0
H645 H 0.40415 0.10571 0.53462 0.0
H646 H 0.26951 0.23505 0.46342 0.0
H647 H 0.32336 0.19217 0.4284 0.0
Li648 Li 0.40931 0.52152 0.79389 0.0
Li649 Li 0.37918 0.55017 0.77263 0.0
Li650 Li 0.3743 0.50149 0.7673 0.0
Li651 Li 0.40968 0.53068 0.74642 0.0
C652 C 0.36897 0.51675 0.82412 0.0
N653 N 0.36673 0.51032 0.87649 0.0
C654 C 0.36703 0.53815 0.83808 0.0
C655 C 0.3694 0.49202 0.83677 0.0
C656 C 0.366 0.53451 0.86455 0.0
C657 C 0.36837 0.48919 0.86326 0.0
C658 C 0.42858 0.58085 0.76866 0.0
C659 C 0.43512 0.61973 0.74007 0.0
N660 N 0.44931 0.63235 0.75862 0.0
C661 C 0.44348 0.59412 0.78736 0.0
C662 C 0.42456 0.59368 0.74476 0.0
C663 C 0.45369 0.62018 0.78195 0.0
C664 C 0.4427 0.49532 0.82894 0.0
N665 N 0.43049 0.51707 0.82411 0.0
C666 C 0.44763 0.53346 0.8632 0.0
C667 C 0.4328 0.53608 0.8406 0.0
C668 C 0.46026 0.51106 0.86887 0.0
C669 C 0.45768 0.49185 0.85136 0.0
H670 H 0.4409 0.48066 0.81538 0.0
H671 H 0.42289 0.55319 0.83629 0.0
C672 C 0.33629 0.57987 0.76595 0.0
N673 N 0.36087 0.57957 0.77637 0.0
C674 C 0.3222 0.60076 0.76895 0.0
C675 C 0.35882 0.62048 0.79364 0.0
C676 C 0.37216 0.59923 0.79018 0.0
C677 C 0.33344 0.62148 0.78299 0.0
H678 H 0.32756 0.56376 0.75544 0.0
H679 H 0.39138 0.59826 0.7989 0.0
C680 C 0.41324 0.47162 0.7637 0.0
N681 N 0.41427 0.41964 0.75609 0.0
C682 C 0.42236 0.46456 0.74099 0.0
C683 C 0.40498 0.45223 0.78266 0.0
C684 C 0.42266 0.43818 0.73747 0.0
C685 C 0.40554 0.42607 0.77841 0.0
C686 C 0.36273 0.53871 0.71728 0.0
C687 C 0.35306 0.51997 0.70058 0.0
C688 C 0.36287 0.56517 0.70947 0.0
C689 C 0.34445 0.52802 0.6761 0.0
C690 C 0.35405 0.57244 0.68486 0.0
N691 N 0.34514 0.55387 0.6688 0.0
C692 C 0.33033 0.46501 0.78026 0.0
C693 C 0.3519 0.45603 0.7438 0.0
C694 C 0.31246 0.44258 0.77832 0.0
N695 N 0.34968 0.47116 0.76325 0.0
C696 C 0.33462 0.43332 0.74126 0.0
C697 C 0.31457 0.42622 0.75872 0.0
H698 H 0.32876 0.47755 0.79535 0.0
H699 H 0.36731 0.46143 0.73037 0.0
C700 C 0.45563 0.54944 0.71953 0.0
N701 N 0.43136 0.53588 0.71734 0.0
C702 C 0.47217 0.5533 0.69887 0.0
C703 C 0.43893 0.52825 0.67432 0.0
C704 C 0.42294 0.52508 0.69539 0.0
C705 C 0.46386 0.54266 0.67586 0.0
H706 H 0.46226 0.55714 0.7374 0.0
H707 H 0.40402 0.51357 0.69436 0.0
O708 O 0.37055 0.52003 0.79822 0.0
O709 O 0.41827 0.55537 0.77374 0.0
O710 O 0.41256 0.49737 0.76735 0.0
O711 O 0.37102 0.53112 0.74143 0.0
H712 H 0.36657 0.5574 0.82862 0.0
H713 H 0.37058 0.47521 0.82627 0.0
H714 H 0.36468 0.55094 0.8756 0.0
H715 H 0.36885 0.47018 0.8733 0.0
H716 H 0.43213 0.62987 0.72164 0.0
H717 H 0.44706 0.58445 0.80588 0.0
H718 H 0.41379 0.58352 0.72986 0.0
H719 H 0.46512 0.63072 0.79629 0.0
H720 H 0.44882 0.54862 0.87627 0.0
H721 H 0.46738 0.47445 0.8548 0.0
H722 H 0.30255 0.60043 0.76074 0.0
H723 H 0.36841 0.63605 0.80442 0.0
H724 H 0.42912 0.47927 0.72622 0.0
H725 H 0.39799 0.45732 0.80038 0.0
H726 H 0.42955 0.43245 0.71994 0.0
H727 H 0.399 0.41087 0.79286 0.0
H728 H 0.35242 0.49942 0.70636 0.0
H729 H 0.36941 0.57998 0.72233 0.0
H730 H 0.33716 0.5137 0.66293 0.0
H731 H 0.35416 0.59286 0.67856 0.0
H732 H 0.29704 0.43826 0.79193 0.0
H733 H 0.33726 0.42125 0.72602 0.0
H734 H 0.49143 0.56414 0.70102 0.0
H735 H 0.43176 0.51971 0.65694 0.0
Li736 Li 0.78119 0.41261 0.50978 0.0
Li737 Li 0.75928 0.37634 0.53649 0.0
Li738 Li 0.75156 0.3769 0.48974 0.0
Li739 Li 0.73365 0.40668 0.5153 0.0
C740 C 0.80471 0.37026 0.49497 0.0
N741 N 0.84384 0.36071 0.464 0.0
C742 C 0.81972 0.34998 0.50193 0.0
C743 C 0.80961 0.38572 0.4723 0.0
C744 C 0.83942 0.34546 0.486 0.0
C745 C 0.82948 0.38057 0.4569 0.0
C746 C 0.76466 0.41387 0.56671 0.0
C747 C 0.74636 0.40487 0.60831 0.0
N748 N 0.7706 0.41077 0.61908 0.0
C749 C 0.78934 0.42011 0.57819 0.0
C750 C 0.74294 0.40642 0.58187 0.0
C751 C 0.79196 0.41833 0.6047 0.0
C752 C 0.8145 0.45756 0.49024 0.0
N753 N 0.81295 0.43569 0.50647 0.0
C754 C 0.85749 0.44611 0.52053 0.0
C755 C 0.83393 0.4295 0.52116 0.0
C756 C 0.85957 0.46917 0.50439 0.0
C757 C 0.83777 0.47467 0.48887 0.0
H758 H 0.79766 0.46182 0.47849 0.0
H759 H 0.83226 0.4117 0.53354 0.0
C760 C 0.74487 0.34019 0.57877 0.0
N761 N 0.76517 0.35461 0.56655 0.0
C762 C 0.74931 0.32582 0.60177 0.0
C763 C 0.79556 0.34086 0.59879 0.0
C764 C 0.79022 0.35492 0.57586 0.0
C765 C 0.77492 0.32622 0.61222 0.0
H766 H 0.72518 0.34021 0.57091 0.0
H767 H 0.80598 0.36653 0.56565 0.0
C768 C 0.73705 0.43117 0.46989 0.0
N769 N 0.70339 0.46334 0.44541 0.0
C770 C 0.7183 0.4214 0.45209 0.0
C771 C 0.73869 0.4573 0.47525 0.0
C772 C 0.70149 0.43799 0.43988 0.0
C773 C 0.72147 0.47324 0.46269 0.0
C774 C 0.69932 0.36281 0.51594 0.0
C775 C 0.68633 0.35637 0.49311 0.0
C776 C 0.68478 0.36395 0.53753 0.0
C777 C 0.65901 0.35134 0.49224 0.0
C778 C 0.65748 0.35887 0.53586 0.0
N779 N 0.64527 0.35271 0.51345 0.0
C780 C 0.74015 0.32967 0.46624 0.0
C781 C 0.75356 0.3662 0.43774 0.0
C782 C 0.73715 0.31331 0.44631 0.0
N783 N 0.74796 0.35561 0.46161 0.0
C784 C 0.75099 0.35054 0.41725 0.0
C785 C 0.74253 0.32367 0.42133 0.0
H786 H 0.73596 0.32175 0.48545 0.0
H787 H 0.76011 0.38684 0.43463 0.0
C788 C 0.70754 0.44478 0.5359 0.0
N789 N 0.70442 0.42622 0.51889 0.0
C790 C 0.68717 0.45932 0.53991 0.0
C791 C 0.6608 0.43594 0.50835 0.0
C792 C 0.68176 0.42204 0.5048 0.0
C793 C 0.66328 0.45475 0.52625 0.0
H794 H 0.7259 0.44834 0.54645 0.0
H795 H 0.67987 0.40798 0.4907 0.0
O796 O 0.78534 0.37484 0.51039 0.0
O797 O 0.76179 0.4147 0.54077 0.0
O798 O 0.75338 0.41512 0.48234 0.0
O799 O 0.72609 0.36756 0.51721 0.0
H800 H 0.81616 0.33787 0.51945 0.0
H801 H 0.79823 0.40153 0.46663 0.0
H802 H 0.85119 0.32982 0.49113 0.0
H803 H 0.83347 0.39236 0.43929 0.0
H804 H 0.72974 0.39893 0.62026 0.0
H805 H 0.80633 0.4261 0.56681 0.0
H806 H 0.72369 0.40169 0.57331 0.0
H807 H 0.81099 0.42293 0.61384 0.0
H808 H 0.87395 0.44088 0.53247 0.0
H809 H 0.83851 0.49227 0.47621 0.0
H810 H 0.73277 0.31506 0.61156 0.0
H811 H 0.81564 0.34145 0.60592 0.0
H812 H 0.71648 0.40114 0.448 0.0
H813 H 0.75279 0.46505 0.4893 0.0
H814 H 0.68682 0.43067 0.42614 0.0
H815 H 0.72239 0.49345 0.46677 0.0
H816 H 0.69713 0.35563 0.47613 0.0
H817 H 0.69439 0.36893 0.55534 0.0
H818 H 0.64872 0.34647 0.47467 0.0
H819 H 0.646 0.35984 0.55239 0.0
H820 H 0.73027 0.29284 0.45041 0.0
H821 H 0.75584 0.35937 0.39847 0.0
H822 H 0.68994 0.47365 0.55388 0.0
H823 H 0.64293 0.43221 0.49699 0.0
Li824 Li 0.66215 0.97648 0.79227 0.0
Li825 Li 0.63284 1.00323 0.81124 0.0
Li826 Li 0.63012 0.99711 0.76529 0.0
Li827 Li 0.66728 0.02433 0.78421 0.0
C828 C 0.61898 0.94488 0.80238 0.0
N829 N 0.61283 0.89282 0.81984 0.0
C830 C 0.6144 0.93764 0.82805 0.0
C831 C 0.62026 0.92568 0.78555 0.0
C832 C 0.61136 0.91119 0.83651 0.0
C833 C 0.61717 0.89945 0.79477 0.0
C834 C 0.69423 0.01535 0.8259 0.0
C835 C 0.71956 0.05213 0.84396 0.0
N836 N 0.74185 0.04124 0.841 0.0
C837 C 0.71739 1.00452 0.82305 0.0
C838 C 0.69529 0.03932 0.83649 0.0
C839 C 0.74126 0.01791 0.83082 0.0
C840 C 0.69512 0.93978 0.77913 0.0
N841 N 0.68114 0.9467 0.79823 0.0
C842 C 0.69634 0.91297 0.82671 0.0
C843 C 0.68161 0.93387 0.82175 0.0
C844 C 0.71109 0.90536 0.80737 0.0
C845 C 0.71024 0.91912 0.78328 0.0
H846 H 0.695 0.95065 0.76078 0.0
H847 H 0.67075 0.94007 0.83678 0.0
C848 C 0.58593 1.00296 0.83757 0.0
N849 N 0.61249 0.00737 0.83991 0.0
C850 C 0.57033 0.00993 0.85633 0.0
C851 C 0.60971 0.02432 0.88033 0.0
C852 C 0.62453 0.01713 0.86107 0.0
C853 C 0.5822 0.0214 0.87782 0.0
H854 H 0.57686 0.99519 0.82051 0.0
H855 H 0.64566 0.02015 0.86263 0.0
C856 C 0.66866 0.99691 0.73405 0.0
N857 N 0.66731 0.99624 0.68176 0.0
C858 C 0.67664 0.01966 0.71882 0.0
C859 C 0.66014 0.97379 0.7227 0.0
C860 C 0.6758 0.01892 0.69241 0.0
C861 C 0.65954 0.97386 0.69623 0.0
C862 C 0.61057 0.04295 0.7893 0.0
C863 C 0.58538 0.03824 0.7784 0.0
C864 C 0.61526 0.06029 0.80839 0.0
C865 C 0.5653 0.05092 0.7868 0.0
C866 C 0.59464 0.07251 0.81631 0.0
N867 N 0.5703 0.06763 0.80543 0.0
C868 C 0.58858 0.97402 0.73349 0.0
C869 C 0.60913 0.01542 0.71794 0.0
C870 C 0.5713 0.97317 0.71232 0.0
N871 N 0.60704 0.99493 0.73586 0.0
C872 C 0.59252 0.01525 0.69635 0.0
C873 C 0.57309 0.994 0.69329 0.0
H874 H 0.58702 0.95817 0.74822 0.0
H875 H 0.62369 0.03202 0.7205 0.0
C876 C 0.71673 0.05258 0.77136 0.0
N877 N 0.69199 0.05483 0.77824 0.0
C878 C 0.73492 0.07482 0.76721 0.0
C879 C 0.70186 0.10117 0.7775 0.0
C880 C 0.6843 0.0785 0.78116 0.0
C881 C 0.72759 0.09962 0.77027 0.0
H882 H 0.72229 0.03349 0.76901 0.0
H883 H 0.66452 0.07983 0.78641 0.0
O884 O 0.62242 0.97066 0.79382 0.0
O885 O 0.67073 1.00288 0.81779 0.0
O886 O 0.66888 0.99734 0.75992 0.0
O887 O 0.6304 0.03034 0.78167 0.0
H888 H 0.61343 0.95227 0.84133 0.0
H889 H 0.62383 0.93099 0.76564 0.0
H890 H 0.60792 0.90529 0.85634 0.0
H891 H 0.61827 0.88438 0.78199 0.0
H892 H 0.72068 0.07079 0.85198 0.0
H893 H 0.717 0.98611 0.81471 0.0
H894 H 0.67763 0.04824 0.83841 0.0
H895 H 0.75934 0.0098 0.82865 0.0
H896 H 0.69613 0.9029 0.84552 0.0
H897 H 0.72167 0.91445 0.76789 0.0
H898 H 0.54925 0.0075 0.85341 0.0
H899 H 0.61971 0.03257 0.89678 0.0
H900 H 0.68312 0.03776 0.72727 0.0
H901 H 0.65376 0.95605 0.73421 0.0
H902 H 0.6818 0.0364 0.68038 0.0
H903 H 0.65283 0.95615 0.68718 0.0
H904 H 0.58125 0.02476 0.76379 0.0
H905 H 0.63445 0.06375 0.81749 0.0
H906 H 0.54571 0.04739 0.77857 0.0
H907 H 0.59795 0.08574 0.83125 0.0
H908 H 0.55641 0.95657 0.71117 0.0
H909 H 0.59506 0.0316 0.68216 0.0
H910 H 0.75436 0.07259 0.7613 0.0
H911 H 0.69532 0.11969 0.78056 0.0
Li912 Li 0.04602 0.28233 0.89069 0.0
Li913 Li 0.02057 0.30128 0.92153 0.0
Li914 Li 0.02631 0.25454 0.92592 0.0
Li915 Li 0.99813 0.27272 0.89174 0.0
C916 C 0.07044 0.27921 0.94699 0.0
N917 N 0.10323 0.26585 0.98743 0.0
C918 C 0.07209 0.29292 0.96882 0.0
C919 C 0.08545 0.25868 0.94576 0.0
C920 C 0.0888 0.28588 0.98905 0.0
C921 C 0.1019 0.25221 0.9664 0.0
C922 C 0.01948 0.33297 0.88073 0.0
C923 C 0.99762 0.37141 0.88151 0.0
N924 N 0.0208 0.38659 0.87731 0.0
C925 C 0.04309 0.34894 0.87639 0.0
C926 C 0.99653 0.34425 0.88325 0.0
C927 C 0.04335 0.37601 0.8747 0.0
C928 C 0.07018 0.29806 0.84385 0.0
N929 N 0.07464 0.28772 0.86793 0.0
C930 C 0.11851 0.2823 0.85814 0.0
C931 C 0.09829 0.28006 0.87534 0.0
C932 C 0.11446 0.29287 0.83315 0.0
C933 C 0.08997 0.30099 0.82611 0.0
H934 H 0.05109 0.30374 0.83836 0.0
H935 H 0.10143 0.27191 0.8945 0.0
C936 C 0.99565 0.33273 0.9522 0.0
N937 N 0.01817 0.33115 0.94014 0.0
C938 C 0.99319 0.3542 0.96588 0.0
C939 C 0.03727 0.37196 0.95477 0.0
C940 C 0.03885 0.35016 0.94122 0.0
C941 C 0.01418 0.37421 0.96734 0.0
H942 H 0.97962 0.31723 0.95136 0.0
H943 H 0.05661 0.34836 0.9316 0.0
C944 C 0.03499 0.23777 0.87043 0.0
N945 N 0.05882 0.21966 0.83065 0.0
C946 C 0.02579 0.24274 0.84546 0.0
C947 C 0.0562 0.22348 0.87521 0.0
C948 C 0.03813 0.23343 0.82559 0.0
C949 C 0.06802 0.21452 0.85482 0.0
C950 C 0.96816 0.2616 0.93133 0.0
C951 C 0.9609 0.23576 0.94061 0.0
C952 C 0.9488 0.27744 0.9234 0.0
C953 C 0.93433 0.22612 0.9416 0.0
C954 C 0.92245 0.26705 0.92465 0.0
N955 N 0.91583 0.24182 0.93364 0.0
C956 C 0.03467 0.22758 0.97429 0.0
C957 C 0.02641 0.20084 0.93994 0.0
C958 C 0.03799 0.2059 0.99108 0.0
N959 N 0.02967 0.22477 0.94915 0.0
C960 C 0.02871 0.1785 0.9562 0.0
C961 C 0.03495 0.18076 0.98221 0.0
H962 H 0.03645 0.24675 0.9813 0.0
H963 H 0.02172 0.19906 0.91997 0.0
C964 C 0.95969 0.2829 0.85326 0.0
N965 N 0.96757 0.26456 0.8708 0.0
C966 C 0.938 0.27675 0.83711 0.0
C967 C 0.9329 0.23298 0.85746 0.0
C968 C 0.95485 0.2399 0.87301 0.0
C969 C 0.92422 0.25147 0.83905 0.0
H970 H 0.97053 0.30218 0.85147 0.0
H971 H 0.96184 0.22556 0.88683 0.0
O972 O 0.05418 0.28586 0.92699 0.0
O973 O 0.01893 0.30644 0.88303 0.0
O974 O 0.02378 0.24752 0.89003 0.0
O975 O 0.99408 0.27129 0.92986 0.0
H976 H 0.0605 0.30873 0.97022 0.0
H977 H 0.08391 0.24737 0.92934 0.0
H978 H 0.09025 0.29631 1.00606 0.0
H979 H 0.11346 0.23624 0.96577 0.0
H980 H 0.98004 0.38041 0.88359 0.0
H981 H 0.06109 0.34053 0.87468 0.0
H982 H 0.97814 0.33217 0.88684 0.0
H983 H 0.0615 0.38862 0.87146 0.0
H984 H 0.13721 0.27609 0.8644 0.0
H985 H 0.08601 0.30907 0.80696 0.0
H986 H 0.97517 0.3549 0.97556 0.0
H987 H 0.05386 0.38701 0.95516 0.0
H988 H 0.00953 0.25397 0.84143 0.0
H989 H 0.06365 0.21961 0.89443 0.0
H990 H 0.03132 0.23725 0.80615 0.0
H991 H 0.08456 0.20358 0.85821 0.0
H992 H 0.97559 0.22324 0.94687 0.0
H993 H 0.95408 0.29742 0.91599 0.0
H994 H 0.92843 0.20613 0.94865 0.0
H995 H 0.90728 0.27902 0.91838 0.0
H996 H 0.04317 0.20904 0.01074 0.0
H997 H 0.02528 0.1597 0.94836 0.0
H998 H 0.9325 0.29152 0.82289 0.0
H999 H 0.92283 0.21335 0.85992 0.0
Li1000 Li 0.54634 0.783 0.39161 0.0
Li1001 Li 0.52091 0.80196 0.42248 0.0
Li1002 Li 0.52637 0.75514 0.42667 0.0
Li1003 Li 0.49844 0.77369 0.39248 0.0
C1004 C 0.57054 0.7795 0.44798 0.0
N1005 N 0.6031 0.7658 0.4885 0.0
C1006 C 0.57211 0.79306 0.46991 0.0
C1007 C 0.58553 0.75895 0.44669 0.0
C1008 C 0.5887 0.78585 0.49017 0.0
C1009 C 0.60185 0.75232 0.46737 0.0
C1010 C 0.52037 0.83389 0.38178 0.0
C1011 C 0.49907 0.87267 0.38278 0.0
N1012 N 0.52241 0.88758 0.37855 0.0
C1013 C 0.54413 0.84958 0.37742 0.0
C1014 C 0.49762 0.84549 0.38443 0.0
C1015 C 0.54475 0.87669 0.37583 0.0
C1016 C 0.57047 0.79816 0.3447 0.0
N1017 N 0.575 0.7882 0.3689 0.0
C1018 C 0.61885 0.78263 0.35922 0.0
C1019 C 0.59868 0.78068 0.37644 0.0
C1020 C 0.61472 0.79274 0.33408 0.0
C1021 C 0.59021 0.80076 0.32692 0.0
H1022 H 0.55137 0.80373 0.33913 0.0
H1023 H 0.60186 0.77287 0.39571 0.0
C1024 C 0.49608 0.83341 0.45323 0.0
N1025 N 0.51862 0.83178 0.44121 0.0
C1026 C 0.49367 0.85485 0.46698 0.0
C1027 C 0.53784 0.87248 0.45605 0.0
C1028 C 0.53936 0.85072 0.44242 0.0
C1029 C 0.51473 0.87478 0.46857 0.0
H1030 H 0.47999 0.81798 0.45228 0.0
H1031 H 0.55713 0.84889 0.43283 0.0
C1032 C 0.53508 0.73849 0.37117 0.0
N1033 N 0.55883 0.72018 0.33145 0.0
C1034 C 0.52585 0.74337 0.3462 0.0
C1035 C 0.55629 0.72419 0.37599 0.0
C1036 C 0.53814 0.73395 0.32636 0.0
C1037 C 0.56806 0.71514 0.35563 0.0
C1038 C 0.46828 0.76243 0.43176 0.0
C1039 C 0.46086 0.73649 0.44062 0.0
C1040 C 0.44904 0.77843 0.42388 0.0
C1041 C 0.43427 0.72691 0.44125 0.0
C1042 C 0.42265 0.76809 0.42476 0.0
N1043 N 0.41588 0.74276 0.43334 0.0
C1044 C 0.53458 0.72784 0.47492 0.0
C1045 C 0.52635 0.70135 0.44037 0.0
C1046 C 0.53792 0.70605 0.49157 0.0
N1047 N 0.52959 0.72521 0.44974 0.0
C1048 C 0.52868 0.67891 0.45648 0.0
C1049 C 0.53493 0.68099 0.48252 0.0
H1050 H 0.53635 0.74694 0.48206 0.0
H1051 H 0.52168 0.69971 0.42038 0.0
C1052 C 0.45988 0.78439 0.35422 0.0
N1053 N 0.46797 0.76579 0.37136 0.0
C1054 C 0.43828 0.77836 0.33793 0.0
C1055 C 0.4337 0.73419 0.3573 0.0
C1056 C 0.45552 0.74101 0.37304 0.0
C1057 C 0.42484 0.75293 0.33928 0.0
H1058 H 0.47049 0.80378 0.35287 0.0
H1059 H 0.46266 0.7265 0.38657 0.0
O1060 O 0.5544 0.78632 0.42795 0.0
O1061 O 0.51946 0.80733 0.38398 0.0
O1062 O 0.52391 0.74832 0.39075 0.0
O1063 O 0.49423 0.77206 0.4306 0.0
H1064 H 0.56054 0.80888 0.47135 0.0
H1065 H 0.58406 0.74777 0.43019 0.0
H1066 H 0.59008 0.79616 0.50726 0.0
H1067 H 0.61339 0.73633 0.4667 0.0
H1068 H 0.48167 0.88191 0.38496 0.0
H1069 H 0.56197 0.84093 0.3756 0.0
H1070 H 0.47912 0.83362 0.38805 0.0
H1071 H 0.56303 0.88908 0.37257 0.0
H1072 H 0.63757 0.77653 0.36557 0.0
H1073 H 0.58619 0.8085 0.30767 0.0
H1074 H 0.47563 0.85558 0.47662 0.0
H1075 H 0.55448 0.88747 0.45653 0.0
H1076 H 0.50959 0.7546 0.34214 0.0
H1077 H 0.56376 0.7204 0.39521 0.0
H1078 H 0.53131 0.7377 0.30692 0.0
H1079 H 0.5846 0.70419 0.35904 0.0
H1080 H 0.47546 0.72384 0.44681 0.0
H1081 H 0.45443 0.79849 0.41678 0.0
H1082 H 0.42825 0.70684 0.44797 0.0
H1083 H 0.40757 0.78019 0.41853 0.0
H1084 H 0.54311 0.70906 0.51125 0.0
H1085 H 0.52528 0.66018 0.44851 0.0
H1086 H 0.43258 0.79335 0.32404 0.0
H1087 H 0.42387 0.71443 0.35931 0.0
Li1088 Li 0.02193 0.78055 0.63989 0.0
Li1089 Li 0.99041 0.75757 0.67058 0.0
Li1090 Li 0.03857 0.75174 0.67516 0.0
Li1091 Li 0.00993 0.73143 0.64184 0.0
C1092 C 0.03108 0.80808 0.68377 0.0
N1093 N 0.05122 0.85729 0.69699 0.0
C1094 C 0.01455 0.82471 0.69239 0.0
C1095 C 0.05792 0.81635 0.68227 0.0
C1096 C 0.02508 0.84955 0.69887 0.0
C1097 C 0.06771 0.84132 0.68894 0.0
C1098 C 0.96234 0.76412 0.62684 0.0
C1099 C 0.91619 0.74866 0.62429 0.0
N1100 N 0.91114 0.7731 0.61583 0.0
C1101 C 0.95673 0.78901 0.61786 0.0
C1102 C 0.94196 0.7437 0.62985 0.0
C1103 C 0.9307 0.79318 0.61249 0.0
C1104 C 0.04326 0.8093 0.59623 0.0
N1105 N 0.03024 0.81132 0.61773 0.0
C1106 C 0.0291 0.85694 0.60707 0.0
C1107 C 0.02281 0.83446 0.6232 0.0
C1108 C 0.04287 0.85554 0.5849 0.0
C1109 C 0.04984 0.83126 0.57948 0.0
H1110 H 0.04858 0.79058 0.5921 0.0
H1111 H 0.01166 0.83545 0.63988 0.0
C1112 C 0.95095 0.7428 0.70709 0.0
N1113 N 0.95981 0.76146 0.68878 0.0
C1114 C 0.92901 0.74564 0.72092 0.0
C1115 C 0.92568 0.78685 0.6968 0.0
C1116 C 0.94775 0.78327 0.68357 0.0
C1117 C 0.916 0.76794 0.71588 0.0
H1118 H 0.96112 0.72583 0.71119 0.0
H1119 H 0.95538 0.79804 0.66923 0.0
C1120 C 0.07069 0.75269 0.633 0.0
N1121 N 0.12293 0.75302 0.62254 0.0
C1122 C 0.08007 0.72979 0.62713 0.0
C1123 C 0.08781 0.77586 0.63305 0.0
C1124 C 0.10657 0.73032 0.62205 0.0
C1125 C 0.11416 0.7756 0.62784 0.0
C1126 C 1.00145 0.69875 0.68388 0.0
C1127 C 0.02071 0.68373 0.69396 0.0
C1128 C 0.97634 0.6866 0.67818 0.0
C1129 C 0.01462 0.65668 0.69777 0.0
C1130 C 0.97103 0.65951 0.68224 0.0
N1131 N 0.99013 0.64522 0.69184 0.0
C1132 C 0.06947 0.76208 0.71957 0.0
C1133 C 0.08519 0.73145 0.695 0.0
C1134 C 0.09063 0.76074 0.73687 0.0
N1135 N 0.06738 0.74793 0.69886 0.0
C1136 C 0.10658 0.72938 0.71191 0.0
C1137 C 0.10966 0.74435 0.73307 0.0
H1138 H 0.05471 0.7745 0.72266 0.0
H1139 H 0.08276 0.7198 0.67887 0.0
C1140 C 0.98754 0.70421 0.60047 0.0
N1141 N 1.00402 0.70233 0.62115 0.0
C1142 C 0.9834 0.68414 0.5841 0.0
C1143 C 0.01325 0.66044 0.61055 0.0
C1144 C 0.01687 0.68102 0.62637 0.0
C1145 C 0.9964 0.66185 0.58896 0.0
H1146 H 0.97791 0.72153 0.59641 0.0
H1147 H 0.03023 0.6801 0.64263 0.0
O1148 O 0.02104 0.78375 0.67717 0.0
O1149 O 0.98767 0.75973 0.63247 0.0
O1150 O 0.04477 0.7525 0.63802 0.0
O1151 O 1.0071 0.72523 0.67982 0.0
H1152 H 0.99378 0.81856 0.69397 0.0
H1153 H 0.0711 0.80352 0.67635 0.0
H1154 H 0.01248 0.86267 0.70541 0.0
H1155 H 0.08845 0.84797 0.68781 0.0
H1156 H 0.90021 0.73307 0.62668 0.0
H1157 H 0.97227 0.80499 0.61525 0.0
H1158 H 0.94599 0.72426 0.63642 0.0
H1159 H 0.92606 0.81239 0.60569 0.0
H1160 H 0.02284 0.87513 0.6117 0.0
H1161 H 0.06055 0.82932 0.56265 0.0
H1162 H 0.92262 0.73074 0.73571 0.0
H1163 H 0.91621 0.80419 0.69195 0.0
H1164 H 0.06709 0.71175 0.62671 0.0
H1165 H 0.0808 0.79393 0.63675 0.0
H1166 H 0.11411 0.71268 0.61769 0.0
H1167 H 0.12762 0.79339 0.6279 0.0
H1168 H 0.04017 0.69282 0.69867 0.0
H1169 H 0.96113 0.69797 0.6707 0.0
H1170 H 0.02938 0.64479 0.70542 0.0
H1171 H 0.95172 0.64984 0.67778 0.0
H1172 H 0.09193 0.77223 0.7532 0.0
H1173 H 0.12078 0.71649 0.70821 0.0
H1174 H 0.9706 0.68637 0.56748 0.0
H1175 H 0.02351 0.64359 0.61526 0.0
Li1176 Li 0.52264 0.28113 0.13922 0.0
Li1177 Li 0.49069 0.25869 0.16985 0.0
Li1178 Li 0.53902 0.25286 0.17404 0.0
Li1179 Li 0.51067 0.23204 0.14078 0.0
C1180 C 0.52747 0.31077 0.17959 0.0
N1181 N 0.53928 0.36351 0.18529 0.0
C1182 C 0.50778 0.32554 0.18511 0.0
C1183 C 0.55324 0.32275 0.17738 0.0
C1184 C 0.51412 0.35219 0.18782 0.0
C1185 C 0.55881 0.34945 0.18021 0.0
C1186 C 0.4629 0.26036 0.1233 0.0
C1187 C 0.41947 0.23778 0.11724 0.0
N1188 N 0.41149 0.26011 0.10591 0.0
C1189 C 0.45436 0.28301 0.11133 0.0
C1190 C 0.4454 0.23749 0.12606 0.0
C1191 C 0.42826 0.28252 0.10278 0.0
C1192 C 0.54989 0.31291 0.10015 0.0
N1193 N 0.53075 0.31212 0.11729 0.0
C1194 C 0.52315 0.35568 0.10322 0.0
C1195 C 0.5172 0.33279 0.11887 0.0
C1196 C 0.54299 0.35722 0.08541 0.0
C1197 C 0.55636 0.33534 0.08397 0.0
H1198 H 0.56001 0.29604 0.09887 0.0
H1199 H 0.5017 0.33152 0.13227 0.0
C1200 C 0.45571 0.24797 0.21066 0.0
N1201 N 0.46007 0.26233 0.18816 0.0
C1202 C 0.434 0.25076 0.22485 0.0
C1203 C 0.42177 0.28324 0.19259 0.0
C1204 C 0.44373 0.27987 0.17909 0.0
C1205 C 0.41663 0.26862 0.21588 0.0
H1206 H 0.46928 0.23454 0.21775 0.0
H1207 H 0.44795 0.29163 0.16157 0.0
C1208 C 0.57141 0.25007 0.13518 0.0
N1209 N 0.62363 0.24347 0.13213 0.0
C1210 C 0.57845 0.22615 0.12921 0.0
C1211 C 0.59093 0.27074 0.1392 0.0
C1212 C 0.60495 0.22317 0.12785 0.0
C1213 C 0.61721 0.26699 0.1377 0.0
C1214 C 0.49906 0.20078 0.18547 0.0
C1215 C 0.51681 0.18388 0.19521 0.0
C1216 C 0.47243 0.19152 0.18333 0.0
C1217 C 0.50769 0.15781 0.20211 0.0
C1218 C 0.46407 0.16533 0.19044 0.0
N1219 N 0.48173 0.14914 0.19957 0.0
C1220 C 0.5721 0.26621 0.21615 0.0
C1221 C 0.58332 0.22997 0.19633 0.0
C1222 C 0.5932 0.2649 0.23351 0.0
N1223 N 0.56774 0.2491 0.19783 0.0
C1224 C 0.60474 0.228 0.21324 0.0
C1225 C 0.61004 0.24572 0.23211 0.0
H1226 H 0.55914 0.28091 0.21733 0.0
H1227 H 0.57924 0.21626 0.18193 0.0
C1228 C 0.49131 0.20607 0.09755 0.0
N1229 N 0.50453 0.2028 0.1202 0.0
C1230 C 0.48696 0.18579 0.08143 0.0
C1231 C 0.51039 0.15919 0.11188 0.0
C1232 C 0.51415 0.17995 0.12749 0.0
C1233 C 0.49662 0.16194 0.08847 0.0
H1234 H 0.48444 0.2246 0.0918 0.0
H1235 H 0.52525 0.17796 0.14518 0.0
O1236 O 0.52157 0.28468 0.17661 0.0
O1237 O 0.48835 0.26055 0.13193 0.0
O1238 O 0.54555 0.25327 0.13682 0.0
O1239 O 0.50766 0.22636 0.17862 0.0
H1240 H 0.48778 0.31657 0.18714 0.0
H1241 H 0.5688 0.31155 0.1736 0.0
H1242 H 0.49903 0.36389 0.19192 0.0
H1243 H 0.57865 0.35899 0.17841 0.0
H1244 H 0.40571 0.22022 0.11933 0.0
H1245 H 0.46769 0.30082 0.1088 0.0
H1246 H 0.45184 0.21965 0.1347 0.0
H1247 H 0.42134 0.29996 0.09363 0.0
H1248 H 0.51245 0.37205 0.10525 0.0
H1249 H 0.57139 0.33534 0.07021 0.0
H1250 H 0.43116 0.23939 0.24289 0.0
H1251 H 0.40889 0.29708 0.18475 0.0
H1252 H 0.56364 0.21002 0.1258 0.0
H1253 H 0.58585 0.2895 0.14338 0.0
H1254 H 0.61067 0.20471 0.12341 0.0
H1255 H 0.63251 0.28279 0.14091 0.0
H1256 H 0.53744 0.19077 0.19725 0.0
H1257 H 0.45832 0.20446 0.1765 0.0
H1258 H 0.52125 0.14448 0.20948 0.0
H1259 H 0.44352 0.1579 0.18881 0.0
H1260 H 0.59612 0.27864 0.24804 0.0
H1261 H 0.61722 0.21301 0.21124 0.0
H1262 H 0.47666 0.18898 0.06336 0.0
H1263 H 0.51813 0.14115 0.11813 0.0
C1264 C 0.22417 0.79783 0.85741 0.0
C1265 C 0.23036 0.77205 0.86062 0.0
H1266 H 0.22235 0.8336 0.87438 0.0
C1267 C 0.24046 0.763 0.88442 0.0
H1268 H 0.21669 0.80562 0.83928 0.0
C1269 C 0.24418 0.77925 0.90447 0.0
C1270 C 0.2378 0.80497 0.90132 0.0
H1271 H 0.24521 0.7432 0.88771 0.0
H1272 H 0.25224 0.77165 0.92242 0.0
C1273 C 0.22778 0.81404 0.87749 0.0
C1274 C 0.03864 0.53126 0.42907 0.0
C1275 C 0.03342 0.55737 0.42634 0.0
H1276 H 0.05795 0.50162 0.4142 0.0
C1277 C 0.04384 0.57368 0.4057 0.0
H1278 H 0.03027 0.51801 0.44438 0.0
C1279 C 0.05935 0.56425 0.3883 0.0
C1280 C 0.06473 0.53821 0.39106 0.0
H1281 H 0.0397 0.59372 0.40285 0.0
H1282 H 0.06714 0.57737 0.37263 0.0
C1283 C 0.05442 0.52186 0.41178 0.0
C1284 C 0.77367 0.76223 0.88887 0.0
C1285 C 0.79691 0.77093 0.8759 0.0
H1286 H 0.75575 0.73881 0.92039 0.0
C1287 C 0.82052 0.76258 0.88596 0.0
H1288 H 0.75505 0.76784 0.88159 0.0
C1289 C 0.82078 0.74555 0.90792 0.0
C1290 C 0.79754 0.73675 0.92068 0.0
H1291 H 0.83893 0.76927 0.87694 0.0
H1292 H 0.83927 0.73946 0.9151 0.0
C1293 C 0.77402 0.74548 0.91108 0.0
C1294 C 1.00252 0.02444 0.42711 0.0
C1295 C 1.00283 0.99953 0.4397 0.0
H1296 H 0.98837 0.04717 0.39493 0.0
C1297 C 0.989 0.97789 0.4288 0.0
H1298 H 0.01322 0.04141 0.43504 0.0
C1299 C 0.97477 0.98114 0.40586 0.0
C1300 C 0.97406 1.00612 0.3934 0.0
H1301 H 0.98905 0.9585 0.43819 0.0
H1302 H 0.96391 0.96413 0.39813 0.0
C1303 C 0.9882 0.02772 0.40424 0.0
C1304 C 0.25684 0.25278 0.67534 0.0
C1305 C 0.23011 0.25594 0.67515 0.0
H1306 H 0.28659 0.23346 0.66035 0.0
C1307 C 0.21267 0.24172 0.65882 0.0
H1308 H 0.27075 0.26385 0.68748 0.0
C1309 C 0.2217 0.22463 0.64302 0.0
C1310 C 0.24847 0.2214 0.64309 0.0
H1311 H 0.19205 0.24418 0.65791 0.0
H1312 H 0.20775 0.21453 0.63021 0.0
C1313 C 0.2659 0.23558 0.65961 0.0
C1314 C 0.5106 0.57555 0.62597 0.0
C1315 C 0.5134 0.55497 0.61094 0.0
H1316 H 0.49274 0.5878 0.6581 0.0
C1317 C 0.50004 0.53015 0.61758 0.0
H1318 H 0.52086 0.59484 0.62147 0.0
C1319 C 0.4839 0.52611 0.63862 0.0
C1320 C 0.48106 0.54675 0.65359 0.0
H1321 H 0.50173 0.51396 0.60628 0.0
H1322 H 0.47382 0.50678 0.64331 0.0
C1323 C 0.49469 0.57147 0.64708 0.0
C1324 C 0.77045 0.27433 0.66766 0.0
C1325 C 0.78802 0.28604 0.68557 0.0
H1326 H 0.75268 0.27768 0.63035 0.0
C1327 C 0.80208 0.31049 0.67894 0.0
H1328 H 0.75971 0.25528 0.67228 0.0
C1329 C 0.79802 0.32341 0.65507 0.0
C1330 C 0.77995 0.31202 0.63725 0.0
H1331 H 0.81594 0.31977 0.69238 0.0
H1332 H 0.80862 0.34257 0.65079 0.0
C1333 C 0.76638 0.28721 0.64376 0.0
C1334 C 0.52878 0.97006 0.63822 0.0
C1335 C 0.52043 0.99334 0.62697 0.0
H1336 H 0.55215 0.95199 0.66729 0.0
C1337 C 0.52937 0.01679 0.63794 0.0
H1338 H 0.52206 0.95153 0.63063 0.0
C1339 C 0.54615 0.01695 0.65949 0.0
C1340 C 0.55476 0.99371 0.67055 0.0
H1341 H 0.52372 0.03518 0.62973 0.0
H1342 H 0.5522 0.03537 0.66753 0.0
C1343 C 0.54579 0.97026 0.65959 0.0
C1344 C 0.86314 0.25613 0.79661 0.0
C1345 C 0.85892 0.23127 0.78733 0.0
H1346 H 0.88641 0.28175 0.82067 0.0
C1347 C 0.87591 0.21287 0.79559 0.0
H1348 H 0.85013 0.27059 0.79084 0.0
C1349 C 0.89697 0.21935 0.81242 0.0
C1350 C 0.90138 0.24432 0.82161 0.0
H1351 H 0.8733 0.19364 0.78853 0.0
H1352 H 0.91012 0.20492 0.81773 0.0
C1353 C 0.88402 0.26253 0.81364 0.0
C1354 C 0.53184 0.92958 0.51232 0.0
C1355 C 0.50882 0.94166 0.51071 0.0
H1356 H 0.55176 0.89899 0.50036 0.0
C1357 C 0.48753 0.93134 0.49567 0.0
H1358 H 0.54843 0.937 0.52403 0.0
C1359 C 0.4894 0.90961 0.48207 0.0
C1360 C 0.51261 0.89773 0.48326 0.0
H1361 H 0.46954 0.94028 0.49426 0.0
H1362 H 0.4728 0.9024 0.47027 0.0
C1363 C 0.53377 0.90792 0.49866 0.0
C1364 C 0.1628 0.32233 0.78325 0.0
C1365 C 0.17792 0.30187 0.78111 0.0
H1366 H 0.13082 0.33545 0.80126 0.0
C1367 C 0.17146 0.27808 0.79555 0.0
H1368 H 0.16724 0.34082 0.7722 0.0
C1369 C 0.15073 0.27508 0.81232 0.0
C1370 C 0.13583 0.29567 0.81469 0.0
H1371 H 0.18287 0.26204 0.79437 0.0
H1372 H 0.14634 0.25664 0.82345 0.0
C1373 C 0.14187 0.31921 0.79974 0.0
C1374 C 0.54879 0.61263 0.50746 0.0
C1375 C 0.54319 0.61203 0.53339 0.0
H1376 H 0.55178 0.6347 0.47155 0.0
C1377 C 0.5353 0.63455 0.54243 0.0
H1378 H 0.55457 0.59571 0.4995 0.0
C1379 C 0.53234 0.65661 0.526 0.0
C1380 C 0.53802 0.65728 0.50008 0.0
H1381 H 0.53137 0.63534 0.56231 0.0
H1382 H 0.52524 0.67298 0.53378 0.0
C1383 C 0.5466 0.635 0.49116 0.0
C1384 C 0.8521 0.75355 0.75121 0.0
C1385 C 0.8482 0.7784 0.75796 0.0
H1386 H 0.87624 0.73077 0.73247 0.0
C1387 C 0.86652 0.79985 0.75057 0.0
H1388 H 0.83801 0.73675 0.75623 0.0
C1389 C 0.88859 0.79644 0.73718 0.0
C1390 C 0.89265 0.77153 0.73048 0.0
H1391 H 0.86375 0.81927 0.7552 0.0
H1392 H 0.90256 0.81334 0.73225 0.0
C1393 C 0.87408 0.75014 0.73768 0.0
C1394 C 0.06524 0.92556 0.56081 0.0
C1395 C 0.06194 0.92452 0.53434 0.0
H1396 H 0.06192 0.90463 0.59747 0.0
C1397 C 0.05259 0.90055 0.5246 0.0
H1398 H 0.07218 0.94378 0.56892 0.0
C1399 C 0.04662 0.87813 0.54096 0.0
C1400 C 0.04969 0.87923 0.56745 0.0
H1401 H 0.05004 0.89907 0.50429 0.0
H1402 H 0.0392 0.86002 0.53288 0.0
C1403 C 0.05911 0.90319 0.57718 0.0
C1404 C 0.16316 0.7177 0.77557 0.0
C1405 C 0.17657 0.74053 0.78483 0.0
H1406 H 0.13146 0.70094 0.75226 0.0
C1407 C 0.16764 0.7646 0.777 0.0
H1408 H 0.16919 0.69878 0.7815 0.0
C1409 C 0.1459 0.76579 0.76035 0.0
C1410 C 0.1326 0.74298 0.75101 0.0
H1411 H 0.17773 0.78263 0.78338 0.0
H1412 H 0.1398 0.78468 0.75442 0.0
C1413 C 0.14149 0.71892 0.75882 0.0
C1414 C 0.96463 0.61322 0.54329 0.0
C1415 C 0.98584 0.60027 0.53749 0.0
H1416 H 0.95116 0.6423 0.56423 0.0
C1417 C 0.01055 0.60769 0.54887 0.0
H1418 H 0.94539 0.60829 0.53466 0.0
C1419 C 0.01395 0.62753 0.56558 0.0
C1420 C 0.99273 0.64047 0.57139 0.0
H1421 H 0.02727 0.598 0.54506 0.0
H1422 H 0.03334 0.63294 0.57369 0.0
C1423 C 0.96802 0.633 0.56004 0.0
C1424 C 0.76988 0.86921 0.2305 0.0
C1425 C 0.76033 0.85467 0.25255 0.0
H1426 H 0.79379 0.90312 0.21492 0.0
C1427 C 0.76889 0.86319 0.27641 0.0
H1428 H 0.76341 0.86328 0.21186 0.0
C1429 C 0.78642 0.88587 0.27821 0.0
C1430 C 0.79572 0.90071 0.25618 0.0
H1431 H 0.76221 0.85215 0.29375 0.0
H1432 H 0.79288 0.89162 0.29691 0.0
C1433 C 0.78731 0.89203 0.23229 0.0
C1434 C 0.81983 0.19026 0.29288 0.0
C1435 C 0.79234 0.18785 0.2915 0.0
H1436 H 0.85428 0.17149 0.29054 0.0
C1437 C 0.77833 0.16368 0.28653 0.0
H1438 H 0.83112 0.20882 0.2962 0.0
C1439 C 0.79154 0.14217 0.28349 0.0
C1440 C 0.81911 0.14445 0.28503 0.0
H1441 H 0.75712 0.16144 0.28499 0.0
H1442 H 0.78011 0.12369 0.28016 0.0
C1443 C 0.83306 0.16882 0.28972 0.0
C1444 C 0.41902 0.01152 0.02721 0.0
C1445 C 0.42957 0.0226 1.00409 0.0
H1446 H 0.38832 0.98592 0.04559 0.0
C1447 C 0.41648 0.01593 0.98121 0.0
H1448 H 0.42876 0.0161 0.04514 0.0
C1449 C 0.39333 0.9986 0.98145 0.0
C1450 C 0.38289 0.98737 1.00458 0.0
H1451 H 0.42401 0.02432 0.96309 0.0
H1452 H 0.38379 0.99373 0.96351 0.0
C1453 C 0.39601 0.99403 0.02745 0.0
C1454 C 0.24837 0.34767 0.29595 0.0
C1455 C 0.25955 0.342 0.32025 0.0
H1456 H 0.22372 0.3711 0.27279 0.0
C1457 C 0.25326 0.35609 0.34037 0.0
H1458 H 0.25223 0.33689 0.28008 0.0
C1459 C 0.23658 0.37554 0.3362 0.0
C1460 C 0.22595 0.38154 0.31177 0.0
H1461 H 0.26173 0.35261 0.35926 0.0
H1462 H 0.23263 0.3864 0.35197 0.0
C1463 C 0.23191 0.36724 0.29175 0.0
C1464 C 0.13431 0.02029 0.48894 0.0
C1465 C 0.12019 0.00741 0.50953 0.0
H1466 H 0.16707 0.04736 0.47672 0.0
C1467 C 0.12937 0.01221 0.53437 0.0
H1468 H 0.12804 0.01687 0.46955 0.0
C1469 C 0.15211 0.02931 0.53849 0.0
C1470 C 0.16622 0.04223 0.5179 0.0
H1471 H 0.11885 1.00294 0.5507 0.0
H1472 H 0.15878 0.03217 0.55789 0.0
C1473 C 0.15696 0.03753 0.49306 0.0
C1474 C 0.79063 0.14688 0.76839 0.0
C1475 C 0.78168 0.17017 0.75794 0.0
H1476 H 0.78073 0.10662 0.7809 0.0
C1477 C 0.75488 0.16988 0.75137 0.0
H1478 H 0.81116 0.14622 0.77341 0.0
C1479 C 0.73756 0.147 0.75503 0.0
C1480 C 0.74639 0.12378 0.76576 0.0
H1481 H 0.74708 0.18744 0.74366 0.0
H1482 H 0.71719 0.14758 0.74928 0.0
C1483 C 0.7732 0.12401 0.77234 0.0
C1484 C 0.43994 0.03959 0.55062 0.0
C1485 C 0.44574 0.02796 0.57491 0.0
H1486 H 0.41616 0.06421 0.52797 0.0
C1487 C 0.4316 0.03366 0.59558 0.0
H1488 H 0.45061 0.036 0.53428 0.0
C1489 C 0.41214 0.05037 0.59204 0.0
C1490 C 0.40615 0.06176 0.5677 0.0
H1491 H 0.43523 0.0249 0.61452 0.0
H1492 H 0.40185 0.0544 0.60847 0.0
C1493 C 0.42039 0.05616 0.54706 0.0
C1494 C 0.62404 0.51014 0.53699 0.0
C1495 C 0.59855 0.49699 0.53924 0.0
H1496 H 0.66452 0.50709 0.53127 0.0
C1497 C 0.59445 0.46999 0.53679 0.0
H1498 H 0.62764 0.53107 0.5381 0.0
C1499 C 0.61545 0.45632 0.53264 0.0
C1500 C 0.64103 0.46937 0.53074 0.0
H1501 H 0.57492 0.45947 0.53794 0.0
H1502 H 0.61168 0.43547 0.53109 0.0
C1503 C 0.64511 0.49643 0.53304 0.0
C1504 C 0.72557 0.29965 0.35574 0.0
C1505 C 0.73168 0.27384 0.35889 0.0
H1506 H 0.72378 0.33536 0.37284 0.0
C1507 C 0.74178 0.26471 0.38266 0.0
H1508 H 0.71808 0.3075 0.33764 0.0
C1509 C 0.74551 0.28088 0.40277 0.0
C1510 C 0.73914 0.30661 0.39971 0.0
H1511 H 0.74645 0.24488 0.38592 0.0
H1512 H 0.75354 0.27321 0.4207 0.0
C1513 C 0.72919 0.31579 0.37588 0.0
C1514 C 0.52586 0.02891 0.92009 0.0
C1515 C 0.53405 0.05325 0.92949 0.0
H1516 H 0.53473 0.99952 0.89666 0.0
C1517 C 0.55871 0.06634 0.92304 0.0
H1518 H 0.507 0.01836 0.92507 0.0
C1519 C 0.57452 0.05573 0.90672 0.0
C1520 C 0.56609 0.03167 0.89662 0.0
H1521 H 0.56553 0.08508 0.93018 0.0
H1522 H 0.59303 0.0668 0.90141 0.0
C1523 C 0.54167 0.01824 0.90377 0.0
C1524 C 0.27216 0.25895 0.38692 0.0
C1525 C 0.29564 0.26882 0.37485 0.0
H1526 H 0.25399 0.23453 0.41766 0.0
C1527 C 0.31937 0.26151 0.38567 0.0
H1528 H 0.25348 0.26377 0.379 0.0
C1529 C 0.31959 0.24446 0.40763 0.0
C1530 C 0.29613 0.2345 0.41954 0.0
H1531 H 0.33791 0.26911 0.37729 0.0
H1532 H 0.3382 0.23931 0.41546 0.0
C1533 C 0.27243 0.2421 0.40906 0.0
C1534 C 0.50665 0.52598 0.92501 0.0
C1535 C 0.50446 0.50187 0.93946 0.0
H1536 H 0.4945 0.54777 0.89131 0.0
C1537 C 0.48833 0.48057 0.93027 0.0
H1538 H 0.51924 0.5426 0.93157 0.0
C1539 C 0.47416 0.48347 0.90726 0.0
C1540 C 0.47588 0.50775 0.89298 0.0
H1541 H 0.48653 0.46176 0.94106 0.0
H1542 H 0.46146 0.46683 0.9009 0.0
C1543 C 0.49241 0.52894 0.90206 0.0
C1544 C 0.75133 0.76415 0.15988 0.0
C1545 C 0.731 0.75447 0.17632 0.0
H1546 H 0.77627 0.756 0.13086 0.0
C1547 C 0.7217 0.72778 0.17754 0.0
H1548 H 0.75904 0.78463 0.15884 0.0
C1549 C 0.73168 0.71127 0.16172 0.0
C1550 C 0.75131 0.72109 0.14443 0.0
H1551 H 0.70631 0.71982 0.1904 0.0
H1552 H 0.72389 0.69082 0.16291 0.0
C1553 C 0.76132 0.74768 0.14403 0.0
C1554 C 1.00021 0.03046 0.11826 0.0
C1555 C 0.01316 0.05541 0.11134 0.0
H1556 H 0.97434 0.00694 0.14415 0.0
C1557 C 0.00984 0.07609 0.12607 0.0
H1558 H 1.00227 0.01418 0.10721 0.0
C1559 C 0.99384 0.07199 0.14712 0.0
C1560 C 0.98065 0.04713 0.1539 0.0
H1561 H 0.01978 0.09549 0.12139 0.0
H1562 H 0.99149 0.08841 0.15787 0.0
C1563 C 0.98403 0.02638 0.13926 0.0
C1564 C 0.29922 0.81161 0.18119 0.0
C1565 C 0.28522 0.78714 0.18784 0.0
H1566 H 0.30593 0.84353 0.15287 0.0
C1567 C 0.26784 0.77527 0.16987 0.0
H1568 H 0.31297 0.82099 0.19466 0.0
C1569 C 0.26394 0.78799 0.14586 0.0
C1570 C 0.27753 0.81278 0.13928 0.0
H1571 H 0.25719 0.75618 0.17449 0.0
H1572 H 0.25045 0.77831 0.13238 0.0
C1573 C 0.29533 0.82437 0.1572 0.0
C1574 C 0.03396 0.51737 0.13363 0.0
C1575 C 0.02247 0.49379 0.12435 0.0
H1576 H 0.05955 0.53586 0.16152 0.0
C1577 C 0.02863 0.47018 0.13688 0.0
H1578 H 0.02987 0.53591 0.12433 0.0
C1579 C 0.0459 0.47014 0.15805 0.0
C1580 C 0.05751 0.49372 0.16725 0.0
H1581 H 0.01994 0.45165 0.13043 0.0
H1582 H 0.05041 0.4516 0.16702 0.0
C1583 C 0.05126 0.51733 0.15478 0.0
C1584 C 0.36332 0.75744 0.29744 0.0
C1585 C 0.35952 0.73285 0.28756 0.0
H1586 H 0.38634 0.78281 0.32193 0.0
C1587 C 0.37711 0.71478 0.29502 0.0
H1588 H 0.34987 0.77164 0.29229 0.0
C1589 C 0.39821 0.72126 0.31178 0.0
C1590 C 0.40212 0.7459 0.32169 0.0
H1591 H 0.37487 0.6958 0.28746 0.0
H1592 H 0.41176 0.70709 0.31656 0.0
C1593 C 0.38429 0.76385 0.31438 0.0
C1594 C 0.98689 0.43085 0.99417 0.0
C1595 C 1.00821 0.44134 0.00907 0.0
H1596 H 0.97215 0.40169 0.96901 0.0
C1597 C 0.03126 0.4293 0.01075 0.0
H1598 H 0.96888 0.43976 0.99272 0.0
C1599 C 0.0332 0.40754 0.99724 0.0
C1600 C 0.01202 0.3972 0.98195 0.0
H1601 H 0.04787 0.43686 0.02235 0.0
H1602 H 0.05122 0.39866 0.99896 0.0
C1603 C 0.98877 0.40902 0.98073 0.0
C1604 C 0.66276 0.82123 0.28356 0.0
C1605 C 0.67796 0.80075 0.28185 0.0
H1606 H 0.63081 0.83469 0.30132 0.0
C1607 C 0.67164 0.77724 0.29677 0.0
H1608 H 0.66708 0.8395 0.27213 0.0
C1609 C 0.65098 0.77455 0.31361 0.0
C1610 C 0.63602 0.79518 0.31557 0.0
H1611 H 0.68311 0.76119 0.29592 0.0
H1612 H 0.6467 0.75632 0.32512 0.0
C1613 C 0.64191 0.81842 0.30013 0.0
C1614 C 0.04866 0.11251 0.00764 0.0
C1615 C 0.04304 0.11211 0.03355 0.0
H1616 H 0.05171 0.13432 0.97161 0.0
C1617 C 0.03516 0.13472 0.04241 0.0
H1618 H 0.05442 0.09551 0.99981 0.0
C1619 C 0.03225 0.15668 0.02583 0.0
C1620 C 0.03797 0.15716 0.99994 0.0
H1621 H 0.03121 0.13565 0.06227 0.0
H1622 H 0.02517 0.17314 0.03347 0.0
C1623 C 0.04652 0.13478 0.9912 0.0
C1624 C 0.35676 0.25372 0.25709 0.0
C1625 C 0.34861 0.27851 0.25781 0.0
H1626 H 0.38426 0.23106 0.24302 0.0
C1627 C 0.36316 0.3001 0.24513 0.0
H1628 H 0.34583 0.23672 0.26666 0.0
C1629 C 0.38534 0.29696 0.23177 0.0
C1630 C 0.3934 0.27209 0.23069 0.0
H1631 H 0.35725 0.31941 0.24547 0.0
H1632 H 0.39625 0.31408 0.2224 0.0
C1633 C 0.37888 0.25053 0.24366 0.0
C1634 C 0.58156 0.41241 0.04544 0.0
C1635 C 0.56172 0.42707 0.03552 0.0
H1636 H 0.59139 0.37933 0.06918 0.0
C1637 C 0.5357 0.41861 0.04228 0.0
H1638 H 0.60178 0.41813 0.04044 0.0
C1639 C 0.52965 0.39601 0.05835 0.0
C1640 C 0.54949 0.38135 0.0683 0.0
H1641 H 0.51992 0.42955 0.0353 0.0
H1642 H 0.50933 0.38991 0.06272 0.0
C1643 C 0.57554 0.3899 0.06167 0.0
C1644 C 0.66218 0.21887 0.27643 0.0
C1645 C 0.67695 0.24182 0.28394 0.0
H1646 H 0.62928 0.20204 0.25471 0.0
C1647 C 0.66945 0.26602 0.27443 0.0
H1648 H 0.66723 0.19991 0.28368 0.0
C1649 C 0.6478 0.26727 0.25769 0.0
C1650 C 0.63301 0.24433 0.25011 0.0
H1651 H 0.68065 0.28406 0.27955 0.0
H1652 H 0.64297 0.28627 0.25032 0.0
C1653 C 0.64044 0.22011 0.25976 0.0
C1654 C 0.50959 0.10546 0.05102 0.0
C1655 C 0.48545 0.09961 0.03802 0.0
H1656 H 0.53208 0.12965 0.07703 0.0
C1657 C 0.46497 0.11433 0.04188 0.0
H1658 H 0.5257 0.09437 0.04863 0.0
C1659 C 0.46858 0.13446 0.05825 0.0
C1660 C 0.49271 0.1403 0.07128 0.0
H1661 H 0.4462 0.11051 0.03199 0.0
H1662 H 0.45235 0.14532 0.06087 0.0
C1663 C 0.51315 0.1255 0.06751 0.0
C1664 C 0.26973 0.37095 0.73069 0.0
C1665 C 0.26054 0.356 0.75265 0.0
H1666 H 0.29336 0.40511 0.71531 0.0
C1667 C 0.26944 0.36408 0.77657 0.0
H1668 H 0.26297 0.36535 0.712 0.0
C1669 C 0.28706 0.38669 0.77851 0.0
C1670 C 0.29605 0.40192 0.75657 0.0
H1671 H 0.26297 0.35274 0.79382 0.0
H1672 H 0.29384 0.39205 0.79726 0.0
C1673 C 0.2872 0.39371 0.73262 0.0
C1674 C 0.29022 0.67588 0.76986 0.0
C1675 C 0.29257 0.68767 0.79298 0.0
H1676 H 0.30163 0.64611 0.74838 0.0
C1677 C 0.30761 0.67709 0.81308 0.0
H1678 H 0.27855 0.68357 0.75414 0.0
C1679 C 0.32064 0.6555 0.80993 0.0
C1680 C 0.31886 0.64397 0.78659 0.0
H1681 H 0.30941 0.68569 0.83117 0.0
H1682 H 0.33199 0.64775 0.82586 0.0
C1683 C 0.3033 0.65432 0.76666 0.0
C1684 C 0.92078 0.51107 0.52662 0.0
C1685 C 0.93096 0.52264 0.50352 0.0
H1686 H 0.89028 0.48519 0.545 0.0
C1687 C 0.91754 0.51643 0.48067 0.0
H1688 H 0.93078 0.51531 0.54452 0.0
C1689 C 0.89437 0.49915 0.48092 0.0
C1690 C 0.88422 0.48751 0.50403 0.0
H1691 H 0.92477 0.52522 0.46257 0.0
H1692 H 0.88453 0.49469 0.46301 0.0
C1693 C 0.89773 0.49363 0.52687 0.0
C1694 C 0.74709 0.84716 0.79764 0.0
C1695 C 0.76094 0.84381 0.82094 0.0
H1696 H 0.72012 0.86852 0.77531 0.0
C1697 C 0.7577 0.86036 0.84006 0.0
H1698 H 0.74881 0.83447 0.78265 0.0
C1699 C 0.74138 0.8801 0.83579 0.0
C1700 C 0.72775 0.8837 0.81233 0.0
H1701 H 0.76831 0.85849 0.85813 0.0
H1702 H 0.74001 0.89296 0.8507 0.0
C1703 C 0.73066 0.86676 0.79342 0.0
C1704 C 0.62943 0.51558 0.03483 0.0
C1705 C 0.62117 0.50924 0.01016 0.0
H1706 H 0.65815 0.53695 0.05805 0.0
C1707 C 0.63628 0.52042 0.98954 0.0
H1708 H 0.61811 0.50755 0.05112 0.0
C1709 C 0.65908 0.53751 0.99348 0.0
C1710 C 0.66734 0.54387 0.01815 0.0
H1711 H 0.63064 0.51576 0.97031 0.0
H1712 H 0.67007 0.54597 0.97713 0.0
C1713 C 0.65222 0.5327 0.03878 0.0
C1714 C 0.27591 0.65976 0.28291 0.0
C1715 C 0.28358 0.67015 0.25852 0.0
H1716 H 0.25313 0.62925 0.30508 0.0
C1717 C 0.27428 0.65643 0.23742 0.0
H1718 H 0.28234 0.67 0.29955 0.0
C1719 C 0.25741 0.63314 0.24059 0.0
C1720 C 0.24952 0.62293 0.26495 0.0
H1721 H 0.28015 0.66361 0.2184 0.0
H1722 H 0.25068 0.62302 0.22396 0.0
C1723 C 0.25913 0.63641 0.28609 0.0
C1724 C 0.93459 0.53612 0.09441 0.0
C1725 C 0.9478 0.52963 0.07345 0.0
H1726 H 0.9057 0.55761 0.10776 0.0
C1727 C 0.94125 0.54069 0.04914 0.0
H1728 H 0.93882 0.52781 0.11341 0.0
C1729 C 0.92179 0.55738 0.04582 0.0
C1730 C 0.90843 0.56372 0.06675 0.0
H1731 H 0.9512 0.53651 0.03255 0.0
H1732 H 0.9169 0.5649 0.02671 0.0
C1733 C 0.91526 0.55298 0.09112 0.0
C1734 C 0.09385 0.97003 0.03731 0.0
C1735 C 0.09803 0.99702 0.03975 0.0
H1736 H 0.11095 0.93545 0.03155 0.0
C1737 C 0.12353 0.01013 0.03737 0.0
H1738 H 0.07431 0.95954 0.03855 0.0
C1739 C 0.14453 0.99636 0.03334 0.0
C1740 C 0.14036 0.9693 0.03107 0.0
H1741 H 0.12719 0.03105 0.03847 0.0
H1742 H 0.16395 0.00699 0.03149 0.0
C1743 C 0.11478 0.9563 0.03307 0.0
loop_
_geom_bond_atom_site_label_1
_geom_bond_atom_site_label_2
_geom_bond_distance
_geom_bond_site_symmetry_2
_ccdc_geom_bond_type
H0 C7 0.929 . S
H1 C10 0.930 . S
H2 C12 0.929 1_556 S
H3 C4 0.969 . S
C4 H3 0.969 . S
C4 O5 1.550 1_565 S
C4 H6 0.973 . S
O5 C4 1.550 1_545 S
O5 C11 1.412 . S
H6 C4 0.973 . S
C7 H0 0.929 . S
C7 C8 1.400 1_655 S
C7 C9 1.364 1_655 S
C8 C7 1.400 1_455 S
C8 C12 1.377 . S
C9 C7 1.364 1_455 S
C9 C10 1.374 . S
C10 H1 0.930 . S
C10 C9 1.374 . S
C10 C11 1.383 . S
C11 O5 1.412 . S
C11 C10 1.383 . S
C11 C12 1.394 . S
C12 H2 0.929 1_554 S
C12 C8 1.377 . S
C12 C11 1.394 . S
H13 C20 0.929 . S
H14 C23 0.930 . S
H15 C25 0.929 . S
H16 C17 0.969 . S
C17 H16 0.969 . S
C17 O18 1.550 . S
C17 H19 0.973 . S
O18 C17 1.550 . S
O18 C24 1.412 . S
H19 C17 0.973 . S
C20 H13 0.929 . S
C20 C21 1.400 . S
C20 C22 1.364 . S
C21 C20 1.400 . S
C21 C25 1.377 . S
C22 C20 1.364 . S
C22 C23 1.374 . S
C23 H14 0.930 . S
C23 C22 1.374 . S
C23 C24 1.383 . S
C24 O18 1.412 . S
C24 C23 1.383 . S
C24 C25 1.394 . S
C25 H15 0.929 . S
C25 C21 1.377 . S
C25 C24 1.394 . S
H26 C33 0.929 . S
H27 C36 0.930 . S
H28 C38 0.929 . S
H29 C30 0.969 . S
C30 H29 0.969 . S
C30 O31 1.550 . S
C30 H32 0.973 . S
O31 C30 1.550 . S
O31 C37 1.412 . S
H32 C30 0.973 . S
C33 H26 0.929 . S
C33 C34 1.400 . S
C33 C35 1.364 . S
C34 C33 1.400 . S
C34 C38 1.377 1_655 S
C35 C33 1.364 . S
C35 C36 1.374 . S
C36 H27 0.930 . S
C36 C35 1.374 . S
C36 C37 1.383 . S
C37 O31 1.412 . S
C37 C36 1.383 . S
C37 C38 1.394 1_655 S
C38 H28 0.929 . S
C38 C34 1.377 1_455 S
C38 C37 1.394 1_455 S
H39 C46 0.929 . S
H40 C49 0.930 . S
H41 C51 0.929 . S
H42 C43 0.969 . S
C43 H42 0.969 . S
C43 O44 1.550 . S
C43 H45 0.973 . S
O44 C43 1.550 . S
O44 C50 1.412 . S
H45 C43 0.973 . S
C46 H39 0.929 . S
C46 C47 1.400 . S
C46 C48 1.364 . S
C47 C46 1.400 . S
C47 C51 1.377 . S
C48 C46 1.364 . S
C48 C49 1.374 . S
C49 H40 0.930 . S
C49 C48 1.374 . S
C49 C50 1.383 . S
C50 O44 1.412 . S
C50 C49 1.383 . S
C50 C51 1.394 . S
C51 H41 0.929 . S
C51 C47 1.377 . S
C51 C50 1.394 . S
H52 C59 0.929 . S
H53 C62 0.930 . S
H54 C64 0.929 . S
H55 C56 0.947 1_655 S
C56 H55 0.947 1_455 S
C56 O57 1.584 . S
C56 H58 0.971 1_455 S
O57 C56 1.584 . S
O57 C63 1.412 . S
H58 C56 0.971 1_655 S
C59 H52 0.929 . S
C59 C60 1.400 . S
C59 C61 1.364 . S
C60 C59 1.400 . S
C60 C64 1.377 1_565 S
C61 C59 1.364 . S
C61 C62 1.374 . S
C62 H53 0.930 . S
C62 C61 1.374 . S
C62 C63 1.383 . S
C63 O57 1.412 . S
C63 C62 1.383 . S
C63 C64 1.394 1_565 S
C64 H54 0.929 . S
C64 C60 1.377 1_545 S
C64 C63 1.394 1_545 S
H65 C72 0.929 . S
H66 C75 0.930 . S
H67 C77 0.929 . S
H68 C69 0.969 . S
C69 H68 0.969 . S
C69 O70 1.550 . S
C69 H71 0.973 . S
O70 C69 1.550 . S
O70 C76 1.412 . S
H71 C69 0.973 . S
C72 H65 0.929 . S
C72 C73 1.400 . S
C72 C74 1.364 . S
C73 C72 1.400 . S
C73 C77 1.377 . S
C74 C72 1.364 . S
C74 C75 1.374 . S
C75 H66 0.930 . S
C75 C74 1.374 . S
C75 C76 1.383 . S
C76 O70 1.412 . S
C76 C75 1.383 . S
C76 C77 1.394 . S
C77 H67 0.929 . S
C77 C73 1.377 . S
C77 C76 1.394 . S
H78 C85 0.929 . S
H79 C88 0.930 . S
H80 C90 0.929 . S
H81 C82 0.969 . S
C82 H81 0.969 . S
C82 O83 1.550 . S
C82 H84 0.973 . S
O83 C82 1.550 . S
O83 C89 1.397 1_455 S
H84 C82 0.973 . S
C85 H78 0.929 . S
C85 C86 1.400 . S
C85 C87 1.364 . S
C86 C85 1.400 . S
C86 C90 1.377 1_655 S
C87 C85 1.364 . S
C87 C88 1.374 . S
C88 H79 0.930 . S
C88 C87 1.374 . S
C88 C89 1.396 . S
C89 O83 1.397 1_655 S
C89 C88 1.396 . S
C89 C90 1.394 1_655 S
C90 H80 0.929 . S
C90 C86 1.377 1_455 S
C90 C89 1.394 1_455 S
H91 C98 0.929 . S
H92 C101 0.930 . S
H93 C103 0.929 . S
H94 C95 0.969 . S
C95 H94 0.969 . S
C95 O96 1.550 . S
C95 H97 0.973 . S
O96 C95 1.550 . S
O96 C102 1.412 . S
H97 C95 0.973 . S
C98 H91 0.929 . S
C98 C99 1.400 . S
C98 C100 1.364 . S
C99 C98 1.400 . S
C99 C103 1.377 . S
C100 C98 1.364 . S
C100 C101 1.374 . S
C101 H92 0.930 . S
C101 C100 1.374 . S
C101 C102 1.383 . S
C102 O96 1.412 . S
C102 C101 1.383 . S
C102 C103 1.394 . S
C103 H93 0.929 . S
C103 C99 1.377 . S
C103 C102 1.394 . S
H104 C111 0.929 . S
H105 C114 0.930 . S
H106 C116 0.929 . S
H107 C108 0.969 . S
C108 H107 0.969 . S
C108 O109 1.550 . S
C108 H110 0.973 . S
O109 C108 1.550 . S
O109 C115 1.412 . S
H110 C108 0.973 . S
C111 H104 0.929 . S
C111 C112 1.400 . S
C111 C113 1.364 . S
C112 C111 1.400 . S
C112 C116 1.377 . S
C113 C111 1.364 . S
C113 C114 1.374 . S
C114 H105 0.930 . S
C114 C113 1.374 . S
C114 C115 1.383 . S
C115 O109 1.412 . S
C115 C114 1.383 . S
C115 C116 1.394 . S
C116 H106 0.929 . S
C116 C112 1.377 . S
C116 C115 1.394 . S
H117 C124 0.929 . S
H118 C127 0.930 . S
H119 C129 0.929 . S
H120 C121 0.969 . S
C121 H120 0.969 . S
C121 O122 1.550 . S
C121 H123 0.973 . S
O122 C121 1.550 . S
O122 C128 1.412 . S
H123 C121 0.973 . S
C124 H117 0.929 . S
C124 C125 1.400 . S
C124 C126 1.364 . S
C125 C124 1.400 . S
C125 C129 1.377 . S
C126 C124 1.364 . S
C126 C127 1.374 . S
C127 H118 0.930 . S
C127 C126 1.374 . S
C127 C128 1.383 . S
C128 O122 1.412 . S
C128 C127 1.383 . S
C128 C129 1.394 . S
C129 H119 0.929 . S
C129 C125 1.377 . S
C129 C128 1.394 . S
H130 C137 0.929 . S
H131 C140 0.930 . S
H132 C142 0.929 . S
H133 C134 0.969 . S
C134 H133 0.969 . S
C134 O135 1.550 . S
C134 H136 0.973 . S
O135 C134 1.550 . S
O135 C141 1.412 . S
H136 C134 0.973 . S
C137 H130 0.929 . S
C137 C138 1.400 . S
C137 C139 1.364 . S
C138 C137 1.400 . S
C138 C142 1.377 . S
C139 C137 1.364 . S
C139 C140 1.374 . S
C140 H131 0.930 . S
C140 C139 1.374 . S
C140 C141 1.383 . S
C141 O135 1.412 . S
C141 C140 1.383 . S
C141 C142 1.394 . S
C142 H132 0.929 . S
C142 C138 1.377 . S
C142 C141 1.394 . S
H143 C150 0.929 . S
H144 C153 0.930 . S
H145 C155 0.929 . S
H146 C147 0.969 . S
C147 H146 0.969 . S
C147 O148 1.550 . S
C147 H149 0.973 . S
O148 C147 1.550 . S
O148 C154 1.412 . S
H149 C147 0.973 . S
C150 H143 0.929 . S
C150 C151 1.400 . S
C150 C152 1.364 . S
C151 C150 1.400 . S
C151 C155 1.377 . S
C152 C150 1.364 . S
C152 C153 1.374 . S
C153 H144 0.930 . S
C153 C152 1.374 . S
C153 C154 1.383 . S
C154 O148 1.412 . S
C154 C153 1.383 . S
C154 C155 1.394 . S
C155 H145 0.929 . S
C155 C151 1.377 . S
C155 C154 1.394 . S
H156 C163 0.929 . S
H157 C166 0.930 . S
H158 C168 0.929 . S
H159 C160 0.969 . S
C160 H159 0.969 . S
C160 O161 1.550 . S
C160 H162 0.973 . S
O161 C160 1.550 . S
O161 C167 1.412 . S
H162 C160 0.973 . S
C163 H156 0.929 . S
C163 C164 1.400 . S
C163 C165 1.364 . S
C164 C163 1.400 . S
C164 C168 1.377 . S
C165 C163 1.364 . S
C165 C166 1.374 . S
C166 H157 0.930 . S
C166 C165 1.374 . S
C166 C167 1.383 . S
C167 O161 1.412 . S
C167 C166 1.383 . S
C167 C168 1.394 . S
C168 H158 0.929 . S
C168 C164 1.377 . S
C168 C167 1.394 . S
H169 C176 0.929 . S
H170 C179 0.930 . S
H171 C181 0.929 . S
H172 C173 0.969 . S
C173 H172 0.969 . S
C173 O174 1.550 . S
C173 H175 0.973 . S
O174 C173 1.550 . S
O174 C180 1.412 . S
H175 C173 0.973 . S
C176 H169 0.929 . S
C176 C177 1.400 1_554 S
C176 C178 1.357 1_554 S
C177 C176 1.400 1_556 S
C177 C181 1.377 . S
C178 C176 1.357 1_556 S
C178 C179 1.395 . S
C179 H170 0.930 . S
C179 C178 1.395 . S
C179 C180 1.383 . S
C180 O174 1.412 . S
C180 C179 1.383 . S
C180 C181 1.394 . S
C181 H171 0.929 . S
C181 C177 1.377 . S
C181 C180 1.394 . S
H182 C189 0.929 . S
H183 C192 0.930 . S
H184 C194 0.929 . S
H185 C186 0.969 . S
C186 H185 0.969 . S
C186 O187 1.550 . S
C186 H188 0.973 . S
O187 C186 1.550 . S
O187 C193 1.412 . S
H188 C186 0.973 . S
C189 H182 0.929 . S
C189 C190 1.400 . S
C189 C191 1.364 . S
C190 C189 1.400 . S
C190 C194 1.377 . S
C191 C189 1.364 . S
C191 C192 1.374 . S
C192 H183 0.930 . S
C192 C191 1.374 . S
C192 C193 1.383 . S
C193 O187 1.412 . S
C193 C192 1.383 . S
C193 C194 1.394 . S
C194 H184 0.929 . S
C194 C190 1.377 . S
C194 C193 1.394 . S
H195 C202 0.929 . S
H196 C205 0.930 . S
H197 C207 0.929 . S
H198 C199 0.969 . S
C199 H198 0.969 . S
C199 O200 1.550 . S
C199 H201 0.973 . S
O200 C199 1.550 . S
O200 C206 1.412 . S
H201 C199 0.973 . S
C202 H195 0.929 . S
C202 C203 1.400 . S
C202 C204 1.364 . S
C203 C202 1.400 . S
C203 C207 1.377 . S
C204 C202 1.364 . S
C204 C205 1.374 1_554 S
C205 H196 0.930 . S
C205 C204 1.374 1_556 S
C205 C206 1.383 . S
C206 O200 1.412 . S
C206 C205 1.383 . S
C206 C207 1.394 1_556 S
C207 H197 0.929 . S
C207 C203 1.377 . S
C207 C206 1.394 1_554 S
Li208 N225 1.990 . S
Li208 O268 1.956 . S
Li208 O269 1.970 1_556 S
Li208 O270 1.961 . S
Li209 N233 1.990 . S
Li209 O268 1.973 1_554 S
Li209 O269 1.956 . S
Li209 O271 1.961 . S
Li210 N255 1.990 . S
Li210 O268 1.959 . S
Li210 O270 1.956 . S
Li210 O271 1.970 1_556 S
Li211 N261 1.990 . S
Li211 O269 1.961 . S
Li211 O270 1.970 1_554 S
Li211 O271 1.956 . S
C212 C214 1.348 1_556 S
C212 C215 1.356 . S
C212 O268 1.324 . S
N213 C216 1.314 1_556 S
N213 C217 1.279 . S
C214 C212 1.348 1_554 S
C214 C216 1.353 . S
C214 H272 0.929 . S
C215 C212 1.356 . S
C215 C217 1.358 . S
C215 H273 0.930 . S
C216 N213 1.314 1_554 S
C216 C214 1.353 . S
C216 H274 0.930 . S
C217 N213 1.279 . S
C217 C215 1.358 . S
C217 H275 0.930 . S
C218 C221 1.348 . S
C218 C222 1.356 . S
C218 O269 1.325 . S
C219 N220 1.279 . S
C219 C222 1.358 . S
C219 H276 0.930 . S
N220 C219 1.279 . S
N220 C223 1.314 . S
C221 C218 1.348 . S
C221 C223 1.353 . S
C221 H277 0.929 . S
C222 C218 1.356 . S
C222 C219 1.358 . S
C222 H278 0.930 . S
C223 N220 1.314 . S
C223 C221 1.353 . S
C223 H279 0.930 . S
C224 N225 1.314 . S
C224 C229 1.353 . S
C224 H230 0.930 . S
N225 Li208 1.990 . S
N225 C224 1.314 . S
N225 C227 1.279 . S
C226 C227 1.358 . S
C226 C228 1.356 . S
C226 H280 0.930 . S
C227 N225 1.279 . S
C227 C226 1.358 . S
C227 H231 0.930 1_556 S
C228 C226 1.356 . S
C228 C229 1.348 . S
C229 C224 1.353 . S
C229 C228 1.348 . S
C229 H281 0.929 1_565 S
H230 C224 0.930 . S
H231 C227 0.930 1_554 S
C232 N233 1.314 . S
C232 C234 1.353 . S
C232 H238 0.930 . S
N233 Li209 1.990 . S
N233 C232 1.314 . S
N233 C236 1.279 . S
C234 C232 1.353 . S
C234 C237 1.348 . S
C234 H282 0.929 . S
C235 C236 1.358 . S
C235 C237 1.356 . S
C235 H283 0.930 . S
C236 N233 1.279 . S
C236 C235 1.358 . S
C236 H239 0.930 . S
C237 C234 1.348 . S
C237 C235 1.356 . S
H238 C232 0.930 . S
H239 C236 0.930 . S
C240 C242 1.348 . S
C240 C243 1.356 . S
C240 O270 1.325 . S
N241 C244 1.314 . S
N241 C245 1.279 . S
C242 C240 1.348 . S
C242 C244 1.353 . S
C242 H284 0.929 . S
C243 C240 1.356 . S
C243 C245 1.358 . S
C243 H285 0.930 . S
C244 N241 1.314 . S
C244 C242 1.353 . S
C244 H286 0.930 . S
C245 N241 1.279 . S
C245 C243 1.358 . S
C245 H287 0.930 . S
C246 C247 1.348 1_554 S
C246 C248 1.356 . S
C246 O271 1.325 . S
C247 C246 1.348 1_556 S
C247 C249 1.353 . S
C247 H288 0.929 . S
C248 C246 1.356 . S
C248 C250 1.358 . S
C248 H289 0.930 . S
C249 C247 1.353 . S
C249 N251 1.314 1_556 S
C249 H290 0.930 . S
C250 C248 1.358 . S
C250 N251 1.279 . S
C250 H291 0.930 . S
N251 C249 1.314 1_554 S
N251 C250 1.279 . S
C252 C254 1.353 . S
C252 N255 1.314 . S
C252 H258 0.930 . S
C253 N255 1.279 . S
C253 C256 1.358 . S
C253 H259 0.930 . S
C254 C252 1.353 . S
C254 C257 1.348 . S
C254 H292 0.929 . S
N255 Li210 1.990 . S
N255 C252 1.314 . S
N255 C253 1.279 . S
C256 C253 1.358 . S
C256 C257 1.356 . S
C256 H293 0.930 . S
C257 C254 1.348 . S
C257 C256 1.356 . S
H258 C252 0.930 . S
H259 C253 0.930 . S
C260 N261 1.314 . S
C260 C262 1.353 . S
C260 H266 0.930 . S
N261 Li211 1.990 . S
N261 C260 1.314 . S
N261 C264 1.279 . S
C262 C260 1.353 . S
C262 C265 1.348 . S
C262 H294 0.929 . S
C263 C264 1.358 . S
C263 C265 1.356 . S
C263 H295 0.930 . S
C264 N261 1.279 . S
C264 C263 1.358 . S
C264 H267 0.921 1_554 S
C265 C262 1.348 . S
C265 C263 1.356 . S
H266 C260 0.930 . S
H267 C264 0.921 1_556 S
O268 Li208 1.956 . S
O268 Li209 1.973 1_556 S
O268 Li210 1.959 . S
O268 C212 1.324 . S
O269 Li208 1.970 1_554 S
O269 Li209 1.956 . S
O269 Li211 1.961 . S
O269 C218 1.325 . S
O270 Li208 1.961 . S
O270 Li210 1.956 . S
O270 Li211 1.970 1_556 S
O270 C240 1.325 . S
O271 Li209 1.961 . S
O271 Li210 1.970 1_554 S
O271 Li211 1.956 . S
O271 C246 1.325 . S
H272 C214 0.929 . S
H273 C215 0.930 . S
H274 C216 0.930 . S
H275 C217 0.930 . S
H276 C219 0.930 . S
H277 C221 0.929 . S
H278 C222 0.930 . S
H279 C223 0.930 . S
H280 C226 0.930 . S
H281 C229 0.929 1_545 S
H282 C234 0.929 . S
H283 C235 0.930 . S
H284 C242 0.929 . S
H285 C243 0.930 . S
H286 C244 0.930 . S
H287 C245 0.930 . S
H288 C247 0.929 . S
H289 C248 0.930 . S
H290 C249 0.930 . S
H291 C250 0.930 . S
H292 C254 0.929 . S
H293 C256 0.930 . S
H294 C262 0.929 . S
H295 C263 0.930 . S
Li296 N313 1.990 . S
Li296 O356 1.956 . S
Li296 O357 1.970 . S
Li296 O358 1.961 . S
Li297 N321 1.990 . S
Li297 O356 1.970 . S
Li297 O357 1.956 . S
Li297 O359 1.961 . S
Li298 N343 1.990 . S
Li298 O356 1.961 . S
Li298 O358 1.956 . S
Li298 O359 1.970 . S
Li299 N349 1.990 . S
Li299 O357 1.961 . S
Li299 O358 1.970 . S
Li299 O359 1.956 . S
C300 C302 1.348 . S
C300 C303 1.356 . S
C300 O356 1.325 . S
N301 C304 1.314 . S
N301 C305 1.279 . S
C302 C300 1.348 . S
C302 C304 1.353 . S
C302 H360 0.929 . S
C303 C300 1.356 . S
C303 C305 1.358 . S
C303 H361 0.930 . S
C304 N301 1.314 . S
C304 C302 1.353 . S
C304 H362 0.930 . S
C305 N301 1.279 . S
C305 C303 1.358 . S
C305 H363 0.930 . S
C306 C309 1.348 . S
C306 C310 1.356 . S
C306 O357 1.325 . S
C307 N308 1.279 . S
C307 C310 1.358 . S
C307 H364 0.930 . S
N308 C307 1.279 . S
N308 C311 1.314 . S
C309 C306 1.348 . S
C309 C311 1.353 . S
C309 H365 0.929 . S
C310 C306 1.356 . S
C310 C307 1.358 . S
C310 H366 0.930 . S
C311 N308 1.314 . S
C311 C309 1.353 . S
C311 H367 0.930 . S
C312 N313 1.314 . S
C312 C317 1.353 . S
C312 H318 0.930 . S
N313 Li296 1.990 . S
N313 C312 1.314 . S
N313 C315 1.279 . S
C314 C315 1.358 . S
C314 C316 1.356 . S
C314 H368 0.930 . S
C315 N313 1.279 . S
C315 C314 1.358 . S
C315 H319 0.930 . S
C316 C314 1.356 . S
C316 C317 1.348 . S
C317 C312 1.353 . S
C317 C316 1.348 . S
C317 H369 0.929 . S
H318 C312 0.930 . S
H319 C315 0.930 . S
C320 N321 1.314 . S
C320 C322 1.353 . S
C320 H326 0.930 . S
N321 Li297 1.990 . S
N321 C320 1.314 . S
N321 C324 1.279 . S
C322 C320 1.353 . S
C322 C325 1.348 . S
C322 H370 0.929 . S
C323 C324 1.358 . S
C323 C325 1.356 . S
C323 H371 0.930 . S
C324 N321 1.279 . S
C324 C323 1.358 . S
C324 H327 0.930 . S
C325 C322 1.348 . S
C325 C323 1.356 . S
H326 C320 0.930 . S
H327 C324 0.930 . S
C328 C330 1.348 . S
C328 C331 1.356 . S
C328 O358 1.325 . S
N329 C332 1.314 . S
N329 C333 1.279 . S
C330 C328 1.348 . S
C330 C332 1.353 . S
C330 H372 0.929 . S
C331 C328 1.356 . S
C331 C333 1.358 . S
C331 H373 0.930 . S
C332 N329 1.314 . S
C332 C330 1.353 . S
C332 H374 0.930 . S
C333 N329 1.279 . S
C333 C331 1.358 . S
C333 H375 0.930 . S
C334 C335 1.348 . S
C334 C336 1.356 . S
C334 O359 1.325 . S
C335 C334 1.348 . S
C335 C337 1.353 . S
C335 H376 0.929 . S
C336 C334 1.356 . S
C336 C338 1.358 . S
C336 H377 0.930 . S
C337 C335 1.353 . S
C337 N339 1.314 . S
C337 H378 0.930 . S
C338 C336 1.358 . S
C338 N339 1.279 . S
C338 H379 0.930 . S
N339 C337 1.314 . S
N339 C338 1.279 . S
C340 C342 1.353 . S
C340 N343 1.314 . S
C340 H346 0.930 . S
C341 N343 1.279 . S
C341 C344 1.358 . S
C341 H347 0.930 . S
C342 C340 1.353 . S
C342 C345 1.348 . S
C342 H380 0.929 . S
N343 Li298 1.990 . S
N343 C340 1.314 . S
N343 C341 1.279 . S
C344 C341 1.358 . S
C344 C345 1.356 . S
C344 H381 0.930 . S
C345 C342 1.348 . S
C345 C344 1.356 . S
H346 C340 0.930 . S
H347 C341 0.930 . S
C348 N349 1.314 . S
C348 C350 1.353 . S
C348 H354 0.930 . S
N349 Li299 1.990 . S
N349 C348 1.314 . S
N349 C352 1.279 . S
C350 C348 1.353 . S
C350 C353 1.348 . S
C350 H382 0.929 . S
C351 C352 1.358 . S
C351 C353 1.356 . S
C351 H383 0.930 . S
C352 N349 1.279 . S
C352 C351 1.358 . S
C352 H355 0.930 . S
C353 C350 1.348 . S
C353 C351 1.356 . S
H354 C348 0.930 . S
H355 C352 0.930 . S
O356 Li296 1.956 . S
O356 Li297 1.970 . S
O356 Li298 1.961 . S
O356 C300 1.325 . S
O357 Li296 1.970 . S
O357 Li297 1.956 . S
O357 Li299 1.961 . S
O357 C306 1.325 . S
O358 Li296 1.961 . S
O358 Li298 1.956 . S
O358 Li299 1.970 . S
O358 C328 1.325 . S
O359 Li297 1.961 . S
O359 Li298 1.970 . S
O359 Li299 1.956 . S
O359 C334 1.325 . S
H360 C302 0.929 . S
H361 C303 0.930 . S
H362 C304 0.930 . S
H363 C305 0.930 . S
H364 C307 0.930 . S
H365 C309 0.929 . S
H366 C310 0.930 . S
H367 C311 0.930 . S
H368 C314 0.930 . S
H369 C317 0.929 . S
H370 C322 0.929 . S
H371 C323 0.930 . S
H372 C330 0.929 . S
H373 C331 0.930 . S
H374 C332 0.930 . S
H375 C333 0.930 . S
H376 C335 0.929 . S
H377 C336 0.930 . S
H378 C337 0.930 . S
H379 C338 0.930 . S
H380 C342 0.929 . S
H381 C344 0.930 . S
H382 C350 0.929 . S
H383 C351 0.930 . S
Li384 N401 1.990 . S
Li384 O444 1.956 . S
Li384 O445 1.970 . S
Li384 O446 1.961 . S
Li385 N409 1.990 . S
Li385 O444 1.970 . S
Li385 O445 1.956 . S
Li385 O447 1.961 . S
Li386 N431 1.990 1_554 S
Li386 O444 1.961 . S
Li386 O446 1.956 . S
Li386 O447 1.970 . S
Li387 N437 1.990 . S
Li387 O445 1.961 . S
Li387 O446 1.970 . S
Li387 O447 1.956 . S
C388 C390 1.348 . S
C388 C391 1.356 . S
C388 O444 1.325 . S
N389 C392 1.314 . S
N389 C393 1.279 . S
C390 C388 1.348 . S
C390 C392 1.353 . S
C390 H448 0.929 . S
C391 C388 1.356 . S
C391 C393 1.358 . S
C391 H449 0.930 1_554 S
C392 N389 1.314 . S
C392 C390 1.353 . S
C392 H450 0.930 . S
C393 N389 1.279 . S
C393 C391 1.358 . S
C393 H451 0.930 1_554 S
C394 C397 1.348 . S
C394 C398 1.356 . S
C394 O445 1.325 . S
C395 N396 1.279 . S
C395 C398 1.358 . S
C395 H452 0.930 . S
N396 C395 1.279 . S
N396 C399 1.314 . S
C397 C394 1.348 . S
C397 C399 1.353 . S
C397 H453 0.929 . S
C398 C394 1.356 . S
C398 C395 1.358 . S
C398 H454 0.930 . S
C399 N396 1.314 . S
C399 C397 1.353 . S
C399 H455 0.930 . S
C400 N401 1.314 . S
C400 C405 1.353 . S
C400 H406 0.930 . S
N401 Li384 1.990 . S
N401 C400 1.314 . S
N401 C403 1.279 . S
C402 C403 1.358 . S
C402 C404 1.356 . S
C402 H456 0.930 . S
C403 N401 1.279 . S
C403 C402 1.358 . S
C403 H407 0.930 . S
C404 C402 1.356 . S
C404 C405 1.348 . S
C405 C400 1.353 . S
C405 C404 1.348 . S
C405 H457 0.929 . S
H406 C400 0.930 . S
H407 C403 0.930 . S
C408 N409 1.314 . S
C408 C410 1.353 . S
C408 H414 0.930 . S
N409 Li385 1.990 . S
N409 C408 1.314 . S
N409 C412 1.279 . S
C410 C408 1.353 . S
C410 C413 1.348 . S
C410 H458 0.929 . S
C411 C412 1.358 . S
C411 C413 1.356 . S
C411 H459 0.930 . S
C412 N409 1.279 . S
C412 C411 1.358 . S
C412 H415 0.930 . S
C413 C410 1.348 . S
C413 C411 1.356 . S
H414 C408 0.930 . S
H415 C412 0.930 . S
C416 C418 1.348 . S
C416 C419 1.356 . S
C416 O446 1.325 1_556 S
N417 C420 1.314 . S
N417 C421 1.279 . S
C418 C416 1.348 . S
C418 C420 1.353 . S
C418 H460 0.929 1_556 S
C419 C416 1.356 . S
C419 C421 1.358 . S
C419 H461 0.930 . S
C420 N417 1.314 . S
C420 C418 1.353 . S
C420 H462 0.930 . S
C421 N417 1.279 . S
C421 C419 1.358 . S
C421 H463 0.930 . S
C422 C423 1.348 . S
C422 C424 1.356 . S
C422 O447 1.325 . S
C423 C422 1.348 . S
C423 C425 1.353 . S
C423 H464 0.929 . S
C424 C422 1.356 . S
C424 C426 1.358 . S
C424 H465 0.930 . S
C425 C423 1.353 . S
C425 N427 1.314 . S
C425 H466 0.930 . S
C426 C424 1.358 . S
C426 N427 1.279 . S
C426 H467 0.930 . S
N427 C425 1.314 . S
N427 C426 1.279 . S
C428 C430 1.353 . S
C428 N431 1.314 . S
C428 H434 0.930 1_556 S
C429 N431 1.279 . S
C429 C432 1.358 . S
C429 H435 0.930 . S
C430 C428 1.353 . S
C430 C433 1.348 . S
C430 H468 0.929 . S
N431 Li386 1.990 1_556 S
N431 C428 1.314 . S
N431 C429 1.279 . S
C432 C429 1.358 . S
C432 C433 1.356 . S
C432 H469 0.930 . S
C433 C430 1.348 . S
C433 C432 1.356 . S
H434 C428 0.930 1_554 S
H435 C429 0.930 . S
C436 N437 1.314 . S
C436 C438 1.353 . S
C436 H442 0.930 . S
N437 Li387 1.990 . S
N437 C436 1.314 . S
N437 C440 1.279 . S
C438 C436 1.353 . S
C438 C441 1.348 . S
C438 H470 0.929 . S
C439 C440 1.358 . S
C439 C441 1.356 . S
C439 H471 0.930 . S
C440 N437 1.279 . S
C440 C439 1.358 . S
C440 H443 0.930 . S
C441 C438 1.348 . S
C441 C439 1.356 . S
H442 C436 0.930 . S
H443 C440 0.930 . S
O444 Li384 1.956 . S
O444 Li385 1.970 . S
O444 Li386 1.961 . S
O444 C388 1.325 . S
O445 Li384 1.970 . S
O445 Li385 1.956 . S
O445 Li387 1.961 . S
O445 C394 1.325 . S
O446 Li384 1.961 . S
O446 Li386 1.956 . S
O446 Li387 1.970 . S
O446 C416 1.325 1_554 S
O447 Li385 1.961 . S
O447 Li386 1.970 . S
O447 Li387 1.956 . S
O447 C422 1.325 . S
H448 C390 0.929 . S
H449 C391 0.930 1_556 S
H450 C392 0.930 . S
H451 C393 0.930 1_556 S
H452 C395 0.930 . S
H453 C397 0.929 . S
H454 C398 0.930 . S
H455 C399 0.930 . S
H456 C402 0.930 . S
H457 C405 0.929 . S
H458 C410 0.929 . S
H459 C411 0.930 . S
H460 C418 0.929 1_554 S
H461 C419 0.930 . S
H462 C420 0.930 . S
H463 C421 0.930 . S
H464 C423 0.929 . S
H465 C424 0.930 . S
H466 C425 0.930 . S
H467 C426 0.930 . S
H468 C430 0.929 . S
H469 C432 0.930 . S
H470 C438 0.929 . S
H471 C439 0.930 . S
Li472 N489 1.990 . S
Li472 O532 1.956 . S
Li472 O533 1.970 . S
Li472 O534 1.961 . S
Li473 N497 1.990 . S
Li473 O532 1.970 . S
Li473 O533 1.956 . S
Li473 O535 1.961 1_545 S
Li474 N519 1.990 . S
Li474 O532 1.961 . S
Li474 O534 1.956 . S
Li474 O535 1.970 1_545 S
Li475 N525 1.990 . S
Li475 O533 1.961 1_565 S
Li475 O534 1.970 1_565 S
Li475 O535 1.956 . S
C476 C478 1.348 . S
C476 C479 1.356 . S
C476 O532 1.325 . S
N477 C480 1.314 . S
N477 C481 1.279 . S
C478 C476 1.348 . S
C478 C480 1.353 . S
C478 H536 0.929 . S
C479 C476 1.356 . S
C479 C481 1.358 . S
C479 H537 0.930 . S
C480 N477 1.314 . S
C480 C478 1.353 . S
C480 H538 0.930 . S
C481 N477 1.279 . S
C481 C479 1.358 . S
C481 H539 0.930 . S
C482 C485 1.348 . S
C482 C486 1.356 1_545 S
C482 O533 1.325 . S
C483 N484 1.279 1_565 S
C483 C486 1.358 . S
C483 H540 0.930 . S
N484 C483 1.279 1_545 S
N484 C487 1.314 . S
C485 C482 1.348 . S
C485 C487 1.353 . S
C485 H541 0.929 . S
C486 C482 1.356 1_565 S
C486 C483 1.358 . S
C486 H542 0.930 . S
C487 N484 1.314 . S
C487 C485 1.353 . S
C487 H543 0.930 . S
C488 N489 1.314 . S
C488 C493 1.353 . S
C488 H494 0.930 . S
N489 Li472 1.990 . S
N489 C488 1.314 . S
N489 C491 1.279 . S
C490 C491 1.358 . S
C490 C492 1.356 . S
C490 H544 0.930 . S
C491 N489 1.279 . S
C491 C490 1.358 . S
C491 H495 0.930 . S
C492 C490 1.356 . S
C492 C493 1.348 . S
C493 C488 1.353 . S
C493 C492 1.348 . S
C493 H545 0.929 . S
H494 C488 0.930 . S
H495 C491 0.930 . S
C496 N497 1.314 . S
C496 C498 1.353 . S
C496 H502 0.930 . S
N497 Li473 1.990 . S
N497 C496 1.314 . S
N497 C500 1.279 . S
C498 C496 1.353 . S
C498 C501 1.348 . S
C498 H546 0.929 1_545 S
C499 C500 1.358 . S
C499 C501 1.356 . S
C499 H547 0.930 . S
C500 N497 1.279 . S
C500 C499 1.358 . S
C500 H503 0.930 . S
C501 C498 1.348 . S
C501 C499 1.356 . S
H502 C496 0.930 . S
H503 C500 0.930 . S
C504 C506 1.348 . S
C504 C507 1.356 . S
C504 O534 1.325 . S
N505 C508 1.314 . S
N505 C509 1.279 . S
C506 C504 1.348 . S
C506 C508 1.353 . S
C506 H548 0.929 1_545 S
C507 C504 1.356 . S
C507 C509 1.358 . S
C507 H549 0.930 . S
C508 N505 1.314 . S
C508 C506 1.353 . S
C508 H550 0.930 1_545 S
C509 N505 1.279 . S
C509 C507 1.358 . S
C509 H551 0.930 . S
C510 C511 1.348 . S
C510 C512 1.356 . S
C510 O535 1.325 . S
C511 C510 1.348 . S
C511 C513 1.353 . S
C511 H552 0.929 . S
C512 C510 1.356 . S
C512 C514 1.358 . S
C512 H553 0.930 . S
C513 C511 1.353 . S
C513 N515 1.314 . S
C513 H554 0.930 . S
C514 C512 1.358 . S
C514 N515 1.279 . S
C514 H555 0.930 . S
N515 C513 1.314 . S
N515 C514 1.279 . S
C516 C518 1.353 . S
C516 N519 1.314 . S
C516 H522 0.930 . S
C517 N519 1.279 . S
C517 C520 1.358 . S
C517 H523 0.930 . S
C518 C516 1.353 . S
C518 C521 1.348 . S
C518 H556 0.929 . S
N519 Li474 1.990 . S
N519 C516 1.314 . S
N519 C517 1.279 . S
C520 C517 1.358 . S
C520 C521 1.356 . S
C520 H557 0.930 . S
C521 C518 1.348 . S
C521 C520 1.356 . S
H522 C516 0.930 . S
H523 C517 0.930 . S
C524 N525 1.314 . S
C524 C526 1.353 . S
C524 H530 0.930 . S
N525 Li475 1.990 . S
N525 C524 1.314 . S
N525 C528 1.279 . S
C526 C524 1.353 . S
C526 C529 1.348 . S
C526 H558 0.929 . S
C527 C528 1.358 . S
C527 C529 1.356 . S
C527 H559 0.930 . S
C528 N525 1.279 . S
C528 C527 1.358 . S
C528 H531 0.930 . S
C529 C526 1.348 . S
C529 C527 1.356 . S
H530 C524 0.930 . S
H531 C528 0.930 . S
O532 Li472 1.956 . S
O532 Li473 1.970 . S
O532 Li474 1.961 . S
O532 C476 1.325 . S
O533 Li472 1.970 . S
O533 Li473 1.956 . S
O533 Li475 1.961 1_545 S
O533 C482 1.325 . S
O534 Li472 1.961 . S
O534 Li474 1.956 . S
O534 Li475 1.970 1_545 S
O534 C504 1.325 . S
O535 Li473 1.961 1_565 S
O535 Li474 1.970 1_565 S
O535 Li475 1.956 . S
O535 C510 1.325 . S
H536 C478 0.929 . S
H537 C479 0.930 . S
H538 C480 0.930 . S
H539 C481 0.930 . S
H540 C483 0.930 . S
H541 C485 0.929 . S
H542 C486 0.930 . S
H543 C487 0.930 . S
H544 C490 0.930 . S
H545 C493 0.929 . S
H546 C498 0.929 1_565 S
H547 C499 0.930 . S
H548 C506 0.929 1_565 S
H549 C507 0.930 . S
H550 C508 0.930 1_565 S
H551 C509 0.930 . S
H552 C511 0.929 . S
H553 C512 0.930 . S
H554 C513 0.930 . S
H555 C514 0.930 . S
H556 C518 0.929 . S
H557 C520 0.930 . S
H558 C526 0.929 . S
H559 C527 0.930 . S
Li560 N577 1.990 . S
Li560 O620 1.956 . S
Li560 O621 1.970 . S
Li560 O622 1.961 . S
Li561 N585 1.990 . S
Li561 O620 1.970 . S
Li561 O621 1.956 . S
Li561 O623 1.961 . S
Li562 N607 1.990 . S
Li562 O620 1.961 . S
Li562 O622 1.956 . S
Li562 O623 1.970 . S
Li563 N613 1.990 . S
Li563 O621 1.961 . S
Li563 O622 1.970 . S
Li563 O623 1.956 . S
C564 C566 1.348 . S
C564 C567 1.356 . S
C564 O620 1.325 . S
N565 C568 1.314 . S
N565 C569 1.279 . S
C566 C564 1.348 . S
C566 C568 1.353 . S
C566 H624 0.929 . S
C567 C564 1.356 . S
C567 C569 1.358 . S
C567 H625 0.930 . S
C568 N565 1.314 . S
C568 C566 1.353 . S
C568 H626 0.930 . S
C569 N565 1.279 . S
C569 C567 1.358 . S
C569 H627 0.930 . S
C570 C573 1.348 . S
C570 C574 1.356 . S
C570 O621 1.325 . S
C571 N572 1.279 . S
C571 C574 1.358 . S
C571 H628 0.930 . S
N572 C571 1.279 . S
N572 C575 1.314 . S
C573 C570 1.348 . S
C573 C575 1.353 . S
C573 H629 0.929 . S
C574 C570 1.356 . S
C574 C571 1.358 . S
C574 H630 0.930 . S
C575 N572 1.314 . S
C575 C573 1.353 . S
C575 H631 0.930 . S
C576 N577 1.314 . S
C576 C581 1.353 . S
C576 H582 0.930 . S
N577 Li560 1.990 . S
N577 C576 1.314 . S
N577 C579 1.279 . S
C578 C579 1.358 . S
C578 C580 1.356 . S
C578 H632 0.930 . S
C579 N577 1.279 . S
C579 C578 1.358 . S
C579 H583 0.930 . S
C580 C578 1.356 . S
C580 C581 1.348 . S
C581 C576 1.353 . S
C581 C580 1.348 . S
C581 H633 0.929 . S
H582 C576 0.930 . S
H583 C579 0.930 . S
C584 N585 1.314 . S
C584 C586 1.353 . S
C584 H590 0.930 . S
N585 Li561 1.990 . S
N585 C584 1.314 . S
N585 C588 1.279 . S
C586 C584 1.353 . S
C586 C589 1.348 . S
C586 H634 0.929 . S
C587 C588 1.358 . S
C587 C589 1.356 . S
C587 H635 0.930 . S
C588 N585 1.279 . S
C588 C587 1.358 . S
C588 H591 0.930 . S
C589 C586 1.348 . S
C589 C587 1.356 . S
H590 C584 0.930 . S
H591 C588 0.930 . S
C592 C594 1.348 . S
C592 C595 1.356 . S
C592 O622 1.325 . S
N593 C596 1.314 . S
N593 C597 1.279 . S
C594 C592 1.348 . S
C594 C596 1.353 . S
C594 H636 0.929 . S
C595 C592 1.356 . S
C595 C597 1.358 . S
C595 H637 0.930 . S
C596 N593 1.314 . S
C596 C594 1.353 . S
C596 H638 0.930 . S
C597 N593 1.279 . S
C597 C595 1.358 . S
C597 H639 0.930 . S
C598 C599 1.348 . S
C598 C600 1.356 . S
C598 O623 1.325 . S
C599 C598 1.348 . S
C599 C601 1.353 . S
C599 H640 0.929 . S
C600 C598 1.356 . S
C600 C602 1.358 . S
C600 H641 0.930 . S
C601 C599 1.353 . S
C601 N603 1.314 . S
C601 H642 0.930 . S
C602 C600 1.358 . S
C602 N603 1.279 . S
C602 H643 0.930 . S
N603 C601 1.314 . S
N603 C602 1.279 . S
C604 C606 1.353 . S
C604 N607 1.314 . S
C604 H610 0.930 . S
C605 N607 1.279 . S
C605 C608 1.358 . S
C605 H611 0.930 . S
C606 C604 1.353 . S
C606 C609 1.348 . S
C606 H644 0.929 . S
N607 Li562 1.990 . S
N607 C604 1.314 . S
N607 C605 1.279 . S
C608 C605 1.358 . S
C608 C609 1.356 . S
C608 H645 0.930 . S
C609 C606 1.348 . S
C609 C608 1.356 . S
H610 C604 0.930 . S
H611 C605 0.930 . S
C612 N613 1.314 . S
C612 C614 1.353 . S
C612 H618 0.930 . S
N613 Li563 1.990 . S
N613 C612 1.314 . S
N613 C616 1.279 . S
C614 C612 1.353 . S
C614 C617 1.348 . S
C614 H646 0.929 . S
C615 C616 1.358 . S
C615 C617 1.356 . S
C615 H647 0.930 . S
C616 N613 1.279 . S
C616 C615 1.358 . S
C616 H619 0.930 . S
C617 C614 1.348 . S
C617 C615 1.356 . S
H618 C612 0.930 . S
H619 C616 0.930 . S
O620 Li560 1.956 . S
O620 Li561 1.970 . S
O620 Li562 1.961 . S
O620 C564 1.325 . S
O621 Li560 1.970 . S
O621 Li561 1.956 . S
O621 Li563 1.961 . S
O621 C570 1.325 . S
O622 Li560 1.961 . S
O622 Li562 1.956 . S
O622 Li563 1.970 . S
O622 C592 1.325 . S
O623 Li561 1.961 . S
O623 Li562 1.970 . S
O623 Li563 1.956 . S
O623 C598 1.325 . S
H624 C566 0.929 . S
H625 C567 0.930 . S
H626 C568 0.930 . S
H627 C569 0.930 . S
H628 C571 0.930 . S
H629 C573 0.929 . S
H630 C574 0.930 . S
H631 C575 0.930 . S
H632 C578 0.930 . S
H633 C581 0.929 . S
H634 C586 0.929 . S
H635 C587 0.930 . S
H636 C594 0.929 . S
H637 C595 0.930 . S
H638 C596 0.930 . S
H639 C597 0.930 . S
H640 C599 0.929 . S
H641 C600 0.930 . S
H642 C601 0.930 . S
H643 C602 0.930 . S
H644 C606 0.929 . S
H645 C608 0.930 . S
H646 C614 0.929 . S
H647 C615 0.930 . S
Li648 N665 1.990 . S
Li648 O708 1.956 . S
Li648 O709 1.970 . S
Li648 O710 1.961 . S
Li649 N673 1.990 . S
Li649 O708 1.970 . S
Li649 O709 1.956 . S
Li649 O711 1.961 . S
Li650 N695 1.990 . S
Li650 O708 1.961 . S
Li650 O710 1.956 . S
Li650 O711 1.970 . S
Li651 N701 1.990 . S
Li651 O709 1.961 . S
Li651 O710 1.970 . S
Li651 O711 1.956 . S
C652 C654 1.348 . S
C652 C655 1.356 . S
C652 O708 1.325 . S
N653 C656 1.314 . S
N653 C657 1.279 . S
C654 C652 1.348 . S
C654 C656 1.353 . S
C654 H712 0.929 . S
C655 C652 1.356 . S
C655 C657 1.358 . S
C655 H713 0.930 . S
C656 N653 1.314 . S
C656 C654 1.353 . S
C656 H714 0.930 . S
C657 N653 1.279 . S
C657 C655 1.358 . S
C657 H715 0.930 . S
C658 C661 1.348 . S
C658 C662 1.356 . S
C658 O709 1.325 . S
C659 N660 1.279 . S
C659 C662 1.358 . S
C659 H716 0.930 . S
N660 C659 1.279 . S
N660 C663 1.314 . S
C661 C658 1.348 . S
C661 C663 1.353 . S
C661 H717 0.929 . S
C662 C658 1.356 . S
C662 C659 1.358 . S
C662 H718 0.930 . S
C663 N660 1.314 . S
C663 C661 1.353 . S
C663 H719 0.930 . S
C664 N665 1.314 . S
C664 C669 1.353 . S
C664 H670 0.930 . S
N665 Li648 1.990 . S
N665 C664 1.314 . S
N665 C667 1.279 . S
C666 C667 1.358 . S
C666 C668 1.356 . S
C666 H720 0.930 . S
C667 N665 1.279 . S
C667 C666 1.358 . S
C667 H671 0.930 . S
C668 C666 1.356 . S
C668 C669 1.348 . S
C669 C664 1.353 . S
C669 C668 1.348 . S
C669 H721 0.929 . S
H670 C664 0.930 . S
H671 C667 0.930 . S
C672 N673 1.314 . S
C672 C674 1.353 . S
C672 H678 0.930 . S
N673 Li649 1.990 . S
N673 C672 1.314 . S
N673 C676 1.279 . S
C674 C672 1.353 . S
C674 C677 1.348 . S
C674 H722 0.929 . S
C675 C676 1.358 . S
C675 C677 1.356 . S
C675 H723 0.930 . S
C676 N673 1.279 . S
C676 C675 1.358 . S
C676 H679 0.930 . S
C677 C674 1.348 . S
C677 C675 1.356 . S
H678 C672 0.930 . S
H679 C676 0.930 . S
C680 C682 1.348 . S
C680 C683 1.356 . S
C680 O710 1.325 . S
N681 C684 1.314 . S
N681 C685 1.279 . S
C682 C680 1.348 . S
C682 C684 1.353 . S
C682 H724 0.929 . S
C683 C680 1.356 . S
C683 C685 1.358 . S
C683 H725 0.930 . S
C684 N681 1.314 . S
C684 C682 1.353 . S
C684 H726 0.930 . S
C685 N681 1.279 . S
C685 C683 1.358 . S
C685 H727 0.930 . S
C686 C687 1.348 . S
C686 C688 1.356 . S
C686 O711 1.325 . S
C687 C686 1.348 . S
C687 C689 1.353 . S
C687 H728 0.929 . S
C688 C686 1.356 . S
C688 C690 1.358 . S
C688 H729 0.930 . S
C689 C687 1.353 . S
C689 N691 1.314 . S
C689 H730 0.930 . S
C690 C688 1.358 . S
C690 N691 1.279 . S
C690 H731 0.930 . S
N691 C689 1.314 . S
N691 C690 1.279 . S
C692 C694 1.353 . S
C692 N695 1.314 . S
C692 H698 0.930 . S
C693 N695 1.279 . S
C693 C696 1.358 . S
C693 H699 0.930 . S
C694 C692 1.353 . S
C694 C697 1.348 . S
C694 H732 0.929 . S
N695 Li650 1.990 . S
N695 C692 1.314 . S
N695 C693 1.279 . S
C696 C693 1.358 . S
C696 C697 1.356 . S
C696 H733 0.930 . S
C697 C694 1.348 . S
C697 C696 1.356 . S
H698 C692 0.930 . S
H699 C693 0.930 . S
C700 N701 1.314 . S
C700 C702 1.353 . S
C700 H706 0.930 . S
N701 Li651 1.990 . S
N701 C700 1.314 . S
N701 C704 1.279 . S
C702 C700 1.353 . S
C702 C705 1.348 . S
C702 H734 0.929 . S
C703 C704 1.358 . S
C703 C705 1.356 . S
C703 H735 0.930 . S
C704 N701 1.279 . S
C704 C703 1.358 . S
C704 H707 0.930 . S
C705 C702 1.348 . S
C705 C703 1.356 . S
H706 C700 0.930 . S
H707 C704 0.930 . S
O708 Li648 1.956 . S
O708 Li649 1.970 . S
O708 Li650 1.961 . S
O708 C652 1.325 . S
O709 Li648 1.970 . S
O709 Li649 1.956 . S
O709 Li651 1.961 . S
O709 C658 1.325 . S
O710 Li648 1.961 . S
O710 Li650 1.956 . S
O710 Li651 1.970 . S
O710 C680 1.325 . S
O711 Li649 1.961 . S
O711 Li650 1.970 . S
O711 Li651 1.956 . S
O711 C686 1.325 . S
H712 C654 0.929 . S
H713 C655 0.930 . S
H714 C656 0.930 . S
H715 C657 0.930 . S
H716 C659 0.930 . S
H717 C661 0.929 . S
H718 C662 0.930 . S
H719 C663 0.930 . S
H720 C666 0.930 . S
H721 C669 0.929 . S
H722 C674 0.929 . S
H723 C675 0.930 . S
H724 C682 0.929 . S
H725 C683 0.930 . S
H726 C684 0.930 . S
H727 C685 0.930 . S
H728 C687 0.929 . S
H729 C688 0.930 . S
H730 C689 0.930 . S
H731 C690 0.930 . S
H732 C694 0.929 . S
H733 C696 0.930 . S
H734 C702 0.929 . S
H735 C703 0.930 . S
Li736 N753 1.990 . S
Li736 O796 1.956 . S
Li736 O797 1.970 . S
Li736 O798 1.961 . S
Li737 N761 1.990 . S
Li737 O796 1.970 . S
Li737 O797 1.956 . S
Li737 O799 1.961 . S
Li738 N783 1.990 . S
Li738 O796 1.961 . S
Li738 O798 1.956 . S
Li738 O799 1.970 . S
Li739 N789 1.990 . S
Li739 O797 1.961 . S
Li739 O798 1.970 . S
Li739 O799 1.956 . S
C740 C742 1.348 . S
C740 C743 1.356 . S
C740 O796 1.325 . S
N741 C744 1.314 . S
N741 C745 1.279 . S
C742 C740 1.348 . S
C742 C744 1.353 . S
C742 H800 0.929 . S
C743 C740 1.356 . S
C743 C745 1.358 . S
C743 H801 0.930 . S
C744 N741 1.314 . S
C744 C742 1.353 . S
C744 H802 0.930 . S
C745 N741 1.279 . S
C745 C743 1.358 . S
C745 H803 0.930 . S
C746 C749 1.348 . S
C746 C750 1.356 . S
C746 O797 1.325 . S
C747 N748 1.279 . S
C747 C750 1.358 . S
C747 H804 0.930 . S
N748 C747 1.279 . S
N748 C751 1.314 . S
C749 C746 1.348 . S
C749 C751 1.353 . S
C749 H805 0.929 . S
C750 C746 1.356 . S
C750 C747 1.358 . S
C750 H806 0.930 . S
C751 N748 1.314 . S
C751 C749 1.353 . S
C751 H807 0.930 . S
C752 N753 1.314 . S
C752 C757 1.353 . S
C752 H758 0.930 . S
N753 Li736 1.990 . S
N753 C752 1.314 . S
N753 C755 1.279 . S
C754 C755 1.358 . S
C754 C756 1.356 . S
C754 H808 0.930 . S
C755 N753 1.279 . S
C755 C754 1.358 . S
C755 H759 0.930 . S
C756 C754 1.356 . S
C756 C757 1.348 . S
C757 C752 1.353 . S
C757 C756 1.348 . S
C757 H809 0.929 . S
H758 C752 0.930 . S
H759 C755 0.930 . S
C760 N761 1.314 . S
C760 C762 1.353 . S
C760 H766 0.930 . S
N761 Li737 1.990 . S
N761 C760 1.314 . S
N761 C764 1.279 . S
C762 C760 1.353 . S
C762 C765 1.348 . S
C762 H810 0.929 . S
C763 C764 1.358 . S
C763 C765 1.356 . S
C763 H811 0.930 . S
C764 N761 1.279 . S
C764 C763 1.358 . S
C764 H767 0.930 . S
C765 C762 1.348 . S
C765 C763 1.356 . S
H766 C760 0.930 . S
H767 C764 0.930 . S
C768 C770 1.348 . S
C768 C771 1.356 . S
C768 O798 1.325 . S
N769 C772 1.314 . S
N769 C773 1.279 . S
C770 C768 1.348 . S
C770 C772 1.353 . S
C770 H812 0.929 . S
C771 C768 1.356 . S
C771 C773 1.358 . S
C771 H813 0.930 . S
C772 N769 1.314 . S
C772 C770 1.353 . S
C772 H814 0.930 . S
C773 N769 1.279 . S
C773 C771 1.358 . S
C773 H815 0.930 . S
C774 C775 1.348 . S
C774 C776 1.356 . S
C774 O799 1.325 . S
C775 C774 1.348 . S
C775 C777 1.353 . S
C775 H816 0.929 . S
C776 C774 1.356 . S
C776 C778 1.358 . S
C776 H817 0.930 . S
C777 C775 1.353 . S
C777 N779 1.314 . S
C777 H818 0.930 . S
C778 C776 1.358 . S
C778 N779 1.279 . S
C778 H819 0.930 . S
N779 C777 1.314 . S
N779 C778 1.279 . S
C780 C782 1.353 . S
C780 N783 1.314 . S
C780 H786 0.930 . S
C781 N783 1.279 . S
C781 C784 1.358 . S
C781 H787 0.930 . S
C782 C780 1.353 . S
C782 C785 1.348 . S
C782 H820 0.929 . S
N783 Li738 1.990 . S
N783 C780 1.314 . S
N783 C781 1.279 . S
C784 C781 1.358 . S
C784 C785 1.356 . S
C784 H821 0.930 . S
C785 C782 1.348 . S
C785 C784 1.356 . S
H786 C780 0.930 . S
H787 C781 0.930 . S
C788 N789 1.314 . S
C788 C790 1.353 . S
C788 H794 0.930 . S
N789 Li739 1.990 . S
N789 C788 1.314 . S
N789 C792 1.279 . S
C790 C788 1.353 . S
C790 C793 1.348 . S
C790 H822 0.929 . S
C791 C792 1.358 . S
C791 C793 1.356 . S
C791 H823 0.930 . S
C792 N789 1.279 . S
C792 C791 1.358 . S
C792 H795 0.930 . S
C793 C790 1.348 . S
C793 C791 1.356 . S
H794 C788 0.930 . S
H795 C792 0.930 . S
O796 Li736 1.956 . S
O796 Li737 1.970 . S
O796 Li738 1.961 . S
O796 C740 1.325 . S
O797 Li736 1.970 . S
O797 Li737 1.956 . S
O797 Li739 1.961 . S
O797 C746 1.325 . S
O798 Li736 1.961 . S
O798 Li738 1.956 . S
O798 Li739 1.970 . S
O798 C768 1.325 . S
O799 Li737 1.961 . S
O799 Li738 1.970 . S
O799 Li739 1.956 . S
O799 C774 1.325 . S
H800 C742 0.929 . S
H801 C743 0.930 . S
H802 C744 0.930 . S
H803 C745 0.930 . S
H804 C747 0.930 . S
H805 C749 0.929 . S
H806 C750 0.930 . S
H807 C751 0.930 . S
H808 C754 0.930 . S
H809 C757 0.929 . S
H810 C762 0.929 . S
H811 C763 0.930 . S
H812 C770 0.929 . S
H813 C771 0.930 . S
H814 C772 0.930 . S
H815 C773 0.930 . S
H816 C775 0.929 . S
H817 C776 0.930 . S
H818 C777 0.930 . S
H819 C778 0.930 . S
H820 C782 0.929 . S
H821 C784 0.930 . S
H822 C790 0.929 . S
H823 C791 0.930 . S
Li824 N841 1.990 . S
Li824 O884 1.956 . S
Li824 O885 1.970 1_565 S
Li824 O886 1.961 . S
Li825 N849 1.990 . S
Li825 O884 1.970 1_545 S
Li825 O885 1.956 . S
Li825 O887 1.961 . S
Li826 N871 1.990 . S
Li826 O884 1.961 . S
Li826 O886 1.956 . S
Li826 O887 1.970 1_565 S
Li827 N877 1.990 . S
Li827 O885 1.961 . S
Li827 O886 1.970 1_545 S
Li827 O887 1.956 . S
C828 C830 1.348 . S
C828 C831 1.356 . S
C828 O884 1.325 . S
N829 C832 1.314 . S
N829 C833 1.279 . S
C830 C828 1.348 . S
C830 C832 1.353 . S
C830 H888 0.929 . S
C831 C828 1.356 . S
C831 C833 1.358 . S
C831 H889 0.930 . S
C832 N829 1.314 . S
C832 C830 1.353 . S
C832 H890 0.930 . S
C833 N829 1.279 . S
C833 C831 1.358 . S
C833 H891 0.930 . S
C834 C837 1.348 1_545 S
C834 C838 1.356 . S
C834 O885 1.325 . S
C835 N836 1.279 . S
C835 C838 1.358 . S
C835 H892 0.930 . S
N836 C835 1.279 . S
N836 C839 1.314 . S
C837 C834 1.348 1_565 S
C837 C839 1.353 1_565 S
C837 H893 0.929 . S
C838 C834 1.356 . S
C838 C835 1.358 . S
C838 H894 0.930 . S
C839 N836 1.314 . S
C839 C837 1.353 1_545 S
C839 H895 0.930 1_545 S
C840 N841 1.314 . S
C840 C845 1.353 . S
C840 H846 0.930 . S
N841 Li824 1.990 . S
N841 C840 1.314 . S
N841 C843 1.279 . S
C842 C843 1.358 . S
C842 C844 1.356 . S
C842 H896 0.930 . S
C843 N841 1.279 . S
C843 C842 1.358 . S
C843 H847 0.930 . S
C844 C842 1.356 . S
C844 C845 1.348 . S
C845 C840 1.353 . S
C845 C844 1.348 . S
C845 H897 0.929 . S
H846 C840 0.930 . S
H847 C843 0.930 . S
C848 N849 1.314 . S
C848 C850 1.353 . S
C848 H854 0.930 . S
N849 Li825 1.990 . S
N849 C848 1.314 . S
N849 C852 1.279 . S
C850 C848 1.353 . S
C850 C853 1.348 . S
C850 H898 0.929 . S
C851 C852 1.358 . S
C851 C853 1.356 . S
C851 H899 0.930 . S
C852 N849 1.279 . S
C852 C851 1.358 . S
C852 H855 0.930 . S
C853 C850 1.348 . S
C853 C851 1.356 . S
H854 C848 0.930 . S
H855 C852 0.930 . S
C856 C858 1.348 1_565 S
C856 C859 1.356 . S
C856 O886 1.325 . S
N857 C860 1.314 1_565 S
N857 C861 1.279 . S
C858 C856 1.348 1_545 S
C858 C860 1.353 . S
C858 H900 0.929 . S
C859 C856 1.356 . S
C859 C861 1.358 . S
C859 H901 0.930 . S
C860 N857 1.314 1_545 S
C860 C858 1.353 . S
C860 H902 0.930 . S
C861 N857 1.279 . S
C861 C859 1.358 . S
C861 H903 0.930 . S
C862 C863 1.348 . S
C862 C864 1.356 . S
C862 O887 1.325 . S
C863 C862 1.348 . S
C863 C865 1.353 . S
C863 H904 0.929 . S
C864 C862 1.356 . S
C864 C866 1.358 . S
C864 H905 0.930 . S
C865 C863 1.353 . S
C865 N867 1.314 . S
C865 H906 0.930 . S
C866 C864 1.358 . S
C866 N867 1.279 . S
C866 H907 0.930 . S
N867 C865 1.314 . S
N867 C866 1.279 . S
C868 C870 1.353 . S
C868 N871 1.314 . S
C868 H874 0.930 . S
C869 N871 1.279 . S
C869 C872 1.358 . S
C869 H875 0.930 . S
C870 C868 1.353 . S
C870 C873 1.348 . S
C870 H908 0.929 . S
N871 Li826 1.990 . S
N871 C868 1.314 . S
N871 C869 1.279 . S
C872 C869 1.358 . S
C872 C873 1.356 . S
C872 H909 0.930 . S
C873 C870 1.348 . S
C873 C872 1.356 . S
H874 C868 0.930 . S
H875 C869 0.930 . S
C876 N877 1.314 . S
C876 C878 1.353 . S
C876 H882 0.930 . S
N877 Li827 1.990 . S
N877 C876 1.314 . S
N877 C880 1.279 . S
C878 C876 1.353 . S
C878 C881 1.348 . S
C878 H910 0.929 . S
C879 C880 1.358 . S
C879 C881 1.356 . S
C879 H911 0.930 . S
C880 N877 1.279 . S
C880 C879 1.358 . S
C880 H883 0.930 . S
C881 C878 1.348 . S
C881 C879 1.356 . S
H882 C876 0.930 . S
H883 C880 0.930 . S
O884 Li824 1.956 . S
O884 Li825 1.970 1_565 S
O884 Li826 1.961 . S
O884 C828 1.325 . S
O885 Li824 1.970 1_545 S
O885 Li825 1.956 . S
O885 Li827 1.961 . S
O885 C834 1.325 . S
O886 Li824 1.961 . S
O886 Li826 1.956 . S
O886 Li827 1.970 1_565 S
O886 C856 1.325 . S
O887 Li825 1.961 . S
O887 Li826 1.970 1_545 S
O887 Li827 1.956 . S
O887 C862 1.325 . S
H888 C830 0.929 . S
H889 C831 0.930 . S
H890 C832 0.930 . S
H891 C833 0.930 . S
H892 C835 0.930 . S
H893 C837 0.929 . S
H894 C838 0.930 . S
H895 C839 0.930 1_565 S
H896 C842 0.930 . S
H897 C845 0.929 . S
H898 C850 0.929 . S
H899 C851 0.930 . S
H900 C858 0.929 . S
H901 C859 0.930 . S
H902 C860 0.930 . S
H903 C861 0.930 . S
H904 C863 0.929 . S
H905 C864 0.930 . S
H906 C865 0.930 . S
H907 C866 0.930 . S
H908 C870 0.929 . S
H909 C872 0.930 . S
H910 C878 0.929 . S
H911 C879 0.930 . S
Li912 N929 1.990 . S
Li912 O972 1.956 . S
Li912 O973 1.946 1_455 S
Li912 O974 1.987 . S
Li913 N937 1.990 . S
Li913 O972 1.970 1_655 S
Li913 O973 1.958 . S
Li913 O975 1.961 . S
Li914 N959 1.990 . S
Li914 O972 1.961 . S
Li914 O974 1.956 . S
Li914 O975 1.970 1_455 S
Li915 N965 1.990 . S
Li915 O973 1.978 . S
Li915 O974 1.934 1_655 S
Li915 O975 1.956 . S
C916 C918 1.348 . S
C916 C919 1.356 . S
C916 O972 1.325 . S
N917 C920 1.314 . S
N917 C921 1.279 . S
C918 C916 1.348 . S
C918 C920 1.353 . S
C918 H976 0.929 . S
C919 C916 1.356 . S
C919 C921 1.358 . S
C919 H977 0.930 . S
C920 N917 1.314 . S
C920 C918 1.353 . S
C920 H978 0.930 . S
C921 N917 1.279 . S
C921 C919 1.358 . S
C921 H979 0.930 . S
C922 C925 1.348 1_655 S
C922 C926 1.356 . S
C922 O973 1.330 . S
C923 N924 1.279 . S
C923 C926 1.358 . S
C923 H980 0.930 . S
N924 C923 1.279 . S
N924 C927 1.314 1_655 S
C925 C922 1.348 1_455 S
C925 C927 1.353 . S
C925 H981 0.929 . S
C926 C922 1.356 . S
C926 C923 1.358 . S
C926 H982 0.930 . S
C927 N924 1.314 1_455 S
C927 C925 1.353 . S
C927 H983 0.930 . S
C928 N929 1.314 . S
C928 C933 1.353 . S
C928 H934 0.930 . S
N929 Li912 1.990 . S
N929 C928 1.314 . S
N929 C931 1.279 . S
C930 C931 1.358 . S
C930 C932 1.356 . S
C930 H984 0.930 . S
C931 N929 1.279 . S
C931 C930 1.358 . S
C931 H935 0.930 . S
C932 C930 1.356 . S
C932 C933 1.348 . S
C933 C928 1.353 . S
C933 C932 1.348 . S
C933 H985 0.929 . S
H934 C928 0.930 . S
H935 C931 0.930 . S
C936 N937 1.314 . S
C936 C938 1.353 . S
C936 H942 0.930 . S
N937 Li913 1.990 . S
N937 C936 1.314 . S
N937 C940 1.277 1_655 S
C938 C936 1.353 . S
C938 C941 1.348 . S
C938 H986 0.929 . S
C939 C940 1.357 . S
C939 C941 1.353 1_455 S
C939 H987 0.931 . S
C940 N937 1.277 1_455 S
C940 C939 1.357 . S
C940 H943 0.937 . S
C941 C938 1.348 . S
C941 C939 1.353 1_655 S
H942 C936 0.930 . S
H943 C940 0.937 . S
C944 C946 1.348 1_455 S
C944 C947 1.356 . S
C944 O974 1.334 . S
N945 C948 1.314 1_455 S
N945 C949 1.279 . S
C946 C944 1.348 1_655 S
C946 C948 1.353 . S
C946 H988 0.929 . S
C947 C944 1.356 . S
C947 C949 1.358 . S
C947 H989 0.930 . S
C948 N945 1.314 1_655 S
C948 C946 1.353 . S
C948 H990 0.930 . S
C949 N945 1.279 . S
C949 C947 1.358 . S
C949 H991 0.930 . S
C950 C951 1.348 . S
C950 C952 1.356 . S
C950 O975 1.325 . S
C951 C950 1.348 . S
C951 C953 1.353 . S
C951 H992 0.929 . S
C952 C950 1.356 . S
C952 C954 1.358 . S
C952 H993 0.930 . S
C953 C951 1.353 . S
C953 N955 1.314 . S
C953 H994 0.930 . S
C954 C952 1.358 . S
C954 N955 1.279 . S
C954 H995 0.930 . S
N955 C953 1.314 . S
N955 C954 1.279 . S
C956 C958 1.353 . S
C956 N959 1.314 . S
C956 H962 0.930 . S
C957 N959 1.278 1_655 S
C957 C960 1.358 . S
C957 H963 0.935 . S
C958 C956 1.353 . S
C958 C961 1.348 . S
C958 H996 0.929 . S
N959 Li914 1.990 . S
N959 C956 1.314 . S
N959 C957 1.278 1_455 S
C960 C957 1.358 . S
C960 C961 1.354 1_655 S
C960 H997 0.930 . S
C961 C958 1.348 . S
C961 C960 1.354 1_455 S
H962 C956 0.930 . S
H963 C957 0.935 . S
C964 N965 1.314 . S
C964 C966 1.353 . S
C964 H970 0.930 . S
N965 Li915 1.990 . S
N965 C964 1.314 . S
N965 C968 1.279 . S
C966 C964 1.353 . S
C966 C969 1.348 . S
C966 H998 0.929 . S
C967 C968 1.358 . S
C967 C969 1.356 . S
C967 H999 0.930 . S
C968 N965 1.279 . S
C968 C967 1.358 . S
C968 H971 0.930 . S
C969 C966 1.348 . S
C969 C967 1.356 . S
H970 C964 0.930 . S
H971 C968 0.930 . S
O972 Li912 1.956 . S
O972 Li913 1.970 1_455 S
O972 Li914 1.961 . S
O972 C916 1.325 . S
O973 Li912 1.946 1_655 S
O973 Li913 1.958 . S
O973 Li915 1.978 . S
O973 C922 1.330 . S
O974 Li912 1.987 . S
O974 Li914 1.956 . S
O974 Li915 1.934 1_455 S
O974 C944 1.334 . S
O975 Li913 1.961 . S
O975 Li914 1.970 1_655 S
O975 Li915 1.956 . S
O975 C950 1.325 . S
H976 C918 0.929 . S
H977 C919 0.930 . S
H978 C920 0.930 . S
H979 C921 0.930 . S
H980 C923 0.930 . S
H981 C925 0.929 . S
H982 C926 0.930 . S
H983 C927 0.930 . S
H984 C930 0.930 . S
H985 C933 0.929 . S
H986 C938 0.929 . S
H987 C939 0.931 . S
H988 C946 0.929 . S
H989 C947 0.930 . S
H990 C948 0.930 . S
H991 C949 0.930 . S
H992 C951 0.929 . S
H993 C952 0.930 . S
H994 C953 0.930 . S
H995 C954 0.930 . S
H996 C958 0.929 . S
H997 C960 0.930 . S
H998 C966 0.929 . S
H999 C967 0.930 . S
Li1000 N1017 1.990 . S
Li1000 O1060 1.956 . S
Li1000 O1061 1.970 . S
Li1000 O1062 1.961 . S
Li1001 N1025 1.990 . S
Li1001 O1060 1.970 . S
Li1001 O1061 1.956 . S
Li1001 O1063 1.961 . S
Li1002 N1047 1.990 . S
Li1002 O1060 1.961 . S
Li1002 O1062 1.956 . S
Li1002 O1063 1.970 . S
Li1003 N1053 1.990 . S
Li1003 O1061 1.961 . S
Li1003 O1062 1.970 . S
Li1003 O1063 1.956 . S
C1004 C1006 1.348 . S
C1004 C1007 1.356 . S
C1004 O1060 1.325 . S
N1005 C1008 1.314 . S
N1005 C1009 1.279 . S
C1006 C1004 1.348 . S
C1006 C1008 1.353 . S
C1006 H1064 0.929 . S
C1007 C1004 1.356 . S
C1007 C1009 1.358 . S
C1007 H1065 0.930 . S
C1008 N1005 1.314 . S
C1008 C1006 1.353 . S
C1008 H1066 0.930 . S
C1009 N1005 1.279 . S
C1009 C1007 1.358 . S
C1009 H1067 0.930 . S
C1010 C1013 1.348 . S
C1010 C1014 1.356 . S
C1010 O1061 1.325 . S
C1011 N1012 1.279 . S
C1011 C1014 1.358 . S
C1011 H1068 0.930 . S
N1012 C1011 1.279 . S
N1012 C1015 1.314 . S
C1013 C1010 1.348 . S
C1013 C1015 1.353 . S
C1013 H1069 0.929 . S
C1014 C1010 1.356 . S
C1014 C1011 1.358 . S
C1014 H1070 0.930 . S
C1015 N1012 1.314 . S
C1015 C1013 1.353 . S
C1015 H1071 0.930 . S
C1016 N1017 1.314 . S
C1016 C1021 1.353 . S
C1016 H1022 0.930 . S
N1017 Li1000 1.990 . S
N1017 C1016 1.314 . S
N1017 C1019 1.279 . S
C1018 C1019 1.358 . S
C1018 C1020 1.356 . S
C1018 H1072 0.930 . S
C1019 N1017 1.279 . S
C1019 C1018 1.358 . S
C1019 H1023 0.930 . S
C1020 C1018 1.356 . S
C1020 C1021 1.348 . S
C1021 C1016 1.353 . S
C1021 C1020 1.348 . S
C1021 H1073 0.929 . S
H1022 C1016 0.930 . S
H1023 C1019 0.930 . S
C1024 N1025 1.314 . S
C1024 C1026 1.353 . S
C1024 H1030 0.930 . S
N1025 Li1001 1.990 . S
N1025 C1024 1.314 . S
N1025 C1028 1.279 . S
C1026 C1024 1.353 . S
C1026 C1029 1.348 . S
C1026 H1074 0.929 . S
C1027 C1028 1.358 . S
C1027 C1029 1.356 . S
C1027 H1075 0.930 . S
C1028 N1025 1.279 . S
C1028 C1027 1.358 . S
C1028 H1031 0.930 . S
C1029 C1026 1.348 . S
C1029 C1027 1.356 . S
H1030 C1024 0.930 . S
H1031 C1028 0.930 . S
C1032 C1034 1.348 . S
C1032 C1035 1.356 . S
C1032 O1062 1.325 . S
N1033 C1036 1.314 . S
N1033 C1037 1.279 . S
C1034 C1032 1.348 . S
C1034 C1036 1.353 . S
C1034 H1076 0.929 . S
C1035 C1032 1.356 . S
C1035 C1037 1.358 . S
C1035 H1077 0.930 . S
C1036 N1033 1.314 . S
C1036 C1034 1.353 . S
C1036 H1078 0.930 . S
C1037 N1033 1.279 . S
C1037 C1035 1.358 . S
C1037 H1079 0.930 . S
C1038 C1039 1.348 . S
C1038 C1040 1.356 . S
C1038 O1063 1.325 . S
C1039 C1038 1.348 . S
C1039 C1041 1.353 . S
C1039 H1080 0.929 . S
C1040 C1038 1.356 . S
C1040 C1042 1.358 . S
C1040 H1081 0.930 . S
C1041 C1039 1.353 . S
C1041 N1043 1.314 . S
C1041 H1082 0.930 . S
C1042 C1040 1.358 . S
C1042 N1043 1.279 . S
C1042 H1083 0.930 . S
N1043 C1041 1.314 . S
N1043 C1042 1.279 . S
C1044 C1046 1.353 . S
C1044 N1047 1.314 . S
C1044 H1050 0.930 . S
C1045 N1047 1.279 . S
C1045 C1048 1.358 . S
C1045 H1051 0.930 . S
C1046 C1044 1.353 . S
C1046 C1049 1.348 . S
C1046 H1084 0.929 . S
N1047 Li1002 1.990 . S
N1047 C1044 1.314 . S
N1047 C1045 1.279 . S
C1048 C1045 1.358 . S
C1048 C1049 1.356 . S
C1048 H1085 0.930 . S
C1049 C1046 1.348 . S
C1049 C1048 1.356 . S
H1050 C1044 0.930 . S
H1051 C1045 0.930 . S
C1052 N1053 1.314 . S
C1052 C1054 1.353 . S
C1052 H1058 0.930 . S
N1053 Li1003 1.990 . S
N1053 C1052 1.314 . S
N1053 C1056 1.279 . S
C1054 C1052 1.353 . S
C1054 C1057 1.348 . S
C1054 H1086 0.929 . S
C1055 C1056 1.358 . S
C1055 C1057 1.356 . S
C1055 H1087 0.930 . S
C1056 N1053 1.279 . S
C1056 C1055 1.358 . S
C1056 H1059 0.930 . S
C1057 C1054 1.348 . S
C1057 C1055 1.356 . S
H1058 C1052 0.930 . S
H1059 C1056 0.930 . S
O1060 Li1000 1.956 . S
O1060 Li1001 1.970 . S
O1060 Li1002 1.961 . S
O1060 C1004 1.325 . S
O1061 Li1000 1.970 . S
O1061 Li1001 1.956 . S
O1061 Li1003 1.961 . S
O1061 C1010 1.325 . S
O1062 Li1000 1.961 . S
O1062 Li1002 1.956 . S
O1062 Li1003 1.970 . S
O1062 C1032 1.325 . S
O1063 Li1001 1.961 . S
O1063 Li1002 1.970 . S
O1063 Li1003 1.956 . S
O1063 C1038 1.325 . S
H1064 C1006 0.929 . S
H1065 C1007 0.930 . S
H1066 C1008 0.930 . S
H1067 C1009 0.930 . S
H1068 C1011 0.930 . S
H1069 C1013 0.929 . S
H1070 C1014 0.930 . S
H1071 C1015 0.930 . S
H1072 C1018 0.930 . S
H1073 C1021 0.929 . S
H1074 C1026 0.929 . S
H1075 C1027 0.930 . S
H1076 C1034 0.929 . S
H1077 C1035 0.930 . S
H1078 C1036 0.930 . S
H1079 C1037 0.930 . S
H1080 C1039 0.929 . S
H1081 C1040 0.930 . S
H1082 C1041 0.930 . S
H1083 C1042 0.930 . S
H1084 C1046 0.929 . S
H1085 C1048 0.930 . S
H1086 C1054 0.929 . S
H1087 C1055 0.930 . S
Li1088 N1105 1.990 . S
Li1088 O1148 1.956 . S
Li1088 O1149 1.970 1_455 S
Li1088 O1150 1.961 . S
Li1089 N1113 1.990 . S
Li1089 O1148 1.970 1_655 S
Li1089 O1149 1.956 . S
Li1089 O1151 1.961 1_655 S
Li1090 N1135 1.990 . S
Li1090 O1148 1.961 . S
Li1090 O1150 1.956 . S
Li1090 O1151 1.970 . S
Li1091 N1141 1.990 . S
Li1091 O1149 1.961 1_455 S
Li1091 O1150 1.970 . S
Li1091 O1151 1.956 . S
C1092 C1094 1.348 . S
C1092 C1095 1.356 . S
C1092 O1148 1.325 . S
N1093 C1096 1.314 . S
N1093 C1097 1.279 . S
C1094 C1092 1.348 . S
C1094 C1096 1.353 . S
C1094 H1152 0.929 1_455 S
C1095 C1092 1.356 . S
C1095 C1097 1.358 . S
C1095 H1153 0.930 . S
C1096 N1093 1.314 . S
C1096 C1094 1.353 . S
C1096 H1154 0.930 . S
C1097 N1093 1.279 . S
C1097 C1095 1.358 . S
C1097 H1155 0.930 . S
C1098 C1101 1.348 . S
C1098 C1102 1.356 . S
C1098 O1149 1.325 . S
C1099 N1100 1.279 . S
C1099 C1102 1.358 . S
C1099 H1156 0.930 . S
N1100 C1099 1.279 . S
N1100 C1103 1.314 . S
C1101 C1098 1.348 . S
C1101 C1103 1.353 . S
C1101 H1157 0.929 . S
C1102 C1098 1.356 . S
C1102 C1099 1.358 . S
C1102 H1158 0.930 . S
C1103 N1100 1.314 . S
C1103 C1101 1.353 . S
C1103 H1159 0.930 . S
C1104 N1105 1.314 . S
C1104 C1109 1.353 . S
C1104 H1110 0.930 . S
N1105 Li1088 1.990 . S
N1105 C1104 1.314 . S
N1105 C1107 1.279 . S
C1106 C1107 1.358 . S
C1106 C1108 1.356 . S
C1106 H1160 0.930 . S
C1107 N1105 1.279 . S
C1107 C1106 1.358 . S
C1107 H1111 0.930 . S
C1108 C1106 1.356 . S
C1108 C1109 1.348 . S
C1109 C1104 1.353 . S
C1109 C1108 1.348 . S
C1109 H1161 0.929 . S
H1110 C1104 0.930 . S
H1111 C1107 0.930 . S
C1112 N1113 1.314 . S
C1112 C1114 1.353 . S
C1112 H1118 0.930 . S
N1113 Li1089 1.990 . S
N1113 C1112 1.314 . S
N1113 C1116 1.279 . S
C1114 C1112 1.353 . S
C1114 C1117 1.348 . S
C1114 H1162 0.929 . S
C1115 C1116 1.358 . S
C1115 C1117 1.356 . S
C1115 H1163 0.930 . S
C1116 N1113 1.279 . S
C1116 C1115 1.358 . S
C1116 H1119 0.930 . S
C1117 C1114 1.348 . S
C1117 C1115 1.356 . S
H1118 C1112 0.930 . S
H1119 C1116 0.930 . S
C1120 C1122 1.348 . S
C1120 C1123 1.356 . S
C1120 O1150 1.325 . S
N1121 C1124 1.314 . S
N1121 C1125 1.279 . S
C1122 C1120 1.348 . S
C1122 C1124 1.353 . S
C1122 H1164 0.929 . S
C1123 C1120 1.356 . S
C1123 C1125 1.358 . S
C1123 H1165 0.930 . S
C1124 N1121 1.314 . S
C1124 C1122 1.353 . S
C1124 H1166 0.930 . S
C1125 N1121 1.279 . S
C1125 C1123 1.358 . S
C1125 H1167 0.930 . S
C1126 C1127 1.348 . S
C1126 C1128 1.356 1_455 S
C1126 O1151 1.325 . S
C1127 C1126 1.348 . S
C1127 C1129 1.353 . S
C1127 H1168 0.929 . S
C1128 C1126 1.356 1_655 S
C1128 C1130 1.358 . S
C1128 H1169 0.930 . S
C1129 C1127 1.353 . S
C1129 N1131 1.314 . S
C1129 H1170 0.930 . S
C1130 C1128 1.358 . S
C1130 N1131 1.279 1_655 S
C1130 H1171 0.930 . S
N1131 C1129 1.314 . S
N1131 C1130 1.279 1_455 S
C1132 C1134 1.353 . S
C1132 N1135 1.314 . S
C1132 H1138 0.930 . S
C1133 N1135 1.279 . S
C1133 C1136 1.358 . S
C1133 H1139 0.930 . S
C1134 C1132 1.353 . S
C1134 C1137 1.348 . S
C1134 H1172 0.929 . S
N1135 Li1090 1.990 . S
N1135 C1132 1.314 . S
N1135 C1133 1.279 . S
C1136 C1133 1.358 . S
C1136 C1137 1.356 . S
C1136 H1173 0.930 . S
C1137 C1134 1.348 . S
C1137 C1136 1.356 . S
H1138 C1132 0.930 . S
H1139 C1133 0.930 . S
C1140 N1141 1.314 1_655 S
C1140 C1142 1.353 . S
C1140 H1146 0.930 . S
N1141 Li1091 1.990 . S
N1141 C1140 1.314 1_455 S
N1141 C1144 1.279 . S
C1142 C1140 1.353 . S
C1142 C1145 1.348 . S
C1142 H1174 0.929 . S
C1143 C1144 1.360 . S
C1143 C1145 1.350 1_455 S
C1143 H1175 0.935 . S
C1144 N1141 1.279 . S
C1144 C1143 1.360 . S
C1144 H1147 0.930 . S
C1145 C1142 1.348 . S
C1145 C1143 1.350 1_655 S
H1146 C1140 0.930 . S
H1147 C1144 0.930 . S
O1148 Li1088 1.956 . S
O1148 Li1089 1.970 1_455 S
O1148 Li1090 1.961 . S
O1148 C1092 1.325 . S
O1149 Li1088 1.970 1_655 S
O1149 Li1089 1.956 . S
O1149 Li1091 1.961 1_655 S
O1149 C1098 1.325 . S
O1150 Li1088 1.961 . S
O1150 Li1090 1.956 . S
O1150 Li1091 1.970 . S
O1150 C1120 1.325 . S
O1151 Li1089 1.961 1_455 S
O1151 Li1090 1.970 . S
O1151 Li1091 1.956 . S
O1151 C1126 1.325 . S
H1152 C1094 0.929 1_655 S
H1153 C1095 0.930 . S
H1154 C1096 0.930 . S
H1155 C1097 0.930 . S
H1156 C1099 0.930 . S
H1157 C1101 0.929 . S
H1158 C1102 0.930 . S
H1159 C1103 0.930 . S
H1160 C1106 0.930 . S
H1161 C1109 0.929 . S
H1162 C1114 0.929 . S
H1163 C1115 0.930 . S
H1164 C1122 0.929 . S
H1165 C1123 0.930 . S
H1166 C1124 0.930 . S
H1167 C1125 0.930 . S
H1168 C1127 0.929 . S
H1169 C1128 0.930 . S
H1170 C1129 0.930 . S
H1171 C1130 0.930 . S
H1172 C1134 0.929 . S
H1173 C1136 0.930 . S
H1174 C1142 0.929 . S
H1175 C1143 0.935 . S
Li1176 N1193 1.990 . S
Li1176 O1236 1.956 . S
Li1176 O1237 1.970 . S
Li1176 O1238 1.961 . S
Li1177 N1201 1.990 . S
Li1177 O1236 1.970 . S
Li1177 O1237 1.956 . S
Li1177 O1239 1.961 . S
Li1178 N1223 1.990 . S
Li1178 O1236 1.961 . S
Li1178 O1238 1.956 . S
Li1178 O1239 1.970 . S
Li1179 N1229 1.990 . S
Li1179 O1237 1.961 . S
Li1179 O1238 1.970 . S
Li1179 O1239 1.956 . S
C1180 C1182 1.348 . S
C1180 C1183 1.356 . S
C1180 O1236 1.325 . S
N1181 C1184 1.314 . S
N1181 C1185 1.279 . S
C1182 C1180 1.348 . S
C1182 C1184 1.353 . S
C1182 H1240 0.929 . S
C1183 C1180 1.356 . S
C1183 C1185 1.358 . S
C1183 H1241 0.930 . S
C1184 N1181 1.314 . S
C1184 C1182 1.353 . S
C1184 H1242 0.930 . S
C1185 N1181 1.279 . S
C1185 C1183 1.358 . S
C1185 H1243 0.930 . S
C1186 C1189 1.348 . S
C1186 C1190 1.356 . S
C1186 O1237 1.325 . S
C1187 N1188 1.279 . S
C1187 C1190 1.358 . S
C1187 H1244 0.930 . S
N1188 C1187 1.279 . S
N1188 C1191 1.314 . S
C1189 C1186 1.348 . S
C1189 C1191 1.353 . S
C1189 H1245 0.929 . S
C1190 C1186 1.356 . S
C1190 C1187 1.358 . S
C1190 H1246 0.930 . S
C1191 N1188 1.314 . S
C1191 C1189 1.353 . S
C1191 H1247 0.930 . S
C1192 N1193 1.314 . S
C1192 C1197 1.353 . S
C1192 H1198 0.930 . S
N1193 Li1176 1.990 . S
N1193 C1192 1.314 . S
N1193 C1195 1.279 . S
C1194 C1195 1.358 . S
C1194 C1196 1.356 . S
C1194 H1248 0.930 . S
C1195 N1193 1.279 . S
C1195 C1194 1.358 . S
C1195 H1199 0.930 . S
C1196 C1194 1.356 . S
C1196 C1197 1.348 . S
C1197 C1192 1.353 . S
C1197 C1196 1.348 . S
C1197 H1249 0.929 . S
H1198 C1192 0.930 . S
H1199 C1195 0.930 . S
C1200 N1201 1.314 . S
C1200 C1202 1.353 . S
C1200 H1206 0.930 . S
N1201 Li1177 1.990 . S
N1201 C1200 1.314 . S
N1201 C1204 1.279 . S
C1202 C1200 1.353 . S
C1202 C1205 1.348 . S
C1202 H1250 0.929 . S
C1203 C1204 1.358 . S
C1203 C1205 1.356 . S
C1203 H1251 0.930 . S
C1204 N1201 1.279 . S
C1204 C1203 1.358 . S
C1204 H1207 0.930 . S
C1205 C1202 1.348 . S
C1205 C1203 1.356 . S
H1206 C1200 0.930 . S
H1207 C1204 0.930 . S
C1208 C1210 1.348 . S
C1208 C1211 1.356 . S
C1208 O1238 1.325 . S
N1209 C1212 1.314 . S
N1209 C1213 1.279 . S
C1210 C1208 1.348 . S
C1210 C1212 1.353 . S
C1210 H1252 0.929 . S
C1211 C1208 1.356 . S
C1211 C1213 1.358 . S
C1211 H1253 0.930 . S
C1212 N1209 1.314 . S
C1212 C1210 1.353 . S
C1212 H1254 0.930 . S
C1213 N1209 1.279 . S
C1213 C1211 1.358 . S
C1213 H1255 0.930 . S
C1214 C1215 1.348 . S
C1214 C1216 1.356 . S
C1214 O1239 1.325 . S
C1215 C1214 1.348 . S
C1215 C1217 1.353 . S
C1215 H1256 0.929 . S
C1216 C1214 1.356 . S
C1216 C1218 1.358 . S
C1216 H1257 0.930 . S
C1217 C1215 1.353 . S
C1217 N1219 1.314 . S
C1217 H1258 0.930 . S
C1218 C1216 1.358 . S
C1218 N1219 1.279 . S
C1218 H1259 0.930 . S
N1219 C1217 1.314 . S
N1219 C1218 1.279 . S
C1220 C1222 1.353 . S
C1220 N1223 1.314 . S
C1220 H1226 0.930 . S
C1221 N1223 1.279 . S
C1221 C1224 1.358 . S
C1221 H1227 0.930 . S
C1222 C1220 1.353 . S
C1222 C1225 1.348 . S
C1222 H1260 0.929 . S
N1223 Li1178 1.990 . S
N1223 C1220 1.314 . S
N1223 C1221 1.279 . S
C1224 C1221 1.358 . S
C1224 C1225 1.356 . S
C1224 H1261 0.930 . S
C1225 C1222 1.348 . S
C1225 C1224 1.356 . S
H1226 C1220 0.930 . S
H1227 C1221 0.930 . S
C1228 N1229 1.314 . S
C1228 C1230 1.353 . S
C1228 H1234 0.930 . S
N1229 Li1179 1.990 . S
N1229 C1228 1.314 . S
N1229 C1232 1.279 . S
C1230 C1228 1.353 . S
C1230 C1233 1.348 . S
C1230 H1262 0.929 . S
C1231 C1232 1.358 . S
C1231 C1233 1.356 . S
C1231 H1263 0.930 . S
C1232 N1229 1.279 . S
C1232 C1231 1.358 . S
C1232 H1235 0.930 . S
C1233 C1230 1.348 . S
C1233 C1231 1.356 . S
H1234 C1228 0.930 . S
H1235 C1232 0.930 . S
O1236 Li1176 1.956 . S
O1236 Li1177 1.970 . S
O1236 Li1178 1.961 . S
O1236 C1180 1.325 . S
O1237 Li1176 1.970 . S
O1237 Li1177 1.956 . S
O1237 Li1179 1.961 . S
O1237 C1186 1.325 . S
O1238 Li1176 1.961 . S
O1238 Li1178 1.956 . S
O1238 Li1179 1.970 . S
O1238 C1208 1.325 . S
O1239 Li1177 1.961 . S
O1239 Li1178 1.970 . S
O1239 Li1179 1.956 . S
O1239 C1214 1.325 . S
H1240 C1182 0.929 . S
H1241 C1183 0.930 . S
H1242 C1184 0.930 . S
H1243 C1185 0.930 . S
H1244 C1187 0.930 . S
H1245 C1189 0.929 . S
H1246 C1190 0.930 . S
H1247 C1191 0.930 . S
H1248 C1194 0.930 . S
H1249 C1197 0.929 . S
H1250 C1202 0.929 . S
H1251 C1203 0.930 . S
H1252 C1210 0.929 . S
H1253 C1211 0.930 . S
H1254 C1212 0.930 . S
H1255 C1213 0.930 . S
H1256 C1215 0.929 . S
H1257 C1216 0.930 . S
H1258 C1217 0.930 . S
H1259 C1218 0.930 . S
H1260 C1222 0.929 . S
H1261 C1224 0.930 . S
H1262 C1230 0.929 . S
H1263 C1231 0.930 . S
C1264 C1265 1.387 . S
C1264 H1268 0.950 . S
C1264 C1273 1.390 . S
C1265 C1264 1.387 . S
C1265 C1267 1.387 . S
H1266 C1273 0.950 . S
C1267 C1265 1.387 . S
C1267 C1269 1.390 . S
C1267 H1271 0.950 . S
H1268 C1264 0.950 . S
C1269 C1267 1.390 . S
C1269 C1270 1.387 . S
C1269 H1272 0.950 . S
C1270 C1269 1.387 . S
C1270 C1273 1.387 . S
H1271 C1267 0.950 . S
H1272 C1269 0.950 . S
C1273 C1264 1.390 . S
C1273 H1266 0.950 . S
C1273 C1270 1.387 . S
C1274 C1275 1.387 . S
C1274 H1278 0.950 . S
C1274 C1283 1.390 . S
C1275 C1274 1.387 . S
C1275 C1277 1.387 . S
H1276 C1283 0.950 . S
C1277 C1275 1.387 . S
C1277 C1279 1.390 . S
C1277 H1281 0.950 . S
H1278 C1274 0.950 . S
C1279 C1277 1.390 . S
C1279 C1280 1.387 . S
C1279 H1282 0.950 . S
C1280 C1279 1.387 . S
C1280 C1283 1.387 . S
H1281 C1277 0.950 . S
H1282 C1279 0.950 . S
C1283 C1274 1.390 . S
C1283 H1276 0.950 . S
C1283 C1280 1.387 . S
C1284 C1285 1.387 . S
C1284 H1288 0.950 . S
C1284 C1293 1.390 . S
C1285 C1284 1.387 . S
C1285 C1287 1.387 . S
H1286 C1293 0.950 . S
C1287 C1285 1.387 . S
C1287 C1289 1.390 . S
C1287 H1291 0.950 . S
H1288 C1284 0.950 . S
C1289 C1287 1.390 . S
C1289 C1290 1.387 . S
C1289 H1292 0.950 . S
C1290 C1289 1.387 . S
C1290 C1293 1.387 . S
H1291 C1287 0.950 . S
H1292 C1289 0.950 . S
C1293 C1284 1.390 . S
C1293 H1286 0.950 . S
C1293 C1290 1.387 . S
C1294 C1295 1.387 1_545 S
C1294 H1298 0.950 . S
C1294 C1303 1.390 . S
C1295 C1294 1.387 1_565 S
C1295 C1297 1.387 . S
H1296 C1303 0.950 . S
C1297 C1295 1.387 . S
C1297 C1299 1.390 . S
C1297 H1301 0.950 1_655 S
H1298 C1294 0.950 . S
C1299 C1297 1.390 . S
C1299 C1300 1.387 1_565 S
C1299 H1302 0.950 . S
C1300 C1299 1.387 1_545 S
C1300 C1303 1.387 . S
H1301 C1297 0.950 1_455 S
H1302 C1299 0.950 . S
C1303 C1294 1.390 . S
C1303 H1296 0.950 . S
C1303 C1300 1.387 . S
C1304 C1305 1.387 . S
C1304 H1308 0.950 . S
C1304 C1313 1.390 . S
C1305 C1304 1.387 . S
C1305 C1307 1.387 . S
H1306 C1313 0.950 . S
C1307 C1305 1.387 . S
C1307 C1309 1.390 . S
C1307 H1311 0.950 . S
H1308 C1304 0.950 . S
C1309 C1307 1.390 . S
C1309 C1310 1.387 . S
C1309 H1312 0.950 . S
C1310 C1309 1.387 . S
C1310 C1313 1.387 . S
H1311 C1307 0.950 . S
H1312 C1309 0.950 . S
C1313 C1304 1.390 . S
C1313 H1306 0.950 . S
C1313 C1310 1.387 . S
C1314 C1315 1.387 . S
C1314 H1318 0.950 . S
C1314 C1323 1.390 . S
C1315 C1314 1.387 . S
C1315 C1317 1.387 . S
H1316 C1323 0.950 . S
C1317 C1315 1.387 . S
C1317 C1319 1.390 . S
C1317 H1321 0.950 . S
H1318 C1314 0.950 . S
C1319 C1317 1.390 . S
C1319 C1320 1.387 . S
C1319 H1322 0.950 . S
C1320 C1319 1.387 . S
C1320 C1323 1.387 . S
H1321 C1317 0.950 . S
H1322 C1319 0.950 . S
C1323 C1314 1.390 . S
C1323 H1316 0.950 . S
C1323 C1320 1.387 . S
C1324 C1325 1.387 . S
C1324 H1328 0.950 . S
C1324 C1333 1.390 . S
C1325 C1324 1.387 . S
C1325 C1327 1.387 . S
H1326 C1333 0.950 . S
C1327 C1325 1.387 . S
C1327 C1329 1.390 . S
C1327 H1331 0.950 . S
H1328 C1324 0.950 . S
C1329 C1327 1.390 . S
C1329 C1330 1.387 . S
C1329 H1332 0.950 . S
C1330 C1329 1.387 . S
C1330 C1333 1.387 . S
H1331 C1327 0.950 . S
H1332 C1329 0.950 . S
C1333 C1324 1.390 . S
C1333 H1326 0.950 . S
C1333 C1330 1.387 . S
C1334 C1335 1.387 . S
C1334 H1338 0.950 . S
C1334 C1343 1.390 . S
C1335 C1334 1.387 . S
C1335 C1337 1.387 . S
H1336 C1343 0.950 . S
C1337 C1335 1.387 . S
C1337 C1339 1.390 . S
C1337 H1341 0.950 1_565 S
H1338 C1334 0.950 . S
C1339 C1337 1.390 . S
C1339 C1340 1.387 . S
C1339 H1342 0.950 1_565 S
C1340 C1339 1.387 . S
C1340 C1343 1.387 . S
H1341 C1337 0.950 1_545 S
H1342 C1339 0.950 1_545 S
C1343 C1334 1.390 . S
C1343 H1336 0.950 . S
C1343 C1340 1.387 . S
C1344 C1345 1.387 . S
C1344 H1348 0.950 . S
C1344 C1353 1.390 . S
C1345 C1344 1.387 . S
C1345 C1347 1.387 . S
H1346 C1353 0.950 . S
C1347 C1345 1.387 . S
C1347 C1349 1.390 . S
C1347 H1351 0.950 . S
H1348 C1344 0.950 . S
C1349 C1347 1.390 . S
C1349 C1350 1.387 . S
C1349 H1352 0.950 . S
C1350 C1349 1.387 . S
C1350 C1353 1.387 . S
H1351 C1347 0.950 . S
H1352 C1349 0.950 . S
C1353 C1344 1.390 . S
C1353 H1346 0.950 . S
C1353 C1350 1.387 . S
C1354 C1355 1.387 . S
C1354 H1358 0.950 . S
C1354 C1363 1.390 . S
C1355 C1354 1.387 . S
C1355 C1357 1.387 . S
H1356 C1363 0.950 . S
C1357 C1355 1.387 . S
C1357 C1359 1.390 . S
C1357 H1361 0.950 . S
H1358 C1354 0.950 . S
C1359 C1357 1.390 . S
C1359 C1360 1.387 . S
C1359 H1362 0.950 . S
C1360 C1359 1.387 . S
C1360 C1363 1.387 . S
H1361 C1357 0.950 . S
H1362 C1359 0.950 . S
C1363 C1354 1.390 . S
C1363 H1356 0.950 . S
C1363 C1360 1.387 . S
C1364 C1365 1.387 . S
C1364 H1368 0.950 . S
C1364 C1373 1.390 . S
C1365 C1364 1.387 . S
C1365 C1367 1.387 . S
H1366 C1373 0.950 . S
C1367 C1365 1.387 . S
C1367 C1369 1.390 . S
C1367 H1371 0.950 . S
H1368 C1364 0.950 . S
C1369 C1367 1.390 . S
C1369 C1370 1.387 . S
C1369 H1372 0.950 . S
C1370 C1369 1.387 . S
C1370 C1373 1.387 . S
H1371 C1367 0.950 . S
H1372 C1369 0.950 . S
C1373 C1364 1.390 . S
C1373 H1366 0.950 . S
C1373 C1370 1.387 . S
C1374 C1375 1.387 . S
C1374 H1378 0.950 . S
C1374 C1383 1.390 . S
C1375 C1374 1.387 . S
C1375 C1377 1.387 . S
H1376 C1383 0.950 . S
C1377 C1375 1.387 . S
C1377 C1379 1.390 . S
C1377 H1381 0.950 . S
H1378 C1374 0.950 . S
C1379 C1377 1.390 . S
C1379 C1380 1.387 . S
C1379 H1382 0.950 . S
C1380 C1379 1.387 . S
C1380 C1383 1.387 . S
H1381 C1377 0.950 . S
H1382 C1379 0.950 . S
C1383 C1374 1.390 . S
C1383 H1376 0.950 . S
C1383 C1380 1.387 . S
C1384 C1385 1.387 . S
C1384 H1388 0.950 . S
C1384 C1393 1.390 . S
C1385 C1384 1.387 . S
C1385 C1387 1.387 . S
H1386 C1393 0.950 . S
C1387 C1385 1.387 . S
C1387 C1389 1.390 . S
C1387 H1391 0.950 . S
H1388 C1384 0.950 . S
C1389 C1387 1.390 . S
C1389 C1390 1.387 . S
C1389 H1392 0.950 . S
C1390 C1389 1.387 . S
C1390 C1393 1.387 . S
H1391 C1387 0.950 . S
H1392 C1389 0.950 . S
C1393 C1384 1.390 . S
C1393 H1386 0.950 . S
C1393 C1390 1.387 . S
C1394 C1395 1.387 . S
C1394 H1398 0.950 . S
C1394 C1403 1.390 . S
C1395 C1394 1.387 . S
C1395 C1397 1.387 . S
H1396 C1403 0.950 . S
C1397 C1395 1.387 . S
C1397 C1399 1.390 . S
C1397 H1401 0.950 . S
H1398 C1394 0.950 . S
C1399 C1397 1.390 . S
C1399 C1400 1.387 . S
C1399 H1402 0.950 . S
C1400 C1399 1.387 . S
C1400 C1403 1.387 . S
H1401 C1397 0.950 . S
H1402 C1399 0.950 . S
C1403 C1394 1.390 . S
C1403 H1396 0.950 . S
C1403 C1400 1.387 . S
C1404 C1405 1.387 . S
C1404 H1408 0.950 . S
C1404 C1413 1.390 . S
C1405 C1404 1.387 . S
C1405 C1407 1.387 . S
H1406 C1413 0.950 . S
C1407 C1405 1.387 . S
C1407 C1409 1.390 . S
C1407 H1411 0.950 . S
H1408 C1404 0.950 . S
C1409 C1407 1.390 . S
C1409 C1410 1.387 . S
C1409 H1412 0.950 . S
C1410 C1409 1.387 . S
C1410 C1413 1.387 . S
H1411 C1407 0.950 . S
H1412 C1409 0.950 . S
C1413 C1404 1.390 . S
C1413 H1406 0.950 . S
C1413 C1410 1.387 . S
C1414 C1415 1.387 . S
C1414 H1418 0.950 . S
C1414 C1423 1.390 . S
C1415 C1414 1.387 . S
C1415 C1417 1.387 1_655 S
H1416 C1423 0.950 . S
C1417 C1415 1.387 1_455 S
C1417 C1419 1.390 . S
C1417 H1421 0.950 . S
H1418 C1414 0.950 . S
C1419 C1417 1.390 . S
C1419 C1420 1.387 1_455 S
C1419 H1422 0.950 . S
C1420 C1419 1.387 1_655 S
C1420 C1423 1.387 . S
H1421 C1417 0.950 . S
H1422 C1419 0.950 . S
C1423 C1414 1.390 . S
C1423 H1416 0.950 . S
C1423 C1420 1.387 . S
C1424 C1425 1.387 . S
C1424 H1428 0.950 . S
C1424 C1433 1.390 . S
C1425 C1424 1.387 . S
C1425 C1427 1.387 . S
H1426 C1433 0.950 . S
C1427 C1425 1.387 . S
C1427 C1429 1.390 . S
C1427 H1431 0.950 . S
H1428 C1424 0.950 . S
C1429 C1427 1.390 . S
C1429 C1430 1.387 . S
C1429 H1432 0.950 . S
C1430 C1429 1.387 . S
C1430 C1433 1.387 . S
H1431 C1427 0.950 . S
H1432 C1429 0.950 . S
C1433 C1424 1.390 . S
C1433 H1426 0.950 . S
C1433 C1430 1.387 . S
C1434 C1435 1.387 . S
C1434 H1438 0.950 . S
C1434 C1443 1.390 . S
C1435 C1434 1.387 . S
C1435 C1437 1.387 . S
H1436 C1443 0.950 . S
C1437 C1435 1.387 . S
C1437 C1439 1.390 . S
C1437 H1441 0.950 . S
H1438 C1434 0.950 . S
C1439 C1437 1.390 . S
C1439 C1440 1.387 . S
C1439 H1442 0.950 . S
C1440 C1439 1.387 . S
C1440 C1443 1.387 . S
H1441 C1437 0.950 . S
H1442 C1439 0.950 . S
C1443 C1434 1.390 . S
C1443 H1436 0.950 . S
C1443 C1440 1.387 . S
C1444 C1445 1.387 . S
C1444 H1448 0.950 . S
C1444 C1453 1.390 1_545 S
C1445 C1444 1.387 . S
C1445 C1447 1.387 1_554 S
H1446 C1453 0.950 . S
C1447 C1445 1.387 1_556 S
C1447 C1449 1.390 . S
C1447 H1451 0.950 . S
H1448 C1444 0.950 . S
C1449 C1447 1.390 . S
C1449 C1450 1.387 1_545 S
C1449 H1452 0.950 . S
C1450 C1449 1.387 1_565 S
C1450 C1453 1.387 1_556 S
H1451 C1447 0.950 . S
H1452 C1449 0.950 . S
C1453 C1444 1.390 1_565 S
C1453 H1446 0.950 . S
C1453 C1450 1.387 1_554 S
C1454 C1455 1.387 . S
C1454 H1458 0.950 . S
C1454 C1463 1.390 . S
C1455 C1454 1.387 . S
C1455 C1457 1.387 . S
H1456 C1463 0.950 . S
C1457 C1455 1.387 . S
C1457 C1459 1.390 . S
C1457 H1461 0.950 . S
H1458 C1454 0.950 . S
C1459 C1457 1.390 . S
C1459 C1460 1.387 . S
C1459 H1462 0.950 . S
C1460 C1459 1.387 . S
C1460 C1463 1.387 . S
H1461 C1457 0.950 . S
H1462 C1459 0.950 . S
C1463 C1454 1.390 . S
C1463 H1456 0.950 . S
C1463 C1460 1.387 . S
C1464 C1465 1.387 . S
C1464 H1468 0.950 . S
C1464 C1473 1.390 . S
C1465 C1464 1.387 . S
C1465 C1467 1.387 . S
H1466 C1473 0.950 . S
C1467 C1465 1.387 . S
C1467 C1469 1.390 . S
C1467 H1471 0.950 1_545 S
H1468 C1464 0.950 . S
C1469 C1467 1.390 . S
C1469 C1470 1.387 . S
C1469 H1472 0.950 . S
C1470 C1469 1.387 . S
C1470 C1473 1.387 . S
H1471 C1467 0.950 1_565 S
H1472 C1469 0.950 . S
C1473 C1464 1.390 . S
C1473 H1466 0.950 . S
C1473 C1470 1.387 . S
C1474 C1475 1.387 . S
C1474 H1478 0.950 . S
C1474 C1483 1.390 . S
C1475 C1474 1.387 . S
C1475 C1477 1.387 . S
H1476 C1483 0.950 . S
C1477 C1475 1.387 . S
C1477 C1479 1.390 . S
C1477 H1481 0.950 . S
H1478 C1474 0.950 . S
C1479 C1477 1.390 . S
C1479 C1480 1.387 . S
C1479 H1482 0.950 . S
C1480 C1479 1.387 . S
C1480 C1483 1.387 . S
H1481 C1477 0.950 . S
H1482 C1479 0.950 . S
C1483 C1474 1.390 . S
C1483 H1476 0.950 . S
C1483 C1480 1.387 . S
C1484 C1485 1.387 . S
C1484 H1488 0.950 . S
C1484 C1493 1.390 . S
C1485 C1484 1.387 . S
C1485 C1487 1.387 . S
H1486 C1493 0.950 . S
C1487 C1485 1.387 . S
C1487 C1489 1.390 . S
C1487 H1491 0.950 . S
H1488 C1484 0.950 . S
C1489 C1487 1.390 . S
C1489 C1490 1.387 . S
C1489 H1492 0.950 . S
C1490 C1489 1.387 . S
C1490 C1493 1.387 . S
H1491 C1487 0.950 . S
H1492 C1489 0.950 . S
C1493 C1484 1.390 . S
C1493 H1486 0.950 . S
C1493 C1490 1.387 . S
C1494 C1495 1.387 . S
C1494 H1498 0.950 . S
C1494 C1503 1.390 . S
C1495 C1494 1.387 . S
C1495 C1497 1.387 . S
H1496 C1503 0.950 . S
C1497 C1495 1.387 . S
C1497 C1499 1.390 . S
C1497 H1501 0.950 . S
H1498 C1494 0.950 . S
C1499 C1497 1.390 . S
C1499 C1500 1.387 . S
C1499 H1502 0.950 . S
C1500 C1499 1.387 . S
C1500 C1503 1.387 . S
H1501 C1497 0.950 . S
H1502 C1499 0.950 . S
C1503 C1494 1.390 . S
C1503 H1496 0.950 . S
C1503 C1500 1.387 . S
C1504 C1505 1.387 . S
C1504 H1508 0.950 . S
C1504 C1513 1.390 . S
C1505 C1504 1.387 . S
C1505 C1507 1.387 . S
H1506 C1513 0.950 . S
C1507 C1505 1.387 . S
C1507 C1509 1.390 . S
C1507 H1511 0.950 . S
H1508 C1504 0.950 . S
C1509 C1507 1.390 . S
C1509 C1510 1.387 . S
C1509 H1512 0.950 . S
C1510 C1509 1.387 . S
C1510 C1513 1.387 . S
H1511 C1507 0.950 . S
H1512 C1509 0.950 . S
C1513 C1504 1.390 . S
C1513 H1506 0.950 . S
C1513 C1510 1.387 . S
C1514 C1515 1.387 . S
C1514 H1518 0.950 1_545 S
C1514 C1523 1.390 1_545 S
C1515 C1514 1.387 . S
C1515 C1517 1.387 . S
H1516 C1523 0.950 . S
C1517 C1515 1.387 . S
C1517 C1519 1.390 . S
C1517 H1521 0.950 . S
H1518 C1514 0.950 1_565 S
C1519 C1517 1.390 . S
C1519 C1520 1.387 . S
C1519 H1522 0.950 . S
C1520 C1519 1.387 . S
C1520 C1523 1.387 1_545 S
H1521 C1517 0.950 . S
H1522 C1519 0.950 . S
C1523 C1514 1.390 1_565 S
C1523 H1516 0.950 . S
C1523 C1520 1.387 1_565 S
C1524 C1525 1.387 . S
C1524 H1528 0.950 . S
C1524 C1533 1.390 . S
C1525 C1524 1.387 . S
C1525 C1527 1.387 . S
H1526 C1533 0.950 . S
C1527 C1525 1.387 . S
C1527 C1529 1.390 . S
C1527 H1531 0.950 . S
H1528 C1524 0.950 . S
C1529 C1527 1.390 . S
C1529 C1530 1.387 . S
C1529 H1532 0.950 . S
C1530 C1529 1.387 . S
C1530 C1533 1.387 . S
H1531 C1527 0.950 . S
H1532 C1529 0.950 . S
C1533 C1524 1.390 . S
C1533 H1526 0.950 . S
C1533 C1530 1.387 . S
C1534 C1535 1.387 . S
C1534 H1538 0.950 . S
C1534 C1543 1.390 . S
C1535 C1534 1.387 . S
C1535 C1537 1.387 . S
H1536 C1543 0.950 . S
C1537 C1535 1.387 . S
C1537 C1539 1.390 . S
C1537 H1541 0.950 . S
H1538 C1534 0.950 . S
C1539 C1537 1.390 . S
C1539 C1540 1.387 . S
C1539 H1542 0.950 . S
C1540 C1539 1.387 . S
C1540 C1543 1.387 . S
H1541 C1537 0.950 . S
H1542 C1539 0.950 . S
C1543 C1534 1.390 . S
C1543 H1536 0.950 . S
C1543 C1540 1.387 . S
C1544 C1545 1.387 . S
C1544 H1548 0.950 . S
C1544 C1553 1.390 . S
C1545 C1544 1.387 . S
C1545 C1547 1.387 . S
H1546 C1553 0.950 . S
C1547 C1545 1.387 . S
C1547 C1549 1.390 . S
C1547 H1551 0.950 . S
H1548 C1544 0.950 . S
C1549 C1547 1.390 . S
C1549 C1550 1.387 . S
C1549 H1552 0.950 . S
C1550 C1549 1.387 . S
C1550 C1553 1.387 . S
H1551 C1547 0.950 . S
H1552 C1549 0.950 . S
C1553 C1544 1.390 . S
C1553 H1546 0.950 . S
C1553 C1550 1.387 . S
C1554 C1555 1.387 . S
C1554 H1558 0.950 1_545 S
C1554 C1563 1.390 . S
C1555 C1554 1.387 . S
C1555 C1557 1.387 . S
H1556 C1563 0.924 1_565 S
C1557 C1555 1.387 . S
C1557 C1559 1.390 . S
C1557 H1561 0.950 . S
H1558 C1554 0.950 1_565 S
C1559 C1557 1.390 . S
C1559 C1560 1.387 . S
C1559 H1562 0.950 . S
C1560 C1559 1.387 . S
C1560 C1563 1.387 . S
H1561 C1557 0.950 . S
H1562 C1559 0.950 . S
C1563 C1554 1.390 . S
C1563 H1556 0.924 1_545 S
C1563 C1560 1.387 . S
C1564 C1565 1.387 . S
C1564 H1568 0.950 . S
C1564 C1573 1.390 . S
C1565 C1564 1.387 . S
C1565 C1567 1.387 . S
H1566 C1573 0.950 . S
C1567 C1565 1.387 . S
C1567 C1569 1.390 . S
C1567 H1571 0.950 . S
H1568 C1564 0.950 . S
C1569 C1567 1.390 . S
C1569 C1570 1.387 . S
C1569 H1572 0.950 . S
C1570 C1569 1.387 . S
C1570 C1573 1.387 . S
H1571 C1567 0.950 . S
H1572 C1569 0.950 . S
C1573 C1564 1.390 . S
C1573 H1566 0.950 . S
C1573 C1570 1.387 . S
C1574 C1575 1.387 . S
C1574 H1578 0.950 . S
C1574 C1583 1.390 . S
C1575 C1574 1.387 . S
C1575 C1577 1.387 . S
H1576 C1583 0.950 . S
C1577 C1575 1.387 . S
C1577 C1579 1.390 . S
C1577 H1581 0.950 . S
H1578 C1574 0.950 . S
C1579 C1577 1.390 . S
C1579 C1580 1.387 . S
C1579 H1582 0.950 . S
C1580 C1579 1.387 . S
C1580 C1583 1.387 . S
H1581 C1577 0.950 . S
H1582 C1579 0.950 . S
C1583 C1574 1.390 . S
C1583 H1576 0.950 . S
C1583 C1580 1.387 . S
C1584 C1585 1.387 . S
C1584 H1588 0.950 . S
C1584 C1593 1.390 . S
C1585 C1584 1.387 . S
C1585 C1587 1.387 . S
H1586 C1593 0.950 . S
C1587 C1585 1.387 . S
C1587 C1589 1.390 . S
C1587 H1591 0.950 . S
H1588 C1584 0.950 . S
C1589 C1587 1.390 . S
C1589 C1590 1.387 . S
C1589 H1592 0.950 . S
C1590 C1589 1.387 . S
C1590 C1593 1.387 . S
H1591 C1587 0.950 . S
H1592 C1589 0.950 . S
C1593 C1584 1.390 . S
C1593 H1586 0.950 . S
C1593 C1590 1.387 . S
C1594 C1595 1.387 . S
C1594 H1598 0.950 . S
C1594 C1603 1.390 . S
C1595 C1594 1.387 . S
C1595 C1597 1.387 1_554 S
H1596 C1603 0.950 . S
C1597 C1595 1.387 1_556 S
C1597 C1599 1.384 1_655 S
C1597 H1601 0.950 1_655 S
H1598 C1594 0.950 . S
C1599 C1597 1.384 1_455 S
C1599 C1600 1.384 1_455 S
C1599 H1602 0.960 . S
C1600 C1599 1.384 1_655 S
C1600 C1603 1.387 1_556 S
H1601 C1597 0.950 1_455 S
H1602 C1599 0.960 . S
C1603 C1594 1.390 . S
C1603 H1596 0.950 . S
C1603 C1600 1.387 1_554 S
C1604 C1605 1.387 . S
C1604 H1608 0.950 . S
C1604 C1613 1.390 . S
C1605 C1604 1.387 . S
C1605 C1607 1.387 . S
H1606 C1613 0.950 . S
C1607 C1605 1.387 . S
C1607 C1609 1.390 . S
C1607 H1611 0.950 . S
H1608 C1604 0.950 . S
C1609 C1607 1.390 . S
C1609 C1610 1.387 . S
C1609 H1612 0.950 . S
C1610 C1609 1.387 . S
C1610 C1613 1.387 . S
H1611 C1607 0.950 . S
H1612 C1609 0.950 . S
C1613 C1604 1.390 . S
C1613 H1606 0.950 . S
C1613 C1610 1.387 . S
C1614 C1615 1.387 1_556 S
C1614 H1618 0.950 . S
C1614 C1623 1.390 . S
C1615 C1614 1.387 1_554 S
C1615 C1617 1.387 . S
H1616 C1623 0.950 . S
C1617 C1615 1.387 . S
C1617 C1619 1.384 1_455 S
C1617 H1621 0.950 1_455 S
H1618 C1614 0.950 . S
C1619 C1617 1.384 1_655 S
C1619 C1620 1.378 1_654 S
C1619 H1622 0.967 . S
C1620 C1619 1.378 1_456 S
C1620 C1623 1.387 . S
H1621 C1617 0.950 1_655 S
H1622 C1619 0.967 . S
C1623 C1614 1.390 . S
C1623 H1616 0.950 . S
C1623 C1620 1.387 . S
C1624 C1625 1.387 . S
C1624 H1628 0.950 . S
C1624 C1633 1.390 . S
C1625 C1624 1.387 . S
C1625 C1627 1.387 . S
H1626 C1633 0.950 . S
C1627 C1625 1.387 . S
C1627 C1629 1.390 . S
C1627 H1631 0.950 . S
H1628 C1624 0.950 . S
C1629 C1627 1.390 . S
C1629 C1630 1.387 . S
C1629 H1632 0.950 . S
C1630 C1629 1.387 . S
C1630 C1633 1.387 . S
H1631 C1627 0.950 . S
H1632 C1629 0.950 . S
C1633 C1624 1.390 . S
C1633 H1626 0.950 . S
C1633 C1630 1.387 . S
C1634 C1635 1.387 . S
C1634 H1638 0.950 . S
C1634 C1643 1.390 . S
C1635 C1634 1.387 . S
C1635 C1637 1.387 . S
H1636 C1643 0.950 . S
C1637 C1635 1.387 . S
C1637 C1639 1.390 . S
C1637 H1641 0.950 . S
H1638 C1634 0.950 . S
C1639 C1637 1.390 . S
C1639 C1640 1.387 . S
C1639 H1642 0.950 . S
C1640 C1639 1.387 . S
C1640 C1643 1.387 . S
H1641 C1637 0.950 . S
H1642 C1639 0.950 . S
C1643 C1634 1.390 . S
C1643 H1636 0.950 . S
C1643 C1640 1.387 . S
C1644 C1645 1.387 . S
C1644 H1648 0.950 . S
C1644 C1653 1.390 . S
C1645 C1644 1.387 . S
C1645 C1647 1.387 . S
H1646 C1653 0.950 . S
C1647 C1645 1.387 . S
C1647 C1649 1.390 . S
C1647 H1651 0.950 . S
H1648 C1644 0.950 . S
C1649 C1647 1.390 . S
C1649 C1650 1.387 . S
C1649 H1652 0.950 . S
C1650 C1649 1.387 . S
C1650 C1653 1.387 . S
H1651 C1647 0.950 . S
H1652 C1649 0.950 . S
C1653 C1644 1.390 . S
C1653 H1646 0.950 . S
C1653 C1650 1.387 . S
C1654 C1655 1.387 . S
C1654 H1658 0.950 . S
C1654 C1663 1.390 . S
C1655 C1654 1.387 . S
C1655 C1657 1.387 . S
H1656 C1663 0.950 . S
C1657 C1655 1.387 . S
C1657 C1659 1.390 . S
C1657 H1661 0.950 . S
H1658 C1654 0.950 . S
C1659 C1657 1.390 . S
C1659 C1660 1.387 . S
C1659 H1662 0.950 . S
C1660 C1659 1.387 . S
C1660 C1663 1.387 . S
H1661 C1657 0.950 . S
H1662 C1659 0.950 . S
C1663 C1654 1.390 . S
C1663 H1656 0.950 . S
C1663 C1660 1.387 . S
C1664 C1665 1.387 . S
C1664 H1668 0.950 . S
C1664 C1673 1.390 . S
C1665 C1664 1.387 . S
C1665 C1667 1.387 . S
H1666 C1673 0.950 . S
C1667 C1665 1.387 . S
C1667 C1669 1.390 . S
C1667 H1671 0.950 . S
H1668 C1664 0.950 . S
C1669 C1667 1.390 . S
C1669 C1670 1.387 . S
C1669 H1672 0.950 . S
C1670 C1669 1.387 . S
C1670 C1673 1.387 . S
H1671 C1667 0.950 . S
H1672 C1669 0.950 . S
C1673 C1664 1.390 . S
C1673 H1666 0.950 . S
C1673 C1670 1.387 . S
C1674 C1675 1.387 . S
C1674 H1678 0.950 . S
C1674 C1683 1.390 . S
C1675 C1674 1.387 . S
C1675 C1677 1.387 . S
H1676 C1683 0.950 . S
C1677 C1675 1.387 . S
C1677 C1679 1.390 . S
C1677 H1681 0.950 . S
H1678 C1674 0.950 . S
C1679 C1677 1.390 . S
C1679 C1680 1.387 . S
C1679 H1682 0.950 . S
C1680 C1679 1.387 . S
C1680 C1683 1.387 . S
H1681 C1677 0.950 . S
H1682 C1679 0.950 . S
C1683 C1674 1.390 . S
C1683 H1676 0.950 . S
C1683 C1680 1.387 . S
C1684 C1685 1.387 . S
C1684 H1688 0.950 . S
C1684 C1693 1.390 . S
C1685 C1684 1.387 . S
C1685 C1687 1.387 . S
H1686 C1693 0.950 . S
C1687 C1685 1.387 . S
C1687 C1689 1.390 . S
C1687 H1691 0.950 . S
H1688 C1684 0.950 . S
C1689 C1687 1.390 . S
C1689 C1690 1.387 . S
C1689 H1692 0.950 . S
C1690 C1689 1.387 . S
C1690 C1693 1.387 . S
H1691 C1687 0.950 . S
H1692 C1689 0.950 . S
C1693 C1684 1.390 . S
C1693 H1686 0.950 . S
C1693 C1690 1.387 . S
C1694 C1695 1.387 . S
C1694 H1698 0.950 . S
C1694 C1703 1.390 . S
C1695 C1694 1.387 . S
C1695 C1697 1.387 . S
H1696 C1703 0.950 . S
C1697 C1695 1.387 . S
C1697 C1699 1.390 . S
C1697 H1701 0.950 . S
H1698 C1694 0.950 . S
C1699 C1697 1.390 . S
C1699 C1700 1.387 . S
C1699 H1702 0.950 . S
C1700 C1699 1.387 . S
C1700 C1703 1.387 . S
H1701 C1697 0.950 . S
H1702 C1699 0.950 . S
C1703 C1694 1.390 . S
C1703 H1696 0.950 . S
C1703 C1700 1.387 . S
C1704 C1705 1.387 1_554 S
C1704 H1708 0.950 . S
C1704 C1713 1.390 . S
C1705 C1704 1.387 1_556 S
C1705 C1707 1.387 . S
H1706 C1713 0.950 . S
C1707 C1705 1.387 . S
C1707 C1709 1.390 . S
C1707 H1711 0.950 . S
H1708 C1704 0.950 . S
C1709 C1707 1.390 . S
C1709 C1710 1.387 1_556 S
C1709 H1712 0.950 . S
C1710 C1709 1.387 1_554 S
C1710 C1713 1.387 . S
H1711 C1707 0.950 . S
H1712 C1709 0.950 . S
C1713 C1704 1.390 . S
C1713 H1706 0.950 . S
C1713 C1710 1.387 . S
C1714 C1715 1.387 . S
C1714 H1718 0.950 . S
C1714 C1723 1.390 . S
C1715 C1714 1.387 . S
C1715 C1717 1.387 . S
H1716 C1723 0.950 . S
C1717 C1715 1.387 . S
C1717 C1719 1.390 . S
C1717 H1721 0.950 . S
H1718 C1714 0.950 . S
C1719 C1717 1.390 . S
C1719 C1720 1.387 . S
C1719 H1722 0.950 . S
C1720 C1719 1.387 . S
C1720 C1723 1.387 . S
H1721 C1717 0.950 . S
H1722 C1719 0.950 . S
C1723 C1714 1.390 . S
C1723 H1716 0.950 . S
C1723 C1720 1.387 . S
C1724 C1725 1.387 . S
C1724 H1728 0.950 . S
C1724 C1733 1.390 . S
C1725 C1724 1.387 . S
C1725 C1727 1.387 . S
H1726 C1733 0.950 . S
C1727 C1725 1.387 . S
C1727 C1729 1.390 . S
C1727 H1731 0.950 . S
H1728 C1724 0.950 . S
C1729 C1727 1.390 . S
C1729 C1730 1.387 . S
C1729 H1732 0.950 . S
C1730 C1729 1.387 . S
C1730 C1733 1.387 . S
H1731 C1727 0.950 . S
H1732 C1729 0.950 . S
C1733 C1724 1.390 . S
C1733 H1726 0.950 . S
C1733 C1730 1.387 . S
C1734 C1735 1.387 . S
C1734 H1738 0.950 . S
C1734 C1743 1.390 . S
C1735 C1734 1.387 . S
C1735 C1737 1.387 . S
H1736 C1743 0.950 . S
C1737 C1735 1.387 . S
C1737 C1739 1.390 1_554 S
C1737 H1741 0.950 1_564 S
H1738 C1734 0.950 . S
C1739 C1737 1.390 1_556 S
C1739 C1740 1.387 1_556 S
C1739 H1742 0.950 . S
C1740 C1739 1.387 1_554 S
C1740 C1743 1.387 . S
H1741 C1737 0.950 1_546 S
H1742 C1739 0.950 . S
C1743 C1734 1.390 . S
C1743 H1736 0.950 . S
C1743 C1740 1.387 . S
C1270 C257 1.801 . S
C1265 C73 1.803 . S
C1280 C316 1.316 . S
C1275 C82 1.264 . S
C1285 C100 1.841 . S
C1290 C433 1.827 . S
C1300 C501 1.353 . S
C1295 C56 1.321 1_655 S
C1310 C580 1.425 . S
C1305 C134 1.423 . S
C1320 C705 1.783 . S
C1315 C165 1.762 . S
C1325 C147 1.197 . S
C1330 C765 1.237 . S
C1340 C873 1.809 . S
C1335 C125 1.811 . S
C1345 C151 1.419 . S
C1350 C969 1.421 . S
C1360 C1029 1.461 . S
C1355 C121 1.416 . S
C1365 C139 1.789 . S
C1370 C932 1.796 . S
C1380 C1049 1.320 . S
C1375 C164 1.319 . S
C1385 C95 1.307 . S
C1390 C1117 1.367 . S
C1395 C61 1.502 . S
C1400 C1108 1.512 . S
C1405 C74 1.459 . S
C1410 C1137 1.465 . S
C1415 C86 1.763 . S
C1420 C1145 1.765 . S
C1425 C47 1.441 . S
C1430 C529 1.440 . S
C1435 C186 1.326 . S
C1440 C492 1.388 . S
C1450 C228 1.575 . S
C1445 C204 1.579 . S
C1460 C325 1.845 . S
C1455 C112 1.850 . S
C1465 C60 1.395 1_545 S
C1470 C589 1.390 . S
C1480 C881 1.447 . S
C1475 C152 1.437 . S
C1490 C609 1.901 . S
C1485 C126 1.895 1_545 S
C1500 C793 1.356 . S
C1495 C160 1.371 . S
C1510 C785 1.801 . S
C1505 C190 1.803 . S
C1515 C199 1.264 . S
C1520 C853 1.316 . S
C1525 C113 1.841 . S
C1530 C617 1.828 . S
C1540 C668 1.353 . S
C1535 C173 1.332 . S
C1545 C43 1.422 . S
C1550 C413 1.425 . S
C1560 C521 1.783 . S
C1555 C9 1.762 1_655 S
C1570 C237 1.236 . S
C1565 C17 1.193 . S
C1580 C353 1.809 . S
C1575 C34 1.811 1_455 S
C1585 C21 1.419 . S
C1590 C1057 1.419 . S
C1595 C30 1.419 . S
C1600 C941 1.462 . S
C1605 C48 1.789 . S
C1610 C1020 1.798 . S
C1615 C8 1.319 . S
C1620 C961 1.320 . S
C1630 C1205 1.367 . S
C1625 C108 1.308 . S
C1640 C1196 1.512 . S
C1635 C178 1.488 1_554 S
C1650 C1225 1.465 . S
C1645 C191 1.459 . S
C1655 C203 1.764 . S
C1660 C1233 1.765 . S
C1665 C138 1.441 . S
C1670 C697 1.440 . S
C1680 C677 1.389 . S
C1675 C69 1.327 . S
C1690 C756 1.575 . S
C1685 C87 1.579 . S
C1700 C844 1.845 . S
C1695 C99 1.850 . S
C1705 C177 1.395 . S
C1710 C404 1.390 . S
C1720 C345 1.447 . S
C1715 C22 1.437 . S
C1725 C35 1.895 . S
C1730 C441 1.901 . S
C1740 C265 1.356 . S
C1735 C4 1.372 . S
