# Generated by pormake.
# Topology rtl, (3,6)-cn, num edge types: 1
# Building blocks:
#     Node 0, Type 0, BuildingBlock: BELTOD_clean_linker_0, # of connection points: 3
#     Node 1, Type 0, BuildingBlock: BELTOD_clean_linker_0, # of connection points: 3
#     Node 2, Type 0, BuildingBlock: BELTOD_clean_linker_0, # of connection points: 3
#     Node 3, Type 0, BuildingBlock: BELTOD_clean_linker_0, # of connection points: 3
#     Node 4, Type 1, BuildingBlock: CIFDUS_clean_sbu_1, # of connection points: 6
#     Node 5, Type 1, BuildingBlock: CIFDUS_clean_sbu_1, # of connection points: 6
#     Edge 6, Type (0, 1), BuildingBlock: MIFKUJ_clean_linker_0, # of connection points: 2
#     Edge 7, Type (0, 1), BuildingBlock: MIFKUJ_clean_linker_0, # of connection points: 2
#     Edge 8, Type (0, 1), BuildingBlock: MIFKUJ_clean_linker_0, # of connection points: 2
#     Edge 9, Type (0, 1), BuildingBlock: MIFKUJ_clean_linker_0, # of connection points: 2
#     Edge 10, Type (0, 1), BuildingBlock: MIFKUJ_clean_linker_0, # of connection points: 2
#     Edge 11, Type (0, 1), BuildingBlock: MIFKUJ_clean_linker_0, # of connection points: 2
#     Edge 12, Type (0, 1), BuildingBlock: MIFKUJ_clean_linker_0, # of connection points: 2
#     Edge 13, Type (0, 1), BuildingBlock: MIFKUJ_clean_linker_0, # of connection points: 2
#     Edge 14, Type (0, 1), BuildingBlock: MIFKUJ_clean_linker_0, # of connection points: 2
#     Edge 15, Type (0, 1), BuildingBlock: MIFKUJ_clean_linker_0, # of connection points: 2
#     Edge 16, Type (0, 1), BuildingBlock: MIFKUJ_clean_linker_0, # of connection points: 2
#     Edge 17, Type (0, 1), BuildingBlock: MIFKUJ_clean_linker_0, # of connection points: 2
# Relax obj value: 0.025
# Max RMSD: 0.063
# Mean RMSD: 0.044
data_MOF--net-rtl--node1-CIFDUS_clean_sbu_1--node2-BELTOD_clean_linker_0--edge1-MIFKUJ_clean_linker_0
_symmetry_space_group_name_H-M    P1
_symmetry_Int_Tables_number       1
_symmetry_cell_setting            triclinic
loop_
_symmetry_equiv_pos_as_xyz
'x, y, z'
_cell_length_a     44.36013
_cell_length_b     49.891769
_cell_length_c     34.47017
_cell_angle_alpha  89.264934
_cell_angle_beta   97.636138
_cell_angle_gamma 90.027364
loop_
_atom_site_label
_atom_site_type_symbol
_atom_site_fract_x
_atom_site_fract_y
_atom_site_fract_z
_atom_type_partial_charge
P0 P 0.29876 0.9089 0.0961 0.0
H1 H 0.30914 0.94295 0.16506 0.0
H2 H 0.27832 0.95338 0.21664 0.0
H3 H 0.20898 0.89879 0.16583 0.0
H4 H 0.23967 0.88887 0.1134 0.0
H5 H 0.34931 0.88749 0.0608 0.0
H6 H 0.37245 0.84305 0.06094 0.0
H7 H 0.3083 0.81318 0.13506 0.0
H8 H 0.28511 0.85758 0.1344 0.0
H9 H 0.27396 0.95748 0.0569 0.0
H10 H 0.27068 0.87256 0.03484 0.0
O11 O 0.32697 0.93123 0.09863 0.0
H12 H 0.24271 0.96599 0.99394 0.0
H13 H 0.23927 0.88087 0.97208 0.0
C14 C 0.27673 0.91507 0.13544 0.0
C15 C 0.28735 0.93317 0.16491 0.0
C16 C 0.26968 0.93921 0.19432 0.0
C17 C 0.24127 0.92694 0.19512 0.0
C18 C 0.23089 0.90841 0.16597 0.0
C19 C 0.24837 0.90273 0.1361 0.0
C20 C 0.31582 0.87601 0.09808 0.0
C21 C 0.34038 0.87141 0.07733 0.0
C22 C 0.35364 0.84599 0.07751 0.0
C23 C 0.34237 0.82455 0.09821 0.0
C24 C 0.31741 0.82919 0.11858 0.0
C25 C 0.30422 0.85469 0.11845 0.0
C26 C 0.27504 0.91448 0.0502 0.0
C27 C 0.26649 0.94068 0.03847 0.0
C28 C 0.2485 0.94549 0.00261 0.0
C29 C 0.23869 0.9241 0.97789 0.0
C30 C 0.24692 0.89779 0.99014 0.0
C31 C 0.26481 0.89301 0.02611 0.0
P32 P 0.77296 0.63578 0.58379 0.0
H33 H 0.78372 0.60864 0.51216 0.0
H34 H 0.75151 0.60052 0.45029 0.0
H35 H 0.6789 0.64558 0.49085 0.0
H36 H 0.71138 0.65366 0.55285 0.0
H37 H 0.83636 0.65348 0.59505 0.0
H38 H 0.86022 0.69744 0.59594 0.0
H39 H 0.77148 0.73482 0.57935 0.0
H40 H 0.74767 0.69044 0.57775 0.0
H41 H 0.73069 0.59286 0.59405 0.0
H42 H 0.76615 0.66194 0.65876 0.0
O43 O 0.80053 0.61275 0.58801 0.0
H44 H 0.70183 0.58028 0.64691 0.0
H45 H 0.73766 0.6492 0.71238 0.0
C46 C 0.74985 0.63158 0.53718 0.0
C47 C 0.76091 0.61683 0.50776 0.0
C48 C 0.7424 0.61206 0.47247 0.0
C49 C 0.71254 0.62219 0.46582 0.0
C50 C 0.70183 0.63762 0.49502 0.0
C51 C 0.72035 0.64224 0.53045 0.0
C52 C 0.79018 0.66863 0.58631 0.0
C53 C 0.82194 0.67108 0.59171 0.0
C54 C 0.83563 0.69634 0.59243 0.0
C55 C 0.81784 0.71979 0.58782 0.0
C56 C 0.78592 0.71723 0.58253 0.0
C57 C 0.77224 0.69186 0.58183 0.0
C58 C 0.75011 0.62859 0.62214 0.0
C59 C 0.73203 0.60548 0.61956 0.0
C60 C 0.71577 0.59814 0.65003 0.0
C61 C 0.71747 0.61365 0.68402 0.0
C62 C 0.73553 0.63698 0.68642 0.0
C63 C 0.75187 0.64429 0.6558 0.0
P64 P 0.78901 0.18055 0.99703 0.0
H65 H 0.7883 0.19445 0.91486 0.0
H66 H 0.79893 0.16859 0.85841 0.0
H67 H 0.80444 0.09626 0.92918 0.0
H68 H 0.79341 0.12215 0.98544 0.0
H69 H 0.76793 0.21537 0.0545 0.0
H70 H 0.72524 0.24658 0.05133 0.0
H71 H 0.69055 0.21744 0.93659 0.0
H72 H 0.73316 0.18603 0.9401 0.0
H73 H 0.84739 0.1597 0.03101 0.0
H74 H 0.75568 0.15879 0.0597 0.0
O75 O 0.81538 0.20422 0.99524 0.0
H76 H 0.86546 0.13797 0.09361 0.0
H77 H 0.77382 0.13728 0.12308 0.0
C78 C 0.79024 0.16029 0.95437 0.0
C79 C 0.79103 0.17292 0.91796 0.0
C80 C 0.79703 0.15812 0.8857 0.0
C81 C 0.80269 0.13044 0.88949 0.0
C82 C 0.80042 0.11762 0.92556 0.0
C83 C 0.79405 0.13242 0.95772 0.0
C84 C 0.75371 0.19827 0.99767 0.0
C85 C 0.75066 0.21513 0.02914 0.0
C86 C 0.72625 0.233 0.02728 0.0
C87 C 0.70465 0.2346 0.99357 0.0
C88 C 0.70704 0.21685 0.96275 0.0
C89 C 0.73136 0.19878 0.96482 0.0
C90 C 0.80041 0.16155 0.04129 0.0
C91 C 0.83113 0.15475 0.05082 0.0
C92 C 0.84143 0.1424 0.08659 0.0
C93 C 0.82113 0.13649 0.11351 0.0
C94 C 0.78996 0.14176 0.10292 0.0
C95 C 0.77963 0.15421 0.06689 0.0
P96 P 0.25734 0.36796 0.50042 0.0
H97 H 0.26183 0.35105 0.58159 0.0
H98 H 0.27667 0.37435 0.643 0.0
H99 H 0.27805 0.44941 0.57946 0.0
H100 H 0.2624 0.42604 0.518 0.0
H101 H 0.23657 0.32659 0.44515 0.0
H102 H 0.19557 0.29355 0.44333 0.0
H103 H 0.16179 0.33263 0.53973 0.0
H104 H 0.20249 0.36617 0.54111 0.0
H105 H 0.30831 0.40102 0.48681 0.0
H106 H 0.22246 0.37836 0.42178 0.0
O107 O 0.28529 0.34531 0.50628 0.0
H108 H 0.32263 0.42351 0.42899 0.0
H109 H 0.23733 0.39989 0.36284 0.0
C110 C 0.26147 0.38669 0.5452 0.0
C111 C 0.26457 0.37262 0.58094 0.0
C112 C 0.27296 0.38598 0.61604 0.0
C113 C 0.27876 0.41367 0.61596 0.0
C114 C 0.27403 0.42801 0.58027 0.0
C115 C 0.26513 0.41463 0.54514 0.0
C116 C 0.22263 0.34882 0.49322 0.0
C117 C 0.21977 0.32865 0.46504 0.0
C118 C 0.19644 0.3098 0.46402 0.0
C119 C 0.17568 0.31079 0.49128 0.0
C120 C 0.17749 0.33175 0.51823 0.0
C121 C 0.20078 0.35081 0.51905 0.0
C122 C 0.26434 0.38806 0.45872 0.0
C123 C 0.29236 0.40116 0.46012 0.0
C124 C 0.30067 0.41374 0.42683 0.0
C125 C 0.28139 0.41304 0.39101 0.0
C126 C 0.25268 0.40082 0.38997 0.0
C127 C 0.24422 0.38839 0.42365 0.0
O128 O 0.98655 0.02827 0.49678 0.0
Mn129 Mn 0.01316 0.01085 0.54559 0.0
O130 O 0.97186 0.99397 0.45682 0.0
Mn131 Mn 0.99351 0.96768 0.48642 0.0
O132 O 0.04021 0.99351 0.59513 0.0
O133 O 0.03523 0.0462 0.55587 0.0
Mn134 Mn 0.03927 0.05113 0.60708 0.0
O135 O 0.97925 0.02061 0.58008 0.0
O136 O 0.06939 0.02684 0.62299 0.0
O137 O 0.0477 0.00124 0.51104 0.0
O138 O 0.03349 0.96339 0.47969 0.0
O139 O 0.03943 0.08446 0.58455 0.0
O140 O 0.00436 0.04418 0.62889 0.0
C141 C 0.97604 0.95248 0.53562 0.0
C142 C 0.97156 0.01868 0.46548 0.0
C143 C 0.06267 0.00208 0.61967 0.0
C144 C 0.03357 0.07201 0.55173 0.0
C145 C 0.98072 0.03217 0.61329 0.0
C146 C 0.05313 0.98133 0.48959 0.0
O147 O 0.99121 0.97492 0.53597 0.0
O148 O 0.97293 0.93942 0.50309 0.0
O149 O 0.52425 0.53802 0.08629 0.0
Mn150 Mn 0.49606 0.51768 0.04101 0.0
O151 O 0.54833 0.50586 0.12352 0.0
Mn152 Mn 0.52283 0.48007 0.10214 0.0
O153 O 0.46849 0.49839 0.99511 0.0
O154 O 0.47321 0.55303 0.03054 0.0
Mn155 Mn 0.46782 0.55808 0.97935 0.0
O156 O 0.52757 0.52825 0.00239 0.0
O157 O 0.44464 0.53061 0.95648 0.0
O158 O 0.46365 0.50766 0.0789 0.0
O159 O 0.48623 0.47711 0.12072 0.0
O160 O 0.4498 0.58699 0.99795 0.0
O161 O 0.50581 0.56177 0.96421 0.0
C162 C 0.53274 0.45779 0.05607 0.0
C163 C 0.5445 0.53031 0.11446 0.0
C164 C 0.44946 0.50613 0.96565 0.0
C165 C 0.45912 0.57585 0.03155 0.0
C166 C 0.52828 0.54652 0.97569 0.0
C167 C 0.4632 0.49113 0.1078 0.0
O168 O 0.51852 0.481 0.05017 0.0
O169 O 0.54078 0.44974 0.0919 0.0
H170 H 0.1182 0.30293 0.4535 0.0
H171 H 0.08821 0.26125 0.45312 0.0
H172 H 0.15895 0.22506 0.53512 0.0
H173 H 0.18853 0.26661 0.53581 0.0
H174 H 0.14228 0.19609 0.46463 0.0
H175 H 0.09585 0.24016 0.56652 0.0
H176 H 0.0674 0.27631 0.59366 0.0
H177 H 0.99158 0.2636 0.50462 0.0
H178 H 0.01977 0.2276 0.47661 0.0
H179 H 0.0899 0.07485 0.53376 0.0
H180 H 0.11056 0.11628 0.51238 0.0
H181 H 0.01971 0.14502 0.47208 0.0
H182 H 0.99906 0.10453 0.49943 0.0
H183 H 0.04274 0.18055 0.51131 0.0
H184 H 0.08621 0.13412 0.41132 0.0
H185 H 0.11412 0.09819 0.38279 0.0
H186 H 0.1943 0.11583 0.46249 0.0
H187 H 0.16681 0.15167 0.49181 0.0
C188 C 0.12683 0.28619 0.47202 0.0
C189 C 0.15541 0.28776 0.49485 0.0
C190 C 0.10982 0.26249 0.47177 0.0
C191 C 0.12146 0.2401 0.49401 0.0
C192 C 0.14962 0.2421 0.51773 0.0
C193 C 0.1664 0.26577 0.51826 0.0
C194 C 0.10574 0.21386 0.49049 0.0
C195 C 0.12051 0.19251 0.47487 0.0
C196 C 0.07686 0.20964 0.50242 0.0
C197 C 0.06008 0.23143 0.51914 0.0
C198 C 0.07325 0.24528 0.55244 0.0
C199 C 0.05714 0.26569 0.56806 0.0
C200 C 0.02775 0.27232 0.55079 0.0
C201 C 0.01438 0.2585 0.51791 0.0
C202 C 0.03041 0.23808 0.50217 0.0
C203 C 0.07436 0.08933 0.51821 0.0
C204 C 0.04289 0.08638 0.51797 0.0
C205 C 0.08627 0.11337 0.50588 0.0
C206 C 0.06694 0.1343 0.49013 0.0
C207 C 0.03533 0.12957 0.48456 0.0
C208 C 0.0234 0.10604 0.49914 0.0
C209 C 0.07933 0.16199 0.48555 0.0
C210 C 0.06408 0.18382 0.49989 0.0
C211 C 0.10765 0.16679 0.47176 0.0
C212 C 0.1244 0.14556 0.45374 0.0
C213 C 0.10976 0.1303 0.4228 0.0
C214 C 0.12551 0.10995 0.40652 0.0
C215 C 0.15593 0.10478 0.4208 0.0
C216 C 0.17074 0.11992 0.4514 0.0
C217 C 0.15511 0.14031 0.46778 0.0
H218 H 0.168 0.08907 0.40801 0.0
H219 H 0.0153 0.28811 0.56294 0.0
H220 H 0.31393 0.77571 0.09167 0.0
H221 H 0.33743 0.73135 0.09238 0.0
H222 H 0.42637 0.76771 0.10559 0.0
H223 H 0.40305 0.81215 0.105 0.0
H224 H 0.42114 0.72866 0.05096 0.0
H225 H 0.39832 0.73742 0.18362 0.0
H226 H 0.36399 0.74629 0.23271 0.0
H227 H 0.30721 0.68052 0.18962 0.0
H228 H 0.34098 0.67149 0.13992 0.0
H229 H 0.49926 0.60886 0.07242 0.0
H230 H 0.48289 0.65111 0.09821 0.0
H231 H 0.39107 0.62116 0.08985 0.0
H232 H 0.4076 0.57892 0.06457 0.0
H233 H 0.40023 0.65782 0.1462 0.0
H234 H 0.41576 0.65057 0.01224 0.0
H235 H 0.44356 0.6419 0.95632 0.0
H236 H 0.50712 0.70427 0.99398 0.0
H237 H 0.47996 0.713 0.05057 0.0
C238 C 0.33851 0.77427 0.09515 0.0
C239 C 0.3566 0.79751 0.0985 0.0
C240 C 0.35191 0.74889 0.0955 0.0
C241 C 0.3837 0.74616 0.09963 0.0
C242 C 0.40181 0.76931 0.10246 0.0
C243 C 0.38842 0.79471 0.102 0.0
C244 C 0.39808 0.71919 0.10049 0.0
C245 C 0.41712 0.71336 0.07233 0.0
C246 C 0.39193 0.69889 0.12744 0.0
C247 C 0.3721 0.70386 0.15797 0.0
C248 C 0.37846 0.72491 0.18455 0.0
C249 C 0.35909 0.72997 0.21246 0.0
C250 C 0.33341 0.714 0.21425 0.0
C251 C 0.3271 0.69287 0.18821 0.0
C252 C 0.34637 0.68774 0.16021 0.0
C253 C 0.47607 0.6106 0.07882 0.0
C254 C 0.4547 0.59061 0.06679 0.0
C255 C 0.46656 0.635 0.09274 0.0
C256 C 0.43554 0.63964 0.09467 0.0
C257 C 0.41506 0.61818 0.08829 0.0
C258 C 0.42462 0.59381 0.07439 0.0
C259 C 0.42368 0.66739 0.097 0.0
C260 C 0.40484 0.6733 0.1254 0.0
C261 C 0.42941 0.68764 0.06962 0.0
C262 C 0.44613 0.68212 0.03602 0.0
C263 C 0.43588 0.66221 0.00888 0.0
C264 C 0.45148 0.65733 0.97701 0.0
C265 C 0.47718 0.67244 0.9717 0.0
C266 C 0.48729 0.6925 0.99822 0.0
C267 C 0.47182 0.69741 0.03023 0.0
H268 H 0.48918 0.66867 0.94696 0.0
H269 H 0.31842 0.71797 0.23585 0.0
H270 H 0.80063 0.76401 0.54178 0.0
H271 H 0.82538 0.80784 0.54265 0.0
H272 H 0.894 0.78007 0.63485 0.0
H273 H 0.86871 0.73661 0.63528 0.0
H274 H 0.87755 0.82905 0.65037 0.0
H275 H 0.90793 0.78557 0.53841 0.0
H276 H 0.90126 0.76199 0.47541 0.0
H277 H 0.85018 0.8286 0.42081 0.0
H278 H 0.85625 0.85247 0.48363 0.0
H279 H 0.99801 0.9191 0.59498 0.0
H280 H 0.96709 0.88235 0.61576 0.0
H281 H 0.88588 0.92242 0.56186 0.0
H282 H 0.91681 0.95923 0.54132 0.0
H283 H 0.90737 0.86891 0.52852 0.0
H284 H 0.86067 0.89511 0.65742 0.0
H285 H 0.87086 0.91825 0.72079 0.0
H286 H 0.96088 0.88473 0.73948 0.0
H287 H 0.95078 0.86082 0.67674 0.0
C288 C 0.82077 0.76731 0.5626 0.0
C289 C 0.83266 0.74668 0.58842 0.0
C290 C 0.83512 0.79233 0.56277 0.0
C291 C 0.8618 0.79725 0.58855 0.0
C292 C 0.87349 0.77681 0.61465 0.0
C293 C 0.85913 0.75184 0.61458 0.0
C294 C 0.87764 0.82359 0.58832 0.0
C295 C 0.88417 0.83756 0.62365 0.0
C296 C 0.88622 0.83507 0.55357 0.0
C297 C 0.88223 0.82066 0.51584 0.0
C298 C 0.89503 0.79508 0.51306 0.0
C299 C 0.89142 0.78169 0.47736 0.0
C300 C 0.87522 0.79375 0.44416 0.0
C301 C 0.86266 0.81926 0.44657 0.0
C302 C 0.8662 0.83274 0.48221 0.0
C303 C 0.97346 0.92105 0.59026 0.0
C304 C 0.95979 0.94216 0.56701 0.0
C305 C 0.95577 0.89982 0.60165 0.0
C306 C 0.9242 0.89959 0.59013 0.0
C307 C 0.91018 0.92227 0.57124 0.0
C308 C 0.92787 0.94356 0.56013 0.0
C309 C 0.90717 0.874 0.5904 0.0
C310 C 0.90043 0.86029 0.55501 0.0
C311 C 0.89899 0.86248 0.62497 0.0
C312 C 0.90508 0.87643 0.66258 0.0
C313 C 0.88257 0.89268 0.67519 0.0
C314 C 0.88831 0.90586 0.71095 0.0
C315 C 0.91656 0.9031 0.73402 0.0
C316 C 0.93904 0.88692 0.72155 0.0
C317 C 0.93329 0.87347 0.686 0.0
H318 H 0.92101 0.91344 0.7616 0.0
H319 H 0.87248 0.78337 0.41654 0.0
H320 H 0.66849 0.25081 0.0475 0.0
H321 H 0.63349 0.28914 0.04222 0.0
H322 H 0.65409 0.3061 0.92566 0.0
H323 H 0.68902 0.26781 0.93064 0.0
H324 H 0.65935 0.35113 0.98276 0.0
H325 H 0.58875 0.27983 0.93162 0.0
H326 H 0.56476 0.23572 0.9389 0.0
H327 H 0.53252 0.26158 0.04441 0.0
H328 H 0.55658 0.30569 0.03799 0.0
H329 H 0.56359 0.46328 0.99136 0.0
H330 H 0.5866 0.42544 0.96073 0.0
H331 H 0.53978 0.37056 0.03048 0.0
H332 H 0.51399 0.40749 0.05526 0.0
H333 H 0.5478 0.34379 0.98042 0.0
H334 H 0.62342 0.40277 0.05223 0.0
H335 H 0.65404 0.44376 0.06577 0.0
H336 H 0.68297 0.44 0.95191 0.0
H337 H 0.65235 0.39911 0.93766 0.0
C338 C 0.66535 0.26259 0.02065 0.0
C339 C 0.6814 0.25624 0.98942 0.0
C340 C 0.64533 0.2844 0.01764 0.0
C341 C 0.64121 0.30037 0.9835 0.0
C342 C 0.65693 0.29395 0.95217 0.0
C343 C 0.67666 0.27196 0.95497 0.0
C344 C 0.62132 0.32435 0.98112 0.0
C345 C 0.63485 0.34974 0.98193 0.0
C346 C 0.58965 0.32233 0.98135 0.0
C347 C 0.57449 0.29603 0.98431 0.0
C348 C 0.5766 0.27607 0.9564 0.0
C349 C 0.563 0.25107 0.96039 0.0
C350 C 0.54714 0.24585 0.9921 0.0
C351 C 0.54476 0.26565 0.01983 0.0
C352 C 0.55832 0.29066 0.01597 0.0
C353 C 0.55693 0.443 0.99788 0.0
C354 C 0.53699 0.43825 0.0256 0.0
C355 C 0.57089 0.42126 0.9815 0.0
C356 C 0.56641 0.39469 0.99443 0.0
C357 C 0.54416 0.39037 0.01935 0.0
C358 C 0.52918 0.41174 0.03375 0.0
C359 C 0.5858 0.37138 0.9855 0.0
C360 C 0.57224 0.34578 0.98157 0.0
C361 C 0.61785 0.37314 0.9857 0.0
C362 C 0.63517 0.39826 0.99362 0.0
C363 C 0.63606 0.41089 0.02997 0.0
C364 C 0.65347 0.43404 0.0378 0.0
C365 C 0.67031 0.44456 0.00964 0.0
C366 C 0.6698 0.43192 0.97361 0.0
C367 C 0.65241 0.40879 0.96563 0.0
H368 H 0.68384 0.46244 0.01579 0.0
H369 H 0.53667 0.22647 0.99517 0.0
H370 H 0.21516 0.89255 0.24309 0.0
H371 H 0.18612 0.90395 0.29622 0.0
H372 H 0.19531 0.98809 0.26932 0.0
H373 H 0.22554 0.97666 0.2174 0.0
H374 H 0.20408 0.98219 0.34345 0.0
H375 H 0.12654 0.95047 0.24448 0.0
H376 H 0.10175 0.91871 0.19606 0.0
H377 H 0.09769 0.85965 0.28692 0.0
H378 H 0.12281 0.89093 0.33581 0.0
H379 H 0.08164 0.02151 0.45341 0.0
H380 H 0.11779 0.01493 0.40602 0.0
H381 H 0.12252 0.93057 0.43535 0.0
H382 H 0.08639 0.93702 0.48191 0.0
H383 H 0.1058 0.93871 0.35858 0.0
H384 H 0.18106 0.97341 0.4583 0.0
H385 H 0.20563 0.00629 0.50495 0.0
H386 H 0.21415 0.06143 0.41043 0.0
H387 H 0.1882 0.02947 0.36333 0.0
C388 C 0.21078 0.91344 0.24846 0.0
C389 C 0.22253 0.93373 0.22618 0.0
C390 C 0.19406 0.91998 0.2787 0.0
C391 C 0.18801 0.94693 0.28653 0.0
C392 C 0.19964 0.96717 0.26402 0.0
C393 C 0.21686 0.96065 0.23431 0.0
C394 C 0.17023 0.95406 0.31873 0.0
C395 C 0.18232 0.97302 0.34638 0.0
C396 C 0.14207 0.94178 0.32309 0.0
C397 C 0.1268 0.92298 0.29374 0.0
C398 C 0.12054 0.93065 0.25409 0.0
C399 C 0.1064 0.91274 0.22657 0.0
C400 C 0.09822 0.88715 0.2384 0.0
C401 C 0.10407 0.87946 0.27779 0.0
C402 C 0.11822 0.89728 0.30543 0.0
C403 C 0.09142 0.00183 0.4508 0.0
C404 C 0.08132 0.97976 0.4713 0.0
C405 C 0.11185 0.99802 0.4235 0.0
C406 C 0.1226 0.97216 0.4168 0.0
C407 C 0.11433 0.95062 0.4397 0.0
C408 C 0.0939 0.95437 0.46657 0.0
C409 C 0.1398 0.96668 0.38352 0.0
C410 C 0.12748 0.94804 0.35554 0.0
C411 C 0.16751 0.97955 0.37868 0.0
C412 C 0.18216 0.99915 0.40728 0.0
C413 C 0.18753 0.99276 0.44748 0.0
C414 C 0.20172 0.01127 0.47404 0.0
C415 C 0.21117 0.03605 0.46071 0.0
C416 C 0.20648 0.04236 0.42077 0.0
C417 C 0.1919 0.02411 0.39415 0.0
H418 H 0.2223 0.05029 0.48128 0.0
H419 H 0.08729 0.87331 0.21704 0.0
H420 H 0.68602 0.64518 0.72957 0.0
H421 H 0.65821 0.63093 0.78298 0.0
H422 H 0.68305 0.54875 0.76611 0.0
H423 H 0.71107 0.56283 0.71291 0.0
H424 H 0.62301 0.55348 0.77476 0.0
H425 H 0.71883 0.5845 0.84255 0.0
H426 H 0.76005 0.61737 0.85836 0.0
H427 H 0.69642 0.67336 0.89527 0.0
H428 H 0.65476 0.64095 0.8792 0.0
H429 H 0.56451 0.50833 0.94795 0.0
H430 H 0.60166 0.51639 0.90187 0.0
H431 H 0.58813 0.60167 0.91028 0.0
H432 H 0.55166 0.59374 0.95602 0.0
H433 H 0.64592 0.59172 0.90754 0.0
H434 H 0.55034 0.56587 0.8363 0.0
H435 H 0.50604 0.53674 0.81737 0.0
H436 H 0.56482 0.47535 0.78365 0.0
H437 H 0.60957 0.50397 0.80302 0.0
C438 C 0.68584 0.62411 0.73748 0.0
C439 C 0.70081 0.60518 0.71692 0.0
C440 C 0.66987 0.61597 0.76796 0.0
C441 C 0.66875 0.58877 0.7788 0.0
C442 C 0.68352 0.56982 0.75822 0.0
C443 C 0.69946 0.57793 0.72772 0.0
C444 C 0.65212 0.58007 0.81151 0.0
C445 C 0.62838 0.56143 0.80401 0.0
C446 C 0.65857 0.59098 0.84939 0.0
C447 C 0.68367 0.61036 0.85944 0.0
C448 C 0.71361 0.60388 0.85383 0.0
C449 C 0.73705 0.62242 0.86287 0.0
C450 C 0.73085 0.64745 0.87776 0.0
C451 C 0.7012 0.65397 0.88373 0.0
C452 C 0.67767 0.63551 0.87471 0.0
C453 C 0.57029 0.52874 0.9408 0.0
C454 C 0.55535 0.55042 0.95556 0.0
C455 C 0.59116 0.53334 0.91414 0.0
C456 C 0.59737 0.55966 0.90218 0.0
C457 C 0.58377 0.58122 0.91894 0.0
C458 C 0.56293 0.57666 0.94515 0.0
C459 C 0.61666 0.5652 0.87085 0.0
C460 C 0.64085 0.58335 0.8785 0.0
C461 C 0.61018 0.55426 0.83292 0.0
C462 C 0.58336 0.53689 0.82172 0.0
C463 C 0.55386 0.54603 0.82529 0.0
C464 C 0.52866 0.52964 0.81439 0.0
C465 C 0.53262 0.50416 0.79948 0.0
C466 C 0.5618 0.49505 0.79535 0.0
C467 C 0.58709 0.51134 0.8063 0.0
H468 H 0.51308 0.49151 0.79101 0.0
H469 H 0.74903 0.66178 0.88472 0.0
H470 H 0.80038 0.09447 0.15505 0.0
H471 H 0.82286 0.07719 0.21952 0.0
H472 H 0.89084 0.13948 0.22596 0.0
H473 H 0.86897 0.1563 0.16169 0.0
H474 H 0.91668 0.09317 0.24408 0.0
H475 H 0.82796 0.13927 0.27987 0.0
H476 H 0.77304 0.14818 0.27741 0.0
H477 H 0.75842 0.06673 0.31205 0.0
H478 H 0.81316 0.05722 0.31414 0.0
H479 H 0.98409 0.06931 0.43958 0.0
H480 H 0.95539 0.09358 0.38384 0.0
H481 H 0.88803 0.03071 0.37261 0.0
H482 H 0.91629 0.00677 0.42779 0.0
H483 H 0.86136 0.07821 0.35836 0.0
H484 H 0.94464 0.02962 0.31876 0.0
H485 H 0.99812 0.01609 0.31916 0.0
H486 H 0.02129 0.09647 0.2884 0.0
H487 H 0.96798 0.1106 0.28851 0.0
C488 C 0.81995 0.10453 0.17051 0.0
C489 C 0.83314 0.12654 0.15327 0.0
C490 C 0.83272 0.09473 0.20733 0.0
C491 C 0.85848 0.10715 0.22772 0.0
C492 C 0.87111 0.12948 0.21076 0.0
C493 C 0.85863 0.13903 0.17398 0.0
C494 C 0.87346 0.0964 0.26582 0.0
C495 C 0.90465 0.09039 0.26926 0.0
C496 C 0.85756 0.09173 0.29826 0.0
C497 C 0.82463 0.09748 0.29679 0.0
C498 C 0.813 0.1232 0.28663 0.0
C499 C 0.7819 0.12837 0.28536 0.0
C500 C 0.76224 0.10802 0.29447 0.0
C501 C 0.77365 0.08247 0.30494 0.0
C502 C 0.80471 0.07719 0.30618 0.0
C503 C 0.96273 0.06118 0.42578 0.0
C504 C 0.95243 0.03618 0.43764 0.0
C505 C 0.94651 0.07487 0.39385 0.0
C506 C 0.91978 0.06372 0.37381 0.0
C507 C 0.90855 0.03967 0.38754 0.0
C508 C 0.92479 0.02597 0.41898 0.0
C509 C 0.9046 0.07563 0.33669 0.0
C510 C 0.87341 0.0815 0.3333 0.0
C511 C 0.92029 0.07963 0.30396 0.0
C512 C 0.95241 0.07127 0.30425 0.0
C513 C 0.9612 0.04449 0.31254 0.0
C514 C 0.99147 0.03669 0.31258 0.0
C515 C 0.01311 0.05543 0.30397 0.0
C516 C 0.00451 0.082 0.2952 0.0
C517 C 0.97428 0.08992 0.29523 0.0
H518 H 0.03653 0.04935 0.30395 0.0
H519 H 0.73819 0.11207 0.29351 0.0
H520 H 0.2615 0.40954 0.68917 0.0
H521 H 0.28986 0.42498 0.75075 0.0
H522 H 0.35665 0.46154 0.68676 0.0
H523 H 0.3284 0.44624 0.62518 0.0
H524 H 0.38154 0.42642 0.74551 0.0
H525 H 0.31411 0.50096 0.72988 0.0
H526 H 0.26514 0.52501 0.7191 0.0
H527 H 0.23915 0.48899 0.82347 0.0
H528 H 0.28784 0.46439 0.83459 0.0
H529 H 0.46922 0.4966 0.89749 0.0
H530 H 0.43942 0.47845 0.83949 0.0
H531 H 0.36863 0.45596 0.90833 0.0
H532 H 0.39818 0.47581 0.96638 0.0
H533 H 0.34489 0.48248 0.84744 0.0
H534 H 0.41543 0.40806 0.8623 0.0
H535 H 0.4663 0.3871 0.8719 0.0
H536 H 0.48806 0.42587 0.76721 0.0
H537 H 0.43743 0.44718 0.75713 0.0
C538 C 0.28194 0.42129 0.68825 0.0
C539 C 0.29279 0.42665 0.65243 0.0
C540 C 0.29805 0.43016 0.72338 0.0
C541 C 0.32539 0.4443 0.72326 0.0
C542 C 0.3356 0.45062 0.68743 0.0
C543 C 0.31932 0.44205 0.65228 0.0
C544 C 0.34462 0.45044 0.7606 0.0
C545 C 0.37367 0.43888 0.76771 0.0
C546 C 0.33405 0.46622 0.78976 0.0
C547 C 0.30448 0.48054 0.78278 0.0
C548 C 0.29781 0.49789 0.75027 0.0
C549 C 0.27013 0.5117 0.74417 0.0
C550 C 0.249 0.50846 0.77051 0.0
C551 C 0.25551 0.49143 0.80304 0.0
C552 C 0.28315 0.47755 0.80927 0.0
C553 C 0.44786 0.48673 0.90052 0.0
C554 C 0.43621 0.48695 0.93639 0.0
C555 C 0.43075 0.47634 0.86729 0.0
C556 C 0.40182 0.46541 0.86939 0.0
C557 C 0.39094 0.46416 0.90595 0.0
C558 C 0.40794 0.47506 0.93923 0.0
C559 C 0.38187 0.45816 0.83281 0.0
C560 C 0.35267 0.46964 0.82562 0.0
C561 C 0.39242 0.44246 0.80338 0.0
C562 C 0.42268 0.42928 0.80907 0.0
C563 C 0.43111 0.41216 0.8414 0.0
C564 C 0.45989 0.40021 0.84691 0.0
C565 C 0.4804 0.40516 0.8202 0.0
C566 C 0.47214 0.42201 0.78784 0.0
C567 C 0.44338 0.43397 0.78217 0.0
H568 H 0.50269 0.39593 0.82456 0.0
H569 H 0.22761 0.5192 0.76577 0.0
H570 H 0.70506 0.57448 0.42771 0.0
H571 H 0.67497 0.56568 0.36449 0.0
H572 H 0.64513 0.64805 0.35633 0.0
H573 H 0.67507 0.65698 0.41988 0.0
H574 H 0.59858 0.61145 0.33073 0.0
H575 H 0.70496 0.6273 0.3102 0.0
H576 H 0.75977 0.61683 0.3237 0.0
H577 H 0.74186 0.53541 0.28885 0.0
H578 H 0.68698 0.54532 0.27561 0.0
H579 H 0.53314 0.58315 0.13405 0.0
H580 H 0.56196 0.60826 0.18804 0.0
H581 H 0.62565 0.54239 0.20844 0.0
H582 H 0.59958 0.51943 0.15331 0.0
H583 H 0.65561 0.58067 0.22528 0.0
H584 H 0.55542 0.55589 0.25454 0.0
H585 H 0.49949 0.55769 0.24491 0.0
H586 H 0.50223 0.6415 0.27208 0.0
H587 H 0.55834 0.64051 0.27975 0.0
C588 C 0.69211 0.59074 0.41245 0.0
C589 C 0.69277 0.61653 0.42853 0.0
C590 C 0.67485 0.58566 0.3764 0.0
C591 C 0.65824 0.60635 0.35537 0.0
C592 C 0.65786 0.63184 0.37201 0.0
C593 C 0.67498 0.63691 0.40829 0.0
C594 C 0.64262 0.60165 0.3152 0.0
C595 C 0.61095 0.60494 0.30741 0.0
C596 C 0.65873 0.59261 0.28514 0.0
C597 C 0.69189 0.58707 0.29196 0.0
C598 C 0.71274 0.60718 0.30545 0.0
C599 C 0.7438 0.60132 0.3131 0.0
C600 C 0.75429 0.57548 0.30714 0.0
C601 C 0.73374 0.55543 0.29341 0.0
C602 C 0.70267 0.56117 0.28576 0.0
C603 C 0.554 0.57474 0.14925 0.0
C604 C 0.56378 0.54912 0.13979 0.0
C605 C 0.57019 0.58882 0.18059 0.0
C606 C 0.59567 0.577 0.20346 0.0
C607 C 0.60626 0.55228 0.19182 0.0
C608 C 0.59099 0.5389 0.16016 0.0
C609 C 0.61093 0.58867 0.24082 0.0
C610 C 0.64286 0.58722 0.2482 0.0
C611 C 0.59475 0.59775 0.27109 0.0
C612 C 0.56107 0.59823 0.26702 0.0
C613 C 0.54411 0.57477 0.2581 0.0
C614 C 0.51235 0.57565 0.25297 0.0
C615 C 0.49726 0.59967 0.25805 0.0
C616 C 0.51394 0.62291 0.26805 0.0
C617 C 0.54572 0.62225 0.2725 0.0
H618 H 0.47266 0.6003 0.25426 0.0
H619 H 0.77833 0.57098 0.31314 0.0
H620 H 0.85167 0.09726 0.89461 0.0
H621 H 0.87433 0.07721 0.84093 0.0
H622 H 0.80268 0.11064 0.75767 0.0
H623 H 0.77991 0.13113 0.81146 0.0
H624 H 0.82402 0.05164 0.74693 0.0
H625 H 0.85728 0.1438 0.75954 0.0
H626 H 0.87768 0.18334 0.79636 0.0
H627 H 0.95938 0.13996 0.83817 0.0
H628 H 0.9392 0.09997 0.80216 0.0
H629 H 0.92017 0.04201 0.58712 0.0
H630 H 0.88167 0.05516 0.62892 0.0
H631 H 0.94565 0.03833 0.73185 0.0
H632 H 0.98349 0.02492 0.69081 0.0
H633 H 0.9228 0.09199 0.72529 0.0
H634 H 0.89111 1.0003 0.71601 0.0
H635 H 0.87305 0.95986 0.68001 0.0
H636 H 0.79004 1.00012 0.63478 0.0
H637 H 0.80822 0.04134 0.66918 0.0
C638 C 0.84033 0.09986 0.86497 0.0
C639 C 0.81399 0.11571 0.85719 0.0
C640 C 0.85335 0.08847 0.83437 0.0
C641 C 0.84012 0.09246 0.79547 0.0
C642 C 0.81307 0.10725 0.78758 0.0
C643 C 0.80024 0.11903 0.81823 0.0
C644 C 0.8563 0.08311 0.76331 0.0
C645 C 0.8453 0.06074 0.7415 0.0
C646 C 0.88429 0.09476 0.75693 0.0
C647 C 0.89657 0.1188 0.77849 0.0
C648 C 0.87945 0.1426 0.77692 0.0
C649 C 0.891 0.16511 0.79758 0.0
C650 C 0.91978 0.16414 0.81968 0.0
C651 C 0.93708 0.14067 0.82109 0.0
C652 C 0.9256 0.11808 0.80055 0.0
C653 C 0.92544 0.04018 0.61863 0.0
C654 C 0.95475 0.03264 0.63583 0.0
C655 C 0.90365 0.04792 0.64243 0.0
C656 C 0.91114 0.04813 0.68339 0.0
C657 C 0.9396 0.03862 0.70033 0.0
C658 C 0.96109 0.03081 0.67683 0.0
C659 C 0.89081 0.06027 0.7091 0.0
C660 C 0.90118 0.08318 0.72995 0.0
C661 C 0.86248 0.04894 0.71472 0.0
C662 C 0.85124 0.02406 0.69466 0.0
C663 C 0.86917 1.00069 0.69798 0.0
C664 C 0.85889 0.97758 0.67794 0.0
C665 C 0.83039 0.97737 0.65518 0.0
C666 C 0.81214 1.00032 0.65237 0.0
C667 C 0.82247 0.02361 0.67202 0.0
H668 H 0.82245 0.95941 0.63976 0.0
H669 H 0.92869 0.1816 0.83563 0.0
H670 H 0.24979 0.4425 0.33033 0.0
H671 H 0.27016 0.46232 0.2734 0.0
H672 H 0.35783 0.42738 0.3136 0.0
H673 H 0.33777 0.40727 0.36942 0.0
H674 H 0.36051 0.48164 0.29954 0.0
H675 H 0.31537 0.40194 0.23779 0.0
H676 H 0.27314 0.37145 0.21492 0.0
H677 H 0.22845 0.43468 0.14357 0.0
H678 H 0.27028 0.46567 0.16648 0.0
H679 H 0.45598 0.45481 0.16496 0.0
H680 H 0.41495 0.45076 0.2041 0.0
H681 H 0.3668 0.51533 0.13867 0.0
H682 H 0.40889 0.52011 0.09864 0.0
H683 H 0.33317 0.45962 0.15939 0.0
H684 H 0.3892 0.53609 0.216 0.0
H685 H 0.43436 0.5623 0.24208 0.0
H686 H 0.46231 0.49942 0.32531 0.0
H687 H 0.41761 0.47267 0.29937 0.0
C688 C 0.27329 0.4388 0.32666 0.0
C689 C 0.29233 0.42377 0.35487 0.0
C690 C 0.28487 0.45016 0.2942 0.0
C691 C 0.31559 0.44656 0.28956 0.0
C692 C 0.33417 0.43073 0.3169 0.0
C693 C 0.32269 0.41938 0.34898 0.0
C694 C 0.32954 0.46014 0.2578 0.0
C695 C 0.35431 0.47706 0.26882 0.0
C696 C 0.32094 0.45471 0.21766 0.0
C697 C 0.29567 0.43622 0.20432 0.0
C698 C 0.29635 0.40943 0.21761 0.0
C699 C 0.27254 0.39204 0.20454 0.0
C700 C 0.24806 0.40115 0.17794 0.0
C701 C 0.24737 0.42767 0.16428 0.0
C702 C 0.27112 0.44516 0.17729 0.0
C703 C 0.4368 0.46829 0.15836 0.0
C704 C 0.43605 0.48805 0.12864 0.0
C705 C 0.41324 0.46581 0.18093 0.0
C706 C 0.38802 0.48283 0.1745 0.0
C707 C 0.38623 0.50204 0.14404 0.0
C708 C 0.41024 0.50473 0.12126 0.0
C709 C 0.36478 0.48034 0.20148 0.0
C710 C 0.33846 0.46526 0.18982 0.0
C711 C 0.3723 0.48689 0.24138 0.0
C712 C 0.40002 0.5024 0.2557 0.0
C713 C 0.40517 0.52772 0.23954 0.0
C714 C 0.43065 0.54271 0.25441 0.0
C715 C 0.4511 0.53258 0.28548 0.0
C716 C 0.44638 0.50729 0.30137 0.0
C717 C 0.42097 0.49223 0.28662 0.0
H718 H 0.47055 0.54434 0.29743 0.0
H719 H 0.22967 0.38765 0.16781 0.0
H720 H 0.24426 0.90101 0.90761 0.0
H721 H 0.21283 0.90892 0.84463 0.0
H722 H 0.15984 0.96698 0.89811 0.0
H723 H 0.19073 0.95872 0.96137 0.0
H724 H 0.12381 0.93349 0.85214 0.0
H725 H 0.21137 0.98738 0.84117 0.0
H726 H 0.26589 0.99755 0.84259 0.0
H727 H 0.272 0.94077 0.75138 0.0
H728 H 0.21755 0.92999 0.74979 0.0
H729 H 0.05395 0.00949 0.69352 0.0
H730 H 0.08226 0.98982 0.75208 0.0
H731 H 0.12891 0.93753 0.68078 0.0
H732 H 0.10094 0.95838 0.62123 0.0
H733 H 0.16807 0.96233 0.73355 0.0
H734 H 0.07546 0.91353 0.74154 0.0
H735 H 0.01994 0.90894 0.74011 0.0
H736 H 0.02243 0.96163 0.838 0.0
H737 H 0.07787 0.9668 0.83973 0.0
C738 C 0.22577 0.91532 0.90601 0.0
C739 C 0.21993 0.9292 0.9395 0.0
C740 C 0.20801 0.91999 0.86994 0.0
C741 C 0.18409 0.93864 0.86664 0.0
C742 C 0.17817 0.95249 0.90001 0.0
C743 C 0.19599 0.9479 0.93606 0.0
C744 C 0.16499 0.94351 0.8285 0.0
C745 C 0.13344 0.93991 0.82622 0.0
C746 C 0.17765 0.9514 0.79455 0.0
C747 C 0.21048 0.9576 0.79574 0.0
C748 C 0.22441 0.97684 0.82172 0.0
C749 C 0.25528 0.98277 0.82248 0.0
C750 C 0.27243 0.96974 0.79719 0.0
C751 C 0.25871 0.9508 0.77102 0.0
C752 C 0.22784 0.94477 0.77016 0.0
C753 C 0.0697 0.99329 0.69037 0.0
C754 C 0.07521 0.98521 0.65311 0.0
C755 C 0.08579 0.98195 0.72389 0.0
C756 C 0.10741 0.96183 0.72101 0.0
C757 C 0.11213 0.95288 0.68367 0.0
C758 C 0.09603 0.96452 0.64976 0.0
C759 C 0.12677 0.95235 0.75707 0.0
C760 C 0.15843 0.95526 0.75914 0.0
C761 C 0.11414 0.94426 0.79103 0.0
C762 C 0.08086 0.94056 0.79071 0.0
C763 C 0.06416 0.92418 0.76271 0.0
C764 C 0.0327 0.92149 0.76183 0.0
C765 C 0.01767 0.93499 0.78893 0.0
C766 C 0.0341 0.95114 0.81706 0.0
C767 C 0.06556 0.9539 0.81806 0.0
H768 H 0.99331 0.93292 0.78814 0.0
H769 H 0.29632 0.97438 0.79779 0.0
loop_
_geom_bond_atom_site_label_1
_geom_bond_atom_site_label_2
_geom_bond_distance
_geom_bond_site_symmetry_2
_ccdc_geom_bond_type
P0 O11 1.490 . S
P0 C14 1.812 . S
P0 C20 1.803 . S
P0 C26 1.819 . S
H1 C15 0.941 . S
H2 C16 0.939 . S
H3 C18 0.940 . S
H4 C19 0.940 . S
H5 C21 0.939 . S
H6 C22 0.942 . S
H7 C24 0.940 . S
H8 C25 0.939 . S
H9 C27 0.941 . S
H10 C31 0.939 . S
O11 P0 1.490 . S
H12 C28 0.936 1_556 S
H13 C30 0.940 . S
C14 P0 1.812 . S
C14 C15 1.389 . S
C14 C19 1.391 . S
C15 H1 0.941 . S
C15 C14 1.389 . S
C15 C16 1.397 . S
C16 H2 0.939 . S
C16 C15 1.397 . S
C16 C17 1.378 . S
C17 C16 1.378 . S
C17 C18 1.378 . S
C18 H3 0.940 . S
C18 C17 1.378 . S
C18 C19 1.396 . S
C19 H4 0.940 . S
C19 C14 1.391 . S
C19 C18 1.396 . S
C20 P0 1.803 . S
C20 C21 1.378 . S
C20 C25 1.400 . S
C21 H5 0.939 . S
C21 C20 1.378 . S
C21 C22 1.361 . S
C22 H6 0.942 . S
C22 C21 1.361 . S
C22 C23 1.369 . S
C23 C22 1.369 . S
C23 C24 1.404 . S
C24 H7 0.940 . S
C24 C23 1.404 . S
C24 C25 1.389 . S
C25 H8 0.939 . S
C25 C20 1.400 . S
C25 C24 1.389 . S
C26 P0 1.819 . S
C26 C27 1.391 . S
C26 C31 1.391 . S
C27 H9 0.941 . S
C27 C26 1.391 . S
C27 C28 1.396 . S
C28 H12 0.936 1_554 S
C28 C27 1.396 . S
C28 C29 1.397 1_554 S
C29 C28 1.397 1_556 S
C29 C30 1.385 . S
C30 H13 0.940 . S
C30 C29 1.385 . S
C30 C31 1.388 1_556 S
C31 H10 0.939 . S
C31 C26 1.391 . S
C31 C30 1.388 1_554 S
P32 O43 1.490 . S
P32 C46 1.812 . S
P32 C52 1.803 . S
P32 C58 1.819 . S
H33 C47 0.941 . S
H34 C48 0.939 . S
H35 C50 0.940 . S
H36 C51 0.940 . S
H37 C53 0.939 . S
H38 C54 0.942 . S
H39 C56 0.940 . S
H40 C57 0.939 . S
H41 C59 0.941 . S
H42 C63 0.939 . S
O43 P32 1.490 . S
H44 C60 0.939 . S
H45 C62 0.940 . S
C46 P32 1.812 . S
C46 C47 1.389 . S
C46 C51 1.391 . S
C47 H33 0.941 . S
C47 C46 1.389 . S
C47 C48 1.397 . S
C48 H34 0.939 . S
C48 C47 1.397 . S
C48 C49 1.378 . S
C49 C48 1.378 . S
C49 C50 1.378 . S
C50 H35 0.940 . S
C50 C49 1.378 . S
C50 C51 1.396 . S
C51 H36 0.940 . S
C51 C46 1.391 . S
C51 C50 1.396 . S
C52 P32 1.803 . S
C52 C53 1.378 . S
C52 C57 1.400 . S
C53 H37 0.939 . S
C53 C52 1.378 . S
C53 C54 1.361 . S
C54 H38 0.942 . S
C54 C53 1.361 . S
C54 C55 1.369 . S
C55 C54 1.369 . S
C55 C56 1.404 . S
C56 H39 0.940 . S
C56 C55 1.404 . S
C56 C57 1.389 . S
C57 H40 0.939 . S
C57 C52 1.400 . S
C57 C56 1.389 . S
C58 P32 1.819 . S
C58 C59 1.391 . S
C58 C63 1.391 . S
C59 H41 0.941 . S
C59 C58 1.391 . S
C59 C60 1.396 . S
C60 H44 0.939 . S
C60 C59 1.396 . S
C60 C61 1.397 . S
C61 C60 1.397 . S
C61 C62 1.385 . S
C62 H45 0.940 . S
C62 C61 1.385 . S
C62 C63 1.388 . S
C63 H42 0.939 . S
C63 C58 1.391 . S
C63 C62 1.388 . S
P64 O75 1.490 . S
P64 C78 1.812 1_554 S
P64 C84 1.803 1_554 S
P64 C90 1.819 . S
H65 C79 0.941 . S
H66 C80 0.939 . S
H67 C82 0.940 . S
H68 C83 0.940 . S
H69 C85 0.939 . S
H70 C86 0.942 . S
H71 C88 0.940 . S
H72 C89 0.939 . S
H73 C91 0.941 . S
H74 C95 0.939 . S
O75 P64 1.490 . S
H76 C92 0.939 . S
H77 C94 0.940 . S
C78 P64 1.812 1_556 S
C78 C79 1.389 . S
C78 C83 1.391 . S
C79 H65 0.941 . S
C79 C78 1.389 . S
C79 C80 1.397 . S
C80 H66 0.939 . S
C80 C79 1.397 . S
C80 C81 1.378 . S
C81 C80 1.378 . S
C81 C82 1.378 . S
C82 H67 0.940 . S
C82 C81 1.378 . S
C82 C83 1.396 . S
C83 H68 0.940 . S
C83 C78 1.391 . S
C83 C82 1.396 . S
C84 P64 1.803 1_556 S
C84 C85 1.378 1_556 S
C84 C89 1.400 . S
C85 H69 0.939 . S
C85 C84 1.378 1_554 S
C85 C86 1.361 . S
C86 H70 0.942 . S
C86 C85 1.361 . S
C86 C87 1.369 1_554 S
C87 C86 1.369 1_556 S
C87 C88 1.404 . S
C88 H71 0.940 . S
C88 C87 1.404 . S
C88 C89 1.389 . S
C89 H72 0.939 . S
C89 C84 1.400 . S
C89 C88 1.389 . S
C90 P64 1.819 . S
C90 C91 1.391 . S
C90 C95 1.391 . S
C91 H73 0.941 . S
C91 C90 1.391 . S
C91 C92 1.396 . S
C92 H76 0.939 . S
C92 C91 1.396 . S
C92 C93 1.397 . S
C93 C92 1.397 . S
C93 C94 1.385 . S
C94 H77 0.940 . S
C94 C93 1.385 . S
C94 C95 1.388 . S
C95 H74 0.939 . S
C95 C90 1.391 . S
C95 C94 1.388 . S
P96 O107 1.490 . S
P96 C110 1.812 . S
P96 C116 1.803 . S
P96 C122 1.819 . S
H97 C111 0.941 . S
H98 C112 0.939 . S
H99 C114 0.940 . S
H100 C115 0.940 . S
H101 C117 0.939 . S
H102 C118 0.942 . S
H103 C120 0.940 . S
H104 C121 0.939 . S
H105 C123 0.941 . S
H106 C127 0.939 . S
O107 P96 1.490 . S
H108 C124 0.939 . S
H109 C126 0.940 . S
C110 P96 1.812 . S
C110 C111 1.389 . S
C110 C115 1.391 . S
C111 H97 0.941 . S
C111 C110 1.389 . S
C111 C112 1.397 . S
C112 H98 0.939 . S
C112 C111 1.397 . S
C112 C113 1.378 . S
C113 C112 1.378 . S
C113 C114 1.378 . S
C114 H99 0.940 . S
C114 C113 1.378 . S
C114 C115 1.396 . S
C115 H100 0.940 . S
C115 C110 1.391 . S
C115 C114 1.396 . S
C116 P96 1.803 . S
C116 C117 1.378 . S
C116 C121 1.400 . S
C117 H101 0.939 . S
C117 C116 1.378 . S
C117 C118 1.361 . S
C118 H102 0.942 . S
C118 C117 1.361 . S
C118 C119 1.369 . S
C119 C118 1.369 . S
C119 C120 1.404 . S
C120 H103 0.940 . S
C120 C119 1.404 . S
C120 C121 1.389 . S
C121 H104 0.939 . S
C121 C116 1.400 . S
C121 C120 1.389 . S
C122 P96 1.819 . S
C122 C123 1.391 . S
C122 C127 1.391 . S
C123 H105 0.941 . S
C123 C122 1.391 . S
C123 C124 1.396 . S
C124 H108 0.939 . S
C124 C123 1.396 . S
C124 C125 1.397 . S
C125 C124 1.397 . S
C125 C126 1.385 . S
C126 H109 0.940 . S
C126 C125 1.385 . S
C126 C127 1.388 . S
C127 H106 0.939 . S
C127 C122 1.391 . S
C127 C126 1.388 . S
O128 Mn129 2.163 1_655 S
O128 C142 1.244 . S
Mn129 O128 2.163 1_455 S
Mn129 O132 2.160 1_545 S
Mn129 O133 2.221 . S
Mn129 O135 2.163 1_455 S
Mn129 O137 2.159 1_545 S
Mn129 O147 2.221 1_445 S
O130 Mn131 2.087 1_545 S
O130 C142 1.256 . S
Mn131 O130 2.087 1_565 S
Mn131 O138 2.089 1_655 S
Mn131 O147 2.290 . S
Mn131 O148 2.251 . S
O132 Mn129 2.160 1_565 S
O132 C143 1.239 . S
O133 Mn129 2.221 . S
O133 Mn134 2.290 . S
O133 C144 1.278 . S
Mn134 O133 2.290 . S
Mn134 O136 2.089 . S
Mn134 O139 2.251 . S
Mn134 O140 2.087 1_455 S
O135 Mn129 2.163 1_655 S
O135 C145 1.244 . S
O136 Mn134 2.089 . S
O136 C143 1.256 1_545 S
O137 Mn129 2.159 1_565 S
O137 C146 1.240 . S
O138 Mn131 2.089 1_455 S
O138 C146 1.256 . S
O139 Mn134 2.251 . S
O139 C144 1.241 . S
O140 Mn134 2.087 1_655 S
O140 C145 1.256 . S
C141 O147 1.278 . S
C141 O148 1.241 . S
C142 O128 1.244 . S
C142 O130 1.256 . S
C143 O132 1.239 . S
C143 O136 1.256 1_565 S
C144 O133 1.278 . S
C144 O139 1.241 . S
C145 O135 1.244 . S
C145 O140 1.256 . S
C146 O137 1.240 . S
C146 O138 1.256 . S
O147 Mn129 2.221 1_665 S
O147 Mn131 2.290 . S
O147 C141 1.278 . S
O148 Mn131 2.251 . S
O148 C141 1.241 . S
O149 Mn150 2.163 . S
O149 C163 1.244 . S
Mn150 O149 2.163 . S
Mn150 O153 2.160 1_554 S
Mn150 O154 2.221 . S
Mn150 O156 2.155 1_554 S
Mn150 O158 2.160 . S
Mn150 O168 2.221 . S
O151 Mn152 2.087 . S
O151 C163 1.256 . S
Mn152 O151 2.087 . S
Mn152 O159 2.089 . S
Mn152 O168 2.290 . S
Mn152 O169 2.251 . S
O153 Mn150 2.160 1_556 S
O153 C164 1.239 . S
O154 Mn150 2.221 . S
O154 Mn155 2.290 1_554 S
O154 C165 1.278 . S
Mn155 O154 2.290 1_556 S
Mn155 O157 2.089 . S
Mn155 O160 2.251 1_556 S
Mn155 O161 2.087 . S
O156 Mn150 2.155 1_556 S
O156 C166 1.252 . S
O157 Mn155 2.089 . S
O157 C164 1.256 . S
O158 Mn150 2.160 . S
O158 C167 1.239 . S
O159 Mn152 2.089 . S
O159 C167 1.256 . S
O160 Mn155 2.251 1_554 S
O160 C165 1.241 . S
O161 Mn155 2.087 . S
O161 C166 1.256 . S
C162 O168 1.278 . S
C162 O169 1.241 . S
C163 O149 1.244 . S
C163 O151 1.256 . S
C164 O153 1.239 . S
C164 O157 1.256 . S
C165 O154 1.278 . S
C165 O160 1.241 . S
C166 O156 1.252 . S
C166 O161 1.256 . S
C167 O158 1.239 . S
C167 O159 1.256 . S
O168 Mn150 2.221 . S
O168 Mn152 2.290 . S
O168 C162 1.278 . S
O169 Mn152 2.251 . S
O169 C162 1.241 . S
H170 C188 0.951 . S
H171 C190 0.951 . S
H172 C192 0.950 . S
H173 C193 0.950 . S
H174 C195 0.950 . S
H175 C198 0.950 . S
H176 C199 0.950 . S
H177 C201 0.950 1_655 S
H178 C202 0.950 . S
H179 C203 0.951 . S
H180 C205 0.951 . S
H181 C207 0.950 . S
H182 C208 0.950 . S
H183 C210 0.950 . S
H184 C213 0.950 . S
H185 C214 0.950 . S
H186 C216 0.950 . S
H187 C217 0.950 . S
C188 H170 0.951 . S
C188 C189 1.366 . S
C188 C190 1.388 . S
C189 C188 1.366 . S
C189 C193 1.385 . S
C190 H171 0.951 . S
C190 C188 1.388 . S
C190 C191 1.366 . S
C191 C190 1.366 . S
C191 C192 1.414 . S
C191 C194 1.499 . S
C192 H172 0.950 . S
C192 C191 1.414 . S
C192 C193 1.374 . S
C193 H173 0.950 . S
C193 C189 1.385 . S
C193 C192 1.374 . S
C194 C191 1.499 . S
C194 C195 1.373 . S
C194 C196 1.389 . S
C195 H174 0.950 . S
C195 C194 1.373 . S
C195 C211 1.377 . S
C196 C194 1.389 . S
C196 C197 1.524 . S
C196 C210 1.377 . S
C197 C196 1.524 . S
C197 C198 1.397 . S
C197 C202 1.363 . S
C198 H175 0.950 . S
C198 C197 1.397 . S
C198 C199 1.334 . S
C199 H176 0.950 . S
C199 C198 1.334 . S
C199 C200 1.287 . S
C200 C199 1.287 . S
C200 C201 1.524 . S
C200 H219 0.913 . S
C201 H177 0.950 1_455 S
C201 C200 1.524 . S
C201 C202 1.415 . S
C202 H178 0.950 . S
C202 C197 1.363 . S
C202 C201 1.415 . S
C203 H179 0.951 . S
C203 C204 1.366 . S
C203 C205 1.388 . S
C204 C203 1.366 . S
C204 C208 1.385 . S
C205 H180 0.951 . S
C205 C203 1.388 . S
C205 C206 1.366 . S
C206 C205 1.366 . S
C206 C207 1.414 . S
C206 C209 1.499 . S
C207 H181 0.950 . S
C207 C206 1.414 . S
C207 C208 1.374 . S
C208 H182 0.950 . S
C208 C204 1.385 . S
C208 C207 1.374 . S
C209 C206 1.499 . S
C209 C210 1.373 . S
C209 C211 1.389 . S
C210 H183 0.950 . S
C210 C196 1.377 . S
C210 C209 1.373 . S
C211 C195 1.377 . S
C211 C209 1.389 . S
C211 C212 1.524 . S
C212 C211 1.524 . S
C212 C213 1.397 . S
C212 C217 1.363 . S
C213 H184 0.950 . S
C213 C212 1.397 . S
C213 C214 1.334 . S
C214 H185 0.950 . S
C214 C213 1.334 . S
C214 C215 1.287 . S
C215 C214 1.287 . S
C215 C216 1.524 . S
C215 H218 0.999 . S
C216 H186 0.950 . S
C216 C215 1.524 . S
C216 C217 1.415 . S
C217 H187 0.950 . S
C217 C212 1.363 . S
C217 C216 1.415 . S
H218 C215 0.999 . S
H219 C200 0.913 . S
H220 C238 0.951 . S
H221 C240 0.951 . S
H222 C242 0.950 . S
H223 C243 0.950 . S
H224 C245 0.950 . S
H225 C248 0.950 . S
H226 C249 0.950 . S
H227 C251 0.950 . S
H228 C252 0.950 . S
H229 C253 0.951 . S
H230 C255 0.951 . S
H231 C257 0.950 . S
H232 C258 0.950 . S
H233 C260 0.950 . S
H234 C263 0.950 . S
H235 C264 0.950 . S
H236 C266 0.950 . S
H237 C267 0.950 . S
C238 H220 0.951 . S
C238 C239 1.366 . S
C238 C240 1.388 . S
C239 C238 1.366 . S
C239 C243 1.385 . S
C240 H221 0.951 . S
C240 C238 1.388 . S
C240 C241 1.366 . S
C241 C240 1.366 . S
C241 C242 1.414 . S
C241 C244 1.499 . S
C242 H222 0.950 . S
C242 C241 1.414 . S
C242 C243 1.374 . S
C243 H223 0.950 . S
C243 C239 1.385 . S
C243 C242 1.374 . S
C244 C241 1.499 . S
C244 C245 1.373 . S
C244 C246 1.389 . S
C245 H224 0.950 . S
C245 C244 1.373 . S
C245 C261 1.377 . S
C246 C244 1.389 . S
C246 C247 1.524 . S
C246 C260 1.377 . S
C247 C246 1.524 . S
C247 C248 1.397 . S
C247 C252 1.363 . S
C248 H225 0.950 . S
C248 C247 1.397 . S
C248 C249 1.334 . S
C249 H226 0.950 . S
C249 C248 1.334 . S
C249 C250 1.287 . S
C250 C249 1.287 . S
C250 C251 1.524 . S
C250 H269 0.913 . S
C251 H227 0.950 . S
C251 C250 1.524 . S
C251 C252 1.415 . S
C252 H228 0.950 . S
C252 C247 1.363 . S
C252 C251 1.415 . S
C253 H229 0.951 . S
C253 C254 1.366 . S
C253 C255 1.388 . S
C254 C253 1.366 . S
C254 C258 1.385 . S
C255 H230 0.951 . S
C255 C253 1.388 . S
C255 C256 1.366 . S
C256 C255 1.366 . S
C256 C257 1.414 . S
C256 C259 1.499 . S
C257 H231 0.950 . S
C257 C256 1.414 . S
C257 C258 1.374 . S
C258 H232 0.950 . S
C258 C254 1.385 . S
C258 C257 1.374 . S
C259 C256 1.499 . S
C259 C260 1.373 . S
C259 C261 1.389 . S
C260 H233 0.950 . S
C260 C246 1.377 . S
C260 C259 1.373 . S
C261 C245 1.377 . S
C261 C259 1.389 . S
C261 C262 1.524 . S
C262 C261 1.524 . S
C262 C263 1.397 1_554 S
C262 C267 1.363 . S
C263 H234 0.950 . S
C263 C262 1.397 1_556 S
C263 C264 1.334 . S
C264 H235 0.950 . S
C264 C263 1.334 . S
C264 C265 1.287 . S
C265 C264 1.287 . S
C265 C266 1.524 . S
C265 H268 0.999 . S
C266 H236 0.950 . S
C266 C265 1.524 . S
C266 C267 1.415 1_556 S
C267 H237 0.950 . S
C267 C262 1.363 . S
C267 C266 1.415 1_554 S
H268 C265 0.999 . S
H269 C250 0.913 . S
H270 C288 0.951 . S
H271 C290 0.951 . S
H272 C292 0.950 . S
H273 C293 0.950 . S
H274 C295 0.950 . S
H275 C298 0.950 . S
H276 C299 0.950 . S
H277 C301 0.950 . S
H278 C302 0.950 . S
H279 C303 0.951 . S
H280 C305 0.951 . S
H281 C307 0.950 . S
H282 C308 0.950 . S
H283 C310 0.950 . S
H284 C313 0.950 . S
H285 C314 0.950 . S
H286 C316 0.950 . S
H287 C317 0.950 . S
C288 H270 0.951 . S
C288 C289 1.366 . S
C288 C290 1.388 . S
C289 C288 1.366 . S
C289 C293 1.385 . S
C290 H271 0.951 . S
C290 C288 1.388 . S
C290 C291 1.366 . S
C291 C290 1.366 . S
C291 C292 1.414 . S
C291 C294 1.499 . S
C292 H272 0.950 . S
C292 C291 1.414 . S
C292 C293 1.374 . S
C293 H273 0.950 . S
C293 C289 1.385 . S
C293 C292 1.374 . S
C294 C291 1.499 . S
C294 C295 1.373 . S
C294 C296 1.389 . S
C295 H274 0.950 . S
C295 C294 1.373 . S
C295 C311 1.377 . S
C296 C294 1.389 . S
C296 C297 1.524 . S
C296 C310 1.377 . S
C297 C296 1.524 . S
C297 C298 1.397 . S
C297 C302 1.363 . S
C298 H275 0.950 . S
C298 C297 1.397 . S
C298 C299 1.334 . S
C299 H276 0.950 . S
C299 C298 1.334 . S
C299 C300 1.287 . S
C300 C299 1.287 . S
C300 C301 1.524 . S
C300 H319 0.913 . S
C301 H277 0.950 . S
C301 C300 1.524 . S
C301 C302 1.415 . S
C302 H278 0.950 . S
C302 C297 1.363 . S
C302 C301 1.415 . S
C303 H279 0.951 . S
C303 C304 1.366 . S
C303 C305 1.388 . S
C304 C303 1.366 . S
C304 C308 1.385 . S
C305 H280 0.951 . S
C305 C303 1.388 . S
C305 C306 1.366 . S
C306 C305 1.366 . S
C306 C307 1.414 . S
C306 C309 1.499 . S
C307 H281 0.950 . S
C307 C306 1.414 . S
C307 C308 1.374 . S
C308 H282 0.950 . S
C308 C304 1.385 . S
C308 C307 1.374 . S
C309 C306 1.499 . S
C309 C310 1.373 . S
C309 C311 1.389 . S
C310 H283 0.950 . S
C310 C296 1.377 . S
C310 C309 1.373 . S
C311 C295 1.377 . S
C311 C309 1.389 . S
C311 C312 1.524 . S
C312 C311 1.524 . S
C312 C313 1.397 . S
C312 C317 1.363 . S
C313 H284 0.950 . S
C313 C312 1.397 . S
C313 C314 1.334 . S
C314 H285 0.950 . S
C314 C313 1.334 . S
C314 C315 1.287 . S
C315 C314 1.287 . S
C315 C316 1.524 . S
C315 H318 0.999 . S
C316 H286 0.950 . S
C316 C315 1.524 . S
C316 C317 1.415 . S
C317 H287 0.950 . S
C317 C312 1.363 . S
C317 C316 1.415 . S
H318 C315 0.999 . S
H319 C300 0.913 . S
H320 C338 0.951 . S
H321 C340 0.951 . S
H322 C342 0.950 . S
H323 C343 0.950 . S
H324 C345 0.950 1_556 S
H325 C348 0.950 . S
H326 C349 0.950 . S
H327 C351 0.950 . S
H328 C352 0.950 . S
H329 C353 0.951 . S
H330 C355 0.951 . S
H331 C357 0.950 . S
H332 C358 0.950 . S
H333 C360 0.950 . S
H334 C363 0.950 . S
H335 C364 0.950 . S
H336 C366 0.950 . S
H337 C367 0.950 . S
C338 H320 0.951 . S
C338 C339 1.366 1_554 S
C338 C340 1.388 . S
C339 C338 1.366 1_556 S
C339 C343 1.385 . S
C340 H321 0.951 . S
C340 C338 1.388 . S
C340 C341 1.366 . S
C341 C340 1.366 . S
C341 C342 1.414 1_554 S
C341 C344 1.499 . S
C342 H322 0.950 . S
C342 C341 1.414 1_556 S
C342 C343 1.374 . S
C343 H323 0.950 . S
C343 C339 1.385 . S
C343 C342 1.374 . S
C344 C341 1.499 . S
C344 C345 1.373 . S
C344 C346 1.389 . S
C345 H324 0.950 1_554 S
C345 C344 1.373 . S
C345 C361 1.377 . S
C346 C344 1.389 . S
C346 C347 1.524 . S
C346 C360 1.377 . S
C347 C346 1.524 . S
C347 C348 1.397 1_554 S
C347 C352 1.363 . S
C348 H325 0.950 . S
C348 C347 1.397 1_556 S
C348 C349 1.334 . S
C349 H326 0.950 . S
C349 C348 1.334 . S
C349 C350 1.287 1_556 S
C350 C349 1.287 1_554 S
C350 C351 1.524 . S
C350 H369 0.913 . S
C351 H327 0.950 . S
C351 C350 1.524 . S
C351 C352 1.415 . S
C352 H328 0.950 . S
C352 C347 1.363 . S
C352 C351 1.415 . S
C353 H329 0.951 . S
C353 C354 1.366 1_556 S
C353 C355 1.388 . S
C354 C353 1.366 1_554 S
C354 C358 1.385 . S
C355 H330 0.951 . S
C355 C353 1.388 . S
C355 C356 1.366 1_556 S
C356 C355 1.366 1_554 S
C356 C357 1.414 . S
C356 C359 1.499 . S
C357 H331 0.950 . S
C357 C356 1.414 . S
C357 C358 1.374 . S
C358 H332 0.950 . S
C358 C354 1.385 . S
C358 C357 1.374 . S
C359 C356 1.499 . S
C359 C360 1.373 . S
C359 C361 1.389 . S
C360 H333 0.950 . S
C360 C346 1.377 . S
C360 C359 1.373 . S
C361 C345 1.377 . S
C361 C359 1.389 . S
C361 C362 1.524 . S
C362 C361 1.524 . S
C362 C363 1.397 . S
C362 C367 1.363 1_554 S
C363 H334 0.950 . S
C363 C362 1.397 . S
C363 C364 1.334 . S
C364 H335 0.950 . S
C364 C363 1.334 . S
C364 C365 1.287 . S
C365 C364 1.287 . S
C365 C366 1.524 1_554 S
C365 H368 0.999 . S
C366 H336 0.950 . S
C366 C365 1.524 1_556 S
C366 C367 1.415 . S
C367 H337 0.950 . S
C367 C362 1.363 1_556 S
C367 C366 1.415 . S
H368 C365 0.999 . S
H369 C350 0.913 . S
H370 C388 0.951 . S
H371 C390 0.951 . S
H372 C392 0.950 . S
H373 C393 0.950 . S
H374 C395 0.950 . S
H375 C398 0.950 . S
H376 C399 0.950 . S
H377 C401 0.950 . S
H378 C402 0.950 . S
H379 C403 0.951 . S
H380 C405 0.951 1_545 S
H381 C407 0.950 . S
H382 C408 0.950 . S
H383 C410 0.950 . S
H384 C413 0.950 . S
H385 C414 0.950 . S
H386 C416 0.950 . S
H387 C417 0.950 . S
C388 H370 0.951 . S
C388 C389 1.366 . S
C388 C390 1.388 . S
C389 C388 1.366 . S
C389 C393 1.385 . S
C390 H371 0.951 . S
C390 C388 1.388 . S
C390 C391 1.366 . S
C391 C390 1.366 . S
C391 C392 1.414 . S
C391 C394 1.499 . S
C392 H372 0.950 . S
C392 C391 1.414 . S
C392 C393 1.374 . S
C393 H373 0.950 . S
C393 C389 1.385 . S
C393 C392 1.374 . S
C394 C391 1.499 . S
C394 C395 1.373 . S
C394 C396 1.389 . S
C395 H374 0.950 . S
C395 C394 1.373 . S
C395 C411 1.377 . S
C396 C394 1.389 . S
C396 C397 1.524 . S
C396 C410 1.377 . S
C397 C396 1.524 . S
C397 C398 1.397 . S
C397 C402 1.363 . S
C398 H375 0.950 . S
C398 C397 1.397 . S
C398 C399 1.334 . S
C399 H376 0.950 . S
C399 C398 1.334 . S
C399 C400 1.287 . S
C400 C399 1.287 . S
C400 C401 1.524 . S
C400 H419 0.913 . S
C401 H377 0.950 . S
C401 C400 1.524 . S
C401 C402 1.415 . S
C402 H378 0.950 . S
C402 C397 1.363 . S
C402 C401 1.415 . S
C403 H379 0.951 . S
C403 C404 1.366 1_545 S
C403 C405 1.388 1_545 S
C404 C403 1.366 1_565 S
C404 C408 1.385 . S
C405 H380 0.951 1_565 S
C405 C403 1.388 1_565 S
C405 C406 1.366 . S
C406 C405 1.366 . S
C406 C407 1.414 . S
C406 C409 1.499 . S
C407 H381 0.950 . S
C407 C406 1.414 . S
C407 C408 1.374 . S
C408 H382 0.950 . S
C408 C404 1.385 . S
C408 C407 1.374 . S
C409 C406 1.499 . S
C409 C410 1.373 . S
C409 C411 1.389 . S
C410 H383 0.950 . S
C410 C396 1.377 . S
C410 C409 1.373 . S
C411 C395 1.377 . S
C411 C409 1.389 . S
C411 C412 1.500 1_565 S
C412 C411 1.500 1_545 S
C412 C413 1.390 1_545 S
C412 C417 1.392 . S
C413 H384 0.950 . S
C413 C412 1.390 1_565 S
C413 C414 1.334 1_565 S
C414 H385 0.950 . S
C414 C413 1.334 1_545 S
C414 C415 1.287 . S
C415 C414 1.287 . S
C415 C416 1.524 . S
C415 H418 0.999 . S
C416 H386 0.950 . S
C416 C415 1.524 . S
C416 C417 1.415 . S
C417 H387 0.950 . S
C417 C412 1.392 . S
C417 C416 1.415 . S
H418 C415 0.999 . S
H419 C400 0.913 . S
H420 C438 0.951 . S
H421 C440 0.951 . S
H422 C442 0.950 . S
H423 C443 0.950 . S
H424 C445 0.950 . S
H425 C448 0.950 . S
H426 C449 0.950 . S
H427 C451 0.950 . S
H428 C452 0.950 . S
H429 C453 0.951 . S
H430 C455 0.951 . S
H431 C457 0.950 . S
H432 C458 0.950 . S
H433 C460 0.950 . S
H434 C463 0.950 . S
H435 C464 0.950 . S
H436 C466 0.950 . S
H437 C467 0.950 . S
C438 H420 0.951 . S
C438 C439 1.366 . S
C438 C440 1.388 . S
C439 C438 1.366 . S
C439 C443 1.385 . S
C440 H421 0.951 . S
C440 C438 1.388 . S
C440 C441 1.366 . S
C441 C440 1.366 . S
C441 C442 1.414 . S
C441 C444 1.499 . S
C442 H422 0.950 . S
C442 C441 1.414 . S
C442 C443 1.374 . S
C443 H423 0.950 . S
C443 C439 1.385 . S
C443 C442 1.374 . S
C444 C441 1.499 . S
C444 C445 1.373 . S
C444 C446 1.389 . S
C445 H424 0.950 . S
C445 C444 1.373 . S
C445 C461 1.377 . S
C446 C444 1.389 . S
C446 C447 1.524 . S
C446 C460 1.377 . S
C447 C446 1.524 . S
C447 C448 1.397 . S
C447 C452 1.363 . S
C448 H425 0.950 . S
C448 C447 1.397 . S
C448 C449 1.334 . S
C449 H426 0.950 . S
C449 C448 1.334 . S
C449 C450 1.287 . S
C450 C449 1.287 . S
C450 C451 1.524 . S
C450 H469 0.913 . S
C451 H427 0.950 . S
C451 C450 1.524 . S
C451 C452 1.415 . S
C452 H428 0.950 . S
C452 C447 1.363 . S
C452 C451 1.415 . S
C453 H429 0.951 . S
C453 C454 1.366 . S
C453 C455 1.388 . S
C454 C453 1.366 . S
C454 C458 1.385 . S
C455 H430 0.951 . S
C455 C453 1.388 . S
C455 C456 1.366 . S
C456 C455 1.366 . S
C456 C457 1.414 . S
C456 C459 1.499 . S
C457 H431 0.950 . S
C457 C456 1.414 . S
C457 C458 1.374 . S
C458 H432 0.950 . S
C458 C454 1.385 . S
C458 C457 1.374 . S
C459 C456 1.499 . S
C459 C460 1.373 . S
C459 C461 1.389 . S
C460 H433 0.950 . S
C460 C446 1.377 . S
C460 C459 1.373 . S
C461 C445 1.377 . S
C461 C459 1.389 . S
C461 C462 1.524 . S
C462 C461 1.524 . S
C462 C463 1.397 . S
C462 C467 1.363 . S
C463 H434 0.950 . S
C463 C462 1.397 . S
C463 C464 1.334 . S
C464 H435 0.950 . S
C464 C463 1.334 . S
C464 C465 1.287 . S
C465 C464 1.287 . S
C465 C466 1.524 . S
C465 H468 0.999 . S
C466 H436 0.950 . S
C466 C465 1.524 . S
C466 C467 1.415 . S
C467 H437 0.950 . S
C467 C462 1.363 . S
C467 C466 1.415 . S
H468 C465 0.999 . S
H469 C450 0.913 . S
H470 C488 0.951 . S
H471 C490 0.951 . S
H472 C492 0.950 . S
H473 C493 0.950 . S
H474 C495 0.950 . S
H475 C498 0.950 . S
H476 C499 0.950 . S
H477 C501 0.950 . S
H478 C502 0.950 . S
H479 C503 0.951 . S
H480 C505 0.951 . S
H481 C507 0.950 . S
H482 C508 0.950 . S
H483 C510 0.950 . S
H484 C513 0.950 . S
H485 C514 0.950 . S
H486 C516 0.950 1_455 S
H487 C517 0.950 . S
C488 H470 0.951 . S
C488 C489 1.366 . S
C488 C490 1.388 . S
C489 C488 1.366 . S
C489 C493 1.385 . S
C490 H471 0.951 . S
C490 C488 1.388 . S
C490 C491 1.366 . S
C491 C490 1.366 . S
C491 C492 1.414 . S
C491 C494 1.499 . S
C492 H472 0.950 . S
C492 C491 1.414 . S
C492 C493 1.374 . S
C493 H473 0.950 . S
C493 C489 1.385 . S
C493 C492 1.374 . S
C494 C491 1.499 . S
C494 C495 1.373 . S
C494 C496 1.389 . S
C495 H474 0.950 . S
C495 C494 1.373 . S
C495 C511 1.377 . S
C496 C494 1.389 . S
C496 C497 1.524 . S
C496 C510 1.377 . S
C497 C496 1.524 . S
C497 C498 1.397 . S
C497 C502 1.363 . S
C498 H475 0.950 . S
C498 C497 1.397 . S
C498 C499 1.334 . S
C499 H476 0.950 . S
C499 C498 1.334 . S
C499 C500 1.287 . S
C500 C499 1.287 . S
C500 C501 1.524 . S
C500 H519 0.913 . S
C501 H477 0.950 . S
C501 C500 1.524 . S
C501 C502 1.415 . S
C502 H478 0.950 . S
C502 C497 1.363 . S
C502 C501 1.415 . S
C503 H479 0.951 . S
C503 C504 1.366 . S
C503 C505 1.388 . S
C504 C503 1.366 . S
C504 C508 1.385 . S
C505 H480 0.951 . S
C505 C503 1.388 . S
C505 C506 1.366 . S
C506 C505 1.366 . S
C506 C507 1.414 . S
C506 C509 1.499 . S
C507 H481 0.950 . S
C507 C506 1.414 . S
C507 C508 1.374 . S
C508 H482 0.950 . S
C508 C504 1.385 . S
C508 C507 1.374 . S
C509 C506 1.499 . S
C509 C510 1.373 . S
C509 C511 1.389 . S
C510 H483 0.950 . S
C510 C496 1.377 . S
C510 C509 1.373 . S
C511 C495 1.377 . S
C511 C509 1.389 . S
C511 C512 1.524 . S
C512 C511 1.524 . S
C512 C513 1.397 . S
C512 C517 1.363 . S
C513 H484 0.950 . S
C513 C512 1.397 . S
C513 C514 1.334 . S
C514 H485 0.950 . S
C514 C513 1.334 . S
C514 C515 1.287 1_655 S
C515 C514 1.287 1_455 S
C515 C516 1.524 1_455 S
C515 H518 0.999 . S
C516 H486 0.950 1_655 S
C516 C515 1.524 1_655 S
C516 C517 1.415 . S
C517 H487 0.950 . S
C517 C512 1.363 . S
C517 C516 1.415 . S
H518 C515 0.999 . S
H519 C500 0.913 . S
H520 C538 0.951 . S
H521 C540 0.951 . S
H522 C542 0.950 . S
H523 C543 0.950 . S
H524 C545 0.950 . S
H525 C548 0.950 . S
H526 C549 0.950 . S
H527 C551 0.950 . S
H528 C552 0.950 . S
H529 C553 0.951 . S
H530 C555 0.951 . S
H531 C557 0.950 . S
H532 C558 0.950 . S
H533 C560 0.950 . S
H534 C563 0.950 . S
H535 C564 0.950 . S
H536 C566 0.950 . S
H537 C567 0.950 . S
C538 H520 0.951 . S
C538 C539 1.366 . S
C538 C540 1.388 . S
C539 C538 1.366 . S
C539 C543 1.385 . S
C540 H521 0.951 . S
C540 C538 1.388 . S
C540 C541 1.366 . S
C541 C540 1.366 . S
C541 C542 1.414 . S
C541 C544 1.499 . S
C542 H522 0.950 . S
C542 C541 1.414 . S
C542 C543 1.374 . S
C543 H523 0.950 . S
C543 C539 1.385 . S
C543 C542 1.374 . S
C544 C541 1.499 . S
C544 C545 1.373 . S
C544 C546 1.389 . S
C545 H524 0.950 . S
C545 C544 1.373 . S
C545 C561 1.377 . S
C546 C544 1.389 . S
C546 C547 1.524 . S
C546 C560 1.377 . S
C547 C546 1.524 . S
C547 C548 1.397 . S
C547 C552 1.363 . S
C548 H525 0.950 . S
C548 C547 1.397 . S
C548 C549 1.334 . S
C549 H526 0.950 . S
C549 C548 1.334 . S
C549 C550 1.287 . S
C550 C549 1.287 . S
C550 C551 1.524 . S
C550 H569 0.913 . S
C551 H527 0.950 . S
C551 C550 1.524 . S
C551 C552 1.415 . S
C552 H528 0.950 . S
C552 C547 1.363 . S
C552 C551 1.415 . S
C553 H529 0.951 . S
C553 C554 1.366 . S
C553 C555 1.388 . S
C554 C553 1.366 . S
C554 C558 1.385 . S
C555 H530 0.951 . S
C555 C553 1.388 . S
C555 C556 1.366 . S
C556 C555 1.366 . S
C556 C557 1.414 . S
C556 C559 1.499 . S
C557 H531 0.950 . S
C557 C556 1.414 . S
C557 C558 1.374 . S
C558 H532 0.950 . S
C558 C554 1.385 . S
C558 C557 1.374 . S
C559 C556 1.499 . S
C559 C560 1.373 . S
C559 C561 1.389 . S
C560 H533 0.950 . S
C560 C546 1.377 . S
C560 C559 1.373 . S
C561 C545 1.377 . S
C561 C559 1.389 . S
C561 C562 1.524 . S
C562 C561 1.524 . S
C562 C563 1.397 . S
C562 C567 1.363 . S
C563 H534 0.950 . S
C563 C562 1.397 . S
C563 C564 1.334 . S
C564 H535 0.950 . S
C564 C563 1.334 . S
C564 C565 1.287 . S
C565 C564 1.287 . S
C565 C566 1.524 . S
C565 H568 0.999 . S
C566 H536 0.950 . S
C566 C565 1.524 . S
C566 C567 1.415 . S
C567 H537 0.950 . S
C567 C562 1.363 . S
C567 C566 1.415 . S
H568 C565 0.999 . S
H569 C550 0.913 . S
H570 C588 0.951 . S
H571 C590 0.951 . S
H572 C592 0.950 . S
H573 C593 0.950 . S
H574 C595 0.950 . S
H575 C598 0.950 . S
H576 C599 0.950 . S
H577 C601 0.950 . S
H578 C602 0.950 . S
H579 C603 0.951 . S
H580 C605 0.951 . S
H581 C607 0.950 . S
H582 C608 0.950 . S
H583 C610 0.950 . S
H584 C613 0.950 . S
H585 C614 0.950 . S
H586 C616 0.950 . S
H587 C617 0.950 . S
C588 H570 0.951 . S
C588 C589 1.366 . S
C588 C590 1.388 . S
C589 C588 1.366 . S
C589 C593 1.385 . S
C590 H571 0.951 . S
C590 C588 1.388 . S
C590 C591 1.366 . S
C591 C590 1.366 . S
C591 C592 1.414 . S
C591 C594 1.499 . S
C592 H572 0.950 . S
C592 C591 1.414 . S
C592 C593 1.374 . S
C593 H573 0.950 . S
C593 C589 1.385 . S
C593 C592 1.374 . S
C594 C591 1.499 . S
C594 C595 1.373 . S
C594 C596 1.389 . S
C595 H574 0.950 . S
C595 C594 1.373 . S
C595 C611 1.377 . S
C596 C594 1.389 . S
C596 C597 1.524 . S
C596 C610 1.377 . S
C597 C596 1.524 . S
C597 C598 1.397 . S
C597 C602 1.363 . S
C598 H575 0.950 . S
C598 C597 1.397 . S
C598 C599 1.334 . S
C599 H576 0.950 . S
C599 C598 1.334 . S
C599 C600 1.287 . S
C600 C599 1.287 . S
C600 C601 1.524 . S
C600 H619 0.913 . S
C601 H577 0.950 . S
C601 C600 1.524 . S
C601 C602 1.415 . S
C602 H578 0.950 . S
C602 C597 1.363 . S
C602 C601 1.415 . S
C603 H579 0.951 . S
C603 C604 1.366 . S
C603 C605 1.388 . S
C604 C603 1.366 . S
C604 C608 1.385 . S
C605 H580 0.951 . S
C605 C603 1.388 . S
C605 C606 1.366 . S
C606 C605 1.366 . S
C606 C607 1.414 . S
C606 C609 1.499 . S
C607 H581 0.950 . S
C607 C606 1.414 . S
C607 C608 1.374 . S
C608 H582 0.950 . S
C608 C604 1.385 . S
C608 C607 1.374 . S
C609 C606 1.499 . S
C609 C610 1.373 . S
C609 C611 1.389 . S
C610 H583 0.950 . S
C610 C596 1.377 . S
C610 C609 1.373 . S
C611 C595 1.377 . S
C611 C609 1.389 . S
C611 C612 1.524 . S
C612 C611 1.524 . S
C612 C613 1.397 . S
C612 C617 1.363 . S
C613 H584 0.950 . S
C613 C612 1.397 . S
C613 C614 1.334 . S
C614 H585 0.950 . S
C614 C613 1.334 . S
C614 C615 1.287 . S
C615 C614 1.287 . S
C615 C616 1.524 . S
C615 H618 0.999 . S
C616 H586 0.950 . S
C616 C615 1.524 . S
C616 C617 1.415 . S
C617 H587 0.950 . S
C617 C612 1.363 . S
C617 C616 1.415 . S
H618 C615 0.999 . S
H619 C600 0.913 . S
H620 C638 0.951 . S
H621 C640 0.951 . S
H622 C642 0.950 . S
H623 C643 0.950 . S
H624 C645 0.950 . S
H625 C648 0.950 . S
H626 C649 0.950 . S
H627 C651 0.950 . S
H628 C652 0.950 . S
H629 C653 0.951 . S
H630 C655 0.951 . S
H631 C657 0.950 . S
H632 C658 0.950 . S
H633 C660 0.950 . S
H634 C663 0.950 . S
H635 C664 0.950 . S
H636 C666 0.950 . S
H637 C667 0.950 . S
C638 H620 0.951 . S
C638 C639 1.366 . S
C638 C640 1.388 . S
C639 C638 1.366 . S
C639 C643 1.385 . S
C640 H621 0.951 . S
C640 C638 1.388 . S
C640 C641 1.366 . S
C641 C640 1.366 . S
C641 C642 1.414 . S
C641 C644 1.499 . S
C642 H622 0.950 . S
C642 C641 1.414 . S
C642 C643 1.374 . S
C643 H623 0.950 . S
C643 C639 1.385 . S
C643 C642 1.374 . S
C644 C641 1.499 . S
C644 C645 1.373 . S
C644 C646 1.389 . S
C645 H624 0.950 . S
C645 C644 1.373 . S
C645 C661 1.377 . S
C646 C644 1.389 . S
C646 C647 1.524 . S
C646 C660 1.377 . S
C647 C646 1.524 . S
C647 C648 1.397 . S
C647 C652 1.363 . S
C648 H625 0.950 . S
C648 C647 1.397 . S
C648 C649 1.334 . S
C649 H626 0.950 . S
C649 C648 1.334 . S
C649 C650 1.287 . S
C650 C649 1.287 . S
C650 C651 1.524 . S
C650 H669 0.913 . S
C651 H627 0.950 . S
C651 C650 1.524 . S
C651 C652 1.415 . S
C652 H628 0.950 . S
C652 C647 1.363 . S
C652 C651 1.415 . S
C653 H629 0.951 . S
C653 C654 1.366 . S
C653 C655 1.388 . S
C654 C653 1.366 . S
C654 C658 1.385 . S
C655 H630 0.951 . S
C655 C653 1.388 . S
C655 C656 1.366 . S
C656 C655 1.366 . S
C656 C657 1.414 . S
C656 C659 1.499 . S
C657 H631 0.950 . S
C657 C656 1.414 . S
C657 C658 1.374 . S
C658 H632 0.950 . S
C658 C654 1.385 . S
C658 C657 1.374 . S
C659 C656 1.499 . S
C659 C660 1.373 . S
C659 C661 1.389 . S
C660 H633 0.950 . S
C660 C646 1.377 . S
C660 C659 1.373 . S
C661 C645 1.377 . S
C661 C659 1.389 . S
C661 C662 1.524 . S
C662 C661 1.524 . S
C662 C663 1.397 . S
C662 C667 1.363 . S
C663 H634 0.950 . S
C663 C662 1.397 . S
C663 C664 1.334 1_545 S
C664 H635 0.950 . S
C664 C663 1.334 1_565 S
C664 C665 1.287 . S
C665 C664 1.287 . S
C665 C666 1.524 1_565 S
C665 H668 0.999 . S
C666 H636 0.950 . S
C666 C665 1.524 1_545 S
C666 C667 1.415 . S
C667 H637 0.950 . S
C667 C662 1.363 . S
C667 C666 1.415 . S
H668 C665 0.999 . S
H669 C650 0.913 . S
H670 C688 0.951 . S
H671 C690 0.951 . S
H672 C692 0.950 . S
H673 C693 0.950 . S
H674 C695 0.950 . S
H675 C698 0.950 . S
H676 C699 0.950 . S
H677 C701 0.950 . S
H678 C702 0.950 . S
H679 C703 0.951 . S
H680 C705 0.951 . S
H681 C707 0.950 . S
H682 C708 0.950 . S
H683 C710 0.950 . S
H684 C713 0.950 . S
H685 C714 0.950 . S
H686 C716 0.950 . S
H687 C717 0.950 . S
C688 H670 0.951 . S
C688 C689 1.366 . S
C688 C690 1.388 . S
C689 C688 1.366 . S
C689 C693 1.385 . S
C690 H671 0.951 . S
C690 C688 1.388 . S
C690 C691 1.366 . S
C691 C690 1.366 . S
C691 C692 1.414 . S
C691 C694 1.499 . S
C692 H672 0.950 . S
C692 C691 1.414 . S
C692 C693 1.374 . S
C693 H673 0.950 . S
C693 C689 1.385 . S
C693 C692 1.374 . S
C694 C691 1.499 . S
C694 C695 1.373 . S
C694 C696 1.389 . S
C695 H674 0.950 . S
C695 C694 1.373 . S
C695 C711 1.377 . S
C696 C694 1.389 . S
C696 C697 1.524 . S
C696 C710 1.377 . S
C697 C696 1.524 . S
C697 C698 1.397 . S
C697 C702 1.363 . S
C698 H675 0.950 . S
C698 C697 1.397 . S
C698 C699 1.334 . S
C699 H676 0.950 . S
C699 C698 1.334 . S
C699 C700 1.287 . S
C700 C699 1.287 . S
C700 C701 1.524 . S
C700 H719 0.913 . S
C701 H677 0.950 . S
C701 C700 1.524 . S
C701 C702 1.415 . S
C702 H678 0.950 . S
C702 C697 1.363 . S
C702 C701 1.415 . S
C703 H679 0.951 . S
C703 C704 1.366 . S
C703 C705 1.388 . S
C704 C703 1.366 . S
C704 C708 1.385 . S
C705 H680 0.951 . S
C705 C703 1.388 . S
C705 C706 1.366 . S
C706 C705 1.366 . S
C706 C707 1.414 . S
C706 C709 1.499 . S
C707 H681 0.950 . S
C707 C706 1.414 . S
C707 C708 1.374 . S
C708 H682 0.950 . S
C708 C704 1.385 . S
C708 C707 1.374 . S
C709 C706 1.499 . S
C709 C710 1.373 . S
C709 C711 1.389 . S
C710 H683 0.950 . S
C710 C696 1.377 . S
C710 C709 1.373 . S
C711 C695 1.377 . S
C711 C709 1.389 . S
C711 C712 1.524 . S
C712 C711 1.524 . S
C712 C713 1.397 . S
C712 C717 1.363 . S
C713 H684 0.950 . S
C713 C712 1.397 . S
C713 C714 1.334 . S
C714 H685 0.950 . S
C714 C713 1.334 . S
C714 C715 1.287 . S
C715 C714 1.287 . S
C715 C716 1.524 . S
C715 H718 0.999 . S
C716 H686 0.950 . S
C716 C715 1.524 . S
C716 C717 1.415 . S
C717 H687 0.950 . S
C717 C712 1.363 . S
C717 C716 1.415 . S
H718 C715 0.999 . S
H719 C700 0.913 . S
H720 C738 0.951 . S
H721 C740 0.951 . S
H722 C742 0.950 . S
H723 C743 0.950 . S
H724 C745 0.950 . S
H725 C748 0.950 . S
H726 C749 0.950 . S
H727 C751 0.950 . S
H728 C752 0.950 . S
H729 C753 0.951 1_545 S
H730 C755 0.951 . S
H731 C757 0.950 . S
H732 C758 0.950 . S
H733 C760 0.950 . S
H734 C763 0.950 . S
H735 C764 0.950 . S
H736 C766 0.950 . S
H737 C767 0.950 . S
C738 H720 0.951 . S
C738 C739 1.366 . S
C738 C740 1.388 . S
C739 C738 1.366 . S
C739 C743 1.385 . S
C740 H721 0.951 . S
C740 C738 1.388 . S
C740 C741 1.366 . S
C741 C740 1.366 . S
C741 C742 1.414 . S
C741 C744 1.499 . S
C742 H722 0.950 . S
C742 C741 1.414 . S
C742 C743 1.374 . S
C743 H723 0.950 . S
C743 C739 1.385 . S
C743 C742 1.374 . S
C744 C741 1.499 . S
C744 C745 1.373 . S
C744 C746 1.389 . S
C745 H724 0.950 . S
C745 C744 1.373 . S
C745 C761 1.377 . S
C746 C744 1.389 . S
C746 C747 1.524 . S
C746 C760 1.377 . S
C747 C746 1.524 . S
C747 C748 1.397 . S
C747 C752 1.363 . S
C748 H725 0.950 . S
C748 C747 1.397 . S
C748 C749 1.334 . S
C749 H726 0.950 . S
C749 C748 1.334 . S
C749 C750 1.287 . S
C750 C749 1.287 . S
C750 C751 1.524 . S
C750 H769 0.913 . S
C751 H727 0.950 . S
C751 C750 1.524 . S
C751 C752 1.415 . S
C752 H728 0.950 . S
C752 C747 1.363 . S
C752 C751 1.415 . S
C753 H729 0.951 1_565 S
C753 C754 1.366 . S
C753 C755 1.388 . S
C754 C753 1.366 . S
C754 C758 1.385 . S
C755 H730 0.951 . S
C755 C753 1.388 . S
C755 C756 1.366 . S
C756 C755 1.366 . S
C756 C757 1.414 . S
C756 C759 1.499 . S
C757 H731 0.950 . S
C757 C756 1.414 . S
C757 C758 1.374 . S
C758 H732 0.950 . S
C758 C754 1.385 . S
C758 C757 1.374 . S
C759 C756 1.499 . S
C759 C760 1.373 . S
C759 C761 1.389 . S
C760 H733 0.950 . S
C760 C746 1.377 . S
C760 C759 1.373 . S
C761 C745 1.377 . S
C761 C759 1.389 . S
C761 C762 1.524 . S
C762 C761 1.524 . S
C762 C763 1.397 . S
C762 C767 1.363 . S
C763 H734 0.950 . S
C763 C762 1.397 . S
C763 C764 1.334 . S
C764 H735 0.950 . S
C764 C763 1.334 . S
C764 C765 1.287 . S
C765 C764 1.287 . S
C765 C766 1.524 . S
C765 H768 0.999 . S
C766 H736 0.950 . S
C766 C765 1.524 . S
C766 C767 1.415 . S
C767 H737 0.950 . S
C767 C762 1.363 . S
C767 C766 1.415 . S
H768 C765 0.999 . S
H769 C750 0.913 . S
C204 C144 1.278 . S
C189 C119 1.385 . S
C239 C23 1.464 . S
C254 C165 1.274 . S
C289 C55 1.661 . S
C304 C141 1.446 . S
C339 C87 1.589 . S
C354 C162 1.442 . S
C404 C146 1.553 . S
C389 C17 1.593 . S
C454 C166 1.525 . S
C439 C61 1.568 . S
C489 C93 1.476 . S
C504 C142 1.488 . S
C539 C113 1.502 . S
C554 C164 1.510 . S
C604 C163 1.490 . S
C589 C49 1.550 . S
C654 C145 1.522 . S
C639 C81 1.517 . S
C704 C167 1.559 . S
C689 C125 1.499 . S
C739 C29 1.586 . S
C754 C143 1.510 . S
