# Generated by pormake.
# Topology pyr, (3,6)-cn, num edge types: 1
# Building blocks:
#     Node 0, Type 0, BuildingBlock: ESEHIV_clean_linker_0, # of connection points: 3
#     Node 1, Type 0, BuildingBlock: ESEHIV_clean_linker_0, # of connection points: 3
#     Node 2, Type 0, BuildingBlock: ESEHIV_clean_linker_0, # of connection points: 3
#     Node 3, Type 0, BuildingBlock: ESEHIV_clean_linker_0, # of connection points: 3
#     Node 4, Type 0, BuildingBlock: ESEHIV_clean_linker_0, # of connection points: 3
#     Node 5, Type 0, BuildingBlock: ESEHIV_clean_linker_0, # of connection points: 3
#     Node 6, Type 0, BuildingBlock: ESEHIV_clean_linker_0, # of connection points: 3
#     Node 7, Type 0, BuildingBlock: ESEHIV_clean_linker_0, # of connection points: 3
#     Node 8, Type 1, BuildingBlock: CIFDUS_clean_sbu_1, # of connection points: 6
#     Node 9, Type 1, BuildingBlock: CIFDUS_clean_sbu_1, # of connection points: 6
#     Node 10, Type 1, BuildingBlock: CIFDUS_clean_sbu_1, # of connection points: 6
#     Node 11, Type 1, BuildingBlock: CIFDUS_clean_sbu_1, # of connection points: 6
#     Edge 12, Type (0, 1), BuildingBlock: AJUNOK_clean_linker_0, # of connection points: 2
#     Edge 13, Type (0, 1), BuildingBlock: AJUNOK_clean_linker_0, # of connection points: 2
#     Edge 14, Type (0, 1), BuildingBlock: AJUNOK_clean_linker_0, # of connection points: 2
#     Edge 15, Type (0, 1), BuildingBlock: AJUNOK_clean_linker_0, # of connection points: 2
#     Edge 16, Type (0, 1), BuildingBlock: AJUNOK_clean_linker_0, # of connection points: 2
#     Edge 17, Type (0, 1), BuildingBlock: AJUNOK_clean_linker_0, # of connection points: 2
#     Edge 18, Type (0, 1), BuildingBlock: AJUNOK_clean_linker_0, # of connection points: 2
#     Edge 19, Type (0, 1), BuildingBlock: AJUNOK_clean_linker_0, # of connection points: 2
#     Edge 20, Type (0, 1), BuildingBlock: AJUNOK_clean_linker_0, # of connection points: 2
#     Edge 21, Type (0, 1), BuildingBlock: AJUNOK_clean_linker_0, # of connection points: 2
#     Edge 22, Type (0, 1), BuildingBlock: AJUNOK_clean_linker_0, # of connection points: 2
#     Edge 23, Type (0, 1), BuildingBlock: AJUNOK_clean_linker_0, # of connection points: 2
#     Edge 24, Type (0, 1), BuildingBlock: AJUNOK_clean_linker_0, # of connection points: 2
#     Edge 25, Type (0, 1), BuildingBlock: AJUNOK_clean_linker_0, # of connection points: 2
#     Edge 26, Type (0, 1), BuildingBlock: AJUNOK_clean_linker_0, # of connection points: 2
#     Edge 27, Type (0, 1), BuildingBlock: AJUNOK_clean_linker_0, # of connection points: 2
#     Edge 28, Type (0, 1), BuildingBlock: AJUNOK_clean_linker_0, # of connection points: 2
#     Edge 29, Type (0, 1), BuildingBlock: AJUNOK_clean_linker_0, # of connection points: 2
#     Edge 30, Type (0, 1), BuildingBlock: AJUNOK_clean_linker_0, # of connection points: 2
#     Edge 31, Type (0, 1), BuildingBlock: AJUNOK_clean_linker_0, # of connection points: 2
#     Edge 32, Type (0, 1), BuildingBlock: AJUNOK_clean_linker_0, # of connection points: 2
#     Edge 33, Type (0, 1), BuildingBlock: AJUNOK_clean_linker_0, # of connection points: 2
#     Edge 34, Type (0, 1), BuildingBlock: AJUNOK_clean_linker_0, # of connection points: 2
#     Edge 35, Type (0, 1), BuildingBlock: AJUNOK_clean_linker_0, # of connection points: 2
# Relax obj value: 0.035
# Max RMSD: 0.110
# Mean RMSD: 0.045
data_MOF--net-pry--node1-CIFDUS_clean_sbu_1--node2-ESEHIV_clean_linker_0--edge1-AJUNOK_clean_linker_0
_symmetry_space_group_name_H-M    P1
_symmetry_Int_Tables_number       1
_symmetry_cell_setting            triclinic
loop_
_symmetry_equiv_pos_as_xyz
'x, y, z'
_cell_length_a     25.444386
_cell_length_b     24.332236
_cell_length_c     23.859152
_cell_angle_alpha  92.32264
_cell_angle_beta   91.72523
_cell_angle_gamma 92.483905
loop_
_atom_site_label
_atom_site_type_symbol
_atom_site_fract_x
_atom_site_fract_y
_atom_site_fract_z
_atom_type_partial_charge
H0 H 0.07437 0.192 0.18191 0.0
H1 H 0.19371 0.0725 0.19814 0.0
H2 H 0.20433 0.19109 0.07124 0.0
C3 C 0.11031 0.17383 0.16913 0.0
C4 C 0.13646 0.19609 0.1232 0.0
C5 C 0.13132 0.12991 0.19856 0.0
C6 C 0.17709 0.10673 0.17775 0.0
C7 C 0.20365 0.12753 0.13196 0.0
C8 C 0.18309 0.17271 0.10499 0.0
H9 H 0.31617 0.9547 0.67548 0.0
H10 H 0.4445 0.84696 0.67376 0.0
H11 H 0.33221 0.84209 0.53414 0.0
C12 C 0.33858 0.92419 0.65339 0.0
C13 C 0.31928 0.90035 0.60186 0.0
C14 C 0.38494 0.90628 0.6781 0.0
C15 C 0.4116 0.86377 0.65142 0.0
C16 C 0.39389 0.84054 0.5987 0.0
C17 C 0.34762 0.85993 0.57395 0.0
H18 H 0.69414 0.3146 0.94443 0.0
H19 H 0.72258 0.42919 0.81645 0.0
H20 H 0.58241 0.32268 0.80726 0.0
C21 C 0.68226 0.33196 0.90527 0.0
C22 C 0.63633 0.31115 0.87613 0.0
C23 C 0.71184 0.37639 0.88543 0.0
C24 C 0.69771 0.39698 0.83326 0.0
C25 C 0.65122 0.37819 0.80383 0.0
C26 C 0.6203 0.33547 0.82638 0.0
H27 H 0.83961 0.67804 0.48465 0.0
H28 H 0.94671 0.65457 0.34941 0.0
H29 H 0.80427 0.55557 0.35298 0.0
C30 C 0.85176 0.6562 0.4472 0.0
C31 C 0.82004 0.61116 0.42518 0.0
C32 C 0.89728 0.6739 0.41937 0.0
C33 C 0.91035 0.64447 0.36991 0.0
C34 C 0.87529 0.60476 0.34381 0.0
C35 C 0.83102 0.58715 0.37242 0.0
H36 H 0.82281 0.94852 0.84309 0.0
H37 H 0.9442 0.8314 0.84926 0.0
H38 H 0.83861 0.84532 0.98535 0.0
C39 C 0.84278 0.9171 0.86524 0.0
C40 C 0.82377 0.899 0.9168 0.0
C41 C 0.88768 0.8942 0.8419 0.0
C42 C 0.91174 0.85103 0.8691 0.0
C43 C 0.89468 0.83324 0.92117 0.0
C44 C 0.85139 0.85832 0.94486 0.0
H45 H 0.55525 0.17112 0.38024 0.0
H46 H 0.68807 0.07371 0.35127 0.0
H47 H 0.6852 0.17727 0.50115 0.0
C48 C 0.59292 0.15747 0.39487 0.0
C49 C 0.6165 0.18057 0.44533 0.0
C50 C 0.61908 0.12047 0.35974 0.0
C51 C 0.66788 0.10245 0.37798 0.0
C52 C 0.69299 0.1248 0.42774 0.0
C53 C 0.66613 0.16187 0.46227 0.0
H54 H 0.3284 0.7223 0.10284 0.0
H55 H 0.29995 0.60182 0.22497 0.0
H56 H 0.43185 0.71879 0.24776 0.0
C57 C 0.3393 0.7041 0.14203 0.0
C58 C 0.38066 0.72849 0.17585 0.0
C59 C 0.3113 0.65713 0.15842 0.0
C60 C 0.32534 0.6342 0.20953 0.0
C61 C 0.37086 0.65332 0.2409 0.0
C62 C 0.39777 0.70171 0.22391 0.0
H63 H 0.05442 0.37234 0.68643 0.0
H64 H 0.16889 0.34481 0.55812 0.0
H65 H 0.20621 0.45332 0.69879 0.0
C66 C 0.09288 0.3773 0.66914 0.0
C67 C 0.13049 0.41039 0.70061 0.0
C68 C 0.10515 0.35025 0.61788 0.0
C69 C 0.15492 0.36444 0.5956 0.0
C70 C 0.18927 0.40451 0.62263 0.0
C71 C 0.17776 0.42566 0.67605 0.0
O72 O 0.93075 0.05111 0.51222 0.0
Mn73 Mn 0.00444 0.01563 0.52176 0.0
O74 O 0.92328 0.03591 0.42132 0.0
Mn75 Mn 0.9669 0.97818 0.42323 0.0
O76 O 0.07758 0.97774 0.53062 0.0
O77 O 0.03024 0.0894 0.56224 0.0
Mn78 Mn 0.06987 0.06287 0.61662 0.0
O79 O 0.97705 0.98233 0.59779 0.0
O80 O 0.12808 0.03103 0.59 0.0
O81 O 0.03503 0.05337 0.4477 0.0
O82 O 0.02603 0.98648 0.38426 0.0
O83 O 0.07754 0.13455 0.63226 0.0
O84 O 0.03008 0.02312 0.66473 0.0
C85 C 0.95122 0.90322 0.44793 0.0
C86 C 0.90721 0.05865 0.46531 0.0
C87 C 0.12234 0.99116 0.55474 0.0
C88 C 0.04672 0.13609 0.58807 0.0
C89 C 0.99198 0.98993 0.6499 0.0
C90 C 0.04721 0.032 0.39976 0.0
O91 O 0.97754 0.93835 0.48381 0.0
O92 O 0.92971 0.91956 0.4019 0.0
O93 O 0.47651 0.99527 0.93242 0.0
Mn94 Mn 0.50678 0.01265 1.01444 0.0
O95 O 0.5012 0.91177 0.90967 0.0
Mn96 Mn 0.51872 0.89584 0.98183 0.0
O97 O 0.5355 0.03516 0.09981 0.0
O98 O 0.52174 0.09203 0.98681 0.0
Mn99 Mn 0.49447 0.11892 0.0501 0.0
O100 O 0.42669 0.02421 0.03228 0.0
O101 O 0.55175 0.12493 0.09593 0.0
O102 O 0.58744 0.99343 0.99327 0.0
O103 O 0.58834 0.90138 0.99765 0.0
O104 O 0.47243 0.16564 1.0003 0.0
O105 O 0.4371 0.09628 0.08883 0.0
C106 C 0.46148 0.89192 0.04399 0.0
C107 C 0.47894 0.95481 0.89713 0.0
C108 C 0.55546 0.08136 0.1223 0.0
C109 C 0.50495 0.13937 0.96978 0.0
C110 C 0.40833 0.05726 0.06864 0.0
C111 C 0.61267 0.94764 0.99333 0.0
O112 O 0.49493 0.93381 0.04073 0.0
O113 O 0.46783 0.85159 1.00818 0.0
O114 O 0.58295 0.5394 0.51364 0.0
Mn115 Mn 0.50509 0.51055 0.52303 0.0
O116 O 0.60807 0.48934 0.43929 0.0
Mn117 Mn 0.54209 0.46575 0.41102 0.0
O118 O 0.42686 0.48236 0.53375 0.0
O119 O 0.51847 0.51344 0.60734 0.0
Mn120 Mn 0.46949 0.55286 0.63762 0.0
O121 O 0.48173 0.59333 0.52289 0.0
O122 O 0.4056 0.51689 0.61892 0.0
O123 O 0.52837 0.42732 0.52172 0.0
O124 O 0.52196 0.39646 0.43175 0.0
O125 O 0.5092 0.53247 0.6972 0.0
O126 O 0.47868 0.6226 0.61303 0.0
C127 C 0.49098 0.53071 0.39267 0.0
C128 C 0.6183 0.5232 0.48039 0.0
C129 C 0.39423 0.48912 0.57343 0.0
C130 C 0.53533 0.5078 0.65859 0.0
C131 C 0.4782 0.63181 0.56119 0.0
C132 C 0.52647 0.3876 0.48383 0.0
O133 O 0.4908 0.50468 0.43897 0.0
O134 O 0.51932 0.50828 0.35464 0.0
O135 O 0.93382 0.47884 1.01021 0.0
Mn136 Mn 0.00975 0.51363 0.02577 0.0
O137 O 0.91013 0.52048 0.93249 0.0
Mn138 Mn 0.97734 0.54517 0.91692 0.0
O139 O 0.08733 0.54824 0.03745 0.0
O140 O 0.98919 0.51976 0.10962 0.0
Mn141 Mn 0.0529 0.51011 0.13882 0.0
O142 O 0.03793 0.43293 0.03614 0.0
O143 O 0.0964 0.56962 0.12804 0.0
O144 O 0.98198 0.59615 0.02 0.0
O145 O 0.99419 0.61733 0.93247 0.0
O146 O 0.01629 0.51418 0.20032 0.0
O147 O 0.07819 0.44245 0.12074 0.0
C148 C 0.03444 0.49949 0.88659 0.0
C149 C 0.89927 0.4897 0.97253 0.0
C150 C 0.11198 0.57391 0.0789 0.0
C151 C 0.97917 0.52265 0.16358 0.0
C152 C 0.06644 0.41396 0.07613 0.0
C153 C 0.98612 0.63239 0.98213 0.0
O154 O 0.02814 0.50313 0.94135 0.0
O155 O 1.00135 0.5214 0.85257 0.0
C156 C 0.11676 0.05291 0.26529 0.0
C157 C 0.10856 0.10804 0.25185 0.0
C158 C 0.10156 0.03158 0.31604 0.0
C159 C 0.07395 0.06255 0.3553 0.0
H160 H 0.13396 0.02443 0.23595 0.0
H161 H 0.109 0.98883 0.32316 0.0
S162 S 0.03188 0.20501 0.33847 0.0
N163 N 0.06759 0.19251 0.28313 0.0
N164 N 0.0322 0.14862 0.3747 0.0
C165 C 0.0626 0.11666 0.34223 0.0
C166 C 0.08084 0.13994 0.29135 0.0
C167 C 0.43249 0.97382 0.74682 0.0
C168 C 0.40133 0.92502 0.7359 0.0
C169 C 0.45493 0.98668 0.80082 0.0
C170 C 0.44658 0.95083 0.84475 0.0
H171 H 0.44159 1.00061 0.71293 0.0
H172 H 0.48128 0.0227 0.80729 0.0
S173 S 0.36334 0.82154 0.83842 0.0
N174 N 0.35998 0.84368 0.77396 0.0
N175 N 0.40118 0.86769 0.87497 0.0
C176 C 0.41266 0.90402 0.83475 0.0
C177 C 0.39031 0.89105 0.78034 0.0
C178 C 0.6405 0.46633 0.75461 0.0
C179 C 0.63189 0.40862 0.75451 0.0
C180 C 0.61479 0.49793 0.71575 0.0
C181 C 0.57828 0.47364 0.6761 0.0
H182 H 0.66366 0.48841 0.78772 0.0
H183 H 0.61914 0.5424 0.72085 0.0
S184 S 0.54724 0.32449 0.65108 0.0
N185 N 0.59084 0.32797 0.70393 0.0
N186 N 0.53839 0.38875 0.63448 0.0
C187 C 0.57246 0.41609 0.67182 0.0
C188 C 0.60001 0.38332 0.71044 0.0
C189 C 0.88567 0.52544 0.27529 0.0
C190 C 0.88528 0.58256 0.28632 0.0
C191 C 0.90716 0.50409 0.22598 0.0
C192 C 0.92933 0.53918 0.18661 0.0
H193 H 0.87405 0.49721 0.30711 0.0
H194 H 0.91313 0.46026 0.2225 0.0
S195 S 0.92474 0.69091 0.18885 0.0
N196 N 0.89803 0.6733 0.24817 0.0
N197 N 0.93969 0.6327 0.15629 0.0
C198 C 0.92185 0.59568 0.19323 0.0
C199 C 0.90007 0.6176 0.24334 0.0
C200 C 0.26576 0.09296 0.05834 0.0
C201 C 0.2545 0.10327 0.11531 0.0
C202 C 0.31396 0.07118 0.04252 0.0
C203 C 0.35229 0.05828 0.08313 0.0
H204 H 0.23768 0.10301 0.02572 0.0
H205 H 0.32268 0.06795 0.99837 0.0
S206 S 0.34323 0.07666 0.23729 0.0
N207 N 0.2875 0.09936 0.21209 0.0
N208 N 0.37537 0.0554 0.18206 0.0
C209 C 0.34054 0.06592 0.13988 0.0
C210 C 0.29255 0.08931 0.15606 0.0
C211 C 0.26139 0.95154 0.53771 0.0
C212 C 0.26667 0.91402 0.58049 0.0
C213 C 0.2121 0.97217 0.52404 0.0
C214 C 0.16675 0.95485 0.55193 0.0
H215 H 0.29597 0.96766 0.51741 0.0
H216 H 0.21009 1.00475 0.49452 0.0
S217 S 0.15991 0.85503 0.66487 0.0
N218 N 0.22266 0.85851 0.64883 0.0
N219 N 0.13 0.89654 0.62239 0.0
C220 C 0.17126 0.91473 0.5922 0.0
C221 C 0.22133 0.89449 0.60674 0.0
C222 C 0.7598 0.46223 0.92321 0.0
C223 C 0.7556 0.40431 0.91999 0.0
C224 C 0.80464 0.49024 0.94691 0.0
C225 C 0.8468 0.46151 0.96894 0.0
H226 H 0.72935 0.48616 0.90466 0.0
H227 H 0.80799 0.53463 0.9443 0.0
S228 S 0.85104 0.31058 0.98141 0.0
N229 N 0.79431 0.31954 0.94829 0.0
N230 N 0.87835 0.37282 0.99416 0.0
C231 C 0.84066 0.40415 0.97203 0.0
C232 C 0.79507 0.37532 0.94713 0.0
C233 C 0.73283 0.62534 0.46953 0.0
C234 C 0.77318 0.59021 0.45453 0.0
C235 C 0.68326 0.60367 0.4847 0.0
C236 C 0.6729 0.5464 0.48495 0.0
H237 H 0.73822 0.66936 0.46533 0.0
H238 H 0.65175 0.63156 0.49122 0.0
S239 S 0.76828 0.43808 0.45842 0.0
N240 N 0.80188 0.49635 0.44915 0.0
N241 N 0.70882 0.45582 0.4757 0.0
C242 C 0.71452 0.51155 0.47506 0.0
C243 C 0.76468 0.53341 0.46031 0.0
C244 C 0.15093 0.29744 0.11826 0.0
C245 C 0.12063 0.24982 0.10145 0.0
C246 C 0.13469 0.3498 0.10525 0.0
C247 C 0.08725 0.35737 0.07473 0.0
H248 H 0.18645 0.29434 0.14396 0.0
H249 H 0.15856 0.38508 0.1218 0.0
S250 S 0.99717 0.24505 1.01425 0.0
N251 N 0.04354 0.21256 0.0479 0.0
N252 N 0.01285 0.31158 0.02316 0.0
C253 C 0.05824 0.30982 0.05428 0.0
C254 C 0.07478 0.25598 0.06801 0.0
C255 C 0.58277 0.22127 0.86535 0.0
C256 C 0.6036 0.26616 0.89978 0.0
C257 C 0.55263 0.17794 0.88783 0.0
C258 C 0.54329 0.17808 0.94544 0.0
H259 H 0.58968 0.21975 0.82075 0.0
H260 H 0.53561 0.14516 0.86003 0.0
S261 S 0.58675 0.28676 0.05317 0.0
N262 N 0.60889 0.30935 0.99371 0.0
N263 N 0.55757 0.22629 0.03654 0.0
C264 C 0.56492 0.22219 0.98025 0.0
C265 C 0.59348 0.26676 0.9573 0.0
C266 C 0.94363 0.75976 0.38967 0.0
C267 C 0.92513 0.72847 0.434 0.0
C268 C 0.95902 0.81484 0.3978 0.0
C269 C 0.95402 0.84289 0.44983 0.0
H270 H 0.94246 0.74374 0.34671 0.0
H271 H 0.9702 0.83697 0.36111 0.0
S272 S 0.92435 0.77829 0.58354 0.0
N273 N 0.91688 0.72715 0.53575 0.0
N274 N 0.94095 0.83388 0.54935 0.0
C275 C 0.94186 0.81185 0.49624 0.0
C276 C 0.92803 0.75407 0.48852 0.0
C277 C 0.38837 0.74675 0.54952 0.0
C278 C 0.41964 0.79148 0.57363 0.0
C279 C 0.40996 0.69586 0.53648 0.0
C280 C 0.46339 0.68751 0.54777 0.0
H281 H 0.3461 0.74924 0.54495 0.0
H282 H 0.38354 0.66127 0.52337 0.0
S283 S 0.56414 0.79237 0.6017 0.0
N284 N 0.50898 0.82567 0.59935 0.0
N285 N 0.54822 0.72871 0.57874 0.0
C286 C 0.4959 0.73269 0.56727 0.0
C287 C 0.47435 0.78492 0.57935 0.0
C288 C 0.88649 0.92074 0.73943 0.0
C289 C 0.91322 0.91765 0.79188 0.0
C290 C 0.91223 0.94182 0.69243 0.0
C291 C 0.96541 0.96106 0.69652 0.0
H292 H 0.84561 0.90657 0.73468 0.0
H293 H 0.89004 0.94436 0.65325 0.0
S294 S 0.0526 0.96085 0.82498 0.0
N295 N 0.99533 0.93554 0.84488 0.0
N296 N 0.04389 0.97325 0.75799 0.0
C297 C 0.99236 0.95703 0.74889 0.0
C298 C 0.96626 0.936 0.79611 0.0
C299 C 0.60133 0.05582 0.2738 0.0
C300 C 0.60023 0.10889 0.30013 0.0
C301 C 0.58642 0.04617 0.2165 0.0
C302 C 0.57042 0.08941 0.18338 0.0
H303 H 0.61393 0.02154 0.29764 0.0
H304 H 0.58816 1.00495 0.19794 0.0
S305 S 0.56013 0.23624 0.23266 0.0
N306 N 0.583 0.2052 0.28772 0.0
N307 N 0.55201 0.18735 0.18307 0.0
C308 C 0.56832 0.14249 0.20997 0.0
C309 C 0.58404 0.15217 0.26738 0.0
C310 C 0.42144 0.64874 0.33411 0.0
C311 C 0.39152 0.62164 0.2893 0.0
C312 C 0.4494 0.61911 0.37383 0.0
C313 C 0.44638 0.56139 0.37189 0.0
H314 H 0.42576 0.6932 0.3371 0.0
H315 H 0.4764 0.64135 0.40352 0.0
S316 S 0.36996 0.46927 0.26944 0.0
N317 N 0.36001 0.53183 0.24854 0.0
N318 N 0.40708 0.478 0.32716 0.0
C319 C 0.41226 0.53393 0.33184 0.0
C320 C 0.38625 0.56345 0.28952 0.0
C321 C 0.12879 0.48533 0.77557 0.0
C322 C 0.11936 0.42968 0.75881 0.0
C323 C 0.1089 0.50654 0.82561 0.0
C324 C 0.07833 0.4731 0.86004 0.0
H325 H 0.14756 0.51371 0.74774 0.0
H326 H 0.11173 0.55076 0.83372 0.0
S327 S 0.05354 0.32252 0.84211 0.0
N328 N 0.08714 0.33932 0.78664 0.0
N329 N 0.04742 0.38048 0.8794 0.0
C330 C 0.07428 0.41642 0.84748 0.0
C331 C 0.09505 0.39445 0.79685 0.0
C332 C 0.73899 0.87696 0.9623 0.0
C333 C 0.77241 0.91704 0.93961 0.0
C334 C 0.69031 0.88953 0.98319 0.0
C335 C 0.66997 0.94266 0.98051 0.0
H336 H 0.74967 0.83437 0.96283 0.0
H337 H 0.66752 0.85552 0.99962 0.0
S338 S 0.74388 0.06518 0.93078 0.0
N339 N 0.78437 0.0145 0.92119 0.0
N340 N 0.69001 0.03744 0.95713 0.0
C341 C 0.70343 0.98421 0.95964 0.0
C342 C 0.75478 0.9715 0.93953 0.0
C343 C 0.76831 0.10225 0.49374 0.0
C344 C 0.74964 0.11449 0.43955 0.0
C345 C 0.82094 0.08832 0.50369 0.0
C346 C 0.85659 0.0865 0.45977 0.0
H347 H 0.74154 0.10102 0.52814 0.0
H348 H 0.83281 0.07593 0.54511 0.0
S349 S 0.8297 0.12382 0.3122 0.0
N350 N 0.77326 0.13083 0.34329 0.0
N351 N 0.87087 0.10436 0.36145 0.0
C352 C 0.83919 0.10264 0.40641 0.0
C353 C 0.78611 0.11658 0.39639 0.0
C354 C 0.2276 0.67021 0.10341 0.0
C355 C 0.26506 0.63438 0.124 0.0
C356 C 0.1791 0.64987 0.07995 0.0
C357 C 0.16693 0.59312 0.07547 0.0
H358 H 0.23387 0.71438 0.10959 0.0
H359 H 0.14921 0.67873 0.0702 0.0
S360 S 0.25376 0.48163 0.11483 0.0
N361 N 0.28889 0.53898 0.13145 0.0
N362 N 0.19741 0.50115 0.08773 0.0
C363 C 0.2058 0.55679 0.09065 0.0
C364 C 0.25493 0.57731 0.11505 0.0
C365 C 0.27925 0.38824 0.58616 0.0
C366 C 0.23837 0.42415 0.5965 0.0
C367 C 0.32958 0.40884 0.57225 0.0
C368 C 0.33995 0.46573 0.56792 0.0
H369 H 0.27332 0.34464 0.59269 0.0
H370 H 0.36135 0.38073 0.56929 0.0
S371 S 0.24426 0.57543 0.5827 0.0
N372 N 0.2101 0.51816 0.59512 0.0
N373 N 0.30427 0.55659 0.56897 0.0
C374 C 0.29824 0.50118 0.57363 0.0
C375 C 0.24748 0.48046 0.58796 0.0
C376 C 0.88972 0.74376 0.97201 0.0
C377 C 0.92051 0.78676 0.94946 0.0
C378 C 0.91253 0.69582 0.99109 0.0
C379 C 0.96703 0.6889 0.98843 0.0
H380 H 0.84724 0.74536 0.97138 0.0
H381 H 0.88676 0.66187 1.00287 0.0
S382 S 0.0661 0.79155 0.94065 0.0
N383 N 0.00951 0.82151 0.9327 0.0
N384 N 0.05159 0.73083 0.96614 0.0
C385 C 0.99853 0.73307 0.96991 0.0
C386 C 0.97554 0.78197 0.95094 0.0
C387 C 0.37244 0.82303 0.14 0.0
C388 C 0.40517 0.78172 0.15898 0.0
C389 C 0.39253 0.86685 0.10948 0.0
C390 C 0.44623 0.87174 0.09852 0.0
H391 H 0.33023 0.8188 0.14449 0.0
H392 H 0.3652 0.89334 0.08933 0.0
S393 S 0.54985 0.77983 0.14544 0.0
N394 N 0.49483 0.75192 0.16883 0.0
N395 N 0.53289 0.83644 0.11498 0.0
C396 C 0.48029 0.83516 0.12385 0.0
C397 C 0.4597 0.78931 0.153 0.0
C398 C 0.03164 0.27701 0.62773 0.0
C399 C 0.0697 0.30251 0.59371 0.0
C400 C 0.01198 0.22313 0.61606 0.0
C401 C 0.03184 0.19097 0.57228 0.0
H402 H 0.02008 0.29502 0.66717 0.0
H403 H 0.9886 0.20359 0.64759 0.0
S404 S 0.11031 0.24307 0.45639 0.0
N405 N 0.10634 0.2969 0.50005 0.0
N406 N 0.07783 0.19183 0.48523 0.0
C407 C 0.06119 0.21803 0.5323 0.0
C408 C 0.07841 0.27459 0.5417 0.0
C409 C 0.53676 0.23482 0.46894 0.0
C410 C 0.59184 0.22929 0.47405 0.0
C411 C 0.51397 0.28577 0.47831 0.0
C412 C 0.54461 0.33261 0.49687 0.0
H413 H 0.51109 0.20053 0.45357 0.0
H414 H 0.47267 0.28936 0.4673 0.0
S415 S 0.68704 0.33867 0.53371 0.0
N416 N 0.67468 0.27513 0.50863 0.0
N417 N 0.63017 0.36869 0.5313 0.0
C418 C 0.5979 0.32625 0.5105 0.0
C419 C 0.62191 0.27509 0.49832 0.0
loop_
_geom_bond_atom_site_label_1
_geom_bond_atom_site_label_2
_geom_bond_distance
_geom_bond_site_symmetry_2
_ccdc_geom_bond_type
H0 C3 0.931 . S
H1 C6 0.928 . S
H2 C8 0.930 . S
C3 H0 0.931 . S
C3 C4 1.413 . S
C3 C5 1.360 . S
C4 C3 1.413 . S
C4 C8 1.429 . S
C5 C3 1.360 . S
C5 C6 1.372 . S
C6 H1 0.928 . S
C6 C5 1.372 . S
C6 C7 1.404 . S
C7 C6 1.404 . S
C7 C8 1.391 . S
C8 H2 0.930 . S
C8 C4 1.429 . S
C8 C7 1.391 . S
H9 C12 0.931 . S
H10 C15 0.928 . S
H11 C17 0.930 . S
C12 H9 0.931 . S
C12 C13 1.413 . S
C12 C14 1.360 . S
C13 C12 1.413 . S
C13 C17 1.429 . S
C14 C12 1.360 . S
C14 C15 1.372 . S
C15 H10 0.928 . S
C15 C14 1.372 . S
C15 C16 1.404 . S
C16 C15 1.404 . S
C16 C17 1.391 . S
C17 H11 0.930 . S
C17 C13 1.429 . S
C17 C16 1.391 . S
H18 C21 0.931 . S
H19 C24 0.928 . S
H20 C26 0.930 . S
C21 H18 0.931 . S
C21 C22 1.413 . S
C21 C23 1.360 . S
C22 C21 1.413 . S
C22 C26 1.429 . S
C23 C21 1.360 . S
C23 C24 1.372 . S
C24 H19 0.928 . S
C24 C23 1.372 . S
C24 C25 1.404 . S
C25 C24 1.404 . S
C25 C26 1.391 . S
C26 H20 0.930 . S
C26 C22 1.429 . S
C26 C25 1.391 . S
H27 C30 0.931 . S
H28 C33 0.928 . S
H29 C35 0.930 . S
C30 H27 0.931 . S
C30 C31 1.413 . S
C30 C32 1.360 . S
C31 C30 1.413 . S
C31 C35 1.429 . S
C32 C30 1.360 . S
C32 C33 1.372 . S
C33 H28 0.928 . S
C33 C32 1.372 . S
C33 C34 1.404 . S
C34 C33 1.404 . S
C34 C35 1.391 . S
C35 H29 0.930 . S
C35 C31 1.429 . S
C35 C34 1.391 . S
H36 C39 0.931 . S
H37 C42 0.928 . S
H38 C44 0.930 . S
C39 H36 0.931 . S
C39 C40 1.413 . S
C39 C41 1.360 . S
C40 C39 1.413 . S
C40 C44 1.429 . S
C41 C39 1.360 . S
C41 C42 1.372 . S
C42 H37 0.928 . S
C42 C41 1.372 . S
C42 C43 1.404 . S
C43 C42 1.404 . S
C43 C44 1.391 . S
C44 H38 0.930 . S
C44 C40 1.429 . S
C44 C43 1.391 . S
H45 C48 0.931 . S
H46 C51 0.928 . S
H47 C53 0.930 . S
C48 H45 0.931 . S
C48 C49 1.413 . S
C48 C50 1.360 . S
C49 C48 1.413 . S
C49 C53 1.429 . S
C50 C48 1.360 . S
C50 C51 1.372 . S
C51 H46 0.928 . S
C51 C50 1.372 . S
C51 C52 1.404 . S
C52 C51 1.404 . S
C52 C53 1.391 . S
C53 H47 0.930 . S
C53 C49 1.429 . S
C53 C52 1.391 . S
H54 C57 0.931 . S
H55 C60 0.928 . S
H56 C62 0.930 . S
C57 H54 0.931 . S
C57 C58 1.413 . S
C57 C59 1.360 . S
C58 C57 1.413 . S
C58 C62 1.429 . S
C59 C57 1.360 . S
C59 C60 1.372 . S
C60 H55 0.928 . S
C60 C59 1.372 . S
C60 C61 1.404 . S
C61 C60 1.404 . S
C61 C62 1.391 . S
C62 H56 0.930 . S
C62 C58 1.429 . S
C62 C61 1.391 . S
H63 C66 0.931 . S
H64 C69 0.928 . S
H65 C71 0.930 . S
C66 H63 0.931 . S
C66 C67 1.413 . S
C66 C68 1.360 . S
C67 C66 1.413 . S
C67 C71 1.429 . S
C68 C66 1.360 . S
C68 C69 1.372 . S
C69 H64 0.928 . S
C69 C68 1.372 . S
C69 C70 1.404 . S
C70 C69 1.404 . S
C70 C71 1.391 . S
C71 H65 0.930 . S
C71 C67 1.429 . S
C71 C70 1.391 . S
O72 Mn73 2.163 1_655 S
O72 C86 1.244 . S
Mn73 O72 2.163 1_455 S
Mn73 O76 2.160 1_545 S
Mn73 O77 2.221 . S
Mn73 O79 2.163 1_445 S
Mn73 O81 2.160 . S
Mn73 O91 2.221 1_445 S
O74 Mn75 2.087 1_545 S
O74 C86 1.256 . S
Mn75 O74 2.087 1_565 S
Mn75 O82 2.089 1_565 S
Mn75 O91 2.290 . S
Mn75 O92 2.251 . S
O76 Mn73 2.160 1_565 S
O76 C87 1.239 . S
O77 Mn73 2.221 . S
O77 Mn78 2.290 . S
O77 C88 1.278 . S
Mn78 O77 2.290 . S
Mn78 O80 2.089 1_545 S
Mn78 O83 2.251 . S
Mn78 O84 2.087 . S
O79 Mn73 2.163 1_665 S
O79 C89 1.244 . S
O80 Mn78 2.089 1_565 S
O80 C87 1.256 . S
O81 Mn73 2.160 . S
O81 C90 1.239 . S
O82 Mn75 2.089 1_545 S
O82 C90 1.256 1_655 S
O83 Mn78 2.251 . S
O83 C88 1.241 . S
O84 Mn78 2.087 . S
O84 C89 1.256 1_445 S
C85 O91 1.278 . S
C85 O92 1.241 . S
C86 O72 1.244 . S
C86 O74 1.256 . S
C87 O76 1.239 . S
C87 O80 1.256 . S
C88 O77 1.278 . S
C88 O83 1.241 . S
C89 O79 1.244 . S
C89 O84 1.256 1_665 S
C90 O81 1.239 . S
C90 O82 1.256 1_455 S
O91 Mn73 2.221 1_665 S
O91 Mn75 2.290 . S
O91 C85 1.278 . S
O92 Mn75 2.251 . S
O92 C85 1.241 . S
O93 Mn94 2.163 1_556 S
O93 C107 1.244 1_545 S
Mn94 O93 2.163 1_554 S
Mn94 O97 2.160 . S
Mn94 O98 2.221 1_554 S
Mn94 O100 2.163 . S
Mn94 O102 2.160 1_544 S
Mn94 O112 2.221 1_545 S
O95 Mn96 2.087 . S
O95 C107 1.256 . S
Mn96 O95 2.087 . S
Mn96 O103 2.089 . S
Mn96 O112 2.290 1_556 S
Mn96 O113 2.253 . S
O97 Mn94 2.160 . S
O97 C108 1.239 . S
O98 Mn94 2.221 1_556 S
O98 Mn99 2.290 1_556 S
O98 C109 1.278 . S
Mn99 O98 2.290 1_554 S
Mn99 O101 2.089 . S
Mn99 O104 2.251 1_554 S
Mn99 O105 2.087 . S
O100 Mn94 2.163 . S
O100 C110 1.244 . S
O101 Mn99 2.089 . S
O101 C108 1.256 . S
O102 Mn94 2.160 1_566 S
O102 C111 1.239 . S
O103 Mn96 2.089 . S
O103 C111 1.256 . S
O104 Mn99 2.251 1_556 S
O104 C109 1.241 . S
O105 Mn99 2.087 . S
O105 C110 1.256 . S
C106 O112 1.278 . S
C106 O113 1.238 1_554 S
C107 O93 1.244 1_565 S
C107 O95 1.256 . S
C108 O97 1.239 . S
C108 O101 1.256 . S
C109 O98 1.278 . S
C109 O104 1.241 . S
C110 O100 1.244 . S
C110 O105 1.256 . S
C111 O102 1.239 . S
C111 O103 1.256 . S
O112 Mn94 2.221 1_565 S
O112 Mn96 2.290 1_554 S
O112 C106 1.278 . S
O113 Mn96 2.253 . S
O113 C106 1.238 1_556 S
O114 Mn115 2.163 . S
O114 C128 1.244 . S
Mn115 O114 2.163 . S
Mn115 O118 2.160 . S
Mn115 O119 2.221 . S
Mn115 O121 2.163 . S
Mn115 O123 2.160 . S
Mn115 O133 2.221 . S
O116 Mn117 2.087 . S
O116 C128 1.256 . S
Mn117 O116 2.087 . S
Mn117 O124 2.089 . S
Mn117 O133 2.290 . S
Mn117 O134 2.251 . S
O118 Mn115 2.160 . S
O118 C129 1.239 . S
O119 Mn115 2.221 . S
O119 Mn120 2.290 . S
O119 C130 1.278 . S
Mn120 O119 2.290 . S
Mn120 O122 2.089 . S
Mn120 O125 2.251 . S
Mn120 O126 2.087 . S
O121 Mn115 2.163 . S
O121 C131 1.244 . S
O122 Mn120 2.089 . S
O122 C129 1.256 . S
O123 Mn115 2.160 . S
O123 C132 1.239 . S
O124 Mn117 2.089 . S
O124 C132 1.256 . S
O125 Mn120 2.251 . S
O125 C130 1.241 . S
O126 Mn120 2.087 . S
O126 C131 1.256 . S
C127 O133 1.278 . S
C127 O134 1.241 . S
C128 O114 1.244 . S
C128 O116 1.256 . S
C129 O118 1.239 . S
C129 O122 1.256 . S
C130 O119 1.278 . S
C130 O125 1.241 . S
C131 O121 1.244 . S
C131 O126 1.256 . S
C132 O123 1.239 . S
C132 O124 1.256 . S
O133 Mn115 2.221 . S
O133 Mn117 2.290 . S
O133 C127 1.278 . S
O134 Mn117 2.251 . S
O134 C127 1.241 . S
O135 Mn136 2.163 1_655 S
O135 C149 1.236 1_554 S
Mn136 O135 2.163 1_455 S
Mn136 O139 2.160 . S
Mn136 O140 2.221 1_455 S
Mn136 O142 2.163 . S
Mn136 O144 2.160 1_454 S
Mn136 O154 2.221 1_554 S
O137 Mn138 2.087 . S
O137 C149 1.256 . S
Mn138 O137 2.087 . S
Mn138 O145 2.089 . S
Mn138 O154 2.290 1_655 S
Mn138 O155 2.264 . S
O139 Mn136 2.160 . S
O139 C150 1.239 . S
O140 Mn136 2.221 1_655 S
O140 Mn141 2.290 1_655 S
O140 C151 1.278 . S
Mn141 O140 2.290 1_455 S
Mn141 O143 2.089 . S
Mn141 O146 2.251 1_455 S
Mn141 O147 2.087 . S
O142 Mn136 2.163 . S
O142 C152 1.244 . S
O143 Mn141 2.089 . S
O143 C150 1.256 . S
O144 Mn136 2.160 1_656 S
O144 C153 1.239 . S
O145 Mn138 2.089 . S
O145 C153 1.256 . S
O146 Mn141 2.251 1_655 S
O146 C151 1.241 . S
O147 Mn141 2.087 . S
O147 C152 1.256 . S
C148 O154 1.278 . S
C148 O155 1.227 1_455 S
C149 O135 1.236 1_556 S
C149 O137 1.256 . S
C150 O139 1.239 . S
C150 O143 1.256 . S
C151 O140 1.278 . S
C151 O146 1.241 . S
C152 O142 1.244 . S
C152 O147 1.256 . S
C153 O144 1.239 . S
C153 O145 1.256 . S
O154 Mn136 2.221 1_556 S
O154 Mn138 2.290 1_455 S
O154 C148 1.278 . S
O155 Mn138 2.264 . S
O155 C148 1.227 1_655 S
C156 C157 1.369 . S
C156 C158 1.419 . S
C156 H160 0.930 . S
C157 C156 1.369 . S
C157 C166 1.429 . S
C158 C156 1.419 . S
C158 C159 1.363 . S
C158 H161 0.929 . S
C159 C158 1.363 . S
C159 C165 1.428 . S
H160 C156 0.930 . S
H161 C158 0.929 . S
S162 N163 1.609 1_655 S
S162 N164 1.609 1_655 S
N163 S162 1.609 1_455 S
N163 C166 1.350 . S
N164 S162 1.609 1_455 S
N164 C165 1.351 . S
C165 C159 1.428 . S
C165 N164 1.351 . S
C165 C166 1.434 . S
C166 C157 1.429 . S
C166 N163 1.350 . S
C166 C165 1.434 . S
C167 C168 1.369 . S
C167 C169 1.419 . S
C167 H171 0.930 1_565 S
C168 C167 1.369 . S
C168 C177 1.429 . S
C169 C167 1.419 . S
C169 C170 1.363 . S
C169 H172 0.929 1_565 S
C170 C169 1.363 . S
C170 C176 1.428 . S
H171 C167 0.930 1_545 S
H172 C169 0.929 1_545 S
S173 N174 1.613 . S
S173 N175 1.610 . S
N174 S173 1.613 . S
N174 C177 1.350 . S
N175 S173 1.610 . S
N175 C176 1.351 . S
C176 C170 1.428 . S
C176 N175 1.351 . S
C176 C177 1.434 . S
C177 C168 1.429 . S
C177 N174 1.350 . S
C177 C176 1.434 . S
C178 C179 1.369 . S
C178 C180 1.419 . S
C178 H182 0.930 . S
C179 C178 1.369 . S
C179 C188 1.429 . S
C180 C178 1.419 . S
C180 C181 1.363 . S
C180 H183 0.929 . S
C181 C180 1.363 . S
C181 C187 1.428 . S
H182 C178 0.930 . S
H183 C180 0.929 . S
S184 N185 1.613 . S
S184 N186 1.610 . S
N185 S184 1.613 . S
N185 C188 1.350 . S
N186 S184 1.610 . S
N186 C187 1.351 . S
C187 C181 1.428 . S
C187 N186 1.351 . S
C187 C188 1.434 . S
C188 C179 1.429 . S
C188 N185 1.350 . S
C188 C187 1.434 . S
C189 C190 1.369 . S
C189 C191 1.419 . S
C189 H193 0.930 . S
C190 C189 1.369 . S
C190 C199 1.429 . S
C191 C189 1.419 . S
C191 C192 1.363 . S
C191 H194 0.929 . S
C192 C191 1.363 . S
C192 C198 1.428 . S
H193 C189 0.930 . S
H194 C191 0.929 . S
S195 N196 1.613 . S
S195 N197 1.610 . S
N196 S195 1.613 . S
N196 C199 1.350 . S
N197 S195 1.610 . S
N197 C198 1.351 . S
C198 C192 1.428 . S
C198 N197 1.351 . S
C198 C199 1.434 . S
C199 C190 1.429 . S
C199 N196 1.350 . S
C199 C198 1.434 . S
C200 C201 1.369 . S
C200 C202 1.419 . S
C200 H204 0.930 . S
C201 C200 1.369 . S
C201 C210 1.429 . S
C202 C200 1.419 . S
C202 C203 1.363 . S
C202 H205 0.929 1_554 S
C203 C202 1.363 . S
C203 C209 1.428 . S
H204 C200 0.930 . S
H205 C202 0.929 1_556 S
S206 N207 1.613 . S
S206 N208 1.610 . S
N207 S206 1.613 . S
N207 C210 1.350 . S
N208 S206 1.610 . S
N208 C209 1.351 . S
C209 C203 1.428 . S
C209 N208 1.351 . S
C209 C210 1.434 . S
C210 C201 1.429 . S
C210 N207 1.350 . S
C210 C209 1.434 . S
C211 C212 1.369 . S
C211 C213 1.419 . S
C211 H215 0.930 . S
C212 C211 1.369 . S
C212 C221 1.429 . S
C213 C211 1.419 . S
C213 C214 1.363 . S
C213 H216 0.929 . S
C214 C213 1.363 . S
C214 C220 1.428 . S
H215 C211 0.930 . S
H216 C213 0.929 . S
S217 N218 1.613 . S
S217 N219 1.610 . S
N218 S217 1.613 . S
N218 C221 1.350 . S
N219 S217 1.610 . S
N219 C220 1.351 . S
C220 C214 1.428 . S
C220 N219 1.351 . S
C220 C221 1.434 . S
C221 C212 1.429 . S
C221 N218 1.350 . S
C221 C220 1.434 . S
C222 C223 1.369 . S
C222 C224 1.419 . S
C222 H226 0.930 . S
C223 C222 1.369 . S
C223 C232 1.429 . S
C224 C222 1.419 . S
C224 C225 1.363 . S
C224 H227 0.929 . S
C225 C224 1.363 . S
C225 C231 1.428 . S
H226 C222 0.930 . S
H227 C224 0.929 . S
S228 N229 1.613 1_554 S
S228 N230 1.610 . S
N229 S228 1.613 1_556 S
N229 C232 1.350 . S
N230 S228 1.610 . S
N230 C231 1.351 1_554 S
C231 C225 1.428 . S
C231 N230 1.351 1_556 S
C231 C232 1.434 . S
C232 C223 1.429 . S
C232 N229 1.350 . S
C232 C231 1.434 . S
C233 C234 1.369 . S
C233 C235 1.419 . S
C233 H237 0.930 . S
C234 C233 1.369 . S
C234 C243 1.429 . S
C235 C233 1.419 . S
C235 C236 1.363 . S
C235 H238 0.929 . S
C236 C235 1.363 . S
C236 C242 1.428 . S
H237 C233 0.930 . S
H238 C235 0.929 . S
S239 N240 1.613 . S
S239 N241 1.610 . S
N240 S239 1.613 . S
N240 C243 1.350 . S
N241 S239 1.610 . S
N241 C242 1.351 . S
C242 C236 1.428 . S
C242 N241 1.351 . S
C242 C243 1.434 . S
C243 C234 1.429 . S
C243 N240 1.350 . S
C243 C242 1.434 . S
C244 C245 1.369 . S
C244 C246 1.419 . S
C244 H248 0.930 . S
C245 C244 1.369 . S
C245 C254 1.429 . S
C246 C244 1.419 . S
C246 C247 1.363 . S
C246 H249 0.929 . S
C247 C246 1.363 . S
C247 C253 1.428 . S
H248 C244 0.930 . S
H249 C246 0.929 . S
S250 N251 1.613 1_556 S
S250 N252 1.610 . S
N251 S250 1.613 1_554 S
N251 C254 1.350 . S
N252 S250 1.610 . S
N252 C253 1.351 1_556 S
C253 C247 1.428 . S
C253 N252 1.351 1_554 S
C253 C254 1.434 . S
C254 C245 1.429 . S
C254 N251 1.350 . S
C254 C253 1.434 . S
C255 C256 1.369 . S
C255 C257 1.419 . S
C255 H259 0.930 . S
C256 C255 1.369 . S
C256 C265 1.429 . S
C257 C255 1.419 . S
C257 C258 1.363 . S
C257 H260 0.929 . S
C258 C257 1.363 . S
C258 C264 1.428 . S
H259 C255 0.930 . S
H260 C257 0.929 . S
S261 N262 1.613 . S
S261 N263 1.610 . S
N262 S261 1.613 . S
N262 C265 1.350 1_554 S
N263 S261 1.610 . S
N263 C264 1.351 1_554 S
C264 C258 1.428 . S
C264 N263 1.351 1_556 S
C264 C265 1.434 . S
C265 C256 1.429 . S
C265 N262 1.350 1_556 S
C265 C264 1.434 . S
C266 C267 1.369 . S
C266 C268 1.419 . S
C266 H270 0.930 . S
C267 C266 1.369 . S
C267 C276 1.429 . S
C268 C266 1.419 . S
C268 C269 1.363 . S
C268 H271 0.929 . S
C269 C268 1.363 . S
C269 C275 1.428 . S
H270 C266 0.930 . S
H271 C268 0.929 . S
S272 N273 1.613 . S
S272 N274 1.610 . S
N273 S272 1.613 . S
N273 C276 1.350 . S
N274 S272 1.610 . S
N274 C275 1.351 . S
C275 C269 1.428 . S
C275 N274 1.351 . S
C275 C276 1.434 . S
C276 C267 1.429 . S
C276 N273 1.350 . S
C276 C275 1.434 . S
C277 C278 1.369 . S
C277 C279 1.419 . S
C277 H281 0.930 . S
C278 C277 1.369 . S
C278 C287 1.429 . S
C279 C277 1.419 . S
C279 C280 1.363 . S
C279 H282 0.929 . S
C280 C279 1.363 . S
C280 C286 1.428 . S
H281 C277 0.930 . S
H282 C279 0.929 . S
S283 N284 1.613 . S
S283 N285 1.610 . S
N284 S283 1.613 . S
N284 C287 1.350 . S
N285 S283 1.610 . S
N285 C286 1.351 . S
C286 C280 1.428 . S
C286 N285 1.351 . S
C286 C287 1.434 . S
C287 C278 1.429 . S
C287 N284 1.350 . S
C287 C286 1.434 . S
C288 C289 1.369 . S
C288 C290 1.419 . S
C288 H292 0.930 . S
C289 C288 1.369 . S
C289 C298 1.429 . S
C290 C288 1.419 . S
C290 C291 1.363 . S
C290 H293 0.929 . S
C291 C290 1.363 . S
C291 C297 1.428 . S
H292 C288 0.930 . S
H293 C290 0.929 . S
S294 N295 1.613 1_545 S
S294 N296 1.609 1_545 S
N295 S294 1.613 1_565 S
N295 C298 1.350 1_455 S
N296 S294 1.609 1_565 S
N296 C297 1.354 1_455 S
C297 C291 1.428 . S
C297 N296 1.354 1_655 S
C297 C298 1.434 . S
C298 C289 1.429 . S
C298 N295 1.350 1_655 S
C298 C297 1.434 . S
C299 C300 1.369 . S
C299 C301 1.419 . S
C299 H303 0.930 . S
C300 C299 1.369 . S
C300 C309 1.429 . S
C301 C299 1.419 . S
C301 C302 1.363 . S
C301 H304 0.918 1_545 S
C302 C301 1.363 . S
C302 C308 1.428 . S
H303 C299 0.930 . S
H304 C301 0.918 1_565 S
S305 N306 1.613 . S
S305 N307 1.610 . S
N306 S305 1.613 . S
N306 C309 1.350 . S
N307 S305 1.610 . S
N307 C308 1.351 . S
C308 C302 1.428 . S
C308 N307 1.351 . S
C308 C309 1.434 . S
C309 C300 1.429 . S
C309 N306 1.350 . S
C309 C308 1.434 . S
C310 C311 1.369 . S
C310 C312 1.419 . S
C310 H314 0.930 . S
C311 C310 1.369 . S
C311 C320 1.429 . S
C312 C310 1.419 . S
C312 C313 1.363 . S
C312 H315 0.929 . S
C313 C312 1.363 . S
C313 C319 1.428 . S
H314 C310 0.930 . S
H315 C312 0.929 . S
S316 N317 1.613 . S
S316 N318 1.610 . S
N317 S316 1.613 . S
N317 C320 1.350 . S
N318 S316 1.610 . S
N318 C319 1.351 . S
C319 C313 1.428 . S
C319 N318 1.351 . S
C319 C320 1.434 . S
C320 C311 1.429 . S
C320 N317 1.350 . S
C320 C319 1.434 . S
C321 C322 1.369 . S
C321 C323 1.419 . S
C321 H325 0.930 . S
C322 C321 1.369 . S
C322 C331 1.429 . S
C323 C321 1.419 . S
C323 C324 1.363 . S
C323 H326 0.929 . S
C324 C323 1.363 . S
C324 C330 1.428 . S
H325 C321 0.930 . S
H326 C323 0.929 . S
S327 N328 1.613 . S
S327 N329 1.610 . S
N328 S327 1.613 . S
N328 C331 1.350 . S
N329 S327 1.610 . S
N329 C330 1.351 . S
C330 C324 1.428 . S
C330 N329 1.351 . S
C330 C331 1.434 . S
C331 C322 1.429 . S
C331 N328 1.350 . S
C331 C330 1.434 . S
C332 C333 1.369 . S
C332 C334 1.419 . S
C332 H336 0.930 . S
C333 C332 1.369 . S
C333 C342 1.429 . S
C334 C332 1.419 . S
C334 C335 1.363 . S
C334 H337 0.929 . S
C335 C334 1.363 . S
C335 C341 1.428 . S
H336 C332 0.930 . S
H337 C334 0.929 . S
S338 N339 1.613 . S
S338 N340 1.610 . S
N339 S338 1.613 . S
N339 C342 1.350 1_545 S
N340 S338 1.610 . S
N340 C341 1.351 1_545 S
C341 C335 1.428 . S
C341 N340 1.351 1_565 S
C341 C342 1.434 . S
C342 C333 1.429 . S
C342 N339 1.350 1_565 S
C342 C341 1.434 . S
C343 C344 1.369 . S
C343 C345 1.419 . S
C343 H347 0.930 . S
C344 C343 1.369 . S
C344 C353 1.429 . S
C345 C343 1.419 . S
C345 C346 1.363 . S
C345 H348 0.929 . S
C346 C345 1.363 . S
C346 C352 1.428 . S
H347 C343 0.930 . S
H348 C345 0.929 . S
S349 N350 1.613 1_565 S
S349 N351 1.610 1_565 S
N350 S349 1.613 1_545 S
N350 C353 1.350 . S
N351 S349 1.610 1_545 S
N351 C352 1.351 . S
C352 C346 1.428 . S
C352 N351 1.351 . S
C352 C353 1.434 . S
C353 C344 1.429 . S
C353 N350 1.350 . S
C353 C352 1.434 . S
C354 C355 1.369 . S
C354 C356 1.419 . S
C354 H358 0.930 . S
C355 C354 1.369 . S
C355 C364 1.429 . S
C356 C354 1.419 . S
C356 C357 1.363 . S
C356 H359 0.929 . S
C357 C356 1.363 . S
C357 C363 1.428 . S
H358 C354 0.930 . S
H359 C356 0.929 . S
S360 N361 1.613 . S
S360 N362 1.610 . S
N361 S360 1.613 . S
N361 C364 1.350 . S
N362 S360 1.610 . S
N362 C363 1.351 . S
C363 C357 1.428 . S
C363 N362 1.351 . S
C363 C364 1.434 . S
C364 C355 1.429 . S
C364 N361 1.350 . S
C364 C363 1.434 . S
C365 C366 1.369 . S
C365 C367 1.419 . S
C365 H369 0.930 . S
C366 C365 1.369 . S
C366 C375 1.429 . S
C367 C365 1.419 . S
C367 C368 1.363 . S
C367 H370 0.929 . S
C368 C367 1.363 . S
C368 C374 1.428 . S
H369 C365 0.930 . S
H370 C367 0.929 . S
S371 N372 1.613 . S
S371 N373 1.610 . S
N372 S371 1.613 . S
N372 C375 1.350 . S
N373 S371 1.610 . S
N373 C374 1.351 . S
C374 C368 1.428 . S
C374 N373 1.351 . S
C374 C375 1.434 . S
C375 C366 1.429 . S
C375 N372 1.350 . S
C375 C374 1.434 . S
C376 C377 1.369 . S
C376 C378 1.419 . S
C376 H380 0.930 . S
C377 C376 1.369 . S
C377 C386 1.429 . S
C378 C376 1.419 . S
C378 C379 1.363 . S
C378 H381 0.929 . S
C379 C378 1.363 . S
C379 C385 1.428 . S
H380 C376 0.930 . S
H381 C378 0.929 . S
S382 N383 1.613 . S
S382 N384 1.610 . S
N383 S382 1.613 . S
N383 C386 1.350 1_455 S
N384 S382 1.610 . S
N384 C385 1.351 1_455 S
C385 C379 1.428 . S
C385 N384 1.351 1_655 S
C385 C386 1.434 . S
C386 C377 1.429 . S
C386 N383 1.350 1_655 S
C386 C385 1.434 . S
C387 C388 1.369 . S
C387 C389 1.419 . S
C387 H391 0.930 . S
C388 C387 1.369 . S
C388 C397 1.429 . S
C389 C387 1.419 . S
C389 C390 1.363 . S
C389 H392 0.929 . S
C390 C389 1.363 . S
C390 C396 1.428 . S
H391 C387 0.930 . S
H392 C389 0.929 . S
S393 N394 1.613 . S
S393 N395 1.610 . S
N394 S393 1.613 . S
N394 C397 1.350 . S
N395 S393 1.610 . S
N395 C396 1.351 . S
C396 C390 1.428 . S
C396 N395 1.351 . S
C396 C397 1.434 . S
C397 C388 1.429 . S
C397 N394 1.350 . S
C397 C396 1.434 . S
C398 C399 1.369 . S
C398 C400 1.419 . S
C398 H402 0.930 . S
C399 C398 1.369 . S
C399 C408 1.429 . S
C400 C398 1.419 . S
C400 C401 1.363 . S
C400 H403 0.929 . S
C401 C400 1.363 . S
C401 C407 1.428 . S
H402 C398 0.930 . S
H403 C400 0.929 . S
S404 N405 1.613 . S
S404 N406 1.610 . S
N405 S404 1.613 . S
N405 C408 1.350 . S
N406 S404 1.610 . S
N406 C407 1.351 . S
C407 C401 1.428 . S
C407 N406 1.351 . S
C407 C408 1.434 . S
C408 C399 1.429 . S
C408 N405 1.350 . S
C408 C407 1.434 . S
C409 C410 1.369 . S
C409 C411 1.419 . S
C409 H413 0.930 . S
C410 C409 1.369 . S
C410 C419 1.429 . S
C411 C409 1.419 . S
C411 C412 1.363 . S
C411 H414 0.929 . S
C412 C411 1.363 . S
C412 C418 1.428 . S
H413 C409 0.930 . S
H414 C411 0.929 . S
S415 N416 1.613 . S
S415 N417 1.610 . S
N416 S415 1.613 . S
N416 C419 1.350 . S
N417 S415 1.610 . S
N417 C418 1.351 . S
C418 C412 1.428 . S
C418 N417 1.351 . S
C418 C419 1.434 . S
C419 C410 1.429 . S
C419 N416 1.350 . S
C419 C418 1.434 . S
C157 C5 1.544 . S
C159 C90 1.509 . S
C168 C14 1.491 . S
C170 C107 1.423 . S
C181 C130 1.231 . S
C179 C25 1.485 . S
C190 C34 1.674 . S
C192 C151 1.366 . S
C203 C110 1.624 . S
C201 C7 1.663 . S
C214 C87 1.558 . S
C212 C13 1.604 . S
C225 C149 1.358 . S
C223 C23 1.432 . S
C236 C128 1.408 . S
C234 C31 1.464 . S
C245 C4 1.630 . S
C247 C152 1.584 . S
C258 C109 1.280 . S
C256 C22 1.588 . S
C267 C32 1.586 . S
C269 C85 1.410 . S
C278 C16 1.482 . S
C280 C131 1.466 . S
C291 C89 1.498 . S
C289 C41 1.559 . S
C300 C50 1.374 . S
C302 C108 1.326 . S
C311 C61 1.513 . S
C313 C127 1.277 . S
C322 C67 1.618 . S
C324 C148 1.304 . S
C333 C40 1.621 . S
C335 C111 1.590 . S
C346 C86 1.589 . S
C344 C52 1.653 . S
C357 C150 1.295 . S
C355 C59 1.367 . S
C368 C129 1.463 . S
C366 C70 1.522 . S
C377 C43 1.506 . S
C379 C153 1.467 . S
C390 C106 1.257 . S
C388 C58 1.514 . S
C401 C88 1.302 . S
C399 C68 1.474 . S
C410 C49 1.453 . S
C412 C132 1.428 . S
