# Generated by pormake.
# Topology eea, (3,6)-cn, num edge types: 1
# Building blocks:
#     Node 0, Type 0, BuildingBlock: QEWDON_clean_linker_0, # of connection points: 3
#     Node 1, Type 0, BuildingBlock: QEWDON_clean_linker_0, # of connection points: 3
#     Node 2, Type 0, BuildingBlock: QEWDON_clean_linker_0, # of connection points: 3
#     Node 3, Type 0, BuildingBlock: QEWDON_clean_linker_0, # of connection points: 3
#     Node 4, Type 0, BuildingBlock: QEWDON_clean_linker_0, # of connection points: 3
#     Node 5, Type 0, BuildingBlock: QEWDON_clean_linker_0, # of connection points: 3
#     Node 6, Type 0, BuildingBlock: QEWDON_clean_linker_0, # of connection points: 3
#     Node 7, Type 0, BuildingBlock: QEWDON_clean_linker_0, # of connection points: 3
#     Node 8, Type 0, BuildingBlock: QEWDON_clean_linker_0, # of connection points: 3
#     Node 9, Type 0, BuildingBlock: QEWDON_clean_linker_0, # of connection points: 3
#     Node 10, Type 0, BuildingBlock: QEWDON_clean_linker_0, # of connection points: 3
#     Node 11, Type 0, BuildingBlock: QEWDON_clean_linker_0, # of connection points: 3
#     Node 12, Type 0, BuildingBlock: QEWDON_clean_linker_0, # of connection points: 3
#     Node 13, Type 0, BuildingBlock: QEWDON_clean_linker_0, # of connection points: 3
#     Node 14, Type 0, BuildingBlock: QEWDON_clean_linker_0, # of connection points: 3
#     Node 15, Type 0, BuildingBlock: QEWDON_clean_linker_0, # of connection points: 3
#     Node 16, Type 0, BuildingBlock: QEWDON_clean_linker_0, # of connection points: 3
#     Node 17, Type 0, BuildingBlock: QEWDON_clean_linker_0, # of connection points: 3
#     Node 18, Type 1, BuildingBlock: KUMBUR_clean_sbu_0, # of connection points: 6
#     Node 19, Type 1, BuildingBlock: KUMBUR_clean_sbu_0, # of connection points: 6
#     Node 20, Type 1, BuildingBlock: KUMBUR_clean_sbu_0, # of connection points: 6
#     Node 21, Type 1, BuildingBlock: KUMBUR_clean_sbu_0, # of connection points: 6
#     Node 22, Type 1, BuildingBlock: KUMBUR_clean_sbu_0, # of connection points: 6
#     Node 23, Type 1, BuildingBlock: KUMBUR_clean_sbu_0, # of connection points: 6
#     Node 24, Type 1, BuildingBlock: KUMBUR_clean_sbu_0, # of connection points: 6
#     Node 25, Type 1, BuildingBlock: KUMBUR_clean_sbu_0, # of connection points: 6
#     Node 26, Type 1, BuildingBlock: KUMBUR_clean_sbu_0, # of connection points: 6
#     Edge 27, Type (0, 1), BuildingBlock: TEMPAE_clean_linker_10, # of connection points: 2
#     Edge 28, Type (0, 1), BuildingBlock: TEMPAE_clean_linker_10, # of connection points: 2
#     Edge 29, Type (0, 1), BuildingBlock: TEMPAE_clean_linker_10, # of connection points: 2
#     Edge 30, Type (0, 1), BuildingBlock: TEMPAE_clean_linker_10, # of connection points: 2
#     Edge 31, Type (0, 1), BuildingBlock: TEMPAE_clean_linker_10, # of connection points: 2
#     Edge 32, Type (0, 1), BuildingBlock: TEMPAE_clean_linker_10, # of connection points: 2
#     Edge 33, Type (0, 1), BuildingBlock: TEMPAE_clean_linker_10, # of connection points: 2
#     Edge 34, Type (0, 1), BuildingBlock: TEMPAE_clean_linker_10, # of connection points: 2
#     Edge 35, Type (0, 1), BuildingBlock: TEMPAE_clean_linker_10, # of connection points: 2
#     Edge 36, Type (0, 1), BuildingBlock: TEMPAE_clean_linker_10, # of connection points: 2
#     Edge 37, Type (0, 1), BuildingBlock: TEMPAE_clean_linker_10, # of connection points: 2
#     Edge 38, Type (0, 1), BuildingBlock: TEMPAE_clean_linker_10, # of connection points: 2
#     Edge 39, Type (0, 1), BuildingBlock: TEMPAE_clean_linker_10, # of connection points: 2
#     Edge 40, Type (0, 1), BuildingBlock: TEMPAE_clean_linker_10, # of connection points: 2
#     Edge 41, Type (0, 1), BuildingBlock: TEMPAE_clean_linker_10, # of connection points: 2
#     Edge 42, Type (0, 1), BuildingBlock: TEMPAE_clean_linker_10, # of connection points: 2
#     Edge 43, Type (0, 1), BuildingBlock: TEMPAE_clean_linker_10, # of connection points: 2
#     Edge 44, Type (0, 1), BuildingBlock: TEMPAE_clean_linker_10, # of connection points: 2
#     Edge 45, Type (0, 1), BuildingBlock: TEMPAE_clean_linker_10, # of connection points: 2
#     Edge 46, Type (0, 1), BuildingBlock: TEMPAE_clean_linker_10, # of connection points: 2
#     Edge 47, Type (0, 1), BuildingBlock: TEMPAE_clean_linker_10, # of connection points: 2
#     Edge 48, Type (0, 1), BuildingBlock: TEMPAE_clean_linker_10, # of connection points: 2
#     Edge 49, Type (0, 1), BuildingBlock: TEMPAE_clean_linker_10, # of connection points: 2
#     Edge 50, Type (0, 1), BuildingBlock: TEMPAE_clean_linker_10, # of connection points: 2
#     Edge 51, Type (0, 1), BuildingBlock: TEMPAE_clean_linker_10, # of connection points: 2
#     Edge 52, Type (0, 1), BuildingBlock: TEMPAE_clean_linker_10, # of connection points: 2
#     Edge 53, Type (0, 1), BuildingBlock: TEMPAE_clean_linker_10, # of connection points: 2
#     Edge 54, Type (0, 1), BuildingBlock: TEMPAE_clean_linker_10, # of connection points: 2
#     Edge 55, Type (0, 1), BuildingBlock: TEMPAE_clean_linker_10, # of connection points: 2
#     Edge 56, Type (0, 1), BuildingBlock: TEMPAE_clean_linker_10, # of connection points: 2
#     Edge 57, Type (0, 1), BuildingBlock: TEMPAE_clean_linker_10, # of connection points: 2
#     Edge 58, Type (0, 1), BuildingBlock: TEMPAE_clean_linker_10, # of connection points: 2
#     Edge 59, Type (0, 1), BuildingBlock: TEMPAE_clean_linker_10, # of connection points: 2
#     Edge 60, Type (0, 1), BuildingBlock: TEMPAE_clean_linker_10, # of connection points: 2
#     Edge 61, Type (0, 1), BuildingBlock: TEMPAE_clean_linker_10, # of connection points: 2
#     Edge 62, Type (0, 1), BuildingBlock: TEMPAE_clean_linker_10, # of connection points: 2
#     Edge 63, Type (0, 1), BuildingBlock: TEMPAE_clean_linker_10, # of connection points: 2
#     Edge 64, Type (0, 1), BuildingBlock: TEMPAE_clean_linker_10, # of connection points: 2
#     Edge 65, Type (0, 1), BuildingBlock: TEMPAE_clean_linker_10, # of connection points: 2
#     Edge 66, Type (0, 1), BuildingBlock: TEMPAE_clean_linker_10, # of connection points: 2
#     Edge 67, Type (0, 1), BuildingBlock: TEMPAE_clean_linker_10, # of connection points: 2
#     Edge 68, Type (0, 1), BuildingBlock: TEMPAE_clean_linker_10, # of connection points: 2
#     Edge 69, Type (0, 1), BuildingBlock: TEMPAE_clean_linker_10, # of connection points: 2
#     Edge 70, Type (0, 1), BuildingBlock: TEMPAE_clean_linker_10, # of connection points: 2
#     Edge 71, Type (0, 1), BuildingBlock: TEMPAE_clean_linker_10, # of connection points: 2
#     Edge 72, Type (0, 1), BuildingBlock: TEMPAE_clean_linker_10, # of connection points: 2
#     Edge 73, Type (0, 1), BuildingBlock: TEMPAE_clean_linker_10, # of connection points: 2
#     Edge 74, Type (0, 1), BuildingBlock: TEMPAE_clean_linker_10, # of connection points: 2
#     Edge 75, Type (0, 1), BuildingBlock: TEMPAE_clean_linker_10, # of connection points: 2
#     Edge 76, Type (0, 1), BuildingBlock: TEMPAE_clean_linker_10, # of connection points: 2
#     Edge 77, Type (0, 1), BuildingBlock: TEMPAE_clean_linker_10, # of connection points: 2
#     Edge 78, Type (0, 1), BuildingBlock: TEMPAE_clean_linker_10, # of connection points: 2
#     Edge 79, Type (0, 1), BuildingBlock: TEMPAE_clean_linker_10, # of connection points: 2
#     Edge 80, Type (0, 1), BuildingBlock: TEMPAE_clean_linker_10, # of connection points: 2
# Relax obj value: 0.044
# Max RMSD: 0.209
# Mean RMSD: 0.150
data_MOF--net-eea--node1-KUMBUR_clean_sbu_0--node2-QEWDON_clean_linker_0--edge1-TEMPAE_clean_linker_10
_symmetry_space_group_name_H-M    P1
_symmetry_Int_Tables_number       1
_symmetry_cell_setting            triclinic
loop_
_symmetry_equiv_pos_as_xyz
'x, y, z'
_cell_length_a     58.308127
_cell_length_b     59.770788
_cell_length_c     64.365366
_cell_angle_alpha  90.092177
_cell_angle_beta   90.115318
_cell_angle_gamma 119.89845
loop_
_atom_site_label
_atom_site_type_symbol
_atom_site_fract_x
_atom_site_fract_y
_atom_site_fract_z
_atom_type_partial_charge
H0 H 0.20509 0.11445 0.435 0.0
C1 C 0.20507 0.09826 0.42737 0.0
C2 C 0.21947 0.08748 0.43616 0.0
C3 C 0.18928 0.08711 0.4096 0.0
H4 H 0.22929 0.05718 0.43356 0.0
C5 C 0.21832 0.06568 0.42685 0.0
C6 C 0.2034 0.05492 0.40877 0.0
C7 C 0.18911 0.06578 0.40011 0.0
C8 C 0.17091 0.09591 0.40218 0.0
H9 H 0.17718 0.05706 0.38634 0.0
C10 C 0.17904 0.12237 0.40036 0.0
C11 C 0.16084 0.13015 0.39423 0.0
C12 C 0.14448 0.07747 0.39762 0.0
H13 H 0.13752 0.05703 0.3992 0.0
C14 C 0.12652 0.08513 0.39148 0.0
H15 H 0.19934 0.13682 0.40379 0.0
C16 C 0.13457 0.11125 0.38983 0.0
H17 H 0.12027 0.11671 0.38484 0.0
H18 H 0.10623 0.07074 0.38805 0.0
H19 H 0.90847 0.09629 0.43061 0.0
C20 C 0.92291 0.11313 0.42226 0.0
C21 C 0.93107 0.13811 0.43001 0.0
C22 C 0.93435 0.10942 0.40432 0.0
H23 H 0.9574 0.17889 0.42422 0.0
C24 C 0.95116 0.15939 0.41923 0.0
C25 C 0.96376 0.15604 0.4019 0.0
C26 C 0.95487 0.13103 0.39426 0.0
C27 C 0.92643 0.0828 0.39725 0.0
H28 H 0.96447 0.12834 0.38085 0.0
C29 C 0.89952 0.06345 0.39579 0.0
C30 C 0.89244 0.03797 0.39026 0.0
C31 C 0.94602 0.07635 0.39278 0.0
H32 H 0.96681 0.09067 0.39401 0.0
C33 C 0.93904 0.05117 0.38724 0.0
H34 H 0.88417 0.06814 0.39909 0.0
C35 C 0.91248 0.03207 0.38607 0.0
H36 H 0.90755 0.01268 0.38163 0.0
H37 H 0.9543 0.0464 0.38393 0.0
H38 H 0.91885 0.79565 0.4238 0.0
C39 C 0.9022 0.79642 0.41712 0.0
C40 C 0.87754 0.7841 0.42734 0.0
C41 C 0.90568 0.81029 0.3986 0.0
H42 H 0.83736 0.77684 0.42662 0.0
C43 C 0.85624 0.78581 0.4187 0.0
C44 C 0.85898 0.79918 0.40007 0.0
C45 C 0.88369 0.81103 0.39003 0.0
C46 C 0.93259 0.82579 0.38907 0.0
H47 H 0.88598 0.82148 0.37574 0.0
C48 C 0.95101 0.81681 0.38812 0.0
C49 C 0.97622 0.83226 0.37909 0.0
C50 C 0.94026 0.85051 0.38119 0.0
H51 H 0.92717 0.85845 0.38216 0.0
C52 C 0.9651 0.86566 0.37232 0.0
H53 H 0.9457 0.79787 0.39401 0.0
C54 C 0.98291 0.85661 0.3712 0.0
H55 H 1.00211 0.86872 0.3642 0.0
H56 H 0.97062 0.8846 0.36634 0.0
H57 H 0.12545 0.20892 0.60435 0.0
C58 C 0.10835 0.20882 0.61101 0.0
C59 C 0.09709 0.22187 0.60074 0.0
C60 C 0.09735 0.19524 0.62956 0.0
H61 H 0.06558 0.23087 0.60124 0.0
C62 C 0.07449 0.22113 0.60922 0.0
C63 C 0.06305 0.20771 0.62772 0.0
C64 C 0.07489 0.19519 0.63791 0.0
C65 C 0.10799 0.17963 0.63953 0.0
H66 H 0.06618 0.18483 0.65217 0.0
C67 C 0.13551 0.18847 0.64084 0.0
C68 C 0.14469 0.17324 0.65065 0.0
C69 C 0.09016 0.15517 0.6477 0.0
H70 H 0.069 0.14736 0.64647 0.0
C71 C 0.09928 0.14018 0.65729 0.0
H72 H 0.14971 0.20723 0.63475 0.0
C73 C 0.12631 0.14917 0.65888 0.0
H74 H 0.13296 0.13722 0.66646 0.0
H75 H 0.08529 0.12144 0.66352 0.0
H76 H 0.8263 0.92727 0.59221 0.0
C77 C 0.82568 0.91122 0.60053 0.0
C78 C 0.81172 0.88631 0.59196 0.0
C79 C 0.84051 0.91576 0.61891 0.0
H80 H 0.80137 0.84645 0.59566 0.0
C81 C 0.81198 0.86575 0.60222 0.0
C82 C 0.82624 0.86988 0.62066 0.0
C83 C 0.84039 0.89481 0.62905 0.0
C84 C 0.8582 0.9426 0.62626 0.0
H85 H 0.85186 0.89796 0.64313 0.0
C86 C 0.84957 0.96084 0.62671 0.0
C87 C 0.86711 0.98663 0.63244 0.0
C88 C 0.88447 0.95044 0.63188 0.0
H89 H 0.8918 0.93699 0.63136 0.0
C90 C 0.90183 0.97593 0.63765 0.0
H91 H 0.82935 0.95506 0.62248 0.0
C92 C 0.8933 0.99395 0.63786 0.0
H93 H 0.90709 0.0136 0.64257 0.0
H94 H 0.92203 0.98178 0.64186 0.0
H95 H 0.09108 0.88467 0.60067 0.0
C96 C 0.10812 0.90181 0.60679 0.0
C97 C 0.13145 0.91427 0.59491 0.0
C98 C 0.1064 0.9123 0.62598 0.0
H99 H 0.17117 0.9468 0.59338 0.0
C100 C 0.15313 0.93714 0.60242 0.0
C101 C 0.15206 0.94736 0.62175 0.0
C102 C 0.12886 0.93468 0.63354 0.0
C103 C 0.08094 0.90134 0.63762 0.0
H104 H 0.12813 0.94276 0.64845 0.0
C105 C 0.06378 0.87443 0.63967 0.0
C106 C 0.04049 0.86496 0.65158 0.0
C107 C 0.07376 0.91829 0.64698 0.0
H108 H 0.08595 0.93899 0.64521 0.0
C109 C 0.05067 0.90886 0.6586 0.0
H110 H 0.06879 0.86097 0.63259 0.0
C111 C 0.03423 0.8824 0.66104 0.0
H112 H 0.01636 0.87546 0.67016 0.0
H113 H 0.04549 0.92214 0.66575 0.0
H114 H 0.87063 0.45044 0.77274 0.0
C115 C 0.87066 0.43477 0.76424 0.0
C116 C 0.8892 0.42721 0.76943 0.0
C117 C 0.8516 0.42161 0.74871 0.0
H118 H 0.90291 0.40039 0.76298 0.0
C119 C 0.88901 0.40667 0.75869 0.0
C120 C 0.86972 0.39295 0.74354 0.0
C121 C 0.85104 0.40042 0.73861 0.0
C122 C 0.83147 0.42914 0.74385 0.0
H123 H 0.83613 0.38974 0.72688 0.0
C124 C 0.83883 0.45527 0.74104 0.0
C125 C 0.81959 0.46236 0.73681 0.0
C126 C 0.80463 0.41017 0.74232 0.0
H127 H 0.79838 0.38998 0.74463 0.0
C128 C 0.7855 0.4171 0.73821 0.0
H129 H 0.85949 0.47004 0.74211 0.0
C130 C 0.79286 0.44297 0.73549 0.0
H131 H 0.77765 0.44778 0.73198 0.0
H132 H 0.76488 0.40234 0.7371 0.0
H133 H 0.57214 0.42854 0.75901 0.0
C134 C 0.5878 0.44612 0.75227 0.0
C135 C 0.60266 0.46759 0.76519 0.0
C136 C 0.59374 0.44709 0.73099 0.0
H137 H 0.63632 0.50553 0.76727 0.0
C138 C 0.62434 0.48979 0.75684 0.0
C139 C 0.63021 0.49184 0.73544 0.0
C140 C 0.61392 0.47052 0.72267 0.0
C141 C 0.58013 0.4236 0.71741 0.0
H142 H 0.61675 0.47198 0.70605 0.0
C143 C 0.55341 0.40428 0.72045 0.0
C144 C 0.54136 0.3826 0.70717 0.0
C145 C 0.59445 0.42016 0.70127 0.0
H146 H 0.61523 0.43379 0.69889 0.0
C147 C 0.58241 0.39884 0.6881 0.0
H148 H 0.54183 0.40617 0.73274 0.0
C149 C 0.55603 0.38025 0.69093 0.0
H150 H 0.54716 0.36363 0.68066 0.0
H151 H 0.5937 0.39658 0.67577 0.0
H152 H 0.58943 0.1375 0.75883 0.0
C153 C 0.57235 0.13746 0.7521 0.0
C154 C 0.54825 0.12584 0.76303 0.0
C155 C 0.57484 0.15034 0.73319 0.0
H156 H 0.50776 0.11737 0.76298 0.0
C157 C 0.5264 0.12671 0.75469 0.0
C158 C 0.52813 0.13901 0.7357 0.0
C159 C 0.55237 0.15048 0.72498 0.0
C160 C 0.60119 0.16564 0.72279 0.0
H161 H 0.55392 0.16019 0.71041 0.0
C162 C 0.61965 0.15678 0.72132 0.0
C163 C 0.64399 0.17172 0.71089 0.0
C164 C 0.60809 0.18991 0.71431 0.0
H165 H 0.59499 0.19779 0.71569 0.0
C166 C 0.63212 0.20462 0.70417 0.0
H167 H 0.61493 0.13822 0.72772 0.0
C168 C 0.64986 0.19556 0.70233 0.0
H169 H 0.66841 0.20731 0.69432 0.0
H170 H 0.63704 0.22318 0.6977 0.0
H171 H 0.79167 0.53946 0.93624 0.0
C172 C 0.77632 0.54148 0.94394 0.0
C173 C 0.76562 0.55559 0.93443 0.0
C174 C 0.76645 0.52865 0.96296 0.0
H175 H 0.73664 0.56796 0.93824 0.0
C176 C 0.74458 0.55645 0.94455 0.0
C177 C 0.73342 0.54271 0.96295 0.0
C178 C 0.74492 0.52938 0.9723 0.0
C179 C 0.77725 0.51286 0.97231 0.0
H180 H 0.73664 0.51903 0.98664 0.0
C181 C 0.8048 0.52168 0.97304 0.0
C182 C 0.81424 0.50635 0.98227 0.0
C183 C 0.75963 0.48838 0.98053 0.0
H184 H 0.73845 0.48071 0.97981 0.0
C185 C 0.76901 0.47325 0.98951 0.0
H186 H 0.8188 0.54049 0.96692 0.0
C187 C 0.79608 0.48218 0.99047 0.0
H188 H 0.80293 0.47016 0.99764 0.0
H189 H 0.75519 0.45448 0.99577 0.0
H190 H 0.48881 0.2557 0.92279 0.0
C191 C 0.4875 0.24005 0.93209 0.0
C192 C 0.46753 0.21436 0.9282 0.0
C193 C 0.50697 0.24587 0.94732 0.0
H194 H 0.45187 0.17474 0.93834 0.0
C195 C 0.46727 0.19462 0.94039 0.0
C196 C 0.48748 0.20006 0.9548 0.0
C197 C 0.50725 0.22569 0.95824 0.0
C198 C 0.52742 0.27306 0.95141 0.0
H199 H 0.52266 0.22992 0.96959 0.0
C200 C 0.52011 0.29193 0.95491 0.0
C201 C 0.53945 0.31774 0.95897 0.0
C202 C 0.55431 0.28024 0.95193 0.0
H203 H 0.56042 0.2661 0.94918 0.0
C204 C 0.57357 0.30584 0.95571 0.0
H205 H 0.49938 0.28647 0.95463 0.0
C206 C 0.56626 0.3245 0.95922 0.0
H207 H 0.58157 0.34412 0.96256 0.0
H208 H 0.59426 0.31123 0.95605 0.0
H209 H 0.75985 0.21851 0.93508 0.0
C210 C 0.77631 0.23593 0.94142 0.0
C211 C 0.80094 0.24756 0.93118 0.0
C212 C 0.77272 0.24705 0.95957 0.0
H213 H 0.84066 0.28039 0.93116 0.0
C214 C 0.82187 0.27067 0.93922 0.0
C215 C 0.81886 0.2816 0.95753 0.0
C216 C 0.79445 0.26954 0.96779 0.0
C217 C 0.74605 0.23643 0.96924 0.0
H218 H 0.79225 0.27818 0.98192 0.0
C219 C 0.72855 0.20957 0.97119 0.0
C220 C 0.70356 0.20033 0.98048 0.0
C221 C 0.73778 0.25357 0.97641 0.0
H222 H 0.75033 0.27423 0.9747 0.0
C223 C 0.71305 0.24433 0.98556 0.0
H224 H 0.73442 0.19596 0.96586 0.0
C225 C 0.69605 0.21788 0.98766 0.0
H226 H 0.67691 0.21106 0.99484 0.0
H227 H 0.70699 0.25775 0.991 0.0
H228 H 0.54046 0.78361 0.09704 0.0
C229 C 0.53976 0.76678 0.09004 0.0
C230 C 0.55713 0.75843 0.09708 0.0
C231 C 0.52086 0.75306 0.07451 0.0
H232 H 0.56856 0.72933 0.09341 0.0
C233 C 0.55591 0.73653 0.08782 0.0
C234 C 0.53741 0.72281 0.07215 0.0
C235 C 0.51984 0.73103 0.06566 0.0
C236 C 0.50116 0.76081 0.06848 0.0
H237 H 0.50546 0.72032 0.0536 0.0
C238 C 0.5087 0.78699 0.06558 0.0
C239 C 0.48965 0.79415 0.06077 0.0
C240 C 0.47435 0.74191 0.06627 0.0
H241 H 0.46786 0.72169 0.0687 0.0
C242 C 0.45548 0.74891 0.06139 0.0
H243 H 0.52929 0.80177 0.06717 0.0
C244 C 0.463 0.77481 0.0587 0.0
H245 H 0.44797 0.77972 0.05473 0.0
H246 H 0.4349 0.7342 0.05976 0.0
H247 H 0.23661 0.76531 0.09439 0.0
C248 C 0.25288 0.78191 0.08703 0.0
C249 C 0.26243 0.80654 0.09585 0.0
C250 C 0.26471 0.77844 0.06922 0.0
H251 H 0.29184 0.84688 0.09346 0.0
C252 C 0.28403 0.82789 0.08654 0.0
C253 C 0.29609 0.82493 0.06867 0.0
C254 C 0.28607 0.8002 0.05995 0.0
C255 C 0.25638 0.75189 0.06155 0.0
H256 H 0.2955 0.79781 0.0463 0.0
C257 C 0.22945 0.73237 0.06094 0.0
C258 C 0.22226 0.70689 0.05529 0.0
C259 C 0.27578 0.74555 0.05595 0.0
H260 H 0.29661 0.75986 0.05661 0.0
C261 C 0.26864 0.72044 0.0501 0.0
H262 H 0.21417 0.73684 0.0651 0.0
C263 C 0.24212 0.7012 0.04988 0.0
H264 H 0.23706 0.68181 0.04531 0.0
H265 H 0.28377 0.71581 0.04593 0.0
H266 H 0.25707 0.46649 0.09106 0.0
C267 C 0.24052 0.46771 0.08471 0.0
C268 C 0.21599 0.45556 0.09514 0.0
C269 C 0.24395 0.48192 0.06636 0.0
H270 H 0.17615 0.44928 0.09514 0.0
C271 C 0.19488 0.458 0.08702 0.0
C272 C 0.19757 0.47167 0.06861 0.0
C273 C 0.22202 0.48317 0.05824 0.0
C274 C 0.27068 0.49716 0.05645 0.0
H275 H 0.22415 0.49373 0.04404 0.0
C276 C 0.28883 0.48788 0.055 0.0
C277 C 0.31368 0.50295 0.04528 0.0
C278 C 0.27836 0.52186 0.04851 0.0
H279 H 0.26556 0.53009 0.04988 0.0
C280 C 0.30283 0.53662 0.03898 0.0
H281 H 0.28357 0.469 0.06099 0.0
C282 C 0.3203 0.52722 0.03727 0.0
H283 H 0.33923 0.53906 0.0298 0.0
H284 H 0.30833 0.55553 0.03294 0.0
H285 H 0.45945 0.87414 0.26958 0.0
C286 C 0.44224 0.87376 0.27628 0.0
C287 C 0.43062 0.88648 0.26601 0.0
C288 C 0.43147 0.86017 0.29488 0.0
H289 H 0.39859 0.89474 0.26648 0.0
C290 C 0.40781 0.88531 0.27448 0.0
C291 C 0.39658 0.87189 0.29301 0.0
C292 C 0.40884 0.85979 0.30326 0.0
C293 C 0.44253 0.84484 0.30481 0.0
H294 H 0.40029 0.84951 0.31757 0.0
C295 C 0.47011 0.85373 0.30558 0.0
C296 C 0.47963 0.83858 0.31506 0.0
C297 C 0.42502 0.82048 0.31332 0.0
H298 H 0.40381 0.81259 0.31251 0.0
C299 C 0.43449 0.80563 0.32265 0.0
H300 H 0.4841 0.87239 0.29922 0.0
C301 C 0.46156 0.81462 0.32361 0.0
H302 H 0.46847 0.80275 0.33095 0.0
H303 H 0.42073 0.78697 0.32912 0.0
H304 H 0.15652 0.59028 0.25795 0.0
C305 C 0.15472 0.57432 0.2671 0.0
C306 C 0.13485 0.5488 0.26255 0.0
C307 C 0.17346 0.57963 0.28286 0.0
H308 H 0.11869 0.50884 0.27196 0.0
C309 C 0.13403 0.52864 0.27451 0.0
C310 C 0.15361 0.53356 0.2894 0.0
C311 C 0.17321 0.55907 0.29357 0.0
C312 C 0.19367 0.60672 0.2877 0.0
H313 H 0.18806 0.56287 0.30534 0.0
C314 C 0.18624 0.62564 0.29048 0.0
C315 C 0.20533 0.65138 0.29505 0.0
C316 C 0.22046 0.61382 0.28952 0.0
H317 H 0.22672 0.59969 0.28731 0.0
C318 C 0.23949 0.63934 0.29388 0.0
H319 H 0.16558 0.62027 0.28919 0.0
C320 C 0.23205 0.65802 0.29663 0.0
H321 H 0.24717 0.67758 0.3004 0.0
H322 H 0.26011 0.64465 0.29523 0.0
H323 H 0.42579 0.5507 0.26854 0.0
C324 C 0.44219 0.56819 0.27487 0.0
C325 C 0.46752 0.57836 0.26598 0.0
C326 C 0.43774 0.5809 0.29149 0.0
H327 H 0.50797 0.60975 0.2672 0.0
C328 C 0.48856 0.60123 0.27426 0.0
C329 C 0.4846 0.61408 0.2909 0.0
C330 C 0.45918 0.60384 0.29941 0.0
C331 C 0.41052 0.57123 0.29979 0.0
H332 H 0.45616 0.61375 0.31232 0.0
C333 C 0.39291 0.54463 0.30308 0.0
C334 C 0.36724 0.53612 0.31073 0.0
C335 C 0.40184 0.5889 0.30419 0.0
H336 H 0.41459 0.60935 0.30148 0.0
C337 C 0.37643 0.58039 0.31176 0.0
H338 H 0.39914 0.53065 0.29991 0.0
C339 C 0.3592 0.55417 0.31503 0.0
H340 H 0.33952 0.54792 0.3209 0.0
H341 H 0.37001 0.59419 0.31503 0.0
Tb342 Tb 0.4953 0.99502 0.98751 0.0
C343 C 0.54365 0.07277 0.05903 0.0
C344 C 0.58966 0.08423 0.05961 0.0
C345 C 0.57691 0.11511 0.07151 0.0
C346 C 0.56299 0.06663 0.05483 0.0
C347 C 0.55022 0.09681 0.06791 0.0
C348 C 0.59662 0.10878 0.06744 0.0
C349 C 0.50347 0.08156 0.0714 0.0
N350 N 0.51813 0.05427 0.05589 0.0
C351 C 0.49799 0.05791 0.06272 0.0
C352 C 0.52971 0.10125 0.07373 0.0
Tb353 Tb 0.51095 0.01627 0.04133 0.0
N354 N 0.55533 0.04259 0.04759 0.0
C355 C 0.57343 0.03446 0.04584 0.0
C356 C 0.60831 0.07624 0.05721 0.0
C357 C 0.60014 0.05122 0.05035 0.0
H358 H 0.47765 0.04284 0.0609 0.0
H359 H 0.61438 0.04475 0.04867 0.0
H360 H 0.61705 0.1227 0.07098 0.0
H361 H 0.48746 0.08458 0.07627 0.0
H362 H 0.56758 0.01519 0.04066 0.0
H363 H 0.39138 0.96559 0.9817 0.0
H364 H 0.62889 0.08893 0.06119 0.0
H365 H 0.52825 0.96772 0.96852 0.0
H366 H 0.43861 0.99623 0.9873 0.0
H367 H 0.5181 0.92504 0.95491 0.0
H368 H 0.58243 0.13381 0.07813 0.0
H369 H 0.37652 0.92025 0.97225 0.0
H370 H 0.38847 0.88634 0.96315 0.0
H371 H 0.53391 0.11948 0.08058 0.0
H372 H 0.42307 0.87523 0.95579 0.0
N373 N 0.45082 0.96853 0.98164 0.0
C374 C 0.43265 0.9766 0.98313 0.0
C375 C 0.39737 0.93361 0.97477 0.0
C376 C 0.41615 0.92582 0.97214 0.0
C377 C 0.40571 0.95922 0.97999 0.0
C378 C 0.44303 0.94404 0.97553 0.0
H379 H 0.47158 0.88976 0.9522 0.0
N380 N 0.48791 0.95648 0.97392 0.0
C381 C 0.50221 0.92833 0.95962 0.0
C382 C 0.4623 0.93776 0.97149 0.0
C383 C 0.50789 0.95249 0.96727 0.0
C384 C 0.47593 0.90844 0.95815 0.0
C385 C 0.45554 0.91314 0.96379 0.0
O386 O 0.51858 0.00842 0.96048 0.0
O387 O 0.52375 0.02179 0.00943 0.0
O388 O 0.50912 0.04704 0.02446 0.0
O389 O 0.48452 0.02468 0.99516 0.0
O390 O 0.53817 0.00976 0.986 0.0
O391 O 0.48352 0.01136 0.96369 0.0
O392 O 0.48798 0.00296 0.06857 0.0
O393 O 0.48247 0.98986 0.01934 0.0
O394 O 0.49631 0.96425 0.00474 0.0
O395 O 0.52182 0.98657 0.03361 0.0
O396 O 0.46816 1.00175 0.04287 0.0
O397 O 0.52181 0.99818 0.06426 0.0
C398 C 0.54504 0.02499 1.00177 0.0
C399 C 0.49558 0.00628 0.92965 0.0
C400 C 0.49852 0.01615 0.89242 0.0
C401 C 0.50495 0.02437 0.91331 0.0
C402 C 0.48293 0.98952 0.88832 0.0
C403 C 0.47965 0.98001 0.92501 0.0
C404 C 0.4735 0.97169 0.90449 0.0
C405 C 0.49517 0.04522 0.00759 0.0
C406 C 0.50277 0.01489 0.95141 0.0
C407 C 0.42874 0.8944 0.96141 0.0
C408 C 0.40905 0.90073 0.9656 0.0
C409 C 0.46121 0.98673 0.02698 0.0
C410 C 0.51123 0.00316 0.09875 0.0
C411 C 0.4998 0.98511 0.11498 0.0
C412 C 0.5077 0.99254 0.13582 0.0
C413 C 0.52684 0.01837 0.14004 0.0
C414 C 0.53049 0.02862 0.10347 0.0
C415 C 0.53814 0.03618 0.12398 0.0
C416 C 0.51043 0.96587 0.02139 0.0
C417 C 0.50318 0.99527 0.07698 0.0
H418 H 0.5169 0.04474 0.91692 0.0
H419 H 0.47814 0.98233 0.87253 0.0
H420 H 0.47201 0.96586 0.9372 0.0
H421 H 0.46141 0.9513 0.90109 0.0
H422 H 0.48516 0.96532 0.11135 0.0
H423 H 0.53296 0.02494 0.15584 0.0
H424 H 0.53969 0.04267 0.09136 0.0
H425 H 0.5529 0.05596 0.12744 0.0
Tb426 Tb 0.02477 0.50195 0.98924 0.0
C427 C 0.93992 0.4672 0.05573 0.0
C428 C 0.92868 0.50091 0.05897 0.0
C429 C 0.8958 0.45651 0.06682 0.0
C430 C 0.94687 0.4928 0.05377 0.0
C431 C 0.91446 0.44879 0.06261 0.0
C432 C 0.90296 0.48257 0.06514 0.0
C433 C 0.92883 0.41721 0.06307 0.0
N434 N 0.95873 0.46064 0.05207 0.0
C435 C 0.95397 0.4363 0.05668 0.0
C436 C 0.90887 0.4234 0.06579 0.0
Tb437 Tb 0.99919 0.49339 0.04154 0.0
N438 N 0.97186 0.50993 0.04766 0.0
C439 C 0.98015 0.53574 0.047 0.0
C440 C 0.93712 0.52728 0.05835 0.0
C441 C 0.9629 0.54474 0.05221 0.0
H442 H 0.96934 0.43141 0.05469 0.0
H443 H 0.96958 0.56518 0.05167 0.0
H444 H 0.88861 0.4884 0.069 0.0
H445 H 0.92491 0.3978 0.06601 0.0
H446 H 1.00004 0.54959 0.04247 0.0
H447 H 0.05775 0.43204 0.98349 0.0
H448 H 0.92407 0.53441 0.06293 0.0
H449 H 0.05218 0.56187 0.97167 0.0
H450 H 0.02555 0.44641 0.98926 0.0
H451 H 0.09586 0.59551 0.95906 0.0
H452 H 0.87606 0.44264 0.07199 0.0
H453 H 0.10393 0.46362 0.97433 0.0
H454 H 0.13819 0.50961 0.96654 0.0
H455 H 0.8895 0.40865 0.07097 0.0
H456 H 0.14864 0.55429 0.95986 0.0
N457 N 0.05325 0.4863 0.98434 0.0
C458 C 0.04559 0.46064 0.98545 0.0
C459 C 0.08997 0.47021 0.97723 0.0
C460 C 0.09747 0.49625 0.9752 0.0
C461 C 0.06386 0.45231 0.98221 0.0
C462 C 0.07832 0.50368 0.97866 0.0
H463 H 0.13277 0.58639 0.95654 0.0
N464 N 0.06436 0.53413 0.97672 0.0
C465 C 0.09284 0.57676 0.96344 0.0
C466 C 0.08408 0.52853 0.97462 0.0
C467 C 0.06808 0.55762 0.97052 0.0
C468 C 0.11365 0.57157 0.9621 0.0
C469 C 0.1093 0.54706 0.96741 0.0
O470 O 0.0144 0.51177 0.96066 0.0
O471 O 0.99579 0.50228 0.00975 0.0
O472 O 0.96893 0.46328 0.02202 0.0
O473 O 0.9951 0.46118 0.99575 0.0
O474 O 1.00855 0.52827 0.98654 0.0
O475 O 1.00727 0.47329 0.96626 0.0
O476 O 0.01143 0.48209 0.06827 0.0
O477 O 0.02903 0.49429 0.02126 0.0
O478 O 0.05476 0.53354 0.00775 0.0
O479 O 0.03023 0.53422 0.03616 0.0
O480 O 0.01463 0.46652 0.04334 0.0
O481 O 0.01187 0.51833 0.06758 0.0
C482 C 0.99242 0.51972 1.00189 0.0
C483 C 0.01626 0.48829 0.93178 0.0
C484 C 1.00809 0.48114 0.8946 0.0
C485 C 0.99974 0.48361 0.91449 0.0
C486 C 0.03318 0.48373 0.89201 0.0
C487 C 0.04139 0.49103 0.92892 0.0
C488 C 0.04982 0.48886 0.90913 0.0
C489 C 0.97263 0.45116 0.00632 0.0
C490 C 1.00649 0.48903 0.95268 0.0
C491 C 0.12902 0.54027 0.96516 0.0
C492 C 0.12308 0.51485 0.96899 0.0
C493 C 0.0319 0.47639 0.02878 0.0
C494 C 1.00473 0.49721 0.10016 0.0
C495 C 0.02182 0.50906 0.11711 0.0
C496 C 0.01296 0.50164 0.13775 0.0
C497 C 0.98627 0.48256 0.14082 0.0
C498 C 0.97822 0.47888 0.10385 0.0
C499 C 0.96904 0.47173 0.12404 0.0
C500 C 0.05184 0.54495 0.02437 0.0
C501 C 0.01553 0.50231 0.0789 0.0
H502 H 0.98018 0.48122 0.91657 0.0
H503 H 0.03982 0.48173 0.87677 0.0
H504 H 0.05434 0.49445 0.94193 0.0
H505 H 0.06918 0.49086 0.90709 0.0
H506 H 0.04207 0.52368 0.11399 0.0
H507 H 0.97856 0.47527 0.15611 0.0
H508 H 0.96469 0.46947 0.09124 0.0
H509 H 0.94864 0.45713 0.12667 0.0
Tb510 Tb 0.52586 0.50499 0.04271 0.0
C511 C 0.48243 0.53773 0.97022 0.0
C512 C 0.43651 0.50389 0.96897 0.0
C513 C 0.44882 0.54718 0.95761 0.0
C514 C 0.46319 0.51236 0.97404 0.0
C515 C 0.47554 0.55514 0.96133 0.0
C516 C 0.42935 0.52158 0.96138 0.0
C517 C 0.52212 0.58591 0.95779 0.0
N518 N 0.50812 0.54477 0.9737 0.0
C519 C 0.52801 0.568 0.96663 0.0
C520 C 0.49577 0.57967 0.95556 0.0
Tb521 Tb 0.51521 0.51438 0.98917 0.0
N522 N 0.47081 0.49564 0.98129 0.0
C523 C 0.45277 0.46972 0.982 0.0
C524 C 0.41794 0.47769 0.97085 0.0
C525 C 0.42617 0.46054 0.97716 0.0
H526 H 0.54845 0.57307 0.96829 0.0
H527 H 0.412 0.44012 0.97823 0.0
H528 H 0.40892 0.51546 0.95769 0.0
H529 H 0.53791 0.60454 0.95279 0.0
H530 H 0.45807 0.45566 0.9867 0.0
H531 H 0.62818 0.57877 0.05379 0.0
H532 H 0.39739 0.47037 0.96675 0.0
H533 H 0.49382 0.44385 0.05773 0.0
H534 H 0.58082 0.56235 0.04724 0.0
H535 H 0.50503 0.41098 0.06929 0.0
H536 H 0.44311 0.56038 0.95106 0.0
H537 H 0.64437 0.54837 0.06102 0.0
H538 H 0.63378 0.50259 0.06722 0.0
H539 H 0.49127 0.59358 0.94867 0.0
H540 H 0.60016 0.45677 0.0716 0.0
N541 N 0.57006 0.52277 0.05018 0.0
C542 C 0.58745 0.54877 0.0505 0.0
C543 C 0.6235 0.541 0.05815 0.0
C544 C 0.60538 0.51454 0.05911 0.0
C545 C 0.61441 0.55822 0.05417 0.0
C546 C 0.57847 0.506 0.05519 0.0
H547 H 0.55194 0.42248 0.07288 0.0
N548 N 0.534 0.4734 0.05444 0.0
C549 C 0.52062 0.43041 0.06591 0.0
C550 C 0.55974 0.48035 0.05747 0.0
C551 C 0.51433 0.44906 0.05945 0.0
C552 C 0.54713 0.43695 0.06788 0.0
C553 C 0.5671 0.46232 0.06397 0.0
O554 O 0.50115 0.49172 0.06893 0.0
O555 O 0.49878 0.50579 0.02009 0.0
O556 O 0.51872 0.5481 0.00554 0.0
O557 O 0.53419 0.54498 0.03844 0.0
O558 O 0.48306 0.47746 0.0417 0.0
O559 O 0.53528 0.52989 0.06846 0.0
O560 O 0.53688 0.50021 0.97301 0.0
O561 O 0.54275 0.51612 0.01214 0.0
O562 O 0.52733 0.4755 0.02376 0.0
O563 O 0.50133 0.47344 0.99565 0.0
O564 O 0.55639 0.54573 0.99181 0.0
O565 O 0.51404 0.51299 0.9563 0.0
C566 C 0.47708 0.4875 0.02645 0.0
C567 C 0.52175 0.50935 0.10111 0.0
C568 C 0.51591 0.51271 0.13835 0.0
C569 C 0.51133 0.51695 0.11761 0.0
C570 C 0.53119 0.50098 0.14236 0.0
C571 C 0.53726 0.49802 0.10551 0.0
C572 C 0.5419 0.49384 0.12602 0.0
C573 C 0.52785 0.55728 0.02439 0.0
C574 C 0.51569 0.51277 0.07951 0.0
C575 C 0.59401 0.47039 0.0669 0.0
C576 C 0.61315 0.49648 0.06442 0.0
C577 C 0.56364 0.53609 0.00659 0.0
C578 C 0.55255 0.51784 0.93982 0.0
C579 C 0.55212 0.50558 0.92099 0.0
C580 C 0.57289 0.51798 0.90656 0.0
C581 C 0.59433 0.54246 0.91147 0.0
C582 C 0.57407 0.54243 0.94416 0.0
C583 C 0.59486 0.55453 0.93014 0.0
C584 C 0.5133 0.46376 0.00701 0.0
C585 C 0.53064 0.50462 0.95479 0.0
H586 H 0.49935 0.52575 0.11431 0.0
H587 H 0.53521 0.49772 0.15818 0.0
H588 H 0.5457 0.49231 0.09319 0.0
H589 H 0.55385 0.48502 0.12925 0.0
H590 H 0.53549 0.48667 0.91743 0.0
H591 H 0.6108 0.55227 0.90087 0.0
H592 H 0.57505 0.55249 0.95827 0.0
H593 H 0.61146 0.5734 0.93374 0.0
Tb594 Tb 0.1622 0.32867 0.32167 0.0
C595 C 0.20848 0.40639 0.39322 0.0
C596 C 0.25492 0.41944 0.39319 0.0
C597 C 0.24088 0.44928 0.40528 0.0
C598 C 0.22835 0.40108 0.3888 0.0
C599 C 0.21435 0.43026 0.40204 0.0
C600 C 0.26116 0.44385 0.4009 0.0
C601 C 0.16739 0.41354 0.40601 0.0
N602 N 0.18318 0.38729 0.39027 0.0
C603 C 0.16262 0.39013 0.39729 0.0
C604 C 0.19337 0.43385 0.4081 0.0
Tb605 Tb 0.17715 0.34977 0.37554 0.0
N606 N 0.22139 0.37715 0.38168 0.0
C607 C 0.2401 0.36983 0.37984 0.0
C608 C 0.27423 0.41235 0.39048 0.0
C609 C 0.26675 0.38737 0.38391 0.0
H610 H 0.14247 0.37459 0.39561 0.0
H611 H 0.2815 0.38157 0.38207 0.0
H612 H 0.2815 0.45835 0.40412 0.0
H613 H 0.15103 0.41592 0.41105 0.0
H614 H 0.2348 0.35063 0.37482 0.0
H615 H 0.05777 0.29695 0.31533 0.0
H616 H 0.2948 0.4257 0.39404 0.0
H617 H 0.19652 0.3029 0.30252 0.0
H618 H 0.10473 0.32837 0.32126 0.0
H619 H 0.18755 0.26072 0.2886 0.0
H620 H 0.24587 0.46788 0.41182 0.0
H621 H 0.04406 0.25193 0.30567 0.0
H622 H 0.05721 0.21891 0.29645 0.0
H623 H 0.19703 0.45192 0.41493 0.0
H624 H 0.09265 0.20898 0.28907 0.0
N625 N 0.11791 0.30142 0.31557 0.0
C626 C 0.09927 0.30889 0.31699 0.0
C627 C 0.06479 0.26564 0.30833 0.0
C628 C 0.08407 0.25847 0.30574 0.0
C629 C 0.07248 0.29107 0.31367 0.0
C630 C 0.11077 0.27712 0.30932 0.0
H631 H 0.14144 0.22468 0.28562 0.0
N632 N 0.15591 0.29065 0.3078 0.0
C633 C 0.17132 0.26346 0.29333 0.0
C634 C 0.13052 0.27152 0.30523 0.0
C635 C 0.17633 0.28735 0.30115 0.0
C636 C 0.14526 0.24314 0.29171 0.0
C637 C 0.12442 0.24716 0.29737 0.0
O638 O 0.18594 0.34299 0.29494 0.0
O639 O 0.19011 0.35584 0.34368 0.0
O640 O 0.17424 0.38005 0.35883 0.0
O641 O 0.1504 0.35764 0.32926 0.0
O642 O 0.20521 0.34428 0.32041 0.0
O643 O 0.14995 0.34438 0.2977 0.0
O644 O 0.15426 0.33581 0.40277 0.0
O645 O 0.14917 0.32301 0.35345 0.0
O646 O 0.16413 0.29827 0.33881 0.0
O647 O 0.18921 0.32097 0.36774 0.0
O648 O 0.13414 0.3341 0.37701 0.0
O649 O 0.18888 0.33235 0.39841 0.0
C650 C 0.21164 0.3596 0.3361 0.0
C651 C 0.16328 0.34027 0.26384 0.0
C652 C 0.16986 0.34999 0.22666 0.0
C653 C 0.17491 0.35822 0.24757 0.0
C654 C 0.15289 0.32367 0.22232 0.0
C655 C 0.14612 0.31422 0.25904 0.0
C656 C 0.14103 0.30599 0.23841 0.0
C657 C 0.16041 0.37804 0.34184 0.0
C658 C 0.1697 0.34874 0.28567 0.0
C659 C 0.09781 0.22797 0.29483 0.0
C660 C 0.07764 0.23362 0.29903 0.0
C661 C 0.12766 0.31925 0.36103 0.0
C662 C 0.17803 0.33695 0.43291 0.0
C663 C 0.16655 0.31906 0.44924 0.0
C664 C 0.17443 0.32668 0.47005 0.0
C665 C 0.19361 0.35253 0.47414 0.0
C666 C 0.19733 0.36244 0.43751 0.0
C667 C 0.20495 0.37019 0.45798 0.0
C668 C 0.1784 0.30029 0.35548 0.0
C669 C 0.17005 0.32885 0.41117 0.0
H670 H 0.18814 0.37841 0.25116 0.0
H671 H 0.14844 0.31684 0.20641 0.0
H672 H 0.13668 0.30021 0.27119 0.0
H673 H 0.1278 0.28582 0.23488 0.0
H674 H 0.15188 0.29925 0.44571 0.0
H675 H 0.19971 0.35923 0.48992 0.0
H676 H 0.2066 0.37637 0.42531 0.0
H677 H 0.21974 0.38999 0.46135 0.0
Tb678 Tb 0.69176 0.83824 0.3178 0.0
C679 C 0.61312 0.80617 0.38927 0.0
C680 C 0.60179 0.84003 0.38997 0.0
C681 C 0.57009 0.79707 0.40208 0.0
C682 C 0.61969 0.83142 0.38496 0.0
C683 C 0.58861 0.78902 0.39852 0.0
C684 C 0.57671 0.82255 0.39789 0.0
C685 C 0.60406 0.75864 0.40312 0.0
N686 N 0.63167 0.79913 0.38615 0.0
C687 C 0.6281 0.77631 0.39398 0.0
C688 C 0.58399 0.76477 0.40494 0.0
Tb689 Tb 0.66988 0.82932 0.3707 0.0
N690 N 0.64427 0.84796 0.37742 0.0
C691 C 0.6526 0.87383 0.37614 0.0
C692 C 0.61 0.86619 0.38777 0.0
C693 C 0.63552 0.88314 0.38096 0.0
H694 H 0.64337 0.77124 0.39262 0.0
H695 H 0.64217 0.90352 0.37954 0.0
H696 H 0.56263 0.82879 0.40154 0.0
H697 H 0.60102 0.74028 0.40867 0.0
H698 H 0.6721 0.88777 0.37102 0.0
H699 H 0.71927 0.76462 0.30908 0.0
H700 H 0.59712 0.87366 0.39201 0.0
H701 H 0.72231 0.89918 0.30224 0.0
H702 H 0.68847 0.78097 0.31464 0.0
H703 H 0.76723 0.93194 0.29092 0.0
H704 H 0.55103 0.78406 0.40891 0.0
H705 H 0.76658 0.79504 0.30223 0.0
H706 H 0.8028 0.84078 0.29605 0.0
H707 H 0.56542 0.75108 0.41211 0.0
H708 H 0.81592 0.88649 0.291 0.0
N709 N 0.71811 0.82054 0.3116 0.0
C710 C 0.70902 0.79456 0.31161 0.0
C711 C 0.75317 0.80239 0.30473 0.0
C712 C 0.76204 0.82883 0.30351 0.0
C713 C 0.72645 0.78515 0.3085 0.0
C714 C 0.74374 0.83733 0.30688 0.0
H715 H 0.80258 0.92058 0.28853 0.0
N716 N 0.73244 0.86986 0.30666 0.0
C717 C 0.76301 0.91263 0.29474 0.0
C718 C 0.75119 0.86295 0.30428 0.0
C719 C 0.7376 0.89404 0.30108 0.0
C720 C 0.78293 0.90616 0.29346 0.0
C721 C 0.77704 0.88093 0.29792 0.0
O722 O 0.68148 0.8512 0.29089 0.0
O723 O 0.66294 0.83728 0.33939 0.0
O724 O 0.63968 0.79478 0.35448 0.0
O725 O 0.659 0.79821 0.32184 0.0
O726 O 0.67649 0.86535 0.31754 0.0
O727 O 0.67703 0.81318 0.29204 0.0
O728 O 0.70535 0.8425 0.38771 0.0
O729 O 0.69665 0.82767 0.34877 0.0
O730 O 0.72276 0.86826 0.33696 0.0
O731 O 0.69801 0.87033 0.36431 0.0
O732 O 0.67936 0.79814 0.36921 0.0
O733 O 0.66942 0.83294 0.40332 0.0
C734 C 0.65981 0.85529 0.33247 0.0
C735 C 0.68565 0.83359 0.25926 0.0
C736 C 0.67747 0.82916 0.2219 0.0
C737 C 0.66795 0.82489 0.24241 0.0
C738 C 0.70488 0.84204 0.21842 0.0
C739 C 0.71293 0.84606 0.25547 0.0
C740 C 0.72247 0.85027 0.23515 0.0
C741 C 0.63996 0.78561 0.33572 0.0
C742 C 0.67523 0.83017 0.28053 0.0
C743 C 0.79581 0.8729 0.29558 0.0
C744 C 0.78833 0.84688 0.29842 0.0
C745 C 0.69696 0.80774 0.35481 0.0
C746 C 0.70039 0.82608 0.42167 0.0
C747 C 0.71078 0.8384 0.44076 0.0
C748 C 0.71677 0.82579 0.45649 0.0
C749 C 0.71244 0.80078 0.45283 0.0
C750 C 0.69633 0.80113 0.41831 0.0
C751 C 0.70235 0.78861 0.43381 0.0
C752 C 0.7201 0.88022 0.35328 0.0
C753 C 0.69411 0.83968 0.40557 0.0
H754 H 0.64682 0.81524 0.24524 0.0
H755 H 0.71264 0.84539 0.20275 0.0
H756 H 0.7269 0.85269 0.26807 0.0
H757 H 0.74358 0.85999 0.23238 0.0
H758 H 0.71399 0.85767 0.44344 0.0
H759 H 0.71728 0.79081 0.46456 0.0
H760 H 0.68859 0.79118 0.40384 0.0
H761 H 0.69927 0.76943 0.43104 0.0
Tb762 Tb 0.19302 0.84172 0.37264 0.0
C763 C 0.14173 0.87206 0.30416 0.0
C764 C 0.09636 0.83738 0.30237 0.0
C765 C 0.10726 0.88095 0.29296 0.0
C766 C 0.12316 0.8465 0.30725 0.0
C767 C 0.13414 0.88956 0.29667 0.0
C768 C 0.08841 0.85484 0.29565 0.0
C769 C 0.18045 0.92186 0.29474 0.0
N770 N 0.16752 0.87935 0.30726 0.0
C771 C 0.18699 0.90361 0.30178 0.0
C772 C 0.15388 0.9149 0.29241 0.0
Tb773 Tb 0.17624 0.8484 0.31967 0.0
N774 N 0.13171 0.83026 0.31361 0.0
C775 C 0.1144 0.80428 0.3146 0.0
C776 C 0.07859 0.81088 0.30365 0.0
C777 C 0.08764 0.79427 0.30983 0.0
H778 H 0.20757 0.90913 0.3036 0.0
H779 H 0.07404 0.77371 0.31076 0.0
H780 H 0.06785 0.84825 0.29204 0.0
H781 H 0.19589 0.94124 0.29104 0.0
H782 H 0.12095 0.79105 0.31921 0.0
H783 H 0.29708 0.91309 0.37822 0.0
H784 H 0.058 0.80296 0.29939 0.0
H785 H 0.16004 0.78203 0.39094 0.0
H786 H 0.24995 0.8979 0.3725 0.0
H787 H 0.17015 0.74914 0.40416 0.0
H788 H 0.10096 0.89412 0.28734 0.0
H789 H 0.3118 0.88222 0.38791 0.0
H790 H 0.2998 0.83664 0.39666 0.0
H791 H 0.14887 0.92899 0.28673 0.0
H792 H 0.26516 0.79185 0.40375 0.0
N793 N 0.23756 0.85831 0.37822 0.0
C794 C 0.25581 0.88402 0.37669 0.0
C795 C 0.29098 0.87531 0.38521 0.0
C796 C 0.27217 0.84925 0.38772 0.0
C797 C 0.28272 0.89281 0.37989 0.0
C798 C 0.2453 0.84136 0.38428 0.0
H799 H 0.21665 0.75914 0.40704 0.0
N800 N 0.20041 0.81023 0.38587 0.0
C801 C 0.18606 0.76796 0.39966 0.0
C802 C 0.226 0.81636 0.3883 0.0
C803 C 0.18041 0.78667 0.39222 0.0
C804 C 0.21233 0.77365 0.40122 0.0
C805 C 0.23273 0.79826 0.39582 0.0
O806 O 0.1701 0.83245 0.39983 0.0
O807 O 0.16363 0.84053 0.35151 0.0
O808 O 0.17647 0.87916 0.33812 0.0
O809 O 0.20421 0.88204 0.36533 0.0
O810 O 0.15022 0.81412 0.37453 0.0
O811 O 0.20512 0.86956 0.39647 0.0
O812 O 0.19829 0.85987 0.29196 0.0
O813 O 0.20549 0.8495 0.34072 0.0
O814 O 0.19251 0.81055 0.35484 0.0
O815 O 0.16691 0.80824 0.32611 0.0
O816 O 0.219 0.87597 0.31775 0.0
O817 O 0.16611 0.82097 0.29579 0.0
C818 C 0.14263 0.82254 0.35915 0.0
C819 C 0.1935 0.85263 0.43043 0.0
C820 C 0.18881 0.85741 0.46772 0.0
C821 C 0.1824 0.85949 0.44692 0.0
C822 C 0.2063 0.84806 0.47163 0.0
C823 C 0.21123 0.84385 0.43479 0.0
C824 C 0.21748 0.84147 0.45527 0.0
C825 C 0.19208 0.89163 0.35402 0.0
C826 C 0.18607 0.8543 0.40885 0.0
C827 C 0.25952 0.80555 0.39824 0.0
C828 C 0.27923 0.83104 0.3942 0.0
C829 C 0.22653 0.8673 0.33299 0.0
C830 C 0.17501 0.83775 0.26171 0.0
C831 C 0.18734 0.83287 0.24495 0.0
C832 C 0.17894 0.83281 0.22437 0.0
C833 C 0.1582 0.83798 0.22089 0.0
C834 C 0.15428 0.84266 0.25781 0.0
C835 C 0.14599 0.84284 0.23752 0.0
C836 C 0.17862 0.79868 0.33803 0.0
C837 C 0.18387 0.83747 0.28311 0.0
H838 H 0.16907 0.86673 0.44348 0.0
H839 H 0.21125 0.84563 0.48738 0.0
H840 H 0.2202 0.83878 0.42243 0.0
H841 H 0.231 0.83443 0.45848 0.0
H842 H 0.20316 0.82874 0.24797 0.0
H843 H 0.15157 0.83855 0.20526 0.0
H844 H 0.14443 0.84627 0.27037 0.0
H845 H 0.13004 0.84678 0.23467 0.0
Tb846 Tb 0.83119 0.66191 0.65531 0.0
C847 C 0.8743 0.74233 0.72505 0.0
C848 C 0.91998 0.75355 0.72956 0.0
C849 C 0.90655 0.78517 0.73732 0.0
C850 C 0.8938 0.73578 0.72359 0.0
C851 C 0.88028 0.76693 0.73226 0.0
C852 C 0.92636 0.77845 0.73605 0.0
C853 C 0.8336 0.75281 0.73069 0.0
N854 N 0.84914 0.72407 0.72021 0.0
C855 C 0.82862 0.72858 0.7238 0.0
C856 C 0.85958 0.77219 0.7347 0.0
Tb857 Tb 0.84324 0.68515 0.70876 0.0
N858 N 0.88685 0.71157 0.71721 0.0
C859 C 0.90503 0.70346 0.71746 0.0
C860 C 0.93876 0.7455 0.72938 0.0
C861 C 0.93124 0.72034 0.72333 0.0
H862 H 0.80847 0.71373 0.72076 0.0
H863 H 0.94559 0.71388 0.72328 0.0
H864 H 0.94644 0.79248 0.7405 0.0
H865 H 0.81739 0.75651 0.73294 0.0
H866 H 0.89957 0.68405 0.71292 0.0
H867 H 0.7286 0.6335 0.64172 0.0
H868 H 0.95895 0.75836 0.7343 0.0
H869 H 0.86487 0.63308 0.64145 0.0
H870 H 0.77534 0.66386 0.64968 0.0
H871 H 0.85518 0.58962 0.63043 0.0
H872 H 0.91162 0.80428 0.74272 0.0
H873 H 0.71366 0.58746 0.63507 0.0
H874 H 0.72557 0.55269 0.62992 0.0
H875 H 0.86336 0.79089 0.74013 0.0
H876 H 0.7602 0.54074 0.62657 0.0
N877 N 0.78721 0.63546 0.64761 0.0
C878 C 0.76936 0.64395 0.64658 0.0
C879 C 0.73432 0.60076 0.63841 0.0
C880 C 0.75292 0.59248 0.63831 0.0
C881 C 0.74271 0.62675 0.64207 0.0
C882 C 0.77955 0.61063 0.64275 0.0
H883 H 0.80876 0.55459 0.62623 0.0
N884 N 0.82432 0.62263 0.64391 0.0
C885 C 0.83913 0.59337 0.63335 0.0
C886 C 0.79885 0.60395 0.64073 0.0
C887 C 0.84456 0.618 0.63952 0.0
C888 C 0.8129 0.57362 0.63105 0.0
C889 C 0.79235 0.57889 0.63442 0.0
O890 O 0.85578 0.67337 0.62896 0.0
O891 O 0.8585 0.6887 0.67776 0.0
O892 O 0.84478 0.71567 0.6895 0.0
O893 O 0.82062 0.69239 0.66039 0.0
O894 O 0.874 0.67585 0.6559 0.0
O895 O 0.82188 0.67857 0.63018 0.0
O896 O 0.81654 0.67055 0.73367 0.0
O897 O 0.81623 0.65839 0.68628 0.0
O898 O 0.82933 0.63138 0.6749 0.0
O899 O 0.85395 0.65475 0.70377 0.0
O900 O 0.80049 0.67133 0.70767 0.0
O901 O 0.85373 0.67134 0.7353 0.0
C902 C 0.88012 0.69128 0.67147 0.0
C903 C 0.83472 0.67145 0.5971 0.0
C904 C 0.83892 0.68044 0.55975 0.0
C905 C 0.84421 0.68921 0.58053 0.0
C906 C 0.82377 0.65377 0.55587 0.0
C907 C 0.81948 0.645 0.59274 0.0
C908 C 0.81405 0.63625 0.57226 0.0
C909 C 0.83151 0.7135 0.6722 0.0
C910 C 0.84126 0.68061 0.61878 0.0
C911 C 0.76569 0.56023 0.63117 0.0
C912 C 0.74598 0.56703 0.6331 0.0
C913 C 0.79446 0.65571 0.69221 0.0
C914 C 0.83516 0.67526 0.76702 0.0
C915 C 0.83007 0.65796 0.78357 0.0
C916 C 0.82954 0.66546 0.80441 0.0
C917 C 0.83433 0.69076 0.80801 0.0
C918 C 0.84088 0.70048 0.77141 0.0
C919 C 0.84044 0.70813 0.79174 0.0
C920 C 0.84266 0.63348 0.69217 0.0
C921 C 0.83226 0.66626 0.74526 0.0
H922 H 0.85602 0.70969 0.58379 0.0
H923 H 0.81912 0.64648 0.54009 0.0
H924 H 0.81184 0.63109 0.60512 0.0
H925 H 0.80227 0.61577 0.56907 0.0
H926 H 0.82634 0.63873 0.78 0.0
H927 H 0.83288 0.69731 0.82336 0.0
H928 H 0.845 0.71416 0.75917 0.0
H929 H 0.84423 0.72749 0.79485 0.0
Tb930 Tb 0.35566 0.16999 0.65692 0.0
C931 C 0.26892 0.12872 0.72275 0.0
C932 C 0.25603 0.16106 0.72752 0.0
C933 C 0.2242 0.11589 0.73378 0.0
C934 C 0.27497 0.15412 0.72178 0.0
C935 C 0.2436 0.1093 0.72905 0.0
C936 C 0.23046 0.14177 0.73315 0.0
C937 C 0.25944 0.07889 0.72773 0.0
N938 N 0.2884 0.12327 0.71855 0.0
C939 C 0.28438 0.09892 0.72192 0.0
C940 C 0.23885 0.08403 0.73107 0.0
Tb941 Tb 0.32845 0.15744 0.70886 0.0
N942 N 0.29982 0.17218 0.71613 0.0
C943 C 0.30724 0.19781 0.71656 0.0
C944 C 0.26358 0.18723 0.72798 0.0
C945 C 0.28924 0.20566 0.72235 0.0
H946 H 0.30018 0.09475 0.71941 0.0
H947 H 0.29525 0.22596 0.72265 0.0
H948 H 0.21554 0.1467 0.73738 0.0
H949 H 0.25614 0.05953 0.72972 0.0
H950 H 0.32701 0.2124 0.71242 0.0
H951 H 0.39078 0.10219 0.64699 0.0
H952 H 0.24993 0.19344 0.73301 0.0
H953 H 0.38319 0.23177 0.64377 0.0
H954 H 0.35759 0.11519 0.65348 0.0
H955 H 0.42753 0.26729 0.63437 0.0
H956 H 0.20456 0.10124 0.73852 0.0
H957 H 0.43718 0.13518 0.63982 0.0
H958 H 0.47115 0.18204 0.63501 0.0
H959 H 0.21962 0.06853 0.73577 0.0
H960 H 0.48129 0.22714 0.63182 0.0
N961 N 0.38483 0.15552 0.65059 0.0
C962 C 0.37767 0.12996 0.65038 0.0
C963 C 0.42271 0.1411 0.64284 0.0
C964 C 0.42975 0.16713 0.64227 0.0
C965 C 0.39651 0.12242 0.64674 0.0
C966 C 0.41003 0.17372 0.64598 0.0
H967 H 0.46504 0.25913 0.63134 0.0
N968 N 0.39561 0.20389 0.64664 0.0
C969 C 0.42448 0.24813 0.6371 0.0
C970 C 0.41569 0.19888 0.64405 0.0
C971 C 0.39935 0.22792 0.64234 0.0
C972 C 0.44563 0.24347 0.63546 0.0
C973 C 0.44127 0.21848 0.63855 0.0
O974 O 0.34432 0.18155 0.62978 0.0
O975 O 0.32569 0.16817 0.67752 0.0
O976 O 0.29904 0.12832 0.68821 0.0
O977 O 0.32621 0.12866 0.66159 0.0
O978 O 0.33924 0.1962 0.6558 0.0
O979 O 0.34101 0.14406 0.63169 0.0
O980 O 0.34123 0.14557 0.73494 0.0
O981 O 0.3588 0.15984 0.6884 0.0
O982 O 0.38478 0.19967 0.67723 0.0
O983 O 0.35834 0.19891 0.70469 0.0
O984 O 0.34442 0.13094 0.70945 0.0
O985 O 0.34077 0.18138 0.7355 0.0
C986 C 0.32246 0.18613 0.67063 0.0
C987 C 0.34868 0.16341 0.59857 0.0
C988 C 0.34008 0.15705 0.5612 0.0
C989 C 0.33083 0.15363 0.58183 0.0
C990 C 0.36757 0.17039 0.55771 0.0
C991 C 0.37594 0.17639 0.5947 0.0
C992 C 0.3853 0.17985 0.57437 0.0
C993 C 0.30351 0.11751 0.67193 0.0
C994 C 0.33844 0.16035 0.61986 0.0
C995 C 0.4614 0.21233 0.63583 0.0
C996 C 0.45563 0.18666 0.63764 0.0
C997 C 0.36179 0.14164 0.69507 0.0
C998 C 0.33426 0.15919 0.76744 0.0
C999 C 0.35125 0.17132 0.78438 0.0
C1000 C 0.34277 0.16324 0.80498 0.0
C1001 C 0.31648 0.14323 0.80805 0.0
C1002 C 0.30813 0.13982 0.77108 0.0
C1003 C 0.29928 0.13204 0.79127 0.0
C1004 C 0.38063 0.21031 0.69377 0.0
C1005 C 0.34492 0.16523 0.74617 0.0
H1006 H 0.30977 0.14323 0.58495 0.0
H1007 H 0.37545 0.17385 0.54209 0.0
H1008 H 0.38998 0.18401 0.60731 0.0
H1009 H 0.40639 0.19008 0.5715 0.0
H1010 H 0.37117 0.1867 0.78127 0.0
H1011 H 0.30912 0.13551 0.82332 0.0
H1012 H 0.29471 0.13016 0.75842 0.0
H1013 H 0.27919 0.1167 0.7939 0.0
Tb1014 Tb 0.85855 0.17791 0.70566 0.0
C1015 C 0.81442 0.21578 0.63664 0.0
C1016 C 0.76851 0.18273 0.63294 0.0
C1017 C 0.78219 0.22722 0.62429 0.0
C1018 C 0.79477 0.19038 0.63863 0.0
C1019 C 0.80853 0.23443 0.62897 0.0
C1020 C 0.76221 0.20138 0.62623 0.0
C1021 C 0.85542 0.26513 0.62891 0.0
N1022 N 0.83965 0.22185 0.64097 0.0
C1023 C 0.86028 0.2459 0.63636 0.0
C1024 C 0.82941 0.25948 0.62547 0.0
Tb1025 Tb 0.84551 0.18884 0.65266 0.0
N1026 N 0.80169 0.17294 0.64505 0.0
C1027 C 0.78334 0.14718 0.64517 0.0
C1028 C 0.7496 0.15648 0.63349 0.0
C1029 C 0.75705 0.13863 0.63963 0.0
H1030 H 0.88045 0.25044 0.63894 0.0
H1031 H 0.74259 0.11826 0.63995 0.0
H1032 H 0.74208 0.19592 0.62201 0.0
H1033 H 0.87174 0.28428 0.62581 0.0
H1034 H 0.78874 0.13306 0.64973 0.0
H1035 H 0.96236 0.24857 0.71491 0.0
H1036 H 0.72937 0.14973 0.62871 0.0
H1037 H 0.8246 0.11728 0.72169 0.0
H1038 H 0.91544 0.23395 0.70848 0.0
H1039 H 0.83396 0.08346 0.73386 0.0
H1040 H 0.77719 0.2413 0.61857 0.0
H1041 H 0.97657 0.21692 0.72316 0.0
H1042 H 0.96401 0.17076 0.73017 0.0
H1043 H 0.82571 0.27437 0.61959 0.0
H1044 H 0.92896 0.12565 0.73541 0.0
N1045 N 0.90277 0.194 0.71239 0.0
C1046 C 0.92111 0.21977 0.71208 0.0
C1047 C 0.95586 0.21029 0.72022 0.0
C1048 C 0.93687 0.18413 0.72164 0.0
C1049 C 0.94789 0.22822 0.71569 0.0
C1050 C 0.91017 0.17659 0.71779 0.0
H1051 H 0.88027 0.093 0.73732 0.0
N1052 N 0.8652 0.14553 0.71783 0.0
C1053 C 0.85011 0.10247 0.7301 0.0
C1054 C 0.89065 0.15139 0.72065 0.0
C1055 C 0.84487 0.1217 0.72326 0.0
C1056 C 0.87627 0.10791 0.73199 0.0
C1057 C 0.89697 0.13275 0.72756 0.0
O1058 O 0.83405 0.16671 0.73204 0.0
O1059 O 0.83084 0.17869 0.68389 0.0
O1060 O 0.84529 0.2189 0.67181 0.0
O1061 O 0.86981 0.21868 0.7004 0.0
O1062 O 0.81566 0.15064 0.70567 0.0
O1063 O 0.86951 0.20381 0.73085 0.0
O1064 O 0.87122 0.19984 0.6271 0.0
O1065 O 0.87298 0.18754 0.67434 0.0
O1066 O 0.85803 0.1475 0.68681 0.0
O1067 O 0.83455 0.14789 0.65749 0.0
O1068 O 0.88835 0.21608 0.65298 0.0
O1069 O 0.83399 0.16438 0.62632 0.0
C1070 C 0.80927 0.16037 0.69046 0.0
C1071 C 0.85571 0.18431 0.7638 0.0
C1072 C 0.8489 0.1864 0.80103 0.0
C1073 C 0.8442 0.19063 0.78032 0.0
C1074 C 0.86532 0.17587 0.80497 0.0
C1075 C 0.87234 0.17421 0.76813 0.0
C1076 C 0.87704 0.16996 0.7886 0.0
C1077 C 0.85897 0.22952 0.68901 0.0
C1078 C 0.84965 0.18775 0.74223 0.0
C1079 C 0.92362 0.13975 0.73038 0.0
C1080 C 0.94357 0.16543 0.72741 0.0
C1081 C 0.89462 0.20584 0.66788 0.0
C1082 C 0.85145 0.18564 0.5942 0.0
C1083 C 0.85789 0.17427 0.57771 0.0
C1084 C 0.85792 0.18198 0.5569 0.0
C1085 C 0.85102 0.20118 0.55322 0.0
C1086 C 0.84372 0.20386 0.5898 0.0
C1087 C 0.84352 0.21156 0.56946 0.0
C1088 C 0.8449 0.13697 0.6694 0.0
C1089 C 0.8551 0.18 0.6159 0.0
H1090 H 0.83137 0.1985 0.77706 0.0
H1091 H 0.86947 0.17267 0.82076 0.0
H1092 H 0.88168 0.16959 0.75576 0.0
H1093 H 0.88987 0.1621 0.79178 0.0
H1094 H 0.86311 0.15969 0.58133 0.0
H1095 H 0.85189 0.20883 0.53785 0.0
H1096 H 0.83848 0.2127 0.602 0.0
H1097 H 0.83813 0.22613 0.56632 0.0
C1098 C 0.3409 0.86395 0.07311 0.0
C1099 C 0.32005 0.84754 0.05991 0.0
C1100 C 0.36352 0.88565 0.06536 0.0
C1101 C 0.36532 0.89135 0.04387 0.0
C1102 C 0.3445 0.87468 0.03038 0.0
C1103 C 0.32216 0.85286 0.03854 0.0
C1104 C 0.38544 0.90263 0.08027 0.0
C1105 C 0.34564 0.88014 0.00742 0.0
C1106 C 0.41263 0.9622 0.03277 0.0
C1107 C 0.43583 0.96203 0.02751 0.0
C1108 C 0.38901 0.93911 0.03674 0.0
C1109 C 0.38872 0.91528 0.03589 0.0
C1110 C 0.41186 0.91494 0.02971 0.0
C1111 C 0.43516 0.93833 0.02578 0.0
C1112 C 0.36473 0.94038 0.04294 0.0
C1113 C 0.41262 0.89009 0.02856 0.0
H1114 H 0.33958 0.85967 0.08957 0.0
H1115 H 0.30606 0.84026 0.02829 0.0
H1116 H 0.40441 0.90437 0.07509 0.0
H1117 H 0.38807 0.92233 0.0804 0.0
H1118 H 0.38141 0.89503 0.09639 0.0
H1119 H 0.32822 0.86494 0.9989 0.0
H1120 H 0.34657 0.89895 0.00494 0.0
H1121 H 0.36384 0.88169 1.00064 0.0
H1122 H 0.41318 0.98053 0.03432 0.0
H1123 H 0.45308 0.93798 0.02233 0.0
H1124 H 0.36046 0.93536 0.05961 0.0
H1125 H 0.34726 0.92615 0.03392 0.0
H1126 H 0.36728 0.95989 0.0405 0.0
H1127 H 0.41322 0.88344 0.04453 0.0
H1128 H 0.43029 0.89255 0.02003 0.0
H1129 H 0.39462 0.87471 0.02082 0.0
C1130 C 0.15972 0.47998 0.07439 0.0
C1131 C 0.17485 0.47432 0.06066 0.0
C1132 C 0.13754 0.48136 0.06748 0.0
C1133 C 0.13002 0.47687 0.04626 0.0
C1134 C 0.14553 0.47168 0.03222 0.0
C1135 C 0.16778 0.4706 0.03954 0.0
C1136 C 0.12186 0.48721 0.08302 0.0
C1137 C 0.13839 0.46689 0.0095 0.0
C1138 C 0.05694 0.4535 0.03635 0.0
C1139 C 0.05732 0.47626 0.03053 0.0
C1140 C 0.0805 0.45321 0.04055 0.0
C1141 C 0.1052 0.47637 0.03918 0.0
C1142 C 0.10574 0.49931 0.03271 0.0
C1143 C 0.08182 0.49902 0.02869 0.0
C1144 C 0.07885 0.42825 0.04718 0.0
C1145 C 0.13147 0.52444 0.03085 0.0
H1146 H 0.16526 0.48336 0.09066 0.0
H1147 H 0.17924 0.46613 0.02881 0.0
H1148 H 0.12037 0.50414 0.07785 0.0
H1149 H 0.10142 0.47059 0.08404 0.0
H1150 H 0.13086 0.49125 0.09879 0.0
H1151 H 0.15194 0.46238 1.00066 0.0
H1152 H 0.11787 0.45061 0.00767 0.0
H1153 H 0.13914 0.48423 1.00259 0.0
H1154 H 0.03805 0.43591 0.03797 0.0
H1155 H 0.08238 0.51684 0.02472 0.0
H1156 H 0.08562 0.42993 0.06353 0.0
H1157 H 0.09212 0.42424 0.03748 0.0
H1158 H 0.05842 0.41158 0.04598 0.0
H1159 H 0.13999 0.53131 0.04656 0.0
H1160 H 0.1288 0.53968 0.02325 0.0
H1161 H 0.14602 0.52167 0.0218 0.0
C1162 C 0.51204 0.67556 0.06429 0.0
C1163 C 0.53579 0.69913 0.06337 0.0
C1164 C 0.51076 0.65261 0.05751 0.0
C1165 C 0.53366 0.65342 0.04921 0.0
C1166 C 0.55748 0.67736 0.04768 0.0
C1167 C 0.55835 0.6999 0.05503 0.0
C1168 C 0.48514 0.62741 0.05979 0.0
C1169 C 0.58212 0.67912 0.03845 0.0
C1170 C 0.53873 0.59241 0.05056 0.0
C1171 C 0.53033 0.58241 0.03047 0.0
C1172 C 0.5398 0.61543 0.05687 0.0
C1173 C 0.53285 0.62912 0.04264 0.0
C1174 C 0.52477 0.61939 0.02226 0.0
C1175 C 0.52322 0.596 0.01656 0.0
C1176 C 0.54798 0.62487 0.07889 0.0
C1177 C 0.51758 0.63359 0.0065 0.0
H1178 H 0.49469 0.67498 0.07095 0.0
H1179 H 0.57667 0.7182 0.05426 0.0
H1180 H 0.47859 0.61765 0.04449 0.0
H1181 H 0.4882 0.6143 0.07014 0.0
H1182 H 0.46907 0.63013 0.06632 0.0
H1183 H 0.59859 0.69937 0.03732 0.0
H1184 H 0.58878 0.66807 0.04813 0.0
H1185 H 0.57777 0.67035 0.0227 0.0
H1186 H 0.54407 0.58207 0.06157 0.0
H1187 H 0.51612 0.58829 1.00123 0.0
H1188 H 0.53199 0.62659 0.08674 0.0
H1189 H 0.56581 0.64435 0.07884 0.0
H1190 H 0.55236 0.61176 0.08815 0.0
H1191 H 0.49995 0.63443 0.01182 0.0
H1192 H 0.51321 0.62422 0.99095 0.0
H1193 H 0.53401 0.65377 0.00494 0.0
C1194 C 0.85192 0.32829 0.95291 0.0
C1195 C 0.8411 0.30622 0.96542 0.0
C1196 C 0.87317 0.35176 0.95996 0.0
C1197 C 0.8843 0.35301 0.97981 0.0
C1198 C 0.87351 0.33067 0.99246 0.0
C1199 C 0.85179 0.30759 0.9852 0.0
C1200 C 0.88361 0.37526 0.94621 0.0
C1201 C 0.88516 0.33106 0.01352 0.0
C1202 C 0.95462 0.40835 0.98832 0.0
C1203 C 0.95029 0.4257 1.00002 0.0
C1204 C 0.93339 0.38433 0.98211 0.0
C1205 C 0.90715 0.37777 0.98731 0.0
C1206 C 0.90271 0.39523 0.99914 0.0
C1207 C 0.92432 0.41883 0.00551 0.0
C1208 C 0.93901 0.36601 0.96992 0.0
C1209 C 0.87508 0.38931 0.00467 0.0
H1210 H 0.84349 0.3272 0.93765 0.0
H1211 H 0.84348 0.29043 0.99479 0.0
H1212 H 0.88278 0.3911 0.95456 0.0
H1213 H 0.90464 0.38227 0.94237 0.0
H1214 H 0.87222 0.37124 0.93148 0.0
H1215 H 0.87473 0.31197 0.0213 0.0
H1216 H 0.90635 0.33689 0.01187 0.0
H1217 H 0.88418 0.34555 0.0237 0.0
H1218 H 0.97464 0.41345 0.98415 0.0
H1219 H 0.92075 0.43216 0.01446 0.0
H1220 H 0.92999 0.36284 0.95423 0.0
H1221 H 0.92994 0.34697 0.97775 0.0
H1222 H 0.96056 0.37337 0.96816 0.0
H1223 H 0.86362 0.38701 0.99026 0.0
H1224 H 0.87506 0.40472 0.01434 0.0
H1225 H 0.86463 0.37083 0.01327 0.0
C1226 C 0.68805 0.53715 0.95818 0.0
C1227 C 0.70889 0.54133 0.97159 0.0
C1228 C 0.66486 0.53601 0.96568 0.0
C1229 C 0.66227 0.53926 0.98719 0.0
C1230 C 0.68307 0.54324 1.00089 0.0
C1231 C 0.70605 0.54409 0.99296 0.0
C1232 C 0.64312 0.53143 0.9505 0.0
C1233 C 0.68111 0.54686 0.0239 0.0
C1234 C 0.61224 0.56076 0.9997 0.0
C1235 C 0.58969 0.53736 0.0048 0.0
C1236 C 0.63635 0.56187 0.99499 0.0
C1237 C 0.63792 0.53894 0.99508 0.0
C1238 C 0.61538 0.51537 1.0009 0.0
C1239 C 0.59156 0.51486 0.00552 0.0
C1240 C 0.65985 0.58745 0.98903 0.0
C1241 C 0.61592 0.49039 1.00121 0.0
H1242 H 0.68979 0.5345 0.94171 0.0
H1243 H 0.72202 0.54742 1.00344 0.0
H1244 H 0.62427 0.51425 0.95521 0.0
H1245 H 0.63984 0.54818 0.95062 0.0
H1246 H 0.64779 0.52844 0.93436 0.0
H1247 H 0.69903 0.55003 0.0325 0.0
H1248 H 0.6782 0.56361 0.02665 0.0
H1249 H 0.66364 0.52963 0.03041 0.0
H1250 H 0.61081 0.57814 0.99888 0.0
H1251 H 0.57414 0.49658 0.00893 0.0
H1252 H 0.6643 0.58713 0.97231 0.0
H1253 H 0.67762 0.59089 0.99796 0.0
H1254 H 0.65629 0.60381 0.99179 0.0
H1255 H 0.61706 0.48454 0.98505 0.0
H1256 H 0.598 0.47452 0.00866 0.0
H1257 H 0.63365 0.49288 0.00963 0.0
C1258 C 0.51081 0.17543 0.96153 0.0
C1259 C 0.48893 0.17864 0.96503 0.0
C1260 C 0.51155 0.1539 0.96937 0.0
C1261 C 0.49015 0.13551 0.98143 0.0
C1262 C 0.46843 0.13922 0.98565 0.0
C1263 C 0.46789 0.16058 0.97711 0.0
C1264 C 0.53479 0.15037 0.96411 0.0
C1265 C 0.44561 0.12043 0.99891 0.0
C1266 C 0.47928 0.06733 0.9832 0.0
C1267 C 0.49244 0.06779 1.00163 0.0
C1268 C 0.47825 0.08917 0.97654 0.0
C1269 C 0.49008 0.11188 0.98884 0.0
C1270 C 0.50276 0.11227 0.00773 0.0
C1271 C 0.5042 0.09042 0.01367 0.0
C1272 C 0.46514 0.08817 0.95603 0.0
C1273 C 0.5152 0.13591 0.02149 0.0
H1274 H 0.52691 0.18931 0.95197 0.0
H1275 H 0.45101 0.16317 0.97981 0.0
H1276 H 0.5442 0.14857 0.97852 0.0
H1277 H 0.52783 0.13224 0.95513 0.0
H1278 H 0.55001 0.16666 0.95484 0.0
H1279 H 0.43124 0.12711 1.00201 0.0
H1280 H 0.43503 0.10137 0.99105 0.0
H1281 H 0.45307 0.11756 0.01397 0.0
H1282 H 0.47026 0.05009 0.97364 0.0
H1283 H 0.51498 0.09134 0.02762 0.0
H1284 H 0.47972 0.10308 0.94542 0.0
H1285 H 0.44894 0.09254 0.95837 0.0
H1286 H 0.45684 0.06903 0.94832 0.0
H1287 H 0.5324 0.15186 0.0135 0.0
H1288 H 0.52207 0.13227 0.03656 0.0
H1289 H 0.50084 0.14255 0.02462 0.0
C1290 C 0.66665 0.15858 0.96729 0.0
C1291 C 0.68482 0.17246 0.98306 0.0
C1292 C 0.64539 0.13359 0.97095 0.0
C1293 C 0.64228 0.12231 0.99087 0.0
C1294 C 0.66145 0.13594 0.0065 0.0
C1295 C 0.68235 0.16095 1.00245 0.0
C1296 C 0.62552 0.1198 0.95381 0.0
C1297 C 0.65909 0.12484 0.02789 0.0
C1298 C 0.5714 0.07326 0.00528 0.0
C1299 C 0.57051 0.04975 1.00146 0.0
C1300 C 0.59489 0.09691 1.00279 0.0
C1301 C 0.61801 0.09719 0.99566 0.0
C1302 C 0.61736 0.07349 0.99206 0.0
C1303 C 0.5936 0.05007 0.99493 0.0
C1304 C 0.59467 0.12162 0.0072 0.0
C1305 C 0.64157 0.0729 0.98462 0.0
H1306 H 0.66841 0.16776 0.95241 0.0
H1307 H 0.69623 0.17196 0.01472 0.0
H1308 H 0.62245 0.10009 0.95157 0.0
H1309 H 0.60616 0.11774 0.95821 0.0
H1310 H 0.63181 0.1303 0.93881 0.0
H1311 H 0.67788 0.13533 0.03681 0.0
H1312 H 0.64352 0.12639 0.03654 0.0
H1313 H 0.65328 0.10415 0.02701 0.0
H1314 H 0.55362 0.07334 0.00971 0.0
H1315 H 0.5929 0.03194 0.99169 0.0
H1316 H 0.59827 0.13275 0.99261 0.0
H1317 H 0.61079 0.13382 0.01821 0.0
H1318 H 0.57557 0.11803 0.0139 0.0
H1319 H 0.64724 0.08183 0.969 0.0
H1320 H 0.63827 0.05294 0.98368 0.0
H1321 H 0.6585 0.08439 0.99521 0.0
C1322 C 0.85538 0.52339 1.00352 0.0
C1323 C 0.84287 0.51506 0.9842 0.0
C1324 C 0.88075 0.5268 0.00708 0.0
C1325 C 0.89384 0.52125 0.99106 0.0
C1326 C 0.88163 0.51383 0.9712 0.0
C1327 C 0.85628 0.51079 0.96802 0.0
C1328 C 0.89254 0.53465 0.02849 0.0
C1329 C 0.8948 0.50788 0.95357 0.0
C1330 C 0.96769 0.5433 0.99522 0.0
C1331 C 0.96726 0.52057 1.00133 0.0
C1332 C 0.94408 0.54401 0.99224 0.0
C1333 C 0.91929 0.5214 0.99536 0.0
C1334 C 0.91879 0.49854 1.00195 0.0
C1335 C 0.94267 0.4983 0.00444 0.0
C1336 C 0.94564 0.56886 0.9854 0.0
C1337 C 0.89299 0.47408 0.00597 0.0
H1338 H 0.84479 0.52621 0.01615 0.0
H1339 H 0.84639 0.50388 0.95317 0.0
H1340 H 0.88855 0.51703 0.03711 0.0
H1341 H 0.91425 0.54772 0.0278 0.0
H1342 H 0.88363 0.54439 0.03732 0.0
H1343 H 0.88382 0.50441 0.9387 0.0
H1344 H 0.9153 0.52404 0.95141 0.0
H1345 H 0.89608 0.49044 0.95738 0.0
H1346 H 0.98659 0.5605 0.99244 0.0
H1347 H 0.94189 0.48043 0.0084 0.0
H1348 H 0.9349 0.57447 0.99657 0.0
H1349 H 0.93584 0.56605 0.97006 0.0
H1350 H 0.96637 0.58494 0.98418 0.0
H1351 H 0.88079 0.47794 0.01703 0.0
H1352 H 0.896 0.45852 0.01247 0.0
H1353 H 0.88161 0.46707 0.99126 0.0
C1354 C 0.51131 0.33206 0.97778 0.0
C1355 C 0.5318 0.33751 0.96374 0.0
C1356 C 0.50558 0.3513 0.98396 0.0
C1357 C 0.52064 0.37655 0.97583 0.0
C1358 C 0.54058 0.38186 0.96097 0.0
C1359 C 0.54596 0.3623 0.95514 0.0
C1360 C 0.48429 0.34493 0.99994 0.0
C1361 C 0.55697 0.4085 0.95184 0.0
C1362 C 0.49781 0.42578 0.98281 0.0
C1363 C 0.5135 0.44032 0.99966 0.0
C1364 C 0.49954 0.40465 0.97503 0.0
C1365 C 0.51737 0.39798 0.98432 0.0
C1366 C 0.53294 0.41239 1.00149 0.0
C1367 C 0.53091 0.43338 0.00883 0.0
C1368 C 0.48274 0.38981 0.95662 0.0
C1369 C 0.55228 0.40606 0.01187 0.0
H1370 H 0.50045 0.31302 0.98462 0.0
H1371 H 0.56155 0.36651 0.94405 0.0
H1372 H 0.49344 0.35535 0.01463 0.0
H1373 H 0.47048 0.35144 0.99457 0.0
H1374 H 0.47276 0.32393 1.00328 0.0
H1375 H 0.57011 0.40892 0.93919 0.0
H1376 H 0.54395 0.41552 0.9456 0.0
H1377 H 0.56942 0.42221 0.96417 0.0
H1378 H 0.48444 0.43108 0.97551 0.0
H1379 H 0.54362 0.44477 0.02149 0.0
H1380 H 0.471 0.36896 0.96035 0.0
H1381 H 0.49565 0.39179 0.94329 0.0
H1382 H 0.469 0.39666 0.95176 0.0
H1383 H 0.54193 0.38564 0.017 0.0
H1384 H 0.56216 0.41858 0.02557 0.0
H1385 H 0.56772 0.40844 1.00062 0.0
C1386 C 0.18668 0.66289 0.06558 0.0
C1387 C 0.19422 0.68587 0.0548 0.0
C1388 C 0.16151 0.64117 0.06278 0.0
C1389 C 0.14357 0.6423 0.04853 0.0
C1390 C 0.15057 0.66595 0.03847 0.0
C1391 C 0.1758 0.68756 0.04185 0.0
C1392 C 0.1548 0.61652 0.07405 0.0
C1393 C 0.13217 0.66793 0.02302 0.0
C1394 C 0.09915 0.57928 0.02052 0.0
C1395 C 0.07471 0.57034 0.03047 0.0
C1396 C 0.12131 0.60287 0.02592 0.0
C1397 C 0.11938 0.61797 0.04204 0.0
C1398 C 0.09486 0.60913 0.0523 0.0
C1399 C 0.07276 0.58543 0.04636 0.0
C1400 C 0.14698 0.61143 0.01449 0.0
C1401 C 0.09213 0.62449 0.06977 0.0
H1402 H 0.20089 0.66165 0.07572 0.0
H1403 H 0.18167 0.70529 0.03342 0.0
H1404 H 0.13474 0.60782 0.08092 0.0
H1405 H 0.15472 0.60233 0.06287 0.0
H1406 H 0.16926 0.61974 0.08659 0.0
H1407 H 0.13898 0.68824 0.01858 0.0
H1408 H 0.13102 0.65692 0.00878 0.0
H1409 H 0.11188 0.6593 0.02943 0.0
H1410 H 0.10124 0.56761 0.00865 0.0
H1411 H 0.05406 0.57868 0.05426 0.0
H1412 H 0.16242 0.61311 0.0255 0.0
H1413 H 0.15407 0.63077 0.00757 0.0
H1414 H 0.14495 0.59781 1.00191 0.0
H1415 H 0.10536 0.62613 0.08282 0.0
H1416 H 0.07153 0.61551 0.07565 0.0
H1417 H 0.09838 0.64437 0.0645 0.0
C1418 C 0.35109 0.49817 0.05929 0.0
C1419 C 0.3334 0.49425 0.04307 0.0
C1420 C 0.37355 0.49555 0.05599 0.0
C1421 C 0.37844 0.48881 0.03598 0.0
C1422 C 0.3599 0.48377 0.01982 0.0
C1423 C 0.33781 0.48682 0.0235 0.0
C1424 C 0.3927 0.50116 0.07368 0.0
C1425 C 0.36402 0.47639 0.99833 0.0
C1426 C 0.45046 0.51002 0.023 0.0
C1427 C 0.45147 0.48739 0.02655 0.0
C1428 C 0.42671 0.51056 0.02537 0.0
C1429 C 0.40339 0.48801 0.03184 0.0
C1430 C 0.40425 0.46499 0.03508 0.0
C1431 C 0.42825 0.465 0.0325 0.0
C1432 C 0.42681 0.53548 0.02144 0.0
C1433 C 0.37993 0.44045 0.04173 0.0
H1434 H 0.34804 0.50453 0.07429 0.0
H1435 H 0.32444 0.48434 0.01084 0.0
H1436 H 0.39626 0.48474 0.07591 0.0
H1437 H 0.41202 0.51836 0.06991 0.0
H1438 H 0.38544 0.50484 0.08853 0.0
H1439 H 0.34622 0.46974 0.98833 0.0
H1440 H 0.38075 0.49338 0.99088 0.0
H1441 H 0.36917 0.46088 0.99912 0.0
H1442 H 0.46838 0.52754 0.01883 0.0
H1443 H 0.42898 0.44751 0.03545 0.0
H1444 H 0.42207 0.54223 0.03603 0.0
H1445 H 0.41134 0.53233 0.00988 0.0
H1446 H 0.44622 0.55095 0.01563 0.0
H1447 H 0.37339 0.44329 0.0572 0.0
H1448 H 0.38351 0.42387 0.04265 0.0
H1449 H 0.36347 0.43553 0.03066 0.0
C1450 C 0.4823 0.83151 0.0666 0.0
C1451 C 0.49725 0.8216 0.05753 0.0
C1452 C 0.48728 0.85647 0.06197 0.0
C1453 C 0.50761 0.87187 0.04779 0.0
C1454 C 0.52356 0.86242 0.03928 0.0
C1455 C 0.51825 0.8374 0.04433 0.0
C1456 C 0.46995 0.86588 0.07151 0.0
C1457 C 0.54527 0.87817 0.02399 0.0
C1458 C 0.49544 0.91903 0.01711 0.0
C1459 C 0.51164 0.9425 0.02738 0.0
C1460 C 0.49463 0.89619 0.02322 0.0
C1461 C 0.5102 0.89658 0.04026 0.0
C1462 C 0.52693 0.92021 0.05058 0.0
C1463 C 0.52749 0.94293 0.044 0.0
C1464 C 0.47644 0.87145 0.01177 0.0
C1465 C 0.54364 0.92135 0.06892 0.0
H1466 H 0.4663 0.81949 0.07706 0.0
H1467 H 0.52976 0.82977 0.03719 0.0
H1468 H 0.48229 0.88531 0.07846 0.0
H1469 H 0.45752 0.86764 0.05927 0.0
H1470 H 0.45672 0.85261 0.0837 0.0
H1471 H 0.55758 0.86924 0.02045 0.0
H1472 H 0.53641 0.88004 0.00929 0.0
H1473 H 0.55827 0.89794 0.03011 0.0
H1474 H 0.48265 0.9182 0.0046 0.0
H1475 H 0.53999 0.96091 0.05211 0.0
H1476 H 0.46081 0.85778 0.02243 0.0
H1477 H 0.48766 0.86208 0.00631 0.0
H1478 H 0.46673 0.87471 0.99816 0.0
H1479 H 0.53063 0.90988 0.08192 0.0
H1480 H 0.55679 0.94142 0.07445 0.0
H1481 H 0.55598 0.91267 0.06478 0.0
C1482 C 1.00802 0.19561 0.40621 0.0
C1483 C 0.98751 0.1787 0.39296 0.0
C1484 C 0.03054 0.2174 0.39846 0.0
C1485 C 0.03257 0.22275 0.3769 0.0
C1486 C 0.0121 0.20556 0.36335 0.0
C1487 C 0.98987 0.18359 0.37153 0.0
C1488 C 0.05208 0.23486 0.41345 0.0
C1489 C 0.01343 0.2107 0.34033 0.0
C1490 C 0.07895 0.29385 0.36608 0.0
C1491 C 0.10256 0.29425 0.36126 0.0
C1492 C 0.05548 0.27046 0.36965 0.0
C1493 C 0.05578 0.2469 0.36896 0.0
C1494 C 0.07936 0.24714 0.36324 0.0
C1495 C 0.10248 0.27082 0.3596 0.0
C1496 C 0.03072 0.27113 0.3753 0.0
C1497 C 0.08078 0.22262 0.36234 0.0
H1498 H 1.00648 0.19167 0.42274 0.0
H1499 H 0.97406 0.17057 0.36124 0.0
H1500 H 0.07134 0.23712 0.40851 0.0
H1501 H 0.05411 0.25434 0.4134 0.0
H1502 H 0.04802 0.22738 0.42961 0.0
H1503 H 0.99652 0.19495 0.33175 0.0
H1504 H 0.01345 0.22902 0.33755 0.0
H1505 H 0.03212 0.21304 0.33386 0.0
H1506 H 0.07904 0.31196 0.36755 0.0
H1507 H 0.12072 0.27093 0.35647 0.0
H1508 H 0.02619 0.26626 0.39197 0.0
H1509 H 0.0136 0.25654 0.36617 0.0
H1510 H 0.03282 0.29041 0.37256 0.0
H1511 H 0.08102 0.21598 0.37838 0.0
H1512 H 0.09886 0.22551 0.35422 0.0
H1513 H 0.06319 0.20706 0.35432 0.0
C1514 C 0.83 0.79806 0.37028 0.0
C1515 C 0.83617 0.80135 0.39159 0.0
C1516 C 0.80807 0.79929 0.36235 0.0
C1517 C 0.79195 0.80413 0.37598 0.0
C1518 C 0.79836 0.80793 0.39743 0.0
C1519 C 0.82027 0.80646 0.40493 0.0
C1520 C 0.80198 0.79515 0.33941 0.0
C1521 C 0.78193 0.8134 0.41253 0.0
C1522 C 0.74659 0.82876 0.35661 0.0
C1523 C 0.72162 0.80639 0.35738 0.0
C1524 C 0.76976 0.82813 0.36167 0.0
C1525 C 0.76797 0.80463 0.36808 0.0
C1526 C 0.74283 0.78185 0.36837 0.0
C1527 C 0.72001 0.78305 0.36314 0.0
C1528 C 0.79599 0.85291 0.36101 0.0
C1529 C 0.73991 0.75634 0.37496 0.0
H1530 H 0.842 0.79396 0.35984 0.0
H1531 H 0.82508 0.80952 0.42134 0.0
H1532 H 0.78156 0.7789 0.33694 0.0
H1533 H 0.80292 0.81261 0.33257 0.0
H1534 H 0.81597 0.79094 0.33092 0.0
H1535 H 0.78984 0.81647 0.42863 0.0
H1536 H 0.78122 0.83082 0.40759 0.0
H1537 H 0.76128 0.79705 0.41259 0.0
H1538 H 0.74803 0.84701 0.35269 0.0
H1539 H 0.70074 0.76579 0.36401 0.0
H1540 H 0.81074 0.85005 0.35233 0.0
H1541 H 0.80365 0.85882 0.37706 0.0
H1542 H 0.79437 0.86887 0.35362 0.0
H1543 H 0.75362 0.75222 0.36598 0.0
H1544 H 0.71941 0.74009 0.37275 0.0
H1545 H 0.74528 0.75727 0.39161 0.0
C1546 C 0.21185 0.03219 0.37971 0.0
C1547 C 0.20175 0.03148 0.39956 0.0
C1548 C 0.2111 0.01017 0.37117 0.0
C1549 C 0.19933 0.98682 0.38259 0.0
C1550 C 0.18861 0.98598 0.4025 0.0
C1551 C 0.19027 0.00845 0.41085 0.0
C1552 C 0.22327 0.01198 0.35012 0.0
C1553 C 0.17535 0.96135 0.41496 0.0
C1554 C 0.17564 0.92305 0.35437 0.0
C1555 C 0.195 0.9168 0.36011 0.0
C1556 C 0.17696 0.94593 0.36133 0.0
C1557 C 0.19849 0.96329 0.37394 0.0
C1558 C 0.21862 0.95753 0.37911 0.0
C1559 C 0.21646 0.9342 0.37234 0.0
C1560 C 0.15479 0.95102 0.35582 0.0
C1561 C 0.24223 0.97583 0.39208 0.0
H1562 H 0.22083 0.05014 0.37108 0.0
H1563 H 0.18234 0.008 0.42617 0.0
H1564 H 0.23922 0.00705 0.35148 0.0
H1565 H 0.20822 0.99782 0.33926 0.0
H1566 H 0.23172 0.03156 0.34328 0.0
H1567 H 0.16698 0.96368 0.42977 0.0
H1568 H 0.15917 0.94577 0.40572 0.0
H1569 H 0.18979 0.95497 0.41862 0.0
H1570 H 0.15893 0.90965 0.34498 0.0
H1571 H 0.2316 0.92959 0.37668 0.0
H1572 H 0.16281 0.97027 0.34852 0.0
H1573 H 0.14436 0.95116 0.37018 0.0
H1574 H 0.14017 0.93623 0.34503 0.0
H1575 H 0.25185 0.99547 0.38526 0.0
H1576 H 0.25715 0.96949 0.39335 0.0
H1577 H 0.23569 0.97726 0.40795 0.0
C1578 C 0.50445 0.66087 0.30027 0.0
C1579 C 0.50698 0.6388 0.29872 0.0
C1580 C 0.52599 0.68476 0.30637 0.0
C1581 C 0.5505 0.6865 0.31143 0.0
C1582 C 0.55294 0.6641 0.31034 0.0
C1583 C 0.53124 0.64059 0.30379 0.0
C1584 C 0.52267 0.70824 0.30699 0.0
C1585 C 0.57851 0.66498 0.31604 0.0
C1586 C 0.61375 0.75186 0.30873 0.0
C1587 C 0.6174 0.75997 0.32958 0.0
C1588 C 0.592 0.72813 0.30259 0.0
C1589 C 0.57365 0.71179 0.31768 0.0
C1590 C 0.57736 0.7197 0.33874 0.0
C1591 C 0.59894 0.74375 0.34434 0.0
C1592 C 0.58849 0.72068 0.2799 0.0
C1593 C 0.55856 0.70275 0.35542 0.0
H1594 H 0.48579 0.65959 0.29614 0.0
H1595 H 0.53318 0.6235 0.30272 0.0
H1596 H 0.52712 0.71682 0.3228 0.0
H1597 H 0.53692 0.72314 0.29621 0.0
H1598 H 0.50234 0.70366 0.30261 0.0
H1599 H 0.57688 0.64567 0.31511 0.0
H1600 H 0.59452 0.67828 0.30548 0.0
H1601 H 0.5845 0.67259 0.33206 0.0
H1602 H 0.62763 0.76425 0.29707 0.0
H1603 H 0.6013 0.74973 0.36036 0.0
H1604 H 0.569 0.71732 0.27432 0.0
H1605 H 0.58869 0.70236 0.27778 0.0
H1606 H 0.60422 0.73573 0.27004 0.0
H1607 H 0.53838 0.69936 0.35222 0.0
H1608 H 0.56469 0.71137 0.37117 0.0
H1609 H 0.5574 0.68364 0.35535 0.0
C1610 C 0.36863 0.87369 0.3223 0.0
C1611 C 0.37155 0.86991 0.30113 0.0
C1612 C 0.34546 0.87279 0.3298 0.0
C1613 C 0.3245 0.86774 0.3159 0.0
C1614 C 0.32711 0.86326 0.29462 0.0
C1615 C 0.35053 0.86449 0.28753 0.0
C1616 C 0.34353 0.87759 0.35256 0.0
C1617 C 0.30522 0.85743 0.27925 0.0
C1618 C 0.25383 0.84522 0.33377 0.0
C1619 C 0.2523 0.86782 0.33178 0.0
C1620 C 0.27752 0.84512 0.32975 0.0
C1621 C 0.30025 0.86812 0.3232 0.0
C1622 C 0.29902 0.89118 0.32185 0.0
C1623 C 0.27506 0.89068 0.32598 0.0
C1624 C 0.27769 0.82003 0.33149 0.0
C1625 C 0.32273 0.91623 0.3152 0.0
H1626 H 0.38475 0.87798 0.33293 0.0
H1627 H 0.35233 0.86104 0.27123 0.0
H1628 H 0.34032 0.89429 0.35447 0.0
H1629 H 0.32625 0.86055 0.35947 0.0
H1630 H 0.36157 0.88152 0.36136 0.0
H1631 H 0.30991 0.85353 0.26339 0.0
H1632 H 0.28655 0.84041 0.28445 0.0
H1633 H 0.30165 0.87399 0.27843 0.0
H1634 H 0.23632 0.82732 0.33768 0.0
H1635 H 0.27393 0.90815 0.32422 0.0
H1636 H 0.29578 0.82297 0.33961 0.0
H1637 H 0.27774 0.8126 0.31568 0.0
H1638 H 0.2601 0.8051 0.33994 0.0
H1639 H 0.34029 0.9202 0.32468 0.0
H1640 H 0.3193 0.93285 0.31668 0.0
H1641 H 0.32748 0.91471 0.29876 0.0
C1642 C 0.17661 0.50866 0.29638 0.0
C1643 C 0.15458 0.51176 0.29941 0.0
C1644 C 0.17703 0.48689 0.30405 0.0
C1645 C 0.15511 0.46811 0.31544 0.0
C1646 C 0.13316 0.47164 0.31913 0.0
C1647 C 0.13299 0.49327 0.31078 0.0
C1648 C 0.20054 0.48358 0.29936 0.0
C1649 C 0.10977 0.45243 0.33169 0.0
C1650 C 0.14486 0.40012 0.31707 0.0
C1651 C 0.15735 0.40041 0.33582 0.0
C1652 C 0.1438 0.42194 0.31034 0.0
C1653 C 0.1549 0.44443 0.3229 0.0
C1654 C 0.16683 0.44461 0.34212 0.0
C1655 C 0.16833 0.42282 0.34814 0.0
C1656 C 0.13152 0.42118 0.28948 0.0
C1657 C 0.17849 0.46801 0.35616 0.0
H1658 H 0.19315 0.52287 0.28736 0.0
H1659 H 0.11599 0.49576 0.31311 0.0
H1660 H 0.20944 0.48162 0.314 0.0
H1661 H 0.19402 0.46561 0.29026 0.0
H1662 H 0.21605 0.50005 0.29043 0.0
H1663 H 0.09511 0.45884 0.33431 0.0
H1664 H 0.09976 0.43352 0.32357 0.0
H1665 H 0.11656 0.44935 0.34699 0.0
H1666 H 0.13647 0.38307 0.30729 0.0
H1667 H 0.17858 0.42362 0.36236 0.0
H1668 H 0.14651 0.43625 0.27921 0.0
H1669 H 0.1152 0.42547 0.29134 0.0
H1670 H 0.1236 0.40215 0.28165 0.0
H1671 H 0.19601 0.48415 0.34864 0.0
H1672 H 0.18469 0.46415 0.37145 0.0
H1673 H 0.16389 0.47448 0.35881 0.0
C1674 C 0.34693 0.49773 0.33397 0.0
C1675 C 0.34831 0.5085 0.3144 0.0
C1676 C 0.32631 0.47282 0.33883 0.0
C1677 C 0.30651 0.45848 0.3238 0.0
C1678 C 0.30843 0.46909 0.30375 0.0
C1679 C 0.32927 0.49404 0.29933 0.0
C1680 C 0.32502 0.46249 0.3604 0.0
C1681 C 0.28789 0.45449 0.28721 0.0
C1682 C 0.25999 0.38594 0.3288 0.0
C1683 C 0.2366 0.38483 0.33557 0.0
C1684 C 0.2832 0.40976 0.32563 0.0
C1685 C 0.283 0.43306 0.32922 0.0
C1686 C 0.25962 0.43199 0.33666 0.0
C1687 C 0.23666 0.40794 0.33939 0.0
C1688 C 0.30768 0.40999 0.31777 0.0
C1689 C 0.25851 0.45625 0.34107 0.0
H1690 H 0.36147 0.5092 0.34571 0.0
H1691 H 0.33021 0.50263 0.28431 0.0
H1692 H 0.30914 0.46335 0.36918 0.0
H1693 H 0.32015 0.44204 0.35981 0.0
H1694 H 0.34392 0.47388 0.36902 0.0
H1695 H 0.29315 0.46467 0.27204 0.0
H1696 H 0.28542 0.43499 0.28501 0.0
H1697 H 0.26849 0.45186 0.29219 0.0
H1698 H 0.25994 0.36811 0.32557 0.0
H1699 H 0.21863 0.40741 0.34402 0.0
H1700 H 0.3248 0.42216 0.32799 0.0
H1701 H 0.31255 0.41859 0.30201 0.0
H1702 H 0.30513 0.39031 0.31698 0.0
H1703 H 0.27504 0.46922 0.35149 0.0
H1704 H 0.23956 0.45209 0.34844 0.0
H1705 H 0.2608 0.46681 0.32636 0.0
C1706 C 0.52104 0.84209 0.30038 0.0
C1707 C 0.50825 0.8471 0.31662 0.0
C1708 C 0.5464 0.84503 0.30322 0.0
C1709 C 0.55928 0.85315 0.32278 0.0
C1710 C 0.54675 0.85925 0.33891 0.0
C1711 C 0.52133 0.8559 0.33569 0.0
C1712 C 0.55892 0.83838 0.28554 0.0
C1713 C 0.55945 0.86798 0.35996 0.0
C1714 C 0.61018 0.83266 0.33599 0.0
C1715 C 0.63419 0.85517 0.3318 0.0
C1716 C 0.5858 0.83198 0.33374 0.0
C1717 C 0.58523 0.85415 0.32658 0.0
C1718 C 0.60948 0.87697 0.32246 0.0
C1719 C 0.63359 0.87718 0.32508 0.0
C1720 C 0.5606 0.80734 0.33872 0.0
C1721 C 0.60993 0.9011 0.31498 0.0
H1722 H 0.51068 0.83475 0.28576 0.0
H1723 H 0.5112 0.85925 0.34839 0.0
H1724 H 0.57914 0.85464 0.28255 0.0
H1725 H 0.56083 0.8214 0.28981 0.0
H1726 H 0.54717 0.83387 0.27097 0.0
H1727 H 0.54961 0.87629 0.36947 0.0
H1728 H 0.55797 0.85113 0.36835 0.0
H1729 H 0.58071 0.8826 0.35846 0.0
H1730 H 0.6104 0.81541 0.34075 0.0
H1731 H 0.65207 0.89455 0.32162 0.0
H1732 H 0.54827 0.79977 0.3245 0.0
H1733 H 0.54894 0.8112 0.35032 0.0
H1734 H 0.56446 0.7922 0.34499 0.0
H1735 H 0.59942 0.89726 0.29986 0.0
H1736 H 0.63039 0.91749 0.31303 0.0
H1737 H 0.59934 0.90688 0.32615 0.0
C1738 C 0.17599 0.66578 0.31179 0.0
C1739 C 0.19749 0.67122 0.29887 0.0
C1740 C 0.16998 0.68509 0.31715 0.0
C1741 C 0.18579 0.7104 0.30932 0.0
C1742 C 0.20678 0.71569 0.29553 0.0
C1743 C 0.2124 0.69606 0.29051 0.0
C1744 C 0.14758 0.67873 0.33203 0.0
C1745 C 0.22404 0.74239 0.28676 0.0
C1746 C 0.16367 0.76045 0.3141 0.0
C1747 C 0.17846 0.77481 0.33136 0.0
C1748 C 0.16541 0.73908 0.3069 0.0
C1749 C 0.18227 0.73193 0.31723 0.0
C1750 C 0.1968 0.74606 0.33487 0.0
C1751 C 0.19481 0.76728 0.34161 0.0
C1752 C 0.14974 0.72455 0.28795 0.0
C1753 C 0.21509 0.73922 0.34637 0.0
H1754 H 0.16452 0.64669 0.31845 0.0
H1755 H 0.22879 0.70027 0.28025 0.0
H1756 H 0.15572 0.68882 0.34702 0.0
H1757 H 0.13443 0.68561 0.32582 0.0
H1758 H 0.13556 0.65768 0.33507 0.0
H1759 H 0.23797 0.74278 0.27482 0.0
H1760 H 0.21165 0.74968 0.27971 0.0
H1761 H 0.23572 0.7559 0.29946 0.0
H1762 H 0.15109 0.76613 0.30598 0.0
H1763 H 0.20678 0.77842 0.35465 0.0
H1764 H 0.13755 0.70368 0.29147 0.0
H1765 H 0.16346 0.72653 0.27525 0.0
H1766 H 0.13653 0.7317 0.28231 0.0
H1767 H 0.20415 0.71872 0.35128 0.0
H1768 H 0.22409 0.75148 0.36036 0.0
H1769 H 0.23126 0.74157 0.33593 0.0
C1770 C 0.85549 0.9938 0.39877 0.0
C1771 C 0.86434 0.01728 0.38837 0.0
C1772 C 0.83023 0.97261 0.3949 0.0
C1773 C 0.81358 0.97477 0.37995 0.0
C1774 C 0.82195 0.99884 0.37014 0.0
C1775 C 0.84718 0.0199 0.3746 0.0
C1776 C 0.82199 0.94748 0.40598 0.0
C1777 C 0.80498 1.00189 0.35393 0.0
C1778 C 0.76823 0.91282 0.35084 0.0
C1779 C 0.7435 0.90495 0.35992 0.0
C1780 C 0.79087 0.93574 0.35686 0.0
C1781 C 0.78907 0.95112 0.37281 0.0
C1782 C 0.76426 0.94328 0.38226 0.0
C1783 C 0.74173 0.92032 0.37565 0.0
C1784 C 0.81683 0.94328 0.34628 0.0
C1785 C 0.76163 0.9589 0.39957 0.0
H1786 H 0.86869 0.99182 0.40953 0.0
H1787 H 0.85408 0.03799 0.36644 0.0
H1788 H 0.80168 0.93936 0.41225 0.0
H1789 H 0.82176 0.9332 0.39483 0.0
H1790 H 0.83563 0.94985 0.41895 0.0
H1791 H 0.81294 0.02238 0.34942 0.0
H1792 H 0.80392 0.99067 0.33985 0.0
H1793 H 0.78448 0.99411 0.35969 0.0
H1794 H 0.77015 0.90082 0.33918 0.0
H1795 H 0.72281 0.91432 0.38294 0.0
H1796 H 0.83138 0.94407 0.35781 0.0
H1797 H 0.82512 0.96282 0.33944 0.0
H1798 H 0.81471 0.92954 0.33377 0.0
H1799 H 0.77399 0.9597 0.413 0.0
H1800 H 0.74085 0.95067 0.40485 0.0
H1801 H 0.76902 0.97904 0.3944 0.0
C1802 C 0.0144 0.82887 0.39325 0.0
C1803 C 0.99611 0.82374 0.37723 0.0
C1804 C 0.03702 0.82649 0.38998 0.0
C1805 C 0.04154 0.81894 0.37018 0.0
C1806 C 0.02232 0.81256 0.35431 0.0
C1807 C 1.00003 0.81527 0.35797 0.0
C1808 C 0.05673 0.83329 0.40744 0.0
C1809 C 0.02601 0.80452 0.33298 0.0
C1810 C 0.11392 0.84304 0.35634 0.0
C1811 C 0.11635 0.82115 0.35976 0.0
C1812 C 0.08956 0.8423 0.35888 0.0
C1813 C 0.06707 0.81931 0.36578 0.0
C1814 C 0.06937 0.79708 0.36918 0.0
C1815 C 0.09393 0.79829 0.36617 0.0
C1816 C 0.08809 0.86637 0.35459 0.0
C1817 C 0.04601 0.77214 0.37642 0.0
H1818 H 0.01167 0.83597 0.40802 0.0
H1819 H 0.9862 0.81187 0.34543 0.0
H1820 H 0.06133 0.81755 0.40977 0.0
H1821 H 0.0755 0.85095 0.40335 0.0
H1822 H 0.04939 0.83681 0.42232 0.0
H1823 H 1.0072 0.79497 0.32402 0.0
H1824 H 0.04033 0.82198 0.32437 0.0
H1825 H 0.03406 0.7912 0.33389 0.0
H1826 H 0.13114 0.861 0.35207 0.0
H1827 H 0.09572 0.78138 0.36916 0.0
H1828 H 0.08393 0.8735 0.36923 0.0
H1829 H 0.07165 0.86197 0.34363 0.0
H1830 H 0.10674 0.88204 0.34786 0.0
H1831 H 0.03933 0.77508 0.3918 0.0
H1832 H 0.05075 0.75635 0.37776 0.0
H1833 H 0.02922 0.766 0.36544 0.0
C1834 C 0.1532 0.16717 0.40054 0.0
C1835 C 0.16884 0.1578 0.39187 0.0
C1836 C 0.15793 0.19206 0.39599 0.0
C1837 C 0.17868 0.20791 0.38227 0.0
C1838 C 0.19543 0.19906 0.37435 0.0
C1839 C 0.19038 0.1741 0.37934 0.0
C1840 C 0.13977 0.20081 0.40496 0.0
C1841 C 0.21762 0.21531 0.35957 0.0
C1842 C 0.16543 0.25392 0.35093 0.0
C1843 C 0.18059 0.27743 0.36145 0.0
C1844 C 0.16547 0.23149 0.35711 0.0
C1845 C 0.18078 0.23233 0.37449 0.0
C1846 C 0.19652 0.25603 0.38503 0.0
C1847 C 0.19629 0.27834 0.37836 0.0
C1848 C 0.14835 0.20667 0.34539 0.0
C1849 C 0.21289 0.25763 0.40376 0.0
H1850 H 0.13671 0.15467 0.41042 0.0
H1851 H 0.2024 0.16684 0.37253 0.0
H1852 H 0.15145 0.22034 0.4119 0.0
H1853 H 0.12741 0.20206 0.39239 0.0
H1854 H 0.12645 0.18739 0.41704 0.0
H1855 H 0.23066 0.207 0.35671 0.0
H1856 H 0.20919 0.21675 0.3445 0.0
H1857 H 0.2298 0.2352 0.36573 0.0
H1858 H 0.15278 0.25272 0.33817 0.0
H1859 H 0.20801 0.29634 0.38666 0.0
H1860 H 0.13243 0.19268 0.35569 0.0
H1861 H 0.16028 0.19782 0.34048 0.0
H1862 H 0.13903 0.20966 0.33139 0.0
H1863 H 0.19963 0.24607 0.41661 0.0
H1864 H 0.22553 0.2778 0.40928 0.0
H1865 H 0.2257 0.24933 0.40009 0.0
C1866 C 0.66552 0.51505 0.7078 0.0
C1867 C 0.65346 0.51584 0.72657 0.0
C1868 C 0.68721 0.53727 0.69948 0.0
C1869 C 0.69876 0.56064 0.7109 0.0
C1870 C 0.68729 0.5616 0.73002 0.0
C1871 C 0.66427 0.5397 0.73705 0.0
C1872 C 0.69787 0.53546 0.67856 0.0
C1873 C 0.69926 0.5856 0.74342 0.0
C1874 C 0.77122 0.60874 0.7001 0.0
C1875 C 0.76996 0.63043 0.69357 0.0
C1876 C 0.7483 0.58574 0.70548 0.0
C1877 C 0.72319 0.58393 0.70328 0.0
C1878 C 0.72181 0.6054 0.69537 0.0
C1879 C 0.74526 0.62875 0.69167 0.0
C1880 C 0.75174 0.56411 0.71419 0.0
C1881 C 0.69579 0.60424 0.69107 0.0
H1882 H 0.65843 0.49707 0.69946 0.0
H1883 H 0.65507 0.54161 0.75099 0.0
H1884 H 0.70472 0.55349 0.66953 0.0
H1885 H 0.71493 0.53236 0.68082 0.0
H1886 H 0.68271 0.51903 0.66926 0.0
H1887 H 0.69379 0.5808 0.76001 0.0
H1888 H 0.72117 0.59652 0.74234 0.0
H1889 H 0.69162 0.59836 0.73831 0.0
H1890 H 0.79027 0.61021 0.70247 0.0
H1891 H 0.74426 0.64568 0.68702 0.0
H1892 H 0.75519 0.55395 0.70117 0.0
H1893 H 0.73445 0.54987 0.72324 0.0
H1894 H 0.76952 0.57196 0.72437 0.0
H1895 H 0.67938 0.58422 0.68856 0.0
H1896 H 0.69738 0.61584 0.67711 0.0
H1897 H 0.69075 0.61283 0.70435 0.0
C1898 C 0.48893 0.14532 0.74112 0.0
C1899 C 0.50481 0.14049 0.72754 0.0
C1900 C 0.46652 0.14609 0.73397 0.0
C1901 C 0.45963 0.14201 0.71262 0.0
C1902 C 0.4758 0.13757 0.69873 0.0
C1903 C 0.49817 0.13691 0.70632 0.0
C1904 C 0.45002 0.15102 0.74937 0.0
C1905 C 0.46944 0.13347 0.67584 0.0
C1906 C 0.38685 0.11854 0.70144 0.0
C1907 C 0.38722 0.14153 0.69643 0.0
C1908 C 0.41036 0.11823 0.70575 0.0
C1909 C 0.43499 0.14155 0.70519 0.0
C1910 C 0.43555 0.16468 0.69934 0.0
C1911 C 0.41167 0.16444 0.69537 0.0
C1912 C 0.40873 0.09309 0.71179 0.0
C1913 C 0.46124 0.18996 0.69819 0.0
H1914 H 0.49411 0.14866 0.75746 0.0
H1915 H 0.51017 0.13307 0.69567 0.0
H1916 H 0.44872 0.16819 0.74461 0.0
H1917 H 0.42957 0.13433 0.7496 0.0
H1918 H 0.45825 0.15426 0.76538 0.0
H1919 H 0.48284 0.12851 0.66728 0.0
H1920 H 0.44873 0.11781 0.67342 0.0
H1921 H 0.47128 0.15134 0.66906 0.0
H1922 H 0.36798 0.10082 0.70251 0.0
H1923 H 0.41223 0.1824 0.6921 0.0
H1924 H 0.41492 0.0941 0.72823 0.0
H1925 H 0.42244 0.08965 0.70216 0.0
H1926 H 0.38841 0.07638 0.70997 0.0
H1927 H 0.46894 0.1966 0.71413 0.0
H1928 H 0.45875 0.20522 0.69043 0.0
H1929 H 0.47635 0.18753 0.68962 0.0
C1930 C 0.88818 0.37137 0.7214 0.0
C1931 C 0.86791 0.36956 0.73415 0.0
C1932 C 0.88716 0.34908 0.71322 0.0
C1933 C 0.86576 0.32447 0.71848 0.0
C1934 C 0.8453 0.32264 0.73147 0.0
C1935 C 0.84648 0.34527 0.73894 0.0
C1936 C 0.90897 0.35183 0.699 0.0
C1937 C 0.82248 0.29679 0.73784 0.0
C1938 C 0.84882 0.26547 0.68543 0.0
C1939 C 0.86153 0.25429 0.69622 0.0
C1940 C 0.8507 0.28867 0.69213 0.0
C1941 C 0.8648 0.30058 0.71057 0.0
C1942 C 0.87735 0.28924 0.72177 0.0
C1943 C 0.87583 0.26642 0.71434 0.0
C1944 C 0.83742 0.30033 0.67953 0.0
C1945 C 0.89195 0.30095 0.74183 0.0
H1946 H 0.90474 0.39025 0.71779 0.0
H1947 H 0.831 0.34401 0.74903 0.0
H1948 H 0.91956 0.34266 0.70614 0.0
H1949 H 0.90043 0.34171 0.68408 0.0
H1950 H 0.92354 0.37235 0.69567 0.0
H1951 H 0.80836 0.29873 0.74822 0.0
H1952 H 0.81158 0.28556 0.7239 0.0
H1953 H 0.83008 0.28546 0.74602 0.0
H1954 H 0.83704 0.25598 0.67183 0.0
H1955 H 0.88553 0.2579 0.72295 0.0
H1956 H 0.85201 0.32055 0.67541 0.0
H1957 H 0.8217 0.30082 0.68885 0.0
H1958 H 0.82839 0.28936 0.66499 0.0
H1959 H 0.90824 0.32093 0.73909 0.0
H1960 H 0.90041 0.28963 0.74878 0.0
H1961 H 0.87833 0.3021 0.75324 0.0
C1962 C 0.18615 0.97324 0.64876 0.0
C1963 C 0.17487 0.97187 0.62923 0.0
C1964 C 0.20774 0.99644 0.65596 0.0
C1965 C 0.21781 0.0189 0.64351 0.0
C1966 C 0.20631 0.01759 0.62382 0.0
C1967 C 0.18517 0.99401 0.61682 0.0
C1968 C 0.21981 0.99691 0.67684 0.0
C1969 C 0.21602 0.04121 0.61028 0.0
C1970 C 0.25559 0.08422 0.67025 0.0
C1971 C 0.28184 0.0921 0.66486 0.0
C1972 C 0.23461 0.06048 0.66343 0.0
C1973 C 0.24 0.04392 0.65122 0.0
C1974 C 0.26652 0.05156 0.64603 0.0
C1975 C 0.28711 0.0757 0.65271 0.0
C1976 C 0.20664 0.05337 0.66901 0.0
C1977 C 0.27313 0.0342 0.63344 0.0
H1978 H 0.17826 0.95604 0.65829 0.0
H1979 H 0.17627 0.99298 0.60178 0.0
H1980 H 0.24125 0.00383 0.67506 0.0
H1981 H 0.21796 0.0106 0.6874 0.0
H1982 H 0.21028 0.9776 0.68429 0.0
H1983 H 0.20479 0.03699 0.59547 0.0
H1984 H 0.21422 0.05645 0.61875 0.0
H1985 H 0.23726 0.04914 0.60662 0.0
H1986 H 0.25132 0.09684 0.67953 0.0
H1987 H 0.30736 0.08159 0.64863 0.0
H1988 H 0.19696 0.0349 0.67766 0.0
H1989 H 0.19494 0.0505 0.65464 0.0
H1990 H 0.20586 0.06841 0.67867 0.0
H1991 H 0.26488 0.01509 0.64105 0.0
H1992 H 0.29479 0.04245 0.63152 0.0
H1993 H 0.26391 0.03091 0.61782 0.0
C1994 C 0.01751 0.2016 0.62224 0.0
C1995 C 0.03823 0.20613 0.63588 0.0
C1996 C 0.99428 0.20068 0.62941 0.0
C1997 C 0.99151 0.20445 0.6508 0.0
C1998 C 0.01211 0.20854 0.66475 0.0
C1999 C 0.03515 0.20926 0.65715 0.0
C2000 C 0.97276 0.19597 0.61397 0.0
C2001 C 0.00993 0.21249 0.68765 0.0
C2002 C 0.94329 0.22857 0.66179 0.0
C2003 C 0.92005 0.20572 0.6668 0.0
C2004 C 0.967 0.22862 0.65762 0.0
C2005 C 0.96751 0.20516 0.6582 0.0
C2006 C 0.9443 0.18215 0.66403 0.0
C2007 C 0.92084 0.18268 0.66802 0.0
C2008 C 0.99122 0.25366 0.65166 0.0
C2009 C 0.94377 0.15667 0.66505 0.0
H2010 H 0.01939 0.19861 0.60586 0.0
H2011 H 0.05103 0.21286 0.66783 0.0
H2012 H 0.95383 0.17893 0.61872 0.0
H2013 H 0.96962 0.21281 0.61372 0.0
H2014 H 0.97758 0.19265 0.59798 0.0
H2015 H 0.02755 0.21534 0.69652 0.0
H2016 H 1.00749 0.22957 0.69008 0.0
H2017 H 0.99213 0.19554 0.69409 0.0
H2018 H 0.94272 0.24638 0.66062 0.0
H2019 H 0.90296 0.16482 0.67133 0.0
H2020 H 0.99618 0.25271 0.63516 0.0
H2021 H 1.00846 0.25679 0.66119 0.0
H2022 H 0.98827 0.27052 0.65366 0.0
H2023 H 0.94419 0.14993 0.64906 0.0
H2024 H 0.92573 0.14158 0.67296 0.0
H2025 H 0.96143 0.15882 0.67338 0.0
C2026 C 0.81193 0.83462 0.64674 0.0
C2027 C 0.82795 0.84824 0.62993 0.0
C2028 C 0.81173 0.81248 0.65434 0.0
C2029 C 0.82809 0.80408 0.64491 0.0
C2030 C 0.84468 0.81821 0.62814 0.0
C2031 C 0.84425 0.84005 0.62076 0.0
C2032 C 0.79371 0.79784 0.67216 0.0
C2033 C 0.86263 0.81007 0.61784 0.0
C2034 C 0.84649 0.7605 0.6746 0.0
C2035 C 0.82973 0.7363 0.66556 0.0
C2036 C 0.84581 0.78258 0.66832 0.0
C2037 C 0.82797 0.78052 0.65251 0.0
C2038 C 0.8108 0.75614 0.64341 0.0
C2039 C 0.81195 0.73431 0.65 0.0
C2040 C 0.86462 0.80821 0.67831 0.0
C2041 C 0.79146 0.75319 0.62654 0.0
H2042 H 0.79914 0.84095 0.65359 0.0
H2043 H 0.85645 0.85065 0.60763 0.0
H2044 H 0.7794 0.77785 0.66716 0.0
H2045 H 0.8054 0.79643 0.6852 0.0
H2046 H 0.7825 0.80711 0.67795 0.0
H2047 H 0.87479 0.82357 0.60535 0.0
H2048 H 0.87608 0.80904 0.62954 0.0
H2049 H 0.85068 0.7905 0.61103 0.0
H2050 H 0.86062 0.76239 0.68639 0.0
H2051 H 0.79893 0.7157 0.64293 0.0
H2052 H 0.85345 0.81712 0.68485 0.0
H2053 H 0.87829 0.82163 0.66643 0.0
H2054 H 0.87656 0.80631 0.69094 0.0
H2055 H 0.7786 0.76079 0.63199 0.0
H2056 H 0.77874 0.73277 0.62166 0.0
H2057 H 0.80236 0.76467 0.61276 0.0
C2058 C 1.00625 0.82192 0.63795 0.0
C2059 C 0.02211 0.83702 0.65445 0.0
C2060 C 0.9848 0.79698 0.64148 0.0
C2061 C 0.97937 0.7869 0.66196 0.0
C2062 C 0.99654 0.80155 0.67838 0.0
C2063 C 0.01749 0.82655 0.67447 0.0
C2064 C 0.96696 0.78212 0.62353 0.0
C2065 C 0.99186 0.79165 0.70036 0.0
C2066 C 0.90708 0.7396 0.67354 0.0
C2067 C 0.90592 0.71568 0.67177 0.0
C2068 C 0.931 0.76284 0.67117 0.0
C2069 C 0.95441 0.76227 0.66642 0.0
C2070 C 0.95353 0.73819 0.66505 0.0
C2071 C 0.92925 0.71518 0.66758 0.0
C2072 C 0.93095 0.78802 0.67304 0.0
C2073 C 0.9781 0.73673 0.6604 0.0
H2074 H 0.00966 0.83022 0.62252 0.0
H2075 H 0.02969 0.83838 0.68725 0.0
H2076 H 0.96392 0.76227 0.62298 0.0
H2077 H 0.94726 0.7804 0.62572 0.0
H2078 H 0.97506 0.79163 0.60837 0.0
H2079 H 0.0097 0.80259 0.71027 0.0
H2080 H 0.97558 0.79378 0.70714 0.0
H2081 H 0.98593 0.77091 0.70076 0.0
H2082 H 0.88922 0.74032 0.67606 0.0
H2083 H 0.92838 0.69672 0.66594 0.0
H2084 H 0.93648 0.79826 0.65793 0.0
H2085 H 0.94586 0.80071 0.68468 0.0
H2086 H 0.91135 0.78516 0.67774 0.0
H2087 H 0.98539 0.74446 0.64464 0.0
H2088 H 0.97448 0.71666 0.66117 0.0
H2089 H 0.99404 0.74887 0.67158 0.0
C2090 C 0.18486 0.18842 0.67278 0.0
C2091 C 0.17324 0.18187 0.65302 0.0
C2092 C 0.21012 0.19166 0.67648 0.0
C2093 C 0.22396 0.18765 0.66014 0.0
C2094 C 0.21265 0.18201 0.63991 0.0
C2095 C 0.18743 0.17923 0.63659 0.0
C2096 C 0.22098 0.19765 0.69826 0.0
C2097 C 0.22661 0.17764 0.62198 0.0
C2098 C 0.29768 0.20985 0.66525 0.0
C2099 C 0.29724 0.18679 0.67022 0.0
C2100 C 0.27409 0.21059 0.66238 0.0
C2101 C 0.24931 0.18765 0.66439 0.0
C2102 C 0.24878 0.16443 0.66986 0.0
C2103 C 0.27267 0.16422 0.67236 0.0
C2104 C 0.27566 0.23584 0.6569 0.0
C2105 C 0.22295 0.13958 0.67265 0.0
H2106 H 0.17368 0.19003 0.68557 0.0
H2107 H 0.17822 0.17368 0.62139 0.0
H2108 H 0.21647 0.17931 0.70594 0.0
H2109 H 0.24274 0.21065 0.69831 0.0
H2110 H 0.21178 0.20675 0.70757 0.0
H2111 H 0.21617 0.17526 0.60698 0.0
H2112 H 0.24711 0.19407 0.62063 0.0
H2113 H 0.22798 0.16004 0.62487 0.0
H2114 H 0.31661 0.22732 0.66329 0.0
H2115 H 0.27194 0.14617 0.6755 0.0
H2116 H 0.26439 0.2404 0.66838 0.0
H2117 H 0.26644 0.23422 0.64146 0.0
H2118 H 0.29637 0.25211 0.6565 0.0
H2119 H 0.21049 0.14235 0.6842 0.0
H2120 H 0.2259 0.1235 0.67796 0.0
H2121 H 0.21188 0.13393 0.65773 0.0
C2122 C 0.83605 1.00121 0.645 0.0
C2123 C 0.85836 0.00603 0.63339 0.0
C2124 C 0.83017 0.02095 0.64888 0.0
C2125 C 0.84685 0.04595 0.64075 0.0
C2126 C 0.86823 0.05032 0.62772 0.0
C2127 C 0.87381 0.03035 0.62431 0.0
C2128 C 0.80733 0.01556 0.66297 0.0
C2129 C 0.88635 0.07659 0.61856 0.0
C2130 C 0.82873 0.09897 0.64498 0.0
C2131 C 0.84371 0.11274 0.66238 0.0
C2132 C 0.82907 0.07683 0.63786 0.0
C2133 C 0.84468 0.06833 0.64843 0.0
C2134 C 0.8595 0.08199 0.66613 0.0
C2135 C 0.85897 0.10401 0.67273 0.0
C2136 C 0.81328 0.06292 0.61879 0.0
C2137 C 0.87651 0.07372 0.67789 0.0
H2138 H 0.82413 0.98243 0.65209 0.0
H2139 H 0.89087 0.03399 0.61509 0.0
H2140 H 0.81512 0.02502 0.67824 0.0
H2141 H 0.79548 0.02372 0.65639 0.0
H2142 H 0.79413 0.99456 0.66558 0.0
H2143 H 0.89962 0.07591 0.60653 0.0
H2144 H 0.87469 0.08471 0.61153 0.0
H2145 H 0.89878 0.09002 0.63105 0.0
H2146 H 0.81702 0.10564 0.63677 0.0
H2147 H 0.87119 0.11473 0.6858 0.0
H2148 H 0.80021 0.04212 0.62216 0.0
H2149 H 0.82689 0.0643 0.60619 0.0
H2150 H 0.80095 0.07102 0.61306 0.0
H2151 H 0.86436 0.05339 0.683 0.0
H2152 H 0.88607 0.08596 0.69178 0.0
H2153 H 0.89224 0.07478 0.66759 0.0
C2154 C 0.49544 0.35493 0.69402 0.0
C2155 C 0.51382 0.36147 0.71019 0.0
C2156 C 0.47145 0.33145 0.69416 0.0
C2157 C 0.46595 0.31389 0.7107 0.0
C2158 C 0.48367 0.32125 0.72779 0.0
C2159 C 0.50741 0.34509 0.72737 0.0
C2160 C 0.45302 0.32456 0.67574 0.0
C2161 C 0.47872 0.30304 0.74561 0.0
C2162 C 0.39763 0.25339 0.71144 0.0
C2163 C 0.40239 0.23611 0.70003 0.0
C2164 C 0.41824 0.27868 0.7156 0.0
C2165 C 0.44414 0.28664 0.70836 0.0
C2166 C 0.44913 0.26884 0.69758 0.0
C2167 C 0.42825 0.24392 0.69355 0.0
C2168 C 0.41213 0.29714 0.72702 0.0
C2169 C 0.4764 0.2763 0.68966 0.0
H2170 H 0.50052 0.36761 0.68071 0.0
H2171 H 0.52182 0.35004 0.73974 0.0
H2172 H 0.45417 0.30969 0.66617 0.0
H2173 H 0.43225 0.31628 0.68098 0.0
H2174 H 0.45814 0.34156 0.66576 0.0
H2175 H 0.49193 0.31299 0.75906 0.0
H2176 H 0.45786 0.29394 0.75082 0.0
H2177 H 0.4823 0.28735 0.74037 0.0
H2178 H 0.37768 0.24747 0.71648 0.0
H2179 H 0.43222 0.23059 0.68501 0.0
H2180 H 0.41456 0.31271 0.71632 0.0
H2181 H 0.42621 0.30644 0.74008 0.0
H2182 H 0.39164 0.2874 0.73321 0.0
H2183 H 0.48233 0.29132 0.67751 0.0
H2184 H 0.47727 0.25963 0.68288 0.0
H2185 H 0.49112 0.2846 0.70244 0.0
C2186 C 0.66888 0.15718 0.68845 0.0
C2187 C 0.66382 0.16324 0.70833 0.0
C2188 C 0.69108 0.15442 0.68458 0.0
C2189 C 0.70911 0.1584 0.70088 0.0
C2190 C 0.70349 0.16358 0.72121 0.0
C2191 C 0.68086 0.16588 0.7247 0.0
C2192 C 0.69593 0.14876 0.66272 0.0
C2193 C 0.72209 0.16801 0.73908 0.0
C2194 C 0.7603 0.1365 0.69569 0.0
C2195 C 0.78333 0.15959 0.69069 0.0
C2196 C 0.73592 0.13565 0.69851 0.0
C2197 C 0.73448 0.15853 0.69654 0.0
C2198 C 0.75761 0.18182 0.69105 0.0
C2199 C 0.78173 0.1821 0.68843 0.0
C2200 C 0.71177 0.11033 0.70399 0.0
C2201 C 0.7571 0.20665 0.68842 0.0
H2202 H 0.65595 0.15561 0.6757 0.0
H2203 H 0.67726 0.1711 0.73999 0.0
H2204 H 0.7114 0.1669 0.65558 0.0
H2205 H 0.70304 0.13466 0.66265 0.0
H2206 H 0.67782 0.14106 0.65295 0.0
H2207 H 0.71416 0.17027 0.75413 0.0
H2208 H 0.72594 0.15166 0.74035 0.0
H2209 H 0.74136 0.18569 0.73618 0.0
H2210 H 0.76148 0.11909 0.6977 0.0
H2211 H 0.79941 0.20017 0.68517 0.0
H2212 H 0.69564 0.10586 0.69269 0.0
H2213 H 0.70447 0.11179 0.71956 0.0
H2214 H 0.71587 0.09406 0.70411 0.0
H2215 H 0.74199 0.20403 0.67668 0.0
H2216 H 0.77654 0.22289 0.68344 0.0
H2217 H 0.75147 0.21197 0.70331 0.0
C2218 C 0.81245 0.50001 0.74205 0.0
C2219 C 0.82716 0.48974 0.73311 0.0
C2220 C 0.81745 0.52487 0.73696 0.0
C2221 C 0.83756 0.5398 0.72247 0.0
C2222 C 0.85327 0.53 0.7141 0.0
C2223 C 0.84793 0.50511 0.71958 0.0
C2224 C 0.80035 0.53465 0.74633 0.0
C2225 C 0.87473 0.54523 0.69848 0.0
C2226 C 0.82584 0.58612 0.69019 0.0
C2227 C 0.84275 0.61002 0.69958 0.0
C2228 C 0.82444 0.56334 0.69724 0.0
C2229 C 0.8401 0.56427 0.71439 0.0
C2230 C 0.85728 0.58828 0.72402 0.0
C2231 C 0.85843 0.61093 0.71648 0.0
C2232 C 0.80574 0.53819 0.68652 0.0
C2233 C 0.87408 0.58996 0.74247 0.0
H2234 H 0.79662 0.48834 0.75276 0.0
H2235 H 0.85924 0.49721 0.71251 0.0
H2236 H 0.81283 0.55437 0.75272 0.0
H2237 H 0.78756 0.53584 0.7341 0.0
H2238 H 0.78748 0.52189 0.75891 0.0
H2239 H 0.88689 0.53611 0.69505 0.0
H2240 H 0.86564 0.54674 0.68376 0.0
H2241 H 0.88792 0.56515 0.70422 0.0
H2242 H 0.81307 0.58496 0.67753 0.0
H2243 H 0.87142 0.62926 0.72395 0.0
H2244 H 0.79042 0.52502 0.6976 0.0
H2245 H 0.81669 0.52849 0.68117 0.0
H2246 H 0.79567 0.54096 0.67291 0.0
H2247 H 0.86117 0.57864 0.75556 0.0
H2248 H 0.88707 0.61017 0.74776 0.0
H2249 H 0.8866 0.58141 0.73853 0.0
C2250 C 0.44946 0.88968 0.23023 0.0
C2251 C 0.44187 0.90065 0.2462 0.0
C2252 C 0.45957 0.90273 0.21134 0.0
C2253 C 0.46232 0.92744 0.20836 0.0
C2254 C 0.4547 0.93859 0.22443 0.0
C2255 C 0.44455 0.92507 0.24309 0.0
C2256 C 0.4673 0.89009 0.19457 0.0
C2257 C 0.45754 0.96499 0.22201 0.0
C2258 C 0.51237 0.97461 0.16983 0.0
C2259 C 0.49615 0.97384 0.15335 0.0
C2260 C 0.5017 0.95913 0.18751 0.0
C2261 C 0.47407 0.94216 0.18879 0.0
C2262 C 0.45766 0.94042 0.17186 0.0
C2263 C 0.46887 0.9563 0.15435 0.0
C2264 C 0.51996 0.96158 0.20514 0.0
C2265 C 0.42812 0.92244 0.17253 0.0
H2266 H 0.44713 0.87067 0.2324 0.0
H2267 H 0.439 0.93381 0.25541 0.0
H2268 H 0.45621 0.88838 0.18006 0.0
H2269 H 0.48865 0.90225 0.191 0.0
H2270 H 0.4634 0.87058 0.19911 0.0
H2271 H 0.45024 0.97075 0.2358 0.0
H2272 H 0.47864 0.9796 0.21955 0.0
H2273 H 0.44641 0.96532 0.20813 0.0
H2274 H 0.53353 0.98768 0.16903 0.0
H2275 H 0.45614 0.95563 0.14179 0.0
H2276 H 0.51727 0.94237 0.20914 0.0
H2277 H 0.515 0.96909 0.21918 0.0
H2278 H 0.54111 0.97473 0.20132 0.0
H2279 H 0.42362 0.90263 0.17659 0.0
H2280 H 0.41841 0.92174 0.15748 0.0
H2281 H 0.41935 0.9289 0.18479 0.0
C2282 C 0.10503 0.5194 0.23409 0.0
C2283 C 0.11607 0.54316 0.2447 0.0
C2284 C 0.08775 0.51392 0.21723 0.0
C2285 C 0.08267 0.53325 0.20969 0.0
C2286 C 0.0941 0.55747 0.21985 0.0
C2287 C 0.10979 0.56176 0.23763 0.0
C2288 C 0.07489 0.48734 0.20752 0.0
C2289 C 0.08998 0.57904 0.21205 0.0
C2290 C 0.05874 0.52133 0.15375 0.0
C2291 C 0.03151 0.51241 0.15595 0.0
C2292 C 0.07586 0.52983 0.17096 0.0
C2293 C 0.06542 0.52788 0.19112 0.0
C2294 C 0.0382 0.51934 0.19356 0.0
C2295 C 0.02185 0.51265 0.17595 0.0
C2296 C 0.10512 0.54047 0.16758 0.0
C2297 C 0.02609 0.51641 0.21481 0.0
H2298 H 0.11001 0.50492 0.23864 0.0
H2299 H 0.11718 0.5799 0.24581 0.0
H2300 H 0.05321 0.47941 0.20608 0.0
H2301 H 0.08275 0.48848 0.19166 0.0
H2302 H 0.07842 0.47363 0.21672 0.0
H2303 H 0.10606 0.59818 0.2174 0.0
H2304 H 0.08907 0.57916 0.19483 0.0
H2305 H 0.07106 0.57645 0.21818 0.0
H2306 H 0.06685 0.52116 0.13869 0.0
H2307 H 1.00129 0.5071 0.17807 0.0
H2308 H 0.11092 0.52647 0.1732 0.0
H2309 H 0.11674 0.55861 0.17657 0.0
H2310 H 0.1106 0.54446 0.15093 0.0
H2311 H 0.03181 0.50508 0.22509 0.0
H2312 H 1.00415 0.50666 0.21416 0.0
H2313 H 0.03358 0.53565 0.22203 0.0
C2314 C 0.49563 0.56532 0.24547 0.0
C2315 C 0.47203 0.56605 0.24742 0.0
C2316 C 0.50128 0.55589 0.22737 0.0
C2317 C 0.4827 0.54647 0.21087 0.0
C2318 C 0.45846 0.54633 0.21295 0.0
C2319 C 0.45349 0.55628 0.23113 0.0
C2320 C 0.52741 0.55646 0.22576 0.0
C2321 C 0.43799 0.53612 0.19582 0.0
C2322 C 0.50992 0.54608 0.15726 0.0
C2323 C 0.5052 0.52073 0.15595 0.0
C2324 C 0.50215 0.55458 0.17486 0.0
C2325 C 0.48897 0.53717 0.19135 0.0
C2326 C 0.48318 0.51124 0.18967 0.0
C2327 C 0.49159 0.5034 0.17207 0.0
C2328 C 0.509 0.58246 0.17617 0.0
C2329 C 0.46872 0.49195 0.20669 0.0
H2330 H 0.50987 0.57236 0.25809 0.0
H2331 H 0.43535 0.55703 0.23232 0.0
H2332 H 0.52398 0.53669 0.22304 0.0
H2333 H 0.53871 0.5684 0.21228 0.0
H2334 H 0.53972 0.56442 0.23997 0.0
H2335 H 0.4195 0.5359 0.20036 0.0
H2336 H 0.44608 0.54825 0.18176 0.0
H2337 H 0.43305 0.51623 0.19151 0.0
H2338 H 0.52062 0.55954 0.14488 0.0
H2339 H 0.48771 0.48371 0.17096 0.0
H2340 H 0.52302 0.59212 0.18922 0.0
H2341 H 0.49101 0.58372 0.17943 0.0
H2342 H 0.51817 0.59321 0.16164 0.0
H2343 H 0.48108 0.49762 0.22095 0.0
H2344 H 0.46387 0.47209 0.20225 0.0
H2345 H 0.4501 0.49177 0.2106 0.0
C2346 C 0.93443 0.44941 0.78519 0.0
C2347 C 0.90709 0.43892 0.78741 0.0
C2348 C 0.95127 0.45839 0.80256 0.0
C2349 C 0.94034 0.4561 0.82261 0.0
C2350 C 0.91275 0.44596 0.82484 0.0
C2351 C 0.89647 0.43773 0.80715 0.0
C2352 C 0.98066 0.46963 0.79952 0.0
C2353 C 0.90027 0.44267 0.84597 0.0
C2354 C 0.97908 0.45018 0.86762 0.0
C2355 C 0.99029 0.47475 0.87658 0.0
C2356 C 0.96246 0.44377 0.85021 0.0
C2357 C 0.9575 0.46264 0.84134 0.0
C2358 C 0.96894 0.48758 0.85036 0.0
C2359 C 0.98504 0.49326 0.86808 0.0
C2360 C 0.9502 0.41681 0.84133 0.0
C2361 C 0.9645 0.50831 0.8411 0.0
H2362 H 0.94255 0.45031 0.76987 0.0
H2363 H 0.87525 0.4293 0.80882 0.0
H2364 H 0.99171 0.48853 0.80756 0.0
H2365 H 0.98703 0.45664 0.80648 0.0
H2366 H 0.98622 0.47233 0.78283 0.0
H2367 H 0.87873 0.43572 0.84494 0.0
H2368 H 0.90317 0.42857 0.85516 0.0
H2369 H 0.90996 0.4612 0.85463 0.0
H2370 H 0.98323 0.43595 0.87436 0.0
H2371 H 0.99395 0.5123 0.87508 0.0
H2372 H 0.95701 0.41756 0.82514 0.0
H2373 H 0.92834 0.4079 0.84083 0.0
H2374 H 0.95529 0.40418 0.85054 0.0
H2375 H 0.97149 0.51192 0.82478 0.0
H2376 H 0.97497 0.52674 0.84991 0.0
H2377 H 0.94306 0.50182 0.84082 0.0
C2378 C 0.569 0.46022 0.79251 0.0
C2379 C 0.59519 0.46763 0.7873 0.0
C2380 C 0.56246 0.4644 0.81262 0.0
C2381 C 0.58259 0.47623 0.82787 0.0
C2382 C 0.6087 0.48207 0.82307 0.0
C2383 C 0.61467 0.47771 0.80287 0.0
C2384 C 0.53438 0.45779 0.81708 0.0
C2385 C 0.63074 0.49448 0.83889 0.0
C2386 C 0.57892 0.52082 0.86807 0.0
C2387 C 0.57252 0.50597 0.88621 0.0
C2388 C 0.58134 0.51098 0.84892 0.0
C2389 C 0.57732 0.4856 0.84782 0.0
C2390 C 0.56985 0.47011 0.86593 0.0
C2391 C 0.56746 0.48047 0.88495 0.0
C2392 C 0.58906 0.52811 0.82999 0.0
C2393 C 0.56537 0.44298 0.86539 0.0
H2394 H 0.55386 0.45251 0.78054 0.0
H2395 H 0.63486 0.48305 0.79903 0.0
H2396 H 0.52773 0.44777 0.83223 0.0
H2397 H 0.53339 0.47583 0.81812 0.0
H2398 H 0.52043 0.44537 0.80477 0.0
H2399 H 0.64915 0.49512 0.83351 0.0
H2400 H 0.63519 0.51452 0.84198 0.0
H2401 H 0.62462 0.48386 0.85381 0.0
H2402 H 0.58243 0.5404 0.86892 0.0
H2403 H 0.56263 0.46897 0.89896 0.0
H2404 H 0.57463 0.51826 0.81724 0.0
H2405 H 0.6087 0.53204 0.82436 0.0
H2406 H 0.59009 0.54685 0.83325 0.0
H2407 H 0.55159 0.4318 0.8526 0.0
H2408 H 0.55723 0.43263 0.88026 0.0
H2409 H 0.58438 0.44358 0.86229 0.0
C2410 C 0.55237 0.09384 0.78574 0.0
C2411 C 0.54559 0.11315 0.78347 0.0
C2412 C 0.54694 0.07967 0.80431 0.0
C2413 C 0.53483 0.08523 0.82111 0.0
C2414 C 0.52929 0.10567 0.81922 0.0
C2415 C 0.53453 0.11922 0.8004 0.0
C2416 C 0.55291 0.05787 0.80557 0.0
C2417 C 0.51683 0.11259 0.8368 0.0
C2418 C 0.49103 0.03049 0.85762 0.0
C2419 C 0.50774 0.03488 0.87475 0.0
C2420 C 0.49969 0.04663 0.84015 0.0
C2421 C 0.52563 0.06816 0.8398 0.0
C2422 C 0.54241 0.07324 0.85725 0.0
C2423 C 0.53333 0.05649 0.87447 0.0
C2424 C 0.48107 0.04045 0.82193 0.0
C2425 C 0.57006 0.09621 0.85763 0.0
H2426 H 0.56081 0.08904 0.77267 0.0
H2427 H 0.52956 0.13436 0.79877 0.0
H2428 H 0.56438 0.05968 0.81986 0.0
H2429 H 0.5341 0.03921 0.80647 0.0
H2430 H 0.56422 0.05733 0.79189 0.0
H2431 H 0.51641 0.13067 0.83371 0.0
H2432 H 0.49622 0.09674 0.83915 0.0
H2433 H 0.52777 0.11492 0.8515 0.0
H2434 H 0.47101 0.01428 0.8578 0.0
H2435 H 0.54651 0.06002 0.8875 0.0
H2436 H 0.49012 0.03777 0.80768 0.0
H2437 H 0.47752 0.05676 0.81904 0.0
H2438 H 0.46169 0.02272 0.82448 0.0
H2439 H 0.58197 0.09439 0.84502 0.0
H2440 H 0.58025 0.09815 0.87268 0.0
H2441 H 0.56942 0.11419 0.85473 0.0
C2442 C 0.11585 0.22466 0.56499 0.0
C2443 C 0.10847 0.23589 0.58089 0.0
C2444 C 0.12601 0.23753 0.54604 0.0
C2445 C 0.12902 0.26232 0.54293 0.0
C2446 C 0.12162 0.27375 0.55894 0.0
C2447 C 0.11143 0.26041 0.57766 0.0
C2448 C 0.13352 0.22462 0.52935 0.0
C2449 C 0.12472 0.30022 0.55637 0.0
C2450 C 0.17909 0.30895 0.50415 0.0
C2451 C 0.16285 0.30815 0.48767 0.0
C2452 C 0.16841 0.29363 0.52191 0.0
C2453 C 0.14075 0.27682 0.52328 0.0
C2454 C 0.12432 0.27506 0.50635 0.0
C2455 C 0.13555 0.29075 0.48876 0.0
C2456 C 0.18669 0.29608 0.53952 0.0
C2457 C 0.09476 0.25726 0.50713 0.0
H2458 H 0.11329 0.20558 0.56724 0.0
H2459 H 0.10606 0.26936 0.58994 0.0
H2460 H 0.12237 0.22282 0.51486 0.0
H2461 H 0.15486 0.23663 0.52568 0.0
H2462 H 0.12952 0.20512 0.53402 0.0
H2463 H 0.11757 0.30621 0.57013 0.0
H2464 H 0.14585 0.31468 0.55383 0.0
H2465 H 0.11358 0.30055 0.54249 0.0
H2466 H 0.20027 0.32192 0.50328 0.0
H2467 H 0.12282 0.29007 0.47619 0.0
H2468 H 0.18383 0.27684 0.54364 0.0
H2469 H 0.18192 0.30382 0.55351 0.0
H2470 H 0.20785 0.30904 0.53561 0.0
H2471 H 0.09012 0.23743 0.51128 0.0
H2472 H 0.08501 0.25652 0.49209 0.0
H2473 H 0.08615 0.26392 0.51937 0.0
C2474 C 0.78059 0.89056 0.56746 0.0
C2475 C 0.79834 0.88172 0.57155 0.0
C2476 C 0.76647 0.88446 0.54862 0.0
C2477 C 0.77047 0.86938 0.53361 0.0
C2478 C 0.78917 0.86132 0.53741 0.0
C2479 C 0.80283 0.86757 0.55634 0.0
C2480 C 0.74666 0.89332 0.54508 0.0
C2481 C 0.7942 0.84541 0.52174 0.0
C2482 C 0.71823 0.82535 0.49521 0.0
C2483 C 0.72821 0.83872 0.47655 0.0
C2484 C 0.73084 0.83596 0.51418 0.0
C2485 C 0.75412 0.86045 0.51442 0.0
C2486 C 0.76341 0.8747 0.49577 0.0
C2487 C 0.75026 0.86366 0.47701 0.0
C2488 C 0.72015 0.82027 0.53376 0.0
C2489 C 0.78818 0.90084 0.49541 0.0
H2490 H 0.77713 0.9015 0.57926 0.0
H2491 H 0.81694 0.86115 0.55935 0.0
H2492 H 0.75006 0.90302 0.5298 0.0
H2493 H 0.72639 0.87635 0.54477 0.0
H2494 H 0.74761 0.9068 0.55741 0.0
H2495 H 0.81042 0.84192 0.52664 0.0
H2496 H 0.77596 0.82647 0.51952 0.0
H2497 H 0.79937 0.85525 0.50646 0.0
H2498 H 0.70091 0.80623 0.49489 0.0
H2499 H 0.75805 0.87399 0.46257 0.0
H2500 H 0.71878 0.83224 0.54635 0.0
H2501 H 0.73387 0.81365 0.53914 0.0
H2502 H 0.7003 0.80306 0.53132 0.0
H2503 H 0.78787 0.91326 0.50811 0.0
H2504 H 0.79067 0.91087 0.48036 0.0
H2505 H 0.80568 0.89848 0.49799 0.0
C2506 C 0.12865 0.87826 0.57304 0.0
C2507 C 0.13374 0.90372 0.57461 0.0
C2508 C 0.13482 0.8694 0.5548 0.0
C2509 C 0.14603 0.88634 0.5377 0.0
C2510 C 0.14959 0.91154 0.5388 0.0
C2511 C 0.14356 0.91997 0.55728 0.0
C2512 C 0.13088 0.84246 0.55431 0.0
C2513 C 0.16108 0.9301 0.52085 0.0
C2514 C 0.19352 0.87785 0.50272 0.0
C2515 C 0.17766 0.86512 0.48538 0.0
C2516 C 0.18333 0.88455 0.51984 0.0
C2517 C 0.15666 0.87879 0.51961 0.0
C2518 C 0.14057 0.86632 0.50207 0.0
C2519 C 0.15122 0.85953 0.4852 0.0
C2520 C 0.2012 0.89785 0.53822 0.0
C2521 C 0.11213 0.86011 0.50115 0.0
H2522 H 0.12119 0.86573 0.58646 0.0
H2523 H 0.14723 0.93959 0.55841 0.0
H2524 H 0.12037 0.83227 0.5399 0.0
H2525 H 0.15044 0.84354 0.55425 0.0
H2526 H 0.11949 0.83086 0.56791 0.0
H2527 H 0.1597 0.9478 0.52326 0.0
H2528 H 0.18223 0.93589 0.51892 0.0
H2529 H 0.15075 0.92069 0.50617 0.0
H2530 H 0.2141 0.88278 0.50288 0.0
H2531 H 0.1387 0.84947 0.472 0.0
H2532 H 0.19238 0.88654 0.55257 0.0
H2533 H 0.20323 0.91715 0.54058 0.0
H2534 H 0.22126 0.90034 0.53621 0.0
H2535 H 0.10082 0.84703 0.5141 0.0
H2536 H 0.10238 0.85079 0.48624 0.0
H2537 H 0.11108 0.87802 0.50312 0.0
C2538 C 0.60061 0.77381 0.11538 0.0
C2539 C 0.57542 0.77147 0.11489 0.0
C2540 C 0.61711 0.78394 0.13283 0.0
C2541 C 0.60854 0.79254 0.15008 0.0
C2542 C 0.58362 0.79117 0.14944 0.0
C2543 C 0.56724 0.7804 0.13197 0.0
C2544 C 0.64348 0.78487 0.13301 0.0
C2545 C 0.57399 0.80058 0.16739 0.0
C2546 C 0.63895 0.79422 0.20272 0.0
C2547 C 0.65894 0.8201 0.20406 0.0
C2548 C 0.62227 0.78501 0.18527 0.0
C2549 C 0.62539 0.80227 0.16902 0.0
C2550 C 0.64508 0.82861 0.17061 0.0
C2551 C 0.66183 0.83715 0.18804 0.0
C2552 C 0.6018 0.75671 0.18397 0.0
C2553 C 0.6486 0.84769 0.15385 0.0
H2554 H 0.60737 0.76746 0.10214 0.0
H2555 H 0.5477 0.77835 0.13198 0.0
H2556 H 0.65971 0.80496 0.13553 0.0
H2557 H 0.64416 0.77311 0.14607 0.0
H2558 H 0.64727 0.77752 0.11831 0.0
H2559 H 0.55505 0.79999 0.1638 0.0
H2560 H 0.57105 0.78844 0.18125 0.0
H2561 H 0.58904 0.82067 0.17155 0.0
H2562 H 0.63689 0.78102 0.21506 0.0
H2563 H 0.67718 0.85723 0.18921 0.0
H2564 H 0.6057 0.74792 0.1702 0.0
H2565 H 0.5818 0.7543 0.18193 0.0
H2566 H 0.60171 0.74592 0.19804 0.0
H2567 H 0.65444 0.84231 0.1391 0.0
H2568 H 0.66388 0.86774 0.15799 0.0
H2569 H 0.6296 0.84722 0.15093 0.0
C2570 C 0.24566 0.83057 0.11717 0.0
C2571 C 0.25051 0.80992 0.1152 0.0
C2572 C 0.2346 0.83411 0.13537 0.0
C2573 C 0.2282 0.81656 0.15205 0.0
C2574 C 0.23317 0.79574 0.15021 0.0
C2575 C 0.24426 0.79268 0.13183 0.0
C2576 C 0.22952 0.85649 0.13668 0.0
C2577 C 0.22669 0.77667 0.16766 0.0
C2578 C 0.21926 0.83873 0.20539 0.0
C2579 C 0.19165 0.82749 0.20645 0.0
C2580 C 0.23144 0.83499 0.18794 0.0
C2581 C 0.21564 0.81964 0.17116 0.0
C2582 C 0.18776 0.80777 0.17236 0.0
C2583 C 0.17613 0.8118 0.18997 0.0
C2584 C 0.26123 0.84793 0.18726 0.0
C2585 C 0.17019 0.79114 0.15487 0.0
H2586 H 0.2502 0.84382 0.10432 0.0
H2587 H 0.24836 0.77692 0.13056 0.0
H2588 H 0.20806 0.84918 0.13881 0.0
H2589 H 0.23989 0.86869 0.15038 0.0
H2590 H 0.23619 0.86875 0.12256 0.0
H2591 H 0.23209 0.76174 0.1639 0.0
H2592 H 0.23734 0.78693 0.18201 0.0
H2593 H 0.20522 0.76691 0.17111 0.0
H2594 H 0.2314 0.85105 0.21797 0.0
H2595 H 0.15477 0.80268 0.19083 0.0
H2596 H 0.26887 0.86204 0.17433 0.0
H2597 H 0.26742 0.83344 0.18418 0.0
H2598 H 0.27061 0.85819 0.20197 0.0
H2599 H 0.17462 0.80278 0.14049 0.0
H2600 H 0.14884 0.78272 0.15846 0.0
H2601 H 0.1742 0.77519 0.15156 0.0
C2602 C 0.18807 0.41807 0.11858 0.0
C2603 C 0.21216 0.44076 0.11481 0.0
C2604 C 0.18322 0.40476 0.13747 0.0
C2605 C 0.20312 0.41394 0.153 0.0
C2606 C 0.22776 0.43642 0.14917 0.0
C2607 C 0.23194 0.44964 0.1302 0.0
C2608 C 0.15662 0.38093 0.14087 0.0
C2609 C 0.24963 0.44662 0.16518 0.0
C2610 C 0.17862 0.39029 0.2079 0.0
C2611 C 0.18163 0.36848 0.20914 0.0
C2612 C 0.18644 0.40589 0.19002 0.0
C2613 C 0.19792 0.39974 0.17312 0.0
C2614 C 0.20231 0.37854 0.17483 0.0
C2615 C 0.19391 0.36307 0.19272 0.0
C2616 C 0.18111 0.4281 0.18877 0.0
C2617 C 0.21491 0.37155 0.15741 0.0
H2618 H 0.17284 0.41064 0.1067 0.0
H2619 H 0.25052 0.46726 0.12763 0.0
H2620 H 0.1592 0.36399 0.1436 0.0
H2621 H 0.14712 0.38344 0.15491 0.0
H2622 H 0.14305 0.37663 0.12743 0.0
H2623 H 0.26799 0.4637 0.15953 0.0
H2624 H 0.24307 0.45211 0.17951 0.0
H2625 H 0.25427 0.43134 0.16951 0.0
H2626 H 0.16896 0.39442 0.2205 0.0
H2627 H 0.1965 0.34635 0.19372 0.0
H2628 H 0.16586 0.42393 0.17671 0.0
H2629 H 0.19926 0.44602 0.1841 0.0
H2630 H 0.17405 0.43163 0.20378 0.0
H2631 H 0.20135 0.36451 0.14383 0.0
H2632 H 0.21949 0.35629 0.16201 0.0
H2633 H 0.23346 0.38881 0.15232 0.0
C2634 C 0.80189 0.57733 0.90735 0.0
C2635 C 0.77581 0.56898 0.91388 0.0
C2636 C 0.81154 0.59018 0.88832 0.0
C2637 C 0.79547 0.59657 0.87598 0.0
C2638 C 0.76918 0.58819 0.88234 0.0
C2639 C 0.75946 0.57373 0.90063 0.0
C2640 C 0.83918 0.59707 0.88191 0.0
C2641 C 0.75124 0.59485 0.87012 0.0
C2642 C 0.8317 0.6567 0.84261 0.0
C2643 C 0.82301 0.64714 0.82239 0.0
C2644 C 0.82281 0.64054 0.86005 0.0
C2645 C 0.80649 0.61357 0.85735 0.0
C2646 C 0.79957 0.60337 0.83692 0.0
C2647 C 0.80717 0.62024 0.81983 0.0
C2648 C 0.83048 0.65269 0.8814 0.0
C2649 C 0.78367 0.57472 0.83278 0.0
H2650 H 0.81519 0.57427 0.91712 0.0
H2651 H 0.73889 0.56642 0.90449 0.0
H2652 H 0.84283 0.60132 0.86508 0.0
H2653 H 0.85373 0.61416 0.8909 0.0
H2654 H 0.8429 0.58102 0.8857 0.0
H2655 H 0.73395 0.59201 0.8794 0.0
H2656 H 0.7621 0.61519 0.86475 0.0
H2657 H 0.74367 0.58222 0.85623 0.0
H2658 H 0.84515 0.67708 0.84508 0.0
H2659 H 0.80004 0.6121 0.80456 0.0
H2660 H 0.84646 0.64979 0.8878 0.0
H2661 H 0.81345 0.64369 0.89222 0.0
H2662 H 0.83788 0.67378 0.88095 0.0
H2663 H 0.78414 0.56303 0.84598 0.0
H2664 H 0.79122 0.5697 0.81872 0.0
H2665 H 0.76282 0.56924 0.82953 0.0
C2666 C 0.43712 0.18407 0.90045 0.0
C2667 C 0.44809 0.20804 0.91074 0.0
C2668 C 0.41934 0.17798 0.88385 0.0
C2669 C 0.41351 0.19681 0.87633 0.0
C2670 C 0.42477 0.22118 0.88621 0.0
C2671 C 0.44119 0.2262 0.90365 0.0
C2672 C 0.40696 0.15135 0.87427 0.0
C2673 C 0.42002 0.24222 0.87806 0.0
C2674 C 0.38879 0.18429 0.8206 0.0
C2675 C 0.36143 0.17439 0.82308 0.0
C2676 C 0.40615 0.19323 0.83767 0.0
C2677 C 0.39588 0.19091 0.85794 0.0
C2678 C 0.36849 0.18131 0.86066 0.0
C2679 C 0.35181 0.174 0.84321 0.0
C2680 C 0.43545 0.20449 0.834 0.0
C2681 C 0.35656 0.17754 0.88207 0.0
H2682 H 0.44262 0.16997 0.905 0.0
H2683 H 0.44871 0.24454 0.91155 0.0
H2684 H 0.3852 0.14289 0.87298 0.0
H2685 H 0.41472 0.1526 0.85835 0.0
H2686 H 0.41109 0.13802 0.88345 0.0
H2687 H 0.43151 0.26063 0.88674 0.0
H2688 H 0.42558 0.24578 0.86141 0.0
H2689 H 0.39873 0.23613 0.87909 0.0
H2690 H 0.39685 0.18447 0.80544 0.0
H2691 H 0.33104 0.16746 0.84555 0.0
H2692 H 0.44164 0.19057 0.8391 0.0
H2693 H 0.44696 0.22243 0.84322 0.0
H2694 H 0.44068 0.20895 0.81735 0.0
H2695 H 0.36046 0.16389 0.89099 0.0
H2696 H 0.33485 0.16983 0.88154 0.0
H2697 H 0.36587 0.19603 0.89076 0.0
C2698 C 0.82913 0.23671 0.90866 0.0
C2699 C 0.80504 0.23616 0.91187 0.0
C2700 C 0.83428 0.22779 0.89007 0.0
C2701 C 0.81468 0.21752 0.87434 0.0
C2702 C 0.78999 0.21614 0.87765 0.0
C2703 C 0.78552 0.22562 0.89632 0.0
C2704 C 0.86091 0.2297 0.88717 0.0
C2705 C 0.76847 0.20498 0.86135 0.0
C2706 C 0.84041 0.21817 0.81998 0.0
C2707 C 0.83735 0.19342 0.81868 0.0
C2708 C 0.83223 0.22601 0.83773 0.0
C2709 C 0.82037 0.20852 0.85441 0.0
C2710 C 0.81603 0.18308 0.85268 0.0
C2711 C 0.82477 0.17591 0.83491 0.0
C2712 C 0.83751 0.2534 0.83905 0.0
C2713 C 0.80303 0.16372 0.86993 0.0
H2714 H 0.84414 0.24428 0.92073 0.0
H2715 H 0.76695 0.22532 0.89852 0.0
H2716 H 0.85831 0.21024 0.88441 0.0
H2717 H 0.87086 0.24158 0.8733 0.0
H2718 H 0.8741 0.23842 0.90084 0.0
H2719 H 0.74991 0.20402 0.86674 0.0
H2720 H 0.77525 0.21693 0.8471 0.0
H2721 H 0.76409 0.18526 0.85699 0.0
H2722 H 0.85029 0.23179 0.8075 0.0
H2723 H 0.82212 0.15665 0.83381 0.0
H2724 H 0.85232 0.26392 0.85144 0.0
H2725 H 0.81919 0.25359 0.84331 0.0
H2726 H 0.8451 0.26398 0.8242 0.0
H2727 H 0.81623 0.16983 0.88373 0.0
H2728 H 0.79866 0.14406 0.86531 0.0
H2729 H 0.78432 0.16283 0.87469 0.0
C2730 C 0.25383 0.12476 0.4568 0.0
C2731 C 0.23522 0.0984 0.45541 0.0
C2732 C 0.27022 0.13489 0.47436 0.0
C2733 C 0.26758 0.1183 0.49102 0.0
C2734 C 0.24812 0.09184 0.48998 0.0
C2735 C 0.23231 0.08217 0.47211 0.0
C2736 C 0.29095 0.16315 0.47479 0.0
C2737 C 0.24436 0.07361 0.50755 0.0
C2738 C 0.32688 0.13625 0.52596 0.0
C2739 C 0.32123 0.14688 0.54334 0.0
C2740 C 0.30973 0.12716 0.50879 0.0
C2741 C 0.28606 0.1283 0.50907 0.0
C2742 C 0.28001 0.13869 0.52662 0.0
C2743 C 0.29774 0.14801 0.54347 0.0
C2744 C 0.31695 0.1163 0.49033 0.0
C2745 C 0.25482 0.13997 0.52758 0.0
H2746 H 0.25616 0.13727 0.44383 0.0
H2747 H 0.21768 0.06183 0.47114 0.0
H2748 H 0.28887 0.17244 0.48903 0.0
H2749 H 0.31094 0.16521 0.47521 0.0
H2750 H 0.28966 0.17367 0.46103 0.0
H2751 H 0.2272 0.05399 0.50489 0.0
H2752 H 0.2624 0.07198 0.50936 0.0
H2753 H 0.24137 0.08126 0.52239 0.0
H2754 H 0.34468 0.13481 0.52581 0.0
H2755 H 0.29332 0.15651 0.55666 0.0
H2756 H 0.31755 0.12695 0.47605 0.0
H2757 H 0.30166 0.0958 0.48789 0.0
H2758 H 0.33644 0.11745 0.49231 0.0
H2759 H 0.25435 0.15203 0.51469 0.0
H2760 H 0.25277 0.14814 0.54252 0.0
H2761 H 0.23745 0.12037 0.52557 0.0
C2762 C 0.89385 0.12365 0.45625 0.0
C2763 C 0.91944 0.14201 0.44963 0.0
C2764 C 0.88309 0.127 0.47474 0.0
C2765 C 0.89736 0.15016 0.48628 0.0
C2766 C 0.92296 0.16893 0.47965 0.0
C2767 C 0.93399 0.1642 0.46199 0.0
C2768 C 0.85627 0.10564 0.48152 0.0
C2769 C 0.93869 0.19437 0.49094 0.0
C2770 C 0.85717 0.17134 0.51877 0.0
C2771 C 0.86609 0.17117 0.53909 0.0
C2772 C 0.86726 0.1647 0.50154 0.0
C2773 C 0.88521 0.15557 0.5046 0.0
C2774 C 0.89254 0.15308 0.5251 0.0
C2775 C 0.88365 0.16168 0.54197 0.0
C2776 C 0.85914 0.1682 0.48002 0.0
C2777 C 0.91025 0.14189 0.52945 0.0
H2778 H 0.88183 0.10656 0.44702 0.0
H2779 H 0.95415 0.17819 0.45799 0.0
H2780 H 0.85307 0.10608 0.49847 0.0
H2781 H 0.84065 0.10744 0.4731 0.0
H2782 H 0.85379 0.08648 0.47746 0.0
H2783 H 0.95577 0.20863 0.48165 0.0
H2784 H 0.92601 0.2028 0.49475 0.0
H2785 H 0.94644 0.19124 0.50573 0.0
H2786 H 0.84258 0.17716 0.51607 0.0
H2787 H 0.8911 0.16139 0.55732 0.0
H2788 H 0.84529 0.14908 0.47321 0.0
H2789 H 0.87662 0.17782 0.46966 0.0
H2790 H 0.8491 0.17985 0.4802 0.0
H2791 H 0.9086 0.12803 0.51723 0.0
H2792 H 0.90537 0.13184 0.54468 0.0
H2793 H 0.9311 0.15771 0.53029 0.0
C2794 C 0.89384 0.77957 0.46266 0.0
C2795 C 0.87397 0.76994 0.44733 0.0
C2796 C 0.89028 0.76666 0.4817 0.0
C2797 C 0.86614 0.74369 0.48568 0.0
C2798 C 0.84603 0.73388 0.47031 0.0
C2799 C 0.85026 0.74695 0.45134 0.0
C2800 C 0.91233 0.77761 0.49757 0.0
C2801 C 0.81997 0.7095 0.47389 0.0
C2802 C 0.86101 0.694 0.52506 0.0
C2803 C 0.84873 0.69867 0.54191 0.0
C2804 C 0.86783 0.70922 0.50705 0.0
C2805 C 0.86193 0.72946 0.50568 0.0
C2806 C 0.85037 0.73486 0.52295 0.0
C2807 C 0.84407 0.71951 0.54092 0.0
C2808 C 0.88055 0.70304 0.48921 0.0
C2809 C 0.84354 0.7561 0.52209 0.0
H2810 H 0.91208 0.79747 0.45995 0.0
H2811 H 0.83494 0.739 0.43953 0.0
H2812 H 0.90538 0.78219 0.51214 0.0
H2813 H 0.91819 0.76307 0.50144 0.0
H2814 H 0.93005 0.79539 0.49199 0.0
H2815 H 0.80603 0.70485 0.46065 0.0
H2816 H 0.82336 0.693 0.4763 0.0
H2817 H 0.81048 0.71149 0.48816 0.0
H2818 H 0.86492 0.67808 0.52586 0.0
H2819 H 0.83442 0.72308 0.55385 0.0
H2820 H 0.89867 0.72072 0.48408 0.0
H2821 H 0.86674 0.69585 0.47578 0.0
H2822 H 0.88589 0.68819 0.49338 0.0
H2823 H 0.86103 0.77452 0.51731 0.0
H2824 H 0.8364 0.75907 0.53727 0.0
H2825 H 0.82786 0.75125 0.51026 0.0
loop_
_geom_bond_atom_site_label_1
_geom_bond_atom_site_label_2
_geom_bond_distance
_geom_bond_site_symmetry_2
_ccdc_geom_bond_type
H0 C1 0.949 . S
C1 H0 0.949 . S
C1 C2 1.395 . S
C1 C3 1.391 . S
C2 C1 1.395 . S
C2 C5 1.390 . S
C3 C1 1.391 . S
C3 C7 1.387 . S
C3 C8 1.491 . S
H4 C5 0.950 . S
C5 C2 1.390 . S
C5 H4 0.950 . S
C5 C6 1.378 . S
C6 C5 1.378 . S
C6 C7 1.409 . S
C7 C3 1.387 . S
C7 C6 1.409 . S
C7 H9 0.951 . S
C8 C3 1.491 . S
C8 C10 1.382 . S
C8 C12 1.404 . S
H9 C7 0.951 . S
C10 C8 1.382 . S
C10 C11 1.390 . S
C10 H15 0.949 . S
C11 C10 1.390 . S
C11 C16 1.399 . S
C12 C8 1.404 . S
C12 H13 0.950 . S
C12 C14 1.375 . S
H13 C12 0.950 . S
C14 C12 1.375 . S
C14 C16 1.382 . S
C14 H18 0.950 . S
H15 C10 0.949 . S
C16 C11 1.399 . S
C16 C14 1.382 . S
C16 H17 0.952 . S
H17 C16 0.952 . S
H18 C14 0.950 . S
H19 C20 0.949 . S
C20 H19 0.949 . S
C20 C21 1.395 . S
C20 C22 1.391 . S
C21 C20 1.395 . S
C21 C24 1.390 . S
C22 C20 1.391 . S
C22 C26 1.387 . S
C22 C27 1.491 . S
H23 C24 0.950 . S
C24 C21 1.390 . S
C24 H23 0.950 . S
C24 C25 1.378 . S
C25 C24 1.378 . S
C25 C26 1.409 . S
C26 C22 1.387 . S
C26 C25 1.409 . S
C26 H28 0.951 . S
C27 C22 1.491 . S
C27 C29 1.382 . S
C27 C31 1.404 . S
H28 C26 0.951 . S
C29 C27 1.382 . S
C29 C30 1.390 . S
C29 H34 0.949 . S
C30 C29 1.390 . S
C30 C35 1.399 . S
C31 C27 1.404 . S
C31 H32 0.950 . S
C31 C33 1.375 . S
H32 C31 0.950 . S
C33 C31 1.375 . S
C33 C35 1.382 . S
C33 H37 0.950 . S
H34 C29 0.949 . S
C35 C30 1.399 . S
C35 C33 1.382 . S
C35 H36 0.952 1_545 S
H36 C35 0.952 1_565 S
H37 C33 0.950 . S
H38 C39 0.949 . S
C39 H38 0.949 . S
C39 C40 1.395 . S
C39 C41 1.391 . S
C40 C39 1.395 . S
C40 C43 1.390 . S
C41 C39 1.391 . S
C41 C45 1.387 . S
C41 C46 1.491 . S
H42 C43 0.950 . S
C43 C40 1.390 . S
C43 H42 0.950 . S
C43 C44 1.378 . S
C44 C43 1.378 . S
C44 C45 1.409 . S
C45 C41 1.387 . S
C45 C44 1.409 . S
C45 H47 0.951 . S
C46 C41 1.491 . S
C46 C48 1.382 . S
C46 C50 1.404 . S
H47 C45 0.951 . S
C48 C46 1.382 . S
C48 C49 1.390 . S
C48 H53 0.949 . S
C49 C48 1.390 . S
C49 C54 1.399 1_655 S
C50 C46 1.404 . S
C50 H51 0.950 . S
C50 C52 1.375 . S
H51 C50 0.950 . S
C52 C50 1.375 . S
C52 C54 1.382 1_655 S
C52 H56 0.950 . S
H53 C48 0.949 . S
C54 C49 1.399 1_455 S
C54 C52 1.382 1_455 S
C54 H55 0.952 . S
H55 C54 0.952 . S
H56 C52 0.950 . S
H57 C58 0.949 . S
C58 H57 0.949 . S
C58 C59 1.395 . S
C58 C60 1.391 . S
C59 C58 1.395 . S
C59 C62 1.390 . S
C60 C58 1.391 . S
C60 C64 1.387 . S
C60 C65 1.491 . S
H61 C62 0.950 . S
C62 C59 1.390 . S
C62 H61 0.950 . S
C62 C63 1.378 . S
C63 C62 1.378 . S
C63 C64 1.409 . S
C64 C60 1.387 . S
C64 C63 1.409 . S
C64 H66 0.951 . S
C65 C60 1.491 . S
C65 C67 1.382 . S
C65 C69 1.404 . S
H66 C64 0.951 . S
C67 C65 1.382 . S
C67 C68 1.390 . S
C67 H72 0.949 . S
C68 C67 1.390 . S
C68 C73 1.399 . S
C69 C65 1.404 . S
C69 H70 0.950 . S
C69 C71 1.375 . S
H70 C69 0.950 . S
C71 C69 1.375 . S
C71 C73 1.382 . S
C71 H75 0.950 . S
H72 C67 0.949 . S
C73 C68 1.399 . S
C73 C71 1.382 . S
C73 H74 0.952 . S
H74 C73 0.952 . S
H75 C71 0.950 . S
H76 C77 0.949 . S
C77 H76 0.949 . S
C77 C78 1.395 . S
C77 C79 1.391 . S
C78 C77 1.395 . S
C78 C81 1.390 . S
C79 C77 1.391 . S
C79 C83 1.387 . S
C79 C84 1.491 . S
H80 C81 0.950 . S
C81 C78 1.390 . S
C81 H80 0.950 . S
C81 C82 1.378 . S
C82 C81 1.378 . S
C82 C83 1.409 . S
C83 C79 1.387 . S
C83 C82 1.409 . S
C83 H85 0.951 . S
C84 C79 1.491 . S
C84 C86 1.382 . S
C84 C88 1.404 . S
H85 C83 0.951 . S
C86 C84 1.382 . S
C86 C87 1.390 . S
C86 H91 0.949 . S
C87 C86 1.390 . S
C87 C92 1.399 . S
C88 C84 1.404 . S
C88 H89 0.950 . S
C88 C90 1.375 . S
H89 C88 0.950 . S
C90 C88 1.375 . S
C90 C92 1.382 . S
C90 H94 0.950 . S
H91 C86 0.949 . S
C92 C87 1.399 . S
C92 C90 1.382 . S
C92 H93 0.952 1_565 S
H93 C92 0.952 1_545 S
H94 C90 0.950 . S
H95 C96 0.949 . S
C96 H95 0.949 . S
C96 C97 1.395 . S
C96 C98 1.391 . S
C97 C96 1.395 . S
C97 C100 1.390 . S
C98 C96 1.391 . S
C98 C102 1.387 . S
C98 C103 1.491 . S
H99 C100 0.950 . S
C100 C97 1.390 . S
C100 H99 0.950 . S
C100 C101 1.378 . S
C101 C100 1.378 . S
C101 C102 1.409 . S
C102 C98 1.387 . S
C102 C101 1.409 . S
C102 H104 0.951 . S
C103 C98 1.491 . S
C103 C105 1.382 . S
C103 C107 1.404 . S
H104 C102 0.951 . S
C105 C103 1.382 . S
C105 C106 1.390 . S
C105 H110 0.949 . S
C106 C105 1.390 . S
C106 C111 1.399 . S
C107 C103 1.404 . S
C107 H108 0.950 . S
C107 C109 1.375 . S
H108 C107 0.950 . S
C109 C107 1.375 . S
C109 C111 1.382 . S
C109 H113 0.950 . S
H110 C105 0.949 . S
C111 C106 1.399 . S
C111 C109 1.382 . S
C111 H112 0.952 1_455 S
H112 C111 0.952 1_655 S
H113 C109 0.950 . S
H114 C115 0.949 . S
C115 H114 0.949 . S
C115 C116 1.395 . S
C115 C117 1.391 . S
C116 C115 1.395 . S
C116 C119 1.390 . S
C117 C115 1.391 . S
C117 C121 1.387 . S
C117 C122 1.491 . S
H118 C119 0.950 . S
C119 C116 1.390 . S
C119 H118 0.950 . S
C119 C120 1.378 . S
C120 C119 1.378 . S
C120 C121 1.409 . S
C121 C117 1.387 . S
C121 C120 1.409 . S
C121 H123 0.951 . S
C122 C117 1.491 . S
C122 C124 1.382 . S
C122 C126 1.404 . S
H123 C121 0.951 . S
C124 C122 1.382 . S
C124 C125 1.390 . S
C124 H129 0.949 . S
C125 C124 1.390 . S
C125 C130 1.399 . S
C126 C122 1.404 . S
C126 H127 0.950 . S
C126 C128 1.375 . S
H127 C126 0.950 . S
C128 C126 1.375 . S
C128 C130 1.382 . S
C128 H132 0.950 . S
H129 C124 0.949 . S
C130 C125 1.399 . S
C130 C128 1.382 . S
C130 H131 0.952 . S
H131 C130 0.952 . S
H132 C128 0.950 . S
H133 C134 0.949 . S
C134 H133 0.949 . S
C134 C135 1.395 . S
C134 C136 1.391 . S
C135 C134 1.395 . S
C135 C138 1.390 . S
C136 C134 1.391 . S
C136 C140 1.387 . S
C136 C141 1.491 . S
H137 C138 0.950 . S
C138 C135 1.390 . S
C138 H137 0.950 . S
C138 C139 1.378 . S
C139 C138 1.378 . S
C139 C140 1.409 . S
C140 C136 1.387 . S
C140 C139 1.409 . S
C140 H142 0.951 . S
C141 C136 1.491 . S
C141 C143 1.382 . S
C141 C145 1.404 . S
H142 C140 0.951 . S
C143 C141 1.382 . S
C143 C144 1.390 . S
C143 H148 0.949 . S
C144 C143 1.390 . S
C144 C149 1.399 . S
C145 C141 1.404 . S
C145 H146 0.950 . S
C145 C147 1.375 . S
H146 C145 0.950 . S
C147 C145 1.375 . S
C147 C149 1.382 . S
C147 H151 0.950 . S
H148 C143 0.949 . S
C149 C144 1.399 . S
C149 C147 1.382 . S
C149 H150 0.952 . S
H150 C149 0.952 . S
H151 C147 0.950 . S
H152 C153 0.949 . S
C153 H152 0.949 . S
C153 C154 1.395 . S
C153 C155 1.391 . S
C154 C153 1.395 . S
C154 C157 1.390 . S
C155 C153 1.391 . S
C155 C159 1.387 . S
C155 C160 1.491 . S
H156 C157 0.950 . S
C157 C154 1.390 . S
C157 H156 0.950 . S
C157 C158 1.378 . S
C158 C157 1.378 . S
C158 C159 1.409 . S
C159 C155 1.387 . S
C159 C158 1.409 . S
C159 H161 0.951 . S
C160 C155 1.491 . S
C160 C162 1.382 . S
C160 C164 1.404 . S
H161 C159 0.951 . S
C162 C160 1.382 . S
C162 C163 1.390 . S
C162 H167 0.949 . S
C163 C162 1.390 . S
C163 C168 1.399 . S
C164 C160 1.404 . S
C164 H165 0.950 . S
C164 C166 1.375 . S
H165 C164 0.950 . S
C166 C164 1.375 . S
C166 C168 1.382 . S
C166 H170 0.950 . S
H167 C162 0.949 . S
C168 C163 1.399 . S
C168 C166 1.382 . S
C168 H169 0.952 . S
H169 C168 0.952 . S
H170 C166 0.950 . S
H171 C172 0.949 . S
C172 H171 0.949 . S
C172 C173 1.395 . S
C172 C174 1.391 . S
C173 C172 1.395 . S
C173 C176 1.390 . S
C174 C172 1.391 . S
C174 C178 1.387 . S
C174 C179 1.491 . S
H175 C176 0.950 . S
C176 C173 1.390 . S
C176 H175 0.950 . S
C176 C177 1.378 . S
C177 C176 1.378 . S
C177 C178 1.409 . S
C178 C174 1.387 . S
C178 C177 1.409 . S
C178 H180 0.951 . S
C179 C174 1.491 . S
C179 C181 1.382 . S
C179 C183 1.404 . S
H180 C178 0.951 . S
C181 C179 1.382 . S
C181 C182 1.390 . S
C181 H186 0.949 . S
C182 C181 1.390 . S
C182 C187 1.399 . S
C183 C179 1.404 . S
C183 H184 0.950 . S
C183 C185 1.375 . S
H184 C183 0.950 . S
C185 C183 1.375 . S
C185 C187 1.382 . S
C185 H189 0.950 . S
H186 C181 0.949 . S
C187 C182 1.399 . S
C187 C185 1.382 . S
C187 H188 0.952 . S
H188 C187 0.952 . S
H189 C185 0.950 . S
H190 C191 0.949 . S
C191 H190 0.949 . S
C191 C192 1.395 . S
C191 C193 1.391 . S
C192 C191 1.395 . S
C192 C195 1.390 . S
C193 C191 1.391 . S
C193 C197 1.387 . S
C193 C198 1.491 . S
H194 C195 0.950 . S
C195 C192 1.390 . S
C195 H194 0.950 . S
C195 C196 1.378 . S
C196 C195 1.378 . S
C196 C197 1.409 . S
C197 C193 1.387 . S
C197 C196 1.409 . S
C197 H199 0.951 . S
C198 C193 1.491 . S
C198 C200 1.382 . S
C198 C202 1.404 . S
H199 C197 0.951 . S
C200 C198 1.382 . S
C200 C201 1.390 . S
C200 H205 0.949 . S
C201 C200 1.390 . S
C201 C206 1.399 . S
C202 C198 1.404 . S
C202 H203 0.950 . S
C202 C204 1.375 . S
H203 C202 0.950 . S
C204 C202 1.375 . S
C204 C206 1.382 . S
C204 H208 0.950 1_556 S
H205 C200 0.949 . S
C206 C201 1.399 . S
C206 C204 1.382 . S
C206 H207 0.952 1_556 S
H207 C206 0.952 1_554 S
H208 C204 0.950 1_554 S
H209 C210 0.949 . S
C210 H209 0.949 . S
C210 C211 1.395 . S
C210 C212 1.391 . S
C211 C210 1.395 . S
C211 C214 1.390 . S
C212 C210 1.391 . S
C212 C216 1.387 . S
C212 C217 1.491 . S
H213 C214 0.950 . S
C214 C211 1.390 . S
C214 H213 0.950 . S
C214 C215 1.378 . S
C215 C214 1.378 . S
C215 C216 1.409 . S
C216 C212 1.387 . S
C216 C215 1.409 . S
C216 H218 0.951 . S
C217 C212 1.491 . S
C217 C219 1.382 . S
C217 C221 1.404 . S
H218 C216 0.951 . S
C219 C217 1.382 . S
C219 C220 1.390 . S
C219 H224 0.949 . S
C220 C219 1.390 . S
C220 C225 1.399 . S
C221 C217 1.404 . S
C221 H222 0.950 . S
C221 C223 1.375 . S
H222 C221 0.950 . S
C223 C221 1.375 . S
C223 C225 1.382 . S
C223 H227 0.950 . S
H224 C219 0.949 . S
C225 C220 1.399 . S
C225 C223 1.382 . S
C225 H226 0.952 . S
H226 C225 0.952 . S
H227 C223 0.950 . S
H228 C229 0.949 . S
C229 H228 0.949 . S
C229 C230 1.395 . S
C229 C231 1.391 . S
C230 C229 1.395 . S
C230 C233 1.390 . S
C231 C229 1.391 . S
C231 C235 1.387 . S
C231 C236 1.491 . S
H232 C233 0.950 . S
C233 C230 1.390 . S
C233 H232 0.950 . S
C233 C234 1.378 . S
C234 C233 1.378 . S
C234 C235 1.409 . S
C235 C231 1.387 . S
C235 C234 1.409 . S
C235 H237 0.951 . S
C236 C231 1.491 . S
C236 C238 1.382 . S
C236 C240 1.404 . S
H237 C235 0.951 . S
C238 C236 1.382 . S
C238 C239 1.390 . S
C238 H243 0.949 . S
C239 C238 1.390 . S
C239 C244 1.399 . S
C240 C236 1.404 . S
C240 H241 0.950 . S
C240 C242 1.375 . S
H241 C240 0.950 . S
C242 C240 1.375 . S
C242 C244 1.382 . S
C242 H246 0.950 . S
H243 C238 0.949 . S
C244 C239 1.399 . S
C244 C242 1.382 . S
C244 H245 0.952 . S
H245 C244 0.952 . S
H246 C242 0.950 . S
H247 C248 0.949 . S
C248 H247 0.949 . S
C248 C249 1.395 . S
C248 C250 1.391 . S
C249 C248 1.395 . S
C249 C252 1.390 . S
C250 C248 1.391 . S
C250 C254 1.387 . S
C250 C255 1.491 . S
H251 C252 0.950 . S
C252 C249 1.390 . S
C252 H251 0.950 . S
C252 C253 1.378 . S
C253 C252 1.378 . S
C253 C254 1.409 . S
C254 C250 1.387 . S
C254 C253 1.409 . S
C254 H256 0.951 . S
C255 C250 1.491 . S
C255 C257 1.382 . S
C255 C259 1.404 . S
H256 C254 0.951 . S
C257 C255 1.382 . S
C257 C258 1.390 . S
C257 H262 0.949 . S
C258 C257 1.390 . S
C258 C263 1.399 . S
C259 C255 1.404 . S
C259 H260 0.950 . S
C259 C261 1.375 . S
H260 C259 0.950 . S
C261 C259 1.375 . S
C261 C263 1.382 . S
C261 H265 0.950 . S
H262 C257 0.949 . S
C263 C258 1.399 . S
C263 C261 1.382 . S
C263 H264 0.952 . S
H264 C263 0.952 . S
H265 C261 0.950 . S
H266 C267 0.949 . S
C267 H266 0.949 . S
C267 C268 1.395 . S
C267 C269 1.391 . S
C268 C267 1.395 . S
C268 C271 1.390 . S
C269 C267 1.391 . S
C269 C273 1.387 . S
C269 C274 1.491 . S
H270 C271 0.950 . S
C271 C268 1.390 . S
C271 H270 0.950 . S
C271 C272 1.378 . S
C272 C271 1.378 . S
C272 C273 1.409 . S
C273 C269 1.387 . S
C273 C272 1.409 . S
C273 H275 0.951 . S
C274 C269 1.491 . S
C274 C276 1.382 . S
C274 C278 1.404 . S
H275 C273 0.951 . S
C276 C274 1.382 . S
C276 C277 1.390 . S
C276 H281 0.949 . S
C277 C276 1.390 . S
C277 C282 1.399 . S
C278 C274 1.404 . S
C278 H279 0.950 . S
C278 C280 1.375 . S
H279 C278 0.950 . S
C280 C278 1.375 . S
C280 C282 1.382 . S
C280 H284 0.950 . S
H281 C276 0.949 . S
C282 C277 1.399 . S
C282 C280 1.382 . S
C282 H283 0.952 . S
H283 C282 0.952 . S
H284 C280 0.950 . S
H285 C286 0.949 . S
C286 H285 0.949 . S
C286 C287 1.395 . S
C286 C288 1.391 . S
C287 C286 1.395 . S
C287 C290 1.390 . S
C288 C286 1.391 . S
C288 C292 1.387 . S
C288 C293 1.491 . S
H289 C290 0.950 . S
C290 C287 1.390 . S
C290 H289 0.950 . S
C290 C291 1.378 . S
C291 C290 1.378 . S
C291 C292 1.409 . S
C292 C288 1.387 . S
C292 C291 1.409 . S
C292 H294 0.951 . S
C293 C288 1.491 . S
C293 C295 1.382 . S
C293 C297 1.404 . S
H294 C292 0.951 . S
C295 C293 1.382 . S
C295 C296 1.390 . S
C295 H300 0.949 . S
C296 C295 1.390 . S
C296 C301 1.399 . S
C297 C293 1.404 . S
C297 H298 0.950 . S
C297 C299 1.375 . S
H298 C297 0.950 . S
C299 C297 1.375 . S
C299 C301 1.382 . S
C299 H303 0.950 . S
H300 C295 0.949 . S
C301 C296 1.399 . S
C301 C299 1.382 . S
C301 H302 0.952 . S
H302 C301 0.952 . S
H303 C299 0.950 . S
H304 C305 0.949 . S
C305 H304 0.949 . S
C305 C306 1.395 . S
C305 C307 1.391 . S
C306 C305 1.395 . S
C306 C309 1.390 . S
C307 C305 1.391 . S
C307 C311 1.387 . S
C307 C312 1.491 . S
H308 C309 0.950 . S
C309 C306 1.390 . S
C309 H308 0.950 . S
C309 C310 1.378 . S
C310 C309 1.378 . S
C310 C311 1.409 . S
C311 C307 1.387 . S
C311 C310 1.409 . S
C311 H313 0.951 . S
C312 C307 1.491 . S
C312 C314 1.382 . S
C312 C316 1.404 . S
H313 C311 0.951 . S
C314 C312 1.382 . S
C314 C315 1.390 . S
C314 H319 0.949 . S
C315 C314 1.390 . S
C315 C320 1.399 . S
C316 C312 1.404 . S
C316 H317 0.950 . S
C316 C318 1.375 . S
H317 C316 0.950 . S
C318 C316 1.375 . S
C318 C320 1.382 . S
C318 H322 0.950 . S
H319 C314 0.949 . S
C320 C315 1.399 . S
C320 C318 1.382 . S
C320 H321 0.952 . S
H321 C320 0.952 . S
H322 C318 0.950 . S
H323 C324 0.949 . S
C324 H323 0.949 . S
C324 C325 1.395 . S
C324 C326 1.391 . S
C325 C324 1.395 . S
C325 C328 1.390 . S
C326 C324 1.391 . S
C326 C330 1.387 . S
C326 C331 1.491 . S
H327 C328 0.950 . S
C328 C325 1.390 . S
C328 H327 0.950 . S
C328 C329 1.378 . S
C329 C328 1.378 . S
C329 C330 1.409 . S
C330 C326 1.387 . S
C330 C329 1.409 . S
C330 H332 0.951 . S
C331 C326 1.491 . S
C331 C333 1.382 . S
C331 C335 1.404 . S
H332 C330 0.951 . S
C333 C331 1.382 . S
C333 C334 1.390 . S
C333 H338 0.949 . S
C334 C333 1.390 . S
C334 C339 1.399 . S
C335 C331 1.404 . S
C335 H336 0.950 . S
C335 C337 1.375 . S
H336 C335 0.950 . S
C337 C335 1.375 . S
C337 C339 1.382 . S
C337 H341 0.950 . S
H338 C333 0.949 . S
C339 C334 1.399 . S
C339 C337 1.382 . S
C339 H340 0.952 . S
H340 C339 0.952 . S
H341 C337 0.950 . S
Tb342 N373 2.660 . S
Tb342 N380 2.600 . S
Tb342 O386 2.546 . S
Tb342 O387 2.610 1_566 S
Tb342 O389 2.320 1_565 S
Tb342 O390 2.552 1_565 S
Tb342 O391 2.413 1_565 S
Tb342 O393 2.362 1_556 S
Tb342 O394 2.421 . S
Tb342 C406 2.833 1_565 S
C343 C346 1.432 . S
C343 C347 1.414 . S
C343 N350 1.359 . S
C344 C346 1.417 . S
C344 C348 1.432 . S
C344 C356 1.410 . S
C345 C347 1.444 . S
C345 C348 1.317 . S
C345 H368 0.929 . S
C346 C343 1.432 . S
C346 C344 1.417 . S
C346 N354 1.360 . S
C347 C343 1.414 . S
C347 C345 1.444 . S
C347 C352 1.385 . S
C348 C344 1.432 . S
C348 C345 1.317 . S
C348 H360 0.930 . S
C349 C351 1.392 . S
C349 C352 1.370 . S
C349 H361 0.931 . S
N350 C343 1.359 . S
N350 C351 1.327 . S
N350 Tb353 2.600 . S
C351 C349 1.392 . S
C351 N350 1.327 . S
C351 H358 0.930 . S
C352 C347 1.385 . S
C352 C349 1.370 . S
C352 H371 0.930 . S
Tb353 N350 2.600 . S
Tb353 N354 2.660 . S
Tb353 O387 2.362 . S
Tb353 O388 2.421 . S
Tb353 O392 2.546 . S
Tb353 O393 2.610 1_545 S
Tb353 O395 2.320 1_545 S
Tb353 O396 2.552 1_545 S
Tb353 O397 2.413 1_545 S
Tb353 C417 2.833 1_545 S
N354 C346 1.360 . S
N354 Tb353 2.660 . S
N354 C355 1.305 . S
C355 N354 1.305 . S
C355 C357 1.407 . S
C355 H362 0.930 . S
C356 C344 1.410 . S
C356 C357 1.345 . S
C356 H364 0.930 . S
C357 C355 1.407 . S
C357 C356 1.345 . S
C357 H359 0.930 . S
H358 C351 0.930 . S
H359 C357 0.930 . S
H360 C348 0.930 . S
H361 C349 0.931 . S
H362 C355 0.930 . S
H363 C377 0.930 . S
H364 C356 0.930 . S
H365 C383 0.930 . S
H366 C374 0.939 . S
H367 C381 0.931 . S
H368 C345 0.929 . S
H369 C375 0.930 . S
H370 C408 0.930 . S
H371 C352 0.930 . S
H372 C407 0.929 . S
N373 Tb342 2.660 . S
N373 C374 1.305 . S
N373 C378 1.360 . S
C374 H366 0.939 . S
C374 N373 1.305 . S
C374 C377 1.407 . S
C375 H369 0.930 . S
C375 C376 1.410 . S
C375 C377 1.345 . S
C376 C375 1.410 . S
C376 C378 1.417 . S
C376 C408 1.432 . S
C377 H363 0.930 . S
C377 C374 1.407 . S
C377 C375 1.345 . S
C378 N373 1.360 . S
C378 C376 1.417 . S
C378 C382 1.432 . S
H379 C384 0.930 . S
N380 Tb342 2.600 . S
N380 C382 1.359 . S
N380 C383 1.327 . S
C381 H367 0.931 . S
C381 C383 1.392 . S
C381 C384 1.370 . S
C382 C378 1.432 . S
C382 N380 1.359 . S
C382 C385 1.414 . S
C383 H365 0.930 . S
C383 N380 1.327 . S
C383 C381 1.392 . S
C384 H379 0.930 . S
C384 C381 1.370 . S
C384 C385 1.385 . S
C385 C382 1.414 . S
C385 C384 1.385 . S
C385 C407 1.444 . S
O386 Tb342 2.546 . S
O386 C406 1.251 1_565 S
O387 Tb342 2.610 1_544 S
O387 Tb353 2.362 . S
O387 C398 1.283 1_554 S
O388 Tb353 2.421 . S
O388 C405 1.262 . S
O389 Tb342 2.320 1_545 S
O389 C405 1.260 1_556 S
O390 Tb342 2.552 1_545 S
O390 C398 1.243 . S
O391 Tb342 2.413 1_545 S
O391 C406 1.256 . S
O392 Tb353 2.546 . S
O392 C417 1.250 1_545 S
O393 Tb342 2.362 1_554 S
O393 Tb353 2.610 1_565 S
O393 C409 1.283 . S
O394 Tb342 2.421 . S
O394 C416 1.262 1_556 S
O395 Tb353 2.320 1_565 S
O395 C416 1.260 . S
O396 Tb353 2.552 1_565 S
O396 C409 1.243 . S
O397 Tb353 2.413 1_565 S
O397 C417 1.257 . S
C398 O387 1.283 1_556 S
C398 O390 1.243 . S
C399 C401 1.382 . S
C399 C403 1.393 1_545 S
C399 C406 1.500 . S
C400 C401 1.400 . S
C400 C402 1.384 . S
C401 C399 1.382 . S
C401 C400 1.400 . S
C401 H418 0.930 . S
C402 C400 1.384 . S
C402 C404 1.392 . S
C402 H419 0.931 . S
C403 C399 1.393 1_565 S
C403 C404 1.401 1_565 S
C403 H420 0.930 . S
C404 C402 1.392 . S
C404 C403 1.401 1_545 S
C404 H421 0.930 1_545 S
C405 O388 1.262 . S
C405 O389 1.260 1_554 S
C406 Tb342 2.833 1_545 S
C406 O386 1.251 1_545 S
C406 O391 1.256 . S
C406 C399 1.500 . S
C407 H372 0.929 . S
C407 C385 1.444 . S
C407 C408 1.317 . S
C408 H370 0.930 . S
C408 C376 1.432 . S
C408 C407 1.317 . S
C409 O393 1.283 . S
C409 O396 1.243 . S
C410 C411 1.382 . S
C410 C414 1.393 1_565 S
C410 C417 1.500 . S
C411 C410 1.382 . S
C411 C412 1.400 . S
C411 H422 0.930 . S
C412 C411 1.400 . S
C412 C413 1.384 . S
C413 C412 1.384 . S
C413 C415 1.392 . S
C413 H423 0.931 . S
C414 C410 1.393 1_545 S
C414 C415 1.401 1_545 S
C414 H424 0.930 . S
C415 C413 1.392 . S
C415 C414 1.401 1_565 S
C415 H425 0.930 1_565 S
C416 O394 1.262 1_554 S
C416 O395 1.260 . S
C417 Tb353 2.833 1_565 S
C417 O392 1.250 1_565 S
C417 O397 1.257 . S
C417 C410 1.500 . S
H418 C401 0.930 . S
H419 C402 0.931 . S
H420 C403 0.930 . S
H421 C404 0.930 1_565 S
H422 C411 0.930 . S
H423 C413 0.931 . S
H424 C414 0.930 . S
H425 C415 0.930 1_545 S
Tb426 N457 2.660 . S
Tb426 N464 2.600 . S
Tb426 O470 2.546 . S
Tb426 O471 2.610 1_456 S
Tb426 O473 2.320 1_455 S
Tb426 O474 2.552 1_455 S
Tb426 O475 2.413 1_455 S
Tb426 O477 2.362 1_556 S
Tb426 O478 2.421 . S
Tb426 C490 2.833 . S
C427 C430 1.432 . S
C427 C431 1.414 . S
C427 N434 1.359 . S
C428 C430 1.417 . S
C428 C432 1.432 . S
C428 C440 1.410 . S
C429 C431 1.444 . S
C429 C432 1.317 . S
C429 H452 0.929 . S
C430 C427 1.432 . S
C430 C428 1.417 . S
C430 N438 1.360 . S
C431 C427 1.414 . S
C431 C429 1.444 . S
C431 C436 1.385 . S
C432 C428 1.432 . S
C432 C429 1.317 . S
C432 H444 0.930 . S
C433 C435 1.392 . S
C433 C436 1.370 . S
C433 H445 0.931 . S
N434 C427 1.359 . S
N434 C435 1.327 . S
N434 Tb437 2.600 . S
C435 C433 1.392 . S
C435 N434 1.327 . S
C435 H442 0.930 . S
C436 C431 1.385 . S
C436 C433 1.370 . S
C436 H455 0.930 . S
Tb437 N434 2.600 . S
Tb437 N438 2.660 . S
Tb437 O471 2.362 . S
Tb437 O472 2.421 . S
Tb437 O476 2.546 . S
Tb437 O477 2.610 1_655 S
Tb437 O479 2.320 1_655 S
Tb437 O480 2.552 1_655 S
Tb437 O481 2.413 1_655 S
Tb437 C501 2.833 1_655 S
N438 C430 1.360 . S
N438 Tb437 2.660 . S
N438 C439 1.305 . S
C439 N438 1.305 . S
C439 C441 1.407 . S
C439 H446 0.920 1_655 S
C440 C428 1.410 . S
C440 C441 1.345 . S
C440 H448 0.930 . S
C441 C439 1.407 . S
C441 C440 1.345 . S
C441 H443 0.930 . S
H442 C435 0.930 . S
H443 C441 0.930 . S
H444 C432 0.930 . S
H445 C433 0.931 . S
H446 C439 0.920 1_455 S
H447 C461 0.930 . S
H448 C440 0.930 . S
H449 C467 0.930 . S
H450 C458 0.930 . S
H451 C465 0.931 . S
H452 C429 0.929 . S
H453 C459 0.930 . S
H454 C492 0.930 . S
H455 C436 0.930 . S
H456 C491 0.929 . S
N457 Tb426 2.660 . S
N457 C458 1.305 . S
N457 C462 1.360 . S
C458 H450 0.930 . S
C458 N457 1.305 . S
C458 C461 1.407 . S
C459 H453 0.930 . S
C459 C460 1.410 . S
C459 C461 1.345 . S
C460 C459 1.410 . S
C460 C462 1.417 . S
C460 C492 1.432 . S
C461 H447 0.930 . S
C461 C458 1.407 . S
C461 C459 1.345 . S
C462 N457 1.360 . S
C462 C460 1.417 . S
C462 C466 1.432 . S
H463 C468 0.930 . S
N464 Tb426 2.600 . S
N464 C466 1.359 . S
N464 C467 1.327 . S
C465 H451 0.931 . S
C465 C467 1.392 . S
C465 C468 1.370 . S
C466 C462 1.432 . S
C466 N464 1.359 . S
C466 C469 1.414 . S
C467 H449 0.930 . S
C467 N464 1.327 . S
C467 C465 1.392 . S
C468 H463 0.930 . S
C468 C465 1.370 . S
C468 C469 1.385 . S
C469 C466 1.414 . S
C469 C468 1.385 . S
C469 C491 1.444 . S
O470 Tb426 2.546 . S
O470 C490 1.251 . S
O471 Tb426 2.610 1_654 S
O471 Tb437 2.362 . S
O471 C482 1.283 1_554 S
O472 Tb437 2.421 . S
O472 C489 1.262 . S
O473 Tb426 2.320 1_655 S
O473 C489 1.260 1_556 S
O474 Tb426 2.552 1_655 S
O474 C482 1.243 . S
O475 Tb426 2.413 1_655 S
O475 C490 1.256 1_655 S
O476 Tb437 2.546 . S
O476 C501 1.251 1_655 S
O477 Tb426 2.362 1_554 S
O477 Tb437 2.610 1_455 S
O477 C493 1.283 . S
O478 Tb426 2.421 . S
O478 C500 1.262 1_556 S
O479 Tb437 2.320 1_455 S
O479 C500 1.260 . S
O480 Tb437 2.552 1_455 S
O480 C493 1.243 . S
O481 Tb437 2.413 1_455 S
O481 C501 1.256 . S
C482 O471 1.283 1_556 S
C482 O474 1.243 . S
C483 C485 1.382 . S
C483 C487 1.393 1_655 S
C483 C490 1.500 1_655 S
C484 C485 1.400 . S
C484 C486 1.384 . S
C485 C483 1.382 . S
C485 C484 1.400 . S
C485 H502 0.930 . S
C486 C484 1.384 . S
C486 C488 1.392 1_655 S
C486 H503 0.931 . S
C487 C483 1.393 1_455 S
C487 C488 1.401 . S
C487 H504 0.930 . S
C488 C486 1.392 1_455 S
C488 C487 1.401 . S
C488 H505 0.930 . S
C489 O472 1.262 . S
C489 O473 1.260 1_554 S
C490 Tb426 2.833 . S
C490 O470 1.251 . S
C490 O475 1.256 1_455 S
C490 C483 1.500 1_455 S
C491 H456 0.929 . S
C491 C469 1.444 . S
C491 C492 1.317 . S
C492 H454 0.930 . S
C492 C460 1.432 . S
C492 C491 1.317 . S
C493 O477 1.283 . S
C493 O480 1.243 . S
C494 C495 1.382 . S
C494 C498 1.393 1_455 S
C494 C501 1.500 . S
C495 C494 1.382 . S
C495 C496 1.400 . S
C495 H506 0.930 . S
C496 C495 1.400 . S
C496 C497 1.384 . S
C497 C496 1.384 . S
C497 C499 1.392 . S
C497 H507 0.931 . S
C498 C494 1.393 1_655 S
C498 C499 1.401 1_655 S
C498 H508 0.930 . S
C499 C497 1.392 . S
C499 C498 1.401 1_455 S
C499 H509 0.930 1_455 S
C500 O478 1.262 1_554 S
C500 O479 1.260 . S
C501 Tb437 2.833 1_455 S
C501 O476 1.251 1_455 S
C501 O481 1.256 . S
C501 C494 1.500 . S
H502 C485 0.930 . S
H503 C486 0.931 . S
H504 C487 0.930 . S
H505 C488 0.930 . S
H506 C495 0.930 . S
H507 C497 0.931 . S
H508 C498 0.930 . S
H509 C499 0.930 1_655 S
Tb510 N541 2.660 . S
Tb510 N548 2.600 . S
Tb510 O554 2.546 . S
Tb510 O555 2.610 . S
Tb510 O557 2.320 . S
Tb510 O558 2.552 . S
Tb510 O559 2.413 . S
Tb510 O561 2.362 . S
Tb510 O562 2.421 . S
Tb510 C574 2.833 . S
C511 C514 1.432 . S
C511 C515 1.414 . S
C511 N518 1.359 . S
C512 C514 1.417 . S
C512 C516 1.432 . S
C512 C524 1.410 . S
C513 C515 1.444 . S
C513 C516 1.317 . S
C513 H536 0.929 . S
C514 C511 1.432 . S
C514 C512 1.417 . S
C514 N522 1.360 . S
C515 C511 1.414 . S
C515 C513 1.444 . S
C515 C520 1.385 . S
C516 C512 1.432 . S
C516 C513 1.317 . S
C516 H528 0.930 . S
C517 C519 1.392 . S
C517 C520 1.370 . S
C517 H529 0.931 . S
N518 C511 1.359 . S
N518 C519 1.327 . S
N518 Tb521 2.600 . S
C519 C517 1.392 . S
C519 N518 1.327 . S
C519 H526 0.930 . S
C520 C515 1.385 . S
C520 C517 1.370 . S
C520 H539 0.930 . S
Tb521 N518 2.600 . S
Tb521 N522 2.660 . S
Tb521 O555 2.362 1_556 S
Tb521 O556 2.421 . S
Tb521 O560 2.546 . S
Tb521 O561 2.610 1_556 S
Tb521 O563 2.320 . S
Tb521 O564 2.552 . S
Tb521 O565 2.413 . S
Tb521 C585 2.833 . S
N522 C514 1.360 . S
N522 Tb521 2.660 . S
N522 C523 1.305 . S
C523 N522 1.305 . S
C523 C525 1.407 . S
C523 H530 0.930 . S
C524 C512 1.410 . S
C524 C525 1.345 . S
C524 H532 0.930 . S
C525 C523 1.407 . S
C525 C524 1.345 . S
C525 H527 0.930 . S
H526 C519 0.930 . S
H527 C525 0.930 . S
H528 C516 0.930 . S
H529 C517 0.931 . S
H530 C523 0.930 . S
H531 C545 0.930 . S
H532 C524 0.930 . S
H533 C551 0.930 . S
H534 C542 0.930 . S
H535 C549 0.931 . S
H536 C513 0.929 . S
H537 C543 0.930 . S
H538 C576 0.930 . S
H539 C520 0.930 . S
H540 C575 0.929 . S
N541 Tb510 2.660 . S
N541 C542 1.305 . S
N541 C546 1.360 . S
C542 H534 0.930 . S
C542 N541 1.305 . S
C542 C545 1.407 . S
C543 H537 0.930 . S
C543 C544 1.410 . S
C543 C545 1.345 . S
C544 C543 1.410 . S
C544 C546 1.417 . S
C544 C576 1.432 . S
C545 H531 0.930 . S
C545 C542 1.407 . S
C545 C543 1.345 . S
C546 N541 1.360 . S
C546 C544 1.417 . S
C546 C550 1.432 . S
H547 C552 0.930 . S
N548 Tb510 2.600 . S
N548 C550 1.359 . S
N548 C551 1.327 . S
C549 H535 0.931 . S
C549 C551 1.392 . S
C549 C552 1.370 . S
C550 C546 1.432 . S
C550 N548 1.359 . S
C550 C553 1.414 . S
C551 H533 0.930 . S
C551 N548 1.327 . S
C551 C549 1.392 . S
C552 H547 0.930 . S
C552 C549 1.370 . S
C552 C553 1.385 . S
C553 C550 1.414 . S
C553 C552 1.385 . S
C553 C575 1.444 . S
O554 Tb510 2.546 . S
O554 C574 1.251 . S
O555 Tb510 2.610 . S
O555 Tb521 2.362 1_554 S
O555 C566 1.283 . S
O556 Tb521 2.421 . S
O556 C573 1.262 1_556 S
O557 Tb510 2.320 . S
O557 C573 1.260 . S
O558 Tb510 2.552 . S
O558 C566 1.243 . S
O559 Tb510 2.413 . S
O559 C574 1.256 . S
O560 Tb521 2.546 . S
O560 C585 1.251 . S
O561 Tb510 2.362 . S
O561 Tb521 2.610 1_554 S
O561 C577 1.283 1_554 S
O562 Tb510 2.421 . S
O562 C584 1.262 . S
O563 Tb521 2.320 . S
O563 C584 1.260 1_556 S
O564 Tb521 2.552 . S
O564 C577 1.243 . S
O565 Tb521 2.413 . S
O565 C585 1.256 . S
C566 O555 1.283 . S
C566 O558 1.243 . S
C567 C569 1.382 . S
C567 C571 1.393 . S
C567 C574 1.500 . S
C568 C569 1.400 . S
C568 C570 1.384 . S
C569 C567 1.382 . S
C569 C568 1.400 . S
C569 H586 0.930 . S
C570 C568 1.384 . S
C570 C572 1.392 . S
C570 H587 0.931 . S
C571 C567 1.393 . S
C571 C572 1.401 . S
C571 H588 0.930 . S
C572 C570 1.392 . S
C572 C571 1.401 . S
C572 H589 0.930 . S
C573 O556 1.262 1_554 S
C573 O557 1.260 . S
C574 Tb510 2.833 . S
C574 O554 1.251 . S
C574 O559 1.256 . S
C574 C567 1.500 . S
C575 H540 0.929 . S
C575 C553 1.444 . S
C575 C576 1.317 . S
C576 H538 0.930 . S
C576 C544 1.432 . S
C576 C575 1.317 . S
C577 O561 1.283 1_556 S
C577 O564 1.243 . S
C578 C579 1.382 . S
C578 C582 1.393 . S
C578 C585 1.500 . S
C579 C578 1.382 . S
C579 C580 1.400 . S
C579 H590 0.930 . S
C580 C579 1.400 . S
C580 C581 1.384 . S
C581 C580 1.384 . S
C581 C583 1.392 . S
C581 H591 0.931 . S
C582 C578 1.393 . S
C582 C583 1.401 . S
C582 H592 0.930 . S
C583 C581 1.392 . S
C583 C582 1.401 . S
C583 H593 0.930 . S
C584 O562 1.262 . S
C584 O563 1.260 1_554 S
C585 Tb521 2.833 . S
C585 O560 1.251 . S
C585 O565 1.256 . S
C585 C578 1.500 . S
H586 C569 0.930 . S
H587 C570 0.931 . S
H588 C571 0.930 . S
H589 C572 0.930 . S
H590 C579 0.930 . S
H591 C581 0.931 . S
H592 C582 0.930 . S
H593 C583 0.930 . S
Tb594 N625 2.660 . S
Tb594 N632 2.600 . S
Tb594 O638 2.546 . S
Tb594 O639 2.610 . S
Tb594 O641 2.320 . S
Tb594 O642 2.552 . S
Tb594 O643 2.413 . S
Tb594 O645 2.362 . S
Tb594 O646 2.421 . S
Tb594 C658 2.833 . S
C595 C598 1.432 . S
C595 C599 1.414 . S
C595 N602 1.359 . S
C596 C598 1.417 . S
C596 C600 1.432 . S
C596 C608 1.410 . S
C597 C599 1.444 . S
C597 C600 1.317 . S
C597 H620 0.929 . S
C598 C595 1.432 . S
C598 C596 1.417 . S
C598 N606 1.360 . S
C599 C595 1.414 . S
C599 C597 1.444 . S
C599 C604 1.385 . S
C600 C596 1.432 . S
C600 C597 1.317 . S
C600 H612 0.930 . S
C601 C603 1.392 . S
C601 C604 1.370 . S
C601 H613 0.931 . S
N602 C595 1.359 . S
N602 C603 1.327 . S
N602 Tb605 2.600 . S
C603 C601 1.392 . S
C603 N602 1.327 . S
C603 H610 0.930 . S
C604 C599 1.385 . S
C604 C601 1.370 . S
C604 H623 0.930 . S
Tb605 N602 2.600 . S
Tb605 N606 2.660 . S
Tb605 O639 2.362 . S
Tb605 O640 2.421 . S
Tb605 O644 2.546 . S
Tb605 O645 2.610 . S
Tb605 O647 2.320 . S
Tb605 O648 2.552 . S
Tb605 O649 2.413 . S
Tb605 C669 2.833 . S
N606 C598 1.360 . S
N606 Tb605 2.660 . S
N606 C607 1.305 . S
C607 N606 1.305 . S
C607 C609 1.407 . S
C607 H614 0.930 . S
C608 C596 1.410 . S
C608 C609 1.345 . S
C608 H616 0.930 . S
C609 C607 1.407 . S
C609 C608 1.345 . S
C609 H611 0.930 . S
H610 C603 0.930 . S
H611 C609 0.930 . S
H612 C600 0.930 . S
H613 C601 0.931 . S
H614 C607 0.930 . S
H615 C629 0.930 . S
H616 C608 0.930 . S
H617 C635 0.930 . S
H618 C626 0.930 . S
H619 C633 0.931 . S
H620 C597 0.929 . S
H621 C627 0.930 1_655 S
H622 C660 0.930 1_655 S
H623 C604 0.930 . S
H624 C659 0.929 . S
N625 Tb594 2.660 . S
N625 C626 1.305 . S
N625 C630 1.360 . S
C626 H618 0.930 . S
C626 N625 1.305 . S
C626 C629 1.407 . S
C627 H621 0.930 1_455 S
C627 C628 1.410 . S
C627 C629 1.345 . S
C628 C627 1.410 . S
C628 C630 1.417 . S
C628 C660 1.432 . S
C629 H615 0.930 . S
C629 C626 1.407 . S
C629 C627 1.345 . S
C630 N625 1.360 . S
C630 C628 1.417 . S
C630 C634 1.432 . S
H631 C636 0.930 . S
N632 Tb594 2.600 . S
N632 C634 1.359 . S
N632 C635 1.327 . S
C633 H619 0.931 . S
C633 C635 1.392 . S
C633 C636 1.370 . S
C634 C630 1.432 . S
C634 N632 1.359 . S
C634 C637 1.414 . S
C635 H617 0.930 . S
C635 N632 1.327 . S
C635 C633 1.392 . S
C636 H631 0.930 . S
C636 C633 1.370 . S
C636 C637 1.385 . S
C637 C634 1.414 . S
C637 C636 1.385 . S
C637 C659 1.444 . S
O638 Tb594 2.546 . S
O638 C658 1.251 . S
O639 Tb594 2.610 . S
O639 Tb605 2.362 . S
O639 C650 1.283 . S
O640 Tb605 2.421 . S
O640 C657 1.262 . S
O641 Tb594 2.320 . S
O641 C657 1.260 . S
O642 Tb594 2.552 . S
O642 C650 1.243 . S
O643 Tb594 2.413 . S
O643 C658 1.256 . S
O644 Tb605 2.546 . S
O644 C669 1.251 . S
O645 Tb594 2.362 . S
O645 Tb605 2.610 . S
O645 C661 1.283 . S
O646 Tb594 2.421 . S
O646 C668 1.262 . S
O647 Tb605 2.320 . S
O647 C668 1.260 . S
O648 Tb605 2.552 . S
O648 C661 1.243 . S
O649 Tb605 2.413 . S
O649 C669 1.256 . S
C650 O639 1.283 . S
C650 O642 1.243 . S
C651 C653 1.382 . S
C651 C655 1.393 . S
C651 C658 1.500 . S
C652 C653 1.400 . S
C652 C654 1.384 . S
C653 C651 1.382 . S
C653 C652 1.400 . S
C653 H670 0.930 . S
C654 C652 1.384 . S
C654 C656 1.392 . S
C654 H671 0.931 . S
C655 C651 1.393 . S
C655 C656 1.401 . S
C655 H672 0.930 . S
C656 C654 1.392 . S
C656 C655 1.401 . S
C656 H673 0.930 . S
C657 O640 1.262 . S
C657 O641 1.260 . S
C658 Tb594 2.833 . S
C658 O638 1.251 . S
C658 O643 1.256 . S
C658 C651 1.500 . S
C659 H624 0.929 . S
C659 C637 1.444 . S
C659 C660 1.317 . S
C660 H622 0.930 1_455 S
C660 C628 1.432 . S
C660 C659 1.317 . S
C661 O645 1.283 . S
C661 O648 1.243 . S
C662 C663 1.382 . S
C662 C666 1.393 . S
C662 C669 1.500 . S
C663 C662 1.382 . S
C663 C664 1.400 . S
C663 H674 0.930 . S
C664 C663 1.400 . S
C664 C665 1.384 . S
C665 C664 1.384 . S
C665 C667 1.392 . S
C665 H675 0.931 . S
C666 C662 1.393 . S
C666 C667 1.401 . S
C666 H676 0.930 . S
C667 C665 1.392 . S
C667 C666 1.401 . S
C667 H677 0.930 . S
C668 O646 1.262 . S
C668 O647 1.260 . S
C669 Tb605 2.833 . S
C669 O644 1.251 . S
C669 O649 1.256 . S
C669 C662 1.500 . S
H670 C653 0.930 . S
H671 C654 0.931 . S
H672 C655 0.930 . S
H673 C656 0.930 . S
H674 C663 0.930 . S
H675 C665 0.931 . S
H676 C666 0.930 . S
H677 C667 0.930 . S
Tb678 N709 2.660 . S
Tb678 N716 2.600 . S
Tb678 O722 2.546 . S
Tb678 O723 2.610 . S
Tb678 O725 2.320 . S
Tb678 O726 2.552 . S
Tb678 O727 2.413 . S
Tb678 O729 2.362 . S
Tb678 O730 2.421 . S
Tb678 C742 2.833 . S
C679 C682 1.432 . S
C679 C683 1.414 . S
C679 N686 1.359 . S
C680 C682 1.417 . S
C680 C684 1.432 . S
C680 C692 1.410 . S
C681 C683 1.444 . S
C681 C684 1.317 . S
C681 H704 0.929 . S
C682 C679 1.432 . S
C682 C680 1.417 . S
C682 N690 1.360 . S
C683 C679 1.414 . S
C683 C681 1.444 . S
C683 C688 1.385 . S
C684 C680 1.432 . S
C684 C681 1.317 . S
C684 H696 0.930 . S
C685 C687 1.392 . S
C685 C688 1.370 . S
C685 H697 0.931 . S
N686 C679 1.359 . S
N686 C687 1.327 . S
N686 Tb689 2.600 . S
C687 C685 1.392 . S
C687 N686 1.327 . S
C687 H694 0.930 . S
C688 C683 1.385 . S
C688 C685 1.370 . S
C688 H707 0.930 . S
Tb689 N686 2.600 . S
Tb689 N690 2.660 . S
Tb689 O723 2.362 . S
Tb689 O724 2.421 . S
Tb689 O728 2.546 . S
Tb689 O729 2.610 . S
Tb689 O731 2.320 . S
Tb689 O732 2.552 . S
Tb689 O733 2.413 . S
Tb689 C753 2.833 . S
N690 C682 1.360 . S
N690 Tb689 2.660 . S
N690 C691 1.305 . S
C691 N690 1.305 . S
C691 C693 1.407 . S
C691 H698 0.930 . S
C692 C680 1.410 . S
C692 C693 1.345 . S
C692 H700 0.930 . S
C693 C691 1.407 . S
C693 C692 1.345 . S
C693 H695 0.930 . S
H694 C687 0.930 . S
H695 C693 0.930 . S
H696 C684 0.930 . S
H697 C685 0.931 . S
H698 C691 0.930 . S
H699 C713 0.930 . S
H700 C692 0.930 . S
H701 C719 0.930 . S
H702 C710 0.930 . S
H703 C717 0.931 . S
H704 C681 0.929 . S
H705 C711 0.930 . S
H706 C744 0.930 . S
H707 C688 0.930 . S
H708 C743 0.929 . S
N709 Tb678 2.660 . S
N709 C710 1.305 . S
N709 C714 1.360 . S
C710 H702 0.930 . S
C710 N709 1.305 . S
C710 C713 1.407 . S
C711 H705 0.930 . S
C711 C712 1.410 . S
C711 C713 1.345 . S
C712 C711 1.410 . S
C712 C714 1.417 . S
C712 C744 1.432 . S
C713 H699 0.930 . S
C713 C710 1.407 . S
C713 C711 1.345 . S
C714 N709 1.360 . S
C714 C712 1.417 . S
C714 C718 1.432 . S
H715 C720 0.930 . S
N716 Tb678 2.600 . S
N716 C718 1.359 . S
N716 C719 1.327 . S
C717 H703 0.931 . S
C717 C719 1.392 . S
C717 C720 1.370 . S
C718 C714 1.432 . S
C718 N716 1.359 . S
C718 C721 1.414 . S
C719 H701 0.930 . S
C719 N716 1.327 . S
C719 C717 1.392 . S
C720 H715 0.930 . S
C720 C717 1.370 . S
C720 C721 1.385 . S
C721 C718 1.414 . S
C721 C720 1.385 . S
C721 C743 1.444 . S
O722 Tb678 2.546 . S
O722 C742 1.251 . S
O723 Tb678 2.610 . S
O723 Tb689 2.362 . S
O723 C734 1.283 . S
O724 Tb689 2.421 . S
O724 C741 1.262 . S
O725 Tb678 2.320 . S
O725 C741 1.260 . S
O726 Tb678 2.552 . S
O726 C734 1.243 . S
O727 Tb678 2.413 . S
O727 C742 1.256 . S
O728 Tb689 2.546 . S
O728 C753 1.251 . S
O729 Tb678 2.362 . S
O729 Tb689 2.610 . S
O729 C745 1.283 . S
O730 Tb678 2.421 . S
O730 C752 1.262 . S
O731 Tb689 2.320 . S
O731 C752 1.260 . S
O732 Tb689 2.552 . S
O732 C745 1.243 . S
O733 Tb689 2.413 . S
O733 C753 1.256 . S
C734 O723 1.283 . S
C734 O726 1.243 . S
C735 C737 1.382 . S
C735 C739 1.393 . S
C735 C742 1.500 . S
C736 C737 1.400 . S
C736 C738 1.384 . S
C737 C735 1.382 . S
C737 C736 1.400 . S
C737 H754 0.930 . S
C738 C736 1.384 . S
C738 C740 1.392 . S
C738 H755 0.931 . S
C739 C735 1.393 . S
C739 C740 1.401 . S
C739 H756 0.930 . S
C740 C738 1.392 . S
C740 C739 1.401 . S
C740 H757 0.930 . S
C741 O724 1.262 . S
C741 O725 1.260 . S
C742 Tb678 2.833 . S
C742 O722 1.251 . S
C742 O727 1.256 . S
C742 C735 1.500 . S
C743 H708 0.929 . S
C743 C721 1.444 . S
C743 C744 1.317 . S
C744 H706 0.930 . S
C744 C712 1.432 . S
C744 C743 1.317 . S
C745 O729 1.283 . S
C745 O732 1.243 . S
C746 C747 1.382 . S
C746 C750 1.393 . S
C746 C753 1.500 . S
C747 C746 1.382 . S
C747 C748 1.400 . S
C747 H758 0.930 . S
C748 C747 1.400 . S
C748 C749 1.384 . S
C749 C748 1.384 . S
C749 C751 1.392 . S
C749 H759 0.931 . S
C750 C746 1.393 . S
C750 C751 1.401 . S
C750 H760 0.930 . S
C751 C749 1.392 . S
C751 C750 1.401 . S
C751 H761 0.930 . S
C752 O730 1.262 . S
C752 O731 1.260 . S
C753 Tb689 2.833 . S
C753 O728 1.251 . S
C753 O733 1.256 . S
C753 C746 1.500 . S
H754 C737 0.930 . S
H755 C738 0.931 . S
H756 C739 0.930 . S
H757 C740 0.930 . S
H758 C747 0.930 . S
H759 C749 0.931 . S
H760 C750 0.930 . S
H761 C751 0.930 . S
Tb762 N793 2.660 . S
Tb762 N800 2.600 . S
Tb762 O806 2.546 . S
Tb762 O807 2.610 . S
Tb762 O809 2.320 . S
Tb762 O810 2.552 . S
Tb762 O811 2.413 . S
Tb762 O813 2.362 . S
Tb762 O814 2.421 . S
Tb762 C826 2.833 . S
C763 C766 1.432 . S
C763 C767 1.414 . S
C763 N770 1.359 . S
C764 C766 1.417 . S
C764 C768 1.432 . S
C764 C776 1.410 . S
C765 C767 1.444 . S
C765 C768 1.317 . S
C765 H788 0.929 . S
C766 C763 1.432 . S
C766 C764 1.417 . S
C766 N774 1.360 . S
C767 C763 1.414 . S
C767 C765 1.444 . S
C767 C772 1.385 . S
C768 C764 1.432 . S
C768 C765 1.317 . S
C768 H780 0.930 . S
C769 C771 1.392 . S
C769 C772 1.370 . S
C769 H781 0.931 . S
N770 C763 1.359 . S
N770 C771 1.327 . S
N770 Tb773 2.600 . S
C771 C769 1.392 . S
C771 N770 1.327 . S
C771 H778 0.930 . S
C772 C767 1.385 . S
C772 C769 1.370 . S
C772 H791 0.930 . S
Tb773 N770 2.600 . S
Tb773 N774 2.660 . S
Tb773 O807 2.362 . S
Tb773 O808 2.421 . S
Tb773 O812 2.546 . S
Tb773 O813 2.610 . S
Tb773 O815 2.320 . S
Tb773 O816 2.552 . S
Tb773 O817 2.413 . S
Tb773 C837 2.833 . S
N774 C766 1.360 . S
N774 Tb773 2.660 . S
N774 C775 1.305 . S
C775 N774 1.305 . S
C775 C777 1.407 . S
C775 H782 0.930 . S
C776 C764 1.410 . S
C776 C777 1.345 . S
C776 H784 0.930 . S
C777 C775 1.407 . S
C777 C776 1.345 . S
C777 H779 0.930 . S
H778 C771 0.930 . S
H779 C777 0.930 . S
H780 C768 0.930 . S
H781 C769 0.931 . S
H782 C775 0.930 . S
H783 C797 0.930 . S
H784 C776 0.930 . S
H785 C803 0.930 . S
H786 C794 0.930 . S
H787 C801 0.931 . S
H788 C765 0.929 . S
H789 C795 0.930 . S
H790 C828 0.930 . S
H791 C772 0.930 . S
H792 C827 0.929 . S
N793 Tb762 2.660 . S
N793 C794 1.305 . S
N793 C798 1.360 . S
C794 H786 0.930 . S
C794 N793 1.305 . S
C794 C797 1.407 . S
C795 H789 0.930 . S
C795 C796 1.410 . S
C795 C797 1.345 . S
C796 C795 1.410 . S
C796 C798 1.417 . S
C796 C828 1.432 . S
C797 H783 0.930 . S
C797 C794 1.407 . S
C797 C795 1.345 . S
C798 N793 1.360 . S
C798 C796 1.417 . S
C798 C802 1.432 . S
H799 C804 0.930 . S
N800 Tb762 2.600 . S
N800 C802 1.359 . S
N800 C803 1.327 . S
C801 H787 0.931 . S
C801 C803 1.392 . S
C801 C804 1.370 . S
C802 C798 1.432 . S
C802 N800 1.359 . S
C802 C805 1.414 . S
C803 H785 0.930 . S
C803 N800 1.327 . S
C803 C801 1.392 . S
C804 H799 0.930 . S
C804 C801 1.370 . S
C804 C805 1.385 . S
C805 C802 1.414 . S
C805 C804 1.385 . S
C805 C827 1.444 . S
O806 Tb762 2.546 . S
O806 C826 1.251 . S
O807 Tb762 2.610 . S
O807 Tb773 2.362 . S
O807 C818 1.283 . S
O808 Tb773 2.421 . S
O808 C825 1.262 . S
O809 Tb762 2.320 . S
O809 C825 1.260 . S
O810 Tb762 2.552 . S
O810 C818 1.243 . S
O811 Tb762 2.413 . S
O811 C826 1.256 . S
O812 Tb773 2.546 . S
O812 C837 1.251 . S
O813 Tb762 2.362 . S
O813 Tb773 2.610 . S
O813 C829 1.283 . S
O814 Tb762 2.421 . S
O814 C836 1.262 . S
O815 Tb773 2.320 . S
O815 C836 1.260 . S
O816 Tb773 2.552 . S
O816 C829 1.243 . S
O817 Tb773 2.413 . S
O817 C837 1.256 . S
C818 O807 1.283 . S
C818 O810 1.243 . S
C819 C821 1.382 . S
C819 C823 1.393 . S
C819 C826 1.500 . S
C820 C821 1.400 . S
C820 C822 1.384 . S
C821 C819 1.382 . S
C821 C820 1.400 . S
C821 H838 0.930 . S
C822 C820 1.384 . S
C822 C824 1.392 . S
C822 H839 0.931 . S
C823 C819 1.393 . S
C823 C824 1.401 . S
C823 H840 0.930 . S
C824 C822 1.392 . S
C824 C823 1.401 . S
C824 H841 0.930 . S
C825 O808 1.262 . S
C825 O809 1.260 . S
C826 Tb762 2.833 . S
C826 O806 1.251 . S
C826 O811 1.256 . S
C826 C819 1.500 . S
C827 H792 0.929 . S
C827 C805 1.444 . S
C827 C828 1.317 . S
C828 H790 0.930 . S
C828 C796 1.432 . S
C828 C827 1.317 . S
C829 O813 1.283 . S
C829 O816 1.243 . S
C830 C831 1.382 . S
C830 C834 1.393 . S
C830 C837 1.500 . S
C831 C830 1.382 . S
C831 C832 1.400 . S
C831 H842 0.930 . S
C832 C831 1.400 . S
C832 C833 1.384 . S
C833 C832 1.384 . S
C833 C835 1.392 . S
C833 H843 0.931 . S
C834 C830 1.393 . S
C834 C835 1.401 . S
C834 H844 0.930 . S
C835 C833 1.392 . S
C835 C834 1.401 . S
C835 H845 0.930 . S
C836 O814 1.262 . S
C836 O815 1.260 . S
C837 Tb773 2.833 . S
C837 O812 1.251 . S
C837 O817 1.256 . S
C837 C830 1.500 . S
H838 C821 0.930 . S
H839 C822 0.931 . S
H840 C823 0.930 . S
H841 C824 0.930 . S
H842 C831 0.930 . S
H843 C833 0.931 . S
H844 C834 0.930 . S
H845 C835 0.930 . S
Tb846 N877 2.660 . S
Tb846 N884 2.600 . S
Tb846 O890 2.546 . S
Tb846 O891 2.610 . S
Tb846 O893 2.320 . S
Tb846 O894 2.552 . S
Tb846 O895 2.413 . S
Tb846 O897 2.362 . S
Tb846 O898 2.421 . S
Tb846 C910 2.833 . S
C847 C850 1.432 . S
C847 C851 1.414 . S
C847 N854 1.359 . S
C848 C850 1.417 . S
C848 C852 1.432 . S
C848 C860 1.410 . S
C849 C851 1.444 . S
C849 C852 1.317 . S
C849 H872 0.929 . S
C850 C847 1.432 . S
C850 C848 1.417 . S
C850 N858 1.360 . S
C851 C847 1.414 . S
C851 C849 1.444 . S
C851 C856 1.385 . S
C852 C848 1.432 . S
C852 C849 1.317 . S
C852 H864 0.930 . S
C853 C855 1.392 . S
C853 C856 1.370 . S
C853 H865 0.931 . S
N854 C847 1.359 . S
N854 C855 1.327 . S
N854 Tb857 2.600 . S
C855 C853 1.392 . S
C855 N854 1.327 . S
C855 H862 0.930 . S
C856 C851 1.385 . S
C856 C853 1.370 . S
C856 H875 0.930 . S
Tb857 N854 2.600 . S
Tb857 N858 2.660 . S
Tb857 O891 2.362 . S
Tb857 O892 2.421 . S
Tb857 O896 2.546 . S
Tb857 O897 2.610 . S
Tb857 O899 2.320 . S
Tb857 O900 2.552 . S
Tb857 O901 2.413 . S
Tb857 C921 2.833 . S
N858 C850 1.360 . S
N858 Tb857 2.660 . S
N858 C859 1.305 . S
C859 N858 1.305 . S
C859 C861 1.407 . S
C859 H866 0.930 . S
C860 C848 1.410 . S
C860 C861 1.345 . S
C860 H868 0.930 . S
C861 C859 1.407 . S
C861 C860 1.345 . S
C861 H863 0.930 . S
H862 C855 0.930 . S
H863 C861 0.930 . S
H864 C852 0.930 . S
H865 C853 0.931 . S
H866 C859 0.930 . S
H867 C881 0.930 . S
H868 C860 0.930 . S
H869 C887 0.930 . S
H870 C878 0.930 . S
H871 C885 0.931 . S
H872 C849 0.929 . S
H873 C879 0.930 . S
H874 C912 0.930 . S
H875 C856 0.930 . S
H876 C911 0.929 . S
N877 Tb846 2.660 . S
N877 C878 1.305 . S
N877 C882 1.360 . S
C878 H870 0.930 . S
C878 N877 1.305 . S
C878 C881 1.407 . S
C879 H873 0.930 . S
C879 C880 1.410 . S
C879 C881 1.345 . S
C880 C879 1.410 . S
C880 C882 1.417 . S
C880 C912 1.432 . S
C881 H867 0.930 . S
C881 C878 1.407 . S
C881 C879 1.345 . S
C882 N877 1.360 . S
C882 C880 1.417 . S
C882 C886 1.432 . S
H883 C888 0.930 . S
N884 Tb846 2.600 . S
N884 C886 1.359 . S
N884 C887 1.327 . S
C885 H871 0.931 . S
C885 C887 1.392 . S
C885 C888 1.370 . S
C886 C882 1.432 . S
C886 N884 1.359 . S
C886 C889 1.414 . S
C887 H869 0.930 . S
C887 N884 1.327 . S
C887 C885 1.392 . S
C888 H883 0.930 . S
C888 C885 1.370 . S
C888 C889 1.385 . S
C889 C886 1.414 . S
C889 C888 1.385 . S
C889 C911 1.444 . S
O890 Tb846 2.546 . S
O890 C910 1.251 . S
O891 Tb846 2.610 . S
O891 Tb857 2.362 . S
O891 C902 1.283 . S
O892 Tb857 2.421 . S
O892 C909 1.262 . S
O893 Tb846 2.320 . S
O893 C909 1.260 . S
O894 Tb846 2.552 . S
O894 C902 1.243 . S
O895 Tb846 2.413 . S
O895 C910 1.256 . S
O896 Tb857 2.546 . S
O896 C921 1.251 . S
O897 Tb846 2.362 . S
O897 Tb857 2.610 . S
O897 C913 1.283 . S
O898 Tb846 2.421 . S
O898 C920 1.262 . S
O899 Tb857 2.320 . S
O899 C920 1.260 . S
O900 Tb857 2.552 . S
O900 C913 1.243 . S
O901 Tb857 2.413 . S
O901 C921 1.256 . S
C902 O891 1.283 . S
C902 O894 1.243 . S
C903 C905 1.382 . S
C903 C907 1.393 . S
C903 C910 1.500 . S
C904 C905 1.400 . S
C904 C906 1.384 . S
C905 C903 1.382 . S
C905 C904 1.400 . S
C905 H922 0.930 . S
C906 C904 1.384 . S
C906 C908 1.392 . S
C906 H923 0.931 . S
C907 C903 1.393 . S
C907 C908 1.401 . S
C907 H924 0.930 . S
C908 C906 1.392 . S
C908 C907 1.401 . S
C908 H925 0.930 . S
C909 O892 1.262 . S
C909 O893 1.260 . S
C910 Tb846 2.833 . S
C910 O890 1.251 . S
C910 O895 1.256 . S
C910 C903 1.500 . S
C911 H876 0.929 . S
C911 C889 1.444 . S
C911 C912 1.317 . S
C912 H874 0.930 . S
C912 C880 1.432 . S
C912 C911 1.317 . S
C913 O897 1.283 . S
C913 O900 1.243 . S
C914 C915 1.382 . S
C914 C918 1.393 . S
C914 C921 1.500 . S
C915 C914 1.382 . S
C915 C916 1.400 . S
C915 H926 0.930 . S
C916 C915 1.400 . S
C916 C917 1.384 . S
C917 C916 1.384 . S
C917 C919 1.392 . S
C917 H927 0.931 . S
C918 C914 1.393 . S
C918 C919 1.401 . S
C918 H928 0.930 . S
C919 C917 1.392 . S
C919 C918 1.401 . S
C919 H929 0.930 . S
C920 O898 1.262 . S
C920 O899 1.260 . S
C921 Tb857 2.833 . S
C921 O896 1.251 . S
C921 O901 1.256 . S
C921 C914 1.500 . S
H922 C905 0.930 . S
H923 C906 0.931 . S
H924 C907 0.930 . S
H925 C908 0.930 . S
H926 C915 0.930 . S
H927 C917 0.931 . S
H928 C918 0.930 . S
H929 C919 0.930 . S
Tb930 N961 2.660 . S
Tb930 N968 2.600 . S
Tb930 O974 2.546 . S
Tb930 O975 2.610 . S
Tb930 O977 2.320 . S
Tb930 O978 2.552 . S
Tb930 O979 2.413 . S
Tb930 O981 2.362 . S
Tb930 O982 2.421 . S
Tb930 C994 2.833 . S
C931 C934 1.432 . S
C931 C935 1.414 . S
C931 N938 1.359 . S
C932 C934 1.417 . S
C932 C936 1.432 . S
C932 C944 1.410 . S
C933 C935 1.444 . S
C933 C936 1.317 . S
C933 H956 0.929 . S
C934 C931 1.432 . S
C934 C932 1.417 . S
C934 N942 1.360 . S
C935 C931 1.414 . S
C935 C933 1.444 . S
C935 C940 1.385 . S
C936 C932 1.432 . S
C936 C933 1.317 . S
C936 H948 0.930 . S
C937 C939 1.392 . S
C937 C940 1.370 . S
C937 H949 0.931 . S
N938 C931 1.359 . S
N938 C939 1.327 . S
N938 Tb941 2.600 . S
C939 C937 1.392 . S
C939 N938 1.327 . S
C939 H946 0.930 . S
C940 C935 1.385 . S
C940 C937 1.370 . S
C940 H959 0.930 . S
Tb941 N938 2.600 . S
Tb941 N942 2.660 . S
Tb941 O975 2.362 . S
Tb941 O976 2.421 . S
Tb941 O980 2.546 . S
Tb941 O981 2.610 . S
Tb941 O983 2.320 . S
Tb941 O984 2.552 . S
Tb941 O985 2.413 . S
Tb941 C1005 2.833 . S
N942 C934 1.360 . S
N942 Tb941 2.660 . S
N942 C943 1.305 . S
C943 N942 1.305 . S
C943 C945 1.407 . S
C943 H950 0.930 . S
C944 C932 1.410 . S
C944 C945 1.345 . S
C944 H952 0.930 . S
C945 C943 1.407 . S
C945 C944 1.345 . S
C945 H947 0.930 . S
H946 C939 0.930 . S
H947 C945 0.930 . S
H948 C936 0.930 . S
H949 C937 0.931 . S
H950 C943 0.930 . S
H951 C965 0.930 . S
H952 C944 0.930 . S
H953 C971 0.930 . S
H954 C962 0.930 . S
H955 C969 0.931 . S
H956 C933 0.929 . S
H957 C963 0.930 . S
H958 C996 0.930 . S
H959 C940 0.930 . S
H960 C995 0.929 . S
N961 Tb930 2.660 . S
N961 C962 1.305 . S
N961 C966 1.360 . S
C962 H954 0.930 . S
C962 N961 1.305 . S
C962 C965 1.407 . S
C963 H957 0.930 . S
C963 C964 1.410 . S
C963 C965 1.345 . S
C964 C963 1.410 . S
C964 C966 1.417 . S
C964 C996 1.432 . S
C965 H951 0.930 . S
C965 C962 1.407 . S
C965 C963 1.345 . S
C966 N961 1.360 . S
C966 C964 1.417 . S
C966 C970 1.432 . S
H967 C972 0.930 . S
N968 Tb930 2.600 . S
N968 C970 1.359 . S
N968 C971 1.327 . S
C969 H955 0.931 . S
C969 C971 1.392 . S
C969 C972 1.370 . S
C970 C966 1.432 . S
C970 N968 1.359 . S
C970 C973 1.414 . S
C971 H953 0.930 . S
C971 N968 1.327 . S
C971 C969 1.392 . S
C972 H967 0.930 . S
C972 C969 1.370 . S
C972 C973 1.385 . S
C973 C970 1.414 . S
C973 C972 1.385 . S
C973 C995 1.444 . S
O974 Tb930 2.546 . S
O974 C994 1.251 . S
O975 Tb930 2.610 . S
O975 Tb941 2.362 . S
O975 C986 1.283 . S
O976 Tb941 2.421 . S
O976 C993 1.262 . S
O977 Tb930 2.320 . S
O977 C993 1.260 . S
O978 Tb930 2.552 . S
O978 C986 1.243 . S
O979 Tb930 2.413 . S
O979 C994 1.256 . S
O980 Tb941 2.546 . S
O980 C1005 1.251 . S
O981 Tb930 2.362 . S
O981 Tb941 2.610 . S
O981 C997 1.283 . S
O982 Tb930 2.421 . S
O982 C1004 1.262 . S
O983 Tb941 2.320 . S
O983 C1004 1.260 . S
O984 Tb941 2.552 . S
O984 C997 1.243 . S
O985 Tb941 2.413 . S
O985 C1005 1.256 . S
C986 O975 1.283 . S
C986 O978 1.243 . S
C987 C989 1.382 . S
C987 C991 1.393 . S
C987 C994 1.500 . S
C988 C989 1.400 . S
C988 C990 1.384 . S
C989 C987 1.382 . S
C989 C988 1.400 . S
C989 H1006 0.930 . S
C990 C988 1.384 . S
C990 C992 1.392 . S
C990 H1007 0.931 . S
C991 C987 1.393 . S
C991 C992 1.401 . S
C991 H1008 0.930 . S
C992 C990 1.392 . S
C992 C991 1.401 . S
C992 H1009 0.930 . S
C993 O976 1.262 . S
C993 O977 1.260 . S
C994 Tb930 2.833 . S
C994 O974 1.251 . S
C994 O979 1.256 . S
C994 C987 1.500 . S
C995 H960 0.929 . S
C995 C973 1.444 . S
C995 C996 1.317 . S
C996 H958 0.930 . S
C996 C964 1.432 . S
C996 C995 1.317 . S
C997 O981 1.283 . S
C997 O984 1.243 . S
C998 C999 1.382 . S
C998 C1002 1.393 . S
C998 C1005 1.500 . S
C999 C998 1.382 . S
C999 C1000 1.400 . S
C999 H1010 0.930 . S
C1000 C999 1.400 . S
C1000 C1001 1.384 . S
C1001 C1000 1.384 . S
C1001 C1003 1.392 . S
C1001 H1011 0.931 . S
C1002 C998 1.393 . S
C1002 C1003 1.401 . S
C1002 H1012 0.930 . S
C1003 C1001 1.392 . S
C1003 C1002 1.401 . S
C1003 H1013 0.930 . S
C1004 O982 1.262 . S
C1004 O983 1.260 . S
C1005 Tb941 2.833 . S
C1005 O980 1.251 . S
C1005 O985 1.256 . S
C1005 C998 1.500 . S
H1006 C989 0.930 . S
H1007 C990 0.931 . S
H1008 C991 0.930 . S
H1009 C992 0.930 . S
H1010 C999 0.930 . S
H1011 C1001 0.931 . S
H1012 C1002 0.930 . S
H1013 C1003 0.930 . S
Tb1014 N1045 2.660 . S
Tb1014 N1052 2.600 . S
Tb1014 O1058 2.546 . S
Tb1014 O1059 2.610 . S
Tb1014 O1061 2.320 . S
Tb1014 O1062 2.552 . S
Tb1014 O1063 2.413 . S
Tb1014 O1065 2.362 . S
Tb1014 O1066 2.421 . S
Tb1014 C1078 2.833 . S
C1015 C1018 1.432 . S
C1015 C1019 1.414 . S
C1015 N1022 1.359 . S
C1016 C1018 1.417 . S
C1016 C1020 1.432 . S
C1016 C1028 1.410 . S
C1017 C1019 1.444 . S
C1017 C1020 1.317 . S
C1017 H1040 0.929 . S
C1018 C1015 1.432 . S
C1018 C1016 1.417 . S
C1018 N1026 1.360 . S
C1019 C1015 1.414 . S
C1019 C1017 1.444 . S
C1019 C1024 1.385 . S
C1020 C1016 1.432 . S
C1020 C1017 1.317 . S
C1020 H1032 0.930 . S
C1021 C1023 1.392 . S
C1021 C1024 1.370 . S
C1021 H1033 0.931 . S
N1022 C1015 1.359 . S
N1022 C1023 1.327 . S
N1022 Tb1025 2.600 . S
C1023 C1021 1.392 . S
C1023 N1022 1.327 . S
C1023 H1030 0.930 . S
C1024 C1019 1.385 . S
C1024 C1021 1.370 . S
C1024 H1043 0.930 . S
Tb1025 N1022 2.600 . S
Tb1025 N1026 2.660 . S
Tb1025 O1059 2.362 . S
Tb1025 O1060 2.421 . S
Tb1025 O1064 2.546 . S
Tb1025 O1065 2.610 . S
Tb1025 O1067 2.320 . S
Tb1025 O1068 2.552 . S
Tb1025 O1069 2.413 . S
Tb1025 C1089 2.833 . S
N1026 C1018 1.360 . S
N1026 Tb1025 2.660 . S
N1026 C1027 1.305 . S
C1027 N1026 1.305 . S
C1027 C1029 1.407 . S
C1027 H1034 0.930 . S
C1028 C1016 1.410 . S
C1028 C1029 1.345 . S
C1028 H1036 0.930 . S
C1029 C1027 1.407 . S
C1029 C1028 1.345 . S
C1029 H1031 0.930 . S
H1030 C1023 0.930 . S
H1031 C1029 0.930 . S
H1032 C1020 0.930 . S
H1033 C1021 0.931 . S
H1034 C1027 0.930 . S
H1035 C1049 0.930 . S
H1036 C1028 0.930 . S
H1037 C1055 0.930 . S
H1038 C1046 0.930 . S
H1039 C1053 0.931 . S
H1040 C1017 0.929 . S
H1041 C1047 0.930 1_455 S
H1042 C1080 0.930 1_455 S
H1043 C1024 0.930 . S
H1044 C1079 0.929 . S
N1045 Tb1014 2.660 . S
N1045 C1046 1.305 . S
N1045 C1050 1.360 . S
C1046 H1038 0.930 . S
C1046 N1045 1.305 . S
C1046 C1049 1.407 . S
C1047 H1041 0.930 1_655 S
C1047 C1048 1.410 . S
C1047 C1049 1.345 . S
C1048 C1047 1.410 . S
C1048 C1050 1.417 . S
C1048 C1080 1.432 . S
C1049 H1035 0.930 . S
C1049 C1046 1.407 . S
C1049 C1047 1.345 . S
C1050 N1045 1.360 . S
C1050 C1048 1.417 . S
C1050 C1054 1.432 . S
H1051 C1056 0.930 . S
N1052 Tb1014 2.600 . S
N1052 C1054 1.359 . S
N1052 C1055 1.327 . S
C1053 H1039 0.931 . S
C1053 C1055 1.392 . S
C1053 C1056 1.370 . S
C1054 C1050 1.432 . S
C1054 N1052 1.359 . S
C1054 C1057 1.414 . S
C1055 H1037 0.930 . S
C1055 N1052 1.327 . S
C1055 C1053 1.392 . S
C1056 H1051 0.930 . S
C1056 C1053 1.370 . S
C1056 C1057 1.385 . S
C1057 C1054 1.414 . S
C1057 C1056 1.385 . S
C1057 C1079 1.444 . S
O1058 Tb1014 2.546 . S
O1058 C1078 1.251 . S
O1059 Tb1014 2.610 . S
O1059 Tb1025 2.362 . S
O1059 C1070 1.283 . S
O1060 Tb1025 2.421 . S
O1060 C1077 1.262 . S
O1061 Tb1014 2.320 . S
O1061 C1077 1.260 . S
O1062 Tb1014 2.552 . S
O1062 C1070 1.243 . S
O1063 Tb1014 2.413 . S
O1063 C1078 1.256 . S
O1064 Tb1025 2.546 . S
O1064 C1089 1.251 . S
O1065 Tb1014 2.362 . S
O1065 Tb1025 2.610 . S
O1065 C1081 1.283 . S
O1066 Tb1014 2.421 . S
O1066 C1088 1.262 . S
O1067 Tb1025 2.320 . S
O1067 C1088 1.260 . S
O1068 Tb1025 2.552 . S
O1068 C1081 1.243 . S
O1069 Tb1025 2.413 . S
O1069 C1089 1.256 . S
C1070 O1059 1.283 . S
C1070 O1062 1.243 . S
C1071 C1073 1.382 . S
C1071 C1075 1.393 . S
C1071 C1078 1.500 . S
C1072 C1073 1.400 . S
C1072 C1074 1.384 . S
C1073 C1071 1.382 . S
C1073 C1072 1.400 . S
C1073 H1090 0.930 . S
C1074 C1072 1.384 . S
C1074 C1076 1.392 . S
C1074 H1091 0.931 . S
C1075 C1071 1.393 . S
C1075 C1076 1.401 . S
C1075 H1092 0.930 . S
C1076 C1074 1.392 . S
C1076 C1075 1.401 . S
C1076 H1093 0.930 . S
C1077 O1060 1.262 . S
C1077 O1061 1.260 . S
C1078 Tb1014 2.833 . S
C1078 O1058 1.251 . S
C1078 O1063 1.256 . S
C1078 C1071 1.500 . S
C1079 H1044 0.929 . S
C1079 C1057 1.444 . S
C1079 C1080 1.317 . S
C1080 H1042 0.930 1_655 S
C1080 C1048 1.432 . S
C1080 C1079 1.317 . S
C1081 O1065 1.283 . S
C1081 O1068 1.243 . S
C1082 C1083 1.382 . S
C1082 C1086 1.393 . S
C1082 C1089 1.500 . S
C1083 C1082 1.382 . S
C1083 C1084 1.400 . S
C1083 H1094 0.930 . S
C1084 C1083 1.400 . S
C1084 C1085 1.384 . S
C1085 C1084 1.384 . S
C1085 C1087 1.392 . S
C1085 H1095 0.931 . S
C1086 C1082 1.393 . S
C1086 C1087 1.401 . S
C1086 H1096 0.930 . S
C1087 C1085 1.392 . S
C1087 C1086 1.401 . S
C1087 H1097 0.930 . S
C1088 O1066 1.262 . S
C1088 O1067 1.260 . S
C1089 Tb1025 2.833 . S
C1089 O1064 1.251 . S
C1089 O1069 1.256 . S
C1089 C1082 1.500 . S
H1090 C1073 0.930 . S
H1091 C1074 0.931 . S
H1092 C1075 0.930 . S
H1093 C1076 0.930 . S
H1094 C1083 0.930 . S
H1095 C1085 0.931 . S
H1096 C1086 0.930 . S
H1097 C1087 0.930 . S
C1098 C1099 1.391 . S
C1098 C1100 1.394 . S
C1098 H1114 0.931 . S
C1099 C1098 1.391 . S
C1099 C1103 1.376 . S
C1100 C1098 1.394 . S
C1100 C1101 1.369 . S
C1100 C1104 1.531 . S
C1101 C1100 1.369 . S
C1101 C1102 1.410 . S
C1101 C1109 1.503 . S
C1102 C1101 1.410 . S
C1102 C1103 1.392 . S
C1102 C1105 1.511 . S
C1103 C1099 1.376 . S
C1103 C1102 1.392 . S
C1103 H1115 0.929 . S
C1104 C1100 1.531 . S
C1104 H1116 0.960 . S
C1104 H1117 0.962 . S
C1104 H1118 0.960 . S
C1105 C1102 1.511 . S
C1105 H1119 0.961 . S
C1105 H1120 0.961 . S
C1105 H1121 0.961 . S
C1106 C1107 1.370 . S
C1106 C1108 1.363 . S
C1106 H1122 0.931 . S
C1107 C1106 1.370 . S
C1107 C1111 1.408 . S
C1108 C1106 1.363 . S
C1108 C1109 1.370 . S
C1108 C1112 1.524 . S
C1109 C1101 1.503 . S
C1109 C1108 1.370 . S
C1109 C1110 1.403 . S
C1110 C1109 1.403 . S
C1110 C1111 1.404 . S
C1110 C1113 1.539 1_554 S
C1111 C1107 1.408 . S
C1111 C1110 1.404 . S
C1111 H1123 0.930 1_554 S
C1112 C1108 1.524 . S
C1112 H1124 0.956 . S
C1112 H1125 0.961 . S
C1112 H1126 0.961 . S
C1113 C1110 1.539 1_556 S
C1113 H1127 0.958 . S
C1113 H1128 0.961 . S
C1113 H1129 0.960 . S
H1114 C1098 0.931 . S
H1115 C1103 0.929 . S
H1116 C1104 0.960 . S
H1117 C1104 0.962 . S
H1118 C1104 0.960 . S
H1119 C1105 0.961 . S
H1120 C1105 0.961 . S
H1121 C1105 0.961 . S
H1122 C1106 0.931 . S
H1123 C1111 0.930 1_556 S
H1124 C1112 0.956 . S
H1125 C1112 0.961 . S
H1126 C1112 0.961 . S
H1127 C1113 0.958 . S
H1128 C1113 0.961 . S
H1129 C1113 0.960 . S
C1130 C1131 1.391 . S
C1130 C1132 1.394 . S
C1130 H1146 0.931 . S
C1131 C1130 1.391 . S
C1131 C1135 1.376 . S
C1132 C1130 1.394 . S
C1132 C1133 1.369 . S
C1132 C1136 1.531 . S
C1133 C1132 1.369 . S
C1133 C1134 1.410 . S
C1133 C1141 1.503 . S
C1134 C1133 1.410 . S
C1134 C1135 1.392 . S
C1134 C1137 1.511 . S
C1135 C1131 1.376 . S
C1135 C1134 1.392 . S
C1135 H1147 0.929 . S
C1136 C1132 1.531 . S
C1136 H1148 0.960 . S
C1136 H1149 0.962 . S
C1136 H1150 0.960 . S
C1137 C1134 1.511 . S
C1137 H1151 0.961 . S
C1137 H1152 0.961 . S
C1137 H1153 0.961 . S
C1138 C1139 1.370 . S
C1138 C1140 1.363 . S
C1138 H1154 0.931 . S
C1139 C1138 1.370 . S
C1139 C1143 1.408 . S
C1140 C1138 1.363 . S
C1140 C1141 1.370 . S
C1140 C1144 1.524 . S
C1141 C1133 1.503 . S
C1141 C1140 1.370 . S
C1141 C1142 1.403 . S
C1142 C1141 1.403 . S
C1142 C1143 1.404 . S
C1142 C1145 1.539 1_554 S
C1143 C1139 1.408 . S
C1143 C1142 1.404 . S
C1143 H1155 0.930 1_554 S
C1144 C1140 1.524 . S
C1144 H1156 0.956 . S
C1144 H1157 0.961 . S
C1144 H1158 0.961 . S
C1145 C1142 1.539 1_556 S
C1145 H1159 0.958 . S
C1145 H1160 0.961 . S
C1145 H1161 0.967 . S
H1146 C1130 0.931 . S
H1147 C1135 0.929 . S
H1148 C1136 0.960 . S
H1149 C1136 0.962 . S
H1150 C1136 0.960 . S
H1151 C1137 0.961 . S
H1152 C1137 0.961 . S
H1153 C1137 0.961 . S
H1154 C1138 0.931 . S
H1155 C1143 0.930 1_556 S
H1156 C1144 0.956 . S
H1157 C1144 0.961 . S
H1158 C1144 0.961 . S
H1159 C1145 0.958 . S
H1160 C1145 0.961 . S
H1161 C1145 0.967 . S
C1162 C1163 1.391 . S
C1162 C1164 1.394 . S
C1162 H1178 0.931 . S
C1163 C1162 1.391 . S
C1163 C1167 1.376 . S
C1164 C1162 1.394 . S
C1164 C1165 1.369 . S
C1164 C1168 1.531 . S
C1165 C1164 1.369 . S
C1165 C1166 1.410 . S
C1165 C1173 1.503 . S
C1166 C1165 1.410 . S
C1166 C1167 1.392 . S
C1166 C1169 1.511 . S
C1167 C1163 1.376 . S
C1167 C1166 1.392 . S
C1167 H1179 0.929 . S
C1168 C1164 1.531 . S
C1168 H1180 0.960 . S
C1168 H1181 0.962 . S
C1168 H1182 0.960 . S
C1169 C1166 1.511 . S
C1169 H1183 0.961 . S
C1169 H1184 0.961 . S
C1169 H1185 0.961 . S
C1170 C1171 1.370 . S
C1170 C1172 1.363 . S
C1170 H1186 0.931 . S
C1171 C1170 1.370 . S
C1171 C1175 1.408 . S
C1172 C1170 1.363 . S
C1172 C1173 1.370 . S
C1172 C1176 1.524 . S
C1173 C1165 1.503 . S
C1173 C1172 1.370 . S
C1173 C1174 1.403 . S
C1174 C1173 1.403 . S
C1174 C1175 1.404 . S
C1174 C1177 1.539 1_554 S
C1175 C1171 1.408 . S
C1175 C1174 1.404 . S
C1175 H1187 0.930 1_554 S
C1176 C1172 1.524 . S
C1176 H1188 0.956 . S
C1176 H1189 0.961 . S
C1176 H1190 0.961 . S
C1177 C1174 1.539 1_556 S
C1177 H1191 0.958 . S
C1177 H1192 0.961 . S
C1177 H1193 0.960 . S
H1178 C1162 0.931 . S
H1179 C1167 0.929 . S
H1180 C1168 0.960 . S
H1181 C1168 0.962 . S
H1182 C1168 0.960 . S
H1183 C1169 0.961 . S
H1184 C1169 0.961 . S
H1185 C1169 0.961 . S
H1186 C1170 0.931 . S
H1187 C1175 0.930 1_556 S
H1188 C1176 0.956 . S
H1189 C1176 0.961 . S
H1190 C1176 0.961 . S
H1191 C1177 0.958 . S
H1192 C1177 0.961 . S
H1193 C1177 0.960 . S
C1194 C1195 1.391 . S
C1194 C1196 1.394 . S
C1194 H1210 0.931 . S
C1195 C1194 1.391 . S
C1195 C1199 1.376 . S
C1196 C1194 1.394 . S
C1196 C1197 1.369 . S
C1196 C1200 1.531 . S
C1197 C1196 1.369 . S
C1197 C1198 1.410 . S
C1197 C1205 1.503 . S
C1198 C1197 1.410 . S
C1198 C1199 1.392 . S
C1198 C1201 1.511 1_556 S
C1199 C1195 1.376 . S
C1199 C1198 1.392 . S
C1199 H1211 0.929 . S
C1200 C1196 1.531 . S
C1200 H1212 0.960 . S
C1200 H1213 0.962 . S
C1200 H1214 0.960 . S
C1201 C1198 1.511 1_554 S
C1201 H1215 0.961 . S
C1201 H1216 0.961 . S
C1201 H1217 0.961 . S
C1202 C1203 1.370 . S
C1202 C1204 1.363 . S
C1202 H1218 0.931 1_556 S
C1203 C1202 1.370 . S
C1203 C1207 1.408 . S
C1204 C1202 1.363 . S
C1204 C1205 1.370 . S
C1204 C1208 1.524 . S
C1205 C1197 1.503 . S
C1205 C1204 1.370 . S
C1205 C1206 1.403 . S
C1206 C1205 1.403 . S
C1206 C1207 1.404 . S
C1206 C1209 1.539 . S
C1207 C1203 1.408 . S
C1207 C1206 1.404 . S
C1207 H1219 0.930 . S
C1208 C1204 1.524 . S
C1208 H1220 0.956 . S
C1208 H1221 0.961 1_556 S
C1208 H1222 0.961 1_556 S
C1209 C1206 1.539 . S
C1209 H1223 0.958 . S
C1209 H1224 0.961 . S
C1209 H1225 0.960 . S
H1210 C1194 0.931 . S
H1211 C1199 0.929 . S
H1212 C1200 0.960 . S
H1213 C1200 0.962 . S
H1214 C1200 0.960 . S
H1215 C1201 0.961 . S
H1216 C1201 0.961 . S
H1217 C1201 0.961 . S
H1218 C1202 0.931 1_554 S
H1219 C1207 0.930 . S
H1220 C1208 0.956 . S
H1221 C1208 0.961 1_554 S
H1222 C1208 0.961 1_554 S
H1223 C1209 0.958 . S
H1224 C1209 0.961 . S
H1225 C1209 0.960 . S
C1226 C1227 1.391 . S
C1226 C1228 1.394 . S
C1226 H1242 0.931 . S
C1227 C1226 1.391 . S
C1227 C1231 1.376 . S
C1228 C1226 1.394 . S
C1228 C1229 1.369 . S
C1228 C1232 1.531 . S
C1229 C1228 1.369 . S
C1229 C1230 1.410 . S
C1229 C1237 1.503 . S
C1230 C1229 1.410 . S
C1230 C1231 1.392 . S
C1230 C1233 1.511 1_556 S
C1231 C1227 1.376 . S
C1231 C1230 1.392 . S
C1231 H1243 0.929 . S
C1232 C1228 1.531 . S
C1232 H1244 0.960 . S
C1232 H1245 0.962 . S
C1232 H1246 0.960 . S
C1233 C1230 1.511 1_554 S
C1233 H1247 0.961 . S
C1233 H1248 0.961 . S
C1233 H1249 0.961 . S
C1234 C1235 1.370 . S
C1234 C1236 1.363 . S
C1234 H1250 0.931 . S
C1235 C1234 1.370 . S
C1235 C1239 1.408 . S
C1236 C1234 1.363 . S
C1236 C1237 1.370 . S
C1236 C1240 1.524 . S
C1237 C1229 1.503 . S
C1237 C1236 1.370 . S
C1237 C1238 1.403 . S
C1238 C1237 1.403 . S
C1238 C1239 1.404 . S
C1238 C1241 1.539 . S
C1239 C1235 1.408 . S
C1239 C1238 1.404 . S
C1239 H1251 0.930 1_556 S
C1240 C1236 1.524 . S
C1240 H1252 0.956 . S
C1240 H1253 0.961 . S
C1240 H1254 0.961 . S
C1241 C1238 1.539 . S
C1241 H1255 0.958 . S
C1241 H1256 0.961 1_556 S
C1241 H1257 0.960 . S
H1242 C1226 0.931 . S
H1243 C1231 0.929 . S
H1244 C1232 0.960 . S
H1245 C1232 0.962 . S
H1246 C1232 0.960 . S
H1247 C1233 0.961 . S
H1248 C1233 0.961 . S
H1249 C1233 0.961 . S
H1250 C1234 0.931 . S
H1251 C1239 0.930 1_554 S
H1252 C1240 0.956 . S
H1253 C1240 0.961 . S
H1254 C1240 0.961 . S
H1255 C1241 0.958 . S
H1256 C1241 0.961 1_554 S
H1257 C1241 0.960 . S
C1258 C1259 1.391 . S
C1258 C1260 1.394 . S
C1258 H1274 0.931 . S
C1259 C1258 1.391 . S
C1259 C1263 1.376 . S
C1260 C1258 1.394 . S
C1260 C1261 1.369 . S
C1260 C1264 1.531 . S
C1261 C1260 1.369 . S
C1261 C1262 1.410 . S
C1261 C1269 1.503 . S
C1262 C1261 1.410 . S
C1262 C1263 1.392 . S
C1262 C1265 1.511 . S
C1263 C1259 1.376 . S
C1263 C1262 1.392 . S
C1263 H1275 0.929 . S
C1264 C1260 1.531 . S
C1264 H1276 0.960 1_556 S
C1264 H1277 0.962 . S
C1264 H1278 0.960 . S
C1265 C1262 1.511 . S
C1265 H1279 0.961 . S
C1265 H1280 0.961 . S
C1265 H1281 0.961 . S
C1266 C1267 1.370 . S
C1266 C1268 1.363 . S
C1266 H1282 0.931 . S
C1267 C1266 1.370 . S
C1267 C1271 1.408 1_556 S
C1268 C1266 1.363 . S
C1268 C1269 1.370 . S
C1268 C1272 1.524 . S
C1269 C1261 1.503 . S
C1269 C1268 1.370 . S
C1269 C1270 1.403 1_556 S
C1270 C1269 1.403 1_554 S
C1270 C1271 1.404 . S
C1270 C1273 1.539 . S
C1271 C1267 1.408 1_554 S
C1271 C1270 1.404 . S
C1271 H1283 0.930 . S
C1272 C1268 1.524 . S
C1272 H1284 0.956 . S
C1272 H1285 0.961 . S
C1272 H1286 0.961 . S
C1273 C1270 1.539 . S
C1273 H1287 0.958 . S
C1273 H1288 0.961 . S
C1273 H1289 0.960 . S
H1274 C1258 0.931 . S
H1275 C1263 0.929 . S
H1276 C1264 0.960 1_554 S
H1277 C1264 0.962 . S
H1278 C1264 0.960 . S
H1279 C1265 0.961 . S
H1280 C1265 0.961 . S
H1281 C1265 0.961 . S
H1282 C1266 0.931 . S
H1283 C1271 0.930 . S
H1284 C1272 0.956 . S
H1285 C1272 0.961 . S
H1286 C1272 0.961 . S
H1287 C1273 0.958 . S
H1288 C1273 0.961 . S
H1289 C1273 0.960 . S
C1290 C1291 1.391 . S
C1290 C1292 1.394 . S
C1290 H1306 0.931 . S
C1291 C1290 1.391 . S
C1291 C1295 1.376 . S
C1292 C1290 1.394 . S
C1292 C1293 1.369 . S
C1292 C1296 1.531 . S
C1293 C1292 1.369 . S
C1293 C1294 1.410 . S
C1293 C1301 1.503 . S
C1294 C1293 1.410 . S
C1294 C1295 1.392 . S
C1294 C1297 1.511 . S
C1295 C1291 1.376 . S
C1295 C1294 1.392 . S
C1295 H1307 0.929 . S
C1296 C1292 1.531 . S
C1296 H1308 0.960 . S
C1296 H1309 0.962 . S
C1296 H1310 0.960 . S
C1297 C1294 1.511 . S
C1297 H1311 0.961 1_556 S
C1297 H1312 0.961 1_556 S
C1297 H1313 0.961 . S
C1298 C1299 1.370 1_554 S
C1298 C1300 1.363 . S
C1298 H1314 0.931 . S
C1299 C1298 1.370 1_556 S
C1299 C1303 1.408 . S
C1300 C1298 1.363 . S
C1300 C1301 1.370 1_554 S
C1300 C1304 1.524 . S
C1301 C1293 1.503 . S
C1301 C1300 1.370 1_556 S
C1301 C1302 1.403 . S
C1302 C1301 1.403 . S
C1302 C1303 1.404 . S
C1302 C1305 1.539 . S
C1303 C1299 1.408 . S
C1303 C1302 1.404 . S
C1303 H1315 0.930 . S
C1304 C1300 1.524 . S
C1304 H1316 0.956 . S
C1304 H1317 0.961 . S
C1304 H1318 0.961 . S
C1305 C1302 1.539 . S
C1305 H1319 0.958 . S
C1305 H1320 0.961 . S
C1305 H1321 0.960 . S
H1306 C1290 0.931 . S
H1307 C1295 0.929 . S
H1308 C1296 0.960 . S
H1309 C1296 0.962 . S
H1310 C1296 0.960 . S
H1311 C1297 0.961 1_554 S
H1312 C1297 0.961 1_554 S
H1313 C1297 0.961 . S
H1314 C1298 0.931 . S
H1315 C1303 0.930 . S
H1316 C1304 0.956 . S
H1317 C1304 0.961 . S
H1318 C1304 0.961 . S
H1319 C1305 0.958 . S
H1320 C1305 0.961 . S
H1321 C1305 0.960 . S
C1322 C1323 1.391 . S
C1322 C1324 1.394 . S
C1322 H1338 0.931 . S
C1323 C1322 1.391 . S
C1323 C1327 1.376 . S
C1324 C1322 1.394 . S
C1324 C1325 1.369 . S
C1324 C1328 1.531 . S
C1325 C1324 1.369 . S
C1325 C1326 1.410 . S
C1325 C1333 1.503 . S
C1326 C1325 1.410 . S
C1326 C1327 1.392 . S
C1326 C1329 1.511 . S
C1327 C1323 1.376 . S
C1327 C1326 1.392 . S
C1327 H1339 0.929 . S
C1328 C1324 1.531 . S
C1328 H1340 0.960 . S
C1328 H1341 0.962 . S
C1328 H1342 0.960 . S
C1329 C1326 1.511 . S
C1329 H1343 0.961 . S
C1329 H1344 0.961 . S
C1329 H1345 0.961 1_556 S
C1330 C1331 1.370 . S
C1330 C1332 1.363 . S
C1330 H1346 0.931 . S
C1331 C1330 1.370 . S
C1331 C1335 1.408 1_556 S
C1332 C1330 1.363 . S
C1332 C1333 1.370 . S
C1332 C1336 1.524 . S
C1333 C1325 1.503 . S
C1333 C1332 1.370 . S
C1333 C1334 1.403 1_556 S
C1334 C1333 1.403 1_554 S
C1334 C1335 1.404 . S
C1334 C1337 1.539 . S
C1335 C1331 1.408 1_554 S
C1335 C1334 1.404 . S
C1335 H1347 0.930 . S
C1336 C1332 1.524 . S
C1336 H1348 0.956 . S
C1336 H1349 0.961 . S
C1336 H1350 0.961 . S
C1337 C1334 1.539 . S
C1337 H1351 0.958 . S
C1337 H1352 0.961 . S
C1337 H1353 0.960 . S
H1338 C1322 0.931 . S
H1339 C1327 0.929 . S
H1340 C1328 0.960 . S
H1341 C1328 0.962 . S
H1342 C1328 0.960 . S
H1343 C1329 0.961 . S
H1344 C1329 0.961 . S
H1345 C1329 0.961 1_554 S
H1346 C1330 0.931 . S
H1347 C1335 0.930 . S
H1348 C1336 0.956 . S
H1349 C1336 0.961 . S
H1350 C1336 0.961 . S
H1351 C1337 0.958 . S
H1352 C1337 0.961 . S
H1353 C1337 0.960 . S
C1354 C1355 1.391 . S
C1354 C1356 1.391 1_556 S
C1354 H1370 0.933 . S
C1355 C1354 1.391 . S
C1355 C1359 1.376 . S
C1356 C1354 1.391 1_554 S
C1356 C1357 1.365 1_554 S
C1356 C1360 1.537 . S
C1357 C1356 1.365 1_556 S
C1357 C1358 1.410 . S
C1357 C1365 1.503 . S
C1358 C1357 1.410 . S
C1358 C1359 1.392 . S
C1358 C1361 1.511 . S
C1359 C1355 1.376 . S
C1359 C1358 1.392 . S
C1359 H1371 0.929 . S
C1360 C1356 1.537 . S
C1360 H1372 0.960 . S
C1360 H1373 0.959 1_554 S
C1360 H1374 0.960 . S
C1361 C1358 1.511 . S
C1361 H1375 0.961 . S
C1361 H1376 0.961 . S
C1361 H1377 0.961 . S
C1362 C1363 1.350 1_556 S
C1362 C1364 1.363 . S
C1362 H1378 0.931 . S
C1363 C1362 1.350 1_554 S
C1363 C1367 1.428 . S
C1364 C1362 1.363 . S
C1364 C1365 1.370 . S
C1364 C1368 1.524 . S
C1365 C1357 1.503 . S
C1365 C1364 1.370 . S
C1365 C1366 1.403 1_556 S
C1366 C1365 1.403 1_554 S
C1366 C1367 1.404 . S
C1366 C1369 1.539 . S
C1367 C1363 1.428 . S
C1367 C1366 1.404 . S
C1367 H1379 0.930 . S
C1368 C1364 1.524 . S
C1368 H1380 0.956 . S
C1368 H1381 0.961 . S
C1368 H1382 0.961 . S
C1369 C1366 1.539 . S
C1369 H1383 0.958 . S
C1369 H1384 0.961 . S
C1369 H1385 0.960 . S
H1370 C1354 0.933 . S
H1371 C1359 0.929 . S
H1372 C1360 0.960 . S
H1373 C1360 0.959 1_556 S
H1374 C1360 0.960 . S
H1375 C1361 0.961 . S
H1376 C1361 0.961 . S
H1377 C1361 0.961 . S
H1378 C1362 0.931 . S
H1379 C1367 0.930 . S
H1380 C1368 0.956 . S
H1381 C1368 0.961 . S
H1382 C1368 0.961 . S
H1383 C1369 0.958 . S
H1384 C1369 0.961 . S
H1385 C1369 0.960 . S
C1386 C1387 1.391 . S
C1386 C1388 1.394 . S
C1386 H1402 0.931 . S
C1387 C1386 1.391 . S
C1387 C1391 1.376 . S
C1388 C1386 1.394 . S
C1388 C1389 1.369 . S
C1388 C1392 1.531 . S
C1389 C1388 1.369 . S
C1389 C1390 1.410 . S
C1389 C1397 1.503 . S
C1390 C1389 1.410 . S
C1390 C1391 1.392 . S
C1390 C1393 1.511 . S
C1391 C1387 1.376 . S
C1391 C1390 1.392 . S
C1391 H1403 0.929 . S
C1392 C1388 1.531 . S
C1392 H1404 0.960 . S
C1392 H1405 0.962 . S
C1392 H1406 0.960 . S
C1393 C1390 1.511 . S
C1393 H1407 0.961 . S
C1393 H1408 0.961 . S
C1393 H1409 0.961 . S
C1394 C1395 1.370 . S
C1394 C1396 1.363 . S
C1394 H1410 0.931 1_554 S
C1395 C1394 1.370 . S
C1395 C1399 1.408 . S
C1396 C1394 1.363 . S
C1396 C1397 1.370 . S
C1396 C1400 1.524 1_554 S
C1397 C1389 1.503 . S
C1397 C1396 1.370 . S
C1397 C1398 1.403 . S
C1398 C1397 1.403 . S
C1398 C1399 1.404 . S
C1398 C1401 1.539 . S
C1399 C1395 1.408 . S
C1399 C1398 1.404 . S
C1399 H1411 0.930 . S
C1400 C1396 1.524 1_556 S
C1400 H1412 0.956 1_556 S
C1400 H1413 0.961 . S
C1400 H1414 0.961 . S
C1401 C1398 1.539 . S
C1401 H1415 0.958 . S
C1401 H1416 0.961 . S
C1401 H1417 0.960 . S
H1402 C1386 0.931 . S
H1403 C1391 0.929 . S
H1404 C1392 0.960 . S
H1405 C1392 0.962 . S
H1406 C1392 0.960 . S
H1407 C1393 0.961 . S
H1408 C1393 0.961 . S
H1409 C1393 0.961 . S
H1410 C1394 0.931 1_556 S
H1411 C1399 0.930 . S
H1412 C1400 0.956 1_554 S
H1413 C1400 0.961 . S
H1414 C1400 0.961 . S
H1415 C1401 0.958 . S
H1416 C1401 0.961 . S
H1417 C1401 0.960 . S
C1418 C1419 1.391 . S
C1418 C1420 1.394 . S
C1418 H1434 0.931 . S
C1419 C1418 1.391 . S
C1419 C1423 1.376 . S
C1420 C1418 1.394 . S
C1420 C1421 1.369 . S
C1420 C1424 1.531 . S
C1421 C1420 1.369 . S
C1421 C1422 1.410 . S
C1421 C1429 1.503 . S
C1422 C1421 1.410 . S
C1422 C1423 1.392 . S
C1422 C1425 1.511 . S
C1423 C1419 1.376 . S
C1423 C1422 1.392 . S
C1423 H1435 0.929 . S
C1424 C1420 1.531 . S
C1424 H1436 0.960 . S
C1424 H1437 0.962 . S
C1424 H1438 0.960 . S
C1425 C1422 1.511 . S
C1425 H1439 0.961 . S
C1425 H1440 0.961 . S
C1425 H1441 0.961 . S
C1426 C1427 1.370 . S
C1426 C1428 1.363 . S
C1426 H1442 0.931 . S
C1427 C1426 1.370 . S
C1427 C1431 1.408 . S
C1428 C1426 1.363 . S
C1428 C1429 1.370 . S
C1428 C1432 1.524 . S
C1429 C1421 1.503 . S
C1429 C1428 1.370 . S
C1429 C1430 1.403 . S
C1430 C1429 1.403 . S
C1430 C1431 1.404 . S
C1430 C1433 1.539 . S
C1431 C1427 1.408 . S
C1431 C1430 1.404 . S
C1431 H1443 0.930 . S
C1432 C1428 1.524 . S
C1432 H1444 0.956 . S
C1432 H1445 0.961 . S
C1432 H1446 0.992 . S
C1433 C1430 1.539 . S
C1433 H1447 0.958 . S
C1433 H1448 0.961 . S
C1433 H1449 0.960 . S
H1434 C1418 0.931 . S
H1435 C1423 0.929 . S
H1436 C1424 0.960 . S
H1437 C1424 0.962 . S
H1438 C1424 0.960 . S
H1439 C1425 0.961 . S
H1440 C1425 0.961 . S
H1441 C1425 0.961 . S
H1442 C1426 0.931 . S
H1443 C1431 0.930 . S
H1444 C1432 0.956 . S
H1445 C1432 0.961 . S
H1446 C1432 0.992 . S
H1447 C1433 0.958 . S
H1448 C1433 0.961 . S
H1449 C1433 0.960 . S
C1450 C1451 1.391 . S
C1450 C1452 1.394 . S
C1450 H1466 0.931 . S
C1451 C1450 1.391 . S
C1451 C1455 1.376 . S
C1452 C1450 1.394 . S
C1452 C1453 1.369 . S
C1452 C1456 1.531 . S
C1453 C1452 1.369 . S
C1453 C1454 1.410 . S
C1453 C1461 1.503 . S
C1454 C1453 1.410 . S
C1454 C1455 1.392 . S
C1454 C1457 1.511 . S
C1455 C1451 1.376 . S
C1455 C1454 1.392 . S
C1455 H1467 0.929 . S
C1456 C1452 1.531 . S
C1456 H1468 0.960 . S
C1456 H1469 0.962 . S
C1456 H1470 0.960 . S
C1457 C1454 1.511 . S
C1457 H1471 0.961 1_554 S
C1457 H1472 0.948 1_554 S
C1457 H1473 0.961 . S
C1458 C1459 1.370 . S
C1458 C1460 1.363 . S
C1458 H1474 0.931 . S
C1459 C1458 1.370 . S
C1459 C1463 1.408 . S
C1460 C1458 1.363 . S
C1460 C1461 1.370 . S
C1460 C1464 1.524 . S
C1461 C1453 1.503 . S
C1461 C1460 1.370 . S
C1461 C1462 1.403 . S
C1462 C1461 1.403 . S
C1462 C1463 1.404 . S
C1462 C1465 1.539 . S
C1463 C1459 1.408 . S
C1463 C1462 1.404 . S
C1463 H1475 0.930 . S
C1464 C1460 1.524 . S
C1464 H1476 0.956 . S
C1464 H1477 0.961 1_554 S
C1464 H1478 0.961 1_554 S
C1465 C1462 1.539 . S
C1465 H1479 0.958 . S
C1465 H1480 0.961 . S
C1465 H1481 0.960 . S
H1466 C1450 0.931 . S
H1467 C1455 0.929 . S
H1468 C1456 0.960 . S
H1469 C1456 0.962 . S
H1470 C1456 0.960 . S
H1471 C1457 0.961 1_556 S
H1472 C1457 0.948 1_556 S
H1473 C1457 0.961 . S
H1474 C1458 0.931 . S
H1475 C1463 0.930 . S
H1476 C1464 0.956 . S
H1477 C1464 0.961 1_556 S
H1478 C1464 0.961 1_556 S
H1479 C1465 0.958 . S
H1480 C1465 0.961 . S
H1481 C1465 0.960 . S
C1482 C1483 1.391 . S
C1482 C1484 1.394 . S
C1482 H1498 0.931 . S
C1483 C1482 1.391 . S
C1483 C1487 1.376 . S
C1484 C1482 1.394 . S
C1484 C1485 1.369 . S
C1484 C1488 1.531 . S
C1485 C1484 1.369 . S
C1485 C1486 1.410 . S
C1485 C1493 1.503 1_655 S
C1486 C1485 1.410 . S
C1486 C1487 1.392 . S
C1486 C1489 1.511 1_655 S
C1487 C1483 1.376 . S
C1487 C1486 1.392 . S
C1487 H1499 0.929 . S
C1488 C1484 1.531 . S
C1488 H1500 0.960 . S
C1488 H1501 0.962 . S
C1488 H1502 0.960 . S
C1489 C1486 1.511 1_455 S
C1489 H1503 0.961 . S
C1489 H1504 0.961 . S
C1489 H1505 0.961 . S
C1490 C1491 1.370 . S
C1490 C1492 1.363 . S
C1490 H1506 0.931 . S
C1491 C1490 1.370 . S
C1491 C1495 1.408 . S
C1492 C1490 1.363 . S
C1492 C1493 1.370 . S
C1492 C1496 1.524 1_455 S
C1493 C1485 1.503 1_455 S
C1493 C1492 1.370 . S
C1493 C1494 1.403 . S
C1494 C1493 1.403 . S
C1494 C1495 1.404 . S
C1494 C1497 1.539 . S
C1495 C1491 1.408 . S
C1495 C1494 1.404 . S
C1495 H1507 0.930 . S
C1496 C1492 1.524 1_655 S
C1496 H1508 0.956 . S
C1496 H1509 0.961 . S
C1496 H1510 0.961 . S
C1497 C1494 1.539 . S
C1497 H1511 0.958 . S
C1497 H1512 0.961 . S
C1497 H1513 0.960 . S
H1498 C1482 0.931 . S
H1499 C1487 0.929 . S
H1500 C1488 0.960 . S
H1501 C1488 0.962 . S
H1502 C1488 0.960 . S
H1503 C1489 0.961 . S
H1504 C1489 0.961 . S
H1505 C1489 0.961 . S
H1506 C1490 0.931 . S
H1507 C1495 0.930 . S
H1508 C1496 0.956 . S
H1509 C1496 0.961 . S
H1510 C1496 0.961 . S
H1511 C1497 0.958 . S
H1512 C1497 0.961 . S
H1513 C1497 0.960 . S
C1514 C1515 1.391 . S
C1514 C1516 1.394 . S
C1514 H1530 0.931 . S
C1515 C1514 1.391 . S
C1515 C1519 1.376 . S
C1516 C1514 1.394 . S
C1516 C1517 1.369 . S
C1516 C1520 1.531 . S
C1517 C1516 1.369 . S
C1517 C1518 1.410 . S
C1517 C1525 1.503 . S
C1518 C1517 1.410 . S
C1518 C1519 1.392 . S
C1518 C1521 1.511 . S
C1519 C1515 1.376 . S
C1519 C1518 1.392 . S
C1519 H1531 0.929 . S
C1520 C1516 1.531 . S
C1520 H1532 0.960 . S
C1520 H1533 0.962 . S
C1520 H1534 0.960 . S
C1521 C1518 1.511 . S
C1521 H1535 0.961 . S
C1521 H1536 0.961 . S
C1521 H1537 0.961 . S
C1522 C1523 1.370 . S
C1522 C1524 1.363 . S
C1522 H1538 0.931 . S
C1523 C1522 1.370 . S
C1523 C1527 1.408 . S
C1524 C1522 1.363 . S
C1524 C1525 1.370 . S
C1524 C1528 1.524 . S
C1525 C1517 1.503 . S
C1525 C1524 1.370 . S
C1525 C1526 1.403 . S
C1526 C1525 1.403 . S
C1526 C1527 1.404 . S
C1526 C1529 1.539 . S
C1527 C1523 1.408 . S
C1527 C1526 1.404 . S
C1527 H1539 0.930 . S
C1528 C1524 1.524 . S
C1528 H1540 0.956 . S
C1528 H1541 0.961 . S
C1528 H1542 0.961 . S
C1529 C1526 1.539 . S
C1529 H1543 0.958 . S
C1529 H1544 0.961 . S
C1529 H1545 0.960 . S
H1530 C1514 0.931 . S
H1531 C1519 0.929 . S
H1532 C1520 0.960 . S
H1533 C1520 0.962 . S
H1534 C1520 0.960 . S
H1535 C1521 0.961 . S
H1536 C1521 0.961 . S
H1537 C1521 0.961 . S
H1538 C1522 0.931 . S
H1539 C1527 0.930 . S
H1540 C1528 0.956 . S
H1541 C1528 0.961 . S
H1542 C1528 0.961 . S
H1543 C1529 0.958 . S
H1544 C1529 0.961 . S
H1545 C1529 0.960 . S
C1546 C1547 1.391 . S
C1546 C1548 1.394 . S
C1546 H1562 0.931 . S
C1547 C1546 1.391 . S
C1547 C1551 1.376 . S
C1548 C1546 1.394 . S
C1548 C1549 1.369 . S
C1548 C1552 1.531 . S
C1549 C1548 1.369 . S
C1549 C1550 1.410 . S
C1549 C1557 1.503 1_545 S
C1550 C1549 1.410 . S
C1550 C1551 1.392 . S
C1550 C1553 1.511 . S
C1551 C1547 1.376 . S
C1551 C1550 1.392 . S
C1551 H1563 0.929 . S
C1552 C1548 1.531 . S
C1552 H1564 0.960 . S
C1552 H1565 0.962 . S
C1552 H1566 0.960 . S
C1553 C1550 1.511 . S
C1553 H1567 0.961 . S
C1553 H1568 0.961 1_545 S
C1553 H1569 0.961 . S
C1554 C1555 1.370 . S
C1554 C1556 1.363 . S
C1554 H1570 0.931 . S
C1555 C1554 1.370 . S
C1555 C1559 1.408 . S
C1556 C1554 1.363 . S
C1556 C1557 1.370 . S
C1556 C1560 1.524 . S
C1557 C1549 1.503 1_565 S
C1557 C1556 1.370 . S
C1557 C1558 1.403 . S
C1558 C1557 1.403 . S
C1558 C1559 1.404 . S
C1558 C1561 1.539 1_565 S
C1559 C1555 1.408 . S
C1559 C1558 1.404 . S
C1559 H1571 0.930 . S
C1560 C1556 1.524 . S
C1560 H1572 0.956 . S
C1560 H1573 0.961 . S
C1560 H1574 0.961 . S
C1561 C1558 1.539 1_545 S
C1561 H1575 0.958 . S
C1561 H1576 0.961 . S
C1561 H1577 0.960 . S
H1562 C1546 0.931 . S
H1563 C1551 0.929 . S
H1564 C1552 0.960 . S
H1565 C1552 0.962 . S
H1566 C1552 0.960 . S
H1567 C1553 0.961 . S
H1568 C1553 0.961 1_565 S
H1569 C1553 0.961 . S
H1570 C1554 0.931 . S
H1571 C1559 0.930 . S
H1572 C1560 0.956 . S
H1573 C1560 0.961 . S
H1574 C1560 0.961 . S
H1575 C1561 0.958 . S
H1576 C1561 0.961 . S
H1577 C1561 0.960 . S
C1578 C1579 1.391 . S
C1578 C1580 1.394 . S
C1578 H1594 0.931 . S
C1579 C1578 1.391 . S
C1579 C1583 1.376 . S
C1580 C1578 1.394 . S
C1580 C1581 1.369 . S
C1580 C1584 1.531 . S
C1581 C1580 1.369 . S
C1581 C1582 1.410 . S
C1581 C1589 1.503 . S
C1582 C1581 1.410 . S
C1582 C1583 1.392 . S
C1582 C1585 1.511 . S
C1583 C1579 1.376 . S
C1583 C1582 1.392 . S
C1583 H1595 0.929 . S
C1584 C1580 1.531 . S
C1584 H1596 0.960 . S
C1584 H1597 0.962 . S
C1584 H1598 0.960 . S
C1585 C1582 1.511 . S
C1585 H1599 0.961 . S
C1585 H1600 0.961 . S
C1585 H1601 0.961 . S
C1586 C1587 1.370 . S
C1586 C1588 1.363 . S
C1586 H1602 0.931 . S
C1587 C1586 1.370 . S
C1587 C1591 1.408 . S
C1588 C1586 1.363 . S
C1588 C1589 1.370 . S
C1588 C1592 1.524 . S
C1589 C1581 1.503 . S
C1589 C1588 1.370 . S
C1589 C1590 1.403 . S
C1590 C1589 1.403 . S
C1590 C1591 1.404 . S
C1590 C1593 1.539 . S
C1591 C1587 1.408 . S
C1591 C1590 1.404 . S
C1591 H1603 0.930 . S
C1592 C1588 1.524 . S
C1592 H1604 0.956 . S
C1592 H1605 0.961 . S
C1592 H1606 0.961 . S
C1593 C1590 1.539 . S
C1593 H1607 0.958 . S
C1593 H1608 0.961 . S
C1593 H1609 0.960 . S
H1594 C1578 0.931 . S
H1595 C1583 0.929 . S
H1596 C1584 0.960 . S
H1597 C1584 0.962 . S
H1598 C1584 0.960 . S
H1599 C1585 0.961 . S
H1600 C1585 0.961 . S
H1601 C1585 0.961 . S
H1602 C1586 0.931 . S
H1603 C1591 0.930 . S
H1604 C1592 0.956 . S
H1605 C1592 0.961 . S
H1606 C1592 0.961 . S
H1607 C1593 0.958 . S
H1608 C1593 0.961 . S
H1609 C1593 0.960 . S
C1610 C1611 1.391 . S
C1610 C1612 1.394 . S
C1610 H1626 0.931 . S
C1611 C1610 1.391 . S
C1611 C1615 1.376 . S
C1612 C1610 1.394 . S
C1612 C1613 1.369 . S
C1612 C1616 1.531 . S
C1613 C1612 1.369 . S
C1613 C1614 1.410 . S
C1613 C1621 1.503 . S
C1614 C1613 1.410 . S
C1614 C1615 1.392 . S
C1614 C1617 1.511 . S
C1615 C1611 1.376 . S
C1615 C1614 1.392 . S
C1615 H1627 0.929 . S
C1616 C1612 1.531 . S
C1616 H1628 0.960 . S
C1616 H1629 0.962 . S
C1616 H1630 0.960 . S
C1617 C1614 1.511 . S
C1617 H1631 0.961 . S
C1617 H1632 0.961 . S
C1617 H1633 0.961 . S
C1618 C1619 1.370 . S
C1618 C1620 1.363 . S
C1618 H1634 0.931 . S
C1619 C1618 1.370 . S
C1619 C1623 1.408 . S
C1620 C1618 1.363 . S
C1620 C1621 1.370 . S
C1620 C1624 1.524 . S
C1621 C1613 1.503 . S
C1621 C1620 1.370 . S
C1621 C1622 1.403 . S
C1622 C1621 1.403 . S
C1622 C1623 1.404 . S
C1622 C1625 1.539 . S
C1623 C1619 1.408 . S
C1623 C1622 1.404 . S
C1623 H1635 0.930 . S
C1624 C1620 1.524 . S
C1624 H1636 0.956 . S
C1624 H1637 0.961 . S
C1624 H1638 0.961 . S
C1625 C1622 1.539 . S
C1625 H1639 0.958 . S
C1625 H1640 0.961 . S
C1625 H1641 0.960 . S
H1626 C1610 0.931 . S
H1627 C1615 0.929 . S
H1628 C1616 0.960 . S
H1629 C1616 0.962 . S
H1630 C1616 0.960 . S
H1631 C1617 0.961 . S
H1632 C1617 0.961 . S
H1633 C1617 0.961 . S
H1634 C1618 0.931 . S
H1635 C1623 0.930 . S
H1636 C1624 0.956 . S
H1637 C1624 0.961 . S
H1638 C1624 0.961 . S
H1639 C1625 0.958 . S
H1640 C1625 0.961 . S
H1641 C1625 0.960 . S
C1642 C1643 1.391 . S
C1642 C1644 1.394 . S
C1642 H1658 0.931 . S
C1643 C1642 1.391 . S
C1643 C1647 1.376 . S
C1644 C1642 1.394 . S
C1644 C1645 1.369 . S
C1644 C1648 1.531 . S
C1645 C1644 1.369 . S
C1645 C1646 1.410 . S
C1645 C1653 1.503 . S
C1646 C1645 1.410 . S
C1646 C1647 1.392 . S
C1646 C1649 1.511 . S
C1647 C1643 1.376 . S
C1647 C1646 1.392 . S
C1647 H1659 0.929 . S
C1648 C1644 1.531 . S
C1648 H1660 0.960 . S
C1648 H1661 0.962 . S
C1648 H1662 0.960 . S
C1649 C1646 1.511 . S
C1649 H1663 0.961 . S
C1649 H1664 0.961 . S
C1649 H1665 0.961 . S
C1650 C1651 1.370 . S
C1650 C1652 1.363 . S
C1650 H1666 0.931 . S
C1651 C1650 1.370 . S
C1651 C1655 1.408 . S
C1652 C1650 1.363 . S
C1652 C1653 1.370 . S
C1652 C1656 1.524 . S
C1653 C1645 1.503 . S
C1653 C1652 1.370 . S
C1653 C1654 1.403 . S
C1654 C1653 1.403 . S
C1654 C1655 1.404 . S
C1654 C1657 1.539 . S
C1655 C1651 1.408 . S
C1655 C1654 1.404 . S
C1655 H1667 0.930 . S
C1656 C1652 1.524 . S
C1656 H1668 0.956 . S
C1656 H1669 0.961 . S
C1656 H1670 0.961 . S
C1657 C1654 1.539 . S
C1657 H1671 0.958 . S
C1657 H1672 0.961 . S
C1657 H1673 0.960 . S
H1658 C1642 0.931 . S
H1659 C1647 0.929 . S
H1660 C1648 0.960 . S
H1661 C1648 0.962 . S
H1662 C1648 0.960 . S
H1663 C1649 0.961 . S
H1664 C1649 0.961 . S
H1665 C1649 0.961 . S
H1666 C1650 0.931 . S
H1667 C1655 0.930 . S
H1668 C1656 0.956 . S
H1669 C1656 0.961 . S
H1670 C1656 0.961 . S
H1671 C1657 0.958 . S
H1672 C1657 0.961 . S
H1673 C1657 0.960 . S
C1674 C1675 1.391 . S
C1674 C1676 1.394 . S
C1674 H1690 0.931 . S
C1675 C1674 1.391 . S
C1675 C1679 1.376 . S
C1676 C1674 1.394 . S
C1676 C1677 1.369 . S
C1676 C1680 1.531 . S
C1677 C1676 1.369 . S
C1677 C1678 1.410 . S
C1677 C1685 1.503 . S
C1678 C1677 1.410 . S
C1678 C1679 1.392 . S
C1678 C1681 1.511 . S
C1679 C1675 1.376 . S
C1679 C1678 1.392 . S
C1679 H1691 0.929 . S
C1680 C1676 1.531 . S
C1680 H1692 0.960 . S
C1680 H1693 0.962 . S
C1680 H1694 0.960 . S
C1681 C1678 1.511 . S
C1681 H1695 0.961 . S
C1681 H1696 0.961 . S
C1681 H1697 0.961 . S
C1682 C1683 1.370 . S
C1682 C1684 1.363 . S
C1682 H1698 0.931 . S
C1683 C1682 1.370 . S
C1683 C1687 1.408 . S
C1684 C1682 1.363 . S
C1684 C1685 1.370 . S
C1684 C1688 1.524 . S
C1685 C1677 1.503 . S
C1685 C1684 1.370 . S
C1685 C1686 1.403 . S
C1686 C1685 1.403 . S
C1686 C1687 1.404 . S
C1686 C1689 1.539 . S
C1687 C1683 1.408 . S
C1687 C1686 1.404 . S
C1687 H1699 0.930 . S
C1688 C1684 1.524 . S
C1688 H1700 0.956 . S
C1688 H1701 0.961 . S
C1688 H1702 0.961 . S
C1689 C1686 1.539 . S
C1689 H1703 0.958 . S
C1689 H1704 0.961 . S
C1689 H1705 0.960 . S
H1690 C1674 0.931 . S
H1691 C1679 0.929 . S
H1692 C1680 0.960 . S
H1693 C1680 0.962 . S
H1694 C1680 0.960 . S
H1695 C1681 0.961 . S
H1696 C1681 0.961 . S
H1697 C1681 0.961 . S
H1698 C1682 0.931 . S
H1699 C1687 0.930 . S
H1700 C1688 0.956 . S
H1701 C1688 0.961 . S
H1702 C1688 0.961 . S
H1703 C1689 0.958 . S
H1704 C1689 0.961 . S
H1705 C1689 0.960 . S
C1706 C1707 1.391 . S
C1706 C1708 1.394 . S
C1706 H1722 0.931 . S
C1707 C1706 1.391 . S
C1707 C1711 1.376 . S
C1708 C1706 1.394 . S
C1708 C1709 1.369 . S
C1708 C1712 1.531 . S
C1709 C1708 1.369 . S
C1709 C1710 1.410 . S
C1709 C1717 1.503 . S
C1710 C1709 1.410 . S
C1710 C1711 1.392 . S
C1710 C1713 1.511 . S
C1711 C1707 1.376 . S
C1711 C1710 1.392 . S
C1711 H1723 0.929 . S
C1712 C1708 1.531 . S
C1712 H1724 0.960 . S
C1712 H1725 0.962 . S
C1712 H1726 0.960 . S
C1713 C1710 1.511 . S
C1713 H1727 0.961 . S
C1713 H1728 0.961 . S
C1713 H1729 0.961 . S
C1714 C1715 1.370 . S
C1714 C1716 1.363 . S
C1714 H1730 0.931 . S
C1715 C1714 1.370 . S
C1715 C1719 1.408 . S
C1716 C1714 1.363 . S
C1716 C1717 1.370 . S
C1716 C1720 1.524 . S
C1717 C1709 1.503 . S
C1717 C1716 1.370 . S
C1717 C1718 1.403 . S
C1718 C1717 1.403 . S
C1718 C1719 1.404 . S
C1718 C1721 1.539 . S
C1719 C1715 1.408 . S
C1719 C1718 1.404 . S
C1719 H1731 0.930 . S
C1720 C1716 1.524 . S
C1720 H1732 0.956 . S
C1720 H1733 0.961 . S
C1720 H1734 0.961 . S
C1721 C1718 1.539 . S
C1721 H1735 0.958 . S
C1721 H1736 0.961 . S
C1721 H1737 0.960 . S
H1722 C1706 0.931 . S
H1723 C1711 0.929 . S
H1724 C1712 0.960 . S
H1725 C1712 0.962 . S
H1726 C1712 0.960 . S
H1727 C1713 0.961 . S
H1728 C1713 0.961 . S
H1729 C1713 0.961 . S
H1730 C1714 0.931 . S
H1731 C1719 0.930 . S
H1732 C1720 0.956 . S
H1733 C1720 0.961 . S
H1734 C1720 0.961 . S
H1735 C1721 0.958 . S
H1736 C1721 0.961 . S
H1737 C1721 0.960 . S
C1738 C1739 1.391 . S
C1738 C1740 1.394 . S
C1738 H1754 0.931 . S
C1739 C1738 1.391 . S
C1739 C1743 1.376 . S
C1740 C1738 1.394 . S
C1740 C1741 1.369 . S
C1740 C1744 1.531 . S
C1741 C1740 1.369 . S
C1741 C1742 1.410 . S
C1741 C1749 1.503 . S
C1742 C1741 1.410 . S
C1742 C1743 1.392 . S
C1742 C1745 1.511 . S
C1743 C1739 1.376 . S
C1743 C1742 1.392 . S
C1743 H1755 0.929 . S
C1744 C1740 1.531 . S
C1744 H1756 0.960 . S
C1744 H1757 0.962 . S
C1744 H1758 0.960 . S
C1745 C1742 1.511 . S
C1745 H1759 0.961 . S
C1745 H1760 0.961 . S
C1745 H1761 0.961 . S
C1746 C1747 1.370 . S
C1746 C1748 1.363 . S
C1746 H1762 0.931 . S
C1747 C1746 1.370 . S
C1747 C1751 1.408 . S
C1748 C1746 1.363 . S
C1748 C1749 1.370 . S
C1748 C1752 1.524 . S
C1749 C1741 1.503 . S
C1749 C1748 1.370 . S
C1749 C1750 1.403 . S
C1750 C1749 1.403 . S
C1750 C1751 1.404 . S
C1750 C1753 1.539 . S
C1751 C1747 1.408 . S
C1751 C1750 1.404 . S
C1751 H1763 0.930 . S
C1752 C1748 1.524 . S
C1752 H1764 0.956 . S
C1752 H1765 0.961 . S
C1752 H1766 0.961 . S
C1753 C1750 1.539 . S
C1753 H1767 0.958 . S
C1753 H1768 0.961 . S
C1753 H1769 0.960 . S
H1754 C1738 0.931 . S
H1755 C1743 0.929 . S
H1756 C1744 0.960 . S
H1757 C1744 0.962 . S
H1758 C1744 0.960 . S
H1759 C1745 0.961 . S
H1760 C1745 0.961 . S
H1761 C1745 0.961 . S
H1762 C1746 0.931 . S
H1763 C1751 0.930 . S
H1764 C1752 0.956 . S
H1765 C1752 0.961 . S
H1766 C1752 0.961 . S
H1767 C1753 0.958 . S
H1768 C1753 0.961 . S
H1769 C1753 0.960 . S
C1770 C1771 1.391 . S
C1770 C1772 1.394 . S
C1770 H1786 0.931 . S
C1771 C1770 1.391 . S
C1771 C1775 1.376 . S
C1772 C1770 1.394 . S
C1772 C1773 1.369 . S
C1772 C1776 1.531 . S
C1773 C1772 1.369 . S
C1773 C1774 1.410 . S
C1773 C1781 1.503 . S
C1774 C1773 1.410 . S
C1774 C1775 1.392 . S
C1774 C1777 1.511 . S
C1775 C1771 1.376 . S
C1775 C1774 1.392 . S
C1775 H1787 0.891 1_565 S
C1776 C1772 1.531 . S
C1776 H1788 0.960 . S
C1776 H1789 0.962 . S
C1776 H1790 0.960 . S
C1777 C1774 1.511 . S
C1777 H1791 0.961 . S
C1777 H1792 0.961 . S
C1777 H1793 0.961 . S
C1778 C1779 1.370 . S
C1778 C1780 1.363 . S
C1778 H1794 0.931 . S
C1779 C1778 1.370 . S
C1779 C1783 1.408 . S
C1780 C1778 1.363 . S
C1780 C1781 1.370 . S
C1780 C1784 1.524 . S
C1781 C1773 1.503 . S
C1781 C1780 1.370 . S
C1781 C1782 1.403 . S
C1782 C1781 1.403 . S
C1782 C1783 1.404 . S
C1782 C1785 1.539 . S
C1783 C1779 1.408 . S
C1783 C1782 1.404 . S
C1783 H1795 0.930 . S
C1784 C1780 1.524 . S
C1784 H1796 0.956 . S
C1784 H1797 0.961 . S
C1784 H1798 0.961 . S
C1785 C1782 1.539 . S
C1785 H1799 0.958 . S
C1785 H1800 0.961 . S
C1785 H1801 0.960 . S
H1786 C1770 0.931 . S
H1787 C1775 0.891 1_545 S
H1788 C1776 0.960 . S
H1789 C1776 0.962 . S
H1790 C1776 0.960 . S
H1791 C1777 0.961 . S
H1792 C1777 0.961 . S
H1793 C1777 0.961 . S
H1794 C1778 0.931 . S
H1795 C1783 0.930 . S
H1796 C1784 0.956 . S
H1797 C1784 0.961 . S
H1798 C1784 0.961 . S
H1799 C1785 0.958 . S
H1800 C1785 0.961 . S
H1801 C1785 0.960 . S
C1802 C1803 1.391 . S
C1802 C1804 1.394 . S
C1802 H1818 0.931 . S
C1803 C1802 1.391 . S
C1803 C1807 1.376 . S
C1804 C1802 1.394 . S
C1804 C1805 1.369 . S
C1804 C1808 1.531 . S
C1805 C1804 1.369 . S
C1805 C1806 1.410 . S
C1805 C1813 1.503 . S
C1806 C1805 1.410 . S
C1806 C1807 1.392 . S
C1806 C1809 1.511 . S
C1807 C1803 1.376 . S
C1807 C1806 1.392 . S
C1807 H1819 0.929 . S
C1808 C1804 1.531 . S
C1808 H1820 0.960 . S
C1808 H1821 0.962 . S
C1808 H1822 0.960 . S
C1809 C1806 1.511 . S
C1809 H1823 0.961 . S
C1809 H1824 0.961 . S
C1809 H1825 0.961 . S
C1810 C1811 1.370 . S
C1810 C1812 1.363 . S
C1810 H1826 0.931 . S
C1811 C1810 1.370 . S
C1811 C1815 1.408 . S
C1812 C1810 1.363 . S
C1812 C1813 1.370 . S
C1812 C1816 1.524 . S
C1813 C1805 1.503 . S
C1813 C1812 1.370 . S
C1813 C1814 1.403 . S
C1814 C1813 1.403 . S
C1814 C1815 1.404 . S
C1814 C1817 1.539 . S
C1815 C1811 1.408 . S
C1815 C1814 1.404 . S
C1815 H1827 0.930 . S
C1816 C1812 1.524 . S
C1816 H1828 0.956 . S
C1816 H1829 0.961 . S
C1816 H1830 0.961 . S
C1817 C1814 1.539 . S
C1817 H1831 0.958 . S
C1817 H1832 0.961 . S
C1817 H1833 0.960 . S
H1818 C1802 0.931 . S
H1819 C1807 0.929 . S
H1820 C1808 0.960 . S
H1821 C1808 0.962 . S
H1822 C1808 0.960 . S
H1823 C1809 0.961 . S
H1824 C1809 0.961 . S
H1825 C1809 0.961 . S
H1826 C1810 0.931 . S
H1827 C1815 0.930 . S
H1828 C1816 0.956 . S
H1829 C1816 0.961 . S
H1830 C1816 0.961 . S
H1831 C1817 0.958 . S
H1832 C1817 0.961 . S
H1833 C1817 0.960 . S
C1834 C1835 1.391 . S
C1834 C1836 1.394 . S
C1834 H1850 0.931 . S
C1835 C1834 1.391 . S
C1835 C1839 1.376 . S
C1836 C1834 1.394 . S
C1836 C1837 1.369 . S
C1836 C1840 1.531 . S
C1837 C1836 1.369 . S
C1837 C1838 1.410 . S
C1837 C1845 1.503 . S
C1838 C1837 1.410 . S
C1838 C1839 1.392 . S
C1838 C1841 1.511 . S
C1839 C1835 1.376 . S
C1839 C1838 1.392 . S
C1839 H1851 0.929 . S
C1840 C1836 1.531 . S
C1840 H1852 0.960 . S
C1840 H1853 0.962 . S
C1840 H1854 0.960 . S
C1841 C1838 1.511 . S
C1841 H1855 0.961 . S
C1841 H1856 0.961 . S
C1841 H1857 0.961 . S
C1842 C1843 1.370 . S
C1842 C1844 1.363 . S
C1842 H1858 0.931 . S
C1843 C1842 1.370 . S
C1843 C1847 1.408 . S
C1844 C1842 1.363 . S
C1844 C1845 1.370 . S
C1844 C1848 1.524 . S
C1845 C1837 1.503 . S
C1845 C1844 1.370 . S
C1845 C1846 1.403 . S
C1846 C1845 1.403 . S
C1846 C1847 1.404 . S
C1846 C1849 1.539 . S
C1847 C1843 1.408 . S
C1847 C1846 1.404 . S
C1847 H1859 0.930 . S
C1848 C1844 1.524 . S
C1848 H1860 0.956 . S
C1848 H1861 0.961 . S
C1848 H1862 0.961 . S
C1849 C1846 1.539 . S
C1849 H1863 0.958 . S
C1849 H1864 0.961 . S
C1849 H1865 0.960 . S
H1850 C1834 0.931 . S
H1851 C1839 0.929 . S
H1852 C1840 0.960 . S
H1853 C1840 0.962 . S
H1854 C1840 0.960 . S
H1855 C1841 0.961 . S
H1856 C1841 0.961 . S
H1857 C1841 0.961 . S
H1858 C1842 0.931 . S
H1859 C1847 0.930 . S
H1860 C1848 0.956 . S
H1861 C1848 0.961 . S
H1862 C1848 0.961 . S
H1863 C1849 0.958 . S
H1864 C1849 0.961 . S
H1865 C1849 0.960 . S
C1866 C1867 1.391 . S
C1866 C1868 1.394 . S
C1866 H1882 0.931 . S
C1867 C1866 1.391 . S
C1867 C1871 1.376 . S
C1868 C1866 1.394 . S
C1868 C1869 1.369 . S
C1868 C1872 1.531 . S
C1869 C1868 1.369 . S
C1869 C1870 1.410 . S
C1869 C1877 1.503 . S
C1870 C1869 1.410 . S
C1870 C1871 1.392 . S
C1870 C1873 1.511 . S
C1871 C1867 1.376 . S
C1871 C1870 1.392 . S
C1871 H1883 0.929 . S
C1872 C1868 1.531 . S
C1872 H1884 0.960 . S
C1872 H1885 0.962 . S
C1872 H1886 0.960 . S
C1873 C1870 1.511 . S
C1873 H1887 0.961 . S
C1873 H1888 0.961 . S
C1873 H1889 0.961 . S
C1874 C1875 1.370 . S
C1874 C1876 1.363 . S
C1874 H1890 0.931 . S
C1875 C1874 1.370 . S
C1875 C1879 1.408 . S
C1876 C1874 1.363 . S
C1876 C1877 1.370 . S
C1876 C1880 1.524 . S
C1877 C1869 1.503 . S
C1877 C1876 1.370 . S
C1877 C1878 1.403 . S
C1878 C1877 1.403 . S
C1878 C1879 1.404 . S
C1878 C1881 1.539 . S
C1879 C1875 1.408 . S
C1879 C1878 1.404 . S
C1879 H1891 0.930 . S
C1880 C1876 1.524 . S
C1880 H1892 0.956 . S
C1880 H1893 0.961 . S
C1880 H1894 0.961 . S
C1881 C1878 1.539 . S
C1881 H1895 0.958 . S
C1881 H1896 0.961 . S
C1881 H1897 0.960 . S
H1882 C1866 0.931 . S
H1883 C1871 0.929 . S
H1884 C1872 0.960 . S
H1885 C1872 0.962 . S
H1886 C1872 0.960 . S
H1887 C1873 0.961 . S
H1888 C1873 0.961 . S
H1889 C1873 0.961 . S
H1890 C1874 0.931 . S
H1891 C1879 0.930 . S
H1892 C1880 0.956 . S
H1893 C1880 0.961 . S
H1894 C1880 0.961 . S
H1895 C1881 0.958 . S
H1896 C1881 0.961 . S
H1897 C1881 0.960 . S
C1898 C1899 1.391 . S
C1898 C1900 1.394 . S
C1898 H1914 0.931 . S
C1899 C1898 1.391 . S
C1899 C1903 1.376 . S
C1900 C1898 1.394 . S
C1900 C1901 1.369 . S
C1900 C1904 1.531 . S
C1901 C1900 1.369 . S
C1901 C1902 1.410 . S
C1901 C1909 1.503 . S
C1902 C1901 1.410 . S
C1902 C1903 1.392 . S
C1902 C1905 1.511 . S
C1903 C1899 1.376 . S
C1903 C1902 1.392 . S
C1903 H1915 0.929 . S
C1904 C1900 1.531 . S
C1904 H1916 0.960 . S
C1904 H1917 0.962 . S
C1904 H1918 0.960 . S
C1905 C1902 1.511 . S
C1905 H1919 0.961 . S
C1905 H1920 0.961 . S
C1905 H1921 0.961 . S
C1906 C1907 1.370 . S
C1906 C1908 1.363 . S
C1906 H1922 0.931 . S
C1907 C1906 1.370 . S
C1907 C1911 1.408 . S
C1908 C1906 1.363 . S
C1908 C1909 1.370 . S
C1908 C1912 1.524 . S
C1909 C1901 1.503 . S
C1909 C1908 1.370 . S
C1909 C1910 1.403 . S
C1910 C1909 1.403 . S
C1910 C1911 1.404 . S
C1910 C1913 1.539 . S
C1911 C1907 1.408 . S
C1911 C1910 1.404 . S
C1911 H1923 0.930 . S
C1912 C1908 1.524 . S
C1912 H1924 0.956 . S
C1912 H1925 0.961 . S
C1912 H1926 0.961 . S
C1913 C1910 1.539 . S
C1913 H1927 0.958 . S
C1913 H1928 0.961 . S
C1913 H1929 0.960 . S
H1914 C1898 0.931 . S
H1915 C1903 0.929 . S
H1916 C1904 0.960 . S
H1917 C1904 0.962 . S
H1918 C1904 0.960 . S
H1919 C1905 0.961 . S
H1920 C1905 0.961 . S
H1921 C1905 0.961 . S
H1922 C1906 0.931 . S
H1923 C1911 0.930 . S
H1924 C1912 0.956 . S
H1925 C1912 0.961 . S
H1926 C1912 0.961 . S
H1927 C1913 0.958 . S
H1928 C1913 0.961 . S
H1929 C1913 0.960 . S
C1930 C1931 1.391 . S
C1930 C1932 1.394 . S
C1930 H1946 0.931 . S
C1931 C1930 1.391 . S
C1931 C1935 1.376 . S
C1932 C1930 1.394 . S
C1932 C1933 1.369 . S
C1932 C1936 1.531 . S
C1933 C1932 1.369 . S
C1933 C1934 1.410 . S
C1933 C1941 1.503 . S
C1934 C1933 1.410 . S
C1934 C1935 1.392 . S
C1934 C1937 1.511 . S
C1935 C1931 1.376 . S
C1935 C1934 1.392 . S
C1935 H1947 0.929 . S
C1936 C1932 1.531 . S
C1936 H1948 0.960 . S
C1936 H1949 0.962 . S
C1936 H1950 0.960 . S
C1937 C1934 1.511 . S
C1937 H1951 0.961 . S
C1937 H1952 0.961 . S
C1937 H1953 0.961 . S
C1938 C1939 1.370 . S
C1938 C1940 1.363 . S
C1938 H1954 0.931 . S
C1939 C1938 1.370 . S
C1939 C1943 1.408 . S
C1940 C1938 1.363 . S
C1940 C1941 1.370 . S
C1940 C1944 1.524 . S
C1941 C1933 1.503 . S
C1941 C1940 1.370 . S
C1941 C1942 1.403 . S
C1942 C1941 1.403 . S
C1942 C1943 1.404 . S
C1942 C1945 1.539 . S
C1943 C1939 1.408 . S
C1943 C1942 1.404 . S
C1943 H1955 0.930 . S
C1944 C1940 1.524 . S
C1944 H1956 0.956 . S
C1944 H1957 0.961 . S
C1944 H1958 0.961 . S
C1945 C1942 1.539 . S
C1945 H1959 0.958 . S
C1945 H1960 0.961 . S
C1945 H1961 0.960 . S
H1946 C1930 0.931 . S
H1947 C1935 0.929 . S
H1948 C1936 0.960 . S
H1949 C1936 0.962 . S
H1950 C1936 0.960 . S
H1951 C1937 0.961 . S
H1952 C1937 0.961 . S
H1953 C1937 0.961 . S
H1954 C1938 0.931 . S
H1955 C1943 0.930 . S
H1956 C1944 0.956 . S
H1957 C1944 0.961 . S
H1958 C1944 0.961 . S
H1959 C1945 0.958 . S
H1960 C1945 0.961 . S
H1961 C1945 0.960 . S
C1962 C1963 1.391 . S
C1962 C1964 1.394 . S
C1962 H1978 0.931 . S
C1963 C1962 1.391 . S
C1963 C1967 1.376 . S
C1964 C1962 1.394 . S
C1964 C1965 1.369 . S
C1964 C1968 1.531 . S
C1965 C1964 1.369 . S
C1965 C1966 1.410 . S
C1965 C1973 1.503 1_565 S
C1966 C1965 1.410 . S
C1966 C1967 1.392 . S
C1966 C1969 1.511 1_565 S
C1967 C1963 1.376 . S
C1967 C1966 1.392 . S
C1967 H1979 0.929 . S
C1968 C1964 1.531 . S
C1968 H1980 0.960 . S
C1968 H1981 0.962 . S
C1968 H1982 0.960 . S
C1969 C1966 1.511 1_545 S
C1969 H1983 0.961 . S
C1969 H1984 0.961 . S
C1969 H1985 0.961 . S
C1970 C1971 1.370 . S
C1970 C1972 1.363 . S
C1970 H1986 0.931 . S
C1971 C1970 1.370 . S
C1971 C1975 1.408 . S
C1972 C1970 1.363 . S
C1972 C1973 1.370 . S
C1972 C1976 1.524 . S
C1973 C1965 1.503 1_545 S
C1973 C1972 1.370 . S
C1973 C1974 1.403 . S
C1974 C1973 1.403 . S
C1974 C1975 1.404 . S
C1974 C1977 1.539 . S
C1975 C1971 1.408 . S
C1975 C1974 1.404 . S
C1975 H1987 0.930 . S
C1976 C1972 1.524 . S
C1976 H1988 0.956 1_545 S
C1976 H1989 0.961 . S
C1976 H1990 0.961 . S
C1977 C1974 1.539 . S
C1977 H1991 0.963 . S
C1977 H1992 0.961 . S
C1977 H1993 0.960 . S
H1978 C1962 0.931 . S
H1979 C1967 0.929 . S
H1980 C1968 0.960 . S
H1981 C1968 0.962 . S
H1982 C1968 0.960 . S
H1983 C1969 0.961 . S
H1984 C1969 0.961 . S
H1985 C1969 0.961 . S
H1986 C1970 0.931 . S
H1987 C1975 0.930 . S
H1988 C1976 0.956 1_565 S
H1989 C1976 0.961 . S
H1990 C1976 0.961 . S
H1991 C1977 0.963 . S
H1992 C1977 0.961 . S
H1993 C1977 0.960 . S
C1994 C1995 1.391 . S
C1994 C1996 1.394 . S
C1994 H2010 0.931 . S
C1995 C1994 1.391 . S
C1995 C1999 1.376 . S
C1996 C1994 1.394 . S
C1996 C1997 1.369 . S
C1996 C2000 1.531 1_455 S
C1997 C1996 1.369 . S
C1997 C1998 1.410 . S
C1997 C2005 1.503 1_455 S
C1998 C1997 1.410 . S
C1998 C1999 1.392 . S
C1998 C2001 1.511 . S
C1999 C1995 1.376 . S
C1999 C1998 1.392 . S
C1999 H2011 0.929 . S
C2000 C1996 1.531 1_655 S
C2000 H2012 0.960 . S
C2000 H2013 0.962 . S
C2000 H2014 0.960 . S
C2001 C1998 1.511 . S
C2001 H2015 0.961 . S
C2001 H2016 0.961 . S
C2001 H2017 0.961 . S
C2002 C2003 1.370 . S
C2002 C2004 1.363 . S
C2002 H2018 0.931 . S
C2003 C2002 1.370 . S
C2003 C2007 1.408 . S
C2004 C2002 1.363 . S
C2004 C2005 1.370 . S
C2004 C2008 1.524 1_655 S
C2005 C1997 1.503 1_655 S
C2005 C2004 1.370 . S
C2005 C2006 1.403 . S
C2006 C2005 1.403 . S
C2006 C2007 1.404 . S
C2006 C2009 1.539 . S
C2007 C2003 1.408 . S
C2007 C2006 1.404 . S
C2007 H2019 0.930 . S
C2008 C2004 1.524 1_455 S
C2008 H2020 0.956 1_455 S
C2008 H2021 0.961 . S
C2008 H2022 0.961 1_455 S
C2009 C2006 1.539 . S
C2009 H2023 0.958 . S
C2009 H2024 0.961 . S
C2009 H2025 0.960 . S
H2010 C1994 0.931 . S
H2011 C1999 0.929 . S
H2012 C2000 0.960 . S
H2013 C2000 0.962 . S
H2014 C2000 0.960 . S
H2015 C2001 0.961 . S
H2016 C2001 0.961 . S
H2017 C2001 0.961 . S
H2018 C2002 0.931 . S
H2019 C2007 0.930 . S
H2020 C2008 0.956 1_655 S
H2021 C2008 0.961 . S
H2022 C2008 0.961 1_655 S
H2023 C2009 0.958 . S
H2024 C2009 0.961 . S
H2025 C2009 0.960 . S
C2026 C2027 1.391 . S
C2026 C2028 1.394 . S
C2026 H2042 0.931 . S
C2027 C2026 1.391 . S
C2027 C2031 1.376 . S
C2028 C2026 1.394 . S
C2028 C2029 1.369 . S
C2028 C2032 1.531 . S
C2029 C2028 1.369 . S
C2029 C2030 1.410 . S
C2029 C2037 1.503 . S
C2030 C2029 1.410 . S
C2030 C2031 1.392 . S
C2030 C2033 1.511 . S
C2031 C2027 1.376 . S
C2031 C2030 1.392 . S
C2031 H2043 0.929 . S
C2032 C2028 1.531 . S
C2032 H2044 0.960 . S
C2032 H2045 0.962 . S
C2032 H2046 0.960 . S
C2033 C2030 1.511 . S
C2033 H2047 0.961 . S
C2033 H2048 0.961 . S
C2033 H2049 0.961 . S
C2034 C2035 1.370 . S
C2034 C2036 1.363 . S
C2034 H2050 0.931 . S
C2035 C2034 1.370 . S
C2035 C2039 1.408 . S
C2036 C2034 1.363 . S
C2036 C2037 1.370 . S
C2036 C2040 1.524 . S
C2037 C2029 1.503 . S
C2037 C2036 1.370 . S
C2037 C2038 1.403 . S
C2038 C2037 1.403 . S
C2038 C2039 1.404 . S
C2038 C2041 1.539 . S
C2039 C2035 1.408 . S
C2039 C2038 1.404 . S
C2039 H2051 0.930 . S
C2040 C2036 1.524 . S
C2040 H2052 0.956 . S
C2040 H2053 0.961 . S
C2040 H2054 0.961 . S
C2041 C2038 1.539 . S
C2041 H2055 0.958 . S
C2041 H2056 0.961 . S
C2041 H2057 0.960 . S
H2042 C2026 0.931 . S
H2043 C2031 0.929 . S
H2044 C2032 0.960 . S
H2045 C2032 0.962 . S
H2046 C2032 0.960 . S
H2047 C2033 0.961 . S
H2048 C2033 0.961 . S
H2049 C2033 0.961 . S
H2050 C2034 0.931 . S
H2051 C2039 0.930 . S
H2052 C2040 0.956 . S
H2053 C2040 0.961 . S
H2054 C2040 0.961 . S
H2055 C2041 0.958 . S
H2056 C2041 0.961 . S
H2057 C2041 0.960 . S
C2058 C2059 1.391 . S
C2058 C2060 1.394 . S
C2058 H2074 0.931 . S
C2059 C2058 1.391 . S
C2059 C2063 1.376 . S
C2060 C2058 1.394 . S
C2060 C2061 1.369 . S
C2060 C2064 1.531 . S
C2061 C2060 1.369 . S
C2061 C2062 1.410 . S
C2061 C2069 1.503 . S
C2062 C2061 1.410 . S
C2062 C2063 1.392 . S
C2062 C2065 1.511 . S
C2063 C2059 1.376 . S
C2063 C2062 1.392 . S
C2063 H2075 0.929 . S
C2064 C2060 1.531 . S
C2064 H2076 0.960 . S
C2064 H2077 0.962 . S
C2064 H2078 0.960 . S
C2065 C2062 1.511 . S
C2065 H2079 0.961 . S
C2065 H2080 0.961 . S
C2065 H2081 0.961 . S
C2066 C2067 1.370 . S
C2066 C2068 1.363 . S
C2066 H2082 0.931 . S
C2067 C2066 1.370 . S
C2067 C2071 1.408 . S
C2068 C2066 1.363 . S
C2068 C2069 1.370 . S
C2068 C2072 1.524 . S
C2069 C2061 1.503 . S
C2069 C2068 1.370 . S
C2069 C2070 1.403 . S
C2070 C2069 1.403 . S
C2070 C2071 1.404 . S
C2070 C2073 1.539 . S
C2071 C2067 1.408 . S
C2071 C2070 1.404 . S
C2071 H2083 0.930 . S
C2072 C2068 1.524 . S
C2072 H2084 0.956 . S
C2072 H2085 0.961 . S
C2072 H2086 0.961 . S
C2073 C2070 1.539 . S
C2073 H2087 0.958 . S
C2073 H2088 0.961 . S
C2073 H2089 0.960 . S
H2074 C2058 0.931 . S
H2075 C2063 0.929 . S
H2076 C2064 0.960 . S
H2077 C2064 0.962 . S
H2078 C2064 0.960 . S
H2079 C2065 0.961 . S
H2080 C2065 0.961 . S
H2081 C2065 0.961 . S
H2082 C2066 0.931 . S
H2083 C2071 0.930 . S
H2084 C2072 0.956 . S
H2085 C2072 0.961 . S
H2086 C2072 0.961 . S
H2087 C2073 0.958 . S
H2088 C2073 0.961 . S
H2089 C2073 0.960 . S
C2090 C2091 1.391 . S
C2090 C2092 1.394 . S
C2090 H2106 0.931 . S
C2091 C2090 1.391 . S
C2091 C2095 1.376 . S
C2092 C2090 1.394 . S
C2092 C2093 1.369 . S
C2092 C2096 1.531 . S
C2093 C2092 1.369 . S
C2093 C2094 1.410 . S
C2093 C2101 1.503 . S
C2094 C2093 1.410 . S
C2094 C2095 1.392 . S
C2094 C2097 1.511 . S
C2095 C2091 1.376 . S
C2095 C2094 1.392 . S
C2095 H2107 0.929 . S
C2096 C2092 1.531 . S
C2096 H2108 0.960 . S
C2096 H2109 0.962 . S
C2096 H2110 0.960 . S
C2097 C2094 1.511 . S
C2097 H2111 0.961 . S
C2097 H2112 0.961 . S
C2097 H2113 0.961 . S
C2098 C2099 1.370 . S
C2098 C2100 1.363 . S
C2098 H2114 0.931 . S
C2099 C2098 1.370 . S
C2099 C2103 1.408 . S
C2100 C2098 1.363 . S
C2100 C2101 1.370 . S
C2100 C2104 1.524 . S
C2101 C2093 1.503 . S
C2101 C2100 1.370 . S
C2101 C2102 1.403 . S
C2102 C2101 1.403 . S
C2102 C2103 1.404 . S
C2102 C2105 1.539 . S
C2103 C2099 1.408 . S
C2103 C2102 1.404 . S
C2103 H2115 0.930 . S
C2104 C2100 1.524 . S
C2104 H2116 0.956 . S
C2104 H2117 0.961 . S
C2104 H2118 0.961 . S
C2105 C2102 1.539 . S
C2105 H2119 0.958 . S
C2105 H2120 0.961 . S
C2105 H2121 0.960 . S
H2106 C2090 0.931 . S
H2107 C2095 0.929 . S
H2108 C2096 0.960 . S
H2109 C2096 0.962 . S
H2110 C2096 0.960 . S
H2111 C2097 0.961 . S
H2112 C2097 0.961 . S
H2113 C2097 0.961 . S
H2114 C2098 0.931 . S
H2115 C2103 0.930 . S
H2116 C2104 0.956 . S
H2117 C2104 0.961 . S
H2118 C2104 0.961 . S
H2119 C2105 0.958 . S
H2120 C2105 0.961 . S
H2121 C2105 0.960 . S
C2122 C2123 1.391 . S
C2122 C2124 1.394 . S
C2122 H2138 0.931 . S
C2123 C2122 1.391 . S
C2123 C2127 1.376 . S
C2124 C2122 1.394 . S
C2124 C2125 1.369 . S
C2124 C2128 1.531 . S
C2125 C2124 1.369 . S
C2125 C2126 1.410 . S
C2125 C2133 1.503 . S
C2126 C2125 1.410 . S
C2126 C2127 1.392 . S
C2126 C2129 1.511 . S
C2127 C2123 1.376 . S
C2127 C2126 1.392 . S
C2127 H2139 0.929 . S
C2128 C2124 1.531 . S
C2128 H2140 0.960 . S
C2128 H2141 0.962 . S
C2128 H2142 0.960 . S
C2129 C2126 1.511 . S
C2129 H2143 0.961 . S
C2129 H2144 0.961 . S
C2129 H2145 0.961 . S
C2130 C2131 1.370 . S
C2130 C2132 1.363 . S
C2130 H2146 0.931 . S
C2131 C2130 1.370 . S
C2131 C2135 1.408 . S
C2132 C2130 1.363 . S
C2132 C2133 1.370 . S
C2132 C2136 1.524 . S
C2133 C2125 1.503 . S
C2133 C2132 1.370 . S
C2133 C2134 1.403 . S
C2134 C2133 1.403 . S
C2134 C2135 1.404 . S
C2134 C2137 1.539 . S
C2135 C2131 1.408 . S
C2135 C2134 1.404 . S
C2135 H2147 0.930 . S
C2136 C2132 1.524 . S
C2136 H2148 0.956 . S
C2136 H2149 0.961 . S
C2136 H2150 0.961 . S
C2137 C2134 1.539 . S
C2137 H2151 0.958 . S
C2137 H2152 0.961 . S
C2137 H2153 0.960 . S
H2138 C2122 0.931 . S
H2139 C2127 0.929 . S
H2140 C2128 0.960 . S
H2141 C2128 0.962 . S
H2142 C2128 0.960 . S
H2143 C2129 0.961 . S
H2144 C2129 0.961 . S
H2145 C2129 0.961 . S
H2146 C2130 0.931 . S
H2147 C2135 0.930 . S
H2148 C2136 0.956 . S
H2149 C2136 0.961 . S
H2150 C2136 0.961 . S
H2151 C2137 0.958 . S
H2152 C2137 0.961 . S
H2153 C2137 0.960 . S
C2154 C2155 1.391 . S
C2154 C2156 1.394 . S
C2154 H2170 0.931 . S
C2155 C2154 1.391 . S
C2155 C2159 1.376 . S
C2156 C2154 1.394 . S
C2156 C2157 1.369 . S
C2156 C2160 1.531 . S
C2157 C2156 1.369 . S
C2157 C2158 1.410 . S
C2157 C2165 1.503 . S
C2158 C2157 1.410 . S
C2158 C2159 1.392 . S
C2158 C2161 1.511 . S
C2159 C2155 1.376 . S
C2159 C2158 1.392 . S
C2159 H2171 0.929 . S
C2160 C2156 1.531 . S
C2160 H2172 0.960 . S
C2160 H2173 0.962 . S
C2160 H2174 0.960 . S
C2161 C2158 1.511 . S
C2161 H2175 0.961 . S
C2161 H2176 0.961 . S
C2161 H2177 0.961 . S
C2162 C2163 1.370 . S
C2162 C2164 1.363 . S
C2162 H2178 0.931 . S
C2163 C2162 1.370 . S
C2163 C2167 1.408 . S
C2164 C2162 1.363 . S
C2164 C2165 1.370 . S
C2164 C2168 1.524 . S
C2165 C2157 1.503 . S
C2165 C2164 1.370 . S
C2165 C2166 1.403 . S
C2166 C2165 1.403 . S
C2166 C2167 1.404 . S
C2166 C2169 1.539 . S
C2167 C2163 1.408 . S
C2167 C2166 1.404 . S
C2167 H2179 0.930 . S
C2168 C2164 1.524 . S
C2168 H2180 0.956 . S
C2168 H2181 0.961 . S
C2168 H2182 0.961 . S
C2169 C2166 1.539 . S
C2169 H2183 0.958 . S
C2169 H2184 0.961 . S
C2169 H2185 0.960 . S
H2170 C2154 0.931 . S
H2171 C2159 0.929 . S
H2172 C2160 0.960 . S
H2173 C2160 0.962 . S
H2174 C2160 0.960 . S
H2175 C2161 0.961 . S
H2176 C2161 0.961 . S
H2177 C2161 0.961 . S
H2178 C2162 0.931 . S
H2179 C2167 0.930 . S
H2180 C2168 0.956 . S
H2181 C2168 0.961 . S
H2182 C2168 0.961 . S
H2183 C2169 0.958 . S
H2184 C2169 0.961 . S
H2185 C2169 0.960 . S
C2186 C2187 1.391 . S
C2186 C2188 1.394 . S
C2186 H2202 0.931 . S
C2187 C2186 1.391 . S
C2187 C2191 1.376 . S
C2188 C2186 1.394 . S
C2188 C2189 1.369 . S
C2188 C2192 1.531 . S
C2189 C2188 1.369 . S
C2189 C2190 1.410 . S
C2189 C2197 1.503 . S
C2190 C2189 1.410 . S
C2190 C2191 1.392 . S
C2190 C2193 1.511 . S
C2191 C2187 1.376 . S
C2191 C2190 1.392 . S
C2191 H2203 0.929 . S
C2192 C2188 1.531 . S
C2192 H2204 0.960 . S
C2192 H2205 0.962 . S
C2192 H2206 0.960 . S
C2193 C2190 1.511 . S
C2193 H2207 0.961 . S
C2193 H2208 0.961 . S
C2193 H2209 0.961 . S
C2194 C2195 1.370 . S
C2194 C2196 1.363 . S
C2194 H2210 0.931 . S
C2195 C2194 1.370 . S
C2195 C2199 1.408 . S
C2196 C2194 1.363 . S
C2196 C2197 1.370 . S
C2196 C2200 1.524 . S
C2197 C2189 1.503 . S
C2197 C2196 1.370 . S
C2197 C2198 1.403 . S
C2198 C2197 1.403 . S
C2198 C2199 1.404 . S
C2198 C2201 1.539 . S
C2199 C2195 1.408 . S
C2199 C2198 1.404 . S
C2199 H2211 0.930 . S
C2200 C2196 1.524 . S
C2200 H2212 0.956 . S
C2200 H2213 0.961 . S
C2200 H2214 0.961 . S
C2201 C2198 1.539 . S
C2201 H2215 0.958 . S
C2201 H2216 0.961 . S
C2201 H2217 0.960 . S
H2202 C2186 0.931 . S
H2203 C2191 0.929 . S
H2204 C2192 0.960 . S
H2205 C2192 0.962 . S
H2206 C2192 0.960 . S
H2207 C2193 0.961 . S
H2208 C2193 0.961 . S
H2209 C2193 0.961 . S
H2210 C2194 0.931 . S
H2211 C2199 0.930 . S
H2212 C2200 0.956 . S
H2213 C2200 0.961 . S
H2214 C2200 0.961 . S
H2215 C2201 0.958 . S
H2216 C2201 0.961 . S
H2217 C2201 0.960 . S
C2218 C2219 1.391 . S
C2218 C2220 1.394 . S
C2218 H2234 0.931 . S
C2219 C2218 1.391 . S
C2219 C2223 1.376 . S
C2220 C2218 1.394 . S
C2220 C2221 1.369 . S
C2220 C2224 1.531 . S
C2221 C2220 1.369 . S
C2221 C2222 1.410 . S
C2221 C2229 1.503 . S
C2222 C2221 1.410 . S
C2222 C2223 1.392 . S
C2222 C2225 1.511 . S
C2223 C2219 1.376 . S
C2223 C2222 1.392 . S
C2223 H2235 0.929 . S
C2224 C2220 1.531 . S
C2224 H2236 0.960 . S
C2224 H2237 0.962 . S
C2224 H2238 0.960 . S
C2225 C2222 1.511 . S
C2225 H2239 0.961 . S
C2225 H2240 0.961 . S
C2225 H2241 0.961 . S
C2226 C2227 1.370 . S
C2226 C2228 1.363 . S
C2226 H2242 0.931 . S
C2227 C2226 1.370 . S
C2227 C2231 1.408 . S
C2228 C2226 1.363 . S
C2228 C2229 1.370 . S
C2228 C2232 1.524 . S
C2229 C2221 1.503 . S
C2229 C2228 1.370 . S
C2229 C2230 1.403 . S
C2230 C2229 1.403 . S
C2230 C2231 1.404 . S
C2230 C2233 1.539 . S
C2231 C2227 1.408 . S
C2231 C2230 1.404 . S
C2231 H2243 0.930 . S
C2232 C2228 1.524 . S
C2232 H2244 0.956 . S
C2232 H2245 0.961 . S
C2232 H2246 0.961 . S
C2233 C2230 1.539 . S
C2233 H2247 0.958 . S
C2233 H2248 0.961 . S
C2233 H2249 0.960 . S
H2234 C2218 0.931 . S
H2235 C2223 0.929 . S
H2236 C2224 0.960 . S
H2237 C2224 0.962 . S
H2238 C2224 0.960 . S
H2239 C2225 0.961 . S
H2240 C2225 0.961 . S
H2241 C2225 0.961 . S
H2242 C2226 0.931 . S
H2243 C2231 0.930 . S
H2244 C2232 0.956 . S
H2245 C2232 0.961 . S
H2246 C2232 0.961 . S
H2247 C2233 0.958 . S
H2248 C2233 0.961 . S
H2249 C2233 0.960 . S
C2250 C2251 1.391 . S
C2250 C2252 1.394 . S
C2250 H2266 0.931 . S
C2251 C2250 1.391 . S
C2251 C2255 1.376 . S
C2252 C2250 1.394 . S
C2252 C2253 1.369 . S
C2252 C2256 1.531 . S
C2253 C2252 1.369 . S
C2253 C2254 1.410 . S
C2253 C2261 1.503 . S
C2254 C2253 1.410 . S
C2254 C2255 1.392 . S
C2254 C2257 1.511 . S
C2255 C2251 1.376 . S
C2255 C2254 1.392 . S
C2255 H2267 0.929 . S
C2256 C2252 1.531 . S
C2256 H2268 0.960 . S
C2256 H2269 0.962 . S
C2256 H2270 0.960 . S
C2257 C2254 1.511 . S
C2257 H2271 0.961 . S
C2257 H2272 0.961 . S
C2257 H2273 0.961 . S
C2258 C2259 1.370 . S
C2258 C2260 1.363 . S
C2258 H2274 0.931 . S
C2259 C2258 1.370 . S
C2259 C2263 1.408 . S
C2260 C2258 1.363 . S
C2260 C2261 1.370 . S
C2260 C2264 1.524 . S
C2261 C2253 1.503 . S
C2261 C2260 1.370 . S
C2261 C2262 1.403 . S
C2262 C2261 1.403 . S
C2262 C2263 1.404 . S
C2262 C2265 1.539 . S
C2263 C2259 1.408 . S
C2263 C2262 1.404 . S
C2263 H2275 0.930 . S
C2264 C2260 1.524 . S
C2264 H2276 0.956 . S
C2264 H2277 0.961 . S
C2264 H2278 0.961 . S
C2265 C2262 1.539 . S
C2265 H2279 0.958 . S
C2265 H2280 0.961 . S
C2265 H2281 0.960 . S
H2266 C2250 0.931 . S
H2267 C2255 0.929 . S
H2268 C2256 0.960 . S
H2269 C2256 0.962 . S
H2270 C2256 0.960 . S
H2271 C2257 0.961 . S
H2272 C2257 0.961 . S
H2273 C2257 0.961 . S
H2274 C2258 0.931 . S
H2275 C2263 0.930 . S
H2276 C2264 0.956 . S
H2277 C2264 0.961 . S
H2278 C2264 0.961 . S
H2279 C2265 0.958 . S
H2280 C2265 0.961 . S
H2281 C2265 0.960 . S
C2282 C2283 1.391 . S
C2282 C2284 1.394 . S
C2282 H2298 0.931 . S
C2283 C2282 1.391 . S
C2283 C2287 1.376 . S
C2284 C2282 1.394 . S
C2284 C2285 1.369 . S
C2284 C2288 1.531 . S
C2285 C2284 1.369 . S
C2285 C2286 1.410 . S
C2285 C2293 1.503 . S
C2286 C2285 1.410 . S
C2286 C2287 1.392 . S
C2286 C2289 1.511 . S
C2287 C2283 1.376 . S
C2287 C2286 1.392 . S
C2287 H2299 0.929 . S
C2288 C2284 1.531 . S
C2288 H2300 0.960 . S
C2288 H2301 0.962 . S
C2288 H2302 0.960 . S
C2289 C2286 1.511 . S
C2289 H2303 0.961 . S
C2289 H2304 0.961 . S
C2289 H2305 0.961 . S
C2290 C2291 1.370 . S
C2290 C2292 1.363 . S
C2290 H2306 0.931 . S
C2291 C2290 1.370 . S
C2291 C2295 1.408 . S
C2292 C2290 1.363 . S
C2292 C2293 1.370 . S
C2292 C2296 1.524 . S
C2293 C2285 1.503 . S
C2293 C2292 1.370 . S
C2293 C2294 1.403 . S
C2294 C2293 1.403 . S
C2294 C2295 1.404 . S
C2294 C2297 1.539 . S
C2295 C2291 1.408 . S
C2295 C2294 1.404 . S
C2295 H2307 0.930 . S
C2296 C2292 1.524 . S
C2296 H2308 0.956 . S
C2296 H2309 0.961 . S
C2296 H2310 0.961 . S
C2297 C2294 1.539 . S
C2297 H2311 0.958 . S
C2297 H2312 0.961 . S
C2297 H2313 0.960 . S
H2298 C2282 0.931 . S
H2299 C2287 0.929 . S
H2300 C2288 0.960 . S
H2301 C2288 0.962 . S
H2302 C2288 0.960 . S
H2303 C2289 0.961 . S
H2304 C2289 0.961 . S
H2305 C2289 0.961 . S
H2306 C2290 0.931 . S
H2307 C2295 0.930 . S
H2308 C2296 0.956 . S
H2309 C2296 0.961 . S
H2310 C2296 0.961 . S
H2311 C2297 0.958 . S
H2312 C2297 0.961 . S
H2313 C2297 0.960 . S
C2314 C2315 1.391 . S
C2314 C2316 1.394 . S
C2314 H2330 0.931 . S
C2315 C2314 1.391 . S
C2315 C2319 1.376 . S
C2316 C2314 1.394 . S
C2316 C2317 1.369 . S
C2316 C2320 1.531 . S
C2317 C2316 1.369 . S
C2317 C2318 1.410 . S
C2317 C2325 1.503 . S
C2318 C2317 1.410 . S
C2318 C2319 1.392 . S
C2318 C2321 1.511 . S
C2319 C2315 1.376 . S
C2319 C2318 1.392 . S
C2319 H2331 0.929 . S
C2320 C2316 1.531 . S
C2320 H2332 0.960 . S
C2320 H2333 0.962 . S
C2320 H2334 0.960 . S
C2321 C2318 1.511 . S
C2321 H2335 0.961 . S
C2321 H2336 0.961 . S
C2321 H2337 0.961 . S
C2322 C2323 1.370 . S
C2322 C2324 1.363 . S
C2322 H2338 0.931 . S
C2323 C2322 1.370 . S
C2323 C2327 1.408 . S
C2324 C2322 1.363 . S
C2324 C2325 1.370 . S
C2324 C2328 1.524 . S
C2325 C2317 1.503 . S
C2325 C2324 1.370 . S
C2325 C2326 1.403 . S
C2326 C2325 1.403 . S
C2326 C2327 1.404 . S
C2326 C2329 1.539 . S
C2327 C2323 1.408 . S
C2327 C2326 1.404 . S
C2327 H2339 0.930 . S
C2328 C2324 1.524 . S
C2328 H2340 0.956 . S
C2328 H2341 0.961 . S
C2328 H2342 0.961 . S
C2329 C2326 1.539 . S
C2329 H2343 0.958 . S
C2329 H2344 0.961 . S
C2329 H2345 0.960 . S
H2330 C2314 0.931 . S
H2331 C2319 0.929 . S
H2332 C2320 0.960 . S
H2333 C2320 0.962 . S
H2334 C2320 0.960 . S
H2335 C2321 0.961 . S
H2336 C2321 0.961 . S
H2337 C2321 0.961 . S
H2338 C2322 0.931 . S
H2339 C2327 0.930 . S
H2340 C2328 0.956 . S
H2341 C2328 0.961 . S
H2342 C2328 0.961 . S
H2343 C2329 0.958 . S
H2344 C2329 0.961 . S
H2345 C2329 0.960 . S
C2346 C2347 1.391 . S
C2346 C2348 1.394 . S
C2346 H2362 0.931 . S
C2347 C2346 1.391 . S
C2347 C2351 1.376 . S
C2348 C2346 1.394 . S
C2348 C2349 1.369 . S
C2348 C2352 1.531 . S
C2349 C2348 1.369 . S
C2349 C2350 1.410 . S
C2349 C2357 1.503 . S
C2350 C2349 1.410 . S
C2350 C2351 1.392 . S
C2350 C2353 1.511 . S
C2351 C2347 1.376 . S
C2351 C2350 1.392 . S
C2351 H2363 0.929 . S
C2352 C2348 1.531 . S
C2352 H2364 0.960 . S
C2352 H2365 0.962 . S
C2352 H2366 0.960 . S
C2353 C2350 1.511 . S
C2353 H2367 0.961 . S
C2353 H2368 0.961 . S
C2353 H2369 0.961 . S
C2354 C2355 1.370 . S
C2354 C2356 1.363 . S
C2354 H2370 0.931 . S
C2355 C2354 1.370 . S
C2355 C2359 1.408 . S
C2356 C2354 1.363 . S
C2356 C2357 1.370 . S
C2356 C2360 1.524 . S
C2357 C2349 1.503 . S
C2357 C2356 1.370 . S
C2357 C2358 1.403 . S
C2358 C2357 1.403 . S
C2358 C2359 1.404 . S
C2358 C2361 1.539 . S
C2359 C2355 1.408 . S
C2359 C2358 1.404 . S
C2359 H2371 0.930 . S
C2360 C2356 1.524 . S
C2360 H2372 0.956 . S
C2360 H2373 0.961 . S
C2360 H2374 0.961 . S
C2361 C2358 1.539 . S
C2361 H2375 0.958 . S
C2361 H2376 0.961 . S
C2361 H2377 0.960 . S
H2362 C2346 0.931 . S
H2363 C2351 0.929 . S
H2364 C2352 0.960 . S
H2365 C2352 0.962 . S
H2366 C2352 0.960 . S
H2367 C2353 0.961 . S
H2368 C2353 0.961 . S
H2369 C2353 0.961 . S
H2370 C2354 0.931 . S
H2371 C2359 0.930 . S
H2372 C2360 0.956 . S
H2373 C2360 0.961 . S
H2374 C2360 0.961 . S
H2375 C2361 0.958 . S
H2376 C2361 0.961 . S
H2377 C2361 0.960 . S
C2378 C2379 1.391 . S
C2378 C2380 1.394 . S
C2378 H2394 0.931 . S
C2379 C2378 1.391 . S
C2379 C2383 1.376 . S
C2380 C2378 1.394 . S
C2380 C2381 1.369 . S
C2380 C2384 1.531 . S
C2381 C2380 1.369 . S
C2381 C2382 1.410 . S
C2381 C2389 1.503 . S
C2382 C2381 1.410 . S
C2382 C2383 1.392 . S
C2382 C2385 1.511 . S
C2383 C2379 1.376 . S
C2383 C2382 1.392 . S
C2383 H2395 0.929 . S
C2384 C2380 1.531 . S
C2384 H2396 0.960 . S
C2384 H2397 0.962 . S
C2384 H2398 0.960 . S
C2385 C2382 1.511 . S
C2385 H2399 0.961 . S
C2385 H2400 0.961 . S
C2385 H2401 0.961 . S
C2386 C2387 1.370 . S
C2386 C2388 1.363 . S
C2386 H2402 0.931 . S
C2387 C2386 1.370 . S
C2387 C2391 1.408 . S
C2388 C2386 1.363 . S
C2388 C2389 1.370 . S
C2388 C2392 1.524 . S
C2389 C2381 1.503 . S
C2389 C2388 1.370 . S
C2389 C2390 1.403 . S
C2390 C2389 1.403 . S
C2390 C2391 1.404 . S
C2390 C2393 1.539 . S
C2391 C2387 1.408 . S
C2391 C2390 1.404 . S
C2391 H2403 0.930 . S
C2392 C2388 1.524 . S
C2392 H2404 0.956 . S
C2392 H2405 0.961 . S
C2392 H2406 0.961 . S
C2393 C2390 1.539 . S
C2393 H2407 0.958 . S
C2393 H2408 0.961 . S
C2393 H2409 0.960 . S
H2394 C2378 0.931 . S
H2395 C2383 0.929 . S
H2396 C2384 0.960 . S
H2397 C2384 0.962 . S
H2398 C2384 0.960 . S
H2399 C2385 0.961 . S
H2400 C2385 0.961 . S
H2401 C2385 0.961 . S
H2402 C2386 0.931 . S
H2403 C2391 0.930 . S
H2404 C2392 0.956 . S
H2405 C2392 0.961 . S
H2406 C2392 0.961 . S
H2407 C2393 0.958 . S
H2408 C2393 0.961 . S
H2409 C2393 0.960 . S
C2410 C2411 1.391 . S
C2410 C2412 1.394 . S
C2410 H2426 0.931 . S
C2411 C2410 1.391 . S
C2411 C2415 1.376 . S
C2412 C2410 1.394 . S
C2412 C2413 1.369 . S
C2412 C2416 1.531 . S
C2413 C2412 1.369 . S
C2413 C2414 1.410 . S
C2413 C2421 1.503 . S
C2414 C2413 1.410 . S
C2414 C2415 1.392 . S
C2414 C2417 1.511 . S
C2415 C2411 1.376 . S
C2415 C2414 1.392 . S
C2415 H2427 0.929 . S
C2416 C2412 1.531 . S
C2416 H2428 0.960 . S
C2416 H2429 0.962 . S
C2416 H2430 0.960 . S
C2417 C2414 1.511 . S
C2417 H2431 0.961 . S
C2417 H2432 0.961 . S
C2417 H2433 0.961 . S
C2418 C2419 1.370 . S
C2418 C2420 1.363 . S
C2418 H2434 0.931 . S
C2419 C2418 1.370 . S
C2419 C2423 1.408 . S
C2420 C2418 1.363 . S
C2420 C2421 1.370 . S
C2420 C2424 1.524 . S
C2421 C2413 1.503 . S
C2421 C2420 1.370 . S
C2421 C2422 1.403 . S
C2422 C2421 1.403 . S
C2422 C2423 1.404 . S
C2422 C2425 1.539 . S
C2423 C2419 1.408 . S
C2423 C2422 1.404 . S
C2423 H2435 0.930 . S
C2424 C2420 1.524 . S
C2424 H2436 0.956 . S
C2424 H2437 0.961 . S
C2424 H2438 0.961 . S
C2425 C2422 1.539 . S
C2425 H2439 0.958 . S
C2425 H2440 0.961 . S
C2425 H2441 0.960 . S
H2426 C2410 0.931 . S
H2427 C2415 0.929 . S
H2428 C2416 0.960 . S
H2429 C2416 0.962 . S
H2430 C2416 0.960 . S
H2431 C2417 0.961 . S
H2432 C2417 0.961 . S
H2433 C2417 0.961 . S
H2434 C2418 0.931 . S
H2435 C2423 0.930 . S
H2436 C2424 0.956 . S
H2437 C2424 0.961 . S
H2438 C2424 0.961 . S
H2439 C2425 0.958 . S
H2440 C2425 0.961 . S
H2441 C2425 0.960 . S
C2442 C2443 1.391 . S
C2442 C2444 1.394 . S
C2442 H2458 0.931 . S
C2443 C2442 1.391 . S
C2443 C2447 1.376 . S
C2444 C2442 1.394 . S
C2444 C2445 1.369 . S
C2444 C2448 1.531 . S
C2445 C2444 1.369 . S
C2445 C2446 1.410 . S
C2445 C2453 1.503 . S
C2446 C2445 1.410 . S
C2446 C2447 1.392 . S
C2446 C2449 1.511 . S
C2447 C2443 1.376 . S
C2447 C2446 1.392 . S
C2447 H2459 0.929 . S
C2448 C2444 1.531 . S
C2448 H2460 0.960 . S
C2448 H2461 0.962 . S
C2448 H2462 0.960 . S
C2449 C2446 1.511 . S
C2449 H2463 0.961 . S
C2449 H2464 0.961 . S
C2449 H2465 0.961 . S
C2450 C2451 1.370 . S
C2450 C2452 1.363 . S
C2450 H2466 0.931 . S
C2451 C2450 1.370 . S
C2451 C2455 1.408 . S
C2452 C2450 1.363 . S
C2452 C2453 1.370 . S
C2452 C2456 1.524 . S
C2453 C2445 1.503 . S
C2453 C2452 1.370 . S
C2453 C2454 1.403 . S
C2454 C2453 1.403 . S
C2454 C2455 1.404 . S
C2454 C2457 1.539 . S
C2455 C2451 1.408 . S
C2455 C2454 1.404 . S
C2455 H2467 0.930 . S
C2456 C2452 1.524 . S
C2456 H2468 0.956 . S
C2456 H2469 0.961 . S
C2456 H2470 0.961 . S
C2457 C2454 1.539 . S
C2457 H2471 0.958 . S
C2457 H2472 0.961 . S
C2457 H2473 0.960 . S
H2458 C2442 0.931 . S
H2459 C2447 0.929 . S
H2460 C2448 0.960 . S
H2461 C2448 0.962 . S
H2462 C2448 0.960 . S
H2463 C2449 0.961 . S
H2464 C2449 0.961 . S
H2465 C2449 0.961 . S
H2466 C2450 0.931 . S
H2467 C2455 0.930 . S
H2468 C2456 0.956 . S
H2469 C2456 0.961 . S
H2470 C2456 0.961 . S
H2471 C2457 0.958 . S
H2472 C2457 0.961 . S
H2473 C2457 0.960 . S
C2474 C2475 1.391 . S
C2474 C2476 1.394 . S
C2474 H2490 0.931 . S
C2475 C2474 1.391 . S
C2475 C2479 1.376 . S
C2476 C2474 1.394 . S
C2476 C2477 1.369 . S
C2476 C2480 1.531 . S
C2477 C2476 1.369 . S
C2477 C2478 1.410 . S
C2477 C2485 1.503 . S
C2478 C2477 1.410 . S
C2478 C2479 1.392 . S
C2478 C2481 1.511 . S
C2479 C2475 1.376 . S
C2479 C2478 1.392 . S
C2479 H2491 0.929 . S
C2480 C2476 1.531 . S
C2480 H2492 0.960 . S
C2480 H2493 0.962 . S
C2480 H2494 0.960 . S
C2481 C2478 1.511 . S
C2481 H2495 0.961 . S
C2481 H2496 0.961 . S
C2481 H2497 0.961 . S
C2482 C2483 1.370 . S
C2482 C2484 1.363 . S
C2482 H2498 0.931 . S
C2483 C2482 1.370 . S
C2483 C2487 1.408 . S
C2484 C2482 1.363 . S
C2484 C2485 1.370 . S
C2484 C2488 1.524 . S
C2485 C2477 1.503 . S
C2485 C2484 1.370 . S
C2485 C2486 1.403 . S
C2486 C2485 1.403 . S
C2486 C2487 1.404 . S
C2486 C2489 1.539 . S
C2487 C2483 1.408 . S
C2487 C2486 1.404 . S
C2487 H2499 0.930 . S
C2488 C2484 1.524 . S
C2488 H2500 0.956 . S
C2488 H2501 0.961 . S
C2488 H2502 0.961 . S
C2489 C2486 1.539 . S
C2489 H2503 0.958 . S
C2489 H2504 0.961 . S
C2489 H2505 0.960 . S
H2490 C2474 0.931 . S
H2491 C2479 0.929 . S
H2492 C2480 0.960 . S
H2493 C2480 0.962 . S
H2494 C2480 0.960 . S
H2495 C2481 0.961 . S
H2496 C2481 0.961 . S
H2497 C2481 0.961 . S
H2498 C2482 0.931 . S
H2499 C2487 0.930 . S
H2500 C2488 0.956 . S
H2501 C2488 0.961 . S
H2502 C2488 0.961 . S
H2503 C2489 0.958 . S
H2504 C2489 0.961 . S
H2505 C2489 0.960 . S
C2506 C2507 1.391 . S
C2506 C2508 1.394 . S
C2506 H2522 0.931 . S
C2507 C2506 1.391 . S
C2507 C2511 1.376 . S
C2508 C2506 1.394 . S
C2508 C2509 1.369 . S
C2508 C2512 1.531 . S
C2509 C2508 1.369 . S
C2509 C2510 1.410 . S
C2509 C2517 1.503 . S
C2510 C2509 1.410 . S
C2510 C2511 1.392 . S
C2510 C2513 1.511 . S
C2511 C2507 1.376 . S
C2511 C2510 1.392 . S
C2511 H2523 0.929 . S
C2512 C2508 1.531 . S
C2512 H2524 0.960 . S
C2512 H2525 0.962 . S
C2512 H2526 0.960 . S
C2513 C2510 1.511 . S
C2513 H2527 0.961 . S
C2513 H2528 0.961 . S
C2513 H2529 0.961 . S
C2514 C2515 1.370 . S
C2514 C2516 1.363 . S
C2514 H2530 0.931 . S
C2515 C2514 1.370 . S
C2515 C2519 1.408 . S
C2516 C2514 1.363 . S
C2516 C2517 1.370 . S
C2516 C2520 1.524 . S
C2517 C2509 1.503 . S
C2517 C2516 1.370 . S
C2517 C2518 1.403 . S
C2518 C2517 1.403 . S
C2518 C2519 1.404 . S
C2518 C2521 1.539 . S
C2519 C2515 1.408 . S
C2519 C2518 1.404 . S
C2519 H2531 0.930 . S
C2520 C2516 1.524 . S
C2520 H2532 0.956 . S
C2520 H2533 0.961 . S
C2520 H2534 0.961 . S
C2521 C2518 1.539 . S
C2521 H2535 0.958 . S
C2521 H2536 0.961 . S
C2521 H2537 0.960 . S
H2522 C2506 0.931 . S
H2523 C2511 0.929 . S
H2524 C2512 0.960 . S
H2525 C2512 0.962 . S
H2526 C2512 0.960 . S
H2527 C2513 0.961 . S
H2528 C2513 0.961 . S
H2529 C2513 0.961 . S
H2530 C2514 0.931 . S
H2531 C2519 0.930 . S
H2532 C2520 0.956 . S
H2533 C2520 0.961 . S
H2534 C2520 0.961 . S
H2535 C2521 0.958 . S
H2536 C2521 0.961 . S
H2537 C2521 0.960 . S
C2538 C2539 1.391 . S
C2538 C2540 1.394 . S
C2538 H2554 0.931 . S
C2539 C2538 1.391 . S
C2539 C2543 1.376 . S
C2540 C2538 1.394 . S
C2540 C2541 1.369 . S
C2540 C2544 1.531 . S
C2541 C2540 1.369 . S
C2541 C2542 1.410 . S
C2541 C2549 1.503 . S
C2542 C2541 1.410 . S
C2542 C2543 1.392 . S
C2542 C2545 1.511 . S
C2543 C2539 1.376 . S
C2543 C2542 1.392 . S
C2543 H2555 0.929 . S
C2544 C2540 1.531 . S
C2544 H2556 0.960 . S
C2544 H2557 0.962 . S
C2544 H2558 0.960 . S
C2545 C2542 1.511 . S
C2545 H2559 0.961 . S
C2545 H2560 0.961 . S
C2545 H2561 0.961 . S
C2546 C2547 1.370 . S
C2546 C2548 1.363 . S
C2546 H2562 0.931 . S
C2547 C2546 1.370 . S
C2547 C2551 1.408 . S
C2548 C2546 1.363 . S
C2548 C2549 1.370 . S
C2548 C2552 1.524 . S
C2549 C2541 1.503 . S
C2549 C2548 1.370 . S
C2549 C2550 1.403 . S
C2550 C2549 1.403 . S
C2550 C2551 1.404 . S
C2550 C2553 1.539 . S
C2551 C2547 1.408 . S
C2551 C2550 1.404 . S
C2551 H2563 0.930 . S
C2552 C2548 1.524 . S
C2552 H2564 0.956 . S
C2552 H2565 0.961 . S
C2552 H2566 0.961 . S
C2553 C2550 1.539 . S
C2553 H2567 0.958 . S
C2553 H2568 0.961 . S
C2553 H2569 0.960 . S
H2554 C2538 0.931 . S
H2555 C2543 0.929 . S
H2556 C2544 0.960 . S
H2557 C2544 0.962 . S
H2558 C2544 0.960 . S
H2559 C2545 0.961 . S
H2560 C2545 0.961 . S
H2561 C2545 0.961 . S
H2562 C2546 0.931 . S
H2563 C2551 0.930 . S
H2564 C2552 0.956 . S
H2565 C2552 0.961 . S
H2566 C2552 0.961 . S
H2567 C2553 0.958 . S
H2568 C2553 0.961 . S
H2569 C2553 0.960 . S
C2570 C2571 1.391 . S
C2570 C2572 1.394 . S
C2570 H2586 0.931 . S
C2571 C2570 1.391 . S
C2571 C2575 1.376 . S
C2572 C2570 1.394 . S
C2572 C2573 1.369 . S
C2572 C2576 1.531 . S
C2573 C2572 1.369 . S
C2573 C2574 1.410 . S
C2573 C2581 1.503 . S
C2574 C2573 1.410 . S
C2574 C2575 1.392 . S
C2574 C2577 1.511 . S
C2575 C2571 1.376 . S
C2575 C2574 1.392 . S
C2575 H2587 0.929 . S
C2576 C2572 1.531 . S
C2576 H2588 0.960 . S
C2576 H2589 0.962 . S
C2576 H2590 0.960 . S
C2577 C2574 1.511 . S
C2577 H2591 0.961 . S
C2577 H2592 0.961 . S
C2577 H2593 0.961 . S
C2578 C2579 1.370 . S
C2578 C2580 1.363 . S
C2578 H2594 0.931 . S
C2579 C2578 1.370 . S
C2579 C2583 1.408 . S
C2580 C2578 1.363 . S
C2580 C2581 1.370 . S
C2580 C2584 1.524 . S
C2581 C2573 1.503 . S
C2581 C2580 1.370 . S
C2581 C2582 1.403 . S
C2582 C2581 1.403 . S
C2582 C2583 1.404 . S
C2582 C2585 1.539 . S
C2583 C2579 1.408 . S
C2583 C2582 1.404 . S
C2583 H2595 0.930 . S
C2584 C2580 1.524 . S
C2584 H2596 0.956 . S
C2584 H2597 0.961 . S
C2584 H2598 0.961 . S
C2585 C2582 1.539 . S
C2585 H2599 0.958 . S
C2585 H2600 0.961 . S
C2585 H2601 0.960 . S
H2586 C2570 0.931 . S
H2587 C2575 0.929 . S
H2588 C2576 0.960 . S
H2589 C2576 0.962 . S
H2590 C2576 0.960 . S
H2591 C2577 0.961 . S
H2592 C2577 0.961 . S
H2593 C2577 0.961 . S
H2594 C2578 0.931 . S
H2595 C2583 0.930 . S
H2596 C2584 0.956 . S
H2597 C2584 0.961 . S
H2598 C2584 0.961 . S
H2599 C2585 0.958 . S
H2600 C2585 0.961 . S
H2601 C2585 0.960 . S
C2602 C2603 1.391 . S
C2602 C2604 1.394 . S
C2602 H2618 0.931 . S
C2603 C2602 1.391 . S
C2603 C2607 1.376 . S
C2604 C2602 1.394 . S
C2604 C2605 1.369 . S
C2604 C2608 1.531 . S
C2605 C2604 1.369 . S
C2605 C2606 1.410 . S
C2605 C2613 1.503 . S
C2606 C2605 1.410 . S
C2606 C2607 1.392 . S
C2606 C2609 1.511 . S
C2607 C2603 1.376 . S
C2607 C2606 1.392 . S
C2607 H2619 0.929 . S
C2608 C2604 1.531 . S
C2608 H2620 0.960 . S
C2608 H2621 0.962 . S
C2608 H2622 0.960 . S
C2609 C2606 1.511 . S
C2609 H2623 0.961 . S
C2609 H2624 0.961 . S
C2609 H2625 0.961 . S
C2610 C2611 1.370 . S
C2610 C2612 1.363 . S
C2610 H2626 0.931 . S
C2611 C2610 1.370 . S
C2611 C2615 1.408 . S
C2612 C2610 1.363 . S
C2612 C2613 1.370 . S
C2612 C2616 1.524 . S
C2613 C2605 1.503 . S
C2613 C2612 1.370 . S
C2613 C2614 1.403 . S
C2614 C2613 1.403 . S
C2614 C2615 1.404 . S
C2614 C2617 1.539 . S
C2615 C2611 1.408 . S
C2615 C2614 1.404 . S
C2615 H2627 0.930 . S
C2616 C2612 1.524 . S
C2616 H2628 0.956 . S
C2616 H2629 0.961 . S
C2616 H2630 0.961 . S
C2617 C2614 1.539 . S
C2617 H2631 0.958 . S
C2617 H2632 0.961 . S
C2617 H2633 0.960 . S
H2618 C2602 0.931 . S
H2619 C2607 0.929 . S
H2620 C2608 0.960 . S
H2621 C2608 0.962 . S
H2622 C2608 0.960 . S
H2623 C2609 0.961 . S
H2624 C2609 0.961 . S
H2625 C2609 0.961 . S
H2626 C2610 0.931 . S
H2627 C2615 0.930 . S
H2628 C2616 0.956 . S
H2629 C2616 0.961 . S
H2630 C2616 0.961 . S
H2631 C2617 0.958 . S
H2632 C2617 0.961 . S
H2633 C2617 0.960 . S
C2634 C2635 1.391 . S
C2634 C2636 1.394 . S
C2634 H2650 0.931 . S
C2635 C2634 1.391 . S
C2635 C2639 1.376 . S
C2636 C2634 1.394 . S
C2636 C2637 1.369 . S
C2636 C2640 1.531 . S
C2637 C2636 1.369 . S
C2637 C2638 1.410 . S
C2637 C2645 1.503 . S
C2638 C2637 1.410 . S
C2638 C2639 1.392 . S
C2638 C2641 1.511 . S
C2639 C2635 1.376 . S
C2639 C2638 1.392 . S
C2639 H2651 0.929 . S
C2640 C2636 1.531 . S
C2640 H2652 0.960 . S
C2640 H2653 0.962 . S
C2640 H2654 0.960 . S
C2641 C2638 1.511 . S
C2641 H2655 0.961 . S
C2641 H2656 0.961 . S
C2641 H2657 0.961 . S
C2642 C2643 1.370 . S
C2642 C2644 1.363 . S
C2642 H2658 0.931 . S
C2643 C2642 1.370 . S
C2643 C2647 1.408 . S
C2644 C2642 1.363 . S
C2644 C2645 1.370 . S
C2644 C2648 1.524 . S
C2645 C2637 1.503 . S
C2645 C2644 1.370 . S
C2645 C2646 1.403 . S
C2646 C2645 1.403 . S
C2646 C2647 1.404 . S
C2646 C2649 1.539 . S
C2647 C2643 1.408 . S
C2647 C2646 1.404 . S
C2647 H2659 0.930 . S
C2648 C2644 1.524 . S
C2648 H2660 0.956 . S
C2648 H2661 0.961 . S
C2648 H2662 0.961 . S
C2649 C2646 1.539 . S
C2649 H2663 0.958 . S
C2649 H2664 0.961 . S
C2649 H2665 0.960 . S
H2650 C2634 0.931 . S
H2651 C2639 0.929 . S
H2652 C2640 0.960 . S
H2653 C2640 0.962 . S
H2654 C2640 0.960 . S
H2655 C2641 0.961 . S
H2656 C2641 0.961 . S
H2657 C2641 0.961 . S
H2658 C2642 0.931 . S
H2659 C2647 0.930 . S
H2660 C2648 0.956 . S
H2661 C2648 0.961 . S
H2662 C2648 0.961 . S
H2663 C2649 0.958 . S
H2664 C2649 0.961 . S
H2665 C2649 0.960 . S
C2666 C2667 1.391 . S
C2666 C2668 1.394 . S
C2666 H2682 0.931 . S
C2667 C2666 1.391 . S
C2667 C2671 1.376 . S
C2668 C2666 1.394 . S
C2668 C2669 1.369 . S
C2668 C2672 1.531 . S
C2669 C2668 1.369 . S
C2669 C2670 1.410 . S
C2669 C2677 1.503 . S
C2670 C2669 1.410 . S
C2670 C2671 1.392 . S
C2670 C2673 1.511 . S
C2671 C2667 1.376 . S
C2671 C2670 1.392 . S
C2671 H2683 0.929 . S
C2672 C2668 1.531 . S
C2672 H2684 0.960 . S
C2672 H2685 0.962 . S
C2672 H2686 0.960 . S
C2673 C2670 1.511 . S
C2673 H2687 0.961 . S
C2673 H2688 0.961 . S
C2673 H2689 0.961 . S
C2674 C2675 1.370 . S
C2674 C2676 1.363 . S
C2674 H2690 0.931 . S
C2675 C2674 1.370 . S
C2675 C2679 1.408 . S
C2676 C2674 1.363 . S
C2676 C2677 1.370 . S
C2676 C2680 1.524 . S
C2677 C2669 1.503 . S
C2677 C2676 1.370 . S
C2677 C2678 1.403 . S
C2678 C2677 1.403 . S
C2678 C2679 1.404 . S
C2678 C2681 1.539 . S
C2679 C2675 1.408 . S
C2679 C2678 1.404 . S
C2679 H2691 0.930 . S
C2680 C2676 1.524 . S
C2680 H2692 0.956 . S
C2680 H2693 0.961 . S
C2680 H2694 0.961 . S
C2681 C2678 1.539 . S
C2681 H2695 0.958 . S
C2681 H2696 0.961 . S
C2681 H2697 0.960 . S
H2682 C2666 0.931 . S
H2683 C2671 0.929 . S
H2684 C2672 0.960 . S
H2685 C2672 0.962 . S
H2686 C2672 0.960 . S
H2687 C2673 0.961 . S
H2688 C2673 0.961 . S
H2689 C2673 0.961 . S
H2690 C2674 0.931 . S
H2691 C2679 0.930 . S
H2692 C2680 0.956 . S
H2693 C2680 0.961 . S
H2694 C2680 0.961 . S
H2695 C2681 0.958 . S
H2696 C2681 0.961 . S
H2697 C2681 0.960 . S
C2698 C2699 1.391 . S
C2698 C2700 1.394 . S
C2698 H2714 0.931 . S
C2699 C2698 1.391 . S
C2699 C2703 1.376 . S
C2700 C2698 1.394 . S
C2700 C2701 1.369 . S
C2700 C2704 1.531 . S
C2701 C2700 1.369 . S
C2701 C2702 1.410 . S
C2701 C2709 1.503 . S
C2702 C2701 1.410 . S
C2702 C2703 1.392 . S
C2702 C2705 1.511 . S
C2703 C2699 1.376 . S
C2703 C2702 1.392 . S
C2703 H2715 0.929 . S
C2704 C2700 1.531 . S
C2704 H2716 0.960 . S
C2704 H2717 0.962 . S
C2704 H2718 0.960 . S
C2705 C2702 1.511 . S
C2705 H2719 0.961 . S
C2705 H2720 0.961 . S
C2705 H2721 0.961 . S
C2706 C2707 1.370 . S
C2706 C2708 1.363 . S
C2706 H2722 0.931 . S
C2707 C2706 1.370 . S
C2707 C2711 1.408 . S
C2708 C2706 1.363 . S
C2708 C2709 1.370 . S
C2708 C2712 1.524 . S
C2709 C2701 1.503 . S
C2709 C2708 1.370 . S
C2709 C2710 1.403 . S
C2710 C2709 1.403 . S
C2710 C2711 1.404 . S
C2710 C2713 1.539 . S
C2711 C2707 1.408 . S
C2711 C2710 1.404 . S
C2711 H2723 0.930 . S
C2712 C2708 1.524 . S
C2712 H2724 0.956 . S
C2712 H2725 0.961 . S
C2712 H2726 0.961 . S
C2713 C2710 1.539 . S
C2713 H2727 0.958 . S
C2713 H2728 0.961 . S
C2713 H2729 0.960 . S
H2714 C2698 0.931 . S
H2715 C2703 0.929 . S
H2716 C2704 0.960 . S
H2717 C2704 0.962 . S
H2718 C2704 0.960 . S
H2719 C2705 0.961 . S
H2720 C2705 0.961 . S
H2721 C2705 0.961 . S
H2722 C2706 0.931 . S
H2723 C2711 0.930 . S
H2724 C2712 0.956 . S
H2725 C2712 0.961 . S
H2726 C2712 0.961 . S
H2727 C2713 0.958 . S
H2728 C2713 0.961 . S
H2729 C2713 0.960 . S
C2730 C2731 1.391 . S
C2730 C2732 1.394 . S
C2730 H2746 0.931 . S
C2731 C2730 1.391 . S
C2731 C2735 1.376 . S
C2732 C2730 1.394 . S
C2732 C2733 1.369 . S
C2732 C2736 1.531 . S
C2733 C2732 1.369 . S
C2733 C2734 1.410 . S
C2733 C2741 1.503 . S
C2734 C2733 1.410 . S
C2734 C2735 1.392 . S
C2734 C2737 1.511 . S
C2735 C2731 1.376 . S
C2735 C2734 1.392 . S
C2735 H2747 0.929 . S
C2736 C2732 1.531 . S
C2736 H2748 0.960 . S
C2736 H2749 0.962 . S
C2736 H2750 0.960 . S
C2737 C2734 1.511 . S
C2737 H2751 0.961 . S
C2737 H2752 0.961 . S
C2737 H2753 0.961 . S
C2738 C2739 1.370 . S
C2738 C2740 1.363 . S
C2738 H2754 0.931 . S
C2739 C2738 1.370 . S
C2739 C2743 1.408 . S
C2740 C2738 1.363 . S
C2740 C2741 1.370 . S
C2740 C2744 1.524 . S
C2741 C2733 1.503 . S
C2741 C2740 1.370 . S
C2741 C2742 1.403 . S
C2742 C2741 1.403 . S
C2742 C2743 1.404 . S
C2742 C2745 1.539 . S
C2743 C2739 1.408 . S
C2743 C2742 1.404 . S
C2743 H2755 0.930 . S
C2744 C2740 1.524 . S
C2744 H2756 0.956 . S
C2744 H2757 0.961 . S
C2744 H2758 0.961 . S
C2745 C2742 1.539 . S
C2745 H2759 0.958 . S
C2745 H2760 0.961 . S
C2745 H2761 0.960 . S
H2746 C2730 0.931 . S
H2747 C2735 0.929 . S
H2748 C2736 0.960 . S
H2749 C2736 0.962 . S
H2750 C2736 0.960 . S
H2751 C2737 0.961 . S
H2752 C2737 0.961 . S
H2753 C2737 0.961 . S
H2754 C2738 0.931 . S
H2755 C2743 0.930 . S
H2756 C2744 0.956 . S
H2757 C2744 0.961 . S
H2758 C2744 0.961 . S
H2759 C2745 0.958 . S
H2760 C2745 0.961 . S
H2761 C2745 0.960 . S
C2762 C2763 1.391 . S
C2762 C2764 1.394 . S
C2762 H2778 0.931 . S
C2763 C2762 1.391 . S
C2763 C2767 1.376 . S
C2764 C2762 1.394 . S
C2764 C2765 1.369 . S
C2764 C2768 1.531 . S
C2765 C2764 1.369 . S
C2765 C2766 1.410 . S
C2765 C2773 1.503 . S
C2766 C2765 1.410 . S
C2766 C2767 1.392 . S
C2766 C2769 1.511 . S
C2767 C2763 1.376 . S
C2767 C2766 1.392 . S
C2767 H2779 0.929 . S
C2768 C2764 1.531 . S
C2768 H2780 0.960 . S
C2768 H2781 0.962 . S
C2768 H2782 0.960 . S
C2769 C2766 1.511 . S
C2769 H2783 0.961 . S
C2769 H2784 0.961 . S
C2769 H2785 0.961 . S
C2770 C2771 1.370 . S
C2770 C2772 1.363 . S
C2770 H2786 0.931 . S
C2771 C2770 1.370 . S
C2771 C2775 1.408 . S
C2772 C2770 1.363 . S
C2772 C2773 1.370 . S
C2772 C2776 1.524 . S
C2773 C2765 1.503 . S
C2773 C2772 1.370 . S
C2773 C2774 1.403 . S
C2774 C2773 1.403 . S
C2774 C2775 1.404 . S
C2774 C2777 1.539 . S
C2775 C2771 1.408 . S
C2775 C2774 1.404 . S
C2775 H2787 0.930 . S
C2776 C2772 1.524 . S
C2776 H2788 0.956 . S
C2776 H2789 0.961 . S
C2776 H2790 0.961 . S
C2777 C2774 1.539 . S
C2777 H2791 0.958 . S
C2777 H2792 0.961 . S
C2777 H2793 0.960 . S
H2778 C2762 0.931 . S
H2779 C2767 0.929 . S
H2780 C2768 0.960 . S
H2781 C2768 0.962 . S
H2782 C2768 0.960 . S
H2783 C2769 0.961 . S
H2784 C2769 0.961 . S
H2785 C2769 0.961 . S
H2786 C2770 0.931 . S
H2787 C2775 0.930 . S
H2788 C2776 0.956 . S
H2789 C2776 0.961 . S
H2790 C2776 0.961 . S
H2791 C2777 0.958 . S
H2792 C2777 0.961 . S
H2793 C2777 0.960 . S
C2794 C2795 1.391 . S
C2794 C2796 1.394 . S
C2794 H2810 0.931 . S
C2795 C2794 1.391 . S
C2795 C2799 1.376 . S
C2796 C2794 1.394 . S
C2796 C2797 1.369 . S
C2796 C2800 1.531 . S
C2797 C2796 1.369 . S
C2797 C2798 1.410 . S
C2797 C2805 1.503 . S
C2798 C2797 1.410 . S
C2798 C2799 1.392 . S
C2798 C2801 1.511 . S
C2799 C2795 1.376 . S
C2799 C2798 1.392 . S
C2799 H2811 0.929 . S
C2800 C2796 1.531 . S
C2800 H2812 0.960 . S
C2800 H2813 0.962 . S
C2800 H2814 0.960 . S
C2801 C2798 1.511 . S
C2801 H2815 0.961 . S
C2801 H2816 0.961 . S
C2801 H2817 0.961 . S
C2802 C2803 1.370 . S
C2802 C2804 1.363 . S
C2802 H2818 0.931 . S
C2803 C2802 1.370 . S
C2803 C2807 1.408 . S
C2804 C2802 1.363 . S
C2804 C2805 1.370 . S
C2804 C2808 1.524 . S
C2805 C2797 1.503 . S
C2805 C2804 1.370 . S
C2805 C2806 1.403 . S
C2806 C2805 1.403 . S
C2806 C2807 1.404 . S
C2806 C2809 1.539 . S
C2807 C2803 1.408 . S
C2807 C2806 1.404 . S
C2807 H2819 0.930 . S
C2808 C2804 1.524 . S
C2808 H2820 0.956 . S
C2808 H2821 0.961 . S
C2808 H2822 0.961 . S
C2809 C2806 1.539 . S
C2809 H2823 0.958 . S
C2809 H2824 0.961 . S
C2809 H2825 0.960 . S
H2810 C2794 0.931 . S
H2811 C2799 0.929 . S
H2812 C2800 0.960 . S
H2813 C2800 0.962 . S
H2814 C2800 0.960 . S
H2815 C2801 0.961 . S
H2816 C2801 0.961 . S
H2817 C2801 0.961 . S
H2818 C2802 0.931 . S
H2819 C2807 0.930 . S
H2820 C2808 0.956 . S
H2821 C2808 0.961 . S
H2822 C2808 0.961 . S
H2823 C2809 0.958 . S
H2824 C2809 0.961 . S
H2825 C2809 0.960 . S
C1099 C253 1.474 . S
C1107 C409 1.423 . S
C1131 C272 1.507 . S
C1139 C493 1.457 . S
C1163 C234 1.462 . S
C1171 C573 1.456 . S
C1195 C215 1.442 . S
C1203 C489 1.453 1_556 S
C1235 C577 1.403 . S
C1227 C177 1.465 . S
C1259 C196 1.425 . S
C1267 C405 1.418 1_556 S
C1299 C398 1.474 . S
C1291 C220 1.486 . S
C1331 C482 1.523 . S
C1323 C182 1.477 . S
C1355 C201 1.449 . S
C1363 C584 1.524 . S
C1387 C258 1.473 . S
C1395 C500 1.484 . S
C1419 C277 1.472 . S
C1427 C566 1.447 . S
C1459 C416 1.460 . S
C1451 C239 1.462 . S
C1491 C661 1.396 . S
C1483 C25 1.452 . S
C1515 C44 1.481 . S
C1523 C745 1.429 . S
C1547 C6 1.439 . S
C1555 C825 1.458 . S
C1579 C329 1.440 . S
C1587 C741 1.447 . S
C1611 C291 1.463 . S
C1619 C829 1.413 . S
C1643 C310 1.424 . S
C1651 C657 1.418 . S
C1675 C334 1.437 . S
C1683 C650 1.502 . S
C1707 C296 1.506 . S
C1715 C734 1.498 . S
C1747 C836 1.529 . S
C1739 C315 1.445 . S
C1771 C30 1.482 1_565 S
C1779 C752 1.479 . S
C1811 C818 1.460 . S
C1803 C49 1.464 1_455 S
C1835 C11 1.448 . S
C1843 C668 1.467 . S
C1875 C913 1.420 . S
C1867 C139 1.469 . S
C1899 C158 1.492 . S
C1907 C997 1.435 . S
C1939 C1077 1.464 . S
C1931 C120 1.440 . S
C1971 C993 1.452 . S
C1963 C101 1.424 . S
C2003 C1081 1.412 . S
C1995 C63 1.468 . S
C2027 C82 1.396 . S
C2035 C909 1.423 . S
C2059 C106 1.474 1_655 S
C2067 C902 1.475 . S
C2091 C68 1.485 . S
C2099 C986 1.521 . S
C2131 C1088 1.512 . S
C2123 C87 1.472 1_545 S
C2155 C144 1.418 . S
C2163 C1004 1.490 . S
C2187 C163 1.434 . S
C2195 C1070 1.471 . S
C2219 C125 1.464 . S
C2227 C920 1.459 . S
C2251 C287 1.628 . S
C2259 C412 1.537 . S
C2291 C496 1.561 . S
C2283 C306 1.711 . S
C2315 C325 1.672 . S
C2323 C568 1.441 . S
C2347 C116 1.697 . S
C2355 C484 1.460 . S
C2379 C135 1.682 . S
C2387 C580 1.558 . S
C2419 C400 1.445 . S
C2411 C154 1.611 . S
C2443 C59 1.643 . S
C2451 C664 1.550 . S
C2475 C78 1.730 . S
C2483 C748 1.597 . S
C2507 C97 1.667 . S
C2515 C820 1.467 . S
C2539 C230 1.693 . S
C2547 C736 1.446 . S
C2579 C832 1.526 . S
C2571 C249 1.679 . S
C2603 C268 1.623 . S
C2611 C652 1.407 . S
C2635 C173 1.644 . S
C2643 C916 1.550 . S
C2667 C192 1.712 . S
C2675 C1000 1.561 . S
C2707 C1072 1.433 . S
C2699 C211 1.663 . S
C2731 C2 1.697 . S
C2739 C988 1.461 . S
C2763 C21 1.671 . S
C2771 C1084 1.558 . S
C2795 C40 1.586 . S
C2803 C904 1.438 . S
