# Generated by pormake.
# Topology sqc, (4,8)-cn, num edge types: 1
# Building blocks:
#     Node 0, Type 0, BuildingBlock: MUDLON_clean_linker_0, # of connection points: 4
#     Node 1, Type 0, BuildingBlock: MUDLON_clean_linker_0, # of connection points: 4
#     Node 2, Type 0, BuildingBlock: MUDLON_clean_linker_0, # of connection points: 4
#     Node 3, Type 0, BuildingBlock: MUDLON_clean_linker_0, # of connection points: 4
#     Node 4, Type 0, BuildingBlock: MUDLON_clean_linker_0, # of connection points: 4
#     Node 5, Type 0, BuildingBlock: MUDLON_clean_linker_0, # of connection points: 4
#     Node 6, Type 0, BuildingBlock: MUDLON_clean_linker_0, # of connection points: 4
#     Node 7, Type 0, BuildingBlock: MUDLON_clean_linker_0, # of connection points: 4
#     Node 8, Type 1, BuildingBlock: TAGTUT_clean_sbu_3, # of connection points: 8
#     Node 9, Type 1, BuildingBlock: TAGTUT_clean_sbu_3, # of connection points: 8
#     Node 10, Type 1, BuildingBlock: TAGTUT_clean_sbu_3, # of connection points: 8
#     Node 11, Type 1, BuildingBlock: TAGTUT_clean_sbu_3, # of connection points: 8
#     Edge 12, Type (0, 1), BuildingBlock: XIVTED_clean_linker_0, # of connection points: 2
#     Edge 13, Type (0, 1), BuildingBlock: XIVTED_clean_linker_0, # of connection points: 2
#     Edge 14, Type (0, 1), BuildingBlock: XIVTED_clean_linker_0, # of connection points: 2
#     Edge 15, Type (0, 1), BuildingBlock: XIVTED_clean_linker_0, # of connection points: 2
#     Edge 16, Type (0, 1), BuildingBlock: XIVTED_clean_linker_0, # of connection points: 2
#     Edge 17, Type (0, 1), BuildingBlock: XIVTED_clean_linker_0, # of connection points: 2
#     Edge 18, Type (0, 1), BuildingBlock: XIVTED_clean_linker_0, # of connection points: 2
#     Edge 19, Type (0, 1), BuildingBlock: XIVTED_clean_linker_0, # of connection points: 2
#     Edge 20, Type (0, 1), BuildingBlock: XIVTED_clean_linker_0, # of connection points: 2
#     Edge 21, Type (0, 1), BuildingBlock: XIVTED_clean_linker_0, # of connection points: 2
#     Edge 22, Type (0, 1), BuildingBlock: XIVTED_clean_linker_0, # of connection points: 2
#     Edge 23, Type (0, 1), BuildingBlock: XIVTED_clean_linker_0, # of connection points: 2
#     Edge 24, Type (0, 1), BuildingBlock: XIVTED_clean_linker_0, # of connection points: 2
#     Edge 25, Type (0, 1), BuildingBlock: XIVTED_clean_linker_0, # of connection points: 2
#     Edge 26, Type (0, 1), BuildingBlock: XIVTED_clean_linker_0, # of connection points: 2
#     Edge 27, Type (0, 1), BuildingBlock: XIVTED_clean_linker_0, # of connection points: 2
#     Edge 28, Type (0, 1), BuildingBlock: XIVTED_clean_linker_0, # of connection points: 2
#     Edge 29, Type (0, 1), BuildingBlock: XIVTED_clean_linker_0, # of connection points: 2
#     Edge 30, Type (0, 1), BuildingBlock: XIVTED_clean_linker_0, # of connection points: 2
#     Edge 31, Type (0, 1), BuildingBlock: XIVTED_clean_linker_0, # of connection points: 2
#     Edge 32, Type (0, 1), BuildingBlock: XIVTED_clean_linker_0, # of connection points: 2
#     Edge 33, Type (0, 1), BuildingBlock: XIVTED_clean_linker_0, # of connection points: 2
#     Edge 34, Type (0, 1), BuildingBlock: XIVTED_clean_linker_0, # of connection points: 2
#     Edge 35, Type (0, 1), BuildingBlock: XIVTED_clean_linker_0, # of connection points: 2
#     Edge 36, Type (0, 1), BuildingBlock: XIVTED_clean_linker_0, # of connection points: 2
#     Edge 37, Type (0, 1), BuildingBlock: XIVTED_clean_linker_0, # of connection points: 2
#     Edge 38, Type (0, 1), BuildingBlock: XIVTED_clean_linker_0, # of connection points: 2
#     Edge 39, Type (0, 1), BuildingBlock: XIVTED_clean_linker_0, # of connection points: 2
#     Edge 40, Type (0, 1), BuildingBlock: XIVTED_clean_linker_0, # of connection points: 2
#     Edge 41, Type (0, 1), BuildingBlock: XIVTED_clean_linker_0, # of connection points: 2
#     Edge 42, Type (0, 1), BuildingBlock: XIVTED_clean_linker_0, # of connection points: 2
#     Edge 43, Type (0, 1), BuildingBlock: XIVTED_clean_linker_0, # of connection points: 2
# Relax obj value: 0.179
# Max RMSD: 0.279
# Mean RMSD: 0.216
data_MOF--net-sqc--node1-TAGTUT_clean_sbu_3--node2-MUDLON_clean_linker_0--edge1-XIVTED_clean_linker_0
_symmetry_space_group_name_H-M    P1
_symmetry_Int_Tables_number       1
_symmetry_cell_setting            triclinic
loop_
_symmetry_equiv_pos_as_xyz
'x, y, z'
_cell_length_a     31.87829
_cell_length_b     31.879729
_cell_length_c     90.73614
_cell_angle_alpha  90.642395
_cell_angle_beta   89.897863
_cell_angle_gamma 89.885643
loop_
_atom_site_label
_atom_site_type_symbol
_atom_site_fract_x
_atom_site_fract_y
_atom_site_fract_z
_atom_type_partial_charge
H0 H 0.86102 0.90436 0.55623 0.0
N1 N 0.89497 0.92667 0.5308 0.0
H2 H 0.81192 0.94508 0.5715 0.0
H3 H 0.87402 0.00924 0.52701 0.0
H4 H 0.82657 0.05046 0.54237 0.0
H5 H 0.89846 0.97237 0.50541 0.0
H6 H 0.85277 0.96346 0.48406 0.0
H7 H 0.84408 0.86305 0.52529 0.0
H8 H 0.79918 0.85286 0.50374 0.0
H9 H 0.94763 0.86531 0.53705 0.0
H10 H 0.94411 0.99553 0.52485 0.0
H11 H 0.02416 0.86839 0.53857 0.0
H12 H 0.02033 0.99921 0.52665 0.0
H13 H 0.26795 0.92242 0.55828 0.0
H14 H 0.31344 0.97528 0.56964 0.0
H15 H 0.24059 0.07332 0.54943 0.0
H16 H 0.19525 0.02024 0.53803 0.0
H17 H 0.24552 0.98432 0.51804 0.0
H18 H 0.29394 0.96122 0.49914 0.0
H19 H 0.26695 0.83188 0.50979 0.0
H20 H 0.22166 0.85605 0.52989 0.0
H21 H 0.15281 0.90009 0.55668 0.0
H22 H 0.07636 0.89966 0.55452 0.0
H23 H 0.08543 0.97413 0.51513 0.0
N24 N 0.2079 0.93481 0.53873 0.0
H25 H 0.16197 0.97513 0.51763 0.0
C26 C 0.8716 0.95372 0.54062 0.0
C27 C 0.85411 0.93652 0.55335 0.0
C28 C 0.82605 0.95981 0.56201 0.0
C29 C 0.81502 0.00091 0.55807 0.0
C30 C 0.83378 0.01862 0.54556 0.0
C31 C 0.86163 0.99524 0.53688 0.0
C32 C 0.87458 0.91824 0.51696 0.0
C33 C 0.87733 0.94593 0.50506 0.0
C34 C 0.85111 0.94077 0.49283 0.0
C35 C 0.8218 0.90782 0.49229 0.0
C36 C 0.82062 0.87917 0.50395 0.0
C37 C 0.84668 0.88447 0.51615 0.0
C38 C 0.94002 0.92999 0.53093 0.0
C39 C 0.96343 0.89454 0.5347 0.0
C40 C 0.00708 0.8965 0.53566 0.0
C41 C 0.02838 0.9342 0.53288 0.0
C42 C 0.00494 0.96963 0.52877 0.0
C43 C 0.96114 0.96759 0.52781 0.0
C44 C 0.22823 0.96715 0.54736 0.0
C45 C 0.26122 0.95533 0.5566 0.0
C46 C 0.28737 0.98551 0.56293 0.0
C47 C 0.28088 0.02832 0.5602 0.0
C48 C 0.24623 0.04051 0.5517 0.0
C49 C 0.22019 0.01014 0.54524 0.0
C50 C 0.23075 0.92182 0.5257 0.0
C51 C 0.25006 0.95099 0.51638 0.0
C52 C 0.27759 0.93749 0.50533 0.0
C53 C 0.28529 0.8944 0.50289 0.0
C54 C 0.2633 0.8653 0.51156 0.0
C55 C 0.23676 0.87895 0.52294 0.0
C56 C 0.16297 0.93732 0.53733 0.0
C57 C 0.13817 0.91651 0.54765 0.0
C58 C 0.09457 0.91604 0.54631 0.0
C59 C 0.07476 0.93644 0.53454 0.0
C60 C 0.09967 0.95828 0.52436 0.0
C61 C 0.14343 0.95873 0.52573 0.0
H62 H 0.30985 0.55881 0.78937 0.0
N63 N 0.30578 0.55314 0.75875 0.0
H64 H 0.28914 0.50563 0.80655 0.0
H65 H 0.26752 0.48099 0.7531 0.0
H66 H 0.24812 0.42626 0.77045 0.0
H67 H 0.3145 0.54936 0.7297 0.0
H68 H 0.37278 0.51877 0.71568 0.0
H69 H 0.37937 0.52399 0.77028 0.0
H70 H 0.43829 0.49424 0.75638 0.0
H71 H 0.36161 0.59493 0.77653 0.0
H72 H 0.25475 0.6112 0.74817 0.0
H73 H 0.36547 0.67001 0.78059 0.0
H74 H 0.2607 0.68718 0.75093 0.0
H75 H 0.32316 0.87585 0.79977 0.0
H76 H 0.2698 0.92048 0.81156 0.0
H77 H 0.2211 0.9527 0.76879 0.0
H78 H 0.27347 0.90696 0.75707 0.0
H79 H 0.32129 0.85092 0.74169 0.0
H80 H 0.35411 0.88834 0.72121 0.0
H81 H 0.4291 0.95916 0.75223 0.0
H82 H 0.39684 0.92106 0.77264 0.0
H83 H 0.39512 0.80529 0.77235 0.0
H84 H 0.38681 0.72982 0.76957 0.0
H85 H 0.25265 0.74671 0.76497 0.0
N86 N 0.33647 0.86408 0.77113 0.0
H87 H 0.26203 0.82221 0.76632 0.0
C88 C 0.29037 0.52424 0.76969 0.0
C89 C 0.29626 0.53045 0.78494 0.0
C90 C 0.28467 0.49945 0.7949 0.0
C91 C 0.26751 0.46122 0.78992 0.0
C92 C 0.26091 0.45537 0.77473 0.0
C93 C 0.27201 0.48662 0.76478 0.0
C94 C 0.3424 0.53846 0.75094 0.0
C95 C 0.34174 0.53785 0.73553 0.0
C96 C 0.37525 0.52079 0.72757 0.0
C97 C 0.41014 0.50402 0.73494 0.0
C98 C 0.41167 0.50656 0.75041 0.0
C99 C 0.37809 0.52366 0.75836 0.0
C100 C 0.30701 0.59729 0.76233 0.0
C101 C 0.33865 0.61469 0.77125 0.0
C102 C 0.34132 0.65801 0.77333 0.0
C103 C 0.31369 0.68522 0.76599 0.0
C104 C 0.28207 0.66757 0.75705 0.0
C105 C 0.27865 0.62408 0.75537 0.0
C106 C 0.30294 0.88865 0.7776 0.0
C107 C 0.30064 0.89216 0.79297 0.0
C108 C 0.27011 0.91743 0.79966 0.0
C109 C 0.24155 0.94008 0.79104 0.0
C110 C 0.24302 0.93576 0.77564 0.0
C111 C 0.27307 0.90978 0.76896 0.0
C112 C 0.35693 0.8832 0.75871 0.0
C113 C 0.3454 0.87387 0.74406 0.0
C114 C 0.36419 0.89512 0.73238 0.0
C115 C 0.39408 0.92647 0.7352 0.0
C116 C 0.40606 0.93512 0.7498 0.0
C117 C 0.38777 0.91349 0.76143 0.0
C118 C 0.32942 0.81949 0.76977 0.0
C119 C 0.36399 0.79254 0.77069 0.0
C120 C 0.35897 0.74926 0.76928 0.0
C121 C 0.31887 0.73164 0.76727 0.0
C122 C 0.28411 0.75884 0.76632 0.0
C123 C 0.28937 0.8023 0.76731 0.0
H124 H 0.8099 0.08524 0.05245 0.0
N125 N 0.76201 0.06096 0.03007 0.0
H126 H 0.85165 0.04148 0.06882 0.0
H127 H 0.76422 0.97374 0.03036 0.0
H128 H 0.8037 0.93042 0.04695 0.0
H129 H 0.81626 0.01716 0.01215 0.0
H130 H 0.85646 0.04508 0.99168 0.0
H131 H 0.76543 0.14018 0.02131 0.0
H132 H 0.80521 0.16848 0.0005 0.0
H133 H 0.68967 0.09006 0.04062 0.0
H134 H 0.74117 0.0039 0.00843 0.0
H135 H 0.61889 0.06938 0.03341 0.0
H136 H 0.67167 0.97968 0.00227 0.0
H137 H 0.41465 0.99273 0.01884 0.0
H138 H 0.37759 0.97292 0.04101 0.0
H139 H 0.45107 0.85893 0.04305 0.0
H140 H 0.48647 0.87804 0.02015 0.0
H141 H 0.44064 0.90638 0.98302 0.0
H142 H 0.39852 0.93507 0.96293 0.0
H143 H 0.41775 0.06013 0.98051 0.0
H144 H 0.46027 0.0312 0.00036 0.0
H145 H 0.50194 0.99009 0.0305 0.0
H146 H 0.57005 0.01881 0.03566 0.0
H147 H 0.60963 0.98884 0.99109 0.0
N148 N 0.47758 0.94822 0.00491 0.0
H149 H 0.54231 0.95549 0.98653 0.0
C150 C 0.78346 0.03341 0.04017 0.0
C151 C 0.80823 0.05143 0.05129 0.0
C152 C 0.83188 0.02629 0.06069 0.0
C153 C 0.83105 0.98228 0.05924 0.0
C154 C 0.80565 0.96416 0.04827 0.0
C155 C 0.78242 0.98931 0.03878 0.0
C156 C 0.78783 0.07675 0.01832 0.0
C157 C 0.8138 0.05025 0.0098 0.0
C158 C 0.83655 0.06624 -0.00201 0.0
C159 C 0.83372 0.10895 0.99439 0.0
C160 C 0.80829 0.13552 0.00306 0.0
C161 C 0.7855 0.11945 0.0149 0.0
C162 C 0.72074 0.04799 0.02538 0.0
C163 C 0.68563 0.06622 0.03215 0.0
C164 C 0.64517 0.05394 0.02808 0.0
C165 C 0.63899 0.02219 0.01735 0.0
C166 C 0.67452 0.00465 0.01037 0.0
C167 C 0.71476 0.01803 0.01409 0.0
C168 C 0.45295 0.93631 0.01758 0.0
C169 C 0.42226 0.96301 0.02379 0.0
C170 C 0.4015 0.95194 0.03672 0.0
C171 C 0.41146 0.91442 0.04396 0.0
C172 C 0.44207 0.88775 0.0377 0.0
C173 C 0.46243 0.89859 0.02463 0.0
C174 C 0.45353 0.9665 0.99313 0.0
C175 C 0.43582 0.93996 0.98245 0.0
C176 C 0.41169 0.95641 0.97104 0.0
C177 C 0.40479 -0.00011 0.97013 0.0
C178 C 0.42298 0.02657 0.98078 0.0
C179 C 0.44708 0.01007 0.99218 0.0
C180 C 0.51679 0.96946 0.00809 0.0
C181 C 0.52509 0.98904 0.02179 0.0
C182 C 0.5644 0.00637 0.02471 0.0
C183 C 0.59609 0.00612 0.01388 0.0
C184 C 0.58687 0.98856 -6e-05 0.0
C185 C 0.54807 0.96985 -0.00279 0.0
H186 H 0.27457 0.46034 0.30134 0.0
N187 N 0.29146 0.44173 0.27344 0.0
H188 H 0.31965 0.49597 0.31916 0.0
H189 H 0.37294 0.46599 0.26881 0.0
H190 H 0.41947 0.49844 0.28677 0.0
H191 H 0.33268 0.44407 0.24687 0.0
H192 H 0.31696 0.49069 0.22641 0.0
H193 H 0.23037 0.4978 0.27185 0.0
H194 H 0.21399 0.54428 0.25135 0.0
H195 H 0.22965 0.38664 0.27611 0.0
H196 H 0.36089 0.39583 0.26511 0.0
H197 H 0.23345 0.31019 0.27318 0.0
H198 H 0.36542 0.32022 0.26275 0.0
H199 H 0.28155 0.08539 0.28739 0.0
H200 H 0.30507 0.05456 0.31012 0.0
H201 H 0.42405 0.11861 0.30575 0.0
H202 H 0.40133 0.14601 0.28207 0.0
H203 H 0.3624 0.07373 0.25042 0.0
H204 H 0.32558 0.01983 0.23612 0.0
H205 H 0.20695 0.06874 0.25196 0.0
H206 H 0.24418 0.1232 0.26584 0.0
H207 H 0.27392 0.17494 0.28563 0.0
H208 H 0.26222 0.25074 0.28556 0.0
H209 H 0.34552 0.26151 0.24812 0.0
N210 N 0.32943 0.13153 0.26817 0.0
H211 H 0.35836 0.1859 0.24877 0.0
C212 C 0.32035 0.46003 0.28385 0.0
C213 C 0.30629 0.46844 0.29818 0.0
C214 C 0.33238 0.48848 0.30838 0.0
C215 C 0.37356 0.50002 0.30451 0.0
C216 C 0.38788 0.49065 0.29015 0.0
C217 C 0.3614 0.47138 0.27988 0.0
C218 C 0.28228 0.46724 0.26086 0.0
C219 C 0.30666 0.46567 0.24793 0.0
C220 C 0.29764 0.49239 0.23623 0.0
C221 C 0.26434 0.52132 0.23728 0.0
C222 C 0.24026 0.52286 0.25027 0.0
C223 C 0.24921 0.49607 0.26191 0.0
C224 C 0.29484 0.39709 0.27097 0.0
C225 C 0.25922 0.37217 0.27306 0.0
C226 C 0.26155 0.32853 0.27147 0.0
C227 C 0.29978 0.30894 0.26777 0.0
C228 C 0.33529 0.33416 0.26539 0.0
C229 C 0.33283 0.37771 0.2669 0.0
C230 C 0.34038 0.11689 0.28267 0.0
C231 C 0.31286 0.09257 0.29117 0.0
C232 C 0.32624 0.0754 0.30445 0.0
C233 C 0.36693 0.0833 0.30982 0.0
C234 C 0.3931 0.11039 0.3018 0.0
C235 C 0.38009 0.1265 0.28831 0.0
C236 C 0.30616 0.10253 0.25907 0.0
C237 C 0.32844 0.07298 0.25063 0.0
C238 C 0.30732 0.04193 0.24264 0.0
C239 C 0.26327 0.03962 0.24301 0.0
C240 C 0.24085 0.06979 0.25132 0.0
C241 C 0.26208 0.10103 0.25925 0.0
C242 C 0.31762 0.17505 0.26732 0.0
C243 C 0.28938 0.19366 0.27736 0.0
C244 C 0.28252 0.237 0.27723 0.0
C245 C 0.30338 0.26241 0.26695 0.0
C246 C 0.32974 0.24313 0.25642 0.0
C247 C 0.33685 0.19994 0.25666 0.0
H248 H 0.91591 0.01359 0.30089 0.0
N249 N 0.89309 0.06542 0.27958 0.0
H250 H 0.87075 0.96805 0.31568 0.0
H251 H 0.80695 0.05922 0.27789 0.0
H252 H 0.7625 0.01358 0.29209 0.0
H253 H 0.84619 0.02914 0.25754 0.0
H254 H 0.8727 0.99329 0.23573 0.0
H255 H 0.9726 0.05723 0.27123 0.0
H256 H -0.00028 0.02237 0.24894 0.0
H257 H 0.92947 0.12707 0.29461 0.0
H258 H 0.83581 0.10344 0.26139 0.0
H259 H 0.91805 0.20232 0.29227 0.0
H260 H 0.82087 0.17776 0.26003 0.0
H261 H 0.88399 0.4491 0.27863 0.0
H262 H 0.84096 0.49995 0.29181 0.0
H263 H 0.73624 0.41368 0.29016 0.0
H264 H 0.77914 0.3645 0.27569 0.0
H265 H 0.80099 0.39291 0.24724 0.0
H266 H 0.81218 0.42482 0.22308 0.0
H267 H 0.94607 0.42249 0.2305 0.0
H268 H 0.93443 0.39059 0.25457 0.0
H269 H 0.87589 0.3355 0.29269 0.0
H270 H 0.87758 0.26011 0.29673 0.0
H271 H 0.84473 0.23901 0.25097 0.0
N272 N 0.86139 0.37555 0.26757 0.0
H273 H 0.83915 0.31361 0.24748 0.0
C274 C 0.86514 0.04038 0.2884 0.0
C275 C 0.88235 0.01389 0.29906 0.0
C276 C 0.85659 0.9876 0.30736 0.0
C277 C 0.81297 0.9873 0.30511 0.0
C278 C 0.79586 0.01357 0.29432 0.0
C279 C 0.82153 0.03988 0.28611 0.0
C280 C 0.90757 0.04558 0.26616 0.0
C281 C 0.87971 0.02798 0.25582 0.0
C282 C 0.89499 0.00772 0.2432 0.0
C283 C 0.9384 0.00493 0.24054 0.0
C284 C 0.96614 0.02342 0.25074 0.0
C285 C 0.95077 0.0435 0.26342 0.0
C286 C 0.88322 0.10945 0.27843 0.0
C287 C 0.90568 0.13816 0.28708 0.0
C288 C 0.89866 0.18126 0.28581 0.0
C289 C 0.86819 0.19671 0.276 0.0
C290 C 0.84509 0.16756 0.26753 0.0
C291 C 0.85306 0.12458 0.26851 0.0
C292 C 0.83516 0.40283 0.27644 0.0
C293 C 0.85179 0.44118 0.28121 0.0
C294 C 0.82702 0.4701 0.28887 0.0
C295 C 0.78498 0.46096 0.2924 0.0
C296 C 0.76824 0.42221 0.2876 0.0
C297 C 0.79293 0.39365 0.27951 0.0
C298 C 0.86706 0.38989 0.25269 0.0
C299 C 0.8327 0.39894 0.24355 0.0
C300 C 0.83914 0.41718 0.22979 0.0
C301 C 0.87999 0.42632 0.22492 0.0
C302 C 0.91426 0.4154 0.23384 0.0
C303 C 0.90776 0.39741 0.24761 0.0
C304 C 0.85771 0.33079 0.26982 0.0
C305 C 0.86812 0.31449 0.28364 0.0
C306 C 0.86969 0.2712 0.28585 0.0
C307 C 0.86205 0.24289 0.27413 0.0
C308 C 0.85031 0.25934 0.26039 0.0
C309 C 0.84756 0.30261 0.25831 0.0
H310 H 0.778 0.95214 0.80532 0.0
N311 N 0.78186 0.94492 0.77618 0.0
H312 H 0.83022 0.98429 0.82169 0.0
H313 H 0.86168 0.96698 0.76838 0.0
H314 H 0.91364 5e-05 0.78462 0.0
H315 H 0.80379 0.931 0.7472 0.0
H316 H 0.79319 0.97916 0.72687 0.0
H317 H 0.74637 0.01996 0.77715 0.0
H318 H 0.73863 0.06981 0.75722 0.0
H319 H 0.7109 0.90243 0.77854 0.0
H320 H 0.84249 0.88715 0.76896 0.0
H321 H 0.70186 0.82629 0.77804 0.0
H322 H 0.8344 0.81098 0.76918 0.0
H323 H 0.73464 0.58639 0.80642 0.0
H324 H 0.7813 0.55597 0.82472 0.0
H325 H 0.88608 0.62186 0.80545 0.0
H326 H 0.83934 0.65049 0.7868 0.0
H327 H 0.81382 0.59109 0.76828 0.0
H328 H 0.79993 0.53738 0.7497 0.0
H329 H 0.66707 0.56433 0.75289 0.0
H330 H 0.68135 0.61591 0.77232 0.0
H331 H 0.71502 0.69641 0.79834 0.0
H332 H 0.72038 0.77175 0.79437 0.0
H333 H 0.80584 0.74862 0.75808 0.0
N334 N 0.75487 0.6354 0.78416 0.0
H335 H 0.80134 0.67317 0.76258 0.0
C336 C 0.81563 0.95799 0.78568 0.0
C337 C 0.80799 0.96161 0.80084 0.0
C338 C 0.83786 0.97971 0.81014 0.0
C339 C 0.87574 0.99485 0.80435 0.0
C340 C 0.88451 0.98884 0.78929 0.0
C341 C 0.85486 0.9701 0.78003 0.0
C342 C 0.77483 0.97156 0.76367 0.0
C343 C 0.78875 0.96087 0.74941 0.0
C344 C 0.7833 0.98891 0.7378 0.0
C345 C 0.76489 0.02863 0.74029 0.0
C346 C 0.75187 0.03929 0.75469 0.0
C347 C 0.7564 0.01091 0.76615 0.0
C348 C 0.77729 0.90034 0.77406 0.0
C349 C 0.73775 0.88252 0.77624 0.0
C350 C 0.73281 0.83905 0.77608 0.0
C351 C 0.76758 0.81243 0.77388 0.0
C352 C 0.80691 0.83046 0.77087 0.0
C353 C 0.8117 0.87407 0.77087 0.0
C354 C 0.78325 0.62083 0.79535 0.0
C355 C 0.76762 0.59448 0.80627 0.0
C356 C 0.79437 0.57744 0.81678 0.0
C357 C 0.83754 0.58668 0.81666 0.0
C358 C 0.85313 0.61377 0.80581 0.0
C359 C 0.82631 0.63053 0.7952 0.0
C360 C 0.74836 0.60694 0.77192 0.0
C361 C 0.7817 0.58533 0.76504 0.0
C362 C 0.77366 0.55476 0.75425 0.0
C363 C 0.73224 0.54584 0.74985 0.0
C364 C 0.69926 0.56921 0.75627 0.0
C365 C 0.7073 0.59914 0.76724 0.0
C366 C 0.75742 0.67932 0.78075 0.0
C367 C 0.73462 0.70772 0.78947 0.0
C368 C 0.73753 0.75072 0.78708 0.0
C369 C 0.76328 0.76635 0.7758 0.0
C370 C 0.78594 0.73771 0.76692 0.0
C371 C 0.78316 0.69453 0.7694 0.0
H372 H 0.32924 0.60845 0.97648 0.0
N373 N 0.38747 0.58543 0.99567 0.0
H374 H 0.2873 0.56287 0.96025 0.0
H375 H 0.39728 0.50039 0.99182 0.0
H376 H 0.35597 0.45521 0.97582 0.0
H377 H 0.36766 0.52537 0.01591 0.0
H378 H 0.31987 0.53407 0.03676 0.0
H379 H 0.35473 0.65653 0.00581 0.0
H380 H 0.30679 0.66562 0.02674 0.0
H381 H 0.43868 0.63835 0.98247 0.0
H382 H 0.43857 0.52969 0.01025 0.0
H383 H 0.51514 0.63749 0.98201 0.0
H384 H 0.51464 0.52629 0.00894 0.0
H385 H 0.76884 0.60788 0.97722 0.0
H386 H 0.81951 0.56006 0.96624 0.0
H387 H 0.74152 0.45493 0.97849 0.0
H388 H 0.69263 0.50354 0.99055 0.0
H389 H 0.73763 0.53867 0.01391 0.0
H390 H 0.78172 0.56125 0.03415 0.0
H391 H 0.75248 0.6908 0.02447 0.0
H392 H 0.71133 0.66736 0.00322 0.0
H393 H 0.64902 0.60783 0.97175 0.0
H394 H 0.57265 0.60386 0.97215 0.0
H395 H 0.57768 0.55471 0.01638 0.0
N396 N 0.7022 0.58902 0.99315 0.0
H397 H 0.65391 0.5557 0.01533 0.0
C398 C 0.36689 0.55818 0.98519 0.0
C399 C 0.33555 0.57506 0.97617 0.0
C400 C 0.3114 0.54902 0.96706 0.0
C401 C 0.31844 0.50553 0.96677 0.0
C402 C 0.35023 0.4887 0.97566 0.0
C403 C 0.37407 0.51467 0.98483 0.0
C404 C 0.36518 0.5906 0.00938 0.0
C405 C 0.35551 0.55631 0.0184 0.0
C406 C 0.32788 0.56126 0.03028 0.0
C407 C 0.30915 0.60041 0.03327 0.0
C408 C 0.32011 0.63489 0.02455 0.0
C409 C 0.34789 0.62994 0.01274 0.0
C410 C 0.4327 0.584 -0.00381 0.0
C411 C 0.45524 0.61404 0.98835 0.0
C412 C 0.49905 0.61306 0.98796 0.0
C413 C 0.52157 0.58134 0.99523 0.0
C414 C 0.49877 0.55145 0.00329 0.0
C415 C 0.45488 0.55305 0.00391 0.0
C416 C 0.72675 0.55955 0.98452 0.0
C417 C 0.76238 0.57453 0.97727 0.0
C418 C 0.79131 0.54688 0.97093 0.0
C419 C 0.78492 0.50318 0.97133 0.0
C420 C 0.74813 0.48818 0.97813 0.0
C421 C 0.71958 0.51603 0.98482 0.0
C422 C 0.72197 0.60149 0.00682 0.0
C423 C 0.74064 0.57193 0.01615 0.0
C424 C 0.76562 0.58508 0.02792 0.0
C425 C 0.77145 0.62812 0.031 0.0
C426 C 0.75004 0.65748 0.02225 0.0
C427 C 0.72593 0.64422 0.01021 0.0
C428 C 0.65731 0.58285 0.99352 0.0
C429 C 0.63351 0.59567 0.98143 0.0
C430 C 0.58974 0.59387 0.98179 0.0
C431 C 0.56847 0.57988 0.99444 0.0
C432 C 0.59257 0.56551 0.00639 0.0
C433 C 0.63648 0.56645 0.00587 0.0
H434 H 0.3282 0.57776 0.5574 0.0
N435 N 0.28192 0.56213 0.53382 0.0
H436 H 0.35856 0.52724 0.57443 0.0
H437 H 0.27329 0.47628 0.53231 0.0
H438 H 0.30271 0.4257 0.54939 0.0
H439 H 0.31514 0.50826 0.51306 0.0
H440 H 0.35798 0.52756 0.49194 0.0
H441 H 0.303 0.63853 0.52554 0.0
H442 H 0.34386 0.65857 0.50396 0.0
H443 H 0.22912 0.61356 0.54747 0.0
H444 H 0.2346 0.51329 0.51532 0.0
H445 H 0.1533 0.61831 0.54428 0.0
H446 H 0.15852 0.51514 0.51288 0.0
H447 H 0.91013 0.6107 0.53946 0.0
H448 H 0.86739 0.57121 0.55685 0.0
H449 H 0.93159 0.4571 0.54373 0.0
H450 H 0.97517 0.49736 0.52673 0.0
H451 H 0.95403 0.51739 0.50237 0.0
H452 H 0.92145 0.52334 0.47817 0.0
H453 H 0.91344 0.65785 0.48423 0.0
H454 H 0.94683 0.65148 0.50837 0.0
H455 H 0.01499 0.59394 0.54618 0.0
H456 H 0.09025 0.58608 0.54947 0.0
H457 H 0.10318 0.5534 0.50329 0.0
N458 N 0.97013 0.58176 0.52181 0.0
H459 H 0.02821 0.55818 0.5003 0.0
C460 C 0.29851 0.53104 0.54362 0.0
C461 C 0.32248 0.54459 0.55565 0.0
C462 C 0.33945 0.51569 0.56541 0.0
C463 C 0.33273 0.47242 0.56333 0.0
C464 C 0.30862 0.45878 0.55125 0.0
C465 C 0.29159 0.48781 0.54148 0.0
C466 C 0.30656 0.57209 0.52104 0.0
C467 C 0.3216 0.54106 0.51125 0.0
C468 C 0.34577 0.55225 0.49904 0.0
C469 C 0.35474 0.59467 0.49625 0.0
C470 C 0.33858 0.62556 0.50591 0.0
C471 C 0.31496 0.61428 0.5182 0.0
C472 C 0.23724 0.56275 0.53187 0.0
C473 C 0.21366 0.59207 0.53992 0.0
C474 C 0.17029 0.59439 0.53816 0.0
C475 C 0.14944 0.56678 0.52843 0.0
C476 C 0.17336 0.53724 0.52035 0.0
C477 C 0.21692 0.53561 0.52191 0.0
C478 C 0.94544 0.55701 0.53179 0.0
C479 C 0.91484 0.57717 0.54037 0.0
C480 C 0.89036 0.55447 0.55022 0.0
C481 C 0.89585 0.51089 0.55161 0.0
C482 C 0.9268 0.49065 0.54302 0.0
C483 C 0.95143 0.51351 0.53319 0.0
C484 C 0.95251 0.58416 0.50722 0.0
C485 C 0.94523 0.54811 0.49851 0.0
C486 C 0.92663 0.55159 0.48465 0.0
C487 C 0.91476 0.59106 0.47926 0.0
C488 C 0.92278 0.62703 0.48793 0.0
C489 C 0.94152 0.62351 0.50175 0.0
C490 C 0.01511 0.57623 0.52312 0.0
C491 C 0.034 0.58449 0.53681 0.0
C492 C 0.07723 0.58046 0.53862 0.0
C493 C 0.10309 0.56925 0.52663 0.0
C494 C 0.08432 0.56124 0.51287 0.0
C495 C 0.04091 0.56434 0.51113 0.0
C496 C 0.12775 0.67626 0.15642 0.0
C497 C 0.97148 0.63165 0.15038 0.0
C498 C 0.97747 0.70146 0.10989 0.0
Mg499 Mg 0.17643 0.75763 0.14512 0.0
Mg500 Mg 0.12929 0.84555 0.13585 0.0
O501 O 0.13152 0.78735 0.13362 0.0
Mg502 Mg 0.08277 0.75107 0.13855 0.0
O503 O 0.03752 0.71071 0.1435 0.0
Mg504 Mg 0.05636 0.66191 0.13093 0.0
Mg505 Mg 0.98086 0.72605 0.14236 0.0
C506 C 0.04152 0.83022 0.12019 0.0
O507 O 0.05549 0.79515 0.15647 0.0
O508 O 0.22355 0.8006 0.1328 0.0
O509 O 0.98554 0.78411 0.15517 0.0
O510 O 0.17354 0.80548 0.16495 0.0
O511 O 0.18886 0.85856 0.12572 0.0
O512 O 0.13284 0.8594 0.15869 0.0
O513 O 0.10666 0.7053 0.12067 0.0
O514 O 0.17526 0.711 0.1259 0.0
C515 C 0.1451 0.69466 0.11848 0.0
C516 C 0.22213 0.83591 0.12609 0.0
O517 O 0.04239 0.7904 0.12244 0.0
O518 O 0.00549 0.62373 0.14322 0.0
O519 O 0.06967 0.85549 0.12509 0.0
O520 O 0.00776 0.67622 0.11258 0.0
O521 O 0.95642 0.66889 0.15166 0.0
O522 O 0.96421 0.72773 0.11952 0.0
O523 O 0.12451 0.71609 0.15487 0.0
O524 O 0.10455 0.65068 0.1491 0.0
C525 C 0.155 0.84016 0.16813 0.0
C526 C 0.01754 0.80422 0.16016 0.0
C527 C 0.65105 0.80702 0.40934 0.0
C528 C 0.71458 0.65888 0.40006 0.0
C529 C 0.64129 0.65975 0.36009 0.0
Mg530 Mg 0.56155 0.84513 0.3999 0.0
Mg531 Mg 0.4797 0.78689 0.39102 0.0
O532 O 0.53678 0.79783 0.38805 0.0
Mg533 Mg 0.58077 0.7545 0.3915 0.0
O534 O 0.62743 0.71456 0.39497 0.0
Mg535 Mg 0.67169 0.74107 0.38239 0.0
Mg536 Mg 0.61901 0.65656 0.39268 0.0
C537 C 0.50646 0.7048 0.37297 0.0
O538 O 0.54395 0.7196 0.40936 0.0
O539 O 0.51057 0.88659 0.38931 0.0
O540 O 0.56309 0.65168 0.40655 0.0
O541 O 0.51728 0.83451 0.41999 0.0
O542 O 0.4566 0.84556 0.38232 0.0
O543 O 0.46868 0.78677 0.41422 0.0
O544 O 0.62064 0.78616 0.37364 0.0
O545 O 0.60406 0.85229 0.37998 0.0
C546 C 0.62408 0.82594 0.37182 0.0
C547 C 0.47463 0.88147 0.38317 0.0
O548 O 0.54582 0.71144 0.37501 0.0
O549 O 0.71763 0.69435 0.39351 0.0
O550 O 0.47751 0.72771 0.37882 0.0
O551 O 0.66192 0.693 0.36336 0.0
O552 O 0.6797 0.63908 0.40111 0.0
O553 O 0.61786 0.64184 0.36953 0.0
O554 O 0.61176 0.79876 0.40828 0.0
O555 O 0.67833 0.78817 0.40125 0.0
C556 C 0.48591 0.81158 0.4235 0.0
C557 C 0.54046 0.68059 0.41258 0.0
C558 C 0.65332 0.18619 0.65772 0.0
C559 C 0.49881 0.12598 0.65943 0.0
C560 C 0.48637 0.18926 0.61793 0.0
Mg561 Mg 0.68713 0.27155 0.64247 0.0
Mg562 Mg 0.62332 0.35067 0.63744 0.0
O563 O 0.63421 0.29411 0.63335 0.0
Mg564 Mg 0.59341 0.25288 0.64127 0.0
O565 O 0.55583 0.20851 0.64908 0.0
Mg566 Mg 0.57464 0.15984 0.6364 0.0
Mg567 Mg 0.49813 0.2192 0.64945 0.0
C568 C 0.53421 0.32319 0.62535 0.0
O569 O 0.56855 0.29696 0.65955 0.0
O570 O 0.72171 0.32123 0.62802 0.0
O571 O 0.50091 0.2771 0.66213 0.0
O572 O 0.68757 0.31873 0.66229 0.0
O573 O 0.67527 0.37376 0.62488 0.0
O574 O 0.63381 0.36302 0.66025 0.0
O575 O 0.61536 0.20693 0.62353 0.0
O576 O 0.68388 0.22292 0.62369 0.0
C577 C 0.65294 0.20102 0.61889 0.0
C578 C 0.71133 0.35695 0.62258 0.0
O579 O 0.54227 0.28395 0.62694 0.0
O580 O 0.53164 0.1184 0.65151 0.0
O581 O 0.5593 0.35237 0.62958 0.0
O582 O 0.51935 0.16714 0.62002 0.0
O583 O 0.48162 0.16231 0.6601 0.0
O584 O 0.47384 0.21616 0.62748 0.0
O585 O 0.64539 0.22512 0.6555 0.0
O586 O 0.6301 0.15694 0.65235 0.0
C587 C 0.66457 0.34834 0.66747 0.0
C588 C 0.53185 0.30136 0.66522 0.0
C589 C 0.15887 0.29227 0.90741 0.0
C590 C 0.19693 0.13169 0.90241 0.0
C591 C 0.12444 0.13906 0.86215 0.0
Mg592 Mg 0.07677 0.34246 0.89562 0.0
Mg593 Mg 0.98773 0.29332 0.88851 0.0
O594 O 0.04554 0.29612 0.88523 0.0
Mg595 Mg 0.0813 0.24752 0.89086 0.0
O596 O 0.1208 0.20156 0.89611 0.0
Mg597 Mg 0.16866 0.21675 0.8828 0.0
Mg598 Mg 0.10301 0.14567 0.89482 0.0
C599 C 0.00226 0.20651 0.87199 0.0
O600 O 0.03713 0.22362 0.90922 0.0
O601 O 0.03222 0.3886 0.88331 0.0
O602 O 0.04588 0.15332 0.90759 0.0
O603 O 0.02929 0.34444 0.91523 0.0
O604 O 0.97226 0.35291 0.87918 0.0
O605 O 0.97658 0.29953 0.91169 0.0
O606 O 0.12618 0.26751 0.87258 0.0
O607 O 0.12233 0.33719 0.87623 0.0
C608 C 0.13766 0.305 0.86952 0.0
C609 C 0.9945 0.38626 0.87834 0.0
O610 O 0.04132 0.20621 0.87543 0.0
O611 O 0.20623 0.16489 0.89515 0.0
O612 O 0.97658 0.23516 0.87639 0.0
O613 O 0.15086 0.16851 0.86452 0.0
O614 O 0.15908 0.1188 0.90385 0.0
O615 O 0.09942 0.12696 0.87219 0.0
O616 O 0.11868 0.2913 0.90613 0.0
O617 O 0.18231 0.26583 0.90049 0.0
C618 C 0.99551 0.32671 0.91965 0.0
C619 C 0.02691 0.18597 0.91273 0.0
H620 H 0.30953 0.93327 0.47712 0.0
H621 H 0.43218 0.75909 0.43793 0.0
H622 H 0.3347 0.82275 0.50299 0.0
H623 H 0.48839 0.88197 0.44088 0.0
H624 H 0.38693 0.77738 0.45895 0.0
H625 H 0.36492 0.91179 0.46013 0.0
C626 C 0.32663 0.90474 0.4794 0.0
C627 C 0.3172 0.8802 0.49178 0.0
C628 C 0.40984 0.79986 0.45513 0.0
C629 C 0.37957 0.85478 0.47181 0.0
C630 C 0.43583 0.78944 0.44324 0.0
C631 C 0.46448 0.81886 0.43776 0.0
C632 C 0.41138 0.8405 0.46111 0.0
C633 C 0.46707 0.85818 0.44483 0.0
C634 C 0.35814 0.8925 0.4696 0.0
C635 C 0.33989 0.84256 0.49357 0.0
N636 N 0.44007 0.86826 0.45592 0.0
N637 N 0.36971 0.83075 0.4836 0.0
H638 H 0.43043 0.90166 0.70897 0.0
H639 H 0.43191 0.13347 0.67795 0.0
H640 H 0.39311 0.01123 0.73407 0.0
H641 H 0.52448 0.04346 0.66282 0.0
H642 H 0.40611 0.08272 0.6954 0.0
H643 H 0.45552 0.94784 0.68915 0.0
C644 C 0.42756 0.93536 0.71027 0.0
C645 C 0.41 0.95287 0.72315 0.0
C646 C 0.43201 0.07398 0.68824 0.0
C647 C 0.4376 0.00516 0.70067 0.0
C648 C 0.44679 0.10291 0.67819 0.0
C649 C 0.48094 0.09303 0.66897 0.0
C650 C 0.45105 0.03449 0.68911 0.0
C651 C 0.49835 0.05255 0.66979 0.0
C652 C 0.44194 0.96152 0.69905 0.0
C653 C 0.40688 0.99658 0.72438 0.0
N654 N 0.48325 0.02464 0.67977 0.0
N655 N 0.42028 0.02117 0.71325 0.0
H656 H 0.41645 0.07119 0.95389 0.0
H657 H 0.19191 0.05472 0.91527 0.0
H658 H 0.33056 0.96823 0.95983 0.0
H659 H 0.27834 0.15629 0.90748 0.0
H660 H 0.24483 0.02036 0.93022 0.0
H661 H 0.36852 0.10103 0.93574 0.0
C662 C 0.38755 0.05483 0.95136 0.0
C663 C 0.37742 0.01724 0.95845 0.0
C664 C 0.25241 0.05001 0.92517 0.0
C665 C 0.32261 0.05105 0.93763 0.0
C666 C 0.22214 0.06972 0.91661 0.0
C667 C 0.2305 0.1087 0.9102 0.0
C668 C 0.29136 0.06947 0.92746 0.0
C669 C 0.27045 0.12633 0.91224 0.0
C670 C 0.36034 0.07175 0.94094 0.0
C671 C 0.33989 0.99704 0.95456 0.0
N672 N 0.29927 0.10676 0.92082 0.0
N673 N 0.31378 0.01433 0.9445 0.0
H674 H 0.18973 0.04594 0.22751 0.0
H675 H 0.21326 0.82056 0.18938 0.0
H676 H 0.28591 0.9569 0.23929 0.0
H677 H 0.11573 0.90984 0.17921 0.0
H678 H 0.23443 0.86523 0.2102 0.0
H679 H 0.15659 0.99213 0.21225 0.0
C680 C 0.20364 0.01493 0.22705 0.0
C681 C 0.24102 0.0062 0.23457 0.0
C682 C 0.20798 0.87465 0.20353 0.0
C683 C 0.20352 0.9444 0.21685 0.0
C684 C 0.19575 0.84905 0.19168 0.0
C685 C 0.16308 0.86174 0.18238 0.0
C686 C 0.18738 0.91313 0.20605 0.0
C687 C 0.14149 0.89897 0.18594 0.0
C688 C 0.18478 0.98419 0.21826 0.0
C689 C 0.25771 0.96542 0.2334 0.0
N690 N 0.15432 0.92352 0.19735 0.0
N691 N 0.23909 0.93618 0.22459 0.0
H692 H 0.36578 0.02433 0.55769 0.0
H693 H 0.40578 0.21616 0.61268 0.0
H694 H 0.26648 0.10338 0.57462 0.0
H695 H 0.50321 0.13621 0.59475 0.0
H696 H 0.35576 0.18394 0.59561 0.0
H697 H 0.41731 0.07235 0.56821 0.0
C698 C 0.35487 0.05194 0.56364 0.0
C699 C 0.31186 0.05951 0.56556 0.0
C700 C 0.38824 0.17398 0.59525 0.0
C701 C 0.37074 0.11487 0.57765 0.0
C702 C 0.41694 0.19252 0.60495 0.0
C703 C 0.45863 0.17818 0.6054 0.0
C704 C 0.40138 0.14092 0.58596 0.0
C705 C 0.47125 0.14773 0.59501 0.0
C706 C 0.3843 0.07953 0.56956 0.0
C707 C 0.29941 0.0963 0.57301 0.0
N708 N 0.44262 0.12969 0.5859 0.0
N709 N 0.32875 0.12237 0.57898 0.0
H710 H 0.22988 0.02266 0.7846 0.0
H711 H 0.08626 0.06428 0.85549 0.0
H712 H 0.18774 0.92586 0.81391 0.0
H713 H 0.16969 0.1569 0.83724 0.0
H714 H 0.10445 0.01658 0.8352 0.0
H715 H 0.18961 0.07443 0.79904 0.0
C716 C 0.21137 0.01222 0.79388 0.0
C717 C 0.21235 0.97013 0.7982 0.0
C718 C 0.11816 0.04764 0.83553 0.0
C719 C 0.16638 0.02883 0.81464 0.0
C720 C 0.10769 0.07501 0.84706 0.0
C721 C 0.12732 0.11433 0.84828 0.0
C722 C 0.14805 0.05982 0.82506 0.0
C723 C 0.15444 0.12659 0.83691 0.0
C724 C 0.18862 0.04172 0.80212 0.0
C725 C 0.18813 0.95817 0.81036 0.0
N726 N 0.16445 0.0992 0.82586 0.0
N727 N 0.1663 0.98744 0.81822 0.0
H728 H 0.38625 0.9672 0.06649 0.0
H729 H 0.28471 0.78601 0.11491 0.0
H730 H 0.38767 0.83633 0.05356 0.0
H731 H 0.24125 0.91436 0.11618 0.0
H732 H 0.33704 0.8054 0.09644 0.0
H733 H 0.3463 0.94897 0.08847 0.0
C734 C 0.37818 0.93465 0.06821 0.0
C735 C 0.38988 0.90336 0.05795 0.0
C736 C 0.31637 0.82936 0.10093 0.0
C737 C 0.34521 0.88232 0.08338 0.0
C738 C 0.28673 0.81844 0.11154 0.0
C739 C 0.25832 0.84858 0.11699 0.0
C740 C 0.31795 0.87077 0.09589 0.0
C741 C 0.26226 0.89007 0.11216 0.0
C742 C 0.35567 0.92431 0.08084 0.0
C743 C 0.37965 0.86155 0.06113 0.0
N744 N 0.29138 0.89992 0.10182 0.0
N745 N 0.35776 0.85228 0.07353 0.0
H746 H 0.4478 0.05782 0.31551 0.0
H747 H 0.39271 0.8922 0.37458 0.0
H748 H 0.32304 0.05635 0.33436 0.0
H749 H 0.51399 0.9523 0.3739 0.0
H750 H 0.36523 0.94808 0.35886 0.0
H751 H 0.47241 0.0157 0.33585 0.0
C752 C 0.42555 0.04952 0.324 0.0
C753 C 0.38299 0.06089 0.32303 0.0
C754 C 0.39765 0.94924 0.3624 0.0
C755 C 0.41117 0.0108 0.34615 0.0
C756 C 0.41338 0.91737 0.37129 0.0
C757 C 0.45576 0.91744 0.37546 0.0
C758 C 0.4248 0.98063 0.35739 0.0
C759 C 0.48112 0.95093 0.37095 0.0
C760 C 0.43974 0.02508 0.3356 0.0
C761 C 0.35584 0.04765 0.33433 0.0
N762 N 0.46544 0.98076 0.36194 0.0
N763 N 0.37024 0.0227 0.34529 0.0
H764 H 0.75276 0.05261 0.54791 0.0
H765 H 0.68631 0.12909 0.62872 0.0
H766 H 0.80528 0.00401 0.58811 0.0
H767 H 0.64553 0.19031 0.58918 0.0
H768 H 0.71892 0.07377 0.61372 0.0
H769 H 0.70401 0.09524 0.56255 0.0
C770 C 0.7541 0.05092 0.55981 0.0
C771 C 0.78363 0.02511 0.56679 0.0
C772 C 0.70223 0.09881 0.60828 0.0
C773 C 0.72735 0.07326 0.58358 0.0
C774 C 0.68338 0.13009 0.61684 0.0
C775 C 0.66322 0.16376 0.61008 0.0
C776 C 0.70144 0.10178 0.59285 0.0
C777 C 0.66059 0.16439 0.59471 0.0
C778 C 0.726 0.075 0.56815 0.0
C779 C 0.78305 0.02331 0.58224 0.0
N780 N 0.68001 0.13401 0.58654 0.0
N781 N 0.7556 0.0473 0.5901 0.0
H782 H 0.73679 0.00868 0.31661 0.0
H783 H 0.69686 0.79364 0.35922 0.0
H784 H 0.82519 0.906 0.31453 0.0
H785 H 0.61161 0.89886 0.35782 0.0
H786 H 0.7435 0.83058 0.34191 0.0
H787 H 0.68997 0.9658 0.33106 0.0
C788 C 0.74625 0.97688 0.31909 0.0
C789 C 0.7849 0.96089 0.31422 0.0
C790 C 0.71437 0.84524 0.34535 0.0
C791 C 0.73132 0.91131 0.33116 0.0
C792 C 0.68775 0.82412 0.35513 0.0
C793 C 0.65069 0.84352 0.36009 0.0
C794 C 0.7034 0.88566 0.34055 0.0
C795 C 0.64024 0.883 0.3545 0.0
C796 C 0.71949 0.95233 0.32744 0.0
C797 C 0.79579 0.9197 0.31815 0.0
N798 N 0.66647 0.9027 0.34514 0.0
N799 N 0.76911 0.89625 0.32642 0.0
H800 H 0.87314 0.90949 0.05184 0.0
H801 H 0.0054 0.90573 0.12546 0.0
H802 H 0.84966 0.99376 0.08856 0.0
H803 H 0.99726 0.7972 0.09681 0.0
H804 H 0.94988 0.93936 0.11144 0.0
H805 H 0.91945 0.86823 0.06749 0.0
C806 C 0.8772 0.91911 0.06322 0.0
C807 C 0.85756 0.9555 0.06883 0.0
C808 C 0.95988 0.90806 0.10825 0.0
C809 C 0.91135 0.90875 0.08667 0.0
C810 C 0.99173 0.88894 0.1162 0.0
C811 C 0.00601 0.84879 0.11219 0.0
C812 C 0.94259 0.88724 0.096 0.0
C813 C 0.98694 0.82819 0.10024 0.0
C814 C 0.90382 0.89555 0.07212 0.0
C815 C 0.86476 0.96661 0.08362 0.0
N816 N 0.95646 0.84792 0.0924 0.0
N817 N 0.89134 0.94357 0.09197 0.0
H818 H 0.90653 0.97934 0.832 0.0
H819 H 0.95195 0.21753 0.84836 0.0
H820 H 0.90492 0.07232 0.79783 0.0
H821 H 0.01701 0.12203 0.87268 0.0
H822 H 0.92724 0.16372 0.83102 0.0
H823 H 0.94222 0.02991 0.84834 0.0
C824 C 0.91431 0.01015 0.8279 0.0
C825 C 0.90291 0.02181 0.81359 0.0
C826 C 0.9472 0.15458 0.84009 0.0
C827 C 0.94241 0.07959 0.83218 0.0
C828 C 0.96092 0.18513 0.85003 0.0
C829 C 0.98667 0.17398 0.86183 0.0
C830 C 0.9585 0.11251 0.8422 0.0
C831 C 0.99771 0.13171 0.86353 0.0
C832 C 0.93462 0.03884 0.83718 0.0
C833 C 0.91353 0.06203 0.80875 0.0
N834 N 0.98317 0.10224 0.85387 0.0
N835 N 0.93209 0.08974 0.81811 0.0
H836 H 0.83748 0.92004 0.46291 0.0
H837 H 0.61854 0.82401 0.43686 0.0
H838 H 0.73858 0.88584 0.49302 0.0
H839 H 0.72068 0.85519 0.40776 0.0
H840 H 0.65601 0.85882 0.45722 0.0
H841 H 0.78975 0.90807 0.44235 0.0
C842 C 0.80559 0.91048 0.46523 0.0
C843 C 0.79229 0.90332 0.47972 0.0
C844 C 0.66981 0.85869 0.4463 0.0
C845 C 0.73743 0.88896 0.45616 0.0
C846 C 0.64827 0.83916 0.43469 0.0
C847 C 0.66698 0.83616 0.42072 0.0
C848 C 0.71008 0.87528 0.44382 0.0
C849 C 0.70556 0.85617 0.41845 0.0
C850 C 0.77832 0.90348 0.45346 0.0
C851 C 0.75056 0.89067 0.482 0.0
N852 N 0.72605 0.87438 0.42991 0.0
N853 N 0.72474 0.88348 0.47034 0.0
H854 H 0.90598 0.00261 0.21254 0.0
H855 H 0.06948 0.83161 0.18218 0.0
H856 H 0.0073 0.95317 0.23873 0.0
H857 H 0.94845 0.85435 0.1626 0.0
H858 H 0.05419 0.88564 0.20088 0.0
H859 H 0.92843 0.95781 0.192 0.0
C860 C 0.93299 0.98242 0.21398 0.0
C861 C 0.95439 0.98128 0.22749 0.0
C862 C 0.03117 0.879 0.19241 0.0
C863 C 0.98059 0.93037 0.20391 0.0
C864 C 0.03998 0.84842 0.1817 0.0
C865 C 0.01013 0.83853 0.17088 0.0
C866 C 0.99247 0.90008 0.19215 0.0
C867 C 0.97215 0.86079 0.17085 0.0
C868 C 0.94587 0.957 0.20222 0.0
C869 C 0.98992 0.95531 0.22853 0.0
N870 N 0.96439 0.89053 0.18133 0.0
N871 N 0.00175 0.93068 0.21693 0.0
H872 H 0.87702 0.18319 0.99199 0.0
H873 H 0.97722 0.11729 0.91471 0.0
H874 H 0.84281 0.07197 0.96728 0.0
H875 H 0.99839 0.23876 0.93479 0.0
H876 H 0.92518 0.1024 0.93353 0.0
H877 H 0.91869 0.20661 0.9709 0.0
C878 C 0.87791 0.16392 0.98209 0.0
C879 C 0.85691 0.12524 0.98148 0.0
C880 C 0.94083 0.13251 0.9338 0.0
C881 C 0.90466 0.15164 0.95743 0.0
C882 C 0.97069 0.14098 0.92307 0.0
C883 C 0.99243 0.17915 0.92329 0.0
C884 C 0.93291 0.16216 0.94502 0.0
C885 C 0.98228 0.20893 0.93424 0.0
C886 C 0.90177 0.17726 0.97009 0.0
C887 C 0.85931 0.10148 0.9684 0.0
N888 N 0.95356 0.19959 0.94483 0.0
N889 N 0.88299 0.11491 0.95696 0.0
H890 H 0.81406 0.04054 0.71554 0.0
H891 H 0.70901 0.12213 0.65497 0.0
H892 H 0.70073 0.08556 0.73674 0.0
H893 H 0.66826 0.21997 0.6849 0.0
H894 H 0.74768 0.08941 0.67505 0.0
H895 H 0.7992 0.08627 0.6947 0.0
C896 C 0.78609 0.05984 0.71588 0.0
C897 C 0.75832 0.05846 0.72794 0.0
C898 C 0.73159 0.11884 0.67712 0.0
C899 C 0.74201 0.11167 0.70427 0.0
C900 C 0.70949 0.13747 0.66568 0.0
C901 C 0.68563 0.17375 0.66834 0.0
C902 C 0.72869 0.13606 0.69139 0.0
C903 C 0.68665 0.19217 0.68242 0.0
C904 C 0.77791 0.08615 0.70401 0.0
C905 C 0.72341 0.08555 0.72786 0.0
N906 N 0.70682 0.17238 0.69358 0.0
N907 N 0.71627 0.11091 0.71622 0.0
H908 H 0.83807 0.51592 0.94781 0.0
H909 H 0.92822 0.29461 0.93492 0.0
H910 H 0.80619 0.42285 0.98028 0.0
H911 H 0.00796 0.40365 0.93233 0.0
H912 H 0.87819 0.33584 0.94982 0.0
H913 H 0.89441 0.4707 0.93903 0.0
C914 C 0.84291 0.48628 0.95325 0.0
C915 C 0.81734 0.4739 0.96508 0.0
C916 C 0.9072 0.3502 0.94626 0.0
C917 C 0.88134 0.42108 0.95451 0.0
C918 C 0.93584 0.32675 0.93782 0.0
C919 C 0.97217 0.34581 0.93219 0.0
C920 C 0.91458 0.39307 0.94869 0.0
C921 C 0.98036 0.3876 0.93632 0.0
C922 C 0.87512 0.4604 0.94814 0.0
C923 C 0.82455 0.43389 0.97108 0.0
N924 N 0.95124 0.41013 0.94396 0.0
N925 N 0.85569 0.40872 0.96565 0.0
H926 H 0.93997 0.41316 0.20363 0.0
H927 H 0.89801 0.63426 0.16619 0.0
H928 H 0.83644 0.49458 0.21518 0.0
H929 H 0.99831 0.55031 0.15319 0.0
H930 H 0.86991 0.57971 0.18203 0.0
H931 H 0.95689 0.45909 0.18308 0.0
C932 C 0.92056 0.4405 0.20175 0.0
C933 C 0.887 0.45028 0.21122 0.0
C934 C 0.89781 0.57305 0.17559 0.0
C935 C 0.90621 0.50307 0.18775 0.0
C936 C 0.91391 0.60423 0.16653 0.0
C937 C 0.95097 0.59716 0.15847 0.0
C938 C 0.91902 0.53456 0.17671 0.0
C939 C 0.9699 0.55741 0.15928 0.0
C940 C 0.93014 0.46665 0.18999 0.0
C941 C 0.86248 0.48572 0.20812 0.0
N942 N 0.954 0.52782 0.16837 0.0
N943 N 0.87288 0.5111 0.19677 0.0
H944 H 0.85348 0.53946 0.46824 0.0
H945 H 0.79146 0.6961 0.40402 0.0
H946 H 0.92375 0.65105 0.45796 0.0
H947 H 0.72145 0.58468 0.41483 0.0
H948 H 0.84646 0.67432 0.421 0.0
H949 H 0.81137 0.5498 0.44619 0.0
C950 C 0.86056 0.56578 0.46122 0.0
C951 C 0.89197 0.59468 0.46507 0.0
C952 C 0.81931 0.65437 0.4195 0.0
C953 C 0.8432 0.60716 0.43988 0.0
C954 C 0.7879 0.66672 0.40976 0.0
C955 C 0.75134 0.64258 0.40816 0.0
C956 C 0.81409 0.6177 0.42774 0.0
C957 C 0.74873 0.60467 0.41585 0.0
C958 C 0.83628 0.57182 0.44865 0.0
C959 C 0.89927 0.62848 0.4556 0.0
N960 N 0.77939 0.5937 0.42543 0.0
N961 N 0.8748 0.63401 0.44353 0.0
H962 H 0.66433 0.49266 0.74871 0.0
H963 H 0.74299 0.36129 0.67868 0.0
H964 H 0.77987 0.5208 0.72586 0.0
H965 H 0.61202 0.38328 0.68791 0.0
H966 H 0.76129 0.40563 0.70002 0.0
H967 H 0.64886 0.43938 0.73 0.0
C968 C 0.68643 0.48795 0.73977 0.0
C969 C 0.72329 0.51198 0.73883 0.0
C970 C 0.72856 0.40027 0.69743 0.0
C971 C 0.70626 0.44966 0.71771 0.0
C972 C 0.71811 0.37476 0.68537 0.0
C973 C 0.67592 0.36903 0.6815 0.0
C974 C 0.69654 0.41932 0.70579 0.0
C975 C 0.64487 0.38741 0.69045 0.0
C976 C 0.67767 0.45718 0.72918 0.0
C977 C 0.75128 0.50303 0.7272 0.0
N978 N 0.65578 0.41181 0.70219 0.0
N979 N 0.74217 0.4726 0.7171 0.0
H980 H 0.79188 0.58826 0.0569 0.0
H981 H 0.92595 0.75791 0.09607 0.0
H982 H 0.82007 0.69995 0.03211 0.0
H983 H 0.97084 0.6302 0.09327 0.0
H984 H 0.87659 0.74246 0.07594 0.0
H985 H 0.84621 0.60792 0.0745 0.0
C986 C 0.80935 0.61678 0.05503 0.0
C987 C 0.80142 0.64199 0.04272 0.0
C988 C 0.89782 0.7182 0.07965 0.0
C989 C 0.86252 0.66532 0.06333 0.0
C990 C 0.92603 0.72695 0.09104 0.0
C991 C 0.95277 0.69537 0.09628 0.0
C992 C 0.89542 0.67729 0.07391 0.0
C993 C 0.9511 0.65558 0.08951 0.0
C994 C 0.84021 0.62799 0.06518 0.0
C995 C 0.82436 0.67957 0.04143 0.0
N996 N 0.92226 0.64742 0.07888 0.0
N997 N 0.85373 0.69024 0.05166 0.0
H998 H 0.81191 0.51646 0.31376 0.0
H999 H 0.60328 0.58967 0.348 0.0
H1000 H 0.6991 0.47609 0.29133 0.0
H1001 H 0.70469 0.67687 0.34085 0.0
H1002 H 0.63432 0.54264 0.32926 0.0
H1003 H 0.77128 0.56944 0.32681 0.0
C1004 C 0.77876 0.51886 0.31136 0.0
C1005 C 0.75937 0.49192 0.30107 0.0
C1006 C 0.64901 0.57257 0.33162 0.0
C1007 C 0.71224 0.55197 0.31666 0.0
C1008 C 0.6314 0.59944 0.34227 0.0
C1009 C 0.65187 0.63695 0.34625 0.0
C1010 C 0.68762 0.58304 0.32522 0.0
C1011 C 0.68803 0.64811 0.33835 0.0
C1012 C 0.75556 0.54912 0.31893 0.0
C1013 C 0.71562 0.49576 0.29917 0.0
N1014 N 0.70533 0.62078 0.32851 0.0
N1015 N 0.69339 0.52505 0.307 0.0
H1016 H 0.81195 0.52103 0.55684 0.0
H1017 H 0.79233 0.33497 0.61481 0.0
H1018 H 0.91822 0.44578 0.56973 0.0
H1019 H 0.69742 0.42952 0.60769 0.0
H1020 H 0.83832 0.37146 0.59744 0.0
H1021 H 0.76852 0.48363 0.57438 0.0
C1022 C 0.82627 0.49679 0.56343 0.0
C1023 C 0.86897 0.48689 0.5619 0.0
C1024 C 0.80745 0.38415 0.59977 0.0
C1025 C 0.81903 0.4433 0.58194 0.0
C1026 C 0.7812 0.36339 0.60968 0.0
C1027 C 0.74085 0.37909 0.61273 0.0
C1028 C 0.79306 0.42061 0.59281 0.0
C1029 C 0.72816 0.41607 0.60573 0.0
C1030 C 0.80136 0.47528 0.57342 0.0
C1031 C 0.88541 0.4543 0.57048 0.0
N1032 N 0.75405 0.43536 0.59609 0.0
N1033 N 0.86041 0.43368 0.58017 0.0
H1034 H 0.91784 0.55729 0.81199 0.0
H1035 H 0.91358 0.41131 0.88065 0.0
H1036 H 0.82263 0.56896 0.84575 0.0
H1037 H 0.03119 0.4443 0.86031 0.0
H1038 H 0.87921 0.46783 0.86733 0.0
H1039 H 0.96042 0.51591 0.82888 0.0
C1040 C 0.90613 0.5519 0.82302 0.0
C1041 C 0.86614 0.56617 0.82734 0.0
C1042 C 0.91264 0.46314 0.86591 0.0
C1043 C 0.91443 0.51801 0.84654 0.0
C1044 C 0.93219 0.43078 0.87344 0.0
C1045 C 0.97514 0.42311 0.87147 0.0
C1046 C 0.93596 0.48737 0.85604 0.0
C1047 C 0.99797 0.44937 0.86211 0.0
C1048 C 0.93047 0.52812 0.83262 0.0
C1049 C 0.85263 0.55764 0.84174 0.0
N1050 N 0.97791 0.48 0.85449 0.0
N1051 N 0.8764 0.53358 0.85073 0.0
H1052 H 0.23451 0.64307 0.03261 0.0
H1053 H 0.20407 0.63363 0.11902 0.0
H1054 H 0.31198 0.56847 0.06119 0.0
H1055 H 0.11471 0.69269 0.09029 0.0
H1056 H 0.23774 0.60089 0.09765 0.0
H1057 H 0.18559 0.65497 0.05302 0.0
C1058 C 0.24117 0.62912 0.04318 0.0
C1059 C 0.27775 0.60531 0.04527 0.0
C1060 C 0.21025 0.62024 0.09597 0.0
C1061 C 0.22166 0.61846 0.06864 0.0
C1062 C 0.1909 0.63874 0.10818 0.0
C1063 C 0.15687 0.66605 0.10634 0.0
C1064 C 0.19607 0.62996 0.08177 0.0
C1065 C 0.14089 0.67171 0.09212 0.0
C1066 C 0.21301 0.63558 0.05479 0.0
C1067 C 0.28426 0.58711 0.05909 0.0
N1068 N 0.16125 0.65454 0.0803 0.0
N1069 N 0.25678 0.59451 0.07029 0.0
H1070 H 0.30916 0.43926 0.81518 0.0
H1071 H 0.13518 0.27564 0.84117 0.0
H1072 H 0.20057 0.40663 0.78906 0.0
H1073 H 0.20664 0.35398 0.87085 0.0
H1074 H 0.17453 0.30496 0.82031 0.0
H1075 H 0.28604 0.39012 0.83396 0.0
C1076 C 0.28053 0.42176 0.81334 0.0
C1077 C 0.25628 0.42798 0.80063 0.0
C1078 C 0.18222 0.31484 0.83143 0.0
C1079 C 0.2305 0.37068 0.82192 0.0
C1080 C 0.16017 0.29788 0.8433 0.0
C1081 C 0.16778 0.31275 0.85763 0.0
C1082 C 0.21232 0.34617 0.83408 0.0
C1083 C 0.1999 0.342 0.85989 0.0
C1084 C 0.26765 0.39342 0.82401 0.0
C1085 C 0.22032 0.40307 0.79865 0.0
N1086 N 0.22086 0.35801 0.84822 0.0
N1087 N 0.20829 0.37579 0.80926 0.0
H1088 H 0.37105 0.39735 0.55649 0.0
H1089 H 0.48623 0.38988 0.63296 0.0
H1090 H 0.33885 0.47796 0.59336 0.0
H1091 H 0.4931 0.28673 0.60189 0.0
H1092 H 0.42774 0.41901 0.61922 0.0
H1093 H 0.411 0.35265 0.57317 0.0
C1094 C 0.37171 0.40524 0.56813 0.0
C1095 C 0.35224 0.44193 0.57349 0.0
C1096 C 0.44149 0.38969 0.61547 0.0
C1097 C 0.39828 0.39126 0.59255 0.0
C1098 C 0.47497 0.37314 0.62329 0.0
C1099 C 0.49479 0.33632 0.61837 0.0
C1100 C 0.42829 0.36982 0.6024 0.0
C1101 C 0.4787 0.31542 0.60594 0.0
C1102 C 0.39461 0.37974 0.57763 0.0
C1103 C 0.35434 0.45066 0.58866 0.0
N1104 N 0.44682 0.33299 0.59815 0.0
N1105 N 0.37743 0.42587 0.59761 0.0
H1106 H 0.37667 0.49298 0.33474 0.0
H1107 H 0.54613 0.67221 0.34855 0.0
H1108 H 0.43216 0.56129 0.29872 0.0
H1109 H 0.43729 0.65628 0.37626 0.0
H1110 H 0.51973 0.61623 0.33213 0.0
H1111 H 0.41438 0.53823 0.35207 0.0
C1112 C 0.39678 0.51726 0.33041 0.0
C1113 C 0.40041 0.52365 0.31516 0.0
C1114 C 0.502 0.62491 0.34189 0.0
C1115 C 0.44482 0.57436 0.33502 0.0
C1116 C 0.51701 0.65659 0.35125 0.0
C1117 C 0.49344 0.66913 0.36361 0.0
C1118 C 0.46387 0.60514 0.34521 0.0
C1119 C 0.45599 0.64793 0.36669 0.0
C1120 C 0.41853 0.54277 0.34034 0.0
C1121 C 0.42836 0.55478 0.31032 0.0
N1122 N 0.44235 0.61691 0.35755 0.0
N1123 N 0.44936 0.57911 0.32023 0.0
H1124 H 0.23283 0.50572 0.96273 0.0
H1125 H 0.24274 0.30182 0.91089 0.0
H1126 H 0.34598 0.4413 0.94927 0.0
H1127 H 0.12469 0.35872 0.92356 0.0
H1128 H 0.2796 0.35536 0.92448 0.0
H1129 H 0.19164 0.45556 0.94793 0.0
C1130 C 0.24899 0.48127 0.95657 0.0
C1131 C 0.29287 0.4774 0.9573 0.0
C1132 C 0.24565 0.35642 0.92438 0.0
C1133 C 0.24615 0.42012 0.94053 0.0
C1134 C 0.22433 0.32561 0.91657 0.0
C1135 C 0.1803 0.3255 0.91607 0.0
C1136 C 0.22314 0.38779 0.93191 0.0
C1137 C 0.15863 0.3575 0.92369 0.0
C1138 C 0.22547 0.4526 0.94822 0.0
C1139 C 0.31222 0.44506 0.94922 0.0
N1140 N 0.18033 0.38746 0.93135 0.0
N1141 N 0.28876 0.41774 0.94123 0.0
H1142 H 0.44523 0.42918 0.74247 0.0
H1143 H 0.54561 0.38569 0.66301 0.0
H1144 H 0.44652 0.52212 0.70822 0.0
H1145 H 0.50221 0.29045 0.69269 0.0
H1146 H 0.52731 0.4397 0.68162 0.0
H1147 H 0.48642 0.38256 0.72668 0.0
C1148 C 0.45504 0.44025 0.73177 0.0
C1149 C 0.44186 0.4794 0.72657 0.0
C1150 C 0.52238 0.40692 0.68409 0.0
C1151 C 0.4882 0.42566 0.70831 0.0
C1152 C 0.53284 0.3763 0.67354 0.0
C1153 C 0.52505 0.33397 0.67644 0.0
C1154 C 0.50472 0.39465 0.69757 0.0
C1155 C 0.5083 0.32296 0.6901 0.0
C1156 C 0.47822 0.41341 0.7227 0.0
C1157 C 0.45526 0.4918 0.71252 0.0
N1158 N 0.49864 0.35315 0.70018 0.0
N1159 N 0.47728 0.46475 0.70377 0.0
H1160 H 0.35775 0.55873 0.46849 0.0
H1161 H 0.51647 0.72777 0.43631 0.0
H1162 H 0.41242 0.65834 0.49477 0.0
H1163 H 0.49833 0.60643 0.4158 0.0
H1164 H 0.47065 0.7068 0.45653 0.0
H1165 H 0.40215 0.57934 0.4478 0.0
C1166 C 0.37916 0.58474 0.46998 0.0
C1167 C 0.38119 0.6068 0.48346 0.0
C1168 C 0.47651 0.68483 0.44757 0.0
C1169 C 0.43136 0.63102 0.45969 0.0
C1170 C 0.50238 0.69688 0.43598 0.0
C1171 C 0.51098 0.66882 0.42436 0.0
C1172 C 0.45845 0.64473 0.44741 0.0
C1173 C 0.49248 0.62893 0.42459 0.0
C1174 C 0.40432 0.59659 0.45812 0.0
C1175 C 0.40904 0.64082 0.48456 0.0
N1176 N 0.46683 0.6181 0.43592 0.0
N1177 N 0.43287 0.65193 0.47283 0.0
H1178 H 0.24175 0.60455 0.23793 0.0
H1179 H 0.16493 0.59976 0.1547 0.0
H1180 H 0.2619 0.5003 0.20798 0.0
H1181 H 0.15958 0.71168 0.18182 0.0
H1182 H 0.20656 0.56554 0.17353 0.0
H1183 H 0.21693 0.6466 0.21727 0.0
C1184 C 0.24118 0.59059 0.22699 0.0
C1185 C 0.25348 0.54867 0.2247 0.0
C1186 C 0.19678 0.59773 0.17536 0.0
C1187 C 0.22533 0.59665 0.20103 0.0
C1188 C 0.17292 0.61729 0.1646 0.0
C1189 C 0.1583 0.65839 0.16682 0.0
C1190 C 0.20561 0.61912 0.18859 0.0
C1191 C 0.17011 0.67985 0.17973 0.0
C1192 C 0.22729 0.61471 0.2152 0.0
C1193 C 0.25289 0.53247 0.21027 0.0
N1194 N 0.19255 0.65968 0.19028 0.0
N1195 N 0.23859 0.55633 0.19903 0.0
loop_
_geom_bond_atom_site_label_1
_geom_bond_atom_site_label_2
_geom_bond_distance
_geom_bond_site_symmetry_2
_ccdc_geom_bond_type
H0 C27 0.929 1_565 S
N1 C26 1.433 1_565 S
N1 C32 1.435 . S
N1 C38 1.423 . S
H2 C28 0.930 . S
H3 C31 0.931 . S
H4 C30 0.929 . S
H5 C33 0.930 1_545 S
H6 C34 0.939 . S
H7 C37 0.929 . S
H8 C36 0.931 . S
H9 C39 0.929 . S
H10 C43 0.932 . S
H11 C40 0.931 . S
H12 C42 0.929 . S
H13 C45 0.929 1_565 S
H14 C46 0.930 . S
H15 C48 0.929 . S
H16 C49 0.931 . S
H17 C51 0.930 1_545 S
H18 C52 0.942 . S
H19 C54 0.931 . S
H20 C55 0.929 . S
H21 C57 0.929 . S
H22 C58 0.931 . S
H23 C60 0.929 . S
N24 C44 1.433 1_565 S
N24 C50 1.435 . S
N24 C56 1.423 . S
H25 C61 0.932 . S
C26 N1 1.433 1_545 S
C26 C27 1.363 . S
C26 C31 1.370 . S
C27 H0 0.929 1_545 S
C27 C26 1.363 . S
C27 C28 1.385 . S
C28 H2 0.930 . S
C28 C27 1.385 . S
C28 C29 1.357 . S
C29 C28 1.357 . S
C29 C30 1.406 . S
C30 H4 0.929 . S
C30 C29 1.406 . S
C30 C31 1.391 . S
C31 H3 0.931 . S
C31 C26 1.370 . S
C31 C30 1.391 . S
C32 N1 1.435 . S
C32 C33 1.358 . S
C32 C37 1.371 . S
C33 H5 0.930 1_565 S
C33 C32 1.358 . S
C33 C34 1.405 . S
C34 H6 0.939 . S
C34 C33 1.405 . S
C34 C35 1.383 . S
C35 C34 1.383 . S
C35 C36 1.393 . S
C36 H8 0.931 . S
C36 C35 1.393 . S
C36 C37 1.382 . S
C37 H7 0.929 . S
C37 C32 1.371 . S
C37 C36 1.382 . S
C38 N1 1.423 . S
C38 C39 1.362 . S
C38 C43 1.388 . S
C39 H9 0.929 . S
C39 C38 1.362 . S
C39 C40 1.376 . S
C40 H11 0.931 . S
C40 C39 1.376 . S
C40 C41 1.396 1_655 S
C41 C40 1.396 1_455 S
C41 C42 1.348 1_455 S
C41 C59 1.472 . S
C42 H12 0.929 . S
C42 C41 1.348 1_655 S
C42 C43 1.443 . S
C43 H10 0.932 . S
C43 C38 1.388 . S
C43 C42 1.443 . S
C44 N24 1.433 1_545 S
C44 C45 1.363 . S
C44 C49 1.370 . S
C45 H13 0.929 1_545 S
C45 C44 1.363 . S
C45 C46 1.385 . S
C46 H14 0.930 . S
C46 C45 1.385 . S
C46 C47 1.357 . S
C47 C46 1.357 . S
C47 C48 1.406 . S
C48 H15 0.929 . S
C48 C47 1.406 . S
C48 C49 1.391 . S
C49 H16 0.931 . S
C49 C44 1.370 . S
C49 C48 1.391 . S
C50 N24 1.435 . S
C50 C51 1.358 . S
C50 C55 1.371 . S
C51 H17 0.930 1_565 S
C51 C50 1.358 . S
C51 C52 1.405 . S
C52 H18 0.942 . S
C52 C51 1.405 . S
C52 C53 1.383 . S
C53 C52 1.383 . S
C53 C54 1.393 . S
C54 H19 0.931 . S
C54 C53 1.393 . S
C54 C55 1.382 . S
C55 H20 0.929 . S
C55 C50 1.371 . S
C55 C54 1.382 . S
C56 N24 1.423 . S
C56 C57 1.362 . S
C56 C61 1.388 . S
C57 H21 0.929 . S
C57 C56 1.362 . S
C57 C58 1.376 . S
C58 H22 0.931 . S
C58 C57 1.376 . S
C58 C59 1.396 . S
C59 C41 1.472 . S
C59 C58 1.396 . S
C59 C60 1.348 . S
C60 H23 0.929 . S
C60 C59 1.348 . S
C60 C61 1.443 . S
C61 H25 0.932 . S
C61 C56 1.388 . S
C61 C60 1.443 . S
H62 C89 0.929 . S
N63 C88 1.433 . S
N63 C94 1.435 . S
N63 C100 1.423 . S
H64 C90 0.930 . S
H65 C93 0.931 . S
H66 C92 0.929 . S
H67 C95 0.930 . S
H68 C96 0.932 . S
H69 C99 0.929 . S
H70 C98 0.931 . S
H71 C101 0.929 . S
H72 C105 0.932 . S
H73 C102 0.931 . S
H74 C104 0.929 . S
H75 C107 0.929 . S
H76 C108 0.930 . S
H77 C110 0.929 . S
H78 C111 0.931 . S
H79 C113 0.930 . S
H80 C114 0.932 . S
H81 C116 0.931 . S
H82 C117 0.929 . S
H83 C119 0.929 . S
H84 C120 0.931 . S
H85 C122 0.929 . S
N86 C106 1.433 . S
N86 C112 1.435 . S
N86 C118 1.423 . S
H87 C123 0.932 . S
C88 N63 1.433 . S
C88 C89 1.363 . S
C88 C93 1.370 . S
C89 H62 0.929 . S
C89 C88 1.363 . S
C89 C90 1.385 . S
C90 H64 0.930 . S
C90 C89 1.385 . S
C90 C91 1.357 . S
C91 C90 1.357 . S
C91 C92 1.406 . S
C92 H66 0.929 . S
C92 C91 1.406 . S
C92 C93 1.391 . S
C93 H65 0.931 . S
C93 C88 1.370 . S
C93 C92 1.391 . S
C94 N63 1.435 . S
C94 C95 1.358 . S
C94 C99 1.371 . S
C95 H67 0.930 . S
C95 C94 1.358 . S
C95 C96 1.405 . S
C96 H68 0.932 . S
C96 C95 1.405 . S
C96 C97 1.383 . S
C97 C96 1.383 . S
C97 C98 1.393 . S
C98 H70 0.931 . S
C98 C97 1.393 . S
C98 C99 1.382 . S
C99 H69 0.929 . S
C99 C94 1.371 . S
C99 C98 1.382 . S
C100 N63 1.423 . S
C100 C101 1.362 . S
C100 C105 1.388 . S
C101 H71 0.929 . S
C101 C100 1.362 . S
C101 C102 1.376 . S
C102 H73 0.931 . S
C102 C101 1.376 . S
C102 C103 1.396 . S
C103 C102 1.396 . S
C103 C104 1.348 . S
C103 C121 1.472 . S
C104 H74 0.929 . S
C104 C103 1.348 . S
C104 C105 1.443 . S
C105 H72 0.932 . S
C105 C100 1.388 . S
C105 C104 1.443 . S
C106 N86 1.433 . S
C106 C107 1.363 . S
C106 C111 1.370 . S
C107 H75 0.929 . S
C107 C106 1.363 . S
C107 C108 1.385 . S
C108 H76 0.930 . S
C108 C107 1.385 . S
C108 C109 1.357 . S
C109 C108 1.357 . S
C109 C110 1.406 . S
C110 H77 0.929 . S
C110 C109 1.406 . S
C110 C111 1.391 . S
C111 H78 0.931 . S
C111 C106 1.370 . S
C111 C110 1.391 . S
C112 N86 1.435 . S
C112 C113 1.358 . S
C112 C117 1.371 . S
C113 H79 0.930 . S
C113 C112 1.358 . S
C113 C114 1.405 . S
C114 H80 0.932 . S
C114 C113 1.405 . S
C114 C115 1.383 . S
C115 C114 1.383 . S
C115 C116 1.393 . S
C116 H81 0.931 . S
C116 C115 1.393 . S
C116 C117 1.382 . S
C117 H82 0.929 . S
C117 C112 1.371 . S
C117 C116 1.382 . S
C118 N86 1.423 . S
C118 C119 1.362 . S
C118 C123 1.388 . S
C119 H83 0.929 . S
C119 C118 1.362 . S
C119 C120 1.376 . S
C120 H84 0.931 . S
C120 C119 1.376 . S
C120 C121 1.396 . S
C121 C103 1.472 . S
C121 C120 1.396 . S
C121 C122 1.348 . S
C122 H85 0.929 . S
C122 C121 1.348 . S
C122 C123 1.443 . S
C123 H87 0.932 . S
C123 C118 1.388 . S
C123 C122 1.443 . S
H124 C151 0.929 . S
N125 C150 1.416 1_545 S
N125 C156 1.435 . S
N125 C162 1.423 . S
H126 C152 0.930 . S
H127 C155 0.931 . S
H128 C154 0.929 . S
H129 C157 0.930 1_565 S
H130 C158 0.932 . S
H131 C161 0.929 . S
H132 C160 0.931 . S
H133 C163 0.929 . S
H134 C167 0.932 . S
H135 C164 0.931 . S
H136 C166 0.929 . S
H137 C169 0.929 . S
H138 C170 0.930 . S
H139 C172 0.929 . S
H140 C173 0.931 . S
H141 C175 0.930 1_565 S
H142 C176 0.932 . S
H143 C178 0.931 . S
H144 C179 0.929 . S
H145 C181 0.929 . S
H146 C182 0.931 . S
H147 C184 0.929 . S
N148 C168 1.417 1_545 S
N148 C174 1.435 . S
N148 C180 1.423 . S
H149 C185 0.932 . S
C150 N125 1.416 1_565 S
C150 C151 1.359 1_565 S
C150 C155 1.391 . S
C151 H124 0.929 . S
C151 C150 1.359 1_545 S
C151 C152 1.385 1_545 S
C152 H126 0.930 . S
C152 C151 1.385 1_565 S
C152 C153 1.357 . S
C153 C152 1.357 . S
C153 C154 1.406 . S
C154 H128 0.929 . S
C154 C153 1.406 . S
C154 C155 1.391 . S
C155 H127 0.931 . S
C155 C150 1.391 . S
C155 C154 1.391 . S
C156 N125 1.435 . S
C156 C157 1.358 . S
C156 C161 1.371 . S
C157 H129 0.930 1_545 S
C157 C156 1.358 . S
C157 C158 1.405 1_554 S
C158 H130 0.932 . S
C158 C157 1.405 1_556 S
C158 C159 1.383 . S
C159 C158 1.383 . S
C159 C160 1.393 . S
C160 H132 0.931 . S
C160 C159 1.393 . S
C160 C161 1.382 1_556 S
C161 H131 0.929 . S
C161 C156 1.371 . S
C161 C160 1.382 1_554 S
C162 N125 1.423 . S
C162 C163 1.362 . S
C162 C167 1.388 . S
C163 H133 0.929 . S
C163 C162 1.362 . S
C163 C164 1.376 . S
C164 H135 0.931 . S
C164 C163 1.376 . S
C164 C165 1.396 . S
C165 C164 1.396 . S
C165 C166 1.348 . S
C165 C183 1.472 . S
C166 H136 0.929 . S
C166 C165 1.348 . S
C166 C167 1.443 . S
C167 H134 0.932 . S
C167 C162 1.388 . S
C167 C166 1.443 . S
C168 N148 1.417 1_565 S
C168 C169 1.359 1_565 S
C168 C173 1.391 . S
C169 H137 0.929 . S
C169 C168 1.359 1_545 S
C169 C170 1.385 1_545 S
C170 H138 0.930 . S
C170 C169 1.385 1_565 S
C170 C171 1.357 . S
C171 C170 1.357 . S
C171 C172 1.406 . S
C172 H139 0.929 . S
C172 C171 1.406 . S
C172 C173 1.391 . S
C173 H140 0.931 . S
C173 C168 1.391 . S
C173 C172 1.391 . S
C174 N148 1.435 . S
C174 C175 1.358 . S
C174 C179 1.371 . S
C175 H141 0.930 1_545 S
C175 C174 1.358 . S
C175 C176 1.405 1_554 S
C176 H142 0.932 . S
C176 C175 1.405 1_556 S
C176 C177 1.383 . S
C177 C176 1.383 . S
C177 C178 1.393 . S
C178 H143 0.931 . S
C178 C177 1.393 . S
C178 C179 1.382 1_556 S
C179 H144 0.929 . S
C179 C174 1.371 . S
C179 C178 1.382 1_554 S
C180 N148 1.423 . S
C180 C181 1.362 . S
C180 C185 1.388 . S
C181 H145 0.929 . S
C181 C180 1.362 . S
C181 C182 1.376 . S
C182 H146 0.931 . S
C182 C181 1.376 . S
C182 C183 1.396 . S
C183 C165 1.472 . S
C183 C182 1.396 . S
C183 C184 1.348 . S
C184 H147 0.929 . S
C184 C183 1.348 . S
C184 C185 1.443 . S
C185 H149 0.932 . S
C185 C180 1.388 . S
C185 C184 1.443 . S
H186 C213 0.929 . S
N187 C212 1.433 . S
N187 C218 1.435 . S
N187 C224 1.423 . S
H188 C214 0.930 . S
H189 C217 0.931 . S
H190 C216 0.929 . S
H191 C219 0.930 . S
H192 C220 0.932 . S
H193 C223 0.929 . S
H194 C222 0.931 . S
H195 C225 0.929 . S
H196 C229 0.932 . S
H197 C226 0.931 . S
H198 C228 0.929 . S
H199 C231 0.929 . S
H200 C232 0.930 . S
H201 C234 0.929 . S
H202 C235 0.931 . S
H203 C237 0.930 . S
H204 C238 0.932 . S
H205 C240 0.931 . S
H206 C241 0.929 . S
H207 C243 0.929 . S
H208 C244 0.931 . S
H209 C246 0.929 . S
N210 C230 1.433 . S
N210 C236 1.435 . S
N210 C242 1.423 . S
H211 C247 0.932 . S
C212 N187 1.433 . S
C212 C213 1.363 . S
C212 C217 1.370 . S
C213 H186 0.929 . S
C213 C212 1.363 . S
C213 C214 1.385 . S
C214 H188 0.930 . S
C214 C213 1.385 . S
C214 C215 1.357 . S
C215 C214 1.357 . S
C215 C216 1.406 . S
C216 H190 0.929 . S
C216 C215 1.406 . S
C216 C217 1.391 . S
C217 H189 0.931 . S
C217 C212 1.370 . S
C217 C216 1.391 . S
C218 N187 1.435 . S
C218 C219 1.358 . S
C218 C223 1.371 . S
C219 H191 0.930 . S
C219 C218 1.358 . S
C219 C220 1.405 . S
C220 H192 0.932 . S
C220 C219 1.405 . S
C220 C221 1.383 . S
C221 C220 1.383 . S
C221 C222 1.393 . S
C222 H194 0.931 . S
C222 C221 1.393 . S
C222 C223 1.382 . S
C223 H193 0.929 . S
C223 C218 1.371 . S
C223 C222 1.382 . S
C224 N187 1.423 . S
C224 C225 1.362 . S
C224 C229 1.388 . S
C225 H195 0.929 . S
C225 C224 1.362 . S
C225 C226 1.376 . S
C226 H197 0.931 . S
C226 C225 1.376 . S
C226 C227 1.396 . S
C227 C226 1.396 . S
C227 C228 1.348 . S
C227 C245 1.472 . S
C228 H198 0.929 . S
C228 C227 1.348 . S
C228 C229 1.443 . S
C229 H196 0.932 . S
C229 C224 1.388 . S
C229 C228 1.443 . S
C230 N210 1.433 . S
C230 C231 1.363 . S
C230 C235 1.370 . S
C231 H199 0.929 . S
C231 C230 1.363 . S
C231 C232 1.385 . S
C232 H200 0.930 . S
C232 C231 1.385 . S
C232 C233 1.357 . S
C233 C232 1.357 . S
C233 C234 1.406 . S
C234 H201 0.929 . S
C234 C233 1.406 . S
C234 C235 1.391 . S
C235 H202 0.931 . S
C235 C230 1.370 . S
C235 C234 1.391 . S
C236 N210 1.435 . S
C236 C237 1.358 . S
C236 C241 1.371 . S
C237 H203 0.930 . S
C237 C236 1.358 . S
C237 C238 1.405 . S
C238 H204 0.932 . S
C238 C237 1.405 . S
C238 C239 1.383 . S
C239 C238 1.383 . S
C239 C240 1.393 . S
C240 H205 0.931 . S
C240 C239 1.393 . S
C240 C241 1.382 . S
C241 H206 0.929 . S
C241 C236 1.371 . S
C241 C240 1.382 . S
C242 N210 1.423 . S
C242 C243 1.362 . S
C242 C247 1.388 . S
C243 H207 0.929 . S
C243 C242 1.362 . S
C243 C244 1.376 . S
C244 H208 0.931 . S
C244 C243 1.376 . S
C244 C245 1.396 . S
C245 C227 1.472 . S
C245 C244 1.396 . S
C245 C246 1.348 . S
C246 H209 0.929 . S
C246 C245 1.348 . S
C246 C247 1.443 . S
C247 H211 0.932 . S
C247 C242 1.388 . S
C247 C246 1.443 . S
H248 C275 0.929 . S
N249 C274 1.433 . S
N249 C280 1.435 . S
N249 C286 1.423 . S
H250 C276 0.930 . S
H251 C279 0.931 . S
H252 C278 0.929 . S
H253 C281 0.930 . S
H254 C282 0.932 . S
H255 C285 0.929 . S
H256 C284 0.931 . S
H257 C287 0.929 . S
H258 C291 0.932 . S
H259 C288 0.931 . S
H260 C290 0.929 . S
H261 C293 0.929 . S
H262 C294 0.930 . S
H263 C296 0.929 . S
H264 C297 0.931 . S
H265 C299 0.930 . S
H266 C300 0.932 . S
H267 C302 0.931 . S
H268 C303 0.929 . S
H269 C305 0.929 . S
H270 C306 0.931 . S
H271 C308 0.929 . S
N272 C292 1.433 . S
N272 C298 1.435 . S
N272 C304 1.423 . S
H273 C309 0.932 . S
C274 N249 1.433 . S
C274 C275 1.363 1_545 S
C274 C279 1.370 . S
C275 H248 0.929 . S
C275 C274 1.363 1_565 S
C275 C276 1.385 . S
C276 H250 0.930 . S
C276 C275 1.385 . S
C276 C277 1.357 . S
C277 C276 1.357 . S
C277 C278 1.406 1_565 S
C278 H252 0.929 . S
C278 C277 1.406 1_545 S
C278 C279 1.391 . S
C279 H251 0.931 . S
C279 C274 1.370 . S
C279 C278 1.391 . S
C280 N249 1.435 . S
C280 C281 1.358 1_545 S
C280 C285 1.371 . S
C281 H253 0.930 . S
C281 C280 1.358 1_565 S
C281 C282 1.405 . S
C282 H254 0.932 . S
C282 C281 1.405 . S
C282 C283 1.383 . S
C283 C282 1.383 . S
C283 C284 1.393 . S
C284 H256 0.931 . S
C284 C283 1.393 . S
C284 C285 1.382 1_565 S
C285 H255 0.929 . S
C285 C280 1.371 . S
C285 C284 1.382 1_545 S
C286 N249 1.423 . S
C286 C287 1.362 . S
C286 C291 1.388 . S
C287 H257 0.929 . S
C287 C286 1.362 . S
C287 C288 1.376 . S
C288 H259 0.931 . S
C288 C287 1.376 . S
C288 C289 1.396 . S
C289 C288 1.396 . S
C289 C290 1.348 . S
C289 C307 1.472 . S
C290 H260 0.929 . S
C290 C289 1.348 . S
C290 C291 1.443 . S
C291 H258 0.932 . S
C291 C286 1.388 . S
C291 C290 1.443 . S
C292 N272 1.433 . S
C292 C293 1.363 . S
C292 C297 1.370 . S
C293 H261 0.929 . S
C293 C292 1.363 . S
C293 C294 1.385 . S
C294 H262 0.930 . S
C294 C293 1.385 . S
C294 C295 1.357 . S
C295 C294 1.357 . S
C295 C296 1.406 . S
C296 H263 0.929 . S
C296 C295 1.406 . S
C296 C297 1.391 . S
C297 H264 0.931 . S
C297 C292 1.370 . S
C297 C296 1.391 . S
C298 N272 1.435 . S
C298 C299 1.358 . S
C298 C303 1.371 . S
C299 H265 0.930 . S
C299 C298 1.358 . S
C299 C300 1.405 . S
C300 H266 0.932 . S
C300 C299 1.405 . S
C300 C301 1.383 . S
C301 C300 1.383 . S
C301 C302 1.393 . S
C302 H267 0.931 . S
C302 C301 1.393 . S
C302 C303 1.382 . S
C303 H268 0.929 . S
C303 C298 1.371 . S
C303 C302 1.382 . S
C304 N272 1.423 . S
C304 C305 1.362 . S
C304 C309 1.388 . S
C305 H269 0.929 . S
C305 C304 1.362 . S
C305 C306 1.376 . S
C306 H270 0.931 . S
C306 C305 1.376 . S
C306 C307 1.396 . S
C307 C289 1.472 . S
C307 C306 1.396 . S
C307 C308 1.348 . S
C308 H271 0.929 . S
C308 C307 1.348 . S
C308 C309 1.443 . S
C309 H273 0.932 . S
C309 C304 1.388 . S
C309 C308 1.443 . S
H310 C337 0.929 . S
N311 C336 1.433 . S
N311 C342 1.435 . S
N311 C348 1.423 . S
H312 C338 0.930 . S
H313 C341 0.931 . S
H314 C340 0.929 . S
H315 C343 0.930 . S
H316 C344 0.932 . S
H317 C347 0.929 . S
H318 C346 0.931 . S
H319 C349 0.929 . S
H320 C353 0.932 . S
H321 C350 0.931 . S
H322 C352 0.929 . S
H323 C355 0.929 . S
H324 C356 0.930 . S
H325 C358 0.929 . S
H326 C359 0.931 . S
H327 C361 0.930 . S
H328 C362 0.932 . S
H329 C364 0.931 . S
H330 C365 0.929 . S
H331 C367 0.929 . S
H332 C368 0.931 . S
H333 C370 0.929 . S
N334 C354 1.433 . S
N334 C360 1.435 . S
N334 C366 1.423 . S
H335 C371 0.932 . S
C336 N311 1.433 . S
C336 C337 1.363 1_565 S
C336 C341 1.370 . S
C337 H310 0.929 . S
C337 C336 1.363 1_545 S
C337 C338 1.385 . S
C338 H312 0.930 . S
C338 C337 1.385 . S
C338 C339 1.357 . S
C339 C338 1.357 . S
C339 C340 1.406 1_545 S
C340 H314 0.929 . S
C340 C339 1.406 1_565 S
C340 C341 1.391 . S
C341 H313 0.931 . S
C341 C336 1.370 . S
C341 C340 1.391 . S
C342 N311 1.435 . S
C342 C343 1.358 1_565 S
C342 C347 1.371 . S
C343 H315 0.930 . S
C343 C342 1.358 1_545 S
C343 C344 1.405 . S
C344 H316 0.932 . S
C344 C343 1.405 . S
C344 C345 1.383 . S
C345 C344 1.383 . S
C345 C346 1.393 . S
C346 H318 0.931 . S
C346 C345 1.393 . S
C346 C347 1.382 1_545 S
C347 H317 0.929 . S
C347 C342 1.371 . S
C347 C346 1.382 1_565 S
C348 N311 1.423 . S
C348 C349 1.362 . S
C348 C353 1.388 . S
C349 H319 0.929 . S
C349 C348 1.362 . S
C349 C350 1.376 . S
C350 H321 0.931 . S
C350 C349 1.376 . S
C350 C351 1.396 . S
C351 C350 1.396 . S
C351 C352 1.348 . S
C351 C369 1.472 . S
C352 H322 0.929 . S
C352 C351 1.348 . S
C352 C353 1.443 . S
C353 H320 0.932 . S
C353 C348 1.388 . S
C353 C352 1.443 . S
C354 N334 1.433 . S
C354 C355 1.363 . S
C354 C359 1.370 . S
C355 H323 0.929 . S
C355 C354 1.363 . S
C355 C356 1.385 . S
C356 H324 0.930 . S
C356 C355 1.385 . S
C356 C357 1.357 . S
C357 C356 1.357 . S
C357 C358 1.406 . S
C358 H325 0.929 . S
C358 C357 1.406 . S
C358 C359 1.391 . S
C359 H326 0.931 . S
C359 C354 1.370 . S
C359 C358 1.391 . S
C360 N334 1.435 . S
C360 C361 1.358 . S
C360 C365 1.371 . S
C361 H327 0.930 . S
C361 C360 1.358 . S
C361 C362 1.405 . S
C362 H328 0.932 . S
C362 C361 1.405 . S
C362 C363 1.383 . S
C363 C362 1.383 . S
C363 C364 1.393 . S
C364 H329 0.931 . S
C364 C363 1.393 . S
C364 C365 1.382 . S
C365 H330 0.929 . S
C365 C360 1.371 . S
C365 C364 1.382 . S
C366 N334 1.423 . S
C366 C367 1.362 . S
C366 C371 1.388 . S
C367 H331 0.929 . S
C367 C366 1.362 . S
C367 C368 1.376 . S
C368 H332 0.931 . S
C368 C367 1.376 . S
C368 C369 1.396 . S
C369 C351 1.472 . S
C369 C368 1.396 . S
C369 C370 1.348 . S
C370 H333 0.929 . S
C370 C369 1.348 . S
C370 C371 1.443 . S
C371 H335 0.932 . S
C371 C366 1.388 . S
C371 C370 1.443 . S
H372 C399 0.941 . S
N373 C398 1.433 . S
N373 C404 1.435 . S
N373 C410 1.423 . S
H374 C400 0.930 . S
H375 C403 0.936 . S
H376 C402 0.929 . S
H377 C405 0.930 . S
H378 C406 0.932 . S
H379 C409 0.929 . S
H380 C408 0.931 . S
H381 C411 0.929 1_556 S
H382 C415 0.932 . S
H383 C412 0.931 1_556 S
H384 C414 0.929 . S
H385 C417 0.942 . S
H386 C418 0.930 . S
H387 C420 0.929 . S
H388 C421 0.935 . S
H389 C423 0.930 . S
H390 C424 0.932 . S
H391 C426 0.931 . S
H392 C427 0.929 . S
H393 C429 0.929 1_556 S
H394 C430 0.931 1_556 S
H395 C432 0.929 . S
N396 C416 1.433 . S
N396 C422 1.435 . S
N396 C428 1.423 . S
H397 C433 0.932 . S
C398 N373 1.433 . S
C398 C399 1.363 1_554 S
C398 C403 1.373 . S
C399 H372 0.941 . S
C399 C398 1.363 1_556 S
C399 C400 1.385 . S
C400 H374 0.930 . S
C400 C399 1.385 . S
C400 C401 1.357 . S
C401 C400 1.357 . S
C401 C402 1.406 . S
C402 H376 0.929 . S
C402 C401 1.406 . S
C402 C403 1.384 1_556 S
C403 H375 0.936 . S
C403 C398 1.373 . S
C403 C402 1.384 1_554 S
C404 N373 1.435 . S
C404 C405 1.358 . S
C404 C409 1.371 . S
C405 H377 0.930 . S
C405 C404 1.358 . S
C405 C406 1.405 . S
C406 H378 0.932 . S
C406 C405 1.405 . S
C406 C407 1.383 . S
C407 C406 1.383 . S
C407 C408 1.393 . S
C408 H380 0.931 . S
C408 C407 1.393 . S
C408 C409 1.382 . S
C409 H379 0.929 . S
C409 C404 1.371 . S
C409 C408 1.382 . S
C410 N373 1.423 . S
C410 C411 1.362 . S
C410 C415 1.388 . S
C411 H381 0.929 1_554 S
C411 C410 1.362 . S
C411 C412 1.376 . S
C412 H383 0.931 1_554 S
C412 C411 1.376 . S
C412 C413 1.396 . S
C413 C412 1.396 . S
C413 C414 1.348 . S
C413 C431 1.472 . S
C414 H384 0.929 . S
C414 C413 1.348 . S
C414 C415 1.443 . S
C415 H382 0.932 . S
C415 C410 1.388 . S
C415 C414 1.443 . S
C416 N396 1.433 . S
C416 C417 1.363 1_554 S
C416 C421 1.372 . S
C417 H385 0.942 . S
C417 C416 1.363 1_556 S
C417 C418 1.385 . S
C418 H386 0.930 . S
C418 C417 1.385 . S
C418 C419 1.357 . S
C419 C418 1.357 . S
C419 C420 1.406 . S
C420 H387 0.929 . S
C420 C419 1.406 . S
C420 C421 1.386 1_556 S
C421 H388 0.935 . S
C421 C416 1.372 . S
C421 C420 1.386 1_554 S
C422 N396 1.435 . S
C422 C423 1.358 . S
C422 C427 1.371 . S
C423 H389 0.930 . S
C423 C422 1.358 . S
C423 C424 1.405 . S
C424 H390 0.932 . S
C424 C423 1.405 . S
C424 C425 1.383 . S
C425 C424 1.383 . S
C425 C426 1.393 . S
C426 H391 0.931 . S
C426 C425 1.393 . S
C426 C427 1.382 . S
C427 H392 0.929 . S
C427 C422 1.371 . S
C427 C426 1.382 . S
C428 N396 1.423 . S
C428 C429 1.362 . S
C428 C433 1.388 . S
C429 H393 0.929 1_554 S
C429 C428 1.362 . S
C429 C430 1.376 . S
C430 H394 0.931 1_554 S
C430 C429 1.376 . S
C430 C431 1.396 . S
C431 C413 1.472 . S
C431 C430 1.396 . S
C431 C432 1.348 . S
C432 H395 0.929 . S
C432 C431 1.348 . S
C432 C433 1.443 . S
C433 H397 0.932 . S
C433 C428 1.388 . S
C433 C432 1.443 . S
H434 C461 0.929 . S
N435 C460 1.433 . S
N435 C466 1.435 . S
N435 C472 1.423 . S
H436 C462 0.930 . S
H437 C465 0.931 . S
H438 C464 0.929 . S
H439 C467 0.930 . S
H440 C468 0.932 . S
H441 C471 0.929 . S
H442 C470 0.931 . S
H443 C473 0.929 . S
H444 C477 0.932 . S
H445 C474 0.931 . S
H446 C476 0.929 . S
H447 C479 0.929 . S
H448 C480 0.930 . S
H449 C482 0.929 . S
H450 C483 0.931 1_455 S
H451 C485 0.930 . S
H452 C486 0.932 . S
H453 C488 0.931 . S
H454 C489 0.929 . S
H455 C491 0.929 . S
H456 C492 0.931 . S
H457 C494 0.929 . S
N458 C478 1.433 . S
N458 C484 1.435 . S
N458 C490 1.423 1_655 S
H459 C495 0.932 . S
C460 N435 1.433 . S
C460 C461 1.363 . S
C460 C465 1.370 . S
C461 H434 0.929 . S
C461 C460 1.363 . S
C461 C462 1.385 . S
C462 H436 0.930 . S
C462 C461 1.385 . S
C462 C463 1.357 . S
C463 C462 1.357 . S
C463 C464 1.406 . S
C464 H438 0.929 . S
C464 C463 1.406 . S
C464 C465 1.391 . S
C465 H437 0.931 . S
C465 C460 1.370 . S
C465 C464 1.391 . S
C466 N435 1.435 . S
C466 C467 1.358 . S
C466 C471 1.371 . S
C467 H439 0.930 . S
C467 C466 1.358 . S
C467 C468 1.405 . S
C468 H440 0.932 . S
C468 C467 1.405 . S
C468 C469 1.383 . S
C469 C468 1.383 . S
C469 C470 1.393 . S
C470 H442 0.931 . S
C470 C469 1.393 . S
C470 C471 1.382 . S
C471 H441 0.929 . S
C471 C466 1.371 . S
C471 C470 1.382 . S
C472 N435 1.423 . S
C472 C473 1.362 . S
C472 C477 1.388 . S
C473 H443 0.929 . S
C473 C472 1.362 . S
C473 C474 1.376 . S
C474 H445 0.931 . S
C474 C473 1.376 . S
C474 C475 1.396 . S
C475 C474 1.396 . S
C475 C476 1.348 . S
C475 C493 1.472 . S
C476 H446 0.929 . S
C476 C475 1.348 . S
C476 C477 1.443 . S
C477 H444 0.932 . S
C477 C472 1.388 . S
C477 C476 1.443 . S
C478 N458 1.433 . S
C478 C479 1.363 . S
C478 C483 1.370 . S
C479 H447 0.929 . S
C479 C478 1.363 . S
C479 C480 1.385 . S
C480 H448 0.930 . S
C480 C479 1.385 . S
C480 C481 1.357 . S
C481 C480 1.357 . S
C481 C482 1.406 . S
C482 H449 0.929 . S
C482 C481 1.406 . S
C482 C483 1.391 . S
C483 H450 0.931 1_655 S
C483 C478 1.370 . S
C483 C482 1.391 . S
C484 N458 1.435 . S
C484 C485 1.358 . S
C484 C489 1.371 . S
C485 H451 0.930 . S
C485 C484 1.358 . S
C485 C486 1.405 . S
C486 H452 0.932 . S
C486 C485 1.405 . S
C486 C487 1.383 . S
C487 C486 1.383 . S
C487 C488 1.393 . S
C488 H453 0.931 . S
C488 C487 1.393 . S
C488 C489 1.382 . S
C489 H454 0.929 . S
C489 C484 1.371 . S
C489 C488 1.382 . S
C490 N458 1.423 1_455 S
C490 C491 1.362 . S
C490 C495 1.388 . S
C491 H455 0.929 . S
C491 C490 1.362 . S
C491 C492 1.376 . S
C492 H456 0.931 . S
C492 C491 1.376 . S
C492 C493 1.396 . S
C493 C475 1.472 . S
C493 C492 1.396 . S
C493 C494 1.348 . S
C494 H457 0.929 . S
C494 C493 1.348 . S
C494 C495 1.443 . S
C495 H459 0.932 . S
C495 C490 1.388 . S
C495 C494 1.443 . S
C496 O523 1.312 . S
C496 O524 1.208 . S
C497 O518 1.331 1_655 S
C497 O521 1.244 . S
C498 O520 1.264 1_655 S
C498 O522 1.273 . S
Mg499 O501 1.936 . S
Mg499 O508 2.081 . S
Mg499 O510 2.023 . S
Mg499 O514 2.031 . S
Mg499 O523 2.291 . S
Mg500 O501 1.963 . S
Mg500 O511 1.942 . S
Mg500 O512 1.955 . S
Mg500 O519 1.986 . S
O501 Mg499 1.936 . S
O501 Mg500 1.963 . S
O501 Mg502 1.915 . S
Mg502 O501 1.915 . S
Mg502 O503 1.915 . S
Mg502 O507 2.013 . S
Mg502 O513 2.114 . S
Mg502 O517 2.013 . S
Mg502 O523 2.114 . S
O503 Mg502 1.915 . S
O503 Mg504 1.936 . S
O503 Mg505 1.963 1_455 S
Mg504 O503 1.936 . S
Mg504 O513 2.291 . S
Mg504 O518 2.081 . S
Mg504 O520 2.023 . S
Mg504 O524 2.031 . S
Mg505 O503 1.963 1_655 S
Mg505 O509 1.986 . S
Mg505 O521 1.942 . S
Mg505 O522 1.955 . S
C506 O517 1.191 . S
C506 O519 1.307 . S
O507 Mg502 2.013 . S
O507 C526 1.191 . S
O508 Mg499 2.081 . S
O508 C516 1.331 . S
O509 Mg505 1.986 . S
O509 C526 1.307 1_655 S
O510 Mg499 2.023 . S
O510 C525 1.264 . S
O511 Mg500 1.942 . S
O511 C516 1.244 . S
O512 Mg500 1.955 . S
O512 C525 1.273 . S
O513 Mg502 2.114 . S
O513 Mg504 2.291 . S
O513 C515 1.312 . S
O514 Mg499 2.031 . S
O514 C515 1.208 . S
C515 O513 1.312 . S
C515 O514 1.208 . S
C516 O508 1.331 . S
C516 O511 1.244 . S
O517 Mg502 2.013 . S
O517 C506 1.191 . S
O518 C497 1.331 1_455 S
O518 Mg504 2.081 . S
O519 Mg500 1.986 . S
O519 C506 1.307 . S
O520 C498 1.264 1_455 S
O520 Mg504 2.023 . S
O521 C497 1.244 . S
O521 Mg505 1.942 . S
O522 C498 1.273 . S
O522 Mg505 1.955 . S
O523 C496 1.312 . S
O523 Mg499 2.291 . S
O523 Mg502 2.114 . S
O524 C496 1.208 . S
O524 Mg504 2.031 . S
C525 O510 1.264 . S
C525 O512 1.273 . S
C526 O507 1.191 . S
C526 O509 1.307 1_455 S
C527 O554 1.312 . S
C527 O555 1.208 . S
C528 O549 1.331 . S
C528 O552 1.244 . S
C529 O551 1.264 . S
C529 O553 1.273 . S
Mg530 O532 1.936 . S
Mg530 O539 2.081 . S
Mg530 O541 2.023 . S
Mg530 O545 2.031 . S
Mg530 O554 2.291 . S
Mg531 O532 1.963 . S
Mg531 O542 1.942 . S
Mg531 O543 1.955 . S
Mg531 O550 1.986 . S
O532 Mg530 1.936 . S
O532 Mg531 1.963 . S
O532 Mg533 1.915 . S
Mg533 O532 1.915 . S
Mg533 O534 1.915 . S
Mg533 O538 2.013 . S
Mg533 O544 2.114 . S
Mg533 O548 2.013 . S
Mg533 O554 2.114 . S
O534 Mg533 1.915 . S
O534 Mg535 1.936 . S
O534 Mg536 1.963 . S
Mg535 O534 1.936 . S
Mg535 O544 2.291 . S
Mg535 O549 2.081 . S
Mg535 O551 2.023 . S
Mg535 O555 2.031 . S
Mg536 O534 1.963 . S
Mg536 O540 1.986 . S
Mg536 O552 1.942 . S
Mg536 O553 1.955 . S
C537 O548 1.191 . S
C537 O550 1.307 . S
O538 Mg533 2.013 . S
O538 C557 1.191 . S
O539 Mg530 2.081 . S
O539 C547 1.331 . S
O540 Mg536 1.986 . S
O540 C557 1.307 . S
O541 Mg530 2.023 . S
O541 C556 1.264 . S
O542 Mg531 1.942 . S
O542 C547 1.244 . S
O543 Mg531 1.955 . S
O543 C556 1.273 . S
O544 Mg533 2.114 . S
O544 Mg535 2.291 . S
O544 C546 1.312 . S
O545 Mg530 2.031 . S
O545 C546 1.208 . S
C546 O544 1.312 . S
C546 O545 1.208 . S
C547 O539 1.331 . S
C547 O542 1.244 . S
O548 Mg533 2.013 . S
O548 C537 1.191 . S
O549 C528 1.331 . S
O549 Mg535 2.081 . S
O550 Mg531 1.986 . S
O550 C537 1.307 . S
O551 C529 1.264 . S
O551 Mg535 2.023 . S
O552 C528 1.244 . S
O552 Mg536 1.942 . S
O553 C529 1.273 . S
O553 Mg536 1.955 . S
O554 C527 1.312 . S
O554 Mg530 2.291 . S
O554 Mg533 2.114 . S
O555 C527 1.208 . S
O555 Mg535 2.031 . S
C556 O541 1.264 . S
C556 O543 1.273 . S
C557 O538 1.191 . S
C557 O540 1.307 . S
C558 O585 1.312 . S
C558 O586 1.208 . S
C559 O580 1.331 . S
C559 O583 1.244 . S
C560 O582 1.264 . S
C560 O584 1.273 . S
Mg561 O563 1.936 . S
Mg561 O570 2.081 . S
Mg561 O572 2.023 . S
Mg561 O576 2.031 . S
Mg561 O585 2.291 . S
Mg562 O563 1.963 . S
Mg562 O573 1.942 . S
Mg562 O574 1.955 . S
Mg562 O581 1.986 . S
O563 Mg561 1.936 . S
O563 Mg562 1.963 . S
O563 Mg564 1.915 . S
Mg564 O563 1.915 . S
Mg564 O565 1.915 . S
Mg564 O569 2.013 . S
Mg564 O575 2.114 . S
Mg564 O579 2.013 . S
Mg564 O585 2.114 . S
O565 Mg564 1.915 . S
O565 Mg566 1.936 . S
O565 Mg567 1.963 . S
Mg566 O565 1.936 . S
Mg566 O575 2.291 . S
Mg566 O580 2.081 . S
Mg566 O582 2.023 . S
Mg566 O586 2.031 . S
Mg567 O565 1.963 . S
Mg567 O571 1.986 . S
Mg567 O583 1.942 . S
Mg567 O584 1.955 . S
C568 O579 1.191 . S
C568 O581 1.307 . S
O569 Mg564 2.013 . S
O569 C588 1.191 . S
O570 Mg561 2.081 . S
O570 C578 1.331 . S
O571 Mg567 1.986 . S
O571 C588 1.307 . S
O572 Mg561 2.023 . S
O572 C587 1.264 . S
O573 Mg562 1.942 . S
O573 C578 1.244 . S
O574 Mg562 1.955 . S
O574 C587 1.273 . S
O575 Mg564 2.114 . S
O575 Mg566 2.291 . S
O575 C577 1.312 . S
O576 Mg561 2.031 . S
O576 C577 1.208 . S
C577 O575 1.312 . S
C577 O576 1.208 . S
C578 O570 1.331 . S
C578 O573 1.244 . S
O579 Mg564 2.013 . S
O579 C568 1.191 . S
O580 C559 1.331 . S
O580 Mg566 2.081 . S
O581 Mg562 1.986 . S
O581 C568 1.307 . S
O582 C560 1.264 . S
O582 Mg566 2.023 . S
O583 C559 1.244 . S
O583 Mg567 1.942 . S
O584 C560 1.273 . S
O584 Mg567 1.955 . S
O585 C558 1.312 . S
O585 Mg561 2.291 . S
O585 Mg564 2.114 . S
O586 C558 1.208 . S
O586 Mg566 2.031 . S
C587 O572 1.264 . S
C587 O574 1.273 . S
C588 O569 1.191 . S
C588 O571 1.307 . S
C589 O616 1.312 . S
C589 O617 1.208 . S
C590 O611 1.331 . S
C590 O614 1.244 . S
C591 O613 1.264 . S
C591 O615 1.273 . S
Mg592 O594 1.936 . S
Mg592 O601 2.081 . S
Mg592 O603 2.023 . S
Mg592 O607 2.031 . S
Mg592 O616 2.291 . S
Mg593 O594 1.963 1_655 S
Mg593 O604 1.942 . S
Mg593 O605 1.955 . S
Mg593 O612 1.986 . S
O594 Mg592 1.936 . S
O594 Mg593 1.963 1_455 S
O594 Mg595 1.915 . S
Mg595 O594 1.915 . S
Mg595 O596 1.915 . S
Mg595 O600 2.013 . S
Mg595 O606 2.114 . S
Mg595 O610 2.013 . S
Mg595 O616 2.114 . S
O596 Mg595 1.915 . S
O596 Mg597 1.936 . S
O596 Mg598 1.963 . S
Mg597 O596 1.936 . S
Mg597 O606 2.291 . S
Mg597 O611 2.081 . S
Mg597 O613 2.023 . S
Mg597 O617 2.031 . S
Mg598 O596 1.963 . S
Mg598 O602 1.986 . S
Mg598 O614 1.942 . S
Mg598 O615 1.955 . S
C599 O610 1.191 . S
C599 O612 1.307 1_455 S
O600 Mg595 2.013 . S
O600 C619 1.191 . S
O601 Mg592 2.081 . S
O601 C609 1.331 1_455 S
O602 Mg598 1.986 . S
O602 C619 1.307 . S
O603 Mg592 2.023 . S
O603 C618 1.264 1_455 S
O604 Mg593 1.942 . S
O604 C609 1.244 . S
O605 Mg593 1.955 . S
O605 C618 1.273 . S
O606 Mg595 2.114 . S
O606 Mg597 2.291 . S
O606 C608 1.312 . S
O607 Mg592 2.031 . S
O607 C608 1.208 . S
C608 O606 1.312 . S
C608 O607 1.208 . S
C609 O601 1.331 1_655 S
C609 O604 1.244 . S
O610 Mg595 2.013 . S
O610 C599 1.191 . S
O611 C590 1.331 . S
O611 Mg597 2.081 . S
O612 Mg593 1.986 . S
O612 C599 1.307 1_655 S
O613 C591 1.264 . S
O613 Mg597 2.023 . S
O614 C590 1.244 . S
O614 Mg598 1.942 . S
O615 C591 1.273 . S
O615 Mg598 1.955 . S
O616 C589 1.312 . S
O616 Mg592 2.291 . S
O616 Mg595 2.114 . S
O617 C589 1.208 . S
O617 Mg597 2.031 . S
C618 O603 1.264 1_655 S
C618 O605 1.273 . S
C619 O600 1.191 . S
C619 O602 1.307 . S
H620 C626 0.930 . S
H621 C630 0.930 . S
H622 C635 0.929 . S
H623 C633 0.929 . S
H624 C628 0.929 . S
H625 C634 0.929 . S
C626 H620 0.930 . S
C626 C627 1.367 . S
C626 C634 1.378 . S
C627 C626 1.367 . S
C627 C635 1.433 . S
C628 H624 0.929 . S
C628 C630 1.378 . S
C628 C632 1.350 . S
C629 C632 1.463 . S
C629 C634 1.350 . S
C629 N637 1.427 . S
C630 H621 0.930 . S
C630 C628 1.378 . S
C630 C631 1.367 . S
C631 C630 1.367 . S
C631 C633 1.433 . S
C632 C628 1.350 . S
C632 C629 1.463 . S
C632 N636 1.427 . S
C633 H623 0.929 . S
C633 C631 1.433 . S
C633 N636 1.384 . S
C634 H625 0.929 . S
C634 C626 1.378 . S
C634 C629 1.350 . S
C635 H622 0.929 . S
C635 C627 1.433 . S
C635 N637 1.384 . S
N636 C632 1.427 . S
N636 C633 1.384 . S
N637 C629 1.427 . S
N637 C635 1.384 . S
H638 C644 0.930 . S
H639 C648 0.930 . S
H640 C653 0.929 . S
H641 C651 0.929 . S
H642 C646 0.929 . S
H643 C652 0.929 . S
C644 H638 0.930 . S
C644 C645 1.367 . S
C644 C652 1.378 . S
C645 C644 1.367 . S
C645 C653 1.433 1_565 S
C646 H642 0.929 . S
C646 C648 1.378 . S
C646 C650 1.350 . S
C647 C650 1.463 . S
C647 C652 1.350 1_545 S
C647 N655 1.427 . S
C648 H639 0.930 . S
C648 C646 1.378 . S
C648 C649 1.367 . S
C649 C648 1.367 . S
C649 C651 1.433 . S
C650 C646 1.350 . S
C650 C647 1.463 . S
C650 N654 1.427 . S
C651 H641 0.929 . S
C651 C649 1.433 . S
C651 N654 1.384 . S
C652 H643 0.929 . S
C652 C644 1.378 . S
C652 C647 1.350 1_565 S
C653 H640 0.929 . S
C653 C645 1.433 1_545 S
C653 N655 1.384 . S
N654 C650 1.427 . S
N654 C651 1.384 . S
N655 C647 1.427 . S
N655 C653 1.384 . S
H656 C662 0.930 . S
H657 C666 0.930 . S
H658 C671 0.929 . S
H659 C669 0.929 . S
H660 C664 0.929 . S
H661 C670 0.929 . S
C662 H656 0.930 . S
C662 C663 1.367 . S
C662 C670 1.378 . S
C663 C662 1.367 . S
C663 C671 1.433 . S
C664 H660 0.929 . S
C664 C666 1.378 . S
C664 C668 1.350 . S
C665 C668 1.463 . S
C665 C670 1.350 . S
C665 N673 1.427 . S
C666 H657 0.930 . S
C666 C664 1.378 . S
C666 C667 1.367 . S
C667 C666 1.367 . S
C667 C669 1.433 . S
C668 C664 1.350 . S
C668 C665 1.463 . S
C668 N672 1.427 . S
C669 H659 0.929 . S
C669 C667 1.433 . S
C669 N672 1.384 . S
C670 H661 0.929 . S
C670 C662 1.378 . S
C670 C665 1.350 . S
C671 H658 0.929 . S
C671 C663 1.433 . S
C671 N673 1.384 . S
N672 C668 1.427 . S
N672 C669 1.384 . S
N673 C665 1.427 . S
N673 C671 1.384 . S
H674 C680 0.930 . S
H675 C684 0.930 . S
H676 C689 0.929 . S
H677 C687 0.929 . S
H678 C682 0.929 . S
H679 C688 0.929 . S
C680 H674 0.930 . S
C680 C681 1.367 . S
C680 C688 1.378 . S
C681 C680 1.367 . S
C681 C689 1.433 1_545 S
C682 H678 0.929 . S
C682 C684 1.378 . S
C682 C686 1.350 . S
C683 C686 1.463 . S
C683 C688 1.350 1_565 S
C683 N691 1.427 . S
C684 H675 0.930 . S
C684 C682 1.378 . S
C684 C685 1.367 . S
C685 C684 1.367 . S
C685 C687 1.433 . S
C686 C682 1.350 . S
C686 C683 1.463 . S
C686 N690 1.427 . S
C687 H677 0.929 . S
C687 C685 1.433 . S
C687 N690 1.384 . S
C688 H679 0.929 . S
C688 C680 1.378 . S
C688 C683 1.350 1_545 S
C689 H676 0.929 . S
C689 C681 1.433 1_565 S
C689 N691 1.384 . S
N690 C686 1.427 . S
N690 C687 1.384 . S
N691 C683 1.427 . S
N691 C689 1.384 . S
H692 C698 0.930 . S
H693 C702 0.930 . S
H694 C707 0.929 . S
H695 C705 0.929 . S
H696 C700 0.929 . S
H697 C706 0.929 . S
C698 H692 0.930 . S
C698 C699 1.367 . S
C698 C706 1.378 . S
C699 C698 1.367 . S
C699 C707 1.433 . S
C700 H696 0.929 . S
C700 C702 1.378 . S
C700 C704 1.350 . S
C701 C704 1.463 . S
C701 C706 1.350 . S
C701 N709 1.427 . S
C702 H693 0.930 . S
C702 C700 1.378 . S
C702 C703 1.367 . S
C703 C702 1.367 . S
C703 C705 1.433 . S
C704 C700 1.350 . S
C704 C701 1.463 . S
C704 N708 1.427 . S
C705 H695 0.929 . S
C705 C703 1.433 . S
C705 N708 1.384 . S
C706 H697 0.929 . S
C706 C698 1.378 . S
C706 C701 1.350 . S
C707 H694 0.929 . S
C707 C699 1.433 . S
C707 N709 1.384 . S
N708 C704 1.427 . S
N708 C705 1.384 . S
N709 C701 1.427 . S
N709 C707 1.384 . S
H710 C716 0.930 . S
H711 C720 0.930 . S
H712 C725 0.929 . S
H713 C723 0.929 . S
H714 C718 0.929 . S
H715 C724 0.929 . S
C716 H710 0.930 . S
C716 C717 1.367 . S
C716 C724 1.378 1_565 S
C717 C716 1.367 . S
C717 C725 1.433 . S
C718 H714 0.929 . S
C718 C720 1.378 . S
C718 C722 1.350 . S
C719 C722 1.463 . S
C719 C724 1.350 . S
C719 N727 1.427 1_545 S
C720 H711 0.930 . S
C720 C718 1.378 . S
C720 C721 1.367 . S
C721 C720 1.367 . S
C721 C723 1.433 . S
C722 C718 1.350 . S
C722 C719 1.463 . S
C722 N726 1.427 . S
C723 H713 0.929 . S
C723 C721 1.433 . S
C723 N726 1.384 . S
C724 H715 0.929 . S
C724 C716 1.378 1_545 S
C724 C719 1.350 . S
C725 H712 0.929 . S
C725 C717 1.433 . S
C725 N727 1.384 . S
N726 C722 1.427 . S
N726 C723 1.384 . S
N727 C719 1.427 1_565 S
N727 C725 1.384 . S
H728 C734 0.930 . S
H729 C738 0.930 . S
H730 C743 0.929 . S
H731 C741 0.929 . S
H732 C736 0.929 . S
H733 C742 0.929 . S
C734 H728 0.930 . S
C734 C735 1.367 . S
C734 C742 1.378 . S
C735 C734 1.367 . S
C735 C743 1.433 . S
C736 H732 0.929 . S
C736 C738 1.378 . S
C736 C740 1.350 . S
C737 C740 1.463 . S
C737 C742 1.350 . S
C737 N745 1.427 . S
C738 H729 0.930 . S
C738 C736 1.378 . S
C738 C739 1.367 . S
C739 C738 1.367 . S
C739 C741 1.433 . S
C740 C736 1.350 . S
C740 C737 1.463 . S
C740 N744 1.427 . S
C741 H731 0.929 . S
C741 C739 1.433 . S
C741 N744 1.384 . S
C742 H733 0.929 . S
C742 C734 1.378 . S
C742 C737 1.350 . S
C743 H730 0.929 . S
C743 C735 1.433 . S
C743 N745 1.384 . S
N744 C740 1.427 . S
N744 C741 1.384 . S
N745 C737 1.427 . S
N745 C743 1.384 . S
H746 C752 0.930 . S
H747 C756 0.930 . S
H748 C761 0.929 . S
H749 C759 0.929 . S
H750 C754 0.929 . S
H751 C760 0.929 . S
C752 H746 0.930 . S
C752 C753 1.367 . S
C752 C760 1.378 . S
C753 C752 1.367 . S
C753 C761 1.433 . S
C754 H750 0.929 . S
C754 C756 1.378 . S
C754 C758 1.350 . S
C755 C758 1.463 1_545 S
C755 C760 1.350 . S
C755 N763 1.427 . S
C756 H747 0.930 . S
C756 C754 1.378 . S
C756 C757 1.367 . S
C757 C756 1.367 . S
C757 C759 1.433 . S
C758 C754 1.350 . S
C758 C755 1.463 1_565 S
C758 N762 1.427 . S
C759 H749 0.929 . S
C759 C757 1.433 . S
C759 N762 1.384 . S
C760 H751 0.929 . S
C760 C752 1.378 . S
C760 C755 1.350 . S
C761 H748 0.929 . S
C761 C753 1.433 . S
C761 N763 1.384 . S
N762 C758 1.427 . S
N762 C759 1.384 . S
N763 C755 1.427 . S
N763 C761 1.384 . S
H764 C770 0.930 . S
H765 C774 0.930 . S
H766 C779 0.929 . S
H767 C777 0.929 . S
H768 C772 0.929 . S
H769 C778 0.929 . S
C770 H764 0.930 . S
C770 C771 1.367 . S
C770 C778 1.378 . S
C771 C770 1.367 . S
C771 C779 1.433 . S
C772 H768 0.929 . S
C772 C774 1.378 . S
C772 C776 1.350 . S
C773 C776 1.463 . S
C773 C778 1.350 . S
C773 N781 1.427 . S
C774 H765 0.930 . S
C774 C772 1.378 . S
C774 C775 1.367 . S
C775 C774 1.367 . S
C775 C777 1.433 . S
C776 C772 1.350 . S
C776 C773 1.463 . S
C776 N780 1.427 . S
C777 H767 0.929 . S
C777 C775 1.433 . S
C777 N780 1.384 . S
C778 H769 0.929 . S
C778 C770 1.378 . S
C778 C773 1.350 . S
C779 H766 0.929 . S
C779 C771 1.433 . S
C779 N781 1.384 . S
N780 C776 1.427 . S
N780 C777 1.384 . S
N781 C773 1.427 . S
N781 C779 1.384 . S
H782 C788 0.930 1_545 S
H783 C792 0.930 . S
H784 C797 0.929 . S
H785 C795 0.929 . S
H786 C790 0.929 . S
H787 C796 0.929 . S
C788 H782 0.930 1_565 S
C788 C789 1.367 . S
C788 C796 1.378 . S
C789 C788 1.367 . S
C789 C797 1.433 . S
C790 H786 0.929 . S
C790 C792 1.378 . S
C790 C794 1.350 . S
C791 C794 1.463 . S
C791 C796 1.350 . S
C791 N799 1.427 . S
C792 H783 0.930 . S
C792 C790 1.378 . S
C792 C793 1.367 . S
C793 C792 1.367 . S
C793 C795 1.433 . S
C794 C790 1.350 . S
C794 C791 1.463 . S
C794 N798 1.427 . S
C795 H785 0.929 . S
C795 C793 1.433 . S
C795 N798 1.384 . S
C796 H787 0.929 . S
C796 C788 1.378 . S
C796 C791 1.350 . S
C797 H784 0.929 . S
C797 C789 1.433 . S
C797 N799 1.384 . S
N798 C794 1.427 . S
N798 C795 1.384 . S
N799 C791 1.427 . S
N799 C797 1.384 . S
H800 C806 0.930 . S
H801 C810 0.930 . S
H802 C815 0.929 . S
H803 C813 0.929 . S
H804 C808 0.929 . S
H805 C814 0.929 . S
C806 H800 0.930 . S
C806 C807 1.367 . S
C806 C814 1.378 . S
C807 C806 1.367 . S
C807 C815 1.433 . S
C808 H804 0.929 . S
C808 C810 1.378 . S
C808 C812 1.350 . S
C809 C812 1.463 . S
C809 C814 1.350 . S
C809 N817 1.427 . S
C810 H801 0.930 . S
C810 C808 1.378 . S
C810 C811 1.367 1_655 S
C811 C810 1.367 1_455 S
C811 C813 1.433 . S
C812 C808 1.350 . S
C812 C809 1.463 . S
C812 N816 1.427 . S
C813 H803 0.929 . S
C813 C811 1.433 . S
C813 N816 1.384 1_455 S
C814 H805 0.929 . S
C814 C806 1.378 . S
C814 C809 1.350 . S
C815 H802 0.929 . S
C815 C807 1.433 . S
C815 N817 1.384 . S
N816 C812 1.427 . S
N816 C813 1.384 1_655 S
N817 C809 1.427 . S
N817 C815 1.384 . S
H818 C824 0.930 1_565 S
H819 C828 0.932 . S
H820 C833 0.929 . S
H821 C831 0.929 . S
H822 C826 0.929 . S
H823 C832 0.929 . S
C824 H818 0.930 1_545 S
C824 C825 1.367 . S
C824 C832 1.378 . S
C825 C824 1.367 . S
C825 C833 1.433 . S
C826 H822 0.929 . S
C826 C828 1.374 1_655 S
C826 C830 1.350 . S
C827 C830 1.463 . S
C827 C832 1.350 . S
C827 N835 1.427 . S
C828 H819 0.932 . S
C828 C826 1.374 1_455 S
C828 C829 1.369 . S
C829 C828 1.369 . S
C829 C831 1.433 . S
C830 C826 1.350 . S
C830 C827 1.463 . S
C830 N834 1.427 . S
C831 H821 0.929 . S
C831 C829 1.433 . S
C831 N834 1.384 1_455 S
C832 H823 0.929 . S
C832 C824 1.378 . S
C832 C827 1.350 . S
C833 H820 0.929 . S
C833 C825 1.433 . S
C833 N835 1.384 . S
N834 C830 1.427 . S
N834 C831 1.384 1_655 S
N835 C827 1.427 . S
N835 C833 1.384 . S
H836 C842 0.930 . S
H837 C846 0.930 . S
H838 C851 0.929 . S
H839 C849 0.929 . S
H840 C844 0.929 . S
H841 C850 0.929 . S
C842 H836 0.930 . S
C842 C843 1.367 . S
C842 C850 1.378 . S
C843 C842 1.367 . S
C843 C851 1.433 . S
C844 H840 0.929 . S
C844 C846 1.378 . S
C844 C848 1.350 . S
C845 C848 1.463 . S
C845 C850 1.350 . S
C845 N853 1.427 . S
C846 H837 0.930 . S
C846 C844 1.378 . S
C846 C847 1.367 . S
C847 C846 1.367 . S
C847 C849 1.433 . S
C848 C844 1.350 . S
C848 C845 1.463 . S
C848 N852 1.427 . S
C849 H839 0.929 . S
C849 C847 1.433 . S
C849 N852 1.384 . S
C850 H841 0.929 . S
C850 C842 1.378 . S
C850 C845 1.350 . S
C851 H838 0.929 . S
C851 C843 1.433 . S
C851 N853 1.384 . S
N852 C848 1.427 . S
N852 C849 1.384 . S
N853 C845 1.427 . S
N853 C851 1.384 . S
H854 C860 0.930 . S
H855 C864 0.930 . S
H856 C869 0.929 . S
H857 C867 0.929 . S
H858 C862 0.929 . S
H859 C868 0.929 . S
C860 H854 0.930 . S
C860 C861 1.367 . S
C860 C868 1.378 . S
C861 C860 1.367 . S
C861 C869 1.433 . S
C862 H858 0.929 . S
C862 C864 1.378 1_655 S
C862 C866 1.350 . S
C863 C866 1.463 . S
C863 C868 1.350 . S
C863 N871 1.427 . S
C864 H855 0.930 . S
C864 C862 1.378 1_455 S
C864 C865 1.367 . S
C865 C864 1.367 . S
C865 C867 1.433 1_455 S
C866 C862 1.350 . S
C866 C863 1.463 . S
C866 N870 1.427 . S
C867 H857 0.929 . S
C867 C865 1.433 1_655 S
C867 N870 1.384 . S
C868 H859 0.929 . S
C868 C860 1.378 . S
C868 C863 1.350 . S
C869 H856 0.929 . S
C869 C861 1.433 . S
C869 N871 1.384 . S
N870 C866 1.427 . S
N870 C867 1.384 . S
N871 C863 1.427 . S
N871 C869 1.384 . S
H872 C878 0.930 . S
H873 C882 0.930 . S
H874 C887 0.929 . S
H875 C885 0.929 . S
H876 C880 0.929 . S
H877 C886 0.929 . S
C878 H872 0.930 . S
C878 C879 1.367 . S
C878 C886 1.378 . S
C879 C878 1.367 . S
C879 C887 1.433 . S
C880 H876 0.929 . S
C880 C882 1.378 . S
C880 C884 1.350 . S
C881 C884 1.463 . S
C881 C886 1.350 . S
C881 N889 1.427 . S
C882 H873 0.930 . S
C882 C880 1.378 . S
C882 C883 1.367 1_655 S
C883 C882 1.367 1_455 S
C883 C885 1.433 . S
C884 C880 1.350 . S
C884 C881 1.463 . S
C884 N888 1.427 . S
C885 H875 0.929 . S
C885 C883 1.433 . S
C885 N888 1.384 1_455 S
C886 H877 0.929 . S
C886 C878 1.378 . S
C886 C881 1.350 . S
C887 H874 0.929 . S
C887 C879 1.433 . S
C887 N889 1.384 . S
N888 C884 1.427 . S
N888 C885 1.384 1_655 S
N889 C881 1.427 . S
N889 C887 1.384 . S
H890 C896 0.930 . S
H891 C900 0.930 . S
H892 C905 0.929 . S
H893 C903 0.929 . S
H894 C898 0.929 . S
H895 C904 0.929 . S
C896 H890 0.930 . S
C896 C897 1.367 . S
C896 C904 1.378 . S
C897 C896 1.367 . S
C897 C905 1.433 . S
C898 H894 0.929 . S
C898 C900 1.378 . S
C898 C902 1.350 . S
C899 C902 1.463 . S
C899 C904 1.350 . S
C899 N907 1.427 . S
C900 H891 0.930 . S
C900 C898 1.378 . S
C900 C901 1.367 . S
C901 C900 1.367 . S
C901 C903 1.433 . S
C902 C898 1.350 . S
C902 C899 1.463 . S
C902 N906 1.427 . S
C903 H893 0.929 . S
C903 C901 1.433 . S
C903 N906 1.384 . S
C904 H895 0.929 . S
C904 C896 1.378 . S
C904 C899 1.350 . S
C905 H892 0.929 . S
C905 C897 1.433 . S
C905 N907 1.384 . S
N906 C902 1.427 . S
N906 C903 1.384 . S
N907 C899 1.427 . S
N907 C905 1.384 . S
H908 C914 0.930 . S
H909 C918 0.930 . S
H910 C923 0.929 . S
H911 C921 0.929 . S
H912 C916 0.929 . S
H913 C922 0.929 . S
C914 H908 0.930 . S
C914 C915 1.367 . S
C914 C922 1.378 . S
C915 C914 1.367 . S
C915 C923 1.433 . S
C916 H912 0.929 . S
C916 C918 1.378 . S
C916 C920 1.350 . S
C917 C920 1.463 . S
C917 C922 1.350 . S
C917 N925 1.427 . S
C918 H909 0.930 . S
C918 C916 1.378 . S
C918 C919 1.367 . S
C919 C918 1.367 . S
C919 C921 1.433 . S
C920 C916 1.350 . S
C920 C917 1.463 . S
C920 N924 1.427 . S
C921 H911 0.929 . S
C921 C919 1.433 . S
C921 N924 1.384 . S
C922 H913 0.929 . S
C922 C914 1.378 . S
C922 C917 1.350 . S
C923 H910 0.929 . S
C923 C915 1.433 . S
C923 N925 1.384 . S
N924 C920 1.427 . S
N924 C921 1.384 . S
N925 C917 1.427 . S
N925 C923 1.384 . S
H926 C932 0.930 . S
H927 C936 0.930 . S
H928 C941 0.929 . S
H929 C939 0.929 . S
H930 C934 0.929 . S
H931 C940 0.929 . S
C932 H926 0.930 . S
C932 C933 1.367 . S
C932 C940 1.378 . S
C933 C932 1.367 . S
C933 C941 1.433 . S
C934 H930 0.929 . S
C934 C936 1.378 . S
C934 C938 1.350 . S
C935 C938 1.463 . S
C935 C940 1.350 . S
C935 N943 1.427 . S
C936 H927 0.930 . S
C936 C934 1.378 . S
C936 C937 1.367 . S
C937 C936 1.367 . S
C937 C939 1.433 . S
C938 C934 1.350 . S
C938 C935 1.463 . S
C938 N942 1.427 . S
C939 H929 0.929 . S
C939 C937 1.433 . S
C939 N942 1.384 . S
C940 H931 0.929 . S
C940 C932 1.378 . S
C940 C935 1.350 . S
C941 H928 0.929 . S
C941 C933 1.433 . S
C941 N943 1.384 . S
N942 C938 1.427 . S
N942 C939 1.384 . S
N943 C935 1.427 . S
N943 C941 1.384 . S
H944 C950 0.930 . S
H945 C954 0.930 . S
H946 C959 0.929 . S
H947 C957 0.929 . S
H948 C952 0.929 . S
H949 C958 0.929 . S
C950 H944 0.930 . S
C950 C951 1.367 . S
C950 C958 1.378 . S
C951 C950 1.367 . S
C951 C959 1.433 . S
C952 H948 0.929 . S
C952 C954 1.378 . S
C952 C956 1.350 . S
C953 C956 1.463 . S
C953 C958 1.350 . S
C953 N961 1.427 . S
C954 H945 0.930 . S
C954 C952 1.378 . S
C954 C955 1.367 . S
C955 C954 1.367 . S
C955 C957 1.433 . S
C956 C952 1.350 . S
C956 C953 1.463 . S
C956 N960 1.427 . S
C957 H947 0.929 . S
C957 C955 1.433 . S
C957 N960 1.384 . S
C958 H949 0.929 . S
C958 C950 1.378 . S
C958 C953 1.350 . S
C959 H946 0.929 . S
C959 C951 1.433 . S
C959 N961 1.384 . S
N960 C956 1.427 . S
N960 C957 1.384 . S
N961 C953 1.427 . S
N961 C959 1.384 . S
H962 C968 0.930 . S
H963 C972 0.930 . S
H964 C977 0.929 . S
H965 C975 0.929 . S
H966 C970 0.929 . S
H967 C976 0.929 . S
C968 H962 0.930 . S
C968 C969 1.367 . S
C968 C976 1.378 . S
C969 C968 1.367 . S
C969 C977 1.433 . S
C970 H966 0.929 . S
C970 C972 1.378 . S
C970 C974 1.350 . S
C971 C974 1.463 . S
C971 C976 1.350 . S
C971 N979 1.427 . S
C972 H963 0.930 . S
C972 C970 1.378 . S
C972 C973 1.367 . S
C973 C972 1.367 . S
C973 C975 1.433 . S
C974 C970 1.350 . S
C974 C971 1.463 . S
C974 N978 1.427 . S
C975 H965 0.929 . S
C975 C973 1.433 . S
C975 N978 1.384 . S
C976 H967 0.929 . S
C976 C968 1.378 . S
C976 C971 1.350 . S
C977 H964 0.929 . S
C977 C969 1.433 . S
C977 N979 1.384 . S
N978 C974 1.427 . S
N978 C975 1.384 . S
N979 C971 1.427 . S
N979 C977 1.384 . S
H980 C986 0.930 . S
H981 C990 0.930 . S
H982 C995 0.929 . S
H983 C993 0.929 . S
H984 C988 0.929 . S
H985 C994 0.929 . S
C986 H980 0.930 . S
C986 C987 1.367 . S
C986 C994 1.378 . S
C987 C986 1.367 . S
C987 C995 1.433 . S
C988 H984 0.929 . S
C988 C990 1.378 . S
C988 C992 1.350 . S
C989 C992 1.463 . S
C989 C994 1.350 . S
C989 N997 1.427 . S
C990 H981 0.930 . S
C990 C988 1.378 . S
C990 C991 1.367 . S
C991 C990 1.367 . S
C991 C993 1.433 . S
C992 C988 1.350 . S
C992 C989 1.463 . S
C992 N996 1.427 . S
C993 H983 0.929 . S
C993 C991 1.433 . S
C993 N996 1.384 . S
C994 H985 0.929 . S
C994 C986 1.378 . S
C994 C989 1.350 . S
C995 H982 0.929 . S
C995 C987 1.433 . S
C995 N997 1.384 . S
N996 C992 1.427 . S
N996 C993 1.384 . S
N997 C989 1.427 . S
N997 C995 1.384 . S
H998 C1004 0.930 . S
H999 C1008 0.930 . S
H1000 C1013 0.929 . S
H1001 C1011 0.929 . S
H1002 C1006 0.929 . S
H1003 C1012 0.929 . S
C1004 H998 0.930 . S
C1004 C1005 1.367 . S
C1004 C1012 1.378 . S
C1005 C1004 1.367 . S
C1005 C1013 1.433 . S
C1006 H1002 0.929 . S
C1006 C1008 1.378 . S
C1006 C1010 1.350 . S
C1007 C1010 1.463 . S
C1007 C1012 1.350 . S
C1007 N1015 1.427 . S
C1008 H999 0.930 . S
C1008 C1006 1.378 . S
C1008 C1009 1.367 . S
C1009 C1008 1.367 . S
C1009 C1011 1.433 . S
C1010 C1006 1.350 . S
C1010 C1007 1.463 . S
C1010 N1014 1.427 . S
C1011 H1001 0.929 . S
C1011 C1009 1.433 . S
C1011 N1014 1.384 . S
C1012 H1003 0.929 . S
C1012 C1004 1.378 . S
C1012 C1007 1.350 . S
C1013 H1000 0.929 . S
C1013 C1005 1.433 . S
C1013 N1015 1.384 . S
N1014 C1010 1.427 . S
N1014 C1011 1.384 . S
N1015 C1007 1.427 . S
N1015 C1013 1.384 . S
H1016 C1022 0.930 . S
H1017 C1026 0.930 . S
H1018 C1031 0.929 . S
H1019 C1029 0.929 . S
H1020 C1024 0.929 . S
H1021 C1030 0.929 . S
C1022 H1016 0.930 . S
C1022 C1023 1.367 . S
C1022 C1030 1.378 . S
C1023 C1022 1.367 . S
C1023 C1031 1.433 . S
C1024 H1020 0.929 . S
C1024 C1026 1.378 . S
C1024 C1028 1.350 . S
C1025 C1028 1.463 . S
C1025 C1030 1.350 . S
C1025 N1033 1.427 . S
C1026 H1017 0.930 . S
C1026 C1024 1.378 . S
C1026 C1027 1.367 . S
C1027 C1026 1.367 . S
C1027 C1029 1.433 . S
C1028 C1024 1.350 . S
C1028 C1025 1.463 . S
C1028 N1032 1.427 . S
C1029 H1019 0.929 . S
C1029 C1027 1.433 . S
C1029 N1032 1.384 . S
C1030 H1021 0.929 . S
C1030 C1022 1.378 . S
C1030 C1025 1.350 . S
C1031 H1018 0.929 . S
C1031 C1023 1.433 . S
C1031 N1033 1.384 . S
N1032 C1028 1.427 . S
N1032 C1029 1.384 . S
N1033 C1025 1.427 . S
N1033 C1031 1.384 . S
H1034 C1040 0.930 . S
H1035 C1044 0.930 . S
H1036 C1049 0.929 . S
H1037 C1047 0.929 1_455 S
H1038 C1042 0.929 . S
H1039 C1048 0.929 . S
C1040 H1034 0.930 . S
C1040 C1041 1.367 . S
C1040 C1048 1.378 . S
C1041 C1040 1.367 . S
C1041 C1049 1.433 . S
C1042 H1038 0.929 . S
C1042 C1044 1.378 . S
C1042 C1046 1.350 . S
C1043 C1046 1.463 . S
C1043 C1048 1.350 . S
C1043 N1051 1.427 . S
C1044 H1035 0.930 . S
C1044 C1042 1.378 . S
C1044 C1045 1.367 . S
C1045 C1044 1.367 . S
C1045 C1047 1.433 . S
C1046 C1042 1.350 . S
C1046 C1043 1.463 . S
C1046 N1050 1.427 . S
C1047 H1037 0.929 1_655 S
C1047 C1045 1.433 . S
C1047 N1050 1.384 . S
C1048 H1039 0.929 . S
C1048 C1040 1.378 . S
C1048 C1043 1.350 . S
C1049 H1036 0.929 . S
C1049 C1041 1.433 . S
C1049 N1051 1.384 . S
N1050 C1046 1.427 . S
N1050 C1047 1.384 . S
N1051 C1043 1.427 . S
N1051 C1049 1.384 . S
H1052 C1058 0.930 . S
H1053 C1062 0.930 . S
H1054 C1067 0.929 . S
H1055 C1065 0.929 . S
H1056 C1060 0.929 . S
H1057 C1066 0.929 . S
C1058 H1052 0.930 . S
C1058 C1059 1.367 . S
C1058 C1066 1.378 . S
C1059 C1058 1.367 . S
C1059 C1067 1.433 . S
C1060 H1056 0.929 . S
C1060 C1062 1.378 . S
C1060 C1064 1.350 . S
C1061 C1064 1.463 . S
C1061 C1066 1.350 . S
C1061 N1069 1.427 . S
C1062 H1053 0.930 . S
C1062 C1060 1.378 . S
C1062 C1063 1.367 . S
C1063 C1062 1.367 . S
C1063 C1065 1.433 . S
C1064 C1060 1.350 . S
C1064 C1061 1.463 . S
C1064 N1068 1.427 . S
C1065 H1055 0.929 . S
C1065 C1063 1.433 . S
C1065 N1068 1.384 . S
C1066 H1057 0.929 . S
C1066 C1058 1.378 . S
C1066 C1061 1.350 . S
C1067 H1054 0.929 . S
C1067 C1059 1.433 . S
C1067 N1069 1.384 . S
N1068 C1064 1.427 . S
N1068 C1065 1.384 . S
N1069 C1061 1.427 . S
N1069 C1067 1.384 . S
H1070 C1076 0.930 . S
H1071 C1080 0.930 . S
H1072 C1085 0.929 . S
H1073 C1083 0.929 . S
H1074 C1078 0.929 . S
H1075 C1084 0.929 . S
C1076 H1070 0.930 . S
C1076 C1077 1.367 . S
C1076 C1084 1.378 . S
C1077 C1076 1.367 . S
C1077 C1085 1.433 . S
C1078 H1074 0.929 . S
C1078 C1080 1.378 . S
C1078 C1082 1.350 . S
C1079 C1082 1.463 . S
C1079 C1084 1.350 . S
C1079 N1087 1.427 . S
C1080 H1071 0.930 . S
C1080 C1078 1.378 . S
C1080 C1081 1.367 . S
C1081 C1080 1.367 . S
C1081 C1083 1.433 . S
C1082 C1078 1.350 . S
C1082 C1079 1.463 . S
C1082 N1086 1.427 . S
C1083 H1073 0.929 . S
C1083 C1081 1.433 . S
C1083 N1086 1.384 . S
C1084 H1075 0.929 . S
C1084 C1076 1.378 . S
C1084 C1079 1.350 . S
C1085 H1072 0.929 . S
C1085 C1077 1.433 . S
C1085 N1087 1.384 . S
N1086 C1082 1.427 . S
N1086 C1083 1.384 . S
N1087 C1079 1.427 . S
N1087 C1085 1.384 . S
H1088 C1094 0.930 . S
H1089 C1098 0.930 . S
H1090 C1103 0.929 . S
H1091 C1101 0.929 . S
H1092 C1096 0.929 . S
H1093 C1102 0.929 . S
C1094 H1088 0.930 . S
C1094 C1095 1.367 . S
C1094 C1102 1.378 . S
C1095 C1094 1.367 . S
C1095 C1103 1.433 . S
C1096 H1092 0.929 . S
C1096 C1098 1.378 . S
C1096 C1100 1.350 . S
C1097 C1100 1.463 . S
C1097 C1102 1.350 . S
C1097 N1105 1.427 . S
C1098 H1089 0.930 . S
C1098 C1096 1.378 . S
C1098 C1099 1.367 . S
C1099 C1098 1.367 . S
C1099 C1101 1.433 . S
C1100 C1096 1.350 . S
C1100 C1097 1.463 . S
C1100 N1104 1.427 . S
C1101 H1091 0.929 . S
C1101 C1099 1.433 . S
C1101 N1104 1.384 . S
C1102 H1093 0.929 . S
C1102 C1094 1.378 . S
C1102 C1097 1.350 . S
C1103 H1090 0.929 . S
C1103 C1095 1.433 . S
C1103 N1105 1.384 . S
N1104 C1100 1.427 . S
N1104 C1101 1.384 . S
N1105 C1097 1.427 . S
N1105 C1103 1.384 . S
H1106 C1112 0.930 . S
H1107 C1116 0.930 . S
H1108 C1121 0.929 . S
H1109 C1119 0.929 . S
H1110 C1114 0.929 . S
H1111 C1120 0.929 . S
C1112 H1106 0.930 . S
C1112 C1113 1.367 . S
C1112 C1120 1.378 . S
C1113 C1112 1.367 . S
C1113 C1121 1.433 . S
C1114 H1110 0.929 . S
C1114 C1116 1.378 . S
C1114 C1118 1.350 . S
C1115 C1118 1.463 . S
C1115 C1120 1.350 . S
C1115 N1123 1.427 . S
C1116 H1107 0.930 . S
C1116 C1114 1.378 . S
C1116 C1117 1.367 . S
C1117 C1116 1.367 . S
C1117 C1119 1.433 . S
C1118 C1114 1.350 . S
C1118 C1115 1.463 . S
C1118 N1122 1.427 . S
C1119 H1109 0.929 . S
C1119 C1117 1.433 . S
C1119 N1122 1.384 . S
C1120 H1111 0.929 . S
C1120 C1112 1.378 . S
C1120 C1115 1.350 . S
C1121 H1108 0.929 . S
C1121 C1113 1.433 . S
C1121 N1123 1.384 . S
N1122 C1118 1.427 . S
N1122 C1119 1.384 . S
N1123 C1115 1.427 . S
N1123 C1121 1.384 . S
H1124 C1130 0.930 . S
H1125 C1134 0.930 . S
H1126 C1139 0.929 . S
H1127 C1137 0.929 . S
H1128 C1132 0.929 . S
H1129 C1138 0.929 . S
C1130 H1124 0.930 . S
C1130 C1131 1.367 . S
C1130 C1138 1.378 . S
C1131 C1130 1.367 . S
C1131 C1139 1.433 . S
C1132 H1128 0.929 . S
C1132 C1134 1.378 . S
C1132 C1136 1.350 . S
C1133 C1136 1.463 . S
C1133 C1138 1.350 . S
C1133 N1141 1.427 . S
C1134 H1125 0.930 . S
C1134 C1132 1.378 . S
C1134 C1135 1.367 . S
C1135 C1134 1.367 . S
C1135 C1137 1.433 . S
C1136 C1132 1.350 . S
C1136 C1133 1.463 . S
C1136 N1140 1.427 . S
C1137 H1127 0.929 . S
C1137 C1135 1.433 . S
C1137 N1140 1.384 . S
C1138 H1129 0.929 . S
C1138 C1130 1.378 . S
C1138 C1133 1.350 . S
C1139 H1126 0.929 . S
C1139 C1131 1.433 . S
C1139 N1141 1.384 . S
N1140 C1136 1.427 . S
N1140 C1137 1.384 . S
N1141 C1133 1.427 . S
N1141 C1139 1.384 . S
H1142 C1148 0.930 . S
H1143 C1152 0.930 . S
H1144 C1157 0.929 . S
H1145 C1155 0.929 . S
H1146 C1150 0.929 . S
H1147 C1156 0.929 . S
C1148 H1142 0.930 . S
C1148 C1149 1.367 . S
C1148 C1156 1.378 . S
C1149 C1148 1.367 . S
C1149 C1157 1.433 . S
C1150 H1146 0.929 . S
C1150 C1152 1.378 . S
C1150 C1154 1.350 . S
C1151 C1154 1.463 . S
C1151 C1156 1.350 . S
C1151 N1159 1.427 . S
C1152 H1143 0.930 . S
C1152 C1150 1.378 . S
C1152 C1153 1.367 . S
C1153 C1152 1.367 . S
C1153 C1155 1.433 . S
C1154 C1150 1.350 . S
C1154 C1151 1.463 . S
C1154 N1158 1.427 . S
C1155 H1145 0.929 . S
C1155 C1153 1.433 . S
C1155 N1158 1.384 . S
C1156 H1147 0.929 . S
C1156 C1148 1.378 . S
C1156 C1151 1.350 . S
C1157 H1144 0.929 . S
C1157 C1149 1.433 . S
C1157 N1159 1.384 . S
N1158 C1154 1.427 . S
N1158 C1155 1.384 . S
N1159 C1151 1.427 . S
N1159 C1157 1.384 . S
H1160 C1166 0.930 . S
H1161 C1170 0.930 . S
H1162 C1175 0.929 . S
H1163 C1173 0.929 . S
H1164 C1168 0.929 . S
H1165 C1174 0.929 . S
C1166 H1160 0.930 . S
C1166 C1167 1.367 . S
C1166 C1174 1.378 . S
C1167 C1166 1.367 . S
C1167 C1175 1.433 . S
C1168 H1164 0.929 . S
C1168 C1170 1.378 . S
C1168 C1172 1.350 . S
C1169 C1172 1.463 . S
C1169 C1174 1.350 . S
C1169 N1177 1.427 . S
C1170 H1161 0.930 . S
C1170 C1168 1.378 . S
C1170 C1171 1.367 . S
C1171 C1170 1.367 . S
C1171 C1173 1.433 . S
C1172 C1168 1.350 . S
C1172 C1169 1.463 . S
C1172 N1176 1.427 . S
C1173 H1163 0.929 . S
C1173 C1171 1.433 . S
C1173 N1176 1.384 . S
C1174 H1165 0.929 . S
C1174 C1166 1.378 . S
C1174 C1169 1.350 . S
C1175 H1162 0.929 . S
C1175 C1167 1.433 . S
C1175 N1177 1.384 . S
N1176 C1172 1.427 . S
N1176 C1173 1.384 . S
N1177 C1169 1.427 . S
N1177 C1175 1.384 . S
H1178 C1184 0.930 . S
H1179 C1188 0.930 . S
H1180 C1193 0.929 . S
H1181 C1191 0.929 . S
H1182 C1186 0.929 . S
H1183 C1192 0.929 . S
C1184 H1178 0.930 . S
C1184 C1185 1.367 . S
C1184 C1192 1.378 . S
C1185 C1184 1.367 . S
C1185 C1193 1.433 . S
C1186 H1182 0.929 . S
C1186 C1188 1.378 . S
C1186 C1190 1.350 . S
C1187 C1190 1.463 . S
C1187 C1192 1.350 . S
C1187 N1195 1.427 . S
C1188 H1179 0.930 . S
C1188 C1186 1.378 . S
C1188 C1189 1.367 . S
C1189 C1188 1.367 . S
C1189 C1191 1.433 . S
C1190 C1186 1.350 . S
C1190 C1187 1.463 . S
C1190 N1194 1.427 . S
C1191 H1181 0.929 . S
C1191 C1189 1.433 . S
C1191 N1194 1.384 . S
C1192 H1183 0.929 . S
C1192 C1184 1.378 . S
C1192 C1187 1.350 . S
C1193 H1180 0.929 . S
C1193 C1185 1.433 . S
C1193 N1195 1.384 . S
N1194 C1190 1.427 . S
N1194 C1191 1.384 . S
N1195 C1187 1.427 . S
N1195 C1193 1.384 . S
C631 C556 1.727 . S
C627 C53 1.754 . S
C645 C115 1.703 . S
C649 C559 1.690 . S
C663 C177 1.672 . S
C667 C590 1.657 . S
C685 C525 1.733 . S
C681 C239 1.759 . S
C703 C560 1.987 . S
C699 C47 1.943 . S
C721 C591 1.933 . S
C717 C109 1.885 . S
C739 C516 1.891 . S
C735 C171 1.825 . S
C757 C547 1.913 . S
C753 C233 1.856 . S
C771 C29 1.435 . S
C775 C577 1.375 . S
C789 C277 1.428 . S
C793 C546 1.380 . S
C807 C153 1.343 . S
C811 C506 1.349 . S
C829 C599 1.377 . S
C825 C339 1.365 . S
C847 C527 1.295 . S
C843 C35 1.343 . S
C861 C283 1.291 . S
C865 C526 1.272 . S
C879 C159 1.278 . S
C883 C619 1.255 . S
C901 C558 1.263 . S
C897 C345 1.320 . S
C915 C419 1.884 . S
C919 C618 1.937 . S
C933 C301 1.700 . S
C937 C497 1.686 . S
C951 C487 1.654 . S
C955 C528 1.639 . S
C969 C363 1.727 . S
C973 C587 1.695 . S
C991 C498 1.792 . S
C987 C425 1.819 . S
C1005 C295 1.918 . S
C1009 C529 1.971 . S
C1023 C481 1.837 . S
C1027 C578 1.900 . S
C1045 C609 1.912 . S
C1041 C357 1.851 . S
C1059 C407 1.400 . S
C1063 C515 1.346 . S
C1077 C91 1.404 . S
C1081 C608 1.348 . S
C1095 C463 1.354 . S
C1099 C568 1.363 . S
C1117 C537 1.371 . S
C1113 C215 1.349 . S
C1135 C589 1.320 . S
C1131 C401 1.377 . S
C1153 C588 1.277 . S
C1149 C97 1.299 . S
C1171 C557 1.246 . S
C1167 C469 1.262 . S
C1189 C496 1.280 . S
C1185 C221 1.336 . S
