# Generated by pormake.
# Topology eea, (3,6)-cn, num edge types: 1
# Building blocks:
#     Node 0, Type 0, BuildingBlock: MIDCAF_clean_linker_0, # of connection points: 3
#     Node 1, Type 0, BuildingBlock: MIDCAF_clean_linker_0, # of connection points: 3
#     Node 2, Type 0, BuildingBlock: MIDCAF_clean_linker_0, # of connection points: 3
#     Node 3, Type 0, BuildingBlock: MIDCAF_clean_linker_0, # of connection points: 3
#     Node 4, Type 0, BuildingBlock: MIDCAF_clean_linker_0, # of connection points: 3
#     Node 5, Type 0, BuildingBlock: MIDCAF_clean_linker_0, # of connection points: 3
#     Node 6, Type 0, BuildingBlock: MIDCAF_clean_linker_0, # of connection points: 3
#     Node 7, Type 0, BuildingBlock: MIDCAF_clean_linker_0, # of connection points: 3
#     Node 8, Type 0, BuildingBlock: MIDCAF_clean_linker_0, # of connection points: 3
#     Node 9, Type 0, BuildingBlock: MIDCAF_clean_linker_0, # of connection points: 3
#     Node 10, Type 0, BuildingBlock: MIDCAF_clean_linker_0, # of connection points: 3
#     Node 11, Type 0, BuildingBlock: MIDCAF_clean_linker_0, # of connection points: 3
#     Node 12, Type 0, BuildingBlock: MIDCAF_clean_linker_0, # of connection points: 3
#     Node 13, Type 0, BuildingBlock: MIDCAF_clean_linker_0, # of connection points: 3
#     Node 14, Type 0, BuildingBlock: MIDCAF_clean_linker_0, # of connection points: 3
#     Node 15, Type 0, BuildingBlock: MIDCAF_clean_linker_0, # of connection points: 3
#     Node 16, Type 0, BuildingBlock: MIDCAF_clean_linker_0, # of connection points: 3
#     Node 17, Type 0, BuildingBlock: MIDCAF_clean_linker_0, # of connection points: 3
#     Node 18, Type 1, BuildingBlock: HISSIN_clean_sbu_0, # of connection points: 6
#     Node 19, Type 1, BuildingBlock: HISSIN_clean_sbu_0, # of connection points: 6
#     Node 20, Type 1, BuildingBlock: HISSIN_clean_sbu_0, # of connection points: 6
#     Node 21, Type 1, BuildingBlock: HISSIN_clean_sbu_0, # of connection points: 6
#     Node 22, Type 1, BuildingBlock: HISSIN_clean_sbu_0, # of connection points: 6
#     Node 23, Type 1, BuildingBlock: HISSIN_clean_sbu_0, # of connection points: 6
#     Node 24, Type 1, BuildingBlock: HISSIN_clean_sbu_0, # of connection points: 6
#     Node 25, Type 1, BuildingBlock: HISSIN_clean_sbu_0, # of connection points: 6
#     Node 26, Type 1, BuildingBlock: HISSIN_clean_sbu_0, # of connection points: 6
#     Edge 27, Type (0, 1), BuildingBlock: KIFKEQ_clean_linker_1, # of connection points: 2
#     Edge 28, Type (0, 1), BuildingBlock: KIFKEQ_clean_linker_1, # of connection points: 2
#     Edge 29, Type (0, 1), BuildingBlock: KIFKEQ_clean_linker_1, # of connection points: 2
#     Edge 30, Type (0, 1), BuildingBlock: KIFKEQ_clean_linker_1, # of connection points: 2
#     Edge 31, Type (0, 1), BuildingBlock: KIFKEQ_clean_linker_1, # of connection points: 2
#     Edge 32, Type (0, 1), BuildingBlock: KIFKEQ_clean_linker_1, # of connection points: 2
#     Edge 33, Type (0, 1), BuildingBlock: KIFKEQ_clean_linker_1, # of connection points: 2
#     Edge 34, Type (0, 1), BuildingBlock: KIFKEQ_clean_linker_1, # of connection points: 2
#     Edge 35, Type (0, 1), BuildingBlock: KIFKEQ_clean_linker_1, # of connection points: 2
#     Edge 36, Type (0, 1), BuildingBlock: KIFKEQ_clean_linker_1, # of connection points: 2
#     Edge 37, Type (0, 1), BuildingBlock: KIFKEQ_clean_linker_1, # of connection points: 2
#     Edge 38, Type (0, 1), BuildingBlock: KIFKEQ_clean_linker_1, # of connection points: 2
#     Edge 39, Type (0, 1), BuildingBlock: KIFKEQ_clean_linker_1, # of connection points: 2
#     Edge 40, Type (0, 1), BuildingBlock: KIFKEQ_clean_linker_1, # of connection points: 2
#     Edge 41, Type (0, 1), BuildingBlock: KIFKEQ_clean_linker_1, # of connection points: 2
#     Edge 42, Type (0, 1), BuildingBlock: KIFKEQ_clean_linker_1, # of connection points: 2
#     Edge 43, Type (0, 1), BuildingBlock: KIFKEQ_clean_linker_1, # of connection points: 2
#     Edge 44, Type (0, 1), BuildingBlock: KIFKEQ_clean_linker_1, # of connection points: 2
#     Edge 45, Type (0, 1), BuildingBlock: KIFKEQ_clean_linker_1, # of connection points: 2
#     Edge 46, Type (0, 1), BuildingBlock: KIFKEQ_clean_linker_1, # of connection points: 2
#     Edge 47, Type (0, 1), BuildingBlock: KIFKEQ_clean_linker_1, # of connection points: 2
#     Edge 48, Type (0, 1), BuildingBlock: KIFKEQ_clean_linker_1, # of connection points: 2
#     Edge 49, Type (0, 1), BuildingBlock: KIFKEQ_clean_linker_1, # of connection points: 2
#     Edge 50, Type (0, 1), BuildingBlock: KIFKEQ_clean_linker_1, # of connection points: 2
#     Edge 51, Type (0, 1), BuildingBlock: KIFKEQ_clean_linker_1, # of connection points: 2
#     Edge 52, Type (0, 1), BuildingBlock: KIFKEQ_clean_linker_1, # of connection points: 2
#     Edge 53, Type (0, 1), BuildingBlock: KIFKEQ_clean_linker_1, # of connection points: 2
#     Edge 54, Type (0, 1), BuildingBlock: KIFKEQ_clean_linker_1, # of connection points: 2
#     Edge 55, Type (0, 1), BuildingBlock: KIFKEQ_clean_linker_1, # of connection points: 2
#     Edge 56, Type (0, 1), BuildingBlock: KIFKEQ_clean_linker_1, # of connection points: 2
#     Edge 57, Type (0, 1), BuildingBlock: KIFKEQ_clean_linker_1, # of connection points: 2
#     Edge 58, Type (0, 1), BuildingBlock: KIFKEQ_clean_linker_1, # of connection points: 2
#     Edge 59, Type (0, 1), BuildingBlock: KIFKEQ_clean_linker_1, # of connection points: 2
#     Edge 60, Type (0, 1), BuildingBlock: KIFKEQ_clean_linker_1, # of connection points: 2
#     Edge 61, Type (0, 1), BuildingBlock: KIFKEQ_clean_linker_1, # of connection points: 2
#     Edge 62, Type (0, 1), BuildingBlock: KIFKEQ_clean_linker_1, # of connection points: 2
#     Edge 63, Type (0, 1), BuildingBlock: KIFKEQ_clean_linker_1, # of connection points: 2
#     Edge 64, Type (0, 1), BuildingBlock: KIFKEQ_clean_linker_1, # of connection points: 2
#     Edge 65, Type (0, 1), BuildingBlock: KIFKEQ_clean_linker_1, # of connection points: 2
#     Edge 66, Type (0, 1), BuildingBlock: KIFKEQ_clean_linker_1, # of connection points: 2
#     Edge 67, Type (0, 1), BuildingBlock: KIFKEQ_clean_linker_1, # of connection points: 2
#     Edge 68, Type (0, 1), BuildingBlock: KIFKEQ_clean_linker_1, # of connection points: 2
#     Edge 69, Type (0, 1), BuildingBlock: KIFKEQ_clean_linker_1, # of connection points: 2
#     Edge 70, Type (0, 1), BuildingBlock: KIFKEQ_clean_linker_1, # of connection points: 2
#     Edge 71, Type (0, 1), BuildingBlock: KIFKEQ_clean_linker_1, # of connection points: 2
#     Edge 72, Type (0, 1), BuildingBlock: KIFKEQ_clean_linker_1, # of connection points: 2
#     Edge 73, Type (0, 1), BuildingBlock: KIFKEQ_clean_linker_1, # of connection points: 2
#     Edge 74, Type (0, 1), BuildingBlock: KIFKEQ_clean_linker_1, # of connection points: 2
#     Edge 75, Type (0, 1), BuildingBlock: KIFKEQ_clean_linker_1, # of connection points: 2
#     Edge 76, Type (0, 1), BuildingBlock: KIFKEQ_clean_linker_1, # of connection points: 2
#     Edge 77, Type (0, 1), BuildingBlock: KIFKEQ_clean_linker_1, # of connection points: 2
#     Edge 78, Type (0, 1), BuildingBlock: KIFKEQ_clean_linker_1, # of connection points: 2
#     Edge 79, Type (0, 1), BuildingBlock: KIFKEQ_clean_linker_1, # of connection points: 2
#     Edge 80, Type (0, 1), BuildingBlock: KIFKEQ_clean_linker_1, # of connection points: 2
# Relax obj value: 0.035
# Max RMSD: 0.133
# Mean RMSD: 0.075
data_MOF--net-eea--node1-HISSIN_clean_sbu_0--node2-MIDCAF_clean_linker_0--edge1-KIFKEQ_clean_linker_1
_symmetry_space_group_name_H-M    P1
_symmetry_Int_Tables_number       1
_symmetry_cell_setting            triclinic
loop_
_symmetry_equiv_pos_as_xyz
'x, y, z'
_cell_length_a     62.986853
_cell_length_b     63.298601
_cell_length_c     91.397479
_cell_angle_alpha  93.314145
_cell_angle_beta   93.251436
_cell_angle_gamma 119.80177
loop_
_atom_site_label
_atom_site_type_symbol
_atom_site_fract_x
_atom_site_fract_y
_atom_site_fract_z
_atom_type_partial_charge
C0 C 0.27491 0.06666 0.40263 0.0
C1 C 0.26952 0.0621 0.38725 0.0
C2 C 0.27224 0.08138 0.37912 0.0
C3 C 0.27939 0.10438 0.38627 0.0
H4 H 0.2762 0.1674 0.38047 0.0
H5 H 0.26167 0.19195 0.3686 0.0
H6 H 0.26884 0.23056 0.41082 0.0
H7 H 0.28405 0.20661 0.42263 0.0
H8 H 0.30483 0.19458 0.4511 0.0
H9 H 0.31568 0.20065 0.47764 0.0
H10 H 0.32921 0.14006 0.47454 0.0
H11 H 0.3179 0.13359 0.44815 0.0
H12 H 0.28576 0.09227 0.42164 0.0
H13 H 0.27261 0.05221 0.40931 0.0
H14 H 0.26868 0.07867 0.36724 0.0
H15 H 0.2809 0.1187 0.37971 0.0
N16 N 0.28495 0.14802 0.40251 0.0
N17 N 0.29681 0.17394 0.42445 0.0
N18 N 0.29843 0.13773 0.42392 0.0
C19 C 0.28836 0.16887 0.40993 0.0
C20 C 0.30207 0.15853 0.4315 0.0
C21 C 0.28993 0.13235 0.40944 0.0
C22 C 0.2812 0.18493 0.40253 0.0
C23 C 0.27488 0.18126 0.38722 0.0
C24 C 0.2664 0.19525 0.38041 0.0
C25 C 0.26393 0.21313 0.38876 0.0
C26 C 0.27082 0.21718 0.40401 0.0
C27 C 0.27945 0.20333 0.41081 0.0
C28 C 0.31028 0.16346 0.44747 0.0
C29 C 0.31025 0.18263 0.45605 0.0
C30 C 0.31657 0.18618 0.47127 0.0
C31 C 0.3231 0.1707 0.47822 0.0
C32 C 0.32378 0.15199 0.46957 0.0
C33 C 0.31741 0.14839 0.4544 0.0
C34 C 0.28424 0.10869 0.40168 0.0
C35 C 0.28234 0.08968 0.40974 0.0
C36 C 0.96823 0.20578 0.4126 0.0
C37 C 0.97128 0.19711 0.3988 0.0
C38 C 0.95262 0.17425 0.39216 0.0
C39 C 0.93152 0.16032 0.39914 0.0
H40 H 0.86449 0.0977 0.39195 0.0
H41 H 0.83423 0.05701 0.38045 0.0
H42 H 0.80041 0.03919 0.42115 0.0
H43 H 0.83059 0.07974 0.43273 0.0
H44 H 0.84264 0.12181 0.45586 0.0
H45 H 0.83543 0.13324 0.47993 0.0
H46 H 0.90496 0.20084 0.48317 0.0
H47 H 0.91262 0.18912 0.45885 0.0
H48 H 0.94537 0.19902 0.43026 0.0
H49 H 0.98213 0.22348 0.41795 0.0
H50 H 0.95448 0.16685 0.38164 0.0
H51 H 0.91769 0.14272 0.39366 0.0
N52 N 0.88888 0.13117 0.4138 0.0
N53 N 0.86553 0.12446 0.43378 0.0
N54 N 0.90285 0.16125 0.43391 0.0
C55 C 0.86855 0.11653 0.42041 0.0
C56 C 0.88243 0.14672 0.44063 0.0
C57 C 0.90616 0.15351 0.42043 0.0
C58 C 0.85002 0.09201 0.41328 0.0
C59 C 0.85061 0.08514 0.39846 0.0
C60 C 0.83321 0.0619 0.39184 0.0
C61 C 0.81502 0.04497 0.39992 0.0
C62 C 0.81438 0.05181 0.4147 0.0
C63 C 0.83162 0.07511 0.42129 0.0
C64 C 0.87827 0.15453 0.45532 0.0
C65 C 0.8565 0.13919 0.46158 0.0
C66 C 0.85221 0.14584 0.47541 0.0
C67 C 0.86948 0.16807 0.48343 0.0
C68 C 0.89133 0.18353 0.47727 0.0
C69 C 0.89566 0.17685 0.46331 0.0
C70 C 0.92848 0.16884 0.413 0.0
C71 C 0.94707 0.19181 0.41963 0.0
C72 C 0.82104 0.7761 0.41704 0.0
C73 C 0.81912 0.77658 0.40165 0.0
C74 C 0.83468 0.77162 0.39344 0.0
C75 C 0.85189 0.76675 0.40042 0.0
H76 H 0.91713 0.76884 0.39443 0.0
H77 H 0.95405 0.77885 0.38245 0.0
H78 H 0.98886 0.77333 0.42297 0.0
H79 H 0.95186 0.76343 0.43511 0.0
H80 H 0.91091 0.73018 0.45904 0.0
H81 H 0.90258 0.71302 0.48268 0.0
H82 H 0.84417 0.72971 0.4856 0.0
H83 H 0.85196 0.74615 0.46191 0.0
H84 H 0.83906 0.7708 0.43587 0.0
H85 H 0.80977 0.78025 0.42381 0.0
H86 H 0.83346 0.77127 0.38156 0.0
H87 H 0.86357 0.76307 0.39374 0.0
N88 N 0.89212 0.76474 0.41645 0.0
N89 N 0.9061 0.75251 0.43686 0.0
N90 N 0.86927 0.7534 0.43681 0.0
C91 C 0.90929 0.76057 0.42321 0.0
C92 C 0.88603 0.74879 0.44372 0.0
C93 C 0.87212 0.76129 0.42318 0.0
C94 C 0.93147 0.76539 0.41579 0.0
C95 C 0.93257 0.76966 0.40083 0.0
C96 C 0.95372 0.77525 0.3939 0.0
C97 C 0.97441 0.77692 0.40175 0.0
C98 C 0.97329 0.77241 0.41666 0.0
C99 C 0.95202 0.76659 0.42359 0.0
C100 C 0.88202 0.73943 0.45846 0.0
C101 C 0.89634 0.73025 0.46474 0.0
C102 C 0.89162 0.72049 0.47835 0.0
C103 C 0.87255 0.71976 0.48604 0.0
C104 C 0.85863 0.72942 0.47987 0.0
C105 C 0.86324 0.73904 0.46628 0.0
C106 C 0.85374 0.76628 0.41578 0.0
C107 C 0.83799 0.77082 0.424 0.0
C108 C 0.03498 0.22839 0.59244 0.0
C109 C 0.03025 0.21619 0.60531 0.0
C110 C 0.04716 0.2096 0.61093 0.0
C111 C 0.06825 0.21514 0.60396 0.0
H112 H 0.12875 0.20872 0.60836 0.0
H113 H 0.15837 0.19948 0.62016 0.0
H114 H 0.20781 0.23425 0.58719 0.0
H115 H 0.1783 0.2438 0.57538 0.0
H116 H 0.15444 0.25161 0.54571 0.0
H117 H 0.16174 0.26848 0.52207 0.0
H118 H 0.10346 0.28505 0.52592 0.0
H119 H 0.09604 0.26815 0.54973 0.0
H120 H 0.05918 0.24338 0.57559 0.0
H121 H 0.02251 0.23399 0.58789 0.0
H122 H 0.04396 0.19982 0.62064 0.0
H123 H 0.0807 0.20964 0.60867 0.0
N124 N 0.11233 0.22795 0.59016 0.0
N125 N 0.13672 0.24268 0.57069 0.0
N126 N 0.09966 0.24314 0.57075 0.0
C127 C 0.13296 0.23274 0.58373 0.0
C128 C 0.12022 0.24795 0.5641 0.0
C129 C 0.09558 0.23307 0.58381 0.0
C130 C 0.15106 0.22703 0.59088 0.0
C131 C 0.14591 0.21445 0.60358 0.0
C132 C 0.16285 0.20899 0.61032 0.0
C133 C 0.18542 0.21607 0.6046 0.0
C134 C 0.19067 0.22874 0.59194 0.0
C135 C 0.17366 0.23409 0.58513 0.0
C136 C 0.1246 0.25845 0.54968 0.0
C137 C 0.14313 0.25885 0.54159 0.0
C138 C 0.14726 0.2684 0.52796 0.0
C139 C 0.13313 0.27802 0.52209 0.0
C140 C 0.11475 0.2779 0.5302 0.0
C141 C 0.11043 0.26809 0.54381 0.0
C142 C 0.07304 0.22736 0.59111 0.0
C143 C 0.05611 0.23389 0.58542 0.0
C144 C 0.73163 0.78238 0.60292 0.0
C145 C 0.73975 0.78765 0.61804 0.0
C146 C 0.7386 0.80668 0.62601 0.0
C147 C 0.73029 0.82058 0.61894 0.0
H148 H 0.73439 0.88801 0.62411 0.0
H149 H 0.74967 0.92986 0.6348 0.0
H150 H 0.73107 0.94829 0.59308 0.0
H151 H 0.7159 0.90667 0.58232 0.0
H152 H 0.69129 0.8683 0.55631 0.0
H153 H 0.67649 0.8589 0.53042 0.0
H154 H 0.66983 0.78766 0.53116 0.0
H155 H 0.6854 0.79732 0.55717 0.0
H156 H 0.71756 0.7919 0.58416 0.0
H157 H 0.73257 0.76811 0.59638 0.0
H158 H 0.74426 0.81094 0.63772 0.0
H159 H 0.73001 0.83534 0.62539 0.0
N160 N 0.7213 0.85372 0.60272 0.0
N161 N 0.70589 0.86224 0.58135 0.0
N162 N 0.70526 0.82499 0.58188 0.0
C163 C 0.71641 0.86915 0.59543 0.0
C164 C 0.70014 0.8402 0.57449 0.0
C165 C 0.71576 0.8316 0.59603 0.0
C166 C 0.72404 0.89396 0.60233 0.0
C167 C 0.7334 0.90091 0.61723 0.0
C168 C 0.74205 0.92485 0.62338 0.0
C169 C 0.7417 0.94232 0.61472 0.0
C170 C 0.73185 0.93525 0.59994 0.0
C171 C 0.72303 0.91133 0.59382 0.0
C172 C 0.68966 0.83361 0.55888 0.0
C173 C 0.68657 0.85054 0.55105 0.0
C174 C 0.67788 0.84507 0.53617 0.0
C175 C 0.67188 0.82248 0.52871 0.0
C176 C 0.67455 0.80534 0.53655 0.0
C177 C 0.68336 0.81084 0.55149 0.0
C178 C 0.72274 0.81567 0.60375 0.0
C179 C 0.72312 0.79614 0.59588 0.0
C180 C 0.19306 0.94218 0.59457 0.0
C181 C 0.19217 0.94957 0.60919 0.0
C182 C 0.17366 0.9331 0.61729 0.0
C183 C 0.15606 0.90983 0.61079 0.0
H184 H 0.08706 0.85491 0.6149 0.0
H185 H 0.04966 0.83216 0.62668 0.0
H186 H 0.02095 0.77492 0.59068 0.0
H187 H 0.05833 0.79799 0.57861 0.0
H188 H 0.08827 0.81497 0.54698 0.0
H189 H 0.09524 0.80635 0.52176 0.0
H190 H 0.17348 0.85343 0.53266 0.0
H191 H 0.16658 0.86241 0.5575 0.0
H192 H 0.17679 0.91383 0.57678 0.0
H193 H 0.20729 0.95445 0.58813 0.0
H194 H 0.17246 0.93842 0.62856 0.0
H195 H 0.14185 0.89767 0.61728 0.0
N196 N 0.11674 0.86452 0.59533 0.0
N197 N 0.10186 0.83438 0.57521 0.0
N198 N 0.14067 0.86964 0.57578 0.0
C199 C 0.09871 0.84263 0.58857 0.0
C200 C 0.12299 0.84782 0.56882 0.0
C201 C 0.13772 0.87815 0.589 0.0
C202 C 0.07581 0.82834 0.59575 0.0
C203 C 0.07285 0.83748 0.60942 0.0
C204 C 0.0514 0.82435 0.61627 0.0
C205 C 0.0323 0.80169 0.60966 0.0
C206 C 0.0352 0.79248 0.59599 0.0
C207 C 0.05671 0.80565 0.58911 0.0
C208 C 0.12682 0.83971 0.55417 0.0
C209 C 0.10695 0.8232 0.544 0.0
C210 C 0.11095 0.81823 0.52958 0.0
C211 C 0.13489 0.82959 0.52513 0.0
C212 C 0.15477 0.84491 0.5356 0.0
C213 C 0.15079 0.84998 0.54988 0.0
C214 C 0.1568 0.90247 0.59611 0.0
C215 C 0.17565 0.91884 0.58812 0.0
C216 C 0.94645 0.39832 0.73516 0.0
C217 C 0.92976 0.38829 0.72242 0.0
C218 C 0.92143 0.40272 0.71582 0.0
C219 C 0.92896 0.42632 0.7221 0.0
H220 H 0.93924 0.49677 0.71374 0.0
H221 H 0.92485 0.52143 0.70187 0.0
H222 H 0.9236 0.55372 0.74461 0.0
H223 H 0.93905 0.52992 0.75637 0.0
H224 H 0.97781 0.52897 0.78231 0.0
H225 H 0.99234 0.53769 0.80843 0.0
H226 H 0.98848 0.46757 0.80812 0.0
H227 H 0.9747 0.45912 0.78205 0.0
H228 H 0.96634 0.42876 0.75148 0.0
H229 H 0.95363 0.3879 0.74034 0.0
H230 H 0.90837 0.39549 0.70609 0.0
H231 H 0.92161 0.43664 0.71696 0.0
N232 N 0.94446 0.47476 0.73596 0.0
N233 N 0.95849 0.50199 0.75746 0.0
N234 N 0.96099 0.46625 0.7569 0.0
C235 C 0.94834 0.4959 0.74324 0.0
C236 C 0.96499 0.48729 0.76434 0.0
C237 C 0.95077 0.45985 0.74272 0.0
C238 C 0.94032 0.51141 0.736 0.0
C239 C 0.93601 0.50924 0.72058 0.0
C240 C 0.92758 0.52328 0.71378 0.0
C241 C 0.92294 0.53956 0.72225 0.0
C242 C 0.92738 0.54174 0.73768 0.0
C243 C 0.93614 0.52799 0.74446 0.0
C244 C 0.97499 0.49331 0.78004 0.0
C245 C 0.98023 0.51548 0.78778 0.0
C246 C 0.98844 0.52044 0.80279 0.0
C247 C 0.99153 0.50331 0.81039 0.0
C248 C 0.98669 0.48135 0.80258 0.0
C249 C 0.97861 0.47644 0.7876 0.0
C250 C 0.94485 0.43594 0.73519 0.0
C251 C 0.95385 0.42184 0.74149 0.0
C252 C 0.63196 0.54799 0.74313 0.0
C253 C 0.63817 0.53776 0.73117 0.0
C254 C 0.62308 0.51268 0.72663 0.0
C255 C 0.60231 0.49824 0.73374 0.0
H256 H 0.54024 0.43186 0.72817 0.0
H257 H 0.51071 0.39108 0.71675 0.0
H258 H 0.46291 0.38202 0.75087 0.0
H259 H 0.49275 0.42256 0.76257 0.0
H260 H 0.52274 0.45481 0.79347 0.0
H261 H 0.51816 0.46567 0.81855 0.0
H262 H 0.56886 0.54176 0.81426 0.0
H263 H 0.57376 0.53093 0.78895 0.0
H264 H 0.60699 0.54187 0.75952 0.0
H265 H 0.64294 0.5673 0.74682 0.0
H266 H 0.62751 0.50398 0.71771 0.0
H267 H 0.59129 0.47897 0.72993 0.0
N268 N 0.55719 0.47019 0.74672 0.0
N269 N 0.53466 0.46258 0.76718 0.0
N270 N 0.57128 0.5 0.76696 0.0
C271 C 0.53728 0.4551 0.75353 0.0
C272 C 0.55151 0.48492 0.77398 0.0
C273 C 0.57424 0.49265 0.7533 0.0
C274 C 0.51895 0.43052 0.74633 0.0
C275 C 0.52342 0.42124 0.73324 0.0
C276 C 0.50639 0.39786 0.72663 0.0
C277 C 0.48441 0.38325 0.73288 0.0
C278 C 0.47982 0.39263 0.74589 0.0
C279 C 0.49691 0.41596 0.75255 0.0
C280 C 0.54866 0.49201 0.78917 0.0
C281 C 0.53293 0.4739 0.79779 0.0
C282 C 0.5304 0.48007 0.81221 0.0
C283 C 0.54326 0.50451 0.81835 0.0
C284 C 0.55871 0.52277 0.80975 0.0
C285 C 0.56157 0.51654 0.79531 0.0
C286 C 0.59617 0.50839 0.74573 0.0
C287 C 0.61126 0.53343 0.75038 0.0
C288 C 0.48779 0.10705 0.75173 0.0
C289 C 0.48906 0.1121 0.73693 0.0
C290 C 0.50748 0.1115 0.72923 0.0
C291 C 0.52434 0.10613 0.73619 0.0
H292 H 0.58571 0.102 0.72973 0.0
H293 H 0.62226 0.11096 0.71763 0.0
H294 H 0.65674 0.10488 0.75811 0.0
H295 H 0.62005 0.09598 0.77037 0.0
H296 H 0.57919 0.06385 0.79456 0.0
H297 H 0.57024 0.0463 0.81809 0.0
H298 H 0.50994 0.0604 0.81972 0.0
H299 H 0.5184 0.07729 0.7962 0.0
H300 H 0.50296 0.09766 0.77008 0.0
H301 H 0.47366 0.10714 0.75792 0.0
H302 H 0.50908 0.11555 0.71786 0.0
H303 H 0.53833 0.10594 0.72991 0.0
N304 N 0.56112 0.09878 0.7518 0.0
N305 N 0.57416 0.08535 0.77201 0.0
N306 N 0.53766 0.08689 0.77186 0.0
C307 C 0.57782 0.09392 0.7585 0.0
C308 C 0.55401 0.08172 0.77875 0.0
C309 C 0.54104 0.0954 0.7584 0.0
C310 C 0.59988 0.09832 0.75108 0.0
C311 C 0.601 0.10249 0.7361 0.0
C312 C 0.62193 0.10748 0.7291 0.0
C313 C 0.64241 0.10864 0.7369 0.0
C314 C 0.64132 0.10431 0.75184 0.0
C315 C 0.62023 0.09906 0.75884 0.0
C316 C 0.54946 0.0719 0.79337 0.0
C317 C 0.56405 0.06325 0.79995 0.0
C318 C 0.55897 0.05327 0.81349 0.0
C319 C 0.53922 0.05173 0.82078 0.0
C320 C 0.52495 0.06077 0.8143 0.0
C321 C 0.52995 0.07064 0.80079 0.0
C322 C 0.52307 0.10103 0.751 0.0
C323 C 0.50452 0.10147 0.75867 0.0
C324 C 0.69405 0.5557 0.92177 0.0
C325 C 0.69256 0.55089 0.93665 0.0
C326 C 0.71317 0.55241 0.94456 0.0
C327 C 0.73438 0.55796 0.93774 0.0
H328 H 0.791 0.54396 0.94133 0.0
H329 H 0.82014 0.53438 0.9535 0.0
H330 H 0.86945 0.56663 0.92008 0.0
H331 H 0.84046 0.5765 0.9079 0.0
H332 H 0.81928 0.58629 0.87878 0.0
H333 H 0.82794 0.6032 0.85528 0.0
H334 H 0.76675 0.61602 0.85629 0.0
H335 H 0.75758 0.59839 0.87978 0.0
H336 H 0.71581 0.56474 0.90344 0.0
H337 H 0.6785 0.55449 0.91527 0.0
H338 H 0.71303 0.54944 0.95611 0.0
H339 H 0.74975 0.5588 0.94424 0.0
N340 N 0.77485 0.56255 0.9224 0.0
N341 N 0.79926 0.57583 0.90282 0.0
N342 N 0.76228 0.57654 0.90227 0.0
C343 C 0.79541 0.56667 0.9161 0.0
C344 C 0.78287 0.58085 0.89581 0.0
C345 C 0.75819 0.5674 0.91562 0.0
C346 C 0.8133 0.56101 0.92359 0.0
C347 C 0.80805 0.54909 0.93654 0.0
C348 C 0.8247 0.54344 0.9435 0.0
C349 C 0.84708 0.54969 0.93774 0.0
C350 C 0.85246 0.56178 0.92487 0.0
C351 C 0.83574 0.5673 0.91785 0.0
C352 C 0.78773 0.59099 0.88128 0.0
C353 C 0.80759 0.59268 0.87406 0.0
C354 C 0.8127 0.60257 0.86056 0.0
C355 C 0.79821 0.61122 0.85389 0.0
C356 C 0.77818 0.60935 0.86102 0.0
C357 C 0.77298 0.59932 0.87454 0.0
C358 C 0.73578 0.56242 0.92282 0.0
C359 C 0.71543 0.56149 0.91495 0.0
C360 C 0.40858 0.12207 0.93578 0.0
C361 C 0.41207 0.12272 0.95118 0.0
C362 C 0.40589 0.13733 0.9601 0.0
C363 C 0.39707 0.1514 0.9538 0.0
H364 H 0.41001 0.22269 0.9605 0.0
H365 H 0.42317 0.263 0.97289 0.0
H366 H 0.38239 0.27582 0.93841 0.0
H367 H 0.36904 0.2355 0.92598 0.0
H368 H 0.36234 0.20815 0.8946 0.0
H369 H 0.35019 0.20253 0.86837 0.0
H370 H 0.34592 0.13211 0.86544 0.0
H371 H 0.35882 0.138 0.8917 0.0
H372 H 0.39737 0.13527 0.91758 0.0
H373 H 0.41349 0.11136 0.92854 0.0
H374 H 0.4078 0.13789 0.97199 0.0
H375 H 0.39275 0.16266 0.961 0.0
N376 N 0.38912 0.1872 0.93985 0.0
N377 N 0.3739 0.19798 0.91937 0.0
N378 N 0.37678 0.16242 0.91741 0.0
C379 C 0.38312 0.2028 0.93372 0.0
C380 C 0.37058 0.17782 0.91115 0.0
C381 C 0.38593 0.16695 0.93179 0.0
C382 C 0.38867 0.22593 0.94215 0.0
C383 C 0.40353 0.23391 0.95564 0.0
C384 C 0.41119 0.25705 0.96272 0.0
C385 C 0.40396 0.27257 0.95654 0.0
C386 C 0.38813 0.26416 0.94346 0.0
C387 C 0.38062 0.24111 0.9363 0.0
C388 C 0.36169 0.17358 0.8953 0.0
C389 C 0.3587 0.19137 0.88843 0.0
C390 C 0.35157 0.1881 0.87336 0.0
C391 C 0.34708 0.16688 0.86478 0.0
C392 C 0.34959 0.14884 0.87169 0.0
C393 C 0.35686 0.15217 0.88677 0.0
C394 C 0.39388 0.15094 0.93842 0.0
C395 C 0.39941 0.13587 0.92947 0.0
C396 C 0.85321 0.27299 0.92832 0.0
C397 C 0.85253 0.27895 0.94327 0.0
C398 C 0.83492 0.261 0.95119 0.0
C399 C 0.81818 0.23773 0.94426 0.0
H400 H 0.75826 0.17095 0.95058 0.0
H401 H 0.72145 0.1461 0.9626 0.0
H402 H 0.6834 0.10572 0.92076 0.0
H403 H 0.72031 0.1307 0.9086 0.0
H404 H 0.76171 0.13515 0.88309 0.0
H405 H 0.77018 0.12583 0.85842 0.0
H406 H 0.82843 0.20085 0.85883 0.0
H407 H 0.82047 0.21003 0.88323 0.0
H408 H 0.83759 0.24596 0.90985 0.0
H409 H 0.86625 0.28646 0.92182 0.0
H410 H 0.83412 0.26487 0.96278 0.0
H411 H 0.8048 0.22437 0.95067 0.0
N412 N 0.78107 0.19152 0.92838 0.0
N413 N 0.76694 0.16343 0.90721 0.0
N414 N 0.80334 0.2012 0.90781 0.0
C415 C 0.76407 0.16949 0.92123 0.0
C416 C 0.78671 0.17928 0.90046 0.0
C417 C 0.80073 0.2075 0.92172 0.0
C418 C 0.74222 0.15293 0.92859 0.0
C419 C 0.74213 0.15669 0.94391 0.0
C420 C 0.72108 0.14235 0.95084 0.0
C421 C 0.69953 0.12405 0.94261 0.0
C422 C 0.6997 0.11989 0.92735 0.0
C423 C 0.72089 0.13408 0.92041 0.0
C424 C 0.79054 0.17327 0.88526 0.0
C425 C 0.77628 0.14962 0.87788 0.0
C426 C 0.78109 0.14429 0.86375 0.0
C427 C 0.80024 0.16251 0.85676 0.0
C428 C 0.81398 0.18621 0.86403 0.0
C429 C 0.80926 0.1915 0.87805 0.0
C430 C 0.81879 0.23186 0.92928 0.0
C431 C 0.83662 0.24973 0.92143 0.0
C432 C 0.60873 0.72916 0.0682 0.0
C433 C 0.59951 0.72339 0.05326 0.0
C434 C 0.59924 0.7417 0.04537 0.0
C435 C 0.60732 0.76502 0.05238 0.0
H436 H 0.60959 0.83084 0.04687 0.0
H437 H 0.59509 0.85583 0.03558 0.0
H438 H 0.60384 0.89412 0.07819 0.0
H439 H 0.61909 0.86973 0.08942 0.0
H440 H 0.65086 0.86243 0.11587 0.0
H441 H 0.66474 0.86954 0.14208 0.0
H442 H 0.6578 0.79799 0.14047 0.0
H443 H 0.64468 0.79113 0.11436 0.0
H444 H 0.62339 0.75598 0.08677 0.0
H445 H 0.60886 0.71544 0.07468 0.0
H446 H 0.59263 0.73798 0.03379 0.0
H447 H 0.60648 0.77856 0.04604 0.0
N448 N 0.6178 0.81049 0.0686 0.0
N449 N 0.63205 0.83695 0.09044 0.0
N450 N 0.63233 0.80004 0.08951 0.0
C451 C 0.62244 0.83175 0.07612 0.0
C452 C 0.63717 0.8212 0.09719 0.0
C453 C 0.62272 0.79454 0.07523 0.0
C454 C 0.61538 0.84816 0.06908 0.0
C455 C 0.60861 0.84472 0.05383 0.0
C456 C 0.60015 0.85896 0.04735 0.0
C457 C 0.59807 0.87685 0.05598 0.0
C458 C 0.60547 0.88072 0.07117 0.0
C459 C 0.61412 0.86662 0.07763 0.0
C460 C 0.6466 0.82619 0.11297 0.0
C461 C 0.65246 0.84828 0.12109 0.0
C462 C 0.66029 0.85231 0.13613 0.0
C463 C 0.66237 0.83433 0.14338 0.0
C464 C 0.65681 0.81241 0.13521 0.0
C465 C 0.6491 0.80842 0.1202 0.0
C466 C 0.61595 0.77055 0.06741 0.0
C467 C 0.61694 0.75246 0.07516 0.0
C468 C 0.3062 0.86613 0.08074 0.0
C469 C 0.30588 0.86376 0.06529 0.0
C470 C 0.28345 0.84768 0.0569 0.0
C471 C 0.26212 0.83396 0.06373 0.0
H472 H 0.20368 0.76233 0.0592 0.0
H473 H 0.17336 0.72214 0.04718 0.0
H474 H 0.1259 0.71257 0.08154 0.0
H475 H 0.15602 0.75281 0.09355 0.0
H476 H 0.1804 0.78413 0.12345 0.0
H477 H 0.17346 0.79464 0.14788 0.0
H478 H 0.23656 0.86713 0.14855 0.0
H479 H 0.24401 0.85637 0.12399 0.0
H480 H 0.28566 0.85466 0.09949 0.0
H481 H 0.32315 0.87805 0.08762 0.0
H482 H 0.28224 0.84577 0.04498 0.0
H483 H 0.24524 0.82165 0.05688 0.0
N484 N 0.22205 0.79938 0.07891 0.0
N485 N 0.19874 0.7914 0.09901 0.0
N486 N 0.2371 0.82734 0.10014 0.0
C487 C 0.2014 0.78458 0.08522 0.0
C488 C 0.21637 0.81269 0.10656 0.0
C489 C 0.23996 0.82075 0.08625 0.0
C490 C 0.1824 0.76079 0.07741 0.0
C491 C 0.18673 0.75178 0.06417 0.0
C492 C 0.16942 0.72869 0.05731 0.0
C493 C 0.14735 0.71418 0.06348 0.0
C494 C 0.14268 0.72342 0.07648 0.0
C495 C 0.16004 0.74645 0.0834 0.0
C496 C 0.21273 0.81944 0.12165 0.0
C497 C 0.19287 0.80237 0.12872 0.0
C498 C 0.18875 0.80845 0.14276 0.0
C499 C 0.20425 0.83184 0.15013 0.0
C500 C 0.22434 0.8489 0.1432 0.0
C501 C 0.22856 0.84275 0.1291 0.0
C502 C 0.26251 0.83622 0.07915 0.0
C503 C 0.28471 0.85266 0.08758 0.0
C504 C 0.15074 0.44296 0.08587 0.0
C505 C 0.15139 0.44738 0.07096 0.0
C506 C 0.16989 0.44715 0.06318 0.0
C507 C 0.18742 0.44271 0.07015 0.0
H508 H 0.2551 0.45236 0.06594 0.0
H509 H 0.2914 0.4617 0.05362 0.0
H510 H 0.31704 0.43439 0.08863 0.0
H511 H 0.28077 0.4255 0.10126 0.0
H512 H 0.24336 0.4004 0.12746 0.0
H513 H 0.23618 0.38465 0.15163 0.0
H514 H 0.17981 0.40397 0.15548 0.0
H515 H 0.18689 0.4197 0.13153 0.0
H516 H 0.16706 0.43492 0.10431 0.0
H517 H 0.13657 0.44282 0.09212 0.0
H518 H 0.17103 0.45074 0.05172 0.0
H519 H 0.20144 0.44274 0.06379 0.0
N520 N 0.22551 0.43732 0.08569 0.0
N521 N 0.23954 0.42452 0.10578 0.0
N522 N 0.20256 0.42511 0.10594 0.0
C523 C 0.24274 0.43305 0.09224 0.0
C524 C 0.21944 0.42054 0.1127 0.0
C525 C 0.20538 0.43341 0.09241 0.0
C526 C 0.26487 0.43813 0.08466 0.0
C527 C 0.26837 0.44824 0.07107 0.0
C528 C 0.28921 0.4535 0.06391 0.0
C529 C 0.30718 0.44874 0.07007 0.0
C530 C 0.30372 0.43856 0.08364 0.0
C531 C 0.28282 0.43332 0.09085 0.0
C532 C 0.21572 0.41133 0.1275 0.0
C533 C 0.2295 0.40138 0.13349 0.0
C534 C 0.2253 0.39223 0.14729 0.0
C535 C 0.20746 0.39312 0.15548 0.0
C536 C 0.19388 0.40326 0.14954 0.0
C537 C 0.19787 0.41215 0.13573 0.0
C538 C 0.18676 0.43818 0.08506 0.0
C539 C 0.16815 0.4383 0.09282 0.0
C540 C 0.36611 0.89339 0.25674 0.0
C541 C 0.3613 0.88136 0.26966 0.0
C542 C 0.37826 0.87501 0.27551 0.0
C543 C 0.39947 0.88057 0.26867 0.0
H544 H 0.45646 0.86504 0.26853 0.0
H545 H 0.48611 0.85552 0.2803 0.0
H546 H 0.54359 0.91033 0.25767 0.0
H547 H 0.51396 0.91971 0.24569 0.0
H548 H 0.49053 0.92358 0.21293 0.0
H549 H 0.49916 0.94185 0.18986 0.0
H550 H 0.43666 0.95253 0.19139 0.0
H551 H 0.4275 0.93346 0.21444 0.0
H552 H 0.39045 0.9082 0.23993 0.0
H553 H 0.35331 0.89833 0.25185 0.0
H554 H 0.37537 0.86607 0.28556 0.0
H555 H 0.41208 0.87544 0.27362 0.0
N556 N 0.44374 0.89331 0.25508 0.0
N557 N 0.4694 0.91001 0.23637 0.0
N558 N 0.43199 0.9098 0.23599 0.0
C559 C 0.46489 0.89895 0.24902 0.0
C560 C 0.45307 0.91541 0.22971 0.0
C561 C 0.42722 0.89873 0.24871 0.0
C562 C 0.48284 0.89314 0.25616 0.0
C563 C 0.47541 0.87508 0.26605 0.0
C564 C 0.49232 0.86951 0.27273 0.0
C565 C 0.5171 0.8822 0.26988 0.0
C566 C 0.52461 0.90038 0.2601 0.0
C567 C 0.50761 0.90564 0.2532 0.0
C568 C 0.45829 0.92702 0.21564 0.0
C569 C 0.47857 0.92983 0.20843 0.0
C570 C 0.48366 0.94052 0.19518 0.0
C571 C 0.46875 0.94889 0.18875 0.0
C572 C 0.44842 0.94608 0.19593 0.0
C573 C 0.44323 0.93524 0.2092 0.0
C574 C 0.40437 0.89265 0.25576 0.0
C575 C 0.38736 0.89894 0.24986 0.0
C576 C 0.07482 0.45825 0.27086 0.0
C577 C 0.07924 0.46078 0.28631 0.0
C578 C 0.07487 0.47744 0.29457 0.0
C579 C 0.06682 0.4916 0.28755 0.0
H580 H 0.07222 0.55999 0.29357 0.0
H581 H 0.08662 0.60143 0.30476 0.0
H582 H 0.06646 0.62024 0.26364 0.0
H583 H 0.05216 0.57911 0.25239 0.0
H584 H 0.03147 0.54294 0.22541 0.0
H585 H 0.01717 0.53441 0.19944 0.0
H586 H 0.01153 0.4635 0.19918 0.0
H587 H 0.02659 0.47229 0.22526 0.0
H588 H 0.06363 0.46999 0.25195 0.0
H589 H 0.07839 0.44596 0.2641 0.0
H590 H 0.07759 0.47955 0.30648 0.0
H591 H 0.06387 0.50443 0.29423 0.0
N592 N 0.05985 0.52654 0.27175 0.0
N593 N 0.04479 0.53566 0.25047 0.0
N594 N 0.04564 0.49909 0.25033 0.0
C595 C 0.05459 0.54195 0.26472 0.0
C596 C 0.04013 0.51427 0.2432 0.0
C597 C 0.05541 0.50508 0.26463 0.0
C598 C 0.06123 0.56623 0.27203 0.0
C599 C 0.07066 0.57288 0.28694 0.0
C600 C 0.07881 0.59656 0.29338 0.0
C601 C 0.07787 0.61405 0.28501 0.0
C602 C 0.06773 0.60719 0.27028 0.0
C603 C 0.05942 0.58354 0.26387 0.0
C604 C 0.03027 0.50833 0.22748 0.0
C605 C 0.02711 0.52545 0.2199 0.0
C606 C 0.01872 0.52049 0.20497 0.0
C607 C 0.01311 0.49823 0.19722 0.0
C608 C 0.01596 0.48095 0.2048 0.0
C609 C 0.02447 0.48595 0.21977 0.0
C610 C 0.06264 0.48919 0.27211 0.0
C611 C 0.06644 0.47214 0.26386 0.0
C612 C 0.51835 0.60738 0.26017 0.0
C613 C 0.52031 0.61272 0.27551 0.0
C614 C 0.50457 0.5942 0.28391 0.0
C615 C 0.48706 0.57111 0.27712 0.0
H616 H 0.41225 0.51882 0.2777 0.0
H617 H 0.37583 0.49445 0.28988 0.0
H618 H 0.3588 0.43078 0.2606 0.0
H619 H 0.39505 0.45561 0.24792 0.0
H620 H 0.42241 0.4693 0.21589 0.0
H621 H 0.42941 0.45827 0.19121 0.0
H622 H 0.49733 0.52735 0.19365 0.0
H623 H 0.49081 0.53811 0.21808 0.0
H624 H 0.50001 0.58082 0.24157 0.0
H625 H 0.52976 0.62125 0.25328 0.0
H626 H 0.50582 0.59744 0.29577 0.0
H627 H 0.47518 0.55729 0.2839 0.0
N628 N 0.44635 0.52673 0.26119 0.0
N629 N 0.43203 0.49713 0.24078 0.0
N630 N 0.46929 0.53404 0.24096 0.0
C631 C 0.42896 0.50455 0.25441 0.0
C632 C 0.45228 0.5119 0.23399 0.0
C633 C 0.46655 0.54155 0.25453 0.0
C634 C 0.40667 0.48918 0.26182 0.0
C635 C 0.40084 0.4996 0.27383 0.0
C636 C 0.37994 0.48553 0.28093 0.0
C637 C 0.36438 0.46053 0.27636 0.0
C638 C 0.37019 0.45004 0.26433 0.0
C639 C 0.39104 0.46424 0.25709 0.0
C640 C 0.45604 0.50457 0.21906 0.0
C641 C 0.43888 0.48205 0.21117 0.0
C642 C 0.44283 0.47577 0.19701 0.0
C643 C 0.46404 0.49184 0.19051 0.0
C644 C 0.48106 0.51429 0.19842 0.0
C645 C 0.47716 0.52054 0.21246 0.0
C646 C 0.48517 0.56587 0.2618 0.0
C647 C 0.50113 0.58419 0.25342 0.0
Eu648 Eu 0.49195 0.9798 0.98817 0.0
Eu649 Eu 0.51203 0.01488 0.01994 0.0
C650 C 0.4841 0.02584 0.99427 0.0
C651 C 0.48365 0.96498 0.94707 0.0
C652 C 0.49166 0.9896 0.94522 0.0
C653 C 0.48743 0.95793 0.92117 0.0
C654 C 0.49754 0.99834 0.93145 0.0
C655 C 0.4815 0.9492 0.93496 0.0
C656 C 0.49569 0.98268 0.91925 0.0
C657 C 0.47933 0.9563 0.96181 0.0
O658 O 0.47138 0.98881 0.01983 0.0
O659 O 0.46627 0.95656 0.00422 0.0
C660 C 0.45885 0.96557 0.01478 0.0
O661 O 0.51774 0.97044 1.00041 0.0
O662 O 0.50604 0.03536 0.03776 0.0
O663 O 0.53893 0.03251 0.03916 0.0
O664 O 0.51268 0.98051 0.02386 0.0
C665 C 0.51977 0.96915 0.01465 0.0
O666 O 0.5236 0.01589 0.98376 0.0
O667 O 0.54485 0.02845 0.00669 0.0
O668 O 0.50337 0.03609 0.00408 0.0
O669 O 0.49903 0.96093 0.97002 0.0
O670 O 0.4647 0.96096 0.96913 0.0
O671 O 0.47371 0.00265 0.98928 0.0
C672 C 0.52011 0.03061 0.06112 0.0
C673 C 0.51777 0.00819 0.06442 0.0
C674 C 0.51108 0.03691 0.08601 0.0
C675 C 0.5124 0.00032 0.07842 0.0
C676 C 0.51668 0.04488 0.07201 0.0
C677 C 0.50895 0.01456 0.08938 0.0
C678 C 0.52502 0.03863 0.04621 0.0
C679 C 0.54417 0.02899 0.99231 0.0
H680 H 0.49364 0.00215 0.95448 0.0
H681 H 0.4861 0.94542 0.9121 0.0
H682 H 0.50347 0.01739 0.93038 0.0
H683 H 0.47566 0.93022 0.93623 0.0
H684 H 0.51992 0.99662 0.05614 0.0
H685 H 0.50868 0.04836 0.09424 0.0
H686 H 0.51053 0.98286 0.08059 0.0
H687 H 0.51821 0.06214 0.06966 0.0
Eu688 Eu 0.01462 0.50322 0.98967 0.0
Eu689 Eu 0.98149 0.48962 0.01813 0.0
C690 C 0.96798 0.45047 0.99019 0.0
C691 C 0.03578 0.51411 0.95109 0.0
C692 C 0.01331 0.49662 0.94334 0.0
C693 C 0.04987 0.53246 0.92843 0.0
C694 C 0.00924 0.49691 0.92818 0.0
C695 C 0.05397 0.53204 0.94356 0.0
C696 C 0.02748 0.51486 0.92054 0.0
C697 C 0.04036 0.51427 0.96704 0.0
O698 O 0.01701 0.49203 0.02643 0.0
O699 O 0.02799 0.48373 0.00424 0.0
C700 C 0.02995 0.48524 0.01871 0.0
O701 O 0.03737 0.53288 0.00782 0.0
O702 O 0.96179 0.46339 0.0337 0.0
O703 O 0.96153 0.49751 0.03432 0.0
O704 O 0.00655 0.53055 0.02104 0.0
C705 C 0.02917 0.54261 0.01741 0.0
O706 O 0.98849 0.5175 0.98597 0.0
O707 O 0.95801 0.49258 0.9998 0.0
O708 O 0.97085 0.45437 0.0046 0.0
O709 O 0.03773 0.53016 0.97529 0.0
O710 O 0.03101 0.49301 0.97227 0.0
O711 O 0.97959 0.46832 0.98195 0.0
C712 C 0.96055 0.4805 0.05679 0.0
C713 C 0.98324 0.49885 0.06383 0.0
C714 C 0.94787 0.46503 0.08031 0.0
C715 C 0.98821 0.50031 0.07907 0.0
C716 C 0.94289 0.46368 0.0651 0.0
C717 C 0.97063 0.48329 0.08748 0.0
C718 C 0.95557 0.47766 0.04072 0.0
C719 C 0.96583 0.50777 0.98957 0.0
H720 H 0.99894 0.4827 0.94898 0.0
H721 H 0.06414 0.54677 0.92296 0.0
H722 H 0.99192 0.48289 0.92243 0.0
H723 H 0.07133 0.54582 0.94942 0.0
H724 H 0.99719 0.51188 0.05754 0.0
H725 H 0.93408 0.45139 0.08639 0.0
H726 H 0.00579 0.5148 0.08426 0.0
H727 H 0.92539 0.44922 0.05977 0.0
Eu728 Eu 0.51157 0.49351 0.01816 0.0
Eu729 Eu 0.48713 0.50327 0.9881 0.0
C730 C 0.51984 0.54614 0.01355 0.0
C731 C 0.52168 0.48433 0.05795 0.0
C732 C 0.51538 0.50115 0.06396 0.0
C733 C 0.51304 0.46443 0.08057 0.0
C734 C 0.50809 0.4997 0.07821 0.0
C735 C 0.52051 0.46602 0.06636 0.0
C736 C 0.50665 0.48121 0.08667 0.0
C737 C 0.5277 0.48451 0.04261 0.0
O738 O 0.5195 0.50051 0.98116 0.0
O739 O 0.54247 0.51002 0.00352 0.0
C740 C 0.54051 0.50776 0.98902 0.0
O741 O 0.5005 0.46168 1.00137 0.0
O742 O 0.48524 0.52842 0.97333 0.0
O743 O 0.46224 0.48943 0.96789 0.0
O744 O 0.46815 0.46264 0.98959 0.0
C745 C 0.4794 0.4507 0.99322 0.0
O746 O 0.4721 0.48104 0.02171 0.0
O747 O 0.46283 0.5025 0.00554 0.0
O748 O 0.51616 0.53981 0.99933 0.0
O749 O 0.51023 0.46758 0.0333 0.0
O750 O 0.53867 0.50573 0.03731 0.0
O751 O 0.51366 0.5297 0.02299 0.0
C752 C 0.47987 0.51337 0.94848 0.0
C753 C 0.49289 0.50172 0.94423 0.0
C754 C 0.48552 0.53082 0.92504 0.0
C755 C 0.50196 0.50441 0.93047 0.0
C756 C 0.47631 0.528 0.93883 0.0
C757 C 0.49845 0.51903 0.92069 0.0
C758 C 0.47091 0.51096 0.96316 0.0
C759 C 0.4581 0.48972 0.01699 0.0
H760 H 0.51584 0.51528 0.0576 0.0
H761 H 0.51179 0.44972 0.08664 0.0
H762 H 0.5037 0.51318 0.0826 0.0
H763 H 0.52496 0.45265 0.06182 0.0
H764 H 0.49601 0.49046 0.95155 0.0
H765 H 0.48274 0.54245 0.91787 0.0
H766 H 0.51142 0.49471 0.92744 0.0
H767 H 0.46656 0.53735 0.94199 0.0
Eu768 Eu 0.15719 0.31749 0.32239 0.0
Eu769 Eu 0.17816 0.35098 0.3547 0.0
C770 C 0.14937 0.36301 0.33014 0.0
C771 C 0.14935 0.30472 0.28098 0.0
C772 C 0.15501 0.32874 0.27902 0.0
C773 C 0.15659 0.29938 0.25554 0.0
C774 C 0.16137 0.338 0.26542 0.0
C775 C 0.1501 0.29009 0.26914 0.0
C776 C 0.16247 0.32353 0.25351 0.0
C777 C 0.1446 0.29554 0.2956 0.0
O778 O 0.1379 0.32432 0.35543 0.0
O779 O 0.13086 0.29336 0.33791 0.0
C780 C 0.12466 0.30154 0.34954 0.0
O781 O 0.18219 0.3065 0.33408 0.0
O782 O 0.17349 0.37182 0.37291 0.0
O783 O 0.20532 0.36716 0.37389 0.0
O784 O 0.17768 0.31589 0.3578 0.0
C785 C 0.18428 0.30458 0.34824 0.0
O786 O 0.18905 0.35404 0.31867 0.0
O787 O 0.21068 0.36344 0.34131 0.0
O788 O 0.1691 0.37289 0.33959 0.0
O789 O 0.16394 0.29916 0.30378 0.0
O790 O 0.13025 0.30044 0.30307 0.0
O791 O 0.13873 0.33997 0.32482 0.0
C792 C 0.18657 0.3649 0.39587 0.0
C793 C 0.18096 0.34099 0.39813 0.0
C794 C 0.17918 0.37084 0.42122 0.0
C795 C 0.17467 0.33212 0.41182 0.0
C796 C 0.18565 0.37976 0.40751 0.0
C797 C 0.17352 0.34684 0.42355 0.0
C798 C 0.19206 0.37382 0.38122 0.0
C799 C 0.20988 0.3656 0.3271 0.0
H800 H 0.15482 0.34046 0.28808 0.0
H801 H 0.15759 0.2878 0.24673 0.0
H802 H 0.1654 0.35652 0.26425 0.0
H803 H 0.14614 0.27163 0.2705 0.0
H804 H 0.1813 0.32907 0.38927 0.0
H805 H 0.17816 0.3826 0.42989 0.0
H806 H 0.17086 0.31373 0.41321 0.0
H807 H 0.18961 0.39816 0.40594 0.0
Eu808 Eu 0.68492 0.83746 0.32246 0.0
Eu809 Eu 0.6505 0.82248 0.35004 0.0
C810 C 0.63736 0.78456 0.32208 0.0
C811 C 0.70764 0.84705 0.28421 0.0
C812 C 0.6852 0.82871 0.27687 0.0
C813 C 0.72155 0.86248 0.26087 0.0
C814 C 0.68097 0.82726 0.26158 0.0
C815 C 0.72579 0.86382 0.27614 0.0
C816 C 0.69903 0.84427 0.2534 0.0
C817 C 0.71181 0.84997 0.30032 0.0
O818 O 0.67648 0.80781 0.35342 0.0
O819 O 0.70804 0.83528 0.34131 0.0
C820 C 0.69969 0.81887 0.35079 0.0
O821 O 0.69523 0.87228 0.33642 0.0
O822 O 0.62752 0.79468 0.36405 0.0
O823 O 0.63224 0.83107 0.36697 0.0
O824 O 0.68504 0.85724 0.3587 0.0
C825 C 0.69723 0.87552 0.35085 0.0
O826 O 0.64944 0.83491 0.31379 0.0
O827 O 0.63878 0.84375 0.33592 0.0
O828 O 0.62838 0.79439 0.33101 0.0
O829 O 0.7047 0.8638 0.30698 0.0
O830 O 0.70602 0.83024 0.30682 0.0
O831 O 0.66063 0.79635 0.31967 0.0
C832 C 0.62818 0.81023 0.3882 0.0
C833 C 0.64933 0.82949 0.39624 0.0
C834 C 0.61522 0.79077 0.41069 0.0
C835 C 0.65321 0.82954 0.41144 0.0
C836 C 0.61123 0.79085 0.3955 0.0
C837 C 0.63616 0.8102 0.41882 0.0
C838 C 0.62375 0.80988 0.3722 0.0
C839 C 0.63688 0.84227 0.32145 0.0
H840 H 0.67089 0.81573 0.28299 0.0
H841 H 0.73569 0.8761 0.25497 0.0
H842 H 0.66356 0.81283 0.25616 0.0
H843 H 0.7431 0.87826 0.28169 0.0
H844 H 0.66285 0.84449 0.39079 0.0
H845 H 0.60172 0.77574 0.41613 0.0
H846 H 0.66966 0.84458 0.41741 0.0
H847 H 0.59487 0.77579 0.38945 0.0
Eu848 Eu 0.18276 0.83264 0.3519 0.0
Eu849 Eu 0.15884 0.843 0.32193 0.0
C850 C 0.19151 0.88524 0.34668 0.0
C851 C 0.19055 0.82326 0.39171 0.0
C852 C 0.17282 0.82969 0.39475 0.0
C853 C 0.19164 0.81309 0.41686 0.0
C854 C 0.16456 0.82791 0.40871 0.0
C855 C 0.19977 0.81473 0.40279 0.0
C856 C 0.1741 0.81992 0.42002 0.0
C857 C 0.19946 0.82581 0.37703 0.0
O858 O 0.19811 0.85445 0.31826 0.0
O859 O 0.20694 0.83283 0.33455 0.0
C860 C 0.21179 0.84544 0.32302 0.0
O861 O 0.15463 0.79596 0.34035 0.0
O862 O 0.16142 0.86914 0.30657 0.0
O863 O 0.13138 0.83163 0.30308 0.0
O864 O 0.1566 0.80681 0.31682 0.0
C865 C 0.15084 0.79012 0.32607 0.0
O866 O 0.14984 0.83478 0.35853 0.0
O867 O 0.12738 0.82554 0.33604 0.0
O868 O 0.16986 0.87436 0.33915 0.0
O869 O 0.18548 0.80813 0.36687 0.0
O870 O 0.2072 0.84721 0.37227 0.0
O871 O 0.20277 0.87303 0.34949 0.0
C872 C 0.14894 0.85133 0.28217 0.0
C873 C 0.15731 0.83555 0.27735 0.0
C874 C 0.15448 0.86725 0.25828 0.0
C875 C 0.16408 0.83551 0.26306 0.0
C876 C 0.14755 0.86715 0.27256 0.0
C877 C 0.16291 0.85147 0.25336 0.0
C878 C 0.14327 0.85251 0.29748 0.0
C879 C 0.12892 0.82733 0.35051 0.0
H880 H 0.16562 0.83644 0.38635 0.0
H881 H 0.19957 0.80711 0.42536 0.0
H882 H 0.15077 0.83293 0.41065 0.0
H883 H 0.21349 0.8097 0.40063 0.0
H884 H 0.15879 0.82338 0.28467 0.0
H885 H 0.15368 0.88002 0.2512 0.0
H886 H 0.17009 0.82284 0.25961 0.0
H887 H 0.14146 0.8797 0.27618 0.0
Eu888 Eu 0.82487 0.64987 0.65381 0.0
Eu889 Eu 0.84569 0.68378 0.68597 0.0
C890 C 0.81869 0.69636 0.65986 0.0
C891 C 0.81733 0.63507 0.6128 0.0
C892 C 0.82761 0.66002 0.61093 0.0
C893 C 0.82044 0.62698 0.58692 0.0
C894 C 0.83411 0.66838 0.59715 0.0
C895 C 0.81383 0.61861 0.60072 0.0
C896 C 0.83068 0.652 0.58494 0.0
C897 C 0.81118 0.62648 0.62744 0.0
O898 O 0.81369 0.64738 0.6898 0.0
O899 O 0.79224 0.63751 0.66706 0.0
C900 C 0.79294 0.63557 0.68129 0.0
O901 O 0.83366 0.62813 0.66921 0.0
O902 O 0.83892 0.70227 0.70448 0.0
O903 O 0.8727 0.70116 0.70524 0.0
O904 O 0.86407 0.66118 0.68386 0.0
C905 C 0.85334 0.63806 0.67869 0.0
O906 O 0.86512 0.67646 0.65308 0.0
O907 O 0.87203 0.70765 0.67036 0.0
O908 O 0.82087 0.69478 0.67406 0.0
O909 O 0.82934 0.62821 0.63604 0.0
O910 O 0.79818 0.63393 0.63439 0.0
O911 O 0.82521 0.68481 0.65041 0.0
C912 C 0.85381 0.69726 0.72734 0.0
C913 C 0.84562 0.67259 0.72914 0.0
C914 C 0.85011 0.70426 0.75327 0.0
C915 C 0.83972 0.66381 0.7429 0.0
C916 C 0.85607 0.71303 0.73949 0.0
C917 C 0.84172 0.67948 0.75515 0.0
C918 C 0.85838 0.70616 0.71266 0.0
C919 C 0.87828 0.69933 0.65882 0.0
H920 H 0.83065 0.67308 0.62015 0.0
H921 H 0.81786 0.61387 0.57785 0.0
H922 H 0.84157 0.68768 0.59604 0.0
H923 H 0.80617 0.59933 0.602 0.0
H924 H 0.84354 0.66005 0.71984 0.0
H925 H 0.85153 0.71679 0.76236 0.0
H926 H 0.83368 0.64473 0.74394 0.0
H927 H 0.86206 0.73206 0.73827 0.0
Eu928 Eu 0.35532 0.17356 0.65696 0.0
Eu929 Eu 0.3218 0.15867 0.68521 0.0
C930 C 0.30878 0.12033 0.65695 0.0
C931 C 0.37475 0.18549 0.61845 0.0
C932 C 0.35203 0.1828 0.61334 0.0
C933 C 0.38597 0.18781 0.59342 0.0
C934 C 0.34632 0.18265 0.59834 0.0
C935 C 0.39169 0.18804 0.60844 0.0
C936 C 0.36318 0.18504 0.58818 0.0
C937 C 0.38066 0.18526 0.63416 0.0
O938 O 0.35739 0.16109 0.69342 0.0
O939 O 0.3689 0.15386 0.67115 0.0
C940 C 0.37056 0.15474 0.6856 0.0
O941 O 0.3778 0.20291 0.67537 0.0
O942 O 0.30326 0.13279 0.70118 0.0
O943 O 0.30035 0.16544 0.70079 0.0
O944 O 0.34662 0.19959 0.6886 0.0
C945 C 0.36931 0.21204 0.68514 0.0
O946 O 0.32897 0.18762 0.65353 0.0
O947 O 0.29833 0.16152 0.66681 0.0
O948 O 0.31121 0.12374 0.67137 0.0
O949 O 0.37877 0.20102 0.64303 0.0
O950 O 0.3711 0.1637 0.63898 0.0
O951 O 0.32053 0.13852 0.64895 0.0
C952 C 0.30022 0.15009 0.72375 0.0
C953 C 0.32239 0.16944 0.73074 0.0
C954 C 0.28745 0.13575 0.74748 0.0
C955 C 0.32706 0.17194 0.74606 0.0
C956 C 0.28277 0.13336 0.73219 0.0
C957 C 0.30971 0.155 0.7546 0.0
C958 C 0.29558 0.14627 0.70765 0.0
C959 C 0.30614 0.17719 0.65685 0.0
H960 H 0.33872 0.18078 0.62097 0.0
H961 H 0.3992 0.18932 0.58588 0.0
H962 H 0.32875 0.18078 0.5947 0.0
H963 H 0.40925 0.19 0.61224 0.0
H964 H 0.33616 0.18244 0.72434 0.0
H965 H 0.27387 0.12216 0.75368 0.0
H966 H 0.34424 0.18713 0.7512 0.0
H967 H 0.26567 0.11817 0.72691 0.0
Eu968 Eu 0.84738 0.15782 0.68512 0.0
Eu969 Eu 0.82481 0.17101 0.65569 0.0
C970 C 0.85513 0.21148 0.68251 0.0
C971 C 0.85753 0.14854 0.72477 0.0
C972 C 0.85263 0.16669 0.73026 0.0
C973 C 0.84968 0.1312 0.74823 0.0
C974 C 0.84648 0.1672 0.74467 0.0
C975 C 0.85606 0.13083 0.73385 0.0
C976 C 0.8448 0.14937 0.75378 0.0
C977 C 0.86216 0.14672 0.70929 0.0
O978 O 0.86466 0.18402 0.65292 0.0
O979 O 0.87193 0.15962 0.66763 0.0
C980 C 0.87786 0.17416 0.65702 0.0
O981 O 0.81985 0.12234 0.67212 0.0
O982 O 0.82812 0.19788 0.64069 0.0
O983 O 0.79724 0.16081 0.63704 0.0
O984 O 0.82294 0.13534 0.64914 0.0
C985 C 0.81684 0.11777 0.65775 0.0
O986 O 0.81582 0.16168 0.69232 0.0
O987 O 0.79337 0.15318 0.66991 0.0
O988 O 0.83529 0.2018 0.6732 0.0
O989 O 0.84302 0.1311 0.70047 0.0
O990 O 0.87517 0.16724 0.70356 0.0
O991 O 0.86558 0.19887 0.68636 0.0
C992 C 0.81463 0.18102 0.61606 0.0
C993 C 0.81444 0.16056 0.60906 0.0
C994 C 0.82739 0.20181 0.59392 0.0
C995 C 0.82049 0.16067 0.59458 0.0
C996 C 0.82108 0.20159 0.60836 0.0
C997 C 0.82715 0.18134 0.58688 0.0
C998 C 0.80961 0.18177 0.6316 0.0
C999 C 0.79498 0.15482 0.6844 0.0
H1000 H 0.85318 0.18025 0.72333 0.0
H1001 H 0.84869 0.11735 0.75505 0.0
H1002 H 0.8425 0.18123 0.74858 0.0
H1003 H 0.85949 0.11652 0.72973 0.0
H1004 H 0.80992 0.14457 0.61481 0.0
H1005 H 0.83227 0.2179 0.58821 0.0
H1006 H 0.82044 0.14475 0.58949 0.0
H1007 H 0.82151 0.21762 0.61359 0.0
H1008 H 0.31992 0.84927 0.04046 0.0
H1009 H 0.34384 0.91057 0.07336 0.0
H1010 H 0.35592 0.87329 0.02767 0.0
H1011 H 0.38077 0.93382 0.06126 0.0
H1012 H 0.43032 0.9797 0.02863 0.0
H1013 H 0.39349 0.95467 0.0404 0.0
H1014 H 0.39887 0.89061 0.02806 0.0
H1015 H 0.43533 0.91578 0.0156 0.0
C1016 C 0.33284 0.86785 0.04501 0.0
C1017 C 0.3287 0.87799 0.05791 0.0
C1018 C 0.35377 0.88152 0.03777 0.0
C1019 C 0.37131 0.90561 0.04333 0.0
C1020 C 0.36747 0.91552 0.05644 0.0
C1021 C 0.3464 0.90198 0.06356 0.0
C1022 C 0.4236 0.96024 0.02837 0.0
C1023 C 0.43577 0.94971 0.02124 0.0
C1024 C 0.40254 0.94587 0.03525 0.0
C1025 C 0.39328 0.92059 0.03542 0.0
C1026 C 0.40528 0.90996 0.02805 0.0
C1027 C 0.42622 0.92436 0.02094 0.0
H1028 H 0.12601 0.42826 0.0438 0.0
H1029 H 0.13509 0.47764 0.08134 0.0
H1030 H 0.09617 0.43676 0.03139 0.0
H1031 H 0.10566 0.48665 0.06885 0.0
H1032 H 0.03472 0.47986 0.04804 0.0
H1033 H 0.06323 0.46993 0.06073 0.0
H1034 H 0.09369 0.4682 0.01978 0.0
H1035 H 0.06469 0.47731 0.00702 0.0
C1036 C 0.12175 0.4411 0.04935 0.0
C1037 C 0.13292 0.45231 0.06353 0.0
C1038 C 0.10469 0.44604 0.04223 0.0
C1039 C 0.09853 0.4625 0.04907 0.0
C1040 C 0.10964 0.4736 0.06332 0.0
C1041 C 0.12656 0.4685 0.07048 0.0
C1042 C 0.04748 0.47732 0.04173 0.0
C1043 C 0.04736 0.47934 0.02649 0.0
C1044 C 0.06395 0.47176 0.04904 0.0
C1045 C 0.08081 0.46823 0.0413 0.0
C1046 C 0.08071 0.47035 0.02606 0.0
C1047 C 0.06414 0.47573 0.01874 0.0
H1048 H 0.61698 0.6919 0.05703 0.0
H1049 H 0.55845 0.69731 0.0337 0.0
H1050 H 0.59791 0.64913 0.04717 0.0
H1051 H 0.53984 0.65472 0.02357 0.0
H1052 H 0.52852 0.58442 0.99766 0.0
H1053 H 0.54878 0.62773 0.00658 0.0
H1054 H 0.55843 0.6104 0.05058 0.0
H1055 H 0.53822 0.56706 0.04173 0.0
C1056 C 0.60008 0.68401 0.0498 0.0
C1057 C 0.58918 0.69803 0.04623 0.0
C1058 C 0.58921 0.65954 0.04414 0.0
C1059 C 0.56735 0.64862 0.03469 0.0
C1060 C 0.55682 0.66277 0.03074 0.0
C1061 C 0.56756 0.68719 0.0365 0.0
C1062 C 0.53497 0.58982 0.00924 0.0
C1063 C 0.53177 0.57231 0.019 0.0
C1064 C 0.54647 0.61461 0.01434 0.0
C1065 C 0.55523 0.62238 0.02925 0.0
C1066 C 0.55209 0.6049 0.039 0.0
C1067 C 0.54036 0.58009 0.03394 0.0
H1068 H 0.84292 0.30642 0.96314 0.0
H1069 H 0.90128 0.3082 0.93954 0.0
H1070 H 0.87106 0.34783 0.97445 0.0
H1071 H 0.92923 0.34983 0.95066 0.0
H1072 H 0.96182 0.43334 0.96114 0.0
H1073 H 0.93401 0.39169 0.94986 0.0
H1074 H 0.90883 0.36924 0.99226 0.0
H1075 H 0.93639 0.41072 0.00355 0.0
C1076 C 0.86179 0.31552 0.96047 0.0
C1077 C 0.86983 0.30396 0.95043 0.0
C1078 C 0.87787 0.33927 0.96691 0.0
C1079 C 0.90229 0.35204 0.96339 0.0
C1080 C 0.91039 0.34052 0.9534 0.0
C1081 C 0.89437 0.3167 0.94704 0.0
C1082 C 0.95034 0.41952 0.96805 0.0
C1083 C 0.95131 0.42534 0.98324 0.0
C1084 C 0.93454 0.39567 0.9616 0.0
C1085 C 0.91927 0.37727 0.97019 0.0
C1086 C 0.92022 0.38312 0.98535 0.0
C1087 C 0.93612 0.40686 0.99182 0.0
H1088 H 0.66077 0.56864 0.93303 0.0
H1089 H 0.67224 0.51751 0.95682 0.0
H1090 H 0.62386 0.55787 0.94542 0.0
H1091 H 0.63577 0.50728 0.96939 0.0
H1092 H 0.58568 0.51689 1.00072 0.0
H1093 H 0.62203 0.52719 0.98785 0.0
H1094 H 0.58176 0.52242 0.94678 0.0
H1095 H 0.54544 0.51224 0.9596 0.0
C1096 C 0.65538 0.55498 0.94079 0.0
C1097 C 0.66968 0.54408 0.94395 0.0
C1098 C 0.63424 0.54887 0.94793 0.0
C1099 C 0.62696 0.53183 0.95846 0.0
C1100 C 0.64111 0.52079 0.96153 0.0
C1101 C 0.66209 0.52673 0.95432 0.0
C1102 C 0.58454 0.518 0.98894 0.0
C1103 C 0.56258 0.51367 0.98121 0.0
C1104 C 0.60535 0.5238 0.98156 0.0
C1105 C 0.60478 0.52562 0.96629 0.0
C1106 C 0.58287 0.52139 0.95856 0.0
C1107 C 0.56199 0.51537 0.96592 0.0
H1108 H 0.44402 0.13605 0.97615 0.0
H1109 H 0.40386 0.07723 0.94143 0.0
H1110 H 0.46062 0.11267 0.98725 0.0
H1111 H 0.42199 0.05475 0.95185 0.0
H1112 H 0.43788 0.00879 0.9813 0.0
H1113 H 0.42025 0.03222 0.97161 0.0
H1114 H 0.4891 0.09919 0.98432 0.0
H1115 H 0.50634 0.07563 0.99467 0.0
C1116 C 0.43868 0.11812 0.97087 0.0
C1117 C 0.42247 0.10853 0.9579 0.0
C1118 C 0.44856 0.10486 0.97712 0.0
C1119 C 0.44271 0.08179 0.97047 0.0
C1120 C 0.42663 0.07228 0.95744 0.0
C1121 C 0.41651 0.08538 0.95131 0.0
C1122 C 0.44924 0.02853 0.98206 0.0
C1123 C 0.47351 0.04039 0.9887 0.0
C1124 C 0.43918 0.04199 0.9764 0.0
C1125 C 0.45328 0.06763 0.97703 0.0
C1126 C 0.47756 0.07951 0.98381 0.0
C1127 C 0.48751 0.06602 0.98968 0.0
H1128 H 0.65319 0.11382 0.93333 0.0
H1129 H 0.69453 0.10306 0.96848 0.0
H1130 H 0.61596 0.09222 0.94567 0.0
H1131 H 0.65716 0.08087 0.98072 0.0
H1132 H 0.59018 0.06213 0.00571 0.0
H1133 H 0.62773 0.08572 0.99384 0.0
H1134 H 0.58725 0.05243 0.95124 0.0
H1135 H 0.54984 0.02968 0.96297 0.0
C1136 C 0.65422 0.10652 0.94361 0.0
C1137 C 0.67674 0.11004 0.94991 0.0
C1138 C 0.63288 0.09413 0.9507 0.0
C1139 C 0.63349 0.08473 0.96421 0.0
C1140 C 0.65605 0.0882 0.97048 0.0
C1141 C 0.67745 0.10079 0.96343 0.0
C1142 C 0.58931 0.06001 0.99381 0.0
C1143 C 0.56698 0.04408 0.98531 0.0
C1144 C 0.61087 0.07339 0.98699 0.0
C1145 C 0.61057 0.071 0.97156 0.0
C1146 C 0.58816 0.05512 0.96311 0.0
C1147 C 0.56666 0.04192 0.96989 0.0
H1148 H 0.83683 0.50687 0.94899 0.0
H1149 H 0.8971 0.57847 0.94314 0.0
H1150 H 0.8655 0.49669 0.96121 0.0
H1151 H 0.92582 0.56847 0.95558 0.0
H1152 H 0.97294 0.53368 0.96554 0.0
H1153 H 0.94436 0.54347 0.95278 0.0
H1154 H 0.89131 0.50625 0.98363 0.0
H1155 H 0.91956 0.49587 0.99611 0.0
C1156 C 0.8562 0.52052 0.95044 0.0
C1157 C 0.86467 0.54349 0.94512 0.0
C1158 C 0.87266 0.51471 0.95747 0.0
C1159 C 0.89801 0.53177 0.95944 0.0
C1160 C 0.90649 0.55473 0.95406 0.0
C1161 C 0.89002 0.5605 0.94695 0.0
C1162 C 0.95518 0.52757 0.96961 0.0
C1163 C 0.94856 0.51395 0.98185 0.0
C1164 C 0.93882 0.53331 0.96233 0.0
C1165 C 0.91548 0.52566 0.96715 0.0
C1166 C 0.90894 0.51211 0.97944 0.0
C1167 C 0.92524 0.50627 0.98667 0.0
H1168 H 0.45174 0.30523 0.96594 0.0
H1169 H 0.37953 0.29747 0.96167 0.0
H1170 H 0.46953 0.34803 0.97515 0.0
H1171 H 0.39719 0.34027 0.97128 0.0
H1172 H 0.44097 0.42376 0.97216 0.0
H1173 H 0.42229 0.38038 0.96398 0.0
H1174 H 0.47248 0.37462 0.99557 0.0
H1175 H 0.4917 0.41812 0.00335 0.0
C1176 C 0.43962 0.31261 0.96725 0.0
C1177 C 0.41426 0.29805 0.96313 0.0
C1178 C 0.4498 0.33714 0.97255 0.0
C1179 C 0.4348 0.34763 0.97396 0.0
C1180 C 0.40932 0.33289 0.97009 0.0
C1181 C 0.39918 0.30838 0.96466 0.0
C1182 C 0.448 0.4132 0.97735 0.0
C1183 C 0.46789 0.42437 0.98834 0.0
C1184 C 0.43717 0.38829 0.97274 0.0
C1185 C 0.44586 0.37398 0.97912 0.0
C1186 C 0.46559 0.38516 0.99024 0.0
C1187 C 0.47656 0.4101 0.99474 0.0
H1188 H 0.1575 0.67927 0.05317 0.0
H1189 H 0.09729 0.69248 0.05858 0.0
H1190 H 0.12864 0.63782 0.04234 0.0
H1191 H 0.06829 0.65103 0.04748 0.0
H1192 H 0.0223 0.56706 0.04075 0.0
H1193 H 0.05065 0.60854 0.05201 0.0
H1194 H 0.10204 0.61671 0.02037 0.0
H1195 H 0.07418 0.57523 0.00943 0.0
C1196 C 0.13809 0.67337 0.05186 0.0
C1197 C 0.12966 0.68913 0.05665 0.0
C1198 C 0.12153 0.64962 0.04565 0.0
C1199 C 0.09614 0.64111 0.04398 0.0
C1200 C 0.08769 0.65689 0.04879 0.0
C1201 C 0.10428 0.68064 0.0551 0.0
C1202 C 0.03966 0.57773 0.03621 0.0
C1203 C 0.04603 0.56779 0.02424 0.0
C1204 C 0.05585 0.60155 0.04262 0.0
C1205 C 0.07867 0.61593 0.03713 0.0
C1206 C 0.08484 0.606 0.02506 0.0
C1207 C 0.06878 0.58221 0.01873 0.0
H1208 H 0.35485 0.46837 0.08219 0.0
H1209 H 0.31008 0.44256 0.04043 0.0
H1210 H 0.39134 0.47885 0.06947 0.0
H1211 H 0.34659 0.45327 0.02774 0.0
H1212 H 0.42079 0.49875 0.0091 0.0
H1213 H 0.38462 0.48925 0.02203 0.0
H1214 H 0.40963 0.45893 0.05548 0.0
H1215 H 0.4458 0.46866 0.04276 0.0
C1216 C 0.35272 0.46471 0.07032 0.0
C1217 C 0.32946 0.45463 0.06236 0.0
C1218 C 0.37368 0.47079 0.06301 0.0
C1219 C 0.37192 0.46699 0.04757 0.0
C1220 C 0.34867 0.45684 0.03961 0.0
C1221 C 0.32772 0.45068 0.04691 0.0
C1222 C 0.41862 0.49014 0.01924 0.0
C1223 C 0.43622 0.48443 0.02484 0.0
C1224 C 0.3978 0.48455 0.0266 0.0
C1225 C 0.39419 0.47329 0.03979 0.0
C1226 C 0.41193 0.46783 0.04545 0.0
C1227 C 0.43263 0.47328 0.03807 0.0
H1228 H 0.55932 0.85985 0.03472 0.0
H1229 H 0.61233 0.92528 0.06217 0.0
H1230 H 0.54069 0.88216 0.02442 0.0
H1231 H 0.59324 0.94737 0.05205 0.0
H1232 H 0.53336 0.96805 0.0434 0.0
H1233 H 0.55277 0.94595 0.05298 0.0
H1234 H 0.55104 0.91673 0.00877 0.0
H1235 H 0.5315 0.93874 0.99911 0.0
C1236 C 0.56721 0.87905 0.03843 0.0
C1237 C 0.58735 0.89075 0.04929 0.0
C1238 C 0.55645 0.89179 0.03255 0.0
C1239 C 0.56545 0.91645 0.03748 0.0
C1240 C 0.5857 0.92826 0.04821 0.0
C1241 C 0.5966 0.91558 0.05401 0.0
C1242 C 0.53701 0.95685 0.0357 0.0
C1243 C 0.53086 0.95515 0.02048 0.0
C1244 C 0.5483 0.94435 0.0412 0.0
C1245 C 0.5535 0.92972 0.03161 0.0
C1246 C 0.5471 0.92776 0.01641 0.0
C1247 C 0.53599 0.94044 0.0109 0.0
H1248 H 0.01885 0.22322 0.41132 0.0
H1249 H 0.97495 0.20373 0.36946 0.0
H1250 H 0.05593 0.2471 0.39921 0.0
H1251 H 0.01211 0.22753 0.35734 0.0
H1252 H 0.08761 0.25508 0.3392 0.0
H1253 H 0.0506 0.22877 0.35101 0.0
H1254 H 0.07415 0.28493 0.38726 0.0
H1255 H 0.11093 0.31086 0.37573 0.0
C1256 C 0.01708 0.22418 0.39956 0.0
C1257 C 0.9939 0.21166 0.39139 0.0
C1258 C 0.03834 0.23779 0.3926 0.0
C1259 C 0.03695 0.23923 0.37731 0.0
C1260 C 0.01383 0.2265 0.3691 0.0
C1261 C 0.99254 0.21291 0.37606 0.0
C1262 C 0.08488 0.26172 0.34971 0.0
C1263 C 0.10222 0.2851 0.35647 0.0
C1264 C 0.06364 0.24673 0.35643 0.0
C1265 C 0.05948 0.25476 0.37009 0.0
C1266 C 0.07693 0.27805 0.37685 0.0
C1267 C 0.09798 0.29301 0.37013 0.0
H1268 H 0.8247 0.80218 0.37751 0.0
H1269 H 0.77283 0.76452 0.40889 0.0
H1270 H 0.7955 0.81126 0.36519 0.0
H1271 H 0.74445 0.77545 0.3973 0.0
H1272 H 0.68847 0.77785 0.36459 0.0
H1273 H 0.71693 0.76719 0.37662 0.0
H1274 H 0.77815 0.83611 0.36729 0.0
H1275 H 0.74973 0.84605 0.35466 0.0
C1276 C 0.80708 0.7958 0.38182 0.0
C1277 C 0.80123 0.7825 0.39423 0.0
C1278 C 0.79042 0.80142 0.37487 0.0
C1279 C 0.76754 0.79428 0.38025 0.0
C1280 C 0.7617 0.78104 0.39269 0.0
C1281 C 0.77824 0.77509 0.39951 0.0
C1282 C 0.70803 0.79069 0.36513 0.0
C1283 C 0.71685 0.81272 0.3586 0.0
C1284 C 0.72439 0.78467 0.37212 0.0
C1285 C 0.74998 0.80072 0.37294 0.0
C1286 C 0.75868 0.82297 0.36661 0.0
C1287 C 0.74234 0.82879 0.35943 0.0
H1288 H 0.28314 0.02856 0.39395 0.0
H1289 H 0.23411 0.0387 0.36392 0.0
H1290 H 0.26446 0.98623 0.38375 0.0
H1291 H 0.21676 0.99689 0.35291 0.0
H1292 H 0.17027 0.91358 0.34946 0.0
H1293 H 0.19016 0.95674 0.35844 0.0
H1294 H 0.26032 0.95969 0.36345 0.0
H1295 H 0.24015 0.91629 0.35516 0.0
C1296 C 0.26851 0.02184 0.38508 0.0
C1297 C 0.25999 0.03705 0.37989 0.0
C1298 C 0.25802 0.9976 0.37906 0.0
C1299 C 0.23897 0.98801 0.36753 0.0
C1300 C 0.23107 0.00348 0.36196 0.0
C1301 C 0.24134 0.02765 0.36812 0.0
C1302 C 0.18994 0.9235 0.35248 0.0
C1303 C 0.20363 0.91155 0.35171 0.0
C1304 C 0.20141 0.94831 0.35752 0.0
C1305 C 0.2269 0.9618 0.36168 0.0
C1306 C 0.24061 0.94984 0.36062 0.0
C1307 C 0.22907 0.92496 0.3558 0.0
H1308 H 0.51463 0.63801 0.29891 0.0
H1309 H 0.56682 0.64415 0.26827 0.0
H1310 H 0.54359 0.67882 0.3103 0.0
H1311 H 0.59499 0.68581 0.27889 0.0
H1312 H 0.64987 0.75204 0.31029 0.0
H1313 H 0.62217 0.71017 0.29948 0.0
H1314 H 0.55987 0.71978 0.30595 0.0
H1315 H 0.58749 0.76103 0.31737 0.0
C1316 C 0.53229 0.648 0.2946 0.0
C1317 C 0.53829 0.63766 0.28263 0.0
C1318 C 0.54879 0.67167 0.30098 0.0
C1319 C 0.5716 0.68583 0.29544 0.0
C1320 C 0.57772 0.67543 0.28356 0.0
C1321 C 0.56135 0.6516 0.2773 0.0
C1322 C 0.63025 0.74515 0.30936 0.0
C1323 C 0.62083 0.75972 0.31475 0.0
C1324 C 0.61434 0.72118 0.3031 0.0
C1325 C 0.5887 0.71143 0.30191 0.0
C1326 C 0.57943 0.72636 0.30701 0.0
C1327 C 0.59528 0.75012 0.31347 0.0
H1328 H 0.34074 0.91023 0.27422 0.0
H1329 H 0.33115 0.83954 0.28218 0.0
H1330 H 0.30475 0.90129 0.28707 0.0
H1331 H 0.29511 0.83056 0.295 0.0
H1332 H 0.24753 0.83396 0.3304 0.0
H1333 H 0.28343 0.84252 0.31748 0.0
H1334 H 0.26063 0.87548 0.2846 0.0
H1335 H 0.22515 0.86742 0.2976 0.0
C1336 C 0.3308 0.89267 0.27856 0.0
C1337 C 0.33889 0.87563 0.27716 0.0
C1338 C 0.31014 0.88753 0.28595 0.0
C1339 C 0.297 0.8652 0.29211 0.0
C1340 C 0.30501 0.84811 0.29063 0.0
C1341 C 0.32567 0.85325 0.28325 0.0
C1342 C 0.25016 0.84302 0.32042 0.0
C1343 C 0.23346 0.8501 0.31512 0.0
C1344 C 0.2707 0.84783 0.31296 0.0
C1345 C 0.27501 0.85978 0.3 0.0
C1346 C 0.25816 0.86664 0.29466 0.0
C1347 C 0.2377 0.86188 0.30211 0.0
H1348 H 0.06773 0.41352 0.27859 0.0
H1349 H 0.1125 0.47537 0.31079 0.0
H1350 H 0.085 0.39084 0.28968 0.0
H1351 H 0.12831 0.45189 0.32265 0.0
H1352 H 0.17245 0.4127 0.32969 0.0
H1353 H 0.15518 0.43646 0.31966 0.0
H1354 H 0.08453 0.3703 0.31012 0.0
H1355 H 0.10216 0.34663 0.31942 0.0
C1356 C 0.08118 0.42229 0.28808 0.0
C1357 C 0.08878 0.44638 0.2937 0.0
C1358 C 0.09082 0.40908 0.29462 0.0
C1359 C 0.10803 0.41944 0.30714 0.0
C1360 C 0.11535 0.4434 0.31292 0.0
C1361 C 0.10595 0.45675 0.30624 0.0
C1362 C 0.15322 0.40334 0.3255 0.0
C1363 C 0.13871 0.37782 0.3252 0.0
C1364 C 0.14324 0.41694 0.31982 0.0
C1365 C 0.11846 0.40531 0.31393 0.0
C1366 C 0.10382 0.37985 0.31417 0.0
C1367 C 0.11389 0.36626 0.3196 0.0
H1368 H 0.31889 0.42372 0.26434 0.0
H1369 H 0.35922 0.46373 0.30589 0.0
H1370 H 0.28227 0.40057 0.27687 0.0
H1371 H 0.32221 0.44191 0.31821 0.0
H1372 H 0.25723 0.38236 0.33858 0.0
H1373 H 0.29463 0.40417 0.32639 0.0
H1374 H 0.25171 0.4049 0.28798 0.0
H1375 H 0.21435 0.3822 0.29993 0.0
C1376 C 0.32001 0.42757 0.27615 0.0
C1377 C 0.34208 0.44574 0.28405 0.0
C1378 C 0.29885 0.41455 0.28332 0.0
C1379 C 0.2991 0.41949 0.29857 0.0
C1380 C 0.32127 0.43739 0.3065 0.0
C1381 C 0.34248 0.45021 0.29936 0.0
C1382 C 0.25583 0.38732 0.32757 0.0
C1383 C 0.23283 0.38053 0.32023 0.0
C1384 C 0.2773 0.3999 0.32057 0.0
C1385 C 0.27629 0.40625 0.30613 0.0
C1386 C 0.25324 0.39987 0.29895 0.0
C1387 C 0.23178 0.38704 0.30587 0.0
H1388 H 0.51308 0.83743 0.27126 0.0
H1389 H 0.56156 0.91424 0.28492 0.0
H1390 H 0.54266 0.82806 0.28347 0.0
H1391 H 0.591 0.90484 0.29728 0.0
H1392 H 0.61856 0.87033 0.33244 0.0
H1393 H 0.59003 0.88035 0.31964 0.0
H1394 H 0.58778 0.83816 0.28017 0.0
H1395 H 0.61664 0.82839 0.29285 0.0
C1396 C 0.53004 0.85227 0.27691 0.0
C1397 C 0.53508 0.87655 0.27716 0.0
C1398 C 0.54699 0.84693 0.2838 0.0
C1399 C 0.56907 0.86574 0.29131 0.0
C1400 C 0.57405 0.89001 0.29163 0.0
C1401 C 0.55731 0.89539 0.2845 0.0
C1402 C 0.61203 0.86323 0.32102 0.0
C1403 C 0.61985 0.84858 0.31365 0.0
C1404 C 0.59581 0.86907 0.3137 0.0
C1405 C 0.58673 0.86001 0.29894 0.0
C1406 C 0.59443 0.84527 0.29157 0.0
C1407 C 0.61102 0.8398 0.29881 0.0
H1408 H 0.07102 0.63069 0.31162 0.0
H1409 H 0.1087 0.65517 0.27268 0.0
H1410 H 0.08812 0.67322 0.32171 0.0
H1411 H 0.12628 0.69752 0.28283 0.0
H1412 H 0.13307 0.77013 0.29773 0.0
H1413 H 0.11473 0.72746 0.28813 0.0
H1414 H 0.12592 0.70885 0.33156 0.0
H1415 H 0.14351 0.75147 0.34128 0.0
C1416 C 0.08312 0.64519 0.3053 0.0
C1417 C 0.0884 0.6397 0.29134 0.0
C1418 C 0.09297 0.66953 0.31107 0.0
C1419 C 0.10848 0.68881 0.30305 0.0
C1420 C 0.11398 0.68318 0.28917 0.0
C1421 C 0.10397 0.65892 0.28336 0.0
C1422 C 0.13161 0.75695 0.30524 0.0
C1423 C 0.13979 0.7642 0.32026 0.0
C1424 C 0.12121 0.73247 0.29972 0.0
C1425 C 0.11895 0.71472 0.30906 0.0
C1426 C 0.12706 0.72198 0.3241 0.0
C1427 C 0.13729 0.74645 0.32965 0.0
H1428 H 0.7885 0.03265 0.37307 0.0
H1429 H 0.80067 0.0014 0.41119 0.0
H1430 H 0.75901 0.99177 0.36152 0.0
H1431 H 0.77164 0.96043 0.39954 0.0
H1432 H 0.70152 0.89149 0.37995 0.0
H1433 H 0.72896 0.9326 0.392 0.0
H1434 H 0.75837 0.95635 0.35061 0.0
H1435 H 0.73051 0.91567 0.33853 0.0
C1436 C 0.78497 0.01698 0.37892 0.0
C1437 C 0.79688 0.02016 0.393 0.0
C1438 C 0.76813 0.99356 0.37231 0.0
C1439 C 0.76301 0.97278 0.37958 0.0
C1440 C 0.77484 0.97602 0.39373 0.0
C1441 C 0.79153 -0.00053 0.40038 0.0
C1442 C 0.71382 0.90553 0.37344 0.0
C1443 C 0.71378 0.90033 0.35828 0.0
C1444 C 0.72963 0.92906 0.38035 0.0
C1445 C 0.74585 0.94782 0.37227 0.0
C1446 C 0.74581 0.94251 0.35712 0.0
C1447 C 0.72991 0.91909 0.3502 0.0
H1448 H 0.97838 0.76019 0.37432 0.0
H1449 H 0.02195 0.80953 0.41256 0.0
H1450 H 0.01557 0.77244 0.36203 0.0
H1451 H 0.05914 0.8222 0.40021 0.0
H1452 H 0.12298 0.8213 0.3797 0.0
H1453 H 0.08596 0.80876 0.39201 0.0
H1454 H 0.04668 0.80568 0.35087 0.0
H1455 H 0.08368 0.81756 0.33845 0.0
C1456 C 0.99592 0.77379 0.38006 0.0
C1457 C 0.9972 0.78387 0.39443 0.0
C1458 C 0.01726 0.7809 0.37299 0.0
C1459 C 0.04045 0.79842 0.38007 0.0
C1460 C 0.0417 0.8084 0.39448 0.0
C1461 C 0.02036 0.80115 0.40158 0.0
C1462 C 0.10653 0.81809 0.37326 0.0
C1463 C 0.10642 0.82052 0.35807 0.0
C1464 C 0.08523 0.81096 0.38036 0.0
C1465 C 0.06322 0.80618 0.37248 0.0
C1466 C 0.06315 0.8088 0.35728 0.0
C1467 C 0.08445 0.8158 0.35016 0.0
H1468 H 0.27803 0.26153 0.39455 0.0
H1469 H 0.22563 0.1958 0.36712 0.0
H1470 H 0.2586 0.28321 0.38433 0.0
H1471 H 0.20661 0.21774 0.35669 0.0
H1472 H 0.19605 0.27468 0.33206 0.0
H1473 H 0.21606 0.25271 0.34119 0.0
H1474 H 0.21758 0.28038 0.38578 0.0
H1475 H 0.19773 0.30235 0.37675 0.0
C1476 C 0.26238 0.25169 0.38635 0.0
C1477 C 0.25331 0.22687 0.38174 0.0
C1478 C 0.2513 0.26413 0.38049 0.0
C1479 C 0.23102 0.2521 0.36979 0.0
C1480 C 0.22236 0.22751 0.36483 0.0
C1481 C 0.23332 0.21499 0.37078 0.0
C1482 C 0.20058 0.276 0.34381 0.0
C1483 C 0.19532 0.29029 0.35367 0.0
C1484 C 0.21196 0.26337 0.34903 0.0
C1485 C 0.21852 0.26501 0.36418 0.0
C1486 C 0.21305 0.27909 0.37402 0.0
C1487 C 0.20149 0.29151 0.36884 0.0
H1488 H 0.68313 0.57522 0.74337 0.0
H1489 H 0.64388 0.53474 0.7017 0.0
H1490 H 0.71978 0.59911 0.73105 0.0
H1491 H 0.681 0.55734 0.68958 0.0
H1492 H 0.74558 0.61798 0.66955 0.0
H1493 H 0.70805 0.59542 0.68151 0.0
H1494 H 0.75102 0.59568 0.72022 0.0
H1495 H 0.78847 0.61912 0.70851 0.0
C1496 C 0.68224 0.57142 0.73158 0.0
C1497 C 0.66047 0.55293 0.72358 0.0
C1498 C 0.70344 0.58488 0.72453 0.0
C1499 C 0.70353 0.58005 0.70931 0.0
C1500 C 0.68166 0.56178 0.70128 0.0
C1501 C 0.66039 0.54853 0.7083 0.0
C1502 C 0.74696 0.61309 0.68059 0.0
C1503 C 0.76999 0.62037 0.68808 0.0
C1504 C 0.72542 0.60007 0.68745 0.0
C1505 C 0.72641 0.59376 0.7019 0.0
C1506 C 0.7495 0.60066 0.70923 0.0
C1507 C 0.77101 0.61393 0.70245 0.0
H1508 H 0.47368 0.14291 0.74773 0.0
H1509 H 0.46437 0.09474 0.70946 0.0
H1510 H 0.44517 0.1533 0.73544 0.0
H1511 H 0.43547 0.10466 0.69724 0.0
H1512 H 0.40538 0.1471 0.67374 0.0
H1513 H 0.43388 0.13706 0.68623 0.0
H1514 H 0.4029 0.13739 0.72719 0.0
H1515 H 0.37489 0.14822 0.71477 0.0
C1516 C 0.46531 0.13434 0.73675 0.0
C1517 C 0.47132 0.11805 0.72955 0.0
C1518 C 0.44892 0.14024 0.7297 0.0
C1519 C 0.43799 0.12987 0.71532 0.0
C1520 C 0.44386 0.11338 0.7082 0.0
C1521 C 0.46039 0.10763 0.71521 0.0
C1522 C 0.40462 0.14504 0.68541 0.0
C1523 C 0.38783 0.14849 0.69324 0.0
C1524 C 0.4209 0.13912 0.69257 0.0
C1525 C 0.42069 0.13631 0.70773 0.0
C1526 C 0.40385 0.13974 0.71556 0.0
C1527 C 0.38767 0.14583 0.70841 0.0
H1528 H 0.92056 0.36946 0.69348 0.0
H1529 H 0.91689 0.34864 0.7379 0.0
H1530 H 0.90276 0.32669 0.68385 0.0
H1531 H 0.89957 0.30605 0.72823 0.0
H1532 H 0.89235 0.23625 0.70461 0.0
H1533 H 0.9114 0.27922 0.71407 0.0
H1534 H 0.86224 0.28816 0.6835 0.0
H1535 H 0.84328 0.24528 0.67393 0.0
C1536 C 0.91594 0.35579 0.70119 0.0
C1537 C 0.92016 0.3625 0.71646 0.0
C1538 C 0.90578 0.33132 0.69567 0.0
C1539 C 0.89976 0.31307 0.7053 0.0
C1540 C 0.90432 0.31978 0.72055 0.0
C1541 C 0.91433 0.3442 0.72607 0.0
C1542 C 0.88559 0.24736 0.6999 0.0
C1543 C 0.86629 0.23734 0.68852 0.0
C1544 C 0.89644 0.27194 0.70536 0.0
C1545 C 0.88834 0.28703 0.69948 0.0
C1546 C 0.86905 0.27702 0.68811 0.0
C1547 C 0.85807 0.25241 0.68273 0.0
H1548 H 0.20664 0.99263 0.59726 0.0
H1549 H 0.21835 0.96281 0.6362 0.0
H1550 H 0.23527 0.03393 0.60858 0.0
H1551 H 0.24753 0.00402 0.64742 0.0
H1552 H 0.2755 0.08049 0.6695 0.0
H1553 H 0.24794 0.0395 0.65773 0.0
H1554 H 0.27756 0.06233 0.61625 0.0
H1555 H 0.30463 0.10373 0.62799 0.0
C1556 C 0.21562 0.99494 0.60818 0.0
C1557 C 0.21024 0.97456 0.61589 0.0
C1558 C 0.23209 0.01859 0.61465 0.0
C1559 C 0.24369 0.02235 0.62894 0.0
C1560 C 0.23858 0.00185 0.63652 0.0
C1561 C 0.22193 0.97823 0.6301 0.0
C1562 C 0.27619 0.0768 0.65787 0.0
C1563 C 0.29227 0.09538 0.64968 0.0
C1564 C 0.26046 0.0532 0.65113 0.0
C1565 C 0.26059 0.04752 0.63605 0.0
C1566 C 0.27674 0.06612 0.62785 0.0
C1567 C 0.29235 0.08984 0.63458 0.0
H1568 H 0.02611 0.21859 0.635 0.0
H1569 H 0.98345 0.20014 0.59276 0.0
H1570 H 0.98928 0.20784 0.64737 0.0
H1571 H 0.94667 0.18965 0.60517 0.0
H1572 H 0.89284 0.19934 0.63281 0.0
H1573 H 0.92942 0.20941 0.62042 0.0
H1574 H 0.94979 0.17188 0.65131 0.0
H1575 H 0.91323 0.162 0.6639 0.0
C1576 C 0.00885 0.21206 0.62833 0.0
C1577 C 0.0078 0.21019 0.61285 0.0
C1578 C 0.98773 0.2059 0.63544 0.0
C1579 C 0.965 0.19782 0.62727 0.0
C1580 C 0.96394 0.1961 0.6118 0.0
C1581 C 0.98506 0.20218 0.60468 0.0
C1582 C 0.90508 0.19321 0.63701 0.0
C1583 C 0.90007 0.1799 0.64941 0.0
C1584 C 0.92601 0.19887 0.62982 0.0
C1585 C 0.94255 0.19145 0.63486 0.0
C1586 C 0.93755 0.1781 0.64724 0.0
C1587 C 0.91651 0.17231 0.65441 0.0
H1588 H 0.77921 0.80564 0.63894 0.0
H1589 H 0.72431 0.73873 0.61348 0.0
H1590 H 0.79793 0.78369 0.64972 0.0
H1591 H 0.74354 0.71705 0.624 0.0
H1592 H 0.80403 0.69701 0.63131 0.0
H1593 H 0.78427 0.71891 0.622 0.0
H1594 H 0.78831 0.74957 0.6662 0.0
H1595 H 0.80816 0.7276 0.67564 0.0
C1596 C 0.77091 0.78621 0.63578 0.0
C1597 C 0.75028 0.77399 0.62528 0.0
C1598 C 0.78172 0.77368 0.64193 0.0
C1599 C 0.77229 0.74875 0.63761 0.0
C1600 C 0.75141 0.73639 0.62735 0.0
C1601 C 0.74046 0.74883 0.62131 0.0
C1602 C 0.80083 0.70848 0.63907 0.0
C1603 C 0.80767 0.71055 0.65423 0.0
C1604 C 0.78934 0.72087 0.63373 0.0
C1605 C 0.78462 0.73578 0.64339 0.0
C1606 C 0.79182 0.73824 0.65852 0.0
C1607 C 0.80311 0.72562 0.6639 0.0
H1608 H 0.02818 0.79553 0.63902 0.0
H1609 H 0.98475 0.77656 0.59702 0.0
H1610 H 0.99078 0.77244 0.65105 0.0
H1611 H 0.9474 0.75339 0.60905 0.0
H1612 H 0.89165 0.68992 0.63253 0.0
H1613 H 0.92849 0.71561 0.62097 0.0
H1614 H 0.9526 0.77177 0.65728 0.0
H1615 H 0.91553 0.7457 0.66912 0.0
C1616 C 0.01064 0.78665 0.63237 0.0
C1617 C 0.00948 0.7878 0.61703 0.0
C1618 C 0.98921 0.77346 0.63928 0.0
C1619 C 0.96613 0.76105 0.63101 0.0
C1620 C 0.96494 0.76246 0.61571 0.0
C1621 C 0.98635 0.77567 0.6088 0.0
C1622 C 0.90475 0.70773 0.63813 0.0
C1623 C 0.90067 0.71569 0.65183 0.0
C1624 C 0.92582 0.72256 0.6314 0.0
C1625 C 0.94345 0.74576 0.63817 0.0
C1626 C 0.93941 0.75388 0.65185 0.0
C1627 C 0.91814 0.73902 0.65858 0.0
H1628 H 0.17617 0.17312 0.61524 0.0
H1629 H 0.23527 0.24584 0.61032 0.0
H1630 H 0.20538 0.16368 0.62752 0.0
H1631 H 0.26453 0.23656 0.6228 0.0
H1632 H 0.31327 0.20355 0.63303 0.0
H1633 H 0.28428 0.21259 0.62005 0.0
H1634 H 0.23066 0.17351 0.65023 0.0
H1635 H 0.25935 0.16392 0.66294 0.0
C1636 C 0.1954 0.18716 0.61689 0.0
C1637 C 0.20339 0.21025 0.61184 0.0
C1638 C 0.21216 0.18177 0.62396 0.0
C1639 C 0.23734 0.19938 0.62622 0.0
C1640 C 0.24535 0.22243 0.62106 0.0
C1641 C 0.22858 0.22778 0.61393 0.0
C1642 C 0.2953 0.1969 0.63691 0.0
C1643 C 0.28866 0.18299 0.64904 0.0
C1644 C 0.2787 0.20219 0.6295 0.0
C1645 C 0.25508 0.19378 0.63407 0.0
C1646 C 0.24851 0.17995 0.64624 0.0
C1647 C 0.26506 0.17456 0.6536 0.0
H1648 H 0.77282 0.98343 0.60234 0.0
H1649 H 0.73452 0.95921 0.64109 0.0
H1650 H 0.79098 0.02586 0.61262 0.0
H1651 H 0.7522 0.00169 0.6513 0.0
H1652 H 0.80875 0.07805 0.67191 0.0
H1653 H 0.7906 0.03586 0.66141 0.0
H1654 H 0.78124 0.05717 0.6185 0.0
H1655 H 0.80018 0.09962 0.62895 0.0
C1656 C 0.76806 0.98724 0.61299 0.0
C1657 C 0.75226 0.96806 0.62092 0.0
C1658 C 0.77841 0.01154 0.61887 0.0
C1659 C 0.77305 0.01721 0.63278 0.0
C1660 C 0.75706 0.99797 0.64066 0.0
C1661 C 0.74686 0.97365 0.63482 0.0
C1662 C 0.80284 0.07376 0.66023 0.0
C1663 C 0.80591 0.09219 0.65126 0.0
C1664 C 0.79227 0.04951 0.65422 0.0
C1665 C 0.78434 0.04307 0.63912 0.0
C1666 C 0.78744 0.06154 0.63014 0.0
C1667 C 0.7982 0.08586 0.63614 0.0
H1668 H 0.47067 0.36795 0.7035 0.0
H1669 H 0.45766 0.34181 0.74658 0.0
H1670 H 0.44251 0.32658 0.69213 0.0
H1671 H 0.42916 0.30053 0.73516 0.0
H1672 H 0.36119 0.23518 0.7086 0.0
H1673 H 0.38835 0.27676 0.72017 0.0
H1674 H 0.44183 0.28689 0.68968 0.0
H1675 H 0.41476 0.24554 0.67803 0.0
C1676 C 0.46191 0.35338 0.71055 0.0
C1677 C 0.46653 0.35821 0.72596 0.0
C1678 C 0.44574 0.3297 0.70403 0.0
C1679 C 0.43371 0.31033 0.71276 0.0
C1680 C 0.43797 0.31516 0.72816 0.0
C1681 C 0.45426 0.33883 0.73469 0.0
C1682 C 0.37873 0.24629 0.70435 0.0
C1683 C 0.38579 0.23705 0.69238 0.0
C1684 C 0.39432 0.27004 0.71103 0.0
C1685 C 0.41716 0.28508 0.70579 0.0
C1686 C 0.4242 0.27582 0.69384 0.0
C1687 C 0.40874 0.25206 0.68724 0.0
H1688 H 0.69032 0.14059 0.74734 0.0
H1689 H 0.6454 0.09082 0.70956 0.0
H1690 H 0.72707 0.15219 0.73469 0.0
H1691 H 0.68211 0.10194 0.69699 0.0
H1692 H 0.74966 0.14528 0.67263 0.0
H1693 H 0.71316 0.13436 0.6854 0.0
H1694 H 0.75324 0.13808 0.72636 0.0
H1695 H 0.78985 0.14976 0.71372 0.0
C1696 C 0.68834 0.13188 0.7364 0.0
C1697 C 0.66494 0.11482 0.72945 0.0
C1698 C 0.70942 0.1385 0.72913 0.0
C1699 C 0.70766 0.12808 0.71476 0.0
C1700 C 0.68422 0.11074 0.70791 0.0
C1701 C 0.66314 0.10427 0.71514 0.0
C1702 C 0.7507 0.14385 0.68437 0.0
C1703 C 0.77274 0.14847 0.69212 0.0
C1704 C 0.72969 0.1374 0.6917 0.0
C1705 C 0.73013 0.13524 0.70695 0.0
C1706 C 0.75223 0.13992 0.71468 0.0
C1707 C 0.77326 0.14652 0.70738 0.0
H1708 H 0.93403 0.58654 0.73049 0.0
H1709 H 0.88981 0.52539 0.69774 0.0
H1710 H 0.91677 0.6094 0.71962 0.0
H1711 H 0.87403 0.54908 0.68612 0.0
H1712 H 0.83011 0.58835 0.67901 0.0
H1713 H 0.8471 0.5644 0.68912 0.0
H1714 H 0.91765 0.63047 0.69936 0.0
H1715 H 0.90029 0.65432 0.68997 0.0
C1716 C 0.92068 0.57796 0.72094 0.0
C1717 C 0.91326 0.55401 0.71508 0.0
C1718 C 0.91106 0.59127 0.71452 0.0
C1719 C 0.89404 0.58119 0.70191 0.0
C1720 C 0.88685 0.55736 0.69592 0.0
C1721 C 0.89623 0.54389 0.70247 0.0
C1722 C 0.84927 0.59765 0.68338 0.0
C1723 C 0.86382 0.62319 0.68383 0.0
C1724 C 0.85907 0.58395 0.68912 0.0
C1725 C 0.88375 0.59548 0.69519 0.0
C1726 C 0.89843 0.62098 0.69515 0.0
C1727 C 0.88852 0.63468 0.68967 0.0
H1728 H 0.43643 0.94376 0.16539 0.0
H1729 H 0.51403 0.97989 0.17989 0.0
H1730 H 0.44611 0.96072 0.14173 0.0
H1731 H 0.52359 0.99635 0.15618 0.0
H1732 H 0.53034 0.99464 0.10628 0.0
H1733 H 0.52032 0.97972 0.13039 0.0
H1734 H 0.46454 0.00044 0.13038 0.0
H1735 H 0.47434 0.01507 0.10609 0.0
C1736 C 0.45553 0.95552 0.16363 0.0
C1737 C 0.47443 0.96025 0.17456 0.0
C1738 C 0.46106 0.96521 0.15004 0.0
C1739 C 0.48563 0.97972 0.14702 0.0
C1740 C 0.50449 0.98487 0.15805 0.0
C1741 C 0.49897 0.97536 0.17164 0.0
C1742 C 0.51587 0.99592 0.11139 0.0
C1743 C 0.50313 0.00602 0.10425 0.0
C1744 C 0.51028 0.98758 0.12527 0.0
C1745 C 0.49166 0.98894 0.13232 0.0
C1746 C 0.47886 -0.00101 0.12519 0.0
C1747 C 0.48463 0.00757 0.11135 0.0
H1748 H 0.02643 0.47654 0.17561 0.0
H1749 H 0.9815 0.50949 0.18255 0.0
H1750 H 0.01487 0.47105 0.14918 0.0
H1751 H 0.97106 0.50525 0.15612 0.0
H1752 H 0.93959 0.4753 0.10898 0.0
H1753 H 0.94835 0.47625 0.13536 0.0
H1754 H 0.02318 0.49579 0.12901 0.0
H1755 H 0.01403 0.49346 0.10254 0.0
C1756 C 0.01395 0.48245 0.17152 0.0
C1757 C 0.00498 0.49356 0.1812 0.0
C1758 C 0.00759 0.47961 0.15634 0.0
C1759 C 0.99219 0.48788 0.1505 0.0
C1760 C 0.98278 0.49847 0.16023 0.0
C1761 C 0.98903 0.50119 0.17539 0.0
C1762 C 0.95782 0.47948 0.11318 0.0
C1763 C 0.97611 0.48433 0.10362 0.0
C1764 C 0.96293 0.4803 0.12834 0.0
C1765 C 0.98649 0.48614 0.13433 0.0
C1766 C 0.00475 0.49093 0.12477 0.0
C1767 C 0.99961 0.48997 0.1096 0.0
H1768 H 0.43089 0.47043 0.16594 0.0
H1769 H 0.50748 0.49976 0.18097 0.0
H1770 H 0.43944 0.4643 0.1408 0.0
H1771 H 0.51627 0.49491 0.15589 0.0
H1772 H 0.52407 0.469 0.11105 0.0
H1773 H 0.51152 0.46709 0.13583 0.0
H1774 H 0.45933 0.48899 0.12158 0.0
H1775 H 0.47075 0.48936 0.09658 0.0
C1776 C 0.44949 0.47533 0.16391 0.0
C1777 C 0.46854 0.4858 0.17544 0.0
C1778 C 0.45447 0.47212 0.14947 0.0
C1779 C 0.4786 0.47932 0.14625 0.0
C1780 C 0.49743 0.48893 0.15791 0.0
C1781 C 0.49244 0.49202 0.17231 0.0
C1782 C 0.50958 0.47295 0.11311 0.0
C1783 C 0.49856 0.47948 0.10178 0.0
C1784 C 0.50258 0.47215 0.1274 0.0
C1785 C 0.48452 0.47806 0.13078 0.0
C1786 C 0.47312 0.48408 0.11939 0.0
C1787 C 0.47999 0.4847 0.10507 0.0
H1788 H 0.97659 0.5241 0.83156 0.0
H1789 H 0.02296 0.49249 0.82574 0.0
H1790 H 0.98682 0.5293 0.85811 0.0
H1791 H 0.03206 0.4964 0.8523 0.0
H1792 H 0.0603 0.52478 0.89992 0.0
H1793 H 0.05326 0.5249 0.87348 0.0
H1794 H 0.97761 0.50422 0.87805 0.0
H1795 H 0.98504 0.50551 0.90459 0.0
C1796 C 0.98912 0.51843 0.83593 0.0
C1797 C 0.99888 0.50779 0.82651 0.0
C1798 C 0.99471 0.5211 0.85117 0.0
C1799 C 0.0101 0.51309 0.85737 0.0
C1800 C 0.02031 0.50298 0.84792 0.0
C1801 C 0.01484 0.50044 0.83269 0.0
C1802 C 0.04227 0.52065 0.89533 0.0
C1803 C 0.02323 0.5151 0.9044 0.0
C1804 C 0.03815 0.52042 0.88013 0.0
C1805 C 0.01485 0.51448 0.87361 0.0
C1806 C 0.99587 0.50916 0.8827 0.0
C1807 C 1.00003 0.50954 0.89791 0.0
H1808 H 0.54704 0.48314 0.84255 0.0
H1809 H 0.53263 0.53927 0.82875 0.0
H1810 H 0.5386 0.4902 0.86754 0.0
H1811 H 0.52416 0.54642 0.85389 0.0
H1812 H 0.47632 0.52046 0.89429 0.0
H1813 H 0.4902 0.52083 0.86987 0.0
H1814 H 0.55533 0.52261 0.8891 0.0
H1815 H 0.5419 0.52293 0.91357 0.0
C1816 C 0.54226 0.49714 0.84493 0.0
C1817 C 0.54037 0.51059 0.83374 0.0
C1818 C 0.5376 0.50131 0.85924 0.0
C1819 C 0.53069 0.51884 0.86265 0.0
C1820 C 0.52931 0.5327 0.85153 0.0
C1821 C 0.53431 0.52874 0.83721 0.0
C1822 C 0.49387 0.52149 0.89338 0.0
C1823 C 0.50784 0.52139 0.90592 0.0
C1824 C 0.5018 0.52167 0.87937 0.0
C1825 C 0.52375 0.52157 0.87759 0.0
C1826 C 0.53815 0.52234 0.89014 0.0
C1827 C 0.53036 0.52239 0.90414 0.0
H1828 H 0.49372 0.02194 0.82972 0.0
H1829 H 0.57118 0.05629 0.84417 0.0
H1830 H 0.48375 0.00537 0.85333 0.0
H1831 H 0.56118 0.03866 0.86759 0.0
H1832 H 0.53411 0.02692 0.9136 0.0
H1833 H 0.54466 0.04298 0.88987 0.0
H1834 H 0.48435 0.9756 0.86798 0.0
H1835 H 0.47304 0.96002 0.89177 0.0
C1836 C 0.50867 0.02595 0.83793 0.0
C1837 C 0.53328 0.04065 0.83504 0.0
C1838 C 0.50293 0.01614 0.85143 0.0
C1839 C 0.52163 0.02063 0.86242 0.0
C1840 C 0.54627 0.03505 0.85947 0.0
C1841 C 0.55202 0.04493 0.84595 0.0
C1842 C 0.52291 0.0156 0.90375 0.0
C1843 C 0.50259 0.9922 0.90466 0.0
C1844 C 0.52919 0.0247 0.89009 0.0
C1845 C 0.51538 0.01063 0.87696 0.0
C1846 C 0.49524 0.98711 0.87786 0.0
C1847 C 0.48892 0.97803 0.89152 0.0
H1848 H 0.13658 0.32079 0.51442 0.0
H1849 H 0.13992 0.25784 0.49683 0.0
H1850 H 0.14526 0.33764 0.4906 0.0
H1851 H 0.14886 0.27475 0.47315 0.0
H1852 H 0.13885 0.3004 0.42879 0.0
H1853 H 0.12829 0.28393 0.45243 0.0
H1854 H 0.18062 0.35461 0.47497 0.0
H1855 H 0.19171 0.37107 0.45131 0.0
C1856 C 0.13902 0.3105 0.50544 0.0
C1857 C 0.13762 0.28801 0.50752 0.0
C1858 C 0.1442 0.32023 0.49185 0.0
C1859 C 0.14778 0.30754 0.47999 0.0
C1860 C 0.146 0.28489 0.48202 0.0
C1861 C 0.14109 0.2753 0.49563 0.0
C1862 C 0.14835 0.31243 0.43876 0.0
C1863 C 0.16633 0.33707 0.43807 0.0
C1864 C 0.14219 0.30297 0.45232 0.0
C1865 C 0.15367 0.31793 0.46558 0.0
C1866 C 0.17125 0.34267 0.46495 0.0
C1867 C 0.17757 0.35211 0.45136 0.0
H1868 H 0.64074 0.83392 0.51364 0.0
H1869 H 0.68479 0.79977 0.50746 0.0
H1870 H 0.63093 0.82962 0.48707 0.0
H1871 H 0.67446 0.79502 0.48087 0.0
H1872 H 0.63176 0.77286 0.43441 0.0
H1873 H 0.63835 0.77362 0.46115 0.0
H1874 H 0.65619 0.8491 0.46627 0.0
H1875 H 0.64938 0.84826 0.43963 0.0
C1876 C 0.64828 0.82544 0.50662 0.0
C1877 C 0.66378 0.81743 0.51268 0.0
C1878 C 0.64262 0.82295 0.49142 0.0
C1879 C 0.65212 0.81219 0.48192 0.0
C1880 C 0.66675 0.80323 0.48796 0.0
C1881 C 0.67259 0.8059 0.50319 0.0
C1882 C 0.63694 0.78953 0.44129 0.0
C1883 C 0.64009 0.81051 0.43498 0.0
C1884 C 0.64086 0.79001 0.45655 0.0
C1885 C 0.64768 0.81139 0.46576 0.0
C1886 C 0.65067 0.83229 0.45943 0.0
C1887 C 0.64702 0.83189 0.4442 0.0
H1888 H 0.16613 0.86541 0.50921 0.0
H1889 H 0.11358 0.78794 0.50564 0.0
H1890 H 0.17462 0.86173 0.48393 0.0
H1891 H 0.12147 0.78441 0.4799 0.0
H1892 H 0.16488 0.78584 0.43979 0.0
H1893 H 0.15427 0.78714 0.46503 0.0
H1894 H 0.15475 0.85467 0.45944 0.0
H1895 H 0.16637 0.85399 0.43463 0.0
C1896 C 0.15642 0.84753 0.50303 0.0
C1897 C 0.13933 0.82692 0.5095 0.0
C1898 C 0.16106 0.84548 0.48844 0.0
C1899 C 0.14864 0.8228 0.47985 0.0
C1900 C 0.13147 0.80211 0.48627 0.0
C1901 C 0.12678 0.80417 0.50094 0.0
C1902 C 0.16286 0.80103 0.444 0.0
C1903 C 0.16656 0.81984 0.43517 0.0
C1904 C 0.15648 0.80161 0.4584 0.0
C1905 C 0.15378 0.82107 0.46428 0.0
C1906 C 0.15702 0.83959 0.45534 0.0
C1907 C 0.1634 0.83903 0.44101 0.0
H1908 H 0.64823 0.85511 0.16503 0.0
H1909 H 0.69258 0.82148 0.15821 0.0
H1910 H 0.65826 0.85898 0.19154 0.0
H1911 H 0.70148 0.8241 0.18471 0.0
H1912 H 0.73098 0.85226 0.23246 0.0
H1913 H 0.7235 0.85212 0.20602 0.0
H1914 H 0.64842 0.83304 0.21117 0.0
H1915 H 0.65631 0.83455 0.23769 0.0
C1916 C 0.66026 0.84869 0.16917 0.0
C1917 C 0.66953 0.83791 0.15949 0.0
C1918 C 0.66572 0.85059 0.18438 0.0
C1919 C 0.68051 0.84167 0.19027 0.0
C1920 C 0.6902 0.83135 0.18057 0.0
C1921 C 0.68485 0.82957 0.16536 0.0
C1922 C 0.71296 0.84832 0.22798 0.0
C1923 C 0.69425 0.84342 0.23721 0.0
C1924 C 0.70858 0.84797 0.21279 0.0
C1925 C 0.68536 0.84257 0.20646 0.0
C1926 C 0.66663 0.8376 0.21569 0.0
C1927 C 0.67104 0.83808 0.23088 0.0
H1928 H 0.23744 0.85827 0.17411 0.0
H1929 H 0.15967 0.81949 0.15988 0.0
H1930 H 0.22869 0.86616 0.19886 0.0
H1931 H 0.15086 0.82613 0.18468 0.0
H1932 H 0.14162 0.85661 0.2278 0.0
H1933 H 0.1532 0.85557 0.20293 0.0
H1934 H 0.2119 0.84405 0.21954 0.0
H1935 H 0.20129 0.84661 0.2445 0.0
C1936 C 0.2185 0.85158 0.17622 0.0
C1937 C 0.19926 0.83807 0.16502 0.0
C1938 C 0.21346 0.85583 0.19047 0.0
C1939 C 0.18905 0.84665 0.19383 0.0
C1940 C 0.16989 0.83372 0.18251 0.0
C1941 C 0.17494 0.82959 0.16829 0.0
C1942 C 0.15729 0.85431 0.2262 0.0
C1943 C 0.17041 0.85154 0.23819 0.0
C1944 C 0.16375 0.85341 0.21189 0.0
C1945 C 0.18338 0.84954 0.20917 0.0
C1946 C 0.19683 0.8473 0.2212 0.0
C1947 C 0.19048 0.84837 0.23552 0.0
H1948 H 0.20143 0.41421 0.18066 0.0
H1949 H 0.20253 0.34987 0.16335 0.0
H1950 H 0.1913 0.39731 0.20428 0.0
H1951 H 0.19272 0.33307 0.1871 0.0
H1952 H 0.14455 0.30017 0.22555 0.0
H1953 H 0.15692 0.317 0.20213 0.0
H1954 H 0.20972 0.38689 0.22537 0.0
H1955 H 0.19781 0.37003 0.2488 0.0
C1956 C 0.19957 0.39647 0.18192 0.0
C1957 C 0.2027 0.38335 0.17011 0.0
C1958 C 0.19396 0.38688 0.19549 0.0
C1959 C 0.19115 0.36382 0.19757 0.0
C1960 C 0.19454 0.35078 0.18581 0.0
C1961 C 0.20039 0.3605 0.17226 0.0
C1962 C 0.15903 0.31904 0.2257 0.0
C1963 C 0.17007 0.33372 0.23913 0.0
C1964 C 0.1661 0.32869 0.21226 0.0
C1965 C 0.18427 0.3533 0.21188 0.0
C1966 C 0.19542 0.36795 0.22527 0.0
C1967 C 0.18849 0.35827 0.23872 0.0
H1968 H 0.76629 0.60614 0.83032 0.0
H1969 H 0.84372 0.64124 0.845 0.0
H1970 H 0.7763 0.6235 0.80684 0.0
H1971 H 0.85372 0.65748 0.82132 0.0
H1972 H 0.86443 0.70222 0.78261 0.0
H1973 H 0.85312 0.68682 0.80642 0.0
H1974 H 0.7929 0.61926 0.78465 0.0
H1975 H 0.80341 0.63518 0.76088 0.0
C1976 C 0.78544 0.61761 0.82858 0.0
C1977 C 0.80417 0.62218 0.83959 0.0
C1978 C 0.79121 0.62732 0.81502 0.0
C1979 C 0.81585 0.64185 0.8121 0.0
C1980 C 0.83454 0.64662 0.82318 0.0
C1981 C 0.82878 0.63699 0.83673 0.0
C1982 C 0.84857 0.68421 0.78289 0.0
C1983 C 0.83489 0.66997 0.76976 0.0
C1984 C 0.84225 0.67523 0.79657 0.0
C1985 C 0.82213 0.65171 0.79752 0.0
C1986 C 0.80835 0.63754 0.7844 0.0
C1987 C 0.81461 0.64656 0.77072 0.0
H1988 H 0.31641 0.17922 0.84995 0.0
H1989 H 0.36301 0.14817 0.84303 0.0
H1990 H 0.30772 0.1769 0.82344 0.0
H1991 H 0.35323 0.1446 0.81653 0.0
H1992 H 0.35335 0.16745 0.77026 0.0
H1993 H 0.36191 0.17027 0.79682 0.0
H1994 H 0.28619 0.14835 0.80219 0.0
H1995 H 0.27797 0.14685 0.77569 0.0
C1996 C 0.32473 0.17181 0.84278 0.0
C1997 C 0.34051 0.16399 0.84863 0.0
C1998 C 0.31951 0.1702 0.82757 0.0
C1999 C 0.32982 0.16062 0.81784 0.0
C2000 C 0.34526 0.15241 0.8237 0.0
C2001 C 0.35058 0.15413 0.83891 0.0
C2002 C 0.33861 0.1636 0.77712 0.0
C2003 C 0.31498 0.15698 0.77083 0.0
C2004 C 0.34343 0.16486 0.79234 0.0
C2005 C 0.32471 0.15941 0.80165 0.0
C2006 C 0.3011 0.15289 0.79537 0.0
C2007 C 0.29631 0.15175 0.78015 0.0
H2008 H 0.76841 0.13496 0.83248 0.0
H2009 H 0.84572 0.17817 0.84761 0.0
H2010 H 0.77889 0.13009 0.80758 0.0
H2011 H 0.85608 0.17363 0.82282 0.0
H2012 H 0.86265 0.18874 0.77429 0.0
H2013 H 0.85123 0.18977 0.79927 0.0
H2014 H 0.80011 0.11198 0.79274 0.0
H2015 H 0.81139 0.111 0.76759 0.0
C2016 C 0.78759 0.1431 0.83055 0.0
C2017 C 0.80622 0.15726 0.84197 0.0
C2018 C 0.79359 0.14036 0.8163 0.0
C2019 C 0.8183 0.1518 0.81324 0.0
C2020 C 0.83687 0.16505 0.82479 0.0
C2021 C 0.83092 0.16767 0.83899 0.0
C2022 C 0.84891 0.17188 0.77816 0.0
C2023 C 0.83794 0.14979 0.76901 0.0
C2024 C 0.84252 0.17242 0.7925 0.0
C2025 C 0.82487 0.15092 0.79797 0.0
C2026 C 0.8137 0.12883 0.78879 0.0
C2027 C 0.8203 0.12825 0.77446 0.0
H2028 H 0.34984 0.21321 0.4965 0.0
H2029 H 0.30864 0.1346 0.49668 0.0
H2030 H 0.35867 0.21757 0.52322 0.0
H2031 H 0.31834 0.1389 0.5232 0.0
H2032 H 0.31904 0.15486 0.57207 0.0
H2033 H 0.30878 0.15262 0.54574 0.0
H2034 H 0.38299 0.21 0.54156 0.0
H2035 H 0.39294 0.21303 0.56805 0.0
C2036 C 0.34265 0.19688 0.50224 0.0
C2037 C 0.32861 0.17356 0.49446 0.0
C2038 C 0.34792 0.19936 0.51752 0.0
C2039 C 0.33922 0.17858 0.52534 0.0
C2040 C 0.32508 0.15529 0.51755 0.0
C2041 C 0.3198 0.15282 0.50231 0.0
C2042 C 0.33307 0.16727 0.56559 0.0
C2043 C 0.35683 0.1841 0.57217 0.0
C2044 C 0.32727 0.16578 0.55045 0.0
C2045 C 0.34511 0.18103 0.54153 0.0
C2046 C 0.36876 0.19813 0.54814 0.0
C2047 C 0.37456 0.19965 0.56329 0.0
H2048 H 0.90162 0.18824 0.5085 0.0
H2049 H 0.82617 0.16212 0.49205 0.0
H2050 H 0.89189 0.19368 0.5335 0.0
H2051 H 0.81647 0.16719 0.51696 0.0
H2052 H 0.80295 0.14543 0.56424 0.0
H2053 H 0.81414 0.14504 0.53915 0.0
H2054 H 0.87753 0.21715 0.54972 0.0
H2055 H 0.86642 0.21744 0.57498 0.0
C2056 C 0.8831 0.18408 0.51017 0.0
C2057 C 0.86459 0.17441 0.49831 0.0
C2058 C 0.87752 0.18714 0.52448 0.0
C2059 C 0.85333 0.18051 0.52719 0.0
C2060 C 0.83515 0.17197 0.51525 0.0
C2061 C 0.84073 0.16905 0.50098 0.0
C2062 C 0.8193 0.16117 0.56122 0.0
C2063 C 0.83381 0.18145 0.57156 0.0
C2064 C 0.82559 0.16105 0.54683 0.0
C2065 C 0.84665 0.18112 0.54246 0.0
C2066 C 0.86125 0.20141 0.5528 0.0
C2067 C 0.85479 0.20164 0.56719 0.0
H2068 H 0.8273 0.69156 0.49576 0.0
H2069 H 0.90491 0.72294 0.50876 0.0
H2070 H 0.81791 0.67517 0.51943 0.0
H2071 H 0.89542 0.70534 0.5322 0.0
H2072 H 0.87071 0.69473 0.5788 0.0
H2073 H 0.88089 0.71043 0.55497 0.0
H2074 H 0.81742 0.64482 0.53376 0.0
H2075 H 0.80647 0.62975 0.55768 0.0
C2076 C 0.84241 0.69496 0.50366 0.0
C2077 C 0.8669 0.70879 0.50034 0.0
C2078 C 0.83698 0.68521 0.51719 0.0
C2079 C 0.85588 0.68886 0.52779 0.0
C2080 C 0.88039 0.7024 0.5244 0.0
C2081 C 0.88583 0.71225 0.51086 0.0
C2082 C 0.85876 0.68373 0.56908 0.0
C2083 C 0.83763 0.66102 0.57024 0.0
C2084 C 0.86482 0.6926 0.55535 0.0
C2085 C 0.84998 0.67895 0.54238 0.0
C2086 C 0.82911 0.65603 0.54351 0.0
C2087 C 0.82299 0.64721 0.55725 0.0
loop_
_geom_bond_atom_site_label_1
_geom_bond_atom_site_label_2
_geom_bond_distance
_geom_bond_site_symmetry_2
_ccdc_geom_bond_type
C0 C1 1.384 . S
C0 H13 0.947 . S
C0 C35 1.382 . S
C1 C0 1.384 . S
C1 C2 1.378 . S
C2 C1 1.378 . S
C2 C3 1.378 . S
C2 H14 0.952 . S
C3 C2 1.378 . S
C3 H15 0.950 . S
C3 C34 1.383 . S
H4 C23 0.947 . S
H5 C24 0.946 . S
H6 C26 0.953 . S
H7 C27 0.945 . S
H8 C29 0.952 . S
H9 C30 0.949 . S
H10 C32 0.950 . S
H11 C33 0.948 . S
H12 C35 0.951 . S
H13 C0 0.947 . S
H14 C2 0.952 . S
H15 C3 0.950 . S
N16 C19 1.382 . S
N16 C21 1.363 . S
N17 C19 1.371 . S
N17 C20 1.372 . S
N18 C20 1.361 . S
N18 C21 1.377 . S
C19 N16 1.382 . S
C19 N17 1.371 . S
C19 C22 1.480 . S
C20 N17 1.372 . S
C20 N18 1.361 . S
C20 C28 1.457 . S
C21 N16 1.363 . S
C21 N18 1.377 . S
C21 C34 1.479 . S
C22 C19 1.480 . S
C22 C23 1.383 . S
C22 C27 1.385 . S
C23 H4 0.947 . S
C23 C22 1.383 . S
C23 C24 1.388 . S
C24 H5 0.946 . S
C24 C23 1.388 . S
C24 C25 1.384 . S
C25 C24 1.384 . S
C25 C26 1.377 . S
C26 H6 0.953 . S
C26 C25 1.377 . S
C26 C27 1.369 . S
C27 H7 0.945 . S
C27 C22 1.385 . S
C27 C26 1.369 . S
C28 C20 1.457 . S
C28 C29 1.372 . S
C28 C33 1.364 . S
C29 H8 0.952 . S
C29 C28 1.372 . S
C29 C30 1.389 . S
C30 H9 0.949 . S
C30 C29 1.389 . S
C30 C31 1.387 . S
C31 C30 1.387 . S
C31 C32 1.372 . S
C32 H10 0.950 . S
C32 C31 1.372 . S
C32 C33 1.379 . S
C33 H11 0.948 . S
C33 C28 1.364 . S
C33 C32 1.379 . S
C34 C3 1.383 . S
C34 C21 1.479 . S
C34 C35 1.398 . S
C35 C0 1.382 . S
C35 H12 0.951 . S
C35 C34 1.398 . S
C36 C37 1.384 . S
C36 H49 0.947 . S
C36 C71 1.382 . S
C37 C36 1.384 . S
C37 C38 1.378 . S
C38 C37 1.378 . S
C38 C39 1.378 . S
C38 H50 0.952 . S
C39 C38 1.378 . S
C39 H51 0.950 . S
C39 C70 1.383 . S
H40 C59 0.947 . S
H41 C60 0.946 . S
H42 C62 0.953 . S
H43 C63 0.945 . S
H44 C65 0.952 . S
H45 C66 0.949 . S
H46 C68 0.950 . S
H47 C69 0.948 . S
H48 C71 0.951 . S
H49 C36 0.947 . S
H50 C38 0.952 . S
H51 C39 0.950 . S
N52 C55 1.382 . S
N52 C57 1.363 . S
N53 C55 1.371 . S
N53 C56 1.372 . S
N54 C56 1.361 . S
N54 C57 1.377 . S
C55 N52 1.382 . S
C55 N53 1.371 . S
C55 C58 1.480 . S
C56 N53 1.372 . S
C56 N54 1.361 . S
C56 C64 1.457 . S
C57 N52 1.363 . S
C57 N54 1.377 . S
C57 C70 1.479 . S
C58 C55 1.480 . S
C58 C59 1.383 . S
C58 C63 1.385 . S
C59 H40 0.947 . S
C59 C58 1.383 . S
C59 C60 1.388 . S
C60 H41 0.946 . S
C60 C59 1.388 . S
C60 C61 1.384 . S
C61 C60 1.384 . S
C61 C62 1.377 . S
C62 H42 0.953 . S
C62 C61 1.377 . S
C62 C63 1.369 . S
C63 H43 0.945 . S
C63 C58 1.385 . S
C63 C62 1.369 . S
C64 C56 1.457 . S
C64 C65 1.372 . S
C64 C69 1.364 . S
C65 H44 0.952 . S
C65 C64 1.372 . S
C65 C66 1.389 . S
C66 H45 0.949 . S
C66 C65 1.389 . S
C66 C67 1.387 . S
C67 C66 1.387 . S
C67 C68 1.372 . S
C68 H46 0.950 . S
C68 C67 1.372 . S
C68 C69 1.379 . S
C69 H47 0.948 . S
C69 C64 1.364 . S
C69 C68 1.379 . S
C70 C39 1.383 . S
C70 C57 1.479 . S
C70 C71 1.398 . S
C71 C36 1.382 . S
C71 H48 0.951 . S
C71 C70 1.398 . S
C72 C73 1.384 . S
C72 H85 0.947 . S
C72 C107 1.382 . S
C73 C72 1.384 . S
C73 C74 1.378 . S
C74 C73 1.378 . S
C74 C75 1.378 . S
C74 H86 0.952 . S
C75 C74 1.378 . S
C75 H87 0.950 . S
C75 C106 1.383 . S
H76 C95 0.947 . S
H77 C96 0.946 . S
H78 C98 0.953 . S
H79 C99 0.945 . S
H80 C101 0.952 . S
H81 C102 0.949 . S
H82 C104 0.950 . S
H83 C105 0.948 . S
H84 C107 0.951 . S
H85 C72 0.947 . S
H86 C74 0.952 . S
H87 C75 0.950 . S
N88 C91 1.382 . S
N88 C93 1.363 . S
N89 C91 1.371 . S
N89 C92 1.372 . S
N90 C92 1.361 . S
N90 C93 1.377 . S
C91 N88 1.382 . S
C91 N89 1.371 . S
C91 C94 1.480 . S
C92 N89 1.372 . S
C92 N90 1.361 . S
C92 C100 1.457 . S
C93 N88 1.363 . S
C93 N90 1.377 . S
C93 C106 1.479 . S
C94 C91 1.480 . S
C94 C95 1.383 . S
C94 C99 1.385 . S
C95 H76 0.947 . S
C95 C94 1.383 . S
C95 C96 1.388 . S
C96 H77 0.946 . S
C96 C95 1.388 . S
C96 C97 1.384 . S
C97 C96 1.384 . S
C97 C98 1.377 . S
C98 H78 0.953 . S
C98 C97 1.377 . S
C98 C99 1.369 . S
C99 H79 0.945 . S
C99 C94 1.385 . S
C99 C98 1.369 . S
C100 C92 1.457 . S
C100 C101 1.372 . S
C100 C105 1.364 . S
C101 H80 0.952 . S
C101 C100 1.372 . S
C101 C102 1.389 . S
C102 H81 0.949 . S
C102 C101 1.389 . S
C102 C103 1.387 . S
C103 C102 1.387 . S
C103 C104 1.372 . S
C104 H82 0.950 . S
C104 C103 1.372 . S
C104 C105 1.379 . S
C105 H83 0.948 . S
C105 C100 1.364 . S
C105 C104 1.379 . S
C106 C75 1.383 . S
C106 C93 1.479 . S
C106 C107 1.398 . S
C107 C72 1.382 . S
C107 H84 0.951 . S
C107 C106 1.398 . S
C108 C109 1.384 . S
C108 H121 0.947 . S
C108 C143 1.382 . S
C109 C108 1.384 . S
C109 C110 1.378 . S
C110 C109 1.378 . S
C110 C111 1.378 . S
C110 H122 0.952 . S
C111 C110 1.378 . S
C111 H123 0.950 . S
C111 C142 1.383 . S
H112 C131 0.947 . S
H113 C132 0.946 . S
H114 C134 0.953 . S
H115 C135 0.945 . S
H116 C137 0.952 . S
H117 C138 0.949 . S
H118 C140 0.950 . S
H119 C141 0.948 . S
H120 C143 0.951 . S
H121 C108 0.947 . S
H122 C110 0.952 . S
H123 C111 0.950 . S
N124 C127 1.382 . S
N124 C129 1.363 . S
N125 C127 1.371 . S
N125 C128 1.372 . S
N126 C128 1.361 . S
N126 C129 1.377 . S
C127 N124 1.382 . S
C127 N125 1.371 . S
C127 C130 1.480 . S
C128 N125 1.372 . S
C128 N126 1.361 . S
C128 C136 1.457 . S
C129 N124 1.363 . S
C129 N126 1.377 . S
C129 C142 1.479 . S
C130 C127 1.480 . S
C130 C131 1.383 . S
C130 C135 1.385 . S
C131 H112 0.947 . S
C131 C130 1.383 . S
C131 C132 1.388 . S
C132 H113 0.946 . S
C132 C131 1.388 . S
C132 C133 1.384 . S
C133 C132 1.384 . S
C133 C134 1.377 . S
C134 H114 0.953 . S
C134 C133 1.377 . S
C134 C135 1.369 . S
C135 H115 0.945 . S
C135 C130 1.385 . S
C135 C134 1.369 . S
C136 C128 1.457 . S
C136 C137 1.372 . S
C136 C141 1.364 . S
C137 H116 0.952 . S
C137 C136 1.372 . S
C137 C138 1.389 . S
C138 H117 0.949 . S
C138 C137 1.389 . S
C138 C139 1.387 . S
C139 C138 1.387 . S
C139 C140 1.372 . S
C140 H118 0.950 . S
C140 C139 1.372 . S
C140 C141 1.379 . S
C141 H119 0.948 . S
C141 C136 1.364 . S
C141 C140 1.379 . S
C142 C111 1.383 . S
C142 C129 1.479 . S
C142 C143 1.398 . S
C143 C108 1.382 . S
C143 H120 0.951 . S
C143 C142 1.398 . S
C144 C145 1.384 . S
C144 H157 0.947 . S
C144 C179 1.382 . S
C145 C144 1.384 . S
C145 C146 1.378 . S
C146 C145 1.378 . S
C146 C147 1.378 . S
C146 H158 0.952 . S
C147 C146 1.378 . S
C147 H159 0.950 . S
C147 C178 1.383 . S
H148 C167 0.947 . S
H149 C168 0.946 . S
H150 C170 0.953 . S
H151 C171 0.945 . S
H152 C173 0.952 . S
H153 C174 0.949 . S
H154 C176 0.950 . S
H155 C177 0.948 . S
H156 C179 0.951 . S
H157 C144 0.947 . S
H158 C146 0.952 . S
H159 C147 0.950 . S
N160 C163 1.382 . S
N160 C165 1.363 . S
N161 C163 1.371 . S
N161 C164 1.372 . S
N162 C164 1.361 . S
N162 C165 1.377 . S
C163 N160 1.382 . S
C163 N161 1.371 . S
C163 C166 1.480 . S
C164 N161 1.372 . S
C164 N162 1.361 . S
C164 C172 1.457 . S
C165 N160 1.363 . S
C165 N162 1.377 . S
C165 C178 1.479 . S
C166 C163 1.480 . S
C166 C167 1.383 . S
C166 C171 1.385 . S
C167 H148 0.947 . S
C167 C166 1.383 . S
C167 C168 1.388 . S
C168 H149 0.946 . S
C168 C167 1.388 . S
C168 C169 1.384 . S
C169 C168 1.384 . S
C169 C170 1.377 . S
C170 H150 0.953 . S
C170 C169 1.377 . S
C170 C171 1.369 . S
C171 H151 0.945 . S
C171 C166 1.385 . S
C171 C170 1.369 . S
C172 C164 1.457 . S
C172 C173 1.372 . S
C172 C177 1.364 . S
C173 H152 0.952 . S
C173 C172 1.372 . S
C173 C174 1.389 . S
C174 H153 0.949 . S
C174 C173 1.389 . S
C174 C175 1.387 . S
C175 C174 1.387 . S
C175 C176 1.372 . S
C176 H154 0.950 . S
C176 C175 1.372 . S
C176 C177 1.379 . S
C177 H155 0.948 . S
C177 C172 1.364 . S
C177 C176 1.379 . S
C178 C147 1.383 . S
C178 C165 1.479 . S
C178 C179 1.398 . S
C179 C144 1.382 . S
C179 H156 0.951 . S
C179 C178 1.398 . S
C180 C181 1.384 . S
C180 H193 0.947 . S
C180 C215 1.382 . S
C181 C180 1.384 . S
C181 C182 1.378 . S
C182 C181 1.378 . S
C182 C183 1.378 . S
C182 H194 0.952 . S
C183 C182 1.378 . S
C183 H195 0.950 . S
C183 C214 1.383 . S
H184 C203 0.947 . S
H185 C204 0.946 . S
H186 C206 0.953 . S
H187 C207 0.945 . S
H188 C209 0.952 . S
H189 C210 0.949 . S
H190 C212 0.950 . S
H191 C213 0.948 . S
H192 C215 0.951 . S
H193 C180 0.947 . S
H194 C182 0.952 . S
H195 C183 0.950 . S
N196 C199 1.382 . S
N196 C201 1.363 . S
N197 C199 1.371 . S
N197 C200 1.372 . S
N198 C200 1.361 . S
N198 C201 1.377 . S
C199 N196 1.382 . S
C199 N197 1.371 . S
C199 C202 1.480 . S
C200 N197 1.372 . S
C200 N198 1.361 . S
C200 C208 1.457 . S
C201 N196 1.363 . S
C201 N198 1.377 . S
C201 C214 1.479 . S
C202 C199 1.480 . S
C202 C203 1.383 . S
C202 C207 1.385 . S
C203 H184 0.947 . S
C203 C202 1.383 . S
C203 C204 1.388 . S
C204 H185 0.946 . S
C204 C203 1.388 . S
C204 C205 1.384 . S
C205 C204 1.384 . S
C205 C206 1.377 . S
C206 H186 0.953 . S
C206 C205 1.377 . S
C206 C207 1.369 . S
C207 H187 0.945 . S
C207 C202 1.385 . S
C207 C206 1.369 . S
C208 C200 1.457 . S
C208 C209 1.372 . S
C208 C213 1.364 . S
C209 H188 0.952 . S
C209 C208 1.372 . S
C209 C210 1.389 . S
C210 H189 0.949 . S
C210 C209 1.389 . S
C210 C211 1.387 . S
C211 C210 1.387 . S
C211 C212 1.372 . S
C212 H190 0.950 . S
C212 C211 1.372 . S
C212 C213 1.379 . S
C213 H191 0.948 . S
C213 C208 1.364 . S
C213 C212 1.379 . S
C214 C183 1.383 . S
C214 C201 1.479 . S
C214 C215 1.398 . S
C215 C180 1.382 . S
C215 H192 0.951 . S
C215 C214 1.398 . S
C216 C217 1.384 . S
C216 H229 0.947 . S
C216 C251 1.382 . S
C217 C216 1.384 . S
C217 C218 1.378 . S
C218 C217 1.378 . S
C218 C219 1.378 . S
C218 H230 0.952 . S
C219 C218 1.378 . S
C219 H231 0.950 . S
C219 C250 1.383 . S
H220 C239 0.947 . S
H221 C240 0.946 . S
H222 C242 0.953 . S
H223 C243 0.945 . S
H224 C245 0.952 . S
H225 C246 0.949 . S
H226 C248 0.950 . S
H227 C249 0.948 . S
H228 C251 0.951 . S
H229 C216 0.947 . S
H230 C218 0.952 . S
H231 C219 0.950 . S
N232 C235 1.382 . S
N232 C237 1.363 . S
N233 C235 1.371 . S
N233 C236 1.372 . S
N234 C236 1.361 . S
N234 C237 1.377 . S
C235 N232 1.382 . S
C235 N233 1.371 . S
C235 C238 1.480 . S
C236 N233 1.372 . S
C236 N234 1.361 . S
C236 C244 1.457 . S
C237 N232 1.363 . S
C237 N234 1.377 . S
C237 C250 1.479 . S
C238 C235 1.480 . S
C238 C239 1.383 . S
C238 C243 1.385 . S
C239 H220 0.947 . S
C239 C238 1.383 . S
C239 C240 1.388 . S
C240 H221 0.946 . S
C240 C239 1.388 . S
C240 C241 1.384 . S
C241 C240 1.384 . S
C241 C242 1.377 . S
C242 H222 0.953 . S
C242 C241 1.377 . S
C242 C243 1.369 . S
C243 H223 0.945 . S
C243 C238 1.385 . S
C243 C242 1.369 . S
C244 C236 1.457 . S
C244 C245 1.372 . S
C244 C249 1.364 . S
C245 H224 0.952 . S
C245 C244 1.372 . S
C245 C246 1.389 . S
C246 H225 0.949 . S
C246 C245 1.389 . S
C246 C247 1.387 . S
C247 C246 1.387 . S
C247 C248 1.372 . S
C248 H226 0.950 . S
C248 C247 1.372 . S
C248 C249 1.379 . S
C249 H227 0.948 . S
C249 C244 1.364 . S
C249 C248 1.379 . S
C250 C219 1.383 . S
C250 C237 1.479 . S
C250 C251 1.398 . S
C251 C216 1.382 . S
C251 H228 0.951 . S
C251 C250 1.398 . S
C252 C253 1.384 . S
C252 H265 0.947 . S
C252 C287 1.382 . S
C253 C252 1.384 . S
C253 C254 1.378 . S
C254 C253 1.378 . S
C254 C255 1.378 . S
C254 H266 0.952 . S
C255 C254 1.378 . S
C255 H267 0.950 . S
C255 C286 1.383 . S
H256 C275 0.947 . S
H257 C276 0.946 . S
H258 C278 0.953 . S
H259 C279 0.945 . S
H260 C281 0.952 . S
H261 C282 0.949 . S
H262 C284 0.950 . S
H263 C285 0.948 . S
H264 C287 0.951 . S
H265 C252 0.947 . S
H266 C254 0.952 . S
H267 C255 0.950 . S
N268 C271 1.382 . S
N268 C273 1.363 . S
N269 C271 1.371 . S
N269 C272 1.372 . S
N270 C272 1.361 . S
N270 C273 1.377 . S
C271 N268 1.382 . S
C271 N269 1.371 . S
C271 C274 1.480 . S
C272 N269 1.372 . S
C272 N270 1.361 . S
C272 C280 1.457 . S
C273 N268 1.363 . S
C273 N270 1.377 . S
C273 C286 1.479 . S
C274 C271 1.480 . S
C274 C275 1.383 . S
C274 C279 1.385 . S
C275 H256 0.947 . S
C275 C274 1.383 . S
C275 C276 1.388 . S
C276 H257 0.946 . S
C276 C275 1.388 . S
C276 C277 1.384 . S
C277 C276 1.384 . S
C277 C278 1.377 . S
C278 H258 0.953 . S
C278 C277 1.377 . S
C278 C279 1.369 . S
C279 H259 0.945 . S
C279 C274 1.385 . S
C279 C278 1.369 . S
C280 C272 1.457 . S
C280 C281 1.372 . S
C280 C285 1.364 . S
C281 H260 0.952 . S
C281 C280 1.372 . S
C281 C282 1.389 . S
C282 H261 0.949 . S
C282 C281 1.389 . S
C282 C283 1.387 . S
C283 C282 1.387 . S
C283 C284 1.372 . S
C284 H262 0.950 . S
C284 C283 1.372 . S
C284 C285 1.379 . S
C285 H263 0.948 . S
C285 C280 1.364 . S
C285 C284 1.379 . S
C286 C255 1.383 . S
C286 C273 1.479 . S
C286 C287 1.398 . S
C287 C252 1.382 . S
C287 H264 0.951 . S
C287 C286 1.398 . S
C288 C289 1.384 . S
C288 H301 0.947 . S
C288 C323 1.382 . S
C289 C288 1.384 . S
C289 C290 1.378 . S
C290 C289 1.378 . S
C290 C291 1.378 . S
C290 H302 0.952 . S
C291 C290 1.378 . S
C291 H303 0.950 . S
C291 C322 1.383 . S
H292 C311 0.947 . S
H293 C312 0.946 . S
H294 C314 0.953 . S
H295 C315 0.945 . S
H296 C317 0.952 . S
H297 C318 0.949 . S
H298 C320 0.950 . S
H299 C321 0.948 . S
H300 C323 0.951 . S
H301 C288 0.947 . S
H302 C290 0.952 . S
H303 C291 0.950 . S
N304 C307 1.382 . S
N304 C309 1.363 . S
N305 C307 1.371 . S
N305 C308 1.372 . S
N306 C308 1.361 . S
N306 C309 1.377 . S
C307 N304 1.382 . S
C307 N305 1.371 . S
C307 C310 1.480 . S
C308 N305 1.372 . S
C308 N306 1.361 . S
C308 C316 1.457 . S
C309 N304 1.363 . S
C309 N306 1.377 . S
C309 C322 1.479 . S
C310 C307 1.480 . S
C310 C311 1.383 . S
C310 C315 1.385 . S
C311 H292 0.947 . S
C311 C310 1.383 . S
C311 C312 1.388 . S
C312 H293 0.946 . S
C312 C311 1.388 . S
C312 C313 1.384 . S
C313 C312 1.384 . S
C313 C314 1.377 . S
C314 H294 0.953 . S
C314 C313 1.377 . S
C314 C315 1.369 . S
C315 H295 0.945 . S
C315 C310 1.385 . S
C315 C314 1.369 . S
C316 C308 1.457 . S
C316 C317 1.372 . S
C316 C321 1.364 . S
C317 H296 0.952 . S
C317 C316 1.372 . S
C317 C318 1.389 . S
C318 H297 0.949 . S
C318 C317 1.389 . S
C318 C319 1.387 . S
C319 C318 1.387 . S
C319 C320 1.372 . S
C320 H298 0.950 . S
C320 C319 1.372 . S
C320 C321 1.379 . S
C321 H299 0.948 . S
C321 C316 1.364 . S
C321 C320 1.379 . S
C322 C291 1.383 . S
C322 C309 1.479 . S
C322 C323 1.398 . S
C323 C288 1.382 . S
C323 H300 0.951 . S
C323 C322 1.398 . S
C324 C325 1.384 . S
C324 H337 0.947 . S
C324 C359 1.382 . S
C325 C324 1.384 . S
C325 C326 1.378 . S
C326 C325 1.378 . S
C326 C327 1.378 . S
C326 H338 0.952 . S
C327 C326 1.378 . S
C327 H339 0.950 . S
C327 C358 1.383 . S
H328 C347 0.947 . S
H329 C348 0.946 . S
H330 C350 0.953 . S
H331 C351 0.945 . S
H332 C353 0.952 . S
H333 C354 0.949 . S
H334 C356 0.950 . S
H335 C357 0.948 . S
H336 C359 0.951 . S
H337 C324 0.947 . S
H338 C326 0.952 . S
H339 C327 0.950 . S
N340 C343 1.382 . S
N340 C345 1.363 . S
N341 C343 1.371 . S
N341 C344 1.372 . S
N342 C344 1.361 . S
N342 C345 1.377 . S
C343 N340 1.382 . S
C343 N341 1.371 . S
C343 C346 1.480 . S
C344 N341 1.372 . S
C344 N342 1.361 . S
C344 C352 1.457 . S
C345 N340 1.363 . S
C345 N342 1.377 . S
C345 C358 1.479 . S
C346 C343 1.480 . S
C346 C347 1.383 . S
C346 C351 1.385 . S
C347 H328 0.947 . S
C347 C346 1.383 . S
C347 C348 1.388 . S
C348 H329 0.946 . S
C348 C347 1.388 . S
C348 C349 1.384 . S
C349 C348 1.384 . S
C349 C350 1.377 . S
C350 H330 0.953 . S
C350 C349 1.377 . S
C350 C351 1.369 . S
C351 H331 0.945 . S
C351 C346 1.385 . S
C351 C350 1.369 . S
C352 C344 1.457 . S
C352 C353 1.372 . S
C352 C357 1.364 . S
C353 H332 0.952 . S
C353 C352 1.372 . S
C353 C354 1.389 . S
C354 H333 0.949 . S
C354 C353 1.389 . S
C354 C355 1.387 . S
C355 C354 1.387 . S
C355 C356 1.372 . S
C356 H334 0.950 . S
C356 C355 1.372 . S
C356 C357 1.379 . S
C357 H335 0.948 . S
C357 C352 1.364 . S
C357 C356 1.379 . S
C358 C327 1.383 . S
C358 C345 1.479 . S
C358 C359 1.398 . S
C359 C324 1.382 . S
C359 H336 0.951 . S
C359 C358 1.398 . S
C360 C361 1.384 . S
C360 H373 0.947 . S
C360 C395 1.382 . S
C361 C360 1.384 . S
C361 C362 1.378 . S
C362 C361 1.378 . S
C362 C363 1.378 . S
C362 H374 0.952 . S
C363 C362 1.378 . S
C363 H375 0.950 . S
C363 C394 1.383 . S
H364 C383 0.947 . S
H365 C384 0.946 . S
H366 C386 0.953 . S
H367 C387 0.945 . S
H368 C389 0.952 . S
H369 C390 0.949 . S
H370 C392 0.950 . S
H371 C393 0.948 . S
H372 C395 0.951 . S
H373 C360 0.947 . S
H374 C362 0.952 . S
H375 C363 0.950 . S
N376 C379 1.382 . S
N376 C381 1.363 . S
N377 C379 1.371 . S
N377 C380 1.372 . S
N378 C380 1.361 . S
N378 C381 1.377 . S
C379 N376 1.382 . S
C379 N377 1.371 . S
C379 C382 1.480 . S
C380 N377 1.372 . S
C380 N378 1.361 . S
C380 C388 1.457 . S
C381 N376 1.363 . S
C381 N378 1.377 . S
C381 C394 1.479 . S
C382 C379 1.480 . S
C382 C383 1.383 . S
C382 C387 1.385 . S
C383 H364 0.947 . S
C383 C382 1.383 . S
C383 C384 1.388 . S
C384 H365 0.946 . S
C384 C383 1.388 . S
C384 C385 1.384 . S
C385 C384 1.384 . S
C385 C386 1.377 . S
C386 H366 0.953 . S
C386 C385 1.377 . S
C386 C387 1.369 . S
C387 H367 0.945 . S
C387 C382 1.385 . S
C387 C386 1.369 . S
C388 C380 1.457 . S
C388 C389 1.372 . S
C388 C393 1.364 . S
C389 H368 0.952 . S
C389 C388 1.372 . S
C389 C390 1.389 . S
C390 H369 0.949 . S
C390 C389 1.389 . S
C390 C391 1.387 . S
C391 C390 1.387 . S
C391 C392 1.372 . S
C392 H370 0.950 . S
C392 C391 1.372 . S
C392 C393 1.379 . S
C393 H371 0.948 . S
C393 C388 1.364 . S
C393 C392 1.379 . S
C394 C363 1.383 . S
C394 C381 1.479 . S
C394 C395 1.398 . S
C395 C360 1.382 . S
C395 H372 0.951 . S
C395 C394 1.398 . S
C396 C397 1.384 . S
C396 H409 0.947 . S
C396 C431 1.382 . S
C397 C396 1.384 . S
C397 C398 1.378 . S
C398 C397 1.378 . S
C398 C399 1.378 . S
C398 H410 0.952 . S
C399 C398 1.378 . S
C399 H411 0.950 . S
C399 C430 1.383 . S
H400 C419 0.947 . S
H401 C420 0.946 . S
H402 C422 0.953 . S
H403 C423 0.945 . S
H404 C425 0.952 . S
H405 C426 0.949 . S
H406 C428 0.950 . S
H407 C429 0.948 . S
H408 C431 0.951 . S
H409 C396 0.947 . S
H410 C398 0.952 . S
H411 C399 0.950 . S
N412 C415 1.382 . S
N412 C417 1.363 . S
N413 C415 1.371 . S
N413 C416 1.372 . S
N414 C416 1.361 . S
N414 C417 1.377 . S
C415 N412 1.382 . S
C415 N413 1.371 . S
C415 C418 1.480 . S
C416 N413 1.372 . S
C416 N414 1.361 . S
C416 C424 1.457 . S
C417 N412 1.363 . S
C417 N414 1.377 . S
C417 C430 1.479 . S
C418 C415 1.480 . S
C418 C419 1.383 . S
C418 C423 1.385 . S
C419 H400 0.947 . S
C419 C418 1.383 . S
C419 C420 1.388 . S
C420 H401 0.946 . S
C420 C419 1.388 . S
C420 C421 1.384 . S
C421 C420 1.384 . S
C421 C422 1.377 . S
C422 H402 0.953 . S
C422 C421 1.377 . S
C422 C423 1.369 . S
C423 H403 0.945 . S
C423 C418 1.385 . S
C423 C422 1.369 . S
C424 C416 1.457 . S
C424 C425 1.372 . S
C424 C429 1.364 . S
C425 H404 0.952 . S
C425 C424 1.372 . S
C425 C426 1.389 . S
C426 H405 0.949 . S
C426 C425 1.389 . S
C426 C427 1.387 . S
C427 C426 1.387 . S
C427 C428 1.372 . S
C428 H406 0.950 . S
C428 C427 1.372 . S
C428 C429 1.379 . S
C429 H407 0.948 . S
C429 C424 1.364 . S
C429 C428 1.379 . S
C430 C399 1.383 . S
C430 C417 1.479 . S
C430 C431 1.398 . S
C431 C396 1.382 . S
C431 H408 0.951 . S
C431 C430 1.398 . S
C432 C433 1.384 . S
C432 H445 0.947 . S
C432 C467 1.382 . S
C433 C432 1.384 . S
C433 C434 1.378 . S
C434 C433 1.378 . S
C434 C435 1.378 . S
C434 H446 0.952 . S
C435 C434 1.378 . S
C435 H447 0.950 . S
C435 C466 1.383 . S
H436 C455 0.947 . S
H437 C456 0.946 . S
H438 C458 0.953 . S
H439 C459 0.945 . S
H440 C461 0.952 . S
H441 C462 0.949 . S
H442 C464 0.950 . S
H443 C465 0.948 . S
H444 C467 0.951 . S
H445 C432 0.947 . S
H446 C434 0.952 . S
H447 C435 0.950 . S
N448 C451 1.382 . S
N448 C453 1.363 . S
N449 C451 1.371 . S
N449 C452 1.372 . S
N450 C452 1.361 . S
N450 C453 1.377 . S
C451 N448 1.382 . S
C451 N449 1.371 . S
C451 C454 1.480 . S
C452 N449 1.372 . S
C452 N450 1.361 . S
C452 C460 1.457 . S
C453 N448 1.363 . S
C453 N450 1.377 . S
C453 C466 1.479 . S
C454 C451 1.480 . S
C454 C455 1.383 . S
C454 C459 1.385 . S
C455 H436 0.947 . S
C455 C454 1.383 . S
C455 C456 1.388 . S
C456 H437 0.946 . S
C456 C455 1.388 . S
C456 C457 1.384 . S
C457 C456 1.384 . S
C457 C458 1.377 . S
C458 H438 0.953 . S
C458 C457 1.377 . S
C458 C459 1.369 . S
C459 H439 0.945 . S
C459 C454 1.385 . S
C459 C458 1.369 . S
C460 C452 1.457 . S
C460 C461 1.372 . S
C460 C465 1.364 . S
C461 H440 0.952 . S
C461 C460 1.372 . S
C461 C462 1.389 . S
C462 H441 0.949 . S
C462 C461 1.389 . S
C462 C463 1.387 . S
C463 C462 1.387 . S
C463 C464 1.372 . S
C464 H442 0.950 . S
C464 C463 1.372 . S
C464 C465 1.379 . S
C465 H443 0.948 . S
C465 C460 1.364 . S
C465 C464 1.379 . S
C466 C435 1.383 . S
C466 C453 1.479 . S
C466 C467 1.398 . S
C467 C432 1.382 . S
C467 H444 0.951 . S
C467 C466 1.398 . S
C468 C469 1.384 . S
C468 H481 0.947 . S
C468 C503 1.382 . S
C469 C468 1.384 . S
C469 C470 1.378 . S
C470 C469 1.378 . S
C470 C471 1.378 . S
C470 H482 0.952 . S
C471 C470 1.378 . S
C471 H483 0.950 . S
C471 C502 1.383 . S
H472 C491 0.947 . S
H473 C492 0.946 . S
H474 C494 0.953 . S
H475 C495 0.945 . S
H476 C497 0.952 . S
H477 C498 0.949 . S
H478 C500 0.950 . S
H479 C501 0.948 . S
H480 C503 0.951 . S
H481 C468 0.947 . S
H482 C470 0.952 . S
H483 C471 0.950 . S
N484 C487 1.382 . S
N484 C489 1.363 . S
N485 C487 1.371 . S
N485 C488 1.372 . S
N486 C488 1.361 . S
N486 C489 1.377 . S
C487 N484 1.382 . S
C487 N485 1.371 . S
C487 C490 1.480 . S
C488 N485 1.372 . S
C488 N486 1.361 . S
C488 C496 1.457 . S
C489 N484 1.363 . S
C489 N486 1.377 . S
C489 C502 1.479 . S
C490 C487 1.480 . S
C490 C491 1.383 . S
C490 C495 1.385 . S
C491 H472 0.947 . S
C491 C490 1.383 . S
C491 C492 1.388 . S
C492 H473 0.946 . S
C492 C491 1.388 . S
C492 C493 1.384 . S
C493 C492 1.384 . S
C493 C494 1.377 . S
C494 H474 0.953 . S
C494 C493 1.377 . S
C494 C495 1.369 . S
C495 H475 0.945 . S
C495 C490 1.385 . S
C495 C494 1.369 . S
C496 C488 1.457 . S
C496 C497 1.372 . S
C496 C501 1.364 . S
C497 H476 0.952 . S
C497 C496 1.372 . S
C497 C498 1.389 . S
C498 H477 0.949 . S
C498 C497 1.389 . S
C498 C499 1.387 . S
C499 C498 1.387 . S
C499 C500 1.372 . S
C500 H478 0.950 . S
C500 C499 1.372 . S
C500 C501 1.379 . S
C501 H479 0.948 . S
C501 C496 1.364 . S
C501 C500 1.379 . S
C502 C471 1.383 . S
C502 C489 1.479 . S
C502 C503 1.398 . S
C503 C468 1.382 . S
C503 H480 0.951 . S
C503 C502 1.398 . S
C504 C505 1.384 . S
C504 H517 0.947 . S
C504 C539 1.382 . S
C505 C504 1.384 . S
C505 C506 1.378 . S
C506 C505 1.378 . S
C506 C507 1.378 . S
C506 H518 0.952 . S
C507 C506 1.378 . S
C507 H519 0.950 . S
C507 C538 1.383 . S
H508 C527 0.947 . S
H509 C528 0.946 . S
H510 C530 0.953 . S
H511 C531 0.945 . S
H512 C533 0.952 . S
H513 C534 0.949 . S
H514 C536 0.950 . S
H515 C537 0.948 . S
H516 C539 0.951 . S
H517 C504 0.947 . S
H518 C506 0.952 . S
H519 C507 0.950 . S
N520 C523 1.382 . S
N520 C525 1.363 . S
N521 C523 1.371 . S
N521 C524 1.372 . S
N522 C524 1.361 . S
N522 C525 1.377 . S
C523 N520 1.382 . S
C523 N521 1.371 . S
C523 C526 1.480 . S
C524 N521 1.372 . S
C524 N522 1.361 . S
C524 C532 1.457 . S
C525 N520 1.363 . S
C525 N522 1.377 . S
C525 C538 1.479 . S
C526 C523 1.480 . S
C526 C527 1.383 . S
C526 C531 1.385 . S
C527 H508 0.947 . S
C527 C526 1.383 . S
C527 C528 1.388 . S
C528 H509 0.946 . S
C528 C527 1.388 . S
C528 C529 1.384 . S
C529 C528 1.384 . S
C529 C530 1.377 . S
C530 H510 0.953 . S
C530 C529 1.377 . S
C530 C531 1.369 . S
C531 H511 0.945 . S
C531 C526 1.385 . S
C531 C530 1.369 . S
C532 C524 1.457 . S
C532 C533 1.372 . S
C532 C537 1.364 . S
C533 H512 0.952 . S
C533 C532 1.372 . S
C533 C534 1.389 . S
C534 H513 0.949 . S
C534 C533 1.389 . S
C534 C535 1.387 . S
C535 C534 1.387 . S
C535 C536 1.372 . S
C536 H514 0.950 . S
C536 C535 1.372 . S
C536 C537 1.379 . S
C537 H515 0.948 . S
C537 C532 1.364 . S
C537 C536 1.379 . S
C538 C507 1.383 . S
C538 C525 1.479 . S
C538 C539 1.398 . S
C539 C504 1.382 . S
C539 H516 0.951 . S
C539 C538 1.398 . S
C540 C541 1.384 . S
C540 H553 0.947 . S
C540 C575 1.382 . S
C541 C540 1.384 . S
C541 C542 1.378 . S
C542 C541 1.378 . S
C542 C543 1.378 . S
C542 H554 0.952 . S
C543 C542 1.378 . S
C543 H555 0.950 . S
C543 C574 1.383 . S
H544 C563 0.947 . S
H545 C564 0.946 . S
H546 C566 0.953 . S
H547 C567 0.945 . S
H548 C569 0.952 . S
H549 C570 0.949 . S
H550 C572 0.950 . S
H551 C573 0.948 . S
H552 C575 0.951 . S
H553 C540 0.947 . S
H554 C542 0.952 . S
H555 C543 0.950 . S
N556 C559 1.382 . S
N556 C561 1.363 . S
N557 C559 1.371 . S
N557 C560 1.372 . S
N558 C560 1.361 . S
N558 C561 1.377 . S
C559 N556 1.382 . S
C559 N557 1.371 . S
C559 C562 1.480 . S
C560 N557 1.372 . S
C560 N558 1.361 . S
C560 C568 1.457 . S
C561 N556 1.363 . S
C561 N558 1.377 . S
C561 C574 1.479 . S
C562 C559 1.480 . S
C562 C563 1.383 . S
C562 C567 1.385 . S
C563 H544 0.947 . S
C563 C562 1.383 . S
C563 C564 1.388 . S
C564 H545 0.946 . S
C564 C563 1.388 . S
C564 C565 1.384 . S
C565 C564 1.384 . S
C565 C566 1.377 . S
C566 H546 0.953 . S
C566 C565 1.377 . S
C566 C567 1.369 . S
C567 H547 0.945 . S
C567 C562 1.385 . S
C567 C566 1.369 . S
C568 C560 1.457 . S
C568 C569 1.372 . S
C568 C573 1.364 . S
C569 H548 0.952 . S
C569 C568 1.372 . S
C569 C570 1.389 . S
C570 H549 0.949 . S
C570 C569 1.389 . S
C570 C571 1.387 . S
C571 C570 1.387 . S
C571 C572 1.372 . S
C572 H550 0.950 . S
C572 C571 1.372 . S
C572 C573 1.379 . S
C573 H551 0.948 . S
C573 C568 1.364 . S
C573 C572 1.379 . S
C574 C543 1.383 . S
C574 C561 1.479 . S
C574 C575 1.398 . S
C575 C540 1.382 . S
C575 H552 0.951 . S
C575 C574 1.398 . S
C576 C577 1.384 . S
C576 H589 0.947 . S
C576 C611 1.382 . S
C577 C576 1.384 . S
C577 C578 1.378 . S
C578 C577 1.378 . S
C578 C579 1.378 . S
C578 H590 0.952 . S
C579 C578 1.378 . S
C579 H591 0.950 . S
C579 C610 1.383 . S
H580 C599 0.947 . S
H581 C600 0.946 . S
H582 C602 0.953 . S
H583 C603 0.945 . S
H584 C605 0.952 . S
H585 C606 0.949 . S
H586 C608 0.950 . S
H587 C609 0.948 . S
H588 C611 0.951 . S
H589 C576 0.947 . S
H590 C578 0.952 . S
H591 C579 0.950 . S
N592 C595 1.382 . S
N592 C597 1.363 . S
N593 C595 1.371 . S
N593 C596 1.372 . S
N594 C596 1.361 . S
N594 C597 1.377 . S
C595 N592 1.382 . S
C595 N593 1.371 . S
C595 C598 1.480 . S
C596 N593 1.372 . S
C596 N594 1.361 . S
C596 C604 1.457 . S
C597 N592 1.363 . S
C597 N594 1.377 . S
C597 C610 1.479 . S
C598 C595 1.480 . S
C598 C599 1.383 . S
C598 C603 1.385 . S
C599 H580 0.947 . S
C599 C598 1.383 . S
C599 C600 1.388 . S
C600 H581 0.946 . S
C600 C599 1.388 . S
C600 C601 1.384 . S
C601 C600 1.384 . S
C601 C602 1.377 . S
C602 H582 0.953 . S
C602 C601 1.377 . S
C602 C603 1.369 . S
C603 H583 0.945 . S
C603 C598 1.385 . S
C603 C602 1.369 . S
C604 C596 1.457 . S
C604 C605 1.372 . S
C604 C609 1.364 . S
C605 H584 0.952 . S
C605 C604 1.372 . S
C605 C606 1.389 . S
C606 H585 0.949 . S
C606 C605 1.389 . S
C606 C607 1.387 . S
C607 C606 1.387 . S
C607 C608 1.372 . S
C608 H586 0.950 . S
C608 C607 1.372 . S
C608 C609 1.379 . S
C609 H587 0.948 . S
C609 C604 1.364 . S
C609 C608 1.379 . S
C610 C579 1.383 . S
C610 C597 1.479 . S
C610 C611 1.398 . S
C611 C576 1.382 . S
C611 H588 0.951 . S
C611 C610 1.398 . S
C612 C613 1.384 . S
C612 H625 0.947 . S
C612 C647 1.382 . S
C613 C612 1.384 . S
C613 C614 1.378 . S
C614 C613 1.378 . S
C614 C615 1.378 . S
C614 H626 0.952 . S
C615 C614 1.378 . S
C615 H627 0.950 . S
C615 C646 1.383 . S
H616 C635 0.947 . S
H617 C636 0.946 . S
H618 C638 0.953 . S
H619 C639 0.945 . S
H620 C641 0.952 . S
H621 C642 0.949 . S
H622 C644 0.950 . S
H623 C645 0.948 . S
H624 C647 0.951 . S
H625 C612 0.947 . S
H626 C614 0.952 . S
H627 C615 0.950 . S
N628 C631 1.382 . S
N628 C633 1.363 . S
N629 C631 1.371 . S
N629 C632 1.372 . S
N630 C632 1.361 . S
N630 C633 1.377 . S
C631 N628 1.382 . S
C631 N629 1.371 . S
C631 C634 1.480 . S
C632 N629 1.372 . S
C632 N630 1.361 . S
C632 C640 1.457 . S
C633 N628 1.363 . S
C633 N630 1.377 . S
C633 C646 1.479 . S
C634 C631 1.480 . S
C634 C635 1.383 . S
C634 C639 1.385 . S
C635 H616 0.947 . S
C635 C634 1.383 . S
C635 C636 1.388 . S
C636 H617 0.946 . S
C636 C635 1.388 . S
C636 C637 1.384 . S
C637 C636 1.384 . S
C637 C638 1.377 . S
C638 H618 0.953 . S
C638 C637 1.377 . S
C638 C639 1.369 . S
C639 H619 0.945 . S
C639 C634 1.385 . S
C639 C638 1.369 . S
C640 C632 1.457 . S
C640 C641 1.372 . S
C640 C645 1.364 . S
C641 H620 0.952 . S
C641 C640 1.372 . S
C641 C642 1.389 . S
C642 H621 0.949 . S
C642 C641 1.389 . S
C642 C643 1.387 . S
C643 C642 1.387 . S
C643 C644 1.372 . S
C644 H622 0.950 . S
C644 C643 1.372 . S
C644 C645 1.379 . S
C645 H623 0.948 . S
C645 C640 1.364 . S
C645 C644 1.379 . S
C646 C615 1.383 . S
C646 C633 1.479 . S
C646 C647 1.398 . S
C647 C612 1.382 . S
C647 H624 0.951 . S
C647 C646 1.398 . S
Eu648 C657 2.828 . S
Eu648 O659 2.392 1_556 S
Eu648 O661 2.418 . S
Eu648 O666 2.373 1_565 S
Eu648 O669 2.488 . S
Eu648 O670 2.471 1_565 S
Eu648 O671 2.349 1_565 S
Eu649 O658 2.373 1_545 S
Eu649 O662 2.488 . S
Eu649 O663 2.451 1_545 S
Eu649 O664 2.349 1_545 S
Eu649 O667 2.392 . S
Eu649 O668 2.418 . S
Eu649 C678 2.828 . S
C650 O668 1.214 1_556 S
C650 O671 1.277 . S
C651 C652 1.379 1_565 S
C651 C655 1.373 . S
C651 C657 1.505 . S
C652 C651 1.379 1_545 S
C652 C654 1.369 . S
C652 H680 0.930 . S
C653 C655 1.383 . S
C653 C656 1.382 1_565 S
C653 H681 0.930 . S
C654 C652 1.369 . S
C654 C656 1.392 . S
C654 H682 0.930 . S
C655 C651 1.373 . S
C655 C653 1.383 . S
C655 H683 0.931 . S
C656 C653 1.382 1_545 S
C656 C654 1.392 . S
C657 Eu648 2.828 . S
C657 C651 1.505 . S
C657 O669 1.249 . S
C657 O670 1.244 1_565 S
O658 Eu649 2.373 1_565 S
O658 C660 1.258 . S
O659 Eu648 2.392 1_554 S
O659 C660 1.242 . S
C660 O658 1.258 . S
C660 O659 1.242 . S
O661 Eu648 2.418 . S
O661 C665 1.244 1_556 S
O662 Eu649 2.488 . S
O662 C678 1.249 . S
O663 Eu649 2.451 1_565 S
O663 C678 1.214 1_565 S
O664 Eu649 2.349 1_565 S
O664 C665 1.265 . S
C665 O661 1.244 1_554 S
C665 O664 1.265 . S
O666 Eu648 2.373 1_545 S
O666 C679 1.258 . S
O667 Eu649 2.392 . S
O667 C679 1.242 1_554 S
O668 Eu649 2.418 . S
O668 C650 1.214 1_554 S
O669 Eu648 2.488 . S
O669 C657 1.249 . S
O670 Eu648 2.471 1_545 S
O670 C657 1.244 1_545 S
O671 Eu648 2.349 1_545 S
O671 C650 1.277 . S
C672 C673 1.379 1_545 S
C672 C676 1.373 . S
C672 C678 1.505 . S
C673 C672 1.379 1_565 S
C673 C675 1.369 . S
C673 H684 0.930 . S
C674 C676 1.383 . S
C674 C677 1.382 1_545 S
C674 H685 0.930 . S
C675 C673 1.369 . S
C675 C677 1.392 . S
C675 H686 0.930 . S
C676 C672 1.373 . S
C676 C674 1.383 . S
C676 H687 0.931 . S
C677 C674 1.382 1_565 S
C677 C675 1.392 . S
C678 Eu649 2.828 . S
C678 O662 1.249 . S
C678 O663 1.214 1_545 S
C678 C672 1.505 . S
C679 O666 1.258 . S
C679 O667 1.242 1_556 S
H680 C652 0.930 . S
H681 C653 0.930 . S
H682 C654 0.930 . S
H683 C655 0.931 . S
H684 C673 0.930 . S
H685 C674 0.930 . S
H686 C675 0.930 . S
H687 C676 0.931 . S
Eu688 C697 2.828 . S
Eu688 O699 2.392 1_556 S
Eu688 O701 2.418 . S
Eu688 O706 2.373 1_455 S
Eu688 O709 2.488 . S
Eu688 O710 2.471 1_455 S
Eu688 O711 2.349 1_455 S
Eu689 O698 2.373 1_655 S
Eu689 O702 2.488 . S
Eu689 O703 2.471 1_655 S
Eu689 O704 2.349 1_655 S
Eu689 O707 2.391 . S
Eu689 O708 2.418 . S
Eu689 C718 2.828 . S
C690 O708 1.244 1_556 S
C690 O711 1.265 . S
C691 C692 1.379 1_455 S
C691 C695 1.373 . S
C691 C697 1.505 . S
C692 C691 1.379 1_655 S
C692 C694 1.369 . S
C692 H720 0.930 . S
C693 C695 1.383 . S
C693 C696 1.382 1_455 S
C693 H721 0.930 . S
C694 C692 1.369 . S
C694 C696 1.392 . S
C694 H722 0.930 . S
C695 C691 1.373 . S
C695 C693 1.383 . S
C695 H723 0.931 . S
C696 C693 1.382 1_655 S
C696 C694 1.392 . S
C697 Eu688 2.828 . S
C697 C691 1.505 . S
C697 O709 1.249 . S
C697 O710 1.244 1_455 S
O698 Eu689 2.373 1_455 S
O698 C700 1.258 . S
O699 Eu688 2.392 1_554 S
O699 C700 1.242 . S
C700 O698 1.258 . S
C700 O699 1.242 . S
O701 Eu688 2.418 . S
O701 C705 1.244 1_556 S
O702 Eu689 2.488 . S
O702 C718 1.249 . S
O703 Eu689 2.471 1_455 S
O703 C718 1.244 1_455 S
O704 Eu689 2.349 1_455 S
O704 C705 1.265 . S
C705 O701 1.244 1_554 S
C705 O704 1.265 . S
O706 Eu688 2.373 1_655 S
O706 C719 1.258 . S
O707 Eu689 2.391 . S
O707 C719 1.244 1_554 S
O708 Eu689 2.418 . S
O708 C690 1.244 1_554 S
O709 Eu688 2.488 . S
O709 C697 1.249 . S
O710 Eu688 2.471 1_655 S
O710 C697 1.244 1_655 S
O711 Eu688 2.349 1_655 S
O711 C690 1.265 . S
C712 C713 1.379 1_655 S
C712 C716 1.373 . S
C712 C718 1.505 . S
C713 C712 1.379 1_455 S
C713 C715 1.369 . S
C713 H724 0.930 . S
C714 C716 1.383 . S
C714 C717 1.382 1_655 S
C714 H725 0.930 . S
C715 C713 1.369 . S
C715 C717 1.392 . S
C715 H726 0.930 . S
C716 C712 1.373 . S
C716 C714 1.383 . S
C716 H727 0.931 . S
C717 C714 1.382 1_455 S
C717 C715 1.392 . S
C718 Eu689 2.828 . S
C718 O702 1.249 . S
C718 O703 1.244 1_655 S
C718 C712 1.505 . S
C719 O706 1.258 . S
C719 O707 1.244 1_556 S
H720 C692 0.930 . S
H721 C693 0.930 . S
H722 C694 0.930 . S
H723 C695 0.931 . S
H724 C713 0.930 . S
H725 C714 0.930 . S
H726 C715 0.930 . S
H727 C716 0.931 . S
Eu728 C737 2.828 . S
Eu728 O739 2.392 . S
Eu728 O741 2.418 . S
Eu728 O746 2.373 . S
Eu728 O749 2.488 . S
Eu728 O750 2.471 . S
Eu728 O751 2.349 . S
Eu729 O738 2.373 . S
Eu729 O742 2.488 . S
Eu729 O743 2.471 . S
Eu729 O744 2.349 . S
Eu729 O747 2.392 1_556 S
Eu729 O748 2.418 . S
Eu729 C758 2.828 . S
C730 O748 1.244 1_554 S
C730 O751 1.265 . S
C731 C732 1.379 . S
C731 C735 1.373 . S
C731 C737 1.505 . S
C732 C731 1.379 . S
C732 C734 1.369 . S
C732 H760 0.930 . S
C733 C735 1.383 . S
C733 C736 1.382 . S
C733 H761 0.930 . S
C734 C732 1.369 . S
C734 C736 1.392 . S
C734 H762 0.930 . S
C735 C731 1.373 . S
C735 C733 1.383 . S
C735 H763 0.931 . S
C736 C733 1.382 . S
C736 C734 1.392 . S
C737 Eu728 2.828 . S
C737 C731 1.505 . S
C737 O749 1.249 . S
C737 O750 1.244 . S
O738 Eu729 2.373 . S
O738 C740 1.258 . S
O739 Eu728 2.392 . S
O739 C740 1.242 1_554 S
C740 O738 1.258 . S
C740 O739 1.242 1_556 S
O741 Eu728 2.418 . S
O741 C745 1.244 1_554 S
O742 Eu729 2.488 . S
O742 C758 1.249 . S
O743 Eu729 2.471 . S
O743 C758 1.244 . S
O744 Eu729 2.349 . S
O744 C745 1.265 . S
C745 O741 1.244 1_556 S
C745 O744 1.265 . S
O746 Eu728 2.373 . S
O746 C759 1.258 . S
O747 Eu729 2.392 1_554 S
O747 C759 1.242 . S
O748 Eu729 2.418 . S
O748 C730 1.244 1_556 S
O749 Eu728 2.488 . S
O749 C737 1.249 . S
O750 Eu728 2.471 . S
O750 C737 1.244 . S
O751 Eu728 2.349 . S
O751 C730 1.265 . S
C752 C753 1.379 . S
C752 C756 1.373 . S
C752 C758 1.505 . S
C753 C752 1.379 . S
C753 C755 1.369 . S
C753 H764 0.930 . S
C754 C756 1.383 . S
C754 C757 1.382 . S
C754 H765 0.930 . S
C755 C753 1.369 . S
C755 C757 1.392 . S
C755 H766 0.930 . S
C756 C752 1.373 . S
C756 C754 1.383 . S
C756 H767 0.931 . S
C757 C754 1.382 . S
C757 C755 1.392 . S
C758 Eu729 2.828 . S
C758 O742 1.249 . S
C758 O743 1.244 . S
C758 C752 1.505 . S
C759 O746 1.258 . S
C759 O747 1.242 . S
H760 C732 0.930 . S
H761 C733 0.930 . S
H762 C734 0.930 . S
H763 C735 0.931 . S
H764 C753 0.930 . S
H765 C754 0.930 . S
H766 C755 0.930 . S
H767 C756 0.931 . S
Eu768 C777 2.828 . S
Eu768 O779 2.392 . S
Eu768 O781 2.418 . S
Eu768 O786 2.373 . S
Eu768 O789 2.488 . S
Eu768 O790 2.471 . S
Eu768 O791 2.349 . S
Eu769 O778 2.373 . S
Eu769 O782 2.488 . S
Eu769 O783 2.471 . S
Eu769 O784 2.349 . S
Eu769 O787 2.392 . S
Eu769 O788 2.418 . S
Eu769 C798 2.828 . S
C770 O788 1.244 . S
C770 O791 1.265 . S
C771 C772 1.379 . S
C771 C775 1.373 . S
C771 C777 1.505 . S
C772 C771 1.379 . S
C772 C774 1.369 . S
C772 H800 0.930 . S
C773 C775 1.383 . S
C773 C776 1.382 . S
C773 H801 0.930 . S
C774 C772 1.369 . S
C774 C776 1.392 . S
C774 H802 0.930 . S
C775 C771 1.373 . S
C775 C773 1.383 . S
C775 H803 0.931 . S
C776 C773 1.382 . S
C776 C774 1.392 . S
C777 Eu768 2.828 . S
C777 C771 1.505 . S
C777 O789 1.249 . S
C777 O790 1.244 . S
O778 Eu769 2.373 . S
O778 C780 1.258 . S
O779 Eu768 2.392 . S
O779 C780 1.242 . S
C780 O778 1.258 . S
C780 O779 1.242 . S
O781 Eu768 2.418 . S
O781 C785 1.244 . S
O782 Eu769 2.488 . S
O782 C798 1.249 . S
O783 Eu769 2.471 . S
O783 C798 1.244 . S
O784 Eu769 2.349 . S
O784 C785 1.265 . S
C785 O781 1.244 . S
C785 O784 1.265 . S
O786 Eu768 2.373 . S
O786 C799 1.258 . S
O787 Eu769 2.392 . S
O787 C799 1.242 . S
O788 Eu769 2.418 . S
O788 C770 1.244 . S
O789 Eu768 2.488 . S
O789 C777 1.249 . S
O790 Eu768 2.471 . S
O790 C777 1.244 . S
O791 Eu768 2.349 . S
O791 C770 1.265 . S
C792 C793 1.379 . S
C792 C796 1.373 . S
C792 C798 1.505 . S
C793 C792 1.379 . S
C793 C795 1.369 . S
C793 H804 0.930 . S
C794 C796 1.383 . S
C794 C797 1.382 . S
C794 H805 0.930 . S
C795 C793 1.369 . S
C795 C797 1.392 . S
C795 H806 0.930 . S
C796 C792 1.373 . S
C796 C794 1.383 . S
C796 H807 0.931 . S
C797 C794 1.382 . S
C797 C795 1.392 . S
C798 Eu769 2.828 . S
C798 O782 1.249 . S
C798 O783 1.244 . S
C798 C792 1.505 . S
C799 O786 1.258 . S
C799 O787 1.242 . S
H800 C772 0.930 . S
H801 C773 0.930 . S
H802 C774 0.930 . S
H803 C775 0.931 . S
H804 C793 0.930 . S
H805 C794 0.930 . S
H806 C795 0.930 . S
H807 C796 0.931 . S
Eu808 C817 2.828 . S
Eu808 O819 2.392 . S
Eu808 O821 2.418 . S
Eu808 O826 2.373 . S
Eu808 O829 2.488 . S
Eu808 O830 2.471 . S
Eu808 O831 2.349 . S
Eu809 O818 2.373 . S
Eu809 O822 2.488 . S
Eu809 O823 2.471 . S
Eu809 O824 2.349 . S
Eu809 O827 2.392 . S
Eu809 O828 2.418 . S
Eu809 C838 2.828 . S
C810 O828 1.244 . S
C810 O831 1.265 . S
C811 C812 1.379 . S
C811 C815 1.373 . S
C811 C817 1.505 . S
C812 C811 1.379 . S
C812 C814 1.369 . S
C812 H840 0.930 . S
C813 C815 1.383 . S
C813 C816 1.382 . S
C813 H841 0.930 . S
C814 C812 1.369 . S
C814 C816 1.392 . S
C814 H842 0.930 . S
C815 C811 1.373 . S
C815 C813 1.383 . S
C815 H843 0.931 . S
C816 C813 1.382 . S
C816 C814 1.392 . S
C817 Eu808 2.828 . S
C817 C811 1.505 . S
C817 O829 1.249 . S
C817 O830 1.244 . S
O818 Eu809 2.373 . S
O818 C820 1.258 . S
O819 Eu808 2.392 . S
O819 C820 1.242 . S
C820 O818 1.258 . S
C820 O819 1.242 . S
O821 Eu808 2.418 . S
O821 C825 1.244 . S
O822 Eu809 2.488 . S
O822 C838 1.249 . S
O823 Eu809 2.471 . S
O823 C838 1.244 . S
O824 Eu809 2.349 . S
O824 C825 1.265 . S
C825 O821 1.244 . S
C825 O824 1.265 . S
O826 Eu808 2.373 . S
O826 C839 1.258 . S
O827 Eu809 2.392 . S
O827 C839 1.242 . S
O828 Eu809 2.418 . S
O828 C810 1.244 . S
O829 Eu808 2.488 . S
O829 C817 1.249 . S
O830 Eu808 2.471 . S
O830 C817 1.244 . S
O831 Eu808 2.349 . S
O831 C810 1.265 . S
C832 C833 1.379 . S
C832 C836 1.373 . S
C832 C838 1.505 . S
C833 C832 1.379 . S
C833 C835 1.369 . S
C833 H844 0.930 . S
C834 C836 1.383 . S
C834 C837 1.382 . S
C834 H845 0.930 . S
C835 C833 1.369 . S
C835 C837 1.392 . S
C835 H846 0.930 . S
C836 C832 1.373 . S
C836 C834 1.383 . S
C836 H847 0.931 . S
C837 C834 1.382 . S
C837 C835 1.392 . S
C838 Eu809 2.828 . S
C838 O822 1.249 . S
C838 O823 1.244 . S
C838 C832 1.505 . S
C839 O826 1.258 . S
C839 O827 1.242 . S
H840 C812 0.930 . S
H841 C813 0.930 . S
H842 C814 0.930 . S
H843 C815 0.931 . S
H844 C833 0.930 . S
H845 C834 0.930 . S
H846 C835 0.930 . S
H847 C836 0.931 . S
Eu848 C857 2.828 . S
Eu848 O859 2.392 . S
Eu848 O861 2.418 . S
Eu848 O866 2.373 . S
Eu848 O869 2.488 . S
Eu848 O870 2.471 . S
Eu848 O871 2.349 . S
Eu849 O858 2.373 . S
Eu849 O862 2.488 . S
Eu849 O863 2.471 . S
Eu849 O864 2.349 . S
Eu849 O867 2.392 . S
Eu849 O868 2.418 . S
Eu849 C878 2.828 . S
C850 O868 1.244 . S
C850 O871 1.265 . S
C851 C852 1.379 . S
C851 C855 1.373 . S
C851 C857 1.505 . S
C852 C851 1.379 . S
C852 C854 1.369 . S
C852 H880 0.930 . S
C853 C855 1.383 . S
C853 C856 1.382 . S
C853 H881 0.930 . S
C854 C852 1.369 . S
C854 C856 1.392 . S
C854 H882 0.930 . S
C855 C851 1.373 . S
C855 C853 1.383 . S
C855 H883 0.931 . S
C856 C853 1.382 . S
C856 C854 1.392 . S
C857 Eu848 2.828 . S
C857 C851 1.505 . S
C857 O869 1.249 . S
C857 O870 1.244 . S
O858 Eu849 2.373 . S
O858 C860 1.258 . S
O859 Eu848 2.392 . S
O859 C860 1.242 . S
C860 O858 1.258 . S
C860 O859 1.242 . S
O861 Eu848 2.418 . S
O861 C865 1.244 . S
O862 Eu849 2.488 . S
O862 C878 1.249 . S
O863 Eu849 2.471 . S
O863 C878 1.244 . S
O864 Eu849 2.349 . S
O864 C865 1.265 . S
C865 O861 1.244 . S
C865 O864 1.265 . S
O866 Eu848 2.373 . S
O866 C879 1.258 . S
O867 Eu849 2.392 . S
O867 C879 1.242 . S
O868 Eu849 2.418 . S
O868 C850 1.244 . S
O869 Eu848 2.488 . S
O869 C857 1.249 . S
O870 Eu848 2.471 . S
O870 C857 1.244 . S
O871 Eu848 2.349 . S
O871 C850 1.265 . S
C872 C873 1.379 . S
C872 C876 1.373 . S
C872 C878 1.505 . S
C873 C872 1.379 . S
C873 C875 1.369 . S
C873 H884 0.930 . S
C874 C876 1.383 . S
C874 C877 1.382 . S
C874 H885 0.930 . S
C875 C873 1.369 . S
C875 C877 1.392 . S
C875 H886 0.930 . S
C876 C872 1.373 . S
C876 C874 1.383 . S
C876 H887 0.931 . S
C877 C874 1.382 . S
C877 C875 1.392 . S
C878 Eu849 2.828 . S
C878 O862 1.249 . S
C878 O863 1.244 . S
C878 C872 1.505 . S
C879 O866 1.258 . S
C879 O867 1.242 . S
H880 C852 0.930 . S
H881 C853 0.930 . S
H882 C854 0.930 . S
H883 C855 0.931 . S
H884 C873 0.930 . S
H885 C874 0.930 . S
H886 C875 0.930 . S
H887 C876 0.931 . S
Eu888 C897 2.828 . S
Eu888 O899 2.392 . S
Eu888 O901 2.418 . S
Eu888 O906 2.373 . S
Eu888 O909 2.488 . S
Eu888 O910 2.471 . S
Eu888 O911 2.349 . S
Eu889 O898 2.373 . S
Eu889 O902 2.488 . S
Eu889 O903 2.471 . S
Eu889 O904 2.349 . S
Eu889 O907 2.392 . S
Eu889 O908 2.418 . S
Eu889 C918 2.828 . S
C890 O908 1.244 . S
C890 O911 1.265 . S
C891 C892 1.379 . S
C891 C895 1.373 . S
C891 C897 1.505 . S
C892 C891 1.379 . S
C892 C894 1.369 . S
C892 H920 0.930 . S
C893 C895 1.383 . S
C893 C896 1.382 . S
C893 H921 0.930 . S
C894 C892 1.369 . S
C894 C896 1.392 . S
C894 H922 0.930 . S
C895 C891 1.373 . S
C895 C893 1.383 . S
C895 H923 0.931 . S
C896 C893 1.382 . S
C896 C894 1.392 . S
C897 Eu888 2.828 . S
C897 C891 1.505 . S
C897 O909 1.249 . S
C897 O910 1.244 . S
O898 Eu889 2.373 . S
O898 C900 1.258 . S
O899 Eu888 2.392 . S
O899 C900 1.242 . S
C900 O898 1.258 . S
C900 O899 1.242 . S
O901 Eu888 2.418 . S
O901 C905 1.244 . S
O902 Eu889 2.488 . S
O902 C918 1.249 . S
O903 Eu889 2.471 . S
O903 C918 1.244 . S
O904 Eu889 2.349 . S
O904 C905 1.265 . S
C905 O901 1.244 . S
C905 O904 1.265 . S
O906 Eu888 2.373 . S
O906 C919 1.258 . S
O907 Eu889 2.392 . S
O907 C919 1.242 . S
O908 Eu889 2.418 . S
O908 C890 1.244 . S
O909 Eu888 2.488 . S
O909 C897 1.249 . S
O910 Eu888 2.471 . S
O910 C897 1.244 . S
O911 Eu888 2.349 . S
O911 C890 1.265 . S
C912 C913 1.379 . S
C912 C916 1.373 . S
C912 C918 1.505 . S
C913 C912 1.379 . S
C913 C915 1.369 . S
C913 H924 0.930 . S
C914 C916 1.383 . S
C914 C917 1.382 . S
C914 H925 0.930 . S
C915 C913 1.369 . S
C915 C917 1.392 . S
C915 H926 0.930 . S
C916 C912 1.373 . S
C916 C914 1.383 . S
C916 H927 0.931 . S
C917 C914 1.382 . S
C917 C915 1.392 . S
C918 Eu889 2.828 . S
C918 O902 1.249 . S
C918 O903 1.244 . S
C918 C912 1.505 . S
C919 O906 1.258 . S
C919 O907 1.242 . S
H920 C892 0.930 . S
H921 C893 0.930 . S
H922 C894 0.930 . S
H923 C895 0.931 . S
H924 C913 0.930 . S
H925 C914 0.930 . S
H926 C915 0.930 . S
H927 C916 0.931 . S
Eu928 C937 2.828 . S
Eu928 O939 2.392 . S
Eu928 O941 2.418 . S
Eu928 O946 2.373 . S
Eu928 O949 2.488 . S
Eu928 O950 2.471 . S
Eu928 O951 2.349 . S
Eu929 O938 2.373 . S
Eu929 O942 2.488 . S
Eu929 O943 2.471 . S
Eu929 O944 2.349 . S
Eu929 O947 2.392 . S
Eu929 O948 2.418 . S
Eu929 C958 2.828 . S
C930 O948 1.244 . S
C930 O951 1.265 . S
C931 C932 1.379 . S
C931 C935 1.373 . S
C931 C937 1.505 . S
C932 C931 1.379 . S
C932 C934 1.369 . S
C932 H960 0.930 . S
C933 C935 1.383 . S
C933 C936 1.382 . S
C933 H961 0.930 . S
C934 C932 1.369 . S
C934 C936 1.392 . S
C934 H962 0.930 . S
C935 C931 1.373 . S
C935 C933 1.383 . S
C935 H963 0.931 . S
C936 C933 1.382 . S
C936 C934 1.392 . S
C937 Eu928 2.828 . S
C937 C931 1.505 . S
C937 O949 1.249 . S
C937 O950 1.244 . S
O938 Eu929 2.373 . S
O938 C940 1.258 . S
O939 Eu928 2.392 . S
O939 C940 1.242 . S
C940 O938 1.258 . S
C940 O939 1.242 . S
O941 Eu928 2.418 . S
O941 C945 1.244 . S
O942 Eu929 2.488 . S
O942 C958 1.249 . S
O943 Eu929 2.471 . S
O943 C958 1.244 . S
O944 Eu929 2.349 . S
O944 C945 1.265 . S
C945 O941 1.244 . S
C945 O944 1.265 . S
O946 Eu928 2.373 . S
O946 C959 1.258 . S
O947 Eu929 2.392 . S
O947 C959 1.242 . S
O948 Eu929 2.418 . S
O948 C930 1.244 . S
O949 Eu928 2.488 . S
O949 C937 1.249 . S
O950 Eu928 2.471 . S
O950 C937 1.244 . S
O951 Eu928 2.349 . S
O951 C930 1.265 . S
C952 C953 1.379 . S
C952 C956 1.373 . S
C952 C958 1.505 . S
C953 C952 1.379 . S
C953 C955 1.369 . S
C953 H964 0.930 . S
C954 C956 1.383 . S
C954 C957 1.382 . S
C954 H965 0.930 . S
C955 C953 1.369 . S
C955 C957 1.392 . S
C955 H966 0.930 . S
C956 C952 1.373 . S
C956 C954 1.383 . S
C956 H967 0.931 . S
C957 C954 1.382 . S
C957 C955 1.392 . S
C958 Eu929 2.828 . S
C958 O942 1.249 . S
C958 O943 1.244 . S
C958 C952 1.505 . S
C959 O946 1.258 . S
C959 O947 1.242 . S
H960 C932 0.930 . S
H961 C933 0.930 . S
H962 C934 0.930 . S
H963 C935 0.931 . S
H964 C953 0.930 . S
H965 C954 0.930 . S
H966 C955 0.930 . S
H967 C956 0.931 . S
Eu968 C977 2.828 . S
Eu968 O979 2.392 . S
Eu968 O981 2.418 . S
Eu968 O986 2.373 . S
Eu968 O989 2.488 . S
Eu968 O990 2.471 . S
Eu968 O991 2.349 . S
Eu969 O978 2.373 . S
Eu969 O982 2.488 . S
Eu969 O983 2.471 . S
Eu969 O984 2.349 . S
Eu969 O987 2.392 . S
Eu969 O988 2.418 . S
Eu969 C998 2.828 . S
C970 O988 1.244 . S
C970 O991 1.265 . S
C971 C972 1.379 . S
C971 C975 1.373 . S
C971 C977 1.505 . S
C972 C971 1.379 . S
C972 C974 1.369 . S
C972 H1000 0.930 . S
C973 C975 1.383 . S
C973 C976 1.382 . S
C973 H1001 0.930 . S
C974 C972 1.369 . S
C974 C976 1.392 . S
C974 H1002 0.930 . S
C975 C971 1.373 . S
C975 C973 1.383 . S
C975 H1003 0.931 . S
C976 C973 1.382 . S
C976 C974 1.392 . S
C977 Eu968 2.828 . S
C977 C971 1.505 . S
C977 O989 1.249 . S
C977 O990 1.244 . S
O978 Eu969 2.373 . S
O978 C980 1.258 . S
O979 Eu968 2.392 . S
O979 C980 1.242 . S
C980 O978 1.258 . S
C980 O979 1.242 . S
O981 Eu968 2.418 . S
O981 C985 1.244 . S
O982 Eu969 2.488 . S
O982 C998 1.249 . S
O983 Eu969 2.471 . S
O983 C998 1.244 . S
O984 Eu969 2.349 . S
O984 C985 1.265 . S
C985 O981 1.244 . S
C985 O984 1.265 . S
O986 Eu968 2.373 . S
O986 C999 1.258 . S
O987 Eu969 2.392 . S
O987 C999 1.242 . S
O988 Eu969 2.418 . S
O988 C970 1.244 . S
O989 Eu968 2.488 . S
O989 C977 1.249 . S
O990 Eu968 2.471 . S
O990 C977 1.244 . S
O991 Eu968 2.349 . S
O991 C970 1.265 . S
C992 C993 1.379 . S
C992 C996 1.373 . S
C992 C998 1.505 . S
C993 C992 1.379 . S
C993 C995 1.369 . S
C993 H1004 0.930 . S
C994 C996 1.383 . S
C994 C997 1.382 . S
C994 H1005 0.930 . S
C995 C993 1.369 . S
C995 C997 1.392 . S
C995 H1006 0.930 . S
C996 C992 1.373 . S
C996 C994 1.383 . S
C996 H1007 0.931 . S
C997 C994 1.382 . S
C997 C995 1.392 . S
C998 Eu969 2.828 . S
C998 O982 1.249 . S
C998 O983 1.244 . S
C998 C992 1.505 . S
C999 O986 1.258 . S
C999 O987 1.242 . S
H1000 C972 0.930 . S
H1001 C973 0.930 . S
H1002 C974 0.930 . S
H1003 C975 0.931 . S
H1004 C993 0.930 . S
H1005 C994 0.930 . S
H1006 C995 0.930 . S
H1007 C996 0.931 . S
H1008 C1016 0.950 . S
H1009 C1021 0.950 . S
H1010 C1018 0.950 . S
H1011 C1020 0.950 . S
H1012 C1022 0.950 . S
H1013 C1024 0.950 . S
H1014 C1026 0.950 . S
H1015 C1027 0.950 . S
C1016 H1008 0.950 . S
C1016 C1017 1.386 . S
C1016 C1018 1.391 . S
C1017 C1016 1.386 . S
C1017 C1021 1.393 . S
C1018 H1010 0.950 . S
C1018 C1016 1.391 . S
C1018 C1019 1.400 . S
C1019 C1018 1.400 . S
C1019 C1020 1.398 . S
C1019 C1025 1.491 . S
C1020 H1011 0.950 . S
C1020 C1019 1.398 . S
C1020 C1021 1.391 . S
C1021 H1009 0.950 . S
C1021 C1017 1.393 . S
C1021 C1020 1.391 . S
C1022 H1012 0.950 . S
C1022 C1023 1.386 . S
C1022 C1024 1.391 . S
C1023 C1022 1.386 . S
C1023 C1027 1.393 . S
C1024 H1013 0.950 . S
C1024 C1022 1.391 . S
C1024 C1025 1.400 . S
C1025 C1019 1.491 . S
C1025 C1024 1.400 . S
C1025 C1026 1.398 . S
C1026 H1014 0.950 . S
C1026 C1025 1.398 . S
C1026 C1027 1.391 . S
C1027 H1015 0.950 . S
C1027 C1023 1.393 . S
C1027 C1026 1.391 . S
H1028 C1036 0.950 . S
H1029 C1041 0.950 . S
H1030 C1038 0.950 . S
H1031 C1040 0.950 . S
H1032 C1042 0.950 . S
H1033 C1044 0.950 . S
H1034 C1046 0.950 . S
H1035 C1047 0.950 . S
C1036 H1028 0.950 . S
C1036 C1037 1.386 . S
C1036 C1038 1.391 . S
C1037 C1036 1.386 . S
C1037 C1041 1.393 . S
C1038 H1030 0.950 . S
C1038 C1036 1.391 . S
C1038 C1039 1.400 . S
C1039 C1038 1.400 . S
C1039 C1040 1.398 . S
C1039 C1045 1.491 . S
C1040 H1031 0.950 . S
C1040 C1039 1.398 . S
C1040 C1041 1.391 . S
C1041 H1029 0.950 . S
C1041 C1037 1.393 . S
C1041 C1040 1.391 . S
C1042 H1032 0.950 . S
C1042 C1043 1.386 . S
C1042 C1044 1.391 . S
C1043 C1042 1.386 . S
C1043 C1047 1.393 . S
C1044 H1033 0.950 . S
C1044 C1042 1.391 . S
C1044 C1045 1.400 . S
C1045 C1039 1.491 . S
C1045 C1044 1.400 . S
C1045 C1046 1.398 . S
C1046 H1034 0.950 . S
C1046 C1045 1.398 . S
C1046 C1047 1.391 . S
C1047 H1035 0.950 . S
C1047 C1043 1.393 . S
C1047 C1046 1.391 . S
H1048 C1056 0.950 . S
H1049 C1061 0.950 . S
H1050 C1058 0.950 . S
H1051 C1060 0.950 . S
H1052 C1062 0.950 . S
H1053 C1064 0.950 . S
H1054 C1066 0.950 . S
H1055 C1067 0.950 . S
C1056 H1048 0.950 . S
C1056 C1057 1.386 . S
C1056 C1058 1.391 . S
C1057 C1056 1.386 . S
C1057 C1061 1.393 . S
C1058 H1050 0.950 . S
C1058 C1056 1.391 . S
C1058 C1059 1.400 . S
C1059 C1058 1.400 . S
C1059 C1060 1.398 . S
C1059 C1065 1.491 . S
C1060 H1051 0.950 . S
C1060 C1059 1.398 . S
C1060 C1061 1.391 . S
C1061 H1049 0.950 . S
C1061 C1057 1.393 . S
C1061 C1060 1.391 . S
C1062 H1052 0.950 . S
C1062 C1063 1.386 . S
C1062 C1064 1.391 . S
C1063 C1062 1.386 . S
C1063 C1067 1.393 . S
C1064 H1053 0.950 . S
C1064 C1062 1.391 . S
C1064 C1065 1.400 . S
C1065 C1059 1.491 . S
C1065 C1064 1.400 . S
C1065 C1066 1.398 . S
C1066 H1054 0.950 . S
C1066 C1065 1.398 . S
C1066 C1067 1.391 . S
C1067 H1055 0.950 . S
C1067 C1063 1.393 . S
C1067 C1066 1.391 . S
H1068 C1076 0.950 . S
H1069 C1081 0.950 . S
H1070 C1078 0.950 . S
H1071 C1080 0.950 . S
H1072 C1082 0.950 . S
H1073 C1084 0.950 . S
H1074 C1086 0.950 . S
H1075 C1087 0.950 . S
C1076 H1068 0.950 . S
C1076 C1077 1.386 . S
C1076 C1078 1.391 . S
C1077 C1076 1.386 . S
C1077 C1081 1.393 . S
C1078 H1070 0.950 . S
C1078 C1076 1.391 . S
C1078 C1079 1.400 . S
C1079 C1078 1.400 . S
C1079 C1080 1.398 . S
C1079 C1085 1.491 . S
C1080 H1071 0.950 . S
C1080 C1079 1.398 . S
C1080 C1081 1.391 . S
C1081 H1069 0.950 . S
C1081 C1077 1.393 . S
C1081 C1080 1.391 . S
C1082 H1072 0.950 . S
C1082 C1083 1.386 . S
C1082 C1084 1.391 . S
C1083 C1082 1.386 . S
C1083 C1087 1.393 . S
C1084 H1073 0.950 . S
C1084 C1082 1.391 . S
C1084 C1085 1.400 . S
C1085 C1079 1.491 . S
C1085 C1084 1.400 . S
C1085 C1086 1.398 . S
C1086 H1074 0.950 . S
C1086 C1085 1.398 . S
C1086 C1087 1.391 . S
C1087 H1075 0.950 . S
C1087 C1083 1.393 . S
C1087 C1086 1.391 . S
H1088 C1096 0.950 . S
H1089 C1101 0.950 . S
H1090 C1098 0.950 . S
H1091 C1100 0.950 . S
H1092 C1102 0.950 . S
H1093 C1104 0.950 . S
H1094 C1106 0.950 . S
H1095 C1107 0.950 . S
C1096 H1088 0.950 . S
C1096 C1097 1.386 . S
C1096 C1098 1.391 . S
C1097 C1096 1.386 . S
C1097 C1101 1.393 . S
C1098 H1090 0.950 . S
C1098 C1096 1.391 . S
C1098 C1099 1.400 . S
C1099 C1098 1.400 . S
C1099 C1100 1.398 . S
C1099 C1105 1.491 . S
C1100 H1091 0.950 . S
C1100 C1099 1.398 . S
C1100 C1101 1.391 . S
C1101 H1089 0.950 . S
C1101 C1097 1.393 . S
C1101 C1100 1.391 . S
C1102 H1092 0.950 . S
C1102 C1103 1.386 . S
C1102 C1104 1.391 . S
C1103 C1102 1.386 . S
C1103 C1107 1.393 . S
C1104 H1093 0.950 . S
C1104 C1102 1.391 . S
C1104 C1105 1.400 . S
C1105 C1099 1.491 . S
C1105 C1104 1.400 . S
C1105 C1106 1.398 . S
C1106 H1094 0.950 . S
C1106 C1105 1.398 . S
C1106 C1107 1.391 . S
C1107 H1095 0.950 . S
C1107 C1103 1.393 . S
C1107 C1106 1.391 . S
H1108 C1116 0.950 . S
H1109 C1121 0.950 . S
H1110 C1118 0.950 . S
H1111 C1120 0.950 . S
H1112 C1122 0.950 . S
H1113 C1124 0.950 . S
H1114 C1126 0.950 . S
H1115 C1127 0.950 . S
C1116 H1108 0.950 . S
C1116 C1117 1.386 . S
C1116 C1118 1.391 . S
C1117 C1116 1.386 . S
C1117 C1121 1.393 . S
C1118 H1110 0.950 . S
C1118 C1116 1.391 . S
C1118 C1119 1.400 . S
C1119 C1118 1.400 . S
C1119 C1120 1.398 . S
C1119 C1125 1.491 . S
C1120 H1111 0.950 . S
C1120 C1119 1.398 . S
C1120 C1121 1.391 . S
C1121 H1109 0.950 . S
C1121 C1117 1.393 . S
C1121 C1120 1.391 . S
C1122 H1112 0.950 . S
C1122 C1123 1.386 . S
C1122 C1124 1.391 . S
C1123 C1122 1.386 . S
C1123 C1127 1.393 . S
C1124 H1113 0.950 . S
C1124 C1122 1.391 . S
C1124 C1125 1.400 . S
C1125 C1119 1.491 . S
C1125 C1124 1.400 . S
C1125 C1126 1.398 . S
C1126 H1114 0.950 . S
C1126 C1125 1.398 . S
C1126 C1127 1.391 . S
C1127 H1115 0.950 . S
C1127 C1123 1.393 . S
C1127 C1126 1.391 . S
H1128 C1136 0.950 . S
H1129 C1141 0.950 . S
H1130 C1138 0.950 . S
H1131 C1140 0.950 . S
H1132 C1142 0.976 . S
H1133 C1144 0.950 . S
H1134 C1146 0.950 . S
H1135 C1147 0.950 . S
C1136 H1128 0.950 . S
C1136 C1137 1.386 . S
C1136 C1138 1.391 . S
C1137 C1136 1.386 . S
C1137 C1141 1.393 . S
C1138 H1130 0.950 . S
C1138 C1136 1.391 . S
C1138 C1139 1.400 . S
C1139 C1138 1.400 . S
C1139 C1140 1.398 . S
C1139 C1145 1.491 . S
C1140 H1131 0.950 . S
C1140 C1139 1.398 . S
C1140 C1141 1.391 . S
C1141 H1129 0.950 . S
C1141 C1137 1.393 . S
C1141 C1140 1.391 . S
C1142 H1132 0.976 . S
C1142 C1143 1.386 . S
C1142 C1144 1.391 . S
C1143 C1142 1.386 . S
C1143 C1147 1.393 . S
C1144 H1133 0.950 . S
C1144 C1142 1.391 . S
C1144 C1145 1.400 . S
C1145 C1139 1.491 . S
C1145 C1144 1.400 . S
C1145 C1146 1.398 . S
C1146 H1134 0.950 . S
C1146 C1145 1.398 . S
C1146 C1147 1.391 . S
C1147 H1135 0.950 . S
C1147 C1143 1.393 . S
C1147 C1146 1.391 . S
H1148 C1156 0.950 . S
H1149 C1161 0.950 . S
H1150 C1158 0.950 . S
H1151 C1160 0.950 . S
H1152 C1162 0.950 . S
H1153 C1164 0.950 . S
H1154 C1166 0.950 . S
H1155 C1167 0.950 . S
C1156 H1148 0.950 . S
C1156 C1157 1.386 . S
C1156 C1158 1.391 . S
C1157 C1156 1.386 . S
C1157 C1161 1.393 . S
C1158 H1150 0.950 . S
C1158 C1156 1.391 . S
C1158 C1159 1.400 . S
C1159 C1158 1.400 . S
C1159 C1160 1.398 . S
C1159 C1165 1.491 . S
C1160 H1151 0.950 . S
C1160 C1159 1.398 . S
C1160 C1161 1.391 . S
C1161 H1149 0.950 . S
C1161 C1157 1.393 . S
C1161 C1160 1.391 . S
C1162 H1152 0.950 . S
C1162 C1163 1.386 . S
C1162 C1164 1.391 . S
C1163 C1162 1.386 . S
C1163 C1167 1.393 . S
C1164 H1153 0.950 . S
C1164 C1162 1.391 . S
C1164 C1165 1.400 . S
C1165 C1159 1.491 . S
C1165 C1164 1.400 . S
C1165 C1166 1.398 . S
C1166 H1154 0.950 . S
C1166 C1165 1.398 . S
C1166 C1167 1.391 . S
C1167 H1155 0.950 . S
C1167 C1163 1.393 . S
C1167 C1166 1.391 . S
H1168 C1176 0.950 . S
H1169 C1181 0.950 . S
H1170 C1178 0.950 . S
H1171 C1180 0.950 . S
H1172 C1182 0.950 . S
H1173 C1184 0.950 . S
H1174 C1186 0.950 . S
H1175 C1187 0.950 . S
C1176 H1168 0.950 . S
C1176 C1177 1.386 . S
C1176 C1178 1.391 . S
C1177 C1176 1.386 . S
C1177 C1181 1.393 . S
C1178 H1170 0.950 . S
C1178 C1176 1.391 . S
C1178 C1179 1.400 . S
C1179 C1178 1.400 . S
C1179 C1180 1.398 . S
C1179 C1185 1.491 . S
C1180 H1171 0.950 . S
C1180 C1179 1.398 . S
C1180 C1181 1.391 . S
C1181 H1169 0.950 . S
C1181 C1177 1.393 . S
C1181 C1180 1.391 . S
C1182 H1172 0.950 . S
C1182 C1183 1.386 . S
C1182 C1184 1.391 . S
C1183 C1182 1.386 . S
C1183 C1187 1.393 . S
C1184 H1173 0.950 . S
C1184 C1182 1.391 . S
C1184 C1185 1.400 . S
C1185 C1179 1.491 . S
C1185 C1184 1.400 . S
C1185 C1186 1.398 . S
C1186 H1174 0.950 . S
C1186 C1185 1.398 . S
C1186 C1187 1.391 . S
C1187 H1175 0.950 . S
C1187 C1183 1.393 . S
C1187 C1186 1.391 . S
H1188 C1196 0.950 . S
H1189 C1201 0.950 . S
H1190 C1198 0.950 . S
H1191 C1200 0.950 . S
H1192 C1202 0.950 . S
H1193 C1204 0.950 . S
H1194 C1206 0.950 . S
H1195 C1207 0.950 . S
C1196 H1188 0.950 . S
C1196 C1197 1.386 . S
C1196 C1198 1.391 . S
C1197 C1196 1.386 . S
C1197 C1201 1.393 . S
C1198 H1190 0.950 . S
C1198 C1196 1.391 . S
C1198 C1199 1.400 . S
C1199 C1198 1.400 . S
C1199 C1200 1.398 . S
C1199 C1205 1.491 . S
C1200 H1191 0.950 . S
C1200 C1199 1.398 . S
C1200 C1201 1.391 . S
C1201 H1189 0.950 . S
C1201 C1197 1.393 . S
C1201 C1200 1.391 . S
C1202 H1192 0.950 . S
C1202 C1203 1.386 . S
C1202 C1204 1.391 . S
C1203 C1202 1.386 . S
C1203 C1207 1.393 . S
C1204 H1193 0.950 . S
C1204 C1202 1.391 . S
C1204 C1205 1.400 . S
C1205 C1199 1.491 . S
C1205 C1204 1.400 . S
C1205 C1206 1.398 . S
C1206 H1194 0.950 . S
C1206 C1205 1.398 . S
C1206 C1207 1.391 . S
C1207 H1195 0.950 . S
C1207 C1203 1.393 . S
C1207 C1206 1.391 . S
H1208 C1216 0.950 . S
H1209 C1221 0.950 . S
H1210 C1218 0.950 . S
H1211 C1220 0.950 . S
H1212 C1222 0.950 . S
H1213 C1224 0.950 . S
H1214 C1226 0.950 . S
H1215 C1227 0.950 . S
C1216 H1208 0.950 . S
C1216 C1217 1.386 . S
C1216 C1218 1.391 . S
C1217 C1216 1.386 . S
C1217 C1221 1.393 . S
C1218 H1210 0.950 . S
C1218 C1216 1.391 . S
C1218 C1219 1.400 . S
C1219 C1218 1.400 . S
C1219 C1220 1.398 . S
C1219 C1225 1.491 . S
C1220 H1211 0.950 . S
C1220 C1219 1.398 . S
C1220 C1221 1.391 . S
C1221 H1209 0.950 . S
C1221 C1217 1.393 . S
C1221 C1220 1.391 . S
C1222 H1212 0.950 . S
C1222 C1223 1.386 . S
C1222 C1224 1.391 . S
C1223 C1222 1.386 . S
C1223 C1227 1.393 . S
C1224 H1213 0.950 . S
C1224 C1222 1.391 . S
C1224 C1225 1.400 . S
C1225 C1219 1.491 . S
C1225 C1224 1.400 . S
C1225 C1226 1.398 . S
C1226 H1214 0.950 . S
C1226 C1225 1.398 . S
C1226 C1227 1.391 . S
C1227 H1215 0.950 . S
C1227 C1223 1.393 . S
C1227 C1226 1.391 . S
H1228 C1236 0.950 . S
H1229 C1241 0.950 . S
H1230 C1238 0.950 . S
H1231 C1240 0.950 . S
H1232 C1242 0.950 . S
H1233 C1244 0.950 . S
H1234 C1246 0.981 . S
H1235 C1247 0.950 1_556 S
C1236 H1228 0.950 . S
C1236 C1237 1.386 . S
C1236 C1238 1.391 . S
C1237 C1236 1.386 . S
C1237 C1241 1.393 . S
C1238 H1230 0.950 . S
C1238 C1236 1.391 . S
C1238 C1239 1.400 . S
C1239 C1238 1.400 . S
C1239 C1240 1.398 . S
C1239 C1245 1.491 . S
C1240 H1231 0.950 . S
C1240 C1239 1.398 . S
C1240 C1241 1.391 . S
C1241 H1229 0.950 . S
C1241 C1237 1.393 . S
C1241 C1240 1.391 . S
C1242 H1232 0.950 . S
C1242 C1243 1.386 . S
C1242 C1244 1.391 . S
C1243 C1242 1.386 . S
C1243 C1247 1.393 . S
C1244 H1233 0.950 . S
C1244 C1242 1.391 . S
C1244 C1245 1.400 . S
C1245 C1239 1.491 . S
C1245 C1244 1.400 . S
C1245 C1246 1.398 . S
C1246 H1234 0.981 . S
C1246 C1245 1.398 . S
C1246 C1247 1.391 . S
C1247 H1235 0.950 1_554 S
C1247 C1243 1.393 . S
C1247 C1246 1.391 . S
H1248 C1256 0.950 . S
H1249 C1261 0.950 . S
H1250 C1258 0.950 . S
H1251 C1260 0.950 . S
H1252 C1262 0.950 . S
H1253 C1264 0.950 . S
H1254 C1266 0.950 . S
H1255 C1267 0.950 . S
C1256 H1248 0.950 . S
C1256 C1257 1.386 . S
C1256 C1258 1.391 1_655 S
C1257 C1256 1.386 . S
C1257 C1261 1.393 . S
C1258 H1250 0.950 . S
C1258 C1256 1.391 1_455 S
C1258 C1259 1.400 . S
C1259 C1258 1.400 . S
C1259 C1260 1.398 . S
C1259 C1265 1.491 . S
C1260 H1251 0.950 . S
C1260 C1259 1.398 . S
C1260 C1261 1.391 1_455 S
C1261 H1249 0.950 . S
C1261 C1257 1.393 . S
C1261 C1260 1.391 1_655 S
C1262 H1252 0.950 . S
C1262 C1263 1.386 . S
C1262 C1264 1.391 . S
C1263 C1262 1.386 . S
C1263 C1267 1.393 . S
C1264 H1253 0.950 . S
C1264 C1262 1.391 . S
C1264 C1265 1.400 . S
C1265 C1259 1.491 . S
C1265 C1264 1.400 . S
C1265 C1266 1.398 . S
C1266 H1254 0.950 . S
C1266 C1265 1.398 . S
C1266 C1267 1.391 . S
C1267 H1255 0.950 . S
C1267 C1263 1.393 . S
C1267 C1266 1.391 . S
H1268 C1276 0.950 . S
H1269 C1281 0.950 . S
H1270 C1278 0.950 . S
H1271 C1280 0.950 . S
H1272 C1282 0.950 . S
H1273 C1284 0.950 . S
H1274 C1286 0.950 . S
H1275 C1287 0.950 . S
C1276 H1268 0.950 . S
C1276 C1277 1.386 . S
C1276 C1278 1.391 . S
C1277 C1276 1.386 . S
C1277 C1281 1.393 . S
C1278 H1270 0.950 . S
C1278 C1276 1.391 . S
C1278 C1279 1.400 . S
C1279 C1278 1.400 . S
C1279 C1280 1.398 . S
C1279 C1285 1.491 . S
C1280 H1271 0.950 . S
C1280 C1279 1.398 . S
C1280 C1281 1.391 . S
C1281 H1269 0.950 . S
C1281 C1277 1.393 . S
C1281 C1280 1.391 . S
C1282 H1272 0.950 . S
C1282 C1283 1.386 . S
C1282 C1284 1.391 . S
C1283 C1282 1.386 . S
C1283 C1287 1.393 . S
C1284 H1273 0.950 . S
C1284 C1282 1.391 . S
C1284 C1285 1.400 . S
C1285 C1279 1.491 . S
C1285 C1284 1.400 . S
C1285 C1286 1.398 . S
C1286 H1274 0.950 . S
C1286 C1285 1.398 . S
C1286 C1287 1.391 . S
C1287 H1275 0.950 . S
C1287 C1283 1.393 . S
C1287 C1286 1.391 . S
H1288 C1296 0.950 . S
H1289 C1301 0.950 . S
H1290 C1298 0.950 1_565 S
H1291 C1300 0.950 1_565 S
H1292 C1302 0.950 . S
H1293 C1304 0.950 . S
H1294 C1306 0.950 . S
H1295 C1307 0.950 . S
C1296 H1288 0.950 . S
C1296 C1297 1.386 . S
C1296 C1298 1.391 . S
C1297 C1296 1.386 . S
C1297 C1301 1.393 . S
C1298 H1290 0.950 1_545 S
C1298 C1296 1.391 . S
C1298 C1299 1.400 1_545 S
C1299 C1298 1.400 1_565 S
C1299 C1300 1.398 1_565 S
C1299 C1305 1.491 . S
C1300 H1291 0.950 1_545 S
C1300 C1299 1.398 1_545 S
C1300 C1301 1.391 . S
C1301 H1289 0.950 . S
C1301 C1297 1.393 . S
C1301 C1300 1.391 . S
C1302 H1292 0.950 . S
C1302 C1303 1.386 . S
C1302 C1304 1.391 . S
C1303 C1302 1.386 . S
C1303 C1307 1.393 . S
C1304 H1293 0.950 . S
C1304 C1302 1.391 . S
C1304 C1305 1.400 . S
C1305 C1299 1.491 . S
C1305 C1304 1.400 . S
C1305 C1306 1.398 . S
C1306 H1294 0.950 . S
C1306 C1305 1.398 . S
C1306 C1307 1.391 . S
C1307 H1295 0.950 . S
C1307 C1303 1.393 . S
C1307 C1306 1.391 . S
H1308 C1316 0.950 . S
H1309 C1321 0.950 . S
H1310 C1318 0.950 . S
H1311 C1320 0.950 . S
H1312 C1322 0.950 . S
H1313 C1324 0.950 . S
H1314 C1326 0.950 . S
H1315 C1327 0.950 . S
C1316 H1308 0.950 . S
C1316 C1317 1.386 . S
C1316 C1318 1.391 . S
C1317 C1316 1.386 . S
C1317 C1321 1.393 . S
C1318 H1310 0.950 . S
C1318 C1316 1.391 . S
C1318 C1319 1.400 . S
C1319 C1318 1.400 . S
C1319 C1320 1.398 . S
C1319 C1325 1.491 . S
C1320 H1311 0.950 . S
C1320 C1319 1.398 . S
C1320 C1321 1.391 . S
C1321 H1309 0.950 . S
C1321 C1317 1.393 . S
C1321 C1320 1.391 . S
C1322 H1312 0.950 . S
C1322 C1323 1.386 . S
C1322 C1324 1.391 . S
C1323 C1322 1.386 . S
C1323 C1327 1.393 . S
C1324 H1313 0.950 . S
C1324 C1322 1.391 . S
C1324 C1325 1.400 . S
C1325 C1319 1.491 . S
C1325 C1324 1.400 . S
C1325 C1326 1.398 . S
C1326 H1314 0.950 . S
C1326 C1325 1.398 . S
C1326 C1327 1.391 . S
C1327 H1315 0.950 . S
C1327 C1323 1.393 . S
C1327 C1326 1.391 . S
H1328 C1336 0.950 . S
H1329 C1341 0.950 . S
H1330 C1338 0.950 . S
H1331 C1340 0.950 . S
H1332 C1342 0.950 . S
H1333 C1344 0.950 . S
H1334 C1346 0.950 . S
H1335 C1347 0.950 . S
C1336 H1328 0.950 . S
C1336 C1337 1.386 . S
C1336 C1338 1.391 . S
C1337 C1336 1.386 . S
C1337 C1341 1.393 . S
C1338 H1330 0.950 . S
C1338 C1336 1.391 . S
C1338 C1339 1.400 . S
C1339 C1338 1.400 . S
C1339 C1340 1.398 . S
C1339 C1345 1.491 . S
C1340 H1331 0.950 . S
C1340 C1339 1.398 . S
C1340 C1341 1.391 . S
C1341 H1329 0.950 . S
C1341 C1337 1.393 . S
C1341 C1340 1.391 . S
C1342 H1332 0.950 . S
C1342 C1343 1.386 . S
C1342 C1344 1.391 . S
C1343 C1342 1.386 . S
C1343 C1347 1.393 . S
C1344 H1333 0.950 . S
C1344 C1342 1.391 . S
C1344 C1345 1.400 . S
C1345 C1339 1.491 . S
C1345 C1344 1.400 . S
C1345 C1346 1.398 . S
C1346 H1334 0.950 . S
C1346 C1345 1.398 . S
C1346 C1347 1.391 . S
C1347 H1335 0.950 . S
C1347 C1343 1.393 . S
C1347 C1346 1.391 . S
H1348 C1356 0.950 . S
H1349 C1361 0.950 . S
H1350 C1358 0.950 . S
H1351 C1360 0.950 . S
H1352 C1362 0.950 . S
H1353 C1364 0.950 . S
H1354 C1366 0.950 . S
H1355 C1367 0.950 . S
C1356 H1348 0.950 . S
C1356 C1357 1.386 . S
C1356 C1358 1.391 . S
C1357 C1356 1.386 . S
C1357 C1361 1.393 . S
C1358 H1350 0.950 . S
C1358 C1356 1.391 . S
C1358 C1359 1.400 . S
C1359 C1358 1.400 . S
C1359 C1360 1.398 . S
C1359 C1365 1.491 . S
C1360 H1351 0.950 . S
C1360 C1359 1.398 . S
C1360 C1361 1.391 . S
C1361 H1349 0.950 . S
C1361 C1357 1.393 . S
C1361 C1360 1.391 . S
C1362 H1352 0.950 . S
C1362 C1363 1.386 . S
C1362 C1364 1.391 . S
C1363 C1362 1.386 . S
C1363 C1367 1.393 . S
C1364 H1353 0.950 . S
C1364 C1362 1.391 . S
C1364 C1365 1.400 . S
C1365 C1359 1.491 . S
C1365 C1364 1.400 . S
C1365 C1366 1.398 . S
C1366 H1354 0.950 . S
C1366 C1365 1.398 . S
C1366 C1367 1.391 . S
C1367 H1355 0.950 . S
C1367 C1363 1.393 . S
C1367 C1366 1.391 . S
H1368 C1376 0.950 . S
H1369 C1381 0.950 . S
H1370 C1378 0.950 . S
H1371 C1380 0.950 . S
H1372 C1382 0.950 . S
H1373 C1384 0.950 . S
H1374 C1386 0.950 . S
H1375 C1387 0.950 . S
C1376 H1368 0.950 . S
C1376 C1377 1.386 . S
C1376 C1378 1.391 . S
C1377 C1376 1.386 . S
C1377 C1381 1.393 . S
C1378 H1370 0.950 . S
C1378 C1376 1.391 . S
C1378 C1379 1.400 . S
C1379 C1378 1.400 . S
C1379 C1380 1.398 . S
C1379 C1385 1.491 . S
C1380 H1371 0.950 . S
C1380 C1379 1.398 . S
C1380 C1381 1.391 . S
C1381 H1369 0.950 . S
C1381 C1377 1.393 . S
C1381 C1380 1.391 . S
C1382 H1372 0.950 . S
C1382 C1383 1.386 . S
C1382 C1384 1.391 . S
C1383 C1382 1.386 . S
C1383 C1387 1.393 . S
C1384 H1373 0.950 . S
C1384 C1382 1.391 . S
C1384 C1385 1.400 . S
C1385 C1379 1.491 . S
C1385 C1384 1.400 . S
C1385 C1386 1.398 . S
C1386 H1374 0.950 . S
C1386 C1385 1.398 . S
C1386 C1387 1.391 . S
C1387 H1375 0.950 . S
C1387 C1383 1.393 . S
C1387 C1386 1.391 . S
H1388 C1396 0.950 . S
H1389 C1401 0.950 . S
H1390 C1398 0.950 . S
H1391 C1400 0.950 . S
H1392 C1402 0.950 . S
H1393 C1404 0.950 . S
H1394 C1406 0.950 . S
H1395 C1407 0.950 . S
C1396 H1388 0.950 . S
C1396 C1397 1.386 . S
C1396 C1398 1.391 . S
C1397 C1396 1.386 . S
C1397 C1401 1.393 . S
C1398 H1390 0.950 . S
C1398 C1396 1.391 . S
C1398 C1399 1.400 . S
C1399 C1398 1.400 . S
C1399 C1400 1.398 . S
C1399 C1405 1.491 . S
C1400 H1391 0.950 . S
C1400 C1399 1.398 . S
C1400 C1401 1.391 . S
C1401 H1389 0.950 . S
C1401 C1397 1.393 . S
C1401 C1400 1.391 . S
C1402 H1392 0.950 . S
C1402 C1403 1.386 . S
C1402 C1404 1.391 . S
C1403 C1402 1.386 . S
C1403 C1407 1.393 . S
C1404 H1393 0.950 . S
C1404 C1402 1.391 . S
C1404 C1405 1.400 . S
C1405 C1399 1.491 . S
C1405 C1404 1.400 . S
C1405 C1406 1.398 . S
C1406 H1394 0.950 . S
C1406 C1405 1.398 . S
C1406 C1407 1.391 . S
C1407 H1395 0.950 . S
C1407 C1403 1.393 . S
C1407 C1406 1.391 . S
H1408 C1416 0.950 . S
H1409 C1421 0.950 . S
H1410 C1418 0.950 . S
H1411 C1420 0.950 . S
H1412 C1422 0.950 . S
H1413 C1424 0.950 . S
H1414 C1426 0.950 . S
H1415 C1427 0.950 . S
C1416 H1408 0.950 . S
C1416 C1417 1.386 . S
C1416 C1418 1.391 . S
C1417 C1416 1.386 . S
C1417 C1421 1.393 . S
C1418 H1410 0.950 . S
C1418 C1416 1.391 . S
C1418 C1419 1.400 . S
C1419 C1418 1.400 . S
C1419 C1420 1.398 . S
C1419 C1425 1.491 . S
C1420 H1411 0.950 . S
C1420 C1419 1.398 . S
C1420 C1421 1.391 . S
C1421 H1409 0.950 . S
C1421 C1417 1.393 . S
C1421 C1420 1.391 . S
C1422 H1412 0.950 . S
C1422 C1423 1.386 . S
C1422 C1424 1.391 . S
C1423 C1422 1.386 . S
C1423 C1427 1.393 . S
C1424 H1413 0.950 . S
C1424 C1422 1.391 . S
C1424 C1425 1.400 . S
C1425 C1419 1.491 . S
C1425 C1424 1.400 . S
C1425 C1426 1.398 . S
C1426 H1414 0.950 . S
C1426 C1425 1.398 . S
C1426 C1427 1.391 . S
C1427 H1415 0.950 . S
C1427 C1423 1.393 . S
C1427 C1426 1.391 . S
H1428 C1436 0.950 . S
H1429 C1441 0.950 . S
H1430 C1438 0.950 1_565 S
H1431 C1440 0.950 . S
H1432 C1442 0.950 . S
H1433 C1444 0.950 . S
H1434 C1446 0.950 . S
H1435 C1447 0.950 . S
C1436 H1428 0.950 . S
C1436 C1437 1.386 . S
C1436 C1438 1.391 . S
C1437 C1436 1.386 . S
C1437 C1441 1.393 . S
C1438 H1430 0.950 1_545 S
C1438 C1436 1.391 . S
C1438 C1439 1.400 1_545 S
C1439 C1438 1.400 1_565 S
C1439 C1440 1.398 . S
C1439 C1445 1.491 . S
C1440 H1431 0.950 . S
C1440 C1439 1.398 . S
C1440 C1441 1.391 1_565 S
C1441 H1429 0.950 . S
C1441 C1437 1.393 . S
C1441 C1440 1.391 1_545 S
C1442 H1432 0.950 . S
C1442 C1443 1.386 . S
C1442 C1444 1.391 . S
C1443 C1442 1.386 . S
C1443 C1447 1.393 . S
C1444 H1433 0.950 . S
C1444 C1442 1.391 . S
C1444 C1445 1.400 . S
C1445 C1439 1.491 . S
C1445 C1444 1.400 . S
C1445 C1446 1.398 . S
C1446 H1434 0.950 . S
C1446 C1445 1.398 . S
C1446 C1447 1.391 . S
C1447 H1435 0.950 . S
C1447 C1443 1.393 . S
C1447 C1446 1.391 . S
H1448 C1456 0.950 . S
H1449 C1461 0.950 . S
H1450 C1458 0.950 . S
H1451 C1460 0.950 . S
H1452 C1462 0.950 . S
H1453 C1464 0.950 . S
H1454 C1466 0.950 . S
H1455 C1467 0.950 . S
C1456 H1448 0.950 . S
C1456 C1457 1.386 . S
C1456 C1458 1.391 1_655 S
C1457 C1456 1.386 . S
C1457 C1461 1.393 1_655 S
C1458 H1450 0.950 . S
C1458 C1456 1.391 1_455 S
C1458 C1459 1.400 . S
C1459 C1458 1.400 . S
C1459 C1460 1.398 . S
C1459 C1465 1.491 . S
C1460 H1451 0.950 . S
C1460 C1459 1.398 . S
C1460 C1461 1.391 . S
C1461 H1449 0.950 . S
C1461 C1457 1.393 1_455 S
C1461 C1460 1.391 . S
C1462 H1452 0.950 . S
C1462 C1463 1.386 . S
C1462 C1464 1.391 . S
C1463 C1462 1.386 . S
C1463 C1467 1.393 . S
C1464 H1453 0.950 . S
C1464 C1462 1.391 . S
C1464 C1465 1.400 . S
C1465 C1459 1.491 . S
C1465 C1464 1.400 . S
C1465 C1466 1.398 . S
C1466 H1454 0.950 . S
C1466 C1465 1.398 . S
C1466 C1467 1.391 . S
C1467 H1455 0.950 . S
C1467 C1463 1.393 . S
C1467 C1466 1.391 . S
H1468 C1476 0.950 . S
H1469 C1481 0.950 . S
H1470 C1478 0.950 . S
H1471 C1480 0.950 . S
H1472 C1482 0.950 . S
H1473 C1484 0.950 . S
H1474 C1486 0.950 . S
H1475 C1487 0.950 . S
C1476 H1468 0.950 . S
C1476 C1477 1.386 . S
C1476 C1478 1.391 . S
C1477 C1476 1.386 . S
C1477 C1481 1.393 . S
C1478 H1470 0.950 . S
C1478 C1476 1.391 . S
C1478 C1479 1.400 . S
C1479 C1478 1.400 . S
C1479 C1480 1.398 . S
C1479 C1485 1.491 . S
C1480 H1471 0.950 . S
C1480 C1479 1.398 . S
C1480 C1481 1.391 . S
C1481 H1469 0.950 . S
C1481 C1477 1.393 . S
C1481 C1480 1.391 . S
C1482 H1472 0.950 . S
C1482 C1483 1.386 . S
C1482 C1484 1.391 . S
C1483 C1482 1.386 . S
C1483 C1487 1.393 . S
C1484 H1473 0.950 . S
C1484 C1482 1.391 . S
C1484 C1485 1.400 . S
C1485 C1479 1.491 . S
C1485 C1484 1.400 . S
C1485 C1486 1.398 . S
C1486 H1474 0.950 . S
C1486 C1485 1.398 . S
C1486 C1487 1.391 . S
C1487 H1475 0.950 . S
C1487 C1483 1.393 . S
C1487 C1486 1.391 . S
H1488 C1496 0.950 . S
H1489 C1501 0.950 . S
H1490 C1498 0.950 . S
H1491 C1500 0.950 . S
H1492 C1502 0.950 . S
H1493 C1504 0.950 . S
H1494 C1506 0.950 . S
H1495 C1507 0.950 . S
C1496 H1488 0.950 . S
C1496 C1497 1.386 . S
C1496 C1498 1.391 . S
C1497 C1496 1.386 . S
C1497 C1501 1.393 . S
C1498 H1490 0.950 . S
C1498 C1496 1.391 . S
C1498 C1499 1.400 . S
C1499 C1498 1.400 . S
C1499 C1500 1.398 . S
C1499 C1505 1.491 . S
C1500 H1491 0.950 . S
C1500 C1499 1.398 . S
C1500 C1501 1.391 . S
C1501 H1489 0.950 . S
C1501 C1497 1.393 . S
C1501 C1500 1.391 . S
C1502 H1492 0.950 . S
C1502 C1503 1.386 . S
C1502 C1504 1.391 . S
C1503 C1502 1.386 . S
C1503 C1507 1.393 . S
C1504 H1493 0.950 . S
C1504 C1502 1.391 . S
C1504 C1505 1.400 . S
C1505 C1499 1.491 . S
C1505 C1504 1.400 . S
C1505 C1506 1.398 . S
C1506 H1494 0.950 . S
C1506 C1505 1.398 . S
C1506 C1507 1.391 . S
C1507 H1495 0.950 . S
C1507 C1503 1.393 . S
C1507 C1506 1.391 . S
H1508 C1516 0.950 . S
H1509 C1521 0.950 . S
H1510 C1518 0.950 . S
H1511 C1520 0.950 . S
H1512 C1522 0.950 . S
H1513 C1524 0.950 . S
H1514 C1526 0.950 . S
H1515 C1527 0.950 . S
C1516 H1508 0.950 . S
C1516 C1517 1.386 . S
C1516 C1518 1.391 . S
C1517 C1516 1.386 . S
C1517 C1521 1.393 . S
C1518 H1510 0.950 . S
C1518 C1516 1.391 . S
C1518 C1519 1.400 . S
C1519 C1518 1.400 . S
C1519 C1520 1.398 . S
C1519 C1525 1.491 . S
C1520 H1511 0.950 . S
C1520 C1519 1.398 . S
C1520 C1521 1.391 . S
C1521 H1509 0.950 . S
C1521 C1517 1.393 . S
C1521 C1520 1.391 . S
C1522 H1512 0.950 . S
C1522 C1523 1.386 . S
C1522 C1524 1.391 . S
C1523 C1522 1.386 . S
C1523 C1527 1.393 . S
C1524 H1513 0.950 . S
C1524 C1522 1.391 . S
C1524 C1525 1.400 . S
C1525 C1519 1.491 . S
C1525 C1524 1.400 . S
C1525 C1526 1.398 . S
C1526 H1514 0.950 . S
C1526 C1525 1.398 . S
C1526 C1527 1.391 . S
C1527 H1515 0.950 . S
C1527 C1523 1.393 . S
C1527 C1526 1.391 . S
H1528 C1536 0.950 . S
H1529 C1541 0.950 . S
H1530 C1538 0.950 . S
H1531 C1540 0.950 . S
H1532 C1542 0.950 . S
H1533 C1544 0.950 . S
H1534 C1546 0.950 . S
H1535 C1547 0.950 . S
C1536 H1528 0.950 . S
C1536 C1537 1.386 . S
C1536 C1538 1.391 . S
C1537 C1536 1.386 . S
C1537 C1541 1.393 . S
C1538 H1530 0.950 . S
C1538 C1536 1.391 . S
C1538 C1539 1.400 . S
C1539 C1538 1.400 . S
C1539 C1540 1.398 . S
C1539 C1545 1.491 . S
C1540 H1531 0.950 . S
C1540 C1539 1.398 . S
C1540 C1541 1.391 . S
C1541 H1529 0.950 . S
C1541 C1537 1.393 . S
C1541 C1540 1.391 . S
C1542 H1532 0.950 . S
C1542 C1543 1.386 . S
C1542 C1544 1.391 . S
C1543 C1542 1.386 . S
C1543 C1547 1.393 . S
C1544 H1533 0.950 . S
C1544 C1542 1.391 . S
C1544 C1545 1.400 . S
C1545 C1539 1.491 . S
C1545 C1544 1.400 . S
C1545 C1546 1.398 . S
C1546 H1534 0.950 . S
C1546 C1545 1.398 . S
C1546 C1547 1.391 . S
C1547 H1535 0.950 . S
C1547 C1543 1.393 . S
C1547 C1546 1.391 . S
H1548 C1556 0.950 . S
H1549 C1561 0.950 . S
H1550 C1558 0.950 . S
H1551 C1560 0.950 1_545 S
H1552 C1562 0.950 . S
H1553 C1564 0.950 . S
H1554 C1566 0.950 . S
H1555 C1567 0.950 . S
C1556 H1548 0.950 . S
C1556 C1557 1.386 . S
C1556 C1558 1.391 1_565 S
C1557 C1556 1.386 . S
C1557 C1561 1.393 . S
C1558 H1550 0.950 . S
C1558 C1556 1.391 1_545 S
C1558 C1559 1.400 . S
C1559 C1558 1.400 . S
C1559 C1560 1.398 1_545 S
C1559 C1565 1.491 . S
C1560 H1551 0.950 1_565 S
C1560 C1559 1.398 1_565 S
C1560 C1561 1.391 . S
C1561 H1549 0.950 . S
C1561 C1557 1.393 . S
C1561 C1560 1.391 . S
C1562 H1552 0.950 . S
C1562 C1563 1.386 . S
C1562 C1564 1.391 . S
C1563 C1562 1.386 . S
C1563 C1567 1.393 . S
C1564 H1553 0.950 . S
C1564 C1562 1.391 . S
C1564 C1565 1.400 . S
C1565 C1559 1.491 . S
C1565 C1564 1.400 . S
C1565 C1566 1.398 . S
C1566 H1554 0.950 . S
C1566 C1565 1.398 . S
C1566 C1567 1.391 . S
C1567 H1555 0.950 . S
C1567 C1563 1.393 . S
C1567 C1566 1.391 . S
H1568 C1576 0.950 . S
H1569 C1581 0.950 . S
H1570 C1578 0.950 . S
H1571 C1580 0.950 . S
H1572 C1582 0.950 . S
H1573 C1584 0.950 . S
H1574 C1586 0.950 . S
H1575 C1587 0.950 . S
C1576 H1568 0.950 . S
C1576 C1577 1.386 . S
C1576 C1578 1.391 1_455 S
C1577 C1576 1.386 . S
C1577 C1581 1.393 1_455 S
C1578 H1570 0.950 . S
C1578 C1576 1.391 1_655 S
C1578 C1579 1.400 . S
C1579 C1578 1.400 . S
C1579 C1580 1.398 . S
C1579 C1585 1.491 . S
C1580 H1571 0.950 . S
C1580 C1579 1.398 . S
C1580 C1581 1.391 . S
C1581 H1569 0.950 . S
C1581 C1577 1.393 1_655 S
C1581 C1580 1.391 . S
C1582 H1572 0.950 . S
C1582 C1583 1.386 . S
C1582 C1584 1.391 . S
C1583 C1582 1.386 . S
C1583 C1587 1.393 . S
C1584 H1573 0.950 . S
C1584 C1582 1.391 . S
C1584 C1585 1.400 . S
C1585 C1579 1.491 . S
C1585 C1584 1.400 . S
C1585 C1586 1.398 . S
C1586 H1574 0.950 . S
C1586 C1585 1.398 . S
C1586 C1587 1.391 . S
C1587 H1575 0.950 . S
C1587 C1583 1.393 . S
C1587 C1586 1.391 . S
H1588 C1596 0.950 . S
H1589 C1601 0.950 . S
H1590 C1598 0.950 . S
H1591 C1600 0.950 . S
H1592 C1602 0.950 . S
H1593 C1604 0.950 . S
H1594 C1606 0.950 . S
H1595 C1607 0.950 . S
C1596 H1588 0.950 . S
C1596 C1597 1.386 . S
C1596 C1598 1.391 . S
C1597 C1596 1.386 . S
C1597 C1601 1.393 . S
C1598 H1590 0.950 . S
C1598 C1596 1.391 . S
C1598 C1599 1.400 . S
C1599 C1598 1.400 . S
C1599 C1600 1.398 . S
C1599 C1605 1.491 . S
C1600 H1591 0.950 . S
C1600 C1599 1.398 . S
C1600 C1601 1.391 . S
C1601 H1589 0.950 . S
C1601 C1597 1.393 . S
C1601 C1600 1.391 . S
C1602 H1592 0.950 . S
C1602 C1603 1.386 . S
C1602 C1604 1.391 . S
C1603 C1602 1.386 . S
C1603 C1607 1.393 . S
C1604 H1593 0.950 . S
C1604 C1602 1.391 . S
C1604 C1605 1.400 . S
C1605 C1599 1.491 . S
C1605 C1604 1.400 . S
C1605 C1606 1.398 . S
C1606 H1594 0.950 . S
C1606 C1605 1.398 . S
C1606 C1607 1.391 . S
C1607 H1595 0.950 . S
C1607 C1603 1.393 . S
C1607 C1606 1.391 . S
H1608 C1616 0.950 . S
H1609 C1621 0.950 . S
H1610 C1618 0.950 . S
H1611 C1620 0.950 . S
H1612 C1622 0.950 . S
H1613 C1624 0.950 . S
H1614 C1626 0.950 . S
H1615 C1627 0.950 . S
C1616 H1608 0.950 . S
C1616 C1617 1.386 . S
C1616 C1618 1.391 1_455 S
C1617 C1616 1.386 . S
C1617 C1621 1.393 . S
C1618 H1610 0.950 . S
C1618 C1616 1.391 1_655 S
C1618 C1619 1.400 . S
C1619 C1618 1.400 . S
C1619 C1620 1.398 . S
C1619 C1625 1.491 . S
C1620 H1611 0.950 . S
C1620 C1619 1.398 . S
C1620 C1621 1.391 1_655 S
C1621 H1609 0.950 . S
C1621 C1617 1.393 . S
C1621 C1620 1.391 1_455 S
C1622 H1612 0.950 . S
C1622 C1623 1.386 . S
C1622 C1624 1.391 . S
C1623 C1622 1.386 . S
C1623 C1627 1.393 . S
C1624 H1613 0.950 . S
C1624 C1622 1.391 . S
C1624 C1625 1.400 . S
C1625 C1619 1.491 . S
C1625 C1624 1.400 . S
C1625 C1626 1.398 . S
C1626 H1614 0.950 . S
C1626 C1625 1.398 . S
C1626 C1627 1.391 . S
C1627 H1615 0.950 . S
C1627 C1623 1.393 . S
C1627 C1626 1.391 . S
H1628 C1636 0.950 . S
H1629 C1641 0.950 . S
H1630 C1638 0.950 . S
H1631 C1640 0.950 . S
H1632 C1642 0.950 . S
H1633 C1644 0.950 . S
H1634 C1646 0.950 . S
H1635 C1647 0.950 . S
C1636 H1628 0.950 . S
C1636 C1637 1.386 . S
C1636 C1638 1.391 . S
C1637 C1636 1.386 . S
C1637 C1641 1.393 . S
C1638 H1630 0.950 . S
C1638 C1636 1.391 . S
C1638 C1639 1.400 . S
C1639 C1638 1.400 . S
C1639 C1640 1.398 . S
C1639 C1645 1.491 . S
C1640 H1631 0.950 . S
C1640 C1639 1.398 . S
C1640 C1641 1.391 . S
C1641 H1629 0.950 . S
C1641 C1637 1.393 . S
C1641 C1640 1.391 . S
C1642 H1632 0.950 . S
C1642 C1643 1.386 . S
C1642 C1644 1.391 . S
C1643 C1642 1.386 . S
C1643 C1647 1.393 . S
C1644 H1633 0.950 . S
C1644 C1642 1.391 . S
C1644 C1645 1.400 . S
C1645 C1639 1.491 . S
C1645 C1644 1.400 . S
C1645 C1646 1.398 . S
C1646 H1634 0.950 . S
C1646 C1645 1.398 . S
C1646 C1647 1.391 . S
C1647 H1635 0.950 . S
C1647 C1643 1.393 . S
C1647 C1646 1.391 . S
H1648 C1656 0.950 . S
H1649 C1661 0.950 . S
H1650 C1658 0.950 1_545 S
H1651 C1660 0.950 1_545 S
H1652 C1662 0.950 . S
H1653 C1664 0.950 . S
H1654 C1666 0.950 . S
H1655 C1667 0.950 . S
C1656 H1648 0.950 . S
C1656 C1657 1.386 . S
C1656 C1658 1.391 . S
C1657 C1656 1.386 . S
C1657 C1661 1.393 . S
C1658 H1650 0.950 1_565 S
C1658 C1656 1.391 . S
C1658 C1659 1.400 1_565 S
C1659 C1658 1.400 1_545 S
C1659 C1660 1.398 1_545 S
C1659 C1665 1.491 . S
C1660 H1651 0.950 1_565 S
C1660 C1659 1.398 1_565 S
C1660 C1661 1.391 . S
C1661 H1649 0.950 . S
C1661 C1657 1.393 . S
C1661 C1660 1.391 . S
C1662 H1652 0.950 . S
C1662 C1663 1.386 . S
C1662 C1664 1.391 . S
C1663 C1662 1.386 . S
C1663 C1667 1.393 . S
C1664 H1653 0.950 . S
C1664 C1662 1.391 . S
C1664 C1665 1.400 . S
C1665 C1659 1.491 . S
C1665 C1664 1.400 . S
C1665 C1666 1.398 . S
C1666 H1654 0.950 . S
C1666 C1665 1.398 . S
C1666 C1667 1.391 . S
C1667 H1655 0.950 . S
C1667 C1663 1.393 . S
C1667 C1666 1.391 . S
H1668 C1676 0.950 . S
H1669 C1681 0.950 . S
H1670 C1678 0.950 . S
H1671 C1680 0.950 . S
H1672 C1682 0.950 . S
H1673 C1684 0.950 . S
H1674 C1686 0.950 . S
H1675 C1687 0.950 . S
C1676 H1668 0.950 . S
C1676 C1677 1.386 . S
C1676 C1678 1.391 . S
C1677 C1676 1.386 . S
C1677 C1681 1.393 . S
C1678 H1670 0.950 . S
C1678 C1676 1.391 . S
C1678 C1679 1.400 . S
C1679 C1678 1.400 . S
C1679 C1680 1.398 . S
C1679 C1685 1.491 . S
C1680 H1671 0.950 . S
C1680 C1679 1.398 . S
C1680 C1681 1.391 . S
C1681 H1669 0.950 . S
C1681 C1677 1.393 . S
C1681 C1680 1.391 . S
C1682 H1672 0.950 . S
C1682 C1683 1.386 . S
C1682 C1684 1.391 . S
C1683 C1682 1.386 . S
C1683 C1687 1.393 . S
C1684 H1673 0.950 . S
C1684 C1682 1.391 . S
C1684 C1685 1.400 . S
C1685 C1679 1.491 . S
C1685 C1684 1.400 . S
C1685 C1686 1.398 . S
C1686 H1674 0.950 . S
C1686 C1685 1.398 . S
C1686 C1687 1.391 . S
C1687 H1675 0.950 . S
C1687 C1683 1.393 . S
C1687 C1686 1.391 . S
H1688 C1696 0.950 . S
H1689 C1701 0.950 . S
H1690 C1698 0.950 . S
H1691 C1700 0.950 . S
H1692 C1702 0.950 . S
H1693 C1704 0.950 . S
H1694 C1706 0.950 . S
H1695 C1707 0.950 . S
C1696 H1688 0.950 . S
C1696 C1697 1.386 . S
C1696 C1698 1.391 . S
C1697 C1696 1.386 . S
C1697 C1701 1.393 . S
C1698 H1690 0.950 . S
C1698 C1696 1.391 . S
C1698 C1699 1.400 . S
C1699 C1698 1.400 . S
C1699 C1700 1.398 . S
C1699 C1705 1.491 . S
C1700 H1691 0.950 . S
C1700 C1699 1.398 . S
C1700 C1701 1.391 . S
C1701 H1689 0.950 . S
C1701 C1697 1.393 . S
C1701 C1700 1.391 . S
C1702 H1692 0.950 . S
C1702 C1703 1.386 . S
C1702 C1704 1.391 . S
C1703 C1702 1.386 . S
C1703 C1707 1.393 . S
C1704 H1693 0.950 . S
C1704 C1702 1.391 . S
C1704 C1705 1.400 . S
C1705 C1699 1.491 . S
C1705 C1704 1.400 . S
C1705 C1706 1.398 . S
C1706 H1694 0.950 . S
C1706 C1705 1.398 . S
C1706 C1707 1.391 . S
C1707 H1695 0.950 . S
C1707 C1703 1.393 . S
C1707 C1706 1.391 . S
H1708 C1716 0.950 . S
H1709 C1721 0.950 . S
H1710 C1718 0.950 . S
H1711 C1720 0.950 . S
H1712 C1722 0.950 . S
H1713 C1724 0.950 . S
H1714 C1726 0.950 . S
H1715 C1727 0.950 . S
C1716 H1708 0.950 . S
C1716 C1717 1.386 . S
C1716 C1718 1.391 . S
C1717 C1716 1.386 . S
C1717 C1721 1.393 . S
C1718 H1710 0.950 . S
C1718 C1716 1.391 . S
C1718 C1719 1.400 . S
C1719 C1718 1.400 . S
C1719 C1720 1.398 . S
C1719 C1725 1.491 . S
C1720 H1711 0.950 . S
C1720 C1719 1.398 . S
C1720 C1721 1.391 . S
C1721 H1709 0.950 . S
C1721 C1717 1.393 . S
C1721 C1720 1.391 . S
C1722 H1712 0.950 . S
C1722 C1723 1.386 . S
C1722 C1724 1.391 . S
C1723 C1722 1.386 . S
C1723 C1727 1.393 . S
C1724 H1713 0.950 . S
C1724 C1722 1.391 . S
C1724 C1725 1.400 . S
C1725 C1719 1.491 . S
C1725 C1724 1.400 . S
C1725 C1726 1.398 . S
C1726 H1714 0.950 . S
C1726 C1725 1.398 . S
C1726 C1727 1.391 . S
C1727 H1715 0.950 . S
C1727 C1723 1.393 . S
C1727 C1726 1.391 . S
H1728 C1736 0.950 . S
H1729 C1741 0.950 . S
H1730 C1738 0.950 . S
H1731 C1740 0.950 . S
H1732 C1742 0.950 . S
H1733 C1744 0.950 . S
H1734 C1746 0.950 . S
H1735 C1747 0.950 . S
C1736 H1728 0.950 . S
C1736 C1737 1.386 . S
C1736 C1738 1.391 . S
C1737 C1736 1.386 . S
C1737 C1741 1.393 . S
C1738 H1730 0.950 . S
C1738 C1736 1.391 . S
C1738 C1739 1.400 . S
C1739 C1738 1.400 . S
C1739 C1740 1.398 . S
C1739 C1745 1.491 . S
C1740 H1731 0.950 . S
C1740 C1739 1.398 . S
C1740 C1741 1.391 . S
C1741 H1729 0.950 . S
C1741 C1737 1.393 . S
C1741 C1740 1.391 . S
C1742 H1732 0.950 . S
C1742 C1743 1.386 . S
C1742 C1744 1.391 . S
C1743 C1742 1.386 . S
C1743 C1747 1.393 . S
C1744 H1733 0.950 . S
C1744 C1742 1.391 . S
C1744 C1745 1.400 . S
C1745 C1739 1.491 . S
C1745 C1744 1.400 . S
C1745 C1746 1.398 . S
C1746 H1734 0.950 . S
C1746 C1745 1.398 . S
C1746 C1747 1.391 . S
C1747 H1735 0.950 . S
C1747 C1743 1.393 . S
C1747 C1746 1.391 . S
H1748 C1756 0.950 . S
H1749 C1761 0.950 . S
H1750 C1758 0.950 . S
H1751 C1760 0.950 . S
H1752 C1762 0.925 1_655 S
H1753 C1764 0.995 . S
H1754 C1766 0.950 . S
H1755 C1767 0.950 . S
C1756 H1748 0.950 . S
C1756 C1757 1.386 . S
C1756 C1758 1.391 . S
C1757 C1756 1.386 . S
C1757 C1761 1.393 1_455 S
C1758 H1750 0.950 . S
C1758 C1756 1.391 . S
C1758 C1759 1.400 . S
C1759 C1758 1.400 . S
C1759 C1760 1.398 1_455 S
C1759 C1765 1.491 . S
C1760 H1751 0.950 . S
C1760 C1759 1.398 1_655 S
C1760 C1761 1.391 . S
C1761 H1749 0.950 . S
C1761 C1757 1.393 1_655 S
C1761 C1760 1.391 . S
C1762 H1752 0.925 1_455 S
C1762 C1763 1.416 . S
C1762 C1764 1.382 1_455 S
C1763 C1762 1.416 . S
C1763 C1767 1.393 . S
C1764 H1753 0.995 . S
C1764 C1762 1.382 1_655 S
C1764 C1765 1.364 1_655 S
C1765 C1759 1.491 . S
C1765 C1764 1.364 1_455 S
C1765 C1766 1.398 . S
C1766 H1754 0.950 . S
C1766 C1765 1.398 . S
C1766 C1767 1.391 . S
C1767 H1755 0.950 . S
C1767 C1763 1.393 . S
C1767 C1766 1.391 . S
H1768 C1776 0.950 . S
H1769 C1781 0.950 . S
H1770 C1778 0.950 . S
H1771 C1780 0.950 . S
H1772 C1782 0.950 . S
H1773 C1784 0.950 . S
H1774 C1786 0.950 . S
H1775 C1787 0.950 . S
C1776 H1768 0.950 . S
C1776 C1777 1.386 . S
C1776 C1778 1.391 . S
C1777 C1776 1.386 . S
C1777 C1781 1.393 . S
C1778 H1770 0.950 . S
C1778 C1776 1.391 . S
C1778 C1779 1.400 . S
C1779 C1778 1.400 . S
C1779 C1780 1.398 . S
C1779 C1785 1.491 . S
C1780 H1771 0.950 . S
C1780 C1779 1.398 . S
C1780 C1781 1.391 . S
C1781 H1769 0.950 . S
C1781 C1777 1.393 . S
C1781 C1780 1.391 . S
C1782 H1772 0.950 . S
C1782 C1783 1.386 . S
C1782 C1784 1.391 . S
C1783 C1782 1.386 . S
C1783 C1787 1.393 . S
C1784 H1773 0.950 . S
C1784 C1782 1.391 . S
C1784 C1785 1.400 . S
C1785 C1779 1.491 . S
C1785 C1784 1.400 . S
C1785 C1786 1.398 . S
C1786 H1774 0.950 . S
C1786 C1785 1.398 . S
C1786 C1787 1.391 . S
C1787 H1775 0.950 . S
C1787 C1783 1.393 . S
C1787 C1786 1.391 . S
H1788 C1796 0.950 . S
H1789 C1801 0.950 . S
H1790 C1798 0.950 . S
H1791 C1800 0.950 . S
H1792 C1802 0.950 . S
H1793 C1804 0.950 . S
H1794 C1806 0.950 . S
H1795 C1807 0.950 . S
C1796 H1788 0.950 . S
C1796 C1797 1.386 . S
C1796 C1798 1.391 . S
C1797 C1796 1.386 . S
C1797 C1801 1.393 1_655 S
C1798 H1790 0.950 . S
C1798 C1796 1.391 . S
C1798 C1799 1.400 . S
C1799 C1798 1.400 . S
C1799 C1800 1.398 1_655 S
C1799 C1805 1.491 . S
C1800 H1791 0.950 . S
C1800 C1799 1.398 1_455 S
C1800 C1801 1.391 . S
C1801 H1789 0.950 . S
C1801 C1797 1.393 1_455 S
C1801 C1800 1.391 . S
C1802 H1792 0.950 . S
C1802 C1803 1.386 1_455 S
C1802 C1804 1.391 . S
C1803 C1802 1.386 1_655 S
C1803 C1807 1.393 . S
C1804 H1793 0.950 . S
C1804 C1802 1.391 . S
C1804 C1805 1.400 1_455 S
C1805 C1799 1.491 . S
C1805 C1804 1.400 1_655 S
C1805 C1806 1.398 . S
C1806 H1794 0.950 . S
C1806 C1805 1.398 . S
C1806 C1807 1.391 . S
C1807 H1795 0.950 . S
C1807 C1803 1.393 . S
C1807 C1806 1.391 . S
H1808 C1816 0.950 . S
H1809 C1821 0.950 . S
H1810 C1818 0.950 . S
H1811 C1820 0.950 . S
H1812 C1822 0.950 . S
H1813 C1824 0.950 . S
H1814 C1826 0.950 . S
H1815 C1827 0.950 . S
C1816 H1808 0.950 . S
C1816 C1817 1.386 . S
C1816 C1818 1.391 . S
C1817 C1816 1.386 . S
C1817 C1821 1.393 . S
C1818 H1810 0.950 . S
C1818 C1816 1.391 . S
C1818 C1819 1.400 . S
C1819 C1818 1.400 . S
C1819 C1820 1.398 . S
C1819 C1825 1.491 . S
C1820 H1811 0.950 . S
C1820 C1819 1.398 . S
C1820 C1821 1.391 . S
C1821 H1809 0.950 . S
C1821 C1817 1.393 . S
C1821 C1820 1.391 . S
C1822 H1812 0.950 . S
C1822 C1823 1.386 . S
C1822 C1824 1.391 . S
C1823 C1822 1.386 . S
C1823 C1827 1.393 . S
C1824 H1813 0.950 . S
C1824 C1822 1.391 . S
C1824 C1825 1.400 . S
C1825 C1819 1.491 . S
C1825 C1824 1.400 . S
C1825 C1826 1.398 . S
C1826 H1814 0.950 . S
C1826 C1825 1.398 . S
C1826 C1827 1.391 . S
C1827 H1815 0.950 . S
C1827 C1823 1.393 . S
C1827 C1826 1.391 . S
H1828 C1836 0.950 . S
H1829 C1841 0.950 . S
H1830 C1838 0.950 1_565 S
H1831 C1840 0.950 . S
H1832 C1842 0.950 . S
H1833 C1844 0.950 . S
H1834 C1846 0.950 . S
H1835 C1847 0.950 . S
C1836 H1828 0.950 . S
C1836 C1837 1.386 . S
C1836 C1838 1.391 . S
C1837 C1836 1.386 . S
C1837 C1841 1.393 . S
C1838 H1830 0.950 1_545 S
C1838 C1836 1.391 . S
C1838 C1839 1.400 . S
C1839 C1838 1.400 . S
C1839 C1840 1.398 . S
C1839 C1845 1.491 . S
C1840 H1831 0.950 . S
C1840 C1839 1.398 . S
C1840 C1841 1.391 . S
C1841 H1829 0.950 . S
C1841 C1837 1.393 . S
C1841 C1840 1.391 . S
C1842 H1832 0.950 . S
C1842 C1843 1.386 . S
C1842 C1844 1.391 . S
C1843 C1842 1.386 . S
C1843 C1847 1.393 1_545 S
C1844 H1833 0.950 . S
C1844 C1842 1.391 . S
C1844 C1845 1.400 . S
C1845 C1839 1.491 . S
C1845 C1844 1.400 . S
C1845 C1846 1.398 1_545 S
C1846 H1834 0.950 . S
C1846 C1845 1.398 1_565 S
C1846 C1847 1.391 . S
C1847 H1835 0.950 . S
C1847 C1843 1.393 1_565 S
C1847 C1846 1.391 . S
H1848 C1856 0.950 . S
H1849 C1861 0.950 . S
H1850 C1858 0.950 . S
H1851 C1860 0.950 . S
H1852 C1862 0.950 . S
H1853 C1864 0.950 . S
H1854 C1866 0.950 . S
H1855 C1867 0.950 . S
C1856 H1848 0.950 . S
C1856 C1857 1.386 . S
C1856 C1858 1.391 . S
C1857 C1856 1.386 . S
C1857 C1861 1.393 . S
C1858 H1850 0.950 . S
C1858 C1856 1.391 . S
C1858 C1859 1.400 . S
C1859 C1858 1.400 . S
C1859 C1860 1.398 . S
C1859 C1865 1.491 . S
C1860 H1851 0.950 . S
C1860 C1859 1.398 . S
C1860 C1861 1.391 . S
C1861 H1849 0.950 . S
C1861 C1857 1.393 . S
C1861 C1860 1.391 . S
C1862 H1852 0.950 . S
C1862 C1863 1.386 . S
C1862 C1864 1.391 . S
C1863 C1862 1.386 . S
C1863 C1867 1.393 . S
C1864 H1853 0.950 . S
C1864 C1862 1.391 . S
C1864 C1865 1.400 . S
C1865 C1859 1.491 . S
C1865 C1864 1.400 . S
C1865 C1866 1.398 . S
C1866 H1854 0.950 . S
C1866 C1865 1.398 . S
C1866 C1867 1.391 . S
C1867 H1855 0.950 . S
C1867 C1863 1.393 . S
C1867 C1866 1.391 . S
H1868 C1876 0.950 . S
H1869 C1881 0.950 . S
H1870 C1878 0.950 . S
H1871 C1880 0.950 . S
H1872 C1882 0.950 . S
H1873 C1884 0.950 . S
H1874 C1886 0.950 . S
H1875 C1887 0.950 . S
C1876 H1868 0.950 . S
C1876 C1877 1.386 . S
C1876 C1878 1.391 . S
C1877 C1876 1.386 . S
C1877 C1881 1.393 . S
C1878 H1870 0.950 . S
C1878 C1876 1.391 . S
C1878 C1879 1.400 . S
C1879 C1878 1.400 . S
C1879 C1880 1.398 . S
C1879 C1885 1.491 . S
C1880 H1871 0.950 . S
C1880 C1879 1.398 . S
C1880 C1881 1.391 . S
C1881 H1869 0.950 . S
C1881 C1877 1.393 . S
C1881 C1880 1.391 . S
C1882 H1872 0.950 . S
C1882 C1883 1.386 . S
C1882 C1884 1.391 . S
C1883 C1882 1.386 . S
C1883 C1887 1.393 . S
C1884 H1873 0.950 . S
C1884 C1882 1.391 . S
C1884 C1885 1.400 . S
C1885 C1879 1.491 . S
C1885 C1884 1.400 . S
C1885 C1886 1.398 . S
C1886 H1874 0.950 . S
C1886 C1885 1.398 . S
C1886 C1887 1.391 . S
C1887 H1875 0.950 . S
C1887 C1883 1.393 . S
C1887 C1886 1.391 . S
H1888 C1896 0.950 . S
H1889 C1901 0.950 . S
H1890 C1898 0.950 . S
H1891 C1900 0.950 . S
H1892 C1902 0.950 . S
H1893 C1904 0.950 . S
H1894 C1906 0.950 . S
H1895 C1907 0.950 . S
C1896 H1888 0.950 . S
C1896 C1897 1.386 . S
C1896 C1898 1.391 . S
C1897 C1896 1.386 . S
C1897 C1901 1.393 . S
C1898 H1890 0.950 . S
C1898 C1896 1.391 . S
C1898 C1899 1.400 . S
C1899 C1898 1.400 . S
C1899 C1900 1.398 . S
C1899 C1905 1.491 . S
C1900 H1891 0.950 . S
C1900 C1899 1.398 . S
C1900 C1901 1.391 . S
C1901 H1889 0.950 . S
C1901 C1897 1.393 . S
C1901 C1900 1.391 . S
C1902 H1892 0.950 . S
C1902 C1903 1.386 . S
C1902 C1904 1.391 . S
C1903 C1902 1.386 . S
C1903 C1907 1.393 . S
C1904 H1893 0.950 . S
C1904 C1902 1.391 . S
C1904 C1905 1.400 . S
C1905 C1899 1.491 . S
C1905 C1904 1.400 . S
C1905 C1906 1.398 . S
C1906 H1894 0.950 . S
C1906 C1905 1.398 . S
C1906 C1907 1.391 . S
C1907 H1895 0.950 . S
C1907 C1903 1.393 . S
C1907 C1906 1.391 . S
H1908 C1916 0.950 . S
H1909 C1921 0.950 . S
H1910 C1918 0.950 . S
H1911 C1920 0.950 . S
H1912 C1922 0.950 . S
H1913 C1924 0.950 . S
H1914 C1926 0.950 . S
H1915 C1927 0.950 . S
C1916 H1908 0.950 . S
C1916 C1917 1.386 . S
C1916 C1918 1.391 . S
C1917 C1916 1.386 . S
C1917 C1921 1.393 . S
C1918 H1910 0.950 . S
C1918 C1916 1.391 . S
C1918 C1919 1.400 . S
C1919 C1918 1.400 . S
C1919 C1920 1.398 . S
C1919 C1925 1.491 . S
C1920 H1911 0.950 . S
C1920 C1919 1.398 . S
C1920 C1921 1.391 . S
C1921 H1909 0.950 . S
C1921 C1917 1.393 . S
C1921 C1920 1.391 . S
C1922 H1912 0.950 . S
C1922 C1923 1.386 . S
C1922 C1924 1.391 . S
C1923 C1922 1.386 . S
C1923 C1927 1.393 . S
C1924 H1913 0.950 . S
C1924 C1922 1.391 . S
C1924 C1925 1.400 . S
C1925 C1919 1.491 . S
C1925 C1924 1.400 . S
C1925 C1926 1.398 . S
C1926 H1914 0.950 . S
C1926 C1925 1.398 . S
C1926 C1927 1.391 . S
C1927 H1915 0.950 . S
C1927 C1923 1.393 . S
C1927 C1926 1.391 . S
H1928 C1936 0.950 . S
H1929 C1941 0.950 . S
H1930 C1938 0.950 . S
H1931 C1940 0.950 . S
H1932 C1942 0.950 . S
H1933 C1944 0.950 . S
H1934 C1946 0.950 . S
H1935 C1947 0.950 . S
C1936 H1928 0.950 . S
C1936 C1937 1.386 . S
C1936 C1938 1.391 . S
C1937 C1936 1.386 . S
C1937 C1941 1.393 . S
C1938 H1930 0.950 . S
C1938 C1936 1.391 . S
C1938 C1939 1.400 . S
C1939 C1938 1.400 . S
C1939 C1940 1.398 . S
C1939 C1945 1.491 . S
C1940 H1931 0.950 . S
C1940 C1939 1.398 . S
C1940 C1941 1.391 . S
C1941 H1929 0.950 . S
C1941 C1937 1.393 . S
C1941 C1940 1.391 . S
C1942 H1932 0.950 . S
C1942 C1943 1.386 . S
C1942 C1944 1.391 . S
C1943 C1942 1.386 . S
C1943 C1947 1.393 . S
C1944 H1933 0.950 . S
C1944 C1942 1.391 . S
C1944 C1945 1.400 . S
C1945 C1939 1.491 . S
C1945 C1944 1.400 . S
C1945 C1946 1.398 . S
C1946 H1934 0.950 . S
C1946 C1945 1.398 . S
C1946 C1947 1.391 . S
C1947 H1935 0.950 . S
C1947 C1943 1.393 . S
C1947 C1946 1.391 . S
H1948 C1956 0.950 . S
H1949 C1961 0.950 . S
H1950 C1958 0.950 . S
H1951 C1960 0.950 . S
H1952 C1962 0.950 . S
H1953 C1964 0.950 . S
H1954 C1966 0.950 . S
H1955 C1967 0.950 . S
C1956 H1948 0.950 . S
C1956 C1957 1.386 . S
C1956 C1958 1.391 . S
C1957 C1956 1.386 . S
C1957 C1961 1.393 . S
C1958 H1950 0.950 . S
C1958 C1956 1.391 . S
C1958 C1959 1.400 . S
C1959 C1958 1.400 . S
C1959 C1960 1.398 . S
C1959 C1965 1.491 . S
C1960 H1951 0.950 . S
C1960 C1959 1.398 . S
C1960 C1961 1.391 . S
C1961 H1949 0.950 . S
C1961 C1957 1.393 . S
C1961 C1960 1.391 . S
C1962 H1952 0.950 . S
C1962 C1963 1.386 . S
C1962 C1964 1.391 . S
C1963 C1962 1.386 . S
C1963 C1967 1.393 . S
C1964 H1953 0.950 . S
C1964 C1962 1.391 . S
C1964 C1965 1.400 . S
C1965 C1959 1.491 . S
C1965 C1964 1.400 . S
C1965 C1966 1.398 . S
C1966 H1954 0.950 . S
C1966 C1965 1.398 . S
C1966 C1967 1.391 . S
C1967 H1955 0.950 . S
C1967 C1963 1.393 . S
C1967 C1966 1.391 . S
H1968 C1976 0.950 . S
H1969 C1981 0.950 . S
H1970 C1978 0.950 . S
H1971 C1980 0.950 . S
H1972 C1982 0.950 . S
H1973 C1984 0.950 . S
H1974 C1986 0.950 . S
H1975 C1987 0.950 . S
C1976 H1968 0.950 . S
C1976 C1977 1.386 . S
C1976 C1978 1.391 . S
C1977 C1976 1.386 . S
C1977 C1981 1.393 . S
C1978 H1970 0.950 . S
C1978 C1976 1.391 . S
C1978 C1979 1.400 . S
C1979 C1978 1.400 . S
C1979 C1980 1.398 . S
C1979 C1985 1.491 . S
C1980 H1971 0.950 . S
C1980 C1979 1.398 . S
C1980 C1981 1.391 . S
C1981 H1969 0.950 . S
C1981 C1977 1.393 . S
C1981 C1980 1.391 . S
C1982 H1972 0.950 . S
C1982 C1983 1.386 . S
C1982 C1984 1.391 . S
C1983 C1982 1.386 . S
C1983 C1987 1.393 . S
C1984 H1973 0.950 . S
C1984 C1982 1.391 . S
C1984 C1985 1.400 . S
C1985 C1979 1.491 . S
C1985 C1984 1.400 . S
C1985 C1986 1.398 . S
C1986 H1974 0.950 . S
C1986 C1985 1.398 . S
C1986 C1987 1.391 . S
C1987 H1975 0.950 . S
C1987 C1983 1.393 . S
C1987 C1986 1.391 . S
H1988 C1996 0.950 . S
H1989 C2001 0.950 . S
H1990 C1998 0.950 . S
H1991 C2000 0.950 . S
H1992 C2002 0.950 . S
H1993 C2004 0.950 . S
H1994 C2006 0.950 . S
H1995 C2007 0.950 . S
C1996 H1988 0.950 . S
C1996 C1997 1.386 . S
C1996 C1998 1.391 . S
C1997 C1996 1.386 . S
C1997 C2001 1.393 . S
C1998 H1990 0.950 . S
C1998 C1996 1.391 . S
C1998 C1999 1.400 . S
C1999 C1998 1.400 . S
C1999 C2000 1.398 . S
C1999 C2005 1.491 . S
C2000 H1991 0.950 . S
C2000 C1999 1.398 . S
C2000 C2001 1.391 . S
C2001 H1989 0.950 . S
C2001 C1997 1.393 . S
C2001 C2000 1.391 . S
C2002 H1992 0.950 . S
C2002 C2003 1.386 . S
C2002 C2004 1.391 . S
C2003 C2002 1.386 . S
C2003 C2007 1.393 . S
C2004 H1993 0.950 . S
C2004 C2002 1.391 . S
C2004 C2005 1.400 . S
C2005 C1999 1.491 . S
C2005 C2004 1.400 . S
C2005 C2006 1.398 . S
C2006 H1994 0.950 . S
C2006 C2005 1.398 . S
C2006 C2007 1.391 . S
C2007 H1995 0.950 . S
C2007 C2003 1.393 . S
C2007 C2006 1.391 . S
H2008 C2016 0.950 . S
H2009 C2021 0.950 . S
H2010 C2018 0.950 . S
H2011 C2020 0.950 . S
H2012 C2022 0.950 . S
H2013 C2024 0.950 . S
H2014 C2026 0.950 . S
H2015 C2027 0.950 . S
C2016 H2008 0.950 . S
C2016 C2017 1.386 . S
C2016 C2018 1.391 . S
C2017 C2016 1.386 . S
C2017 C2021 1.393 . S
C2018 H2010 0.950 . S
C2018 C2016 1.391 . S
C2018 C2019 1.400 . S
C2019 C2018 1.400 . S
C2019 C2020 1.398 . S
C2019 C2025 1.491 . S
C2020 H2011 0.950 . S
C2020 C2019 1.398 . S
C2020 C2021 1.391 . S
C2021 H2009 0.950 . S
C2021 C2017 1.393 . S
C2021 C2020 1.391 . S
C2022 H2012 0.950 . S
C2022 C2023 1.386 . S
C2022 C2024 1.391 . S
C2023 C2022 1.386 . S
C2023 C2027 1.393 . S
C2024 H2013 0.950 . S
C2024 C2022 1.391 . S
C2024 C2025 1.400 . S
C2025 C2019 1.491 . S
C2025 C2024 1.400 . S
C2025 C2026 1.398 . S
C2026 H2014 0.950 . S
C2026 C2025 1.398 . S
C2026 C2027 1.391 . S
C2027 H2015 0.950 . S
C2027 C2023 1.393 . S
C2027 C2026 1.391 . S
H2028 C2036 0.950 . S
H2029 C2041 0.950 . S
H2030 C2038 0.950 . S
H2031 C2040 0.950 . S
H2032 C2042 0.950 . S
H2033 C2044 0.950 . S
H2034 C2046 0.950 . S
H2035 C2047 0.950 . S
C2036 H2028 0.950 . S
C2036 C2037 1.386 . S
C2036 C2038 1.391 . S
C2037 C2036 1.386 . S
C2037 C2041 1.393 . S
C2038 H2030 0.950 . S
C2038 C2036 1.391 . S
C2038 C2039 1.400 . S
C2039 C2038 1.400 . S
C2039 C2040 1.398 . S
C2039 C2045 1.491 . S
C2040 H2031 0.950 . S
C2040 C2039 1.398 . S
C2040 C2041 1.391 . S
C2041 H2029 0.950 . S
C2041 C2037 1.393 . S
C2041 C2040 1.391 . S
C2042 H2032 0.950 . S
C2042 C2043 1.386 . S
C2042 C2044 1.391 . S
C2043 C2042 1.386 . S
C2043 C2047 1.393 . S
C2044 H2033 0.950 . S
C2044 C2042 1.391 . S
C2044 C2045 1.400 . S
C2045 C2039 1.491 . S
C2045 C2044 1.400 . S
C2045 C2046 1.398 . S
C2046 H2034 0.950 . S
C2046 C2045 1.398 . S
C2046 C2047 1.391 . S
C2047 H2035 0.950 . S
C2047 C2043 1.393 . S
C2047 C2046 1.391 . S
H2048 C2056 0.950 . S
H2049 C2061 0.950 . S
H2050 C2058 0.950 . S
H2051 C2060 0.950 . S
H2052 C2062 0.950 . S
H2053 C2064 0.950 . S
H2054 C2066 0.950 . S
H2055 C2067 0.950 . S
C2056 H2048 0.950 . S
C2056 C2057 1.386 . S
C2056 C2058 1.391 . S
C2057 C2056 1.386 . S
C2057 C2061 1.393 . S
C2058 H2050 0.950 . S
C2058 C2056 1.391 . S
C2058 C2059 1.400 . S
C2059 C2058 1.400 . S
C2059 C2060 1.398 . S
C2059 C2065 1.491 . S
C2060 H2051 0.950 . S
C2060 C2059 1.398 . S
C2060 C2061 1.391 . S
C2061 H2049 0.950 . S
C2061 C2057 1.393 . S
C2061 C2060 1.391 . S
C2062 H2052 0.950 . S
C2062 C2063 1.386 . S
C2062 C2064 1.391 . S
C2063 C2062 1.386 . S
C2063 C2067 1.393 . S
C2064 H2053 0.950 . S
C2064 C2062 1.391 . S
C2064 C2065 1.400 . S
C2065 C2059 1.491 . S
C2065 C2064 1.400 . S
C2065 C2066 1.398 . S
C2066 H2054 0.950 . S
C2066 C2065 1.398 . S
C2066 C2067 1.391 . S
C2067 H2055 0.950 . S
C2067 C2063 1.393 . S
C2067 C2066 1.391 . S
H2068 C2076 0.950 . S
H2069 C2081 0.950 . S
H2070 C2078 0.950 . S
H2071 C2080 0.950 . S
H2072 C2082 0.950 . S
H2073 C2084 0.950 . S
H2074 C2086 0.950 . S
H2075 C2087 0.950 . S
C2076 H2068 0.950 . S
C2076 C2077 1.386 . S
C2076 C2078 1.391 . S
C2077 C2076 1.386 . S
C2077 C2081 1.393 . S
C2078 H2070 0.950 . S
C2078 C2076 1.391 . S
C2078 C2079 1.400 . S
C2079 C2078 1.400 . S
C2079 C2080 1.398 . S
C2079 C2085 1.491 . S
C2080 H2071 0.950 . S
C2080 C2079 1.398 . S
C2080 C2081 1.391 . S
C2081 H2069 0.950 . S
C2081 C2077 1.393 . S
C2081 C2080 1.391 . S
C2082 H2072 0.950 . S
C2082 C2083 1.386 . S
C2082 C2084 1.391 . S
C2083 C2082 1.386 . S
C2083 C2087 1.393 . S
C2084 H2073 0.950 . S
C2084 C2082 1.391 . S
C2084 C2085 1.400 . S
C2085 C2079 1.491 . S
C2085 C2084 1.400 . S
C2085 C2086 1.398 . S
C2086 H2074 0.950 . S
C2086 C2085 1.398 . S
C2086 C2087 1.391 . S
C2087 H2075 0.950 . S
C2087 C2083 1.393 . S
C2087 C2086 1.391 . S
C1017 C469 1.690 . S
C1023 C660 1.696 . S
C1037 C505 1.803 . S
C1043 C700 1.796 . S
C1057 C433 1.753 . S
C1063 C730 1.742 . S
C1077 C397 1.591 . S
C1083 C690 1.575 . S
C1103 C740 1.470 . S
C1097 C325 1.467 . S
C1117 C361 1.439 . S
C1123 C650 1.462 . S
C1143 C679 1.695 . S
C1137 C421 1.694 . S
C1163 C719 1.792 . S
C1157 C349 1.795 . S
C1177 C385 1.747 . S
C1183 C745 1.741 . S
C1197 C493 1.574 . S
C1203 C705 1.557 . S
C1217 C529 1.481 . S
C1223 C759 1.479 . S
C1243 C665 1.431 . S
C1237 C457 1.426 . S
C1263 C780 1.686 . S
C1257 C37 1.679 . S
C1277 C73 1.804 . S
C1283 C820 1.801 . S
C1297 C1 1.756 . S
C1303 C850 1.740 . S
C1317 C613 1.591 . S
C1323 C810 1.574 . S
C1337 C541 1.467 . S
C1343 C860 1.471 . S
C1357 C577 1.425 . S
C1363 C770 1.428 . S
C1377 C637 1.697 . S
C1383 C799 1.697 . S
C1397 C565 1.796 . S
C1403 C839 1.793 . S
C1423 C865 1.747 . S
C1417 C601 1.748 . S
C1437 C61 1.579 . S
C1443 C825 1.568 . S
C1463 C879 1.470 . S
C1457 C97 1.474 . S
C1477 C25 1.446 . S
C1483 C785 1.448 . S
C1503 C900 1.690 . S
C1497 C253 1.682 . S
C1517 C289 1.799 . S
C1523 C940 1.795 . S
C1543 C970 1.750 . S
C1537 C217 1.768 . S
C1563 C930 1.574 . S
C1557 C181 1.585 . S
C1583 C980 1.479 . S
C1577 C109 1.475 . S
C1597 C145 1.442 . S
C1603 C890 1.444 . S
C1617 C205 1.687 . S
C1623 C919 1.686 . S
C1637 C133 1.796 . S
C1643 C959 1.792 . S
C1663 C985 1.750 . S
C1657 C169 1.758 . S
C1677 C277 1.578 . S
C1683 C945 1.567 . S
C1697 C313 1.481 . S
C1703 C999 1.479 . S
C1717 C241 1.445 . S
C1723 C905 1.449 . S
C1737 C571 1.321 . S
C1743 C677 1.315 . S
C1763 C717 1.858 . S
C1757 C607 1.882 . S
C1777 C643 1.576 . S
C1783 C736 1.579 . S
C1797 C247 1.876 . S
C1803 C696 1.856 . S
C1817 C283 1.584 . S
C1823 C757 1.573 . S
C1843 C656 1.306 . S
C1837 C319 1.322 . S
C1857 C139 1.324 . S
C1863 C797 1.320 . S
C1877 C175 1.875 . S
C1883 C837 1.848 . S
C1897 C211 1.583 . S
C1903 C856 1.580 . S
C1917 C463 1.875 . S
C1923 C816 1.853 . S
C1943 C877 1.579 . S
C1937 C499 1.586 . S
C1957 C535 1.320 . S
C1963 C776 1.319 . S
C1977 C355 1.320 . S
C1983 C917 1.308 . S
C1997 C391 1.879 . S
C2003 C957 1.858 . S
C2023 C976 1.573 . S
C2017 C427 1.576 . S
C2037 C31 1.875 . S
C2043 C936 1.847 . S
C2057 C67 1.586 . S
C2063 C997 1.581 . S
C2077 C103 1.322 . S
C2083 C896 1.306 . S
