# Generated by pormake.
# Topology the, (3,8)-cn, num edge types: 1
# Building blocks:
#     Node 0, Type 0, BuildingBlock: INOVEN_clean_linker_0, # of connection points: 3
#     Node 1, Type 0, BuildingBlock: INOVEN_clean_linker_0, # of connection points: 3
#     Node 2, Type 0, BuildingBlock: INOVEN_clean_linker_0, # of connection points: 3
#     Node 3, Type 0, BuildingBlock: INOVEN_clean_linker_0, # of connection points: 3
#     Node 4, Type 0, BuildingBlock: INOVEN_clean_linker_0, # of connection points: 3
#     Node 5, Type 0, BuildingBlock: INOVEN_clean_linker_0, # of connection points: 3
#     Node 6, Type 0, BuildingBlock: INOVEN_clean_linker_0, # of connection points: 3
#     Node 7, Type 0, BuildingBlock: INOVEN_clean_linker_0, # of connection points: 3
#     Node 8, Type 1, BuildingBlock: GIZVER_clean_sbu_0, # of connection points: 8
#     Node 9, Type 1, BuildingBlock: GIZVER_clean_sbu_0, # of connection points: 8
#     Node 10, Type 1, BuildingBlock: GIZVER_clean_sbu_0, # of connection points: 8
#     Edge 11, Type (0, 1), BuildingBlock: KIFKEQ_clean_linker_1, # of connection points: 2
#     Edge 12, Type (0, 1), BuildingBlock: KIFKEQ_clean_linker_1, # of connection points: 2
#     Edge 13, Type (0, 1), BuildingBlock: KIFKEQ_clean_linker_1, # of connection points: 2
#     Edge 14, Type (0, 1), BuildingBlock: KIFKEQ_clean_linker_1, # of connection points: 2
#     Edge 15, Type (0, 1), BuildingBlock: KIFKEQ_clean_linker_1, # of connection points: 2
#     Edge 16, Type (0, 1), BuildingBlock: KIFKEQ_clean_linker_1, # of connection points: 2
#     Edge 17, Type (0, 1), BuildingBlock: KIFKEQ_clean_linker_1, # of connection points: 2
#     Edge 18, Type (0, 1), BuildingBlock: KIFKEQ_clean_linker_1, # of connection points: 2
#     Edge 19, Type (0, 1), BuildingBlock: KIFKEQ_clean_linker_1, # of connection points: 2
#     Edge 20, Type (0, 1), BuildingBlock: KIFKEQ_clean_linker_1, # of connection points: 2
#     Edge 21, Type (0, 1), BuildingBlock: KIFKEQ_clean_linker_1, # of connection points: 2
#     Edge 22, Type (0, 1), BuildingBlock: KIFKEQ_clean_linker_1, # of connection points: 2
#     Edge 23, Type (0, 1), BuildingBlock: KIFKEQ_clean_linker_1, # of connection points: 2
#     Edge 24, Type (0, 1), BuildingBlock: KIFKEQ_clean_linker_1, # of connection points: 2
#     Edge 25, Type (0, 1), BuildingBlock: KIFKEQ_clean_linker_1, # of connection points: 2
#     Edge 26, Type (0, 1), BuildingBlock: KIFKEQ_clean_linker_1, # of connection points: 2
#     Edge 27, Type (0, 1), BuildingBlock: KIFKEQ_clean_linker_1, # of connection points: 2
#     Edge 28, Type (0, 1), BuildingBlock: KIFKEQ_clean_linker_1, # of connection points: 2
#     Edge 29, Type (0, 1), BuildingBlock: KIFKEQ_clean_linker_1, # of connection points: 2
#     Edge 30, Type (0, 1), BuildingBlock: KIFKEQ_clean_linker_1, # of connection points: 2
#     Edge 31, Type (0, 1), BuildingBlock: KIFKEQ_clean_linker_1, # of connection points: 2
#     Edge 32, Type (0, 1), BuildingBlock: KIFKEQ_clean_linker_1, # of connection points: 2
#     Edge 33, Type (0, 1), BuildingBlock: KIFKEQ_clean_linker_1, # of connection points: 2
#     Edge 34, Type (0, 1), BuildingBlock: KIFKEQ_clean_linker_1, # of connection points: 2
# Relax obj value: 0.071
# Max RMSD: 0.194
# Mean RMSD: 0.129
data_MOF--net-the--node1-GIZVER_clean_sbu_0--node2-INOVEN_clean_linker_0--edge1-KIFKEQ_clean_linker_1
_symmetry_space_group_name_H-M    P1
_symmetry_Int_Tables_number       1
_symmetry_cell_setting            triclinic
loop_
_symmetry_equiv_pos_as_xyz
'x, y, z'
_cell_length_a     40.79683
_cell_length_b     38.756369
_cell_length_c     37.181745
_cell_angle_alpha  87.465074
_cell_angle_beta   95.999051
_cell_angle_gamma 108.50658
loop_
_atom_site_label
_atom_site_type_symbol
_atom_site_fract_x
_atom_site_fract_y
_atom_site_fract_z
_atom_type_partial_charge
H0 H 0.35135 0.37522 0.35077 0.0
H1 H 0.4094 0.29994 0.35069 0.0
H2 H 0.34531 0.29628 0.43666 0.0
N3 N 0.32193 0.35143 0.40984 0.0
N4 N 0.3043 0.33604 0.43484 0.0
C5 C 0.35905 0.35273 0.36307 0.0
C6 C 0.38187 0.33934 0.34661 0.0
C7 C 0.34575 0.33736 0.39529 0.0
C8 C 0.35575 0.30845 0.41181 0.0
C9 C 0.37881 0.29483 0.39585 0.0
C10 C 0.39177 0.31046 0.36325 0.0
H11 H 0.70466 0.2628 0.26985 0.0
H12 H 0.76854 0.28272 0.37164 0.0
H13 H 0.78683 0.36326 0.28635 0.0
N14 N 0.73031 0.32636 0.24171 0.0
N15 N 0.73808 0.35905 0.23232 0.0
C16 C 0.72592 0.27975 0.28749 0.0
C17 C 0.73329 0.26817 0.32294 0.0
C18 C 0.74397 0.31427 0.2748 0.0
C19 C 0.77245 0.33667 0.29637 0.0
C20 C 0.78246 0.32452 0.33079 0.0
C21 C 0.76235 0.29059 0.34412 0.0
H22 H 0.71585 0.72312 0.28419 0.0
H23 H 0.78505 0.65903 0.30101 0.0
H24 H 0.78906 0.73985 0.37877 0.0
N25 N 0.73585 0.76019 0.34417 0.0
N26 N 0.74529 0.77626 0.37367 0.0
C27 C 0.73714 0.71674 0.29994 0.0
C28 C 0.74916 0.68931 0.28847 0.0
C29 C 0.75101 0.73475 0.33258 0.0
C30 C 0.7781 0.72592 0.35357 0.0
C31 C 0.79102 0.699 0.34207 0.0
C32 C 0.77614 0.68063 0.30958 0.0
H33 H 0.30132 0.63869 0.30791 0.0
H34 H 0.30556 0.73926 0.3567 0.0
H35 H 0.3944 0.72942 0.31097 0.0
N36 N 0.36236 0.66127 0.28502 0.0
N37 N 0.38703 0.67485 0.26621 0.0
C38 C 0.31439 0.66687 0.31481 0.0
C39 C 0.29818 0.68657 0.33384 0.0
C40 C 0.34813 0.68274 0.30481 0.0
C41 C 0.36742 0.71818 0.31628 0.0
C42 C 0.3525 0.73784 0.33691 0.0
C43 C 0.31736 0.72271 0.34325 0.0
H44 H 0.4189 0.76026 0.76491 0.0
H45 H 0.34199 0.74478 0.67312 0.0
H46 H 0.33321 0.66201 0.756 0.0
N47 N 0.3962 0.69663 0.79274 0.0
N48 N 0.38464 0.66648 0.80798 0.0
C49 C 0.39522 0.74429 0.74975 0.0
C50 C 0.38339 0.75725 0.71663 0.0
C51 C 0.37821 0.70986 0.76335 0.0
C52 C 0.34659 0.68871 0.74543 0.0
C53 C 0.3326 0.70203 0.71348 0.0
C54 C 0.35149 0.736 0.69903 0.0
H55 H 0.33753 0.2494 0.66624 0.0
H56 H 0.42623 0.27482 0.74647 0.0
H57 H 0.34787 0.32682 0.7486 0.0
N58 N 0.31059 0.29767 0.68712 0.0
N59 N 0.29915 0.32031 0.69994 0.0
C60 C 0.35216 0.26397 0.68995 0.0
C61 C 0.38324 0.25794 0.70471 0.0
C62 C 0.33969 0.28915 0.70518 0.0
C63 C 0.35779 0.30774 0.73645 0.0
C64 C 0.38908 0.30292 0.75161 0.0
C65 C 0.40153 0.27772 0.73569 0.0
H66 H 0.72766 0.27366 0.7336 0.0
H67 H 0.81059 0.29321 0.66557 0.0
H68 H 0.82206 0.35988 0.75901 0.0
N69 N 0.75603 0.33092 0.77442 0.0
N70 N 0.77026 0.36009 0.79084 0.0
C71 C 0.75405 0.28827 0.7279 0.0
C72 C 0.7678 0.27853 0.69827 0.0
C73 C 0.7731 0.31832 0.74889 0.0
C74 C 0.80714 0.33779 0.74142 0.0
C75 C 0.8212 0.32981 0.71092 0.0
C76 C 0.80105 0.2998 0.68956 0.0
H77 H 0.71625 0.6918 0.68676 0.0
H78 H 0.79518 0.63925 0.69462 0.0
H79 H 0.78775 0.71231 0.6056 0.0
N80 N 0.73306 0.72877 0.62775 0.0
N81 N 0.74445 0.74982 0.60236 0.0
C82 C 0.73795 0.68662 0.67607 0.0
C83 C 0.75419 0.66325 0.69469 0.0
C84 C 0.74995 0.70451 0.64428 0.0
C85 C 0.77835 0.69855 0.63027 0.0
C86 C 0.7949 0.67508 0.64843 0.0
C87 C 0.78286 0.65779 0.6808 0.0
Co88 Co 0.11705 0.48152 0.5458 0.0
Co89 Co 0.07968 0.46443 0.48267 0.0
Co90 Co 0.05302 0.51935 0.52316 0.0
O91 O 0.06978 0.476 0.52817 0.0
H92 H 0.05341 0.45519 0.53868 0.0
O93 O 0.03571 0.56247 0.51741 0.0
Co94 Co 0.98747 0.5561 0.50198 0.0
Co95 Co 0.02723 0.57458 0.56271 0.0
H96 H 0.05148 0.58311 0.50601 0.0
O97 O 0.08672 0.41986 0.4737 0.0
O98 O 0.12599 0.47005 0.49749 0.0
O99 O 0.08083 0.50002 0.44397 0.0
O100 O 0.083 0.54258 0.48319 0.0
O101 O 1.01452 0.49128 0.48734 0.0
O102 O 0.94442 0.55421 0.48656 0.0
O103 O 0.99282 0.6027 0.48682 0.0
O104 O 0.97538 0.50622 0.51388 0.0
O105 O 0.02349 0.49623 0.56368 0.0
O106 O 0.02962 0.54095 0.60174 0.0
O107 O 0.98015 0.56762 0.55125 0.0
O108 O 0.02061 0.61858 0.57256 0.0
C109 C 0.14346 0.44862 0.57074 0.0
C110 C 0.12341 0.55144 0.55531 0.0
C111 C 0.08888 0.53319 0.45259 0.0
C112 C 0.11853 0.43733 0.4854 0.0
C113 C 0.9593 0.58835 0.47911 0.0
C114 C 0.98275 0.48635 0.49178 0.0
C115 C 0.02034 0.50734 0.5946 0.0
C116 C 0.98823 0.60016 0.56431 0.0
O117 O 0.1593 0.48264 0.56361 0.0
O118 O 0.11024 0.43479 0.56099 0.0
O119 O 0.0917 0.54753 0.55921 0.0
O120 O 0.13024 0.53107 0.53343 0.0
Co121 Co 0.58437 0.95166 0.49161 0.0
Co122 Co 0.60682 0.9818 0.5552 0.0
Co123 Co 0.55091 0.01611 0.51692 0.0
O124 O 0.59124 0.99867 0.51097 0.0
H125 H 0.61018 0.0173 0.50111 0.0
O126 O 0.5108 0.03399 0.52323 0.0
Co127 Co 0.51845 0.08037 0.5452 0.0
Co128 Co 0.49679 0.05448 0.48111 0.0
H129 H 0.4914 0.01512 0.53202 0.0
O130 O 0.6503 0.97441 0.56359 0.0
O131 O 0.6005 0.93531 0.53921 0.0
O132 O 0.57696 0.97461 0.59329 0.0
O133 O 0.53194 0.97948 0.55639 0.0
O134 O 0.58159 0.05139 0.55351 0.0
O135 O 0.52235 0.12119 0.56754 0.0
O136 O 0.47609 0.07038 0.56224 0.0
O137 O 0.5642 0.09703 0.5315 0.0
O138 O 0.57018 0.05253 0.47748 0.0
O139 O 0.52672 0.06396 0.44299 0.0
O140 O 0.50088 0.09961 0.49934 0.0
O141 O 0.45289 0.05871 0.47273 0.0
C142 C 0.61365 0.92734 0.46644 0.0
C143 C 0.51657 0.94651 0.48326 0.0
C144 C 0.54455 0.96853 0.58601 0.0
C145 C 0.63294 0.94227 0.55133 0.0
C146 C 0.49093 0.10326 0.57478 0.0
C147 C 0.58668 0.08551 0.54997 0.0
C148 C 0.55854 0.06643 0.44912 0.0
C149 C 0.46867 0.0911 0.4854 0.0
O150 O 0.58172 0.90968 0.4723 0.0
O151 O 0.62726 0.96118 0.4766 0.0
O152 O 0.52043 0.98048 0.47998 0.0
O153 O 0.53835 0.93587 0.5039 0.0
Co154 Co 0.52391 0.51451 0.09319 0.0
Co155 Co 0.50773 0.44975 0.06621 0.0
Co156 Co 0.56156 0.50815 0.01829 0.0
O157 O 0.51945 0.49594 0.04526 0.0
H158 H 0.49967 0.49911 0.03044 0.0
O159 O 0.60447 0.521 0.99252 0.0
Co160 Co 0.60234 0.50044 0.94684 0.0
Co161 Co 0.61616 0.56621 0.96976 0.0
H162 H 0.62418 0.51916 1.00841 0.0
O163 O 0.46361 0.42581 0.08144 0.0
O164 O 0.509 0.46468 0.11329 0.0
O165 O 0.54237 0.42557 0.06723 0.0
O166 O 0.58312 0.47401 0.04753 0.0
O167 O 0.53531 0.46788 0.98316 0.0
O168 O 0.60398 0.48 0.9056 0.0
O169 O 0.64564 0.49727 0.95197 0.0
O170 O 0.55665 0.50053 0.93645 0.0
O171 O 0.54 0.54219 0.98863 0.0
O172 O 0.58039 0.58919 0.96573 0.0
O173 O 0.61788 0.54916 0.92427 0.0
O174 O 0.66112 0.59036 0.95632 0.0
C175 C 0.49288 0.53179 0.12325 0.0
C176 C 0.59268 0.54081 0.08652 0.0
C177 C 0.57386 0.44242 0.06246 0.0
C178 C 0.47785 0.44166 0.11177 0.0
C179 C 0.63472 0.48164 0.92066 0.0
C180 C 0.53399 0.47355 0.949 0.0
C181 C 0.54913 0.57291 0.97192 0.0
C182 C 0.64899 0.57228 0.92668 0.0
O183 O 0.5239 0.53245 0.13642 0.0
O184 O 0.48063 0.51808 0.0913 0.0
O185 O 0.58777 0.54807 0.05303 0.0
O186 O 0.57047 0.51481 0.10113 0.0
H187 H 0.29944 0.40373 0.42153 0.0
H188 H 0.25499 0.30226 0.47747 0.0
H189 H 0.25491 0.42671 0.43997 0.0
H190 H 0.20986 0.32545 0.49628 0.0
H191 H 0.11221 0.36727 0.46827 0.0
H192 H 0.15914 0.34194 0.46223 0.0
H193 H 0.23463 0.44446 0.49516 0.0
H194 H 0.18808 0.46995 0.50066 0.0
C195 C 0.28025 0.38644 0.43809 0.0
C196 C 0.28031 0.351 0.44792 0.0
C197 C 0.25488 0.39971 0.44888 0.0
C198 C 0.22892 0.37784 0.46954 0.0
C199 C 0.22947 0.34274 0.48015 0.0
C200 C 0.25521 0.32957 0.46961 0.0
C201 C 0.13882 0.38429 0.47446 0.0
C202 C 0.14644 0.42075 0.48442 0.0
C203 C 0.16564 0.36968 0.47134 0.0
C204 C 0.2005 0.39136 0.47796 0.0
C205 C 0.208 0.42729 0.48945 0.0
C206 C 0.18128 0.44183 0.49264 0.0
H207 H 0.74677 0.22096 0.37674 0.0
H208 H 0.66282 0.23899 0.30517 0.0
H209 H 0.70501 0.1707 0.40523 0.0
H210 H 0.62258 0.18641 0.32994 0.0
H211 H 0.55003 0.12396 0.40959 0.0
H212 H 0.59279 0.1702 0.37885 0.0
H213 H 0.66693 0.11183 0.40497 0.0
H214 H 0.62419 0.06658 0.43839 0.0
C215 C 0.71967 0.21415 0.36661 0.0
C216 C 0.70867 0.23467 0.33843 0.0
C217 C 0.69564 0.18468 0.38261 0.0
C218 C 0.66003 0.17438 0.37035 0.0
C219 C 0.64944 0.19384 0.34109 0.0
C220 C 0.67309 0.22383 0.32601 0.0
C221 C 0.57527 0.12063 0.40835 0.0
C222 C 0.5836 0.09142 0.4262 0.0
C223 C 0.59998 0.14722 0.39044 0.0
C224 C 0.63361 0.14495 0.38887 0.0
C225 C 0.64163 0.11502 0.40593 0.0
C226 C 0.61701 0.08878 0.42475 0.0
H227 H 0.79601 0.68613 0.41505 0.0
H228 H 0.84902 0.68861 0.3199 0.0
H229 H 0.83959 0.66491 0.45124 0.0
H230 H 0.89247 0.6671 0.35607 0.0
H231 H 0.97891 0.65202 0.43948 0.0
H232 H 0.94061 0.68401 0.40837 0.0
H233 H 0.85225 0.60552 0.45154 0.0
H234 H 0.89003 0.57362 0.48196 0.0
C235 C 0.81725 0.68266 0.40198 0.0
C236 C 0.81898 0.68884 0.36459 0.0
C237 C 0.84208 0.67032 0.42265 0.0
C238 C 0.86941 0.66428 0.40648 0.0
C239 C 0.8719 0.67181 0.36936 0.0
C240 C 0.84684 0.68375 0.3486 0.0
C241 C 0.95136 0.64195 0.44257 0.0
C242 C 0.93746 0.61018 0.46292 0.0
C243 C 0.92946 0.66011 0.42467 0.0
C244 C 0.89342 0.64723 0.42749 0.0
C245 C 0.87989 0.61633 0.44907 0.0
C246 C 0.90157 0.59791 0.46632 0.0
H247 H 0.35028 0.75581 0.40624 0.0
H248 H 0.40415 0.79643 0.31141 0.0
H249 H 0.38658 0.80886 0.4397 0.0
H250 H 0.44145 0.84979 0.34575 0.0
H251 H 0.48113 0.95538 0.41791 0.0
H252 H 0.43977 0.90708 0.38003 0.0
H253 H 0.44958 0.8272 0.46156 0.0
H254 H 0.4904 0.87476 0.4989 0.0
C255 C 0.36952 0.77637 0.39226 0.0
C256 C 0.37408 0.77186 0.35595 0.0
C257 C 0.39057 0.80668 0.41165 0.0
C258 C 0.41695 0.83344 0.39544 0.0
C259 C 0.42112 0.82969 0.35885 0.0
C260 C 0.40002 0.79902 0.33933 0.0
C261 C 0.47399 0.92753 0.42781 0.0
C262 C 0.48892 0.91888 0.46142 0.0
C263 C 0.45066 0.89991 0.40601 0.0
C264 C 0.44144 0.86337 0.41785 0.0
C265 C 0.45587 0.85508 0.4518 0.0
C266 C 0.47936 0.88238 0.47318 0.0
H267 H 0.2782 0.72421 0.68356 0.0
H268 H 0.3124 0.62946 0.69796 0.0
H269 H 0.22599 0.68861 0.64676 0.0
H270 H 0.26022 0.59393 0.66155 0.0
H271 H 0.19225 0.56011 0.5552 0.0
H272 H 0.24038 0.59591 0.59557 0.0
H273 H 0.17012 0.63424 0.64957 0.0
H274 H 0.12111 0.59768 0.60894 0.0
C275 C 0.27444 0.69572 0.67908 0.0
C276 C 0.29953 0.6797 0.69357 0.0
C277 C 0.24442 0.6753 0.65825 0.0
C278 C 0.23907 0.63853 0.65107 0.0
C279 C 0.26375 0.62231 0.66632 0.0
C280 C 0.29352 0.64258 0.68744 0.0
C281 C 0.18677 0.57607 0.57561 0.0
C282 C 0.15258 0.5757 0.57892 0.0
C283 C 0.2145 0.59648 0.59894 0.0
C284 C 0.20905 0.61753 0.6261 0.0
C285 C 0.17509 0.61821 0.6289 0.0
C286 C 0.14706 0.59729 0.60566 0.0
H287 H 0.41971 0.21362 0.73632 0.0
H288 H 0.37888 0.24396 0.6319 0.0
H289 H 0.44377 0.17343 0.70651 0.0
H290 H 0.40136 0.20234 0.60275 0.0
H291 H 0.42154 0.09692 0.5686 0.0
H292 H 0.39342 0.13206 0.6011 0.0
H293 H 0.49143 0.18551 0.66167 0.0
H294 H 0.51947 0.15125 0.62887 0.0
C295 C 0.41575 0.21184 0.70713 0.0
C296 C 0.39715 0.23229 0.68675 0.0
C297 C 0.42932 0.18851 0.6901 0.0
C298 C 0.42417 0.18452 0.65234 0.0
C299 C 0.40519 0.20436 0.63196 0.0
C300 C 0.39217 0.22817 0.64885 0.0
C301 C 0.43685 0.11582 0.58922 0.0
C302 C 0.47263 0.12129 0.59632 0.0
C303 C 0.42087 0.13607 0.60761 0.0
C304 C 0.44025 0.16144 0.634 0.0
C305 C 0.47577 0.16595 0.64177 0.0
C306 C 0.49183 0.14643 0.62287 0.0
H307 H 0.85312 0.40284 0.72621 0.0
H308 H 0.86798 0.31413 0.67 0.0
H309 H 0.90605 0.44297 0.70707 0.0
H310 H 0.91801 0.35636 0.64537 0.0
H311 H 0.01661 0.43677 0.61191 0.0
H312 H 0.97336 0.39322 0.64618 0.0
H313 H 0.92567 0.47651 0.65973 0.0
H314 H 0.97054 0.51987 0.62913 0.0
C315 C 0.86742 0.39141 0.70989 0.0
C316 C 0.8553 0.35452 0.69984 0.0
C317 C 0.89777 0.4152 0.69778 0.0
C318 C 0.91626 0.40373 0.67341 0.0
C319 C 0.90489 0.36668 0.6641 0.0
C320 C 0.87531 0.34235 0.67766 0.0
C321 C 0.99728 0.44565 0.62329 0.0
C322 C 0.9972 0.48172 0.61849 0.0
C323 C 0.9721 0.42062 0.64251 0.0
C324 C 0.94551 0.43085 0.65609 0.0
C325 C 0.94599 0.4673 0.65119 0.0
C326 C 0.97177 0.49242 0.63326 0.0
H327 H 0.76946 0.80582 0.55804 0.0
H328 H 0.67956 0.74912 0.61362 0.0
H329 H 0.74238 0.8526 0.53764 0.0
H330 H 0.65279 0.79533 0.59371 0.0
H331 H 0.60197 0.87044 0.53549 0.0
H332 H 0.62866 0.82221 0.53958 0.0
H333 H 0.72837 0.90065 0.57132 0.0
H334 H 0.70182 0.94915 0.56671 0.0
C335 C 0.74378 0.80322 0.5654 0.0
C336 C 0.72685 0.77429 0.58763 0.0
C337 C 0.72839 0.8299 0.55395 0.0
C338 C 0.69554 0.82765 0.56422 0.0
C339 C 0.67795 0.79765 0.58505 0.0
C340 C 0.69343 0.77131 0.59671 0.0
C341 C 0.62966 0.87752 0.54298 0.0
C342 C 0.64969 0.91355 0.55136 0.0
C343 C 0.64491 0.84987 0.5453 0.0
C344 C 0.68052 0.85762 0.55607 0.0
C345 C 0.7009 0.8939 0.56272 0.0
C346 C 0.68561 0.9216 0.56048 0.0
H347 H 0.40051 0.28567 0.46682 0.0
H348 H 0.37981 0.23405 0.36266 0.0
H349 H 0.4189 0.23506 0.49371 0.0
H350 H 0.3985 0.18398 0.38924 0.0
H351 H 0.40469 0.0843 0.45052 0.0
H352 H 0.37993 0.13269 0.43293 0.0
H353 H 0.46884 0.21084 0.48873 0.0
H354 H 0.4937 0.16231 0.50669 0.0
C355 C 0.39966 0.26338 0.44979 0.0
C356 C 0.38889 0.26381 0.41263 0.0
C357 C 0.41037 0.2346 0.4651 0.0
C358 C 0.41002 0.20553 0.4436 0.0
C359 C 0.39865 0.20576 0.4066 0.0
C360 C 0.3883 0.2346 0.39128 0.0
C361 C 0.41881 0.11168 0.45952 0.0
C362 C 0.45149 0.11954 0.47947 0.0
C363 C 0.40465 0.13942 0.44928 0.0
C364 C 0.42272 0.17561 0.45894 0.0
C365 C 0.45432 0.18318 0.4809 0.0
C366 C 0.46863 0.1554 0.49102 0.0
H367 H 0.79887 0.39719 0.34421 0.0
H368 H 0.83475 0.30458 0.36908 0.0
H369 H 0.84818 0.43524 0.3827 0.0
H370 H 0.88412 0.34271 0.4078 0.0
H371 H 0.91347 0.47739 0.48908 0.0
H372 H 0.86637 0.4382 0.44965 0.0
H373 H 0.93915 0.39739 0.40301 0.0
H374 H 0.98688 0.43716 0.44251 0.0
C375 C 0.81744 0.38503 0.35769 0.0
C376 C 0.81291 0.34788 0.35363 0.0
C377 C 0.84553 0.40675 0.37994 0.0
C378 C 0.86998 0.39194 0.39836 0.0
C379 C 0.86583 0.35493 0.3938 0.0
C380 C 0.83745 0.33308 0.37188 0.0
C381 C 0.91964 0.46012 0.4705 0.0
C382 C 0.95412 0.46066 0.46886 0.0
C383 C 0.89256 0.43775 0.44775 0.0
C384 C 0.89906 0.41494 0.423 0.0
C385 C 0.93335 0.41465 0.42189 0.0
C386 C 0.96067 0.43747 0.44444 0.0
H387 H 0.69147 0.79455 0.33753 0.0
H388 H 0.76103 0.81258 0.43549 0.0
H389 H 0.6616 0.83363 0.35943 0.0
H390 H 0.73071 0.85174 0.45789 0.0
H391 H 0.68468 0.94632 0.46838 0.0
H392 H 0.71853 0.91134 0.44534 0.0
H393 H 0.62342 0.82855 0.40793 0.0
H394 H 0.58985 0.86327 0.43059 0.0
C395 C 0.7005 0.80703 0.36373 0.0
C396 C 0.7286 0.80052 0.385 0.0
C397 C 0.68326 0.82931 0.37636 0.0
C398 C 0.69367 0.84563 0.41047 0.0
C399 C 0.72229 0.83982 0.43136 0.0
C400 C 0.73951 0.81737 0.4187 0.0
C401 C 0.67109 0.92087 0.45481 0.0
C402 C 0.6346 0.90777 0.45092 0.0
C403 C 0.69045 0.90069 0.44197 0.0
C404 C 0.67364 0.86731 0.42457 0.0
C405 C 0.63717 0.85442 0.42066 0.0
C406 C 0.61792 0.8743 0.43378 0.0
H407 H 0.24484 0.62687 0.3051 0.0
H408 H 0.26922 0.70505 0.39157 0.0
H409 H 0.19244 0.59296 0.33134 0.0
H410 H 0.21426 0.67511 0.41339 0.0
H411 H 0.14225 0.5901 0.47896 0.0
H412 H 0.1892 0.62885 0.44781 0.0
H413 H 0.13793 0.57923 0.34614 0.0
H414 H 0.09229 0.53741 0.37893 0.0
C415 C 0.23922 0.63736 0.32939 0.0
C416 C 0.26268 0.66868 0.34634 0.0
C417 C 0.20822 0.61813 0.34407 0.0
C418 C 0.19882 0.6304 0.37536 0.0
C419 C 0.22081 0.6634 0.39036 0.0
C420 C 0.25248 0.68156 0.37683 0.0
C421 C 0.14069 0.5878 0.44985 0.0
C422 C 0.11353 0.56073 0.43138 0.0
C423 C 0.16775 0.61047 0.43162 0.0
C424 C 0.16797 0.60782 0.39394 0.0
C425 C 0.13956 0.58184 0.37516 0.0
C426 C 0.11299 0.5581 0.3938 0.0
H427 H 0.4548 0.7856 0.72477 0.0
H428 H 0.36437 0.80636 0.66854 0.0
H429 H 0.49156 0.83957 0.69895 0.0
H430 H 0.40232 0.85806 0.63787 0.0
H431 H 0.47935 0.96506 0.60249 0.0
H432 H 0.43976 0.91669 0.63638 0.0
H433 H 0.51606 0.85967 0.64826 0.0
H434 H 0.55584 0.90902 0.61782 0.0
C435 C 0.44236 0.80158 0.70706 0.0
C436 C 0.40599 0.79115 0.69953 0.0
C437 C 0.46396 0.83244 0.69111 0.0
C438 C 0.45041 0.85321 0.66533 0.0
C439 C 0.41403 0.84313 0.6577 0.0
C440 C 0.39213 0.8128 0.67488 0.0
C441 C 0.48765 0.94242 0.61325 0.0
C442 C 0.52093 0.94119 0.60835 0.0
C443 C 0.46484 0.9144 0.63228 0.0
C444 C 0.47451 0.88403 0.64576 0.0
C445 C 0.50775 0.88292 0.63995 0.0
C446 C 0.53075 0.91131 0.62215 0.0
H447 H 0.26431 0.30069 0.63306 0.0
H448 H 0.27377 0.36741 0.72572 0.0
H449 H 0.22317 0.32885 0.60108 0.0
H450 H 0.23287 0.39548 0.6941 0.0
H451 H 0.20684 0.47305 0.60821 0.0
H452 H 0.24125 0.43775 0.63895 0.0
H453 H 0.16175 0.33819 0.60505 0.0
H454 H 0.12669 0.37387 0.57398 0.0
C455 C 0.2571 0.32089 0.64677 0.0
C456 C 0.27216 0.33218 0.68186 0.0
C457 C 0.23355 0.3369 0.62854 0.0
C458 C 0.22512 0.36456 0.64503 0.0
C459 C 0.2392 0.37453 0.68059 0.0
C460 C 0.26239 0.35844 0.69875 0.0
C461 C 0.19653 0.44364 0.60723 0.0
C462 C 0.16383 0.42624 0.589 0.0
C463 C 0.21623 0.42342 0.625 0.0
C464 C 0.204 0.38524 0.62473 0.0
C465 C 0.17171 0.36762 0.60572 0.0
C466 C 0.1516 0.38799 0.58822 0.0
H467 H 0.75816 0.27652 0.62427 0.0
H468 H 0.72799 0.21124 0.71971 0.0
H469 H 0.71872 0.22793 0.58642 0.0
H470 H 0.68778 0.16305 0.68191 0.0
H471 H 0.63482 0.07221 0.60142 0.0
H472 H 0.68276 0.11717 0.63567 0.0
H473 H 0.65542 0.20378 0.57584 0.0
H474 H 0.60808 0.15924 0.54157 0.0
C475 C 0.7435 0.25159 0.63714 0.0
C476 C 0.74611 0.24778 0.67501 0.0
C477 C 0.72065 0.22389 0.61548 0.0
C478 C 0.69994 0.19171 0.63116 0.0
C479 C 0.70354 0.18734 0.66895 0.0
C480 C 0.72631 0.2151 0.69062 0.0
C481 C 0.63933 0.10085 0.59534 0.0
C482 C 0.61749 0.11212 0.56892 0.0
C483 C 0.66666 0.12658 0.61507 0.0
C484 C 0.67287 0.16405 0.60852 0.0
C485 C 0.65166 0.17516 0.58129 0.0
C486 C 0.62431 0.14956 0.5618 0.0
H487 H 0.79926 0.65807 0.57896 0.0
H488 H 0.85702 0.6762 0.68428 0.0
H489 H 0.84694 0.64341 0.55512 0.0
H490 H 0.9045 0.66136 0.66057 0.0
H491 H 0.91814 0.56958 0.54901 0.0
H492 H 0.87227 0.59147 0.56622 0.0
H493 H 0.94937 0.68534 0.61576 0.0
H494 H 0.99545 0.6638 0.59812 0.0
C495 C 0.82231 0.65929 0.59686 0.0
C496 C 0.82446 0.66814 0.63347 0.0
C497 C 0.84943 0.65069 0.58331 0.0
C498 C 0.87938 0.65126 0.60601 0.0
C499 C 0.88186 0.66103 0.64238 0.0
C500 C 0.8546 0.6692 0.65602 0.0
C501 C 0.92539 0.59518 0.56306 0.0
C502 C 0.96049 0.61491 0.57223 0.0
C503 C 0.89907 0.60775 0.57283 0.0
C504 C 0.90729 0.64 0.59248 0.0
C505 C 0.94234 0.6602 0.60091 0.0
C506 C 0.96868 0.6479 0.59069 0.0
H507 H 0.34482 0.35635 0.28679 0.0
H508 H 0.44841 0.35847 0.32801 0.0
H509 H 0.36645 0.3836 0.22989 0.0
H510 H 0.46991 0.38504 0.27088 0.0
H511 H 0.50286 0.46656 0.17993 0.0
H512 H 0.47855 0.44318 0.23647 0.0
H513 H 0.39094 0.36647 0.17725 0.0
H514 H 0.41508 0.3901 0.1204 0.0
C515 C 0.37223 0.36275 0.2837 0.0
C516 C 0.39496 0.35537 0.31187 0.0
C517 C 0.38453 0.37807 0.25104 0.0
C518 C 0.41987 0.38658 0.24598 0.0
C519 C 0.4426 0.37919 0.27416 0.0
C520 C 0.43025 0.36363 0.30671 0.0
C521 C 0.47824 0.44495 0.17883 0.0
C522 C 0.46105 0.42997 0.14561 0.0
C523 C 0.46445 0.43141 0.2113 0.0
C524 C 0.43308 0.40269 0.21132 0.0
C525 C 0.41512 0.38871 0.17807 0.0
C526 C 0.429 0.40218 0.14552 0.0
H527 H 0.36404 0.61213 0.85595 0.0
H528 H 0.45464 0.69351 0.82055 0.0
H529 H 0.40118 0.59055 0.90169 0.0
H530 H 0.49164 0.67125 0.86407 0.0
H531 H 0.55422 0.64411 0.95823 0.0
H532 H 0.51197 0.66795 0.92361 0.0
H533 H 0.44111 0.55845 0.90994 0.0
H534 H 0.48267 0.53514 0.94662 0.0
C535 C 0.39186 0.62534 0.85806 0.0
C536 C 0.40628 0.65467 0.83507 0.0
C537 C 0.41325 0.61292 0.88403 0.0
C538 C 0.44965 0.62925 0.88705 0.0
C539 C 0.46384 0.65854 0.86365 0.0
C540 C 0.44253 0.67123 0.8383 0.0
C541 C 0.52934 0.62528 0.94835 0.0
C542 C 0.52184 0.58779 0.95503 0.0
C543 C 0.50514 0.63884 0.92811 0.0
C544 C 0.47317 0.61517 0.91307 0.0
C545 C 0.46516 0.57772 0.92118 0.0
C546 C 0.48909 0.56425 0.94218 0.0
H547 H 0.39902 0.37515 0.76059 0.0
H548 H 0.42559 0.28429 0.81232 0.0
H549 H 0.42989 0.41369 0.81065 0.0
H550 H 0.45858 0.32401 0.8622 0.0
H551 H 0.49041 0.40345 0.96082 0.0
H552 H 0.45429 0.36037 0.91467 0.0
H553 H 0.48892 0.44152 0.83161 0.0
H554 H 0.52344 0.48408 0.87685 0.0
C555 C 0.41132 0.36323 0.78277 0.0
C556 C 0.40945 0.32637 0.78239 0.0
C557 C 0.42949 0.38559 0.81143 0.0
C558 C 0.447 0.37213 0.8405 0.0
C559 C 0.44515 0.33521 0.84042 0.0
C560 C 0.42665 0.31258 0.8116 0.0
C561 C 0.48982 0.41207 0.93272 0.0
C562 C 0.50975 0.44733 0.92268 0.0
C563 C 0.46945 0.38731 0.90625 0.0
C564 C 0.46851 0.39748 0.86935 0.0
C565 C 0.48835 0.4328 0.85968 0.0
C566 C 0.50844 0.45728 0.88582 0.0
H567 H 0.70241 0.33241 0.80437 0.0
H568 H 0.79691 0.42122 0.82763 0.0
H569 H 0.67103 0.36252 0.83775 0.0
H570 H 0.76543 0.45187 0.86088 0.0
H571 H 0.69979 0.47852 0.94411 0.0
H572 H 0.73368 0.44754 0.91524 0.0
H573 H 0.65297 0.41714 0.82683 0.0
H574 H 0.61907 0.44757 0.85563 0.0
C575 C 0.71656 0.3582 0.81703 0.0
C576 C 0.75215 0.37469 0.81354 0.0
C577 C 0.69853 0.37561 0.83589 0.0
C578 C 0.71568 0.40978 0.85161 0.0
C579 C 0.75155 0.42549 0.84927 0.0
C580 C 0.76954 0.40807 0.83029 0.0
C581 C 0.68939 0.46537 0.91843 0.0
C582 C 0.65663 0.46532 0.9023 0.0
C583 C 0.70883 0.44769 0.90188 0.0
C584 C 0.69579 0.42949 0.86899 0.0
C585 C 0.66341 0.43023 0.85254 0.0
C586 C 0.64409 0.44795 0.86895 0.0
H587 H 0.68682 0.63015 0.70776 0.0
H588 H 0.79177 0.65516 0.75833 0.0
H589 H 0.66448 0.60504 0.7646 0.0
H590 H 0.76935 0.62871 0.81532 0.0
H591 H 0.71045 0.62608 0.91787 0.0
H592 H 0.73823 0.64417 0.86191 0.0
H593 H 0.65974 0.55501 0.80649 0.0
H594 H 0.6314 0.53781 0.86175 0.0
C595 C 0.70514 0.63001 0.73102 0.0
C596 C 0.74104 0.64493 0.72864 0.0
C597 C 0.69235 0.6152 0.76354 0.0
C598 C 0.71513 0.61481 0.79456 0.0
C599 C 0.75112 0.62889 0.792 0.0
C600 C 0.76396 0.6437 0.75931 0.0
C601 C 0.69936 0.61013 0.89383 0.0
C602 C 0.66847 0.58075 0.89424 0.0
C603 C 0.71541 0.62035 0.8618 0.0
C604 C 0.70096 0.60129 0.8296 0.0
C605 C 0.67115 0.57074 0.83061 0.0
C606 C 0.65502 0.56072 0.86245 0.0
H607 H 0.71709 0.61647 0.28467 0.0
H608 H 0.74093 0.7143 0.21933 0.0
H609 H 0.6831 0.58168 0.23312 0.0
H610 H 0.709 0.67935 0.16653 0.0
H611 H 0.61358 0.61459 0.0924 0.0
H612 H 0.65463 0.65101 0.13933 0.0
H613 H 0.68015 0.55507 0.17925 0.0
H614 H 0.63696 0.51868 0.13409 0.0
C615 C 0.71568 0.63029 0.25885 0.0
C616 C 0.73157 0.66796 0.25588 0.0
C617 C 0.69637 0.61034 0.22903 0.0
C618 C 0.6931 0.6274 0.19512 0.0
C619 C 0.71012 0.66513 0.1921 0.0
C620 C 0.72875 0.68522 0.22225 0.0
C621 C 0.62849 0.60163 0.11096 0.0
C622 C 0.62216 0.56396 0.10987 0.0
C623 C 0.65219 0.62247 0.13792 0.0
C624 C 0.67067 0.60615 0.16385 0.0
C625 C 0.66576 0.56866 0.16084 0.0
C626 C 0.64135 0.54775 0.13461 0.0
H627 H 0.37969 0.603 0.27771 0.0
H628 H 0.42487 0.6961 0.21054 0.0
H629 H 0.40281 0.5655 0.24254 0.0
H630 H 0.4473 0.6583 0.17462 0.0
H631 H 0.44538 0.56534 0.09757 0.0
H632 H 0.41813 0.59916 0.13257 0.0
H633 H 0.46755 0.56821 0.23144 0.0
H634 H 0.49549 0.53526 0.19652 0.0
C635 C 0.39441 0.61537 0.25528 0.0
C636 C 0.40049 0.65249 0.24659 0.0
C637 C 0.40765 0.59393 0.23524 0.0
C638 C 0.42654 0.60896 0.20571 0.0
C639 C 0.43247 0.64597 0.197 0.0
C640 C 0.4199 0.6676 0.21757 0.0
C641 C 0.44998 0.56534 0.12679 0.0
C642 C 0.47259 0.54778 0.14434 0.0
C643 C 0.43464 0.5849 0.14675 0.0
C644 C 0.44095 0.58643 0.18464 0.0
C645 C 0.46224 0.56741 0.20227 0.0
C646 C 0.47823 0.54863 0.18229 0.0
H647 H 0.69422 0.31566 0.18028 0.0
H648 H 0.74235 0.42709 0.21331 0.0
H649 H 0.65809 0.33492 0.1324 0.0
H650 H 0.70545 0.4466 0.16589 0.0
H651 H 0.64457 0.47454 0.06719 0.0
H652 H 0.68864 0.4535 0.10228 0.0
H653 H 0.60896 0.35612 0.13244 0.0
H654 H 0.56514 0.37661 0.09686 0.0
C655 C 0.69739 0.3444 0.17699 0.0
C656 C 0.7209 0.37005 0.20074 0.0
C657 C 0.67649 0.35543 0.14967 0.0
C658 C 0.6784 0.39225 0.14558 0.0
C659 C 0.70341 0.41805 0.16801 0.0
C660 C 0.7245 0.40699 0.19523 0.0
C661 C 0.6365 0.44829 0.08072 0.0
C662 C 0.60117 0.42737 0.07928 0.0
C663 C 0.6618 0.43638 0.1011 0.0
C664 C 0.65241 0.40322 0.12043 0.0
C665 C 0.61729 0.38158 0.11759 0.0
C666 C 0.59203 0.39347 0.09728 0.0
loop_
_geom_bond_atom_site_label_1
_geom_bond_atom_site_label_2
_geom_bond_distance
_geom_bond_site_symmetry_2
_ccdc_geom_bond_type
H0 C5 0.929 . S
H1 C10 0.931 . S
H2 C8 0.930 . S
N3 N4 1.234 . S
N3 C7 1.453 . S
N4 N3 1.234 . S
C5 H0 0.929 . S
C5 C6 1.373 . S
C5 C7 1.368 . S
C6 C5 1.373 . S
C6 C10 1.397 . S
C7 N3 1.453 . S
C7 C5 1.368 . S
C7 C8 1.373 . S
C8 H2 0.930 . S
C8 C7 1.373 . S
C8 C9 1.371 . S
C9 C8 1.371 . S
C9 C10 1.383 . S
C10 H1 0.931 . S
C10 C6 1.397 . S
C10 C9 1.383 . S
H11 C16 0.929 . S
H12 C21 0.931 . S
H13 C19 0.930 . S
N14 N15 1.234 . S
N14 C18 1.453 . S
N15 N14 1.234 . S
C16 H11 0.929 . S
C16 C17 1.373 . S
C16 C18 1.368 . S
C17 C16 1.373 . S
C17 C21 1.397 . S
C18 N14 1.453 . S
C18 C16 1.368 . S
C18 C19 1.373 . S
C19 H13 0.930 . S
C19 C18 1.373 . S
C19 C20 1.371 . S
C20 C19 1.371 . S
C20 C21 1.383 . S
C21 H12 0.931 . S
C21 C17 1.397 . S
C21 C20 1.383 . S
H22 C27 0.929 . S
H23 C32 0.931 . S
H24 C30 0.930 . S
N25 N26 1.234 . S
N25 C29 1.453 . S
N26 N25 1.234 . S
C27 H22 0.929 . S
C27 C28 1.373 . S
C27 C29 1.368 . S
C28 C27 1.373 . S
C28 C32 1.397 . S
C29 N25 1.453 . S
C29 C27 1.368 . S
C29 C30 1.373 . S
C30 H24 0.930 . S
C30 C29 1.373 . S
C30 C31 1.371 . S
C31 C30 1.371 . S
C31 C32 1.383 . S
C32 H23 0.931 . S
C32 C28 1.397 . S
C32 C31 1.383 . S
H33 C38 0.929 . S
H34 C43 0.931 . S
H35 C41 0.930 . S
N36 N37 1.234 . S
N36 C40 1.453 . S
N37 N36 1.234 . S
C38 H33 0.929 . S
C38 C39 1.373 . S
C38 C40 1.368 . S
C39 C38 1.373 . S
C39 C43 1.397 . S
C40 N36 1.453 . S
C40 C38 1.368 . S
C40 C41 1.373 . S
C41 H35 0.930 . S
C41 C40 1.373 . S
C41 C42 1.371 . S
C42 C41 1.371 . S
C42 C43 1.383 . S
C43 H34 0.931 . S
C43 C39 1.397 . S
C43 C42 1.383 . S
H44 C49 0.929 . S
H45 C54 0.931 . S
H46 C52 0.930 . S
N47 N48 1.234 . S
N47 C51 1.453 . S
N48 N47 1.234 . S
C49 H44 0.929 . S
C49 C50 1.373 . S
C49 C51 1.368 . S
C50 C49 1.373 . S
C50 C54 1.397 . S
C51 N47 1.453 . S
C51 C49 1.368 . S
C51 C52 1.373 . S
C52 H46 0.930 . S
C52 C51 1.373 . S
C52 C53 1.371 . S
C53 C52 1.371 . S
C53 C54 1.383 . S
C54 H45 0.931 . S
C54 C50 1.397 . S
C54 C53 1.383 . S
H55 C60 0.929 . S
H56 C65 0.931 . S
H57 C63 0.930 . S
N58 N59 1.234 . S
N58 C62 1.453 . S
N59 N58 1.234 . S
C60 H55 0.929 . S
C60 C61 1.373 . S
C60 C62 1.368 . S
C61 C60 1.373 . S
C61 C65 1.397 . S
C62 N58 1.453 . S
C62 C60 1.368 . S
C62 C63 1.373 . S
C63 H57 0.930 . S
C63 C62 1.373 . S
C63 C64 1.371 . S
C64 C63 1.371 . S
C64 C65 1.383 . S
C65 H56 0.931 . S
C65 C61 1.397 . S
C65 C64 1.383 . S
H66 C71 0.929 . S
H67 C76 0.931 . S
H68 C74 0.930 . S
N69 N70 1.234 . S
N69 C73 1.453 . S
N70 N69 1.234 . S
C71 H66 0.929 . S
C71 C72 1.373 . S
C71 C73 1.368 . S
C72 C71 1.373 . S
C72 C76 1.397 . S
C73 N69 1.453 . S
C73 C71 1.368 . S
C73 C74 1.373 . S
C74 H68 0.930 . S
C74 C73 1.373 . S
C74 C75 1.371 . S
C75 C74 1.371 . S
C75 C76 1.383 . S
C76 H67 0.931 . S
C76 C72 1.397 . S
C76 C75 1.383 . S
H77 C82 0.929 . S
H78 C87 0.931 . S
H79 C85 0.930 . S
N80 N81 1.234 . S
N80 C84 1.453 . S
N81 N80 1.234 . S
C82 H77 0.929 . S
C82 C83 1.373 . S
C82 C84 1.368 . S
C83 C82 1.373 . S
C83 C87 1.397 . S
C84 N80 1.453 . S
C84 C82 1.368 . S
C84 C85 1.373 . S
C85 H79 0.930 . S
C85 C84 1.373 . S
C85 C86 1.371 . S
C86 C85 1.371 . S
C86 C87 1.383 . S
C87 H78 0.931 . S
C87 C83 1.397 . S
C87 C86 1.383 . S
Co88 O91 2.042 . S
Co88 O98 2.264 . S
Co88 O117 2.286 . S
Co88 O118 2.069 . S
Co88 O120 2.015 . S
Co89 O91 2.122 . S
Co89 O97 2.073 . S
Co89 O98 2.327 . S
Co89 O99 1.976 . S
Co90 O91 2.087 . S
Co90 O93 2.087 . S
Co90 O100 2.111 . S
Co90 O101 2.143 1_455 S
Co90 O105 2.111 . S
Co90 O119 2.143 . S
O91 Co88 2.042 . S
O91 Co89 2.122 . S
O91 Co90 2.087 . S
O91 H92 0.980 . S
H92 O91 0.980 . S
O93 Co90 2.087 . S
O93 Co94 2.042 1_455 S
O93 Co95 2.122 1_455 S
O93 H96 0.980 . S
Co94 O93 2.042 1_655 S
Co94 O102 2.286 . S
Co94 O103 2.069 . S
Co94 O104 2.015 . S
Co94 O107 2.264 . S
Co95 O93 2.122 1_655 S
Co95 O106 1.976 . S
Co95 O107 2.327 . S
Co95 O108 2.073 . S
H96 O93 0.980 . S
O97 Co89 2.073 . S
O97 C112 1.245 . S
O98 Co88 2.264 . S
O98 Co89 2.327 . S
O98 C112 1.257 . S
O99 Co89 1.976 . S
O99 C111 1.251 . S
O100 Co90 2.111 . S
O100 C111 1.274 . S
O101 Co90 2.143 1_655 S
O101 C114 1.246 . S
O102 Co94 2.286 . S
O102 C113 1.259 . S
O103 Co94 2.069 . S
O103 C113 1.289 . S
O104 Co94 2.015 . S
O104 C114 1.257 . S
O105 Co90 2.111 . S
O105 C115 1.274 1_455 S
O106 Co95 1.976 . S
O106 C115 1.251 . S
O107 Co94 2.264 . S
O107 Co95 2.327 . S
O107 C116 1.257 . S
O108 Co95 2.073 . S
O108 C116 1.245 . S
C109 O117 1.259 . S
C109 O118 1.289 . S
C110 O119 1.246 . S
C110 O120 1.257 . S
C111 O99 1.251 . S
C111 O100 1.274 . S
C112 O97 1.245 . S
C112 O98 1.257 . S
C113 O102 1.259 . S
C113 O103 1.289 . S
C114 O101 1.246 . S
C114 O104 1.257 . S
C115 O105 1.274 1_655 S
C115 O106 1.251 . S
C116 O107 1.257 . S
C116 O108 1.245 . S
O117 Co88 2.286 . S
O117 C109 1.259 . S
O118 Co88 2.069 . S
O118 C109 1.289 . S
O119 Co90 2.143 . S
O119 C110 1.246 . S
O120 Co88 2.015 . S
O120 C110 1.257 . S
Co121 O124 2.042 . S
Co121 O131 2.264 . S
Co121 O150 2.286 . S
Co121 O151 2.069 . S
Co121 O153 2.015 . S
Co122 O124 2.122 . S
Co122 O130 2.073 . S
Co122 O131 2.327 . S
Co122 O132 1.976 . S
Co123 O124 2.087 1_545 S
Co123 O126 2.087 . S
Co123 O133 2.111 1_545 S
Co123 O134 2.143 . S
Co123 O138 2.111 . S
Co123 O152 2.143 1_545 S
O124 Co121 2.042 . S
O124 Co122 2.122 . S
O124 Co123 2.087 1_565 S
O124 H125 0.980 1_565 S
H125 O124 0.980 1_545 S
O126 Co123 2.087 . S
O126 Co127 2.042 . S
O126 Co128 2.122 . S
O126 H129 0.980 . S
Co127 O126 2.042 . S
Co127 O135 2.286 . S
Co127 O136 2.069 . S
Co127 O137 2.015 . S
Co127 O140 2.264 . S
Co128 O126 2.122 . S
Co128 O139 1.976 . S
Co128 O140 2.327 . S
Co128 O141 2.073 . S
H129 O126 0.980 . S
O130 Co122 2.073 . S
O130 C145 1.245 . S
O131 Co121 2.264 . S
O131 Co122 2.327 . S
O131 C145 1.257 . S
O132 Co122 1.976 . S
O132 C144 1.251 . S
O133 Co123 2.111 1_565 S
O133 C144 1.274 . S
O134 Co123 2.143 . S
O134 C147 1.246 . S
O135 Co127 2.286 . S
O135 C146 1.259 . S
O136 Co127 2.069 . S
O136 C146 1.289 . S
O137 Co127 2.015 . S
O137 C147 1.257 . S
O138 Co123 2.111 . S
O138 C148 1.274 . S
O139 Co128 1.976 . S
O139 C148 1.251 . S
O140 Co127 2.264 . S
O140 Co128 2.327 . S
O140 C149 1.257 . S
O141 Co128 2.073 . S
O141 C149 1.245 . S
C142 O150 1.259 . S
C142 O151 1.289 . S
C143 O152 1.246 . S
C143 O153 1.257 . S
C144 O132 1.251 . S
C144 O133 1.274 . S
C145 O130 1.245 . S
C145 O131 1.257 . S
C146 O135 1.259 . S
C146 O136 1.289 . S
C147 O134 1.246 . S
C147 O137 1.257 . S
C148 O138 1.274 . S
C148 O139 1.251 . S
C149 O140 1.257 . S
C149 O141 1.245 . S
O150 Co121 2.286 . S
O150 C142 1.259 . S
O151 Co121 2.069 . S
O151 C142 1.289 . S
O152 Co123 2.143 1_565 S
O152 C143 1.246 . S
O153 Co121 2.015 . S
O153 C143 1.257 . S
Co154 O157 2.042 . S
Co154 O164 2.264 . S
Co154 O183 2.286 . S
Co154 O184 2.069 . S
Co154 O186 2.015 . S
Co155 O157 2.122 . S
Co155 O163 2.073 . S
Co155 O164 2.327 . S
Co155 O165 1.976 . S
Co156 O157 2.087 . S
Co156 O159 2.087 1_554 S
Co156 O166 2.111 . S
Co156 O167 2.143 1_554 S
Co156 O171 2.111 1_554 S
Co156 O185 2.143 . S
O157 Co154 2.042 . S
O157 Co155 2.122 . S
O157 Co156 2.087 . S
O157 H158 0.980 . S
H158 O157 0.980 . S
O159 Co156 2.087 1_556 S
O159 Co160 2.042 . S
O159 Co161 2.122 . S
O159 H162 0.980 . S
Co160 O159 2.042 . S
Co160 O168 2.286 . S
Co160 O169 2.069 . S
Co160 O170 2.015 . S
Co160 O173 2.264 . S
Co161 O159 2.122 . S
Co161 O172 1.976 . S
Co161 O173 2.327 . S
Co161 O174 2.073 . S
H162 O159 0.980 . S
O163 Co155 2.073 . S
O163 C178 1.245 . S
O164 Co154 2.264 . S
O164 Co155 2.327 . S
O164 C178 1.257 . S
O165 Co155 1.976 . S
O165 C177 1.251 . S
O166 Co156 2.111 . S
O166 C177 1.274 . S
O167 Co156 2.143 1_556 S
O167 C180 1.246 . S
O168 Co160 2.286 . S
O168 C179 1.259 . S
O169 Co160 2.069 . S
O169 C179 1.289 . S
O170 Co160 2.015 . S
O170 C180 1.257 . S
O171 Co156 2.111 1_556 S
O171 C181 1.274 . S
O172 Co161 1.976 . S
O172 C181 1.251 . S
O173 Co160 2.264 . S
O173 Co161 2.327 . S
O173 C182 1.257 . S
O174 Co161 2.073 . S
O174 C182 1.245 . S
C175 O183 1.259 . S
C175 O184 1.289 . S
C176 O185 1.246 . S
C176 O186 1.257 . S
C177 O165 1.251 . S
C177 O166 1.274 . S
C178 O163 1.245 . S
C178 O164 1.257 . S
C179 O168 1.259 . S
C179 O169 1.289 . S
C180 O167 1.246 . S
C180 O170 1.257 . S
C181 O171 1.274 . S
C181 O172 1.251 . S
C182 O173 1.257 . S
C182 O174 1.245 . S
O183 Co154 2.286 . S
O183 C175 1.259 . S
O184 Co154 2.069 . S
O184 C175 1.289 . S
O185 Co156 2.143 . S
O185 C176 1.246 . S
O186 Co154 2.015 . S
O186 C176 1.257 . S
H187 C195 0.950 . S
H188 C200 0.950 . S
H189 C197 0.950 . S
H190 C199 0.950 . S
H191 C201 0.950 . S
H192 C203 0.950 . S
H193 C205 0.950 . S
H194 C206 0.950 . S
C195 H187 0.950 . S
C195 C196 1.386 . S
C195 C197 1.391 . S
C196 C195 1.386 . S
C196 C200 1.393 . S
C197 H189 0.950 . S
C197 C195 1.391 . S
C197 C198 1.400 . S
C198 C197 1.400 . S
C198 C199 1.398 . S
C198 C204 1.491 . S
C199 H190 0.950 . S
C199 C198 1.398 . S
C199 C200 1.391 . S
C200 H188 0.950 . S
C200 C196 1.393 . S
C200 C199 1.391 . S
C201 H191 0.950 . S
C201 C202 1.386 . S
C201 C203 1.391 . S
C202 C201 1.386 . S
C202 C206 1.393 . S
C203 H192 0.950 . S
C203 C201 1.391 . S
C203 C204 1.400 . S
C204 C198 1.491 . S
C204 C203 1.400 . S
C204 C205 1.398 . S
C205 H193 0.950 . S
C205 C204 1.398 . S
C205 C206 1.391 . S
C206 H194 0.950 . S
C206 C202 1.393 . S
C206 C205 1.391 . S
H207 C215 0.950 . S
H208 C220 0.950 . S
H209 C217 0.950 . S
H210 C219 0.950 . S
H211 C221 0.950 . S
H212 C223 0.950 . S
H213 C225 0.950 . S
H214 C226 0.950 . S
C215 H207 0.950 . S
C215 C216 1.386 . S
C215 C217 1.391 . S
C216 C215 1.386 . S
C216 C220 1.393 . S
C217 H209 0.950 . S
C217 C215 1.391 . S
C217 C218 1.400 . S
C218 C217 1.400 . S
C218 C219 1.398 . S
C218 C224 1.491 . S
C219 H210 0.950 . S
C219 C218 1.398 . S
C219 C220 1.391 . S
C220 H208 0.950 . S
C220 C216 1.393 . S
C220 C219 1.391 . S
C221 H211 0.950 . S
C221 C222 1.386 . S
C221 C223 1.391 . S
C222 C221 1.386 . S
C222 C226 1.393 . S
C223 H212 0.950 . S
C223 C221 1.391 . S
C223 C224 1.400 . S
C224 C218 1.491 . S
C224 C223 1.400 . S
C224 C225 1.398 . S
C225 H213 0.950 . S
C225 C224 1.398 . S
C225 C226 1.391 . S
C226 H214 0.950 . S
C226 C222 1.393 . S
C226 C225 1.391 . S
H227 C235 0.950 . S
H228 C240 0.950 . S
H229 C237 0.950 . S
H230 C239 0.950 . S
H231 C241 0.950 . S
H232 C243 0.950 . S
H233 C245 0.950 . S
H234 C246 0.950 . S
C235 H227 0.950 . S
C235 C236 1.386 . S
C235 C237 1.391 . S
C236 C235 1.386 . S
C236 C240 1.393 . S
C237 H229 0.950 . S
C237 C235 1.391 . S
C237 C238 1.400 . S
C238 C237 1.400 . S
C238 C239 1.398 . S
C238 C244 1.491 . S
C239 H230 0.950 . S
C239 C238 1.398 . S
C239 C240 1.391 . S
C240 H228 0.950 . S
C240 C236 1.393 . S
C240 C239 1.391 . S
C241 H231 0.950 . S
C241 C242 1.386 . S
C241 C243 1.391 . S
C242 C241 1.386 . S
C242 C246 1.393 . S
C243 H232 0.950 . S
C243 C241 1.391 . S
C243 C244 1.400 . S
C244 C238 1.491 . S
C244 C243 1.400 . S
C244 C245 1.398 . S
C245 H233 0.950 . S
C245 C244 1.398 . S
C245 C246 1.391 . S
C246 H234 0.950 . S
C246 C242 1.393 . S
C246 C245 1.391 . S
H247 C255 0.950 . S
H248 C260 0.950 . S
H249 C257 0.950 . S
H250 C259 0.950 . S
H251 C261 0.950 . S
H252 C263 0.950 . S
H253 C265 0.950 . S
H254 C266 0.950 . S
C255 H247 0.950 . S
C255 C256 1.386 . S
C255 C257 1.391 . S
C256 C255 1.386 . S
C256 C260 1.393 . S
C257 H249 0.950 . S
C257 C255 1.391 . S
C257 C258 1.400 . S
C258 C257 1.400 . S
C258 C259 1.398 . S
C258 C264 1.491 . S
C259 H250 0.950 . S
C259 C258 1.398 . S
C259 C260 1.391 . S
C260 H248 0.950 . S
C260 C256 1.393 . S
C260 C259 1.391 . S
C261 H251 0.950 . S
C261 C262 1.386 . S
C261 C263 1.391 . S
C262 C261 1.386 . S
C262 C266 1.393 . S
C263 H252 0.950 . S
C263 C261 1.391 . S
C263 C264 1.400 . S
C264 C258 1.491 . S
C264 C263 1.400 . S
C264 C265 1.398 . S
C265 H253 0.950 . S
C265 C264 1.398 . S
C265 C266 1.391 . S
C266 H254 0.950 . S
C266 C262 1.393 . S
C266 C265 1.391 . S
H267 C275 0.950 . S
H268 C280 0.950 . S
H269 C277 0.950 . S
H270 C279 0.950 . S
H271 C281 0.950 . S
H272 C283 0.950 . S
H273 C285 0.950 . S
H274 C286 0.950 . S
C275 H267 0.950 . S
C275 C276 1.386 . S
C275 C277 1.391 . S
C276 C275 1.386 . S
C276 C280 1.393 . S
C277 H269 0.950 . S
C277 C275 1.391 . S
C277 C278 1.400 . S
C278 C277 1.400 . S
C278 C279 1.398 . S
C278 C284 1.491 . S
C279 H270 0.950 . S
C279 C278 1.398 . S
C279 C280 1.391 . S
C280 H268 0.950 . S
C280 C276 1.393 . S
C280 C279 1.391 . S
C281 H271 0.950 . S
C281 C282 1.386 . S
C281 C283 1.391 . S
C282 C281 1.386 . S
C282 C286 1.393 . S
C283 H272 0.950 . S
C283 C281 1.391 . S
C283 C284 1.400 . S
C284 C278 1.491 . S
C284 C283 1.400 . S
C284 C285 1.398 . S
C285 H273 0.950 . S
C285 C284 1.398 . S
C285 C286 1.391 . S
C286 H274 0.950 . S
C286 C282 1.393 . S
C286 C285 1.391 . S
H287 C295 0.950 . S
H288 C300 0.950 . S
H289 C297 0.950 . S
H290 C299 0.950 . S
H291 C301 0.950 . S
H292 C303 0.950 . S
H293 C305 0.950 . S
H294 C306 0.950 . S
C295 H287 0.950 . S
C295 C296 1.386 . S
C295 C297 1.391 . S
C296 C295 1.386 . S
C296 C300 1.393 . S
C297 H289 0.950 . S
C297 C295 1.391 . S
C297 C298 1.400 . S
C298 C297 1.400 . S
C298 C299 1.398 . S
C298 C304 1.491 . S
C299 H290 0.950 . S
C299 C298 1.398 . S
C299 C300 1.391 . S
C300 H288 0.950 . S
C300 C296 1.393 . S
C300 C299 1.391 . S
C301 H291 0.950 . S
C301 C302 1.386 . S
C301 C303 1.391 . S
C302 C301 1.386 . S
C302 C306 1.393 . S
C303 H292 0.950 . S
C303 C301 1.391 . S
C303 C304 1.400 . S
C304 C298 1.491 . S
C304 C303 1.400 . S
C304 C305 1.398 . S
C305 H293 0.950 . S
C305 C304 1.398 . S
C305 C306 1.391 . S
C306 H294 0.950 . S
C306 C302 1.393 . S
C306 C305 1.391 . S
H307 C315 0.950 . S
H308 C320 0.950 . S
H309 C317 0.950 . S
H310 C319 0.950 . S
H311 C321 0.950 . S
H312 C323 0.950 . S
H313 C325 0.950 . S
H314 C326 0.950 . S
C315 H307 0.950 . S
C315 C316 1.386 . S
C315 C317 1.391 . S
C316 C315 1.386 . S
C316 C320 1.393 . S
C317 H309 0.950 . S
C317 C315 1.391 . S
C317 C318 1.400 . S
C318 C317 1.400 . S
C318 C319 1.398 . S
C318 C324 1.491 . S
C319 H310 0.950 . S
C319 C318 1.398 . S
C319 C320 1.391 . S
C320 H308 0.950 . S
C320 C316 1.393 . S
C320 C319 1.391 . S
C321 H311 0.950 . S
C321 C322 1.386 . S
C321 C323 1.391 . S
C322 C321 1.386 . S
C322 C326 1.393 . S
C323 H312 0.950 . S
C323 C321 1.391 . S
C323 C324 1.400 . S
C324 C318 1.491 . S
C324 C323 1.400 . S
C324 C325 1.398 . S
C325 H313 0.950 . S
C325 C324 1.398 . S
C325 C326 1.391 . S
C326 H314 0.950 . S
C326 C322 1.393 . S
C326 C325 1.391 . S
H327 C335 0.950 . S
H328 C340 0.950 . S
H329 C337 0.950 . S
H330 C339 0.950 . S
H331 C341 0.950 . S
H332 C343 0.950 . S
H333 C345 0.950 . S
H334 C346 0.950 . S
C335 H327 0.950 . S
C335 C336 1.386 . S
C335 C337 1.391 . S
C336 C335 1.386 . S
C336 C340 1.393 . S
C337 H329 0.950 . S
C337 C335 1.391 . S
C337 C338 1.400 . S
C338 C337 1.400 . S
C338 C339 1.398 . S
C338 C344 1.491 . S
C339 H330 0.950 . S
C339 C338 1.398 . S
C339 C340 1.391 . S
C340 H328 0.950 . S
C340 C336 1.393 . S
C340 C339 1.391 . S
C341 H331 0.950 . S
C341 C342 1.386 . S
C341 C343 1.391 . S
C342 C341 1.386 . S
C342 C346 1.393 . S
C343 H332 0.950 . S
C343 C341 1.391 . S
C343 C344 1.400 . S
C344 C338 1.491 . S
C344 C343 1.400 . S
C344 C345 1.398 . S
C345 H333 0.950 . S
C345 C344 1.398 . S
C345 C346 1.391 . S
C346 H334 0.950 . S
C346 C342 1.393 . S
C346 C345 1.391 . S
H347 C355 0.950 . S
H348 C360 0.950 . S
H349 C357 0.950 . S
H350 C359 0.950 . S
H351 C361 0.950 . S
H352 C363 0.950 . S
H353 C365 0.950 . S
H354 C366 0.950 . S
C355 H347 0.950 . S
C355 C356 1.386 . S
C355 C357 1.391 . S
C356 C355 1.386 . S
C356 C360 1.393 . S
C357 H349 0.950 . S
C357 C355 1.391 . S
C357 C358 1.400 . S
C358 C357 1.400 . S
C358 C359 1.398 . S
C358 C364 1.491 . S
C359 H350 0.950 . S
C359 C358 1.398 . S
C359 C360 1.391 . S
C360 H348 0.950 . S
C360 C356 1.393 . S
C360 C359 1.391 . S
C361 H351 0.950 . S
C361 C362 1.386 . S
C361 C363 1.391 . S
C362 C361 1.386 . S
C362 C366 1.393 . S
C363 H352 0.950 . S
C363 C361 1.391 . S
C363 C364 1.400 . S
C364 C358 1.491 . S
C364 C363 1.400 . S
C364 C365 1.398 . S
C365 H353 0.950 . S
C365 C364 1.398 . S
C365 C366 1.391 . S
C366 H354 0.950 . S
C366 C362 1.393 . S
C366 C365 1.391 . S
H367 C375 0.950 . S
H368 C380 0.950 . S
H369 C377 0.950 . S
H370 C379 0.950 . S
H371 C381 0.950 . S
H372 C383 0.950 . S
H373 C385 0.950 . S
H374 C386 0.950 . S
C375 H367 0.950 . S
C375 C376 1.386 . S
C375 C377 1.391 . S
C376 C375 1.386 . S
C376 C380 1.393 . S
C377 H369 0.950 . S
C377 C375 1.391 . S
C377 C378 1.400 . S
C378 C377 1.400 . S
C378 C379 1.398 . S
C378 C384 1.491 . S
C379 H370 0.950 . S
C379 C378 1.398 . S
C379 C380 1.391 . S
C380 H368 0.950 . S
C380 C376 1.393 . S
C380 C379 1.391 . S
C381 H371 0.950 . S
C381 C382 1.386 . S
C381 C383 1.391 . S
C382 C381 1.386 . S
C382 C386 1.393 . S
C383 H372 0.950 . S
C383 C381 1.391 . S
C383 C384 1.400 . S
C384 C378 1.491 . S
C384 C383 1.400 . S
C384 C385 1.398 . S
C385 H373 0.950 . S
C385 C384 1.398 . S
C385 C386 1.391 . S
C386 H374 0.950 . S
C386 C382 1.393 . S
C386 C385 1.391 . S
H387 C395 0.950 . S
H388 C400 0.950 . S
H389 C397 0.950 . S
H390 C399 0.950 . S
H391 C401 0.950 . S
H392 C403 0.950 . S
H393 C405 0.950 . S
H394 C406 0.950 . S
C395 H387 0.950 . S
C395 C396 1.386 . S
C395 C397 1.391 . S
C396 C395 1.386 . S
C396 C400 1.393 . S
C397 H389 0.950 . S
C397 C395 1.391 . S
C397 C398 1.400 . S
C398 C397 1.400 . S
C398 C399 1.398 . S
C398 C404 1.491 . S
C399 H390 0.950 . S
C399 C398 1.398 . S
C399 C400 1.391 . S
C400 H388 0.950 . S
C400 C396 1.393 . S
C400 C399 1.391 . S
C401 H391 0.950 . S
C401 C402 1.386 . S
C401 C403 1.391 . S
C402 C401 1.386 . S
C402 C406 1.393 . S
C403 H392 0.950 . S
C403 C401 1.391 . S
C403 C404 1.400 . S
C404 C398 1.491 . S
C404 C403 1.400 . S
C404 C405 1.398 . S
C405 H393 0.950 . S
C405 C404 1.398 . S
C405 C406 1.391 . S
C406 H394 0.950 . S
C406 C402 1.393 . S
C406 C405 1.391 . S
H407 C415 0.950 . S
H408 C420 0.950 . S
H409 C417 0.950 . S
H410 C419 0.950 . S
H411 C421 0.950 . S
H412 C423 0.950 . S
H413 C425 0.950 . S
H414 C426 0.950 . S
C415 H407 0.950 . S
C415 C416 1.386 . S
C415 C417 1.391 . S
C416 C415 1.386 . S
C416 C420 1.393 . S
C417 H409 0.950 . S
C417 C415 1.391 . S
C417 C418 1.400 . S
C418 C417 1.400 . S
C418 C419 1.398 . S
C418 C424 1.491 . S
C419 H410 0.950 . S
C419 C418 1.398 . S
C419 C420 1.391 . S
C420 H408 0.950 . S
C420 C416 1.393 . S
C420 C419 1.391 . S
C421 H411 0.950 . S
C421 C422 1.386 . S
C421 C423 1.391 . S
C422 C421 1.386 . S
C422 C426 1.393 . S
C423 H412 0.950 . S
C423 C421 1.391 . S
C423 C424 1.400 . S
C424 C418 1.491 . S
C424 C423 1.400 . S
C424 C425 1.398 . S
C425 H413 0.950 . S
C425 C424 1.398 . S
C425 C426 1.391 . S
C426 H414 0.950 . S
C426 C422 1.393 . S
C426 C425 1.391 . S
H427 C435 0.950 . S
H428 C440 0.950 . S
H429 C437 0.950 . S
H430 C439 0.950 . S
H431 C441 0.950 . S
H432 C443 0.950 . S
H433 C445 0.950 . S
H434 C446 0.950 . S
C435 H427 0.950 . S
C435 C436 1.386 . S
C435 C437 1.391 . S
C436 C435 1.386 . S
C436 C440 1.393 . S
C437 H429 0.950 . S
C437 C435 1.391 . S
C437 C438 1.400 . S
C438 C437 1.400 . S
C438 C439 1.398 . S
C438 C444 1.491 . S
C439 H430 0.950 . S
C439 C438 1.398 . S
C439 C440 1.391 . S
C440 H428 0.950 . S
C440 C436 1.393 . S
C440 C439 1.391 . S
C441 H431 0.950 . S
C441 C442 1.386 . S
C441 C443 1.391 . S
C442 C441 1.386 . S
C442 C446 1.393 . S
C443 H432 0.950 . S
C443 C441 1.391 . S
C443 C444 1.400 . S
C444 C438 1.491 . S
C444 C443 1.400 . S
C444 C445 1.398 . S
C445 H433 0.950 . S
C445 C444 1.398 . S
C445 C446 1.391 . S
C446 H434 0.950 . S
C446 C442 1.393 . S
C446 C445 1.391 . S
H447 C455 0.950 . S
H448 C460 0.950 . S
H449 C457 0.950 . S
H450 C459 0.950 . S
H451 C461 0.950 . S
H452 C463 0.950 . S
H453 C465 0.950 . S
H454 C466 0.950 . S
C455 H447 0.950 . S
C455 C456 1.386 . S
C455 C457 1.391 . S
C456 C455 1.386 . S
C456 C460 1.393 . S
C457 H449 0.950 . S
C457 C455 1.391 . S
C457 C458 1.400 . S
C458 C457 1.400 . S
C458 C459 1.398 . S
C458 C464 1.491 . S
C459 H450 0.950 . S
C459 C458 1.398 . S
C459 C460 1.391 . S
C460 H448 0.950 . S
C460 C456 1.393 . S
C460 C459 1.391 . S
C461 H451 0.950 . S
C461 C462 1.386 . S
C461 C463 1.391 . S
C462 C461 1.386 . S
C462 C466 1.393 . S
C463 H452 0.950 . S
C463 C461 1.391 . S
C463 C464 1.400 . S
C464 C458 1.491 . S
C464 C463 1.400 . S
C464 C465 1.398 . S
C465 H453 0.950 . S
C465 C464 1.398 . S
C465 C466 1.391 . S
C466 H454 0.950 . S
C466 C462 1.393 . S
C466 C465 1.391 . S
H467 C475 0.950 . S
H468 C480 0.950 . S
H469 C477 0.950 . S
H470 C479 0.950 . S
H471 C481 0.950 . S
H472 C483 0.950 . S
H473 C485 0.950 . S
H474 C486 0.950 . S
C475 H467 0.950 . S
C475 C476 1.386 . S
C475 C477 1.391 . S
C476 C475 1.386 . S
C476 C480 1.393 . S
C477 H469 0.950 . S
C477 C475 1.391 . S
C477 C478 1.400 . S
C478 C477 1.400 . S
C478 C479 1.398 . S
C478 C484 1.491 . S
C479 H470 0.950 . S
C479 C478 1.398 . S
C479 C480 1.391 . S
C480 H468 0.950 . S
C480 C476 1.393 . S
C480 C479 1.391 . S
C481 H471 0.950 . S
C481 C482 1.386 . S
C481 C483 1.391 . S
C482 C481 1.386 . S
C482 C486 1.393 . S
C483 H472 0.950 . S
C483 C481 1.391 . S
C483 C484 1.400 . S
C484 C478 1.491 . S
C484 C483 1.400 . S
C484 C485 1.398 . S
C485 H473 0.950 . S
C485 C484 1.398 . S
C485 C486 1.391 . S
C486 H474 0.950 . S
C486 C482 1.393 . S
C486 C485 1.391 . S
H487 C495 0.950 . S
H488 C500 0.950 . S
H489 C497 0.950 . S
H490 C499 0.950 . S
H491 C501 0.950 . S
H492 C503 0.950 . S
H493 C505 0.950 . S
H494 C506 0.950 . S
C495 H487 0.950 . S
C495 C496 1.386 . S
C495 C497 1.391 . S
C496 C495 1.386 . S
C496 C500 1.393 . S
C497 H489 0.950 . S
C497 C495 1.391 . S
C497 C498 1.400 . S
C498 C497 1.400 . S
C498 C499 1.398 . S
C498 C504 1.491 . S
C499 H490 0.950 . S
C499 C498 1.398 . S
C499 C500 1.391 . S
C500 H488 0.950 . S
C500 C496 1.393 . S
C500 C499 1.391 . S
C501 H491 0.950 . S
C501 C502 1.386 . S
C501 C503 1.391 . S
C502 C501 1.386 . S
C502 C506 1.393 . S
C503 H492 0.950 . S
C503 C501 1.391 . S
C503 C504 1.400 . S
C504 C498 1.491 . S
C504 C503 1.400 . S
C504 C505 1.398 . S
C505 H493 0.950 . S
C505 C504 1.398 . S
C505 C506 1.391 . S
C506 H494 0.950 . S
C506 C502 1.393 . S
C506 C505 1.391 . S
H507 C515 0.950 . S
H508 C520 0.950 . S
H509 C517 0.950 . S
H510 C519 0.950 . S
H511 C521 0.950 . S
H512 C523 0.950 . S
H513 C525 0.950 . S
H514 C526 0.950 . S
C515 H507 0.950 . S
C515 C516 1.386 . S
C515 C517 1.391 . S
C516 C515 1.386 . S
C516 C520 1.393 . S
C517 H509 0.950 . S
C517 C515 1.391 . S
C517 C518 1.400 . S
C518 C517 1.400 . S
C518 C519 1.398 . S
C518 C524 1.491 . S
C519 H510 0.950 . S
C519 C518 1.398 . S
C519 C520 1.391 . S
C520 H508 0.950 . S
C520 C516 1.393 . S
C520 C519 1.391 . S
C521 H511 0.950 . S
C521 C522 1.386 . S
C521 C523 1.391 . S
C522 C521 1.386 . S
C522 C526 1.393 . S
C523 H512 0.950 . S
C523 C521 1.391 . S
C523 C524 1.400 . S
C524 C518 1.491 . S
C524 C523 1.400 . S
C524 C525 1.398 . S
C525 H513 0.950 . S
C525 C524 1.398 . S
C525 C526 1.391 . S
C526 H514 0.950 . S
C526 C522 1.393 . S
C526 C525 1.391 . S
H527 C535 0.950 . S
H528 C540 0.950 . S
H529 C537 0.950 . S
H530 C539 0.950 . S
H531 C541 0.950 . S
H532 C543 0.950 . S
H533 C545 0.950 . S
H534 C546 0.950 . S
C535 H527 0.950 . S
C535 C536 1.386 . S
C535 C537 1.391 . S
C536 C535 1.386 . S
C536 C540 1.393 . S
C537 H529 0.950 . S
C537 C535 1.391 . S
C537 C538 1.400 . S
C538 C537 1.400 . S
C538 C539 1.398 . S
C538 C544 1.491 . S
C539 H530 0.950 . S
C539 C538 1.398 . S
C539 C540 1.391 . S
C540 H528 0.950 . S
C540 C536 1.393 . S
C540 C539 1.391 . S
C541 H531 0.950 . S
C541 C542 1.386 . S
C541 C543 1.391 . S
C542 C541 1.386 . S
C542 C546 1.393 . S
C543 H532 0.950 . S
C543 C541 1.391 . S
C543 C544 1.400 . S
C544 C538 1.491 . S
C544 C543 1.400 . S
C544 C545 1.398 . S
C545 H533 0.950 . S
C545 C544 1.398 . S
C545 C546 1.391 . S
C546 H534 0.950 . S
C546 C542 1.393 . S
C546 C545 1.391 . S
H547 C555 0.950 . S
H548 C560 0.950 . S
H549 C557 0.950 . S
H550 C559 0.950 . S
H551 C561 0.950 . S
H552 C563 0.950 . S
H553 C565 0.950 . S
H554 C566 0.950 . S
C555 H547 0.950 . S
C555 C556 1.386 . S
C555 C557 1.391 . S
C556 C555 1.386 . S
C556 C560 1.393 . S
C557 H549 0.950 . S
C557 C555 1.391 . S
C557 C558 1.400 . S
C558 C557 1.400 . S
C558 C559 1.398 . S
C558 C564 1.491 . S
C559 H550 0.950 . S
C559 C558 1.398 . S
C559 C560 1.391 . S
C560 H548 0.950 . S
C560 C556 1.393 . S
C560 C559 1.391 . S
C561 H551 0.950 . S
C561 C562 1.386 . S
C561 C563 1.391 . S
C562 C561 1.386 . S
C562 C566 1.393 . S
C563 H552 0.950 . S
C563 C561 1.391 . S
C563 C564 1.400 . S
C564 C558 1.491 . S
C564 C563 1.400 . S
C564 C565 1.398 . S
C565 H553 0.950 . S
C565 C564 1.398 . S
C565 C566 1.391 . S
C566 H554 0.950 . S
C566 C562 1.393 . S
C566 C565 1.391 . S
H567 C575 0.950 . S
H568 C580 0.950 . S
H569 C577 0.950 . S
H570 C579 0.950 . S
H571 C581 0.950 . S
H572 C583 0.950 . S
H573 C585 0.950 . S
H574 C586 0.950 . S
C575 H567 0.950 . S
C575 C576 1.386 . S
C575 C577 1.391 . S
C576 C575 1.386 . S
C576 C580 1.393 . S
C577 H569 0.950 . S
C577 C575 1.391 . S
C577 C578 1.400 . S
C578 C577 1.400 . S
C578 C579 1.398 . S
C578 C584 1.491 . S
C579 H570 0.950 . S
C579 C578 1.398 . S
C579 C580 1.391 . S
C580 H568 0.950 . S
C580 C576 1.393 . S
C580 C579 1.391 . S
C581 H571 0.950 . S
C581 C582 1.386 . S
C581 C583 1.391 . S
C582 C581 1.386 . S
C582 C586 1.393 . S
C583 H572 0.950 . S
C583 C581 1.391 . S
C583 C584 1.400 . S
C584 C578 1.491 . S
C584 C583 1.400 . S
C584 C585 1.398 . S
C585 H573 0.950 . S
C585 C584 1.398 . S
C585 C586 1.391 . S
C586 H574 0.950 . S
C586 C582 1.393 . S
C586 C585 1.391 . S
H587 C595 0.950 . S
H588 C600 0.950 . S
H589 C597 0.950 . S
H590 C599 0.950 . S
H591 C601 0.950 . S
H592 C603 0.950 . S
H593 C605 0.950 . S
H594 C606 0.950 . S
C595 H587 0.950 . S
C595 C596 1.386 . S
C595 C597 1.391 . S
C596 C595 1.386 . S
C596 C600 1.393 . S
C597 H589 0.950 . S
C597 C595 1.391 . S
C597 C598 1.400 . S
C598 C597 1.400 . S
C598 C599 1.398 . S
C598 C604 1.491 . S
C599 H590 0.950 . S
C599 C598 1.398 . S
C599 C600 1.391 . S
C600 H588 0.950 . S
C600 C596 1.393 . S
C600 C599 1.391 . S
C601 H591 0.950 . S
C601 C602 1.386 . S
C601 C603 1.391 . S
C602 C601 1.386 . S
C602 C606 1.393 . S
C603 H592 0.950 . S
C603 C601 1.391 . S
C603 C604 1.400 . S
C604 C598 1.491 . S
C604 C603 1.400 . S
C604 C605 1.398 . S
C605 H593 0.950 . S
C605 C604 1.398 . S
C605 C606 1.391 . S
C606 H594 0.950 . S
C606 C602 1.393 . S
C606 C605 1.391 . S
H607 C615 0.950 . S
H608 C620 0.950 . S
H609 C617 0.950 . S
H610 C619 0.950 . S
H611 C621 0.950 . S
H612 C623 0.950 . S
H613 C625 0.950 . S
H614 C626 0.950 . S
C615 H607 0.950 . S
C615 C616 1.386 . S
C615 C617 1.391 . S
C616 C615 1.386 . S
C616 C620 1.393 . S
C617 H609 0.950 . S
C617 C615 1.391 . S
C617 C618 1.400 . S
C618 C617 1.400 . S
C618 C619 1.398 . S
C618 C624 1.491 . S
C619 H610 0.950 . S
C619 C618 1.398 . S
C619 C620 1.391 . S
C620 H608 0.950 . S
C620 C616 1.393 . S
C620 C619 1.391 . S
C621 H611 0.950 . S
C621 C622 1.386 . S
C621 C623 1.391 . S
C622 C621 1.386 . S
C622 C626 1.393 . S
C623 H612 0.950 . S
C623 C621 1.391 . S
C623 C624 1.400 . S
C624 C618 1.491 . S
C624 C623 1.400 . S
C624 C625 1.398 . S
C625 H613 0.950 . S
C625 C624 1.398 . S
C625 C626 1.391 . S
C626 H614 0.950 . S
C626 C622 1.393 . S
C626 C625 1.391 . S
H627 C635 0.950 . S
H628 C640 0.950 . S
H629 C637 0.950 . S
H630 C639 0.950 . S
H631 C641 0.950 . S
H632 C643 0.950 . S
H633 C645 0.950 . S
H634 C646 0.950 . S
C635 H627 0.950 . S
C635 C636 1.386 . S
C635 C637 1.391 . S
C636 C635 1.386 . S
C636 C640 1.393 . S
C637 H629 0.950 . S
C637 C635 1.391 . S
C637 C638 1.400 . S
C638 C637 1.400 . S
C638 C639 1.398 . S
C638 C644 1.491 . S
C639 H630 0.950 . S
C639 C638 1.398 . S
C639 C640 1.391 . S
C640 H628 0.950 . S
C640 C636 1.393 . S
C640 C639 1.391 . S
C641 H631 0.950 . S
C641 C642 1.386 . S
C641 C643 1.391 . S
C642 C641 1.386 . S
C642 C646 1.393 . S
C643 H632 0.950 . S
C643 C641 1.391 . S
C643 C644 1.400 . S
C644 C638 1.491 . S
C644 C643 1.400 . S
C644 C645 1.398 . S
C645 H633 0.950 . S
C645 C644 1.398 . S
C645 C646 1.391 . S
C646 H634 0.950 . S
C646 C642 1.393 . S
C646 C645 1.391 . S
H647 C655 0.950 . S
H648 C660 0.950 . S
H649 C657 0.950 . S
H650 C659 0.950 . S
H651 C661 0.950 . S
H652 C663 0.950 . S
H653 C665 0.950 . S
H654 C666 0.950 . S
C655 H647 0.950 . S
C655 C656 1.386 . S
C655 C657 1.391 . S
C656 C655 1.386 . S
C656 C660 1.393 . S
C657 H649 0.950 . S
C657 C655 1.391 . S
C657 C658 1.400 . S
C658 C657 1.400 . S
C658 C659 1.398 . S
C658 C664 1.491 . S
C659 H650 0.950 . S
C659 C658 1.398 . S
C659 C660 1.391 . S
C660 H648 0.950 . S
C660 C656 1.393 . S
C660 C659 1.391 . S
C661 H651 0.950 . S
C661 C662 1.386 . S
C661 C663 1.391 . S
C662 C661 1.386 . S
C662 C666 1.393 . S
C663 H652 0.950 . S
C663 C661 1.391 . S
C663 C664 1.400 . S
C664 C658 1.491 . S
C664 C663 1.400 . S
C664 C665 1.398 . S
C665 H653 0.950 . S
C665 C664 1.398 . S
C665 C666 1.391 . S
C666 H654 0.950 . S
C666 C662 1.393 . S
C666 C665 1.391 . S
C202 C112 1.399 . S
C196 N4 1.469 . S
C222 C148 1.309 . S
C216 C17 1.412 . S
C242 C113 1.638 . S
C236 C31 1.638 . S
C262 C143 1.559 . S
C256 C42 1.607 . S
C282 C110 1.422 . S
C276 C53 1.481 . S
C296 C61 1.855 . S
C302 C146 1.854 . S
C316 C75 0.804 . S
C322 C115 0.800 . S
C342 C145 1.457 . S
C336 N81 1.523 . S
C362 C149 1.753 . S
C356 C9 1.798 . S
C382 C114 1.156 . S
C376 C20 1.190 . S
C402 C142 1.593 . S
C396 N26 1.580 . S
C422 C111 1.159 . S
C416 C39 1.282 . S
C442 C144 1.660 . S
C436 C50 1.791 . S
C456 N59 1.306 . S
C462 C109 1.288 . S
C476 C72 1.169 . S
C482 C147 1.121 . S
C502 C116 1.450 . S
C496 C86 1.529 . S
C522 C178 1.841 . S
C516 C6 1.934 . S
C536 N48 1.930 . S
C542 C181 1.810 . S
C562 C180 1.914 . S
C556 C64 1.985 . S
C576 N70 1.323 . S
C582 C179 1.303 . S
C602 C182 1.881 . S
C596 C83 2.021 . S
C616 C28 1.865 . S
C622 C176 1.792 . S
C642 C175 1.956 . S
C636 N37 1.983 . S
C656 N15 1.205 . S
C662 C177 1.153 . S
