# Generated by pormake.
# Topology tsx, (6,3)-cn, num edge types: 1
# Building blocks:
#     Node 0, Type 0, BuildingBlock: JUFBIX_clean_sbu_0, # of connection points: 6
#     Node 1, Type 0, BuildingBlock: JUFBIX_clean_sbu_0, # of connection points: 6
#     Node 2, Type 1, BuildingBlock: KAKCAD_clean_linker_0, # of connection points: 3
#     Node 3, Type 1, BuildingBlock: KAKCAD_clean_linker_0, # of connection points: 3
#     Node 4, Type 1, BuildingBlock: KAKCAD_clean_linker_0, # of connection points: 3
#     Node 5, Type 1, BuildingBlock: KAKCAD_clean_linker_0, # of connection points: 3
#     Edge 6, Type (0, 1), BuildingBlock: OJICUG_clean_linker_0, # of connection points: 2
#     Edge 7, Type (0, 1), BuildingBlock: OJICUG_clean_linker_0, # of connection points: 2
#     Edge 8, Type (0, 1), BuildingBlock: OJICUG_clean_linker_0, # of connection points: 2
#     Edge 9, Type (0, 1), BuildingBlock: OJICUG_clean_linker_0, # of connection points: 2
#     Edge 10, Type (0, 1), BuildingBlock: OJICUG_clean_linker_0, # of connection points: 2
#     Edge 11, Type (0, 1), BuildingBlock: OJICUG_clean_linker_0, # of connection points: 2
#     Edge 12, Type (0, 1), BuildingBlock: OJICUG_clean_linker_0, # of connection points: 2
#     Edge 13, Type (0, 1), BuildingBlock: OJICUG_clean_linker_0, # of connection points: 2
#     Edge 14, Type (0, 1), BuildingBlock: OJICUG_clean_linker_0, # of connection points: 2
#     Edge 15, Type (0, 1), BuildingBlock: OJICUG_clean_linker_0, # of connection points: 2
#     Edge 16, Type (0, 1), BuildingBlock: OJICUG_clean_linker_0, # of connection points: 2
#     Edge 17, Type (0, 1), BuildingBlock: OJICUG_clean_linker_0, # of connection points: 2
# Relax obj value: 0.159
# Max RMSD: 0.169
# Mean RMSD: 0.137
data_MOF--net-tsx--node1-JUFBIX_clean_sbu_0--node2-KAKCAD_clean_linker_0--edge1-OJICUG_clean_linker_0
_symmetry_space_group_name_H-M    P1
_symmetry_Int_Tables_number       1
_symmetry_cell_setting            triclinic
loop_
_symmetry_equiv_pos_as_xyz
'x, y, z'
_cell_length_a     18.523155
_cell_length_b     22.52478
_cell_length_c     34.724266
_cell_angle_alpha  93.231937
_cell_angle_beta   88.124516
_cell_angle_gamma 99.427522
loop_
_atom_site_label
_atom_site_type_symbol
_atom_site_fract_x
_atom_site_fract_y
_atom_site_fract_z
_atom_type_partial_charge
Co0 Co 0.07349 0.99064 -0.00061 0.0
C1 C 1.01846 0.02454 0.93099 0.0
Co2 Co 0.98525 0.04607 0.00708 0.0
C3 C 0.16174 0.89461 0.00061 0.0
C4 C 0.21445 0.97106 0.97063 0.0
N5 N 0.15199 0.94952 0.98986 0.0
N6 N 0.22827 0.88192 0.98934 0.0
C7 C 0.26148 0.9299 0.97052 0.0
H8 H 0.12136 0.86485 0.01672 0.0
H9 H 0.22518 0.01398 0.9573 0.0
C10 C 0.0413 0.01204 0.07536 0.0
N11 N 0.90633 0.0863 0.01779 0.0
C12 C 0.88331 0.13171 0.00029 0.0
C13 C 0.85705 0.0729 0.0468 0.0
N14 N 0.82205 0.14726 0.01762 0.0
C15 C 0.80564 0.11028 0.04687 0.0
C16 C 0.93848 0.92062 0.00135 0.0
O17 O 0.0823 0.98479 0.05313 0.0
O18 O 0.99666 0.04117 0.06086 0.0
O19 O 0.91941 0.97227 0.00572 0.0
O20 O 1.00612 0.91688 -0.00246 0.0
O21 O 0.97562 0.05053 0.95305 0.0
H22 H 0.85768 0.03737 0.06642 0.0
H23 H 0.91086 0.15285 0.97541 0.0
O24 O 0.06426 0.99656 0.94572 0.0
O25 O 0.13947 0.06545 0.00158 0.0
O26 O 0.05139 0.11976 0.00837 0.0
C27 C 0.1193 0.11683 0.00528 0.0
H28 H 0.31535 0.9342 0.95686 0.0
H29 H 0.75846 0.10902 0.06622 0.0
Co30 Co 0.58049 0.49023 0.49975 0.0
C31 C 0.52542 0.52317 0.43113 0.0
Co32 Co 0.4921 0.54554 0.50714 0.0
C33 C 0.66811 0.39388 0.50126 0.0
C34 C 0.72212 0.47054 0.47191 0.0
N35 N 0.65905 0.44902 0.49062 0.0
N36 N 0.73477 0.38102 0.49044 0.0
C37 C 0.76881 0.42913 0.47201 0.0
H38 H 0.62712 0.36405 0.51696 0.0
H39 H 0.73351 0.51358 0.45877 0.0
C40 C 0.54802 0.51251 0.57567 0.0
N41 N 0.41317 0.58583 0.51751 0.0
C42 C 0.39057 0.63131 0.4999 0.0
C43 C 0.36358 0.57258 0.5464 0.0
N44 N 0.32926 0.64706 0.51704 0.0
C45 C 0.31239 0.61012 0.54628 0.0
C46 C 0.44545 0.42015 0.50194 0.0
O47 O 0.58912 0.48505 0.55362 0.0
O48 O 0.50335 0.54137 0.56095 0.0
O49 O 0.42637 0.4718 0.50608 0.0
O50 O 0.5131 0.4164 0.49819 0.0
O51 O 0.48259 0.54929 0.45311 0.0
H52 H 0.36393 0.53709 0.56609 0.0
H53 H 0.4185 0.6524 0.47509 0.0
O54 O 0.57141 0.49547 0.44595 0.0
O55 O 0.64642 0.56514 0.50165 0.0
O56 O 0.55807 0.6192 0.50812 0.0
C57 C 0.62602 0.61645 0.5051 0.0
H58 H 0.823 0.43332 0.45874 0.0
H59 H 0.26506 0.60904 0.56552 0.0
C60 C 0.01912 0.94041 0.2567 0.0
C61 C 0.03758 0.99697 0.24074 0.0
C62 C 1.01015 0.93615 0.2966 0.0
C63 C 0.01997 0.98835 0.32131 0.0
C64 C 0.04031 0.04478 0.30527 0.0
C65 C 0.04873 0.04904 0.26541 0.0
C66 C 1.00848 0.98409 0.36363 0.0
C67 C 0.03348 0.93851 0.3828 0.0
C68 C 0.02418 0.9347 0.42299 0.0
C69 C 0.98879 0.97727 0.44406 0.0
C70 C 0.96503 0.0239 0.42531 0.0
C71 C 0.97432 0.02662 0.38519 0.0
C72 C 0.9347 0.07279 0.44707 0.0
C73 C 0.86742 0.06156 0.46724 0.0
C74 C 0.96998 0.13235 0.44399 0.0
C75 C 0.93716 0.18021 0.45919 0.0
C76 C 0.86805 0.16973 0.47794 0.0
C77 C 0.05752 0.8892 0.44254 0.0
C78 C 0.05531 0.83091 0.42539 0.0
C79 C 0.09896 0.90559 0.47582 0.0
C80 C 0.1411 0.86586 0.49004 0.0
C81 C 0.14281 0.80923 0.47111 0.0
C82 C 0.09776 0.7915 0.43939 0.0
C83 C 0.83428 0.10969 0.48261 0.0
H84 H 1.0094 0.89962 0.23827 0.0
H85 H 0.99376 0.89206 0.30801 0.0
H86 H 0.04995 0.08575 0.32353 0.0
H87 H 0.06396 0.09314 0.25384 0.0
H88 H 0.06327 0.90747 0.36651 0.0
H89 H 0.95465 0.06216 0.3708 0.0
H90 H 0.98147 0.97504 0.47492 0.0
H91 H 0.83896 0.01584 0.46947 0.0
H92 H 0.02188 0.14194 0.4284 0.0
H93 H 0.9645 0.22554 0.45432 0.0
H94 H 0.0226 0.81647 0.40024 0.0
H95 H 0.1022 0.95027 0.48958 0.0
H96 H 0.78142 0.09993 0.49716 0.0
H97 H 0.09647 0.7475 0.42488 0.0
H98 H 0.17514 0.88064 0.51465 0.0
C99 C 1.00884 0.08161 0.74604 0.0
C100 C 1.01275 0.02851 0.76471 0.0
C101 C 1.01144 0.08176 0.70574 0.0
C102 C 1.01762 0.02873 0.68337 0.0
C103 C 0.0205 0.97553 0.7021 0.0
C104 C 1.01801 0.97541 0.74227 0.0
C105 C 0.02146 0.02865 0.64061 0.0
C106 C 0.06495 0.07581 0.62176 0.0
C107 C 0.07001 0.07515 0.58124 0.0
C108 C 0.03018 0.027 0.5595 0.0
C109 C 0.98678 0.97955 0.57808 0.0
C110 C 0.98276 0.98059 0.61846 0.0
C111 C 0.94383 0.9287 0.55609 0.0
C112 C 0.88296 0.93749 0.53552 0.0
C113 C 0.95764 0.87005 0.56004 0.0
C114 C 0.90927 0.82058 0.54523 0.0
C115 C 0.84587 0.82884 0.5263 0.0
C116 C 0.11876 0.12421 0.5621 0.0
C117 C 0.11845 0.18443 0.57479 0.0
C118 C 0.16909 0.11115 0.53291 0.0
C119 C 0.22028 0.1574 0.51792 0.0
C120 C 0.22129 0.2175 0.53151 0.0
C121 C 0.16901 0.23053 0.55965 0.0
C122 C 0.83453 0.88799 0.52052 0.0
H123 H 1.0053 0.12332 0.76257 0.0
H124 H 1.00833 0.12331 0.6921 0.0
H125 H 0.02593 0.93407 0.68571 0.0
H126 H 0.02027 0.9336 0.7558 0.0
H127 H 0.09692 0.11214 0.63867 0.0
H128 H 0.94806 0.94426 0.6326 0.0
H129 H 0.03324 0.02654 0.52835 0.0
H130 H 0.87107 0.98251 0.53275 0.0
H131 H 1.00419 0.86247 0.57612 0.0
H132 H 0.91952 0.77586 0.55066 0.0
H133 H 0.07982 0.19579 0.59701 0.0
H134 H 0.17064 0.06501 0.52272 0.0
H135 H 0.78692 0.89603 0.50558 0.0
H136 H 0.16877 0.27627 0.57102 0.0
H137 H 0.25955 0.14612 0.49604 0.0
C138 C 0.52091 0.44163 0.75696 0.0
C139 C 0.54099 0.49813 0.74112 0.0
C140 C 0.51022 0.43738 0.79678 0.0
C141 C 0.5199 0.48954 0.82153 0.0
C142 C 0.54195 0.54589 0.80564 0.0
C143 C 0.5521 0.55014 0.76585 0.0
C144 C 0.50651 0.48532 0.86374 0.0
C145 C 0.52978 0.43934 0.88328 0.0
C146 C 0.51874 0.43557 0.92339 0.0
C147 C 0.48332 0.47857 0.94399 0.0
C148 C 0.46123 0.52562 0.92488 0.0
C149 C 0.47224 0.52824 0.88483 0.0
C150 C 0.43059 0.57481 0.94622 0.0
C151 C 0.36441 0.56356 0.96742 0.0
C152 C 0.46464 0.63449 0.94203 0.0
C153 C 0.43162 0.6823 0.95711 0.0
C154 C 0.36355 0.6717 0.97688 0.0
C155 C 0.55055 0.38967 0.94336 0.0
C156 C 0.54754 0.33119 0.9264 0.0
C157 C 0.5919 0.4059 0.97667 0.0
C158 C 0.63342 0.36583 -0.00895 0.0
C159 C 0.63458 0.30905 0.97222 0.0
C160 C 0.58936 0.29144 0.94055 0.0
C161 C 0.33102 0.61167 0.98262 0.0
H162 H 0.51116 0.4009 0.73847 0.0
H163 H 0.49258 0.39336 0.80808 0.0
H164 H 0.55153 0.5868 0.82396 0.0
H165 H 0.56854 0.5942 0.75438 0.0
H166 H 0.55962 0.40792 0.8674 0.0
H167 H 0.45376 0.564 0.8701 0.0
H168 H 0.47471 0.47634 0.97478 0.0
H169 H 0.33691 0.51777 0.9706 0.0
H170 H 0.51578 0.64416 0.92577 0.0
H171 H 0.45795 0.72763 0.95144 0.0
H172 H 0.51491 0.31694 0.90119 0.0
H173 H 0.59577 0.45073 -0.00975 0.0
H174 H 0.27896 0.60187 -0.00204 0.0
H175 H 0.58765 0.24734 0.92612 0.0
H176 H 0.66759 0.38053 0.01563 0.0
C177 C 0.51285 0.57915 0.2463 0.0
C178 C 0.51771 0.52614 0.26485 0.0
C179 C 0.51419 0.57927 0.20602 0.0
C180 C 0.52009 0.52632 0.18352 0.0
C181 C 0.52415 0.47322 0.20212 0.0
C182 C 0.52293 0.47312 0.24231 0.0
C183 C 0.52216 0.52628 0.14076 0.0
C184 C 0.56437 0.57373 0.1216 0.0
C185 C 0.56718 0.57354 0.08108 0.0
C186 C 0.5264 0.52552 0.05966 0.0
C187 C 0.48434 0.47769 0.07852 0.0
C188 C 0.48262 0.47828 0.11892 0.0
C189 C 0.44024 0.42705 0.05683 0.0
C190 C 0.37968 0.43645 0.03621 0.0
C191 C 0.45292 0.36811 0.06095 0.0
C192 C 0.40385 0.31904 0.04623 0.0
C193 C 0.34081 0.32796 0.02721 0.0
C194 C 0.61452 0.62304 0.06161 0.0
C195 C 0.61421 0.68306 0.07475 0.0
C196 C 0.66381 0.61058 0.03175 0.0
C197 C 0.71416 0.65722 0.01656 0.0
C198 C 0.71533 0.71712 0.03065 0.0
C199 C 0.6639 0.72956 0.05941 0.0
C200 C 0.33047 0.38733 0.02134 0.0
H201 H 0.50937 0.62081 0.2629 0.0
H202 H 0.51019 0.62075 0.19249 0.0
H203 H 0.52937 0.43182 0.18561 0.0
H204 H 0.52594 0.43138 0.25575 0.0
H205 H 0.59699 0.61003 0.13825 0.0
H206 H 0.44887 0.44175 0.13334 0.0
H207 H 0.52767 0.5255 0.02852 0.0
H208 H 0.36867 0.48169 0.03323 0.0
H209 H 0.49925 0.36003 0.07701 0.0
H210 H 0.41332 0.27413 0.05171 0.0
H211 H 0.57635 0.69395 0.0975 0.0
H212 H 0.66532 0.5646 0.0212 0.0
H213 H 0.28313 0.39584 0.00635 0.0
H214 H 0.6638 0.77512 0.07117 0.0
H215 H 0.75276 0.64639 -0.0058 0.0
C216 C 0.24901 0.16891 -0.001 0.0
C217 C 0.17489 0.17215 0.00725 0.0
H218 H 0.35919 0.21582 -0.0025 0.0
C219 C 0.15514 0.22818 0.01883 0.0
H220 H 0.26601 0.12657 0.98953 0.0
C221 C 0.20876 0.27931 0.02379 0.0
C222 C 0.28329 0.27562 0.01701 0.0
H223 H 0.0985 0.23219 0.02537 0.0
H224 H 0.19193 0.3211 0.03458 0.0
C225 C 0.30252 0.22008 0.00366 0.0
C226 C 0.21592 0.77097 0.98506 0.0
C227 C 0.25783 0.82762 -0.00628 0.0
H228 H 0.21666 0.6769 0.97239 0.0
C229 C 0.33188 0.83115 0.00238 0.0
H230 H 0.15875 0.76734 0.97812 0.0
C231 C 0.36482 0.77957 -4e-05 0.0
C232 C 0.32478 0.72338 0.98793 0.0
H233 H 0.36488 0.87436 0.00969 0.0
H234 H 0.42258 0.78425 0.00587 0.0
C235 C 0.2492 0.71925 0.98194 0.0
C236 C 0.90069 0.80905 0.00743 0.0
C237 C 0.88182 0.86627 0.00333 0.0
H238 H 0.86247 0.71668 0.01941 0.0
C239 C 0.80741 0.87228 0.00408 0.0
H240 H 0.95754 0.803 0.00694 0.0
C241 C 0.75325 0.82304 0.01095 0.0
C242 C 0.77211 0.76659 0.01734 0.0
H243 H 0.79086 0.91557 0.00053 0.0
H244 H 0.69654 0.82957 0.01234 0.0
C245 C 0.84624 0.7596 0.0144 0.0
C246 C 0.77372 0.20245 0.96737 0.0
C247 C 0.7792 0.19102 0.00638 0.0
H248 H 0.72337 0.2486 0.92603 0.0
C249 C 0.73867 0.22036 0.03427 0.0
H250 H 0.80386 0.18022 0.94526 0.0
C251 C 0.69243 0.2593 0.02333 0.0
C252 C 0.68524 0.26927 0.98422 0.0
H253 H 0.74246 0.21292 0.06461 0.0
H254 H 0.66104 0.28052 0.04538 0.0
C255 C 0.72695 0.24096 0.95638 0.0
C256 C 0.66099 0.72788 0.51825 0.0
C257 C 0.68127 0.67196 0.50688 0.0
H258 H 0.69692 0.82099 0.5337 0.0
C259 C 0.75549 0.66911 0.49866 0.0
H260 H 0.60427 0.7316 0.52478 0.0
C261 C 0.80859 0.7206 0.50312 0.0
C262 C 0.78883 0.77607 0.51626 0.0
H263 H 0.77286 0.62684 0.48936 0.0
H264 H 0.86536 0.71667 0.49697 0.0
C265 C 0.71418 0.7793 0.52304 0.0
C266 C 0.83718 0.32924 0.50411 0.0
C267 C 0.76359 0.32636 0.49471 0.0
H268 H 0.92703 0.28156 0.50825 0.0
C269 C 0.72154 0.27007 0.48526 0.0
H270 H 0.87025 0.37216 0.51203 0.0
C271 C 0.75432 0.21812 0.48211 0.0
C272 C 0.82954 0.2216 0.4889 0.0
H273 H 0.66472 0.26697 0.47773 0.0
H274 H 0.72177 0.17614 0.47194 0.0
C275 C 0.8696 0.27739 0.5017 0.0
C276 C 0.40738 0.3088 0.50891 0.0
C277 C 0.38874 0.36588 0.50404 0.0
H278 H 0.36867 0.21677 0.52158 0.0
C279 C 0.31437 0.37193 0.50412 0.0
H280 H 0.4642 0.30273 0.50895 0.0
C281 C 0.25998 0.32291 0.51108 0.0
C282 C 0.27854 0.26665 0.51824 0.0
H283 H 0.29801 0.4151 0.49995 0.0
H284 H 0.2033 0.32948 0.51191 0.0
C285 C 0.35268 0.25956 0.51598 0.0
C286 C 0.28186 0.70255 0.46664 0.0
C287 C 0.28685 0.69103 0.50568 0.0
H288 H 0.23211 0.74887 0.42515 0.0
C289 C 0.24621 0.72048 0.53345 0.0
H290 H 0.3121 0.68025 0.44462 0.0
C291 C 0.20025 0.75954 0.52237 0.0
C292 C 0.19348 0.76956 0.48324 0.0
H293 H 0.24964 0.71298 0.5638 0.0
H294 H 0.1687 0.78076 0.54435 0.0
C295 C 0.23538 0.74121 0.45551 0.0
C296 C 1.00684 0.04766 0.14162 0.0
C297 C 0.04366 0.00942 0.11764 0.0
H298 H 0.9762 0.07352 0.19925 0.0
C299 C 0.08038 0.9679 0.13447 0.0
H300 H 0.97804 0.08017 0.12955 0.0
C301 C 0.07896 0.96395 0.17455 0.0
C302 C 0.04162 0.00198 0.19841 0.0
H303 H 0.10909 0.93779 0.11669 0.0
H304 H 0.10714 0.9313 0.1869 0.0
C305 C 1.0061 0.04413 0.18156 0.0
C306 C 0.06404 0.99677 0.86515 0.0
C307 C 1.01625 0.02642 0.88856 0.0
H308 H 0.101 0.97502 0.80801 0.0
C309 C 0.96743 0.05758 0.87097 0.0
H310 H 0.10271 0.97262 0.87771 0.0
C311 C 0.96634 0.05872 0.83071 0.0
C312 C 1.01382 0.02851 0.8074 0.0
H313 H 0.93001 0.08094 0.88824 0.0
H314 H 0.92764 0.08244 0.81783 0.0
C315 C 0.06284 0.99782 0.82512 0.0
C316 C 0.51368 0.5492 0.64168 0.0
C317 C 0.55008 0.51031 0.61799 0.0
H318 H 0.48246 0.57567 0.69908 0.0
C319 C 0.58574 0.46841 0.63512 0.0
H320 H 0.48572 0.58203 0.62935 0.0
C321 C 0.5835 0.46463 0.67523 0.0
C322 C 0.54641 0.50321 0.6988 0.0
H323 H 0.6141 0.4378 0.61756 0.0
H324 H 0.61073 0.43159 0.68783 0.0
C325 C 0.51214 0.54585 0.68164 0.0
C326 C 0.47359 0.5555 0.37119 0.0
C327 C 0.5228 0.52463 0.3887 0.0
H328 H 0.43296 0.57986 0.31816 0.0
C329 C 0.5704 0.49489 0.36521 0.0
H330 H 0.43627 0.57887 0.38851 0.0
C331 C 0.56867 0.49566 0.32515 0.0
C332 C 0.51932 0.52616 0.30754 0.0
H333 H 0.60932 0.47094 0.37772 0.0
H334 H 0.6067 0.47284 0.30796 0.0
C335 C 0.47197 0.55634 0.33095 0.0
loop_
_geom_bond_atom_site_label_1
_geom_bond_atom_site_label_2
_geom_bond_distance
_geom_bond_site_symmetry_2
_ccdc_geom_bond_type
Co0 N5 2.057 . S
Co0 O17 2.021 . S
Co0 O20 2.062 1_455 S
Co0 O24 2.117 1_554 S
Co0 O25 2.020 1_565 S
C1 O21 1.259 1_455 S
C1 O24 1.258 1_545 S
Co2 N11 2.057 . S
Co2 O18 2.117 . S
Co2 O19 2.020 1_545 S
Co2 O21 2.021 1_554 S
Co2 O26 2.062 1_655 S
C3 N5 1.316 . S
C3 N6 1.347 . S
C3 H8 0.931 . S
C4 N5 1.375 1_556 S
C4 C7 1.350 . S
C4 H9 0.930 . S
N5 Co0 2.057 . S
N5 C3 1.316 . S
N5 C4 1.375 1_554 S
N6 C3 1.347 . S
N6 C7 1.373 1_554 S
C7 C4 1.350 . S
C7 N6 1.373 1_556 S
C7 H28 0.931 . S
H8 C3 0.931 . S
H9 C4 0.930 . S
C10 O17 1.259 1_545 S
C10 O18 1.258 1_455 S
N11 Co2 2.057 . S
N11 C12 1.316 . S
N11 C13 1.375 . S
C12 N11 1.316 . S
C12 N14 1.347 . S
C12 H23 0.931 1_554 S
C13 N11 1.375 . S
C13 C15 1.350 . S
C13 H22 0.930 . S
N14 C12 1.347 . S
N14 C15 1.373 . S
C15 C13 1.350 . S
C15 N14 1.373 . S
C15 H29 0.931 . S
C16 O19 1.256 . S
C16 O20 1.255 . S
O17 Co0 2.021 . S
O17 C10 1.259 1_565 S
O18 Co2 2.117 . S
O18 C10 1.258 1_655 S
O19 Co2 2.020 1_565 S
O19 C16 1.256 . S
O20 Co0 2.062 1_655 S
O20 C16 1.255 . S
O21 C1 1.259 1_655 S
O21 Co2 2.021 1_556 S
H22 C13 0.930 . S
H23 C12 0.931 1_556 S
O24 Co0 2.117 1_556 S
O24 C1 1.258 1_565 S
O25 Co0 2.020 1_545 S
O25 C27 1.256 . S
O26 Co2 2.062 1_455 S
O26 C27 1.255 . S
C27 O25 1.256 . S
C27 O26 1.255 . S
H28 C7 0.931 . S
H29 C15 0.931 . S
Co30 N35 2.057 . S
Co30 O47 2.021 . S
Co30 O50 2.062 . S
Co30 O54 2.117 . S
Co30 O55 2.020 . S
C31 O51 1.259 . S
C31 O54 1.258 . S
Co32 N41 2.057 . S
Co32 O48 2.117 . S
Co32 O49 2.020 . S
Co32 O51 2.021 . S
Co32 O56 2.062 . S
C33 N35 1.316 . S
C33 N36 1.347 . S
C33 H38 0.931 . S
C34 N35 1.375 . S
C34 C37 1.350 . S
C34 H39 0.930 . S
N35 Co30 2.057 . S
N35 C33 1.316 . S
N35 C34 1.375 . S
N36 C33 1.347 . S
N36 C37 1.373 . S
C37 C34 1.350 . S
C37 N36 1.373 . S
C37 H58 0.931 . S
H38 C33 0.931 . S
H39 C34 0.930 . S
C40 O47 1.259 . S
C40 O48 1.258 . S
N41 Co32 2.057 . S
N41 C42 1.316 . S
N41 C43 1.375 . S
C42 N41 1.316 . S
C42 N44 1.347 . S
C42 H53 0.931 . S
C43 N41 1.375 . S
C43 C45 1.350 . S
C43 H52 0.930 . S
N44 C42 1.347 . S
N44 C45 1.373 . S
C45 C43 1.350 . S
C45 N44 1.373 . S
C45 H59 0.931 . S
C46 O49 1.256 . S
C46 O50 1.255 . S
O47 Co30 2.021 . S
O47 C40 1.259 . S
O48 Co32 2.117 . S
O48 C40 1.258 . S
O49 Co32 2.020 . S
O49 C46 1.256 . S
O50 Co30 2.062 . S
O50 C46 1.255 . S
O51 C31 1.259 . S
O51 Co32 2.021 . S
H52 C43 0.930 . S
H53 C42 0.931 . S
O54 Co30 2.117 . S
O54 C31 1.258 . S
O55 Co30 2.020 . S
O55 C57 1.256 . S
O56 Co32 2.062 . S
O56 C57 1.255 . S
C57 O55 1.256 . S
C57 O56 1.255 . S
H58 C37 0.931 . S
H59 C45 0.931 . S
C60 C61 1.374 1_665 S
C60 C62 1.397 . S
C60 H84 0.931 . S
C61 C60 1.374 1_445 S
C61 C65 1.408 . S
C62 C60 1.397 . S
C62 C63 1.378 1_665 S
C62 H85 0.930 . S
C63 C62 1.378 1_445 S
C63 C64 1.384 . S
C63 C66 1.481 . S
C64 C63 1.384 . S
C64 C65 1.389 . S
C64 H86 0.929 . S
C65 C61 1.408 . S
C65 C64 1.389 . S
C65 H87 0.931 . S
C66 C63 1.481 . S
C66 C67 1.391 1_545 S
C66 C71 1.386 1_455 S
C67 C66 1.391 1_565 S
C67 C68 1.401 . S
C67 H88 0.930 . S
C68 C67 1.401 . S
C68 C69 1.376 1_465 S
C68 C77 1.511 . S
C69 C68 1.376 1_645 S
C69 C70 1.392 . S
C69 H90 0.931 . S
C70 C69 1.392 . S
C70 C71 1.361 . S
C70 C72 1.500 . S
C71 C66 1.386 1_655 S
C71 C70 1.361 . S
C71 H89 0.931 . S
C72 C70 1.500 . S
C72 C73 1.371 . S
C72 C74 1.365 . S
C73 C72 1.371 . S
C73 C83 1.386 . S
C73 H91 0.931 . S
C74 C72 1.365 . S
C74 C75 1.409 . S
C74 H92 0.929 . S
C75 C74 1.409 . S
C75 C76 1.380 . S
C75 H93 0.930 . S
C76 C75 1.380 . S
C76 C83 1.357 . S
C77 C68 1.511 . S
C77 C78 1.341 . S
C77 C79 1.371 . S
C78 C77 1.341 . S
C78 C82 1.394 . S
C78 H94 0.930 . S
C79 C77 1.371 . S
C79 C80 1.392 . S
C79 H95 0.931 . S
C80 C79 1.392 . S
C80 C81 1.331 . S
C80 H98 0.932 . S
C81 C80 1.331 . S
C81 C82 1.336 . S
C82 C78 1.394 . S
C82 C81 1.336 . S
C82 H97 0.929 . S
C83 C73 1.386 . S
C83 C76 1.357 . S
C83 H96 0.928 . S
H84 C60 0.931 . S
H85 C62 0.930 . S
H86 C64 0.929 . S
H87 C65 0.931 . S
H88 C67 0.930 . S
H89 C71 0.931 . S
H90 C69 0.931 . S
H91 C73 0.931 . S
H92 C74 0.929 . S
H93 C75 0.930 . S
H94 C78 0.930 . S
H95 C79 0.931 . S
H96 C83 0.928 . S
H97 C82 0.929 . S
H98 C80 0.932 . S
C99 C100 1.386 . S
C99 C101 1.397 . S
C99 H123 0.931 . S
C100 C99 1.386 . S
C100 C104 1.397 1_545 S
C101 C99 1.397 . S
C101 C102 1.384 . S
C101 H124 0.930 . S
C102 C101 1.384 . S
C102 C103 1.377 1_545 S
C102 C105 1.481 . S
C103 C102 1.377 1_565 S
C103 C104 1.389 . S
C103 H125 0.929 . S
C104 C100 1.397 1_565 S
C104 C103 1.389 . S
C104 H126 0.931 . S
C105 C102 1.481 . S
C105 C106 1.387 . S
C105 C110 1.390 1_445 S
C106 C105 1.387 . S
C106 C107 1.401 . S
C106 H127 0.930 . S
C107 C106 1.401 . S
C107 C108 1.385 . S
C107 C116 1.511 . S
C108 C107 1.385 . S
C108 C109 1.385 1_445 S
C108 H129 0.930 1_455 S
C109 C108 1.385 1_665 S
C109 C110 1.361 . S
C109 C111 1.500 . S
C110 C105 1.390 1_665 S
C110 C109 1.361 . S
C110 H128 0.931 . S
C111 C109 1.500 . S
C111 C112 1.371 . S
C111 C113 1.365 . S
C112 C111 1.371 . S
C112 C122 1.386 . S
C112 H130 0.931 . S
C113 C111 1.365 . S
C113 C114 1.409 . S
C113 H131 0.929 . S
C114 C113 1.409 . S
C114 C115 1.380 . S
C114 H132 0.930 . S
C115 C114 1.380 . S
C115 C122 1.357 . S
C116 C107 1.511 . S
C116 C117 1.341 . S
C116 C118 1.371 . S
C117 C116 1.341 . S
C117 C121 1.394 . S
C117 H133 0.930 . S
C118 C116 1.371 . S
C118 C119 1.392 . S
C118 H134 0.931 . S
C119 C118 1.392 . S
C119 C120 1.331 . S
C119 H137 0.932 . S
C120 C119 1.331 . S
C120 C121 1.336 . S
C121 C117 1.394 . S
C121 C120 1.336 . S
C121 H136 0.929 . S
C122 C112 1.386 . S
C122 C115 1.357 . S
C122 H135 0.928 . S
H123 C99 0.931 . S
H124 C101 0.930 . S
H125 C103 0.929 . S
H126 C104 0.931 . S
H127 C106 0.930 . S
H128 C110 0.931 . S
H129 C108 0.930 1_655 S
H130 C112 0.931 . S
H131 C113 0.929 . S
H132 C114 0.930 . S
H133 C117 0.930 . S
H134 C118 0.931 . S
H135 C122 0.928 . S
H136 C121 0.929 . S
H137 C119 0.932 . S
C138 C139 1.386 . S
C138 C140 1.397 . S
C138 H162 0.931 . S
C139 C138 1.386 . S
C139 C143 1.397 . S
C140 C138 1.397 . S
C140 C141 1.384 . S
C140 H163 0.930 . S
C141 C140 1.384 . S
C141 C142 1.377 . S
C141 C144 1.481 . S
C142 C141 1.377 . S
C142 C143 1.389 . S
C142 H164 0.929 . S
C143 C139 1.397 . S
C143 C142 1.389 . S
C143 H165 0.931 . S
C144 C141 1.481 . S
C144 C145 1.387 . S
C144 C149 1.390 . S
C145 C144 1.387 . S
C145 C146 1.401 . S
C145 H166 0.930 . S
C146 C145 1.401 . S
C146 C147 1.376 . S
C146 C155 1.511 . S
C147 C146 1.376 . S
C147 C148 1.392 . S
C147 H168 0.931 . S
C148 C147 1.392 . S
C148 C149 1.361 . S
C148 C150 1.500 . S
C149 C144 1.390 . S
C149 C148 1.361 . S
C149 H167 0.931 . S
C150 C148 1.500 . S
C150 C151 1.375 . S
C150 C152 1.365 . S
C151 C150 1.375 . S
C151 C161 1.384 1_556 S
C151 H169 0.929 1_556 S
C152 C150 1.365 . S
C152 C153 1.409 . S
C152 H170 0.929 . S
C153 C152 1.409 . S
C153 C154 1.380 1_556 S
C153 H171 0.930 . S
C154 C153 1.380 1_554 S
C154 C161 1.357 . S
C155 C146 1.511 . S
C155 C156 1.341 . S
C155 C157 1.371 1_556 S
C156 C155 1.341 . S
C156 C160 1.394 . S
C156 H172 0.930 . S
C157 C155 1.371 1_554 S
C157 C158 1.392 . S
C157 H173 0.931 . S
C158 C157 1.392 . S
C158 C159 1.331 . S
C158 H176 0.932 . S
C159 C158 1.331 . S
C159 C160 1.336 1_554 S
C160 C156 1.394 . S
C160 C159 1.336 1_556 S
C160 H175 0.929 . S
C161 C151 1.384 1_554 S
C161 C154 1.357 . S
C161 H174 0.928 . S
H162 C138 0.931 . S
H163 C140 0.930 . S
H164 C142 0.929 . S
H165 C143 0.931 . S
H166 C145 0.930 . S
H167 C149 0.931 . S
H168 C147 0.931 . S
H169 C151 0.929 1_554 S
H170 C152 0.929 . S
H171 C153 0.930 . S
H172 C156 0.930 . S
H173 C157 0.931 . S
H174 C161 0.928 . S
H175 C160 0.929 . S
H176 C158 0.932 . S
C177 C178 1.386 . S
C177 C179 1.397 . S
C177 H201 0.931 . S
C178 C177 1.386 . S
C178 C182 1.397 . S
C179 C177 1.397 . S
C179 C180 1.384 . S
C179 H202 0.930 . S
C180 C179 1.384 . S
C180 C181 1.377 . S
C180 C183 1.481 . S
C181 C180 1.377 . S
C181 C182 1.389 . S
C181 H203 0.929 . S
C182 C178 1.397 . S
C182 C181 1.389 . S
C182 H204 0.931 . S
C183 C180 1.481 . S
C183 C184 1.387 . S
C183 C188 1.390 . S
C184 C183 1.387 . S
C184 C185 1.401 . S
C184 H205 0.930 . S
C185 C184 1.401 . S
C185 C186 1.376 . S
C185 C194 1.511 . S
C186 C185 1.376 . S
C186 C187 1.392 . S
C186 H207 0.931 . S
C187 C186 1.392 . S
C187 C188 1.361 . S
C187 C189 1.500 . S
C188 C183 1.390 . S
C188 C187 1.361 . S
C188 H206 0.931 . S
C189 C187 1.500 . S
C189 C190 1.371 . S
C189 C191 1.365 . S
C190 C189 1.371 . S
C190 C200 1.386 . S
C190 H208 0.931 . S
C191 C189 1.365 . S
C191 C192 1.409 . S
C191 H209 0.929 . S
C192 C191 1.409 . S
C192 C193 1.380 . S
C192 H210 0.930 . S
C193 C192 1.380 . S
C193 C200 1.357 . S
C194 C185 1.511 . S
C194 C195 1.341 . S
C194 C196 1.371 . S
C195 C194 1.341 . S
C195 C199 1.394 . S
C195 H211 0.930 . S
C196 C194 1.371 . S
C196 C197 1.387 1_554 S
C196 H212 0.931 . S
C197 C196 1.387 1_556 S
C197 C198 1.326 1_556 S
C197 H215 0.941 . S
C198 C197 1.326 1_554 S
C198 C199 1.336 . S
C199 C195 1.394 . S
C199 C198 1.336 . S
C199 H214 0.929 . S
C200 C190 1.386 . S
C200 C193 1.357 . S
C200 H213 0.928 1_554 S
H201 C177 0.931 . S
H202 C179 0.930 . S
H203 C181 0.929 . S
H204 C182 0.931 . S
H205 C184 0.930 . S
H206 C188 0.931 . S
H207 C186 0.931 . S
H208 C190 0.931 . S
H209 C191 0.929 . S
H210 C192 0.930 . S
H211 C195 0.930 . S
H212 C196 0.931 . S
H213 C200 0.928 1_556 S
H214 C199 0.929 . S
H215 C197 0.941 . S
C216 C217 1.387 1_556 S
C216 H220 0.950 . S
C216 C225 1.390 . S
C217 C216 1.387 1_554 S
C217 C219 1.387 . S
H218 C225 0.950 . S
C219 C217 1.387 . S
C219 C221 1.390 . S
C219 H223 0.950 . S
H220 C216 0.950 . S
C221 C219 1.390 . S
C221 C222 1.387 . S
C221 H224 0.950 . S
C222 C221 1.387 . S
C222 C225 1.387 1_554 S
H223 C219 0.950 . S
H224 C221 0.950 . S
C225 C216 1.390 . S
C225 H218 0.950 . S
C225 C222 1.387 1_556 S
C226 C227 1.387 . S
C226 H230 0.950 . S
C226 C235 1.390 . S
C227 C226 1.387 . S
C227 C229 1.387 . S
H228 C235 0.950 . S
C229 C227 1.387 . S
C229 C231 1.390 . S
C229 H233 0.950 . S
H230 C226 0.950 . S
C231 C229 1.390 . S
C231 C232 1.387 . S
C231 H234 0.950 . S
C232 C231 1.387 . S
C232 C235 1.387 . S
H233 C229 0.950 . S
H234 C231 0.950 . S
C235 C226 1.390 . S
C235 H228 0.950 . S
C235 C232 1.387 . S
C236 C237 1.387 . S
C236 H240 0.950 . S
C236 C245 1.390 . S
C237 C236 1.387 . S
C237 C239 1.387 1_554 S
H238 C245 0.950 . S
C239 C237 1.387 1_556 S
C239 C241 1.390 . S
C239 H243 0.950 . S
H240 C236 0.950 . S
C241 C239 1.390 . S
C241 C242 1.387 1_556 S
C241 H244 0.950 . S
C242 C241 1.387 1_554 S
C242 C245 1.387 . S
H243 C239 0.950 . S
H244 C241 0.950 . S
C245 C236 1.390 . S
C245 H238 0.950 . S
C245 C242 1.387 . S
C246 C247 1.387 1_556 S
C246 H250 0.950 . S
C246 C255 1.390 . S
C247 C246 1.387 1_554 S
C247 C249 1.387 . S
H248 C255 0.950 . S
C249 C247 1.387 . S
C249 C251 1.390 . S
C249 H253 0.950 . S
H250 C246 0.950 . S
C251 C249 1.390 . S
C251 C252 1.387 . S
C251 H254 0.950 . S
C252 C251 1.387 . S
C252 C255 1.387 1_554 S
H253 C249 0.950 . S
H254 C251 0.950 . S
C255 C246 1.390 . S
C255 H248 0.950 . S
C255 C252 1.387 1_556 S
C256 C257 1.387 . S
C256 H260 0.950 . S
C256 C265 1.390 . S
C257 C256 1.387 . S
C257 C259 1.387 . S
H258 C265 0.950 . S
C259 C257 1.387 . S
C259 C261 1.390 . S
C259 H263 0.950 . S
H260 C256 0.950 . S
C261 C259 1.390 . S
C261 C262 1.387 . S
C261 H264 0.950 . S
C262 C261 1.387 . S
C262 C265 1.387 . S
H263 C259 0.950 . S
H264 C261 0.950 . S
C265 C256 1.390 . S
C265 H258 0.950 . S
C265 C262 1.387 . S
C266 C267 1.387 . S
C266 H270 0.950 . S
C266 C275 1.390 . S
C267 C266 1.387 . S
C267 C269 1.387 . S
H268 C275 0.950 . S
C269 C267 1.387 . S
C269 C271 1.390 . S
C269 H273 0.950 . S
H270 C266 0.950 . S
C271 C269 1.390 . S
C271 C272 1.387 . S
C271 H274 0.950 . S
C272 C271 1.387 . S
C272 C275 1.387 . S
H273 C269 0.950 . S
H274 C271 0.950 . S
C275 C266 1.390 . S
C275 H268 0.950 . S
C275 C272 1.387 . S
C276 C277 1.387 . S
C276 H280 0.950 . S
C276 C285 1.390 . S
C277 C276 1.387 . S
C277 C279 1.387 . S
H278 C285 0.950 . S
C279 C277 1.387 . S
C279 C281 1.390 . S
C279 H283 0.950 . S
H280 C276 0.950 . S
C281 C279 1.390 . S
C281 C282 1.387 . S
C281 H284 0.950 . S
C282 C281 1.387 . S
C282 C285 1.387 . S
H283 C279 0.950 . S
H284 C281 0.950 . S
C285 C276 1.390 . S
C285 H278 0.950 . S
C285 C282 1.387 . S
C286 C287 1.387 . S
C286 H290 0.950 . S
C286 C295 1.390 . S
C287 C286 1.387 . S
C287 C289 1.387 . S
H288 C295 0.950 . S
C289 C287 1.387 . S
C289 C291 1.390 . S
C289 H293 0.950 . S
H290 C286 0.950 . S
C291 C289 1.390 . S
C291 C292 1.387 . S
C291 H294 0.950 . S
C292 C291 1.387 . S
C292 C295 1.387 . S
H293 C289 0.950 . S
H294 C291 0.950 . S
C295 C286 1.390 . S
C295 H288 0.950 . S
C295 C292 1.387 . S
C296 C297 1.387 1_665 S
C296 H300 0.950 . S
C296 C305 1.390 . S
C297 C296 1.387 1_445 S
C297 C299 1.387 . S
H298 C305 0.950 . S
C299 C297 1.387 . S
C299 C301 1.390 . S
C299 H303 0.950 . S
H300 C296 0.950 . S
C301 C299 1.390 . S
C301 C302 1.387 . S
C301 H304 0.950 . S
C302 C301 1.387 . S
C302 C305 1.387 1_445 S
H303 C299 0.950 . S
H304 C301 0.950 . S
C305 C296 1.390 . S
C305 H298 0.950 . S
C305 C302 1.387 1_665 S
C306 C307 1.387 . S
C306 H310 0.950 . S
C306 C315 1.390 . S
C307 C306 1.387 . S
C307 C309 1.387 1_455 S
H308 C315 0.950 . S
C309 C307 1.387 1_655 S
C309 C311 1.390 . S
C309 H313 0.950 . S
H310 C306 0.950 . S
C311 C309 1.390 . S
C311 C312 1.387 1_655 S
C311 H314 0.950 . S
C312 C311 1.387 1_455 S
C312 C315 1.387 . S
H313 C309 0.950 . S
H314 C311 0.950 . S
C315 C306 1.390 . S
C315 H308 0.950 . S
C315 C312 1.387 . S
C316 C317 1.387 . S
C316 H320 0.950 . S
C316 C325 1.390 . S
C317 C316 1.387 . S
C317 C319 1.387 . S
H318 C325 0.950 . S
C319 C317 1.387 . S
C319 C321 1.390 . S
C319 H323 0.950 . S
H320 C316 0.950 . S
C321 C319 1.390 . S
C321 C322 1.387 . S
C321 H324 0.950 . S
C322 C321 1.387 . S
C322 C325 1.387 . S
H323 C319 0.950 . S
H324 C321 0.950 . S
C325 C316 1.390 . S
C325 H318 0.950 . S
C325 C322 1.387 . S
C326 C327 1.387 . S
C326 H330 0.950 . S
C326 C335 1.390 . S
C327 C326 1.387 . S
C327 C329 1.387 . S
H328 C335 0.950 . S
C329 C327 1.387 . S
C329 C331 1.390 . S
C329 H333 0.950 . S
H330 C326 0.950 . S
C331 C329 1.390 . S
C331 C332 1.387 . S
C331 H334 0.950 . S
C332 C331 1.387 . S
C332 C335 1.387 . S
H333 C329 0.950 . S
H334 C331 0.950 . S
C335 C326 1.390 . S
C335 H328 0.950 . S
C335 C332 1.387 . S
C222 C193 1.527 . S
C217 C27 1.593 . S
C227 N6 1.495 . S
C232 C154 1.473 . S
C237 C16 1.570 . S
C242 C198 1.515 . S
C247 N14 1.473 . S
C252 C159 1.468 . S
C257 C57 1.593 . S
C262 C115 1.526 . S
C267 N36 1.494 . S
C272 C76 1.476 . S
C282 C120 1.514 . S
C277 C46 1.570 . S
C292 C81 1.467 . S
C287 N44 1.472 . S
C297 C10 1.394 . S
C302 C61 1.399 . S
C307 C1 1.536 . S
C312 C100 1.541 . S
C322 C139 1.398 . S
C317 C40 1.394 . S
C327 C31 1.536 . S
C332 C178 1.541 . S
