# Generated by pormake.
# Topology tsx, (6,3)-cn, num edge types: 1
# Building blocks:
#     Node 0, Type 0, BuildingBlock: FUNLAD_clean_sbu_0, # of connection points: 6
#     Node 1, Type 0, BuildingBlock: FUNLAD_clean_sbu_0, # of connection points: 6
#     Node 2, Type 1, BuildingBlock: CUQRIR_clean_linker_1, # of connection points: 3
#     Node 3, Type 1, BuildingBlock: CUQRIR_clean_linker_1, # of connection points: 3
#     Node 4, Type 1, BuildingBlock: CUQRIR_clean_linker_1, # of connection points: 3
#     Node 5, Type 1, BuildingBlock: CUQRIR_clean_linker_1, # of connection points: 3
#     Edge 6, Type (0, 1), BuildingBlock: ZUJKAS_clean_linker_0, # of connection points: 2
#     Edge 7, Type (0, 1), BuildingBlock: ZUJKAS_clean_linker_0, # of connection points: 2
#     Edge 8, Type (0, 1), BuildingBlock: ZUJKAS_clean_linker_0, # of connection points: 2
#     Edge 9, Type (0, 1), BuildingBlock: ZUJKAS_clean_linker_0, # of connection points: 2
#     Edge 10, Type (0, 1), BuildingBlock: ZUJKAS_clean_linker_0, # of connection points: 2
#     Edge 11, Type (0, 1), BuildingBlock: ZUJKAS_clean_linker_0, # of connection points: 2
#     Edge 12, Type (0, 1), BuildingBlock: ZUJKAS_clean_linker_0, # of connection points: 2
#     Edge 13, Type (0, 1), BuildingBlock: ZUJKAS_clean_linker_0, # of connection points: 2
#     Edge 14, Type (0, 1), BuildingBlock: ZUJKAS_clean_linker_0, # of connection points: 2
#     Edge 15, Type (0, 1), BuildingBlock: ZUJKAS_clean_linker_0, # of connection points: 2
#     Edge 16, Type (0, 1), BuildingBlock: ZUJKAS_clean_linker_0, # of connection points: 2
#     Edge 17, Type (0, 1), BuildingBlock: ZUJKAS_clean_linker_0, # of connection points: 2
# Relax obj value: 0.154
# Max RMSD: 0.156
# Mean RMSD: 0.139
data_MOF--net-tsx--node1-FUNLAD_clean_sbu_0--node2-CUQRIR_clean_linker_1--edge1-ZUJKAS_clean_linker_0
_symmetry_space_group_name_H-M    P1
_symmetry_Int_Tables_number       1
_symmetry_cell_setting            triclinic
loop_
_symmetry_equiv_pos_as_xyz
'x, y, z'
_cell_length_a     23.642347
_cell_length_b     26.046752
_cell_length_c     47.926689
_cell_angle_alpha  80.424361
_cell_angle_beta   91.972389
_cell_angle_gamma 89.789843
loop_
_atom_site_label
_atom_site_type_symbol
_atom_site_fract_x
_atom_site_fract_y
_atom_site_fract_z
_atom_type_partial_charge
C0 C 0.98098 0.96003 0.99271 0.0
N1 N 0.05291 0.01022 0.0632 0.0
C2 C 0.00126 1.00184 0.07467 0.0
C3 C 0.9968 0.98806 0.10389 0.0
C4 C 0.04593 0.9833 0.12152 0.0
C5 C 0.09865 0.99259 0.10907 0.0
C6 C 0.10118 0.00587 0.07973 0.0
Zn7 Zn 0.05861 0.027 0.02043 0.0
C8 C 0.14464 0.95945 -0.00061 0.0
N9 N 0.07072 0.05948 0.93096 0.0
C10 C 0.02367 0.0653 0.91357 0.0
C11 C 0.12349 0.06401 0.92039 0.0
C12 C 0.13051 0.07406 0.89123 0.0
C13 C 0.08277 0.0797 0.87271 0.0
C14 C 0.02874 0.0756 0.88424 0.0
Zn15 Zn 0.06351 0.0434 0.97373 0.0
O16 O 0.99973 0.97047 0.01616 0.0
C17 C 0.9747 0.10856 0.99356 0.0
O18 O 1.00018 0.98469 0.96981 0.0
H19 H 0.16033 0.05928 0.93462 0.0
H20 H 0.96345 0.00532 0.06112 0.0
H21 H 0.98215 0.06177 0.92245 0.0
O22 O 0.9914 0.08384 0.01765 0.0
O23 O 0.99886 0.09978 0.97154 0.0
H24 H 0.1418 0.01258 0.07013 0.0
O25 O 0.12567 0.10214 0.97874 0.0
O26 O 0.11727 0.08483 0.02476 0.0
O27 O 0.12721 0.98608 0.97606 0.0
O28 O 0.12445 0.96899 0.02229 0.0
C29 C 0.13895 0.11166 0.00333 0.0
H30 H 0.95532 0.98061 0.11251 0.0
H31 H 0.13754 0.99023 0.12184 0.0
H32 H 0.17293 0.0762 0.88331 0.0
H33 H 0.99074 0.0804 0.87076 0.0
C34 C 0.46767 0.44475 0.49454 0.0
N35 N 0.54536 0.49589 0.56375 0.0
C36 C 0.49436 0.49059 0.57615 0.0
C37 C 0.49164 0.47772 0.6055 0.0
C38 C 0.54189 0.47022 0.62223 0.0
C39 C 0.59392 0.47601 0.60885 0.0
C40 C 0.59469 0.48895 0.57943 0.0
Zn41 Zn 0.54813 0.51248 0.52083 0.0
C42 C 0.63233 0.44677 0.49808 0.0
N43 N 0.55296 0.54519 0.43099 0.0
C44 C 0.5058 0.54751 0.41375 0.0
C45 C 0.60511 0.55471 0.42023 0.0
C46 C 0.61137 0.56747 0.39111 0.0
C47 C 0.56359 0.57005 0.37271 0.0
C48 C 0.51018 0.55979 0.38439 0.0
Zn49 Zn 0.54815 0.52866 0.47395 0.0
O50 O 0.48712 0.45649 0.51761 0.0
C51 C 0.46246 0.59326 0.4952 0.0
O52 O 0.48628 0.4683 0.47122 0.0
H53 H 0.64211 0.55267 0.43428 0.0
H54 H 0.45569 0.49599 0.56324 0.0
H55 H 0.46476 0.53982 0.42278 0.0
O56 O 0.4825 0.57062 0.51913 0.0
O57 O 0.48281 0.58242 0.47272 0.0
H58 H 0.63474 0.49339 0.5691 0.0
O59 O 0.60803 0.58946 0.47796 0.0
O60 O 0.6092 0.56913 0.5242 0.0
O61 O 0.61366 0.47396 0.47517 0.0
O62 O 0.61241 0.45418 0.52141 0.0
C63 C 0.62641 0.59756 0.5021 0.0
H64 H 0.45063 0.47307 0.61496 0.0
H65 H 0.63363 0.47128 0.62099 0.0
H66 H 0.65326 0.57582 0.38318 0.0
H67 H 0.47224 0.56057 0.37101 0.0
C68 C 0.95957 0.96661 0.45428 0.0
N69 N 0.98481 0.93552 0.43836 0.0
N70 N 0.91919 0.99688 0.43881 0.0
C71 C 0.97497 0.96807 0.48477 0.0
C72 C 0.92051 0.98268 0.41293 0.0
N73 N 0.96002 0.94501 0.41272 0.0
C74 C 0.88694 0.00888 0.38717 0.0
H75 H 0.99593 0.93135 0.49518 0.0
H76 H 0.93642 0.9738 0.49628 0.0
H77 H 0.00405 1.00098 0.48606 0.0
H78 H 0.91633 0.02872 0.37137 0.0
H79 H 0.85592 0.03753 0.3924 0.0
H80 H 0.86356 0.97932 0.37731 0.0
C81 C 0.97184 0.07213 0.54491 0.0
N82 N 0.00822 0.09784 0.56 0.0
N83 N 0.94572 0.03354 0.5621 0.0
C84 C 0.95534 0.08962 0.51435 0.0
C85 C 0.96714 0.03686 0.58822 0.0
N86 N 0.0046 0.07617 0.58697 0.0
C87 C 0.95149 1.00199 0.61507 0.0
H88 H 0.93931 0.05693 0.50464 0.0
H89 H 0.9905 0.10865 0.50203 0.0
H90 H 0.92021 0.11818 0.51344 0.0
H91 H 0.98986 0.99143 0.62887 0.0
H92 H 0.93009 0.96615 0.61083 0.0
H93 H 0.92223 0.02345 0.62673 0.0
C94 C 0.46059 0.46994 0.95465 0.0
N95 N 0.48953 0.44603 0.93649 0.0
N96 N 0.42882 0.51003 0.94041 0.0
C97 C 0.46725 0.45664 0.98618 0.0
C98 C 0.43933 0.50934 0.91292 0.0
N99 N 0.4764 0.47075 0.91056 0.0
C100 C 0.41198 0.5457 0.88847 0.0
H101 H 0.43993 0.48148 -0.00333 0.0
H102 H 0.51217 0.46095 0.99281 0.0
H103 H 0.45563 0.41538 0.99301 0.0
H104 H 0.44008 0.57945 0.88243 0.0
H105 H 0.37077 0.56048 0.89442 0.0
H106 H 0.4053 0.52585 0.86987 0.0
C107 C 0.49423 0.5812 0.04143 0.0
N108 N 0.52388 0.61337 0.05579 0.0
N109 N 0.45519 0.55481 0.05797 0.0
C110 C 0.50145 0.57668 0.01099 0.0
C111 C 0.46198 0.57193 0.08294 0.0
N112 N 0.50322 0.60808 0.08154 0.0
C113 C 0.43298 0.54918 0.10961 0.0
H114 H 0.46045 0.56686 0.00157 0.0
H115 H 0.53222 0.54503 0.00969 0.0
H116 H 0.51695 0.61361 -0.00119 0.0
H117 H 0.40524 0.51621 0.10649 0.0
H118 H 0.40693 0.57985 0.11662 0.0
H119 H 0.46515 0.53573 0.12671 0.0
H120 H 0.14109 0.16295 0.04799 0.0
H121 H 0.1976 0.23772 0.05505 0.0
H122 H 0.27829 0.23434 0.97592 0.0
H123 H 0.21884 0.16057 0.96794 0.0
H124 H 0.30409 0.24841 0.0626 0.0
H125 H 0.23719 0.38436 0.96521 0.0
H126 H 0.203 0.3228 0.97581 0.0
H127 H 0.26918 0.32557 0.95812 0.0
C128 C 0.17077 0.1781 0.032 0.0
C129 C 0.17551 0.15593 0.00737 0.0
C130 C 0.20313 0.22097 0.03607 0.0
C131 C 0.24182 0.24235 0.01588 0.0
C132 C 0.24765 0.21959 0.99146 0.0
H133 H 0.49747 0.45834 0.06271 0.0
H134 H 0.44722 0.38065 0.05283 0.0
C135 C 0.21409 0.17716 0.98702 0.0
C136 C 0.27629 0.28766 0.02119 0.0
H137 H 0.31005 0.41293 0.99392 0.0
C138 C 0.3052 0.28443 0.04756 0.0
C139 C 0.27742 0.33494 0.00174 0.0
C140 C 0.2446 0.34245 0.97376 0.0
C141 C 0.33405 0.32718 0.05528 0.0
C142 C 0.33636 0.37399 0.03557 0.0
C143 C 0.30837 0.37704 0.009 0.0
C144 C 0.36675 0.42053 0.04222 0.0
C145 C 0.35979 0.32212 0.0849 0.0
C146 C 0.33874 0.46903 0.03901 0.0
C147 C 0.36772 0.51326 0.0444 0.0
C148 C 0.42505 0.5096 0.05276 0.0
C149 C 0.45306 0.46137 0.05628 0.0
C150 C 0.42421 0.41713 0.05094 0.0
H151 H 0.33902 0.29105 0.0997 0.0
H152 H 0.40521 0.31145 0.08461 0.0
H153 H 0.35641 0.3592 0.0933 0.0
H154 H 0.29447 0.47266 0.03232 0.0
H155 H 0.34578 0.5504 0.04185 0.0
H156 H 0.20129 0.93564 0.95461 0.0
H157 H 0.25127 0.85485 0.95149 0.0
H158 H 0.22387 0.79887 0.03974 0.0
H159 H 0.17357 0.88021 0.04318 0.0
H160 H 0.33658 0.77663 0.01971 0.0
H161 H 0.15933 0.71783 0.95334 0.0
H162 H 0.18567 0.78184 0.94085 0.0
H163 H 0.15238 0.76874 0.97443 0.0
C164 C 0.20647 0.90658 0.97353 0.0
C165 C 0.18287 0.91424 -0.0009 0.0
C166 C 0.2349 0.86029 0.97165 0.0
C167 C 0.24024 0.8205 -0.00478 0.0
C168 C 0.2198 0.82902 0.02125 0.0
H169 H 0.3361 0.50308 0.97215 0.0
H170 H 0.28879 0.57505 0.9901 0.0
C171 C 0.19123 0.87556 0.02319 0.0
C172 C 0.2646 0.76934 0.99192 0.0
H173 H 0.2457 0.66973 0.95439 0.0
C174 C 0.31653 0.75294 0.00567 0.0
C175 C 0.23773 0.7379 0.97408 0.0
C176 C 0.18042 0.75209 0.96002 0.0
C177 C 0.34371 0.70728 0.00076 0.0
C178 C 0.31847 0.67777 0.98148 0.0
C179 C 0.26521 0.69271 0.96895 0.0
C180 C 0.34832 0.6335 0.9724 0.0
C181 C 0.39913 0.69064 0.01619 0.0
C182 C 0.39662 0.64278 0.95616 0.0
C183 C 0.42286 0.6021 0.94573 0.0
C184 C 0.40158 0.55137 0.95155 0.0
C185 C 0.35328 0.54192 0.96775 0.0
C186 C 0.32651 0.58284 0.97795 0.0
H187 H 0.40767 0.71166 0.03422 0.0
H188 H 0.39882 0.64818 0.02428 0.0
H189 H 0.43428 0.69849 0.00136 0.0
H190 H 0.41345 0.68173 0.95114 0.0
H191 H 0.46009 0.61 0.93323 0.0
H192 H 0.92789 0.92253 0.94778 0.0
H193 H 0.8515 0.85783 0.95068 0.0
H194 H 0.85579 0.84601 0.04159 0.0
H195 H 0.9315 0.90843 0.03908 0.0
H196 H 0.85442 0.75109 0.02491 0.0
H197 H 0.68532 0.88188 0.96828 0.0
H198 H 0.7491 0.87539 0.94969 0.0
H199 H 0.75136 0.90658 0.98039 0.0
C200 C 0.9125 0.90586 0.96832 0.0
C201 C 0.93587 0.92066 0.99315 0.0
C202 C 0.86873 0.86923 0.96994 0.0
C203 C 0.84773 0.84744 -0.00363 0.0
C204 C 0.87139 0.86213 0.02099 0.0
H205 H 0.53891 0.71449 0.05946 0.0
H206 H 0.61918 0.76907 0.04224 0.0
C207 C 0.91483 0.89806 0.01944 0.0
C208 C 0.80124 0.80915 -0.00063 0.0
H209 H 0.65836 0.79819 0.9896 0.0
C210 C 0.81162 0.76099 0.01686 0.0
C211 C 0.74546 0.82259 0.98911 0.0
C212 C 0.73166 0.87449 0.97096 0.0
C213 C 0.76745 0.727 0.02562 0.0
C214 C 0.71144 0.74069 0.01571 0.0
C215 C 0.70133 0.78784 -0.00283 0.0
C216 C 0.66252 0.70791 0.02555 0.0
C217 C 0.78102 0.6783 0.04671 0.0
C218 C 0.66024 0.65561 0.0219 0.0
C219 C 0.6154 0.62436 0.03239 0.0
C220 C 0.57111 0.64523 0.04592 0.0
C221 C 0.5729 0.69765 0.04927 0.0
C222 C 0.6183 0.72879 0.03919 0.0
H223 H 0.82259 0.68093 0.0579 0.0
H224 H 0.74801 0.67066 0.06278 0.0
H225 H 0.78305 0.64452 0.03539 0.0
H226 H 0.69327 0.63886 0.01104 0.0
H227 H 0.61535 0.58378 0.03002 0.0
H228 H 0.93029 0.16594 0.94491 0.0
H229 H 0.8463 0.22178 0.93902 0.0
H230 H 0.82253 0.18925 0.02901 0.0
H231 H 0.90727 0.13317 0.03523 0.0
H232 H 0.73535 0.19143 0.95389 0.0
H233 H 0.8131 0.35012 0.00951 0.0
H234 H 0.86026 0.30379 -0.00206 0.0
H235 H 0.81998 0.28503 0.02901 0.0
C236 C 0.90766 0.17091 0.96357 0.0
C237 C 0.92571 0.14511 0.9906 0.0
C238 C 0.85948 0.20279 0.96011 0.0
C239 C 0.82833 0.20993 0.98356 0.0
C240 C 0.8464 0.18482 0.01066 0.0
H241 H 0.48607 0.34843 0.96629 0.0
H242 H 0.56697 0.28854 0.97981 0.0
C243 C 0.89476 0.15272 0.01417 0.0
C244 C 0.77609 0.24253 0.97918 0.0
H245 H 0.71863 0.35678 0.99161 0.0
C246 C 0.73148 0.22742 0.96229 0.0
C247 C 0.77142 0.28965 0.98997 0.0
C248 C 0.81878 0.30856 0.00746 0.0
C249 C 0.68256 0.25843 0.95563 0.0
C250 C 0.67787 0.30554 0.96642 0.0
C251 C 0.72222 0.32044 0.98354 0.0
C252 C 0.62871 0.34135 0.95883 0.0
C253 C 0.63709 0.24144 0.93634 0.0
C254 C 0.63674 0.39096 0.94295 0.0
C255 C 0.59083 0.42494 0.93543 0.0
C256 C 0.5362 0.41006 0.9438 0.0
C257 C 0.52802 0.36059 0.95979 0.0
C258 C 0.57401 0.32644 0.9673 0.0
H259 H 0.65208 0.20982 0.92539 0.0
H260 H 0.60035 0.22679 0.94903 0.0
H261 H 0.62223 0.27476 0.92015 0.0
H262 H 0.67856 0.40326 0.93623 0.0
H263 H 0.5979 0.46318 0.92331 0.0
H264 H 0.68556 0.61496 0.54934 0.0
H265 H 0.7385 0.69251 0.55589 0.0
H266 H 0.70337 0.75936 0.46847 0.0
H267 H 0.65114 0.681 0.46149 0.0
H268 H 0.81203 0.77654 0.48537 0.0
H269 H 0.664 0.82977 0.56308 0.0
H270 H 0.69218 0.76512 0.57344 0.0
H271 H 0.64804 0.7804 0.54174 0.0
C272 C 0.68939 0.64596 0.5314 0.0
C273 C 0.66369 0.64204 0.50494 0.0
C274 C 0.7193 0.69046 0.53526 0.0
C275 C 0.72346 0.73234 0.5129 0.0
C276 C 0.70008 0.7277 0.4861 0.0
H277 H 0.83776 0.04049 0.54187 0.0
H278 H 0.78096 0.9696 0.52721 0.0
C279 C 0.67043 0.68287 0.48213 0.0
C280 C 0.75207 0.78087 0.51772 0.0
H281 H 0.7529 0.87373 0.56038 0.0
C282 C 0.79894 0.79798 0.50164 0.0
C283 C 0.73399 0.80966 0.53845 0.0
C284 C 0.68142 0.79566 0.55495 0.0
C285 C 0.82972 0.84178 0.50662 0.0
C286 C 0.8138 0.86848 0.52859 0.0
C287 C 0.76553 0.85272 0.54383 0.0
C288 C 0.84782 0.91164 0.53682 0.0
C289 C 0.87809 0.86004 0.48791 0.0
C290 C 0.90344 0.90215 0.5477 0.0
C291 C 0.9353 0.94229 0.55613 0.0
C292 C 0.91201 0.99245 0.55391 0.0
C293 C 0.85622 1.00197 0.54349 0.0
C294 C 0.82407 0.96165 0.5352 0.0
H295 H 0.87892 0.84063 0.46896 0.0
H296 H 0.87439 0.90266 0.48077 0.0
H297 H 0.91891 0.85177 0.49996 0.0
H298 H 0.9221 0.86359 0.54984 0.0
H299 H 0.97835 0.93451 0.56422 0.0
H300 H 0.69783 0.43448 0.4541 0.0
H301 H 0.75289 0.35756 0.44854 0.0
H302 H 0.71235 0.28445 0.53283 0.0
H303 H 0.65699 0.36169 0.53871 0.0
H304 H 0.84642 0.30043 0.48518 0.0
H305 H 0.6486 0.18847 0.47519 0.0
H306 H 0.64903 0.25873 0.47012 0.0
H307 H 0.65687 0.22176 0.50511 0.0
C308 C 0.70131 0.40241 0.47167 0.0
C309 C 0.67272 0.40391 0.49678 0.0
C310 C 0.73283 0.35857 0.46844 0.0
C311 C 0.73595 0.3153 0.49013 0.0
C312 C 0.7099 0.31749 0.51579 0.0
H313 H 0.83973 0.99911 0.47729 0.0
H314 H 0.79856 0.07681 0.49182 0.0
C315 C 0.67863 0.36166 0.51916 0.0
C316 C 0.76354 0.26698 0.48493 0.0
H317 H 0.73413 0.14674 0.46944 0.0
C318 C 0.82224 0.26638 0.48207 0.0
C319 C 0.7315 0.22319 0.48063 0.0
C320 C 0.66794 0.22274 0.48272 0.0
C321 C 0.85023 0.22279 0.47515 0.0
C322 C 0.81806 0.17889 0.47025 0.0
C323 C 0.75912 0.17978 0.47338 0.0
C324 C 0.84376 0.13181 0.46165 0.0
C325 C 0.91382 0.22538 0.47327 0.0
C326 C 0.88164 0.13628 0.43941 0.0
C327 C 0.90664 0.09193 0.4321 0.0
C328 C 0.89238 0.04223 0.44601 0.0
C329 C 0.85214 0.03731 0.46698 0.0
C330 C 0.82844 0.08168 0.47498 0.0
H331 H 0.93239 0.24813 0.48894 0.0
H332 H 0.93436 0.18657 0.47683 0.0
H333 H 0.92445 0.24583 0.45192 0.0
H334 H 0.89218 0.17404 0.42773 0.0
H335 H 0.93712 0.09624 0.41553 0.0
H336 H 0.40121 0.41711 0.45079 0.0
H337 H 0.32147 0.35596 0.45523 0.0
H338 H 0.35134 0.32456 0.54577 0.0
H339 H 0.43056 0.38375 0.5416 0.0
H340 H 0.33366 0.23601 0.52368 0.0
H341 H 0.16605 0.38431 0.48576 0.0
H342 H 0.22241 0.37942 0.46205 0.0
H343 H 0.23723 0.40187 0.49496 0.0
C344 C 0.39094 0.39672 0.47156 0.0
C345 C 0.42213 0.40554 0.49582 0.0
C346 C 0.34513 0.36221 0.4741 0.0
C347 C 0.32997 0.33629 0.50091 0.0
C348 C 0.36209 0.34418 0.5249 0.0
H349 H 0.02766 0.194 0.57245 0.0
H350 H 0.10564 0.25221 0.55552 0.0
C351 C 0.40748 0.37825 0.52242 0.0
C352 C 0.2808 0.30084 0.50476 0.0
H353 H 0.13621 0.29847 0.50139 0.0
C354 C 0.29049 0.24947 0.51851 0.0
C355 C 0.22451 0.3188 0.49843 0.0
C356 C 0.21152 0.37419 0.48468 0.0
C357 C 0.24557 0.21598 0.52679 0.0
C358 C 0.18923 0.23385 0.52043 0.0
C359 C 0.17943 0.28486 0.50613 0.0
C360 C 0.14013 0.20044 0.52927 0.0
C361 C 0.25895 0.16255 0.54339 0.0
C362 C 0.13324 0.15262 0.51982 0.0
C363 C 0.08958 0.11939 0.52981 0.0
C364 C 0.05114 0.13385 0.54885 0.0
C365 C 0.05694 0.18224 0.55777 0.0
C366 C 0.10112 0.21542 0.54799 0.0
H367 H 0.30261 0.16015 0.55289 0.0
H368 H 0.22877 0.15186 0.56061 0.0
H369 H 0.25557 0.13337 0.52899 0.0
H370 H 0.16221 0.1406 0.50507 0.0
H371 H 0.08618 0.08187 0.523 0.0
H372 H 0.40696 0.63978 0.44702 0.0
H373 H 0.32778 0.70059 0.44228 0.0
H374 H 0.33022 0.69382 0.53284 0.0
H375 H 0.40968 0.63139 0.53797 0.0
H376 H 0.22217 0.68631 0.50946 0.0
H377 H 0.33395 0.85325 0.44965 0.0
H378 H 0.33979 0.79616 0.43353 0.0
H379 H 0.37086 0.79632 0.46836 0.0
C380 C 0.39112 0.65131 0.46603 0.0
C381 C 0.41501 0.63103 0.49291 0.0
C382 C 0.34593 0.68637 0.46321 0.0
C383 C 0.32397 0.70258 0.48712 0.0
C384 C 0.34705 0.68209 0.5141 0.0
H385 H 0.08401 0.96227 0.46096 0.0
H386 H 0.16567 0.90525 0.47633 0.0
C387 C 0.3924 0.64657 0.51699 0.0
C388 C 0.2758 0.73981 0.48354 0.0
H389 H 0.23236 0.85713 0.44621 0.0
C390 C 0.22448 0.72401 0.49597 0.0
C391 C 0.27919 0.78926 0.46629 0.0
C392 C 0.33411 0.80999 0.45395 0.0
C393 C 0.1757 0.75551 0.49058 0.0
C394 C 0.17821 0.80338 0.47172 0.0
C395 C 0.23018 0.82005 0.4603 0.0
C396 C 0.12764 0.83698 0.46344 0.0
C397 C 0.12214 0.73726 0.50522 0.0
C398 C 0.07946 0.81779 0.45072 0.0
C399 C 0.03249 0.8502 0.44242 0.0
C400 C 0.03335 0.90226 0.44645 0.0
C401 C 0.08207 0.92181 0.45838 0.0
C402 C 0.1287 0.88939 0.46695 0.0
H403 H 0.13146 0.70936 0.52506 0.0
H404 H 0.09734 0.77049 0.51043 0.0
H405 H 0.09557 0.71693 0.49102 0.0
H406 H 0.07837 0.77794 0.44697 0.0
H407 H 0.99536 0.83474 0.43299 0.0
H408 H 0.11697 0.9199 0.15886 0.0
H409 H 0.11287 0.90158 0.21048 0.0
H410 H 0.9613 0.99564 0.20623 0.0
H411 H 0.96662 0.01635 0.15491 0.0
H412 H 0.03971 0.02011 0.24422 0.0
H413 H 0.0078 0.80608 0.26052 0.0
H414 H 0.0686 0.82843 0.24066 0.0
H415 H 0.99887 0.84673 0.22625 0.0
C416 C 0.0829 0.93689 0.16893 0.0
C417 C 0.04213 0.96967 0.15272 0.0
C418 C 0.08019 0.92572 0.19839 0.0
C419 C 0.03633 0.94663 0.21211 0.0
C420 C 0.99529 0.97882 0.196 0.0
H421 H 0.90352 0.89299 0.37676 0.0
H422 H 0.93121 0.88602 0.32861 0.0
C423 C 0.99817 0.9903 0.16663 0.0
C424 C 0.0346 0.93791 0.24335 0.0
H425 H 0.01964 0.84467 0.30172 0.0
C426 C 0.03561 0.98173 0.25683 0.0
C427 C 0.02899 0.88777 0.25963 0.0
C428 C 0.02549 0.83952 0.24608 0.0
C429 C 0.02975 0.97707 0.28608 0.0
C430 C 0.02455 0.92693 0.30246 0.0
C431 C 0.02452 0.88291 0.2891 0.0
C432 C 0.01358 0.92048 0.33301 0.0
C433 C 0.02654 0.02614 0.29894 0.0
C434 C 0.0519 0.9395 0.35177 0.0
C435 C 0.03559 0.94434 0.37893 0.0
C436 C 0.98129 0.92929 0.38773 0.0
C437 C 0.94526 0.90542 0.37002 0.0
C438 C 0.9612 0.90118 0.34272 0.0
H439 H 0.01852 0.06125 0.28262 0.0
H440 H 0.99248 0.02352 0.31449 0.0
H441 H 0.06735 0.03159 0.31017 0.0
H442 H 0.09294 0.95366 0.3448 0.0
H443 H 0.06381 0.96296 0.39237 0.0
H444 H 0.15981 0.1413 0.84136 0.0
H445 H 0.17178 0.15208 0.79013 0.0
H446 H 0.03194 0.04883 0.78258 0.0
H447 H 0.02115 0.03617 0.83364 0.0
H448 H 0.12768 0.02665 0.7537 0.0
H449 H 0.06715 0.23667 0.72868 0.0
H450 H 0.12343 0.21842 0.7547 0.0
H451 H 0.05267 0.19711 0.76226 0.0
C452 C 0.13185 0.12064 0.82879 0.0
C453 C 0.0893 0.08804 0.84158 0.0
C454 C 0.13845 0.12726 0.79951 0.0
C455 C 0.10241 0.10164 0.78259 0.0
C456 C 0.06011 0.06906 0.7953 0.0
H457 H 0.95257 0.12011 0.6255 0.0
H458 H 0.99295 0.13515 0.67109 0.0
C459 C 0.05361 0.06229 0.82447 0.0
C460 C 0.10804 0.1079 0.75158 0.0
H461 H 0.07993 0.19289 0.69038 0.0
C462 C 0.1184 0.06317 0.73975 0.0
C463 C 0.0961 0.15575 0.7336 0.0
C464 C 0.08386 0.20481 0.74529 0.0
C465 C 0.11299 0.064 0.71046 0.0
C466 C 0.09806 0.11128 0.69253 0.0
C467 C 0.09175 0.15687 0.70422 0.0
C468 C 0.078 0.11176 0.6629 0.0
C469 C 0.11877 0.01342 0.69927 0.0
C470 C 0.11291 0.09573 0.64272 0.0
C471 C 0.08948 0.0867 0.61675 0.0
C472 C 0.03127 0.0941 0.61082 0.0
C473 C 0.99751 0.11395 0.63003 0.0
C474 C 0.02064 0.12273 0.65588 0.0
H475 H 0.12283 0.97925 0.71653 0.0
H476 H 0.08154 0.00754 0.68542 0.0
H477 H 0.15708 0.01469 0.68645 0.0
H478 H 0.15748 0.08787 0.64759 0.0
H479 H 0.11592 0.0715 0.60196 0.0
H480 H 0.60764 0.39964 0.65823 0.0
H481 H 0.60551 0.38044 0.71002 0.0
H482 H 0.47047 0.49281 0.7084 0.0
H483 H 0.47245 0.51233 0.65687 0.0
H484 H 0.62406 0.44767 0.74806 0.0
H485 H 0.40938 0.36517 0.75886 0.0
H486 H 0.44604 0.37275 0.726 0.0
H487 H 0.40869 0.42701 0.73587 0.0
C488 C 0.5775 0.42021 0.66895 0.0
C489 C 0.53999 0.45733 0.65348 0.0
C490 C 0.57616 0.40898 0.69847 0.0
C491 C 0.5371 0.43446 0.71294 0.0
C492 C 0.49986 0.47164 0.69756 0.0
H493 H 0.52691 0.53492 0.8691 0.0
H494 H 0.55093 0.51529 0.82272 0.0
C495 C 0.50109 0.48282 0.66812 0.0
C496 C 0.53698 0.42483 0.7442 0.0
H497 H 0.44782 0.40012 0.7991 0.0
C498 C 0.5859 0.43625 0.75934 0.0
C499 C 0.48763 0.40873 0.75894 0.0
C500 C 0.43518 0.39216 0.74408 0.0
C501 C 0.58538 0.43583 0.78864 0.0
C502 C 0.53436 0.42466 0.80289 0.0
C503 C 0.48677 0.40937 0.78809 0.0
C504 C 0.52724 0.43411 0.83216 0.0
C505 C 0.63908 0.44856 0.80388 0.0
C506 C 0.5057 0.39514 0.85279 0.0
C507 C 0.49102 0.40676 0.87906 0.0
C508 C 0.4972 0.4575 0.88484 0.0
C509 C 0.52106 0.49579 0.86474 0.0
C510 C 0.53555 0.48432 0.8385 0.0
H511 H 0.67703 0.43716 0.79321 0.0
H512 H 0.64087 0.49123 0.80355 0.0
H513 H 0.64096 0.42868 0.82627 0.0
H514 H 0.49862 0.35626 0.84824 0.0
H515 H 0.47266 0.37683 0.89443 0.0
H516 H 0.49328 0.63021 0.33356 0.0
H517 H 0.50158 0.64773 0.28214 0.0
H518 H 0.65751 0.55927 0.29004 0.0
H519 H 0.64816 0.53922 0.34123 0.0
H520 H 0.58591 0.6956 0.24744 0.0
H521 H 0.56056 0.48747 0.23666 0.0
H522 H 0.54623 0.51121 0.26898 0.0
H523 H 0.61794 0.50012 0.26 0.0
C524 C 0.52903 0.61397 0.32436 0.0
C525 C 0.56969 0.58281 0.34155 0.0
C526 C 0.53406 0.62457 0.29501 0.0
C527 C 0.57979 0.60426 0.2823 0.0
C528 C 0.62144 0.57465 0.29941 0.0
H529 H 0.60743 0.58415 0.10391 0.0
H530 H 0.64054 0.5937 0.15192 0.0
C531 C 0.61625 0.56368 0.32872 0.0
C532 C 0.58226 0.61211 0.25107 0.0
H533 H 0.57482 0.54677 0.19506 0.0
C534 C 0.58395 0.66309 0.23594 0.0
C535 C 0.57985 0.56958 0.23617 0.0
C536 C 0.57555 0.51402 0.2512 0.0
C537 C 0.58221 0.6727 0.2062 0.0
C538 C 0.57817 0.63022 0.19137 0.0
C539 C 0.57852 0.57925 0.20652 0.0
C540 C 0.56659 0.63708 0.16044 0.0
C541 C 0.58405 0.72811 0.19091 0.0
C542 C 0.51528 0.66011 0.149 0.0
C543 C 0.49671 0.65473 0.1217 0.0
C544 C 0.52904 0.62616 0.10559 0.0
C545 C 0.58243 0.60689 0.11603 0.0
C546 C 0.60107 0.61214 0.14338 0.0
H547 H 0.60525 0.75392 0.20425 0.0
H548 H 0.6065 0.73073 0.17075 0.0
H549 H 0.54014 0.74281 0.18589 0.0
H550 H 0.48746 0.67854 0.16194 0.0
H551 H 0.45524 0.66943 0.11388 0.0
loop_
_geom_bond_atom_site_label_1
_geom_bond_atom_site_label_2
_geom_bond_distance
_geom_bond_site_symmetry_2
_ccdc_geom_bond_type
C0 O16 1.251 . S
C0 O18 1.254 1_554 S
N1 C2 1.333 1_445 S
N1 C6 1.307 . S
N1 Zn7 2.020 . S
C2 N1 1.333 1_665 S
C2 C3 1.379 . S
C2 H20 0.952 . S
C3 C2 1.379 . S
C3 C4 1.386 1_665 S
C3 H30 0.949 . S
C4 C3 1.386 1_445 S
C4 C5 1.359 . S
C5 C4 1.359 . S
C5 C6 1.370 . S
C5 H31 0.950 . S
C6 N1 1.307 . S
C6 C5 1.370 . S
C6 H24 0.948 . S
Zn7 N1 2.020 . S
Zn7 O16 2.039 1_445 S
Zn7 O22 2.034 1_455 S
Zn7 O26 2.025 . S
Zn7 O28 2.024 1_545 S
C8 O27 1.246 1_554 S
C8 O28 1.249 . S
N9 C10 1.307 1_455 S
N9 C11 1.333 . S
N9 Zn15 2.020 . S
C10 N9 1.307 1_655 S
C10 C14 1.370 . S
C10 H21 0.948 . S
C11 N9 1.333 . S
C11 C12 1.379 . S
C11 H19 0.952 . S
C12 C11 1.379 . S
C12 C13 1.390 . S
C12 H32 0.949 . S
C13 C12 1.390 . S
C13 C14 1.357 1_455 S
C14 C10 1.370 . S
C14 C13 1.357 1_655 S
C14 H33 0.950 . S
Zn15 N9 2.020 . S
Zn15 O18 2.025 1_445 S
Zn15 O23 2.024 1_455 S
Zn15 O25 2.039 . S
Zn15 O27 2.034 1_545 S
O16 C0 1.251 . S
O16 Zn7 2.039 1_665 S
C17 O22 1.234 1_556 S
C17 O23 1.263 . S
O18 C0 1.254 1_556 S
O18 Zn15 2.025 1_665 S
H19 C11 0.952 . S
H20 C2 0.952 . S
H21 C10 0.948 . S
O22 Zn7 2.034 1_655 S
O22 C17 1.234 1_554 S
O23 Zn15 2.024 1_655 S
O23 C17 1.263 . S
H24 C6 0.948 . S
O25 Zn15 2.039 . S
O25 C29 1.258 . S
O26 Zn7 2.025 . S
O26 C29 1.247 1_554 S
O27 C8 1.246 1_556 S
O27 Zn15 2.034 1_565 S
O28 Zn7 2.024 1_565 S
O28 C8 1.249 . S
C29 O25 1.258 . S
C29 O26 1.247 1_556 S
H30 C3 0.949 . S
H31 C5 0.950 . S
H32 C12 0.949 . S
H33 C14 0.950 . S
C34 O50 1.251 . S
C34 O52 1.254 . S
N35 C36 1.333 . S
N35 C40 1.307 . S
N35 Zn41 2.020 . S
C36 N35 1.333 . S
C36 C37 1.379 . S
C36 H54 0.952 . S
C37 C36 1.379 . S
C37 C38 1.390 . S
C37 H64 0.949 . S
C38 C37 1.390 . S
C38 C39 1.357 . S
C39 C38 1.357 . S
C39 C40 1.370 . S
C39 H65 0.950 . S
C40 N35 1.307 . S
C40 C39 1.370 . S
C40 H58 0.948 . S
Zn41 N35 2.020 . S
Zn41 O50 2.039 . S
Zn41 O56 2.034 . S
Zn41 O60 2.025 . S
Zn41 O62 2.024 . S
C42 O61 1.246 . S
C42 O62 1.249 . S
N43 C44 1.307 . S
N43 C45 1.333 . S
N43 Zn49 2.020 . S
C44 N43 1.307 . S
C44 C48 1.370 . S
C44 H55 0.948 . S
C45 N43 1.333 . S
C45 C46 1.379 . S
C45 H53 0.952 . S
C46 C45 1.379 . S
C46 C47 1.390 . S
C46 H66 0.949 . S
C47 C46 1.390 . S
C47 C48 1.357 . S
C48 C44 1.370 . S
C48 C47 1.357 . S
C48 H67 0.950 . S
Zn49 N43 2.020 . S
Zn49 O52 2.025 . S
Zn49 O57 2.024 . S
Zn49 O59 2.039 . S
Zn49 O61 2.034 . S
O50 C34 1.251 . S
O50 Zn41 2.039 . S
C51 O56 1.246 . S
C51 O57 1.249 . S
O52 C34 1.254 . S
O52 Zn49 2.025 . S
H53 C45 0.952 . S
H54 C36 0.952 . S
H55 C44 0.948 . S
O56 Zn41 2.034 . S
O56 C51 1.246 . S
O57 Zn49 2.024 . S
O57 C51 1.249 . S
H58 C40 0.948 . S
O59 Zn49 2.039 . S
O59 C63 1.251 . S
O60 Zn41 2.025 . S
O60 C63 1.254 . S
O61 C42 1.246 . S
O61 Zn49 2.034 . S
O62 Zn41 2.024 . S
O62 C42 1.249 . S
C63 O59 1.251 . S
C63 O60 1.254 . S
H64 C37 0.949 . S
H65 C39 0.950 . S
H66 C46 0.949 . S
H67 C48 0.950 . S
C68 N69 1.317 1_545 S
C68 N70 1.348 1_455 S
C68 C71 1.485 1_545 S
N69 C68 1.317 1_565 S
N69 N73 1.370 1_565 S
N70 C68 1.348 1_655 S
N70 C72 1.346 . S
C71 C68 1.485 1_565 S
C71 H75 0.960 1_455 S
C71 H76 0.961 1_565 S
C71 H77 0.960 . S
C72 N70 1.346 . S
C72 N73 1.307 1_655 S
C72 C74 1.486 . S
N73 N69 1.370 1_545 S
N73 C72 1.307 1_455 S
C74 C72 1.486 . S
C74 H78 0.960 . S
C74 H79 0.960 . S
C74 H80 0.959 . S
H75 C71 0.960 1_655 S
H76 C71 0.961 1_545 S
H77 C71 0.960 . S
H78 C74 0.960 . S
H79 C74 0.960 . S
H80 C74 0.959 . S
C81 N82 1.317 . S
C81 N83 1.360 1_455 S
C81 C84 1.485 . S
N82 C81 1.317 . S
N82 N86 1.370 . S
N83 C81 1.360 1_655 S
N83 C85 1.351 . S
C84 C81 1.485 . S
C84 H88 0.960 . S
C84 H89 0.961 . S
C84 H90 0.960 . S
C85 N83 1.351 . S
C85 N86 1.307 1_655 S
C85 C87 1.486 1_545 S
N86 N82 1.370 . S
N86 C85 1.307 1_455 S
C87 C85 1.486 1_565 S
C87 H91 0.960 . S
C87 H92 0.960 . S
C87 H93 0.959 . S
H88 C84 0.960 . S
H89 C84 0.961 . S
H90 C84 0.960 . S
H91 C87 0.960 . S
H92 C87 0.960 . S
H93 C87 0.959 . S
C94 N95 1.317 . S
C94 N96 1.348 . S
C94 C97 1.485 1_556 S
N95 C94 1.317 . S
N95 N99 1.370 . S
N96 C94 1.348 . S
N96 C98 1.346 . S
C97 C94 1.485 1_554 S
C97 H101 0.960 . S
C97 H102 0.961 . S
C97 H103 0.960 . S
C98 N96 1.346 . S
C98 N99 1.307 . S
C98 C100 1.486 . S
N99 N95 1.370 . S
N99 C98 1.307 . S
C100 C98 1.486 . S
C100 H104 0.960 . S
C100 H105 0.960 . S
C100 H106 0.959 . S
H101 C97 0.960 . S
H102 C97 0.961 . S
H103 C97 0.960 . S
H104 C100 0.960 . S
H105 C100 0.960 . S
H106 C100 0.959 . S
C107 N108 1.317 . S
C107 N109 1.348 . S
C107 C110 1.485 1_554 S
N108 C107 1.317 . S
N108 N112 1.370 . S
N109 C107 1.348 . S
N109 C111 1.346 . S
C110 C107 1.485 1_556 S
C110 H114 0.960 . S
C110 H115 0.961 . S
C110 H116 0.960 . S
C111 N109 1.346 . S
C111 N112 1.307 . S
C111 C113 1.486 . S
N112 N108 1.370 . S
N112 C111 1.307 . S
C113 C111 1.486 . S
C113 H117 0.960 . S
C113 H118 0.960 . S
C113 H119 0.959 . S
H114 C110 0.960 . S
H115 C110 0.961 . S
H116 C110 0.960 . S
H117 C113 0.960 . S
H118 C113 0.960 . S
H119 C113 0.959 . S
H120 C128 0.929 . S
H121 C130 0.930 . S
H122 C132 0.930 . S
H123 C135 0.929 . S
H124 C138 0.930 . S
H125 C140 0.960 . S
H126 C140 0.960 . S
H127 C140 0.960 . S
C128 H120 0.929 . S
C128 C129 1.368 1_554 S
C128 C130 1.384 . S
C129 C128 1.368 1_556 S
C129 C135 1.397 . S
C130 H121 0.930 . S
C130 C128 1.384 . S
C130 C131 1.372 . S
C131 C130 1.372 . S
C131 C132 1.400 1_554 S
C131 C136 1.490 . S
C132 H122 0.930 . S
C132 C131 1.400 1_556 S
C132 C135 1.386 . S
H133 C149 0.930 . S
H134 C150 0.914 1_556 S
C135 H123 0.929 . S
C135 C129 1.397 . S
C135 C132 1.386 . S
C136 C131 1.490 . S
C136 C138 1.395 . S
C136 C139 1.403 1_554 S
H137 C143 0.930 . S
C138 H124 0.930 . S
C138 C136 1.395 . S
C138 C141 1.403 . S
C139 C136 1.403 1_556 S
C139 C140 1.524 . S
C139 C143 1.400 . S
C140 H125 0.960 . S
C140 H126 0.960 . S
C140 H127 0.960 . S
C140 C139 1.524 . S
C141 C138 1.403 . S
C141 C142 1.392 . S
C141 C145 1.495 . S
C142 C141 1.392 . S
C142 C143 1.385 1_554 S
C142 C144 1.478 . S
C143 H137 0.930 . S
C143 C139 1.400 . S
C143 C142 1.385 1_556 S
C144 C142 1.478 . S
C144 C146 1.381 . S
C144 C150 1.383 . S
C145 C141 1.495 . S
C145 H151 0.959 . S
C145 H152 0.961 . S
C145 H153 0.960 . S
C146 C144 1.381 . S
C146 C147 1.394 . S
C146 H154 0.930 . S
C147 C146 1.394 . S
C147 C148 1.383 . S
C147 H155 0.929 . S
C148 C147 1.383 . S
C148 C149 1.377 . S
C149 H133 0.930 . S
C149 C148 1.377 . S
C149 C150 1.379 . S
C150 H134 0.914 1_554 S
C150 C144 1.383 . S
C150 C149 1.379 . S
H151 C145 0.959 . S
H152 C145 0.961 . S
H153 C145 0.960 . S
H154 C146 0.930 . S
H155 C147 0.929 . S
H156 C164 0.929 . S
H157 C166 0.930 . S
H158 C168 0.930 . S
H159 C171 0.929 . S
H160 C174 0.930 . S
H161 C176 0.960 . S
H162 C176 0.960 . S
H163 C176 0.960 1_554 S
C164 H156 0.929 . S
C164 C165 1.377 1_556 S
C164 C166 1.384 . S
C165 C164 1.377 1_554 S
C165 C171 1.390 . S
C166 H157 0.930 . S
C166 C164 1.384 . S
C166 C167 1.372 . S
C167 C166 1.372 . S
C167 C168 1.400 1_556 S
C167 C172 1.490 . S
C168 H158 0.930 . S
C168 C167 1.400 1_554 S
C168 C171 1.386 . S
H169 C185 0.930 . S
H170 C186 0.931 . S
C171 H159 0.929 . S
C171 C165 1.390 . S
C171 C168 1.386 . S
C172 C167 1.490 . S
C172 C174 1.395 . S
C172 C175 1.403 . S
H173 C179 0.930 . S
C174 H160 0.930 . S
C174 C172 1.395 . S
C174 C177 1.403 . S
C175 C172 1.403 . S
C175 C176 1.524 . S
C175 C179 1.400 . S
C176 H161 0.960 . S
C176 H162 0.960 . S
C176 H163 0.960 1_556 S
C176 C175 1.524 . S
C177 C174 1.403 . S
C177 C178 1.392 . S
C177 C181 1.495 . S
C178 C177 1.392 . S
C178 C179 1.385 . S
C178 C180 1.478 . S
C179 H173 0.930 . S
C179 C175 1.400 . S
C179 C178 1.385 . S
C180 C178 1.478 . S
C180 C182 1.381 . S
C180 C186 1.383 1_556 S
C181 C177 1.495 . S
C181 H187 0.959 . S
C181 H188 0.961 . S
C181 H189 0.960 . S
C182 C180 1.381 . S
C182 C183 1.394 . S
C182 H190 0.930 . S
C183 C182 1.394 . S
C183 C184 1.383 . S
C183 H191 0.929 . S
C184 C183 1.383 . S
C184 C185 1.377 1_556 S
C185 H169 0.930 . S
C185 C184 1.377 1_554 S
C185 C186 1.379 . S
C186 H170 0.931 . S
C186 C180 1.383 1_554 S
C186 C185 1.379 . S
H187 C181 0.959 . S
H188 C181 0.961 . S
H189 C181 0.960 . S
H190 C182 0.930 . S
H191 C183 0.929 . S
H192 C200 0.929 . S
H193 C202 0.930 . S
H194 C204 0.930 . S
H195 C207 0.929 . S
H196 C210 0.930 . S
H197 C212 0.960 . S
H198 C212 0.967 . S
H199 C212 0.960 . S
C200 H192 0.929 . S
C200 C201 1.377 1_556 S
C200 C202 1.384 . S
C201 C200 1.377 1_554 S
C201 C207 1.390 . S
C202 H193 0.930 . S
C202 C200 1.384 . S
C202 C203 1.372 1_556 S
C203 C202 1.372 1_554 S
C203 C204 1.400 . S
C203 C208 1.490 . S
C204 H194 0.930 . S
C204 C203 1.400 . S
C204 C207 1.386 . S
H205 C221 0.930 . S
H206 C222 0.931 . S
C207 H195 0.929 . S
C207 C201 1.390 . S
C207 C204 1.386 . S
C208 C203 1.490 . S
C208 C210 1.395 . S
C208 C211 1.403 . S
H209 C215 0.930 . S
C210 H196 0.930 . S
C210 C208 1.395 . S
C210 C213 1.403 . S
C211 C208 1.403 . S
C211 C212 1.524 . S
C211 C215 1.400 . S
C212 H197 0.960 . S
C212 H198 0.967 . S
C212 H199 0.960 . S
C212 C211 1.524 . S
C213 C210 1.403 . S
C213 C214 1.392 . S
C213 C217 1.495 . S
C214 C213 1.392 . S
C214 C215 1.385 . S
C214 C216 1.478 . S
C215 H209 0.930 . S
C215 C211 1.400 . S
C215 C214 1.385 . S
C216 C214 1.478 . S
C216 C218 1.381 . S
C216 C222 1.383 . S
C217 C213 1.495 . S
C217 H223 0.959 . S
C217 H224 0.961 . S
C217 H225 0.960 . S
C218 C216 1.381 . S
C218 C219 1.394 . S
C218 H226 0.930 1_554 S
C219 C218 1.394 . S
C219 C220 1.383 . S
C219 H227 0.929 1_554 S
C220 C219 1.383 . S
C220 C221 1.377 . S
C221 H205 0.930 . S
C221 C220 1.377 . S
C221 C222 1.379 . S
C222 H206 0.931 . S
C222 C216 1.383 . S
C222 C221 1.379 . S
H223 C217 0.959 . S
H224 C217 0.961 . S
H225 C217 0.960 . S
H226 C218 0.930 1_556 S
H227 C219 0.929 1_556 S
H228 C236 0.929 . S
H229 C238 0.930 . S
H230 C240 0.930 . S
H231 C243 0.929 . S
H232 C246 0.930 . S
H233 C248 0.960 1_554 S
H234 C248 0.960 . S
H235 C248 0.960 1_554 S
C236 H228 0.929 . S
C236 C237 1.377 . S
C236 C238 1.384 . S
C237 C236 1.377 . S
C237 C243 1.390 1_556 S
C238 H229 0.930 . S
C238 C236 1.384 . S
C238 C239 1.372 . S
C239 C238 1.372 . S
C239 C240 1.400 1_556 S
C239 C244 1.490 . S
C240 H230 0.930 . S
C240 C239 1.400 1_554 S
C240 C243 1.386 . S
H241 C257 0.930 1_554 S
H242 C258 0.931 1_554 S
C243 H231 0.929 . S
C243 C237 1.390 1_554 S
C243 C240 1.386 . S
C244 C239 1.490 . S
C244 C246 1.395 . S
C244 C247 1.403 . S
H245 C251 0.930 . S
C246 H232 0.930 . S
C246 C244 1.395 . S
C246 C249 1.403 . S
C247 C244 1.403 . S
C247 C248 1.524 . S
C247 C251 1.400 . S
C248 H233 0.960 1_556 S
C248 H234 0.960 . S
C248 H235 0.960 1_556 S
C248 C247 1.524 . S
C249 C246 1.403 . S
C249 C250 1.392 . S
C249 C253 1.495 . S
C250 C249 1.392 . S
C250 C251 1.385 . S
C250 C252 1.478 . S
C251 H245 0.930 . S
C251 C247 1.400 . S
C251 C250 1.385 . S
C252 C250 1.478 . S
C252 C254 1.381 . S
C252 C258 1.383 . S
C253 C249 1.495 . S
C253 H259 0.959 . S
C253 H260 0.961 . S
C253 H261 0.960 . S
C254 C252 1.381 . S
C254 C255 1.394 . S
C254 H262 0.930 . S
C255 C254 1.394 . S
C255 C256 1.383 . S
C255 H263 0.929 . S
C256 C255 1.383 . S
C256 C257 1.377 . S
C257 H241 0.930 1_556 S
C257 C256 1.377 . S
C257 C258 1.379 . S
C258 H242 0.931 1_556 S
C258 C252 1.383 . S
C258 C257 1.379 . S
H259 C253 0.959 . S
H260 C253 0.961 . S
H261 C253 0.960 . S
H262 C254 0.930 . S
H263 C255 0.929 . S
H264 C272 0.929 . S
H265 C274 0.930 . S
H266 C276 0.930 . S
H267 C279 0.929 . S
H268 C282 0.930 . S
H269 C284 0.960 . S
H270 C284 0.960 . S
H271 C284 0.960 . S
C272 H264 0.929 . S
C272 C273 1.377 . S
C272 C274 1.384 . S
C273 C272 1.377 . S
C273 C279 1.390 . S
C274 H265 0.930 . S
C274 C272 1.384 . S
C274 C275 1.372 . S
C275 C274 1.372 . S
C275 C276 1.400 . S
C275 C280 1.490 . S
C276 H266 0.930 . S
C276 C275 1.400 . S
C276 C279 1.386 . S
H277 C293 0.930 . S
H278 C294 0.931 . S
C279 H267 0.929 . S
C279 C273 1.390 . S
C279 C276 1.386 . S
C280 C275 1.490 . S
C280 C282 1.395 . S
C280 C283 1.403 . S
H281 C287 0.930 . S
C282 H268 0.930 . S
C282 C280 1.395 . S
C282 C285 1.403 . S
C283 C280 1.403 . S
C283 C284 1.524 . S
C283 C287 1.400 . S
C284 H269 0.960 . S
C284 H270 0.960 . S
C284 H271 0.960 . S
C284 C283 1.524 . S
C285 C282 1.403 . S
C285 C286 1.392 . S
C285 C289 1.495 . S
C286 C285 1.392 . S
C286 C287 1.385 . S
C286 C288 1.478 . S
C287 H281 0.930 . S
C287 C283 1.400 . S
C287 C286 1.385 . S
C288 C286 1.478 . S
C288 C290 1.381 . S
C288 C294 1.383 . S
C289 C285 1.495 . S
C289 H295 0.959 . S
C289 H296 0.961 . S
C289 H297 0.960 . S
C290 C288 1.381 . S
C290 C291 1.394 . S
C290 H298 0.930 . S
C291 C290 1.394 . S
C291 C292 1.383 . S
C291 H299 0.929 . S
C292 C291 1.383 . S
C292 C293 1.377 . S
C293 H277 0.930 . S
C293 C292 1.377 . S
C293 C294 1.379 . S
C294 H278 0.931 . S
C294 C288 1.383 . S
C294 C293 1.379 . S
H295 C289 0.959 . S
H296 C289 0.961 . S
H297 C289 0.960 . S
H298 C290 0.930 . S
H299 C291 0.929 . S
H300 C308 0.929 . S
H301 C310 0.930 . S
H302 C312 0.930 . S
H303 C315 0.929 . S
H304 C318 0.930 . S
H305 C320 0.960 . S
H306 C320 0.960 . S
H307 C320 0.960 . S
C308 H300 0.929 . S
C308 C309 1.377 . S
C308 C310 1.384 . S
C309 C308 1.377 . S
C309 C315 1.390 . S
C310 H301 0.930 . S
C310 C308 1.384 . S
C310 C311 1.372 . S
C311 C310 1.372 . S
C311 C312 1.400 . S
C311 C316 1.490 . S
C312 H302 0.930 . S
C312 C311 1.400 . S
C312 C315 1.386 . S
H313 C329 0.930 . S
H314 C330 0.931 . S
C315 H303 0.929 . S
C315 C309 1.390 . S
C315 C312 1.386 . S
C316 C311 1.490 . S
C316 C318 1.395 . S
C316 C319 1.403 . S
H317 C323 0.930 . S
C318 H304 0.930 . S
C318 C316 1.395 . S
C318 C321 1.403 . S
C319 C316 1.403 . S
C319 C320 1.524 . S
C319 C323 1.400 . S
C320 H305 0.960 . S
C320 H306 0.960 . S
C320 H307 0.960 . S
C320 C319 1.524 . S
C321 C318 1.403 . S
C321 C322 1.392 . S
C321 C325 1.495 . S
C322 C321 1.392 . S
C322 C323 1.385 . S
C322 C324 1.478 . S
C323 H317 0.930 . S
C323 C319 1.400 . S
C323 C322 1.385 . S
C324 C322 1.478 . S
C324 C326 1.381 . S
C324 C330 1.383 . S
C325 C321 1.495 . S
C325 H331 0.959 . S
C325 H332 0.961 . S
C325 H333 0.960 . S
C326 C324 1.381 . S
C326 C327 1.394 . S
C326 H334 0.930 . S
C327 C326 1.394 . S
C327 C328 1.383 . S
C327 H335 0.929 . S
C328 C327 1.383 . S
C328 C329 1.377 . S
C329 H313 0.930 . S
C329 C328 1.377 . S
C329 C330 1.379 . S
C330 H314 0.931 . S
C330 C324 1.383 . S
C330 C329 1.379 . S
H331 C325 0.959 . S
H332 C325 0.961 . S
H333 C325 0.960 . S
H334 C326 0.930 . S
H335 C327 0.929 . S
H336 C344 0.929 . S
H337 C346 0.930 . S
H338 C348 0.930 . S
H339 C351 0.929 . S
H340 C354 0.930 . S
H341 C356 0.960 . S
H342 C356 0.960 . S
H343 C356 0.960 . S
C344 H336 0.929 . S
C344 C345 1.377 . S
C344 C346 1.384 . S
C345 C344 1.377 . S
C345 C351 1.390 . S
C346 H337 0.930 . S
C346 C344 1.384 . S
C346 C347 1.372 . S
C347 C346 1.372 . S
C347 C348 1.400 . S
C347 C352 1.490 . S
C348 H338 0.930 . S
C348 C347 1.400 . S
C348 C351 1.386 . S
H349 C365 0.930 . S
H350 C366 0.931 . S
C351 H339 0.929 . S
C351 C345 1.390 . S
C351 C348 1.386 . S
C352 C347 1.490 . S
C352 C354 1.395 . S
C352 C355 1.403 . S
H353 C359 0.930 . S
C354 H340 0.930 . S
C354 C352 1.395 . S
C354 C357 1.403 . S
C355 C352 1.403 . S
C355 C356 1.524 . S
C355 C359 1.400 . S
C356 H341 0.960 . S
C356 H342 0.960 . S
C356 H343 0.960 . S
C356 C355 1.524 . S
C357 C354 1.403 . S
C357 C358 1.392 . S
C357 C361 1.495 . S
C358 C357 1.392 . S
C358 C359 1.385 . S
C358 C360 1.478 . S
C359 H353 0.930 . S
C359 C355 1.400 . S
C359 C358 1.385 . S
C360 C358 1.478 . S
C360 C362 1.381 . S
C360 C366 1.383 . S
C361 C357 1.495 . S
C361 H367 0.959 . S
C361 H368 0.961 . S
C361 H369 0.960 . S
C362 C360 1.381 . S
C362 C363 1.394 . S
C362 H370 0.930 . S
C363 C362 1.394 . S
C363 C364 1.383 . S
C363 H371 0.929 . S
C364 C363 1.383 . S
C364 C365 1.377 . S
C365 H349 0.930 . S
C365 C364 1.377 . S
C365 C366 1.379 . S
C366 H350 0.931 . S
C366 C360 1.383 . S
C366 C365 1.379 . S
H367 C361 0.959 . S
H368 C361 0.961 . S
H369 C361 0.960 . S
H370 C362 0.930 . S
H371 C363 0.929 . S
H372 C380 0.929 . S
H373 C382 0.930 . S
H374 C384 0.930 . S
H375 C387 0.929 . S
H376 C390 0.930 . S
H377 C392 0.960 . S
H378 C392 0.960 . S
H379 C392 0.960 . S
C380 H372 0.929 . S
C380 C381 1.377 . S
C380 C382 1.384 . S
C381 C380 1.377 . S
C381 C387 1.390 . S
C382 H373 0.930 . S
C382 C380 1.384 . S
C382 C383 1.372 . S
C383 C382 1.372 . S
C383 C384 1.400 . S
C383 C388 1.490 . S
C384 H374 0.930 . S
C384 C383 1.400 . S
C384 C387 1.386 . S
H385 C401 0.930 . S
H386 C402 0.931 . S
C387 H375 0.929 . S
C387 C381 1.390 . S
C387 C384 1.386 . S
C388 C383 1.490 . S
C388 C390 1.395 . S
C388 C391 1.403 . S
H389 C395 0.930 . S
C390 H376 0.930 . S
C390 C388 1.395 . S
C390 C393 1.403 . S
C391 C388 1.403 . S
C391 C392 1.524 . S
C391 C395 1.400 . S
C392 H377 0.960 . S
C392 H378 0.960 . S
C392 H379 0.960 . S
C392 C391 1.524 . S
C393 C390 1.403 . S
C393 C394 1.392 . S
C393 C397 1.495 . S
C394 C393 1.392 . S
C394 C395 1.385 . S
C394 C396 1.478 . S
C395 H389 0.930 . S
C395 C391 1.400 . S
C395 C394 1.385 . S
C396 C394 1.478 . S
C396 C398 1.381 . S
C396 C402 1.383 . S
C397 C393 1.495 . S
C397 H403 0.959 . S
C397 H404 0.961 . S
C397 H405 0.960 . S
C398 C396 1.381 . S
C398 C399 1.394 . S
C398 H406 0.930 . S
C399 C398 1.394 . S
C399 C400 1.383 . S
C399 H407 0.929 . S
C400 C399 1.383 . S
C400 C401 1.377 . S
C401 H385 0.930 . S
C401 C400 1.377 . S
C401 C402 1.379 . S
C402 H386 0.931 . S
C402 C396 1.383 . S
C402 C401 1.379 . S
H403 C397 0.959 . S
H404 C397 0.961 . S
H405 C397 0.960 . S
H406 C398 0.930 . S
H407 C399 0.929 . S
H408 C416 0.929 . S
H409 C418 0.930 . S
H410 C420 0.930 . S
H411 C423 0.929 . S
H412 C426 0.930 . S
H413 C428 0.960 . S
H414 C428 0.960 1_455 S
H415 C428 0.960 . S
C416 H408 0.929 . S
C416 C417 1.377 1_545 S
C416 C418 1.384 . S
C417 C416 1.377 1_565 S
C417 C423 1.390 1_455 S
C418 H409 0.930 . S
C418 C416 1.384 . S
C418 C419 1.372 1_545 S
C419 C418 1.372 1_565 S
C419 C420 1.400 1_455 S
C419 C424 1.490 . S
C420 H410 0.930 . S
C420 C419 1.400 1_655 S
C420 C423 1.386 . S
H421 C437 0.930 . S
H422 C438 0.931 . S
C423 H411 0.929 . S
C423 C417 1.390 1_655 S
C423 C420 1.386 . S
C424 C419 1.490 . S
C424 C426 1.395 1_565 S
C424 C427 1.403 . S
H425 C431 0.930 1_655 S
C426 H412 0.930 . S
C426 C424 1.395 1_545 S
C426 C429 1.403 . S
C427 C424 1.403 . S
C427 C428 1.524 1_455 S
C427 C431 1.400 . S
C428 H413 0.960 . S
C428 H414 0.960 1_655 S
C428 H415 0.960 . S
C428 C427 1.524 1_655 S
C429 C426 1.403 . S
C429 C430 1.392 . S
C429 C433 1.495 . S
C430 C429 1.392 . S
C430 C431 1.385 1_545 S
C430 C432 1.478 . S
C431 H425 0.930 1_455 S
C431 C427 1.400 . S
C431 C430 1.385 1_565 S
C432 C430 1.478 . S
C432 C434 1.381 . S
C432 C438 1.383 1_445 S
C433 C429 1.495 . S
C433 H439 0.959 . S
C433 H440 0.961 . S
C433 H441 0.960 . S
C434 C432 1.381 . S
C434 C435 1.394 . S
C434 H442 0.930 . S
C435 C434 1.394 . S
C435 C436 1.383 1_545 S
C435 H443 0.929 . S
C436 C435 1.383 1_565 S
C436 C437 1.377 1_455 S
C437 H421 0.930 . S
C437 C436 1.377 1_655 S
C437 C438 1.379 . S
C438 H422 0.931 . S
C438 C432 1.383 1_665 S
C438 C437 1.379 . S
H439 C433 0.959 . S
H440 C433 0.961 . S
H441 C433 0.960 . S
H442 C434 0.930 . S
H443 C435 0.929 . S
H444 C452 0.929 . S
H445 C454 0.930 . S
H446 C456 0.930 . S
H447 C459 0.929 . S
H448 C462 0.930 . S
H449 C464 0.960 . S
H450 C464 0.960 . S
H451 C464 0.960 . S
C452 H444 0.929 . S
C452 C453 1.377 . S
C452 C454 1.384 . S
C453 C452 1.377 . S
C453 C459 1.390 1_455 S
C454 H445 0.930 . S
C454 C452 1.384 . S
C454 C455 1.372 . S
C455 C454 1.372 . S
C455 C456 1.400 1_455 S
C455 C460 1.490 . S
C456 H446 0.930 . S
C456 C455 1.400 1_655 S
C456 C459 1.386 . S
H457 C473 0.930 . S
H458 C474 0.931 . S
C459 H447 0.929 . S
C459 C453 1.390 1_655 S
C459 C456 1.386 . S
C460 C455 1.490 . S
C460 C462 1.395 . S
C460 C463 1.403 1_455 S
H461 C467 0.920 1_655 S
C462 H448 0.930 . S
C462 C460 1.395 . S
C462 C465 1.403 . S
C463 C460 1.403 1_655 S
C463 C464 1.524 . S
C463 C467 1.399 1_655 S
C464 H449 0.960 . S
C464 H450 0.960 . S
C464 H451 0.960 . S
C464 C463 1.524 . S
C465 C462 1.403 . S
C465 C466 1.392 . S
C465 C469 1.495 1_545 S
C466 C465 1.392 . S
C466 C467 1.396 . S
C466 C468 1.478 . S
C467 H461 0.920 1_455 S
C467 C463 1.399 1_455 S
C467 C466 1.396 . S
C468 C466 1.478 . S
C468 C470 1.381 . S
C468 C474 1.383 1_455 S
C469 C465 1.495 1_565 S
C469 H475 0.959 . S
C469 H476 0.961 . S
C469 H477 0.960 1_565 S
C470 C468 1.381 . S
C470 C471 1.394 . S
C470 H478 0.930 . S
C471 C470 1.394 . S
C471 C472 1.383 . S
C471 H479 0.929 . S
C472 C471 1.383 . S
C472 C473 1.377 1_455 S
C473 H457 0.930 . S
C473 C472 1.377 1_655 S
C473 C474 1.379 . S
C474 H458 0.931 . S
C474 C468 1.383 1_655 S
C474 C473 1.379 . S
H475 C469 0.959 . S
H476 C469 0.961 . S
H477 C469 0.960 1_545 S
H478 C470 0.930 . S
H479 C471 0.929 . S
H480 C488 0.929 . S
H481 C490 0.930 . S
H482 C492 0.930 . S
H483 C495 0.929 . S
H484 C498 0.930 . S
H485 C500 0.960 . S
H486 C500 0.960 . S
H487 C500 0.960 . S
C488 H480 0.929 . S
C488 C489 1.377 . S
C488 C490 1.384 . S
C489 C488 1.377 . S
C489 C495 1.390 . S
C490 H481 0.930 . S
C490 C488 1.384 . S
C490 C491 1.372 . S
C491 C490 1.372 . S
C491 C492 1.400 . S
C491 C496 1.490 . S
C492 H482 0.930 . S
C492 C491 1.400 . S
C492 C495 1.386 . S
H493 C509 0.930 . S
H494 C510 0.931 . S
C495 H483 0.929 . S
C495 C489 1.390 . S
C495 C492 1.386 . S
C496 C491 1.490 . S
C496 C498 1.395 . S
C496 C499 1.403 . S
H497 C503 0.930 . S
C498 H484 0.930 . S
C498 C496 1.395 . S
C498 C501 1.403 . S
C499 C496 1.403 . S
C499 C500 1.524 . S
C499 C503 1.400 . S
C500 H485 0.960 . S
C500 H486 0.960 . S
C500 H487 0.960 . S
C500 C499 1.524 . S
C501 C498 1.403 . S
C501 C502 1.392 . S
C501 C505 1.495 . S
C502 C501 1.392 . S
C502 C503 1.385 . S
C502 C504 1.478 . S
C503 H497 0.930 . S
C503 C499 1.400 . S
C503 C502 1.385 . S
C504 C502 1.478 . S
C504 C506 1.381 . S
C504 C510 1.383 . S
C505 C501 1.495 . S
C505 H511 0.959 . S
C505 H512 0.961 . S
C505 H513 0.960 . S
C506 C504 1.381 . S
C506 C507 1.394 . S
C506 H514 0.930 . S
C507 C506 1.394 . S
C507 C508 1.383 . S
C507 H515 0.929 . S
C508 C507 1.383 . S
C508 C509 1.377 . S
C509 H493 0.930 . S
C509 C508 1.377 . S
C509 C510 1.379 . S
C510 H494 0.931 . S
C510 C504 1.383 . S
C510 C509 1.379 . S
H511 C505 0.959 . S
H512 C505 0.961 . S
H513 C505 0.960 . S
H514 C506 0.930 . S
H515 C507 0.929 . S
H516 C524 0.929 . S
H517 C526 0.930 . S
H518 C528 0.930 . S
H519 C531 0.929 . S
H520 C534 0.930 . S
H521 C536 0.960 . S
H522 C536 0.960 . S
H523 C536 0.960 . S
C524 H516 0.929 . S
C524 C525 1.377 . S
C524 C526 1.384 . S
C525 C524 1.377 . S
C525 C531 1.390 . S
C526 H517 0.930 . S
C526 C524 1.384 . S
C526 C527 1.372 . S
C527 C526 1.372 . S
C527 C528 1.400 . S
C527 C532 1.490 . S
C528 H518 0.930 . S
C528 C527 1.400 . S
C528 C531 1.386 . S
H529 C545 0.930 . S
H530 C546 0.931 . S
C531 H519 0.929 . S
C531 C525 1.390 . S
C531 C528 1.386 . S
C532 C527 1.490 . S
C532 C534 1.395 . S
C532 C535 1.403 . S
H533 C539 0.930 . S
C534 H520 0.930 . S
C534 C532 1.395 . S
C534 C537 1.403 . S
C535 C532 1.403 . S
C535 C536 1.524 . S
C535 C539 1.400 . S
C536 H521 0.960 . S
C536 H522 0.960 . S
C536 H523 0.960 . S
C536 C535 1.524 . S
C537 C534 1.403 . S
C537 C538 1.392 . S
C537 C541 1.495 . S
C538 C537 1.392 . S
C538 C539 1.385 . S
C538 C540 1.478 . S
C539 H533 0.930 . S
C539 C535 1.400 . S
C539 C538 1.385 . S
C540 C538 1.478 . S
C540 C542 1.381 . S
C540 C546 1.383 . S
C541 C537 1.495 . S
C541 H547 0.959 . S
C541 H548 0.961 . S
C541 H549 0.960 . S
C542 C540 1.381 . S
C542 C543 1.394 . S
C542 H550 0.930 . S
C543 C542 1.394 . S
C543 C544 1.383 . S
C543 H551 0.929 . S
C544 C543 1.383 . S
C544 C545 1.377 . S
C545 H529 0.930 . S
C545 C544 1.377 . S
C545 C546 1.379 . S
C546 H530 0.931 . S
C546 C540 1.383 . S
C546 C545 1.379 . S
H547 C541 0.959 . S
H548 C541 0.961 . S
H549 C541 0.960 . S
H550 C542 0.930 . S
H551 C543 0.929 . S
C148 N109 1.269 . S
C129 C29 1.305 . S
C165 C8 1.326 . S
C184 N96 1.303 . S
C201 C0 1.481 . S
C220 N108 1.468 . S
C237 C17 1.466 . S
C256 N95 1.475 . S
C273 C63 1.302 . S
C292 N83 1.276 1_565 S
C309 C42 1.327 . S
C328 N70 1.300 . S
C364 N82 1.468 . S
C345 C34 1.482 . S
C400 N69 1.476 . S
C381 C51 1.466 . S
C417 C4 1.521 1_565 S
C436 N73 1.494 1_565 S
C453 C13 1.530 . S
C472 N86 1.512 . S
C508 N99 1.515 . S
C489 C38 1.521 . S
C525 C47 1.526 . S
C544 N112 1.528 . S
