# Generated by pormake.
# Topology pyr, (3,6)-cn, num edge types: 1
# Building blocks:
#     Node 0, Type 0, BuildingBlock: CUQRIR_clean_linker_1, # of connection points: 3
#     Node 1, Type 0, BuildingBlock: CUQRIR_clean_linker_1, # of connection points: 3
#     Node 2, Type 0, BuildingBlock: CUQRIR_clean_linker_1, # of connection points: 3
#     Node 3, Type 0, BuildingBlock: CUQRIR_clean_linker_1, # of connection points: 3
#     Node 4, Type 0, BuildingBlock: CUQRIR_clean_linker_1, # of connection points: 3
#     Node 5, Type 0, BuildingBlock: CUQRIR_clean_linker_1, # of connection points: 3
#     Node 6, Type 0, BuildingBlock: CUQRIR_clean_linker_1, # of connection points: 3
#     Node 7, Type 0, BuildingBlock: CUQRIR_clean_linker_1, # of connection points: 3
#     Node 8, Type 1, BuildingBlock: FUNLAD_clean_sbu_0, # of connection points: 6
#     Node 9, Type 1, BuildingBlock: FUNLAD_clean_sbu_0, # of connection points: 6
#     Node 10, Type 1, BuildingBlock: FUNLAD_clean_sbu_0, # of connection points: 6
#     Node 11, Type 1, BuildingBlock: FUNLAD_clean_sbu_0, # of connection points: 6
#     Edge 12, Type (0, 1), BuildingBlock: UVAHIK_clean_linker_0, # of connection points: 2
#     Edge 13, Type (0, 1), BuildingBlock: UVAHIK_clean_linker_0, # of connection points: 2
#     Edge 14, Type (0, 1), BuildingBlock: UVAHIK_clean_linker_0, # of connection points: 2
#     Edge 15, Type (0, 1), BuildingBlock: UVAHIK_clean_linker_0, # of connection points: 2
#     Edge 16, Type (0, 1), BuildingBlock: UVAHIK_clean_linker_0, # of connection points: 2
#     Edge 17, Type (0, 1), BuildingBlock: UVAHIK_clean_linker_0, # of connection points: 2
#     Edge 18, Type (0, 1), BuildingBlock: UVAHIK_clean_linker_0, # of connection points: 2
#     Edge 19, Type (0, 1), BuildingBlock: UVAHIK_clean_linker_0, # of connection points: 2
#     Edge 20, Type (0, 1), BuildingBlock: UVAHIK_clean_linker_0, # of connection points: 2
#     Edge 21, Type (0, 1), BuildingBlock: UVAHIK_clean_linker_0, # of connection points: 2
#     Edge 22, Type (0, 1), BuildingBlock: UVAHIK_clean_linker_0, # of connection points: 2
#     Edge 23, Type (0, 1), BuildingBlock: UVAHIK_clean_linker_0, # of connection points: 2
#     Edge 24, Type (0, 1), BuildingBlock: UVAHIK_clean_linker_0, # of connection points: 2
#     Edge 25, Type (0, 1), BuildingBlock: UVAHIK_clean_linker_0, # of connection points: 2
#     Edge 26, Type (0, 1), BuildingBlock: UVAHIK_clean_linker_0, # of connection points: 2
#     Edge 27, Type (0, 1), BuildingBlock: UVAHIK_clean_linker_0, # of connection points: 2
#     Edge 28, Type (0, 1), BuildingBlock: UVAHIK_clean_linker_0, # of connection points: 2
#     Edge 29, Type (0, 1), BuildingBlock: UVAHIK_clean_linker_0, # of connection points: 2
#     Edge 30, Type (0, 1), BuildingBlock: UVAHIK_clean_linker_0, # of connection points: 2
#     Edge 31, Type (0, 1), BuildingBlock: UVAHIK_clean_linker_0, # of connection points: 2
#     Edge 32, Type (0, 1), BuildingBlock: UVAHIK_clean_linker_0, # of connection points: 2
#     Edge 33, Type (0, 1), BuildingBlock: UVAHIK_clean_linker_0, # of connection points: 2
#     Edge 34, Type (0, 1), BuildingBlock: UVAHIK_clean_linker_0, # of connection points: 2
#     Edge 35, Type (0, 1), BuildingBlock: UVAHIK_clean_linker_0, # of connection points: 2
# Relax obj value: 0.153
# Max RMSD: 0.222
# Mean RMSD: 0.151
data_MOF--net-pry--node1-FUNLAD_clean_sbu_0--node2-CUQRIR_clean_linker_1--edge1-UVAHIK_clean_linker_0
_symmetry_space_group_name_H-M    P1
_symmetry_Int_Tables_number       1
_symmetry_cell_setting            triclinic
loop_
_symmetry_equiv_pos_as_xyz
'x, y, z'
_cell_length_a     43.450383
_cell_length_b     45.546471
_cell_length_c     45.432779
_cell_angle_alpha  88.553473
_cell_angle_beta   91.81933
_cell_angle_gamma 88.678974
loop_
_atom_site_label
_atom_site_type_symbol
_atom_site_fract_x
_atom_site_fract_y
_atom_site_fract_z
_atom_type_partial_charge
C0 C 0.16941 0.24373 0.19572 0.0
N1 N 0.18825 0.22016 0.20289 0.0
N2 N 0.18079 0.26002 0.17331 0.0
C3 C 0.14121 0.25233 0.21219 0.0
C4 C 0.20741 0.24563 0.16722 0.0
N5 N 0.21212 0.22161 0.18524 0.0
C6 C 0.22823 0.25434 0.14279 0.0
H7 H 0.12096 0.24126 0.20246 0.0
H8 H 0.13679 0.27641 0.21058 0.0
H9 H 0.14379 0.24551 0.23578 0.0
H10 H 0.24617 0.2689 0.15175 0.0
H11 H 0.21514 0.26641 0.12475 0.0
H12 H 0.23993 0.23482 0.1337 0.0
C13 C 0.38598 0.89639 0.67859 0.0
N14 N 0.37909 0.91826 0.69717 0.0
N15 N 0.41095 0.88043 0.68864 0.0
C16 C 0.36803 0.89035 0.6506 0.0
C17 C 0.41912 0.89342 0.71419 0.0
N18 N 0.39972 0.91643 0.71952 0.0
C19 C 0.44492 0.88265 0.7348 0.0
H20 H 0.34899 0.87545 0.65579 0.0
H21 H 0.38292 0.87955 0.63447 0.0
H22 H 0.35787 0.91099 0.64059 0.0
H23 H 0.46258 0.86997 0.72308 0.0
H24 H 0.43537 0.86807 0.752 0.0
H25 H 0.45586 0.90139 0.74587 0.0
C26 C 0.6017 0.49448 0.98041 0.0
N27 N 0.62785 0.48747 0.99638 0.0
N28 N 0.60659 0.51591 0.95997 0.0
C29 C 0.57267 0.47703 0.98136 0.0
C30 C 0.63655 0.52235 0.96476 0.0
N31 N 0.64955 0.50487 0.98647 0.0
C32 C 0.654 0.54313 0.94555 0.0
H33 H 0.57737 0.45452 0.97354 0.0
H34 H 0.55383 0.48759 0.96751 0.0
H35 H 0.56497 0.47508 1.00435 0.0
H36 H 0.63926 0.56248 0.93877 0.0
H37 H 0.66072 0.53172 0.92535 0.0
H38 H 0.67506 0.55076 0.95718 0.0
C39 C 0.9289 0.60508 0.44085 0.0
N40 N 0.94995 0.62544 0.43418 0.0
N41 N 0.9131 0.6128 0.46483 0.0
C42 C 0.92045 0.58016 0.42129 0.0
C43 C 0.92556 0.63857 0.47256 0.0
N44 N 0.94767 0.64641 0.45382 0.0
C45 C 0.91288 0.65812 0.49572 0.0
H46 H 0.90856 0.58917 0.40093 0.0
H47 H 0.90511 0.56461 0.43253 0.0
H48 H 0.94155 0.56817 0.41475 0.0
H49 H 0.90673 0.64484 0.51537 0.0
H50 H 0.89162 0.66952 0.48678 0.0
H51 H 0.92978 0.67479 0.50244 0.0
C52 C 0.86627 0.90746 0.86871 0.0
N53 N 0.89017 0.90284 0.85076 0.0
N54 N 0.85199 0.93369 0.86234 0.0
C55 C 0.85722 0.88631 0.89275 0.0
C56 C 0.86817 0.94499 0.83985 0.0
N57 N 0.89167 0.92643 0.83293 0.0
C58 C 0.86134 0.97437 0.8249 0.0
H59 H 0.85377 0.86426 0.88356 0.0
H60 H 0.83578 0.89345 0.90335 0.0
H61 H 0.87622 0.8842 0.90963 0.0
H62 H 0.87758 0.99061 0.83383 0.0
H63 H 0.83757 0.98239 0.82871 0.0
H64 H 0.86473 0.97305 0.80085 0.0
C65 C 0.71055 0.2309 0.3892 0.0
N66 N 0.71751 0.20873 0.3709 0.0
N67 N 0.68662 0.24778 0.378 0.0
C68 C 0.72866 0.23734 0.41701 0.0
C69 C 0.67942 0.23513 0.35202 0.0
N70 N 0.69834 0.2116 0.34748 0.0
C71 C 0.65234 0.24436 0.33215 0.0
H72 H 0.71908 0.22466 0.43563 0.0
H73 H 0.72721 0.26105 0.42193 0.0
H74 H 0.75323 0.23065 0.41519 0.0
H75 H 0.66019 0.25991 0.31492 0.0
H76 H 0.63412 0.25545 0.34468 0.0
H77 H 0.6424 0.22514 0.32109 0.0
C78 C 0.42205 0.60585 0.08048 0.0
N79 N 0.44475 0.62103 0.09385 0.0
N80 N 0.4144 0.61777 0.05352 0.0
C81 C 0.40498 0.58122 0.09487 0.0
C82 C 0.43448 0.63996 0.05061 0.0
N83 N 0.45253 0.64233 0.07521 0.0
C84 C 0.43341 0.66209 0.02538 0.0
H85 H 0.40109 0.56349 0.07901 0.0
H86 H 0.38214 0.58958 0.1016 0.0
H87 H 0.41796 0.57174 0.11441 0.0
H88 H 0.42394 0.68336 0.03291 0.0
H89 H 0.41905 0.65446 1.00656 0.0
H90 H 0.45708 0.6659 0.01792 0.0
C91 C 0.1044 0.49278 0.56874 0.0
N92 N 0.13096 0.48559 0.55549 0.0
N93 N 0.10796 0.51644 0.58592 0.0
C94 C 0.07646 0.47376 0.56902 0.0
C95 C 0.1375 0.52395 0.58191 0.0
N96 N 0.15155 0.50512 0.56376 0.0
C97 C 0.15362 0.54739 0.59884 0.0
H98 H 0.05709 0.4845 0.58029 0.0
H99 H 0.0825 0.45242 0.58035 0.0
H100 H 0.06875 0.46922 0.54612 0.0
H101 H 0.16132 0.53824 0.62078 0.0
H102 H 0.13762 0.56623 0.60227 0.0
H103 H 0.17398 0.55525 0.58708 0.0
C104 C 0.08585 0.07969 0.46777 0.0
N105 N 0.06632 0.12352 0.54477 0.0
C106 C 0.09571 0.13311 0.54348 0.0
C107 C 0.10226 0.16228 0.54881 0.0
C108 C 0.0783 0.18207 0.55489 0.0
C109 C 0.04828 0.17159 0.55705 0.0
C110 C 0.0428 0.14192 0.55211 0.0
Zn111 Zn 0.0587 0.08259 0.52893 0.0
C112 C 1.00001 0.08105 0.49223 0.0
N113 N 0.04691 0.99917 0.49107 0.0
C114 C 0.07058 0.98429 0.47877 0.0
C115 C 0.01853 0.98745 0.49282 0.0
C116 C 0.01314 0.95952 0.4823 0.0
C117 C 0.03719 0.94343 0.46981 0.0
C118 C 0.06621 0.95619 0.46798 0.0
Zn119 Zn 0.05352 0.03936 0.50832 0.0
O120 O 0.08067 0.09642 0.48915 0.0
C121 C 0.11163 0.04068 0.54557 0.0
O122 O 0.0776 0.0531 0.4697 0.0
H123 H 1.00011 0.99961 0.50282 0.0
H124 H 0.11399 0.11858 0.53669 0.0
H125 H 0.09295 0.99412 0.47761 0.0
O126 O 0.10195 0.06697 0.54838 0.0
O127 O 0.09589 0.02361 0.5296 0.0
H128 H 0.01957 0.13396 0.5528 0.0
O129 O 0.02982 0.02599 0.54722 0.0
O130 O 0.03654 0.06814 0.56856 0.0
O131 O 1.0108 0.05544 0.48743 0.0
O132 O 0.01514 0.0974 0.50948 0.0
C133 C 0.02659 0.042 0.56957 0.0
H134 H 0.12561 0.16964 0.54643 0.0
H135 H 0.02923 0.18632 0.56172 0.0
H136 H 0.99056 0.95033 0.48467 0.0
H137 H 0.08529 0.94459 0.45835 0.0
C138 C 0.58803 0.04692 1.01297 0.0
N139 N 0.54588 0.13105 1.0133 0.0
C140 C 0.57576 0.13941 0.01489 0.0
C141 C 0.58313 0.16881 1.01118 0.0
C142 C 0.55954 0.19003 1.00635 0.0
C143 C 0.52898 0.18082 1.00349 0.0
C144 C 0.52263 0.15095 1.00687 0.0
Zn145 Zn 0.53747 0.08932 0.02834 0.0
C146 C 0.5015 0.05263 0.98738 0.0
N147 N 0.52443 1.00419 0.06558 0.0
C148 C 0.54882 0.98728 0.07598 0.0
C149 C 0.49564 0.99323 0.06335 0.0
C150 C 0.49072 0.96385 0.07064 0.0
C151 C 0.51574 0.9454 0.07992 0.0
C152 C 0.54499 0.95765 0.08323 0.0
Zn153 Zn 0.53136 0.0455 0.04948 0.0
O154 O 0.57846 0.07328 1.00855 0.0
C155 C 0.56796 0.08172 0.09008 0.0
O156 O 0.57288 0.03014 0.02965 0.0
H157 H 0.4766 1.00705 0.05498 0.0
H158 H 0.59391 0.1236 0.02093 0.0
H159 H 0.57151 0.99649 0.07759 0.0
O160 O 0.56332 0.0993 0.06809 0.0
O161 O 0.55697 0.05611 0.08888 0.0
H162 H 0.49902 0.14394 1.00591 0.0
O163 O 0.48989 0.0613 0.06915 0.0
O164 O 0.4959 0.10458 0.04831 0.0
O165 O 0.50595 0.03525 1.00962 0.0
O166 O 0.51187 0.07857 0.98862 0.0
C167 C 0.48047 0.08777 0.06477 0.0
H168 H 0.60693 0.17506 1.01403 0.0
H169 H 0.51018 0.19662 0.99968 0.0
H170 H 0.46764 0.95554 0.06836 0.0
H171 H 0.56498 0.94425 0.09008 0.0
C172 C 0.5521 0.50721 0.50529 0.0
N173 N 0.54808 0.53893 0.59174 0.0
C174 C 0.53502 0.51469 0.60364 0.0
C175 C 0.53768 0.50885 0.634 0.0
C176 C 0.55409 0.52809 0.65204 0.0
C177 C 0.56828 0.55222 0.63889 0.0
C178 C 0.56489 0.5573 0.60866 0.0
Zn179 Zn 0.5392 0.5523 0.54916 0.0
C180 C 0.59447 0.57863 0.52262 0.0
N181 N 0.52019 0.58545 0.46197 0.0
C182 C 0.50279 0.5683 0.44425 0.0
C183 C 0.53244 0.61074 0.4515 0.0
C184 C 0.52776 0.61936 0.42192 0.0
C185 C 0.50992 0.60199 0.40323 0.0
C186 C 0.49714 0.57631 0.41475 0.0
Zn187 Zn 0.52916 0.57118 0.50433 0.0
O188 O 0.55223 0.51022 0.53309 0.0
C189 C 0.47399 0.54411 0.53061 0.0
O190 O 0.54325 0.52886 0.48856 0.0
H191 H 0.54619 0.62405 0.46599 0.0
H192 H 0.52162 0.50047 0.58977 0.0
H193 H 0.49365 0.54807 0.45287 0.0
O194 O 0.49298 0.53914 0.55209 0.0
O195 O 0.48303 0.55721 0.50755 0.0
H196 H 0.57461 0.57674 0.59892 0.0
O197 O 0.51558 0.61345 0.52079 0.0
O198 O 0.52612 0.59457 0.56483 0.0
O199 O 0.57524 0.58465 0.50158 0.0
O200 O 0.58544 0.56532 0.54555 0.0
C201 C 0.51693 0.61638 0.5486 0.0
H202 H 0.52657 0.48988 0.64333 0.0
H203 H 0.58068 0.5679 0.652 0.0
H204 H 0.53786 0.63939 0.41377 0.0
H205 H 0.4836 0.56216 0.40087 0.0
C206 C 1.01004 0.63468 0.98481 0.0
N207 N 0.02154 0.60128 0.07248 0.0
C208 C 0.03127 0.62756 0.0824 0.0
C209 C 0.02806 0.63461 0.112 0.0
C210 C 0.01479 0.61436 0.13145 0.0
C211 C 1.00507 0.58746 0.12042 0.0
C212 C 1.00849 0.58145 0.09085 0.0
Zn213 Zn 0.02666 0.58868 0.03006 0.0
C214 C 0.96886 0.56134 1.00712 0.0
N215 N 0.03613 0.55791 0.94321 0.0
C216 C 0.05018 0.57735 0.92514 0.0
C217 C 0.02286 0.53342 0.93249 0.0
C218 C 0.02243 0.52839 0.90222 0.0
C219 C 0.03556 0.54892 0.88304 0.0
C220 C 0.05017 0.57326 0.89493 0.0
Zn221 Zn 0.03167 0.57005 0.98574 0.0
O222 O 1.01145 0.63157 1.01278 0.0
C223 C 0.08959 0.59641 1.00935 0.0
O224 O 0.01693 0.61276 0.96934 0.0
H225 H 1.01166 0.51837 0.94726 0.0
H226 H 0.04164 0.64297 0.0674 0.0
H227 H 0.06048 0.59675 0.934 0.0
O228 O 0.07289 0.60204 0.03107 0.0
O229 O 0.07799 0.58351 0.98731 0.0
H230 H 1.00097 0.56065 0.08263 0.0
O231 O 0.0468 0.52749 1.00253 0.0
O232 O 0.04236 0.54584 0.04636 0.0
O233 O 0.98521 0.55641 0.98499 0.0
O234 O 0.98053 0.57471 0.0288 0.0
C235 C 0.04941 0.52424 0.03044 0.0
H236 H 0.0357 0.6557 0.11949 0.0
H237 H 0.99537 0.57085 0.1346 0.0
H238 H 1.01095 0.50933 0.89382 0.0
H239 H 0.06108 0.58929 0.88093 0.0
C240 C 0.20461 0.19401 0.24968 0.0
C241 C 0.18329 0.19838 0.22596 0.0
C242 C 0.19666 0.17778 0.27503 0.0
C243 C 0.12812 0.16134 0.31678 0.0
H244 H 0.17828 0.10208 0.35971 0.0
C245 C 0.10117 0.1222 0.43534 0.0
C246 C 0.10002 0.09164 0.44053 0.0
C247 C 0.11292 0.13375 0.40919 0.0
C248 C 0.164 0.11857 0.34792 0.0
H249 H 0.13799 0.18746 0.20926 0.0
H250 H 0.12389 0.15963 0.25339 0.0
H251 H 0.19651 0.12373 0.31345 0.0
H252 H 0.11125 0.04933 0.42233 0.0
H253 H 0.13253 0.06961 0.37691 0.0
H254 H 0.09592 0.15676 0.35132 0.0
C255 C 0.14662 0.16887 0.25268 0.0
C256 C 0.17453 0.13108 0.32153 0.0
C257 C 0.15471 0.18466 0.22735 0.0
C258 C 0.11171 0.07295 0.41909 0.0
C259 C 0.12403 0.08457 0.39311 0.0
C260 C 0.11793 0.14933 0.34335 0.0
C261 C 0.1671 0.16592 0.27723 0.0
C262 C 0.15657 0.15249 0.30551 0.0
C263 C 0.12439 0.11513 0.38765 0.0
C264 C 0.13564 0.12771 0.35927 0.0
H265 H 0.22665 0.2046 0.24933 0.0
H266 H 0.21298 0.17594 0.29355 0.0
H267 H 0.11382 0.17796 0.30519 0.0
H268 H 0.09239 0.13732 0.45126 0.0
H269 H 0.11306 0.15737 0.40583 0.0
C270 C 0.39635 0.92067 0.77336 0.0
C271 C 0.40049 0.93401 0.74563 0.0
C272 C 0.40362 0.93543 0.79931 0.0
C273 C 0.42261 1.00861 0.83033 0.0
H274 H 0.46566 0.96044 0.89071 0.0
C275 C 0.48562 0.05806 0.9332 0.0
C276 C 0.48598 0.04173 0.95996 0.0
C277 C 0.47318 0.0464 0.9071 0.0
C278 C 0.45327 0.9743 0.87441 0.0
H279 H 0.41469 0.97354 0.72324 0.0
H280 H 0.42721 0.99975 0.76854 0.0
H281 H 0.44673 0.93811 0.84592 0.0
H282 H 0.47233 1.00057 0.98012 0.0
H283 H 0.45026 0.9807 0.93523 0.0
H284 H 0.42939 0.04488 0.85898 0.0
C285 C 0.41801 0.97792 0.77038 0.0
C286 C 0.44233 0.96138 0.84852 0.0
C287 C 0.41069 0.96303 0.74436 0.0
C288 C 0.47276 0.0138 0.95999 0.0
C289 C 0.46025 1.00223 0.93403 0.0
C290 C 0.43352 0.02158 0.85637 0.0
C291 C 0.41545 0.964 0.79828 0.0
C292 C 0.4267 0.97824 0.82606 0.0
C293 C 0.46068 0.01807 0.90699 0.0
C294 C 0.44895 1.00459 0.87893 0.0
H295 H 0.38871 0.89823 0.77487 0.0
H296 H 0.40064 0.92411 0.82023 0.0
H297 H 0.41055 0.02237 0.81372 0.0
H298 H 0.49568 0.07959 0.93223 0.0
H299 H 0.47424 0.05929 0.88682 0.0
C300 C 0.59007 0.4937 0.91378 0.0
C301 C 0.59113 0.51838 0.93158 0.0
C302 C 0.57861 0.49619 0.88487 0.0
C303 C 0.57317 0.54917 0.82415 0.0
H304 H 0.52861 0.48723 0.78559 0.0
C305 C 0.58206 0.52997 0.70089 0.0
C306 C 0.55489 0.52455 0.68455 0.0
C307 C 0.58203 0.53026 0.73155 0.0
C308 C 0.54072 0.50489 0.79606 0.0
H309 H 0.5807 0.56483 0.93377 0.0
H310 H 0.56071 0.56957 0.88249 0.0
H311 H 0.53338 0.48719 0.83931 0.0
H312 H 0.50656 0.51436 0.68757 0.0
H313 H 0.50664 0.51446 0.74139 0.0
H314 H 0.58104 0.56656 0.78095 0.0
C315 C 0.56857 0.54821 0.8911 0.0
C316 C 0.54358 0.50479 0.82677 0.0
C317 C 0.57986 0.54559 0.92029 0.0
C318 C 0.52794 0.51827 0.69959 0.0
C319 C 0.52793 0.5185 0.73036 0.0
C320 C 0.57038 0.54921 0.79347 0.0
C321 C 0.56831 0.52356 0.873 0.0
C322 C 0.56054 0.5265 0.84107 0.0
C323 C 0.55485 0.52508 0.74659 0.0
C324 C 0.55487 0.52663 0.77911 0.0
H325 H 0.59934 0.47267 0.92197 0.0
H326 H 0.57936 0.47694 0.87136 0.0
H327 H 0.58657 0.56605 0.83451 0.0
H328 H 0.6033 0.5344 0.68992 0.0
H329 H 0.60333 0.53465 0.74352 0.0
C330 C 0.98765 0.60861 0.39861 0.0
C331 C 0.96437 0.62851 0.40628 0.0
C332 C 0.99914 0.60951 0.3702 0.0
C333 C 1.00341 0.65494 0.302 0.0
H334 H 0.99808 0.58068 0.26242 0.0
C335 C 0.03465 0.63469 0.17939 0.0
C336 C 1.01142 0.62052 0.1632 0.0
C337 C 0.03251 0.63776 0.20987 0.0
C338 C 0.99988 0.60151 0.27328 0.0
H339 H 0.93476 0.66483 0.39087 0.0
H340 H 0.95538 0.66713 0.34146 0.0
H341 H 0.98998 0.58234 0.31528 0.0
H342 H 0.96678 0.60033 0.16615 0.0
H343 H 0.96366 0.60489 0.2192 0.0
H344 H 0.01269 0.67409 0.25961 0.0
C345 C 0.9651 0.65109 0.35736 0.0
C346 C 0.99553 0.60243 0.30352 0.0
C347 C 0.95336 0.64988 0.38558 0.0
C348 C 0.98552 0.61059 0.17799 0.0
C349 C 0.98364 0.61327 0.20835 0.0
C350 C 1.00824 0.65393 0.27173 0.0
C351 C 0.98764 0.63053 0.34919 0.0
C352 C 0.99656 0.62924 0.31806 0.0
C353 C 1.00732 0.62639 0.22463 0.0
C354 C 1.00573 0.6273 0.25704 0.0
H355 H 0.99619 0.5919 0.41436 0.0
H356 H 0.01653 0.59341 0.36444 0.0
H357 H 1.00441 0.67587 0.31276 0.0
H358 H 0.055 0.64244 0.16876 0.0
H359 H 0.05103 0.64802 0.22204 0.0
C360 C 0.2669 0.20849 0.19364 0.0
C361 C 0.23747 0.20079 0.18341 0.0
C362 C 0.29323 0.19329 0.18455 0.0
C363 C 0.32078 0.12733 0.14358 0.0
H364 H 0.38907 0.17764 0.12651 0.0
C365 C 0.43663 0.08155 0.09948 0.0
C366 C 0.45224 0.0991 0.07911 0.0
C367 C 0.41059 0.09255 0.11353 0.0
C368 C 0.37019 0.16321 0.13084 0.0
H369 H 0.21227 0.17089 0.15621 0.0
H370 H 0.25804 0.14417 0.14005 0.0
H371 H 0.3439 0.19797 0.1494 0.0
H372 H 0.45209 0.142 0.05731 0.0
H373 H 0.40659 0.1609 0.08118 0.0
H374 H 0.34676 0.09282 0.12386 0.0
C375 C 0.26105 0.1615 0.15567 0.0
C376 C 0.34431 0.17482 0.14454 0.0
C377 C 0.23471 0.17663 0.16504 0.0
C378 C 0.44085 0.12785 0.07296 0.0
C379 C 0.41477 0.13879 0.0869 0.0
C380 C 0.34669 0.11571 0.12974 0.0
C381 C 0.29083 0.17026 0.16447 0.0
C382 C 0.31909 0.15715 0.15109 0.0
C383 C 0.39929 0.12142 0.10759 0.0
C384 C 0.37176 0.13352 0.12296 0.0
H385 H 0.26955 0.22745 0.20733 0.0
H386 H 0.31556 0.20037 0.19244 0.0
H387 H 0.30208 0.11286 0.14839 0.0
H388 H 0.44473 0.05934 0.10487 0.0
H389 H 0.39969 0.07853 0.12952 0.0
C390 C 0.32283 0.92329 0.69633 0.0
C391 C 0.35157 0.93659 0.69453 0.0
C392 C 0.29628 0.93699 0.68366 0.0
C393 C 0.25899 1.00495 0.65448 0.0
H394 H 0.22302 0.95535 0.59509 0.0
C395 C 0.16184 0.04937 0.57288 0.0
C396 C 0.1399 0.02973 0.56216 0.0
C397 C 0.18774 0.03914 0.58971 0.0
C398 C 0.23212 0.96946 0.6119 0.0
H399 H 0.37481 0.97534 0.67962 0.0
H400 H 0.32791 1.00026 0.65865 0.0
H401 H 0.26608 0.93679 0.62609 0.0
H402 H 0.12782 0.98391 0.5612 0.0
H403 H 0.17179 0.96618 0.5915 0.0
H404 H 0.22446 0.0373 0.64125 0.0
C405 C 0.32604 0.97907 0.66973 0.0
C406 C 0.25709 0.95877 0.6296 0.0
C407 C 0.3528 0.96504 0.68203 0.0
C408 C 0.14448 0.99962 0.56875 0.0
C409 C 0.16998 0.98944 0.5861 0.0
C410 C 0.23348 0.01549 0.63719 0.0
C411 C 0.29777 0.96456 0.66925 0.0
C412 C 0.27083 0.97633 0.65108 0.0
C413 C 0.19217 1.00899 0.5969 0.0
C414 C 0.21958 0.99793 0.61551 0.0
H415 H 0.3215 0.90111 0.7053 0.0
H416 H 0.27481 0.92535 0.6838 0.0
H417 H 0.2691 0.01896 0.6709 0.0
H418 H 0.15908 0.07273 0.56813 0.0
H419 H 0.20435 0.05502 0.59686 0.0
C420 C 0.70251 0.49434 0.97161 0.0
C421 C 0.68195 0.50173 0.99356 0.0
C422 C 0.73422 0.49557 0.97704 0.0
C423 C 0.7892 0.53532 0.02251 0.0
H424 H 0.84919 0.48308 0.98823 0.0
C425 C 0.91962 0.55516 0.03348 0.0
C426 C 0.93671 0.55137 1.00802 0.0
C427 C 0.88925 0.54591 0.0345 0.0
C428 C 0.83271 0.49797 0.99777 0.0
H429 H 0.67777 0.51421 0.03877 0.0
H430 H 0.73365 0.51635 0.04866 0.0
H431 H 0.79475 0.47085 0.9863 0.0
H432 H 0.93534 0.5346 0.96375 0.0
H433 H 0.8821 0.51891 0.96534 0.0
H434 H 0.82689 0.56286 0.03328 0.0
C435 C 0.72527 0.51001 0.02709 0.0
C436 C 0.80155 0.4909 0.99677 0.0
C437 C 0.69345 0.5086 0.02161 0.0
C438 C 0.92281 0.53785 0.98369 0.0
C439 C 0.89237 0.52865 0.9847 0.0
C440 C 0.82032 0.54241 0.02348 0.0
C441 C 0.74597 0.50425 1.00458 0.0
C442 C 0.77939 0.50974 1.00872 0.0
C443 C 0.87517 0.53269 1.01007 0.0
C444 C 0.84239 0.52406 1.01072 0.0
H445 H 0.69389 0.48869 0.94991 0.0
H446 H 0.74944 0.4912 0.95916 0.0
H447 H 0.77269 0.55057 0.03148 0.0
H448 H 0.9297 0.56527 0.05272 0.0
H449 H 0.87683 0.54899 0.05453 0.0
C450 C 0.8585 0.61116 0.45007 0.0
C451 C 0.88219 0.60477 0.47107 0.0
C452 C 0.82783 0.60775 0.45722 0.0
C453 C 0.77636 0.5728 0.50957 0.0
H454 H 0.72071 0.63713 0.48451 0.0
C455 C 0.64899 0.57717 0.54232 0.0
C456 C 0.62743 0.58503 0.51958 0.0
C457 C 0.68046 0.58071 0.53837 0.0
C458 C 0.73588 0.61888 0.49147 0.0
H459 H 0.89298 0.58933 0.5156 0.0
H460 H 0.83888 0.58313 0.52842 0.0
H461 H 0.77506 0.63935 0.47335 0.0
H462 H 0.62193 0.6035 0.47519 0.0
H463 H 0.67674 0.60945 0.46824 0.0
H464 H 0.73702 0.55215 0.52735 0.0
C465 C 0.84408 0.59054 0.50633 0.0
C466 C 0.767 0.62014 0.48506 0.0
C467 C 0.87489 0.59403 0.49911 0.0
C468 C 0.63792 0.5973 0.49317 0.0
C469 C 0.66936 0.60083 0.48923 0.0
C470 C 0.74513 0.57149 0.51592 0.0
C471 C 0.82024 0.59803 0.48561 0.0
C472 C 0.7875 0.59696 0.49369 0.0
C473 C 0.69102 0.59222 0.51164 0.0
C474 C 0.72449 0.59438 0.50663 0.0
H475 H 0.86379 0.61991 0.42848 0.0
H476 H 0.81 0.61326 0.44066 0.0
H477 H 0.79161 0.55455 0.51635 0.0
H478 H 0.64164 0.56774 0.56299 0.0
H479 H 0.69655 0.57429 0.55621 0.0
C480 C 0.18462 0.31186 0.15603 0.0
C481 C 0.16741 0.28627 0.15893 0.0
C482 C 0.17175 0.33721 0.14187 0.0
C483 C 0.10784 0.36297 0.08996 0.0
H484 H 0.12645 0.43941 0.12063 0.0
C485 C 0.07116 0.4724 0.02759 0.0
C486 C 0.06152 0.49614 0.04456 0.0
C487 C 0.08369 0.44653 0.04116 0.0
C488 C 0.12077 0.41826 0.11183 0.0
H489 H 0.12334 0.2671 0.1492 0.0
H490 H 0.10052 0.31139 0.12486 0.0
H491 H 0.14846 0.39528 0.1452 0.0
H492 H 0.05715 0.51084 0.08932 0.0
H493 H 0.07852 0.46594 0.11281 0.0
H494 H 0.07966 0.386 0.05689 0.0
C495 C 0.12412 0.31191 0.13318 0.0
C496 C 0.13376 0.39287 0.12577 0.0
C497 C 0.13703 0.28659 0.14739 0.0
C498 C 0.06441 0.49314 0.07545 0.0
C499 C 0.07693 0.46737 0.08898 0.0
C500 C 0.09489 0.3884 0.07596 0.0
C501 C 0.14128 0.33764 0.13018 0.0
C502 C 0.12748 0.3648 0.11511 0.0
C503 C 0.08698 0.44371 0.07208 0.0
C504 C 0.10106 0.41646 0.08673 0.0
H505 H 0.20803 0.31223 0.16489 0.0
H506 H 0.18588 0.35637 0.13976 0.0
H507 H 0.10268 0.34184 0.08084 0.0
H508 H 0.0694 0.4739 1.00376 0.0
H509 H 0.09141 0.42898 0.02734 0.0
C510 C 0.61654 0.45054 0.03463 0.0
C511 C 0.63343 0.45902 1.01018 0.0
C512 C 0.61309 0.42076 0.04167 0.0
C513 C 0.63843 0.34487 0.02456 0.0
H514 H 0.55093 0.32966 0.02258 0.0
C515 C 0.59225 0.23245 0.9925 0.0
C516 C 0.56695 0.22157 1.00744 0.0
C517 C 0.60162 0.26124 0.99648 0.0
C518 C 0.57546 0.33336 0.02371 0.0
H519 H 0.66212 0.44357 0.97552 0.0
H520 H 0.6572 0.3917 0.98831 0.0
H521 H 0.56833 0.3797 0.02746 0.0
H522 H 0.53144 0.23227 0.03809 0.0
H523 H 0.54792 0.28245 0.04536 0.0
H524 H 0.64558 0.29856 0.02041 0.0
C525 C 0.64651 0.40783 1.0021 0.0
C526 C 0.58545 0.36209 0.02663 0.0
C527 C 0.64961 0.43754 0.99489 0.0
C528 C 0.55071 0.24026 0.0259 0.0
C529 C 0.56025 0.26898 0.03013 0.0
C530 C 0.62846 0.31606 0.02191 0.0
C531 C 0.62684 0.39913 0.0245 0.0
C532 C 0.61699 0.36822 0.02648 0.0
C533 C 0.58609 0.27972 0.01577 0.0
C534 C 0.59681 0.31004 0.02078 0.0
H535 H 0.60381 0.46687 0.04655 0.0
H536 H 0.59808 0.41463 0.05928 0.0
H537 H 0.66289 0.34897 0.02451 0.0
H538 H 0.60505 0.21852 0.97799 0.0
H539 H 0.62112 0.26897 0.98447 0.0
C540 C 0.93881 0.69878 0.44225 0.0
C541 C 0.95923 0.67549 0.45015 0.0
C542 C 0.94933 0.72733 0.4399 0.0
C543 C 0.01953 0.77211 0.43578 0.0
H544 H 0.9651 0.83135 0.46735 0.0
C545 C 0.05387 0.89045 0.46715 0.0
C546 C 0.03204 0.91304 0.46014 0.0
C547 C 0.04711 0.8612 0.46157 0.0
C548 C 0.98039 0.81513 0.4581 0.0
H549 H 1.00654 0.66291 0.46071 0.0
H550 H 0.02528 0.71342 0.45779 0.0
H551 H 0.94945 0.78061 0.4668 0.0
H552 H 0.98714 0.92296 0.43959 0.0
H553 H 0.97522 0.87193 0.43024 0.0
H554 H 0.05093 0.80705 0.42815 0.0
C555 C 1.00117 0.70962 0.45289 0.0
C556 C 0.97141 0.78602 0.4577 0.0
C557 C 0.99057 0.68085 0.4548 0.0
C558 C 1.00413 0.90598 0.44587 0.0
C559 C 0.99734 0.87681 0.44043 0.0
C560 C 0.02869 0.80137 0.43647 0.0
C561 C 0.98049 0.73326 0.44593 0.0
C562 C 0.99071 0.76415 0.44633 0.0
C563 C 0.01838 0.8541 0.44902 0.0
C564 C 1.00905 0.82314 0.44746 0.0
H565 H 0.91462 0.69473 0.43801 0.0
H566 H 0.93293 0.74481 0.43364 0.0
H567 H 0.03485 0.75584 0.42669 0.0
H568 H 0.07551 0.89517 0.47833 0.0
H569 H 0.06365 0.84406 0.46853 0.0
C570 C 0.40472 0.82899 0.67409 0.0
C571 C 0.42318 0.85375 0.67643 0.0
C572 C 0.41554 0.80367 0.66046 0.0
C573 C 0.47337 0.77762 0.60775 0.0
H574 H 0.45404 0.70082 0.63983 0.0
C575 C 0.4967 0.66903 0.54546 0.0
C576 C 0.50741 0.64441 0.56248 0.0
C577 C 0.4871 0.69496 0.55904 0.0
C578 C 0.45987 0.72206 0.63062 0.0
H579 H 0.46722 0.87175 0.66618 0.0
H580 H 0.48661 0.82732 0.64258 0.0
H581 H 0.43701 0.74475 0.66471 0.0
H582 H 0.51678 0.62816 0.60727 0.0
H583 H 0.50037 0.67303 0.63068 0.0
H584 H 0.49659 0.75478 0.57382 0.0
C585 C 0.46364 0.82742 0.65114 0.0
C586 C 0.44977 0.74735 0.64476 0.0
C587 C 0.45277 0.85274 0.66492 0.0
C588 C 0.50855 0.64654 0.59336 0.0
C589 C 0.49891 0.67232 0.60687 0.0
C590 C 0.48338 0.75227 0.5935 0.0
C591 C 0.44512 0.80252 0.64862 0.0
C592 C 0.45636 0.77554 0.63359 0.0
C593 C 0.48784 0.69688 0.58998 0.0
C594 C 0.47685 0.72409 0.60478 0.0
H595 H 0.38172 0.82944 0.6826 0.0
H596 H 0.40041 0.7852 0.65863 0.0
H597 H 0.47863 0.7989 0.59827 0.0
H598 H 0.49547 0.66822 0.52165 0.0
H599 H 0.47851 0.71329 0.54528 0.0
C600 C 0.93108 0.9567 0.80984 0.0
C601 C 0.91311 0.93146 0.80968 0.0
C602 C 0.94588 0.96625 0.78446 0.0
C603 C 0.94027 0.96003 0.70265 0.0
H604 H 0.0154 1.00427 0.70562 0.0
C605 C 0.99991 1.00135 0.59676 0.0
C606 C 0.01283 0.02945 0.59682 0.0
C607 C 0.98851 0.98862 0.62256 0.0
C608 C 0.99421 0.99224 0.70436 0.0
H609 H 0.89775 0.89558 0.78328 0.0
H610 H 0.92449 0.91144 0.73898 0.0
H611 H 0.99658 0.98173 0.75063 0.0
H612 H 0.02351 0.06616 0.62449 0.0
H613 H 1.00359 0.04402 0.66946 0.0
H614 H 0.93804 0.97049 0.65631 0.0
C615 C 0.92668 0.92439 0.75855 0.0
C616 C 0.98336 0.97921 0.73029 0.0
C617 C 0.91179 0.9149 0.78406 0.0
C618 C 0.01371 0.04454 0.62349 0.0
C619 C 1.00249 0.03169 0.6494 0.0
C620 C 0.95123 0.97291 0.67669 0.0
C621 C 0.94322 0.95075 0.75806 0.0
C622 C 0.95604 0.96305 0.72997 0.0
C623 C 0.98982 1.00346 0.64938 0.0
C624 C 0.97827 0.98942 0.67714 0.0
H625 H 0.93221 0.96997 0.82926 0.0
H626 H 0.95801 0.98672 0.78521 0.0
H627 H 0.91887 0.94835 0.70132 0.0
H628 H 0.99886 0.98893 0.57674 0.0
H629 H 0.97926 0.96678 0.62159 0.0
C630 C 0.68639 0.16377 0.32565 0.0
C631 C 0.69639 0.19271 0.32242 0.0
C632 C 0.67694 0.14797 0.30085 0.0
C633 C 0.6762 0.14931 0.21787 0.0
H634 H 0.60117 0.10579 0.22579 0.0
C635 C 0.59968 0.11893 0.11683 0.0
C636 C 0.58556 0.09141 0.1168 0.0
C637 C 0.61567 0.12853 0.14197 0.0
C638 C 0.62236 0.1175 0.22319 0.0
H639 H 0.70578 0.22735 0.29094 0.0
H640 H 0.6896 0.20019 0.24776 0.0
H641 H 0.62598 0.12641 0.26925 0.0
H642 H 0.5775 0.0524 0.14352 0.0
H643 H 0.60535 0.0692 0.18741 0.0
H644 H 0.67211 0.14099 0.17169 0.0
C645 C 0.68917 0.18924 0.26916 0.0
C646 C 0.63672 0.12931 0.24823 0.0
C647 C 0.69852 0.20491 0.2939 0.0
C648 C 0.58804 0.07371 0.14267 0.0
C649 C 0.60389 0.08344 0.16794 0.0
C650 C 0.66177 0.13762 0.19285 0.0
C651 C 0.67735 0.16081 0.27224 0.0
C652 C 0.66367 0.14577 0.24594 0.0
C653 C 0.61794 0.11102 0.16798 0.0
C654 C 0.63438 0.12188 0.19503 0.0
H655 H 0.68415 0.15407 0.34746 0.0
H656 H 0.6685 0.126 0.30419 0.0
H657 H 0.69719 0.1613 0.21513 0.0
H658 H 0.59828 0.13323 0.0974 0.0
H659 H 0.62575 0.15005 0.14116 0.0
C660 C 0.48467 0.61988 0.13365 0.0
C661 C 0.4535 0.61986 0.12472 0.0
C662 C 0.49318 0.62118 0.16354 0.0
C663 C 0.46163 0.64148 0.23553 0.0
H664 H 0.52906 0.59251 0.26834 0.0
C665 C 0.47558 0.60932 0.35841 0.0
C666 C 0.50519 0.6099 0.37163 0.0
C667 C 0.47128 0.6145 0.32815 0.0
C668 C 0.51047 0.60663 0.25939 0.0
H669 H 0.40673 0.62266 0.13959 0.0
H670 H 0.42126 0.62334 0.1917 0.0
H671 H 0.51783 0.59317 0.21533 0.0
H672 H 0.55347 0.61675 0.36386 0.0
H673 H 0.54597 0.62551 0.31061 0.0
H674 H 0.45358 0.65401 0.2798 0.0
C675 C 0.43932 0.62259 0.17584 0.0
C676 C 0.50404 0.60704 0.22903 0.0
C677 C 0.43092 0.62151 0.14604 0.0
C678 C 0.53038 0.61638 0.35417 0.0
C679 C 0.52614 0.62117 0.32377 0.0
C680 C 0.46787 0.64083 0.26586 0.0
C681 C 0.47054 0.62265 0.18499 0.0
C682 C 0.47916 0.62405 0.21682 0.0
C683 C 0.49657 0.62001 0.31048 0.0
C684 C 0.49202 0.62304 0.27812 0.0
H685 H 0.50235 0.61925 0.11739 0.0
H686 H 0.51742 0.6216 0.16979 0.0
H687 H 0.44279 0.65541 0.22679 0.0
H688 H 0.45578 0.60451 0.37145 0.0
H689 H 0.44828 0.61324 0.31843 0.0
C690 C 0.07765 0.54804 0.61824 0.0
C691 C 0.09205 0.521 0.6127 0.0
C692 C 0.0641 0.55255 0.64538 0.0
C693 C 0.03661 0.51289 0.71148 0.0
H694 H 0.06143 0.58215 0.7531 0.0
C695 C 0.04045 0.51877 0.83792 0.0
C696 C 0.03356 0.54577 0.8507 0.0
C697 C 0.04116 0.51674 0.8073 0.0
C698 C 0.05373 0.56296 0.74164 0.0
H699 H 0.10414 0.47768 0.63057 0.0
H700 H 0.08039 0.48523 0.67772 0.0
H701 H 0.07358 0.57747 0.70146 0.0
H702 H 0.01994 0.59129 0.8416 0.0
H703 H 0.02098 0.5877 0.78822 0.0
H704 H 0.0176 0.49795 0.75193 0.0
C705 C 0.07886 0.50281 0.66119 0.0
C706 C 0.06067 0.56032 0.71202 0.0
C707 C 0.09251 0.49847 0.63433 0.0
C708 C 0.02599 0.57033 0.83232 0.0
C709 C 0.02657 0.56829 0.80178 0.0
C710 C 0.02963 0.51554 0.74109 0.0
C711 C 0.06473 0.52996 0.66715 0.0
C712 C 0.05292 0.53491 0.69688 0.0
C713 C 0.03479 0.54163 0.78893 0.0
C714 C 0.0388 0.54026 0.75669 0.0
H715 H 0.07733 0.56564 0.60176 0.0
H716 H 0.05338 0.5737 0.64945 0.0
H717 H 0.02997 0.49323 0.7002 0.0
H718 H 0.04651 0.49955 0.85159 0.0
H719 H 0.04792 0.49595 0.79809 0.0
C720 C 0.82924 0.95463 0.90653 0.0
C721 C 0.82622 0.94674 0.87695 0.0
C722 C 0.80389 0.96595 0.92127 0.0
C723 C 0.72605 1.00076 0.90851 0.0
H724 H 0.71457 0.97624 0.98969 0.0
C725 C 0.63228 0.05426 0.97928 0.0
C726 C 0.616 0.03578 0.99824 0.0
C727 C 0.65807 0.04365 0.96472 0.0
C728 C 0.71726 0.98319 0.96696 0.0
H729 H 0.79465 0.94418 0.83953 0.0
H730 H 0.75009 0.96399 0.86507 0.0
H731 H 0.75869 0.95722 0.96363 0.0
H732 H 0.61441 0.99153 0.01681 0.0
H733 H 0.65922 0.97299 0.99133 0.0
H734 H 0.68431 0.02629 0.91166 0.0
C735 C 0.77208 0.96188 0.87692 0.0
C736 C 0.74284 0.97254 0.95209 0.0
C737 C 0.79748 0.9505 0.86225 0.0
C738 C 0.6264 1.00644 1.00245 0.0
C739 C 0.65224 0.99583 0.98792 0.0
C740 C 0.70052 0.01147 0.92341 0.0
C741 C 0.77487 0.96963 0.90672 0.0
C742 C 0.74762 0.98115 0.92263 0.0
C743 C 0.66839 0.01425 0.96873 0.0
C744 C 0.69572 1.00284 0.95286 0.0
H745 H 0.85126 0.95182 0.91823 0.0
H746 H 0.8071 0.972 0.94403 0.0
H747 H 0.72905 1.00813 0.88596 0.0
H748 H 0.62504 0.07701 0.97554 0.0
H749 H 0.67012 0.05863 0.95051 0.0
C750 C 0.76908 0.18864 0.35967 0.0
C751 C 0.74222 0.18724 0.37598 0.0
C752 C 0.79625 0.17366 0.36976 0.0
C753 C 0.8332 0.14728 0.44039 0.0
H754 H 0.89437 0.11105 0.39179 0.0
C755 C 0.95698 0.11896 0.48524 0.0
C756 C 0.97035 0.09183 0.47775 0.0
C757 C 0.92913 0.12916 0.47174 0.0
C758 C 0.87746 0.12094 0.40572 0.0
H759 H 0.72203 0.16791 0.41444 0.0
H760 H 0.76892 0.14122 0.43179 0.0
H761 H 0.84541 0.12944 0.36929 0.0
H762 H 0.96472 0.05434 0.44975 0.0
H763 H 0.91621 0.07219 0.42616 0.0
H764 H 0.86503 0.13894 0.47677 0.0
C765 C 0.76943 0.15419 0.41152 0.0
C766 C 0.84945 0.1317 0.39276 0.0
C767 C 0.74243 0.16908 0.40141 0.0
C768 C 0.95515 0.07531 0.45615 0.0
C769 C 0.92738 0.08565 0.44245 0.0
C770 C 0.8612 0.1368 0.45326 0.0
C771 C 0.79708 0.15713 0.39648 0.0
C772 C 0.82686 0.14497 0.40994 0.0
C773 C 0.91386 0.11267 0.45015 0.0
C774 C 0.88381 0.12351 0.43616 0.0
H775 H 0.76959 0.20296 0.34031 0.0
H776 H 0.81705 0.17655 0.3576 0.0
H777 H 0.81667 0.15773 0.45434 0.0
H778 H 0.96799 0.13238 0.50166 0.0
H779 H 0.9197 0.15023 0.47802 0.0
C780 C 0.36505 0.6435 0.04211 0.0
C781 C 0.38362 0.61798 0.04076 0.0
C782 C 0.33393 0.64316 0.03399 0.0
C783 C 0.27246 0.59783 0.99996 0.0
H784 H 0.22102 0.64451 0.05003 0.0
C785 C 0.13986 0.60225 0.98476 0.0
C786 C 0.12273 0.6028 1.01047 0.0
C787 C 0.17169 0.60601 0.98619 0.0
C788 C 0.23494 0.63109 0.036 0.0
H789 H 0.38459 0.57234 0.02894 0.0
H790 H 0.32939 0.57097 0.01638 0.0
H791 H 0.27638 0.64612 0.05608 0.0
H792 H 0.12541 0.60782 0.05779 0.0
H793 H 0.18088 0.61337 0.06051 0.0
H794 H 0.2307 0.58137 0.98124 0.0
C795 C 0.3391 0.59161 0.02281 0.0
C796 C 0.26687 0.63243 0.03908 0.0
C797 C 0.37062 0.59222 0.03026 0.0
C798 C 0.13795 0.60761 0.03755 0.0
C799 C 0.1698 0.61091 0.03905 0.0
C800 C 0.2404 0.59612 0.99719 0.0
C801 C 0.32021 0.61696 0.02533 0.0
C802 C 0.28613 0.61586 0.02112 0.0
C803 C 0.18715 0.61 1.01342 0.0
C804 C 0.22123 0.61263 0.01532 0.0
H805 H 0.37435 0.66352 0.05068 0.0
H806 H 0.32045 0.66333 0.03544 0.0
H807 H 0.28649 0.58497 0.98554 0.0
H808 H 0.12869 0.59872 0.96352 0.0
H809 H 0.18415 0.60574 0.96593 0.0
C810 C 0.20478 0.49849 0.58318 0.0
C811 C 0.18408 0.50292 0.55911 0.0
C812 C 0.23644 0.49906 0.57922 0.0
C813 C 0.29673 0.49767 0.52285 0.0
H814 H 0.34298 0.53909 0.58257 0.0
C815 C 0.42087 0.53907 0.50837 0.0
C816 C 0.44149 0.53549 0.53275 0.0
C817 C 0.38984 0.53221 0.51085 0.0
C818 C 0.33049 0.52715 0.56589 0.0
H819 H 0.17961 0.50998 0.51204 0.0
H820 H 0.23533 0.51188 0.50484 0.0
H821 H 0.28817 0.53218 0.58798 0.0
H822 H 0.44586 0.52116 0.57865 0.0
H823 H 0.39172 0.50935 0.58296 0.0
H824 H 0.33928 0.49346 0.50044 0.0
C825 C 0.22721 0.50757 0.52679 0.0
C826 C 0.29903 0.52309 0.569 0.0
C827 C 0.19542 0.50664 0.53079 0.0
C828 C 0.43056 0.52431 0.55948 0.0
C829 C 0.39953 0.51765 0.562 0.0
C830 C 0.32827 0.50195 0.51962 0.0
C831 C 0.2481 0.50443 0.5511 0.0
C832 C 0.28173 0.50822 0.5476 0.0
C833 C 0.37877 0.52184 0.53782 0.0
C834 C 0.34546 0.51668 0.54117 0.0
H835 H 0.19631 0.49497 0.60511 0.0
H836 H 0.25179 0.4957 0.59832 0.0
H837 H 0.2842 0.48586 0.5061 0.0
H838 H 0.42858 0.54754 0.48743 0.0
H839 H 0.37433 0.53586 0.49191 0.0
C840 C 0.93771 0.87919 0.87163 0.0
C841 C 0.91117 0.87784 0.85336 0.0
C842 C 0.95246 0.85334 0.88298 0.0
C843 C 0.95322 0.77069 0.87827 0.0
H844 H 0.98185 0.77393 0.95975 0.0
C845 C 1.00615 0.66756 0.93954 0.0
C846 C 1.00102 0.6633 0.96977 0.0
C847 C 0.99759 0.69401 0.92478 0.0
C848 C 0.9737 0.77243 0.9371 0.0
H849 H 0.87994 0.84867 0.83165 0.0
H850 H 0.90527 0.8036 0.85109 0.0
H851 H 0.96387 0.81869 0.93373 0.0
H852 H 0.98278 0.68394 1.00815 0.0
H853 H 0.96685 0.72983 0.98228 0.0
H854 H 0.96147 0.72428 0.88202 0.0
C855 C 0.91539 0.82436 0.85648 0.0
C856 C 0.96384 0.79838 0.92188 0.0
C857 C 0.90088 0.8502 0.84505 0.0
C858 C 0.98717 0.68644 0.9849 0.0
C859 C 0.97822 0.7129 0.97 0.0
C860 C 0.96279 0.74474 0.89355 0.0
C861 C 0.94077 0.82547 0.87655 0.0
C862 C 0.95328 0.79796 0.89221 0.0
C863 C 0.98317 0.71709 0.93961 0.0
C864 C 0.97314 0.74509 0.92328 0.0
H865 H 0.94564 0.90027 0.87886 0.0
H866 H 0.9723 0.8553 0.89775 0.0
H867 H 0.94566 0.76924 0.85543 0.0
H868 H 0.01708 0.65042 0.92714 0.0
H869 H 1.00261 0.69635 0.90167 0.0
C870 C 0.49136 0.68073 0.07058 0.0
C871 C 0.46543 0.6696 0.08417 0.0
C872 C 0.50042 0.70949 0.07576 0.0
C873 C 0.46426 0.77943 0.09392 0.0
H874 H 0.54763 0.80801 0.0983 0.0
C875 C 0.49172 0.89843 0.06496 0.0
C876 C 0.51159 0.91331 0.08418 0.0
C877 C 0.48786 0.86829 0.06837 0.0
C878 C 0.52425 0.80026 0.0974 0.0
H879 H 0.42917 0.67885 0.11431 0.0
H880 H 0.44546 0.72858 0.12429 0.0
H881 H 0.53903 0.75492 0.09984 0.0
H882 H 0.5432 0.90796 0.122 0.0
H883 H 0.53671 0.85486 0.12763 0.0
H884 H 0.44938 0.82447 0.091 0.0
C885 C 0.45869 0.71544 0.10943 0.0
C886 C 0.51935 0.76997 0.09805 0.0
C887 C 0.4496 0.68692 0.10407 0.0
C888 C 0.52788 0.89714 0.1067 0.0
C889 C 0.52418 0.8668 0.10996 0.0
C890 C 0.46914 0.80953 0.09308 0.0
C891 C 0.48352 0.72741 0.09455 0.0
C892 C 0.48928 0.75929 0.09607 0.0
C893 C 0.50394 0.85219 0.09093 0.0
C894 C 0.49915 0.82025 0.09437 0.0
H895 H 0.50363 0.66762 0.055 0.0
H896 H 0.5195 0.71821 0.0638 0.0
H897 H 0.44082 0.77194 0.09191 0.0
H898 H 0.47947 0.90997 0.04686 0.0
H899 H 0.47255 0.85747 0.05304 0.0
C900 C 0.12146 0.44388 0.52337 0.0
C901 C 0.13826 0.4562 0.54664 0.0
C902 C 0.12027 0.41336 0.52107 0.0
C903 C 0.12732 0.34897 0.57183 0.0
H904 H 0.10902 0.30546 0.50143 0.0
C905 C 0.11004 0.22356 0.57266 0.0
C906 C 0.08463 0.21378 0.55607 0.0
C907 C 0.11843 0.25293 0.57082 0.0
C908 C 0.11396 0.31745 0.52125 0.0
H909 H 0.16928 0.44671 0.58397 0.0
H910 H 0.16945 0.39376 0.57864 0.0
H911 H 0.12473 0.35654 0.49687 0.0
H912 H 0.04785 0.22695 0.52484 0.0
H913 H 0.06255 0.27848 0.52163 0.0
H914 H 0.1167 0.30985 0.59614 0.0
C915 C 0.15603 0.40738 0.56286 0.0
C916 C 0.12299 0.34667 0.51866 0.0
C917 C 0.15663 0.43779 0.56551 0.0
C918 C 0.06731 0.23403 0.53812 0.0
C919 C 0.07596 0.26336 0.53599 0.0
C920 C 0.11867 0.31975 0.57437 0.0
C921 C 0.13633 0.39474 0.5418 0.0
C922 C 0.12955 0.36288 0.54396 0.0
C923 C 0.10181 0.27298 0.55206 0.0
C924 C 0.1116 0.3038 0.54915 0.0
H925 H 0.1071 0.45781 0.50866 0.0
H926 H 0.10484 0.40452 0.50454 0.0
H927 H 0.13129 0.36087 0.59187 0.0
H928 H 0.12376 0.20833 0.58662 0.0
H929 H 0.13849 0.25978 0.5834 0.0
C930 C 0.66273 0.2722 0.42011 0.0
C931 C 0.67217 0.27323 0.3908 0.0
C932 C 0.64907 0.29692 0.43264 0.0
C933 C 0.60725 0.36697 0.41348 0.0
H934 H 0.63251 0.38889 0.49235 0.0
C935 C 0.56838 0.47795 0.4619 0.0
C936 C 0.56359 0.4794 0.49232 0.0
C937 C 0.58073 0.45243 0.44976 0.0
C938 C 0.62472 0.38292 0.47049 0.0
H939 H 0.67483 0.30102 0.35173 0.0
H940 H 0.65044 0.34413 0.37331 0.0
H941 H 0.65545 0.34535 0.47093 0.0
H942 H 0.56758 0.45466 0.5337 0.0
H943 H 0.58822 0.40993 0.5125 0.0
H944 H 0.57619 0.40414 0.41307 0.0
C945 C 0.65346 0.32416 0.38663 0.0
C946 C 0.63803 0.35791 0.45814 0.0
C947 C 0.66741 0.2995 0.37423 0.0
C948 C 0.57104 0.45442 0.5102 0.0
C949 C 0.58317 0.42877 0.49801 0.0
C950 C 0.59372 0.39181 0.42592 0.0
C951 C 0.64419 0.32326 0.41606 0.0
C952 C 0.62961 0.34967 0.42941 0.0
C953 C 0.58846 0.42742 0.4676 0.0
C954 C 0.60234 0.40033 0.45458 0.0
H955 H 0.66573 0.25212 0.43324 0.0
H956 H 0.64189 0.29528 0.45522 0.0
H957 H 0.59986 0.36106 0.39147 0.0
H958 H 0.56315 0.49679 0.44743 0.0
H959 H 0.58486 0.45265 0.42638 0.0
loop_
_geom_bond_atom_site_label_1
_geom_bond_atom_site_label_2
_geom_bond_distance
_geom_bond_site_symmetry_2
_ccdc_geom_bond_type
C0 N1 1.317 . S
C0 N2 1.348 . S
C0 C3 1.485 . S
N1 C0 1.317 . S
N1 N5 1.370 . S
N2 C0 1.348 . S
N2 C4 1.346 . S
C3 C0 1.485 . S
C3 H7 0.960 . S
C3 H8 0.961 . S
C3 H9 0.960 . S
C4 N2 1.346 . S
C4 N5 1.307 . S
C4 C6 1.486 . S
N5 N1 1.370 . S
N5 C4 1.307 . S
C6 C4 1.486 . S
C6 H10 0.960 . S
C6 H11 0.960 . S
C6 H12 0.959 . S
H7 C3 0.960 . S
H8 C3 0.961 . S
H9 C3 0.960 . S
H10 C6 0.960 . S
H11 C6 0.960 . S
H12 C6 0.959 . S
C13 N14 1.317 . S
C13 N15 1.348 . S
C13 C16 1.485 . S
N14 C13 1.317 . S
N14 N18 1.370 . S
N15 C13 1.348 . S
N15 C17 1.346 . S
C16 C13 1.485 . S
C16 H20 0.960 . S
C16 H21 0.961 . S
C16 H22 0.960 . S
C17 N15 1.346 . S
C17 N18 1.307 . S
C17 C19 1.486 . S
N18 N14 1.370 . S
N18 C17 1.307 . S
C19 C17 1.486 . S
C19 H23 0.960 . S
C19 H24 0.960 . S
C19 H25 0.959 . S
H20 C16 0.960 . S
H21 C16 0.961 . S
H22 C16 0.960 . S
H23 C19 0.960 . S
H24 C19 0.960 . S
H25 C19 0.959 . S
C26 N27 1.317 . S
C26 N28 1.348 . S
C26 C29 1.485 . S
N27 C26 1.317 . S
N27 N31 1.370 . S
N28 C26 1.348 . S
N28 C30 1.346 . S
C29 C26 1.485 . S
C29 H33 0.960 . S
C29 H34 0.961 . S
C29 H35 0.960 . S
C30 N28 1.346 . S
C30 N31 1.307 . S
C30 C32 1.486 . S
N31 N27 1.370 . S
N31 C30 1.307 . S
C32 C30 1.486 . S
C32 H36 0.960 . S
C32 H37 0.960 . S
C32 H38 0.959 . S
H33 C29 0.960 . S
H34 C29 0.961 . S
H35 C29 0.960 . S
H36 C32 0.960 . S
H37 C32 0.960 . S
H38 C32 0.959 . S
C39 N40 1.317 . S
C39 N41 1.348 . S
C39 C42 1.485 . S
N40 C39 1.317 . S
N40 N44 1.370 . S
N41 C39 1.348 . S
N41 C43 1.346 . S
C42 C39 1.485 . S
C42 H46 0.960 . S
C42 H47 0.961 . S
C42 H48 0.960 . S
C43 N41 1.346 . S
C43 N44 1.307 . S
C43 C45 1.486 . S
N44 N40 1.370 . S
N44 C43 1.307 . S
C45 C43 1.486 . S
C45 H49 0.960 . S
C45 H50 0.960 . S
C45 H51 0.959 . S
H46 C42 0.960 . S
H47 C42 0.961 . S
H48 C42 0.960 . S
H49 C45 0.960 . S
H50 C45 0.960 . S
H51 C45 0.959 . S
C52 N53 1.317 . S
C52 N54 1.348 . S
C52 C55 1.485 . S
N53 C52 1.317 . S
N53 N57 1.370 . S
N54 C52 1.348 . S
N54 C56 1.346 . S
C55 C52 1.485 . S
C55 H59 0.960 . S
C55 H60 0.961 . S
C55 H61 0.960 . S
C56 N54 1.346 . S
C56 N57 1.307 . S
C56 C58 1.486 . S
N57 N53 1.370 . S
N57 C56 1.307 . S
C58 C56 1.486 . S
C58 H62 0.960 1_565 S
C58 H63 0.960 . S
C58 H64 0.959 . S
H59 C55 0.960 . S
H60 C55 0.961 . S
H61 C55 0.960 . S
H62 C58 0.960 1_545 S
H63 C58 0.960 . S
H64 C58 0.959 . S
C65 N66 1.317 . S
C65 N67 1.348 . S
C65 C68 1.485 . S
N66 C65 1.317 . S
N66 N70 1.370 . S
N67 C65 1.348 . S
N67 C69 1.346 . S
C68 C65 1.485 . S
C68 H72 0.960 . S
C68 H73 0.961 . S
C68 H74 0.960 . S
C69 N67 1.346 . S
C69 N70 1.307 . S
C69 C71 1.486 . S
N70 N66 1.370 . S
N70 C69 1.307 . S
C71 C69 1.486 . S
C71 H75 0.960 . S
C71 H76 0.960 . S
C71 H77 0.959 . S
H72 C68 0.960 . S
H73 C68 0.961 . S
H74 C68 0.960 . S
H75 C71 0.960 . S
H76 C71 0.960 . S
H77 C71 0.959 . S
C78 N79 1.317 . S
C78 N80 1.348 . S
C78 C81 1.485 . S
N79 C78 1.317 . S
N79 N83 1.370 . S
N80 C78 1.348 . S
N80 C82 1.346 . S
C81 C78 1.485 . S
C81 H85 0.960 . S
C81 H86 0.961 . S
C81 H87 0.960 . S
C82 N80 1.346 . S
C82 N83 1.307 . S
C82 C84 1.486 . S
N83 N79 1.370 . S
N83 C82 1.307 . S
C84 C82 1.486 . S
C84 H88 0.960 . S
C84 H89 0.960 . S
C84 H90 0.959 . S
H85 C81 0.960 . S
H86 C81 0.961 . S
H87 C81 0.960 . S
H88 C84 0.960 . S
H89 C84 0.960 . S
H90 C84 0.959 . S
C91 N92 1.317 . S
C91 N93 1.348 . S
C91 C94 1.485 . S
N92 C91 1.317 . S
N92 N96 1.370 . S
N93 C91 1.348 . S
N93 C95 1.346 . S
C94 C91 1.485 . S
C94 H98 0.960 . S
C94 H99 0.961 . S
C94 H100 0.960 . S
C95 N93 1.346 . S
C95 N96 1.307 . S
C95 C97 1.486 . S
N96 N92 1.370 . S
N96 C95 1.307 . S
C97 C95 1.486 . S
C97 H101 0.960 . S
C97 H102 0.960 . S
C97 H103 0.959 . S
H98 C94 0.960 . S
H99 C94 0.961 . S
H100 C94 0.960 . S
H101 C97 0.960 . S
H102 C97 0.960 . S
H103 C97 0.959 . S
C104 O120 1.251 . S
C104 O122 1.254 . S
N105 C106 1.333 . S
N105 C110 1.307 . S
N105 Zn111 2.020 . S
C106 N105 1.333 . S
C106 C107 1.379 . S
C106 H124 0.952 . S
C107 C106 1.379 . S
C107 C108 1.390 . S
C107 H134 0.949 . S
C108 C107 1.390 . S
C108 C109 1.357 . S
C109 C108 1.357 . S
C109 C110 1.370 . S
C109 H135 0.950 . S
C110 N105 1.307 . S
C110 C109 1.370 . S
C110 H128 0.948 . S
Zn111 N105 2.020 . S
Zn111 O120 2.039 . S
Zn111 O126 2.034 . S
Zn111 O130 2.025 . S
Zn111 O132 2.024 . S
C112 O131 1.246 . S
C112 O132 1.249 . S
N113 C114 1.307 . S
N113 C115 1.333 . S
N113 Zn119 2.020 1_565 S
C114 N113 1.307 . S
C114 C118 1.370 . S
C114 H125 0.948 . S
C115 N113 1.333 . S
C115 C116 1.379 . S
C115 H123 0.952 . S
C116 C115 1.379 . S
C116 C117 1.390 . S
C116 H136 0.949 1_455 S
C117 C116 1.390 . S
C117 C118 1.357 . S
C118 C114 1.370 . S
C118 C117 1.357 . S
C118 H137 0.950 . S
Zn119 N113 2.020 1_545 S
Zn119 O122 2.025 . S
Zn119 O127 2.024 . S
Zn119 O129 2.039 . S
Zn119 O131 2.034 . S
O120 C104 1.251 . S
O120 Zn111 2.039 . S
C121 O126 1.246 . S
C121 O127 1.249 . S
O122 C104 1.254 . S
O122 Zn119 2.025 . S
H123 C115 0.952 . S
H124 C106 0.952 . S
H125 C114 0.948 . S
O126 Zn111 2.034 . S
O126 C121 1.246 . S
O127 Zn119 2.024 . S
O127 C121 1.249 . S
H128 C110 0.948 . S
O129 Zn119 2.039 . S
O129 C133 1.251 . S
O130 Zn111 2.025 . S
O130 C133 1.254 . S
O131 C112 1.246 . S
O131 Zn119 2.034 . S
O132 Zn111 2.024 . S
O132 C112 1.249 . S
C133 O129 1.251 . S
C133 O130 1.254 . S
H134 C107 0.949 . S
H135 C109 0.950 . S
H136 C116 0.949 1_655 S
H137 C118 0.950 . S
C138 O154 1.251 . S
C138 O156 1.254 . S
N139 C140 1.333 . S
N139 C144 1.305 1_554 S
N139 Zn145 2.020 . S
C140 N139 1.333 . S
C140 C141 1.379 . S
C140 H158 0.952 . S
C141 C140 1.379 . S
C141 C142 1.390 1_554 S
C141 H168 0.949 . S
C142 C141 1.390 1_556 S
C142 C143 1.357 . S
C143 C142 1.357 . S
C143 C144 1.372 . S
C143 H169 0.950 . S
C144 N139 1.305 1_556 S
C144 C143 1.372 . S
C144 H162 0.949 . S
Zn145 N139 2.020 . S
Zn145 O154 2.039 . S
Zn145 O160 2.034 . S
Zn145 O164 2.025 . S
Zn145 O166 2.024 1_554 S
C146 O165 1.246 1_556 S
C146 O166 1.249 . S
N147 C148 1.307 . S
N147 C149 1.333 . S
N147 Zn153 2.020 1_565 S
C148 N147 1.307 . S
C148 C152 1.370 . S
C148 H159 0.948 . S
C149 N147 1.333 . S
C149 C150 1.379 . S
C149 H157 0.952 . S
C150 C149 1.379 . S
C150 C151 1.390 . S
C150 H170 0.949 . S
C151 C150 1.390 . S
C151 C152 1.357 . S
C152 C148 1.370 . S
C152 C151 1.357 . S
C152 H171 0.950 . S
Zn153 N147 2.020 1_545 S
Zn153 O156 2.025 . S
Zn153 O161 2.024 . S
Zn153 O163 2.039 . S
Zn153 O165 2.034 . S
O154 C138 1.251 . S
O154 Zn145 2.039 . S
C155 O160 1.246 . S
C155 O161 1.249 . S
O156 C138 1.254 . S
O156 Zn153 2.025 . S
H157 C149 0.952 . S
H158 C140 0.952 . S
H159 C148 0.948 . S
O160 Zn145 2.034 . S
O160 C155 1.246 . S
O161 Zn153 2.024 . S
O161 C155 1.249 . S
H162 C144 0.949 . S
O163 Zn153 2.039 . S
O163 C167 1.251 . S
O164 Zn145 2.025 . S
O164 C167 1.254 . S
O165 C146 1.246 1_554 S
O165 Zn153 2.034 . S
O166 Zn145 2.024 1_556 S
O166 C146 1.249 . S
C167 O163 1.251 . S
C167 O164 1.254 . S
H168 C141 0.949 . S
H169 C143 0.950 . S
H170 C150 0.949 . S
H171 C152 0.950 . S
C172 O188 1.251 . S
C172 O190 1.254 . S
N173 C174 1.333 . S
N173 C178 1.307 . S
N173 Zn179 2.020 . S
C174 N173 1.333 . S
C174 C175 1.379 . S
C174 H192 0.952 . S
C175 C174 1.379 . S
C175 C176 1.390 . S
C175 H202 0.949 . S
C176 C175 1.390 . S
C176 C177 1.357 . S
C177 C176 1.357 . S
C177 C178 1.370 . S
C177 H203 0.950 . S
C178 N173 1.307 . S
C178 C177 1.370 . S
C178 H196 0.948 . S
Zn179 N173 2.020 . S
Zn179 O188 2.039 . S
Zn179 O194 2.034 . S
Zn179 O198 2.025 . S
Zn179 O200 2.024 . S
C180 O199 1.246 . S
C180 O200 1.249 . S
N181 C182 1.307 . S
N181 C183 1.333 . S
N181 Zn187 2.020 . S
C182 N181 1.307 . S
C182 C186 1.370 . S
C182 H193 0.948 . S
C183 N181 1.333 . S
C183 C184 1.379 . S
C183 H191 0.952 . S
C184 C183 1.379 . S
C184 C185 1.390 . S
C184 H204 0.949 . S
C185 C184 1.390 . S
C185 C186 1.357 . S
C186 C182 1.370 . S
C186 C185 1.357 . S
C186 H205 0.950 . S
Zn187 N181 2.020 . S
Zn187 O190 2.025 . S
Zn187 O195 2.024 . S
Zn187 O197 2.039 . S
Zn187 O199 2.034 . S
O188 C172 1.251 . S
O188 Zn179 2.039 . S
C189 O194 1.246 . S
C189 O195 1.249 . S
O190 C172 1.254 . S
O190 Zn187 2.025 . S
H191 C183 0.952 . S
H192 C174 0.952 . S
H193 C182 0.948 . S
O194 Zn179 2.034 . S
O194 C189 1.246 . S
O195 Zn187 2.024 . S
O195 C189 1.249 . S
H196 C178 0.948 . S
O197 Zn187 2.039 . S
O197 C201 1.251 . S
O198 Zn179 2.025 . S
O198 C201 1.254 . S
O199 C180 1.246 . S
O199 Zn187 2.034 . S
O200 Zn179 2.024 . S
O200 C180 1.249 . S
C201 O197 1.251 . S
C201 O198 1.254 . S
H202 C175 0.949 . S
H203 C177 0.950 . S
H204 C184 0.949 . S
H205 C186 0.950 . S
C206 O222 1.251 1_556 S
C206 O224 1.254 1_655 S
N207 C208 1.333 . S
N207 C212 1.307 . S
N207 Zn213 2.008 1_655 S
C208 N207 1.333 . S
C208 C209 1.379 . S
C208 H226 0.952 . S
C209 C208 1.379 . S
C209 C210 1.390 . S
C209 H236 0.949 . S
C210 C209 1.390 . S
C210 C211 1.357 . S
C211 C210 1.357 . S
C211 C212 1.370 . S
C211 H237 0.950 . S
C212 N207 1.307 . S
C212 C211 1.370 . S
C212 H230 0.948 . S
Zn213 N207 2.008 1_455 S
Zn213 O222 2.031 1_455 S
Zn213 O228 2.071 . S
Zn213 O232 2.039 . S
Zn213 O234 1.992 1_455 S
C214 O233 1.246 . S
C214 O234 1.249 1_556 S
N215 C216 1.307 . S
N215 C217 1.333 . S
N215 Zn221 2.020 . S
C216 N215 1.307 . S
C216 C220 1.370 . S
C216 H227 0.948 . S
C217 N215 1.333 . S
C217 C218 1.379 . S
C217 H225 0.952 . S
C218 C217 1.379 . S
C218 C219 1.390 . S
C218 H238 0.949 . S
C219 C218 1.390 . S
C219 C220 1.357 . S
C220 C216 1.370 . S
C220 C219 1.357 . S
C220 H239 0.950 . S
Zn221 N215 2.020 . S
Zn221 O224 2.025 . S
Zn221 O229 2.024 . S
Zn221 O231 2.039 . S
Zn221 O233 2.034 1_455 S
O222 C206 1.251 1_554 S
O222 Zn213 2.031 1_655 S
C223 O228 1.246 . S
C223 O229 1.249 1_554 S
O224 C206 1.254 1_455 S
O224 Zn221 2.025 . S
H225 C217 0.952 . S
H226 C208 0.952 . S
H227 C216 0.948 . S
O228 Zn213 2.071 . S
O228 C223 1.246 . S
O229 Zn221 2.024 . S
O229 C223 1.249 1_556 S
H230 C212 0.948 . S
O231 Zn221 2.039 . S
O231 C235 1.251 1_556 S
O232 Zn213 2.039 . S
O232 C235 1.254 . S
O233 C214 1.246 . S
O233 Zn221 2.034 1_655 S
O234 Zn213 1.992 1_655 S
O234 C214 1.249 1_554 S
C235 O231 1.251 1_554 S
C235 O232 1.254 . S
H236 C209 0.949 . S
H237 C211 0.950 . S
H238 C218 0.949 . S
H239 C220 0.950 . S
C240 C241 1.349 . S
C240 C242 1.327 . S
C240 H265 0.950 . S
C241 C240 1.349 . S
C241 C257 1.349 . S
C242 C240 1.327 . S
C242 C261 1.429 . S
C242 H266 0.950 . S
C243 C260 1.574 . S
C243 C262 1.368 . S
C243 H267 0.949 . S
H244 C248 0.949 . S
C245 C246 1.349 . S
C245 C247 1.327 . S
C245 H268 0.950 . S
C246 C245 1.349 . S
C246 C258 1.349 . S
C247 C245 1.327 . S
C247 C263 1.429 . S
C247 H269 0.950 . S
C248 H244 0.949 . S
C248 C256 1.574 . S
C248 C264 1.368 . S
H249 C257 0.950 . S
H250 C255 0.950 . S
H251 C256 0.949 . S
H252 C258 0.950 . S
H253 C259 0.950 . S
H254 C260 0.949 . S
C255 H250 0.950 . S
C255 C257 1.327 . S
C255 C261 1.429 . S
C256 C248 1.574 . S
C256 H251 0.949 . S
C256 C262 1.368 . S
C257 C241 1.349 . S
C257 H249 0.950 . S
C257 C255 1.327 . S
C258 C246 1.349 . S
C258 H252 0.950 . S
C258 C259 1.327 . S
C259 H253 0.950 . S
C259 C258 1.327 . S
C259 C263 1.429 . S
C260 C243 1.574 . S
C260 H254 0.949 . S
C260 C264 1.368 . S
C261 C242 1.429 . S
C261 C255 1.429 . S
C261 C262 1.523 . S
C262 C243 1.368 . S
C262 C256 1.368 . S
C262 C261 1.523 . S
C263 C247 1.429 . S
C263 C259 1.429 . S
C263 C264 1.523 . S
C264 C248 1.368 . S
C264 C260 1.368 . S
C264 C263 1.523 . S
H265 C240 0.950 . S
H266 C242 0.950 . S
H267 C243 0.949 . S
H268 C245 0.950 . S
H269 C247 0.950 . S
C270 C271 1.349 . S
C270 C272 1.327 . S
C270 H295 0.950 . S
C271 C270 1.349 . S
C271 C287 1.349 . S
C272 C270 1.327 . S
C272 C291 1.429 . S
C272 H296 0.950 . S
C273 C290 1.574 . S
C273 C292 1.368 1_545 S
C273 H297 0.949 . S
H274 C278 0.949 . S
C275 C276 1.349 . S
C275 C277 1.327 . S
C275 H298 0.950 . S
C276 C275 1.349 . S
C276 C288 1.349 1_545 S
C277 C275 1.327 . S
C277 C293 1.429 . S
C277 H299 0.950 . S
C278 H274 0.949 . S
C278 C286 1.574 . S
C278 C294 1.368 . S
H279 C287 0.950 . S
H280 C285 0.950 1_545 S
H281 C286 0.949 . S
H282 C288 0.950 . S
H283 C289 0.950 . S
H284 C290 0.949 . S
C285 H280 0.950 1_565 S
C285 C287 1.327 . S
C285 C291 1.429 . S
C286 C278 1.574 . S
C286 H281 0.949 . S
C286 C292 1.368 . S
C287 C271 1.349 . S
C287 H279 0.950 . S
C287 C285 1.327 . S
C288 C276 1.349 1_565 S
C288 H282 0.950 . S
C288 C289 1.327 . S
C289 H283 0.950 . S
C289 C288 1.327 . S
C289 C293 1.429 1_565 S
C290 C273 1.574 . S
C290 H284 0.949 . S
C290 C294 1.368 1_545 S
C291 C272 1.429 . S
C291 C285 1.429 . S
C291 C292 1.523 . S
C292 C273 1.368 1_565 S
C292 C286 1.368 . S
C292 C291 1.523 . S
C293 C277 1.429 . S
C293 C289 1.429 1_545 S
C293 C294 1.523 1_545 S
C294 C278 1.368 . S
C294 C290 1.368 1_565 S
C294 C293 1.523 1_565 S
H295 C270 0.950 . S
H296 C272 0.950 . S
H297 C273 0.949 . S
H298 C275 0.950 . S
H299 C277 0.950 . S
C300 C301 1.349 . S
C300 C302 1.327 . S
C300 H325 0.950 . S
C301 C300 1.349 . S
C301 C317 1.349 . S
C302 C300 1.327 . S
C302 C321 1.429 . S
C302 H326 0.950 . S
C303 C320 1.574 . S
C303 C322 1.368 . S
C303 H327 0.949 . S
H304 C308 0.949 . S
C305 C306 1.349 . S
C305 C307 1.327 . S
C305 H328 0.950 . S
C306 C305 1.349 . S
C306 C318 1.349 . S
C307 C305 1.327 . S
C307 C323 1.429 . S
C307 H329 0.950 . S
C308 H304 0.949 . S
C308 C316 1.574 . S
C308 C324 1.368 . S
H309 C317 0.950 . S
H310 C315 0.950 . S
H311 C316 0.949 . S
H312 C318 0.950 . S
H313 C319 0.950 . S
H314 C320 0.949 . S
C315 H310 0.950 . S
C315 C317 1.327 . S
C315 C321 1.429 . S
C316 C308 1.574 . S
C316 H311 0.949 . S
C316 C322 1.368 . S
C317 C301 1.349 . S
C317 H309 0.950 . S
C317 C315 1.327 . S
C318 C306 1.349 . S
C318 H312 0.950 . S
C318 C319 1.327 . S
C319 H313 0.950 . S
C319 C318 1.327 . S
C319 C323 1.429 . S
C320 C303 1.574 . S
C320 H314 0.949 . S
C320 C324 1.368 . S
C321 C302 1.429 . S
C321 C315 1.429 . S
C321 C322 1.523 . S
C322 C303 1.368 . S
C322 C316 1.368 . S
C322 C321 1.523 . S
C323 C307 1.429 . S
C323 C319 1.429 . S
C323 C324 1.523 . S
C324 C308 1.368 . S
C324 C320 1.368 . S
C324 C323 1.523 . S
H325 C300 0.950 . S
H326 C302 0.950 . S
H327 C303 0.949 . S
H328 C305 0.950 . S
H329 C307 0.950 . S
C330 C331 1.349 . S
C330 C332 1.327 . S
C330 H355 0.950 . S
C331 C330 1.349 . S
C331 C347 1.349 . S
C332 C330 1.327 . S
C332 C351 1.429 . S
C332 H356 0.950 . S
C333 C350 1.574 . S
C333 C352 1.368 . S
C333 H357 0.949 . S
H334 C338 0.949 . S
C335 C336 1.349 . S
C335 C337 1.327 . S
C335 H358 0.950 . S
C336 C335 1.349 . S
C336 C348 1.349 . S
C337 C335 1.327 . S
C337 C353 1.429 . S
C337 H359 0.950 . S
C338 H334 0.949 . S
C338 C346 1.574 . S
C338 C354 1.368 . S
H339 C347 0.950 . S
H340 C345 0.950 . S
H341 C346 0.949 . S
H342 C348 0.950 . S
H343 C349 0.950 . S
H344 C350 0.949 . S
C345 H340 0.950 . S
C345 C347 1.327 . S
C345 C351 1.429 . S
C346 C338 1.574 . S
C346 H341 0.949 . S
C346 C352 1.368 . S
C347 C331 1.349 . S
C347 H339 0.950 . S
C347 C345 1.327 . S
C348 C336 1.349 . S
C348 H342 0.950 . S
C348 C349 1.327 . S
C349 H343 0.950 . S
C349 C348 1.327 . S
C349 C353 1.429 . S
C350 C333 1.574 . S
C350 H344 0.949 . S
C350 C354 1.368 . S
C351 C332 1.429 . S
C351 C345 1.429 . S
C351 C352 1.523 . S
C352 C333 1.368 . S
C352 C346 1.368 . S
C352 C351 1.523 . S
C353 C337 1.429 . S
C353 C349 1.429 . S
C353 C354 1.523 . S
C354 C338 1.368 . S
C354 C350 1.368 . S
C354 C353 1.523 . S
H355 C330 0.950 . S
H356 C332 0.950 . S
H357 C333 0.949 . S
H358 C335 0.950 . S
H359 C337 0.950 . S
C360 C361 1.349 . S
C360 C362 1.327 . S
C360 H385 0.950 . S
C361 C360 1.349 . S
C361 C377 1.349 . S
C362 C360 1.327 . S
C362 C381 1.429 . S
C362 H386 0.950 . S
C363 C380 1.574 . S
C363 C382 1.368 . S
C363 H387 0.949 . S
H364 C368 0.949 . S
C365 C366 1.349 . S
C365 C367 1.327 . S
C365 H388 0.950 . S
C366 C365 1.349 . S
C366 C378 1.349 . S
C367 C365 1.327 . S
C367 C383 1.429 . S
C367 H389 0.950 . S
C368 H364 0.949 . S
C368 C376 1.574 . S
C368 C384 1.368 . S
H369 C377 0.950 . S
H370 C375 0.950 . S
H371 C376 0.949 . S
H372 C378 0.950 . S
H373 C379 0.950 . S
H374 C380 0.949 . S
C375 H370 0.950 . S
C375 C377 1.327 . S
C375 C381 1.429 . S
C376 C368 1.574 . S
C376 H371 0.949 . S
C376 C382 1.368 . S
C377 C361 1.349 . S
C377 H369 0.950 . S
C377 C375 1.327 . S
C378 C366 1.349 . S
C378 H372 0.950 . S
C378 C379 1.327 . S
C379 H373 0.950 . S
C379 C378 1.327 . S
C379 C383 1.429 . S
C380 C363 1.574 . S
C380 H374 0.949 . S
C380 C384 1.368 . S
C381 C362 1.429 . S
C381 C375 1.429 . S
C381 C382 1.523 . S
C382 C363 1.368 . S
C382 C376 1.368 . S
C382 C381 1.523 . S
C383 C367 1.429 . S
C383 C379 1.429 . S
C383 C384 1.523 . S
C384 C368 1.368 . S
C384 C380 1.368 . S
C384 C383 1.523 . S
H385 C360 0.950 . S
H386 C362 0.950 . S
H387 C363 0.949 . S
H388 C365 0.950 . S
H389 C367 0.950 . S
C390 C391 1.349 . S
C390 C392 1.327 . S
C390 H415 0.950 . S
C391 C390 1.349 . S
C391 C407 1.349 . S
C392 C390 1.327 . S
C392 C411 1.429 . S
C392 H416 0.950 . S
C393 C410 1.574 . S
C393 C412 1.368 1_545 S
C393 H417 0.949 . S
H394 C398 0.949 . S
C395 C396 1.349 . S
C395 C397 1.327 . S
C395 H418 0.950 . S
C396 C395 1.349 . S
C396 C408 1.349 1_545 S
C397 C395 1.327 . S
C397 C413 1.393 1_545 S
C397 H419 0.950 . S
C398 H394 0.949 . S
C398 C406 1.574 . S
C398 C414 1.368 . S
H399 C407 0.950 . S
H400 C405 0.950 1_545 S
H401 C406 0.949 . S
H402 C408 0.950 . S
H403 C409 0.950 . S
H404 C410 0.949 . S
C405 H400 0.950 1_565 S
C405 C407 1.327 . S
C405 C411 1.429 . S
C406 C398 1.574 . S
C406 H401 0.949 . S
C406 C412 1.368 . S
C407 C391 1.349 . S
C407 H399 0.950 . S
C407 C405 1.327 . S
C408 C396 1.349 1_565 S
C408 H402 0.950 . S
C408 C409 1.327 . S
C409 H403 0.950 . S
C409 C408 1.327 . S
C409 C413 1.453 . S
C410 C393 1.574 . S
C410 H404 0.949 . S
C410 C414 1.368 1_545 S
C411 C392 1.429 . S
C411 C405 1.429 . S
C411 C412 1.523 . S
C412 C393 1.368 1_565 S
C412 C406 1.368 . S
C412 C411 1.523 . S
C413 C397 1.393 1_565 S
C413 C409 1.453 . S
C413 C414 1.534 . S
C414 C398 1.368 . S
C414 C410 1.368 1_565 S
C414 C413 1.534 . S
H415 C390 0.950 . S
H416 C392 0.950 . S
H417 C393 0.949 . S
H418 C395 0.950 . S
H419 C397 0.950 . S
C420 C421 1.349 . S
C420 C422 1.327 . S
C420 H445 0.950 . S
C421 C420 1.349 . S
C421 C437 1.349 . S
C422 C420 1.327 . S
C422 C441 1.429 . S
C422 H446 0.950 . S
C423 C440 1.574 . S
C423 C442 1.368 . S
C423 H447 0.949 . S
H424 C428 0.949 . S
C425 C426 1.349 . S
C425 C427 1.327 . S
C425 H448 0.950 . S
C426 C425 1.349 . S
C426 C438 1.349 . S
C427 C425 1.327 . S
C427 C443 1.429 . S
C427 H449 0.950 . S
C428 H424 0.949 . S
C428 C436 1.574 . S
C428 C444 1.368 . S
H429 C437 0.950 . S
H430 C435 0.950 . S
H431 C436 0.949 . S
H432 C438 0.959 . S
H433 C439 0.950 . S
H434 C440 0.949 . S
C435 H430 0.950 . S
C435 C437 1.327 . S
C435 C441 1.429 . S
C436 C428 1.574 . S
C436 H431 0.949 . S
C436 C442 1.368 . S
C437 C421 1.349 . S
C437 H429 0.950 . S
C437 C435 1.327 . S
C438 C426 1.349 . S
C438 H432 0.959 . S
C438 C439 1.327 . S
C439 H433 0.950 . S
C439 C438 1.327 . S
C439 C443 1.429 . S
C440 C423 1.574 . S
C440 H434 0.949 . S
C440 C444 1.368 . S
C441 C422 1.429 . S
C441 C435 1.429 . S
C441 C442 1.523 . S
C442 C423 1.368 . S
C442 C436 1.368 . S
C442 C441 1.523 . S
C443 C427 1.429 . S
C443 C439 1.429 . S
C443 C444 1.523 . S
C444 C428 1.368 . S
C444 C440 1.368 . S
C444 C443 1.523 . S
H445 C420 0.950 . S
H446 C422 0.950 . S
H447 C423 0.949 . S
H448 C425 0.950 . S
H449 C427 0.950 . S
C450 C451 1.349 . S
C450 C452 1.327 . S
C450 H475 0.950 . S
C451 C450 1.349 . S
C451 C467 1.349 . S
C452 C450 1.327 . S
C452 C471 1.429 . S
C452 H476 0.950 . S
C453 C470 1.574 . S
C453 C472 1.368 . S
C453 H477 0.949 . S
H454 C458 0.949 . S
C455 C456 1.349 . S
C455 C457 1.327 . S
C455 H478 0.950 . S
C456 C455 1.349 . S
C456 C468 1.349 . S
C457 C455 1.327 . S
C457 C473 1.429 . S
C457 H479 0.950 . S
C458 H454 0.949 . S
C458 C466 1.574 . S
C458 C474 1.368 . S
H459 C467 0.950 . S
H460 C465 0.950 . S
H461 C466 0.949 . S
H462 C468 0.950 . S
H463 C469 0.950 . S
H464 C470 0.949 . S
C465 H460 0.950 . S
C465 C467 1.327 . S
C465 C471 1.429 . S
C466 C458 1.574 . S
C466 H461 0.949 . S
C466 C472 1.368 . S
C467 C451 1.349 . S
C467 H459 0.950 . S
C467 C465 1.327 . S
C468 C456 1.349 . S
C468 H462 0.950 . S
C468 C469 1.327 . S
C469 H463 0.950 . S
C469 C468 1.327 . S
C469 C473 1.429 . S
C470 C453 1.574 . S
C470 H464 0.949 . S
C470 C474 1.368 . S
C471 C452 1.429 . S
C471 C465 1.429 . S
C471 C472 1.523 . S
C472 C453 1.368 . S
C472 C466 1.368 . S
C472 C471 1.523 . S
C473 C457 1.429 . S
C473 C469 1.429 . S
C473 C474 1.523 . S
C474 C458 1.368 . S
C474 C470 1.368 . S
C474 C473 1.523 . S
H475 C450 0.950 . S
H476 C452 0.950 . S
H477 C453 0.949 . S
H478 C455 0.950 . S
H479 C457 0.950 . S
C480 C481 1.349 . S
C480 C482 1.327 . S
C480 H505 0.950 . S
C481 C480 1.349 . S
C481 C497 1.349 . S
C482 C480 1.327 . S
C482 C501 1.429 . S
C482 H506 0.950 . S
C483 C500 1.574 . S
C483 C502 1.368 . S
C483 H507 0.949 . S
H484 C488 0.949 . S
C485 C486 1.349 . S
C485 C487 1.327 . S
C485 H508 0.950 . S
C486 C485 1.349 . S
C486 C498 1.349 . S
C487 C485 1.327 . S
C487 C503 1.429 . S
C487 H509 0.950 . S
C488 H484 0.949 . S
C488 C496 1.574 . S
C488 C504 1.368 . S
H489 C497 0.950 . S
H490 C495 0.950 . S
H491 C496 0.949 . S
H492 C498 0.950 . S
H493 C499 0.950 . S
H494 C500 0.949 . S
C495 H490 0.950 . S
C495 C497 1.327 . S
C495 C501 1.429 . S
C496 C488 1.574 . S
C496 H491 0.949 . S
C496 C502 1.368 . S
C497 C481 1.349 . S
C497 H489 0.950 . S
C497 C495 1.327 . S
C498 C486 1.349 . S
C498 H492 0.950 . S
C498 C499 1.327 . S
C499 H493 0.950 . S
C499 C498 1.327 . S
C499 C503 1.429 . S
C500 C483 1.574 . S
C500 H494 0.949 . S
C500 C504 1.368 . S
C501 C482 1.429 . S
C501 C495 1.429 . S
C501 C502 1.523 . S
C502 C483 1.368 . S
C502 C496 1.368 . S
C502 C501 1.523 . S
C503 C487 1.429 . S
C503 C499 1.429 . S
C503 C504 1.523 . S
C504 C488 1.368 . S
C504 C500 1.368 . S
C504 C503 1.523 . S
H505 C480 0.950 . S
H506 C482 0.950 . S
H507 C483 0.949 . S
H508 C485 0.950 . S
H509 C487 0.950 . S
C510 C511 1.349 . S
C510 C512 1.327 . S
C510 H535 0.950 . S
C511 C510 1.349 . S
C511 C527 1.349 . S
C512 C510 1.327 . S
C512 C531 1.429 . S
C512 H536 0.950 . S
C513 C530 1.574 . S
C513 C532 1.368 . S
C513 H537 0.949 . S
H514 C518 0.949 . S
C515 C516 1.349 . S
C515 C517 1.327 . S
C515 H538 0.950 . S
C516 C515 1.349 . S
C516 C528 1.349 1_556 S
C517 C515 1.327 . S
C517 C533 1.429 . S
C517 H539 0.950 . S
C518 H514 0.949 . S
C518 C526 1.574 . S
C518 C534 1.368 . S
H519 C527 0.950 . S
H520 C525 0.950 . S
H521 C526 0.949 . S
H522 C528 0.950 . S
H523 C529 0.950 1_554 S
H524 C530 0.949 . S
C525 H520 0.950 . S
C525 C527 1.327 . S
C525 C531 1.429 . S
C526 C518 1.574 . S
C526 H521 0.949 . S
C526 C532 1.368 . S
C527 C511 1.349 . S
C527 H519 0.950 . S
C527 C525 1.327 . S
C528 C516 1.349 1_554 S
C528 H522 0.950 . S
C528 C529 1.327 1_554 S
C529 H523 0.950 1_556 S
C529 C528 1.327 1_556 S
C529 C533 1.429 . S
C530 C513 1.574 . S
C530 H524 0.949 . S
C530 C534 1.368 . S
C531 C512 1.429 . S
C531 C525 1.429 . S
C531 C532 1.523 . S
C532 C513 1.368 . S
C532 C526 1.368 . S
C532 C531 1.523 . S
C533 C517 1.429 . S
C533 C529 1.429 . S
C533 C534 1.523 . S
C534 C518 1.368 . S
C534 C530 1.368 . S
C534 C533 1.523 . S
H535 C510 0.950 . S
H536 C512 0.950 . S
H537 C513 0.949 . S
H538 C515 0.950 . S
H539 C517 0.950 . S
C540 C541 1.349 . S
C540 C542 1.327 . S
C540 H565 0.950 . S
C541 C540 1.349 . S
C541 C557 1.349 . S
C542 C540 1.327 . S
C542 C561 1.429 . S
C542 H566 0.950 . S
C543 C560 1.574 . S
C543 C562 1.368 . S
C543 H567 0.949 . S
H544 C548 0.949 . S
C545 C546 1.349 . S
C545 C547 1.327 . S
C545 H568 0.950 . S
C546 C545 1.349 . S
C546 C558 1.349 1_455 S
C547 C545 1.327 . S
C547 C563 1.429 1_455 S
C547 H569 0.950 . S
C548 H544 0.949 . S
C548 C556 1.574 . S
C548 C564 1.368 . S
H549 C557 0.950 . S
H550 C555 0.950 . S
H551 C556 0.949 . S
H552 C558 0.950 . S
H553 C559 0.950 . S
H554 C560 0.949 1_455 S
C555 H550 0.950 . S
C555 C557 1.327 . S
C555 C561 1.429 . S
C556 C548 1.574 . S
C556 H551 0.949 . S
C556 C562 1.368 . S
C557 C541 1.349 . S
C557 H549 0.950 . S
C557 C555 1.327 . S
C558 C546 1.349 1_655 S
C558 H552 0.950 . S
C558 C559 1.327 . S
C559 H553 0.950 . S
C559 C558 1.327 . S
C559 C563 1.429 . S
C560 C543 1.574 . S
C560 H554 0.949 1_655 S
C560 C564 1.368 . S
C561 C542 1.429 . S
C561 C555 1.429 . S
C561 C562 1.523 . S
C562 C543 1.368 . S
C562 C556 1.368 . S
C562 C561 1.523 . S
C563 C547 1.429 1_655 S
C563 C559 1.429 . S
C563 C564 1.523 . S
C564 C548 1.368 . S
C564 C560 1.368 . S
C564 C563 1.523 . S
H565 C540 0.950 . S
H566 C542 0.950 . S
H567 C543 0.949 . S
H568 C545 0.950 . S
H569 C547 0.950 . S
C570 C571 1.349 . S
C570 C572 1.327 . S
C570 H595 0.950 . S
C571 C570 1.349 . S
C571 C587 1.349 . S
C572 C570 1.327 . S
C572 C591 1.429 . S
C572 H596 0.950 . S
C573 C590 1.574 . S
C573 C592 1.368 . S
C573 H597 0.949 . S
H574 C578 0.949 . S
C575 C576 1.349 . S
C575 C577 1.327 . S
C575 H598 0.950 . S
C576 C575 1.349 . S
C576 C588 1.349 . S
C577 C575 1.327 . S
C577 C593 1.429 . S
C577 H599 0.950 . S
C578 H574 0.949 . S
C578 C586 1.574 . S
C578 C594 1.368 . S
H579 C587 0.950 . S
H580 C585 0.950 . S
H581 C586 0.949 . S
H582 C588 0.950 . S
H583 C589 0.950 . S
H584 C590 0.949 . S
C585 H580 0.950 . S
C585 C587 1.327 . S
C585 C591 1.429 . S
C586 C578 1.574 . S
C586 H581 0.949 . S
C586 C592 1.368 . S
C587 C571 1.349 . S
C587 H579 0.950 . S
C587 C585 1.327 . S
C588 C576 1.349 . S
C588 H582 0.950 . S
C588 C589 1.327 . S
C589 H583 0.950 . S
C589 C588 1.327 . S
C589 C593 1.429 . S
C590 C573 1.574 . S
C590 H584 0.949 . S
C590 C594 1.368 . S
C591 C572 1.429 . S
C591 C585 1.429 . S
C591 C592 1.523 . S
C592 C573 1.368 . S
C592 C586 1.368 . S
C592 C591 1.523 . S
C593 C577 1.429 . S
C593 C589 1.429 . S
C593 C594 1.523 . S
C594 C578 1.368 . S
C594 C590 1.368 . S
C594 C593 1.523 . S
H595 C570 0.950 . S
H596 C572 0.950 . S
H597 C573 0.949 . S
H598 C575 0.950 . S
H599 C577 0.950 . S
C600 C601 1.349 . S
C600 C602 1.327 . S
C600 H625 0.950 . S
C601 C600 1.349 . S
C601 C617 1.349 . S
C602 C600 1.327 . S
C602 C621 1.429 . S
C602 H626 0.950 1_565 S
C603 C620 1.574 . S
C603 C622 1.368 . S
C603 H627 0.949 . S
H604 C608 0.949 . S
C605 C606 1.349 1_565 S
C605 C607 1.327 1_455 S
C605 H628 0.950 1_455 S
C606 C605 1.349 1_545 S
C606 C618 1.349 . S
C607 C605 1.327 1_655 S
C607 C623 1.429 1_665 S
C607 H629 0.950 . S
C608 H604 0.949 . S
C608 C616 1.574 1_455 S
C608 C624 1.368 1_445 S
H609 C617 0.950 . S
H610 C615 0.950 . S
H611 C616 0.946 1_455 S
H612 C618 0.950 . S
H613 C619 0.950 . S
H614 C620 0.949 . S
C615 H610 0.950 . S
C615 C617 1.327 . S
C615 C621 1.429 . S
C616 C608 1.574 1_655 S
C616 H611 0.946 1_655 S
C616 C622 1.368 1_545 S
C617 C601 1.349 . S
C617 H609 0.950 . S
C617 C615 1.327 . S
C618 C606 1.349 . S
C618 H612 0.950 . S
C618 C619 1.327 . S
C619 H613 0.950 . S
C619 C618 1.327 . S
C619 C623 1.429 . S
C620 C603 1.574 . S
C620 H614 0.949 . S
C620 C624 1.368 . S
C621 C602 1.429 . S
C621 C615 1.429 . S
C621 C622 1.523 . S
C622 C603 1.368 . S
C622 C616 1.368 1_565 S
C622 C621 1.523 . S
C623 C607 1.429 1_445 S
C623 C619 1.429 . S
C623 C624 1.523 1_445 S
C624 C608 1.368 1_665 S
C624 C620 1.368 . S
C624 C623 1.523 1_665 S
H625 C600 0.950 . S
H626 C602 0.950 1_545 S
H627 C603 0.949 . S
H628 C605 0.950 1_655 S
H629 C607 0.950 . S
C630 C631 1.349 . S
C630 C632 1.327 . S
C630 H655 0.950 . S
C631 C630 1.349 . S
C631 C647 1.349 . S
C632 C630 1.327 . S
C632 C651 1.429 . S
C632 H656 0.950 . S
C633 C650 1.574 . S
C633 C652 1.368 . S
C633 H657 0.949 . S
H634 C638 0.949 . S
C635 C636 1.349 . S
C635 C637 1.327 . S
C635 H658 0.950 . S
C636 C635 1.349 . S
C636 C648 1.349 . S
C637 C635 1.327 . S
C637 C653 1.429 . S
C637 H659 0.950 . S
C638 H634 0.949 . S
C638 C646 1.574 . S
C638 C654 1.368 . S
H639 C647 0.950 . S
H640 C645 0.950 . S
H641 C646 0.949 . S
H642 C648 0.950 . S
H643 C649 0.950 . S
H644 C650 0.949 . S
C645 H640 0.950 . S
C645 C647 1.327 . S
C645 C651 1.429 . S
C646 C638 1.574 . S
C646 H641 0.949 . S
C646 C652 1.368 . S
C647 C631 1.349 . S
C647 H639 0.950 . S
C647 C645 1.327 . S
C648 C636 1.349 . S
C648 H642 0.950 . S
C648 C649 1.327 . S
C649 H643 0.950 . S
C649 C648 1.327 . S
C649 C653 1.429 . S
C650 C633 1.574 . S
C650 H644 0.949 . S
C650 C654 1.368 . S
C651 C632 1.429 . S
C651 C645 1.429 . S
C651 C652 1.523 . S
C652 C633 1.368 . S
C652 C646 1.368 . S
C652 C651 1.523 . S
C653 C637 1.429 . S
C653 C649 1.429 . S
C653 C654 1.523 . S
C654 C638 1.368 . S
C654 C650 1.368 . S
C654 C653 1.523 . S
H655 C630 0.950 . S
H656 C632 0.950 . S
H657 C633 0.949 . S
H658 C635 0.950 . S
H659 C637 0.950 . S
C660 C661 1.349 . S
C660 C662 1.327 . S
C660 H685 0.950 . S
C661 C660 1.349 . S
C661 C677 1.349 . S
C662 C660 1.327 . S
C662 C681 1.429 . S
C662 H686 0.950 . S
C663 C680 1.574 . S
C663 C682 1.368 . S
C663 H687 0.949 . S
H664 C668 0.949 . S
C665 C666 1.349 . S
C665 C667 1.327 . S
C665 H688 0.950 . S
C666 C665 1.349 . S
C666 C678 1.349 . S
C667 C665 1.327 . S
C667 C683 1.429 . S
C667 H689 0.950 . S
C668 H664 0.949 . S
C668 C676 1.574 . S
C668 C684 1.368 . S
H669 C677 0.950 . S
H670 C675 0.950 . S
H671 C676 0.949 . S
H672 C678 0.950 . S
H673 C679 0.950 . S
H674 C680 0.949 . S
C675 H670 0.950 . S
C675 C677 1.327 . S
C675 C681 1.429 . S
C676 C668 1.574 . S
C676 H671 0.949 . S
C676 C682 1.368 . S
C677 C661 1.349 . S
C677 H669 0.950 . S
C677 C675 1.327 . S
C678 C666 1.349 . S
C678 H672 0.950 . S
C678 C679 1.327 . S
C679 H673 0.950 . S
C679 C678 1.327 . S
C679 C683 1.429 . S
C680 C663 1.574 . S
C680 H674 0.949 . S
C680 C684 1.368 . S
C681 C662 1.429 . S
C681 C675 1.429 . S
C681 C682 1.523 . S
C682 C663 1.368 . S
C682 C676 1.368 . S
C682 C681 1.523 . S
C683 C667 1.429 . S
C683 C679 1.429 . S
C683 C684 1.523 . S
C684 C668 1.368 . S
C684 C680 1.368 . S
C684 C683 1.523 . S
H685 C660 0.950 . S
H686 C662 0.950 . S
H687 C663 0.949 . S
H688 C665 0.950 . S
H689 C667 0.950 . S
C690 C691 1.349 . S
C690 C692 1.327 . S
C690 H715 0.950 . S
C691 C690 1.349 . S
C691 C707 1.349 . S
C692 C690 1.327 . S
C692 C711 1.429 . S
C692 H716 0.950 . S
C693 C710 1.574 . S
C693 C712 1.368 . S
C693 H717 0.949 . S
H694 C698 0.949 . S
C695 C696 1.349 . S
C695 C697 1.327 . S
C695 H718 0.950 . S
C696 C695 1.349 . S
C696 C708 1.349 . S
C697 C695 1.327 . S
C697 C713 1.429 . S
C697 H719 0.950 . S
C698 H694 0.949 . S
C698 C706 1.574 . S
C698 C714 1.368 . S
H699 C707 0.950 . S
H700 C705 0.950 . S
H701 C706 0.949 . S
H702 C708 0.950 . S
H703 C709 0.950 . S
H704 C710 0.949 . S
C705 H700 0.950 . S
C705 C707 1.327 . S
C705 C711 1.429 . S
C706 C698 1.574 . S
C706 H701 0.949 . S
C706 C712 1.368 . S
C707 C691 1.349 . S
C707 H699 0.950 . S
C707 C705 1.327 . S
C708 C696 1.349 . S
C708 H702 0.950 . S
C708 C709 1.327 . S
C709 H703 0.950 . S
C709 C708 1.327 . S
C709 C713 1.429 . S
C710 C693 1.574 . S
C710 H704 0.949 . S
C710 C714 1.368 . S
C711 C692 1.429 . S
C711 C705 1.429 . S
C711 C712 1.523 . S
C712 C693 1.368 . S
C712 C706 1.368 . S
C712 C711 1.523 . S
C713 C697 1.429 . S
C713 C709 1.429 . S
C713 C714 1.523 . S
C714 C698 1.368 . S
C714 C710 1.368 . S
C714 C713 1.523 . S
H715 C690 0.950 . S
H716 C692 0.950 . S
H717 C693 0.949 . S
H718 C695 0.950 . S
H719 C697 0.950 . S
C720 C721 1.349 . S
C720 C722 1.327 . S
C720 H745 0.950 . S
C721 C720 1.349 . S
C721 C737 1.349 . S
C722 C720 1.327 . S
C722 C741 1.429 . S
C722 H746 0.950 . S
C723 C740 1.574 . S
C723 C742 1.368 . S
C723 H747 0.949 . S
H724 C728 0.949 1_554 S
C725 C726 1.349 1_556 S
C725 C727 1.327 . S
C725 H748 0.950 . S
C726 C725 1.349 1_554 S
C726 C738 1.349 . S
C727 C725 1.327 . S
C727 C743 1.429 . S
C727 H749 0.950 . S
C728 H724 0.949 1_556 S
C728 C736 1.570 1_545 S
C728 C744 1.368 . S
H729 C737 0.950 . S
H730 C735 0.950 . S
H731 C736 0.949 1_545 S
H732 C738 0.950 . S
H733 C739 0.950 . S
H734 C740 0.949 . S
C735 H730 0.950 . S
C735 C737 1.327 . S
C735 C741 1.429 . S
C736 C728 1.570 1_565 S
C736 H731 0.949 1_565 S
C736 C742 1.372 . S
C737 C721 1.349 . S
C737 H729 0.950 . S
C737 C735 1.327 . S
C738 C726 1.349 . S
C738 H732 0.950 . S
C738 C739 1.327 . S
C739 H733 0.950 . S
C739 C738 1.327 . S
C739 C743 1.429 1_554 S
C740 C723 1.574 . S
C740 H734 0.949 . S
C740 C744 1.368 1_565 S
C741 C722 1.429 . S
C741 C735 1.429 . S
C741 C742 1.523 . S
C742 C723 1.368 . S
C742 C736 1.372 . S
C742 C741 1.523 . S
C743 C727 1.429 . S
C743 C739 1.429 1_556 S
C743 C744 1.523 . S
C744 C728 1.368 . S
C744 C740 1.368 1_545 S
C744 C743 1.523 . S
H745 C720 0.950 . S
H746 C722 0.950 . S
H747 C723 0.949 . S
H748 C725 0.950 . S
H749 C727 0.950 . S
C750 C751 1.349 . S
C750 C752 1.327 . S
C750 H775 0.950 . S
C751 C750 1.349 . S
C751 C767 1.349 . S
C752 C750 1.327 . S
C752 C771 1.429 . S
C752 H776 0.950 . S
C753 C770 1.574 . S
C753 C772 1.368 . S
C753 H777 0.949 . S
H754 C758 0.949 . S
C755 C756 1.349 . S
C755 C757 1.327 . S
C755 H778 0.950 . S
C756 C755 1.349 . S
C756 C768 1.349 . S
C757 C755 1.327 . S
C757 C773 1.429 . S
C757 H779 0.950 . S
C758 H754 0.949 . S
C758 C766 1.574 . S
C758 C774 1.368 . S
H759 C767 0.950 . S
H760 C765 0.950 . S
H761 C766 0.949 . S
H762 C768 0.950 . S
H763 C769 0.950 . S
H764 C770 0.949 . S
C765 H760 0.950 . S
C765 C767 1.327 . S
C765 C771 1.429 . S
C766 C758 1.574 . S
C766 H761 0.949 . S
C766 C772 1.368 . S
C767 C751 1.349 . S
C767 H759 0.950 . S
C767 C765 1.327 . S
C768 C756 1.349 . S
C768 H762 0.950 . S
C768 C769 1.327 . S
C769 H763 0.950 . S
C769 C768 1.327 . S
C769 C773 1.429 . S
C770 C753 1.574 . S
C770 H764 0.949 . S
C770 C774 1.368 . S
C771 C752 1.429 . S
C771 C765 1.429 . S
C771 C772 1.523 . S
C772 C753 1.368 . S
C772 C766 1.368 . S
C772 C771 1.523 . S
C773 C757 1.429 . S
C773 C769 1.429 . S
C773 C774 1.523 . S
C774 C758 1.368 . S
C774 C770 1.368 . S
C774 C773 1.523 . S
H775 C750 0.950 . S
H776 C752 0.950 . S
H777 C753 0.949 . S
H778 C755 0.950 . S
H779 C757 0.950 . S
C780 C781 1.349 . S
C780 C782 1.327 . S
C780 H805 0.950 . S
C781 C780 1.349 . S
C781 C797 1.349 . S
C782 C780 1.327 . S
C782 C801 1.429 . S
C782 H806 0.950 . S
C783 C800 1.574 . S
C783 C802 1.368 . S
C783 H807 0.949 . S
H784 C788 0.949 . S
C785 C786 1.349 . S
C785 C787 1.327 . S
C785 H808 0.950 1_554 S
C786 C785 1.349 . S
C786 C798 1.349 . S
C787 C785 1.327 . S
C787 C803 1.429 . S
C787 H809 0.966 . S
C788 H784 0.949 . S
C788 C796 1.574 . S
C788 C804 1.368 . S
H789 C797 0.950 . S
H790 C795 0.950 . S
H791 C796 0.949 . S
H792 C798 0.950 . S
H793 C799 0.950 . S
H794 C800 0.949 . S
C795 H790 0.950 . S
C795 C797 1.327 . S
C795 C801 1.429 . S
C796 C788 1.574 . S
C796 H791 0.949 . S
C796 C802 1.368 . S
C797 C781 1.349 . S
C797 H789 0.950 . S
C797 C795 1.327 . S
C798 C786 1.349 . S
C798 H792 0.950 . S
C798 C799 1.327 . S
C799 H793 0.950 . S
C799 C798 1.327 . S
C799 C803 1.429 . S
C800 C783 1.574 . S
C800 H794 0.949 . S
C800 C804 1.368 . S
C801 C782 1.429 . S
C801 C795 1.429 . S
C801 C802 1.523 . S
C802 C783 1.368 . S
C802 C796 1.368 . S
C802 C801 1.523 . S
C803 C787 1.429 . S
C803 C799 1.429 . S
C803 C804 1.523 . S
C804 C788 1.368 . S
C804 C800 1.368 . S
C804 C803 1.523 . S
H805 C780 0.950 . S
H806 C782 0.950 . S
H807 C783 0.949 . S
H808 C785 0.950 1_556 S
H809 C787 0.966 . S
C810 C811 1.349 . S
C810 C812 1.327 . S
C810 H835 0.950 . S
C811 C810 1.349 . S
C811 C827 1.349 . S
C812 C810 1.327 . S
C812 C831 1.429 . S
C812 H836 0.950 . S
C813 C830 1.574 . S
C813 C832 1.368 . S
C813 H837 0.949 . S
H814 C818 0.949 . S
C815 C816 1.349 . S
C815 C817 1.327 . S
C815 H838 0.950 . S
C816 C815 1.349 . S
C816 C828 1.349 . S
C817 C815 1.327 . S
C817 C833 1.429 . S
C817 H839 0.950 . S
C818 H814 0.949 . S
C818 C826 1.574 . S
C818 C834 1.368 . S
H819 C827 0.950 . S
H820 C825 0.950 . S
H821 C826 0.949 . S
H822 C828 0.950 . S
H823 C829 0.950 . S
H824 C830 0.949 . S
C825 H820 0.950 . S
C825 C827 1.327 . S
C825 C831 1.429 . S
C826 C818 1.574 . S
C826 H821 0.949 . S
C826 C832 1.368 . S
C827 C811 1.349 . S
C827 H819 0.950 . S
C827 C825 1.327 . S
C828 C816 1.349 . S
C828 H822 0.950 . S
C828 C829 1.327 . S
C829 H823 0.950 . S
C829 C828 1.327 . S
C829 C833 1.429 . S
C830 C813 1.574 . S
C830 H824 0.949 . S
C830 C834 1.368 . S
C831 C812 1.429 . S
C831 C825 1.429 . S
C831 C832 1.523 . S
C832 C813 1.368 . S
C832 C826 1.368 . S
C832 C831 1.523 . S
C833 C817 1.429 . S
C833 C829 1.429 . S
C833 C834 1.523 . S
C834 C818 1.368 . S
C834 C830 1.368 . S
C834 C833 1.523 . S
H835 C810 0.950 . S
H836 C812 0.950 . S
H837 C813 0.949 . S
H838 C815 0.950 . S
H839 C817 0.950 . S
C840 C841 1.349 . S
C840 C842 1.327 . S
C840 H865 0.950 . S
C841 C840 1.349 . S
C841 C857 1.349 . S
C842 C840 1.327 . S
C842 C861 1.429 . S
C842 H866 0.950 . S
C843 C860 1.574 . S
C843 C862 1.368 . S
C843 H867 0.949 . S
H844 C848 0.949 . S
C845 C846 1.349 . S
C845 C847 1.327 . S
C845 H868 0.950 . S
C846 C845 1.349 . S
C846 C858 1.349 . S
C847 C845 1.327 . S
C847 C863 1.429 . S
C847 H869 0.950 . S
C848 H844 0.949 . S
C848 C856 1.574 . S
C848 C864 1.368 . S
H849 C857 0.950 . S
H850 C855 0.950 . S
H851 C856 0.949 . S
H852 C858 0.950 1_554 S
H853 C859 0.950 1_554 S
H854 C860 0.949 . S
C855 H850 0.950 . S
C855 C857 1.327 . S
C855 C861 1.429 . S
C856 C848 1.574 . S
C856 H851 0.949 . S
C856 C862 1.368 . S
C857 C841 1.349 . S
C857 H849 0.950 . S
C857 C855 1.327 . S
C858 C846 1.349 . S
C858 H852 0.950 1_556 S
C858 C859 1.327 . S
C859 H853 0.950 1_556 S
C859 C858 1.327 . S
C859 C863 1.429 . S
C860 C843 1.574 . S
C860 H854 0.949 . S
C860 C864 1.368 . S
C861 C842 1.429 . S
C861 C855 1.429 . S
C861 C862 1.523 . S
C862 C843 1.368 . S
C862 C856 1.368 . S
C862 C861 1.523 . S
C863 C847 1.429 . S
C863 C859 1.429 . S
C863 C864 1.523 . S
C864 C848 1.368 . S
C864 C860 1.368 . S
C864 C863 1.523 . S
H865 C840 0.950 . S
H866 C842 0.950 . S
H867 C843 0.949 . S
H868 C845 0.950 . S
H869 C847 0.950 . S
C870 C871 1.349 . S
C870 C872 1.327 . S
C870 H895 0.950 . S
C871 C870 1.349 . S
C871 C887 1.349 . S
C872 C870 1.327 . S
C872 C891 1.429 . S
C872 H896 0.950 . S
C873 C890 1.574 . S
C873 C892 1.368 . S
C873 H897 0.949 . S
H874 C878 0.949 . S
C875 C876 1.349 . S
C875 C877 1.327 . S
C875 H898 0.950 . S
C876 C875 1.349 . S
C876 C888 1.349 . S
C877 C875 1.327 . S
C877 C893 1.429 . S
C877 H899 0.950 . S
C878 H874 0.949 . S
C878 C886 1.574 . S
C878 C894 1.368 . S
H879 C887 0.950 . S
H880 C885 0.950 . S
H881 C886 0.949 . S
H882 C888 0.950 . S
H883 C889 0.950 . S
H884 C890 0.949 . S
C885 H880 0.950 . S
C885 C887 1.327 . S
C885 C891 1.429 . S
C886 C878 1.574 . S
C886 H881 0.949 . S
C886 C892 1.368 . S
C887 C871 1.349 . S
C887 H879 0.950 . S
C887 C885 1.327 . S
C888 C876 1.349 . S
C888 H882 0.950 . S
C888 C889 1.327 . S
C889 H883 0.950 . S
C889 C888 1.327 . S
C889 C893 1.429 . S
C890 C873 1.574 . S
C890 H884 0.949 . S
C890 C894 1.368 . S
C891 C872 1.429 . S
C891 C885 1.429 . S
C891 C892 1.523 . S
C892 C873 1.368 . S
C892 C886 1.368 . S
C892 C891 1.523 . S
C893 C877 1.429 . S
C893 C889 1.429 . S
C893 C894 1.523 . S
C894 C878 1.368 . S
C894 C890 1.368 . S
C894 C893 1.523 . S
H895 C870 0.950 . S
H896 C872 0.950 . S
H897 C873 0.949 . S
H898 C875 0.950 . S
H899 C877 0.950 . S
C900 C901 1.349 . S
C900 C902 1.327 . S
C900 H925 0.950 . S
C901 C900 1.349 . S
C901 C917 1.349 . S
C902 C900 1.327 . S
C902 C921 1.429 . S
C902 H926 0.950 . S
C903 C920 1.574 . S
C903 C922 1.368 . S
C903 H927 0.949 . S
H904 C908 0.949 . S
C905 C906 1.349 . S
C905 C907 1.327 . S
C905 H928 0.950 . S
C906 C905 1.349 . S
C906 C918 1.349 . S
C907 C905 1.327 . S
C907 C923 1.429 . S
C907 H929 0.950 . S
C908 H904 0.949 . S
C908 C916 1.574 . S
C908 C924 1.368 . S
H909 C917 0.950 . S
H910 C915 0.950 . S
H911 C916 0.949 . S
H912 C918 0.950 . S
H913 C919 0.950 . S
H914 C920 0.949 . S
C915 H910 0.950 . S
C915 C917 1.327 . S
C915 C921 1.429 . S
C916 C908 1.574 . S
C916 H911 0.949 . S
C916 C922 1.368 . S
C917 C901 1.349 . S
C917 H909 0.950 . S
C917 C915 1.327 . S
C918 C906 1.349 . S
C918 H912 0.950 . S
C918 C919 1.327 . S
C919 H913 0.950 . S
C919 C918 1.327 . S
C919 C923 1.429 . S
C920 C903 1.574 . S
C920 H914 0.949 . S
C920 C924 1.368 . S
C921 C902 1.429 . S
C921 C915 1.429 . S
C921 C922 1.523 . S
C922 C903 1.368 . S
C922 C916 1.368 . S
C922 C921 1.523 . S
C923 C907 1.429 . S
C923 C919 1.429 . S
C923 C924 1.523 . S
C924 C908 1.368 . S
C924 C920 1.368 . S
C924 C923 1.523 . S
H925 C900 0.950 . S
H926 C902 0.950 . S
H927 C903 0.949 . S
H928 C905 0.950 . S
H929 C907 0.950 . S
C930 C931 1.349 . S
C930 C932 1.327 . S
C930 H955 0.950 . S
C931 C930 1.349 . S
C931 C947 1.349 . S
C932 C930 1.327 . S
C932 C951 1.429 . S
C932 H956 0.950 . S
C933 C950 1.574 . S
C933 C952 1.368 . S
C933 H957 0.949 . S
H934 C938 0.949 . S
C935 C936 1.349 . S
C935 C937 1.327 . S
C935 H958 0.950 . S
C936 C935 1.349 . S
C936 C948 1.349 . S
C937 C935 1.327 . S
C937 C953 1.429 . S
C937 H959 0.950 . S
C938 H934 0.949 . S
C938 C946 1.574 . S
C938 C954 1.368 . S
H939 C947 0.950 . S
H940 C945 0.950 . S
H941 C946 0.949 . S
H942 C948 0.950 . S
H943 C949 0.950 . S
H944 C950 0.949 . S
C945 H940 0.950 . S
C945 C947 1.327 . S
C945 C951 1.429 . S
C946 C938 1.574 . S
C946 H941 0.949 . S
C946 C952 1.368 . S
C947 C931 1.349 . S
C947 H939 0.950 . S
C947 C945 1.327 . S
C948 C936 1.349 . S
C948 H942 0.950 . S
C948 C949 1.327 . S
C949 H943 0.950 . S
C949 C948 1.327 . S
C949 C953 1.429 . S
C950 C933 1.574 . S
C950 H944 0.949 . S
C950 C954 1.368 . S
C951 C932 1.429 . S
C951 C945 1.429 . S
C951 C952 1.523 . S
C952 C933 1.368 . S
C952 C946 1.368 . S
C952 C951 1.523 . S
C953 C937 1.429 . S
C953 C949 1.429 . S
C953 C954 1.523 . S
C954 C938 1.368 . S
C954 C950 1.368 . S
C954 C953 1.523 . S
H955 C930 0.950 . S
H956 C932 0.950 . S
H957 C933 0.949 . S
H958 C935 0.950 . S
H959 C937 0.950 . S
C241 N1 2.157 . S
C246 C104 2.204 . S
C271 N18 2.665 . S
C276 C146 2.708 . S
C306 C176 0.469 . S
C301 N28 0.471 . S
C331 N40 1.176 . S
C336 C210 1.186 . S
C366 C167 2.307 . S
C361 N5 2.268 . S
C396 C121 1.911 . S
C391 N14 1.856 . S
C426 C214 1.266 . S
C421 N31 1.236 . S
C456 C180 0.780 . S
C451 N41 0.779 . S
C481 N2 2.064 . S
C486 C235 2.080 . S
C516 C142 1.164 . S
C511 N27 1.142 . S
C541 N44 1.257 . S
C546 C117 1.269 . S
C571 N15 1.927 . S
C576 C201 1.932 . S
C606 C133 2.695 . S
C601 N57 2.660 . S
C631 N70 1.959 . S
C636 C155 2.001 . S
C661 N79 0.882 . S
C666 C185 0.893 . S
C691 N93 0.767 . S
C696 C219 0.768 . S
C721 N54 1.751 . S
C726 C138 1.759 . S
C756 C112 2.386 1_655 S
C751 N66 2.342 . S
C786 C223 0.521 . S
C781 N80 0.541 . S
C816 C189 1.384 . S
C811 N96 1.352 . S
C841 N53 2.084 . S
C846 C206 2.131 . S
C876 C151 1.116 . S
C871 N83 1.112 . S
C906 C108 1.250 . S
C901 N92 1.211 . S
C931 N67 2.032 . S
C936 C172 2.046 . S
