# Generated by pormake.
# Topology zzz, (3,6)-cn, num edge types: 1
# Building blocks:
#     Node 0, Type 0, BuildingBlock: CUQRIR_clean_linker_1, # of connection points: 3
#     Node 1, Type 0, BuildingBlock: CUQRIR_clean_linker_1, # of connection points: 3
#     Node 2, Type 0, BuildingBlock: CUQRIR_clean_linker_1, # of connection points: 3
#     Node 3, Type 0, BuildingBlock: CUQRIR_clean_linker_1, # of connection points: 3
#     Node 4, Type 0, BuildingBlock: CUQRIR_clean_linker_1, # of connection points: 3
#     Node 5, Type 0, BuildingBlock: CUQRIR_clean_linker_1, # of connection points: 3
#     Node 6, Type 0, BuildingBlock: CUQRIR_clean_linker_1, # of connection points: 3
#     Node 7, Type 0, BuildingBlock: CUQRIR_clean_linker_1, # of connection points: 3
#     Node 8, Type 1, BuildingBlock: MIFKUJ_clean_sbu_0, # of connection points: 6
#     Node 9, Type 1, BuildingBlock: MIFKUJ_clean_sbu_0, # of connection points: 6
#     Node 10, Type 1, BuildingBlock: MIFKUJ_clean_sbu_0, # of connection points: 6
#     Node 11, Type 1, BuildingBlock: MIFKUJ_clean_sbu_0, # of connection points: 6
#     Edge 12, Type (0, 1), BuildingBlock: XIVTED_clean_linker_0, # of connection points: 2
#     Edge 13, Type (0, 1), BuildingBlock: XIVTED_clean_linker_0, # of connection points: 2
#     Edge 14, Type (0, 1), BuildingBlock: XIVTED_clean_linker_0, # of connection points: 2
#     Edge 15, Type (0, 1), BuildingBlock: XIVTED_clean_linker_0, # of connection points: 2
#     Edge 16, Type (0, 1), BuildingBlock: XIVTED_clean_linker_0, # of connection points: 2
#     Edge 17, Type (0, 1), BuildingBlock: XIVTED_clean_linker_0, # of connection points: 2
#     Edge 18, Type (0, 1), BuildingBlock: XIVTED_clean_linker_0, # of connection points: 2
#     Edge 19, Type (0, 1), BuildingBlock: XIVTED_clean_linker_0, # of connection points: 2
#     Edge 20, Type (0, 1), BuildingBlock: XIVTED_clean_linker_0, # of connection points: 2
#     Edge 21, Type (0, 1), BuildingBlock: XIVTED_clean_linker_0, # of connection points: 2
#     Edge 22, Type (0, 1), BuildingBlock: XIVTED_clean_linker_0, # of connection points: 2
#     Edge 23, Type (0, 1), BuildingBlock: XIVTED_clean_linker_0, # of connection points: 2
#     Edge 24, Type (0, 1), BuildingBlock: XIVTED_clean_linker_0, # of connection points: 2
#     Edge 25, Type (0, 1), BuildingBlock: XIVTED_clean_linker_0, # of connection points: 2
#     Edge 26, Type (0, 1), BuildingBlock: XIVTED_clean_linker_0, # of connection points: 2
#     Edge 27, Type (0, 1), BuildingBlock: XIVTED_clean_linker_0, # of connection points: 2
#     Edge 28, Type (0, 1), BuildingBlock: XIVTED_clean_linker_0, # of connection points: 2
#     Edge 29, Type (0, 1), BuildingBlock: XIVTED_clean_linker_0, # of connection points: 2
#     Edge 30, Type (0, 1), BuildingBlock: XIVTED_clean_linker_0, # of connection points: 2
#     Edge 31, Type (0, 1), BuildingBlock: XIVTED_clean_linker_0, # of connection points: 2
#     Edge 32, Type (0, 1), BuildingBlock: XIVTED_clean_linker_0, # of connection points: 2
#     Edge 33, Type (0, 1), BuildingBlock: XIVTED_clean_linker_0, # of connection points: 2
#     Edge 34, Type (0, 1), BuildingBlock: XIVTED_clean_linker_0, # of connection points: 2
#     Edge 35, Type (0, 1), BuildingBlock: XIVTED_clean_linker_0, # of connection points: 2
# Relax obj value: 0.126
# Max RMSD: 0.121
# Mean RMSD: 0.093
data_MOF--net-zzz--node1-MIFKUJ_clean_sbu_0--node2-CUQRIR_clean_linker_1--edge1-XIVTED_clean_linker_0
_symmetry_space_group_name_H-M    P1
_symmetry_Int_Tables_number       1
_symmetry_cell_setting            triclinic
loop_
_symmetry_equiv_pos_as_xyz
'x, y, z'
_cell_length_a     47.487168
_cell_length_b     47.768576
_cell_length_c     14.366222
_cell_angle_alpha  90.250453
_cell_angle_beta   90.158837
_cell_angle_gamma 90.176146
loop_
_atom_site_label
_atom_site_type_symbol
_atom_site_fract_x
_atom_site_fract_y
_atom_site_fract_z
_atom_type_partial_charge
C0 C 0.72471 0.50843 0.16804 0.0
N1 N 0.75291 0.50491 0.17767 0.0
N2 N 0.71673 0.50406 0.07809 0.0
C3 C 0.70485 0.51462 0.24641 0.0
C4 C 0.74107 0.4977 0.034 0.0
N5 N 0.76286 0.49808 0.09442 0.0
C6 C 0.74377 0.49229 0.93116 0.0
H7 H 0.68463 0.50331 0.23575 0.0
H8 H 0.70033 0.53739 0.24722 0.0
H9 H 0.71416 0.50879 0.31452 0.0
H10 H 0.76492 0.49856 0.90585 0.0
H11 H 0.72744 0.50386 0.89169 0.0
H12 H 0.74094 0.46958 0.91759 0.0
C13 C 0.00194 0.72952 0.14381 0.0
N14 N 0.01019 0.75648 0.15543 0.0
N15 N 0.00659 0.72096 0.05475 0.0
C16 C 0.98933 0.71171 0.21879 0.0
C17 C 0.01828 0.74368 0.01344 0.0
N18 N 0.0205 0.76512 0.07473 0.0
C19 C 0.02699 0.74501 0.91281 0.0
H20 H 0.00648 0.70031 0.25483 0.0
H21 H 0.97451 0.69611 0.18858 0.0
H22 H 0.97824 0.72483 0.27092 0.0
H23 H 0.00842 0.75076 0.87 0.0
H24 H 0.03479 0.72436 0.8886 0.0
H25 H 0.04354 0.76094 0.90101 0.0
C26 C 0.8013 0.99884 0.18724 0.0
N27 N 0.77282 0.00091 0.1895 0.0
N28 N 0.81041 0.99667 0.09781 0.0
C29 C 0.81993 0.99735 0.2715 0.0
C30 C 0.78647 0.99775 0.0465 0.0
N31 N 0.76385 1.00025 0.10209 0.0
C32 C 0.78513 0.99727 0.94181 0.0
H33 H 0.82811 0.01863 0.28726 0.0
H34 H 0.83817 0.98345 0.25805 0.0
H35 H 0.80804 0.98977 0.33287 0.0
H36 H 0.78318 0.97526 0.9176 0.0
H37 H 0.80447 0.00651 0.91131 0.0
H38 H 0.76648 0.00896 0.91639 0.0
C39 C 0.47712 0.78223 0.12269 0.0
N40 N 0.47185 0.75514 0.14318 0.0
N41 N 0.47329 0.78679 0.03032 0.0
C42 C 0.48508 0.80425 0.19296 0.0
C43 C 0.46574 0.7614 0.99574 0.0
N44 N 0.46467 0.74226 0.06455 0.0
C45 C 0.46219 0.75471 0.89385 0.0
H46 H 0.47609 0.79924 0.26217 0.0
H47 H 0.47774 0.82519 0.17046 0.0
H48 H 0.50835 0.80483 0.19976 0.0
H49 H 0.46848 0.73283 0.87848 0.0
H50 H 0.47492 0.76907 0.85028 0.0
H51 H 0.43969 0.75715 0.87465 0.0
C52 C 0.27788 0.51143 0.01186 0.0
N53 N 0.24944 0.51391 0.00754 0.0
N54 N 0.2871 0.5149 0.101 0.0
C55 C 0.29659 0.50643 0.92965 0.0
C56 C 0.26325 0.51949 0.15015 0.0
N57 N 0.24059 0.51907 0.09341 0.0
C58 C 0.26193 0.52255 0.25438 0.0
H59 H 0.29963 0.48354 0.921 0.0
H60 H 0.31753 0.51626 0.94092 0.0
H61 H 0.28684 0.51466 0.86507 0.0
H62 H 0.26391 0.54506 0.2728 0.0
H63 H 0.27939 0.51104 0.2884 0.0
H64 H 0.24157 0.51473 0.28174 0.0
C65 C 0.96804 0.27761 0.03808 0.0
N66 N 0.96515 0.24948 0.0289 0.0
N67 N 0.96466 0.28548 0.12862 0.0
C68 C 0.97341 0.29726 0.95893 0.0
C69 C 0.95996 0.26099 0.17361 0.0
N70 N 0.95998 0.23935 0.11298 0.0
C71 C 0.9584 0.25784 0.27779 0.0
H72 H 0.99648 0.29956 0.94957 0.0
H73 H 0.96439 0.3182 0.97381 0.0
H74 H 0.96437 0.28878 0.89325 0.0
H75 H 0.97083 0.27439 0.31365 0.0
H76 H 0.96634 0.2371 0.30009 0.0
H77 H 0.9361 0.25961 0.29981 0.0
C78 C 0.229 0.03165 0.98815 0.0
N79 N 0.25699 0.03729 0.98441 0.0
N80 N 0.21948 0.03444 0.07672 0.0
C81 C 0.21151 0.02148 0.9078 0.0
C82 C 0.24266 0.04164 0.12623 0.0
N83 N 0.26534 0.04332 0.07042 0.0
C84 C 0.24379 0.04376 0.23069 0.0
H85 H 0.18934 0.02835 0.9158 0.0
H86 H 0.21181 0.99825 0.90666 0.0
H87 H 0.22016 0.02923 0.84097 0.0
H88 H 0.24896 0.02289 0.25964 0.0
H89 H 0.22318 0.05049 0.25918 0.0
H90 H 0.2604 0.05874 0.25308 0.0
C91 C 0.54003 0.22707 0.06148 0.0
N92 N 0.54229 0.25484 0.04533 0.0
N93 N 0.54332 0.22169 0.15372 0.0
C94 C 0.53584 0.20531 0.98693 0.0
C95 C 0.54749 0.24732 0.19253 0.0
N96 N 0.54711 0.26734 0.12648 0.0
C97 C 0.549 0.25315 0.29553 0.0
H98 H 0.54543 0.18511 0.00758 0.0
H99 H 0.5451 0.21238 0.92016 0.0
H100 H 0.51293 0.20204 0.97594 0.0
H101 H 0.57134 0.25252 0.31816 0.0
H102 H 0.53701 0.23724 0.3353 0.0
H103 H 0.54053 0.27419 0.31223 0.0
Zn104 Zn 0.99827 0.02954 0.55122 0.0
Zn105 Zn 0.03505 0.97117 0.6626 0.0
C106 C 0.97762 0.07689 0.64867 0.0
O107 O 0.95441 0.0651 0.61726 0.0
C108 C 0.03712 0.92085 0.5663 0.0
O109 O 0.06336 0.92683 0.5881 0.0
O110 O 0.97626 0.04354 0.44121 0.0
O111 O 0.03672 0.01923 0.49951 0.0
O112 O 0.06319 0.98924 0.57724 0.0
C113 C 0.99095 0.06046 0.39372 0.0
O114 O 0.01689 0.06585 0.42001 0.0
O115 O 0.00098 0.0646 0.63368 0.0
C116 C 0.05113 0.95397 0.8502 0.0
O117 O 0.03498 0.97465 0.87789 0.0
O118 O 0.05615 0.951 0.76391 0.0
O119 O 0.00574 0.99491 0.72964 0.0
O120 O 0.97489 1.00021 0.61692 0.0
O121 O 0.01805 0.93837 0.58879 0.0
C122 C 0.05972 0.00605 0.50995 0.0
C123 C 0.98037 0.99582 0.70208 0.0
Zn124 Zn 0.47971 0.99877 0.52437 0.0
Zn125 Zn 0.54668 0.01011 0.64862 0.0
C126 C 0.43 0.99743 0.62148 0.0
O127 O 0.43192 0.97329 0.57776 0.0
C128 C 0.59914 0.02164 0.56271 0.0
O129 O 0.59554 0.04433 0.6133 0.0
O130 O 0.45627 0.99492 0.4093 0.0
O131 O 0.51093 0.02437 0.48042 0.0
O132 O 0.52729 0.04537 0.60568 0.0
C133 C 0.4471 0.01891 0.38639 0.0
O134 O 0.45487 0.0408 0.43592 0.0
O135 O 0.45056 0.01463 0.61515 0.0
C136 C 0.57999 0.99558 0.79451 0.0
O137 O 0.57839 0.97305 0.74205 0.0
O138 O 0.56615 0.01711 0.77059 0.0
O139 O 0.52497 0.97389 0.66702 0.0
O140 O 0.49016 0.96115 0.57302 0.0
O141 O 0.57969 0.00319 0.56144 0.0
C142 C 0.51912 0.04647 0.5216 0.0
C143 C 0.50663 0.9561 0.64054 0.0
Zn144 Zn 0.511 0.46546 0.55202 0.0
Zn145 Zn 0.4893 0.54558 0.64039 0.0
C146 C 0.5289 0.41486 0.62564 0.0
O147 O 0.55228 0.4268 0.59719 0.0
C148 C 0.47346 0.59788 0.57111 0.0
O149 O 0.44937 0.58766 0.60051 0.0
O150 O 0.53473 0.45523 0.44127 0.0
O151 O 0.47369 0.47942 0.50076 0.0
O152 O 0.46612 0.52277 0.54956 0.0
C153 C 0.52617 0.45597 0.35748 0.0
O154 O 0.50256 0.46899 0.33813 0.0
O155 O 0.5058 0.42803 0.61581 0.0
C156 C 0.47376 0.55374 0.83493 0.0
O157 O 0.49678 0.53961 0.85337 0.0
O158 O 0.46543 0.55556 0.75107 0.0
O159 O 0.52657 0.53176 0.68981 0.0
O160 O 0.53489 0.4886 0.64066 0.0
O161 O 0.4955 0.58297 0.5785 0.0
C162 C 0.45899 0.50163 0.50081 0.0
C163 C 0.54182 0.50998 0.68861 0.0
Zn164 Zn 0.02276 0.51338 0.54049 0.0
Zn165 Zn 0.97183 0.48654 0.67375 0.0
C166 C 0.07223 0.52437 0.64173 0.0
O167 O 0.06431 0.54894 0.6105 0.0
C168 C 0.92085 0.48013 0.57701 0.0
O169 O 0.92637 0.45492 0.60824 0.0
O170 O 0.04305 0.53005 0.43153 0.0
O171 O 0.00251 0.4798 0.48314 0.0
O172 O 0.99066 0.45472 0.60523 0.0
C173 C 0.05615 0.51139 0.38586 0.0
O174 O 0.05393 0.48515 0.41171 0.0
O175 O 0.05624 0.50334 0.62561 0.0
C176 C 0.95419 0.47718 0.86619 0.0
O177 O 0.97404 0.49516 0.88889 0.0
O178 O 0.95164 0.46939 0.78195 0.0
O179 O 0.99405 0.51937 0.72829 0.0
O180 O 0.99972 0.54403 0.6009 0.0
O181 O 0.93874 0.49958 0.59284 0.0
C182 C 0.99546 0.45651 0.51853 0.0
C183 C 0.99628 0.54295 0.68846 0.0
H184 H 0.20917 0.98703 0.17006 0.0
H185 H 0.06181 0.04302 0.36405 0.0
H186 H 0.17108 0.0637 0.07891 0.0
H187 H 0.109 0.97637 0.49234 0.0
H188 H 0.0981 0.04721 0.24551 0.0
H189 H 0.16847 0.97823 0.27095 0.0
C190 C 0.19167 0.0015 0.16949 0.0
C191 C 0.19305 0.02588 0.11588 0.0
C192 C 0.10054 0.03168 0.29961 0.0
C193 C 0.147 0.01663 0.23255 0.0
C194 C 0.07981 0.02932 0.36787 0.0
C195 C 0.08233 0.0095 0.43943 0.0
C196 C 0.124 0.01393 0.30198 0.0
C197 C 0.10619 0.99217 0.43936 0.0
C198 C 0.16869 0.99674 0.22774 0.0
C199 C 0.17037 0.04448 0.11848 0.0
N200 N 0.12605 0.99478 0.37177 0.0
N201 N 0.1483 0.0396 0.17655 0.0
H202 H 0.57998 0.20139 0.28056 0.0
H203 H 0.50036 0.05661 0.34513 0.0
H204 H 0.50256 0.1822 0.13665 0.0
H205 H 0.54745 0.09491 0.5699 0.0
H206 H 0.50679 0.09886 0.25325 0.0
H207 H 0.57441 0.15853 0.37259 0.0
C208 C 0.56189 0.18803 0.26827 0.0
C209 C 0.54161 0.19529 0.20147 0.0
C210 C 0.51559 0.09804 0.32283 0.0
C211 C 0.53541 0.14623 0.30456 0.0
C212 C 0.51189 0.07395 0.37568 0.0
C213 C 0.52299 0.0723 0.46628 0.0
C214 C 0.53111 0.12049 0.35962 0.0
C215 C 0.53826 0.09534 0.50088 0.0
C216 C 0.55872 0.16369 0.32062 0.0
C217 C 0.51879 0.17712 0.18671 0.0
N218 N 0.54204 0.11846 0.4472 0.0
N219 N 0.51631 0.15335 0.23776 0.0
H220 H 0.32325 0.47111 0.10081 0.0
H221 H 0.42418 0.54667 0.47484 0.0
H222 H 0.31401 0.55649 0.19147 0.0
H223 H 0.43723 0.46176 0.38064 0.0
H224 H 0.38489 0.55078 0.36644 0.0
H225 H 0.36685 0.46766 0.1937 0.0
C226 C 0.33089 0.48929 0.1385 0.0
C227 C 0.31528 0.51414 0.1386 0.0
C228 C 0.3963 0.53121 0.36928 0.0
C229 C 0.36441 0.51032 0.24657 0.0
C230 C 0.41875 0.52879 0.43176 0.0
C231 C 0.4341 0.50375 0.43772 0.0
C232 C 0.38887 0.50844 0.31184 0.0
C233 C 0.42599 0.48143 0.37911 0.0
C234 C 0.35552 0.48729 0.19226 0.0
C235 C 0.32561 0.53703 0.18977 0.0
N236 N 0.40394 0.48428 0.31888 0.0
N237 N 0.34934 0.53452 0.24217 0.0
H238 H 0.92726 0.30945 0.24481 0.0
H239 H 0.0164 0.44798 0.3428 0.0
H240 H 0.00704 0.32352 0.11104 0.0
H241 H 0.96447 0.409 0.5518 0.0
H242 H 0.00796 0.40778 0.23972 0.0
H243 H 0.93459 0.35193 0.33839 0.0
C244 C 0.94617 0.32176 0.23448 0.0
C245 C 0.96671 0.31289 0.17097 0.0
C246 C 0.99851 0.40807 0.30824 0.0
C247 C 0.97513 0.36159 0.27678 0.0
C248 C 0.0033 0.43097 0.36727 0.0
C249 C 0.99132 0.43181 0.45666 0.0
C250 C 0.98101 0.38615 0.33771 0.0
C251 C 0.97435 0.40918 0.484 0.0
C252 C 0.95039 0.34586 0.288 0.0
C253 C 0.99065 0.32977 0.15891 0.0
N254 N 0.96952 0.38741 0.42452 0.0
N255 N 0.99428 0.35333 0.21162 0.0
H256 H 0.82699 0.95401 0.98879 0.0
H257 H 0.98117 0.01134 0.88605 0.0
H258 H 0.85688 0.02904 0.12388 0.0
H259 H 0.92694 0.9765 0.67354 0.0
H260 H 0.94183 0.00907 0.99705 0.0
H261 H 0.87066 0.95194 0.89847 0.0
C262 C 0.84311 0.96973 0.0005 0.0
C263 C 0.83833 0.99197 0.06232 0.0
C264 C 0.93872 0.00184 0.92618 0.0
C265 C 0.88823 0.98965 0.96048 0.0
C266 C 0.96107 0.00303 0.863 0.0
C267 C 0.9572 0.99417 0.77041 0.0
C268 C 0.91269 0.99094 0.89704 0.0
C269 C 0.93074 0.98371 0.74402 0.0
C270 C 0.86785 0.96863 0.94888 0.0
C271 C 0.85991 0.01163 0.07657 0.0
N272 N 0.90955 0.98219 0.8072 0.0
N273 N 0.88399 0.01018 0.02525 0.0
H274 H 0.43634 0.81087 0.91321 0.0
H275 H 0.54052 0.93592 0.77964 0.0
H276 H 0.51962 0.81983 0.0287 0.0
H277 H 0.46467 0.91665 0.6255 0.0
H278 H 0.53239 0.89501 0.87645 0.0
H279 H 0.44496 0.85166 0.81415 0.0
C280 C 0.45639 0.82165 0.91774 0.0
C281 C 0.47733 0.81218 0.97866 0.0
C282 C 0.51763 0.89961 0.82103 0.0
C283 C 0.48745 0.85865 0.86631 0.0
C284 C 0.52231 0.92297 0.76531 0.0
C285 C 0.50333 0.92979 0.69378 0.0
C286 C 0.49362 0.88301 0.80602 0.0
C287 C 0.47997 0.91219 0.67938 0.0
C288 C 0.46136 0.8448 0.86128 0.0
C289 C 0.50291 0.8268 0.98313 0.0
N290 N 0.47568 0.88971 0.73539 0.0
N291 N 0.5073 0.84934 0.92748 0.0
H292 H 0.67979 0.54717 0.0729 0.0
H293 H 0.57845 0.46619 0.71263 0.0
H294 H 0.69113 0.46151 0.98783 0.0
H295 H 0.56334 0.55101 0.8042 0.0
H296 H 0.61913 0.46407 0.81624 0.0
H297 H 0.63579 0.54879 0.98169 0.0
C298 C 0.67264 0.5286 0.03629 0.0
C299 C 0.68895 0.50421 0.03729 0.0
C300 C 0.60695 0.48318 0.81381 0.0
C301 C 0.63925 0.50588 0.93172 0.0
C302 C 0.5837 0.48444 0.75415 0.0
C303 C 0.56737 0.50886 0.74895 0.0
C304 C 0.61415 0.5065 0.86906 0.0
C305 C 0.5753 0.53176 0.80531 0.0
C306 C 0.64775 0.52954 0.98365 0.0
C307 C 0.67913 0.48073 0.98799 0.0
N308 N 0.5981 0.53004 0.86277 0.0
N309 N 0.65508 0.48219 0.93677 0.0
H310 H 0.02454 0.67013 0.11297 0.0
H311 H 0.98781 0.59674 0.62896 0.0
H312 H 0.97646 0.71077 0.89842 0.0
H313 H 0.00421 0.54871 0.87687 0.0
H314 H 0.98745 0.63947 0.72368 0.0
H315 H 0.02015 0.62561 0.02702 0.0
C316 C 0.0127 0.66951 0.04852 0.0
C317 C 0.00104 0.69408 0.0121 0.0
C318 C 0.991 0.61955 0.75739 0.0
C319 C 0.99658 0.64372 0.91237 0.0
C320 C 0.99136 0.59517 0.70327 0.0
C321 C 0.99601 0.56907 0.74494 0.0
C322 C 0.99581 0.61797 0.85381 0.0
C323 C 1.0004 0.56834 0.84178 0.0
C324 C 0.01034 0.64423 0.99921 0.0
C325 C 0.98615 0.69234 0.92778 0.0
N326 N 1.00042 0.59244 0.8928 0.0
N327 N 0.98465 0.66772 0.88018 0.0
H328 H 0.91778 0.21067 0.19569 0.0
H329 H 0.0148 0.0756 0.23161 0.0
H330 H 0.00117 0.2022 0.08302 0.0
H331 H 0.93979 0.08643 0.39588 0.0
H332 H 0.0016 0.116 0.13836 0.0
H333 H 0.91855 0.16074 0.23894 0.0
C334 C 0.93603 0.19807 0.17932 0.0
C335 C 0.95941 0.21013 0.13569 0.0
C336 C 0.98764 0.10927 0.19347 0.0
C337 C 0.9604 0.15366 0.18272 0.0
C338 C 0.99507 0.08609 0.24602 0.0
C339 C 0.97848 0.0781 0.32168 0.0
C340 C 0.96387 0.12496 0.21871 0.0
C341 C 0.95309 0.09215 0.33785 0.0
C342 C 0.93644 0.16974 0.20316 0.0
C343 C 0.98263 0.19336 0.11517 0.0
N344 N 0.94684 0.11549 0.28811 0.0
N345 N 0.9826 0.166 0.13914 0.0
H346 H 0.29949 0.08486 0.12967 0.0
H347 H 0.41764 0.97771 0.2945 0.0
H348 H 0.29521 0.99613 0.07998 0.0
H349 H 0.42567 0.06752 0.31917 0.0
H350 H 0.37535 0.98418 0.19975 0.0
H351 H 0.34802 0.07946 0.18703 0.0
C352 C 0.30905 0.06432 0.1309 0.0
C353 C 0.29384 0.04084 0.10163 0.0
C354 C 0.38659 0.00247 0.22491 0.0
C355 C 0.34861 0.03425 0.16592 0.0
C356 C 0.41077 0.99877 0.27869 0.0
C357 C 0.42481 0.0221 0.31608 0.0
C358 C 0.37642 0.02966 0.20924 0.0
C359 C 0.41515 0.04893 0.29307 0.0
C360 C 0.3366 0.06115 0.16286 0.0
C361 C 0.30666 0.01455 0.10296 0.0
N362 N 0.39131 0.05198 0.24217 0.0
N363 N 0.33332 0.01186 0.13538 0.0
H364 H 0.59003 0.29602 0.20544 0.0
H365 H 0.50349 0.43885 0.19109 0.0
H366 H 0.50821 0.30584 0.08061 0.0
H367 H 0.57387 0.42439 0.37552 0.0
H368 H 0.51371 0.39473 0.11206 0.0
H369 H 0.59168 0.34676 0.23579 0.0
C370 C 0.5726 0.30905 0.1838 0.0
C371 C 0.54897 0.29708 0.14075 0.0
C372 C 0.52725 0.40151 0.16867 0.0
C373 C 0.55069 0.35462 0.17344 0.0
C374 C 0.52158 0.42683 0.21338 0.0
C375 C 0.53735 0.43491 0.29181 0.0
C376 C 0.54882 0.38426 0.20267 0.0
C377 C 0.56075 0.41862 0.31667 0.0
C378 C 0.57357 0.33786 0.20037 0.0
C379 C 0.5269 0.31452 0.1129 0.0
N380 N 0.56545 0.39375 0.27346 0.0
N381 N 0.52821 0.34243 0.13019 0.0
H382 H 0.20111 0.47952 0.07068 0.0
H383 H 0.08726 0.55968 0.3734 0.0
H384 H 0.21483 0.56267 0.17793 0.0
H385 H 0.0741 0.47914 0.24314 0.0
H386 H 0.13063 0.56533 0.28291 0.0
H387 H 0.15175 0.48238 0.11556 0.0
C388 C 0.19341 0.49854 0.10276 0.0
C389 C 0.21162 0.52094 0.12041 0.0
C390 C 0.1179 0.54671 0.2727 0.0
C391 C 0.15557 0.5243 0.17482 0.0
C392 C 0.09308 0.5436 0.3237 0.0
C393 C 0.07751 0.5187 0.31652 0.0
C394 C 0.12693 0.52473 0.21477 0.0
C395 C 0.08588 0.49844 0.25171 0.0
C396 C 0.16533 0.50022 0.12872 0.0
C397 C 0.20115 0.54497 0.16414 0.0
N398 N 0.11024 0.50173 0.20427 0.0
N399 N 0.17373 0.54597 0.19087 0.0
H400 H 0.07262 0.78251 0.02496 0.0
H401 H 0.02529 0.94266 0.01563 0.0
H402 H 0.98891 0.81144 0.08562 0.0
H403 H 0.08651 0.90951 0.82301 0.0
H404 H 0.02241 0.89679 0.08956 0.0
H405 H 0.08693 0.8312 0.99193 0.0
C406 C 0.05738 0.79922 0.03125 0.0
C407 C 0.02951 0.79328 0.05617 0.0
C408 C 0.03693 0.89982 0.03243 0.0
C409 C 0.04577 0.84841 0.02344 0.0
C410 C 0.03879 0.92602 0.99062 0.0
C411 C 0.0557 0.92971 0.91166 0.0
C412 C 0.05234 0.87735 0.99567 0.0
C413 C 0.07282 0.90739 0.88273 0.0
C414 C 0.06554 0.82681 0.01351 0.0
C415 C 0.01055 0.81541 0.06634 0.0
N416 N 0.0704 0.88195 0.92392 0.0
N417 N 0.01901 0.84206 0.04986 0.0
H418 H 0.73723 0.95629 0.0266 0.0
H419 H 0.60275 0.04209 0.87989 0.0
H420 H 0.72542 0.04149 0.11572 0.0
H421 H 0.60655 0.95181 0.87545 0.0
H422 H 0.64568 0.04304 0.97514 0.0
H423 H 0.68811 0.95447 0.97492 0.0
C424 C 0.72402 0.97457 0.03491 0.0
C425 C 0.73496 0.99914 0.07364 0.0
C426 C 0.63674 0.02304 0.95479 0.0
C427 C 0.67914 0.99752 0.01555 0.0
C428 C 0.61222 0.02249 0.9008 0.0
C429 C 0.6015 0.99684 0.86828 0.0
C430 C 0.65051 0.9978 0.97525 0.0
C431 C 0.61449 0.97207 0.89744 0.0
C432 C 0.69605 0.97356 0.00645 0.0
C433 C 0.71738 0.02233 0.08503 0.0
N434 N 0.63856 0.97318 0.94798 0.0
N435 N 0.69024 0.02114 0.05484 0.0
H436 H 0.41914 0.71619 0.99126 0.0
H437 H 0.49696 0.5686 0.00294 0.0
H438 H 0.5006 0.70129 0.11297 0.0
H439 H 0.42756 0.58758 0.81914 0.0
H440 H 0.48898 0.61278 0.08444 0.0
H441 H 0.41391 0.66556 0.96326 0.0
C442 C 0.43568 0.70209 0.01304 0.0
C443 C 0.4603 0.71261 0.0542 0.0
C444 C 0.47512 0.60698 0.02749 0.0
C445 C 0.45452 0.65518 0.02402 0.0
C446 C 0.47951 0.58162 0.98133 0.0
C447 C 0.46346 0.5748 0.90224 0.0
C448 C 0.45455 0.62551 0.99426 0.0
C449 C 0.4409 0.59236 0.87839 0.0
C450 C 0.43269 0.67334 0.99773 0.0
C451 C 0.48118 0.6938 0.08219 0.0
N452 N 0.43748 0.61723 0.92294 0.0
N453 N 0.47792 0.66598 0.06602 0.0
H454 H 0.78266 0.44937 0.02566 0.0
H455 H 0.9412 0.50588 0.02558 0.0
H456 H 0.80815 0.53123 0.12016 0.0
H457 H 0.91198 0.43849 0.84841 0.0
H458 H 0.89508 0.50693 0.10043 0.0
H459 H 0.83225 0.43811 0.99355 0.0
C460 C 0.79884 0.46485 0.03969 0.0
C461 C 0.79168 0.49121 0.07508 0.0
C462 C 0.89899 0.49157 0.04634 0.0
C463 C 0.84792 0.47851 0.0413 0.0
C464 C 0.92538 0.49077 0.00415 0.0
C465 C 0.93017 0.47252 0.92916 0.0
C466 C 0.87744 0.4739 0.01351 0.0
C467 C 0.90895 0.45328 0.9048 0.0
C468 C 0.82698 0.45842 0.02235 0.0
C469 C 0.81311 0.51059 0.09383 0.0
N470 N 0.88329 0.45478 0.94585 0.0
N471 N 0.84033 0.50389 0.0765 0.0
H472 H 0.01129 0.23664 0.92702 0.0
H473 H 0.93042 0.1061 0.69477 0.0
H474 H 0.92243 0.22114 0.95085 0.0
H475 H 0.02108 0.11156 0.70794 0.0
H476 H 0.92724 0.15196 0.76806 0.0
H477 H 0.01526 0.19567 0.82268 0.0
C478 C 0.99247 0.22526 0.90682 0.0
C479 C 0.96644 0.23228 0.94628 0.0
C480 C 0.94788 0.14324 0.75496 0.0
C481 C 0.97076 0.18517 0.83012 0.0
C482 C 0.94975 0.11691 0.71317 0.0
C483 C 0.97609 0.10471 0.69559 0.0
C484 C 0.97252 0.15784 0.77971 0.0
C485 C 1.00032 0.12 0.72079 0.0
C486 C 0.99477 0.20163 0.84888 0.0
C487 C 0.94275 0.21649 0.92063 0.0
N488 N 0.99796 0.14574 0.76177 0.0
N489 N 0.94549 0.19358 0.86505 0.0
H490 H 0.29214 0.07652 0.9193 0.0
H491 H 0.38539 0.96279 0.65166 0.0
H492 H 0.26764 0.99042 0.8836 0.0
H493 H 0.41329 0.04768 0.70073 0.0
H494 H 0.34057 0.97383 0.7241 0.0
H495 H 0.33396 0.0681 0.82343 0.0
C496 C 0.29519 0.05606 0.88821 0.0
C497 C 0.27634 0.03423 0.90789 0.0
C498 C 0.3564 0.99011 0.71915 0.0
C499 C 0.32449 0.02406 0.8009 0.0
C500 C 0.38217 0.98382 0.67792 0.0
C501 C 0.40334 0.00433 0.67025 0.0
C502 C 0.35148 0.01718 0.75338 0.0
C503 C 0.39771 0.03117 0.70562 0.0
C504 C 0.31919 0.05115 0.83469 0.0
C505 C 0.28138 0.0079 0.86822 0.0
N506 N 0.37232 0.03682 0.74572 0.0
N507 N 0.30514 0.00347 0.81738 0.0
H508 H 0.49587 0.26363 0.94103 0.0
H509 H 0.57539 0.38271 0.65254 0.0
H510 H 0.58468 0.28056 0.95777 0.0
H511 H 0.48555 0.3831 0.69826 0.0
H512 H 0.57852 0.33818 0.73317 0.0
H513 H 0.49142 0.29972 0.81964 0.0
C514 C 0.51453 0.27426 0.91612 0.0
C515 C 0.54068 0.26931 0.95813 0.0
C516 C 0.55807 0.34788 0.72514 0.0
C517 C 0.5359 0.31053 0.82217 0.0
C518 C 0.55623 0.37339 0.67917 0.0
C519 C 0.53019 0.38693 0.66976 0.0
C520 C 0.53372 0.33563 0.76228 0.0
C521 C 0.5061 0.37354 0.70484 0.0
C522 C 0.51199 0.29503 0.84823 0.0
C523 C 0.56428 0.28385 0.92595 0.0
N524 N 0.50846 0.34868 0.7503 0.0
N525 N 0.56132 0.304 0.86042 0.0
H526 H 0.22878 0.46982 0.90912 0.0
H527 H 0.10761 0.56669 0.69247 0.0
H528 H 0.22609 0.55944 0.93252 0.0
H529 H 0.10106 0.47658 0.69701 0.0
H530 H 0.15394 0.56363 0.76333 0.0
H531 H 0.18605 0.47106 0.81086 0.0
C532 C 0.21982 0.4898 0.89001 0.0
C533 C 0.23108 0.51463 0.92735 0.0
C534 C 0.14251 0.54444 0.74902 0.0
C535 C 0.18194 0.5163 0.81825 0.0
C536 C 0.11585 0.54615 0.70855 0.0
C537 C 0.10013 0.52185 0.68893 0.0
C538 C 0.15397 0.51819 0.77057 0.0
C539 C 0.11226 0.49589 0.71145 0.0
C540 C 0.1952 0.49051 0.83557 0.0
C541 C 0.21826 0.53997 0.90351 0.0
N542 N 0.13844 0.49474 0.75117 0.0
N543 N 0.19433 0.54015 0.85134 0.0
H544 H 0.9665 0.78349 0.23592 0.0
H545 H 0.07354 0.87829 0.53293 0.0
H546 H 0.05558 0.7694 0.25761 0.0
H547 H 0.9866 0.90137 0.49171 0.0
H548 H 0.0649 0.83464 0.45102 0.0
H549 H 0.9708 0.82226 0.34929 0.0
C550 C 0.98674 0.78795 0.26763 0.0
C551 C 0.0107 0.77316 0.23916 0.0
C552 C 0.04759 0.84911 0.45982 0.0
C553 C 0.01605 0.81762 0.36582 0.0
C554 C 0.05252 0.87422 0.50663 0.0
C555 C 0.03084 0.89383 0.51856 0.0
C556 C 0.02073 0.84325 0.42358 0.0
C557 C 0.00399 0.88698 0.48362 0.0
C558 C 0.9893 0.81026 0.331 0.0
C559 C 0.03664 0.78012 0.27937 0.0
N560 N 0.99972 0.86231 0.43703 0.0
N561 N 0.03868 0.80193 0.33999 0.0
H562 H 0.76245 0.04419 0.30504 0.0
H563 H 0.61686 0.97496 0.46667 0.0
H564 H 0.73913 0.95902 0.24497 0.0
H565 H 0.64368 0.05784 0.54941 0.0
H566 H 0.66252 0.96789 0.39143 0.0
H567 H 0.72101 0.0485 0.4064 0.0
C568 C 0.74908 0.02613 0.31632 0.0
C569 C 0.75419 0.00114 0.26827 0.0
C570 C 0.65845 0.98759 0.42635 0.0
C571 C 0.70628 0.00601 0.38003 0.0
C572 C 0.63229 0.99169 0.46884 0.0
C573 C 0.6263 0.01708 0.51405 0.0
C574 C 0.67879 0.00907 0.42868 0.0
C575 C 0.64726 0.03794 0.51514 0.0
C576 C 0.72524 0.02863 0.37281 0.0
C577 C 0.73591 0.97847 0.28229 0.0
N578 N 0.67246 0.03352 0.47289 0.0
N579 N 0.71257 0.98151 0.3359 0.0
H580 H 0.51788 0.74363 0.24642 0.0
H581 H 0.42976 0.63404 0.54822 0.0
H582 H 0.42783 0.73465 0.2367 0.0
H583 H 0.51891 0.62588 0.49681 0.0
H584 H 0.43011 0.67868 0.46718 0.0
H585 H 0.51972 0.70881 0.37246 0.0
C586 C 0.49848 0.73506 0.27378 0.0
C587 C 0.47266 0.74175 0.23232 0.0
C588 C 0.44965 0.66725 0.47421 0.0
C589 C 0.47445 0.70203 0.3736 0.0
C590 C 0.44949 0.64169 0.52034 0.0
C591 C 0.47427 0.62592 0.52793 0.0
C592 C 0.47476 0.67725 0.43514 0.0
C593 C 0.49926 0.63718 0.4915 0.0
C594 C 0.4995 0.71502 0.3444 0.0
C595 C 0.44803 0.7299 0.26788 0.0
N596 N 0.49883 0.66208 0.4458 0.0
N597 N 0.44951 0.71037 0.33592 0.0
H598 H 0.77761 0.548 0.26961 0.0
H599 H 0.88017 0.4418 0.53532 0.0
H600 H 0.76816 0.45854 0.26838 0.0
H601 H 0.89914 0.5298 0.50786 0.0
H602 H 0.83552 0.44917 0.45662 0.0
H603 H 0.81759 0.54355 0.37853 0.0
C604 C 0.7833 0.52754 0.29564 0.0
C605 C 0.76951 0.50359 0.2616 0.0
C606 C 0.84932 0.46696 0.46775 0.0
C607 C 0.81545 0.49813 0.38302 0.0
C608 C 0.875 0.46277 0.51271 0.0
C609 C 0.8937 0.48519 0.52791 0.0
C610 C 0.84196 0.49382 0.43709 0.0
C611 C 0.88551 0.51187 0.49716 0.0
C612 C 0.80634 0.52493 0.3563 0.0
C613 C 0.77806 0.47744 0.29458 0.0
N614 N 0.86028 0.51544 0.4529 0.0
N615 N 0.80059 0.47537 0.35267 0.0
loop_
_geom_bond_atom_site_label_1
_geom_bond_atom_site_label_2
_geom_bond_distance
_geom_bond_site_symmetry_2
_ccdc_geom_bond_type
C0 N1 1.317 . S
C0 N2 1.348 . S
C0 C3 1.485 . S
N1 C0 1.317 . S
N1 N5 1.370 1_554 S
N2 C0 1.348 . S
N2 C4 1.346 1_554 S
C3 C0 1.485 . S
C3 H7 0.960 . S
C3 H8 0.961 . S
C3 H9 0.960 . S
C4 N2 1.346 1_556 S
C4 N5 1.307 . S
C4 C6 1.486 . S
N5 N1 1.370 1_556 S
N5 C4 1.307 . S
C6 C4 1.486 . S
C6 H10 0.960 . S
C6 H11 0.960 . S
C6 H12 0.959 . S
H7 C3 0.960 . S
H8 C3 0.961 . S
H9 C3 0.960 . S
H10 C6 0.960 . S
H11 C6 0.960 . S
H12 C6 0.959 . S
C13 N14 1.317 . S
C13 N15 1.351 . S
C13 C16 1.485 . S
N14 C13 1.317 . S
N14 N18 1.371 . S
N15 C13 1.351 . S
N15 C17 1.345 1_654 S
C16 C13 1.485 . S
C16 H20 0.960 1_655 S
C16 H21 0.961 . S
C16 H22 0.960 . S
C17 N15 1.345 1_456 S
C17 N18 1.307 1_456 S
C17 C19 1.486 . S
N18 N14 1.371 . S
N18 C17 1.307 1_654 S
C19 C17 1.486 . S
C19 H23 0.960 1_455 S
C19 H24 0.960 . S
C19 H25 0.959 . S
H20 C16 0.960 1_455 S
H21 C16 0.961 . S
H22 C16 0.960 . S
H23 C19 0.960 1_655 S
H24 C19 0.960 . S
H25 C19 0.959 . S
C26 N27 1.317 . S
C26 N28 1.348 . S
C26 C29 1.485 . S
N27 C26 1.317 . S
N27 N31 1.370 1_554 S
N28 C26 1.348 . S
N28 C30 1.346 1_554 S
C29 C26 1.485 . S
C29 H33 0.960 . S
C29 H34 0.961 . S
C29 H35 0.960 . S
C30 N28 1.346 1_556 S
C30 N31 1.307 . S
C30 C32 1.486 . S
N31 N27 1.370 1_556 S
N31 C30 1.307 . S
C32 C30 1.486 . S
C32 H36 0.960 . S
C32 H37 0.960 . S
C32 H38 0.959 . S
H33 C29 0.960 . S
H34 C29 0.961 . S
H35 C29 0.960 . S
H36 C32 0.960 . S
H37 C32 0.960 . S
H38 C32 0.959 . S
C39 N40 1.317 . S
C39 N41 1.348 . S
C39 C42 1.485 . S
N40 C39 1.317 . S
N40 N44 1.370 . S
N41 C39 1.348 . S
N41 C43 1.346 1_554 S
C42 C39 1.485 . S
C42 H46 0.960 . S
C42 H47 0.961 . S
C42 H48 0.960 . S
C43 N41 1.346 1_556 S
C43 N44 1.307 1_556 S
C43 C45 1.486 . S
N44 N40 1.370 . S
N44 C43 1.307 1_554 S
C45 C43 1.486 . S
C45 H49 0.960 . S
C45 H50 0.960 . S
C45 H51 0.959 . S
H46 C42 0.960 . S
H47 C42 0.961 . S
H48 C42 0.960 . S
H49 C45 0.960 . S
H50 C45 0.960 . S
H51 C45 0.959 . S
C52 N53 1.317 . S
C52 N54 1.348 . S
C52 C55 1.485 . S
N53 C52 1.317 . S
N53 N57 1.370 . S
N54 C52 1.348 . S
N54 C56 1.346 . S
C55 C52 1.485 . S
C55 H59 0.960 1_554 S
C55 H60 0.961 . S
C55 H61 0.960 1_554 S
C56 N54 1.346 . S
C56 N57 1.307 . S
C56 C58 1.486 . S
N57 N53 1.370 . S
N57 C56 1.307 . S
C58 C56 1.486 . S
C58 H62 0.960 . S
C58 H63 0.960 . S
C58 H64 0.959 . S
H59 C55 0.960 1_556 S
H60 C55 0.961 . S
H61 C55 0.960 1_556 S
H62 C58 0.960 . S
H63 C58 0.960 . S
H64 C58 0.959 . S
C65 N66 1.317 . S
C65 N67 1.348 . S
C65 C68 1.485 1_554 S
N66 C65 1.317 . S
N66 N70 1.370 . S
N67 C65 1.348 . S
N67 C69 1.346 . S
C68 C65 1.485 1_556 S
C68 H72 0.960 . S
C68 H73 0.961 1_456 S
C68 H74 0.960 1_455 S
C69 N67 1.346 . S
C69 N70 1.307 . S
C69 C71 1.486 . S
N70 N66 1.370 . S
N70 C69 1.307 . S
C71 C69 1.486 . S
C71 H75 0.960 1_455 S
C71 H76 0.960 . S
C71 H77 0.959 . S
H72 C68 0.960 . S
H73 C68 0.961 1_654 S
H74 C68 0.960 1_655 S
H75 C71 0.960 1_655 S
H76 C71 0.960 . S
H77 C71 0.959 . S
C78 N79 1.317 . S
C78 N80 1.348 . S
C78 C81 1.485 . S
N79 C78 1.317 . S
N79 N83 1.370 . S
N80 C78 1.348 . S
N80 C82 1.346 . S
C81 C78 1.485 . S
C81 H85 0.960 1_554 S
C81 H86 0.961 . S
C81 H87 0.960 1_554 S
C82 N80 1.346 . S
C82 N83 1.307 . S
C82 C84 1.486 . S
N83 N79 1.370 . S
N83 C82 1.307 . S
C84 C82 1.486 . S
C84 H88 0.960 . S
C84 H89 0.960 . S
C84 H90 0.959 . S
H85 C81 0.960 1_556 S
H86 C81 0.961 . S
H87 C81 0.960 1_556 S
H88 C84 0.960 . S
H89 C84 0.960 . S
H90 C84 0.959 . S
C91 N92 1.317 . S
C91 N93 1.348 . S
C91 C94 1.485 1_554 S
N92 C91 1.317 . S
N92 N96 1.370 . S
N93 C91 1.348 . S
N93 C95 1.346 . S
C94 C91 1.485 1_556 S
C94 H98 0.960 . S
C94 H99 0.961 1_556 S
C94 H100 0.960 . S
C95 N93 1.346 . S
C95 N96 1.307 . S
C95 C97 1.486 . S
N96 N92 1.370 . S
N96 C95 1.307 . S
C97 C95 1.486 . S
C97 H101 0.960 . S
C97 H102 0.960 . S
C97 H103 0.959 . S
H98 C94 0.960 . S
H99 C94 0.961 1_554 S
H100 C94 0.960 . S
H101 C97 0.960 . S
H102 C97 0.960 . S
H103 C97 0.959 . S
Zn104 O110 1.969 1_455 S
Zn104 O111 1.964 . S
Zn104 O115 2.023 . S
Zn104 O120 1.969 1_455 S
Zn105 O112 1.969 . S
Zn105 O118 1.969 . S
Zn105 O119 1.965 1_455 S
Zn105 O121 2.024 1_455 S
C106 O107 1.229 1_455 S
C106 O115 1.058 . S
O107 C106 1.229 1_655 S
C108 O109 1.229 1_655 S
C108 O121 1.058 . S
O109 C108 1.229 1_455 S
O110 Zn104 1.969 1_655 S
O110 C113 1.267 . S
O111 Zn104 1.964 . S
O111 C122 1.260 . S
O112 Zn105 1.969 . S
O112 C122 1.258 1_565 S
C113 O110 1.267 . S
C113 O114 1.228 1_655 S
O114 C113 1.228 1_455 S
O115 Zn104 2.023 . S
O115 C106 1.058 . S
C116 O117 1.228 1_455 S
C116 O118 1.267 . S
O117 C116 1.228 1_655 S
O118 Zn105 1.969 . S
O118 C116 1.267 . S
O119 Zn105 1.965 1_655 S
O119 C123 1.260 1_565 S
O120 Zn104 1.969 1_655 S
O120 C123 1.258 . S
O121 Zn105 2.024 1_655 S
O121 C108 1.058 . S
C122 O111 1.260 . S
C122 O112 1.258 1_545 S
C123 O119 1.260 1_545 S
C123 O120 1.258 . S
Zn124 O130 1.969 1_545 S
Zn124 O131 1.965 . S
Zn124 O135 2.024 . S
Zn124 O140 1.969 1_545 S
Zn125 O132 1.969 . S
Zn125 O138 1.969 . S
Zn125 O139 1.965 1_545 S
Zn125 O141 2.024 1_545 S
C126 O127 1.243 . S
C126 O135 1.058 . S
O127 C126 1.243 . S
C128 O129 1.229 1_565 S
C128 O141 1.058 . S
O129 C128 1.229 1_545 S
O130 Zn124 1.969 1_565 S
O130 C133 1.267 1_565 S
O131 Zn124 1.965 . S
O131 C142 1.260 . S
O132 Zn125 1.969 . S
O132 C142 1.258 . S
C133 O130 1.267 1_545 S
C133 O134 1.228 . S
O134 C133 1.228 . S
O135 Zn124 2.024 . S
O135 C126 1.058 . S
C136 O137 1.206 1_545 S
C136 O138 1.284 . S
O137 C136 1.206 1_565 S
O138 Zn125 1.969 . S
O138 C136 1.284 . S
O139 Zn125 1.965 1_565 S
O139 C143 1.260 . S
O140 Zn124 1.969 1_565 S
O140 C143 1.258 . S
O141 Zn125 2.024 1_565 S
O141 C128 1.058 . S
C142 O131 1.260 . S
C142 O132 1.258 . S
C143 O139 1.260 . S
C143 O140 1.258 . S
Zn144 O150 1.969 . S
Zn144 O151 1.965 . S
Zn144 O155 2.024 . S
Zn144 O160 1.969 . S
Zn145 O152 1.969 . S
Zn145 O158 1.969 . S
Zn145 O159 1.965 . S
Zn145 O161 2.024 . S
C146 O147 1.229 . S
C146 O155 1.058 . S
O147 C146 1.229 . S
C148 O149 1.229 . S
C148 O161 1.058 . S
O149 C148 1.229 . S
O150 Zn144 1.969 . S
O150 C153 1.267 . S
O151 Zn144 1.965 . S
O151 C162 1.260 . S
O152 Zn145 1.969 . S
O152 C162 1.258 . S
C153 O150 1.267 . S
C153 O154 1.228 . S
O154 C153 1.228 . S
O155 Zn144 2.024 . S
O155 C146 1.058 . S
C156 O157 1.228 . S
C156 O158 1.267 . S
O157 C156 1.228 . S
O158 Zn145 1.969 . S
O158 C156 1.267 . S
O159 Zn145 1.965 . S
O159 C163 1.260 . S
O160 Zn144 1.969 . S
O160 C163 1.258 . S
O161 Zn145 2.024 . S
O161 C148 1.058 . S
C162 O151 1.260 . S
C162 O152 1.258 . S
C163 O159 1.260 . S
C163 O160 1.258 . S
Zn164 O170 1.969 . S
Zn164 O171 1.965 . S
Zn164 O175 2.024 . S
Zn164 O180 1.969 . S
Zn165 O172 1.969 . S
Zn165 O178 1.969 . S
Zn165 O179 1.965 . S
Zn165 O181 2.024 . S
C166 O167 1.229 . S
C166 O175 1.058 . S
O167 C166 1.229 . S
C168 O169 1.229 . S
C168 O181 1.058 . S
O169 C168 1.229 . S
O170 Zn164 1.969 . S
O170 C173 1.267 . S
O171 Zn164 1.965 . S
O171 C182 1.260 1_455 S
O172 Zn165 1.969 . S
O172 C182 1.257 . S
C173 O170 1.267 . S
C173 O174 1.228 . S
O174 C173 1.228 . S
O175 Zn164 2.024 . S
O175 C166 1.058 . S
C176 O177 1.228 . S
C176 O178 1.267 . S
O177 C176 1.228 . S
O178 Zn165 1.969 . S
O178 C176 1.267 . S
O179 Zn165 1.965 . S
O179 C183 1.260 1_655 S
O180 Zn164 1.969 . S
O180 C183 1.258 . S
O181 Zn165 2.024 . S
O181 C168 1.058 . S
C182 O171 1.260 1_655 S
C182 O172 1.257 . S
C183 O179 1.260 1_455 S
C183 O180 1.258 . S
H184 C190 0.930 . S
H185 C194 0.930 . S
H186 C199 0.929 . S
H187 C197 0.929 . S
H188 C192 0.929 . S
H189 C198 0.929 . S
C190 H184 0.930 . S
C190 C191 1.367 . S
C190 C198 1.378 . S
C191 C190 1.367 . S
C191 C199 1.433 . S
C192 H188 0.929 . S
C192 C194 1.378 . S
C192 C196 1.350 . S
C193 C196 1.463 . S
C193 C198 1.350 . S
C193 N201 1.427 . S
C194 H185 0.930 . S
C194 C192 1.378 . S
C194 C195 1.367 . S
C195 C194 1.367 . S
C195 C197 1.433 . S
C196 C192 1.350 . S
C196 C193 1.463 . S
C196 N200 1.427 . S
C197 H187 0.929 . S
C197 C195 1.433 . S
C197 N200 1.384 . S
C198 H189 0.929 . S
C198 C190 1.378 . S
C198 C193 1.350 . S
C199 H186 0.929 . S
C199 C191 1.433 . S
C199 N201 1.384 . S
N200 C196 1.427 . S
N200 C197 1.384 . S
N201 C193 1.427 . S
N201 C199 1.384 . S
H202 C208 0.930 . S
H203 C212 0.930 . S
H204 C217 0.929 . S
H205 C215 0.929 . S
H206 C210 0.929 . S
H207 C216 0.929 . S
C208 H202 0.930 . S
C208 C209 1.367 . S
C208 C216 1.378 . S
C209 C208 1.367 . S
C209 C217 1.433 . S
C210 H206 0.929 . S
C210 C212 1.378 . S
C210 C214 1.350 . S
C211 C214 1.463 . S
C211 C216 1.350 . S
C211 N219 1.427 . S
C212 H203 0.930 . S
C212 C210 1.378 . S
C212 C213 1.367 . S
C213 C212 1.367 . S
C213 C215 1.433 . S
C214 C210 1.350 . S
C214 C211 1.463 . S
C214 N218 1.427 . S
C215 H205 0.929 . S
C215 C213 1.433 . S
C215 N218 1.384 . S
C216 H207 0.929 . S
C216 C208 1.378 . S
C216 C211 1.350 . S
C217 H204 0.929 . S
C217 C209 1.433 . S
C217 N219 1.384 . S
N218 C214 1.427 . S
N218 C215 1.384 . S
N219 C211 1.427 . S
N219 C217 1.384 . S
H220 C226 0.930 . S
H221 C230 0.930 . S
H222 C235 0.929 . S
H223 C233 0.929 . S
H224 C228 0.929 . S
H225 C234 0.929 . S
C226 H220 0.930 . S
C226 C227 1.367 . S
C226 C234 1.378 . S
C227 C226 1.367 . S
C227 C235 1.433 . S
C228 H224 0.929 . S
C228 C230 1.378 . S
C228 C232 1.350 . S
C229 C232 1.463 . S
C229 C234 1.350 . S
C229 N237 1.427 . S
C230 H221 0.930 . S
C230 C228 1.378 . S
C230 C231 1.367 . S
C231 C230 1.367 . S
C231 C233 1.433 . S
C232 C228 1.350 . S
C232 C229 1.463 . S
C232 N236 1.427 . S
C233 H223 0.929 . S
C233 C231 1.433 . S
C233 N236 1.384 . S
C234 H225 0.929 . S
C234 C226 1.378 . S
C234 C229 1.350 . S
C235 H222 0.929 . S
C235 C227 1.433 . S
C235 N237 1.384 . S
N236 C232 1.427 . S
N236 C233 1.384 . S
N237 C229 1.427 . S
N237 C235 1.384 . S
H238 C244 0.930 . S
H239 C248 0.930 . S
H240 C253 0.929 . S
H241 C251 0.929 . S
H242 C246 0.929 . S
H243 C252 0.929 . S
C244 H238 0.930 . S
C244 C245 1.367 1_655 S
C244 C252 1.378 . S
C245 C244 1.367 1_455 S
C245 C253 1.433 . S
C246 H242 0.929 . S
C246 C248 1.378 . S
C246 C250 1.350 . S
C247 C250 1.463 . S
C247 C252 1.350 1_455 S
C247 N255 1.427 . S
C248 H239 0.930 . S
C248 C246 1.378 . S
C248 C249 1.367 . S
C249 C248 1.367 . S
C249 C251 1.433 1_455 S
C250 C246 1.350 . S
C250 C247 1.463 . S
C250 N254 1.427 1_455 S
C251 H241 0.929 . S
C251 C249 1.433 1_655 S
C251 N254 1.384 . S
C252 H243 0.929 . S
C252 C244 1.378 . S
C252 C247 1.350 1_655 S
C253 H240 0.929 . S
C253 C245 1.433 . S
C253 N255 1.384 . S
N254 C250 1.427 1_655 S
N254 C251 1.384 . S
N255 C247 1.427 . S
N255 C253 1.384 . S
H256 C262 0.930 . S
H257 C266 0.930 . S
H258 C271 0.929 . S
H259 C269 0.929 . S
H260 C264 0.929 . S
H261 C270 0.929 . S
C262 H256 0.930 . S
C262 C263 1.367 . S
C262 C270 1.378 . S
C263 C262 1.367 . S
C263 C271 1.433 1_556 S
C264 H260 0.929 . S
C264 C266 1.378 . S
C264 C268 1.350 1_545 S
C265 C268 1.463 . S
C265 C270 1.350 . S
C265 N273 1.427 . S
C266 H257 0.930 . S
C266 C264 1.378 . S
C266 C267 1.367 1_545 S
C267 C266 1.367 1_565 S
C267 C269 1.433 . S
C268 C264 1.350 1_565 S
C268 C265 1.463 . S
C268 N272 1.427 . S
C269 H259 0.929 . S
C269 C267 1.433 . S
C269 N272 1.384 . S
C270 H261 0.929 . S
C270 C262 1.378 . S
C270 C265 1.350 . S
C271 H258 0.929 . S
C271 C263 1.433 1_554 S
C271 N273 1.384 1_554 S
N272 C268 1.427 . S
N272 C269 1.384 . S
N273 C265 1.427 . S
N273 C271 1.384 1_556 S
H274 C280 0.930 . S
H275 C284 0.930 . S
H276 C289 0.929 1_554 S
H277 C287 0.929 . S
H278 C282 0.929 . S
H279 C288 0.929 . S
C280 H274 0.930 . S
C280 C281 1.367 . S
C280 C288 1.378 . S
C281 C280 1.367 . S
C281 C289 1.433 . S
C282 H278 0.929 . S
C282 C284 1.378 . S
C282 C286 1.350 . S
C283 C286 1.463 . S
C283 C288 1.350 . S
C283 N291 1.427 . S
C284 H275 0.930 . S
C284 C282 1.378 . S
C284 C285 1.367 . S
C285 C284 1.367 . S
C285 C287 1.433 . S
C286 C282 1.350 . S
C286 C283 1.463 . S
C286 N290 1.427 . S
C287 H277 0.929 . S
C287 C285 1.433 . S
C287 N290 1.384 . S
C288 H279 0.929 . S
C288 C280 1.378 . S
C288 C283 1.350 . S
C289 H276 0.929 1_556 S
C289 C281 1.433 . S
C289 N291 1.384 . S
N290 C286 1.427 . S
N290 C287 1.384 . S
N291 C283 1.427 . S
N291 C289 1.384 . S
H292 C298 0.930 1_554 S
H293 C302 0.930 . S
H294 C307 0.929 . S
H295 C305 0.929 . S
H296 C300 0.929 . S
H297 C306 0.929 . S
C298 H292 0.930 1_556 S
C298 C299 1.367 . S
C298 C306 1.378 . S
C299 C298 1.367 . S
C299 C307 1.433 . S
C300 H296 0.929 . S
C300 C302 1.378 . S
C300 C304 1.350 . S
C301 C304 1.463 . S
C301 C306 1.350 . S
C301 N309 1.427 . S
C302 H293 0.930 . S
C302 C300 1.378 . S
C302 C303 1.367 . S
C303 C302 1.367 . S
C303 C305 1.433 . S
C304 C300 1.350 . S
C304 C301 1.463 . S
C304 N308 1.427 . S
C305 H295 0.929 . S
C305 C303 1.433 . S
C305 N308 1.384 . S
C306 H297 0.929 . S
C306 C298 1.378 . S
C306 C301 1.350 . S
C307 H294 0.929 . S
C307 C299 1.433 . S
C307 N309 1.384 . S
N308 C304 1.427 . S
N308 C305 1.384 . S
N309 C301 1.427 . S
N309 C307 1.384 . S
H310 C316 0.930 . S
H311 C320 0.930 . S
H312 C325 0.929 . S
H313 C323 0.929 . S
H314 C318 0.929 . S
H315 C324 0.929 . S
C316 H310 0.930 . S
C316 C317 1.380 1_554 S
C316 C324 1.378 1_554 S
C317 C316 1.380 1_556 S
C317 C325 1.421 1_455 S
C318 H314 0.929 . S
C318 C320 1.378 . S
C318 C322 1.350 1_655 S
C319 C322 1.463 . S
C319 C324 1.350 . S
C319 N327 1.427 1_455 S
C320 H311 0.930 . S
C320 C318 1.378 . S
C320 C321 1.367 1_655 S
C321 C320 1.367 1_455 S
C321 C323 1.433 . S
C322 C318 1.350 1_455 S
C322 C319 1.463 . S
C322 N326 1.427 . S
C323 H313 0.929 . S
C323 C321 1.433 . S
C323 N326 1.384 . S
C324 H315 0.929 . S
C324 C316 1.378 1_556 S
C324 C319 1.350 . S
C325 H312 0.929 . S
C325 C317 1.421 1_655 S
C325 N327 1.384 . S
N326 C322 1.427 . S
N326 C323 1.384 . S
N327 C319 1.427 1_655 S
N327 C325 1.384 . S
H328 C334 0.930 . S
H329 C338 0.930 . S
H330 C343 0.927 1_655 S
H331 C341 0.925 1_455 S
H332 C336 0.929 . S
H333 C342 0.929 . S
C334 H328 0.930 . S
C334 C335 1.367 . S
C334 C342 1.378 . S
C335 C334 1.367 . S
C335 C343 1.437 . S
C336 H332 0.929 . S
C336 C338 1.378 . S
C336 C340 1.350 . S
C337 C340 1.463 1_455 S
C337 C342 1.350 . S
C337 N345 1.427 1_455 S
C338 H329 0.930 . S
C338 C336 1.378 . S
C338 C339 1.367 . S
C339 C338 1.367 . S
C339 C341 1.442 . S
C340 C336 1.350 . S
C340 C337 1.463 1_655 S
C340 N344 1.427 1_655 S
C341 H331 0.925 1_655 S
C341 C339 1.442 . S
C341 N344 1.381 1_655 S
C342 H333 0.929 . S
C342 C334 1.378 . S
C342 C337 1.350 . S
C343 H330 0.927 1_455 S
C343 C335 1.437 . S
C343 N345 1.382 1_455 S
N344 C340 1.427 1_455 S
N344 C341 1.381 1_455 S
N345 C337 1.427 1_655 S
N345 C343 1.382 1_655 S
H346 C352 0.930 . S
H347 C356 0.930 . S
H348 C361 0.929 . S
H349 C359 0.929 . S
H350 C354 0.931 . S
H351 C360 0.929 . S
C352 H346 0.930 . S
C352 C353 1.367 . S
C352 C360 1.378 . S
C353 C352 1.367 . S
C353 C361 1.433 . S
C354 H350 0.931 . S
C354 C356 1.378 1_545 S
C354 C358 1.350 . S
C355 C358 1.463 . S
C355 C360 1.350 . S
C355 N363 1.427 . S
C356 H347 0.930 . S
C356 C354 1.378 1_565 S
C356 C357 1.367 1_565 S
C357 C356 1.367 1_545 S
C357 C359 1.433 . S
C358 C354 1.350 . S
C358 C355 1.463 . S
C358 N362 1.427 . S
C359 H349 0.929 . S
C359 C357 1.433 . S
C359 N362 1.384 . S
C360 H351 0.929 . S
C360 C352 1.378 . S
C360 C355 1.350 . S
C361 H348 0.929 . S
C361 C353 1.433 . S
C361 N363 1.384 . S
N362 C358 1.427 . S
N362 C359 1.384 . S
N363 C355 1.427 . S
N363 C361 1.384 . S
H364 C370 0.930 . S
H365 C374 0.930 . S
H366 C379 0.929 . S
H367 C377 0.929 . S
H368 C372 0.929 . S
H369 C378 0.929 . S
C370 H364 0.930 . S
C370 C371 1.367 . S
C370 C378 1.378 . S
C371 C370 1.367 . S
C371 C379 1.433 . S
C372 H368 0.929 . S
C372 C374 1.378 . S
C372 C376 1.350 . S
C373 C376 1.463 . S
C373 C378 1.350 . S
C373 N381 1.427 . S
C374 H365 0.930 . S
C374 C372 1.378 . S
C374 C375 1.367 . S
C375 C374 1.367 . S
C375 C377 1.433 . S
C376 C372 1.350 . S
C376 C373 1.463 . S
C376 N380 1.427 . S
C377 H367 0.929 . S
C377 C375 1.433 . S
C377 N380 1.384 . S
C378 H369 0.929 . S
C378 C370 1.378 . S
C378 C373 1.350 . S
C379 H366 0.929 . S
C379 C371 1.433 . S
C379 N381 1.384 . S
N380 C376 1.427 . S
N380 C377 1.384 . S
N381 C373 1.427 . S
N381 C379 1.384 . S
H382 C388 0.930 . S
H383 C392 0.930 . S
H384 C397 0.929 . S
H385 C395 0.929 . S
H386 C390 0.929 . S
H387 C396 0.929 . S
C388 H382 0.930 . S
C388 C389 1.367 . S
C388 C396 1.378 . S
C389 C388 1.367 . S
C389 C397 1.433 . S
C390 H386 0.929 . S
C390 C392 1.378 . S
C390 C394 1.350 . S
C391 C394 1.463 . S
C391 C396 1.350 . S
C391 N399 1.427 . S
C392 H383 0.930 . S
C392 C390 1.378 . S
C392 C393 1.367 . S
C393 C392 1.367 . S
C393 C395 1.433 . S
C394 C390 1.350 . S
C394 C391 1.463 . S
C394 N398 1.427 . S
C395 H385 0.929 . S
C395 C393 1.433 . S
C395 N398 1.384 . S
C396 H387 0.929 . S
C396 C388 1.378 . S
C396 C391 1.350 . S
C397 H384 0.929 . S
C397 C389 1.433 . S
C397 N399 1.384 . S
N398 C394 1.427 . S
N398 C395 1.384 . S
N399 C391 1.427 . S
N399 C397 1.384 . S
H400 C406 0.930 . S
H401 C410 0.930 . S
H402 C415 0.929 . S
H403 C413 0.929 . S
H404 C408 0.929 . S
H405 C414 0.929 1_554 S
C406 H400 0.930 . S
C406 C407 1.375 1_554 S
C406 C414 1.378 1_554 S
C407 C406 1.375 1_556 S
C407 C415 1.427 1_455 S
C408 H404 0.929 . S
C408 C410 1.378 . S
C408 C412 1.350 1_655 S
C409 C412 1.463 . S
C409 C414 1.350 . S
C409 N417 1.427 1_455 S
C410 H401 0.930 . S
C410 C408 1.378 . S
C410 C411 1.368 1_655 S
C411 C410 1.368 1_455 S
C411 C413 1.433 . S
C412 C408 1.350 1_455 S
C412 C409 1.463 . S
C412 N416 1.427 . S
C413 H403 0.929 . S
C413 C411 1.433 . S
C413 N416 1.384 . S
C414 H405 0.929 1_556 S
C414 C406 1.378 1_556 S
C414 C409 1.350 . S
C415 H402 0.929 . S
C415 C407 1.427 1_655 S
C415 N417 1.384 . S
N416 C412 1.427 . S
N416 C413 1.384 . S
N417 C409 1.427 1_655 S
N417 C415 1.384 . S
H418 C424 0.930 . S
H419 C428 0.930 . S
H420 C433 0.929 1_545 S
H421 C431 0.929 . S
H422 C426 0.929 . S
H423 C432 0.929 . S
C424 H418 0.930 . S
C424 C425 1.367 . S
C424 C432 1.378 . S
C425 C424 1.367 . S
C425 C433 1.433 1_556 S
C426 H422 0.929 . S
C426 C428 1.378 . S
C426 C430 1.350 1_545 S
C427 C430 1.463 . S
C427 C432 1.350 . S
C427 N435 1.443 . S
C428 H419 0.930 . S
C428 C426 1.378 . S
C428 C429 1.367 . S
C429 C428 1.367 . S
C429 C431 1.433 1_545 S
C430 C426 1.350 1_565 S
C430 C427 1.463 . S
C430 N434 1.427 . S
C431 H421 0.929 . S
C431 C429 1.433 1_565 S
C431 N434 1.384 . S
C432 H423 0.929 . S
C432 C424 1.378 . S
C432 C427 1.350 . S
C433 H420 0.929 1_565 S
C433 C425 1.433 1_554 S
C433 N435 1.390 1_554 S
N434 C430 1.427 . S
N434 C431 1.384 . S
N435 C427 1.443 . S
N435 C433 1.390 1_556 S
H436 C442 0.930 . S
H437 C446 0.930 . S
H438 C451 0.929 . S
H439 C449 0.929 . S
H440 C444 0.929 . S
H441 C450 0.929 1_554 S
C442 H436 0.930 . S
C442 C443 1.367 1_554 S
C442 C450 1.378 1_554 S
C443 C442 1.367 1_556 S
C443 C451 1.433 . S
C444 H440 0.929 . S
C444 C446 1.378 . S
C444 C448 1.350 . S
C445 C448 1.463 . S
C445 C450 1.350 . S
C445 N453 1.427 . S
C446 H437 0.930 . S
C446 C444 1.378 . S
C446 C447 1.367 . S
C447 C446 1.367 . S
C447 C449 1.433 . S
C448 C444 1.350 . S
C448 C445 1.463 . S
C448 N452 1.427 . S
C449 H439 0.929 . S
C449 C447 1.433 . S
C449 N452 1.384 . S
C450 H441 0.929 1_556 S
C450 C442 1.378 1_556 S
C450 C445 1.350 . S
C451 H438 0.929 . S
C451 C443 1.433 . S
C451 N453 1.384 . S
N452 C448 1.427 . S
N452 C449 1.384 . S
N453 C445 1.427 . S
N453 C451 1.384 . S
H454 C460 0.930 . S
H455 C464 0.930 . S
H456 C469 0.929 . S
H457 C467 0.929 . S
H458 C462 0.929 . S
H459 C468 0.929 . S
C460 H454 0.930 . S
C460 C461 1.367 . S
C460 C468 1.378 . S
C461 C460 1.367 . S
C461 C469 1.433 1_556 S
C462 H458 0.929 . S
C462 C464 1.378 . S
C462 C466 1.350 . S
C463 C466 1.463 . S
C463 C468 1.350 . S
C463 N471 1.427 . S
C464 H455 0.930 . S
C464 C462 1.378 . S
C464 C465 1.367 . S
C465 C464 1.367 . S
C465 C467 1.433 . S
C466 C462 1.350 . S
C466 C463 1.463 . S
C466 N470 1.427 . S
C467 H457 0.929 . S
C467 C465 1.433 . S
C467 N470 1.384 . S
C468 H459 0.929 . S
C468 C460 1.378 . S
C468 C463 1.350 . S
C469 H456 0.929 . S
C469 C461 1.433 1_554 S
C469 N471 1.384 1_554 S
N470 C466 1.427 . S
N470 C467 1.384 . S
N471 C463 1.427 . S
N471 C469 1.384 1_556 S
H472 C478 0.930 . S
H473 C482 0.930 . S
H474 C487 0.929 . S
H475 C485 0.929 . S
H476 C480 0.929 . S
H477 C486 0.929 . S
C478 H472 0.930 . S
C478 C479 1.367 1_556 S
C478 C486 1.378 . S
C479 C478 1.367 1_554 S
C479 C487 1.433 1_455 S
C480 H476 0.929 . S
C480 C482 1.378 . S
C480 C484 1.350 1_655 S
C481 C484 1.463 . S
C481 C486 1.350 . S
C481 N489 1.427 1_456 S
C482 H473 0.930 . S
C482 C480 1.378 . S
C482 C483 1.367 1_655 S
C483 C482 1.367 1_455 S
C483 C485 1.433 . S
C484 C480 1.350 1_455 S
C484 C481 1.463 . S
C484 N488 1.427 . S
C485 H475 0.929 . S
C485 C483 1.433 . S
C485 N488 1.384 . S
C486 H477 0.929 . S
C486 C478 1.378 . S
C486 C481 1.350 . S
C487 H474 0.929 . S
C487 C479 1.433 1_655 S
C487 N489 1.384 . S
N488 C484 1.427 . S
N488 C485 1.384 . S
N489 C481 1.427 1_654 S
N489 C487 1.384 . S
H490 C496 0.930 . S
H491 C500 0.930 . S
H492 C505 0.929 . S
H493 C503 0.929 . S
H494 C498 0.929 . S
H495 C504 0.929 . S
C496 H490 0.930 . S
C496 C497 1.367 1_556 S
C496 C504 1.378 . S
C497 C496 1.367 1_554 S
C497 C505 1.433 . S
C498 H494 0.929 . S
C498 C500 1.378 . S
C498 C502 1.350 . S
C499 C502 1.463 . S
C499 C504 1.350 . S
C499 N507 1.427 1_556 S
C500 H491 0.930 . S
C500 C498 1.378 . S
C500 C501 1.367 . S
C501 C500 1.367 . S
C501 C503 1.433 . S
C502 C498 1.350 . S
C502 C499 1.463 . S
C502 N506 1.427 . S
C503 H493 0.929 . S
C503 C501 1.433 . S
C503 N506 1.384 . S
C504 H495 0.929 . S
C504 C496 1.378 . S
C504 C499 1.350 . S
C505 H492 0.929 . S
C505 C497 1.433 . S
C505 N507 1.384 . S
N506 C502 1.427 . S
N506 C503 1.384 . S
N507 C499 1.427 1_554 S
N507 C505 1.384 . S
H508 C514 0.930 . S
H509 C518 0.930 . S
H510 C523 0.929 . S
H511 C521 0.929 . S
H512 C516 0.929 . S
H513 C522 0.929 . S
C514 H508 0.930 . S
C514 C515 1.367 1_556 S
C514 C522 1.378 . S
C515 C514 1.367 1_554 S
C515 C523 1.433 . S
C516 H512 0.929 . S
C516 C518 1.378 . S
C516 C520 1.350 . S
C517 C520 1.463 . S
C517 C522 1.350 . S
C517 N525 1.427 1_556 S
C518 H509 0.930 . S
C518 C516 1.378 . S
C518 C519 1.367 . S
C519 C518 1.367 . S
C519 C521 1.433 . S
C520 C516 1.350 . S
C520 C517 1.463 . S
C520 N524 1.427 . S
C521 H511 0.929 . S
C521 C519 1.433 . S
C521 N524 1.384 . S
C522 H513 0.929 . S
C522 C514 1.378 . S
C522 C517 1.350 . S
C523 H510 0.929 . S
C523 C515 1.433 . S
C523 N525 1.384 . S
N524 C520 1.427 . S
N524 C521 1.384 . S
N525 C517 1.427 1_554 S
N525 C523 1.384 . S
H526 C532 0.930 . S
H527 C536 0.930 . S
H528 C541 0.929 . S
H529 C539 0.929 . S
H530 C534 0.929 1_554 S
H531 C540 0.929 . S
C532 H526 0.930 . S
C532 C533 1.367 1_556 S
C532 C540 1.378 . S
C533 C532 1.367 1_554 S
C533 C541 1.433 . S
C534 H530 0.929 1_556 S
C534 C536 1.378 . S
C534 C538 1.350 . S
C535 C538 1.463 . S
C535 C540 1.350 . S
C535 N543 1.427 1_556 S
C536 H527 0.930 . S
C536 C534 1.378 . S
C536 C537 1.367 . S
C537 C536 1.367 . S
C537 C539 1.433 . S
C538 C534 1.350 . S
C538 C535 1.463 . S
C538 N542 1.427 . S
C539 H529 0.929 . S
C539 C537 1.433 . S
C539 N542 1.384 . S
C540 H531 0.929 . S
C540 C532 1.378 . S
C540 C535 1.350 . S
C541 H528 0.929 . S
C541 C533 1.433 . S
C541 N543 1.384 . S
N542 C538 1.427 . S
N542 C539 1.384 . S
N543 C535 1.427 1_554 S
N543 C541 1.384 . S
H544 C550 0.930 . S
H545 C554 0.930 . S
H546 C559 0.929 . S
H547 C557 0.929 . S
H548 C552 0.929 . S
H549 C558 0.929 . S
C550 H544 0.930 . S
C550 C551 1.367 . S
C550 C558 1.378 . S
C551 C550 1.367 . S
C551 C559 1.433 1_655 S
C552 H548 0.929 . S
C552 C554 1.378 . S
C552 C556 1.350 1_455 S
C553 C556 1.463 . S
C553 C558 1.350 . S
C553 N561 1.427 1_655 S
C554 H545 0.930 . S
C554 C552 1.378 . S
C554 C555 1.367 1_455 S
C555 C554 1.367 1_655 S
C555 C557 1.433 . S
C556 C552 1.350 1_655 S
C556 C553 1.463 . S
C556 N560 1.427 . S
C557 H547 0.929 . S
C557 C555 1.433 . S
C557 N560 1.384 . S
C558 H549 0.929 . S
C558 C550 1.378 . S
C558 C553 1.350 . S
C559 H546 0.929 . S
C559 C551 1.433 1_455 S
C559 N561 1.384 . S
N560 C556 1.427 . S
N560 C557 1.384 . S
N561 C553 1.427 1_455 S
N561 C559 1.384 . S
H562 C568 0.930 . S
H563 C572 0.930 . S
H564 C577 0.929 . S
H565 C575 0.929 1_545 S
H566 C570 0.929 . S
H567 C576 0.929 . S
C568 H562 0.930 . S
C568 C569 1.367 . S
C568 C576 1.378 . S
C569 C568 1.367 . S
C569 C577 1.433 . S
C570 H566 0.929 . S
C570 C572 1.378 . S
C570 C574 1.350 . S
C571 C574 1.463 . S
C571 C576 1.350 . S
C571 N579 1.427 . S
C572 H563 0.930 . S
C572 C570 1.378 . S
C572 C573 1.367 . S
C573 C572 1.367 . S
C573 C575 1.433 . S
C574 C570 1.350 . S
C574 C571 1.463 . S
C574 N578 1.427 . S
C575 H565 0.929 1_565 S
C575 C573 1.433 . S
C575 N578 1.384 . S
C576 H567 0.929 . S
C576 C568 1.378 . S
C576 C571 1.350 . S
C577 H564 0.929 . S
C577 C569 1.433 . S
C577 N579 1.384 . S
N578 C574 1.427 . S
N578 C575 1.384 . S
N579 C571 1.427 . S
N579 C577 1.384 . S
H580 C586 0.930 . S
H581 C590 0.930 . S
H582 C595 0.929 . S
H583 C593 0.929 . S
H584 C588 0.929 . S
H585 C594 0.929 . S
C586 H580 0.930 . S
C586 C587 1.367 . S
C586 C594 1.378 . S
C587 C586 1.367 . S
C587 C595 1.433 . S
C588 H584 0.929 . S
C588 C590 1.378 . S
C588 C592 1.350 . S
C589 C592 1.463 . S
C589 C594 1.350 . S
C589 N597 1.427 . S
C590 H581 0.930 . S
C590 C588 1.378 . S
C590 C591 1.367 . S
C591 C590 1.367 . S
C591 C593 1.433 . S
C592 C588 1.350 . S
C592 C589 1.463 . S
C592 N596 1.427 . S
C593 H583 0.929 . S
C593 C591 1.433 . S
C593 N596 1.384 . S
C594 H585 0.929 . S
C594 C586 1.378 . S
C594 C589 1.350 . S
C595 H582 0.929 . S
C595 C587 1.433 . S
C595 N597 1.384 . S
N596 C592 1.427 . S
N596 C593 1.384 . S
N597 C589 1.427 . S
N597 C595 1.384 . S
H598 C604 0.930 . S
H599 C608 0.930 . S
H600 C613 0.929 . S
H601 C611 0.929 . S
H602 C606 0.929 . S
H603 C612 0.929 . S
C604 H598 0.930 . S
C604 C605 1.367 . S
C604 C612 1.378 . S
C605 C604 1.367 . S
C605 C613 1.433 . S
C606 H602 0.929 . S
C606 C608 1.378 . S
C606 C610 1.350 . S
C607 C610 1.463 . S
C607 C612 1.350 . S
C607 N615 1.427 . S
C608 H599 0.930 . S
C608 C606 1.378 . S
C608 C609 1.367 . S
C609 C608 1.367 . S
C609 C611 1.433 . S
C610 C606 1.350 . S
C610 C607 1.463 . S
C610 N614 1.427 . S
C611 H601 0.929 . S
C611 C609 1.433 . S
C611 N614 1.384 . S
C612 H603 0.929 . S
C612 C604 1.378 . S
C612 C607 1.350 . S
C613 H600 0.929 . S
C613 C605 1.433 . S
C613 N615 1.384 . S
N614 C610 1.427 . S
N614 C611 1.384 . S
N615 C607 1.427 . S
N615 C613 1.384 . S
C191 N80 1.560 . S
C195 C122 1.551 . S
C213 C142 1.498 . S
C209 N93 1.519 . S
C231 C162 1.545 . S
C227 N54 1.559 . S
C249 C182 1.507 1_455 S
C245 N67 1.522 . S
C267 C123 1.544 1_565 S
C263 N28 1.562 1_556 S
C281 N41 1.522 1_556 S
C285 C143 1.504 . S
C299 N2 1.564 1_556 S
C303 C163 1.545 . S
C317 N15 1.523 1_456 S
C321 C183 1.507 . S
C339 C113 0.839 . S
C335 N70 0.843 . S
C357 C133 0.828 . S
C353 N83 0.853 . S
C375 C153 0.831 . S
C371 N96 0.839 . S
C389 N57 0.851 . S
C393 C173 0.825 . S
C407 N18 0.846 1_456 S
C411 C116 0.814 . S
C429 C136 0.858 . S
C425 N31 0.859 . S
C447 C156 0.814 . S
C443 N44 0.847 1_556 S
C461 N5 0.854 . S
C465 C176 0.847 . S
C479 N66 1.552 . S
C483 C106 1.435 . S
C497 N79 1.575 . S
C501 C126 1.463 . S
C519 C146 1.442 . S
C515 N92 1.558 . S
C537 C166 1.472 . S
C533 N53 1.578 . S
C551 N14 1.537 . S
C555 C108 1.419 . S
C573 C128 1.457 . S
C569 N27 1.577 . S
C591 C148 1.417 . S
C587 N40 1.536 . S
C605 N1 1.576 . S
C609 C168 1.461 . S
